# Generated by pormake.
# Topology tbo, (3,4)-cn, num edge types: 1
# Building blocks:
#     Node 0, Type 0, BuildingBlock: WUSLED_clean_sbu_0, # of connection points: 3
#     Node 1, Type 0, BuildingBlock: WUSLED_clean_sbu_0, # of connection points: 3
#     Node 2, Type 0, BuildingBlock: WUSLED_clean_sbu_0, # of connection points: 3
#     Node 3, Type 0, BuildingBlock: WUSLED_clean_sbu_0, # of connection points: 3
#     Node 4, Type 0, BuildingBlock: WUSLED_clean_sbu_0, # of connection points: 3
#     Node 5, Type 0, BuildingBlock: WUSLED_clean_sbu_0, # of connection points: 3
#     Node 6, Type 0, BuildingBlock: WUSLED_clean_sbu_0, # of connection points: 3
#     Node 7, Type 0, BuildingBlock: WUSLED_clean_sbu_0, # of connection points: 3
#     Node 8, Type 0, BuildingBlock: WUSLED_clean_sbu_0, # of connection points: 3
#     Node 9, Type 0, BuildingBlock: WUSLED_clean_sbu_0, # of connection points: 3
#     Node 10, Type 0, BuildingBlock: WUSLED_clean_sbu_0, # of connection points: 3
#     Node 11, Type 0, BuildingBlock: WUSLED_clean_sbu_0, # of connection points: 3
#     Node 12, Type 0, BuildingBlock: WUSLED_clean_sbu_0, # of connection points: 3
#     Node 13, Type 0, BuildingBlock: WUSLED_clean_sbu_0, # of connection points: 3
#     Node 14, Type 0, BuildingBlock: WUSLED_clean_sbu_0, # of connection points: 3
#     Node 15, Type 0, BuildingBlock: WUSLED_clean_sbu_0, # of connection points: 3
#     Node 16, Type 0, BuildingBlock: WUSLED_clean_sbu_0, # of connection points: 3
#     Node 17, Type 0, BuildingBlock: WUSLED_clean_sbu_0, # of connection points: 3
#     Node 18, Type 0, BuildingBlock: WUSLED_clean_sbu_0, # of connection points: 3
#     Node 19, Type 0, BuildingBlock: WUSLED_clean_sbu_0, # of connection points: 3
#     Node 20, Type 0, BuildingBlock: WUSLED_clean_sbu_0, # of connection points: 3
#     Node 21, Type 0, BuildingBlock: WUSLED_clean_sbu_0, # of connection points: 3
#     Node 22, Type 0, BuildingBlock: WUSLED_clean_sbu_0, # of connection points: 3
#     Node 23, Type 0, BuildingBlock: WUSLED_clean_sbu_0, # of connection points: 3
#     Node 24, Type 0, BuildingBlock: WUSLED_clean_sbu_0, # of connection points: 3
#     Node 25, Type 0, BuildingBlock: WUSLED_clean_sbu_0, # of connection points: 3
#     Node 26, Type 0, BuildingBlock: WUSLED_clean_sbu_0, # of connection points: 3
#     Node 27, Type 0, BuildingBlock: WUSLED_clean_sbu_0, # of connection points: 3
#     Node 28, Type 0, BuildingBlock: WUSLED_clean_sbu_0, # of connection points: 3
#     Node 29, Type 0, BuildingBlock: WUSLED_clean_sbu_0, # of connection points: 3
#     Node 30, Type 0, BuildingBlock: WUSLED_clean_sbu_0, # of connection points: 3
#     Node 31, Type 0, BuildingBlock: WUSLED_clean_sbu_0, # of connection points: 3
#     Node 32, Type 1, BuildingBlock: MUDLON_clean_linker_0, # of connection points: 4
#     Node 33, Type 1, BuildingBlock: MUDLON_clean_linker_0, # of connection points: 4
#     Node 34, Type 1, BuildingBlock: MUDLON_clean_linker_0, # of connection points: 4
#     Node 35, Type 1, BuildingBlock: MUDLON_clean_linker_0, # of connection points: 4
#     Node 36, Type 1, BuildingBlock: MUDLON_clean_linker_0, # of connection points: 4
#     Node 37, Type 1, BuildingBlock: MUDLON_clean_linker_0, # of connection points: 4
#     Node 38, Type 1, BuildingBlock: MUDLON_clean_linker_0, # of connection points: 4
#     Node 39, Type 1, BuildingBlock: MUDLON_clean_linker_0, # of connection points: 4
#     Node 40, Type 1, BuildingBlock: MUDLON_clean_linker_0, # of connection points: 4
#     Node 41, Type 1, BuildingBlock: MUDLON_clean_linker_0, # of connection points: 4
#     Node 42, Type 1, BuildingBlock: MUDLON_clean_linker_0, # of connection points: 4
#     Node 43, Type 1, BuildingBlock: MUDLON_clean_linker_0, # of connection points: 4
#     Node 44, Type 1, BuildingBlock: MUDLON_clean_linker_0, # of connection points: 4
#     Node 45, Type 1, BuildingBlock: MUDLON_clean_linker_0, # of connection points: 4
#     Node 46, Type 1, BuildingBlock: MUDLON_clean_linker_0, # of connection points: 4
#     Node 47, Type 1, BuildingBlock: MUDLON_clean_linker_0, # of connection points: 4
#     Node 48, Type 1, BuildingBlock: MUDLON_clean_linker_0, # of connection points: 4
#     Node 49, Type 1, BuildingBlock: MUDLON_clean_linker_0, # of connection points: 4
#     Node 50, Type 1, BuildingBlock: MUDLON_clean_linker_0, # of connection points: 4
#     Node 51, Type 1, BuildingBlock: MUDLON_clean_linker_0, # of connection points: 4
#     Node 52, Type 1, BuildingBlock: MUDLON_clean_linker_0, # of connection points: 4
#     Node 53, Type 1, BuildingBlock: MUDLON_clean_linker_0, # of connection points: 4
#     Node 54, Type 1, BuildingBlock: MUDLON_clean_linker_0, # of connection points: 4
#     Node 55, Type 1, BuildingBlock: MUDLON_clean_linker_0, # of connection points: 4
#     Edge 56, Type (0, 1), BuildingBlock: XUDNAN_clean_linker_2, # of connection points: 2
#     Edge 57, Type (0, 1), BuildingBlock: XUDNAN_clean_linker_2, # of connection points: 2
#     Edge 58, Type (0, 1), BuildingBlock: XUDNAN_clean_linker_2, # of connection points: 2
#     Edge 59, Type (0, 1), BuildingBlock: XUDNAN_clean_linker_2, # of connection points: 2
#     Edge 60, Type (0, 1), BuildingBlock: XUDNAN_clean_linker_2, # of connection points: 2
#     Edge 61, Type (0, 1), BuildingBlock: XUDNAN_clean_linker_2, # of connection points: 2
#     Edge 62, Type (0, 1), BuildingBlock: XUDNAN_clean_linker_2, # of connection points: 2
#     Edge 63, Type (0, 1), BuildingBlock: XUDNAN_clean_linker_2, # of connection points: 2
#     Edge 64, Type (0, 1), BuildingBlock: XUDNAN_clean_linker_2, # of connection points: 2
#     Edge 65, Type (0, 1), BuildingBlock: XUDNAN_clean_linker_2, # of connection points: 2
#     Edge 66, Type (0, 1), BuildingBlock: XUDNAN_clean_linker_2, # of connection points: 2
#     Edge 67, Type (0, 1), BuildingBlock: XUDNAN_clean_linker_2, # of connection points: 2
#     Edge 68, Type (0, 1), BuildingBlock: XUDNAN_clean_linker_2, # of connection points: 2
#     Edge 69, Type (0, 1), BuildingBlock: XUDNAN_clean_linker_2, # of connection points: 2
#     Edge 70, Type (0, 1), BuildingBlock: XUDNAN_clean_linker_2, # of connection points: 2
#     Edge 71, Type (0, 1), BuildingBlock: XUDNAN_clean_linker_2, # of connection points: 2
#     Edge 72, Type (0, 1), BuildingBlock: XUDNAN_clean_linker_2, # of connection points: 2
#     Edge 73, Type (0, 1), BuildingBlock: XUDNAN_clean_linker_2, # of connection points: 2
#     Edge 74, Type (0, 1), BuildingBlock: XUDNAN_clean_linker_2, # of connection points: 2
#     Edge 75, Type (0, 1), BuildingBlock: XUDNAN_clean_linker_2, # of connection points: 2
#     Edge 76, Type (0, 1), BuildingBlock: XUDNAN_clean_linker_2, # of connection points: 2
#     Edge 77, Type (0, 1), BuildingBlock: XUDNAN_clean_linker_2, # of connection points: 2
#     Edge 78, Type (0, 1), BuildingBlock: XUDNAN_clean_linker_2, # of connection points: 2
#     Edge 79, Type (0, 1), BuildingBlock: XUDNAN_clean_linker_2, # of connection points: 2
#     Edge 80, Type (0, 1), BuildingBlock: XUDNAN_clean_linker_2, # of connection points: 2
#     Edge 81, Type (0, 1), BuildingBlock: XUDNAN_clean_linker_2, # of connection points: 2
#     Edge 82, Type (0, 1), BuildingBlock: XUDNAN_clean_linker_2, # of connection points: 2
#     Edge 83, Type (0, 1), BuildingBlock: XUDNAN_clean_linker_2, # of connection points: 2
#     Edge 84, Type (0, 1), BuildingBlock: XUDNAN_clean_linker_2, # of connection points: 2
#     Edge 85, Type (0, 1), BuildingBlock: XUDNAN_clean_linker_2, # of connection points: 2
#     Edge 86, Type (0, 1), BuildingBlock: XUDNAN_clean_linker_2, # of connection points: 2
#     Edge 87, Type (0, 1), BuildingBlock: XUDNAN_clean_linker_2, # of connection points: 2
#     Edge 88, Type (0, 1), BuildingBlock: XUDNAN_clean_linker_2, # of connection points: 2
#     Edge 89, Type (0, 1), BuildingBlock: XUDNAN_clean_linker_2, # of connection points: 2
#     Edge 90, Type (0, 1), BuildingBlock: XUDNAN_clean_linker_2, # of connection points: 2
#     Edge 91, Type (0, 1), BuildingBlock: XUDNAN_clean_linker_2, # of connection points: 2
#     Edge 92, Type (0, 1), BuildingBlock: XUDNAN_clean_linker_2, # of connection points: 2
#     Edge 93, Type (0, 1), BuildingBlock: XUDNAN_clean_linker_2, # of connection points: 2
#     Edge 94, Type (0, 1), BuildingBlock: XUDNAN_clean_linker_2, # of connection points: 2
#     Edge 95, Type (0, 1), BuildingBlock: XUDNAN_clean_linker_2, # of connection points: 2
#     Edge 96, Type (0, 1), BuildingBlock: XUDNAN_clean_linker_2, # of connection points: 2
#     Edge 97, Type (0, 1), BuildingBlock: XUDNAN_clean_linker_2, # of connection points: 2
#     Edge 98, Type (0, 1), BuildingBlock: XUDNAN_clean_linker_2, # of connection points: 2
#     Edge 99, Type (0, 1), BuildingBlock: XUDNAN_clean_linker_2, # of connection points: 2
#     Edge 100, Type (0, 1), BuildingBlock: XUDNAN_clean_linker_2, # of connection points: 2
#     Edge 101, Type (0, 1), BuildingBlock: XUDNAN_clean_linker_2, # of connection points: 2
#     Edge 102, Type (0, 1), BuildingBlock: XUDNAN_clean_linker_2, # of connection points: 2
#     Edge 103, Type (0, 1), BuildingBlock: XUDNAN_clean_linker_2, # of connection points: 2
#     Edge 104, Type (0, 1), BuildingBlock: XUDNAN_clean_linker_2, # of connection points: 2
#     Edge 105, Type (0, 1), BuildingBlock: XUDNAN_clean_linker_2, # of connection points: 2
#     Edge 106, Type (0, 1), BuildingBlock: XUDNAN_clean_linker_2, # of connection points: 2
#     Edge 107, Type (0, 1), BuildingBlock: XUDNAN_clean_linker_2, # of connection points: 2
#     Edge 108, Type (0, 1), BuildingBlock: XUDNAN_clean_linker_2, # of connection points: 2
#     Edge 109, Type (0, 1), BuildingBlock: XUDNAN_clean_linker_2, # of connection points: 2
#     Edge 110, Type (0, 1), BuildingBlock: XUDNAN_clean_linker_2, # of connection points: 2
#     Edge 111, Type (0, 1), BuildingBlock: XUDNAN_clean_linker_2, # of connection points: 2
#     Edge 112, Type (0, 1), BuildingBlock: XUDNAN_clean_linker_2, # of connection points: 2
#     Edge 113, Type (0, 1), BuildingBlock: XUDNAN_clean_linker_2, # of connection points: 2
#     Edge 114, Type (0, 1), BuildingBlock: XUDNAN_clean_linker_2, # of connection points: 2
#     Edge 115, Type (0, 1), BuildingBlock: XUDNAN_clean_linker_2, # of connection points: 2
#     Edge 116, Type (0, 1), BuildingBlock: XUDNAN_clean_linker_2, # of connection points: 2
#     Edge 117, Type (0, 1), BuildingBlock: XUDNAN_clean_linker_2, # of connection points: 2
#     Edge 118, Type (0, 1), BuildingBlock: XUDNAN_clean_linker_2, # of connection points: 2
#     Edge 119, Type (0, 1), BuildingBlock: XUDNAN_clean_linker_2, # of connection points: 2
#     Edge 120, Type (0, 1), BuildingBlock: XUDNAN_clean_linker_2, # of connection points: 2
#     Edge 121, Type (0, 1), BuildingBlock: XUDNAN_clean_linker_2, # of connection points: 2
#     Edge 122, Type (0, 1), BuildingBlock: XUDNAN_clean_linker_2, # of connection points: 2
#     Edge 123, Type (0, 1), BuildingBlock: XUDNAN_clean_linker_2, # of connection points: 2
#     Edge 124, Type (0, 1), BuildingBlock: XUDNAN_clean_linker_2, # of connection points: 2
#     Edge 125, Type (0, 1), BuildingBlock: XUDNAN_clean_linker_2, # of connection points: 2
#     Edge 126, Type (0, 1), BuildingBlock: XUDNAN_clean_linker_2, # of connection points: 2
#     Edge 127, Type (0, 1), BuildingBlock: XUDNAN_clean_linker_2, # of connection points: 2
#     Edge 128, Type (0, 1), BuildingBlock: XUDNAN_clean_linker_2, # of connection points: 2
#     Edge 129, Type (0, 1), BuildingBlock: XUDNAN_clean_linker_2, # of connection points: 2
#     Edge 130, Type (0, 1), BuildingBlock: XUDNAN_clean_linker_2, # of connection points: 2
#     Edge 131, Type (0, 1), BuildingBlock: XUDNAN_clean_linker_2, # of connection points: 2
#     Edge 132, Type (0, 1), BuildingBlock: XUDNAN_clean_linker_2, # of connection points: 2
#     Edge 133, Type (0, 1), BuildingBlock: XUDNAN_clean_linker_2, # of connection points: 2
#     Edge 134, Type (0, 1), BuildingBlock: XUDNAN_clean_linker_2, # of connection points: 2
#     Edge 135, Type (0, 1), BuildingBlock: XUDNAN_clean_linker_2, # of connection points: 2
#     Edge 136, Type (0, 1), BuildingBlock: XUDNAN_clean_linker_2, # of connection points: 2
#     Edge 137, Type (0, 1), BuildingBlock: XUDNAN_clean_linker_2, # of connection points: 2
#     Edge 138, Type (0, 1), BuildingBlock: XUDNAN_clean_linker_2, # of connection points: 2
#     Edge 139, Type (0, 1), BuildingBlock: XUDNAN_clean_linker_2, # of connection points: 2
#     Edge 140, Type (0, 1), BuildingBlock: XUDNAN_clean_linker_2, # of connection points: 2
#     Edge 141, Type (0, 1), BuildingBlock: XUDNAN_clean_linker_2, # of connection points: 2
#     Edge 142, Type (0, 1), BuildingBlock: XUDNAN_clean_linker_2, # of connection points: 2
#     Edge 143, Type (0, 1), BuildingBlock: XUDNAN_clean_linker_2, # of connection points: 2
#     Edge 144, Type (0, 1), BuildingBlock: XUDNAN_clean_linker_2, # of connection points: 2
#     Edge 145, Type (0, 1), BuildingBlock: XUDNAN_clean_linker_2, # of connection points: 2
#     Edge 146, Type (0, 1), BuildingBlock: XUDNAN_clean_linker_2, # of connection points: 2
#     Edge 147, Type (0, 1), BuildingBlock: XUDNAN_clean_linker_2, # of connection points: 2
#     Edge 148, Type (0, 1), BuildingBlock: XUDNAN_clean_linker_2, # of connection points: 2
#     Edge 149, Type (0, 1), BuildingBlock: XUDNAN_clean_linker_2, # of connection points: 2
#     Edge 150, Type (0, 1), BuildingBlock: XUDNAN_clean_linker_2, # of connection points: 2
#     Edge 151, Type (0, 1), BuildingBlock: XUDNAN_clean_linker_2, # of connection points: 2
# Relax obj value: 0.001
# Max RMSD: 0.045
# Mean RMSD: 0.021
data_MOF--net-tbo--node1-WUSLED_clean_sbu_0--node2-MUDLON_clean_linker_0--edge1-XUDNAN_clean_linker_2
_symmetry_space_group_name_H-M    P1
_symmetry_Int_Tables_number       1
_symmetry_cell_setting            triclinic
loop_
_symmetry_equiv_pos_as_xyz
'x, y, z'
_cell_length_a     118.73982
_cell_length_b     119.2234
_cell_length_c     119.02735
_cell_angle_alpha  89.500097
_cell_angle_beta   90.414852
_cell_angle_gamma 90.993245
loop_
_atom_site_label
_atom_site_type_symbol
_atom_site_fract_x
_atom_site_fract_y
_atom_site_fract_z
_atom_type_partial_charge
C0 C 0.19354 0.15524 0.20261 0.0
C1 C 0.20321 0.15122 0.19735 0.0
C2 C 0.20618 0.13801 0.21285 0.0
C3 C 0.20946 0.14263 0.20242 0.0
C4 C 0.19637 0.14197 0.21793 0.0
C5 C 0.19013 0.15048 0.21286 0.0
U6 U 0.18835 0.17953 0.18155 0.0
O7 O 0.17247 0.1846 0.17346 0.0
O8 O 0.18135 0.19613 0.18489 0.0
C9 C 0.17235 0.19428 0.17865 0.0
C10 C 0.18694 0.1645 0.19781 0.0
C11 C 0.1615 0.19749 0.18351 0.0
C12 C 0.14689 0.19588 0.19772 0.0
C13 C 0.15728 0.19253 0.1934 0.0
C14 C 0.14496 0.20913 0.18232 0.0
C15 C 0.14056 0.20417 0.19216 0.0
C16 C 0.15529 0.20581 0.17805 0.0
C17 C 0.209 0.18755 0.15839 0.0
C18 C 0.20476 0.20236 0.14491 0.0
C19 C 0.22303 0.19365 0.14476 0.0
C20 C 0.21975 0.18669 0.15374 0.0
C21 C 0.2156 0.20162 0.14025 0.0
C22 C 0.20151 0.19541 0.1539 0.0
C23 C 0.20572 0.18034 0.16798 0.0
O24 O 0.19124 0.17462 0.19919 0.0
O25 O 0.18266 0.16292 0.18771 0.0
O26 O 0.19684 0.17381 0.16631 0.0
O27 O 0.20563 0.18533 0.17778 0.0
H28 H 0.20597 0.15482 0.18943 0.0
H29 H 0.21701 0.13981 0.19833 0.0
H30 H 0.19349 0.13848 0.22586 0.0
H31 H 0.18267 0.15344 0.21702 0.0
H32 H 0.14373 0.19185 0.20528 0.0
H33 H 0.16199 0.18609 0.19774 0.0
H34 H 0.14046 0.2157 0.17794 0.0
H35 H 0.15845 0.20979 0.17045 0.0
H36 H 0.19876 0.20828 0.14158 0.0
H37 H 0.23148 0.19294 0.14151 0.0
H38 H 0.22566 0.18069 0.15713 0.0
H39 H 0.19315 0.19619 0.15737 0.0
C40 C 0.8231 0.18697 0.15495 0.0
C41 C 0.83061 0.18808 0.1459 0.0
C42 C 0.81655 0.19814 0.13492 0.0
C43 C 0.82735 0.19358 0.13599 0.0
C44 C 0.80918 0.19733 0.1441 0.0
C45 C 0.81241 0.19176 0.15398 0.0
U46 U 0.84091 0.18031 0.18141 0.0
O47 O 0.83531 0.17405 0.19799 0.0
O48 O 0.8468 0.16412 0.18788 0.0
C49 C 0.84048 0.16446 0.1969 0.0
C50 C 0.82589 0.18024 0.16509 0.0
C51 C 0.83395 0.15413 0.19981 0.0
C52 C 0.82281 0.14354 0.21351 0.0
C53 C 0.828 0.15358 0.20997 0.0
C54 C 0.82921 0.13443 0.19669 0.0
C55 C 0.82354 0.13379 0.20702 0.0
C56 C 0.83435 0.14448 0.19312 0.0
C57 C 0.86615 0.19858 0.18986 0.0
C58 C 0.87863 0.19313 0.20515 0.0
C59 C 0.88077 0.21149 0.19645 0.0
C60 C 0.87179 0.20898 0.18917 0.0
C61 C 0.88428 0.20361 0.20458 0.0
C62 C 0.86964 0.19066 0.19788 0.0
C63 C 0.8566 0.1961 0.18227 0.0
O64 O 0.83522 0.17446 0.16482 0.0
O65 O 0.82422 0.18502 0.17484 0.0
O66 O 0.84657 0.19716 0.18669 0.0
O67 O 0.8575 0.18695 0.17628 0.0
H68 H 0.83893 0.18451 0.14636 0.0
H69 H 0.83327 0.19418 0.12912 0.0
H70 H 0.80076 0.20064 0.14351 0.0
H71 H 0.80643 0.19095 0.16078 0.0
H72 H 0.81861 0.14331 0.22156 0.0
H73 H 0.82766 0.16085 0.21535 0.0
H74 H 0.82981 0.1271 0.19143 0.0
H75 H 0.83886 0.14458 0.18524 0.0
H76 H 0.8812 0.1868 0.21117 0.0
H77 H 0.88481 0.21968 0.19587 0.0
H78 H 0.86917 0.21521 0.18304 0.0
H79 H 0.86539 0.18256 0.19853 0.0
C80 C 0.82162 0.83764 0.15702 0.0
C81 C 0.82787 0.82916 0.15201 0.0
C82 C 0.8141 0.82787 0.13669 0.0
C83 C 0.82411 0.82428 0.14192 0.0
C84 C 0.80784 0.83625 0.1419 0.0
C85 C 0.81157 0.84108 0.15194 0.0
U86 U 0.84189 0.84262 0.18225 0.0
O87 O 0.84692 0.85872 0.18988 0.0
O88 O 0.83762 0.8461 0.19983 0.0
C89 C 0.84197 0.8563 0.19946 0.0
C90 C 0.82535 0.8432 0.16745 0.0
C91 C 0.8351 0.86514 0.2044 0.0
C92 C 0.81964 0.8783 0.20371 0.0
C93 C 0.82617 0.87014 0.19851 0.0
C94 C 0.83098 0.87655 0.22061 0.0
C95 C 0.82189 0.88148 0.21488 0.0
C96 C 0.83749 0.86848 0.21542 0.0
C97 C 0.86847 0.82612 0.18767 0.0
C98 C 0.88164 0.83167 0.20242 0.0
C99 C 0.88281 0.81322 0.19422 0.0
C100 C 0.87371 0.8157 0.1871 0.0
C101 C 0.88682 0.82113 0.20207 0.0
C102 C 0.87253 0.83411 0.19534 0.0
C103 C 0.85847 0.82842 0.18063 0.0
O104 O 0.82498 0.83706 0.17667 0.0
O105 O 0.83449 0.84953 0.16672 0.0
O106 O 0.85844 0.83824 0.1755 0.0
O107 O 0.84876 0.82581 0.18528 0.0
H108 H 0.83566 0.8264 0.15584 0.0
H109 H 0.82916 0.81789 0.13811 0.0
H110 H 0.79999 0.83907 0.13825 0.0
H111 H 0.8066 0.84757 0.15572 0.0
H112 H 0.81266 0.88191 0.1991 0.0
H113 H 0.82419 0.86765 0.18998 0.0
H114 H 0.83307 0.87893 0.22914 0.0
H115 H 0.84438 0.86475 0.22008 0.0
H116 H 0.88459 0.83805 0.20821 0.0
H117 H 0.88648 0.80498 0.19379 0.0
H118 H 0.87065 0.80939 0.18128 0.0
H119 H 0.86858 0.84221 0.19595 0.0
C120 C 0.16572 0.81481 0.18294 0.0
C121 C 0.16183 0.81938 0.193 0.0
C122 C 0.14731 0.80467 0.19432 0.0
C123 C 0.15267 0.81436 0.19864 0.0
C124 C 0.15115 0.80031 0.18411 0.0
C125 C 0.16025 0.80532 0.17851 0.0
U126 U 0.18963 0.83677 0.17851 0.0
O127 O 0.20702 0.83409 0.17297 0.0
O128 O 0.19567 0.84431 0.16267 0.0
C129 C 0.20556 0.83957 0.16346 0.0
C130 C 0.17551 0.81961 0.17694 0.0
C131 C 0.2095 0.83404 0.15322 0.0
C132 C 0.21018 0.818 0.14072 0.0
C133 C 0.20632 0.82296 0.1506 0.0
C134 C 0.2204 0.83515 0.13604 0.0
C135 C 0.21721 0.82408 0.13328 0.0
C136 C 0.21658 0.84005 0.1459 0.0
C137 C 0.19345 0.86197 0.19852 0.0
C138 C 0.20886 0.87201 0.20797 0.0
C139 C 0.19245 0.8821 0.20166 0.0
C140 C 0.18772 0.87214 0.19749 0.0
C141 C 0.20302 0.88216 0.20709 0.0
C142 C 0.20412 0.86202 0.20376 0.0
C143 C 0.18784 0.85139 0.19478 0.0
O144 O 0.17394 0.82925 0.17178 0.0
O145 O 0.18523 0.81913 0.18225 0.0
O146 O 0.19356 0.84208 0.1958 0.0
O147 O 0.18205 0.85197 0.18533 0.0
H148 H 0.16596 0.82673 0.19654 0.0
H149 H 0.14998 0.8179 0.20651 0.0
H150 H 0.1471 0.79299 0.18043 0.0
H151 H 0.16308 0.80172 0.17071 0.0
H152 H 0.2075 0.8095 0.13881 0.0
H153 H 0.20081 0.81818 0.15614 0.0
H154 H 0.22595 0.84001 0.13062 0.0
H155 H 0.21917 0.8486 0.1478 0.0
H156 H 0.21695 0.8717 0.2122 0.0
H157 H 0.18778 0.88977 0.20065 0.0
H158 H 0.17945 0.87237 0.19358 0.0
H159 H 0.20875 0.85434 0.2048 0.0
C160 C 0.16311 0.81375 0.83647 0.0
C161 C 0.15441 0.8215 0.83507 0.0
C162 C 0.14371 0.80824 0.82349 0.0
C163 C 0.14482 0.81876 0.8287 0.0
C164 C 0.15247 0.80052 0.82486 0.0
C165 C 0.16203 0.80324 0.83131 0.0
U166 U 0.18899 0.83209 0.84347 0.0
O167 O 0.19541 0.8382 0.85972 0.0
O168 O 0.20593 0.82749 0.84936 0.0
C169 C 0.20488 0.83272 0.85897 0.0
C170 C 0.17323 0.81637 0.84341 0.0
C171 C 0.20838 0.82661 0.86917 0.0
C172 C 0.20731 0.81057 0.88194 0.0
C173 C 0.20398 0.81594 0.87194 0.0
C174 C 0.21946 0.82647 0.8864 0.0
C175 C 0.21501 0.81585 0.88934 0.0
C176 C 0.21618 0.83178 0.87643 0.0
C177 C 0.19538 0.85804 0.82537 0.0
C178 C 0.21086 0.87093 0.82968 0.0
C179 C 0.19837 0.87485 0.814 0.0
C180 C 0.19227 0.86497 0.81633 0.0
C181 C 0.2077 0.87801 0.82069 0.0
C182 C 0.20475 0.86104 0.832 0.0
C183 C 0.18861 0.84791 0.82796 0.0
O184 O 0.18301 0.81522 0.83846 0.0
O185 O 0.1728 0.82541 0.84964 0.0
O186 O 0.18279 0.8483 0.83728 0.0
O187 O 0.1937 0.83831 0.82664 0.0
H188 H 0.15495 0.82968 0.83894 0.0
H189 H 0.1382 0.82486 0.82802 0.0
H190 H 0.15201 0.7924 0.82086 0.0
H191 H 0.16861 0.79711 0.83225 0.0
H192 H 0.20368 0.80242 0.884 0.0
H193 H 0.19792 0.81183 0.86644 0.0
H194 H 0.22554 0.83069 0.89179 0.0
H195 H 0.21969 0.83999 0.87441 0.0
H196 H 0.21809 0.87301 0.8349 0.0
H197 H 0.19561 0.88015 0.80711 0.0
H198 H 0.18503 0.86279 0.81115 0.0
H199 H 0.20729 0.85578 0.839 0.0
C200 C 0.16037 0.18263 0.82587 0.0
C201 C 0.16036 0.19333 0.82076 0.0
C202 C 0.14 0.192 0.81786 0.0
C203 C 0.15029 0.19796 0.81682 0.0
C204 C 0.14002 0.18144 0.82324 0.0
C205 C 0.15007 0.17681 0.82714 0.0
U206 U 0.18684 0.17891 0.84462 0.0
O207 O 0.19462 0.16341 0.85081 0.0
O208 O 0.20422 0.17492 0.83983 0.0
C209 C 0.20391 0.16516 0.84505 0.0
C210 C 0.17102 0.17707 0.82916 0.0
C211 C 0.20844 0.15553 0.83886 0.0
C212 C 0.20686 0.13647 0.83166 0.0
C213 C 0.20191 0.14586 0.83651 0.0
C214 C 0.22478 0.14642 0.83109 0.0
C215 C 0.21842 0.13657 0.82909 0.0
C216 C 0.21986 0.15576 0.83594 0.0
C217 C 0.19253 0.19833 0.86956 0.0
C218 C 0.20951 0.19728 0.88104 0.0
C219 C 0.19478 0.2101 0.88603 0.0
C220 C 0.18842 0.20653 0.87674 0.0
C221 C 0.20542 0.20551 0.88831 0.0
C222 C 0.20311 0.19372 0.87175 0.0
C223 C 0.18566 0.19467 0.85987 0.0
O224 O 0.18047 0.18281 0.82766 0.0
O225 O 0.17088 0.17131 0.83863 0.0
O226 O 0.18071 0.18478 0.86093 0.0
O227 O 0.19025 0.19628 0.84996 0.0
H228 H 0.16814 0.19803 0.81955 0.0
H229 H 0.15063 0.20605 0.81262 0.0
H230 H 0.13225 0.17668 0.82436 0.0
H231 H 0.14981 0.16853 0.83097 0.0
H232 H 0.20171 0.12901 0.83028 0.0
H233 H 0.19307 0.14543 0.83867 0.0
H234 H 0.23364 0.1469 0.82901 0.0
H235 H 0.22507 0.16311 0.83765 0.0
H236 H 0.21771 0.19367 0.88244 0.0
H237 H 0.19129 0.21632 0.89152 0.0
H238 H 0.18024 0.21016 0.8752 0.0
H239 H 0.20643 0.18737 0.86628 0.0
C240 C 0.81956 0.15735 0.83815 0.0
C241 C 0.82577 0.14763 0.83617 0.0
C242 C 0.80948 0.13876 0.82704 0.0
C243 C 0.82078 0.13844 0.83066 0.0
C244 C 0.80343 0.14865 0.82873 0.0
C245 C 0.80839 0.15779 0.83425 0.0
U246 U 0.84081 0.18156 0.84462 0.0
O247 O 0.83744 0.19843 0.85098 0.0
O248 O 0.84781 0.18693 0.86095 0.0
C249 C 0.84259 0.19657 0.86062 0.0
C250 C 0.82412 0.1668 0.84491 0.0
C251 C 0.83665 0.19986 0.87099 0.0
C252 C 0.82131 0.20929 0.88039 0.0
C253 C 0.82621 0.20528 0.87057 0.0
C254 C 0.83701 0.20232 0.8913 0.0
C255 C 0.82673 0.20802 0.89087 0.0
C256 C 0.84192 0.19835 0.88149 0.0
C257 C 0.8656 0.18831 0.82517 0.0
C258 C 0.88011 0.20224 0.82963 0.0
C259 C 0.87936 0.19398 0.81111 0.0
C260 C 0.86999 0.18746 0.81432 0.0
C261 C 0.88453 0.20149 0.81871 0.0
C262 C 0.87071 0.19573 0.83282 0.0
C263 C 0.85557 0.18155 0.82827 0.0
O264 O 0.83375 0.16528 0.85019 0.0
O265 O 0.82325 0.17687 0.84044 0.0
O266 O 0.84594 0.18678 0.82759 0.0
O267 O 0.85653 0.17538 0.83743 0.0
H268 H 0.8344 0.14701 0.83909 0.0
H269 H 0.82567 0.13094 0.82957 0.0
H270 H 0.79479 0.1493 0.82587 0.0
H271 H 0.8034 0.16516 0.83567 0.0
H272 H 0.81346 0.21374 0.8797 0.0
H273 H 0.82194 0.20668 0.86262 0.0
H274 H 0.84135 0.20101 0.89922 0.0
H275 H 0.84999 0.19428 0.88209 0.0
H276 H 0.88394 0.20782 0.83575 0.0
H277 H 0.88239 0.19331 0.80259 0.0
H278 H 0.86611 0.18182 0.80829 0.0
H279 H 0.86742 0.1965 0.84124 0.0
C280 C 0.8376 0.86203 0.82326 0.0
C281 C 0.82971 0.86625 0.83078 0.0
C282 C 0.82579 0.8818 0.81794 0.0
C283 C 0.82387 0.87604 0.82815 0.0
C284 C 0.83355 0.87739 0.81034 0.0
C285 C 0.83942 0.8676 0.81299 0.0
U286 U 0.84348 0.83753 0.84298 0.0
O287 O 0.8481 0.82008 0.83969 0.0
O288 O 0.85953 0.83098 0.84944 0.0
C289 C 0.85792 0.82112 0.8448 0.0
C290 C 0.84415 0.85201 0.8262 0.0
C291 C 0.86767 0.81634 0.83906 0.0
C292 C 0.87941 0.81381 0.82261 0.0
C293 C 0.87034 0.81901 0.82787 0.0
C294 C 0.88328 0.80344 0.83975 0.0
C295 C 0.88587 0.80582 0.82846 0.0
C296 C 0.87428 0.80863 0.84497 0.0
C297 C 0.82453 0.8345 0.86915 0.0
C298 C 0.82305 0.81836 0.88177 0.0
C299 C 0.81517 0.83612 0.88712 0.0
C300 C 0.81875 0.84089 0.87698 0.0
C301 C 0.81729 0.8248 0.88968 0.0
C302 C 0.82669 0.82318 0.8716 0.0
C303 C 0.82809 0.83988 0.85852 0.0
O304 O 0.85045 0.85296 0.83528 0.0
O305 O 0.83861 0.84238 0.82572 0.0
O306 O 0.82639 0.83407 0.84931 0.0
O307 O 0.83791 0.84513 0.85875 0.0
H308 H 0.82815 0.86202 0.83873 0.0
H309 H 0.81783 0.87909 0.83413 0.0
H310 H 0.83531 0.88165 0.80246 0.0
H311 H 0.84549 0.86447 0.80709 0.0
H312 H 0.88115 0.81579 0.81389 0.0
H313 H 0.86534 0.82497 0.82317 0.0
H314 H 0.88819 0.7975 0.84458 0.0
H315 H 0.87239 0.80651 0.85364 0.0
H316 H 0.82489 0.80965 0.88352 0.0
H317 H 0.8106 0.84127 0.89292 0.0
H318 H 0.81696 0.84962 0.87522 0.0
H319 H 0.83118 0.8181 0.86567 0.0
C320 C 0.18535 0.65517 0.7032 0.0
C321 C 0.19624 0.65235 0.69983 0.0
C322 C 0.1963 0.63665 0.71317 0.0
C323 C 0.20167 0.64315 0.70477 0.0
C324 C 0.18527 0.63941 0.71627 0.0
C325 C 0.17988 0.64856 0.71134 0.0
U326 U 0.181 0.67892 0.68135 0.0
O327 O 0.16504 0.68521 0.67437 0.0
O328 O 0.17619 0.69641 0.68408 0.0
C329 C 0.1664 0.69512 0.67898 0.0
C330 C 0.17953 0.66505 0.69859 0.0
C331 C 0.15654 0.69957 0.68484 0.0
C332 C 0.14573 0.70278 0.7018 0.0
C333 C 0.15483 0.6978 0.6964 0.0
C334 C 0.13984 0.71104 0.6841 0.0
C335 C 0.13823 0.70963 0.69574 0.0
C336 C 0.14889 0.70609 0.67874 0.0
C337 C 0.20056 0.68194 0.65573 0.0
C338 C 0.20134 0.69787 0.64277 0.0
C339 C 0.21066 0.68062 0.63812 0.0
C340 C 0.20707 0.67582 0.64826 0.0
C341 C 0.20782 0.69169 0.6352 0.0
C342 C 0.1977 0.69301 0.65293 0.0
C343 C 0.19688 0.67653 0.66631 0.0
O344 O 0.18517 0.67463 0.69889 0.0
O345 O 0.17397 0.66352 0.68912 0.0
O346 O 0.18715 0.67113 0.66589 0.0
O347 O 0.19827 0.68243 0.67551 0.0
H348 H 0.2006 0.65735 0.69351 0.0
H349 H 0.21018 0.64131 0.70223 0.0
H350 H 0.18078 0.63448 0.72253 0.0
H351 H 0.17144 0.65056 0.714 0.0
H352 H 0.14478 0.70156 0.71077 0.0
H353 H 0.16063 0.69276 0.70126 0.0
H354 H 0.13412 0.71607 0.67912 0.0
H355 H 0.15003 0.70749 0.66981 0.0
H356 H 0.19894 0.70637 0.64075 0.0
H357 H 0.21578 0.67568 0.6326 0.0
H358 H 0.20939 0.66728 0.65028 0.0
H359 H 0.19263 0.69787 0.65857 0.0
C360 C 0.82386 0.68715 0.65999 0.0
C361 C 0.83126 0.69513 0.65523 0.0
C362 C 0.81769 0.69894 0.64025 0.0
C363 C 0.82822 0.70095 0.64543 0.0
C364 C 0.81021 0.6911 0.64522 0.0
C365 C 0.81329 0.68524 0.65498 0.0
U366 U 0.84391 0.68184 0.68449 0.0
O367 O 0.84069 0.67586 0.70175 0.0
O368 O 0.85137 0.66614 0.69058 0.0
C369 C 0.84631 0.66656 0.70033 0.0
C370 C 0.82721 0.68054 0.66994 0.0
C371 C 0.84075 0.65605 0.70407 0.0
C372 C 0.82464 0.64315 0.70471 0.0
C373 C 0.82952 0.65339 0.70123 0.0
C374 C 0.84216 0.63816 0.71386 0.0
C375 C 0.83096 0.63536 0.71097 0.0
C376 C 0.84699 0.64839 0.71044 0.0
C377 C 0.86928 0.70222 0.68796 0.0
C378 C 0.8824 0.70275 0.70377 0.0
C379 C 0.88687 0.71281 0.68656 0.0
C380 C 0.87668 0.70915 0.68183 0.0
C381 C 0.8899 0.70962 0.69756 0.0
C382 C 0.87218 0.69903 0.69898 0.0
C383 C 0.85873 0.69836 0.68255 0.0
O384 O 0.83664 0.67504 0.6689 0.0
O385 O 0.82641 0.68563 0.67965 0.0
O386 O 0.84949 0.69906 0.68851 0.0
O387 O 0.85935 0.68895 0.67694 0.0
H388 H 0.83945 0.69676 0.65902 0.0
H389 H 0.83412 0.70704 0.64192 0.0
H390 H 0.80209 0.68926 0.64139 0.0
H391 H 0.80747 0.6791 0.65854 0.0
H392 H 0.81602 0.64121 0.70229 0.0
H393 H 0.82458 0.65919 0.69625 0.0
H394 H 0.84721 0.63246 0.71882 0.0
H395 H 0.85566 0.6503 0.71274 0.0
H396 H 0.88452 0.70009 0.71224 0.0
H397 H 0.89235 0.71824 0.68161 0.0
H398 H 0.87457 0.71172 0.67332 0.0
H399 H 0.86659 0.69363 0.70384 0.0
C400 C 0.82458 0.33649 0.66135 0.0
C401 C 0.82565 0.325 0.65907 0.0
C402 C 0.81396 0.32702 0.64223 0.0
C403 C 0.8204 0.32031 0.64955 0.0
C404 C 0.81335 0.33858 0.64435 0.0
C405 C 0.81859 0.34324 0.65379 0.0
U406 U 0.84572 0.34025 0.68623 0.0
O407 O 0.85165 0.35611 0.69377 0.0
O408 O 0.84203 0.3439 0.70391 0.0
C409 C 0.84673 0.35395 0.70342 0.0
C410 C 0.82895 0.34164 0.67178 0.0
C411 C 0.84013 0.36306 0.70825 0.0
C412 C 0.82512 0.37671 0.70727 0.0
C413 C 0.83142 0.36828 0.70224 0.0
C414 C 0.83625 0.37479 0.7243 0.0
C415 C 0.82738 0.37996 0.71843 0.0
C416 C 0.84254 0.36644 0.71926 0.0
C417 C 0.87207 0.32214 0.69002 0.0
C418 C 0.89163 0.32572 0.69546 0.0
C419 C 0.88268 0.30797 0.70029 0.0
C420 C 0.87269 0.31148 0.69511 0.0
C421 C 0.89231 0.31499 0.70039 0.0
C422 C 0.88164 0.32927 0.69035 0.0
C423 C 0.86163 0.32541 0.68394 0.0
O424 O 0.82852 0.33546 0.68098 0.0
O425 O 0.83829 0.34765 0.67091 0.0
O426 O 0.86177 0.33524 0.67883 0.0
O427 O 0.85207 0.32318 0.68908 0.0
H428 H 0.83028 0.31963 0.66477 0.0
H429 H 0.821 0.31137 0.64816 0.0
H430 H 0.80863 0.34402 0.63878 0.0
H431 H 0.8177 0.35212 0.65536 0.0
H432 H 0.8183 0.38048 0.70256 0.0
H433 H 0.82943 0.36576 0.69372 0.0
H434 H 0.83834 0.3772 0.73282 0.0
H435 H 0.84925 0.36255 0.72402 0.0
H436 H 0.89886 0.33139 0.69551 0.0
H437 H 0.88295 0.2996 0.70389 0.0
H438 H 0.8655 0.30577 0.6949 0.0
H439 H 0.88149 0.33754 0.68653 0.0
C440 C 0.15882 0.31316 0.68873 0.0
C441 C 0.15685 0.31663 0.69978 0.0
C442 C 0.13863 0.30679 0.69971 0.0
C443 C 0.14684 0.31343 0.70525 0.0
C444 C 0.14073 0.30332 0.68866 0.0
C445 C 0.15071 0.30648 0.68325 0.0
U446 U 0.18493 0.33211 0.68271 0.0
O447 O 0.20186 0.32715 0.67743 0.0
O448 O 0.19151 0.33756 0.66629 0.0
C449 C 0.20081 0.33184 0.66745 0.0
C450 C 0.16917 0.31634 0.68264 0.0
C451 C 0.20372 0.32479 0.65783 0.0
C452 C 0.19966 0.30922 0.64527 0.0
C453 C 0.1969 0.3156 0.65467 0.0
C454 C 0.21613 0.3211 0.64219 0.0
C455 C 0.2093 0.31192 0.63889 0.0
C456 C 0.21335 0.32746 0.65156 0.0
C457 C 0.19172 0.35866 0.69994 0.0
C458 C 0.19645 0.37836 0.69645 0.0
C459 C 0.20545 0.36849 0.71181 0.0
C460 C 0.19932 0.35873 0.70906 0.0
C461 C 0.20407 0.37845 0.70555 0.0
C462 C 0.19035 0.36861 0.69369 0.0
C463 C 0.18485 0.34842 0.69744 0.0
O464 O 0.16864 0.32552 0.67649 0.0
O465 O 0.17873 0.31544 0.6882 0.0
O466 O 0.18963 0.33871 0.69939 0.0
O467 O 0.17891 0.34853 0.68807 0.0
H468 H 0.163 0.32184 0.70415 0.0
H469 H 0.14545 0.3163 0.71372 0.0
H470 H 0.13469 0.29806 0.68421 0.0
H471 H 0.15209 0.30368 0.67474 0.0
H472 H 0.19429 0.30214 0.64306 0.0
H473 H 0.18942 0.31341 0.65943 0.0
H474 H 0.22351 0.32354 0.6374 0.0
H475 H 0.21869 0.33456 0.65385 0.0
H476 H 0.19499 0.38591 0.69156 0.0
H477 H 0.21132 0.36819 0.7188 0.0
H478 H 0.20049 0.35125 0.71414 0.0
H479 H 0.18445 0.36895 0.68671 0.0
C480 C 0.16066 0.30996 0.33806 0.0
C481 C 0.16095 0.30618 0.3269 0.0
C482 C 0.14108 0.30068 0.32772 0.0
C483 C 0.15128 0.30159 0.3218 0.0
C484 C 0.14077 0.30467 0.33881 0.0
C485 C 0.15045 0.3092 0.34392 0.0
U486 U 0.18495 0.33139 0.34209 0.0
O487 O 0.19228 0.33835 0.3576 0.0
O488 O 0.20282 0.32863 0.34628 0.0
C489 C 0.20204 0.33356 0.35608 0.0
C490 C 0.17092 0.31421 0.34392 0.0
C491 C 0.20687 0.32745 0.36579 0.0
C492 C 0.2051 0.31819 0.38406 0.0
C493 C 0.20014 0.3233 0.37463 0.0
C494 C 0.22351 0.32097 0.37577 0.0
C495 C 0.21688 0.31711 0.38481 0.0
C496 C 0.21856 0.32611 0.3664 0.0
C497 C 0.1866 0.35676 0.32161 0.0
C498 C 0.20252 0.3696 0.31888 0.0
C499 C 0.18464 0.37332 0.30979 0.0
C500 C 0.18001 0.36362 0.31469 0.0
C501 C 0.196 0.37636 0.31167 0.0
C502 C 0.19786 0.35986 0.32381 0.0
C503 C 0.18155 0.34627 0.32605 0.0
O504 O 0.18045 0.31384 0.33838 0.0
O505 O 0.16983 0.32352 0.34962 0.0
O506 O 0.17691 0.34684 0.33601 0.0
O507 O 0.18738 0.33712 0.32465 0.0
H508 H 0.16869 0.30659 0.32214 0.0
H509 H 0.15188 0.29849 0.3133 0.0
H510 H 0.13304 0.30429 0.34357 0.0
H511 H 0.14998 0.31201 0.35253 0.0
H512 H 0.19974 0.31538 0.39088 0.0
H513 H 0.19108 0.32418 0.37436 0.0
H514 H 0.23257 0.32006 0.37592 0.0
H515 H 0.22391 0.32917 0.35967 0.0
H516 H 0.21131 0.37166 0.32046 0.0
H517 H 0.17931 0.37842 0.30446 0.0
H518 H 0.17129 0.3614 0.31296 0.0
H519 H 0.20307 0.35466 0.32916 0.0
C520 C 0.15693 0.68669 0.32084 0.0
C521 C 0.15551 0.69831 0.32189 0.0
C522 C 0.1384 0.69726 0.3104 0.0
C523 C 0.1463 0.70356 0.31672 0.0
C524 C 0.13968 0.68557 0.30977 0.0
C525 C 0.14885 0.68037 0.31491 0.0
U526 U 0.18162 0.68254 0.34187 0.0
O527 O 0.18833 0.66676 0.34867 0.0
O528 O 0.19911 0.67783 0.33835 0.0
C529 C 0.19806 0.66811 0.34356 0.0
C530 C 0.16699 0.68097 0.32526 0.0
C531 C 0.20262 0.65828 0.33771 0.0
C532 C 0.20084 0.63924 0.33048 0.0
C533 C 0.19593 0.6488 0.33504 0.0
C534 C 0.21907 0.64864 0.33086 0.0
C535 C 0.21252 0.63897 0.32854 0.0
C536 C 0.21418 0.65814 0.33542 0.0
C537 C 0.1866 0.70185 0.36696 0.0
C538 C 0.20073 0.69807 0.38133 0.0
C539 C 0.19035 0.71537 0.38175 0.0
C540 C 0.18443 0.71213 0.37206 0.0
C541 C 0.19854 0.70836 0.38655 0.0
C542 C 0.19483 0.69486 0.37161 0.0
C543 C 0.18015 0.6985 0.35686 0.0
O544 O 0.17663 0.6865 0.32449 0.0
O545 O 0.16578 0.67554 0.33485 0.0
O546 O 0.17465 0.68887 0.35762 0.0
O547 O 0.18544 0.69983 0.34727 0.0
H548 H 0.16164 0.70336 0.32647 0.0
H549 H 0.1456 0.71257 0.31733 0.0
H550 H 0.13365 0.68043 0.30516 0.0
H551 H 0.14975 0.67139 0.31405 0.0
H552 H 0.19555 0.63194 0.32884 0.0
H553 H 0.18698 0.64866 0.3367 0.0
H554 H 0.22804 0.64884 0.32927 0.0
H555 H 0.21951 0.66534 0.33738 0.0
H556 H 0.20708 0.69254 0.3847 0.0
H557 H 0.18834 0.72327 0.38561 0.0
H558 H 0.1781 0.71763 0.36859 0.0
H559 H 0.19667 0.68691 0.36774 0.0
C560 C 0.82473 0.66034 0.33491 0.0
C561 C 0.83099 0.65064 0.33295 0.0
C562 C 0.81448 0.64136 0.3246 0.0
C563 C 0.82591 0.64125 0.32784 0.0
C564 C 0.80838 0.65121 0.32629 0.0
C565 C 0.81342 0.66055 0.33142 0.0
U566 U 0.84619 0.6847 0.3399 0.0
O567 O 0.84295 0.70179 0.34577 0.0
O568 O 0.85358 0.69064 0.35584 0.0
C569 C 0.84828 0.70023 0.35536 0.0
C570 C 0.82945 0.67003 0.34119 0.0
C571 C 0.84193 0.70309 0.3655 0.0
C572 C 0.82595 0.70012 0.3779 0.0
C573 C 0.83186 0.69739 0.36819 0.0
C574 C 0.84011 0.71429 0.38235 0.0
C575 C 0.83001 0.70859 0.38514 0.0
C576 C 0.84601 0.71155 0.37263 0.0
C577 C 0.87049 0.68942 0.31864 0.0
C578 C 0.88205 0.70624 0.31557 0.0
C579 C 0.88674 0.68891 0.30637 0.0
C580 C 0.8776 0.68351 0.31155 0.0
C581 C 0.88898 0.70039 0.30813 0.0
C582 C 0.87286 0.7008 0.32076 0.0
C583 C 0.86041 0.6836 0.32313 0.0
O584 O 0.83919 0.6687 0.34632 0.0
O585 O 0.82852 0.67992 0.33632 0.0
O586 O 0.85093 0.68913 0.32259 0.0
O587 O 0.86172 0.67804 0.33262 0.0
H588 H 0.83972 0.6502 0.33555 0.0
H589 H 0.83086 0.6338 0.32674 0.0
H590 H 0.79963 0.65171 0.32371 0.0
H591 H 0.80841 0.6679 0.33283 0.0
H592 H 0.81813 0.69566 0.37968 0.0
H593 H 0.82857 0.69084 0.36277 0.0
H594 H 0.84358 0.72074 0.38778 0.0
H595 H 0.85379 0.71602 0.3707 0.0
H596 H 0.88351 0.71509 0.31707 0.0
H597 H 0.89201 0.68409 0.30088 0.0
H598 H 0.87595 0.67471 0.30984 0.0
H599 H 0.86748 0.70552 0.32623 0.0
C600 C 0.84085 0.36252 0.32414 0.0
C601 C 0.82906 0.36164 0.32473 0.0
C602 C 0.82732 0.38125 0.31895 0.0
C603 C 0.82238 0.37087 0.32211 0.0
C604 C 0.83914 0.38209 0.31842 0.0
C605 C 0.84582 0.37282 0.32097 0.0
U606 U 0.84951 0.33687 0.34189 0.0
O607 O 0.8551 0.32025 0.33652 0.0
O608 O 0.86645 0.33105 0.34645 0.0
C609 C 0.86525 0.32166 0.34081 0.0
C610 C 0.84811 0.35281 0.32656 0.0
C611 C 0.87464 0.31871 0.33345 0.0
C612 C 0.88748 0.32293 0.31808 0.0
C613 C 0.87861 0.32606 0.32504 0.0
C614 C 0.88848 0.30507 0.32787 0.0
C615 C 0.89253 0.31237 0.3194 0.0
C616 C 0.87964 0.30822 0.33481 0.0
C617 C 0.83292 0.32872 0.3686 0.0
C618 C 0.83813 0.32192 0.38728 0.0
C619 C 0.82042 0.31593 0.37892 0.0
C620 C 0.82282 0.32244 0.36935 0.0
C621 C 0.82803 0.31559 0.38803 0.0
C622 C 0.84055 0.32839 0.37769 0.0
C623 C 0.83509 0.3359 0.35855 0.0
O624 O 0.85459 0.35363 0.33553 0.0
O625 O 0.84345 0.34279 0.32541 0.0
O626 O 0.83311 0.33127 0.34873 0.0
O627 O 0.8443 0.34218 0.35869 0.0
H628 H 0.82498 0.35379 0.32714 0.0
H629 H 0.81331 0.36981 0.32244 0.0
H630 H 0.84328 0.38996 0.31618 0.0
H631 H 0.8549 0.37371 0.32046 0.0
H632 H 0.89044 0.3288 0.31173 0.0
H633 H 0.87483 0.3342 0.32386 0.0
H634 H 0.89198 0.29681 0.32902 0.0
H635 H 0.87665 0.30241 0.34122 0.0
H636 H 0.84412 0.32205 0.39418 0.0
H637 H 0.81264 0.31107 0.37911 0.0
H638 H 0.81674 0.3226 0.36252 0.0
H639 H 0.84837 0.33319 0.37748 0.0
C640 C 0.69355 0.15333 0.70275 0.0
C641 C 0.70155 0.14937 0.6952 0.0
C642 C 0.70565 0.13368 0.70782 0.0
C643 C 0.70752 0.13962 0.6977 0.0
C644 C 0.69772 0.1378 0.71541 0.0
C645 C 0.69172 0.14752 0.71288 0.0
U646 U 0.68838 0.18025 0.68579 0.0
O647 O 0.67259 0.18733 0.67937 0.0
O648 O 0.68281 0.19676 0.69162 0.0
C649 C 0.6732 0.19604 0.68607 0.0
C650 C 0.68701 0.16344 0.7002 0.0
C651 C 0.66293 0.19868 0.69249 0.0
C652 C 0.64375 0.19428 0.69849 0.0
C653 C 0.65356 0.19131 0.69286 0.0
C654 C 0.65252 0.21197 0.70369 0.0
C655 C 0.64307 0.20469 0.70395 0.0
C656 C 0.6623 0.20902 0.698 0.0
C657 C 0.70981 0.18817 0.66218 0.0
C658 C 0.71027 0.19398 0.64247 0.0
C659 C 0.72561 0.19927 0.65492 0.0
C660 C 0.72019 0.19377 0.66384 0.0
C661 C 0.72086 0.19924 0.64406 0.0
C662 C 0.70482 0.18847 0.65141 0.0
C663 C 0.70509 0.1811 0.6714 0.0
O664 O 0.69207 0.17305 0.7025 0.0
O665 O 0.68172 0.16353 0.69046 0.0
O666 O 0.69552 0.1757 0.66947 0.0
O667 O 0.70582 0.18518 0.68162 0.0
H668 H 0.70314 0.15379 0.68737 0.0
H669 H 0.71368 0.13677 0.69173 0.0
H670 H 0.69598 0.13339 0.72322 0.0
H671 H 0.68558 0.15046 0.71882 0.0
H672 H 0.63662 0.1885 0.69836 0.0
H673 H 0.65374 0.18328 0.68867 0.0
H674 H 0.65242 0.21997 0.70793 0.0
H675 H 0.66938 0.21488 0.69783 0.0
H676 H 0.70641 0.19372 0.6342 0.0
H677 H 0.73366 0.20339 0.65652 0.0
H678 H 0.7243 0.19362 0.672 0.0
H679 H 0.69689 0.18415 0.64979 0.0
C680 C 0.32382 0.18442 0.65995 0.0
C681 C 0.33142 0.19271 0.65611 0.0
C682 C 0.31772 0.19894 0.6421 0.0
C683 C 0.32842 0.19987 0.64725 0.0
C684 C 0.31017 0.19055 0.64597 0.0
C685 C 0.3132 0.18337 0.65482 0.0
U686 U 0.3436 0.17654 0.68392 0.0
O687 O 0.34015 0.16992 0.70088 0.0
O688 O 0.3501 0.16009 0.68914 0.0
C689 C 0.34503 0.16031 0.69892 0.0
C690 C 0.32691 0.17689 0.66931 0.0
C691 C 0.33896 0.1499 0.70245 0.0
C692 C 0.32347 0.14031 0.71212 0.0
C693 C 0.32841 0.15016 0.70774 0.0
C694 C 0.33935 0.12972 0.7057 0.0
C695 C 0.32899 0.12999 0.71134 0.0
C696 C 0.34429 0.13955 0.70136 0.0
C697 C 0.36969 0.19576 0.68921 0.0
C698 C 0.3894 0.19263 0.69389 0.0
C699 C 0.38079 0.21012 0.69892 0.0
C700 C 0.37058 0.20637 0.69421 0.0
C701 C 0.39038 0.20338 0.69863 0.0
C702 C 0.37917 0.18885 0.68925 0.0
C703 C 0.35912 0.19252 0.68329 0.0
O704 O 0.33614 0.17117 0.66783 0.0
O705 O 0.32628 0.18125 0.67939 0.0
O706 O 0.34974 0.19332 0.68902 0.0
O707 O 0.35937 0.1835 0.67702 0.0
H708 H 0.33968 0.19363 0.65996 0.0
H709 H 0.33452 0.20611 0.6444 0.0
H710 H 0.30182 0.18968 0.64231 0.0
H711 H 0.30722 0.17703 0.6577 0.0
H712 H 0.31554 0.14086 0.7165 0.0
H713 H 0.32409 0.158 0.7088 0.0
H714 H 0.34376 0.12191 0.70477 0.0
H715 H 0.35245 0.13909 0.69738 0.0
H716 H 0.3966 0.18718 0.69365 0.0
H717 H 0.38128 0.21848 0.7024 0.0
H718 H 0.36343 0.2119 0.69422 0.0
H719 H 0.37878 0.18061 0.68549 0.0
C720 C 0.31817 0.83432 0.6598 0.0
C721 C 0.32054 0.82309 0.6574 0.0
C722 C 0.30755 0.82355 0.6414 0.0
C723 C 0.31528 0.81775 0.64824 0.0
C724 C 0.30552 0.83488 0.64369 0.0
C725 C 0.31076 0.84019 0.65279 0.0
U726 U 0.33957 0.83875 0.68429 0.0
O727 O 0.34646 0.85475 0.69067 0.0
O728 O 0.33604 0.84399 0.70159 0.0
C729 C 0.3412 0.85375 0.70031 0.0
C730 C 0.32284 0.84006 0.66977 0.0
C731 C 0.33475 0.86359 0.70371 0.0
C732 C 0.31856 0.87567 0.70169 0.0
C733 C 0.32453 0.86622 0.69842 0.0
C734 C 0.33298 0.87995 0.71557 0.0
C735 C 0.32272 0.88268 0.7103 0.0
C736 C 0.33893 0.8705 0.7123 0.0
C737 C 0.36478 0.8197 0.68925 0.0
C738 C 0.37744 0.82176 0.70529 0.0
C739 C 0.38155 0.80835 0.69078 0.0
C740 C 0.37178 0.81144 0.68497 0.0
C741 C 0.38452 0.81346 0.70103 0.0
C742 C 0.36767 0.82485 0.69945 0.0
C743 C 0.3546 0.8229 0.68293 0.0
O744 O 0.32212 0.83458 0.67938 0.0
O745 O 0.33252 0.8454 0.66844 0.0
O746 O 0.35535 0.83243 0.67734 0.0
O747 O 0.34502 0.82162 0.6883 0.0
H748 H 0.32626 0.81842 0.66272 0.0
H749 H 0.31699 0.809 0.64673 0.0
H750 H 0.29979 0.83967 0.63849 0.0
H751 H 0.30887 0.84888 0.65448 0.0
H752 H 0.31062 0.87742 0.69754 0.0
H753 H 0.32117 0.86097 0.69177 0.0
H754 H 0.33653 0.88523 0.72211 0.0
H755 H 0.34683 0.86862 0.71645 0.0
H756 H 0.37937 0.82578 0.71322 0.0
H757 H 0.38687 0.80207 0.68714 0.0
H758 H 0.36972 0.80741 0.67707 0.0
H759 H 0.36236 0.83126 0.7029 0.0
C760 C 0.66217 0.81862 0.69036 0.0
C761 C 0.65778 0.82635 0.69793 0.0
C762 C 0.64303 0.81287 0.70335 0.0
C763 C 0.64829 0.82351 0.70435 0.0
C764 C 0.64748 0.8052 0.69569 0.0
C765 C 0.65694 0.80806 0.68927 0.0
U766 U 0.68763 0.8375 0.68349 0.0
O767 O 0.70503 0.83312 0.67947 0.0
O768 O 0.69488 0.8423 0.66709 0.0
C769 C 0.70435 0.83707 0.66914 0.0
C770 C 0.67226 0.82136 0.68369 0.0
C771 C 0.70877 0.82988 0.66008 0.0
C772 C 0.72129 0.81511 0.65412 0.0
C773 C 0.71597 0.82096 0.66266 0.0
C774 C 0.71211 0.82672 0.64015 0.0
C775 C 0.7196 0.81806 0.64277 0.0
C776 C 0.70681 0.83261 0.64871 0.0
C777 C 0.69315 0.86398 0.70095 0.0
C778 C 0.70833 0.87742 0.69718 0.0
C779 C 0.69703 0.87922 0.71391 0.0
C780 C 0.69071 0.86971 0.71084 0.0
C781 C 0.70593 0.8832 0.70713 0.0
C782 C 0.70201 0.86787 0.69413 0.0
C783 C 0.68646 0.8539 0.69804 0.0
O784 O 0.67161 0.83032 0.67721 0.0
O785 O 0.6819 0.82074 0.68914 0.0
O786 O 0.69127 0.84429 0.70028 0.0
O787 O 0.68138 0.85408 0.68819 0.0
H788 H 0.66172 0.83456 0.69889 0.0
H789 H 0.64504 0.82967 0.71005 0.0
H790 H 0.64379 0.79688 0.69482 0.0
H791 H 0.66025 0.80197 0.68352 0.0
H792 H 0.72689 0.80839 0.65642 0.0
H793 H 0.71778 0.81866 0.6713 0.0
H794 H 0.71071 0.82926 0.6315 0.0
H795 H 0.70145 0.83954 0.64643 0.0
H796 H 0.71519 0.88019 0.69183 0.0
H797 H 0.69484 0.88354 0.72154 0.0
H798 H 0.6839 0.86683 0.71621 0.0
H799 H 0.70405 0.8635 0.68649 0.0
C800 C 0.6605 0.81711 0.3356 0.0
C801 C 0.65742 0.82348 0.32614 0.0
C802 C 0.64254 0.80984 0.3216 0.0
C803 C 0.64852 0.81988 0.3192 0.0
C804 C 0.64558 0.8036 0.33122 0.0
C805 C 0.65448 0.8072 0.33814 0.0
U806 U 0.68476 0.83732 0.34267 0.0
O807 O 0.69101 0.8433 0.35905 0.0
O808 O 0.7021 0.83378 0.34813 0.0
C809 C 0.70072 0.83827 0.35806 0.0
C810 C 0.67011 0.82054 0.34271 0.0
C811 C 0.70418 0.83125 0.36769 0.0
C812 C 0.70039 0.81634 0.38128 0.0
C813 C 0.69686 0.8231 0.37228 0.0
C814 C 0.71861 0.82579 0.38114 0.0
C815 C 0.71134 0.81756 0.3858 0.0
C816 C 0.71505 0.83257 0.37219 0.0
C817 C 0.6895 0.86328 0.32371 0.0
C818 C 0.7025 0.87871 0.32782 0.0
C819 C 0.69306 0.87786 0.30973 0.0
C820 C 0.68759 0.8679 0.31302 0.0
C821 C 0.70055 0.88342 0.3171 0.0
C822 C 0.69704 0.8687 0.33109 0.0
C823 C 0.68342 0.8529 0.32698 0.0
O824 O 0.68002 0.82009 0.3379 0.0
O825 O 0.66878 0.82975 0.34852 0.0
O826 O 0.67787 0.85324 0.33648 0.0
O827 O 0.68894 0.84355 0.32571 0.0
H828 H 0.66196 0.83117 0.32407 0.0
H829 H 0.64632 0.82496 0.31196 0.0
H830 H 0.64128 0.79577 0.33324 0.0
H831 H 0.65677 0.80217 0.3454 0.0
H832 H 0.69452 0.8102 0.38472 0.0
H833 H 0.68843 0.82194 0.3689 0.0
H834 H 0.72715 0.82686 0.38425 0.0
H835 H 0.72084 0.83877 0.36869 0.0
H836 H 0.70832 0.88271 0.33365 0.0
H837 H 0.69124 0.88131 0.30148 0.0
H838 H 0.68177 0.86383 0.30722 0.0
H839 H 0.69866 0.86522 0.33937 0.0
C840 C 0.65926 0.19137 0.32514 0.0
C841 C 0.6506 0.19281 0.33296 0.0
C842 C 0.64033 0.20456 0.31962 0.0
C843 C 0.64124 0.1993 0.33022 0.0
C844 C 0.6491 0.20323 0.31188 0.0
C845 C 0.65842 0.19668 0.3146 0.0
U846 U 0.68507 0.18251 0.34272 0.0
O847 O 0.69045 0.16568 0.34789 0.0
O848 O 0.70141 0.1761 0.33717 0.0
C849 C 0.69956 0.16613 0.34168 0.0
C850 C 0.66895 0.18403 0.32756 0.0
C851 C 0.70168 0.15626 0.33446 0.0
C852 C 0.69833 0.13659 0.32982 0.0
C853 C 0.69577 0.14606 0.33612 0.0
C854 C 0.71277 0.14726 0.32001 0.0
C855 C 0.7069 0.13703 0.32172 0.0
C856 C 0.71022 0.15673 0.32633 0.0
C857 C 0.69279 0.20014 0.36925 0.0
C858 C 0.70876 0.20953 0.37843 0.0
C859 C 0.69319 0.20246 0.38958 0.0
C860 C 0.68784 0.19852 0.37984 0.0
C861 C 0.7036 0.20824 0.38898 0.0
C862 C 0.7034 0.20557 0.36867 0.0
C863 C 0.68619 0.1973 0.35898 0.0
O864 O 0.67902 0.18858 0.32622 0.0
O865 O 0.66823 0.17757 0.33654 0.0
O866 O 0.67985 0.18815 0.35942 0.0
O867 O 0.69112 0.19879 0.3492 0.0
H868 H 0.65095 0.18881 0.34116 0.0
H869 H 0.6346 0.19999 0.33636 0.0
H870 H 0.64881 0.20729 0.30371 0.0
H871 H 0.66497 0.19569 0.3084 0.0
H872 H 0.69376 0.12882 0.33153 0.0
H873 H 0.68927 0.1453 0.34243 0.0
H874 H 0.71934 0.14796 0.31378 0.0
H875 H 0.71504 0.16441 0.32493 0.0
H876 H 0.71672 0.21402 0.37764 0.0
H877 H 0.68905 0.20115 0.39757 0.0
H878 H 0.67963 0.19447 0.38059 0.0
H879 H 0.70741 0.20708 0.36064 0.0
C880 C 0.32863 0.15031 0.33429 0.0
C881 C 0.33186 0.14883 0.32308 0.0
C882 C 0.32309 0.13015 0.32303 0.0
C883 C 0.32907 0.13884 0.31748 0.0
C884 C 0.31995 0.1317 0.33428 0.0
C885 C 0.32269 0.14167 0.33983 0.0
U886 U 0.34647 0.17692 0.3411 0.0
O887 O 0.34087 0.19387 0.34518 0.0
O888 O 0.35023 0.18412 0.35775 0.0
C889 C 0.34446 0.19324 0.35564 0.0
C890 C 0.33112 0.16078 0.34042 0.0
C891 C 0.33663 0.19694 0.36449 0.0
C892 C 0.3199 0.20701 0.37002 0.0
C893 C 0.32649 0.20226 0.36169 0.0
C894 C 0.33315 0.20089 0.38424 0.0
C895 C 0.32326 0.2066 0.38137 0.0
C896 C 0.3398 0.19618 0.37589 0.0
C897 C 0.37376 0.18461 0.32546 0.0
C898 C 0.39221 0.19211 0.33095 0.0
C899 C 0.38363 0.19822 0.31349 0.0
C900 C 0.37431 0.19117 0.3156 0.0
C901 C 0.3927 0.19882 0.32116 0.0
C902 C 0.38287 0.18511 0.33307 0.0
C903 C 0.36382 0.17714 0.32751 0.0
O904 O 0.3399 0.1606 0.3472 0.0
O905 O 0.33031 0.17022 0.33468 0.0
O906 O 0.35397 0.18124 0.32471 0.0
O907 O 0.36361 0.17156 0.3371 0.0
H908 H 0.33649 0.15539 0.31865 0.0
H909 H 0.33169 0.13788 0.30885 0.0
H910 H 0.3152 0.12527 0.33876 0.0
H911 H 0.32008 0.14267 0.34846 0.0
H912 H 0.31225 0.21123 0.36755 0.0
H913 H 0.32378 0.20305 0.35301 0.0
H914 H 0.33603 0.20052 0.39289 0.0
H915 H 0.34762 0.19226 0.37831 0.0
H916 H 0.3991 0.19218 0.33695 0.0
H917 H 0.38364 0.20333 0.30593 0.0
H918 H 0.36749 0.1909 0.30951 0.0
H919 H 0.38283 0.18007 0.34069 0.0
C920 C 0.338 0.86282 0.32123 0.0
C921 C 0.32617 0.86237 0.32132 0.0
C922 C 0.3254 0.88165 0.31427 0.0
C923 C 0.31995 0.87166 0.31784 0.0
C924 C 0.33726 0.8821 0.31439 0.0
C925 C 0.34347 0.87278 0.31781 0.0
U926 U 0.34435 0.83669 0.33934 0.0
O927 O 0.35007 0.82007 0.33406 0.0
O928 O 0.36059 0.83029 0.34539 0.0
C929 C 0.35988 0.82124 0.33916 0.0
C930 C 0.34479 0.85295 0.32427 0.0
C931 C 0.36992 0.8184 0.33248 0.0
C932 C 0.389 0.82243 0.32595 0.0
C933 C 0.37939 0.82563 0.3318 0.0
C934 C 0.37983 0.8048 0.32121 0.0
C935 C 0.38938 0.81194 0.32062 0.0
C936 C 0.37026 0.80798 0.3271 0.0
C937 C 0.32477 0.8288 0.36396 0.0
C938 C 0.32733 0.81259 0.3762 0.0
C939 C 0.31148 0.82474 0.37896 0.0
C940 C 0.31506 0.83147 0.36994 0.0
C941 C 0.31754 0.81519 0.38221 0.0
C942 C 0.33091 0.81934 0.36716 0.0
C943 C 0.32825 0.83599 0.35442 0.0
O944 O 0.35032 0.85349 0.33387 0.0
O945 O 0.34007 0.84306 0.32249 0.0
O946 O 0.32723 0.83148 0.34442 0.0
O947 O 0.33774 0.84167 0.35577 0.0
H948 H 0.32173 0.85478 0.32394 0.0
H949 H 0.31085 0.87091 0.31773 0.0
H950 H 0.34177 0.88968 0.3119 0.0
H951 H 0.35259 0.87333 0.3177 0.0
H952 H 0.39622 0.8281 0.32583 0.0
H953 H 0.37945 0.8337 0.3359 0.0
H954 H 0.37971 0.79675 0.31707 0.0
H955 H 0.36311 0.80222 0.32752 0.0
H956 H 0.33228 0.80538 0.37853 0.0
H957 H 0.30381 0.82692 0.38325 0.0
H958 H 0.31019 0.83873 0.36757 0.0
H959 H 0.33846 0.81717 0.36265 0.0
C960 C 0.6945 0.65351 0.20301 0.0
C961 C 0.70255 0.64992 0.19533 0.0
C962 C 0.70764 0.63449 0.20789 0.0
C963 C 0.70904 0.64048 0.19773 0.0
C964 C 0.69968 0.63827 0.21564 0.0
C965 C 0.69316 0.64768 0.2132 0.0
U966 U 0.68737 0.67912 0.18501 0.0
O967 O 0.67101 0.68494 0.17855 0.0
O968 O 0.68117 0.69569 0.18974 0.0
C969 C 0.67165 0.69438 0.18416 0.0
C970 C 0.68731 0.66317 0.20041 0.0
C971 C 0.66128 0.69797 0.18976 0.0
C972 C 0.65009 0.70124 0.20647 0.0
C973 C 0.65963 0.69671 0.20139 0.0
C974 C 0.64367 0.70799 0.18832 0.0
C975 C 0.64213 0.70714 0.2 0.0
C976 C 0.65314 0.70347 0.18328 0.0
C977 C 0.70632 0.68715 0.16022 0.0
C978 C 0.70131 0.70113 0.14614 0.0
C979 C 0.7202 0.6938 0.14669 0.0
C980 C 0.71724 0.68695 0.15584 0.0
C981 C 0.71228 0.70099 0.1417 0.0
C982 C 0.69837 0.6943 0.15533 0.0
C983 C 0.70341 0.6799 0.1699 0.0
O984 O 0.69199 0.67312 0.20197 0.0
O985 O 0.68156 0.6625 0.19095 0.0
O986 O 0.69417 0.67377 0.16881 0.0
O987 O 0.70437 0.68462 0.1798 0.0
H988 H 0.70376 0.65436 0.18743 0.0
H989 H 0.7152 0.63791 0.19164 0.0
H990 H 0.69829 0.6338 0.22348 0.0
H991 H 0.68698 0.65033 0.21924 0.0
H992 H 0.64917 0.70047 0.21549 0.0
H993 H 0.66581 0.69249 0.20656 0.0
H994 H 0.63762 0.7123 0.18306 0.0
H995 H 0.65423 0.7045 0.17429 0.0
H996 H 0.69495 0.70645 0.14245 0.0
H997 H 0.72877 0.69359 0.14364 0.0
H998 H 0.7235 0.68152 0.15955 0.0
H999 H 0.68989 0.69459 0.15861 0.0
C1000 C 0.31869 0.68033 0.16358 0.0
C1001 C 0.32474 0.68189 0.15355 0.0
C1002 C 0.30852 0.6907 0.14464 0.0
C1003 C 0.31971 0.68703 0.14419 0.0
C1004 C 0.30261 0.68936 0.15478 0.0
C1005 C 0.30761 0.6842 0.1641 0.0
U1006 U 0.34013 0.67599 0.18781 0.0
O1007 O 0.3371 0.67024 0.20514 0.0
O1008 O 0.3477 0.66036 0.19406 0.0
C1009 C 0.34248 0.66081 0.20375 0.0
C1010 C 0.32339 0.67412 0.17334 0.0
C1011 C 0.33674 0.65034 0.2076 0.0
C1012 C 0.32093 0.6405 0.2165 0.0
C1013 C 0.3258 0.65036 0.21208 0.0
C1014 C 0.3377 0.63034 0.2118 0.0
C1015 C 0.32688 0.63039 0.21655 0.0
C1016 C 0.34257 0.6402 0.20744 0.0
C1017 C 0.36418 0.69785 0.19236 0.0
C1018 C 0.38294 0.69605 0.20054 0.0
C1019 C 0.37433 0.71428 0.19929 0.0
C1020 C 0.36475 0.70941 0.19437 0.0
C1021 C 0.38365 0.70772 0.20227 0.0
C1022 C 0.3733 0.69116 0.19562 0.0
C1023 C 0.35419 0.6932 0.18641 0.0
O1024 O 0.33317 0.6693 0.172 0.0
O1025 O 0.32241 0.67891 0.18319 0.0
O1026 O 0.34462 0.69351 0.19187 0.0
O1027 O 0.3555 0.68382 0.18086 0.0
H1028 H 0.33329 0.67897 0.15284 0.0
H1029 H 0.32449 0.68783 0.1365 0.0
H1030 H 0.29406 0.69227 0.15554 0.0
H1031 H 0.30274 0.68308 0.17171 0.0
H1032 H 0.31264 0.6409 0.2202 0.0
H1033 H 0.32106 0.65803 0.21239 0.0
H1034 H 0.34246 0.62269 0.21151 0.0
H1035 H 0.35102 0.63993 0.20408 0.0
H1036 H 0.38997 0.69075 0.20268 0.0
H1037 H 0.37445 0.72324 0.20072 0.0
H1038 H 0.3578 0.71472 0.19197 0.0
H1039 H 0.37306 0.6822 0.1942 0.0
C1040 C 0.32445 0.33666 0.16012 0.0
C1041 C 0.33281 0.3297 0.15593 0.0
C1042 C 0.31981 0.32259 0.14158 0.0
C1043 C 0.33054 0.32279 0.14672 0.0
C1044 C 0.31152 0.32974 0.14572 0.0
C1045 C 0.31382 0.3367 0.15491 0.0
U1046 U 0.3412 0.34248 0.18685 0.0
O1047 O 0.34678 0.35838 0.19457 0.0
O1048 O 0.3355 0.34686 0.20377 0.0
C1049 C 0.34044 0.35681 0.20348 0.0
C1050 C 0.32656 0.34348 0.17022 0.0
C1051 C 0.3332 0.36623 0.20647 0.0
C1052 C 0.31673 0.37762 0.20304 0.0
C1053 C 0.32387 0.36902 0.19979 0.0
C1054 C 0.32832 0.38089 0.21956 0.0
C1055 C 0.31879 0.38359 0.21303 0.0
C1056 C 0.33544 0.37228 0.2163 0.0
C1057 C 0.36528 0.32157 0.1933 0.0
C1058 C 0.37882 0.32205 0.20877 0.0
C1059 C 0.37724 0.30563 0.19698 0.0
C1060 C 0.36887 0.3108 0.19061 0.0
C1061 C 0.38224 0.31111 0.20622 0.0
C1062 C 0.37035 0.32723 0.20237 0.0
C1063 C 0.35607 0.32639 0.18658 0.0
O1064 O 0.32446 0.33832 0.1798 0.0
O1065 O 0.33608 0.34929 0.17038 0.0
O1066 O 0.35789 0.33636 0.18207 0.0
O1067 O 0.34591 0.32511 0.19074 0.0
H1068 H 0.34107 0.32951 0.15986 0.0
H1069 H 0.3372 0.31754 0.14367 0.0
H1070 H 0.30313 0.32973 0.14208 0.0
H1071 H 0.30724 0.34197 0.15808 0.0
H1072 H 0.30956 0.37957 0.19773 0.0
H1073 H 0.32203 0.36446 0.19214 0.0
H1074 H 0.3301 0.3852 0.22736 0.0
H1075 H 0.3426 0.37021 0.22157 0.0
H1076 H 0.38248 0.32646 0.21586 0.0
H1077 H 0.3798 0.29728 0.19467 0.0
H1078 H 0.3651 0.30632 0.18361 0.0
H1079 H 0.36766 0.33556 0.20458 0.0
C1080 C 0.66345 0.32171 0.1926 0.0
C1081 C 0.65921 0.32937 0.20033 0.0
C1082 C 0.645 0.3156 0.20642 0.0
C1083 C 0.65006 0.32636 0.20715 0.0
C1084 C 0.64934 0.30797 0.19866 0.0
C1085 C 0.65846 0.31101 0.19182 0.0
U1086 U 0.68889 0.34042 0.18537 0.0
O1087 O 0.70543 0.33606 0.1786 0.0
O1088 O 0.69443 0.34735 0.16908 0.0
C1089 C 0.70384 0.34172 0.16921 0.0
C1090 C 0.67302 0.32477 0.18531 0.0
C1091 C 0.7066 0.33594 0.15871 0.0
C1092 C 0.70531 0.31988 0.14625 0.0
C1093 C 0.70251 0.32508 0.15636 0.0
C1094 C 0.71625 0.33635 0.14078 0.0
C1095 C 0.71216 0.32549 0.1383 0.0
C1096 C 0.71349 0.3415 0.15087 0.0
C1097 C 0.69664 0.36496 0.20478 0.0
C1098 C 0.71154 0.3786 0.20064 0.0
C1099 C 0.70085 0.38007 0.2178 0.0
C1100 C 0.69454 0.37051 0.21485 0.0
C1101 C 0.7094 0.38428 0.21072 0.0
C1102 C 0.70522 0.36902 0.1977 0.0
C1103 C 0.68966 0.35512 0.20171 0.0
O1104 O 0.67217 0.33436 0.17985 0.0
O1105 O 0.68307 0.32327 0.18971 0.0
O1106 O 0.69466 0.34538 0.20227 0.0
O1107 O 0.6834 0.3563 0.19264 0.0
H1108 H 0.66296 0.33768 0.20106 0.0
H1109 H 0.64688 0.33251 0.2129 0.0
H1110 H 0.64581 0.29956 0.19798 0.0
H1111 H 0.66165 0.30497 0.18594 0.0
H1112 H 0.70195 0.31155 0.14456 0.0
H1113 H 0.69714 0.32066 0.16231 0.0
H1114 H 0.72169 0.34085 0.13496 0.0
H1115 H 0.71676 0.34986 0.15256 0.0
H1116 H 0.71814 0.38152 0.19505 0.0
H1117 H 0.69885 0.3843 0.22554 0.0
H1118 H 0.68792 0.36752 0.22039 0.0
H1119 H 0.70698 0.36481 0.18989 0.0
C1120 C 0.66229 0.31736 0.83499 0.0
C1121 C 0.65313 0.32377 0.83129 0.0
C1122 C 0.64375 0.30698 0.8239 0.0
C1123 C 0.64394 0.31863 0.8258 0.0
C1124 C 0.65312 0.3007 0.82732 0.0
C1125 C 0.66225 0.30583 0.83283 0.0
U1126 U 0.6856 0.33965 0.84075 0.0
O1127 O 0.69078 0.34732 0.85679 0.0
O1128 O 0.70277 0.33733 0.84733 0.0
C1129 C 0.70078 0.34276 0.85666 0.0
C1130 C 0.6717 0.32229 0.84163 0.0
C1131 C 0.7043 0.33716 0.86716 0.0
C1132 C 0.70436 0.32103 0.87982 0.0
C1133 C 0.70083 0.32613 0.86976 0.0
C1134 C 0.71476 0.33796 0.88475 0.0
C1135 C 0.71134 0.32691 0.88746 0.0
C1136 C 0.71127 0.34302 0.87471 0.0
C1137 C 0.69044 0.36448 0.82071 0.0
C1138 C 0.7032 0.38004 0.82508 0.0
C1139 C 0.6944 0.37892 0.80669 0.0
C1140 C 0.68887 0.36895 0.8099 0.0
C1141 C 0.7016 0.38462 0.81425 0.0
C1142 C 0.69769 0.37004 0.82827 0.0
C1143 C 0.68442 0.35407 0.82398 0.0
O1144 O 0.68174 0.3219 0.83707 0.0
O1145 O 0.66981 0.33183 0.84669 0.0
O1146 O 0.67822 0.35469 0.83305 0.0
O1147 O 0.69034 0.34487 0.8236 0.0
H1148 H 0.65295 0.33271 0.83281 0.0
H1149 H 0.63686 0.32372 0.82335 0.0
H1150 H 0.65339 0.29177 0.82579 0.0
H1151 H 0.66923 0.30072 0.83557 0.0
H1152 H 0.70149 0.31255 0.88169 0.0
H1153 H 0.6954 0.32149 0.86404 0.0
H1154 H 0.72026 0.34267 0.89034 0.0
H1155 H 0.71405 0.35153 0.87282 0.0
H1156 H 0.70879 0.38413 0.83106 0.0
H1157 H 0.69287 0.38227 0.79834 0.0
H1158 H 0.6833 0.36477 0.80396 0.0
H1159 H 0.69906 0.36666 0.83664 0.0
C1160 C 0.65885 0.6862 0.82128 0.0
C1161 C 0.65568 0.69509 0.82816 0.0
C1162 C 0.64073 0.70002 0.81491 0.0
C1163 C 0.64669 0.70193 0.82501 0.0
C1164 C 0.64389 0.691 0.80813 0.0
C1165 C 0.65286 0.68417 0.8113 0.0
U1166 U 0.68396 0.67882 0.84018 0.0
O1167 O 0.69002 0.66231 0.84571 0.0
O1168 O 0.70092 0.67336 0.83554 0.0
C1169 C 0.69951 0.66339 0.84014 0.0
C1170 C 0.66849 0.67914 0.82426 0.0
C1171 C 0.70251 0.65385 0.83303 0.0
C1172 C 0.69809 0.64056 0.81818 0.0
C1173 C 0.69498 0.64954 0.82495 0.0
C1174 C 0.71628 0.64013 0.82749 0.0
C1175 C 0.7088 0.63575 0.81934 0.0
C1176 C 0.71315 0.64908 0.83426 0.0
C1177 C 0.69059 0.69718 0.86596 0.0
C1178 C 0.70526 0.69331 0.87976 0.0
C1179 C 0.69446 0.71029 0.88107 0.0
C1180 C 0.68833 0.70721 0.87148 0.0
C1181 C 0.703 0.70338 0.88536 0.0
C1182 C 0.69911 0.69024 0.87012 0.0
C1183 C 0.68389 0.69414 0.85594 0.0
O1184 O 0.67845 0.68399 0.82325 0.0
O1185 O 0.66747 0.67318 0.83356 0.0
O1186 O 0.67811 0.68465 0.85659 0.0
O1187 O 0.68894 0.6956 0.84623 0.0
H1188 H 0.6602 0.69677 0.83592 0.0
H1189 H 0.64441 0.7087 0.83051 0.0
H1190 H 0.63962 0.68937 0.80023 0.0
H1191 H 0.65522 0.67737 0.80586 0.0
H1192 H 0.69207 0.63733 0.81209 0.0
H1193 H 0.68672 0.65313 0.82386 0.0
H1194 H 0.72466 0.63681 0.82851 0.0
H1195 H 0.7191 0.65234 0.84041 0.0
H1196 H 0.71185 0.68785 0.88276 0.0
H1197 H 0.69237 0.71801 0.88525 0.0
H1198 H 0.68176 0.71266 0.8684 0.0
H1199 H 0.701 0.68247 0.86594 0.0
C1200 C 0.32468 0.65046 0.83025 0.0
C1201 C 0.33269 0.64706 0.82243 0.0
C1202 C 0.31936 0.63319 0.81486 0.0
C1203 C 0.33006 0.63849 0.81482 0.0
C1204 C 0.31141 0.63662 0.82279 0.0
C1205 C 0.31405 0.64517 0.8304 0.0
U1206 U 0.34269 0.67553 0.84006 0.0
O1207 O 0.33759 0.69179 0.84674 0.0
O1208 O 0.34774 0.6805 0.8572 0.0
C1209 C 0.34193 0.68978 0.85675 0.0
C1210 C 0.32719 0.65962 0.83817 0.0
C1211 C 0.33457 0.69186 0.86645 0.0
C1212 C 0.31601 0.69314 0.87483 0.0
C1213 C 0.3228 0.69081 0.8656 0.0
C1214 C 0.33265 0.69742 0.88597 0.0
C1215 C 0.32084 0.69647 0.88516 0.0
C1216 C 0.33943 0.69516 0.87671 0.0
C1217 C 0.36874 0.68458 0.82279 0.0
C1218 C 0.37726 0.70307 0.81971 0.0
C1219 C 0.38831 0.68645 0.817 0.0
C1220 C 0.37901 0.67972 0.81998 0.0
C1221 C 0.38753 0.69822 0.81669 0.0
C1222 C 0.36798 0.69633 0.82276 0.0
C1223 C 0.35886 0.67722 0.82515 0.0
O1224 O 0.3364 0.65854 0.84426 0.0
O1225 O 0.32597 0.66981 0.83411 0.0
O1226 O 0.3489 0.68169 0.82376 0.0
O1227 O 0.35954 0.67082 0.83417 0.0
H1228 H 0.34094 0.65107 0.82218 0.0
H1229 H 0.33645 0.63599 0.80895 0.0
H1230 H 0.30304 0.63287 0.82296 0.0
H1231 H 0.30775 0.64772 0.83635 0.0
H1232 H 0.30696 0.69248 0.87379 0.0
H1233 H 0.31884 0.68827 0.85778 0.0
H1234 H 0.33669 0.69978 0.8938 0.0
H1235 H 0.34849 0.696 0.87756 0.0
H1236 H 0.37626 0.71208 0.81944 0.0
H1237 H 0.39611 0.68241 0.81493 0.0
H1238 H 0.3798 0.67068 0.81996 0.0
H1239 H 0.36016 0.70032 0.8249 0.0
C1240 C 0.33774 0.36511 0.81846 0.0
C1241 C 0.32931 0.36855 0.82581 0.0
C1242 C 0.32481 0.38421 0.81329 0.0
C1243 C 0.32291 0.37801 0.82325 0.0
C1244 C 0.33317 0.38059 0.80588 0.0
C1245 C 0.33958 0.37114 0.80846 0.0
U1246 U 0.34542 0.34039 0.83753 0.0
O1247 O 0.35108 0.32345 0.83342 0.0
O1248 O 0.36205 0.33467 0.84334 0.0
C1249 C 0.36093 0.32492 0.83835 0.0
C1250 C 0.34484 0.35543 0.82124 0.0
C1251 C 0.37088 0.32084 0.83236 0.0
C1252 C 0.38121 0.31691 0.81525 0.0
C1253 C 0.37205 0.32183 0.82065 0.0
C1254 C 0.38819 0.31028 0.83324 0.0
C1255 C 0.38925 0.31088 0.82149 0.0
C1256 C 0.37911 0.3152 0.83859 0.0
C1257 C 0.32783 0.33436 0.86416 0.0
C1258 C 0.31793 0.31906 0.87389 0.0
C1259 C 0.32882 0.33263 0.88457 0.0
C1260 C 0.33173 0.33827 0.87462 0.0
C1261 C 0.32185 0.32298 0.88435 0.0
C1262 C 0.32086 0.32469 0.86392 0.0
C1263 C 0.33044 0.34077 0.85369 0.0
O1264 O 0.35113 0.35654 0.83031 0.0
O1265 O 0.33986 0.34552 0.82057 0.0
O1266 O 0.32872 0.33557 0.84411 0.0
O1267 O 0.33976 0.34689 0.85375 0.0
H1268 H 0.32775 0.36396 0.83356 0.0
H1269 H 0.31644 0.38044 0.82907 0.0
H1270 H 0.33495 0.38521 0.79821 0.0
H1271 H 0.34607 0.36862 0.8027 0.0
H1272 H 0.38176 0.31749 0.80619 0.0
H1273 H 0.36579 0.32617 0.81567 0.0
H1274 H 0.39433 0.30588 0.83832 0.0
H1275 H 0.37839 0.31437 0.84763 0.0
H1276 H 0.31262 0.3116 0.87338 0.0
H1277 H 0.33183 0.33601 0.89248 0.0
H1278 H 0.33693 0.34581 0.87515 0.0
H1279 H 0.31757 0.3215 0.85604 0.0
H1280 H 0.27091 0.25058 0.96174 0.0
N1281 N 0.26136 0.2692 0.97073 0.0
H1282 H 0.26173 0.23697 0.94935 0.0
H1283 H 0.23958 0.26785 0.96529 0.0
H1284 H 0.23023 0.25414 0.95293 0.0
H1285 H 0.25746 0.28696 0.95777 0.0
H1286 H 0.27051 0.29649 0.94489 0.0
H1287 H 0.28387 0.26511 0.96889 0.0
H1288 H 0.29697 0.27435 0.95578 0.0
H1289 H 0.2666 0.24949 0.98197 0.0
H1290 H 0.26176 0.28493 0.98646 0.0
H1291 H 0.26925 0.24708 1.002 0.0
H1292 H 0.26522 0.28274 0.00659 0.0
H1293 H 0.2774 0.23972 0.06616 0.0
H1294 H 0.26483 0.231 0.07999 0.0
H1295 H 0.23861 0.25384 0.07002 0.0
H1296 H 0.25139 0.26272 0.05657 0.0
H1297 H 0.26594 0.27653 0.06459 0.0
H1298 H 0.27624 0.28742 0.07878 0.0
H1299 H 0.30639 0.26913 0.0714 0.0
H1300 H 0.29582 0.25794 0.05767 0.0
H1301 H 0.28298 0.2466 0.03747 0.0
H1302 H 0.28084 0.24947 0.01726 0.0
H1303 H 0.25796 0.27656 0.02348 0.0
N1304 N 0.27376 0.25804 0.05393 0.0
H1305 H 0.26095 0.2741 0.04367 0.0
C1306 C 0.25588 0.26023 0.96454 0.0
C1307 C 0.262 0.25135 0.96001 0.0
C1308 C 0.25672 0.24353 0.95293 0.0
C1309 C 0.24524 0.24447 0.95012 0.0
C1310 C 0.2391 0.25324 0.95483 0.0
C1311 C 0.24438 0.261 0.96198 0.0
C1312 C 0.26968 0.27537 0.96427 0.0
C1313 C 0.26613 0.28431 0.95749 0.0
C1314 C 0.27358 0.28964 0.95004 0.0
C1315 C 0.28478 0.28611 0.94917 0.0
C1316 C 0.28843 0.27735 0.95627 0.0
C1317 C 0.28096 0.27202 0.96375 0.0
C1318 C 0.26383 0.26745 0.98256 0.0
C1319 C 0.26623 0.25683 0.98718 0.0
C1320 C 0.26787 0.25547 0.99878 0.0
C1321 C 0.26744 0.2647 0.00611 0.0
C1322 C 0.26537 0.27535 1.00138 0.0
C1323 C 0.26351 0.27666 0.98981 0.0
C1324 C 0.26538 0.25182 0.06027 0.0
C1325 C 0.26884 0.24264 0.06679 0.0
C1326 C 0.26162 0.23767 0.07469 0.0
C1327 C 0.25069 0.24176 0.07624 0.0
C1328 C 0.24703 0.25059 0.06924 0.0
C1329 C 0.25431 0.25561 0.06139 0.0
C1330 C 0.28011 0.2663 0.0602 0.0
C1331 C 0.27481 0.27503 0.06589 0.0
C1332 C 0.28075 0.28129 0.07399 0.0
C1333 C 0.29211 0.27899 0.07645 0.0
C1334 C 0.29758 0.27091 0.06998 0.0
C1335 C 0.29161 0.2646 0.06201 0.0
C1336 C 0.27199 0.25996 0.04207 0.0
C1337 C 0.27752 0.25315 0.03442 0.0
C1338 C 0.27618 0.25477 0.02284 0.0
C1339 C 0.26909 0.26318 0.01856 0.0
C1340 C 0.26359 0.27007 0.02633 0.0
C1341 C 0.26512 0.26856 0.03795 0.0
H1342 H 0.77533 0.26483 0.96471 0.0
N1343 N 0.75519 0.25485 0.97025 0.0
H1344 H 0.79009 0.25675 0.95327 0.0
H1345 H 0.75626 0.23382 0.96306 0.0
H1346 H 0.77109 0.22556 0.95169 0.0
H1347 H 0.73891 0.25228 0.95504 0.0
H1348 H 0.73065 0.26667 0.94289 0.0
H1349 H 0.76013 0.2773 0.97079 0.0
H1350 H 0.75213 0.29179 0.9585 0.0
H1351 H 0.7735 0.25749 0.98469 0.0
H1352 H 0.73722 0.25515 0.98338 0.0
H1353 H 0.77293 0.25799 0.00507 0.0
H1354 H 0.73653 0.25645 1.00377 0.0
H1355 H 0.77144 0.26351 0.06526 0.0
H1356 H 0.78516 0.25305 0.07655 0.0
H1357 H 0.76835 0.222 0.06753 0.0
H1358 H 0.7544 0.23253 0.05661 0.0
H1359 H 0.73605 0.25175 0.06917 0.0
H1360 H 0.72783 0.26577 0.08148 0.0
H1361 H 0.74994 0.29117 0.06717 0.0
H1362 H 0.75801 0.27715 0.0549 0.0
H1363 H 0.76844 0.2662 0.04215 0.0
H1364 H 0.76902 0.26751 0.0216 0.0
H1365 H 0.73948 0.24582 0.01967 0.0
N1366 N 0.75278 0.25466 0.05469 0.0
H1367 H 0.73864 0.24526 0.04012 0.0
C1368 C 0.7647 0.24987 0.96481 0.0
C1369 C 0.77441 0.25621 0.96205 0.0
C1370 C 0.78286 0.25155 0.95551 0.0
C1371 C 0.78176 0.24051 0.95152 0.0
C1372 C 0.77215 0.23412 0.95452 0.0
C1373 C 0.76373 0.23877 0.96111 0.0
C1374 C 0.75007 0.26372 0.9638 0.0
C1375 C 0.74173 0.26092 0.95588 0.0
C1376 C 0.73712 0.26914 0.94889 0.0
C1377 C 0.74078 0.28039 0.94965 0.0
C1378 C 0.74904 0.28323 0.95775 0.0
C1379 C 0.75366 0.27497 0.96476 0.0
C1380 C 0.75534 0.25612 0.98236 0.0
C1381 C 0.76537 0.25722 0.9887 0.0
C1382 C 0.76503 0.25762 1.00048 0.0
C1383 C 0.75468 0.25713 0.00622 0.0
C1384 C 0.7447 0.25651 0.99978 0.0
C1385 C 0.74505 0.2559 0.98807 0.0
C1386 C 0.76179 0.24877 0.06021 0.0
C1387 C 0.77072 0.25446 0.06568 0.0
C1388 C 0.77854 0.24849 0.07213 0.0
C1389 C 0.77776 0.23674 0.07294 0.0
C1390 C 0.76916 0.23105 0.06701 0.0
C1391 C 0.76122 0.23703 0.06078 0.0
C1392 C 0.74753 0.26338 0.06103 0.0
C1393 C 0.73899 0.26039 0.06861 0.0
C1394 C 0.7344 0.26838 0.0757 0.0
C1395 C 0.73825 0.2796 0.07534 0.0
C1396 C 0.74668 0.28264 0.06758 0.0
C1397 C 0.75131 0.27461 0.06052 0.0
C1398 C 0.75333 0.2558 0.04264 0.0
C1399 C 0.76197 0.26195 0.03726 0.0
C1400 C 0.76237 0.26254 0.02547 0.0
C1401 C 0.75424 0.25684 0.01883 0.0
C1402 C 0.74571 0.2506 0.02436 0.0
C1403 C 0.74524 0.25018 0.03609 0.0
H1404 H 0.75695 0.78681 0.96898 0.0
N1405 N 0.75662 0.76459 0.97107 0.0
H1406 H 0.76974 0.79847 0.95756 0.0
H1407 H 0.77515 0.75735 0.95979 0.0
H1408 H 0.78784 0.76891 0.94819 0.0
H1409 H 0.7626 0.74276 0.96812 0.0
H1410 H 0.75384 0.72944 0.955 0.0
H1411 H 0.73797 0.76738 0.95905 0.0
H1412 H 0.72891 0.75407 0.94619 0.0
H1413 H 0.7422 0.76875 0.98738 0.0
H1414 H 0.77509 0.75553 0.9814 0.0
H1415 H 0.74491 0.76627 0.00762 0.0
H1416 H 0.77816 0.75342 1.00167 0.0
H1417 H 0.75926 0.77522 0.0619 0.0
H1418 H 0.7677 0.78999 0.07338 0.0
H1419 H 0.79969 0.7734 0.07237 0.0
H1420 H 0.79121 0.75868 0.06051 0.0
H1421 H 0.77421 0.73974 0.06851 0.0
H1422 H 0.76161 0.73107 0.08234 0.0
H1423 H 0.73412 0.75067 0.06919 0.0
H1424 H 0.74689 0.75947 0.05558 0.0
H1425 H 0.75787 0.77273 0.04298 0.0
H1426 H 0.75493 0.77416 0.02283 0.0
H1427 H 0.77309 0.74343 0.0183 0.0
N1428 N 0.7697 0.75639 0.05435 0.0
H1429 H 0.77639 0.74234 0.03861 0.0
C1430 C 0.76502 0.77124 0.9652 0.0
C1431 C 0.76379 0.78289 0.9646 0.0
C1432 C 0.7711 0.78952 0.95807 0.0
C1433 C 0.77975 0.78459 0.95192 0.0
C1434 C 0.78116 0.77292 0.95273 0.0
C1435 C 0.77394 0.76631 0.9594 0.0
C1436 C 0.75092 0.75608 0.96453 0.0
C1437 C 0.75519 0.74523 0.96344 0.0
C1438 C 0.75014 0.73761 0.95594 0.0
C1439 C 0.74071 0.7407 0.94942 0.0
C1440 C 0.73627 0.75146 0.95087 0.0
C1441 C 0.74135 0.75904 0.95831 0.0
C1442 C 0.75843 0.76242 0.98289 0.0
C1443 C 0.75002 0.76531 0.99047 0.0
C1444 C 0.75166 0.76398 1.00206 0.0
C1445 C 0.76183 0.75977 0.00638 0.0
C1446 C 0.77018 0.75661 0.9987 0.0
C1447 C 0.76848 0.75787 0.98708 0.0
C1448 C 0.77469 0.76593 0.06005 0.0
C1449 C 0.76817 0.77489 0.06378 0.0
C1450 C 0.77299 0.78332 0.07045 0.0
C1451 C 0.78436 0.78286 0.07377 0.0
C1452 C 0.7909 0.77395 0.06998 0.0
C1453 C 0.78611 0.76562 0.06313 0.0
C1454 C 0.76154 0.75021 0.06099 0.0
C1455 C 0.7654 0.74197 0.06847 0.0
C1456 C 0.75816 0.73701 0.07636 0.0
C1457 C 0.74683 0.74021 0.07696 0.0
C1458 C 0.74284 0.74813 0.0691 0.0
C1459 C 0.75011 0.75311 0.06122 0.0
C1460 C 0.76749 0.75744 0.04241 0.0
C1461 C 0.7613 0.76631 0.03774 0.0
C1462 C 0.75951 0.76706 0.02611 0.0
C1463 C 0.76375 0.75891 0.01882 0.0
C1464 C 0.76984 0.74998 0.02356 0.0
C1465 C 0.77167 0.74928 0.03519 0.0
H1466 H 0.27704 0.75315 0.95897 0.0
N1467 N 0.26001 0.74515 0.97241 0.0
H1468 H 0.28731 0.74231 0.94527 0.0
H1469 H 0.26095 0.72292 0.9714 0.0
H1470 H 0.27185 0.71182 0.95836 0.0
H1471 H 0.24173 0.74234 0.95964 0.0
H1472 H 0.23264 0.75628 0.94748 0.0
H1473 H 0.26561 0.76755 0.97085 0.0
H1474 H 0.25663 0.78145 0.9588 0.0
H1475 H 0.2779 0.75646 0.98187 0.0
H1476 H 0.24772 0.73747 0.98943 0.0
H1477 H 0.28099 0.75989 1.00189 0.0
H1478 H 0.25109 0.74004 0.0095 0.0
H1479 H 0.28967 0.7604 0.07036 0.0
H1480 H 0.29434 0.74637 0.0846 0.0
H1481 H 0.27035 0.72323 0.06946 0.0
H1482 H 0.26533 0.7376 0.05565 0.0
H1483 H 0.25397 0.75385 0.06578 0.0
H1484 H 0.24255 0.7666 0.07676 0.0
H1485 H 0.26444 0.79427 0.06706 0.0
H1486 H 0.27591 0.78141 0.05619 0.0
H1487 H 0.28915 0.75678 0.03905 0.0
H1488 H 0.28636 0.75276 0.01913 0.0
H1489 H 0.25029 0.7524 0.02409 0.0
N1490 N 0.2736 0.75922 0.05479 0.0
H1491 H 0.25324 0.75559 0.04402 0.0
C1492 C 0.26799 0.73885 0.96603 0.0
C1493 C 0.27593 0.74413 0.95894 0.0
C1494 C 0.28189 0.73786 0.95113 0.0
C1495 C 0.28025 0.72615 0.95043 0.0
C1496 C 0.27306 0.72084 0.95829 0.0
C1497 C 0.26693 0.72714 0.9659 0.0
C1498 C 0.25423 0.75387 0.96629 0.0
C1499 C 0.24489 0.75092 0.9596 0.0
C1500 C 0.23979 0.75885 0.95259 0.0
C1501 C 0.24391 0.76997 0.95216 0.0
C1502 C 0.25315 0.77299 0.95904 0.0
C1503 C 0.2583 0.76502 0.96599 0.0
C1504 C 0.26243 0.74689 0.98417 0.0
C1505 C 0.27195 0.753 0.98787 0.0
C1506 C 0.27377 0.75481 0.99939 0.0
C1507 C 0.26626 0.75032 0.00748 0.0
C1508 C 0.25693 0.74393 1.00365 0.0
C1509 C 0.25502 0.74233 0.99215 0.0
C1510 C 0.27724 0.75007 0.06191 0.0
C1511 C 0.28557 0.75222 0.07004 0.0
C1512 C 0.28826 0.74414 0.07815 0.0
C1513 C 0.28271 0.73361 0.07828 0.0
C1514 C 0.27466 0.73129 0.06979 0.0
C1515 C 0.27188 0.73946 0.06176 0.0
C1516 C 0.26588 0.76669 0.06019 0.0
C1517 C 0.25628 0.76267 0.06594 0.0
C1518 C 0.24978 0.76995 0.07227 0.0
C1519 C 0.25263 0.78143 0.07284 0.0
C1520 C 0.26197 0.78549 0.06673 0.0
C1521 C 0.26853 0.77818 0.06051 0.0
C1522 C 0.27147 0.75664 0.04308 0.0
C1523 C 0.28065 0.75575 0.03581 0.0
C1524 C 0.27901 0.75356 0.02437 0.0
C1525 C 0.26807 0.75234 0.01981 0.0
C1526 C 0.25886 0.75311 0.02719 0.0
C1527 C 0.26053 0.75509 0.03868 0.0
H1528 H 0.96309 0.24782 0.28541 0.0
N1529 N 0.97471 0.24954 0.26651 0.0
H1530 H 0.95029 0.26151 0.29316 0.0
H1531 H 0.97297 0.27145 0.2596 0.0
H1532 H 0.96051 0.28537 0.26748 0.0
H1533 H 0.96428 0.2565 0.2472 0.0
H1534 H 0.94936 0.24625 0.23717 0.0
H1535 H 0.9694 0.22794 0.2689 0.0
H1536 H 0.95486 0.21738 0.25863 0.0
H1537 H 0.99095 0.24063 0.27888 0.0
H1538 H 0.98524 0.2604 0.24903 0.0
H1539 H 0.01124 0.24153 0.27565 0.0
H1540 H 0.00556 0.262 0.24602 0.0
H1541 H 0.06653 0.24559 0.27132 0.0
H1542 H 0.0794 0.25213 0.28599 0.0
H1543 H 0.07851 0.28563 0.2719 0.0
H1544 H 0.06582 0.27887 0.25697 0.0
H1545 H 0.06771 0.26449 0.2346 0.0
H1546 H 0.07918 0.2533 0.22196 0.0
H1547 H 0.07383 0.22425 0.24324 0.0
H1548 H 0.06183 0.23536 0.25555 0.0
H1549 H 0.04697 0.25535 0.27404 0.0
H1550 H 0.02694 0.25335 0.27665 0.0
H1551 H 0.02191 0.25279 0.24066 0.0
N1552 N 0.05821 0.25798 0.25374 0.0
H1553 H 0.04213 0.2554 0.23802 0.0
C1554 C 0.96904 0.25858 0.27199 0.0
C1555 C 0.96275 0.2561 0.28164 0.0
C1556 C 0.95544 0.26398 0.28606 0.0
C1557 C 0.95427 0.27458 0.28092 0.0
C1558 C 0.96103 0.27724 0.27155 0.0
C1559 C 0.9683 0.26931 0.2671 0.0
C1560 C 0.96784 0.24299 0.2589 0.0
C1561 C 0.96242 0.2479 0.24959 0.0
C1562 C 0.95389 0.24199 0.24383 0.0
C1563 C 0.95072 0.23105 0.24723 0.0
C1564 C 0.95685 0.2259 0.25597 0.0
C1565 C 0.96526 0.23184 0.26177 0.0
C1566 C 0.98661 0.25057 0.26434 0.0
C1567 C 0.99413 0.24531 0.2717 0.0
C1568 C 0.00575 0.24591 0.26986 0.0
C1569 C 0.01017 0.25194 0.26061 0.0
C1570 C 1.00254 0.25717 0.25317 0.0
C1571 C 0.99088 0.25642 0.25496 0.0
C1572 C 0.0652 0.26176 0.26301 0.0
C1573 C 0.06913 0.25432 0.27133 0.0
C1574 C 0.07641 0.25811 0.27981 0.0
C1575 C 0.07999 0.26942 0.28015 0.0
C1576 C 0.07602 0.27685 0.27183 0.0
C1577 C 0.06869 0.27304 0.26336 0.0
C1578 C 0.06403 0.25082 0.24605 0.0
C1579 C 0.06888 0.25567 0.23643 0.0
C1580 C 0.07543 0.24929 0.22927 0.0
C1581 C 0.07746 0.23796 0.23171 0.0
C1582 C 0.07248 0.23301 0.24127 0.0
C1583 C 0.06567 0.23935 0.2483 0.0
C1584 C 0.04636 0.25536 0.25573 0.0
C1585 C 0.04175 0.25465 0.26661 0.0
C1586 C 0.03011 0.25346 0.26814 0.0
C1587 C 0.02266 0.25287 0.25889 0.0
C1588 C 0.02728 0.25338 0.24803 0.0
C1589 C 0.03892 0.2547 0.2465 0.0
H1590 H 0.78737 0.05374 0.26867 0.0
N1591 N 0.76508 0.05128 0.26841 0.0
H1592 H 0.79902 0.0654 0.25608 0.0
H1593 H 0.75776 0.06257 0.24964 0.0
H1594 H 0.76929 0.07438 0.23718 0.0
H1595 H 0.74332 0.05513 0.26193 0.0
H1596 H 0.73052 0.06838 0.27054 0.0
H1597 H 0.76812 0.06209 0.2876 0.0
H1598 H 0.75524 0.07493 0.29663 0.0
H1599 H 0.76974 0.03453 0.28242 0.0
H1600 H 0.75517 0.04157 0.24995 0.0
H1601 H 0.76706 0.01442 0.27936 0.0
H1602 H 0.75286 0.02144 0.24654 0.0
H1603 H 0.77272 0.96046 0.26743 0.0
H1604 H 0.78551 0.94605 0.26152 0.0
H1605 H 0.76969 0.94564 0.22873 0.0
H1606 H 0.75712 0.96057 0.23462 0.0
H1607 H 0.73677 0.95561 0.25099 0.0
H1608 H 0.72644 0.94342 0.26411 0.0
H1609 H 0.74745 0.95562 0.29134 0.0
H1610 H 0.75744 0.96804 0.27821 0.0
H1611 H 0.77235 0.97946 0.26619 0.0
H1612 H 0.77441 0.99952 0.26897 0.0
H1613 H 0.74286 1.00473 0.25152 0.0
N1614 N 0.75475 0.96846 0.25532 0.0
H1615 H 0.7411 0.98452 0.24837 0.0
C1616 C 0.77173 0.05732 0.26018 0.0
C1617 C 0.78342 0.0581 0.2617 0.0
C1618 C 0.79004 0.06475 0.25451 0.0
C1619 C 0.78504 0.07086 0.24569 0.0
C1620 C 0.77334 0.06987 0.24399 0.0
C1621 C 0.76675 0.06308 0.2511 0.0
C1622 C 0.75672 0.05771 0.27411 0.0
C1623 C 0.74593 0.05938 0.26953 0.0
C1624 C 0.73859 0.06693 0.27452 0.0
C1625 C 0.74187 0.07289 0.28424 0.0
C1626 C 0.7525 0.07075 0.28902 0.0
C1627 C 0.75984 0.0633 0.28397 0.0
C1628 C 0.76273 0.03954 0.26644 0.0
C1629 C 0.76595 0.0317 0.27462 0.0
C1630 C 0.76453 0.02019 0.27278 0.0
C1631 C 0.75988 0.0162 0.26262 0.0
C1632 C 0.75639 0.02414 0.2545 0.0
C1633 C 0.75776 0.03569 0.2564 0.0
C1634 C 0.76397 0.96179 0.2514 0.0
C1635 C 0.77225 0.95768 0.25882 0.0
C1636 C 0.77947 0.94923 0.25548 0.0
C1637 C 0.77851 0.9445 0.24471 0.0
C1638 C 0.77073 0.9491 0.23706 0.0
C1639 C 0.76354 0.95765 0.2404 0.0
C1640 C 0.74785 0.96272 0.26358 0.0
C1641 C 0.73896 0.95581 0.25984 0.0
C1642 C 0.73317 0.94875 0.26733 0.0
C1643 C 0.7362 0.9484 0.27878 0.0
C1644 C 0.74482 0.95571 0.28261 0.0
C1645 C 0.75058 0.96281 0.27509 0.0
C1646 C 0.75657 0.98038 0.25692 0.0
C1647 C 0.7659 0.98482 0.26283 0.0
C1648 C 0.76702 0.99641 0.26454 0.0
C1649 C 0.75878 1.00385 0.26053 0.0
C1650 C 0.74947 0.99935 0.2546 0.0
C1651 C 0.74841 0.98778 0.25283 0.0
H1652 H 0.07291 0.7713 0.27954 0.0
N1653 N 0.05786 0.76897 0.26308 0.0
H1654 H 0.08531 0.75694 0.2872 0.0
H1655 H 0.05543 0.74629 0.25982 0.0
H1656 H 0.06732 0.73181 0.2678 0.0
H1657 H 0.0608 0.75854 0.24297 0.0
H1658 H 0.07476 0.76367 0.22886 0.0
H1659 H 0.06975 0.78802 0.26191 0.0
H1660 H 0.08419 0.79299 0.24811 0.0
H1661 H 0.04533 0.7821 0.27553 0.0
H1662 H 0.04283 0.75696 0.24983 0.0
H1663 H 0.02484 0.78329 0.27591 0.0
H1664 H 0.02234 0.75758 0.25056 0.0
H1665 H 0.95857 0.77444 0.28325 0.0
H1666 H 0.94514 0.75985 0.28912 0.0
H1667 H 0.96017 0.73687 0.26588 0.0
H1668 H 0.97323 0.75178 0.25975 0.0
H1669 H 0.96337 0.76698 0.24697 0.0
H1670 H 0.94948 0.77765 0.23628 0.0
H1671 H 0.95624 0.8064 0.25733 0.0
H1672 H 0.96966 0.79541 0.26832 0.0
H1673 H 0.98842 0.77526 0.28315 0.0
H1674 H 0.00883 0.77367 0.28206 0.0
H1675 H 0.00593 0.76776 0.24635 0.0
N1676 N 0.97337 0.77356 0.26669 0.0
H1677 H 0.9854 0.76879 0.24773 0.0
C1678 C 0.06319 0.75994 0.26915 0.0
C1679 C 0.07149 0.76263 0.27717 0.0
C1680 C 0.07857 0.75438 0.28155 0.0
C1681 C 0.07746 0.74318 0.27803 0.0
C1682 C 0.06863 0.74038 0.27052 0.0
C1683 C 0.06166 0.74867 0.26604 0.0
C1684 C 0.06411 0.77299 0.25347 0.0
C1685 C 0.06551 0.76631 0.24394 0.0
C1686 C 0.0737 0.76917 0.23595 0.0
C1687 C 0.0808 0.77865 0.23741 0.0
C1688 C 0.07886 0.78568 0.24661 0.0
C1689 C 0.07059 0.78287 0.25452 0.0
C1690 C 0.0457 0.76938 0.2628 0.0
C1691 C 0.04034 0.77676 0.27004 0.0
C1692 C 0.02858 0.77733 0.2703 0.0
C1693 C 0.0218 0.77041 0.26338 0.0
C1694 C 0.02721 0.76311 0.25597 0.0
C1695 C 0.03902 0.76265 0.25563 0.0
C1696 C 0.96691 0.76419 0.27113 0.0
C1697 C 0.95907 0.76617 0.2796 0.0
C1698 C 0.95142 0.75778 0.28296 0.0
C1699 C 0.95148 0.74713 0.27796 0.0
C1700 C 0.95972 0.74501 0.26979 0.0
C1701 C 0.96731 0.75348 0.26636 0.0
C1702 C 0.96743 0.78038 0.25858 0.0
C1703 C 0.96202 0.77565 0.24914 0.0
C1704 C 0.95408 0.7818 0.24299 0.0
C1705 C 0.9515 0.79284 0.24609 0.0
C1706 C 0.95773 0.79782 0.2549 0.0
C1707 C 0.96554 0.79162 0.26111 0.0
C1708 C 0.98539 0.77229 0.26555 0.0
C1709 C 0.99222 0.77357 0.27511 0.0
C1710 C 1.00392 0.77277 0.27442 0.0
C1711 C 0.00918 0.77077 0.26407 0.0
C1712 C 1.00226 0.76924 0.25449 0.0
C1713 C 0.99048 0.76992 0.25523 0.0
H1714 H 0.2899 0.95078 0.24604 0.0
N1715 N 0.2746 0.96623 0.24974 0.0
H1716 H 0.29793 0.93765 0.25959 0.0
H1717 H 0.27241 0.96721 0.27267 0.0
H1718 H 0.28085 0.95457 0.2864 0.0
H1719 H 0.25521 0.9604 0.26068 0.0
H1720 H 0.24017 0.94806 0.25357 0.0
H1721 H 0.27219 0.95864 0.22892 0.0
H1722 H 0.25711 0.94636 0.22164 0.0
H1723 H 0.28771 0.98018 0.23806 0.0
H1724 H 0.26102 0.97962 0.26234 0.0
H1725 H 0.28783 1.00064 0.23796 0.0
H1726 H 0.26146 1.0001 0.26285 0.0
H1727 H 0.29305 0.06581 0.2463 0.0
H1728 H 0.30269 0.07705 0.2607 0.0
H1729 H 0.28335 0.05981 0.28639 0.0
H1730 H 0.27388 0.04851 0.2719 0.0
H1731 H 0.2575 0.05559 0.26102 0.0
H1732 H 0.24367 0.0697 0.25604 0.0
H1733 H 0.26065 0.07568 0.2245 0.0
H1734 H 0.27419 0.06116 0.22941 0.0
H1735 H 0.29345 0.03682 0.24716 0.0
H1736 H 0.29308 0.0164 0.24807 0.0
H1737 H 0.25708 0.01673 0.25319 0.0
N1738 N 0.27647 0.05082 0.24919 0.0
H1739 H 0.25762 0.0371 0.25288 0.0
C1740 C 0.28063 0.96004 0.25828 0.0
C1741 C 0.28808 0.95176 0.25488 0.0
C1742 C 0.29269 0.94427 0.26268 0.0
C1743 C 0.29004 0.94494 0.27416 0.0
C1744 C 0.28294 0.95361 0.27762 0.0
C1745 C 0.2782 0.961 0.26977 0.0
C1746 C 0.26478 0.96052 0.24526 0.0
C1747 C 0.25554 0.95761 0.25207 0.0
C1748 C 0.24696 0.95051 0.24799 0.0
C1749 C 0.24746 0.94614 0.23705 0.0
C1750 C 0.25653 0.94943 0.23015 0.0
C1751 C 0.26508 0.95654 0.23423 0.0
C1752 C 0.2745 0.97833 0.25027 0.0
C1753 C 0.28198 0.9845 0.2435 0.0
C1754 C 0.28208 0.99624 0.24354 0.0
C1755 C 0.27474 1.00217 0.2505 0.0
C1756 C 0.26718 0.99592 0.2573 0.0
C1757 C 0.267 0.98414 0.25713 0.0
C1758 C 0.28282 0.05631 0.25802 0.0
C1759 C 0.29104 0.06436 0.25506 0.0
C1760 C 0.29644 0.07084 0.26329 0.0
C1761 C 0.29373 0.0694 0.2747 0.0
C1762 C 0.2857 0.06108 0.27769 0.0
C1763 C 0.28026 0.05462 0.26943 0.0
C1764 C 0.26685 0.0572 0.24551 0.0
C1765 C 0.25803 0.05965 0.25287 0.0
C1766 C 0.25021 0.06787 0.25006 0.0
C1767 C 0.25113 0.07402 0.23993 0.0
C1768 C 0.25958 0.07109 0.23232 0.0
C1769 C 0.26734 0.06277 0.2351 0.0
C1770 C 0.27564 0.03867 0.24991 0.0
C1771 C 0.28548 0.03249 0.24855 0.0
C1772 C 0.28522 0.02076 0.24897 0.0
C1773 C 0.27502 0.01477 0.25059 0.0
C1774 C 0.26513 0.02097 0.25207 0.0
C1775 C 0.26544 0.03276 0.25181 0.0
H1776 H 0.07075 0.73545 0.7698 0.0
N1777 N 0.05575 0.7516 0.76778 0.0
H1778 H 0.08369 0.7289 0.75551 0.0
H1779 H 0.05427 0.75613 0.745 0.0
H1780 H 0.06676 0.7493 0.73064 0.0
H1781 H 0.06552 0.77041 0.75846 0.0
H1782 H 0.07899 0.78307 0.76757 0.0
H1783 H 0.06137 0.75193 0.78945 0.0
H1784 H 0.07465 0.76481 0.79882 0.0
H1785 H 0.03914 0.73938 0.77674 0.0
H1786 H 0.04543 0.76898 0.75663 0.0
H1787 H 0.01895 0.74293 0.77612 0.0
H1788 H 0.02532 0.77218 0.75518 0.0
H1789 H 0.96098 0.74725 0.76617 0.0
H1790 H 0.94917 0.73563 0.75382 0.0
H1791 H 0.95885 0.75644 0.7255 0.0
H1792 H 0.97058 0.76811 0.73796 0.0
H1793 H 0.95859 0.78334 0.7587 0.0
H1794 H 0.94463 0.78889 0.77245 0.0
H1795 H 0.95779 0.76447 0.79596 0.0
H1796 H 0.97141 0.75869 0.78191 0.0
H1797 H 0.98256 0.74593 0.76415 0.0
H1798 H 1.0026 0.74243 0.76576 0.0
H1799 H 0.0095 0.77816 0.76407 0.0
N1800 N 0.9727 0.76637 0.76018 0.0
H1801 H 0.98941 0.78146 0.76158 0.0
C1802 C 0.06149 0.74628 0.7586 0.0
C1803 C 0.06968 0.7383 0.7612 0.0
C1804 C 0.07708 0.73456 0.75299 0.0
C1805 C 0.07641 0.73867 0.7419 0.0
C1806 C 0.06772 0.74614 0.73914 0.0
C1807 C 0.06042 0.74997 0.74739 0.0
C1808 C 0.06242 0.76019 0.7733 0.0
C1809 C 0.06729 0.76924 0.76731 0.0
C1810 C 0.07502 0.77651 0.77256 0.0
C1811 C 0.07801 0.77494 0.78394 0.0
C1812 C 0.07272 0.76616 0.79001 0.0
C1813 C 0.06504 0.75887 0.78472 0.0
C1814 C 0.04383 0.75375 0.76661 0.0
C1815 C 0.03612 0.74653 0.772 0.0
C1816 C 0.02454 0.74857 0.77156 0.0
C1817 C 0.02031 0.75785 0.76555 0.0
C1818 C 0.02812 0.76505 0.76008 0.0
C1819 C 0.03972 0.76313 0.76073 0.0
C1820 C 0.96663 0.75864 0.75297 0.0
C1821 C 0.96061 0.74929 0.7573 0.0
C1822 C 0.95383 0.74267 0.75024 0.0
C1823 C 0.95302 0.74516 0.7387 0.0
C1824 C 0.95936 0.75426 0.73434 0.0
C1825 C 0.96605 0.76094 0.74142 0.0
C1826 C 0.96606 0.77066 0.76926 0.0
C1827 C 0.95859 0.77936 0.76692 0.0
C1828 C 0.95062 0.78254 0.77483 0.0
C1829 C 0.94997 0.77709 0.78534 0.0
C1830 C 0.95788 0.76873 0.78789 0.0
C1831 C 0.96579 0.76549 0.77991 0.0
C1832 C 0.98442 0.76401 0.76251 0.0
C1833 C 0.98835 0.75303 0.76408 0.0
C1834 C 0.99992 0.75104 0.76512 0.0
C1835 C 0.00787 0.75997 0.76492 0.0
C1836 C 1.0038 0.77098 0.76392 0.0
C1837 C 0.99226 0.77293 0.76264 0.0
H1838 H 0.2782 0.05804 0.77312 0.0
N1839 N 0.25906 0.0493 0.76333 0.0
H1840 H 0.29257 0.06972 0.76404 0.0
H1841 H 0.26039 0.05477 0.74161 0.0
H1842 H 0.27479 0.06665 0.73241 0.0
H1843 H 0.24361 0.06491 0.76055 0.0
H1844 H 0.2371 0.07824 0.7744 0.0
H1845 H 0.26323 0.04822 0.78605 0.0
H1846 H 0.25635 0.06114 0.80012 0.0
H1847 H 0.27751 0.03835 0.7721 0.0
H1848 H 0.24393 0.03317 0.75896 0.0
H1849 H 0.2798 0.01827 0.77389 0.0
H1850 H 0.24589 0.01289 0.76134 0.0
H1851 H 0.29147 0.96011 0.77142 0.0
H1852 H 0.30043 0.94774 0.7579 0.0
H1853 H 0.2693 0.94578 0.73895 0.0
H1854 H 0.26049 0.9581 0.75243 0.0
H1855 H 0.24801 0.96039 0.76769 0.0
H1856 H 0.2364 0.94712 0.77871 0.0
H1857 H 0.26369 0.94362 0.80262 0.0
H1858 H 0.27522 0.95673 0.79147 0.0
H1859 H 0.27794 0.98205 0.78527 0.0
H1860 H 0.27485 1.00222 0.78397 0.0
H1861 H 0.25451 0.99698 0.75412 0.0
N1862 N 0.27002 0.96607 0.77186 0.0
H1863 H 0.25715 0.9768 0.75595 0.0
C1864 C 0.26826 0.05534 0.75798 0.0
C1865 C 0.27748 0.05964 0.76419 0.0
C1866 C 0.2857 0.06636 0.75898 0.0
C1867 C 0.28483 0.0691 0.7475 0.0
C1868 C 0.27566 0.06474 0.74128 0.0
C1869 C 0.26749 0.05789 0.74648 0.0
C1870 C 0.25386 0.05554 0.7722 0.0
C1871 C 0.24622 0.06392 0.76923 0.0
C1872 C 0.24248 0.07152 0.77721 0.0
C1873 C 0.24625 0.07089 0.78843 0.0
C1874 C 0.25344 0.06207 0.79153 0.0
C1875 C 0.25728 0.05454 0.7835 0.0
C1876 C 0.26054 0.03738 0.7652 0.0
C1877 C 0.27056 0.03294 0.76965 0.0
C1878 C 0.27182 0.02133 0.7708 0.0
C1879 C 0.26305 0.01381 0.76774 0.0
C1880 C 0.25294 0.01832 0.76357 0.0
C1881 C 0.25175 0.02994 0.7623 0.0
C1882 C 0.27538 0.96017 0.7629 0.0
C1883 C 0.28668 0.95718 0.76421 0.0
C1884 C 0.29173 0.95002 0.75655 0.0
C1885 C 0.28557 0.94572 0.74737 0.0
C1886 C 0.27434 0.94904 0.74585 0.0
C1887 C 0.26928 0.95614 0.75356 0.0
C1888 C 0.2625 0.95947 0.77878 0.0
C1889 C 0.25144 0.9568 0.77533 0.0
C1890 C 0.24484 0.9492 0.78162 0.0
C1891 C 0.24915 0.9443 0.79152 0.0
C1892 C 0.26008 0.94733 0.79511 0.0
C1893 C 0.26668 0.9548 0.78877 0.0
C1894 C 0.26795 0.97791 0.77065 0.0
C1895 C 0.2728 0.98529 0.77847 0.0
C1896 C 0.27108 0.99685 0.77764 0.0
C1897 C 0.26452 1.00137 0.76885 0.0
C1898 C 0.25952 0.99389 0.76108 0.0
C1899 C 0.26114 0.98228 0.76202 0.0
H1900 H 0.95844 0.23635 0.75506 0.0
N1901 N 0.97283 0.25321 0.75877 0.0
H1902 H 0.94431 0.22856 0.7679 0.0
H1903 H 0.97106 0.25802 0.78123 0.0
H1904 H 0.95726 0.25005 0.79423 0.0
H1905 H 0.96197 0.27159 0.76675 0.0
H1906 H 0.95065 0.28468 0.7556 0.0
H1907 H 0.97148 0.25466 0.73651 0.0
H1908 H 0.96045 0.26794 0.72527 0.0
H1909 H 0.98882 0.23986 0.75154 0.0
H1910 H 0.98369 0.26969 0.77081 0.0
H1911 H 0.00913 0.24173 0.7544 0.0
H1912 H 1.00395 0.2713 0.77442 0.0
H1913 H 0.06372 0.24221 0.76157 0.0
H1914 H 0.07605 0.22795 0.76948 0.0
H1915 H 0.07623 0.24509 0.80131 0.0
H1916 H 0.0639 0.25945 0.79323 0.0
H1917 H 0.07155 0.27774 0.77498 0.0
H1918 H 0.08353 0.28683 0.76078 0.0
H1919 H 0.06789 0.26621 0.73517 0.0
H1920 H 0.05586 0.25729 0.74943 0.0
H1921 H 0.04397 0.24139 0.76961 0.0
H1922 H 0.02383 0.23976 0.767 0.0
H1923 H 0.0214 0.2759 0.76684 0.0
N1924 N 0.0566 0.26114 0.77206 0.0
H1925 H 0.04166 0.27748 0.77016 0.0
C1926 C 0.96586 0.24771 0.76713 0.0
C1927 C 0.95834 0.23921 0.76367 0.0
C1928 C 0.95029 0.23475 0.77105 0.0
C1929 C 0.94957 0.2387 0.78213 0.0
C1930 C 0.95743 0.24692 0.78572 0.0
C1931 C 0.96545 0.25142 0.7783 0.0
C1932 C 0.96749 0.26205 0.75243 0.0
C1933 C 0.96176 0.27078 0.75771 0.0
C1934 C 0.95526 0.27823 0.75134 0.0
C1935 C 0.95461 0.27727 0.73958 0.0
C1936 C 0.96083 0.26891 0.73431 0.0
C1937 C 0.96714 0.26134 0.74069 0.0
C1938 C 0.98473 0.25451 0.76106 0.0
C1939 C 0.99211 0.24672 0.75656 0.0
C1940 C 1.00374 0.24778 0.7583 0.0
C1941 C 0.00833 0.25663 0.76475 0.0
C1942 C 1.00085 0.26445 0.76929 0.0
C1943 C 0.98919 0.26346 0.76738 0.0
C1944 C 0.06278 0.25188 0.77686 0.0
C1945 C 0.06628 0.24284 0.77028 0.0
C1946 C 0.07332 0.23466 0.77484 0.0
C1947 C 0.07713 0.23538 0.78604 0.0
C1948 C 0.07351 0.24435 0.79263 0.0
C1949 C 0.06639 0.25248 0.78808 0.0
C1950 C 0.06278 0.26693 0.76328 0.0
C1951 C 0.07063 0.27531 0.76627 0.0
C1952 C 0.07753 0.2804 0.75816 0.0
C1953 C 0.07671 0.27722 0.74684 0.0
C1954 C 0.06866 0.26894 0.7438 0.0
C1955 C 0.06179 0.26381 0.75194 0.0
C1956 C 0.04456 0.25965 0.77009 0.0
C1957 C 0.03925 0.24903 0.76904 0.0
C1958 C 0.02757 0.24808 0.76745 0.0
C1959 C 0.02082 0.25768 0.76665 0.0
C1960 C 0.02617 0.26827 0.7676 0.0
C1961 C 0.03782 0.26921 0.76938 0.0
H1962 H 0.78102 0.958 0.76169 0.0
N1963 N 0.76147 0.96716 0.76912 0.0
H1964 H 0.79332 0.94548 0.77234 0.0
H1965 H 0.76033 0.96209 0.79088 0.0
H1966 H 0.77251 0.9495 0.80161 0.0
H1967 H 0.74251 0.95536 0.77174 0.0
H1968 H 0.73333 0.94278 0.75826 0.0
H1969 H 0.76779 0.96421 0.74733 0.0
H1970 H 0.75894 0.95128 0.73384 0.0
H1971 H 0.78164 0.97895 0.76699 0.0
H1972 H 0.74555 0.98231 0.76597 0.0
H1973 H 0.78398 0.99909 0.76459 0.0
H1974 H 0.74779 1.00242 0.76272 0.0
H1975 H 0.78757 0.06642 0.75623 0.0
H1976 H 0.79323 0.08026 0.77028 0.0
H1977 H 0.77152 0.06367 0.79448 0.0
H1978 H 0.76553 0.05031 0.78028 0.0
H1979 H 0.75158 0.05913 0.76504 0.0
H1980 H 0.73887 0.07091 0.75403 0.0
H1981 H 0.7602 0.0673 0.72506 0.0
H1982 H 0.77275 0.05537 0.73613 0.0
H1983 H 0.78542 0.03489 0.75108 0.0
H1984 H 0.78317 0.01456 0.75294 0.0
H1985 H 0.75211 0.01923 0.77099 0.0
N1986 N 0.7716 0.05067 0.75795 0.0
H1987 H 0.75409 0.0394 0.76829 0.0
C1988 C 0.76975 0.96103 0.77553 0.0
C1989 C 0.77919 0.9563 0.77043 0.0
C1990 C 0.78618 0.94907 0.77652 0.0
C1991 C 0.78388 0.94641 0.78783 0.0
C1992 C 0.77463 0.95145 0.79297 0.0
C1993 C 0.76765 0.95865 0.78687 0.0
C1994 C 0.75581 0.96066 0.76055 0.0
C1995 C 0.74603 0.9546 0.76342 0.0
C1996 C 0.74088 0.94732 0.75574 0.0
C1997 C 0.74547 0.94586 0.74499 0.0
C1998 C 0.75513 0.95222 0.74201 0.0
C1999 C 0.76025 0.95957 0.74972 0.0
C2000 C 0.76334 0.979 0.76677 0.0
C2001 C 0.77417 0.98395 0.7661 0.0
C2002 C 0.77551 0.99559 0.76462 0.0
C2003 C 0.76609 1.00258 0.76352 0.0
C2004 C 0.75529 0.99749 0.76383 0.0
C2005 C 0.75397 0.98592 0.76554 0.0
C2006 C 0.77617 0.05727 0.76711 0.0
C2007 C 0.78422 0.06566 0.76465 0.0
C2008 C 0.78746 0.07356 0.77272 0.0
C2009 C 0.78276 0.07321 0.78355 0.0
C2010 C 0.77514 0.0644 0.78618 0.0
C2011 C 0.77179 0.05659 0.77805 0.0
C2012 C 0.76312 0.05631 0.75136 0.0
C2013 C 0.75339 0.06066 0.75626 0.0
C2014 C 0.74619 0.06752 0.74998 0.0
C2015 C 0.74854 0.07013 0.73867 0.0
C2016 C 0.75805 0.06538 0.7337 0.0
C2017 C 0.76524 0.05856 0.74 0.0
C2018 C 0.77005 0.03872 0.75964 0.0
C2019 C 0.77814 0.03148 0.75543 0.0
C2020 C 0.77685 0.01982 0.75659 0.0
C2021 C 0.76746 0.01507 0.76218 0.0
C2022 C 0.75937 0.02242 0.76645 0.0
C2023 C 0.76057 0.03407 0.76507 0.0
H2024 H 0.25977 0.74576 0.46864 0.0
N2025 N 0.25566 0.76811 0.47124 0.0
H2026 H 0.24986 0.73294 0.45585 0.0
H2027 H 0.23699 0.77208 0.45949 0.0
H2028 H 0.22676 0.75926 0.44696 0.0
H2029 H 0.25586 0.78767 0.46038 0.0
H2030 H 0.26893 0.794 0.4458 0.0
H2031 H 0.27567 0.75825 0.46616 0.0
H2032 H 0.28905 0.76465 0.45187 0.0
H2033 H 0.27497 0.77232 0.48398 0.0
H2034 H 0.24099 0.75883 0.48599 0.0
H2035 H 0.27743 0.76915 0.50396 0.0
H2036 H 0.24358 0.75555 0.50603 0.0
H2037 H 0.26726 0.73214 0.55637 0.0
H2038 H 0.25484 0.71983 0.56752 0.0
H2039 H 0.23475 0.7483 0.57614 0.0
H2040 H 0.24709 0.76051 0.56484 0.0
H2041 H 0.25965 0.77619 0.55535 0.0
H2042 H 0.26572 0.79011 0.56913 0.0
H2043 H 0.28885 0.76627 0.58357 0.0
H2044 H 0.283 0.75257 0.56944 0.0
H2045 H 0.28161 0.75142 0.53833 0.0
H2046 H 0.27935 0.75445 0.51806 0.0
H2047 H 0.24545 0.76575 0.52346 0.0
N2048 N 0.26653 0.75435 0.55437 0.0
H2049 H 0.24778 0.76254 0.54367 0.0
C2050 C 0.24911 0.75991 0.46499 0.0
C2051 C 0.25253 0.74872 0.46399 0.0
C2052 C 0.2468 0.74139 0.45671 0.0
C2053 C 0.23755 0.74507 0.45027 0.0
C2054 C 0.23396 0.75617 0.4516 0.0
C2055 C 0.23971 0.76348 0.45885 0.0
C2056 C 0.26477 0.77255 0.46441 0.0
C2057 C 0.26324 0.78276 0.45873 0.0
C2058 C 0.27076 0.78636 0.45039 0.0
C2059 C 0.28006 0.77981 0.44753 0.0
C2060 C 0.28188 0.76982 0.45365 0.0
C2061 C 0.27429 0.76617 0.46192 0.0
C2062 C 0.25791 0.7653 0.48302 0.0
C2063 C 0.2681 0.76835 0.4885 0.0
C2064 C 0.26952 0.76659 0.50009 0.0
C2065 C 0.26075 0.762 0.50666 0.0
C2066 C 0.25053 0.75914 0.50129 0.0
C2067 C 0.24911 0.76085 0.48971 0.0
C2068 C 0.25818 0.74722 0.55979 0.0
C2069 C 0.26005 0.73567 0.56049 0.0
C2070 C 0.25295 0.72867 0.56687 0.0
C2071 C 0.24386 0.73312 0.57279 0.0
C2072 C 0.24177 0.74466 0.5718 0.0
C2073 C 0.24879 0.75164 0.56528 0.0
C2074 C 0.27095 0.76331 0.5613 0.0
C2075 C 0.26622 0.77404 0.56129 0.0
C2076 C 0.26962 0.78197 0.5693 0.0
C2077 C 0.27771 0.77932 0.57759 0.0
C2078 C 0.28271 0.76871 0.57728 0.0
C2079 C 0.27937 0.76084 0.56922 0.0
C2080 C 0.2649 0.75668 0.54253 0.0
C2081 C 0.27372 0.75458 0.53511 0.0
C2082 C 0.27242 0.75637 0.52354 0.0
C2083 C 0.2622 0.76031 0.51906 0.0
C2084 C 0.25338 0.76254 0.52655 0.0
C2085 C 0.25471 0.76077 0.53816 0.0
H2086 H 0.77259 0.77393 0.5598 0.0
N2087 N 0.76078 0.75503 0.55347 0.0
H2088 H 0.76714 0.78699 0.57439 0.0
H2089 H 0.74057 0.75667 0.56274 0.0
H2090 H 0.73509 0.76957 0.57754 0.0
H2091 H 0.7555 0.73712 0.56594 0.0
H2092 H 0.76779 0.72676 0.57877 0.0
H2093 H 0.78363 0.7579 0.55554 0.0
H2094 H 0.79594 0.74791 0.56865 0.0
H2095 H 0.76115 0.77505 0.54114 0.0
H2096 H 0.76593 0.73931 0.53853 0.0
H2097 H 0.76455 0.7772 0.52121 0.0
H2098 H 0.76962 0.74155 0.51854 0.0
H2099 H 0.77745 0.78285 0.45714 0.0
H2100 H 0.764 0.79063 0.44366 0.0
H2101 H 0.73853 0.76717 0.4556 0.0
H2102 H 0.75214 0.75927 0.46879 0.0
H2103 H 0.76596 0.74542 0.46195 0.0
H2104 H 0.77556 0.73272 0.44941 0.0
H2105 H 0.8059 0.75305 0.45215 0.0
H2106 H 0.79617 0.76578 0.46476 0.0
H2107 H 0.78147 0.77873 0.48671 0.0
H2108 H 0.77871 0.77657 0.50699 0.0
H2109 H 0.76025 0.74556 0.50122 0.0
N2110 N 0.77456 0.7651 0.47045 0.0
H2111 H 0.76335 0.74765 0.4811 0.0
C2112 C 0.75695 0.7643 0.56014 0.0
C2113 C 0.76429 0.77308 0.56343 0.0
C2114 C 0.76118 0.7805 0.57186 0.0
C2115 C 0.75073 0.77924 0.57729 0.0
C2116 C 0.74315 0.77087 0.57351 0.0
C2117 C 0.74626 0.76348 0.56503 0.0
C2118 C 0.76861 0.74826 0.55981 0.0
C2119 C 0.76437 0.73935 0.56637 0.0
C2120 C 0.77139 0.73355 0.57379 0.0
C2121 C 0.78285 0.73658 0.57488 0.0
C2122 C 0.78719 0.74528 0.568 0.0
C2123 C 0.78015 0.75105 0.56052 0.0
C2124 C 0.76362 0.75697 0.5417 0.0
C2125 C 0.7632 0.76764 0.53648 0.0
C2126 C 0.76514 0.76891 0.52492 0.0
C2127 C 0.76743 0.75957 0.51819 0.0
C2128 C 0.76779 0.74894 0.52338 0.0
C2129 C 0.76583 0.74767 0.5349 0.0
C2130 C 0.76585 0.77053 0.464 0.0
C2131 C 0.76889 0.77956 0.45698 0.0
C2132 C 0.76116 0.784 0.4493 0.0
C2133 C 0.75016 0.7795 0.44847 0.0
C2134 C 0.74697 0.77074 0.45587 0.0
C2135 C 0.75474 0.76627 0.46353 0.0
C2136 C 0.78041 0.75652 0.46445 0.0
C2137 C 0.77476 0.747 0.46014 0.0
C2138 C 0.78026 0.73974 0.4529 0.0
C2139 C 0.79149 0.74189 0.44972 0.0
C2140 C 0.79722 0.75122 0.45432 0.0
C2141 C 0.79172 0.75843 0.46162 0.0
C2142 C 0.77267 0.7634 0.48234 0.0
C2143 C 0.77686 0.77146 0.48986 0.0
C2144 C 0.77519 0.77024 0.50145 0.0
C2145 C 0.76924 0.76088 0.50581 0.0
C2146 C 0.76502 0.75279 0.49823 0.0
C2147 C 0.76673 0.75402 0.48663 0.0
H2148 H 0.78121 0.26068 0.56813 0.0
N2149 N 0.76269 0.26531 0.55513 0.0
H2150 H 0.78976 0.27325 0.58199 0.0
H2151 H 0.76036 0.28742 0.55595 0.0
H2152 H 0.76941 0.30032 0.5692 0.0
H2153 H 0.74481 0.26615 0.56833 0.0
H2154 H 0.73882 0.25236 0.58245 0.0
H2155 H 0.77072 0.24402 0.55736 0.0
H2156 H 0.76453 0.22992 0.57112 0.0
H2157 H 0.78219 0.25819 0.54558 0.0
H2158 H 0.74827 0.26829 0.5383 0.0
H2159 H 0.78541 0.25522 0.52546 0.0
H2160 H 0.7514 0.26558 0.51822 0.0
H2161 H 0.79463 0.24496 0.46242 0.0
H2162 H 0.80626 0.25617 0.44954 0.0
H2163 H 0.78572 0.28499 0.45582 0.0
H2164 H 0.77408 0.27362 0.46869 0.0
H2165 H 0.75736 0.26246 0.4663 0.0
H2166 H 0.7428 0.25588 0.45316 0.0
H2167 H 0.75951 0.22409 0.45073 0.0
H2168 H 0.77417 0.23088 0.46373 0.0
H2169 H 0.7905 0.26126 0.4877 0.0
H2170 H 0.7875 0.26497 0.50752 0.0
H2171 H 0.75395 0.25072 0.50496 0.0
N2172 N 0.77614 0.25108 0.47295 0.0
H2173 H 0.75678 0.24712 0.48527 0.0
C2174 C 0.76992 0.27307 0.56118 0.0
C2175 C 0.77871 0.26936 0.56821 0.0
C2176 C 0.78365 0.27661 0.57612 0.0
C2177 C 0.78006 0.28777 0.57699 0.0
C2178 C 0.77211 0.29169 0.5691 0.0
C2179 C 0.76703 0.28439 0.56138 0.0
C2180 C 0.75815 0.25613 0.56177 0.0
C2181 C 0.74897 0.25814 0.56875 0.0
C2182 C 0.74555 0.25021 0.57681 0.0
C2183 C 0.75123 0.24001 0.57804 0.0
C2184 C 0.76008 0.23776 0.57059 0.0
C2185 C 0.76355 0.24576 0.56258 0.0
C2186 C 0.76495 0.26344 0.54341 0.0
C2187 C 0.77545 0.25979 0.53963 0.0
C2188 C 0.77729 0.25818 0.52811 0.0
C2189 C 0.76866 0.26015 0.52016 0.0
C2190 C 0.7582 0.26382 0.52405 0.0
C2191 C 0.75639 0.26543 0.53552 0.0
C2192 C 0.78354 0.25842 0.46653 0.0
C2193 C 0.79277 0.25375 0.46115 0.0
C2194 C 0.79941 0.26018 0.4538 0.0
C2195 C 0.79693 0.2715 0.45162 0.0
C2196 C 0.78778 0.27627 0.4572 0.0
C2197 C 0.78115 0.2698 0.4646 0.0
C2198 C 0.76684 0.24711 0.46604 0.0
C2199 C 0.75786 0.25407 0.46297 0.0
C2200 C 0.74951 0.25026 0.45549 0.0
C2201 C 0.74999 0.23945 0.45086 0.0
C2202 C 0.75894 0.2325 0.45403 0.0
C2203 C 0.76726 0.2363 0.46154 0.0
C2204 C 0.77372 0.25445 0.48446 0.0
C2205 C 0.78234 0.25922 0.49123 0.0
C2206 C 0.78069 0.26118 0.5027 0.0
C2207 C 0.77043 0.25827 0.50788 0.0
C2208 C 0.76187 0.25336 0.50124 0.0
C2209 C 0.7635 0.25136 0.48979 0.0
H2210 H 0.27695 0.25966 0.4623 0.0
N2211 N 0.25885 0.24744 0.47015 0.0
H2212 H 0.28988 0.2539 0.44779 0.0
H2213 H 0.26147 0.22669 0.46251 0.0
H2214 H 0.27426 0.22092 0.44761 0.0
H2215 H 0.24378 0.24471 0.45375 0.0
H2216 H 0.23664 0.25903 0.44095 0.0
H2217 H 0.26081 0.27025 0.47322 0.0
H2218 H 0.25316 0.28468 0.46094 0.0
H2219 H 0.27707 0.25678 0.48155 0.0
H2220 H 0.24443 0.24104 0.48605 0.0
H2221 H 0.27905 0.2589 0.50171 0.0
H2222 H 0.2462 0.24348 0.5064 0.0
H2223 H 0.28955 0.26193 0.55774 0.0
H2224 H 0.30075 0.25206 0.5719 0.0
H2225 H 0.27235 0.22992 0.57871 0.0
H2226 H 0.26144 0.23956 0.56418 0.0
H2227 H 0.24627 0.25168 0.55766 0.0
H2228 H 0.23313 0.26024 0.57072 0.0
H2229 H 0.25683 0.2877 0.57581 0.0
H2230 H 0.26998 0.27885 0.56303 0.0
H2231 H 0.27397 0.27261 0.5368 0.0
H2232 H 0.27182 0.2697 0.51659 0.0
H2233 H 0.25594 0.23742 0.52316 0.0
N2234 N 0.26774 0.25896 0.55338 0.0
H2235 H 0.25787 0.24065 0.54342 0.0
C2236 C 0.26823 0.24355 0.46362 0.0
C2237 C 0.27656 0.25105 0.45952 0.0
C2238 C 0.28387 0.24778 0.45106 0.0
C2239 C 0.28298 0.237 0.44638 0.0
C2240 C 0.27522 0.22926 0.45105 0.0
C2241 C 0.26791 0.23254 0.45958 0.0
C2242 C 0.25282 0.25631 0.46447 0.0
C2243 C 0.24563 0.25346 0.4555 0.0
C2244 C 0.24154 0.2617 0.44819 0.0
C2245 C 0.24442 0.27308 0.44976 0.0
C2246 C 0.25098 0.276 0.45924 0.0
C2247 C 0.25524 0.26772 0.46644 0.0
C2248 C 0.26057 0.24864 0.48216 0.0
C2249 C 0.2703 0.25373 0.48681 0.0
C2250 C 0.27139 0.25505 0.49845 0.0
C2251 C 0.26277 0.25141 0.50577 0.0
C2252 C 0.25309 0.24625 0.50109 0.0
C2253 C 0.25202 0.2449 0.48944 0.0
C2254 C 0.27468 0.25156 0.55997 0.0
C2255 C 0.28589 0.25474 0.56207 0.0
C2256 C 0.29221 0.24917 0.57027 0.0
C2257 C 0.28738 0.24035 0.57666 0.0
C2258 C 0.27637 0.23665 0.57397 0.0
C2259 C 0.27008 0.24219 0.56566 0.0
C2260 C 0.25911 0.26465 0.55943 0.0
C2261 C 0.24853 0.25961 0.56148 0.0
C2262 C 0.24103 0.26454 0.56893 0.0
C2263 C 0.24398 0.2746 0.57445 0.0
C2264 C 0.25437 0.27984 0.57192 0.0
C2265 C 0.26184 0.27489 0.56451 0.0
C2266 C 0.26614 0.25686 0.54158 0.0
C2267 C 0.27001 0.26493 0.53384 0.0
C2268 C 0.26884 0.26319 0.52229 0.0
C2269 C 0.2638 0.25326 0.51816 0.0
C2270 C 0.25979 0.2452 0.52599 0.0
C2271 C 0.26093 0.24699 0.53759 0.0
H2272 H 0.76173 0.4681 0.77812 0.0
N2273 N 0.76032 0.4686 0.75513 0.0
H2274 H 0.75075 0.4559 0.79066 0.0
H2275 H 0.74237 0.45613 0.74979 0.0
H2276 H 0.73105 0.44415 0.76229 0.0
H2277 H 0.7636 0.46036 0.73472 0.0
H2278 H 0.77628 0.44522 0.72968 0.0
H2279 H 0.77763 0.46062 0.76821 0.0
H2280 H 0.79059 0.44605 0.76315 0.0
H2281 H 0.77718 0.47955 0.76713 0.0
H2282 H 0.74738 0.48471 0.747 0.0
H2283 H 0.77924 0.49964 0.76982 0.0
H2284 H 0.7491 0.50495 0.75003 0.0
H2285 H 0.77288 0.56463 0.78563 0.0
H2286 H 0.75947 0.57792 0.79308 0.0
H2287 H 0.73455 0.56634 0.76898 0.0
H2288 H 0.74821 0.5533 0.76139 0.0
H2289 H 0.7632 0.56305 0.74917 0.0
H2290 H 0.77491 0.57505 0.737 0.0
H2291 H 0.8044 0.56568 0.75608 0.0
H2292 H 0.79261 0.55383 0.76833 0.0
H2293 H 0.77386 0.53492 0.7824 0.0
H2294 H 0.77131 0.51477 0.77941 0.0
H2295 H 0.75961 0.52147 0.74556 0.0
N2296 N 0.77031 0.55154 0.76789 0.0
H2297 H 0.76177 0.54162 0.74886 0.0
C2298 C 0.75287 0.463 0.76297 0.0
C2299 C 0.75495 0.46302 0.77462 0.0
C2300 C 0.74862 0.45604 0.7818 0.0
C2301 C 0.74007 0.44893 0.77749 0.0
C2302 C 0.7377 0.44934 0.76589 0.0
C2303 C 0.74406 0.45627 0.75874 0.0
C2304 C 0.76967 0.46179 0.75177 0.0
C2305 C 0.76972 0.45748 0.74084 0.0
C2306 C 0.77697 0.44881 0.73799 0.0
C2307 C 0.78436 0.44427 0.74606 0.0
C2308 C 0.78485 0.44916 0.75678 0.0
C2309 C 0.77754 0.45772 0.75964 0.0
C2310 C 0.76214 0.48052 0.75671 0.0
C2311 C 0.77106 0.48495 0.76325 0.0
C2312 C 0.77216 0.49654 0.76489 0.0
C2313 C 0.76432 0.50402 0.76018 0.0
C2314 C 0.75542 0.49954 0.75365 0.0
C2315 C 0.75438 0.48795 0.75195 0.0
C2316 C 0.76156 0.55796 0.77303 0.0
C2317 C 0.76444 0.56483 0.78212 0.0
C2318 C 0.75673 0.5724 0.78638 0.0
C2319 C 0.74589 0.57326 0.78163 0.0
C2320 C 0.74286 0.56603 0.77275 0.0
C2321 C 0.75063 0.55847 0.76846 0.0
C2322 C 0.77706 0.55759 0.75974 0.0
C2323 C 0.77219 0.5635 0.75069 0.0
C2324 C 0.77888 0.5704 0.74376 0.0
C2325 C 0.79056 0.57135 0.74562 0.0
C2326 C 0.79544 0.56506 0.75438 0.0
C2327 C 0.78874 0.5583 0.76138 0.0
C2328 C 0.76809 0.53977 0.76588 0.0
C2329 C 0.77066 0.53201 0.77438 0.0
C2330 C 0.7693 0.52048 0.77259 0.0
C2331 C 0.76538 0.51639 0.76218 0.0
C2332 C 0.76257 0.52425 0.75372 0.0
C2333 C 0.76386 0.53581 0.75556 0.0
H2334 H 0.26124 0.55989 0.76913 0.0
N2335 N 0.26683 0.54975 0.7494 0.0
H2336 H 0.27292 0.5733 0.7795 0.0
H2337 H 0.28877 0.55371 0.74677 0.0
H2338 H 0.30075 0.56678 0.75741 0.0
H2339 H 0.26735 0.56411 0.73224 0.0
H2340 H 0.25321 0.57793 0.72714 0.0
H2341 H 0.24527 0.55027 0.75755 0.0
H2342 H 0.23089 0.56375 0.75226 0.0
H2343 H 0.25968 0.53939 0.76886 0.0
H2344 H 0.27005 0.53333 0.73489 0.0
H2345 H 0.2577 0.51919 0.77219 0.0
H2346 H 0.26783 0.51309 0.73801 0.0
H2347 H 0.25574 0.46097 0.7848 0.0
H2348 H 0.26813 0.4489 0.79589 0.0
H2349 H 0.29078 0.44707 0.76774 0.0
H2350 H 0.27826 0.45899 0.75671 0.0
H2351 H 0.26476 0.46154 0.74214 0.0
H2352 H 0.25594 0.44788 0.72954 0.0
H2353 H 0.22866 0.44311 0.75307 0.0
H2354 H 0.23787 0.45645 0.76582 0.0
H2355 H 0.24463 0.48277 0.77081 0.0
H2356 H 0.24642 0.50302 0.7675 0.0
H2357 H 0.27623 0.49762 0.74776 0.0
N2358 N 0.25773 0.46669 0.7633 0.0
H2359 H 0.27416 0.47741 0.75092 0.0
C2360 C 0.27412 0.55586 0.75706 0.0
C2361 C 0.26991 0.56118 0.76663 0.0
C2362 C 0.27665 0.56885 0.7726 0.0
C2363 C 0.28776 0.57131 0.76921 0.0
C2364 C 0.29216 0.56534 0.76011 0.0
C2365 C 0.28538 0.55775 0.75409 0.0
C2366 C 0.25741 0.55613 0.74523 0.0
C2367 C 0.25929 0.56384 0.73645 0.0
C2368 C 0.25117 0.57173 0.73354 0.0
C2369 C 0.24091 0.57208 0.73935 0.0
C2370 C 0.23878 0.5639 0.74774 0.0
C2371 C 0.24696 0.55605 0.7507 0.0
C2372 C 0.26507 0.5379 0.7516 0.0
C2373 C 0.26146 0.53373 0.76208 0.0
C2374 C 0.26028 0.52213 0.76395 0.0
C2375 C 0.26265 0.51443 0.75538 0.0
C2376 C 0.26612 0.5187 0.74488 0.0
C2377 C 0.2673 0.53027 0.74303 0.0
C2378 C 0.26606 0.46096 0.76998 0.0
C2379 C 0.2635 0.45813 0.78112 0.0
C2380 C 0.2706 0.45123 0.78743 0.0
C2381 C 0.28046 0.44695 0.7827 0.0
C2382 C 0.28319 0.45009 0.7716 0.0
C2383 C 0.27608 0.45702 0.7653 0.0
C2384 C 0.25197 0.45998 0.75497 0.0
C2385 C 0.25685 0.45763 0.74455 0.0
C2386 C 0.25174 0.44983 0.73731 0.0
C2387 C 0.24161 0.44426 0.7403 0.0
C2388 C 0.23656 0.44702 0.75056 0.0
C2389 C 0.24172 0.45474 0.7578 0.0
C2390 C 0.25923 0.47856 0.76115 0.0
C2391 C 0.25154 0.48599 0.76577 0.0
C2392 C 0.25263 0.49758 0.76392 0.0
C2393 C 0.2615 0.50204 0.75738 0.0
C2394 C 0.26921 0.49453 0.75273 0.0
C2395 C 0.26809 0.48292 0.75458 0.0
H2396 H 0.27318 0.55843 0.27604 0.0
N2397 N 0.25427 0.55029 0.26537 0.0
H2398 H 0.28816 0.56988 0.26768 0.0
H2399 H 0.25677 0.55564 0.24374 0.0
H2400 H 0.27183 0.56719 0.23525 0.0
H2401 H 0.23939 0.56627 0.26168 0.0
H2402 H 0.23248 0.57986 0.27507 0.0
H2403 H 0.25713 0.54922 0.2883 0.0
H2404 H 0.24983 0.56239 0.30189 0.0
H2405 H 0.27116 0.53878 0.27625 0.0
H2406 H 0.23958 0.53464 0.25859 0.0
H2407 H 0.27285 0.51853 0.27779 0.0
H2408 H 0.24096 0.51425 0.26048 0.0
H2409 H 0.28339 0.45912 0.27271 0.0
H2410 H 0.29174 0.44556 0.26009 0.0
H2411 H 0.26223 0.44725 0.23867 0.0
H2412 H 0.25371 0.46003 0.25173 0.0
H2413 H 0.23997 0.4662 0.26651 0.0
H2414 H 0.22598 0.45232 0.27281 0.0
H2415 H 0.25095 0.43738 0.29462 0.0
H2416 H 0.26471 0.45158 0.28856 0.0
H2417 H 0.26811 0.48167 0.28745 0.0
H2418 H 0.26576 0.50201 0.2866 0.0
H2419 H 0.25102 0.49884 0.25345 0.0
N2420 N 0.26241 0.46654 0.27211 0.0
H2421 H 0.253 0.47862 0.25457 0.0
C2422 C 0.26388 0.55603 0.26046 0.0
C2423 C 0.27292 0.56006 0.26709 0.0
C2424 C 0.2815 0.56665 0.26229 0.0
C2425 C 0.2812 0.56946 0.25079 0.0
C2426 C 0.27226 0.56526 0.24414 0.0
C2427 C 0.26372 0.55859 0.24895 0.0
C2428 C 0.24874 0.5567 0.27392 0.0
C2429 C 0.24149 0.56526 0.27049 0.0
C2430 C 0.23753 0.57301 0.2782 0.0
C2431 C 0.24065 0.57235 0.28962 0.0
C2432 C 0.24742 0.56335 0.29315 0.0
C2433 C 0.25151 0.55568 0.28538 0.0
C2434 C 0.25524 0.53831 0.26717 0.0
C2435 C 0.26452 0.53355 0.27276 0.0
C2436 C 0.26544 0.52188 0.27373 0.0
C2437 C 0.25708 0.51465 0.26921 0.0
C2438 C 0.24769 0.51948 0.26387 0.0
C2439 C 0.24682 0.53115 0.26286 0.0
C2440 C 0.26802 0.4608 0.26315 0.0
C2441 C 0.27889 0.45678 0.26512 0.0
C2442 C 0.28364 0.449 0.25786 0.0
C2443 C 0.27763 0.44513 0.24837 0.0
C2444 C 0.26704 0.4498 0.24601 0.0
C2445 C 0.26222 0.45739 0.25338 0.0
C2446 C 0.25342 0.45996 0.27712 0.0
C2447 C 0.24234 0.46015 0.27288 0.0
C2448 C 0.23438 0.45209 0.2764 0.0
C2449 C 0.23734 0.44358 0.28413 0.0
C2450 C 0.24827 0.44382 0.28877 0.0
C2451 C 0.25618 0.45194 0.28532 0.0
C2452 C 0.26088 0.47853 0.27109 0.0
C2453 C 0.26437 0.48539 0.28001 0.0
C2454 C 0.26307 0.49704 0.27947 0.0
C2455 C 0.25824 0.50216 0.26992 0.0
C2456 C 0.25465 0.49524 0.261 0.0
C2457 C 0.25589 0.48357 0.26159 0.0
H2458 H 0.78463 0.45644 0.26128 0.0
N2459 N 0.76749 0.46932 0.2688 0.0
H2460 H 0.79478 0.44254 0.27234 0.0
H2461 H 0.76826 0.46786 0.29112 0.0
H2462 H 0.77903 0.45463 0.30247 0.0
H2463 H 0.74793 0.4588 0.27258 0.0
H2464 H 0.73757 0.4462 0.25988 0.0
H2465 H 0.77244 0.46556 0.2468 0.0
H2466 H 0.76233 0.45284 0.23412 0.0
H2467 H 0.78306 0.47999 0.25554 0.0
H2468 H 0.75615 0.48541 0.27876 0.0
H2469 H 0.78506 0.50025 0.25246 0.0
H2470 H 0.7585 0.50567 0.27643 0.0
H2471 H 0.79227 0.56867 0.25482 0.0
H2472 H 0.79784 0.58247 0.26891 0.0
H2473 H 0.77619 0.56566 0.29306 0.0
H2474 H 0.77027 0.55227 0.27867 0.0
H2475 H 0.75656 0.56116 0.26388 0.0
H2476 H 0.74367 0.57288 0.25307 0.0
H2477 H 0.76453 0.56925 0.22376 0.0
H2478 H 0.77726 0.55734 0.23464 0.0
H2479 H 0.7927 0.53759 0.25628 0.0
H2480 H 0.7911 0.51738 0.25967 0.0
H2481 H 0.75524 0.52065 0.26454 0.0
N2482 N 0.77651 0.55271 0.25653 0.0
H2483 H 0.75709 0.54079 0.26186 0.0
C2484 C 0.77548 0.46303 0.27536 0.0
C2485 C 0.78345 0.45616 0.27027 0.0
C2486 C 0.78933 0.44823 0.27667 0.0
C2487 C 0.78756 0.44718 0.28834 0.0
C2488 C 0.78034 0.45484 0.29349 0.0
C2489 C 0.77429 0.46256 0.28704 0.0
C2490 C 0.76089 0.46317 0.26064 0.0
C2491 C 0.75097 0.45768 0.26411 0.0
C2492 C 0.74515 0.45039 0.25688 0.0
C2493 C 0.74917 0.44841 0.24599 0.0
C2494 C 0.75893 0.45424 0.2424 0.0
C2495 C 0.76474 0.46154 0.24965 0.0
C2496 C 0.7693 0.48122 0.26723 0.0
C2497 C 0.77759 0.48557 0.25999 0.0
C2498 C 0.77881 0.49721 0.25837 0.0
C2499 C 0.77189 0.50476 0.26412 0.0
C2500 C 0.76381 0.50025 0.27159 0.0
C2501 C 0.7625 0.48865 0.27305 0.0
C2502 C 0.78092 0.55942 0.26566 0.0
C2503 C 0.78891 0.56787 0.26323 0.0
C2504 C 0.7921 0.57573 0.27134 0.0
C2505 C 0.78744 0.57528 0.28218 0.0
C2506 C 0.77981 0.56644 0.28476 0.0
C2507 C 0.77651 0.55865 0.27658 0.0
C2508 C 0.76789 0.55828 0.25002 0.0
C2509 C 0.75825 0.56269 0.25507 0.0
C2510 C 0.75094 0.56952 0.2489 0.0
C2511 C 0.75309 0.57211 0.23755 0.0
C2512 C 0.76252 0.56735 0.23244 0.0
C2513 C 0.76982 0.56053 0.23862 0.0
C2514 C 0.77507 0.54079 0.25868 0.0
C2515 C 0.78452 0.53391 0.25814 0.0
C2516 C 0.78354 0.52231 0.25998 0.0
C2517 C 0.77301 0.51722 0.26232 0.0
C2518 C 0.76354 0.52417 0.26294 0.0
C2519 C 0.76457 0.5358 0.26126 0.0
H2520 H 0.57462 0.28138 0.75027 0.0
N2521 N 0.55781 0.26658 0.75247 0.0
H2522 H 0.58791 0.28767 0.76473 0.0
H2523 H 0.5558 0.26268 0.77517 0.0
H2524 H 0.56859 0.26938 0.78977 0.0
H2525 H 0.56382 0.2467 0.76219 0.0
H2526 H 0.57627 0.23288 0.75407 0.0
H2527 H 0.56435 0.2656 0.7312 0.0
H2528 H 0.5765 0.25162 0.72281 0.0
H2529 H 0.54441 0.28098 0.74217 0.0
H2530 H 0.54379 0.25174 0.76362 0.0
H2531 H 0.52391 0.28141 0.7423 0.0
H2532 H 0.52326 0.2525 0.76455 0.0
H2533 H 0.45707 0.28439 0.74823 0.0
H2534 H 0.4437 0.29048 0.76232 0.0
H2535 H 0.46122 0.27096 0.78755 0.0
H2536 H 0.4742 0.26452 0.77319 0.0
H2537 H 0.4631 0.25042 0.75944 0.0
H2538 H 0.45141 0.23681 0.74912 0.0
H2539 H 0.45901 0.25424 0.71808 0.0
H2540 H 0.47043 0.26806 0.72851 0.0
H2541 H 0.48791 0.28642 0.75095 0.0
H2542 H 0.50836 0.28574 0.75253 0.0
H2543 H 0.5062 0.24957 0.7554 0.0
N2544 N 0.47318 0.26939 0.75069 0.0
H2545 H 0.48573 0.25047 0.75468 0.0
C2546 C 0.56416 0.27162 0.76157 0.0
C2547 C 0.57316 0.27892 0.75893 0.0
C2548 C 0.58074 0.28253 0.76725 0.0
C2549 C 0.57943 0.27899 0.77848 0.0
C2550 C 0.57005 0.27211 0.7812 0.0
C2551 C 0.56257 0.26837 0.77283 0.0
C2552 C 0.56317 0.25721 0.74727 0.0
C2553 C 0.56635 0.2477 0.75351 0.0
C2554 C 0.57349 0.23978 0.74884 0.0
C2555 C 0.57755 0.24118 0.73781 0.0
C2556 C 0.57377 0.25038 0.7314 0.0
C2557 C 0.56669 0.2583 0.73611 0.0
C2558 C 0.54566 0.26648 0.75299 0.0
C2559 C 0.53981 0.27475 0.74706 0.0
C2560 C 0.52805 0.27502 0.74727 0.0
C2561 C 0.52176 0.2671 0.7536 0.0
C2562 C 0.5277 0.25872 0.75951 0.0
C2563 C 0.53951 0.25834 0.75911 0.0
C2564 C 0.46664 0.27407 0.75965 0.0
C2565 C 0.45811 0.2816 0.75686 0.0
C2566 C 0.4505 0.2851 0.76496 0.0
C2567 C 0.45128 0.2812 0.77613 0.0
C2568 C 0.46019 0.274 0.77901 0.0
C2569 C 0.46773 0.2704 0.77084 0.0
C2570 C 0.46754 0.26037 0.74472 0.0
C2571 C 0.46231 0.2513 0.75042 0.0
C2572 C 0.45561 0.24354 0.74452 0.0
C2573 C 0.45424 0.24453 0.73282 0.0
C2574 C 0.45995 0.25325 0.72709 0.0
C2575 C 0.46647 0.26113 0.73301 0.0
C2576 C 0.48522 0.26855 0.75251 0.0
C2577 C 0.49187 0.27837 0.75207 0.0
C2578 C 0.50361 0.27792 0.75283 0.0
C2579 C 0.50912 0.26756 0.75383 0.0
C2580 C 0.50239 0.25772 0.75468 0.0
C2581 C 0.49059 0.25821 0.75416 0.0
H2582 H 0.4549 0.73633 0.74854 0.0
N2583 N 0.47048 0.75218 0.75167 0.0
H2584 H 0.44208 0.72817 0.76239 0.0
H2585 H 0.47153 0.75566 0.77433 0.0
H2586 H 0.45912 0.74713 0.78849 0.0
H2587 H 0.46359 0.77155 0.76138 0.0
H2588 H 0.4509 0.78527 0.75296 0.0
H2589 H 0.46391 0.75333 0.73031 0.0
H2590 H 0.4513 0.76709 0.72173 0.0
H2591 H 0.48446 0.7361 0.74608 0.0
H2592 H 0.48388 0.76931 0.75996 0.0
H2593 H 0.50498 0.73625 0.74729 0.0
H2594 H 0.50448 0.76983 0.7607 0.0
H2595 H 0.5645 0.7326 0.75349 0.0
H2596 H 0.57817 0.72488 0.76675 0.0
H2597 H 0.57308 0.75305 0.78869 0.0
H2598 H 0.55999 0.76095 0.77505 0.0
H2599 H 0.55676 0.77483 0.75963 0.0
H2600 H 0.57017 0.78859 0.75176 0.0
H2601 H 0.5818 0.76357 0.72867 0.0
H2602 H 0.56817 0.75009 0.7364 0.0
H2603 H 0.54135 0.74373 0.73905 0.0
H2604 H 0.52081 0.74407 0.73854 0.0
H2605 H 0.52105 0.76296 0.7694 0.0
N2606 N 0.55519 0.75266 0.75418 0.0
H2607 H 0.54163 0.76302 0.76945 0.0
C2608 C 0.4642 0.7465 0.7604 0.0
C2609 C 0.45595 0.73857 0.75729 0.0
C2610 C 0.44866 0.73388 0.76527 0.0
C2611 C 0.44952 0.73694 0.77665 0.0
C2612 C 0.45807 0.74467 0.77981 0.0
C2613 C 0.46528 0.74948 0.77175 0.0
C2614 C 0.46476 0.76144 0.74641 0.0
C2615 C 0.46119 0.77068 0.75264 0.0
C2616 C 0.4539 0.77851 0.74781 0.0
C2617 C 0.44998 0.77722 0.73669 0.0
C2618 C 0.454 0.76824 0.73036 0.0
C2619 C 0.46131 0.76045 0.73518 0.0
C2620 C 0.48261 0.7527 0.75276 0.0
C2621 C 0.4888 0.74347 0.74931 0.0
C2622 C 0.50056 0.74364 0.74993 0.0
C2623 C 0.50651 0.75314 0.75393 0.0
C2624 C 0.50025 0.76234 0.75763 0.0
C2625 C 0.48842 0.7621 0.75712 0.0
C2626 C 0.56109 0.74725 0.7633 0.0
C2627 C 0.56613 0.73692 0.76132 0.0
C2628 C 0.57396 0.73253 0.76894 0.0
C2629 C 0.57688 0.73837 0.77881 0.0
C2630 C 0.57125 0.7484 0.7811 0.0
C2631 C 0.56354 0.75286 0.77338 0.0
C2632 C 0.56146 0.76145 0.74853 0.0
C2633 C 0.56201 0.77243 0.75269 0.0
C2634 C 0.56978 0.78025 0.74825 0.0
C2635 C 0.57717 0.7772 0.73962 0.0
C2636 C 0.57618 0.76632 0.73517 0.0
C2637 C 0.5684 0.75857 0.73958 0.0
C2638 C 0.54306 0.75318 0.75432 0.0
C2639 C 0.53695 0.74795 0.74568 0.0
C2640 C 0.52517 0.74809 0.74548 0.0
C2641 C 0.51915 0.7534 0.75403 0.0
C2642 C 0.52533 0.75883 0.76263 0.0
C2643 C 0.53717 0.75877 0.76275 0.0
H2644 H 0.56229 0.76691 0.26033 0.0
N2645 N 0.55683 0.7466 0.26985 0.0
H2646 H 0.57573 0.78071 0.26774 0.0
H2647 H 0.56597 0.74681 0.29031 0.0
H2648 H 0.5799 0.76024 0.29762 0.0
H2649 H 0.57249 0.7311 0.27202 0.0
H2650 H 0.58573 0.72507 0.25782 0.0
H2651 H 0.55534 0.75131 0.24735 0.0
H2652 H 0.56821 0.74492 0.23286 0.0
H2653 H 0.54342 0.76553 0.2685 0.0
H2654 H 0.54245 0.72932 0.26841 0.0
H2655 H 0.52304 0.76579 0.26816 0.0
H2656 H 0.52193 0.72955 0.26749 0.0
H2657 H 0.46563 0.76739 0.2606 0.0
H2658 H 0.4537 0.78155 0.26888 0.0
H2659 H 0.45466 0.76364 0.3006 0.0
H2660 H 0.46635 0.74934 0.29208 0.0
H2661 H 0.45511 0.73327 0.27335 0.0
H2662 H 0.4415 0.72688 0.25924 0.0
H2663 H 0.46061 0.74443 0.23354 0.0
H2664 H 0.47375 0.75125 0.24781 0.0
H2665 H 0.48557 0.76314 0.2595 0.0
H2666 H 0.5061 0.76285 0.25813 0.0
H2667 H 0.5065 0.7329 0.27889 0.0
N2668 N 0.47208 0.74778 0.27061 0.0
H2669 H 0.48597 0.73302 0.27968 0.0
C2670 C 0.563 0.75587 0.27485 0.0
C2671 C 0.56582 0.76559 0.26863 0.0
C2672 C 0.57366 0.7734 0.27283 0.0
C2673 C 0.57908 0.77156 0.28324 0.0
C2674 C 0.57585 0.76207 0.28965 0.0
C2675 C 0.56787 0.75435 0.2855 0.0
C2676 C 0.56293 0.74161 0.26076 0.0
C2677 C 0.57139 0.73394 0.26342 0.0
C2678 C 0.57894 0.73048 0.25525 0.0
C2679 C 0.57817 0.73456 0.24414 0.0
C2680 C 0.56925 0.74178 0.24135 0.0
C2681 C 0.56177 0.74534 0.2496 0.0
C2682 C 0.54468 0.74732 0.26853 0.0
C2683 C 0.53894 0.75758 0.26821 0.0
C2684 C 0.52712 0.75775 0.26795 0.0
C2685 C 0.5207 0.7477 0.26789 0.0
C2686 C 0.52649 0.73749 0.2678 0.0
C2687 C 0.53827 0.73732 0.2682 0.0
C2688 C 0.46689 0.75729 0.27575 0.0
C2689 C 0.46349 0.76665 0.26939 0.0
C2690 C 0.45664 0.77476 0.27417 0.0
C2691 C 0.45307 0.7737 0.2854 0.0
C2692 C 0.45703 0.76463 0.29187 0.0
C2693 C 0.46384 0.75652 0.28708 0.0
C2694 C 0.46549 0.74268 0.26171 0.0
C2695 C 0.45645 0.73555 0.26463 0.0
C2696 C 0.44869 0.73187 0.25651 0.0
C2697 C 0.44985 0.73518 0.24519 0.0
C2698 C 0.45927 0.74189 0.24219 0.0
C2699 C 0.46694 0.7457 0.25036 0.0
C2700 C 0.4842 0.748 0.26963 0.0
C2701 C 0.49007 0.75646 0.26365 0.0
C2702 C 0.50187 0.75633 0.26297 0.0
C2703 C 0.50808 0.74781 0.26835 0.0
C2704 C 0.5021 0.73945 0.27439 0.0
C2705 C 0.49034 0.73954 0.27496 0.0
H2706 H 0.56499 0.2694 0.27919 0.0
N2707 N 0.55545 0.25985 0.26048 0.0
H2708 H 0.57766 0.26032 0.29249 0.0
H2709 H 0.5598 0.23809 0.26197 0.0
H2710 H 0.5723 0.22879 0.27546 0.0
H2711 H 0.56847 0.25542 0.24313 0.0
H2712 H 0.58283 0.26766 0.23466 0.0
H2713 H 0.55807 0.28249 0.26421 0.0
H2714 H 0.57216 0.29487 0.25561 0.0
H2715 H 0.54559 0.27293 0.27647 0.0
H2716 H 0.53857 0.25143 0.2483 0.0
H2717 H 0.52551 0.27595 0.27882 0.0
H2718 H 0.51836 0.25392 0.2509 0.0
H2719 H 0.46104 0.27644 0.29056 0.0
H2720 H 0.44927 0.26375 0.3019 0.0
H2721 H 0.45904 0.23597 0.28126 0.0
H2722 H 0.47085 0.2488 0.26996 0.0
H2723 H 0.46448 0.25968 0.25416 0.0
H2724 H 0.44921 0.26517 0.24158 0.0
H2725 H 0.44799 0.2974 0.2578 0.0
H2726 H 0.46352 0.29188 0.27022 0.0
H2727 H 0.4887 0.27019 0.28765 0.0
H2728 H 0.50876 0.26731 0.28495 0.0
H2729 H 0.50336 0.26641 0.24903 0.0
N2730 N 0.47245 0.27162 0.27218 0.0
H2731 H 0.48336 0.2688 0.25176 0.0
C2732 C 0.5614 0.25439 0.26956 0.0
C2733 C 0.56632 0.26049 0.27844 0.0
C2734 C 0.5736 0.25526 0.28608 0.0
C2735 C 0.57611 0.24382 0.28501 0.0
C2736 C 0.57074 0.23765 0.27642 0.0
C2737 C 0.56348 0.2429 0.26878 0.0
C2738 C 0.56215 0.26797 0.25427 0.0
C2739 C 0.56906 0.26411 0.24568 0.0
C2740 C 0.57727 0.27114 0.24084 0.0
C2741 C 0.57876 0.28226 0.24451 0.0
C2742 C 0.5714 0.28631 0.25271 0.0
C2743 C 0.56321 0.27923 0.25758 0.0
C2744 C 0.54363 0.26201 0.26209 0.0
C2745 C 0.53975 0.26886 0.27075 0.0
C2746 C 0.52818 0.27047 0.27217 0.0
C2747 C 0.52019 0.26516 0.26507 0.0
C2748 C 0.52417 0.25832 0.25643 0.0
C2749 C 0.53574 0.25682 0.25496 0.0
C2750 C 0.4668 0.26359 0.27945 0.0
C2751 C 0.46079 0.26758 0.28863 0.0
C2752 C 0.45408 0.2603 0.29509 0.0
C2753 C 0.45318 0.24884 0.29247 0.0
C2754 C 0.45944 0.24478 0.28341 0.0
C2755 C 0.46624 0.25208 0.27699 0.0
C2756 C 0.46521 0.27542 0.26314 0.0
C2757 C 0.46114 0.26803 0.25484 0.0
C2758 C 0.45231 0.27116 0.2477 0.0
C2759 C 0.44722 0.28167 0.24879 0.0
C2760 C 0.45174 0.28928 0.25666 0.0
C2761 C 0.46063 0.28615 0.26376 0.0
C2762 C 0.48428 0.26954 0.27002 0.0
C2763 C 0.49181 0.26923 0.27919 0.0
C2764 C 0.50335 0.26772 0.27761 0.0
C2765 C 0.5078 0.26664 0.26675 0.0
C2766 C 0.50028 0.267 0.25754 0.0
C2767 C 0.48869 0.2684 0.25913 0.0
H2768 H 0.2285 0.19676 0.12174 0.0
H2769 H 0.21105 0.224 0.13772 0.0
H2770 H 0.21723 0.23687 0.12257 0.0
H2771 H 0.25256 0.213 0.11323 0.0
H2772 H 0.25419 0.20584 0.10007 0.0
H2773 H 0.2479 0.1986 0.11185 0.0
H2774 H 0.23021 0.19397 0.09977 0.0
H2775 H 0.23644 0.20122 0.08795 0.0
H2776 H 0.22278 0.20519 0.09289 0.0
H2777 H 0.22599 0.24703 0.10616 0.0
H2778 H 0.23687 0.25379 0.08985 0.0
H2779 H 0.24854 0.21996 0.0843 0.0
C2780 C 0.22599 0.20543 0.12208 0.0
C2781 C 0.21921 0.20932 0.13094 0.0
C2782 C 0.21605 0.22073 0.13096 0.0
C2783 C 0.21957 0.22814 0.12241 0.0
C2784 C 0.22625 0.22404 0.11384 0.0
C2785 C 0.22943 0.21296 0.1136 0.0
C2786 C 0.23688 0.21076 0.10359 0.0
C2787 C 0.24858 0.20682 0.10742 0.0
C2788 C 0.23124 0.20228 0.09558 0.0
C2789 C 0.23752 0.22239 0.09832 0.0
C2790 C 0.23128 0.2299 0.10435 0.0
C2791 C 0.23081 0.24119 0.10131 0.0
C2792 C 0.23697 0.24494 0.09194 0.0
C2793 C 0.24353 0.23743 0.08565 0.0
C2794 C 0.24368 0.22597 0.0889 0.0
H2795 H 0.8046 0.21752 0.13154 0.0
H2796 H 0.81964 0.18995 0.1138 0.0
H2797 H 0.81239 0.1975 0.09583 0.0
H2798 H 0.77947 0.21852 0.11548 0.0
H2799 H 0.77853 0.23359 0.11556 0.0
H2800 H 0.78553 0.22644 0.12693 0.0
H2801 H 0.80353 0.23854 0.12353 0.0
H2802 H 0.79658 0.24574 0.11213 0.0
H2803 H 0.80978 0.23892 0.10977 0.0
H2804 H 0.80213 0.2071 0.08002 0.0
H2805 H 0.79026 0.21861 0.06739 0.0
H2806 H 0.78238 0.24028 0.09521 0.0
C2807 C 0.80643 0.21312 0.12386 0.0
C2808 C 0.81274 0.20316 0.12408 0.0
C2809 C 0.81498 0.19767 0.11384 0.0
C2810 C 0.81085 0.20187 0.10359 0.0
C2811 C 0.80458 0.21164 0.10369 0.0
C2812 C 0.80245 0.21725 0.11354 0.0
C2813 C 0.79524 0.22743 0.11135 0.0
C2814 C 0.78403 0.22643 0.11771 0.0
C2815 C 0.80167 0.2383 0.11438 0.0
C2816 C 0.79345 0.22652 0.09876 0.0
C2817 C 0.79891 0.21735 0.09451 0.0
C2818 C 0.79795 0.2144 0.08323 0.0
C2819 C 0.79118 0.22094 0.07613 0.0
C2820 C 0.78554 0.23038 0.08031 0.0
C2821 C 0.7868 0.23325 0.09175 0.0
H2822 H 0.81399 0.80572 0.12993 0.0
H2823 H 0.80523 0.83922 0.1187 0.0
H2824 H 0.79748 0.83142 0.10111 0.0
H2825 H 0.82206 0.79532 0.10219 0.0
H2826 H 0.81623 0.78148 0.10476 0.0
H2827 H 0.82161 0.78973 0.1163 0.0
H2828 H 0.80241 0.78759 0.12637 0.0
H2829 H 0.79697 0.77937 0.11486 0.0
H2830 H 0.78974 0.79177 0.11915 0.0
H2831 H 0.78959 0.81999 0.08527 0.0
H2832 H 0.78256 0.80562 0.07198 0.0
H2833 H 0.79684 0.77953 0.09303 0.0
C2834 C 0.81062 0.81144 0.12369 0.0
C2835 C 0.81017 0.8231 0.12577 0.0
C2836 C 0.80552 0.83025 0.11742 0.0
C2837 C 0.80116 0.82591 0.10735 0.0
C2838 C 0.80156 0.81438 0.10565 0.0
C2839 C 0.80623 0.80724 0.11354 0.0
C2840 C 0.80527 0.79513 0.10975 0.0
C2841 C 0.81699 0.79012 0.10816 0.0
C2842 C 0.79817 0.78805 0.11803 0.0
C2843 C 0.79921 0.7966 0.09858 0.0
C2844 C 0.79717 0.80778 0.09638 0.0
C2845 C 0.79124 0.81122 0.08684 0.0
C2846 C 0.78724 0.803 0.07937 0.0
C2847 C 0.78921 0.79149 0.08143 0.0
C2848 C 0.79538 0.78829 0.09113 0.0
H2849 H 0.22499 0.80268 0.12986 0.0
H2850 H 0.2185 0.83413 0.11255 0.0
H2851 H 0.22611 0.82638 0.09509 0.0
H2852 H 0.25092 0.79716 0.11664 0.0
H2853 H 0.24856 0.78222 0.1157 0.0
H2854 H 0.24206 0.78999 0.12673 0.0
H2855 H 0.22243 0.78242 0.12049 0.0
H2856 H 0.22889 0.7746 0.10944 0.0
H2857 H 0.21789 0.78435 0.10613 0.0
H2858 H 0.23534 0.81565 0.07975 0.0
H2859 H 0.24526 0.80247 0.0675 0.0
H2860 H 0.24553 0.77783 0.09455 0.0
C2861 C 0.225 0.80787 0.12235 0.0
C2862 C 0.22118 0.81905 0.12261 0.0
C2863 C 0.22151 0.82561 0.11262 0.0
C2864 C 0.22576 0.82126 0.10263 0.0
C2865 C 0.2296 0.81029 0.1027 0.0
C2866 C 0.22922 0.80365 0.11227 0.0
C2867 C 0.23424 0.79225 0.11014 0.0
C2868 C 0.24456 0.7903 0.11775 0.0
C2869 C 0.22533 0.78285 0.11164 0.0
C2870 C 0.23761 0.79358 0.09793 0.0
C2871 C 0.23484 0.80404 0.0938 0.0
C2872 C 0.23748 0.80739 0.08287 0.0
C2873 C 0.24316 0.79988 0.07599 0.0
C2874 C 0.24613 0.78911 0.08004 0.0
C2875 C 0.24321 0.78593 0.09114 0.0
H2876 H 0.22047 0.79376 0.89347 0.0
H2877 H 0.21704 0.82589 0.90983 0.0
H2878 H 0.22349 0.81753 0.92772 0.0
H2879 H 0.2111 0.77644 0.91727 0.0
H2880 H 0.22105 0.76555 0.9146 0.0
H2881 H 0.21573 0.77394 0.90313 0.0
H2882 H 0.23615 0.77939 0.8975 0.0
H2883 H 0.24153 0.77105 0.90895 0.0
H2884 H 0.24547 0.78568 0.90778 0.0
H2885 H 0.23105 0.80597 0.94365 0.0
H2886 H 0.23893 0.79182 0.95665 0.0
H2887 H 0.2374 0.7671 0.93011 0.0
C2888 C 0.22092 0.79898 0.90085 0.0
C2889 C 0.21829 0.81051 0.90022 0.0
C2890 C 0.21915 0.81709 0.91006 0.0
C2891 C 0.22274 0.8124 0.92028 0.0
C2892 C 0.22542 0.80108 0.92059 0.0
C2893 C 0.22452 0.79443 0.91116 0.0
C2894 C 0.22824 0.78257 0.91373 0.0
C2895 C 0.21845 0.77412 0.91209 0.0
C2896 C 0.23845 0.7795 0.90656 0.0
C2897 C 0.23145 0.78363 0.92604 0.0
C2898 C 0.22974 0.79438 0.92982 0.0
C2899 C 0.23237 0.7975 0.9408 0.0
C2900 C 0.23691 0.78943 0.9481 0.0
C2901 C 0.23877 0.77835 0.94442 0.0
C2902 C 0.23592 0.77545 0.93323 0.0
H2903 H 0.20798 0.22693 0.89662 0.0
H2904 H 0.21807 0.19256 0.90265 0.0
H2905 H 0.22919 0.19871 0.91916 0.0
H2906 H 0.23419 0.24008 0.90449 0.0
H2907 H 0.22771 0.25186 0.9111 0.0
H2908 H 0.22058 0.24475 0.89974 0.0
H2909 H 0.20315 0.24135 0.91238 0.0
H2910 H 0.21023 0.24844 0.92379 0.0
H2911 H 0.20483 0.23434 0.92575 0.0
H2912 H 0.23929 0.20865 0.93505 0.0
H2913 H 0.24764 0.22165 0.94901 0.0
H2914 H 0.23073 0.24945 0.93273 0.0
C2915 C 0.21244 0.22066 0.90146 0.0
C2916 C 0.21214 0.20924 0.89828 0.0
C2917 C 0.21827 0.20137 0.90478 0.0
C2918 C 0.22456 0.20477 0.91423 0.0
C2919 C 0.22463 0.21608 0.91712 0.0
C2920 C 0.21873 0.2239 0.91092 0.0
C2921 C 0.22026 0.23555 0.91577 0.0
C2922 C 0.22603 0.24353 0.90727 0.0
C2923 C 0.20894 0.24019 0.91965 0.0
C2924 C 0.22794 0.23306 0.92567 0.0
C2925 C 0.23037 0.22178 0.9263 0.0
C2926 C 0.23744 0.2175 0.93464 0.0
C2927 C 0.24218 0.22496 0.9425 0.0
C2928 C 0.23984 0.23657 0.942 0.0
C2929 C 0.23256 0.24061 0.93347 0.0
H2930 H 0.80442 0.20893 0.89726 0.0
H2931 H 0.83824 0.2187 0.90787 0.0
H2932 H 0.83051 0.22736 0.92481 0.0
H2933 H 0.79113 0.23409 0.90605 0.0
H2934 H 0.77839 0.22705 0.91062 0.0
H2935 H 0.78662 0.22116 0.89955 0.0
H2936 H 0.78797 0.20251 0.91079 0.0
H2937 H 0.77977 0.20837 0.92192 0.0
H2938 H 0.79344 0.20269 0.92496 0.0
H2939 H 0.81908 0.23555 0.94035 0.0
H2940 H 0.80475 0.24261 0.95334 0.0
H2941 H 0.77834 0.22793 0.93247 0.0
C2942 C 0.81022 0.2129 0.90313 0.0
C2943 C 0.82198 0.21303 0.90122 0.0
C2944 C 0.82923 0.21827 0.9092 0.0
C2945 C 0.82491 0.22328 0.91884 0.0
C2946 C 0.8133 0.22302 0.92043 0.0
C2947 C 0.80605 0.21797 0.9128 0.0
C2948 C 0.79389 0.21906 0.9164 0.0
C2949 C 0.78711 0.22574 0.90763 0.0
C2950 C 0.78845 0.20747 0.91865 0.0
C2951 C 0.79545 0.22559 0.92719 0.0
C2952 C 0.80671 0.22778 0.92937 0.0
C2953 C 0.81024 0.23387 0.93874 0.0
C2954 C 0.80203 0.2379 0.94604 0.0
C2955 C 0.79042 0.23582 0.94396 0.0
C2956 C 0.78715 0.22952 0.93441 0.0
H2957 H 0.80725 0.80408 0.89359 0.0
H2958 H 0.81857 0.83442 0.91046 0.0
H2959 H 0.81107 0.82699 0.92836 0.0
H2960 H 0.78163 0.80064 0.90817 0.0
H2961 H 0.78212 0.78555 0.90904 0.0
H2962 H 0.78901 0.79289 0.89766 0.0
H2963 H 0.80784 0.78345 0.9029 0.0
H2964 H 0.80099 0.77605 0.9143 0.0
H2965 H 0.81331 0.78468 0.91701 0.0
H2966 H 0.80128 0.81691 0.94415 0.0
H2967 H 0.79018 0.80459 0.95687 0.0
H2968 H 0.78551 0.78057 0.93 0.0
C2969 C 0.80834 0.80907 0.90109 0.0
C2970 C 0.81347 0.81986 0.90059 0.0
C2971 C 0.81454 0.82619 0.91058 0.0
C2972 C 0.81037 0.82202 0.92081 0.0
C2973 C 0.8052 0.81145 0.92098 0.0
C2974 C 0.80422 0.80501 0.9114 0.0
C2975 C 0.7979 0.7941 0.91382 0.0
C2976 C 0.78702 0.79325 0.90675 0.0
C2977 C 0.80546 0.78397 0.9119 0.0
C2978 C 0.79534 0.79549 0.9262 0.0
C2979 C 0.79966 0.80555 0.93016 0.0
C2980 C 0.79795 0.80896 0.94118 0.0
C2981 C 0.79159 0.80194 0.94832 0.0
C2982 C 0.78704 0.79161 0.94445 0.0
C2983 C 0.78906 0.78832 0.93326 0.0
H2984 H 0.1343 0.208 0.21413 0.0
H2985 H 0.12154 0.20847 0.17987 0.0
H2986 H 0.10359 0.21597 0.18649 0.0
H2987 H 0.10718 0.19997 0.22745 0.0
H2988 H 0.1098 0.20872 0.23949 0.0
H2989 H 0.12142 0.20263 0.2322 0.0
H2990 H 0.13041 0.2224 0.22939 0.0
H2991 H 0.11882 0.22855 0.23663 0.0
H2992 H 0.12234 0.23324 0.22264 0.0
H2993 H 0.08776 0.22507 0.19643 0.0
H2994 H 0.07473 0.23447 0.20931 0.0
H2995 H 0.09706 0.22735 0.23733 0.0
C2996 C 0.12765 0.20945 0.20806 0.0
C2997 C 0.1294 0.20771 0.19645 0.0
C2998 C 0.1205 0.2099 0.18877 0.0
C2999 C 0.11022 0.21409 0.19246 0.0
C3000 C 0.10886 0.21595 0.2039 0.0
C3001 C 0.11727 0.2136 0.21162 0.0
C3002 C 0.11376 0.21681 0.22339 0.0
C3003 C 0.11299 0.20641 0.23109 0.0
C3004 C 0.12181 0.22578 0.2283 0.0
C3005 C 0.10218 0.22154 0.22102 0.0
C3006 C 0.09953 0.22093 0.20971 0.0
C3007 C 0.08965 0.22542 0.20533 0.0
C3008 C 0.08232 0.23076 0.21268 0.0
C3009 C 0.08484 0.23147 0.22428 0.0
C3010 C 0.09484 0.22668 0.22852 0.0
H3011 H 0.80322 0.12946 0.2174 0.0
H3012 H 0.83378 0.11343 0.20658 0.0
H3013 H 0.82688 0.09541 0.2145 0.0
H3014 H 0.80064 0.11499 0.2435 0.0
H3015 H 0.7855 0.11375 0.24291 0.0
H3016 H 0.79256 0.12526 0.23588 0.0
H3017 H 0.78283 0.11971 0.21713 0.0
H3018 H 0.77573 0.10816 0.22412 0.0
H3019 H 0.78423 0.10564 0.21194 0.0
H3020 H 0.81725 0.07942 0.22467 0.0
H3021 H 0.80518 0.06641 0.23577 0.0
H3022 H 0.78073 0.09267 0.23974 0.0
C3023 C 0.80843 0.12214 0.21666 0.0
C3024 C 0.81903 0.12285 0.21131 0.0
C3025 C 0.82557 0.11307 0.21047 0.0
C3026 C 0.82174 0.1028 0.215 0.0
C3027 C 0.81131 0.10241 0.22028 0.0
C3028 C 0.8047 0.11179 0.22106 0.0
C3029 C 0.7939 0.10913 0.22733 0.0
C3030 C 0.79311 0.1162 0.23804 0.0
C3031 C 0.78356 0.11076 0.21967 0.0
C3032 C 0.79556 0.09684 0.23012 0.0
C3033 C 0.80566 0.09312 0.22597 0.0
C3034 C 0.80927 0.0822 0.22787 0.0
C3035 C 0.8024 0.07489 0.23422 0.0
C3036 C 0.792 0.07851 0.23855 0.0
C3037 C 0.78854 0.08961 0.23637 0.0
H3038 H 0.90607 0.80888 0.19839 0.0
H3039 H 0.8883 0.82674 0.22431 0.0
H3040 H 0.90325 0.82212 0.23792 0.0
H3041 H 0.91522 0.78626 0.21623 0.0
H3042 H 0.92873 0.78503 0.20958 0.0
H3043 H 0.91687 0.79011 0.20164 0.0
H3044 H 0.92823 0.80812 0.19642 0.0
H3045 H 0.94013 0.80311 0.20436 0.0
H3046 H 0.93434 0.81661 0.20743 0.0
H3047 H 0.91965 0.81515 0.24893 0.0
H3048 H 0.9364 0.80608 0.25678 0.0
H3049 H 0.94392 0.79262 0.22391 0.0
C3050 C 0.90529 0.81179 0.20693 0.0
C3051 C 0.896 0.8183 0.2102 0.0
C3052 C 0.8954 0.82198 0.22148 0.0
C3053 C 0.90383 0.81933 0.22932 0.0
C3054 C 0.91285 0.81295 0.22581 0.0
C3055 C 0.91365 0.80921 0.21491 0.0
C3056 C 0.92416 0.80229 0.21344 0.0
C3057 C 0.92106 0.79021 0.21002 0.0
C3058 C 0.93219 0.80787 0.2049 0.0
C3059 C 0.92906 0.80267 0.22525 0.0
C3060 C 0.9224 0.80892 0.23221 0.0
C3061 C 0.925 0.81034 0.24353 0.0
C3062 C 0.93464 0.80521 0.24789 0.0
C3063 C 0.94166 0.79872 0.24098 0.0
C3064 C 0.93878 0.7975 0.22947 0.0
H3065 H 0.22513 0.88985 0.20738 0.0
H3066 H 0.19156 0.89832 0.21837 0.0
H3067 H 0.19914 0.91576 0.22671 0.0
H3068 H 0.23967 0.89985 0.2321 0.0
H3069 H 0.25173 0.90512 0.22446 0.0
H3070 H 0.24361 0.89342 0.21908 0.0
H3071 H 0.2406 0.90419 0.20032 0.0
H3072 H 0.24866 0.91594 0.20567 0.0
H3073 H 0.23453 0.91794 0.20051 0.0
H3074 H 0.2104 0.9322 0.23418 0.0
H3075 H 0.22457 0.94635 0.24025 0.0
H3076 H 0.25087 0.92698 0.22485 0.0
C3077 C 0.21937 0.89533 0.21159 0.0
C3078 C 0.20771 0.8927 0.21212 0.0
C3079 C 0.20048 0.90021 0.21764 0.0
C3080 C 0.20472 0.91012 0.22248 0.0
C3081 C 0.21623 0.91245 0.22177 0.0
C3082 C 0.22346 0.90527 0.21648 0.0
C3083 C 0.2355 0.90969 0.21702 0.0
C3084 C 0.24307 0.90154 0.22356 0.0
C3085 C 0.24009 0.91208 0.20517 0.0
C3086 C 0.2339 0.92047 0.22345 0.0
C3087 C 0.22272 0.9219 0.22611 0.0
C3088 C 0.21919 0.93116 0.23215 0.0
C3089 C 0.22731 0.93913 0.23561 0.0
C3090 C 0.23885 0.93783 0.23303 0.0
C3091 C 0.24211 0.92835 0.22682 0.0
H3092 H 0.13249 0.7878 0.82198 0.0
H3093 H 0.13167 0.82211 0.80945 0.0
H3094 H 0.1145 0.81752 0.79855 0.0
H3095 H 0.12378 0.77492 0.79593 0.0
H3096 H 0.11557 0.76401 0.80274 0.0
H3097 H 0.12763 0.7701 0.80981 0.0
H3098 H 0.11506 0.77506 0.82671 0.0
H3099 H 0.10295 0.76905 0.81965 0.0
H3100 H 0.1027 0.78336 0.8244 0.0
H3101 H 0.09731 0.8092 0.78898 0.0
H3102 H 0.08188 0.7976 0.78096 0.0
H3103 H 0.09453 0.76851 0.79893 0.0
C3104 C 0.12879 0.79435 0.81687 0.0
C3105 C 0.13345 0.80537 0.81669 0.0
C3106 C 0.12819 0.81367 0.80996 0.0
C3107 C 0.11845 0.81113 0.80366 0.0
C3108 C 0.11407 0.80023 0.8041 0.0
C3109 C 0.11911 0.79195 0.81048 0.0
C3110 C 0.11283 0.78084 0.80932 0.0
C3111 C 0.1204 0.77194 0.80414 0.0
C3112 C 0.1081 0.77685 0.8207 0.0
C3113 C 0.10347 0.78416 0.80131 0.0
C3114 C 0.1043 0.79539 0.79843 0.0
C3115 C 0.09661 0.80038 0.79113 0.0
C3116 C 0.0879 0.7937 0.78657 0.0
C3117 C 0.08695 0.78211 0.78926 0.0
C3118 C 0.09486 0.77736 0.7968 0.0
H3119 H 0.21047 0.12139 0.8133 0.0
H3120 H 0.23903 0.12853 0.83524 0.0
H3121 H 0.24876 0.11211 0.82786 0.0
H3122 H 0.21176 0.09076 0.81576 0.0
H3123 H 0.20786 0.08853 0.80127 0.0
H3124 H 0.2029 0.10066 0.80855 0.0
H3125 H 0.21145 0.1136 0.7931 0.0
H3126 H 0.21645 0.10152 0.7858 0.0
H3127 H 0.22619 0.11257 0.78979 0.0
H3128 H 0.25583 0.09552 0.81755 0.0
H3129 H 0.25983 0.07988 0.80494 0.0
H3130 H 0.22639 0.08268 0.79021 0.0
C3131 C 0.21871 0.11942 0.81665 0.0
C3132 C 0.22401 0.12635 0.8248 0.0
C3133 C 0.23486 0.12351 0.82886 0.0
C3134 C 0.24043 0.11413 0.82478 0.0
C3135 C 0.23504 0.10756 0.81669 0.0
C3136 C 0.22441 0.11004 0.81268 0.0
C3137 C 0.22066 0.10173 0.80375 0.0
C3138 C 0.21017 0.09502 0.80756 0.0
C3139 C 0.21857 0.10771 0.79244 0.0
C3140 C 0.23092 0.09433 0.80326 0.0
C3141 C 0.23907 0.09782 0.81084 0.0
C3142 C 0.24945 0.0926 0.81168 0.0
C3143 C 0.2516 0.08362 0.80452 0.0
C3144 C 0.24341 0.07987 0.79659 0.0
C3145 C 0.23288 0.0853 0.7961 0.0
H3146 H 0.90232 0.19585 0.80519 0.0
H3147 H 0.8888 0.22356 0.82397 0.0
H3148 H 0.90457 0.23569 0.81761 0.0
H3149 H 0.93197 0.20261 0.80989 0.0
H3150 H 0.93602 0.19863 0.79593 0.0
H3151 H 0.92405 0.1919 0.80253 0.0
H3152 H 0.91146 0.19747 0.78557 0.0
H3153 H 0.92338 0.2042 0.77893 0.0
H3154 H 0.91077 0.212 0.78135 0.0
H3155 H 0.92125 0.24514 0.80838 0.0
H3156 H 0.93744 0.25122 0.79687 0.0
H3157 H 0.94023 0.21737 0.78412 0.0
C3158 C 0.90265 0.20447 0.80797 0.0
C3159 C 0.89429 0.2087 0.81515 0.0
C3160 C 0.89516 0.22002 0.81866 0.0
C3161 C 0.90407 0.22702 0.81503 0.0
C3162 C 0.91209 0.22259 0.80791 0.0
C3163 C 0.91148 0.21157 0.80443 0.0
C3164 C 0.92099 0.20899 0.79647 0.0
C3165 C 0.92872 0.2 0.80151 0.0
C3166 C 0.91637 0.20546 0.7849 0.0
C3167 C 0.92694 0.22033 0.79588 0.0
C3168 C 0.92172 0.22803 0.8026 0.0
C3169 C 0.92548 0.23914 0.80318 0.0
C3170 C 0.93477 0.2425 0.79666 0.0
C3171 C 0.94023 0.23478 0.78961 0.0
C3172 C 0.93626 0.22351 0.78935 0.0
H3173 H 0.81648 0.8888 0.79779 0.0
H3174 H 0.82187 0.8991 0.83233 0.0
H3175 H 0.81214 0.91682 0.8283 0.0
H3176 H 0.82077 0.91626 0.7851 0.0
H3177 H 0.80996 0.91422 0.77458 0.0
H3178 H 0.81743 0.90235 0.78012 0.0
H3179 H 0.79852 0.8928 0.78577 0.0
H3180 H 0.79098 0.90463 0.78021 0.0
H3181 H 0.7889 0.9002 0.79458 0.0
H3182 H 0.80174 0.93343 0.82057 0.0
H3183 H 0.79109 0.94755 0.80977 0.0
H3184 H 0.79235 0.92647 0.78027 0.0
C3185 C 0.81571 0.89482 0.80448 0.0
C3186 C 0.81993 0.89251 0.8154 0.0
C3187 C 0.81858 0.90058 0.82395 0.0
C3188 C 0.81313 0.91072 0.82172 0.0
C3189 C 0.80906 0.91271 0.81089 0.0
C3190 C 0.81026 0.90499 0.80241 0.0
C3191 C 0.80492 0.90912 0.79156 0.0
C3192 C 0.8138 0.91058 0.78229 0.0
C3193 C 0.79526 0.90122 0.78781 0.0
C3194 C 0.80053 0.92036 0.79527 0.0
C3195 C 0.80303 0.92228 0.80644 0.0
C3196 C 0.79973 0.93202 0.81181 0.0
C3197 C 0.79363 0.93997 0.80561 0.0
C3198 C 0.79085 0.93816 0.79416 0.0
C3199 C 0.79445 0.92822 0.78895 0.0
H3200 H 0.21622 0.1193 0.2039 0.0
H3201 H 0.21179 0.13722 0.23512 0.0
H3202 H 0.22249 0.12275 0.24527 0.0
H3203 H 0.21343 0.09153 0.21563 0.0
H3204 H 0.22405 0.08554 0.20687 0.0
H3205 H 0.21618 0.09739 0.20188 0.0
H3206 H 0.23477 0.10853 0.19842 0.0
H3207 H 0.2427 0.0967 0.20335 0.0
H3208 H 0.24477 0.11022 0.20978 0.0
H3209 H 0.23353 0.10649 0.25213 0.0
H3210 H 0.24461 0.08952 0.25531 0.0
H3211 H 0.24185 0.08161 0.21982 0.0
C3212 C 0.21759 0.12022 0.21285 0.0
C3213 C 0.21307 0.12938 0.21872 0.0
C3214 C 0.21499 0.13021 0.23046 0.0
C3215 C 0.22111 0.12205 0.2363 0.0
C3216 C 0.22531 0.11308 0.23031 0.0
C3217 C 0.22368 0.1121 0.21886 0.0
C3218 C 0.22907 0.10152 0.21452 0.0
C3219 C 0.22015 0.09352 0.20943 0.0
C3220 C 0.23838 0.10442 0.20602 0.0
C3221 C 0.23395 0.09674 0.22534 0.0
C3222 C 0.23166 0.10357 0.23433 0.0
C3223 C 0.23531 0.10102 0.24517 0.0
C3224 C 0.24153 0.09127 0.24691 0.0
C3225 C 0.24403 0.08407 0.23786 0.0
C3226 C 0.24014 0.08691 0.22692 0.0
H3227 H 0.21355 0.88735 0.80022 0.0
H3228 H 0.21593 0.89306 0.83614 0.0
H3229 H 0.22626 0.91085 0.83256 0.0
H3230 H 0.24085 0.89832 0.79324 0.0
H3231 H 0.23633 0.90468 0.7802 0.0
H3232 H 0.22902 0.89244 0.78559 0.0
H3233 H 0.21022 0.90315 0.7849 0.0
H3234 H 0.21749 0.91544 0.77955 0.0
H3235 H 0.20918 0.91633 0.79211 0.0
H3236 H 0.23659 0.9279 0.82512 0.0
H3237 H 0.24644 0.94285 0.81431 0.0
H3238 H 0.23707 0.92627 0.78323 0.0
C3239 C 0.21614 0.89238 0.80734 0.0
C3240 C 0.21394 0.88875 0.81847 0.0
C3241 C 0.21765 0.89555 0.82754 0.0
C3242 C 0.22345 0.90572 0.82559 0.0
C3243 C 0.22547 0.90904 0.81452 0.0
C3244 C 0.22193 0.90258 0.80554 0.0
C3245 C 0.22535 0.90798 0.79447 0.0
C3246 C 0.23336 0.9004 0.788 0.0
C3247 C 0.21494 0.9109 0.78734 0.0
C3248 C 0.23138 0.91847 0.79863 0.0
C3249 C 0.23134 0.91892 0.81023 0.0
C3250 C 0.23665 0.92765 0.81603 0.0
C3251 C 0.24225 0.93608 0.80983 0.0
C3252 C 0.2425 0.93575 0.79793 0.0
C3253 C 0.23687 0.92686 0.7923 0.0
H3254 H 0.13268 0.21392 0.8176 0.0
H3255 H 0.12334 0.18034 0.80668 0.0
H3256 H 0.10596 0.18765 0.79815 0.0
H3257 H 0.10449 0.22305 0.82398 0.0
H3258 H 0.10691 0.23711 0.81875 0.0
H3259 H 0.11845 0.22921 0.82445 0.0
H3260 H 0.12949 0.23221 0.80593 0.0
H3261 H 0.118 0.24014 0.8002 0.0
H3262 H 0.12305 0.22812 0.79279 0.0
H3263 H 0.08988 0.19863 0.79017 0.0
H3264 H 0.07625 0.21258 0.78334 0.0
H3265 H 0.09608 0.23911 0.79907 0.0
C3266 C 0.127 0.20809 0.8134 0.0
C3267 C 0.12939 0.19651 0.81292 0.0
C3268 C 0.12164 0.1892 0.80739 0.0
C3269 C 0.11175 0.19328 0.80244 0.0
C3270 C 0.10968 0.20471 0.80307 0.0
C3271 C 0.11707 0.21203 0.80841 0.0
C3272 C 0.11293 0.22398 0.80766 0.0
C3273 C 0.11055 0.22861 0.81941 0.0
C3274 C 0.12137 0.23156 0.80126 0.0
C3275 C 0.10212 0.22225 0.80098 0.0
C3276 C 0.1004 0.21106 0.79844 0.0
C3277 C 0.09113 0.20741 0.79213 0.0
C3278 C 0.08346 0.2154 0.78824 0.0
C3279 C 0.08507 0.22694 0.79067 0.0
C3280 C 0.09451 0.23034 0.79721 0.0
H3281 H 0.81806 0.12377 0.8118 0.0
H3282 H 0.78803 0.13094 0.83089 0.0
H3283 H 0.77827 0.11472 0.8223 0.0
H3284 H 0.80404 0.1152 0.78665 0.0
H3285 H 0.81365 0.10411 0.7836 0.0
H3286 H 0.81847 0.11615 0.79143 0.0
H3287 H 0.82516 0.10313 0.8076 0.0
H3288 H 0.82038 0.09104 0.7998 0.0
H3289 H 0.81533 0.09326 0.81384 0.0
H3290 H 0.77148 0.09825 0.81121 0.0
H3291 H 0.76805 0.0825 0.79837 0.0
H3292 H 0.80273 0.08517 0.78705 0.0
C3293 C 0.80947 0.12186 0.81427 0.0
C3294 C 0.8038 0.12873 0.82197 0.0
C3295 C 0.79251 0.12597 0.82486 0.0
C3296 C 0.78691 0.11671 0.82009 0.0
C3297 C 0.79271 0.11019 0.81248 0.0
C3298 C 0.80374 0.11259 0.8096 0.0
C3299 C 0.80793 0.1043 0.80105 0.0
C3300 C 0.81122 0.1103 0.79003 0.0
C3301 C 0.81779 0.09753 0.80586 0.0
C3302 C 0.79748 0.09695 0.7995 0.0
C3303 C 0.78882 0.1005 0.80621 0.0
C3304 C 0.77824 0.09529 0.80602 0.0
C3305 C 0.77641 0.08625 0.79874 0.0
C3306 C 0.78513 0.08241 0.79173 0.0
C3307 C 0.79584 0.08786 0.79223 0.0
H3308 H 0.90219 0.81411 0.81393 0.0
H3309 H 0.89025 0.78344 0.83016 0.0
H3310 H 0.90563 0.77304 0.82146 0.0
H3311 H 0.91015 0.80134 0.78778 0.0
H3312 H 0.92248 0.81018 0.78591 0.0
H3313 H 0.91057 0.8153 0.79349 0.0
H3314 H 0.9235 0.81959 0.8106 0.0
H3315 H 0.93544 0.81443 0.80308 0.0
H3316 H 0.93187 0.80856 0.81663 0.0
H3317 H 0.92205 0.76583 0.81086 0.0
H3318 H 0.93825 0.76217 0.79873 0.0
H3319 H 0.94004 0.79752 0.78957 0.0
C3320 C 0.90277 0.8052 0.81559 0.0
C3321 C 0.89504 0.79963 0.82282 0.0
C3322 C 0.89617 0.78795 0.82482 0.0
C3323 C 0.90485 0.78195 0.81987 0.0
C3324 C 0.91239 0.7877 0.81291 0.0
C3325 C 0.91145 0.79905 0.81073 0.0
C3326 C 0.92069 0.80315 0.80288 0.0
C3327 C 0.91567 0.80776 0.79186 0.0
C3328 C 0.92833 0.81196 0.80864 0.0
C3329 C 0.92691 0.79232 0.80096 0.0
C3330 C 0.92197 0.78353 0.80685 0.0
C3331 C 0.92605 0.77267 0.80628 0.0
C3332 C 0.93536 0.7707 0.79942 0.0
C3333 C 0.94057 0.77955 0.79321 0.0
C3334 C 0.93627 0.79053 0.79411 0.0
H3335 H 0.81363 0.90172 0.20707 0.0
H3336 H 0.81378 0.87954 0.23618 0.0
H3337 H 0.80272 0.89317 0.2467 0.0
H3338 H 0.81658 0.9274 0.22218 0.0
H3339 H 0.80728 0.93525 0.21316 0.0
H3340 H 0.8149 0.92361 0.20762 0.0
H3341 H 0.79617 0.91435 0.20092 0.0
H3342 H 0.78849 0.92598 0.20639 0.0
H3343 H 0.785 0.91187 0.21087 0.0
H3344 H 0.79213 0.90913 0.25428 0.0
H3345 H 0.78216 0.92648 0.25848 0.0
H3346 H 0.78874 0.93882 0.22466 0.0
C3347 C 0.81121 0.89969 0.21561 0.0
C3348 C 0.81466 0.88958 0.22083 0.0
C3349 C 0.8114 0.88729 0.23206 0.0
C3350 C 0.80507 0.89496 0.23809 0.0
C3351 C 0.80198 0.9049 0.2328 0.0
C3352 C 0.80488 0.90731 0.2218 0.0
C3353 C 0.8006 0.91875 0.21824 0.0
C3354 C 0.81042 0.92672 0.21512 0.0
C3355 C 0.79205 0.91767 0.20853 0.0
C3356 C 0.79493 0.9224 0.22899 0.0
C3357 C 0.79584 0.91424 0.23724 0.0
C3358 C 0.79139 0.91561 0.24791 0.0
C3359 C 0.78583 0.92557 0.25024 0.0
C3360 C 0.78477 0.93414 0.24197 0.0
C3361 C 0.78937 0.93245 0.23117 0.0
H3362 H 0.12929 0.81401 0.2053 0.0
H3363 H 0.14427 0.78209 0.19742 0.0
H3364 H 0.12869 0.77215 0.20702 0.0
H3365 H 0.11952 0.80597 0.23304 0.0
H3366 H 0.10665 0.8137 0.2319 0.0
H3367 H 0.11896 0.8184 0.22433 0.0
H3368 H 0.10754 0.81788 0.20571 0.0
H3369 H 0.09521 0.81314 0.21322 0.0
H3370 H 0.10036 0.80508 0.20164 0.0
H3371 H 0.11171 0.76558 0.21753 0.0
H3372 H 0.09458 0.76275 0.22874 0.0
H3373 H 0.09011 0.79883 0.22977 0.0
C3374 C 0.12933 0.80494 0.20567 0.0
C3375 C 0.13799 0.79884 0.20049 0.0
C3376 C 0.13766 0.78696 0.20112 0.0
C3377 C 0.12886 0.78122 0.20661 0.0
C3378 C 0.12041 0.78746 0.21148 0.0
C3379 C 0.12056 0.79905 0.21112 0.0
C3380 C 0.11041 0.80367 0.21711 0.0
C3381 C 0.11411 0.81086 0.22719 0.0
C3382 C 0.10294 0.81034 0.20893 0.0
C3383 C 0.10458 0.79287 0.22091 0.0
C3384 C 0.11051 0.78364 0.21754 0.0
C3385 C 0.10694 0.77275 0.22014 0.0
C3386 C 0.0971 0.77123 0.22644 0.0
C3387 C 0.09083 0.78054 0.23007 0.0
C3388 C 0.09467 0.79151 0.22718 0.0
H3389 H 0.90416 0.21531 0.20045 0.0
H3390 H 0.88541 0.19838 0.22702 0.0
H3391 H 0.90065 0.20295 0.24046 0.0
H3392 H 0.93192 0.20708 0.20968 0.0
H3393 H 0.93849 0.22036 0.20608 0.0
H3394 H 0.92627 0.21548 0.19837 0.0
H3395 H 0.91601 0.23387 0.20294 0.0
H3396 H 0.9282 0.23881 0.21064 0.0
H3397 H 0.91466 0.23806 0.21738 0.0
H3398 H 0.91753 0.20974 0.25116 0.0
H3399 H 0.93491 0.2185 0.25856 0.0
H3400 H 0.94299 0.23111 0.22517 0.0
C3401 C 0.90323 0.2126 0.2091 0.0
C3402 C 0.89358 0.20639 0.21263 0.0
C3403 C 0.89278 0.20294 0.22403 0.0
C3404 C 0.90137 0.20556 0.23176 0.0
C3405 C 0.91074 0.21165 0.228 0.0
C3406 C 0.91174 0.21515 0.21695 0.0
C3407 C 0.92262 0.22177 0.21517 0.0
C3408 C 0.93028 0.21581 0.20683 0.0
C3409 C 0.92022 0.23384 0.21131 0.0
C3410 C 0.92754 0.2215 0.22697 0.0
C3411 C 0.92055 0.21558 0.2342 0.0
C3412 C 0.92313 0.21431 0.24556 0.0
C3413 C 0.93311 0.21925 0.24966 0.0
C3414 C 0.94046 0.2254 0.24245 0.0
C3415 C 0.93758 0.2265 0.23093 0.0
H3416 H 0.21639 0.713 0.63097 0.0
H3417 H 0.20787 0.68152 0.61467 0.0
H3418 H 0.21522 0.68906 0.59676 0.0
H3419 H 0.20943 0.73128 0.6069 0.0
H3420 H 0.22099 0.74089 0.60966 0.0
H3421 H 0.21445 0.73327 0.62109 0.0
H3422 H 0.23385 0.72545 0.62701 0.0
H3423 H 0.24043 0.73302 0.6156 0.0
H3424 H 0.24207 0.71806 0.61687 0.0
H3425 H 0.22456 0.6995 0.5809 0.0
H3426 H 0.23501 0.71231 0.56812 0.0
H3427 H 0.23722 0.73719 0.59445 0.0
C3428 C 0.21588 0.70777 0.62359 0.0
C3429 C 0.21158 0.69663 0.62427 0.0
C3430 C 0.21126 0.69001 0.61442 0.0
C3431 C 0.21535 0.69424 0.60418 0.0
C3432 C 0.21969 0.70517 0.60385 0.0
C3433 C 0.21994 0.71187 0.61326 0.0
C3434 C 0.22547 0.72317 0.61069 0.0
C3435 C 0.21708 0.73272 0.61217 0.0
C3436 C 0.23608 0.72503 0.61797 0.0
C3437 C 0.22844 0.72169 0.59842 0.0
C3438 C 0.22499 0.71125 0.59463 0.0
C3439 C 0.22722 0.70774 0.58374 0.0
C3440 C 0.2332 0.71504 0.57656 0.0
C3441 C 0.23688 0.72576 0.58026 0.0
C3442 C 0.23434 0.72913 0.59131 0.0
H3443 H 0.79733 0.70804 0.63426 0.0
H3444 H 0.83115 0.70289 0.62197 0.0
H3445 H 0.82606 0.71211 0.60402 0.0
H3446 H 0.7829 0.70263 0.60829 0.0
H3447 H 0.77251 0.71326 0.61031 0.0
H3448 H 0.7789 0.70651 0.6223 0.0
H3449 H 0.78522 0.72589 0.63005 0.0
H3450 H 0.77882 0.7327 0.6181 0.0
H3451 H 0.79349 0.73527 0.62132 0.0
H3452 H 0.81707 0.72144 0.58714 0.0
H3453 H 0.80502 0.73052 0.57285 0.0
H3454 H 0.77719 0.72985 0.59633 0.0
C3455 C 0.80366 0.70881 0.62778 0.0
C3456 C 0.81466 0.70475 0.62955 0.0
C3457 C 0.82272 0.70606 0.62088 0.0
C3458 C 0.81989 0.71123 0.61063 0.0
C3459 C 0.80896 0.71508 0.60915 0.0
C3460 C 0.80099 0.71399 0.61751 0.0
C3461 C 0.78985 0.71886 0.6138 0.0
C3462 C 0.78049 0.70977 0.61367 0.0
C3463 C 0.78666 0.72877 0.62126 0.0
C3464 C 0.79276 0.72276 0.60201 0.0
C3465 C 0.80383 0.72052 0.59949 0.0
C3466 C 0.80841 0.72329 0.58905 0.0
C3467 C 0.8015 0.72851 0.581 0.0
C3468 C 0.79012 0.73092 0.58341 0.0
C3469 C 0.78578 0.72799 0.59411 0.0
H3470 H 0.82041 0.31125 0.62661 0.0
H3471 H 0.79218 0.33142 0.63672 0.0
H3472 H 0.78083 0.3238 0.62108 0.0
H3473 H 0.8159 0.31416 0.5967 0.0
H3474 H 0.8197 0.29997 0.59353 0.0
H3475 H 0.82575 0.30686 0.60561 0.0
H3476 H 0.81857 0.29063 0.61843 0.0
H3477 H 0.81253 0.28367 0.60638 0.0
H3478 H 0.80382 0.28679 0.61825 0.0
H3479 H 0.77239 0.31404 0.60473 0.0
H3480 H 0.76716 0.3026 0.58843 0.0
H3481 H 0.80086 0.2889 0.58802 0.0
C3482 C 0.81182 0.314 0.62555 0.0
C3483 C 0.80723 0.32203 0.63285 0.0
C3484 C 0.79596 0.32544 0.63114 0.0
C3485 C 0.78942 0.32112 0.62231 0.0
C3486 C 0.79421 0.31335 0.6152 0.0
C3487 C 0.80514 0.30979 0.61668 0.0
C3488 C 0.80817 0.30138 0.6077 0.0
C3489 C 0.81796 0.30586 0.60046 0.0
C3490 C 0.81093 0.28994 0.61301 0.0
C3491 C 0.79723 0.30081 0.601 0.0
C3492 C 0.78933 0.30778 0.60553 0.0
C3493 C 0.77854 0.30862 0.60102 0.0
C3494 C 0.7757 0.30215 0.59164 0.0
C3495 C 0.78362 0.29493 0.5867 0.0
C3496 C 0.79456 0.2943 0.59152 0.0
H3497 H 0.23026 0.30544 0.63196 0.0
H3498 H 0.19486 0.30364 0.62268 0.0
H3499 H 0.19971 0.29341 0.60545 0.0
H3500 H 0.24074 0.31053 0.60441 0.0
H3501 H 0.25312 0.30219 0.60639 0.0
H3502 H 0.24679 0.30884 0.61825 0.0
H3503 H 0.24497 0.28959 0.62843 0.0
H3504 H 0.25134 0.28289 0.61662 0.0
H3505 H 0.23774 0.27812 0.62154 0.0
H3506 H 0.20863 0.28396 0.58874 0.0
H3507 H 0.22082 0.27596 0.57419 0.0
H3508 H 0.25028 0.28403 0.59456 0.0
C3509 C 0.22351 0.30293 0.62631 0.0
C3510 C 0.21216 0.30536 0.62872 0.0
C3511 C 0.2036 0.30176 0.62113 0.0
C3512 C 0.20628 0.296 0.61128 0.0
C3513 C 0.21756 0.29386 0.60912 0.0
C3514 C 0.22603 0.29718 0.61646 0.0
C3515 C 0.2375 0.29403 0.61214 0.0
C3516 C 0.24498 0.30452 0.61018 0.0
C3517 C 0.24322 0.28566 0.62016 0.0
C3518 C 0.23419 0.28854 0.60115 0.0
C3519 C 0.22266 0.28847 0.59956 0.0
C3520 C 0.21767 0.28392 0.58993 0.0
C3521 C 0.22466 0.27935 0.58173 0.0
C3522 C 0.23653 0.27939 0.58317 0.0
C3523 C 0.24127 0.28402 0.59308 0.0
H3524 H 0.20967 0.29913 0.39796 0.0
H3525 H 0.23641 0.32429 0.39506 0.0
H3526 H 0.24586 0.3162 0.41165 0.0
H3527 H 0.20893 0.29873 0.42868 0.0
H3528 H 0.20623 0.28383 0.42953 0.0
H3529 H 0.20136 0.29171 0.41751 0.0
H3530 H 0.21204 0.27846 0.40432 0.0
H3531 H 0.21694 0.27055 0.41629 0.0
H3532 H 0.22692 0.27645 0.40644 0.0
H3533 H 0.25291 0.30497 0.42795 0.0
H3534 H 0.25707 0.29141 0.44301 0.0
H3535 H 0.22521 0.27413 0.43633 0.0
C3536 C 0.21743 0.30303 0.40089 0.0
C3537 C 0.22232 0.31232 0.39509 0.0
C3538 C 0.23258 0.31706 0.39917 0.0
C3539 C 0.23798 0.31258 0.40867 0.0
C3540 C 0.233 0.3034 0.4141 0.0
C3541 C 0.22294 0.2987 0.41042 0.0
C3542 C 0.21951 0.28872 0.41772 0.0
C3543 C 0.20835 0.29088 0.42372 0.0
C3544 C 0.21882 0.2779 0.41078 0.0
C3545 C 0.22931 0.28849 0.42598 0.0
C3546 C 0.23696 0.29705 0.42374 0.0
C3547 C 0.24689 0.29833 0.42991 0.0
C3548 C 0.24913 0.2906 0.43855 0.0
C3549 C 0.24143 0.2817 0.44107 0.0
C3550 C 0.23133 0.28076 0.43468 0.0
H3551 H 0.207 0.72924 0.39221 0.0
H3552 H 0.20377 0.69504 0.40472 0.0
H3553 H 0.21354 0.70058 0.42226 0.0
H3554 H 0.23458 0.73503 0.40392 0.0
H3555 H 0.2315 0.74937 0.40726 0.0
H3556 H 0.22443 0.74264 0.39563 0.0
H3557 H 0.20511 0.74728 0.40427 0.0
H3558 H 0.21212 0.754 0.41594 0.0
H3559 H 0.20203 0.7428 0.41845 0.0
H3560 H 0.22334 0.71002 0.4387 0.0
H3561 H 0.2326 0.72252 0.45254 0.0
H3562 H 0.22957 0.75048 0.42916 0.0
C3563 C 0.20829 0.72292 0.39865 0.0
C3564 C 0.20461 0.71168 0.39705 0.0
C3565 C 0.20663 0.70366 0.40567 0.0
C3566 C 0.21211 0.70674 0.4157 0.0
C3567 C 0.21558 0.71789 0.417 0.0
C3568 C 0.21377 0.72584 0.4087 0.0
C3569 C 0.21833 0.73725 0.41219 0.0
C3570 C 0.22777 0.74131 0.40428 0.0
C3571 C 0.20883 0.74584 0.41275 0.0
C3572 C 0.22289 0.7345 0.42379 0.0
C3573 C 0.22124 0.72329 0.42642 0.0
C3574 C 0.22472 0.71881 0.43671 0.0
C3575 C 0.23003 0.72597 0.4445 0.0
C3576 C 0.23183 0.73751 0.44199 0.0
C3577 C 0.22819 0.74175 0.43145 0.0
H3578 H 0.8266 0.72947 0.3942 0.0
H3579 H 0.81936 0.69405 0.39981 0.0
H3580 H 0.80896 0.69864 0.417 0.0
H3581 H 0.83106 0.73659 0.42339 0.0
H3582 H 0.82456 0.75008 0.42203 0.0
H3583 H 0.83141 0.74401 0.41014 0.0
H3584 H 0.81305 0.7458 0.3984 0.0
H3585 H 0.80615 0.75189 0.41024 0.0
H3586 H 0.80015 0.7396 0.40364 0.0
H3587 H 0.79914 0.70714 0.43357 0.0
H3588 H 0.79069 0.71891 0.44817 0.0
H3589 H 0.80459 0.74872 0.43189 0.0
C3590 C 0.82294 0.72265 0.39909 0.0
C3591 C 0.8238 0.71138 0.39558 0.0
C3592 C 0.8187 0.70276 0.40218 0.0
C3593 C 0.81283 0.70528 0.41202 0.0
C3594 C 0.81215 0.71646 0.41521 0.0
C3595 C 0.81707 0.72501 0.40894 0.0
C3596 C 0.81501 0.73635 0.41415 0.0
C3597 C 0.82617 0.74209 0.41763 0.0
C3598 C 0.80818 0.74385 0.40613 0.0
C3599 C 0.80815 0.73284 0.42432 0.0
C3600 C 0.80658 0.72134 0.42478 0.0
C3601 C 0.80034 0.71616 0.4333 0.0
C3602 C 0.79553 0.72292 0.44154 0.0
C3603 C 0.797 0.73474 0.44122 0.0
C3604 C 0.80346 0.7397 0.43249 0.0
H3605 H 0.80752 0.31198 0.39847 0.0
H3606 H 0.84283 0.30326 0.40075 0.0
H3607 H 0.83885 0.2919 0.4177 0.0
H3608 H 0.80237 0.3137 0.42824 0.0
H3609 H 0.78846 0.30745 0.42734 0.0
H3610 H 0.79409 0.31528 0.41558 0.0
H3611 H 0.79073 0.29814 0.40268 0.0
H3612 H 0.78502 0.29029 0.41438 0.0
H3613 H 0.79662 0.28481 0.40657 0.0
H3614 H 0.83104 0.2812 0.43424 0.0
H3615 H 0.81985 0.27142 0.44883 0.0
H3616 H 0.78945 0.28645 0.43548 0.0
C3617 C 0.81442 0.30764 0.40247 0.0
C3618 C 0.82553 0.30863 0.39825 0.0
C3619 C 0.8343 0.30286 0.40388 0.0
C3620 C 0.83211 0.29632 0.41351 0.0
C3621 C 0.8211 0.29557 0.41743 0.0
C3622 C 0.81238 0.30103 0.41207 0.0
C3623 C 0.80125 0.29859 0.41788 0.0
C3624 C 0.79625 0.3094 0.42253 0.0
C3625 C 0.79291 0.2926 0.4099 0.0
C3626 C 0.80507 0.29085 0.42729 0.0
C3627 C 0.81656 0.28927 0.4269 0.0
C3628 C 0.82203 0.28236 0.43461 0.0
C3629 C 0.81558 0.27679 0.44284 0.0
C3630 C 0.80375 0.27811 0.44332 0.0
C3631 C 0.79849 0.28536 0.43546 0.0
H3632 H 0.12397 0.70187 0.71255 0.0
H3633 H 0.13181 0.73127 0.69208 0.0
H3634 H 0.11658 0.7415 0.7012 0.0
H3635 H 0.09375 0.70513 0.71251 0.0
H3636 H 0.09207 0.70059 0.7269 0.0
H3637 H 0.10353 0.69541 0.7187 0.0
H3638 H 0.11779 0.70242 0.73375 0.0
H3639 H 0.10637 0.70759 0.74201 0.0
H3640 H 0.11774 0.71692 0.73789 0.0
H3641 H 0.10085 0.74875 0.71267 0.0
H3642 H 0.08572 0.7527 0.72598 0.0
H3643 H 0.08754 0.7186 0.73898 0.0
C3644 C 0.12251 0.71048 0.71002 0.0
C3645 C 0.12906 0.71571 0.70149 0.0
C3646 C 0.1268 0.72698 0.69842 0.0
C3647 C 0.1182 0.7329 0.70359 0.0
C3648 C 0.11187 0.72747 0.71187 0.0
C3649 C 0.1139 0.71653 0.7151 0.0
C3650 C 0.10585 0.71275 0.72431 0.0
C3651 C 0.09836 0.70288 0.72036 0.0
C3652 C 0.11233 0.70974 0.73513 0.0
C3653 C 0.09905 0.7233 0.72577 0.0
C3654 C 0.10267 0.73167 0.71849 0.0
C3655 C 0.09787 0.74223 0.71835 0.0
C3656 C 0.08917 0.74436 0.7259 0.0
C3657 C 0.08526 0.73595 0.73351 0.0
C3658 C 0.09031 0.72525 0.73335 0.0
H3659 H 0.80992 0.63073 0.71976 0.0
H3660 H 0.84099 0.61493 0.71006 0.0
H3661 H 0.83358 0.59667 0.71687 0.0
H3662 H 0.80592 0.61538 0.74495 0.0
H3663 H 0.79081 0.61418 0.74363 0.0
H3664 H 0.7982 0.62589 0.73729 0.0
H3665 H 0.78938 0.62095 0.71795 0.0
H3666 H 0.78194 0.60922 0.72424 0.0
H3667 H 0.791 0.60706 0.7124 0.0
H3668 H 0.82339 0.5804 0.72581 0.0
H3669 H 0.81094 0.56712 0.73611 0.0
H3670 H 0.78631 0.59325 0.73983 0.0
C3671 C 0.81507 0.62339 0.71888 0.0
C3672 C 0.82606 0.62428 0.71441 0.0
C3673 C 0.83261 0.61449 0.71359 0.0
C3674 C 0.82844 0.60406 0.71736 0.0
C3675 C 0.81767 0.60351 0.7219 0.0
C3676 C 0.81104 0.61288 0.72264 0.0
C3677 C 0.79994 0.61004 0.72832 0.0
C3678 C 0.79865 0.61677 0.73919 0.0
C3679 C 0.78997 0.61193 0.72024 0.0
C3680 C 0.80146 0.59765 0.73081 0.0
C3681 C 0.81173 0.59405 0.72699 0.0
C3682 C 0.81528 0.58309 0.72875 0.0
C3683 C 0.80818 0.57562 0.73465 0.0
C3684 C 0.79764 0.57913 0.73872 0.0
C3685 C 0.79422 0.59027 0.73664 0.0
H3686 H 0.89585 0.3032 0.72013 0.0
H3687 H 0.91334 0.31748 0.69134 0.0
H3688 H 0.9313 0.31024 0.69872 0.0
H3689 H 0.91823 0.30871 0.74064 0.0
H3690 H 0.91574 0.29576 0.74822 0.0
H3691 H 0.9043 0.30246 0.74092 0.0
H3692 H 0.90024 0.28422 0.72982 0.0
H3693 H 0.91165 0.27746 0.73709 0.0
H3694 H 0.91141 0.27799 0.72195 0.0
H3695 H 0.94718 0.30037 0.70854 0.0
H3696 H 0.95992 0.28913 0.72053 0.0
H3697 H 0.93233 0.28165 0.7432 0.0
C3698 C 0.90346 0.30482 0.7154 0.0
C3699 C 0.90317 0.31095 0.70516 0.0
C3700 C 0.91335 0.31295 0.69927 0.0
C3701 C 0.9236 0.30883 0.70337 0.0
C3702 C 0.92358 0.30278 0.71344 0.0
C3703 C 0.9138 0.30084 0.71942 0.0
C3704 C 0.91608 0.29394 0.72993 0.0
C3705 C 0.91343 0.30062 0.74056 0.0
C3706 C 0.90945 0.28274 0.72967 0.0
C3707 C 0.92864 0.29214 0.72882 0.0
C3708 C 0.9328 0.29731 0.71924 0.0
C3709 C 0.94404 0.29639 0.71613 0.0
C3710 C 0.95121 0.28998 0.72296 0.0
C3711 C 0.94713 0.28462 0.73282 0.0
C3712 C 0.93572 0.28583 0.73582 0.0
H3713 H 0.20911 0.38649 0.72671 0.0
H3714 H 0.21343 0.39424 0.69127 0.0
H3715 H 0.22333 0.4119 0.69623 0.0
H3716 H 0.2043 0.4144 0.73581 0.0
H3717 H 0.21207 0.4129 0.74878 0.0
H3718 H 0.20537 0.40082 0.74248 0.0
H3719 H 0.22444 0.39059 0.74236 0.0
H3720 H 0.23119 0.40261 0.74875 0.0
H3721 H 0.23645 0.39723 0.73573 0.0
H3722 H 0.23252 0.42898 0.7051 0.0
H3723 H 0.2406 0.44386 0.71716 0.0
H3724 H 0.23105 0.42448 0.74677 0.0
C3725 C 0.21225 0.39181 0.71997 0.0
C3726 C 0.21041 0.38894 0.70858 0.0
C3727 C 0.21454 0.39629 0.70005 0.0
C3728 C 0.22024 0.40633 0.70279 0.0
C3729 C 0.22182 0.40892 0.71409 0.0
C3730 C 0.218 0.40184 0.72254 0.0
C3731 C 0.22078 0.40659 0.73403 0.0
C3732 C 0.20999 0.40881 0.74066 0.0
C3733 C 0.22869 0.39879 0.7406 0.0
C3734 C 0.22672 0.41745 0.73071 0.0
C3735 C 0.22723 0.41866 0.71918 0.0
C3736 C 0.23223 0.42808 0.71414 0.0
C3737 C 0.23686 0.43648 0.72109 0.0
C3738 C 0.23651 0.4354 0.73296 0.0
C3739 C 0.23135 0.42571 0.73776 0.0
H3740 H 0.13353 0.30235 0.30575 0.0
H3741 H 0.12563 0.28657 0.33783 0.0
H3742 H 0.10889 0.27747 0.32933 0.0
H3743 H 0.10492 0.30723 0.29679 0.0
H3744 H 0.10753 0.30399 0.28229 0.0
H3745 H 0.11873 0.30963 0.29096 0.0
H3746 H 0.13111 0.29264 0.28625 0.0
H3747 H 0.11997 0.28697 0.27754 0.0
H3748 H 0.12574 0.27862 0.28881 0.0
H3749 H 0.0932 0.26972 0.31731 0.0
H3750 H 0.07975 0.26377 0.30253 0.0
H3751 H 0.09815 0.284 0.27808 0.0
C3752 C 0.12832 0.29695 0.31099 0.0
C3753 C 0.1309 0.29528 0.32252 0.0
C3754 C 0.12376 0.2882 0.32906 0.0
C3755 C 0.11425 0.28291 0.32429 0.0
C3756 C 0.11197 0.28474 0.31293 0.0
C3757 C 0.1188 0.29157 0.30636 0.0
C3758 C 0.11457 0.29194 0.29431 0.0
C3759 C 0.11124 0.30391 0.29089 0.0
C3760 C 0.12338 0.28727 0.28625 0.0
C3761 C 0.10433 0.28422 0.29514 0.0
C3762 C 0.10297 0.28019 0.30596 0.0
C3763 C 0.09419 0.27282 0.30879 0.0
C3764 C 0.08663 0.26943 0.30032 0.0
C3765 C 0.08788 0.27338 0.28912 0.0
C3766 C 0.09685 0.28093 0.28657 0.0
H3767 H 0.20501 0.62399 0.31235 0.0
H3768 H 0.2325 0.63032 0.33584 0.0
H3769 H 0.24214 0.61361 0.32902 0.0
H3770 H 0.20528 0.59332 0.31489 0.0
H3771 H 0.20214 0.59117 0.30022 0.0
H3772 H 0.19712 0.60346 0.30719 0.0
H3773 H 0.20689 0.61613 0.29225 0.0
H3774 H 0.21195 0.60389 0.28525 0.0
H3775 H 0.22176 0.61467 0.28977 0.0
H3776 H 0.2493 0.59682 0.31914 0.0
H3777 H 0.25355 0.58103 0.30681 0.0
H3778 H 0.22107 0.58475 0.29023 0.0
C3779 C 0.21298 0.62178 0.31616 0.0
C3780 C 0.21802 0.62857 0.32458 0.0
C3781 C 0.22854 0.62542 0.32924 0.0
C3782 C 0.23406 0.61587 0.32549 0.0
C3783 C 0.22894 0.60945 0.31711 0.0
C3784 C 0.21863 0.61223 0.31252 0.0
C3785 C 0.21515 0.60401 0.3034 0.0
C3786 C 0.20428 0.59761 0.30662 0.0
C3787 C 0.21387 0.61004 0.29199 0.0
C3788 C 0.2252 0.59631 0.30349 0.0
C3789 C 0.23302 0.59959 0.31151 0.0
C3790 C 0.24317 0.59406 0.31293 0.0
C3791 C 0.24546 0.58501 0.30592 0.0
C3792 C 0.23763 0.58146 0.29756 0.0
C3793 C 0.2273 0.5872 0.29646 0.0
H3794 H 0.90445 0.71619 0.31589 0.0
H3795 H 0.89425 0.69794 0.28598 0.0
H3796 H 0.90949 0.70732 0.27533 0.0
H3797 H 0.91133 0.74224 0.30179 0.0
H3798 H 0.9233 0.74543 0.31068 0.0
H3799 H 0.91171 0.73711 0.31608 0.0
H3800 H 0.92547 0.72129 0.3215 0.0
H3801 H 0.93709 0.72955 0.31608 0.0
H3802 H 0.93446 0.71558 0.31091 0.0
H3803 H 0.92544 0.719 0.26771 0.0
H3804 H 0.94094 0.73233 0.26358 0.0
H3805 H 0.94133 0.74276 0.29848 0.0
C3806 C 0.9054 0.7142 0.30709 0.0
C3807 C 0.89818 0.70624 0.30181 0.0
C3808 C 0.89977 0.70385 0.29029 0.0
C3809 C 0.90838 0.70918 0.28413 0.0
C3810 C 0.91538 0.7169 0.28959 0.0
C3811 C 0.914 0.71943 0.30081 0.0
C3812 C 0.92266 0.72814 0.30459 0.0
C3813 C 0.9169 0.73886 0.30852 0.0
C3814 C 0.93038 0.72335 0.31382 0.0
C3815 C 0.92904 0.73016 0.29374 0.0
C3816 C 0.9247 0.72357 0.28521 0.0
C3817 C 0.92899 0.72412 0.27435 0.0
C3818 C 0.9379 0.73168 0.27212 0.0
C3819 C 0.94251 0.7386 0.2807 0.0
C3820 C 0.93801 0.73769 0.29168 0.0
H3821 H 0.83061 0.39769 0.30264 0.0
H3822 H 0.80776 0.38733 0.32927 0.0
H3823 H 0.79552 0.40319 0.32459 0.0
H3824 H 0.8279 0.42781 0.30708 0.0
H3825 H 0.82866 0.43119 0.29231 0.0
H3826 H 0.83574 0.41905 0.29778 0.0
H3827 H 0.82503 0.4065 0.28346 0.0
H3828 H 0.81789 0.41859 0.27797 0.0
H3829 H 0.80985 0.40663 0.283 0.0
H3830 H 0.78529 0.41957 0.31654 0.0
H3831 H 0.77792 0.43567 0.30603 0.0
H3832 H 0.80804 0.43653 0.28545 0.0
C3833 C 0.82312 0.39882 0.30761 0.0
C3834 C 0.82015 0.39113 0.3163 0.0
C3835 C 0.81015 0.39291 0.32244 0.0
C3836 C 0.80317 0.40197 0.3199 0.0
C3837 C 0.80631 0.4093 0.31126 0.0
C3838 C 0.81608 0.40789 0.30525 0.0
C3839 C 0.81743 0.41697 0.29631 0.0
C3840 C 0.82806 0.42418 0.2985 0.0
C3841 C 0.81755 0.41186 0.28449 0.0
C3842 C 0.80682 0.42361 0.29816 0.0
C3843 C 0.80055 0.41902 0.30683 0.0
C3844 C 0.79022 0.42337 0.30986 0.0
C3845 C 0.78615 0.43264 0.30387 0.0
C3846 C 0.79242 0.43764 0.29496 0.0
C3847 C 0.80296 0.433 0.29216 0.0
H3848 H 0.21005 0.6206 0.70404 0.0
H3849 H 0.19601 0.63153 0.73562 0.0
H3850 H 0.20526 0.6159 0.74546 0.0
H3851 H 0.20759 0.59084 0.70957 0.0
H3852 H 0.22074 0.58756 0.70298 0.0
H3853 H 0.21291 0.59955 0.69827 0.0
H3854 H 0.23036 0.61243 0.70174 0.0
H3855 H 0.23825 0.60048 0.70642 0.0
H3856 H 0.23702 0.61248 0.7154 0.0
H3857 H 0.21621 0.59936 0.75203 0.0
H3858 H 0.22853 0.5832 0.75498 0.0
H3859 H 0.23543 0.58259 0.71919 0.0
C3860 C 0.20897 0.61975 0.71303 0.0
C3861 C 0.20219 0.62728 0.71902 0.0
C3862 C 0.20096 0.62578 0.73078 0.0
C3863 C 0.20624 0.61695 0.73648 0.0
C3864 C 0.21276 0.60964 0.73033 0.0
C3865 C 0.21419 0.61094 0.71887 0.0
C3866 C 0.22174 0.60192 0.71432 0.0
C3867 C 0.21536 0.59453 0.70578 0.0
C3868 C 0.23248 0.60714 0.70917 0.0
C3869 C 0.22438 0.59541 0.72502 0.0
C3870 C 0.21908 0.60001 0.73413 0.0
C3871 C 0.22034 0.59562 0.74494 0.0
C3872 C 0.2273 0.58634 0.74651 0.0
C3873 C 0.23292 0.58146 0.73732 0.0
C3874 C 0.23133 0.58609 0.72642 0.0
H3875 H 0.21079 0.39245 0.32006 0.0
H3876 H 0.19268 0.38268 0.28977 0.0
H3877 H 0.2006 0.39918 0.27982 0.0
H3878 H 0.20771 0.42241 0.31649 0.0
H3879 H 0.22163 0.42581 0.32171 0.0
H3880 H 0.21439 0.41332 0.32663 0.0
H3881 H 0.23119 0.40127 0.32051 0.0
H3882 H 0.2385 0.41372 0.31562 0.0
H3883 H 0.23604 0.40216 0.30621 0.0
H3884 H 0.21076 0.41639 0.27295 0.0
H3885 H 0.22284 0.433 0.26946 0.0
H3886 H 0.23423 0.43205 0.30423 0.0
C3887 C 0.20853 0.39376 0.31133 0.0
C3888 C 0.20102 0.38629 0.30574 0.0
C3889 C 0.19824 0.38836 0.29431 0.0
C3890 C 0.20274 0.39769 0.28856 0.0
C3891 C 0.21003 0.40492 0.29432 0.0
C3892 C 0.21294 0.40307 0.30544 0.0
C3893 C 0.22108 0.4121 0.30959 0.0
C3894 C 0.21589 0.41881 0.31917 0.0
C3895 C 0.23237 0.40701 0.31319 0.0
C3896 C 0.22235 0.41923 0.29903 0.0
C3897 C 0.21586 0.41494 0.29035 0.0
C3898 C 0.2158 0.4199 0.27972 0.0
C3899 C 0.22263 0.42943 0.27785 0.0
C3900 C 0.22946 0.43398 0.28657 0.0
C3901 C 0.22919 0.4288 0.29734 0.0
H3902 H 0.12474 0.71458 0.31706 0.0
H3903 H 0.13133 0.69265 0.28902 0.0
H3904 H 0.11612 0.70151 0.27815 0.0
H3905 H 0.0944 0.71493 0.31365 0.0
H3906 H 0.09323 0.72952 0.31727 0.0
H3907 H 0.10455 0.72135 0.32305 0.0
H3908 H 0.11911 0.73576 0.31518 0.0
H3909 H 0.10784 0.74398 0.3094 0.0
H3910 H 0.1189 0.73922 0.3004 0.0
H3911 H 0.10066 0.71297 0.27004 0.0
H3912 H 0.08596 0.72642 0.2651 0.0
H3913 H 0.08876 0.74086 0.29843 0.0
C3914 C 0.123 0.71167 0.30862 0.0
C3915 C 0.12919 0.70282 0.30395 0.0
C3916 C 0.12659 0.69924 0.29289 0.0
C3917 C 0.118 0.70427 0.28661 0.0
C3918 C 0.11202 0.7129 0.29147 0.0
C3919 C 0.11438 0.71659 0.30221 0.0
C3920 C 0.10669 0.7261 0.30536 0.0
C3921 C 0.09928 0.72277 0.31543 0.0
C3922 C 0.11355 0.7369 0.30772 0.0
C3923 C 0.09973 0.7272 0.29467 0.0
C3924 C 0.10295 0.71948 0.28679 0.0
C3925 C 0.09797 0.71898 0.27618 0.0
C3926 C 0.08951 0.72663 0.2735 0.0
C3927 C 0.086 0.73468 0.28139 0.0
C3928 C 0.09121 0.73488 0.29216 0.0
H3929 H 0.82287 0.62618 0.30946 0.0
H3930 H 0.79318 0.63338 0.32905 0.0
H3931 H 0.7834 0.61695 0.3209 0.0
H3932 H 0.8085 0.61717 0.28476 0.0
H3933 H 0.81813 0.60612 0.28167 0.0
H3934 H 0.823 0.61829 0.28927 0.0
H3935 H 0.83009 0.60552 0.30547 0.0
H3936 H 0.82526 0.5933 0.2979 0.0
H3937 H 0.82045 0.59565 0.31201 0.0
H3938 H 0.77649 0.60027 0.31007 0.0
H3939 H 0.77293 0.58445 0.29733 0.0
H3940 H 0.80742 0.58723 0.28549 0.0
C3941 C 0.81437 0.62423 0.31215 0.0
C3942 C 0.80879 0.63118 0.31985 0.0
C3943 C 0.79759 0.62836 0.32301 0.0
C3944 C 0.79198 0.61897 0.3185 0.0
C3945 C 0.79768 0.61238 0.31088 0.0
C3946 C 0.80863 0.61484 0.30775 0.0
C3947 C 0.81273 0.60648 0.29922 0.0
C3948 C 0.81576 0.61237 0.28807 0.0
C3949 C 0.82272 0.59984 0.30394 0.0
C3950 C 0.80231 0.59904 0.29795 0.0
C3951 C 0.79375 0.60258 0.30478 0.0
C3952 C 0.78319 0.59731 0.30479 0.0
C3953 C 0.78128 0.58823 0.29757 0.0
C3954 C 0.7899 0.58442 0.29041 0.0
C3955 C 0.80059 0.5899 0.29076 0.0
H3956 H 0.91142 0.3003 0.32494 0.0
H3957 H 0.89449 0.31615 0.29667 0.0
H3958 H 0.90924 0.30943 0.284 0.0
H3959 H 0.94024 0.3054 0.31537 0.0
H3960 H 0.94505 0.292 0.32041 0.0
H3961 H 0.93366 0.29882 0.32739 0.0
H3962 H 0.92098 0.28114 0.32461 0.0
H3963 H 0.93232 0.27427 0.31763 0.0
H3964 H 0.91887 0.27565 0.31067 0.0
H3965 H 0.92512 0.29982 0.27418 0.0
H3966 H 0.94073 0.28807 0.26798 0.0
H3967 H 0.94745 0.27858 0.30267 0.0
C3968 C 0.9108 0.3024 0.31609 0.0
C3969 C 0.90177 0.30881 0.31184 0.0
C3970 C 0.90139 0.31142 0.3002 0.0
C3971 C 0.90971 0.30759 0.29291 0.0
C3972 C 0.91841 0.30118 0.29737 0.0
C3973 C 0.91903 0.29863 0.3087 0.0
C3974 C 0.92898 0.29122 0.31129 0.0
C3975 C 0.93748 0.29722 0.31907 0.0
C3976 C 0.92505 0.2799 0.31635 0.0
C3977 C 0.93373 0.2898 0.29962 0.0
C3978 C 0.92757 0.29568 0.29172 0.0
C3979 C 0.93009 0.2953 0.28032 0.0
C3980 C 0.93906 0.28865 0.27689 0.0
C3981 C 0.94544 0.28241 0.28482 0.0
C3982 C 0.94275 0.28317 0.29636 0.0
H3983 H 0.81974 0.40026 0.71015 0.0
H3984 H 0.81911 0.3787 0.73973 0.0
H3985 H 0.8082 0.39278 0.74981 0.0
H3986 H 0.82291 0.42629 0.7248 0.0
H3987 H 0.81388 0.43406 0.71543 0.0
H3988 H 0.82144 0.4222 0.71031 0.0
H3989 H 0.80271 0.41303 0.70346 0.0
H3990 H 0.7951 0.42489 0.70852 0.0
H3991 H 0.79134 0.41093 0.71325 0.0
H3992 H 0.79761 0.40905 0.75682 0.0
H3993 H 0.78763 0.42654 0.76036 0.0
H3994 H 0.79511 0.43807 0.72645 0.0
C3995 C 0.8172 0.39847 0.71871 0.0
C3996 C 0.82036 0.38839 0.72417 0.0
C3997 C 0.81695 0.38642 0.73542 0.0
C3998 C 0.8107 0.39434 0.7412 0.0
C3999 C 0.80787 0.40423 0.73565 0.0
C4000 C 0.81095 0.40634 0.72465 0.0
C4001 C 0.80689 0.41776 0.72076 0.0
C4002 C 0.81688 0.42553 0.71764 0.0
C4003 C 0.79851 0.41658 0.71092 0.0
C4004 C 0.80109 0.42172 0.73131 0.0
C4005 C 0.80176 0.41375 0.73976 0.0
C4006 C 0.79707 0.41539 0.75028 0.0
C4007 C 0.7915 0.42544 0.75224 0.0
C4008 C 0.79068 0.43382 0.74376 0.0
C4009 C 0.79555 0.43186 0.73312 0.0
H4010 H 0.13545 0.29938 0.72151 0.0
H4011 H 0.11743 0.30665 0.6905 0.0
H4012 H 0.09966 0.30022 0.69926 0.0
H4013 H 0.12009 0.27444 0.72859 0.0
H4014 H 0.12004 0.27705 0.74349 0.0
H4015 H 0.13132 0.28261 0.73495 0.0
H4016 H 0.1273 0.30264 0.74199 0.0
H4017 H 0.11602 0.29713 0.75058 0.0
H4018 H 0.11332 0.30815 0.7405 0.0
H4019 H 0.08392 0.29243 0.71113 0.0
H4020 H 0.07126 0.28414 0.72546 0.0
H4021 H 0.09942 0.28195 0.74879 0.0
C4022 C 0.12774 0.29977 0.71662 0.0
C4023 C 0.12786 0.30348 0.70529 0.0
C4024 C 0.1176 0.3037 0.69914 0.0
C4025 C 0.10744 0.30013 0.70405 0.0
C4026 C 0.10764 0.29638 0.71516 0.0
C4027 C 0.1175 0.29621 0.7214 0.0
C4028 C 0.11542 0.29154 0.7331 0.0
C4029 C 0.12211 0.28077 0.73515 0.0
C4030 C 0.11818 0.3004 0.74207 0.0
C4031 C 0.10286 0.28905 0.73245 0.0
C4032 C 0.09854 0.29191 0.72203 0.0
C4033 C 0.0872 0.29018 0.71934 0.0
C4034 C 0.08008 0.2854 0.72751 0.0
C4035 C 0.08431 0.2824 0.73827 0.0
C4036 C 0.09587 0.2843 0.74071 0.0
H4037 H 0.8943 0.7177 0.71883 0.0
H4038 H 0.91038 0.71028 0.68718 0.0
H4039 H 0.92844 0.71774 0.69458 0.0
H4040 H 0.90865 0.74342 0.72371 0.0
H4041 H 0.90999 0.74146 0.73869 0.0
H4042 H 0.89846 0.7349 0.7312 0.0
H4043 H 0.90426 0.71548 0.73904 0.0
H4044 H 0.91581 0.72199 0.74658 0.0
H4045 H 0.91843 0.71075 0.73697 0.0
H4046 H 0.94448 0.72698 0.70494 0.0
H4047 H 0.9575 0.73713 0.71774 0.0
H4048 H 0.93118 0.73838 0.74278 0.0
C4049 C 0.90167 0.71746 0.71353 0.0
C4050 C 0.90091 0.71343 0.7024 0.0
C4051 C 0.91072 0.71345 0.69568 0.0
C4052 C 0.92103 0.7176 0.69983 0.0
C4053 C 0.92146 0.72167 0.71076 0.0
C4054 C 0.91206 0.72159 0.71755 0.0
C4055 C 0.91473 0.72686 0.72883 0.0
C4056 C 0.90753 0.73728 0.73072 0.0
C4057 C 0.91322 0.71825 0.73842 0.0
C4058 C 0.92704 0.73005 0.72725 0.0
C4059 C 0.93076 0.72694 0.71678 0.0
C4060 C 0.94169 0.72938 0.7132 0.0
C4061 C 0.949 0.73519 0.7205 0.0
C4062 C 0.94537 0.73851 0.73127 0.0
C4063 C 0.93426 0.73579 0.73468 0.0
H4064 H 0.71281 0.21188 0.62621 0.0
H4065 H 0.74341 0.19758 0.63993 0.0
H4066 H 0.75424 0.20578 0.62421 0.0
H4067 H 0.71961 0.20755 0.59673 0.0
H4068 H 0.71352 0.22056 0.59212 0.0
H4069 H 0.70804 0.21336 0.60434 0.0
H4070 H 0.71136 0.23126 0.61618 0.0
H4071 H 0.71685 0.23851 0.604 0.0
H4072 H 0.72522 0.23768 0.61667 0.0
H4073 H 0.76192 0.21595 0.6074 0.0
H4074 H 0.76601 0.22773 0.59079 0.0
H4075 H 0.73039 0.23491 0.58733 0.0
C4076 C 0.72177 0.21038 0.62585 0.0
C4077 C 0.72725 0.20414 0.63439 0.0
C4078 C 0.73903 0.20249 0.63364 0.0
C4079 C 0.74525 0.20704 0.62467 0.0
C4080 C 0.73961 0.21319 0.61646 0.0
C4081 C 0.72814 0.21487 0.61693 0.0
C4082 C 0.72422 0.22204 0.60711 0.0
C4083 C 0.71585 0.21548 0.59963 0.0
C4084 C 0.71911 0.23303 0.61124 0.0
C4085 C 0.7353 0.22422 0.60113 0.0
C4086 C 0.74405 0.21898 0.60664 0.0
C4087 C 0.75512 0.22 0.60293 0.0
C4088 C 0.75734 0.22665 0.59339 0.0
C4089 C 0.74854 0.23222 0.5876 0.0
C4090 C 0.73735 0.23084 0.59154 0.0
H4091 H 0.30543 0.19438 0.6228 0.0
H4092 H 0.32237 0.2215 0.64068 0.0
H4093 H 0.31704 0.2347 0.6256 0.0
H4094 H 0.31267 0.20368 0.59477 0.0
H4095 H 0.29925 0.19967 0.58874 0.0
H4096 H 0.30463 0.19219 0.60079 0.0
H4097 H 0.28638 0.19628 0.6117 0.0
H4098 H 0.28092 0.20375 0.59968 0.0
H4099 H 0.28192 0.21058 0.61311 0.0
H4100 H 0.30957 0.24508 0.60894 0.0
H4101 H 0.30018 0.25211 0.59187 0.0
H4102 H 0.28796 0.21839 0.58453 0.0
C4103 C 0.30797 0.2031 0.62358 0.0
C4104 C 0.31441 0.20685 0.63293 0.0
C4105 C 0.31764 0.21834 0.63354 0.0
C4106 C 0.31459 0.22594 0.62503 0.0
C4107 C 0.30829 0.22195 0.61595 0.0
C4108 C 0.30498 0.21082 0.61516 0.0
C4109 C 0.29808 0.2088 0.60456 0.0
C4110 C 0.30402 0.2006 0.59675 0.0
C4111 C 0.28612 0.20461 0.60744 0.0
C4112 C 0.29797 0.22055 0.59957 0.0
C4113 C 0.30395 0.22798 0.60628 0.0
C4114 C 0.30495 0.23932 0.60356 0.0
C4115 C 0.29965 0.24322 0.59376 0.0
C4116 C 0.29342 0.23581 0.58671 0.0
C4117 C 0.29262 0.22429 0.58971 0.0
H4118 H 0.3155 0.80863 0.62574 0.0
H4119 H 0.28519 0.82535 0.63625 0.0
H4120 H 0.27454 0.81632 0.62085 0.0
H4121 H 0.31015 0.81056 0.59591 0.0
H4122 H 0.31563 0.79691 0.59291 0.0
H4123 H 0.32099 0.80471 0.60475 0.0
H4124 H 0.31607 0.788 0.61799 0.0
H4125 H 0.31073 0.78014 0.60619 0.0
H4126 H 0.30188 0.78239 0.61817 0.0
H4127 H 0.26704 0.80536 0.60456 0.0
H4128 H 0.26308 0.79293 0.58857 0.0
H4129 H 0.29825 0.78345 0.58815 0.0
C4130 C 0.30661 0.81033 0.62484 0.0
C4131 C 0.30121 0.81779 0.63218 0.0
C4132 C 0.28957 0.81984 0.63064 0.0
C4133 C 0.28342 0.8147 0.62194 0.0
C4134 C 0.289 0.80751 0.61481 0.0
C4135 C 0.30032 0.80529 0.61615 0.0
C4136 C 0.30423 0.79717 0.60728 0.0
C4137 C 0.31329 0.80267 0.59977 0.0
C4138 C 0.30848 0.78628 0.61273 0.0
C4139 C 0.29333 0.79515 0.60082 0.0
C4140 C 0.28467 0.80122 0.60531 0.0
C4141 C 0.27377 0.80063 0.60091 0.0
C4142 C 0.27164 0.7936 0.59173 0.0
C4143 C 0.28035 0.78723 0.58695 0.0
C4144 C 0.29136 0.78812 0.59159 0.0
H4145 H 0.71219 0.8106 0.62201 0.0
H4146 H 0.74199 0.81322 0.64323 0.0
H4147 H 0.75316 0.80419 0.62857 0.0
H4148 H 0.71818 0.7836 0.61066 0.0
H4149 H 0.71291 0.78683 0.59679 0.0
H4150 H 0.70723 0.79376 0.60882 0.0
H4151 H 0.71208 0.81309 0.59981 0.0
H4152 H 0.71779 0.80621 0.58775 0.0
H4153 H 0.72634 0.81615 0.5955 0.0
H4154 H 0.76111 0.79475 0.61186 0.0
H4155 H 0.76524 0.78482 0.59437 0.0
H4156 H 0.73044 0.78838 0.5836 0.0
C4157 C 0.72108 0.80934 0.62353 0.0
C4158 C 0.72619 0.81257 0.63381 0.0
C4159 C 0.73784 0.81066 0.63551 0.0
C4160 C 0.74428 0.80562 0.6272 0.0
C4161 C 0.73899 0.8025 0.6172 0.0
C4162 C 0.72765 0.80425 0.61531 0.0
C4163 C 0.72402 0.79983 0.6039 0.0
C4164 C 0.71506 0.79045 0.60512 0.0
C4165 C 0.71981 0.80939 0.59629 0.0
C4166 C 0.73508 0.79529 0.59971 0.0
C4167 C 0.7436 0.797 0.6075 0.0
C4168 C 0.75453 0.79343 0.60565 0.0
C4169 C 0.75681 0.78787 0.59562 0.0
C4170 C 0.74821 0.78589 0.5875 0.0
C4171 C 0.73721 0.78973 0.58962 0.0
H4172 H 0.72491 0.82313 0.40391 0.0
H4173 H 0.7069 0.79504 0.38872 0.0
H4174 H 0.71386 0.78256 0.40377 0.0
H4175 H 0.74944 0.80805 0.41145 0.0
H4176 H 0.75177 0.81535 0.42448 0.0
H4177 H 0.74473 0.82225 0.41297 0.0
H4178 H 0.72773 0.82617 0.4258 0.0
H4179 H 0.73472 0.81927 0.43736 0.0
H4180 H 0.72082 0.81467 0.43305 0.0
H4181 H 0.72361 0.77289 0.4199 0.0
H4182 H 0.73558 0.76673 0.43571 0.0
H4183 H 0.74727 0.80109 0.44046 0.0
C4184 C 0.72242 0.81436 0.40372 0.0
C4185 C 0.71528 0.81011 0.39511 0.0
C4186 C 0.71217 0.79857 0.3953 0.0
C4187 C 0.71614 0.79139 0.40379 0.0
C4188 C 0.72321 0.79584 0.41208 0.0
C4189 C 0.72632 0.80706 0.41212 0.0
C4190 C 0.73433 0.80965 0.42177 0.0
C4191 C 0.74574 0.81408 0.4174 0.0
C4192 C 0.72908 0.81793 0.42998 0.0
C4193 C 0.73538 0.7981 0.42704 0.0
C4194 C 0.72883 0.79027 0.42137 0.0
C4195 C 0.72867 0.77898 0.42448 0.0
C4196 C 0.73545 0.77557 0.43354 0.0
C4197 C 0.74235 0.78341 0.43943 0.0
C4198 C 0.74217 0.79485 0.43614 0.0
H4199 H 0.72602 0.2091 0.39551 0.0
H4200 H 0.6927 0.21933 0.40563 0.0
H4201 H 0.70087 0.22812 0.42256 0.0
H4202 H 0.73655 0.2028 0.42333 0.0
H4203 H 0.75055 0.2082 0.42058 0.0
H4204 H 0.7421 0.20254 0.40927 0.0
H4205 H 0.74455 0.22117 0.39812 0.0
H4206 H 0.75302 0.22687 0.40938 0.0
H4207 H 0.7407 0.23418 0.40456 0.0
H4208 H 0.71262 0.23609 0.43828 0.0
H4209 H 0.72717 0.24247 0.45182 0.0
H4210 H 0.75295 0.22741 0.43144 0.0
C4211 C 0.72044 0.21322 0.40126 0.0
C4212 C 0.70868 0.21342 0.39925 0.0
C4213 C 0.7017 0.21886 0.40706 0.0
C4214 C 0.70627 0.22395 0.41668 0.0
C4215 C 0.71786 0.22358 0.41842 0.0
C4216 C 0.72487 0.21835 0.41094 0.0
C4217 C 0.73706 0.21919 0.41481 0.0
C4218 C 0.74184 0.20749 0.41714 0.0
C4219 C 0.74425 0.22574 0.4062 0.0
C4220 C 0.7358 0.22573 0.42559 0.0
C4221 C 0.72465 0.22819 0.4275 0.0
C4222 C 0.72138 0.23423 0.43686 0.0
C4223 C 0.72972 0.23788 0.44448 0.0
C4224 C 0.74122 0.23547 0.44272 0.0
C4225 C 0.74423 0.22928 0.43312 0.0
H4226 H 0.31716 0.19957 0.40273 0.0
H4227 H 0.3152 0.22781 0.37957 0.0
H4228 H 0.30502 0.23854 0.39376 0.0
H4229 H 0.28953 0.20279 0.41471 0.0
H4230 H 0.29385 0.19892 0.42874 0.0
H4231 H 0.30109 0.19338 0.41681 0.0
H4232 H 0.32005 0.20111 0.42469 0.0
H4233 H 0.31287 0.20669 0.43664 0.0
H4234 H 0.32146 0.21581 0.42796 0.0
H4235 H 0.29531 0.24634 0.41029 0.0
H4236 H 0.28584 0.25056 0.42804 0.0
H4237 H 0.29382 0.21739 0.44085 0.0
C4238 C 0.31461 0.20802 0.40068 0.0
C4239 C 0.31693 0.21283 0.39 0.0
C4240 C 0.31337 0.22388 0.38761 0.0
C4241 C 0.30765 0.23008 0.39564 0.0
C4242 C 0.30549 0.22512 0.40605 0.0
C4243 C 0.30879 0.21433 0.4086 0.0
C4244 C 0.30521 0.21098 0.42041 0.0
C4245 C 0.29693 0.20092 0.42015 0.0
C4246 C 0.31551 0.2085 0.42786 0.0
C4247 C 0.29942 0.22158 0.42408 0.0
C4248 C 0.29976 0.22963 0.41566 0.0
C4249 C 0.29503 0.24013 0.41697 0.0
C4250 C 0.28974 0.24247 0.42714 0.0
C4251 C 0.28918 0.23437 0.43592 0.0
C4252 C 0.2941 0.22376 0.43431 0.0
H4253 H 0.30826 0.82157 0.40232 0.0
H4254 H 0.31738 0.79217 0.38338 0.0
H4255 H 0.30989 0.77998 0.39854 0.0
H4256 H 0.31446 0.81012 0.43016 0.0
H4257 H 0.30265 0.81678 0.43659 0.0
H4258 H 0.30938 0.82321 0.42457 0.0
H4259 H 0.29021 0.82354 0.41404 0.0
H4260 H 0.28343 0.81712 0.42601 0.0
H4261 H 0.2822 0.81067 0.41241 0.0
H4262 H 0.3003 0.77097 0.41522 0.0
H4263 H 0.28943 0.76581 0.43208 0.0
H4264 H 0.2868 0.80106 0.44042 0.0
C4265 C 0.30871 0.81257 0.40135 0.0
C4266 C 0.31347 0.80785 0.39162 0.0
C4267 C 0.31395 0.79601 0.39079 0.0
C4268 C 0.30966 0.78901 0.39934 0.0
C4269 C 0.30494 0.79394 0.40874 0.0
C4270 C 0.30447 0.80545 0.40981 0.0
C4271 C 0.29865 0.80862 0.42061 0.0
C4272 C 0.30677 0.81506 0.42844 0.0
C4273 C 0.28799 0.81539 0.41811 0.0
C4274 C 0.29573 0.79709 0.42534 0.0
C4275 C 0.29949 0.78874 0.41839 0.0
C4276 C 0.29745 0.77744 0.42079 0.0
C4277 C 0.29132 0.77459 0.43048 0.0
C4278 C 0.28729 0.78299 0.43773 0.0
C4279 C 0.28967 0.7944 0.43509 0.0
H4280 H 0.63357 0.22562 0.70485 0.0
H4281 H 0.6286 0.19123 0.71632 0.0
H4282 H 0.61105 0.19661 0.72569 0.0
H4283 H 0.624 0.23852 0.73023 0.0
H4284 H 0.61739 0.25 0.72292 0.0
H4285 H 0.62938 0.24332 0.71687 0.0
H4286 H 0.6178 0.23939 0.69874 0.0
H4287 H 0.60575 0.24599 0.70477 0.0
H4288 H 0.60456 0.23182 0.6997 0.0
H4289 H 0.59395 0.20586 0.73396 0.0
H4290 H 0.57906 0.21828 0.74077 0.0
H4291 H 0.59581 0.24671 0.72461 0.0
C4292 C 0.62888 0.21921 0.70941 0.0
C4293 C 0.63252 0.20796 0.70977 0.0
C4294 C 0.62595 0.19985 0.71572 0.0
C4295 C 0.61598 0.20284 0.72114 0.0
C4296 C 0.61266 0.21399 0.72059 0.0
C4297 C 0.61895 0.22205 0.71491 0.0
C4298 C 0.61364 0.23349 0.71572 0.0
C4299 C 0.62157 0.24182 0.7218 0.0
C4300 C 0.61024 0.23793 0.70404 0.0
C4301 C 0.60339 0.23061 0.72275 0.0
C4302 C 0.60294 0.21932 0.72545 0.0
C4303 C 0.59424 0.21472 0.73192 0.0
C4304 C 0.58585 0.22187 0.73581 0.0
C4305 C 0.58619 0.23351 0.73324 0.0
C4306 C 0.59512 0.23785 0.72658 0.0
H4307 H 0.30678 0.12267 0.7124 0.0
H4308 H 0.34061 0.11406 0.72313 0.0
H4309 H 0.33307 0.09718 0.73272 0.0
H4310 H 0.29313 0.11428 0.73792 0.0
H4311 H 0.28065 0.10881 0.73104 0.0
H4312 H 0.28874 0.11998 0.72454 0.0
H4313 H 0.29076 0.10804 0.7066 0.0
H4314 H 0.28271 0.09682 0.71307 0.0
H4315 H 0.29657 0.0942 0.70771 0.0
H4316 H 0.3219 0.08165 0.74184 0.0
H4317 H 0.30774 0.06844 0.74978 0.0
H4318 H 0.28111 0.08706 0.73336 0.0
C4319 C 0.31261 0.11724 0.71676 0.0
C4320 C 0.32432 0.11968 0.7169 0.0
C4321 C 0.33164 0.11229 0.72268 0.0
C4322 C 0.32743 0.1027 0.72823 0.0
C4323 C 0.31587 0.10055 0.72793 0.0
C4324 C 0.30855 0.10759 0.72235 0.0
C4325 C 0.29646 0.10346 0.72355 0.0
C4326 C 0.28933 0.11215 0.72962 0.0
C4327 C 0.29132 0.10045 0.71205 0.0
C4328 C 0.29814 0.09306 0.73076 0.0
C4329 C 0.30941 0.09154 0.73318 0.0
C4330 C 0.31305 0.08272 0.73997 0.0
C4331 C 0.30495 0.07529 0.74447 0.0
C4332 C 0.29333 0.0767 0.74217 0.0
C4333 C 0.28994 0.08567 0.73513 0.0
H4334 H 0.39327 0.79233 0.70367 0.0
H4335 H 0.39959 0.82721 0.71225 0.0
H4336 H 0.41699 0.82183 0.72228 0.0
H4337 H 0.40334 0.78035 0.72953 0.0
H4338 H 0.40959 0.76847 0.72288 0.0
H4339 H 0.39757 0.77508 0.71652 0.0
H4340 H 0.40876 0.77808 0.69809 0.0
H4341 H 0.42082 0.7715 0.7044 0.0
H4342 H 0.42216 0.78543 0.6985 0.0
H4343 H 0.43387 0.81256 0.73136 0.0
H4344 H 0.44872 0.80014 0.73877 0.0
H4345 H 0.4314 0.77145 0.72399 0.0
C4346 C 0.39834 0.79887 0.70757 0.0
C4347 C 0.395 0.81021 0.70716 0.0
C4348 C 0.40184 0.81845 0.71256 0.0
C4349 C 0.4118 0.81548 0.71822 0.0
C4350 C 0.41484 0.80424 0.71841 0.0
C4351 C 0.40831 0.79607 0.71323 0.0
C4352 C 0.41343 0.78459 0.71467 0.0
C4353 C 0.40551 0.77666 0.7213 0.0
C4354 C 0.41647 0.77961 0.70323 0.0
C4355 C 0.42389 0.78757 0.72145 0.0
C4356 C 0.42456 0.79895 0.72354 0.0
C4357 C 0.43343 0.80364 0.72976 0.0
C4358 C 0.4418 0.79651 0.73397 0.0
C4359 C 0.44128 0.78482 0.73193 0.0
C4360 C 0.43218 0.78036 0.72555 0.0
H4361 H 0.7136 0.88879 0.72822 0.0
H4362 H 0.71335 0.9006 0.69364 0.0
H4363 H 0.72392 0.9177 0.69936 0.0
H4364 H 0.7093 0.91532 0.74088 0.0
H4365 H 0.71843 0.91262 0.75272 0.0
H4366 H 0.71128 0.90114 0.7458 0.0
H4367 H 0.73041 0.89158 0.74251 0.0
H4368 H 0.73762 0.90302 0.74945 0.0
H4369 H 0.74151 0.89925 0.73539 0.0
H4370 H 0.73392 0.93397 0.70913 0.0
H4371 H 0.7427 0.94778 0.72203 0.0
H4372 H 0.73654 0.92501 0.75008 0.0
C4373 C 0.71573 0.89498 0.72184 0.0
C4374 C 0.71262 0.89334 0.71047 0.0
C4375 C 0.71574 0.90159 0.70238 0.0
C4376 C 0.72169 0.91137 0.70555 0.0
C4377 C 0.72453 0.91275 0.71685 0.0
C4378 C 0.72168 0.90474 0.72486 0.0
C4379 C 0.7256 0.90825 0.73646 0.0
C4380 C 0.71555 0.9094 0.74443 0.0
C4381 C 0.7343 0.90004 0.74123 0.0
C4382 C 0.73097 0.91956 0.73377 0.0
C4383 C 0.73031 0.92201 0.72243 0.0
C4384 C 0.73455 0.93209 0.71802 0.0
C4385 C 0.73958 0.93987 0.72542 0.0
C4386 C 0.74032 0.93754 0.7371 0.0
C4387 C 0.73599 0.92718 0.74124 0.0
H4388 H 0.62217 0.79985 0.32716 0.0
H4389 H 0.64249 0.81017 0.29858 0.0
H4390 H 0.62791 0.80259 0.28573 0.0
H4391 H 0.61262 0.7739 0.31586 0.0
H4392 H 0.59867 0.7746 0.32165 0.0
H4393 H 0.61032 0.78152 0.32863 0.0
H4394 H 0.59974 0.80034 0.32774 0.0
H4395 H 0.58804 0.79347 0.32075 0.0
H4396 H 0.59478 0.80557 0.31437 0.0
H4397 H 0.61183 0.79278 0.276 0.0
H4398 H 0.5953 0.78159 0.27003 0.0
H4399 H 0.58503 0.77795 0.30486 0.0
C4400 C 0.62355 0.80054 0.3182 0.0
C4401 C 0.63348 0.80567 0.3139 0.0
C4402 C 0.63489 0.80646 0.3021 0.0
C4403 C 0.62668 0.80213 0.29472 0.0
C4404 C 0.61705 0.79706 0.29924 0.0
C4405 C 0.61542 0.79628 0.3107 0.0
C4406 C 0.60447 0.79011 0.31337 0.0
C4407 C 0.60665 0.7794 0.32029 0.0
C4408 C 0.59627 0.79783 0.31941 0.0
C4409 C 0.60031 0.78736 0.30162 0.0
C4410 C 0.60768 0.7915 0.29361 0.0
C4411 C 0.6059 0.78965 0.2822 0.0
C4412 C 0.5964 0.78334 0.27888 0.0
C4413 C 0.58869 0.77894 0.28692 0.0
C4414 C 0.59071 0.78112 0.29846 0.0
H4415 H 0.72801 0.13 0.31573 0.0
H4416 H 0.69255 0.12078 0.31321 0.0
H4417 H 0.69753 0.10345 0.30331 0.0
H4418 H 0.7358 0.11986 0.28819 0.0
H4419 H 0.74933 0.11502 0.29297 0.0
H4420 H 0.7429 0.12673 0.29974 0.0
H4421 H 0.74448 0.11643 0.31894 0.0
H4422 H 0.75083 0.10466 0.31222 0.0
H4423 H 0.73834 0.10258 0.32055 0.0
H4424 H 0.70651 0.08677 0.29407 0.0
H4425 H 0.7187 0.07237 0.28598 0.0
H4426 H 0.74815 0.09306 0.29376 0.0
C4427 C 0.72126 0.12444 0.31296 0.0
C4428 C 0.70987 0.12679 0.31531 0.0
C4429 C 0.70135 0.11913 0.31168 0.0
C4430 C 0.70409 0.10928 0.30599 0.0
C4431 C 0.71539 0.1072 0.30391 0.0
C4432 C 0.72383 0.1146 0.30724 0.0
C4433 C 0.73533 0.11037 0.30406 0.0
C4434 C 0.74118 0.11848 0.29575 0.0
C4435 C 0.74267 0.10839 0.31457 0.0
C4436 C 0.73206 0.0994 0.29849 0.0
C4437 C 0.72052 0.09771 0.29848 0.0
C4438 C 0.71555 0.08806 0.29396 0.0
C4439 C 0.72256 0.07994 0.28931 0.0
C4440 C 0.73443 0.08151 0.28919 0.0
C4441 C 0.73915 0.09145 0.29384 0.0
H4442 H 0.40319 0.20371 0.301 0.0
H4443 H 0.40445 0.21153 0.33656 0.0
H4444 H 0.42063 0.22432 0.33322 0.0
H4445 H 0.43323 0.20458 0.29618 0.0
H4446 H 0.43199 0.21111 0.28252 0.0
H4447 H 0.42078 0.20217 0.28772 0.0
H4448 H 0.40659 0.21822 0.28482 0.0
H4449 H 0.41774 0.22719 0.27954 0.0
H4450 H 0.40938 0.23164 0.29122 0.0
H4451 H 0.43633 0.23673 0.32598 0.0
H4452 H 0.45018 0.24813 0.31528 0.0
H4453 H 0.43846 0.23269 0.28435 0.0
C4454 C 0.40682 0.20813 0.30809 0.0
C4455 C 0.40254 0.20651 0.31908 0.0
C4456 C 0.40766 0.21243 0.32811 0.0
C4457 C 0.41684 0.21977 0.32628 0.0
C4458 C 0.42083 0.22116 0.31538 0.0
C4459 C 0.41598 0.21553 0.30642 0.0
C4460 C 0.42171 0.21876 0.29548 0.0
C4461 C 0.42726 0.20855 0.29016 0.0
C4462 C 0.41336 0.22428 0.28728 0.0
C4463 C 0.43048 0.22715 0.29968 0.0
C4464 C 0.42985 0.22837 0.31119 0.0
C4465 C 0.43691 0.23583 0.31696 0.0
C4466 C 0.44472 0.2423 0.3108 0.0
C4467 C 0.44543 0.24132 0.29897 0.0
C4468 C 0.43826 0.23353 0.29339 0.0
H4469 H 0.3303 0.89643 0.2969 0.0
H4470 H 0.30537 0.88921 0.32261 0.0
H4471 H 0.294 0.90494 0.3156 0.0
H4472 H 0.32828 0.92696 0.29819 0.0
H4473 H 0.33018 0.92878 0.28327 0.0
H4474 H 0.33649 0.91708 0.29048 0.0
H4475 H 0.32644 0.90337 0.27675 0.0
H4476 H 0.32008 0.91502 0.26953 0.0
H4477 H 0.31135 0.90382 0.27514 0.0
H4478 H 0.28486 0.92091 0.30519 0.0
H4479 H 0.27878 0.93599 0.2924 0.0
H4480 H 0.3103 0.93372 0.27429 0.0
C4481 C 0.32255 0.89824 0.30121 0.0
C4482 C 0.31875 0.89148 0.31032 0.0
C4483 C 0.30841 0.89409 0.31551 0.0
C4484 C 0.30192 0.90308 0.31165 0.0
C4485 C 0.30589 0.90949 0.30262 0.0
C4486 C 0.316 0.90724 0.29751 0.0
C4487 C 0.31827 0.91531 0.28783 0.0
C4488 C 0.32894 0.92246 0.29008 0.0
C4489 C 0.31908 0.909 0.27666 0.0
C4490 C 0.30777 0.92236 0.2882 0.0
C4491 C 0.30075 0.91888 0.2968 0.0
C4492 C 0.29037 0.92382 0.29853 0.0
C4493 C 0.28703 0.93248 0.29124 0.0
C4494 C 0.29406 0.93622 0.28232 0.0
C4495 C 0.30464 0.93109 0.28092 0.0
H4496 H 0.71492 0.12693 0.72802 0.0
H4497 H 0.71028 0.11655 0.69341 0.0
H4498 H 0.72033 0.09903 0.6976 0.0
H4499 H 0.74269 0.11609 0.73167 0.0
H4500 H 0.74045 0.11168 0.74601 0.0
H4501 H 0.73279 0.12334 0.74029 0.0
H4502 H 0.71396 0.11347 0.74567 0.0
H4503 H 0.72156 0.10175 0.75137 0.0
H4504 H 0.71095 0.09949 0.74068 0.0
H4505 H 0.73092 0.08258 0.70559 0.0
H4506 H 0.74167 0.06871 0.71662 0.0
H4507 H 0.73949 0.08986 0.746 0.0
C4508 C 0.71593 0.12094 0.72134 0.0
C4509 C 0.7118 0.12315 0.71037 0.0
C4510 C 0.71347 0.11513 0.70184 0.0
C4511 C 0.71911 0.10511 0.70416 0.0
C4512 C 0.72304 0.1032 0.71506 0.0
C4513 C 0.72156 0.1109 0.7235 0.0
C4514 C 0.72678 0.1069 0.73446 0.0
C4515 C 0.73624 0.11499 0.73833 0.0
C4516 C 0.71777 0.10531 0.74358 0.0
C4517 C 0.73144 0.09574 0.73085 0.0
C4518 C 0.72917 0.09375 0.71964 0.0
C4519 C 0.73275 0.08406 0.71437 0.0
C4520 C 0.7389 0.07625 0.7207 0.0
C4521 C 0.74145 0.07816 0.73219 0.0
C4522 C 0.73756 0.08803 0.7373 0.0
H4523 H 0.70976 0.8888 0.29658 0.0
H4524 H 0.70393 0.90241 0.32969 0.0
H4525 H 0.71258 0.92047 0.32365 0.0
H4526 H 0.73659 0.90274 0.29183 0.0
H4527 H 0.73388 0.90508 0.27709 0.0
H4528 H 0.72752 0.89319 0.28417 0.0
H4529 H 0.70777 0.89967 0.27769 0.0
H4530 H 0.71407 0.91161 0.27063 0.0
H4531 H 0.70331 0.91363 0.281 0.0
H4532 H 0.72137 0.93733 0.31369 0.0
H4533 H 0.72999 0.95135 0.30081 0.0
H4534 H 0.73017 0.9265 0.27436 0.0
C4535 C 0.71026 0.89558 0.30256 0.0
C4536 C 0.70615 0.89417 0.31362 0.0
C4537 C 0.70713 0.90323 0.32122 0.0
C4538 C 0.71197 0.91355 0.31785 0.0
C4539 C 0.71583 0.91467 0.30686 0.0
C4540 C 0.71508 0.90591 0.29935 0.0
C4541 C 0.71982 0.90926 0.28801 0.0
C4542 C 0.73006 0.90214 0.28511 0.0
C4543 C 0.7107 0.9085 0.27879 0.0
C4544 C 0.72326 0.92133 0.29026 0.0
C4545 C 0.72091 0.9243 0.30117 0.0
C4546 C 0.72329 0.93506 0.30514 0.0
C4547 C 0.72824 0.94296 0.29777 0.0
C4548 C 0.73076 0.94008 0.28654 0.0
C4549 C 0.72821 0.92908 0.28282 0.0
H4550 H 0.62933 0.20587 0.29916 0.0
H4551 H 0.62838 0.21858 0.33322 0.0
H4552 H 0.61151 0.22944 0.32832 0.0
H4553 H 0.62145 0.23172 0.2856 0.0
H4554 H 0.61321 0.22483 0.27482 0.0
H4555 H 0.625 0.21781 0.28115 0.0
H4556 H 0.61194 0.20099 0.28651 0.0
H4557 H 0.60009 0.208 0.28027 0.0
H4558 H 0.59952 0.20339 0.29472 0.0
H4559 H 0.59472 0.23909 0.3196 0.0
H4560 H 0.57971 0.24708 0.30765 0.0
H4561 H 0.59224 0.22869 0.27914 0.0
C4562 C 0.62567 0.21101 0.30559 0.0
C4563 C 0.63022 0.21129 0.31662 0.0
C4564 C 0.62499 0.21803 0.32478 0.0
C4565 C 0.61543 0.22429 0.32206 0.0
C4566 C 0.61117 0.22379 0.31113 0.0
C4567 C 0.61616 0.21735 0.30301 0.0
C4568 C 0.61007 0.21841 0.29183 0.0
C4569 C 0.6179 0.2235 0.28282 0.0
C4570 C 0.60511 0.20702 0.28812 0.0
C4571 C 0.60087 0.22645 0.29492 0.0
C4572 C 0.60162 0.22943 0.30609 0.0
C4573 C 0.59407 0.23683 0.31083 0.0
C4574 C 0.5856 0.24137 0.30395 0.0
C4575 C 0.58474 0.23853 0.29243 0.0
C4576 C 0.5925 0.23091 0.28794 0.0
H4577 H 0.31499 0.12749 0.30142 0.0
H4578 H 0.3241 0.10871 0.33144 0.0
H4579 H 0.31796 0.09113 0.32227 0.0
H4580 H 0.29029 0.11162 0.29475 0.0
H4581 H 0.29233 0.11224 0.27976 0.0
H4582 H 0.29786 0.12331 0.2885 0.0
H4583 H 0.31782 0.1203 0.28054 0.0
H4584 H 0.31234 0.10923 0.27174 0.0
H4585 H 0.32387 0.10655 0.28127 0.0
H4586 H 0.31016 0.07562 0.31007 0.0
H4587 H 0.30167 0.06332 0.29557 0.0
H4588 H 0.29772 0.09217 0.27349 0.0
C4589 C 0.31586 0.11966 0.30601 0.0
C4590 C 0.32001 0.1195 0.31718 0.0
C4591 C 0.32082 0.10908 0.32294 0.0
C4592 C 0.31741 0.09903 0.31777 0.0
C4593 C 0.31323 0.09951 0.30682 0.0
C4594 C 0.31248 0.10954 0.30098 0.0
C4595 C 0.30742 0.10776 0.28939 0.0
C4596 C 0.29632 0.11411 0.28803 0.0
C4597 C 0.31587 0.11116 0.28019 0.0
C4598 C 0.30537 0.09517 0.28966 0.0
C4599 C 0.30879 0.09057 0.29978 0.0
C4600 C 0.3075 0.07913 0.30209 0.0
C4601 C 0.3026 0.07222 0.29383 0.0
C4602 C 0.29905 0.07675 0.28337 0.0
C4603 C 0.30051 0.0884 0.28131 0.0
H4604 H 0.39855 0.79086 0.3199 0.0
H4605 H 0.40369 0.82496 0.30762 0.0
H4606 H 0.42085 0.81911 0.29783 0.0
H4607 H 0.42763 0.7843 0.32427 0.0
H4608 H 0.42603 0.77004 0.31953 0.0
H4609 H 0.41431 0.77697 0.32582 0.0
H4610 H 0.40207 0.77287 0.30816 0.0
H4611 H 0.41373 0.76586 0.30185 0.0
H4612 H 0.40707 0.7773 0.29454 0.0
H4613 H 0.43747 0.80939 0.28913 0.0
H4614 H 0.45186 0.79656 0.28202 0.0
H4615 H 0.43527 0.76875 0.29937 0.0
C4616 C 0.4032 0.79711 0.31508 0.0
C4617 C 0.39972 0.8084 0.3146 0.0
C4618 C 0.40623 0.8163 0.30831 0.0
C4619 C 0.41597 0.81304 0.30265 0.0
C4620 C 0.41913 0.80185 0.30332 0.0
C4621 C 0.4129 0.794 0.30935 0.0
C4622 C 0.41798 0.78246 0.30859 0.0
C4623 C 0.42171 0.7782 0.32025 0.0
C4624 C 0.40972 0.77413 0.30295 0.0
C4625 C 0.42803 0.78503 0.30117 0.0
C4626 C 0.42858 0.79626 0.29824 0.0
C4627 C 0.4371 0.80057 0.29136 0.0
C4628 C 0.44522 0.7932 0.28732 0.0
C4629 C 0.44476 0.78161 0.29013 0.0
C4630 C 0.43603 0.77756 0.2972 0.0
H4631 H 0.31976 0.89087 0.73166 0.0
H4632 H 0.31153 0.89759 0.69667 0.0
H4633 H 0.30123 0.91444 0.70227 0.0
H4634 H 0.29357 0.89971 0.74318 0.0
H4635 H 0.29998 0.90592 0.75546 0.0
H4636 H 0.30662 0.89435 0.74869 0.0
H4637 H 0.32498 0.90622 0.74657 0.0
H4638 H 0.31839 0.91785 0.75332 0.0
H4639 H 0.32449 0.91969 0.73959 0.0
H4640 H 0.29176 0.93064 0.71174 0.0
H4641 H 0.28389 0.94484 0.72436 0.0
H4642 H 0.29858 0.92767 0.75307 0.0
C4643 C 0.31589 0.89592 0.72514 0.0
C4644 C 0.31646 0.89285 0.7137 0.0
C4645 C 0.31109 0.89964 0.7055 0.0
C4646 C 0.30528 0.90929 0.70859 0.0
C4647 C 0.30491 0.91207 0.71993 0.0
C4648 C 0.31007 0.90558 0.72807 0.0
C4649 C 0.30839 0.91039 0.73968 0.0
C4650 C 0.30174 0.9021 0.74719 0.0
C4651 C 0.31974 0.91374 0.7451 0.0
C4652 C 0.3015 0.92061 0.73679 0.0
C4653 C 0.29955 0.92142 0.72535 0.0
C4654 C 0.29324 0.93008 0.72071 0.0
C4655 C 0.28877 0.93809 0.72795 0.0
C4656 C 0.29064 0.93741 0.73971 0.0
C4657 C 0.29714 0.92854 0.74412 0.0
H4658 H 0.62415 0.80048 0.69726 0.0
H4659 H 0.63957 0.81778 0.72556 0.0
H4660 H 0.62361 0.81183 0.7375 0.0
H4661 H 0.5949 0.80624 0.7042 0.0
H4662 H 0.58989 0.79261 0.69978 0.0
H4663 H 0.60208 0.79897 0.69322 0.0
H4664 H 0.61375 0.78141 0.69821 0.0
H4665 H 0.6016 0.77501 0.70476 0.0
H4666 H 0.61454 0.7767 0.71262 0.0
H4667 H 0.60661 0.80289 0.74672 0.0
H4668 H 0.59011 0.7915 0.75254 0.0
H4669 H 0.58563 0.78014 0.7182 0.0
C4670 C 0.62418 0.80305 0.70596 0.0
C4671 C 0.63314 0.80967 0.71042 0.0
C4672 C 0.63275 0.81289 0.72186 0.0
C4673 C 0.62373 0.80951 0.72873 0.0
C4674 C 0.61512 0.80292 0.72408 0.0
C4675 C 0.61526 0.79974 0.71294 0.0
C4676 C 0.6052 0.79225 0.71012 0.0
C4677 C 0.59757 0.79786 0.70131 0.0
C4678 C 0.60901 0.78066 0.7062 0.0
C4679 C 0.59951 0.79151 0.72147 0.0
C4680 C 0.60531 0.7978 0.72938 0.0
C4681 C 0.60192 0.79806 0.74056 0.0
C4682 C 0.59245 0.7916 0.74376 0.0
C4683 C 0.58646 0.78493 0.73584 0.0
C4684 C 0.59001 0.78507 0.7245 0.0
H4685 H 0.39503 0.21525 0.71793 0.0
H4686 H 0.4108 0.2017 0.68833 0.0
H4687 H 0.42907 0.20993 0.69433 0.0
H4688 H 0.41001 0.24123 0.71808 0.0
H4689 H 0.41129 0.24193 0.73316 0.0
H4690 H 0.39959 0.23444 0.72688 0.0
H4691 H 0.40487 0.21656 0.73812 0.0
H4692 H 0.4166 0.224 0.74444 0.0
H4693 H 0.4189 0.21113 0.73704 0.0
H4694 H 0.44532 0.22088 0.70277 0.0
H4695 H 0.45854 0.23297 0.7136 0.0
H4696 H 0.43239 0.23898 0.73795 0.0
C4697 C 0.40234 0.21397 0.71274 0.0
C4698 C 0.40148 0.20779 0.70267 0.0
C4699 C 0.41127 0.20626 0.69615 0.0
C4700 C 0.42168 0.21095 0.69946 0.0
C4701 C 0.42221 0.21708 0.70937 0.0
C4702 C 0.41283 0.21852 0.71597 0.0
C4703 C 0.41564 0.22565 0.72613 0.0
C4704 C 0.40872 0.23645 0.72605 0.0
C4705 C 0.4139 0.21893 0.73708 0.0
C4706 C 0.42802 0.22817 0.7241 0.0
C4707 C 0.43165 0.22316 0.71438 0.0
C4708 C 0.44261 0.22473 0.71047 0.0
C4709 C 0.45004 0.23163 0.71664 0.0
C4710 C 0.44651 0.2368 0.72665 0.0
C4711 C 0.43537 0.23495 0.73044 0.0
H4712 H 0.72607 0.69617 0.12386 0.0
H4713 H 0.70598 0.72275 0.13771 0.0
H4714 H 0.71165 0.73522 0.12202 0.0
H4715 H 0.74911 0.71371 0.11539 0.0
H4716 H 0.75184 0.70603 0.10275 0.0
H4717 H 0.74561 0.69895 0.11466 0.0
H4718 H 0.72883 0.69235 0.10219 0.0
H4719 H 0.73501 0.69943 0.09023 0.0
H4720 H 0.72085 0.70258 0.0944 0.0
H4721 H 0.72024 0.74513 0.1053 0.0
H4722 H 0.73137 0.75182 0.08909 0.0
H4723 H 0.7459 0.71882 0.08609 0.0
C4724 C 0.72286 0.70462 0.12363 0.0
C4725 C 0.71551 0.70843 0.13205 0.0
C4726 C 0.71145 0.71953 0.1313 0.0
C4727 C 0.71467 0.72671 0.12243 0.0
C4728 C 0.72196 0.72269 0.11434 0.0
C4729 C 0.72601 0.7119 0.11485 0.0
C4730 C 0.73404 0.70977 0.10529 0.0
C4731 C 0.74585 0.70695 0.10979 0.0
C4732 C 0.7294 0.70048 0.09757 0.0
C4733 C 0.73402 0.7211 0.09942 0.0
C4734 C 0.72693 0.72841 0.10472 0.0
C4735 C 0.72573 0.73944 0.10101 0.0
C4736 C 0.73204 0.74314 0.09172 0.0
C4737 C 0.73949 0.73586 0.08621 0.0
C4738 C 0.74035 0.72464 0.09011 0.0
H4739 H 0.3175 0.70524 0.12869 0.0
H4740 H 0.28671 0.6872 0.1376 0.0
H4741 H 0.27705 0.69565 0.1213 0.0
H4742 H 0.30472 0.73045 0.11952 0.0
H4743 H 0.31422 0.73294 0.10799 0.0
H4744 H 0.31888 0.72525 0.1202 0.0
H4745 H 0.32437 0.70862 0.10762 0.0
H4746 H 0.31975 0.71627 0.09535 0.0
H4747 H 0.31399 0.70248 0.09829 0.0
H4748 H 0.27044 0.70666 0.10457 0.0
H4749 H 0.26737 0.71938 0.08849 0.0
H4750 H 0.30272 0.72944 0.0896 0.0
C4751 C 0.30877 0.70294 0.12714 0.0
C4752 C 0.30286 0.6956 0.13453 0.0
C4753 C 0.29138 0.69296 0.13223 0.0
C4754 C 0.28583 0.69765 0.12293 0.0
C4755 C 0.29187 0.70491 0.11589 0.0
C4756 C 0.30309 0.70751 0.11784 0.0
C4757 C 0.30755 0.71572 0.10906 0.0
C4758 C 0.31158 0.72674 0.11452 0.0
C4759 C 0.31697 0.71046 0.10217 0.0
C4760 C 0.29704 0.71743 0.10198 0.0
C4761 C 0.2881 0.71108 0.10606 0.0
C4762 C 0.27742 0.71156 0.1012 0.0
C4763 C 0.27579 0.71876 0.09197 0.0
C4764 C 0.2848 0.72541 0.08761 0.0
C4765 C 0.2956 0.72458 0.09269 0.0
H4766 H 0.30679 0.32608 0.12248 0.0
H4767 H 0.32667 0.30088 0.13972 0.0
H4768 H 0.32233 0.28748 0.12462 0.0
H4769 H 0.28481 0.30717 0.1132 0.0
H4770 H 0.2828 0.31411 0.09984 0.0
H4771 H 0.28782 0.32198 0.11177 0.0
H4772 H 0.30527 0.32866 0.10043 0.0
H4773 H 0.3003 0.32079 0.08846 0.0
H4774 H 0.31419 0.31842 0.09412 0.0
H4775 H 0.31548 0.27658 0.10812 0.0
H4776 H 0.30634 0.2687 0.0913 0.0
H4777 H 0.29076 0.30077 0.08442 0.0
C4778 C 0.31021 0.31773 0.12311 0.0
C4779 C 0.31719 0.31461 0.13229 0.0
C4780 C 0.32153 0.3036 0.1327 0.0
C4781 C 0.31905 0.29588 0.12418 0.0
C4782 C 0.31218 0.29924 0.11528 0.0
C4783 C 0.3078 0.30988 0.11466 0.0
C4784 C 0.30046 0.31122 0.10425 0.0
C4785 C 0.28825 0.31377 0.10746 0.0
C4786 C 0.30535 0.32031 0.09635 0.0
C4787 C 0.30134 0.29964 0.09918 0.0
C4788 C 0.30819 0.2929 0.10568 0.0
C4789 C 0.31019 0.28181 0.1029 0.0
C4790 C 0.30502 0.27744 0.09323 0.0
C4791 C 0.29793 0.28413 0.08636 0.0
C4792 C 0.29611 0.29541 0.08944 0.0
H4793 H 0.71827 0.30362 0.1345 0.0
H4794 H 0.71263 0.33538 0.11746 0.0
H4795 H 0.71832 0.32704 0.09952 0.0
H4796 H 0.74264 0.29619 0.1192 0.0
H4797 H 0.73911 0.28144 0.11865 0.0
H4798 H 0.73421 0.28976 0.13012 0.0
H4799 H 0.71364 0.2836 0.12569 0.0
H4800 H 0.71848 0.27522 0.11422 0.0
H4801 H 0.70801 0.28575 0.11174 0.0
H4802 H 0.72521 0.31546 0.08352 0.0
H4803 H 0.7325 0.30131 0.07052 0.0
H4804 H 0.7336 0.27702 0.09786 0.0
C4805 C 0.71807 0.30877 0.12697 0.0
C4806 C 0.71504 0.32019 0.12742 0.0
C4807 C 0.71507 0.32667 0.11737 0.0
C4808 C 0.71823 0.32199 0.10712 0.0
C4809 C 0.72131 0.31078 0.107 0.0
C4810 C 0.72122 0.30423 0.11664 0.0
C4811 C 0.72516 0.29246 0.11423 0.0
C4812 C 0.73592 0.28981 0.12095 0.0
C4813 C 0.71576 0.28374 0.11661 0.0
C4814 C 0.72752 0.29344 0.10175 0.0
C4815 C 0.72524 0.30408 0.09775 0.0
C4816 C 0.727 0.30709 0.08655 0.0
C4817 C 0.73121 0.29901 0.07924 0.0
C4818 C 0.73361 0.28804 0.08314 0.0
C4819 C 0.73169 0.28527 0.09457 0.0
H4820 H 0.71858 0.30532 0.89101 0.0
H4821 H 0.71256 0.33654 0.90827 0.0
H4822 H 0.71938 0.32809 0.92601 0.0
H4823 H 0.70987 0.28679 0.9138 0.0
H4824 H 0.72055 0.27664 0.91104 0.0
H4825 H 0.71506 0.28511 0.89973 0.0
H4826 H 0.73529 0.29198 0.89491 0.0
H4827 H 0.74084 0.28356 0.90623 0.0
H4828 H 0.74392 0.29841 0.90569 0.0
H4829 H 0.7271 0.31631 0.94187 0.0
H4830 H 0.73492 0.30196 0.9547 0.0
H4831 H 0.73597 0.27847 0.92708 0.0
C4832 C 0.71857 0.31034 0.89854 0.0
C4833 C 0.71506 0.32162 0.89822 0.0
C4834 C 0.71534 0.32794 0.90826 0.0
C4835 C 0.71915 0.3232 0.9184 0.0
C4836 C 0.72263 0.3121 0.9184 0.0
C4837 C 0.72236 0.30574 0.90874 0.0
C4838 C 0.72672 0.29406 0.91099 0.0
C4839 C 0.7175 0.28512 0.90876 0.0
C4840 C 0.73732 0.29188 0.90404 0.0
C4841 C 0.7295 0.29485 0.92341 0.0
C4842 C 0.72708 0.30532 0.92753 0.0
C4843 C 0.72903 0.30807 0.93874 0.0
C4844 C 0.73354 0.29989 0.94595 0.0
C4845 C 0.73606 0.28907 0.94193 0.0
C4846 C 0.734 0.28659 0.93048 0.0
H4847 H 0.71088 0.72439 0.89123 0.0
H4848 H 0.70948 0.68984 0.903 0.0
H4849 H 0.71942 0.69543 0.92045 0.0
H4850 H 0.73843 0.73134 0.90267 0.0
H4851 H 0.7346 0.74539 0.90636 0.0
H4852 H 0.72779 0.73854 0.89465 0.0
H4853 H 0.70831 0.74193 0.90358 0.0
H4854 H 0.71506 0.74876 0.91533 0.0
H4855 H 0.70562 0.73699 0.91769 0.0
H4856 H 0.72894 0.70506 0.93704 0.0
H4857 H 0.7374 0.71781 0.95116 0.0
H4858 H 0.73261 0.74596 0.92834 0.0
C4859 C 0.71263 0.71798 0.89748 0.0
C4860 C 0.70938 0.70666 0.89571 0.0
C4861 C 0.71199 0.69854 0.90407 0.0
C4862 C 0.71758 0.70165 0.91404 0.0
C4863 C 0.72056 0.71291 0.91554 0.0
C4864 C 0.7182 0.72093 0.90746 0.0
C4865 C 0.72215 0.73248 0.91115 0.0
C4866 C 0.73129 0.73721 0.90324 0.0
C4867 C 0.71219 0.74051 0.91199 0.0
C4868 C 0.72698 0.72974 0.92264 0.0
C4869 C 0.72602 0.7184 0.92502 0.0
C4870 C 0.72979 0.71394 0.93522 0.0
C4871 C 0.73464 0.72125 0.94318 0.0
C4872 C 0.73568 0.73292 0.94092 0.0
C4873 C 0.73182 0.73713 0.93045 0.0
H4874 H 0.32383 0.71293 0.90121 0.0
H4875 H 0.30134 0.6855 0.89153 0.0
H4876 H 0.28892 0.68984 0.90734 0.0
H4877 H 0.32093 0.70861 0.93149 0.0
H4878 H 0.32151 0.7234 0.9345 0.0
H4879 H 0.32876 0.71808 0.92246 0.0
H4880 H 0.31801 0.73192 0.90956 0.0
H4881 H 0.31071 0.73725 0.92154 0.0
H4882 H 0.30283 0.73186 0.9097 0.0
H4883 H 0.27848 0.69765 0.92358 0.0
H4884 H 0.27087 0.70804 0.93944 0.0
H4885 H 0.30078 0.7296 0.93969 0.0
C4886 C 0.31639 0.70772 0.90249 0.0
C4887 C 0.31356 0.6989 0.895 0.0
C4888 C 0.30362 0.69243 0.89695 0.0
C4889 C 0.29654 0.69477 0.90598 0.0
C4890 C 0.29954 0.70355 0.91311 0.0
C4891 C 0.30925 0.70988 0.91153 0.0
C4892 C 0.31044 0.71892 0.92039 0.0
C4893 C 0.32104 0.71714 0.92764 0.0
C4894 C 0.3105 0.73068 0.91497 0.0
C4895 C 0.2998 0.71676 0.9271 0.0
C4896 C 0.29365 0.70785 0.92274 0.0
C4897 C 0.28331 0.70452 0.92719 0.0
C4898 C 0.27911 0.71045 0.93632 0.0
C4899 C 0.28525 0.7196 0.94106 0.0
C4900 C 0.2958 0.7227 0.93634 0.0
H4901 H 0.30107 0.31405 0.88998 0.0
H4902 H 0.33508 0.31879 0.90291 0.0
H4903 H 0.32944 0.30973 0.92079 0.0
H4904 H 0.28681 0.31952 0.9155 0.0
H4905 H 0.27594 0.30901 0.91331 0.0
H4906 H 0.28272 0.31562 0.90143 0.0
H4907 H 0.2882 0.29615 0.89389 0.0
H4908 H 0.28139 0.28947 0.90572 0.0
H4909 H 0.29595 0.2867 0.90283 0.0
H4910 H 0.31992 0.30038 0.93749 0.0
H4911 H 0.30729 0.29158 0.95158 0.0
H4912 H 0.27969 0.29256 0.92749 0.0
C4913 C 0.30738 0.31306 0.89651 0.0
C4914 C 0.31853 0.31716 0.89501 0.0
C4915 C 0.32646 0.31585 0.90388 0.0
C4916 C 0.32335 0.31066 0.91405 0.0
C4917 C 0.31228 0.30679 0.91526 0.0
C4918 C 0.30442 0.3079 0.90672 0.0
C4919 C 0.29303 0.30319 0.91021 0.0
C4920 C 0.2841 0.31239 0.9101 0.0
C4921 C 0.28944 0.29329 0.90272 0.0
C4922 C 0.29568 0.2993 0.92207 0.0
C4923 C 0.30682 0.30142 0.92483 0.0
C4924 C 0.31118 0.29864 0.93539 0.0
C4925 C 0.30395 0.29359 0.94333 0.0
C4926 C 0.29247 0.29137 0.94069 0.0
C4927 C 0.28836 0.29427 0.92987 0.0
H4928 H 0.62795 0.69925 0.21678 0.0
H4929 H 0.6347 0.72824 0.1954 0.0
H4930 H 0.61874 0.738 0.20382 0.0
H4931 H 0.59754 0.70094 0.21587 0.0
H4932 H 0.59573 0.69678 0.23035 0.0
H4933 H 0.60765 0.69194 0.2226 0.0
H4934 H 0.62118 0.70013 0.23773 0.0
H4935 H 0.6093 0.70497 0.24554 0.0
H4936 H 0.62028 0.71473 0.24138 0.0
H4937 H 0.60244 0.74487 0.21481 0.0
H4938 H 0.58694 0.74852 0.2278 0.0
H4939 H 0.59008 0.71489 0.24174 0.0
C4940 C 0.62609 0.70767 0.21391 0.0
C4941 C 0.63254 0.71294 0.20534 0.0
C4942 C 0.62978 0.72394 0.20179 0.0
C4943 C 0.62075 0.72958 0.20656 0.0
C4944 C 0.61451 0.72413 0.21489 0.0
C4945 C 0.61703 0.71342 0.21855 0.0
C4946 C 0.60896 0.70953 0.22768 0.0
C4947 C 0.60206 0.69919 0.22389 0.0
C4948 C 0.61531 0.70721 0.23874 0.0
C4949 C 0.60159 0.71976 0.22861 0.0
C4950 C 0.60494 0.72806 0.22115 0.0
C4951 C 0.59965 0.73839 0.22062 0.0
C4952 C 0.59074 0.74033 0.22799 0.0
C4953 C 0.58711 0.73198 0.23579 0.0
C4954 C 0.59262 0.72151 0.23597 0.0
H4955 H 0.30479 0.62261 0.21617 0.0
H4956 H 0.33795 0.61483 0.22943 0.0
H4957 H 0.33006 0.59796 0.23875 0.0
H4958 H 0.2896 0.61455 0.24086 0.0
H4959 H 0.27768 0.60878 0.23328 0.0
H4960 H 0.28604 0.61993 0.2271 0.0
H4961 H 0.28942 0.60768 0.20961 0.0
H4962 H 0.2811 0.59646 0.21576 0.0
H4963 H 0.29533 0.59394 0.2114 0.0
H4964 H 0.31849 0.58232 0.24732 0.0
H4965 H 0.30399 0.56907 0.25453 0.0
H4966 H 0.27826 0.58716 0.23612 0.0
C4967 C 0.31041 0.61738 0.22104 0.0
C4968 C 0.32205 0.62005 0.22195 0.0
C4969 C 0.32907 0.61289 0.22837 0.0
C4970 C 0.32465 0.6033 0.23377 0.0
C4971 C 0.31317 0.60094 0.23272 0.0
C4972 C 0.30613 0.60777 0.22651 0.0
C4973 C 0.29403 0.6035 0.22699 0.0
C4974 C 0.28639 0.61221 0.23238 0.0
C4975 C 0.28972 0.6002 0.21524 0.0
C4976 C 0.29537 0.59327 0.23451 0.0
C4977 C 0.30648 0.59193 0.23769 0.0
C4978 C 0.30976 0.58326 0.24486 0.0
C4979 C 0.30146 0.57581 0.24895 0.0
C4980 C 0.28999 0.57705 0.24589 0.0
C4981 C 0.28697 0.58587 0.23849 0.0
H4982 H 0.4026 0.31917 0.21461 0.0
H4983 H 0.38093 0.28949 0.21379 0.0
H4984 H 0.39515 0.27894 0.22448 0.0
H4985 H 0.42861 0.30495 0.21117 0.0
H4986 H 0.43657 0.31382 0.22064 0.0
H4987 H 0.42456 0.31929 0.21321 0.0
H4988 H 0.41564 0.32497 0.23208 0.0
H4989 H 0.42766 0.31957 0.23956 0.0
H4990 H 0.41368 0.31454 0.24298 0.0
H4991 H 0.41168 0.27141 0.23478 0.0
H4992 H 0.42944 0.26741 0.24466 0.0
H4993 H 0.44085 0.30178 0.2389 0.0
C4994 C 0.40081 0.31049 0.21681 0.0
C4995 C 0.39067 0.30513 0.21328 0.0
C4996 C 0.38869 0.29373 0.21624 0.0
C4997 C 0.3967 0.28767 0.22236 0.0
C4998 C 0.40667 0.29312 0.22552 0.0
C4999 C 0.40876 0.30428 0.22292 0.0
C5000 C 0.4203 0.308 0.22723 0.0
C5001 C 0.42796 0.31173 0.21748 0.0
C5002 C 0.41925 0.31732 0.23599 0.0
C5003 C 0.42434 0.29717 0.2326 0.0
C5004 C 0.41631 0.28872 0.2315 0.0
C5005 C 0.41805 0.27795 0.23568 0.0
C5006 C 0.42824 0.27573 0.24119 0.0
C5007 C 0.43665 0.28423 0.24248 0.0
C5008 C 0.43461 0.29511 0.23811 0.0
H5009 H 0.71741 0.39053 0.23157 0.0
H5010 H 0.71595 0.40165 0.19677 0.0
H5011 H 0.72615 0.41913 0.20188 0.0
H5012 H 0.71269 0.41732 0.24381 0.0
H5013 H 0.72221 0.41511 0.25546 0.0
H5014 H 0.71515 0.40331 0.24899 0.0
H5015 H 0.7344 0.39413 0.24539 0.0
H5016 H 0.74152 0.40588 0.25189 0.0
H5017 H 0.74513 0.40188 0.23781 0.0
H5018 H 0.7361 0.43572 0.21096 0.0
H5019 H 0.74526 0.44987 0.22321 0.0
H5020 H 0.74017 0.42782 0.25202 0.0
C5021 C 0.71918 0.39665 0.22501 0.0
C5022 C 0.71587 0.39467 0.21375 0.0
C5023 C 0.71852 0.40287 0.20543 0.0
C5024 C 0.72425 0.41287 0.20826 0.0
C5025 C 0.72731 0.41456 0.21946 0.0
C5026 C 0.7249 0.40666 0.22769 0.0
C5027 C 0.72904 0.41054 0.23911 0.0
C5028 C 0.71918 0.41164 0.24732 0.0
C5029 C 0.73806 0.40264 0.24382 0.0
C5030 C 0.73407 0.42191 0.23604 0.0
C5031 C 0.73301 0.42408 0.22466 0.0
C5032 C 0.73701 0.43408 0.21988 0.0
C5033 C 0.74225 0.44205 0.2269 0.0
C5034 C 0.74344 0.44 0.2386 0.0
C5035 C 0.73926 0.42976 0.24316 0.0
H5036 H 0.63026 0.31443 0.80639 0.0
H5037 H 0.63436 0.28663 0.82981 0.0
H5038 H 0.61813 0.27684 0.82113 0.0
H5039 H 0.5995 0.31359 0.80615 0.0
H5040 H 0.59847 0.31708 0.79142 0.0
H5041 H 0.61035 0.32207 0.79958 0.0
H5042 H 0.62394 0.31291 0.78555 0.0
H5043 H 0.6121 0.30789 0.77737 0.0
H5044 H 0.6224 0.29816 0.78257 0.0
H5045 H 0.60198 0.26967 0.80952 0.0
H5046 H 0.58687 0.26563 0.79583 0.0
H5047 H 0.59232 0.29851 0.78056 0.0
C5048 C 0.62767 0.30635 0.80979 0.0
C5049 C 0.6337 0.30129 0.81875 0.0
C5050 C 0.63007 0.29062 0.82282 0.0
C5051 C 0.62078 0.28501 0.81801 0.0
C5052 C 0.6151 0.29019 0.80916 0.0
C5053 C 0.61836 0.30063 0.80511 0.0
C5054 C 0.61086 0.30423 0.79539 0.0
C5055 C 0.60441 0.31487 0.79831 0.0
C5056 C 0.61774 0.30589 0.78458 0.0
C5057 C 0.60298 0.29411 0.79456 0.0
C5058 C 0.60557 0.28613 0.8026 0.0
C5059 C 0.59975 0.27591 0.80328 0.0
C5060 C 0.59109 0.27375 0.79549 0.0
C5061 C 0.58822 0.28177 0.78712 0.0
C5062 C 0.59426 0.29214 0.78677 0.0
H5063 H 0.7214 0.61728 0.82504 0.0
H5064 H 0.70433 0.63306 0.79682 0.0
H5065 H 0.71077 0.61803 0.78441 0.0
H5066 H 0.74571 0.60956 0.81009 0.0
H5067 H 0.74745 0.59643 0.81746 0.0
H5068 H 0.74074 0.60792 0.82429 0.0
H5069 H 0.7232 0.59528 0.8282 0.0
H5070 H 0.72986 0.58374 0.82136 0.0
H5071 H 0.71619 0.58828 0.81668 0.0
H5072 H 0.72011 0.6019 0.77479 0.0
H5073 H 0.73176 0.58617 0.76872 0.0
H5074 H 0.74266 0.58082 0.80323 0.0
C5075 C 0.71899 0.6176 0.81626 0.0
C5076 C 0.7123 0.62639 0.81195 0.0
C5077 C 0.70927 0.62636 0.8004 0.0
C5078 C 0.71294 0.61787 0.79325 0.0
C5079 C 0.71961 0.60941 0.79777 0.0
C5080 C 0.72258 0.6092 0.80901 0.0
C5081 C 0.73019 0.59943 0.81167 0.0
C5082 C 0.7417 0.60359 0.81614 0.0
C5083 C 0.72452 0.5912 0.81997 0.0
C5084 C 0.73121 0.5943 0.80012 0.0
C5085 C 0.72497 0.60013 0.79223 0.0
C5086 C 0.72492 0.5972 0.78092 0.0
C5087 C 0.73152 0.58817 0.77757 0.0
C5088 C 0.73812 0.58215 0.78547 0.0
C5089 C 0.73779 0.58524 0.79693 0.0
H5090 H 0.40271 0.69396 0.79991 0.0
H5091 H 0.3944 0.71881 0.82484 0.0
H5092 H 0.40987 0.73106 0.81793 0.0
H5093 H 0.43331 0.69815 0.80175 0.0
H5094 H 0.43522 0.69603 0.78692 0.0
H5095 H 0.42373 0.68908 0.79411 0.0
H5096 H 0.40961 0.69774 0.77992 0.0
H5097 H 0.42104 0.70475 0.77272 0.0
H5098 H 0.40948 0.71275 0.77794 0.0
H5099 H 0.42561 0.74108 0.80751 0.0
H5100 H 0.44039 0.74794 0.79461 0.0
H5101 H 0.43929 0.71594 0.77742 0.0
C5102 C 0.40425 0.70187 0.80409 0.0
C5103 C 0.39726 0.70539 0.81294 0.0
C5104 C 0.39948 0.71596 0.81796 0.0
C5105 C 0.40832 0.72295 0.81415 0.0
C5106 C 0.41497 0.71924 0.80536 0.0
C5107 C 0.41308 0.70891 0.80046 0.0
C5108 C 0.42126 0.70701 0.79097 0.0
C5109 C 0.42883 0.69697 0.7936 0.0
C5110 C 0.41497 0.70547 0.77972 0.0
C5111 C 0.42792 0.71796 0.79118 0.0
C5112 C 0.42418 0.72489 0.79955 0.0
C5113 C 0.42872 0.73564 0.80103 0.0
C5114 C 0.4372 0.73944 0.79369 0.0
C5115 C 0.44114 0.7325 0.78497 0.0
C5116 C 0.43647 0.72155 0.78388 0.0
H5117 H 0.31609 0.39124 0.79289 0.0
H5118 H 0.31884 0.40065 0.82797 0.0
H5119 H 0.30815 0.4178 0.82392 0.0
H5120 H 0.31935 0.41927 0.78134 0.0
H5121 H 0.30932 0.41695 0.77012 0.0
H5122 H 0.3172 0.40538 0.77575 0.0
H5123 H 0.2986 0.39452 0.77996 0.0
H5124 H 0.29066 0.40603 0.77431 0.0
H5125 H 0.288 0.401 0.78838 0.0
H5126 H 0.29715 0.434 0.81606 0.0
H5127 H 0.28629 0.44779 0.80505 0.0
H5128 H 0.29063 0.42787 0.77509 0.0
C5129 C 0.31453 0.39695 0.79971 0.0
C5130 C 0.3183 0.39454 0.81078 0.0
C5131 C 0.31592 0.40219 0.81947 0.0
C5132 C 0.30992 0.41201 0.81723 0.0
C5133 C 0.30634 0.41412 0.80625 0.0
C5134 C 0.30853 0.4068 0.79763 0.0
C5135 C 0.3036 0.41097 0.7866 0.0
C5136 C 0.31293 0.41328 0.77795 0.0
C5137 C 0.29469 0.40263 0.78205 0.0
C5138 C 0.29828 0.42177 0.79037 0.0
C5139 C 0.29999 0.42344 0.80173 0.0
C5140 C 0.29576 0.43276 0.80716 0.0
C5141 C 0.28954 0.44053 0.80084 0.0
C5142 C 0.28757 0.43895 0.78919 0.0
C5143 C 0.29211 0.42944 0.78393 0.0
H5144 H 0.71759 0.62798 0.22787 0.0
H5145 H 0.71259 0.61763 0.19329 0.0
H5146 H 0.72341 0.6005 0.19714 0.0
H5147 H 0.74588 0.61812 0.23084 0.0
H5148 H 0.7441 0.61354 0.2452 0.0
H5149 H 0.73592 0.62496 0.23972 0.0
H5150 H 0.71754 0.61441 0.24542 0.0
H5151 H 0.72567 0.60294 0.25088 0.0
H5152 H 0.71492 0.60038 0.2404 0.0
H5153 H 0.73471 0.58437 0.20479 0.0
H5154 H 0.746 0.57073 0.21555 0.0
H5155 H 0.74379 0.59166 0.24509 0.0
C5156 C 0.71869 0.62207 0.22112 0.0
C5157 C 0.71424 0.62419 0.21026 0.0
C5158 C 0.71603 0.61629 0.20164 0.0
C5159 C 0.7221 0.60649 0.20376 0.0
C5160 C 0.72636 0.60467 0.21455 0.0
C5161 C 0.72476 0.61225 0.22308 0.0
C5162 C 0.73035 0.60837 0.2339 0.0
C5163 C 0.73961 0.61675 0.23763 0.0
C5164 C 0.7216 0.60641 0.2432 0.0
C5165 C 0.73532 0.59741 0.23012 0.0
C5166 C 0.73291 0.59542 0.21894 0.0
C5167 C 0.73667 0.58586 0.21355 0.0
C5168 C 0.74314 0.57818 0.21972 0.0
C5169 C 0.74582 0.58008 0.23118 0.0
C5170 C 0.74177 0.58984 0.23641 0.0
H5171 H 0.71163 0.38984 0.79407 0.0
H5172 H 0.70437 0.40372 0.82676 0.0
H5173 H 0.71346 0.42166 0.82103 0.0
H5174 H 0.73878 0.40335 0.79062 0.0
H5175 H 0.7369 0.40568 0.77575 0.0
H5176 H 0.72997 0.39393 0.78252 0.0
H5177 H 0.7107 0.40074 0.77499 0.0
H5178 H 0.71758 0.41254 0.76823 0.0
H5179 H 0.70632 0.41479 0.77799 0.0
H5180 H 0.72303 0.4383 0.8115 0.0
H5181 H 0.73267 0.45209 0.79909 0.0
H5182 H 0.7338 0.42715 0.77278 0.0
C5183 C 0.71189 0.39667 0.80001 0.0
C5184 C 0.70727 0.39535 0.81088 0.0
C5185 C 0.70796 0.40446 0.81845 0.0
C5186 C 0.71304 0.41471 0.81524 0.0
C5187 C 0.71745 0.41573 0.80445 0.0
C5188 C 0.71696 0.40693 0.79697 0.0
C5189 C 0.72235 0.41016 0.78589 0.0
C5190 C 0.73261 0.40285 0.78356 0.0
C5191 C 0.71372 0.40952 0.7762 0.0
C5192 C 0.72588 0.42218 0.78826 0.0
C5193 C 0.72299 0.42525 0.79901 0.0
C5194 C 0.72538 0.43597 0.80308 0.0
C5195 C 0.7309 0.44373 0.79598 0.0
C5196 C 0.73399 0.44076 0.78493 0.0
C5197 C 0.73141 0.4298 0.78109 0.0
H5198 H 0.62051 0.69438 0.80461 0.0
H5199 H 0.64016 0.72293 0.81668 0.0
H5200 H 0.62537 0.73566 0.80992 0.0
H5201 H 0.61099 0.70728 0.77938 0.0
H5202 H 0.59717 0.70081 0.77969 0.0
H5203 H 0.6089 0.69385 0.78619 0.0
H5204 H 0.5981 0.69273 0.80502 0.0
H5205 H 0.58633 0.69969 0.79857 0.0
H5206 H 0.5928 0.70539 0.81107 0.0
H5207 H 0.60913 0.74539 0.80071 0.0
H5208 H 0.59263 0.75147 0.78982 0.0
H5209 H 0.58315 0.71662 0.78402 0.0
C5210 C 0.62171 0.70331 0.80586 0.0
C5211 C 0.63152 0.70762 0.81125 0.0
C5212 C 0.63267 0.71937 0.81277 0.0
C5213 C 0.62433 0.72669 0.8089 0.0
C5214 C 0.61483 0.72215 0.80356 0.0
C5215 C 0.61345 0.71074 0.80207 0.0
C5216 C 0.60262 0.70807 0.79572 0.0
C5217 C 0.60507 0.70215 0.78458 0.0
C5218 C 0.59448 0.70106 0.80303 0.0
C5219 C 0.59824 0.71979 0.79369 0.0
C5220 C 0.60539 0.72778 0.79834 0.0
C5221 C 0.60338 0.73921 0.79718 0.0
C5222 C 0.59388 0.74257 0.79103 0.0
C5223 C 0.58641 0.73456 0.7861 0.0
C5224 C 0.58864 0.723 0.7876 0.0
H5225 H 0.30667 0.61377 0.81801 0.0
H5226 H 0.32512 0.6327 0.79258 0.0
H5227 H 0.3199 0.61843 0.77852 0.0
H5228 H 0.31331 0.58598 0.80795 0.0
H5229 H 0.29954 0.58019 0.81103 0.0
H5230 H 0.30521 0.59159 0.81929 0.0
H5231 H 0.28755 0.60331 0.81474 0.0
H5232 H 0.28183 0.59195 0.80647 0.0
H5233 H 0.28359 0.60572 0.80028 0.0
H5234 H 0.31196 0.60265 0.76699 0.0
H5235 H 0.30179 0.58655 0.75872 0.0
H5236 H 0.28849 0.57763 0.79157 0.0
C5237 C 0.30961 0.61494 0.80949 0.0
C5238 C 0.31639 0.62437 0.80646 0.0
C5239 C 0.32011 0.62548 0.7952 0.0
C5240 C 0.31713 0.61744 0.78712 0.0
C5241 C 0.31042 0.6083 0.79039 0.0
C5242 C 0.3067 0.60699 0.8013 0.0
C5243 C 0.29931 0.59654 0.80252 0.0
C5244 C 0.30467 0.58808 0.81068 0.0
C5245 C 0.28736 0.59956 0.80622 0.0
C5246 C 0.29934 0.59227 0.79055 0.0
C5247 C 0.30585 0.59915 0.78372 0.0
C5248 C 0.30695 0.59713 0.77228 0.0
C5249 C 0.30119 0.58786 0.76768 0.0
C5250 C 0.2944 0.58067 0.77447 0.0
C5251 C 0.29356 0.58293 0.7861 0.0
H5252 H 0.40301 0.31809 0.80408 0.0
H5253 H 0.39617 0.28961 0.82611 0.0
H5254 H 0.41152 0.27926 0.8173 0.0
H5255 H 0.40947 0.30198 0.77943 0.0
H5256 H 0.42058 0.31139 0.77481 0.0
H5257 H 0.40906 0.31666 0.78287 0.0
H5258 H 0.42322 0.32475 0.79749 0.0
H5259 H 0.43478 0.31947 0.78949 0.0
H5260 H 0.43328 0.31558 0.80408 0.0
H5261 H 0.4273 0.27179 0.80597 0.0
H5262 H 0.44245 0.26761 0.79274 0.0
H5263 H 0.43972 0.30108 0.77832 0.0
C5264 C 0.40471 0.30965 0.807 0.0
C5265 C 0.39842 0.3047 0.81586 0.0
C5266 C 0.40097 0.29366 0.81947 0.0
C5267 C 0.40965 0.28768 0.81449 0.0
C5268 C 0.41575 0.29283 0.80587 0.0
C5269 C 0.41342 0.30356 0.80214 0.0
C5270 C 0.42132 0.3071 0.79273 0.0
C5271 C 0.41471 0.30942 0.78181 0.0
C5272 C 0.42858 0.31733 0.79615 0.0
C5273 C 0.42839 0.29667 0.79175 0.0
C5274 C 0.42502 0.28855 0.79941 0.0
C5275 C 0.43009 0.27812 0.79999 0.0
C5276 C 0.4388 0.27587 0.79248 0.0
C5277 C 0.44245 0.28402 0.78449 0.0
C5278 C 0.43715 0.2946 0.78423 0.0
H5279 H 0.32365 0.40408 0.22282 0.0
H5280 H 0.29575 0.38255 0.21221 0.0
H5281 H 0.28234 0.39638 0.21918 0.0
H5282 H 0.31128 0.41308 0.24833 0.0
H5283 H 0.31679 0.42724 0.24739 0.0
H5284 H 0.32427 0.41596 0.24101 0.0
H5285 H 0.32373 0.4264 0.22184 0.0
H5286 H 0.31625 0.43773 0.22817 0.0
H5287 H 0.31038 0.43069 0.21607 0.0
H5288 H 0.27195 0.41187 0.22831 0.0
H5289 H 0.26519 0.4281 0.23869 0.0
H5290 H 0.29972 0.44012 0.24299 0.0
C5291 C 0.31472 0.40228 0.22195 0.0
C5292 C 0.31077 0.39222 0.21689 0.0
C5293 C 0.299 0.39025 0.21586 0.0
C5294 C 0.2913 0.39804 0.21985 0.0
C5295 C 0.29547 0.40781 0.22483 0.0
C5296 C 0.30689 0.40999 0.22586 0.0
C5297 C 0.30912 0.42104 0.23179 0.0
C5298 C 0.31575 0.41922 0.24278 0.0
C5299 C 0.31523 0.42946 0.224 0.0
C5300 C 0.29716 0.42463 0.23408 0.0
C5301 C 0.28944 0.41688 0.22997 0.0
C5302 C 0.27791 0.41809 0.23141 0.0
C5303 C 0.27415 0.42745 0.23726 0.0
C5304 C 0.28186 0.4356 0.24158 0.0
C5305 C 0.29355 0.43412 0.23986 0.0
H5306 H 0.62621 0.30268 0.20107 0.0
H5307 H 0.64199 0.3209 0.22861 0.0
H5308 H 0.62623 0.3153 0.24094 0.0
H5309 H 0.59728 0.30874 0.208 0.0
H5310 H 0.59207 0.29499 0.20417 0.0
H5311 H 0.6043 0.30091 0.1973 0.0
H5312 H 0.61579 0.28345 0.20298 0.0
H5313 H 0.60359 0.27746 0.20983 0.0
H5314 H 0.61659 0.27931 0.21757 0.0
H5315 H 0.60915 0.30709 0.25053 0.0
H5316 H 0.59227 0.29654 0.25679 0.0
H5317 H 0.58755 0.28358 0.22307 0.0
C5318 C 0.6264 0.30548 0.2097 0.0
C5319 C 0.63537 0.31231 0.21381 0.0
C5320 C 0.63516 0.31585 0.22516 0.0
C5321 C 0.62626 0.31266 0.23226 0.0
C5322 C 0.61759 0.30592 0.22793 0.0
C5323 C 0.61759 0.30235 0.21692 0.0
C5324 C 0.60743 0.29487 0.21446 0.0
C5325 C 0.59982 0.3002 0.20545 0.0
C5326 C 0.61107 0.28308 0.21101 0.0
C5327 C 0.60179 0.29467 0.22584 0.0
C5328 C 0.60775 0.30116 0.23347 0.0
C5329 C 0.60435 0.30207 0.2446 0.0
C5330 C 0.59467 0.2961 0.24806 0.0
C5331 C 0.58847 0.28926 0.24043 0.0
C5332 C 0.59209 0.28867 0.22914 0.0
H5333 H 0.39764 0.70015 0.21933 0.0
H5334 H 0.39343 0.72759 0.19551 0.0
H5335 H 0.41023 0.73712 0.2034 0.0
H5336 H 0.40661 0.71667 0.24249 0.0
H5337 H 0.41685 0.70684 0.2476 0.0
H5338 H 0.40469 0.70189 0.23986 0.0
H5339 H 0.41767 0.69217 0.22565 0.0
H5340 H 0.42988 0.69707 0.23337 0.0
H5341 H 0.4285 0.70028 0.21861 0.0
H5342 H 0.42684 0.74419 0.21439 0.0
H5343 H 0.4423 0.74826 0.22767 0.0
H5344 H 0.43664 0.7158 0.24376 0.0
C5345 C 0.40034 0.70809 0.21566 0.0
C5346 C 0.39411 0.71315 0.20684 0.0
C5347 C 0.39789 0.72362 0.2024 0.0
C5348 C 0.40749 0.72908 0.20676 0.0
C5349 C 0.41334 0.72393 0.21552 0.0
C5350 C 0.40996 0.71365 0.2199 0.0
C5351 C 0.41765 0.7101 0.22948 0.0
C5352 C 0.41106 0.7088 0.24051 0.0
C5353 C 0.42379 0.69926 0.2266 0.0
C5354 C 0.42576 0.72008 0.22989 0.0
C5355 C 0.42312 0.72792 0.22174 0.0
C5356 C 0.4291 0.73803 0.22071 0.0
C5357 C 0.43796 0.74022 0.22827 0.0
C5358 C 0.44087 0.73233 0.23676 0.0
C5359 C 0.43468 0.72207 0.23745 0.0
loop_
_geom_bond_atom_site_label_1
_geom_bond_atom_site_label_2
_geom_bond_distance
_geom_bond_site_symmetry_2
_ccdc_geom_bond_type
C0 C1 1.264 . S
C0 C5 1.479 . S
C0 C10 1.465 . S
C1 C0 1.264 . S
C1 C3 1.339 . S
C1 H28 0.931 . S
C2 C3 1.395 . S
C2 C4 1.320 . S
C3 C1 1.339 . S
C3 C2 1.395 . S
C3 H29 0.929 . S
C4 C2 1.320 . S
C4 C5 1.405 . S
C4 H30 0.930 . S
C5 C0 1.479 . S
C5 C4 1.405 . S
C5 H31 0.931 . S
U6 O7 2.454 . S
U6 O8 2.458 . S
U6 C9 2.984 . S
U6 C10 2.847 . S
U6 C23 2.882 . S
U6 O24 2.441 . S
U6 O25 2.420 . S
U6 O26 2.455 . S
U6 O27 2.449 . S
O7 U6 2.454 . S
O7 C9 1.353 . S
O8 U6 2.458 . S
O8 C9 1.286 . S
C9 U6 2.984 . S
C9 O7 1.353 . S
C9 O8 1.286 . S
C9 C11 1.363 . S
C10 C0 1.465 . S
C10 U6 2.847 . S
C10 O24 1.249 . S
C10 O25 1.202 . S
C11 C9 1.363 . S
C11 C13 1.408 . S
C11 C16 1.342 . S
C12 C13 1.310 . S
C12 C15 1.461 . S
C12 H32 0.932 . S
C13 C11 1.408 . S
C13 C12 1.310 . S
C13 H33 0.930 . S
C14 C15 1.474 . S
C14 C16 1.285 . S
C14 H34 0.929 . S
C15 C12 1.461 . S
C15 C14 1.474 . S
C16 C11 1.342 . S
C16 C14 1.285 . S
C16 H35 0.930 . S
C17 C20 1.424 . S
C17 C22 1.245 . S
C17 C23 1.428 . S
C18 C21 1.260 . S
C18 C22 1.477 . S
C18 H36 0.932 . S
C19 C20 1.384 . S
C19 C21 1.479 . S
C19 H37 0.929 . S
C20 C17 1.424 . S
C20 C19 1.384 . S
C20 H38 0.928 . S
C21 C18 1.260 . S
C21 C19 1.479 . S
C22 C17 1.245 . S
C22 C18 1.477 . S
C22 H39 0.932 . S
C23 U6 2.882 . S
C23 C17 1.428 . S
C23 O26 1.301 . S
C23 O27 1.282 . S
O24 U6 2.441 . S
O24 C10 1.249 . S
O25 U6 2.420 . S
O25 C10 1.202 . S
O26 U6 2.455 . S
O26 C23 1.301 . S
O27 U6 2.449 . S
O27 C23 1.282 . S
H28 C1 0.931 . S
H29 C3 0.929 . S
H30 C4 0.930 . S
H31 C5 0.931 . S
H32 C12 0.932 . S
H33 C13 0.930 . S
H34 C14 0.929 . S
H35 C16 0.930 . S
H36 C18 0.932 . S
H37 C19 0.929 . S
H38 C20 0.928 . S
H39 C22 0.932 . S
C40 C41 1.264 . S
C40 C45 1.479 . S
C40 C50 1.465 . S
C41 C40 1.264 . S
C41 C43 1.339 . S
C41 H68 0.931 . S
C42 C43 1.395 . S
C42 C44 1.320 . S
C43 C41 1.339 . S
C43 C42 1.395 . S
C43 H69 0.929 . S
C44 C42 1.320 . S
C44 C45 1.405 . S
C44 H70 0.930 . S
C45 C40 1.479 . S
C45 C44 1.405 . S
C45 H71 0.931 . S
U46 O47 2.454 . S
U46 O48 2.458 . S
U46 C49 2.984 . S
U46 C50 2.847 . S
U46 C63 2.882 . S
U46 O64 2.441 . S
U46 O65 2.420 . S
U46 O66 2.455 . S
U46 O67 2.449 . S
O47 U46 2.454 . S
O47 C49 1.353 . S
O48 U46 2.458 . S
O48 C49 1.286 . S
C49 U46 2.984 . S
C49 O47 1.353 . S
C49 O48 1.286 . S
C49 C51 1.363 . S
C50 C40 1.465 . S
C50 U46 2.847 . S
C50 O64 1.249 . S
C50 O65 1.202 . S
C51 C49 1.363 . S
C51 C53 1.408 . S
C51 C56 1.342 . S
C52 C53 1.310 . S
C52 C55 1.461 . S
C52 H72 0.932 . S
C53 C51 1.408 . S
C53 C52 1.310 . S
C53 H73 0.930 . S
C54 C55 1.474 . S
C54 C56 1.285 . S
C54 H74 0.929 . S
C55 C52 1.461 . S
C55 C54 1.474 . S
C56 C51 1.342 . S
C56 C54 1.285 . S
C56 H75 0.930 . S
C57 C60 1.424 . S
C57 C62 1.245 . S
C57 C63 1.428 . S
C58 C61 1.260 . S
C58 C62 1.477 . S
C58 H76 0.932 . S
C59 C60 1.384 . S
C59 C61 1.479 . S
C59 H77 0.929 . S
C60 C57 1.424 . S
C60 C59 1.384 . S
C60 H78 0.928 . S
C61 C58 1.260 . S
C61 C59 1.479 . S
C62 C57 1.245 . S
C62 C58 1.477 . S
C62 H79 0.932 . S
C63 U46 2.882 . S
C63 C57 1.428 . S
C63 O66 1.301 . S
C63 O67 1.282 . S
O64 U46 2.441 . S
O64 C50 1.249 . S
O65 U46 2.420 . S
O65 C50 1.202 . S
O66 U46 2.455 . S
O66 C63 1.301 . S
O67 U46 2.449 . S
O67 C63 1.282 . S
H68 C41 0.931 . S
H69 C43 0.929 . S
H70 C44 0.930 . S
H71 C45 0.931 . S
H72 C52 0.932 . S
H73 C53 0.930 . S
H74 C54 0.929 . S
H75 C56 0.930 . S
H76 C58 0.932 . S
H77 C59 0.929 . S
H78 C60 0.928 . S
H79 C62 0.932 . S
C80 C81 1.264 . S
C80 C85 1.479 . S
C80 C90 1.465 . S
C81 C80 1.264 . S
C81 C83 1.339 . S
C81 H108 0.931 . S
C82 C83 1.395 . S
C82 C84 1.320 . S
C83 C81 1.339 . S
C83 C82 1.395 . S
C83 H109 0.929 . S
C84 C82 1.320 . S
C84 C85 1.405 . S
C84 H110 0.930 . S
C85 C80 1.479 . S
C85 C84 1.405 . S
C85 H111 0.931 . S
U86 O87 2.454 . S
U86 O88 2.458 . S
U86 C89 2.984 . S
U86 C90 2.847 . S
U86 C103 2.882 . S
U86 O104 2.441 . S
U86 O105 2.420 . S
U86 O106 2.455 . S
U86 O107 2.449 . S
O87 U86 2.454 . S
O87 C89 1.353 . S
O88 U86 2.458 . S
O88 C89 1.286 . S
C89 U86 2.984 . S
C89 O87 1.353 . S
C89 O88 1.286 . S
C89 C91 1.363 . S
C90 C80 1.465 . S
C90 U86 2.847 . S
C90 O104 1.249 . S
C90 O105 1.202 . S
C91 C89 1.363 . S
C91 C93 1.408 . S
C91 C96 1.342 . S
C92 C93 1.310 . S
C92 C95 1.461 . S
C92 H112 0.932 . S
C93 C91 1.408 . S
C93 C92 1.310 . S
C93 H113 0.930 . S
C94 C95 1.474 . S
C94 C96 1.285 . S
C94 H114 0.929 . S
C95 C92 1.461 . S
C95 C94 1.474 . S
C96 C91 1.342 . S
C96 C94 1.285 . S
C96 H115 0.930 . S
C97 C100 1.424 . S
C97 C102 1.245 . S
C97 C103 1.428 . S
C98 C101 1.260 . S
C98 C102 1.477 . S
C98 H116 0.932 . S
C99 C100 1.384 . S
C99 C101 1.479 . S
C99 H117 0.929 . S
C100 C97 1.424 . S
C100 C99 1.384 . S
C100 H118 0.928 . S
C101 C98 1.260 . S
C101 C99 1.479 . S
C102 C97 1.245 . S
C102 C98 1.477 . S
C102 H119 0.932 . S
C103 U86 2.882 . S
C103 C97 1.428 . S
C103 O106 1.301 . S
C103 O107 1.282 . S
O104 U86 2.441 . S
O104 C90 1.249 . S
O105 U86 2.420 . S
O105 C90 1.202 . S
O106 U86 2.455 . S
O106 C103 1.301 . S
O107 U86 2.449 . S
O107 C103 1.282 . S
H108 C81 0.931 . S
H109 C83 0.929 . S
H110 C84 0.930 . S
H111 C85 0.931 . S
H112 C92 0.932 . S
H113 C93 0.930 . S
H114 C94 0.929 . S
H115 C96 0.930 . S
H116 C98 0.932 . S
H117 C99 0.929 . S
H118 C100 0.928 . S
H119 C102 0.932 . S
C120 C121 1.264 . S
C120 C125 1.479 . S
C120 C130 1.465 . S
C121 C120 1.264 . S
C121 C123 1.339 . S
C121 H148 0.931 . S
C122 C123 1.395 . S
C122 C124 1.320 . S
C123 C121 1.339 . S
C123 C122 1.395 . S
C123 H149 0.929 . S
C124 C122 1.320 . S
C124 C125 1.405 . S
C124 H150 0.930 . S
C125 C120 1.479 . S
C125 C124 1.405 . S
C125 H151 0.931 . S
U126 O127 2.454 . S
U126 O128 2.458 . S
U126 C129 2.984 . S
U126 C130 2.847 . S
U126 C143 2.882 . S
U126 O144 2.441 . S
U126 O145 2.420 . S
U126 O146 2.455 . S
U126 O147 2.449 . S
O127 U126 2.454 . S
O127 C129 1.353 . S
O128 U126 2.458 . S
O128 C129 1.286 . S
C129 U126 2.984 . S
C129 O127 1.353 . S
C129 O128 1.286 . S
C129 C131 1.363 . S
C130 C120 1.465 . S
C130 U126 2.847 . S
C130 O144 1.249 . S
C130 O145 1.202 . S
C131 C129 1.363 . S
C131 C133 1.408 . S
C131 C136 1.342 . S
C132 C133 1.310 . S
C132 C135 1.461 . S
C132 H152 0.932 . S
C133 C131 1.408 . S
C133 C132 1.310 . S
C133 H153 0.930 . S
C134 C135 1.474 . S
C134 C136 1.285 . S
C134 H154 0.929 . S
C135 C132 1.461 . S
C135 C134 1.474 . S
C136 C131 1.342 . S
C136 C134 1.285 . S
C136 H155 0.930 . S
C137 C140 1.424 . S
C137 C142 1.245 . S
C137 C143 1.428 . S
C138 C141 1.260 . S
C138 C142 1.477 . S
C138 H156 0.932 . S
C139 C140 1.384 . S
C139 C141 1.479 . S
C139 H157 0.929 . S
C140 C137 1.424 . S
C140 C139 1.384 . S
C140 H158 0.928 . S
C141 C138 1.260 . S
C141 C139 1.479 . S
C142 C137 1.245 . S
C142 C138 1.477 . S
C142 H159 0.932 . S
C143 U126 2.882 . S
C143 C137 1.428 . S
C143 O146 1.301 . S
C143 O147 1.282 . S
O144 U126 2.441 . S
O144 C130 1.249 . S
O145 U126 2.420 . S
O145 C130 1.202 . S
O146 U126 2.455 . S
O146 C143 1.301 . S
O147 U126 2.449 . S
O147 C143 1.282 . S
H148 C121 0.931 . S
H149 C123 0.929 . S
H150 C124 0.930 . S
H151 C125 0.931 . S
H152 C132 0.932 . S
H153 C133 0.930 . S
H154 C134 0.929 . S
H155 C136 0.930 . S
H156 C138 0.932 . S
H157 C139 0.929 . S
H158 C140 0.928 . S
H159 C142 0.932 . S
C160 C161 1.264 . S
C160 C165 1.479 . S
C160 C170 1.465 . S
C161 C160 1.264 . S
C161 C163 1.339 . S
C161 H188 0.931 . S
C162 C163 1.395 . S
C162 C164 1.320 . S
C163 C161 1.339 . S
C163 C162 1.395 . S
C163 H189 0.929 . S
C164 C162 1.320 . S
C164 C165 1.405 . S
C164 H190 0.930 . S
C165 C160 1.479 . S
C165 C164 1.405 . S
C165 H191 0.931 . S
U166 O167 2.454 . S
U166 O168 2.458 . S
U166 C169 2.984 . S
U166 C170 2.847 . S
U166 C183 2.882 . S
U166 O184 2.441 . S
U166 O185 2.420 . S
U166 O186 2.455 . S
U166 O187 2.449 . S
O167 U166 2.454 . S
O167 C169 1.353 . S
O168 U166 2.458 . S
O168 C169 1.286 . S
C169 U166 2.984 . S
C169 O167 1.353 . S
C169 O168 1.286 . S
C169 C171 1.363 . S
C170 C160 1.465 . S
C170 U166 2.847 . S
C170 O184 1.249 . S
C170 O185 1.202 . S
C171 C169 1.363 . S
C171 C173 1.408 . S
C171 C176 1.342 . S
C172 C173 1.310 . S
C172 C175 1.461 . S
C172 H192 0.932 . S
C173 C171 1.408 . S
C173 C172 1.310 . S
C173 H193 0.930 . S
C174 C175 1.474 . S
C174 C176 1.285 . S
C174 H194 0.929 . S
C175 C172 1.461 . S
C175 C174 1.474 . S
C176 C171 1.342 . S
C176 C174 1.285 . S
C176 H195 0.930 . S
C177 C180 1.424 . S
C177 C182 1.245 . S
C177 C183 1.428 . S
C178 C181 1.260 . S
C178 C182 1.477 . S
C178 H196 0.932 . S
C179 C180 1.384 . S
C179 C181 1.479 . S
C179 H197 0.929 . S
C180 C177 1.424 . S
C180 C179 1.384 . S
C180 H198 0.928 . S
C181 C178 1.260 . S
C181 C179 1.479 . S
C182 C177 1.245 . S
C182 C178 1.477 . S
C182 H199 0.932 . S
C183 U166 2.882 . S
C183 C177 1.428 . S
C183 O186 1.301 . S
C183 O187 1.282 . S
O184 U166 2.441 . S
O184 C170 1.249 . S
O185 U166 2.420 . S
O185 C170 1.202 . S
O186 U166 2.455 . S
O186 C183 1.301 . S
O187 U166 2.449 . S
O187 C183 1.282 . S
H188 C161 0.931 . S
H189 C163 0.929 . S
H190 C164 0.930 . S
H191 C165 0.931 . S
H192 C172 0.932 . S
H193 C173 0.930 . S
H194 C174 0.929 . S
H195 C176 0.930 . S
H196 C178 0.932 . S
H197 C179 0.929 . S
H198 C180 0.928 . S
H199 C182 0.932 . S
C200 C201 1.264 . S
C200 C205 1.479 . S
C200 C210 1.465 . S
C201 C200 1.264 . S
C201 C203 1.339 . S
C201 H228 0.931 . S
C202 C203 1.395 . S
C202 C204 1.320 . S
C203 C201 1.339 . S
C203 C202 1.395 . S
C203 H229 0.929 . S
C204 C202 1.320 . S
C204 C205 1.405 . S
C204 H230 0.930 . S
C205 C200 1.479 . S
C205 C204 1.405 . S
C205 H231 0.931 . S
U206 O207 2.454 . S
U206 O208 2.458 . S
U206 C209 2.984 . S
U206 C210 2.847 . S
U206 C223 2.882 . S
U206 O224 2.441 . S
U206 O225 2.420 . S
U206 O226 2.455 . S
U206 O227 2.449 . S
O207 U206 2.454 . S
O207 C209 1.353 . S
O208 U206 2.458 . S
O208 C209 1.286 . S
C209 U206 2.984 . S
C209 O207 1.353 . S
C209 O208 1.286 . S
C209 C211 1.363 . S
C210 C200 1.465 . S
C210 U206 2.847 . S
C210 O224 1.249 . S
C210 O225 1.202 . S
C211 C209 1.363 . S
C211 C213 1.408 . S
C211 C216 1.342 . S
C212 C213 1.310 . S
C212 C215 1.461 . S
C212 H232 0.932 . S
C213 C211 1.408 . S
C213 C212 1.310 . S
C213 H233 0.930 . S
C214 C215 1.474 . S
C214 C216 1.285 . S
C214 H234 0.929 . S
C215 C212 1.461 . S
C215 C214 1.474 . S
C216 C211 1.342 . S
C216 C214 1.285 . S
C216 H235 0.930 . S
C217 C220 1.424 . S
C217 C222 1.245 . S
C217 C223 1.428 . S
C218 C221 1.260 . S
C218 C222 1.477 . S
C218 H236 0.932 . S
C219 C220 1.384 . S
C219 C221 1.479 . S
C219 H237 0.929 . S
C220 C217 1.424 . S
C220 C219 1.384 . S
C220 H238 0.928 . S
C221 C218 1.260 . S
C221 C219 1.479 . S
C222 C217 1.245 . S
C222 C218 1.477 . S
C222 H239 0.932 . S
C223 U206 2.882 . S
C223 C217 1.428 . S
C223 O226 1.301 . S
C223 O227 1.282 . S
O224 U206 2.441 . S
O224 C210 1.249 . S
O225 U206 2.420 . S
O225 C210 1.202 . S
O226 U206 2.455 . S
O226 C223 1.301 . S
O227 U206 2.449 . S
O227 C223 1.282 . S
H228 C201 0.931 . S
H229 C203 0.929 . S
H230 C204 0.930 . S
H231 C205 0.931 . S
H232 C212 0.932 . S
H233 C213 0.930 . S
H234 C214 0.929 . S
H235 C216 0.930 . S
H236 C218 0.932 . S
H237 C219 0.929 . S
H238 C220 0.928 . S
H239 C222 0.932 . S
C240 C241 1.264 . S
C240 C245 1.479 . S
C240 C250 1.465 . S
C241 C240 1.264 . S
C241 C243 1.339 . S
C241 H268 0.931 . S
C242 C243 1.395 . S
C242 C244 1.320 . S
C243 C241 1.339 . S
C243 C242 1.395 . S
C243 H269 0.929 . S
C244 C242 1.320 . S
C244 C245 1.405 . S
C244 H270 0.930 . S
C245 C240 1.479 . S
C245 C244 1.405 . S
C245 H271 0.931 . S
U246 O247 2.454 . S
U246 O248 2.458 . S
U246 C249 2.984 . S
U246 C250 2.847 . S
U246 C263 2.882 . S
U246 O264 2.441 . S
U246 O265 2.420 . S
U246 O266 2.455 . S
U246 O267 2.449 . S
O247 U246 2.454 . S
O247 C249 1.353 . S
O248 U246 2.458 . S
O248 C249 1.286 . S
C249 U246 2.984 . S
C249 O247 1.353 . S
C249 O248 1.286 . S
C249 C251 1.363 . S
C250 C240 1.465 . S
C250 U246 2.847 . S
C250 O264 1.249 . S
C250 O265 1.202 . S
C251 C249 1.363 . S
C251 C253 1.408 . S
C251 C256 1.342 . S
C252 C253 1.310 . S
C252 C255 1.461 . S
C252 H272 0.932 . S
C253 C251 1.408 . S
C253 C252 1.310 . S
C253 H273 0.930 . S
C254 C255 1.474 . S
C254 C256 1.285 . S
C254 H274 0.929 . S
C255 C252 1.461 . S
C255 C254 1.474 . S
C256 C251 1.342 . S
C256 C254 1.285 . S
C256 H275 0.930 . S
C257 C260 1.424 . S
C257 C262 1.245 . S
C257 C263 1.428 . S
C258 C261 1.260 . S
C258 C262 1.477 . S
C258 H276 0.932 . S
C259 C260 1.384 . S
C259 C261 1.479 . S
C259 H277 0.929 . S
C260 C257 1.424 . S
C260 C259 1.384 . S
C260 H278 0.928 . S
C261 C258 1.260 . S
C261 C259 1.479 . S
C262 C257 1.245 . S
C262 C258 1.477 . S
C262 H279 0.932 . S
C263 U246 2.882 . S
C263 C257 1.428 . S
C263 O266 1.301 . S
C263 O267 1.282 . S
O264 U246 2.441 . S
O264 C250 1.249 . S
O265 U246 2.420 . S
O265 C250 1.202 . S
O266 U246 2.455 . S
O266 C263 1.301 . S
O267 U246 2.449 . S
O267 C263 1.282 . S
H268 C241 0.931 . S
H269 C243 0.929 . S
H270 C244 0.930 . S
H271 C245 0.931 . S
H272 C252 0.932 . S
H273 C253 0.930 . S
H274 C254 0.929 . S
H275 C256 0.930 . S
H276 C258 0.932 . S
H277 C259 0.929 . S
H278 C260 0.928 . S
H279 C262 0.932 . S
C280 C281 1.264 . S
C280 C285 1.479 . S
C280 C290 1.465 . S
C281 C280 1.264 . S
C281 C283 1.339 . S
C281 H308 0.931 . S
C282 C283 1.395 . S
C282 C284 1.320 . S
C283 C281 1.339 . S
C283 C282 1.395 . S
C283 H309 0.929 . S
C284 C282 1.320 . S
C284 C285 1.405 . S
C284 H310 0.930 . S
C285 C280 1.479 . S
C285 C284 1.405 . S
C285 H311 0.931 . S
U286 O287 2.454 . S
U286 O288 2.458 . S
U286 C289 2.984 . S
U286 C290 2.847 . S
U286 C303 2.882 . S
U286 O304 2.441 . S
U286 O305 2.420 . S
U286 O306 2.455 . S
U286 O307 2.449 . S
O287 U286 2.454 . S
O287 C289 1.353 . S
O288 U286 2.458 . S
O288 C289 1.286 . S
C289 U286 2.984 . S
C289 O287 1.353 . S
C289 O288 1.286 . S
C289 C291 1.363 . S
C290 C280 1.465 . S
C290 U286 2.847 . S
C290 O304 1.249 . S
C290 O305 1.202 . S
C291 C289 1.363 . S
C291 C293 1.408 . S
C291 C296 1.342 . S
C292 C293 1.310 . S
C292 C295 1.461 . S
C292 H312 0.932 . S
C293 C291 1.408 . S
C293 C292 1.310 . S
C293 H313 0.930 . S
C294 C295 1.474 . S
C294 C296 1.285 . S
C294 H314 0.929 . S
C295 C292 1.461 . S
C295 C294 1.474 . S
C296 C291 1.342 . S
C296 C294 1.285 . S
C296 H315 0.930 . S
C297 C300 1.424 . S
C297 C302 1.245 . S
C297 C303 1.428 . S
C298 C301 1.260 . S
C298 C302 1.477 . S
C298 H316 0.932 . S
C299 C300 1.384 . S
C299 C301 1.479 . S
C299 H317 0.929 . S
C300 C297 1.424 . S
C300 C299 1.384 . S
C300 H318 0.928 . S
C301 C298 1.260 . S
C301 C299 1.479 . S
C302 C297 1.245 . S
C302 C298 1.477 . S
C302 H319 0.932 . S
C303 U286 2.882 . S
C303 C297 1.428 . S
C303 O306 1.301 . S
C303 O307 1.282 . S
O304 U286 2.441 . S
O304 C290 1.249 . S
O305 U286 2.420 . S
O305 C290 1.202 . S
O306 U286 2.455 . S
O306 C303 1.301 . S
O307 U286 2.449 . S
O307 C303 1.282 . S
H308 C281 0.931 . S
H309 C283 0.929 . S
H310 C284 0.930 . S
H311 C285 0.931 . S
H312 C292 0.932 . S
H313 C293 0.930 . S
H314 C294 0.929 . S
H315 C296 0.930 . S
H316 C298 0.932 . S
H317 C299 0.929 . S
H318 C300 0.928 . S
H319 C302 0.932 . S
C320 C321 1.264 . S
C320 C325 1.479 . S
C320 C330 1.465 . S
C321 C320 1.264 . S
C321 C323 1.339 . S
C321 H348 0.931 . S
C322 C323 1.395 . S
C322 C324 1.320 . S
C323 C321 1.339 . S
C323 C322 1.395 . S
C323 H349 0.929 . S
C324 C322 1.320 . S
C324 C325 1.405 . S
C324 H350 0.930 . S
C325 C320 1.479 . S
C325 C324 1.405 . S
C325 H351 0.931 . S
U326 O327 2.454 . S
U326 O328 2.458 . S
U326 C329 2.984 . S
U326 C330 2.847 . S
U326 C343 2.882 . S
U326 O344 2.441 . S
U326 O345 2.420 . S
U326 O346 2.455 . S
U326 O347 2.449 . S
O327 U326 2.454 . S
O327 C329 1.353 . S
O328 U326 2.458 . S
O328 C329 1.286 . S
C329 U326 2.984 . S
C329 O327 1.353 . S
C329 O328 1.286 . S
C329 C331 1.363 . S
C330 C320 1.465 . S
C330 U326 2.847 . S
C330 O344 1.249 . S
C330 O345 1.202 . S
C331 C329 1.363 . S
C331 C333 1.408 . S
C331 C336 1.342 . S
C332 C333 1.310 . S
C332 C335 1.461 . S
C332 H352 0.932 . S
C333 C331 1.408 . S
C333 C332 1.310 . S
C333 H353 0.930 . S
C334 C335 1.474 . S
C334 C336 1.285 . S
C334 H354 0.929 . S
C335 C332 1.461 . S
C335 C334 1.474 . S
C336 C331 1.342 . S
C336 C334 1.285 . S
C336 H355 0.930 . S
C337 C340 1.424 . S
C337 C342 1.245 . S
C337 C343 1.428 . S
C338 C341 1.260 . S
C338 C342 1.477 . S
C338 H356 0.932 . S
C339 C340 1.384 . S
C339 C341 1.479 . S
C339 H357 0.929 . S
C340 C337 1.424 . S
C340 C339 1.384 . S
C340 H358 0.928 . S
C341 C338 1.260 . S
C341 C339 1.479 . S
C342 C337 1.245 . S
C342 C338 1.477 . S
C342 H359 0.932 . S
C343 U326 2.882 . S
C343 C337 1.428 . S
C343 O346 1.301 . S
C343 O347 1.282 . S
O344 U326 2.441 . S
O344 C330 1.249 . S
O345 U326 2.420 . S
O345 C330 1.202 . S
O346 U326 2.455 . S
O346 C343 1.301 . S
O347 U326 2.449 . S
O347 C343 1.282 . S
H348 C321 0.931 . S
H349 C323 0.929 . S
H350 C324 0.930 . S
H351 C325 0.931 . S
H352 C332 0.932 . S
H353 C333 0.930 . S
H354 C334 0.929 . S
H355 C336 0.930 . S
H356 C338 0.932 . S
H357 C339 0.929 . S
H358 C340 0.928 . S
H359 C342 0.932 . S
C360 C361 1.264 . S
C360 C365 1.479 . S
C360 C370 1.465 . S
C361 C360 1.264 . S
C361 C363 1.339 . S
C361 H388 0.931 . S
C362 C363 1.395 . S
C362 C364 1.320 . S
C363 C361 1.339 . S
C363 C362 1.395 . S
C363 H389 0.929 . S
C364 C362 1.320 . S
C364 C365 1.405 . S
C364 H390 0.930 . S
C365 C360 1.479 . S
C365 C364 1.405 . S
C365 H391 0.931 . S
U366 O367 2.454 . S
U366 O368 2.458 . S
U366 C369 2.984 . S
U366 C370 2.847 . S
U366 C383 2.882 . S
U366 O384 2.441 . S
U366 O385 2.420 . S
U366 O386 2.455 . S
U366 O387 2.449 . S
O367 U366 2.454 . S
O367 C369 1.353 . S
O368 U366 2.458 . S
O368 C369 1.286 . S
C369 U366 2.984 . S
C369 O367 1.353 . S
C369 O368 1.286 . S
C369 C371 1.363 . S
C370 C360 1.465 . S
C370 U366 2.847 . S
C370 O384 1.249 . S
C370 O385 1.202 . S
C371 C369 1.363 . S
C371 C373 1.408 . S
C371 C376 1.342 . S
C372 C373 1.310 . S
C372 C375 1.461 . S
C372 H392 0.932 . S
C373 C371 1.408 . S
C373 C372 1.310 . S
C373 H393 0.930 . S
C374 C375 1.474 . S
C374 C376 1.285 . S
C374 H394 0.929 . S
C375 C372 1.461 . S
C375 C374 1.474 . S
C376 C371 1.342 . S
C376 C374 1.285 . S
C376 H395 0.930 . S
C377 C380 1.424 . S
C377 C382 1.245 . S
C377 C383 1.428 . S
C378 C381 1.260 . S
C378 C382 1.477 . S
C378 H396 0.932 . S
C379 C380 1.384 . S
C379 C381 1.479 . S
C379 H397 0.929 . S
C380 C377 1.424 . S
C380 C379 1.384 . S
C380 H398 0.928 . S
C381 C378 1.260 . S
C381 C379 1.479 . S
C382 C377 1.245 . S
C382 C378 1.477 . S
C382 H399 0.932 . S
C383 U366 2.882 . S
C383 C377 1.428 . S
C383 O386 1.301 . S
C383 O387 1.282 . S
O384 U366 2.441 . S
O384 C370 1.249 . S
O385 U366 2.420 . S
O385 C370 1.202 . S
O386 U366 2.455 . S
O386 C383 1.301 . S
O387 U366 2.449 . S
O387 C383 1.282 . S
H388 C361 0.931 . S
H389 C363 0.929 . S
H390 C364 0.930 . S
H391 C365 0.931 . S
H392 C372 0.932 . S
H393 C373 0.930 . S
H394 C374 0.929 . S
H395 C376 0.930 . S
H396 C378 0.932 . S
H397 C379 0.929 . S
H398 C380 0.928 . S
H399 C382 0.932 . S
C400 C401 1.264 . S
C400 C405 1.479 . S
C400 C410 1.465 . S
C401 C400 1.264 . S
C401 C403 1.339 . S
C401 H428 0.931 . S
C402 C403 1.395 . S
C402 C404 1.320 . S
C403 C401 1.339 . S
C403 C402 1.395 . S
C403 H429 0.929 . S
C404 C402 1.320 . S
C404 C405 1.405 . S
C404 H430 0.930 . S
C405 C400 1.479 . S
C405 C404 1.405 . S
C405 H431 0.931 . S
U406 O407 2.454 . S
U406 O408 2.458 . S
U406 C409 2.984 . S
U406 C410 2.847 . S
U406 C423 2.882 . S
U406 O424 2.441 . S
U406 O425 2.420 . S
U406 O426 2.455 . S
U406 O427 2.449 . S
O407 U406 2.454 . S
O407 C409 1.353 . S
O408 U406 2.458 . S
O408 C409 1.286 . S
C409 U406 2.984 . S
C409 O407 1.353 . S
C409 O408 1.286 . S
C409 C411 1.363 . S
C410 C400 1.465 . S
C410 U406 2.847 . S
C410 O424 1.249 . S
C410 O425 1.202 . S
C411 C409 1.363 . S
C411 C413 1.408 . S
C411 C416 1.342 . S
C412 C413 1.310 . S
C412 C415 1.461 . S
C412 H432 0.932 . S
C413 C411 1.408 . S
C413 C412 1.310 . S
C413 H433 0.930 . S
C414 C415 1.474 . S
C414 C416 1.285 . S
C414 H434 0.929 . S
C415 C412 1.461 . S
C415 C414 1.474 . S
C416 C411 1.342 . S
C416 C414 1.285 . S
C416 H435 0.930 . S
C417 C420 1.424 . S
C417 C422 1.245 . S
C417 C423 1.428 . S
C418 C421 1.260 . S
C418 C422 1.477 . S
C418 H436 0.932 . S
C419 C420 1.384 . S
C419 C421 1.479 . S
C419 H437 0.929 . S
C420 C417 1.424 . S
C420 C419 1.384 . S
C420 H438 0.928 . S
C421 C418 1.260 . S
C421 C419 1.479 . S
C422 C417 1.245 . S
C422 C418 1.477 . S
C422 H439 0.932 . S
C423 U406 2.882 . S
C423 C417 1.428 . S
C423 O426 1.301 . S
C423 O427 1.282 . S
O424 U406 2.441 . S
O424 C410 1.249 . S
O425 U406 2.420 . S
O425 C410 1.202 . S
O426 U406 2.455 . S
O426 C423 1.301 . S
O427 U406 2.449 . S
O427 C423 1.282 . S
H428 C401 0.931 . S
H429 C403 0.929 . S
H430 C404 0.930 . S
H431 C405 0.931 . S
H432 C412 0.932 . S
H433 C413 0.930 . S
H434 C414 0.929 . S
H435 C416 0.930 . S
H436 C418 0.932 . S
H437 C419 0.929 . S
H438 C420 0.928 . S
H439 C422 0.932 . S
C440 C441 1.264 . S
C440 C445 1.479 . S
C440 C450 1.465 . S
C441 C440 1.264 . S
C441 C443 1.339 . S
C441 H468 0.931 . S
C442 C443 1.395 . S
C442 C444 1.320 . S
C443 C441 1.339 . S
C443 C442 1.395 . S
C443 H469 0.929 . S
C444 C442 1.320 . S
C444 C445 1.405 . S
C444 H470 0.930 . S
C445 C440 1.479 . S
C445 C444 1.405 . S
C445 H471 0.931 . S
U446 O447 2.454 . S
U446 O448 2.458 . S
U446 C449 2.984 . S
U446 C450 2.847 . S
U446 C463 2.882 . S
U446 O464 2.441 . S
U446 O465 2.420 . S
U446 O466 2.455 . S
U446 O467 2.449 . S
O447 U446 2.454 . S
O447 C449 1.353 . S
O448 U446 2.458 . S
O448 C449 1.286 . S
C449 U446 2.984 . S
C449 O447 1.353 . S
C449 O448 1.286 . S
C449 C451 1.363 . S
C450 C440 1.465 . S
C450 U446 2.847 . S
C450 O464 1.249 . S
C450 O465 1.202 . S
C451 C449 1.363 . S
C451 C453 1.408 . S
C451 C456 1.342 . S
C452 C453 1.310 . S
C452 C455 1.461 . S
C452 H472 0.932 . S
C453 C451 1.408 . S
C453 C452 1.310 . S
C453 H473 0.930 . S
C454 C455 1.474 . S
C454 C456 1.285 . S
C454 H474 0.929 . S
C455 C452 1.461 . S
C455 C454 1.474 . S
C456 C451 1.342 . S
C456 C454 1.285 . S
C456 H475 0.930 . S
C457 C460 1.424 . S
C457 C462 1.245 . S
C457 C463 1.428 . S
C458 C461 1.260 . S
C458 C462 1.477 . S
C458 H476 0.932 . S
C459 C460 1.384 . S
C459 C461 1.479 . S
C459 H477 0.929 . S
C460 C457 1.424 . S
C460 C459 1.384 . S
C460 H478 0.928 . S
C461 C458 1.260 . S
C461 C459 1.479 . S
C462 C457 1.245 . S
C462 C458 1.477 . S
C462 H479 0.932 . S
C463 U446 2.882 . S
C463 C457 1.428 . S
C463 O466 1.301 . S
C463 O467 1.282 . S
O464 U446 2.441 . S
O464 C450 1.249 . S
O465 U446 2.420 . S
O465 C450 1.202 . S
O466 U446 2.455 . S
O466 C463 1.301 . S
O467 U446 2.449 . S
O467 C463 1.282 . S
H468 C441 0.931 . S
H469 C443 0.929 . S
H470 C444 0.930 . S
H471 C445 0.931 . S
H472 C452 0.932 . S
H473 C453 0.930 . S
H474 C454 0.929 . S
H475 C456 0.930 . S
H476 C458 0.932 . S
H477 C459 0.929 . S
H478 C460 0.928 . S
H479 C462 0.932 . S
C480 C481 1.264 . S
C480 C485 1.479 . S
C480 C490 1.465 . S
C481 C480 1.264 . S
C481 C483 1.339 . S
C481 H508 0.931 . S
C482 C483 1.395 . S
C482 C484 1.320 . S
C483 C481 1.339 . S
C483 C482 1.395 . S
C483 H509 0.929 . S
C484 C482 1.320 . S
C484 C485 1.405 . S
C484 H510 0.930 . S
C485 C480 1.479 . S
C485 C484 1.405 . S
C485 H511 0.931 . S
U486 O487 2.454 . S
U486 O488 2.458 . S
U486 C489 2.984 . S
U486 C490 2.847 . S
U486 C503 2.882 . S
U486 O504 2.441 . S
U486 O505 2.420 . S
U486 O506 2.455 . S
U486 O507 2.449 . S
O487 U486 2.454 . S
O487 C489 1.353 . S
O488 U486 2.458 . S
O488 C489 1.286 . S
C489 U486 2.984 . S
C489 O487 1.353 . S
C489 O488 1.286 . S
C489 C491 1.363 . S
C490 C480 1.465 . S
C490 U486 2.847 . S
C490 O504 1.249 . S
C490 O505 1.202 . S
C491 C489 1.363 . S
C491 C493 1.408 . S
C491 C496 1.342 . S
C492 C493 1.310 . S
C492 C495 1.461 . S
C492 H512 0.932 . S
C493 C491 1.408 . S
C493 C492 1.310 . S
C493 H513 0.930 . S
C494 C495 1.474 . S
C494 C496 1.285 . S
C494 H514 0.929 . S
C495 C492 1.461 . S
C495 C494 1.474 . S
C496 C491 1.342 . S
C496 C494 1.285 . S
C496 H515 0.930 . S
C497 C500 1.424 . S
C497 C502 1.245 . S
C497 C503 1.428 . S
C498 C501 1.260 . S
C498 C502 1.477 . S
C498 H516 0.932 . S
C499 C500 1.384 . S
C499 C501 1.479 . S
C499 H517 0.929 . S
C500 C497 1.424 . S
C500 C499 1.384 . S
C500 H518 0.928 . S
C501 C498 1.260 . S
C501 C499 1.479 . S
C502 C497 1.245 . S
C502 C498 1.477 . S
C502 H519 0.932 . S
C503 U486 2.882 . S
C503 C497 1.428 . S
C503 O506 1.301 . S
C503 O507 1.282 . S
O504 U486 2.441 . S
O504 C490 1.249 . S
O505 U486 2.420 . S
O505 C490 1.202 . S
O506 U486 2.455 . S
O506 C503 1.301 . S
O507 U486 2.449 . S
O507 C503 1.282 . S
H508 C481 0.931 . S
H509 C483 0.929 . S
H510 C484 0.930 . S
H511 C485 0.931 . S
H512 C492 0.932 . S
H513 C493 0.930 . S
H514 C494 0.929 . S
H515 C496 0.930 . S
H516 C498 0.932 . S
H517 C499 0.929 . S
H518 C500 0.928 . S
H519 C502 0.932 . S
C520 C521 1.264 . S
C520 C525 1.479 . S
C520 C530 1.465 . S
C521 C520 1.264 . S
C521 C523 1.339 . S
C521 H548 0.931 . S
C522 C523 1.395 . S
C522 C524 1.320 . S
C523 C521 1.339 . S
C523 C522 1.395 . S
C523 H549 0.929 . S
C524 C522 1.320 . S
C524 C525 1.405 . S
C524 H550 0.930 . S
C525 C520 1.479 . S
C525 C524 1.405 . S
C525 H551 0.931 . S
U526 O527 2.454 . S
U526 O528 2.458 . S
U526 C529 2.984 . S
U526 C530 2.847 . S
U526 C543 2.882 . S
U526 O544 2.441 . S
U526 O545 2.420 . S
U526 O546 2.455 . S
U526 O547 2.449 . S
O527 U526 2.454 . S
O527 C529 1.353 . S
O528 U526 2.458 . S
O528 C529 1.286 . S
C529 U526 2.984 . S
C529 O527 1.353 . S
C529 O528 1.286 . S
C529 C531 1.363 . S
C530 C520 1.465 . S
C530 U526 2.847 . S
C530 O544 1.249 . S
C530 O545 1.202 . S
C531 C529 1.363 . S
C531 C533 1.408 . S
C531 C536 1.342 . S
C532 C533 1.310 . S
C532 C535 1.461 . S
C532 H552 0.932 . S
C533 C531 1.408 . S
C533 C532 1.310 . S
C533 H553 0.930 . S
C534 C535 1.474 . S
C534 C536 1.285 . S
C534 H554 0.929 . S
C535 C532 1.461 . S
C535 C534 1.474 . S
C536 C531 1.342 . S
C536 C534 1.285 . S
C536 H555 0.930 . S
C537 C540 1.424 . S
C537 C542 1.245 . S
C537 C543 1.428 . S
C538 C541 1.260 . S
C538 C542 1.477 . S
C538 H556 0.932 . S
C539 C540 1.384 . S
C539 C541 1.479 . S
C539 H557 0.929 . S
C540 C537 1.424 . S
C540 C539 1.384 . S
C540 H558 0.928 . S
C541 C538 1.260 . S
C541 C539 1.479 . S
C542 C537 1.245 . S
C542 C538 1.477 . S
C542 H559 0.932 . S
C543 U526 2.882 . S
C543 C537 1.428 . S
C543 O546 1.301 . S
C543 O547 1.282 . S
O544 U526 2.441 . S
O544 C530 1.249 . S
O545 U526 2.420 . S
O545 C530 1.202 . S
O546 U526 2.455 . S
O546 C543 1.301 . S
O547 U526 2.449 . S
O547 C543 1.282 . S
H548 C521 0.931 . S
H549 C523 0.929 . S
H550 C524 0.930 . S
H551 C525 0.931 . S
H552 C532 0.932 . S
H553 C533 0.930 . S
H554 C534 0.929 . S
H555 C536 0.930 . S
H556 C538 0.932 . S
H557 C539 0.929 . S
H558 C540 0.928 . S
H559 C542 0.932 . S
C560 C561 1.264 . S
C560 C565 1.479 . S
C560 C570 1.465 . S
C561 C560 1.264 . S
C561 C563 1.339 . S
C561 H588 0.931 . S
C562 C563 1.395 . S
C562 C564 1.320 . S
C563 C561 1.339 . S
C563 C562 1.395 . S
C563 H589 0.929 . S
C564 C562 1.320 . S
C564 C565 1.405 . S
C564 H590 0.930 . S
C565 C560 1.479 . S
C565 C564 1.405 . S
C565 H591 0.931 . S
U566 O567 2.454 . S
U566 O568 2.458 . S
U566 C569 2.984 . S
U566 C570 2.847 . S
U566 C583 2.882 . S
U566 O584 2.441 . S
U566 O585 2.420 . S
U566 O586 2.455 . S
U566 O587 2.449 . S
O567 U566 2.454 . S
O567 C569 1.353 . S
O568 U566 2.458 . S
O568 C569 1.286 . S
C569 U566 2.984 . S
C569 O567 1.353 . S
C569 O568 1.286 . S
C569 C571 1.363 . S
C570 C560 1.465 . S
C570 U566 2.847 . S
C570 O584 1.249 . S
C570 O585 1.202 . S
C571 C569 1.363 . S
C571 C573 1.408 . S
C571 C576 1.342 . S
C572 C573 1.310 . S
C572 C575 1.461 . S
C572 H592 0.932 . S
C573 C571 1.408 . S
C573 C572 1.310 . S
C573 H593 0.930 . S
C574 C575 1.474 . S
C574 C576 1.285 . S
C574 H594 0.929 . S
C575 C572 1.461 . S
C575 C574 1.474 . S
C576 C571 1.342 . S
C576 C574 1.285 . S
C576 H595 0.930 . S
C577 C580 1.424 . S
C577 C582 1.245 . S
C577 C583 1.428 . S
C578 C581 1.260 . S
C578 C582 1.477 . S
C578 H596 0.932 . S
C579 C580 1.384 . S
C579 C581 1.479 . S
C579 H597 0.929 . S
C580 C577 1.424 . S
C580 C579 1.384 . S
C580 H598 0.928 . S
C581 C578 1.260 . S
C581 C579 1.479 . S
C582 C577 1.245 . S
C582 C578 1.477 . S
C582 H599 0.932 . S
C583 U566 2.882 . S
C583 C577 1.428 . S
C583 O586 1.301 . S
C583 O587 1.282 . S
O584 U566 2.441 . S
O584 C570 1.249 . S
O585 U566 2.420 . S
O585 C570 1.202 . S
O586 U566 2.455 . S
O586 C583 1.301 . S
O587 U566 2.449 . S
O587 C583 1.282 . S
H588 C561 0.931 . S
H589 C563 0.929 . S
H590 C564 0.930 . S
H591 C565 0.931 . S
H592 C572 0.932 . S
H593 C573 0.930 . S
H594 C574 0.929 . S
H595 C576 0.930 . S
H596 C578 0.932 . S
H597 C579 0.929 . S
H598 C580 0.928 . S
H599 C582 0.932 . S
C600 C601 1.264 . S
C600 C605 1.479 . S
C600 C610 1.465 . S
C601 C600 1.264 . S
C601 C603 1.339 . S
C601 H628 0.931 . S
C602 C603 1.395 . S
C602 C604 1.320 . S
C603 C601 1.339 . S
C603 C602 1.395 . S
C603 H629 0.929 . S
C604 C602 1.320 . S
C604 C605 1.405 . S
C604 H630 0.930 . S
C605 C600 1.479 . S
C605 C604 1.405 . S
C605 H631 0.931 . S
U606 O607 2.454 . S
U606 O608 2.458 . S
U606 C609 2.984 . S
U606 C610 2.847 . S
U606 C623 2.882 . S
U606 O624 2.441 . S
U606 O625 2.420 . S
U606 O626 2.455 . S
U606 O627 2.449 . S
O607 U606 2.454 . S
O607 C609 1.353 . S
O608 U606 2.458 . S
O608 C609 1.286 . S
C609 U606 2.984 . S
C609 O607 1.353 . S
C609 O608 1.286 . S
C609 C611 1.363 . S
C610 C600 1.465 . S
C610 U606 2.847 . S
C610 O624 1.249 . S
C610 O625 1.202 . S
C611 C609 1.363 . S
C611 C613 1.408 . S
C611 C616 1.342 . S
C612 C613 1.310 . S
C612 C615 1.461 . S
C612 H632 0.932 . S
C613 C611 1.408 . S
C613 C612 1.310 . S
C613 H633 0.930 . S
C614 C615 1.474 . S
C614 C616 1.285 . S
C614 H634 0.929 . S
C615 C612 1.461 . S
C615 C614 1.474 . S
C616 C611 1.342 . S
C616 C614 1.285 . S
C616 H635 0.930 . S
C617 C620 1.424 . S
C617 C622 1.245 . S
C617 C623 1.428 . S
C618 C621 1.260 . S
C618 C622 1.477 . S
C618 H636 0.932 . S
C619 C620 1.384 . S
C619 C621 1.479 . S
C619 H637 0.929 . S
C620 C617 1.424 . S
C620 C619 1.384 . S
C620 H638 0.928 . S
C621 C618 1.260 . S
C621 C619 1.479 . S
C622 C617 1.245 . S
C622 C618 1.477 . S
C622 H639 0.932 . S
C623 U606 2.882 . S
C623 C617 1.428 . S
C623 O626 1.301 . S
C623 O627 1.282 . S
O624 U606 2.441 . S
O624 C610 1.249 . S
O625 U606 2.420 . S
O625 C610 1.202 . S
O626 U606 2.455 . S
O626 C623 1.301 . S
O627 U606 2.449 . S
O627 C623 1.282 . S
H628 C601 0.931 . S
H629 C603 0.929 . S
H630 C604 0.930 . S
H631 C605 0.931 . S
H632 C612 0.932 . S
H633 C613 0.930 . S
H634 C614 0.929 . S
H635 C616 0.930 . S
H636 C618 0.932 . S
H637 C619 0.929 . S
H638 C620 0.928 . S
H639 C622 0.932 . S
C640 C641 1.264 . S
C640 C645 1.479 . S
C640 C650 1.465 . S
C641 C640 1.264 . S
C641 C643 1.339 . S
C641 H668 0.931 . S
C642 C643 1.395 . S
C642 C644 1.320 . S
C643 C641 1.339 . S
C643 C642 1.395 . S
C643 H669 0.929 . S
C644 C642 1.320 . S
C644 C645 1.405 . S
C644 H670 0.930 . S
C645 C640 1.479 . S
C645 C644 1.405 . S
C645 H671 0.931 . S
U646 O647 2.454 . S
U646 O648 2.458 . S
U646 C649 2.984 . S
U646 C650 2.847 . S
U646 C663 2.882 . S
U646 O664 2.441 . S
U646 O665 2.420 . S
U646 O666 2.455 . S
U646 O667 2.449 . S
O647 U646 2.454 . S
O647 C649 1.353 . S
O648 U646 2.458 . S
O648 C649 1.286 . S
C649 U646 2.984 . S
C649 O647 1.353 . S
C649 O648 1.286 . S
C649 C651 1.363 . S
C650 C640 1.465 . S
C650 U646 2.847 . S
C650 O664 1.249 . S
C650 O665 1.202 . S
C651 C649 1.363 . S
C651 C653 1.408 . S
C651 C656 1.342 . S
C652 C653 1.310 . S
C652 C655 1.461 . S
C652 H672 0.932 . S
C653 C651 1.408 . S
C653 C652 1.310 . S
C653 H673 0.930 . S
C654 C655 1.474 . S
C654 C656 1.285 . S
C654 H674 0.929 . S
C655 C652 1.461 . S
C655 C654 1.474 . S
C656 C651 1.342 . S
C656 C654 1.285 . S
C656 H675 0.930 . S
C657 C660 1.424 . S
C657 C662 1.245 . S
C657 C663 1.428 . S
C658 C661 1.260 . S
C658 C662 1.477 . S
C658 H676 0.932 . S
C659 C660 1.384 . S
C659 C661 1.479 . S
C659 H677 0.929 . S
C660 C657 1.424 . S
C660 C659 1.384 . S
C660 H678 0.928 . S
C661 C658 1.260 . S
C661 C659 1.479 . S
C662 C657 1.245 . S
C662 C658 1.477 . S
C662 H679 0.932 . S
C663 U646 2.882 . S
C663 C657 1.428 . S
C663 O666 1.301 . S
C663 O667 1.282 . S
O664 U646 2.441 . S
O664 C650 1.249 . S
O665 U646 2.420 . S
O665 C650 1.202 . S
O666 U646 2.455 . S
O666 C663 1.301 . S
O667 U646 2.449 . S
O667 C663 1.282 . S
H668 C641 0.931 . S
H669 C643 0.929 . S
H670 C644 0.930 . S
H671 C645 0.931 . S
H672 C652 0.932 . S
H673 C653 0.930 . S
H674 C654 0.929 . S
H675 C656 0.930 . S
H676 C658 0.932 . S
H677 C659 0.929 . S
H678 C660 0.928 . S
H679 C662 0.932 . S
C680 C681 1.264 . S
C680 C685 1.479 . S
C680 C690 1.465 . S
C681 C680 1.264 . S
C681 C683 1.339 . S
C681 H708 0.931 . S
C682 C683 1.395 . S
C682 C684 1.320 . S
C683 C681 1.339 . S
C683 C682 1.395 . S
C683 H709 0.929 . S
C684 C682 1.320 . S
C684 C685 1.405 . S
C684 H710 0.930 . S
C685 C680 1.479 . S
C685 C684 1.405 . S
C685 H711 0.931 . S
U686 O687 2.454 . S
U686 O688 2.458 . S
U686 C689 2.984 . S
U686 C690 2.847 . S
U686 C703 2.882 . S
U686 O704 2.441 . S
U686 O705 2.420 . S
U686 O706 2.455 . S
U686 O707 2.449 . S
O687 U686 2.454 . S
O687 C689 1.353 . S
O688 U686 2.458 . S
O688 C689 1.286 . S
C689 U686 2.984 . S
C689 O687 1.353 . S
C689 O688 1.286 . S
C689 C691 1.363 . S
C690 C680 1.465 . S
C690 U686 2.847 . S
C690 O704 1.249 . S
C690 O705 1.202 . S
C691 C689 1.363 . S
C691 C693 1.408 . S
C691 C696 1.342 . S
C692 C693 1.310 . S
C692 C695 1.461 . S
C692 H712 0.932 . S
C693 C691 1.408 . S
C693 C692 1.310 . S
C693 H713 0.930 . S
C694 C695 1.474 . S
C694 C696 1.285 . S
C694 H714 0.929 . S
C695 C692 1.461 . S
C695 C694 1.474 . S
C696 C691 1.342 . S
C696 C694 1.285 . S
C696 H715 0.930 . S
C697 C700 1.424 . S
C697 C702 1.245 . S
C697 C703 1.428 . S
C698 C701 1.260 . S
C698 C702 1.477 . S
C698 H716 0.932 . S
C699 C700 1.384 . S
C699 C701 1.479 . S
C699 H717 0.929 . S
C700 C697 1.424 . S
C700 C699 1.384 . S
C700 H718 0.928 . S
C701 C698 1.260 . S
C701 C699 1.479 . S
C702 C697 1.245 . S
C702 C698 1.477 . S
C702 H719 0.932 . S
C703 U686 2.882 . S
C703 C697 1.428 . S
C703 O706 1.301 . S
C703 O707 1.282 . S
O704 U686 2.441 . S
O704 C690 1.249 . S
O705 U686 2.420 . S
O705 C690 1.202 . S
O706 U686 2.455 . S
O706 C703 1.301 . S
O707 U686 2.449 . S
O707 C703 1.282 . S
H708 C681 0.931 . S
H709 C683 0.929 . S
H710 C684 0.930 . S
H711 C685 0.931 . S
H712 C692 0.932 . S
H713 C693 0.930 . S
H714 C694 0.929 . S
H715 C696 0.930 . S
H716 C698 0.932 . S
H717 C699 0.929 . S
H718 C700 0.928 . S
H719 C702 0.932 . S
C720 C721 1.264 . S
C720 C725 1.479 . S
C720 C730 1.465 . S
C721 C720 1.264 . S
C721 C723 1.339 . S
C721 H748 0.931 . S
C722 C723 1.395 . S
C722 C724 1.320 . S
C723 C721 1.339 . S
C723 C722 1.395 . S
C723 H749 0.929 . S
C724 C722 1.320 . S
C724 C725 1.405 . S
C724 H750 0.930 . S
C725 C720 1.479 . S
C725 C724 1.405 . S
C725 H751 0.931 . S
U726 O727 2.454 . S
U726 O728 2.458 . S
U726 C729 2.984 . S
U726 C730 2.847 . S
U726 C743 2.882 . S
U726 O744 2.441 . S
U726 O745 2.420 . S
U726 O746 2.455 . S
U726 O747 2.449 . S
O727 U726 2.454 . S
O727 C729 1.353 . S
O728 U726 2.458 . S
O728 C729 1.286 . S
C729 U726 2.984 . S
C729 O727 1.353 . S
C729 O728 1.286 . S
C729 C731 1.363 . S
C730 C720 1.465 . S
C730 U726 2.847 . S
C730 O744 1.249 . S
C730 O745 1.202 . S
C731 C729 1.363 . S
C731 C733 1.408 . S
C731 C736 1.342 . S
C732 C733 1.310 . S
C732 C735 1.461 . S
C732 H752 0.932 . S
C733 C731 1.408 . S
C733 C732 1.310 . S
C733 H753 0.930 . S
C734 C735 1.474 . S
C734 C736 1.285 . S
C734 H754 0.929 . S
C735 C732 1.461 . S
C735 C734 1.474 . S
C736 C731 1.342 . S
C736 C734 1.285 . S
C736 H755 0.930 . S
C737 C740 1.424 . S
C737 C742 1.245 . S
C737 C743 1.428 . S
C738 C741 1.260 . S
C738 C742 1.477 . S
C738 H756 0.932 . S
C739 C740 1.384 . S
C739 C741 1.479 . S
C739 H757 0.929 . S
C740 C737 1.424 . S
C740 C739 1.384 . S
C740 H758 0.928 . S
C741 C738 1.260 . S
C741 C739 1.479 . S
C742 C737 1.245 . S
C742 C738 1.477 . S
C742 H759 0.932 . S
C743 U726 2.882 . S
C743 C737 1.428 . S
C743 O746 1.301 . S
C743 O747 1.282 . S
O744 U726 2.441 . S
O744 C730 1.249 . S
O745 U726 2.420 . S
O745 C730 1.202 . S
O746 U726 2.455 . S
O746 C743 1.301 . S
O747 U726 2.449 . S
O747 C743 1.282 . S
H748 C721 0.931 . S
H749 C723 0.929 . S
H750 C724 0.930 . S
H751 C725 0.931 . S
H752 C732 0.932 . S
H753 C733 0.930 . S
H754 C734 0.929 . S
H755 C736 0.930 . S
H756 C738 0.932 . S
H757 C739 0.929 . S
H758 C740 0.928 . S
H759 C742 0.932 . S
C760 C761 1.264 . S
C760 C765 1.479 . S
C760 C770 1.465 . S
C761 C760 1.264 . S
C761 C763 1.339 . S
C761 H788 0.931 . S
C762 C763 1.395 . S
C762 C764 1.320 . S
C763 C761 1.339 . S
C763 C762 1.395 . S
C763 H789 0.929 . S
C764 C762 1.320 . S
C764 C765 1.405 . S
C764 H790 0.930 . S
C765 C760 1.479 . S
C765 C764 1.405 . S
C765 H791 0.931 . S
U766 O767 2.454 . S
U766 O768 2.458 . S
U766 C769 2.984 . S
U766 C770 2.847 . S
U766 C783 2.882 . S
U766 O784 2.441 . S
U766 O785 2.420 . S
U766 O786 2.455 . S
U766 O787 2.449 . S
O767 U766 2.454 . S
O767 C769 1.353 . S
O768 U766 2.458 . S
O768 C769 1.286 . S
C769 U766 2.984 . S
C769 O767 1.353 . S
C769 O768 1.286 . S
C769 C771 1.363 . S
C770 C760 1.465 . S
C770 U766 2.847 . S
C770 O784 1.249 . S
C770 O785 1.202 . S
C771 C769 1.363 . S
C771 C773 1.408 . S
C771 C776 1.342 . S
C772 C773 1.310 . S
C772 C775 1.461 . S
C772 H792 0.932 . S
C773 C771 1.408 . S
C773 C772 1.310 . S
C773 H793 0.930 . S
C774 C775 1.474 . S
C774 C776 1.285 . S
C774 H794 0.929 . S
C775 C772 1.461 . S
C775 C774 1.474 . S
C776 C771 1.342 . S
C776 C774 1.285 . S
C776 H795 0.930 . S
C777 C780 1.424 . S
C777 C782 1.245 . S
C777 C783 1.428 . S
C778 C781 1.260 . S
C778 C782 1.477 . S
C778 H796 0.932 . S
C779 C780 1.384 . S
C779 C781 1.479 . S
C779 H797 0.929 . S
C780 C777 1.424 . S
C780 C779 1.384 . S
C780 H798 0.928 . S
C781 C778 1.260 . S
C781 C779 1.479 . S
C782 C777 1.245 . S
C782 C778 1.477 . S
C782 H799 0.932 . S
C783 U766 2.882 . S
C783 C777 1.428 . S
C783 O786 1.301 . S
C783 O787 1.282 . S
O784 U766 2.441 . S
O784 C770 1.249 . S
O785 U766 2.420 . S
O785 C770 1.202 . S
O786 U766 2.455 . S
O786 C783 1.301 . S
O787 U766 2.449 . S
O787 C783 1.282 . S
H788 C761 0.931 . S
H789 C763 0.929 . S
H790 C764 0.930 . S
H791 C765 0.931 . S
H792 C772 0.932 . S
H793 C773 0.930 . S
H794 C774 0.929 . S
H795 C776 0.930 . S
H796 C778 0.932 . S
H797 C779 0.929 . S
H798 C780 0.928 . S
H799 C782 0.932 . S
C800 C801 1.264 . S
C800 C805 1.479 . S
C800 C810 1.465 . S
C801 C800 1.264 . S
C801 C803 1.339 . S
C801 H828 0.931 . S
C802 C803 1.395 . S
C802 C804 1.320 . S
C803 C801 1.339 . S
C803 C802 1.395 . S
C803 H829 0.929 . S
C804 C802 1.320 . S
C804 C805 1.405 . S
C804 H830 0.930 . S
C805 C800 1.479 . S
C805 C804 1.405 . S
C805 H831 0.931 . S
U806 O807 2.454 . S
U806 O808 2.458 . S
U806 C809 2.984 . S
U806 C810 2.847 . S
U806 C823 2.882 . S
U806 O824 2.441 . S
U806 O825 2.420 . S
U806 O826 2.455 . S
U806 O827 2.449 . S
O807 U806 2.454 . S
O807 C809 1.353 . S
O808 U806 2.458 . S
O808 C809 1.286 . S
C809 U806 2.984 . S
C809 O807 1.353 . S
C809 O808 1.286 . S
C809 C811 1.363 . S
C810 C800 1.465 . S
C810 U806 2.847 . S
C810 O824 1.249 . S
C810 O825 1.202 . S
C811 C809 1.363 . S
C811 C813 1.408 . S
C811 C816 1.342 . S
C812 C813 1.310 . S
C812 C815 1.461 . S
C812 H832 0.932 . S
C813 C811 1.408 . S
C813 C812 1.310 . S
C813 H833 0.930 . S
C814 C815 1.474 . S
C814 C816 1.285 . S
C814 H834 0.929 . S
C815 C812 1.461 . S
C815 C814 1.474 . S
C816 C811 1.342 . S
C816 C814 1.285 . S
C816 H835 0.930 . S
C817 C820 1.424 . S
C817 C822 1.245 . S
C817 C823 1.428 . S
C818 C821 1.260 . S
C818 C822 1.477 . S
C818 H836 0.932 . S
C819 C820 1.384 . S
C819 C821 1.479 . S
C819 H837 0.929 . S
C820 C817 1.424 . S
C820 C819 1.384 . S
C820 H838 0.928 . S
C821 C818 1.260 . S
C821 C819 1.479 . S
C822 C817 1.245 . S
C822 C818 1.477 . S
C822 H839 0.932 . S
C823 U806 2.882 . S
C823 C817 1.428 . S
C823 O826 1.301 . S
C823 O827 1.282 . S
O824 U806 2.441 . S
O824 C810 1.249 . S
O825 U806 2.420 . S
O825 C810 1.202 . S
O826 U806 2.455 . S
O826 C823 1.301 . S
O827 U806 2.449 . S
O827 C823 1.282 . S
H828 C801 0.931 . S
H829 C803 0.929 . S
H830 C804 0.930 . S
H831 C805 0.931 . S
H832 C812 0.932 . S
H833 C813 0.930 . S
H834 C814 0.929 . S
H835 C816 0.930 . S
H836 C818 0.932 . S
H837 C819 0.929 . S
H838 C820 0.928 . S
H839 C822 0.932 . S
C840 C841 1.264 . S
C840 C845 1.479 . S
C840 C850 1.465 . S
C841 C840 1.264 . S
C841 C843 1.339 . S
C841 H868 0.931 . S
C842 C843 1.395 . S
C842 C844 1.320 . S
C843 C841 1.339 . S
C843 C842 1.395 . S
C843 H869 0.929 . S
C844 C842 1.320 . S
C844 C845 1.405 . S
C844 H870 0.930 . S
C845 C840 1.479 . S
C845 C844 1.405 . S
C845 H871 0.931 . S
U846 O847 2.454 . S
U846 O848 2.458 . S
U846 C849 2.984 . S
U846 C850 2.847 . S
U846 C863 2.882 . S
U846 O864 2.441 . S
U846 O865 2.420 . S
U846 O866 2.455 . S
U846 O867 2.449 . S
O847 U846 2.454 . S
O847 C849 1.353 . S
O848 U846 2.458 . S
O848 C849 1.286 . S
C849 U846 2.984 . S
C849 O847 1.353 . S
C849 O848 1.286 . S
C849 C851 1.363 . S
C850 C840 1.465 . S
C850 U846 2.847 . S
C850 O864 1.249 . S
C850 O865 1.202 . S
C851 C849 1.363 . S
C851 C853 1.408 . S
C851 C856 1.342 . S
C852 C853 1.310 . S
C852 C855 1.461 . S
C852 H872 0.932 . S
C853 C851 1.408 . S
C853 C852 1.310 . S
C853 H873 0.930 . S
C854 C855 1.474 . S
C854 C856 1.285 . S
C854 H874 0.929 . S
C855 C852 1.461 . S
C855 C854 1.474 . S
C856 C851 1.342 . S
C856 C854 1.285 . S
C856 H875 0.930 . S
C857 C860 1.424 . S
C857 C862 1.245 . S
C857 C863 1.428 . S
C858 C861 1.260 . S
C858 C862 1.477 . S
C858 H876 0.932 . S
C859 C860 1.384 . S
C859 C861 1.479 . S
C859 H877 0.929 . S
C860 C857 1.424 . S
C860 C859 1.384 . S
C860 H878 0.928 . S
C861 C858 1.260 . S
C861 C859 1.479 . S
C862 C857 1.245 . S
C862 C858 1.477 . S
C862 H879 0.932 . S
C863 U846 2.882 . S
C863 C857 1.428 . S
C863 O866 1.301 . S
C863 O867 1.282 . S
O864 U846 2.441 . S
O864 C850 1.249 . S
O865 U846 2.420 . S
O865 C850 1.202 . S
O866 U846 2.455 . S
O866 C863 1.301 . S
O867 U846 2.449 . S
O867 C863 1.282 . S
H868 C841 0.931 . S
H869 C843 0.929 . S
H870 C844 0.930 . S
H871 C845 0.931 . S
H872 C852 0.932 . S
H873 C853 0.930 . S
H874 C854 0.929 . S
H875 C856 0.930 . S
H876 C858 0.932 . S
H877 C859 0.929 . S
H878 C860 0.928 . S
H879 C862 0.932 . S
C880 C881 1.264 . S
C880 C885 1.479 . S
C880 C890 1.465 . S
C881 C880 1.264 . S
C881 C883 1.339 . S
C881 H908 0.931 . S
C882 C883 1.395 . S
C882 C884 1.320 . S
C883 C881 1.339 . S
C883 C882 1.395 . S
C883 H909 0.929 . S
C884 C882 1.320 . S
C884 C885 1.405 . S
C884 H910 0.930 . S
C885 C880 1.479 . S
C885 C884 1.405 . S
C885 H911 0.931 . S
U886 O887 2.454 . S
U886 O888 2.458 . S
U886 C889 2.984 . S
U886 C890 2.847 . S
U886 C903 2.882 . S
U886 O904 2.441 . S
U886 O905 2.420 . S
U886 O906 2.455 . S
U886 O907 2.449 . S
O887 U886 2.454 . S
O887 C889 1.353 . S
O888 U886 2.458 . S
O888 C889 1.286 . S
C889 U886 2.984 . S
C889 O887 1.353 . S
C889 O888 1.286 . S
C889 C891 1.363 . S
C890 C880 1.465 . S
C890 U886 2.847 . S
C890 O904 1.249 . S
C890 O905 1.202 . S
C891 C889 1.363 . S
C891 C893 1.408 . S
C891 C896 1.342 . S
C892 C893 1.310 . S
C892 C895 1.461 . S
C892 H912 0.932 . S
C893 C891 1.408 . S
C893 C892 1.310 . S
C893 H913 0.930 . S
C894 C895 1.474 . S
C894 C896 1.285 . S
C894 H914 0.929 . S
C895 C892 1.461 . S
C895 C894 1.474 . S
C896 C891 1.342 . S
C896 C894 1.285 . S
C896 H915 0.930 . S
C897 C900 1.424 . S
C897 C902 1.245 . S
C897 C903 1.428 . S
C898 C901 1.260 . S
C898 C902 1.477 . S
C898 H916 0.932 . S
C899 C900 1.384 . S
C899 C901 1.479 . S
C899 H917 0.929 . S
C900 C897 1.424 . S
C900 C899 1.384 . S
C900 H918 0.928 . S
C901 C898 1.260 . S
C901 C899 1.479 . S
C902 C897 1.245 . S
C902 C898 1.477 . S
C902 H919 0.932 . S
C903 U886 2.882 . S
C903 C897 1.428 . S
C903 O906 1.301 . S
C903 O907 1.282 . S
O904 U886 2.441 . S
O904 C890 1.249 . S
O905 U886 2.420 . S
O905 C890 1.202 . S
O906 U886 2.455 . S
O906 C903 1.301 . S
O907 U886 2.449 . S
O907 C903 1.282 . S
H908 C881 0.931 . S
H909 C883 0.929 . S
H910 C884 0.930 . S
H911 C885 0.931 . S
H912 C892 0.932 . S
H913 C893 0.930 . S
H914 C894 0.929 . S
H915 C896 0.930 . S
H916 C898 0.932 . S
H917 C899 0.929 . S
H918 C900 0.928 . S
H919 C902 0.932 . S
C920 C921 1.264 . S
C920 C925 1.479 . S
C920 C930 1.465 . S
C921 C920 1.264 . S
C921 C923 1.339 . S
C921 H948 0.931 . S
C922 C923 1.395 . S
C922 C924 1.320 . S
C923 C921 1.339 . S
C923 C922 1.395 . S
C923 H949 0.929 . S
C924 C922 1.320 . S
C924 C925 1.405 . S
C924 H950 0.930 . S
C925 C920 1.479 . S
C925 C924 1.405 . S
C925 H951 0.931 . S
U926 O927 2.454 . S
U926 O928 2.458 . S
U926 C929 2.984 . S
U926 C930 2.847 . S
U926 C943 2.882 . S
U926 O944 2.441 . S
U926 O945 2.420 . S
U926 O946 2.455 . S
U926 O947 2.449 . S
O927 U926 2.454 . S
O927 C929 1.353 . S
O928 U926 2.458 . S
O928 C929 1.286 . S
C929 U926 2.984 . S
C929 O927 1.353 . S
C929 O928 1.286 . S
C929 C931 1.363 . S
C930 C920 1.465 . S
C930 U926 2.847 . S
C930 O944 1.249 . S
C930 O945 1.202 . S
C931 C929 1.363 . S
C931 C933 1.408 . S
C931 C936 1.342 . S
C932 C933 1.310 . S
C932 C935 1.461 . S
C932 H952 0.932 . S
C933 C931 1.408 . S
C933 C932 1.310 . S
C933 H953 0.930 . S
C934 C935 1.474 . S
C934 C936 1.285 . S
C934 H954 0.929 . S
C935 C932 1.461 . S
C935 C934 1.474 . S
C936 C931 1.342 . S
C936 C934 1.285 . S
C936 H955 0.930 . S
C937 C940 1.424 . S
C937 C942 1.245 . S
C937 C943 1.428 . S
C938 C941 1.260 . S
C938 C942 1.477 . S
C938 H956 0.932 . S
C939 C940 1.384 . S
C939 C941 1.479 . S
C939 H957 0.929 . S
C940 C937 1.424 . S
C940 C939 1.384 . S
C940 H958 0.928 . S
C941 C938 1.260 . S
C941 C939 1.479 . S
C942 C937 1.245 . S
C942 C938 1.477 . S
C942 H959 0.932 . S
C943 U926 2.882 . S
C943 C937 1.428 . S
C943 O946 1.301 . S
C943 O947 1.282 . S
O944 U926 2.441 . S
O944 C930 1.249 . S
O945 U926 2.420 . S
O945 C930 1.202 . S
O946 U926 2.455 . S
O946 C943 1.301 . S
O947 U926 2.449 . S
O947 C943 1.282 . S
H948 C921 0.931 . S
H949 C923 0.929 . S
H950 C924 0.930 . S
H951 C925 0.931 . S
H952 C932 0.932 . S
H953 C933 0.930 . S
H954 C934 0.929 . S
H955 C936 0.930 . S
H956 C938 0.932 . S
H957 C939 0.929 . S
H958 C940 0.928 . S
H959 C942 0.932 . S
C960 C961 1.264 . S
C960 C965 1.479 . S
C960 C970 1.465 . S
C961 C960 1.264 . S
C961 C963 1.339 . S
C961 H988 0.931 . S
C962 C963 1.395 . S
C962 C964 1.320 . S
C963 C961 1.339 . S
C963 C962 1.395 . S
C963 H989 0.929 . S
C964 C962 1.320 . S
C964 C965 1.405 . S
C964 H990 0.930 . S
C965 C960 1.479 . S
C965 C964 1.405 . S
C965 H991 0.931 . S
U966 O967 2.454 . S
U966 O968 2.458 . S
U966 C969 2.984 . S
U966 C970 2.847 . S
U966 C983 2.882 . S
U966 O984 2.441 . S
U966 O985 2.420 . S
U966 O986 2.455 . S
U966 O987 2.449 . S
O967 U966 2.454 . S
O967 C969 1.353 . S
O968 U966 2.458 . S
O968 C969 1.286 . S
C969 U966 2.984 . S
C969 O967 1.353 . S
C969 O968 1.286 . S
C969 C971 1.363 . S
C970 C960 1.465 . S
C970 U966 2.847 . S
C970 O984 1.249 . S
C970 O985 1.202 . S
C971 C969 1.363 . S
C971 C973 1.408 . S
C971 C976 1.342 . S
C972 C973 1.310 . S
C972 C975 1.461 . S
C972 H992 0.932 . S
C973 C971 1.408 . S
C973 C972 1.310 . S
C973 H993 0.930 . S
C974 C975 1.474 . S
C974 C976 1.285 . S
C974 H994 0.929 . S
C975 C972 1.461 . S
C975 C974 1.474 . S
C976 C971 1.342 . S
C976 C974 1.285 . S
C976 H995 0.930 . S
C977 C980 1.424 . S
C977 C982 1.245 . S
C977 C983 1.428 . S
C978 C981 1.260 . S
C978 C982 1.477 . S
C978 H996 0.932 . S
C979 C980 1.384 . S
C979 C981 1.479 . S
C979 H997 0.929 . S
C980 C977 1.424 . S
C980 C979 1.384 . S
C980 H998 0.928 . S
C981 C978 1.260 . S
C981 C979 1.479 . S
C982 C977 1.245 . S
C982 C978 1.477 . S
C982 H999 0.932 . S
C983 U966 2.882 . S
C983 C977 1.428 . S
C983 O986 1.301 . S
C983 O987 1.282 . S
O984 U966 2.441 . S
O984 C970 1.249 . S
O985 U966 2.420 . S
O985 C970 1.202 . S
O986 U966 2.455 . S
O986 C983 1.301 . S
O987 U966 2.449 . S
O987 C983 1.282 . S
H988 C961 0.931 . S
H989 C963 0.929 . S
H990 C964 0.930 . S
H991 C965 0.931 . S
H992 C972 0.932 . S
H993 C973 0.930 . S
H994 C974 0.929 . S
H995 C976 0.930 . S
H996 C978 0.932 . S
H997 C979 0.929 . S
H998 C980 0.928 . S
H999 C982 0.932 . S
C1000 C1001 1.264 . S
C1000 C1005 1.479 . S
C1000 C1010 1.465 . S
C1001 C1000 1.264 . S
C1001 C1003 1.339 . S
C1001 H1028 0.931 . S
C1002 C1003 1.395 . S
C1002 C1004 1.320 . S
C1003 C1001 1.339 . S
C1003 C1002 1.395 . S
C1003 H1029 0.929 . S
C1004 C1002 1.320 . S
C1004 C1005 1.405 . S
C1004 H1030 0.930 . S
C1005 C1000 1.479 . S
C1005 C1004 1.405 . S
C1005 H1031 0.931 . S
U1006 O1007 2.454 . S
U1006 O1008 2.458 . S
U1006 C1009 2.984 . S
U1006 C1010 2.847 . S
U1006 C1023 2.882 . S
U1006 O1024 2.441 . S
U1006 O1025 2.420 . S
U1006 O1026 2.455 . S
U1006 O1027 2.449 . S
O1007 U1006 2.454 . S
O1007 C1009 1.353 . S
O1008 U1006 2.458 . S
O1008 C1009 1.286 . S
C1009 U1006 2.984 . S
C1009 O1007 1.353 . S
C1009 O1008 1.286 . S
C1009 C1011 1.363 . S
C1010 C1000 1.465 . S
C1010 U1006 2.847 . S
C1010 O1024 1.249 . S
C1010 O1025 1.202 . S
C1011 C1009 1.363 . S
C1011 C1013 1.408 . S
C1011 C1016 1.342 . S
C1012 C1013 1.310 . S
C1012 C1015 1.461 . S
C1012 H1032 0.932 . S
C1013 C1011 1.408 . S
C1013 C1012 1.310 . S
C1013 H1033 0.930 . S
C1014 C1015 1.474 . S
C1014 C1016 1.285 . S
C1014 H1034 0.929 . S
C1015 C1012 1.461 . S
C1015 C1014 1.474 . S
C1016 C1011 1.342 . S
C1016 C1014 1.285 . S
C1016 H1035 0.930 . S
C1017 C1020 1.424 . S
C1017 C1022 1.245 . S
C1017 C1023 1.428 . S
C1018 C1021 1.260 . S
C1018 C1022 1.477 . S
C1018 H1036 0.932 . S
C1019 C1020 1.384 . S
C1019 C1021 1.479 . S
C1019 H1037 0.929 . S
C1020 C1017 1.424 . S
C1020 C1019 1.384 . S
C1020 H1038 0.928 . S
C1021 C1018 1.260 . S
C1021 C1019 1.479 . S
C1022 C1017 1.245 . S
C1022 C1018 1.477 . S
C1022 H1039 0.932 . S
C1023 U1006 2.882 . S
C1023 C1017 1.428 . S
C1023 O1026 1.301 . S
C1023 O1027 1.282 . S
O1024 U1006 2.441 . S
O1024 C1010 1.249 . S
O1025 U1006 2.420 . S
O1025 C1010 1.202 . S
O1026 U1006 2.455 . S
O1026 C1023 1.301 . S
O1027 U1006 2.449 . S
O1027 C1023 1.282 . S
H1028 C1001 0.931 . S
H1029 C1003 0.929 . S
H1030 C1004 0.930 . S
H1031 C1005 0.931 . S
H1032 C1012 0.932 . S
H1033 C1013 0.930 . S
H1034 C1014 0.929 . S
H1035 C1016 0.930 . S
H1036 C1018 0.932 . S
H1037 C1019 0.929 . S
H1038 C1020 0.928 . S
H1039 C1022 0.932 . S
C1040 C1041 1.264 . S
C1040 C1045 1.479 . S
C1040 C1050 1.465 . S
C1041 C1040 1.264 . S
C1041 C1043 1.339 . S
C1041 H1068 0.931 . S
C1042 C1043 1.395 . S
C1042 C1044 1.320 . S
C1043 C1041 1.339 . S
C1043 C1042 1.395 . S
C1043 H1069 0.929 . S
C1044 C1042 1.320 . S
C1044 C1045 1.405 . S
C1044 H1070 0.930 . S
C1045 C1040 1.479 . S
C1045 C1044 1.405 . S
C1045 H1071 0.931 . S
U1046 O1047 2.454 . S
U1046 O1048 2.458 . S
U1046 C1049 2.984 . S
U1046 C1050 2.847 . S
U1046 C1063 2.882 . S
U1046 O1064 2.441 . S
U1046 O1065 2.420 . S
U1046 O1066 2.455 . S
U1046 O1067 2.449 . S
O1047 U1046 2.454 . S
O1047 C1049 1.353 . S
O1048 U1046 2.458 . S
O1048 C1049 1.286 . S
C1049 U1046 2.984 . S
C1049 O1047 1.353 . S
C1049 O1048 1.286 . S
C1049 C1051 1.363 . S
C1050 C1040 1.465 . S
C1050 U1046 2.847 . S
C1050 O1064 1.249 . S
C1050 O1065 1.202 . S
C1051 C1049 1.363 . S
C1051 C1053 1.408 . S
C1051 C1056 1.342 . S
C1052 C1053 1.310 . S
C1052 C1055 1.461 . S
C1052 H1072 0.932 . S
C1053 C1051 1.408 . S
C1053 C1052 1.310 . S
C1053 H1073 0.930 . S
C1054 C1055 1.474 . S
C1054 C1056 1.285 . S
C1054 H1074 0.929 . S
C1055 C1052 1.461 . S
C1055 C1054 1.474 . S
C1056 C1051 1.342 . S
C1056 C1054 1.285 . S
C1056 H1075 0.930 . S
C1057 C1060 1.424 . S
C1057 C1062 1.245 . S
C1057 C1063 1.428 . S
C1058 C1061 1.260 . S
C1058 C1062 1.477 . S
C1058 H1076 0.932 . S
C1059 C1060 1.384 . S
C1059 C1061 1.479 . S
C1059 H1077 0.929 . S
C1060 C1057 1.424 . S
C1060 C1059 1.384 . S
C1060 H1078 0.928 . S
C1061 C1058 1.260 . S
C1061 C1059 1.479 . S
C1062 C1057 1.245 . S
C1062 C1058 1.477 . S
C1062 H1079 0.932 . S
C1063 U1046 2.882 . S
C1063 C1057 1.428 . S
C1063 O1066 1.301 . S
C1063 O1067 1.282 . S
O1064 U1046 2.441 . S
O1064 C1050 1.249 . S
O1065 U1046 2.420 . S
O1065 C1050 1.202 . S
O1066 U1046 2.455 . S
O1066 C1063 1.301 . S
O1067 U1046 2.449 . S
O1067 C1063 1.282 . S
H1068 C1041 0.931 . S
H1069 C1043 0.929 . S
H1070 C1044 0.930 . S
H1071 C1045 0.931 . S
H1072 C1052 0.932 . S
H1073 C1053 0.930 . S
H1074 C1054 0.929 . S
H1075 C1056 0.930 . S
H1076 C1058 0.932 . S
H1077 C1059 0.929 . S
H1078 C1060 0.928 . S
H1079 C1062 0.932 . S
C1080 C1081 1.264 . S
C1080 C1085 1.479 . S
C1080 C1090 1.465 . S
C1081 C1080 1.264 . S
C1081 C1083 1.339 . S
C1081 H1108 0.931 . S
C1082 C1083 1.395 . S
C1082 C1084 1.320 . S
C1083 C1081 1.339 . S
C1083 C1082 1.395 . S
C1083 H1109 0.929 . S
C1084 C1082 1.320 . S
C1084 C1085 1.405 . S
C1084 H1110 0.930 . S
C1085 C1080 1.479 . S
C1085 C1084 1.405 . S
C1085 H1111 0.931 . S
U1086 O1087 2.454 . S
U1086 O1088 2.458 . S
U1086 C1089 2.984 . S
U1086 C1090 2.847 . S
U1086 C1103 2.882 . S
U1086 O1104 2.441 . S
U1086 O1105 2.420 . S
U1086 O1106 2.455 . S
U1086 O1107 2.449 . S
O1087 U1086 2.454 . S
O1087 C1089 1.353 . S
O1088 U1086 2.458 . S
O1088 C1089 1.286 . S
C1089 U1086 2.984 . S
C1089 O1087 1.353 . S
C1089 O1088 1.286 . S
C1089 C1091 1.363 . S
C1090 C1080 1.465 . S
C1090 U1086 2.847 . S
C1090 O1104 1.249 . S
C1090 O1105 1.202 . S
C1091 C1089 1.363 . S
C1091 C1093 1.408 . S
C1091 C1096 1.342 . S
C1092 C1093 1.310 . S
C1092 C1095 1.461 . S
C1092 H1112 0.932 . S
C1093 C1091 1.408 . S
C1093 C1092 1.310 . S
C1093 H1113 0.930 . S
C1094 C1095 1.474 . S
C1094 C1096 1.285 . S
C1094 H1114 0.929 . S
C1095 C1092 1.461 . S
C1095 C1094 1.474 . S
C1096 C1091 1.342 . S
C1096 C1094 1.285 . S
C1096 H1115 0.930 . S
C1097 C1100 1.424 . S
C1097 C1102 1.245 . S
C1097 C1103 1.428 . S
C1098 C1101 1.260 . S
C1098 C1102 1.477 . S
C1098 H1116 0.932 . S
C1099 C1100 1.384 . S
C1099 C1101 1.479 . S
C1099 H1117 0.929 . S
C1100 C1097 1.424 . S
C1100 C1099 1.384 . S
C1100 H1118 0.928 . S
C1101 C1098 1.260 . S
C1101 C1099 1.479 . S
C1102 C1097 1.245 . S
C1102 C1098 1.477 . S
C1102 H1119 0.932 . S
C1103 U1086 2.882 . S
C1103 C1097 1.428 . S
C1103 O1106 1.301 . S
C1103 O1107 1.282 . S
O1104 U1086 2.441 . S
O1104 C1090 1.249 . S
O1105 U1086 2.420 . S
O1105 C1090 1.202 . S
O1106 U1086 2.455 . S
O1106 C1103 1.301 . S
O1107 U1086 2.449 . S
O1107 C1103 1.282 . S
H1108 C1081 0.931 . S
H1109 C1083 0.929 . S
H1110 C1084 0.930 . S
H1111 C1085 0.931 . S
H1112 C1092 0.932 . S
H1113 C1093 0.930 . S
H1114 C1094 0.929 . S
H1115 C1096 0.930 . S
H1116 C1098 0.932 . S
H1117 C1099 0.929 . S
H1118 C1100 0.928 . S
H1119 C1102 0.932 . S
C1120 C1121 1.264 . S
C1120 C1125 1.479 . S
C1120 C1130 1.465 . S
C1121 C1120 1.264 . S
C1121 C1123 1.339 . S
C1121 H1148 0.931 . S
C1122 C1123 1.395 . S
C1122 C1124 1.320 . S
C1123 C1121 1.339 . S
C1123 C1122 1.395 . S
C1123 H1149 0.929 . S
C1124 C1122 1.320 . S
C1124 C1125 1.405 . S
C1124 H1150 0.930 . S
C1125 C1120 1.479 . S
C1125 C1124 1.405 . S
C1125 H1151 0.931 . S
U1126 O1127 2.454 . S
U1126 O1128 2.458 . S
U1126 C1129 2.984 . S
U1126 C1130 2.847 . S
U1126 C1143 2.882 . S
U1126 O1144 2.441 . S
U1126 O1145 2.420 . S
U1126 O1146 2.455 . S
U1126 O1147 2.449 . S
O1127 U1126 2.454 . S
O1127 C1129 1.353 . S
O1128 U1126 2.458 . S
O1128 C1129 1.286 . S
C1129 U1126 2.984 . S
C1129 O1127 1.353 . S
C1129 O1128 1.286 . S
C1129 C1131 1.363 . S
C1130 C1120 1.465 . S
C1130 U1126 2.847 . S
C1130 O1144 1.249 . S
C1130 O1145 1.202 . S
C1131 C1129 1.363 . S
C1131 C1133 1.408 . S
C1131 C1136 1.342 . S
C1132 C1133 1.310 . S
C1132 C1135 1.461 . S
C1132 H1152 0.932 . S
C1133 C1131 1.408 . S
C1133 C1132 1.310 . S
C1133 H1153 0.930 . S
C1134 C1135 1.474 . S
C1134 C1136 1.285 . S
C1134 H1154 0.929 . S
C1135 C1132 1.461 . S
C1135 C1134 1.474 . S
C1136 C1131 1.342 . S
C1136 C1134 1.285 . S
C1136 H1155 0.930 . S
C1137 C1140 1.424 . S
C1137 C1142 1.245 . S
C1137 C1143 1.428 . S
C1138 C1141 1.260 . S
C1138 C1142 1.477 . S
C1138 H1156 0.932 . S
C1139 C1140 1.384 . S
C1139 C1141 1.479 . S
C1139 H1157 0.929 . S
C1140 C1137 1.424 . S
C1140 C1139 1.384 . S
C1140 H1158 0.928 . S
C1141 C1138 1.260 . S
C1141 C1139 1.479 . S
C1142 C1137 1.245 . S
C1142 C1138 1.477 . S
C1142 H1159 0.932 . S
C1143 U1126 2.882 . S
C1143 C1137 1.428 . S
C1143 O1146 1.301 . S
C1143 O1147 1.282 . S
O1144 U1126 2.441 . S
O1144 C1130 1.249 . S
O1145 U1126 2.420 . S
O1145 C1130 1.202 . S
O1146 U1126 2.455 . S
O1146 C1143 1.301 . S
O1147 U1126 2.449 . S
O1147 C1143 1.282 . S
H1148 C1121 0.931 . S
H1149 C1123 0.929 . S
H1150 C1124 0.930 . S
H1151 C1125 0.931 . S
H1152 C1132 0.932 . S
H1153 C1133 0.930 . S
H1154 C1134 0.929 . S
H1155 C1136 0.930 . S
H1156 C1138 0.932 . S
H1157 C1139 0.929 . S
H1158 C1140 0.928 . S
H1159 C1142 0.932 . S
C1160 C1161 1.264 . S
C1160 C1165 1.479 . S
C1160 C1170 1.465 . S
C1161 C1160 1.264 . S
C1161 C1163 1.339 . S
C1161 H1188 0.931 . S
C1162 C1163 1.395 . S
C1162 C1164 1.320 . S
C1163 C1161 1.339 . S
C1163 C1162 1.395 . S
C1163 H1189 0.929 . S
C1164 C1162 1.320 . S
C1164 C1165 1.405 . S
C1164 H1190 0.930 . S
C1165 C1160 1.479 . S
C1165 C1164 1.405 . S
C1165 H1191 0.931 . S
U1166 O1167 2.454 . S
U1166 O1168 2.458 . S
U1166 C1169 2.984 . S
U1166 C1170 2.847 . S
U1166 C1183 2.882 . S
U1166 O1184 2.441 . S
U1166 O1185 2.420 . S
U1166 O1186 2.455 . S
U1166 O1187 2.449 . S
O1167 U1166 2.454 . S
O1167 C1169 1.353 . S
O1168 U1166 2.458 . S
O1168 C1169 1.286 . S
C1169 U1166 2.984 . S
C1169 O1167 1.353 . S
C1169 O1168 1.286 . S
C1169 C1171 1.363 . S
C1170 C1160 1.465 . S
C1170 U1166 2.847 . S
C1170 O1184 1.249 . S
C1170 O1185 1.202 . S
C1171 C1169 1.363 . S
C1171 C1173 1.408 . S
C1171 C1176 1.342 . S
C1172 C1173 1.310 . S
C1172 C1175 1.461 . S
C1172 H1192 0.932 . S
C1173 C1171 1.408 . S
C1173 C1172 1.310 . S
C1173 H1193 0.930 . S
C1174 C1175 1.474 . S
C1174 C1176 1.285 . S
C1174 H1194 0.929 . S
C1175 C1172 1.461 . S
C1175 C1174 1.474 . S
C1176 C1171 1.342 . S
C1176 C1174 1.285 . S
C1176 H1195 0.930 . S
C1177 C1180 1.424 . S
C1177 C1182 1.245 . S
C1177 C1183 1.428 . S
C1178 C1181 1.260 . S
C1178 C1182 1.477 . S
C1178 H1196 0.932 . S
C1179 C1180 1.384 . S
C1179 C1181 1.479 . S
C1179 H1197 0.929 . S
C1180 C1177 1.424 . S
C1180 C1179 1.384 . S
C1180 H1198 0.928 . S
C1181 C1178 1.260 . S
C1181 C1179 1.479 . S
C1182 C1177 1.245 . S
C1182 C1178 1.477 . S
C1182 H1199 0.932 . S
C1183 U1166 2.882 . S
C1183 C1177 1.428 . S
C1183 O1186 1.301 . S
C1183 O1187 1.282 . S
O1184 U1166 2.441 . S
O1184 C1170 1.249 . S
O1185 U1166 2.420 . S
O1185 C1170 1.202 . S
O1186 U1166 2.455 . S
O1186 C1183 1.301 . S
O1187 U1166 2.449 . S
O1187 C1183 1.282 . S
H1188 C1161 0.931 . S
H1189 C1163 0.929 . S
H1190 C1164 0.930 . S
H1191 C1165 0.931 . S
H1192 C1172 0.932 . S
H1193 C1173 0.930 . S
H1194 C1174 0.929 . S
H1195 C1176 0.930 . S
H1196 C1178 0.932 . S
H1197 C1179 0.929 . S
H1198 C1180 0.928 . S
H1199 C1182 0.932 . S
C1200 C1201 1.264 . S
C1200 C1205 1.479 . S
C1200 C1210 1.465 . S
C1201 C1200 1.264 . S
C1201 C1203 1.339 . S
C1201 H1228 0.931 . S
C1202 C1203 1.395 . S
C1202 C1204 1.320 . S
C1203 C1201 1.339 . S
C1203 C1202 1.395 . S
C1203 H1229 0.929 . S
C1204 C1202 1.320 . S
C1204 C1205 1.405 . S
C1204 H1230 0.930 . S
C1205 C1200 1.479 . S
C1205 C1204 1.405 . S
C1205 H1231 0.931 . S
U1206 O1207 2.454 . S
U1206 O1208 2.458 . S
U1206 C1209 2.984 . S
U1206 C1210 2.847 . S
U1206 C1223 2.882 . S
U1206 O1224 2.441 . S
U1206 O1225 2.420 . S
U1206 O1226 2.455 . S
U1206 O1227 2.449 . S
O1207 U1206 2.454 . S
O1207 C1209 1.353 . S
O1208 U1206 2.458 . S
O1208 C1209 1.286 . S
C1209 U1206 2.984 . S
C1209 O1207 1.353 . S
C1209 O1208 1.286 . S
C1209 C1211 1.363 . S
C1210 C1200 1.465 . S
C1210 U1206 2.847 . S
C1210 O1224 1.249 . S
C1210 O1225 1.202 . S
C1211 C1209 1.363 . S
C1211 C1213 1.408 . S
C1211 C1216 1.342 . S
C1212 C1213 1.310 . S
C1212 C1215 1.461 . S
C1212 H1232 0.932 . S
C1213 C1211 1.408 . S
C1213 C1212 1.310 . S
C1213 H1233 0.930 . S
C1214 C1215 1.474 . S
C1214 C1216 1.285 . S
C1214 H1234 0.929 . S
C1215 C1212 1.461 . S
C1215 C1214 1.474 . S
C1216 C1211 1.342 . S
C1216 C1214 1.285 . S
C1216 H1235 0.930 . S
C1217 C1220 1.424 . S
C1217 C1222 1.245 . S
C1217 C1223 1.428 . S
C1218 C1221 1.260 . S
C1218 C1222 1.477 . S
C1218 H1236 0.932 . S
C1219 C1220 1.384 . S
C1219 C1221 1.479 . S
C1219 H1237 0.929 . S
C1220 C1217 1.424 . S
C1220 C1219 1.384 . S
C1220 H1238 0.928 . S
C1221 C1218 1.260 . S
C1221 C1219 1.479 . S
C1222 C1217 1.245 . S
C1222 C1218 1.477 . S
C1222 H1239 0.932 . S
C1223 U1206 2.882 . S
C1223 C1217 1.428 . S
C1223 O1226 1.301 . S
C1223 O1227 1.282 . S
O1224 U1206 2.441 . S
O1224 C1210 1.249 . S
O1225 U1206 2.420 . S
O1225 C1210 1.202 . S
O1226 U1206 2.455 . S
O1226 C1223 1.301 . S
O1227 U1206 2.449 . S
O1227 C1223 1.282 . S
H1228 C1201 0.931 . S
H1229 C1203 0.929 . S
H1230 C1204 0.930 . S
H1231 C1205 0.931 . S
H1232 C1212 0.932 . S
H1233 C1213 0.930 . S
H1234 C1214 0.929 . S
H1235 C1216 0.930 . S
H1236 C1218 0.932 . S
H1237 C1219 0.929 . S
H1238 C1220 0.928 . S
H1239 C1222 0.932 . S
C1240 C1241 1.264 . S
C1240 C1245 1.479 . S
C1240 C1250 1.465 . S
C1241 C1240 1.264 . S
C1241 C1243 1.339 . S
C1241 H1268 0.931 . S
C1242 C1243 1.395 . S
C1242 C1244 1.320 . S
C1243 C1241 1.339 . S
C1243 C1242 1.395 . S
C1243 H1269 0.929 . S
C1244 C1242 1.320 . S
C1244 C1245 1.405 . S
C1244 H1270 0.930 . S
C1245 C1240 1.479 . S
C1245 C1244 1.405 . S
C1245 H1271 0.931 . S
U1246 O1247 2.454 . S
U1246 O1248 2.458 . S
U1246 C1249 2.984 . S
U1246 C1250 2.847 . S
U1246 C1263 2.882 . S
U1246 O1264 2.441 . S
U1246 O1265 2.420 . S
U1246 O1266 2.455 . S
U1246 O1267 2.449 . S
O1247 U1246 2.454 . S
O1247 C1249 1.353 . S
O1248 U1246 2.458 . S
O1248 C1249 1.286 . S
C1249 U1246 2.984 . S
C1249 O1247 1.353 . S
C1249 O1248 1.286 . S
C1249 C1251 1.363 . S
C1250 C1240 1.465 . S
C1250 U1246 2.847 . S
C1250 O1264 1.249 . S
C1250 O1265 1.202 . S
C1251 C1249 1.363 . S
C1251 C1253 1.408 . S
C1251 C1256 1.342 . S
C1252 C1253 1.310 . S
C1252 C1255 1.461 . S
C1252 H1272 0.932 . S
C1253 C1251 1.408 . S
C1253 C1252 1.310 . S
C1253 H1273 0.930 . S
C1254 C1255 1.474 . S
C1254 C1256 1.285 . S
C1254 H1274 0.929 . S
C1255 C1252 1.461 . S
C1255 C1254 1.474 . S
C1256 C1251 1.342 . S
C1256 C1254 1.285 . S
C1256 H1275 0.930 . S
C1257 C1260 1.424 . S
C1257 C1262 1.245 . S
C1257 C1263 1.428 . S
C1258 C1261 1.260 . S
C1258 C1262 1.477 . S
C1258 H1276 0.932 . S
C1259 C1260 1.384 . S
C1259 C1261 1.479 . S
C1259 H1277 0.929 . S
C1260 C1257 1.424 . S
C1260 C1259 1.384 . S
C1260 H1278 0.928 . S
C1261 C1258 1.260 . S
C1261 C1259 1.479 . S
C1262 C1257 1.245 . S
C1262 C1258 1.477 . S
C1262 H1279 0.932 . S
C1263 U1246 2.882 . S
C1263 C1257 1.428 . S
C1263 O1266 1.301 . S
C1263 O1267 1.282 . S
O1264 U1246 2.441 . S
O1264 C1250 1.249 . S
O1265 U1246 2.420 . S
O1265 C1250 1.202 . S
O1266 U1246 2.455 . S
O1266 C1263 1.301 . S
O1267 U1246 2.449 . S
O1267 C1263 1.282 . S
H1268 C1241 0.931 . S
H1269 C1243 0.929 . S
H1270 C1244 0.930 . S
H1271 C1245 0.931 . S
H1272 C1252 0.932 . S
H1273 C1253 0.930 . S
H1274 C1254 0.929 . S
H1275 C1256 0.930 . S
H1276 C1258 0.932 . S
H1277 C1259 0.929 . S
H1278 C1260 0.928 . S
H1279 C1262 0.932 . S
H1280 C1307 0.929 . S
N1281 C1306 1.433 . S
N1281 C1312 1.435 . S
N1281 C1318 1.423 . S
H1282 C1308 0.930 . S
H1283 C1311 0.931 . S
H1284 C1310 0.929 . S
H1285 C1313 0.930 . S
H1286 C1314 0.932 . S
H1287 C1317 0.929 . S
H1288 C1316 0.931 . S
H1289 C1319 0.929 . S
H1290 C1323 0.932 . S
H1291 C1320 0.931 . S
H1292 C1322 0.929 . S
H1293 C1325 0.929 . S
H1294 C1326 0.930 . S
H1295 C1328 0.929 . S
H1296 C1329 0.931 . S
H1297 C1331 0.930 . S
H1298 C1332 0.932 . S
H1299 C1334 0.931 . S
H1300 C1335 0.929 . S
H1301 C1337 0.929 . S
H1302 C1338 0.931 . S
H1303 C1340 0.929 . S
N1304 C1324 1.433 . S
N1304 C1330 1.435 . S
N1304 C1336 1.423 . S
H1305 C1341 0.932 . S
C1306 N1281 1.433 . S
C1306 C1307 1.363 . S
C1306 C1311 1.370 . S
C1307 H1280 0.929 . S
C1307 C1306 1.363 . S
C1307 C1308 1.385 . S
C1308 H1282 0.930 . S
C1308 C1307 1.385 . S
C1308 C1309 1.357 . S
C1309 C1308 1.357 . S
C1309 C1310 1.406 . S
C1310 H1284 0.929 . S
C1310 C1309 1.406 . S
C1310 C1311 1.391 . S
C1311 H1283 0.931 . S
C1311 C1306 1.370 . S
C1311 C1310 1.391 . S
C1312 N1281 1.435 . S
C1312 C1313 1.358 . S
C1312 C1317 1.371 . S
C1313 H1285 0.930 . S
C1313 C1312 1.358 . S
C1313 C1314 1.405 . S
C1314 H1286 0.932 . S
C1314 C1313 1.405 . S
C1314 C1315 1.383 . S
C1315 C1314 1.383 . S
C1315 C1316 1.393 . S
C1316 H1288 0.931 . S
C1316 C1315 1.393 . S
C1316 C1317 1.382 . S
C1317 H1287 0.929 . S
C1317 C1312 1.371 . S
C1317 C1316 1.382 . S
C1318 N1281 1.423 . S
C1318 C1319 1.362 . S
C1318 C1323 1.388 . S
C1319 H1289 0.929 . S
C1319 C1318 1.362 . S
C1319 C1320 1.376 . S
C1320 H1291 0.931 . S
C1320 C1319 1.376 . S
C1320 C1321 1.399 . S
C1321 C1320 1.399 . S
C1321 C1322 1.351 . S
C1321 C1339 1.467 1_556 S
C1322 H1292 0.929 . S
C1322 C1321 1.351 . S
C1322 C1323 1.443 . S
C1323 H1290 0.932 . S
C1323 C1318 1.388 . S
C1323 C1322 1.443 . S
C1324 N1304 1.433 . S
C1324 C1325 1.363 . S
C1324 C1329 1.370 . S
C1325 H1293 0.929 . S
C1325 C1324 1.363 . S
C1325 C1326 1.385 . S
C1326 H1294 0.930 . S
C1326 C1325 1.385 . S
C1326 C1327 1.357 . S
C1327 C1326 1.357 . S
C1327 C1328 1.406 . S
C1328 H1295 0.929 . S
C1328 C1327 1.406 . S
C1328 C1329 1.391 . S
C1329 H1296 0.931 . S
C1329 C1324 1.370 . S
C1329 C1328 1.391 . S
C1330 N1304 1.435 . S
C1330 C1331 1.358 . S
C1330 C1335 1.371 . S
C1331 H1297 0.930 . S
C1331 C1330 1.358 . S
C1331 C1332 1.405 . S
C1332 H1298 0.932 . S
C1332 C1331 1.405 . S
C1332 C1333 1.383 . S
C1333 C1332 1.383 . S
C1333 C1334 1.393 . S
C1334 H1299 0.931 . S
C1334 C1333 1.393 . S
C1334 C1335 1.382 . S
C1335 H1300 0.929 . S
C1335 C1330 1.371 . S
C1335 C1334 1.382 . S
C1336 N1304 1.423 . S
C1336 C1337 1.362 . S
C1336 C1341 1.388 . S
C1337 H1301 0.929 . S
C1337 C1336 1.362 . S
C1337 C1338 1.376 . S
C1338 H1302 0.931 . S
C1338 C1337 1.376 . S
C1338 C1339 1.396 . S
C1339 C1321 1.467 1_554 S
C1339 C1338 1.396 . S
C1339 C1340 1.348 . S
C1340 H1303 0.929 . S
C1340 C1339 1.348 . S
C1340 C1341 1.443 . S
C1341 H1305 0.932 . S
C1341 C1336 1.388 . S
C1341 C1340 1.443 . S
H1342 C1369 0.929 . S
N1343 C1368 1.433 . S
N1343 C1374 1.435 . S
N1343 C1380 1.423 . S
H1344 C1370 0.930 . S
H1345 C1373 0.931 . S
H1346 C1372 0.929 . S
H1347 C1375 0.930 . S
H1348 C1376 0.932 . S
H1349 C1379 0.929 . S
H1350 C1378 0.931 . S
H1351 C1381 0.929 . S
H1352 C1385 0.932 . S
H1353 C1382 0.933 . S
H1354 C1384 0.925 . S
H1355 C1387 0.929 . S
H1356 C1388 0.930 . S
H1357 C1390 0.929 . S
H1358 C1391 0.931 . S
H1359 C1393 0.930 . S
H1360 C1394 0.932 . S
H1361 C1396 0.931 . S
H1362 C1397 0.929 . S
H1363 C1399 0.929 . S
H1364 C1400 0.931 . S
H1365 C1402 0.929 . S
N1366 C1386 1.433 . S
N1366 C1392 1.435 . S
N1366 C1398 1.423 . S
H1367 C1403 0.932 . S
C1368 N1343 1.433 . S
C1368 C1369 1.363 . S
C1368 C1373 1.370 . S
C1369 H1342 0.929 . S
C1369 C1368 1.363 . S
C1369 C1370 1.385 . S
C1370 H1344 0.930 . S
C1370 C1369 1.385 . S
C1370 C1371 1.357 . S
C1371 C1370 1.357 . S
C1371 C1372 1.406 . S
C1372 H1346 0.929 . S
C1372 C1371 1.406 . S
C1372 C1373 1.391 . S
C1373 H1345 0.931 . S
C1373 C1368 1.370 . S
C1373 C1372 1.391 . S
C1374 N1343 1.435 . S
C1374 C1375 1.358 . S
C1374 C1379 1.371 . S
C1375 H1347 0.930 . S
C1375 C1374 1.358 . S
C1375 C1376 1.405 . S
C1376 H1348 0.932 . S
C1376 C1375 1.405 . S
C1376 C1377 1.383 . S
C1377 C1376 1.383 . S
C1377 C1378 1.393 . S
C1378 H1350 0.931 . S
C1378 C1377 1.393 . S
C1378 C1379 1.382 . S
C1379 H1349 0.929 . S
C1379 C1374 1.371 . S
C1379 C1378 1.382 . S
C1380 N1343 1.423 . S
C1380 C1381 1.362 . S
C1380 C1385 1.388 . S
C1381 H1351 0.929 . S
C1381 C1380 1.362 . S
C1381 C1382 1.376 . S
C1382 H1353 0.933 . S
C1382 C1381 1.376 . S
C1382 C1383 1.396 1_556 S
C1383 C1382 1.396 1_554 S
C1383 C1384 1.348 1_554 S
C1383 C1401 1.472 . S
C1384 H1354 0.925 . S
C1384 C1383 1.348 1_556 S
C1384 C1385 1.443 . S
C1385 H1352 0.932 . S
C1385 C1380 1.388 . S
C1385 C1384 1.443 . S
C1386 N1366 1.433 . S
C1386 C1387 1.363 . S
C1386 C1391 1.370 . S
C1387 H1355 0.929 . S
C1387 C1386 1.363 . S
C1387 C1388 1.385 . S
C1388 H1356 0.930 . S
C1388 C1387 1.385 . S
C1388 C1389 1.357 . S
C1389 C1388 1.357 . S
C1389 C1390 1.406 . S
C1390 H1357 0.929 . S
C1390 C1389 1.406 . S
C1390 C1391 1.391 . S
C1391 H1358 0.931 . S
C1391 C1386 1.370 . S
C1391 C1390 1.391 . S
C1392 N1366 1.435 . S
C1392 C1393 1.358 . S
C1392 C1397 1.371 . S
C1393 H1359 0.930 . S
C1393 C1392 1.358 . S
C1393 C1394 1.405 . S
C1394 H1360 0.932 . S
C1394 C1393 1.405 . S
C1394 C1395 1.383 . S
C1395 C1394 1.383 . S
C1395 C1396 1.393 . S
C1396 H1361 0.931 . S
C1396 C1395 1.393 . S
C1396 C1397 1.382 . S
C1397 H1362 0.929 . S
C1397 C1392 1.371 . S
C1397 C1396 1.382 . S
C1398 N1366 1.423 . S
C1398 C1399 1.362 . S
C1398 C1403 1.388 . S
C1399 H1363 0.929 . S
C1399 C1398 1.362 . S
C1399 C1400 1.376 . S
C1400 H1364 0.931 . S
C1400 C1399 1.376 . S
C1400 C1401 1.396 . S
C1401 C1383 1.472 . S
C1401 C1400 1.396 . S
C1401 C1402 1.348 . S
C1402 H1365 0.929 . S
C1402 C1401 1.348 . S
C1402 C1403 1.443 . S
C1403 H1367 0.932 . S
C1403 C1398 1.388 . S
C1403 C1402 1.443 . S
H1404 C1431 0.929 . S
N1405 C1430 1.433 . S
N1405 C1436 1.435 . S
N1405 C1442 1.423 . S
H1406 C1432 0.930 . S
H1407 C1435 0.931 . S
H1408 C1434 0.929 . S
H1409 C1437 0.930 . S
H1410 C1438 0.932 . S
H1411 C1441 0.929 . S
H1412 C1440 0.931 . S
H1413 C1443 0.929 . S
H1414 C1447 0.932 . S
H1415 C1444 0.931 . S
H1416 C1446 0.929 . S
H1417 C1449 0.929 . S
H1418 C1450 0.930 . S
H1419 C1452 0.929 . S
H1420 C1453 0.931 . S
H1421 C1455 0.930 . S
H1422 C1456 0.932 . S
H1423 C1458 0.931 . S
H1424 C1459 0.929 . S
H1425 C1461 0.929 . S
H1426 C1462 0.931 . S
H1427 C1464 0.929 . S
N1428 C1448 1.433 . S
N1428 C1454 1.435 . S
N1428 C1460 1.423 . S
H1429 C1465 0.932 . S
C1430 N1405 1.433 . S
C1430 C1431 1.363 . S
C1430 C1435 1.370 . S
C1431 H1404 0.929 . S
C1431 C1430 1.363 . S
C1431 C1432 1.385 . S
C1432 H1406 0.930 . S
C1432 C1431 1.385 . S
C1432 C1433 1.357 . S
C1433 C1432 1.357 . S
C1433 C1434 1.406 . S
C1434 H1408 0.929 . S
C1434 C1433 1.406 . S
C1434 C1435 1.391 . S
C1435 H1407 0.931 . S
C1435 C1430 1.370 . S
C1435 C1434 1.391 . S
C1436 N1405 1.435 . S
C1436 C1437 1.358 . S
C1436 C1441 1.371 . S
C1437 H1409 0.930 . S
C1437 C1436 1.358 . S
C1437 C1438 1.405 . S
C1438 H1410 0.932 . S
C1438 C1437 1.405 . S
C1438 C1439 1.383 . S
C1439 C1438 1.383 . S
C1439 C1440 1.393 . S
C1440 H1412 0.931 . S
C1440 C1439 1.393 . S
C1440 C1441 1.382 . S
C1441 H1411 0.929 . S
C1441 C1436 1.371 . S
C1441 C1440 1.382 . S
C1442 N1405 1.423 . S
C1442 C1443 1.362 . S
C1442 C1447 1.388 . S
C1443 H1413 0.929 . S
C1443 C1442 1.362 . S
C1443 C1444 1.376 . S
C1444 H1415 0.931 . S
C1444 C1443 1.376 . S
C1444 C1445 1.392 . S
C1445 C1444 1.392 . S
C1445 C1446 1.344 . S
C1445 C1463 1.480 1_556 S
C1446 H1416 0.929 . S
C1446 C1445 1.344 . S
C1446 C1447 1.443 . S
C1447 H1414 0.932 . S
C1447 C1442 1.388 . S
C1447 C1446 1.443 . S
C1448 N1428 1.433 . S
C1448 C1449 1.363 . S
C1448 C1453 1.370 . S
C1449 H1417 0.929 . S
C1449 C1448 1.363 . S
C1449 C1450 1.385 . S
C1450 H1418 0.930 . S
C1450 C1449 1.385 . S
C1450 C1451 1.357 . S
C1451 C1450 1.357 . S
C1451 C1452 1.406 . S
C1452 H1419 0.929 . S
C1452 C1451 1.406 . S
C1452 C1453 1.391 . S
C1453 H1420 0.931 . S
C1453 C1448 1.370 . S
C1453 C1452 1.391 . S
C1454 N1428 1.435 . S
C1454 C1455 1.358 . S
C1454 C1459 1.371 . S
C1455 H1421 0.930 . S
C1455 C1454 1.358 . S
C1455 C1456 1.405 . S
C1456 H1422 0.932 . S
C1456 C1455 1.405 . S
C1456 C1457 1.383 . S
C1457 C1456 1.383 . S
C1457 C1458 1.393 . S
C1458 H1423 0.931 . S
C1458 C1457 1.393 . S
C1458 C1459 1.382 . S
C1459 H1424 0.929 . S
C1459 C1454 1.371 . S
C1459 C1458 1.382 . S
C1460 N1428 1.423 . S
C1460 C1461 1.362 . S
C1460 C1465 1.388 . S
C1461 H1425 0.929 . S
C1461 C1460 1.362 . S
C1461 C1462 1.376 . S
C1462 H1426 0.931 . S
C1462 C1461 1.376 . S
C1462 C1463 1.396 . S
C1463 C1445 1.480 1_554 S
C1463 C1462 1.396 . S
C1463 C1464 1.348 . S
C1464 H1427 0.929 . S
C1464 C1463 1.348 . S
C1464 C1465 1.443 . S
C1465 H1429 0.932 . S
C1465 C1460 1.388 . S
C1465 C1464 1.443 . S
H1466 C1493 0.929 . S
N1467 C1492 1.433 . S
N1467 C1498 1.435 . S
N1467 C1504 1.423 . S
H1468 C1494 0.930 . S
H1469 C1497 0.931 . S
H1470 C1496 0.929 . S
H1471 C1499 0.930 . S
H1472 C1500 0.932 . S
H1473 C1503 0.929 . S
H1474 C1502 0.931 . S
H1475 C1505 0.929 . S
H1476 C1509 0.932 . S
H1477 C1506 0.964 . S
H1478 C1508 0.929 . S
H1479 C1511 0.929 . S
H1480 C1512 0.930 . S
H1481 C1514 0.929 . S
H1482 C1515 0.931 . S
H1483 C1517 0.930 . S
H1484 C1518 0.932 . S
H1485 C1520 0.931 . S
H1486 C1521 0.929 . S
H1487 C1523 0.929 . S
H1488 C1524 0.931 . S
H1489 C1526 0.929 . S
N1490 C1510 1.433 . S
N1490 C1516 1.435 . S
N1490 C1522 1.423 . S
H1491 C1527 0.932 . S
C1492 N1467 1.433 . S
C1492 C1493 1.363 . S
C1492 C1497 1.370 . S
C1493 H1466 0.929 . S
C1493 C1492 1.363 . S
C1493 C1494 1.385 . S
C1494 H1468 0.930 . S
C1494 C1493 1.385 . S
C1494 C1495 1.357 . S
C1495 C1494 1.357 . S
C1495 C1496 1.406 . S
C1496 H1470 0.929 . S
C1496 C1495 1.406 . S
C1496 C1497 1.391 . S
C1497 H1469 0.931 . S
C1497 C1492 1.370 . S
C1497 C1496 1.391 . S
C1498 N1467 1.435 . S
C1498 C1499 1.358 . S
C1498 C1503 1.371 . S
C1499 H1471 0.930 . S
C1499 C1498 1.358 . S
C1499 C1500 1.405 . S
C1500 H1472 0.932 . S
C1500 C1499 1.405 . S
C1500 C1501 1.383 . S
C1501 C1500 1.383 . S
C1501 C1502 1.393 . S
C1502 H1474 0.931 . S
C1502 C1501 1.393 . S
C1502 C1503 1.382 . S
C1503 H1473 0.929 . S
C1503 C1498 1.371 . S
C1503 C1502 1.382 . S
C1504 N1467 1.423 . S
C1504 C1505 1.362 . S
C1504 C1509 1.388 . S
C1505 H1475 0.929 . S
C1505 C1504 1.362 . S
C1505 C1506 1.376 . S
C1506 H1477 0.964 . S
C1506 C1505 1.376 . S
C1506 C1507 1.396 1_556 S
C1507 C1506 1.396 1_554 S
C1507 C1508 1.348 1_554 S
C1507 C1525 1.472 . S
C1508 H1478 0.929 . S
C1508 C1507 1.348 1_556 S
C1508 C1509 1.443 . S
C1509 H1476 0.932 . S
C1509 C1504 1.388 . S
C1509 C1508 1.443 . S
C1510 N1490 1.433 . S
C1510 C1511 1.363 . S
C1510 C1515 1.370 . S
C1511 H1479 0.929 . S
C1511 C1510 1.363 . S
C1511 C1512 1.385 . S
C1512 H1480 0.930 . S
C1512 C1511 1.385 . S
C1512 C1513 1.357 . S
C1513 C1512 1.357 . S
C1513 C1514 1.406 . S
C1514 H1481 0.929 . S
C1514 C1513 1.406 . S
C1514 C1515 1.391 . S
C1515 H1482 0.931 . S
C1515 C1510 1.370 . S
C1515 C1514 1.391 . S
C1516 N1490 1.435 . S
C1516 C1517 1.358 . S
C1516 C1521 1.371 . S
C1517 H1483 0.930 . S
C1517 C1516 1.358 . S
C1517 C1518 1.405 . S
C1518 H1484 0.932 . S
C1518 C1517 1.405 . S
C1518 C1519 1.383 . S
C1519 C1518 1.383 . S
C1519 C1520 1.393 . S
C1520 H1485 0.931 . S
C1520 C1519 1.393 . S
C1520 C1521 1.382 . S
C1521 H1486 0.929 . S
C1521 C1516 1.371 . S
C1521 C1520 1.382 . S
C1522 N1490 1.423 . S
C1522 C1523 1.362 . S
C1522 C1527 1.388 . S
C1523 H1487 0.929 . S
C1523 C1522 1.362 . S
C1523 C1524 1.376 . S
C1524 H1488 0.931 . S
C1524 C1523 1.376 . S
C1524 C1525 1.396 . S
C1525 C1507 1.472 . S
C1525 C1524 1.396 . S
C1525 C1526 1.348 . S
C1526 H1489 0.929 . S
C1526 C1525 1.348 . S
C1526 C1527 1.443 . S
C1527 H1491 0.932 . S
C1527 C1522 1.388 . S
C1527 C1526 1.443 . S
H1528 C1555 0.929 . S
N1529 C1554 1.433 . S
N1529 C1560 1.435 . S
N1529 C1566 1.423 . S
H1530 C1556 0.930 . S
H1531 C1559 0.931 . S
H1532 C1558 0.929 . S
H1533 C1561 0.930 . S
H1534 C1562 0.932 . S
H1535 C1565 0.929 . S
H1536 C1564 0.931 . S
H1537 C1567 0.929 . S
H1538 C1571 0.932 . S
H1539 C1568 0.934 1_455 S
H1540 C1570 0.960 . S
H1541 C1573 0.929 . S
H1542 C1574 0.930 . S
H1543 C1576 0.929 . S
H1544 C1577 0.931 . S
H1545 C1579 0.930 . S
H1546 C1580 0.932 . S
H1547 C1582 0.931 . S
H1548 C1583 0.929 . S
H1549 C1585 0.929 . S
H1550 C1586 0.931 . S
H1551 C1588 0.929 . S
N1552 C1572 1.433 . S
N1552 C1578 1.435 . S
N1552 C1584 1.423 . S
H1553 C1589 0.932 . S
C1554 N1529 1.433 . S
C1554 C1555 1.363 . S
C1554 C1559 1.370 . S
C1555 H1528 0.929 . S
C1555 C1554 1.363 . S
C1555 C1556 1.385 . S
C1556 H1530 0.930 . S
C1556 C1555 1.385 . S
C1556 C1557 1.357 . S
C1557 C1556 1.357 . S
C1557 C1558 1.406 . S
C1558 H1532 0.929 . S
C1558 C1557 1.406 . S
C1558 C1559 1.391 . S
C1559 H1531 0.931 . S
C1559 C1554 1.370 . S
C1559 C1558 1.391 . S
C1560 N1529 1.435 . S
C1560 C1561 1.358 . S
C1560 C1565 1.371 . S
C1561 H1533 0.930 . S
C1561 C1560 1.358 . S
C1561 C1562 1.405 . S
C1562 H1534 0.932 . S
C1562 C1561 1.405 . S
C1562 C1563 1.383 . S
C1563 C1562 1.383 . S
C1563 C1564 1.393 . S
C1564 H1536 0.931 . S
C1564 C1563 1.393 . S
C1564 C1565 1.382 . S
C1565 H1535 0.929 . S
C1565 C1560 1.371 . S
C1565 C1564 1.382 . S
C1566 N1529 1.423 . S
C1566 C1567 1.362 . S
C1566 C1571 1.388 . S
C1567 H1537 0.929 . S
C1567 C1566 1.362 . S
C1567 C1568 1.376 . S
C1568 H1539 0.934 1_655 S
C1568 C1567 1.376 . S
C1568 C1569 1.396 1_655 S
C1569 C1568 1.396 1_455 S
C1569 C1570 1.348 1_455 S
C1569 C1587 1.472 . S
C1570 H1540 0.960 . S
C1570 C1569 1.348 1_655 S
C1570 C1571 1.443 . S
C1571 H1538 0.932 . S
C1571 C1566 1.388 . S
C1571 C1570 1.443 . S
C1572 N1552 1.433 . S
C1572 C1573 1.363 . S
C1572 C1577 1.370 . S
C1573 H1541 0.929 . S
C1573 C1572 1.363 . S
C1573 C1574 1.385 . S
C1574 H1542 0.930 . S
C1574 C1573 1.385 . S
C1574 C1575 1.357 . S
C1575 C1574 1.357 . S
C1575 C1576 1.406 . S
C1576 H1543 0.929 . S
C1576 C1575 1.406 . S
C1576 C1577 1.391 . S
C1577 H1544 0.931 . S
C1577 C1572 1.370 . S
C1577 C1576 1.391 . S
C1578 N1552 1.435 . S
C1578 C1579 1.358 . S
C1578 C1583 1.371 . S
C1579 H1545 0.930 . S
C1579 C1578 1.358 . S
C1579 C1580 1.405 . S
C1580 H1546 0.932 . S
C1580 C1579 1.405 . S
C1580 C1581 1.383 . S
C1581 C1580 1.383 . S
C1581 C1582 1.393 . S
C1582 H1547 0.931 . S
C1582 C1581 1.393 . S
C1582 C1583 1.382 . S
C1583 H1548 0.929 . S
C1583 C1578 1.371 . S
C1583 C1582 1.382 . S
C1584 N1552 1.423 . S
C1584 C1585 1.362 . S
C1584 C1589 1.388 . S
C1585 H1549 0.929 . S
C1585 C1584 1.362 . S
C1585 C1586 1.376 . S
C1586 H1550 0.931 . S
C1586 C1585 1.376 . S
C1586 C1587 1.396 . S
C1587 C1569 1.472 . S
C1587 C1586 1.396 . S
C1587 C1588 1.348 . S
C1588 H1551 0.929 . S
C1588 C1587 1.348 . S
C1588 C1589 1.443 . S
C1589 H1553 0.932 . S
C1589 C1584 1.388 . S
C1589 C1588 1.443 . S
H1590 C1617 0.929 . S
N1591 C1616 1.433 . S
N1591 C1622 1.435 . S
N1591 C1628 1.423 . S
H1592 C1618 0.930 . S
H1593 C1621 0.931 . S
H1594 C1620 0.929 . S
H1595 C1623 0.930 . S
H1596 C1624 0.932 . S
H1597 C1627 0.929 . S
H1598 C1626 0.931 . S
H1599 C1629 0.929 . S
H1600 C1633 0.932 . S
H1601 C1630 0.931 . S
H1602 C1632 0.929 . S
H1603 C1635 0.929 . S
H1604 C1636 0.930 . S
H1605 C1638 0.929 . S
H1606 C1639 0.931 . S
H1607 C1641 0.930 . S
H1608 C1642 0.932 . S
H1609 C1644 0.931 . S
H1610 C1645 0.929 . S
H1611 C1647 0.929 . S
H1612 C1648 0.931 . S
H1613 C1650 0.929 . S
N1614 C1634 1.433 . S
N1614 C1640 1.435 . S
N1614 C1646 1.423 . S
H1615 C1651 0.932 . S
C1616 N1591 1.433 . S
C1616 C1617 1.363 . S
C1616 C1621 1.370 . S
C1617 H1590 0.929 . S
C1617 C1616 1.363 . S
C1617 C1618 1.385 . S
C1618 H1592 0.930 . S
C1618 C1617 1.385 . S
C1618 C1619 1.357 . S
C1619 C1618 1.357 . S
C1619 C1620 1.406 . S
C1620 H1594 0.929 . S
C1620 C1619 1.406 . S
C1620 C1621 1.391 . S
C1621 H1593 0.931 . S
C1621 C1616 1.370 . S
C1621 C1620 1.391 . S
C1622 N1591 1.435 . S
C1622 C1623 1.358 . S
C1622 C1627 1.371 . S
C1623 H1595 0.930 . S
C1623 C1622 1.358 . S
C1623 C1624 1.405 . S
C1624 H1596 0.932 . S
C1624 C1623 1.405 . S
C1624 C1625 1.383 . S
C1625 C1624 1.383 . S
C1625 C1626 1.393 . S
C1626 H1598 0.931 . S
C1626 C1625 1.393 . S
C1626 C1627 1.382 . S
C1627 H1597 0.929 . S
C1627 C1622 1.371 . S
C1627 C1626 1.382 . S
C1628 N1591 1.423 . S
C1628 C1629 1.362 . S
C1628 C1633 1.388 . S
C1629 H1599 0.929 . S
C1629 C1628 1.362 . S
C1629 C1630 1.376 . S
C1630 H1601 0.931 . S
C1630 C1629 1.376 . S
C1630 C1631 1.396 . S
C1631 C1630 1.396 . S
C1631 C1632 1.348 . S
C1631 C1649 1.472 1_545 S
C1632 H1602 0.929 . S
C1632 C1631 1.348 . S
C1632 C1633 1.443 . S
C1633 H1600 0.932 . S
C1633 C1628 1.388 . S
C1633 C1632 1.443 . S
C1634 N1614 1.433 . S
C1634 C1635 1.363 . S
C1634 C1639 1.370 . S
C1635 H1603 0.929 . S
C1635 C1634 1.363 . S
C1635 C1636 1.385 . S
C1636 H1604 0.930 . S
C1636 C1635 1.385 . S
C1636 C1637 1.357 . S
C1637 C1636 1.357 . S
C1637 C1638 1.406 . S
C1638 H1605 0.929 . S
C1638 C1637 1.406 . S
C1638 C1639 1.391 . S
C1639 H1606 0.931 . S
C1639 C1634 1.370 . S
C1639 C1638 1.391 . S
C1640 N1614 1.435 . S
C1640 C1641 1.358 . S
C1640 C1645 1.371 . S
C1641 H1607 0.930 . S
C1641 C1640 1.358 . S
C1641 C1642 1.405 . S
C1642 H1608 0.932 . S
C1642 C1641 1.405 . S
C1642 C1643 1.383 . S
C1643 C1642 1.383 . S
C1643 C1644 1.393 . S
C1644 H1609 0.931 . S
C1644 C1643 1.393 . S
C1644 C1645 1.382 . S
C1645 H1610 0.929 . S
C1645 C1640 1.371 . S
C1645 C1644 1.382 . S
C1646 N1614 1.423 . S
C1646 C1647 1.362 . S
C1646 C1651 1.388 . S
C1647 H1611 0.929 . S
C1647 C1646 1.362 . S
C1647 C1648 1.376 . S
C1648 H1612 0.931 . S
C1648 C1647 1.376 . S
C1648 C1649 1.396 . S
C1649 C1631 1.472 1_565 S
C1649 C1648 1.396 . S
C1649 C1650 1.348 . S
C1650 H1613 0.929 . S
C1650 C1649 1.348 . S
C1650 C1651 1.443 . S
C1651 H1615 0.932 . S
C1651 C1646 1.388 . S
C1651 C1650 1.443 . S
H1652 C1679 0.929 . S
N1653 C1678 1.433 . S
N1653 C1684 1.435 . S
N1653 C1690 1.423 . S
H1654 C1680 0.930 . S
H1655 C1683 0.931 . S
H1656 C1682 0.929 . S
H1657 C1685 0.930 . S
H1658 C1686 0.932 . S
H1659 C1689 0.929 . S
H1660 C1688 0.931 . S
H1661 C1691 0.929 . S
H1662 C1695 0.932 . S
H1663 C1692 0.931 . S
H1664 C1694 0.929 . S
H1665 C1697 0.929 . S
H1666 C1698 0.930 . S
H1667 C1700 0.929 . S
H1668 C1701 0.931 . S
H1669 C1703 0.930 . S
H1670 C1704 0.932 . S
H1671 C1706 0.931 . S
H1672 C1707 0.929 . S
H1673 C1709 0.929 . S
H1674 C1710 0.978 . S
H1675 C1712 0.925 . S
N1676 C1696 1.433 . S
N1676 C1702 1.435 . S
N1676 C1708 1.423 . S
H1677 C1713 0.932 . S
C1678 N1653 1.433 . S
C1678 C1679 1.363 . S
C1678 C1683 1.370 . S
C1679 H1652 0.929 . S
C1679 C1678 1.363 . S
C1679 C1680 1.385 . S
C1680 H1654 0.930 . S
C1680 C1679 1.385 . S
C1680 C1681 1.357 . S
C1681 C1680 1.357 . S
C1681 C1682 1.406 . S
C1682 H1656 0.929 . S
C1682 C1681 1.406 . S
C1682 C1683 1.391 . S
C1683 H1655 0.931 . S
C1683 C1678 1.370 . S
C1683 C1682 1.391 . S
C1684 N1653 1.435 . S
C1684 C1685 1.358 . S
C1684 C1689 1.371 . S
C1685 H1657 0.930 . S
C1685 C1684 1.358 . S
C1685 C1686 1.405 . S
C1686 H1658 0.932 . S
C1686 C1685 1.405 . S
C1686 C1687 1.383 . S
C1687 C1686 1.383 . S
C1687 C1688 1.393 . S
C1688 H1660 0.931 . S
C1688 C1687 1.393 . S
C1688 C1689 1.382 . S
C1689 H1659 0.929 . S
C1689 C1684 1.371 . S
C1689 C1688 1.382 . S
C1690 N1653 1.423 . S
C1690 C1691 1.362 . S
C1690 C1695 1.388 . S
C1691 H1661 0.929 . S
C1691 C1690 1.362 . S
C1691 C1692 1.376 . S
C1692 H1663 0.931 . S
C1692 C1691 1.376 . S
C1692 C1693 1.396 . S
C1693 C1692 1.396 . S
C1693 C1694 1.348 . S
C1693 C1711 1.472 . S
C1694 H1664 0.929 . S
C1694 C1693 1.348 . S
C1694 C1695 1.443 . S
C1695 H1662 0.932 . S
C1695 C1690 1.388 . S
C1695 C1694 1.443 . S
C1696 N1676 1.433 . S
C1696 C1697 1.363 . S
C1696 C1701 1.370 . S
C1697 H1665 0.929 . S
C1697 C1696 1.363 . S
C1697 C1698 1.385 . S
C1698 H1666 0.930 . S
C1698 C1697 1.385 . S
C1698 C1699 1.357 . S
C1699 C1698 1.357 . S
C1699 C1700 1.406 . S
C1700 H1667 0.929 . S
C1700 C1699 1.406 . S
C1700 C1701 1.391 . S
C1701 H1668 0.931 . S
C1701 C1696 1.370 . S
C1701 C1700 1.391 . S
C1702 N1676 1.435 . S
C1702 C1703 1.358 . S
C1702 C1707 1.371 . S
C1703 H1669 0.930 . S
C1703 C1702 1.358 . S
C1703 C1704 1.405 . S
C1704 H1670 0.932 . S
C1704 C1703 1.405 . S
C1704 C1705 1.383 . S
C1705 C1704 1.383 . S
C1705 C1706 1.393 . S
C1706 H1671 0.931 . S
C1706 C1705 1.393 . S
C1706 C1707 1.382 . S
C1707 H1672 0.929 . S
C1707 C1702 1.371 . S
C1707 C1706 1.382 . S
C1708 N1676 1.423 . S
C1708 C1709 1.362 . S
C1708 C1713 1.388 . S
C1709 H1673 0.929 . S
C1709 C1708 1.362 . S
C1709 C1710 1.376 . S
C1710 H1674 0.978 . S
C1710 C1709 1.376 . S
C1710 C1711 1.396 1_655 S
C1711 C1693 1.472 . S
C1711 C1710 1.396 1_455 S
C1711 C1712 1.348 1_455 S
C1712 H1675 0.925 . S
C1712 C1711 1.348 1_655 S
C1712 C1713 1.443 . S
C1713 H1677 0.932 . S
C1713 C1708 1.388 . S
C1713 C1712 1.443 . S
H1714 C1741 0.929 . S
N1715 C1740 1.433 . S
N1715 C1746 1.435 . S
N1715 C1752 1.423 . S
H1716 C1742 0.930 . S
H1717 C1745 0.931 . S
H1718 C1744 0.929 . S
H1719 C1747 0.930 . S
H1720 C1748 0.932 . S
H1721 C1751 0.929 . S
H1722 C1750 0.931 . S
H1723 C1753 0.929 . S
H1724 C1757 0.932 . S
H1725 C1754 0.931 . S
H1726 C1756 0.929 . S
H1727 C1759 0.929 . S
H1728 C1760 0.930 . S
H1729 C1762 0.929 . S
H1730 C1763 0.931 . S
H1731 C1765 0.930 . S
H1732 C1766 0.932 . S
H1733 C1768 0.931 . S
H1734 C1769 0.929 . S
H1735 C1771 0.929 . S
H1736 C1772 0.931 . S
H1737 C1774 0.929 . S
N1738 C1758 1.433 . S
N1738 C1764 1.435 . S
N1738 C1770 1.423 . S
H1739 C1775 0.932 . S
C1740 N1715 1.433 . S
C1740 C1741 1.363 . S
C1740 C1745 1.370 . S
C1741 H1714 0.929 . S
C1741 C1740 1.363 . S
C1741 C1742 1.385 . S
C1742 H1716 0.930 . S
C1742 C1741 1.385 . S
C1742 C1743 1.357 . S
C1743 C1742 1.357 . S
C1743 C1744 1.406 . S
C1744 H1718 0.929 . S
C1744 C1743 1.406 . S
C1744 C1745 1.391 . S
C1745 H1717 0.931 . S
C1745 C1740 1.370 . S
C1745 C1744 1.391 . S
C1746 N1715 1.435 . S
C1746 C1747 1.358 . S
C1746 C1751 1.371 . S
C1747 H1719 0.930 . S
C1747 C1746 1.358 . S
C1747 C1748 1.405 . S
C1748 H1720 0.932 . S
C1748 C1747 1.405 . S
C1748 C1749 1.383 . S
C1749 C1748 1.383 . S
C1749 C1750 1.393 . S
C1750 H1722 0.931 . S
C1750 C1749 1.393 . S
C1750 C1751 1.382 . S
C1751 H1721 0.929 . S
C1751 C1746 1.371 . S
C1751 C1750 1.382 . S
C1752 N1715 1.423 . S
C1752 C1753 1.362 . S
C1752 C1757 1.388 . S
C1753 H1723 0.929 . S
C1753 C1752 1.362 . S
C1753 C1754 1.376 . S
C1754 H1725 0.931 . S
C1754 C1753 1.376 . S
C1754 C1755 1.396 . S
C1755 C1754 1.396 . S
C1755 C1756 1.348 . S
C1755 C1773 1.472 1_565 S
C1756 H1726 0.929 . S
C1756 C1755 1.348 . S
C1756 C1757 1.443 . S
C1757 H1724 0.932 . S
C1757 C1752 1.388 . S
C1757 C1756 1.443 . S
C1758 N1738 1.433 . S
C1758 C1759 1.363 . S
C1758 C1763 1.370 . S
C1759 H1727 0.929 . S
C1759 C1758 1.363 . S
C1759 C1760 1.385 . S
C1760 H1728 0.930 . S
C1760 C1759 1.385 . S
C1760 C1761 1.357 . S
C1761 C1760 1.357 . S
C1761 C1762 1.406 . S
C1762 H1729 0.929 . S
C1762 C1761 1.406 . S
C1762 C1763 1.391 . S
C1763 H1730 0.931 . S
C1763 C1758 1.370 . S
C1763 C1762 1.391 . S
C1764 N1738 1.435 . S
C1764 C1765 1.358 . S
C1764 C1769 1.371 . S
C1765 H1731 0.930 . S
C1765 C1764 1.358 . S
C1765 C1766 1.405 . S
C1766 H1732 0.932 . S
C1766 C1765 1.405 . S
C1766 C1767 1.383 . S
C1767 C1766 1.383 . S
C1767 C1768 1.393 . S
C1768 H1733 0.931 . S
C1768 C1767 1.393 . S
C1768 C1769 1.382 . S
C1769 H1734 0.929 . S
C1769 C1764 1.371 . S
C1769 C1768 1.382 . S
C1770 N1738 1.423 . S
C1770 C1771 1.362 . S
C1770 C1775 1.388 . S
C1771 H1735 0.929 . S
C1771 C1770 1.362 . S
C1771 C1772 1.376 . S
C1772 H1736 0.931 . S
C1772 C1771 1.376 . S
C1772 C1773 1.396 . S
C1773 C1755 1.472 1_545 S
C1773 C1772 1.396 . S
C1773 C1774 1.348 . S
C1774 H1737 0.929 . S
C1774 C1773 1.348 . S
C1774 C1775 1.443 . S
C1775 H1739 0.932 . S
C1775 C1770 1.388 . S
C1775 C1774 1.443 . S
H1776 C1803 0.929 . S
N1777 C1802 1.433 . S
N1777 C1808 1.435 . S
N1777 C1814 1.423 . S
H1778 C1804 0.930 . S
H1779 C1807 0.931 . S
H1780 C1806 0.929 . S
H1781 C1809 0.930 . S
H1782 C1810 0.932 . S
H1783 C1813 0.929 . S
H1784 C1812 0.931 . S
H1785 C1815 0.929 . S
H1786 C1819 0.932 . S
H1787 C1816 0.931 . S
H1788 C1818 0.929 . S
H1789 C1821 0.929 . S
H1790 C1822 0.930 . S
H1791 C1824 0.929 . S
H1792 C1825 0.931 . S
H1793 C1827 0.930 . S
H1794 C1828 0.932 . S
H1795 C1830 0.931 . S
H1796 C1831 0.929 . S
H1797 C1833 0.929 . S
H1798 C1834 0.962 . S
H1799 C1836 0.929 1_455 S
N1800 C1820 1.433 . S
N1800 C1826 1.435 . S
N1800 C1832 1.423 . S
H1801 C1837 0.932 . S
C1802 N1777 1.433 . S
C1802 C1803 1.363 . S
C1802 C1807 1.370 . S
C1803 H1776 0.929 . S
C1803 C1802 1.363 . S
C1803 C1804 1.385 . S
C1804 H1778 0.930 . S
C1804 C1803 1.385 . S
C1804 C1805 1.357 . S
C1805 C1804 1.357 . S
C1805 C1806 1.406 . S
C1806 H1780 0.929 . S
C1806 C1805 1.406 . S
C1806 C1807 1.391 . S
C1807 H1779 0.931 . S
C1807 C1802 1.370 . S
C1807 C1806 1.391 . S
C1808 N1777 1.435 . S
C1808 C1809 1.358 . S
C1808 C1813 1.371 . S
C1809 H1781 0.930 . S
C1809 C1808 1.358 . S
C1809 C1810 1.405 . S
C1810 H1782 0.932 . S
C1810 C1809 1.405 . S
C1810 C1811 1.383 . S
C1811 C1810 1.383 . S
C1811 C1812 1.393 . S
C1812 H1784 0.931 . S
C1812 C1811 1.393 . S
C1812 C1813 1.382 . S
C1813 H1783 0.929 . S
C1813 C1808 1.371 . S
C1813 C1812 1.382 . S
C1814 N1777 1.423 . S
C1814 C1815 1.362 . S
C1814 C1819 1.388 . S
C1815 H1785 0.929 . S
C1815 C1814 1.362 . S
C1815 C1816 1.376 . S
C1816 H1787 0.931 . S
C1816 C1815 1.376 . S
C1816 C1817 1.396 . S
C1817 C1816 1.396 . S
C1817 C1818 1.348 . S
C1817 C1835 1.472 . S
C1818 H1788 0.929 . S
C1818 C1817 1.348 . S
C1818 C1819 1.443 . S
C1819 H1786 0.932 . S
C1819 C1814 1.388 . S
C1819 C1818 1.443 . S
C1820 N1800 1.433 . S
C1820 C1821 1.363 . S
C1820 C1825 1.370 . S
C1821 H1789 0.929 . S
C1821 C1820 1.363 . S
C1821 C1822 1.385 . S
C1822 H1790 0.930 . S
C1822 C1821 1.385 . S
C1822 C1823 1.357 . S
C1823 C1822 1.357 . S
C1823 C1824 1.406 . S
C1824 H1791 0.929 . S
C1824 C1823 1.406 . S
C1824 C1825 1.391 . S
C1825 H1792 0.931 . S
C1825 C1820 1.370 . S
C1825 C1824 1.391 . S
C1826 N1800 1.435 . S
C1826 C1827 1.358 . S
C1826 C1831 1.371 . S
C1827 H1793 0.930 . S
C1827 C1826 1.358 . S
C1827 C1828 1.405 . S
C1828 H1794 0.932 . S
C1828 C1827 1.405 . S
C1828 C1829 1.383 . S
C1829 C1828 1.383 . S
C1829 C1830 1.393 . S
C1830 H1795 0.931 . S
C1830 C1829 1.393 . S
C1830 C1831 1.382 . S
C1831 H1796 0.929 . S
C1831 C1826 1.371 . S
C1831 C1830 1.382 . S
C1832 N1800 1.423 . S
C1832 C1833 1.362 . S
C1832 C1837 1.388 . S
C1833 H1797 0.929 . S
C1833 C1832 1.362 . S
C1833 C1834 1.376 . S
C1834 H1798 0.962 . S
C1834 C1833 1.376 . S
C1834 C1835 1.396 1_655 S
C1835 C1817 1.472 . S
C1835 C1834 1.396 1_455 S
C1835 C1836 1.348 1_455 S
C1836 H1799 0.929 1_655 S
C1836 C1835 1.348 1_655 S
C1836 C1837 1.443 . S
C1837 H1801 0.932 . S
C1837 C1832 1.388 . S
C1837 C1836 1.443 . S
H1838 C1865 0.929 . S
N1839 C1864 1.433 . S
N1839 C1870 1.435 . S
N1839 C1876 1.423 . S
H1840 C1866 0.930 . S
H1841 C1869 0.931 . S
H1842 C1868 0.929 . S
H1843 C1871 0.930 . S
H1844 C1872 0.932 . S
H1845 C1875 0.929 . S
H1846 C1874 0.931 . S
H1847 C1877 0.929 . S
H1848 C1881 0.932 . S
H1849 C1878 0.931 . S
H1850 C1880 0.929 . S
H1851 C1883 0.929 . S
H1852 C1884 0.930 . S
H1853 C1886 0.929 . S
H1854 C1887 0.931 . S
H1855 C1889 0.930 . S
H1856 C1890 0.932 . S
H1857 C1892 0.931 . S
H1858 C1893 0.929 . S
H1859 C1895 0.929 . S
H1860 C1896 0.931 . S
H1861 C1898 0.929 . S
N1862 C1882 1.433 . S
N1862 C1888 1.435 . S
N1862 C1894 1.423 . S
H1863 C1899 0.932 . S
C1864 N1839 1.433 . S
C1864 C1865 1.363 . S
C1864 C1869 1.370 . S
C1865 H1838 0.929 . S
C1865 C1864 1.363 . S
C1865 C1866 1.385 . S
C1866 H1840 0.930 . S
C1866 C1865 1.385 . S
C1866 C1867 1.357 . S
C1867 C1866 1.357 . S
C1867 C1868 1.406 . S
C1868 H1842 0.929 . S
C1868 C1867 1.406 . S
C1868 C1869 1.391 . S
C1869 H1841 0.931 . S
C1869 C1864 1.370 . S
C1869 C1868 1.391 . S
C1870 N1839 1.435 . S
C1870 C1871 1.358 . S
C1870 C1875 1.371 . S
C1871 H1843 0.930 . S
C1871 C1870 1.358 . S
C1871 C1872 1.405 . S
C1872 H1844 0.932 . S
C1872 C1871 1.405 . S
C1872 C1873 1.383 . S
C1873 C1872 1.383 . S
C1873 C1874 1.393 . S
C1874 H1846 0.931 . S
C1874 C1873 1.393 . S
C1874 C1875 1.382 . S
C1875 H1845 0.929 . S
C1875 C1870 1.371 . S
C1875 C1874 1.382 . S
C1876 N1839 1.423 . S
C1876 C1877 1.362 . S
C1876 C1881 1.388 . S
C1877 H1847 0.929 . S
C1877 C1876 1.362 . S
C1877 C1878 1.376 . S
C1878 H1849 0.931 . S
C1878 C1877 1.376 . S
C1878 C1879 1.396 . S
C1879 C1878 1.396 . S
C1879 C1880 1.348 . S
C1879 C1897 1.472 1_545 S
C1880 H1850 0.929 . S
C1880 C1879 1.348 . S
C1880 C1881 1.443 . S
C1881 H1848 0.932 . S
C1881 C1876 1.388 . S
C1881 C1880 1.443 . S
C1882 N1862 1.433 . S
C1882 C1883 1.363 . S
C1882 C1887 1.370 . S
C1883 H1851 0.929 . S
C1883 C1882 1.363 . S
C1883 C1884 1.385 . S
C1884 H1852 0.930 . S
C1884 C1883 1.385 . S
C1884 C1885 1.357 . S
C1885 C1884 1.357 . S
C1885 C1886 1.406 . S
C1886 H1853 0.929 . S
C1886 C1885 1.406 . S
C1886 C1887 1.391 . S
C1887 H1854 0.931 . S
C1887 C1882 1.370 . S
C1887 C1886 1.391 . S
C1888 N1862 1.435 . S
C1888 C1889 1.358 . S
C1888 C1893 1.371 . S
C1889 H1855 0.930 . S
C1889 C1888 1.358 . S
C1889 C1890 1.405 . S
C1890 H1856 0.932 . S
C1890 C1889 1.405 . S
C1890 C1891 1.383 . S
C1891 C1890 1.383 . S
C1891 C1892 1.393 . S
C1892 H1857 0.931 . S
C1892 C1891 1.393 . S
C1892 C1893 1.382 . S
C1893 H1858 0.929 . S
C1893 C1888 1.371 . S
C1893 C1892 1.382 . S
C1894 N1862 1.423 . S
C1894 C1895 1.362 . S
C1894 C1899 1.388 . S
C1895 H1859 0.929 . S
C1895 C1894 1.362 . S
C1895 C1896 1.376 . S
C1896 H1860 0.931 . S
C1896 C1895 1.376 . S
C1896 C1897 1.396 . S
C1897 C1879 1.472 1_565 S
C1897 C1896 1.396 . S
C1897 C1898 1.348 . S
C1898 H1861 0.929 . S
C1898 C1897 1.348 . S
C1898 C1899 1.443 . S
C1899 H1863 0.932 . S
C1899 C1894 1.388 . S
C1899 C1898 1.443 . S
H1900 C1927 0.929 . S
N1901 C1926 1.433 . S
N1901 C1932 1.435 . S
N1901 C1938 1.423 . S
H1902 C1928 0.930 . S
H1903 C1931 0.931 . S
H1904 C1930 0.929 . S
H1905 C1933 0.930 . S
H1906 C1934 0.932 . S
H1907 C1937 0.929 . S
H1908 C1936 0.931 . S
H1909 C1939 0.929 . S
H1910 C1943 0.932 . S
H1911 C1940 0.931 . S
H1912 C1942 0.963 . S
H1913 C1945 0.929 . S
H1914 C1946 0.930 . S
H1915 C1948 0.929 . S
H1916 C1949 0.931 . S
H1917 C1951 0.930 . S
H1918 C1952 0.932 . S
H1919 C1954 0.931 . S
H1920 C1955 0.929 . S
H1921 C1957 0.929 . S
H1922 C1958 0.931 . S
H1923 C1960 0.929 . S
N1924 C1944 1.433 . S
N1924 C1950 1.435 . S
N1924 C1956 1.423 . S
H1925 C1961 0.932 . S
C1926 N1901 1.433 . S
C1926 C1927 1.363 . S
C1926 C1931 1.370 . S
C1927 H1900 0.929 . S
C1927 C1926 1.363 . S
C1927 C1928 1.385 . S
C1928 H1902 0.930 . S
C1928 C1927 1.385 . S
C1928 C1929 1.357 . S
C1929 C1928 1.357 . S
C1929 C1930 1.406 . S
C1930 H1904 0.929 . S
C1930 C1929 1.406 . S
C1930 C1931 1.391 . S
C1931 H1903 0.931 . S
C1931 C1926 1.370 . S
C1931 C1930 1.391 . S
C1932 N1901 1.435 . S
C1932 C1933 1.358 . S
C1932 C1937 1.371 . S
C1933 H1905 0.930 . S
C1933 C1932 1.358 . S
C1933 C1934 1.405 . S
C1934 H1906 0.932 . S
C1934 C1933 1.405 . S
C1934 C1935 1.383 . S
C1935 C1934 1.383 . S
C1935 C1936 1.393 . S
C1936 H1908 0.931 . S
C1936 C1935 1.393 . S
C1936 C1937 1.382 . S
C1937 H1907 0.929 . S
C1937 C1932 1.371 . S
C1937 C1936 1.382 . S
C1938 N1901 1.423 . S
C1938 C1939 1.362 . S
C1938 C1943 1.388 . S
C1939 H1909 0.929 . S
C1939 C1938 1.362 . S
C1939 C1940 1.376 . S
C1940 H1911 0.931 . S
C1940 C1939 1.376 . S
C1940 C1941 1.396 1_655 S
C1941 C1940 1.396 1_455 S
C1941 C1942 1.348 1_455 S
C1941 C1959 1.472 . S
C1942 H1912 0.963 . S
C1942 C1941 1.348 1_655 S
C1942 C1943 1.443 . S
C1943 H1910 0.932 . S
C1943 C1938 1.388 . S
C1943 C1942 1.443 . S
C1944 N1924 1.433 . S
C1944 C1945 1.363 . S
C1944 C1949 1.370 . S
C1945 H1913 0.929 . S
C1945 C1944 1.363 . S
C1945 C1946 1.385 . S
C1946 H1914 0.930 . S
C1946 C1945 1.385 . S
C1946 C1947 1.357 . S
C1947 C1946 1.357 . S
C1947 C1948 1.406 . S
C1948 H1915 0.929 . S
C1948 C1947 1.406 . S
C1948 C1949 1.391 . S
C1949 H1916 0.931 . S
C1949 C1944 1.370 . S
C1949 C1948 1.391 . S
C1950 N1924 1.435 . S
C1950 C1951 1.358 . S
C1950 C1955 1.371 . S
C1951 H1917 0.930 . S
C1951 C1950 1.358 . S
C1951 C1952 1.405 . S
C1952 H1918 0.932 . S
C1952 C1951 1.405 . S
C1952 C1953 1.383 . S
C1953 C1952 1.383 . S
C1953 C1954 1.393 . S
C1954 H1919 0.931 . S
C1954 C1953 1.393 . S
C1954 C1955 1.382 . S
C1955 H1920 0.929 . S
C1955 C1950 1.371 . S
C1955 C1954 1.382 . S
C1956 N1924 1.423 . S
C1956 C1957 1.362 . S
C1956 C1961 1.388 . S
C1957 H1921 0.929 . S
C1957 C1956 1.362 . S
C1957 C1958 1.376 . S
C1958 H1922 0.931 . S
C1958 C1957 1.376 . S
C1958 C1959 1.396 . S
C1959 C1941 1.472 . S
C1959 C1958 1.396 . S
C1959 C1960 1.348 . S
C1960 H1923 0.929 . S
C1960 C1959 1.348 . S
C1960 C1961 1.443 . S
C1961 H1925 0.932 . S
C1961 C1956 1.388 . S
C1961 C1960 1.443 . S
H1962 C1989 0.929 . S
N1963 C1988 1.433 . S
N1963 C1994 1.435 . S
N1963 C2000 1.423 . S
H1964 C1990 0.930 . S
H1965 C1993 0.931 . S
H1966 C1992 0.929 . S
H1967 C1995 0.930 . S
H1968 C1996 0.932 . S
H1969 C1999 0.929 . S
H1970 C1998 0.931 . S
H1971 C2001 0.929 . S
H1972 C2005 0.932 . S
H1973 C2002 0.931 . S
H1974 C2004 0.929 . S
H1975 C2007 0.929 . S
H1976 C2008 0.930 . S
H1977 C2010 0.929 . S
H1978 C2011 0.931 . S
H1979 C2013 0.930 . S
H1980 C2014 0.932 . S
H1981 C2016 0.931 . S
H1982 C2017 0.929 . S
H1983 C2019 0.929 . S
H1984 C2020 0.931 . S
H1985 C2022 0.929 . S
N1986 C2006 1.433 . S
N1986 C2012 1.435 . S
N1986 C2018 1.423 . S
H1987 C2023 0.932 . S
C1988 N1963 1.433 . S
C1988 C1989 1.363 . S
C1988 C1993 1.370 . S
C1989 H1962 0.929 . S
C1989 C1988 1.363 . S
C1989 C1990 1.385 . S
C1990 H1964 0.930 . S
C1990 C1989 1.385 . S
C1990 C1991 1.357 . S
C1991 C1990 1.357 . S
C1991 C1992 1.406 . S
C1992 H1966 0.929 . S
C1992 C1991 1.406 . S
C1992 C1993 1.391 . S
C1993 H1965 0.931 . S
C1993 C1988 1.370 . S
C1993 C1992 1.391 . S
C1994 N1963 1.435 . S
C1994 C1995 1.358 . S
C1994 C1999 1.371 . S
C1995 H1967 0.930 . S
C1995 C1994 1.358 . S
C1995 C1996 1.405 . S
C1996 H1968 0.932 . S
C1996 C1995 1.405 . S
C1996 C1997 1.383 . S
C1997 C1996 1.383 . S
C1997 C1998 1.393 . S
C1998 H1970 0.931 . S
C1998 C1997 1.393 . S
C1998 C1999 1.382 . S
C1999 H1969 0.929 . S
C1999 C1994 1.371 . S
C1999 C1998 1.382 . S
C2000 N1963 1.423 . S
C2000 C2001 1.362 . S
C2000 C2005 1.388 . S
C2001 H1971 0.929 . S
C2001 C2000 1.362 . S
C2001 C2002 1.376 . S
C2002 H1973 0.931 . S
C2002 C2001 1.376 . S
C2002 C2003 1.439 . S
C2003 C2002 1.439 . S
C2003 C2004 1.388 . S
C2003 C2021 1.397 1_565 S
C2004 H1974 0.929 . S
C2004 C2003 1.388 . S
C2004 C2005 1.443 . S
C2005 H1972 0.932 . S
C2005 C2000 1.388 . S
C2005 C2004 1.443 . S
C2006 N1986 1.433 . S
C2006 C2007 1.363 . S
C2006 C2011 1.370 . S
C2007 H1975 0.929 . S
C2007 C2006 1.363 . S
C2007 C2008 1.385 . S
C2008 H1976 0.930 . S
C2008 C2007 1.385 . S
C2008 C2009 1.357 . S
C2009 C2008 1.357 . S
C2009 C2010 1.406 . S
C2010 H1977 0.929 . S
C2010 C2009 1.406 . S
C2010 C2011 1.391 . S
C2011 H1978 0.931 . S
C2011 C2006 1.370 . S
C2011 C2010 1.391 . S
C2012 N1986 1.435 . S
C2012 C2013 1.358 . S
C2012 C2017 1.371 . S
C2013 H1979 0.930 . S
C2013 C2012 1.358 . S
C2013 C2014 1.405 . S
C2014 H1980 0.932 . S
C2014 C2013 1.405 . S
C2014 C2015 1.383 . S
C2015 C2014 1.383 . S
C2015 C2016 1.393 . S
C2016 H1981 0.931 . S
C2016 C2015 1.393 . S
C2016 C2017 1.382 . S
C2017 H1982 0.929 . S
C2017 C2012 1.371 . S
C2017 C2016 1.382 . S
C2018 N1986 1.423 . S
C2018 C2019 1.362 . S
C2018 C2023 1.388 . S
C2019 H1983 0.929 . S
C2019 C2018 1.362 . S
C2019 C2020 1.376 . S
C2020 H1984 0.931 . S
C2020 C2019 1.376 . S
C2020 C2021 1.396 . S
C2021 C2003 1.397 1_545 S
C2021 C2020 1.396 . S
C2021 C2022 1.348 . S
C2022 H1985 0.929 . S
C2022 C2021 1.348 . S
C2022 C2023 1.443 . S
C2023 H1987 0.932 . S
C2023 C2018 1.388 . S
C2023 C2022 1.443 . S
H2024 C2051 0.929 . S
N2025 C2050 1.433 . S
N2025 C2056 1.435 . S
N2025 C2062 1.423 . S
H2026 C2052 0.930 . S
H2027 C2055 0.931 . S
H2028 C2054 0.929 . S
H2029 C2057 0.930 . S
H2030 C2058 0.932 . S
H2031 C2061 0.929 . S
H2032 C2060 0.931 . S
H2033 C2063 0.929 . S
H2034 C2067 0.932 . S
H2035 C2064 0.931 . S
H2036 C2066 0.929 . S
H2037 C2069 0.929 . S
H2038 C2070 0.930 . S
H2039 C2072 0.929 . S
H2040 C2073 0.931 . S
H2041 C2075 0.930 . S
H2042 C2076 0.932 . S
H2043 C2078 0.931 . S
H2044 C2079 0.929 . S
H2045 C2081 0.929 . S
H2046 C2082 0.931 . S
H2047 C2084 0.929 . S
N2048 C2068 1.433 . S
N2048 C2074 1.435 . S
N2048 C2080 1.423 . S
H2049 C2085 0.932 . S
C2050 N2025 1.433 . S
C2050 C2051 1.363 . S
C2050 C2055 1.370 . S
C2051 H2024 0.929 . S
C2051 C2050 1.363 . S
C2051 C2052 1.385 . S
C2052 H2026 0.930 . S
C2052 C2051 1.385 . S
C2052 C2053 1.357 . S
C2053 C2052 1.357 . S
C2053 C2054 1.406 . S
C2054 H2028 0.929 . S
C2054 C2053 1.406 . S
C2054 C2055 1.391 . S
C2055 H2027 0.931 . S
C2055 C2050 1.370 . S
C2055 C2054 1.391 . S
C2056 N2025 1.435 . S
C2056 C2057 1.358 . S
C2056 C2061 1.371 . S
C2057 H2029 0.930 . S
C2057 C2056 1.358 . S
C2057 C2058 1.405 . S
C2058 H2030 0.932 . S
C2058 C2057 1.405 . S
C2058 C2059 1.383 . S
C2059 C2058 1.383 . S
C2059 C2060 1.393 . S
C2060 H2032 0.931 . S
C2060 C2059 1.393 . S
C2060 C2061 1.382 . S
C2061 H2031 0.929 . S
C2061 C2056 1.371 . S
C2061 C2060 1.382 . S
C2062 N2025 1.423 . S
C2062 C2063 1.362 . S
C2062 C2067 1.388 . S
C2063 H2033 0.929 . S
C2063 C2062 1.362 . S
C2063 C2064 1.376 . S
C2064 H2035 0.931 . S
C2064 C2063 1.376 . S
C2064 C2065 1.396 . S
C2065 C2064 1.396 . S
C2065 C2066 1.348 . S
C2065 C2083 1.472 . S
C2066 H2036 0.929 . S
C2066 C2065 1.348 . S
C2066 C2067 1.443 . S
C2067 H2034 0.932 . S
C2067 C2062 1.388 . S
C2067 C2066 1.443 . S
C2068 N2048 1.433 . S
C2068 C2069 1.363 . S
C2068 C2073 1.370 . S
C2069 H2037 0.929 . S
C2069 C2068 1.363 . S
C2069 C2070 1.385 . S
C2070 H2038 0.930 . S
C2070 C2069 1.385 . S
C2070 C2071 1.357 . S
C2071 C2070 1.357 . S
C2071 C2072 1.406 . S
C2072 H2039 0.929 . S
C2072 C2071 1.406 . S
C2072 C2073 1.391 . S
C2073 H2040 0.931 . S
C2073 C2068 1.370 . S
C2073 C2072 1.391 . S
C2074 N2048 1.435 . S
C2074 C2075 1.358 . S
C2074 C2079 1.371 . S
C2075 H2041 0.930 . S
C2075 C2074 1.358 . S
C2075 C2076 1.405 . S
C2076 H2042 0.932 . S
C2076 C2075 1.405 . S
C2076 C2077 1.383 . S
C2077 C2076 1.383 . S
C2077 C2078 1.393 . S
C2078 H2043 0.931 . S
C2078 C2077 1.393 . S
C2078 C2079 1.382 . S
C2079 H2044 0.929 . S
C2079 C2074 1.371 . S
C2079 C2078 1.382 . S
C2080 N2048 1.423 . S
C2080 C2081 1.362 . S
C2080 C2085 1.388 . S
C2081 H2045 0.929 . S
C2081 C2080 1.362 . S
C2081 C2082 1.376 . S
C2082 H2046 0.931 . S
C2082 C2081 1.376 . S
C2082 C2083 1.396 . S
C2083 C2065 1.472 . S
C2083 C2082 1.396 . S
C2083 C2084 1.348 . S
C2084 H2047 0.929 . S
C2084 C2083 1.348 . S
C2084 C2085 1.443 . S
C2085 H2049 0.932 . S
C2085 C2080 1.388 . S
C2085 C2084 1.443 . S
H2086 C2113 0.929 . S
N2087 C2112 1.433 . S
N2087 C2118 1.435 . S
N2087 C2124 1.423 . S
H2088 C2114 0.930 . S
H2089 C2117 0.931 . S
H2090 C2116 0.929 . S
H2091 C2119 0.930 . S
H2092 C2120 0.932 . S
H2093 C2123 0.929 . S
H2094 C2122 0.931 . S
H2095 C2125 0.929 . S
H2096 C2129 0.932 . S
H2097 C2126 0.931 . S
H2098 C2128 0.929 . S
H2099 C2131 0.929 . S
H2100 C2132 0.930 . S
H2101 C2134 0.929 . S
H2102 C2135 0.931 . S
H2103 C2137 0.930 . S
H2104 C2138 0.932 . S
H2105 C2140 0.931 . S
H2106 C2141 0.929 . S
H2107 C2143 0.929 . S
H2108 C2144 0.931 . S
H2109 C2146 0.929 . S
N2110 C2130 1.433 . S
N2110 C2136 1.435 . S
N2110 C2142 1.423 . S
H2111 C2147 0.932 . S
C2112 N2087 1.433 . S
C2112 C2113 1.363 . S
C2112 C2117 1.370 . S
C2113 H2086 0.929 . S
C2113 C2112 1.363 . S
C2113 C2114 1.385 . S
C2114 H2088 0.930 . S
C2114 C2113 1.385 . S
C2114 C2115 1.357 . S
C2115 C2114 1.357 . S
C2115 C2116 1.406 . S
C2116 H2090 0.929 . S
C2116 C2115 1.406 . S
C2116 C2117 1.391 . S
C2117 H2089 0.931 . S
C2117 C2112 1.370 . S
C2117 C2116 1.391 . S
C2118 N2087 1.435 . S
C2118 C2119 1.358 . S
C2118 C2123 1.371 . S
C2119 H2091 0.930 . S
C2119 C2118 1.358 . S
C2119 C2120 1.405 . S
C2120 H2092 0.932 . S
C2120 C2119 1.405 . S
C2120 C2121 1.383 . S
C2121 C2120 1.383 . S
C2121 C2122 1.393 . S
C2122 H2094 0.931 . S
C2122 C2121 1.393 . S
C2122 C2123 1.382 . S
C2123 H2093 0.929 . S
C2123 C2118 1.371 . S
C2123 C2122 1.382 . S
C2124 N2087 1.423 . S
C2124 C2125 1.362 . S
C2124 C2129 1.388 . S
C2125 H2095 0.929 . S
C2125 C2124 1.362 . S
C2125 C2126 1.376 . S
C2126 H2097 0.931 . S
C2126 C2125 1.376 . S
C2126 C2127 1.396 . S
C2127 C2126 1.396 . S
C2127 C2128 1.348 . S
C2127 C2145 1.472 . S
C2128 H2098 0.929 . S
C2128 C2127 1.348 . S
C2128 C2129 1.443 . S
C2129 H2096 0.932 . S
C2129 C2124 1.388 . S
C2129 C2128 1.443 . S
C2130 N2110 1.433 . S
C2130 C2131 1.363 . S
C2130 C2135 1.370 . S
C2131 H2099 0.929 . S
C2131 C2130 1.363 . S
C2131 C2132 1.385 . S
C2132 H2100 0.930 . S
C2132 C2131 1.385 . S
C2132 C2133 1.357 . S
C2133 C2132 1.357 . S
C2133 C2134 1.406 . S
C2134 H2101 0.929 . S
C2134 C2133 1.406 . S
C2134 C2135 1.391 . S
C2135 H2102 0.931 . S
C2135 C2130 1.370 . S
C2135 C2134 1.391 . S
C2136 N2110 1.435 . S
C2136 C2137 1.358 . S
C2136 C2141 1.371 . S
C2137 H2103 0.930 . S
C2137 C2136 1.358 . S
C2137 C2138 1.405 . S
C2138 H2104 0.932 . S
C2138 C2137 1.405 . S
C2138 C2139 1.383 . S
C2139 C2138 1.383 . S
C2139 C2140 1.393 . S
C2140 H2105 0.931 . S
C2140 C2139 1.393 . S
C2140 C2141 1.382 . S
C2141 H2106 0.929 . S
C2141 C2136 1.371 . S
C2141 C2140 1.382 . S
C2142 N2110 1.423 . S
C2142 C2143 1.362 . S
C2142 C2147 1.388 . S
C2143 H2107 0.929 . S
C2143 C2142 1.362 . S
C2143 C2144 1.376 . S
C2144 H2108 0.931 . S
C2144 C2143 1.376 . S
C2144 C2145 1.396 . S
C2145 C2127 1.472 . S
C2145 C2144 1.396 . S
C2145 C2146 1.348 . S
C2146 H2109 0.929 . S
C2146 C2145 1.348 . S
C2146 C2147 1.443 . S
C2147 H2111 0.932 . S
C2147 C2142 1.388 . S
C2147 C2146 1.443 . S
H2148 C2175 0.929 . S
N2149 C2174 1.433 . S
N2149 C2180 1.435 . S
N2149 C2186 1.423 . S
H2150 C2176 0.930 . S
H2151 C2179 0.931 . S
H2152 C2178 0.929 . S
H2153 C2181 0.930 . S
H2154 C2182 0.932 . S
H2155 C2185 0.929 . S
H2156 C2184 0.931 . S
H2157 C2187 0.929 . S
H2158 C2191 0.932 . S
H2159 C2188 0.931 . S
H2160 C2190 0.929 . S
H2161 C2193 0.929 . S
H2162 C2194 0.930 . S
H2163 C2196 0.929 . S
H2164 C2197 0.931 . S
H2165 C2199 0.930 . S
H2166 C2200 0.932 . S
H2167 C2202 0.931 . S
H2168 C2203 0.929 . S
H2169 C2205 0.929 . S
H2170 C2206 0.931 . S
H2171 C2208 0.929 . S
N2172 C2192 1.433 . S
N2172 C2198 1.435 . S
N2172 C2204 1.423 . S
H2173 C2209 0.932 . S
C2174 N2149 1.433 . S
C2174 C2175 1.363 . S
C2174 C2179 1.370 . S
C2175 H2148 0.929 . S
C2175 C2174 1.363 . S
C2175 C2176 1.385 . S
C2176 H2150 0.930 . S
C2176 C2175 1.385 . S
C2176 C2177 1.357 . S
C2177 C2176 1.357 . S
C2177 C2178 1.406 . S
C2178 H2152 0.929 . S
C2178 C2177 1.406 . S
C2178 C2179 1.391 . S
C2179 H2151 0.931 . S
C2179 C2174 1.370 . S
C2179 C2178 1.391 . S
C2180 N2149 1.435 . S
C2180 C2181 1.358 . S
C2180 C2185 1.371 . S
C2181 H2153 0.930 . S
C2181 C2180 1.358 . S
C2181 C2182 1.405 . S
C2182 H2154 0.932 . S
C2182 C2181 1.405 . S
C2182 C2183 1.383 . S
C2183 C2182 1.383 . S
C2183 C2184 1.393 . S
C2184 H2156 0.931 . S
C2184 C2183 1.393 . S
C2184 C2185 1.382 . S
C2185 H2155 0.929 . S
C2185 C2180 1.371 . S
C2185 C2184 1.382 . S
C2186 N2149 1.423 . S
C2186 C2187 1.362 . S
C2186 C2191 1.388 . S
C2187 H2157 0.929 . S
C2187 C2186 1.362 . S
C2187 C2188 1.376 . S
C2188 H2159 0.931 . S
C2188 C2187 1.376 . S
C2188 C2189 1.396 . S
C2189 C2188 1.396 . S
C2189 C2190 1.348 . S
C2189 C2207 1.472 . S
C2190 H2160 0.929 . S
C2190 C2189 1.348 . S
C2190 C2191 1.443 . S
C2191 H2158 0.932 . S
C2191 C2186 1.388 . S
C2191 C2190 1.443 . S
C2192 N2172 1.433 . S
C2192 C2193 1.363 . S
C2192 C2197 1.370 . S
C2193 H2161 0.929 . S
C2193 C2192 1.363 . S
C2193 C2194 1.385 . S
C2194 H2162 0.930 . S
C2194 C2193 1.385 . S
C2194 C2195 1.357 . S
C2195 C2194 1.357 . S
C2195 C2196 1.406 . S
C2196 H2163 0.929 . S
C2196 C2195 1.406 . S
C2196 C2197 1.391 . S
C2197 H2164 0.931 . S
C2197 C2192 1.370 . S
C2197 C2196 1.391 . S
C2198 N2172 1.435 . S
C2198 C2199 1.358 . S
C2198 C2203 1.371 . S
C2199 H2165 0.930 . S
C2199 C2198 1.358 . S
C2199 C2200 1.405 . S
C2200 H2166 0.932 . S
C2200 C2199 1.405 . S
C2200 C2201 1.383 . S
C2201 C2200 1.383 . S
C2201 C2202 1.393 . S
C2202 H2167 0.931 . S
C2202 C2201 1.393 . S
C2202 C2203 1.382 . S
C2203 H2168 0.929 . S
C2203 C2198 1.371 . S
C2203 C2202 1.382 . S
C2204 N2172 1.423 . S
C2204 C2205 1.362 . S
C2204 C2209 1.388 . S
C2205 H2169 0.929 . S
C2205 C2204 1.362 . S
C2205 C2206 1.376 . S
C2206 H2170 0.931 . S
C2206 C2205 1.376 . S
C2206 C2207 1.396 . S
C2207 C2189 1.472 . S
C2207 C2206 1.396 . S
C2207 C2208 1.348 . S
C2208 H2171 0.929 . S
C2208 C2207 1.348 . S
C2208 C2209 1.443 . S
C2209 H2173 0.932 . S
C2209 C2204 1.388 . S
C2209 C2208 1.443 . S
H2210 C2237 0.929 . S
N2211 C2236 1.433 . S
N2211 C2242 1.435 . S
N2211 C2248 1.423 . S
H2212 C2238 0.930 . S
H2213 C2241 0.931 . S
H2214 C2240 0.929 . S
H2215 C2243 0.930 . S
H2216 C2244 0.932 . S
H2217 C2247 0.929 . S
H2218 C2246 0.931 . S
H2219 C2249 0.929 . S
H2220 C2253 0.932 . S
H2221 C2250 0.931 . S
H2222 C2252 0.929 . S
H2223 C2255 0.929 . S
H2224 C2256 0.930 . S
H2225 C2258 0.929 . S
H2226 C2259 0.931 . S
H2227 C2261 0.930 . S
H2228 C2262 0.932 . S
H2229 C2264 0.931 . S
H2230 C2265 0.929 . S
H2231 C2267 0.929 . S
H2232 C2268 0.931 . S
H2233 C2270 0.929 . S
N2234 C2254 1.433 . S
N2234 C2260 1.435 . S
N2234 C2266 1.423 . S
H2235 C2271 0.932 . S
C2236 N2211 1.433 . S
C2236 C2237 1.363 . S
C2236 C2241 1.370 . S
C2237 H2210 0.929 . S
C2237 C2236 1.363 . S
C2237 C2238 1.385 . S
C2238 H2212 0.930 . S
C2238 C2237 1.385 . S
C2238 C2239 1.357 . S
C2239 C2238 1.357 . S
C2239 C2240 1.406 . S
C2240 H2214 0.929 . S
C2240 C2239 1.406 . S
C2240 C2241 1.391 . S
C2241 H2213 0.931 . S
C2241 C2236 1.370 . S
C2241 C2240 1.391 . S
C2242 N2211 1.435 . S
C2242 C2243 1.358 . S
C2242 C2247 1.371 . S
C2243 H2215 0.930 . S
C2243 C2242 1.358 . S
C2243 C2244 1.405 . S
C2244 H2216 0.932 . S
C2244 C2243 1.405 . S
C2244 C2245 1.383 . S
C2245 C2244 1.383 . S
C2245 C2246 1.393 . S
C2246 H2218 0.931 . S
C2246 C2245 1.393 . S
C2246 C2247 1.382 . S
C2247 H2217 0.929 . S
C2247 C2242 1.371 . S
C2247 C2246 1.382 . S
C2248 N2211 1.423 . S
C2248 C2249 1.362 . S
C2248 C2253 1.388 . S
C2249 H2219 0.929 . S
C2249 C2248 1.362 . S
C2249 C2250 1.376 . S
C2250 H2221 0.931 . S
C2250 C2249 1.376 . S
C2250 C2251 1.396 . S
C2251 C2250 1.396 . S
C2251 C2252 1.348 . S
C2251 C2269 1.472 . S
C2252 H2222 0.929 . S
C2252 C2251 1.348 . S
C2252 C2253 1.443 . S
C2253 H2220 0.932 . S
C2253 C2248 1.388 . S
C2253 C2252 1.443 . S
C2254 N2234 1.433 . S
C2254 C2255 1.363 . S
C2254 C2259 1.370 . S
C2255 H2223 0.929 . S
C2255 C2254 1.363 . S
C2255 C2256 1.385 . S
C2256 H2224 0.930 . S
C2256 C2255 1.385 . S
C2256 C2257 1.357 . S
C2257 C2256 1.357 . S
C2257 C2258 1.406 . S
C2258 H2225 0.929 . S
C2258 C2257 1.406 . S
C2258 C2259 1.391 . S
C2259 H2226 0.931 . S
C2259 C2254 1.370 . S
C2259 C2258 1.391 . S
C2260 N2234 1.435 . S
C2260 C2261 1.358 . S
C2260 C2265 1.371 . S
C2261 H2227 0.930 . S
C2261 C2260 1.358 . S
C2261 C2262 1.405 . S
C2262 H2228 0.932 . S
C2262 C2261 1.405 . S
C2262 C2263 1.383 . S
C2263 C2262 1.383 . S
C2263 C2264 1.393 . S
C2264 H2229 0.931 . S
C2264 C2263 1.393 . S
C2264 C2265 1.382 . S
C2265 H2230 0.929 . S
C2265 C2260 1.371 . S
C2265 C2264 1.382 . S
C2266 N2234 1.423 . S
C2266 C2267 1.362 . S
C2266 C2271 1.388 . S
C2267 H2231 0.929 . S
C2267 C2266 1.362 . S
C2267 C2268 1.376 . S
C2268 H2232 0.931 . S
C2268 C2267 1.376 . S
C2268 C2269 1.396 . S
C2269 C2251 1.472 . S
C2269 C2268 1.396 . S
C2269 C2270 1.348 . S
C2270 H2233 0.929 . S
C2270 C2269 1.348 . S
C2270 C2271 1.443 . S
C2271 H2235 0.932 . S
C2271 C2266 1.388 . S
C2271 C2270 1.443 . S
H2272 C2299 0.929 . S
N2273 C2298 1.433 . S
N2273 C2304 1.435 . S
N2273 C2310 1.423 . S
H2274 C2300 0.930 . S
H2275 C2303 0.931 . S
H2276 C2302 0.929 . S
H2277 C2305 0.930 . S
H2278 C2306 0.932 . S
H2279 C2309 0.929 . S
H2280 C2308 0.931 . S
H2281 C2311 0.929 . S
H2282 C2315 0.932 . S
H2283 C2312 0.931 . S
H2284 C2314 0.929 . S
H2285 C2317 0.929 . S
H2286 C2318 0.930 . S
H2287 C2320 0.929 . S
H2288 C2321 0.931 . S
H2289 C2323 0.930 . S
H2290 C2324 0.932 . S
H2291 C2326 0.931 . S
H2292 C2327 0.929 . S
H2293 C2329 0.929 . S
H2294 C2330 0.931 . S
H2295 C2332 0.929 . S
N2296 C2316 1.433 . S
N2296 C2322 1.435 . S
N2296 C2328 1.423 . S
H2297 C2333 0.932 . S
C2298 N2273 1.433 . S
C2298 C2299 1.363 . S
C2298 C2303 1.370 . S
C2299 H2272 0.929 . S
C2299 C2298 1.363 . S
C2299 C2300 1.385 . S
C2300 H2274 0.930 . S
C2300 C2299 1.385 . S
C2300 C2301 1.357 . S
C2301 C2300 1.357 . S
C2301 C2302 1.406 . S
C2302 H2276 0.929 . S
C2302 C2301 1.406 . S
C2302 C2303 1.391 . S
C2303 H2275 0.931 . S
C2303 C2298 1.370 . S
C2303 C2302 1.391 . S
C2304 N2273 1.435 . S
C2304 C2305 1.358 . S
C2304 C2309 1.371 . S
C2305 H2277 0.930 . S
C2305 C2304 1.358 . S
C2305 C2306 1.405 . S
C2306 H2278 0.932 . S
C2306 C2305 1.405 . S
C2306 C2307 1.383 . S
C2307 C2306 1.383 . S
C2307 C2308 1.393 . S
C2308 H2280 0.931 . S
C2308 C2307 1.393 . S
C2308 C2309 1.382 . S
C2309 H2279 0.929 . S
C2309 C2304 1.371 . S
C2309 C2308 1.382 . S
C2310 N2273 1.423 . S
C2310 C2311 1.362 . S
C2310 C2315 1.388 . S
C2311 H2281 0.929 . S
C2311 C2310 1.362 . S
C2311 C2312 1.376 . S
C2312 H2283 0.931 . S
C2312 C2311 1.376 . S
C2312 C2313 1.396 . S
C2313 C2312 1.396 . S
C2313 C2314 1.348 . S
C2313 C2331 1.472 . S
C2314 H2284 0.929 . S
C2314 C2313 1.348 . S
C2314 C2315 1.443 . S
C2315 H2282 0.932 . S
C2315 C2310 1.388 . S
C2315 C2314 1.443 . S
C2316 N2296 1.433 . S
C2316 C2317 1.363 . S
C2316 C2321 1.370 . S
C2317 H2285 0.929 . S
C2317 C2316 1.363 . S
C2317 C2318 1.385 . S
C2318 H2286 0.930 . S
C2318 C2317 1.385 . S
C2318 C2319 1.357 . S
C2319 C2318 1.357 . S
C2319 C2320 1.406 . S
C2320 H2287 0.929 . S
C2320 C2319 1.406 . S
C2320 C2321 1.391 . S
C2321 H2288 0.931 . S
C2321 C2316 1.370 . S
C2321 C2320 1.391 . S
C2322 N2296 1.435 . S
C2322 C2323 1.358 . S
C2322 C2327 1.371 . S
C2323 H2289 0.930 . S
C2323 C2322 1.358 . S
C2323 C2324 1.405 . S
C2324 H2290 0.932 . S
C2324 C2323 1.405 . S
C2324 C2325 1.383 . S
C2325 C2324 1.383 . S
C2325 C2326 1.393 . S
C2326 H2291 0.931 . S
C2326 C2325 1.393 . S
C2326 C2327 1.382 . S
C2327 H2292 0.929 . S
C2327 C2322 1.371 . S
C2327 C2326 1.382 . S
C2328 N2296 1.423 . S
C2328 C2329 1.362 . S
C2328 C2333 1.388 . S
C2329 H2293 0.929 . S
C2329 C2328 1.362 . S
C2329 C2330 1.376 . S
C2330 H2294 0.931 . S
C2330 C2329 1.376 . S
C2330 C2331 1.396 . S
C2331 C2313 1.472 . S
C2331 C2330 1.396 . S
C2331 C2332 1.348 . S
C2332 H2295 0.929 . S
C2332 C2331 1.348 . S
C2332 C2333 1.443 . S
C2333 H2297 0.932 . S
C2333 C2328 1.388 . S
C2333 C2332 1.443 . S
H2334 C2361 0.929 . S
N2335 C2360 1.433 . S
N2335 C2366 1.435 . S
N2335 C2372 1.423 . S
H2336 C2362 0.930 . S
H2337 C2365 0.931 . S
H2338 C2364 0.929 . S
H2339 C2367 0.930 . S
H2340 C2368 0.932 . S
H2341 C2371 0.929 . S
H2342 C2370 0.931 . S
H2343 C2373 0.929 . S
H2344 C2377 0.932 . S
H2345 C2374 0.931 . S
H2346 C2376 0.929 . S
H2347 C2379 0.929 . S
H2348 C2380 0.930 . S
H2349 C2382 0.929 . S
H2350 C2383 0.931 . S
H2351 C2385 0.930 . S
H2352 C2386 0.932 . S
H2353 C2388 0.931 . S
H2354 C2389 0.929 . S
H2355 C2391 0.929 . S
H2356 C2392 0.931 . S
H2357 C2394 0.929 . S
N2358 C2378 1.433 . S
N2358 C2384 1.435 . S
N2358 C2390 1.423 . S
H2359 C2395 0.932 . S
C2360 N2335 1.433 . S
C2360 C2361 1.363 . S
C2360 C2365 1.370 . S
C2361 H2334 0.929 . S
C2361 C2360 1.363 . S
C2361 C2362 1.385 . S
C2362 H2336 0.930 . S
C2362 C2361 1.385 . S
C2362 C2363 1.357 . S
C2363 C2362 1.357 . S
C2363 C2364 1.406 . S
C2364 H2338 0.929 . S
C2364 C2363 1.406 . S
C2364 C2365 1.391 . S
C2365 H2337 0.931 . S
C2365 C2360 1.370 . S
C2365 C2364 1.391 . S
C2366 N2335 1.435 . S
C2366 C2367 1.358 . S
C2366 C2371 1.371 . S
C2367 H2339 0.930 . S
C2367 C2366 1.358 . S
C2367 C2368 1.405 . S
C2368 H2340 0.932 . S
C2368 C2367 1.405 . S
C2368 C2369 1.383 . S
C2369 C2368 1.383 . S
C2369 C2370 1.393 . S
C2370 H2342 0.931 . S
C2370 C2369 1.393 . S
C2370 C2371 1.382 . S
C2371 H2341 0.929 . S
C2371 C2366 1.371 . S
C2371 C2370 1.382 . S
C2372 N2335 1.423 . S
C2372 C2373 1.362 . S
C2372 C2377 1.388 . S
C2373 H2343 0.929 . S
C2373 C2372 1.362 . S
C2373 C2374 1.376 . S
C2374 H2345 0.931 . S
C2374 C2373 1.376 . S
C2374 C2375 1.396 . S
C2375 C2374 1.396 . S
C2375 C2376 1.348 . S
C2375 C2393 1.472 . S
C2376 H2346 0.929 . S
C2376 C2375 1.348 . S
C2376 C2377 1.443 . S
C2377 H2344 0.932 . S
C2377 C2372 1.388 . S
C2377 C2376 1.443 . S
C2378 N2358 1.433 . S
C2378 C2379 1.363 . S
C2378 C2383 1.370 . S
C2379 H2347 0.929 . S
C2379 C2378 1.363 . S
C2379 C2380 1.385 . S
C2380 H2348 0.930 . S
C2380 C2379 1.385 . S
C2380 C2381 1.357 . S
C2381 C2380 1.357 . S
C2381 C2382 1.406 . S
C2382 H2349 0.929 . S
C2382 C2381 1.406 . S
C2382 C2383 1.391 . S
C2383 H2350 0.931 . S
C2383 C2378 1.370 . S
C2383 C2382 1.391 . S
C2384 N2358 1.435 . S
C2384 C2385 1.358 . S
C2384 C2389 1.371 . S
C2385 H2351 0.930 . S
C2385 C2384 1.358 . S
C2385 C2386 1.405 . S
C2386 H2352 0.932 . S
C2386 C2385 1.405 . S
C2386 C2387 1.383 . S
C2387 C2386 1.383 . S
C2387 C2388 1.393 . S
C2388 H2353 0.931 . S
C2388 C2387 1.393 . S
C2388 C2389 1.382 . S
C2389 H2354 0.929 . S
C2389 C2384 1.371 . S
C2389 C2388 1.382 . S
C2390 N2358 1.423 . S
C2390 C2391 1.362 . S
C2390 C2395 1.388 . S
C2391 H2355 0.929 . S
C2391 C2390 1.362 . S
C2391 C2392 1.376 . S
C2392 H2356 0.931 . S
C2392 C2391 1.376 . S
C2392 C2393 1.396 . S
C2393 C2375 1.472 . S
C2393 C2392 1.396 . S
C2393 C2394 1.348 . S
C2394 H2357 0.929 . S
C2394 C2393 1.348 . S
C2394 C2395 1.443 . S
C2395 H2359 0.932 . S
C2395 C2390 1.388 . S
C2395 C2394 1.443 . S
H2396 C2423 0.929 . S
N2397 C2422 1.433 . S
N2397 C2428 1.435 . S
N2397 C2434 1.423 . S
H2398 C2424 0.930 . S
H2399 C2427 0.931 . S
H2400 C2426 0.929 . S
H2401 C2429 0.930 . S
H2402 C2430 0.932 . S
H2403 C2433 0.929 . S
H2404 C2432 0.931 . S
H2405 C2435 0.929 . S
H2406 C2439 0.932 . S
H2407 C2436 0.931 . S
H2408 C2438 0.929 . S
H2409 C2441 0.929 . S
H2410 C2442 0.930 . S
H2411 C2444 0.929 . S
H2412 C2445 0.931 . S
H2413 C2447 0.930 . S
H2414 C2448 0.932 . S
H2415 C2450 0.931 . S
H2416 C2451 0.929 . S
H2417 C2453 0.929 . S
H2418 C2454 0.931 . S
H2419 C2456 0.929 . S
N2420 C2440 1.433 . S
N2420 C2446 1.435 . S
N2420 C2452 1.423 . S
H2421 C2457 0.932 . S
C2422 N2397 1.433 . S
C2422 C2423 1.363 . S
C2422 C2427 1.370 . S
C2423 H2396 0.929 . S
C2423 C2422 1.363 . S
C2423 C2424 1.385 . S
C2424 H2398 0.930 . S
C2424 C2423 1.385 . S
C2424 C2425 1.357 . S
C2425 C2424 1.357 . S
C2425 C2426 1.406 . S
C2426 H2400 0.929 . S
C2426 C2425 1.406 . S
C2426 C2427 1.391 . S
C2427 H2399 0.931 . S
C2427 C2422 1.370 . S
C2427 C2426 1.391 . S
C2428 N2397 1.435 . S
C2428 C2429 1.358 . S
C2428 C2433 1.371 . S
C2429 H2401 0.930 . S
C2429 C2428 1.358 . S
C2429 C2430 1.405 . S
C2430 H2402 0.932 . S
C2430 C2429 1.405 . S
C2430 C2431 1.383 . S
C2431 C2430 1.383 . S
C2431 C2432 1.393 . S
C2432 H2404 0.931 . S
C2432 C2431 1.393 . S
C2432 C2433 1.382 . S
C2433 H2403 0.929 . S
C2433 C2428 1.371 . S
C2433 C2432 1.382 . S
C2434 N2397 1.423 . S
C2434 C2435 1.362 . S
C2434 C2439 1.388 . S
C2435 H2405 0.929 . S
C2435 C2434 1.362 . S
C2435 C2436 1.376 . S
C2436 H2407 0.931 . S
C2436 C2435 1.376 . S
C2436 C2437 1.396 . S
C2437 C2436 1.396 . S
C2437 C2438 1.348 . S
C2437 C2455 1.472 . S
C2438 H2408 0.929 . S
C2438 C2437 1.348 . S
C2438 C2439 1.443 . S
C2439 H2406 0.932 . S
C2439 C2434 1.388 . S
C2439 C2438 1.443 . S
C2440 N2420 1.433 . S
C2440 C2441 1.363 . S
C2440 C2445 1.370 . S
C2441 H2409 0.929 . S
C2441 C2440 1.363 . S
C2441 C2442 1.385 . S
C2442 H2410 0.930 . S
C2442 C2441 1.385 . S
C2442 C2443 1.357 . S
C2443 C2442 1.357 . S
C2443 C2444 1.406 . S
C2444 H2411 0.929 . S
C2444 C2443 1.406 . S
C2444 C2445 1.391 . S
C2445 H2412 0.931 . S
C2445 C2440 1.370 . S
C2445 C2444 1.391 . S
C2446 N2420 1.435 . S
C2446 C2447 1.358 . S
C2446 C2451 1.371 . S
C2447 H2413 0.930 . S
C2447 C2446 1.358 . S
C2447 C2448 1.405 . S
C2448 H2414 0.932 . S
C2448 C2447 1.405 . S
C2448 C2449 1.383 . S
C2449 C2448 1.383 . S
C2449 C2450 1.393 . S
C2450 H2415 0.931 . S
C2450 C2449 1.393 . S
C2450 C2451 1.382 . S
C2451 H2416 0.929 . S
C2451 C2446 1.371 . S
C2451 C2450 1.382 . S
C2452 N2420 1.423 . S
C2452 C2453 1.362 . S
C2452 C2457 1.388 . S
C2453 H2417 0.929 . S
C2453 C2452 1.362 . S
C2453 C2454 1.376 . S
C2454 H2418 0.931 . S
C2454 C2453 1.376 . S
C2454 C2455 1.396 . S
C2455 C2437 1.472 . S
C2455 C2454 1.396 . S
C2455 C2456 1.348 . S
C2456 H2419 0.929 . S
C2456 C2455 1.348 . S
C2456 C2457 1.443 . S
C2457 H2421 0.932 . S
C2457 C2452 1.388 . S
C2457 C2456 1.443 . S
H2458 C2485 0.929 . S
N2459 C2484 1.433 . S
N2459 C2490 1.435 . S
N2459 C2496 1.423 . S
H2460 C2486 0.930 . S
H2461 C2489 0.931 . S
H2462 C2488 0.929 . S
H2463 C2491 0.930 . S
H2464 C2492 0.932 . S
H2465 C2495 0.929 . S
H2466 C2494 0.931 . S
H2467 C2497 0.929 . S
H2468 C2501 0.932 . S
H2469 C2498 0.931 . S
H2470 C2500 0.929 . S
H2471 C2503 0.929 . S
H2472 C2504 0.930 . S
H2473 C2506 0.929 . S
H2474 C2507 0.931 . S
H2475 C2509 0.930 . S
H2476 C2510 0.932 . S
H2477 C2512 0.931 . S
H2478 C2513 0.929 . S
H2479 C2515 0.929 . S
H2480 C2516 0.931 . S
H2481 C2518 0.929 . S
N2482 C2502 1.433 . S
N2482 C2508 1.435 . S
N2482 C2514 1.423 . S
H2483 C2519 0.932 . S
C2484 N2459 1.433 . S
C2484 C2485 1.363 . S
C2484 C2489 1.370 . S
C2485 H2458 0.929 . S
C2485 C2484 1.363 . S
C2485 C2486 1.385 . S
C2486 H2460 0.930 . S
C2486 C2485 1.385 . S
C2486 C2487 1.357 . S
C2487 C2486 1.357 . S
C2487 C2488 1.406 . S
C2488 H2462 0.929 . S
C2488 C2487 1.406 . S
C2488 C2489 1.391 . S
C2489 H2461 0.931 . S
C2489 C2484 1.370 . S
C2489 C2488 1.391 . S
C2490 N2459 1.435 . S
C2490 C2491 1.358 . S
C2490 C2495 1.371 . S
C2491 H2463 0.930 . S
C2491 C2490 1.358 . S
C2491 C2492 1.405 . S
C2492 H2464 0.932 . S
C2492 C2491 1.405 . S
C2492 C2493 1.383 . S
C2493 C2492 1.383 . S
C2493 C2494 1.393 . S
C2494 H2466 0.931 . S
C2494 C2493 1.393 . S
C2494 C2495 1.382 . S
C2495 H2465 0.929 . S
C2495 C2490 1.371 . S
C2495 C2494 1.382 . S
C2496 N2459 1.423 . S
C2496 C2497 1.362 . S
C2496 C2501 1.388 . S
C2497 H2467 0.929 . S
C2497 C2496 1.362 . S
C2497 C2498 1.376 . S
C2498 H2469 0.931 . S
C2498 C2497 1.376 . S
C2498 C2499 1.396 . S
C2499 C2498 1.396 . S
C2499 C2500 1.348 . S
C2499 C2517 1.472 . S
C2500 H2470 0.929 . S
C2500 C2499 1.348 . S
C2500 C2501 1.443 . S
C2501 H2468 0.932 . S
C2501 C2496 1.388 . S
C2501 C2500 1.443 . S
C2502 N2482 1.433 . S
C2502 C2503 1.363 . S
C2502 C2507 1.370 . S
C2503 H2471 0.929 . S
C2503 C2502 1.363 . S
C2503 C2504 1.385 . S
C2504 H2472 0.930 . S
C2504 C2503 1.385 . S
C2504 C2505 1.357 . S
C2505 C2504 1.357 . S
C2505 C2506 1.406 . S
C2506 H2473 0.929 . S
C2506 C2505 1.406 . S
C2506 C2507 1.391 . S
C2507 H2474 0.931 . S
C2507 C2502 1.370 . S
C2507 C2506 1.391 . S
C2508 N2482 1.435 . S
C2508 C2509 1.358 . S
C2508 C2513 1.371 . S
C2509 H2475 0.930 . S
C2509 C2508 1.358 . S
C2509 C2510 1.405 . S
C2510 H2476 0.932 . S
C2510 C2509 1.405 . S
C2510 C2511 1.383 . S
C2511 C2510 1.383 . S
C2511 C2512 1.393 . S
C2512 H2477 0.931 . S
C2512 C2511 1.393 . S
C2512 C2513 1.382 . S
C2513 H2478 0.929 . S
C2513 C2508 1.371 . S
C2513 C2512 1.382 . S
C2514 N2482 1.423 . S
C2514 C2515 1.362 . S
C2514 C2519 1.388 . S
C2515 H2479 0.929 . S
C2515 C2514 1.362 . S
C2515 C2516 1.376 . S
C2516 H2480 0.931 . S
C2516 C2515 1.376 . S
C2516 C2517 1.396 . S
C2517 C2499 1.472 . S
C2517 C2516 1.396 . S
C2517 C2518 1.348 . S
C2518 H2481 0.929 . S
C2518 C2517 1.348 . S
C2518 C2519 1.443 . S
C2519 H2483 0.932 . S
C2519 C2514 1.388 . S
C2519 C2518 1.443 . S
H2520 C2547 0.929 . S
N2521 C2546 1.433 . S
N2521 C2552 1.435 . S
N2521 C2558 1.423 . S
H2522 C2548 0.930 . S
H2523 C2551 0.931 . S
H2524 C2550 0.929 . S
H2525 C2553 0.930 . S
H2526 C2554 0.932 . S
H2527 C2557 0.929 . S
H2528 C2556 0.931 . S
H2529 C2559 0.929 . S
H2530 C2563 0.932 . S
H2531 C2560 0.931 . S
H2532 C2562 0.929 . S
H2533 C2565 0.929 . S
H2534 C2566 0.930 . S
H2535 C2568 0.929 . S
H2536 C2569 0.931 . S
H2537 C2571 0.930 . S
H2538 C2572 0.932 . S
H2539 C2574 0.931 . S
H2540 C2575 0.929 . S
H2541 C2577 0.929 . S
H2542 C2578 0.931 . S
H2543 C2580 0.929 . S
N2544 C2564 1.433 . S
N2544 C2570 1.435 . S
N2544 C2576 1.423 . S
H2545 C2581 0.932 . S
C2546 N2521 1.433 . S
C2546 C2547 1.363 . S
C2546 C2551 1.370 . S
C2547 H2520 0.929 . S
C2547 C2546 1.363 . S
C2547 C2548 1.385 . S
C2548 H2522 0.930 . S
C2548 C2547 1.385 . S
C2548 C2549 1.357 . S
C2549 C2548 1.357 . S
C2549 C2550 1.406 . S
C2550 H2524 0.929 . S
C2550 C2549 1.406 . S
C2550 C2551 1.391 . S
C2551 H2523 0.931 . S
C2551 C2546 1.370 . S
C2551 C2550 1.391 . S
C2552 N2521 1.435 . S
C2552 C2553 1.358 . S
C2552 C2557 1.371 . S
C2553 H2525 0.930 . S
C2553 C2552 1.358 . S
C2553 C2554 1.405 . S
C2554 H2526 0.932 . S
C2554 C2553 1.405 . S
C2554 C2555 1.383 . S
C2555 C2554 1.383 . S
C2555 C2556 1.393 . S
C2556 H2528 0.931 . S
C2556 C2555 1.393 . S
C2556 C2557 1.382 . S
C2557 H2527 0.929 . S
C2557 C2552 1.371 . S
C2557 C2556 1.382 . S
C2558 N2521 1.423 . S
C2558 C2559 1.362 . S
C2558 C2563 1.388 . S
C2559 H2529 0.929 . S
C2559 C2558 1.362 . S
C2559 C2560 1.376 . S
C2560 H2531 0.931 . S
C2560 C2559 1.376 . S
C2560 C2561 1.396 . S
C2561 C2560 1.396 . S
C2561 C2562 1.348 . S
C2561 C2579 1.472 . S
C2562 H2532 0.929 . S
C2562 C2561 1.348 . S
C2562 C2563 1.443 . S
C2563 H2530 0.932 . S
C2563 C2558 1.388 . S
C2563 C2562 1.443 . S
C2564 N2544 1.433 . S
C2564 C2565 1.363 . S
C2564 C2569 1.370 . S
C2565 H2533 0.929 . S
C2565 C2564 1.363 . S
C2565 C2566 1.385 . S
C2566 H2534 0.930 . S
C2566 C2565 1.385 . S
C2566 C2567 1.357 . S
C2567 C2566 1.357 . S
C2567 C2568 1.406 . S
C2568 H2535 0.929 . S
C2568 C2567 1.406 . S
C2568 C2569 1.391 . S
C2569 H2536 0.931 . S
C2569 C2564 1.370 . S
C2569 C2568 1.391 . S
C2570 N2544 1.435 . S
C2570 C2571 1.358 . S
C2570 C2575 1.371 . S
C2571 H2537 0.930 . S
C2571 C2570 1.358 . S
C2571 C2572 1.405 . S
C2572 H2538 0.932 . S
C2572 C2571 1.405 . S
C2572 C2573 1.383 . S
C2573 C2572 1.383 . S
C2573 C2574 1.393 . S
C2574 H2539 0.931 . S
C2574 C2573 1.393 . S
C2574 C2575 1.382 . S
C2575 H2540 0.929 . S
C2575 C2570 1.371 . S
C2575 C2574 1.382 . S
C2576 N2544 1.423 . S
C2576 C2577 1.362 . S
C2576 C2581 1.388 . S
C2577 H2541 0.929 . S
C2577 C2576 1.362 . S
C2577 C2578 1.376 . S
C2578 H2542 0.931 . S
C2578 C2577 1.376 . S
C2578 C2579 1.396 . S
C2579 C2561 1.472 . S
C2579 C2578 1.396 . S
C2579 C2580 1.348 . S
C2580 H2543 0.929 . S
C2580 C2579 1.348 . S
C2580 C2581 1.443 . S
C2581 H2545 0.932 . S
C2581 C2576 1.388 . S
C2581 C2580 1.443 . S
H2582 C2609 0.929 . S
N2583 C2608 1.433 . S
N2583 C2614 1.435 . S
N2583 C2620 1.423 . S
H2584 C2610 0.930 . S
H2585 C2613 0.931 . S
H2586 C2612 0.929 . S
H2587 C2615 0.930 . S
H2588 C2616 0.932 . S
H2589 C2619 0.929 . S
H2590 C2618 0.931 . S
H2591 C2621 0.929 . S
H2592 C2625 0.932 . S
H2593 C2622 0.931 . S
H2594 C2624 0.929 . S
H2595 C2627 0.929 . S
H2596 C2628 0.930 . S
H2597 C2630 0.929 . S
H2598 C2631 0.931 . S
H2599 C2633 0.930 . S
H2600 C2634 0.932 . S
H2601 C2636 0.931 . S
H2602 C2637 0.929 . S
H2603 C2639 0.929 . S
H2604 C2640 0.931 . S
H2605 C2642 0.929 . S
N2606 C2626 1.433 . S
N2606 C2632 1.435 . S
N2606 C2638 1.423 . S
H2607 C2643 0.932 . S
C2608 N2583 1.433 . S
C2608 C2609 1.363 . S
C2608 C2613 1.370 . S
C2609 H2582 0.929 . S
C2609 C2608 1.363 . S
C2609 C2610 1.385 . S
C2610 H2584 0.930 . S
C2610 C2609 1.385 . S
C2610 C2611 1.357 . S
C2611 C2610 1.357 . S
C2611 C2612 1.406 . S
C2612 H2586 0.929 . S
C2612 C2611 1.406 . S
C2612 C2613 1.391 . S
C2613 H2585 0.931 . S
C2613 C2608 1.370 . S
C2613 C2612 1.391 . S
C2614 N2583 1.435 . S
C2614 C2615 1.358 . S
C2614 C2619 1.371 . S
C2615 H2587 0.930 . S
C2615 C2614 1.358 . S
C2615 C2616 1.405 . S
C2616 H2588 0.932 . S
C2616 C2615 1.405 . S
C2616 C2617 1.383 . S
C2617 C2616 1.383 . S
C2617 C2618 1.393 . S
C2618 H2590 0.931 . S
C2618 C2617 1.393 . S
C2618 C2619 1.382 . S
C2619 H2589 0.929 . S
C2619 C2614 1.371 . S
C2619 C2618 1.382 . S
C2620 N2583 1.423 . S
C2620 C2621 1.362 . S
C2620 C2625 1.388 . S
C2621 H2591 0.929 . S
C2621 C2620 1.362 . S
C2621 C2622 1.376 . S
C2622 H2593 0.931 . S
C2622 C2621 1.376 . S
C2622 C2623 1.396 . S
C2623 C2622 1.396 . S
C2623 C2624 1.348 . S
C2623 C2641 1.472 . S
C2624 H2594 0.929 . S
C2624 C2623 1.348 . S
C2624 C2625 1.443 . S
C2625 H2592 0.932 . S
C2625 C2620 1.388 . S
C2625 C2624 1.443 . S
C2626 N2606 1.433 . S
C2626 C2627 1.363 . S
C2626 C2631 1.370 . S
C2627 H2595 0.929 . S
C2627 C2626 1.363 . S
C2627 C2628 1.385 . S
C2628 H2596 0.930 . S
C2628 C2627 1.385 . S
C2628 C2629 1.357 . S
C2629 C2628 1.357 . S
C2629 C2630 1.406 . S
C2630 H2597 0.929 . S
C2630 C2629 1.406 . S
C2630 C2631 1.391 . S
C2631 H2598 0.931 . S
C2631 C2626 1.370 . S
C2631 C2630 1.391 . S
C2632 N2606 1.435 . S
C2632 C2633 1.358 . S
C2632 C2637 1.371 . S
C2633 H2599 0.930 . S
C2633 C2632 1.358 . S
C2633 C2634 1.405 . S
C2634 H2600 0.932 . S
C2634 C2633 1.405 . S
C2634 C2635 1.383 . S
C2635 C2634 1.383 . S
C2635 C2636 1.393 . S
C2636 H2601 0.931 . S
C2636 C2635 1.393 . S
C2636 C2637 1.382 . S
C2637 H2602 0.929 . S
C2637 C2632 1.371 . S
C2637 C2636 1.382 . S
C2638 N2606 1.423 . S
C2638 C2639 1.362 . S
C2638 C2643 1.388 . S
C2639 H2603 0.929 . S
C2639 C2638 1.362 . S
C2639 C2640 1.376 . S
C2640 H2604 0.931 . S
C2640 C2639 1.376 . S
C2640 C2641 1.396 . S
C2641 C2623 1.472 . S
C2641 C2640 1.396 . S
C2641 C2642 1.348 . S
C2642 H2605 0.929 . S
C2642 C2641 1.348 . S
C2642 C2643 1.443 . S
C2643 H2607 0.932 . S
C2643 C2638 1.388 . S
C2643 C2642 1.443 . S
H2644 C2671 0.929 . S
N2645 C2670 1.433 . S
N2645 C2676 1.435 . S
N2645 C2682 1.423 . S
H2646 C2672 0.930 . S
H2647 C2675 0.931 . S
H2648 C2674 0.929 . S
H2649 C2677 0.930 . S
H2650 C2678 0.932 . S
H2651 C2681 0.929 . S
H2652 C2680 0.931 . S
H2653 C2683 0.929 . S
H2654 C2687 0.932 . S
H2655 C2684 0.931 . S
H2656 C2686 0.929 . S
H2657 C2689 0.929 . S
H2658 C2690 0.930 . S
H2659 C2692 0.929 . S
H2660 C2693 0.931 . S
H2661 C2695 0.930 . S
H2662 C2696 0.932 . S
H2663 C2698 0.931 . S
H2664 C2699 0.929 . S
H2665 C2701 0.929 . S
H2666 C2702 0.931 . S
H2667 C2704 0.929 . S
N2668 C2688 1.433 . S
N2668 C2694 1.435 . S
N2668 C2700 1.423 . S
H2669 C2705 0.932 . S
C2670 N2645 1.433 . S
C2670 C2671 1.363 . S
C2670 C2675 1.370 . S
C2671 H2644 0.929 . S
C2671 C2670 1.363 . S
C2671 C2672 1.385 . S
C2672 H2646 0.930 . S
C2672 C2671 1.385 . S
C2672 C2673 1.357 . S
C2673 C2672 1.357 . S
C2673 C2674 1.406 . S
C2674 H2648 0.929 . S
C2674 C2673 1.406 . S
C2674 C2675 1.391 . S
C2675 H2647 0.931 . S
C2675 C2670 1.370 . S
C2675 C2674 1.391 . S
C2676 N2645 1.435 . S
C2676 C2677 1.358 . S
C2676 C2681 1.371 . S
C2677 H2649 0.930 . S
C2677 C2676 1.358 . S
C2677 C2678 1.405 . S
C2678 H2650 0.932 . S
C2678 C2677 1.405 . S
C2678 C2679 1.383 . S
C2679 C2678 1.383 . S
C2679 C2680 1.393 . S
C2680 H2652 0.931 . S
C2680 C2679 1.393 . S
C2680 C2681 1.382 . S
C2681 H2651 0.929 . S
C2681 C2676 1.371 . S
C2681 C2680 1.382 . S
C2682 N2645 1.423 . S
C2682 C2683 1.362 . S
C2682 C2687 1.388 . S
C2683 H2653 0.929 . S
C2683 C2682 1.362 . S
C2683 C2684 1.376 . S
C2684 H2655 0.931 . S
C2684 C2683 1.376 . S
C2684 C2685 1.396 . S
C2685 C2684 1.396 . S
C2685 C2686 1.348 . S
C2685 C2703 1.472 . S
C2686 H2656 0.929 . S
C2686 C2685 1.348 . S
C2686 C2687 1.443 . S
C2687 H2654 0.932 . S
C2687 C2682 1.388 . S
C2687 C2686 1.443 . S
C2688 N2668 1.433 . S
C2688 C2689 1.363 . S
C2688 C2693 1.370 . S
C2689 H2657 0.929 . S
C2689 C2688 1.363 . S
C2689 C2690 1.385 . S
C2690 H2658 0.930 . S
C2690 C2689 1.385 . S
C2690 C2691 1.357 . S
C2691 C2690 1.357 . S
C2691 C2692 1.406 . S
C2692 H2659 0.929 . S
C2692 C2691 1.406 . S
C2692 C2693 1.391 . S
C2693 H2660 0.931 . S
C2693 C2688 1.370 . S
C2693 C2692 1.391 . S
C2694 N2668 1.435 . S
C2694 C2695 1.358 . S
C2694 C2699 1.371 . S
C2695 H2661 0.930 . S
C2695 C2694 1.358 . S
C2695 C2696 1.405 . S
C2696 H2662 0.932 . S
C2696 C2695 1.405 . S
C2696 C2697 1.383 . S
C2697 C2696 1.383 . S
C2697 C2698 1.393 . S
C2698 H2663 0.931 . S
C2698 C2697 1.393 . S
C2698 C2699 1.382 . S
C2699 H2664 0.929 . S
C2699 C2694 1.371 . S
C2699 C2698 1.382 . S
C2700 N2668 1.423 . S
C2700 C2701 1.362 . S
C2700 C2705 1.388 . S
C2701 H2665 0.929 . S
C2701 C2700 1.362 . S
C2701 C2702 1.376 . S
C2702 H2666 0.931 . S
C2702 C2701 1.376 . S
C2702 C2703 1.396 . S
C2703 C2685 1.472 . S
C2703 C2702 1.396 . S
C2703 C2704 1.348 . S
C2704 H2667 0.929 . S
C2704 C2703 1.348 . S
C2704 C2705 1.443 . S
C2705 H2669 0.932 . S
C2705 C2700 1.388 . S
C2705 C2704 1.443 . S
H2706 C2733 0.929 . S
N2707 C2732 1.433 . S
N2707 C2738 1.435 . S
N2707 C2744 1.423 . S
H2708 C2734 0.930 . S
H2709 C2737 0.931 . S
H2710 C2736 0.929 . S
H2711 C2739 0.930 . S
H2712 C2740 0.932 . S
H2713 C2743 0.929 . S
H2714 C2742 0.931 . S
H2715 C2745 0.929 . S
H2716 C2749 0.932 . S
H2717 C2746 0.931 . S
H2718 C2748 0.929 . S
H2719 C2751 0.929 . S
H2720 C2752 0.930 . S
H2721 C2754 0.929 . S
H2722 C2755 0.931 . S
H2723 C2757 0.930 . S
H2724 C2758 0.932 . S
H2725 C2760 0.931 . S
H2726 C2761 0.929 . S
H2727 C2763 0.929 . S
H2728 C2764 0.931 . S
H2729 C2766 0.929 . S
N2730 C2750 1.433 . S
N2730 C2756 1.435 . S
N2730 C2762 1.423 . S
H2731 C2767 0.932 . S
C2732 N2707 1.433 . S
C2732 C2733 1.363 . S
C2732 C2737 1.370 . S
C2733 H2706 0.929 . S
C2733 C2732 1.363 . S
C2733 C2734 1.385 . S
C2734 H2708 0.930 . S
C2734 C2733 1.385 . S
C2734 C2735 1.357 . S
C2735 C2734 1.357 . S
C2735 C2736 1.406 . S
C2736 H2710 0.929 . S
C2736 C2735 1.406 . S
C2736 C2737 1.391 . S
C2737 H2709 0.931 . S
C2737 C2732 1.370 . S
C2737 C2736 1.391 . S
C2738 N2707 1.435 . S
C2738 C2739 1.358 . S
C2738 C2743 1.371 . S
C2739 H2711 0.930 . S
C2739 C2738 1.358 . S
C2739 C2740 1.405 . S
C2740 H2712 0.932 . S
C2740 C2739 1.405 . S
C2740 C2741 1.383 . S
C2741 C2740 1.383 . S
C2741 C2742 1.393 . S
C2742 H2714 0.931 . S
C2742 C2741 1.393 . S
C2742 C2743 1.382 . S
C2743 H2713 0.929 . S
C2743 C2738 1.371 . S
C2743 C2742 1.382 . S
C2744 N2707 1.423 . S
C2744 C2745 1.362 . S
C2744 C2749 1.388 . S
C2745 H2715 0.929 . S
C2745 C2744 1.362 . S
C2745 C2746 1.376 . S
C2746 H2717 0.931 . S
C2746 C2745 1.376 . S
C2746 C2747 1.396 . S
C2747 C2746 1.396 . S
C2747 C2748 1.348 . S
C2747 C2765 1.472 . S
C2748 H2718 0.929 . S
C2748 C2747 1.348 . S
C2748 C2749 1.443 . S
C2749 H2716 0.932 . S
C2749 C2744 1.388 . S
C2749 C2748 1.443 . S
C2750 N2730 1.433 . S
C2750 C2751 1.363 . S
C2750 C2755 1.370 . S
C2751 H2719 0.929 . S
C2751 C2750 1.363 . S
C2751 C2752 1.385 . S
C2752 H2720 0.930 . S
C2752 C2751 1.385 . S
C2752 C2753 1.357 . S
C2753 C2752 1.357 . S
C2753 C2754 1.406 . S
C2754 H2721 0.929 . S
C2754 C2753 1.406 . S
C2754 C2755 1.391 . S
C2755 H2722 0.931 . S
C2755 C2750 1.370 . S
C2755 C2754 1.391 . S
C2756 N2730 1.435 . S
C2756 C2757 1.358 . S
C2756 C2761 1.371 . S
C2757 H2723 0.930 . S
C2757 C2756 1.358 . S
C2757 C2758 1.405 . S
C2758 H2724 0.932 . S
C2758 C2757 1.405 . S
C2758 C2759 1.383 . S
C2759 C2758 1.383 . S
C2759 C2760 1.393 . S
C2760 H2725 0.931 . S
C2760 C2759 1.393 . S
C2760 C2761 1.382 . S
C2761 H2726 0.929 . S
C2761 C2756 1.371 . S
C2761 C2760 1.382 . S
C2762 N2730 1.423 . S
C2762 C2763 1.362 . S
C2762 C2767 1.388 . S
C2763 H2727 0.929 . S
C2763 C2762 1.362 . S
C2763 C2764 1.376 . S
C2764 H2728 0.931 . S
C2764 C2763 1.376 . S
C2764 C2765 1.396 . S
C2765 C2747 1.472 . S
C2765 C2764 1.396 . S
C2765 C2766 1.348 . S
C2766 H2729 0.929 . S
C2766 C2765 1.348 . S
C2766 C2767 1.443 . S
C2767 H2731 0.932 . S
C2767 C2762 1.388 . S
C2767 C2766 1.443 . S
H2768 C2780 0.930 . S
H2769 C2782 0.930 . S
H2770 C2783 0.930 . S
H2771 C2787 0.959 . S
H2772 C2787 0.959 . S
H2773 C2787 0.961 . S
H2774 C2788 0.960 . S
H2775 C2788 0.961 . S
H2776 C2788 0.959 . S
H2777 C2791 0.929 . S
H2778 C2792 0.931 . S
H2779 C2794 0.930 . S
C2780 H2768 0.930 . S
C2780 C2781 1.399 . S
C2780 C2785 1.399 . S
C2781 C2780 1.399 . S
C2781 C2782 1.376 . S
C2782 H2769 0.930 . S
C2782 C2781 1.376 . S
C2782 C2783 1.388 . S
C2783 H2770 0.930 . S
C2783 C2782 1.388 . S
C2783 C2784 1.390 . S
C2784 C2783 1.390 . S
C2784 C2785 1.394 . S
C2784 C2790 1.465 . S
C2785 C2780 1.399 . S
C2785 C2784 1.394 . S
C2785 C2786 1.516 . S
C2786 C2785 1.516 . S
C2786 C2787 1.502 . S
C2786 C2788 1.561 . S
C2786 C2789 1.526 . S
C2787 H2771 0.959 . S
C2787 H2772 0.959 . S
C2787 H2773 0.961 . S
C2787 C2786 1.502 . S
C2788 H2774 0.960 . S
C2788 H2775 0.961 . S
C2788 H2776 0.959 . S
C2788 C2786 1.561 . S
C2789 C2786 1.526 . S
C2789 C2790 1.396 . S
C2789 C2794 1.390 . S
C2790 C2784 1.465 . S
C2790 C2789 1.396 . S
C2790 C2791 1.399 . S
C2791 H2777 0.929 . S
C2791 C2790 1.399 . S
C2791 C2792 1.385 . S
C2792 H2778 0.931 . S
C2792 C2791 1.385 . S
C2792 C2793 1.389 . S
C2793 C2792 1.389 . S
C2793 C2794 1.387 . S
C2794 H2779 0.930 . S
C2794 C2789 1.390 . S
C2794 C2793 1.387 . S
H2795 C2807 0.930 . S
H2796 C2809 0.930 . S
H2797 C2810 0.930 . S
H2798 C2814 0.959 . S
H2799 C2814 0.959 . S
H2800 C2814 0.961 . S
H2801 C2815 0.960 . S
H2802 C2815 0.961 . S
H2803 C2815 0.959 . S
H2804 C2818 0.929 . S
H2805 C2819 0.931 . S
H2806 C2821 0.930 . S
C2807 H2795 0.930 . S
C2807 C2808 1.399 . S
C2807 C2812 1.399 . S
C2808 C2807 1.399 . S
C2808 C2809 1.376 . S
C2809 H2796 0.930 . S
C2809 C2808 1.376 . S
C2809 C2810 1.388 . S
C2810 H2797 0.930 . S
C2810 C2809 1.388 . S
C2810 C2811 1.390 . S
C2811 C2810 1.390 . S
C2811 C2812 1.394 . S
C2811 C2817 1.465 . S
C2812 C2807 1.399 . S
C2812 C2811 1.394 . S
C2812 C2813 1.516 . S
C2813 C2812 1.516 . S
C2813 C2814 1.502 . S
C2813 C2815 1.561 . S
C2813 C2816 1.526 . S
C2814 H2798 0.959 . S
C2814 H2799 0.959 . S
C2814 H2800 0.961 . S
C2814 C2813 1.502 . S
C2815 H2801 0.960 . S
C2815 H2802 0.961 . S
C2815 H2803 0.959 . S
C2815 C2813 1.561 . S
C2816 C2813 1.526 . S
C2816 C2817 1.396 . S
C2816 C2821 1.390 . S
C2817 C2811 1.465 . S
C2817 C2816 1.396 . S
C2817 C2818 1.399 . S
C2818 H2804 0.929 . S
C2818 C2817 1.399 . S
C2818 C2819 1.385 . S
C2819 H2805 0.931 . S
C2819 C2818 1.385 . S
C2819 C2820 1.389 . S
C2820 C2819 1.389 . S
C2820 C2821 1.387 . S
C2821 H2806 0.930 . S
C2821 C2816 1.390 . S
C2821 C2820 1.387 . S
H2822 C2834 0.930 . S
H2823 C2836 0.930 . S
H2824 C2837 0.930 . S
H2825 C2841 0.959 . S
H2826 C2841 0.959 . S
H2827 C2841 0.961 . S
H2828 C2842 0.960 . S
H2829 C2842 0.961 . S
H2830 C2842 0.959 . S
H2831 C2845 0.929 . S
H2832 C2846 0.931 . S
H2833 C2848 0.930 . S
C2834 H2822 0.930 . S
C2834 C2835 1.399 . S
C2834 C2839 1.399 . S
C2835 C2834 1.399 . S
C2835 C2836 1.376 . S
C2836 H2823 0.930 . S
C2836 C2835 1.376 . S
C2836 C2837 1.388 . S
C2837 H2824 0.930 . S
C2837 C2836 1.388 . S
C2837 C2838 1.390 . S
C2838 C2837 1.390 . S
C2838 C2839 1.394 . S
C2838 C2844 1.465 . S
C2839 C2834 1.399 . S
C2839 C2838 1.394 . S
C2839 C2840 1.516 . S
C2840 C2839 1.516 . S
C2840 C2841 1.502 . S
C2840 C2842 1.561 . S
C2840 C2843 1.526 . S
C2841 H2825 0.959 . S
C2841 H2826 0.959 . S
C2841 H2827 0.961 . S
C2841 C2840 1.502 . S
C2842 H2828 0.960 . S
C2842 H2829 0.961 . S
C2842 H2830 0.959 . S
C2842 C2840 1.561 . S
C2843 C2840 1.526 . S
C2843 C2844 1.396 . S
C2843 C2848 1.390 . S
C2844 C2838 1.465 . S
C2844 C2843 1.396 . S
C2844 C2845 1.399 . S
C2845 H2831 0.929 . S
C2845 C2844 1.399 . S
C2845 C2846 1.385 . S
C2846 H2832 0.931 . S
C2846 C2845 1.385 . S
C2846 C2847 1.389 . S
C2847 C2846 1.389 . S
C2847 C2848 1.387 . S
C2848 H2833 0.930 . S
C2848 C2843 1.390 . S
C2848 C2847 1.387 . S
H2849 C2861 0.930 . S
H2850 C2863 0.930 . S
H2851 C2864 0.930 . S
H2852 C2868 0.959 . S
H2853 C2868 0.959 . S
H2854 C2868 0.961 . S
H2855 C2869 0.960 . S
H2856 C2869 0.961 . S
H2857 C2869 0.959 . S
H2858 C2872 0.929 . S
H2859 C2873 0.931 . S
H2860 C2875 0.930 . S
C2861 H2849 0.930 . S
C2861 C2862 1.399 . S
C2861 C2866 1.399 . S
C2862 C2861 1.399 . S
C2862 C2863 1.376 . S
C2863 H2850 0.930 . S
C2863 C2862 1.376 . S
C2863 C2864 1.388 . S
C2864 H2851 0.930 . S
C2864 C2863 1.388 . S
C2864 C2865 1.390 . S
C2865 C2864 1.390 . S
C2865 C2866 1.394 . S
C2865 C2871 1.465 . S
C2866 C2861 1.399 . S
C2866 C2865 1.394 . S
C2866 C2867 1.516 . S
C2867 C2866 1.516 . S
C2867 C2868 1.502 . S
C2867 C2869 1.561 . S
C2867 C2870 1.526 . S
C2868 H2852 0.959 . S
C2868 H2853 0.959 . S
C2868 H2854 0.961 . S
C2868 C2867 1.502 . S
C2869 H2855 0.960 . S
C2869 H2856 0.961 . S
C2869 H2857 0.959 . S
C2869 C2867 1.561 . S
C2870 C2867 1.526 . S
C2870 C2871 1.396 . S
C2870 C2875 1.390 . S
C2871 C2865 1.465 . S
C2871 C2870 1.396 . S
C2871 C2872 1.399 . S
C2872 H2858 0.929 . S
C2872 C2871 1.399 . S
C2872 C2873 1.385 . S
C2873 H2859 0.931 . S
C2873 C2872 1.385 . S
C2873 C2874 1.389 . S
C2874 C2873 1.389 . S
C2874 C2875 1.387 . S
C2875 H2860 0.930 . S
C2875 C2870 1.390 . S
C2875 C2874 1.387 . S
H2876 C2888 0.930 . S
H2877 C2890 0.930 . S
H2878 C2891 0.930 . S
H2879 C2895 0.959 . S
H2880 C2895 0.959 . S
H2881 C2895 0.961 . S
H2882 C2896 0.960 . S
H2883 C2896 0.961 . S
H2884 C2896 0.959 . S
H2885 C2899 0.929 . S
H2886 C2900 0.931 . S
H2887 C2902 0.930 . S
C2888 H2876 0.930 . S
C2888 C2889 1.399 . S
C2888 C2893 1.399 . S
C2889 C2888 1.399 . S
C2889 C2890 1.376 . S
C2890 H2877 0.930 . S
C2890 C2889 1.376 . S
C2890 C2891 1.388 . S
C2891 H2878 0.930 . S
C2891 C2890 1.388 . S
C2891 C2892 1.390 . S
C2892 C2891 1.390 . S
C2892 C2893 1.394 . S
C2892 C2898 1.465 . S
C2893 C2888 1.399 . S
C2893 C2892 1.394 . S
C2893 C2894 1.516 . S
C2894 C2893 1.516 . S
C2894 C2895 1.502 . S
C2894 C2896 1.561 . S
C2894 C2897 1.526 . S
C2895 H2879 0.959 . S
C2895 H2880 0.959 . S
C2895 H2881 0.961 . S
C2895 C2894 1.502 . S
C2896 H2882 0.960 . S
C2896 H2883 0.961 . S
C2896 H2884 0.959 . S
C2896 C2894 1.561 . S
C2897 C2894 1.526 . S
C2897 C2898 1.396 . S
C2897 C2902 1.390 . S
C2898 C2892 1.465 . S
C2898 C2897 1.396 . S
C2898 C2899 1.399 . S
C2899 H2885 0.929 . S
C2899 C2898 1.399 . S
C2899 C2900 1.385 . S
C2900 H2886 0.931 . S
C2900 C2899 1.385 . S
C2900 C2901 1.389 . S
C2901 C2900 1.389 . S
C2901 C2902 1.387 . S
C2902 H2887 0.930 . S
C2902 C2897 1.390 . S
C2902 C2901 1.387 . S
H2903 C2915 0.930 . S
H2904 C2917 0.930 . S
H2905 C2918 0.930 . S
H2906 C2922 0.959 . S
H2907 C2922 0.959 . S
H2908 C2922 0.961 . S
H2909 C2923 0.960 . S
H2910 C2923 0.961 . S
H2911 C2923 0.959 . S
H2912 C2926 0.929 . S
H2913 C2927 0.931 . S
H2914 C2929 0.930 . S
C2915 H2903 0.930 . S
C2915 C2916 1.399 . S
C2915 C2920 1.399 . S
C2916 C2915 1.399 . S
C2916 C2917 1.376 . S
C2917 H2904 0.930 . S
C2917 C2916 1.376 . S
C2917 C2918 1.388 . S
C2918 H2905 0.930 . S
C2918 C2917 1.388 . S
C2918 C2919 1.390 . S
C2919 C2918 1.390 . S
C2919 C2920 1.394 . S
C2919 C2925 1.465 . S
C2920 C2915 1.399 . S
C2920 C2919 1.394 . S
C2920 C2921 1.516 . S
C2921 C2920 1.516 . S
C2921 C2922 1.502 . S
C2921 C2923 1.561 . S
C2921 C2924 1.526 . S
C2922 H2906 0.959 . S
C2922 H2907 0.959 . S
C2922 H2908 0.961 . S
C2922 C2921 1.502 . S
C2923 H2909 0.960 . S
C2923 H2910 0.961 . S
C2923 H2911 0.959 . S
C2923 C2921 1.561 . S
C2924 C2921 1.526 . S
C2924 C2925 1.396 . S
C2924 C2929 1.390 . S
C2925 C2919 1.465 . S
C2925 C2924 1.396 . S
C2925 C2926 1.399 . S
C2926 H2912 0.929 . S
C2926 C2925 1.399 . S
C2926 C2927 1.385 . S
C2927 H2913 0.931 . S
C2927 C2926 1.385 . S
C2927 C2928 1.389 . S
C2928 C2927 1.389 . S
C2928 C2929 1.387 . S
C2929 H2914 0.930 . S
C2929 C2924 1.390 . S
C2929 C2928 1.387 . S
H2930 C2942 0.930 . S
H2931 C2944 0.930 . S
H2932 C2945 0.930 . S
H2933 C2949 0.959 . S
H2934 C2949 0.959 . S
H2935 C2949 0.961 . S
H2936 C2950 0.960 . S
H2937 C2950 0.961 . S
H2938 C2950 0.959 . S
H2939 C2953 0.929 . S
H2940 C2954 0.931 . S
H2941 C2956 0.930 . S
C2942 H2930 0.930 . S
C2942 C2943 1.399 . S
C2942 C2947 1.399 . S
C2943 C2942 1.399 . S
C2943 C2944 1.376 . S
C2944 H2931 0.930 . S
C2944 C2943 1.376 . S
C2944 C2945 1.388 . S
C2945 H2932 0.930 . S
C2945 C2944 1.388 . S
C2945 C2946 1.390 . S
C2946 C2945 1.390 . S
C2946 C2947 1.394 . S
C2946 C2952 1.465 . S
C2947 C2942 1.399 . S
C2947 C2946 1.394 . S
C2947 C2948 1.516 . S
C2948 C2947 1.516 . S
C2948 C2949 1.502 . S
C2948 C2950 1.561 . S
C2948 C2951 1.526 . S
C2949 H2933 0.959 . S
C2949 H2934 0.959 . S
C2949 H2935 0.961 . S
C2949 C2948 1.502 . S
C2950 H2936 0.960 . S
C2950 H2937 0.961 . S
C2950 H2938 0.959 . S
C2950 C2948 1.561 . S
C2951 C2948 1.526 . S
C2951 C2952 1.396 . S
C2951 C2956 1.390 . S
C2952 C2946 1.465 . S
C2952 C2951 1.396 . S
C2952 C2953 1.399 . S
C2953 H2939 0.929 . S
C2953 C2952 1.399 . S
C2953 C2954 1.385 . S
C2954 H2940 0.931 . S
C2954 C2953 1.385 . S
C2954 C2955 1.389 . S
C2955 C2954 1.389 . S
C2955 C2956 1.387 . S
C2956 H2941 0.930 . S
C2956 C2951 1.390 . S
C2956 C2955 1.387 . S
H2957 C2969 0.930 . S
H2958 C2971 0.930 . S
H2959 C2972 0.930 . S
H2960 C2976 0.959 . S
H2961 C2976 0.959 . S
H2962 C2976 0.961 . S
H2963 C2977 0.960 . S
H2964 C2977 0.961 . S
H2965 C2977 0.959 . S
H2966 C2980 0.929 . S
H2967 C2981 0.931 . S
H2968 C2983 0.930 . S
C2969 H2957 0.930 . S
C2969 C2970 1.399 . S
C2969 C2974 1.399 . S
C2970 C2969 1.399 . S
C2970 C2971 1.376 . S
C2971 H2958 0.930 . S
C2971 C2970 1.376 . S
C2971 C2972 1.388 . S
C2972 H2959 0.930 . S
C2972 C2971 1.388 . S
C2972 C2973 1.390 . S
C2973 C2972 1.390 . S
C2973 C2974 1.394 . S
C2973 C2979 1.465 . S
C2974 C2969 1.399 . S
C2974 C2973 1.394 . S
C2974 C2975 1.516 . S
C2975 C2974 1.516 . S
C2975 C2976 1.502 . S
C2975 C2977 1.561 . S
C2975 C2978 1.526 . S
C2976 H2960 0.959 . S
C2976 H2961 0.959 . S
C2976 H2962 0.961 . S
C2976 C2975 1.502 . S
C2977 H2963 0.960 . S
C2977 H2964 0.961 . S
C2977 H2965 0.959 . S
C2977 C2975 1.561 . S
C2978 C2975 1.526 . S
C2978 C2979 1.396 . S
C2978 C2983 1.390 . S
C2979 C2973 1.465 . S
C2979 C2978 1.396 . S
C2979 C2980 1.399 . S
C2980 H2966 0.929 . S
C2980 C2979 1.399 . S
C2980 C2981 1.385 . S
C2981 H2967 0.931 . S
C2981 C2980 1.385 . S
C2981 C2982 1.389 . S
C2982 C2981 1.389 . S
C2982 C2983 1.387 . S
C2983 H2968 0.930 . S
C2983 C2978 1.390 . S
C2983 C2982 1.387 . S
H2984 C2996 0.930 . S
H2985 C2998 0.930 . S
H2986 C2999 0.930 . S
H2987 C3003 0.959 . S
H2988 C3003 0.959 . S
H2989 C3003 0.961 . S
H2990 C3004 0.960 . S
H2991 C3004 0.961 . S
H2992 C3004 0.959 . S
H2993 C3007 0.929 . S
H2994 C3008 0.931 . S
H2995 C3010 0.930 . S
C2996 H2984 0.930 . S
C2996 C2997 1.399 . S
C2996 C3001 1.399 . S
C2997 C2996 1.399 . S
C2997 C2998 1.376 . S
C2998 H2985 0.930 . S
C2998 C2997 1.376 . S
C2998 C2999 1.388 . S
C2999 H2986 0.930 . S
C2999 C2998 1.388 . S
C2999 C3000 1.390 . S
C3000 C2999 1.390 . S
C3000 C3001 1.394 . S
C3000 C3006 1.465 . S
C3001 C2996 1.399 . S
C3001 C3000 1.394 . S
C3001 C3002 1.516 . S
C3002 C3001 1.516 . S
C3002 C3003 1.502 . S
C3002 C3004 1.561 . S
C3002 C3005 1.526 . S
C3003 H2987 0.959 . S
C3003 H2988 0.959 . S
C3003 H2989 0.961 . S
C3003 C3002 1.502 . S
C3004 H2990 0.960 . S
C3004 H2991 0.961 . S
C3004 H2992 0.959 . S
C3004 C3002 1.561 . S
C3005 C3002 1.526 . S
C3005 C3006 1.396 . S
C3005 C3010 1.390 . S
C3006 C3000 1.465 . S
C3006 C3005 1.396 . S
C3006 C3007 1.399 . S
C3007 H2993 0.929 . S
C3007 C3006 1.399 . S
C3007 C3008 1.385 . S
C3008 H2994 0.931 . S
C3008 C3007 1.385 . S
C3008 C3009 1.389 . S
C3009 C3008 1.389 . S
C3009 C3010 1.387 . S
C3010 H2995 0.930 . S
C3010 C3005 1.390 . S
C3010 C3009 1.387 . S
H3011 C3023 0.930 . S
H3012 C3025 0.930 . S
H3013 C3026 0.930 . S
H3014 C3030 0.959 . S
H3015 C3030 0.959 . S
H3016 C3030 0.961 . S
H3017 C3031 0.960 . S
H3018 C3031 0.961 . S
H3019 C3031 0.959 . S
H3020 C3034 0.929 . S
H3021 C3035 0.931 . S
H3022 C3037 0.930 . S
C3023 H3011 0.930 . S
C3023 C3024 1.399 . S
C3023 C3028 1.399 . S
C3024 C3023 1.399 . S
C3024 C3025 1.376 . S
C3025 H3012 0.930 . S
C3025 C3024 1.376 . S
C3025 C3026 1.388 . S
C3026 H3013 0.930 . S
C3026 C3025 1.388 . S
C3026 C3027 1.390 . S
C3027 C3026 1.390 . S
C3027 C3028 1.394 . S
C3027 C3033 1.465 . S
C3028 C3023 1.399 . S
C3028 C3027 1.394 . S
C3028 C3029 1.516 . S
C3029 C3028 1.516 . S
C3029 C3030 1.502 . S
C3029 C3031 1.561 . S
C3029 C3032 1.526 . S
C3030 H3014 0.959 . S
C3030 H3015 0.959 . S
C3030 H3016 0.961 . S
C3030 C3029 1.502 . S
C3031 H3017 0.960 . S
C3031 H3018 0.961 . S
C3031 H3019 0.959 . S
C3031 C3029 1.561 . S
C3032 C3029 1.526 . S
C3032 C3033 1.396 . S
C3032 C3037 1.390 . S
C3033 C3027 1.465 . S
C3033 C3032 1.396 . S
C3033 C3034 1.399 . S
C3034 H3020 0.929 . S
C3034 C3033 1.399 . S
C3034 C3035 1.385 . S
C3035 H3021 0.931 . S
C3035 C3034 1.385 . S
C3035 C3036 1.389 . S
C3036 C3035 1.389 . S
C3036 C3037 1.387 . S
C3037 H3022 0.930 . S
C3037 C3032 1.390 . S
C3037 C3036 1.387 . S
H3038 C3050 0.930 . S
H3039 C3052 0.930 . S
H3040 C3053 0.930 . S
H3041 C3057 0.959 . S
H3042 C3057 0.959 . S
H3043 C3057 0.961 . S
H3044 C3058 0.960 . S
H3045 C3058 0.961 . S
H3046 C3058 0.959 . S
H3047 C3061 0.929 . S
H3048 C3062 0.931 . S
H3049 C3064 0.930 . S
C3050 H3038 0.930 . S
C3050 C3051 1.399 . S
C3050 C3055 1.399 . S
C3051 C3050 1.399 . S
C3051 C3052 1.376 . S
C3052 H3039 0.930 . S
C3052 C3051 1.376 . S
C3052 C3053 1.388 . S
C3053 H3040 0.930 . S
C3053 C3052 1.388 . S
C3053 C3054 1.390 . S
C3054 C3053 1.390 . S
C3054 C3055 1.394 . S
C3054 C3060 1.465 . S
C3055 C3050 1.399 . S
C3055 C3054 1.394 . S
C3055 C3056 1.516 . S
C3056 C3055 1.516 . S
C3056 C3057 1.502 . S
C3056 C3058 1.561 . S
C3056 C3059 1.526 . S
C3057 H3041 0.959 . S
C3057 H3042 0.959 . S
C3057 H3043 0.961 . S
C3057 C3056 1.502 . S
C3058 H3044 0.960 . S
C3058 H3045 0.961 . S
C3058 H3046 0.959 . S
C3058 C3056 1.561 . S
C3059 C3056 1.526 . S
C3059 C3060 1.396 . S
C3059 C3064 1.390 . S
C3060 C3054 1.465 . S
C3060 C3059 1.396 . S
C3060 C3061 1.399 . S
C3061 H3047 0.929 . S
C3061 C3060 1.399 . S
C3061 C3062 1.385 . S
C3062 H3048 0.931 . S
C3062 C3061 1.385 . S
C3062 C3063 1.389 . S
C3063 C3062 1.389 . S
C3063 C3064 1.387 . S
C3064 H3049 0.930 . S
C3064 C3059 1.390 . S
C3064 C3063 1.387 . S
H3065 C3077 0.930 . S
H3066 C3079 0.930 . S
H3067 C3080 0.930 . S
H3068 C3084 0.959 . S
H3069 C3084 0.959 . S
H3070 C3084 0.961 . S
H3071 C3085 0.960 . S
H3072 C3085 0.961 . S
H3073 C3085 0.959 . S
H3074 C3088 0.929 . S
H3075 C3089 0.931 . S
H3076 C3091 0.930 . S
C3077 H3065 0.930 . S
C3077 C3078 1.399 . S
C3077 C3082 1.399 . S
C3078 C3077 1.399 . S
C3078 C3079 1.376 . S
C3079 H3066 0.930 . S
C3079 C3078 1.376 . S
C3079 C3080 1.388 . S
C3080 H3067 0.930 . S
C3080 C3079 1.388 . S
C3080 C3081 1.390 . S
C3081 C3080 1.390 . S
C3081 C3082 1.394 . S
C3081 C3087 1.465 . S
C3082 C3077 1.399 . S
C3082 C3081 1.394 . S
C3082 C3083 1.516 . S
C3083 C3082 1.516 . S
C3083 C3084 1.502 . S
C3083 C3085 1.561 . S
C3083 C3086 1.526 . S
C3084 H3068 0.959 . S
C3084 H3069 0.959 . S
C3084 H3070 0.961 . S
C3084 C3083 1.502 . S
C3085 H3071 0.960 . S
C3085 H3072 0.961 . S
C3085 H3073 0.959 . S
C3085 C3083 1.561 . S
C3086 C3083 1.526 . S
C3086 C3087 1.396 . S
C3086 C3091 1.390 . S
C3087 C3081 1.465 . S
C3087 C3086 1.396 . S
C3087 C3088 1.399 . S
C3088 H3074 0.929 . S
C3088 C3087 1.399 . S
C3088 C3089 1.385 . S
C3089 H3075 0.931 . S
C3089 C3088 1.385 . S
C3089 C3090 1.389 . S
C3090 C3089 1.389 . S
C3090 C3091 1.387 . S
C3091 H3076 0.930 . S
C3091 C3086 1.390 . S
C3091 C3090 1.387 . S
H3092 C3104 0.930 . S
H3093 C3106 0.930 . S
H3094 C3107 0.930 . S
H3095 C3111 0.959 . S
H3096 C3111 0.959 . S
H3097 C3111 0.961 . S
H3098 C3112 0.960 . S
H3099 C3112 0.961 . S
H3100 C3112 0.959 . S
H3101 C3115 0.929 . S
H3102 C3116 0.931 . S
H3103 C3118 0.930 . S
C3104 H3092 0.930 . S
C3104 C3105 1.399 . S
C3104 C3109 1.399 . S
C3105 C3104 1.399 . S
C3105 C3106 1.376 . S
C3106 H3093 0.930 . S
C3106 C3105 1.376 . S
C3106 C3107 1.388 . S
C3107 H3094 0.930 . S
C3107 C3106 1.388 . S
C3107 C3108 1.390 . S
C3108 C3107 1.390 . S
C3108 C3109 1.394 . S
C3108 C3114 1.465 . S
C3109 C3104 1.399 . S
C3109 C3108 1.394 . S
C3109 C3110 1.516 . S
C3110 C3109 1.516 . S
C3110 C3111 1.502 . S
C3110 C3112 1.561 . S
C3110 C3113 1.526 . S
C3111 H3095 0.959 . S
C3111 H3096 0.959 . S
C3111 H3097 0.961 . S
C3111 C3110 1.502 . S
C3112 H3098 0.960 . S
C3112 H3099 0.961 . S
C3112 H3100 0.959 . S
C3112 C3110 1.561 . S
C3113 C3110 1.526 . S
C3113 C3114 1.396 . S
C3113 C3118 1.390 . S
C3114 C3108 1.465 . S
C3114 C3113 1.396 . S
C3114 C3115 1.399 . S
C3115 H3101 0.929 . S
C3115 C3114 1.399 . S
C3115 C3116 1.385 . S
C3116 H3102 0.931 . S
C3116 C3115 1.385 . S
C3116 C3117 1.389 . S
C3117 C3116 1.389 . S
C3117 C3118 1.387 . S
C3118 H3103 0.930 . S
C3118 C3113 1.390 . S
C3118 C3117 1.387 . S
H3119 C3131 0.930 . S
H3120 C3133 0.930 . S
H3121 C3134 0.930 . S
H3122 C3138 0.959 . S
H3123 C3138 0.959 . S
H3124 C3138 0.961 . S
H3125 C3139 0.960 . S
H3126 C3139 0.961 . S
H3127 C3139 0.959 . S
H3128 C3142 0.929 . S
H3129 C3143 0.931 . S
H3130 C3145 0.930 . S
C3131 H3119 0.930 . S
C3131 C3132 1.399 . S
C3131 C3136 1.399 . S
C3132 C3131 1.399 . S
C3132 C3133 1.376 . S
C3133 H3120 0.930 . S
C3133 C3132 1.376 . S
C3133 C3134 1.388 . S
C3134 H3121 0.930 . S
C3134 C3133 1.388 . S
C3134 C3135 1.390 . S
C3135 C3134 1.390 . S
C3135 C3136 1.394 . S
C3135 C3141 1.465 . S
C3136 C3131 1.399 . S
C3136 C3135 1.394 . S
C3136 C3137 1.516 . S
C3137 C3136 1.516 . S
C3137 C3138 1.502 . S
C3137 C3139 1.561 . S
C3137 C3140 1.526 . S
C3138 H3122 0.959 . S
C3138 H3123 0.959 . S
C3138 H3124 0.961 . S
C3138 C3137 1.502 . S
C3139 H3125 0.960 . S
C3139 H3126 0.961 . S
C3139 H3127 0.959 . S
C3139 C3137 1.561 . S
C3140 C3137 1.526 . S
C3140 C3141 1.396 . S
C3140 C3145 1.390 . S
C3141 C3135 1.465 . S
C3141 C3140 1.396 . S
C3141 C3142 1.399 . S
C3142 H3128 0.929 . S
C3142 C3141 1.399 . S
C3142 C3143 1.385 . S
C3143 H3129 0.931 . S
C3143 C3142 1.385 . S
C3143 C3144 1.389 . S
C3144 C3143 1.389 . S
C3144 C3145 1.387 . S
C3145 H3130 0.930 . S
C3145 C3140 1.390 . S
C3145 C3144 1.387 . S
H3146 C3158 0.930 . S
H3147 C3160 0.930 . S
H3148 C3161 0.930 . S
H3149 C3165 0.959 . S
H3150 C3165 0.959 . S
H3151 C3165 0.961 . S
H3152 C3166 0.960 . S
H3153 C3166 0.961 . S
H3154 C3166 0.959 . S
H3155 C3169 0.929 . S
H3156 C3170 0.931 . S
H3157 C3172 0.930 . S
C3158 H3146 0.930 . S
C3158 C3159 1.399 . S
C3158 C3163 1.399 . S
C3159 C3158 1.399 . S
C3159 C3160 1.376 . S
C3160 H3147 0.930 . S
C3160 C3159 1.376 . S
C3160 C3161 1.388 . S
C3161 H3148 0.930 . S
C3161 C3160 1.388 . S
C3161 C3162 1.390 . S
C3162 C3161 1.390 . S
C3162 C3163 1.394 . S
C3162 C3168 1.465 . S
C3163 C3158 1.399 . S
C3163 C3162 1.394 . S
C3163 C3164 1.516 . S
C3164 C3163 1.516 . S
C3164 C3165 1.502 . S
C3164 C3166 1.561 . S
C3164 C3167 1.526 . S
C3165 H3149 0.959 . S
C3165 H3150 0.959 . S
C3165 H3151 0.961 . S
C3165 C3164 1.502 . S
C3166 H3152 0.960 . S
C3166 H3153 0.961 . S
C3166 H3154 0.959 . S
C3166 C3164 1.561 . S
C3167 C3164 1.526 . S
C3167 C3168 1.396 . S
C3167 C3172 1.390 . S
C3168 C3162 1.465 . S
C3168 C3167 1.396 . S
C3168 C3169 1.399 . S
C3169 H3155 0.929 . S
C3169 C3168 1.399 . S
C3169 C3170 1.385 . S
C3170 H3156 0.931 . S
C3170 C3169 1.385 . S
C3170 C3171 1.389 . S
C3171 C3170 1.389 . S
C3171 C3172 1.387 . S
C3172 H3157 0.930 . S
C3172 C3167 1.390 . S
C3172 C3171 1.387 . S
H3173 C3185 0.930 . S
H3174 C3187 0.930 . S
H3175 C3188 0.930 . S
H3176 C3192 0.959 . S
H3177 C3192 0.959 . S
H3178 C3192 0.961 . S
H3179 C3193 0.960 . S
H3180 C3193 0.961 . S
H3181 C3193 0.959 . S
H3182 C3196 0.929 . S
H3183 C3197 0.931 . S
H3184 C3199 0.930 . S
C3185 H3173 0.930 . S
C3185 C3186 1.399 . S
C3185 C3190 1.399 . S
C3186 C3185 1.399 . S
C3186 C3187 1.376 . S
C3187 H3174 0.930 . S
C3187 C3186 1.376 . S
C3187 C3188 1.388 . S
C3188 H3175 0.930 . S
C3188 C3187 1.388 . S
C3188 C3189 1.390 . S
C3189 C3188 1.390 . S
C3189 C3190 1.394 . S
C3189 C3195 1.465 . S
C3190 C3185 1.399 . S
C3190 C3189 1.394 . S
C3190 C3191 1.516 . S
C3191 C3190 1.516 . S
C3191 C3192 1.502 . S
C3191 C3193 1.561 . S
C3191 C3194 1.526 . S
C3192 H3176 0.959 . S
C3192 H3177 0.959 . S
C3192 H3178 0.961 . S
C3192 C3191 1.502 . S
C3193 H3179 0.960 . S
C3193 H3180 0.961 . S
C3193 H3181 0.959 . S
C3193 C3191 1.561 . S
C3194 C3191 1.526 . S
C3194 C3195 1.396 . S
C3194 C3199 1.390 . S
C3195 C3189 1.465 . S
C3195 C3194 1.396 . S
C3195 C3196 1.399 . S
C3196 H3182 0.929 . S
C3196 C3195 1.399 . S
C3196 C3197 1.385 . S
C3197 H3183 0.931 . S
C3197 C3196 1.385 . S
C3197 C3198 1.389 . S
C3198 C3197 1.389 . S
C3198 C3199 1.387 . S
C3199 H3184 0.930 . S
C3199 C3194 1.390 . S
C3199 C3198 1.387 . S
H3200 C3212 0.930 . S
H3201 C3214 0.930 . S
H3202 C3215 0.930 . S
H3203 C3219 0.959 . S
H3204 C3219 0.959 . S
H3205 C3219 0.961 . S
H3206 C3220 0.960 . S
H3207 C3220 0.961 . S
H3208 C3220 0.959 . S
H3209 C3223 0.929 . S
H3210 C3224 0.931 . S
H3211 C3226 0.930 . S
C3212 H3200 0.930 . S
C3212 C3213 1.399 . S
C3212 C3217 1.399 . S
C3213 C3212 1.399 . S
C3213 C3214 1.376 . S
C3214 H3201 0.930 . S
C3214 C3213 1.376 . S
C3214 C3215 1.388 . S
C3215 H3202 0.930 . S
C3215 C3214 1.388 . S
C3215 C3216 1.390 . S
C3216 C3215 1.390 . S
C3216 C3217 1.394 . S
C3216 C3222 1.465 . S
C3217 C3212 1.399 . S
C3217 C3216 1.394 . S
C3217 C3218 1.516 . S
C3218 C3217 1.516 . S
C3218 C3219 1.502 . S
C3218 C3220 1.561 . S
C3218 C3221 1.526 . S
C3219 H3203 0.959 . S
C3219 H3204 0.959 . S
C3219 H3205 0.961 . S
C3219 C3218 1.502 . S
C3220 H3206 0.960 . S
C3220 H3207 0.961 . S
C3220 H3208 0.959 . S
C3220 C3218 1.561 . S
C3221 C3218 1.526 . S
C3221 C3222 1.396 . S
C3221 C3226 1.390 . S
C3222 C3216 1.465 . S
C3222 C3221 1.396 . S
C3222 C3223 1.399 . S
C3223 H3209 0.929 . S
C3223 C3222 1.399 . S
C3223 C3224 1.385 . S
C3224 H3210 0.931 . S
C3224 C3223 1.385 . S
C3224 C3225 1.389 . S
C3225 C3224 1.389 . S
C3225 C3226 1.387 . S
C3226 H3211 0.930 . S
C3226 C3221 1.390 . S
C3226 C3225 1.387 . S
H3227 C3239 0.930 . S
H3228 C3241 0.930 . S
H3229 C3242 0.930 . S
H3230 C3246 0.959 . S
H3231 C3246 0.959 . S
H3232 C3246 0.961 . S
H3233 C3247 0.960 . S
H3234 C3247 0.961 . S
H3235 C3247 0.959 . S
H3236 C3250 0.929 . S
H3237 C3251 0.931 . S
H3238 C3253 0.930 . S
C3239 H3227 0.930 . S
C3239 C3240 1.399 . S
C3239 C3244 1.399 . S
C3240 C3239 1.399 . S
C3240 C3241 1.376 . S
C3241 H3228 0.930 . S
C3241 C3240 1.376 . S
C3241 C3242 1.388 . S
C3242 H3229 0.930 . S
C3242 C3241 1.388 . S
C3242 C3243 1.390 . S
C3243 C3242 1.390 . S
C3243 C3244 1.394 . S
C3243 C3249 1.465 . S
C3244 C3239 1.399 . S
C3244 C3243 1.394 . S
C3244 C3245 1.516 . S
C3245 C3244 1.516 . S
C3245 C3246 1.502 . S
C3245 C3247 1.561 . S
C3245 C3248 1.526 . S
C3246 H3230 0.959 . S
C3246 H3231 0.959 . S
C3246 H3232 0.961 . S
C3246 C3245 1.502 . S
C3247 H3233 0.960 . S
C3247 H3234 0.961 . S
C3247 H3235 0.959 . S
C3247 C3245 1.561 . S
C3248 C3245 1.526 . S
C3248 C3249 1.396 . S
C3248 C3253 1.390 . S
C3249 C3243 1.465 . S
C3249 C3248 1.396 . S
C3249 C3250 1.399 . S
C3250 H3236 0.929 . S
C3250 C3249 1.399 . S
C3250 C3251 1.385 . S
C3251 H3237 0.931 . S
C3251 C3250 1.385 . S
C3251 C3252 1.389 . S
C3252 C3251 1.389 . S
C3252 C3253 1.387 . S
C3253 H3238 0.930 . S
C3253 C3248 1.390 . S
C3253 C3252 1.387 . S
H3254 C3266 0.930 . S
H3255 C3268 0.930 . S
H3256 C3269 0.930 . S
H3257 C3273 0.959 . S
H3258 C3273 0.959 . S
H3259 C3273 0.961 . S
H3260 C3274 0.960 . S
H3261 C3274 0.961 . S
H3262 C3274 0.959 . S
H3263 C3277 0.929 . S
H3264 C3278 0.931 . S
H3265 C3280 0.930 . S
C3266 H3254 0.930 . S
C3266 C3267 1.399 . S
C3266 C3271 1.399 . S
C3267 C3266 1.399 . S
C3267 C3268 1.376 . S
C3268 H3255 0.930 . S
C3268 C3267 1.376 . S
C3268 C3269 1.388 . S
C3269 H3256 0.930 . S
C3269 C3268 1.388 . S
C3269 C3270 1.390 . S
C3270 C3269 1.390 . S
C3270 C3271 1.394 . S
C3270 C3276 1.465 . S
C3271 C3266 1.399 . S
C3271 C3270 1.394 . S
C3271 C3272 1.516 . S
C3272 C3271 1.516 . S
C3272 C3273 1.502 . S
C3272 C3274 1.561 . S
C3272 C3275 1.526 . S
C3273 H3257 0.959 . S
C3273 H3258 0.959 . S
C3273 H3259 0.961 . S
C3273 C3272 1.502 . S
C3274 H3260 0.960 . S
C3274 H3261 0.961 . S
C3274 H3262 0.959 . S
C3274 C3272 1.561 . S
C3275 C3272 1.526 . S
C3275 C3276 1.396 . S
C3275 C3280 1.390 . S
C3276 C3270 1.465 . S
C3276 C3275 1.396 . S
C3276 C3277 1.399 . S
C3277 H3263 0.929 . S
C3277 C3276 1.399 . S
C3277 C3278 1.385 . S
C3278 H3264 0.931 . S
C3278 C3277 1.385 . S
C3278 C3279 1.389 . S
C3279 C3278 1.389 . S
C3279 C3280 1.387 . S
C3280 H3265 0.930 . S
C3280 C3275 1.390 . S
C3280 C3279 1.387 . S
H3281 C3293 0.930 . S
H3282 C3295 0.930 . S
H3283 C3296 0.930 . S
H3284 C3300 0.959 . S
H3285 C3300 0.959 . S
H3286 C3300 0.961 . S
H3287 C3301 0.960 . S
H3288 C3301 0.961 . S
H3289 C3301 0.959 . S
H3290 C3304 0.929 . S
H3291 C3305 0.931 . S
H3292 C3307 0.930 . S
C3293 H3281 0.930 . S
C3293 C3294 1.399 . S
C3293 C3298 1.399 . S
C3294 C3293 1.399 . S
C3294 C3295 1.376 . S
C3295 H3282 0.930 . S
C3295 C3294 1.376 . S
C3295 C3296 1.388 . S
C3296 H3283 0.930 . S
C3296 C3295 1.388 . S
C3296 C3297 1.390 . S
C3297 C3296 1.390 . S
C3297 C3298 1.394 . S
C3297 C3303 1.465 . S
C3298 C3293 1.399 . S
C3298 C3297 1.394 . S
C3298 C3299 1.516 . S
C3299 C3298 1.516 . S
C3299 C3300 1.502 . S
C3299 C3301 1.561 . S
C3299 C3302 1.526 . S
C3300 H3284 0.959 . S
C3300 H3285 0.959 . S
C3300 H3286 0.961 . S
C3300 C3299 1.502 . S
C3301 H3287 0.960 . S
C3301 H3288 0.961 . S
C3301 H3289 0.959 . S
C3301 C3299 1.561 . S
C3302 C3299 1.526 . S
C3302 C3303 1.396 . S
C3302 C3307 1.390 . S
C3303 C3297 1.465 . S
C3303 C3302 1.396 . S
C3303 C3304 1.399 . S
C3304 H3290 0.929 . S
C3304 C3303 1.399 . S
C3304 C3305 1.385 . S
C3305 H3291 0.931 . S
C3305 C3304 1.385 . S
C3305 C3306 1.389 . S
C3306 C3305 1.389 . S
C3306 C3307 1.387 . S
C3307 H3292 0.930 . S
C3307 C3302 1.390 . S
C3307 C3306 1.387 . S
H3308 C3320 0.930 . S
H3309 C3322 0.930 . S
H3310 C3323 0.930 . S
H3311 C3327 0.959 . S
H3312 C3327 0.959 . S
H3313 C3327 0.961 . S
H3314 C3328 0.960 . S
H3315 C3328 0.961 . S
H3316 C3328 0.959 . S
H3317 C3331 0.929 . S
H3318 C3332 0.931 . S
H3319 C3334 0.930 . S
C3320 H3308 0.930 . S
C3320 C3321 1.399 . S
C3320 C3325 1.399 . S
C3321 C3320 1.399 . S
C3321 C3322 1.376 . S
C3322 H3309 0.930 . S
C3322 C3321 1.376 . S
C3322 C3323 1.388 . S
C3323 H3310 0.930 . S
C3323 C3322 1.388 . S
C3323 C3324 1.390 . S
C3324 C3323 1.390 . S
C3324 C3325 1.394 . S
C3324 C3330 1.465 . S
C3325 C3320 1.399 . S
C3325 C3324 1.394 . S
C3325 C3326 1.516 . S
C3326 C3325 1.516 . S
C3326 C3327 1.502 . S
C3326 C3328 1.561 . S
C3326 C3329 1.526 . S
C3327 H3311 0.959 . S
C3327 H3312 0.959 . S
C3327 H3313 0.961 . S
C3327 C3326 1.502 . S
C3328 H3314 0.960 . S
C3328 H3315 0.961 . S
C3328 H3316 0.959 . S
C3328 C3326 1.561 . S
C3329 C3326 1.526 . S
C3329 C3330 1.396 . S
C3329 C3334 1.390 . S
C3330 C3324 1.465 . S
C3330 C3329 1.396 . S
C3330 C3331 1.399 . S
C3331 H3317 0.929 . S
C3331 C3330 1.399 . S
C3331 C3332 1.385 . S
C3332 H3318 0.931 . S
C3332 C3331 1.385 . S
C3332 C3333 1.389 . S
C3333 C3332 1.389 . S
C3333 C3334 1.387 . S
C3334 H3319 0.930 . S
C3334 C3329 1.390 . S
C3334 C3333 1.387 . S
H3335 C3347 0.930 . S
H3336 C3349 0.930 . S
H3337 C3350 0.930 . S
H3338 C3354 0.959 . S
H3339 C3354 0.959 . S
H3340 C3354 0.961 . S
H3341 C3355 0.960 . S
H3342 C3355 0.961 . S
H3343 C3355 0.959 . S
H3344 C3358 0.929 . S
H3345 C3359 0.931 . S
H3346 C3361 0.930 . S
C3347 H3335 0.930 . S
C3347 C3348 1.399 . S
C3347 C3352 1.399 . S
C3348 C3347 1.399 . S
C3348 C3349 1.376 . S
C3349 H3336 0.930 . S
C3349 C3348 1.376 . S
C3349 C3350 1.388 . S
C3350 H3337 0.930 . S
C3350 C3349 1.388 . S
C3350 C3351 1.390 . S
C3351 C3350 1.390 . S
C3351 C3352 1.394 . S
C3351 C3357 1.465 . S
C3352 C3347 1.399 . S
C3352 C3351 1.394 . S
C3352 C3353 1.516 . S
C3353 C3352 1.516 . S
C3353 C3354 1.502 . S
C3353 C3355 1.561 . S
C3353 C3356 1.526 . S
C3354 H3338 0.959 . S
C3354 H3339 0.959 . S
C3354 H3340 0.961 . S
C3354 C3353 1.502 . S
C3355 H3341 0.960 . S
C3355 H3342 0.961 . S
C3355 H3343 0.959 . S
C3355 C3353 1.561 . S
C3356 C3353 1.526 . S
C3356 C3357 1.396 . S
C3356 C3361 1.390 . S
C3357 C3351 1.465 . S
C3357 C3356 1.396 . S
C3357 C3358 1.399 . S
C3358 H3344 0.929 . S
C3358 C3357 1.399 . S
C3358 C3359 1.385 . S
C3359 H3345 0.931 . S
C3359 C3358 1.385 . S
C3359 C3360 1.389 . S
C3360 C3359 1.389 . S
C3360 C3361 1.387 . S
C3361 H3346 0.930 . S
C3361 C3356 1.390 . S
C3361 C3360 1.387 . S
H3362 C3374 0.930 . S
H3363 C3376 0.930 . S
H3364 C3377 0.930 . S
H3365 C3381 0.959 . S
H3366 C3381 0.959 . S
H3367 C3381 0.961 . S
H3368 C3382 0.960 . S
H3369 C3382 0.961 . S
H3370 C3382 0.959 . S
H3371 C3385 0.929 . S
H3372 C3386 0.931 . S
H3373 C3388 0.930 . S
C3374 H3362 0.930 . S
C3374 C3375 1.399 . S
C3374 C3379 1.399 . S
C3375 C3374 1.399 . S
C3375 C3376 1.376 . S
C3376 H3363 0.930 . S
C3376 C3375 1.376 . S
C3376 C3377 1.388 . S
C3377 H3364 0.930 . S
C3377 C3376 1.388 . S
C3377 C3378 1.390 . S
C3378 C3377 1.390 . S
C3378 C3379 1.394 . S
C3378 C3384 1.465 . S
C3379 C3374 1.399 . S
C3379 C3378 1.394 . S
C3379 C3380 1.516 . S
C3380 C3379 1.516 . S
C3380 C3381 1.502 . S
C3380 C3382 1.561 . S
C3380 C3383 1.526 . S
C3381 H3365 0.959 . S
C3381 H3366 0.959 . S
C3381 H3367 0.961 . S
C3381 C3380 1.502 . S
C3382 H3368 0.960 . S
C3382 H3369 0.961 . S
C3382 H3370 0.959 . S
C3382 C3380 1.561 . S
C3383 C3380 1.526 . S
C3383 C3384 1.396 . S
C3383 C3388 1.390 . S
C3384 C3378 1.465 . S
C3384 C3383 1.396 . S
C3384 C3385 1.399 . S
C3385 H3371 0.929 . S
C3385 C3384 1.399 . S
C3385 C3386 1.385 . S
C3386 H3372 0.931 . S
C3386 C3385 1.385 . S
C3386 C3387 1.389 . S
C3387 C3386 1.389 . S
C3387 C3388 1.387 . S
C3388 H3373 0.930 . S
C3388 C3383 1.390 . S
C3388 C3387 1.387 . S
H3389 C3401 0.930 . S
H3390 C3403 0.930 . S
H3391 C3404 0.930 . S
H3392 C3408 0.959 . S
H3393 C3408 0.959 . S
H3394 C3408 0.961 . S
H3395 C3409 0.960 . S
H3396 C3409 0.961 . S
H3397 C3409 0.959 . S
H3398 C3412 0.929 . S
H3399 C3413 0.931 . S
H3400 C3415 0.930 . S
C3401 H3389 0.930 . S
C3401 C3402 1.399 . S
C3401 C3406 1.399 . S
C3402 C3401 1.399 . S
C3402 C3403 1.376 . S
C3403 H3390 0.930 . S
C3403 C3402 1.376 . S
C3403 C3404 1.388 . S
C3404 H3391 0.930 . S
C3404 C3403 1.388 . S
C3404 C3405 1.390 . S
C3405 C3404 1.390 . S
C3405 C3406 1.394 . S
C3405 C3411 1.465 . S
C3406 C3401 1.399 . S
C3406 C3405 1.394 . S
C3406 C3407 1.516 . S
C3407 C3406 1.516 . S
C3407 C3408 1.502 . S
C3407 C3409 1.561 . S
C3407 C3410 1.526 . S
C3408 H3392 0.959 . S
C3408 H3393 0.959 . S
C3408 H3394 0.961 . S
C3408 C3407 1.502 . S
C3409 H3395 0.960 . S
C3409 H3396 0.961 . S
C3409 H3397 0.959 . S
C3409 C3407 1.561 . S
C3410 C3407 1.526 . S
C3410 C3411 1.396 . S
C3410 C3415 1.390 . S
C3411 C3405 1.465 . S
C3411 C3410 1.396 . S
C3411 C3412 1.399 . S
C3412 H3398 0.929 . S
C3412 C3411 1.399 . S
C3412 C3413 1.385 . S
C3413 H3399 0.931 . S
C3413 C3412 1.385 . S
C3413 C3414 1.389 . S
C3414 C3413 1.389 . S
C3414 C3415 1.387 . S
C3415 H3400 0.930 . S
C3415 C3410 1.390 . S
C3415 C3414 1.387 . S
H3416 C3428 0.930 . S
H3417 C3430 0.930 . S
H3418 C3431 0.930 . S
H3419 C3435 0.959 . S
H3420 C3435 0.959 . S
H3421 C3435 0.961 . S
H3422 C3436 0.960 . S
H3423 C3436 0.961 . S
H3424 C3436 0.959 . S
H3425 C3439 0.929 . S
H3426 C3440 0.931 . S
H3427 C3442 0.930 . S
C3428 H3416 0.930 . S
C3428 C3429 1.399 . S
C3428 C3433 1.399 . S
C3429 C3428 1.399 . S
C3429 C3430 1.376 . S
C3430 H3417 0.930 . S
C3430 C3429 1.376 . S
C3430 C3431 1.388 . S
C3431 H3418 0.930 . S
C3431 C3430 1.388 . S
C3431 C3432 1.390 . S
C3432 C3431 1.390 . S
C3432 C3433 1.394 . S
C3432 C3438 1.465 . S
C3433 C3428 1.399 . S
C3433 C3432 1.394 . S
C3433 C3434 1.516 . S
C3434 C3433 1.516 . S
C3434 C3435 1.502 . S
C3434 C3436 1.561 . S
C3434 C3437 1.526 . S
C3435 H3419 0.959 . S
C3435 H3420 0.959 . S
C3435 H3421 0.961 . S
C3435 C3434 1.502 . S
C3436 H3422 0.960 . S
C3436 H3423 0.961 . S
C3436 H3424 0.959 . S
C3436 C3434 1.561 . S
C3437 C3434 1.526 . S
C3437 C3438 1.396 . S
C3437 C3442 1.390 . S
C3438 C3432 1.465 . S
C3438 C3437 1.396 . S
C3438 C3439 1.399 . S
C3439 H3425 0.929 . S
C3439 C3438 1.399 . S
C3439 C3440 1.385 . S
C3440 H3426 0.931 . S
C3440 C3439 1.385 . S
C3440 C3441 1.389 . S
C3441 C3440 1.389 . S
C3441 C3442 1.387 . S
C3442 H3427 0.930 . S
C3442 C3437 1.390 . S
C3442 C3441 1.387 . S
H3443 C3455 0.930 . S
H3444 C3457 0.930 . S
H3445 C3458 0.930 . S
H3446 C3462 0.959 . S
H3447 C3462 0.959 . S
H3448 C3462 0.961 . S
H3449 C3463 0.960 . S
H3450 C3463 0.961 . S
H3451 C3463 0.959 . S
H3452 C3466 0.929 . S
H3453 C3467 0.931 . S
H3454 C3469 0.930 . S
C3455 H3443 0.930 . S
C3455 C3456 1.399 . S
C3455 C3460 1.399 . S
C3456 C3455 1.399 . S
C3456 C3457 1.376 . S
C3457 H3444 0.930 . S
C3457 C3456 1.376 . S
C3457 C3458 1.388 . S
C3458 H3445 0.930 . S
C3458 C3457 1.388 . S
C3458 C3459 1.390 . S
C3459 C3458 1.390 . S
C3459 C3460 1.394 . S
C3459 C3465 1.465 . S
C3460 C3455 1.399 . S
C3460 C3459 1.394 . S
C3460 C3461 1.516 . S
C3461 C3460 1.516 . S
C3461 C3462 1.502 . S
C3461 C3463 1.561 . S
C3461 C3464 1.526 . S
C3462 H3446 0.959 . S
C3462 H3447 0.959 . S
C3462 H3448 0.961 . S
C3462 C3461 1.502 . S
C3463 H3449 0.960 . S
C3463 H3450 0.961 . S
C3463 H3451 0.959 . S
C3463 C3461 1.561 . S
C3464 C3461 1.526 . S
C3464 C3465 1.396 . S
C3464 C3469 1.390 . S
C3465 C3459 1.465 . S
C3465 C3464 1.396 . S
C3465 C3466 1.399 . S
C3466 H3452 0.929 . S
C3466 C3465 1.399 . S
C3466 C3467 1.385 . S
C3467 H3453 0.931 . S
C3467 C3466 1.385 . S
C3467 C3468 1.389 . S
C3468 C3467 1.389 . S
C3468 C3469 1.387 . S
C3469 H3454 0.930 . S
C3469 C3464 1.390 . S
C3469 C3468 1.387 . S
H3470 C3482 0.930 . S
H3471 C3484 0.930 . S
H3472 C3485 0.930 . S
H3473 C3489 0.959 . S
H3474 C3489 0.959 . S
H3475 C3489 0.961 . S
H3476 C3490 0.960 . S
H3477 C3490 0.961 . S
H3478 C3490 0.959 . S
H3479 C3493 0.929 . S
H3480 C3494 0.931 . S
H3481 C3496 0.930 . S
C3482 H3470 0.930 . S
C3482 C3483 1.399 . S
C3482 C3487 1.399 . S
C3483 C3482 1.399 . S
C3483 C3484 1.376 . S
C3484 H3471 0.930 . S
C3484 C3483 1.376 . S
C3484 C3485 1.388 . S
C3485 H3472 0.930 . S
C3485 C3484 1.388 . S
C3485 C3486 1.390 . S
C3486 C3485 1.390 . S
C3486 C3487 1.394 . S
C3486 C3492 1.465 . S
C3487 C3482 1.399 . S
C3487 C3486 1.394 . S
C3487 C3488 1.516 . S
C3488 C3487 1.516 . S
C3488 C3489 1.502 . S
C3488 C3490 1.561 . S
C3488 C3491 1.526 . S
C3489 H3473 0.959 . S
C3489 H3474 0.959 . S
C3489 H3475 0.961 . S
C3489 C3488 1.502 . S
C3490 H3476 0.960 . S
C3490 H3477 0.961 . S
C3490 H3478 0.959 . S
C3490 C3488 1.561 . S
C3491 C3488 1.526 . S
C3491 C3492 1.396 . S
C3491 C3496 1.390 . S
C3492 C3486 1.465 . S
C3492 C3491 1.396 . S
C3492 C3493 1.399 . S
C3493 H3479 0.929 . S
C3493 C3492 1.399 . S
C3493 C3494 1.385 . S
C3494 H3480 0.931 . S
C3494 C3493 1.385 . S
C3494 C3495 1.389 . S
C3495 C3494 1.389 . S
C3495 C3496 1.387 . S
C3496 H3481 0.930 . S
C3496 C3491 1.390 . S
C3496 C3495 1.387 . S
H3497 C3509 0.930 . S
H3498 C3511 0.930 . S
H3499 C3512 0.930 . S
H3500 C3516 0.959 . S
H3501 C3516 0.959 . S
H3502 C3516 0.961 . S
H3503 C3517 0.960 . S
H3504 C3517 0.961 . S
H3505 C3517 0.959 . S
H3506 C3520 0.929 . S
H3507 C3521 0.931 . S
H3508 C3523 0.930 . S
C3509 H3497 0.930 . S
C3509 C3510 1.399 . S
C3509 C3514 1.399 . S
C3510 C3509 1.399 . S
C3510 C3511 1.376 . S
C3511 H3498 0.930 . S
C3511 C3510 1.376 . S
C3511 C3512 1.388 . S
C3512 H3499 0.930 . S
C3512 C3511 1.388 . S
C3512 C3513 1.390 . S
C3513 C3512 1.390 . S
C3513 C3514 1.394 . S
C3513 C3519 1.465 . S
C3514 C3509 1.399 . S
C3514 C3513 1.394 . S
C3514 C3515 1.516 . S
C3515 C3514 1.516 . S
C3515 C3516 1.502 . S
C3515 C3517 1.561 . S
C3515 C3518 1.526 . S
C3516 H3500 0.959 . S
C3516 H3501 0.959 . S
C3516 H3502 0.961 . S
C3516 C3515 1.502 . S
C3517 H3503 0.960 . S
C3517 H3504 0.961 . S
C3517 H3505 0.959 . S
C3517 C3515 1.561 . S
C3518 C3515 1.526 . S
C3518 C3519 1.396 . S
C3518 C3523 1.390 . S
C3519 C3513 1.465 . S
C3519 C3518 1.396 . S
C3519 C3520 1.399 . S
C3520 H3506 0.929 . S
C3520 C3519 1.399 . S
C3520 C3521 1.385 . S
C3521 H3507 0.931 . S
C3521 C3520 1.385 . S
C3521 C3522 1.389 . S
C3522 C3521 1.389 . S
C3522 C3523 1.387 . S
C3523 H3508 0.930 . S
C3523 C3518 1.390 . S
C3523 C3522 1.387 . S
H3524 C3536 0.930 . S
H3525 C3538 0.930 . S
H3526 C3539 0.930 . S
H3527 C3543 0.959 . S
H3528 C3543 0.959 . S
H3529 C3543 0.961 . S
H3530 C3544 0.960 . S
H3531 C3544 0.961 . S
H3532 C3544 0.959 . S
H3533 C3547 0.929 . S
H3534 C3548 0.931 . S
H3535 C3550 0.930 . S
C3536 H3524 0.930 . S
C3536 C3537 1.399 . S
C3536 C3541 1.399 . S
C3537 C3536 1.399 . S
C3537 C3538 1.376 . S
C3538 H3525 0.930 . S
C3538 C3537 1.376 . S
C3538 C3539 1.388 . S
C3539 H3526 0.930 . S
C3539 C3538 1.388 . S
C3539 C3540 1.390 . S
C3540 C3539 1.390 . S
C3540 C3541 1.394 . S
C3540 C3546 1.465 . S
C3541 C3536 1.399 . S
C3541 C3540 1.394 . S
C3541 C3542 1.516 . S
C3542 C3541 1.516 . S
C3542 C3543 1.502 . S
C3542 C3544 1.561 . S
C3542 C3545 1.526 . S
C3543 H3527 0.959 . S
C3543 H3528 0.959 . S
C3543 H3529 0.961 . S
C3543 C3542 1.502 . S
C3544 H3530 0.960 . S
C3544 H3531 0.961 . S
C3544 H3532 0.959 . S
C3544 C3542 1.561 . S
C3545 C3542 1.526 . S
C3545 C3546 1.396 . S
C3545 C3550 1.390 . S
C3546 C3540 1.465 . S
C3546 C3545 1.396 . S
C3546 C3547 1.399 . S
C3547 H3533 0.929 . S
C3547 C3546 1.399 . S
C3547 C3548 1.385 . S
C3548 H3534 0.931 . S
C3548 C3547 1.385 . S
C3548 C3549 1.389 . S
C3549 C3548 1.389 . S
C3549 C3550 1.387 . S
C3550 H3535 0.930 . S
C3550 C3545 1.390 . S
C3550 C3549 1.387 . S
H3551 C3563 0.930 . S
H3552 C3565 0.930 . S
H3553 C3566 0.930 . S
H3554 C3570 0.959 . S
H3555 C3570 0.959 . S
H3556 C3570 0.961 . S
H3557 C3571 0.960 . S
H3558 C3571 0.961 . S
H3559 C3571 0.959 . S
H3560 C3574 0.929 . S
H3561 C3575 0.931 . S
H3562 C3577 0.930 . S
C3563 H3551 0.930 . S
C3563 C3564 1.399 . S
C3563 C3568 1.399 . S
C3564 C3563 1.399 . S
C3564 C3565 1.376 . S
C3565 H3552 0.930 . S
C3565 C3564 1.376 . S
C3565 C3566 1.388 . S
C3566 H3553 0.930 . S
C3566 C3565 1.388 . S
C3566 C3567 1.390 . S
C3567 C3566 1.390 . S
C3567 C3568 1.394 . S
C3567 C3573 1.465 . S
C3568 C3563 1.399 . S
C3568 C3567 1.394 . S
C3568 C3569 1.516 . S
C3569 C3568 1.516 . S
C3569 C3570 1.502 . S
C3569 C3571 1.561 . S
C3569 C3572 1.526 . S
C3570 H3554 0.959 . S
C3570 H3555 0.959 . S
C3570 H3556 0.961 . S
C3570 C3569 1.502 . S
C3571 H3557 0.960 . S
C3571 H3558 0.961 . S
C3571 H3559 0.959 . S
C3571 C3569 1.561 . S
C3572 C3569 1.526 . S
C3572 C3573 1.396 . S
C3572 C3577 1.390 . S
C3573 C3567 1.465 . S
C3573 C3572 1.396 . S
C3573 C3574 1.399 . S
C3574 H3560 0.929 . S
C3574 C3573 1.399 . S
C3574 C3575 1.385 . S
C3575 H3561 0.931 . S
C3575 C3574 1.385 . S
C3575 C3576 1.389 . S
C3576 C3575 1.389 . S
C3576 C3577 1.387 . S
C3577 H3562 0.930 . S
C3577 C3572 1.390 . S
C3577 C3576 1.387 . S
H3578 C3590 0.930 . S
H3579 C3592 0.930 . S
H3580 C3593 0.930 . S
H3581 C3597 0.959 . S
H3582 C3597 0.959 . S
H3583 C3597 0.961 . S
H3584 C3598 0.960 . S
H3585 C3598 0.961 . S
H3586 C3598 0.959 . S
H3587 C3601 0.929 . S
H3588 C3602 0.931 . S
H3589 C3604 0.930 . S
C3590 H3578 0.930 . S
C3590 C3591 1.399 . S
C3590 C3595 1.399 . S
C3591 C3590 1.399 . S
C3591 C3592 1.376 . S
C3592 H3579 0.930 . S
C3592 C3591 1.376 . S
C3592 C3593 1.388 . S
C3593 H3580 0.930 . S
C3593 C3592 1.388 . S
C3593 C3594 1.390 . S
C3594 C3593 1.390 . S
C3594 C3595 1.394 . S
C3594 C3600 1.465 . S
C3595 C3590 1.399 . S
C3595 C3594 1.394 . S
C3595 C3596 1.516 . S
C3596 C3595 1.516 . S
C3596 C3597 1.502 . S
C3596 C3598 1.561 . S
C3596 C3599 1.526 . S
C3597 H3581 0.959 . S
C3597 H3582 0.959 . S
C3597 H3583 0.961 . S
C3597 C3596 1.502 . S
C3598 H3584 0.960 . S
C3598 H3585 0.961 . S
C3598 H3586 0.959 . S
C3598 C3596 1.561 . S
C3599 C3596 1.526 . S
C3599 C3600 1.396 . S
C3599 C3604 1.390 . S
C3600 C3594 1.465 . S
C3600 C3599 1.396 . S
C3600 C3601 1.399 . S
C3601 H3587 0.929 . S
C3601 C3600 1.399 . S
C3601 C3602 1.385 . S
C3602 H3588 0.931 . S
C3602 C3601 1.385 . S
C3602 C3603 1.389 . S
C3603 C3602 1.389 . S
C3603 C3604 1.387 . S
C3604 H3589 0.930 . S
C3604 C3599 1.390 . S
C3604 C3603 1.387 . S
H3605 C3617 0.930 . S
H3606 C3619 0.930 . S
H3607 C3620 0.930 . S
H3608 C3624 0.959 . S
H3609 C3624 0.959 . S
H3610 C3624 0.961 . S
H3611 C3625 0.960 . S
H3612 C3625 0.961 . S
H3613 C3625 0.959 . S
H3614 C3628 0.929 . S
H3615 C3629 0.931 . S
H3616 C3631 0.930 . S
C3617 H3605 0.930 . S
C3617 C3618 1.399 . S
C3617 C3622 1.399 . S
C3618 C3617 1.399 . S
C3618 C3619 1.376 . S
C3619 H3606 0.930 . S
C3619 C3618 1.376 . S
C3619 C3620 1.388 . S
C3620 H3607 0.930 . S
C3620 C3619 1.388 . S
C3620 C3621 1.390 . S
C3621 C3620 1.390 . S
C3621 C3622 1.394 . S
C3621 C3627 1.465 . S
C3622 C3617 1.399 . S
C3622 C3621 1.394 . S
C3622 C3623 1.516 . S
C3623 C3622 1.516 . S
C3623 C3624 1.502 . S
C3623 C3625 1.561 . S
C3623 C3626 1.526 . S
C3624 H3608 0.959 . S
C3624 H3609 0.959 . S
C3624 H3610 0.961 . S
C3624 C3623 1.502 . S
C3625 H3611 0.960 . S
C3625 H3612 0.961 . S
C3625 H3613 0.959 . S
C3625 C3623 1.561 . S
C3626 C3623 1.526 . S
C3626 C3627 1.396 . S
C3626 C3631 1.390 . S
C3627 C3621 1.465 . S
C3627 C3626 1.396 . S
C3627 C3628 1.399 . S
C3628 H3614 0.929 . S
C3628 C3627 1.399 . S
C3628 C3629 1.385 . S
C3629 H3615 0.931 . S
C3629 C3628 1.385 . S
C3629 C3630 1.389 . S
C3630 C3629 1.389 . S
C3630 C3631 1.387 . S
C3631 H3616 0.930 . S
C3631 C3626 1.390 . S
C3631 C3630 1.387 . S
H3632 C3644 0.930 . S
H3633 C3646 0.930 . S
H3634 C3647 0.930 . S
H3635 C3651 0.959 . S
H3636 C3651 0.959 . S
H3637 C3651 0.961 . S
H3638 C3652 0.960 . S
H3639 C3652 0.961 . S
H3640 C3652 0.959 . S
H3641 C3655 0.929 . S
H3642 C3656 0.931 . S
H3643 C3658 0.930 . S
C3644 H3632 0.930 . S
C3644 C3645 1.399 . S
C3644 C3649 1.399 . S
C3645 C3644 1.399 . S
C3645 C3646 1.376 . S
C3646 H3633 0.930 . S
C3646 C3645 1.376 . S
C3646 C3647 1.388 . S
C3647 H3634 0.930 . S
C3647 C3646 1.388 . S
C3647 C3648 1.390 . S
C3648 C3647 1.390 . S
C3648 C3649 1.394 . S
C3648 C3654 1.465 . S
C3649 C3644 1.399 . S
C3649 C3648 1.394 . S
C3649 C3650 1.516 . S
C3650 C3649 1.516 . S
C3650 C3651 1.502 . S
C3650 C3652 1.561 . S
C3650 C3653 1.526 . S
C3651 H3635 0.959 . S
C3651 H3636 0.959 . S
C3651 H3637 0.961 . S
C3651 C3650 1.502 . S
C3652 H3638 0.960 . S
C3652 H3639 0.961 . S
C3652 H3640 0.959 . S
C3652 C3650 1.561 . S
C3653 C3650 1.526 . S
C3653 C3654 1.396 . S
C3653 C3658 1.390 . S
C3654 C3648 1.465 . S
C3654 C3653 1.396 . S
C3654 C3655 1.399 . S
C3655 H3641 0.929 . S
C3655 C3654 1.399 . S
C3655 C3656 1.385 . S
C3656 H3642 0.931 . S
C3656 C3655 1.385 . S
C3656 C3657 1.389 . S
C3657 C3656 1.389 . S
C3657 C3658 1.387 . S
C3658 H3643 0.930 . S
C3658 C3653 1.390 . S
C3658 C3657 1.387 . S
H3659 C3671 0.930 . S
H3660 C3673 0.930 . S
H3661 C3674 0.930 . S
H3662 C3678 0.959 . S
H3663 C3678 0.959 . S
H3664 C3678 0.961 . S
H3665 C3679 0.960 . S
H3666 C3679 0.961 . S
H3667 C3679 0.959 . S
H3668 C3682 0.929 . S
H3669 C3683 0.931 . S
H3670 C3685 0.930 . S
C3671 H3659 0.930 . S
C3671 C3672 1.399 . S
C3671 C3676 1.399 . S
C3672 C3671 1.399 . S
C3672 C3673 1.376 . S
C3673 H3660 0.930 . S
C3673 C3672 1.376 . S
C3673 C3674 1.388 . S
C3674 H3661 0.930 . S
C3674 C3673 1.388 . S
C3674 C3675 1.390 . S
C3675 C3674 1.390 . S
C3675 C3676 1.394 . S
C3675 C3681 1.465 . S
C3676 C3671 1.399 . S
C3676 C3675 1.394 . S
C3676 C3677 1.516 . S
C3677 C3676 1.516 . S
C3677 C3678 1.502 . S
C3677 C3679 1.561 . S
C3677 C3680 1.526 . S
C3678 H3662 0.959 . S
C3678 H3663 0.959 . S
C3678 H3664 0.961 . S
C3678 C3677 1.502 . S
C3679 H3665 0.960 . S
C3679 H3666 0.961 . S
C3679 H3667 0.959 . S
C3679 C3677 1.561 . S
C3680 C3677 1.526 . S
C3680 C3681 1.396 . S
C3680 C3685 1.390 . S
C3681 C3675 1.465 . S
C3681 C3680 1.396 . S
C3681 C3682 1.399 . S
C3682 H3668 0.929 . S
C3682 C3681 1.399 . S
C3682 C3683 1.385 . S
C3683 H3669 0.931 . S
C3683 C3682 1.385 . S
C3683 C3684 1.389 . S
C3684 C3683 1.389 . S
C3684 C3685 1.387 . S
C3685 H3670 0.930 . S
C3685 C3680 1.390 . S
C3685 C3684 1.387 . S
H3686 C3698 0.930 . S
H3687 C3700 0.930 . S
H3688 C3701 0.930 . S
H3689 C3705 0.959 . S
H3690 C3705 0.959 . S
H3691 C3705 0.961 . S
H3692 C3706 0.960 . S
H3693 C3706 0.961 . S
H3694 C3706 0.959 . S
H3695 C3709 0.929 . S
H3696 C3710 0.931 . S
H3697 C3712 0.930 . S
C3698 H3686 0.930 . S
C3698 C3699 1.399 . S
C3698 C3703 1.399 . S
C3699 C3698 1.399 . S
C3699 C3700 1.376 . S
C3700 H3687 0.930 . S
C3700 C3699 1.376 . S
C3700 C3701 1.388 . S
C3701 H3688 0.930 . S
C3701 C3700 1.388 . S
C3701 C3702 1.390 . S
C3702 C3701 1.390 . S
C3702 C3703 1.394 . S
C3702 C3708 1.465 . S
C3703 C3698 1.399 . S
C3703 C3702 1.394 . S
C3703 C3704 1.516 . S
C3704 C3703 1.516 . S
C3704 C3705 1.502 . S
C3704 C3706 1.561 . S
C3704 C3707 1.526 . S
C3705 H3689 0.959 . S
C3705 H3690 0.959 . S
C3705 H3691 0.961 . S
C3705 C3704 1.502 . S
C3706 H3692 0.960 . S
C3706 H3693 0.961 . S
C3706 H3694 0.959 . S
C3706 C3704 1.561 . S
C3707 C3704 1.526 . S
C3707 C3708 1.396 . S
C3707 C3712 1.390 . S
C3708 C3702 1.465 . S
C3708 C3707 1.396 . S
C3708 C3709 1.399 . S
C3709 H3695 0.929 . S
C3709 C3708 1.399 . S
C3709 C3710 1.385 . S
C3710 H3696 0.931 . S
C3710 C3709 1.385 . S
C3710 C3711 1.389 . S
C3711 C3710 1.389 . S
C3711 C3712 1.387 . S
C3712 H3697 0.930 . S
C3712 C3707 1.390 . S
C3712 C3711 1.387 . S
H3713 C3725 0.930 . S
H3714 C3727 0.930 . S
H3715 C3728 0.930 . S
H3716 C3732 0.959 . S
H3717 C3732 0.959 . S
H3718 C3732 0.961 . S
H3719 C3733 0.960 . S
H3720 C3733 0.961 . S
H3721 C3733 0.959 . S
H3722 C3736 0.929 . S
H3723 C3737 0.931 . S
H3724 C3739 0.930 . S
C3725 H3713 0.930 . S
C3725 C3726 1.399 . S
C3725 C3730 1.399 . S
C3726 C3725 1.399 . S
C3726 C3727 1.376 . S
C3727 H3714 0.930 . S
C3727 C3726 1.376 . S
C3727 C3728 1.388 . S
C3728 H3715 0.930 . S
C3728 C3727 1.388 . S
C3728 C3729 1.390 . S
C3729 C3728 1.390 . S
C3729 C3730 1.394 . S
C3729 C3735 1.465 . S
C3730 C3725 1.399 . S
C3730 C3729 1.394 . S
C3730 C3731 1.516 . S
C3731 C3730 1.516 . S
C3731 C3732 1.502 . S
C3731 C3733 1.561 . S
C3731 C3734 1.526 . S
C3732 H3716 0.959 . S
C3732 H3717 0.959 . S
C3732 H3718 0.961 . S
C3732 C3731 1.502 . S
C3733 H3719 0.960 . S
C3733 H3720 0.961 . S
C3733 H3721 0.959 . S
C3733 C3731 1.561 . S
C3734 C3731 1.526 . S
C3734 C3735 1.396 . S
C3734 C3739 1.390 . S
C3735 C3729 1.465 . S
C3735 C3734 1.396 . S
C3735 C3736 1.399 . S
C3736 H3722 0.929 . S
C3736 C3735 1.399 . S
C3736 C3737 1.385 . S
C3737 H3723 0.931 . S
C3737 C3736 1.385 . S
C3737 C3738 1.389 . S
C3738 C3737 1.389 . S
C3738 C3739 1.387 . S
C3739 H3724 0.930 . S
C3739 C3734 1.390 . S
C3739 C3738 1.387 . S
H3740 C3752 0.930 . S
H3741 C3754 0.930 . S
H3742 C3755 0.930 . S
H3743 C3759 0.959 . S
H3744 C3759 0.959 . S
H3745 C3759 0.961 . S
H3746 C3760 0.960 . S
H3747 C3760 0.961 . S
H3748 C3760 0.959 . S
H3749 C3763 0.929 . S
H3750 C3764 0.931 . S
H3751 C3766 0.930 . S
C3752 H3740 0.930 . S
C3752 C3753 1.399 . S
C3752 C3757 1.399 . S
C3753 C3752 1.399 . S
C3753 C3754 1.376 . S
C3754 H3741 0.930 . S
C3754 C3753 1.376 . S
C3754 C3755 1.388 . S
C3755 H3742 0.930 . S
C3755 C3754 1.388 . S
C3755 C3756 1.390 . S
C3756 C3755 1.390 . S
C3756 C3757 1.394 . S
C3756 C3762 1.465 . S
C3757 C3752 1.399 . S
C3757 C3756 1.394 . S
C3757 C3758 1.516 . S
C3758 C3757 1.516 . S
C3758 C3759 1.502 . S
C3758 C3760 1.561 . S
C3758 C3761 1.526 . S
C3759 H3743 0.959 . S
C3759 H3744 0.959 . S
C3759 H3745 0.961 . S
C3759 C3758 1.502 . S
C3760 H3746 0.960 . S
C3760 H3747 0.961 . S
C3760 H3748 0.959 . S
C3760 C3758 1.561 . S
C3761 C3758 1.526 . S
C3761 C3762 1.396 . S
C3761 C3766 1.390 . S
C3762 C3756 1.465 . S
C3762 C3761 1.396 . S
C3762 C3763 1.399 . S
C3763 H3749 0.929 . S
C3763 C3762 1.399 . S
C3763 C3764 1.385 . S
C3764 H3750 0.931 . S
C3764 C3763 1.385 . S
C3764 C3765 1.389 . S
C3765 C3764 1.389 . S
C3765 C3766 1.387 . S
C3766 H3751 0.930 . S
C3766 C3761 1.390 . S
C3766 C3765 1.387 . S
H3767 C3779 0.930 . S
H3768 C3781 0.930 . S
H3769 C3782 0.930 . S
H3770 C3786 0.959 . S
H3771 C3786 0.959 . S
H3772 C3786 0.961 . S
H3773 C3787 0.960 . S
H3774 C3787 0.961 . S
H3775 C3787 0.959 . S
H3776 C3790 0.929 . S
H3777 C3791 0.931 . S
H3778 C3793 0.930 . S
C3779 H3767 0.930 . S
C3779 C3780 1.399 . S
C3779 C3784 1.399 . S
C3780 C3779 1.399 . S
C3780 C3781 1.376 . S
C3781 H3768 0.930 . S
C3781 C3780 1.376 . S
C3781 C3782 1.388 . S
C3782 H3769 0.930 . S
C3782 C3781 1.388 . S
C3782 C3783 1.390 . S
C3783 C3782 1.390 . S
C3783 C3784 1.394 . S
C3783 C3789 1.465 . S
C3784 C3779 1.399 . S
C3784 C3783 1.394 . S
C3784 C3785 1.516 . S
C3785 C3784 1.516 . S
C3785 C3786 1.502 . S
C3785 C3787 1.561 . S
C3785 C3788 1.526 . S
C3786 H3770 0.959 . S
C3786 H3771 0.959 . S
C3786 H3772 0.961 . S
C3786 C3785 1.502 . S
C3787 H3773 0.960 . S
C3787 H3774 0.961 . S
C3787 H3775 0.959 . S
C3787 C3785 1.561 . S
C3788 C3785 1.526 . S
C3788 C3789 1.396 . S
C3788 C3793 1.390 . S
C3789 C3783 1.465 . S
C3789 C3788 1.396 . S
C3789 C3790 1.399 . S
C3790 H3776 0.929 . S
C3790 C3789 1.399 . S
C3790 C3791 1.385 . S
C3791 H3777 0.931 . S
C3791 C3790 1.385 . S
C3791 C3792 1.389 . S
C3792 C3791 1.389 . S
C3792 C3793 1.387 . S
C3793 H3778 0.930 . S
C3793 C3788 1.390 . S
C3793 C3792 1.387 . S
H3794 C3806 0.930 . S
H3795 C3808 0.930 . S
H3796 C3809 0.930 . S
H3797 C3813 0.959 . S
H3798 C3813 0.959 . S
H3799 C3813 0.961 . S
H3800 C3814 0.960 . S
H3801 C3814 0.961 . S
H3802 C3814 0.959 . S
H3803 C3817 0.929 . S
H3804 C3818 0.931 . S
H3805 C3820 0.930 . S
C3806 H3794 0.930 . S
C3806 C3807 1.399 . S
C3806 C3811 1.399 . S
C3807 C3806 1.399 . S
C3807 C3808 1.376 . S
C3808 H3795 0.930 . S
C3808 C3807 1.376 . S
C3808 C3809 1.388 . S
C3809 H3796 0.930 . S
C3809 C3808 1.388 . S
C3809 C3810 1.390 . S
C3810 C3809 1.390 . S
C3810 C3811 1.394 . S
C3810 C3816 1.465 . S
C3811 C3806 1.399 . S
C3811 C3810 1.394 . S
C3811 C3812 1.516 . S
C3812 C3811 1.516 . S
C3812 C3813 1.502 . S
C3812 C3814 1.561 . S
C3812 C3815 1.526 . S
C3813 H3797 0.959 . S
C3813 H3798 0.959 . S
C3813 H3799 0.961 . S
C3813 C3812 1.502 . S
C3814 H3800 0.960 . S
C3814 H3801 0.961 . S
C3814 H3802 0.959 . S
C3814 C3812 1.561 . S
C3815 C3812 1.526 . S
C3815 C3816 1.396 . S
C3815 C3820 1.390 . S
C3816 C3810 1.465 . S
C3816 C3815 1.396 . S
C3816 C3817 1.399 . S
C3817 H3803 0.929 . S
C3817 C3816 1.399 . S
C3817 C3818 1.385 . S
C3818 H3804 0.931 . S
C3818 C3817 1.385 . S
C3818 C3819 1.389 . S
C3819 C3818 1.389 . S
C3819 C3820 1.387 . S
C3820 H3805 0.930 . S
C3820 C3815 1.390 . S
C3820 C3819 1.387 . S
H3821 C3833 0.930 . S
H3822 C3835 0.930 . S
H3823 C3836 0.930 . S
H3824 C3840 0.959 . S
H3825 C3840 0.959 . S
H3826 C3840 0.961 . S
H3827 C3841 0.960 . S
H3828 C3841 0.961 . S
H3829 C3841 0.959 . S
H3830 C3844 0.929 . S
H3831 C3845 0.931 . S
H3832 C3847 0.930 . S
C3833 H3821 0.930 . S
C3833 C3834 1.399 . S
C3833 C3838 1.399 . S
C3834 C3833 1.399 . S
C3834 C3835 1.376 . S
C3835 H3822 0.930 . S
C3835 C3834 1.376 . S
C3835 C3836 1.388 . S
C3836 H3823 0.930 . S
C3836 C3835 1.388 . S
C3836 C3837 1.390 . S
C3837 C3836 1.390 . S
C3837 C3838 1.394 . S
C3837 C3843 1.465 . S
C3838 C3833 1.399 . S
C3838 C3837 1.394 . S
C3838 C3839 1.516 . S
C3839 C3838 1.516 . S
C3839 C3840 1.502 . S
C3839 C3841 1.561 . S
C3839 C3842 1.526 . S
C3840 H3824 0.959 . S
C3840 H3825 0.959 . S
C3840 H3826 0.961 . S
C3840 C3839 1.502 . S
C3841 H3827 0.960 . S
C3841 H3828 0.961 . S
C3841 H3829 0.959 . S
C3841 C3839 1.561 . S
C3842 C3839 1.526 . S
C3842 C3843 1.396 . S
C3842 C3847 1.390 . S
C3843 C3837 1.465 . S
C3843 C3842 1.396 . S
C3843 C3844 1.399 . S
C3844 H3830 0.929 . S
C3844 C3843 1.399 . S
C3844 C3845 1.385 . S
C3845 H3831 0.931 . S
C3845 C3844 1.385 . S
C3845 C3846 1.389 . S
C3846 C3845 1.389 . S
C3846 C3847 1.387 . S
C3847 H3832 0.930 . S
C3847 C3842 1.390 . S
C3847 C3846 1.387 . S
H3848 C3860 0.930 . S
H3849 C3862 0.930 . S
H3850 C3863 0.930 . S
H3851 C3867 0.959 . S
H3852 C3867 0.959 . S
H3853 C3867 0.961 . S
H3854 C3868 0.960 . S
H3855 C3868 0.961 . S
H3856 C3868 0.959 . S
H3857 C3871 0.929 . S
H3858 C3872 0.931 . S
H3859 C3874 0.930 . S
C3860 H3848 0.930 . S
C3860 C3861 1.399 . S
C3860 C3865 1.399 . S
C3861 C3860 1.399 . S
C3861 C3862 1.376 . S
C3862 H3849 0.930 . S
C3862 C3861 1.376 . S
C3862 C3863 1.388 . S
C3863 H3850 0.930 . S
C3863 C3862 1.388 . S
C3863 C3864 1.390 . S
C3864 C3863 1.390 . S
C3864 C3865 1.394 . S
C3864 C3870 1.465 . S
C3865 C3860 1.399 . S
C3865 C3864 1.394 . S
C3865 C3866 1.516 . S
C3866 C3865 1.516 . S
C3866 C3867 1.502 . S
C3866 C3868 1.561 . S
C3866 C3869 1.526 . S
C3867 H3851 0.959 . S
C3867 H3852 0.959 . S
C3867 H3853 0.961 . S
C3867 C3866 1.502 . S
C3868 H3854 0.960 . S
C3868 H3855 0.961 . S
C3868 H3856 0.959 . S
C3868 C3866 1.561 . S
C3869 C3866 1.526 . S
C3869 C3870 1.396 . S
C3869 C3874 1.390 . S
C3870 C3864 1.465 . S
C3870 C3869 1.396 . S
C3870 C3871 1.399 . S
C3871 H3857 0.929 . S
C3871 C3870 1.399 . S
C3871 C3872 1.385 . S
C3872 H3858 0.931 . S
C3872 C3871 1.385 . S
C3872 C3873 1.389 . S
C3873 C3872 1.389 . S
C3873 C3874 1.387 . S
C3874 H3859 0.930 . S
C3874 C3869 1.390 . S
C3874 C3873 1.387 . S
H3875 C3887 0.930 . S
H3876 C3889 0.930 . S
H3877 C3890 0.930 . S
H3878 C3894 0.959 . S
H3879 C3894 0.959 . S
H3880 C3894 0.961 . S
H3881 C3895 0.960 . S
H3882 C3895 0.961 . S
H3883 C3895 0.959 . S
H3884 C3898 0.929 . S
H3885 C3899 0.931 . S
H3886 C3901 0.930 . S
C3887 H3875 0.930 . S
C3887 C3888 1.399 . S
C3887 C3892 1.399 . S
C3888 C3887 1.399 . S
C3888 C3889 1.376 . S
C3889 H3876 0.930 . S
C3889 C3888 1.376 . S
C3889 C3890 1.388 . S
C3890 H3877 0.930 . S
C3890 C3889 1.388 . S
C3890 C3891 1.390 . S
C3891 C3890 1.390 . S
C3891 C3892 1.394 . S
C3891 C3897 1.465 . S
C3892 C3887 1.399 . S
C3892 C3891 1.394 . S
C3892 C3893 1.516 . S
C3893 C3892 1.516 . S
C3893 C3894 1.502 . S
C3893 C3895 1.561 . S
C3893 C3896 1.526 . S
C3894 H3878 0.959 . S
C3894 H3879 0.959 . S
C3894 H3880 0.961 . S
C3894 C3893 1.502 . S
C3895 H3881 0.960 . S
C3895 H3882 0.961 . S
C3895 H3883 0.959 . S
C3895 C3893 1.561 . S
C3896 C3893 1.526 . S
C3896 C3897 1.396 . S
C3896 C3901 1.390 . S
C3897 C3891 1.465 . S
C3897 C3896 1.396 . S
C3897 C3898 1.399 . S
C3898 H3884 0.929 . S
C3898 C3897 1.399 . S
C3898 C3899 1.385 . S
C3899 H3885 0.931 . S
C3899 C3898 1.385 . S
C3899 C3900 1.389 . S
C3900 C3899 1.389 . S
C3900 C3901 1.387 . S
C3901 H3886 0.930 . S
C3901 C3896 1.390 . S
C3901 C3900 1.387 . S
H3902 C3914 0.930 . S
H3903 C3916 0.930 . S
H3904 C3917 0.930 . S
H3905 C3921 0.959 . S
H3906 C3921 0.959 . S
H3907 C3921 0.961 . S
H3908 C3922 0.960 . S
H3909 C3922 0.961 . S
H3910 C3922 0.959 . S
H3911 C3925 0.929 . S
H3912 C3926 0.931 . S
H3913 C3928 0.930 . S
C3914 H3902 0.930 . S
C3914 C3915 1.399 . S
C3914 C3919 1.399 . S
C3915 C3914 1.399 . S
C3915 C3916 1.376 . S
C3916 H3903 0.930 . S
C3916 C3915 1.376 . S
C3916 C3917 1.388 . S
C3917 H3904 0.930 . S
C3917 C3916 1.388 . S
C3917 C3918 1.390 . S
C3918 C3917 1.390 . S
C3918 C3919 1.394 . S
C3918 C3924 1.465 . S
C3919 C3914 1.399 . S
C3919 C3918 1.394 . S
C3919 C3920 1.516 . S
C3920 C3919 1.516 . S
C3920 C3921 1.502 . S
C3920 C3922 1.561 . S
C3920 C3923 1.526 . S
C3921 H3905 0.959 . S
C3921 H3906 0.959 . S
C3921 H3907 0.961 . S
C3921 C3920 1.502 . S
C3922 H3908 0.960 . S
C3922 H3909 0.961 . S
C3922 H3910 0.959 . S
C3922 C3920 1.561 . S
C3923 C3920 1.526 . S
C3923 C3924 1.396 . S
C3923 C3928 1.390 . S
C3924 C3918 1.465 . S
C3924 C3923 1.396 . S
C3924 C3925 1.399 . S
C3925 H3911 0.929 . S
C3925 C3924 1.399 . S
C3925 C3926 1.385 . S
C3926 H3912 0.931 . S
C3926 C3925 1.385 . S
C3926 C3927 1.389 . S
C3927 C3926 1.389 . S
C3927 C3928 1.387 . S
C3928 H3913 0.930 . S
C3928 C3923 1.390 . S
C3928 C3927 1.387 . S
H3929 C3941 0.930 . S
H3930 C3943 0.930 . S
H3931 C3944 0.930 . S
H3932 C3948 0.959 . S
H3933 C3948 0.959 . S
H3934 C3948 0.961 . S
H3935 C3949 0.960 . S
H3936 C3949 0.961 . S
H3937 C3949 0.959 . S
H3938 C3952 0.929 . S
H3939 C3953 0.931 . S
H3940 C3955 0.930 . S
C3941 H3929 0.930 . S
C3941 C3942 1.399 . S
C3941 C3946 1.399 . S
C3942 C3941 1.399 . S
C3942 C3943 1.376 . S
C3943 H3930 0.930 . S
C3943 C3942 1.376 . S
C3943 C3944 1.388 . S
C3944 H3931 0.930 . S
C3944 C3943 1.388 . S
C3944 C3945 1.390 . S
C3945 C3944 1.390 . S
C3945 C3946 1.394 . S
C3945 C3951 1.465 . S
C3946 C3941 1.399 . S
C3946 C3945 1.394 . S
C3946 C3947 1.516 . S
C3947 C3946 1.516 . S
C3947 C3948 1.502 . S
C3947 C3949 1.561 . S
C3947 C3950 1.526 . S
C3948 H3932 0.959 . S
C3948 H3933 0.959 . S
C3948 H3934 0.961 . S
C3948 C3947 1.502 . S
C3949 H3935 0.960 . S
C3949 H3936 0.961 . S
C3949 H3937 0.959 . S
C3949 C3947 1.561 . S
C3950 C3947 1.526 . S
C3950 C3951 1.396 . S
C3950 C3955 1.390 . S
C3951 C3945 1.465 . S
C3951 C3950 1.396 . S
C3951 C3952 1.399 . S
C3952 H3938 0.929 . S
C3952 C3951 1.399 . S
C3952 C3953 1.385 . S
C3953 H3939 0.931 . S
C3953 C3952 1.385 . S
C3953 C3954 1.389 . S
C3954 C3953 1.389 . S
C3954 C3955 1.387 . S
C3955 H3940 0.930 . S
C3955 C3950 1.390 . S
C3955 C3954 1.387 . S
H3956 C3968 0.930 . S
H3957 C3970 0.930 . S
H3958 C3971 0.930 . S
H3959 C3975 0.959 . S
H3960 C3975 0.959 . S
H3961 C3975 0.961 . S
H3962 C3976 0.960 . S
H3963 C3976 0.961 . S
H3964 C3976 0.959 . S
H3965 C3979 0.929 . S
H3966 C3980 0.931 . S
H3967 C3982 0.930 . S
C3968 H3956 0.930 . S
C3968 C3969 1.399 . S
C3968 C3973 1.399 . S
C3969 C3968 1.399 . S
C3969 C3970 1.376 . S
C3970 H3957 0.930 . S
C3970 C3969 1.376 . S
C3970 C3971 1.388 . S
C3971 H3958 0.930 . S
C3971 C3970 1.388 . S
C3971 C3972 1.390 . S
C3972 C3971 1.390 . S
C3972 C3973 1.394 . S
C3972 C3978 1.465 . S
C3973 C3968 1.399 . S
C3973 C3972 1.394 . S
C3973 C3974 1.516 . S
C3974 C3973 1.516 . S
C3974 C3975 1.502 . S
C3974 C3976 1.561 . S
C3974 C3977 1.526 . S
C3975 H3959 0.959 . S
C3975 H3960 0.959 . S
C3975 H3961 0.961 . S
C3975 C3974 1.502 . S
C3976 H3962 0.960 . S
C3976 H3963 0.961 . S
C3976 H3964 0.959 . S
C3976 C3974 1.561 . S
C3977 C3974 1.526 . S
C3977 C3978 1.396 . S
C3977 C3982 1.390 . S
C3978 C3972 1.465 . S
C3978 C3977 1.396 . S
C3978 C3979 1.399 . S
C3979 H3965 0.929 . S
C3979 C3978 1.399 . S
C3979 C3980 1.385 . S
C3980 H3966 0.931 . S
C3980 C3979 1.385 . S
C3980 C3981 1.389 . S
C3981 C3980 1.389 . S
C3981 C3982 1.387 . S
C3982 H3967 0.930 . S
C3982 C3977 1.390 . S
C3982 C3981 1.387 . S
H3983 C3995 0.930 . S
H3984 C3997 0.930 . S
H3985 C3998 0.930 . S
H3986 C4002 0.959 . S
H3987 C4002 0.959 . S
H3988 C4002 0.961 . S
H3989 C4003 0.960 . S
H3990 C4003 0.961 . S
H3991 C4003 0.959 . S
H3992 C4006 0.929 . S
H3993 C4007 0.931 . S
H3994 C4009 0.930 . S
C3995 H3983 0.930 . S
C3995 C3996 1.399 . S
C3995 C4000 1.399 . S
C3996 C3995 1.399 . S
C3996 C3997 1.376 . S
C3997 H3984 0.930 . S
C3997 C3996 1.376 . S
C3997 C3998 1.388 . S
C3998 H3985 0.930 . S
C3998 C3997 1.388 . S
C3998 C3999 1.390 . S
C3999 C3998 1.390 . S
C3999 C4000 1.394 . S
C3999 C4005 1.465 . S
C4000 C3995 1.399 . S
C4000 C3999 1.394 . S
C4000 C4001 1.516 . S
C4001 C4000 1.516 . S
C4001 C4002 1.502 . S
C4001 C4003 1.561 . S
C4001 C4004 1.526 . S
C4002 H3986 0.959 . S
C4002 H3987 0.959 . S
C4002 H3988 0.961 . S
C4002 C4001 1.502 . S
C4003 H3989 0.960 . S
C4003 H3990 0.961 . S
C4003 H3991 0.959 . S
C4003 C4001 1.561 . S
C4004 C4001 1.526 . S
C4004 C4005 1.396 . S
C4004 C4009 1.390 . S
C4005 C3999 1.465 . S
C4005 C4004 1.396 . S
C4005 C4006 1.399 . S
C4006 H3992 0.929 . S
C4006 C4005 1.399 . S
C4006 C4007 1.385 . S
C4007 H3993 0.931 . S
C4007 C4006 1.385 . S
C4007 C4008 1.389 . S
C4008 C4007 1.389 . S
C4008 C4009 1.387 . S
C4009 H3994 0.930 . S
C4009 C4004 1.390 . S
C4009 C4008 1.387 . S
H4010 C4022 0.930 . S
H4011 C4024 0.930 . S
H4012 C4025 0.930 . S
H4013 C4029 0.959 . S
H4014 C4029 0.959 . S
H4015 C4029 0.961 . S
H4016 C4030 0.960 . S
H4017 C4030 0.961 . S
H4018 C4030 0.959 . S
H4019 C4033 0.929 . S
H4020 C4034 0.931 . S
H4021 C4036 0.930 . S
C4022 H4010 0.930 . S
C4022 C4023 1.399 . S
C4022 C4027 1.399 . S
C4023 C4022 1.399 . S
C4023 C4024 1.376 . S
C4024 H4011 0.930 . S
C4024 C4023 1.376 . S
C4024 C4025 1.388 . S
C4025 H4012 0.930 . S
C4025 C4024 1.388 . S
C4025 C4026 1.390 . S
C4026 C4025 1.390 . S
C4026 C4027 1.394 . S
C4026 C4032 1.465 . S
C4027 C4022 1.399 . S
C4027 C4026 1.394 . S
C4027 C4028 1.516 . S
C4028 C4027 1.516 . S
C4028 C4029 1.502 . S
C4028 C4030 1.561 . S
C4028 C4031 1.526 . S
C4029 H4013 0.959 . S
C4029 H4014 0.959 . S
C4029 H4015 0.961 . S
C4029 C4028 1.502 . S
C4030 H4016 0.960 . S
C4030 H4017 0.961 . S
C4030 H4018 0.959 . S
C4030 C4028 1.561 . S
C4031 C4028 1.526 . S
C4031 C4032 1.396 . S
C4031 C4036 1.390 . S
C4032 C4026 1.465 . S
C4032 C4031 1.396 . S
C4032 C4033 1.399 . S
C4033 H4019 0.929 . S
C4033 C4032 1.399 . S
C4033 C4034 1.385 . S
C4034 H4020 0.931 . S
C4034 C4033 1.385 . S
C4034 C4035 1.389 . S
C4035 C4034 1.389 . S
C4035 C4036 1.387 . S
C4036 H4021 0.930 . S
C4036 C4031 1.390 . S
C4036 C4035 1.387 . S
H4037 C4049 0.930 . S
H4038 C4051 0.930 . S
H4039 C4052 0.930 . S
H4040 C4056 0.959 . S
H4041 C4056 0.959 . S
H4042 C4056 0.961 . S
H4043 C4057 0.960 . S
H4044 C4057 0.961 . S
H4045 C4057 0.959 . S
H4046 C4060 0.929 . S
H4047 C4061 0.931 . S
H4048 C4063 0.930 . S
C4049 H4037 0.930 . S
C4049 C4050 1.399 . S
C4049 C4054 1.399 . S
C4050 C4049 1.399 . S
C4050 C4051 1.376 . S
C4051 H4038 0.930 . S
C4051 C4050 1.376 . S
C4051 C4052 1.388 . S
C4052 H4039 0.930 . S
C4052 C4051 1.388 . S
C4052 C4053 1.390 . S
C4053 C4052 1.390 . S
C4053 C4054 1.394 . S
C4053 C4059 1.465 . S
C4054 C4049 1.399 . S
C4054 C4053 1.394 . S
C4054 C4055 1.516 . S
C4055 C4054 1.516 . S
C4055 C4056 1.502 . S
C4055 C4057 1.561 . S
C4055 C4058 1.526 . S
C4056 H4040 0.959 . S
C4056 H4041 0.959 . S
C4056 H4042 0.961 . S
C4056 C4055 1.502 . S
C4057 H4043 0.960 . S
C4057 H4044 0.961 . S
C4057 H4045 0.959 . S
C4057 C4055 1.561 . S
C4058 C4055 1.526 . S
C4058 C4059 1.396 . S
C4058 C4063 1.390 . S
C4059 C4053 1.465 . S
C4059 C4058 1.396 . S
C4059 C4060 1.399 . S
C4060 H4046 0.929 . S
C4060 C4059 1.399 . S
C4060 C4061 1.385 . S
C4061 H4047 0.931 . S
C4061 C4060 1.385 . S
C4061 C4062 1.389 . S
C4062 C4061 1.389 . S
C4062 C4063 1.387 . S
C4063 H4048 0.930 . S
C4063 C4058 1.390 . S
C4063 C4062 1.387 . S
H4064 C4076 0.930 . S
H4065 C4078 0.930 . S
H4066 C4079 0.930 . S
H4067 C4083 0.959 . S
H4068 C4083 0.959 . S
H4069 C4083 0.961 . S
H4070 C4084 0.960 . S
H4071 C4084 0.961 . S
H4072 C4084 0.959 . S
H4073 C4087 0.929 . S
H4074 C4088 0.931 . S
H4075 C4090 0.930 . S
C4076 H4064 0.930 . S
C4076 C4077 1.399 . S
C4076 C4081 1.399 . S
C4077 C4076 1.399 . S
C4077 C4078 1.376 . S
C4078 H4065 0.930 . S
C4078 C4077 1.376 . S
C4078 C4079 1.388 . S
C4079 H4066 0.930 . S
C4079 C4078 1.388 . S
C4079 C4080 1.390 . S
C4080 C4079 1.390 . S
C4080 C4081 1.394 . S
C4080 C4086 1.465 . S
C4081 C4076 1.399 . S
C4081 C4080 1.394 . S
C4081 C4082 1.516 . S
C4082 C4081 1.516 . S
C4082 C4083 1.502 . S
C4082 C4084 1.561 . S
C4082 C4085 1.526 . S
C4083 H4067 0.959 . S
C4083 H4068 0.959 . S
C4083 H4069 0.961 . S
C4083 C4082 1.502 . S
C4084 H4070 0.960 . S
C4084 H4071 0.961 . S
C4084 H4072 0.959 . S
C4084 C4082 1.561 . S
C4085 C4082 1.526 . S
C4085 C4086 1.396 . S
C4085 C4090 1.390 . S
C4086 C4080 1.465 . S
C4086 C4085 1.396 . S
C4086 C4087 1.399 . S
C4087 H4073 0.929 . S
C4087 C4086 1.399 . S
C4087 C4088 1.385 . S
C4088 H4074 0.931 . S
C4088 C4087 1.385 . S
C4088 C4089 1.389 . S
C4089 C4088 1.389 . S
C4089 C4090 1.387 . S
C4090 H4075 0.930 . S
C4090 C4085 1.390 . S
C4090 C4089 1.387 . S
H4091 C4103 0.930 . S
H4092 C4105 0.930 . S
H4093 C4106 0.930 . S
H4094 C4110 0.959 . S
H4095 C4110 0.959 . S
H4096 C4110 0.961 . S
H4097 C4111 0.960 . S
H4098 C4111 0.961 . S
H4099 C4111 0.959 . S
H4100 C4114 0.929 . S
H4101 C4115 0.931 . S
H4102 C4117 0.930 . S
C4103 H4091 0.930 . S
C4103 C4104 1.399 . S
C4103 C4108 1.399 . S
C4104 C4103 1.399 . S
C4104 C4105 1.376 . S
C4105 H4092 0.930 . S
C4105 C4104 1.376 . S
C4105 C4106 1.388 . S
C4106 H4093 0.930 . S
C4106 C4105 1.388 . S
C4106 C4107 1.390 . S
C4107 C4106 1.390 . S
C4107 C4108 1.394 . S
C4107 C4113 1.465 . S
C4108 C4103 1.399 . S
C4108 C4107 1.394 . S
C4108 C4109 1.516 . S
C4109 C4108 1.516 . S
C4109 C4110 1.502 . S
C4109 C4111 1.561 . S
C4109 C4112 1.526 . S
C4110 H4094 0.959 . S
C4110 H4095 0.959 . S
C4110 H4096 0.961 . S
C4110 C4109 1.502 . S
C4111 H4097 0.960 . S
C4111 H4098 0.961 . S
C4111 H4099 0.959 . S
C4111 C4109 1.561 . S
C4112 C4109 1.526 . S
C4112 C4113 1.396 . S
C4112 C4117 1.390 . S
C4113 C4107 1.465 . S
C4113 C4112 1.396 . S
C4113 C4114 1.399 . S
C4114 H4100 0.929 . S
C4114 C4113 1.399 . S
C4114 C4115 1.385 . S
C4115 H4101 0.931 . S
C4115 C4114 1.385 . S
C4115 C4116 1.389 . S
C4116 C4115 1.389 . S
C4116 C4117 1.387 . S
C4117 H4102 0.930 . S
C4117 C4112 1.390 . S
C4117 C4116 1.387 . S
H4118 C4130 0.930 . S
H4119 C4132 0.930 . S
H4120 C4133 0.930 . S
H4121 C4137 0.959 . S
H4122 C4137 0.959 . S
H4123 C4137 0.961 . S
H4124 C4138 0.960 . S
H4125 C4138 0.961 . S
H4126 C4138 0.959 . S
H4127 C4141 0.929 . S
H4128 C4142 0.931 . S
H4129 C4144 0.930 . S
C4130 H4118 0.930 . S
C4130 C4131 1.399 . S
C4130 C4135 1.399 . S
C4131 C4130 1.399 . S
C4131 C4132 1.376 . S
C4132 H4119 0.930 . S
C4132 C4131 1.376 . S
C4132 C4133 1.388 . S
C4133 H4120 0.930 . S
C4133 C4132 1.388 . S
C4133 C4134 1.390 . S
C4134 C4133 1.390 . S
C4134 C4135 1.394 . S
C4134 C4140 1.465 . S
C4135 C4130 1.399 . S
C4135 C4134 1.394 . S
C4135 C4136 1.516 . S
C4136 C4135 1.516 . S
C4136 C4137 1.502 . S
C4136 C4138 1.561 . S
C4136 C4139 1.526 . S
C4137 H4121 0.959 . S
C4137 H4122 0.959 . S
C4137 H4123 0.961 . S
C4137 C4136 1.502 . S
C4138 H4124 0.960 . S
C4138 H4125 0.961 . S
C4138 H4126 0.959 . S
C4138 C4136 1.561 . S
C4139 C4136 1.526 . S
C4139 C4140 1.396 . S
C4139 C4144 1.390 . S
C4140 C4134 1.465 . S
C4140 C4139 1.396 . S
C4140 C4141 1.399 . S
C4141 H4127 0.929 . S
C4141 C4140 1.399 . S
C4141 C4142 1.385 . S
C4142 H4128 0.931 . S
C4142 C4141 1.385 . S
C4142 C4143 1.389 . S
C4143 C4142 1.389 . S
C4143 C4144 1.387 . S
C4144 H4129 0.930 . S
C4144 C4139 1.390 . S
C4144 C4143 1.387 . S
H4145 C4157 0.930 . S
H4146 C4159 0.930 . S
H4147 C4160 0.930 . S
H4148 C4164 0.959 . S
H4149 C4164 0.959 . S
H4150 C4164 0.961 . S
H4151 C4165 0.960 . S
H4152 C4165 0.961 . S
H4153 C4165 0.959 . S
H4154 C4168 0.929 . S
H4155 C4169 0.931 . S
H4156 C4171 0.930 . S
C4157 H4145 0.930 . S
C4157 C4158 1.399 . S
C4157 C4162 1.399 . S
C4158 C4157 1.399 . S
C4158 C4159 1.376 . S
C4159 H4146 0.930 . S
C4159 C4158 1.376 . S
C4159 C4160 1.388 . S
C4160 H4147 0.930 . S
C4160 C4159 1.388 . S
C4160 C4161 1.390 . S
C4161 C4160 1.390 . S
C4161 C4162 1.394 . S
C4161 C4167 1.465 . S
C4162 C4157 1.399 . S
C4162 C4161 1.394 . S
C4162 C4163 1.516 . S
C4163 C4162 1.516 . S
C4163 C4164 1.502 . S
C4163 C4165 1.561 . S
C4163 C4166 1.526 . S
C4164 H4148 0.959 . S
C4164 H4149 0.959 . S
C4164 H4150 0.961 . S
C4164 C4163 1.502 . S
C4165 H4151 0.960 . S
C4165 H4152 0.961 . S
C4165 H4153 0.959 . S
C4165 C4163 1.561 . S
C4166 C4163 1.526 . S
C4166 C4167 1.396 . S
C4166 C4171 1.390 . S
C4167 C4161 1.465 . S
C4167 C4166 1.396 . S
C4167 C4168 1.399 . S
C4168 H4154 0.929 . S
C4168 C4167 1.399 . S
C4168 C4169 1.385 . S
C4169 H4155 0.931 . S
C4169 C4168 1.385 . S
C4169 C4170 1.389 . S
C4170 C4169 1.389 . S
C4170 C4171 1.387 . S
C4171 H4156 0.930 . S
C4171 C4166 1.390 . S
C4171 C4170 1.387 . S
H4172 C4184 0.930 . S
H4173 C4186 0.930 . S
H4174 C4187 0.930 . S
H4175 C4191 0.959 . S
H4176 C4191 0.959 . S
H4177 C4191 0.961 . S
H4178 C4192 0.960 . S
H4179 C4192 0.961 . S
H4180 C4192 0.959 . S
H4181 C4195 0.929 . S
H4182 C4196 0.931 . S
H4183 C4198 0.930 . S
C4184 H4172 0.930 . S
C4184 C4185 1.399 . S
C4184 C4189 1.399 . S
C4185 C4184 1.399 . S
C4185 C4186 1.376 . S
C4186 H4173 0.930 . S
C4186 C4185 1.376 . S
C4186 C4187 1.388 . S
C4187 H4174 0.930 . S
C4187 C4186 1.388 . S
C4187 C4188 1.390 . S
C4188 C4187 1.390 . S
C4188 C4189 1.394 . S
C4188 C4194 1.465 . S
C4189 C4184 1.399 . S
C4189 C4188 1.394 . S
C4189 C4190 1.516 . S
C4190 C4189 1.516 . S
C4190 C4191 1.502 . S
C4190 C4192 1.561 . S
C4190 C4193 1.526 . S
C4191 H4175 0.959 . S
C4191 H4176 0.959 . S
C4191 H4177 0.961 . S
C4191 C4190 1.502 . S
C4192 H4178 0.960 . S
C4192 H4179 0.961 . S
C4192 H4180 0.959 . S
C4192 C4190 1.561 . S
C4193 C4190 1.526 . S
C4193 C4194 1.396 . S
C4193 C4198 1.390 . S
C4194 C4188 1.465 . S
C4194 C4193 1.396 . S
C4194 C4195 1.399 . S
C4195 H4181 0.929 . S
C4195 C4194 1.399 . S
C4195 C4196 1.385 . S
C4196 H4182 0.931 . S
C4196 C4195 1.385 . S
C4196 C4197 1.389 . S
C4197 C4196 1.389 . S
C4197 C4198 1.387 . S
C4198 H4183 0.930 . S
C4198 C4193 1.390 . S
C4198 C4197 1.387 . S
H4199 C4211 0.930 . S
H4200 C4213 0.930 . S
H4201 C4214 0.930 . S
H4202 C4218 0.959 . S
H4203 C4218 0.959 . S
H4204 C4218 0.961 . S
H4205 C4219 0.960 . S
H4206 C4219 0.961 . S
H4207 C4219 0.959 . S
H4208 C4222 0.929 . S
H4209 C4223 0.931 . S
H4210 C4225 0.930 . S
C4211 H4199 0.930 . S
C4211 C4212 1.399 . S
C4211 C4216 1.399 . S
C4212 C4211 1.399 . S
C4212 C4213 1.376 . S
C4213 H4200 0.930 . S
C4213 C4212 1.376 . S
C4213 C4214 1.388 . S
C4214 H4201 0.930 . S
C4214 C4213 1.388 . S
C4214 C4215 1.390 . S
C4215 C4214 1.390 . S
C4215 C4216 1.394 . S
C4215 C4221 1.465 . S
C4216 C4211 1.399 . S
C4216 C4215 1.394 . S
C4216 C4217 1.516 . S
C4217 C4216 1.516 . S
C4217 C4218 1.502 . S
C4217 C4219 1.561 . S
C4217 C4220 1.526 . S
C4218 H4202 0.959 . S
C4218 H4203 0.959 . S
C4218 H4204 0.961 . S
C4218 C4217 1.502 . S
C4219 H4205 0.960 . S
C4219 H4206 0.961 . S
C4219 H4207 0.959 . S
C4219 C4217 1.561 . S
C4220 C4217 1.526 . S
C4220 C4221 1.396 . S
C4220 C4225 1.390 . S
C4221 C4215 1.465 . S
C4221 C4220 1.396 . S
C4221 C4222 1.399 . S
C4222 H4208 0.929 . S
C4222 C4221 1.399 . S
C4222 C4223 1.385 . S
C4223 H4209 0.931 . S
C4223 C4222 1.385 . S
C4223 C4224 1.389 . S
C4224 C4223 1.389 . S
C4224 C4225 1.387 . S
C4225 H4210 0.930 . S
C4225 C4220 1.390 . S
C4225 C4224 1.387 . S
H4226 C4238 0.930 . S
H4227 C4240 0.930 . S
H4228 C4241 0.930 . S
H4229 C4245 0.959 . S
H4230 C4245 0.959 . S
H4231 C4245 0.961 . S
H4232 C4246 0.960 . S
H4233 C4246 0.961 . S
H4234 C4246 0.959 . S
H4235 C4249 0.929 . S
H4236 C4250 0.931 . S
H4237 C4252 0.930 . S
C4238 H4226 0.930 . S
C4238 C4239 1.399 . S
C4238 C4243 1.399 . S
C4239 C4238 1.399 . S
C4239 C4240 1.376 . S
C4240 H4227 0.930 . S
C4240 C4239 1.376 . S
C4240 C4241 1.388 . S
C4241 H4228 0.930 . S
C4241 C4240 1.388 . S
C4241 C4242 1.390 . S
C4242 C4241 1.390 . S
C4242 C4243 1.394 . S
C4242 C4248 1.465 . S
C4243 C4238 1.399 . S
C4243 C4242 1.394 . S
C4243 C4244 1.516 . S
C4244 C4243 1.516 . S
C4244 C4245 1.502 . S
C4244 C4246 1.561 . S
C4244 C4247 1.526 . S
C4245 H4229 0.959 . S
C4245 H4230 0.959 . S
C4245 H4231 0.961 . S
C4245 C4244 1.502 . S
C4246 H4232 0.960 . S
C4246 H4233 0.961 . S
C4246 H4234 0.959 . S
C4246 C4244 1.561 . S
C4247 C4244 1.526 . S
C4247 C4248 1.396 . S
C4247 C4252 1.390 . S
C4248 C4242 1.465 . S
C4248 C4247 1.396 . S
C4248 C4249 1.399 . S
C4249 H4235 0.929 . S
C4249 C4248 1.399 . S
C4249 C4250 1.385 . S
C4250 H4236 0.931 . S
C4250 C4249 1.385 . S
C4250 C4251 1.389 . S
C4251 C4250 1.389 . S
C4251 C4252 1.387 . S
C4252 H4237 0.930 . S
C4252 C4247 1.390 . S
C4252 C4251 1.387 . S
H4253 C4265 0.930 . S
H4254 C4267 0.930 . S
H4255 C4268 0.930 . S
H4256 C4272 0.959 . S
H4257 C4272 0.959 . S
H4258 C4272 0.961 . S
H4259 C4273 0.960 . S
H4260 C4273 0.961 . S
H4261 C4273 0.959 . S
H4262 C4276 0.929 . S
H4263 C4277 0.931 . S
H4264 C4279 0.930 . S
C4265 H4253 0.930 . S
C4265 C4266 1.399 . S
C4265 C4270 1.399 . S
C4266 C4265 1.399 . S
C4266 C4267 1.376 . S
C4267 H4254 0.930 . S
C4267 C4266 1.376 . S
C4267 C4268 1.388 . S
C4268 H4255 0.930 . S
C4268 C4267 1.388 . S
C4268 C4269 1.390 . S
C4269 C4268 1.390 . S
C4269 C4270 1.394 . S
C4269 C4275 1.465 . S
C4270 C4265 1.399 . S
C4270 C4269 1.394 . S
C4270 C4271 1.516 . S
C4271 C4270 1.516 . S
C4271 C4272 1.502 . S
C4271 C4273 1.561 . S
C4271 C4274 1.526 . S
C4272 H4256 0.959 . S
C4272 H4257 0.959 . S
C4272 H4258 0.961 . S
C4272 C4271 1.502 . S
C4273 H4259 0.960 . S
C4273 H4260 0.961 . S
C4273 H4261 0.959 . S
C4273 C4271 1.561 . S
C4274 C4271 1.526 . S
C4274 C4275 1.396 . S
C4274 C4279 1.390 . S
C4275 C4269 1.465 . S
C4275 C4274 1.396 . S
C4275 C4276 1.399 . S
C4276 H4262 0.929 . S
C4276 C4275 1.399 . S
C4276 C4277 1.385 . S
C4277 H4263 0.931 . S
C4277 C4276 1.385 . S
C4277 C4278 1.389 . S
C4278 C4277 1.389 . S
C4278 C4279 1.387 . S
C4279 H4264 0.930 . S
C4279 C4274 1.390 . S
C4279 C4278 1.387 . S
H4280 C4292 0.930 . S
H4281 C4294 0.930 . S
H4282 C4295 0.930 . S
H4283 C4299 0.959 . S
H4284 C4299 0.959 . S
H4285 C4299 0.961 . S
H4286 C4300 0.960 . S
H4287 C4300 0.961 . S
H4288 C4300 0.959 . S
H4289 C4303 0.929 . S
H4290 C4304 0.931 . S
H4291 C4306 0.930 . S
C4292 H4280 0.930 . S
C4292 C4293 1.399 . S
C4292 C4297 1.399 . S
C4293 C4292 1.399 . S
C4293 C4294 1.376 . S
C4294 H4281 0.930 . S
C4294 C4293 1.376 . S
C4294 C4295 1.388 . S
C4295 H4282 0.930 . S
C4295 C4294 1.388 . S
C4295 C4296 1.390 . S
C4296 C4295 1.390 . S
C4296 C4297 1.394 . S
C4296 C4302 1.465 . S
C4297 C4292 1.399 . S
C4297 C4296 1.394 . S
C4297 C4298 1.516 . S
C4298 C4297 1.516 . S
C4298 C4299 1.502 . S
C4298 C4300 1.561 . S
C4298 C4301 1.526 . S
C4299 H4283 0.959 . S
C4299 H4284 0.959 . S
C4299 H4285 0.961 . S
C4299 C4298 1.502 . S
C4300 H4286 0.960 . S
C4300 H4287 0.961 . S
C4300 H4288 0.959 . S
C4300 C4298 1.561 . S
C4301 C4298 1.526 . S
C4301 C4302 1.396 . S
C4301 C4306 1.390 . S
C4302 C4296 1.465 . S
C4302 C4301 1.396 . S
C4302 C4303 1.399 . S
C4303 H4289 0.929 . S
C4303 C4302 1.399 . S
C4303 C4304 1.385 . S
C4304 H4290 0.931 . S
C4304 C4303 1.385 . S
C4304 C4305 1.389 . S
C4305 C4304 1.389 . S
C4305 C4306 1.387 . S
C4306 H4291 0.930 . S
C4306 C4301 1.390 . S
C4306 C4305 1.387 . S
H4307 C4319 0.930 . S
H4308 C4321 0.930 . S
H4309 C4322 0.930 . S
H4310 C4326 0.959 . S
H4311 C4326 0.959 . S
H4312 C4326 0.961 . S
H4313 C4327 0.960 . S
H4314 C4327 0.961 . S
H4315 C4327 0.959 . S
H4316 C4330 0.929 . S
H4317 C4331 0.931 . S
H4318 C4333 0.930 . S
C4319 H4307 0.930 . S
C4319 C4320 1.399 . S
C4319 C4324 1.399 . S
C4320 C4319 1.399 . S
C4320 C4321 1.376 . S
C4321 H4308 0.930 . S
C4321 C4320 1.376 . S
C4321 C4322 1.388 . S
C4322 H4309 0.930 . S
C4322 C4321 1.388 . S
C4322 C4323 1.390 . S
C4323 C4322 1.390 . S
C4323 C4324 1.394 . S
C4323 C4329 1.465 . S
C4324 C4319 1.399 . S
C4324 C4323 1.394 . S
C4324 C4325 1.516 . S
C4325 C4324 1.516 . S
C4325 C4326 1.502 . S
C4325 C4327 1.561 . S
C4325 C4328 1.526 . S
C4326 H4310 0.959 . S
C4326 H4311 0.959 . S
C4326 H4312 0.961 . S
C4326 C4325 1.502 . S
C4327 H4313 0.960 . S
C4327 H4314 0.961 . S
C4327 H4315 0.959 . S
C4327 C4325 1.561 . S
C4328 C4325 1.526 . S
C4328 C4329 1.396 . S
C4328 C4333 1.390 . S
C4329 C4323 1.465 . S
C4329 C4328 1.396 . S
C4329 C4330 1.399 . S
C4330 H4316 0.929 . S
C4330 C4329 1.399 . S
C4330 C4331 1.385 . S
C4331 H4317 0.931 . S
C4331 C4330 1.385 . S
C4331 C4332 1.389 . S
C4332 C4331 1.389 . S
C4332 C4333 1.387 . S
C4333 H4318 0.930 . S
C4333 C4328 1.390 . S
C4333 C4332 1.387 . S
H4334 C4346 0.930 . S
H4335 C4348 0.930 . S
H4336 C4349 0.930 . S
H4337 C4353 0.959 . S
H4338 C4353 0.959 . S
H4339 C4353 0.961 . S
H4340 C4354 0.960 . S
H4341 C4354 0.961 . S
H4342 C4354 0.959 . S
H4343 C4357 0.929 . S
H4344 C4358 0.931 . S
H4345 C4360 0.930 . S
C4346 H4334 0.930 . S
C4346 C4347 1.399 . S
C4346 C4351 1.399 . S
C4347 C4346 1.399 . S
C4347 C4348 1.376 . S
C4348 H4335 0.930 . S
C4348 C4347 1.376 . S
C4348 C4349 1.388 . S
C4349 H4336 0.930 . S
C4349 C4348 1.388 . S
C4349 C4350 1.390 . S
C4350 C4349 1.390 . S
C4350 C4351 1.394 . S
C4350 C4356 1.465 . S
C4351 C4346 1.399 . S
C4351 C4350 1.394 . S
C4351 C4352 1.516 . S
C4352 C4351 1.516 . S
C4352 C4353 1.502 . S
C4352 C4354 1.561 . S
C4352 C4355 1.526 . S
C4353 H4337 0.959 . S
C4353 H4338 0.959 . S
C4353 H4339 0.961 . S
C4353 C4352 1.502 . S
C4354 H4340 0.960 . S
C4354 H4341 0.961 . S
C4354 H4342 0.959 . S
C4354 C4352 1.561 . S
C4355 C4352 1.526 . S
C4355 C4356 1.396 . S
C4355 C4360 1.390 . S
C4356 C4350 1.465 . S
C4356 C4355 1.396 . S
C4356 C4357 1.399 . S
C4357 H4343 0.929 . S
C4357 C4356 1.399 . S
C4357 C4358 1.385 . S
C4358 H4344 0.931 . S
C4358 C4357 1.385 . S
C4358 C4359 1.389 . S
C4359 C4358 1.389 . S
C4359 C4360 1.387 . S
C4360 H4345 0.930 . S
C4360 C4355 1.390 . S
C4360 C4359 1.387 . S
H4361 C4373 0.930 . S
H4362 C4375 0.930 . S
H4363 C4376 0.930 . S
H4364 C4380 0.959 . S
H4365 C4380 0.959 . S
H4366 C4380 0.961 . S
H4367 C4381 0.960 . S
H4368 C4381 0.961 . S
H4369 C4381 0.959 . S
H4370 C4384 0.929 . S
H4371 C4385 0.931 . S
H4372 C4387 0.930 . S
C4373 H4361 0.930 . S
C4373 C4374 1.399 . S
C4373 C4378 1.399 . S
C4374 C4373 1.399 . S
C4374 C4375 1.376 . S
C4375 H4362 0.930 . S
C4375 C4374 1.376 . S
C4375 C4376 1.388 . S
C4376 H4363 0.930 . S
C4376 C4375 1.388 . S
C4376 C4377 1.390 . S
C4377 C4376 1.390 . S
C4377 C4378 1.394 . S
C4377 C4383 1.465 . S
C4378 C4373 1.399 . S
C4378 C4377 1.394 . S
C4378 C4379 1.516 . S
C4379 C4378 1.516 . S
C4379 C4380 1.502 . S
C4379 C4381 1.561 . S
C4379 C4382 1.526 . S
C4380 H4364 0.959 . S
C4380 H4365 0.959 . S
C4380 H4366 0.961 . S
C4380 C4379 1.502 . S
C4381 H4367 0.960 . S
C4381 H4368 0.961 . S
C4381 H4369 0.959 . S
C4381 C4379 1.561 . S
C4382 C4379 1.526 . S
C4382 C4383 1.396 . S
C4382 C4387 1.390 . S
C4383 C4377 1.465 . S
C4383 C4382 1.396 . S
C4383 C4384 1.399 . S
C4384 H4370 0.929 . S
C4384 C4383 1.399 . S
C4384 C4385 1.385 . S
C4385 H4371 0.931 . S
C4385 C4384 1.385 . S
C4385 C4386 1.389 . S
C4386 C4385 1.389 . S
C4386 C4387 1.387 . S
C4387 H4372 0.930 . S
C4387 C4382 1.390 . S
C4387 C4386 1.387 . S
H4388 C4400 0.930 . S
H4389 C4402 0.930 . S
H4390 C4403 0.930 . S
H4391 C4407 0.959 . S
H4392 C4407 0.959 . S
H4393 C4407 0.961 . S
H4394 C4408 0.960 . S
H4395 C4408 0.961 . S
H4396 C4408 0.959 . S
H4397 C4411 0.929 . S
H4398 C4412 0.931 . S
H4399 C4414 0.930 . S
C4400 H4388 0.930 . S
C4400 C4401 1.399 . S
C4400 C4405 1.399 . S
C4401 C4400 1.399 . S
C4401 C4402 1.376 . S
C4402 H4389 0.930 . S
C4402 C4401 1.376 . S
C4402 C4403 1.388 . S
C4403 H4390 0.930 . S
C4403 C4402 1.388 . S
C4403 C4404 1.390 . S
C4404 C4403 1.390 . S
C4404 C4405 1.394 . S
C4404 C4410 1.465 . S
C4405 C4400 1.399 . S
C4405 C4404 1.394 . S
C4405 C4406 1.516 . S
C4406 C4405 1.516 . S
C4406 C4407 1.502 . S
C4406 C4408 1.561 . S
C4406 C4409 1.526 . S
C4407 H4391 0.959 . S
C4407 H4392 0.959 . S
C4407 H4393 0.961 . S
C4407 C4406 1.502 . S
C4408 H4394 0.960 . S
C4408 H4395 0.961 . S
C4408 H4396 0.959 . S
C4408 C4406 1.561 . S
C4409 C4406 1.526 . S
C4409 C4410 1.396 . S
C4409 C4414 1.390 . S
C4410 C4404 1.465 . S
C4410 C4409 1.396 . S
C4410 C4411 1.399 . S
C4411 H4397 0.929 . S
C4411 C4410 1.399 . S
C4411 C4412 1.385 . S
C4412 H4398 0.931 . S
C4412 C4411 1.385 . S
C4412 C4413 1.389 . S
C4413 C4412 1.389 . S
C4413 C4414 1.387 . S
C4414 H4399 0.930 . S
C4414 C4409 1.390 . S
C4414 C4413 1.387 . S
H4415 C4427 0.930 . S
H4416 C4429 0.930 . S
H4417 C4430 0.930 . S
H4418 C4434 0.959 . S
H4419 C4434 0.959 . S
H4420 C4434 0.961 . S
H4421 C4435 0.960 . S
H4422 C4435 0.961 . S
H4423 C4435 0.959 . S
H4424 C4438 0.929 . S
H4425 C4439 0.931 . S
H4426 C4441 0.930 . S
C4427 H4415 0.930 . S
C4427 C4428 1.399 . S
C4427 C4432 1.399 . S
C4428 C4427 1.399 . S
C4428 C4429 1.376 . S
C4429 H4416 0.930 . S
C4429 C4428 1.376 . S
C4429 C4430 1.388 . S
C4430 H4417 0.930 . S
C4430 C4429 1.388 . S
C4430 C4431 1.390 . S
C4431 C4430 1.390 . S
C4431 C4432 1.394 . S
C4431 C4437 1.465 . S
C4432 C4427 1.399 . S
C4432 C4431 1.394 . S
C4432 C4433 1.516 . S
C4433 C4432 1.516 . S
C4433 C4434 1.502 . S
C4433 C4435 1.561 . S
C4433 C4436 1.526 . S
C4434 H4418 0.959 . S
C4434 H4419 0.959 . S
C4434 H4420 0.961 . S
C4434 C4433 1.502 . S
C4435 H4421 0.960 . S
C4435 H4422 0.961 . S
C4435 H4423 0.959 . S
C4435 C4433 1.561 . S
C4436 C4433 1.526 . S
C4436 C4437 1.396 . S
C4436 C4441 1.390 . S
C4437 C4431 1.465 . S
C4437 C4436 1.396 . S
C4437 C4438 1.399 . S
C4438 H4424 0.929 . S
C4438 C4437 1.399 . S
C4438 C4439 1.385 . S
C4439 H4425 0.931 . S
C4439 C4438 1.385 . S
C4439 C4440 1.389 . S
C4440 C4439 1.389 . S
C4440 C4441 1.387 . S
C4441 H4426 0.930 . S
C4441 C4436 1.390 . S
C4441 C4440 1.387 . S
H4442 C4454 0.930 . S
H4443 C4456 0.930 . S
H4444 C4457 0.930 . S
H4445 C4461 0.959 . S
H4446 C4461 0.959 . S
H4447 C4461 0.961 . S
H4448 C4462 0.960 . S
H4449 C4462 0.961 . S
H4450 C4462 0.959 . S
H4451 C4465 0.929 . S
H4452 C4466 0.931 . S
H4453 C4468 0.930 . S
C4454 H4442 0.930 . S
C4454 C4455 1.399 . S
C4454 C4459 1.399 . S
C4455 C4454 1.399 . S
C4455 C4456 1.376 . S
C4456 H4443 0.930 . S
C4456 C4455 1.376 . S
C4456 C4457 1.388 . S
C4457 H4444 0.930 . S
C4457 C4456 1.388 . S
C4457 C4458 1.390 . S
C4458 C4457 1.390 . S
C4458 C4459 1.394 . S
C4458 C4464 1.465 . S
C4459 C4454 1.399 . S
C4459 C4458 1.394 . S
C4459 C4460 1.516 . S
C4460 C4459 1.516 . S
C4460 C4461 1.502 . S
C4460 C4462 1.561 . S
C4460 C4463 1.526 . S
C4461 H4445 0.959 . S
C4461 H4446 0.959 . S
C4461 H4447 0.961 . S
C4461 C4460 1.502 . S
C4462 H4448 0.960 . S
C4462 H4449 0.961 . S
C4462 H4450 0.959 . S
C4462 C4460 1.561 . S
C4463 C4460 1.526 . S
C4463 C4464 1.396 . S
C4463 C4468 1.390 . S
C4464 C4458 1.465 . S
C4464 C4463 1.396 . S
C4464 C4465 1.399 . S
C4465 H4451 0.929 . S
C4465 C4464 1.399 . S
C4465 C4466 1.385 . S
C4466 H4452 0.931 . S
C4466 C4465 1.385 . S
C4466 C4467 1.389 . S
C4467 C4466 1.389 . S
C4467 C4468 1.387 . S
C4468 H4453 0.930 . S
C4468 C4463 1.390 . S
C4468 C4467 1.387 . S
H4469 C4481 0.930 . S
H4470 C4483 0.930 . S
H4471 C4484 0.930 . S
H4472 C4488 0.959 . S
H4473 C4488 0.959 . S
H4474 C4488 0.961 . S
H4475 C4489 0.960 . S
H4476 C4489 0.961 . S
H4477 C4489 0.959 . S
H4478 C4492 0.929 . S
H4479 C4493 0.931 . S
H4480 C4495 0.930 . S
C4481 H4469 0.930 . S
C4481 C4482 1.399 . S
C4481 C4486 1.399 . S
C4482 C4481 1.399 . S
C4482 C4483 1.376 . S
C4483 H4470 0.930 . S
C4483 C4482 1.376 . S
C4483 C4484 1.388 . S
C4484 H4471 0.930 . S
C4484 C4483 1.388 . S
C4484 C4485 1.390 . S
C4485 C4484 1.390 . S
C4485 C4486 1.394 . S
C4485 C4491 1.465 . S
C4486 C4481 1.399 . S
C4486 C4485 1.394 . S
C4486 C4487 1.516 . S
C4487 C4486 1.516 . S
C4487 C4488 1.502 . S
C4487 C4489 1.561 . S
C4487 C4490 1.526 . S
C4488 H4472 0.959 . S
C4488 H4473 0.959 . S
C4488 H4474 0.961 . S
C4488 C4487 1.502 . S
C4489 H4475 0.960 . S
C4489 H4476 0.961 . S
C4489 H4477 0.959 . S
C4489 C4487 1.561 . S
C4490 C4487 1.526 . S
C4490 C4491 1.396 . S
C4490 C4495 1.390 . S
C4491 C4485 1.465 . S
C4491 C4490 1.396 . S
C4491 C4492 1.399 . S
C4492 H4478 0.929 . S
C4492 C4491 1.399 . S
C4492 C4493 1.385 . S
C4493 H4479 0.931 . S
C4493 C4492 1.385 . S
C4493 C4494 1.389 . S
C4494 C4493 1.389 . S
C4494 C4495 1.387 . S
C4495 H4480 0.930 . S
C4495 C4490 1.390 . S
C4495 C4494 1.387 . S
H4496 C4508 0.930 . S
H4497 C4510 0.930 . S
H4498 C4511 0.930 . S
H4499 C4515 0.959 . S
H4500 C4515 0.959 . S
H4501 C4515 0.961 . S
H4502 C4516 0.960 . S
H4503 C4516 0.961 . S
H4504 C4516 0.959 . S
H4505 C4519 0.929 . S
H4506 C4520 0.931 . S
H4507 C4522 0.930 . S
C4508 H4496 0.930 . S
C4508 C4509 1.399 . S
C4508 C4513 1.399 . S
C4509 C4508 1.399 . S
C4509 C4510 1.376 . S
C4510 H4497 0.930 . S
C4510 C4509 1.376 . S
C4510 C4511 1.388 . S
C4511 H4498 0.930 . S
C4511 C4510 1.388 . S
C4511 C4512 1.390 . S
C4512 C4511 1.390 . S
C4512 C4513 1.394 . S
C4512 C4518 1.465 . S
C4513 C4508 1.399 . S
C4513 C4512 1.394 . S
C4513 C4514 1.516 . S
C4514 C4513 1.516 . S
C4514 C4515 1.502 . S
C4514 C4516 1.561 . S
C4514 C4517 1.526 . S
C4515 H4499 0.959 . S
C4515 H4500 0.959 . S
C4515 H4501 0.961 . S
C4515 C4514 1.502 . S
C4516 H4502 0.960 . S
C4516 H4503 0.961 . S
C4516 H4504 0.959 . S
C4516 C4514 1.561 . S
C4517 C4514 1.526 . S
C4517 C4518 1.396 . S
C4517 C4522 1.390 . S
C4518 C4512 1.465 . S
C4518 C4517 1.396 . S
C4518 C4519 1.399 . S
C4519 H4505 0.929 . S
C4519 C4518 1.399 . S
C4519 C4520 1.385 . S
C4520 H4506 0.931 . S
C4520 C4519 1.385 . S
C4520 C4521 1.389 . S
C4521 C4520 1.389 . S
C4521 C4522 1.387 . S
C4522 H4507 0.930 . S
C4522 C4517 1.390 . S
C4522 C4521 1.387 . S
H4523 C4535 0.930 . S
H4524 C4537 0.930 . S
H4525 C4538 0.930 . S
H4526 C4542 0.959 . S
H4527 C4542 0.959 . S
H4528 C4542 0.961 . S
H4529 C4543 0.960 . S
H4530 C4543 0.961 . S
H4531 C4543 0.959 . S
H4532 C4546 0.929 . S
H4533 C4547 0.931 . S
H4534 C4549 0.930 . S
C4535 H4523 0.930 . S
C4535 C4536 1.399 . S
C4535 C4540 1.399 . S
C4536 C4535 1.399 . S
C4536 C4537 1.376 . S
C4537 H4524 0.930 . S
C4537 C4536 1.376 . S
C4537 C4538 1.388 . S
C4538 H4525 0.930 . S
C4538 C4537 1.388 . S
C4538 C4539 1.390 . S
C4539 C4538 1.390 . S
C4539 C4540 1.394 . S
C4539 C4545 1.465 . S
C4540 C4535 1.399 . S
C4540 C4539 1.394 . S
C4540 C4541 1.516 . S
C4541 C4540 1.516 . S
C4541 C4542 1.502 . S
C4541 C4543 1.561 . S
C4541 C4544 1.526 . S
C4542 H4526 0.959 . S
C4542 H4527 0.959 . S
C4542 H4528 0.961 . S
C4542 C4541 1.502 . S
C4543 H4529 0.960 . S
C4543 H4530 0.961 . S
C4543 H4531 0.959 . S
C4543 C4541 1.561 . S
C4544 C4541 1.526 . S
C4544 C4545 1.396 . S
C4544 C4549 1.390 . S
C4545 C4539 1.465 . S
C4545 C4544 1.396 . S
C4545 C4546 1.399 . S
C4546 H4532 0.929 . S
C4546 C4545 1.399 . S
C4546 C4547 1.385 . S
C4547 H4533 0.931 . S
C4547 C4546 1.385 . S
C4547 C4548 1.389 . S
C4548 C4547 1.389 . S
C4548 C4549 1.387 . S
C4549 H4534 0.930 . S
C4549 C4544 1.390 . S
C4549 C4548 1.387 . S
H4550 C4562 0.930 . S
H4551 C4564 0.930 . S
H4552 C4565 0.930 . S
H4553 C4569 0.959 . S
H4554 C4569 0.959 . S
H4555 C4569 0.961 . S
H4556 C4570 0.960 . S
H4557 C4570 0.961 . S
H4558 C4570 0.959 . S
H4559 C4573 0.929 . S
H4560 C4574 0.931 . S
H4561 C4576 0.930 . S
C4562 H4550 0.930 . S
C4562 C4563 1.399 . S
C4562 C4567 1.399 . S
C4563 C4562 1.399 . S
C4563 C4564 1.376 . S
C4564 H4551 0.930 . S
C4564 C4563 1.376 . S
C4564 C4565 1.388 . S
C4565 H4552 0.930 . S
C4565 C4564 1.388 . S
C4565 C4566 1.390 . S
C4566 C4565 1.390 . S
C4566 C4567 1.394 . S
C4566 C4572 1.465 . S
C4567 C4562 1.399 . S
C4567 C4566 1.394 . S
C4567 C4568 1.516 . S
C4568 C4567 1.516 . S
C4568 C4569 1.502 . S
C4568 C4570 1.561 . S
C4568 C4571 1.526 . S
C4569 H4553 0.959 . S
C4569 H4554 0.959 . S
C4569 H4555 0.961 . S
C4569 C4568 1.502 . S
C4570 H4556 0.960 . S
C4570 H4557 0.961 . S
C4570 H4558 0.959 . S
C4570 C4568 1.561 . S
C4571 C4568 1.526 . S
C4571 C4572 1.396 . S
C4571 C4576 1.390 . S
C4572 C4566 1.465 . S
C4572 C4571 1.396 . S
C4572 C4573 1.399 . S
C4573 H4559 0.929 . S
C4573 C4572 1.399 . S
C4573 C4574 1.385 . S
C4574 H4560 0.931 . S
C4574 C4573 1.385 . S
C4574 C4575 1.389 . S
C4575 C4574 1.389 . S
C4575 C4576 1.387 . S
C4576 H4561 0.930 . S
C4576 C4571 1.390 . S
C4576 C4575 1.387 . S
H4577 C4589 0.930 . S
H4578 C4591 0.930 . S
H4579 C4592 0.930 . S
H4580 C4596 0.959 . S
H4581 C4596 0.959 . S
H4582 C4596 0.961 . S
H4583 C4597 0.960 . S
H4584 C4597 0.961 . S
H4585 C4597 0.959 . S
H4586 C4600 0.929 . S
H4587 C4601 0.931 . S
H4588 C4603 0.930 . S
C4589 H4577 0.930 . S
C4589 C4590 1.399 . S
C4589 C4594 1.399 . S
C4590 C4589 1.399 . S
C4590 C4591 1.376 . S
C4591 H4578 0.930 . S
C4591 C4590 1.376 . S
C4591 C4592 1.388 . S
C4592 H4579 0.930 . S
C4592 C4591 1.388 . S
C4592 C4593 1.390 . S
C4593 C4592 1.390 . S
C4593 C4594 1.394 . S
C4593 C4599 1.465 . S
C4594 C4589 1.399 . S
C4594 C4593 1.394 . S
C4594 C4595 1.516 . S
C4595 C4594 1.516 . S
C4595 C4596 1.502 . S
C4595 C4597 1.561 . S
C4595 C4598 1.526 . S
C4596 H4580 0.959 . S
C4596 H4581 0.959 . S
C4596 H4582 0.961 . S
C4596 C4595 1.502 . S
C4597 H4583 0.960 . S
C4597 H4584 0.961 . S
C4597 H4585 0.959 . S
C4597 C4595 1.561 . S
C4598 C4595 1.526 . S
C4598 C4599 1.396 . S
C4598 C4603 1.390 . S
C4599 C4593 1.465 . S
C4599 C4598 1.396 . S
C4599 C4600 1.399 . S
C4600 H4586 0.929 . S
C4600 C4599 1.399 . S
C4600 C4601 1.385 . S
C4601 H4587 0.931 . S
C4601 C4600 1.385 . S
C4601 C4602 1.389 . S
C4602 C4601 1.389 . S
C4602 C4603 1.387 . S
C4603 H4588 0.930 . S
C4603 C4598 1.390 . S
C4603 C4602 1.387 . S
H4604 C4616 0.930 . S
H4605 C4618 0.930 . S
H4606 C4619 0.930 . S
H4607 C4623 0.959 . S
H4608 C4623 0.959 . S
H4609 C4623 0.961 . S
H4610 C4624 0.960 . S
H4611 C4624 0.961 . S
H4612 C4624 0.959 . S
H4613 C4627 0.929 . S
H4614 C4628 0.931 . S
H4615 C4630 0.930 . S
C4616 H4604 0.930 . S
C4616 C4617 1.399 . S
C4616 C4621 1.399 . S
C4617 C4616 1.399 . S
C4617 C4618 1.376 . S
C4618 H4605 0.930 . S
C4618 C4617 1.376 . S
C4618 C4619 1.388 . S
C4619 H4606 0.930 . S
C4619 C4618 1.388 . S
C4619 C4620 1.390 . S
C4620 C4619 1.390 . S
C4620 C4621 1.394 . S
C4620 C4626 1.465 . S
C4621 C4616 1.399 . S
C4621 C4620 1.394 . S
C4621 C4622 1.516 . S
C4622 C4621 1.516 . S
C4622 C4623 1.502 . S
C4622 C4624 1.561 . S
C4622 C4625 1.526 . S
C4623 H4607 0.959 . S
C4623 H4608 0.959 . S
C4623 H4609 0.961 . S
C4623 C4622 1.502 . S
C4624 H4610 0.960 . S
C4624 H4611 0.961 . S
C4624 H4612 0.959 . S
C4624 C4622 1.561 . S
C4625 C4622 1.526 . S
C4625 C4626 1.396 . S
C4625 C4630 1.390 . S
C4626 C4620 1.465 . S
C4626 C4625 1.396 . S
C4626 C4627 1.399 . S
C4627 H4613 0.929 . S
C4627 C4626 1.399 . S
C4627 C4628 1.385 . S
C4628 H4614 0.931 . S
C4628 C4627 1.385 . S
C4628 C4629 1.389 . S
C4629 C4628 1.389 . S
C4629 C4630 1.387 . S
C4630 H4615 0.930 . S
C4630 C4625 1.390 . S
C4630 C4629 1.387 . S
H4631 C4643 0.930 . S
H4632 C4645 0.930 . S
H4633 C4646 0.930 . S
H4634 C4650 0.959 . S
H4635 C4650 0.959 . S
H4636 C4650 0.961 . S
H4637 C4651 0.960 . S
H4638 C4651 0.961 . S
H4639 C4651 0.959 . S
H4640 C4654 0.929 . S
H4641 C4655 0.931 . S
H4642 C4657 0.930 . S
C4643 H4631 0.930 . S
C4643 C4644 1.399 . S
C4643 C4648 1.399 . S
C4644 C4643 1.399 . S
C4644 C4645 1.376 . S
C4645 H4632 0.930 . S
C4645 C4644 1.376 . S
C4645 C4646 1.388 . S
C4646 H4633 0.930 . S
C4646 C4645 1.388 . S
C4646 C4647 1.390 . S
C4647 C4646 1.390 . S
C4647 C4648 1.394 . S
C4647 C4653 1.465 . S
C4648 C4643 1.399 . S
C4648 C4647 1.394 . S
C4648 C4649 1.516 . S
C4649 C4648 1.516 . S
C4649 C4650 1.502 . S
C4649 C4651 1.561 . S
C4649 C4652 1.526 . S
C4650 H4634 0.959 . S
C4650 H4635 0.959 . S
C4650 H4636 0.961 . S
C4650 C4649 1.502 . S
C4651 H4637 0.960 . S
C4651 H4638 0.961 . S
C4651 H4639 0.959 . S
C4651 C4649 1.561 . S
C4652 C4649 1.526 . S
C4652 C4653 1.396 . S
C4652 C4657 1.390 . S
C4653 C4647 1.465 . S
C4653 C4652 1.396 . S
C4653 C4654 1.399 . S
C4654 H4640 0.929 . S
C4654 C4653 1.399 . S
C4654 C4655 1.385 . S
C4655 H4641 0.931 . S
C4655 C4654 1.385 . S
C4655 C4656 1.389 . S
C4656 C4655 1.389 . S
C4656 C4657 1.387 . S
C4657 H4642 0.930 . S
C4657 C4652 1.390 . S
C4657 C4656 1.387 . S
H4658 C4670 0.930 . S
H4659 C4672 0.930 . S
H4660 C4673 0.930 . S
H4661 C4677 0.959 . S
H4662 C4677 0.959 . S
H4663 C4677 0.961 . S
H4664 C4678 0.960 . S
H4665 C4678 0.961 . S
H4666 C4678 0.959 . S
H4667 C4681 0.929 . S
H4668 C4682 0.931 . S
H4669 C4684 0.930 . S
C4670 H4658 0.930 . S
C4670 C4671 1.399 . S
C4670 C4675 1.399 . S
C4671 C4670 1.399 . S
C4671 C4672 1.376 . S
C4672 H4659 0.930 . S
C4672 C4671 1.376 . S
C4672 C4673 1.388 . S
C4673 H4660 0.930 . S
C4673 C4672 1.388 . S
C4673 C4674 1.390 . S
C4674 C4673 1.390 . S
C4674 C4675 1.394 . S
C4674 C4680 1.465 . S
C4675 C4670 1.399 . S
C4675 C4674 1.394 . S
C4675 C4676 1.516 . S
C4676 C4675 1.516 . S
C4676 C4677 1.502 . S
C4676 C4678 1.561 . S
C4676 C4679 1.526 . S
C4677 H4661 0.959 . S
C4677 H4662 0.959 . S
C4677 H4663 0.961 . S
C4677 C4676 1.502 . S
C4678 H4664 0.960 . S
C4678 H4665 0.961 . S
C4678 H4666 0.959 . S
C4678 C4676 1.561 . S
C4679 C4676 1.526 . S
C4679 C4680 1.396 . S
C4679 C4684 1.390 . S
C4680 C4674 1.465 . S
C4680 C4679 1.396 . S
C4680 C4681 1.399 . S
C4681 H4667 0.929 . S
C4681 C4680 1.399 . S
C4681 C4682 1.385 . S
C4682 H4668 0.931 . S
C4682 C4681 1.385 . S
C4682 C4683 1.389 . S
C4683 C4682 1.389 . S
C4683 C4684 1.387 . S
C4684 H4669 0.930 . S
C4684 C4679 1.390 . S
C4684 C4683 1.387 . S
H4685 C4697 0.930 . S
H4686 C4699 0.930 . S
H4687 C4700 0.930 . S
H4688 C4704 0.959 . S
H4689 C4704 0.959 . S
H4690 C4704 0.961 . S
H4691 C4705 0.960 . S
H4692 C4705 0.961 . S
H4693 C4705 0.959 . S
H4694 C4708 0.929 . S
H4695 C4709 0.931 . S
H4696 C4711 0.930 . S
C4697 H4685 0.930 . S
C4697 C4698 1.399 . S
C4697 C4702 1.399 . S
C4698 C4697 1.399 . S
C4698 C4699 1.376 . S
C4699 H4686 0.930 . S
C4699 C4698 1.376 . S
C4699 C4700 1.388 . S
C4700 H4687 0.930 . S
C4700 C4699 1.388 . S
C4700 C4701 1.390 . S
C4701 C4700 1.390 . S
C4701 C4702 1.394 . S
C4701 C4707 1.465 . S
C4702 C4697 1.399 . S
C4702 C4701 1.394 . S
C4702 C4703 1.516 . S
C4703 C4702 1.516 . S
C4703 C4704 1.502 . S
C4703 C4705 1.561 . S
C4703 C4706 1.526 . S
C4704 H4688 0.959 . S
C4704 H4689 0.959 . S
C4704 H4690 0.961 . S
C4704 C4703 1.502 . S
C4705 H4691 0.960 . S
C4705 H4692 0.961 . S
C4705 H4693 0.959 . S
C4705 C4703 1.561 . S
C4706 C4703 1.526 . S
C4706 C4707 1.396 . S
C4706 C4711 1.390 . S
C4707 C4701 1.465 . S
C4707 C4706 1.396 . S
C4707 C4708 1.399 . S
C4708 H4694 0.929 . S
C4708 C4707 1.399 . S
C4708 C4709 1.385 . S
C4709 H4695 0.931 . S
C4709 C4708 1.385 . S
C4709 C4710 1.389 . S
C4710 C4709 1.389 . S
C4710 C4711 1.387 . S
C4711 H4696 0.930 . S
C4711 C4706 1.390 . S
C4711 C4710 1.387 . S
H4712 C4724 0.930 . S
H4713 C4726 0.930 . S
H4714 C4727 0.930 . S
H4715 C4731 0.959 . S
H4716 C4731 0.959 . S
H4717 C4731 0.961 . S
H4718 C4732 0.960 . S
H4719 C4732 0.961 . S
H4720 C4732 0.959 . S
H4721 C4735 0.929 . S
H4722 C4736 0.931 . S
H4723 C4738 0.930 . S
C4724 H4712 0.930 . S
C4724 C4725 1.399 . S
C4724 C4729 1.399 . S
C4725 C4724 1.399 . S
C4725 C4726 1.376 . S
C4726 H4713 0.930 . S
C4726 C4725 1.376 . S
C4726 C4727 1.388 . S
C4727 H4714 0.930 . S
C4727 C4726 1.388 . S
C4727 C4728 1.390 . S
C4728 C4727 1.390 . S
C4728 C4729 1.394 . S
C4728 C4734 1.465 . S
C4729 C4724 1.399 . S
C4729 C4728 1.394 . S
C4729 C4730 1.516 . S
C4730 C4729 1.516 . S
C4730 C4731 1.502 . S
C4730 C4732 1.561 . S
C4730 C4733 1.526 . S
C4731 H4715 0.959 . S
C4731 H4716 0.959 . S
C4731 H4717 0.961 . S
C4731 C4730 1.502 . S
C4732 H4718 0.960 . S
C4732 H4719 0.961 . S
C4732 H4720 0.959 . S
C4732 C4730 1.561 . S
C4733 C4730 1.526 . S
C4733 C4734 1.396 . S
C4733 C4738 1.390 . S
C4734 C4728 1.465 . S
C4734 C4733 1.396 . S
C4734 C4735 1.399 . S
C4735 H4721 0.929 . S
C4735 C4734 1.399 . S
C4735 C4736 1.385 . S
C4736 H4722 0.931 . S
C4736 C4735 1.385 . S
C4736 C4737 1.389 . S
C4737 C4736 1.389 . S
C4737 C4738 1.387 . S
C4738 H4723 0.930 . S
C4738 C4733 1.390 . S
C4738 C4737 1.387 . S
H4739 C4751 0.930 . S
H4740 C4753 0.930 . S
H4741 C4754 0.930 . S
H4742 C4758 0.959 . S
H4743 C4758 0.959 . S
H4744 C4758 0.961 . S
H4745 C4759 0.960 . S
H4746 C4759 0.961 . S
H4747 C4759 0.959 . S
H4748 C4762 0.929 . S
H4749 C4763 0.931 . S
H4750 C4765 0.930 . S
C4751 H4739 0.930 . S
C4751 C4752 1.399 . S
C4751 C4756 1.399 . S
C4752 C4751 1.399 . S
C4752 C4753 1.376 . S
C4753 H4740 0.930 . S
C4753 C4752 1.376 . S
C4753 C4754 1.388 . S
C4754 H4741 0.930 . S
C4754 C4753 1.388 . S
C4754 C4755 1.390 . S
C4755 C4754 1.390 . S
C4755 C4756 1.394 . S
C4755 C4761 1.465 . S
C4756 C4751 1.399 . S
C4756 C4755 1.394 . S
C4756 C4757 1.516 . S
C4757 C4756 1.516 . S
C4757 C4758 1.502 . S
C4757 C4759 1.561 . S
C4757 C4760 1.526 . S
C4758 H4742 0.959 . S
C4758 H4743 0.959 . S
C4758 H4744 0.961 . S
C4758 C4757 1.502 . S
C4759 H4745 0.960 . S
C4759 H4746 0.961 . S
C4759 H4747 0.959 . S
C4759 C4757 1.561 . S
C4760 C4757 1.526 . S
C4760 C4761 1.396 . S
C4760 C4765 1.390 . S
C4761 C4755 1.465 . S
C4761 C4760 1.396 . S
C4761 C4762 1.399 . S
C4762 H4748 0.929 . S
C4762 C4761 1.399 . S
C4762 C4763 1.385 . S
C4763 H4749 0.931 . S
C4763 C4762 1.385 . S
C4763 C4764 1.389 . S
C4764 C4763 1.389 . S
C4764 C4765 1.387 . S
C4765 H4750 0.930 . S
C4765 C4760 1.390 . S
C4765 C4764 1.387 . S
H4766 C4778 0.930 . S
H4767 C4780 0.930 . S
H4768 C4781 0.930 . S
H4769 C4785 0.959 . S
H4770 C4785 0.959 . S
H4771 C4785 0.961 . S
H4772 C4786 0.960 . S
H4773 C4786 0.961 . S
H4774 C4786 0.959 . S
H4775 C4789 0.929 . S
H4776 C4790 0.931 . S
H4777 C4792 0.930 . S
C4778 H4766 0.930 . S
C4778 C4779 1.399 . S
C4778 C4783 1.399 . S
C4779 C4778 1.399 . S
C4779 C4780 1.376 . S
C4780 H4767 0.930 . S
C4780 C4779 1.376 . S
C4780 C4781 1.388 . S
C4781 H4768 0.930 . S
C4781 C4780 1.388 . S
C4781 C4782 1.390 . S
C4782 C4781 1.390 . S
C4782 C4783 1.394 . S
C4782 C4788 1.465 . S
C4783 C4778 1.399 . S
C4783 C4782 1.394 . S
C4783 C4784 1.516 . S
C4784 C4783 1.516 . S
C4784 C4785 1.502 . S
C4784 C4786 1.561 . S
C4784 C4787 1.526 . S
C4785 H4769 0.959 . S
C4785 H4770 0.959 . S
C4785 H4771 0.961 . S
C4785 C4784 1.502 . S
C4786 H4772 0.960 . S
C4786 H4773 0.961 . S
C4786 H4774 0.959 . S
C4786 C4784 1.561 . S
C4787 C4784 1.526 . S
C4787 C4788 1.396 . S
C4787 C4792 1.390 . S
C4788 C4782 1.465 . S
C4788 C4787 1.396 . S
C4788 C4789 1.399 . S
C4789 H4775 0.929 . S
C4789 C4788 1.399 . S
C4789 C4790 1.385 . S
C4790 H4776 0.931 . S
C4790 C4789 1.385 . S
C4790 C4791 1.389 . S
C4791 C4790 1.389 . S
C4791 C4792 1.387 . S
C4792 H4777 0.930 . S
C4792 C4787 1.390 . S
C4792 C4791 1.387 . S
H4793 C4805 0.930 . S
H4794 C4807 0.930 . S
H4795 C4808 0.930 . S
H4796 C4812 0.959 . S
H4797 C4812 0.959 . S
H4798 C4812 0.961 . S
H4799 C4813 0.960 . S
H4800 C4813 0.961 . S
H4801 C4813 0.959 . S
H4802 C4816 0.929 . S
H4803 C4817 0.931 . S
H4804 C4819 0.930 . S
C4805 H4793 0.930 . S
C4805 C4806 1.399 . S
C4805 C4810 1.399 . S
C4806 C4805 1.399 . S
C4806 C4807 1.376 . S
C4807 H4794 0.930 . S
C4807 C4806 1.376 . S
C4807 C4808 1.388 . S
C4808 H4795 0.930 . S
C4808 C4807 1.388 . S
C4808 C4809 1.390 . S
C4809 C4808 1.390 . S
C4809 C4810 1.394 . S
C4809 C4815 1.465 . S
C4810 C4805 1.399 . S
C4810 C4809 1.394 . S
C4810 C4811 1.516 . S
C4811 C4810 1.516 . S
C4811 C4812 1.502 . S
C4811 C4813 1.561 . S
C4811 C4814 1.526 . S
C4812 H4796 0.959 . S
C4812 H4797 0.959 . S
C4812 H4798 0.961 . S
C4812 C4811 1.502 . S
C4813 H4799 0.960 . S
C4813 H4800 0.961 . S
C4813 H4801 0.959 . S
C4813 C4811 1.561 . S
C4814 C4811 1.526 . S
C4814 C4815 1.396 . S
C4814 C4819 1.390 . S
C4815 C4809 1.465 . S
C4815 C4814 1.396 . S
C4815 C4816 1.399 . S
C4816 H4802 0.929 . S
C4816 C4815 1.399 . S
C4816 C4817 1.385 . S
C4817 H4803 0.931 . S
C4817 C4816 1.385 . S
C4817 C4818 1.389 . S
C4818 C4817 1.389 . S
C4818 C4819 1.387 . S
C4819 H4804 0.930 . S
C4819 C4814 1.390 . S
C4819 C4818 1.387 . S
H4820 C4832 0.930 . S
H4821 C4834 0.930 . S
H4822 C4835 0.930 . S
H4823 C4839 0.959 . S
H4824 C4839 0.959 . S
H4825 C4839 0.961 . S
H4826 C4840 0.960 . S
H4827 C4840 0.961 . S
H4828 C4840 0.959 . S
H4829 C4843 0.929 . S
H4830 C4844 0.931 . S
H4831 C4846 0.930 . S
C4832 H4820 0.930 . S
C4832 C4833 1.399 . S
C4832 C4837 1.399 . S
C4833 C4832 1.399 . S
C4833 C4834 1.376 . S
C4834 H4821 0.930 . S
C4834 C4833 1.376 . S
C4834 C4835 1.388 . S
C4835 H4822 0.930 . S
C4835 C4834 1.388 . S
C4835 C4836 1.390 . S
C4836 C4835 1.390 . S
C4836 C4837 1.394 . S
C4836 C4842 1.465 . S
C4837 C4832 1.399 . S
C4837 C4836 1.394 . S
C4837 C4838 1.516 . S
C4838 C4837 1.516 . S
C4838 C4839 1.502 . S
C4838 C4840 1.561 . S
C4838 C4841 1.526 . S
C4839 H4823 0.959 . S
C4839 H4824 0.959 . S
C4839 H4825 0.961 . S
C4839 C4838 1.502 . S
C4840 H4826 0.960 . S
C4840 H4827 0.961 . S
C4840 H4828 0.959 . S
C4840 C4838 1.561 . S
C4841 C4838 1.526 . S
C4841 C4842 1.396 . S
C4841 C4846 1.390 . S
C4842 C4836 1.465 . S
C4842 C4841 1.396 . S
C4842 C4843 1.399 . S
C4843 H4829 0.929 . S
C4843 C4842 1.399 . S
C4843 C4844 1.385 . S
C4844 H4830 0.931 . S
C4844 C4843 1.385 . S
C4844 C4845 1.389 . S
C4845 C4844 1.389 . S
C4845 C4846 1.387 . S
C4846 H4831 0.930 . S
C4846 C4841 1.390 . S
C4846 C4845 1.387 . S
H4847 C4859 0.930 . S
H4848 C4861 0.930 . S
H4849 C4862 0.930 . S
H4850 C4866 0.959 . S
H4851 C4866 0.959 . S
H4852 C4866 0.961 . S
H4853 C4867 0.960 . S
H4854 C4867 0.961 . S
H4855 C4867 0.959 . S
H4856 C4870 0.929 . S
H4857 C4871 0.931 . S
H4858 C4873 0.930 . S
C4859 H4847 0.930 . S
C4859 C4860 1.399 . S
C4859 C4864 1.399 . S
C4860 C4859 1.399 . S
C4860 C4861 1.376 . S
C4861 H4848 0.930 . S
C4861 C4860 1.376 . S
C4861 C4862 1.388 . S
C4862 H4849 0.930 . S
C4862 C4861 1.388 . S
C4862 C4863 1.390 . S
C4863 C4862 1.390 . S
C4863 C4864 1.394 . S
C4863 C4869 1.465 . S
C4864 C4859 1.399 . S
C4864 C4863 1.394 . S
C4864 C4865 1.516 . S
C4865 C4864 1.516 . S
C4865 C4866 1.502 . S
C4865 C4867 1.561 . S
C4865 C4868 1.526 . S
C4866 H4850 0.959 . S
C4866 H4851 0.959 . S
C4866 H4852 0.961 . S
C4866 C4865 1.502 . S
C4867 H4853 0.960 . S
C4867 H4854 0.961 . S
C4867 H4855 0.959 . S
C4867 C4865 1.561 . S
C4868 C4865 1.526 . S
C4868 C4869 1.396 . S
C4868 C4873 1.390 . S
C4869 C4863 1.465 . S
C4869 C4868 1.396 . S
C4869 C4870 1.399 . S
C4870 H4856 0.929 . S
C4870 C4869 1.399 . S
C4870 C4871 1.385 . S
C4871 H4857 0.931 . S
C4871 C4870 1.385 . S
C4871 C4872 1.389 . S
C4872 C4871 1.389 . S
C4872 C4873 1.387 . S
C4873 H4858 0.930 . S
C4873 C4868 1.390 . S
C4873 C4872 1.387 . S
H4874 C4886 0.930 . S
H4875 C4888 0.930 . S
H4876 C4889 0.930 . S
H4877 C4893 0.959 . S
H4878 C4893 0.959 . S
H4879 C4893 0.961 . S
H4880 C4894 0.960 . S
H4881 C4894 0.961 . S
H4882 C4894 0.959 . S
H4883 C4897 0.929 . S
H4884 C4898 0.931 . S
H4885 C4900 0.930 . S
C4886 H4874 0.930 . S
C4886 C4887 1.399 . S
C4886 C4891 1.399 . S
C4887 C4886 1.399 . S
C4887 C4888 1.376 . S
C4888 H4875 0.930 . S
C4888 C4887 1.376 . S
C4888 C4889 1.388 . S
C4889 H4876 0.930 . S
C4889 C4888 1.388 . S
C4889 C4890 1.390 . S
C4890 C4889 1.390 . S
C4890 C4891 1.394 . S
C4890 C4896 1.465 . S
C4891 C4886 1.399 . S
C4891 C4890 1.394 . S
C4891 C4892 1.516 . S
C4892 C4891 1.516 . S
C4892 C4893 1.502 . S
C4892 C4894 1.561 . S
C4892 C4895 1.526 . S
C4893 H4877 0.959 . S
C4893 H4878 0.959 . S
C4893 H4879 0.961 . S
C4893 C4892 1.502 . S
C4894 H4880 0.960 . S
C4894 H4881 0.961 . S
C4894 H4882 0.959 . S
C4894 C4892 1.561 . S
C4895 C4892 1.526 . S
C4895 C4896 1.396 . S
C4895 C4900 1.390 . S
C4896 C4890 1.465 . S
C4896 C4895 1.396 . S
C4896 C4897 1.399 . S
C4897 H4883 0.929 . S
C4897 C4896 1.399 . S
C4897 C4898 1.385 . S
C4898 H4884 0.931 . S
C4898 C4897 1.385 . S
C4898 C4899 1.389 . S
C4899 C4898 1.389 . S
C4899 C4900 1.387 . S
C4900 H4885 0.930 . S
C4900 C4895 1.390 . S
C4900 C4899 1.387 . S
H4901 C4913 0.930 . S
H4902 C4915 0.930 . S
H4903 C4916 0.930 . S
H4904 C4920 0.959 . S
H4905 C4920 0.959 . S
H4906 C4920 0.961 . S
H4907 C4921 0.960 . S
H4908 C4921 0.961 . S
H4909 C4921 0.959 . S
H4910 C4924 0.929 . S
H4911 C4925 0.931 . S
H4912 C4927 0.930 . S
C4913 H4901 0.930 . S
C4913 C4914 1.399 . S
C4913 C4918 1.399 . S
C4914 C4913 1.399 . S
C4914 C4915 1.376 . S
C4915 H4902 0.930 . S
C4915 C4914 1.376 . S
C4915 C4916 1.388 . S
C4916 H4903 0.930 . S
C4916 C4915 1.388 . S
C4916 C4917 1.390 . S
C4917 C4916 1.390 . S
C4917 C4918 1.394 . S
C4917 C4923 1.465 . S
C4918 C4913 1.399 . S
C4918 C4917 1.394 . S
C4918 C4919 1.516 . S
C4919 C4918 1.516 . S
C4919 C4920 1.502 . S
C4919 C4921 1.561 . S
C4919 C4922 1.526 . S
C4920 H4904 0.959 . S
C4920 H4905 0.959 . S
C4920 H4906 0.961 . S
C4920 C4919 1.502 . S
C4921 H4907 0.960 . S
C4921 H4908 0.961 . S
C4921 H4909 0.959 . S
C4921 C4919 1.561 . S
C4922 C4919 1.526 . S
C4922 C4923 1.396 . S
C4922 C4927 1.390 . S
C4923 C4917 1.465 . S
C4923 C4922 1.396 . S
C4923 C4924 1.399 . S
C4924 H4910 0.929 . S
C4924 C4923 1.399 . S
C4924 C4925 1.385 . S
C4925 H4911 0.931 . S
C4925 C4924 1.385 . S
C4925 C4926 1.389 . S
C4926 C4925 1.389 . S
C4926 C4927 1.387 . S
C4927 H4912 0.930 . S
C4927 C4922 1.390 . S
C4927 C4926 1.387 . S
H4928 C4940 0.930 . S
H4929 C4942 0.930 . S
H4930 C4943 0.930 . S
H4931 C4947 0.959 . S
H4932 C4947 0.959 . S
H4933 C4947 0.961 . S
H4934 C4948 0.960 . S
H4935 C4948 0.961 . S
H4936 C4948 0.959 . S
H4937 C4951 0.929 . S
H4938 C4952 0.931 . S
H4939 C4954 0.930 . S
C4940 H4928 0.930 . S
C4940 C4941 1.399 . S
C4940 C4945 1.399 . S
C4941 C4940 1.399 . S
C4941 C4942 1.376 . S
C4942 H4929 0.930 . S
C4942 C4941 1.376 . S
C4942 C4943 1.388 . S
C4943 H4930 0.930 . S
C4943 C4942 1.388 . S
C4943 C4944 1.390 . S
C4944 C4943 1.390 . S
C4944 C4945 1.394 . S
C4944 C4950 1.465 . S
C4945 C4940 1.399 . S
C4945 C4944 1.394 . S
C4945 C4946 1.516 . S
C4946 C4945 1.516 . S
C4946 C4947 1.502 . S
C4946 C4948 1.561 . S
C4946 C4949 1.526 . S
C4947 H4931 0.959 . S
C4947 H4932 0.959 . S
C4947 H4933 0.961 . S
C4947 C4946 1.502 . S
C4948 H4934 0.960 . S
C4948 H4935 0.961 . S
C4948 H4936 0.959 . S
C4948 C4946 1.561 . S
C4949 C4946 1.526 . S
C4949 C4950 1.396 . S
C4949 C4954 1.390 . S
C4950 C4944 1.465 . S
C4950 C4949 1.396 . S
C4950 C4951 1.399 . S
C4951 H4937 0.929 . S
C4951 C4950 1.399 . S
C4951 C4952 1.385 . S
C4952 H4938 0.931 . S
C4952 C4951 1.385 . S
C4952 C4953 1.389 . S
C4953 C4952 1.389 . S
C4953 C4954 1.387 . S
C4954 H4939 0.930 . S
C4954 C4949 1.390 . S
C4954 C4953 1.387 . S
H4955 C4967 0.930 . S
H4956 C4969 0.930 . S
H4957 C4970 0.930 . S
H4958 C4974 0.959 . S
H4959 C4974 0.959 . S
H4960 C4974 0.961 . S
H4961 C4975 0.960 . S
H4962 C4975 0.961 . S
H4963 C4975 0.959 . S
H4964 C4978 0.929 . S
H4965 C4979 0.931 . S
H4966 C4981 0.930 . S
C4967 H4955 0.930 . S
C4967 C4968 1.399 . S
C4967 C4972 1.399 . S
C4968 C4967 1.399 . S
C4968 C4969 1.376 . S
C4969 H4956 0.930 . S
C4969 C4968 1.376 . S
C4969 C4970 1.388 . S
C4970 H4957 0.930 . S
C4970 C4969 1.388 . S
C4970 C4971 1.390 . S
C4971 C4970 1.390 . S
C4971 C4972 1.394 . S
C4971 C4977 1.465 . S
C4972 C4967 1.399 . S
C4972 C4971 1.394 . S
C4972 C4973 1.516 . S
C4973 C4972 1.516 . S
C4973 C4974 1.502 . S
C4973 C4975 1.561 . S
C4973 C4976 1.526 . S
C4974 H4958 0.959 . S
C4974 H4959 0.959 . S
C4974 H4960 0.961 . S
C4974 C4973 1.502 . S
C4975 H4961 0.960 . S
C4975 H4962 0.961 . S
C4975 H4963 0.959 . S
C4975 C4973 1.561 . S
C4976 C4973 1.526 . S
C4976 C4977 1.396 . S
C4976 C4981 1.390 . S
C4977 C4971 1.465 . S
C4977 C4976 1.396 . S
C4977 C4978 1.399 . S
C4978 H4964 0.929 . S
C4978 C4977 1.399 . S
C4978 C4979 1.385 . S
C4979 H4965 0.931 . S
C4979 C4978 1.385 . S
C4979 C4980 1.389 . S
C4980 C4979 1.389 . S
C4980 C4981 1.387 . S
C4981 H4966 0.930 . S
C4981 C4976 1.390 . S
C4981 C4980 1.387 . S
H4982 C4994 0.930 . S
H4983 C4996 0.930 . S
H4984 C4997 0.930 . S
H4985 C5001 0.959 . S
H4986 C5001 0.959 . S
H4987 C5001 0.961 . S
H4988 C5002 0.960 . S
H4989 C5002 0.961 . S
H4990 C5002 0.959 . S
H4991 C5005 0.929 . S
H4992 C5006 0.931 . S
H4993 C5008 0.930 . S
C4994 H4982 0.930 . S
C4994 C4995 1.399 . S
C4994 C4999 1.399 . S
C4995 C4994 1.399 . S
C4995 C4996 1.376 . S
C4996 H4983 0.930 . S
C4996 C4995 1.376 . S
C4996 C4997 1.388 . S
C4997 H4984 0.930 . S
C4997 C4996 1.388 . S
C4997 C4998 1.390 . S
C4998 C4997 1.390 . S
C4998 C4999 1.394 . S
C4998 C5004 1.465 . S
C4999 C4994 1.399 . S
C4999 C4998 1.394 . S
C4999 C5000 1.516 . S
C5000 C4999 1.516 . S
C5000 C5001 1.502 . S
C5000 C5002 1.561 . S
C5000 C5003 1.526 . S
C5001 H4985 0.959 . S
C5001 H4986 0.959 . S
C5001 H4987 0.961 . S
C5001 C5000 1.502 . S
C5002 H4988 0.960 . S
C5002 H4989 0.961 . S
C5002 H4990 0.959 . S
C5002 C5000 1.561 . S
C5003 C5000 1.526 . S
C5003 C5004 1.396 . S
C5003 C5008 1.390 . S
C5004 C4998 1.465 . S
C5004 C5003 1.396 . S
C5004 C5005 1.399 . S
C5005 H4991 0.929 . S
C5005 C5004 1.399 . S
C5005 C5006 1.385 . S
C5006 H4992 0.931 . S
C5006 C5005 1.385 . S
C5006 C5007 1.389 . S
C5007 C5006 1.389 . S
C5007 C5008 1.387 . S
C5008 H4993 0.930 . S
C5008 C5003 1.390 . S
C5008 C5007 1.387 . S
H5009 C5021 0.930 . S
H5010 C5023 0.930 . S
H5011 C5024 0.930 . S
H5012 C5028 0.959 . S
H5013 C5028 0.959 . S
H5014 C5028 0.961 . S
H5015 C5029 0.960 . S
H5016 C5029 0.961 . S
H5017 C5029 0.959 . S
H5018 C5032 0.929 . S
H5019 C5033 0.931 . S
H5020 C5035 0.930 . S
C5021 H5009 0.930 . S
C5021 C5022 1.399 . S
C5021 C5026 1.399 . S
C5022 C5021 1.399 . S
C5022 C5023 1.376 . S
C5023 H5010 0.930 . S
C5023 C5022 1.376 . S
C5023 C5024 1.388 . S
C5024 H5011 0.930 . S
C5024 C5023 1.388 . S
C5024 C5025 1.390 . S
C5025 C5024 1.390 . S
C5025 C5026 1.394 . S
C5025 C5031 1.465 . S
C5026 C5021 1.399 . S
C5026 C5025 1.394 . S
C5026 C5027 1.516 . S
C5027 C5026 1.516 . S
C5027 C5028 1.502 . S
C5027 C5029 1.561 . S
C5027 C5030 1.526 . S
C5028 H5012 0.959 . S
C5028 H5013 0.959 . S
C5028 H5014 0.961 . S
C5028 C5027 1.502 . S
C5029 H5015 0.960 . S
C5029 H5016 0.961 . S
C5029 H5017 0.959 . S
C5029 C5027 1.561 . S
C5030 C5027 1.526 . S
C5030 C5031 1.396 . S
C5030 C5035 1.390 . S
C5031 C5025 1.465 . S
C5031 C5030 1.396 . S
C5031 C5032 1.399 . S
C5032 H5018 0.929 . S
C5032 C5031 1.399 . S
C5032 C5033 1.385 . S
C5033 H5019 0.931 . S
C5033 C5032 1.385 . S
C5033 C5034 1.389 . S
C5034 C5033 1.389 . S
C5034 C5035 1.387 . S
C5035 H5020 0.930 . S
C5035 C5030 1.390 . S
C5035 C5034 1.387 . S
H5036 C5048 0.930 . S
H5037 C5050 0.930 . S
H5038 C5051 0.930 . S
H5039 C5055 0.959 . S
H5040 C5055 0.959 . S
H5041 C5055 0.961 . S
H5042 C5056 0.960 . S
H5043 C5056 0.961 . S
H5044 C5056 0.959 . S
H5045 C5059 0.929 . S
H5046 C5060 0.931 . S
H5047 C5062 0.930 . S
C5048 H5036 0.930 . S
C5048 C5049 1.399 . S
C5048 C5053 1.399 . S
C5049 C5048 1.399 . S
C5049 C5050 1.376 . S
C5050 H5037 0.930 . S
C5050 C5049 1.376 . S
C5050 C5051 1.388 . S
C5051 H5038 0.930 . S
C5051 C5050 1.388 . S
C5051 C5052 1.390 . S
C5052 C5051 1.390 . S
C5052 C5053 1.394 . S
C5052 C5058 1.465 . S
C5053 C5048 1.399 . S
C5053 C5052 1.394 . S
C5053 C5054 1.516 . S
C5054 C5053 1.516 . S
C5054 C5055 1.502 . S
C5054 C5056 1.561 . S
C5054 C5057 1.526 . S
C5055 H5039 0.959 . S
C5055 H5040 0.959 . S
C5055 H5041 0.961 . S
C5055 C5054 1.502 . S
C5056 H5042 0.960 . S
C5056 H5043 0.961 . S
C5056 H5044 0.959 . S
C5056 C5054 1.561 . S
C5057 C5054 1.526 . S
C5057 C5058 1.396 . S
C5057 C5062 1.390 . S
C5058 C5052 1.465 . S
C5058 C5057 1.396 . S
C5058 C5059 1.399 . S
C5059 H5045 0.929 . S
C5059 C5058 1.399 . S
C5059 C5060 1.385 . S
C5060 H5046 0.931 . S
C5060 C5059 1.385 . S
C5060 C5061 1.389 . S
C5061 C5060 1.389 . S
C5061 C5062 1.387 . S
C5062 H5047 0.930 . S
C5062 C5057 1.390 . S
C5062 C5061 1.387 . S
H5063 C5075 0.930 . S
H5064 C5077 0.930 . S
H5065 C5078 0.930 . S
H5066 C5082 0.959 . S
H5067 C5082 0.959 . S
H5068 C5082 0.961 . S
H5069 C5083 0.960 . S
H5070 C5083 0.961 . S
H5071 C5083 0.959 . S
H5072 C5086 0.929 . S
H5073 C5087 0.931 . S
H5074 C5089 0.930 . S
C5075 H5063 0.930 . S
C5075 C5076 1.399 . S
C5075 C5080 1.399 . S
C5076 C5075 1.399 . S
C5076 C5077 1.376 . S
C5077 H5064 0.930 . S
C5077 C5076 1.376 . S
C5077 C5078 1.388 . S
C5078 H5065 0.930 . S
C5078 C5077 1.388 . S
C5078 C5079 1.390 . S
C5079 C5078 1.390 . S
C5079 C5080 1.394 . S
C5079 C5085 1.465 . S
C5080 C5075 1.399 . S
C5080 C5079 1.394 . S
C5080 C5081 1.516 . S
C5081 C5080 1.516 . S
C5081 C5082 1.502 . S
C5081 C5083 1.561 . S
C5081 C5084 1.526 . S
C5082 H5066 0.959 . S
C5082 H5067 0.959 . S
C5082 H5068 0.961 . S
C5082 C5081 1.502 . S
C5083 H5069 0.960 . S
C5083 H5070 0.961 . S
C5083 H5071 0.959 . S
C5083 C5081 1.561 . S
C5084 C5081 1.526 . S
C5084 C5085 1.396 . S
C5084 C5089 1.390 . S
C5085 C5079 1.465 . S
C5085 C5084 1.396 . S
C5085 C5086 1.399 . S
C5086 H5072 0.929 . S
C5086 C5085 1.399 . S
C5086 C5087 1.385 . S
C5087 H5073 0.931 . S
C5087 C5086 1.385 . S
C5087 C5088 1.389 . S
C5088 C5087 1.389 . S
C5088 C5089 1.387 . S
C5089 H5074 0.930 . S
C5089 C5084 1.390 . S
C5089 C5088 1.387 . S
H5090 C5102 0.930 . S
H5091 C5104 0.930 . S
H5092 C5105 0.930 . S
H5093 C5109 0.959 . S
H5094 C5109 0.959 . S
H5095 C5109 0.961 . S
H5096 C5110 0.960 . S
H5097 C5110 0.961 . S
H5098 C5110 0.959 . S
H5099 C5113 0.929 . S
H5100 C5114 0.931 . S
H5101 C5116 0.930 . S
C5102 H5090 0.930 . S
C5102 C5103 1.399 . S
C5102 C5107 1.399 . S
C5103 C5102 1.399 . S
C5103 C5104 1.376 . S
C5104 H5091 0.930 . S
C5104 C5103 1.376 . S
C5104 C5105 1.388 . S
C5105 H5092 0.930 . S
C5105 C5104 1.388 . S
C5105 C5106 1.390 . S
C5106 C5105 1.390 . S
C5106 C5107 1.394 . S
C5106 C5112 1.465 . S
C5107 C5102 1.399 . S
C5107 C5106 1.394 . S
C5107 C5108 1.516 . S
C5108 C5107 1.516 . S
C5108 C5109 1.502 . S
C5108 C5110 1.561 . S
C5108 C5111 1.526 . S
C5109 H5093 0.959 . S
C5109 H5094 0.959 . S
C5109 H5095 0.961 . S
C5109 C5108 1.502 . S
C5110 H5096 0.960 . S
C5110 H5097 0.961 . S
C5110 H5098 0.959 . S
C5110 C5108 1.561 . S
C5111 C5108 1.526 . S
C5111 C5112 1.396 . S
C5111 C5116 1.390 . S
C5112 C5106 1.465 . S
C5112 C5111 1.396 . S
C5112 C5113 1.399 . S
C5113 H5099 0.929 . S
C5113 C5112 1.399 . S
C5113 C5114 1.385 . S
C5114 H5100 0.931 . S
C5114 C5113 1.385 . S
C5114 C5115 1.389 . S
C5115 C5114 1.389 . S
C5115 C5116 1.387 . S
C5116 H5101 0.930 . S
C5116 C5111 1.390 . S
C5116 C5115 1.387 . S
H5117 C5129 0.930 . S
H5118 C5131 0.930 . S
H5119 C5132 0.930 . S
H5120 C5136 0.959 . S
H5121 C5136 0.959 . S
H5122 C5136 0.961 . S
H5123 C5137 0.960 . S
H5124 C5137 0.961 . S
H5125 C5137 0.959 . S
H5126 C5140 0.929 . S
H5127 C5141 0.931 . S
H5128 C5143 0.930 . S
C5129 H5117 0.930 . S
C5129 C5130 1.399 . S
C5129 C5134 1.399 . S
C5130 C5129 1.399 . S
C5130 C5131 1.376 . S
C5131 H5118 0.930 . S
C5131 C5130 1.376 . S
C5131 C5132 1.388 . S
C5132 H5119 0.930 . S
C5132 C5131 1.388 . S
C5132 C5133 1.390 . S
C5133 C5132 1.390 . S
C5133 C5134 1.394 . S
C5133 C5139 1.465 . S
C5134 C5129 1.399 . S
C5134 C5133 1.394 . S
C5134 C5135 1.516 . S
C5135 C5134 1.516 . S
C5135 C5136 1.502 . S
C5135 C5137 1.561 . S
C5135 C5138 1.526 . S
C5136 H5120 0.959 . S
C5136 H5121 0.959 . S
C5136 H5122 0.961 . S
C5136 C5135 1.502 . S
C5137 H5123 0.960 . S
C5137 H5124 0.961 . S
C5137 H5125 0.959 . S
C5137 C5135 1.561 . S
C5138 C5135 1.526 . S
C5138 C5139 1.396 . S
C5138 C5143 1.390 . S
C5139 C5133 1.465 . S
C5139 C5138 1.396 . S
C5139 C5140 1.399 . S
C5140 H5126 0.929 . S
C5140 C5139 1.399 . S
C5140 C5141 1.385 . S
C5141 H5127 0.931 . S
C5141 C5140 1.385 . S
C5141 C5142 1.389 . S
C5142 C5141 1.389 . S
C5142 C5143 1.387 . S
C5143 H5128 0.930 . S
C5143 C5138 1.390 . S
C5143 C5142 1.387 . S
H5144 C5156 0.930 . S
H5145 C5158 0.930 . S
H5146 C5159 0.930 . S
H5147 C5163 0.959 . S
H5148 C5163 0.959 . S
H5149 C5163 0.961 . S
H5150 C5164 0.960 . S
H5151 C5164 0.961 . S
H5152 C5164 0.959 . S
H5153 C5167 0.929 . S
H5154 C5168 0.931 . S
H5155 C5170 0.930 . S
C5156 H5144 0.930 . S
C5156 C5157 1.399 . S
C5156 C5161 1.399 . S
C5157 C5156 1.399 . S
C5157 C5158 1.376 . S
C5158 H5145 0.930 . S
C5158 C5157 1.376 . S
C5158 C5159 1.388 . S
C5159 H5146 0.930 . S
C5159 C5158 1.388 . S
C5159 C5160 1.390 . S
C5160 C5159 1.390 . S
C5160 C5161 1.394 . S
C5160 C5166 1.465 . S
C5161 C5156 1.399 . S
C5161 C5160 1.394 . S
C5161 C5162 1.516 . S
C5162 C5161 1.516 . S
C5162 C5163 1.502 . S
C5162 C5164 1.561 . S
C5162 C5165 1.526 . S
C5163 H5147 0.959 . S
C5163 H5148 0.959 . S
C5163 H5149 0.961 . S
C5163 C5162 1.502 . S
C5164 H5150 0.960 . S
C5164 H5151 0.961 . S
C5164 H5152 0.959 . S
C5164 C5162 1.561 . S
C5165 C5162 1.526 . S
C5165 C5166 1.396 . S
C5165 C5170 1.390 . S
C5166 C5160 1.465 . S
C5166 C5165 1.396 . S
C5166 C5167 1.399 . S
C5167 H5153 0.929 . S
C5167 C5166 1.399 . S
C5167 C5168 1.385 . S
C5168 H5154 0.931 . S
C5168 C5167 1.385 . S
C5168 C5169 1.389 . S
C5169 C5168 1.389 . S
C5169 C5170 1.387 . S
C5170 H5155 0.930 . S
C5170 C5165 1.390 . S
C5170 C5169 1.387 . S
H5171 C5183 0.930 . S
H5172 C5185 0.930 . S
H5173 C5186 0.930 . S
H5174 C5190 0.959 . S
H5175 C5190 0.959 . S
H5176 C5190 0.961 . S
H5177 C5191 0.960 . S
H5178 C5191 0.961 . S
H5179 C5191 0.959 . S
H5180 C5194 0.929 . S
H5181 C5195 0.931 . S
H5182 C5197 0.930 . S
C5183 H5171 0.930 . S
C5183 C5184 1.399 . S
C5183 C5188 1.399 . S
C5184 C5183 1.399 . S
C5184 C5185 1.376 . S
C5185 H5172 0.930 . S
C5185 C5184 1.376 . S
C5185 C5186 1.388 . S
C5186 H5173 0.930 . S
C5186 C5185 1.388 . S
C5186 C5187 1.390 . S
C5187 C5186 1.390 . S
C5187 C5188 1.394 . S
C5187 C5193 1.465 . S
C5188 C5183 1.399 . S
C5188 C5187 1.394 . S
C5188 C5189 1.516 . S
C5189 C5188 1.516 . S
C5189 C5190 1.502 . S
C5189 C5191 1.561 . S
C5189 C5192 1.526 . S
C5190 H5174 0.959 . S
C5190 H5175 0.959 . S
C5190 H5176 0.961 . S
C5190 C5189 1.502 . S
C5191 H5177 0.960 . S
C5191 H5178 0.961 . S
C5191 H5179 0.959 . S
C5191 C5189 1.561 . S
C5192 C5189 1.526 . S
C5192 C5193 1.396 . S
C5192 C5197 1.390 . S
C5193 C5187 1.465 . S
C5193 C5192 1.396 . S
C5193 C5194 1.399 . S
C5194 H5180 0.929 . S
C5194 C5193 1.399 . S
C5194 C5195 1.385 . S
C5195 H5181 0.931 . S
C5195 C5194 1.385 . S
C5195 C5196 1.389 . S
C5196 C5195 1.389 . S
C5196 C5197 1.387 . S
C5197 H5182 0.930 . S
C5197 C5192 1.390 . S
C5197 C5196 1.387 . S
H5198 C5210 0.930 . S
H5199 C5212 0.930 . S
H5200 C5213 0.930 . S
H5201 C5217 0.959 . S
H5202 C5217 0.959 . S
H5203 C5217 0.961 . S
H5204 C5218 0.960 . S
H5205 C5218 0.961 . S
H5206 C5218 0.959 . S
H5207 C5221 0.929 . S
H5208 C5222 0.931 . S
H5209 C5224 0.930 . S
C5210 H5198 0.930 . S
C5210 C5211 1.399 . S
C5210 C5215 1.399 . S
C5211 C5210 1.399 . S
C5211 C5212 1.376 . S
C5212 H5199 0.930 . S
C5212 C5211 1.376 . S
C5212 C5213 1.388 . S
C5213 H5200 0.930 . S
C5213 C5212 1.388 . S
C5213 C5214 1.390 . S
C5214 C5213 1.390 . S
C5214 C5215 1.394 . S
C5214 C5220 1.465 . S
C5215 C5210 1.399 . S
C5215 C5214 1.394 . S
C5215 C5216 1.516 . S
C5216 C5215 1.516 . S
C5216 C5217 1.502 . S
C5216 C5218 1.561 . S
C5216 C5219 1.526 . S
C5217 H5201 0.959 . S
C5217 H5202 0.959 . S
C5217 H5203 0.961 . S
C5217 C5216 1.502 . S
C5218 H5204 0.960 . S
C5218 H5205 0.961 . S
C5218 H5206 0.959 . S
C5218 C5216 1.561 . S
C5219 C5216 1.526 . S
C5219 C5220 1.396 . S
C5219 C5224 1.390 . S
C5220 C5214 1.465 . S
C5220 C5219 1.396 . S
C5220 C5221 1.399 . S
C5221 H5207 0.929 . S
C5221 C5220 1.399 . S
C5221 C5222 1.385 . S
C5222 H5208 0.931 . S
C5222 C5221 1.385 . S
C5222 C5223 1.389 . S
C5223 C5222 1.389 . S
C5223 C5224 1.387 . S
C5224 H5209 0.930 . S
C5224 C5219 1.390 . S
C5224 C5223 1.387 . S
H5225 C5237 0.930 . S
H5226 C5239 0.930 . S
H5227 C5240 0.930 . S
H5228 C5244 0.959 . S
H5229 C5244 0.959 . S
H5230 C5244 0.961 . S
H5231 C5245 0.960 . S
H5232 C5245 0.961 . S
H5233 C5245 0.959 . S
H5234 C5248 0.929 . S
H5235 C5249 0.931 . S
H5236 C5251 0.930 . S
C5237 H5225 0.930 . S
C5237 C5238 1.399 . S
C5237 C5242 1.399 . S
C5238 C5237 1.399 . S
C5238 C5239 1.376 . S
C5239 H5226 0.930 . S
C5239 C5238 1.376 . S
C5239 C5240 1.388 . S
C5240 H5227 0.930 . S
C5240 C5239 1.388 . S
C5240 C5241 1.390 . S
C5241 C5240 1.390 . S
C5241 C5242 1.394 . S
C5241 C5247 1.465 . S
C5242 C5237 1.399 . S
C5242 C5241 1.394 . S
C5242 C5243 1.516 . S
C5243 C5242 1.516 . S
C5243 C5244 1.502 . S
C5243 C5245 1.561 . S
C5243 C5246 1.526 . S
C5244 H5228 0.959 . S
C5244 H5229 0.959 . S
C5244 H5230 0.961 . S
C5244 C5243 1.502 . S
C5245 H5231 0.960 . S
C5245 H5232 0.961 . S
C5245 H5233 0.959 . S
C5245 C5243 1.561 . S
C5246 C5243 1.526 . S
C5246 C5247 1.396 . S
C5246 C5251 1.390 . S
C5247 C5241 1.465 . S
C5247 C5246 1.396 . S
C5247 C5248 1.399 . S
C5248 H5234 0.929 . S
C5248 C5247 1.399 . S
C5248 C5249 1.385 . S
C5249 H5235 0.931 . S
C5249 C5248 1.385 . S
C5249 C5250 1.389 . S
C5250 C5249 1.389 . S
C5250 C5251 1.387 . S
C5251 H5236 0.930 . S
C5251 C5246 1.390 . S
C5251 C5250 1.387 . S
H5252 C5264 0.930 . S
H5253 C5266 0.930 . S
H5254 C5267 0.930 . S
H5255 C5271 0.959 . S
H5256 C5271 0.959 . S
H5257 C5271 0.961 . S
H5258 C5272 0.960 . S
H5259 C5272 0.961 . S
H5260 C5272 0.959 . S
H5261 C5275 0.929 . S
H5262 C5276 0.931 . S
H5263 C5278 0.930 . S
C5264 H5252 0.930 . S
C5264 C5265 1.399 . S
C5264 C5269 1.399 . S
C5265 C5264 1.399 . S
C5265 C5266 1.376 . S
C5266 H5253 0.930 . S
C5266 C5265 1.376 . S
C5266 C5267 1.388 . S
C5267 H5254 0.930 . S
C5267 C5266 1.388 . S
C5267 C5268 1.390 . S
C5268 C5267 1.390 . S
C5268 C5269 1.394 . S
C5268 C5274 1.465 . S
C5269 C5264 1.399 . S
C5269 C5268 1.394 . S
C5269 C5270 1.516 . S
C5270 C5269 1.516 . S
C5270 C5271 1.502 . S
C5270 C5272 1.561 . S
C5270 C5273 1.526 . S
C5271 H5255 0.959 . S
C5271 H5256 0.959 . S
C5271 H5257 0.961 . S
C5271 C5270 1.502 . S
C5272 H5258 0.960 . S
C5272 H5259 0.961 . S
C5272 H5260 0.959 . S
C5272 C5270 1.561 . S
C5273 C5270 1.526 . S
C5273 C5274 1.396 . S
C5273 C5278 1.390 . S
C5274 C5268 1.465 . S
C5274 C5273 1.396 . S
C5274 C5275 1.399 . S
C5275 H5261 0.929 . S
C5275 C5274 1.399 . S
C5275 C5276 1.385 . S
C5276 H5262 0.931 . S
C5276 C5275 1.385 . S
C5276 C5277 1.389 . S
C5277 C5276 1.389 . S
C5277 C5278 1.387 . S
C5278 H5263 0.930 . S
C5278 C5273 1.390 . S
C5278 C5277 1.387 . S
H5279 C5291 0.930 . S
H5280 C5293 0.930 . S
H5281 C5294 0.930 . S
H5282 C5298 0.959 . S
H5283 C5298 0.959 . S
H5284 C5298 0.961 . S
H5285 C5299 0.960 . S
H5286 C5299 0.961 . S
H5287 C5299 0.959 . S
H5288 C5302 0.929 . S
H5289 C5303 0.931 . S
H5290 C5305 0.930 . S
C5291 H5279 0.930 . S
C5291 C5292 1.399 . S
C5291 C5296 1.399 . S
C5292 C5291 1.399 . S
C5292 C5293 1.376 . S
C5293 H5280 0.930 . S
C5293 C5292 1.376 . S
C5293 C5294 1.388 . S
C5294 H5281 0.930 . S
C5294 C5293 1.388 . S
C5294 C5295 1.390 . S
C5295 C5294 1.390 . S
C5295 C5296 1.394 . S
C5295 C5301 1.465 . S
C5296 C5291 1.399 . S
C5296 C5295 1.394 . S
C5296 C5297 1.516 . S
C5297 C5296 1.516 . S
C5297 C5298 1.502 . S
C5297 C5299 1.561 . S
C5297 C5300 1.526 . S
C5298 H5282 0.959 . S
C5298 H5283 0.959 . S
C5298 H5284 0.961 . S
C5298 C5297 1.502 . S
C5299 H5285 0.960 . S
C5299 H5286 0.961 . S
C5299 H5287 0.959 . S
C5299 C5297 1.561 . S
C5300 C5297 1.526 . S
C5300 C5301 1.396 . S
C5300 C5305 1.390 . S
C5301 C5295 1.465 . S
C5301 C5300 1.396 . S
C5301 C5302 1.399 . S
C5302 H5288 0.929 . S
C5302 C5301 1.399 . S
C5302 C5303 1.385 . S
C5303 H5289 0.931 . S
C5303 C5302 1.385 . S
C5303 C5304 1.389 . S
C5304 C5303 1.389 . S
C5304 C5305 1.387 . S
C5305 H5290 0.930 . S
C5305 C5300 1.390 . S
C5305 C5304 1.387 . S
H5306 C5318 0.930 . S
H5307 C5320 0.930 . S
H5308 C5321 0.930 . S
H5309 C5325 0.959 . S
H5310 C5325 0.959 . S
H5311 C5325 0.961 . S
H5312 C5326 0.960 . S
H5313 C5326 0.961 . S
H5314 C5326 0.959 . S
H5315 C5329 0.929 . S
H5316 C5330 0.931 . S
H5317 C5332 0.930 . S
C5318 H5306 0.930 . S
C5318 C5319 1.399 . S
C5318 C5323 1.399 . S
C5319 C5318 1.399 . S
C5319 C5320 1.376 . S
C5320 H5307 0.930 . S
C5320 C5319 1.376 . S
C5320 C5321 1.388 . S
C5321 H5308 0.930 . S
C5321 C5320 1.388 . S
C5321 C5322 1.390 . S
C5322 C5321 1.390 . S
C5322 C5323 1.394 . S
C5322 C5328 1.465 . S
C5323 C5318 1.399 . S
C5323 C5322 1.394 . S
C5323 C5324 1.516 . S
C5324 C5323 1.516 . S
C5324 C5325 1.502 . S
C5324 C5326 1.561 . S
C5324 C5327 1.526 . S
C5325 H5309 0.959 . S
C5325 H5310 0.959 . S
C5325 H5311 0.961 . S
C5325 C5324 1.502 . S
C5326 H5312 0.960 . S
C5326 H5313 0.961 . S
C5326 H5314 0.959 . S
C5326 C5324 1.561 . S
C5327 C5324 1.526 . S
C5327 C5328 1.396 . S
C5327 C5332 1.390 . S
C5328 C5322 1.465 . S
C5328 C5327 1.396 . S
C5328 C5329 1.399 . S
C5329 H5315 0.929 . S
C5329 C5328 1.399 . S
C5329 C5330 1.385 . S
C5330 H5316 0.931 . S
C5330 C5329 1.385 . S
C5330 C5331 1.389 . S
C5331 C5330 1.389 . S
C5331 C5332 1.387 . S
C5332 H5317 0.930 . S
C5332 C5327 1.390 . S
C5332 C5331 1.387 . S
H5333 C5345 0.930 . S
H5334 C5347 0.930 . S
H5335 C5348 0.930 . S
H5336 C5352 0.959 . S
H5337 C5352 0.959 . S
H5338 C5352 0.961 . S
H5339 C5353 0.960 . S
H5340 C5353 0.961 . S
H5341 C5353 0.959 . S
H5342 C5356 0.929 . S
H5343 C5357 0.931 . S
H5344 C5359 0.930 . S
C5345 H5333 0.930 . S
C5345 C5346 1.399 . S
C5345 C5350 1.399 . S
C5346 C5345 1.399 . S
C5346 C5347 1.376 . S
C5347 H5334 0.930 . S
C5347 C5346 1.376 . S
C5347 C5348 1.388 . S
C5348 H5335 0.930 . S
C5348 C5347 1.388 . S
C5348 C5349 1.390 . S
C5349 C5348 1.390 . S
C5349 C5350 1.394 . S
C5349 C5355 1.465 . S
C5350 C5345 1.399 . S
C5350 C5349 1.394 . S
C5350 C5351 1.516 . S
C5351 C5350 1.516 . S
C5351 C5352 1.502 . S
C5351 C5353 1.561 . S
C5351 C5354 1.526 . S
C5352 H5336 0.959 . S
C5352 H5337 0.959 . S
C5352 H5338 0.961 . S
C5352 C5351 1.502 . S
C5353 H5339 0.960 . S
C5353 H5340 0.961 . S
C5353 H5341 0.959 . S
C5353 C5351 1.561 . S
C5354 C5351 1.526 . S
C5354 C5355 1.396 . S
C5354 C5359 1.390 . S
C5355 C5349 1.465 . S
C5355 C5354 1.396 . S
C5355 C5356 1.399 . S
C5356 H5342 0.929 . S
C5356 C5355 1.399 . S
C5356 C5357 1.385 . S
C5357 H5343 0.931 . S
C5357 C5356 1.385 . S
C5357 C5358 1.389 . S
C5358 C5357 1.389 . S
C5358 C5359 1.387 . S
C5359 H5344 0.930 . S
C5359 C5354 1.390 . S
C5359 C5358 1.387 . S
C2793 C1327 1.409 . S
C2781 C21 1.534 . S
C2820 C1389 1.413 . S
C2808 C42 1.495 . S
C2835 C82 1.517 . S
C2847 C1451 1.440 . S
C2874 C1519 1.450 . S
C2862 C135 1.450 . S
C2889 C175 1.408 . S
C2901 C1501 1.394 . S
C2916 C221 1.572 . S
C2928 C1309 1.545 . S
C2943 C255 1.615 . S
C2955 C1371 1.486 . S
C2982 C1433 1.550 . S
C2970 C301 1.624 . S
C3009 C1581 1.487 . S
C2997 C15 1.534 . S
C3024 C55 1.522 . S
C3036 C1619 1.353 . S
C3051 C101 1.616 . S
C3063 C1705 1.564 . S
C3090 C1749 1.456 . S
C3078 C141 1.539 . S
C3105 C162 1.390 . S
C3117 C1811 1.399 . S
C3144 C1873 1.547 . S
C3132 C215 1.572 . S
C3159 C261 1.596 . S
C3171 C1929 1.478 . S
C3198 C1991 1.481 . S
C3186 C282 1.557 . S
C3213 C2 1.587 . S
C3225 C1767 1.528 . S
C3240 C181 1.342 . S
C3252 C1891 1.410 . S
C3279 C1947 1.379 . S
C3267 C202 1.552 . S
C3294 C242 1.566 . S
C3306 C2009 1.493 . S
C3333 C1829 1.438 . S
C3321 C295 1.513 . S
C3360 C1637 1.457 . S
C3348 C95 1.624 . S
C3375 C122 1.510 . S
C3387 C1687 1.433 . S
C3414 C1563 1.513 . S
C3402 C61 1.564 . S
C3441 C2071 1.521 . S
C3429 C341 1.613 . S
C3456 C362 1.439 . S
C3468 C2121 1.401 . S
C3483 C402 1.525 . S
C3495 C2177 1.333 . S
C3522 C2263 1.486 . S
C3510 C455 1.500 . S
C3537 C495 1.484 . S
C3549 C2245 1.453 . S
C3564 C541 1.572 . S
C3576 C2053 1.548 . S
C3591 C575 1.514 . S
C3603 C2139 1.494 . S
C3618 C621 1.650 . S
C3630 C2195 1.527 . S
C3657 C1805 1.420 . S
C3645 C335 1.580 . S
C3672 C375 1.432 . S
C3684 C2325 1.441 . S
C3711 C1935 1.569 . S
C3699 C421 1.535 . S
C3726 C461 1.548 . S
C3738 C2387 1.468 . S
C3753 C482 1.444 . S
C3765 C1575 1.312 . S
C3792 C2431 1.532 . S
C3780 C535 1.578 . S
C3807 C581 1.565 . S
C3819 C1699 1.465 . S
C3846 C2487 1.507 . S
C3834 C602 1.601 . S
C3861 C322 1.659 . S
C3873 C2369 1.602 . S
C3900 C2449 1.374 . S
C3888 C501 1.477 . S
C3915 C522 1.544 . S
C3927 C1681 1.404 . S
C3954 C2505 1.426 . S
C3942 C562 1.523 . S
C3969 C615 1.659 . S
C3981 C1557 1.550 . S
C3996 C415 1.522 . S
C4008 C2307 1.439 . S
C4023 C442 1.497 . S
C4035 C1953 1.475 . S
C4050 C381 1.507 . S
C4062 C1823 1.423 . S
C4077 C661 1.443 . S
C4089 C2183 1.438 . S
C4116 C2257 1.262 . S
C4104 C682 1.456 . S
C4131 C722 1.529 . S
C4143 C2077 1.461 . S
C4158 C775 1.547 . S
C4170 C2115 1.346 . S
C4185 C815 1.555 . S
C4197 C2133 1.440 . S
C4212 C861 1.569 . S
C4224 C2201 1.528 . S
C4251 C2239 1.412 . S
C4239 C895 1.588 . S
C4266 C941 1.604 . S
C4278 C2059 1.546 . S
C4305 C2555 1.434 . S
C4293 C655 1.479 . S
C4320 C695 1.537 . S
C4332 C1867 1.392 . S
C4359 C2617 1.582 . S
C4347 C741 1.535 . S
C4374 C781 1.548 . S
C4386 C1997 1.510 . S
C4401 C802 1.505 . S
C4413 C2673 1.314 . S
C4428 C855 1.502 . S
C4440 C1625 1.457 . S
C4467 C2753 1.495 . S
C4455 C901 1.611 . S
C4482 C922 1.568 . S
C4494 C1743 1.455 . S
C4521 C2015 1.508 . S
C4509 C642 1.448 . S
C4548 C1643 1.519 . S
C4536 C821 1.484 . S
C4563 C842 1.498 . S
C4575 C2735 1.348 . S
C4590 C882 1.636 . S
C4602 C1761 1.575 . S
C4629 C2691 1.433 . S
C4617 C935 1.612 . S
C4656 C1885 1.432 . S
C4644 C735 1.495 . S
C4683 C2635 1.460 . S
C4671 C762 1.528 . S
C4710 C2573 1.520 . S
C4698 C701 1.533 . S
C4725 C981 1.479 . S
C4737 C1457 1.454 . S
C4752 C1002 1.478 . S
C4764 C1513 1.378 . S
C4791 C1333 1.436 . S
C4779 C1042 1.490 . S
C4818 C1395 1.448 . S
C4806 C1095 1.465 . S
C4845 C1377 1.522 . S
C4833 C1135 1.538 . S
C4872 C1439 1.595 . S
C4860 C1181 1.562 . S
C4899 C1495 1.444 . S
C4887 C1215 1.556 . S
C4914 C1261 1.615 . S
C4926 C1315 1.598 . S
C4941 C975 1.519 . S
C4953 C2679 1.403 . S
C4980 C2425 1.388 . S
C4968 C1015 1.512 . S
C5007 C2759 1.530 . S
C4995 C1061 1.591 . S
C5034 C2493 1.481 . S
C5022 C1101 1.513 . S
C5049 C1122 1.466 . S
C5061 C2549 1.421 . S
C5088 C2319 1.452 . S
C5076 C1175 1.573 . S
C5115 C2611 1.523 . S
C5103 C1221 1.600 . S
C5130 C1242 1.533 . S
C5142 C2381 1.408 . S
C5169 C2511 1.477 . S
C5157 C962 1.422 . S
C5196 C2301 1.444 . S
C5184 C1141 1.462 . S
C5223 C2629 1.453 . S
C5211 C1162 1.578 . S
C5238 C1202 1.635 . S
C5250 C2363 1.532 . S
C5265 C1255 1.578 . S
C5277 C2567 1.487 . S
C5292 C1055 1.506 . S
C5304 C2443 1.326 . S
C5319 C1082 1.515 . S
C5331 C2741 1.396 . S
C5358 C2697 1.475 . S
C5346 C1021 1.518 . S
