# Generated by pormake.
# Topology apo, (3,6)-cn, num edge types: 1
# Building blocks:
#     Node 0, Type 0, BuildingBlock: BELTOD_clean_linker_0, # of connection points: 3
#     Node 1, Type 0, BuildingBlock: BELTOD_clean_linker_0, # of connection points: 3
#     Node 2, Type 0, BuildingBlock: BELTOD_clean_linker_0, # of connection points: 3
#     Node 3, Type 0, BuildingBlock: BELTOD_clean_linker_0, # of connection points: 3
#     Node 4, Type 0, BuildingBlock: BELTOD_clean_linker_0, # of connection points: 3
#     Node 5, Type 0, BuildingBlock: BELTOD_clean_linker_0, # of connection points: 3
#     Node 6, Type 0, BuildingBlock: BELTOD_clean_linker_0, # of connection points: 3
#     Node 7, Type 0, BuildingBlock: BELTOD_clean_linker_0, # of connection points: 3
#     Node 8, Type 1, BuildingBlock: MIDCAF_clean_sbu_0, # of connection points: 6
#     Node 9, Type 1, BuildingBlock: MIDCAF_clean_sbu_0, # of connection points: 6
#     Node 10, Type 1, BuildingBlock: MIDCAF_clean_sbu_0, # of connection points: 6
#     Node 11, Type 1, BuildingBlock: MIDCAF_clean_sbu_0, # of connection points: 6
#     Edge 12, Type (0, 1), BuildingBlock: CIFDUS_clean_linker_0, # of connection points: 2
#     Edge 13, Type (0, 1), BuildingBlock: CIFDUS_clean_linker_0, # of connection points: 2
#     Edge 14, Type (0, 1), BuildingBlock: CIFDUS_clean_linker_0, # of connection points: 2
#     Edge 15, Type (0, 1), BuildingBlock: CIFDUS_clean_linker_0, # of connection points: 2
#     Edge 16, Type (0, 1), BuildingBlock: CIFDUS_clean_linker_0, # of connection points: 2
#     Edge 17, Type (0, 1), BuildingBlock: CIFDUS_clean_linker_0, # of connection points: 2
#     Edge 18, Type (0, 1), BuildingBlock: CIFDUS_clean_linker_0, # of connection points: 2
#     Edge 19, Type (0, 1), BuildingBlock: CIFDUS_clean_linker_0, # of connection points: 2
#     Edge 20, Type (0, 1), BuildingBlock: CIFDUS_clean_linker_0, # of connection points: 2
#     Edge 21, Type (0, 1), BuildingBlock: CIFDUS_clean_linker_0, # of connection points: 2
#     Edge 22, Type (0, 1), BuildingBlock: CIFDUS_clean_linker_0, # of connection points: 2
#     Edge 23, Type (0, 1), BuildingBlock: CIFDUS_clean_linker_0, # of connection points: 2
#     Edge 24, Type (0, 1), BuildingBlock: CIFDUS_clean_linker_0, # of connection points: 2
#     Edge 25, Type (0, 1), BuildingBlock: CIFDUS_clean_linker_0, # of connection points: 2
#     Edge 26, Type (0, 1), BuildingBlock: CIFDUS_clean_linker_0, # of connection points: 2
#     Edge 27, Type (0, 1), BuildingBlock: CIFDUS_clean_linker_0, # of connection points: 2
#     Edge 28, Type (0, 1), BuildingBlock: CIFDUS_clean_linker_0, # of connection points: 2
#     Edge 29, Type (0, 1), BuildingBlock: CIFDUS_clean_linker_0, # of connection points: 2
#     Edge 30, Type (0, 1), BuildingBlock: CIFDUS_clean_linker_0, # of connection points: 2
#     Edge 31, Type (0, 1), BuildingBlock: CIFDUS_clean_linker_0, # of connection points: 2
#     Edge 32, Type (0, 1), BuildingBlock: CIFDUS_clean_linker_0, # of connection points: 2
#     Edge 33, Type (0, 1), BuildingBlock: CIFDUS_clean_linker_0, # of connection points: 2
#     Edge 34, Type (0, 1), BuildingBlock: CIFDUS_clean_linker_0, # of connection points: 2
#     Edge 35, Type (0, 1), BuildingBlock: CIFDUS_clean_linker_0, # of connection points: 2
# Relax obj value: 0.077
# Max RMSD: 0.096
# Mean RMSD: 0.084
data_MOF--net-apo--node1-MIDCAF_clean_sbu_0--node2-BELTOD_clean_linker_0--edge1-CIFDUS_clean_linker_0
_symmetry_space_group_name_H-M    P1
_symmetry_Int_Tables_number       1
_symmetry_cell_setting            triclinic
loop_
_symmetry_equiv_pos_as_xyz
'x, y, z'
_cell_length_a     35.292772
_cell_length_b     41.890282
_cell_length_c     36.819097
_cell_angle_alpha  89.629098
_cell_angle_beta   90.253821
_cell_angle_gamma 90.090688
loop_
_atom_site_label
_atom_site_type_symbol
_atom_site_fract_x
_atom_site_fract_y
_atom_site_fract_z
_atom_type_partial_charge
P0 P 0.37197 0.28445 0.38585 0.0
H1 H 0.3479 0.23995 0.4432 0.0
H2 H 0.34624 0.24442 0.50981 0.0
H3 H 0.37921 0.34342 0.50083 0.0
H4 H 0.38208 0.33868 0.4354 0.0
H5 H 0.37302 0.23029 0.3363 0.0
H6 H 0.32288 0.19868 0.30788 0.0
H7 H 0.23853 0.25862 0.35749 0.0
H8 H 0.28895 0.28991 0.38661 0.0
H9 H 0.43276 0.31297 0.34199 0.0
H10 H 0.32295 0.34063 0.38196 0.0
O11 O 0.41247 0.26431 0.3817 0.0
H12 H 0.44444 0.36792 0.32181 0.0
H13 H 0.33481 0.39564 0.36224 0.0
C14 C 0.36402 0.28917 0.43401 0.0
C15 C 0.35389 0.26279 0.45562 0.0
C16 C 0.35305 0.26532 0.49362 0.0
C17 C 0.36198 0.29442 0.51053 0.0
C18 C 0.37116 0.32091 0.48866 0.0
C19 C 0.37271 0.3182 0.45095 0.0
C20 C 0.33469 0.26218 0.364 0.0
C21 C 0.34378 0.23672 0.34112 0.0
C22 C 0.31514 0.21874 0.32471 0.0
C23 C 0.27687 0.22627 0.33041 0.0
C24 C 0.26783 0.25255 0.35229 0.0
C25 C 0.29657 0.27029 0.36912 0.0
C26 C 0.37715 0.32281 0.36393 0.0
C27 C 0.41081 0.33065 0.34575 0.0
C28 C 0.41745 0.36201 0.33407 0.0
C29 C 0.39065 0.38594 0.3408 0.0
C30 C 0.35597 0.37758 0.35692 0.0
C31 C 0.34912 0.34616 0.36805 0.0
P32 P 0.24482 0.12673 0.93076 0.0
H33 H 0.26247 0.08985 0.86704 0.0
H34 H 0.22727 0.04991 0.83253 0.0
H35 H 0.13003 0.06429 0.90142 0.0
H36 H 0.16505 0.10493 0.93515 0.0
H37 H 0.32008 0.14983 0.91085 0.0
H38 H 0.3418 0.19039 0.86799 0.0
H39 H 0.22572 0.21326 0.84099 0.0
H40 H 0.20395 0.17187 0.88376 0.0
H41 H 0.22522 0.09437 0.9977 0.0
H42 H 0.20898 0.18812 0.95121 0.0
O43 O 0.28266 0.10638 0.94525 0.0
H44 H 0.18769 0.10943 0.05031 0.0
H45 H 0.17176 0.20359 1.00409 0.0
C46 C 0.21665 0.09985 0.90402 0.0
C47 C 0.23342 0.08464 0.87444 0.0
C48 C 0.2133 0.06181 0.8548 0.0
C49 C 0.17602 0.05368 0.86453 0.0
C50 C 0.15862 0.07016 0.89313 0.0
C51 C 0.1788 0.09316 0.91272 0.0
C52 C 0.26039 0.15821 0.90089 0.0
C53 C 0.2992 0.16347 0.89577 0.0
C54 C 0.31162 0.18639 0.87088 0.0
C55 C 0.28543 0.20469 0.85085 0.0
C56 C 0.24647 0.1994 0.85601 0.0
C57 C 0.23406 0.17603 0.88059 0.0
C58 C 0.21992 0.14006 0.97052 0.0
C59 C 0.21408 0.11841 0.99912 0.0
C60 C 0.19283 0.12716 0.02936 0.0
C61 C 0.17682 0.1578 0.03157 0.0
C62 C 0.18347 0.17973 1.00313 0.0
C63 C 0.2048 0.1709 0.97282 0.0
P64 P 0.8977 0.21847 0.66094 0.0
H65 H 0.91987 0.26795 0.60936 0.0
H66 H 0.92875 0.26853 0.54358 0.0
H67 H 0.89392 0.1697 0.53897 0.0
H68 H 0.88424 0.16956 0.60464 0.0
H69 H 0.86106 0.22439 0.73164 0.0
H70 H 0.8039 0.25295 0.75121 0.0
H71 H 0.77842 0.276 0.63929 0.0
H72 H 0.83491 0.24778 0.62001 0.0
H73 H 0.96418 0.18867 0.69457 0.0
H74 H 0.84941 0.16192 0.66819 0.0
O75 O 0.9305 0.24309 0.67777 0.0
H76 H 0.97598 0.1354 0.7192 0.0
H77 H 0.86139 0.10799 0.69093 0.0
C78 C 0.90256 0.21845 0.61211 0.0
C79 C 0.9141 0.24641 0.59418 0.0
C80 C 0.91904 0.24673 0.55653 0.0
C81 C 0.91242 0.21907 0.53596 0.0
C82 C 0.89902 0.1915 0.55387 0.0
C83 C 0.89398 0.19125 0.5916 0.0
C84 C 0.85232 0.23395 0.6744 0.0
C85 C 0.84269 0.2351 0.71133 0.0
C86 C 0.8101 0.25137 0.7225 0.0
C87 C 0.78709 0.26706 0.6968 0.0
C88 C 0.79601 0.26457 0.65974 0.0
C89 C 0.82832 0.24824 0.64866 0.0
C90 C 0.90578 0.17931 0.67992 0.0
C91 C 0.94146 0.17129 0.69412 0.0
C92 C 0.94828 0.14064 0.70793 0.0
C93 C 0.91968 0.1172 0.70723 0.0
C94 C 0.88392 0.12548 0.69277 0.0
C95 C 0.87703 0.15627 0.67943 0.0
P96 P 0.72872 0.36335 0.10426 0.0
H97 H 0.71948 0.41103 0.16058 0.0
H98 H 0.66392 0.43892 0.18365 0.0
H99 H 0.59125 0.37727 0.12042 0.0
H100 H 0.64689 0.3496 0.09735 0.0
H101 H 0.80283 0.33483 0.09723 0.0
H102 H 0.84283 0.3045 0.13924 0.0
H103 H 0.75184 0.30208 0.21729 0.0
H104 H 0.7117 0.33236 0.17486 0.0
H105 H 0.72089 0.39259 0.03302 0.0
H106 H 0.70428 0.29939 0.08059 0.0
O107 O 0.75768 0.39415 0.0964 0.0
H108 H 0.69092 0.37497 0.97705 0.0
H109 H 0.67433 0.2812 0.02405 0.0
C110 C 0.6874 0.37895 0.12643 0.0
C111 C 0.69155 0.40315 0.15222 0.0
C112 C 0.65972 0.41884 0.16567 0.0
C113 C 0.6232 0.4105 0.15352 0.0
C114 C 0.61907 0.38449 0.12988 0.0
C115 C 0.65094 0.36872 0.11657 0.0
C116 C 0.75446 0.33597 0.13295 0.0
C117 C 0.7913 0.32742 0.12317 0.0
C118 C 0.81426 0.31044 0.14741 0.0
C119 C 0.80074 0.30156 0.18193 0.0
C120 C 0.76308 0.3088 0.191 0.0
C121 C 0.74013 0.32604 0.16671 0.0
C122 C 0.71526 0.34719 0.06081 0.0
C123 C 0.71195 0.36792 0.03096 0.0
C124 C 0.69486 0.35773 0.99879 0.0
C125 C 0.68021 0.32661 0.99591 0.0
C126 C 0.68517 0.30536 0.0254 0.0
C127 C 0.70251 0.31562 0.05764 0.0
P128 P 0.70002 0.65039 0.59311 0.0
H129 H 0.73002 0.66316 0.52041 0.0
H130 H 0.69961 0.67954 0.4634 0.0
H131 H 0.59342 0.69059 0.52007 0.0
H132 H 0.62428 0.6751 0.57682 0.0
H133 H 0.77431 0.65844 0.62692 0.0
H134 H 0.8011 0.69939 0.66582 0.0
H135 H 0.69385 0.74925 0.66465 0.0
H136 H 0.66764 0.70843 0.62427 0.0
H137 H 0.65112 0.59932 0.56857 0.0
H138 H 0.67334 0.64811 0.66928 0.0
O139 O 0.73483 0.62591 0.58065 0.0
H140 H 0.60772 0.5633 0.59979 0.0
H141 H 0.62888 0.61287 0.70054 0.0
C142 C 0.67917 0.66731 0.55263 0.0
C143 C 0.70032 0.66959 0.52057 0.0
C144 C 0.68285 0.67882 0.48796 0.0
C145 C 0.64394 0.68607 0.48695 0.0
C146 C 0.62349 0.68552 0.51974 0.0
C147 C 0.64102 0.67639 0.55227 0.0
C148 C 0.71925 0.6808 0.62212 0.0
C149 C 0.75654 0.67821 0.6349 0.0
C150 C 0.77167 0.70146 0.65774 0.0
C151 C 0.74963 0.72765 0.66863 0.0
C152 C 0.71178 0.72963 0.6565 0.0
C153 C 0.69677 0.7064 0.63335 0.0
C154 C 0.66529 0.62649 0.61645 0.0
C155 C 0.64605 0.60267 0.5973 0.0
C156 C 0.62091 0.58228 0.61518 0.0
C157 C 0.61451 0.58531 0.65272 0.0
C158 C 0.63329 0.60977 0.6717 0.0
C159 C 0.65862 0.63009 0.65374 0.0
P160 P 0.85957 0.78975 0.13754 0.0
H161 H 0.91636 0.80435 0.19353 0.0
H162 H 0.94146 0.85469 0.21731 0.0
H163 H 0.8661 0.90698 0.14598 0.0
H164 H 0.84133 0.85695 0.12237 0.0
H165 H 0.82622 0.72825 0.15645 0.0
H166 H 0.76365 0.71243 0.17817 0.0
H167 H 0.73009 0.81149 0.18118 0.0
H168 H 0.79281 0.82719 0.15943 0.0
H169 H 0.91002 0.76969 0.07933 0.0
H170 H 0.80258 0.8179 0.08822 0.0
O171 O 0.8905 0.76092 0.14787 0.0
H172 H 0.91011 0.77983 0.01393 0.0
H173 H 0.80318 0.82896 0.02275 0.0
C174 C 0.87715 0.8268 0.15589 0.0
C175 C 0.90525 0.82665 0.18299 0.0
C176 C 0.91965 0.8554 0.19653 0.0
C177 C 0.9057 0.88477 0.18356 0.0
C178 C 0.87712 0.88475 0.15684 0.0
C179 C 0.86306 0.85607 0.14311 0.0
C180 C 0.8144 0.77892 0.15666 0.0
C181 C 0.80566 0.74663 0.16236 0.0
C182 C 0.76991 0.73761 0.17499 0.0
C183 C 0.74201 0.76073 0.18165 0.0
C184 C 0.75101 0.79314 0.17627 0.0
C185 C 0.78692 0.80214 0.1639 0.0
C186 C 0.85627 0.79297 0.08873 0.0
C187 C 0.88605 0.78189 0.06716 0.0
C188 C 0.88601 0.78757 0.02971 0.0
C189 C 0.85655 0.80504 0.01326 0.0
C190 C 0.82616 0.81533 0.03475 0.0
C191 C 0.82587 0.80908 0.07215 0.0
P192 P 0.21204 0.85399 0.41687 0.0
H193 H 0.23491 0.8705 0.49069 0.0
H194 H 0.20979 0.85495 0.54924 0.0
H195 H 0.1448 0.77991 0.49794 0.0
H196 H 0.1681 0.79753 0.43877 0.0
H197 H 0.24116 0.86986 0.34576 0.0
H198 H 0.27417 0.83912 0.2993 0.0
H199 H 0.26281 0.75415 0.36549 0.0
H200 H 0.23017 0.785 0.41185 0.0
H201 H 0.16172 0.89895 0.45069 0.0
H202 H 0.16353 0.84458 0.35159 0.0
O203 O 0.24138 0.88476 0.42321 0.0
H204 H 0.10373 0.92523 0.43084 0.0
H205 H 0.10525 0.87107 0.33134 0.0
C206 C 0.20367 0.83503 0.46024 0.0
C207 C 0.21609 0.85011 0.49202 0.0
C208 C 0.20173 0.84097 0.52583 0.0
C209 C 0.17469 0.81633 0.52866 0.0
C210 C 0.16484 0.79948 0.49692 0.0
C211 C 0.17866 0.80914 0.46299 0.0
C212 C 0.23315 0.82973 0.38222 0.0
C213 C 0.24547 0.84452 0.35007 0.0
C214 C 0.26428 0.82698 0.32355 0.0
C215 C 0.2709 0.79422 0.32865 0.0
C216 C 0.25751 0.77927 0.36049 0.0
C217 C 0.23893 0.79692 0.38715 0.0
C218 C 0.16729 0.87026 0.40243 0.0
C219 C 0.14933 0.89238 0.42481 0.0
C220 C 0.1159 0.90715 0.41356 0.0
C221 C 0.09976 0.90015 0.37952 0.0
C222 C 0.11712 0.87704 0.35762 0.0
C223 C 0.15055 0.86202 0.36912 0.0
P224 P 0.36384 0.70695 0.85976 0.0
H225 H 0.41849 0.68285 0.80672 0.0
H226 H 0.43436 0.62894 0.78636 0.0
H227 H 0.3511 0.58991 0.86009 0.0
H228 H 0.33497 0.64356 0.8796 0.0
H229 H 0.32815 0.76923 0.85861 0.0
H230 H 0.27307 0.79092 0.82655 0.0
H231 H 0.25335 0.69905 0.77714 0.0
H232 H 0.30822 0.67743 0.80966 0.0
H233 H 0.41483 0.72232 0.91981 0.0
H234 H 0.29946 0.69028 0.90676 0.0
O235 O 0.39965 0.73146 0.84961 0.0
H236 H 0.40993 0.71515 0.98547 0.0
H237 H 0.29466 0.68228 0.97273 0.0
C238 C 0.376 0.66723 0.84518 0.0
C239 C 0.4038 0.66265 0.8186 0.0
C240 C 0.41291 0.63182 0.80702 0.0
C241 C 0.39402 0.6051 0.82157 0.0
C242 C 0.36592 0.60995 0.84797 0.0
C243 C 0.35691 0.64069 0.8595 0.0
C244 C 0.32233 0.72179 0.83657 0.0
C245 C 0.31196 0.75378 0.84086 0.0
C246 C 0.28069 0.76621 0.8222 0.0
C247 C 0.25902 0.74681 0.7989 0.0
C248 C 0.26937 0.7146 0.79491 0.0
C249 C 0.3008 0.70221 0.81354 0.0
C250 C 0.35747 0.70695 0.90838 0.0
C251 C 0.38811 0.71445 0.93114 0.0
C252 C 0.38522 0.71049 0.96875 0.0
C253 C 0.35184 0.6983 0.9843 0.0
C254 C 0.32068 0.69181 0.96152 0.0
C255 C 0.32341 0.69634 0.92387 0.0
Zn256 Zn 0.02922 0.11357 0.33131 0.0
Zn257 Zn 0.96111 0.12882 0.2091 0.0
Zn258 Zn 0.9964 0.12328 0.2712 0.0
C259 C 0.03611 0.14714 0.19677 0.0
C260 C 0.95339 0.06572 0.22778 0.0
O261 O 0.96526 0.15152 0.31334 0.0
O262 O 0.00261 0.14471 0.36111 0.0
C263 C 0.08408 0.14027 0.28764 0.0
O264 O 0.03811 0.14223 0.23135 0.0
O265 O 0.0053 0.14247 0.18005 0.0
O266 O 0.94105 0.08507 0.20421 0.0
O267 O 0.97552 0.07542 0.25343 0.0
O268 O 0.08125 0.1254 0.3174 0.0
O269 O 0.05504 0.14279 0.2664 0.0
O270 O 0.99869 0.07105 0.28421 0.0
O271 O 0.01907 0.06824 0.34097 0.0
C272 C 0.00751 0.05448 0.31269 0.0
O273 O 0.94794 0.15669 0.27952 0.0
O274 O 0.92485 0.16139 0.22369 0.0
C275 C 0.97382 0.15739 0.34677 0.0
C276 C 0.92407 0.16889 0.25676 0.0
Zn277 Zn 0.52921 0.36333 0.6892 0.0
Zn278 Zn 0.47121 0.36936 0.81702 0.0
Zn279 Zn 0.5035 0.36455 0.75322 0.0
C280 C 0.47455 0.43078 0.79148 0.0
C281 C 0.42517 0.32937 0.7769 0.0
O282 O 0.56157 0.34416 0.758 0.0
O283 O 0.58211 0.35364 0.70237 0.0
C284 C 0.51172 0.42546 0.69852 0.0
O285 O 0.49022 0.41569 0.76506 0.0
O286 O 0.46304 0.41585 0.81914 0.0
O287 O 0.42622 0.34322 0.80719 0.0
O288 O 0.4518 0.33396 0.75355 0.0
O289 O 0.51815 0.40723 0.67217 0.0
O290 O 0.50715 0.41377 0.73071 0.0
O291 O 0.46608 0.33384 0.71803 0.0
O292 O 0.49946 0.32857 0.66779 0.0
C293 C 0.47059 0.32164 0.68623 0.0
O294 O 0.54582 0.34653 0.79314 0.0
O295 O 0.51399 0.34986 0.84461 0.0
C296 C 0.58833 0.34376 0.73429 0.0
C297 C 0.54388 0.34255 0.82784 0.0
Zn298 Zn 0.02244 0.85047 0.81157 0.0
Zn299 Zn 0.95615 0.87837 0.69798 0.0
Zn300 Zn 0.99256 0.86307 0.75594 0.0
C301 C 0.97517 0.93581 0.72711 0.0
C302 C 0.90605 0.84176 0.7375 0.0
O303 O 0.04214 0.83149 0.74531 0.0
O304 O 0.04358 0.80813 0.79906 0.0
C305 C 0.04473 0.91103 0.79862 0.0
O306 O 0.99035 0.91648 0.75039 0.0
O307 O 0.95769 0.92521 0.69982 0.0
O308 O 0.90737 0.85809 0.70864 0.0
O309 O 0.93506 0.84079 0.75895 0.0
O310 O 0.05863 0.88651 0.81356 0.0
O311 O 0.015 0.9083 0.77843 0.0
O312 O 0.95097 0.84009 0.794 0.0
O313 O 0.9796 0.85168 0.84558 0.0
C314 C 0.95069 0.84175 0.82896 0.0
O315 O 0.02508 0.84073 0.71146 0.0
O316 O 0.99012 0.85545 0.66435 0.0
C317 C 0.05503 0.80951 0.7667 0.0
C318 C 0.01849 0.84071 0.67705 0.0
Zn319 Zn 0.50504 0.62476 0.179 0.0
Zn320 Zn 0.44911 0.62786 0.30574 0.0
Zn321 Zn 0.47971 0.62693 0.2424 0.0
C322 C 0.51993 0.65555 0.31454 0.0
C323 C 0.45107 0.56401 0.28746 0.0
O324 O 0.44012 0.65217 0.20315 0.0
O325 O 0.46021 0.63498 0.14999 0.0
C326 C 0.55364 0.66438 0.21776 0.0
O327 O 0.52162 0.64882 0.28043 0.0
O328 O 0.49024 0.64963 0.33232 0.0
O329 O 0.44161 0.58177 0.31342 0.0
O330 O 0.46644 0.57643 0.25887 0.0
O331 O 0.5437 0.65885 0.18543 0.0
O332 O 0.53498 0.65202 0.24438 0.0
O333 O 0.4909 0.57621 0.22908 0.0
O334 O 0.52218 0.5803 0.17737 0.0
C335 C 0.51001 0.56338 0.20323 0.0
O336 O 0.42644 0.65549 0.23852 0.0
O337 O 0.40352 0.65239 0.2943 0.0
C338 C 0.43622 0.65005 0.16833 0.0
C339 C 0.40068 0.66219 0.26199 0.0
H340 H 0.09214 0.92678 0.31244 0.0
H341 H 0.03616 0.91854 0.41601 0.0
H342 H 0.99463 0.96304 0.39993 0.0
H343 H 0.98485 0.01111 0.36245 0.0
H344 H 0.04435 0.02129 0.26123 0.0
H345 H 0.07248 0.96852 0.26935 0.0
C346 C 0.0699 0.93389 0.33093 0.0
C347 C 0.06787 0.91995 0.36574 0.0
C348 C 0.04675 0.96 0.32185 0.0
C349 C 0.03889 0.92947 0.3894 0.0
C350 C 0.01515 0.95491 0.38023 0.0
C351 C 0.00269 0.00104 0.34152 0.0
C352 C 0.01214 0.01967 0.31105 0.0
C353 C 0.02035 0.97147 0.34743 0.0
C354 C 0.03574 0.00687 0.2843 0.0
C355 C 0.05248 0.97697 0.28935 0.0
H356 H 0.46414 0.57956 0.80942 0.0
H357 H 0.34487 0.55655 0.80691 0.0
H358 H 0.35966 0.50099 0.79389 0.0
H359 H 0.40633 0.45805 0.78838 0.0
H360 H 0.52542 0.47989 0.79238 0.0
H361 H 0.51109 0.53694 0.79838 0.0
C362 C 0.44139 0.56251 0.80534 0.0
C363 C 0.40344 0.57216 0.80972 0.0
C364 C 0.45011 0.53043 0.79791 0.0
C365 C 0.37432 0.54966 0.80455 0.0
C366 C 0.38273 0.5179 0.79689 0.0
C367 C 0.42904 0.47551 0.78983 0.0
C368 C 0.4668 0.46518 0.78914 0.0
C369 C 0.42047 0.5079 0.79433 0.0
C370 C 0.49617 0.48762 0.79165 0.0
C371 C 0.48792 0.52011 0.79563 0.0
H372 H 0.54846 0.55787 0.63005 0.0
H373 H 0.62845 0.55793 0.71912 0.0
H374 H 0.59741 0.51135 0.74555 0.0
H375 H 0.55597 0.46488 0.73692 0.0
H376 H 0.4802 0.46179 0.64508 0.0
H377 H 0.5013 0.51497 0.62583 0.0
C378 C 0.5589 0.54786 0.65542 0.0
C379 C 0.59119 0.56109 0.67215 0.0
C380 C 0.54189 0.52026 0.66973 0.0
C381 C 0.60365 0.54837 0.70558 0.0
C382 C 0.58613 0.52148 0.7206 0.0
C383 C 0.54287 0.47659 0.71371 0.0
C384 C 0.51621 0.45995 0.69274 0.0
C385 C 0.5563 0.50647 0.7021 0.0
C386 C 0.50051 0.47452 0.66175 0.0
C387 C 0.51278 0.50474 0.65064 0.0
H388 H 0.86615 0.93697 0.20406 0.0
H389 H 0.9801 0.90142 0.19322 0.0
H390 H 0.00552 0.95394 0.20932 0.0
H391 H 0.99478 0.01161 0.21964 0.0
H392 H 0.8808 0.04653 0.23026 0.0
H393 H 0.85572 0.99287 0.22011 0.0
C394 C 0.89655 0.9407 0.20536 0.0
C395 C 0.92119 0.9155 0.19705 0.0
C396 C 0.91087 0.97093 0.21423 0.0
C397 C 0.96053 0.92047 0.19956 0.0
C398 C 0.97507 0.95053 0.20852 0.0
C399 C 0.96466 0.00706 0.22127 0.0
C400 C 0.93966 0.03259 0.22658 0.0
C401 C 0.95049 0.97612 0.21517 0.0
C402 C 0.90046 0.02698 0.22655 0.0
C403 C 0.88615 0.99639 0.22068 0.0
H404 H 0.98518 0.08254 0.70093 0.0
H405 H 0.87137 0.07682 0.74332 0.0
H406 H 0.88064 0.02054 0.7577 0.0
H407 H 0.91845 0.97162 0.75196 0.0
H408 H 0.03221 0.97701 0.71079 0.0
H409 H 0.02624 0.03511 0.70357 0.0
C410 C 0.96265 0.06931 0.71415 0.0
C411 C 0.92728 0.08397 0.72023 0.0
C412 C 0.96828 0.0369 0.72277 0.0
C413 C 0.89847 0.06608 0.73718 0.0
C414 C 0.90383 0.0339 0.74576 0.0
C415 C 0.94225 0.9858 0.74251 0.0
C416 C 0.97579 0.97049 0.73218 0.0
C417 C 0.93821 0.01888 0.73776 0.0
C418 C 0.00636 0.98864 0.71933 0.0
C419 C 0.00275 0.02171 0.71486 0.0
H420 H 0.60294 0.43773 0.218 0.0
H421 H 0.5714 0.43232 0.10478 0.0
H422 H 0.52756 0.47649 0.11221 0.0
H423 H 0.5072 0.52242 0.14775 0.0
H424 H 0.53865 0.52946 0.26054 0.0
H425 H 0.57304 0.4787 0.25673 0.0
C426 C 0.58585 0.44586 0.19521 0.0
C427 C 0.59081 0.43202 0.1608 0.0
C428 C 0.56101 0.47177 0.19951 0.0
C429 C 0.56807 0.4424 0.13159 0.0
C430 C 0.5432 0.4679 0.13571 0.0
C431 C 0.52075 0.5123 0.1717 0.0
C432 C 0.52101 0.52956 0.20419 0.0
C433 C 0.54074 0.48358 0.16908 0.0
C434 C 0.53823 0.51638 0.23525 0.0
C435 C 0.55812 0.48757 0.23295 0.0
H436 H 0.41589 0.41552 0.27893 0.0
H437 H 0.38841 0.43224 0.39124 0.0
H438 H 0.40679 0.48813 0.3849 0.0
H439 H 0.4302 0.532 0.34795 0.0
H440 H 0.45167 0.5181 0.23394 0.0
H441 H 0.43722 0.46121 0.24052 0.0
C442 C 0.41394 0.43155 0.30186 0.0
C443 C 0.40064 0.41996 0.33544 0.0
C444 C 0.424 0.46393 0.29785 0.0
C445 C 0.39809 0.4408 0.36503 0.0
C446 C 0.4088 0.47267 0.36148 0.0
C447 C 0.43187 0.51664 0.32441 0.0
C448 C 0.44329 0.52926 0.29067 0.0
C449 C 0.42172 0.48447 0.32807 0.0
C450 C 0.44467 0.50887 0.26054 0.0
C451 C 0.43575 0.47639 0.26419 0.0
H452 H 0.10209 0.04841 0.84192 0.0
H453 H 0.20735 0.99625 0.84949 0.0
H454 H 0.17633 0.94863 0.82647 0.0
H455 H 0.11891 0.92052 0.80894 0.0
H456 H 0.01254 0.97062 0.80248 0.0
H457 H 0.04436 0.02048 0.81979 0.0
C458 C 0.11817 0.02663 0.83833 0.0
C459 C 0.157 0.02592 0.84743 0.0
C460 C 0.09999 -0.00099 0.82534 0.0
C461 C 0.17761 -0.00237 0.84226 0.0
C462 C 0.15984 0.97027 0.82934 0.0
C463 C 0.10272 0.94243 0.81107 0.0
C464 C 0.06351 0.94201 0.80461 0.0
C465 C 0.12102 0.97055 0.82148 0.0
C466 C 0.04287 0.97054 0.80695 0.0
C467 C 0.06101 -0.0011 0.8172 0.0
H468 H 0.18439 0.14292 0.1038 0.0
H469 H 0.10966 0.18971 0.02712 0.0
H470 H 0.06177 0.1953 0.07402 0.0
H471 H 0.03768 0.18023 0.13385 0.0
H472 H 0.11004 0.13037 0.20979 0.0
H473 H 0.16243 0.13318 0.16656 0.0
C474 C 0.15774 0.15459 0.09747 0.0
C475 C 0.15055 0.16554 0.06179 0.0
C476 C 0.12983 0.15712 0.12446 0.0
C477 C 0.11617 0.18122 0.05427 0.0
C478 C 0.08857 0.18421 0.08105 0.0
C479 C 0.06518 0.17055 0.14123 0.0
C480 C 0.06998 0.15509 0.17496 0.0
C481 C 0.09462 0.17131 0.11581 0.0
C482 C 0.10576 0.14285 0.18428 0.0
C483 C 0.13557 0.14404 0.15931 0.0
H484 H 0.40007 0.25423 0.55592 0.0
H485 H 0.3344 0.3409 0.55484 0.0
H486 H 0.35524 0.35273 0.6167 0.0
H487 H 0.40305 0.34443 0.6647 0.0
H488 H 0.47344 0.26072 0.66249 0.0
H489 H 0.4389 0.24091 0.6095 0.0
C490 C 0.38924 0.27509 0.56974 0.0
C491 C 0.3662 0.29691 0.55065 0.0
C492 C 0.40243 0.28229 0.60488 0.0
C493 C 0.35264 0.324 0.56881 0.0
C494 C 0.36459 0.33079 0.60417 0.0
C495 C 0.40938 0.32109 0.65367 0.0
C496 C 0.44043 0.30387 0.66747 0.0
C497 C 0.39103 0.31097 0.62172 0.0
C498 C 0.44925 0.27409 0.65249 0.0
C499 C 0.42991 0.26305 0.62181 0.0
H500 H 0.6907 0.34096 0.9238 0.0
H501 H 0.61318 0.29425 0.99745 0.0
H502 H 0.56618 0.29014 0.94917 0.0
H503 H 0.54326 0.30758 0.88946 0.0
H504 H 0.61865 0.35679 0.81624 0.0
H505 H 0.67036 0.35173 0.86049 0.0
C506 C 0.66372 0.32946 0.92911 0.0
C507 C 0.65543 0.31829 0.96444 0.0
C508 C 0.63627 0.32784 0.90131 0.0
C509 C 0.62058 0.3029 0.97062 0.0
C510 C 0.59344 0.3008 0.94305 0.0
C511 C 0.57129 0.31653 0.88287 0.0
C512 C 0.57714 0.33264 0.84973 0.0
C513 C 0.60043 0.31431 0.9088 0.0
C514 C 0.61356 0.34395 0.84137 0.0
C515 C 0.643 0.34142 0.8669 0.0
H516 H 0.87438 0.19105 0.47901 0.0
H517 H 0.97573 0.24423 0.5052 0.0
H518 H -0.00036 0.23599 0.44423 0.0
H519 H 0.99719 0.20589 0.38777 0.0
H520 H 0.89831 0.15041 0.36112 0.0
H521 H 0.86754 0.1679 0.41731 0.0
C522 C 0.90146 0.20116 0.47116 0.0
C523 C 0.92337 0.21794 0.49694 0.0
C524 C 0.91549 0.19591 0.4359 0.0
C525 C 0.95809 0.23139 0.48607 0.0
C526 C 0.97198 0.22653 0.45117 0.0
C527 C 0.96827 0.1987 0.39364 0.0
C528 C 0.94997 0.17693 0.37062 0.0
C529 C 0.9516 0.20788 0.42641 0.0
C530 C 0.91269 0.16749 0.37834 0.0
C531 C 0.89544 0.17706 0.41078 0.0
H532 H 0.87207 0.76907 0.95359 0.0
H533 H 0.8507 0.86565 0.98763 0.0
H534 H 0.87083 0.88581 0.92842 0.0
H535 H 0.90596 0.87644 0.87202 0.0
H536 H 0.92829 0.78031 0.83775 0.0
H537 H 0.89544 0.7593 0.89133 0.0
C538 C 0.87098 0.79444 0.9476 0.0
C539 C 0.86043 0.8159 0.97502 0.0
C540 C 0.88284 0.80589 0.91348 0.0
C541 C 0.85869 0.84869 0.96695 0.0
C542 C 0.87042 0.86024 0.93317 0.0
C543 C 0.902 0.85091 0.87555 0.0
C544 C 0.9191 0.82987 0.85108 0.0
C545 C 0.88406 0.83917 0.90685 0.0
C546 C 0.91461 0.79686 0.85598 0.0
C547 C 0.89642 0.78489 0.88694 0.0
H548 H 0.65493 0.65496 0.42292 0.0
H549 H 0.58707 0.72869 0.47176 0.0
H550 H 0.5457 0.7296 0.4185 0.0
H551 H 0.52328 0.70347 0.36278 0.0
H552 H 0.5897 0.62864 0.31517 0.0
H553 H 0.63817 0.63513 0.36226 0.0
C554 C 0.63183 0.67196 0.42154 0.0
C555 C 0.62372 0.69126 0.45176 0.0
C556 C 0.60796 0.67223 0.39086 0.0
C557 C 0.59342 0.71296 0.44938 0.0
C558 C 0.56981 0.71361 0.41884 0.0
C559 C 0.5491 0.68946 0.36208 0.0
C560 C 0.55344 0.66609 0.33522 0.0
C561 C 0.57595 0.69247 0.3901 0.0
C562 C 0.58651 0.64758 0.33479 0.0
C563 C 0.61381 0.65085 0.36219 0.0
H564 H 0.37486 0.7325 0.04355 0.0
H565 H 0.32994 0.64096 0.01181 0.0
H566 H 0.34406 0.61925 0.07196 0.0
H567 H 0.38146 0.62334 0.12811 0.0
H568 H 0.42769 0.71404 0.16012 0.0
H569 H 0.3999 0.73938 0.10605 0.0
C570 C 0.36731 0.70805 0.05022 0.0
C571 C 0.35192 0.68822 0.0231 0.0
C572 C 0.37589 0.69558 0.0849 0.0
C573 C 0.34178 0.65672 0.03215 0.0
C574 C 0.35009 0.6442 0.06651 0.0
C575 C 0.38373 0.64896 0.12409 0.0
C576 C 0.40643 0.66689 0.14786 0.0
C577 C 0.36874 0.66299 0.09243 0.0
C578 C 0.40984 0.69994 0.14235 0.0
C579 C 0.39453 0.71426 0.11107 0.0
H580 H 0.10006 0.80114 0.5355 0.0
H581 H 0.19946 0.82244 0.5998 0.0
H582 H 0.16 0.82779 0.65381 0.0
H583 H 0.09581 0.83464 0.68022 0.0
H584 H 0.9979 0.81242 0.61454 0.0
H585 H 0.0385 0.79812 0.56401 0.0
C586 C 0.11363 0.80579 0.5614 0.0
C587 C 0.1528 0.812 0.56307 0.0
C588 C 0.09085 0.80894 0.59226 0.0
C589 C 0.16926 0.81843 0.59723 0.0
C590 C 0.1467 0.8214 0.62827 0.0
C591 C 0.08357 0.82563 0.65527 0.0
C592 C 0.04395 0.82497 0.65095 0.0
C593 C 0.10722 0.818 0.62578 0.0
C594 C 0.02835 0.81356 0.61832 0.0
C595 C 0.05152 0.80545 0.58935 0.0
H596 H 0.2129 0.24247 0.29224 0.0
H597 H 0.27311 0.16205 0.33793 0.0
H598 H 0.22049 0.12678 0.32254 0.0
H599 H 0.15444 0.12022 0.30383 0.0
H600 H 0.0932 0.1997 0.25773 0.0
H601 H 0.14942 0.23377 0.2644 0.0
C602 C 0.21454 0.21715 0.29834 0.0
C603 C 0.2466 0.2049 0.31657 0.0
C604 C 0.1841 0.19688 0.28925 0.0
C605 C 0.24875 0.172 0.32389 0.0
C606 C 0.21864 0.15184 0.3152 0.0
C607 C 0.15378 0.14479 0.29432 0.0
C608 C 0.11977 0.15762 0.28076 0.0
C609 C 0.18581 0.16418 0.29888 0.0
C610 C 0.11919 0.18933 0.26819 0.0
C611 C 0.15116 0.20888 0.27245 0.0
H612 H 0.34059 0.20224 0.79946 0.0
H613 H 0.26154 0.26627 0.85021 0.0
H614 H 0.29399 0.31202 0.82315 0.0
H615 H 0.3522 0.33352 0.7965 0.0
H616 H 0.43296 0.27012 0.74755 0.0
H617 H 0.392 0.22438 0.76133 0.0
C618 C 0.33005 0.22621 0.80382 0.0
C619 C 0.29926 0.23102 0.82735 0.0
C620 C 0.34929 0.25245 0.78866 0.0
C621 C 0.28527 0.26203 0.83232 0.0
C622 C 0.30397 0.2882 0.81705 0.0
C623 C 0.36008 0.30978 0.78768 0.0
C624 C 0.39567 0.30494 0.7717 0.0
C625 C 0.33706 0.2837 0.79677 0.0
C626 C 0.40563 0.27431 0.75993 0.0
C627 C 0.38247 0.24814 0.7683 0.0
H628 H 0.72937 0.25348 0.74434 0.0
H629 H 0.77403 0.32765 0.67472 0.0
H630 H 0.71851 0.36048 0.68586 0.0
H631 H 0.65423 0.36521 0.70843 0.0
H632 H 0.60657 0.29125 0.77605 0.0
H633 H 0.66666 0.26169 0.77387 0.0
C634 C 0.7271 0.27705 0.73219 0.0
C635 C 0.7553 0.28786 0.70805 0.0
C636 C 0.69462 0.2958 0.7384 0.0
C637 C 0.75223 0.31851 0.69263 0.0
C638 C 0.7206 0.33737 0.69913 0.0
C639 C 0.65729 0.34293 0.72337 0.0
C640 C 0.62609 0.33018 0.74201 0.0
C641 C 0.69116 0.32582 0.72092 0.0
C642 C 0.63036 0.30153 0.76159 0.0
C643 C 0.66454 0.28449 0.75995 0.0
H644 H 0.78544 0.24879 0.22333 0.0
H645 H 0.87359 0.31694 0.19886 0.0
H646 H 0.9197 0.28431 0.2317 0.0
H647 H 0.93705 0.23152 0.2553 0.0
H648 H 0.8504 0.16135 0.27507 0.0
H649 H 0.80136 0.2 0.25814 0.0
C650 C 0.8145 0.25689 0.2261 0.0
C651 C 0.82633 0.28478 0.20787 0.0
C652 C 0.84112 0.23761 0.24447 0.0
C653 C 0.86406 0.29507 0.21179 0.0
C654 C 0.89041 0.27652 0.23074 0.0
C655 C 0.90727 0.22539 0.25785 0.0
C656 C 0.89714 0.19391 0.26665 0.0
C657 C 0.87963 0.24704 0.24564 0.0
C658 C 0.85866 0.18572 0.26899 0.0
C659 C 0.83071 0.20763 0.25851 0.0
H660 H 0.80158 0.72351 0.72406 0.0
H661 H 0.73823 0.79167 0.6596 0.0
H662 H 0.77641 0.83495 0.6838 0.0
H663 H 0.83525 0.85184 0.71277 0.0
H664 H 0.90329 0.78364 0.772 0.0
H665 H 0.85555 0.74225 0.76117 0.0
C666 C 0.79586 0.74788 0.71561 0.0
C667 C 0.76751 0.75413 0.68939 0.0
C668 C 0.819 0.77269 0.72858 0.0
C669 C 0.75973 0.78598 0.67968 0.0
C670 C 0.78182 0.81083 0.69329 0.0
C671 C 0.83911 0.82812 0.72421 0.0
C672 C 0.87298 0.82059 0.74257 0.0
C673 C 0.81261 0.80424 0.71628 0.0
C674 C 0.87743 0.79001 0.7578 0.0
C675 C 0.85038 0.76623 0.75111 0.0
H676 H 0.71987 0.71582 0.23137 0.0
H677 H 0.67619 0.78288 0.15224 0.0
H678 H 0.61244 0.76163 0.16061 0.0
H679 H 0.57074 0.71968 0.18447 0.0
H680 H 0.61408 0.65114 0.26157 0.0
H681 H 0.67609 0.6775 0.26068 0.0
C682 C 0.69628 0.72597 0.2163 0.0
C683 C 0.70283 0.7507 0.19097 0.0
C684 C 0.65965 0.71337 0.22096 0.0
C685 C 0.67193 0.76398 0.17202 0.0
C686 C 0.63548 0.7517 0.17661 0.0
C687 C 0.5936 0.71107 0.20173 0.0
C688 C 0.58791 0.68385 0.22352 0.0
C689 C 0.62924 0.72583 0.20019 0.0
C690 C 0.61757 0.67265 0.24558 0.0
C691 C 0.65318 0.68741 0.2445 0.0
H692 H 0.25774 0.73521 0.30083 0.0
H693 H 0.338 0.81293 0.29887 0.0
H694 H 0.38344 0.77969 0.26675 0.0
H695 H 0.40492 0.72551 0.25169 0.0
H696 H 0.32653 0.64697 0.25868 0.0
H697 H 0.27545 0.68345 0.27493 0.0
C698 C 0.28492 0.74499 0.29272 0.0
C699 C 0.29478 0.77622 0.30281 0.0
C700 C 0.31126 0.7255 0.27498 0.0
C701 C 0.32976 0.78889 0.29152 0.0
C702 C 0.35587 0.76984 0.2733 0.0
C703 C 0.37616 0.71678 0.2549 0.0
C704 C 0.36919 0.68383 0.25384 0.0
C705 C 0.34759 0.73769 0.26642 0.0
C706 C 0.33218 0.67241 0.25891 0.0
C707 C 0.3032 0.69319 0.26886 0.0
H708 H 0.18989 0.7186 0.79132 0.0
H709 H 0.25118 0.80485 0.76512 0.0
H710 H 0.19261 0.83001 0.74405 0.0
H711 H 0.12286 0.83046 0.7434 0.0
H712 H 0.06164 0.74546 0.77362 0.0
H713 H 0.12119 0.71638 0.78135 0.0
C714 C 0.19065 0.74259 0.78008 0.0
C715 C 0.22477 0.76001 0.78046 0.0
C716 C 0.15674 0.75711 0.76859 0.0
C717 C 0.22512 0.79117 0.76598 0.0
C718 C 0.19166 0.80554 0.75374 0.0
C719 C 0.12265 0.80516 0.7499 0.0
C720 C 0.08809 0.78991 0.75748 0.0
C721 C 0.15708 0.78917 0.75625 0.0
C722 C 0.08802 0.75744 0.76718 0.0
C723 C 0.12207 0.74099 0.77211 0.0
loop_
_geom_bond_atom_site_label_1
_geom_bond_atom_site_label_2
_geom_bond_distance
_geom_bond_site_symmetry_2
_ccdc_geom_bond_type
P0 O11 1.490 . S
P0 C14 1.812 . S
P0 C20 1.803 . S
P0 C26 1.819 . S
H1 C15 0.941 . S
H2 C16 0.939 . S
H3 C18 0.940 . S
H4 C19 0.940 . S
H5 C21 0.939 . S
H6 C22 0.942 . S
H7 C24 0.940 . S
H8 C25 0.939 . S
H9 C27 0.941 . S
H10 C31 0.939 . S
O11 P0 1.490 . S
H12 C28 0.939 . S
H13 C30 0.940 . S
C14 P0 1.812 . S
C14 C15 1.389 . S
C14 C19 1.391 . S
C15 H1 0.941 . S
C15 C14 1.389 . S
C15 C16 1.397 . S
C16 H2 0.939 . S
C16 C15 1.397 . S
C16 C17 1.378 . S
C17 C16 1.378 . S
C17 C18 1.378 . S
C18 H3 0.940 . S
C18 C17 1.378 . S
C18 C19 1.396 . S
C19 H4 0.940 . S
C19 C14 1.391 . S
C19 C18 1.396 . S
C20 P0 1.803 . S
C20 C21 1.378 . S
C20 C25 1.400 . S
C21 H5 0.939 . S
C21 C20 1.378 . S
C21 C22 1.361 . S
C22 H6 0.942 . S
C22 C21 1.361 . S
C22 C23 1.369 . S
C23 C22 1.369 . S
C23 C24 1.404 . S
C24 H7 0.940 . S
C24 C23 1.404 . S
C24 C25 1.389 . S
C25 H8 0.939 . S
C25 C20 1.400 . S
C25 C24 1.389 . S
C26 P0 1.819 . S
C26 C27 1.391 . S
C26 C31 1.391 . S
C27 H9 0.941 . S
C27 C26 1.391 . S
C27 C28 1.396 . S
C28 H12 0.939 . S
C28 C27 1.396 . S
C28 C29 1.397 . S
C29 C28 1.397 . S
C29 C30 1.385 . S
C30 H13 0.940 . S
C30 C29 1.385 . S
C30 C31 1.388 . S
C31 H10 0.939 . S
C31 C26 1.391 . S
C31 C30 1.388 . S
P32 O43 1.490 . S
P32 C46 1.812 . S
P32 C52 1.803 . S
P32 C58 1.819 . S
H33 C47 0.941 . S
H34 C48 0.939 . S
H35 C50 0.940 . S
H36 C51 0.940 . S
H37 C53 0.939 . S
H38 C54 0.942 . S
H39 C56 0.940 . S
H40 C57 0.939 . S
H41 C59 0.941 . S
H42 C63 0.939 . S
O43 P32 1.490 . S
H44 C60 0.939 1_554 S
H45 C62 0.940 . S
C46 P32 1.812 . S
C46 C47 1.389 . S
C46 C51 1.391 . S
C47 H33 0.941 . S
C47 C46 1.389 . S
C47 C48 1.397 . S
C48 H34 0.939 . S
C48 C47 1.397 . S
C48 C49 1.378 . S
C49 C48 1.378 . S
C49 C50 1.378 . S
C50 H35 0.940 . S
C50 C49 1.378 . S
C50 C51 1.396 . S
C51 H36 0.940 . S
C51 C46 1.391 . S
C51 C50 1.396 . S
C52 P32 1.803 . S
C52 C53 1.378 . S
C52 C57 1.400 . S
C53 H37 0.939 . S
C53 C52 1.378 . S
C53 C54 1.361 . S
C54 H38 0.942 . S
C54 C53 1.361 . S
C54 C55 1.369 . S
C55 C54 1.369 . S
C55 C56 1.404 . S
C56 H39 0.940 . S
C56 C55 1.404 . S
C56 C57 1.389 . S
C57 H40 0.939 . S
C57 C52 1.400 . S
C57 C56 1.389 . S
C58 P32 1.819 . S
C58 C59 1.391 . S
C58 C63 1.391 . S
C59 H41 0.941 . S
C59 C58 1.391 . S
C59 C60 1.396 . S
C60 H44 0.939 1_556 S
C60 C59 1.396 . S
C60 C61 1.397 . S
C61 C60 1.397 . S
C61 C62 1.385 . S
C62 H45 0.940 . S
C62 C61 1.385 . S
C62 C63 1.388 . S
C63 H42 0.939 . S
C63 C58 1.391 . S
C63 C62 1.388 . S
P64 O75 1.490 . S
P64 C78 1.812 . S
P64 C84 1.803 . S
P64 C90 1.819 . S
H65 C79 0.941 . S
H66 C80 0.939 . S
H67 C82 0.940 . S
H68 C83 0.940 . S
H69 C85 0.939 . S
H70 C86 0.942 . S
H71 C88 0.940 . S
H72 C89 0.939 . S
H73 C91 0.941 . S
H74 C95 0.939 . S
O75 P64 1.490 . S
H76 C92 0.939 . S
H77 C94 0.940 . S
C78 P64 1.812 . S
C78 C79 1.389 . S
C78 C83 1.391 . S
C79 H65 0.941 . S
C79 C78 1.389 . S
C79 C80 1.397 . S
C80 H66 0.939 . S
C80 C79 1.397 . S
C80 C81 1.378 . S
C81 C80 1.378 . S
C81 C82 1.378 . S
C82 H67 0.940 . S
C82 C81 1.378 . S
C82 C83 1.396 . S
C83 H68 0.940 . S
C83 C78 1.391 . S
C83 C82 1.396 . S
C84 P64 1.803 . S
C84 C85 1.378 . S
C84 C89 1.400 . S
C85 H69 0.939 . S
C85 C84 1.378 . S
C85 C86 1.361 . S
C86 H70 0.942 . S
C86 C85 1.361 . S
C86 C87 1.369 . S
C87 C86 1.369 . S
C87 C88 1.404 . S
C88 H71 0.940 . S
C88 C87 1.404 . S
C88 C89 1.389 . S
C89 H72 0.939 . S
C89 C84 1.400 . S
C89 C88 1.389 . S
C90 P64 1.819 . S
C90 C91 1.391 . S
C90 C95 1.391 . S
C91 H73 0.941 . S
C91 C90 1.391 . S
C91 C92 1.396 . S
C92 H76 0.939 . S
C92 C91 1.396 . S
C92 C93 1.397 . S
C93 C92 1.397 . S
C93 C94 1.385 . S
C94 H77 0.940 . S
C94 C93 1.385 . S
C94 C95 1.388 . S
C95 H74 0.939 . S
C95 C90 1.391 . S
C95 C94 1.388 . S
P96 O107 1.490 . S
P96 C110 1.812 . S
P96 C116 1.803 . S
P96 C122 1.819 . S
H97 C111 0.941 . S
H98 C112 0.939 . S
H99 C114 0.940 . S
H100 C115 0.940 . S
H101 C117 0.939 . S
H102 C118 0.942 . S
H103 C120 0.940 . S
H104 C121 0.939 . S
H105 C123 0.941 . S
H106 C127 0.939 . S
O107 P96 1.490 . S
H108 C124 0.939 1_556 S
H109 C126 0.940 . S
C110 P96 1.812 . S
C110 C111 1.389 . S
C110 C115 1.391 . S
C111 H97 0.941 . S
C111 C110 1.389 . S
C111 C112 1.397 . S
C112 H98 0.939 . S
C112 C111 1.397 . S
C112 C113 1.378 . S
C113 C112 1.378 . S
C113 C114 1.378 . S
C114 H99 0.940 . S
C114 C113 1.378 . S
C114 C115 1.396 . S
C115 H100 0.940 . S
C115 C110 1.391 . S
C115 C114 1.396 . S
C116 P96 1.803 . S
C116 C117 1.378 . S
C116 C121 1.400 . S
C117 H101 0.939 . S
C117 C116 1.378 . S
C117 C118 1.361 . S
C118 H102 0.942 . S
C118 C117 1.361 . S
C118 C119 1.369 . S
C119 C118 1.369 . S
C119 C120 1.404 . S
C120 H103 0.940 . S
C120 C119 1.404 . S
C120 C121 1.389 . S
C121 H104 0.939 . S
C121 C116 1.400 . S
C121 C120 1.389 . S
C122 P96 1.819 . S
C122 C123 1.391 . S
C122 C127 1.391 . S
C123 H105 0.941 . S
C123 C122 1.391 . S
C123 C124 1.396 . S
C124 H108 0.939 1_554 S
C124 C123 1.396 . S
C124 C125 1.397 . S
C125 C124 1.397 . S
C125 C126 1.385 . S
C126 H109 0.940 . S
C126 C125 1.385 . S
C126 C127 1.388 . S
C127 H106 0.939 . S
C127 C122 1.391 . S
C127 C126 1.388 . S
P128 O139 1.490 . S
P128 C142 1.812 . S
P128 C148 1.803 . S
P128 C154 1.819 . S
H129 C143 0.941 . S
H130 C144 0.939 . S
H131 C146 0.940 . S
H132 C147 0.940 . S
H133 C149 0.939 . S
H134 C150 0.942 . S
H135 C152 0.940 . S
H136 C153 0.939 . S
H137 C155 0.941 . S
H138 C159 0.939 . S
O139 P128 1.490 . S
H140 C156 0.939 . S
H141 C158 0.940 . S
C142 P128 1.812 . S
C142 C143 1.389 . S
C142 C147 1.391 . S
C143 H129 0.941 . S
C143 C142 1.389 . S
C143 C144 1.397 . S
C144 H130 0.939 . S
C144 C143 1.397 . S
C144 C145 1.378 . S
C145 C144 1.378 . S
C145 C146 1.378 . S
C146 H131 0.940 . S
C146 C145 1.378 . S
C146 C147 1.396 . S
C147 H132 0.940 . S
C147 C142 1.391 . S
C147 C146 1.396 . S
C148 P128 1.803 . S
C148 C149 1.378 . S
C148 C153 1.400 . S
C149 H133 0.939 . S
C149 C148 1.378 . S
C149 C150 1.361 . S
C150 H134 0.942 . S
C150 C149 1.361 . S
C150 C151 1.369 . S
C151 C150 1.369 . S
C151 C152 1.404 . S
C152 H135 0.940 . S
C152 C151 1.404 . S
C152 C153 1.389 . S
C153 H136 0.939 . S
C153 C148 1.400 . S
C153 C152 1.389 . S
C154 P128 1.819 . S
C154 C155 1.391 . S
C154 C159 1.391 . S
C155 H137 0.941 . S
C155 C154 1.391 . S
C155 C156 1.396 . S
C156 H140 0.939 . S
C156 C155 1.396 . S
C156 C157 1.397 . S
C157 C156 1.397 . S
C157 C158 1.385 . S
C158 H141 0.940 . S
C158 C157 1.385 . S
C158 C159 1.388 . S
C159 H138 0.939 . S
C159 C154 1.391 . S
C159 C158 1.388 . S
P160 O171 1.490 . S
P160 C174 1.812 . S
P160 C180 1.803 . S
P160 C186 1.819 . S
H161 C175 0.941 . S
H162 C176 0.939 . S
H163 C178 0.940 . S
H164 C179 0.940 . S
H165 C181 0.939 . S
H166 C182 0.942 . S
H167 C184 0.940 . S
H168 C185 0.939 . S
H169 C187 0.941 . S
H170 C191 0.939 . S
O171 P160 1.490 . S
H172 C188 0.939 . S
H173 C190 0.940 . S
C174 P160 1.812 . S
C174 C175 1.389 . S
C174 C179 1.391 . S
C175 H161 0.941 . S
C175 C174 1.389 . S
C175 C176 1.397 . S
C176 H162 0.939 . S
C176 C175 1.397 . S
C176 C177 1.378 . S
C177 C176 1.378 . S
C177 C178 1.378 . S
C178 H163 0.940 . S
C178 C177 1.378 . S
C178 C179 1.396 . S
C179 H164 0.940 . S
C179 C174 1.391 . S
C179 C178 1.396 . S
C180 P160 1.803 . S
C180 C181 1.378 . S
C180 C185 1.400 . S
C181 H165 0.939 . S
C181 C180 1.378 . S
C181 C182 1.361 . S
C182 H166 0.942 . S
C182 C181 1.361 . S
C182 C183 1.369 . S
C183 C182 1.369 . S
C183 C184 1.404 . S
C184 H167 0.940 . S
C184 C183 1.404 . S
C184 C185 1.389 . S
C185 H168 0.939 . S
C185 C180 1.400 . S
C185 C184 1.389 . S
C186 P160 1.819 . S
C186 C187 1.391 . S
C186 C191 1.391 . S
C187 H169 0.941 . S
C187 C186 1.391 . S
C187 C188 1.396 . S
C188 H172 0.939 . S
C188 C187 1.396 . S
C188 C189 1.397 . S
C189 C188 1.397 . S
C189 C190 1.385 . S
C190 H173 0.940 . S
C190 C189 1.385 . S
C190 C191 1.388 . S
C191 H170 0.939 . S
C191 C186 1.391 . S
C191 C190 1.388 . S
P192 O203 1.490 . S
P192 C206 1.812 . S
P192 C212 1.803 . S
P192 C218 1.819 . S
H193 C207 0.941 . S
H194 C208 0.939 . S
H195 C210 0.940 . S
H196 C211 0.940 . S
H197 C213 0.939 . S
H198 C214 0.942 . S
H199 C216 0.940 . S
H200 C217 0.939 . S
H201 C219 0.941 . S
H202 C223 0.939 . S
O203 P192 1.490 . S
H204 C220 0.939 . S
H205 C222 0.940 . S
C206 P192 1.812 . S
C206 C207 1.389 . S
C206 C211 1.391 . S
C207 H193 0.941 . S
C207 C206 1.389 . S
C207 C208 1.397 . S
C208 H194 0.939 . S
C208 C207 1.397 . S
C208 C209 1.378 . S
C209 C208 1.378 . S
C209 C210 1.378 . S
C210 H195 0.940 . S
C210 C209 1.378 . S
C210 C211 1.396 . S
C211 H196 0.940 . S
C211 C206 1.391 . S
C211 C210 1.396 . S
C212 P192 1.803 . S
C212 C213 1.378 . S
C212 C217 1.400 . S
C213 H197 0.939 . S
C213 C212 1.378 . S
C213 C214 1.361 . S
C214 H198 0.942 . S
C214 C213 1.361 . S
C214 C215 1.369 . S
C215 C214 1.369 . S
C215 C216 1.404 . S
C216 H199 0.940 . S
C216 C215 1.404 . S
C216 C217 1.389 . S
C217 H200 0.939 . S
C217 C212 1.400 . S
C217 C216 1.389 . S
C218 P192 1.819 . S
C218 C219 1.391 . S
C218 C223 1.391 . S
C219 H201 0.941 . S
C219 C218 1.391 . S
C219 C220 1.396 . S
C220 H204 0.939 . S
C220 C219 1.396 . S
C220 C221 1.397 . S
C221 C220 1.397 . S
C221 C222 1.385 . S
C222 H205 0.940 . S
C222 C221 1.385 . S
C222 C223 1.388 . S
C223 H202 0.939 . S
C223 C218 1.391 . S
C223 C222 1.388 . S
P224 O235 1.490 . S
P224 C238 1.812 . S
P224 C244 1.803 . S
P224 C250 1.819 . S
H225 C239 0.941 . S
H226 C240 0.939 . S
H227 C242 0.940 . S
H228 C243 0.940 . S
H229 C245 0.939 . S
H230 C246 0.942 . S
H231 C248 0.940 . S
H232 C249 0.939 . S
H233 C251 0.941 . S
H234 C255 0.939 . S
O235 P224 1.490 . S
H236 C252 0.939 . S
H237 C254 0.940 . S
C238 P224 1.812 . S
C238 C239 1.389 . S
C238 C243 1.391 . S
C239 H225 0.941 . S
C239 C238 1.389 . S
C239 C240 1.397 . S
C240 H226 0.939 . S
C240 C239 1.397 . S
C240 C241 1.378 . S
C241 C240 1.378 . S
C241 C242 1.378 . S
C242 H227 0.940 . S
C242 C241 1.378 . S
C242 C243 1.396 . S
C243 H228 0.940 . S
C243 C238 1.391 . S
C243 C242 1.396 . S
C244 P224 1.803 . S
C244 C245 1.378 . S
C244 C249 1.400 . S
C245 H229 0.939 . S
C245 C244 1.378 . S
C245 C246 1.361 . S
C246 H230 0.942 . S
C246 C245 1.361 . S
C246 C247 1.369 . S
C247 C246 1.369 . S
C247 C248 1.404 . S
C248 H231 0.940 . S
C248 C247 1.404 . S
C248 C249 1.389 . S
C249 H232 0.939 . S
C249 C244 1.400 . S
C249 C248 1.389 . S
C250 P224 1.819 . S
C250 C251 1.391 . S
C250 C255 1.391 . S
C251 H233 0.941 . S
C251 C250 1.391 . S
C251 C252 1.396 . S
C252 H236 0.939 . S
C252 C251 1.396 . S
C252 C253 1.397 . S
C253 C252 1.397 . S
C253 C254 1.385 . S
C254 H237 0.940 . S
C254 C253 1.385 . S
C254 C255 1.388 . S
C255 H234 0.939 . S
C255 C250 1.391 . S
C255 C254 1.388 . S
Zn256 O262 1.920 . S
Zn256 O268 1.898 . S
Zn256 O271 1.905 . S
Zn257 O265 1.905 1_655 S
Zn257 O266 1.898 . S
Zn257 O274 1.920 . S
Zn258 O261 2.080 1_455 S
Zn258 O264 2.114 . S
Zn258 O267 2.120 1_455 S
Zn258 O269 2.120 . S
Zn258 O270 2.114 . S
Zn258 O273 2.080 1_455 S
C259 O264 1.166 . S
C259 O265 1.182 . S
C260 O266 1.167 . S
C260 O267 1.299 . S
O261 Zn258 2.080 1_655 S
O261 C275 1.305 . S
O262 Zn256 1.920 . S
O262 C275 1.234 1_455 S
C263 O268 1.167 . S
C263 O269 1.299 . S
O264 Zn258 2.114 . S
O264 C259 1.166 . S
O265 Zn257 1.905 1_455 S
O265 C259 1.182 . S
O266 Zn257 1.898 . S
O266 C260 1.167 . S
O267 Zn258 2.120 1_655 S
O267 C260 1.299 . S
O268 Zn256 1.898 . S
O268 C263 1.167 . S
O269 Zn258 2.120 . S
O269 C263 1.299 . S
O270 Zn258 2.114 . S
O270 C272 1.166 . S
O271 Zn256 1.905 . S
O271 C272 1.182 . S
C272 O270 1.166 . S
C272 O271 1.182 . S
O273 Zn258 2.080 1_655 S
O273 C276 1.305 . S
O274 Zn257 1.920 . S
O274 C276 1.234 . S
C275 O261 1.305 . S
C275 O262 1.234 1_655 S
C276 O273 1.305 . S
C276 O274 1.234 . S
Zn277 O283 1.920 . S
Zn277 O289 1.898 . S
Zn277 O292 1.905 . S
Zn278 O286 1.905 . S
Zn278 O287 1.898 . S
Zn278 O295 1.920 . S
Zn279 O282 2.080 . S
Zn279 O285 2.114 . S
Zn279 O288 2.120 . S
Zn279 O290 2.120 . S
Zn279 O291 2.114 . S
Zn279 O294 2.080 . S
C280 O285 1.166 . S
C280 O286 1.182 . S
C281 O287 1.167 . S
C281 O288 1.299 . S
O282 Zn279 2.080 . S
O282 C296 1.305 . S
O283 Zn277 1.920 . S
O283 C296 1.234 . S
C284 O289 1.167 . S
C284 O290 1.299 . S
O285 Zn279 2.114 . S
O285 C280 1.166 . S
O286 Zn278 1.905 . S
O286 C280 1.182 . S
O287 Zn278 1.898 . S
O287 C281 1.167 . S
O288 Zn279 2.120 . S
O288 C281 1.299 . S
O289 Zn277 1.898 . S
O289 C284 1.167 . S
O290 Zn279 2.120 . S
O290 C284 1.299 . S
O291 Zn279 2.114 . S
O291 C293 1.166 . S
O292 Zn277 1.905 . S
O292 C293 1.182 . S
C293 O291 1.166 . S
C293 O292 1.182 . S
O294 Zn279 2.080 . S
O294 C297 1.305 . S
O295 Zn278 1.920 . S
O295 C297 1.234 . S
C296 O282 1.305 . S
C296 O283 1.234 . S
C297 O294 1.305 . S
C297 O295 1.234 . S
Zn298 O304 1.920 . S
Zn298 O310 1.898 . S
Zn298 O313 1.905 1_455 S
Zn299 O307 1.905 . S
Zn299 O308 1.898 . S
Zn299 O316 1.920 1_655 S
Zn300 O303 2.080 . S
Zn300 O306 2.114 1_455 S
Zn300 O309 2.120 1_455 S
Zn300 O311 2.120 . S
Zn300 O312 2.114 1_455 S
Zn300 O315 2.080 . S
C301 O306 1.166 . S
C301 O307 1.182 . S
C302 O308 1.167 . S
C302 O309 1.299 . S
O303 Zn300 2.080 . S
O303 C317 1.305 . S
O304 Zn298 1.920 . S
O304 C317 1.234 . S
C305 O310 1.167 . S
C305 O311 1.299 . S
O306 Zn300 2.114 1_655 S
O306 C301 1.166 . S
O307 Zn299 1.905 . S
O307 C301 1.182 . S
O308 Zn299 1.898 . S
O308 C302 1.167 . S
O309 Zn300 2.120 1_655 S
O309 C302 1.299 . S
O310 Zn298 1.898 . S
O310 C305 1.167 . S
O311 Zn300 2.120 . S
O311 C305 1.299 . S
O312 Zn300 2.114 1_655 S
O312 C314 1.166 . S
O313 Zn298 1.905 1_655 S
O313 C314 1.182 . S
C314 O312 1.166 . S
C314 O313 1.182 . S
O315 Zn300 2.080 . S
O315 C318 1.305 . S
O316 Zn299 1.920 1_455 S
O316 C318 1.234 . S
C317 O303 1.305 . S
C317 O304 1.234 . S
C318 O315 1.305 . S
C318 O316 1.234 . S
Zn319 O325 1.920 . S
Zn319 O331 1.898 . S
Zn319 O334 1.905 . S
Zn320 O328 1.905 . S
Zn320 O329 1.898 . S
Zn320 O337 1.920 . S
Zn321 O324 2.080 . S
Zn321 O327 2.114 . S
Zn321 O330 2.120 . S
Zn321 O332 2.120 . S
Zn321 O333 2.114 . S
Zn321 O336 2.080 . S
C322 O327 1.166 . S
C322 O328 1.182 . S
C323 O329 1.167 . S
C323 O330 1.299 . S
O324 Zn321 2.080 . S
O324 C338 1.305 . S
O325 Zn319 1.920 . S
O325 C338 1.234 . S
C326 O331 1.167 . S
C326 O332 1.299 . S
O327 Zn321 2.114 . S
O327 C322 1.166 . S
O328 Zn320 1.905 . S
O328 C322 1.182 . S
O329 Zn320 1.898 . S
O329 C323 1.167 . S
O330 Zn321 2.120 . S
O330 C323 1.299 . S
O331 Zn319 1.898 . S
O331 C326 1.167 . S
O332 Zn321 2.120 . S
O332 C326 1.299 . S
O333 Zn321 2.114 . S
O333 C335 1.166 . S
O334 Zn319 1.905 . S
O334 C335 1.182 . S
C335 O333 1.166 . S
C335 O334 1.182 . S
O336 Zn321 2.080 . S
O336 C339 1.305 . S
O337 Zn320 1.920 . S
O337 C339 1.234 . S
C338 O324 1.305 . S
C338 O325 1.234 . S
C339 O336 1.305 . S
C339 O337 1.234 . S
H340 C346 0.930 . S
H341 C349 0.930 . S
H342 C350 0.930 . S
H343 C351 0.930 . S
H344 C354 0.930 . S
H345 C355 0.930 . S
C346 H340 0.930 . S
C346 C347 1.355 . S
C346 C348 1.415 1_565 S
C347 C346 1.355 . S
C347 C349 1.419 . S
C348 C346 1.415 1_545 S
C348 C353 1.425 . S
C348 C355 1.409 . S
C349 H341 0.930 . S
C349 C347 1.419 . S
C349 C350 1.362 . S
C350 H342 0.930 . S
C350 C349 1.362 . S
C350 C353 1.409 1_565 S
C351 H343 0.930 . S
C351 C352 1.355 . S
C351 C353 1.415 . S
C352 C351 1.355 . S
C352 C354 1.419 . S
C353 C348 1.425 . S
C353 C350 1.409 1_545 S
C353 C351 1.415 . S
C354 H344 0.930 . S
C354 C352 1.419 . S
C354 C355 1.362 . S
C355 H345 0.930 . S
C355 C348 1.409 . S
C355 C354 1.362 . S
H356 C362 0.930 . S
H357 C365 0.930 . S
H358 C366 0.930 . S
H359 C367 0.930 . S
H360 C370 0.930 . S
H361 C371 0.930 . S
C362 H356 0.930 . S
C362 C363 1.355 . S
C362 C364 1.415 . S
C363 C362 1.355 . S
C363 C365 1.419 . S
C364 C362 1.415 . S
C364 C369 1.425 . S
C364 C371 1.409 . S
C365 H357 0.930 . S
C365 C363 1.419 . S
C365 C366 1.362 . S
C366 H358 0.930 . S
C366 C365 1.362 . S
C366 C369 1.409 . S
C367 H359 0.930 . S
C367 C368 1.355 . S
C367 C369 1.415 . S
C368 C367 1.355 . S
C368 C370 1.419 . S
C369 C364 1.425 . S
C369 C366 1.409 . S
C369 C367 1.415 . S
C370 H360 0.930 . S
C370 C368 1.419 . S
C370 C371 1.362 . S
C371 H361 0.930 . S
C371 C364 1.409 . S
C371 C370 1.362 . S
H372 C378 0.930 . S
H373 C381 0.930 . S
H374 C382 0.930 . S
H375 C383 0.930 . S
H376 C386 0.930 . S
H377 C387 0.930 . S
C378 H372 0.930 . S
C378 C379 1.355 . S
C378 C380 1.415 . S
C379 C378 1.355 . S
C379 C381 1.419 . S
C380 C378 1.415 . S
C380 C385 1.425 . S
C380 C387 1.409 . S
C381 H373 0.930 . S
C381 C379 1.419 . S
C381 C382 1.362 . S
C382 H374 0.930 . S
C382 C381 1.362 . S
C382 C385 1.409 . S
C383 H375 0.930 . S
C383 C384 1.355 . S
C383 C385 1.415 . S
C384 C383 1.355 . S
C384 C386 1.419 . S
C385 C380 1.425 . S
C385 C382 1.409 . S
C385 C383 1.415 . S
C386 H376 0.930 . S
C386 C384 1.419 . S
C386 C387 1.362 . S
C387 H377 0.930 . S
C387 C380 1.409 . S
C387 C386 1.362 . S
H388 C394 0.930 . S
H389 C397 0.930 . S
H390 C398 0.930 . S
H391 C399 0.930 . S
H392 C402 0.930 . S
H393 C403 0.930 . S
C394 H388 0.930 . S
C394 C395 1.355 . S
C394 C396 1.415 1_565 S
C395 C394 1.355 . S
C395 C397 1.419 . S
C396 C394 1.415 1_545 S
C396 C401 1.425 . S
C396 C403 1.409 . S
C397 H389 0.930 . S
C397 C395 1.419 . S
C397 C398 1.362 . S
C398 H390 0.930 . S
C398 C397 1.362 . S
C398 C401 1.409 1_565 S
C399 H391 0.930 . S
C399 C400 1.355 . S
C399 C401 1.415 . S
C400 C399 1.355 . S
C400 C402 1.419 . S
C401 C396 1.425 . S
C401 C398 1.409 1_545 S
C401 C399 1.415 . S
C402 H392 0.930 . S
C402 C400 1.419 . S
C402 C403 1.362 . S
C403 H393 0.930 . S
C403 C396 1.409 . S
C403 C402 1.362 . S
H404 C410 0.930 . S
H405 C413 0.930 . S
H406 C414 0.930 . S
H407 C415 0.930 . S
H408 C418 0.930 . S
H409 C419 0.930 . S
C410 H404 0.930 . S
C410 C411 1.355 . S
C410 C412 1.415 1_545 S
C411 C410 1.355 . S
C411 C413 1.419 . S
C412 C410 1.415 1_565 S
C412 C417 1.425 . S
C412 C419 1.409 . S
C413 H405 0.930 . S
C413 C411 1.419 . S
C413 C414 1.362 . S
C414 H406 0.930 . S
C414 C413 1.362 . S
C414 C417 1.409 1_545 S
C415 H407 0.930 . S
C415 C416 1.355 . S
C415 C417 1.415 . S
C416 C415 1.355 . S
C416 C418 1.419 . S
C417 C412 1.425 . S
C417 C414 1.409 1_565 S
C417 C415 1.415 . S
C418 H408 0.930 . S
C418 C416 1.419 . S
C418 C419 1.362 . S
C419 H409 0.930 . S
C419 C412 1.409 . S
C419 C418 1.362 . S
H420 C426 0.930 . S
H421 C429 0.930 . S
H422 C430 0.930 . S
H423 C431 0.930 . S
H424 C434 0.930 . S
H425 C435 0.930 . S
C426 H420 0.930 . S
C426 C427 1.355 . S
C426 C428 1.415 . S
C427 C426 1.355 . S
C427 C429 1.419 . S
C428 C426 1.415 . S
C428 C433 1.425 . S
C428 C435 1.409 . S
C429 H421 0.930 . S
C429 C427 1.419 . S
C429 C430 1.362 . S
C430 H422 0.930 . S
C430 C429 1.362 . S
C430 C433 1.409 . S
C431 H423 0.930 . S
C431 C432 1.355 . S
C431 C433 1.415 . S
C432 C431 1.355 . S
C432 C434 1.419 . S
C433 C428 1.425 . S
C433 C430 1.409 . S
C433 C431 1.415 . S
C434 H424 0.930 . S
C434 C432 1.419 . S
C434 C435 1.362 . S
C435 H425 0.930 . S
C435 C428 1.409 . S
C435 C434 1.362 . S
H436 C442 0.930 . S
H437 C445 0.930 . S
H438 C446 0.930 . S
H439 C447 0.930 . S
H440 C450 0.930 . S
H441 C451 0.930 . S
C442 H436 0.930 . S
C442 C443 1.355 . S
C442 C444 1.415 . S
C443 C442 1.355 . S
C443 C445 1.419 . S
C444 C442 1.415 . S
C444 C449 1.425 . S
C444 C451 1.409 . S
C445 H437 0.930 . S
C445 C443 1.419 . S
C445 C446 1.362 . S
C446 H438 0.930 . S
C446 C445 1.362 . S
C446 C449 1.409 . S
C447 H439 0.930 . S
C447 C448 1.355 . S
C447 C449 1.415 . S
C448 C447 1.355 . S
C448 C450 1.419 . S
C449 C444 1.425 . S
C449 C446 1.409 . S
C449 C447 1.415 . S
C450 H440 0.930 . S
C450 C448 1.419 . S
C450 C451 1.362 . S
C451 H441 0.930 . S
C451 C444 1.409 . S
C451 C450 1.362 . S
H452 C458 0.930 . S
H453 C461 0.930 . S
H454 C462 0.930 . S
H455 C463 0.930 . S
H456 C466 0.955 . S
H457 C467 0.930 1_545 S
C458 H452 0.930 . S
C458 C459 1.355 . S
C458 C460 1.415 . S
C459 C458 1.355 . S
C459 C461 1.419 . S
C460 C458 1.415 . S
C460 C465 1.425 1_545 S
C460 C467 1.409 1_545 S
C461 H453 0.930 . S
C461 C459 1.419 . S
C461 C462 1.362 1_545 S
C462 H454 0.930 . S
C462 C461 1.362 1_565 S
C462 C465 1.409 . S
C463 H455 0.930 . S
C463 C464 1.355 . S
C463 C465 1.415 . S
C464 C463 1.355 . S
C464 C466 1.419 . S
C465 C460 1.425 1_565 S
C465 C462 1.409 . S
C465 C463 1.415 . S
C466 H456 0.955 . S
C466 C464 1.419 . S
C466 C467 1.362 . S
C467 H457 0.930 1_565 S
C467 C460 1.409 1_565 S
C467 C466 1.362 . S
H468 C474 0.930 . S
H469 C477 0.930 . S
H470 C478 0.930 . S
H471 C479 0.930 . S
H472 C482 0.930 . S
H473 C483 0.930 . S
C474 H468 0.930 . S
C474 C475 1.355 . S
C474 C476 1.415 . S
C475 C474 1.355 . S
C475 C477 1.419 . S
C476 C474 1.415 . S
C476 C481 1.425 . S
C476 C483 1.409 . S
C477 H469 0.930 . S
C477 C475 1.419 . S
C477 C478 1.362 . S
C478 H470 0.930 . S
C478 C477 1.362 . S
C478 C481 1.409 . S
C479 H471 0.930 . S
C479 C480 1.355 . S
C479 C481 1.415 . S
C480 C479 1.355 . S
C480 C482 1.419 . S
C481 C476 1.425 . S
C481 C478 1.409 . S
C481 C479 1.415 . S
C482 H472 0.930 . S
C482 C480 1.419 . S
C482 C483 1.362 . S
C483 H473 0.930 . S
C483 C476 1.409 . S
C483 C482 1.362 . S
H484 C490 0.930 . S
H485 C493 0.930 . S
H486 C494 0.930 . S
H487 C495 0.930 . S
H488 C498 0.930 . S
H489 C499 0.930 . S
C490 H484 0.930 . S
C490 C491 1.355 . S
C490 C492 1.415 . S
C491 C490 1.355 . S
C491 C493 1.419 . S
C492 C490 1.415 . S
C492 C497 1.425 . S
C492 C499 1.409 . S
C493 H485 0.930 . S
C493 C491 1.419 . S
C493 C494 1.362 . S
C494 H486 0.930 . S
C494 C493 1.362 . S
C494 C497 1.409 . S
C495 H487 0.930 . S
C495 C496 1.355 . S
C495 C497 1.415 . S
C496 C495 1.355 . S
C496 C498 1.419 . S
C497 C492 1.425 . S
C497 C494 1.409 . S
C497 C495 1.415 . S
C498 H488 0.930 . S
C498 C496 1.419 . S
C498 C499 1.362 . S
C499 H489 0.930 . S
C499 C492 1.409 . S
C499 C498 1.362 . S
H500 C506 0.930 . S
H501 C509 0.951 . S
H502 C510 0.930 . S
H503 C511 0.930 . S
H504 C514 0.930 . S
H505 C515 0.930 . S
C506 H500 0.930 . S
C506 C507 1.355 . S
C506 C508 1.415 . S
C507 C506 1.355 . S
C507 C509 1.419 . S
C508 C506 1.415 . S
C508 C513 1.425 . S
C508 C515 1.409 . S
C509 H501 0.951 . S
C509 C507 1.419 . S
C509 C510 1.362 . S
C510 H502 0.930 . S
C510 C509 1.362 . S
C510 C513 1.409 . S
C511 H503 0.930 . S
C511 C512 1.355 . S
C511 C513 1.415 . S
C512 C511 1.355 . S
C512 C514 1.419 . S
C513 C508 1.425 . S
C513 C510 1.409 . S
C513 C511 1.415 . S
C514 H504 0.930 . S
C514 C512 1.419 . S
C514 C515 1.362 . S
C515 H505 0.930 . S
C515 C508 1.409 . S
C515 C514 1.362 . S
H516 C522 0.930 . S
H517 C525 0.930 . S
H518 C526 0.930 . S
H519 C527 0.930 . S
H520 C530 0.930 . S
H521 C531 0.930 . S
C522 H516 0.930 . S
C522 C523 1.355 . S
C522 C524 1.415 . S
C523 C522 1.355 . S
C523 C525 1.419 . S
C524 C522 1.415 . S
C524 C529 1.425 . S
C524 C531 1.409 . S
C525 H517 0.930 . S
C525 C523 1.419 . S
C525 C526 1.362 . S
C526 H518 0.930 . S
C526 C525 1.362 . S
C526 C529 1.409 . S
C527 H519 0.930 . S
C527 C528 1.355 . S
C527 C529 1.415 . S
C528 C527 1.355 . S
C528 C530 1.419 . S
C529 C524 1.425 . S
C529 C526 1.409 . S
C529 C527 1.415 . S
C530 H520 0.930 . S
C530 C528 1.419 . S
C530 C531 1.362 . S
C531 H521 0.930 . S
C531 C524 1.409 . S
C531 C530 1.362 . S
H532 C538 0.930 . S
H533 C541 0.930 . S
H534 C542 0.930 . S
H535 C543 0.930 . S
H536 C546 0.930 . S
H537 C547 0.930 . S
C538 H532 0.930 . S
C538 C539 1.355 . S
C538 C540 1.415 . S
C539 C538 1.355 . S
C539 C541 1.419 . S
C540 C538 1.415 . S
C540 C545 1.425 . S
C540 C547 1.409 . S
C541 H533 0.930 . S
C541 C539 1.419 . S
C541 C542 1.362 . S
C542 H534 0.930 . S
C542 C541 1.362 . S
C542 C545 1.409 . S
C543 H535 0.930 . S
C543 C544 1.355 . S
C543 C545 1.415 . S
C544 C543 1.355 . S
C544 C546 1.419 . S
C545 C540 1.425 . S
C545 C542 1.409 . S
C545 C543 1.415 . S
C546 H536 0.930 . S
C546 C544 1.419 . S
C546 C547 1.362 . S
C547 H537 0.930 . S
C547 C540 1.409 . S
C547 C546 1.362 . S
H548 C554 0.930 . S
H549 C557 0.930 . S
H550 C558 0.930 . S
H551 C559 0.930 . S
H552 C562 0.930 . S
H553 C563 0.930 . S
C554 H548 0.930 . S
C554 C555 1.355 . S
C554 C556 1.415 . S
C555 C554 1.355 . S
C555 C557 1.419 . S
C556 C554 1.415 . S
C556 C561 1.425 . S
C556 C563 1.409 . S
C557 H549 0.930 . S
C557 C555 1.419 . S
C557 C558 1.362 . S
C558 H550 0.930 . S
C558 C557 1.362 . S
C558 C561 1.409 . S
C559 H551 0.930 . S
C559 C560 1.355 . S
C559 C561 1.415 . S
C560 C559 1.355 . S
C560 C562 1.419 . S
C561 C556 1.425 . S
C561 C558 1.409 . S
C561 C559 1.415 . S
C562 H552 0.930 . S
C562 C560 1.419 . S
C562 C563 1.362 . S
C563 H553 0.930 . S
C563 C556 1.409 . S
C563 C562 1.362 . S
H564 C570 0.930 . S
H565 C573 0.952 . S
H566 C574 0.930 . S
H567 C575 0.930 . S
H568 C578 0.930 . S
H569 C579 0.930 . S
C570 H564 0.930 . S
C570 C571 1.355 . S
C570 C572 1.415 . S
C571 C570 1.355 . S
C571 C573 1.419 . S
C572 C570 1.415 . S
C572 C577 1.425 . S
C572 C579 1.409 . S
C573 H565 0.952 . S
C573 C571 1.419 . S
C573 C574 1.362 . S
C574 H566 0.930 . S
C574 C573 1.362 . S
C574 C577 1.409 . S
C575 H567 0.930 . S
C575 C576 1.355 . S
C575 C577 1.415 . S
C576 C575 1.355 . S
C576 C578 1.419 . S
C577 C572 1.425 . S
C577 C574 1.409 . S
C577 C575 1.415 . S
C578 H568 0.930 . S
C578 C576 1.419 . S
C578 C579 1.362 . S
C579 H569 0.930 . S
C579 C572 1.409 . S
C579 C578 1.362 . S
H580 C586 0.930 . S
H581 C589 0.930 . S
H582 C590 0.930 . S
H583 C591 0.930 . S
H584 C594 0.930 . S
H585 C595 0.930 . S
C586 H580 0.930 . S
C586 C587 1.355 . S
C586 C588 1.415 . S
C587 C586 1.355 . S
C587 C589 1.419 . S
C588 C586 1.415 . S
C588 C593 1.425 . S
C588 C595 1.409 . S
C589 H581 0.930 . S
C589 C587 1.419 . S
C589 C590 1.362 . S
C590 H582 0.930 . S
C590 C589 1.362 . S
C590 C593 1.409 . S
C591 H583 0.930 . S
C591 C592 1.355 . S
C591 C593 1.415 . S
C592 C591 1.355 . S
C592 C594 1.419 . S
C593 C588 1.425 . S
C593 C590 1.409 . S
C593 C591 1.415 . S
C594 H584 0.930 . S
C594 C592 1.419 . S
C594 C595 1.362 . S
C595 H585 0.930 . S
C595 C588 1.409 . S
C595 C594 1.362 . S
H596 C602 0.930 . S
H597 C605 0.930 . S
H598 C606 0.930 . S
H599 C607 0.930 . S
H600 C610 0.930 . S
H601 C611 0.930 . S
C602 H596 0.930 . S
C602 C603 1.355 . S
C602 C604 1.415 . S
C603 C602 1.355 . S
C603 C605 1.419 . S
C604 C602 1.415 . S
C604 C609 1.425 . S
C604 C611 1.409 . S
C605 H597 0.930 . S
C605 C603 1.419 . S
C605 C606 1.362 . S
C606 H598 0.930 . S
C606 C605 1.362 . S
C606 C609 1.409 . S
C607 H599 0.930 . S
C607 C608 1.355 . S
C607 C609 1.415 . S
C608 C607 1.355 . S
C608 C610 1.419 . S
C609 C604 1.425 . S
C609 C606 1.409 . S
C609 C607 1.415 . S
C610 H600 0.930 . S
C610 C608 1.419 . S
C610 C611 1.362 . S
C611 H601 0.930 . S
C611 C604 1.409 . S
C611 C610 1.362 . S
H612 C618 0.930 . S
H613 C621 0.930 . S
H614 C622 0.930 . S
H615 C623 0.930 . S
H616 C626 0.930 . S
H617 C627 0.930 . S
C618 H612 0.930 . S
C618 C619 1.355 . S
C618 C620 1.415 . S
C619 C618 1.355 . S
C619 C621 1.419 . S
C620 C618 1.415 . S
C620 C625 1.425 . S
C620 C627 1.409 . S
C621 H613 0.930 . S
C621 C619 1.419 . S
C621 C622 1.362 . S
C622 H614 0.930 . S
C622 C621 1.362 . S
C622 C625 1.409 . S
C623 H615 0.930 . S
C623 C624 1.355 . S
C623 C625 1.415 . S
C624 C623 1.355 . S
C624 C626 1.419 . S
C625 C620 1.425 . S
C625 C622 1.409 . S
C625 C623 1.415 . S
C626 H616 0.930 . S
C626 C624 1.419 . S
C626 C627 1.362 . S
C627 H617 0.930 . S
C627 C620 1.409 . S
C627 C626 1.362 . S
H628 C634 0.930 . S
H629 C637 0.930 . S
H630 C638 0.930 . S
H631 C639 0.930 . S
H632 C642 0.930 . S
H633 C643 0.930 . S
C634 H628 0.930 . S
C634 C635 1.355 . S
C634 C636 1.415 . S
C635 C634 1.355 . S
C635 C637 1.419 . S
C636 C634 1.415 . S
C636 C641 1.425 . S
C636 C643 1.409 . S
C637 H629 0.930 . S
C637 C635 1.419 . S
C637 C638 1.362 . S
C638 H630 0.930 . S
C638 C637 1.362 . S
C638 C641 1.409 . S
C639 H631 0.930 . S
C639 C640 1.355 . S
C639 C641 1.415 . S
C640 C639 1.355 . S
C640 C642 1.419 . S
C641 C636 1.425 . S
C641 C638 1.409 . S
C641 C639 1.415 . S
C642 H632 0.930 . S
C642 C640 1.419 . S
C642 C643 1.362 . S
C643 H633 0.930 . S
C643 C636 1.409 . S
C643 C642 1.362 . S
H644 C650 0.930 . S
H645 C653 0.930 . S
H646 C654 0.930 . S
H647 C655 0.930 . S
H648 C658 0.930 . S
H649 C659 0.930 . S
C650 H644 0.930 . S
C650 C651 1.355 . S
C650 C652 1.415 . S
C651 C650 1.355 . S
C651 C653 1.419 . S
C652 C650 1.415 . S
C652 C657 1.425 . S
C652 C659 1.409 . S
C653 H645 0.930 . S
C653 C651 1.419 . S
C653 C654 1.362 . S
C654 H646 0.930 . S
C654 C653 1.362 . S
C654 C657 1.409 . S
C655 H647 0.930 . S
C655 C656 1.355 . S
C655 C657 1.415 . S
C656 C655 1.355 . S
C656 C658 1.419 . S
C657 C652 1.425 . S
C657 C654 1.409 . S
C657 C655 1.415 . S
C658 H648 0.930 . S
C658 C656 1.419 . S
C658 C659 1.362 . S
C659 H649 0.930 . S
C659 C652 1.409 . S
C659 C658 1.362 . S
H660 C666 0.930 . S
H661 C669 0.930 . S
H662 C670 0.930 . S
H663 C671 0.930 . S
H664 C674 0.930 . S
H665 C675 0.930 . S
C666 H660 0.930 . S
C666 C667 1.355 . S
C666 C668 1.415 . S
C667 C666 1.355 . S
C667 C669 1.419 . S
C668 C666 1.415 . S
C668 C673 1.425 . S
C668 C675 1.409 . S
C669 H661 0.930 . S
C669 C667 1.419 . S
C669 C670 1.362 . S
C670 H662 0.930 . S
C670 C669 1.362 . S
C670 C673 1.409 . S
C671 H663 0.930 . S
C671 C672 1.355 . S
C671 C673 1.415 . S
C672 C671 1.355 . S
C672 C674 1.419 . S
C673 C668 1.425 . S
C673 C670 1.409 . S
C673 C671 1.415 . S
C674 H664 0.930 . S
C674 C672 1.419 . S
C674 C675 1.362 . S
C675 H665 0.930 . S
C675 C668 1.409 . S
C675 C674 1.362 . S
H676 C682 0.930 . S
H677 C685 0.930 . S
H678 C686 0.930 . S
H679 C687 0.930 . S
H680 C690 0.930 . S
H681 C691 0.930 . S
C682 H676 0.930 . S
C682 C683 1.355 . S
C682 C684 1.415 . S
C683 C682 1.355 . S
C683 C685 1.419 . S
C684 C682 1.415 . S
C684 C689 1.425 . S
C684 C691 1.409 . S
C685 H677 0.930 . S
C685 C683 1.419 . S
C685 C686 1.362 . S
C686 H678 0.930 . S
C686 C685 1.362 . S
C686 C689 1.409 . S
C687 H679 0.930 . S
C687 C688 1.355 . S
C687 C689 1.415 . S
C688 C687 1.355 . S
C688 C690 1.419 . S
C689 C684 1.425 . S
C689 C686 1.409 . S
C689 C687 1.415 . S
C690 H680 0.930 . S
C690 C688 1.419 . S
C690 C691 1.362 . S
C691 H681 0.930 . S
C691 C684 1.409 . S
C691 C690 1.362 . S
H692 C698 0.930 . S
H693 C701 0.930 . S
H694 C702 0.930 . S
H695 C703 0.930 . S
H696 C706 0.930 . S
H697 C707 0.930 . S
C698 H692 0.930 . S
C698 C699 1.355 . S
C698 C700 1.415 . S
C699 C698 1.355 . S
C699 C701 1.419 . S
C700 C698 1.415 . S
C700 C705 1.425 . S
C700 C707 1.409 . S
C701 H693 0.930 . S
C701 C699 1.419 . S
C701 C702 1.362 . S
C702 H694 0.930 . S
C702 C701 1.362 . S
C702 C705 1.409 . S
C703 H695 0.930 . S
C703 C704 1.355 . S
C703 C705 1.415 . S
C704 C703 1.355 . S
C704 C706 1.419 . S
C705 C700 1.425 . S
C705 C702 1.409 . S
C705 C703 1.415 . S
C706 H696 0.930 . S
C706 C704 1.419 . S
C706 C707 1.362 . S
C707 H697 0.930 . S
C707 C700 1.409 . S
C707 C706 1.362 . S
H708 C714 0.930 . S
H709 C717 0.930 . S
H710 C718 0.930 . S
H711 C719 0.930 . S
H712 C722 0.930 . S
H713 C723 0.930 . S
C714 H708 0.930 . S
C714 C715 1.355 . S
C714 C716 1.415 . S
C715 C714 1.355 . S
C715 C717 1.419 . S
C716 C714 1.415 . S
C716 C721 1.425 . S
C716 C723 1.409 . S
C717 H709 0.930 . S
C717 C715 1.419 . S
C717 C718 1.362 . S
C718 H710 0.930 . S
C718 C717 1.362 . S
C718 C721 1.409 . S
C719 H711 0.930 . S
C719 C720 1.355 . S
C719 C721 1.415 . S
C720 C719 1.355 . S
C720 C722 1.419 . S
C721 C716 1.425 . S
C721 C718 1.409 . S
C721 C719 1.415 . S
C722 H712 0.930 . S
C722 C720 1.419 . S
C722 C723 1.362 . S
C723 H713 0.930 . S
C723 C716 1.409 . S
C723 C722 1.362 . S
C347 C221 1.384 . S
C352 C272 1.413 . S
C368 C280 1.337 . S
C363 C241 1.423 . S
C384 C284 1.339 . S
C379 C157 1.428 . S
C395 C177 1.376 . S
C400 C260 1.320 . S
C416 C301 1.375 . S
C411 C93 1.459 . S
C432 C335 1.386 . S
C427 C113 1.350 . S
C443 C29 1.440 . S
C448 C323 1.425 . S
C459 C49 1.331 . S
C464 C305 1.378 . S
C480 C259 1.330 . S
C475 C61 1.444 1_554 S
C496 C293 1.236 . S
C491 C17 1.466 . S
C512 C297 1.360 . S
C507 C125 1.440 1_556 S
C528 C275 1.344 . S
C523 C81 1.431 . S
C544 C314 1.356 . S
C539 C189 1.423 1_556 S
C555 C145 1.414 . S
C560 C322 1.235 . S
C576 C338 1.364 . S
C571 C253 1.415 1_554 S
C587 C209 1.399 . S
C592 C318 1.232 . S
C608 C263 1.323 . S
C603 C23 1.478 . S
C624 C281 1.316 . S
C619 C55 1.493 . S
C635 C87 1.485 . S
C640 C296 1.377 . S
C656 C276 1.288 . S
C651 C119 1.424 . S
C672 C302 1.322 . S
C667 C151 1.492 . S
C683 C183 1.497 . S
C688 C326 1.377 . S
C699 C215 1.436 . S
C704 C339 1.374 . S
C715 C247 1.453 . S
C720 C317 1.282 . S
