# Generated by pormake.
# Topology pth, (4,4)-cn, num edge types: 1
# Building blocks:
#     Node 0, Type 0, BuildingBlock: UXUYUI_clean_sbu_0, # of connection points: 4
#     Node 1, Type 0, BuildingBlock: UXUYUI_clean_sbu_0, # of connection points: 4
#     Node 2, Type 0, BuildingBlock: UXUYUI_clean_sbu_0, # of connection points: 4
#     Node 3, Type 1, BuildingBlock: NAWXER_clean_linker_0, # of connection points: 4
#     Node 4, Type 1, BuildingBlock: NAWXER_clean_linker_0, # of connection points: 4
#     Node 5, Type 1, BuildingBlock: NAWXER_clean_linker_0, # of connection points: 4
#     Edge 6, Type (0, 1), BuildingBlock: OJICUG_clean_linker_0, # of connection points: 2
#     Edge 7, Type (0, 1), BuildingBlock: OJICUG_clean_linker_0, # of connection points: 2
#     Edge 8, Type (0, 1), BuildingBlock: OJICUG_clean_linker_0, # of connection points: 2
#     Edge 9, Type (0, 1), BuildingBlock: OJICUG_clean_linker_0, # of connection points: 2
#     Edge 10, Type (0, 1), BuildingBlock: OJICUG_clean_linker_0, # of connection points: 2
#     Edge 11, Type (0, 1), BuildingBlock: OJICUG_clean_linker_0, # of connection points: 2
#     Edge 12, Type (0, 1), BuildingBlock: OJICUG_clean_linker_0, # of connection points: 2
#     Edge 13, Type (0, 1), BuildingBlock: OJICUG_clean_linker_0, # of connection points: 2
#     Edge 14, Type (0, 1), BuildingBlock: OJICUG_clean_linker_0, # of connection points: 2
#     Edge 15, Type (0, 1), BuildingBlock: OJICUG_clean_linker_0, # of connection points: 2
#     Edge 16, Type (0, 1), BuildingBlock: OJICUG_clean_linker_0, # of connection points: 2
#     Edge 17, Type (0, 1), BuildingBlock: OJICUG_clean_linker_0, # of connection points: 2
# Relax obj value: 0.074
# Max RMSD: 0.209
# Mean RMSD: 0.112
data_MOF--net-pth--node1-UXUYUI_clean_sbu_0--node2-NAWXER_clean_linker_0--edge1-OJICUG_clean_linker_0
_symmetry_space_group_name_H-M    P1
_symmetry_Int_Tables_number       1
_symmetry_cell_setting            triclinic
loop_
_symmetry_equiv_pos_as_xyz
'x, y, z'
_cell_length_a     28.068239
_cell_length_b     28.057368
_cell_length_c     63.479044
_cell_angle_alpha  89.991538
_cell_angle_beta   90.016538
_cell_angle_gamma 119.99508
loop_
_atom_site_label
_atom_site_type_symbol
_atom_site_fract_x
_atom_site_fract_y
_atom_site_fract_z
_atom_type_partial_charge
Li0 Li 0.04812 0.03551 0.03849 0.0
Li1 Li 0.98414 0.03436 0.06494 0.0
Li2 Li 0.01418 0.9642 0.06639 0.0
Li3 Li 0.94924 0.95871 0.03966 0.0
C4 C 0.11275 0.07154 0.07548 0.0
N5 N 0.22194 0.1247 0.08754 0.0
C6 C 0.13581 0.12241 0.08571 0.0
C7 C 0.14506 0.04754 0.07153 0.0
C8 C 0.19115 0.14871 0.09163 0.0
C9 C 0.20021 0.07508 0.07772 0.0
C10 C 0.96039 0.07388 0.03035 0.0
C11 C 0.8862 0.09383 0.03012 0.0
N12 N 0.9221 0.14637 0.02408 0.0
C13 C 0.99643 0.12786 0.0239 0.0
C14 C 0.90473 0.05651 0.03327 0.0
C15 C 0.97633 0.16397 0.02091 0.0
C16 C 0.1109 0.06809 0.00092 0.0
N17 N 0.10611 0.08455 0.02057 0.0
C18 C 0.17702 0.17659 0.01332 0.0
C19 C 0.13821 0.13752 0.02697 0.0
C20 C 0.18273 0.16095 0.99289 0.0
C21 C 0.14965 0.10573 0.98681 0.0
H22 H 0.08366 0.02605 0.99605 0.0
H23 H 0.13223 0.14992 0.04239 0.0
C24 C 0.93749 0.06597 0.09837 0.0
N25 N 0.97287 0.0837 0.08179 0.0
C26 C 0.93578 0.104 0.11214 0.0
C27 C 0.00641 0.1775 0.09131 0.0
C28 C 0.00692 0.13817 0.07806 0.0
C29 C 0.97123 0.16066 0.10887 0.0
H30 H 0.91221 0.02239 0.1014 0.0
H31 H 0.03601 0.15105 0.06521 0.0
C32 C 0.0408 0.92295 0.03086 0.0
N33 N 0.08742 0.85888 0.02151 0.0
C34 C 0.00862 0.86556 0.03101 0.0
C35 C 0.09671 0.94769 0.02586 0.0
C36 C 0.03294 0.8339 0.02627 0.0
C37 C 0.11951 0.91462 0.02121 0.0
C38 C 0.88626 0.91515 0.07458 0.0
C39 C 0.87333 0.86148 0.07962 0.0
C40 C 0.84439 0.92827 0.07366 0.0
C41 C 0.81855 0.82161 0.08333 0.0
C42 C 0.79011 0.88725 0.07748 0.0
N43 N 0.77841 0.8352 0.08218 0.0
C44 C 0.00085 0.91224 0.10454 0.0
C45 C 0.0593 0.89711 0.08203 0.0
C46 C 0.0005 0.87523 0.11928 0.0
N47 N 0.02838 0.92105 0.08603 0.0
C48 C 0.06039 0.85994 0.09642 0.0
C49 C 0.02942 0.84749 0.11506 0.0
H50 H 0.97732 0.93248 0.1075 0.0
H51 H 0.08202 0.90548 0.06752 0.0
C52 C 0.87279 0.92751 0.00585 0.0
N53 N 0.88933 0.90861 0.02243 0.0
C54 C 0.83225 0.89052 0.99207 0.0
C55 C 0.82648 0.8155 0.01274 0.0
C56 C 0.86695 0.85383 0.02606 0.0
C57 C 0.80888 0.83358 0.99534 0.0
H58 H 0.89196 0.97126 0.00303 0.0
H59 H 0.88154 0.83967 0.03899 0.0
O60 O 0.05877 0.04554 0.06941 0.0
O61 O 0.97942 0.0381 0.0336 0.0
O62 O 0.01757 0.9547 0.0352 0.0
O63 O 0.93972 0.9548 0.0709 0.0
H64 H 0.1113 0.14149 0.08895 0.0
H65 H 0.12776 0.0081 0.06382 0.0
H66 H 0.20961 0.18819 0.09948 0.0
H67 H 0.22571 0.05698 0.07472 0.0
H68 H 0.84324 0.08098 0.03242 0.0
H69 H 0.03954 0.14188 0.02138 0.0
H70 H 0.8761 0.01459 0.03782 0.0
H71 H 0.00385 0.20598 0.01607 0.0
H72 H 0.20184 0.21875 0.01861 0.0
H73 H 0.15231 0.09227 0.97109 0.0
H74 H 0.90866 0.08911 0.12565 0.0
H75 H 0.03405 0.22066 0.08803 0.0
H76 H 0.96549 0.84557 0.03494 0.0
H77 H 0.12248 0.99195 0.02575 0.0
H78 H 0.00851 0.78946 0.02641 0.0
H79 H 0.16274 0.93328 0.0174 0.0
H80 H 0.90509 0.8504 0.08027 0.0
H81 H 0.85369 0.96973 0.07017 0.0
H82 H 0.80793 0.77982 0.08706 0.0
H83 H 0.7573 0.89683 0.07677 0.0
H84 H 0.97701 0.86766 0.13365 0.0
H85 H 0.08335 0.83951 0.09259 0.0
H86 H 0.81969 0.90632 0.97893 0.0
H87 H 0.81058 0.7721 0.01567 0.0
Li88 Li 0.98417 0.94787 0.37221 0.0
Li89 Li 0.04766 0.01079 0.39835 0.0
Li90 Li 0.94824 0.98612 0.39849 0.0
Li91 Li 0.01103 0.04803 0.37158 0.0
C92 C 0.95631 0.88297 0.40734 0.0
N93 N 0.90735 0.77128 0.41505 0.0
C94 C 0.98832 0.85985 0.41331 0.0
C95 C 0.8993 0.84941 0.40569 0.0
C96 C 0.96285 0.80326 0.41701 0.0
C97 C 0.87533 0.79303 0.40956 0.0
C98 C 0.11231 0.03839 0.36228 0.0
C99 C 0.20054 0.12 0.35692 0.0
N100 N 0.22274 0.08795 0.35215 0.0
C101 C 0.13584 0.0063 0.35698 0.0
C102 C 0.14476 0.09572 0.36196 0.0
C103 C 0.19179 0.03209 0.35205 0.0
C104 C 0.93881 0.87154 0.33813 0.0
N105 N 0.97269 0.88746 0.35517 0.0
C106 C 0.00278 0.82395 0.34644 0.0
C107 C 0.00425 0.86454 0.35952 0.0
C108 C 0.96866 0.80687 0.32857 0.0
C109 C 0.93587 0.83081 0.32462 0.0
H110 H 0.91527 0.8915 0.33469 0.0
H111 H 0.03222 0.87933 0.37274 0.0
C112 C 0.1219 0.0529 0.43324 0.0
N113 N 0.10714 0.02082 0.41569 0.0
C114 C 0.16129 0.05398 0.44703 0.0
C115 C 0.16899 0.98869 0.4245 0.0
C116 C 0.12997 0.98928 0.4111 0.0
C117 C 0.18457 0.02077 0.44289 0.0
H118 H 0.10172 0.07608 0.43696 0.0
H119 H 0.11614 0.96275 0.39745 0.0
C120 C 0.88376 0.9641 0.36263 0.0
N121 N 0.77503 0.92895 0.3531 0.0
C122 C 0.86788 0.00207 0.35662 0.0
C123 C 0.84449 0.90812 0.36336 0.0
C124 C 0.81267 0.98354 0.352 0.0
C125 C 0.7897 0.89119 0.35859 0.0
C126 C 0.03939 0.11324 0.40832 0.0
C127 C 0.00724 0.13435 0.41629 0.0
C128 C 0.09627 0.14765 0.40658 0.0
C129 C 0.0324 0.1899 0.42184 0.0
C130 C 0.11992 0.20295 0.41233 0.0
N131 N 0.08775 0.22279 0.41974 0.0
C132 C 0.87609 0.9451 0.43378 0.0
C133 C 0.86511 0.00689 0.41161 0.0
C134 C 0.83683 0.94333 0.4478 0.0
N135 N 0.88932 0.97656 0.4161 0.0
C136 C 0.82583 0.00644 0.42516 0.0
C137 C 0.81172 0.97493 0.44369 0.0
H138 H 0.89728 0.92281 0.43736 0.0
H139 H 0.8779 0.03322 0.39791 0.0
C140 C 0.04571 0.11226 0.33438 0.0
N141 N 0.02261 0.10718 0.35367 0.0
C142 C 0.04918 0.15196 0.32018 0.0
C143 C 0.00502 0.18032 0.346 0.0
C144 C 0.00234 0.1401 0.35963 0.0
C145 C 0.02825 0.18637 0.32589 0.0
H146 H 0.0603 0.08462 0.32984 0.0
H147 H 0.98188 0.13357 0.37462 0.0
O148 O 0.9806 0.93827 0.40347 0.0
O149 O 0.0575 0.01377 0.36712 0.0
O150 O 0.9377 0.98158 0.36722 0.0
O151 O 0.01533 0.0589 0.40277 0.0
H152 H 0.0324 0.8852 0.41495 0.0
H153 H 0.87374 0.86679 0.40171 0.0
H154 H 0.98721 0.78479 0.42147 0.0
H155 H 0.83125 0.7666 0.40826 0.0
H156 H 0.22612 0.16434 0.35671 0.0
H157 H 0.11127 0.96191 0.35676 0.0
H158 H 0.12703 0.12131 0.36534 0.0
H159 H 0.21058 0.0077 0.34811 0.0
H160 H 0.02975 0.80772 0.34987 0.0
H161 H 0.90876 0.81874 0.31109 0.0
H162 H 0.17165 0.07865 0.46122 0.0
H163 H 0.18611 0.96266 0.42072 0.0
H164 H 0.89774 0.04546 0.3557 0.0
H165 H 0.85622 0.87794 0.3673 0.0
H166 H 0.79977 0.01257 0.34751 0.0
H167 H 0.75889 0.84799 0.35917 0.0
H168 H 0.96328 0.10825 0.41803 0.0
H169 H 0.12205 0.1317 0.40117 0.0
H170 H 0.00792 0.20684 0.42785 0.0
H171 H 0.1639 0.23003 0.411 0.0
H172 H 0.82782 0.91918 0.46207 0.0
H173 H 0.8073 0.03118 0.42131 0.0
H174 H 0.06759 0.15537 0.30486 0.0
H175 H 0.98717 0.20499 0.35087 0.0
Li176 Li 0.03591 0.98666 0.70633 0.0
Li177 Li 0.03374 0.04821 0.73291 0.0
Li178 Li 0.96168 0.9477 0.7321 0.0
Li179 Li 0.9604 0.01012 0.70576 0.0
C180 C 0.0808 0.96767 0.74097 0.0
N181 N 0.15996 0.93814 0.74761 0.0
C182 C 0.13467 0.00768 0.74606 0.0
C183 C 0.06698 0.91251 0.73967 0.0
C184 C 0.17417 0.99198 0.74924 0.0
C185 C 0.10762 0.89843 0.74297 0.0
C186 C 0.06661 0.11333 0.69576 0.0
C187 C 0.0658 0.1982 0.69083 0.0
N188 N 0.11804 0.22227 0.68323 0.0
C189 C 0.11999 0.1387 0.68757 0.0
C190 C 0.03904 0.14314 0.69713 0.0
C191 C 0.14541 0.19388 0.68146 0.0
C192 C 0.06948 0.94092 0.67315 0.0
N193 N 0.0865 0.97807 0.68915 0.0
C194 C 0.18034 0.01555 0.67886 0.0
C195 C 0.14066 0.01476 0.69226 0.0
C196 C 0.16411 0.97848 0.66192 0.0
C197 C 0.1079 0.94014 0.65934 0.0
H198 H 0.02606 0.9132 0.67065 0.0
H199 H 0.15293 0.04477 0.70476 0.0
C200 C 0.06241 0.1116 0.77031 0.0
N201 N 0.08018 0.10795 0.75078 0.0
C202 C 0.09808 0.15205 0.78439 0.0
C203 C 0.16956 0.184 0.75798 0.0
C204 C 0.13255 0.14306 0.74445 0.0
C205 C 0.15267 0.18862 0.77835 0.0
H206 H 0.02087 0.08231 0.77512 0.0
H207 H 0.14637 0.13779 0.72922 0.0
C208 C 0.92103 0.8833 0.69744 0.0
N209 N 0.84947 0.77238 0.69094 0.0
C210 C 0.86688 0.86487 0.69108 0.0
C211 C 0.93902 0.8454 0.7001 0.0
C212 C 0.83125 0.80861 0.68799 0.0
C213 C 0.90218 0.78948 0.69684 0.0
C214 C 0.92346 0.03762 0.74296 0.0
C215 C 0.86893 0.00571 0.74966 0.0
C216 C 0.9484 0.09498 0.74326 0.0
C217 C 0.83979 0.03165 0.75591 0.0
C218 C 0.91795 0.11941 0.74964 0.0
N219 N 0.86468 0.0875 0.75575 0.0
C220 C 0.93124 0.86934 0.76547 0.0
C221 C 0.85838 0.86515 0.74518 0.0
C222 C 0.89366 0.82831 0.77896 0.0
N223 N 0.91296 0.88689 0.74903 0.0
C224 C 0.8195 0.82426 0.75821 0.0
C225 C 0.83687 0.80564 0.77553 0.0
H226 H 0.97487 0.88821 0.76848 0.0
H227 H 0.84499 0.88109 0.73239 0.0
C228 C 0.92925 0.04632 0.66919 0.0
N229 N 0.91159 0.02022 0.68803 0.0
C230 C 0.89194 0.0484 0.65516 0.0
C231 C 0.81905 0.99623 0.68011 0.0
C232 C 0.85776 0.99554 0.69368 0.0
C233 C 0.83589 0.02237 0.66046 0.0
H234 H 0.972 0.06409 0.66477 0.0
H235 H 0.84445 0.97324 0.70836 0.0
O236 O 0.04164 0.98234 0.73766 0.0
O237 O 0.0411 0.05921 0.70178 0.0
O238 O 0.95637 0.93821 0.70076 0.0
O239 O 0.95271 0.01279 0.73693 0.0
H240 H 0.14603 0.05047 0.74737 0.0
H241 H 0.02525 0.88081 0.73633 0.0
H242 H 0.21612 0.02262 0.753 0.0
H243 H 0.0975 0.85589 0.74193 0.0
H244 H 0.0449 0.22171 0.69187 0.0
H245 H 0.14176 0.11619 0.68605 0.0
H246 H 0.9971 0.12379 0.70266 0.0
H247 H 0.18687 0.2141 0.67528 0.0
H248 H 0.22324 0.04546 0.68155 0.0
H249 H 0.0936 0.91135 0.64631 0.0
H250 H 0.08324 0.15429 0.7999 0.0
H251 H 0.21157 0.21032 0.75282 0.0
H252 H 0.85235 0.8936 0.6887 0.0
H253 H 0.98109 0.85903 0.70447 0.0
H254 H 0.78912 0.79376 0.68324 0.0
H255 H 0.91555 0.7597 0.69894 0.0
H256 H 0.84912 0.96134 0.74993 0.0
H257 H 0.99104 0.12051 0.73887 0.0
H258 H 0.79742 0.00737 0.76094 0.0
H259 H 0.93677 0.16375 0.74986 0.0
H260 H 0.9089 0.815 0.79205 0.0
H261 H 0.77627 0.809 0.7552 0.0
H262 H 0.90644 0.06826 0.64002 0.0
H263 H 0.77624 0.97579 0.68482 0.0
C264 C 0.9742 0.32262 0.25378 0.0
C265 C 0.01834 0.34098 0.26804 0.0
C266 C 0.96878 0.36009 0.24088 0.0
C267 C 0.00776 0.41645 0.24186 0.0
C268 C 0.05734 0.39742 0.26886 0.0
C269 C 0.0519 0.43472 0.25599 0.0
C270 C 0.00166 0.45745 0.2293 0.0
C271 C 0.02476 0.34978 0.1823 0.0
C272 C 0.98178 0.3243 0.16753 0.0
C273 C 0.02865 0.39167 0.19538 0.0
C274 C 0.98912 0.4083 0.19419 0.0
C275 C 0.94252 0.34138 0.16632 0.0
C276 C 0.94632 0.38306 0.17946 0.0
C277 C 0.99341 0.45395 0.20726 0.0
C278 C 0.04635 0.68301 0.18602 0.0
C279 C 0.00885 0.67274 0.16959 0.0
C280 C 0.04128 0.63994 0.19865 0.0
C281 C -0.00148 0.58581 0.19513 0.0
C282 C 0.96616 0.6185 0.16607 0.0
C283 C 0.96135 0.57538 0.17862 0.0
C284 C 0.99472 0.53968 0.20774 0.0
C285 C 0.9515 0.63527 0.25285 0.0
C286 C 0.98547 0.65634 0.27067 0.0
C287 C 0.95645 0.59863 0.23936 0.0
C288 C 0.99624 0.58318 0.24318 0.0
C289 C 0.02512 0.64075 0.27451 0.0
C290 C 0.03034 0.60446 0.26093 0.0
C291 C -0.00071 0.54131 0.22991 0.0
H292 H 0.94297 0.27953 0.25302 0.0
H293 H 0.93358 0.34518 0.23048 0.0
H294 H 0.09215 0.41283 0.27948 0.0
H295 H 0.08232 0.47807 0.25707 0.0
H296 H 0.05552 0.33744 0.18374 0.0
H297 H 0.06297 0.41152 0.20619 0.0
H298 H 0.90951 0.32343 0.15488 0.0
H299 H 0.91578 0.39575 0.17807 0.0
H300 H 0.07951 0.72439 0.18914 0.0
H301 H 0.07133 0.64886 0.21096 0.0
H302 H 0.93709 0.60926 0.15335 0.0
H303 H 0.92852 0.53384 0.17545 0.0
H304 H 0.91997 0.64583 0.24969 0.0
H305 H 0.92808 0.58126 0.22629 0.0
H306 H 0.05223 0.65673 0.28802 0.0
H307 H 0.06097 0.5928 0.26436 0.0
N308 N 0.0037 0.5007 0.23975 0.0
N309 N 0.99078 0.49552 0.19733 0.0
C310 C 0.67498 0.02725 0.51683 0.0
C311 C 0.65808 0.98399 0.50224 0.0
C312 C 0.63656 0.03075 0.52976 0.0
C313 C 0.58058 0.99077 0.52849 0.0
C314 C 0.60199 0.94405 0.50103 0.0
C315 C 0.56363 0.94763 0.51395 0.0
C316 C 0.53885 0.99507 0.54127 0.0
C317 C 0.64498 0.96914 0.58818 0.0
C318 C 0.67303 0.01351 0.60217 0.0
C319 C 0.60322 0.96603 0.57523 0.0
C320 C 0.58894 0.00734 0.57602 0.0
C321 C 0.65876 0.05488 0.60283 0.0
C322 C 0.6168 0.05156 0.58999 0.0
C323 C 0.54308 0.00344 0.56328 0.0
C324 C 0.31632 0.95592 0.58659 0.0
C325 C 0.32942 0.99292 0.60346 0.0
C326 C 0.35762 0.95928 0.57331 0.0
C327 C 0.41275 0.00013 0.57648 0.0
C328 C 0.3847 0.03351 0.60665 0.0
C329 C 0.4259 0.0369 0.59335 0.0
C330 C 0.45738 0.0021 0.5634 0.0
C331 C 0.35764 0.04104 0.51855 0.0
C332 C 0.3353 0.00543 0.50119 0.0
C333 C 0.39577 0.03787 0.53178 0.0
C334 C 0.4116 0.99828 0.52818 0.0
C335 C 0.3517 0.96625 0.49753 0.0
C336 C 0.38945 0.96281 0.51086 0.0
C337 C 0.45451 0.99654 0.54123 0.0
H338 H 0.71793 0.05853 0.5182 0.0
H339 H 0.65051 0.06521 0.54049 0.0
H340 H 0.58752 0.91075 0.48973 0.0
H341 H 0.52055 0.91669 0.51253 0.0
H342 H 0.65524 0.93676 0.58728 0.0
H343 H 0.5815 0.93093 0.56488 0.0
H344 H 0.67909 0.08912 0.61367 0.0
H345 H 0.60599 0.08355 0.59099 0.0
H346 H 0.27415 0.92435 0.58364 0.0
H347 H 0.34649 0.92929 0.56081 0.0
H348 H 0.39637 0.06202 0.61971 0.0
H349 H 0.46822 0.0682 0.59632 0.0
H350 H 0.34575 0.0715 0.52193 0.0
H351 H 0.41359 0.06711 0.54457 0.0
H352 H 0.3363 0.93891 0.48408 0.0
H353 H 0.40167 0.93256 0.50752 0.0
N354 N 0.49492 0.99231 0.53112 0.0
N355 N 0.50205 0.00629 0.57348 0.0
C356 C 0.34373 0.326 0.84977 0.0
C357 C 0.31767 0.34457 0.83572 0.0
C358 C 0.38691 0.36323 0.86257 0.0
C359 C 0.40452 0.41965 0.8617 0.0
C360 C 0.33539 0.40111 0.83498 0.0
C361 C 0.37859 0.43825 0.84774 0.0
C362 C 0.45176 0.46013 0.87432 0.0
C363 C 0.32021 0.35539 0.92175 0.0
C364 C 0.336 0.32548 0.93499 0.0
C365 C 0.35893 0.39726 0.90885 0.0
C366 C 0.41404 0.40989 0.90901 0.0
C367 C 0.39116 0.3381 0.93501 0.0
C368 C 0.42989 0.38026 0.92227 0.0
C369 C 0.45614 0.45563 0.89629 0.0
C370 C 0.63691 0.68181 0.91912 0.0
C371 C 0.65812 0.66857 0.93682 0.0
C372 C 0.59996 0.64041 0.90563 0.0
C373 C 0.58429 0.58507 0.90935 0.0
C374 C 0.64256 0.61324 0.94047 0.0
C375 C 0.6059 0.57194 0.92692 0.0
C376 C 0.54155 0.54031 0.89631 0.0
C377 C 0.68141 0.63404 0.85127 0.0
C378 C 0.6694 0.65624 0.83356 0.0
C379 C 0.63934 0.59803 0.86474 0.0
C380 C 0.58456 0.58435 0.86099 0.0
C381 C 0.61462 0.64252 0.82984 0.0
C382 C 0.57266 0.60685 0.84339 0.0
C383 C 0.53895 0.54291 0.87412 0.0
H384 H 0.33182 0.28288 0.85044 0.0
H385 H 0.40729 0.34806 0.8728 0.0
H386 H 0.31584 0.41673 0.82454 0.0
H387 H 0.39172 0.48166 0.84676 0.0
H388 H 0.27793 0.34641 0.92139 0.0
H389 H 0.34602 0.42032 0.89902 0.0
H390 H 0.40462 0.31626 0.94526 0.0
H391 H 0.47234 0.38977 0.92276 0.0
H392 H 0.6475 0.72397 0.91609 0.0
H393 H 0.58245 0.65161 0.89266 0.0
H394 H 0.65869 0.60184 0.95385 0.0
H395 H 0.59409 0.52956 0.93024 0.0
H396 H 0.72311 0.64321 0.85436 0.0
H397 H 0.64955 0.57975 0.87774 0.0
H398 H 0.60418 0.65945 0.81645 0.0
H399 H 0.53074 0.59658 0.84003 0.0
N400 N 0.49358 0.50328 0.86409 0.0
N401 N 0.50056 0.49614 0.90644 0.0
C402 C 0.92539 0.19601 0.13339 0.0
C403 C 0.97357 0.20199 0.12413 0.0
H404 H 0.89017 0.22938 0.15455 0.0
C405 C 0.02444 0.24783 0.12964 0.0
H406 H 0.88553 0.16136 0.12943 0.0
C407 C 0.02705 0.28711 0.14381 0.0
C408 C 0.97889 0.28147 0.15294 0.0
H409 H 0.06249 0.25328 0.12311 0.0
H410 H 0.06685 0.32241 0.14733 0.0
C411 C 0.92802 0.2353 0.14763 0.0
C412 C 0.73262 0.92899 0.46905 0.0
C413 C 0.77282 0.97701 0.459 0.0
H414 H 0.66511 0.89356 0.49072 0.0
C415 C 0.77579 0.0274 0.46369 0.0
H416 H 0.72915 0.88952 0.46569 0.0
C417 C 0.73903 0.02968 0.4779 0.0
C418 C 0.69837 0.98161 0.48775 0.0
H419 H 0.80681 0.06528 0.45646 0.0
H420 H 0.74185 0.06903 0.48086 0.0
C421 C 0.69568 0.93125 0.48323 0.0
C422 C 0.74566 0.72145 0.78289 0.0
C423 C 0.79571 0.76499 0.79041 0.0
H424 H 0.66688 0.65284 0.7906 0.0
C425 C 0.80476 0.77109 0.81229 0.0
H426 H 0.73773 0.71494 0.76614 0.0
C427 C 0.76417 0.73528 0.82631 0.0
C428 C 0.71357 0.69281 0.81876 0.0
H429 H 0.8425 0.80462 0.81864 0.0
H430 H 0.77175 0.74184 0.84309 0.0
C431 C 0.70504 0.68589 0.7969 0.0
C432 C 0.0713 0.79978 0.13482 0.0
C433 C 0.02483 0.8038 0.1295 0.0
H434 H 0.10266 0.75518 0.15171 0.0
C435 C 0.97327 0.76479 0.13765 0.0
H436 H 0.11157 0.8294 0.12884 0.0
C437 C 0.96817 0.72243 0.15071 0.0
C438 C 0.01456 0.71831 0.156 0.0
H439 H 0.93659 0.76639 0.13363 0.0
H440 H 0.92789 0.69299 0.15674 0.0
C441 C 0.06625 0.75761 0.14803 0.0
C442 C 0.21566 0.96572 0.4638 0.0
C443 C 0.22275 0.01726 0.45811 0.0
H444 H 0.24441 0.92147 0.48224 0.0
C445 C 0.26626 0.06497 0.46706 0.0
H446 H 0.18182 0.92817 0.45746 0.0
C447 C 0.30263 0.06122 0.48112 0.0
C448 C 0.29587 0.00962 0.48669 0.0
H449 H 0.27286 0.10524 0.46283 0.0
H450 H 0.33669 0.09887 0.48727 0.0
C451 C 0.25162 0.96192 0.47798 0.0
C452 C 0.23198 0.28255 0.78648 0.0
C453 C 0.19272 0.22965 0.7934 0.0
H454 H 0.30242 0.35984 0.79425 0.0
C455 C 0.19365 0.21547 0.81459 0.0
H456 H 0.23207 0.295 0.77032 0.0
C457 C 0.23364 0.25294 0.82841 0.0
C458 C 0.27358 0.30545 0.82136 0.0
H459 H 0.16438 0.17486 0.82039 0.0
H460 H 0.23336 0.2407 0.84461 0.0
C461 C 0.27196 0.31996 0.80027 0.0
C462 C 0.74524 0.97075 0.64193 0.0
C463 C 0.79476 0.02027 0.64526 0.0
H464 H 0.66811 0.92987 0.62571 0.0
C465 C 0.80459 0.06738 0.63395 0.0
H466 H 0.73683 0.93359 0.65022 0.0
C467 C 0.76527 0.06518 0.61984 0.0
C468 C 0.71562 0.01569 0.61661 0.0
H469 H 0.84231 0.10613 0.63625 0.0
H470 H 0.77379 0.10215 0.61138 0.0
C471 C 0.70618 0.96845 0.62772 0.0
C472 C 0.77484 0.80231 0.95846 0.0
C473 C 0.76822 0.79299 0.98031 0.0
H474 H 0.74561 0.77006 0.92757 0.0
C475 C 0.72391 0.74327 0.98769 0.0
H476 H 0.80895 0.8398 0.95223 0.0
C477 C 0.68801 0.70324 0.97357 0.0
C478 C 0.69536 0.71204 0.95173 0.0
H479 H 0.71698 0.73518 0.00442 0.0
H480 H 0.65429 0.66538 0.97976 0.0
C481 C 0.73871 0.76229 0.94432 0.0
C482 C 0.96836 0.77339 0.29179 0.0
C483 C 0.96965 0.76642 0.3137 0.0
H484 H 0.97287 0.7444 0.26104 0.0
C485 C 0.97452 0.72193 0.32126 0.0
H486 H 0.96554 0.80768 0.2854 0.0
C487 C 0.9793 0.6861 0.3073 0.0
C488 C 0.97897 0.69367 0.28543 0.0
H489 H 0.97467 0.71475 0.33802 0.0
H490 H 0.98296 0.65221 0.31363 0.0
C491 C 0.9728 0.73729 0.27782 0.0
C492 C 0.20357 0.93372 0.63895 0.0
C493 C 0.20553 0.98167 0.64659 0.0
H494 H 0.24161 0.89962 0.61961 0.0
C495 C 0.24757 0.03313 0.6395 0.0
H496 H 0.17192 0.89351 0.64425 0.0
C497 C 0.28722 0.03666 0.62534 0.0
C498 C 0.28591 0.98882 0.61794 0.0
H499 H 0.24954 0.07081 0.64475 0.0
H500 H 0.31873 0.07696 0.62006 0.0
C501 C 0.24341 0.93726 0.6248 0.0
C502 C 0.22356 0.25344 0.97568 0.0
C503 C 0.22144 0.20255 0.97777 0.0
H504 H 0.26127 0.33203 0.96044 0.0
C505 C 0.25636 0.19177 0.96531 0.0
H506 H 0.19665 0.2626 0.9849 0.0
C507 C 0.29336 0.23154 0.95131 0.0
C508 C 0.29562 0.28254 0.94931 0.0
H509 H 0.25569 0.15295 0.96666 0.0
H510 H 0.32006 0.22234 0.94198 0.0
C511 C 0.26009 0.29292 0.96153 0.0
C512 C 0.01438 0.21265 0.2895 0.0
C513 C 0.02838 0.22683 0.31077 0.0
H514 H 0.00049 0.23762 0.2593 0.0
C515 C 0.04031 0.27922 0.3177 0.0
H516 H 0.00437 0.17238 0.28372 0.0
C517 C 0.03752 0.31628 0.30378 0.0
C518 C 0.02274 0.30187 0.28259 0.0
H519 H 0.05168 0.29158 0.33393 0.0
H520 H 0.04587 0.35588 0.30976 0.0
C521 C 0.01148 0.24974 0.27557 0.0
loop_
_geom_bond_atom_site_label_1
_geom_bond_atom_site_label_2
_geom_bond_distance
_geom_bond_site_symmetry_2
_ccdc_geom_bond_type
Li0 N17 1.990 . S
Li0 O60 1.956 . S
Li0 O61 1.970 1_455 S
Li0 O62 1.961 1_545 S
Li1 N25 1.990 . S
Li1 O60 1.970 1_655 S
Li1 O61 1.956 . S
Li1 O63 1.961 1_545 S
Li2 N47 1.990 . S
Li2 O60 1.961 1_565 S
Li2 O62 1.956 . S
Li2 O63 1.970 1_455 S
Li3 N53 1.990 . S
Li3 O61 1.961 1_565 S
Li3 O62 1.970 1_655 S
Li3 O63 1.956 . S
C4 C6 1.348 . S
C4 C7 1.356 . S
C4 O60 1.325 . S
N5 C8 1.314 . S
N5 C9 1.279 . S
C6 C4 1.348 . S
C6 C8 1.353 . S
C6 H64 0.929 . S
C7 C4 1.356 . S
C7 C9 1.358 . S
C7 H65 0.930 . S
C8 N5 1.314 . S
C8 C6 1.353 . S
C8 H66 0.930 . S
C9 N5 1.279 . S
C9 C7 1.358 . S
C9 H67 0.930 . S
C10 C13 1.348 1_655 S
C10 C14 1.356 . S
C10 O61 1.325 . S
C11 N12 1.279 . S
C11 C14 1.358 . S
C11 H68 0.930 . S
N12 C11 1.279 . S
N12 C15 1.314 . S
C13 C10 1.348 1_455 S
C13 C15 1.353 1_455 S
C13 H69 0.929 . S
C14 C10 1.356 . S
C14 C11 1.358 . S
C14 H70 0.930 . S
C15 N12 1.314 . S
C15 C13 1.353 1_655 S
C15 H71 0.930 1_654 S
C16 N17 1.314 . S
C16 C21 1.353 1_554 S
C16 H22 0.930 1_554 S
N17 Li0 1.990 . S
N17 C16 1.314 . S
N17 C19 1.279 . S
C18 C19 1.358 . S
C18 C20 1.356 1_554 S
C18 H72 0.930 . S
C19 N17 1.279 . S
C19 C18 1.358 . S
C19 H23 0.930 . S
C20 C18 1.356 1_556 S
C20 C21 1.348 . S
C21 C16 1.353 1_556 S
C21 C20 1.348 . S
C21 H73 0.929 . S
H22 C16 0.930 1_556 S
H23 C19 0.930 . S
C24 N25 1.314 . S
C24 C26 1.353 . S
C24 H30 0.930 . S
N25 Li1 1.990 . S
N25 C24 1.314 . S
N25 C28 1.279 . S
C26 C24 1.353 . S
C26 C29 1.348 . S
C26 H74 0.929 . S
C27 C28 1.358 . S
C27 C29 1.356 . S
C27 H75 0.930 . S
C28 N25 1.279 . S
C28 C27 1.358 . S
C28 H31 0.930 . S
C29 C26 1.348 . S
C29 C27 1.356 . S
H30 C24 0.930 . S
H31 C28 0.930 . S
C32 C34 1.348 1_455 S
C32 C35 1.356 . S
C32 O62 1.325 . S
N33 C36 1.314 . S
N33 C37 1.279 . S
C34 C32 1.348 1_655 S
C34 C36 1.353 1_655 S
C34 H76 0.929 . S
C35 C32 1.356 . S
C35 C37 1.358 . S
C35 H77 0.930 . S
C36 N33 1.314 . S
C36 C34 1.353 1_455 S
C36 H78 0.930 1_454 S
C37 N33 1.279 . S
C37 C35 1.358 . S
C37 H79 0.930 . S
C38 C39 1.348 . S
C38 C40 1.356 . S
C38 O63 1.325 . S
C39 C38 1.348 . S
C39 C41 1.353 . S
C39 H80 0.929 . S
C40 C38 1.356 . S
C40 C42 1.358 . S
C40 H81 0.930 . S
C41 C39 1.353 . S
C41 N43 1.314 . S
C41 H82 0.930 . S
C42 C40 1.358 . S
C42 N43 1.279 . S
C42 H83 0.930 . S
N43 C41 1.314 . S
N43 C42 1.279 . S
C44 C46 1.353 . S
C44 N47 1.314 . S
C44 H50 0.930 . S
C45 N47 1.279 . S
C45 C48 1.358 . S
C45 H51 0.930 . S
C46 C44 1.353 . S
C46 C49 1.348 . S
C46 H84 0.929 . S
N47 Li2 1.990 . S
N47 C44 1.314 . S
N47 C45 1.279 . S
C48 C45 1.358 . S
C48 C49 1.356 . S
C48 H85 0.930 . S
C49 C46 1.348 . S
C49 C48 1.356 . S
H50 C44 0.930 . S
H51 C45 0.930 . S
C52 N53 1.314 . S
C52 C54 1.353 1_554 S
C52 H58 0.930 1_554 S
N53 Li3 1.990 . S
N53 C52 1.314 . S
N53 C56 1.279 . S
C54 C52 1.353 1_556 S
C54 C57 1.348 . S
C54 H86 0.929 . S
C55 C56 1.358 . S
C55 C57 1.356 1_554 S
C55 H87 0.930 . S
C56 N53 1.279 . S
C56 C55 1.358 . S
C56 H59 0.930 . S
C57 C54 1.348 . S
C57 C55 1.356 1_556 S
H58 C52 0.930 1_556 S
H59 C56 0.930 . S
O60 Li0 1.956 . S
O60 Li1 1.970 1_455 S
O60 Li2 1.961 1_545 S
O60 C4 1.325 . S
O61 Li0 1.970 1_655 S
O61 Li1 1.956 . S
O61 Li3 1.961 1_545 S
O61 C10 1.325 . S
O62 Li0 1.961 1_565 S
O62 Li2 1.956 . S
O62 Li3 1.970 1_455 S
O62 C32 1.325 . S
O63 Li1 1.961 1_565 S
O63 Li2 1.970 1_655 S
O63 Li3 1.956 . S
O63 C38 1.325 . S
H64 C6 0.929 . S
H65 C7 0.930 . S
H66 C8 0.930 . S
H67 C9 0.930 . S
H68 C11 0.930 . S
H69 C13 0.929 . S
H70 C14 0.930 . S
H71 C15 0.930 1_456 S
H72 C18 0.930 . S
H73 C21 0.929 . S
H74 C26 0.929 . S
H75 C27 0.930 . S
H76 C34 0.929 . S
H77 C35 0.930 . S
H78 C36 0.930 1_656 S
H79 C37 0.930 . S
H80 C39 0.929 . S
H81 C40 0.930 . S
H82 C41 0.930 . S
H83 C42 0.930 . S
H84 C46 0.929 . S
H85 C48 0.930 . S
H86 C54 0.929 . S
H87 C55 0.930 . S
Li88 N105 1.990 . S
Li88 O148 1.956 . S
Li88 O149 1.970 1_665 S
Li88 O150 1.961 . S
Li89 N113 1.990 . S
Li89 O148 1.970 1_445 S
Li89 O149 1.956 . S
Li89 O151 1.961 . S
Li90 N135 1.990 . S
Li90 O148 1.961 . S
Li90 O150 1.956 . S
Li90 O151 1.970 1_665 S
Li91 N141 1.990 . S
Li91 O149 1.961 . S
Li91 O150 1.970 1_445 S
Li91 O151 1.956 . S
C92 C94 1.348 1_655 S
C92 C95 1.356 . S
C92 O148 1.325 . S
N93 C96 1.314 . S
N93 C97 1.279 . S
C94 C92 1.348 1_455 S
C94 C96 1.353 1_455 S
C94 H152 0.929 . S
C95 C92 1.356 . S
C95 C97 1.358 . S
C95 H153 0.930 . S
C96 N93 1.314 . S
C96 C94 1.353 1_655 S
C96 H154 0.930 1_655 S
C97 N93 1.279 . S
C97 C95 1.358 . S
C97 H155 0.930 . S
C98 C101 1.348 1_545 S
C98 C102 1.356 . S
C98 O149 1.325 . S
C99 N100 1.279 . S
C99 C102 1.358 . S
C99 H156 0.930 . S
N100 C99 1.279 . S
N100 C103 1.314 . S
C101 C98 1.348 1_565 S
C101 C103 1.353 1_565 S
C101 H157 0.929 . S
C102 C98 1.356 . S
C102 C99 1.358 . S
C102 H158 0.930 . S
C103 N100 1.314 . S
C103 C101 1.353 1_545 S
C103 H159 0.930 1_545 S
C104 N105 1.314 . S
C104 C109 1.353 . S
C104 H110 0.930 . S
N105 Li88 1.990 . S
N105 C104 1.314 . S
N105 C107 1.279 . S
C106 C107 1.358 . S
C106 C108 1.356 . S
C106 H160 0.930 . S
C107 N105 1.279 . S
C107 C106 1.358 . S
C107 H111 0.930 . S
C108 C106 1.356 . S
C108 C109 1.348 . S
C109 C104 1.353 . S
C109 C108 1.348 . S
C109 H161 0.929 . S
H110 C104 0.930 . S
H111 C107 0.930 . S
C112 N113 1.314 . S
C112 C114 1.353 . S
C112 H118 0.930 . S
N113 Li89 1.990 . S
N113 C112 1.314 . S
N113 C116 1.279 . S
C114 C112 1.353 . S
C114 C117 1.348 . S
C114 H162 0.929 . S
C115 C116 1.358 . S
C115 C117 1.356 . S
C115 H163 0.930 . S
C116 N113 1.279 . S
C116 C115 1.358 . S
C116 H119 0.930 . S
C117 C114 1.348 . S
C117 C115 1.356 . S
H118 C112 0.930 . S
H119 C116 0.930 . S
C120 C122 1.348 1_565 S
C120 C123 1.356 . S
C120 O150 1.325 . S
N121 C124 1.314 . S
N121 C125 1.279 . S
C122 C120 1.348 1_545 S
C122 C124 1.353 1_545 S
C122 H164 0.929 . S
C123 C120 1.356 . S
C123 C125 1.358 . S
C123 H165 0.930 . S
C124 N121 1.314 . S
C124 C122 1.353 1_565 S
C124 H166 0.930 1_565 S
C125 N121 1.279 . S
C125 C123 1.358 . S
C125 H167 0.930 . S
C126 C127 1.348 1_455 S
C126 C128 1.356 . S
C126 O151 1.325 . S
C127 C126 1.348 1_655 S
C127 C129 1.353 1_655 S
C127 H168 0.929 . S
C128 C126 1.356 . S
C128 C130 1.358 . S
C128 H169 0.930 . S
C129 C127 1.353 1_455 S
C129 N131 1.314 . S
C129 H170 0.930 1_455 S
C130 C128 1.358 . S
C130 N131 1.279 . S
C130 H171 0.930 . S
N131 C129 1.314 . S
N131 C130 1.279 . S
C132 C134 1.353 . S
C132 N135 1.314 . S
C132 H138 0.930 . S
C133 N135 1.279 . S
C133 C136 1.358 . S
C133 H139 0.930 . S
C134 C132 1.353 . S
C134 C137 1.348 . S
C134 H172 0.929 . S
N135 Li90 1.990 . S
N135 C132 1.314 . S
N135 C133 1.279 . S
C136 C133 1.358 . S
C136 C137 1.356 . S
C136 H173 0.930 . S
C137 C134 1.348 . S
C137 C136 1.356 . S
H138 C132 0.930 . S
H139 C133 0.930 . S
C140 N141 1.314 . S
C140 C142 1.353 . S
C140 H146 0.930 . S
N141 Li91 1.990 . S
N141 C140 1.314 . S
N141 C144 1.279 . S
C142 C140 1.353 . S
C142 C145 1.348 . S
C142 H174 0.929 . S
C143 C144 1.358 . S
C143 C145 1.356 . S
C143 H175 0.930 . S
C144 N141 1.279 . S
C144 C143 1.358 . S
C144 H147 0.930 . S
C145 C142 1.348 . S
C145 C143 1.356 . S
H146 C140 0.930 . S
H147 C144 0.930 . S
O148 Li88 1.956 . S
O148 Li89 1.970 1_665 S
O148 Li90 1.961 . S
O148 C92 1.325 . S
O149 Li88 1.970 1_445 S
O149 Li89 1.956 . S
O149 Li91 1.961 . S
O149 C98 1.325 . S
O150 Li88 1.961 . S
O150 Li90 1.956 . S
O150 Li91 1.970 1_665 S
O150 C120 1.325 . S
O151 Li89 1.961 . S
O151 Li90 1.970 1_445 S
O151 Li91 1.956 . S
O151 C126 1.325 . S
H152 C94 0.929 . S
H153 C95 0.930 . S
H154 C96 0.930 1_455 S
H155 C97 0.930 . S
H156 C99 0.930 . S
H157 C101 0.929 . S
H158 C102 0.930 . S
H159 C103 0.930 1_565 S
H160 C106 0.930 . S
H161 C109 0.929 . S
H162 C114 0.929 . S
H163 C115 0.930 . S
H164 C122 0.929 . S
H165 C123 0.930 . S
H166 C124 0.930 1_545 S
H167 C125 0.930 . S
H168 C127 0.929 . S
H169 C128 0.930 . S
H170 C129 0.930 1_655 S
H171 C130 0.930 . S
H172 C134 0.929 . S
H173 C136 0.930 . S
H174 C142 0.929 . S
H175 C143 0.930 . S
Li176 N193 1.990 . S
Li176 O236 1.956 . S
Li176 O237 1.970 1_565 S
Li176 O238 1.961 1_455 S
Li177 N201 1.990 . S
Li177 O236 1.970 1_545 S
Li177 O237 1.956 . S
Li177 O239 1.961 1_455 S
Li178 N223 1.990 . S
Li178 O236 1.961 1_655 S
Li178 O238 1.956 . S
Li178 O239 1.970 1_565 S
Li179 N229 1.990 . S
Li179 O237 1.961 1_655 S
Li179 O238 1.970 1_545 S
Li179 O239 1.956 . S
C180 C182 1.348 1_565 S
C180 C183 1.356 . S
C180 O236 1.325 . S
N181 C184 1.314 . S
N181 C185 1.279 . S
C182 C180 1.348 1_545 S
C182 C184 1.353 1_545 S
C182 H240 0.929 . S
C183 C180 1.356 . S
C183 C185 1.358 . S
C183 H241 0.930 . S
C184 N181 1.314 . S
C184 C182 1.353 1_565 S
C184 H242 0.930 1_565 S
C185 N181 1.279 . S
C185 C183 1.358 . S
C185 H243 0.930 . S
C186 C189 1.348 . S
C186 C190 1.356 . S
C186 O237 1.325 . S
C187 N188 1.279 . S
C187 C190 1.358 . S
C187 H244 0.930 . S
N188 C187 1.279 . S
N188 C191 1.314 . S
C189 C186 1.348 . S
C189 C191 1.353 . S
C189 H245 0.929 . S
C190 C186 1.356 . S
C190 C187 1.358 . S
C190 H246 0.930 . S
C191 N188 1.314 . S
C191 C189 1.353 . S
C191 H247 0.930 . S
C192 N193 1.314 . S
C192 C197 1.353 . S
C192 H198 0.930 . S
N193 Li176 1.990 . S
N193 C192 1.314 . S
N193 C195 1.279 . S
C194 C195 1.358 . S
C194 C196 1.356 . S
C194 H248 0.930 . S
C195 N193 1.279 . S
C195 C194 1.358 . S
C195 H199 0.930 . S
C196 C194 1.356 . S
C196 C197 1.348 . S
C197 C192 1.353 . S
C197 C196 1.348 . S
C197 H249 0.929 . S
H198 C192 0.930 . S
H199 C195 0.930 . S
C200 N201 1.314 . S
C200 C202 1.353 . S
C200 H206 0.930 . S
N201 Li177 1.990 . S
N201 C200 1.314 . S
N201 C204 1.279 . S
C202 C200 1.353 . S
C202 C205 1.348 . S
C202 H250 0.929 . S
C203 C204 1.358 . S
C203 C205 1.356 . S
C203 H251 0.930 . S
C204 N201 1.279 . S
C204 C203 1.358 . S
C204 H207 0.930 . S
C205 C202 1.348 . S
C205 C203 1.356 . S
H206 C200 0.930 . S
H207 C204 0.930 . S
C208 C210 1.348 . S
C208 C211 1.356 . S
C208 O238 1.325 . S
N209 C212 1.314 . S
N209 C213 1.279 . S
C210 C208 1.348 . S
C210 C212 1.353 . S
C210 H252 0.929 . S
C211 C208 1.356 . S
C211 C213 1.358 . S
C211 H253 0.930 . S
C212 N209 1.314 . S
C212 C210 1.353 . S
C212 H254 0.930 . S
C213 N209 1.279 . S
C213 C211 1.358 . S
C213 H255 0.930 . S
C214 C215 1.348 1_545 S
C214 C216 1.356 . S
C214 O239 1.325 . S
C215 C214 1.348 1_565 S
C215 C217 1.353 1_565 S
C215 H256 0.929 . S
C216 C214 1.356 . S
C216 C218 1.358 . S
C216 H257 0.930 . S
C217 C215 1.353 1_545 S
C217 N219 1.314 . S
C217 H258 0.930 1_545 S
C218 C216 1.358 . S
C218 N219 1.279 . S
C218 H259 0.930 . S
N219 C217 1.314 . S
N219 C218 1.279 . S
C220 C222 1.353 . S
C220 N223 1.314 . S
C220 H226 0.930 . S
C221 N223 1.279 . S
C221 C224 1.358 . S
C221 H227 0.930 . S
C222 C220 1.353 . S
C222 C225 1.348 . S
C222 H260 0.929 . S
N223 Li178 1.990 . S
N223 C220 1.314 . S
N223 C221 1.279 . S
C224 C221 1.358 . S
C224 C225 1.356 . S
C224 H261 0.930 . S
C225 C222 1.348 . S
C225 C224 1.356 . S
H226 C220 0.930 . S
H227 C221 0.930 . S
C228 N229 1.314 . S
C228 C230 1.353 . S
C228 H234 0.930 . S
N229 Li179 1.990 . S
N229 C228 1.314 . S
N229 C232 1.279 . S
C230 C228 1.353 . S
C230 C233 1.348 . S
C230 H262 0.929 . S
C231 C232 1.358 . S
C231 C233 1.356 . S
C231 H263 0.930 . S
C232 N229 1.279 . S
C232 C231 1.358 . S
C232 H235 0.930 . S
C233 C230 1.348 . S
C233 C231 1.356 . S
H234 C228 0.930 . S
H235 C232 0.930 . S
O236 Li176 1.956 . S
O236 Li177 1.970 1_565 S
O236 Li178 1.961 1_455 S
O236 C180 1.325 . S
O237 Li176 1.970 1_545 S
O237 Li177 1.956 . S
O237 Li179 1.961 1_455 S
O237 C186 1.325 . S
O238 Li176 1.961 1_655 S
O238 Li178 1.956 . S
O238 Li179 1.970 1_565 S
O238 C208 1.325 . S
O239 Li177 1.961 1_655 S
O239 Li178 1.970 1_545 S
O239 Li179 1.956 . S
O239 C214 1.325 . S
H240 C182 0.929 . S
H241 C183 0.930 . S
H242 C184 0.930 1_545 S
H243 C185 0.930 . S
H244 C187 0.930 . S
H245 C189 0.929 . S
H246 C190 0.930 . S
H247 C191 0.930 . S
H248 C194 0.930 . S
H249 C197 0.929 . S
H250 C202 0.929 . S
H251 C203 0.930 . S
H252 C210 0.929 . S
H253 C211 0.930 . S
H254 C212 0.930 . S
H255 C213 0.930 . S
H256 C215 0.929 . S
H257 C216 0.930 . S
H258 C217 0.930 1_565 S
H259 C218 0.930 . S
H260 C222 0.929 . S
H261 C224 0.930 . S
H262 C230 0.929 . S
H263 C231 0.930 . S
C264 C265 1.384 1_655 S
C264 C266 1.384 . S
C264 H292 0.931 . S
C265 C264 1.384 1_455 S
C265 C268 1.382 . S
C266 C264 1.384 . S
C266 C267 1.381 1_655 S
C266 H293 0.930 . S
C267 C266 1.381 1_455 S
C267 C269 1.381 . S
C267 C270 1.487 . S
C268 C265 1.382 . S
C268 C269 1.387 . S
C268 H294 0.930 . S
C269 C267 1.381 . S
C269 C268 1.387 . S
C269 H295 0.931 . S
C270 C267 1.487 . S
C270 C277 1.399 1_455 S
C270 N308 1.343 . S
C271 C272 1.384 1_455 S
C271 C273 1.384 . S
C271 H296 0.931 . S
C272 C271 1.384 1_655 S
C272 C275 1.382 . S
C273 C271 1.384 . S
C273 C274 1.381 1_455 S
C273 H297 0.930 . S
C274 C273 1.381 1_655 S
C274 C276 1.381 . S
C274 C277 1.487 . S
C275 C272 1.382 . S
C275 C276 1.387 . S
C275 H298 0.930 . S
C276 C274 1.381 . S
C276 C275 1.387 . S
C276 H299 0.931 . S
C277 C270 1.399 1_655 S
C277 C274 1.487 . S
C277 N309 1.343 . S
C278 C279 1.384 1_455 S
C278 C280 1.384 . S
C278 H300 0.931 . S
C279 C278 1.384 1_655 S
C279 C282 1.382 . S
C280 C278 1.384 . S
C280 C281 1.381 1_455 S
C280 H301 0.930 . S
C281 C280 1.381 1_655 S
C281 C283 1.381 . S
C281 C284 1.487 . S
C282 C279 1.382 . S
C282 C283 1.387 . S
C282 H302 0.930 . S
C283 C281 1.381 . S
C283 C282 1.387 . S
C283 H303 0.931 . S
C284 C281 1.487 . S
C284 C291 1.399 1_655 S
C284 N309 1.343 . S
C285 C286 1.384 1_655 S
C285 C287 1.384 . S
C285 H304 0.931 . S
C286 C285 1.384 1_455 S
C286 C289 1.382 . S
C287 C285 1.384 . S
C287 C288 1.381 1_655 S
C287 H305 0.930 . S
C288 C287 1.381 1_455 S
C288 C290 1.381 . S
C288 C291 1.487 . S
C289 C286 1.382 . S
C289 C290 1.387 . S
C289 H306 0.930 . S
C290 C288 1.381 . S
C290 C289 1.387 . S
C290 H307 0.931 . S
C291 C284 1.399 1_455 S
C291 C288 1.487 . S
C291 N308 1.343 . S
H292 C264 0.931 . S
H293 C266 0.930 . S
H294 C268 0.930 . S
H295 C269 0.931 . S
H296 C271 0.931 . S
H297 C273 0.930 . S
H298 C275 0.930 . S
H299 C276 0.931 . S
H300 C278 0.931 . S
H301 C280 0.930 . S
H302 C282 0.930 . S
H303 C283 0.931 . S
H304 C285 0.931 . S
H305 C287 0.930 . S
H306 C289 0.930 . S
H307 C290 0.931 . S
N308 C270 1.343 . S
N308 C291 1.343 . S
N309 C277 1.343 . S
N309 C284 1.343 . S
C310 C311 1.384 1_545 S
C310 C312 1.384 . S
C310 H338 0.931 . S
C311 C310 1.384 1_565 S
C311 C314 1.382 . S
C312 C310 1.384 . S
C312 C313 1.381 1_545 S
C312 H339 0.930 . S
C313 C312 1.381 1_565 S
C313 C315 1.381 . S
C313 C316 1.487 . S
C314 C311 1.382 . S
C314 C315 1.387 . S
C314 H340 0.930 . S
C315 C313 1.381 . S
C315 C314 1.387 . S
C315 H341 0.931 . S
C316 C313 1.487 . S
C316 C323 1.399 1_565 S
C316 N354 1.343 . S
C317 C318 1.384 1_565 S
C317 C319 1.384 . S
C317 H342 0.931 . S
C318 C317 1.384 1_545 S
C318 C321 1.382 . S
C319 C317 1.384 . S
C319 C320 1.381 1_565 S
C319 H343 0.930 . S
C320 C319 1.381 1_545 S
C320 C322 1.381 . S
C320 C323 1.487 . S
C321 C318 1.382 . S
C321 C322 1.387 . S
C321 H344 0.930 . S
C322 C320 1.381 . S
C322 C321 1.387 . S
C322 H345 0.931 . S
C323 C316 1.399 1_545 S
C323 C320 1.487 . S
C323 N355 1.343 . S
C324 C325 1.384 1_565 S
C324 C326 1.384 . S
C324 H346 0.931 . S
C325 C324 1.384 1_545 S
C325 C328 1.382 . S
C326 C324 1.384 . S
C326 C327 1.381 1_565 S
C326 H347 0.930 . S
C327 C326 1.381 1_545 S
C327 C329 1.381 . S
C327 C330 1.487 . S
C328 C325 1.382 . S
C328 C329 1.387 . S
C328 H348 0.930 . S
C329 C327 1.381 . S
C329 C328 1.387 . S
C329 H349 0.931 . S
C330 C327 1.487 . S
C330 C337 1.399 1_545 S
C330 N355 1.343 . S
C331 C332 1.384 1_545 S
C331 C333 1.384 . S
C331 H350 0.931 . S
C332 C331 1.384 1_565 S
C332 C335 1.382 . S
C333 C331 1.384 . S
C333 C334 1.381 1_545 S
C333 H351 0.930 . S
C334 C333 1.381 1_565 S
C334 C336 1.381 . S
C334 C337 1.487 . S
C335 C332 1.382 . S
C335 C336 1.387 . S
C335 H352 0.930 . S
C336 C334 1.381 . S
C336 C335 1.387 . S
C336 H353 0.931 . S
C337 C330 1.399 1_565 S
C337 C334 1.487 . S
C337 N354 1.343 . S
H338 C310 0.931 . S
H339 C312 0.930 . S
H340 C314 0.930 . S
H341 C315 0.931 . S
H342 C317 0.931 . S
H343 C319 0.930 . S
H344 C321 0.930 . S
H345 C322 0.931 . S
H346 C324 0.931 . S
H347 C326 0.930 . S
H348 C328 0.930 . S
H349 C329 0.931 . S
H350 C331 0.931 . S
H351 C333 0.930 . S
H352 C335 0.930 . S
H353 C336 0.931 . S
N354 C316 1.343 . S
N354 C337 1.343 . S
N355 C323 1.343 . S
N355 C330 1.343 . S
C356 C357 1.384 . S
C356 C358 1.384 . S
C356 H384 0.931 . S
C357 C356 1.384 . S
C357 C360 1.382 . S
C358 C356 1.384 . S
C358 C359 1.381 . S
C358 H385 0.930 . S
C359 C358 1.381 . S
C359 C361 1.381 . S
C359 C362 1.487 . S
C360 C357 1.382 . S
C360 C361 1.387 . S
C360 H386 0.930 . S
C361 C359 1.381 . S
C361 C360 1.387 . S
C361 H387 0.931 . S
C362 C359 1.487 . S
C362 C369 1.399 . S
C362 N400 1.343 . S
C363 C364 1.384 . S
C363 C365 1.384 . S
C363 H388 0.931 . S
C364 C363 1.384 . S
C364 C367 1.382 . S
C365 C363 1.384 . S
C365 C366 1.381 . S
C365 H389 0.930 . S
C366 C365 1.381 . S
C366 C368 1.381 . S
C366 C369 1.487 . S
C367 C364 1.382 . S
C367 C368 1.387 . S
C367 H390 0.930 . S
C368 C366 1.381 . S
C368 C367 1.387 . S
C368 H391 0.931 . S
C369 C362 1.399 . S
C369 C366 1.487 . S
C369 N401 1.343 . S
C370 C371 1.384 . S
C370 C372 1.384 . S
C370 H392 0.931 . S
C371 C370 1.384 . S
C371 C374 1.382 . S
C372 C370 1.384 . S
C372 C373 1.381 . S
C372 H393 0.930 . S
C373 C372 1.381 . S
C373 C375 1.381 . S
C373 C376 1.487 . S
C374 C371 1.382 . S
C374 C375 1.387 . S
C374 H394 0.930 . S
C375 C373 1.381 . S
C375 C374 1.387 . S
C375 H395 0.931 . S
C376 C373 1.487 . S
C376 C383 1.399 . S
C376 N401 1.343 . S
C377 C378 1.384 . S
C377 C379 1.384 . S
C377 H396 0.931 . S
C378 C377 1.384 . S
C378 C381 1.382 . S
C379 C377 1.384 . S
C379 C380 1.381 . S
C379 H397 0.930 . S
C380 C379 1.381 . S
C380 C382 1.381 . S
C380 C383 1.487 . S
C381 C378 1.382 . S
C381 C382 1.387 . S
C381 H398 0.930 . S
C382 C380 1.381 . S
C382 C381 1.387 . S
C382 H399 0.931 . S
C383 C376 1.399 . S
C383 C380 1.487 . S
C383 N400 1.343 . S
H384 C356 0.931 . S
H385 C358 0.930 . S
H386 C360 0.930 . S
H387 C361 0.931 . S
H388 C363 0.931 . S
H389 C365 0.930 . S
H390 C367 0.930 . S
H391 C368 0.931 . S
H392 C370 0.931 . S
H393 C372 0.930 . S
H394 C374 0.930 . S
H395 C375 0.931 . S
H396 C377 0.931 . S
H397 C379 0.930 . S
H398 C381 0.930 . S
H399 C382 0.931 . S
N400 C362 1.343 . S
N400 C383 1.343 . S
N401 C369 1.343 . S
N401 C376 1.343 . S
C402 C403 1.387 . S
C402 H406 0.950 . S
C402 C411 1.390 . S
C403 C402 1.387 . S
C403 C405 1.387 1_655 S
H404 C411 0.950 . S
C405 C403 1.387 1_455 S
C405 C407 1.390 . S
C405 H409 0.950 . S
H406 C402 0.950 . S
C407 C405 1.390 . S
C407 C408 1.387 1_455 S
C407 H410 0.950 . S
C408 C407 1.387 1_655 S
C408 C411 1.387 . S
H409 C405 0.950 . S
H410 C407 0.950 . S
C411 C402 1.390 . S
C411 H404 0.950 . S
C411 C408 1.387 . S
C412 C413 1.387 . S
C412 H416 0.950 . S
C412 C421 1.390 . S
C413 C412 1.387 . S
C413 C415 1.387 . S
H414 C421 0.950 . S
C415 C413 1.387 . S
C415 C417 1.390 1_565 S
C415 H419 0.950 . S
H416 C412 0.950 . S
C417 C415 1.390 1_545 S
C417 C418 1.387 1_545 S
C417 H420 0.950 . S
C418 C417 1.387 1_565 S
C418 C421 1.387 . S
H419 C415 0.950 . S
H420 C417 0.950 . S
C421 C412 1.390 . S
C421 H414 0.950 . S
C421 C418 1.387 . S
C422 C423 1.387 . S
C422 H426 0.950 . S
C422 C431 1.390 . S
C423 C422 1.387 . S
C423 C425 1.387 . S
H424 C431 0.950 . S
C425 C423 1.387 . S
C425 C427 1.390 . S
C425 H429 0.950 . S
H426 C422 0.950 . S
C427 C425 1.390 . S
C427 C428 1.387 . S
C427 H430 0.950 . S
C428 C427 1.387 . S
C428 C431 1.387 . S
H429 C425 0.950 . S
H430 C427 0.950 . S
C431 C422 1.390 . S
C431 H424 0.950 . S
C431 C428 1.387 . S
C432 C433 1.387 . S
C432 H436 0.950 . S
C432 C441 1.390 . S
C433 C432 1.387 . S
C433 C435 1.387 . S
H434 C441 0.950 . S
C435 C433 1.387 . S
C435 C437 1.390 1_455 S
C435 H439 0.950 1_455 S
H436 C432 0.950 . S
C437 C435 1.390 1_655 S
C437 C438 1.387 1_655 S
C437 H440 0.950 . S
C438 C437 1.387 1_455 S
C438 C441 1.387 . S
H439 C435 0.950 1_655 S
H440 C437 0.950 . S
C441 C432 1.390 . S
C441 H434 0.950 . S
C441 C438 1.387 . S
C442 C443 1.387 1_565 S
C442 H446 0.950 . S
C442 C451 1.390 . S
C443 C442 1.387 1_545 S
C443 C445 1.387 . S
H444 C451 0.950 . S
C445 C443 1.387 . S
C445 C447 1.390 . S
C445 H449 0.950 . S
H446 C442 0.950 . S
C447 C445 1.390 . S
C447 C448 1.387 . S
C447 H450 0.950 . S
C448 C447 1.387 . S
C448 C451 1.387 1_545 S
H449 C445 0.950 . S
H450 C447 0.950 . S
C451 C442 1.390 . S
C451 H444 0.950 . S
C451 C448 1.387 1_565 S
C452 C453 1.387 . S
C452 H456 0.950 . S
C452 C461 1.390 . S
C453 C452 1.387 . S
C453 C455 1.387 . S
H454 C461 0.950 . S
C455 C453 1.387 . S
C455 C457 1.390 . S
C455 H459 0.950 . S
H456 C452 0.950 . S
C457 C455 1.390 . S
C457 C458 1.387 . S
C457 H460 0.950 . S
C458 C457 1.387 . S
C458 C461 1.387 . S
H459 C455 0.950 . S
H460 C457 0.950 . S
C461 C452 1.390 . S
C461 H454 0.950 . S
C461 C458 1.387 . S
C462 C463 1.387 1_565 S
C462 H466 0.950 . S
C462 C471 1.390 . S
C463 C462 1.387 1_545 S
C463 C465 1.387 . S
H464 C471 0.950 . S
C465 C463 1.387 . S
C465 C467 1.390 . S
C465 H469 0.950 . S
H466 C462 0.950 . S
C467 C465 1.390 . S
C467 C468 1.387 . S
C467 H470 0.950 . S
C468 C467 1.387 . S
C468 C471 1.387 1_545 S
H469 C465 0.950 . S
H470 C467 0.950 . S
C471 C462 1.390 . S
C471 H464 0.950 . S
C471 C468 1.387 1_565 S
C472 C473 1.387 . S
C472 H476 0.950 . S
C472 C481 1.390 . S
C473 C472 1.387 . S
C473 C475 1.387 . S
H474 C481 0.950 . S
C475 C473 1.387 . S
C475 C477 1.390 . S
C475 H479 0.950 1_556 S
H476 C472 0.950 . S
C477 C475 1.390 . S
C477 C478 1.387 . S
C477 H480 0.950 . S
C478 C477 1.387 . S
C478 C481 1.387 . S
H479 C475 0.950 1_554 S
H480 C477 0.950 . S
C481 C472 1.390 . S
C481 H474 0.950 . S
C481 C478 1.387 . S
C482 C483 1.387 . S
C482 H486 0.950 . S
C482 C491 1.390 . S
C483 C482 1.387 . S
C483 C485 1.387 . S
H484 C491 0.950 1_455 S
C485 C483 1.387 . S
C485 C487 1.390 . S
C485 H489 0.950 . S
H486 C482 0.950 . S
C487 C485 1.390 . S
C487 C488 1.387 . S
C487 H490 0.950 . S
C488 C487 1.387 . S
C488 C491 1.387 . S
H489 C485 0.950 . S
H490 C487 0.950 . S
C491 C482 1.390 . S
C491 H484 0.950 1_655 S
C491 C488 1.387 . S
C492 C493 1.387 . S
C492 H496 0.950 . S
C492 C501 1.390 . S
C493 C492 1.387 . S
C493 C495 1.387 1_565 S
H494 C501 0.950 . S
C495 C493 1.387 1_545 S
C495 C497 1.390 . S
C495 H499 0.950 . S
H496 C492 0.950 . S
C497 C495 1.390 . S
C497 C498 1.387 1_545 S
C497 H500 0.950 . S
C498 C497 1.387 1_565 S
C498 C501 1.387 . S
H499 C495 0.950 . S
H500 C497 0.950 . S
C501 C492 1.390 . S
C501 H494 0.950 . S
C501 C498 1.387 . S
C502 C503 1.387 . S
C502 H506 0.950 . S
C502 C511 1.390 . S
C503 C502 1.387 . S
C503 C505 1.387 . S
H504 C511 0.950 . S
C505 C503 1.387 . S
C505 C507 1.390 . S
C505 H509 0.950 . S
H506 C502 0.950 . S
C507 C505 1.390 . S
C507 C508 1.387 . S
C507 H510 0.950 . S
C508 C507 1.387 . S
C508 C511 1.387 . S
H509 C505 0.950 . S
H510 C507 0.950 . S
C511 C502 1.390 . S
C511 H504 0.950 . S
C511 C508 1.387 . S
C512 C513 1.387 . S
C512 H516 0.950 . S
C512 C521 1.390 . S
C513 C512 1.387 . S
C513 C515 1.387 . S
H514 C521 0.950 1_655 S
C515 C513 1.387 . S
C515 C517 1.390 . S
C515 H519 0.950 . S
H516 C512 0.950 . S
C517 C515 1.390 . S
C517 C518 1.387 . S
C517 H520 0.950 . S
C518 C517 1.387 . S
C518 C521 1.387 . S
H519 C515 0.950 . S
H520 C517 0.950 . S
C521 C512 1.390 . S
C521 H514 0.950 1_455 S
C521 C518 1.387 . S
C408 C272 1.532 . S
C403 C29 1.505 . S
C413 C137 1.509 . S
C418 C311 1.535 . S
C423 C225 1.507 . S
C428 C378 1.546 . S
C433 C49 1.507 . S
C438 C279 1.546 1_455 S
C448 C332 1.545 1_545 S
C443 C117 1.506 . S
C453 C205 1.506 . S
C458 C357 1.529 . S
C468 C318 1.532 . S
C463 C233 1.510 . S
C473 C57 1.509 . S
C478 C371 1.548 . S
C488 C286 1.546 1_655 S
C483 C108 1.511 . S
C498 C325 1.545 1_565 S
C493 C196 1.506 . S
C508 C364 1.532 . S
C503 C20 1.506 . S
C513 C145 1.509 . S
C518 C265 1.531 . S
