# Generated by pormake.
# Topology ctn, (3,4)-cn, num edge types: 1
# Building blocks:
#     Node 0, Type 0, BuildingBlock: QEWDON_clean_linker_0, # of connection points: 3
#     Node 1, Type 0, BuildingBlock: QEWDON_clean_linker_0, # of connection points: 3
#     Node 2, Type 0, BuildingBlock: QEWDON_clean_linker_0, # of connection points: 3
#     Node 3, Type 0, BuildingBlock: QEWDON_clean_linker_0, # of connection points: 3
#     Node 4, Type 0, BuildingBlock: QEWDON_clean_linker_0, # of connection points: 3
#     Node 5, Type 0, BuildingBlock: QEWDON_clean_linker_0, # of connection points: 3
#     Node 6, Type 0, BuildingBlock: QEWDON_clean_linker_0, # of connection points: 3
#     Node 7, Type 0, BuildingBlock: QEWDON_clean_linker_0, # of connection points: 3
#     Node 8, Type 0, BuildingBlock: QEWDON_clean_linker_0, # of connection points: 3
#     Node 9, Type 0, BuildingBlock: QEWDON_clean_linker_0, # of connection points: 3
#     Node 10, Type 0, BuildingBlock: QEWDON_clean_linker_0, # of connection points: 3
#     Node 11, Type 0, BuildingBlock: QEWDON_clean_linker_0, # of connection points: 3
#     Node 12, Type 0, BuildingBlock: QEWDON_clean_linker_0, # of connection points: 3
#     Node 13, Type 0, BuildingBlock: QEWDON_clean_linker_0, # of connection points: 3
#     Node 14, Type 0, BuildingBlock: QEWDON_clean_linker_0, # of connection points: 3
#     Node 15, Type 0, BuildingBlock: QEWDON_clean_linker_0, # of connection points: 3
#     Node 16, Type 1, BuildingBlock: QUQFOY_clean_sbu_1, # of connection points: 4
#     Node 17, Type 1, BuildingBlock: QUQFOY_clean_sbu_1, # of connection points: 4
#     Node 18, Type 1, BuildingBlock: QUQFOY_clean_sbu_1, # of connection points: 4
#     Node 19, Type 1, BuildingBlock: QUQFOY_clean_sbu_1, # of connection points: 4
#     Node 20, Type 1, BuildingBlock: QUQFOY_clean_sbu_1, # of connection points: 4
#     Node 21, Type 1, BuildingBlock: QUQFOY_clean_sbu_1, # of connection points: 4
#     Node 22, Type 1, BuildingBlock: QUQFOY_clean_sbu_1, # of connection points: 4
#     Node 23, Type 1, BuildingBlock: QUQFOY_clean_sbu_1, # of connection points: 4
#     Node 24, Type 1, BuildingBlock: QUQFOY_clean_sbu_1, # of connection points: 4
#     Node 25, Type 1, BuildingBlock: QUQFOY_clean_sbu_1, # of connection points: 4
#     Node 26, Type 1, BuildingBlock: QUQFOY_clean_sbu_1, # of connection points: 4
#     Node 27, Type 1, BuildingBlock: QUQFOY_clean_sbu_1, # of connection points: 4
#     Edge 28, Type (0, 1), BuildingBlock: MIFKUJ_clean_linker_0, # of connection points: 2
#     Edge 29, Type (0, 1), BuildingBlock: MIFKUJ_clean_linker_0, # of connection points: 2
#     Edge 30, Type (0, 1), BuildingBlock: MIFKUJ_clean_linker_0, # of connection points: 2
#     Edge 31, Type (0, 1), BuildingBlock: MIFKUJ_clean_linker_0, # of connection points: 2
#     Edge 32, Type (0, 1), BuildingBlock: MIFKUJ_clean_linker_0, # of connection points: 2
#     Edge 33, Type (0, 1), BuildingBlock: MIFKUJ_clean_linker_0, # of connection points: 2
#     Edge 34, Type (0, 1), BuildingBlock: MIFKUJ_clean_linker_0, # of connection points: 2
#     Edge 35, Type (0, 1), BuildingBlock: MIFKUJ_clean_linker_0, # of connection points: 2
#     Edge 36, Type (0, 1), BuildingBlock: MIFKUJ_clean_linker_0, # of connection points: 2
#     Edge 37, Type (0, 1), BuildingBlock: MIFKUJ_clean_linker_0, # of connection points: 2
#     Edge 38, Type (0, 1), BuildingBlock: MIFKUJ_clean_linker_0, # of connection points: 2
#     Edge 39, Type (0, 1), BuildingBlock: MIFKUJ_clean_linker_0, # of connection points: 2
#     Edge 40, Type (0, 1), BuildingBlock: MIFKUJ_clean_linker_0, # of connection points: 2
#     Edge 41, Type (0, 1), BuildingBlock: MIFKUJ_clean_linker_0, # of connection points: 2
#     Edge 42, Type (0, 1), BuildingBlock: MIFKUJ_clean_linker_0, # of connection points: 2
#     Edge 43, Type (0, 1), BuildingBlock: MIFKUJ_clean_linker_0, # of connection points: 2
#     Edge 44, Type (0, 1), BuildingBlock: MIFKUJ_clean_linker_0, # of connection points: 2
#     Edge 45, Type (0, 1), BuildingBlock: MIFKUJ_clean_linker_0, # of connection points: 2
#     Edge 46, Type (0, 1), BuildingBlock: MIFKUJ_clean_linker_0, # of connection points: 2
#     Edge 47, Type (0, 1), BuildingBlock: MIFKUJ_clean_linker_0, # of connection points: 2
#     Edge 48, Type (0, 1), BuildingBlock: MIFKUJ_clean_linker_0, # of connection points: 2
#     Edge 49, Type (0, 1), BuildingBlock: MIFKUJ_clean_linker_0, # of connection points: 2
#     Edge 50, Type (0, 1), BuildingBlock: MIFKUJ_clean_linker_0, # of connection points: 2
#     Edge 51, Type (0, 1), BuildingBlock: MIFKUJ_clean_linker_0, # of connection points: 2
#     Edge 52, Type (0, 1), BuildingBlock: MIFKUJ_clean_linker_0, # of connection points: 2
#     Edge 53, Type (0, 1), BuildingBlock: MIFKUJ_clean_linker_0, # of connection points: 2
#     Edge 54, Type (0, 1), BuildingBlock: MIFKUJ_clean_linker_0, # of connection points: 2
#     Edge 55, Type (0, 1), BuildingBlock: MIFKUJ_clean_linker_0, # of connection points: 2
#     Edge 56, Type (0, 1), BuildingBlock: MIFKUJ_clean_linker_0, # of connection points: 2
#     Edge 57, Type (0, 1), BuildingBlock: MIFKUJ_clean_linker_0, # of connection points: 2
#     Edge 58, Type (0, 1), BuildingBlock: MIFKUJ_clean_linker_0, # of connection points: 2
#     Edge 59, Type (0, 1), BuildingBlock: MIFKUJ_clean_linker_0, # of connection points: 2
#     Edge 60, Type (0, 1), BuildingBlock: MIFKUJ_clean_linker_0, # of connection points: 2
#     Edge 61, Type (0, 1), BuildingBlock: MIFKUJ_clean_linker_0, # of connection points: 2
#     Edge 62, Type (0, 1), BuildingBlock: MIFKUJ_clean_linker_0, # of connection points: 2
#     Edge 63, Type (0, 1), BuildingBlock: MIFKUJ_clean_linker_0, # of connection points: 2
#     Edge 64, Type (0, 1), BuildingBlock: MIFKUJ_clean_linker_0, # of connection points: 2
#     Edge 65, Type (0, 1), BuildingBlock: MIFKUJ_clean_linker_0, # of connection points: 2
#     Edge 66, Type (0, 1), BuildingBlock: MIFKUJ_clean_linker_0, # of connection points: 2
#     Edge 67, Type (0, 1), BuildingBlock: MIFKUJ_clean_linker_0, # of connection points: 2
#     Edge 68, Type (0, 1), BuildingBlock: MIFKUJ_clean_linker_0, # of connection points: 2
#     Edge 69, Type (0, 1), BuildingBlock: MIFKUJ_clean_linker_0, # of connection points: 2
#     Edge 70, Type (0, 1), BuildingBlock: MIFKUJ_clean_linker_0, # of connection points: 2
#     Edge 71, Type (0, 1), BuildingBlock: MIFKUJ_clean_linker_0, # of connection points: 2
#     Edge 72, Type (0, 1), BuildingBlock: MIFKUJ_clean_linker_0, # of connection points: 2
#     Edge 73, Type (0, 1), BuildingBlock: MIFKUJ_clean_linker_0, # of connection points: 2
#     Edge 74, Type (0, 1), BuildingBlock: MIFKUJ_clean_linker_0, # of connection points: 2
#     Edge 75, Type (0, 1), BuildingBlock: MIFKUJ_clean_linker_0, # of connection points: 2
# Relax obj value: 0.128
# Max RMSD: 0.258
# Mean RMSD: 0.174
data_MOF--net-ctn--node1-QUQFOY_clean_sbu_1--node2-QEWDON_clean_linker_0--edge1-MIFKUJ_clean_linker_0
_symmetry_space_group_name_H-M    P1
_symmetry_Int_Tables_number       1
_symmetry_cell_setting            triclinic
loop_
_symmetry_equiv_pos_as_xyz
'x, y, z'
_cell_length_a     67.725628
_cell_length_b     70.057475
_cell_length_c     75.926935
_cell_angle_alpha  101.32171
_cell_angle_beta   92.04452
_cell_angle_gamma 101.05869
loop_
_atom_site_label
_atom_site_type_symbol
_atom_site_fract_x
_atom_site_fract_y
_atom_site_fract_z
_atom_type_partial_charge
H0 H 0.13113 0.09521 0.08845 0.0
C1 C 0.11976 0.09367 0.09806 0.0
C2 C 0.11582 0.07652 0.10538 0.0
C3 C 0.10928 0.10902 0.10329 0.0
H4 H 0.0985 0.06184 0.12389 0.0
C5 C 0.10107 0.07481 0.11786 0.0
C6 C 0.09033 0.09006 0.12318 0.0
C7 C 0.09464 0.10719 0.1158 0.0
C8 C 0.11434 0.12749 0.09641 0.0
H9 H 0.08652 0.11909 0.11959 0.0
C10 C 0.10852 0.12788 0.07854 0.0
C11 C 0.11293 0.14575 0.07224 0.0
C12 C 0.12484 0.14492 0.10792 0.0
H13 H 0.1294 0.14482 0.12173 0.0
C14 C 0.12966 0.16254 0.10166 0.0
H15 H 0.10002 0.11446 0.06983 0.0
C16 C 0.12378 0.163 0.08397 0.0
H17 H 0.12776 0.17689 0.07947 0.0
H18 H 0.13793 0.17591 0.11057 0.0
H19 H 0.35055 0.76095 0.25912 0.0
C20 C 0.33852 0.74867 0.2528 0.0
C21 C 0.34055 0.72902 0.25245 0.0
C22 C 0.32068 0.75267 0.24567 0.0
H23 H 0.32574 0.69822 0.2449 0.0
C24 C 0.32445 0.71338 0.24484 0.0
C25 C 0.30633 0.71711 0.23799 0.0
C26 C 0.30471 0.73685 0.23814 0.0
C27 C 0.31799 0.77343 0.24769 0.0
H28 H 0.29076 0.73999 0.23309 0.0
C29 C 0.31323 0.78103 0.23259 0.0
C30 C 0.31056 0.80083 0.23467 0.0
C31 C 0.31994 0.78565 0.26493 0.0
H32 H 0.32348 0.78003 0.27672 0.0
C33 C 0.31691 0.80508 0.26713 0.0
H34 H 0.3122 0.77167 0.21928 0.0
C35 C 0.3122 0.81262 0.25217 0.0
H36 H 0.30973 0.8277 0.25437 0.0
H37 H 0.31818 0.81432 0.2805 0.0
H38 H 0.95388 0.43786 0.04468 0.0
C39 C 0.94489 0.44911 0.04771 0.0
C40 C 0.95142 0.46469 0.06271 0.0
C41 C 0.92769 0.44857 0.0364 0.0
H42 H 0.9465 0.49305 0.07706 0.0
C43 C 0.94134 0.48063 0.06584 0.0
C44 C 0.92451 0.48069 0.05462 0.0
C45 C 0.91726 0.4643 0.04052 0.0
C46 C 0.92142 0.43239 0.01984 0.0
H47 H 0.90387 0.46442 0.0324 0.0
C48 C 0.92747 0.41394 0.01822 0.0
C49 C 0.92343 0.39961 0.00205 0.0
C50 C 0.91027 0.43558 0.00496 0.0
H51 H 0.90586 0.4496 0.00495 0.0
C52 C 0.90516 0.42087 0.98932 0.0
H53 H 0.93564 0.41056 0.02932 0.0
C54 C 0.9118 0.40304 0.98778 0.0
H55 H 0.90862 0.39233 0.97512 0.0
H56 H 0.89665 0.42361 0.97806 0.0
H57 H 0.79174 0.80166 0.26123 0.0
C58 C 0.79102 0.79444 0.24716 0.0
C59 C 0.79685 0.8058 0.23415 0.0
C60 C 0.78548 0.77361 0.24221 0.0
H61 H 0.80066 0.80472 0.20588 0.0
C62 C 0.79629 0.79611 0.21602 0.0
C63 C 0.79086 0.77535 0.2109 0.0
C64 C 0.78551 0.7642 0.22408 0.0
C65 C 0.78045 0.76142 0.25594 0.0
H66 H 0.78118 0.74814 0.22018 0.0
C67 C 0.76601 0.76547 0.26828 0.0
C68 C 0.76028 0.75298 0.2805 0.0
C69 C 0.78963 0.74513 0.25628 0.0
H70 H 0.80091 0.74181 0.24703 0.0
C71 C 0.78434 0.73295 0.26854 0.0
H72 H 0.75901 0.7781 0.26806 0.0
C73 C 0.76968 0.7367 0.28045 0.0
H74 H 0.76538 0.72648 0.28931 0.0
H75 H 0.7914 0.72035 0.26861 0.0
H76 H 0.112 0.93974 0.4627 0.0
C77 C 0.10126 0.94386 0.45395 0.0
C78 C 0.1064 0.9618 0.4481 0.0
C79 C 0.08274 0.93081 0.44778 0.0
H80 H 0.09676 0.98103 0.43216 0.0
C81 C 0.09284 0.96695 0.4364 0.0
C82 C 0.07406 0.95443 0.43058 0.0
C83 C 0.06905 0.93633 0.43627 0.0
C84 C 0.07832 0.91098 0.45252 0.0
H85 H 0.05464 0.92647 0.4316 0.0
C86 C 0.08142 0.90895 0.47043 0.0
C87 C 0.07853 0.89 0.47464 0.0
C88 C 0.07193 0.89385 0.43893 0.0
H89 H 0.0696 0.89501 0.42502 0.0
C90 C 0.06907 0.87502 0.44309 0.0
H91 H 0.0862 0.92207 0.48106 0.0
C92 C 0.07247 0.87306 0.46082 0.0
H93 H 0.07006 0.85832 0.46381 0.0
H94 H 0.0643 0.86189 0.43252 0.0
H95 H 0.29351 0.74134 0.79905 0.0
C96 C 0.28587 0.74438 0.8113 0.0
C97 C 0.28802 0.73388 0.82498 0.0
C98 C 0.27432 0.75917 0.8135 0.0
H99 H 0.27992 0.73017 0.85146 0.0
C100 C 0.2785 0.73843 0.84098 0.0
C101 C 0.2672 0.75351 0.84356 0.0
C102 C 0.26493 0.7636 0.82955 0.0
C103 C 0.27335 0.77112 0.79962 0.0
H104 H 0.25676 0.77563 0.83142 0.0
C105 C 0.25482 0.77097 0.7906 0.0
C106 C 0.25383 0.78277 0.77763 0.0
C107 C 0.29103 0.78305 0.79564 0.0
H108 H 0.30543 0.78336 0.8025 0.0
C109 C 0.29019 0.795 0.78308 0.0
H110 H 0.24136 0.76127 0.79344 0.0
C111 C 0.27177 0.79499 0.77421 0.0
H112 H 0.27163 0.80473 0.76479 0.0
H113 H 0.30385 0.80441 0.78027 0.0
H114 H 0.96577 0.601 0.45048 0.0
C115 C 0.95677 0.5893 0.45594 0.0
C116 C 0.95712 0.59071 0.47468 0.0
C117 C 0.94441 0.57296 0.44428 0.0
H118 H 0.94489 0.57689 0.49606 0.0
C119 C 0.94504 0.57569 0.4816 0.0
C120 C 0.93272 0.55937 0.47008 0.0
C121 C 0.93253 0.558 0.45142 0.0
C122 C 0.943 0.57176 0.42464 0.0
H123 H 0.92279 0.5455 0.44246 0.0
C124 C 0.95984 0.56997 0.41463 0.0
C125 C 0.958 0.56724 0.3957 0.0
C126 C 0.92436 0.57132 0.41573 0.0
H127 H 0.91121 0.57262 0.42325 0.0
C128 C 0.92252 0.56911 0.39707 0.0
H129 H 0.9742 0.57029 0.42158 0.0
C130 C 0.93914 0.56695 0.38708 0.0
H131 H 0.93705 0.56451 0.37254 0.0
H132 H 0.90808 0.56871 0.39027 0.0
H133 H 0.84743 0.8429 0.80457 0.0
C134 C 0.8451 0.83127 0.81226 0.0
C135 C 0.85561 0.8156 0.80862 0.0
C136 C 0.83275 0.83281 0.82673 0.0
H137 H 0.86141 0.78928 0.81685 0.0
C138 C 0.85318 0.80123 0.81942 0.0
C139 C 0.8409 0.80259 0.83395 0.0
C140 C 0.83048 0.81827 0.83726 0.0
C141 C 0.82389 0.85063 0.83225 0.0
H142 H 0.82079 0.81945 0.84831 0.0
C143 C 0.81202 0.85719 0.81996 0.0
C144 C 0.80346 0.87399 0.82571 0.0
C145 C 0.82733 0.86113 0.85022 0.0
H146 H 0.83657 0.85648 0.85988 0.0
C147 C 0.819 0.87777 0.85593 0.0
H148 H 0.80932 0.84916 0.80608 0.0
C149 C 0.8071 0.88413 0.84383 0.0
H150 H 0.8004 0.89683 0.84878 0.0
H151 H 0.82166 0.88569 0.86983 0.0
H152 H 0.34269 0.34742 0.30966 0.0
C153 C 0.33942 0.33551 0.31699 0.0
C154 C 0.34807 0.31863 0.31243 0.0
C155 C 0.32776 0.3378 0.33189 0.0
H156 H 0.35023 0.29035 0.31876 0.0
C157 C 0.34413 0.30366 0.32253 0.0
C158 C 0.33264 0.30581 0.33757 0.0
C159 C 0.32452 0.32298 0.3421 0.0
C160 C 0.32036 0.3564 0.33791 0.0
H161 H 0.31609 0.32518 0.35395 0.0
C162 C 0.30826 0.36345 0.32619 0.0
C163 C 0.3006 0.38072 0.33243 0.0
C164 C 0.32506 0.36691 0.35578 0.0
H165 H 0.33446 0.36182 0.36499 0.0
C166 C 0.31772 0.38407 0.36196 0.0
H167 H 0.30463 0.35537 0.31239 0.0
C168 C 0.30549 0.39089 0.35045 0.0
H169 H 0.29951 0.40393 0.35583 0.0
H170 H 0.32132 0.39201 0.37579 0.0
H171 H 0.46063 0.94286 0.54038 0.0
C172 C 0.45132 0.95389 0.543 0.0
C173 C 0.4558 0.9685 0.55894 0.0
C174 C 0.43576 0.95406 0.53023 0.0
H175 H 0.44862 0.99547 0.57399 0.0
C176 C 0.44515 0.98403 0.56181 0.0
C177 C 0.43008 0.98499 0.54903 0.0
C178 C 0.42503 0.96959 0.53367 0.0
C179 C 0.43141 0.93866 0.51303 0.0
H180 H 0.41308 0.97016 0.5241 0.0
C181 C 0.43621 0.91973 0.51194 0.0
C182 C 0.43348 0.90581 0.49554 0.0
C183 C 0.42314 0.94296 0.49726 0.0
H184 H 0.41993 0.95742 0.49699 0.0
C185 C 0.41944 0.92875 0.4812 0.0
H186 H 0.4423 0.91565 0.52372 0.0
C187 C 0.42464 0.91031 0.48027 0.0
H188 H 0.42257 0.8999 0.46743 0.0
H189 H 0.41312 0.93231 0.46924 0.0
H190 H 0.29395 0.30196 0.76622 0.0
C191 C 0.2932 0.29478 0.75213 0.0
C192 C 0.29998 0.30605 0.73928 0.0
C193 C 0.28664 0.27405 0.74698 0.0
H194 H 0.3044 0.30503 0.71112 0.0
C195 C 0.29931 0.29645 0.72112 0.0
C196 C 0.29275 0.27581 0.71581 0.0
C197 C 0.28654 0.26469 0.72882 0.0
C198 C 0.28073 0.26186 0.76056 0.0
H199 H 0.28142 0.24872 0.72476 0.0
C200 C 0.26631 0.26643 0.77276 0.0
C201 C 0.25982 0.25398 0.78485 0.0
C202 C 0.2891 0.24506 0.76089 0.0
H203 H 0.30034 0.24133 0.75173 0.0
C204 C 0.28304 0.2329 0.773 0.0
H205 H 0.25992 0.27943 0.77255 0.0
C206 C 0.26842 0.23718 0.78479 0.0
H207 H 0.26353 0.227 0.79354 0.0
H208 H 0.28948 0.21992 0.77306 0.0
H209 H 0.84891 0.26007 0.76015 0.0
C210 C 0.83679 0.2474 0.75501 0.0
C211 C 0.83968 0.22807 0.755 0.0
C212 C 0.81829 0.25053 0.74842 0.0
H213 H 0.82549 0.19708 0.74951 0.0
C214 C 0.8237 0.21189 0.74854 0.0
C215 C 0.80499 0.21476 0.7421 0.0
C216 C 0.80255 0.23418 0.74177 0.0
C217 C 0.81492 0.27099 0.74977 0.0
H218 H 0.78819 0.23667 0.73696 0.0
C219 C 0.80918 0.27755 0.73436 0.0
C220 C 0.80591 0.29708 0.73575 0.0
C221 C 0.81726 0.28397 0.76665 0.0
H222 H 0.82159 0.27915 0.77868 0.0
C223 C 0.81365 0.30314 0.76819 0.0
H224 H 0.8079 0.26762 0.72131 0.0
C225 C 0.80797 0.30967 0.75291 0.0
H226 H 0.80511 0.32458 0.75459 0.0
H227 H 0.81525 0.31299 0.7813 0.0
H228 H 0.62279 0.58949 0.58529 0.0
C229 C 0.61223 0.58879 0.59566 0.0
C230 C 0.60749 0.57158 0.60284 0.0
C231 C 0.60442 0.60565 0.60263 0.0
H232 H 0.58995 0.55775 0.62174 0.0
C233 C 0.59419 0.57123 0.61661 0.0
C234 C 0.58628 0.58802 0.62379 0.0
C235 C 0.59156 0.60524 0.61672 0.0
C236 C 0.61114 0.62428 0.5963 0.0
H237 H 0.58607 0.61851 0.62239 0.0
C238 C 0.60521 0.62599 0.57883 0.0
C239 C 0.61165 0.64391 0.57295 0.0
C240 C 0.6237 0.64046 0.60787 0.0
H241 H 0.62842 0.63935 0.62136 0.0
C242 C 0.63051 0.65806 0.60202 0.0
H243 H 0.59513 0.61356 0.57012 0.0
C244 C 0.62461 0.65981 0.58471 0.0
H245 H 0.63029 0.67362 0.58052 0.0
H246 H 0.6404 0.67042 0.61094 0.0
H247 H 0.61061 0.45048 0.97551 0.0
C248 C 0.59976 0.4563 0.96834 0.0
C249 C 0.60439 0.47611 0.96637 0.0
C250 C 0.58145 0.44384 0.96059 0.0
H251 H 0.5944 0.49864 0.95476 0.0
C252 C 0.59065 0.48343 0.9566 0.0
C253 C 0.57245 0.47117 0.94863 0.0
C254 C 0.56779 0.45139 0.95079 0.0
C255 C 0.57723 0.42264 0.96187 0.0
H256 H 0.5538 0.44178 0.94452 0.0
C257 C 0.57944 0.41719 0.97859 0.0
C258 C 0.57628 0.39704 0.97967 0.0
C259 C 0.5716 0.40773 0.94623 0.0
H260 H 0.56995 0.41157 0.93319 0.0
C261 C 0.56856 0.38771 0.94725 0.0
H262 H 0.58366 0.42861 0.99073 0.0
C263 C 0.57096 0.38236 0.96383 0.0
H264 H 0.56829 0.36673 0.96434 0.0
H265 H 0.56435 0.37631 0.93513 0.0
H266 H 0.79505 0.23574 0.29298 0.0
C267 C 0.78934 0.24206 0.30549 0.0
C268 C 0.79342 0.23538 0.32126 0.0
C269 C 0.77769 0.25663 0.30561 0.0
H270 H 0.78917 0.23892 0.34966 0.0
C271 C 0.78552 0.24343 0.33728 0.0
C272 C 0.77378 0.25802 0.33765 0.0
C273 C 0.76982 0.26442 0.3217 0.0
C274 C 0.7744 0.26416 0.28901 0.0
H275 H 0.76091 0.27575 0.32186 0.0
C276 C 0.75503 0.26604 0.28317 0.0
C277 C 0.75198 0.27294 0.26725 0.0
C278 C 0.79077 0.26947 0.27888 0.0
H279 H 0.80586 0.26835 0.28317 0.0
C280 C 0.78788 0.27649 0.26322 0.0
H281 H 0.74235 0.26197 0.29094 0.0
C282 C 0.76865 0.27819 0.2574 0.0
H283 H 0.76678 0.28325 0.24496 0.0
H284 H 0.80059 0.28053 0.2555 0.0
H285 H 0.46641 0.10839 0.95403 0.0
C286 C 0.45859 0.09437 0.95676 0.0
C287 C 0.45715 0.09199 0.97459 0.0
C288 C 0.45014 0.07862 0.94244 0.0
H289 H 0.44492 0.07256 0.99192 0.0
C290 C 0.44679 0.07396 0.97807 0.0
C291 C 0.43757 0.05835 0.96391 0.0
C292 C 0.43962 0.06065 0.94604 0.0
C293 C 0.45189 0.08124 0.92373 0.0
H294 H 0.43265 0.04869 0.93496 0.0
C295 C 0.46335 0.07027 0.9122 0.0
C296 C 0.46596 0.07349 0.89462 0.0
C297 C 0.4427 0.09526 0.91756 0.0
H298 H 0.43388 0.10389 0.92632 0.0
C299 C 0.4448 0.09818 0.90001 0.0
H300 H 0.47048 0.0595 0.91707 0.0
C301 C 0.45639 0.08746 0.88861 0.0
H302 H 0.4583 0.09049 0.87526 0.0
H303 H 0.43766 0.10902 0.89531 0.0
O304 O 0.26206 0.86183 0.02539 0.0
Cd305 Cd 0.27485 0.88463 0.04666 0.0
Cd306 Cd 0.2466 0.90191 0.03327 0.0
O307 O 0.23624 0.87403 0.0174 0.0
O308 O 0.2907 0.87185 0.06182 0.0
O309 O 0.26521 0.88549 0.07158 0.0
C310 C 0.27917 0.87601 0.07456 0.0
C311 C 0.22413 0.92105 0.04634 0.0
C312 C 0.24604 0.86009 0.01544 0.0
C313 C 0.29048 0.91931 0.03043 0.0
O314 O 0.27213 0.91843 0.02559 0.0
O315 O 0.29511 0.9079 0.04032 0.0
O316 O 0.22556 0.91721 0.0292 0.0
O317 O 0.23491 0.91322 0.05619 0.0
O318 O 0.16382 0.5341 0.2541 0.0
Cd319 Cd 0.1464 0.50995 0.26188 0.0
Cd320 Cd 0.11871 0.51549 0.23412 0.0
O321 O 0.14328 0.53702 0.23201 0.0
O322 O 0.16567 0.50294 0.27872 0.0
O323 O 0.15216 0.48241 0.25346 0.0
C324 C 0.16416 0.48604 0.26786 0.0
C325 C 0.09962 0.50099 0.2068 0.0
C326 C 0.15995 0.5427 0.2415 0.0
C327 C 0.10595 0.51885 0.27242 0.0
O328 O 0.1022 0.52023 0.25625 0.0
O329 O 0.12236 0.51435 0.2772 0.0
O330 O 0.10019 0.51909 0.21472 0.0
O331 O 0.10985 0.49071 0.21448 0.0
O332 O 0.81458 0.68402 0.97656 0.0
Cd333 Cd 0.80333 0.66888 0.996 0.0
Cd334 Cd 0.82472 0.64273 0.97966 0.0
O335 O 0.8327 0.66297 0.96349 0.0
O336 O 0.79259 0.68844 0.01383 0.0
O337 O 0.8176 0.67433 0.02065 0.0
C338 C 0.80553 0.6862 0.02575 0.0
C339 C 0.84772 0.63152 0.99638 0.0
C340 C 0.82632 0.67905 0.96455 0.0
C341 C 0.78071 0.62725 0.98001 0.0
O342 O 0.79721 0.6236 0.97418 0.0
O343 O 0.78 0.64439 0.98904 0.0
O344 O 0.84502 0.62565 0.97909 0.0
O345 O 0.83827 0.64491 0.00404 0.0
O346 O 0.95646 0.03492 0.30428 0.0
Cd347 Cd 0.93918 0.03634 0.28179 0.0
Cd348 Cd 0.91394 0.04722 0.30761 0.0
O349 O 0.93623 0.04371 0.32518 0.0
O350 O 0.95714 0.031 0.26195 0.0
O351 O 0.94659 0.05926 0.26898 0.0
C352 C 0.95695 0.04841 0.25894 0.0
C353 C 0.90207 0.07674 0.31156 0.0
C354 C 0.95248 0.03818 0.32071 0.0
C355 C 0.89798 0.00974 0.28075 0.0
O356 O 0.89453 0.02155 0.29473 0.0
O357 O 0.91448 0.01342 0.27342 0.0
O358 O 0.89696 0.06402 0.32162 0.0
O359 O 0.9144 0.07284 0.29936 0.0
O360 O 0.30063 0.18314 0.47949 0.0
Cd361 Cd 0.29383 0.16772 0.49984 0.0
Cd362 Cd 0.31635 0.14448 0.48143 0.0
O363 O 0.32277 0.16651 0.46686 0.0
O364 O 0.28325 0.18624 0.51874 0.0
O365 O 0.31079 0.17467 0.52334 0.0
C366 C 0.29804 0.18539 0.52953 0.0
C367 C 0.34122 0.13276 0.49546 0.0
C368 C 0.31338 0.18068 0.46777 0.0
C369 C 0.27335 0.1259 0.4835 0.0
O370 O 0.28927 0.12445 0.47545 0.0
O371 O 0.27236 0.14175 0.4946 0.0
O372 O 0.33732 0.12807 0.47821 0.0
O373 O 0.33169 0.14514 0.5047 0.0
O374 O 0.45866 0.5417 0.81379 0.0
Cd375 Cd 0.44292 0.53916 0.78935 0.0
Cd376 Cd 0.41421 0.54951 0.81172 0.0
O377 O 0.43506 0.54864 0.83184 0.0
O378 O 0.46398 0.53501 0.77219 0.0
O379 O 0.44857 0.56032 0.77437 0.0
C380 C 0.46172 0.55088 0.76691 0.0
C381 C 0.39974 0.57736 0.81343 0.0
C382 C 0.45258 0.54508 0.82953 0.0
C383 C 0.40307 0.51004 0.78641 0.0
O384 O 0.3973 0.52253 0.7986 0.0
O385 O 0.42057 0.51396 0.78082 0.0
O386 O 0.39461 0.56468 0.82351 0.0
O387 O 0.41347 0.57435 0.80239 0.0
O388 O 0.75822 0.35994 0.52444 0.0
Cd389 Cd 0.77034 0.38053 0.54728 0.0
Cd390 Cd 0.74452 0.40212 0.53418 0.0
O391 O 0.73741 0.3766 0.51415 0.0
O392 O 0.78453 0.36532 0.56132 0.0
O393 O 0.75965 0.37956 0.57166 0.0
C394 C 0.7729 0.36908 0.57405 0.0
C395 C 0.71892 0.41892 0.54417 0.0
C396 C 0.74519 0.36126 0.51251 0.0
C397 C 0.78958 0.41879 0.53755 0.0
O398 O 0.77185 0.42084 0.53351 0.0
O399 O 0.79244 0.40369 0.54342 0.0
O400 O 0.725 0.4183 0.52824 0.0
O401 O 0.72692 0.40931 0.55442 0.0
O402 O 0.66446 0.02798 0.75345 0.0
Cd403 Cd 0.6476 0.0031 0.76034 0.0
Cd404 Cd 0.61917 0.00912 0.73322 0.0
O405 O 0.64315 0.03201 0.73249 0.0
O406 O 0.66727 0.99546 0.77633 0.0
O407 O 0.65361 0.97591 0.75063 0.0
C408 C 0.66582 0.979 0.76483 0.0
C409 C 0.60031 0.99651 0.70553 0.0
C410 C 0.66 0.03744 0.74172 0.0
C411 C 0.60653 0.00945 0.7714 0.0
O412 O 0.60223 0.01074 0.7553 0.0
O413 O 0.62371 0.00646 0.77606 0.0
O414 O 0.60026 0.01395 0.71479 0.0
O415 O 0.61106 0.98581 0.71202 0.0
O416 O 0.01387 0.23196 0.91288 0.0
Cd417 Cd 0.02392 0.2096 0.89605 0.0
Cd418 Cd 0.04523 0.23992 0.88438 0.0
O419 O 0.03672 0.25662 0.90735 0.0
O420 O 0.01994 0.18652 0.90815 0.0
O421 O 0.05005 0.20323 0.90393 0.0
C422 C 0.03933 0.18947 0.91069 0.0
C423 C 0.07849 0.24649 0.87645 0.0
C424 C 0.02218 0.25029 0.91622 0.0
C425 C 0.01091 0.2126 0.85954 0.0
O426 O 0.02347 0.2291 0.86313 0.0
O427 O 0.00975 0.20086 0.87044 0.0
O428 O 0.0663 0.25809 0.87449 0.0
O429 O 0.07197 0.23132 0.88348 0.0
O430 O 0.51518 0.73154 0.41052 0.0
Cd431 Cd 0.52435 0.70834 0.39415 0.0
Cd432 Cd 0.54642 0.73751 0.38146 0.0
O433 O 0.53866 0.7552 0.40423 0.0
O434 O 0.51993 0.6861 0.40724 0.0
O435 O 0.55024 0.70153 0.40205 0.0
C436 C 0.5393 0.68861 0.40959 0.0
C437 C 0.5795 0.74366 0.37304 0.0
C438 C 0.52409 0.74966 0.4134 0.0
C439 C 0.51119 0.71038 0.35746 0.0
O440 O 0.52432 0.7265 0.36048 0.0
O441 O 0.50965 0.69913 0.36881 0.0
O442 O 0.56727 0.75516 0.3709 0.0
O443 O 0.57311 0.72878 0.38048 0.0
O444 O 0.01201 0.77987 0.67925 0.0
Cd445 Cd 0.03422 0.77098 0.66348 0.0
Cd446 Cd 0.02136 0.79509 0.64323 0.0
O447 O 0.0034 0.80119 0.66408 0.0
O448 O 0.0504 0.75947 0.67951 0.0
O449 O 0.06296 0.78605 0.66874 0.0
C450 C 0.06549 0.77347 0.67857 0.0
C451 C 0.04009 0.82054 0.63154 0.0
C452 C 0.00149 0.79264 0.67738 0.0
C453 C 0.01718 0.75208 0.62561 0.0
O454 O 0.01288 0.76875 0.6247 0.0
O455 O 0.02627 0.74989 0.6398 0.0
O456 O 0.02069 0.81601 0.6291 0.0
O457 O 0.04895 0.81117 0.64144 0.0
O458 O 0.50462 0.27926 0.18486 0.0
Cd459 Cd 0.52573 0.26812 0.16895 0.0
Cd460 Cd 0.51086 0.28931 0.14655 0.0
O461 O 0.49545 0.29912 0.16826 0.0
O462 O 0.54242 0.25749 0.1853 0.0
O463 O 0.55478 0.28258 0.17254 0.0
C464 C 0.55766 0.27067 0.18297 0.0
C465 C 0.52707 0.31073 0.1292 0.0
C466 C 0.49433 0.29208 0.18248 0.0
C467 C 0.50475 0.24506 0.13371 0.0
O468 O 0.49991 0.26118 0.13175 0.0
O469 O 0.51612 0.2447 0.14725 0.0
O470 O 0.50768 0.30588 0.12861 0.0
O471 O 0.53745 0.30434 0.14058 0.0
H472 H 0.28511 0.75628 0.8771 0.0
H473 H 0.27317 0.76852 0.90619 0.0
H474 H 0.21957 0.77804 0.87973 0.0
H475 H 0.23117 0.76522 0.85036 0.0
H476 H 0.23917 0.8109 0.90438 0.0
H477 H 0.21518 0.74221 0.90356 0.0
H478 H 0.21705 0.70685 0.89967 0.0
H479 H 0.2639 0.7214 0.94257 0.0
H480 H 0.26253 0.7569 0.94656 0.0
H481 H 0.21355 0.85173 0.99053 0.0
H482 H 0.2088 0.82794 0.96171 0.0
H483 H 0.26185 0.80694 0.97589 0.0
H484 H 0.26638 0.83017 0.00483 0.0
H485 H 0.23499 0.77709 0.95616 0.0
H486 H 0.26442 0.8448 0.95243 0.0
H487 H 0.26513 0.88073 0.95624 0.0
H488 H 0.21063 0.86829 0.92168 0.0
H489 H 0.20948 0.83226 0.91786 0.0
C490 C 0.27051 0.76044 0.87738 0.0
C491 C 0.25909 0.75967 0.86131 0.0
C492 C 0.26372 0.7675 0.89408 0.0
C493 C 0.24538 0.774 0.89514 0.0
C494 C 0.23375 0.77302 0.8792 0.0
C495 C 0.24047 0.76581 0.86244 0.0
C496 C 0.23941 0.78336 0.91287 0.0
C497 C 0.2377 0.80335 0.9156 0.0
C498 C 0.23799 0.77363 0.92758 0.0
C499 C 0.23882 0.75226 0.92529 0.0
C500 C 0.22598 0.7379 0.91209 0.0
C501 C 0.22694 0.71782 0.90988 0.0
C502 C 0.2406 0.71188 0.92085 0.0
C503 C 0.25332 0.72602 0.93408 0.0
C504 C 0.25244 0.74612 0.93634 0.0
C505 C 0.22391 0.8417 0.98771 0.0
C506 C 0.24056 0.84311 0.99987 0.0
C507 C 0.22122 0.82816 0.97119 0.0
C508 C 0.23526 0.81601 0.96646 0.0
C509 C 0.25088 0.81624 0.97919 0.0
C510 C 0.25349 0.82962 0.99575 0.0
C511 C 0.2352 0.80472 0.94772 0.0
C512 C 0.23589 0.78445 0.94482 0.0
C513 C 0.23599 0.81424 0.93285 0.0
C514 C 0.23672 0.83587 0.93505 0.0
C515 C 0.25252 0.84974 0.94575 0.0
C516 C 0.25301 0.87011 0.9479 0.0
C517 C 0.2379 0.87679 0.93925 0.0
C518 C 0.2223 0.8631 0.9284 0.0
C519 C 0.22172 0.84271 0.92624 0.0
H520 H 0.2383 0.89256 0.94093 0.0
H521 H 0.24132 0.69633 0.91911 0.0
H522 H 0.96882 0.58095 0.36527 0.0
H523 H 0.99486 0.57211 0.34563 0.0
H524 H 0.01271 0.53704 0.38178 0.0
H525 H 0.98623 0.54523 0.40127 0.0
H526 H 0.04565 0.56122 0.36847 0.0
H527 H 0.98456 0.51324 0.34658 0.0
H528 H 0.94848 0.50255 0.33624 0.0
H529 H 0.95829 0.53295 0.29242 0.0
H530 H 0.9944 0.54409 0.30268 0.0
H531 H 0.10459 0.51086 0.30637 0.0
H532 H 0.08031 0.51846 0.32848 0.0
H533 H 0.05024 0.54471 0.29116 0.0
H534 H 0.07392 0.53655 0.26885 0.0
H535 H 0.0234 0.52341 0.30629 0.0
H536 H 0.08337 0.57292 0.32811 0.0
H537 H 0.11935 0.58524 0.33836 0.0
H538 H 0.11189 0.55405 0.3818 0.0
H539 H 0.0759 0.54133 0.37167 0.0
C540 C 0.97821 0.5713 0.36906 0.0
C541 C 0.97525 0.56365 0.38479 0.0
C542 C 0.99316 0.56636 0.35786 0.0
C543 C 0.00553 0.55376 0.36218 0.0
C544 C 0.00329 0.5468 0.37824 0.0
C545 C 0.98821 0.55159 0.3894 0.0
C546 C 0.02019 0.54722 0.3495 0.0
C547 C 0.04084 0.55271 0.35494 0.0
C548 C 0.01383 0.53647 0.33178 0.0
C549 C 0.99215 0.52965 0.3255 0.0
C550 C 0.979 0.51779 0.33483 0.0
C551 C 0.95855 0.51162 0.32897 0.0
C552 C 0.95109 0.51711 0.31371 0.0
C553 C 0.96409 0.52873 0.30425 0.0
C554 C 0.98455 0.53496 0.31008 0.0
C555 C 0.09278 0.51822 0.30288 0.0
C556 C 0.09122 0.52312 0.28586 0.0
C557 C 0.07897 0.52266 0.31557 0.0
C558 C 0.06359 0.53244 0.31161 0.0
C559 C 0.06194 0.53716 0.29456 0.0
C560 C 0.07554 0.5325 0.28181 0.0
C561 C 0.04906 0.53768 0.32507 0.0
C562 C 0.02833 0.53187 0.31981 0.0
C563 C 0.05539 0.54834 0.34288 0.0
C564 C 0.077 0.556 0.34902 0.0
C565 C 0.08944 0.56857 0.33977 0.0
C566 C 0.10983 0.57564 0.34557 0.0
C567 C 0.11792 0.57038 0.36069 0.0
C568 C 0.10561 0.55808 0.37007 0.0
C569 C 0.08522 0.55094 0.36432 0.0
H570 H 0.1337 0.57587 0.36516 0.0
H571 H 0.93525 0.51232 0.30919 0.0
H572 H 0.84017 0.81118 0.87066 0.0
H573 H 0.83984 0.78878 0.89139 0.0
H574 H 0.84145 0.74026 0.84696 0.0
H575 H 0.84035 0.76238 0.82586 0.0
H576 H 0.81678 0.72756 0.86944 0.0
H577 H 0.88418 0.76415 0.87578 0.0
H578 H 0.91164 0.79376 0.88017 0.0
H579 H 0.893 0.81491 0.93267 0.0
H580 H 0.86523 0.78556 0.9285 0.0
H581 H 0.84013 0.66828 0.93136 0.0
H582 H 0.84539 0.6881 0.90805 0.0
H583 H 0.82949 0.73767 0.94399 0.0
H584 H 0.8239 0.71793 0.96726 0.0
H585 H 0.86451 0.74746 0.92407 0.0
H586 H 0.7949 0.71088 0.91506 0.0
H587 H 0.76865 0.68023 0.90995 0.0
H588 H 0.79412 0.65758 0.86111 0.0
H589 H 0.82071 0.68801 0.86609 0.0
C590 C 0.84005 0.79568 0.86517 0.0
C591 C 0.84023 0.78863 0.84651 0.0
C592 C 0.84023 0.78293 0.87713 0.0
C593 C 0.84111 0.76291 0.87081 0.0
C594 C 0.84096 0.75569 0.85218 0.0
C595 C 0.8405 0.76841 0.84014 0.0
C596 C 0.84187 0.74959 0.88372 0.0
C597 C 0.82749 0.73176 0.88118 0.0
C598 C 0.85576 0.75506 0.89914 0.0
C599 C 0.87252 0.77271 0.90177 0.0
C600 C 0.88585 0.77518 0.88822 0.0
C601 C 0.90148 0.79191 0.89067 0.0
C602 C 0.90404 0.80623 0.90667 0.0
C603 C 0.89099 0.80382 0.92027 0.0
C604 C 0.87532 0.78712 0.91788 0.0
C605 C 0.83799 0.68348 0.93438 0.0
C606 C 0.83151 0.69153 0.95112 0.0
C607 C 0.84094 0.69473 0.92103 0.0
C608 C 0.8377 0.71426 0.92431 0.0
C609 C 0.83206 0.72261 0.94124 0.0
C610 C 0.82881 0.71129 0.95448 0.0
C611 C 0.83923 0.72579 0.90988 0.0
C612 C 0.85403 0.74323 0.91216 0.0
C613 C 0.82598 0.71981 0.89409 0.0
C614 C 0.80993 0.7016 0.89106 0.0
C615 C 0.79501 0.69928 0.90332 0.0
C616 C 0.78005 0.68197 0.90043 0.0
C617 C 0.77975 0.66693 0.88525 0.0
C618 C 0.79439 0.66922 0.87289 0.0
C619 C 0.8094 0.68649 0.87573 0.0
H620 H 0.76816 0.65354 0.88303 0.0
H621 H 0.91615 0.81917 0.90854 0.0
H622 H 0.08157 0.96694 0.39935 0.0
H623 H 0.05984 0.98183 0.38204 0.0
H624 H 0.01309 0.97204 0.41835 0.0
H625 H 0.03473 0.9566 0.43548 0.0
H626 H 0.99705 0.96541 0.3847 0.0
H627 H 0.04443 0.01763 0.42279 0.0
H628 H 0.07807 0.03578 0.43637 0.0
H629 H 0.09611 0.04432 0.38435 0.0
H630 H 0.06266 0.02593 0.37041 0.0
H631 H 0.94415 0.03299 0.35467 0.0
H632 H 0.96434 0.02005 0.37517 0.0
H633 H 0.01101 0.01923 0.33802 0.0
H634 H 0.99094 0.03205 0.31739 0.0
H635 H 0.02582 0.03275 0.37454 0.0
H636 H 0.97851 0.9781 0.33672 0.0
H637 H 0.94456 0.96012 0.32377 0.0
H638 H 0.92593 0.95713 0.3768 0.0
H639 H 0.95971 0.97538 0.39008 0.0
C640 C 0.06656 0.96776 0.40348 0.0
C641 C 0.05984 0.9608 0.4188 0.0
C642 C 0.05421 0.97636 0.39367 0.0
C643 C 0.03505 0.97854 0.39919 0.0
C644 C 0.02788 0.97065 0.41394 0.0
C645 C 0.04019 0.96179 0.42367 0.0
C646 C 0.02289 0.98961 0.38985 0.0
C647 C 0.00323 0.98026 0.38275 0.0
C648 C 0.031 0.00896 0.38718 0.0
C649 C 0.05107 0.02026 0.39554 0.0
C650 C 0.0556 0.02327 0.41423 0.0
C651 C 0.07464 0.03361 0.42199 0.0
C652 C 0.08923 0.04117 0.41122 0.0
C653 C 0.08479 0.03845 0.39268 0.0
C654 C 0.06579 0.02808 0.38484 0.0
C655 C 0.95887 0.03041 0.351 0.0
C656 C 0.96588 0.0334 0.33433 0.0
C657 C 0.97032 0.02293 0.36269 0.0
C658 C 0.98902 0.01847 0.35798 0.0
C659 C 0.99658 0.02254 0.34186 0.0
C660 C 0.98507 0.02982 0.33008 0.0
C661 C 1.00018 0.00841 0.36922 0.0
C662 C 0.01963 0.01798 0.37668 0.0
C663 C 0.99181 0.98937 0.37238 0.0
C664 C 0.97155 0.9783 0.3644 0.0
C665 C 0.96712 0.97376 0.34563 0.0
C666 C 0.94792 0.96349 0.33823 0.0
C667 C 0.93308 0.95754 0.34946 0.0
C668 C 0.93743 0.96179 0.36812 0.0
C669 C 0.9566 0.97208 0.37559 0.0
H670 H 0.91822 0.94959 0.34371 0.0
H671 H 0.10396 0.04916 0.41726 0.0
H672 H 0.27841 0.28634 0.68583 0.0
H673 H 0.28025 0.27065 0.65429 0.0
H674 H 0.31007 0.2274 0.67122 0.0
H675 H 0.30833 0.24309 0.70284 0.0
H676 H 0.32875 0.2447 0.64367 0.0
H677 H 0.26281 0.21317 0.65671 0.0
H678 H 0.22884 0.2125 0.66754 0.0
H679 H 0.21432 0.24469 0.62786 0.0
H680 H 0.24833 0.24581 0.61696 0.0
H681 H 0.32003 0.17885 0.55789 0.0
H682 H 0.32017 0.19427 0.58975 0.0
H683 H 0.2803 0.23119 0.57589 0.0
H684 H 0.2795 0.2153 0.54418 0.0
H685 H 0.26703 0.21643 0.60256 0.0
H686 H 0.33206 0.24929 0.58966 0.0
H687 H 0.36617 0.25177 0.57882 0.0
H688 H 0.38274 0.21956 0.61775 0.0
H689 H 0.34862 0.21666 0.62866 0.0
C690 C 0.28535 0.27349 0.68281 0.0
C691 C 0.29317 0.26587 0.69674 0.0
C692 C 0.28633 0.26451 0.66482 0.0
C693 C 0.29522 0.24784 0.66047 0.0
C694 C 0.30314 0.24025 0.67434 0.0
C695 C 0.30198 0.24911 0.69235 0.0
C696 C 0.29628 0.23838 0.6414 0.0
C697 C 0.31529 0.23825 0.63469 0.0
C698 C 0.27869 0.2305 0.62967 0.0
C699 C 0.25819 0.22973 0.63613 0.0
C700 C 0.25243 0.22025 0.65039 0.0
C701 C 0.23316 0.21976 0.65652 0.0
C702 C 0.21945 0.22859 0.64842 0.0
C703 C 0.22497 0.23788 0.63414 0.0
C704 C 0.24423 0.23843 0.62797 0.0
C705 C 0.31147 0.1904 0.56165 0.0
C706 C 0.29972 0.19585 0.54857 0.0
C707 C 0.31162 0.19926 0.57986 0.0
C708 C 0.30036 0.21403 0.58525 0.0
C709 C 0.28903 0.21979 0.5721 0.0
C710 C 0.28863 0.21073 0.55397 0.0
C711 C 0.29957 0.22288 0.60461 0.0
C712 C 0.28057 0.22286 0.61145 0.0
C713 C 0.3172 0.23086 0.61638 0.0
C714 C 0.33772 0.23258 0.60985 0.0
C715 C 0.34293 0.2426 0.59581 0.0
C716 C 0.36227 0.2441 0.58967 0.0
C717 C 0.3766 0.23578 0.59756 0.0
C718 C 0.37162 0.22597 0.61163 0.0
C719 C 0.35229 0.22441 0.61781 0.0
H720 H 0.39156 0.23696 0.59279 0.0
H721 H 0.20453 0.22819 0.65319 0.0
H722 H 0.5904 0.57136 0.65304 0.0
H723 H 0.56733 0.56812 0.6767 0.0
H724 H 0.5294 0.60092 0.65328 0.0
H725 H 0.55222 0.60381 0.62911 0.0
H726 H 0.5361 0.61137 0.69268 0.0
H727 H 0.51392 0.55449 0.6446 0.0
H728 H 0.51861 0.52587 0.6216 0.0
H729 H 0.54016 0.49924 0.66286 0.0
H730 H 0.5359 0.52787 0.6861 0.0
H731 H 0.45616 0.57891 0.74741 0.0
H732 H 0.47561 0.58822 0.72262 0.0
H733 H 0.51438 0.5477 0.7299 0.0
H734 H 0.4948 0.53801 0.75411 0.0
H735 H 0.50353 0.54253 0.69599 0.0
H736 H 0.52894 0.59974 0.74371 0.0
H737 H 0.52632 0.6287 0.76726 0.0
H738 H 0.50038 0.65483 0.72777 0.0
H739 H 0.50262 0.62588 0.704 0.0
C740 C 0.5771 0.5778 0.6528 0.0
C741 C 0.57299 0.58754 0.63897 0.0
C742 C 0.56402 0.57607 0.66643 0.0
C743 C 0.54658 0.58411 0.66661 0.0
C744 C 0.54281 0.59463 0.65335 0.0
C745 C 0.55588 0.59627 0.63958 0.0
C746 C 0.53187 0.58038 0.68014 0.0
C747 C 0.52865 0.59638 0.69328 0.0
C748 C 0.52244 0.56079 0.681 0.0
C749 C 0.52472 0.54339 0.66708 0.0
C750 C 0.51978 0.54259 0.64876 0.0
C751 C 0.52235 0.52636 0.63568 0.0
C752 C 0.52971 0.51077 0.64076 0.0
C753 C 0.53447 0.51134 0.65895 0.0
C754 C 0.53196 0.52755 0.67208 0.0
C755 C 0.46891 0.5721 0.74375 0.0
C756 C 0.47388 0.55765 0.75264 0.0
C757 C 0.48006 0.57748 0.72964 0.0
C758 C 0.49653 0.56871 0.7244 0.0
C759 C 0.50167 0.55459 0.73357 0.0
C760 C 0.49047 0.54908 0.74746 0.0
C761 C 0.50815 0.57347 0.70902 0.0
C762 C 0.51073 0.5576 0.69539 0.0
C763 C 0.5171 0.59316 0.70786 0.0
C764 C 0.51571 0.61054 0.72213 0.0
C765 C 0.52251 0.61158 0.74007 0.0
C766 C 0.52113 0.62801 0.75345 0.0
C767 C 0.51312 0.64356 0.74902 0.0
C768 C 0.50654 0.64275 0.73119 0.0
C769 C 0.50787 0.62634 0.71776 0.0
H770 H 0.51207 0.65627 0.7594 0.0
H771 H 0.5317 0.49822 0.63062 0.0
H772 H 0.78176 0.27684 0.70531 0.0
H773 H 0.7752 0.28888 0.67799 0.0
H774 H 0.81116 0.34652 0.70218 0.0
H775 H 0.81882 0.33433 0.729 0.0
H776 H 0.75732 0.31676 0.6703 0.0
H777 H 0.83582 0.36748 0.67113 0.0
H778 H 0.87116 0.36955 0.68181 0.0
H779 H 0.85955 0.30637 0.67798 0.0
H780 H 0.82423 0.30389 0.66706 0.0
H781 H 0.7544 0.37791 0.6054 0.0
H782 H 0.75871 0.36563 0.63311 0.0
H783 H 0.7998 0.33051 0.60789 0.0
H784 H 0.79601 0.34306 0.5805 0.0
H785 H 0.81475 0.34817 0.63998 0.0
H786 H 0.75022 0.30969 0.61432 0.0
H787 H 0.71502 0.30416 0.60174 0.0
H788 H 0.69899 0.3365 0.65145 0.0
H789 H 0.73417 0.34245 0.66425 0.0
C790 C 0.78849 0.29201 0.70475 0.0
C791 C 0.80096 0.30453 0.71938 0.0
C792 C 0.78451 0.29895 0.68919 0.0
C793 C 0.79289 0.31854 0.68792 0.0
C794 C 0.80479 0.33125 0.7027 0.0
C795 C 0.80896 0.32428 0.71816 0.0
C796 C 0.78967 0.32556 0.671 0.0
C797 C 0.76987 0.32365 0.66368 0.0
C798 C 0.80603 0.33427 0.66216 0.0
C799 C 0.82734 0.33555 0.66845 0.0
C800 C 0.84084 0.35402 0.6725 0.0
C801 C 0.86086 0.35527 0.67861 0.0
C802 C 0.86758 0.33811 0.68063 0.0
C803 C 0.85431 0.31966 0.67647 0.0
C804 C 0.83429 0.31833 0.67034 0.0
C805 C 0.76431 0.36754 0.60578 0.0
C806 C 0.77488 0.36148 0.59077 0.0
C807 C 0.7667 0.36046 0.62159 0.0
C808 C 0.77947 0.347 0.62256 0.0
C809 C 0.78993 0.34092 0.60753 0.0
C810 C 0.7877 0.34809 0.59183 0.0
C811 C 0.78239 0.33947 0.63927 0.0
C812 C 0.80217 0.34135 0.64661 0.0
C813 C 0.76603 0.33027 0.64782 0.0
C814 C 0.74487 0.32669 0.64017 0.0
C815 C 0.73922 0.31576 0.62252 0.0
C816 C 0.71927 0.31252 0.61536 0.0
C817 C 0.70479 0.32002 0.62577 0.0
C818 C 0.71023 0.33073 0.64339 0.0
C819 C 0.73017 0.33402 0.65061 0.0
H820 H 0.68935 0.3175 0.62021 0.0
H821 H 0.88308 0.33911 0.68538 0.0
H822 H 0.464 0.93597 0.57053 0.0
H823 H 0.49095 0.93502 0.59251 0.0
H824 H 0.511 0.99855 0.59982 0.0
H825 H 0.48468 0.9995 0.57739 0.0
H826 H 0.54238 0.9805 0.59771 0.0
H827 H 0.4814 0.97697 0.62968 0.0
H828 H 0.44656 0.96228 0.63495 0.0
H829 H 0.46458 0.90764 0.63886 0.0
H830 H 0.4995 0.92195 0.63337 0.0
H831 H 0.58644 0.01911 0.68477 0.0
H832 H 0.56481 0.00807 0.6569 0.0
H833 H 0.56471 0.94694 0.65888 0.0
H834 H 0.58681 0.958 0.68698 0.0
H835 H 0.52555 0.95602 0.65349 0.0
H836 H 0.5884 0.96294 0.62728 0.0
H837 H 0.62316 0.97896 0.62317 0.0
H838 H 0.60169 0.02829 0.60921 0.0
H839 H 0.56682 0.01272 0.61351 0.0
C840 C 0.47429 0.94971 0.57669 0.0
C841 C 0.47212 0.96784 0.5723 0.0
C842 C 0.48958 0.94915 0.58934 0.0
C843 C 0.50286 0.96674 0.59792 0.0
C844 C 0.5009 0.98479 0.59336 0.0
C845 C 0.4857 0.98535 0.58069 0.0
C846 C 0.51863 0.96662 0.61195 0.0
C847 C 0.5387 0.97518 0.60992 0.0
C848 C 0.51394 0.95901 0.62759 0.0
C849 C 0.49298 0.95043 0.63088 0.0
C850 C 0.47788 0.96176 0.63151 0.0
C851 C 0.45814 0.95352 0.63457 0.0
C852 C 0.45334 0.93402 0.63717 0.0
C853 C 0.4683 0.92273 0.63679 0.0
C854 C 0.48807 0.9309 0.63371 0.0
C855 C 0.58198 0.0033 0.67925 0.0
C856 C 0.58826 0.9894 0.68807 0.0
C857 C 0.5697 0.99703 0.66326 0.0
C858 C 0.5633 0.97672 0.65579 0.0
C859 C 0.56961 0.9627 0.66444 0.0
C860 C 0.58224 0.96902 0.6804 0.0
C861 C 0.5491 0.97057 0.63949 0.0
C862 C 0.52932 0.96085 0.64107 0.0
C863 C 0.55402 0.97723 0.62348 0.0
C864 C 0.57498 0.98667 0.6208 0.0
C865 C 0.5911 0.97727 0.62346 0.0
C866 C 0.61083 0.98627 0.62107 0.0
C867 C 0.61463 0.00464 0.61595 0.0
C868 C 0.59871 0.01405 0.61317 0.0
C869 C 0.57896 0.00512 0.61555 0.0
H870 H 0.62992 0.01158 0.61411 0.0
H871 H 0.43805 0.92767 0.63955 0.0
H872 H 0.86081 0.19941 0.74178 0.0
H873 H 0.89063 0.19205 0.75618 0.0
H874 H 0.89173 0.24182 0.80011 0.0
H875 H 0.86168 0.24894 0.78607 0.0
H876 H 0.9289 0.21266 0.76628 0.0
H877 H 0.90366 0.22898 0.83909 0.0
H878 H 0.87204 0.22736 0.8544 0.0
H879 H 0.84118 0.18232 0.81011 0.0
H880 H 0.87267 0.18345 0.79466 0.0
H881 H 0.00855 0.23514 0.83428 0.0
H882 H 0.98037 0.2322 0.81246 0.0
H883 H 0.95074 0.1781 0.82742 0.0
H884 H 0.97879 0.18118 0.84968 0.0
H885 H 0.92618 0.20266 0.82913 0.0
H886 H 0.96772 0.17812 0.7848 0.0
H887 H 0.99848 0.17699 0.76855 0.0
H888 H 0.99554 0.23273 0.75419 0.0
H889 H 0.96491 0.23436 0.77057 0.0
C890 C 0.86743 0.20878 0.75451 0.0
C891 C 0.85882 0.22469 0.76284 0.0
C892 C 0.88453 0.20463 0.76265 0.0
C893 C 0.89323 0.21622 0.77931 0.0
C894 C 0.88509 0.23253 0.78735 0.0
C895 C 0.86803 0.2367 0.77922 0.0
C896 C 0.91043 0.21101 0.78865 0.0
C897 C 0.92834 0.21041 0.78 0.0
C898 C 0.90945 0.20744 0.80633 0.0
C899 C 0.8905 0.20643 0.81566 0.0
C900 C 0.89015 0.21866 0.83266 0.0
C901 C 0.87224 0.21784 0.84136 0.0
C902 C 0.8546 0.20479 0.83321 0.0
C903 C 0.85484 0.19247 0.81638 0.0
C904 C 0.87271 0.19321 0.80764 0.0
C905 C 0.99627 0.22236 0.8327 0.0
C906 C 0.99586 0.2085 0.84389 0.0
C907 C 0.98017 0.22064 0.8201 0.0
C908 C 0.96341 0.20491 0.81825 0.0
C909 C 0.96349 0.1904 0.82864 0.0
C910 C 0.97959 0.19214 0.84132 0.0
C911 C 0.94501 0.20499 0.80702 0.0
C912 C 0.92679 0.20466 0.81533 0.0
C913 C 0.94564 0.20731 0.78892 0.0
C914 C 0.96406 0.20641 0.77902 0.0
C915 C 0.97371 0.19022 0.77829 0.0
C916 C 0.99111 0.18947 0.76904 0.0
C917 C 0.99898 0.2048 0.76037 0.0
C918 C 0.98943 0.22088 0.76091 0.0
C919 C 0.97202 0.2217 0.77016 0.0
H920 H 0.01246 0.20419 0.75321 0.0
H921 H 0.84075 0.20419 0.83996 0.0
H922 H 0.47126 0.90331 0.50661 0.0
H923 H 0.48761 0.87488 0.49847 0.0
H924 H 0.43157 0.83906 0.47191 0.0
H925 H 0.41512 0.8676 0.4798 0.0
H926 H 0.46031 0.81966 0.49351 0.0
H927 H 0.45542 0.85703 0.44557 0.0
H928 H 0.45988 0.88854 0.43491 0.0
H929 H 0.52303 0.90129 0.45188 0.0
H930 H 0.51884 0.86999 0.46295 0.0
H931 H 0.48696 0.74591 0.42647 0.0
H932 H 0.47316 0.7714 0.4458 0.0
H933 H 0.53047 0.81226 0.45012 0.0
H934 H 0.54406 0.787 0.42994 0.0
H935 H 0.50314 0.83012 0.44315 0.0
H936 H 0.51047 0.79095 0.48643 0.0
H937 H 0.50744 0.76042 0.49853 0.0
H938 H 0.44285 0.75179 0.49299 0.0
H939 H 0.44546 0.78209 0.48055 0.0
C940 C 0.46226 0.8892 0.49954 0.0
C941 C 0.44197 0.88763 0.49373 0.0
C942 C 0.47162 0.87301 0.49491 0.0
C943 C 0.46076 0.85497 0.48462 0.0
C944 C 0.44011 0.85287 0.47998 0.0
C945 C 0.4308 0.86917 0.48436 0.0
C946 C 0.47162 0.83957 0.47627 0.0
C947 C 0.4696 0.82175 0.48242 0.0
C948 C 0.48418 0.84274 0.46224 0.0
C949 C 0.48677 0.86132 0.45527 0.0
C950 C 0.47022 0.86665 0.44717 0.0
C951 C 0.4727 0.88445 0.44103 0.0
C952 C 0.49172 0.89694 0.44276 0.0
C953 C 0.5083 0.89161 0.45058 0.0
C954 C 0.50588 0.87385 0.45678 0.0
C955 C 0.49672 0.76024 0.43173 0.0
C956 C 0.51658 0.76449 0.42665 0.0
C957 C 0.48884 0.77479 0.44292 0.0
C958 C 0.50083 0.79373 0.44968 0.0
C959 C 0.52091 0.79778 0.44508 0.0
C960 C 0.52867 0.78334 0.43357 0.0
C961 C 0.49187 0.80975 0.46016 0.0
C962 C 0.49415 0.82785 0.45439 0.0
C963 C 0.47984 0.80686 0.47472 0.0
C964 C 0.47817 0.78874 0.48242 0.0
C965 C 0.49561 0.78248 0.48768 0.0
C966 C 0.49397 0.76521 0.49461 0.0
C967 C 0.47497 0.75415 0.49649 0.0
C968 C 0.45756 0.76037 0.49151 0.0
C969 C 0.45911 0.7776 0.48453 0.0
H970 H 0.47373 0.74078 0.50185 0.0
H971 H 0.49361 0.91071 0.438 0.0
H972 H 0.25634 0.2481 0.81942 0.0
H973 H 0.22726 0.24969 0.83736 0.0
H974 H 0.19731 0.27055 0.79606 0.0
H975 H 0.22587 0.2681 0.77754 0.0
H976 H 0.19459 0.29057 0.83459 0.0
H977 H 0.18385 0.2258 0.79421 0.0
H978 H 0.19393 0.19443 0.78078 0.0
H979 H 0.19903 0.18042 0.83312 0.0
H980 H 0.18929 0.21189 0.84689 0.0
H981 H 0.09235 0.27036 0.8534 0.0
H982 H 0.12501 0.2744 0.84067 0.0
H983 H 0.14382 0.23515 0.87222 0.0
H984 H 0.11062 0.23028 0.88438 0.0
H985 H 0.15416 0.22539 0.84045 0.0
H986 H 0.16267 0.28782 0.8813 0.0
H987 H 0.15417 0.31951 0.8961 0.0
H988 H 0.15515 0.3387 0.84574 0.0
H989 H 0.16339 0.307 0.83057 0.0
C990 C 0.24359 0.253 0.81407 0.0
C991 C 0.2434 0.25768 0.79686 0.0
C992 C 0.22706 0.25407 0.82445 0.0
C993 C 0.21015 0.26012 0.81796 0.0
C994 C 0.2103 0.26592 0.8013 0.0
C995 C 0.22672 0.26458 0.79077 0.0
C996 C 0.1917 0.25884 0.82789 0.0
C997 C 0.18558 0.27637 0.83579 0.0
C998 C 0.18042 0.2403 0.82988 0.0
C999 C 0.18607 0.22129 0.82159 0.0
C1000 C 0.1873 0.21612 0.80287 0.0
C1001 C 0.19292 0.1983 0.79519 0.0
C1002 C 0.19718 0.18547 0.8061 0.0
C1003 C 0.19577 0.19039 0.8247 0.0
C1004 C 0.19019 0.20821 0.83244 0.0
C1005 C 0.1035 0.26273 0.85779 0.0
C1006 C 0.09893 0.25002 0.86993 0.0
C1007 C 0.12227 0.26517 0.85057 0.0
C1008 C 0.13711 0.25538 0.85569 0.0
C1009 C 0.13267 0.24291 0.86807 0.0
C1010 C 0.11372 0.24017 0.87505 0.0
C1011 C 0.15673 0.25721 0.84726 0.0
C1012 C 0.16313 0.23971 0.83953 0.0
C1013 C 0.16841 0.27584 0.8457 0.0
C1014 C 0.16349 0.29495 0.85477 0.0
C1015 C 0.16093 0.29873 0.87335 0.0
C1016 C 0.15618 0.31671 0.88181 0.0
C1017 C 0.15408 0.33109 0.87186 0.0
C1018 C 0.15677 0.32754 0.85343 0.0
C1019 C 0.16151 0.30958 0.8449 0.0
H1020 H 0.1504 0.34499 0.87843 0.0
H1021 H 0.20152 0.17168 0.80013 0.0
H1022 H 0.60553 0.61646 0.54082 0.0
H1023 H 0.59368 0.62089 0.51134 0.0
H1024 H 0.59082 0.68159 0.5345 0.0
H1025 H 0.60144 0.67695 0.56404 0.0
H1026 H 0.55919 0.6661 0.51337 0.0
H1027 H 0.62997 0.66857 0.50842 0.0
H1028 H 0.66179 0.65648 0.50945 0.0
H1029 H 0.63635 0.60537 0.46821 0.0
H1030 H 0.60427 0.61705 0.4671 0.0
H1031 H 0.57873 0.69621 0.42302 0.0
H1032 H 0.59195 0.685 0.44877 0.0
H1033 H 0.53388 0.64771 0.45101 0.0
H1034 H 0.52047 0.65907 0.42552 0.0
H1035 H 0.59625 0.65084 0.45882 0.0
H1036 H 0.52243 0.65356 0.49455 0.0
H1037 H 0.49345 0.67023 0.49454 0.0
H1038 H 0.52996 0.71864 0.47619 0.0
H1039 H 0.55919 0.70239 0.47632 0.0
C1040 C 0.60216 0.63068 0.53968 0.0
C1041 C 0.60459 0.64638 0.55485 0.0
C1042 C 0.59562 0.63327 0.52275 0.0
C1043 C 0.5916 0.65167 0.52061 0.0
C1044 C 0.59387 0.66727 0.53575 0.0
C1045 C 0.60019 0.66464 0.55265 0.0
C1046 C 0.58473 0.65478 0.50273 0.0
C1047 C 0.56728 0.66264 0.50146 0.0
C1048 C 0.5954 0.65062 0.48718 0.0
C1049 C 0.61466 0.64357 0.48782 0.0
C1050 C 0.63111 0.65467 0.49967 0.0
C1051 C 0.6492 0.64791 0.50025 0.0
C1052 C 0.65107 0.63014 0.48894 0.0
C1053 C 0.63487 0.61912 0.47698 0.0
C1054 C 0.61674 0.62581 0.47637 0.0
C1055 C 0.5689 0.68527 0.42873 0.0
C1056 C 0.54847 0.67875 0.42239 0.0
C1057 C 0.57649 0.67886 0.44344 0.0
C1058 C 0.56379 0.66583 0.45203 0.0
C1059 C 0.54385 0.65805 0.44478 0.0
C1060 C 0.53622 0.66452 0.43017 0.0
C1061 C 0.57071 0.66198 0.46955 0.0
C1062 C 0.5881 0.65403 0.47074 0.0
C1063 C 0.56037 0.66665 0.48521 0.0
C1064 C 0.54291 0.67663 0.48525 0.0
C1065 C 0.52427 0.66778 0.49056 0.0
C1066 C 0.50781 0.67716 0.49053 0.0
C1067 C 0.50985 0.69545 0.48531 0.0
C1068 C 0.52837 0.70444 0.48016 0.0
C1069 C 0.54489 0.69514 0.48019 0.0
H1070 H 0.49709 0.70268 0.48529 0.0
H1071 H 0.66509 0.62493 0.48941 0.0
H1072 H 0.85196 0.82428 0.77499 0.0
H1073 H 0.87643 0.82327 0.75202 0.0
H1074 H 0.91645 0.80375 0.78704 0.0
H1075 H 0.89277 0.80588 0.81032 0.0
H1076 H 0.93738 0.83005 0.77199 0.0
H1077 H 0.88579 0.7714 0.75064 0.0
H1078 H 0.85119 0.75251 0.74108 0.0
H1079 H 0.84793 0.78441 0.69856 0.0
H1080 H 0.88245 0.80368 0.70802 0.0
H1081 H 0.99845 0.78315 0.71054 0.0
H1082 H 0.97335 0.78991 0.73201 0.0
H1083 H 0.94554 0.81884 0.69559 0.0
H1084 H 0.97072 0.81228 0.67403 0.0
H1085 H 0.91799 0.79073 0.70989 0.0
H1086 H 0.97191 0.84712 0.73057 0.0
H1087 H 0.00712 0.86407 0.74021 0.0
H1088 H 0.00644 0.834 0.78439 0.0
H1089 H 0.9713 0.81665 0.77486 0.0
C1090 C 0.86606 0.81996 0.77785 0.0
C1091 C 0.87025 0.81492 0.79444 0.0
C1092 C 0.87995 0.81919 0.76463 0.0
C1093 C 0.89818 0.81313 0.76767 0.0
C1094 C 0.90248 0.80839 0.78431 0.0
C1095 C 0.88875 0.80935 0.79756 0.0
C1096 C 0.91291 0.8117 0.75366 0.0
C1097 C 0.93312 0.8213 0.75846 0.0
C1098 C 0.90735 0.80068 0.73586 0.0
C1099 C 0.8866 0.78914 0.73017 0.0
C1100 C 0.87763 0.7745 0.73934 0.0
C1101 C 0.85805 0.7637 0.73393 0.0
C1102 C 0.84734 0.7673 0.71926 0.0
C1103 C 0.85622 0.78167 0.70994 0.0
C1104 C 0.8758 0.79252 0.71532 0.0
C1105 C 0.98705 0.79101 0.7071 0.0
C1106 C 0.98661 0.79721 0.69059 0.0
C1107 C 0.97276 0.79491 0.7194 0.0
C1108 C 0.95768 0.80496 0.7154 0.0
C1109 C 0.95709 0.81108 0.69891 0.0
C1110 C 0.97154 0.8074 0.68667 0.0
C1111 C 0.94238 0.80874 0.72839 0.0
C1112 C 0.92212 0.79961 0.72338 0.0
C1113 C 0.94792 0.81995 0.74607 0.0
C1114 C 0.96902 0.83046 0.75191 0.0
C1115 C 0.97932 0.844 0.74226 0.0
C1116 C 0.99925 0.8537 0.74772 0.0
C1117 C 0.00902 0.85008 0.76288 0.0
C1118 C 0.99886 0.83678 0.77264 0.0
C1119 C 0.97892 0.82703 0.76723 0.0
H1120 H 0.02446 0.8576 0.76709 0.0
H1121 H 0.83218 0.75893 0.71508 0.0
H1122 H 0.1033 0.86906 0.48801 0.0
H1123 H 0.10531 0.86254 0.5185 0.0
H1124 H 0.06104 0.89845 0.53369 0.0
H1125 H 0.05987 0.90577 0.50346 0.0
H1126 H 0.08645 0.90309 0.56127 0.0
H1127 H 0.04862 0.84624 0.51893 0.0
H1128 H 0.043 0.81958 0.49161 0.0
H1129 H 0.09196 0.79599 0.51036 0.0
H1130 H 0.09804 0.82269 0.53769 0.0
H1131 H 0.02751 0.85024 0.61887 0.0
H1132 H 0.04314 0.86779 0.59649 0.0
H1133 H 0.09361 0.83868 0.59798 0.0
H1134 H 0.0782 0.82132 0.62073 0.0
H1135 H 0.07173 0.83159 0.56387 0.0
H1136 H 0.10367 0.88649 0.60993 0.0
H1137 H 0.10572 0.9125 0.63738 0.0
H1138 H 0.06348 0.93901 0.61189 0.0
H1139 H 0.06093 0.91299 0.58436 0.0
C1140 C 0.09426 0.87576 0.498 0.0
C1141 C 0.08129 0.88774 0.49345 0.0
C1142 C 0.09535 0.87201 0.51537 0.0
C1143 C 0.08297 0.87961 0.52831 0.0
C1144 C 0.07072 0.89237 0.52397 0.0
C1145 C 0.06999 0.8965 0.50671 0.0
C1146 C 0.0815 0.87308 0.54579 0.0
C1147 C 0.08317 0.88746 0.56183 0.0
C1148 C 0.0776 0.85267 0.54662 0.0
C1149 C 0.07394 0.83659 0.53023 0.0
C1150 C 0.05828 0.83545 0.51716 0.0
C1151 C 0.055 0.82032 0.50168 0.0
C1152 C 0.06716 0.80614 0.49923 0.0
C1153 C 0.08259 0.80702 0.51226 0.0
C1154 C 0.08596 0.82214 0.52775 0.0
C1155 C 0.04224 0.84806 0.61485 0.0
C1156 C 0.0516 0.83435 0.62143 0.0
C1157 C 0.05119 0.85815 0.60212 0.0
C1158 C 0.06951 0.85451 0.59559 0.0
C1159 C 0.07951 0.84174 0.60294 0.0
C1160 C 0.07072 0.8319 0.61596 0.0
C1161 C 0.07634 0.86157 0.57925 0.0
C1162 C 0.07551 0.84724 0.56336 0.0
C1163 C 0.08052 0.88196 0.57857 0.0
C1164 C 0.08202 0.89769 0.5951 0.0
C1165 C 0.09469 0.89776 0.61022 0.0
C1166 C 0.09596 0.91254 0.62579 0.0
C1167 C 0.08471 0.92738 0.62639 0.0
C1168 C 0.07219 0.9275 0.61141 0.0
C1169 C 0.07085 0.91276 0.5958 0.0
H1170 H 0.08572 0.9388 0.63846 0.0
H1171 H 0.06459 0.79443 0.48724 0.0
H1172 H 0.21558 0.77784 0.78966 0.0
H1173 H 0.18374 0.77619 0.77266 0.0
H1174 H 0.21579 0.78595 0.7262 0.0
H1175 H 0.24757 0.78634 0.74253 0.0
H1176 H 0.18457 0.81139 0.73866 0.0
H1177 H 0.19517 0.74358 0.72201 0.0
H1178 H 0.20174 0.71233 0.72898 0.0
H1179 H 0.14832 0.70608 0.75791 0.0
H1180 H 0.14162 0.73748 0.75133 0.0
H1181 H 0.10299 0.79251 0.67225 0.0
H1182 H 0.1351 0.79438 0.689 0.0
H1183 H 0.1037 0.7608 0.72521 0.0
H1184 H 0.07185 0.75799 0.70792 0.0
H1185 H 0.13523 0.74777 0.71855 0.0
H1186 H 0.12307 0.81348 0.73636 0.0
H1187 H 0.11562 0.84554 0.73239 0.0
H1188 H 0.16997 0.85729 0.70547 0.0
H1189 H 0.17762 0.82516 0.70907 0.0
C1190 C 0.21593 0.77932 0.77575 0.0
C1191 C 0.23432 0.78223 0.76755 0.0
C1192 C 0.1977 0.77857 0.76613 0.0
C1193 C 0.19751 0.78102 0.74824 0.0
C1194 C 0.21571 0.7842 0.74006 0.0
C1195 C 0.2339 0.78455 0.74952 0.0
C1196 C 0.17825 0.77997 0.73794 0.0
C1197 C 0.17381 0.79749 0.73404 0.0
C1198 C 0.16408 0.76192 0.73252 0.0
C1199 C 0.16803 0.74299 0.73636 0.0
C1200 C 0.18494 0.73564 0.73001 0.0
C1201 C 0.18867 0.71788 0.73386 0.0
C1202 C 0.17549 0.70726 0.74393 0.0
C1203 C 0.15853 0.71434 0.75013 0.0
C1204 C 0.15476 0.73211 0.74634 0.0
C1205 C 0.10299 0.78555 0.6838 0.0
C1206 C 0.08494 0.77511 0.68879 0.0
C1207 C 0.12133 0.78673 0.69346 0.0
C1208 C 0.12188 0.77801 0.70861 0.0
C1209 C 0.10378 0.76762 0.71358 0.0
C1210 C 0.08554 0.76607 0.7037 0.0
C1211 C 0.14127 0.7793 0.71912 0.0
C1212 C 0.14582 0.76178 0.72311 0.0
C1213 C 0.15534 0.79749 0.72502 0.0
C1214 C 0.1508 0.81682 0.72282 0.0
C1215 C 0.13336 0.82283 0.72947 0.0
C1216 C 0.12911 0.84103 0.7273 0.0
C1217 C 0.14228 0.85342 0.71863 0.0
C1218 C 0.15976 0.84766 0.71215 0.0
C1219 C 0.16407 0.82947 0.71427 0.0
H1220 H 0.13897 0.8675 0.71697 0.0
H1221 H 0.1784 0.69351 0.74689 0.0
H1222 H 0.95669 0.62974 0.47559 0.0
H1223 H 0.97072 0.65802 0.50012 0.0
H1224 H 0.99765 0.61947 0.52715 0.0
H1225 H 0.98326 0.59115 0.50285 0.0
H1226 H 0.97621 0.63913 0.54904 0.0
H1227 H 0.02631 0.65679 0.50888 0.0
H1228 H 0.03908 0.66427 0.48047 0.0
H1229 H 0.00898 0.71353 0.48579 0.0
H1230 H 0.99579 0.70618 0.51411 0.0
H1231 H 0.02646 0.71513 0.62149 0.0
H1232 H 0.01938 0.68828 0.59474 0.0
H1233 H 0.9898 0.72447 0.56703 0.0
H1234 H 0.99709 0.75149 0.59356 0.0
H1235 H 0.01413 0.70608 0.54548 0.0
H1236 H 0.96255 0.68727 0.58435 0.0
H1237 H 0.94926 0.67978 0.6126 0.0
H1238 H 0.98188 0.6325 0.6093 0.0
H1239 H 0.99558 0.63988 0.58115 0.0
C1240 C 0.96609 0.62747 0.48653 0.0
C1241 C 0.96886 0.60831 0.48741 0.0
C1242 C 0.97409 0.64362 0.50055 0.0
C1243 C 0.98526 0.64088 0.51551 0.0
C1244 C 0.989 0.62192 0.51582 0.0
C1245 C 0.98085 0.60578 0.50193 0.0
C1246 C 0.99125 0.6572 0.53162 0.0
C1247 C 0.98485 0.65365 0.54829 0.0
C1248 C 0.00197 0.67634 0.53057 0.0
C1249 C 0.00991 0.68082 0.51355 0.0
C1250 C 0.02228 0.66912 0.50392 0.0
C1251 C 0.02962 0.67336 0.48785 0.0
C1252 C 0.02481 0.68934 0.48131 0.0
C1253 C 0.01268 0.70114 0.49086 0.0
C1254 C 0.00529 0.69696 0.50694 0.0
C1255 C 0.01838 0.71736 0.60974 0.0
C1256 C 0.01226 0.73544 0.60972 0.0
C1257 C 0.01433 0.70199 0.59446 0.0
C1258 C 0.00393 0.70432 0.57893 0.0
C1259 C 0.99789 0.72236 0.57885 0.0
C1260 C 0.00197 0.73776 0.59408 0.0
C1261 C 0.99916 0.6879 0.56282 0.0
C1262 C 0.00567 0.69147 0.54619 0.0
C1263 C 0.98851 0.66875 0.56384 0.0
C1264 C 0.98026 0.66427 0.58075 0.0
C1265 C 0.96701 0.67538 0.58973 0.0
C1266 C 0.95939 0.67114 0.60571 0.0
C1267 C 0.96477 0.65571 0.61277 0.0
C1268 C 0.97775 0.64446 0.60383 0.0
C1269 C 0.98544 0.64866 0.58786 0.0
H1270 H 0.95884 0.65245 0.62514 0.0
H1271 H 0.03051 0.69259 0.46886 0.0
H1272 H 0.82952 0.82708 0.22182 0.0
H1273 H 0.84327 0.86259 0.23026 0.0
H1274 H 0.79732 0.86947 0.26757 0.0
H1275 H 0.78284 0.83372 0.2586 0.0
H1276 H 0.80368 0.89952 0.24862 0.0
H1277 H 0.84392 0.86956 0.28343 0.0
H1278 H 0.86454 0.84566 0.28912 0.0
H1279 H 0.90796 0.86718 0.25407 0.0
H1280 H 0.88744 0.89102 0.24795 0.0
H1281 H 0.86195 0.99584 0.29385 0.0
H1282 H 0.84151 0.96212 0.28585 0.0
H1283 H 0.88157 0.94631 0.24503 0.0
H1284 H 0.90208 0.97985 0.25289 0.0
H1285 H 0.87645 0.92119 0.26883 0.0
H1286 H 0.83475 0.95031 0.23321 0.0
H1287 H 0.81396 0.97431 0.22818 0.0
H1288 H 0.77329 0.95483 0.26617 0.0
H1289 H 0.79401 0.93089 0.27162 0.0
C1290 C 0.82208 0.83612 0.23162 0.0
C1291 C 0.805 0.82755 0.23947 0.0
C1292 C 0.83011 0.85643 0.23657 0.0
C1293 C 0.82148 0.86863 0.24971 0.0
C1294 C 0.80424 0.86027 0.25744 0.0
C1295 C 0.79611 0.83985 0.25242 0.0
C1296 C 0.83089 0.89002 0.25542 0.0
C1297 C 0.8195 0.90432 0.25334 0.0
C1298 C 0.85158 0.89623 0.2614 0.0
C1299 C 0.86405 0.88198 0.26513 0.0
C1300 C 0.85779 0.8691 0.27683 0.0
C1301 C 0.86947 0.85558 0.28015 0.0
C1302 C 0.88753 0.85488 0.27194 0.0
C1303 C 0.89396 0.86773 0.26042 0.0
C1304 C 0.88232 0.88127 0.25703 0.0
C1305 C 0.86621 0.98531 0.28294 0.0
C1306 C 0.88377 0.99052 0.27412 0.0
C1307 C 0.85447 0.96605 0.27837 0.0
C1308 C 0.86009 0.95172 0.26491 0.0
C1309 C 0.87704 0.95715 0.25553 0.0
C1310 C 0.88871 0.97637 0.26001 0.0
C1311 C 0.84942 0.93066 0.26155 0.0
C1312 C 0.86059 0.91642 0.26421 0.0
C1313 C 0.82855 0.9246 0.25627 0.0
C1314 C 0.81606 0.93896 0.25297 0.0
C1315 C 0.82148 0.95127 0.24062 0.0
C1316 C 0.80968 0.96484 0.23767 0.0
C1317 C 0.79235 0.96614 0.2469 0.0
C1318 C 0.78674 0.95383 0.25906 0.0
C1319 C 0.7985 0.94025 0.26207 0.0
H1320 H 0.78323 0.97665 0.24459 0.0
H1321 H 0.89655 0.8444 0.27453 0.0
H1322 H 0.78834 0.20401 0.33848 0.0
H1323 H 0.80932 0.17913 0.33777 0.0
H1324 H 0.84827 0.20741 0.30259 0.0
H1325 H 0.82765 0.23259 0.30351 0.0
H1326 H 0.83761 0.16708 0.29058 0.0
H1327 H 0.86399 0.21266 0.3458 0.0
H1328 H 0.86216 0.23319 0.37581 0.0
H1329 H 0.83693 0.18085 0.39524 0.0
H1330 H 0.83833 0.16003 0.36525 0.0
H1331 H 0.91117 0.10774 0.2941 0.0
H1332 H 0.89524 0.13663 0.2966 0.0
H1333 H 0.85697 0.1151 0.33572 0.0
H1334 H 0.87314 0.08659 0.33366 0.0
H1335 H 0.86924 0.15377 0.34568 0.0
H1336 H 0.84023 0.10849 0.29068 0.0
H1337 H 0.8408 0.08738 0.26068 0.0
H1338 H 0.86954 0.13837 0.24093 0.0
H1339 H 0.86937 0.15975 0.2709 0.0
C1340 C 0.80151 0.20511 0.33078 0.0
C1341 C 0.80627 0.2203 0.32103 0.0
C1342 C 0.81346 0.19084 0.33036 0.0
C1343 C 0.83043 0.1915 0.32022 0.0
C1344 C 0.83521 0.20661 0.31046 0.0
C1345 C 0.82333 0.22092 0.31094 0.0
C1346 C 0.84288 0.17612 0.31942 0.0
C1347 C 0.84482 0.16437 0.3026 0.0
C1348 C 0.85188 0.17233 0.33514 0.0
C1349 C 0.8511 0.1848 0.35322 0.0
C1350 C 0.8579 0.20554 0.35643 0.0
C1351 C 0.85697 0.21723 0.37345 0.0
C1352 C 0.84939 0.20833 0.38741 0.0
C1353 C 0.84277 0.18773 0.3844 0.0
C1354 C 0.84365 0.17597 0.3674 0.0
C1355 C 0.89945 0.10925 0.30332 0.0
C1356 C 0.89335 0.09481 0.3136 0.0
C1357 C 0.8903 0.12572 0.30468 0.0
C1358 C 0.87467 0.1279 0.31615 0.0
C1359 C 0.86896 0.11376 0.32677 0.0
C1360 C 0.8782 0.09741 0.32553 0.0
C1361 C 0.86384 0.14456 0.31683 0.0
C1362 C 0.86218 0.15656 0.33364 0.0
C1363 C 0.85494 0.14848 0.30111 0.0
C1364 C 0.85499 0.13567 0.28307 0.0
C1365 C 0.84681 0.11517 0.27997 0.0
C1366 C 0.84703 0.10316 0.26297 0.0
C1367 C 0.85525 0.11152 0.24892 0.0
C1368 C 0.86321 0.13191 0.25184 0.0
C1369 C 0.86304 0.14398 0.26882 0.0
H1370 H 0.85541 0.10219 0.23577 0.0
H1371 H 0.84868 0.21741 0.40058 0.0
H1372 H 0.44513 0.03656 0.98866 0.0
H1373 H 0.42097 0.01114 0.99902 0.0
H1374 H 0.37556 0.01522 0.95939 0.0
H1375 H 0.39957 0.04084 0.94914 0.0
H1376 H 0.36262 0.01931 0.99358 0.0
H1377 H 0.39555 0.97455 0.95448 0.0
H1378 H 0.42467 0.96122 0.9426 0.0
H1379 H 0.43988 0.94979 0.99441 0.0
H1380 H 0.41098 0.96331 0.00667 0.0
H1381 H 0.28617 0.94022 0.00433 0.0
H1382 H 0.31229 0.96235 0.99265 0.0
H1383 H 0.35701 0.95236 0.02985 0.0
H1384 H 0.3309 0.92956 0.04131 0.0
H1385 H 0.37107 0.95147 0.99765 0.0
H1386 H 0.33874 0.99592 0.03704 0.0
H1387 H 0.30989 0.0093 0.04954 0.0
H1388 H 0.29432 0.02211 0.9984 0.0
H1389 H 0.32292 0.00855 0.98551 0.0
C1390 C 0.43008 0.0318 0.98199 0.0
C1391 C 0.42421 0.04068 0.96811 0.0
C1392 C 0.41633 0.01724 0.98787 0.0
C1393 C 0.39648 0.01132 0.97997 0.0
C1394 C 0.39081 0.01961 0.96566 0.0
C1395 C 0.40459 0.03409 0.9597 0.0
C1396 C 0.38126 0.99753 0.98746 0.0
C1397 C 0.3643 0.00436 0.99423 0.0
C1398 C 0.38387 0.97833 0.9889 0.0
C1399 C 0.40121 0.97012 0.98153 0.0
C1400 C 0.4052 0.96935 0.96338 0.0
C1401 C 0.42165 0.96173 0.95657 0.0
C1402 C 0.43415 0.95471 0.96776 0.0
C1403 C 0.43019 0.95525 0.98577 0.0
C1404 C 0.41377 0.96288 0.99265 0.0
C1405 C 0.30153 0.94277 0.01014 0.0
C1406 C 0.30642 0.93322 0.02386 0.0
C1407 C 0.31646 0.9555 0.00345 0.0
C1408 C 0.33656 0.95929 0.01057 0.0
C1409 C 0.34157 0.94969 0.0242 0.0
C1410 C 0.32663 0.93674 0.03078 0.0
C1411 C 0.35228 0.97316 0.0036 0.0
C1412 C 0.36938 0.96642 0.99702 0.0
C1413 C 0.3499 0.99255 0.00248 0.0
C1414 C 0.33289 0.00105 0.01027 0.0
C1415 C 0.3291 0.00149 0.02843 0.0
C1416 C 0.3128 0.00912 0.03559 0.0
C1417 C 0.30025 0.0165 0.02476 0.0
C1418 C 0.30404 0.01637 0.00677 0.0
C1419 C 0.32031 0.00873 0.99954 0.0
H1420 H 0.28761 0.02236 0.03031 0.0
H1421 H 0.44688 0.94881 0.96246 0.0
H1422 H 0.30027 0.41914 0.3303 0.0
H1423 H 0.27441 0.43132 0.31507 0.0
H1424 H 0.24415 0.37111 0.29218 0.0
H1425 H 0.26962 0.35863 0.30802 0.0
H1426 H 0.2491 0.40575 0.26872 0.0
H1427 H 0.22172 0.38392 0.32127 0.0
H1428 H 0.22407 0.38105 0.3531 0.0
H1429 H 0.23671 0.44466 0.36977 0.0
H1430 H 0.23477 0.4479 0.338 0.0
H1431 H 0.16288 0.44769 0.24955 0.0
H1432 H 0.18345 0.4245 0.25673 0.0
H1433 H 0.21358 0.46919 0.30204 0.0
H1434 H 0.19295 0.49201 0.29529 0.0
H1435 H 0.2042 0.43517 0.31175 0.0
H1436 H 0.23495 0.45784 0.26072 0.0
H1437 H 0.2353 0.46249 0.22935 0.0
H1438 H 0.21821 0.39933 0.20999 0.0
H1439 H 0.21753 0.39434 0.24127 0.0
C1440 C 0.2882 0.40843 0.32197 0.0
C1441 C 0.28683 0.3879 0.32066 0.0
C1442 C 0.27355 0.41544 0.31315 0.0
C1443 C 0.25738 0.4021 0.30263 0.0
C1444 C 0.25661 0.3816 0.30021 0.0
C1445 C 0.2712 0.37452 0.30924 0.0
C1446 C 0.2404 0.40991 0.29597 0.0
C1447 C 0.2389 0.41178 0.27795 0.0
C1448 C 0.22742 0.41802 0.30814 0.0
C1449 C 0.22826 0.41614 0.32726 0.0
C1450 C 0.22517 0.39729 0.33172 0.0
C1451 C 0.2264 0.3956 0.34975 0.0
C1452 C 0.23058 0.41267 0.36345 0.0
C1453 C 0.23349 0.43146 0.35915 0.0
C1454 C 0.2323 0.43323 0.34113 0.0
C1455 C 0.17387 0.45249 0.26106 0.0
C1456 C 0.17625 0.47168 0.27187 0.0
C1457 C 0.18567 0.43927 0.2651 0.0
C1458 C 0.20016 0.44512 0.27988 0.0
C1459 C 0.20245 0.46425 0.29064 0.0
C1460 C 0.19063 0.47734 0.28671 0.0
C1461 C 0.2131 0.43162 0.2845 0.0
C1462 C 0.21393 0.42871 0.30227 0.0
C1463 C 0.22552 0.42273 0.27208 0.0
C1464 C 0.22593 0.42574 0.25331 0.0
C1465 C 0.23111 0.44496 0.24976 0.0
C1466 C 0.2314 0.44766 0.23201 0.0
C1467 C 0.22671 0.43122 0.21768 0.0
C1468 C 0.22179 0.41205 0.22109 0.0
C1469 C 0.22145 0.40928 0.23883 0.0
H1470 H 0.22695 0.43334 0.20394 0.0
H1471 H 0.23154 0.41133 0.3774 0.0
H1472 H 0.13573 0.97353 0.42693 0.0
H1473 H 0.16615 0.9996 0.43588 0.0
H1474 H 0.15076 0.00759 0.49113 0.0
H1475 H 0.12046 0.9811 0.48222 0.0
H1476 H 0.15719 0.04287 0.47524 0.0
H1477 H 0.18944 0.98968 0.48352 0.0
H1478 H 0.19872 0.95696 0.47472 0.0
H1479 H 0.22849 0.97547 0.43009 0.0
H1480 H 0.21912 0.00822 0.43846 0.0
H1481 H 0.2439 0.11818 0.50614 0.0
H1482 H 0.21693 0.08877 0.50246 0.0
H1483 H 0.2371 0.0655 0.45078 0.0
H1484 H 0.26475 0.09449 0.45485 0.0
H1485 H 0.22837 0.037 0.46759 0.0
H1486 H 0.19406 0.08769 0.45602 0.0
H1487 H 0.18372 0.1201 0.46226 0.0
H1488 H 0.15663 0.10622 0.50968 0.0
H1489 H 0.16703 0.0738 0.50384 0.0
C1490 C 0.13914 0.98059 0.44103 0.0
C1491 C 0.12596 0.97541 0.45394 0.0
C1492 C 0.15645 0.9954 0.44612 0.0
C1493 C 0.16064 0.00542 0.46415 0.0
C1494 C 0.14775 0.99991 0.47717 0.0
C1495 C 0.13059 0.9848 0.47212 0.0
C1496 C 0.1775 0.02277 0.46895 0.0
C1497 C 0.17283 0.04164 0.47396 0.0
C1498 C 0.19771 0.02103 0.46658 0.0
C1499 C 0.20343 0.00136 0.46154 0.0
C1500 C 0.19781 0.98672 0.47173 0.0
C1501 C 0.20312 0.96818 0.46684 0.0
C1502 C 0.21415 0.96412 0.45183 0.0
C1503 C 0.21993 0.97863 0.44171 0.0
C1504 C 0.21465 0.99719 0.44654 0.0
C1505 C 0.24249 0.10686 0.49394 0.0
C1506 C 0.25633 0.10868 0.48071 0.0
C1507 C 0.22703 0.09006 0.49182 0.0
C1508 C 0.22475 0.07503 0.47621 0.0
C1509 C 0.23855 0.07688 0.46296 0.0
C1510 C 0.25427 0.09349 0.46524 0.0
C1511 C 0.20811 0.05729 0.47373 0.0
C1512 C 0.21279 0.03833 0.46909 0.0
C1513 C 0.1878 0.05894 0.47607 0.0
C1514 C 0.18152 0.07842 0.4796 0.0
C1515 C 0.18603 0.09161 0.46785 0.0
C1516 C 0.18014 0.10997 0.4713 0.0
C1517 C 0.16958 0.11524 0.48638 0.0
C1518 C 0.16484 0.10213 0.49802 0.0
C1519 C 0.17071 0.08376 0.49464 0.0
H1520 H 0.16503 0.12946 0.48903 0.0
H1521 H 0.21825 0.94976 0.44807 0.0
H1522 H 0.80488 0.17698 0.72352 0.0
H1523 H 0.77779 0.14771 0.72038 0.0
H1524 H 0.73863 0.18438 0.74676 0.0
H1525 H 0.76594 0.21355 0.75071 0.0
H1526 H 0.738 0.1541 0.76178 0.0
H1527 H 0.73061 0.1622 0.70128 0.0
H1528 H 0.74143 0.16689 0.67148 0.0
H1529 H 0.76109 0.11127 0.66296 0.0
H1530 H 0.75065 0.10637 0.69282 0.0
H1531 H 0.65487 0.06217 0.71888 0.0
H1532 H 0.67751 0.09295 0.71616 0.0
H1533 H 0.72016 0.08405 0.75581 0.0
H1534 H 0.69753 0.05342 0.75884 0.0
H1535 H 0.71547 0.10205 0.70654 0.0
H1536 H 0.741 0.12827 0.78261 0.0
H1537 H 0.72768 0.12486 0.81191 0.0
H1538 H 0.66708 0.11478 0.78823 0.0
H1539 H 0.68004 0.11841 0.75887 0.0
C1540 C 0.79044 0.17884 0.72853 0.0
C1541 C 0.78764 0.1976 0.73748 0.0
C1542 C 0.77489 0.16211 0.72656 0.0
C1543 C 0.75612 0.16384 0.73327 0.0
C1544 C 0.75298 0.18269 0.74148 0.0
C1545 C 0.76857 0.19941 0.74356 0.0
C1546 C 0.74044 0.1458 0.73318 0.0
C1547 C 0.73302 0.14279 0.74966 0.0
C1548 C 0.7337 0.13113 0.71735 0.0
C1549 C 0.73998 0.134 0.69936 0.0
C1550 C 0.73738 0.15104 0.69311 0.0
C1551 C 0.74342 0.15372 0.6762 0.0
C1552 C 0.75198 0.13941 0.66535 0.0
C1553 C 0.75447 0.12235 0.67139 0.0
C1554 C 0.74847 0.1196 0.68829 0.0
C1555 C 0.66909 0.06669 0.72697 0.0
C1556 C 0.67428 0.0554 0.7392 0.0
C1557 C 0.68206 0.08426 0.72535 0.0
C1558 C 0.70038 0.09092 0.73595 0.0
C1559 C 0.70593 0.07935 0.74772 0.0
C1560 C 0.69297 0.06181 0.74938 0.0
C1561 C 0.71347 0.11026 0.73518 0.0
C1562 C 0.72041 0.11346 0.71859 0.0
C1563 C 0.71945 0.12535 0.75083 0.0
C1564 C 0.71151 0.12343 0.76851 0.0
C1565 C 0.72484 0.12541 0.78368 0.0
C1566 C 0.71735 0.12343 0.80029 0.0
C1567 C 0.69655 0.11955 0.80192 0.0
C1568 C 0.68319 0.11772 0.78694 0.0
C1569 C 0.6906 0.11972 0.77031 0.0
H1570 H 0.69078 0.11799 0.81478 0.0
H1571 H 0.75664 0.14151 0.65226 0.0
H1572 H 0.39068 0.98682 0.54089 0.0
H1573 H 0.37791 0.01627 0.5374 0.0
H1574 H 0.43571 0.05337 0.55813 0.0
H1575 H 0.44897 0.02393 0.56063 0.0
H1576 H 0.3725 0.05045 0.55637 0.0
H1577 H 0.44741 0.08869 0.5334 0.0
H1578 H 0.4784 0.07995 0.52083 0.0
H1579 H 0.44557 0.02121 0.49692 0.0
H1580 H 0.41437 0.02969 0.50914 0.0
H1581 H 0.35144 0.13768 0.53163 0.0
H1582 H 0.36966 0.11716 0.54614 0.0
H1583 H 0.37864 0.08384 0.49392 0.0
H1584 H 0.36111 0.10452 0.47942 0.0
H1585 H 0.41063 0.08815 0.51517 0.0
H1586 H 0.33879 0.06808 0.51908 0.0
H1587 H 0.30515 0.07317 0.52783 0.0
H1588 H 0.3274 0.08967 0.58352 0.0
H1589 H 0.36125 0.0849 0.57506 0.0
C1590 C 0.40066 0.00125 0.5448 0.0
C1591 C 0.42099 0.00293 0.55065 0.0
C1592 C 0.39326 0.01812 0.54301 0.0
C1593 C 0.40598 0.03699 0.54714 0.0
C1594 C 0.42573 0.03891 0.55454 0.0
C1595 C 0.43323 0.02204 0.55614 0.0
C1596 C 0.39923 0.05414 0.54182 0.0
C1597 C 0.38096 0.05886 0.54755 0.0
C1598 C 0.41006 0.06492 0.53004 0.0
C1599 C 0.42865 0.05976 0.52238 0.0
C1600 C 0.44682 0.07393 0.52542 0.0
C1601 C 0.46441 0.06903 0.51836 0.0
C1602 C 0.46397 0.05001 0.50815 0.0
C1603 C 0.44591 0.0359 0.50489 0.0
C1604 C 0.42828 0.04075 0.51188 0.0
C1605 C 0.35766 0.12622 0.52326 0.0
C1606 C 0.35468 0.12261 0.50437 0.0
C1607 C 0.36795 0.11444 0.53157 0.0
C1608 C 0.37521 0.09872 0.52113 0.0
C1609 C 0.37318 0.09585 0.50228 0.0
C1610 C 0.36307 0.10768 0.49399 0.0
C1611 C 0.38376 0.08434 0.52953 0.0
C1612 C 0.4024 0.08011 0.52437 0.0
C1613 C 0.37291 0.07358 0.54132 0.0
C1614 C 0.35258 0.07637 0.54643 0.0
C1615 C 0.33653 0.07293 0.53318 0.0
C1616 C 0.31743 0.07574 0.53809 0.0
C1617 C 0.31416 0.08181 0.55622 0.0
C1618 C 0.32997 0.08502 0.56948 0.0
C1619 C 0.34911 0.08226 0.56464 0.0
H1620 H 0.29936 0.08397 0.55999 0.0
H1621 H 0.47761 0.04624 0.50272 0.0
H1622 H 0.62308 0.5497 0.6238 0.0
H1623 H 0.63975 0.52186 0.61425 0.0
H1624 H 0.6316 0.52706 0.55891 0.0
H1625 H 0.61433 0.5547 0.56835 0.0
H1626 H 0.62306 0.48828 0.56247 0.0
H1627 H 0.67672 0.54516 0.58202 0.0
H1628 H 0.69563 0.575 0.60306 0.0
H1629 H 0.70453 0.53963 0.64175 0.0
H1630 H 0.68541 0.50959 0.62102 0.0
H1631 H 0.6971 0.43718 0.52432 0.0
H1632 H 0.6758 0.4607 0.53516 0.0
H1633 H 0.68632 0.45289 0.58942 0.0
H1634 H 0.70791 0.4293 0.57864 0.0
H1635 H 0.69266 0.49191 0.58755 0.0
H1636 H 0.64042 0.43453 0.567 0.0
H1637 H 0.62177 0.40485 0.54561 0.0
H1638 H 0.61049 0.44116 0.50844 0.0
H1639 H 0.62932 0.47105 0.5295 0.0
C1640 C 0.62457 0.54478 0.60956 0.0
C1641 C 0.61732 0.5544 0.59682 0.0
C1642 C 0.63428 0.52897 0.60415 0.0
C1643 C 0.6371 0.52251 0.58589 0.0
C1644 C 0.62962 0.53185 0.57308 0.0
C1645 C 0.6199 0.54772 0.5785 0.0
C1646 C 0.64812 0.5062 0.58025 0.0
C1647 C 0.63836 0.48915 0.56778 0.0
C1648 C 0.6679 0.50714 0.58757 0.0
C1649 C 0.67945 0.52516 0.60004 0.0
C1650 C 0.68256 0.54377 0.59507 0.0
C1651 C 0.69334 0.56071 0.60693 0.0
C1652 C 0.70123 0.55922 0.62375 0.0
C1653 C 0.69839 0.54076 0.62873 0.0
C1654 C 0.68759 0.52377 0.61692 0.0
C1655 C 0.6947 0.44023 0.53854 0.0
C1656 C 0.70423 0.43138 0.55063 0.0
C1657 C 0.68243 0.45364 0.54471 0.0
C1658 C 0.67935 0.45847 0.56309 0.0
C1659 C 0.68847 0.44934 0.57517 0.0
C1660 C 0.70072 0.4358 0.56898 0.0
C1661 C 0.66764 0.47398 0.5697 0.0
C1662 C 0.6773 0.49094 0.58233 0.0
C1663 C 0.6478 0.47296 0.56249 0.0
C1664 C 0.63644 0.45502 0.54978 0.0
C1665 C 0.63411 0.43617 0.55421 0.0
C1666 C 0.62347 0.41931 0.54215 0.0
C1667 C 0.61499 0.42111 0.52566 0.0
C1668 C 0.61708 0.43979 0.52121 0.0
C1669 C 0.62771 0.4567 0.53322 0.0
H1670 H 0.60676 0.40804 0.51634 0.0
H1671 H 0.70958 0.57235 0.63291 0.0
H1672 H 0.75685 0.23966 0.36382 0.0
H1673 H 0.74736 0.25542 0.39316 0.0
H1674 H 0.76506 0.31305 0.3798 0.0
H1675 H 0.77495 0.29746 0.35067 0.0
H1676 H 0.78127 0.31234 0.41249 0.0
H1677 H 0.71581 0.2927 0.3805 0.0
H1678 H 0.68721 0.26931 0.36209 0.0
H1679 H 0.6797 0.23482 0.40319 0.0
H1680 H 0.70845 0.25786 0.42175 0.0
H1681 H 0.71997 0.35981 0.48292 0.0
H1682 H 0.71981 0.33932 0.45279 0.0
H1683 H 0.76211 0.30858 0.47309 0.0
H1684 H 0.76231 0.32876 0.50319 0.0
H1685 H 0.71414 0.29668 0.43647 0.0
H1686 H 0.80069 0.31228 0.44487 0.0
H1687 H 0.82873 0.33679 0.46306 0.0
H1688 H 0.79292 0.38166 0.46766 0.0
H1689 H 0.76482 0.35751 0.44925 0.0
C1690 C 0.75866 0.25568 0.36714 0.0
C1691 C 0.76665 0.26732 0.35493 0.0
C1692 C 0.75307 0.26465 0.38383 0.0
C1693 C 0.75539 0.2854 0.38862 0.0
C1694 C 0.7631 0.29701 0.37635 0.0
C1695 C 0.7686 0.28807 0.35966 0.0
C1696 C 0.75092 0.29516 0.40678 0.0
C1697 C 0.76658 0.30889 0.41767 0.0
C1698 C 0.73172 0.29075 0.41356 0.0
C1699 C 0.71441 0.27691 0.40244 0.0
C1700 C 0.70817 0.28004 0.38555 0.0
C1701 C 0.69191 0.26686 0.3751 0.0
C1702 C 0.68168 0.25056 0.38144 0.0
C1703 C 0.68766 0.24744 0.39828 0.0
C1704 C 0.70392 0.26056 0.40878 0.0
C1705 C 0.72881 0.34832 0.4811 0.0
C1706 C 0.7414 0.34616 0.49543 0.0
C1707 C 0.72864 0.33659 0.46388 0.0
C1708 C 0.74116 0.32267 0.46073 0.0
C1709 C 0.75246 0.31937 0.47526 0.0
C1710 C 0.75254 0.33096 0.49247 0.0
C1711 C 0.74456 0.31357 0.44208 0.0
C1712 C 0.72879 0.30001 0.43119 0.0
C1713 C 0.76361 0.31824 0.43516 0.0
C1714 C 0.7806 0.33302 0.44586 0.0
C1715 C 0.79885 0.3274 0.4497 0.0
C1716 C 0.81475 0.34123 0.46005 0.0
C1717 C 0.81258 0.36075 0.46656 0.0
C1718 C 0.79455 0.36651 0.46266 0.0
C1719 C 0.77863 0.35276 0.45229 0.0
H1720 H 0.82489 0.37142 0.4746 0.0
H1721 H 0.66909 0.24038 0.37334 0.0
H1722 H 0.5027 0.06623 0.90426 0.0
H1723 H 0.52603 0.05159 0.88459 0.0
H1724 H 0.48362 0.04359 0.8387 0.0
H1725 H 0.45987 0.05759 0.8584 0.0
H1726 H 0.50158 0.012 0.83663 0.0
H1727 H 0.52256 0.08309 0.84793 0.0
H1728 H 0.5327 0.11687 0.86667 0.0
H1729 H 0.58356 0.10028 0.89061 0.0
H1730 H 0.57354 0.06629 0.87218 0.0
H1731 H 0.56687 0.01088 0.76538 0.0
H1732 H 0.54281 0.01789 0.78774 0.0
H1733 H 0.58805 0.02165 0.83041 0.0
H1734 H 0.61232 0.01464 0.80809 0.0
H1735 H 0.56945 0.05367 0.8356 0.0
H1736 H 0.54946 0.98282 0.82164 0.0
H1737 H 0.53909 0.9496 0.80195 0.0
H1738 H 0.48619 0.96626 0.78185 0.0
H1739 H 0.49639 0.99969 0.80125 0.0
C1740 C 0.49814 0.06099 0.89004 0.0
C1741 C 0.47946 0.06319 0.88288 0.0
C1742 C 0.51158 0.05279 0.87879 0.0
C1743 C 0.50669 0.04677 0.86015 0.0
C1744 C 0.48774 0.04821 0.85304 0.0
C1745 C 0.47427 0.05638 0.86429 0.0
C1746 C 0.52166 0.03986 0.84794 0.0
C1747 C 0.51636 0.02116 0.83629 0.0
C1748 C 0.54109 0.05167 0.84775 0.0
C1749 C 0.54717 0.07209 0.85883 0.0
C1750 C 0.53581 0.0866 0.8573 0.0
C1751 C 0.54155 0.10579 0.86785 0.0
C1752 C 0.55873 0.1107 0.87986 0.0
C1753 C 0.57024 0.09644 0.88132 0.0
C1754 C 0.56454 0.07722 0.87082 0.0
C1755 C 0.57169 0.01301 0.7795 0.0
C1756 C 0.59156 0.01225 0.78494 0.0
C1757 C 0.55787 0.01692 0.79227 0.0
C1758 C 0.56361 0.02016 0.81072 0.0
C1759 C 0.58332 0.01913 0.81622 0.0
C1760 C 0.59714 0.01508 0.80344 0.0
C1761 C 0.54936 0.02583 0.82423 0.0
C1762 C 0.55477 0.04438 0.83608 0.0
C1763 C 0.53 0.01394 0.82447 0.0
C1764 C 0.52379 0.99383 0.8128 0.0
C1765 C 0.5357 0.97946 0.81292 0.0
C1766 C 0.52984 0.96058 0.80183 0.0
C1767 C 0.51202 0.95583 0.79062 0.0
C1768 C 0.5 0.96996 0.79052 0.0
C1769 C 0.50581 0.98887 0.80158 0.0
H1770 H 0.5075 0.9412 0.78205 0.0
H1771 H 0.56316 0.12557 0.88801 0.0
H1772 H 0.36064 0.28533 0.34718 0.0
H1773 H 0.35747 0.26278 0.36817 0.0
H1774 H 0.29671 0.27079 0.37645 0.0
H1775 H 0.29934 0.2927 0.35488 0.0
H1776 H 0.32267 0.27737 0.40867 0.0
H1777 H 0.30202 0.22872 0.35342 0.0
H1778 H 0.30593 0.21186 0.32242 0.0
H1779 H 0.36023 0.19599 0.34044 0.0
H1780 H 0.3568 0.21302 0.37153 0.0
H1781 H 0.28978 0.20606 0.46044 0.0
H1782 H 0.29387 0.22655 0.43782 0.0
H1783 H 0.34831 0.20603 0.42294 0.0
H1784 H 0.34385 0.18482 0.44516 0.0
H1785 H 0.3271 0.20619 0.39393 0.0
H1786 H 0.34898 0.25377 0.44844 0.0
H1787 H 0.34728 0.27143 0.47964 0.0
H1788 H 0.2941 0.29062 0.46365 0.0
H1789 H 0.29533 0.27284 0.43239 0.0
C1790 C 0.3464 0.28195 0.35308 0.0
C1791 C 0.33024 0.29092 0.34931 0.0
C1792 C 0.34469 0.26915 0.36518 0.0
C1793 C 0.32688 0.26518 0.37385 0.0
C1794 C 0.31062 0.27379 0.36994 0.0
C1795 C 0.31221 0.28638 0.35768 0.0
C1796 C 0.32551 0.25277 0.38761 0.0
C1797 C 0.32336 0.26173 0.40545 0.0
C1798 C 0.32722 0.23261 0.38345 0.0
C1799 C 0.32927 0.22234 0.36477 0.0
C1800 C 0.3149 0.2218 0.35075 0.0
C1801 C 0.31701 0.21218 0.33316 0.0
C1802 C 0.33335 0.20291 0.32945 0.0
C1803 C 0.3476 0.2032 0.34333 0.0
C1804 C 0.34557 0.21283 0.36094 0.0
C1805 C 0.30272 0.20599 0.45245 0.0
C1806 C 0.31655 0.19387 0.45466 0.0
C1807 C 0.30508 0.21779 0.43955 0.0
C1808 C 0.32159 0.21812 0.42885 0.0
C1809 C 0.33547 0.20606 0.43105 0.0
C1810 C 0.33295 0.194 0.4438 0.0
C1811 C 0.32403 0.2307 0.4151 0.0
C1812 C 0.32645 0.22183 0.39725 0.0
C1813 C 0.32293 0.25107 0.41931 0.0
C1814 C 0.32215 0.26182 0.4381 0.0
C1815 C 0.33684 0.26163 0.4516 0.0
C1816 C 0.33597 0.27169 0.4693 0.0
C1817 C 0.32057 0.2821 0.47364 0.0
C1818 C 0.30602 0.28253 0.46028 0.0
C1819 C 0.3068 0.27248 0.44256 0.0
H1820 H 0.31992 0.28988 0.48734 0.0
H1821 H 0.33495 0.19546 0.31583 0.0
H1822 H 0.53198 0.46998 0.95054 0.0
H1823 H 0.51048 0.48506 0.93296 0.0
H1824 H 0.56126 0.50476 0.90358 0.0
H1825 H 0.58278 0.49033 0.92148 0.0
H1826 H 0.5423 0.53338 0.912 0.0
H1827 H 0.52207 0.46368 0.88568 0.0
H1828 H 0.50953 0.42819 0.88554 0.0
H1829 H 0.45438 0.44131 0.90626 0.0
H1830 H 0.46672 0.47694 0.90674 0.0
H1831 H 0.49284 0.54456 0.83119 0.0
H1832 H 0.51229 0.53516 0.85468 0.0
H1833 H 0.4602 0.52955 0.88576 0.0
H1834 H 0.44065 0.53916 0.86241 0.0
H1835 H 0.47768 0.49551 0.8791 0.0
H1836 H 0.49808 0.56574 0.90159 0.0
H1837 H 0.51149 0.60052 0.89972 0.0
H1838 H 0.56761 0.58534 0.88364 0.0
H1839 H 0.55443 0.55039 0.88515 0.0
C1840 C 0.53842 0.47741 0.94022 0.0
C1841 C 0.55898 0.47903 0.93734 0.0
C1842 C 0.52617 0.48601 0.93018 0.0
C1843 C 0.53421 0.49595 0.91683 0.0
C1844 C 0.55472 0.49731 0.91385 0.0
C1845 C 0.56699 0.489 0.92404 0.0
C1846 C 0.52144 0.50511 0.90597 0.0
C1847 C 0.52826 0.52502 0.90469 0.0
C1848 C 0.50286 0.4944 0.89674 0.0
C1849 C 0.49541 0.473 0.89645 0.0
C1850 C 0.50734 0.45902 0.89034 0.0
C1851 C 0.50025 0.43887 0.89018 0.0
C1852 C 0.4812 0.43251 0.89594 0.0
C1853 C 0.46916 0.44627 0.90183 0.0
C1854 C 0.47618 0.46644 0.90205 0.0
C1855 C 0.48562 0.54171 0.84318 0.0
C1856 C 0.46518 0.54254 0.8449 0.0
C1857 C 0.49677 0.53638 0.8566 0.0
C1858 C 0.48765 0.53165 0.87192 0.0
C1859 C 0.46748 0.53316 0.87402 0.0
C1860 C 0.45638 0.53875 0.8607 0.0
C1861 C 0.49875 0.52358 0.88494 0.0
C1862 C 0.49162 0.5039 0.8866 0.0
C1863 C 0.5172 0.53437 0.89424 0.0
C1864 C 0.52519 0.55539 0.89334 0.0
C1865 C 0.51321 0.56977 0.8975 0.0
C1866 C 0.52079 0.58953 0.89653 0.0
C1867 C 0.54037 0.59513 0.89152 0.0
C1868 C 0.55243 0.58098 0.8875 0.0
C1869 C 0.54492 0.5612 0.88843 0.0
H1870 H 0.54621 0.61043 0.89079 0.0
H1871 H 0.47574 0.41691 0.8958 0.0
H1872 H 0.77615 0.78492 0.18051 0.0
H1873 H 0.77919 0.76941 0.14915 0.0
H1874 H 0.8107 0.72787 0.16708 0.0
H1875 H 0.80791 0.74346 0.19849 0.0
H1876 H 0.82953 0.74505 0.14038 0.0
H1877 H 0.76316 0.71229 0.1509 0.0
H1878 H 0.72852 0.71068 0.16033 0.0
H1879 H 0.71514 0.74259 0.12005 0.0
H1880 H 0.74981 0.74465 0.11055 0.0
H1881 H 0.82518 0.67918 0.05521 0.0
H1882 H 0.82334 0.69437 0.08684 0.0
H1883 H 0.78494 0.73152 0.07083 0.0
H1884 H 0.78623 0.716 0.03929 0.0
H1885 H 0.76977 0.71606 0.09703 0.0
H1886 H 0.83547 0.74983 0.08664 0.0
H1887 H 0.8702 0.75276 0.0772 0.0
H1888 H 0.88507 0.72075 0.1169 0.0
H1889 H 0.85033 0.71739 0.12642 0.0
C1890 C 0.78371 0.77247 0.17775 0.0
C1891 C 0.79174 0.76535 0.19192 0.0
C1892 C 0.78535 0.76358 0.15986 0.0
C1893 C 0.79507 0.74744 0.15583 0.0
C1894 C 0.80311 0.74029 0.16994 0.0
C1895 C 0.80135 0.74909 0.18784 0.0
C1896 C 0.79708 0.7382 0.13686 0.0
C1897 C 0.81649 0.73845 0.13092 0.0
C1898 C 0.78004 0.73009 0.12449 0.0
C1899 C 0.75915 0.72878 0.13013 0.0
C1900 C 0.75289 0.71911 0.14415 0.0
C1901 C 0.73323 0.71809 0.14949 0.0
C1902 C 0.71965 0.72657 0.14083 0.0
C1903 C 0.72568 0.73605 0.12677 0.0
C1904 C 0.74533 0.73713 0.12139 0.0
C1905 C 0.81651 0.69072 0.05844 0.0
C1906 C 0.80583 0.69638 0.04477 0.0
C1907 C 0.81552 0.69944 0.07652 0.0
C1908 C 0.80412 0.71421 0.08123 0.0
C1909 C 0.79377 0.72012 0.06754 0.0
C1910 C 0.79458 0.71127 0.04951 0.0
C1911 C 0.80228 0.723 0.1004 0.0
C1912 C 0.78287 0.72264 0.10643 0.0
C1913 C 0.81933 0.73118 0.1128 0.0
C1914 C 0.84024 0.73318 0.10711 0.0
C1915 C 0.8461 0.74327 0.09326 0.0
C1916 C 0.86579 0.74504 0.08791 0.0
C1917 C 0.87981 0.7369 0.09641 0.0
C1918 C 0.87418 0.72702 0.11031 0.0
C1919 C 0.8545 0.7252 0.1157 0.0
H1920 H 0.89506 0.73828 0.09226 0.0
H1921 H 0.70444 0.72577 0.14498 0.0
H1922 H 0.08224 0.1193 0.15025 0.0
H1923 H 0.05738 0.11596 0.17252 0.0
H1924 H 0.03958 0.05318 0.14976 0.0
H1925 H 0.06341 0.05663 0.12673 0.0
H1926 H 0.00762 0.06713 0.15785 0.0
H1927 H 0.07242 0.07301 0.18915 0.0
H1928 H 0.10762 0.08896 0.19998 0.0
H1929 H 0.08785 0.14031 0.22858 0.0
H1930 H 0.05254 0.12475 0.21773 0.0
H1931 H 0.97098 0.02583 0.23079 0.0
H1932 H 0.99121 0.03697 0.20739 0.0
H1933 H 0.9898 0.0979 0.23092 0.0
H1934 H 0.96912 0.08677 0.25441 0.0
H1935 H 0.02952 0.08958 0.22293 0.0
H1936 H 0.96348 0.08021 0.19398 0.0
H1937 H 0.92874 0.06221 0.18373 0.0
H1938 H 0.95156 0.01507 0.15115 0.0
H1939 H 0.98645 0.03265 0.16142 0.0
C1940 C 0.07281 0.10483 0.14975 0.0
C1941 C 0.07497 0.08821 0.13668 0.0
C1942 C 0.05875 0.1029 0.16268 0.0
C1943 C 0.04681 0.08425 0.16305 0.0
C1944 C 0.04866 0.06773 0.14983 0.0
C1945 C 0.06251 0.06969 0.13678 0.0
C1946 C 0.03256 0.08174 0.1773 0.0
C1947 C 0.01248 0.07195 0.17207 0.0
C1948 C 0.03868 0.08847 0.1959 0.0
C1949 C 0.05988 0.09782 0.20246 0.0
C1950 C 0.0756 0.08777 0.19764 0.0
C1951 C 0.09557 0.09673 0.2038 0.0
C1952 C 0.09997 0.11567 0.21491 0.0
C1953 C 0.08442 0.12566 0.21994 0.0
C1954 C 0.06443 0.11678 0.2138 0.0
C1955 C 0.97484 0.04161 0.23096 0.0
C1956 C 0.96846 0.05544 0.24444 0.0
C1957 C 0.98635 0.04794 0.21754 0.0
C1958 C 0.9919 0.06823 0.21739 0.0
C1959 C 0.9856 0.08215 0.23081 0.0
C1960 C 0.97375 0.07578 0.24414 0.0
C1961 C 0.00484 0.07463 0.20342 0.0
C1962 C 0.02464 0.0851 0.2087 0.0
C1963 C 0.99856 0.06828 0.18488 0.0
C1964 C 0.97759 0.0577 0.17858 0.0
C1965 C 0.9611 0.06593 0.18474 0.0
C1966 C 0.94137 0.05582 0.17891 0.0
C1967 C 0.93794 0.03749 0.16682 0.0
C1968 C 0.95424 0.02926 0.16052 0.0
C1969 C 0.97399 0.03931 0.16632 0.0
H1970 H 0.92266 0.02968 0.16232 0.0
H1971 H 0.11544 0.12258 0.21967 0.0
H1972 H 0.32484 0.83863 0.22982 0.0
H1973 H 0.31778 0.85302 0.20419 0.0
H1974 H 0.28139 0.79667 0.17703 0.0
H1975 H 0.2873 0.78248 0.20319 0.0
H1976 H 0.32703 0.84621 0.17178 0.0
H1977 H 0.24513 0.80327 0.14831 0.0
H1978 H 0.21456 0.7886 0.16153 0.0
H1979 H 0.23408 0.82893 0.21214 0.0
H1980 H 0.26461 0.84401 0.19916 0.0
H1981 H 0.30392 0.85201 0.08254 0.0
H1982 H 0.30816 0.84091 0.11063 0.0
H1983 H 0.26499 0.87454 0.13398 0.0
H1984 H 0.26022 0.88533 0.10556 0.0
H1985 H 0.25846 0.83966 0.143 0.0
H1986 H 0.31619 0.8911 0.14515 0.0
H1987 H 0.34645 0.90957 0.13427 0.0
H1988 H 0.37464 0.85916 0.13067 0.0
H1989 H 0.34443 0.84028 0.1413 0.0
C1990 C 0.31498 0.82935 0.21859 0.0
C1991 C 0.3065 0.80939 0.21873 0.0
C1992 C 0.31115 0.83757 0.20381 0.0
C1993 C 0.29887 0.82604 0.1887 0.0
C1994 C 0.29061 0.80602 0.18864 0.0
C1995 C 0.29424 0.79783 0.20354 0.0
C1996 C 0.29528 0.83488 0.17288 0.0
C1997 C 0.31201 0.84478 0.16553 0.0
C1998 C 0.27567 0.83348 0.1649 0.0
C1999 C 0.25725 0.82463 0.17279 0.0
C2000 C 0.24286 0.80905 0.16223 0.0
C2001 C 0.22554 0.80066 0.16969 0.0
C2002 C 0.22241 0.80778 0.18768 0.0
C2003 C 0.23656 0.82337 0.19823 0.0
C2004 C 0.25388 0.83183 0.19084 0.0
C2005 C 0.29534 0.85712 0.09364 0.0
C2006 C 0.28181 0.86966 0.09184 0.0
C2007 C 0.29785 0.85081 0.10975 0.0
C2008 C 0.28715 0.85713 0.12455 0.0
C2009 C 0.27346 0.86951 0.12276 0.0
C2010 C 0.2708 0.87572 0.10654 0.0
C2011 C 0.29024 0.85062 0.14177 0.0
C2012 C 0.27344 0.84114 0.14933 0.0
C2013 C 0.30975 0.85293 0.15029 0.0
C2014 C 0.32797 0.86422 0.14388 0.0
C2015 C 0.32878 0.8839 0.14191 0.0
C2016 C 0.34594 0.89445 0.13581 0.0
C2017 C 0.36244 0.88553 0.13175 0.0
C2018 C 0.36184 0.86604 0.13381 0.0
C2019 C 0.34471 0.85542 0.13989 0.0
H2020 H 0.37571 0.89372 0.12703 0.0
H2021 H 0.20901 0.80125 0.19343 0.0
H2022 H 0.96026 0.43304 0.07533 0.0
H2023 H 0.9883 0.43297 0.09653 0.0
H2024 H 0.00977 0.49568 0.09939 0.0
H2025 H 0.98231 0.4957 0.07768 0.0
H2026 H 0.04061 0.47675 0.09829 0.0
H2027 H 0.98065 0.47807 0.1314 0.0
H2028 H 0.94577 0.46513 0.13793 0.0
H2029 H 0.96231 0.4109 0.14541 0.0
H2030 H 0.99725 0.42345 0.13869 0.0
H2031 H 0.0867 0.52163 0.18365 0.0
H2032 H 0.06487 0.50873 0.15603 0.0
H2033 H 0.06272 0.44879 0.16312 0.0
H2034 H 0.08502 0.46171 0.19097 0.0
H2035 H 0.02435 0.45823 0.15671 0.0
H2036 H 0.08652 0.46095 0.12961 0.0
H2037 H 0.12136 0.47535 0.12416 0.0
H2038 H 0.10085 0.5231 0.10614 0.0
H2039 H 0.06592 0.50916 0.11174 0.0
C2040 C 0.97115 0.44675 0.08026 0.0
C2041 C 0.96895 0.46443 0.07494 0.0
C2042 C 0.98707 0.44671 0.09248 0.0
C2043 C 0.00098 0.46437 0.09971 0.0
C2044 C 0.99918 0.48188 0.094 0.0
C2045 C 0.98334 0.48192 0.08175 0.0
C2046 C 0.01697 0.46501 0.11381 0.0
C2047 C 0.03707 0.47271 0.11107 0.0
C2048 C 0.01243 0.45909 0.13026 0.0
C2049 C 0.99147 0.45158 0.13432 0.0
C2050 C 0.9768 0.46332 0.1343 0.0
C2051 C 0.95703 0.45607 0.13806 0.0
C2052 C 0.95181 0.43718 0.14202 0.0
C2053 C 0.96636 0.42551 0.14229 0.0
C2054 C 0.98614 0.43269 0.13851 0.0
C2055 C 0.08177 0.50568 0.17929 0.0
C2056 C 0.0875 0.49267 0.18949 0.0
C2057 C 0.06938 0.49833 0.16344 0.0
C2058 C 0.06233 0.47782 0.15747 0.0
C2059 C 0.06814 0.46468 0.16748 0.0
C2060 C 0.08087 0.47205 0.18332 0.0
C2061 C 0.04784 0.47063 0.1414 0.0
C2062 C 0.028 0.46173 0.14375 0.0
C2063 C 0.05259 0.47557 0.12465 0.0
C2064 C 0.07358 0.48403 0.12118 0.0
C2065 C 0.08945 0.4746 0.12461 0.0
C2066 C 0.10922 0.48267 0.12147 0.0
C2067 C 0.11331 0.50014 0.11483 0.0
C2068 C 0.09764 0.50956 0.11128 0.0
C2069 C 0.07785 0.50156 0.1144 0.0
H2070 H 0.12863 0.50637 0.11241 0.0
H2071 H 0.9365 0.43159 0.14493 0.0
H2072 H 0.34228 0.70163 0.27337 0.0
H2073 H 0.37203 0.69471 0.28782 0.0
H2074 H 0.40999 0.74044 0.26666 0.0
H2075 H 0.38021 0.74683 0.25133 0.0
H2076 H 0.42696 0.70832 0.26462 0.0
H2077 H 0.39725 0.7492 0.31008 0.0
H2078 H 0.36993 0.75893 0.32821 0.0
H2079 H 0.36269 0.70482 0.34798 0.0
H2080 H 0.38979 0.69463 0.32976 0.0
H2081 H 0.51133 0.72988 0.32961 0.0
H2082 H 0.48299 0.72845 0.30833 0.0
H2083 H 0.44767 0.68106 0.32937 0.0
H2084 H 0.47594 0.68249 0.35086 0.0
H2085 H 0.42908 0.7121 0.33061 0.0
H2086 H 0.46129 0.67269 0.28636 0.0
H2087 H 0.48925 0.66413 0.26854 0.0
H2088 H 0.49285 0.71687 0.247 0.0
H2089 H 0.46509 0.7259 0.2649 0.0
C2090 C 0.35696 0.71 0.27147 0.0
C2091 C 0.35884 0.72477 0.26112 0.0
C2092 C 0.37396 0.70616 0.27993 0.0
C2093 C 0.39322 0.71722 0.27852 0.0
C2094 C 0.39525 0.73174 0.26796 0.0
C2095 C 0.37821 0.73552 0.25936 0.0
C2096 C 0.41109 0.714 0.28857 0.0
C2097 C 0.42755 0.70935 0.27908 0.0
C2098 C 0.41166 0.71493 0.30738 0.0
C2099 C 0.39541 0.72106 0.31841 0.0
C2100 C 0.38972 0.7393 0.31818 0.0
C2101 C 0.37429 0.74491 0.32849 0.0
C2102 C 0.36454 0.73247 0.3392 0.0
C2103 C 0.37024 0.71442 0.33966 0.0
C2104 C 0.38564 0.70873 0.32935 0.0
C2105 C 0.49772 0.7188 0.32944 0.0
C2106 C 0.49584 0.70644 0.34209 0.0
C2107 C 0.48153 0.71795 0.31719 0.0
C2108 C 0.46319 0.70468 0.31729 0.0
C2109 C 0.46169 0.69145 0.3291 0.0
C2110 C 0.47791 0.69222 0.34133 0.0
C2111 C 0.44499 0.70633 0.30669 0.0
C2112 C 0.42846 0.71084 0.31612 0.0
C2113 C 0.44449 0.70544 0.28789 0.0
C2114 C 0.46121 0.70006 0.27711 0.0
C2115 C 0.46815 0.68256 0.27795 0.0
C2116 C 0.48395 0.6776 0.2678 0.0
C2117 C 0.49285 0.68997 0.25668 0.0
C2118 C 0.48595 0.70731 0.25564 0.0
C2119 C 0.47017 0.71234 0.26577 0.0
H2120 H 0.50508 0.68611 0.24883 0.0
H2121 H 0.3526 0.73684 0.34717 0.0
H2122 H 0.96288 0.39974 0.01 0.0
H2123 H 0.98082 0.37277 0.0005 0.0
H2124 H 0.92479 0.33364 0.9777 0.0
H2125 H 0.90667 0.36068 0.98711 0.0
H2126 H 0.95507 0.31604 0.99664 0.0
H2127 H 0.94746 0.35398 0.95029 0.0
H2128 H 0.95037 0.38532 0.9395 0.0
H2129 H 0.01422 0.39912 0.95362 0.0
H2130 H 0.01161 0.36799 0.96478 0.0
H2131 H 0.98496 0.24462 0.92913 0.0
H2132 H 0.96984 0.26902 0.94852 0.0
H2133 H 0.02564 0.3122 0.95338 0.0
H2134 H 0.04054 0.28803 0.93319 0.0
H2135 H 0.99706 0.3286 0.94625 0.0
H2136 H 0.00655 0.28976 0.98952 0.0
H2137 H 0.00483 0.25943 0.00175 0.0
H2138 H 0.9401 0.24807 0.99559 0.0
H2139 H 0.94143 0.27819 0.98309 0.0
C2140 C 0.95428 0.38523 0.00345 0.0
C2141 C 0.93339 0.3823 0.99921 0.0
C2142 C 0.96456 0.36988 0.998 0.0
C2143 C 0.9541 0.35132 0.98836 0.0
C2144 C 0.93306 0.34789 0.98519 0.0
C2145 C 0.92278 0.36334 0.99046 0.0
C2146 C 0.96541 0.33648 0.9796 0.0
C2147 C 0.96417 0.3186 0.98553 0.0
C2148 C 0.97768 0.34024 0.96551 0.0
C2149 C 0.9793 0.35879 0.95855 0.0
C2150 C 0.96209 0.36379 0.95124 0.0
C2151 C 0.96368 0.38149 0.94503 0.0
C2152 C 0.98246 0.39423 0.94592 0.0
C2153 C 0.99968 0.38925 0.95297 0.0
C2154 C 0.99815 0.37158 0.95923 0.0
C2155 C 0.99412 0.25923 0.93453 0.0
C2156 C 0.01393 0.26444 0.92959 0.0
C2157 C 0.98548 0.27316 0.94575 0.0
C2158 C 0.99665 0.29243 0.95266 0.0
C2159 C 0.01669 0.29744 0.94822 0.0
C2160 C 0.02522 0.28362 0.9367 0.0
C2161 C 0.98685 0.30781 0.96316 0.0
C2162 C 0.98826 0.32591 0.9575 0.0
C2163 C 0.97498 0.30429 0.97766 0.0
C2164 C 0.9741 0.28617 0.98523 0.0
C2165 C 0.99195 0.28072 0.99065 0.0
C2166 C 0.99104 0.26358 0.99765 0.0
C2167 C 0.97237 0.25181 0.99941 0.0
C2168 C 0.95456 0.25719 0.99421 0.0
C2169 C 0.95538 0.27432 0.98718 0.0
H2170 H 0.9717 0.23854 0.00484 0.0
H2171 H 0.98367 0.40793 0.94111 0.0
H2172 H 0.75755 0.74708 0.31514 0.0
H2173 H 0.72863 0.74804 0.33339 0.0
H2174 H 0.69713 0.76771 0.29222 0.0
H2175 H 0.72549 0.76583 0.27339 0.0
H2176 H 0.6949 0.78807 0.33061 0.0
H2177 H 0.68486 0.72287 0.29093 0.0
H2178 H 0.69542 0.69165 0.27783 0.0
H2179 H 0.70159 0.67873 0.33051 0.0
H2180 H 0.69137 0.71007 0.34396 0.0
H2181 H 0.59298 0.76684 0.34937 0.0
H2182 H 0.62563 0.77094 0.33664 0.0
H2183 H 0.64503 0.73278 0.36907 0.0
H2184 H 0.61183 0.72785 0.38126 0.0
H2185 H 0.65567 0.72273 0.33739 0.0
H2186 H 0.66321 0.78542 0.37754 0.0
H2187 H 0.6542 0.81698 0.39202 0.0
H2188 H 0.65469 0.83548 0.34135 0.0
H2189 H 0.66344 0.80391 0.3265 0.0
C2190 C 0.74448 0.75155 0.30988 0.0
C2191 C 0.74383 0.75612 0.29262 0.0
C2192 C 0.72805 0.75226 0.32042 0.0
C2193 C 0.71078 0.75784 0.31407 0.0
C2194 C 0.71042 0.76345 0.29735 0.0
C2195 C 0.72672 0.76245 0.28665 0.0
C2196 C 0.69253 0.75639 0.32428 0.0
C2197 C 0.68617 0.77383 0.33202 0.0
C2198 C 0.68164 0.73782 0.32655 0.0
C2199 C 0.68759 0.71891 0.31846 0.0
C2200 C 0.68865 0.71346 0.29974 0.0
C2201 C 0.69454 0.69573 0.29224 0.0
C2202 C 0.69924 0.68324 0.30334 0.0
C2203 C 0.69799 0.68844 0.32194 0.0
C2204 C 0.69214 0.70617 0.3295 0.0
C2205 C 0.60425 0.75945 0.35394 0.0
C2206 C 0.59986 0.74705 0.36636 0.0
C2207 C 0.62301 0.76193 0.34672 0.0
C2208 C 0.63803 0.75249 0.35212 0.0
C2209 C 0.63374 0.74028 0.36472 0.0
C2210 C 0.61479 0.7375 0.37171 0.0
C2211 C 0.65768 0.75449 0.34377 0.0
C2212 C 0.66439 0.73709 0.33628 0.0
C2213 C 0.66905 0.77317 0.342 0.0
C2214 C 0.66383 0.79222 0.35088 0.0
C2215 C 0.66126 0.79616 0.36946 0.0
C2216 C 0.65622 0.81406 0.37774 0.0
C2217 C 0.65383 0.8282 0.3676 0.0
C2218 C 0.65653 0.8245 0.34918 0.0
C2219 C 0.66156 0.80661 0.34083 0.0
H2220 H 0.64993 0.84205 0.37404 0.0
H2221 H 0.70379 0.66952 0.29751 0.0
H2222 H 0.09695 0.1752 0.062 0.0
H2223 H 0.08519 0.17716 0.03184 0.0
H2224 H 0.09989 0.12031 0.01038 0.0
H2225 H 0.11245 0.11854 0.04062 0.0
H2226 H 0.11112 0.14628 0.98871 0.0
H2227 H 0.05145 0.12322 0.01585 0.0
H2228 H 0.02739 0.12278 0.03945 0.0
H2229 H 0.0183 0.18054 0.03449 0.0
H2230 H 0.04254 0.18146 0.01104 0.0
H2231 H 0.02191 0.15611 0.92224 0.0
H2232 H 0.03524 0.14219 0.94611 0.0
H2233 H 0.09067 0.18586 0.95114 0.0
H2234 H 0.07766 0.19936 0.92685 0.0
H2235 H 0.04266 0.15962 0.97901 0.0
H2236 H 0.12915 0.17156 0.97068 0.0
H2237 H 0.15208 0.169 0.94619 0.0
H2238 H 0.10518 0.12735 0.91128 0.0
H2239 H 0.08206 0.12943 0.93562 0.0
C2240 C 0.09794 0.16319 0.05087 0.0
C2241 C 0.10569 0.14672 0.05375 0.0
C2242 C 0.09101 0.16425 0.03363 0.0
C2243 C 0.09142 0.14877 0.01887 0.0
C2244 C 0.09937 0.13239 0.02159 0.0
C2245 C 0.10636 0.13132 0.0389 0.0
C2246 C 0.08338 0.14984 0.00071 0.0
C2247 C 0.09612 0.14908 0.98651 0.0
C2248 C 0.06361 0.15296 0.99771 0.0
C2249 C 0.04893 0.15246 0.01176 0.0
C2250 C 0.04443 0.13589 0.01988 0.0
C2251 C 0.03074 0.13554 0.03322 0.0
C2252 C 0.02134 0.15164 0.03849 0.0
C2253 C 0.02559 0.16809 0.0304 0.0
C2254 C 0.03929 0.16852 0.01706 0.0
C2255 C 0.03713 0.16242 0.92812 0.0
C2256 C 0.0487 0.17889 0.92271 0.0
C2257 C 0.04472 0.15449 0.94182 0.0
C2258 C 0.06397 0.16294 0.9505 0.0
C2259 C 0.07592 0.17881 0.9445 0.0
C2260 C 0.06843 0.18658 0.93062 0.0
C2261 C 0.0706 0.15668 0.96701 0.0
C2262 C 0.05758 0.15654 0.98101 0.0
C2263 C 0.08993 0.1523 0.96963 0.0
C2264 C 0.10382 0.15078 0.95496 0.0
C2265 C 0.12376 0.16177 0.95781 0.0
C2266 C 0.13678 0.16042 0.94394 0.0
C2267 C 0.13008 0.14806 0.92717 0.0
C2268 C 0.11034 0.13697 0.92425 0.0
C2269 C 0.09725 0.13826 0.93807 0.0
H2270 H 0.14018 0.14705 0.91646 0.0
H2271 H 0.01075 0.15134 0.04882 0.0
H2272 H 0.3833 0.30519 0.31316 0.0
H2273 H 0.40749 0.30342 0.29028 0.0
H2274 H 0.37081 0.32834 0.25686 0.0
H2275 H 0.34586 0.3293 0.27949 0.0
H2276 H 0.38472 0.29844 0.23708 0.0
H2277 H 0.41386 0.35687 0.2805 0.0
H2278 H 0.42542 0.3772 0.31076 0.0
H2279 H 0.46805 0.34041 0.31699 0.0
H2280 H 0.45654 0.31967 0.28687 0.0
H2281 H 0.46484 0.31331 0.1792 0.0
H2282 H 0.43988 0.32077 0.20068 0.0
H2283 H 0.46664 0.29163 0.23756 0.0
H2284 H 0.49162 0.28408 0.21623 0.0
H2285 H 0.45724 0.32736 0.25443 0.0
H2286 H 0.42542 0.26739 0.21191 0.0
H2287 H 0.41371 0.24732 0.18158 0.0
H2288 H 0.37611 0.28821 0.1735 0.0
H2289 H 0.38782 0.30867 0.20373 0.0
C2290 C 0.38013 0.31001 0.30084 0.0
C2291 C 0.36254 0.3173 0.29815 0.0
C2292 C 0.39417 0.30925 0.28786 0.0
C2293 C 0.39116 0.31609 0.27199 0.0
C2294 C 0.3735 0.32312 0.26907 0.0
C2295 C 0.35933 0.32378 0.28206 0.0
C2296 C 0.40648 0.31563 0.25849 0.0
C2297 C 0.40052 0.30511 0.24079 0.0
C2298 C 0.42715 0.32412 0.26337 0.0
C2299 C 0.43423 0.33663 0.28146 0.0
C2300 C 0.4256 0.35303 0.28837 0.0
C2301 C 0.43216 0.36464 0.30549 0.0
C2302 C 0.44744 0.36008 0.31581 0.0
C2303 C 0.45622 0.34392 0.30899 0.0
C2304 C 0.4497 0.33225 0.29188 0.0
C2305 C 0.46554 0.30864 0.19195 0.0
C2306 C 0.48018 0.298 0.19596 0.0
C2307 C 0.45121 0.31285 0.20416 0.0
C2308 C 0.45131 0.30658 0.22062 0.0
C2309 C 0.4663 0.29657 0.22491 0.0
C2310 C 0.48052 0.29222 0.21267 0.0
C2311 C 0.4355 0.30989 0.2332 0.0
C2312 C 0.44139 0.32095 0.25071 0.0
C2313 C 0.41478 0.30201 0.22811 0.0
C2314 C 0.40768 0.28968 0.20999 0.0
C2315 C 0.41479 0.27219 0.20361 0.0
C2316 C 0.40813 0.26073 0.18645 0.0
C2317 C 0.39422 0.26652 0.1756 0.0
C2318 C 0.38691 0.28376 0.18191 0.0
C2319 C 0.39355 0.29529 0.19906 0.0
H2320 H 0.38908 0.25763 0.16231 0.0
H2321 H 0.4525 0.36909 0.32906 0.0
H2322 H 0.55826 0.41002 0.00999 0.0
H2323 H 0.55765 0.39758 0.0379 0.0
H2324 H 0.59758 0.35873 0.01714 0.0
H2325 H 0.59752 0.37064 0.9889 0.0
H2326 H 0.56892 0.33848 0.02942 0.0
H2327 H 0.61222 0.39991 0.05398 0.0
H2328 H 0.6247 0.4362 0.06063 0.0
H2329 H 0.57258 0.44441 0.0895 0.0
H2330 H 0.55961 0.40817 0.08281 0.0
H2331 H 0.56677 0.3296 0.12988 0.0
H2332 H 0.58274 0.34598 0.10661 0.0
H2333 H 0.52552 0.33233 0.07541 0.0
H2334 H 0.50946 0.31651 0.09854 0.0
H2335 H 0.57197 0.37854 0.09143 0.0
H2336 H 0.53721 0.31293 0.0313 0.0
H2337 H 0.5306 0.27629 0.02377 0.0
H2338 H 0.57366 0.27605 0.06656 0.0
H2339 H 0.58089 0.31267 0.07411 0.0
C2340 C 0.56718 0.39908 0.01155 0.0
C2341 C 0.57786 0.3912 0.9973 0.0
C2342 C 0.56694 0.39205 0.02755 0.0
C2343 C 0.57774 0.37733 0.02978 0.0
C2344 C 0.58908 0.37005 0.01577 0.0
C2345 C 0.58904 0.37683 0.99965 0.0
C2346 C 0.57546 0.36808 0.04584 0.0
C2347 C 0.56978 0.34729 0.04297 0.0
C2348 C 0.57716 0.37946 0.06366 0.0
C2349 C 0.58489 0.40129 0.0678 0.0
C2350 C 0.60334 0.40945 0.06165 0.0
C2351 C 0.61052 0.43002 0.06544 0.0
C2352 C 0.59943 0.4426 0.07546 0.0
C2353 C 0.58115 0.43464 0.08174 0.0
C2354 C 0.5739 0.41408 0.07798 0.0
C2355 C 0.5576 0.3303 0.11814 0.0
C2356 C 0.53685 0.32184 0.11608 0.0
C2357 C 0.56673 0.33963 0.10489 0.0
C2358 C 0.55531 0.34016 0.08926 0.0
C2359 C 0.5346 0.33193 0.08732 0.0
C2360 C 0.52544 0.32299 0.10063 0.0
C2361 C 0.56466 0.34917 0.07471 0.0
C2362 C 0.5715 0.36984 0.07787 0.0
C2363 C 0.56459 0.33767 0.05719 0.0
C2364 C 0.55947 0.3156 0.05337 0.0
C2365 C 0.54527 0.30507 0.03912 0.0
C2366 C 0.54148 0.2843 0.03479 0.0
C2367 C 0.55179 0.27387 0.04462 0.0
C2368 C 0.56571 0.28416 0.05895 0.0
C2369 C 0.56962 0.30493 0.06328 0.0
H2370 H 0.54896 0.2578 0.04114 0.0
H2371 H 0.60501 0.45853 0.07838 0.0
H2372 H 0.74086 0.30231 0.25245 0.0
H2373 H 0.70766 0.30283 0.23913 0.0
H2374 H 0.68326 0.24704 0.25382 0.0
H2375 H 0.71663 0.24605 0.26658 0.0
H2376 H 0.67175 0.2461 0.21987 0.0
H2377 H 0.6725 0.29105 0.27622 0.0
H2378 H 0.68599 0.32002 0.30063 0.0
H2379 H 0.68449 0.35912 0.26378 0.0
H2380 H 0.67125 0.33035 0.23908 0.0
H2381 H 0.56832 0.24555 0.2031 0.0
H2382 H 0.6013 0.24715 0.21797 0.0
H2383 H 0.62547 0.29998 0.1984 0.0
H2384 H 0.59234 0.29853 0.18341 0.0
H2385 H 0.6371 0.30291 0.23466 0.0
H2386 H 0.63611 0.25723 0.17833 0.0
H2387 H 0.62212 0.22791 0.15441 0.0
H2388 H 0.62356 0.18975 0.19212 0.0
H2389 H 0.63729 0.21888 0.21634 0.0
C2390 C 0.72844 0.29013 0.25284 0.0
C2391 C 0.73143 0.2741 0.26053 0.0
C2392 C 0.7094 0.29055 0.24538 0.0
C2393 C 0.69291 0.27505 0.2456 0.0
C2394 C 0.69576 0.25919 0.25353 0.0
C2395 C 0.71481 0.25873 0.26097 0.0
C2396 C 0.67293 0.27491 0.23679 0.0
C2397 C 0.66404 0.2584 0.22332 0.0
C2398 C 0.6631 0.29118 0.24093 0.0
C2399 C 0.67107 0.30852 0.25576 0.0
C2400 C 0.67521 0.30581 0.27329 0.0
C2401 C 0.68278 0.3222 0.28718 0.0
C2402 C 0.68615 0.34139 0.28375 0.0
C2403 C 0.6819 0.34424 0.26642 0.0
C2404 C 0.67435 0.3279 0.25246 0.0
C2405 C 0.58062 0.25754 0.20193 0.0
C2406 C 0.57773 0.27188 0.192 0.0
C2407 C 0.59948 0.25838 0.21041 0.0
C2408 C 0.61586 0.27357 0.20915 0.0
C2409 C 0.613 0.28812 0.1995 0.0
C2410 C 0.59411 0.28722 0.1909 0.0
C2411 C 0.63596 0.27408 0.21786 0.0
C2412 C 0.64485 0.29064 0.23126 0.0
C2413 C 0.64576 0.25781 0.21374 0.0
C2414 C 0.63755 0.24026 0.19919 0.0
C2415 C 0.63329 0.2426 0.18156 0.0
C2416 C 0.62543 0.22601 0.16794 0.0
C2417 C 0.6219 0.20699 0.17175 0.0
C2418 C 0.62627 0.2045 0.18919 0.0
C2419 C 0.63411 0.22104 0.20286 0.0
H2420 H 0.61583 0.19416 0.16119 0.0
H2421 H 0.69201 0.35406 0.29453 0.0
H2422 H 0.48472 0.09284 0.00177 0.0
H2423 H 0.4947 0.11886 0.029 0.0
H2424 H 0.45609 0.15381 0.00942 0.0
H2425 H 0.44699 0.12823 0.98178 0.0
H2426 H 0.48775 0.17756 0.02614 0.0
H2427 H 0.44126 0.12271 0.04006 0.0
H2428 H 0.42854 0.08763 0.04136 0.0
H2429 H 0.48103 0.08835 0.07512 0.0
H2430 H 0.49422 0.12337 0.07379 0.0
H2431 H 0.47418 0.23831 0.10757 0.0
H2432 H 0.46629 0.21097 0.08136 0.0
H2433 H 0.51282 0.18419 0.10062 0.0
H2434 H 0.52052 0.21135 0.12723 0.0
H2435 H 0.4786 0.15636 0.08451 0.0
H2436 H 0.52286 0.21407 0.0713 0.0
H2437 H 0.53097 0.25002 0.07182 0.0
H2438 H 0.47801 0.24425 0.03681 0.0
H2439 H 0.46924 0.20834 0.03653 0.0
C2440 C 0.47872 0.10628 0.00322 0.0
C2441 C 0.4651 0.10863 0.98983 0.0
C2442 C 0.48426 0.12104 0.0188 0.0
C2443 C 0.47574 0.13807 0.02149 0.0
C2444 C 0.46282 0.14079 0.0077 0.0
C2445 C 0.45762 0.12621 0.99193 0.0
C2446 C 0.47949 0.1526 0.03896 0.0
C2447 C 0.4856 0.17289 0.03886 0.0
C2448 C 0.47683 0.14657 0.05565 0.0
C2449 C 0.46882 0.1256 0.05668 0.0
C2450 C 0.45014 0.11535 0.04767 0.0
C2451 C 0.44285 0.09548 0.04842 0.0
C2452 C 0.454 0.08575 0.05828 0.0
C2453 C 0.47243 0.09589 0.06746 0.0
C2454 C 0.47982 0.11576 0.06673 0.0
C2455 C 0.48255 0.22646 0.10639 0.0
C2456 C 0.49818 0.22712 0.11932 0.0
C2457 C 0.47803 0.21087 0.09139 0.0
C2458 C 0.4893 0.19584 0.08886 0.0
C2459 C 0.50405 0.19574 0.10229 0.0
C2460 C 0.50844 0.21127 0.11746 0.0
C2461 C 0.48671 0.18117 0.07159 0.0
C2462 C 0.48088 0.16092 0.07175 0.0
C2463 C 0.48921 0.18725 0.05494 0.0
C2464 C 0.49531 0.20853 0.05402 0.0
C2465 C 0.51294 0.22046 0.06373 0.0
C2466 C 0.5176 0.24085 0.06404 0.0
C2467 C 0.50496 0.24942 0.05442 0.0
C2468 C 0.48775 0.23759 0.0443 0.0
C2469 C 0.48291 0.21722 0.04407 0.0
H2470 H 0.50848 0.26524 0.0548 0.0
H2471 H 0.44833 0.07036 0.05884 0.0
H2472 H 0.33444 0.32571 0.72826 0.0
H2473 H 0.34955 0.361 0.73669 0.0
H2474 H 0.30189 0.37046 0.77156 0.0
H2475 H 0.28627 0.33494 0.76276 0.0
H2476 H 0.31075 0.39939 0.75103 0.0
H2477 H 0.34672 0.36967 0.78989 0.0
H2478 H 0.36587 0.3455 0.79765 0.0
H2479 H 0.41263 0.36504 0.76463 0.0
H2480 H 0.39361 0.38914 0.75645 0.0
H2481 H 0.3655 0.49588 0.79645 0.0
H2482 H 0.34588 0.46189 0.78824 0.0
H2483 H 0.39136 0.44517 0.7534 0.0
H2484 H 0.4112 0.47904 0.76167 0.0
H2485 H 0.3821 0.42017 0.77598 0.0
H2486 H 0.3455 0.44898 0.7362 0.0
H2487 H 0.3263 0.47307 0.72831 0.0
H2488 H 0.28083 0.45543 0.76321 0.0
H2489 H 0.29991 0.43142 0.7715 0.0
C2490 C 0.32701 0.3353 0.73758 0.0
C2491 C 0.30909 0.32756 0.74478 0.0
C2492 C 0.33577 0.35545 0.7425 0.0
C2493 C 0.32694 0.36831 0.75487 0.0
C2494 C 0.30895 0.36074 0.76201 0.0
C2495 C 0.30014 0.34047 0.75709 0.0
C2496 C 0.33678 0.38959 0.7603 0.0
C2497 C 0.32624 0.40401 0.75678 0.0
C2498 C 0.3571 0.39552 0.76748 0.0
C2499 C 0.36865 0.38111 0.77244 0.0
C2500 C 0.36101 0.36872 0.78417 0.0
C2501 C 0.37186 0.35504 0.78866 0.0
C2502 C 0.39043 0.3537 0.78161 0.0
C2503 C 0.39823 0.36608 0.77007 0.0
C2504 C 0.38743 0.37977 0.76552 0.0
C2505 C 0.37122 0.48506 0.78685 0.0
C2506 C 0.38999 0.49018 0.77979 0.0
C2507 C 0.35994 0.46563 0.78213 0.0
C2508 C 0.36715 0.45101 0.77019 0.0
C2509 C 0.38555 0.45623 0.76268 0.0
C2510 C 0.39684 0.47562 0.76738 0.0
C2511 C 0.35623 0.42999 0.7664 0.0
C2512 C 0.36658 0.41561 0.7703 0.0
C2513 C 0.33576 0.42415 0.75962 0.0
C2514 C 0.32425 0.43855 0.75462 0.0
C2515 C 0.3315 0.45036 0.74232 0.0
C2516 C 0.32062 0.46398 0.73775 0.0
C2517 C 0.30239 0.46582 0.7453 0.0
C2518 C 0.29497 0.45401 0.7574 0.0
C2519 C 0.3058 0.44038 0.76202 0.0
H2520 H 0.29399 0.47637 0.74174 0.0
H2521 H 0.39881 0.3431 0.7851 0.0
H2522 H 0.28881 0.70441 0.79556 0.0
H2523 H 0.30926 0.67878 0.79252 0.0
H2524 H 0.33614 0.70319 0.84659 0.0
H2525 H 0.31602 0.729 0.8496 0.0
H2526 H 0.36424 0.69319 0.8233 0.0
H2527 H 0.29908 0.66341 0.8393 0.0
H2528 H 0.26197 0.65343 0.836 0.0
H2529 H 0.26482 0.6178 0.7836 0.0
H2530 H 0.30197 0.6278 0.78649 0.0
H2531 H 0.37058 0.58688 0.83532 0.0
H2532 H 0.3531 0.61438 0.83645 0.0
H2533 H 0.38822 0.63402 0.79466 0.0
H2534 H 0.40604 0.60651 0.79357 0.0
H2535 H 0.32944 0.62231 0.81122 0.0
H2536 H 0.39442 0.68537 0.80205 0.0
H2537 H 0.43137 0.69559 0.80822 0.0
H2538 H 0.42869 0.6648 0.85199 0.0
H2539 H 0.39172 0.65462 0.84623 0.0
C2540 C 0.29923 0.70441 0.80672 0.0
C2541 C 0.3007 0.71861 0.82287 0.0
C2542 C 0.31082 0.68973 0.805 0.0
C2543 C 0.3241 0.68902 0.81938 0.0
C2544 C 0.32598 0.70347 0.83534 0.0
C2545 C 0.31433 0.71808 0.8371 0.0
C2546 C 0.33551 0.67279 0.8181 0.0
C2547 C 0.35666 0.67768 0.82055 0.0
C2548 C 0.32559 0.65259 0.81478 0.0
C2549 C 0.30328 0.64652 0.81303 0.0
C2550 C 0.29178 0.65358 0.82701 0.0
C2551 C 0.27075 0.64789 0.82523 0.0
C2552 C 0.26104 0.63503 0.80958 0.0
C2553 C 0.27236 0.62779 0.7957 0.0
C2554 C 0.2934 0.63345 0.7974 0.0
C2555 C 0.3747 0.59707 0.8264 0.0
C2556 C 0.38972 0.5945 0.81435 0.0
C2557 C 0.36462 0.61276 0.82703 0.0
C2558 C 0.36937 0.62628 0.81568 0.0
C2559 C 0.38444 0.62386 0.80367 0.0
C2560 C 0.39458 0.60812 0.80303 0.0
C2561 C 0.35822 0.64266 0.81635 0.0
C2562 C 0.33708 0.6378 0.81376 0.0
C2563 C 0.36814 0.66288 0.81987 0.0
C2564 C 0.39034 0.66904 0.82356 0.0
C2565 C 0.40172 0.68082 0.81302 0.0
C2566 C 0.42266 0.68661 0.81644 0.0
C2567 C 0.43238 0.68079 0.83044 0.0
C2568 C 0.42116 0.66923 0.84109 0.0
C2569 C 0.40021 0.66342 0.83774 0.0
H2570 H 0.44859 0.68527 0.83306 0.0
H2571 H 0.24475 0.63064 0.80822 0.0
H2572 H 0.93097 0.51939 0.46342 0.0
H2573 H 0.90922 0.49463 0.47672 0.0
H2574 H 0.88215 0.54086 0.50651 0.0
H2575 H 0.9046 0.56563 0.49391 0.0
H2576 H 0.88757 0.51779 0.52733 0.0
H2577 H 0.8588 0.50691 0.46675 0.0
H2578 H 0.85828 0.5002 0.4336 0.0
H2579 H 0.87529 0.44421 0.43355 0.0
H2580 H 0.87617 0.45071 0.46674 0.0
H2581 H 0.79102 0.45782 0.53717 0.0
H2582 H 0.81856 0.48112 0.52799 0.0
H2583 H 0.85437 0.4359 0.5198 0.0
H2584 H 0.82709 0.41263 0.52947 0.0
H2585 H 0.84639 0.45654 0.48893 0.0
H2586 H 0.8716 0.46841 0.55122 0.0
H2587 H 0.8689 0.47639 0.58404 0.0
H2588 H 0.85433 0.53246 0.58 0.0
H2589 H 0.85665 0.52467 0.5471 0.0
C2590 C 0.92033 0.52415 0.4728 0.0
C2591 C 0.91934 0.5443 0.47767 0.0
C2592 C 0.90786 0.51004 0.48034 0.0
C2593 C 0.89381 0.51581 0.49245 0.0
C2594 C 0.89289 0.53602 0.49727 0.0
C2595 C 0.90564 0.55015 0.49004 0.0
C2596 C 0.88001 0.50091 0.50014 0.0
C2597 C 0.87847 0.5045 0.51887 0.0
C2598 C 0.86829 0.48336 0.48919 0.0
C2599 C 0.86778 0.4794 0.46924 0.0
C2600 C 0.86258 0.49324 0.45968 0.0
C2601 C 0.8622 0.48946 0.44088 0.0
C2602 C 0.86681 0.47182 0.43148 0.0
C2603 C 0.87176 0.45789 0.44086 0.0
C2604 C 0.87219 0.46161 0.45966 0.0
C2605 C 0.80489 0.45295 0.5337 0.0
C2606 C 0.80695 0.43344 0.53403 0.0
C2607 C 0.82057 0.46626 0.52849 0.0
C2608 C 0.83839 0.46015 0.52324 0.0
C2609 C 0.84069 0.44083 0.52388 0.0
C2610 C 0.82517 0.42763 0.52948 0.0
C2611 C 0.85398 0.47362 0.51594 0.0
C2612 C 0.85573 0.46976 0.49731 0.0
C2613 C 0.86548 0.49114 0.52689 0.0
C2614 C 0.86411 0.49586 0.54667 0.0
C2615 C 0.86762 0.48235 0.5573 0.0
C2616 C 0.86621 0.48686 0.57593 0.0
C2617 C 0.8614 0.5049 0.58409 0.0
C2618 C 0.85804 0.51849 0.57365 0.0
C2619 C 0.85942 0.51404 0.55502 0.0
H2620 H 0.86032 0.50837 0.59851 0.0
H2621 H 0.8665 0.46892 0.41692 0.0
H2622 H 0.80339 0.91208 0.82263 0.0
H2623 H 0.77751 0.92386 0.807 0.0
H2624 H 0.74745 0.86337 0.78491 0.0
H2625 H 0.7731 0.85133 0.80104 0.0
H2626 H 0.75165 0.89888 0.76135 0.0
H2627 H 0.7249 0.87514 0.81362 0.0
H2628 H 0.72814 0.87156 0.84521 0.0
H2629 H 0.74126 0.93506 0.86295 0.0
H2630 H 0.73843 0.939 0.83142 0.0
H2631 H 0.66451 0.94118 0.74521 0.0
H2632 H 0.68542 0.9177 0.75103 0.0
H2633 H 0.71624 0.9611 0.79691 0.0
H2634 H 0.69529 0.98418 0.7915 0.0
H2635 H 0.70695 0.92653 0.80563 0.0
H2636 H 0.73682 0.95119 0.75505 0.0
H2637 H 0.7366 0.95682 0.72398 0.0
H2638 H 0.71967 0.89388 0.70322 0.0
H2639 H 0.71956 0.88791 0.7342 0.0
C2640 C 0.79143 0.90124 0.81428 0.0
C2641 C 0.79008 0.88078 0.81334 0.0
C2642 C 0.77677 0.908 0.80524 0.0
C2643 C 0.76058 0.89447 0.79493 0.0
C2644 C 0.75993 0.874 0.79277 0.0
C2645 C 0.77459 0.86718 0.80197 0.0
C2646 C 0.74326 0.90207 0.78867 0.0
C2647 C 0.74147 0.9045 0.77083 0.0
C2648 C 0.73032 0.90966 0.80119 0.0
C2649 C 0.73161 0.90735 0.82017 0.0
C2650 C 0.72863 0.88833 0.82426 0.0
C2651 C 0.73037 0.88624 0.84215 0.0
C2652 C 0.73495 0.90307 0.85608 0.0
C2653 C 0.73773 0.92204 0.85215 0.0
C2654 C 0.73604 0.9242 0.83427 0.0
C2655 C 0.67574 0.94564 0.75654 0.0
C2656 C 0.67819 0.96452 0.76792 0.0
C2657 C 0.68773 0.93225 0.75981 0.0
C2658 C 0.70248 0.93766 0.77438 0.0
C2659 C 0.70489 0.95651 0.78566 0.0
C2660 C 0.69289 0.96975 0.78251 0.0
C2661 C 0.71551 0.92394 0.7783 0.0
C2662 C 0.7166 0.92042 0.79585 0.0
C2663 C 0.72784 0.91552 0.7655 0.0
C2664 C 0.72792 0.91912 0.74692 0.0
C2665 C 0.73289 0.93857 0.74386 0.0
C2666 C 0.73286 0.94182 0.72627 0.0
C2667 C 0.72805 0.92572 0.71164 0.0
C2668 C 0.72334 0.90634 0.71457 0.0
C2669 C 0.72332 0.90301 0.73213 0.0
H2670 H 0.72805 0.92827 0.69803 0.0
H2671 H 0.7363 0.90143 0.86993 0.0
H2672 H 0.61169 0.51334 0.98719 0.0
H2673 H 0.64365 0.5375 0.99177 0.0
H2674 H 0.67355 0.49246 0.96413 0.0
H2675 H 0.64156 0.46812 0.95976 0.0
H2676 H 0.69849 0.51988 0.99189 0.0
H2677 H 0.65537 0.51963 0.94038 0.0
H2678 H 0.62293 0.52012 0.92485 0.0
H2679 H 0.6233 0.57804 0.95678 0.0
H2680 H 0.65554 0.57769 0.9728 0.0
H2681 H 0.77786 0.58794 0.96471 0.0
H2682 H 0.74893 0.56072 0.96351 0.0
H2683 H 0.71408 0.6024 0.98908 0.0
H2684 H 0.74282 0.62974 0.99019 0.0
H2685 H 0.6924 0.57524 0.96136 0.0
H2686 H 0.73551 0.57481 0.01333 0.0
H2687 H 0.76738 0.5734 0.0293 0.0
H2688 H 0.76742 0.51644 0.99573 0.0
H2689 H 0.73562 0.51761 0.97941 0.0
C2690 C 0.62522 0.50849 0.98258 0.0
C2691 C 0.62422 0.48901 0.97296 0.0
C2692 C 0.64342 0.52226 0.98516 0.0
C2693 C 0.6608 0.51682 0.97791 0.0
C2694 C 0.66025 0.49692 0.96975 0.0
C2695 C 0.64202 0.48305 0.96729 0.0
C2696 C 0.67859 0.53238 0.97681 0.0
C2697 C 0.69727 0.53187 0.98506 0.0
C2698 C 0.67687 0.54803 0.96791 0.0
C2699 C 0.6578 0.54856 0.9579 0.0
C2700 C 0.64848 0.53242 0.94416 0.0
C2701 C 0.63013 0.53267 0.93528 0.0
C2702 C 0.62104 0.54909 0.93985 0.0
C2703 C 0.63034 0.56532 0.95327 0.0
C2704 C 0.64866 0.56511 0.96226 0.0
C2705 C 0.76398 0.59137 0.96991 0.0
C2706 C 0.76268 0.61103 0.97761 0.0
C2707 C 0.74751 0.57576 0.96932 0.0
C2708 C 0.72949 0.57953 0.97647 0.0
C2709 C 0.7279 0.59918 0.98356 0.0
C2710 C 0.74435 0.61479 0.98418 0.0
C2711 C 0.7123 0.56302 0.97675 0.0
C2712 C 0.69369 0.56326 0.9682 0.0
C2713 C 0.71417 0.5471 0.98526 0.0
C2714 C 0.73328 0.54638 0.99505 0.0
C2715 C 0.74238 0.56205 0.00927 0.0
C2716 C 0.76041 0.56128 0.0184 0.0
C2717 C 0.7694 0.54483 0.01354 0.0
C2718 C 0.76041 0.52915 0.9995 0.0
C2719 C 0.74238 0.52985 0.99031 0.0
H2720 H 0.78333 0.54424 0.02066 0.0
H2721 H 0.60682 0.54925 0.93296 0.0
H2722 H 0.30527 0.67946 0.21861 0.0
H2723 H 0.27782 0.65057 0.21573 0.0
H2724 H 0.23958 0.68809 0.24244 0.0
H2725 H 0.2673 0.71687 0.2462 0.0
H2726 H 0.23909 0.6584 0.25797 0.0
H2727 H 0.23037 0.66461 0.19707 0.0
H2728 H 0.2404 0.66832 0.16683 0.0
H2729 H 0.25993 0.61267 0.15916 0.0
H2730 H 0.25029 0.60874 0.18947 0.0
H2731 H 0.15529 0.56622 0.21748 0.0
H2732 H 0.17822 0.59639 0.21381 0.0
H2733 H 0.22071 0.58863 0.2542 0.0
H2734 H 0.1977 0.55863 0.25825 0.0
H2735 H 0.21562 0.60495 0.20391 0.0
H2736 H 0.24256 0.6333 0.27952 0.0
H2737 H 0.22982 0.6309 0.30922 0.0
H2738 H 0.16886 0.62052 0.28632 0.0
H2739 H 0.18124 0.62313 0.25656 0.0
C2740 C 0.29094 0.6816 0.22369 0.0
C2741 C 0.28856 0.70046 0.2328 0.0
C2742 C 0.27517 0.66508 0.22187 0.0
C2743 C 0.2566 0.66713 0.22886 0.0
C2744 C 0.2538 0.68614 0.23698 0.0
C2745 C 0.26961 0.70264 0.23894 0.0
C2746 C 0.24093 0.64926 0.22935 0.0
C2747 C 0.2339 0.64679 0.2461 0.0
C2748 C 0.23392 0.63418 0.21386 0.0
C2749 C 0.23975 0.63646 0.19562 0.0
C2750 C 0.23695 0.65323 0.189 0.0
C2751 C 0.24254 0.65536 0.17183 0.0
C2752 C 0.25083 0.64076 0.1611 0.0
C2753 C 0.25352 0.62397 0.1675 0.0
C2754 C 0.24797 0.62178 0.18466 0.0
C2755 C 0.16956 0.57084 0.22553 0.0
C2756 C 0.17456 0.5601 0.2383 0.0
C2757 C 0.18268 0.58807 0.22336 0.0
C2758 C 0.20103 0.59491 0.2339 0.0
C2759 C 0.20644 0.5838 0.24615 0.0
C2760 C 0.19329 0.56662 0.2484 0.0
C2761 C 0.2142 0.61402 0.23255 0.0
C2762 C 0.22077 0.61667 0.21571 0.0
C2763 C 0.22044 0.62951 0.24787 0.0
C2764 C 0.21284 0.62823 0.26578 0.0
C2765 C 0.22645 0.63059 0.28085 0.0
C2766 C 0.21928 0.62918 0.29769 0.0
C2767 C 0.19854 0.6255 0.29964 0.0
C2768 C 0.18492 0.6233 0.28477 0.0
C2769 C 0.192 0.62473 0.26791 0.0
H2770 H 0.19303 0.62439 0.31268 0.0
H2771 H 0.25515 0.64243 0.14781 0.0
H2772 H 0.94468 0.51829 0.05568 0.0
H2773 H 0.93039 0.54694 0.05259 0.0
H2774 H 0.87046 0.51262 0.05398 0.0
H2775 H 0.88483 0.48357 0.05628 0.0
H2776 H 0.87021 0.5286 0.0274 0.0
H2777 H 0.893 0.55488 0.08823 0.0
H2778 H 0.91622 0.56418 0.11566 0.0
H2779 H 0.95646 0.60487 0.09127 0.0
H2780 H 0.93363 0.59561 0.06358 0.0
H2781 H 0.8488 0.63347 0.03281 0.0
H2782 H 0.86155 0.61078 0.04904 0.0
H2783 H 0.88496 0.58358 0.0004 0.0
H2784 H 0.87212 0.60591 0.98408 0.0
H2785 H 0.89759 0.59928 0.05594 0.0
H2786 H 0.86943 0.53362 0.99457 0.0
H2787 H 0.84316 0.52455 0.96934 0.0
H2788 H 0.80791 0.56247 0.99946 0.0
H2789 H 0.8336 0.57126 0.0251 0.0
C2790 C 0.92849 0.51703 0.05581 0.0
C2791 C 0.91583 0.49875 0.0562 0.0
C2792 C 0.9203 0.53347 0.05412 0.0
C2793 C 0.8993 0.5321 0.0532 0.0
C2794 C 0.8867 0.51408 0.05461 0.0
C2795 C 0.89488 0.49751 0.05596 0.0
C2796 C 0.89059 0.54858 0.04853 0.0
C2797 C 0.87609 0.54401 0.03384 0.0
C2798 C 0.89781 0.56875 0.05712 0.0
C2799 C 0.91162 0.57446 0.07377 0.0
C2800 C 0.90686 0.56572 0.08866 0.0
C2801 C 0.91995 0.571 0.10427 0.0
C2802 C 0.93781 0.58509 0.1052 0.0
C2803 C 0.94261 0.59396 0.09053 0.0
C2804 C 0.92958 0.58872 0.07488 0.0
C2805 C 0.85712 0.62299 0.02569 0.0
C2806 C 0.8592 0.62126 0.0071 0.0
C2807 C 0.86438 0.61004 0.03499 0.0
C2808 C 0.87378 0.59525 0.0258 0.0
C2809 C 0.8774 0.59468 0.00764 0.0
C2810 C 0.87009 0.60749 0.99835 0.0
C2811 C 0.87808 0.57913 0.03445 0.0
C2812 C 0.89161 0.5838 0.04981 0.0
C2813 C 0.86948 0.55899 0.02689 0.0
C2814 C 0.85358 0.55325 0.01171 0.0
C2815 C 0.85599 0.53988 0.99589 0.0
C2816 C 0.84118 0.53477 0.98152 0.0
C2817 C 0.82387 0.54292 0.98281 0.0
C2818 C 0.82129 0.55613 0.9985 0.0
C2819 C 0.83597 0.56117 0.01296 0.0
H2820 H 0.81246 0.539 0.97165 0.0
H2821 H 0.94793 0.58915 0.11729 0.0
H2822 H 0.10132 0.03647 0.0956 0.0
H2823 H 0.1206 0.01023 0.08776 0.0
H2824 H 0.17596 0.05439 0.09668 0.0
H2825 H 0.15665 0.08069 0.10405 0.0
H2826 H 0.17799 0.02881 0.06814 0.0
H2827 H 0.16086 0.02401 0.12737 0.0
H2828 H 0.13877 0.02134 0.15227 0.0
H2829 H 0.10588 0.96477 0.12287 0.0
H2830 H 0.12759 0.96723 0.09767 0.0
H2831 H 0.22261 0.93775 0.08203 0.0
H2832 H 0.20506 0.96441 0.09438 0.0
H2833 H 0.17993 0.9629 0.041 0.0
H2834 H 0.19754 0.93663 0.02859 0.0
H2835 H 0.16651 0.96896 0.09515 0.0
H2836 H 0.18102 0.0094 0.03525 0.0
H2837 H 0.20671 0.01424 0.01342 0.0
H2838 H 0.25135 0.0035 0.04982 0.0
H2839 H 0.22601 0.99888 0.07196 0.0
C2840 C 0.11761 0.04054 0.09593 0.0
C2841 C 0.1275 0.06061 0.10044 0.0
C2842 C 0.12863 0.02554 0.09154 0.0
C2843 C 0.1498 0.03027 0.0919 0.0
C2844 C 0.15967 0.05034 0.09629 0.0
C2845 C 0.14862 0.06536 0.10047 0.0
C2846 C 0.16158 0.01431 0.08729 0.0
C2847 C 0.17547 0.01577 0.07409 0.0
C2848 C 0.1588 0.9975 0.0954 0.0
C2849 C 0.14576 0.99588 0.11056 0.0
C2850 C 0.14883 0.01106 0.12616 0.0
C2851 C 0.13639 0.00958 0.14033 0.0
C2852 C 0.12091 0.99291 0.13913 0.0
C2853 C 0.11787 0.97767 0.12377 0.0
C2854 C 0.13025 0.97909 0.10954 0.0
C2855 C 0.21313 0.94295 0.07298 0.0
C2856 C 0.21161 0.93521 0.05432 0.0
C2857 C 0.20313 0.95818 0.08005 0.0
C2858 C 0.1915 0.96591 0.06856 0.0
C2859 C 0.18916 0.95746 0.05007 0.0
C2860 C 0.19918 0.94236 0.04301 0.0
C2861 C 0.18235 0.98326 0.07563 0.0
C2862 C 0.16902 0.98207 0.08928 0.0
C2863 C 0.18615 0.00065 0.06839 0.0
C2864 C 0.20154 0.00361 0.05519 0.0
C2865 C 0.19633 0.00815 0.03863 0.0
C2866 C 0.21083 0.01084 0.02619 0.0
C2867 C 0.23063 0.00912 0.03021 0.0
C2868 C 0.23599 0.00476 0.04669 0.0
C2869 C 0.22156 0.00207 0.05918 0.0
H2870 H 0.24183 0.0112 0.02057 0.0
H2871 H 0.11129 0.99179 0.15012 0.0
loop_
_geom_bond_atom_site_label_1
_geom_bond_atom_site_label_2
_geom_bond_distance
_geom_bond_site_symmetry_2
_ccdc_geom_bond_type
H0 C1 0.949 . S
C1 H0 0.949 . S
C1 C2 1.395 . S
C1 C3 1.391 . S
C2 C1 1.395 . S
C2 C5 1.390 . S
C3 C1 1.391 . S
C3 C7 1.387 . S
C3 C8 1.491 . S
H4 C5 0.950 . S
C5 C2 1.390 . S
C5 H4 0.950 . S
C5 C6 1.378 . S
C6 C5 1.378 . S
C6 C7 1.409 . S
C7 C3 1.387 . S
C7 C6 1.409 . S
C7 H9 0.951 . S
C8 C3 1.491 . S
C8 C10 1.382 . S
C8 C12 1.404 . S
H9 C7 0.951 . S
C10 C8 1.382 . S
C10 C11 1.390 . S
C10 H15 0.949 . S
C11 C10 1.390 . S
C11 C16 1.399 . S
C12 C8 1.404 . S
C12 H13 0.950 . S
C12 C14 1.375 . S
H13 C12 0.950 . S
C14 C12 1.375 . S
C14 C16 1.382 . S
C14 H18 0.950 . S
H15 C10 0.949 . S
C16 C11 1.399 . S
C16 C14 1.382 . S
C16 H17 0.952 . S
H17 C16 0.952 . S
H18 C14 0.950 . S
H19 C20 0.949 . S
C20 H19 0.949 . S
C20 C21 1.395 . S
C20 C22 1.391 . S
C21 C20 1.395 . S
C21 C24 1.390 . S
C22 C20 1.391 . S
C22 C26 1.387 . S
C22 C27 1.491 . S
H23 C24 0.950 . S
C24 C21 1.390 . S
C24 H23 0.950 . S
C24 C25 1.378 . S
C25 C24 1.378 . S
C25 C26 1.409 . S
C26 C22 1.387 . S
C26 C25 1.409 . S
C26 H28 0.951 . S
C27 C22 1.491 . S
C27 C29 1.382 . S
C27 C31 1.404 . S
H28 C26 0.951 . S
C29 C27 1.382 . S
C29 C30 1.390 . S
C29 H34 0.949 . S
C30 C29 1.390 . S
C30 C35 1.399 . S
C31 C27 1.404 . S
C31 H32 0.950 . S
C31 C33 1.375 . S
H32 C31 0.950 . S
C33 C31 1.375 . S
C33 C35 1.382 . S
C33 H37 0.950 . S
H34 C29 0.949 . S
C35 C30 1.399 . S
C35 C33 1.382 . S
C35 H36 0.952 . S
H36 C35 0.952 . S
H37 C33 0.950 . S
H38 C39 0.949 . S
C39 H38 0.949 . S
C39 C40 1.395 . S
C39 C41 1.391 . S
C40 C39 1.395 . S
C40 C43 1.390 . S
C41 C39 1.391 . S
C41 C45 1.387 . S
C41 C46 1.491 . S
H42 C43 0.950 . S
C43 C40 1.390 . S
C43 H42 0.950 . S
C43 C44 1.378 . S
C44 C43 1.378 . S
C44 C45 1.409 . S
C45 C41 1.387 . S
C45 C44 1.409 . S
C45 H47 0.951 . S
C46 C41 1.491 . S
C46 C48 1.382 . S
C46 C50 1.404 . S
H47 C45 0.951 . S
C48 C46 1.382 . S
C48 C49 1.390 . S
C48 H53 0.949 . S
C49 C48 1.390 . S
C49 C54 1.399 1_554 S
C50 C46 1.404 . S
C50 H51 0.950 . S
C50 C52 1.375 1_554 S
H51 C50 0.950 . S
C52 C50 1.375 1_556 S
C52 C54 1.382 . S
C52 H56 0.950 . S
H53 C48 0.949 . S
C54 C49 1.399 1_556 S
C54 C52 1.382 . S
C54 H55 0.952 . S
H55 C54 0.952 . S
H56 C52 0.950 . S
H57 C58 0.949 . S
C58 H57 0.949 . S
C58 C59 1.395 . S
C58 C60 1.391 . S
C59 C58 1.395 . S
C59 C62 1.390 . S
C60 C58 1.391 . S
C60 C64 1.387 . S
C60 C65 1.491 . S
H61 C62 0.950 . S
C62 C59 1.390 . S
C62 H61 0.950 . S
C62 C63 1.378 . S
C63 C62 1.378 . S
C63 C64 1.409 . S
C64 C60 1.387 . S
C64 C63 1.409 . S
C64 H66 0.951 . S
C65 C60 1.491 . S
C65 C67 1.382 . S
C65 C69 1.404 . S
H66 C64 0.951 . S
C67 C65 1.382 . S
C67 C68 1.390 . S
C67 H72 0.949 . S
C68 C67 1.390 . S
C68 C73 1.399 . S
C69 C65 1.404 . S
C69 H70 0.950 . S
C69 C71 1.375 . S
H70 C69 0.950 . S
C71 C69 1.375 . S
C71 C73 1.382 . S
C71 H75 0.950 . S
H72 C67 0.949 . S
C73 C68 1.399 . S
C73 C71 1.382 . S
C73 H74 0.952 . S
H74 C73 0.952 . S
H75 C71 0.950 . S
H76 C77 0.949 . S
C77 H76 0.949 . S
C77 C78 1.395 . S
C77 C79 1.391 . S
C78 C77 1.395 . S
C78 C81 1.390 . S
C79 C77 1.391 . S
C79 C83 1.387 . S
C79 C84 1.491 . S
H80 C81 0.950 . S
C81 C78 1.390 . S
C81 H80 0.950 . S
C81 C82 1.378 . S
C82 C81 1.378 . S
C82 C83 1.409 . S
C83 C79 1.387 . S
C83 C82 1.409 . S
C83 H85 0.951 . S
C84 C79 1.491 . S
C84 C86 1.382 . S
C84 C88 1.404 . S
H85 C83 0.951 . S
C86 C84 1.382 . S
C86 C87 1.390 . S
C86 H91 0.949 . S
C87 C86 1.390 . S
C87 C92 1.399 . S
C88 C84 1.404 . S
C88 H89 0.950 . S
C88 C90 1.375 . S
H89 C88 0.950 . S
C90 C88 1.375 . S
C90 C92 1.382 . S
C90 H94 0.950 . S
H91 C86 0.949 . S
C92 C87 1.399 . S
C92 C90 1.382 . S
C92 H93 0.952 . S
H93 C92 0.952 . S
H94 C90 0.950 . S
H95 C96 0.949 . S
C96 H95 0.949 . S
C96 C97 1.395 . S
C96 C98 1.391 . S
C97 C96 1.395 . S
C97 C100 1.390 . S
C98 C96 1.391 . S
C98 C102 1.387 . S
C98 C103 1.491 . S
H99 C100 0.950 . S
C100 C97 1.390 . S
C100 H99 0.950 . S
C100 C101 1.378 . S
C101 C100 1.378 . S
C101 C102 1.409 . S
C102 C98 1.387 . S
C102 C101 1.409 . S
C102 H104 0.951 . S
C103 C98 1.491 . S
C103 C105 1.382 . S
C103 C107 1.404 . S
H104 C102 0.951 . S
C105 C103 1.382 . S
C105 C106 1.390 . S
C105 H110 0.949 . S
C106 C105 1.390 . S
C106 C111 1.399 . S
C107 C103 1.404 . S
C107 H108 0.950 . S
C107 C109 1.375 . S
H108 C107 0.950 . S
C109 C107 1.375 . S
C109 C111 1.382 . S
C109 H113 0.950 . S
H110 C105 0.949 . S
C111 C106 1.399 . S
C111 C109 1.382 . S
C111 H112 0.952 . S
H112 C111 0.952 . S
H113 C109 0.950 . S
H114 C115 0.949 . S
C115 H114 0.949 . S
C115 C116 1.395 . S
C115 C117 1.391 . S
C116 C115 1.395 . S
C116 C119 1.390 . S
C117 C115 1.391 . S
C117 C121 1.387 . S
C117 C122 1.491 . S
H118 C119 0.950 . S
C119 C116 1.390 . S
C119 H118 0.950 . S
C119 C120 1.378 . S
C120 C119 1.378 . S
C120 C121 1.409 . S
C121 C117 1.387 . S
C121 C120 1.409 . S
C121 H123 0.951 . S
C122 C117 1.491 . S
C122 C124 1.382 . S
C122 C126 1.404 . S
H123 C121 0.951 . S
C124 C122 1.382 . S
C124 C125 1.390 . S
C124 H129 0.949 . S
C125 C124 1.390 . S
C125 C130 1.399 . S
C126 C122 1.404 . S
C126 H127 0.950 . S
C126 C128 1.375 . S
H127 C126 0.950 . S
C128 C126 1.375 . S
C128 C130 1.382 . S
C128 H132 0.950 . S
H129 C124 0.949 . S
C130 C125 1.399 . S
C130 C128 1.382 . S
C130 H131 0.952 . S
H131 C130 0.952 . S
H132 C128 0.950 . S
H133 C134 0.949 . S
C134 H133 0.949 . S
C134 C135 1.395 . S
C134 C136 1.391 . S
C135 C134 1.395 . S
C135 C138 1.390 . S
C136 C134 1.391 . S
C136 C140 1.387 . S
C136 C141 1.491 . S
H137 C138 0.950 . S
C138 C135 1.390 . S
C138 H137 0.950 . S
C138 C139 1.378 . S
C139 C138 1.378 . S
C139 C140 1.409 . S
C140 C136 1.387 . S
C140 C139 1.409 . S
C140 H142 0.951 . S
C141 C136 1.491 . S
C141 C143 1.382 . S
C141 C145 1.404 . S
H142 C140 0.951 . S
C143 C141 1.382 . S
C143 C144 1.390 . S
C143 H148 0.949 . S
C144 C143 1.390 . S
C144 C149 1.399 . S
C145 C141 1.404 . S
C145 H146 0.950 . S
C145 C147 1.375 . S
H146 C145 0.950 . S
C147 C145 1.375 . S
C147 C149 1.382 . S
C147 H151 0.950 . S
H148 C143 0.949 . S
C149 C144 1.399 . S
C149 C147 1.382 . S
C149 H150 0.952 . S
H150 C149 0.952 . S
H151 C147 0.950 . S
H152 C153 0.949 . S
C153 H152 0.949 . S
C153 C154 1.395 . S
C153 C155 1.391 . S
C154 C153 1.395 . S
C154 C157 1.390 . S
C155 C153 1.391 . S
C155 C159 1.387 . S
C155 C160 1.491 . S
H156 C157 0.950 . S
C157 C154 1.390 . S
C157 H156 0.950 . S
C157 C158 1.378 . S
C158 C157 1.378 . S
C158 C159 1.409 . S
C159 C155 1.387 . S
C159 C158 1.409 . S
C159 H161 0.951 . S
C160 C155 1.491 . S
C160 C162 1.382 . S
C160 C164 1.404 . S
H161 C159 0.951 . S
C162 C160 1.382 . S
C162 C163 1.390 . S
C162 H167 0.949 . S
C163 C162 1.390 . S
C163 C168 1.399 . S
C164 C160 1.404 . S
C164 H165 0.950 . S
C164 C166 1.375 . S
H165 C164 0.950 . S
C166 C164 1.375 . S
C166 C168 1.382 . S
C166 H170 0.950 . S
H167 C162 0.949 . S
C168 C163 1.399 . S
C168 C166 1.382 . S
C168 H169 0.952 . S
H169 C168 0.952 . S
H170 C166 0.950 . S
H171 C172 0.949 . S
C172 H171 0.949 . S
C172 C173 1.395 . S
C172 C174 1.391 . S
C173 C172 1.395 . S
C173 C176 1.390 . S
C174 C172 1.391 . S
C174 C178 1.387 . S
C174 C179 1.491 . S
H175 C176 0.950 . S
C176 C173 1.390 . S
C176 H175 0.950 . S
C176 C177 1.378 . S
C177 C176 1.378 . S
C177 C178 1.409 . S
C178 C174 1.387 . S
C178 C177 1.409 . S
C178 H180 0.951 . S
C179 C174 1.491 . S
C179 C181 1.382 . S
C179 C183 1.404 . S
H180 C178 0.951 . S
C181 C179 1.382 . S
C181 C182 1.390 . S
C181 H186 0.949 . S
C182 C181 1.390 . S
C182 C187 1.399 . S
C183 C179 1.404 . S
C183 H184 0.950 . S
C183 C185 1.375 . S
H184 C183 0.950 . S
C185 C183 1.375 . S
C185 C187 1.382 . S
C185 H189 0.950 . S
H186 C181 0.949 . S
C187 C182 1.399 . S
C187 C185 1.382 . S
C187 H188 0.952 . S
H188 C187 0.952 . S
H189 C185 0.950 . S
H190 C191 0.949 . S
C191 H190 0.949 . S
C191 C192 1.395 . S
C191 C193 1.391 . S
C192 C191 1.395 . S
C192 C195 1.390 . S
C193 C191 1.391 . S
C193 C197 1.387 . S
C193 C198 1.491 . S
H194 C195 0.950 . S
C195 C192 1.390 . S
C195 H194 0.950 . S
C195 C196 1.378 . S
C196 C195 1.378 . S
C196 C197 1.409 . S
C197 C193 1.387 . S
C197 C196 1.409 . S
C197 H199 0.951 . S
C198 C193 1.491 . S
C198 C200 1.382 . S
C198 C202 1.404 . S
H199 C197 0.951 . S
C200 C198 1.382 . S
C200 C201 1.390 . S
C200 H205 0.949 . S
C201 C200 1.390 . S
C201 C206 1.399 . S
C202 C198 1.404 . S
C202 H203 0.950 . S
C202 C204 1.375 . S
H203 C202 0.950 . S
C204 C202 1.375 . S
C204 C206 1.382 . S
C204 H208 0.950 . S
H205 C200 0.949 . S
C206 C201 1.399 . S
C206 C204 1.382 . S
C206 H207 0.952 . S
H207 C206 0.952 . S
H208 C204 0.950 . S
H209 C210 0.949 . S
C210 H209 0.949 . S
C210 C211 1.395 . S
C210 C212 1.391 . S
C211 C210 1.395 . S
C211 C214 1.390 . S
C212 C210 1.391 . S
C212 C216 1.387 . S
C212 C217 1.491 . S
H213 C214 0.950 . S
C214 C211 1.390 . S
C214 H213 0.950 . S
C214 C215 1.378 . S
C215 C214 1.378 . S
C215 C216 1.409 . S
C216 C212 1.387 . S
C216 C215 1.409 . S
C216 H218 0.951 . S
C217 C212 1.491 . S
C217 C219 1.382 . S
C217 C221 1.404 . S
H218 C216 0.951 . S
C219 C217 1.382 . S
C219 C220 1.390 . S
C219 H224 0.949 . S
C220 C219 1.390 . S
C220 C225 1.399 . S
C221 C217 1.404 . S
C221 H222 0.950 . S
C221 C223 1.375 . S
H222 C221 0.950 . S
C223 C221 1.375 . S
C223 C225 1.382 . S
C223 H227 0.950 . S
H224 C219 0.949 . S
C225 C220 1.399 . S
C225 C223 1.382 . S
C225 H226 0.952 . S
H226 C225 0.952 . S
H227 C223 0.950 . S
H228 C229 0.949 . S
C229 H228 0.949 . S
C229 C230 1.395 . S
C229 C231 1.391 . S
C230 C229 1.395 . S
C230 C233 1.390 . S
C231 C229 1.391 . S
C231 C235 1.387 . S
C231 C236 1.491 . S
H232 C233 0.950 . S
C233 C230 1.390 . S
C233 H232 0.950 . S
C233 C234 1.378 . S
C234 C233 1.378 . S
C234 C235 1.409 . S
C235 C231 1.387 . S
C235 C234 1.409 . S
C235 H237 0.951 . S
C236 C231 1.491 . S
C236 C238 1.382 . S
C236 C240 1.404 . S
H237 C235 0.951 . S
C238 C236 1.382 . S
C238 C239 1.390 . S
C238 H243 0.949 . S
C239 C238 1.390 . S
C239 C244 1.399 . S
C240 C236 1.404 . S
C240 H241 0.950 . S
C240 C242 1.375 . S
H241 C240 0.950 . S
C242 C240 1.375 . S
C242 C244 1.382 . S
C242 H246 0.950 . S
H243 C238 0.949 . S
C244 C239 1.399 . S
C244 C242 1.382 . S
C244 H245 0.952 . S
H245 C244 0.952 . S
H246 C242 0.950 . S
H247 C248 0.949 . S
C248 H247 0.949 . S
C248 C249 1.395 . S
C248 C250 1.391 . S
C249 C248 1.395 . S
C249 C252 1.390 . S
C250 C248 1.391 . S
C250 C254 1.387 . S
C250 C255 1.491 . S
H251 C252 0.950 . S
C252 C249 1.390 . S
C252 H251 0.950 . S
C252 C253 1.378 . S
C253 C252 1.378 . S
C253 C254 1.409 . S
C254 C250 1.387 . S
C254 C253 1.409 . S
C254 H256 0.951 . S
C255 C250 1.491 . S
C255 C257 1.382 . S
C255 C259 1.404 . S
H256 C254 0.951 . S
C257 C255 1.382 . S
C257 C258 1.390 . S
C257 H262 0.949 . S
C258 C257 1.390 . S
C258 C263 1.399 . S
C259 C255 1.404 . S
C259 H260 0.950 . S
C259 C261 1.375 . S
H260 C259 0.950 . S
C261 C259 1.375 . S
C261 C263 1.382 . S
C261 H265 0.950 . S
H262 C257 0.949 . S
C263 C258 1.399 . S
C263 C261 1.382 . S
C263 H264 0.952 . S
H264 C263 0.952 . S
H265 C261 0.950 . S
H266 C267 0.949 . S
C267 H266 0.949 . S
C267 C268 1.395 . S
C267 C269 1.391 . S
C268 C267 1.395 . S
C268 C271 1.390 . S
C269 C267 1.391 . S
C269 C273 1.387 . S
C269 C274 1.491 . S
H270 C271 0.950 . S
C271 C268 1.390 . S
C271 H270 0.950 . S
C271 C272 1.378 . S
C272 C271 1.378 . S
C272 C273 1.409 . S
C273 C269 1.387 . S
C273 C272 1.409 . S
C273 H275 0.951 . S
C274 C269 1.491 . S
C274 C276 1.382 . S
C274 C278 1.404 . S
H275 C273 0.951 . S
C276 C274 1.382 . S
C276 C277 1.390 . S
C276 H281 0.949 . S
C277 C276 1.390 . S
C277 C282 1.399 . S
C278 C274 1.404 . S
C278 H279 0.950 . S
C278 C280 1.375 . S
H279 C278 0.950 . S
C280 C278 1.375 . S
C280 C282 1.382 . S
C280 H284 0.950 . S
H281 C276 0.949 . S
C282 C277 1.399 . S
C282 C280 1.382 . S
C282 H283 0.952 . S
H283 C282 0.952 . S
H284 C280 0.950 . S
H285 C286 0.949 . S
C286 H285 0.949 . S
C286 C287 1.395 . S
C286 C288 1.391 . S
C287 C286 1.395 . S
C287 C290 1.390 . S
C288 C286 1.391 . S
C288 C292 1.387 . S
C288 C293 1.491 . S
H289 C290 0.950 . S
C290 C287 1.390 . S
C290 H289 0.950 . S
C290 C291 1.378 . S
C291 C290 1.378 . S
C291 C292 1.409 . S
C292 C288 1.387 . S
C292 C291 1.409 . S
C292 H294 0.951 . S
C293 C288 1.491 . S
C293 C295 1.382 . S
C293 C297 1.404 . S
H294 C292 0.951 . S
C295 C293 1.382 . S
C295 C296 1.390 . S
C295 H300 0.949 . S
C296 C295 1.390 . S
C296 C301 1.399 . S
C297 C293 1.404 . S
C297 H298 0.950 . S
C297 C299 1.375 . S
H298 C297 0.950 . S
C299 C297 1.375 . S
C299 C301 1.382 . S
C299 H303 0.950 . S
H300 C295 0.949 . S
C301 C296 1.399 . S
C301 C299 1.382 . S
C301 H302 0.952 . S
H302 C301 0.952 . S
H303 C299 0.950 . S
O304 Cd305 2.223 . S
O304 C312 1.315 . S
Cd305 O304 2.223 . S
Cd305 O308 2.297 . S
Cd305 O309 2.439 . S
Cd305 O315 2.240 . S
Cd306 O307 2.240 . S
Cd306 O314 2.223 . S
Cd306 O316 2.297 . S
Cd306 O317 2.439 . S
O307 Cd306 2.240 . S
O307 C312 1.279 . S
O308 Cd305 2.297 . S
O308 C310 1.247 . S
O309 Cd305 2.439 . S
O309 C310 1.208 . S
C310 O308 1.247 . S
C310 O309 1.208 . S
C311 O316 1.247 . S
C311 O317 1.208 . S
C312 O304 1.315 . S
C312 O307 1.279 . S
C313 O314 1.315 . S
C313 O315 1.279 . S
O314 Cd306 2.223 . S
O314 C313 1.315 . S
O315 Cd305 2.240 . S
O315 C313 1.279 . S
O316 Cd306 2.297 . S
O316 C311 1.247 . S
O317 Cd306 2.439 . S
O317 C311 1.208 . S
O318 Cd319 2.223 . S
O318 C326 1.315 . S
Cd319 O318 2.223 . S
Cd319 O322 2.297 . S
Cd319 O323 2.439 . S
Cd319 O329 2.240 . S
Cd320 O321 2.240 . S
Cd320 O328 2.223 . S
Cd320 O330 2.297 . S
Cd320 O331 2.439 . S
O321 Cd320 2.240 . S
O321 C326 1.279 . S
O322 Cd319 2.297 . S
O322 C324 1.247 . S
O323 Cd319 2.439 . S
O323 C324 1.208 . S
C324 O322 1.247 . S
C324 O323 1.208 . S
C325 O330 1.247 . S
C325 O331 1.208 . S
C326 O318 1.315 . S
C326 O321 1.279 . S
C327 O328 1.315 . S
C327 O329 1.279 . S
O328 Cd320 2.223 . S
O328 C327 1.315 . S
O329 Cd319 2.240 . S
O329 C327 1.279 . S
O330 Cd320 2.297 . S
O330 C325 1.247 . S
O331 Cd320 2.439 . S
O331 C325 1.208 . S
O332 Cd333 2.223 1_556 S
O332 C340 1.315 . S
Cd333 O332 2.223 1_554 S
Cd333 O336 2.297 . S
Cd333 O337 2.439 . S
Cd333 O343 2.247 . S
Cd334 O335 2.240 . S
Cd334 O342 2.223 . S
Cd334 O344 2.297 . S
Cd334 O345 2.439 1_556 S
O335 Cd334 2.240 . S
O335 C340 1.279 . S
O336 Cd333 2.297 . S
O336 C338 1.247 . S
O337 Cd333 2.439 . S
O337 C338 1.208 . S
C338 O336 1.247 . S
C338 O337 1.208 . S
C339 O344 1.247 1_554 S
C339 O345 1.208 . S
C340 O332 1.315 . S
C340 O335 1.279 . S
C341 O342 1.315 . S
C341 O343 1.254 1_556 S
O342 Cd334 2.223 . S
O342 C341 1.315 . S
O343 Cd333 2.247 . S
O343 C341 1.254 1_554 S
O344 Cd334 2.297 . S
O344 C339 1.247 1_556 S
O345 Cd334 2.439 1_554 S
O345 C339 1.208 . S
O346 Cd347 2.223 . S
O346 C354 1.315 . S
Cd347 O346 2.223 . S
Cd347 O350 2.297 1_655 S
Cd347 O351 2.439 . S
Cd347 O357 2.240 . S
Cd348 O349 2.240 . S
Cd348 O356 2.223 . S
Cd348 O358 2.297 . S
Cd348 O359 2.439 . S
O349 Cd348 2.240 . S
O349 C354 1.279 . S
O350 Cd347 2.297 1_455 S
O350 C352 1.247 . S
O351 Cd347 2.439 . S
O351 C352 1.208 1_655 S
C352 O350 1.247 . S
C352 O351 1.208 1_455 S
C353 O358 1.247 . S
C353 O359 1.208 . S
C354 O346 1.315 . S
C354 O349 1.279 . S
C355 O356 1.315 . S
C355 O357 1.279 . S
O356 Cd348 2.223 . S
O356 C355 1.315 . S
O357 Cd347 2.240 . S
O357 C355 1.279 . S
O358 Cd348 2.297 . S
O358 C353 1.247 . S
O359 Cd348 2.439 . S
O359 C353 1.208 . S
O360 Cd361 2.223 . S
O360 C368 1.315 . S
Cd361 O360 2.223 . S
Cd361 O364 2.297 . S
Cd361 O365 2.439 . S
Cd361 O371 2.240 . S
Cd362 O363 2.240 . S
Cd362 O370 2.223 . S
Cd362 O372 2.297 . S
Cd362 O373 2.439 . S
O363 Cd362 2.240 . S
O363 C368 1.279 . S
O364 Cd361 2.297 . S
O364 C366 1.247 . S
O365 Cd361 2.439 . S
O365 C366 1.208 . S
C366 O364 1.247 . S
C366 O365 1.208 . S
C367 O372 1.247 . S
C367 O373 1.208 . S
C368 O360 1.315 . S
C368 O363 1.279 . S
C369 O370 1.315 . S
C369 O371 1.279 . S
O370 Cd362 2.223 . S
O370 C369 1.315 . S
O371 Cd361 2.240 . S
O371 C369 1.279 . S
O372 Cd362 2.297 . S
O372 C367 1.247 . S
O373 Cd362 2.439 . S
O373 C367 1.208 . S
O374 Cd375 2.223 . S
O374 C382 1.315 . S
Cd375 O374 2.223 . S
Cd375 O378 2.297 . S
Cd375 O379 2.439 . S
Cd375 O385 2.240 . S
Cd376 O377 2.240 . S
Cd376 O384 2.223 . S
Cd376 O386 2.297 . S
Cd376 O387 2.439 . S
O377 Cd376 2.240 . S
O377 C382 1.279 . S
O378 Cd375 2.297 . S
O378 C380 1.247 . S
O379 Cd375 2.439 . S
O379 C380 1.208 . S
C380 O378 1.247 . S
C380 O379 1.208 . S
C381 O386 1.247 . S
C381 O387 1.208 . S
C382 O374 1.315 . S
C382 O377 1.279 . S
C383 O384 1.315 . S
C383 O385 1.279 . S
O384 Cd376 2.223 . S
O384 C383 1.315 . S
O385 Cd375 2.240 . S
O385 C383 1.279 . S
O386 Cd376 2.297 . S
O386 C381 1.247 . S
O387 Cd376 2.439 . S
O387 C381 1.208 . S
O388 Cd389 2.223 . S
O388 C396 1.315 . S
Cd389 O388 2.223 . S
Cd389 O392 2.297 . S
Cd389 O393 2.439 . S
Cd389 O399 2.240 . S
Cd390 O391 2.240 . S
Cd390 O398 2.223 . S
Cd390 O400 2.297 . S
Cd390 O401 2.439 . S
O391 Cd390 2.240 . S
O391 C396 1.279 . S
O392 Cd389 2.297 . S
O392 C394 1.247 . S
O393 Cd389 2.439 . S
O393 C394 1.208 . S
C394 O392 1.247 . S
C394 O393 1.208 . S
C395 O400 1.247 . S
C395 O401 1.208 . S
C396 O388 1.315 . S
C396 O391 1.279 . S
C397 O398 1.315 . S
C397 O399 1.279 . S
O398 Cd390 2.223 . S
O398 C397 1.315 . S
O399 Cd389 2.240 . S
O399 C397 1.279 . S
O400 Cd390 2.297 . S
O400 C395 1.247 . S
O401 Cd390 2.439 . S
O401 C395 1.208 . S
O402 Cd403 2.223 1_545 S
O402 C410 1.315 . S
Cd403 O402 2.223 1_565 S
Cd403 O406 2.297 . S
Cd403 O407 2.439 . S
Cd403 O413 2.240 1_565 S
Cd404 O405 2.240 . S
Cd404 O412 2.223 . S
Cd404 O414 2.300 . S
Cd404 O415 2.439 1_545 S
O405 Cd404 2.240 . S
O405 C410 1.279 . S
O406 Cd403 2.297 . S
O406 C408 1.247 . S
O407 Cd403 2.439 . S
O407 C408 1.208 . S
C408 O406 1.247 . S
C408 O407 1.208 . S
C409 O414 1.236 1_565 S
C409 O415 1.208 . S
C410 O402 1.315 . S
C410 O405 1.279 . S
C411 O412 1.315 . S
C411 O413 1.279 . S
O412 Cd404 2.223 . S
O412 C411 1.315 . S
O413 Cd403 2.240 1_545 S
O413 C411 1.279 . S
O414 Cd404 2.300 . S
O414 C409 1.236 1_545 S
O415 Cd404 2.439 1_565 S
O415 C409 1.208 . S
O416 Cd417 2.223 . S
O416 C424 1.315 . S
Cd417 O416 2.223 . S
Cd417 O420 2.297 1_655 S
Cd417 O421 2.439 1_655 S
Cd417 O427 2.240 . S
Cd418 O419 2.240 . S
Cd418 O426 2.223 1_455 S
Cd418 O428 2.297 . S
Cd418 O429 2.439 . S
O419 Cd418 2.240 . S
O419 C424 1.279 1_455 S
O420 Cd417 2.297 1_455 S
O420 C422 1.247 . S
O421 Cd417 2.439 1_455 S
O421 C422 1.208 . S
C422 O420 1.247 . S
C422 O421 1.208 . S
C423 O428 1.247 . S
C423 O429 1.208 . S
C424 O416 1.315 . S
C424 O419 1.279 1_655 S
C425 O426 1.315 . S
C425 O427 1.279 . S
O426 Cd418 2.223 1_655 S
O426 C425 1.315 . S
O427 Cd417 2.240 . S
O427 C425 1.279 . S
O428 Cd418 2.297 . S
O428 C423 1.247 . S
O429 Cd418 2.439 . S
O429 C423 1.208 . S
O430 Cd431 2.223 . S
O430 C438 1.315 . S
Cd431 O430 2.223 . S
Cd431 O434 2.297 . S
Cd431 O435 2.439 . S
Cd431 O441 2.240 . S
Cd432 O433 2.240 . S
Cd432 O440 2.223 . S
Cd432 O442 2.297 . S
Cd432 O443 2.439 . S
O433 Cd432 2.240 . S
O433 C438 1.279 . S
O434 Cd431 2.297 . S
O434 C436 1.247 . S
O435 Cd431 2.439 . S
O435 C436 1.208 . S
C436 O434 1.247 . S
C436 O435 1.208 . S
C437 O442 1.247 . S
C437 O443 1.208 . S
C438 O430 1.315 . S
C438 O433 1.279 . S
C439 O440 1.315 . S
C439 O441 1.279 . S
O440 Cd432 2.223 . S
O440 C439 1.315 . S
O441 Cd431 2.240 . S
O441 C439 1.279 . S
O442 Cd432 2.297 . S
O442 C437 1.247 . S
O443 Cd432 2.439 . S
O443 C437 1.208 . S
O444 Cd445 2.223 1_655 S
O444 C452 1.315 . S
Cd445 O444 2.223 1_455 S
Cd445 O448 2.297 . S
Cd445 O449 2.439 . S
Cd445 O455 2.240 . S
Cd446 O447 2.240 . S
Cd446 O454 2.223 1_455 S
Cd446 O456 2.297 . S
Cd446 O457 2.439 . S
O447 Cd446 2.240 . S
O447 C452 1.279 1_455 S
O448 Cd445 2.297 . S
O448 C450 1.247 . S
O449 Cd445 2.439 . S
O449 C450 1.208 . S
C450 O448 1.247 . S
C450 O449 1.208 . S
C451 O456 1.247 . S
C451 O457 1.208 . S
C452 O444 1.315 . S
C452 O447 1.279 1_655 S
C453 O454 1.315 1_455 S
C453 O455 1.279 . S
O454 Cd446 2.223 1_655 S
O454 C453 1.315 1_655 S
O455 Cd445 2.240 . S
O455 C453 1.279 . S
O456 Cd446 2.297 . S
O456 C451 1.247 . S
O457 Cd446 2.439 . S
O457 C451 1.208 . S
O458 Cd459 2.223 . S
O458 C466 1.315 . S
Cd459 O458 2.223 . S
Cd459 O462 2.297 . S
Cd459 O463 2.439 . S
Cd459 O469 2.240 . S
Cd460 O461 2.240 . S
Cd460 O468 2.223 . S
Cd460 O470 2.297 . S
Cd460 O471 2.439 . S
O461 Cd460 2.240 . S
O461 C466 1.279 . S
O462 Cd459 2.297 . S
O462 C464 1.247 . S
O463 Cd459 2.439 . S
O463 C464 1.208 . S
C464 O462 1.247 . S
C464 O463 1.208 . S
C465 O470 1.247 . S
C465 O471 1.208 . S
C466 O458 1.315 . S
C466 O461 1.279 . S
C467 O468 1.315 . S
C467 O469 1.279 . S
O468 Cd460 2.223 . S
O468 C467 1.315 . S
O469 Cd459 2.240 . S
O469 C467 1.279 . S
O470 Cd460 2.297 . S
O470 C465 1.247 . S
O471 Cd460 2.439 . S
O471 C465 1.208 . S
H472 C490 0.951 . S
H473 C492 0.951 . S
H474 C494 0.950 . S
H475 C495 0.950 . S
H476 C497 0.950 . S
H477 C500 0.950 . S
H478 C501 0.950 . S
H479 C503 0.950 . S
H480 C504 0.950 . S
H481 C505 0.951 . S
H482 C507 0.951 1_556 S
H483 C509 0.950 . S
H484 C510 0.950 . S
H485 C512 0.950 . S
H486 C515 0.950 . S
H487 C516 0.950 . S
H488 C518 0.950 . S
H489 C519 0.950 . S
C490 H472 0.951 . S
C490 C491 1.366 . S
C490 C492 1.388 . S
C491 C490 1.366 . S
C491 C495 1.385 . S
C492 H473 0.951 . S
C492 C490 1.388 . S
C492 C493 1.366 . S
C493 C492 1.366 . S
C493 C494 1.414 . S
C493 C496 1.499 . S
C494 H474 0.950 . S
C494 C493 1.414 . S
C494 C495 1.374 . S
C495 H475 0.950 . S
C495 C491 1.385 . S
C495 C494 1.374 . S
C496 C493 1.499 . S
C496 C497 1.373 . S
C496 C498 1.389 . S
C497 H476 0.950 . S
C497 C496 1.373 . S
C497 C513 1.377 . S
C498 C496 1.389 . S
C498 C499 1.524 . S
C498 C512 1.377 . S
C499 C498 1.524 . S
C499 C500 1.397 . S
C499 C504 1.363 . S
C500 H477 0.950 . S
C500 C499 1.397 . S
C500 C501 1.334 . S
C501 H478 0.950 . S
C501 C500 1.334 . S
C501 C502 1.287 . S
C502 C501 1.287 . S
C502 C503 1.524 . S
C502 H521 0.913 . S
C503 H479 0.950 . S
C503 C502 1.524 . S
C503 C504 1.415 . S
C504 H480 0.950 . S
C504 C499 1.363 . S
C504 C503 1.415 . S
C505 H481 0.951 . S
C505 C506 1.366 . S
C505 C507 1.388 . S
C506 C505 1.366 . S
C506 C510 1.385 . S
C507 H482 0.951 1_554 S
C507 C505 1.388 . S
C507 C508 1.366 1_554 S
C508 C507 1.366 1_556 S
C508 C509 1.414 1_556 S
C508 C511 1.499 . S
C509 H483 0.950 . S
C509 C508 1.414 1_554 S
C509 C510 1.374 . S
C510 H484 0.950 . S
C510 C506 1.385 . S
C510 C509 1.374 . S
C511 C508 1.499 . S
C511 C512 1.373 . S
C511 C513 1.389 . S
C512 H485 0.950 . S
C512 C498 1.377 . S
C512 C511 1.373 . S
C513 C497 1.377 . S
C513 C511 1.389 . S
C513 C514 1.524 . S
C514 C513 1.524 . S
C514 C515 1.397 . S
C514 C519 1.363 . S
C515 H486 0.950 . S
C515 C514 1.397 . S
C515 C516 1.334 . S
C516 H487 0.950 . S
C516 C515 1.334 . S
C516 C517 1.287 . S
C517 C516 1.287 . S
C517 C518 1.524 . S
C517 H520 0.999 . S
C518 H488 0.950 . S
C518 C517 1.524 . S
C518 C519 1.415 . S
C519 H489 0.950 . S
C519 C514 1.363 . S
C519 C518 1.415 . S
H520 C517 0.999 . S
H521 C502 0.913 . S
H522 C540 0.951 . S
H523 C542 0.951 . S
H524 C544 0.950 . S
H525 C545 0.950 . S
H526 C547 0.950 . S
H527 C550 0.950 . S
H528 C551 0.950 . S
H529 C553 0.950 . S
H530 C554 0.950 1_455 S
H531 C555 0.951 . S
H532 C557 0.951 . S
H533 C559 0.950 . S
H534 C560 0.950 . S
H535 C562 0.950 . S
H536 C565 0.950 . S
H537 C566 0.950 . S
H538 C568 0.950 . S
H539 C569 0.950 . S
C540 H522 0.951 . S
C540 C541 1.366 . S
C540 C542 1.388 . S
C541 C540 1.366 . S
C541 C545 1.385 . S
C542 H523 0.951 . S
C542 C540 1.388 . S
C542 C543 1.366 . S
C543 C542 1.366 . S
C543 C544 1.414 . S
C543 C546 1.499 1_655 S
C544 H524 0.950 . S
C544 C543 1.414 . S
C544 C545 1.374 . S
C545 H525 0.950 . S
C545 C541 1.385 . S
C545 C544 1.374 . S
C546 C543 1.499 1_455 S
C546 C547 1.373 . S
C546 C548 1.389 . S
C547 H526 0.950 . S
C547 C546 1.373 . S
C547 C563 1.377 . S
C548 C546 1.389 . S
C548 C549 1.524 1_455 S
C548 C562 1.377 . S
C549 C548 1.524 1_655 S
C549 C550 1.397 . S
C549 C554 1.363 . S
C550 H527 0.950 . S
C550 C549 1.397 . S
C550 C551 1.334 . S
C551 H528 0.950 . S
C551 C550 1.334 . S
C551 C552 1.287 . S
C552 C551 1.287 . S
C552 C553 1.524 . S
C552 H571 0.913 . S
C553 H529 0.950 . S
C553 C552 1.524 . S
C553 C554 1.415 . S
C554 H530 0.950 1_655 S
C554 C549 1.363 . S
C554 C553 1.415 . S
C555 H531 0.951 . S
C555 C556 1.366 . S
C555 C557 1.388 . S
C556 C555 1.366 . S
C556 C560 1.385 . S
C557 H532 0.951 . S
C557 C555 1.388 . S
C557 C558 1.366 . S
C558 C557 1.366 . S
C558 C559 1.414 . S
C558 C561 1.499 . S
C559 H533 0.950 . S
C559 C558 1.414 . S
C559 C560 1.374 . S
C560 H534 0.950 . S
C560 C556 1.385 . S
C560 C559 1.374 . S
C561 C558 1.499 . S
C561 C562 1.373 . S
C561 C563 1.389 . S
C562 H535 0.950 . S
C562 C548 1.377 . S
C562 C561 1.373 . S
C563 C547 1.377 . S
C563 C561 1.389 . S
C563 C564 1.524 . S
C564 C563 1.524 . S
C564 C565 1.397 . S
C564 C569 1.363 . S
C565 H536 0.950 . S
C565 C564 1.397 . S
C565 C566 1.334 . S
C566 H537 0.950 . S
C566 C565 1.334 . S
C566 C567 1.287 . S
C567 C566 1.287 . S
C567 C568 1.524 . S
C567 H570 0.999 . S
C568 H538 0.950 . S
C568 C567 1.524 . S
C568 C569 1.415 . S
C569 H539 0.950 . S
C569 C564 1.363 . S
C569 C568 1.415 . S
H570 C567 0.999 . S
H571 C552 0.913 . S
H572 C590 0.951 . S
H573 C592 0.951 . S
H574 C594 0.950 . S
H575 C595 0.950 . S
H576 C597 0.950 . S
H577 C600 0.950 . S
H578 C601 0.950 . S
H579 C603 0.950 . S
H580 C604 0.950 . S
H581 C605 0.951 . S
H582 C607 0.951 . S
H583 C609 0.950 . S
H584 C610 0.950 . S
H585 C612 0.950 . S
H586 C615 0.950 . S
H587 C616 0.950 . S
H588 C618 0.950 . S
H589 C619 0.950 . S
C590 H572 0.951 . S
C590 C591 1.366 . S
C590 C592 1.388 . S
C591 C590 1.366 . S
C591 C595 1.385 . S
C592 H573 0.951 . S
C592 C590 1.388 . S
C592 C593 1.366 . S
C593 C592 1.366 . S
C593 C594 1.414 . S
C593 C596 1.499 . S
C594 H574 0.950 . S
C594 C593 1.414 . S
C594 C595 1.374 . S
C595 H575 0.950 . S
C595 C591 1.385 . S
C595 C594 1.374 . S
C596 C593 1.499 . S
C596 C597 1.373 . S
C596 C598 1.389 . S
C597 H576 0.950 . S
C597 C596 1.373 . S
C597 C613 1.377 . S
C598 C596 1.389 . S
C598 C599 1.524 . S
C598 C612 1.377 . S
C599 C598 1.524 . S
C599 C600 1.397 . S
C599 C604 1.363 . S
C600 H577 0.950 . S
C600 C599 1.397 . S
C600 C601 1.334 . S
C601 H578 0.950 . S
C601 C600 1.334 . S
C601 C602 1.287 . S
C602 C601 1.287 . S
C602 C603 1.524 . S
C602 H621 0.913 . S
C603 H579 0.950 . S
C603 C602 1.524 . S
C603 C604 1.415 . S
C604 H580 0.950 . S
C604 C599 1.363 . S
C604 C603 1.415 . S
C605 H581 0.951 . S
C605 C606 1.366 . S
C605 C607 1.388 . S
C606 C605 1.366 . S
C606 C610 1.385 . S
C607 H582 0.951 . S
C607 C605 1.388 . S
C607 C608 1.366 . S
C608 C607 1.366 . S
C608 C609 1.414 . S
C608 C611 1.499 . S
C609 H583 0.950 . S
C609 C608 1.414 . S
C609 C610 1.374 . S
C610 H584 0.950 . S
C610 C606 1.385 . S
C610 C609 1.374 . S
C611 C608 1.499 . S
C611 C612 1.373 . S
C611 C613 1.389 . S
C612 H585 0.950 . S
C612 C598 1.377 . S
C612 C611 1.373 . S
C613 C597 1.377 . S
C613 C611 1.389 . S
C613 C614 1.524 . S
C614 C613 1.524 . S
C614 C615 1.397 . S
C614 C619 1.363 . S
C615 H586 0.950 . S
C615 C614 1.397 . S
C615 C616 1.334 . S
C616 H587 0.950 . S
C616 C615 1.334 . S
C616 C617 1.287 . S
C617 C616 1.287 . S
C617 C618 1.524 . S
C617 H620 0.999 . S
C618 H588 0.950 . S
C618 C617 1.524 . S
C618 C619 1.415 . S
C619 H589 0.950 . S
C619 C614 1.363 . S
C619 C618 1.415 . S
H620 C617 0.999 . S
H621 C602 0.913 . S
H622 C640 0.951 . S
H623 C642 0.951 . S
H624 C644 0.950 . S
H625 C645 0.950 . S
H626 C647 0.950 . S
H627 C650 0.950 . S
H628 C651 0.950 . S
H629 C653 0.950 . S
H630 C654 0.950 . S
H631 C655 0.951 1_655 S
H632 C657 0.951 . S
H633 C659 0.950 . S
H634 C660 0.950 . S
H635 C662 0.950 . S
H636 C665 0.950 . S
H637 C666 0.950 . S
H638 C668 0.950 . S
H639 C669 0.952 . S
C640 H622 0.951 . S
C640 C641 1.366 . S
C640 C642 1.388 . S
C641 C640 1.366 . S
C641 C645 1.385 . S
C642 H623 0.951 . S
C642 C640 1.388 . S
C642 C643 1.366 . S
C643 C642 1.366 . S
C643 C644 1.414 . S
C643 C646 1.499 . S
C644 H624 0.950 . S
C644 C643 1.414 . S
C644 C645 1.374 . S
C645 H625 0.950 . S
C645 C641 1.385 . S
C645 C644 1.374 . S
C646 C643 1.499 . S
C646 C647 1.373 . S
C646 C648 1.389 1_565 S
C647 H626 0.950 . S
C647 C646 1.373 . S
C647 C663 1.407 . S
C648 C646 1.389 1_545 S
C648 C649 1.524 . S
C648 C662 1.377 . S
C649 C648 1.524 . S
C649 C650 1.397 . S
C649 C654 1.363 . S
C650 H627 0.950 . S
C650 C649 1.397 . S
C650 C651 1.334 . S
C651 H628 0.950 . S
C651 C650 1.334 . S
C651 C652 1.287 . S
C652 C651 1.287 . S
C652 C653 1.524 . S
C652 H671 0.913 . S
C653 H629 0.950 . S
C653 C652 1.524 . S
C653 C654 1.415 . S
C654 H630 0.950 . S
C654 C649 1.363 . S
C654 C653 1.415 . S
C655 H631 0.951 1_455 S
C655 C656 1.366 . S
C655 C657 1.388 . S
C656 C655 1.366 . S
C656 C660 1.385 . S
C657 H632 0.951 . S
C657 C655 1.388 . S
C657 C658 1.366 . S
C658 C657 1.366 . S
C658 C659 1.414 . S
C658 C661 1.499 . S
C659 H633 0.950 . S
C659 C658 1.414 . S
C659 C660 1.374 . S
C660 H634 0.950 . S
C660 C656 1.385 . S
C660 C659 1.374 . S
C661 C658 1.499 . S
C661 C662 1.373 . S
C661 C663 1.358 1_545 S
C662 H635 0.950 . S
C662 C648 1.377 . S
C662 C661 1.373 . S
C663 C647 1.407 . S
C663 C661 1.358 1_565 S
C663 C664 1.531 . S
C664 C663 1.531 . S
C664 C665 1.397 . S
C664 C669 1.363 . S
C665 H636 0.950 . S
C665 C664 1.397 . S
C665 C666 1.334 1_455 S
C666 H637 0.950 . S
C666 C665 1.334 1_655 S
C666 C667 1.287 . S
C667 C666 1.287 . S
C667 C668 1.524 . S
C667 H670 0.999 . S
C668 H638 0.950 . S
C668 C667 1.524 . S
C668 C669 1.415 1_655 S
C669 H639 0.952 . S
C669 C664 1.363 . S
C669 C668 1.415 1_455 S
H670 C667 0.999 . S
H671 C652 0.913 . S
H672 C690 0.951 . S
H673 C692 0.951 . S
H674 C694 0.950 . S
H675 C695 0.950 . S
H676 C697 0.950 . S
H677 C700 0.950 . S
H678 C701 0.950 . S
H679 C703 0.950 . S
H680 C704 0.950 . S
H681 C705 0.951 . S
H682 C707 0.951 . S
H683 C709 0.950 . S
H684 C710 0.950 . S
H685 C712 0.950 . S
H686 C715 0.950 . S
H687 C716 0.950 . S
H688 C718 0.950 . S
H689 C719 0.950 . S
C690 H672 0.951 . S
C690 C691 1.366 . S
C690 C692 1.388 . S
C691 C690 1.366 . S
C691 C695 1.385 . S
C692 H673 0.951 . S
C692 C690 1.388 . S
C692 C693 1.366 . S
C693 C692 1.366 . S
C693 C694 1.414 . S
C693 C696 1.499 . S
C694 H674 0.950 . S
C694 C693 1.414 . S
C694 C695 1.374 . S
C695 H675 0.950 . S
C695 C691 1.385 . S
C695 C694 1.374 . S
C696 C693 1.499 . S
C696 C697 1.373 . S
C696 C698 1.389 . S
C697 H676 0.950 . S
C697 C696 1.373 . S
C697 C713 1.377 . S
C698 C696 1.389 . S
C698 C699 1.524 . S
C698 C712 1.377 . S
C699 C698 1.524 . S
C699 C700 1.397 . S
C699 C704 1.363 . S
C700 H677 0.950 . S
C700 C699 1.397 . S
C700 C701 1.334 . S
C701 H678 0.950 . S
C701 C700 1.334 . S
C701 C702 1.287 . S
C702 C701 1.287 . S
C702 C703 1.524 . S
C702 H721 0.913 . S
C703 H679 0.950 . S
C703 C702 1.524 . S
C703 C704 1.415 . S
C704 H680 0.950 . S
C704 C699 1.363 . S
C704 C703 1.415 . S
C705 H681 0.951 . S
C705 C706 1.366 . S
C705 C707 1.388 . S
C706 C705 1.366 . S
C706 C710 1.385 . S
C707 H682 0.951 . S
C707 C705 1.388 . S
C707 C708 1.366 . S
C708 C707 1.366 . S
C708 C709 1.414 . S
C708 C711 1.499 . S
C709 H683 0.950 . S
C709 C708 1.414 . S
C709 C710 1.374 . S
C710 H684 0.950 . S
C710 C706 1.385 . S
C710 C709 1.374 . S
C711 C708 1.499 . S
C711 C712 1.373 . S
C711 C713 1.389 . S
C712 H685 0.950 . S
C712 C698 1.377 . S
C712 C711 1.373 . S
C713 C697 1.377 . S
C713 C711 1.389 . S
C713 C714 1.524 . S
C714 C713 1.524 . S
C714 C715 1.397 . S
C714 C719 1.363 . S
C715 H686 0.950 . S
C715 C714 1.397 . S
C715 C716 1.334 . S
C716 H687 0.950 . S
C716 C715 1.334 . S
C716 C717 1.287 . S
C717 C716 1.287 . S
C717 C718 1.524 . S
C717 H720 0.999 . S
C718 H688 0.950 . S
C718 C717 1.524 . S
C718 C719 1.415 . S
C719 H689 0.950 . S
C719 C714 1.363 . S
C719 C718 1.415 . S
H720 C717 0.999 . S
H721 C702 0.913 . S
H722 C740 0.951 . S
H723 C742 0.951 . S
H724 C744 0.950 . S
H725 C745 0.950 . S
H726 C747 0.950 . S
H727 C750 0.950 . S
H728 C751 0.950 . S
H729 C753 0.950 . S
H730 C754 0.950 . S
H731 C755 0.951 . S
H732 C757 0.951 . S
H733 C759 0.950 . S
H734 C760 0.950 . S
H735 C762 0.950 . S
H736 C765 0.950 . S
H737 C766 0.950 . S
H738 C768 0.950 . S
H739 C769 0.950 . S
C740 H722 0.951 . S
C740 C741 1.366 . S
C740 C742 1.388 . S
C741 C740 1.366 . S
C741 C745 1.385 . S
C742 H723 0.951 . S
C742 C740 1.388 . S
C742 C743 1.366 . S
C743 C742 1.366 . S
C743 C744 1.414 . S
C743 C746 1.499 . S
C744 H724 0.950 . S
C744 C743 1.414 . S
C744 C745 1.374 . S
C745 H725 0.950 . S
C745 C741 1.385 . S
C745 C744 1.374 . S
C746 C743 1.499 . S
C746 C747 1.373 . S
C746 C748 1.389 . S
C747 H726 0.950 . S
C747 C746 1.373 . S
C747 C763 1.377 . S
C748 C746 1.389 . S
C748 C749 1.524 . S
C748 C762 1.377 . S
C749 C748 1.524 . S
C749 C750 1.397 . S
C749 C754 1.363 . S
C750 H727 0.950 . S
C750 C749 1.397 . S
C750 C751 1.334 . S
C751 H728 0.950 . S
C751 C750 1.334 . S
C751 C752 1.287 . S
C752 C751 1.287 . S
C752 C753 1.524 . S
C752 H771 0.913 . S
C753 H729 0.950 . S
C753 C752 1.524 . S
C753 C754 1.415 . S
C754 H730 0.950 . S
C754 C749 1.363 . S
C754 C753 1.415 . S
C755 H731 0.951 . S
C755 C756 1.366 . S
C755 C757 1.388 . S
C756 C755 1.366 . S
C756 C760 1.385 . S
C757 H732 0.951 . S
C757 C755 1.388 . S
C757 C758 1.366 . S
C758 C757 1.366 . S
C758 C759 1.414 . S
C758 C761 1.499 . S
C759 H733 0.950 . S
C759 C758 1.414 . S
C759 C760 1.374 . S
C760 H734 0.950 . S
C760 C756 1.385 . S
C760 C759 1.374 . S
C761 C758 1.499 . S
C761 C762 1.373 . S
C761 C763 1.389 . S
C762 H735 0.950 . S
C762 C748 1.377 . S
C762 C761 1.373 . S
C763 C747 1.377 . S
C763 C761 1.389 . S
C763 C764 1.524 . S
C764 C763 1.524 . S
C764 C765 1.397 . S
C764 C769 1.363 . S
C765 H736 0.950 . S
C765 C764 1.397 . S
C765 C766 1.334 . S
C766 H737 0.950 . S
C766 C765 1.334 . S
C766 C767 1.287 . S
C767 C766 1.287 . S
C767 C768 1.524 . S
C767 H770 0.999 . S
C768 H738 0.950 . S
C768 C767 1.524 . S
C768 C769 1.415 . S
C769 H739 0.950 . S
C769 C764 1.363 . S
C769 C768 1.415 . S
H770 C767 0.999 . S
H771 C752 0.913 . S
H772 C790 0.951 . S
H773 C792 0.951 . S
H774 C794 0.950 . S
H775 C795 0.950 . S
H776 C797 0.950 . S
H777 C800 0.950 . S
H778 C801 0.950 . S
H779 C803 0.950 . S
H780 C804 0.950 . S
H781 C805 0.951 . S
H782 C807 0.951 . S
H783 C809 0.950 . S
H784 C810 0.950 . S
H785 C812 0.950 . S
H786 C815 0.950 . S
H787 C816 0.950 . S
H788 C818 0.950 . S
H789 C819 0.950 . S
C790 H772 0.951 . S
C790 C791 1.366 . S
C790 C792 1.388 . S
C791 C790 1.366 . S
C791 C795 1.385 . S
C792 H773 0.951 . S
C792 C790 1.388 . S
C792 C793 1.366 . S
C793 C792 1.366 . S
C793 C794 1.414 . S
C793 C796 1.499 . S
C794 H774 0.950 . S
C794 C793 1.414 . S
C794 C795 1.374 . S
C795 H775 0.950 . S
C795 C791 1.385 . S
C795 C794 1.374 . S
C796 C793 1.499 . S
C796 C797 1.373 . S
C796 C798 1.389 . S
C797 H776 0.950 . S
C797 C796 1.373 . S
C797 C813 1.377 . S
C798 C796 1.389 . S
C798 C799 1.524 . S
C798 C812 1.377 . S
C799 C798 1.524 . S
C799 C800 1.397 . S
C799 C804 1.363 . S
C800 H777 0.950 . S
C800 C799 1.397 . S
C800 C801 1.334 . S
C801 H778 0.950 . S
C801 C800 1.334 . S
C801 C802 1.287 . S
C802 C801 1.287 . S
C802 C803 1.524 . S
C802 H821 0.913 . S
C803 H779 0.950 . S
C803 C802 1.524 . S
C803 C804 1.415 . S
C804 H780 0.950 . S
C804 C799 1.363 . S
C804 C803 1.415 . S
C805 H781 0.951 . S
C805 C806 1.366 . S
C805 C807 1.388 . S
C806 C805 1.366 . S
C806 C810 1.385 . S
C807 H782 0.951 . S
C807 C805 1.388 . S
C807 C808 1.366 . S
C808 C807 1.366 . S
C808 C809 1.414 . S
C808 C811 1.499 . S
C809 H783 0.950 . S
C809 C808 1.414 . S
C809 C810 1.374 . S
C810 H784 0.950 . S
C810 C806 1.385 . S
C810 C809 1.374 . S
C811 C808 1.499 . S
C811 C812 1.373 . S
C811 C813 1.389 . S
C812 H785 0.950 . S
C812 C798 1.377 . S
C812 C811 1.373 . S
C813 C797 1.377 . S
C813 C811 1.389 . S
C813 C814 1.524 . S
C814 C813 1.524 . S
C814 C815 1.397 . S
C814 C819 1.363 . S
C815 H786 0.950 . S
C815 C814 1.397 . S
C815 C816 1.334 . S
C816 H787 0.950 . S
C816 C815 1.334 . S
C816 C817 1.287 . S
C817 C816 1.287 . S
C817 C818 1.524 . S
C817 H820 0.999 . S
C818 H788 0.950 . S
C818 C817 1.524 . S
C818 C819 1.415 . S
C819 H789 0.950 . S
C819 C814 1.363 . S
C819 C818 1.415 . S
H820 C817 0.999 . S
H821 C802 0.913 . S
H822 C840 0.951 . S
H823 C842 0.951 . S
H824 C844 0.950 . S
H825 C845 0.950 . S
H826 C847 0.950 . S
H827 C850 0.950 . S
H828 C851 0.950 . S
H829 C853 0.950 . S
H830 C854 0.950 . S
H831 C855 0.951 . S
H832 C857 0.951 . S
H833 C859 0.950 . S
H834 C860 0.950 . S
H835 C862 0.950 . S
H836 C865 0.950 . S
H837 C866 0.950 . S
H838 C868 0.950 . S
H839 C869 0.950 . S
C840 H822 0.951 . S
C840 C841 1.366 . S
C840 C842 1.388 . S
C841 C840 1.366 . S
C841 C845 1.385 . S
C842 H823 0.951 . S
C842 C840 1.388 . S
C842 C843 1.366 . S
C843 C842 1.366 . S
C843 C844 1.414 . S
C843 C846 1.499 . S
C844 H824 0.950 . S
C844 C843 1.414 . S
C844 C845 1.374 . S
C845 H825 0.950 . S
C845 C841 1.385 . S
C845 C844 1.374 . S
C846 C843 1.499 . S
C846 C847 1.373 . S
C846 C848 1.389 . S
C847 H826 0.950 . S
C847 C846 1.373 . S
C847 C863 1.377 . S
C848 C846 1.389 . S
C848 C849 1.524 . S
C848 C862 1.377 . S
C849 C848 1.524 . S
C849 C850 1.397 . S
C849 C854 1.363 . S
C850 H827 0.950 . S
C850 C849 1.397 . S
C850 C851 1.334 . S
C851 H828 0.950 . S
C851 C850 1.334 . S
C851 C852 1.287 . S
C852 C851 1.287 . S
C852 C853 1.524 . S
C852 H871 0.913 . S
C853 H829 0.950 . S
C853 C852 1.524 . S
C853 C854 1.415 . S
C854 H830 0.950 . S
C854 C849 1.363 . S
C854 C853 1.415 . S
C855 H831 0.951 . S
C855 C856 1.366 . S
C855 C857 1.388 . S
C856 C855 1.366 . S
C856 C860 1.385 . S
C857 H832 0.951 . S
C857 C855 1.388 . S
C857 C858 1.366 . S
C858 C857 1.366 . S
C858 C859 1.414 . S
C858 C861 1.499 . S
C859 H833 0.950 . S
C859 C858 1.414 . S
C859 C860 1.374 . S
C860 H834 0.950 . S
C860 C856 1.385 . S
C860 C859 1.374 . S
C861 C858 1.499 . S
C861 C862 1.373 . S
C861 C863 1.389 . S
C862 H835 0.950 . S
C862 C848 1.377 . S
C862 C861 1.373 . S
C863 C847 1.377 . S
C863 C861 1.389 . S
C863 C864 1.524 . S
C864 C863 1.524 . S
C864 C865 1.397 . S
C864 C869 1.363 . S
C865 H836 0.950 . S
C865 C864 1.397 . S
C865 C866 1.334 . S
C866 H837 0.950 . S
C866 C865 1.334 . S
C866 C867 1.287 . S
C867 C866 1.287 . S
C867 C868 1.524 1_565 S
C867 H870 0.999 1_565 S
C868 H838 0.950 . S
C868 C867 1.524 1_545 S
C868 C869 1.415 1_545 S
C869 H839 0.950 . S
C869 C864 1.363 . S
C869 C868 1.415 1_565 S
H870 C867 0.999 1_545 S
H871 C852 0.913 . S
H872 C890 0.951 . S
H873 C892 0.951 . S
H874 C894 0.950 . S
H875 C895 0.950 . S
H876 C897 0.950 . S
H877 C900 0.950 . S
H878 C901 0.950 . S
H879 C903 0.950 . S
H880 C904 0.950 . S
H881 C905 0.951 . S
H882 C907 0.951 . S
H883 C909 0.950 . S
H884 C910 0.950 . S
H885 C912 0.950 . S
H886 C915 0.950 . S
H887 C916 0.950 . S
H888 C918 0.950 . S
H889 C919 0.950 . S
C890 H872 0.951 . S
C890 C891 1.366 . S
C890 C892 1.388 . S
C891 C890 1.366 . S
C891 C895 1.385 . S
C892 H873 0.951 . S
C892 C890 1.388 . S
C892 C893 1.366 . S
C893 C892 1.366 . S
C893 C894 1.414 . S
C893 C896 1.499 . S
C894 H874 0.950 . S
C894 C893 1.414 . S
C894 C895 1.374 . S
C895 H875 0.950 . S
C895 C891 1.385 . S
C895 C894 1.374 . S
C896 C893 1.499 . S
C896 C897 1.373 . S
C896 C898 1.389 . S
C897 H876 0.950 . S
C897 C896 1.373 . S
C897 C913 1.377 . S
C898 C896 1.389 . S
C898 C899 1.524 . S
C898 C912 1.377 . S
C899 C898 1.524 . S
C899 C900 1.397 . S
C899 C904 1.363 . S
C900 H877 0.950 . S
C900 C899 1.397 . S
C900 C901 1.334 . S
C901 H878 0.950 . S
C901 C900 1.334 . S
C901 C902 1.287 . S
C902 C901 1.287 . S
C902 C903 1.524 . S
C902 H921 0.913 . S
C903 H879 0.950 . S
C903 C902 1.524 . S
C903 C904 1.415 . S
C904 H880 0.950 . S
C904 C899 1.363 . S
C904 C903 1.415 . S
C905 H881 0.951 . S
C905 C906 1.366 . S
C905 C907 1.388 . S
C906 C905 1.366 . S
C906 C910 1.385 . S
C907 H882 0.951 . S
C907 C905 1.388 . S
C907 C908 1.366 . S
C908 C907 1.366 . S
C908 C909 1.414 . S
C908 C911 1.499 . S
C909 H883 0.950 . S
C909 C908 1.414 . S
C909 C910 1.374 . S
C910 H884 0.950 . S
C910 C906 1.385 . S
C910 C909 1.374 . S
C911 C908 1.499 . S
C911 C912 1.373 . S
C911 C913 1.389 . S
C912 H885 0.950 . S
C912 C898 1.377 . S
C912 C911 1.373 . S
C913 C897 1.377 . S
C913 C911 1.389 . S
C913 C914 1.524 . S
C914 C913 1.524 . S
C914 C915 1.397 . S
C914 C919 1.363 . S
C915 H886 0.950 . S
C915 C914 1.397 . S
C915 C916 1.334 . S
C916 H887 0.950 . S
C916 C915 1.334 . S
C916 C917 1.287 . S
C917 C916 1.287 . S
C917 C918 1.524 . S
C917 H920 0.999 . S
C918 H888 0.950 . S
C918 C917 1.524 . S
C918 C919 1.415 . S
C919 H889 0.950 . S
C919 C914 1.363 . S
C919 C918 1.415 . S
H920 C917 0.999 . S
H921 C902 0.913 . S
H922 C940 0.951 . S
H923 C942 0.951 . S
H924 C944 0.950 . S
H925 C945 0.950 . S
H926 C947 0.950 . S
H927 C950 0.950 . S
H928 C951 0.950 . S
H929 C953 0.950 . S
H930 C954 0.950 . S
H931 C955 0.951 . S
H932 C957 0.951 . S
H933 C959 0.950 . S
H934 C960 0.950 . S
H935 C962 0.950 . S
H936 C965 0.950 . S
H937 C966 0.950 . S
H938 C968 0.950 . S
H939 C969 0.950 . S
C940 H922 0.951 . S
C940 C941 1.366 . S
C940 C942 1.388 . S
C941 C940 1.366 . S
C941 C945 1.385 . S
C942 H923 0.951 . S
C942 C940 1.388 . S
C942 C943 1.366 . S
C943 C942 1.366 . S
C943 C944 1.414 . S
C943 C946 1.499 . S
C944 H924 0.950 . S
C944 C943 1.414 . S
C944 C945 1.374 . S
C945 H925 0.950 . S
C945 C941 1.385 . S
C945 C944 1.374 . S
C946 C943 1.499 . S
C946 C947 1.373 . S
C946 C948 1.389 . S
C947 H926 0.950 . S
C947 C946 1.373 . S
C947 C963 1.377 . S
C948 C946 1.389 . S
C948 C949 1.524 . S
C948 C962 1.377 . S
C949 C948 1.524 . S
C949 C950 1.397 . S
C949 C954 1.363 . S
C950 H927 0.950 . S
C950 C949 1.397 . S
C950 C951 1.334 . S
C951 H928 0.950 . S
C951 C950 1.334 . S
C951 C952 1.287 . S
C952 C951 1.287 . S
C952 C953 1.524 . S
C952 H971 0.913 . S
C953 H929 0.950 . S
C953 C952 1.524 . S
C953 C954 1.415 . S
C954 H930 0.950 . S
C954 C949 1.363 . S
C954 C953 1.415 . S
C955 H931 0.951 . S
C955 C956 1.366 . S
C955 C957 1.388 . S
C956 C955 1.366 . S
C956 C960 1.385 . S
C957 H932 0.951 . S
C957 C955 1.388 . S
C957 C958 1.366 . S
C958 C957 1.366 . S
C958 C959 1.414 . S
C958 C961 1.499 . S
C959 H933 0.950 . S
C959 C958 1.414 . S
C959 C960 1.374 . S
C960 H934 0.950 . S
C960 C956 1.385 . S
C960 C959 1.374 . S
C961 C958 1.499 . S
C961 C962 1.373 . S
C961 C963 1.389 . S
C962 H935 0.950 . S
C962 C948 1.377 . S
C962 C961 1.373 . S
C963 C947 1.377 . S
C963 C961 1.389 . S
C963 C964 1.524 . S
C964 C963 1.524 . S
C964 C965 1.397 . S
C964 C969 1.363 . S
C965 H936 0.950 . S
C965 C964 1.397 . S
C965 C966 1.334 . S
C966 H937 0.950 . S
C966 C965 1.334 . S
C966 C967 1.287 . S
C967 C966 1.287 . S
C967 C968 1.524 . S
C967 H970 0.999 . S
C968 H938 0.950 . S
C968 C967 1.524 . S
C968 C969 1.415 . S
C969 H939 0.950 . S
C969 C964 1.363 . S
C969 C968 1.415 . S
H970 C967 0.999 . S
H971 C952 0.913 . S
H972 C990 0.951 . S
H973 C992 0.951 . S
H974 C994 0.950 . S
H975 C995 0.950 . S
H976 C997 0.950 . S
H977 C1000 0.950 . S
H978 C1001 0.950 . S
H979 C1003 0.950 . S
H980 C1004 0.950 . S
H981 C1005 0.951 . S
H982 C1007 0.951 . S
H983 C1009 0.950 . S
H984 C1010 0.950 . S
H985 C1012 0.950 . S
H986 C1015 0.950 . S
H987 C1016 0.950 . S
H988 C1018 0.950 . S
H989 C1019 0.950 . S
C990 H972 0.951 . S
C990 C991 1.366 . S
C990 C992 1.388 . S
C991 C990 1.366 . S
C991 C995 1.385 . S
C992 H973 0.951 . S
C992 C990 1.388 . S
C992 C993 1.366 . S
C993 C992 1.366 . S
C993 C994 1.414 . S
C993 C996 1.499 . S
C994 H974 0.950 . S
C994 C993 1.414 . S
C994 C995 1.374 . S
C995 H975 0.950 . S
C995 C991 1.385 . S
C995 C994 1.374 . S
C996 C993 1.499 . S
C996 C997 1.373 . S
C996 C998 1.389 . S
C997 H976 0.950 . S
C997 C996 1.373 . S
C997 C1013 1.377 . S
C998 C996 1.389 . S
C998 C999 1.524 . S
C998 C1012 1.377 . S
C999 C998 1.524 . S
C999 C1000 1.397 . S
C999 C1004 1.363 . S
C1000 H977 0.950 . S
C1000 C999 1.397 . S
C1000 C1001 1.334 . S
C1001 H978 0.950 . S
C1001 C1000 1.334 . S
C1001 C1002 1.287 . S
C1002 C1001 1.287 . S
C1002 C1003 1.524 . S
C1002 H1021 0.913 . S
C1003 H979 0.950 . S
C1003 C1002 1.524 . S
C1003 C1004 1.415 . S
C1004 H980 0.950 . S
C1004 C999 1.363 . S
C1004 C1003 1.415 . S
C1005 H981 0.951 . S
C1005 C1006 1.366 . S
C1005 C1007 1.388 . S
C1006 C1005 1.366 . S
C1006 C1010 1.385 . S
C1007 H982 0.951 . S
C1007 C1005 1.388 . S
C1007 C1008 1.366 . S
C1008 C1007 1.366 . S
C1008 C1009 1.414 . S
C1008 C1011 1.499 . S
C1009 H983 0.950 . S
C1009 C1008 1.414 . S
C1009 C1010 1.374 . S
C1010 H984 0.950 . S
C1010 C1006 1.385 . S
C1010 C1009 1.374 . S
C1011 C1008 1.499 . S
C1011 C1012 1.373 . S
C1011 C1013 1.389 . S
C1012 H985 0.950 . S
C1012 C998 1.377 . S
C1012 C1011 1.373 . S
C1013 C997 1.377 . S
C1013 C1011 1.389 . S
C1013 C1014 1.524 . S
C1014 C1013 1.524 . S
C1014 C1015 1.397 . S
C1014 C1019 1.363 . S
C1015 H986 0.950 . S
C1015 C1014 1.397 . S
C1015 C1016 1.334 . S
C1016 H987 0.950 . S
C1016 C1015 1.334 . S
C1016 C1017 1.287 . S
C1017 C1016 1.287 . S
C1017 C1018 1.524 . S
C1017 H1020 0.999 . S
C1018 H988 0.950 . S
C1018 C1017 1.524 . S
C1018 C1019 1.415 . S
C1019 H989 0.950 . S
C1019 C1014 1.363 . S
C1019 C1018 1.415 . S
H1020 C1017 0.999 . S
H1021 C1002 0.913 . S
H1022 C1040 0.951 . S
H1023 C1042 0.951 . S
H1024 C1044 0.950 . S
H1025 C1045 0.950 . S
H1026 C1047 0.950 . S
H1027 C1050 0.950 . S
H1028 C1051 0.950 . S
H1029 C1053 0.950 . S
H1030 C1054 0.950 . S
H1031 C1055 0.951 . S
H1032 C1057 0.951 . S
H1033 C1059 0.950 . S
H1034 C1060 0.950 . S
H1035 C1062 0.950 . S
H1036 C1065 0.950 . S
H1037 C1066 0.950 . S
H1038 C1068 0.950 . S
H1039 C1069 0.950 . S
C1040 H1022 0.951 . S
C1040 C1041 1.366 . S
C1040 C1042 1.388 . S
C1041 C1040 1.366 . S
C1041 C1045 1.385 . S
C1042 H1023 0.951 . S
C1042 C1040 1.388 . S
C1042 C1043 1.366 . S
C1043 C1042 1.366 . S
C1043 C1044 1.414 . S
C1043 C1046 1.499 . S
C1044 H1024 0.950 . S
C1044 C1043 1.414 . S
C1044 C1045 1.374 . S
C1045 H1025 0.950 . S
C1045 C1041 1.385 . S
C1045 C1044 1.374 . S
C1046 C1043 1.499 . S
C1046 C1047 1.373 . S
C1046 C1048 1.389 . S
C1047 H1026 0.950 . S
C1047 C1046 1.373 . S
C1047 C1063 1.377 . S
C1048 C1046 1.389 . S
C1048 C1049 1.524 . S
C1048 C1062 1.377 . S
C1049 C1048 1.524 . S
C1049 C1050 1.397 . S
C1049 C1054 1.363 . S
C1050 H1027 0.950 . S
C1050 C1049 1.397 . S
C1050 C1051 1.334 . S
C1051 H1028 0.950 . S
C1051 C1050 1.334 . S
C1051 C1052 1.287 . S
C1052 C1051 1.287 . S
C1052 C1053 1.524 . S
C1052 H1071 0.913 . S
C1053 H1029 0.950 . S
C1053 C1052 1.524 . S
C1053 C1054 1.415 . S
C1054 H1030 0.950 . S
C1054 C1049 1.363 . S
C1054 C1053 1.415 . S
C1055 H1031 0.951 . S
C1055 C1056 1.366 . S
C1055 C1057 1.388 . S
C1056 C1055 1.366 . S
C1056 C1060 1.385 . S
C1057 H1032 0.951 . S
C1057 C1055 1.388 . S
C1057 C1058 1.366 . S
C1058 C1057 1.366 . S
C1058 C1059 1.414 . S
C1058 C1061 1.499 . S
C1059 H1033 0.950 . S
C1059 C1058 1.414 . S
C1059 C1060 1.374 . S
C1060 H1034 0.950 . S
C1060 C1056 1.385 . S
C1060 C1059 1.374 . S
C1061 C1058 1.499 . S
C1061 C1062 1.373 . S
C1061 C1063 1.389 . S
C1062 H1035 0.950 . S
C1062 C1048 1.377 . S
C1062 C1061 1.373 . S
C1063 C1047 1.377 . S
C1063 C1061 1.389 . S
C1063 C1064 1.524 . S
C1064 C1063 1.524 . S
C1064 C1065 1.397 . S
C1064 C1069 1.363 . S
C1065 H1036 0.950 . S
C1065 C1064 1.397 . S
C1065 C1066 1.334 . S
C1066 H1037 0.950 . S
C1066 C1065 1.334 . S
C1066 C1067 1.287 . S
C1067 C1066 1.287 . S
C1067 C1068 1.524 . S
C1067 H1070 0.999 . S
C1068 H1038 0.950 . S
C1068 C1067 1.524 . S
C1068 C1069 1.415 . S
C1069 H1039 0.950 . S
C1069 C1064 1.363 . S
C1069 C1068 1.415 . S
H1070 C1067 0.999 . S
H1071 C1052 0.913 . S
H1072 C1090 0.951 . S
H1073 C1092 0.951 . S
H1074 C1094 0.950 . S
H1075 C1095 0.950 . S
H1076 C1097 0.950 . S
H1077 C1100 0.950 . S
H1078 C1101 0.950 . S
H1079 C1103 0.950 . S
H1080 C1104 0.950 . S
H1081 C1105 0.951 . S
H1082 C1107 0.951 . S
H1083 C1109 0.950 . S
H1084 C1110 0.950 . S
H1085 C1112 0.950 . S
H1086 C1115 0.950 . S
H1087 C1116 0.950 . S
H1088 C1118 0.950 . S
H1089 C1119 0.950 . S
C1090 H1072 0.951 . S
C1090 C1091 1.366 . S
C1090 C1092 1.388 . S
C1091 C1090 1.366 . S
C1091 C1095 1.385 . S
C1092 H1073 0.951 . S
C1092 C1090 1.388 . S
C1092 C1093 1.366 . S
C1093 C1092 1.366 . S
C1093 C1094 1.414 . S
C1093 C1096 1.499 . S
C1094 H1074 0.950 . S
C1094 C1093 1.414 . S
C1094 C1095 1.374 . S
C1095 H1075 0.950 . S
C1095 C1091 1.385 . S
C1095 C1094 1.374 . S
C1096 C1093 1.499 . S
C1096 C1097 1.373 . S
C1096 C1098 1.389 . S
C1097 H1076 0.950 . S
C1097 C1096 1.373 . S
C1097 C1113 1.377 . S
C1098 C1096 1.389 . S
C1098 C1099 1.524 . S
C1098 C1112 1.377 . S
C1099 C1098 1.524 . S
C1099 C1100 1.397 . S
C1099 C1104 1.363 . S
C1100 H1077 0.950 . S
C1100 C1099 1.397 . S
C1100 C1101 1.334 . S
C1101 H1078 0.950 . S
C1101 C1100 1.334 . S
C1101 C1102 1.287 . S
C1102 C1101 1.287 . S
C1102 C1103 1.524 . S
C1102 H1121 0.913 . S
C1103 H1079 0.950 . S
C1103 C1102 1.524 . S
C1103 C1104 1.415 . S
C1104 H1080 0.950 . S
C1104 C1099 1.363 . S
C1104 C1103 1.415 . S
C1105 H1081 0.951 . S
C1105 C1106 1.366 . S
C1105 C1107 1.388 . S
C1106 C1105 1.366 . S
C1106 C1110 1.385 . S
C1107 H1082 0.951 . S
C1107 C1105 1.388 . S
C1107 C1108 1.366 . S
C1108 C1107 1.366 . S
C1108 C1109 1.414 . S
C1108 C1111 1.499 . S
C1109 H1083 0.950 . S
C1109 C1108 1.414 . S
C1109 C1110 1.374 . S
C1110 H1084 0.950 . S
C1110 C1106 1.385 . S
C1110 C1109 1.374 . S
C1111 C1108 1.499 . S
C1111 C1112 1.373 . S
C1111 C1113 1.389 . S
C1112 H1085 0.950 . S
C1112 C1098 1.377 . S
C1112 C1111 1.373 . S
C1113 C1097 1.377 . S
C1113 C1111 1.389 . S
C1113 C1114 1.524 . S
C1114 C1113 1.524 . S
C1114 C1115 1.397 . S
C1114 C1119 1.363 . S
C1115 H1086 0.950 . S
C1115 C1114 1.397 . S
C1115 C1116 1.334 . S
C1116 H1087 0.950 . S
C1116 C1115 1.334 . S
C1116 C1117 1.287 . S
C1117 C1116 1.287 . S
C1117 C1118 1.524 . S
C1117 H1120 0.999 . S
C1118 H1088 0.950 . S
C1118 C1117 1.524 . S
C1118 C1119 1.415 . S
C1119 H1089 0.950 . S
C1119 C1114 1.363 . S
C1119 C1118 1.415 . S
H1120 C1117 0.999 . S
H1121 C1102 0.913 . S
H1122 C1140 0.951 . S
H1123 C1142 0.951 . S
H1124 C1144 0.950 . S
H1125 C1145 0.950 . S
H1126 C1147 0.950 . S
H1127 C1150 0.950 . S
H1128 C1151 0.950 . S
H1129 C1153 0.950 . S
H1130 C1154 0.950 . S
H1131 C1155 0.951 . S
H1132 C1157 0.951 . S
H1133 C1159 0.950 . S
H1134 C1160 0.950 . S
H1135 C1162 0.950 . S
H1136 C1165 0.950 . S
H1137 C1166 0.950 . S
H1138 C1168 0.950 . S
H1139 C1169 0.950 . S
C1140 H1122 0.951 . S
C1140 C1141 1.366 . S
C1140 C1142 1.388 . S
C1141 C1140 1.366 . S
C1141 C1145 1.385 . S
C1142 H1123 0.951 . S
C1142 C1140 1.388 . S
C1142 C1143 1.366 . S
C1143 C1142 1.366 . S
C1143 C1144 1.414 . S
C1143 C1146 1.499 . S
C1144 H1124 0.950 . S
C1144 C1143 1.414 . S
C1144 C1145 1.374 . S
C1145 H1125 0.950 . S
C1145 C1141 1.385 . S
C1145 C1144 1.374 . S
C1146 C1143 1.499 . S
C1146 C1147 1.373 . S
C1146 C1148 1.389 . S
C1147 H1126 0.950 . S
C1147 C1146 1.373 . S
C1147 C1163 1.377 . S
C1148 C1146 1.389 . S
C1148 C1149 1.524 . S
C1148 C1162 1.377 . S
C1149 C1148 1.524 . S
C1149 C1150 1.397 . S
C1149 C1154 1.363 . S
C1150 H1127 0.950 . S
C1150 C1149 1.397 . S
C1150 C1151 1.334 . S
C1151 H1128 0.950 . S
C1151 C1150 1.334 . S
C1151 C1152 1.287 . S
C1152 C1151 1.287 . S
C1152 C1153 1.524 . S
C1152 H1171 0.913 . S
C1153 H1129 0.950 . S
C1153 C1152 1.524 . S
C1153 C1154 1.415 . S
C1154 H1130 0.950 . S
C1154 C1149 1.363 . S
C1154 C1153 1.415 . S
C1155 H1131 0.951 . S
C1155 C1156 1.366 . S
C1155 C1157 1.388 . S
C1156 C1155 1.366 . S
C1156 C1160 1.385 . S
C1157 H1132 0.951 . S
C1157 C1155 1.388 . S
C1157 C1158 1.366 . S
C1158 C1157 1.366 . S
C1158 C1159 1.414 . S
C1158 C1161 1.499 . S
C1159 H1133 0.950 . S
C1159 C1158 1.414 . S
C1159 C1160 1.374 . S
C1160 H1134 0.950 . S
C1160 C1156 1.385 . S
C1160 C1159 1.374 . S
C1161 C1158 1.499 . S
C1161 C1162 1.373 . S
C1161 C1163 1.389 . S
C1162 H1135 0.950 . S
C1162 C1148 1.377 . S
C1162 C1161 1.373 . S
C1163 C1147 1.377 . S
C1163 C1161 1.389 . S
C1163 C1164 1.524 . S
C1164 C1163 1.524 . S
C1164 C1165 1.397 . S
C1164 C1169 1.363 . S
C1165 H1136 0.950 . S
C1165 C1164 1.397 . S
C1165 C1166 1.334 . S
C1166 H1137 0.950 . S
C1166 C1165 1.334 . S
C1166 C1167 1.287 . S
C1167 C1166 1.287 . S
C1167 C1168 1.524 . S
C1167 H1170 0.999 . S
C1168 H1138 0.950 . S
C1168 C1167 1.524 . S
C1168 C1169 1.415 . S
C1169 H1139 0.950 . S
C1169 C1164 1.363 . S
C1169 C1168 1.415 . S
H1170 C1167 0.999 . S
H1171 C1152 0.913 . S
H1172 C1190 0.951 . S
H1173 C1192 0.951 . S
H1174 C1194 0.950 . S
H1175 C1195 0.950 . S
H1176 C1197 0.950 . S
H1177 C1200 0.950 . S
H1178 C1201 0.950 . S
H1179 C1203 0.950 . S
H1180 C1204 0.950 . S
H1181 C1205 0.951 . S
H1182 C1207 0.951 . S
H1183 C1209 0.950 . S
H1184 C1210 0.950 . S
H1185 C1212 0.950 . S
H1186 C1215 0.950 . S
H1187 C1216 0.950 . S
H1188 C1218 0.950 . S
H1189 C1219 0.950 . S
C1190 H1172 0.951 . S
C1190 C1191 1.366 . S
C1190 C1192 1.388 . S
C1191 C1190 1.366 . S
C1191 C1195 1.385 . S
C1192 H1173 0.951 . S
C1192 C1190 1.388 . S
C1192 C1193 1.366 . S
C1193 C1192 1.366 . S
C1193 C1194 1.414 . S
C1193 C1196 1.499 . S
C1194 H1174 0.950 . S
C1194 C1193 1.414 . S
C1194 C1195 1.374 . S
C1195 H1175 0.950 . S
C1195 C1191 1.385 . S
C1195 C1194 1.374 . S
C1196 C1193 1.499 . S
C1196 C1197 1.373 . S
C1196 C1198 1.389 . S
C1197 H1176 0.950 . S
C1197 C1196 1.373 . S
C1197 C1213 1.377 . S
C1198 C1196 1.389 . S
C1198 C1199 1.524 . S
C1198 C1212 1.377 . S
C1199 C1198 1.524 . S
C1199 C1200 1.397 . S
C1199 C1204 1.363 . S
C1200 H1177 0.950 . S
C1200 C1199 1.397 . S
C1200 C1201 1.334 . S
C1201 H1178 0.950 . S
C1201 C1200 1.334 . S
C1201 C1202 1.287 . S
C1202 C1201 1.287 . S
C1202 C1203 1.524 . S
C1202 H1221 0.913 . S
C1203 H1179 0.950 . S
C1203 C1202 1.524 . S
C1203 C1204 1.415 . S
C1204 H1180 0.950 . S
C1204 C1199 1.363 . S
C1204 C1203 1.415 . S
C1205 H1181 0.951 . S
C1205 C1206 1.366 . S
C1205 C1207 1.388 . S
C1206 C1205 1.366 . S
C1206 C1210 1.385 . S
C1207 H1182 0.951 . S
C1207 C1205 1.388 . S
C1207 C1208 1.366 . S
C1208 C1207 1.366 . S
C1208 C1209 1.414 . S
C1208 C1211 1.499 . S
C1209 H1183 0.950 . S
C1209 C1208 1.414 . S
C1209 C1210 1.374 . S
C1210 H1184 0.950 . S
C1210 C1206 1.385 . S
C1210 C1209 1.374 . S
C1211 C1208 1.499 . S
C1211 C1212 1.373 . S
C1211 C1213 1.389 . S
C1212 H1185 0.950 . S
C1212 C1198 1.377 . S
C1212 C1211 1.373 . S
C1213 C1197 1.377 . S
C1213 C1211 1.389 . S
C1213 C1214 1.524 . S
C1214 C1213 1.524 . S
C1214 C1215 1.397 . S
C1214 C1219 1.363 . S
C1215 H1186 0.950 . S
C1215 C1214 1.397 . S
C1215 C1216 1.334 . S
C1216 H1187 0.950 . S
C1216 C1215 1.334 . S
C1216 C1217 1.287 . S
C1217 C1216 1.287 . S
C1217 C1218 1.524 . S
C1217 H1220 0.999 . S
C1218 H1188 0.950 . S
C1218 C1217 1.524 . S
C1218 C1219 1.415 . S
C1219 H1189 0.950 . S
C1219 C1214 1.363 . S
C1219 C1218 1.415 . S
H1220 C1217 0.999 . S
H1221 C1202 0.913 . S
H1222 C1240 0.951 . S
H1223 C1242 0.951 . S
H1224 C1244 0.950 . S
H1225 C1245 0.950 . S
H1226 C1247 0.950 . S
H1227 C1250 0.950 . S
H1228 C1251 0.950 . S
H1229 C1253 0.950 . S
H1230 C1254 0.950 . S
H1231 C1255 0.951 . S
H1232 C1257 0.951 1_455 S
H1233 C1259 0.950 . S
H1234 C1260 0.950 . S
H1235 C1262 0.950 . S
H1236 C1265 0.950 . S
H1237 C1266 0.950 . S
H1238 C1268 0.950 . S
H1239 C1269 0.945 1_455 S
C1240 H1222 0.951 . S
C1240 C1241 1.366 . S
C1240 C1242 1.388 . S
C1241 C1240 1.366 . S
C1241 C1245 1.385 . S
C1242 H1223 0.951 . S
C1242 C1240 1.388 . S
C1242 C1243 1.366 . S
C1243 C1242 1.366 . S
C1243 C1244 1.414 . S
C1243 C1246 1.499 . S
C1244 H1224 0.950 . S
C1244 C1243 1.414 . S
C1244 C1245 1.374 . S
C1245 H1225 0.950 . S
C1245 C1241 1.385 . S
C1245 C1244 1.374 . S
C1246 C1243 1.499 . S
C1246 C1247 1.373 . S
C1246 C1248 1.389 . S
C1247 H1226 0.950 . S
C1247 C1246 1.373 . S
C1247 C1263 1.377 . S
C1248 C1246 1.389 . S
C1248 C1249 1.524 . S
C1248 C1262 1.377 . S
C1249 C1248 1.524 . S
C1249 C1250 1.397 . S
C1249 C1254 1.363 . S
C1250 H1227 0.950 . S
C1250 C1249 1.397 . S
C1250 C1251 1.334 . S
C1251 H1228 0.950 . S
C1251 C1250 1.334 . S
C1251 C1252 1.287 . S
C1252 C1251 1.287 . S
C1252 C1253 1.524 . S
C1252 H1271 0.913 . S
C1253 H1229 0.950 . S
C1253 C1252 1.524 . S
C1253 C1254 1.415 . S
C1254 H1230 0.950 . S
C1254 C1249 1.363 . S
C1254 C1253 1.415 . S
C1255 H1231 0.951 . S
C1255 C1256 1.366 1_455 S
C1255 C1257 1.388 1_455 S
C1256 C1255 1.366 1_655 S
C1256 C1260 1.385 . S
C1257 H1232 0.951 1_655 S
C1257 C1255 1.388 1_655 S
C1257 C1258 1.366 . S
C1258 C1257 1.366 . S
C1258 C1259 1.414 . S
C1258 C1261 1.499 . S
C1259 H1233 0.950 . S
C1259 C1258 1.414 . S
C1259 C1260 1.374 . S
C1260 H1234 0.950 . S
C1260 C1256 1.385 . S
C1260 C1259 1.374 . S
C1261 C1258 1.499 . S
C1261 C1262 1.373 . S
C1261 C1263 1.389 . S
C1262 H1235 0.950 . S
C1262 C1248 1.377 . S
C1262 C1261 1.373 . S
C1263 C1247 1.377 . S
C1263 C1261 1.389 . S
C1263 C1264 1.524 . S
C1264 C1263 1.524 . S
C1264 C1265 1.397 . S
C1264 C1269 1.363 . S
C1265 H1236 0.950 . S
C1265 C1264 1.397 . S
C1265 C1266 1.334 . S
C1266 H1237 0.950 . S
C1266 C1265 1.334 . S
C1266 C1267 1.287 . S
C1267 C1266 1.287 . S
C1267 C1268 1.524 1_655 S
C1267 H1270 0.999 . S
C1268 H1238 0.950 . S
C1268 C1267 1.524 1_455 S
C1268 C1269 1.415 1_455 S
C1269 H1239 0.945 1_655 S
C1269 C1264 1.363 . S
C1269 C1268 1.415 1_655 S
H1270 C1267 0.999 . S
H1271 C1252 0.913 . S
H1272 C1290 0.951 . S
H1273 C1292 0.951 . S
H1274 C1294 0.950 . S
H1275 C1295 0.950 . S
H1276 C1297 0.950 . S
H1277 C1300 0.950 . S
H1278 C1301 0.950 . S
H1279 C1303 0.950 . S
H1280 C1304 0.950 . S
H1281 C1305 0.951 . S
H1282 C1307 0.951 . S
H1283 C1309 0.950 . S
H1284 C1310 0.950 . S
H1285 C1312 0.950 . S
H1286 C1315 0.950 . S
H1287 C1316 0.950 . S
H1288 C1318 0.950 1_545 S
H1289 C1319 0.950 . S
C1290 H1272 0.951 . S
C1290 C1291 1.366 . S
C1290 C1292 1.388 . S
C1291 C1290 1.366 . S
C1291 C1295 1.385 . S
C1292 H1273 0.951 . S
C1292 C1290 1.388 . S
C1292 C1293 1.366 . S
C1293 C1292 1.366 . S
C1293 C1294 1.414 . S
C1293 C1296 1.499 . S
C1294 H1274 0.950 . S
C1294 C1293 1.414 . S
C1294 C1295 1.374 . S
C1295 H1275 0.950 . S
C1295 C1291 1.385 . S
C1295 C1294 1.374 . S
C1296 C1293 1.499 . S
C1296 C1297 1.373 . S
C1296 C1298 1.389 . S
C1297 H1276 0.950 . S
C1297 C1296 1.373 . S
C1297 C1313 1.377 . S
C1298 C1296 1.389 . S
C1298 C1299 1.524 . S
C1298 C1312 1.377 . S
C1299 C1298 1.524 . S
C1299 C1300 1.397 . S
C1299 C1304 1.363 . S
C1300 H1277 0.950 . S
C1300 C1299 1.397 . S
C1300 C1301 1.334 . S
C1301 H1278 0.950 . S
C1301 C1300 1.334 . S
C1301 C1302 1.287 . S
C1302 C1301 1.287 . S
C1302 C1303 1.524 . S
C1302 H1321 0.913 . S
C1303 H1279 0.950 . S
C1303 C1302 1.524 . S
C1303 C1304 1.415 . S
C1304 H1280 0.950 . S
C1304 C1299 1.363 . S
C1304 C1303 1.415 . S
C1305 H1281 0.951 . S
C1305 C1306 1.366 . S
C1305 C1307 1.388 1_545 S
C1306 C1305 1.366 . S
C1306 C1310 1.385 1_545 S
C1307 H1282 0.951 . S
C1307 C1305 1.388 1_565 S
C1307 C1308 1.366 . S
C1308 C1307 1.366 . S
C1308 C1309 1.414 . S
C1308 C1311 1.499 . S
C1309 H1283 0.950 . S
C1309 C1308 1.414 . S
C1309 C1310 1.374 . S
C1310 H1284 0.950 . S
C1310 C1306 1.385 1_565 S
C1310 C1309 1.374 . S
C1311 C1308 1.499 . S
C1311 C1312 1.373 . S
C1311 C1313 1.389 . S
C1312 H1285 0.950 . S
C1312 C1298 1.377 . S
C1312 C1311 1.373 . S
C1313 C1297 1.377 . S
C1313 C1311 1.389 . S
C1313 C1314 1.524 . S
C1314 C1313 1.524 . S
C1314 C1315 1.397 . S
C1314 C1319 1.363 . S
C1315 H1286 0.950 . S
C1315 C1314 1.397 . S
C1315 C1316 1.334 1_565 S
C1316 H1287 0.950 . S
C1316 C1315 1.334 1_545 S
C1316 C1317 1.287 . S
C1317 C1316 1.287 . S
C1317 C1318 1.524 1_545 S
C1317 H1320 0.999 . S
C1318 H1288 0.950 1_565 S
C1318 C1317 1.524 1_565 S
C1318 C1319 1.415 . S
C1319 H1289 0.950 . S
C1319 C1314 1.363 . S
C1319 C1318 1.415 . S
H1320 C1317 0.999 . S
H1321 C1302 0.913 . S
H1322 C1340 0.951 . S
H1323 C1342 0.951 . S
H1324 C1344 0.950 . S
H1325 C1345 0.950 . S
H1326 C1347 0.950 . S
H1327 C1350 0.950 . S
H1328 C1351 0.950 . S
H1329 C1353 0.950 . S
H1330 C1354 0.950 . S
H1331 C1355 0.951 . S
H1332 C1357 0.951 . S
H1333 C1359 0.950 . S
H1334 C1360 0.950 . S
H1335 C1362 0.950 . S
H1336 C1365 0.950 . S
H1337 C1366 0.950 . S
H1338 C1368 0.950 . S
H1339 C1369 0.950 . S
C1340 H1322 0.951 . S
C1340 C1341 1.366 . S
C1340 C1342 1.388 . S
C1341 C1340 1.366 . S
C1341 C1345 1.385 . S
C1342 H1323 0.951 . S
C1342 C1340 1.388 . S
C1342 C1343 1.366 . S
C1343 C1342 1.366 . S
C1343 C1344 1.414 . S
C1343 C1346 1.499 . S
C1344 H1324 0.950 . S
C1344 C1343 1.414 . S
C1344 C1345 1.374 . S
C1345 H1325 0.950 . S
C1345 C1341 1.385 . S
C1345 C1344 1.374 . S
C1346 C1343 1.499 . S
C1346 C1347 1.373 . S
C1346 C1348 1.389 . S
C1347 H1326 0.950 . S
C1347 C1346 1.373 . S
C1347 C1363 1.377 . S
C1348 C1346 1.389 . S
C1348 C1349 1.524 . S
C1348 C1362 1.377 . S
C1349 C1348 1.524 . S
C1349 C1350 1.397 . S
C1349 C1354 1.363 . S
C1350 H1327 0.950 . S
C1350 C1349 1.397 . S
C1350 C1351 1.334 . S
C1351 H1328 0.950 . S
C1351 C1350 1.334 . S
C1351 C1352 1.287 . S
C1352 C1351 1.287 . S
C1352 C1353 1.524 . S
C1352 H1371 0.913 . S
C1353 H1329 0.950 . S
C1353 C1352 1.524 . S
C1353 C1354 1.415 . S
C1354 H1330 0.950 . S
C1354 C1349 1.363 . S
C1354 C1353 1.415 . S
C1355 H1331 0.951 . S
C1355 C1356 1.366 . S
C1355 C1357 1.388 . S
C1356 C1355 1.366 . S
C1356 C1360 1.385 . S
C1357 H1332 0.951 . S
C1357 C1355 1.388 . S
C1357 C1358 1.366 . S
C1358 C1357 1.366 . S
C1358 C1359 1.414 . S
C1358 C1361 1.499 . S
C1359 H1333 0.950 . S
C1359 C1358 1.414 . S
C1359 C1360 1.374 . S
C1360 H1334 0.950 . S
C1360 C1356 1.385 . S
C1360 C1359 1.374 . S
C1361 C1358 1.499 . S
C1361 C1362 1.373 . S
C1361 C1363 1.389 . S
C1362 H1335 0.950 . S
C1362 C1348 1.377 . S
C1362 C1361 1.373 . S
C1363 C1347 1.377 . S
C1363 C1361 1.389 . S
C1363 C1364 1.524 . S
C1364 C1363 1.524 . S
C1364 C1365 1.397 . S
C1364 C1369 1.363 . S
C1365 H1336 0.950 . S
C1365 C1364 1.397 . S
C1365 C1366 1.334 . S
C1366 H1337 0.950 . S
C1366 C1365 1.334 . S
C1366 C1367 1.287 . S
C1367 C1366 1.287 . S
C1367 C1368 1.524 . S
C1367 H1370 0.999 . S
C1368 H1338 0.950 . S
C1368 C1367 1.524 . S
C1368 C1369 1.415 . S
C1369 H1339 0.950 . S
C1369 C1364 1.363 . S
C1369 C1368 1.415 . S
H1370 C1367 0.999 . S
H1371 C1352 0.913 . S
H1372 C1390 0.951 . S
H1373 C1392 0.951 . S
H1374 C1394 0.950 . S
H1375 C1395 0.950 . S
H1376 C1397 0.950 . S
H1377 C1400 0.950 . S
H1378 C1401 0.950 . S
H1379 C1403 0.950 . S
H1380 C1404 0.954 1_545 S
H1381 C1405 0.951 . S
H1382 C1407 0.951 . S
H1383 C1409 0.950 . S
H1384 C1410 0.950 . S
H1385 C1412 0.950 1_565 S
H1386 C1415 0.950 . S
H1387 C1416 0.950 . S
H1388 C1418 0.950 . S
H1389 C1419 0.950 . S
C1390 H1372 0.951 . S
C1390 C1391 1.366 . S
C1390 C1392 1.388 . S
C1391 C1390 1.366 . S
C1391 C1395 1.385 . S
C1392 H1373 0.951 . S
C1392 C1390 1.388 . S
C1392 C1393 1.366 . S
C1393 C1392 1.366 . S
C1393 C1394 1.414 . S
C1393 C1396 1.499 . S
C1394 H1374 0.950 . S
C1394 C1393 1.414 . S
C1394 C1395 1.374 . S
C1395 H1375 0.950 . S
C1395 C1391 1.385 . S
C1395 C1394 1.374 . S
C1396 C1393 1.499 . S
C1396 C1397 1.373 1_556 S
C1396 C1398 1.389 . S
C1397 H1376 0.950 . S
C1397 C1396 1.373 1_554 S
C1397 C1413 1.377 . S
C1398 C1396 1.389 . S
C1398 C1399 1.524 . S
C1398 C1412 1.377 1_556 S
C1399 C1398 1.524 . S
C1399 C1400 1.397 . S
C1399 C1404 1.363 1_545 S
C1400 H1377 0.950 . S
C1400 C1399 1.397 . S
C1400 C1401 1.334 1_545 S
C1401 H1378 0.950 . S
C1401 C1400 1.334 1_565 S
C1401 C1402 1.287 . S
C1402 C1401 1.287 . S
C1402 C1403 1.524 . S
C1402 H1421 0.913 . S
C1403 H1379 0.950 . S
C1403 C1402 1.524 . S
C1403 C1404 1.415 . S
C1404 H1380 0.954 1_565 S
C1404 C1399 1.363 1_565 S
C1404 C1403 1.415 . S
C1405 H1381 0.951 . S
C1405 C1406 1.366 . S
C1405 C1407 1.388 . S
C1406 C1405 1.366 . S
C1406 C1410 1.385 . S
C1407 H1382 0.951 . S
C1407 C1405 1.388 . S
C1407 C1408 1.366 . S
C1408 C1407 1.366 . S
C1408 C1409 1.414 . S
C1408 C1411 1.499 1_565 S
C1409 H1383 0.950 . S
C1409 C1408 1.414 . S
C1409 C1410 1.374 . S
C1410 H1384 0.950 . S
C1410 C1406 1.385 . S
C1410 C1409 1.374 . S
C1411 C1408 1.499 1_545 S
C1411 C1412 1.373 . S
C1411 C1413 1.389 . S
C1412 H1385 0.950 1_545 S
C1412 C1398 1.377 1_554 S
C1412 C1411 1.373 . S
C1413 C1397 1.377 . S
C1413 C1411 1.389 . S
C1413 C1414 1.524 . S
C1414 C1413 1.524 . S
C1414 C1415 1.397 . S
C1414 C1419 1.363 . S
C1415 H1386 0.950 . S
C1415 C1414 1.397 . S
C1415 C1416 1.334 . S
C1416 H1387 0.950 . S
C1416 C1415 1.334 . S
C1416 C1417 1.287 . S
C1417 C1416 1.287 . S
C1417 C1418 1.524 . S
C1417 H1420 0.999 . S
C1418 H1388 0.950 . S
C1418 C1417 1.524 . S
C1418 C1419 1.415 . S
C1419 H1389 0.950 . S
C1419 C1414 1.363 . S
C1419 C1418 1.415 . S
H1420 C1417 0.999 . S
H1421 C1402 0.913 . S
H1422 C1440 0.951 . S
H1423 C1442 0.951 . S
H1424 C1444 0.950 . S
H1425 C1445 0.950 . S
H1426 C1447 0.950 . S
H1427 C1450 0.950 . S
H1428 C1451 0.950 . S
H1429 C1453 0.950 . S
H1430 C1454 0.950 . S
H1431 C1455 0.951 . S
H1432 C1457 0.951 . S
H1433 C1459 0.950 . S
H1434 C1460 0.950 . S
H1435 C1462 0.950 . S
H1436 C1465 0.950 . S
H1437 C1466 0.950 . S
H1438 C1468 0.950 . S
H1439 C1469 0.950 . S
C1440 H1422 0.951 . S
C1440 C1441 1.366 . S
C1440 C1442 1.388 . S
C1441 C1440 1.366 . S
C1441 C1445 1.385 . S
C1442 H1423 0.951 . S
C1442 C1440 1.388 . S
C1442 C1443 1.366 . S
C1443 C1442 1.366 . S
C1443 C1444 1.414 . S
C1443 C1446 1.499 . S
C1444 H1424 0.950 . S
C1444 C1443 1.414 . S
C1444 C1445 1.374 . S
C1445 H1425 0.950 . S
C1445 C1441 1.385 . S
C1445 C1444 1.374 . S
C1446 C1443 1.499 . S
C1446 C1447 1.373 . S
C1446 C1448 1.389 . S
C1447 H1426 0.950 . S
C1447 C1446 1.373 . S
C1447 C1463 1.377 . S
C1448 C1446 1.389 . S
C1448 C1449 1.524 . S
C1448 C1462 1.377 . S
C1449 C1448 1.524 . S
C1449 C1450 1.397 . S
C1449 C1454 1.363 . S
C1450 H1427 0.950 . S
C1450 C1449 1.397 . S
C1450 C1451 1.334 . S
C1451 H1428 0.950 . S
C1451 C1450 1.334 . S
C1451 C1452 1.287 . S
C1452 C1451 1.287 . S
C1452 C1453 1.524 . S
C1452 H1471 0.913 . S
C1453 H1429 0.950 . S
C1453 C1452 1.524 . S
C1453 C1454 1.415 . S
C1454 H1430 0.950 . S
C1454 C1449 1.363 . S
C1454 C1453 1.415 . S
C1455 H1431 0.951 . S
C1455 C1456 1.366 . S
C1455 C1457 1.388 . S
C1456 C1455 1.366 . S
C1456 C1460 1.385 . S
C1457 H1432 0.951 . S
C1457 C1455 1.388 . S
C1457 C1458 1.366 . S
C1458 C1457 1.366 . S
C1458 C1459 1.414 . S
C1458 C1461 1.499 . S
C1459 H1433 0.950 . S
C1459 C1458 1.414 . S
C1459 C1460 1.374 . S
C1460 H1434 0.950 . S
C1460 C1456 1.385 . S
C1460 C1459 1.374 . S
C1461 C1458 1.499 . S
C1461 C1462 1.373 . S
C1461 C1463 1.389 . S
C1462 H1435 0.950 . S
C1462 C1448 1.377 . S
C1462 C1461 1.373 . S
C1463 C1447 1.377 . S
C1463 C1461 1.389 . S
C1463 C1464 1.524 . S
C1464 C1463 1.524 . S
C1464 C1465 1.397 . S
C1464 C1469 1.363 . S
C1465 H1436 0.950 . S
C1465 C1464 1.397 . S
C1465 C1466 1.334 . S
C1466 H1437 0.950 . S
C1466 C1465 1.334 . S
C1466 C1467 1.287 . S
C1467 C1466 1.287 . S
C1467 C1468 1.524 . S
C1467 H1470 0.999 . S
C1468 H1438 0.950 . S
C1468 C1467 1.524 . S
C1468 C1469 1.415 . S
C1469 H1439 0.950 . S
C1469 C1464 1.363 . S
C1469 C1468 1.415 . S
H1470 C1467 0.999 . S
H1471 C1452 0.913 . S
H1472 C1490 0.951 . S
H1473 C1492 0.951 . S
H1474 C1494 0.950 . S
H1475 C1495 0.950 . S
H1476 C1497 0.950 . S
H1477 C1500 0.950 1_565 S
H1478 C1501 0.950 . S
H1479 C1503 0.950 . S
H1480 C1504 0.950 . S
H1481 C1505 0.951 . S
H1482 C1507 0.951 . S
H1483 C1509 0.950 . S
H1484 C1510 0.950 . S
H1485 C1512 0.950 . S
H1486 C1515 0.950 . S
H1487 C1516 0.950 . S
H1488 C1518 0.950 . S
H1489 C1519 0.950 . S
C1490 H1472 0.951 . S
C1490 C1491 1.366 . S
C1490 C1492 1.388 1_565 S
C1491 C1490 1.366 . S
C1491 C1495 1.385 . S
C1492 H1473 0.951 . S
C1492 C1490 1.388 1_545 S
C1492 C1493 1.366 . S
C1493 C1492 1.366 . S
C1493 C1494 1.414 1_545 S
C1493 C1496 1.499 . S
C1494 H1474 0.950 . S
C1494 C1493 1.414 1_565 S
C1494 C1495 1.374 . S
C1495 H1475 0.950 . S
C1495 C1491 1.385 . S
C1495 C1494 1.374 . S
C1496 C1493 1.499 . S
C1496 C1497 1.373 . S
C1496 C1498 1.389 . S
C1497 H1476 0.950 . S
C1497 C1496 1.373 . S
C1497 C1513 1.377 . S
C1498 C1496 1.389 . S
C1498 C1499 1.524 . S
C1498 C1512 1.377 . S
C1499 C1498 1.524 . S
C1499 C1500 1.397 . S
C1499 C1504 1.363 . S
C1500 H1477 0.950 1_545 S
C1500 C1499 1.397 . S
C1500 C1501 1.334 1_545 S
C1501 H1478 0.950 . S
C1501 C1500 1.334 1_565 S
C1501 C1502 1.287 . S
C1502 C1501 1.287 . S
C1502 C1503 1.524 1_565 S
C1502 H1521 0.913 . S
C1503 H1479 0.950 . S
C1503 C1502 1.524 1_545 S
C1503 C1504 1.415 . S
C1504 H1480 0.950 . S
C1504 C1499 1.363 . S
C1504 C1503 1.415 . S
C1505 H1481 0.951 . S
C1505 C1506 1.366 . S
C1505 C1507 1.388 . S
C1506 C1505 1.366 . S
C1506 C1510 1.385 . S
C1507 H1482 0.951 . S
C1507 C1505 1.388 . S
C1507 C1508 1.366 . S
C1508 C1507 1.366 . S
C1508 C1509 1.414 . S
C1508 C1511 1.499 . S
C1509 H1483 0.950 . S
C1509 C1508 1.414 . S
C1509 C1510 1.374 . S
C1510 H1484 0.950 . S
C1510 C1506 1.385 . S
C1510 C1509 1.374 . S
C1511 C1508 1.499 . S
C1511 C1512 1.373 . S
C1511 C1513 1.389 . S
C1512 H1485 0.950 . S
C1512 C1498 1.377 . S
C1512 C1511 1.373 . S
C1513 C1497 1.377 . S
C1513 C1511 1.389 . S
C1513 C1514 1.524 . S
C1514 C1513 1.524 . S
C1514 C1515 1.397 . S
C1514 C1519 1.363 . S
C1515 H1486 0.950 . S
C1515 C1514 1.397 . S
C1515 C1516 1.334 . S
C1516 H1487 0.950 . S
C1516 C1515 1.334 . S
C1516 C1517 1.287 . S
C1517 C1516 1.287 . S
C1517 C1518 1.524 . S
C1517 H1520 0.999 . S
C1518 H1488 0.950 . S
C1518 C1517 1.524 . S
C1518 C1519 1.415 . S
C1519 H1489 0.950 . S
C1519 C1514 1.363 . S
C1519 C1518 1.415 . S
H1520 C1517 0.999 . S
H1521 C1502 0.913 . S
H1522 C1540 0.951 . S
H1523 C1542 0.951 . S
H1524 C1544 0.950 . S
H1525 C1545 0.950 . S
H1526 C1547 0.950 . S
H1527 C1550 0.950 . S
H1528 C1551 0.950 . S
H1529 C1553 0.950 . S
H1530 C1554 0.950 . S
H1531 C1555 0.951 . S
H1532 C1557 0.951 . S
H1533 C1559 0.950 . S
H1534 C1560 0.950 . S
H1535 C1562 0.950 . S
H1536 C1565 0.950 . S
H1537 C1566 0.950 . S
H1538 C1568 0.950 . S
H1539 C1569 0.950 . S
C1540 H1522 0.951 . S
C1540 C1541 1.366 . S
C1540 C1542 1.388 . S
C1541 C1540 1.366 . S
C1541 C1545 1.385 . S
C1542 H1523 0.951 . S
C1542 C1540 1.388 . S
C1542 C1543 1.366 . S
C1543 C1542 1.366 . S
C1543 C1544 1.414 . S
C1543 C1546 1.499 . S
C1544 H1524 0.950 . S
C1544 C1543 1.414 . S
C1544 C1545 1.374 . S
C1545 H1525 0.950 . S
C1545 C1541 1.385 . S
C1545 C1544 1.374 . S
C1546 C1543 1.499 . S
C1546 C1547 1.373 . S
C1546 C1548 1.389 . S
C1547 H1526 0.950 . S
C1547 C1546 1.373 . S
C1547 C1563 1.377 . S
C1548 C1546 1.389 . S
C1548 C1549 1.524 . S
C1548 C1562 1.377 . S
C1549 C1548 1.524 . S
C1549 C1550 1.397 . S
C1549 C1554 1.363 . S
C1550 H1527 0.950 . S
C1550 C1549 1.397 . S
C1550 C1551 1.334 . S
C1551 H1528 0.950 . S
C1551 C1550 1.334 . S
C1551 C1552 1.287 . S
C1552 C1551 1.287 . S
C1552 C1553 1.524 . S
C1552 H1571 0.913 . S
C1553 H1529 0.950 . S
C1553 C1552 1.524 . S
C1553 C1554 1.415 . S
C1554 H1530 0.950 . S
C1554 C1549 1.363 . S
C1554 C1553 1.415 . S
C1555 H1531 0.951 . S
C1555 C1556 1.366 . S
C1555 C1557 1.388 . S
C1556 C1555 1.366 . S
C1556 C1560 1.385 . S
C1557 H1532 0.951 . S
C1557 C1555 1.388 . S
C1557 C1558 1.366 . S
C1558 C1557 1.366 . S
C1558 C1559 1.414 . S
C1558 C1561 1.499 . S
C1559 H1533 0.950 . S
C1559 C1558 1.414 . S
C1559 C1560 1.374 . S
C1560 H1534 0.950 . S
C1560 C1556 1.385 . S
C1560 C1559 1.374 . S
C1561 C1558 1.499 . S
C1561 C1562 1.373 . S
C1561 C1563 1.389 . S
C1562 H1535 0.950 . S
C1562 C1548 1.377 . S
C1562 C1561 1.373 . S
C1563 C1547 1.377 . S
C1563 C1561 1.389 . S
C1563 C1564 1.524 . S
C1564 C1563 1.524 . S
C1564 C1565 1.397 . S
C1564 C1569 1.363 . S
C1565 H1536 0.950 . S
C1565 C1564 1.397 . S
C1565 C1566 1.334 . S
C1566 H1537 0.950 . S
C1566 C1565 1.334 . S
C1566 C1567 1.287 . S
C1567 C1566 1.287 . S
C1567 C1568 1.524 . S
C1567 H1570 0.999 . S
C1568 H1538 0.950 . S
C1568 C1567 1.524 . S
C1568 C1569 1.415 . S
C1569 H1539 0.950 . S
C1569 C1564 1.363 . S
C1569 C1568 1.415 . S
H1570 C1567 0.999 . S
H1571 C1552 0.913 . S
H1572 C1590 0.951 . S
H1573 C1592 0.951 . S
H1574 C1594 0.950 . S
H1575 C1595 0.950 . S
H1576 C1597 0.950 . S
H1577 C1600 0.950 . S
H1578 C1601 0.950 . S
H1579 C1603 0.950 . S
H1580 C1604 0.950 1_545 S
H1581 C1605 0.951 . S
H1582 C1607 0.951 . S
H1583 C1609 0.950 . S
H1584 C1610 0.950 . S
H1585 C1612 0.950 . S
H1586 C1615 0.950 . S
H1587 C1616 0.950 . S
H1588 C1618 0.950 . S
H1589 C1619 0.950 . S
C1590 H1572 0.951 . S
C1590 C1591 1.366 . S
C1590 C1592 1.388 . S
C1591 C1590 1.366 . S
C1591 C1595 1.385 . S
C1592 H1573 0.951 . S
C1592 C1590 1.388 . S
C1592 C1593 1.366 . S
C1593 C1592 1.366 . S
C1593 C1594 1.414 . S
C1593 C1596 1.499 1_565 S
C1594 H1574 0.950 . S
C1594 C1593 1.414 . S
C1594 C1595 1.374 . S
C1595 H1575 0.950 . S
C1595 C1591 1.385 . S
C1595 C1594 1.374 . S
C1596 C1593 1.499 1_545 S
C1596 C1597 1.373 . S
C1596 C1598 1.389 . S
C1597 H1576 0.950 . S
C1597 C1596 1.373 . S
C1597 C1613 1.377 . S
C1598 C1596 1.389 . S
C1598 C1599 1.505 1_545 S
C1598 C1612 1.377 . S
C1599 C1598 1.505 1_565 S
C1599 C1600 1.417 . S
C1599 C1604 1.360 . S
C1600 H1577 0.950 . S
C1600 C1599 1.417 . S
C1600 C1601 1.334 . S
C1601 H1578 0.950 . S
C1601 C1600 1.334 . S
C1601 C1602 1.287 . S
C1602 C1601 1.287 . S
C1602 C1603 1.524 . S
C1602 H1621 0.913 . S
C1603 H1579 0.950 . S
C1603 C1602 1.524 . S
C1603 C1604 1.415 . S
C1604 H1580 0.950 1_565 S
C1604 C1599 1.360 . S
C1604 C1603 1.415 . S
C1605 H1581 0.951 . S
C1605 C1606 1.366 . S
C1605 C1607 1.388 . S
C1606 C1605 1.366 . S
C1606 C1610 1.385 . S
C1607 H1582 0.951 . S
C1607 C1605 1.388 . S
C1607 C1608 1.366 . S
C1608 C1607 1.366 . S
C1608 C1609 1.414 . S
C1608 C1611 1.499 . S
C1609 H1583 0.950 . S
C1609 C1608 1.414 . S
C1609 C1610 1.374 . S
C1610 H1584 0.950 . S
C1610 C1606 1.385 . S
C1610 C1609 1.374 . S
C1611 C1608 1.499 . S
C1611 C1612 1.373 . S
C1611 C1613 1.389 . S
C1612 H1585 0.950 . S
C1612 C1598 1.377 . S
C1612 C1611 1.373 . S
C1613 C1597 1.377 . S
C1613 C1611 1.389 . S
C1613 C1614 1.524 . S
C1614 C1613 1.524 . S
C1614 C1615 1.397 . S
C1614 C1619 1.363 . S
C1615 H1586 0.950 . S
C1615 C1614 1.397 . S
C1615 C1616 1.334 . S
C1616 H1587 0.950 . S
C1616 C1615 1.334 . S
C1616 C1617 1.287 . S
C1617 C1616 1.287 . S
C1617 C1618 1.524 . S
C1617 H1620 0.999 . S
C1618 H1588 0.950 . S
C1618 C1617 1.524 . S
C1618 C1619 1.415 . S
C1619 H1589 0.950 . S
C1619 C1614 1.363 . S
C1619 C1618 1.415 . S
H1620 C1617 0.999 . S
H1621 C1602 0.913 . S
H1622 C1640 0.951 . S
H1623 C1642 0.951 . S
H1624 C1644 0.950 . S
H1625 C1645 0.950 . S
H1626 C1647 0.950 . S
H1627 C1650 0.950 . S
H1628 C1651 0.950 . S
H1629 C1653 0.950 . S
H1630 C1654 0.950 . S
H1631 C1655 0.951 . S
H1632 C1657 0.951 . S
H1633 C1659 0.950 . S
H1634 C1660 0.950 . S
H1635 C1662 0.950 . S
H1636 C1665 0.950 . S
H1637 C1666 0.950 . S
H1638 C1668 0.950 . S
H1639 C1669 0.950 . S
C1640 H1622 0.951 . S
C1640 C1641 1.366 . S
C1640 C1642 1.388 . S
C1641 C1640 1.366 . S
C1641 C1645 1.385 . S
C1642 H1623 0.951 . S
C1642 C1640 1.388 . S
C1642 C1643 1.366 . S
C1643 C1642 1.366 . S
C1643 C1644 1.414 . S
C1643 C1646 1.499 . S
C1644 H1624 0.950 . S
C1644 C1643 1.414 . S
C1644 C1645 1.374 . S
C1645 H1625 0.950 . S
C1645 C1641 1.385 . S
C1645 C1644 1.374 . S
C1646 C1643 1.499 . S
C1646 C1647 1.373 . S
C1646 C1648 1.389 . S
C1647 H1626 0.950 . S
C1647 C1646 1.373 . S
C1647 C1663 1.377 . S
C1648 C1646 1.389 . S
C1648 C1649 1.524 . S
C1648 C1662 1.377 . S
C1649 C1648 1.524 . S
C1649 C1650 1.397 . S
C1649 C1654 1.363 . S
C1650 H1627 0.950 . S
C1650 C1649 1.397 . S
C1650 C1651 1.334 . S
C1651 H1628 0.950 . S
C1651 C1650 1.334 . S
C1651 C1652 1.287 . S
C1652 C1651 1.287 . S
C1652 C1653 1.524 . S
C1652 H1671 0.913 . S
C1653 H1629 0.950 . S
C1653 C1652 1.524 . S
C1653 C1654 1.415 . S
C1654 H1630 0.950 . S
C1654 C1649 1.363 . S
C1654 C1653 1.415 . S
C1655 H1631 0.951 . S
C1655 C1656 1.366 . S
C1655 C1657 1.388 . S
C1656 C1655 1.366 . S
C1656 C1660 1.385 . S
C1657 H1632 0.951 . S
C1657 C1655 1.388 . S
C1657 C1658 1.366 . S
C1658 C1657 1.366 . S
C1658 C1659 1.414 . S
C1658 C1661 1.499 . S
C1659 H1633 0.950 . S
C1659 C1658 1.414 . S
C1659 C1660 1.374 . S
C1660 H1634 0.950 . S
C1660 C1656 1.385 . S
C1660 C1659 1.374 . S
C1661 C1658 1.499 . S
C1661 C1662 1.373 . S
C1661 C1663 1.389 . S
C1662 H1635 0.950 . S
C1662 C1648 1.377 . S
C1662 C1661 1.373 . S
C1663 C1647 1.377 . S
C1663 C1661 1.389 . S
C1663 C1664 1.524 . S
C1664 C1663 1.524 . S
C1664 C1665 1.397 . S
C1664 C1669 1.363 . S
C1665 H1636 0.950 . S
C1665 C1664 1.397 . S
C1665 C1666 1.334 . S
C1666 H1637 0.950 . S
C1666 C1665 1.334 . S
C1666 C1667 1.287 . S
C1667 C1666 1.287 . S
C1667 C1668 1.524 . S
C1667 H1670 0.999 . S
C1668 H1638 0.950 . S
C1668 C1667 1.524 . S
C1668 C1669 1.415 . S
C1669 H1639 0.950 . S
C1669 C1664 1.363 . S
C1669 C1668 1.415 . S
H1670 C1667 0.999 . S
H1671 C1652 0.913 . S
H1672 C1690 0.951 . S
H1673 C1692 0.951 . S
H1674 C1694 0.950 . S
H1675 C1695 0.950 . S
H1676 C1697 0.950 . S
H1677 C1700 0.950 . S
H1678 C1701 0.950 . S
H1679 C1703 0.950 . S
H1680 C1704 0.950 . S
H1681 C1705 0.951 . S
H1682 C1707 0.951 . S
H1683 C1709 0.950 . S
H1684 C1710 0.950 . S
H1685 C1712 0.950 . S
H1686 C1715 0.950 . S
H1687 C1716 0.950 . S
H1688 C1718 0.950 . S
H1689 C1719 0.950 . S
C1690 H1672 0.951 . S
C1690 C1691 1.366 . S
C1690 C1692 1.388 . S
C1691 C1690 1.366 . S
C1691 C1695 1.385 . S
C1692 H1673 0.951 . S
C1692 C1690 1.388 . S
C1692 C1693 1.366 . S
C1693 C1692 1.366 . S
C1693 C1694 1.414 . S
C1693 C1696 1.499 . S
C1694 H1674 0.950 . S
C1694 C1693 1.414 . S
C1694 C1695 1.374 . S
C1695 H1675 0.950 . S
C1695 C1691 1.385 . S
C1695 C1694 1.374 . S
C1696 C1693 1.499 . S
C1696 C1697 1.373 . S
C1696 C1698 1.389 . S
C1697 H1676 0.950 . S
C1697 C1696 1.373 . S
C1697 C1713 1.377 . S
C1698 C1696 1.389 . S
C1698 C1699 1.524 . S
C1698 C1712 1.377 . S
C1699 C1698 1.524 . S
C1699 C1700 1.397 . S
C1699 C1704 1.363 . S
C1700 H1677 0.950 . S
C1700 C1699 1.397 . S
C1700 C1701 1.334 . S
C1701 H1678 0.950 . S
C1701 C1700 1.334 . S
C1701 C1702 1.287 . S
C1702 C1701 1.287 . S
C1702 C1703 1.524 . S
C1702 H1721 0.913 . S
C1703 H1679 0.950 . S
C1703 C1702 1.524 . S
C1703 C1704 1.415 . S
C1704 H1680 0.950 . S
C1704 C1699 1.363 . S
C1704 C1703 1.415 . S
C1705 H1681 0.951 . S
C1705 C1706 1.366 . S
C1705 C1707 1.388 . S
C1706 C1705 1.366 . S
C1706 C1710 1.385 . S
C1707 H1682 0.951 . S
C1707 C1705 1.388 . S
C1707 C1708 1.366 . S
C1708 C1707 1.366 . S
C1708 C1709 1.414 . S
C1708 C1711 1.499 . S
C1709 H1683 0.950 . S
C1709 C1708 1.414 . S
C1709 C1710 1.374 . S
C1710 H1684 0.950 . S
C1710 C1706 1.385 . S
C1710 C1709 1.374 . S
C1711 C1708 1.499 . S
C1711 C1712 1.373 . S
C1711 C1713 1.389 . S
C1712 H1685 0.950 . S
C1712 C1698 1.377 . S
C1712 C1711 1.373 . S
C1713 C1697 1.377 . S
C1713 C1711 1.389 . S
C1713 C1714 1.524 . S
C1714 C1713 1.524 . S
C1714 C1715 1.397 . S
C1714 C1719 1.363 . S
C1715 H1686 0.950 . S
C1715 C1714 1.397 . S
C1715 C1716 1.334 . S
C1716 H1687 0.950 . S
C1716 C1715 1.334 . S
C1716 C1717 1.287 . S
C1717 C1716 1.287 . S
C1717 C1718 1.524 . S
C1717 H1720 0.999 . S
C1718 H1688 0.950 . S
C1718 C1717 1.524 . S
C1718 C1719 1.415 . S
C1719 H1689 0.950 . S
C1719 C1714 1.363 . S
C1719 C1718 1.415 . S
H1720 C1717 0.999 . S
H1721 C1702 0.913 . S
H1722 C1740 0.951 . S
H1723 C1742 0.951 . S
H1724 C1744 0.950 . S
H1725 C1745 0.950 . S
H1726 C1747 0.950 . S
H1727 C1750 0.950 . S
H1728 C1751 0.950 . S
H1729 C1753 0.950 . S
H1730 C1754 0.950 . S
H1731 C1755 0.951 . S
H1732 C1757 0.951 . S
H1733 C1759 0.950 . S
H1734 C1760 0.950 . S
H1735 C1762 0.950 . S
H1736 C1765 0.950 . S
H1737 C1766 0.950 . S
H1738 C1768 0.950 . S
H1739 C1769 0.950 1_545 S
C1740 H1722 0.951 . S
C1740 C1741 1.366 . S
C1740 C1742 1.388 . S
C1741 C1740 1.366 . S
C1741 C1745 1.385 . S
C1742 H1723 0.951 . S
C1742 C1740 1.388 . S
C1742 C1743 1.366 . S
C1743 C1742 1.366 . S
C1743 C1744 1.414 . S
C1743 C1746 1.499 . S
C1744 H1724 0.950 . S
C1744 C1743 1.414 . S
C1744 C1745 1.374 . S
C1745 H1725 0.950 . S
C1745 C1741 1.385 . S
C1745 C1744 1.374 . S
C1746 C1743 1.499 . S
C1746 C1747 1.373 . S
C1746 C1748 1.389 . S
C1747 H1726 0.950 . S
C1747 C1746 1.373 . S
C1747 C1763 1.377 . S
C1748 C1746 1.389 . S
C1748 C1749 1.524 . S
C1748 C1762 1.377 . S
C1749 C1748 1.524 . S
C1749 C1750 1.397 . S
C1749 C1754 1.363 . S
C1750 H1727 0.950 . S
C1750 C1749 1.397 . S
C1750 C1751 1.334 . S
C1751 H1728 0.950 . S
C1751 C1750 1.334 . S
C1751 C1752 1.287 . S
C1752 C1751 1.287 . S
C1752 C1753 1.524 . S
C1752 H1771 0.913 . S
C1753 H1729 0.950 . S
C1753 C1752 1.524 . S
C1753 C1754 1.415 . S
C1754 H1730 0.950 . S
C1754 C1749 1.363 . S
C1754 C1753 1.415 . S
C1755 H1731 0.951 . S
C1755 C1756 1.366 . S
C1755 C1757 1.388 . S
C1756 C1755 1.366 . S
C1756 C1760 1.385 . S
C1757 H1732 0.951 . S
C1757 C1755 1.388 . S
C1757 C1758 1.366 . S
C1758 C1757 1.366 . S
C1758 C1759 1.414 . S
C1758 C1761 1.499 . S
C1759 H1733 0.950 . S
C1759 C1758 1.414 . S
C1759 C1760 1.374 . S
C1760 H1734 0.950 . S
C1760 C1756 1.385 . S
C1760 C1759 1.374 . S
C1761 C1758 1.499 . S
C1761 C1762 1.373 . S
C1761 C1763 1.389 . S
C1762 H1735 0.950 . S
C1762 C1748 1.377 . S
C1762 C1761 1.373 . S
C1763 C1747 1.377 . S
C1763 C1761 1.389 . S
C1763 C1764 1.524 . S
C1764 C1763 1.524 . S
C1764 C1765 1.397 . S
C1764 C1769 1.363 1_545 S
C1765 H1736 0.950 . S
C1765 C1764 1.397 . S
C1765 C1766 1.334 1_545 S
C1766 H1737 0.950 . S
C1766 C1765 1.334 1_565 S
C1766 C1767 1.287 . S
C1767 C1766 1.287 . S
C1767 C1768 1.524 . S
C1767 H1770 0.999 . S
C1768 H1738 0.950 . S
C1768 C1767 1.524 . S
C1768 C1769 1.415 . S
C1769 H1739 0.950 1_565 S
C1769 C1764 1.363 1_565 S
C1769 C1768 1.415 . S
H1770 C1767 0.999 . S
H1771 C1752 0.913 . S
H1772 C1790 0.951 . S
H1773 C1792 0.951 . S
H1774 C1794 0.950 . S
H1775 C1795 0.950 . S
H1776 C1797 0.950 . S
H1777 C1800 0.950 . S
H1778 C1801 0.950 . S
H1779 C1803 0.950 . S
H1780 C1804 0.950 . S
H1781 C1805 0.951 . S
H1782 C1807 0.951 . S
H1783 C1809 0.950 . S
H1784 C1810 0.950 . S
H1785 C1812 0.950 . S
H1786 C1815 0.950 . S
H1787 C1816 0.950 . S
H1788 C1818 0.950 . S
H1789 C1819 0.950 . S
C1790 H1772 0.951 . S
C1790 C1791 1.366 . S
C1790 C1792 1.388 . S
C1791 C1790 1.366 . S
C1791 C1795 1.385 . S
C1792 H1773 0.951 . S
C1792 C1790 1.388 . S
C1792 C1793 1.366 . S
C1793 C1792 1.366 . S
C1793 C1794 1.414 . S
C1793 C1796 1.499 . S
C1794 H1774 0.950 . S
C1794 C1793 1.414 . S
C1794 C1795 1.374 . S
C1795 H1775 0.950 . S
C1795 C1791 1.385 . S
C1795 C1794 1.374 . S
C1796 C1793 1.499 . S
C1796 C1797 1.373 . S
C1796 C1798 1.389 . S
C1797 H1776 0.950 . S
C1797 C1796 1.373 . S
C1797 C1813 1.377 . S
C1798 C1796 1.389 . S
C1798 C1799 1.524 . S
C1798 C1812 1.377 . S
C1799 C1798 1.524 . S
C1799 C1800 1.397 . S
C1799 C1804 1.363 . S
C1800 H1777 0.950 . S
C1800 C1799 1.397 . S
C1800 C1801 1.334 . S
C1801 H1778 0.950 . S
C1801 C1800 1.334 . S
C1801 C1802 1.287 . S
C1802 C1801 1.287 . S
C1802 C1803 1.524 . S
C1802 H1821 0.913 . S
C1803 H1779 0.950 . S
C1803 C1802 1.524 . S
C1803 C1804 1.415 . S
C1804 H1780 0.950 . S
C1804 C1799 1.363 . S
C1804 C1803 1.415 . S
C1805 H1781 0.951 . S
C1805 C1806 1.366 . S
C1805 C1807 1.388 . S
C1806 C1805 1.366 . S
C1806 C1810 1.385 . S
C1807 H1782 0.951 . S
C1807 C1805 1.388 . S
C1807 C1808 1.366 . S
C1808 C1807 1.366 . S
C1808 C1809 1.414 . S
C1808 C1811 1.499 . S
C1809 H1783 0.950 . S
C1809 C1808 1.414 . S
C1809 C1810 1.374 . S
C1810 H1784 0.950 . S
C1810 C1806 1.385 . S
C1810 C1809 1.374 . S
C1811 C1808 1.499 . S
C1811 C1812 1.373 . S
C1811 C1813 1.389 . S
C1812 H1785 0.950 . S
C1812 C1798 1.377 . S
C1812 C1811 1.373 . S
C1813 C1797 1.377 . S
C1813 C1811 1.389 . S
C1813 C1814 1.524 . S
C1814 C1813 1.524 . S
C1814 C1815 1.397 . S
C1814 C1819 1.363 . S
C1815 H1786 0.950 . S
C1815 C1814 1.397 . S
C1815 C1816 1.334 . S
C1816 H1787 0.950 . S
C1816 C1815 1.334 . S
C1816 C1817 1.287 . S
C1817 C1816 1.287 . S
C1817 C1818 1.524 . S
C1817 H1820 0.999 . S
C1818 H1788 0.950 . S
C1818 C1817 1.524 . S
C1818 C1819 1.415 . S
C1819 H1789 0.950 . S
C1819 C1814 1.363 . S
C1819 C1818 1.415 . S
H1820 C1817 0.999 . S
H1821 C1802 0.913 . S
H1822 C1840 0.951 . S
H1823 C1842 0.951 . S
H1824 C1844 0.950 . S
H1825 C1845 0.950 . S
H1826 C1847 0.950 . S
H1827 C1850 0.950 . S
H1828 C1851 0.950 . S
H1829 C1853 0.950 . S
H1830 C1854 0.950 . S
H1831 C1855 0.951 . S
H1832 C1857 0.951 . S
H1833 C1859 0.950 . S
H1834 C1860 0.950 . S
H1835 C1862 0.950 . S
H1836 C1865 0.950 . S
H1837 C1866 0.950 . S
H1838 C1868 0.950 . S
H1839 C1869 0.950 . S
C1840 H1822 0.951 . S
C1840 C1841 1.366 . S
C1840 C1842 1.388 . S
C1841 C1840 1.366 . S
C1841 C1845 1.385 . S
C1842 H1823 0.951 . S
C1842 C1840 1.388 . S
C1842 C1843 1.366 . S
C1843 C1842 1.366 . S
C1843 C1844 1.414 . S
C1843 C1846 1.499 . S
C1844 H1824 0.950 . S
C1844 C1843 1.414 . S
C1844 C1845 1.374 . S
C1845 H1825 0.950 . S
C1845 C1841 1.385 . S
C1845 C1844 1.374 . S
C1846 C1843 1.499 . S
C1846 C1847 1.373 . S
C1846 C1848 1.389 . S
C1847 H1826 0.950 . S
C1847 C1846 1.373 . S
C1847 C1863 1.377 . S
C1848 C1846 1.389 . S
C1848 C1849 1.524 . S
C1848 C1862 1.377 . S
C1849 C1848 1.524 . S
C1849 C1850 1.397 . S
C1849 C1854 1.363 . S
C1850 H1827 0.950 . S
C1850 C1849 1.397 . S
C1850 C1851 1.334 . S
C1851 H1828 0.950 . S
C1851 C1850 1.334 . S
C1851 C1852 1.287 . S
C1852 C1851 1.287 . S
C1852 C1853 1.524 . S
C1852 H1871 0.913 . S
C1853 H1829 0.950 . S
C1853 C1852 1.524 . S
C1853 C1854 1.415 . S
C1854 H1830 0.950 . S
C1854 C1849 1.363 . S
C1854 C1853 1.415 . S
C1855 H1831 0.951 . S
C1855 C1856 1.366 . S
C1855 C1857 1.388 . S
C1856 C1855 1.366 . S
C1856 C1860 1.385 . S
C1857 H1832 0.951 . S
C1857 C1855 1.388 . S
C1857 C1858 1.366 . S
C1858 C1857 1.366 . S
C1858 C1859 1.414 . S
C1858 C1861 1.499 . S
C1859 H1833 0.950 . S
C1859 C1858 1.414 . S
C1859 C1860 1.374 . S
C1860 H1834 0.950 . S
C1860 C1856 1.385 . S
C1860 C1859 1.374 . S
C1861 C1858 1.499 . S
C1861 C1862 1.373 . S
C1861 C1863 1.389 . S
C1862 H1835 0.950 . S
C1862 C1848 1.377 . S
C1862 C1861 1.373 . S
C1863 C1847 1.377 . S
C1863 C1861 1.389 . S
C1863 C1864 1.524 . S
C1864 C1863 1.524 . S
C1864 C1865 1.397 . S
C1864 C1869 1.363 . S
C1865 H1836 0.950 . S
C1865 C1864 1.397 . S
C1865 C1866 1.334 . S
C1866 H1837 0.950 . S
C1866 C1865 1.334 . S
C1866 C1867 1.287 . S
C1867 C1866 1.287 . S
C1867 C1868 1.524 . S
C1867 H1870 0.999 . S
C1868 H1838 0.950 . S
C1868 C1867 1.524 . S
C1868 C1869 1.415 . S
C1869 H1839 0.950 . S
C1869 C1864 1.363 . S
C1869 C1868 1.415 . S
H1870 C1867 0.999 . S
H1871 C1852 0.913 . S
H1872 C1890 0.951 . S
H1873 C1892 0.951 . S
H1874 C1894 0.950 . S
H1875 C1895 0.950 . S
H1876 C1897 0.950 . S
H1877 C1900 0.950 . S
H1878 C1901 0.950 . S
H1879 C1903 0.950 . S
H1880 C1904 0.950 . S
H1881 C1905 0.951 . S
H1882 C1907 0.951 . S
H1883 C1909 0.950 . S
H1884 C1910 0.950 . S
H1885 C1912 0.950 . S
H1886 C1915 0.950 . S
H1887 C1916 0.950 . S
H1888 C1918 0.950 . S
H1889 C1919 0.950 . S
C1890 H1872 0.951 . S
C1890 C1891 1.366 . S
C1890 C1892 1.388 . S
C1891 C1890 1.366 . S
C1891 C1895 1.385 . S
C1892 H1873 0.951 . S
C1892 C1890 1.388 . S
C1892 C1893 1.366 . S
C1893 C1892 1.366 . S
C1893 C1894 1.414 . S
C1893 C1896 1.499 . S
C1894 H1874 0.950 . S
C1894 C1893 1.414 . S
C1894 C1895 1.374 . S
C1895 H1875 0.950 . S
C1895 C1891 1.385 . S
C1895 C1894 1.374 . S
C1896 C1893 1.499 . S
C1896 C1897 1.373 . S
C1896 C1898 1.389 . S
C1897 H1876 0.950 . S
C1897 C1896 1.373 . S
C1897 C1913 1.377 . S
C1898 C1896 1.389 . S
C1898 C1899 1.524 . S
C1898 C1912 1.377 . S
C1899 C1898 1.524 . S
C1899 C1900 1.397 . S
C1899 C1904 1.363 . S
C1900 H1877 0.950 . S
C1900 C1899 1.397 . S
C1900 C1901 1.334 . S
C1901 H1878 0.950 . S
C1901 C1900 1.334 . S
C1901 C1902 1.287 . S
C1902 C1901 1.287 . S
C1902 C1903 1.524 . S
C1902 H1921 0.913 . S
C1903 H1879 0.950 . S
C1903 C1902 1.524 . S
C1903 C1904 1.415 . S
C1904 H1880 0.950 . S
C1904 C1899 1.363 . S
C1904 C1903 1.415 . S
C1905 H1881 0.951 . S
C1905 C1906 1.366 . S
C1905 C1907 1.388 . S
C1906 C1905 1.366 . S
C1906 C1910 1.385 . S
C1907 H1882 0.951 . S
C1907 C1905 1.388 . S
C1907 C1908 1.366 . S
C1908 C1907 1.366 . S
C1908 C1909 1.414 . S
C1908 C1911 1.499 . S
C1909 H1883 0.950 . S
C1909 C1908 1.414 . S
C1909 C1910 1.374 . S
C1910 H1884 0.950 . S
C1910 C1906 1.385 . S
C1910 C1909 1.374 . S
C1911 C1908 1.499 . S
C1911 C1912 1.373 . S
C1911 C1913 1.389 . S
C1912 H1885 0.950 . S
C1912 C1898 1.377 . S
C1912 C1911 1.373 . S
C1913 C1897 1.377 . S
C1913 C1911 1.389 . S
C1913 C1914 1.524 . S
C1914 C1913 1.524 . S
C1914 C1915 1.397 . S
C1914 C1919 1.363 . S
C1915 H1886 0.950 . S
C1915 C1914 1.397 . S
C1915 C1916 1.334 . S
C1916 H1887 0.950 . S
C1916 C1915 1.334 . S
C1916 C1917 1.287 . S
C1917 C1916 1.287 . S
C1917 C1918 1.524 . S
C1917 H1920 0.999 . S
C1918 H1888 0.950 . S
C1918 C1917 1.524 . S
C1918 C1919 1.415 . S
C1919 H1889 0.950 . S
C1919 C1914 1.363 . S
C1919 C1918 1.415 . S
H1920 C1917 0.999 . S
H1921 C1902 0.913 . S
H1922 C1940 0.951 . S
H1923 C1942 0.951 . S
H1924 C1944 0.950 . S
H1925 C1945 0.950 . S
H1926 C1947 0.950 . S
H1927 C1950 0.950 . S
H1928 C1951 0.950 . S
H1929 C1953 0.950 . S
H1930 C1954 0.950 . S
H1931 C1955 0.951 . S
H1932 C1957 0.951 . S
H1933 C1959 0.950 . S
H1934 C1960 0.950 . S
H1935 C1962 0.950 . S
H1936 C1965 0.950 . S
H1937 C1966 0.891 1_655 S
H1938 C1968 0.950 . S
H1939 C1969 0.950 . S
C1940 H1922 0.951 . S
C1940 C1941 1.366 . S
C1940 C1942 1.388 . S
C1941 C1940 1.366 . S
C1941 C1945 1.385 . S
C1942 H1923 0.951 . S
C1942 C1940 1.388 . S
C1942 C1943 1.366 . S
C1943 C1942 1.366 . S
C1943 C1944 1.414 . S
C1943 C1946 1.499 . S
C1944 H1924 0.950 . S
C1944 C1943 1.414 . S
C1944 C1945 1.374 . S
C1945 H1925 0.950 . S
C1945 C1941 1.385 . S
C1945 C1944 1.374 . S
C1946 C1943 1.499 . S
C1946 C1947 1.373 . S
C1946 C1948 1.389 . S
C1947 H1926 0.950 . S
C1947 C1946 1.373 . S
C1947 C1963 1.377 . S
C1948 C1946 1.389 . S
C1948 C1949 1.524 . S
C1948 C1962 1.377 . S
C1949 C1948 1.524 . S
C1949 C1950 1.397 . S
C1949 C1954 1.363 . S
C1950 H1927 0.950 . S
C1950 C1949 1.397 . S
C1950 C1951 1.334 . S
C1951 H1928 0.950 . S
C1951 C1950 1.334 . S
C1951 C1952 1.287 . S
C1952 C1951 1.287 . S
C1952 C1953 1.524 . S
C1952 H1971 0.913 . S
C1953 H1929 0.950 . S
C1953 C1952 1.524 . S
C1953 C1954 1.415 . S
C1954 H1930 0.950 . S
C1954 C1949 1.363 . S
C1954 C1953 1.415 . S
C1955 H1931 0.951 . S
C1955 C1956 1.366 . S
C1955 C1957 1.388 . S
C1956 C1955 1.366 . S
C1956 C1960 1.385 . S
C1957 H1932 0.951 . S
C1957 C1955 1.388 . S
C1957 C1958 1.366 . S
C1958 C1957 1.366 . S
C1958 C1959 1.414 . S
C1958 C1961 1.499 . S
C1959 H1933 0.950 . S
C1959 C1958 1.414 . S
C1959 C1960 1.374 . S
C1960 H1934 0.950 . S
C1960 C1956 1.385 . S
C1960 C1959 1.374 . S
C1961 C1958 1.499 . S
C1961 C1962 1.373 . S
C1961 C1963 1.389 . S
C1962 H1935 0.950 . S
C1962 C1948 1.377 . S
C1962 C1961 1.373 . S
C1963 C1947 1.377 . S
C1963 C1961 1.389 . S
C1963 C1964 1.524 . S
C1964 C1963 1.524 . S
C1964 C1965 1.397 . S
C1964 C1969 1.363 . S
C1965 H1936 0.950 . S
C1965 C1964 1.397 . S
C1965 C1966 1.334 . S
C1966 H1937 0.891 1_455 S
C1966 C1965 1.334 . S
C1966 C1967 1.287 . S
C1967 C1966 1.287 . S
C1967 C1968 1.524 . S
C1967 H1970 0.999 . S
C1968 H1938 0.950 . S
C1968 C1967 1.524 . S
C1968 C1969 1.415 . S
C1969 H1939 0.950 . S
C1969 C1964 1.363 . S
C1969 C1968 1.415 . S
H1970 C1967 0.999 . S
H1971 C1952 0.913 . S
H1972 C1990 0.951 . S
H1973 C1992 0.951 . S
H1974 C1994 0.950 . S
H1975 C1995 0.950 . S
H1976 C1997 0.950 . S
H1977 C2000 0.950 . S
H1978 C2001 0.950 . S
H1979 C2003 0.950 . S
H1980 C2004 0.950 . S
H1981 C2005 0.951 . S
H1982 C2007 0.951 . S
H1983 C2009 0.950 . S
H1984 C2010 0.950 . S
H1985 C2012 0.950 . S
H1986 C2015 0.950 . S
H1987 C2016 0.950 . S
H1988 C2018 0.950 . S
H1989 C2019 0.950 . S
C1990 H1972 0.951 . S
C1990 C1991 1.366 . S
C1990 C1992 1.388 . S
C1991 C1990 1.366 . S
C1991 C1995 1.385 . S
C1992 H1973 0.951 . S
C1992 C1990 1.388 . S
C1992 C1993 1.366 . S
C1993 C1992 1.366 . S
C1993 C1994 1.414 . S
C1993 C1996 1.499 . S
C1994 H1974 0.950 . S
C1994 C1993 1.414 . S
C1994 C1995 1.374 . S
C1995 H1975 0.950 . S
C1995 C1991 1.385 . S
C1995 C1994 1.374 . S
C1996 C1993 1.499 . S
C1996 C1997 1.373 . S
C1996 C1998 1.389 . S
C1997 H1976 0.950 . S
C1997 C1996 1.373 . S
C1997 C2013 1.377 . S
C1998 C1996 1.389 . S
C1998 C1999 1.524 . S
C1998 C2012 1.377 . S
C1999 C1998 1.524 . S
C1999 C2000 1.397 . S
C1999 C2004 1.363 . S
C2000 H1977 0.950 . S
C2000 C1999 1.397 . S
C2000 C2001 1.334 . S
C2001 H1978 0.950 . S
C2001 C2000 1.334 . S
C2001 C2002 1.287 . S
C2002 C2001 1.287 . S
C2002 C2003 1.524 . S
C2002 H2021 0.913 . S
C2003 H1979 0.950 . S
C2003 C2002 1.524 . S
C2003 C2004 1.415 . S
C2004 H1980 0.950 . S
C2004 C1999 1.363 . S
C2004 C2003 1.415 . S
C2005 H1981 0.951 . S
C2005 C2006 1.366 . S
C2005 C2007 1.388 . S
C2006 C2005 1.366 . S
C2006 C2010 1.385 . S
C2007 H1982 0.951 . S
C2007 C2005 1.388 . S
C2007 C2008 1.366 . S
C2008 C2007 1.366 . S
C2008 C2009 1.414 . S
C2008 C2011 1.499 . S
C2009 H1983 0.950 . S
C2009 C2008 1.414 . S
C2009 C2010 1.374 . S
C2010 H1984 0.950 . S
C2010 C2006 1.385 . S
C2010 C2009 1.374 . S
C2011 C2008 1.499 . S
C2011 C2012 1.373 . S
C2011 C2013 1.389 . S
C2012 H1985 0.950 . S
C2012 C1998 1.377 . S
C2012 C2011 1.373 . S
C2013 C1997 1.377 . S
C2013 C2011 1.389 . S
C2013 C2014 1.524 . S
C2014 C2013 1.524 . S
C2014 C2015 1.397 . S
C2014 C2019 1.363 . S
C2015 H1986 0.950 . S
C2015 C2014 1.397 . S
C2015 C2016 1.334 . S
C2016 H1987 0.950 . S
C2016 C2015 1.334 . S
C2016 C2017 1.287 . S
C2017 C2016 1.287 . S
C2017 C2018 1.524 . S
C2017 H2020 0.999 . S
C2018 H1988 0.950 . S
C2018 C2017 1.524 . S
C2018 C2019 1.415 . S
C2019 H1989 0.950 . S
C2019 C2014 1.363 . S
C2019 C2018 1.415 . S
H2020 C2017 0.999 . S
H2021 C2002 0.913 . S
H2022 C2040 0.951 . S
H2023 C2042 0.951 . S
H2024 C2044 0.950 . S
H2025 C2045 0.950 . S
H2026 C2047 0.961 . S
H2027 C2050 0.950 . S
H2028 C2051 0.950 . S
H2029 C2053 0.950 . S
H2030 C2054 0.950 . S
H2031 C2055 0.951 . S
H2032 C2057 0.951 . S
H2033 C2059 0.950 . S
H2034 C2060 0.950 . S
H2035 C2062 0.950 . S
H2036 C2065 0.950 . S
H2037 C2066 0.950 . S
H2038 C2068 0.950 . S
H2039 C2069 0.950 . S
C2040 H2022 0.951 . S
C2040 C2041 1.366 . S
C2040 C2042 1.388 . S
C2041 C2040 1.366 . S
C2041 C2045 1.385 . S
C2042 H2023 0.951 . S
C2042 C2040 1.388 . S
C2042 C2043 1.366 . S
C2043 C2042 1.366 . S
C2043 C2044 1.414 . S
C2043 C2046 1.499 . S
C2044 H2024 0.950 . S
C2044 C2043 1.414 . S
C2044 C2045 1.374 . S
C2045 H2025 0.950 . S
C2045 C2041 1.385 . S
C2045 C2044 1.374 . S
C2046 C2043 1.499 . S
C2046 C2047 1.373 . S
C2046 C2048 1.389 . S
C2047 H2026 0.961 . S
C2047 C2046 1.373 . S
C2047 C2063 1.377 1_655 S
C2048 C2046 1.389 . S
C2048 C2049 1.524 . S
C2048 C2062 1.377 . S
C2049 C2048 1.524 . S
C2049 C2050 1.397 . S
C2049 C2054 1.363 . S
C2050 H2027 0.950 . S
C2050 C2049 1.397 . S
C2050 C2051 1.334 . S
C2051 H2028 0.950 . S
C2051 C2050 1.334 . S
C2051 C2052 1.287 . S
C2052 C2051 1.287 . S
C2052 C2053 1.524 . S
C2052 H2071 0.913 . S
C2053 H2029 0.950 . S
C2053 C2052 1.524 . S
C2053 C2054 1.415 . S
C2054 H2030 0.950 . S
C2054 C2049 1.363 . S
C2054 C2053 1.415 . S
C2055 H2031 0.951 . S
C2055 C2056 1.366 . S
C2055 C2057 1.388 . S
C2056 C2055 1.366 . S
C2056 C2060 1.385 . S
C2057 H2032 0.951 . S
C2057 C2055 1.388 . S
C2057 C2058 1.366 . S
C2058 C2057 1.366 . S
C2058 C2059 1.414 . S
C2058 C2061 1.499 . S
C2059 H2033 0.950 . S
C2059 C2058 1.414 . S
C2059 C2060 1.374 . S
C2060 H2034 0.950 . S
C2060 C2056 1.385 . S
C2060 C2059 1.374 . S
C2061 C2058 1.499 . S
C2061 C2062 1.373 1_455 S
C2061 C2063 1.389 . S
C2062 H2035 0.950 . S
C2062 C2048 1.377 . S
C2062 C2061 1.373 1_655 S
C2063 C2047 1.377 1_455 S
C2063 C2061 1.389 . S
C2063 C2064 1.524 . S
C2064 C2063 1.524 . S
C2064 C2065 1.397 . S
C2064 C2069 1.363 . S
C2065 H2036 0.950 . S
C2065 C2064 1.397 . S
C2065 C2066 1.334 . S
C2066 H2037 0.950 . S
C2066 C2065 1.334 . S
C2066 C2067 1.287 . S
C2067 C2066 1.287 . S
C2067 C2068 1.524 . S
C2067 H2070 0.999 . S
C2068 H2038 0.950 . S
C2068 C2067 1.524 . S
C2068 C2069 1.415 . S
C2069 H2039 0.950 . S
C2069 C2064 1.363 . S
C2069 C2068 1.415 . S
H2070 C2067 0.999 . S
H2071 C2052 0.913 . S
H2072 C2090 0.951 . S
H2073 C2092 0.951 . S
H2074 C2094 0.950 . S
H2075 C2095 0.950 . S
H2076 C2097 0.950 . S
H2077 C2100 0.950 . S
H2078 C2101 0.950 . S
H2079 C2103 0.950 . S
H2080 C2104 0.950 . S
H2081 C2105 0.951 . S
H2082 C2107 0.951 . S
H2083 C2109 0.950 . S
H2084 C2110 0.950 . S
H2085 C2112 0.950 . S
H2086 C2115 0.950 . S
H2087 C2116 0.950 . S
H2088 C2118 0.950 . S
H2089 C2119 0.950 . S
C2090 H2072 0.951 . S
C2090 C2091 1.366 . S
C2090 C2092 1.388 . S
C2091 C2090 1.366 . S
C2091 C2095 1.385 . S
C2092 H2073 0.951 . S
C2092 C2090 1.388 . S
C2092 C2093 1.366 . S
C2093 C2092 1.366 . S
C2093 C2094 1.414 . S
C2093 C2096 1.499 . S
C2094 H2074 0.950 . S
C2094 C2093 1.414 . S
C2094 C2095 1.374 . S
C2095 H2075 0.950 . S
C2095 C2091 1.385 . S
C2095 C2094 1.374 . S
C2096 C2093 1.499 . S
C2096 C2097 1.373 . S
C2096 C2098 1.389 . S
C2097 H2076 0.950 . S
C2097 C2096 1.373 . S
C2097 C2113 1.377 . S
C2098 C2096 1.389 . S
C2098 C2099 1.524 . S
C2098 C2112 1.377 . S
C2099 C2098 1.524 . S
C2099 C2100 1.397 . S
C2099 C2104 1.363 . S
C2100 H2077 0.950 . S
C2100 C2099 1.397 . S
C2100 C2101 1.334 . S
C2101 H2078 0.950 . S
C2101 C2100 1.334 . S
C2101 C2102 1.287 . S
C2102 C2101 1.287 . S
C2102 C2103 1.524 . S
C2102 H2121 0.913 . S
C2103 H2079 0.950 . S
C2103 C2102 1.524 . S
C2103 C2104 1.415 . S
C2104 H2080 0.950 . S
C2104 C2099 1.363 . S
C2104 C2103 1.415 . S
C2105 H2081 0.951 . S
C2105 C2106 1.366 . S
C2105 C2107 1.388 . S
C2106 C2105 1.366 . S
C2106 C2110 1.385 . S
C2107 H2082 0.951 . S
C2107 C2105 1.388 . S
C2107 C2108 1.366 . S
C2108 C2107 1.366 . S
C2108 C2109 1.414 . S
C2108 C2111 1.499 . S
C2109 H2083 0.950 . S
C2109 C2108 1.414 . S
C2109 C2110 1.374 . S
C2110 H2084 0.950 . S
C2110 C2106 1.385 . S
C2110 C2109 1.374 . S
C2111 C2108 1.499 . S
C2111 C2112 1.373 . S
C2111 C2113 1.389 . S
C2112 H2085 0.950 . S
C2112 C2098 1.377 . S
C2112 C2111 1.373 . S
C2113 C2097 1.377 . S
C2113 C2111 1.389 . S
C2113 C2114 1.524 . S
C2114 C2113 1.524 . S
C2114 C2115 1.397 . S
C2114 C2119 1.363 . S
C2115 H2086 0.950 . S
C2115 C2114 1.397 . S
C2115 C2116 1.334 . S
C2116 H2087 0.950 . S
C2116 C2115 1.334 . S
C2116 C2117 1.287 . S
C2117 C2116 1.287 . S
C2117 C2118 1.524 . S
C2117 H2120 0.999 . S
C2118 H2088 0.950 . S
C2118 C2117 1.524 . S
C2118 C2119 1.415 . S
C2119 H2089 0.950 . S
C2119 C2114 1.363 . S
C2119 C2118 1.415 . S
H2120 C2117 0.999 . S
H2121 C2102 0.913 . S
H2122 C2140 0.951 . S
H2123 C2142 0.951 1_554 S
H2124 C2144 0.950 . S
H2125 C2145 0.950 . S
H2126 C2147 0.950 . S
H2127 C2150 0.950 . S
H2128 C2151 0.950 . S
H2129 C2153 0.950 . S
H2130 C2154 0.950 . S
H2131 C2155 0.951 . S
H2132 C2157 0.951 . S
H2133 C2159 0.950 . S
H2134 C2160 0.950 1_455 S
H2135 C2162 0.950 . S
H2136 C2165 0.950 . S
H2137 C2166 0.950 . S
H2138 C2168 0.950 . S
H2139 C2169 0.950 . S
C2140 H2122 0.951 . S
C2140 C2141 1.366 . S
C2140 C2142 1.388 1_554 S
C2141 C2140 1.366 . S
C2141 C2145 1.385 1_554 S
C2142 H2123 0.951 1_556 S
C2142 C2140 1.388 1_556 S
C2142 C2143 1.366 . S
C2143 C2142 1.366 . S
C2143 C2144 1.414 . S
C2143 C2146 1.499 . S
C2144 H2124 0.950 . S
C2144 C2143 1.414 . S
C2144 C2145 1.374 . S
C2145 H2125 0.950 . S
C2145 C2141 1.385 1_556 S
C2145 C2144 1.374 . S
C2146 C2143 1.499 . S
C2146 C2147 1.373 . S
C2146 C2148 1.389 . S
C2147 H2126 0.950 . S
C2147 C2146 1.373 . S
C2147 C2163 1.377 . S
C2148 C2146 1.389 . S
C2148 C2149 1.524 . S
C2148 C2162 1.377 . S
C2149 C2148 1.524 . S
C2149 C2150 1.397 . S
C2149 C2154 1.363 . S
C2150 H2127 0.950 . S
C2150 C2149 1.397 . S
C2150 C2151 1.334 . S
C2151 H2128 0.950 . S
C2151 C2150 1.334 . S
C2151 C2152 1.264 1_655 S
C2152 C2151 1.264 1_455 S
C2152 C2153 1.537 . S
C2152 H2171 0.924 . S
C2153 H2129 0.950 . S
C2153 C2152 1.537 . S
C2153 C2154 1.415 1_455 S
C2154 H2130 0.950 . S
C2154 C2149 1.363 . S
C2154 C2153 1.415 1_655 S
C2155 H2131 0.951 . S
C2155 C2156 1.366 . S
C2155 C2157 1.388 . S
C2156 C2155 1.366 . S
C2156 C2160 1.385 . S
C2157 H2132 0.951 . S
C2157 C2155 1.388 . S
C2157 C2158 1.366 . S
C2158 C2157 1.366 . S
C2158 C2159 1.414 . S
C2158 C2161 1.499 . S
C2159 H2133 0.950 . S
C2159 C2158 1.414 . S
C2159 C2160 1.374 . S
C2160 H2134 0.950 1_655 S
C2160 C2156 1.385 . S
C2160 C2159 1.374 . S
C2161 C2158 1.499 . S
C2161 C2162 1.373 . S
C2161 C2163 1.389 . S
C2162 H2135 0.950 . S
C2162 C2148 1.377 . S
C2162 C2161 1.373 . S
C2163 C2147 1.377 . S
C2163 C2161 1.389 . S
C2163 C2164 1.524 . S
C2164 C2163 1.524 . S
C2164 C2165 1.397 . S
C2164 C2169 1.363 . S
C2165 H2136 0.950 . S
C2165 C2164 1.397 . S
C2165 C2166 1.334 . S
C2166 H2137 0.950 . S
C2166 C2165 1.334 . S
C2166 C2167 1.287 . S
C2167 C2166 1.287 . S
C2167 C2168 1.524 . S
C2167 H2170 0.999 . S
C2168 H2138 0.950 . S
C2168 C2167 1.524 . S
C2168 C2169 1.415 . S
C2169 H2139 0.950 . S
C2169 C2164 1.363 . S
C2169 C2168 1.415 . S
H2170 C2167 0.999 . S
H2171 C2152 0.924 . S
H2172 C2190 0.951 . S
H2173 C2192 0.951 . S
H2174 C2194 0.950 . S
H2175 C2195 0.950 . S
H2176 C2197 0.950 . S
H2177 C2200 0.950 . S
H2178 C2201 0.950 . S
H2179 C2203 0.950 . S
H2180 C2204 0.950 . S
H2181 C2205 0.951 . S
H2182 C2207 0.951 . S
H2183 C2209 0.950 . S
H2184 C2210 0.950 . S
H2185 C2212 0.950 . S
H2186 C2215 0.950 . S
H2187 C2216 0.950 . S
H2188 C2218 0.950 . S
H2189 C2219 0.950 . S
C2190 H2172 0.951 . S
C2190 C2191 1.366 . S
C2190 C2192 1.388 . S
C2191 C2190 1.366 . S
C2191 C2195 1.385 . S
C2192 H2173 0.951 . S
C2192 C2190 1.388 . S
C2192 C2193 1.366 . S
C2193 C2192 1.366 . S
C2193 C2194 1.414 . S
C2193 C2196 1.499 . S
C2194 H2174 0.950 . S
C2194 C2193 1.414 . S
C2194 C2195 1.374 . S
C2195 H2175 0.950 . S
C2195 C2191 1.385 . S
C2195 C2194 1.374 . S
C2196 C2193 1.499 . S
C2196 C2197 1.373 . S
C2196 C2198 1.389 . S
C2197 H2176 0.950 . S
C2197 C2196 1.373 . S
C2197 C2213 1.377 . S
C2198 C2196 1.389 . S
C2198 C2199 1.524 . S
C2198 C2212 1.377 . S
C2199 C2198 1.524 . S
C2199 C2200 1.397 . S
C2199 C2204 1.363 . S
C2200 H2177 0.950 . S
C2200 C2199 1.397 . S
C2200 C2201 1.334 . S
C2201 H2178 0.950 . S
C2201 C2200 1.334 . S
C2201 C2202 1.287 . S
C2202 C2201 1.287 . S
C2202 C2203 1.524 . S
C2202 H2221 0.913 . S
C2203 H2179 0.950 . S
C2203 C2202 1.524 . S
C2203 C2204 1.415 . S
C2204 H2180 0.950 . S
C2204 C2199 1.363 . S
C2204 C2203 1.415 . S
C2205 H2181 0.951 . S
C2205 C2206 1.366 . S
C2205 C2207 1.388 . S
C2206 C2205 1.366 . S
C2206 C2210 1.385 . S
C2207 H2182 0.951 . S
C2207 C2205 1.388 . S
C2207 C2208 1.366 . S
C2208 C2207 1.366 . S
C2208 C2209 1.414 . S
C2208 C2211 1.499 . S
C2209 H2183 0.950 . S
C2209 C2208 1.414 . S
C2209 C2210 1.374 . S
C2210 H2184 0.950 . S
C2210 C2206 1.385 . S
C2210 C2209 1.374 . S
C2211 C2208 1.499 . S
C2211 C2212 1.373 . S
C2211 C2213 1.389 . S
C2212 H2185 0.950 . S
C2212 C2198 1.377 . S
C2212 C2211 1.373 . S
C2213 C2197 1.377 . S
C2213 C2211 1.389 . S
C2213 C2214 1.524 . S
C2214 C2213 1.524 . S
C2214 C2215 1.397 . S
C2214 C2219 1.363 . S
C2215 H2186 0.950 . S
C2215 C2214 1.397 . S
C2215 C2216 1.334 . S
C2216 H2187 0.950 . S
C2216 C2215 1.334 . S
C2216 C2217 1.287 . S
C2217 C2216 1.287 . S
C2217 C2218 1.524 . S
C2217 H2220 0.999 . S
C2218 H2188 0.950 . S
C2218 C2217 1.524 . S
C2218 C2219 1.415 . S
C2219 H2189 0.950 . S
C2219 C2214 1.363 . S
C2219 C2218 1.415 . S
H2220 C2217 0.999 . S
H2221 C2202 0.913 . S
H2222 C2240 0.951 . S
H2223 C2242 0.951 . S
H2224 C2244 0.950 . S
H2225 C2245 0.950 . S
H2226 C2247 0.950 . S
H2227 C2250 0.950 . S
H2228 C2251 0.950 . S
H2229 C2253 0.950 . S
H2230 C2254 0.950 . S
H2231 C2255 0.951 . S
H2232 C2257 0.951 . S
H2233 C2259 0.950 . S
H2234 C2260 0.950 . S
H2235 C2262 0.950 . S
H2236 C2265 0.950 . S
H2237 C2266 0.950 . S
H2238 C2268 0.950 . S
H2239 C2269 0.950 . S
C2240 H2222 0.951 . S
C2240 C2241 1.366 . S
C2240 C2242 1.388 . S
C2241 C2240 1.366 . S
C2241 C2245 1.385 . S
C2242 H2223 0.951 . S
C2242 C2240 1.388 . S
C2242 C2243 1.366 . S
C2243 C2242 1.366 . S
C2243 C2244 1.414 . S
C2243 C2246 1.499 . S
C2244 H2224 0.950 . S
C2244 C2243 1.414 . S
C2244 C2245 1.374 . S
C2245 H2225 0.950 . S
C2245 C2241 1.385 . S
C2245 C2244 1.374 . S
C2246 C2243 1.499 . S
C2246 C2247 1.373 1_554 S
C2246 C2248 1.389 . S
C2247 H2226 0.950 . S
C2247 C2246 1.373 1_556 S
C2247 C2263 1.377 . S
C2248 C2246 1.389 . S
C2248 C2249 1.524 . S
C2248 C2262 1.377 1_554 S
C2249 C2248 1.524 . S
C2249 C2250 1.397 . S
C2249 C2254 1.363 . S
C2250 H2227 0.950 . S
C2250 C2249 1.397 . S
C2250 C2251 1.334 . S
C2251 H2228 0.950 . S
C2251 C2250 1.334 . S
C2251 C2252 1.287 . S
C2252 C2251 1.287 . S
C2252 C2253 1.524 . S
C2252 H2271 0.913 . S
C2253 H2229 0.950 . S
C2253 C2252 1.524 . S
C2253 C2254 1.415 . S
C2254 H2230 0.950 . S
C2254 C2249 1.363 . S
C2254 C2253 1.415 . S
C2255 H2231 0.951 . S
C2255 C2256 1.366 . S
C2255 C2257 1.388 . S
C2256 C2255 1.366 . S
C2256 C2260 1.385 . S
C2257 H2232 0.951 . S
C2257 C2255 1.388 . S
C2257 C2258 1.366 . S
C2258 C2257 1.366 . S
C2258 C2259 1.414 . S
C2258 C2261 1.499 . S
C2259 H2233 0.950 . S
C2259 C2258 1.414 . S
C2259 C2260 1.374 . S
C2260 H2234 0.950 . S
C2260 C2256 1.385 . S
C2260 C2259 1.374 . S
C2261 C2258 1.499 . S
C2261 C2262 1.373 . S
C2261 C2263 1.389 . S
C2262 H2235 0.950 . S
C2262 C2248 1.377 1_556 S
C2262 C2261 1.373 . S
C2263 C2247 1.377 . S
C2263 C2261 1.389 . S
C2263 C2264 1.524 . S
C2264 C2263 1.524 . S
C2264 C2265 1.397 . S
C2264 C2269 1.363 . S
C2265 H2236 0.950 . S
C2265 C2264 1.397 . S
C2265 C2266 1.334 . S
C2266 H2237 0.950 . S
C2266 C2265 1.334 . S
C2266 C2267 1.287 . S
C2267 C2266 1.287 . S
C2267 C2268 1.524 . S
C2267 H2270 0.999 . S
C2268 H2238 0.950 . S
C2268 C2267 1.524 . S
C2268 C2269 1.415 . S
C2269 H2239 0.950 . S
C2269 C2264 1.363 . S
C2269 C2268 1.415 . S
H2270 C2267 0.999 . S
H2271 C2252 0.913 . S
H2272 C2290 0.951 . S
H2273 C2292 0.951 . S
H2274 C2294 0.950 . S
H2275 C2295 0.950 . S
H2276 C2297 0.950 . S
H2277 C2300 0.950 . S
H2278 C2301 0.950 . S
H2279 C2303 0.950 . S
H2280 C2304 0.950 . S
H2281 C2305 0.951 . S
H2282 C2307 0.951 . S
H2283 C2309 0.950 . S
H2284 C2310 0.950 . S
H2285 C2312 0.950 . S
H2286 C2315 0.950 . S
H2287 C2316 0.950 . S
H2288 C2318 0.950 . S
H2289 C2319 0.950 . S
C2290 H2272 0.951 . S
C2290 C2291 1.366 . S
C2290 C2292 1.388 . S
C2291 C2290 1.366 . S
C2291 C2295 1.385 . S
C2292 H2273 0.951 . S
C2292 C2290 1.388 . S
C2292 C2293 1.366 . S
C2293 C2292 1.366 . S
C2293 C2294 1.414 . S
C2293 C2296 1.499 . S
C2294 H2274 0.950 . S
C2294 C2293 1.414 . S
C2294 C2295 1.374 . S
C2295 H2275 0.950 . S
C2295 C2291 1.385 . S
C2295 C2294 1.374 . S
C2296 C2293 1.499 . S
C2296 C2297 1.373 . S
C2296 C2298 1.389 . S
C2297 H2276 0.950 . S
C2297 C2296 1.373 . S
C2297 C2313 1.377 . S
C2298 C2296 1.389 . S
C2298 C2299 1.524 . S
C2298 C2312 1.377 . S
C2299 C2298 1.524 . S
C2299 C2300 1.397 . S
C2299 C2304 1.363 . S
C2300 H2277 0.950 . S
C2300 C2299 1.397 . S
C2300 C2301 1.334 . S
C2301 H2278 0.950 . S
C2301 C2300 1.334 . S
C2301 C2302 1.287 . S
C2302 C2301 1.287 . S
C2302 C2303 1.524 . S
C2302 H2321 0.913 . S
C2303 H2279 0.950 . S
C2303 C2302 1.524 . S
C2303 C2304 1.415 . S
C2304 H2280 0.950 . S
C2304 C2299 1.363 . S
C2304 C2303 1.415 . S
C2305 H2281 0.951 . S
C2305 C2306 1.366 . S
C2305 C2307 1.388 . S
C2306 C2305 1.366 . S
C2306 C2310 1.385 . S
C2307 H2282 0.951 . S
C2307 C2305 1.388 . S
C2307 C2308 1.366 . S
C2308 C2307 1.366 . S
C2308 C2309 1.414 . S
C2308 C2311 1.499 . S
C2309 H2283 0.950 . S
C2309 C2308 1.414 . S
C2309 C2310 1.374 . S
C2310 H2284 0.950 . S
C2310 C2306 1.385 . S
C2310 C2309 1.374 . S
C2311 C2308 1.499 . S
C2311 C2312 1.373 . S
C2311 C2313 1.389 . S
C2312 H2285 0.950 . S
C2312 C2298 1.377 . S
C2312 C2311 1.373 . S
C2313 C2297 1.377 . S
C2313 C2311 1.389 . S
C2313 C2314 1.524 . S
C2314 C2313 1.524 . S
C2314 C2315 1.397 . S
C2314 C2319 1.363 . S
C2315 H2286 0.950 . S
C2315 C2314 1.397 . S
C2315 C2316 1.334 . S
C2316 H2287 0.950 . S
C2316 C2315 1.334 . S
C2316 C2317 1.287 . S
C2317 C2316 1.287 . S
C2317 C2318 1.524 . S
C2317 H2320 0.999 . S
C2318 H2288 0.950 . S
C2318 C2317 1.524 . S
C2318 C2319 1.415 . S
C2319 H2289 0.950 . S
C2319 C2314 1.363 . S
C2319 C2318 1.415 . S
H2320 C2317 0.999 . S
H2321 C2302 0.913 . S
H2322 C2340 0.951 . S
H2323 C2342 0.951 . S
H2324 C2344 0.950 . S
H2325 C2345 0.950 . S
H2326 C2347 0.950 . S
H2327 C2350 0.950 . S
H2328 C2351 0.950 . S
H2329 C2353 0.950 . S
H2330 C2354 0.950 . S
H2331 C2355 0.951 . S
H2332 C2357 0.951 . S
H2333 C2359 0.950 . S
H2334 C2360 0.950 . S
H2335 C2362 0.950 . S
H2336 C2365 0.950 . S
H2337 C2366 0.950 . S
H2338 C2368 0.950 1_556 S
H2339 C2369 0.950 . S
C2340 H2322 0.951 . S
C2340 C2341 1.366 1_554 S
C2340 C2342 1.388 . S
C2341 C2340 1.366 1_556 S
C2341 C2345 1.385 . S
C2342 H2323 0.951 . S
C2342 C2340 1.388 . S
C2342 C2343 1.366 . S
C2343 C2342 1.366 . S
C2343 C2344 1.414 1_554 S
C2343 C2346 1.499 . S
C2344 H2324 0.950 . S
C2344 C2343 1.414 1_556 S
C2344 C2345 1.374 . S
C2345 H2325 0.950 . S
C2345 C2341 1.385 . S
C2345 C2344 1.374 . S
C2346 C2343 1.499 . S
C2346 C2347 1.373 . S
C2346 C2348 1.389 . S
C2347 H2326 0.950 . S
C2347 C2346 1.373 . S
C2347 C2363 1.377 . S
C2348 C2346 1.389 . S
C2348 C2349 1.524 . S
C2348 C2362 1.377 . S
C2349 C2348 1.524 . S
C2349 C2350 1.397 . S
C2349 C2354 1.363 . S
C2350 H2327 0.950 . S
C2350 C2349 1.397 . S
C2350 C2351 1.334 . S
C2351 H2328 0.950 . S
C2351 C2350 1.334 . S
C2351 C2352 1.287 . S
C2352 C2351 1.287 . S
C2352 C2353 1.524 . S
C2352 H2371 0.913 . S
C2353 H2329 0.950 . S
C2353 C2352 1.524 . S
C2353 C2354 1.415 . S
C2354 H2330 0.950 . S
C2354 C2349 1.363 . S
C2354 C2353 1.415 . S
C2355 H2331 0.951 . S
C2355 C2356 1.366 . S
C2355 C2357 1.388 . S
C2356 C2355 1.366 . S
C2356 C2360 1.385 . S
C2357 H2332 0.951 . S
C2357 C2355 1.388 . S
C2357 C2358 1.366 . S
C2358 C2357 1.366 . S
C2358 C2359 1.414 . S
C2358 C2361 1.499 . S
C2359 H2333 0.950 . S
C2359 C2358 1.414 . S
C2359 C2360 1.374 . S
C2360 H2334 0.950 . S
C2360 C2356 1.385 . S
C2360 C2359 1.374 . S
C2361 C2358 1.499 . S
C2361 C2362 1.373 . S
C2361 C2363 1.389 . S
C2362 H2335 0.950 . S
C2362 C2348 1.377 . S
C2362 C2361 1.373 . S
C2363 C2347 1.377 . S
C2363 C2361 1.389 . S
C2363 C2364 1.524 . S
C2364 C2363 1.524 . S
C2364 C2365 1.397 . S
C2364 C2369 1.363 . S
C2365 H2336 0.950 . S
C2365 C2364 1.397 . S
C2365 C2366 1.334 . S
C2366 H2337 0.950 . S
C2366 C2365 1.334 . S
C2366 C2367 1.287 . S
C2367 C2366 1.287 . S
C2367 C2368 1.524 . S
C2367 H2370 0.999 . S
C2368 H2338 0.950 1_554 S
C2368 C2367 1.524 . S
C2368 C2369 1.415 . S
C2369 H2339 0.950 . S
C2369 C2364 1.363 . S
C2369 C2368 1.415 . S
H2370 C2367 0.999 . S
H2371 C2352 0.913 . S
H2372 C2390 0.951 . S
H2373 C2392 0.951 . S
H2374 C2394 0.950 . S
H2375 C2395 0.950 . S
H2376 C2397 0.950 . S
H2377 C2400 0.950 . S
H2378 C2401 0.950 . S
H2379 C2403 0.950 . S
H2380 C2404 0.950 . S
H2381 C2405 0.951 . S
H2382 C2407 0.951 . S
H2383 C2409 0.950 . S
H2384 C2410 0.950 . S
H2385 C2412 0.950 . S
H2386 C2415 0.950 . S
H2387 C2416 0.950 . S
H2388 C2418 0.950 . S
H2389 C2419 0.950 . S
C2390 H2372 0.951 . S
C2390 C2391 1.366 . S
C2390 C2392 1.388 . S
C2391 C2390 1.366 . S
C2391 C2395 1.385 . S
C2392 H2373 0.951 . S
C2392 C2390 1.388 . S
C2392 C2393 1.366 . S
C2393 C2392 1.366 . S
C2393 C2394 1.414 . S
C2393 C2396 1.499 . S
C2394 H2374 0.950 . S
C2394 C2393 1.414 . S
C2394 C2395 1.374 . S
C2395 H2375 0.950 . S
C2395 C2391 1.385 . S
C2395 C2394 1.374 . S
C2396 C2393 1.499 . S
C2396 C2397 1.373 . S
C2396 C2398 1.389 . S
C2397 H2376 0.950 . S
C2397 C2396 1.373 . S
C2397 C2413 1.377 . S
C2398 C2396 1.389 . S
C2398 C2399 1.524 . S
C2398 C2412 1.377 . S
C2399 C2398 1.524 . S
C2399 C2400 1.397 . S
C2399 C2404 1.363 . S
C2400 H2377 0.950 . S
C2400 C2399 1.397 . S
C2400 C2401 1.334 . S
C2401 H2378 0.950 . S
C2401 C2400 1.334 . S
C2401 C2402 1.287 . S
C2402 C2401 1.287 . S
C2402 C2403 1.524 . S
C2402 H2421 0.913 . S
C2403 H2379 0.950 . S
C2403 C2402 1.524 . S
C2403 C2404 1.415 . S
C2404 H2380 0.950 . S
C2404 C2399 1.363 . S
C2404 C2403 1.415 . S
C2405 H2381 0.951 . S
C2405 C2406 1.366 . S
C2405 C2407 1.388 . S
C2406 C2405 1.366 . S
C2406 C2410 1.385 . S
C2407 H2382 0.951 . S
C2407 C2405 1.388 . S
C2407 C2408 1.366 . S
C2408 C2407 1.366 . S
C2408 C2409 1.414 . S
C2408 C2411 1.499 . S
C2409 H2383 0.950 . S
C2409 C2408 1.414 . S
C2409 C2410 1.374 . S
C2410 H2384 0.950 . S
C2410 C2406 1.385 . S
C2410 C2409 1.374 . S
C2411 C2408 1.499 . S
C2411 C2412 1.373 . S
C2411 C2413 1.389 . S
C2412 H2385 0.950 . S
C2412 C2398 1.377 . S
C2412 C2411 1.373 . S
C2413 C2397 1.377 . S
C2413 C2411 1.389 . S
C2413 C2414 1.524 . S
C2414 C2413 1.524 . S
C2414 C2415 1.397 . S
C2414 C2419 1.363 . S
C2415 H2386 0.950 . S
C2415 C2414 1.397 . S
C2415 C2416 1.334 . S
C2416 H2387 0.950 . S
C2416 C2415 1.334 . S
C2416 C2417 1.287 . S
C2417 C2416 1.287 . S
C2417 C2418 1.524 . S
C2417 H2420 0.999 . S
C2418 H2388 0.950 . S
C2418 C2417 1.524 . S
C2418 C2419 1.415 . S
C2419 H2389 0.950 . S
C2419 C2414 1.363 . S
C2419 C2418 1.415 . S
H2420 C2417 0.999 . S
H2421 C2402 0.913 . S
H2422 C2440 0.951 . S
H2423 C2442 0.951 . S
H2424 C2444 0.950 . S
H2425 C2445 0.950 . S
H2426 C2447 0.950 . S
H2427 C2450 0.950 . S
H2428 C2451 0.950 . S
H2429 C2453 0.950 . S
H2430 C2454 0.950 . S
H2431 C2455 0.951 . S
H2432 C2457 0.951 . S
H2433 C2459 0.950 . S
H2434 C2460 0.950 . S
H2435 C2462 0.950 . S
H2436 C2465 0.950 . S
H2437 C2466 0.950 . S
H2438 C2468 0.950 . S
H2439 C2469 0.950 . S
C2440 H2422 0.951 . S
C2440 C2441 1.366 . S
C2440 C2442 1.388 . S
C2441 C2440 1.366 . S
C2441 C2445 1.385 . S
C2442 H2423 0.951 . S
C2442 C2440 1.388 . S
C2442 C2443 1.366 . S
C2443 C2442 1.366 . S
C2443 C2444 1.414 . S
C2443 C2446 1.499 1_556 S
C2444 H2424 0.950 . S
C2444 C2443 1.414 . S
C2444 C2445 1.374 . S
C2445 H2425 0.950 . S
C2445 C2441 1.385 . S
C2445 C2444 1.374 . S
C2446 C2443 1.499 1_554 S
C2446 C2447 1.373 . S
C2446 C2448 1.389 . S
C2447 H2426 0.950 . S
C2447 C2446 1.373 . S
C2447 C2463 1.377 . S
C2448 C2446 1.389 . S
C2448 C2449 1.524 . S
C2448 C2462 1.377 . S
C2449 C2448 1.524 . S
C2449 C2450 1.397 . S
C2449 C2454 1.363 . S
C2450 H2427 0.950 . S
C2450 C2449 1.397 . S
C2450 C2451 1.334 . S
C2451 H2428 0.950 . S
C2451 C2450 1.334 . S
C2451 C2452 1.287 . S
C2452 C2451 1.287 . S
C2452 C2453 1.524 . S
C2452 H2471 0.913 . S
C2453 H2429 0.950 . S
C2453 C2452 1.524 . S
C2453 C2454 1.415 . S
C2454 H2430 0.950 . S
C2454 C2449 1.363 . S
C2454 C2453 1.415 . S
C2455 H2431 0.951 . S
C2455 C2456 1.366 . S
C2455 C2457 1.388 . S
C2456 C2455 1.366 . S
C2456 C2460 1.385 . S
C2457 H2432 0.951 . S
C2457 C2455 1.388 . S
C2457 C2458 1.366 . S
C2458 C2457 1.366 . S
C2458 C2459 1.414 . S
C2458 C2461 1.499 . S
C2459 H2433 0.950 . S
C2459 C2458 1.414 . S
C2459 C2460 1.374 . S
C2460 H2434 0.950 . S
C2460 C2456 1.385 . S
C2460 C2459 1.374 . S
C2461 C2458 1.499 . S
C2461 C2462 1.373 . S
C2461 C2463 1.389 . S
C2462 H2435 0.950 . S
C2462 C2448 1.377 . S
C2462 C2461 1.373 . S
C2463 C2447 1.377 . S
C2463 C2461 1.389 . S
C2463 C2464 1.524 . S
C2464 C2463 1.524 . S
C2464 C2465 1.397 . S
C2464 C2469 1.363 . S
C2465 H2436 0.950 . S
C2465 C2464 1.397 . S
C2465 C2466 1.334 . S
C2466 H2437 0.950 . S
C2466 C2465 1.334 . S
C2466 C2467 1.287 . S
C2467 C2466 1.287 . S
C2467 C2468 1.524 . S
C2467 H2470 0.999 . S
C2468 H2438 0.950 . S
C2468 C2467 1.524 . S
C2468 C2469 1.415 . S
C2469 H2439 0.950 . S
C2469 C2464 1.363 . S
C2469 C2468 1.415 . S
H2470 C2467 0.999 . S
H2471 C2452 0.913 . S
H2472 C2490 0.951 . S
H2473 C2492 0.951 . S
H2474 C2494 0.950 . S
H2475 C2495 0.950 . S
H2476 C2497 0.950 . S
H2477 C2500 0.950 . S
H2478 C2501 0.950 . S
H2479 C2503 0.950 . S
H2480 C2504 0.950 . S
H2481 C2505 0.951 . S
H2482 C2507 0.951 . S
H2483 C2509 0.950 . S
H2484 C2510 0.950 . S
H2485 C2512 0.950 . S
H2486 C2515 0.950 . S
H2487 C2516 0.950 . S
H2488 C2518 0.950 . S
H2489 C2519 0.950 . S
C2490 H2472 0.951 . S
C2490 C2491 1.366 . S
C2490 C2492 1.388 . S
C2491 C2490 1.366 . S
C2491 C2495 1.385 . S
C2492 H2473 0.951 . S
C2492 C2490 1.388 . S
C2492 C2493 1.366 . S
C2493 C2492 1.366 . S
C2493 C2494 1.414 . S
C2493 C2496 1.499 . S
C2494 H2474 0.950 . S
C2494 C2493 1.414 . S
C2494 C2495 1.374 . S
C2495 H2475 0.950 . S
C2495 C2491 1.385 . S
C2495 C2494 1.374 . S
C2496 C2493 1.499 . S
C2496 C2497 1.373 . S
C2496 C2498 1.389 . S
C2497 H2476 0.950 . S
C2497 C2496 1.373 . S
C2497 C2513 1.377 . S
C2498 C2496 1.389 . S
C2498 C2499 1.524 . S
C2498 C2512 1.377 . S
C2499 C2498 1.524 . S
C2499 C2500 1.397 . S
C2499 C2504 1.363 . S
C2500 H2477 0.950 . S
C2500 C2499 1.397 . S
C2500 C2501 1.334 . S
C2501 H2478 0.950 . S
C2501 C2500 1.334 . S
C2501 C2502 1.287 . S
C2502 C2501 1.287 . S
C2502 C2503 1.524 . S
C2502 H2521 0.913 . S
C2503 H2479 0.950 . S
C2503 C2502 1.524 . S
C2503 C2504 1.415 . S
C2504 H2480 0.950 . S
C2504 C2499 1.363 . S
C2504 C2503 1.415 . S
C2505 H2481 0.951 . S
C2505 C2506 1.366 . S
C2505 C2507 1.388 . S
C2506 C2505 1.366 . S
C2506 C2510 1.385 . S
C2507 H2482 0.951 . S
C2507 C2505 1.388 . S
C2507 C2508 1.366 . S
C2508 C2507 1.366 . S
C2508 C2509 1.414 . S
C2508 C2511 1.499 . S
C2509 H2483 0.950 . S
C2509 C2508 1.414 . S
C2509 C2510 1.374 . S
C2510 H2484 0.950 . S
C2510 C2506 1.385 . S
C2510 C2509 1.374 . S
C2511 C2508 1.499 . S
C2511 C2512 1.373 . S
C2511 C2513 1.389 . S
C2512 H2485 0.950 . S
C2512 C2498 1.377 . S
C2512 C2511 1.373 . S
C2513 C2497 1.377 . S
C2513 C2511 1.389 . S
C2513 C2514 1.524 . S
C2514 C2513 1.524 . S
C2514 C2515 1.397 . S
C2514 C2519 1.363 . S
C2515 H2486 0.950 . S
C2515 C2514 1.397 . S
C2515 C2516 1.334 . S
C2516 H2487 0.950 . S
C2516 C2515 1.334 . S
C2516 C2517 1.287 . S
C2517 C2516 1.287 . S
C2517 C2518 1.524 . S
C2517 H2520 0.999 . S
C2518 H2488 0.950 . S
C2518 C2517 1.524 . S
C2518 C2519 1.415 . S
C2519 H2489 0.950 . S
C2519 C2514 1.363 . S
C2519 C2518 1.415 . S
H2520 C2517 0.999 . S
H2521 C2502 0.913 . S
H2522 C2540 0.951 . S
H2523 C2542 0.951 . S
H2524 C2544 0.950 . S
H2525 C2545 0.950 . S
H2526 C2547 0.950 . S
H2527 C2550 0.950 . S
H2528 C2551 0.950 . S
H2529 C2553 0.950 . S
H2530 C2554 0.950 . S
H2531 C2555 0.951 . S
H2532 C2557 0.951 . S
H2533 C2559 0.950 . S
H2534 C2560 0.950 . S
H2535 C2562 0.950 . S
H2536 C2565 0.950 . S
H2537 C2566 0.950 . S
H2538 C2568 0.950 . S
H2539 C2569 0.950 . S
C2540 H2522 0.951 . S
C2540 C2541 1.366 . S
C2540 C2542 1.388 . S
C2541 C2540 1.366 . S
C2541 C2545 1.385 . S
C2542 H2523 0.951 . S
C2542 C2540 1.388 . S
C2542 C2543 1.366 . S
C2543 C2542 1.366 . S
C2543 C2544 1.414 . S
C2543 C2546 1.499 . S
C2544 H2524 0.950 . S
C2544 C2543 1.414 . S
C2544 C2545 1.374 . S
C2545 H2525 0.950 . S
C2545 C2541 1.385 . S
C2545 C2544 1.374 . S
C2546 C2543 1.499 . S
C2546 C2547 1.373 . S
C2546 C2548 1.389 . S
C2547 H2526 0.950 . S
C2547 C2546 1.373 . S
C2547 C2563 1.377 . S
C2548 C2546 1.389 . S
C2548 C2549 1.524 . S
C2548 C2562 1.377 . S
C2549 C2548 1.524 . S
C2549 C2550 1.397 . S
C2549 C2554 1.363 . S
C2550 H2527 0.950 . S
C2550 C2549 1.397 . S
C2550 C2551 1.334 . S
C2551 H2528 0.950 . S
C2551 C2550 1.334 . S
C2551 C2552 1.287 . S
C2552 C2551 1.287 . S
C2552 C2553 1.524 . S
C2552 H2571 0.913 . S
C2553 H2529 0.950 . S
C2553 C2552 1.524 . S
C2553 C2554 1.415 . S
C2554 H2530 0.950 . S
C2554 C2549 1.363 . S
C2554 C2553 1.415 . S
C2555 H2531 0.951 . S
C2555 C2556 1.366 . S
C2555 C2557 1.388 . S
C2556 C2555 1.366 . S
C2556 C2560 1.385 . S
C2557 H2532 0.951 . S
C2557 C2555 1.388 . S
C2557 C2558 1.366 . S
C2558 C2557 1.366 . S
C2558 C2559 1.414 . S
C2558 C2561 1.499 . S
C2559 H2533 0.950 . S
C2559 C2558 1.414 . S
C2559 C2560 1.374 . S
C2560 H2534 0.950 . S
C2560 C2556 1.385 . S
C2560 C2559 1.374 . S
C2561 C2558 1.499 . S
C2561 C2562 1.373 . S
C2561 C2563 1.389 . S
C2562 H2535 0.950 . S
C2562 C2548 1.377 . S
C2562 C2561 1.373 . S
C2563 C2547 1.377 . S
C2563 C2561 1.389 . S
C2563 C2564 1.524 . S
C2564 C2563 1.524 . S
C2564 C2565 1.397 . S
C2564 C2569 1.363 . S
C2565 H2536 0.950 . S
C2565 C2564 1.397 . S
C2565 C2566 1.334 . S
C2566 H2537 0.950 . S
C2566 C2565 1.334 . S
C2566 C2567 1.287 . S
C2567 C2566 1.287 . S
C2567 C2568 1.524 . S
C2567 H2570 0.999 . S
C2568 H2538 0.950 . S
C2568 C2567 1.524 . S
C2568 C2569 1.415 . S
C2569 H2539 0.950 . S
C2569 C2564 1.363 . S
C2569 C2568 1.415 . S
H2570 C2567 0.999 . S
H2571 C2552 0.913 . S
H2572 C2590 0.951 . S
H2573 C2592 0.951 . S
H2574 C2594 0.950 . S
H2575 C2595 0.950 . S
H2576 C2597 0.950 . S
H2577 C2600 0.950 . S
H2578 C2601 0.950 . S
H2579 C2603 0.950 . S
H2580 C2604 0.950 . S
H2581 C2605 0.951 . S
H2582 C2607 0.951 . S
H2583 C2609 0.950 . S
H2584 C2610 0.950 . S
H2585 C2612 0.950 . S
H2586 C2615 0.950 . S
H2587 C2616 0.950 . S
H2588 C2618 0.950 . S
H2589 C2619 0.950 . S
C2590 H2572 0.951 . S
C2590 C2591 1.366 . S
C2590 C2592 1.388 . S
C2591 C2590 1.366 . S
C2591 C2595 1.385 . S
C2592 H2573 0.951 . S
C2592 C2590 1.388 . S
C2592 C2593 1.366 . S
C2593 C2592 1.366 . S
C2593 C2594 1.414 . S
C2593 C2596 1.499 . S
C2594 H2574 0.950 . S
C2594 C2593 1.414 . S
C2594 C2595 1.374 . S
C2595 H2575 0.950 . S
C2595 C2591 1.385 . S
C2595 C2594 1.374 . S
C2596 C2593 1.499 . S
C2596 C2597 1.373 . S
C2596 C2598 1.389 . S
C2597 H2576 0.950 . S
C2597 C2596 1.373 . S
C2597 C2613 1.377 . S
C2598 C2596 1.389 . S
C2598 C2599 1.524 . S
C2598 C2612 1.377 . S
C2599 C2598 1.524 . S
C2599 C2600 1.397 . S
C2599 C2604 1.363 . S
C2600 H2577 0.950 . S
C2600 C2599 1.397 . S
C2600 C2601 1.334 . S
C2601 H2578 0.950 . S
C2601 C2600 1.334 . S
C2601 C2602 1.287 . S
C2602 C2601 1.287 . S
C2602 C2603 1.524 . S
C2602 H2621 0.913 . S
C2603 H2579 0.950 . S
C2603 C2602 1.524 . S
C2603 C2604 1.415 . S
C2604 H2580 0.950 . S
C2604 C2599 1.363 . S
C2604 C2603 1.415 . S
C2605 H2581 0.951 . S
C2605 C2606 1.366 . S
C2605 C2607 1.388 . S
C2606 C2605 1.366 . S
C2606 C2610 1.385 . S
C2607 H2582 0.951 . S
C2607 C2605 1.388 . S
C2607 C2608 1.366 . S
C2608 C2607 1.366 . S
C2608 C2609 1.414 . S
C2608 C2611 1.499 . S
C2609 H2583 0.950 . S
C2609 C2608 1.414 . S
C2609 C2610 1.374 . S
C2610 H2584 0.950 . S
C2610 C2606 1.385 . S
C2610 C2609 1.374 . S
C2611 C2608 1.499 . S
C2611 C2612 1.373 . S
C2611 C2613 1.389 . S
C2612 H2585 0.950 . S
C2612 C2598 1.377 . S
C2612 C2611 1.373 . S
C2613 C2597 1.377 . S
C2613 C2611 1.389 . S
C2613 C2614 1.524 . S
C2614 C2613 1.524 . S
C2614 C2615 1.397 . S
C2614 C2619 1.363 . S
C2615 H2586 0.950 . S
C2615 C2614 1.397 . S
C2615 C2616 1.334 . S
C2616 H2587 0.950 . S
C2616 C2615 1.334 . S
C2616 C2617 1.287 . S
C2617 C2616 1.287 . S
C2617 C2618 1.524 . S
C2617 H2620 0.999 . S
C2618 H2588 0.950 . S
C2618 C2617 1.524 . S
C2618 C2619 1.415 . S
C2619 H2589 0.950 . S
C2619 C2614 1.363 . S
C2619 C2618 1.415 . S
H2620 C2617 0.999 . S
H2621 C2602 0.913 . S
H2622 C2640 0.951 . S
H2623 C2642 0.951 . S
H2624 C2644 0.950 . S
H2625 C2645 0.950 . S
H2626 C2647 0.950 . S
H2627 C2650 0.950 . S
H2628 C2651 0.950 . S
H2629 C2653 0.950 . S
H2630 C2654 0.950 . S
H2631 C2655 0.951 . S
H2632 C2657 0.951 . S
H2633 C2659 0.950 . S
H2634 C2660 0.950 . S
H2635 C2662 0.950 . S
H2636 C2665 0.950 . S
H2637 C2666 0.950 . S
H2638 C2668 0.950 . S
H2639 C2669 0.950 . S
C2640 H2622 0.951 . S
C2640 C2641 1.366 . S
C2640 C2642 1.388 . S
C2641 C2640 1.366 . S
C2641 C2645 1.385 . S
C2642 H2623 0.951 . S
C2642 C2640 1.388 . S
C2642 C2643 1.366 . S
C2643 C2642 1.366 . S
C2643 C2644 1.414 . S
C2643 C2646 1.499 . S
C2644 H2624 0.950 . S
C2644 C2643 1.414 . S
C2644 C2645 1.374 . S
C2645 H2625 0.950 . S
C2645 C2641 1.385 . S
C2645 C2644 1.374 . S
C2646 C2643 1.499 . S
C2646 C2647 1.373 . S
C2646 C2648 1.389 . S
C2647 H2626 0.950 . S
C2647 C2646 1.373 . S
C2647 C2663 1.377 . S
C2648 C2646 1.389 . S
C2648 C2649 1.524 . S
C2648 C2662 1.377 . S
C2649 C2648 1.524 . S
C2649 C2650 1.397 . S
C2649 C2654 1.363 . S
C2650 H2627 0.950 . S
C2650 C2649 1.397 . S
C2650 C2651 1.334 . S
C2651 H2628 0.950 . S
C2651 C2650 1.334 . S
C2651 C2652 1.287 . S
C2652 C2651 1.287 . S
C2652 C2653 1.524 . S
C2652 H2671 0.913 . S
C2653 H2629 0.950 . S
C2653 C2652 1.524 . S
C2653 C2654 1.415 . S
C2654 H2630 0.950 . S
C2654 C2649 1.363 . S
C2654 C2653 1.415 . S
C2655 H2631 0.951 . S
C2655 C2656 1.366 . S
C2655 C2657 1.388 . S
C2656 C2655 1.366 . S
C2656 C2660 1.385 . S
C2657 H2632 0.951 . S
C2657 C2655 1.388 . S
C2657 C2658 1.366 . S
C2658 C2657 1.366 . S
C2658 C2659 1.414 . S
C2658 C2661 1.499 . S
C2659 H2633 0.950 . S
C2659 C2658 1.414 . S
C2659 C2660 1.374 . S
C2660 H2634 0.950 . S
C2660 C2656 1.385 . S
C2660 C2659 1.374 . S
C2661 C2658 1.499 . S
C2661 C2662 1.373 . S
C2661 C2663 1.389 . S
C2662 H2635 0.950 . S
C2662 C2648 1.377 . S
C2662 C2661 1.373 . S
C2663 C2647 1.377 . S
C2663 C2661 1.389 . S
C2663 C2664 1.524 . S
C2664 C2663 1.524 . S
C2664 C2665 1.397 . S
C2664 C2669 1.363 . S
C2665 H2636 0.950 . S
C2665 C2664 1.397 . S
C2665 C2666 1.334 . S
C2666 H2637 0.950 . S
C2666 C2665 1.334 . S
C2666 C2667 1.287 . S
C2667 C2666 1.287 . S
C2667 C2668 1.524 . S
C2667 H2670 0.999 . S
C2668 H2638 0.950 . S
C2668 C2667 1.524 . S
C2668 C2669 1.415 . S
C2669 H2639 0.950 . S
C2669 C2664 1.363 . S
C2669 C2668 1.415 . S
H2670 C2667 0.999 . S
H2671 C2652 0.913 . S
H2672 C2690 0.951 . S
H2673 C2692 0.951 . S
H2674 C2694 0.950 . S
H2675 C2695 0.950 . S
H2676 C2697 0.950 . S
H2677 C2700 0.950 . S
H2678 C2701 0.950 . S
H2679 C2703 0.950 . S
H2680 C2704 0.950 . S
H2681 C2705 0.951 . S
H2682 C2707 0.951 . S
H2683 C2709 0.950 . S
H2684 C2710 0.950 . S
H2685 C2712 0.950 . S
H2686 C2715 0.950 . S
H2687 C2716 0.950 1_554 S
H2688 C2718 0.950 . S
H2689 C2719 0.950 . S
C2690 H2672 0.951 . S
C2690 C2691 1.366 . S
C2690 C2692 1.388 . S
C2691 C2690 1.366 . S
C2691 C2695 1.385 . S
C2692 H2673 0.951 . S
C2692 C2690 1.388 . S
C2692 C2693 1.366 . S
C2693 C2692 1.366 . S
C2693 C2694 1.414 . S
C2693 C2696 1.499 . S
C2694 H2674 0.950 . S
C2694 C2693 1.414 . S
C2694 C2695 1.374 . S
C2695 H2675 0.950 . S
C2695 C2691 1.385 . S
C2695 C2694 1.374 . S
C2696 C2693 1.499 . S
C2696 C2697 1.373 . S
C2696 C2698 1.389 . S
C2697 H2676 0.950 . S
C2697 C2696 1.373 . S
C2697 C2713 1.377 . S
C2698 C2696 1.389 . S
C2698 C2699 1.524 . S
C2698 C2712 1.377 . S
C2699 C2698 1.524 . S
C2699 C2700 1.397 . S
C2699 C2704 1.363 . S
C2700 H2677 0.950 . S
C2700 C2699 1.397 . S
C2700 C2701 1.334 . S
C2701 H2678 0.950 . S
C2701 C2700 1.334 . S
C2701 C2702 1.287 . S
C2702 C2701 1.287 . S
C2702 C2703 1.524 . S
C2702 H2721 0.913 . S
C2703 H2679 0.950 . S
C2703 C2702 1.524 . S
C2703 C2704 1.415 . S
C2704 H2680 0.950 . S
C2704 C2699 1.363 . S
C2704 C2703 1.415 . S
C2705 H2681 0.951 . S
C2705 C2706 1.366 . S
C2705 C2707 1.388 . S
C2706 C2705 1.366 . S
C2706 C2710 1.385 . S
C2707 H2682 0.951 . S
C2707 C2705 1.388 . S
C2707 C2708 1.366 . S
C2708 C2707 1.366 . S
C2708 C2709 1.414 . S
C2708 C2711 1.499 . S
C2709 H2683 0.950 . S
C2709 C2708 1.414 . S
C2709 C2710 1.374 . S
C2710 H2684 0.950 . S
C2710 C2706 1.385 . S
C2710 C2709 1.374 . S
C2711 C2708 1.499 . S
C2711 C2712 1.373 . S
C2711 C2713 1.389 . S
C2712 H2685 0.950 . S
C2712 C2698 1.377 . S
C2712 C2711 1.373 . S
C2713 C2697 1.377 . S
C2713 C2711 1.389 . S
C2713 C2714 1.524 . S
C2714 C2713 1.524 . S
C2714 C2715 1.397 . S
C2714 C2719 1.363 . S
C2715 H2686 0.950 . S
C2715 C2714 1.397 . S
C2715 C2716 1.334 . S
C2716 H2687 0.950 1_556 S
C2716 C2715 1.334 . S
C2716 C2717 1.287 . S
C2717 C2716 1.287 . S
C2717 C2718 1.524 . S
C2717 H2720 0.999 . S
C2718 H2688 0.950 . S
C2718 C2717 1.524 . S
C2718 C2719 1.415 . S
C2719 H2689 0.950 . S
C2719 C2714 1.363 . S
C2719 C2718 1.415 . S
H2720 C2717 0.999 . S
H2721 C2702 0.913 . S
H2722 C2740 0.951 . S
H2723 C2742 0.951 . S
H2724 C2744 0.950 . S
H2725 C2745 0.950 . S
H2726 C2747 0.950 . S
H2727 C2750 0.950 . S
H2728 C2751 0.950 . S
H2729 C2753 0.950 . S
H2730 C2754 0.950 . S
H2731 C2755 0.951 . S
H2732 C2757 0.951 . S
H2733 C2759 0.950 . S
H2734 C2760 0.950 . S
H2735 C2762 0.950 . S
H2736 C2765 0.950 . S
H2737 C2766 0.950 . S
H2738 C2768 0.950 . S
H2739 C2769 0.950 . S
C2740 H2722 0.951 . S
C2740 C2741 1.366 . S
C2740 C2742 1.388 . S
C2741 C2740 1.366 . S
C2741 C2745 1.385 . S
C2742 H2723 0.951 . S
C2742 C2740 1.388 . S
C2742 C2743 1.366 . S
C2743 C2742 1.366 . S
C2743 C2744 1.414 . S
C2743 C2746 1.499 . S
C2744 H2724 0.950 . S
C2744 C2743 1.414 . S
C2744 C2745 1.374 . S
C2745 H2725 0.950 . S
C2745 C2741 1.385 . S
C2745 C2744 1.374 . S
C2746 C2743 1.499 . S
C2746 C2747 1.373 . S
C2746 C2748 1.389 . S
C2747 H2726 0.950 . S
C2747 C2746 1.373 . S
C2747 C2763 1.377 . S
C2748 C2746 1.389 . S
C2748 C2749 1.524 . S
C2748 C2762 1.377 . S
C2749 C2748 1.524 . S
C2749 C2750 1.397 . S
C2749 C2754 1.363 . S
C2750 H2727 0.950 . S
C2750 C2749 1.397 . S
C2750 C2751 1.334 . S
C2751 H2728 0.950 . S
C2751 C2750 1.334 . S
C2751 C2752 1.287 . S
C2752 C2751 1.287 . S
C2752 C2753 1.524 . S
C2752 H2771 0.913 . S
C2753 H2729 0.950 . S
C2753 C2752 1.524 . S
C2753 C2754 1.415 . S
C2754 H2730 0.950 . S
C2754 C2749 1.363 . S
C2754 C2753 1.415 . S
C2755 H2731 0.951 . S
C2755 C2756 1.366 . S
C2755 C2757 1.388 . S
C2756 C2755 1.366 . S
C2756 C2760 1.385 . S
C2757 H2732 0.951 . S
C2757 C2755 1.388 . S
C2757 C2758 1.366 . S
C2758 C2757 1.366 . S
C2758 C2759 1.414 . S
C2758 C2761 1.499 . S
C2759 H2733 0.950 . S
C2759 C2758 1.414 . S
C2759 C2760 1.374 . S
C2760 H2734 0.950 . S
C2760 C2756 1.385 . S
C2760 C2759 1.374 . S
C2761 C2758 1.499 . S
C2761 C2762 1.373 . S
C2761 C2763 1.389 . S
C2762 H2735 0.950 . S
C2762 C2748 1.377 . S
C2762 C2761 1.373 . S
C2763 C2747 1.377 . S
C2763 C2761 1.389 . S
C2763 C2764 1.524 . S
C2764 C2763 1.524 . S
C2764 C2765 1.397 . S
C2764 C2769 1.363 . S
C2765 H2736 0.950 . S
C2765 C2764 1.397 . S
C2765 C2766 1.334 . S
C2766 H2737 0.950 . S
C2766 C2765 1.334 . S
C2766 C2767 1.287 . S
C2767 C2766 1.287 . S
C2767 C2768 1.524 . S
C2767 H2770 0.999 . S
C2768 H2738 0.950 . S
C2768 C2767 1.524 . S
C2768 C2769 1.415 . S
C2769 H2739 0.950 . S
C2769 C2764 1.363 . S
C2769 C2768 1.415 . S
H2770 C2767 0.999 . S
H2771 C2752 0.913 . S
H2772 C2790 0.951 . S
H2773 C2792 0.951 . S
H2774 C2794 0.950 . S
H2775 C2795 0.950 . S
H2776 C2797 0.950 . S
H2777 C2800 0.950 . S
H2778 C2801 0.950 . S
H2779 C2803 0.950 . S
H2780 C2804 0.950 . S
H2781 C2805 0.951 . S
H2782 C2807 0.951 . S
H2783 C2809 0.950 . S
H2784 C2810 0.950 . S
H2785 C2812 0.950 . S
H2786 C2815 0.950 . S
H2787 C2816 0.950 . S
H2788 C2818 0.950 . S
H2789 C2819 0.950 . S
C2790 H2772 0.951 . S
C2790 C2791 1.366 . S
C2790 C2792 1.388 . S
C2791 C2790 1.366 . S
C2791 C2795 1.385 . S
C2792 H2773 0.951 . S
C2792 C2790 1.388 . S
C2792 C2793 1.366 . S
C2793 C2792 1.366 . S
C2793 C2794 1.414 . S
C2793 C2796 1.499 . S
C2794 H2774 0.950 . S
C2794 C2793 1.414 . S
C2794 C2795 1.374 . S
C2795 H2775 0.950 . S
C2795 C2791 1.385 . S
C2795 C2794 1.374 . S
C2796 C2793 1.499 . S
C2796 C2797 1.373 . S
C2796 C2798 1.389 . S
C2797 H2776 0.950 . S
C2797 C2796 1.373 . S
C2797 C2813 1.377 . S
C2798 C2796 1.389 . S
C2798 C2799 1.524 . S
C2798 C2812 1.377 . S
C2799 C2798 1.524 . S
C2799 C2800 1.397 . S
C2799 C2804 1.363 . S
C2800 H2777 0.950 . S
C2800 C2799 1.397 . S
C2800 C2801 1.334 . S
C2801 H2778 0.950 . S
C2801 C2800 1.334 . S
C2801 C2802 1.287 . S
C2802 C2801 1.287 . S
C2802 C2803 1.524 . S
C2802 H2821 0.913 . S
C2803 H2779 0.950 . S
C2803 C2802 1.524 . S
C2803 C2804 1.415 . S
C2804 H2780 0.950 . S
C2804 C2799 1.363 . S
C2804 C2803 1.415 . S
C2805 H2781 0.951 . S
C2805 C2806 1.366 . S
C2805 C2807 1.388 . S
C2806 C2805 1.366 . S
C2806 C2810 1.385 . S
C2807 H2782 0.951 . S
C2807 C2805 1.388 . S
C2807 C2808 1.366 . S
C2808 C2807 1.366 . S
C2808 C2809 1.414 . S
C2808 C2811 1.499 . S
C2809 H2783 0.950 . S
C2809 C2808 1.414 . S
C2809 C2810 1.374 . S
C2810 H2784 0.950 . S
C2810 C2806 1.385 . S
C2810 C2809 1.374 . S
C2811 C2808 1.499 . S
C2811 C2812 1.373 . S
C2811 C2813 1.389 . S
C2812 H2785 0.950 . S
C2812 C2798 1.377 . S
C2812 C2811 1.373 . S
C2813 C2797 1.377 . S
C2813 C2811 1.389 . S
C2813 C2814 1.524 . S
C2814 C2813 1.524 . S
C2814 C2815 1.397 1_554 S
C2814 C2819 1.363 . S
C2815 H2786 0.950 . S
C2815 C2814 1.397 1_556 S
C2815 C2816 1.334 . S
C2816 H2787 0.950 . S
C2816 C2815 1.334 . S
C2816 C2817 1.287 . S
C2817 C2816 1.287 . S
C2817 C2818 1.524 . S
C2817 H2820 0.999 . S
C2818 H2788 0.950 . S
C2818 C2817 1.524 . S
C2818 C2819 1.415 1_556 S
C2819 H2789 0.950 . S
C2819 C2814 1.363 . S
C2819 C2818 1.415 1_554 S
H2820 C2817 0.999 . S
H2821 C2802 0.913 . S
H2822 C2840 0.951 . S
H2823 C2842 0.951 . S
H2824 C2844 0.950 . S
H2825 C2845 0.950 . S
H2826 C2847 0.950 . S
H2827 C2850 0.950 . S
H2828 C2851 0.950 . S
H2829 C2853 0.950 . S
H2830 C2854 0.950 . S
H2831 C2855 0.951 . S
H2832 C2857 0.951 . S
H2833 C2859 0.950 . S
H2834 C2860 0.950 . S
H2835 C2862 0.950 . S
H2836 C2865 0.950 . S
H2837 C2866 0.950 . S
H2838 C2868 0.950 . S
H2839 C2869 0.950 . S
C2840 H2822 0.951 . S
C2840 C2841 1.366 . S
C2840 C2842 1.388 . S
C2841 C2840 1.366 . S
C2841 C2845 1.385 . S
C2842 H2823 0.951 . S
C2842 C2840 1.388 . S
C2842 C2843 1.366 . S
C2843 C2842 1.366 . S
C2843 C2844 1.414 . S
C2843 C2846 1.499 . S
C2844 H2824 0.950 . S
C2844 C2843 1.414 . S
C2844 C2845 1.374 . S
C2845 H2825 0.950 . S
C2845 C2841 1.385 . S
C2845 C2844 1.374 . S
C2846 C2843 1.499 . S
C2846 C2847 1.373 . S
C2846 C2848 1.389 . S
C2847 H2826 0.950 . S
C2847 C2846 1.373 . S
C2847 C2863 1.377 . S
C2848 C2846 1.389 . S
C2848 C2849 1.524 . S
C2848 C2862 1.377 . S
C2849 C2848 1.524 . S
C2849 C2850 1.397 . S
C2849 C2854 1.363 . S
C2850 H2827 0.950 . S
C2850 C2849 1.397 . S
C2850 C2851 1.334 . S
C2851 H2828 0.950 . S
C2851 C2850 1.334 . S
C2851 C2852 1.287 . S
C2852 C2851 1.287 . S
C2852 C2853 1.524 . S
C2852 H2871 0.913 . S
C2853 H2829 0.950 . S
C2853 C2852 1.524 . S
C2853 C2854 1.415 . S
C2854 H2830 0.950 . S
C2854 C2849 1.363 . S
C2854 C2853 1.415 . S
C2855 H2831 0.951 . S
C2855 C2856 1.366 1_545 S
C2855 C2857 1.388 . S
C2856 C2855 1.366 1_565 S
C2856 C2860 1.385 . S
C2857 H2832 0.951 . S
C2857 C2855 1.388 . S
C2857 C2858 1.366 . S
C2858 C2857 1.366 . S
C2858 C2859 1.414 . S
C2858 C2861 1.499 . S
C2859 H2833 0.950 . S
C2859 C2858 1.414 . S
C2859 C2860 1.374 1_545 S
C2860 H2834 0.950 . S
C2860 C2856 1.385 . S
C2860 C2859 1.374 1_565 S
C2861 C2858 1.499 . S
C2861 C2862 1.373 . S
C2861 C2863 1.389 . S
C2862 H2835 0.950 . S
C2862 C2848 1.377 . S
C2862 C2861 1.373 . S
C2863 C2847 1.377 . S
C2863 C2861 1.389 . S
C2863 C2864 1.524 . S
C2864 C2863 1.524 . S
C2864 C2865 1.397 . S
C2864 C2869 1.363 . S
C2865 H2836 0.950 . S
C2865 C2864 1.397 . S
C2865 C2866 1.334 . S
C2866 H2837 0.950 . S
C2866 C2865 1.334 . S
C2866 C2867 1.287 . S
C2867 C2866 1.287 . S
C2867 C2868 1.524 . S
C2867 H2870 0.999 . S
C2868 H2838 0.950 . S
C2868 C2867 1.524 . S
C2868 C2869 1.415 . S
C2869 H2839 0.950 . S
C2869 C2864 1.363 . S
C2869 C2868 1.415 . S
H2870 C2867 0.999 . S
H2871 C2852 0.913 . S
C506 C312 2.155 . S
C491 C101 2.160 . S
C556 C327 1.428 . S
C541 C125 1.399 . S
C591 C139 2.361 . S
C606 C340 2.324 . S
C656 C354 1.738 1_455 S
C641 C82 1.760 . S
C706 C366 1.841 . S
C691 C196 1.990 . S
C756 C380 1.596 . S
C741 C234 1.646 . S
C791 C220 1.009 . S
C806 C394 1.052 . S
C856 C409 1.470 . S
C841 C173 1.486 . S
C891 C211 1.325 . S
C906 C425 1.274 . S
C956 C438 1.042 . S
C941 C182 0.945 . S
C991 C201 1.522 . S
C1006 C423 1.620 . S
C1056 C436 1.583 . S
C1041 C239 1.558 . S
C1091 C135 2.126 . S
C1106 C452 2.125 . S
C1141 C87 1.940 . S
C1156 C451 1.976 . S
C1191 C106 1.351 . S
C1206 C450 1.478 . S
C1241 C116 1.251 . S
C1256 C453 1.260 1_655 S
C1291 C59 2.195 . S
C1306 C355 2.195 . S
C1341 C268 2.180 . S
C1356 C353 2.162 . S
C1406 C313 1.076 . S
C1391 C291 1.109 . S
C1456 C324 1.748 . S
C1441 C163 1.655 . S
C1491 C78 1.883 . S
C1506 C369 1.887 . S
C1556 C410 1.675 . S
C1541 C215 1.680 . S
C1606 C367 1.868 . S
C1591 C177 1.894 . S
C1656 C395 1.649 . S
C1641 C230 1.686 . S
C1706 C396 2.155 . S
C1691 C272 2.160 . S
C1741 C296 1.398 . S
C1756 C411 1.428 . S
C1791 C158 2.360 . S
C1806 C368 2.324 . S
C1856 C382 1.739 . S
C1841 C253 1.760 . S
C1891 C63 1.990 . S
C1906 C338 1.841 . S
C1956 C352 1.597 . S
C1941 C6 1.646 . S
C2006 C310 1.052 . S
C1991 C30 1.010 . S
C2056 C325 1.469 . S
C2041 C40 1.487 . S
C2091 C21 1.325 . S
C2106 C439 1.273 . S
C2141 C49 0.945 . S
C2156 C424 1.042 . S
C2191 C68 1.522 . S
C2206 C437 1.620 . S
C2241 C11 1.559 . S
C2256 C422 1.583 . S
C2306 C466 2.125 . S
C2291 C154 2.126 . S
C2356 C465 1.977 . S
C2341 C258 1.939 . S
C2406 C464 1.479 . S
C2391 C277 1.353 . S
C2441 C287 1.252 . S
C2456 C467 1.261 . S
C2491 C192 2.195 . S
C2506 C383 2.195 . S
C2556 C381 2.162 . S
C2541 C97 2.180 . S
C2606 C397 1.074 . S
C2591 C120 1.108 . S
C2656 C408 1.748 . S
C2641 C144 1.655 . S
C2691 C249 1.883 . S
C2706 C341 1.887 . S
C2756 C326 1.675 . S
C2741 C25 1.681 . S
C2791 C44 1.894 . S
C2806 C339 1.868 . S
C2856 C311 1.651 . S
C2841 C2 1.687 . S
