# Generated by pormake.
# Topology zzz, (3,6)-cn, num edge types: 1
# Building blocks:
#     Node 0, Type 0, BuildingBlock: BETDAH_clean_linker_0, # of connection points: 3
#     Node 1, Type 0, BuildingBlock: BETDAH_clean_linker_0, # of connection points: 3
#     Node 2, Type 0, BuildingBlock: BETDAH_clean_linker_0, # of connection points: 3
#     Node 3, Type 0, BuildingBlock: BETDAH_clean_linker_0, # of connection points: 3
#     Node 4, Type 0, BuildingBlock: BETDAH_clean_linker_0, # of connection points: 3
#     Node 5, Type 0, BuildingBlock: BETDAH_clean_linker_0, # of connection points: 3
#     Node 6, Type 0, BuildingBlock: BETDAH_clean_linker_0, # of connection points: 3
#     Node 7, Type 0, BuildingBlock: BETDAH_clean_linker_0, # of connection points: 3
#     Node 8, Type 1, BuildingBlock: BETFAJ_clean_sbu_0, # of connection points: 6
#     Node 9, Type 1, BuildingBlock: BETFAJ_clean_sbu_0, # of connection points: 6
#     Node 10, Type 1, BuildingBlock: BETFAJ_clean_sbu_0, # of connection points: 6
#     Node 11, Type 1, BuildingBlock: BETFAJ_clean_sbu_0, # of connection points: 6
#     Edge 12, Type (0, 1), BuildingBlock: AJUNOK_clean_linker_0, # of connection points: 2
#     Edge 13, Type (0, 1), BuildingBlock: AJUNOK_clean_linker_0, # of connection points: 2
#     Edge 14, Type (0, 1), BuildingBlock: AJUNOK_clean_linker_0, # of connection points: 2
#     Edge 15, Type (0, 1), BuildingBlock: AJUNOK_clean_linker_0, # of connection points: 2
#     Edge 16, Type (0, 1), BuildingBlock: AJUNOK_clean_linker_0, # of connection points: 2
#     Edge 17, Type (0, 1), BuildingBlock: AJUNOK_clean_linker_0, # of connection points: 2
#     Edge 18, Type (0, 1), BuildingBlock: AJUNOK_clean_linker_0, # of connection points: 2
#     Edge 19, Type (0, 1), BuildingBlock: AJUNOK_clean_linker_0, # of connection points: 2
#     Edge 20, Type (0, 1), BuildingBlock: AJUNOK_clean_linker_0, # of connection points: 2
#     Edge 21, Type (0, 1), BuildingBlock: AJUNOK_clean_linker_0, # of connection points: 2
#     Edge 22, Type (0, 1), BuildingBlock: AJUNOK_clean_linker_0, # of connection points: 2
#     Edge 23, Type (0, 1), BuildingBlock: AJUNOK_clean_linker_0, # of connection points: 2
#     Edge 24, Type (0, 1), BuildingBlock: AJUNOK_clean_linker_0, # of connection points: 2
#     Edge 25, Type (0, 1), BuildingBlock: AJUNOK_clean_linker_0, # of connection points: 2
#     Edge 26, Type (0, 1), BuildingBlock: AJUNOK_clean_linker_0, # of connection points: 2
#     Edge 27, Type (0, 1), BuildingBlock: AJUNOK_clean_linker_0, # of connection points: 2
#     Edge 28, Type (0, 1), BuildingBlock: AJUNOK_clean_linker_0, # of connection points: 2
#     Edge 29, Type (0, 1), BuildingBlock: AJUNOK_clean_linker_0, # of connection points: 2
#     Edge 30, Type (0, 1), BuildingBlock: AJUNOK_clean_linker_0, # of connection points: 2
#     Edge 31, Type (0, 1), BuildingBlock: AJUNOK_clean_linker_0, # of connection points: 2
#     Edge 32, Type (0, 1), BuildingBlock: AJUNOK_clean_linker_0, # of connection points: 2
#     Edge 33, Type (0, 1), BuildingBlock: AJUNOK_clean_linker_0, # of connection points: 2
#     Edge 34, Type (0, 1), BuildingBlock: AJUNOK_clean_linker_0, # of connection points: 2
#     Edge 35, Type (0, 1), BuildingBlock: AJUNOK_clean_linker_0, # of connection points: 2
# Relax obj value: 0.367
# Max RMSD: 0.213
# Mean RMSD: 0.162
data_MOF--net-zzz--node1-BETFAJ_clean_sbu_0--node2-BETDAH_clean_linker_0--edge1-AJUNOK_clean_linker_0
_symmetry_space_group_name_H-M    P1
_symmetry_Int_Tables_number       1
_symmetry_cell_setting            triclinic
loop_
_symmetry_equiv_pos_as_xyz
'x, y, z'
_cell_length_a     36.665517
_cell_length_b     36.907071
_cell_length_c     10.371565
_cell_angle_alpha  89.788833
_cell_angle_beta   89.661036
_cell_angle_gamma 91.056832
loop_
_atom_site_label
_atom_site_type_symbol
_atom_site_fract_x
_atom_site_fract_y
_atom_site_fract_z
_atom_type_partial_charge
H0 H 0.84939 0.50581 0.50678 0.0
H1 H 0.74271 0.51988 0.35449 0.0
H2 H 0.78222 0.58997 0.65941 0.0
C3 C 0.82325 0.51914 0.51246 0.0
C4 C 0.81938 0.54813 0.59684 0.0
C5 C 0.7957 0.50929 0.4259 0.0
C6 C 0.76297 0.52755 0.4252 0.0
C7 C 0.75713 0.55631 0.51033 0.0
C8 C 0.78576 0.56694 0.59647 0.0
N9 N 0.72353 0.57546 0.50489 0.0
C10 C 0.69715 0.56999 0.40805 0.0
H11 H 0.0535 0.8568 0.43995 0.0
H12 H 1.04604 0.74811 0.31139 0.0
H13 H 1.02235 0.77282 0.71156 0.0
C14 C 1.04707 0.8286 0.46241 0.0
C15 C 1.03647 0.81902 0.58732 0.0
C16 C 0.05114 0.80263 0.3664 0.0
C17 C 1.04335 0.76667 0.39048 0.0
C18 C 1.03356 0.75475 0.51427 0.0
C19 C 1.02994 0.78131 0.61489 0.0
N20 N 1.02861 0.71645 0.53581 0.0
C21 C 1.03374 0.69056 0.43703 0.0
H22 H 0.75232 0.98685 0.52089 0.0
H23 H 0.8505 1.01318 0.33657 0.0
H24 H 0.82602 0.06244 0.70453 0.0
C25 C 0.77839 1.00108 0.52483 0.0
C26 C 0.78481 1.02475 0.6276 0.0
C27 C 0.79626 1.00958 0.40906 0.0
C28 C 0.83357 1.01568 0.42179 0.0
C29 C 0.84562 1.03618 0.5281 0.0
C30 C 0.81965 1.04306 0.62947 0.0
N31 N 0.88098 0.05344 0.52352 0.0
C32 C 0.90416 0.05268 0.41421 0.0
H33 H 0.60631 0.74995 0.50771 0.0
H34 H 0.57233 0.84525 0.33464 0.0
H35 H 0.53047 0.81719 0.71307 0.0
C36 C 0.5912 0.77479 0.51757 0.0
C37 C 0.56858 0.7791 0.62634 0.0
C38 C 0.5798 0.79131 0.40351 0.0
C39 C 0.57064 0.82748 0.41722 0.0
C40 C 0.5523 0.83816 0.52952 0.0
C41 C 0.54853 0.8121 0.63247 0.0
N42 N 0.53523 0.87284 0.53225 0.0
C43 C 0.53771 0.89791 0.42899 0.0
H44 H 0.26686 0.60738 0.02549 0.0
H45 H 0.36092 0.57533 0.22511 0.0
H46 H 0.30721 0.49921 0.97649 0.0
C47 C 0.28782 0.58735 0.03867 0.0
C48 C 0.2816 0.5519 0.99362 0.0
C49 C 0.3125 0.59296 0.13875 0.0
C50 C 0.34198 0.57016 0.1484 0.0
C51 C 0.34182 0.5368 0.08393 0.0
C52 C 0.31029 0.52675 0.01071 0.0
N53 N 0.37019 0.51161 0.10868 0.0
C54 C 0.39721 0.51721 0.20292 0.0
H55 H 0.08291 0.23754 0.2107 0.0
H56 H 0.06511 0.34669 0.30203 0.0
H57 H 0.07187 0.31539 0.90161 0.0
C58 C 0.08123 0.26522 0.17571 0.0
C59 C 0.07725 0.27161 0.04291 0.0
C60 C 0.0699 0.29124 0.26341 0.0
C61 C 0.0715 0.32719 0.22828 0.0
C62 C 0.07402 0.33717 0.09802 0.0
C63 C 0.07483 0.30879 0.00275 0.0
N64 N 0.07129 0.37492 0.06563 0.0
C65 C 0.06742 0.40187 0.16134 0.0
H66 H 0.32216 0.99558 0.02178 0.0
H67 H 0.26028 0.05669 0.28097 0.0
H68 H 0.28535 0.10154 0.91316 0.0
C69 C 0.30715 1.01995 0.03534 0.0
C70 C 0.31365 0.05123 0.96053 0.0
C71 C 0.29626 1.02547 0.16223 0.0
C72 C 0.27072 0.05198 0.18508 0.0
C73 C 0.26081 0.07484 0.08397 0.0
C74 C 0.28642 0.07852 0.97788 0.0
N75 N 0.22721 0.09404 0.09432 0.0
C76 C 0.2003 0.08468 0.18819 0.0
H77 H 0.59662 0.34496 0.05733 0.0
H78 H 0.58263 0.23732 0.20739 0.0
H79 H 0.49987 0.28377 0.96583 0.0
C80 C 0.58185 0.31919 0.05825 0.0
C81 C 0.54825 0.31728 0.99617 0.0
C82 C 0.59315 0.29151 0.14075 0.0
C83 C 0.57337 0.25872 0.14446 0.0
C84 C 0.53942 0.25545 0.08269 0.0
C85 C 0.52671 0.28516 0.00875 0.0
N86 N 0.5165 0.22417 0.10455 0.0
C87 C 0.52206 0.19893 0.20413 0.0
Sm88 Sm 0.08604 1.04076 0.89861 0.0
Sm89 Sm 1.02168 0.05292 0.69594 0.0
C90 C 0.12038 1.02581 0.11238 0.0
C91 C 0.12582 0.98907 0.1626 0.0
C92 C 0.0994 0.97403 0.2464 0.0
C93 C 0.09318 0.93684 0.24743 0.0
C94 C 0.11384 0.9145 0.167 0.0
C95 C 0.14412 0.92868 0.1008 0.0
C96 C 0.15027 0.96601 0.09906 0.0
C97 C 0.11511 0.04907 0.65036 0.0
C98 C 1.04394 0.96798 0.76598 0.0
C99 C 0.98949 0.07283 0.48582 0.0
C100 C 0.98366 0.11076 0.44943 0.0
C101 C 1.00906 0.12821 0.36781 0.0
C102 C 1.01008 0.16569 0.35996 0.0
C103 C 0.98538 0.18618 0.43176 0.0
C104 C 0.95802 0.16909 0.5048 0.0
C105 C 0.9571 0.13138 0.5136 0.0
C106 C 0.99199 0.05065 0.94303 0.0
C107 C 0.06182 0.12503 0.8323 0.0
O108 O 0.0864 1.03619 0.1115 0.0
O109 O 0.1377 1.03382 0.00504 0.0
O110 O 0.0821 0.04968 0.68598 0.0
O111 O 0.13471 1.04279 0.75148 0.0
O112 O 0.06777 0.98068 0.85242 0.0
O113 O 1.02475 0.99003 0.6918 0.0
O114 O 1.02359 0.06276 0.4854 0.0
O115 O 0.97102 0.06095 0.58629 0.0
O116 O 1.02528 0.0472 0.91134 0.0
O117 O 0.97311 0.05588 0.83954 0.0
O118 O 1.03955 0.1126 0.74151 0.0
O119 O 0.08027 0.10318 0.90892 0.0
H120 H 0.08089 0.99111 0.29951 0.0
H121 H 0.07069 0.92574 0.3044 0.0
H122 H 0.16117 0.91132 0.04303 0.0
H123 H 0.17176 0.97686 0.03727 0.0
H124 H 1.0297 0.1131 0.317 0.0
H125 H 1.03143 0.17885 0.30308 0.0
H126 H 0.93864 0.18483 0.55918 0.0
H127 H 0.9369 0.1186 0.57624 0.0
Sm128 Sm 0.55874 0.07923 0.88933 0.0
Sm129 Sm 0.54929 1.0212 0.74491 0.0
C130 C 0.59473 0.11478 0.07203 0.0
C131 C 0.63373 0.12287 0.0905 0.0
C132 C 0.65929 0.1037 0.01831 0.0
C133 C 0.6954 0.10264 0.05341 0.0
C134 C 0.70551 0.1164 0.1729 0.0
C135 C 0.68172 0.13922 0.23982 0.0
C136 C 0.64578 0.14306 0.19666 0.0
C137 C 0.54012 0.10589 0.65455 0.0
C138 C 0.63146 1.04351 0.74545 0.0
C139 C 0.52093 0.97588 0.58 0.0
C140 C 0.48294 0.97978 0.54409 0.0
C141 C 0.46904 1.01492 0.53892 0.0
C142 C 0.43195 1.0202 0.53428 0.0
C143 C 0.40828 0.99043 0.51972 0.0
C144 C 0.42169 0.95514 0.527 0.0
C145 C 0.45892 0.94986 0.5443 0.0
C146 C 0.5599 0.99819 0.99447 0.0
C147 C 0.47419 0.06125 0.86446 0.0
O148 O 0.58649 0.08022 0.07741 0.0
O149 O 0.57831 0.13125 0.97759 0.0
O150 O 0.56148 0.07898 0.6694 0.0
O151 O 0.52851 0.11868 0.76404 0.0
O152 O 0.61534 0.07341 0.78213 0.0
O153 O 0.61093 1.0149 0.72608 0.0
O154 O 0.54297 1.00224 0.54269 0.0
O155 O 0.52484 0.96731 0.70084 0.0
O156 O 0.53875 1.02322 0.9593 0.0
O157 O 0.57917 0.98733 0.89729 0.0
O158 O 0.48887 1.03744 0.786 0.0
O159 O 0.49627 0.08286 0.92982 0.0
H160 H 0.65117 0.08496 0.94715 0.0
H161 H 0.713 0.08405 0.00247 0.0
H162 H 0.68936 0.15012 0.33279 0.0
H163 H 0.62657 0.15802 0.25455 0.0
H164 H 0.48674 1.03861 0.54321 0.0
H165 H 0.42212 0.04764 0.52531 0.0
H166 H 0.40374 0.93193 0.51183 0.0
H167 H 0.46903 0.92261 0.55392 0.0
Sm168 Sm 0.51454 0.55136 0.89108 0.0
Sm169 Sm 0.57317 0.54316 0.72608 0.0
C170 C 0.47308 0.58233 0.06074 0.0
C171 C 0.47805 0.6213 0.08258 0.0
C172 C 0.51365 0.63587 0.0771 0.0
C173 C 0.5196 0.67285 0.07666 0.0
C174 C 0.4908 0.6958 0.10612 0.0
C175 C 0.4549 0.68195 0.10861 0.0
C176 C 0.44844 0.64479 0.09007 0.0
C177 C 0.49079 0.5319 0.65025 0.0
C178 C 0.5523 0.626 0.75269 0.0
C179 C 0.61475 0.51349 0.55073 0.0
C180 C 0.61738 0.47468 0.51904 0.0
C181 C 0.58753 0.45542 0.46653 0.0
C182 C 0.59027 0.41858 0.43972 0.0
C183 C 0.62281 0.4004 0.46466 0.0
C184 C 0.65225 0.41924 0.5198 0.0
C185 C 0.64942 0.45606 0.54801 0.0
C186 C 0.59833 0.56051 0.96892 0.0
C187 C 0.53406 0.46933 0.86602 0.0
O188 O 0.50056 0.56244 0.09577 0.0
O189 O 0.46092 0.57412 0.94643 0.0
O190 O 0.51507 0.55591 0.67306 0.0
O191 O 0.47858 0.51709 0.75609 0.0
O192 O 0.52875 0.61143 0.83459 0.0
O193 O 0.57387 0.60483 0.6862 0.0
O194 O 0.58417 0.52923 0.52171 0.0
O195 O 0.62701 0.52269 0.66406 0.0
O196 O 0.57303 0.53751 0.94509 0.0
O197 O 0.61016 0.5757 0.86332 0.0
O198 O 0.5552 0.48302 0.77331 0.0
O199 O 0.51564 0.49124 0.9401 0.0
H200 H 0.53725 0.61868 0.07092 0.0
H201 H 0.54758 0.683 0.076 0.0
H202 H 0.43242 0.69927 0.13339 0.0
H203 H 0.4207 0.6342 0.08958 0.0
H204 H 0.5622 0.46874 0.4448 0.0
H205 H 0.5674 0.40457 0.39502 0.0
H206 H 0.67758 0.40562 0.53874 0.0
H207 H 0.67255 0.47021 0.5902 0.0
Sm208 Sm 1.04104 0.51194 0.88663 0.0
Sm209 Sm 0.05779 0.57706 0.7186 0.0
C210 C 1.0192 0.46964 0.07587 0.0
C211 C 0.98212 0.46616 0.12642 0.0
C212 C 0.96231 0.49756 0.14824 0.0
C213 C 0.92506 0.49562 0.16769 0.0
C214 C 0.90632 0.46222 0.15955 0.0
C215 C 0.92608 0.43046 0.13949 0.0
C216 C 0.96395 0.43241 0.12443 0.0
C217 C 1.05002 0.48452 0.63889 0.0
C218 C 0.97089 0.55623 0.76257 0.0
C219 C 0.07985 0.61663 0.52227 0.0
C220 C 0.117 0.62425 0.47665 0.0
C221 C 0.12947 0.60579 0.36791 0.0
C222 C 0.16654 0.60435 0.34268 0.0
C223 C 0.19155 0.62225 0.4232 0.0
C224 C 0.17913 0.64344 0.52513 0.0
C225 C 0.14188 0.64428 0.55249 0.0
C226 C 0.05221 0.60511 0.96545 0.0
C227 C 0.12734 0.5341 0.84921 0.0
O228 O 1.03645 0.50047 0.09622 0.0
O229 O 1.02262 0.45814 0.95798 0.0
O230 O 0.05268 0.51774 0.67066 0.0
O231 O 1.04288 0.46527 0.74015 0.0
O232 O 0.98199 0.53189 0.84732 0.0
O233 O 0.99491 0.57568 0.69487 0.0
O234 O 0.06878 0.58294 0.51024 0.0
O235 O 0.07049 0.63086 0.63228 0.0
O236 O 1.04818 0.57156 0.93718 0.0
O237 O 0.0594 0.62377 0.86261 0.0
O238 O 0.11671 0.55884 0.76549 0.0
O239 O 0.10355 0.51399 0.91503 0.0
H240 H 0.97506 0.52393 0.14244 0.0
H241 H 0.91087 0.52056 0.18671 0.0
H242 H 0.91226 0.40438 0.13257 0.0
H243 H 0.97874 0.40793 0.10385 0.0
H244 H 0.11077 0.59042 0.30765 0.0
H245 H 0.17578 0.58812 0.26301 0.0
H246 H 0.19825 0.65774 0.58679 0.0
H247 H 0.1329 0.65895 0.6368 0.0
C248 C 0.14695 0.0959 0.3369 0.0
C249 C 0.175 0.07318 0.29317 0.0
C250 C 0.12522 0.08678 0.44665 0.0
C251 C 0.13109 0.05481 0.51797 0.0
H252 H 0.14244 0.12144 0.28836 0.0
H253 H 0.10517 0.10586 0.47997 0.0
S254 S 0.19518 0.98242 0.42835 0.0
N255 N 0.20259 1.01422 0.31818 0.0
N256 N 0.16365 0.99832 0.52615 0.0
C257 C 0.1574 1.03095 0.47017 0.0
C258 C 0.17885 1.03979 0.35755 0.0
C259 C 0.53427 0.18919 0.43657 0.0
C260 C 0.52766 0.17461 0.31391 0.0
C261 C 0.53906 0.16671 0.54494 0.0
C262 C 0.53819 0.12856 0.53492 0.0
H263 H 0.53494 0.21825 0.44971 0.0
H264 H 0.54329 0.17941 0.6378 0.0
S265 S 0.51705 0.07681 0.23884 0.0
N266 N 0.51656 0.11964 0.19131 0.0
N267 N 0.52832 0.07746 0.39266 0.0
C268 C 0.53173 0.11366 0.41252 0.0
C269 C 0.52566 0.13664 0.30272 0.0
C270 C 0.43636 0.49131 0.37303 0.0
C271 C 0.42339 0.52197 0.30812 0.0
C272 C 0.45901 0.49475 0.48177 0.0
C273 C 0.47026 0.52897 0.52779 0.0
H274 H 0.42816 0.46442 0.3417 0.0
H275 H 0.46748 0.47043 0.5312 0.0
S276 S 0.44295 0.61786 0.3977 0.0
N277 N 0.42279 0.58793 0.30232 0.0
N278 N 0.46625 0.59405 0.50269 0.0
C279 C 0.45819 0.55982 0.46258 0.0
C280 C 0.43449 0.5564 0.35373 0.0
C281 C 1.03579 0.41562 0.36857 0.0
C282 C 0.06208 0.42533 0.27477 0.0
C283 C 1.03154 0.43594 0.48244 0.0
C284 C 0.05264 0.46757 0.5072 0.0
H285 H 1.01878 0.39161 0.35538 0.0
H286 H 1.01169 0.42637 0.55313 0.0
S287 S 0.12386 0.50593 0.2878 0.0
N288 N 0.10889 0.46932 0.21186 0.0
N289 N 0.10006 0.50818 0.42343 0.0
C290 C 0.07805 0.47844 0.41147 0.0
C291 C 0.08299 0.45714 0.29631 0.0
C292 C 0.94799 1.02191 0.26454 0.0
C293 C 0.92789 0.05272 0.29885 0.0
C294 C 0.97121 1.02192 0.15452 0.0
C295 C 0.97526 0.05282 0.07488 0.0
H296 H 0.94544 0.99746 0.32226 0.0
H297 H 0.98481 0.99716 0.12868 0.0
S298 S 0.93118 0.14126 0.12848 0.0
N299 N 0.91554 0.11547 0.24783 0.0
N300 N 0.95842 0.11543 0.04269 0.0
C301 C 0.95599 0.08392 0.1106 0.0
C302 C 0.93249 0.08389 0.22179 0.0
C303 C 0.5776 0.93436 0.2791 0.0
C304 C 0.54241 0.92319 0.31945 0.0
C305 C 0.58296 0.95883 0.17508 0.0
C306 C 0.55332 0.97405 0.10939 0.0
H307 H 0.60129 0.92385 0.3276 0.0
H308 H 0.6106 0.96603 0.14611 0.0
S309 S 0.45589 0.9494 0.16398 0.0
N310 N 0.47767 0.9257 0.27381 0.0
N311 N 0.48748 0.97326 0.08529 0.0
C312 C 0.51799 0.9625 0.14723 0.0
C313 C 0.51262 0.93669 0.25032 0.0
C314 C 0.65734 0.59748 0.24246 0.0
C315 C 0.67075 0.56626 0.30255 0.0
C316 C 0.63328 0.59516 0.137 0.0
C317 C 0.62074 0.56153 0.08915 0.0
H318 H 0.66611 0.62403 0.27554 0.0
H319 H 0.62458 0.62002 0.0917 0.0
S320 S 0.65025 0.47143 0.20415 0.0
N321 N 0.6719 0.50045 0.29924 0.0
N322 N 0.62526 0.4961 0.1064 0.0
C323 C 0.63383 0.52998 0.14869 0.0
C324 C 0.65919 0.53235 0.25395 0.0
C325 C 0.06363 0.67816 0.22414 0.0
C326 C 1.03996 0.66691 0.32445 0.0
C327 C 0.06798 0.65731 0.11152 0.0
C328 C 1.05025 0.62329 0.09544 0.0
H329 H 0.07879 0.70347 0.23101 0.0
H330 H 0.08539 0.66822 0.03547 0.0
S331 S 0.99121 0.57816 0.34102 0.0
N332 N 1.00124 0.61796 0.40543 0.0
N333 N 1.01221 0.57753 0.19967 0.0
C334 C 1.02888 0.61051 0.19953 0.0
C335 C 1.023 0.63259 0.31197 0.0
C336 C 1.04433 0.26489 0.4647 0.0
C337 C 1.03859 0.28004 0.34314 0.0
C338 C 1.02035 0.238 0.51163 0.0
C339 C 0.99137 0.22528 0.43467 0.0
H340 H 0.06951 0.2705 0.51524 0.0
H341 H 1.02805 0.22305 0.59705 0.0
S342 S 0.96019 0.26351 0.12589 0.0
N343 N 0.9971 0.28751 0.16274 0.0
N344 N 0.95373 0.23488 0.24698 0.0
C345 C 0.98181 0.24489 0.32505 0.0
C346 C 1.00534 0.273 0.2796 0.0
C347 C 0.3597 1.01542 0.22704 0.0
C348 C 0.32247 1.01502 0.26235 0.0
C349 C 0.38612 1.00568 0.31162 0.0
C350 C 0.37724 0.99678 0.43832 0.0
H351 H 0.36942 1.02396 0.13331 0.0
H352 H 0.41425 1.00673 0.2787 0.0
S353 S 0.28608 0.99906 0.59237 0.0
N354 N 0.27879 1.00916 0.43953 0.0
N355 N 0.33031 0.99215 0.60372 0.0
C356 C 0.34097 0.99824 0.48031 0.0
C357 C 0.31318 1.00748 0.39141 0.0
C358 C 0.64491 0.32726 0.23102 0.0
C359 C 0.61521 0.30316 0.25278 0.0
C360 C 0.65039 0.3573 0.31132 0.0
C361 C 0.62694 0.36323 0.41642 0.0
H362 H 0.65979 0.32642 0.14053 0.0
H363 H 0.66997 0.37812 0.28183 0.0
S364 S 0.55464 0.30085 0.54023 0.0
N365 N 0.56976 0.28142 0.40789 0.0
N366 N 0.5794 0.33836 0.55552 0.0
C367 C 0.60198 0.33581 0.45197 0.0
C368 C 0.59685 0.30505 0.37195 0.0
C369 C 0.28292 0.63931 0.27444 0.0
C370 C 0.29492 0.60367 0.26026 0.0
C371 C 0.25107 0.64627 0.34462 0.0
C372 C 0.23051 0.61762 0.3993 0.0
H373 H 0.2955 0.66102 0.21838 0.0
H374 H 0.24023 0.67338 0.34278 0.0
S375 S 0.25323 0.52046 0.40375 0.0
N376 N 0.28698 0.54037 0.32355 0.0
N377 N 0.22629 0.55342 0.44939 0.0
C378 C 0.24469 0.58268 0.39967 0.0
C379 C 0.27746 0.57575 0.33208 0.0
C380 C 0.1071 0.81805 0.25491 0.0
C381 C 0.06906 0.81363 0.24691 0.0
C382 C 0.12379 0.84993 0.20975 0.0
C383 C 0.10256 0.87665 0.1525 0.0
H384 H 0.1226 0.80062 0.31775 0.0
H385 H 0.15179 0.85581 0.23655 0.0
S386 S 1.00535 0.86899 0.0604 0.0
N387 N 1.01333 0.8315 0.14222 0.0
N388 N 1.04462 0.89165 0.0544 0.0
C389 C 0.06643 0.86824 0.1178 0.0
C390 C 1.04963 0.83596 0.16439 0.0
C391 C 0.7375 1.0311 0.3196 0.0
C392 C 0.77563 1.036 0.32796 0.0
C393 C 0.71512 0.05926 0.28369 0.0
C394 C 0.7298 0.09285 0.24408 0.0
H395 H 0.7244 1.00562 0.34614 0.0
H396 H 0.68592 0.05412 0.2802 0.0
S397 S 0.82686 0.11998 0.22423 0.0
N398 N 0.82692 0.07824 0.28176 0.0
N399 N 0.78363 0.12957 0.20177 0.0
C400 C 0.76742 0.09814 0.24262 0.0
C401 C 0.79066 0.06998 0.28528 0.0
C402 C 0.5422 0.73462 0.36757 0.0
C403 C 0.55476 0.76873 0.32043 0.0
C404 C 0.5146 0.71519 0.30856 0.0
C405 C 0.50144 0.72594 0.18876 0.0
H406 H 0.55352 0.72168 0.45105 0.0
H407 H 0.50726 0.68873 0.34807 0.0
S408 S 0.52089 0.81256 0.02071 0.0
N409 N 0.54701 0.81402 0.14988 0.0
N410 N 0.49902 0.77306 0.02666 0.0
C411 C 0.51223 0.75967 0.13882 0.0
C412 C 0.53844 0.78163 0.20575 0.0
C413 C 0.81549 0.50211 0.20332 0.0
C414 C 0.80543 0.48521 0.31992 0.0
C415 C 0.84584 0.49018 0.13499 0.0
C416 C 0.86668 0.46152 0.18347 0.0
H417 H 0.80405 0.52796 0.17682 0.0
H418 H 0.85613 0.50677 0.05588 0.0
S419 S 0.84156 0.40087 0.4562 0.0
N420 N 0.81017 0.43236 0.45676 0.0
N421 N 0.86859 0.4105 0.3324 0.0
C422 C 0.85194 0.44008 0.28361 0.0
C423 C 0.82051 0.45181 0.35085 0.0
C424 C 1.04464 0.21124 0.01907 0.0
C425 C 0.06816 0.238 0.96289 0.0
C426 C 1.04237 0.17552 0.97375 0.0
C427 C 0.06184 0.1646 0.86465 0.0
H428 H 1.02935 0.21721 0.10552 0.0
H429 H 1.02593 0.15591 0.02746 0.0
S430 S 0.12042 0.22454 0.65942 0.0
N431 N 0.1074 0.25135 0.77807 0.0
N432 N 0.10102 0.18445 0.68746 0.0
C433 C 0.08237 0.1915 0.79765 0.0
C434 C 0.08573 0.22813 0.84696 0.0
C435 C 0.37286 0.08932 0.92336 0.0
C436 C 0.35261 0.05656 0.90419 0.0
C437 C 0.41179 0.09142 0.91054 0.0
C438 C 0.43274 0.06071 0.87978 0.0
H439 H 0.35878 0.1132 0.95558 0.0
H440 H 0.42558 0.11715 0.92732 0.0
S441 S 0.39518 0.96783 0.82765 0.0
N442 N 0.35891 0.99295 0.84508 0.0
N443 N 0.43009 0.99622 0.83957 0.0
C444 C 0.41305 1.02817 0.85969 0.0
C445 C 0.37381 1.02634 0.86615 0.0
C446 C 0.55598 0.36869 0.84046 0.0
C447 C 0.53537 0.3522 0.9402 0.0
C448 C 0.55379 0.40594 0.81259 0.0
C449 C 0.53181 0.42898 0.88687 0.0
H450 H 0.5764 0.35312 0.7912 0.0
H451 H 0.57127 0.41702 0.73715 0.0
S452 S 0.4729 0.39956 0.16263 0.0
N453 N 0.492 0.36183 0.11327 0.0
N454 N 0.48824 0.43186 0.06472 0.0
C455 C 0.51014 0.41266 0.98511 0.0
C456 C 0.51189 0.37442 0.01111 0.0
C457 C 0.21388 0.55785 0.03029 0.0
C458 C 0.24248 0.54189 0.95887 0.0
C459 C 0.17715 0.55445 0.9946 0.0
C460 C 0.16654 0.53396 0.88767 0.0
H461 H 0.21998 0.57404 0.1143 0.0
H462 H 0.1568 0.56864 0.05012 0.0
S463 S 0.22789 0.47839 0.68682 0.0
N464 N 0.25598 0.49963 0.78658 0.0
N465 N 0.1864 0.49228 0.72208 0.0
C466 C 0.19393 0.51513 0.82097 0.0
C467 C 0.23188 0.51901 0.85657 0.0
C468 C 0.06553 0.86609 0.73279 0.0
C469 C 1.03348 0.85073 0.6786 0.0
C470 C 0.06815 0.90328 0.76754 0.0
C471 C 1.03909 0.9273 0.74743 0.0
H472 H 0.0898 0.84991 0.73887 0.0
H473 H 0.09396 0.9137 0.80336 0.0
S474 S 0.94797 0.90027 0.62037 0.0
N475 N 0.97121 0.86238 0.61693 0.0
N476 N 0.9759 0.93147 0.68017 0.0
C477 C 1.00623 0.91172 0.70081 0.0
C478 C 1.00349 0.87385 0.66749 0.0
C479 C 0.73239 0.06681 0.66531 0.0
C480 C 0.7509 1.03504 0.7011 0.0
C481 C 0.69417 0.0702 0.6837 0.0
C482 C 0.67252 1.04151 0.73522 0.0
H483 H 0.74701 0.08801 0.61284 0.0
H484 H 0.68121 0.09461 0.65027 0.0
S485 S 0.70795 0.95487 0.86191 0.0
N486 N 0.74463 0.97635 0.8054 0.0
N487 N 0.67352 0.98215 0.83638 0.0
C488 C 0.69106 1.01078 0.77932 0.0
C489 C 0.72989 1.00777 0.76371 0.0
C490 C 0.59071 0.72365 0.74336 0.0
C491 C 0.56087 0.74474 0.70363 0.0
C492 C 0.58775 0.68561 0.75973 0.0
C493 C 0.55457 0.6667 0.74059 0.0
H494 H 0.6175 0.73629 0.75069 0.0
H495 H 0.61195 0.67077 0.78456 0.0
S496 S 0.46676 0.70849 0.65384 0.0
N497 N 0.49592 0.74318 0.65771 0.0
N498 N 0.49019 0.67239 0.69404 0.0
C499 C 0.52371 0.68761 0.71352 0.0
C500 C 0.52679 0.72636 0.69492 0.0
C501 C 0.867 0.53688 0.76645 0.0
C502 C 0.85349 0.55934 0.66779 0.0
C503 C 0.90432 0.53749 0.80142 0.0
C504 C 0.93029 0.56022 0.738 0.0
H505 H 0.84901 0.51676 0.81074 0.0
H506 H 0.91309 0.5185 0.87425 0.0
S507 S 0.9084 0.62634 0.47907 0.0
N508 N 0.86885 0.60622 0.51209 0.0
N509 N 0.9381 0.60838 0.57869 0.0
C510 C 0.9165 0.58447 0.6449 0.0
C511 C 0.87853 0.58374 0.60959 0.0
loop_
_geom_bond_atom_site_label_1
_geom_bond_atom_site_label_2
_geom_bond_distance
_geom_bond_site_symmetry_2
_ccdc_geom_bond_type
H0 C3 0.929 . S
H1 C6 0.929 . S
H2 C8 0.930 . S
C3 H0 0.929 . S
C3 C4 1.398 . S
C3 C5 1.396 . S
C4 C3 1.398 . S
C4 C8 1.407 . S
C5 C3 1.396 . S
C5 C6 1.394 . S
C6 H1 0.929 . S
C6 C5 1.394 . S
C6 C7 1.382 . S
C7 C6 1.382 . S
C7 C8 1.392 . S
C7 N9 1.420 . S
C8 H2 0.930 . S
C8 C4 1.407 . S
C8 C7 1.392 . S
N9 C7 1.420 . S
N9 C10 1.244 . S
C10 N9 1.244 . S
H11 C14 0.929 . S
H12 C17 0.929 . S
H13 C19 0.930 . S
C14 H11 0.929 . S
C14 C15 1.395 1_655 S
C14 C16 1.394 1_655 S
C15 C14 1.395 1_455 S
C15 C19 1.414 . S
C16 C14 1.394 1_455 S
C16 C17 1.397 . S
C17 H12 0.929 . S
C17 C16 1.397 . S
C17 C18 1.382 . S
C18 C17 1.382 . S
C18 C19 1.392 . S
C18 N20 1.420 . S
C19 H13 0.930 . S
C19 C15 1.414 . S
C19 C18 1.392 . S
N20 C18 1.420 . S
N20 C21 1.232 1_455 S
C21 N20 1.232 1_655 S
H22 C25 0.929 . S
H23 C28 0.929 . S
H24 C30 0.930 . S
C25 H22 0.929 . S
C25 C26 1.395 1_565 S
C25 C27 1.395 1_565 S
C26 C25 1.395 1_545 S
C26 C30 1.414 . S
C27 C25 1.395 1_545 S
C27 C28 1.397 . S
C28 H23 0.929 . S
C28 C27 1.397 . S
C28 C29 1.382 . S
C29 C28 1.382 . S
C29 C30 1.392 . S
C29 N31 1.420 . S
C30 H24 0.930 . S
C30 C26 1.414 . S
C30 C29 1.392 . S
N31 C29 1.420 . S
N31 C32 1.231 1_545 S
C32 N31 1.231 1_565 S
H33 C36 0.929 . S
H34 C39 0.929 . S
H35 C41 0.930 . S
C36 H33 0.929 . S
C36 C37 1.398 . S
C36 C38 1.396 . S
C37 C36 1.398 . S
C37 C41 1.407 . S
C38 C36 1.396 . S
C38 C39 1.394 . S
C39 H34 0.929 . S
C39 C38 1.394 . S
C39 C40 1.382 . S
C40 C39 1.382 . S
C40 C41 1.392 . S
C40 N42 1.420 . S
C41 H35 0.930 . S
C41 C37 1.407 . S
C41 C40 1.392 . S
N42 C40 1.420 . S
N42 C43 1.244 . S
C43 N42 1.244 . S
H44 C47 0.929 1_556 S
H45 C50 0.929 . S
H46 C52 0.930 . S
C47 H44 0.929 1_554 S
C47 C48 1.398 1_554 S
C47 C49 1.396 . S
C48 C47 1.398 1_556 S
C48 C52 1.407 . S
C49 C47 1.396 . S
C49 C50 1.394 . S
C50 H45 0.929 . S
C50 C49 1.394 . S
C50 C51 1.382 . S
C51 C50 1.382 . S
C51 C52 1.392 1_554 S
C51 N53 1.420 . S
C52 H46 0.930 . S
C52 C48 1.407 . S
C52 C51 1.392 1_556 S
N53 C51 1.420 . S
N53 C54 1.244 . S
C54 N53 1.244 . S
H55 C58 0.929 . S
H56 C61 0.929 . S
H57 C63 0.930 . S
C58 H55 0.929 . S
C58 C59 1.398 1_654 S
C58 C60 1.394 1_655 S
C59 C58 1.398 1_456 S
C59 C63 1.407 . S
C60 C58 1.394 1_455 S
C60 C61 1.398 . S
C61 H56 0.929 . S
C61 C60 1.398 . S
C61 C62 1.382 . S
C62 C61 1.382 . S
C62 C63 1.392 1_554 S
C62 N64 1.420 . S
C63 H57 0.930 . S
C63 C59 1.407 . S
C63 C62 1.392 1_556 S
N64 C62 1.420 . S
N64 C65 1.235 1_455 S
C65 N64 1.235 1_655 S
H66 C69 0.929 . S
H67 C72 0.929 . S
H68 C74 0.930 . S
C69 H66 0.929 . S
C69 C70 1.398 1_564 S
C69 C71 1.393 1_565 S
C70 C69 1.398 1_546 S
C70 C74 1.407 . S
C71 C69 1.393 1_545 S
C71 C72 1.398 . S
C72 H67 0.929 . S
C72 C71 1.398 . S
C72 C73 1.382 . S
C73 C72 1.382 . S
C73 C74 1.392 1_554 S
C73 N75 1.420 . S
C74 H68 0.930 . S
C74 C70 1.407 . S
C74 C73 1.392 1_556 S
N75 C73 1.420 . S
N75 C76 1.235 1_545 S
C76 N75 1.235 1_565 S
H77 C80 0.929 1_556 S
H78 C83 0.929 . S
H79 C85 0.930 . S
C80 H77 0.929 1_554 S
C80 C81 1.398 1_554 S
C80 C82 1.396 . S
C81 C80 1.398 1_556 S
C81 C85 1.407 . S
C82 C80 1.396 . S
C82 C83 1.394 . S
C83 H78 0.929 . S
C83 C82 1.394 . S
C83 C84 1.382 . S
C84 C83 1.382 . S
C84 C85 1.392 1_554 S
C84 N86 1.420 . S
C85 H79 0.930 . S
C85 C81 1.407 . S
C85 C84 1.392 1_556 S
N86 C84 1.420 . S
N86 C87 1.244 . S
C87 N86 1.244 . S
Sm88 C90 2.846 1_556 S
Sm88 O108 2.543 1_556 S
Sm88 O109 2.450 1_556 S
Sm88 O110 2.681 1_565 S
Sm88 O111 2.464 . S
Sm88 O112 2.396 . S
Sm88 O116 2.386 1_455 S
Sm88 O119 2.408 1_565 S
Sm89 C99 2.846 . S
Sm89 O110 2.386 1_655 S
Sm89 O113 2.408 1_545 S
Sm89 O114 2.543 . S
Sm89 O115 2.450 . S
Sm89 O116 2.681 1_545 S
Sm89 O117 2.464 . S
Sm89 O118 2.396 . S
C90 Sm88 2.846 1_554 S
C90 C91 1.506 . S
C90 O108 1.261 . S
C90 O109 1.242 . S
C91 C90 1.506 . S
C91 C92 1.358 . S
C91 C96 1.382 . S
C92 C91 1.358 . S
C92 C93 1.385 . S
C92 H120 0.930 1_455 S
C93 C92 1.385 . S
C93 C94 1.395 . S
C93 H121 0.956 . S
C94 C93 1.395 . S
C94 C95 1.335 . S
C95 C94 1.335 . S
C95 C96 1.398 . S
C95 H122 0.930 . S
C96 C91 1.382 . S
C96 C95 1.398 . S
C96 H123 0.929 . S
C97 O110 1.271 1_565 S
C97 O111 1.251 . S
C98 O112 1.252 1_655 S
C98 O113 1.272 . S
C99 Sm89 2.846 . S
C99 C100 1.506 . S
C99 O114 1.261 . S
C99 O115 1.242 . S
C100 C99 1.506 . S
C100 C101 1.358 . S
C100 C105 1.382 . S
C101 C100 1.358 . S
C101 C102 1.385 . S
C101 H124 0.930 1_655 S
C102 C101 1.385 . S
C102 C103 1.395 . S
C102 H125 0.950 . S
C103 C102 1.395 . S
C103 C104 1.335 . S
C104 C103 1.335 . S
C104 C105 1.398 . S
C104 H126 0.930 . S
C105 C100 1.382 . S
C105 C104 1.398 . S
C105 H127 0.929 . S
C106 O116 1.271 1_545 S
C106 O117 1.251 . S
C107 O118 1.252 1_455 S
C107 O119 1.272 . S
O108 Sm88 2.543 1_554 S
O108 C90 1.261 . S
O109 Sm88 2.450 1_554 S
O109 C90 1.242 . S
O110 Sm88 2.681 1_545 S
O110 Sm89 2.386 1_455 S
O110 C97 1.271 1_545 S
O111 Sm88 2.464 . S
O111 C97 1.251 . S
O112 Sm88 2.396 . S
O112 C98 1.252 1_455 S
O113 Sm89 2.408 1_565 S
O113 C98 1.272 . S
O114 Sm89 2.543 . S
O114 C99 1.261 . S
O115 Sm89 2.450 . S
O115 C99 1.242 . S
O116 Sm88 2.386 1_655 S
O116 Sm89 2.681 1_565 S
O116 C106 1.271 1_565 S
O117 Sm89 2.464 . S
O117 C106 1.251 . S
O118 Sm89 2.396 . S
O118 C107 1.252 1_655 S
O119 Sm88 2.408 1_545 S
O119 C107 1.272 . S
H120 C92 0.930 1_655 S
H121 C93 0.956 . S
H122 C95 0.930 . S
H123 C96 0.929 . S
H124 C101 0.930 1_455 S
H125 C102 0.950 . S
H126 C104 0.930 . S
H127 C105 0.929 . S
Sm128 C130 2.846 1_556 S
Sm128 O148 2.543 1_556 S
Sm128 O149 2.450 1_556 S
Sm128 O150 2.681 . S
Sm128 O151 2.464 . S
Sm128 O152 2.396 . S
Sm128 O156 2.386 1_545 S
Sm128 O159 2.408 . S
Sm129 C139 2.846 . S
Sm129 O150 2.386 1_565 S
Sm129 O153 2.408 . S
Sm129 O154 2.543 . S
Sm129 O155 2.450 . S
Sm129 O156 2.681 . S
Sm129 O157 2.464 . S
Sm129 O158 2.396 . S
C130 Sm128 2.846 1_554 S
C130 C131 1.506 . S
C130 O148 1.261 . S
C130 O149 1.242 . S
C131 C130 1.506 . S
C131 C132 1.358 . S
C131 C136 1.382 . S
C132 C131 1.358 . S
C132 C133 1.385 . S
C132 H160 0.930 1_545 S
C133 C132 1.385 . S
C133 C134 1.395 . S
C133 H161 0.903 1_545 S
C134 C133 1.395 . S
C134 C135 1.335 . S
C135 C134 1.335 . S
C135 C136 1.398 . S
C135 H162 0.930 . S
C136 C131 1.382 . S
C136 C135 1.398 . S
C136 H163 0.929 . S
C137 O150 1.271 . S
C137 O151 1.251 . S
C138 O152 1.252 1_565 S
C138 O153 1.272 . S
C139 Sm129 2.846 . S
C139 C140 1.506 . S
C139 O154 1.261 . S
C139 O155 1.242 . S
C140 C139 1.506 . S
C140 C141 1.358 . S
C140 C145 1.382 . S
C141 C140 1.358 . S
C141 C142 1.385 . S
C141 H164 0.930 1_565 S
C142 C141 1.385 . S
C142 C143 1.395 . S
C142 H165 0.929 1_565 S
C143 C142 1.395 . S
C143 C144 1.335 . S
C144 C143 1.335 . S
C144 C145 1.398 . S
C144 H166 0.930 . S
C145 C140 1.382 . S
C145 C144 1.398 . S
C145 H167 0.929 . S
C146 O156 1.271 . S
C146 O157 1.251 . S
C147 O158 1.252 1_545 S
C147 O159 1.272 . S
O148 Sm128 2.543 1_554 S
O148 C130 1.261 . S
O149 Sm128 2.450 1_554 S
O149 C130 1.242 . S
O150 Sm128 2.681 . S
O150 Sm129 2.386 1_545 S
O150 C137 1.271 . S
O151 Sm128 2.464 . S
O151 C137 1.251 . S
O152 Sm128 2.396 . S
O152 C138 1.252 1_545 S
O153 Sm129 2.408 . S
O153 C138 1.272 . S
O154 Sm129 2.543 . S
O154 C139 1.261 . S
O155 Sm129 2.450 . S
O155 C139 1.242 . S
O156 Sm128 2.386 1_565 S
O156 Sm129 2.681 . S
O156 C146 1.271 . S
O157 Sm129 2.464 . S
O157 C146 1.251 . S
O158 Sm129 2.396 . S
O158 C147 1.252 1_565 S
O159 Sm128 2.408 . S
O159 C147 1.272 . S
H160 C132 0.930 1_565 S
H161 C133 0.903 1_565 S
H162 C135 0.930 . S
H163 C136 0.929 . S
H164 C141 0.930 1_545 S
H165 C142 0.929 1_545 S
H166 C144 0.930 . S
H167 C145 0.929 . S
Sm168 C170 2.846 1_556 S
Sm168 O188 2.543 1_556 S
Sm168 O189 2.450 1_556 S
Sm168 O190 2.681 . S
Sm168 O191 2.464 . S
Sm168 O192 2.396 . S
Sm168 O196 2.386 . S
Sm168 O199 2.408 . S
Sm169 C179 2.846 . S
Sm169 O190 2.386 . S
Sm169 O193 2.408 . S
Sm169 O194 2.543 . S
Sm169 O195 2.450 . S
Sm169 O196 2.681 . S
Sm169 O197 2.464 . S
Sm169 O198 2.396 . S
C170 Sm168 2.846 1_554 S
C170 C171 1.506 . S
C170 O188 1.261 . S
C170 O189 1.242 . S
C171 C170 1.506 . S
C171 C172 1.358 . S
C171 C176 1.382 . S
C172 C171 1.358 . S
C172 C173 1.385 . S
C172 H200 0.930 . S
C173 C172 1.385 . S
C173 C174 1.395 . S
C173 H201 0.929 . S
C174 C173 1.395 . S
C174 C175 1.335 . S
C175 C174 1.335 . S
C175 C176 1.398 . S
C175 H202 0.930 . S
C176 C171 1.382 . S
C176 C175 1.398 . S
C176 H203 0.929 . S
C177 O190 1.271 . S
C177 O191 1.251 . S
C178 O192 1.252 . S
C178 O193 1.272 . S
C179 Sm169 2.846 . S
C179 C180 1.506 . S
C179 O194 1.261 . S
C179 O195 1.242 . S
C180 C179 1.506 . S
C180 C181 1.358 . S
C180 C185 1.382 . S
C181 C180 1.358 . S
C181 C182 1.385 . S
C181 H204 0.930 . S
C182 C181 1.385 . S
C182 C183 1.395 . S
C182 H205 0.929 . S
C183 C182 1.395 . S
C183 C184 1.335 . S
C184 C183 1.335 . S
C184 C185 1.398 . S
C184 H206 0.930 . S
C185 C180 1.382 . S
C185 C184 1.398 . S
C185 H207 0.929 . S
C186 O196 1.271 . S
C186 O197 1.251 . S
C187 O198 1.252 . S
C187 O199 1.272 . S
O188 Sm168 2.543 1_554 S
O188 C170 1.261 . S
O189 Sm168 2.450 1_554 S
O189 C170 1.242 . S
O190 Sm168 2.681 . S
O190 Sm169 2.386 . S
O190 C177 1.271 . S
O191 Sm168 2.464 . S
O191 C177 1.251 . S
O192 Sm168 2.396 . S
O192 C178 1.252 . S
O193 Sm169 2.408 . S
O193 C178 1.272 . S
O194 Sm169 2.543 . S
O194 C179 1.261 . S
O195 Sm169 2.450 . S
O195 C179 1.242 . S
O196 Sm168 2.386 . S
O196 Sm169 2.681 . S
O196 C186 1.271 . S
O197 Sm169 2.464 . S
O197 C186 1.251 . S
O198 Sm169 2.396 . S
O198 C187 1.252 . S
O199 Sm168 2.408 . S
O199 C187 1.272 . S
H200 C172 0.930 . S
H201 C173 0.929 . S
H202 C175 0.930 . S
H203 C176 0.929 . S
H204 C181 0.930 . S
H205 C182 0.929 . S
H206 C184 0.930 . S
H207 C185 0.929 . S
Sm208 C210 2.846 1_556 S
Sm208 O228 2.543 1_556 S
Sm208 O229 2.450 1_556 S
Sm208 O230 2.681 1_655 S
Sm208 O231 2.464 . S
Sm208 O232 2.396 . S
Sm208 O236 2.386 . S
Sm208 O239 2.408 1_655 S
Sm209 C219 2.846 . S
Sm209 O230 2.386 . S
Sm209 O233 2.408 1_455 S
Sm209 O234 2.543 . S
Sm209 O235 2.450 . S
Sm209 O236 2.681 1_455 S
Sm209 O237 2.464 . S
Sm209 O238 2.396 . S
C210 Sm208 2.846 1_554 S
C210 C211 1.506 . S
C210 O228 1.261 . S
C210 O229 1.242 . S
C211 C210 1.506 . S
C211 C212 1.358 . S
C211 C216 1.382 . S
C212 C211 1.358 . S
C212 C213 1.385 . S
C212 H240 0.930 . S
C213 C212 1.385 . S
C213 C214 1.395 . S
C213 H241 0.929 . S
C214 C213 1.395 . S
C214 C215 1.335 . S
C215 C214 1.335 . S
C215 C216 1.398 . S
C215 H242 0.930 . S
C216 C211 1.382 . S
C216 C215 1.398 . S
C216 H243 0.929 . S
C217 O230 1.265 1_655 S
C217 O231 1.261 . S
C218 O232 1.252 . S
C218 O233 1.272 . S
C219 Sm209 2.846 . S
C219 C220 1.506 . S
C219 O234 1.261 . S
C219 O235 1.242 . S
C220 C219 1.506 . S
C220 C221 1.358 . S
C220 C225 1.382 . S
C221 C220 1.358 . S
C221 C222 1.385 . S
C221 H244 0.930 . S
C222 C221 1.385 . S
C222 C223 1.395 . S
C222 H245 0.929 . S
C223 C222 1.395 . S
C223 C224 1.335 . S
C224 C223 1.335 . S
C224 C225 1.398 . S
C224 H246 0.930 . S
C225 C220 1.382 . S
C225 C224 1.398 . S
C225 H247 0.929 . S
C226 O236 1.263 1_455 S
C226 O237 1.264 . S
C227 O238 1.252 . S
C227 O239 1.272 . S
O228 Sm208 2.543 1_554 S
O228 C210 1.261 . S
O229 Sm208 2.450 1_554 S
O229 C210 1.242 . S
O230 Sm208 2.681 1_455 S
O230 Sm209 2.386 . S
O230 C217 1.265 1_455 S
O231 Sm208 2.464 . S
O231 C217 1.261 . S
O232 Sm208 2.396 . S
O232 C218 1.252 . S
O233 Sm209 2.408 1_655 S
O233 C218 1.272 . S
O234 Sm209 2.543 . S
O234 C219 1.261 . S
O235 Sm209 2.450 . S
O235 C219 1.242 . S
O236 Sm208 2.386 . S
O236 Sm209 2.681 1_655 S
O236 C226 1.263 1_655 S
O237 Sm209 2.464 . S
O237 C226 1.264 . S
O238 Sm209 2.396 . S
O238 C227 1.252 . S
O239 Sm208 2.408 1_455 S
O239 C227 1.272 . S
H240 C212 0.930 . S
H241 C213 0.929 . S
H242 C215 0.930 . S
H243 C216 0.929 . S
H244 C221 0.930 . S
H245 C222 0.929 . S
H246 C224 0.930 . S
H247 C225 0.929 . S
C248 C249 1.368 1_545 S
C248 C250 1.419 . S
C248 H252 0.930 . S
C249 C248 1.368 1_565 S
C249 C258 1.429 . S
C250 C248 1.419 . S
C250 C251 1.368 . S
C250 H253 0.929 . S
C251 C250 1.368 . S
C251 C257 1.423 1_545 S
H252 C248 0.930 . S
H253 C250 0.929 . S
S254 N255 1.613 . S
S254 N256 1.610 . S
N255 S254 1.613 . S
N255 C258 1.350 . S
N256 S254 1.610 . S
N256 C257 1.351 . S
C257 C251 1.423 1_565 S
C257 N256 1.351 . S
C257 C258 1.434 . S
C258 C249 1.429 . S
C258 N255 1.350 . S
C258 C257 1.434 . S
C259 C260 1.369 . S
C259 C261 1.419 . S
C259 H263 0.930 . S
C260 C259 1.369 . S
C260 C269 1.429 . S
C261 C259 1.419 . S
C261 C262 1.363 . S
C261 H264 0.929 . S
C262 C261 1.363 . S
C262 C268 1.428 . S
H263 C259 0.930 . S
H264 C261 0.929 . S
S265 N266 1.613 . S
S265 N267 1.610 . S
N266 S265 1.613 . S
N266 C269 1.350 . S
N267 S265 1.610 . S
N267 C268 1.351 . S
C268 C262 1.428 . S
C268 N267 1.351 . S
C268 C269 1.434 . S
C269 C260 1.429 . S
C269 N266 1.350 . S
C269 C268 1.434 . S
C270 C271 1.369 . S
C270 C272 1.419 . S
C270 H274 0.930 . S
C271 C270 1.369 . S
C271 C280 1.429 . S
C272 C270 1.419 . S
C272 C273 1.363 . S
C272 H275 0.929 . S
C273 C272 1.363 . S
C273 C279 1.428 . S
H274 C270 0.930 . S
H275 C272 0.929 . S
S276 N277 1.613 . S
S276 N278 1.610 . S
N277 S276 1.613 . S
N277 C280 1.350 . S
N278 S276 1.610 . S
N278 C279 1.351 . S
C279 C273 1.428 . S
C279 N278 1.351 . S
C279 C280 1.434 . S
C280 C271 1.429 . S
C280 N277 1.350 . S
C280 C279 1.434 . S
C281 C282 1.369 1_655 S
C281 C283 1.419 . S
C281 H285 0.930 . S
C282 C281 1.369 1_455 S
C282 C291 1.429 . S
C283 C281 1.419 . S
C283 C284 1.363 1_655 S
C283 H286 0.929 . S
C284 C283 1.363 1_455 S
C284 C290 1.428 . S
H285 C281 0.930 . S
H286 C283 0.929 . S
S287 N288 1.613 . S
S287 N289 1.610 . S
N288 S287 1.613 . S
N288 C291 1.350 . S
N289 S287 1.610 . S
N289 C290 1.351 . S
C290 C284 1.428 . S
C290 N289 1.351 . S
C290 C291 1.434 . S
C291 C282 1.429 . S
C291 N288 1.350 . S
C291 C290 1.434 . S
C292 C293 1.361 1_565 S
C292 C294 1.419 . S
C292 H296 0.930 . S
C293 C292 1.361 1_545 S
C293 C302 1.436 . S
C294 C292 1.419 . S
C294 C295 1.363 . S
C294 H297 0.929 . S
C295 C294 1.363 . S
C295 C301 1.428 1_565 S
H296 C292 0.930 . S
H297 C294 0.929 . S
S298 N299 1.613 . S
S298 N300 1.610 . S
N299 S298 1.613 . S
N299 C302 1.350 . S
N300 S298 1.610 . S
N300 C301 1.351 . S
C301 C295 1.428 1_545 S
C301 N300 1.351 . S
C301 C302 1.434 . S
C302 C293 1.436 . S
C302 N299 1.350 . S
C302 C301 1.434 . S
C303 C304 1.369 . S
C303 C305 1.419 . S
C303 H307 0.930 . S
C304 C303 1.369 . S
C304 C313 1.429 . S
C305 C303 1.419 . S
C305 C306 1.363 . S
C305 H308 0.929 . S
C306 C305 1.363 . S
C306 C312 1.428 . S
H307 C303 0.930 . S
H308 C305 0.929 . S
S309 N310 1.613 . S
S309 N311 1.610 . S
N310 S309 1.613 . S
N310 C313 1.350 . S
N311 S309 1.610 . S
N311 C312 1.351 . S
C312 C306 1.428 . S
C312 N311 1.351 . S
C312 C313 1.434 . S
C313 C304 1.429 . S
C313 N310 1.350 . S
C313 C312 1.434 . S
C314 C315 1.369 . S
C314 C316 1.419 . S
C314 H318 0.930 . S
C315 C314 1.369 . S
C315 C324 1.429 . S
C316 C314 1.419 . S
C316 C317 1.363 . S
C316 H319 0.929 . S
C317 C316 1.363 . S
C317 C323 1.428 . S
H318 C314 0.930 . S
H319 C316 0.929 . S
S320 N321 1.613 . S
S320 N322 1.610 . S
N321 S320 1.613 . S
N321 C324 1.350 . S
N322 S320 1.610 . S
N322 C323 1.351 . S
C323 C317 1.428 . S
C323 N322 1.351 . S
C323 C324 1.434 . S
C324 C315 1.429 . S
C324 N321 1.350 . S
C324 C323 1.434 . S
C325 C326 1.362 1_455 S
C325 C327 1.419 . S
C325 H329 0.930 . S
C326 C325 1.362 1_655 S
C326 C335 1.436 . S
C327 C325 1.419 . S
C327 C328 1.363 1_455 S
C327 H330 0.929 . S
C328 C327 1.363 1_655 S
C328 C334 1.428 . S
H329 C325 0.930 . S
H330 C327 0.929 . S
S331 N332 1.613 . S
S331 N333 1.610 . S
N332 S331 1.613 . S
N332 C335 1.350 . S
N333 S331 1.610 . S
N333 C334 1.351 . S
C334 C328 1.428 . S
C334 N333 1.351 . S
C334 C335 1.434 . S
C335 C326 1.436 . S
C335 N332 1.350 . S
C335 C334 1.434 . S
C336 C337 1.369 . S
C336 C338 1.419 . S
C336 H340 0.930 1_655 S
C337 C336 1.369 . S
C337 C346 1.429 . S
C338 C336 1.419 . S
C338 C339 1.363 . S
C338 H341 0.929 . S
C339 C338 1.363 . S
C339 C345 1.428 . S
H340 C336 0.930 1_455 S
H341 C338 0.929 . S
S342 N343 1.613 . S
S342 N344 1.610 1_556 S
N343 S342 1.613 . S
N343 C346 1.350 1_556 S
N344 S342 1.610 1_554 S
N344 C345 1.351 . S
C345 C339 1.428 . S
C345 N344 1.351 . S
C345 C346 1.434 . S
C346 C337 1.429 . S
C346 N343 1.350 1_554 S
C346 C345 1.434 . S
C347 C348 1.369 . S
C347 C349 1.419 . S
C347 H351 0.930 . S
C348 C347 1.369 . S
C348 C357 1.429 . S
C349 C347 1.419 . S
C349 C350 1.363 . S
C349 H352 0.929 . S
C350 C349 1.363 . S
C350 C356 1.428 . S
H351 C347 0.930 . S
H352 C349 0.929 . S
S353 N354 1.617 . S
S353 N355 1.610 . S
N354 S353 1.617 . S
N354 C357 1.353 . S
N355 S353 1.610 . S
N355 C356 1.351 . S
C356 C350 1.428 . S
C356 N355 1.351 . S
C356 C357 1.434 . S
C357 C348 1.429 . S
C357 N354 1.353 . S
C357 C356 1.434 . S
C358 C359 1.369 . S
C358 C360 1.419 . S
C358 H362 0.930 . S
C359 C358 1.369 . S
C359 C368 1.429 . S
C360 C358 1.419 . S
C360 C361 1.363 . S
C360 H363 0.929 . S
C361 C360 1.363 . S
C361 C367 1.428 . S
H362 C358 0.930 . S
H363 C360 0.929 . S
S364 N365 1.613 . S
S364 N366 1.610 . S
N365 S364 1.613 . S
N365 C368 1.350 . S
N366 S364 1.610 . S
N366 C367 1.351 . S
C367 C361 1.428 . S
C367 N366 1.351 . S
C367 C368 1.434 . S
C368 C359 1.429 . S
C368 N365 1.350 . S
C368 C367 1.434 . S
C369 C370 1.369 . S
C369 C371 1.419 . S
C369 H373 0.930 . S
C370 C369 1.369 . S
C370 C379 1.429 . S
C371 C369 1.419 . S
C371 C372 1.363 . S
C371 H374 0.929 . S
C372 C371 1.363 . S
C372 C378 1.428 . S
H373 C369 0.930 . S
H374 C371 0.929 . S
S375 N376 1.613 . S
S375 N377 1.610 . S
N376 S375 1.613 . S
N376 C379 1.350 . S
N377 S375 1.610 . S
N377 C378 1.351 . S
C378 C372 1.428 . S
C378 N377 1.351 . S
C378 C379 1.434 . S
C379 C370 1.429 . S
C379 N376 1.350 . S
C379 C378 1.434 . S
C380 C381 1.369 . S
C380 C382 1.419 . S
C380 H384 0.930 . S
C381 C380 1.369 . S
C381 C390 1.429 1_455 S
C382 C380 1.419 . S
C382 C383 1.363 . S
C382 H385 0.929 . S
C383 C382 1.363 . S
C383 C389 1.428 . S
H384 C380 0.930 . S
H385 C382 0.929 . S
S386 N387 1.613 . S
S386 N388 1.610 1_655 S
N387 S386 1.613 . S
N387 C390 1.350 . S
N388 S386 1.610 1_455 S
N388 C389 1.351 . S
C389 C383 1.428 . S
C389 N388 1.351 . S
C389 C390 1.434 1_455 S
C390 C381 1.429 1_655 S
C390 N387 1.350 . S
C390 C389 1.434 1_655 S
C391 C392 1.369 1_565 S
C391 C393 1.419 1_565 S
C391 H395 0.930 . S
C392 C391 1.369 1_545 S
C392 C401 1.429 . S
C393 C391 1.419 1_545 S
C393 C394 1.363 . S
C393 H396 0.929 . S
C394 C393 1.363 . S
C394 C400 1.428 . S
H395 C391 0.930 . S
H396 C393 0.929 . S
S397 N398 1.613 . S
S397 N399 1.610 . S
N398 S397 1.613 . S
N398 C401 1.350 . S
N399 S397 1.610 . S
N399 C400 1.351 . S
C400 C394 1.428 . S
C400 N399 1.351 . S
C400 C401 1.434 . S
C401 C392 1.429 . S
C401 N398 1.350 . S
C401 C400 1.434 . S
C402 C403 1.369 . S
C402 C404 1.419 . S
C402 H406 0.930 . S
C403 C402 1.369 . S
C403 C412 1.429 . S
C404 C402 1.419 . S
C404 C405 1.363 . S
C404 H407 0.929 . S
C405 C404 1.363 . S
C405 C411 1.428 . S
H406 C402 0.930 . S
H407 C404 0.929 . S
S408 N409 1.613 . S
S408 N410 1.610 . S
N409 S408 1.613 . S
N409 C412 1.350 . S
N410 S408 1.610 . S
N410 C411 1.351 . S
C411 C405 1.428 . S
C411 N410 1.351 . S
C411 C412 1.434 . S
C412 C403 1.429 . S
C412 N409 1.350 . S
C412 C411 1.434 . S
C413 C414 1.369 . S
C413 C415 1.419 . S
C413 H417 0.930 . S
C414 C413 1.369 . S
C414 C423 1.429 . S
C415 C413 1.419 . S
C415 C416 1.363 . S
C415 H418 0.929 . S
C416 C415 1.363 . S
C416 C422 1.428 . S
H417 C413 0.930 . S
H418 C415 0.929 . S
S419 N420 1.613 . S
S419 N421 1.610 . S
N420 S419 1.613 . S
N420 C423 1.350 . S
N421 S419 1.610 . S
N421 C422 1.351 . S
C422 C416 1.428 . S
C422 N421 1.351 . S
C422 C423 1.434 . S
C423 C414 1.429 . S
C423 N420 1.350 . S
C423 C422 1.434 . S
C424 C425 1.369 1_655 S
C424 C426 1.419 . S
C424 H428 0.930 1_556 S
C425 C424 1.369 1_455 S
C425 C434 1.429 . S
C426 C424 1.419 . S
C426 C427 1.363 1_655 S
C426 H429 0.929 1_556 S
C427 C426 1.363 1_455 S
C427 C433 1.428 . S
H428 C424 0.930 1_554 S
H429 C426 0.929 1_554 S
S430 N431 1.613 . S
S430 N432 1.610 . S
N431 S430 1.613 . S
N431 C434 1.350 . S
N432 S430 1.610 . S
N432 C433 1.351 . S
C433 C427 1.428 . S
C433 N432 1.351 . S
C433 C434 1.434 . S
C434 C425 1.429 . S
C434 N431 1.350 . S
C434 C433 1.434 . S
C435 C436 1.369 . S
C435 C437 1.419 . S
C435 H439 0.930 . S
C436 C435 1.369 . S
C436 C445 1.429 1_545 S
C437 C435 1.419 . S
C437 C438 1.363 . S
C437 H440 0.929 . S
C438 C437 1.363 . S
C438 C444 1.428 1_545 S
H439 C435 0.930 . S
H440 C437 0.929 . S
S441 N442 1.613 . S
S441 N443 1.610 . S
N442 S441 1.613 . S
N442 C445 1.350 . S
N443 S441 1.610 . S
N443 C444 1.351 . S
C444 C438 1.428 1_565 S
C444 N443 1.351 . S
C444 C445 1.434 . S
C445 C436 1.429 1_565 S
C445 N442 1.350 . S
C445 C444 1.434 . S
C446 C447 1.369 . S
C446 C448 1.419 . S
C446 H450 0.930 . S
C447 C446 1.369 . S
C447 C456 1.429 . S
C448 C446 1.419 . S
C448 C449 1.363 . S
C448 H451 0.929 . S
C449 C448 1.363 . S
C449 C455 1.428 . S
H450 C446 0.930 . S
H451 C448 0.929 . S
S452 N453 1.613 . S
S452 N454 1.610 . S
N453 S452 1.613 . S
N453 C456 1.350 1_554 S
N454 S452 1.610 . S
N454 C455 1.351 1_554 S
C455 C449 1.428 . S
C455 N454 1.351 1_556 S
C455 C456 1.434 . S
C456 C447 1.429 . S
C456 N453 1.350 1_556 S
C456 C455 1.434 . S
C457 C458 1.369 . S
C457 C459 1.419 . S
C457 H461 0.930 1_556 S
C458 C457 1.369 . S
C458 C467 1.429 . S
C459 C457 1.419 . S
C459 C460 1.363 . S
C459 H462 0.929 1_556 S
C460 C459 1.363 . S
C460 C466 1.428 . S
H461 C457 0.930 1_554 S
H462 C459 0.929 1_554 S
S463 N464 1.613 . S
S463 N465 1.610 . S
N464 S463 1.613 . S
N464 C467 1.350 . S
N465 S463 1.610 . S
N465 C466 1.351 . S
C466 C460 1.428 . S
C466 N465 1.351 . S
C466 C467 1.434 . S
C467 C458 1.429 . S
C467 N464 1.350 . S
C467 C466 1.434 . S
C468 C469 1.369 1_455 S
C468 C470 1.419 . S
C468 H472 0.930 . S
C469 C468 1.369 1_655 S
C469 C478 1.429 . S
C470 C468 1.419 . S
C470 C471 1.363 1_455 S
C470 H473 0.929 . S
C471 C470 1.363 1_655 S
C471 C477 1.428 . S
H472 C468 0.930 . S
H473 C470 0.929 . S
S474 N475 1.613 . S
S474 N476 1.610 . S
N475 S474 1.613 . S
N475 C478 1.350 . S
N476 S474 1.610 . S
N476 C477 1.351 . S
C477 C471 1.428 . S
C477 N476 1.351 . S
C477 C478 1.434 . S
C478 C469 1.429 . S
C478 N475 1.350 . S
C478 C477 1.434 . S
C479 C480 1.369 1_545 S
C479 C481 1.419 . S
C479 H483 0.930 . S
C480 C479 1.369 1_565 S
C480 C489 1.429 . S
C481 C479 1.419 . S
C481 C482 1.363 1_545 S
C481 H484 0.929 . S
C482 C481 1.363 1_565 S
C482 C488 1.428 . S
H483 C479 0.930 . S
H484 C481 0.929 . S
S485 N486 1.613 . S
S485 N487 1.610 . S
N486 S485 1.613 . S
N486 C489 1.350 . S
N487 S485 1.610 . S
N487 C488 1.351 . S
C488 C482 1.428 . S
C488 N487 1.351 . S
C488 C489 1.434 . S
C489 C480 1.429 . S
C489 N486 1.350 . S
C489 C488 1.434 . S
C490 C491 1.369 . S
C490 C492 1.419 . S
C490 H494 0.930 . S
C491 C490 1.369 . S
C491 C500 1.429 . S
C492 C490 1.419 . S
C492 C493 1.363 . S
C492 H495 0.929 . S
C493 C492 1.363 . S
C493 C499 1.428 . S
H494 C490 0.930 . S
H495 C492 0.929 . S
S496 N497 1.613 . S
S496 N498 1.610 . S
N497 S496 1.613 . S
N497 C500 1.350 . S
N498 S496 1.610 . S
N498 C499 1.351 . S
C499 C493 1.428 . S
C499 N498 1.351 . S
C499 C500 1.434 . S
C500 C491 1.429 . S
C500 N497 1.350 . S
C500 C499 1.434 . S
C501 C502 1.369 . S
C501 C503 1.419 . S
C501 H505 0.930 . S
C502 C501 1.369 . S
C502 C511 1.429 . S
C503 C501 1.419 . S
C503 C504 1.363 . S
C503 H506 0.929 . S
C504 C503 1.363 . S
C504 C510 1.428 . S
H505 C501 0.930 . S
H506 C503 0.929 . S
S507 N508 1.613 . S
S507 N509 1.610 . S
N508 S507 1.613 . S
N508 C511 1.350 . S
N509 S507 1.610 . S
N509 C510 1.351 . S
C510 C504 1.428 . S
C510 N509 1.351 . S
C510 C511 1.434 . S
C511 C502 1.429 . S
C511 N508 1.350 . S
C511 C510 1.434 . S
C249 C76 1.933 . S
C251 C97 2.183 1_545 S
C262 C137 2.202 . S
C260 C87 1.960 . S
C273 C177 2.213 . S
C271 C54 1.975 . S
C284 C217 2.196 1_455 S
C282 C65 1.952 1_455 S
C295 C106 2.186 1_564 S
C293 C32 1.937 1_545 S
C304 C43 1.955 . S
C306 C146 2.203 1_554 S
C315 C10 1.968 . S
C317 C186 2.211 1_554 S
C326 C21 1.955 . S
C328 C226 2.196 1_654 S
C339 C103 0.829 . S
C337 C60 0.815 1_655 S
C350 C143 0.817 . S
C348 C71 0.836 1_565 S
C361 C183 0.806 . S
C359 C82 0.829 . S
C370 C49 0.826 . S
C372 C223 0.799 . S
C381 C16 0.840 . S
C383 C94 0.816 . S
C394 C134 0.831 . S
C392 C27 0.816 . S
C405 C174 0.816 . S
C403 C38 0.816 . S
C414 C5 0.804 . S
C416 C214 0.824 . S
C425 C59 2.244 . S
C427 C107 2.565 . S
C436 C70 2.200 . S
C438 C147 2.526 . S
C449 C187 2.516 . S
C447 C81 2.181 . S
C460 C227 2.555 . S
C458 C48 2.226 . S
C469 C15 2.238 1_655 S
C471 C98 2.574 . S
C482 C138 2.530 . S
C480 C26 2.203 1_565 S
C493 C178 2.513 . S
C491 C37 2.195 . S
C502 C4 2.231 . S
C504 C218 2.559 . S
