# Generated by pormake.
# Topology eea, (3,6)-cn, num edge types: 1
# Building blocks:
#     Node 0, Type 0, BuildingBlock: PAMTOO_clean_linker_0, # of connection points: 3
#     Node 1, Type 0, BuildingBlock: PAMTOO_clean_linker_0, # of connection points: 3
#     Node 2, Type 0, BuildingBlock: PAMTOO_clean_linker_0, # of connection points: 3
#     Node 3, Type 0, BuildingBlock: PAMTOO_clean_linker_0, # of connection points: 3
#     Node 4, Type 0, BuildingBlock: PAMTOO_clean_linker_0, # of connection points: 3
#     Node 5, Type 0, BuildingBlock: PAMTOO_clean_linker_0, # of connection points: 3
#     Node 6, Type 0, BuildingBlock: PAMTOO_clean_linker_0, # of connection points: 3
#     Node 7, Type 0, BuildingBlock: PAMTOO_clean_linker_0, # of connection points: 3
#     Node 8, Type 0, BuildingBlock: PAMTOO_clean_linker_0, # of connection points: 3
#     Node 9, Type 0, BuildingBlock: PAMTOO_clean_linker_0, # of connection points: 3
#     Node 10, Type 0, BuildingBlock: PAMTOO_clean_linker_0, # of connection points: 3
#     Node 11, Type 0, BuildingBlock: PAMTOO_clean_linker_0, # of connection points: 3
#     Node 12, Type 0, BuildingBlock: PAMTOO_clean_linker_0, # of connection points: 3
#     Node 13, Type 0, BuildingBlock: PAMTOO_clean_linker_0, # of connection points: 3
#     Node 14, Type 0, BuildingBlock: PAMTOO_clean_linker_0, # of connection points: 3
#     Node 15, Type 0, BuildingBlock: PAMTOO_clean_linker_0, # of connection points: 3
#     Node 16, Type 0, BuildingBlock: PAMTOO_clean_linker_0, # of connection points: 3
#     Node 17, Type 0, BuildingBlock: PAMTOO_clean_linker_0, # of connection points: 3
#     Node 18, Type 1, BuildingBlock: CUKXOW_clean_sbu_0, # of connection points: 6
#     Node 19, Type 1, BuildingBlock: CUKXOW_clean_sbu_0, # of connection points: 6
#     Node 20, Type 1, BuildingBlock: CUKXOW_clean_sbu_0, # of connection points: 6
#     Node 21, Type 1, BuildingBlock: CUKXOW_clean_sbu_0, # of connection points: 6
#     Node 22, Type 1, BuildingBlock: CUKXOW_clean_sbu_0, # of connection points: 6
#     Node 23, Type 1, BuildingBlock: CUKXOW_clean_sbu_0, # of connection points: 6
#     Node 24, Type 1, BuildingBlock: CUKXOW_clean_sbu_0, # of connection points: 6
#     Node 25, Type 1, BuildingBlock: CUKXOW_clean_sbu_0, # of connection points: 6
#     Node 26, Type 1, BuildingBlock: CUKXOW_clean_sbu_0, # of connection points: 6
#     Edge 27, Type (0, 1), BuildingBlock: AJUNOK_clean_linker_0, # of connection points: 2
#     Edge 28, Type (0, 1), BuildingBlock: AJUNOK_clean_linker_0, # of connection points: 2
#     Edge 29, Type (0, 1), BuildingBlock: AJUNOK_clean_linker_0, # of connection points: 2
#     Edge 30, Type (0, 1), BuildingBlock: AJUNOK_clean_linker_0, # of connection points: 2
#     Edge 31, Type (0, 1), BuildingBlock: AJUNOK_clean_linker_0, # of connection points: 2
#     Edge 32, Type (0, 1), BuildingBlock: AJUNOK_clean_linker_0, # of connection points: 2
#     Edge 33, Type (0, 1), BuildingBlock: AJUNOK_clean_linker_0, # of connection points: 2
#     Edge 34, Type (0, 1), BuildingBlock: AJUNOK_clean_linker_0, # of connection points: 2
#     Edge 35, Type (0, 1), BuildingBlock: AJUNOK_clean_linker_0, # of connection points: 2
#     Edge 36, Type (0, 1), BuildingBlock: AJUNOK_clean_linker_0, # of connection points: 2
#     Edge 37, Type (0, 1), BuildingBlock: AJUNOK_clean_linker_0, # of connection points: 2
#     Edge 38, Type (0, 1), BuildingBlock: AJUNOK_clean_linker_0, # of connection points: 2
#     Edge 39, Type (0, 1), BuildingBlock: AJUNOK_clean_linker_0, # of connection points: 2
#     Edge 40, Type (0, 1), BuildingBlock: AJUNOK_clean_linker_0, # of connection points: 2
#     Edge 41, Type (0, 1), BuildingBlock: AJUNOK_clean_linker_0, # of connection points: 2
#     Edge 42, Type (0, 1), BuildingBlock: AJUNOK_clean_linker_0, # of connection points: 2
#     Edge 43, Type (0, 1), BuildingBlock: AJUNOK_clean_linker_0, # of connection points: 2
#     Edge 44, Type (0, 1), BuildingBlock: AJUNOK_clean_linker_0, # of connection points: 2
#     Edge 45, Type (0, 1), BuildingBlock: AJUNOK_clean_linker_0, # of connection points: 2
#     Edge 46, Type (0, 1), BuildingBlock: AJUNOK_clean_linker_0, # of connection points: 2
#     Edge 47, Type (0, 1), BuildingBlock: AJUNOK_clean_linker_0, # of connection points: 2
#     Edge 48, Type (0, 1), BuildingBlock: AJUNOK_clean_linker_0, # of connection points: 2
#     Edge 49, Type (0, 1), BuildingBlock: AJUNOK_clean_linker_0, # of connection points: 2
#     Edge 50, Type (0, 1), BuildingBlock: AJUNOK_clean_linker_0, # of connection points: 2
#     Edge 51, Type (0, 1), BuildingBlock: AJUNOK_clean_linker_0, # of connection points: 2
#     Edge 52, Type (0, 1), BuildingBlock: AJUNOK_clean_linker_0, # of connection points: 2
#     Edge 53, Type (0, 1), BuildingBlock: AJUNOK_clean_linker_0, # of connection points: 2
#     Edge 54, Type (0, 1), BuildingBlock: AJUNOK_clean_linker_0, # of connection points: 2
#     Edge 55, Type (0, 1), BuildingBlock: AJUNOK_clean_linker_0, # of connection points: 2
#     Edge 56, Type (0, 1), BuildingBlock: AJUNOK_clean_linker_0, # of connection points: 2
#     Edge 57, Type (0, 1), BuildingBlock: AJUNOK_clean_linker_0, # of connection points: 2
#     Edge 58, Type (0, 1), BuildingBlock: AJUNOK_clean_linker_0, # of connection points: 2
#     Edge 59, Type (0, 1), BuildingBlock: AJUNOK_clean_linker_0, # of connection points: 2
#     Edge 60, Type (0, 1), BuildingBlock: AJUNOK_clean_linker_0, # of connection points: 2
#     Edge 61, Type (0, 1), BuildingBlock: AJUNOK_clean_linker_0, # of connection points: 2
#     Edge 62, Type (0, 1), BuildingBlock: AJUNOK_clean_linker_0, # of connection points: 2
#     Edge 63, Type (0, 1), BuildingBlock: AJUNOK_clean_linker_0, # of connection points: 2
#     Edge 64, Type (0, 1), BuildingBlock: AJUNOK_clean_linker_0, # of connection points: 2
#     Edge 65, Type (0, 1), BuildingBlock: AJUNOK_clean_linker_0, # of connection points: 2
#     Edge 66, Type (0, 1), BuildingBlock: AJUNOK_clean_linker_0, # of connection points: 2
#     Edge 67, Type (0, 1), BuildingBlock: AJUNOK_clean_linker_0, # of connection points: 2
#     Edge 68, Type (0, 1), BuildingBlock: AJUNOK_clean_linker_0, # of connection points: 2
#     Edge 69, Type (0, 1), BuildingBlock: AJUNOK_clean_linker_0, # of connection points: 2
#     Edge 70, Type (0, 1), BuildingBlock: AJUNOK_clean_linker_0, # of connection points: 2
#     Edge 71, Type (0, 1), BuildingBlock: AJUNOK_clean_linker_0, # of connection points: 2
#     Edge 72, Type (0, 1), BuildingBlock: AJUNOK_clean_linker_0, # of connection points: 2
#     Edge 73, Type (0, 1), BuildingBlock: AJUNOK_clean_linker_0, # of connection points: 2
#     Edge 74, Type (0, 1), BuildingBlock: AJUNOK_clean_linker_0, # of connection points: 2
#     Edge 75, Type (0, 1), BuildingBlock: AJUNOK_clean_linker_0, # of connection points: 2
#     Edge 76, Type (0, 1), BuildingBlock: AJUNOK_clean_linker_0, # of connection points: 2
#     Edge 77, Type (0, 1), BuildingBlock: AJUNOK_clean_linker_0, # of connection points: 2
#     Edge 78, Type (0, 1), BuildingBlock: AJUNOK_clean_linker_0, # of connection points: 2
#     Edge 79, Type (0, 1), BuildingBlock: AJUNOK_clean_linker_0, # of connection points: 2
#     Edge 80, Type (0, 1), BuildingBlock: AJUNOK_clean_linker_0, # of connection points: 2
# Relax obj value: 0.033
# Max RMSD: 0.162
# Mean RMSD: 0.087
data_MOF--net-eea--node1-CUKXOW_clean_sbu_0--node2-PAMTOO_clean_linker_0--edge1-AJUNOK_clean_linker_0
_symmetry_space_group_name_H-M    P1
_symmetry_Int_Tables_number       1
_symmetry_cell_setting            triclinic
loop_
_symmetry_equiv_pos_as_xyz
'x, y, z'
_cell_length_a     44.909488
_cell_length_b     41.021731
_cell_length_c     35.394856
_cell_angle_alpha  93.442335
_cell_angle_beta   93.358697
_cell_angle_gamma 119.97884
loop_
_atom_site_label
_atom_site_type_symbol
_atom_site_fract_x
_atom_site_fract_y
_atom_site_fract_z
_atom_type_partial_charge
H0 H 0.26364 0.07069 0.45866 0.0
H1 H 0.25775 0.17209 0.47609 0.0
H2 H 0.20349 0.09326 0.37685 0.0
H3 H 0.22625 0.16502 0.35723 0.0
C4 C 0.23336 0.18188 0.38544 0.0
O5 O 0.21765 0.15795 0.41292 0.0
H6 H 0.26197 0.19626 0.39171 0.0
C7 C 0.25458 0.08914 0.44916 0.0
C8 C 0.23342 0.07853 0.41471 0.0
C9 C 0.26371 0.12281 0.47169 0.0
C10 C 0.25077 0.14579 0.45943 0.0
C11 C 0.22906 0.1351 0.42527 0.0
C12 C 0.21997 0.10118 0.40333 0.0
H13 H 0.94413 0.21425 0.47064 0.0
H14 H 0.85616 0.10117 0.45683 0.0
H15 H 0.93521 0.13204 0.38173 0.0
H16 H 0.86882 0.07218 0.34026 0.0
C17 C 0.85402 0.06882 0.36523 0.0
O18 O 0.87589 0.07801 0.39815 0.0
H19 H 0.84352 0.08832 0.36387 0.0
C20 C 0.92996 0.18626 0.45522 0.0
C21 C 0.94334 0.17719 0.42378 0.0
C22 C 0.89857 0.15886 0.46732 0.0
C23 C 0.88024 0.12257 0.44755 0.0
C24 C 0.8933 0.11332 0.41644 0.0
C25 C 0.92493 0.14025 0.40503 0.0
H26 H 0.82706 0.7438 0.47518 0.0
H27 H 0.9275 0.75373 0.48856 0.0
H28 H 0.90138 0.80189 0.39715 0.0
H29 H 0.93257 0.75502 0.3752 0.0
C30 C 0.95058 0.76208 0.40133 0.0
O31 O 0.94743 0.78671 0.42677 0.0
H32 H 0.94347 0.73527 0.41405 0.0
C33 C 0.85268 0.75379 0.46637 0.0
C34 C 0.86207 0.77517 0.4353 0.0
C35 C 0.87597 0.74609 0.48658 0.0
C36 C 0.9085 0.7583 0.47341 0.0
C37 C 0.91698 0.77707 0.44041 0.0
C38 C 0.89401 0.786 0.42167 0.0
H39 H 0.083 0.28259 0.54667 0.0
H40 H 0.17591 0.2759 0.56371 0.0
H41 H 0.09748 0.22617 0.63858 0.0
H42 H 0.16755 0.25645 0.67731 0.0
C43 C 0.18087 0.25717 0.6516 0.0
O44 O 0.15672 0.23637 0.62109 0.0
H45 H 0.19665 0.28734 0.64605 0.0
C46 C 0.09901 0.27425 0.56253 0.0
C47 C 0.08727 0.25552 0.59533 0.0
C48 C 0.1312 0.2821 0.55049 0.0
C49 C 0.15075 0.26976 0.57138 0.0
C50 C 0.13833 0.24944 0.6026 0.0
C51 C 0.10675 0.24224 0.61442 0.0
H52 H 0.76714 0.81426 0.56099 0.0
H53 H 0.77922 0.9255 0.58009 0.0
H54 H 0.82335 0.8869 0.66378 0.0
H55 H 0.81198 0.94728 0.70108 0.0
C56 C 0.80186 0.95169 0.67363 0.0
O57 O 0.81723 0.94384 0.64456 0.0
H58 H 0.77339 0.93198 0.67024 0.0
C59 C 0.77653 0.84066 0.57868 0.0
C60 C 0.79544 0.84676 0.61424 0.0
C61 C 0.77128 0.86936 0.56527 0.0
C62 C 0.78382 0.90342 0.58888 0.0
C63 C 0.80283 0.90973 0.6239 0.0
C64 C 0.80855 0.88154 0.63651 0.0
H65 H 0.21546 0.94737 0.5642 0.0
H66 H 0.11031 0.85671 0.53558 0.0
H67 H 0.13982 0.92535 0.64273 0.0
H68 H 0.09976 0.84462 0.64829 0.0
C69 C 0.08205 0.83505 0.6215 0.0
O70 O 0.0897 0.86564 0.60134 0.0
H71 H 0.08637 0.8143 0.60456 0.0
C72 C 0.18907 0.93097 0.57111 0.0
C73 C 0.18063 0.94025 0.6061 0.0
C74 C 0.16382 0.90193 0.54456 0.0
C75 C 0.13017 0.87975 0.55511 0.0
C76 C 0.1218 0.88768 0.59086 0.0
C77 C 0.14674 0.91862 0.61575 0.0
H78 H 0.93803 0.4075 0.78717 0.0
H79 H 0.9231 0.50342 0.79838 0.0
H80 H 0.87372 0.42049 0.70153 0.0
H81 H 0.88401 0.48736 0.67806 0.0
C82 C 0.89457 0.50566 0.70553 0.0
O83 O 0.88207 0.48344 0.735 0.0
H84 H 0.92322 0.5193 0.70703 0.0
C85 C 0.92718 0.42377 0.77593 0.0
C86 C 0.90612 0.41049 0.74114 0.0
C87 C 0.93323 0.457 0.79717 0.0
C88 C 0.91825 0.47736 0.78289 0.0
C89 C 0.89674 0.46402 0.74852 0.0
C90 C 0.89038 0.43046 0.72806 0.0
H91 H 0.61766 0.52981 0.81783 0.0
H92 H 0.52071 0.42435 0.79952 0.0
H93 H 0.59048 0.45587 0.71413 0.0
H94 H 0.51117 0.40499 0.68535 0.0
C95 C 0.50383 0.39387 0.71329 0.0
O96 O 0.53346 0.40215 0.73563 0.0
H97 H 0.49061 0.40767 0.72683 0.0
C98 C 0.59919 0.50457 0.79975 0.0
C99 C 0.60771 0.49707 0.76369 0.0
C100 C 0.56728 0.47923 0.81281 0.0
C101 C 0.54534 0.4447 0.79051 0.0
C102 C 0.55418 0.43623 0.75561 0.0
C103 C 0.58473 0.46259 0.74185 0.0
H104 H 0.48761 0.06063 0.80386 0.0
H105 H 0.59216 0.08288 0.82172 0.0
H106 H 0.56215 0.12449 0.72769 0.0
H107 H 0.59541 0.08076 0.70643 0.0
C108 C 0.61347 0.08816 0.7326 0.0
O109 O 0.60987 0.11265 0.75785 0.0
H110 H 0.60659 0.06147 0.74547 0.0
C111 C 0.51374 0.07353 0.79587 0.0
C112 C 0.52187 0.09439 0.76423 0.0
C113 C 0.5389 0.07023 0.81814 0.0
C114 C 0.5719 0.08461 0.80551 0.0
C115 C 0.57931 0.10212 0.77172 0.0
C116 C 0.55491 0.10837 0.75203 0.0
H117 H 0.76062 0.62998 0.89159 0.0
H118 H 0.85743 0.63302 0.9112 0.0
H119 H 0.78277 0.58712 0.99145 0.0
H120 H 0.8564 0.61925 0.02736 0.0
C121 C 0.86766 0.61885 1.00029 0.0
O122 O 0.84146 0.59705 0.97191 0.0
H123 H 0.88301 0.64857 0.99325 0.0
C124 C 0.77807 0.62513 0.90965 0.0
C125 C 0.76722 0.60731 0.94308 0.0
C126 C 0.81092 0.63531 0.89845 0.0
C127 C 0.83283 0.62715 0.92056 0.0
C128 C 0.82225 0.60925 0.95361 0.0
C129 C 0.79008 0.60035 0.96536 0.0
H130 H 0.42827 0.14687 0.89425 0.0
H131 H 0.44926 0.26187 0.90212 0.0
H132 H 0.50118 0.22937 0.98374 0.0
H133 H 0.50001 0.29409 0.0195 0.0
C134 C 0.48555 0.29676 0.99445 0.0
O135 O 0.49469 0.28546 0.96167 0.0
H136 H 0.45746 0.27791 0.99696 0.0
C137 C 0.44155 0.17529 0.90873 0.0
C138 C 0.46486 0.18423 0.94142 0.0
C139 C 0.43558 0.2031 0.89444 0.0
C140 C 0.45321 0.24003 0.91301 0.0
C141 C 0.47698 0.24944 0.94487 0.0
C142 C 0.48289 0.22171 0.95884 0.0
H143 H 0.88806 0.27925 0.89838 0.0
H144 H 0.78307 0.18668 0.88466 0.0
H145 H 0.81846 0.26965 0.98161 0.0
H146 H 0.77408 0.19001 0.99864 0.0
C147 C 0.75801 0.17811 0.97078 0.0
O148 O 0.76596 0.20668 0.94767 0.0
H149 H 0.76417 0.15711 0.95762 0.0
C150 C 0.86302 0.26398 0.90912 0.0
C151 C 0.85679 0.27844 0.94286 0.0
C152 C 0.83658 0.231 0.88797 0.0
C153 C 0.80371 0.21212 0.90083 0.0
C154 C 0.79743 0.22572 0.93489 0.0
C155 C 0.82377 0.25902 0.95562 0.0
H156 H 0.60475 0.74436 0.12748 0.0
H157 H 0.5953 0.84372 0.14242 0.0
H158 H 0.54204 0.76285 0.04465 0.0
H159 H 0.56073 0.83693 0.02428 0.0
C160 C 0.56961 0.85257 0.0532 0.0
O161 O 0.55448 0.82733 0.07979 0.0
H162 H 0.5982 0.8655 0.05719 0.0
C163 C 0.59485 0.76187 0.11731 0.0
C164 C 0.57291 0.74975 0.08319 0.0
C165 C 0.60258 0.7953 0.13941 0.0
C166 C 0.58916 0.8175 0.12618 0.0
C167 C 0.56747 0.80586 0.09205 0.0
C168 C 0.55902 0.77179 0.07087 0.0
H169 H 0.28055 0.86776 0.14447 0.0
H170 H 0.1835 0.76369 0.11608 0.0
H171 H 0.2648 0.79393 0.04451 0.0
H172 H 0.19598 0.74065 1.00019 0.0
C173 C 0.18161 0.73572 0.02575 0.0
O174 O 0.20353 0.74146 0.05756 0.0
H175 H 0.17205 0.75609 0.02735 0.0
C176 C 0.26386 0.8425 0.12572 0.0
C177 C 0.27682 0.83455 0.0933 0.0
C178 C 0.23008 0.81741 0.13455 0.0
C179 C 0.20959 0.78371 0.11039 0.0
C180 C 0.22251 0.77519 0.07865 0.0
C181 C 0.25569 0.80069 0.06983 0.0
H182 H 0.15444 0.39741 0.13338 0.0
H183 H 0.25351 0.4048 0.14188 0.0
H184 H 0.22368 0.44654 0.0473 0.0
H185 H 0.26464 0.40956 0.02897 0.0
C186 C 0.28054 0.4169 0.05682 0.0
O187 O 0.27334 0.43935 0.08063 0.0
H188 H 0.27373 0.39004 0.06926 0.0
C189 C 0.17816 0.4042 0.12107 0.0
C190 C 0.18527 0.42158 0.08708 0.0
C191 C 0.20237 0.39769 0.14084 0.0
C192 C 0.23429 0.40906 0.12662 0.0
C193 C 0.24184 0.42665 0.09298 0.0
C194 C 0.21737 0.4327 0.07318 0.0
H195 H 0.43611 0.97878 0.22844 0.0
H196 H 0.5142 0.94679 0.23371 0.0
H197 H 0.43155 0.89775 0.30349 0.0
H198 H 0.49338 0.91297 0.34767 0.0
C199 C 0.51064 0.92174 0.32445 0.0
O200 O 0.49085 0.90585 0.28992 0.0
H201 H 0.52444 0.95324 0.32628 0.0
C202 C 0.44637 0.96197 0.23955 0.0
C203 C 0.429 0.93673 0.26648 0.0
C204 C 0.47692 0.9656 0.22666 0.0
C205 C 0.49124 0.94551 0.24329 0.0
C206 C 0.4755 0.92255 0.27198 0.0
C207 C 0.44406 0.91722 0.28256 0.0
H208 H 0.09877 0.47825 0.22788 0.0
H209 H 0.11537 0.59114 0.22827 0.0
H210 H 0.17026 0.5662 0.31426 0.0
H211 H 0.16539 0.62856 0.34618 0.0
C212 C 0.15084 0.63038 0.32066 0.0
O213 O 0.16076 0.61915 0.2885 0.0
H214 H 0.12292 0.61096 0.32339 0.0
C215 C 0.11129 0.50722 0.24084 0.0
C216 C 0.13484 0.51869 0.27372 0.0
C217 C 0.10431 0.53326 0.22422 0.0
C218 C 0.12065 0.57085 0.24082 0.0
C219 C 0.14453 0.58268 0.27309 0.0
C220 C 0.15188 0.55676 0.28915 0.0
H221 H 0.5559 0.62411 0.23924 0.0
H222 H 0.45198 0.52945 0.2148 0.0
H223 H 0.48125 0.60215 0.319 0.0
H224 H 0.44429 0.5245 0.33038 0.0
C225 C 0.42697 0.51191 0.30335 0.0
O226 O 0.43222 0.53999 0.28044 0.0
H227 H 0.4336 0.49189 0.2888 0.0
C228 C 0.52979 0.60725 0.24678 0.0
C229 C 0.52133 0.61754 0.28128 0.0
C230 C 0.50476 0.57647 0.22152 0.0
C231 C 0.47167 0.55372 0.23322 0.0
C232 C 0.46359 0.56261 0.2687 0.0
C233 C 0.48806 0.595 0.29213 0.0
Tb234 Tb 0.55097 0.0492 0.02162 0.0
C235 C 0.53072 0.96796 0.0416 0.0
Tb236 Tb 0.47343 0.99152 0.02625 0.0
O237 O 0.56345 0.05058 0.08256 0.0
O238 O 0.51412 0.03782 0.06152 0.0
O239 O 0.55371 0.99838 0.02661 0.0
C240 C 0.41155 0.94169 0.04735 0.0
O241 O 0.49948 0.96189 0.04796 0.0
C242 C 0.49296 0.99998 0.95734 0.0
C243 C 0.4946 0.0732 1.00386 0.0
O244 O 0.43184 0.93332 0.02991 0.0
O245 O 0.42586 0.97821 0.05235 0.0
O246 O 0.46144 0.98835 0.9648 0.0
O247 O 0.51035 1.00212 0.98746 0.0
O248 O 0.47082 0.04268 0.01834 0.0
O249 O 0.52622 0.07946 0.99991 0.0
C250 C 0.61331 0.0955 1.00001 0.0
O251 O 0.60021 0.1028 0.02884 0.0
O252 O 0.59107 0.06224 0.98315 0.0
C253 C 0.53216 0.03899 0.0909 0.0
Tb254 Tb 0.99107 0.51589 0.02041 0.0
C255 C 0.0704 0.57829 0.01736 0.0
Tb256 Tb 0.04575 0.49045 0.00922 0.0
O257 O 0.98881 0.502 0.07977 0.0
O258 O 0.03266 0.51686 0.053 0.0
O259 O 0.03789 0.57043 0.01817 0.0
C260 C 0.08888 0.46606 0.02835 0.0
O261 O 0.07954 0.55196 0.01632 0.0
C262 C 1.01437 0.48888 0.94294 0.0
C263 C 0.96556 0.42954 1.00387 0.0
O264 O 0.09522 0.49247 1.00617 0.0
O265 O 0.05849 0.45373 0.03993 0.0
O266 O 0.03878 0.48055 0.94651 0.0
O267 O 1.0101 0.49778 0.97598 0.0
O268 O 0.99767 0.43725 0.01372 0.0
O269 O 0.95776 0.45649 0.99995 0.0
C270 C 0.95171 0.54745 0.01265 0.0
O271 O 0.94872 0.52395 0.03716 0.0
O272 O 0.97667 0.55289 0.99244 0.0
C273 C 0.01888 0.50453 0.08271 0.0
Tb274 Tb 0.49038 0.51091 0.01415 0.0
C275 C 0.51751 0.45449 0.0078 0.0
Tb276 Tb 0.56848 0.54404 0.01069 0.0
O277 O 0.48088 0.48302 0.95625 0.0
O278 O 0.52607 0.53404 0.97314 0.0
O279 O 0.49316 0.46031 0.02047 0.0
C280 C 0.63047 0.56295 0.98859 0.0
O281 O 0.54707 0.48258 0.99824 0.0
C282 C 0.54996 0.54745 0.07888 0.0
C283 C 0.5406 0.60047 0.0198 0.0
O284 O 0.61653 0.54236 0.01596 0.0
O285 O 0.60965 0.57315 0.97381 0.0
O286 O 0.58049 0.57049 0.0692 0.0
O287 O 0.53319 0.52155 0.05211 0.0
O288 O 0.5662 0.59583 0.00884 0.0
O289 O 0.51025 0.57161 0.02623 0.0
C290 C 0.42642 0.48911 0.03181 0.0
O291 O 0.43812 0.50068 0.99961 0.0
O292 O 0.45092 0.49018 0.0542 0.0
C293 C 0.5106 0.50805 0.94641 0.0
Tb294 Tb 0.21961 0.3827 0.3571 0.0
C295 C 0.19393 0.29649 0.36456 0.0
Tb296 Tb 0.14095 0.32653 0.35471 0.0
O297 O 0.22651 0.37567 0.41732 0.0
O298 O 0.1804 0.36947 0.39354 0.0
O299 O 0.21938 0.32963 0.35681 0.0
C300 C 0.07821 0.28067 0.37592 0.0
O301 O 0.16193 0.28968 0.36716 0.0
C302 C 0.16351 0.34348 0.28791 0.0
C303 C 0.16547 0.41063 0.34078 0.0
O304 O 0.08738 0.28028 0.34184 0.0
O305 O 0.1045 0.30671 0.39813 0.0
O306 O 0.13147 0.33037 0.29433 0.0
O307 O 0.17993 0.34113 0.31695 0.0
O308 O 0.14058 0.37928 0.3528 0.0
O309 O 0.19727 0.41666 0.33816 0.0
C310 C 0.28487 0.42645 0.34158 0.0
O311 O 0.26894 0.43684 0.3647 0.0
O312 O 0.26391 0.3919 0.32719 0.0
C313 C 0.19506 0.36613 0.42314 0.0
Tb314 Tb 0.6606 0.85491 0.35802 0.0
C315 C 0.7395 0.91233 0.35577 0.0
Tb316 Tb 0.70889 0.82303 0.35367 0.0
O317 O 0.68326 0.88032 0.41623 0.0
O318 O 0.68031 0.83013 0.39531 0.0
O319 O 0.7078 0.90694 0.35126 0.0
C320 C 0.75861 0.8092 0.37723 0.0
O321 O 0.74554 0.88402 0.35898 0.0
C322 C 0.67779 0.8202 0.28777 0.0
C323 C 0.62994 0.76563 0.34764 0.0
O324 O 0.74694 0.80589 0.34191 0.0
O325 O 0.74173 0.81931 0.39883 0.0
O326 O 0.69046 0.79849 0.29481 0.0
O327 O 0.68756 0.84577 0.31528 0.0
O328 O 0.66099 0.7707 0.35819 0.0
O329 O 0.62493 0.7944 0.34227 0.0
C330 C 0.61362 0.87609 0.34703 0.0
O331 O 0.61275 0.85319 0.37129 0.0
O332 O 0.64084 0.8869 0.32908 0.0
C333 C 0.69177 0.85521 0.42309 0.0
Tb334 Tb 0.15302 0.8436 0.33769 0.0
C335 C 0.17962 0.78633 0.32943 0.0
Tb336 Tb 0.23087 0.87594 0.33368 0.0
O337 O 0.14253 0.81756 0.279 0.0
O338 O 0.18859 0.86777 0.29691 0.0
O339 O 0.15442 0.79173 0.34007 0.0
C340 C 0.29329 0.89741 0.31145 0.0
O341 O 0.21053 0.8146 0.32328 0.0
C342 C 0.21187 0.87779 0.40195 0.0
C343 C 0.20406 0.93304 0.3441 0.0
O344 O 0.28413 0.88831 0.34511 0.0
O345 O 0.26711 0.89392 0.29019 0.0
O346 O 0.24208 0.90189 0.39232 0.0
O347 O 0.19543 0.8523 0.37475 0.0
O348 O 0.22895 0.92783 0.33188 0.0
O349 O 0.17355 0.90443 0.35056 0.0
C350 C 0.09104 0.82341 0.36016 0.0
O351 O 0.10058 0.83398 0.32694 0.0
O352 O 0.11642 0.82425 0.38055 0.0
C353 C 0.17252 0.84246 0.26957 0.0
Tb354 Tb 0.87852 0.70509 0.685 0.0
C355 C 0.8553 0.62064 0.69386 0.0
Tb356 Tb 0.79952 0.64801 0.6837 0.0
O357 O 0.88815 0.70078 0.74548 0.0
O358 O 0.83963 0.68974 0.72304 0.0
O359 O 0.88027 0.65345 0.68483 0.0
C360 C 0.73621 0.60221 0.7037 0.0
O361 O 0.82306 0.61322 0.69678 0.0
C362 C 0.8224 0.66367 0.61717 0.0
C363 C 0.82465 0.73339 0.67051 0.0
O364 O 0.75178 0.59269 0.67929 0.0
O365 O 0.7565 0.63731 0.71706 0.0
O366 O 0.79055 0.6523 0.62329 0.0
O367 O 0.83818 0.66197 0.64686 0.0
O368 O 0.79869 0.70061 0.67882 0.0
O369 O 0.85667 0.73994 0.66963 0.0
C370 C 0.94062 0.75127 0.6624 0.0
O371 O 0.93074 0.75495 0.69543 0.0
O372 O 0.91554 0.72162 0.64241 0.0
C373 C 0.85603 0.68717 0.75185 0.0
Tb374 Tb 0.31945 0.17526 0.68628 0.0
C375 C 0.39827 0.23384 0.69146 0.0
Tb376 Tb 0.37031 0.14562 0.6844 0.0
O377 O 0.33758 0.2 0.74546 0.0
O378 O 0.34148 0.15372 0.72538 0.0
O379 O 0.36694 0.22714 0.67984 0.0
C380 C 0.41697 0.12552 0.7023 0.0
O381 O 0.40475 0.20661 0.69949 0.0
C382 C 0.341 0.14401 0.61746 0.0
C383 C 0.29076 0.08677 0.6739 0.0
O384 O 0.41847 0.14603 0.67513 0.0
O385 O 0.38933 0.11632 0.71903 0.0
O386 O 0.35416 0.12286 0.62454 0.0
O387 O 0.34901 0.16798 0.64581 0.0
O388 O 0.32192 0.09263 0.68523 0.0
O389 O 0.28486 0.11497 0.66883 0.0
C390 C 0.27245 0.19599 0.67292 0.0
O391 O 0.27113 0.17324 0.69757 0.0
O392 O 0.30006 0.20674 0.65563 0.0
C393 C 0.35042 0.17873 0.75308 0.0
Tb394 Tb 0.81783 0.17412 0.67156 0.0
C395 C 0.83931 0.11062 0.67697 0.0
Tb396 Tb 0.89475 0.19719 0.67642 0.0
O397 O 0.81823 0.18276 0.61045 0.0
O398 O 0.85094 0.16716 0.63693 0.0
O399 O 0.81497 0.11996 0.67929 0.0
C400 C 0.95695 0.22101 0.65247 0.0
O401 O 0.87198 0.13576 0.67258 0.0
C402 C 0.8694 0.1926 0.74194 0.0
C403 C 0.8731 0.26117 0.67746 0.0
O404 O 0.94983 0.216 0.68748 0.0
O405 O 0.92912 0.21272 0.6312 0.0
O406 O 0.89593 0.18853 0.73682 0.0
O407 O 0.86153 0.20303 0.7121 0.0
O408 O 0.89739 0.25217 0.67189 0.0
O409 O 0.84077 0.23511 0.6817 0.0
C410 C 0.754 0.14878 0.69125 0.0
O411 O 0.76432 0.16096 0.65871 0.0
O412 O 0.77946 0.15042 0.71218 0.0
C413 C 0.84419 0.17745 0.60661 0.0
C414 C 0.32329 0.90054 0.08421 0.0
C415 C 0.31218 0.86173 0.08358 0.0
C416 C 0.35562 0.92629 0.07281 0.0
C417 C 0.37797 0.91418 0.06016 0.0
H418 H 0.30654 0.91098 0.09273 0.0
H419 H 0.36287 0.95578 0.0733 0.0
S420 S 0.363 0.81652 0.05723 0.0
N421 N 0.32765 0.81321 0.07253 0.0
N422 N 0.38787 0.86136 0.05024 0.0
C423 C 0.36767 0.87573 0.06043 0.0
C424 C 0.33493 0.84958 0.07234 0.0
C425 C 0.17204 0.467 0.056 0.0
C426 C 0.16028 0.43084 0.06821 0.0
C427 C 0.14876 0.47781 0.04187 0.0
C428 C 0.11293 0.45309 0.04009 0.0
H429 H 0.1994 0.48765 0.05864 0.0
H430 H 0.15888 0.5062 0.03369 0.0
S431 S 0.06869 0.35381 0.06351 0.0
N432 N 0.11023 0.36892 0.07323 0.0
N433 N 0.06662 0.39001 0.04842 0.0
C434 C 0.10076 0.4165 0.05081 0.0
C435 C 0.1244 0.40518 0.06443 0.0
C436 C 0.58971 0.70612 0.05097 0.0
C437 C 0.56361 0.71313 0.06172 0.0
C438 C 0.58181 0.67021 0.03496 0.0
C439 C 0.5475 0.63966 0.02971 0.0
H440 H 0.61656 0.72834 0.05602 0.0
H441 H 0.60303 0.66602 0.0286 0.0
S442 S 0.46952 0.64431 0.05101 0.0
N443 N 0.50207 0.6875 0.06411 0.0
N444 N 0.48696 0.61997 0.03429 0.0
C445 C 0.52102 0.64691 0.03877 0.0
C446 C 0.52913 0.68362 0.05473 0.0
C447 C 0.87704 0.34458 0.97042 0.0
C448 C 0.8841 0.31523 0.96297 0.0
C449 C 0.9033 0.38099 0.98506 0.0
C450 C 0.93773 0.38953 0.99313 0.0
H451 H 0.85126 0.3398 0.96339 0.0
H452 H 0.89659 0.40284 0.98904 0.0
S453 S 0.96875 0.32103 0.9824 0.0
N454 N 0.92716 0.29596 0.96744 0.0
N455 N 0.97667 0.36424 0.99507 0.0
C456 C 0.94474 0.35977 0.98756 0.0
C457 C 0.91793 0.32272 0.97238 0.0
C458 C 0.71762 0.61865 0.95069 0.0
C459 C 0.73173 0.59489 0.95395 0.0
C460 C 0.68454 0.60784 0.96132 0.0
C461 C 0.66466 0.57323 0.97631 0.0
H462 H 0.73243 0.64611 0.94039 0.0
H463 H 0.67481 0.6271 0.95861 0.0
S464 S 0.68732 0.49868 0.98649 0.0
N465 N 0.72113 0.53313 0.96955 0.0
N466 N 0.65995 0.51405 0.99143 0.0
C467 C 0.67796 0.54888 0.9791 0.0
C468 C 0.71125 0.5594 0.96748 0.0
C469 C 0.50538 0.16309 0.96588 0.0
C470 C 0.47128 0.15508 0.95723 0.0
C471 C 0.51243 0.13671 0.98144 0.0
C472 C 0.48572 0.10114 0.98947 0.0
H473 H 0.52693 0.18992 0.96018 0.0
H474 H 0.53924 0.14444 0.98714 0.0
S475 S 0.39171 0.06647 0.97274 0.0
N476 N 0.41036 0.10924 0.95836 0.0
N477 N 0.42349 0.05951 0.98749 0.0
C478 C 0.45139 0.09283 0.98121 0.0
C479 C 0.44422 0.11973 0.96505 0.0
C480 C 0.69629 0.12505 0.95453 0.0
C481 C 0.72022 0.15883 0.97681 0.0
C482 C 0.66142 0.10537 0.96144 0.0
C483 C 0.64926 0.11893 0.99068 0.0
H484 H 0.70476 0.11328 0.93223 0.0
H485 H 0.64409 0.07887 0.94434 0.0
S486 S 0.70091 0.20841 0.054 0.0
N487 N 0.72894 0.20671 0.02693 0.0
N488 N 0.66344 0.16981 0.04007 0.0
C489 C 0.67262 0.15365 0.01188 0.0
C490 C 0.70809 0.17365 1.00481 0.0
C491 C 0.88725 0.5787 0.03305 0.0
C492 C 0.89074 0.60215 1.00421 0.0
C493 C 0.90707 0.56103 0.03554 0.0
C494 C 0.93083 0.56598 0.00911 0.0
H495 H 0.86893 0.57381 0.05368 0.0
H496 H 0.90371 0.54336 0.05832 0.0
S497 S 0.94788 0.62272 0.92686 0.0
N498 N 0.91851 0.62812 0.94784 0.0
N499 N 0.95584 0.59502 0.95241 0.0
C500 C 0.93419 0.58896 0.97984 0.0
C501 C 0.91405 0.60693 0.97737 0.0
C502 C 0.46891 0.34698 1.00241 0.0
C503 C 0.49423 0.33752 0.99511 0.0
C504 C 0.47679 0.38473 1.00623 0.0
C505 C 0.51039 0.4148 1.00297 0.0
H506 H 0.44279 0.32503 1.00571 0.0
H507 H 0.45618 0.39022 0.01193 0.0
S508 S 0.58611 0.40488 0.98383 0.0
N509 N 0.55427 0.36098 0.98484 0.0
N510 N 0.56921 0.43208 0.9915 0.0
C511 C 0.53594 0.40565 0.9952 0.0
C512 C 0.52786 0.36705 0.99151 0.0
C513 C 0.15599 0.66612 1.00618 0.0
C514 C 0.1519 0.69561 0.02234 0.0
C515 C 0.12951 0.62826 1.00471 0.0
C516 C 0.09796 0.61853 0.01935 0.0
H517 H 0.17997 0.67241 0.99483 0.0
H518 H 0.13377 0.6065 0.99181 0.0
S519 S 0.07561 0.68538 0.06737 0.0
N520 N 0.11493 0.71267 0.05526 0.0
N521 N 0.06488 0.64167 0.05217 0.0
C522 C 0.09376 0.64785 0.03605 0.0
C523 C 0.12086 0.68634 0.03778 0.0
C524 C 0.32982 0.45051 0.01643 0.0
C525 C 0.31855 0.43746 0.05162 0.0
C526 C 0.36494 0.46814 0.01066 0.0
C527 C 0.39005 0.47342 0.03988 0.0
H528 H 0.31131 0.44649 0.99298 0.0
H529 H 0.37234 0.47696 0.98282 0.0
S530 S 0.37406 0.44725 0.13828 0.0
N531 N 0.33529 0.43308 0.11676 0.0
N532 N 0.40136 0.46623 0.10602 0.0
C533 C 0.37923 0.46168 0.0756 0.0
C534 C 0.34347 0.44375 0.08145 0.0
C535 C 0.52476 0.87254 0.0462 0.0
C536 C 0.55942 0.88262 0.05546 0.0
C537 C 0.51522 0.90026 0.04366 0.0
C538 C 0.54014 0.93904 0.04977 0.0
H539 H 0.50507 0.84303 0.03967 0.0
H540 H 0.48845 0.89128 0.03512 0.0
S541 S 0.63364 0.98016 0.07937 0.0
N542 N 0.61813 0.93402 0.07432 0.0
N543 N 0.60036 0.98595 0.06901 0.0
C544 C 0.57457 0.94938 0.06084 0.0
C545 C 0.58419 0.92123 0.06383 0.0
C546 C 1.00613 0.22712 0.438 0.0
C547 C 0.97708 0.20543 0.41122 0.0
C548 C 0.0387 0.25184 0.4264 0.0
C549 C 0.04346 0.2555 0.38761 0.0
H550 H 1.0039 0.22427 0.46809 0.0
H551 H 0.06044 0.26757 0.44794 0.0
S552 S 0.97525 0.20824 0.30648 0.0
N553 N 0.95482 0.19194 0.34436 0.0
N554 N 0.01611 0.23738 0.32264 0.0
C555 C 1.01456 0.2348 0.36065 0.0
C556 C 0.98137 0.21003 0.37244 0.0
C557 C 0.82504 0.77765 0.38087 0.0
C558 C 0.8387 0.78761 0.41926 0.0
C559 C 0.7995 0.78541 0.36701 0.0
C560 C 0.78694 0.80325 0.39121 0.0
H561 H 0.83324 0.76263 0.36187 0.0
H562 H 0.78888 0.77649 0.3375 0.0
S563 S 0.8178 0.83918 0.49287 0.0
N564 N 0.84035 0.81931 0.48024 0.0
N565 N 0.79234 0.83361 0.45449 0.0
C566 C 0.80161 0.81482 0.4292 0.0
C567 C 0.82754 0.80709 0.44315 0.0
C568 C 0.19182 0.01371 0.38252 0.0
C569 C 0.22594 0.04376 0.39094 0.0
C570 C 0.18483 0.97854 0.36525 0.0
C571 C 0.21169 0.97225 0.35539 0.0
H572 H 0.17053 0.0168 0.39111 0.0
H573 H 0.1582 0.95571 0.361 0.0
S574 S 0.30545 0.04392 0.36792 0.0
N575 N 0.28665 0.0664 0.38553 0.0
N576 N 0.27383 1.00073 0.3528 0.0
C577 C 0.24585 1.00308 0.36154 0.0
C578 C 0.25288 0.03868 0.37946 0.0
C579 C 0.58074 0.66064 0.3141 0.0
C580 C 0.54702 0.65333 0.30425 0.0
C581 C 0.60696 0.69645 0.33037 0.0
C582 C 0.60056 0.72652 0.33697 0.0
H583 H 0.58717 0.63881 0.30798 0.0
H584 H 0.63279 0.70097 0.33602 0.0
S585 S 0.51571 0.72096 0.31848 0.0
N586 N 0.50801 0.67818 0.30406 0.0
N587 N 0.55702 0.74547 0.33474 0.0
C588 C 0.56642 0.71893 0.32892 0.0
C589 C 0.53972 0.68236 0.31256 0.0
C590 C 0.38744 0.92469 0.31561 0.0
C591 C 0.39489 0.92975 0.27754 0.0
C592 C 0.35461 0.91456 0.32628 0.0
C593 C 0.328 0.90961 0.29947 0.0
H594 H 0.40707 0.92827 0.33744 0.0
H595 H 0.35004 0.91036 0.35579 0.0
S596 S 0.33439 0.92228 0.19686 0.0
N597 N 0.37275 0.93 0.21316 0.0
N598 N 0.31158 0.91279 0.23375 0.0
C599 C 0.33527 0.916 0.26167 0.0
C600 C 0.36859 0.92573 0.2506 0.0
C601 C 0.17616 0.49939 0.30013 0.0
C602 C 0.14194 0.49118 0.29196 0.0
C603 C 0.18349 0.47365 0.31679 0.0
C604 C 0.15691 0.43876 0.32646 0.0
H605 H 0.19746 0.52564 0.29286 0.0
H606 H 0.21029 0.4811 0.32167 0.0
S607 S 0.06281 0.40489 0.31276 0.0
N608 N 0.08126 0.44661 0.2961 0.0
N609 N 0.09472 0.39816 0.32743 0.0
C610 C 0.12252 0.43067 0.3192 0.0
C611 C 0.11512 0.45682 0.30191 0.0
C612 C 0.36701 0.45456 0.29506 0.0
C613 C 0.38996 0.49129 0.31243 0.0
C614 C 0.33303 0.43412 0.30461 0.0
C615 C 0.32063 0.44971 0.33168 0.0
H616 H 0.37553 0.44129 0.27435 0.0
H617 H 0.31643 0.4057 0.29079 0.0
S618 S 0.36986 0.54598 0.38321 0.0
N619 N 0.39764 0.54326 0.35645 0.0
N620 N 0.33355 0.50485 0.37436 0.0
C621 C 0.34299 0.48686 0.34841 0.0
C622 C 0.37769 0.50767 0.33872 0.0
C623 C 0.53352 0.88363 0.35543 0.0
C624 C 0.53694 0.90946 0.32925 0.0
C625 C 0.55844 0.87286 0.36093 0.0
C626 C 0.58748 0.88741 0.34028 0.0
H627 H 0.5116 0.87194 0.37202 0.0
H628 H 0.55499 0.85313 0.3816 0.0
S629 S 0.6072 0.95445 0.26691 0.0
N630 N 0.57069 0.9483 0.28163 0.0
N631 N 0.61754 0.928 0.29163 0.0
C632 C 0.59077 0.91266 0.31343 0.0
C633 C 0.56544 0.92365 0.30795 0.0
C634 C 0.1919 0.70113 0.3313 0.0
C635 C 0.15839 0.67057 0.31988 0.0
C636 C 0.19894 0.7387 0.33334 0.0
C637 C 0.17262 0.74691 0.32432 0.0
H638 H 0.21261 0.69586 0.33951 0.0
H639 H 0.22489 0.76134 0.34318 0.0
S640 S 0.08172 0.67723 0.28777 0.0
N641 N 0.09961 0.65122 0.29558 0.0
N642 N 0.11255 0.72154 0.29994 0.0
C643 C 0.13939 0.71664 0.3112 0.0
C644 C 0.13238 0.67855 0.30871 0.0
C645 C 0.79043 0.01971 0.35963 0.0
C646 C 0.82499 0.02832 0.36335 0.0
C647 C 0.76313 0.9822 0.35693 0.0
C648 C 0.76923 0.95171 0.35788 0.0
H649 H 0.7844 0.04215 0.3587 0.0
H650 H 0.737 0.97725 0.35422 0.0
S651 S 0.85561 0.9597 0.36742 0.0
N652 N 0.86416 1.00381 0.36769 0.0
N653 N 0.81306 0.93322 0.3631 0.0
C654 C 0.80387 0.96009 0.36169 0.0
C655 C 0.83164 0.99837 0.36426 0.0
C656 C 0.99553 0.79026 0.35506 0.0
C657 C 0.98731 0.77967 0.39177 0.0
C658 C 0.0294 0.80518 0.3453 0.0
C659 C 0.05615 0.81007 0.37194 0.0
H660 H 0.97556 0.78646 0.33357 0.0
H661 H 0.03449 0.81229 0.31649 0.0
S662 S 0.04838 0.78943 0.47268 0.0
N663 N 1.00874 0.77694 0.45538 0.0
N664 N 0.07252 0.80511 0.43719 0.0
C665 C 0.04845 0.80067 0.40908 0.0
C666 C 1.01398 0.78548 0.41897 0.0
C667 C 0.24697 0.24932 0.38381 0.0
C668 C 0.222 0.21084 0.38322 0.0
C669 C 0.23746 0.27651 0.37806 0.0
C670 C 0.20251 0.26648 0.37138 0.0
H671 H 0.27423 0.2585 0.38812 0.0
H672 H 0.25791 0.30571 0.37874 0.0
S673 S 0.12704 0.16914 0.36708 0.0
N674 N 0.16086 0.16379 0.37534 0.0
N675 N 0.14273 0.21492 0.365 0.0
C676 C 0.17717 0.22805 0.37128 0.0
C677 C 0.18698 0.20026 0.37695 0.0
C678 C 0.65961 0.51183 0.72881 0.0
C679 C 0.64052 0.52477 0.74864 0.0
C680 C 0.68997 0.53697 0.71343 0.0
C681 C 0.70289 0.57615 0.71791 0.0
H682 H 0.6513 0.48199 0.72545 0.0
H683 H 0.70389 0.52566 0.69878 0.0
S684 S 0.66234 0.62492 0.76545 0.0
N685 N 0.63612 0.57968 0.76976 0.0
N686 N 0.69414 0.62691 0.74262 0.0
C687 C 0.68427 0.58964 0.73755 0.0
C688 C 0.65293 0.564 0.75255 0.0
C689 C 0.47649 0.11209 0.77044 0.0
C690 C 0.49618 0.10339 0.74658 0.0
C691 C 0.45079 0.11876 0.75557 0.0
C692 C 0.44447 0.11843 0.71628 0.0
H693 H 0.48086 0.11376 0.8011 0.0
H694 H 0.43604 0.12475 0.77512 0.0
S695 S 0.48839 0.09786 0.64102 0.0
N696 N 0.50679 0.09424 0.68112 0.0
N697 N 0.45975 0.10951 0.65343 0.0
C698 C 0.46439 0.11103 0.6919 0.0
C699 C 0.49002 0.10298 0.70698 0.0
C700 C 0.86481 0.34628 0.70773 0.0
C701 C 0.89905 0.37458 0.71975 0.0
C702 C 0.857 0.3105 0.69167 0.0
C703 C 0.88309 0.30143 0.68693 0.0
H704 H 0.84367 0.35118 0.71238 0.0
H705 H 0.83003 0.2893 0.68442 0.0
S706 S 0.97747 0.36776 0.70875 0.0
N707 N 0.95965 0.39285 0.7219 0.0
N708 N 0.9451 0.32547 0.69211 0.0
C709 C 0.91769 0.33038 0.69653 0.0
C710 C 0.92561 0.36689 0.71296 0.0
C711 C 0.2011 1.00478 0.63839 0.0
C712 C 0.20703 0.97466 0.63045 0.0
C713 C 0.22798 0.04044 0.65423 0.0
C714 C 0.26183 0.04732 0.66297 0.0
H715 H 0.17599 1.00138 0.63026 0.0
H716 H 0.22237 0.06314 0.65825 0.0
S717 S 0.28935 0.97583 0.65186 0.0
N718 N 0.24802 0.95261 0.63563 0.0
N719 N 0.29863 0.01936 0.66557 0.0
C720 C 0.26742 0.01653 0.65744 0.0
C721 C 0.24003 0.98032 0.6411 0.0
C722 C 0.02412 0.23465 0.58524 0.0
C723 C 0.05468 0.24946 0.60996 0.0
C724 C 0.99269 0.22626 0.5992 0.0
C725 C 0.9907 0.23216 0.63835 0.0
H726 H 0.02427 0.22851 0.55508 0.0
H727 H 0.96965 0.21418 0.57926 0.0
S728 S 0.06385 0.27443 0.71427 0.0
N729 N 0.08145 0.27301 0.67499 0.0
N730 N 0.02224 0.25617 0.70118 0.0
C731 C 0.02117 0.24803 0.66316 0.0
C732 C 0.05319 0.25696 0.64896 0.0
C733 C 0.77625 0.78109 0.63214 0.0
C734 C 0.80307 0.81784 0.62793 0.0
C735 C 0.78326 0.75432 0.64715 0.0
C736 C 0.81741 0.76318 0.65818 0.0
H737 H 0.74964 0.77315 0.6242 0.0
H738 H 0.76176 0.72628 0.64944 0.0
S739 S 0.89686 0.85563 0.65151 0.0
N740 N 0.86495 0.86154 0.63498 0.0
N741 N 0.87835 0.81191 0.66329 0.0
C742 C 0.84442 0.79999 0.65385 0.0
C743 C 0.8372 0.82709 0.6387 0.0
C744 C 0.03695 0.82144 0.66744 0.0
C745 C 0.04493 0.81598 0.63057 0.0
C746 C 1.00291 0.80126 0.67725 0.0
C747 C 0.97567 0.77497 0.6505 0.0
H748 H 0.05731 0.84068 0.68915 0.0
H749 H 0.99811 0.80553 0.70625 0.0
S750 S 0.98251 0.75368 0.54904 0.0
N751 N 0.02254 0.7849 0.56649 0.0
N752 N 0.95862 0.74692 0.58473 0.0
C753 C 0.9831 0.77063 0.61308 0.0
C754 C 0.01771 0.79124 0.60313 0.0
C755 C 0.23328 0.25306 0.63779 0.0
C756 C 0.20406 0.24094 0.65788 0.0
C757 C 0.25499 0.23791 0.64248 0.0
C758 C 0.24807 0.20991 0.66722 0.0
H759 H 0.23946 0.27455 0.61843 0.0
H760 H 0.27751 0.24849 0.62684 0.0
S761 S 0.17308 0.16636 0.72387 0.0
N762 N 0.16803 0.19774 0.7015 0.0
N763 N 0.20894 0.16932 0.71061 0.0
C764 C 0.21839 0.1968 0.68669 0.0
C765 C 0.19627 0.21222 0.68183 0.0
C766 C 0.84454 0.02167 0.68632 0.0
C767 C 0.81055 0.99238 0.67465 0.0
C768 C 0.85364 0.05982 0.68703 0.0
C769 C 0.82899 0.07008 0.67637 0.0
H770 H 0.86426 0.01497 0.69489 0.0
H771 H 0.88014 0.08138 0.69629 0.0
S772 S 0.73678 1.00385 0.64143 0.0
N773 N 0.7525 0.97606 0.65055 0.0
N774 N 0.76925 0.04753 0.65233 0.0
C775 C 0.7949 0.04094 0.66432 0.0
C776 C 0.7858 1.00216 0.66324 0.0
C777 C 0.4551 0.33641 0.67472 0.0
C778 C 0.47867 0.35167 0.7077 0.0
C779 C 0.42946 0.29807 0.6694 0.0
C780 C 0.4267 0.27347 0.69669 0.0
H781 H 0.45616 0.35446 0.65308 0.0
H782 H 0.4116 0.2876 0.64377 0.0
S783 S 0.47955 0.29931 0.78958 0.0
N784 N 0.49555 0.33928 0.76956 0.0
N785 N 0.44821 0.26691 0.75858 0.0
C786 C 0.44982 0.28814 0.72987 0.0
C787 C 0.47548 0.32737 0.73574 0.0
C788 C 0.65816 0.11469 0.6857 0.0
C789 C 0.65022 0.10585 0.72294 0.0
C790 C 0.69196 0.12909 0.67577 0.0
C791 C 0.71891 0.13503 0.70272 0.0
H792 H 0.63803 0.10993 0.66394 0.0
H793 H 0.69686 0.13503 0.64665 0.0
S794 S 0.71188 0.11887 0.80473 0.0
N795 N 0.67214 0.10575 0.78724 0.0
N796 N 0.73572 0.13285 0.76877 0.0
C797 C 0.71145 0.12722 0.74031 0.0
C798 C 0.67708 0.11265 0.75038 0.0
C799 C 0.85016 0.52521 0.69156 0.0
C800 C 0.88376 0.53508 0.70623 0.0
C801 C 0.84048 0.55279 0.68891 0.0
C802 C 0.86424 0.59115 0.70056 0.0
H803 H 0.83156 0.49611 0.68112 0.0
H804 H 0.81473 0.54423 0.67635 0.0
S805 S 0.95366 0.63066 0.74619 0.0
N806 N 0.9394 0.58506 0.7365 0.0
N807 N 0.92157 0.63692 0.73105 0.0
C808 C 0.8973 0.60099 0.71712 0.0
C809 C 0.90695 0.57292 0.72018 0.0
C810 C 0.47033 0.98693 0.16321 0.0
C811 C 0.49223 0.98808 0.19412 0.0
C812 C 0.48365 1.0051 0.13086 0.0
C813 C 0.51918 0.024 0.12725 0.0
H814 H 0.44252 0.97099 0.16337 0.0
H815 H 0.46591 1.00367 0.10822 0.0
S816 S 0.58824 0.0403 0.20174 0.0
N817 N 0.55195 0.01455 0.22086 0.0
N818 N 0.57656 0.04616 0.15874 0.0
C819 C 0.54159 0.02682 0.15838 0.0
C820 C 0.52819 1.00932 0.19197 0.0
C821 C 0.09429 0.5239 0.15333 0.0
C822 C 0.08101 0.52188 0.18859 0.0
C823 C 0.07355 0.51682 0.11914 0.0
C824 C 0.03874 0.50733 0.11902 0.0
H825 H 0.12117 0.53205 0.15223 0.0
H826 H 0.08521 0.51989 0.09268 0.0
S827 S 0.99148 0.49643 0.20431 0.0
N828 N 0.03099 0.50847 0.22171 0.0
N829 N 0.99166 0.49464 0.15756 0.0
C830 C 0.02491 0.50394 0.15423 0.0
C831 C 0.04616 0.51142 0.18901 0.0
C832 C 0.50231 0.53159 0.16745 0.0
C833 C 0.51353 0.56886 0.18309 0.0
C834 C 0.51306 0.52453 0.13285 0.0
C835 C 0.53612 0.5545 0.11333 0.0
H836 H 0.48599 0.50774 0.18256 0.0
H837 H 0.50441 0.49557 0.12213 0.0
S838 S 0.56885 0.65661 0.13853 0.0
N839 N 0.54461 0.63555 0.17254 0.0
N840 N 0.56753 0.62239 0.11019 0.0
C841 C 0.54651 0.59163 0.12783 0.0
C842 C 0.53451 0.59877 0.16198 0.0
C843 C 0.9868 0.47072 0.83712 0.0
C844 C 0.95491 0.46955 0.83439 0.0
C845 C 1.00618 0.47838 0.87233 0.0
C846 C 0.99454 0.48518 0.90635 0.0
H847 H 0.99659 0.46496 0.81184 0.0
H848 H 0.03021 0.47812 0.8729 0.0
S849 S 0.91295 0.48598 0.91477 0.0
N850 N 0.91274 0.4765 0.86871 0.0
N851 N 0.9493 0.49099 0.93491 0.0
C852 C 0.96319 0.48523 0.90399 0.0
C853 C 0.94338 0.47743 0.868 0.0
C854 C 0.53603 0.45932 0.87152 0.0
C855 C 0.55595 0.48845 0.84896 0.0
C856 C 0.52132 0.46587 0.90282 0.0
C857 C 0.52698 0.5021 0.91382 0.0
H858 H 0.53129 0.43093 0.86475 0.0
H859 H 0.50561 0.4424 0.91872 0.0
S860 S 0.57789 0.58873 0.86654 0.0
N861 N 0.58021 0.55537 0.84064 0.0
N862 N 0.55473 0.56786 0.90141 0.0
C863 C 0.54801 0.53191 0.89303 0.0
C864 C 0.56207 0.5251 0.86024 0.0
C865 C 0.50776 0.06019 0.87656 0.0
C866 C 0.53021 0.05365 0.85522 0.0
C867 C 0.4958 0.04242 0.90928 0.0
C868 C 0.50729 0.01908 0.92353 0.0
H869 H 0.49878 0.0789 0.86774 0.0
H870 H 0.47747 0.04721 0.92361 0.0
S871 S 0.56752 0.99398 0.88123 0.0
N872 N 0.56359 0.02164 0.85171 0.0
N873 N 0.54341 0.99126 0.91576 0.0
C874 C 0.53109 0.01367 0.9042 0.0
C875 C 0.54219 0.03042 0.8696 0.0
C876 C 0.16437 0.29284 0.49326 0.0
C877 C 0.14497 0.3028 0.51638 0.0
C878 C 0.1807 0.31371 0.46343 0.0
C879 C 0.17702 0.34434 0.45423 0.0
H880 H 0.16739 0.26884 0.49837 0.0
H881 H 0.19612 0.30557 0.44727 0.0
S882 S 0.1287 0.38217 0.50381 0.0
N883 N 0.12379 0.34662 0.52753 0.0
N884 N 0.15206 0.38343 0.469 0.0
C885 C 0.1567 0.3539 0.47561 0.0
C886 C 0.14112 0.33362 0.50714 0.0
C887 C 0.72235 0.83048 0.5136 0.0
C888 C 0.75309 0.86448 0.52675 0.0
C889 C 0.70317 0.82699 0.47912 0.0
C890 C 0.71372 0.85759 0.45709 0.0
H891 H 0.71239 0.80685 0.53065 0.0
H892 H 0.67923 0.80075 0.47047 0.0
S893 S 0.79504 0.94997 0.47462 0.0
N894 N 0.79567 0.92712 0.51124 0.0
N895 N 0.75838 0.92117 0.44819 0.0
C896 C 0.74503 0.89094 0.4688 0.0
C897 C 0.76504 0.89421 0.50317 0.0
C898 C 0.16186 0.85883 0.48899 0.0
C899 C 0.17314 0.89565 0.50601 0.0
C900 C 0.17356 0.85299 0.45456 0.0
C901 C 0.19746 0.88374 0.43648 0.0
H902 H 0.14478 0.83438 0.50294 0.0
H903 H 0.16485 0.8243 0.44279 0.0
S904 S 0.23097 0.98534 0.46582 0.0
N905 N 0.20559 0.96301 0.49855 0.0
N906 N 0.22978 0.95199 0.43623 0.0
C907 C 0.20791 0.92048 0.45235 0.0
C908 C 0.19514 0.92644 0.48644 0.0
C909 C 0.65408 0.80467 0.18105 0.0
C910 C 0.62314 0.80558 0.17718 0.0
C911 C 0.67211 0.81072 0.21694 0.0
C912 C 0.66011 0.81829 0.25031 0.0
H913 H 0.66414 0.79861 0.15617 0.0
H914 H 0.69542 0.80896 0.21864 0.0
S915 S 0.57879 0.82019 0.25595 0.0
N916 N 0.58035 0.81259 0.21 0.0
N917 N 0.61425 0.82394 0.27717 0.0
C918 C 0.62933 0.81941 0.24681 0.0
C919 C 0.61087 0.81311 0.21031 0.0
C920 C 0.19519 0.79509 0.1904 0.0
C921 C 0.21637 0.82519 0.1695 0.0
C922 C 0.18087 0.80093 0.22244 0.0
C923 C 0.18797 0.83726 0.23571 0.0
H924 H 0.18968 0.76662 0.18216 0.0
H925 H 0.16459 0.77685 0.23735 0.0
S926 S 0.24087 0.92579 0.19205 0.0
N927 N 0.24225 0.89285 0.16427 0.0
N928 N 0.21723 0.90383 0.22621 0.0
C929 C 0.20948 0.86778 0.21595 0.0
C930 C 0.22327 0.86178 0.18251 0.0
C931 C 0.16404 0.34831 0.18142 0.0
C932 C 0.19505 0.38196 0.17801 0.0
C933 C 0.15492 0.33543 0.21714 0.0
C934 C 0.1765 0.35557 0.25071 0.0
H935 H 0.14637 0.33232 0.15637 0.0
H936 H 0.1304 0.30985 0.21857 0.0
S937 S 0.25877 0.44739 0.25692 0.0
N938 N 0.24637 0.43617 0.21095 0.0
N939 N 0.22918 0.4122 0.27785 0.0
C940 C 0.20762 0.38914 0.24746 0.0
C941 C 0.21691 0.40226 0.21114 0.0
C942 C 0.85034 0.68493 0.85848 0.0
C943 C 0.82067 0.64973 0.86113 0.0
C944 C 0.86109 0.69715 0.82285 0.0
C945 C 0.8425 0.67463 0.78877 0.0
H946 H 0.8655 0.70286 0.88409 0.0
H947 H 0.88427 0.72429 0.82195 0.0
S948 S 0.7665 0.57744 0.78145 0.0
N949 N 0.77495 0.59115 0.82745 0.0
N950 N 0.79519 0.61364 0.76085 0.0
C951 C 0.81322 0.63909 0.79139 0.0
C952 C 0.8023 0.62675 0.82752 0.0
C953 C 0.41871 0.18166 0.82472 0.0
C954 C 0.41203 0.19435 0.85924 0.0
C955 C 0.39853 0.17635 0.79052 0.0
C956 C 0.37048 0.18262 0.78964 0.0
H957 H 0.44057 0.17731 0.82391 0.0
H958 H 0.40618 0.16935 0.76446 0.0
S959 S 0.34203 0.21569 0.87247 0.0
N960 N 0.37548 0.21316 0.89055 0.0
N961 N 0.3372 0.20239 0.82647 0.0
C962 C 0.3635 0.1952 0.82404 0.0
C963 C 0.38424 0.20105 0.85878 0.0
C964 C 0.82586 0.21831 0.8173 0.0
C965 C 0.84304 0.21758 0.85138 0.0
C966 C 0.83403 0.20931 0.78202 0.0
C967 C 0.85911 0.19842 0.77961 0.0
H968 H 0.80691 0.22728 0.8179 0.0
H969 H 0.82127 0.21199 0.75651 0.0
S970 S 0.90957 0.18963 0.86117 0.0
N971 N 0.88517 0.204 0.88104 0.0
N972 N 0.89982 0.18573 0.81477 0.0
C973 C 0.87551 0.19622 0.81368 0.0
C974 C 0.86764 0.20614 0.84957 0.0
C975 C 0.27664 0.14325 0.54213 0.0
C976 C 0.28621 0.13299 0.50817 0.0
C977 C 0.29524 0.14821 0.57747 0.0
C978 C 0.32389 0.14298 0.58005 0.0
H979 H 0.25377 0.14583 0.5416 0.0
H980 H 0.28604 0.15425 0.60299 0.0
S981 S 0.36213 0.12077 0.49945 0.0
N982 N 0.32854 0.12174 0.47928 0.0
N983 N 0.36257 0.12987 0.54562 0.0
C984 C 0.3345 0.13421 0.54629 0.0
C985 C 0.31595 0.12962 0.51038 0.0
C986 C 0.88897 0.14955 0.53504 0.0
C987 C 0.8862 0.1664 0.50272 0.0
C988 C 0.87548 0.1537 0.56843 0.0
C989 C 0.85843 0.17461 0.5707 0.0
H990 H 0.9014 0.13271 0.53434 0.0
H991 H 0.87806 0.13988 0.59251 0.0
S992 S 0.8447 0.22448 0.49365 0.0
N993 N 0.86566 0.20503 0.47468 0.0
N994 N 0.83985 0.21267 0.53766 0.0
C995 C 0.8556 0.19176 0.53855 0.0
C996 C 0.86969 0.18778 0.5045 0.0
C997 C 0.84518 0.73422 0.54527 0.0
C998 C 0.86586 0.72666 0.5219 0.0
C999 C 0.83107 0.71334 0.57566 0.0
C1000 C 0.83892 0.68584 0.5858 0.0
H1001 H 0.83901 0.75595 0.53963 0.0
H1002 H 0.81372 0.71877 0.59123 0.0
S1003 S 0.89288 0.65576 0.53636 0.0
N1004 N 0.89317 0.68872 0.51148 0.0
N1005 N 0.8695 0.65252 0.57181 0.0
C1006 C 0.861 0.67915 0.56448 0.0
C1007 C 0.87403 0.69905 0.53197 0.0
loop_
_geom_bond_atom_site_label_1
_geom_bond_atom_site_label_2
_geom_bond_distance
_geom_bond_site_symmetry_2
_ccdc_geom_bond_type
H0 C7 0.929 . S
H1 C10 0.930 . S
H2 C12 0.929 . S
H3 C4 0.969 . S
C4 H3 0.969 . S
C4 O5 1.550 . S
C4 H6 0.973 . S
O5 C4 1.550 . S
O5 C11 1.412 . S
H6 C4 0.973 . S
C7 H0 0.929 . S
C7 C8 1.400 . S
C7 C9 1.364 . S
C8 C7 1.400 . S
C8 C12 1.377 . S
C9 C7 1.364 . S
C9 C10 1.374 . S
C10 H1 0.930 . S
C10 C9 1.374 . S
C10 C11 1.383 . S
C11 O5 1.412 . S
C11 C10 1.383 . S
C11 C12 1.394 . S
C12 H2 0.929 . S
C12 C8 1.377 . S
C12 C11 1.394 . S
H13 C20 0.929 . S
H14 C23 0.930 . S
H15 C25 0.929 . S
H16 C17 0.969 . S
C17 H16 0.969 . S
C17 O18 1.550 . S
C17 H19 0.973 . S
O18 C17 1.550 . S
O18 C24 1.412 . S
H19 C17 0.973 . S
C20 H13 0.929 . S
C20 C21 1.400 . S
C20 C22 1.364 . S
C21 C20 1.400 . S
C21 C25 1.377 . S
C22 C20 1.364 . S
C22 C23 1.374 . S
C23 H14 0.930 . S
C23 C22 1.374 . S
C23 C24 1.383 . S
C24 O18 1.412 . S
C24 C23 1.383 . S
C24 C25 1.394 . S
C25 H15 0.929 . S
C25 C21 1.377 . S
C25 C24 1.394 . S
H26 C33 0.929 . S
H27 C36 0.930 . S
H28 C38 0.929 . S
H29 C30 0.969 . S
C30 H29 0.969 . S
C30 O31 1.550 . S
C30 H32 0.973 . S
O31 C30 1.550 . S
O31 C37 1.412 . S
H32 C30 0.973 . S
C33 H26 0.929 . S
C33 C34 1.400 . S
C33 C35 1.364 . S
C34 C33 1.400 . S
C34 C38 1.377 . S
C35 C33 1.364 . S
C35 C36 1.374 . S
C36 H27 0.930 . S
C36 C35 1.374 . S
C36 C37 1.383 . S
C37 O31 1.412 . S
C37 C36 1.383 . S
C37 C38 1.394 . S
C38 H28 0.929 . S
C38 C34 1.377 . S
C38 C37 1.394 . S
H39 C46 0.929 . S
H40 C49 0.930 . S
H41 C51 0.929 . S
H42 C43 0.969 . S
C43 H42 0.969 . S
C43 O44 1.550 . S
C43 H45 0.973 . S
O44 C43 1.550 . S
O44 C50 1.412 . S
H45 C43 0.973 . S
C46 H39 0.929 . S
C46 C47 1.400 . S
C46 C48 1.364 . S
C47 C46 1.400 . S
C47 C51 1.377 . S
C48 C46 1.364 . S
C48 C49 1.374 . S
C49 H40 0.930 . S
C49 C48 1.374 . S
C49 C50 1.383 . S
C50 O44 1.412 . S
C50 C49 1.383 . S
C50 C51 1.394 . S
C51 H41 0.929 . S
C51 C47 1.377 . S
C51 C50 1.394 . S
H52 C59 0.929 . S
H53 C62 0.930 . S
H54 C64 0.929 . S
H55 C56 0.969 . S
C56 H55 0.969 . S
C56 O57 1.550 . S
C56 H58 0.973 . S
O57 C56 1.550 . S
O57 C63 1.412 . S
H58 C56 0.973 . S
C59 H52 0.929 . S
C59 C60 1.400 . S
C59 C61 1.364 . S
C60 C59 1.400 . S
C60 C64 1.377 . S
C61 C59 1.364 . S
C61 C62 1.374 . S
C62 H53 0.930 . S
C62 C61 1.374 . S
C62 C63 1.383 . S
C63 O57 1.412 . S
C63 C62 1.383 . S
C63 C64 1.394 . S
C64 H54 0.929 . S
C64 C60 1.377 . S
C64 C63 1.394 . S
H65 C72 0.929 . S
H66 C75 0.930 . S
H67 C77 0.929 . S
H68 C69 0.969 . S
C69 H68 0.969 . S
C69 O70 1.550 . S
C69 H71 0.973 . S
O70 C69 1.550 . S
O70 C76 1.412 . S
H71 C69 0.973 . S
C72 H65 0.929 . S
C72 C73 1.400 . S
C72 C74 1.364 . S
C73 C72 1.400 . S
C73 C77 1.377 . S
C74 C72 1.364 . S
C74 C75 1.374 . S
C75 H66 0.930 . S
C75 C74 1.374 . S
C75 C76 1.383 . S
C76 O70 1.412 . S
C76 C75 1.383 . S
C76 C77 1.394 . S
C77 H67 0.929 . S
C77 C73 1.377 . S
C77 C76 1.394 . S
H78 C85 0.929 . S
H79 C88 0.930 . S
H80 C90 0.929 . S
H81 C82 0.969 . S
C82 H81 0.969 . S
C82 O83 1.550 . S
C82 H84 0.973 . S
O83 C82 1.550 . S
O83 C89 1.412 . S
H84 C82 0.973 . S
C85 H78 0.929 . S
C85 C86 1.400 . S
C85 C87 1.364 . S
C86 C85 1.400 . S
C86 C90 1.377 . S
C87 C85 1.364 . S
C87 C88 1.374 . S
C88 H79 0.930 . S
C88 C87 1.374 . S
C88 C89 1.383 . S
C89 O83 1.412 . S
C89 C88 1.383 . S
C89 C90 1.394 . S
C90 H80 0.929 . S
C90 C86 1.377 . S
C90 C89 1.394 . S
H91 C98 0.929 . S
H92 C101 0.930 . S
H93 C103 0.929 . S
H94 C95 0.969 . S
C95 H94 0.969 . S
C95 O96 1.550 . S
C95 H97 0.973 . S
O96 C95 1.550 . S
O96 C102 1.412 . S
H97 C95 0.973 . S
C98 H91 0.929 . S
C98 C99 1.400 . S
C98 C100 1.364 . S
C99 C98 1.400 . S
C99 C103 1.377 . S
C100 C98 1.364 . S
C100 C101 1.374 . S
C101 H92 0.930 . S
C101 C100 1.374 . S
C101 C102 1.383 . S
C102 O96 1.412 . S
C102 C101 1.383 . S
C102 C103 1.394 . S
C103 H93 0.929 . S
C103 C99 1.377 . S
C103 C102 1.394 . S
H104 C111 0.929 . S
H105 C114 0.930 . S
H106 C116 0.929 . S
H107 C108 0.969 . S
C108 H107 0.969 . S
C108 O109 1.550 . S
C108 H110 0.973 . S
O109 C108 1.550 . S
O109 C115 1.412 . S
H110 C108 0.973 . S
C111 H104 0.929 . S
C111 C112 1.400 . S
C111 C113 1.364 . S
C112 C111 1.400 . S
C112 C116 1.377 . S
C113 C111 1.364 . S
C113 C114 1.374 . S
C114 H105 0.930 . S
C114 C113 1.374 . S
C114 C115 1.383 . S
C115 O109 1.412 . S
C115 C114 1.383 . S
C115 C116 1.394 . S
C116 H106 0.929 . S
C116 C112 1.377 . S
C116 C115 1.394 . S
H117 C124 0.929 . S
H118 C127 0.930 . S
H119 C129 0.929 . S
H120 C121 0.969 . S
C121 H120 0.969 . S
C121 O122 1.550 . S
C121 H123 0.973 . S
O122 C121 1.550 . S
O122 C128 1.412 . S
H123 C121 0.973 . S
C124 H117 0.929 . S
C124 C125 1.400 . S
C124 C126 1.364 . S
C125 C124 1.400 . S
C125 C129 1.377 . S
C126 C124 1.364 . S
C126 C127 1.374 . S
C127 H118 0.930 . S
C127 C126 1.374 . S
C127 C128 1.383 . S
C128 O122 1.412 . S
C128 C127 1.383 . S
C128 C129 1.394 . S
C129 H119 0.929 . S
C129 C125 1.377 . S
C129 C128 1.394 . S
H130 C137 0.929 . S
H131 C140 0.930 . S
H132 C142 0.929 1_554 S
H133 C134 0.969 . S
C134 H133 0.969 . S
C134 O135 1.550 . S
C134 H136 0.973 . S
O135 C134 1.550 . S
O135 C141 1.412 . S
H136 C134 0.973 . S
C137 H130 0.929 . S
C137 C138 1.400 . S
C137 C139 1.364 . S
C138 C137 1.400 . S
C138 C142 1.377 . S
C139 C137 1.364 . S
C139 C140 1.374 . S
C140 H131 0.930 . S
C140 C139 1.374 . S
C140 C141 1.383 . S
C141 O135 1.412 . S
C141 C140 1.383 . S
C141 C142 1.394 . S
C142 H132 0.929 1_556 S
C142 C138 1.377 . S
C142 C141 1.394 . S
H143 C150 0.929 . S
H144 C153 0.930 . S
H145 C155 0.929 . S
H146 C147 0.969 . S
C147 H146 0.969 . S
C147 O148 1.550 . S
C147 H149 0.973 . S
O148 C147 1.550 . S
O148 C154 1.412 . S
H149 C147 0.973 . S
C150 H143 0.929 . S
C150 C151 1.400 . S
C150 C152 1.364 . S
C151 C150 1.400 . S
C151 C155 1.377 . S
C152 C150 1.364 . S
C152 C153 1.374 . S
C153 H144 0.930 . S
C153 C152 1.374 . S
C153 C154 1.383 . S
C154 O148 1.412 . S
C154 C153 1.383 . S
C154 C155 1.394 . S
C155 H145 0.929 . S
C155 C151 1.377 . S
C155 C154 1.394 . S
H156 C163 0.929 . S
H157 C166 0.930 . S
H158 C168 0.929 . S
H159 C160 0.969 . S
C160 H159 0.969 . S
C160 O161 1.550 . S
C160 H162 0.973 . S
O161 C160 1.550 . S
O161 C167 1.412 . S
H162 C160 0.973 . S
C163 H156 0.929 . S
C163 C164 1.400 . S
C163 C165 1.364 . S
C164 C163 1.400 . S
C164 C168 1.377 . S
C165 C163 1.364 . S
C165 C166 1.374 . S
C166 H157 0.930 . S
C166 C165 1.374 . S
C166 C167 1.383 . S
C167 O161 1.412 . S
C167 C166 1.383 . S
C167 C168 1.394 . S
C168 H158 0.929 . S
C168 C164 1.377 . S
C168 C167 1.394 . S
H169 C176 0.929 . S
H170 C179 0.930 . S
H171 C181 0.929 . S
H172 C173 0.969 . S
C173 H172 0.969 . S
C173 O174 1.550 . S
C173 H175 0.973 . S
O174 C173 1.550 . S
O174 C180 1.412 . S
H175 C173 0.973 . S
C176 H169 0.929 . S
C176 C177 1.400 . S
C176 C178 1.364 . S
C177 C176 1.400 . S
C177 C181 1.377 . S
C178 C176 1.364 . S
C178 C179 1.374 . S
C179 H170 0.930 . S
C179 C178 1.374 . S
C179 C180 1.383 . S
C180 O174 1.412 . S
C180 C179 1.383 . S
C180 C181 1.394 . S
C181 H171 0.929 . S
C181 C177 1.377 . S
C181 C180 1.394 . S
H182 C189 0.929 . S
H183 C192 0.930 . S
H184 C194 0.929 . S
H185 C186 0.969 . S
C186 H185 0.969 . S
C186 O187 1.550 . S
C186 H188 0.973 . S
O187 C186 1.550 . S
O187 C193 1.412 . S
H188 C186 0.973 . S
C189 H182 0.929 . S
C189 C190 1.400 . S
C189 C191 1.364 . S
C190 C189 1.400 . S
C190 C194 1.377 . S
C191 C189 1.364 . S
C191 C192 1.374 . S
C192 H183 0.930 . S
C192 C191 1.374 . S
C192 C193 1.383 . S
C193 O187 1.412 . S
C193 C192 1.383 . S
C193 C194 1.394 . S
C194 H184 0.929 . S
C194 C190 1.377 . S
C194 C193 1.394 . S
H195 C202 0.929 . S
H196 C205 0.930 . S
H197 C207 0.929 . S
H198 C199 0.969 . S
C199 H198 0.969 . S
C199 O200 1.550 . S
C199 H201 0.973 . S
O200 C199 1.550 . S
O200 C206 1.412 . S
H201 C199 0.973 . S
C202 H195 0.929 . S
C202 C203 1.400 . S
C202 C204 1.364 . S
C203 C202 1.400 . S
C203 C207 1.377 . S
C204 C202 1.364 . S
C204 C205 1.374 . S
C205 H196 0.930 . S
C205 C204 1.374 . S
C205 C206 1.383 . S
C206 O200 1.412 . S
C206 C205 1.383 . S
C206 C207 1.394 . S
C207 H197 0.929 . S
C207 C203 1.377 . S
C207 C206 1.394 . S
H208 C215 0.929 . S
H209 C218 0.930 . S
H210 C220 0.929 . S
H211 C212 0.969 . S
C212 H211 0.969 . S
C212 O213 1.550 . S
C212 H214 0.973 . S
O213 C212 1.550 . S
O213 C219 1.412 . S
H214 C212 0.973 . S
C215 H208 0.929 . S
C215 C216 1.400 . S
C215 C217 1.364 . S
C216 C215 1.400 . S
C216 C220 1.377 . S
C217 C215 1.364 . S
C217 C218 1.374 . S
C218 H209 0.930 . S
C218 C217 1.374 . S
C218 C219 1.383 . S
C219 O213 1.412 . S
C219 C218 1.383 . S
C219 C220 1.394 . S
C220 H210 0.929 . S
C220 C216 1.377 . S
C220 C219 1.394 . S
H221 C228 0.929 . S
H222 C231 0.930 . S
H223 C233 0.929 . S
H224 C225 0.969 . S
C225 H224 0.969 . S
C225 O226 1.550 . S
C225 H227 0.973 . S
O226 C225 1.550 . S
O226 C232 1.412 . S
H227 C225 0.973 . S
C228 H221 0.929 . S
C228 C229 1.400 . S
C228 C230 1.364 . S
C229 C228 1.400 . S
C229 C233 1.377 . S
C230 C228 1.364 . S
C230 C231 1.374 . S
C231 H222 0.930 . S
C231 C230 1.374 . S
C231 C232 1.383 . S
C232 O226 1.412 . S
C232 C231 1.383 . S
C232 C233 1.394 . S
C233 H223 0.929 . S
C233 C229 1.377 . S
C233 C232 1.394 . S
Tb234 O237 2.453 . S
Tb234 O238 2.596 1_545 S
Tb234 O239 2.374 1_545 S
Tb234 O247 2.343 1_554 S
Tb234 O249 2.353 . S
Tb234 O251 2.427 . S
Tb234 O252 2.513 1_554 S
C235 O239 1.251 . S
C235 O241 1.263 1_554 S
Tb236 O238 2.343 1_556 S
Tb236 O241 2.353 . S
Tb236 O244 2.427 1_556 S
Tb236 O245 2.513 1_556 S
Tb236 O246 2.453 . S
Tb236 O247 2.596 1_565 S
Tb236 O248 2.374 1_565 S
O237 Tb234 2.453 . S
O237 C253 1.245 1_545 S
O238 Tb234 2.596 1_565 S
O238 Tb236 2.343 1_554 S
O238 C253 1.259 . S
O239 Tb234 2.374 1_565 S
O239 C235 1.251 . S
C240 O244 1.275 . S
C240 O245 1.246 . S
O241 C235 1.263 1_556 S
O241 Tb236 2.353 . S
C242 O246 1.245 1_545 S
C242 O247 1.259 . S
C243 O248 1.250 1_554 S
C243 O249 1.263 . S
O244 Tb236 2.427 1_554 S
O244 C240 1.275 . S
O245 Tb236 2.513 1_554 S
O245 C240 1.246 . S
O246 Tb236 2.453 . S
O246 C242 1.245 1_565 S
O247 Tb234 2.343 1_556 S
O247 Tb236 2.596 1_545 S
O247 C242 1.259 . S
O248 Tb236 2.374 1_545 S
O248 C243 1.250 1_556 S
O249 Tb234 2.353 . S
O249 C243 1.263 . S
C250 O251 1.275 1_556 S
C250 O252 1.246 . S
O251 Tb234 2.427 . S
O251 C250 1.275 1_554 S
O252 Tb234 2.513 1_556 S
O252 C250 1.246 . S
C253 O237 1.245 1_565 S
C253 O238 1.259 . S
Tb254 O257 2.453 . S
Tb254 O258 2.596 1_655 S
Tb254 O259 2.374 1_655 S
Tb254 O267 2.343 1_554 S
Tb254 O269 2.353 . S
Tb254 O271 2.427 1_554 S
Tb254 O272 2.513 1_554 S
C255 O259 1.251 . S
C255 O261 1.263 1_554 S
Tb256 O258 2.343 1_556 S
Tb256 O261 2.353 . S
Tb256 O264 2.427 1_556 S
Tb256 O265 2.513 1_556 S
Tb256 O266 2.453 . S
Tb256 O267 2.596 1_455 S
Tb256 O268 2.374 1_455 S
O257 Tb254 2.453 . S
O257 C273 1.245 1_655 S
O258 Tb254 2.596 1_455 S
O258 Tb256 2.343 1_554 S
O258 C273 1.259 . S
O259 Tb254 2.374 1_455 S
O259 C255 1.251 . S
C260 O264 1.275 . S
C260 O265 1.246 . S
O261 C255 1.263 1_556 S
O261 Tb256 2.353 . S
C262 O266 1.245 1_655 S
C262 O267 1.259 . S
C263 O268 1.250 . S
C263 O269 1.263 1_556 S
O264 Tb256 2.427 1_554 S
O264 C260 1.275 . S
O265 Tb256 2.513 1_554 S
O265 C260 1.246 . S
O266 Tb256 2.453 . S
O266 C262 1.245 1_455 S
O267 Tb254 2.343 1_556 S
O267 Tb256 2.596 1_655 S
O267 C262 1.259 . S
O268 Tb256 2.374 1_655 S
O268 C263 1.250 . S
O269 Tb254 2.353 . S
O269 C263 1.263 1_554 S
C270 O271 1.275 . S
C270 O272 1.246 . S
O271 Tb254 2.427 1_556 S
O271 C270 1.275 . S
O272 Tb254 2.513 1_556 S
O272 C270 1.246 . S
C273 O257 1.245 1_455 S
C273 O258 1.259 . S
Tb274 O277 2.453 . S
Tb274 O278 2.596 . S
Tb274 O279 2.374 . S
Tb274 O287 2.343 1_556 S
Tb274 O289 2.353 . S
Tb274 O291 2.427 1_556 S
Tb274 O292 2.513 1_556 S
C275 O279 1.251 1_554 S
C275 O281 1.263 . S
Tb276 O278 2.343 1_554 S
Tb276 O281 2.353 . S
Tb276 O284 2.410 1_554 S
Tb276 O285 2.513 1_554 S
Tb276 O286 2.453 . S
Tb276 O287 2.596 . S
Tb276 O288 2.374 . S
O277 Tb274 2.453 . S
O277 C293 1.245 . S
O278 Tb274 2.596 . S
O278 Tb276 2.343 1_556 S
O278 C293 1.259 . S
O279 Tb274 2.374 . S
O279 C275 1.251 1_556 S
C280 O284 1.290 . S
C280 O285 1.246 . S
O281 C275 1.263 . S
O281 Tb276 2.353 . S
C282 O286 1.245 . S
C282 O287 1.259 . S
C283 O288 1.250 . S
C283 O289 1.263 1_554 S
O284 Tb276 2.410 1_556 S
O284 C280 1.290 . S
O285 Tb276 2.513 1_556 S
O285 C280 1.246 . S
O286 Tb276 2.453 . S
O286 C282 1.245 . S
O287 Tb274 2.343 1_554 S
O287 Tb276 2.596 . S
O287 C282 1.259 . S
O288 Tb276 2.374 . S
O288 C283 1.250 . S
O289 Tb274 2.353 . S
O289 C283 1.263 1_556 S
C290 O291 1.275 . S
C290 O292 1.246 . S
O291 Tb274 2.427 1_554 S
O291 C290 1.275 . S
O292 Tb274 2.513 1_554 S
O292 C290 1.246 . S
C293 O277 1.245 . S
C293 O278 1.259 . S
Tb294 O297 2.453 . S
Tb294 O298 2.596 . S
Tb294 O299 2.374 . S
Tb294 O307 2.343 . S
Tb294 O309 2.353 . S
Tb294 O311 2.427 . S
Tb294 O312 2.513 . S
C295 O299 1.251 . S
C295 O301 1.263 . S
Tb296 O298 2.343 . S
Tb296 O301 2.353 . S
Tb296 O304 2.427 . S
Tb296 O305 2.513 . S
Tb296 O306 2.453 . S
Tb296 O307 2.596 . S
Tb296 O308 2.374 . S
O297 Tb294 2.453 . S
O297 C313 1.245 . S
O298 Tb294 2.596 . S
O298 Tb296 2.343 . S
O298 C313 1.259 . S
O299 Tb294 2.374 . S
O299 C295 1.251 . S
C300 O304 1.275 . S
C300 O305 1.246 . S
O301 C295 1.263 . S
O301 Tb296 2.353 . S
C302 O306 1.245 . S
C302 O307 1.259 . S
C303 O308 1.250 . S
C303 O309 1.263 . S
O304 Tb296 2.427 . S
O304 C300 1.275 . S
O305 Tb296 2.513 . S
O305 C300 1.246 . S
O306 Tb296 2.453 . S
O306 C302 1.245 . S
O307 Tb294 2.343 . S
O307 Tb296 2.596 . S
O307 C302 1.259 . S
O308 Tb296 2.374 . S
O308 C303 1.250 . S
O309 Tb294 2.353 . S
O309 C303 1.263 . S
C310 O311 1.275 . S
C310 O312 1.246 . S
O311 Tb294 2.427 . S
O311 C310 1.275 . S
O312 Tb294 2.513 . S
O312 C310 1.246 . S
C313 O297 1.245 . S
C313 O298 1.259 . S
Tb314 O317 2.453 . S
Tb314 O318 2.596 . S
Tb314 O319 2.374 . S
Tb314 O327 2.343 . S
Tb314 O329 2.353 . S
Tb314 O331 2.427 . S
Tb314 O332 2.513 . S
C315 O319 1.251 . S
C315 O321 1.263 . S
Tb316 O318 2.343 . S
Tb316 O321 2.353 . S
Tb316 O324 2.427 . S
Tb316 O325 2.513 . S
Tb316 O326 2.453 . S
Tb316 O327 2.596 . S
Tb316 O328 2.374 . S
O317 Tb314 2.453 . S
O317 C333 1.245 . S
O318 Tb314 2.596 . S
O318 Tb316 2.343 . S
O318 C333 1.259 . S
O319 Tb314 2.374 . S
O319 C315 1.251 . S
C320 O324 1.275 . S
C320 O325 1.246 . S
O321 C315 1.263 . S
O321 Tb316 2.353 . S
C322 O326 1.245 . S
C322 O327 1.259 . S
C323 O328 1.250 . S
C323 O329 1.263 . S
O324 Tb316 2.427 . S
O324 C320 1.275 . S
O325 Tb316 2.513 . S
O325 C320 1.246 . S
O326 Tb316 2.453 . S
O326 C322 1.245 . S
O327 Tb314 2.343 . S
O327 Tb316 2.596 . S
O327 C322 1.259 . S
O328 Tb316 2.374 . S
O328 C323 1.250 . S
O329 Tb314 2.353 . S
O329 C323 1.263 . S
C330 O331 1.275 . S
C330 O332 1.246 . S
O331 Tb314 2.427 . S
O331 C330 1.275 . S
O332 Tb314 2.513 . S
O332 C330 1.246 . S
C333 O317 1.245 . S
C333 O318 1.259 . S
Tb334 O337 2.453 . S
Tb334 O338 2.596 . S
Tb334 O339 2.374 . S
Tb334 O347 2.343 . S
Tb334 O349 2.353 . S
Tb334 O351 2.427 . S
Tb334 O352 2.513 . S
C335 O339 1.251 . S
C335 O341 1.263 . S
Tb336 O338 2.343 . S
Tb336 O341 2.353 . S
Tb336 O344 2.427 . S
Tb336 O345 2.513 . S
Tb336 O346 2.453 . S
Tb336 O347 2.596 . S
Tb336 O348 2.374 . S
O337 Tb334 2.453 . S
O337 C353 1.245 . S
O338 Tb334 2.596 . S
O338 Tb336 2.343 . S
O338 C353 1.259 . S
O339 Tb334 2.374 . S
O339 C335 1.251 . S
C340 O344 1.275 . S
C340 O345 1.246 . S
O341 C335 1.263 . S
O341 Tb336 2.353 . S
C342 O346 1.245 . S
C342 O347 1.259 . S
C343 O348 1.250 . S
C343 O349 1.263 . S
O344 Tb336 2.427 . S
O344 C340 1.275 . S
O345 Tb336 2.513 . S
O345 C340 1.246 . S
O346 Tb336 2.453 . S
O346 C342 1.245 . S
O347 Tb334 2.343 . S
O347 Tb336 2.596 . S
O347 C342 1.259 . S
O348 Tb336 2.374 . S
O348 C343 1.250 . S
O349 Tb334 2.353 . S
O349 C343 1.263 . S
C350 O351 1.275 . S
C350 O352 1.246 . S
O351 Tb334 2.427 . S
O351 C350 1.275 . S
O352 Tb334 2.513 . S
O352 C350 1.246 . S
C353 O337 1.245 . S
C353 O338 1.259 . S
Tb354 O357 2.453 . S
Tb354 O358 2.596 . S
Tb354 O359 2.374 . S
Tb354 O367 2.343 . S
Tb354 O369 2.353 . S
Tb354 O371 2.427 . S
Tb354 O372 2.513 . S
C355 O359 1.251 . S
C355 O361 1.263 . S
Tb356 O358 2.343 . S
Tb356 O361 2.353 . S
Tb356 O364 2.427 . S
Tb356 O365 2.513 . S
Tb356 O366 2.453 . S
Tb356 O367 2.596 . S
Tb356 O368 2.374 . S
O357 Tb354 2.453 . S
O357 C373 1.245 . S
O358 Tb354 2.596 . S
O358 Tb356 2.343 . S
O358 C373 1.259 . S
O359 Tb354 2.374 . S
O359 C355 1.251 . S
C360 O364 1.275 . S
C360 O365 1.246 . S
O361 C355 1.263 . S
O361 Tb356 2.353 . S
C362 O366 1.245 . S
C362 O367 1.259 . S
C363 O368 1.250 . S
C363 O369 1.263 . S
O364 Tb356 2.427 . S
O364 C360 1.275 . S
O365 Tb356 2.513 . S
O365 C360 1.246 . S
O366 Tb356 2.453 . S
O366 C362 1.245 . S
O367 Tb354 2.343 . S
O367 Tb356 2.596 . S
O367 C362 1.259 . S
O368 Tb356 2.374 . S
O368 C363 1.250 . S
O369 Tb354 2.353 . S
O369 C363 1.263 . S
C370 O371 1.275 . S
C370 O372 1.246 . S
O371 Tb354 2.427 . S
O371 C370 1.275 . S
O372 Tb354 2.513 . S
O372 C370 1.246 . S
C373 O357 1.245 . S
C373 O358 1.259 . S
Tb374 O377 2.453 . S
Tb374 O378 2.596 . S
Tb374 O379 2.374 . S
Tb374 O387 2.343 . S
Tb374 O389 2.353 . S
Tb374 O391 2.427 . S
Tb374 O392 2.513 . S
C375 O379 1.251 . S
C375 O381 1.263 . S
Tb376 O378 2.343 . S
Tb376 O381 2.353 . S
Tb376 O384 2.427 . S
Tb376 O385 2.513 . S
Tb376 O386 2.453 . S
Tb376 O387 2.596 . S
Tb376 O388 2.374 . S
O377 Tb374 2.453 . S
O377 C393 1.245 . S
O378 Tb374 2.596 . S
O378 Tb376 2.343 . S
O378 C393 1.259 . S
O379 Tb374 2.374 . S
O379 C375 1.251 . S
C380 O384 1.275 . S
C380 O385 1.246 . S
O381 C375 1.263 . S
O381 Tb376 2.353 . S
C382 O386 1.245 . S
C382 O387 1.259 . S
C383 O388 1.250 . S
C383 O389 1.263 . S
O384 Tb376 2.427 . S
O384 C380 1.275 . S
O385 Tb376 2.513 . S
O385 C380 1.246 . S
O386 Tb376 2.453 . S
O386 C382 1.245 . S
O387 Tb374 2.343 . S
O387 Tb376 2.596 . S
O387 C382 1.259 . S
O388 Tb376 2.374 . S
O388 C383 1.250 . S
O389 Tb374 2.353 . S
O389 C383 1.263 . S
C390 O391 1.275 . S
C390 O392 1.246 . S
O391 Tb374 2.427 . S
O391 C390 1.275 . S
O392 Tb374 2.513 . S
O392 C390 1.246 . S
C393 O377 1.245 . S
C393 O378 1.259 . S
Tb394 O397 2.453 . S
Tb394 O398 2.596 . S
Tb394 O399 2.374 . S
Tb394 O407 2.343 . S
Tb394 O409 2.353 . S
Tb394 O411 2.427 . S
Tb394 O412 2.513 . S
C395 O399 1.251 . S
C395 O401 1.263 . S
Tb396 O398 2.343 . S
Tb396 O401 2.353 . S
Tb396 O404 2.427 . S
Tb396 O405 2.513 . S
Tb396 O406 2.453 . S
Tb396 O407 2.596 . S
Tb396 O408 2.374 . S
O397 Tb394 2.453 . S
O397 C413 1.245 . S
O398 Tb394 2.596 . S
O398 Tb396 2.343 . S
O398 C413 1.259 . S
O399 Tb394 2.374 . S
O399 C395 1.251 . S
C400 O404 1.275 . S
C400 O405 1.246 . S
O401 C395 1.263 . S
O401 Tb396 2.353 . S
C402 O406 1.245 . S
C402 O407 1.259 . S
C403 O408 1.250 . S
C403 O409 1.263 . S
O404 Tb396 2.427 . S
O404 C400 1.275 . S
O405 Tb396 2.513 . S
O405 C400 1.246 . S
O406 Tb396 2.453 . S
O406 C402 1.245 . S
O407 Tb394 2.343 . S
O407 Tb396 2.596 . S
O407 C402 1.259 . S
O408 Tb396 2.374 . S
O408 C403 1.250 . S
O409 Tb394 2.353 . S
O409 C403 1.263 . S
C410 O411 1.275 . S
C410 O412 1.246 . S
O411 Tb394 2.427 . S
O411 C410 1.275 . S
O412 Tb394 2.513 . S
O412 C410 1.246 . S
C413 O397 1.245 . S
C413 O398 1.259 . S
C414 C415 1.369 . S
C414 C416 1.419 . S
C414 H418 0.930 . S
C415 C414 1.369 . S
C415 C424 1.429 . S
C416 C414 1.419 . S
C416 C417 1.363 . S
C416 H419 0.929 . S
C417 C416 1.363 . S
C417 C423 1.428 . S
H418 C414 0.930 . S
H419 C416 0.929 . S
S420 N421 1.613 . S
S420 N422 1.610 . S
N421 S420 1.613 . S
N421 C424 1.350 . S
N422 S420 1.610 . S
N422 C423 1.351 . S
C423 C417 1.428 . S
C423 N422 1.351 . S
C423 C424 1.434 . S
C424 C415 1.429 . S
C424 N421 1.350 . S
C424 C423 1.434 . S
C425 C426 1.369 . S
C425 C427 1.419 . S
C425 H429 0.930 . S
C426 C425 1.369 . S
C426 C435 1.429 . S
C427 C425 1.419 . S
C427 C428 1.363 . S
C427 H430 0.929 . S
C428 C427 1.363 . S
C428 C434 1.428 . S
H429 C425 0.930 . S
H430 C427 0.929 . S
S431 N432 1.613 . S
S431 N433 1.610 . S
N432 S431 1.613 . S
N432 C435 1.350 . S
N433 S431 1.610 . S
N433 C434 1.351 . S
C434 C428 1.428 . S
C434 N433 1.351 . S
C434 C435 1.434 . S
C435 C426 1.429 . S
C435 N432 1.350 . S
C435 C434 1.434 . S
C436 C437 1.369 . S
C436 C438 1.419 . S
C436 H440 0.930 . S
C437 C436 1.369 . S
C437 C446 1.429 . S
C438 C436 1.419 . S
C438 C439 1.363 . S
C438 H441 0.929 . S
C439 C438 1.363 . S
C439 C445 1.428 . S
H440 C436 0.930 . S
H441 C438 0.929 . S
S442 N443 1.613 . S
S442 N444 1.610 . S
N443 S442 1.613 . S
N443 C446 1.350 . S
N444 S442 1.610 . S
N444 C445 1.351 . S
C445 C439 1.428 . S
C445 N444 1.351 . S
C445 C446 1.434 . S
C446 C437 1.429 . S
C446 N443 1.350 . S
C446 C445 1.434 . S
C447 C448 1.369 . S
C447 C449 1.419 . S
C447 H451 0.930 . S
C448 C447 1.369 . S
C448 C457 1.432 . S
C449 C447 1.419 . S
C449 C450 1.363 . S
C449 H452 0.929 . S
C450 C449 1.363 . S
C450 C456 1.428 1_556 S
H451 C447 0.930 . S
H452 C449 0.929 . S
S453 N454 1.613 . S
S453 N455 1.610 . S
N454 S453 1.613 . S
N454 C457 1.346 1_554 S
N455 S453 1.610 . S
N455 C456 1.351 . S
C456 C450 1.428 1_554 S
C456 N455 1.351 . S
C456 C457 1.433 1_554 S
C457 C448 1.432 . S
C457 N454 1.346 1_556 S
C457 C456 1.433 1_556 S
C458 C459 1.369 . S
C458 C460 1.419 . S
C458 H462 0.930 . S
C459 C458 1.369 . S
C459 C468 1.429 . S
C460 C458 1.419 . S
C460 C461 1.363 . S
C460 H463 0.929 . S
C461 C460 1.363 . S
C461 C467 1.428 . S
H462 C458 0.930 . S
H463 C460 0.929 . S
S464 N465 1.613 . S
S464 N466 1.610 . S
N465 S464 1.613 . S
N465 C468 1.350 . S
N466 S464 1.610 . S
N466 C467 1.351 . S
C467 C461 1.428 . S
C467 N466 1.351 . S
C467 C468 1.434 . S
C468 C459 1.429 . S
C468 N465 1.350 . S
C468 C467 1.434 . S
C469 C470 1.369 1_554 S
C469 C471 1.419 . S
C469 H473 0.930 . S
C470 C469 1.369 1_556 S
C470 C479 1.429 . S
C471 C469 1.419 . S
C471 C472 1.363 1_554 S
C471 H474 0.929 . S
C472 C471 1.363 1_556 S
C472 C478 1.428 . S
H473 C469 0.930 . S
H474 C471 0.929 . S
S475 N476 1.613 . S
S475 N477 1.610 . S
N476 S475 1.613 . S
N476 C479 1.350 . S
N477 S475 1.610 . S
N477 C478 1.351 . S
C478 C472 1.428 . S
C478 N477 1.351 . S
C478 C479 1.434 . S
C479 C470 1.429 . S
C479 N476 1.350 . S
C479 C478 1.434 . S
C480 C481 1.369 . S
C480 C482 1.419 . S
C480 H484 0.930 . S
C481 C480 1.369 . S
C481 C490 1.408 1_556 S
C482 C480 1.419 . S
C482 C483 1.363 . S
C482 H485 0.929 . S
C483 C482 1.363 . S
C483 C489 1.428 1_556 S
H484 C480 0.930 . S
H485 C482 0.929 . S
S486 N487 1.613 . S
S486 N488 1.610 . S
N487 S486 1.613 . S
N487 C490 1.366 . S
N488 S486 1.610 . S
N488 C489 1.351 . S
C489 C483 1.428 1_554 S
C489 N488 1.351 . S
C489 C490 1.439 . S
C490 C481 1.408 1_554 S
C490 N487 1.366 . S
C490 C489 1.439 . S
C491 C492 1.369 . S
C491 C493 1.419 . S
C491 H495 0.930 . S
C492 C491 1.369 . S
C492 C501 1.429 . S
C493 C491 1.419 . S
C493 C494 1.363 . S
C493 H496 0.929 . S
C494 C493 1.363 . S
C494 C500 1.428 . S
H495 C491 0.930 . S
H496 C493 0.929 . S
S497 N498 1.613 . S
S497 N499 1.610 . S
N498 S497 1.613 . S
N498 C501 1.350 . S
N499 S497 1.610 . S
N499 C500 1.351 . S
C500 C494 1.428 . S
C500 N499 1.351 . S
C500 C501 1.434 . S
C501 C492 1.429 . S
C501 N498 1.350 . S
C501 C500 1.434 . S
C502 C503 1.369 . S
C502 C504 1.419 . S
C502 H506 0.930 . S
C503 C502 1.369 . S
C503 C512 1.429 1_556 S
C504 C502 1.419 . S
C504 C505 1.363 . S
C504 H507 0.929 . S
C505 C504 1.363 . S
C505 C511 1.428 1_556 S
H506 C502 0.930 . S
H507 C504 0.929 . S
S508 N509 1.613 . S
S508 N510 1.610 . S
N509 S508 1.613 . S
N509 C512 1.350 . S
N510 S508 1.610 . S
N510 C511 1.351 . S
C511 C505 1.428 1_554 S
C511 N510 1.351 . S
C511 C512 1.434 . S
C512 C503 1.429 1_554 S
C512 N509 1.350 . S
C512 C511 1.434 . S
C513 C514 1.369 . S
C513 C515 1.419 . S
C513 H517 0.930 1_554 S
C514 C513 1.369 . S
C514 C523 1.429 . S
C515 C513 1.419 . S
C515 C516 1.363 . S
C515 H518 0.929 1_554 S
C516 C515 1.363 . S
C516 C522 1.428 . S
H517 C513 0.930 1_556 S
H518 C515 0.929 1_556 S
S519 N520 1.613 . S
S519 N521 1.610 . S
N520 S519 1.613 . S
N520 C523 1.350 . S
N521 S519 1.610 . S
N521 C522 1.351 . S
C522 C516 1.428 . S
C522 N521 1.351 . S
C522 C523 1.434 . S
C523 C514 1.429 . S
C523 N520 1.350 . S
C523 C522 1.434 . S
C524 C525 1.369 . S
C524 C526 1.419 . S
C524 H528 0.930 . S
C525 C524 1.369 . S
C525 C534 1.429 . S
C526 C524 1.419 . S
C526 C527 1.363 . S
C526 H529 0.929 . S
C527 C526 1.363 . S
C527 C533 1.428 . S
H528 C524 0.930 . S
H529 C526 0.929 . S
S530 N531 1.613 . S
S530 N532 1.610 . S
N531 S530 1.613 . S
N531 C534 1.350 . S
N532 S530 1.610 . S
N532 C533 1.351 . S
C533 C527 1.428 . S
C533 N532 1.351 . S
C533 C534 1.434 . S
C534 C525 1.429 . S
C534 N531 1.350 . S
C534 C533 1.434 . S
C535 C536 1.369 . S
C535 C537 1.415 1_554 S
C535 H539 0.930 1_554 S
C536 C535 1.369 . S
C536 C545 1.429 . S
C537 C535 1.415 1_556 S
C537 C538 1.351 1_556 S
C537 H540 0.946 . S
C538 C537 1.351 1_554 S
C538 C544 1.428 . S
H539 C535 0.930 1_556 S
H540 C537 0.946 . S
S541 N542 1.613 . S
S541 N543 1.610 . S
N542 S541 1.613 . S
N542 C545 1.350 . S
N543 S541 1.610 . S
N543 C544 1.351 . S
C544 C538 1.428 . S
C544 N543 1.351 . S
C544 C545 1.434 . S
C545 C536 1.429 . S
C545 N542 1.350 . S
C545 C544 1.434 . S
C546 C547 1.369 . S
C546 C548 1.419 1_655 S
C546 H550 0.930 . S
C547 C546 1.369 . S
C547 C556 1.429 . S
C548 C546 1.419 1_455 S
C548 C549 1.363 . S
C548 H551 0.929 . S
C549 C548 1.363 . S
C549 C555 1.428 1_455 S
H550 C546 0.930 . S
H551 C548 0.929 . S
S552 N553 1.613 . S
S552 N554 1.610 . S
N553 S552 1.613 . S
N553 C556 1.350 . S
N554 S552 1.610 . S
N554 C555 1.351 . S
C555 C549 1.428 1_655 S
C555 N554 1.351 . S
C555 C556 1.434 . S
C556 C547 1.429 . S
C556 N553 1.350 . S
C556 C555 1.434 . S
C557 C558 1.369 . S
C557 C559 1.419 . S
C557 H561 0.930 . S
C558 C557 1.369 . S
C558 C567 1.429 . S
C559 C557 1.419 . S
C559 C560 1.363 . S
C559 H562 0.929 . S
C560 C559 1.363 . S
C560 C566 1.428 . S
H561 C557 0.930 . S
H562 C559 0.929 . S
S563 N564 1.613 . S
S563 N565 1.610 . S
N564 S563 1.613 . S
N564 C567 1.350 . S
N565 S563 1.610 . S
N565 C566 1.351 . S
C566 C560 1.428 . S
C566 N565 1.351 . S
C566 C567 1.434 . S
C567 C558 1.429 . S
C567 N564 1.350 . S
C567 C566 1.434 . S
C568 C569 1.369 . S
C568 C570 1.419 1_545 S
C568 H572 0.930 . S
C569 C568 1.369 . S
C569 C578 1.429 . S
C570 C568 1.419 1_565 S
C570 C571 1.363 . S
C570 H573 0.929 . S
C571 C570 1.363 . S
C571 C577 1.428 . S
H572 C568 0.930 . S
H573 C570 0.929 . S
S574 N575 1.613 . S
S574 N576 1.610 1_545 S
N575 S574 1.613 . S
N575 C578 1.350 . S
N576 S574 1.610 1_565 S
N576 C577 1.351 . S
C577 C571 1.428 . S
C577 N576 1.351 . S
C577 C578 1.434 1_565 S
C578 C569 1.429 . S
C578 N575 1.350 . S
C578 C577 1.434 1_545 S
C579 C580 1.369 . S
C579 C581 1.419 . S
C579 H583 0.930 . S
C580 C579 1.369 . S
C580 C589 1.429 . S
C581 C579 1.419 . S
C581 C582 1.363 . S
C581 H584 0.929 . S
C582 C581 1.363 . S
C582 C588 1.428 . S
H583 C579 0.930 . S
H584 C581 0.929 . S
S585 N586 1.613 . S
S585 N587 1.610 . S
N586 S585 1.613 . S
N586 C589 1.350 . S
N587 S585 1.610 . S
N587 C588 1.351 . S
C588 C582 1.428 . S
C588 N587 1.351 . S
C588 C589 1.434 . S
C589 C580 1.429 . S
C589 N586 1.350 . S
C589 C588 1.434 . S
C590 C591 1.369 . S
C590 C592 1.419 . S
C590 H594 0.930 . S
C591 C590 1.369 . S
C591 C600 1.429 . S
C592 C590 1.419 . S
C592 C593 1.363 . S
C592 H595 0.929 . S
C593 C592 1.363 . S
C593 C599 1.428 . S
H594 C590 0.930 . S
H595 C592 0.929 . S
S596 N597 1.613 . S
S596 N598 1.610 . S
N597 S596 1.613 . S
N597 C600 1.350 . S
N598 S596 1.610 . S
N598 C599 1.351 . S
C599 C593 1.428 . S
C599 N598 1.351 . S
C599 C600 1.434 . S
C600 C591 1.429 . S
C600 N597 1.350 . S
C600 C599 1.434 . S
C601 C602 1.369 . S
C601 C603 1.419 . S
C601 H605 0.930 . S
C602 C601 1.369 . S
C602 C611 1.429 . S
C603 C601 1.419 . S
C603 C604 1.363 . S
C603 H606 0.929 . S
C604 C603 1.363 . S
C604 C610 1.428 . S
H605 C601 0.930 . S
H606 C603 0.929 . S
S607 N608 1.613 . S
S607 N609 1.610 . S
N608 S607 1.613 . S
N608 C611 1.350 . S
N609 S607 1.610 . S
N609 C610 1.351 . S
C610 C604 1.428 . S
C610 N609 1.351 . S
C610 C611 1.434 . S
C611 C602 1.429 . S
C611 N608 1.350 . S
C611 C610 1.434 . S
C612 C613 1.369 . S
C612 C614 1.419 . S
C612 H616 0.930 . S
C613 C612 1.369 . S
C613 C622 1.429 . S
C614 C612 1.419 . S
C614 C615 1.363 . S
C614 H617 0.929 . S
C615 C614 1.363 . S
C615 C621 1.428 . S
H616 C612 0.930 . S
H617 C614 0.929 . S
S618 N619 1.613 . S
S618 N620 1.610 . S
N619 S618 1.613 . S
N619 C622 1.350 . S
N620 S618 1.610 . S
N620 C621 1.351 . S
C621 C615 1.428 . S
C621 N620 1.351 . S
C621 C622 1.434 . S
C622 C613 1.429 . S
C622 N619 1.350 . S
C622 C621 1.434 . S
C623 C624 1.369 . S
C623 C625 1.419 . S
C623 H627 0.930 . S
C624 C623 1.369 . S
C624 C633 1.429 . S
C625 C623 1.419 . S
C625 C626 1.363 . S
C625 H628 0.929 . S
C626 C625 1.363 . S
C626 C632 1.428 . S
H627 C623 0.930 . S
H628 C625 0.929 . S
S629 N630 1.613 . S
S629 N631 1.610 . S
N630 S629 1.613 . S
N630 C633 1.350 . S
N631 S629 1.610 . S
N631 C632 1.351 . S
C632 C626 1.428 . S
C632 N631 1.351 . S
C632 C633 1.434 . S
C633 C624 1.429 . S
C633 N630 1.350 . S
C633 C632 1.434 . S
C634 C635 1.369 . S
C634 C636 1.419 . S
C634 H638 0.930 . S
C635 C634 1.369 . S
C635 C644 1.429 . S
C636 C634 1.419 . S
C636 C637 1.363 . S
C636 H639 0.929 . S
C637 C636 1.363 . S
C637 C643 1.428 . S
H638 C634 0.930 . S
H639 C636 0.929 . S
S640 N641 1.613 . S
S640 N642 1.610 . S
N641 S640 1.613 . S
N641 C644 1.350 . S
N642 S640 1.610 . S
N642 C643 1.351 . S
C643 C637 1.428 . S
C643 N642 1.351 . S
C643 C644 1.434 . S
C644 C635 1.429 . S
C644 N641 1.350 . S
C644 C643 1.434 . S
C645 C646 1.369 . S
C645 C647 1.419 . S
C645 H649 0.937 . S
C646 C645 1.369 . S
C646 C655 1.433 . S
C647 C645 1.419 . S
C647 C648 1.363 . S
C647 H650 0.929 . S
C648 C647 1.363 . S
C648 C654 1.428 . S
H649 C645 0.937 . S
H650 C647 0.929 . S
S651 N652 1.613 . S
S651 N653 1.610 . S
N652 S651 1.613 . S
N652 C655 1.350 . S
N653 S651 1.610 . S
N653 C654 1.351 . S
C654 C648 1.428 . S
C654 N653 1.351 . S
C654 C655 1.434 . S
C655 C646 1.433 . S
C655 N652 1.350 . S
C655 C654 1.434 . S
C656 C657 1.369 1_455 S
C656 C658 1.419 . S
C656 H660 0.930 1_455 S
C657 C656 1.369 1_655 S
C657 C666 1.429 1_655 S
C658 C656 1.419 . S
C658 C659 1.363 . S
C658 H661 0.929 . S
C659 C658 1.363 . S
C659 C665 1.428 . S
H660 C656 0.930 1_655 S
H661 C658 0.929 . S
S662 N663 1.613 . S
S662 N664 1.610 . S
N663 S662 1.613 . S
N663 C666 1.350 . S
N664 S662 1.610 . S
N664 C665 1.351 . S
C665 C659 1.428 . S
C665 N664 1.351 . S
C665 C666 1.434 . S
C666 C657 1.429 1_455 S
C666 N663 1.350 . S
C666 C665 1.434 . S
C667 C668 1.369 . S
C667 C669 1.419 . S
C667 H671 0.930 . S
C668 C667 1.369 . S
C668 C677 1.429 . S
C669 C667 1.419 . S
C669 C670 1.363 . S
C669 H672 0.929 . S
C670 C669 1.363 . S
C670 C676 1.428 . S
H671 C667 0.930 . S
H672 C669 0.929 . S
S673 N674 1.613 . S
S673 N675 1.610 . S
N674 S673 1.613 . S
N674 C677 1.350 . S
N675 S673 1.610 . S
N675 C676 1.351 . S
C676 C670 1.428 . S
C676 N675 1.351 . S
C676 C677 1.434 . S
C677 C668 1.429 . S
C677 N674 1.350 . S
C677 C676 1.434 . S
C678 C679 1.369 . S
C678 C680 1.419 . S
C678 H682 0.930 . S
C679 C678 1.369 . S
C679 C688 1.429 . S
C680 C678 1.419 . S
C680 C681 1.363 . S
C680 H683 0.929 . S
C681 C680 1.363 . S
C681 C687 1.428 . S
H682 C678 0.930 . S
H683 C680 0.929 . S
S684 N685 1.613 . S
S684 N686 1.610 . S
N685 S684 1.613 . S
N685 C688 1.350 . S
N686 S684 1.610 . S
N686 C687 1.351 . S
C687 C681 1.428 . S
C687 N686 1.351 . S
C687 C688 1.434 . S
C688 C679 1.429 . S
C688 N685 1.350 . S
C688 C687 1.434 . S
C689 C690 1.369 . S
C689 C691 1.419 . S
C689 H693 0.930 . S
C690 C689 1.369 . S
C690 C699 1.429 . S
C691 C689 1.419 . S
C691 C692 1.363 . S
C691 H694 0.929 . S
C692 C691 1.363 . S
C692 C698 1.428 . S
H693 C689 0.930 . S
H694 C691 0.929 . S
S695 N696 1.613 . S
S695 N697 1.610 . S
N696 S695 1.613 . S
N696 C699 1.350 . S
N697 S695 1.610 . S
N697 C698 1.351 . S
C698 C692 1.428 . S
C698 N697 1.351 . S
C698 C699 1.434 . S
C699 C690 1.429 . S
C699 N696 1.350 . S
C699 C698 1.434 . S
C700 C701 1.369 . S
C700 C702 1.419 . S
C700 H704 0.930 . S
C701 C700 1.369 . S
C701 C710 1.429 . S
C702 C700 1.419 . S
C702 C703 1.363 . S
C702 H705 0.929 . S
C703 C702 1.363 . S
C703 C709 1.428 . S
H704 C700 0.930 . S
H705 C702 0.929 . S
S706 N707 1.613 . S
S706 N708 1.610 . S
N707 S706 1.613 . S
N707 C710 1.350 . S
N708 S706 1.610 . S
N708 C709 1.351 . S
C709 C703 1.428 . S
C709 N708 1.351 . S
C709 C710 1.434 . S
C710 C701 1.429 . S
C710 N707 1.350 . S
C710 C709 1.434 . S
C711 C712 1.369 . S
C711 C713 1.419 1_565 S
C711 H715 0.930 . S
C712 C711 1.369 . S
C712 C721 1.429 . S
C713 C711 1.419 1_545 S
C713 C714 1.363 . S
C713 H716 0.929 . S
C714 C713 1.363 . S
C714 C720 1.428 . S
H715 C711 0.930 . S
H716 C713 0.929 . S
S717 N718 1.613 . S
S717 N719 1.610 1_565 S
N718 S717 1.613 . S
N718 C721 1.350 . S
N719 S717 1.610 1_545 S
N719 C720 1.351 . S
C720 C714 1.428 . S
C720 N719 1.351 . S
C720 C721 1.434 1_545 S
C721 C712 1.429 . S
C721 N718 1.350 . S
C721 C720 1.434 1_565 S
C722 C723 1.369 . S
C722 C724 1.419 1_455 S
C722 H726 0.930 . S
C723 C722 1.369 . S
C723 C732 1.429 . S
C724 C722 1.419 1_655 S
C724 C725 1.363 . S
C724 H727 0.929 . S
C725 C724 1.363 . S
C725 C731 1.428 1_655 S
H726 C722 0.930 . S
H727 C724 0.929 . S
S728 N729 1.613 . S
S728 N730 1.610 . S
N729 S728 1.613 . S
N729 C732 1.350 . S
N730 S728 1.610 . S
N730 C731 1.351 . S
C731 C725 1.428 1_455 S
C731 N730 1.351 . S
C731 C732 1.434 . S
C732 C723 1.429 . S
C732 N729 1.350 . S
C732 C731 1.434 . S
C733 C734 1.369 . S
C733 C735 1.419 . S
C733 H737 0.930 . S
C734 C733 1.369 . S
C734 C743 1.429 . S
C735 C733 1.419 . S
C735 C736 1.363 . S
C735 H738 0.929 . S
C736 C735 1.363 . S
C736 C742 1.428 . S
H737 C733 0.930 . S
H738 C735 0.929 . S
S739 N740 1.613 . S
S739 N741 1.610 . S
N740 S739 1.613 . S
N740 C743 1.350 . S
N741 S739 1.610 . S
N741 C742 1.351 . S
C742 C736 1.428 . S
C742 N741 1.351 . S
C742 C743 1.434 . S
C743 C734 1.429 . S
C743 N740 1.350 . S
C743 C742 1.434 . S
C744 C745 1.369 . S
C744 C746 1.419 1_455 S
C744 H748 0.930 . S
C745 C744 1.369 . S
C745 C754 1.429 1_455 S
C746 C744 1.419 1_655 S
C746 C747 1.363 . S
C746 H749 0.929 . S
C747 C746 1.363 . S
C747 C753 1.428 . S
H748 C744 0.930 . S
H749 C746 0.929 . S
S750 N751 1.613 1_655 S
S750 N752 1.610 . S
N751 S750 1.613 1_455 S
N751 C754 1.350 1_455 S
N752 S750 1.610 . S
N752 C753 1.351 . S
C753 C747 1.428 . S
C753 N752 1.351 . S
C753 C754 1.434 . S
C754 C745 1.429 1_655 S
C754 N751 1.350 1_655 S
C754 C753 1.434 . S
C755 C756 1.369 . S
C755 C757 1.419 . S
C755 H759 0.930 . S
C756 C755 1.369 . S
C756 C765 1.429 . S
C757 C755 1.419 . S
C757 C758 1.363 . S
C757 H760 0.929 . S
C758 C757 1.363 . S
C758 C764 1.428 . S
H759 C755 0.930 . S
H760 C757 0.929 . S
S761 N762 1.613 . S
S761 N763 1.610 . S
N762 S761 1.613 . S
N762 C765 1.350 . S
N763 S761 1.610 . S
N763 C764 1.351 . S
C764 C758 1.428 . S
C764 N763 1.351 . S
C764 C765 1.434 . S
C765 C756 1.429 . S
C765 N762 1.350 . S
C765 C764 1.434 . S
C766 C767 1.369 1_545 S
C766 C768 1.419 . S
C766 H770 0.930 . S
C767 C766 1.369 1_565 S
C767 C776 1.429 1_565 S
C768 C766 1.419 . S
C768 C769 1.363 . S
C768 H771 0.929 . S
C769 C768 1.363 . S
C769 C775 1.428 . S
H770 C766 0.930 . S
H771 C768 0.929 . S
S772 N773 1.613 1_545 S
S772 N774 1.610 . S
N773 S772 1.613 1_565 S
N773 C776 1.350 1_565 S
N774 S772 1.610 . S
N774 C775 1.351 . S
C775 C769 1.428 . S
C775 N774 1.351 . S
C775 C776 1.434 . S
C776 C767 1.429 1_545 S
C776 N773 1.350 1_545 S
C776 C775 1.434 . S
C777 C778 1.369 . S
C777 C779 1.419 . S
C777 H781 0.930 . S
C778 C777 1.369 . S
C778 C787 1.429 . S
C779 C777 1.419 . S
C779 C780 1.363 . S
C779 H782 0.929 . S
C780 C779 1.363 . S
C780 C786 1.428 . S
H781 C777 0.930 . S
H782 C779 0.929 . S
S783 N784 1.613 . S
S783 N785 1.610 . S
N784 S783 1.613 . S
N784 C787 1.350 . S
N785 S783 1.610 . S
N785 C786 1.351 . S
C786 C780 1.428 . S
C786 N785 1.351 . S
C786 C787 1.434 . S
C787 C778 1.429 . S
C787 N784 1.350 . S
C787 C786 1.434 . S
C788 C789 1.369 . S
C788 C790 1.419 . S
C788 H792 0.930 . S
C789 C788 1.369 . S
C789 C798 1.429 . S
C790 C788 1.419 . S
C790 C791 1.363 . S
C790 H793 0.929 . S
C791 C790 1.363 . S
C791 C797 1.428 . S
H792 C788 0.930 . S
H793 C790 0.929 . S
S794 N795 1.613 . S
S794 N796 1.610 . S
N795 S794 1.613 . S
N795 C798 1.350 . S
N796 S794 1.610 . S
N796 C797 1.351 . S
C797 C791 1.428 . S
C797 N796 1.351 . S
C797 C798 1.434 . S
C798 C789 1.429 . S
C798 N795 1.350 . S
C798 C797 1.434 . S
C799 C800 1.369 . S
C799 C801 1.419 . S
C799 H803 0.930 . S
C800 C799 1.369 . S
C800 C809 1.429 . S
C801 C799 1.419 . S
C801 C802 1.363 . S
C801 H804 0.929 . S
C802 C801 1.363 . S
C802 C808 1.428 . S
H803 C799 0.930 . S
H804 C801 0.929 . S
S805 N806 1.613 . S
S805 N807 1.610 . S
N806 S805 1.613 . S
N806 C809 1.350 . S
N807 S805 1.610 . S
N807 C808 1.351 . S
C808 C802 1.428 . S
C808 N807 1.351 . S
C808 C809 1.434 . S
C809 C800 1.429 . S
C809 N806 1.350 . S
C809 C808 1.434 . S
C810 C811 1.369 . S
C810 C812 1.419 . S
C810 H814 0.930 . S
C811 C810 1.369 . S
C811 C820 1.429 . S
C812 C810 1.419 . S
C812 C813 1.363 . S
C812 H815 0.929 . S
C813 C812 1.363 . S
C813 C819 1.428 . S
H814 C810 0.930 . S
H815 C812 0.929 . S
S816 N817 1.613 . S
S816 N818 1.610 . S
N817 S816 1.613 . S
N817 C820 1.350 1_545 S
N818 S816 1.610 . S
N818 C819 1.351 1_545 S
C819 C813 1.428 . S
C819 N818 1.351 1_565 S
C819 C820 1.434 . S
C820 C811 1.429 . S
C820 N817 1.350 1_565 S
C820 C819 1.434 . S
C821 C822 1.369 . S
C821 C823 1.419 . S
C821 H825 0.930 . S
C822 C821 1.369 . S
C822 C831 1.429 . S
C823 C821 1.419 . S
C823 C824 1.363 . S
C823 H826 0.929 . S
C824 C823 1.363 . S
C824 C830 1.428 . S
H825 C821 0.930 . S
H826 C823 0.929 . S
S827 N828 1.613 1_655 S
S827 N829 1.610 1_655 S
N828 S827 1.613 1_455 S
N828 C831 1.350 . S
N829 S827 1.610 1_455 S
N829 C830 1.351 . S
C830 C824 1.428 . S
C830 N829 1.351 . S
C830 C831 1.434 . S
C831 C822 1.429 . S
C831 N828 1.350 . S
C831 C830 1.434 . S
C832 C833 1.369 . S
C832 C834 1.419 . S
C832 H836 0.930 . S
C833 C832 1.369 . S
C833 C842 1.429 . S
C834 C832 1.419 . S
C834 C835 1.363 . S
C834 H837 0.929 . S
C835 C834 1.363 . S
C835 C841 1.428 . S
H836 C832 0.930 . S
H837 C834 0.929 . S
S838 N839 1.613 . S
S838 N840 1.610 . S
N839 S838 1.613 . S
N839 C842 1.350 . S
N840 S838 1.610 . S
N840 C841 1.351 . S
C841 C835 1.428 . S
C841 N840 1.351 . S
C841 C842 1.434 . S
C842 C833 1.429 . S
C842 N839 1.350 . S
C842 C841 1.434 . S
C843 C844 1.369 . S
C843 C845 1.419 . S
C843 H847 0.930 . S
C844 C843 1.369 . S
C844 C853 1.429 . S
C845 C843 1.419 . S
C845 C846 1.363 . S
C845 H848 0.929 . S
C846 C845 1.363 . S
C846 C852 1.428 . S
H847 C843 0.930 . S
H848 C845 0.929 . S
S849 N850 1.613 . S
S849 N851 1.610 . S
N850 S849 1.613 . S
N850 C853 1.350 . S
N851 S849 1.610 . S
N851 C852 1.351 . S
C852 C846 1.428 . S
C852 N851 1.351 . S
C852 C853 1.434 . S
C853 C844 1.429 . S
C853 N850 1.350 . S
C853 C852 1.434 . S
C854 C855 1.369 . S
C854 C856 1.419 . S
C854 H858 0.930 . S
C855 C854 1.369 . S
C855 C864 1.429 . S
C856 C854 1.419 . S
C856 C857 1.363 . S
C856 H859 0.929 . S
C857 C856 1.363 . S
C857 C863 1.428 . S
H858 C854 0.930 . S
H859 C856 0.929 . S
S860 N861 1.613 . S
S860 N862 1.610 . S
N861 S860 1.613 . S
N861 C864 1.350 . S
N862 S860 1.610 . S
N862 C863 1.351 . S
C863 C857 1.428 . S
C863 N862 1.351 . S
C863 C864 1.434 . S
C864 C855 1.429 . S
C864 N861 1.350 . S
C864 C863 1.434 . S
C865 C866 1.369 . S
C865 C867 1.419 . S
C865 H869 0.930 . S
C866 C865 1.369 . S
C866 C875 1.429 . S
C867 C865 1.419 . S
C867 C868 1.363 . S
C867 H870 0.929 . S
C868 C867 1.363 . S
C868 C874 1.428 . S
H869 C865 0.930 . S
H870 C867 0.929 . S
S871 N872 1.613 1_565 S
S871 N873 1.610 . S
N872 S871 1.613 1_545 S
N872 C875 1.350 . S
N873 S871 1.610 . S
N873 C874 1.351 1_565 S
C874 C868 1.428 . S
C874 N873 1.351 1_545 S
C874 C875 1.434 . S
C875 C866 1.429 . S
C875 N872 1.350 . S
C875 C874 1.434 . S
C876 C877 1.369 . S
C876 C878 1.419 . S
C876 H880 0.930 . S
C877 C876 1.369 . S
C877 C886 1.429 . S
C878 C876 1.419 . S
C878 C879 1.363 . S
C878 H881 0.929 . S
C879 C878 1.363 . S
C879 C885 1.428 . S
H880 C876 0.930 . S
H881 C878 0.929 . S
S882 N883 1.613 . S
S882 N884 1.610 . S
N883 S882 1.613 . S
N883 C886 1.350 . S
N884 S882 1.610 . S
N884 C885 1.351 . S
C885 C879 1.428 . S
C885 N884 1.351 . S
C885 C886 1.434 . S
C886 C877 1.429 . S
C886 N883 1.350 . S
C886 C885 1.434 . S
C887 C888 1.369 . S
C887 C889 1.419 . S
C887 H891 0.930 . S
C888 C887 1.369 . S
C888 C897 1.429 . S
C889 C887 1.419 . S
C889 C890 1.363 . S
C889 H892 0.929 . S
C890 C889 1.363 . S
C890 C896 1.428 . S
H891 C887 0.930 . S
H892 C889 0.929 . S
S893 N894 1.613 . S
S893 N895 1.610 . S
N894 S893 1.613 . S
N894 C897 1.350 . S
N895 S893 1.610 . S
N895 C896 1.351 . S
C896 C890 1.428 . S
C896 N895 1.351 . S
C896 C897 1.434 . S
C897 C888 1.429 . S
C897 N894 1.350 . S
C897 C896 1.434 . S
C898 C899 1.369 . S
C898 C900 1.419 . S
C898 H902 0.930 . S
C899 C898 1.369 . S
C899 C908 1.429 . S
C900 C898 1.419 . S
C900 C901 1.363 . S
C900 H903 0.929 . S
C901 C900 1.363 . S
C901 C907 1.428 . S
H902 C898 0.930 . S
H903 C900 0.929 . S
S904 N905 1.613 . S
S904 N906 1.610 . S
N905 S904 1.613 . S
N905 C908 1.350 . S
N906 S904 1.610 . S
N906 C907 1.351 . S
C907 C901 1.428 . S
C907 N906 1.351 . S
C907 C908 1.434 . S
C908 C899 1.429 . S
C908 N905 1.350 . S
C908 C907 1.434 . S
C909 C910 1.369 . S
C909 C911 1.419 . S
C909 H913 0.930 . S
C910 C909 1.369 . S
C910 C919 1.429 . S
C911 C909 1.419 . S
C911 C912 1.363 . S
C911 H914 0.929 . S
C912 C911 1.363 . S
C912 C918 1.428 . S
H913 C909 0.930 . S
H914 C911 0.929 . S
S915 N916 1.613 . S
S915 N917 1.610 . S
N916 S915 1.613 . S
N916 C919 1.350 . S
N917 S915 1.610 . S
N917 C918 1.351 . S
C918 C912 1.428 . S
C918 N917 1.351 . S
C918 C919 1.434 . S
C919 C910 1.429 . S
C919 N916 1.350 . S
C919 C918 1.434 . S
C920 C921 1.369 . S
C920 C922 1.419 . S
C920 H924 0.930 . S
C921 C920 1.369 . S
C921 C930 1.429 . S
C922 C920 1.419 . S
C922 C923 1.363 . S
C922 H925 0.929 . S
C923 C922 1.363 . S
C923 C929 1.428 . S
H924 C920 0.930 . S
H925 C922 0.929 . S
S926 N927 1.613 . S
S926 N928 1.610 . S
N927 S926 1.613 . S
N927 C930 1.350 . S
N928 S926 1.610 . S
N928 C929 1.351 . S
C929 C923 1.428 . S
C929 N928 1.351 . S
C929 C930 1.434 . S
C930 C921 1.429 . S
C930 N927 1.350 . S
C930 C929 1.434 . S
C931 C932 1.369 . S
C931 C933 1.419 . S
C931 H935 0.930 . S
C932 C931 1.369 . S
C932 C941 1.429 . S
C933 C931 1.419 . S
C933 C934 1.363 . S
C933 H936 0.929 . S
C934 C933 1.363 . S
C934 C940 1.428 . S
H935 C931 0.930 . S
H936 C933 0.929 . S
S937 N938 1.613 . S
S937 N939 1.610 . S
N938 S937 1.613 . S
N938 C941 1.350 . S
N939 S937 1.610 . S
N939 C940 1.351 . S
C940 C934 1.428 . S
C940 N939 1.351 . S
C940 C941 1.434 . S
C941 C932 1.429 . S
C941 N938 1.350 . S
C941 C940 1.434 . S
C942 C943 1.369 . S
C942 C944 1.419 . S
C942 H946 0.930 . S
C943 C942 1.369 . S
C943 C952 1.429 . S
C944 C942 1.419 . S
C944 C945 1.363 . S
C944 H947 0.929 . S
C945 C944 1.363 . S
C945 C951 1.428 . S
H946 C942 0.930 . S
H947 C944 0.929 . S
S948 N949 1.613 . S
S948 N950 1.610 . S
N949 S948 1.613 . S
N949 C952 1.350 . S
N950 S948 1.610 . S
N950 C951 1.351 . S
C951 C945 1.428 . S
C951 N950 1.351 . S
C951 C952 1.434 . S
C952 C943 1.429 . S
C952 N949 1.350 . S
C952 C951 1.434 . S
C953 C954 1.369 . S
C953 C955 1.419 . S
C953 H957 0.930 . S
C954 C953 1.369 . S
C954 C963 1.429 . S
C955 C953 1.419 . S
C955 C956 1.363 . S
C955 H958 0.929 . S
C956 C955 1.363 . S
C956 C962 1.428 . S
H957 C953 0.930 . S
H958 C955 0.929 . S
S959 N960 1.613 . S
S959 N961 1.610 . S
N960 S959 1.613 . S
N960 C963 1.350 . S
N961 S959 1.610 . S
N961 C962 1.351 . S
C962 C956 1.428 . S
C962 N961 1.351 . S
C962 C963 1.434 . S
C963 C954 1.429 . S
C963 N960 1.350 . S
C963 C962 1.434 . S
C964 C965 1.369 . S
C964 C966 1.419 . S
C964 H968 0.930 . S
C965 C964 1.369 . S
C965 C974 1.429 . S
C966 C964 1.419 . S
C966 C967 1.363 . S
C966 H969 0.929 . S
C967 C966 1.363 . S
C967 C973 1.428 . S
H968 C964 0.930 . S
H969 C966 0.929 . S
S970 N971 1.613 . S
S970 N972 1.610 . S
N971 S970 1.613 . S
N971 C974 1.350 . S
N972 S970 1.610 . S
N972 C973 1.351 . S
C973 C967 1.428 . S
C973 N972 1.351 . S
C973 C974 1.434 . S
C974 C965 1.429 . S
C974 N971 1.350 . S
C974 C973 1.434 . S
C975 C976 1.369 . S
C975 C977 1.419 . S
C975 H979 0.930 . S
C976 C975 1.369 . S
C976 C985 1.429 . S
C977 C975 1.419 . S
C977 C978 1.363 . S
C977 H980 0.929 . S
C978 C977 1.363 . S
C978 C984 1.428 . S
H979 C975 0.930 . S
H980 C977 0.929 . S
S981 N982 1.613 . S
S981 N983 1.610 . S
N982 S981 1.613 . S
N982 C985 1.350 . S
N983 S981 1.610 . S
N983 C984 1.351 . S
C984 C978 1.428 . S
C984 N983 1.351 . S
C984 C985 1.434 . S
C985 C976 1.429 . S
C985 N982 1.350 . S
C985 C984 1.434 . S
C986 C987 1.369 . S
C986 C988 1.419 . S
C986 H990 0.930 . S
C987 C986 1.369 . S
C987 C996 1.429 . S
C988 C986 1.419 . S
C988 C989 1.363 . S
C988 H991 0.929 . S
C989 C988 1.363 . S
C989 C995 1.428 . S
H990 C986 0.930 . S
H991 C988 0.929 . S
S992 N993 1.613 . S
S992 N994 1.610 . S
N993 S992 1.613 . S
N993 C996 1.350 . S
N994 S992 1.610 . S
N994 C995 1.351 . S
C995 C989 1.428 . S
C995 N994 1.351 . S
C995 C996 1.434 . S
C996 C987 1.429 . S
C996 N993 1.350 . S
C996 C995 1.434 . S
C997 C998 1.369 . S
C997 C999 1.419 . S
C997 H1001 0.930 . S
C998 C997 1.369 . S
C998 C1007 1.429 . S
C999 C997 1.419 . S
C999 C1000 1.363 . S
C999 H1002 0.929 . S
C1000 C999 1.363 . S
C1000 C1006 1.428 . S
H1001 C997 0.930 . S
H1002 C999 0.929 . S
S1003 N1004 1.613 . S
S1003 N1005 1.610 . S
N1004 S1003 1.613 . S
N1004 C1007 1.350 . S
N1005 S1003 1.610 . S
N1005 C1006 1.351 . S
C1006 C1000 1.428 . S
C1006 N1005 1.351 . S
C1006 C1007 1.434 . S
C1007 C998 1.429 . S
C1007 N1004 1.350 . S
C1007 C1006 1.434 . S
C415 C177 1.549 . S
C417 C240 1.533 . S
C426 C190 1.491 . S
C428 C260 1.468 . S
C437 C164 1.505 . S
C439 C283 1.515 . S
C448 C151 1.446 . S
C450 C263 1.446 . S
C461 C280 1.452 . S
C459 C125 1.467 . S
C470 C138 1.504 . S
C472 C243 1.504 1_556 S
C483 C250 1.537 . S
C481 C147 1.550 . S
C494 C270 1.425 . S
C492 C121 1.402 . S
C503 C134 1.481 . S
C505 C275 1.545 1_556 S
C514 C173 1.409 . S
C516 C255 1.476 . S
C525 C186 1.450 . S
C527 C290 1.447 . S
C538 C235 1.558 . S
C536 C160 1.516 . S
C549 C300 1.529 . S
C547 C21 1.552 . S
C558 C34 1.490 . S
C560 C320 1.471 . S
C569 C8 1.509 . S
C571 C343 1.512 . S
C580 C229 1.442 . S
C582 C323 1.448 . S
C591 C203 1.467 . S
C593 C340 1.452 . S
C602 C216 1.506 . S
C604 C303 1.503 . S
C613 C225 1.552 . S
C615 C310 1.542 . S
C624 C199 1.407 . S
C626 C330 1.420 . S
C637 C335 1.549 . S
C635 C212 1.471 . S
C646 C17 1.416 1_565 S
C648 C315 1.474 . S
C659 C350 1.450 . S
C657 C30 1.453 . S
C668 C4 1.522 . S
C670 C295 1.555 . S
C681 C360 1.529 . S
C679 C99 1.552 . S
C690 C112 1.492 . S
C692 C380 1.466 . S
C703 C403 1.512 . S
C701 C86 1.508 . S
C714 C383 1.446 . S
C712 C73 1.445 . S
C725 C400 1.449 . S
C723 C47 1.467 . S
C734 C60 1.503 . S
C736 C363 1.505 . S
C745 C69 1.547 . S
C747 C370 1.543 . S
C756 C43 1.413 . S
C758 C390 1.425 . S
C769 C395 1.547 . S
C767 C56 1.470 . S
C778 C95 1.413 . S
C780 C375 1.478 . S
C789 C108 1.452 . S
C791 C410 1.450 . S
C800 C82 1.516 . S
C802 C355 1.555 . S
C811 C204 1.406 . S
C813 C253 1.350 . S
C824 C273 1.584 . S
C822 C217 1.670 . S
C833 C230 1.510 . S
C835 C282 1.480 . S
C844 C87 1.632 . S
C846 C262 1.585 . S
C855 C100 1.573 . S
C857 C293 1.503 . S
C868 C242 1.353 . S
C866 C113 1.379 . S
C877 C48 1.405 . S
C879 C313 1.355 . S
C888 C61 1.667 . S
C890 C333 1.591 . S
C899 C74 1.510 . S
C901 C342 1.482 . S
C910 C165 1.632 . S
C912 C322 1.586 . S
C923 C353 1.504 . S
C921 C178 1.573 . S
C932 C191 1.379 . S
C934 C302 1.357 . S
C943 C126 1.406 . S
C945 C373 1.355 . S
C954 C139 1.670 . S
C956 C393 1.584 . S
C967 C402 1.480 . S
C965 C152 1.515 . S
C976 C9 1.629 . S
C978 C382 1.584 . S
C987 C22 1.575 . S
C989 C413 1.501 . S
C998 C35 1.379 . S
C1000 C362 1.354 . S
