# Generated by pormake.
# Topology pto, (3,4)-cn, num edge types: 1
# Building blocks:
#     Node 0, Type 0, BuildingBlock: VETTIZ_charged_linker_0, # of connection points: 3
#     Node 1, Type 0, BuildingBlock: VETTIZ_charged_linker_0, # of connection points: 3
#     Node 2, Type 0, BuildingBlock: VETTIZ_charged_linker_0, # of connection points: 3
#     Node 3, Type 0, BuildingBlock: VETTIZ_charged_linker_0, # of connection points: 3
#     Node 4, Type 0, BuildingBlock: VETTIZ_charged_linker_0, # of connection points: 3
#     Node 5, Type 0, BuildingBlock: VETTIZ_charged_linker_0, # of connection points: 3
#     Node 6, Type 0, BuildingBlock: VETTIZ_charged_linker_0, # of connection points: 3
#     Node 7, Type 0, BuildingBlock: VETTIZ_charged_linker_0, # of connection points: 3
#     Node 8, Type 1, BuildingBlock: KOZSID_clean_sbu_0, # of connection points: 4
#     Node 9, Type 1, BuildingBlock: KOZSID_clean_sbu_0, # of connection points: 4
#     Node 10, Type 1, BuildingBlock: KOZSID_clean_sbu_0, # of connection points: 4
#     Node 11, Type 1, BuildingBlock: KOZSID_clean_sbu_0, # of connection points: 4
#     Node 12, Type 1, BuildingBlock: KOZSID_clean_sbu_0, # of connection points: 4
#     Node 13, Type 1, BuildingBlock: KOZSID_clean_sbu_0, # of connection points: 4
#     Edge 14, Type (0, 1), BuildingBlock: TEMPAE_clean_linker_10, # of connection points: 2
#     Edge 15, Type (0, 1), BuildingBlock: TEMPAE_clean_linker_10, # of connection points: 2
#     Edge 16, Type (0, 1), BuildingBlock: TEMPAE_clean_linker_10, # of connection points: 2
#     Edge 17, Type (0, 1), BuildingBlock: TEMPAE_clean_linker_10, # of connection points: 2
#     Edge 18, Type (0, 1), BuildingBlock: TEMPAE_clean_linker_10, # of connection points: 2
#     Edge 19, Type (0, 1), BuildingBlock: TEMPAE_clean_linker_10, # of connection points: 2
#     Edge 20, Type (0, 1), BuildingBlock: TEMPAE_clean_linker_10, # of connection points: 2
#     Edge 21, Type (0, 1), BuildingBlock: TEMPAE_clean_linker_10, # of connection points: 2
#     Edge 22, Type (0, 1), BuildingBlock: TEMPAE_clean_linker_10, # of connection points: 2
#     Edge 23, Type (0, 1), BuildingBlock: TEMPAE_clean_linker_10, # of connection points: 2
#     Edge 24, Type (0, 1), BuildingBlock: TEMPAE_clean_linker_10, # of connection points: 2
#     Edge 25, Type (0, 1), BuildingBlock: TEMPAE_clean_linker_10, # of connection points: 2
#     Edge 26, Type (0, 1), BuildingBlock: TEMPAE_clean_linker_10, # of connection points: 2
#     Edge 27, Type (0, 1), BuildingBlock: TEMPAE_clean_linker_10, # of connection points: 2
#     Edge 28, Type (0, 1), BuildingBlock: TEMPAE_clean_linker_10, # of connection points: 2
#     Edge 29, Type (0, 1), BuildingBlock: TEMPAE_clean_linker_10, # of connection points: 2
#     Edge 30, Type (0, 1), BuildingBlock: TEMPAE_clean_linker_10, # of connection points: 2
#     Edge 31, Type (0, 1), BuildingBlock: TEMPAE_clean_linker_10, # of connection points: 2
#     Edge 32, Type (0, 1), BuildingBlock: TEMPAE_clean_linker_10, # of connection points: 2
#     Edge 33, Type (0, 1), BuildingBlock: TEMPAE_clean_linker_10, # of connection points: 2
#     Edge 34, Type (0, 1), BuildingBlock: TEMPAE_clean_linker_10, # of connection points: 2
#     Edge 35, Type (0, 1), BuildingBlock: TEMPAE_clean_linker_10, # of connection points: 2
#     Edge 36, Type (0, 1), BuildingBlock: TEMPAE_clean_linker_10, # of connection points: 2
#     Edge 37, Type (0, 1), BuildingBlock: TEMPAE_clean_linker_10, # of connection points: 2
# Relax obj value: 0.000
# Max RMSD: 0.022
# Mean RMSD: 0.009
data_MOF--net-pto--node1-KOZSID_clean_sbu_0--node2-VETTIZ_charged_linker_0--edge1-TEMPAE_clean_linker_10
_symmetry_space_group_name_H-M    P1
_symmetry_Int_Tables_number       1
_symmetry_cell_setting            triclinic
loop_
_symmetry_equiv_pos_as_xyz
'x, y, z'
_cell_length_a     46.961165
_cell_length_b     63.433328
_cell_length_c     55.300314
_cell_angle_alpha  87.746148
_cell_angle_beta   87.348378
_cell_angle_gamma 92.541824
loop_
_atom_site_label
_atom_site_type_symbol
_atom_site_fract_x
_atom_site_fract_y
_atom_site_fract_z
_atom_type_partial_charge
C0 C 0.2428 0.20064 0.35859 0.0
C1 C 0.26018 0.18298 0.35831 0.0
C2 C 0.28479 0.18419 0.34237 0.0
C3 C 0.2732 0.21886 0.32702 0.0
C4 C 0.25021 0.21848 0.34348 0.0
C5 C 0.23621 0.23938 0.34383 0.0
H6 H 0.22551 0.33808 0.29488 0.0
C7 C 0.27513 0.23961 0.31393 0.0
C8 C 0.25405 0.25198 0.32416 0.0
H9 H 0.17867 0.30908 0.3575 0.0
H10 H 0.20528 0.27747 0.35368 0.0
H11 H 0.22735 0.29463 0.26223 0.0
H12 H 0.28479 0.32522 0.30975 0.0
H13 H 0.3063 0.3133 0.28787 0.0
H14 H 0.28323 0.3339 0.2786 0.0
H15 H 0.24375 0.32057 0.25636 0.0
H16 H 0.2618 0.29741 0.24799 0.0
C17 C 0.2049 0.23582 0.33682 0.0
C18 C 0.23955 0.24864 0.36917 0.0
C19 C 0.33973 0.25078 0.23781 0.0
C20 C 0.34658 0.26841 0.22189 0.0
C21 C 0.3349 0.28791 0.22749 0.0
C22 C 0.31584 0.28953 0.24751 0.0
C23 C 0.30857 0.27161 0.26256 0.0
C24 C 0.32127 0.25285 0.25813 0.0
C25 C 0.31345 0.23609 0.27764 0.0
C26 C 0.29233 0.24751 0.2935 0.0
C27 C 0.28929 0.26821 0.28436 0.0
C28 C 0.29914 0.21688 0.26584 0.0
C29 C 0.34077 0.23088 0.29107 0.0
C30 C 0.221 0.32482 0.30765 0.0
C31 C 0.19995 0.32585 0.32638 0.0
C32 C 0.1949 0.30854 0.34298 0.0
C33 C 0.21033 0.29025 0.34071 0.0
C34 C 0.23126 0.28937 0.3218 0.0
C35 C 0.23656 0.30657 0.30585 0.0
C36 C 0.26039 0.30313 0.28752 0.0
C37 C 0.26845 0.28098 0.29506 0.0
C38 C 0.25104 0.27292 0.31493 0.0
C39 C 0.24792 0.30405 0.26209 0.0
C40 C 0.28497 0.31977 0.29086 0.0
H41 H 0.30975 0.20147 0.3148 0.0
H42 H 0.22378 0.20096 0.37029 0.0
H43 H 0.25796 0.2421 0.37844 0.0
H44 H 0.24423 0.26592 0.36812 0.0
H45 H 0.22018 0.24504 0.38118 0.0
H46 H 0.20377 0.2258 0.32079 0.0
H47 H 0.19179 0.2277 0.35194 0.0
H48 H 0.1948 0.25061 0.33169 0.0
H49 H 0.34814 0.23551 0.23454 0.0
H50 H 0.34051 0.30211 0.2165 0.0
H51 H 0.30749 0.30473 0.2505 0.0
H52 H 0.2818 0.22203 0.25423 0.0
H53 H 0.31489 0.20878 0.25429 0.0
H54 H 0.28934 0.20509 0.27924 0.0
H55 H 0.35824 0.24318 0.2874 0.0
H56 H 0.33697 0.23032 0.31103 0.0
H57 H 0.34918 0.21561 0.2855 0.0
H58 H 0.29986 0.17182 0.34214 0.0
C59 C 0.29103 0.20176 0.32659 0.0
C60 C 0.20245 0.69945 0.71814 0.0
C61 C 0.18446 0.69729 0.69868 0.0
C62 C 0.18327 0.71423 0.68152 0.0
C63 C 0.21712 0.73508 0.70361 0.0
C64 C 0.21851 0.71835 0.72022 0.0
C65 C 0.23863 0.72311 0.73986 0.0
H66 H 0.32892 0.79234 0.79112 0.0
C67 C 0.23625 0.75251 0.71122 0.0
C68 C 0.24896 0.74553 0.73242 0.0
H69 H 0.30571 0.72777 0.8147 0.0
H70 H 0.27538 0.72425 0.781 0.0
H71 H 0.26636 0.80507 0.77681 0.0
H72 H 0.33786 0.78283 0.73528 0.0
H73 H 0.32234 0.8018 0.71675 0.0
H74 H 0.33693 0.80948 0.74491 0.0
H75 H 0.29824 0.82112 0.76941 0.0
H76 H 0.26919 0.81991 0.74924 0.0
C77 C 0.22116 0.72202 0.7644 0.0
C78 C 0.26307 0.7075 0.73832 0.0
C79 C 0.24419 0.82271 0.66299 0.0
C80 C 0.26016 0.84169 0.66584 0.0
C81 C 0.27832 0.84307 0.68537 0.0
C82 C 0.2805 0.82594 0.70182 0.0
C83 C 0.26435 0.80713 0.69881 0.0
C84 C 0.24667 0.80569 0.67959 0.0
C85 C 0.23137 0.78435 0.67919 0.0
C86 C 0.24271 0.7733 0.70139 0.0
C87 C 0.26193 0.78677 0.71282 0.0
C88 C 0.19889 0.78748 0.68216 0.0
C89 C 0.24081 0.77384 0.65548 0.0
C90 C 0.3175 0.77738 0.78893 0.0
C91 C 0.31966 0.76035 0.80574 0.0
C92 C 0.3041 0.74126 0.80229 0.0
C93 C 0.28661 0.73919 0.78259 0.0
C94 C 0.28459 0.75638 0.76603 0.0
C95 C 0.3 0.77503 0.7693 0.0
C96 C 0.2955 0.79153 0.74974 0.0
C97 C 0.27478 0.77972 0.73425 0.0
C98 C 0.26839 0.75919 0.74394 0.0
C99 C 0.28179 0.81054 0.76175 0.0
C100 C 0.32458 0.79692 0.73595 0.0
H101 H 0.19748 0.74546 0.67034 0.0
H102 H 0.20421 0.68662 0.73142 0.0
H103 H 0.26798 0.70341 0.71924 0.0
H104 H 0.28344 0.71422 0.74453 0.0
H105 H 0.25722 0.69255 0.74888 0.0
H106 H 0.19976 0.72854 0.76228 0.0
H107 H 0.21785 0.70545 0.77158 0.0
H108 H 0.23104 0.73159 0.77828 0.0
H109 H 0.23028 0.82107 0.64803 0.0
H110 H 0.29056 0.85758 0.68816 0.0
H111 H 0.29459 0.82807 0.71633 0.0
H112 H 0.19441 0.79987 0.69533 0.0
H113 H 0.19012 0.79252 0.66464 0.0
H114 H 0.18667 0.77322 0.68953 0.0
H115 H 0.26357 0.77815 0.6503 0.0
H116 H 0.23971 0.75642 0.65723 0.0
H117 H 0.22784 0.77898 0.64021 0.0
H118 H 0.16942 0.71301 0.66646 0.0
C119 C 0.19946 0.7331 0.68389 0.0
C120 C 0.82751 0.70916 0.32459 0.0
C121 C 0.82704 0.69147 0.30996 0.0
C122 C 0.81009 0.69172 0.28953 0.0
C123 C 0.79462 0.72657 0.29863 0.0
C124 C 0.81136 0.72649 0.31853 0.0
C125 C 0.8103 0.74684 0.33159 0.0
H126 H 0.75526 0.84316 0.34276 0.0
C127 C 0.78066 0.74696 0.29723 0.0
C128 C 0.78984 0.75898 0.31643 0.0
H129 H 0.81914 0.81482 0.38559 0.0
H130 H 0.81729 0.78381 0.36143 0.0
H131 H 0.71477 0.8 0.33661 0.0
H132 H 0.78327 0.83177 0.29312 0.0
H133 H 0.75947 0.82116 0.27279 0.0
H134 H 0.74761 0.84081 0.29329 0.0
H135 H 0.71189 0.82537 0.32155 0.0
H136 H 0.70481 0.80127 0.30629 0.0
C137 C 0.7978 0.74171 0.35766 0.0
C138 C 0.84071 0.75755 0.33026 0.0
C139 C 0.71271 0.76154 0.23034 0.0
C140 C 0.69695 0.77911 0.22396 0.0
C141 C 0.69829 0.79693 0.23844 0.0
C142 C 0.71501 0.79726 0.25878 0.0
C143 C 0.73078 0.77964 0.26475 0.0
C144 C 0.72949 0.7622 0.25059 0.0
C145 C 0.74817 0.7451 0.2593 0.0
C146 C 0.76097 0.75519 0.281 0.0
C147 C 0.75059 0.77535 0.28419 0.0
C148 C 0.72875 0.72533 0.26687 0.0
C149 C 0.77111 0.74153 0.23895 0.0
C150 C 0.7686 0.83014 0.34698 0.0
C151 C 0.78714 0.83117 0.36614 0.0
C152 C 0.8047 0.81422 0.37087 0.0
C153 C 0.80355 0.79628 0.35686 0.0
C154 C 0.78491 0.79542 0.33771 0.0
C155 C 0.76808 0.81229 0.33287 0.0
C156 C 0.75085 0.80917 0.31093 0.0
C157 C 0.75971 0.78749 0.30367 0.0
C158 C 0.77942 0.77942 0.31956 0.0
C159 C 0.71884 0.80905 0.31905 0.0
C160 C 0.76049 0.82664 0.29148 0.0
H161 H 0.78152 0.70822 0.26807 0.0
H162 H 0.84011 0.70956 0.34049 0.0
H163 H 0.85311 0.75328 0.31367 0.0
H164 H 0.84047 0.77498 0.32893 0.0
H165 H 0.85289 0.75268 0.34613 0.0
H166 H 0.77931 0.73014 0.3575 0.0
H167 H 0.81401 0.73471 0.36917 0.0
H168 H 0.78953 0.75561 0.36654 0.0
H169 H 0.71197 0.74747 0.21988 0.0
H170 H 0.68676 0.81083 0.23381 0.0
H171 H 0.71517 0.8113 0.26897 0.0
H172 H 0.70855 0.72995 0.27609 0.0
H173 H 0.72304 0.71633 0.25082 0.0
H174 H 0.73839 0.71462 0.28006 0.0
H175 H 0.77668 0.75638 0.22805 0.0
H176 H 0.79159 0.73675 0.24604 0.0
H177 H 0.76343 0.72955 0.22635 0.0
H178 H 0.80975 0.67862 0.27754 0.0
C179 C 0.79386 0.70906 0.28388 0.0
C180 C 0.7092 0.27396 0.80777 0.0
C181 C 0.6957 0.2549 0.81727 0.0
C182 C 0.70095 0.23614 0.80514 0.0
C183 C 0.73221 0.25552 0.77514 0.0
C184 C 0.72772 0.2738 0.78721 0.0
C185 C 0.74599 0.29225 0.77655 0.0
H186 H 0.8493 0.33038 0.69501 0.0
C187 C 0.75326 0.26065 0.75484 0.0
C188 C 0.76186 0.28205 0.75586 0.0
H189 H 0.80748 0.36302 0.75293 0.0
H190 H 0.77781 0.33185 0.76387 0.0
H191 H 0.78975 0.30649 0.6776 0.0
H192 H 0.85617 0.28758 0.72395 0.0
H193 H 0.84677 0.26582 0.70682 0.0
H194 H 0.86153 0.2898 0.69159 0.0
H195 H 0.82517 0.30166 0.66618 0.0
H196 H 0.79819 0.2806 0.67081 0.0
C197 C 0.72605 0.30925 0.76718 0.0
C198 C 0.76632 0.29982 0.79613 0.0
C199 C 0.7761 0.20515 0.69403 0.0
C200 C 0.79521 0.20507 0.67376 0.0
C201 C 0.81315 0.22306 0.66774 0.0
C202 C 0.81155 0.24116 0.68142 0.0
C203 C 0.79202 0.24117 0.70149 0.0
C204 C 0.77505 0.22322 0.70773 0.0
C205 C 0.7568 0.22562 0.73043 0.0
C206 C 0.76452 0.24834 0.73608 0.0
C207 C 0.78508 0.25739 0.71905 0.0
C208 C 0.72513 0.22259 0.72419 0.0
C209 C 0.76625 0.20974 0.75025 0.0
C210 C 0.83354 0.33085 0.70988 0.0
C211 C 0.83093 0.34914 0.72327 0.0
C212 C 0.81027 0.34903 0.74261 0.0
C213 C 0.79299 0.33092 0.74891 0.0
C214 C 0.79638 0.3126 0.73581 0.0
C215 C 0.81613 0.31282 0.71648 0.0
C216 C 0.81661 0.29185 0.70464 0.0
C217 C 0.79442 0.27891 0.72047 0.0
C218 C 0.78266 0.29118 0.73866 0.0
C219 C 0.80715 0.29516 0.67836 0.0
C220 C 0.84682 0.28324 0.7066 0.0
H221 H 0.72176 0.22163 0.77576 0.0
H222 H 0.70577 0.28883 0.81614 0.0
H223 H 0.77108 0.28661 0.80894 0.0
H224 H 0.78748 0.30566 0.78843 0.0
H225 H 0.75676 0.31232 0.80696 0.0
H226 H 0.7076 0.30178 0.75829 0.0
H227 H 0.71746 0.31848 0.78231 0.0
H228 H 0.73659 0.32025 0.75324 0.0
H229 H 0.76252 0.19131 0.69926 0.0
H230 H 0.82807 0.2232 0.65219 0.0
H231 H 0.82557 0.25445 0.67584 0.0
H232 H 0.72098 0.23188 0.70733 0.0
H233 H 0.71954 0.20572 0.7212 0.0
H234 H 0.7102 0.22805 0.73834 0.0
H235 H 0.7884 0.2048 0.74644 0.0
H236 H 0.76684 0.21671 0.76829 0.0
H237 H 0.75209 0.19521 0.75159 0.0
H238 H 0.69181 0.22103 0.8121 0.0
C239 C 0.71879 0.23641 0.78408 0.0
C240 C 0.78293 0.82808 0.66923 0.0
C241 C 0.76875 0.84689 0.67277 0.0
C242 C 0.74949 0.84794 0.69297 0.0
C243 C 0.7591 0.8121 0.70582 0.0
C244 C 0.77778 0.81096 0.68591 0.0
C245 C 0.79114 0.78986 0.68492 0.0
H246 H 0.81019 0.69389 0.73811 0.0
C247 C 0.75899 0.79179 0.71988 0.0
C248 C 0.77769 0.77866 0.70772 0.0
H249 H 0.84643 0.71951 0.66917 0.0
H250 H 0.82094 0.75129 0.67426 0.0
H251 H 0.8154 0.73613 0.7672 0.0
H252 H 0.7468 0.70817 0.72855 0.0
H253 H 0.73134 0.71864 0.75469 0.0
H254 H 0.75622 0.69791 0.75766 0.0
H255 H 0.7953 0.7127 0.77823 0.0
H256 H 0.78369 0.73866 0.78477 0.0
C257 C 0.82382 0.79355 0.68642 0.0
C258 C 0.78186 0.77912 0.66166 0.0
C259 C 0.69841 0.78143 0.79841 0.0
C260 C 0.69458 0.76463 0.81581 0.0
C261 C 0.70955 0.74611 0.81228 0.0
C262 C 0.72796 0.74435 0.79186 0.0
C263 C 0.73159 0.7613 0.77468 0.0
C264 C 0.71693 0.77943 0.77812 0.0
C265 C 0.72363 0.7959 0.75811 0.0
C266 C 0.74457 0.78459 0.74201 0.0
C267 C 0.74916 0.76435 0.75182 0.0
C268 C 0.73782 0.81554 0.76931 0.0
C269 C 0.69568 0.80018 0.74529 0.0
C270 C 0.81245 0.70619 0.72392 0.0
C271 C 0.83065 0.70411 0.70328 0.0
C272 C 0.83307 0.72076 0.68549 0.0
C273 C 0.81808 0.7392 0.6884 0.0
C274 C 0.80029 0.74109 0.70926 0.0
C275 C 0.79742 0.72462 0.72643 0.0
C276 C 0.77689 0.72909 0.74707 0.0
C277 C 0.76816 0.75107 0.73961 0.0
C278 C 0.78212 0.7581 0.71756 0.0
C279 C 0.79342 0.72904 0.77068 0.0
C280 C 0.7515 0.71259 0.74728 0.0
H281 H 0.72977 0.83257 0.72449 0.0
H282 H 0.79757 0.82665 0.65373 0.0
H283 H 0.76022 0.78377 0.65678 0.0
H284 H 0.77998 0.76171 0.6639 0.0
H285 H 0.79683 0.78364 0.646 0.0
H286 H 0.82877 0.80558 0.69993 0.0
H287 H 0.83377 0.79937 0.66865 0.0
H288 H 0.83457 0.77932 0.69253 0.0
H289 H 0.68705 0.7958 0.80039 0.0
H290 H 0.70735 0.73304 0.82554 0.0
H291 H 0.73879 0.72989 0.79033 0.0
H292 H 0.75112 0.81082 0.78457 0.0
H293 H 0.72151 0.82613 0.77649 0.0
H294 H 0.75272 0.82469 0.75644 0.0
H295 H 0.68223 0.78537 0.74434 0.0
H296 H 0.69944 0.80596 0.72627 0.0
H297 H 0.68287 0.81167 0.75521 0.0
H298 H 0.73853 0.86229 0.69628 0.0
C299 C 0.74457 0.83069 0.70945 0.0
C300 C 0.7971 0.20489 0.36385 0.0
C301 C 0.78277 0.1853 0.36069 0.0
C302 C 0.76465 0.18332 0.34119 0.0
C303 C 0.77523 0.21996 0.32858 0.0
C304 C 0.793 0.22192 0.34767 0.0
C305 C 0.80654 0.24382 0.34847 0.0
H306 H 0.82538 0.343 0.29861 0.0
C307 C 0.7756 0.24059 0.31516 0.0
C308 C 0.79387 0.25467 0.32676 0.0
H309 H 0.86405 0.31674 0.36183 0.0
H310 H 0.83775 0.28359 0.35779 0.0
H311 H 0.76305 0.32392 0.31185 0.0
H312 H 0.83138 0.30186 0.26637 0.0
H313 H 0.79966 0.29865 0.25096 0.0
H314 H 0.81197 0.32472 0.25863 0.0
H315 H 0.77145 0.33517 0.28196 0.0
H316 H 0.7471 0.31243 0.28717 0.0
C317 C 0.79659 0.25342 0.37259 0.0
C318 C 0.83929 0.24223 0.34495 0.0
C319 C 0.71737 0.2491 0.24038 0.0
C320 C 0.71309 0.26639 0.22441 0.0
C321 C 0.72682 0.28608 0.22855 0.0
C322 C 0.74465 0.28846 0.24797 0.0
C323 C 0.74885 0.271 0.26361 0.0
C324 C 0.73512 0.25179 0.25981 0.0
C325 C 0.74158 0.23512 0.27864 0.0
C326 C 0.7616 0.24749 0.29424 0.0
C327 C 0.7659 0.26844 0.28526 0.0
C328 C 0.71326 0.22796 0.29271 0.0
C329 C 0.75678 0.21723 0.26567 0.0
C330 C 0.82833 0.33006 0.31148 0.0
C331 C 0.84694 0.33247 0.33049 0.0
C332 C 0.8497 0.31535 0.34714 0.0
C333 C 0.83455 0.29606 0.34465 0.0
C334 C 0.81639 0.2938 0.32532 0.0
C335 C 0.81336 0.31071 0.30926 0.0
C336 C 0.79294 0.30556 0.28996 0.0
C337 C 0.78449 0.28267 0.29686 0.0
C338 C 0.79834 0.27584 0.31754 0.0
C339 C 0.76732 0.32004 0.2926 0.0
C340 C 0.80959 0.3079 0.26507 0.0
H341 H 0.7468 0.19792 0.31068 0.0
H342 H 0.81094 0.20702 0.37879 0.0
H343 H 0.84461 0.22999 0.3318 0.0
H344 H 0.85015 0.25692 0.33723 0.0
H345 H 0.84889 0.23781 0.36231 0.0
H346 H 0.77413 0.2482 0.37779 0.0
H347 H 0.81004 0.24843 0.38761 0.0
H348 H 0.79654 0.27084 0.37142 0.0
H349 H 0.70738 0.23371 0.23772 0.0
H350 H 0.72351 0.29979 0.2169 0.0
H351 H 0.75444 0.30384 0.25006 0.0
H352 H 0.69885 0.24134 0.29442 0.0
H353 H 0.70168 0.21529 0.28329 0.0
H354 H 0.71639 0.22248 0.31157 0.0
H355 H 0.77144 0.22381 0.25058 0.0
H356 H 0.77049 0.20824 0.27761 0.0
H357 H 0.7411 0.20611 0.25785 0.0
H358 H 0.75366 0.16836 0.33815 0.0
C359 C 0.7608 0.2005 0.32517 0.0
C360 C 0.26192 0.20044 0.68599 0.0
C361 C 0.24834 0.20094 0.66389 0.0
C362 C 0.23574 0.21962 0.65609 0.0
C363 C 0.24972 0.23666 0.69251 0.0
C364 C 0.2626 0.21845 0.69983 0.0
C365 C 0.27717 0.2208 0.72327 0.0
H366 H 0.31578 0.28245 0.81452 0.0
C367 C 0.25417 0.25244 0.71113 0.0
C368 C 0.2705 0.24329 0.72907 0.0
H369 H 0.33599 0.21764 0.8035 0.0
H370 H 0.30841 0.21737 0.76768 0.0
H371 H 0.25171 0.27594 0.80498 0.0
H372 H 0.32188 0.29948 0.75742 0.0
H373 H 0.29327 0.31634 0.75425 0.0
H374 H 0.30854 0.31291 0.78331 0.0
H375 H 0.26403 0.30311 0.80449 0.0
H376 H 0.23711 0.29388 0.7846 0.0
C377 C 0.26289 0.20454 0.74224 0.0
C378 C 0.30957 0.21829 0.71821 0.0
C379 C 0.20772 0.3233 0.70454 0.0
C380 C 0.20635 0.34026 0.72011 0.0
C381 C 0.22178 0.33971 0.74135 0.0
C382 C 0.2381 0.32244 0.74719 0.0
C383 C 0.23881 0.30538 0.73175 0.0
C384 C 0.2238 0.30598 0.71083 0.0
C385 C 0.22625 0.28603 0.69713 0.0
C386 C 0.24479 0.27329 0.7135 0.0
C387 C 0.25229 0.28482 0.73361 0.0
C388 C 0.19594 0.2756 0.69579 0.0
C389 C 0.2415 0.29178 0.67214 0.0
C390 C 0.31439 0.2683 0.8042 0.0
C391 C 0.32824 0.25011 0.81157 0.0
C392 C 0.32544 0.23181 0.7981 0.0
C393 C 0.30954 0.23174 0.77727 0.0
C394 C 0.29607 0.25012 0.76991 0.0
C395 C 0.29828 0.26789 0.78352 0.0
C396 C 0.28131 0.28559 0.77368 0.0
C397 C 0.26951 0.2758 0.75138 0.0
C398 C 0.27835 0.25509 0.74921 0.0
C399 C 0.25737 0.29007 0.79286 0.0
C400 C 0.30215 0.30473 0.76688 0.0
H401 H 0.22613 0.25115 0.6635 0.0
H402 H 0.27222 0.1864 0.6922 0.0
H403 H 0.31663 0.22518 0.69998 0.0
H404 H 0.32294 0.22679 0.7309 0.0
H405 H 0.31479 0.20138 0.71874 0.0
H406 H 0.23959 0.20248 0.73963 0.0
H407 H 0.2722 0.18883 0.74068 0.0
H408 H 0.26441 0.20958 0.76104 0.0
H409 H 0.19584 0.32325 0.68821 0.0
H410 H 0.22119 0.35271 0.75348 0.0
H411 H 0.24935 0.32298 0.7636 0.0
H412 H 0.18359 0.27672 0.71332 0.0
H413 H 0.18393 0.28353 0.68147 0.0
H414 H 0.19604 0.25857 0.69249 0.0
H415 H 0.25729 0.30526 0.67335 0.0
H416 H 0.25409 0.27882 0.66516 0.0
H417 H 0.22599 0.29641 0.65854 0.0
H418 H 0.22513 0.22031 0.63911 0.0
C419 C 0.23626 0.23745 0.67032 0.0
C420 C 0.19505 0.69969 0.31663 0.0
C421 C 0.19719 0.68174 0.30263 0.0
C422 C 0.21728 0.68224 0.28285 0.0
C423 C 0.2324 0.71815 0.2911 0.0
C424 C 0.21278 0.71765 0.31055 0.0
C425 C 0.21296 0.7382 0.32328 0.0
H426 H 0.27314 0.83576 0.33566 0.0
C427 C 0.2475 0.73913 0.28966 0.0
C428 C 0.23629 0.75094 0.3085 0.0
H429 H 0.19936 0.80614 0.37552 0.0
H430 H 0.2033 0.77531 0.35197 0.0
H431 H 0.25054 0.82384 0.285 0.0
H432 H 0.31095 0.79439 0.33014 0.0
H433 H 0.32516 0.79567 0.30004 0.0
H434 H 0.31772 0.81975 0.31487 0.0
H435 H 0.2865 0.83432 0.28641 0.0
H436 H 0.27702 0.81437 0.26542 0.0
C437 C 0.18335 0.74781 0.321 0.0
C438 C 0.22133 0.73375 0.34969 0.0
C439 C 0.32302 0.75675 0.22232 0.0
C440 C 0.34064 0.77486 0.21615 0.0
C441 C 0.33956 0.79226 0.23124 0.0
C442 C 0.32098 0.79174 0.25188 0.0
C443 C 0.30314 0.77366 0.25752 0.0
C444 C 0.30455 0.75651 0.24294 0.0
C445 C 0.2841 0.73863 0.25171 0.0
C446 C 0.2697 0.74806 0.27363 0.0
C447 C 0.28093 0.76856 0.27697 0.0
C448 C 0.26291 0.73443 0.23158 0.0
C449 C 0.30176 0.71946 0.25887 0.0
C450 C 0.25756 0.82281 0.33929 0.0
C451 C 0.23612 0.82355 0.35792 0.0
C452 C 0.21663 0.806 0.36188 0.0
C453 C 0.21873 0.78809 0.34797 0.0
C454 C 0.24029 0.78767 0.32955 0.0
C455 C 0.25893 0.80499 0.3252 0.0
C456 C 0.27909 0.80239 0.30368 0.0
C457 C 0.26989 0.78044 0.29623 0.0
C458 C 0.24742 0.77178 0.31167 0.0
C459 C 0.27331 0.81963 0.28406 0.0
C460 C 0.30995 0.8032 0.31243 0.0
H461 H 0.24969 0.69965 0.26175 0.0
H462 H 0.17957 0.69991 0.33175 0.0
H463 H 0.23944 0.72303 0.35015 0.0
H464 H 0.22867 0.74807 0.35868 0.0
H465 H 0.20316 0.72602 0.36076 0.0
H466 H 0.17291 0.74261 0.30445 0.0
H467 H 0.16876 0.74297 0.33682 0.0
H468 H 0.1848 0.76525 0.31896 0.0
H469 H 0.32307 0.74318 0.21102 0.0
H470 H 0.3532 0.80628 0.22712 0.0
H471 H 0.32114 0.80548 0.26259 0.0
H472 H 0.25726 0.74952 0.22244 0.0
H473 H 0.27233 0.72444 0.21752 0.0
H474 H 0.24235 0.72695 0.23858 0.0
H475 H 0.3226 0.7247 0.26596 0.0
H476 H 0.29128 0.70935 0.27372 0.0
H477 H 0.30632 0.70967 0.24305 0.0
H478 H 0.21958 0.66854 0.27195 0.0
C479 C 0.23487 0.7003 0.27703 0.0
C480 C 0.05982 0.54092 0.35527 0.0
C481 C 0.07005 0.54728 0.37709 0.0
C482 C 0.05457 0.53583 0.39496 0.0
C483 C 0.03595 0.52312 0.38306 0.0
N484 N 0.03868 0.52571 0.35865 0.0
Co485 Co 0.01629 0.51013 0.3344 0.0
N486 N 0.99166 0.49486 0.36069 0.0
C487 C 0.99201 0.4979 0.38474 0.0
C488 C 0.97246 0.48518 0.39831 0.0
C489 C 0.95892 0.4732 0.38196 0.0
C490 C 0.97117 0.47929 0.35931 0.0
N491 N 0.99501 0.49364 0.31019 0.0
C492 C 0.97511 0.47754 0.31369 0.0
C493 C 0.9672 0.46938 0.29192 0.0
C494 C 0.98288 0.48059 0.27401 0.0
C495 C 0.99947 0.4948 0.28582 0.0
N496 N 0.03982 0.52627 0.30805 0.0
C497 C 0.03729 0.52494 0.28388 0.0
C498 C 0.05521 0.53884 0.27026 0.0
C499 C 0.06979 0.54998 0.28669 0.0
C500 C 0.05994 0.54209 0.30949 0.0
N501 N 0.04419 0.48755 0.33544 0.0
C502 C 0.08112 0.45384 0.33625 0.0
C503 C 0.07767 0.46564 0.31487 0.0
C504 C 0.05906 0.48219 0.31481 0.0
C505 C 0.06639 0.45941 0.35734 0.0
C506 C 0.04846 0.47639 0.35662 0.0
N507 N 0.98837 0.53274 0.33333 0.0
C508 C 0.95696 0.55446 0.31076 0.0
C509 C 0.95147 0.56664 0.33085 0.0
C510 C 0.96423 0.56111 0.35241 0.0
C511 C 0.9822 0.54415 0.35331 0.0
C512 C 0.9754 0.53786 0.31233 0.0
H513 H 0.99111 0.54078 0.37032 0.0
H514 H 0.97897 0.52956 0.2962 0.0
H515 H 0.05677 0.4902 0.29777 0.0
H516 H 0.03809 0.48004 0.37338 0.0
C517 C 0.01349 0.51061 0.39418 0.0
C518 C 0.06992 0.55047 0.3319 0.0
C519 C 0.96372 0.46908 0.33721 0.0
C520 C 0.01879 0.50984 0.27456 0.0
H521 H 0.08652 0.55933 0.3798 0.0
H522 H 0.05599 0.53717 0.41432 0.0
H523 H 0.96929 0.48409 0.41784 0.0
H524 H 0.94249 0.46094 0.38624 0.0
H525 H 0.95188 0.45652 0.28929 0.0
H526 H 0.98238 0.47854 0.25469 0.0
H527 H 0.0574 0.54067 0.25071 0.0
H528 H 0.08575 0.56257 0.2824 0.0
H529 H 0.08866 0.46172 0.29809 0.0
H530 H 0.06878 0.45074 0.37435 0.0
H531 H 0.94709 0.55766 0.29377 0.0
H532 H 0.96091 0.57006 0.36849 0.0
C533 C 0.05627 0.55181 0.71505 0.0
C534 C 0.06434 0.55959 0.73697 0.0
C535 C 0.04925 0.54779 0.75475 0.0
C536 C 0.0328 0.53364 0.74273 0.0
N537 N 0.03679 0.53541 0.71834 0.0
Co538 Co 0.01539 0.51924 0.69391 0.0
N539 N 0.99255 0.50235 0.72008 0.0
C540 C 0.99546 0.50318 0.74425 0.0
C541 C 0.97788 0.48892 0.7577 0.0
C542 C 0.96308 0.4781 0.74113 0.0
C543 C 0.9725 0.4865 0.71844 0.0
N544 N 0.99289 0.50394 0.66948 0.0
C545 C 0.97188 0.48861 0.6727 0.0
C546 C 0.9615 0.48255 0.6508 0.0
C547 C 0.97672 0.49435 0.63307 0.0
C548 C 0.99534 0.50693 0.64511 0.0
N549 N 0.03925 0.53533 0.66776 0.0
C550 C 0.03865 0.53275 0.64363 0.0
C551 C 0.05771 0.54596 0.63018 0.0
C552 C 0.07118 0.55779 0.6467 0.0
C553 C 0.05938 0.55113 0.66933 0.0
N554 N 0.04388 0.49695 0.69397 0.0
C555 C 0.08225 0.46404 0.69486 0.0
C556 C 0.06869 0.46945 0.67373 0.0
C557 C 0.04998 0.486 0.67359 0.0
C558 C 0.07671 0.47554 0.7154 0.0
C559 C 0.05748 0.49167 0.71463 0.0
N560 N 0.987 0.54151 0.6939 0.0
C561 C 0.96357 0.5696 0.67299 0.0
C562 C 0.94985 0.57529 0.6946 0.0
C563 C 0.95441 0.56327 0.71569 0.0
C564 C 0.97298 0.5467 0.71497 0.0
C565 C 0.98167 0.5527 0.67301 0.0
H566 H 0.97586 0.53847 0.73177 0.0
H567 H 0.99146 0.54919 0.65594 0.0
H568 H 0.04062 0.4895 0.65681 0.0
H569 H 0.05376 0.49944 0.7311 0.0
C570 C 0.01392 0.5182 0.75379 0.0
C571 C 0.06704 0.56093 0.69163 0.0
C572 C 0.96204 0.47866 0.69593 0.0
C573 C 0.01741 0.5199 0.63408 0.0
H574 H 0.07934 0.5726 0.73981 0.0
H575 H 0.05001 0.54944 0.77412 0.0
H576 H 0.97598 0.4867 0.77723 0.0
H577 H 0.94721 0.46541 0.74526 0.0
H578 H 0.9451 0.47049 0.64795 0.0
H579 H 0.97509 0.49335 0.61368 0.0
H580 H 0.06061 0.54744 0.61065 0.0
H581 H 0.0873 0.5703 0.64255 0.0
H582 H 0.07263 0.46104 0.65732 0.0
H583 H 0.08663 0.47173 0.73223 0.0
H584 H 0.96099 0.57843 0.65613 0.0
H585 H 0.94378 0.56661 0.73281 0.0
C586 C 0.27006 0.98287 0.54702 0.0
C587 C 0.29734 0.97772 0.55303 0.0
C588 C 0.31586 0.98979 0.53796 0.0
C589 C 0.29891 0.0016 0.52372 0.0
N590 N 0.27064 0.99799 0.52898 0.0
Co591 Co 0.23841 0.01145 0.51259 0.0
N592 N 0.26555 0.02739 0.48867 0.0
C593 C 0.29426 0.02615 0.48669 0.0
C594 C 0.30698 0.03812 0.4677 0.0
C595 C 0.28516 0.04796 0.45721 0.0
C596 C 0.26035 0.04167 0.47076 0.0
N597 N 0.20624 0.02532 0.49644 0.0
C598 C 0.20695 0.0414 0.4794 0.0
C599 C 0.17973 0.04813 0.47542 0.0
C600 C 0.16125 0.03577 0.49016 0.0
C601 C 0.17806 0.02245 0.50257 0.0
N602 N 0.21124 0.99508 0.53624 0.0
C603 C 0.18243 0.99546 0.53745 0.0
C604 C 0.16949 0.98174 0.55476 0.0
C605 C 0.1913 0.9717 0.565 0.0
C606 C 0.21636 0.97998 0.55331 0.0
N607 N 0.2408 0.03528 0.53482 0.0
C608 C 0.24322 0.0709 0.56389 0.0
C609 C 0.21782 0.05883 0.56217 0.0
C610 C 0.21706 0.04136 0.54758 0.0
C611 C 0.26758 0.06444 0.55124 0.0
C612 C 0.26596 0.04666 0.53713 0.0
N613 N 0.23603 0.98763 0.49035 0.0
C614 C 0.20863 0.95995 0.47175 0.0
C615 C 0.23341 0.95212 0.46103 0.0
C616 C 0.25937 0.96286 0.46484 0.0
C617 C 0.26022 0.98013 0.47966 0.0
C618 C 0.21039 0.97773 0.48589 0.0
H619 H 0.28082 0.98698 0.48234 0.0
H620 H 0.19074 0.98299 0.4933 0.0
H621 H 0.19689 0.03319 0.54679 0.0
H622 H 0.28529 0.04262 0.52799 0.0
C623 C 0.30877 0.01448 0.50375 0.0
C624 C 0.24434 0.97227 0.5582 0.0
C625 C 0.23296 0.05121 0.46739 0.0
C626 C 0.16819 0.00844 0.52152 0.0
H627 H 0.30318 0.96605 0.56651 0.0
H628 H 0.3389 0.98942 0.53689 0.0
H629 H 0.32948 0.03992 0.4625 0.0
H630 H 0.28743 0.05911 0.44185 0.0
H631 H 0.17365 0.06103 0.46371 0.0
H632 H 0.13836 0.03699 0.49234 0.0
H633 H 0.14686 0.97902 0.55903 0.0
H634 H 0.189 0.95935 0.57912 0.0
H635 H 0.19844 0.06277 0.57203 0.0
H636 H 0.2878 0.07328 0.55173 0.0
H637 H 0.1879 0.95226 0.46971 0.0
H638 H 0.27921 0.95805 0.45648 0.0
C639 C 0.46941 0.79469 0.0464 0.0
C640 C 0.45928 0.81423 0.05203 0.0
C641 C 0.47418 0.82886 0.03711 0.0
C642 C 0.49233 0.81747 0.0232 0.0
N643 N 0.48974 0.7964 0.02815 0.0
Co644 Co 0.51193 0.774 0.01223 0.0
N645 N 0.53622 0.79571 0.99241 0.0
C646 C 0.53538 0.81695 0.99344 0.0
C647 C 0.55488 0.82778 0.97786 0.0
C648 C 0.56893 0.81257 0.96603 0.0
C649 C 0.55696 0.79326 0.97501 0.0
N650 N 0.53347 0.75155 0.99567 0.0
C651 C 0.55376 0.75329 0.97735 0.0
C652 C 0.56175 0.73361 0.97002 0.0
C653 C 0.54595 0.71893 0.98417 0.0
C654 C 0.52915 0.73039 0.99915 0.0
N655 N 0.48831 0.75231 0.03274 0.0
C656 C 0.49035 0.7311 0.03283 0.0
C657 C 0.4727 0.72035 0.04996 0.0
C658 C 0.45884 0.73561 0.06185 0.0
C659 C 0.46878 0.75486 0.0511 0.0
N660 N 0.48391 0.7729 0.9864 0.0
C661 C 0.44656 0.77092 0.94795 0.0
C662 C 0.45223 0.75281 0.96176 0.0
C663 C 0.47078 0.75414 0.9807 0.0
C664 C 0.45944 0.79013 0.95409 0.0
C665 C 0.47777 0.79076 0.97326 0.0
N666 N 0.53988 0.77508 0.03804 0.0
C667 C 0.56943 0.75723 0.06628 0.0
C668 C 0.57643 0.7762 0.07708 0.0
C669 C 0.56542 0.79469 0.06751 0.0
C670 C 0.54752 0.7938 0.04807 0.0
C671 C 0.55125 0.75702 0.04701 0.0
H672 H 0.53978 0.80843 0.04172 0.0
H673 H 0.54649 0.742 0.03985 0.0
H674 H 0.4743 0.73971 0.99032 0.0
H675 H 0.48699 0.80588 0.97686 0.0
C676 C 0.51424 0.82622 0.00748 0.0
C677 C 0.46 0.77514 0.05966 0.0
C678 C 0.56534 0.77311 0.96581 0.0
C679 C 0.50928 0.72176 0.01676 0.0
H680 H 0.44333 0.81757 0.06595 0.0
H681 H 0.47274 0.84585 0.03708 0.0
H682 H 0.55794 0.84472 0.97493 0.0
H683 H 0.58567 0.81536 0.95201 0.0
H684 H 0.57711 0.73017 0.9557 0.0
H685 H 0.54642 0.70192 0.98344 0.0
H686 H 0.47056 0.70346 0.05366 0.0
H687 H 0.44356 0.73285 0.07701 0.0
H688 H 0.44234 0.7376 0.95806 0.0
H689 H 0.45592 0.80461 0.94385 0.0
H690 H 0.5779 0.74251 0.07264 0.0
H691 H 0.56998 0.8098 0.0753 0.0
C692 C 0.82374 0.98898 0.55658 0.0
C693 C 0.8497 0.98345 0.56538 0.0
C694 C 0.87031 0.99543 0.55229 0.0
C695 C 0.8558 0.00757 0.53637 0.0
N696 N 0.82716 0.00418 0.53864 0.0
Co697 Co 0.79799 0.0185 0.51923 0.0
N698 N 0.82837 0.03365 0.49756 0.0
C699 C 0.85683 0.0313 0.49795 0.0
C700 C 0.87235 0.04368 0.48076 0.0
C701 C 0.85265 0.05469 0.46873 0.0
C702 C 0.82615 0.04837 0.4794 0.0
N703 N 0.76884 0.0338 0.50083 0.0
C704 C 0.77235 0.0493 0.48325 0.0
C705 C 0.74638 0.05663 0.47635 0.0
C706 C 0.72572 0.04561 0.49037 0.0
C707 C 0.74019 0.03227 0.50496 0.0
N708 N 0.76758 0.0023 0.53986 0.0
C709 C 0.73903 0.00317 0.5381 0.0
C710 C 0.7235 0.98918 0.55358 0.0
C711 C 0.74333 0.97838 0.56564 0.0
C712 C 0.76989 0.98651 0.55678 0.0
N713 N 0.79877 0.04193 0.54206 0.0
C714 C 0.79921 0.07664 0.57223 0.0
C715 C 0.77447 0.06395 0.57041 0.0
C716 C 0.77463 0.0469 0.55516 0.0
C717 C 0.82387 0.07151 0.5592 0.0
C718 C 0.8233 0.05405 0.5446 0.0
N719 N 0.79723 0.99509 0.49645 0.0
C720 C 0.77135 0.97199 0.4705 0.0
C721 C 0.7954 0.96023 0.4666 0.0
C722 C 0.82053 0.9664 0.47734 0.0
C723 C 0.8211 0.98393 0.49181 0.0
C724 C 0.77264 0.98914 0.48557 0.0
H725 H 0.84107 0.98802 0.4992 0.0
H726 H 0.75335 0.99714 0.4884 0.0
H727 H 0.75485 0.03819 0.55407 0.0
H728 H 0.84297 0.05083 0.53544 0.0
C729 C 0.86843 0.01968 0.51678 0.0
C730 C 0.79663 0.97837 0.56459 0.0
C731 C 0.79973 0.05784 0.47284 0.0
C732 C 0.7275 0.0176 0.52205 0.0
H733 H 0.8534 0.97147 0.57922 0.0
H734 H 0.89318 0.9946 0.5534 0.0
H735 H 0.89534 0.04525 0.47802 0.0
H736 H 0.85732 0.06653 0.45431 0.0
H737 H 0.74277 0.0688 0.46269 0.0
H738 H 0.70288 0.04716 0.49001 0.0
H739 H 0.70052 0.98697 0.55569 0.0
H740 H 0.7388 0.96578 0.57923 0.0
H741 H 0.75487 0.06749 0.58024 0.0
H742 H 0.84358 0.08088 0.56039 0.0
H743 H 0.75143 0.96763 0.46247 0.0
H744 H 0.83974 0.95778 0.47446 0.0
C745 C 0.47638 0.27427 0.05363 0.0
C746 C 0.46618 0.29385 0.05907 0.0
C747 C 0.48157 0.3085 0.04455 0.0
C748 C 0.49993 0.29708 0.03092 0.0
N749 N 0.4969 0.27596 0.03553 0.0
Co750 Co 0.51858 0.25349 0.01921 0.0
N751 N 0.54253 0.27515 0.99902 0.0
C752 C 0.54155 0.29641 0.99981 0.0
C753 C 0.56118 0.30721 0.98435 0.0
C754 C 0.57529 0.29197 0.97267 0.0
C755 C 0.56313 0.27265 0.98151 0.0
N756 N 0.54019 0.23102 0.00269 0.0
C757 C 0.55984 0.23266 0.98384 0.0
C758 C 0.56749 0.21288 0.97649 0.0
C759 C 0.55249 0.19831 0.99135 0.0
C760 C 0.53631 0.20987 0.00667 0.0
N761 N 0.4947 0.23185 0.03962 0.0
C762 C 0.49626 0.21061 0.03927 0.0
C763 C 0.47907 0.19984 0.05667 0.0
C764 C 0.46591 0.21506 0.06913 0.0
C765 C 0.4756 0.23439 0.05836 0.0
N766 N 0.49031 0.2525 0.99355 0.0
C767 C 0.45246 0.25112 0.95553 0.0
C768 C 0.4612 0.23256 0.96668 0.0
C769 C 0.47972 0.2336 0.9857 0.0
C770 C 0.46252 0.27037 0.96392 0.0
C771 C 0.48145 0.2707 0.98265 0.0
N772 N 0.5468 0.25449 0.04486 0.0
C773 C 0.57424 0.23671 0.07482 0.0
C774 C 0.58418 0.256 0.08335 0.0
C775 C 0.57556 0.27451 0.07187 0.0
C776 C 0.557 0.2734 0.05291 0.0
C777 C 0.55588 0.23633 0.05565 0.0
H778 H 0.55101 0.28809 0.04523 0.0
H779 H 0.54901 0.22113 0.05011 0.0
H780 H 0.48533 0.2189 0.9936 0.0
H781 H 0.48889 0.28588 0.98774 0.0
C782 C 0.52119 0.30578 0.01455 0.0
C783 C 0.46705 0.25474 0.06715 0.0
C784 C 0.57094 0.25249 0.97181 0.0
C785 C 0.51579 0.2013 0.02374 0.0
H786 H 0.44978 0.29727 0.07256 0.0
H787 H 0.47999 0.32547 0.04434 0.0
H788 H 0.56449 0.32414 0.98159 0.0
H789 H 0.59224 0.2948 0.95883 0.0
H790 H 0.58181 0.20917 0.96156 0.0
H791 H 0.5526 0.1813 0.99051 0.0
H792 H 0.4772 0.18295 0.06047 0.0
H793 H 0.4515 0.2121 0.08482 0.0
H794 H 0.45363 0.21728 0.96085 0.0
H795 H 0.45638 0.28515 0.95563 0.0
H796 H 0.58007 0.22189 0.08318 0.0
H797 H 0.58311 0.28988 0.0774 0.0
C798 C 0.18211 0.35572 0.35001 0.0
C799 C 0.18306 0.34485 0.32846 0.0
C800 C 0.16629 0.37389 0.35209 0.0
C801 C 0.15055 0.38094 0.33232 0.0
C802 C 0.15128 0.36984 0.3106 0.0
C803 C 0.16783 0.35204 0.30883 0.0
C804 C 0.16656 0.3856 0.37533 0.0
C805 C 0.13431 0.3766 0.28932 0.0
C806 C 0.08805 0.41557 0.34482 0.0
C807 C 0.09934 0.43543 0.3363 0.0
C808 C 0.10453 0.39768 0.34372 0.0
C809 C 0.13314 0.39987 0.33436 0.0
C810 C 0.14485 0.42003 0.32632 0.0
C811 C 0.12766 0.43755 0.32711 0.0
C812 C 0.09111 0.37639 0.352 0.0
C813 C 0.17544 0.42305 0.31671 0.0
H814 H 0.19412 0.35017 0.36509 0.0
H815 H 0.16848 0.34348 0.29224 0.0
H816 H 0.17405 0.40228 0.37144 0.0
H817 H 0.14463 0.38577 0.38363 0.0
H818 H 0.18057 0.37839 0.38871 0.0
H819 H 0.13673 0.36598 0.27393 0.0
H820 H 0.11134 0.3768 0.29497 0.0
H821 H 0.14125 0.39289 0.2829 0.0
H822 H 0.06603 0.41395 0.3517 0.0
H823 H 0.13637 0.45298 0.32066 0.0
H824 H 0.10352 0.3692 0.36651 0.0
H825 H 0.09155 0.36558 0.3367 0.0
H826 H 0.06865 0.37742 0.35893 0.0
H827 H 0.18998 0.41671 0.3302 0.0
H828 H 0.18171 0.43993 0.31244 0.0
H829 H 0.1786 0.41412 0.30003 0.0
C830 C 0.15227 0.6678 0.71698 0.0
C831 C 0.16687 0.67747 0.69648 0.0
C832 C 0.13596 0.64889 0.71539 0.0
C833 C 0.13425 0.63936 0.69274 0.0
C834 C 0.14879 0.64909 0.67194 0.0
C835 C 0.16489 0.66807 0.67405 0.0
C836 C 0.12059 0.63908 0.73796 0.0
C837 C 0.14757 0.63933 0.64753 0.0
C838 C 0.11377 0.5807 0.6948 0.0
C839 C 0.08468 0.58091 0.69052 0.0
C840 C 0.13035 0.59963 0.69505 0.0
C841 C 0.11737 0.61913 0.69098 0.0
C842 C 0.08799 0.61928 0.6862 0.0
C843 C 0.07197 0.60009 0.686 0.0
C844 C 0.1616 0.59881 0.70015 0.0
C845 C 0.07338 0.63972 0.68185 0.0
H846 H 0.1534 0.67516 0.7343 0.0
H847 H 0.17638 0.67536 0.6582 0.0
H848 H 0.09735 0.63741 0.73522 0.0
H849 H 0.12813 0.62299 0.74167 0.0
H850 H 0.12393 0.64858 0.75413 0.0
H851 H 0.15979 0.64901 0.63306 0.0
H852 H 0.15631 0.62336 0.64847 0.0
H853 H 0.12508 0.63736 0.64238 0.0
H854 H 0.12336 0.56571 0.69829 0.0
H855 H 0.04937 0.60004 0.68274 0.0
H856 H 0.16576 0.60675 0.71725 0.0
H857 H 0.17476 0.60745 0.68547 0.0
H858 H 0.16868 0.58236 0.70183 0.0
H859 H 0.07427 0.64926 0.69821 0.0
H860 H 0.05067 0.63705 0.67749 0.0
H861 H 0.08463 0.64917 0.66672 0.0
C862 C 0.87201 0.67594 0.3242 0.0
C863 C 0.84456 0.67301 0.31548 0.0
C864 C 0.88922 0.65875 0.32835 0.0
C865 C 0.87898 0.63816 0.32323 0.0
C866 C 0.85117 0.63502 0.31483 0.0
C867 C 0.83421 0.65243 0.31131 0.0
C868 C 0.91863 0.66268 0.33768 0.0
C869 C 0.83959 0.61332 0.30895 0.0
C870 C 0.93362 0.59787 0.30777 0.0
C871 C 0.93299 0.5851 0.32913 0.0
C872 C 0.91609 0.61511 0.30562 0.0
C873 C 0.89785 0.62003 0.32549 0.0
C874 C 0.89741 0.6075 0.34726 0.0
C875 C 0.91477 0.59007 0.34874 0.0
C876 C 0.91696 0.62797 0.282 0.0
C877 C 0.87852 0.61246 0.36894 0.0
H878 H 0.88042 0.69175 0.32722 0.0
H879 H 0.81283 0.64989 0.3051 0.0
H880 H 0.92153 0.65221 0.35384 0.0
H881 H 0.93503 0.65888 0.32364 0.0
H882 H 0.92252 0.67934 0.3426 0.0
H883 H 0.81727 0.61348 0.30313 0.0
H884 H 0.85312 0.60695 0.29422 0.0
H885 H 0.84029 0.60231 0.32497 0.0
H886 H 0.94803 0.59452 0.29267 0.0
H887 H 0.91378 0.5802 0.36522 0.0
H888 H 0.9235 0.64463 0.28507 0.0
H889 H 0.89535 0.62794 0.27467 0.0
H890 H 0.93198 0.62184 0.26814 0.0
H891 H 0.88306 0.62896 0.37409 0.0
H892 H 0.88152 0.60169 0.38486 0.0
H893 H 0.85579 0.61117 0.36431 0.0
C894 C 0.85622 0.37545 0.69363 0.0
C895 C 0.85013 0.36812 0.71766 0.0
C896 C 0.87427 0.39345 0.68828 0.0
C897 C 0.88659 0.40428 0.70742 0.0
C898 C 0.88064 0.39687 0.73168 0.0
C899 C 0.86249 0.3789 0.7365 0.0
C900 C 0.88005 0.40096 0.6622 0.0
C901 C 0.89353 0.4079 0.75259 0.0
C902 C 0.95368 0.43961 0.69639 0.0
C903 C 0.9425 0.45966 0.69677 0.0
C904 C 0.93562 0.42137 0.69908 0.0
C905 C 0.90576 0.42338 0.70225 0.0
C906 C 0.89441 0.44372 0.70197 0.0
C907 C 0.91301 0.46168 0.69927 0.0
C908 C 0.94853 0.39999 0.6993 0.0
C909 C 0.86273 0.44651 0.70528 0.0
H910 H 0.84652 0.36727 0.67902 0.0
H911 H 0.85825 0.37311 0.75508 0.0
H912 H 0.87302 0.41732 0.65955 0.0
H913 H 0.90331 0.4013 0.65756 0.0
H914 H 0.86893 0.39071 0.64942 0.0
H915 H 0.88674 0.40012 0.7704 0.0
H916 H 0.91716 0.40815 0.75055 0.0
H917 H 0.88725 0.42455 0.75257 0.0
H918 H 0.97661 0.43827 0.69451 0.0
H919 H 0.90463 0.47733 0.69961 0.0
H920 H 0.93839 0.38988 0.6859 0.0
H921 H 0.94446 0.39197 0.7174 0.0
H922 H 0.97193 0.40115 0.69513 0.0
H923 H 0.85105 0.43717 0.69204 0.0
H924 H 0.85724 0.46331 0.70304 0.0
H925 H 0.85507 0.44051 0.72366 0.0
C926 C 0.26476 0.14415 0.36947 0.0
C927 C 0.25325 0.1637 0.3747 0.0
C928 C 0.26027 0.12643 0.38538 0.0
C929 C 0.24182 0.12753 0.40618 0.0
C930 C 0.22863 0.14662 0.41096 0.0
C931 C 0.23533 0.16461 0.39579 0.0
C932 C 0.27579 0.10663 0.38006 0.0
C933 C 0.20747 0.14814 0.43218 0.0
C934 C 0.21644 0.07335 0.43239 0.0
C935 C 0.23252 0.07158 0.45302 0.0
C936 C 0.21763 0.09212 0.41797 0.0
C937 C 0.23713 0.10882 0.42321 0.0
C938 C 0.25361 0.10702 0.44394 0.0
C939 C 0.25033 0.08872 0.45904 0.0
C940 C 0.19844 0.09382 0.3969 0.0
C941 C 0.27587 0.12385 0.44945 0.0
H942 H 0.27752 0.14241 0.35297 0.0
H943 H 0.22651 0.17932 0.40089 0.0
H944 H 0.28613 0.10066 0.39647 0.0
H945 H 0.26041 0.09408 0.37478 0.0
H946 H 0.2924 0.10931 0.36516 0.0
H947 H 0.195 0.16258 0.43063 0.0
H948 H 0.19238 0.13412 0.43358 0.0
H949 H 0.21888 0.1486 0.44926 0.0
H950 H 0.20314 0.05998 0.42736 0.0
H951 H 0.26284 0.08731 0.47498 0.0
H952 H 0.21077 0.09115 0.3798 0.0
H953 H 0.18982 0.10981 0.39535 0.0
H954 H 0.18029 0.08193 0.39873 0.0
H955 H 0.29138 0.12647 0.43373 0.0
H956 H 0.28775 0.11955 0.4657 0.0
H957 H 0.26576 0.13903 0.45248 0.0
C958 C 0.36498 0.77304 0.82394 0.0
C959 C 0.33809 0.76244 0.82676 0.0
C960 C 0.38267 0.77496 0.84359 0.0
C961 C 0.37332 0.76595 0.86657 0.0
C962 C 0.34618 0.75531 0.86957 0.0
C963 C 0.32886 0.75374 0.84966 0.0
C964 C 0.41146 0.78648 0.8397 0.0
C965 C 0.33551 0.74547 0.89381 0.0
C966 C 0.42926 0.75282 0.91153 0.0
C967 C 0.42771 0.7697 0.92712 0.0
C968 C 0.41166 0.7514 0.89179 0.0
C969 C 0.39215 0.76733 0.8874 0.0
C970 C 0.39056 0.78449 0.90295 0.0
C971 C 0.4083 0.78544 0.92266 0.0
C972 C 0.41396 0.73285 0.87561 0.0
C973 C 0.37007 0.8018 0.89879 0.0
H974 H 0.37244 0.77956 0.80625 0.0
H975 H 0.30794 0.74582 0.85208 0.0
H976 H 0.41325 0.79957 0.85235 0.0
H977 H 0.4286 0.77556 0.84369 0.0
H978 H 0.41521 0.79309 0.82086 0.0
H979 H 0.31382 0.73784 0.89315 0.0
H980 H 0.35033 0.73342 0.89991 0.0
H981 H 0.33496 0.75768 0.90762 0.0
H982 H 0.44453 0.74079 0.91458 0.0
H983 H 0.40672 0.7984 0.93477 0.0
H984 H 0.41985 0.73853 0.85674 0.0
H985 H 0.39298 0.72411 0.87535 0.0
H986 H 0.43008 0.72172 0.88161 0.0
H987 H 0.37426 0.80929 0.88043 0.0
H988 H 0.37174 0.81422 0.91234 0.0
H989 H 0.34783 0.79504 0.89965 0.0
C990 C 0.81413 0.86181 0.3824 0.0
C991 C 0.7884 0.85001 0.38095 0.0
C992 C 0.81548 0.88003 0.39597 0.0
C993 C 0.79065 0.88621 0.40886 0.0
C994 C 0.76469 0.87413 0.40768 0.0
C995 C 0.7638 0.8563 0.39344 0.0
C996 C 0.84338 0.89277 0.39633 0.0
C997 C 0.73795 0.87992 0.42162 0.0
C998 C 0.80129 0.92175 0.4617 0.0
C999 C 0.79417 0.94136 0.45177 0.0
C1000 C 0.79989 0.9036 0.44803 0.0
C1001 C 0.79187 0.90527 0.42367 0.0
C1002 C 0.78498 0.92515 0.4135 0.0
C1003 C 0.78586 0.94294 0.42781 0.0
C1004 C 0.80674 0.88262 0.45969 0.0
C1005 C 0.77695 0.92764 0.38745 0.0
H1006 H 0.83306 0.85695 0.37252 0.0
H1007 H 0.74396 0.84704 0.39234 0.0
H1008 H 0.84041 0.9093 0.38993 0.0
H1009 H 0.85056 0.89331 0.41513 0.0
H1010 H 0.86048 0.88615 0.38476 0.0
H1011 H 0.7197 0.86856 0.41923 0.0
H1012 H 0.74196 0.88042 0.44121 0.0
H1013 H 0.73184 0.89591 0.4156 0.0
H1014 H 0.80749 0.92059 0.48034 0.0
H1015 H 0.78054 0.95819 0.42017 0.0
H1016 H 0.8252 0.87606 0.4498 0.0
H1017 H 0.78835 0.87115 0.45861 0.0
H1018 H 0.81184 0.88394 0.47901 0.0
H1019 H 0.79428 0.92212 0.37527 0.0
H1020 H 0.77295 0.94428 0.38213 0.0
H1021 H 0.75748 0.91772 0.38452 0.0
C1022 C 0.65434 0.23925 0.84397 0.0
C1023 C 0.67695 0.25448 0.83997 0.0
C1024 C 0.63727 0.23825 0.86554 0.0
C1025 C 0.64187 0.25347 0.88313 0.0
C1026 C 0.66402 0.26922 0.87906 0.0
C1027 C 0.68169 0.26921 0.8579 0.0
C1028 C 0.61443 0.22077 0.86959 0.0
C1029 C 0.66902 0.28618 0.89703 0.0
C1030 C 0.57996 0.26214 0.92773 0.0
C1031 C 0.58906 0.25236 0.94899 0.0
C1032 C 0.59718 0.26297 0.90627 0.0
C1033 C 0.62353 0.25294 0.90583 0.0
C1034 C 0.63252 0.24264 0.92716 0.0
C1035 C 0.61552 0.243 0.94867 0.0
C1036 C 0.5874 0.27491 0.88422 0.0
C1037 C 0.65996 0.2311 0.92723 0.0
H1038 H 0.64976 0.22805 0.83024 0.0
H1039 H 0.69941 0.28073 0.85565 0.0
H1040 H 0.61721 0.21211 0.88709 0.0
H1041 H 0.59306 0.22753 0.87067 0.0
H1042 H 0.61486 0.20932 0.85489 0.0
H1043 H 0.68561 0.29829 0.89025 0.0
H1044 H 0.6489 0.29416 0.90112 0.0
H1045 H 0.67582 0.27901 0.9143 0.0
H1046 H 0.55954 0.26949 0.92807 0.0
H1047 H 0.62271 0.23572 0.96524 0.0
H1048 H 0.58456 0.26404 0.86921 0.0
H1049 H 0.60391 0.2872 0.87786 0.0
H1050 H 0.56697 0.28263 0.88792 0.0
H1051 H 0.6603 0.21953 0.91269 0.0
H1052 H 0.6628 0.22259 0.94483 0.0
H1053 H 0.67844 0.24243 0.92342 0.0
C1054 C 0.23094 0.86613 0.64155 0.0
C1055 C 0.25775 0.86013 0.64879 0.0
C1056 C 0.22831 0.8841 0.6263 0.0
C1057 C 0.25309 0.8963 0.61806 0.0
C1058 C 0.28025 0.89011 0.62495 0.0
C1059 C 0.28224 0.87211 0.64024 0.0
C1060 C 0.19898 0.89024 0.61936 0.0
C1061 C 0.30718 0.90264 0.61639 0.0
C1062 C 0.24959 0.93345 0.5628 0.0
C1063 C 0.24658 0.95284 0.57357 0.0
C1064 C 0.25158 0.91484 0.57707 0.0
C1065 C 0.25062 0.91581 0.60264 0.0
C1066 C 0.24758 0.9355 0.61353 0.0
C1067 C 0.24558 0.95384 0.59879 0.0
C1068 C 0.25475 0.89416 0.56481 0.0
C1069 C 0.24654 0.93719 0.64071 0.0
H1070 H 0.21192 0.85706 0.6483 0.0
H1071 H 0.30305 0.86737 0.6455 0.0
H1072 H 0.19453 0.90601 0.62623 0.0
H1073 H 0.19802 0.89144 0.59935 0.0
H1074 H 0.18193 0.87872 0.62671 0.0
H1075 H 0.32668 0.89543 0.62294 0.0
H1076 H 0.30881 0.90385 0.5963 0.0
H1077 H 0.30648 0.91895 0.62285 0.0
H1078 H 0.25031 0.9329 0.5432 0.0
H1079 H 0.24326 0.96899 0.60691 0.0
H1080 H 0.23697 0.88285 0.571 0.0
H1081 H 0.27488 0.88703 0.56991 0.0
H1082 H 0.2549 0.89612 0.54475 0.0
H1083 H 0.22858 0.92703 0.64903 0.0
H1084 H 0.24389 0.95365 0.64627 0.0
H1085 H 0.26647 0.93143 0.64811 0.0
C1086 C 0.65267 0.78795 0.2026 0.0
C1087 C 0.67943 0.77892 0.20221 0.0
C1088 C 0.63597 0.78786 0.1822 0.0
C1089 C 0.64611 0.77829 0.16097 0.0
C1090 C 0.67303 0.7691 0.16043 0.0
C1091 C 0.68944 0.76966 0.18098 0.0
C1092 C 0.60742 0.79793 0.18339 0.0
C1093 C 0.68447 0.75862 0.13817 0.0
C1094 C 0.59161 0.76044 0.11652 0.0
C1095 C 0.59462 0.77664 0.09842 0.0
C1096 C 0.60838 0.7607 0.13687 0.0
C1097 C 0.62842 0.77771 0.13936 0.0
C1098 C 0.63153 0.79415 0.12125 0.0
C1099 C 0.61473 0.79336 0.10094 0.0
C1100 C 0.60458 0.7428 0.15573 0.0
C1101 C 0.65257 0.81262 0.12337 0.0
H1102 H 0.64455 0.79486 0.219 0.0
H1103 H 0.71029 0.76298 0.18032 0.0
H1104 H 0.60672 0.81031 0.16871 0.0
H1105 H 0.59014 0.78592 0.18052 0.0
H1106 H 0.60296 0.80519 0.20104 0.0
H1107 H 0.70568 0.75202 0.14078 0.0
H1108 H 0.66938 0.74565 0.1334 0.0
H1109 H 0.68639 0.77017 0.12253 0.0
H1110 H 0.57581 0.74765 0.11499 0.0
H1111 H 0.61753 0.80579 0.08691 0.0
H1112 H 0.59777 0.74898 0.17347 0.0
H1113 H 0.6252 0.73528 0.15813 0.0
H1114 H 0.5885 0.73052 0.15082 0.0
H1115 H 0.6478 0.82076 0.14038 0.0
H1116 H 0.65213 0.82427 0.10788 0.0
H1117 H 0.67451 0.80692 0.12429 0.0
C1118 C 0.77158 0.17871 0.64811 0.0
C1119 C 0.79624 0.18629 0.65883 0.0
C1120 C 0.77215 0.16097 0.63376 0.0
C1121 C 0.79783 0.15028 0.63063 0.0
C1122 C 0.82273 0.15778 0.64169 0.0
C1123 C 0.82171 0.17591 0.65544 0.0
C1124 C 0.74535 0.15377 0.62179 0.0
C1125 C 0.85032 0.14654 0.63923 0.0
C1126 C 0.79091 0.09334 0.61194 0.0
C1127 C 0.79918 0.09538 0.58728 0.0
C1128 C 0.7909 0.11104 0.62639 0.0
C1129 C 0.79862 0.13128 0.61572 0.0
C1130 C 0.80673 0.1334 0.59072 0.0
C1131 C 0.80725 0.11535 0.57685 0.0
C1132 C 0.78273 0.10809 0.65308 0.0
C1133 C 0.81443 0.15475 0.57855 0.0
H1134 H 0.75195 0.1869 0.65069 0.0
H1135 H 0.84069 0.18177 0.66392 0.0
H1136 H 0.74955 0.15347 0.60189 0.0
H1137 H 0.73871 0.13745 0.62829 0.0
H1138 H 0.72739 0.16419 0.62549 0.0
H1139 H 0.86753 0.1541 0.64948 0.0
H1140 H 0.84687 0.12985 0.6459 0.0
H1141 H 0.85762 0.14637 0.61988 0.0
H1142 H 0.78485 0.07782 0.61995 0.0
H1143 H 0.81342 0.11687 0.5577 0.0
H1144 H 0.76342 0.1169 0.65751 0.0
H1145 H 0.80013 0.11462 0.6639 0.0
H1146 H 0.77837 0.09121 0.65873 0.0
H1147 H 0.79633 0.16528 0.58087 0.0
H1148 H 0.81984 0.1537 0.55888 0.0
H1149 H 0.83293 0.16228 0.58718 0.0
C1150 C 0.38632 0.25129 0.19849 0.0
C1151 C 0.36537 0.26647 0.19951 0.0
C1152 C 0.40291 0.24859 0.17715 0.0
C1153 C 0.39965 0.26211 0.15661 0.0
C1154 C 0.37938 0.27792 0.15764 0.0
C1155 C 0.36204 0.27954 0.17877 0.0
C1156 C 0.42365 0.23107 0.1765 0.0
C1157 C 0.37595 0.29315 0.13638 0.0
C1158 C 0.46107 0.26733 0.1093 0.0
C1159 C 0.45 0.2559 0.09041 0.0
C1160 C 0.44478 0.26972 0.13084 0.0
C1161 C 0.41727 0.25964 0.13394 0.0
C1162 C 0.40631 0.2476 0.11513 0.0
C1163 C 0.42251 0.24639 0.0933 0.0
C1164 C 0.45671 0.28347 0.14999 0.0
C1165 C 0.37753 0.23597 0.11805 0.0
H1166 H 0.38992 0.2414 0.21435 0.0
H1167 H 0.34561 0.29098 0.17876 0.0
H1168 H 0.41927 0.22082 0.16115 0.0
H1169 H 0.44578 0.23779 0.17349 0.0
H1170 H 0.42241 0.22111 0.19353 0.0
H1171 H 0.36117 0.30577 0.14089 0.0
H1172 H 0.39697 0.30065 0.1302 0.0
H1173 H 0.36757 0.28453 0.12097 0.0
H1174 H 0.48229 0.2748 0.10693 0.0
H1175 H 0.41379 0.23789 0.07849 0.0
H1176 H 0.45844 0.27407 0.16714 0.0
H1177 H 0.44201 0.29628 0.15383 0.0
H1178 H 0.47811 0.29071 0.14442 0.0
H1179 H 0.37619 0.22595 0.13502 0.0
H1180 H 0.37329 0.2258 0.1026 0.0
H1181 H 0.36044 0.24742 0.11952 0.0
C1182 C 0.83544 0.66486 0.70834 0.0
C1183 C 0.84733 0.68482 0.70052 0.0
C1184 C 0.8514 0.64671 0.70694 0.0
C1185 C 0.87981 0.64846 0.69712 0.0
C1186 C 0.89173 0.66842 0.68862 0.0
C1187 C 0.87546 0.68636 0.69061 0.0
C1188 C 0.83802 0.62573 0.71639 0.0
C1189 C 0.92188 0.67089 0.6778 0.0
C1190 C 0.93151 0.60694 0.7152 0.0
C1191 C 0.93147 0.59387 0.69529 0.0
C1192 C 0.91453 0.62456 0.71614 0.0
C1193 C 0.89742 0.62953 0.69649 0.0
C1194 C 0.89734 0.61654 0.67626 0.0
C1195 C 0.91417 0.59878 0.67598 0.0
C1196 C 0.915 0.63792 0.73815 0.0
C1197 C 0.87959 0.62147 0.65485 0.0
H1198 H 0.81358 0.66338 0.71559 0.0
H1199 H 0.88505 0.70169 0.68484 0.0
H1200 H 0.83853 0.61414 0.70189 0.0
H1201 H 0.85048 0.61934 0.73136 0.0
H1202 H 0.81555 0.62699 0.72319 0.0
H1203 H 0.92741 0.68727 0.67075 0.0
H1204 H 0.93716 0.66663 0.69169 0.0
H1205 H 0.92475 0.65998 0.66277 0.0
H1206 H 0.94518 0.6036 0.73001 0.0
H1207 H 0.9136 0.58866 0.66066 0.0
H1208 H 0.89305 0.63893 0.74621 0.0
H1209 H 0.92297 0.65423 0.7328 0.0
H1210 H 0.92874 0.63151 0.75225 0.0
H1211 H 0.8567 0.62144 0.66078 0.0
H1212 H 0.88217 0.60995 0.64038 0.0
H1213 H 0.88571 0.63752 0.64708 0.0
C1214 C 0.87727 0.36287 0.31195 0.0
C1215 C 0.8638 0.35262 0.33262 0.0
C1216 C 0.89334 0.38189 0.31356 0.0
C1217 C 0.89596 0.39093 0.3364 0.0
C1218 C 0.88241 0.38069 0.35735 0.0
C1219 C 0.86653 0.36162 0.35522 0.0
C1220 C 0.90762 0.39227 0.29083 0.0
C1221 C 0.88462 0.38993 0.38198 0.0
C1222 C 0.95878 0.4299 0.34215 0.0
C1223 C 0.94594 0.44917 0.33864 0.0
C1224 C 0.94262 0.41077 0.342 0.0
C1225 C 0.91299 0.41108 0.33826 0.0
C1226 C 0.8999 0.43066 0.33523 0.0
C1227 C 0.91663 0.44954 0.33542 0.0
C1228 C 0.95736 0.39025 0.34523 0.0
C1229 C 0.8684 0.43164 0.33124 0.0
H1230 H 0.87558 0.35583 0.2945 0.0
H1231 H 0.85591 0.35388 0.3712 0.0
H1232 H 0.9 0.40845 0.28801 0.0
H1233 H 0.93103 0.39379 0.29274 0.0
H1234 H 0.9034 0.38323 0.27447 0.0
H1235 H 0.87281 0.38002 0.39648 0.0
H1236 H 0.90733 0.39165 0.38656 0.0
H1237 H 0.87604 0.40595 0.38173 0.0
H1238 H 0.98157 0.42985 0.34457 0.0
H1239 H 0.90696 0.4646 0.33266 0.0
H1240 H 0.95573 0.38109 0.32863 0.0
H1241 H 0.94671 0.38048 0.3604 0.0
H1242 H 0.98028 0.39278 0.34895 0.0
H1243 H 0.86343 0.42418 0.31402 0.0
H1244 H 0.86129 0.44812 0.33041 0.0
H1245 H 0.85585 0.42263 0.34602 0.0
C1246 C 0.19042 0.36895 0.69209 0.0
C1247 C 0.18818 0.35821 0.71478 0.0
C1248 C 0.17378 0.38635 0.68722 0.0
C1249 C 0.15409 0.39284 0.70532 0.0
C1250 C 0.15139 0.38173 0.7281 0.0
C1251 C 0.16865 0.36467 0.73261 0.0
C1252 C 0.17758 0.39801 0.66287 0.0
C1253 C 0.1303 0.3879 0.74773 0.0
C1254 C 0.1285 0.44878 0.70535 0.0
C1255 C 0.1015 0.44618 0.69581 0.0
C1256 C 0.14629 0.43169 0.70769 0.0
C1257 C 0.13658 0.41145 0.70076 0.0
C1258 C 0.1095 0.40883 0.69073 0.0
C1259 C 0.09237 0.42629 0.68818 0.0
C1260 C 0.17522 0.4352 0.71806 0.0
C1261 C 0.09819 0.38744 0.68352 0.0
H1262 H 0.20566 0.364 0.67836 0.0
H1263 H 0.16668 0.35619 0.75006 0.0
H1264 H 0.15697 0.39808 0.65385 0.0
H1265 H 0.18442 0.41472 0.66536 0.0
H1266 H 0.19364 0.39087 0.65071 0.0
H1267 H 0.1301 0.37715 0.76409 0.0
H1268 H 0.13562 0.40422 0.75312 0.0
H1269 H 0.10849 0.38777 0.74082 0.0
H1270 H 0.13564 0.46421 0.71105 0.0
H1271 H 0.07137 0.42425 0.681 0.0
H1272 H 0.19204 0.4291 0.7058 0.0
H1273 H 0.17585 0.42635 0.73571 0.0
H1274 H 0.18042 0.45216 0.72088 0.0
H1275 H 0.11357 0.38051 0.67061 0.0
H1276 H 0.07726 0.38824 0.67504 0.0
H1277 H 0.09567 0.37654 0.69975 0.0
C1278 C 0.1737 0.6548 0.33242 0.0
C1279 C 0.17841 0.66258 0.3084 0.0
C1280 C 0.15627 0.63653 0.33798 0.0
C1281 C 0.14315 0.6259 0.31909 0.0
C1282 C 0.14769 0.63377 0.29484 0.0
C1283 C 0.16528 0.652 0.2898 0.0
C1284 C 0.15203 0.62851 0.36403 0.0
C1285 C 0.1339 0.62295 0.27421 0.0
C1286 C 0.11846 0.56813 0.32695 0.0
C1287 C 0.08903 0.56971 0.33078 0.0
C1288 C 0.13653 0.58635 0.32385 0.0
C1289 C 0.12467 0.60649 0.32452 0.0
C1290 C 0.09491 0.60804 0.32905 0.0
C1291 C 0.07739 0.58955 0.33213 0.0
C1292 C 0.16813 0.58406 0.31914 0.0
C1293 C 0.08147 0.6292 0.32985 0.0
H1294 H 0.18404 0.66281 0.34683 0.0
H1295 H 0.16853 0.65813 0.27125 0.0
H1296 H 0.12899 0.62774 0.36956 0.0
H1297 H 0.15962 0.61225 0.36596 0.0
H1298 H 0.16359 0.63868 0.37661 0.0
H1299 H 0.13954 0.63114 0.25639 0.0
H1300 H 0.1406 0.60643 0.27351 0.0
H1301 H 0.11035 0.62232 0.2772 0.0
H1302 H 0.12719 0.55263 0.32587 0.0
H1303 H 0.0545 0.59054 0.33503 0.0
H1304 H 0.18038 0.59333 0.33209 0.0
H1305 H 0.17463 0.59045 0.30064 0.0
H1306 H 0.17414 0.56733 0.32072 0.0
H1307 H 0.09211 0.63923 0.34307 0.0
H1308 H 0.05827 0.62767 0.33489 0.0
H1309 H 0.08442 0.63755 0.31184 0.0
C1310 C 0.75147 0.87742 0.64828 0.0
C1311 C 0.77417 0.86548 0.65571 0.0
C1312 C 0.75631 0.89549 0.63294 0.0
C1313 C 0.78455 0.90178 0.62479 0.0
C1314 C 0.80754 0.88963 0.63191 0.0
C1315 C 0.80207 0.87161 0.64729 0.0
C1316 C 0.7312 0.90797 0.62562 0.0
C1317 C 0.83793 0.89586 0.62359 0.0
C1318 C 0.79234 0.93914 0.56928 0.0
C1319 C 0.79601 0.95866 0.57989 0.0
C1320 C 0.78937 0.92037 0.58364 0.0
C1321 C 0.78993 0.92131 0.60918 0.0
C1322 C 0.79426 0.94108 0.61987 0.0
C1323 C 0.79724 0.95958 0.60503 0.0
C1324 C 0.78487 0.89964 0.57157 0.0
C1325 C 0.79493 0.94273 0.64699 0.0
H1326 H 0.72982 0.87259 0.65442 0.0
H1327 H 0.81974 0.86258 0.65317 0.0
H1328 H 0.73362 0.92432 0.63193 0.0
H1329 H 0.73051 0.90911 0.60559 0.0
H1330 H 0.71054 0.90078 0.63321 0.0
H1331 H 0.8533 0.88437 0.63014 0.0
H1332 H 0.83991 0.89711 0.60351 0.0
H1333 H 0.84395 0.91164 0.63026 0.0
H1334 H 0.79129 0.93866 0.54975 0.0
H1335 H 0.79992 0.97483 0.61304 0.0
H1336 H 0.7634 0.89255 0.57703 0.0
H1337 H 0.80073 0.88832 0.57755 0.0
H1338 H 0.78666 0.90152 0.55149 0.0
H1339 H 0.77391 0.93733 0.65558 0.0
H1340 H 0.79993 0.95914 0.65233 0.0
H1341 H 0.81108 0.9323 0.65435 0.0
C1342 C 0.66885 0.25159 0.20612 0.0
C1343 C 0.69438 0.26402 0.20359 0.0
C1344 C 0.65086 0.24948 0.18669 0.0
C1345 C 0.6584 0.26025 0.16424 0.0
C1346 C 0.68417 0.27273 0.1615 0.0
C1347 C 0.70191 0.27436 0.18114 0.0
C1348 C 0.62363 0.23591 0.19025 0.0
C1349 C 0.69288 0.28454 0.13788 0.0
C1350 C 0.62455 0.24237 0.10692 0.0
C1351 C 0.60308 0.25687 0.10423 0.0
C1352 C 0.64247 0.2431 0.12654 0.0
C1353 C 0.63907 0.25885 0.14374 0.0
C1354 C 0.61744 0.2735 0.14118 0.0
C1355 C 0.59962 0.27226 0.12157 0.0
C1356 C 0.66518 0.22709 0.12877 0.0
C1357 C 0.61322 0.29059 0.1591 0.0
H1358 H 0.66263 0.24376 0.22345 0.0
H1359 H 0.72182 0.28369 0.17884 0.0
H1360 H 0.60496 0.24575 0.18776 0.0
H1361 H 0.623 0.2237 0.17643 0.0
H1362 H 0.6214 0.22793 0.20853 0.0
H1363 H 0.71365 0.29352 0.13869 0.0
H1364 H 0.69454 0.27332 0.12304 0.0
H1365 H 0.67634 0.29575 0.13313 0.0
H1366 H 0.62766 0.23059 0.09349 0.0
H1367 H 0.58276 0.28328 0.11995 0.0
H1368 H 0.66256 0.21847 0.14664 0.0
H1369 H 0.68661 0.23526 0.12781 0.0
H1370 H 0.66445 0.21544 0.11431 0.0
H1371 H 0.60863 0.28341 0.17756 0.0
H1372 H 0.59547 0.3008 0.15448 0.0
H1373 H 0.63309 0.30066 0.15969 0.0
C1374 C 0.23815 0.16232 0.65958 0.0
C1375 C 0.2474 0.18203 0.64903 0.0
C1376 C 0.23723 0.14421 0.6458 0.0
C1377 C 0.24629 0.14583 0.62098 0.0
C1378 C 0.25584 0.1657 0.61028 0.0
C1379 C 0.25603 0.18362 0.62441 0.0
C1380 C 0.22639 0.12339 0.65774 0.0
C1381 C 0.26612 0.16798 0.584 0.0
C1382 C 0.26822 0.09551 0.59152 0.0
C1383 C 0.24413 0.09017 0.57851 0.0
C1384 C 0.26935 0.11371 0.60516 0.0
C1385 C 0.24565 0.12672 0.60621 0.0
C1386 C 0.22122 0.1214 0.59327 0.0
C1387 C 0.22087 0.10334 0.57941 0.0
C1388 C 0.29591 0.11899 0.61851 0.0
C1389 C 0.19539 0.13477 0.59414 0.0
H1390 H 0.23125 0.16114 0.67859 0.0
H1391 H 0.26345 0.19884 0.61632 0.0
H1392 H 0.2079 0.11699 0.64811 0.0
H1393 H 0.24322 0.11171 0.65655 0.0
H1394 H 0.21973 0.12489 0.67712 0.0
H1395 H 0.27327 0.18449 0.57854 0.0
H1396 H 0.28414 0.15758 0.58061 0.0
H1397 H 0.2488 0.1629 0.57224 0.0
H1398 H 0.28615 0.08533 0.5913 0.0
H1399 H 0.20237 0.09968 0.56907 0.0
H1400 H 0.29065 0.11895 0.63827 0.0
H1401 H 0.30448 0.13511 0.61285 0.0
H1402 H 0.31288 0.10765 0.61518 0.0
H1403 H 0.18731 0.13602 0.61318 0.0
H1404 H 0.17782 0.1282 0.58349 0.0
H1405 H 0.20134 0.15101 0.58694 0.0
C1406 C 0.3617 0.79394 0.17846 0.0
C1407 C 0.35953 0.77571 0.19377 0.0
C1408 C 0.37846 0.79463 0.15672 0.0
C1409 C 0.39336 0.77665 0.15013 0.0
C1410 C 0.3916 0.75831 0.16566 0.0
C1411 C 0.37474 0.75808 0.1873 0.0
C1412 C 0.37982 0.81446 0.14061 0.0
C1413 C 0.40728 0.73885 0.15929 0.0
C1414 C 0.4137 0.76981 0.08371 0.0
C1415 C 0.44269 0.77599 0.08268 0.0
C1416 C 0.3973 0.77009 0.10555 0.0
C1417 C 0.41032 0.77682 0.12672 0.0
C1418 C 0.43961 0.78337 0.12558 0.0
C1419 C 0.45547 0.78287 0.10349 0.0
C1420 C 0.36616 0.76299 0.10604 0.0
C1421 C 0.45421 0.79069 0.14772 0.0
H1422 H 0.34972 0.80753 0.18317 0.0
H1423 H 0.37349 0.74405 0.19922 0.0
H1424 H 0.40234 0.82017 0.13697 0.0
H1425 H 0.3709 0.81099 0.12289 0.0
H1426 H 0.36779 0.82733 0.14876 0.0
H1427 H 0.40407 0.72601 0.17352 0.0
H1428 H 0.39985 0.73285 0.14197 0.0
H1429 H 0.43048 0.74285 0.1566 0.0
H1430 H 0.40399 0.7646 0.06743 0.0
H1431 H 0.47796 0.78768 0.10246 0.0
H1432 H 0.35278 0.77577 0.11259 0.0
H1433 H 0.36213 0.74918 0.11887 0.0
H1434 H 0.35922 0.75855 0.08792 0.0
H1435 H 0.44306 0.80417 0.15536 0.0
H1436 H 0.47697 0.79565 0.14365 0.0
H1437 H 0.45311 0.77779 0.16192 0.0
C1438 C 0.76304 0.15388 0.38593 0.0
C1439 C 0.78661 0.16697 0.37762 0.0
C1440 C 0.76631 0.13631 0.4016 0.0
C1441 C 0.79382 0.13171 0.40917 0.0
C1442 C 0.81769 0.14494 0.40101 0.0
C1443 C 0.8138 0.16242 0.38533 0.0
C1444 C 0.7403 0.12265 0.41003 0.0
C1445 C 0.84735 0.14051 0.40869 0.0
C1446 C 0.79654 0.09671 0.46624 0.0
C1447 C 0.80054 0.07697 0.45654 0.0
C1448 C 0.79504 0.11481 0.45102 0.0
C1449 C 0.7975 0.11298 0.42557 0.0
C1450 C 0.80216 0.09303 0.41578 0.0
C1451 C 0.8036 0.0752 0.43145 0.0
C1452 C 0.7901 0.13577 0.46216 0.0
C1453 C 0.80485 0.09044 0.38876 0.0
H1454 H 0.74191 0.15749 0.38034 0.0
H1455 H 0.83214 0.17234 0.37876 0.0
H1456 H 0.74292 0.1062 0.40449 0.0
H1457 H 0.73788 0.12218 0.43009 0.0
H1458 H 0.72039 0.12843 0.40253 0.0
H1459 H 0.86361 0.15249 0.40101 0.0
H1460 H 0.84789 0.1402 0.42874 0.0
H1461 H 0.85331 0.12472 0.40277 0.0
H1462 H 0.79408 0.09786 0.48573 0.0
H1463 H 0.80653 0.05979 0.42414 0.0
H1464 H 0.76924 0.14156 0.45684 0.0
H1465 H 0.80679 0.14772 0.45528 0.0
H1466 H 0.79018 0.13469 0.48226 0.0
H1467 H 0.78459 0.09443 0.38049 0.0
H1468 H 0.80986 0.07409 0.38412 0.0
H1469 H 0.82185 0.1015 0.38046 0.0
C1470 C 0.3672 0.26608 0.83514 0.0
C1471 C 0.34579 0.25025 0.83312 0.0
C1472 C 0.38452 0.26615 0.85515 0.0
C1473 C 0.37989 0.25022 0.87377 0.0
C1474 C 0.35798 0.23437 0.87196 0.0
C1475 C 0.34136 0.23445 0.8515 0.0
C1476 C 0.40802 0.28308 0.8562 0.0
C1477 C 0.35203 0.21738 0.89166 0.0
C1478 C 0.4404 0.23857 0.91485 0.0
C1479 C 0.43346 0.25046 0.93493 0.0
C1480 C 0.42319 0.2384 0.89477 0.0
C1481 C 0.39816 0.25007 0.89504 0.0
C1482 C 0.39081 0.26181 0.9155 0.0
C1483 C 0.40874 0.26204 0.93511 0.0
C1484 C 0.43204 0.22603 0.87311 0.0
C1485 C 0.36402 0.27411 0.91665 0.0
H1486 H 0.37075 0.27819 0.82079 0.0
H1487 H 0.32463 0.2223 0.84998 0.0
H1488 H 0.40475 0.29226 0.87268 0.0
H1489 H 0.42893 0.2757 0.85741 0.0
H1490 H 0.40903 0.29416 0.84009 0.0
H1491 H 0.33367 0.20658 0.88782 0.0
H1492 H 0.37112 0.2079 0.89374 0.0
H1493 H 0.34747 0.22468 0.90925 0.0
H1494 H 0.4597 0.22978 0.91464 0.0
H1495 H 0.40331 0.27112 0.95074 0.0
H1496 H 0.43497 0.23677 0.85677 0.0
H1497 H 0.41504 0.21403 0.86948 0.0
H1498 H 0.45221 0.2179 0.87573 0.0
H1499 H 0.36499 0.28649 0.90186 0.0
H1500 H 0.36084 0.2818 0.93422 0.0
H1501 H 0.34514 0.26347 0.91394 0.0
C1502 C 0.2244 0.84038 0.39752 0.0
C1503 C 0.23402 0.8425 0.37305 0.0
C1504 C 0.22249 0.85804 0.41194 0.0
C1505 C 0.2314 0.87828 0.40199 0.0
C1506 C 0.24121 0.8806 0.37741 0.0
C1507 C 0.2419 0.8628 0.36316 0.0
C1508 C 0.21121 0.85499 0.43792 0.0
C1509 C 0.25154 0.90186 0.36628 0.0
C1510 C 0.20883 0.92806 0.43235 0.0
C1511 C 0.23242 0.93291 0.44622 0.0
C1512 C 0.20787 0.91005 0.41836 0.0
C1513 C 0.23145 0.89692 0.4175 0.0
C1514 C 0.25536 0.90171 0.43127 0.0
C1515 C 0.2553 0.91934 0.44579 0.0
C1516 C 0.18164 0.9051 0.40444 0.0
C1517 C 0.2812 0.88834 0.43046 0.0
H1518 H 0.21873 0.82487 0.40565 0.0
H1519 H 0.24865 0.86488 0.34419 0.0
H1520 H 0.22841 0.85881 0.45033 0.0
H1521 H 0.19384 0.86591 0.44158 0.0
H1522 H 0.20288 0.83855 0.4423 0.0
H1523 H 0.25898 0.90095 0.347 0.0
H1524 H 0.23419 0.91314 0.36736 0.0
H1525 H 0.2694 0.90843 0.37657 0.0
H1526 H 0.19116 0.93845 0.43212 0.0
H1527 H 0.27332 0.92239 0.45688 0.0
H1528 H 0.17332 0.88873 0.40911 0.0
H1529 H 0.1872 0.90605 0.38471 0.0
H1530 H 0.16439 0.91611 0.40825 0.0
H1531 H 0.27516 0.87199 0.43721 0.0
H1532 H 0.29853 0.89469 0.44152 0.0
H1533 H 0.28967 0.88745 0.41147 0.0
C1534 C 0.67496 0.78527 0.8501 0.0
C1535 C 0.67527 0.76642 0.83765 0.0
C1536 C 0.65708 0.78708 0.8709 0.0
C1537 C 0.63915 0.7696 0.87952 0.0
C1538 C 0.63925 0.75057 0.86698 0.0
C1539 C 0.65725 0.74922 0.84618 0.0
C1540 C 0.65754 0.80764 0.88378 0.0
C1541 C 0.62037 0.7316 0.87559 0.0
C1542 C 0.61259 0.76647 0.94555 0.0
C1543 C 0.58458 0.77278 0.9438 0.0
C1544 C 0.63069 0.7655 0.92476 0.0
C1545 C 0.62046 0.77112 0.90178 0.0
C1546 C 0.59223 0.77784 0.90006 0.0
C1547 C 0.57458 0.77857 0.92116 0.0
C1548 C 0.66062 0.75821 0.92732 0.0
C1549 C 0.5806 0.78406 0.87593 0.0
H1550 H 0.68907 0.79854 0.84382 0.0
H1551 H 0.65704 0.73472 0.83645 0.0
H1552 H 0.63578 0.81377 0.88502 0.0
H1553 H 0.6643 0.80498 0.90258 0.0
H1554 H 0.67223 0.81989 0.87445 0.0
H1555 H 0.62297 0.71797 0.86379 0.0
H1556 H 0.62537 0.72666 0.89433 0.0
H1557 H 0.59767 0.73578 0.87605 0.0
H1558 H 0.62016 0.76209 0.96321 0.0
H1559 H 0.55283 0.78348 0.92002 0.0
H1560 H 0.67635 0.77049 0.91953 0.0
H1561 H 0.66358 0.74375 0.91702 0.0
H1562 H 0.66541 0.75474 0.94652 0.0
H1563 H 0.59435 0.79695 0.86681 0.0
H1564 H 0.55843 0.78941 0.8778 0.0
H1565 H 0.58083 0.77044 0.86394 0.0
loop_
_geom_bond_atom_site_label_1
_geom_bond_atom_site_label_2
_geom_bond_distance
_geom_bond_site_symmetry_2
_ccdc_geom_bond_type
C0 C1 1.391 . S
C0 C4 1.391 . S
C0 H42 0.948 . S
C1 C0 1.391 . S
C1 C2 1.391 . S
C2 C1 1.391 . S
C2 H58 0.947 . S
C2 C59 1.392 . S
C3 C4 1.391 . S
C3 C7 1.397 . S
C3 C59 1.419 . S
C4 C0 1.391 . S
C4 C3 1.391 . S
C4 C5 1.399 . S
C5 C4 1.399 . S
C5 C8 1.396 . S
C5 C17 1.453 . S
C5 C18 1.684 . S
H6 C30 0.948 . S
C7 C3 1.397 . S
C7 C8 1.394 . S
C7 C26 1.723 . S
C8 C5 1.396 . S
C8 C7 1.394 . S
C8 C38 1.723 . S
H9 C32 0.947 . S
H10 C33 0.948 . S
H11 C39 0.982 . S
H12 C40 0.979 . S
H13 C40 0.980 . S
H14 C40 0.983 . S
H15 C39 0.979 . S
H16 C39 0.977 . S
C17 C5 1.453 . S
C17 H46 0.982 . S
C17 H47 0.979 . S
C17 H48 0.977 . S
C18 C5 1.684 . S
C18 H43 0.979 . S
C18 H44 0.980 . S
C18 H45 0.983 . S
C19 C20 1.391 . S
C19 C24 1.391 . S
C19 H49 0.948 . S
C20 C19 1.391 . S
C20 C21 1.391 . S
C21 C20 1.391 . S
C21 C22 1.392 . S
C21 H50 0.947 . S
C22 C21 1.392 . S
C22 C23 1.419 . S
C22 H51 0.948 . S
C23 C22 1.419 . S
C23 C24 1.391 . S
C23 C27 1.397 . S
C24 C19 1.391 . S
C24 C23 1.391 . S
C24 C25 1.399 . S
C25 C24 1.399 . S
C25 C26 1.396 . S
C25 C28 1.453 . S
C25 C29 1.684 . S
C26 C7 1.723 . S
C26 C25 1.396 . S
C26 C27 1.394 . S
C27 C23 1.397 . S
C27 C26 1.394 . S
C27 C37 1.723 . S
C28 C25 1.453 . S
C28 H52 0.982 . S
C28 H53 0.979 . S
C28 H54 0.977 . S
C29 C25 1.684 . S
C29 H55 0.979 . S
C29 H56 0.980 . S
C29 H57 0.983 . S
C30 H6 0.948 . S
C30 C31 1.391 . S
C30 C35 1.391 . S
C31 C30 1.391 . S
C31 C32 1.391 . S
C32 H9 0.947 . S
C32 C31 1.391 . S
C32 C33 1.392 . S
C33 H10 0.948 . S
C33 C32 1.392 . S
C33 C34 1.419 . S
C34 C33 1.419 . S
C34 C35 1.391 . S
C34 C38 1.397 . S
C35 C30 1.391 . S
C35 C34 1.391 . S
C35 C36 1.399 . S
C36 C35 1.399 . S
C36 C37 1.396 . S
C36 C39 1.453 . S
C36 C40 1.684 . S
C37 C27 1.723 . S
C37 C36 1.396 . S
C37 C38 1.394 . S
C38 C8 1.723 . S
C38 C34 1.397 . S
C38 C37 1.394 . S
C39 H11 0.982 . S
C39 H15 0.979 . S
C39 H16 0.977 . S
C39 C36 1.453 . S
C40 H12 0.979 . S
C40 H13 0.980 . S
C40 H14 0.983 . S
C40 C36 1.684 . S
H41 C59 0.948 . S
H42 C0 0.948 . S
H43 C18 0.979 . S
H44 C18 0.980 . S
H45 C18 0.983 . S
H46 C17 0.982 . S
H47 C17 0.979 . S
H48 C17 0.977 . S
H49 C19 0.948 . S
H50 C21 0.947 . S
H51 C22 0.948 . S
H52 C28 0.982 . S
H53 C28 0.979 . S
H54 C28 0.977 . S
H55 C29 0.979 . S
H56 C29 0.980 . S
H57 C29 0.983 . S
H58 C2 0.947 . S
C59 C2 1.392 . S
C59 C3 1.419 . S
C59 H41 0.948 . S
C60 C61 1.391 . S
C60 C64 1.391 . S
C60 H102 0.948 . S
C61 C60 1.391 . S
C61 C62 1.391 . S
C62 C61 1.391 . S
C62 H118 0.947 . S
C62 C119 1.392 . S
C63 C64 1.391 . S
C63 C67 1.397 . S
C63 C119 1.419 . S
C64 C60 1.391 . S
C64 C63 1.391 . S
C64 C65 1.399 . S
C65 C64 1.399 . S
C65 C68 1.396 . S
C65 C77 1.453 . S
C65 C78 1.684 . S
H66 C90 0.948 . S
C67 C63 1.397 . S
C67 C68 1.394 . S
C67 C86 1.723 . S
C68 C65 1.396 . S
C68 C67 1.394 . S
C68 C98 1.723 . S
H69 C92 0.947 . S
H70 C93 0.948 . S
H71 C99 0.982 . S
H72 C100 0.979 . S
H73 C100 0.980 . S
H74 C100 0.983 . S
H75 C99 0.979 . S
H76 C99 0.977 . S
C77 C65 1.453 . S
C77 H106 0.982 . S
C77 H107 0.979 . S
C77 H108 0.977 . S
C78 C65 1.684 . S
C78 H103 0.979 . S
C78 H104 0.980 . S
C78 H105 0.983 . S
C79 C80 1.391 . S
C79 C84 1.391 . S
C79 H109 0.948 . S
C80 C79 1.391 . S
C80 C81 1.391 . S
C81 C80 1.391 . S
C81 C82 1.392 . S
C81 H110 0.947 . S
C82 C81 1.392 . S
C82 C83 1.419 . S
C82 H111 0.948 . S
C83 C82 1.419 . S
C83 C84 1.391 . S
C83 C87 1.397 . S
C84 C79 1.391 . S
C84 C83 1.391 . S
C84 C85 1.399 . S
C85 C84 1.399 . S
C85 C86 1.396 . S
C85 C88 1.453 . S
C85 C89 1.684 . S
C86 C67 1.723 . S
C86 C85 1.396 . S
C86 C87 1.394 . S
C87 C83 1.397 . S
C87 C86 1.394 . S
C87 C97 1.723 . S
C88 C85 1.453 . S
C88 H112 0.982 . S
C88 H113 0.979 . S
C88 H114 0.977 . S
C89 C85 1.684 . S
C89 H115 0.979 . S
C89 H116 0.980 . S
C89 H117 0.983 . S
C90 H66 0.948 . S
C90 C91 1.391 . S
C90 C95 1.391 . S
C91 C90 1.391 . S
C91 C92 1.391 . S
C92 H69 0.947 . S
C92 C91 1.391 . S
C92 C93 1.392 . S
C93 H70 0.948 . S
C93 C92 1.392 . S
C93 C94 1.419 . S
C94 C93 1.419 . S
C94 C95 1.391 . S
C94 C98 1.397 . S
C95 C90 1.391 . S
C95 C94 1.391 . S
C95 C96 1.399 . S
C96 C95 1.399 . S
C96 C97 1.396 . S
C96 C99 1.453 . S
C96 C100 1.684 . S
C97 C87 1.723 . S
C97 C96 1.396 . S
C97 C98 1.394 . S
C98 C68 1.723 . S
C98 C94 1.397 . S
C98 C97 1.394 . S
C99 H71 0.982 . S
C99 H75 0.979 . S
C99 H76 0.977 . S
C99 C96 1.453 . S
C100 H72 0.979 . S
C100 H73 0.980 . S
C100 H74 0.983 . S
C100 C96 1.684 . S
H101 C119 0.948 . S
H102 C60 0.948 . S
H103 C78 0.979 . S
H104 C78 0.980 . S
H105 C78 0.983 . S
H106 C77 0.982 . S
H107 C77 0.979 . S
H108 C77 0.977 . S
H109 C79 0.948 . S
H110 C81 0.947 . S
H111 C82 0.948 . S
H112 C88 0.982 . S
H113 C88 0.979 . S
H114 C88 0.977 . S
H115 C89 0.979 . S
H116 C89 0.980 . S
H117 C89 0.983 . S
H118 C62 0.947 . S
C119 C62 1.392 . S
C119 C63 1.419 . S
C119 H101 0.948 . S
C120 C121 1.391 . S
C120 C124 1.391 . S
C120 H162 0.948 . S
C121 C120 1.391 . S
C121 C122 1.391 . S
C122 C121 1.391 . S
C122 H178 0.947 . S
C122 C179 1.392 . S
C123 C124 1.391 . S
C123 C127 1.397 . S
C123 C179 1.419 . S
C124 C120 1.391 . S
C124 C123 1.391 . S
C124 C125 1.399 . S
C125 C124 1.399 . S
C125 C128 1.396 . S
C125 C137 1.453 . S
C125 C138 1.684 . S
H126 C150 0.948 . S
C127 C123 1.397 . S
C127 C128 1.394 . S
C127 C146 1.723 . S
C128 C125 1.396 . S
C128 C127 1.394 . S
C128 C158 1.723 . S
H129 C152 0.947 . S
H130 C153 0.948 . S
H131 C159 0.982 . S
H132 C160 0.979 . S
H133 C160 0.980 . S
H134 C160 0.983 . S
H135 C159 0.979 . S
H136 C159 0.977 . S
C137 C125 1.453 . S
C137 H166 0.982 . S
C137 H167 0.979 . S
C137 H168 0.977 . S
C138 C125 1.684 . S
C138 H163 0.979 . S
C138 H164 0.980 . S
C138 H165 0.983 . S
C139 C140 1.391 . S
C139 C144 1.391 . S
C139 H169 0.948 . S
C140 C139 1.391 . S
C140 C141 1.391 . S
C141 C140 1.391 . S
C141 C142 1.392 . S
C141 H170 0.947 . S
C142 C141 1.392 . S
C142 C143 1.419 . S
C142 H171 0.948 . S
C143 C142 1.419 . S
C143 C144 1.391 . S
C143 C147 1.397 . S
C144 C139 1.391 . S
C144 C143 1.391 . S
C144 C145 1.399 . S
C145 C144 1.399 . S
C145 C146 1.396 . S
C145 C148 1.453 . S
C145 C149 1.684 . S
C146 C127 1.723 . S
C146 C145 1.396 . S
C146 C147 1.394 . S
C147 C143 1.397 . S
C147 C146 1.394 . S
C147 C157 1.723 . S
C148 C145 1.453 . S
C148 H172 0.982 . S
C148 H173 0.979 . S
C148 H174 0.977 . S
C149 C145 1.684 . S
C149 H175 0.979 . S
C149 H176 0.980 . S
C149 H177 0.983 . S
C150 H126 0.948 . S
C150 C151 1.391 . S
C150 C155 1.391 . S
C151 C150 1.391 . S
C151 C152 1.391 . S
C152 H129 0.947 . S
C152 C151 1.391 . S
C152 C153 1.392 . S
C153 H130 0.948 . S
C153 C152 1.392 . S
C153 C154 1.419 . S
C154 C153 1.419 . S
C154 C155 1.391 . S
C154 C158 1.397 . S
C155 C150 1.391 . S
C155 C154 1.391 . S
C155 C156 1.399 . S
C156 C155 1.399 . S
C156 C157 1.396 . S
C156 C159 1.453 . S
C156 C160 1.684 . S
C157 C147 1.723 . S
C157 C156 1.396 . S
C157 C158 1.394 . S
C158 C128 1.723 . S
C158 C154 1.397 . S
C158 C157 1.394 . S
C159 H131 0.982 . S
C159 H135 0.979 . S
C159 H136 0.977 . S
C159 C156 1.453 . S
C160 H132 0.979 . S
C160 H133 0.980 . S
C160 H134 0.983 . S
C160 C156 1.684 . S
H161 C179 0.948 . S
H162 C120 0.948 . S
H163 C138 0.979 . S
H164 C138 0.980 . S
H165 C138 0.983 . S
H166 C137 0.982 . S
H167 C137 0.979 . S
H168 C137 0.977 . S
H169 C139 0.948 . S
H170 C141 0.947 . S
H171 C142 0.948 . S
H172 C148 0.982 . S
H173 C148 0.979 . S
H174 C148 0.977 . S
H175 C149 0.979 . S
H176 C149 0.980 . S
H177 C149 0.983 . S
H178 C122 0.947 . S
C179 C122 1.392 . S
C179 C123 1.419 . S
C179 H161 0.948 . S
C180 C181 1.391 . S
C180 C184 1.391 . S
C180 H222 0.948 . S
C181 C180 1.391 . S
C181 C182 1.391 . S
C182 C181 1.391 . S
C182 H238 0.947 . S
C182 C239 1.392 . S
C183 C184 1.391 . S
C183 C187 1.397 . S
C183 C239 1.419 . S
C184 C180 1.391 . S
C184 C183 1.391 . S
C184 C185 1.399 . S
C185 C184 1.399 . S
C185 C188 1.396 . S
C185 C197 1.453 . S
C185 C198 1.684 . S
H186 C210 0.948 . S
C187 C183 1.397 . S
C187 C188 1.394 . S
C187 C206 1.723 . S
C188 C185 1.396 . S
C188 C187 1.394 . S
C188 C218 1.723 . S
H189 C212 0.947 . S
H190 C213 0.948 . S
H191 C219 0.982 . S
H192 C220 0.979 . S
H193 C220 0.980 . S
H194 C220 0.983 . S
H195 C219 0.979 . S
H196 C219 0.977 . S
C197 C185 1.453 . S
C197 H226 0.982 . S
C197 H227 0.979 . S
C197 H228 0.977 . S
C198 C185 1.684 . S
C198 H223 0.979 . S
C198 H224 0.980 . S
C198 H225 0.983 . S
C199 C200 1.391 . S
C199 C204 1.391 . S
C199 H229 0.948 . S
C200 C199 1.391 . S
C200 C201 1.391 . S
C201 C200 1.391 . S
C201 C202 1.392 . S
C201 H230 0.947 . S
C202 C201 1.392 . S
C202 C203 1.419 . S
C202 H231 0.948 . S
C203 C202 1.419 . S
C203 C204 1.391 . S
C203 C207 1.397 . S
C204 C199 1.391 . S
C204 C203 1.391 . S
C204 C205 1.399 . S
C205 C204 1.399 . S
C205 C206 1.396 . S
C205 C208 1.453 . S
C205 C209 1.684 . S
C206 C187 1.723 . S
C206 C205 1.396 . S
C206 C207 1.394 . S
C207 C203 1.397 . S
C207 C206 1.394 . S
C207 C217 1.723 . S
C208 C205 1.453 . S
C208 H232 0.982 . S
C208 H233 0.979 . S
C208 H234 0.977 . S
C209 C205 1.684 . S
C209 H235 0.979 . S
C209 H236 0.980 . S
C209 H237 0.983 . S
C210 H186 0.948 . S
C210 C211 1.391 . S
C210 C215 1.391 . S
C211 C210 1.391 . S
C211 C212 1.391 . S
C212 H189 0.947 . S
C212 C211 1.391 . S
C212 C213 1.392 . S
C213 H190 0.948 . S
C213 C212 1.392 . S
C213 C214 1.419 . S
C214 C213 1.419 . S
C214 C215 1.391 . S
C214 C218 1.397 . S
C215 C210 1.391 . S
C215 C214 1.391 . S
C215 C216 1.399 . S
C216 C215 1.399 . S
C216 C217 1.396 . S
C216 C219 1.453 . S
C216 C220 1.684 . S
C217 C207 1.723 . S
C217 C216 1.396 . S
C217 C218 1.394 . S
C218 C188 1.723 . S
C218 C214 1.397 . S
C218 C217 1.394 . S
C219 H191 0.982 . S
C219 H195 0.979 . S
C219 H196 0.977 . S
C219 C216 1.453 . S
C220 H192 0.979 . S
C220 H193 0.980 . S
C220 H194 0.983 . S
C220 C216 1.684 . S
H221 C239 0.948 . S
H222 C180 0.948 . S
H223 C198 0.979 . S
H224 C198 0.980 . S
H225 C198 0.983 . S
H226 C197 0.982 . S
H227 C197 0.979 . S
H228 C197 0.977 . S
H229 C199 0.948 . S
H230 C201 0.947 . S
H231 C202 0.948 . S
H232 C208 0.982 . S
H233 C208 0.979 . S
H234 C208 0.977 . S
H235 C209 0.979 . S
H236 C209 0.980 . S
H237 C209 0.983 . S
H238 C182 0.947 . S
C239 C182 1.392 . S
C239 C183 1.419 . S
C239 H221 0.948 . S
C240 C241 1.391 . S
C240 C244 1.391 . S
C240 H282 0.948 . S
C241 C240 1.391 . S
C241 C242 1.391 . S
C242 C241 1.391 . S
C242 H298 0.947 . S
C242 C299 1.392 . S
C243 C244 1.391 . S
C243 C247 1.397 . S
C243 C299 1.419 . S
C244 C240 1.391 . S
C244 C243 1.391 . S
C244 C245 1.399 . S
C245 C244 1.399 . S
C245 C248 1.396 . S
C245 C257 1.453 . S
C245 C258 1.684 . S
H246 C270 0.948 . S
C247 C243 1.397 . S
C247 C248 1.394 . S
C247 C266 1.723 . S
C248 C245 1.396 . S
C248 C247 1.394 . S
C248 C278 1.723 . S
H249 C272 0.947 . S
H250 C273 0.948 . S
H251 C279 0.982 . S
H252 C280 0.979 . S
H253 C280 0.980 . S
H254 C280 0.983 . S
H255 C279 0.979 . S
H256 C279 0.977 . S
C257 C245 1.453 . S
C257 H286 0.982 . S
C257 H287 0.979 . S
C257 H288 0.977 . S
C258 C245 1.684 . S
C258 H283 0.979 . S
C258 H284 0.980 . S
C258 H285 0.983 . S
C259 C260 1.391 . S
C259 C264 1.391 . S
C259 H289 0.948 . S
C260 C259 1.391 . S
C260 C261 1.391 . S
C261 C260 1.391 . S
C261 C262 1.392 . S
C261 H290 0.947 . S
C262 C261 1.392 . S
C262 C263 1.419 . S
C262 H291 0.948 . S
C263 C262 1.419 . S
C263 C264 1.391 . S
C263 C267 1.397 . S
C264 C259 1.391 . S
C264 C263 1.391 . S
C264 C265 1.399 . S
C265 C264 1.399 . S
C265 C266 1.396 . S
C265 C268 1.453 . S
C265 C269 1.684 . S
C266 C247 1.723 . S
C266 C265 1.396 . S
C266 C267 1.394 . S
C267 C263 1.397 . S
C267 C266 1.394 . S
C267 C277 1.723 . S
C268 C265 1.453 . S
C268 H292 0.982 . S
C268 H293 0.979 . S
C268 H294 0.977 . S
C269 C265 1.684 . S
C269 H295 0.979 . S
C269 H296 0.980 . S
C269 H297 0.983 . S
C270 H246 0.948 . S
C270 C271 1.391 . S
C270 C275 1.391 . S
C271 C270 1.391 . S
C271 C272 1.391 . S
C272 H249 0.947 . S
C272 C271 1.391 . S
C272 C273 1.392 . S
C273 H250 0.948 . S
C273 C272 1.392 . S
C273 C274 1.419 . S
C274 C273 1.419 . S
C274 C275 1.391 . S
C274 C278 1.397 . S
C275 C270 1.391 . S
C275 C274 1.391 . S
C275 C276 1.399 . S
C276 C275 1.399 . S
C276 C277 1.396 . S
C276 C279 1.453 . S
C276 C280 1.684 . S
C277 C267 1.723 . S
C277 C276 1.396 . S
C277 C278 1.394 . S
C278 C248 1.723 . S
C278 C274 1.397 . S
C278 C277 1.394 . S
C279 H251 0.982 . S
C279 H255 0.979 . S
C279 H256 0.977 . S
C279 C276 1.453 . S
C280 H252 0.979 . S
C280 H253 0.980 . S
C280 H254 0.983 . S
C280 C276 1.684 . S
H281 C299 0.948 . S
H282 C240 0.948 . S
H283 C258 0.979 . S
H284 C258 0.980 . S
H285 C258 0.983 . S
H286 C257 0.982 . S
H287 C257 0.979 . S
H288 C257 0.977 . S
H289 C259 0.948 . S
H290 C261 0.947 . S
H291 C262 0.948 . S
H292 C268 0.982 . S
H293 C268 0.979 . S
H294 C268 0.977 . S
H295 C269 0.979 . S
H296 C269 0.980 . S
H297 C269 0.983 . S
H298 C242 0.947 . S
C299 C242 1.392 . S
C299 C243 1.419 . S
C299 H281 0.948 . S
C300 C301 1.391 . S
C300 C304 1.391 . S
C300 H342 0.948 . S
C301 C300 1.391 . S
C301 C302 1.391 . S
C302 C301 1.391 . S
C302 H358 0.947 . S
C302 C359 1.392 . S
C303 C304 1.391 . S
C303 C307 1.397 . S
C303 C359 1.419 . S
C304 C300 1.391 . S
C304 C303 1.391 . S
C304 C305 1.399 . S
C305 C304 1.399 . S
C305 C308 1.396 . S
C305 C317 1.453 . S
C305 C318 1.684 . S
H306 C330 0.948 . S
C307 C303 1.397 . S
C307 C308 1.394 . S
C307 C326 1.723 . S
C308 C305 1.396 . S
C308 C307 1.394 . S
C308 C338 1.723 . S
H309 C332 0.947 . S
H310 C333 0.948 . S
H311 C339 0.982 . S
H312 C340 0.979 . S
H313 C340 0.980 . S
H314 C340 0.983 . S
H315 C339 0.979 . S
H316 C339 0.977 . S
C317 C305 1.453 . S
C317 H346 0.982 . S
C317 H347 0.979 . S
C317 H348 0.977 . S
C318 C305 1.684 . S
C318 H343 0.979 . S
C318 H344 0.980 . S
C318 H345 0.983 . S
C319 C320 1.391 . S
C319 C324 1.391 . S
C319 H349 0.948 . S
C320 C319 1.391 . S
C320 C321 1.391 . S
C321 C320 1.391 . S
C321 C322 1.392 . S
C321 H350 0.947 . S
C322 C321 1.392 . S
C322 C323 1.419 . S
C322 H351 0.948 . S
C323 C322 1.419 . S
C323 C324 1.391 . S
C323 C327 1.397 . S
C324 C319 1.391 . S
C324 C323 1.391 . S
C324 C325 1.399 . S
C325 C324 1.399 . S
C325 C326 1.396 . S
C325 C328 1.453 . S
C325 C329 1.684 . S
C326 C307 1.723 . S
C326 C325 1.396 . S
C326 C327 1.394 . S
C327 C323 1.397 . S
C327 C326 1.394 . S
C327 C337 1.723 . S
C328 C325 1.453 . S
C328 H352 0.982 . S
C328 H353 0.979 . S
C328 H354 0.977 . S
C329 C325 1.684 . S
C329 H355 0.979 . S
C329 H356 0.980 . S
C329 H357 0.983 . S
C330 H306 0.948 . S
C330 C331 1.391 . S
C330 C335 1.391 . S
C331 C330 1.391 . S
C331 C332 1.391 . S
C332 H309 0.947 . S
C332 C331 1.391 . S
C332 C333 1.392 . S
C333 H310 0.948 . S
C333 C332 1.392 . S
C333 C334 1.419 . S
C334 C333 1.419 . S
C334 C335 1.391 . S
C334 C338 1.397 . S
C335 C330 1.391 . S
C335 C334 1.391 . S
C335 C336 1.399 . S
C336 C335 1.399 . S
C336 C337 1.396 . S
C336 C339 1.453 . S
C336 C340 1.684 . S
C337 C327 1.723 . S
C337 C336 1.396 . S
C337 C338 1.394 . S
C338 C308 1.723 . S
C338 C334 1.397 . S
C338 C337 1.394 . S
C339 H311 0.982 . S
C339 H315 0.979 . S
C339 H316 0.977 . S
C339 C336 1.453 . S
C340 H312 0.979 . S
C340 H313 0.980 . S
C340 H314 0.983 . S
C340 C336 1.684 . S
H341 C359 0.948 . S
H342 C300 0.948 . S
H343 C318 0.979 . S
H344 C318 0.980 . S
H345 C318 0.983 . S
H346 C317 0.982 . S
H347 C317 0.979 . S
H348 C317 0.977 . S
H349 C319 0.948 . S
H350 C321 0.947 . S
H351 C322 0.948 . S
H352 C328 0.982 . S
H353 C328 0.979 . S
H354 C328 0.977 . S
H355 C329 0.979 . S
H356 C329 0.980 . S
H357 C329 0.983 . S
H358 C302 0.947 . S
C359 C302 1.392 . S
C359 C303 1.419 . S
C359 H341 0.948 . S
C360 C361 1.391 . S
C360 C364 1.391 . S
C360 H402 0.948 . S
C361 C360 1.391 . S
C361 C362 1.391 . S
C362 C361 1.391 . S
C362 H418 0.947 . S
C362 C419 1.392 . S
C363 C364 1.391 . S
C363 C367 1.397 . S
C363 C419 1.419 . S
C364 C360 1.391 . S
C364 C363 1.391 . S
C364 C365 1.399 . S
C365 C364 1.399 . S
C365 C368 1.396 . S
C365 C377 1.453 . S
C365 C378 1.684 . S
H366 C390 0.948 . S
C367 C363 1.397 . S
C367 C368 1.394 . S
C367 C386 1.723 . S
C368 C365 1.396 . S
C368 C367 1.394 . S
C368 C398 1.723 . S
H369 C392 0.947 . S
H370 C393 0.948 . S
H371 C399 0.982 . S
H372 C400 0.979 . S
H373 C400 0.980 . S
H374 C400 0.983 . S
H375 C399 0.979 . S
H376 C399 0.977 . S
C377 C365 1.453 . S
C377 H406 0.982 . S
C377 H407 0.979 . S
C377 H408 0.977 . S
C378 C365 1.684 . S
C378 H403 0.979 . S
C378 H404 0.980 . S
C378 H405 0.983 . S
C379 C380 1.391 . S
C379 C384 1.391 . S
C379 H409 0.948 . S
C380 C379 1.391 . S
C380 C381 1.391 . S
C381 C380 1.391 . S
C381 C382 1.392 . S
C381 H410 0.947 . S
C382 C381 1.392 . S
C382 C383 1.419 . S
C382 H411 0.948 . S
C383 C382 1.419 . S
C383 C384 1.391 . S
C383 C387 1.397 . S
C384 C379 1.391 . S
C384 C383 1.391 . S
C384 C385 1.399 . S
C385 C384 1.399 . S
C385 C386 1.396 . S
C385 C388 1.453 . S
C385 C389 1.684 . S
C386 C367 1.723 . S
C386 C385 1.396 . S
C386 C387 1.394 . S
C387 C383 1.397 . S
C387 C386 1.394 . S
C387 C397 1.723 . S
C388 C385 1.453 . S
C388 H412 0.982 . S
C388 H413 0.979 . S
C388 H414 0.977 . S
C389 C385 1.684 . S
C389 H415 0.979 . S
C389 H416 0.980 . S
C389 H417 0.983 . S
C390 H366 0.948 . S
C390 C391 1.391 . S
C390 C395 1.391 . S
C391 C390 1.391 . S
C391 C392 1.391 . S
C392 H369 0.947 . S
C392 C391 1.391 . S
C392 C393 1.392 . S
C393 H370 0.948 . S
C393 C392 1.392 . S
C393 C394 1.419 . S
C394 C393 1.419 . S
C394 C395 1.391 . S
C394 C398 1.397 . S
C395 C390 1.391 . S
C395 C394 1.391 . S
C395 C396 1.399 . S
C396 C395 1.399 . S
C396 C397 1.396 . S
C396 C399 1.453 . S
C396 C400 1.684 . S
C397 C387 1.723 . S
C397 C396 1.396 . S
C397 C398 1.394 . S
C398 C368 1.723 . S
C398 C394 1.397 . S
C398 C397 1.394 . S
C399 H371 0.982 . S
C399 H375 0.979 . S
C399 H376 0.977 . S
C399 C396 1.453 . S
C400 H372 0.979 . S
C400 H373 0.980 . S
C400 H374 0.983 . S
C400 C396 1.684 . S
H401 C419 0.948 . S
H402 C360 0.948 . S
H403 C378 0.979 . S
H404 C378 0.980 . S
H405 C378 0.983 . S
H406 C377 0.982 . S
H407 C377 0.979 . S
H408 C377 0.977 . S
H409 C379 0.948 . S
H410 C381 0.947 . S
H411 C382 0.948 . S
H412 C388 0.982 . S
H413 C388 0.979 . S
H414 C388 0.977 . S
H415 C389 0.979 . S
H416 C389 0.980 . S
H417 C389 0.983 . S
H418 C362 0.947 . S
C419 C362 1.392 . S
C419 C363 1.419 . S
C419 H401 0.948 . S
C420 C421 1.391 . S
C420 C424 1.391 . S
C420 H462 0.948 . S
C421 C420 1.391 . S
C421 C422 1.391 . S
C422 C421 1.391 . S
C422 H478 0.947 . S
C422 C479 1.392 . S
C423 C424 1.391 . S
C423 C427 1.397 . S
C423 C479 1.419 . S
C424 C420 1.391 . S
C424 C423 1.391 . S
C424 C425 1.399 . S
C425 C424 1.399 . S
C425 C428 1.396 . S
C425 C437 1.453 . S
C425 C438 1.684 . S
H426 C450 0.948 . S
C427 C423 1.397 . S
C427 C428 1.394 . S
C427 C446 1.723 . S
C428 C425 1.396 . S
C428 C427 1.394 . S
C428 C458 1.723 . S
H429 C452 0.947 . S
H430 C453 0.948 . S
H431 C459 0.982 . S
H432 C460 0.979 . S
H433 C460 0.980 . S
H434 C460 0.983 . S
H435 C459 0.979 . S
H436 C459 0.977 . S
C437 C425 1.453 . S
C437 H466 0.982 . S
C437 H467 0.979 . S
C437 H468 0.977 . S
C438 C425 1.684 . S
C438 H463 0.979 . S
C438 H464 0.980 . S
C438 H465 0.983 . S
C439 C440 1.391 . S
C439 C444 1.391 . S
C439 H469 0.948 . S
C440 C439 1.391 . S
C440 C441 1.391 . S
C441 C440 1.391 . S
C441 C442 1.392 . S
C441 H470 0.947 . S
C442 C441 1.392 . S
C442 C443 1.419 . S
C442 H471 0.948 . S
C443 C442 1.419 . S
C443 C444 1.391 . S
C443 C447 1.397 . S
C444 C439 1.391 . S
C444 C443 1.391 . S
C444 C445 1.399 . S
C445 C444 1.399 . S
C445 C446 1.396 . S
C445 C448 1.453 . S
C445 C449 1.684 . S
C446 C427 1.723 . S
C446 C445 1.396 . S
C446 C447 1.394 . S
C447 C443 1.397 . S
C447 C446 1.394 . S
C447 C457 1.723 . S
C448 C445 1.453 . S
C448 H472 0.982 . S
C448 H473 0.979 . S
C448 H474 0.977 . S
C449 C445 1.684 . S
C449 H475 0.979 . S
C449 H476 0.980 . S
C449 H477 0.983 . S
C450 H426 0.948 . S
C450 C451 1.391 . S
C450 C455 1.391 . S
C451 C450 1.391 . S
C451 C452 1.391 . S
C452 H429 0.947 . S
C452 C451 1.391 . S
C452 C453 1.392 . S
C453 H430 0.948 . S
C453 C452 1.392 . S
C453 C454 1.419 . S
C454 C453 1.419 . S
C454 C455 1.391 . S
C454 C458 1.397 . S
C455 C450 1.391 . S
C455 C454 1.391 . S
C455 C456 1.399 . S
C456 C455 1.399 . S
C456 C457 1.396 . S
C456 C459 1.453 . S
C456 C460 1.684 . S
C457 C447 1.723 . S
C457 C456 1.396 . S
C457 C458 1.394 . S
C458 C428 1.723 . S
C458 C454 1.397 . S
C458 C457 1.394 . S
C459 H431 0.982 . S
C459 H435 0.979 . S
C459 H436 0.977 . S
C459 C456 1.453 . S
C460 H432 0.979 . S
C460 H433 0.980 . S
C460 H434 0.983 . S
C460 C456 1.684 . S
H461 C479 0.948 . S
H462 C420 0.948 . S
H463 C438 0.979 . S
H464 C438 0.980 . S
H465 C438 0.983 . S
H466 C437 0.982 . S
H467 C437 0.979 . S
H468 C437 0.977 . S
H469 C439 0.948 . S
H470 C441 0.947 . S
H471 C442 0.948 . S
H472 C448 0.982 . S
H473 C448 0.979 . S
H474 C448 0.977 . S
H475 C449 0.979 . S
H476 C449 0.980 . S
H477 C449 0.983 . S
H478 C422 0.947 . S
C479 C422 1.392 . S
C479 C423 1.419 . S
C479 H461 0.948 . S
C480 C481 1.443 . S
C480 N484 1.376 . S
C480 C518 1.389 . S
C481 C480 1.443 . S
C481 C482 1.340 . S
C481 H521 0.951 . S
C482 C481 1.340 . S
C482 C483 1.439 . S
C482 H522 0.950 . S
C483 C482 1.439 . S
C483 N484 1.374 . S
C483 C517 1.395 . S
N484 C480 1.376 . S
N484 C483 1.374 . S
N484 Co485 2.008 . S
Co485 N484 2.008 . S
Co485 N486 1.995 1_455 S
Co485 N491 2.008 . S
Co485 N496 1.995 . S
Co485 N501 2.282 . S
Co485 N507 2.282 1_455 S
N486 Co485 1.995 1_655 S
N486 C487 1.376 . S
N486 C490 1.383 . S
C487 N486 1.376 . S
C487 C488 1.446 . S
C487 C517 1.391 1_655 S
C488 C487 1.446 . S
C488 C489 1.339 . S
C488 H523 0.949 . S
C489 C488 1.339 . S
C489 C490 1.439 . S
C489 H524 0.950 . S
C490 N486 1.383 . S
C490 C489 1.439 . S
C490 C519 1.392 . S
N491 Co485 2.008 . S
N491 C492 1.376 1_455 S
N491 C495 1.374 . S
C492 N491 1.376 1_655 S
C492 C493 1.443 . S
C492 C519 1.389 . S
C493 C492 1.443 . S
C493 C494 1.340 . S
C493 H525 0.951 . S
C494 C493 1.340 . S
C494 C495 1.439 1_655 S
C494 H526 0.950 . S
C495 N491 1.374 . S
C495 C494 1.439 1_455 S
C495 C520 1.395 . S
N496 Co485 1.995 . S
N496 C497 1.376 . S
N496 C500 1.383 . S
C497 N496 1.376 . S
C497 C498 1.446 . S
C497 C520 1.391 . S
C498 C497 1.446 . S
C498 C499 1.339 . S
C498 H527 0.949 . S
C499 C498 1.339 . S
C499 C500 1.439 . S
C499 H528 0.950 . S
C500 N496 1.383 . S
C500 C499 1.439 . S
C500 C518 1.392 . S
N501 Co485 2.282 . S
N501 C504 1.332 . S
N501 C506 1.332 . S
C502 C503 1.386 . S
C502 C505 1.388 . S
C503 C502 1.386 . S
C503 C504 1.382 . S
C503 H529 0.950 . S
C504 N501 1.332 . S
C504 C503 1.382 . S
C504 H515 0.952 . S
C505 C502 1.388 . S
C505 C506 1.382 . S
C505 H530 0.950 . S
C506 N501 1.332 . S
C506 C505 1.382 . S
C506 H516 0.948 . S
N507 Co485 2.282 1_655 S
N507 C511 1.332 . S
N507 C512 1.332 . S
C508 C509 1.388 . S
C508 C512 1.382 . S
C508 H531 0.950 . S
C509 C508 1.388 . S
C509 C510 1.386 . S
C510 C509 1.386 . S
C510 C511 1.382 . S
C510 H532 0.950 . S
C511 N507 1.332 . S
C511 C510 1.382 . S
C511 H513 0.952 . S
C512 N507 1.332 . S
C512 C508 1.382 . S
C512 H514 0.948 . S
H513 C511 0.952 . S
H514 C512 0.948 . S
H515 C504 0.952 . S
H516 C506 0.948 . S
C517 C483 1.395 . S
C517 C487 1.391 1_455 S
C518 C480 1.389 . S
C518 C500 1.392 . S
C519 C490 1.392 . S
C519 C492 1.389 . S
C520 C495 1.395 . S
C520 C497 1.391 . S
H521 C481 0.951 . S
H522 C482 0.950 . S
H523 C488 0.949 . S
H524 C489 0.950 . S
H525 C493 0.951 . S
H526 C494 0.950 . S
H527 C498 0.949 . S
H528 C499 0.950 . S
H529 C503 0.950 . S
H530 C505 0.950 . S
H531 C508 0.950 . S
H532 C510 0.950 . S
C533 C534 1.443 . S
C533 N537 1.376 . S
C533 C571 1.389 . S
C534 C533 1.443 . S
C534 C535 1.340 . S
C534 H574 0.951 . S
C535 C534 1.340 . S
C535 C536 1.439 . S
C535 H575 0.950 . S
C536 C535 1.439 . S
C536 N537 1.374 . S
C536 C570 1.395 . S
N537 C533 1.376 . S
N537 C536 1.374 . S
N537 Co538 2.008 . S
Co538 N537 2.008 . S
Co538 N539 1.995 1_455 S
Co538 N544 2.008 1_455 S
Co538 N549 1.995 . S
Co538 N554 2.282 . S
Co538 N560 2.282 1_455 S
N539 Co538 1.995 1_655 S
N539 C540 1.376 . S
N539 C543 1.383 . S
C540 N539 1.376 . S
C540 C541 1.446 . S
C540 C570 1.391 1_655 S
C541 C540 1.446 . S
C541 C542 1.339 . S
C541 H576 0.949 . S
C542 C541 1.339 . S
C542 C543 1.439 . S
C542 H577 0.950 . S
C543 N539 1.383 . S
C543 C542 1.439 . S
C543 C572 1.392 . S
N544 Co538 2.008 1_655 S
N544 C545 1.376 . S
N544 C548 1.374 1_655 S
C545 N544 1.376 . S
C545 C546 1.443 . S
C545 C572 1.389 . S
C546 C545 1.443 . S
C546 C547 1.340 . S
C546 H578 0.951 . S
C547 C546 1.340 . S
C547 C548 1.439 1_655 S
C547 H579 0.950 . S
C548 N544 1.374 1_455 S
C548 C547 1.439 1_455 S
C548 C573 1.395 . S
N549 Co538 1.995 . S
N549 C550 1.376 . S
N549 C553 1.383 . S
C550 N549 1.376 . S
C550 C551 1.446 . S
C550 C573 1.391 . S
C551 C550 1.446 . S
C551 C552 1.339 . S
C551 H580 0.949 . S
C552 C551 1.339 . S
C552 C553 1.439 . S
C552 H581 0.950 . S
C553 N549 1.383 . S
C553 C552 1.439 . S
C553 C571 1.392 . S
N554 Co538 2.282 . S
N554 C557 1.332 . S
N554 C559 1.332 . S
C555 C556 1.386 . S
C555 C558 1.388 . S
C556 C555 1.386 . S
C556 C557 1.382 . S
C556 H582 0.950 . S
C557 N554 1.332 . S
C557 C556 1.382 . S
C557 H568 0.952 . S
C558 C555 1.388 . S
C558 C559 1.382 . S
C558 H583 0.950 . S
C559 N554 1.332 . S
C559 C558 1.382 . S
C559 H569 0.948 . S
N560 Co538 2.282 1_655 S
N560 C564 1.332 . S
N560 C565 1.332 . S
C561 C562 1.388 . S
C561 C565 1.382 . S
C561 H584 0.950 . S
C562 C561 1.388 . S
C562 C563 1.386 . S
C563 C562 1.386 . S
C563 C564 1.382 . S
C563 H585 0.950 . S
C564 N560 1.332 . S
C564 C563 1.382 . S
C564 H566 0.952 . S
C565 N560 1.332 . S
C565 C561 1.382 . S
C565 H567 0.948 . S
H566 C564 0.952 . S
H567 C565 0.948 . S
H568 C557 0.952 . S
H569 C559 0.948 . S
C570 C536 1.395 . S
C570 C540 1.391 1_455 S
C571 C533 1.389 . S
C571 C553 1.392 . S
C572 C543 1.392 . S
C572 C545 1.389 . S
C573 C548 1.395 . S
C573 C550 1.391 . S
H574 C534 0.951 . S
H575 C535 0.950 . S
H576 C541 0.949 . S
H577 C542 0.950 . S
H578 C546 0.951 . S
H579 C547 0.950 . S
H580 C551 0.949 . S
H581 C552 0.950 . S
H582 C556 0.950 . S
H583 C558 0.950 . S
H584 C561 0.950 . S
H585 C563 0.950 . S
C586 C587 1.443 . S
C586 N590 1.376 . S
C586 C624 1.389 . S
C587 C586 1.443 . S
C587 C588 1.340 . S
C587 H627 0.951 . S
C588 C587 1.340 . S
C588 C589 1.439 . S
C588 H628 0.950 . S
C589 C588 1.439 . S
C589 N590 1.374 . S
C589 C623 1.395 1_565 S
N590 C586 1.376 . S
N590 C589 1.374 . S
N590 Co591 2.008 1_565 S
Co591 N590 2.008 1_545 S
Co591 N592 1.995 . S
Co591 N597 2.008 . S
Co591 N602 1.995 1_545 S
Co591 N607 2.282 . S
Co591 N613 2.282 1_545 S
N592 Co591 1.995 . S
N592 C593 1.376 . S
N592 C596 1.383 . S
C593 N592 1.376 . S
C593 C594 1.446 . S
C593 C623 1.391 . S
C594 C593 1.446 . S
C594 C595 1.339 . S
C594 H629 0.949 . S
C595 C594 1.339 . S
C595 C596 1.439 . S
C595 H630 0.950 . S
C596 N592 1.383 . S
C596 C595 1.439 . S
C596 C625 1.392 . S
N597 Co591 2.008 . S
N597 C598 1.376 . S
N597 C601 1.374 . S
C598 N597 1.376 . S
C598 C599 1.443 . S
C598 C625 1.389 . S
C599 C598 1.443 . S
C599 C600 1.340 . S
C599 H631 0.951 . S
C600 C599 1.340 . S
C600 C601 1.439 . S
C600 H632 0.950 . S
C601 N597 1.374 . S
C601 C600 1.439 . S
C601 C626 1.395 . S
N602 Co591 1.995 1_565 S
N602 C603 1.376 . S
N602 C606 1.383 . S
C603 N602 1.376 . S
C603 C604 1.446 . S
C603 C626 1.391 1_565 S
C604 C603 1.446 . S
C604 C605 1.339 . S
C604 H633 0.949 . S
C605 C604 1.339 . S
C605 C606 1.439 . S
C605 H634 0.950 . S
C606 N602 1.383 . S
C606 C605 1.439 . S
C606 C624 1.392 . S
N607 Co591 2.282 . S
N607 C610 1.332 . S
N607 C612 1.332 . S
C608 C609 1.386 . S
C608 C611 1.388 . S
C609 C608 1.386 . S
C609 C610 1.382 . S
C609 H635 0.950 . S
C610 N607 1.332 . S
C610 C609 1.382 . S
C610 H621 0.952 . S
C611 C608 1.388 . S
C611 C612 1.382 . S
C611 H636 0.950 . S
C612 N607 1.332 . S
C612 C611 1.382 . S
C612 H622 0.948 . S
N613 Co591 2.282 1_565 S
N613 C617 1.332 . S
N613 C618 1.332 . S
C614 C615 1.388 . S
C614 C618 1.382 . S
C614 H637 0.950 . S
C615 C614 1.388 . S
C615 C616 1.386 . S
C616 C615 1.386 . S
C616 C617 1.382 . S
C616 H638 0.950 . S
C617 N613 1.332 . S
C617 C616 1.382 . S
C617 H619 0.952 . S
C618 N613 1.332 . S
C618 C614 1.382 . S
C618 H620 0.948 . S
H619 C617 0.952 . S
H620 C618 0.948 . S
H621 C610 0.952 . S
H622 C612 0.948 . S
C623 C589 1.395 1_545 S
C623 C593 1.391 . S
C624 C586 1.389 . S
C624 C606 1.392 . S
C625 C596 1.392 . S
C625 C598 1.389 . S
C626 C601 1.395 . S
C626 C603 1.391 1_545 S
H627 C587 0.951 . S
H628 C588 0.950 . S
H629 C594 0.949 . S
H630 C595 0.950 . S
H631 C599 0.951 . S
H632 C600 0.950 . S
H633 C604 0.949 . S
H634 C605 0.950 . S
H635 C609 0.950 . S
H636 C611 0.950 . S
H637 C614 0.950 . S
H638 C616 0.950 . S
C639 C640 1.443 . S
C639 N643 1.376 . S
C639 C677 1.389 . S
C640 C639 1.443 . S
C640 C641 1.340 . S
C640 H680 0.951 . S
C641 C640 1.340 . S
C641 C642 1.439 . S
C641 H681 0.950 . S
C642 C641 1.439 . S
C642 N643 1.374 . S
C642 C676 1.395 . S
N643 C639 1.376 . S
N643 C642 1.374 . S
N643 Co644 2.008 . S
Co644 N643 2.008 . S
Co644 N645 1.995 1_554 S
Co644 N650 2.008 1_554 S
Co644 N655 1.995 . S
Co644 N660 2.282 1_554 S
Co644 N666 2.282 . S
N645 Co644 1.995 1_556 S
N645 C646 1.376 . S
N645 C649 1.383 . S
C646 N645 1.376 . S
C646 C647 1.446 . S
C646 C676 1.391 1_556 S
C647 C646 1.446 . S
C647 C648 1.339 . S
C647 H682 0.949 . S
C648 C647 1.339 . S
C648 C649 1.439 . S
C648 H683 0.950 . S
C649 N645 1.383 . S
C649 C648 1.439 . S
C649 C678 1.392 . S
N650 Co644 2.008 1_556 S
N650 C651 1.376 . S
N650 C654 1.374 . S
C651 N650 1.376 . S
C651 C652 1.443 . S
C651 C678 1.389 . S
C652 C651 1.443 . S
C652 C653 1.340 . S
C652 H684 0.951 . S
C653 C652 1.340 . S
C653 C654 1.439 . S
C653 H685 0.950 . S
C654 N650 1.374 . S
C654 C653 1.439 . S
C654 C679 1.395 1_556 S
N655 Co644 1.995 . S
N655 C656 1.376 . S
N655 C659 1.383 . S
C656 N655 1.376 . S
C656 C657 1.446 . S
C656 C679 1.391 . S
C657 C656 1.446 . S
C657 C658 1.339 . S
C657 H686 0.949 . S
C658 C657 1.339 . S
C658 C659 1.439 . S
C658 H687 0.950 . S
C659 N655 1.383 . S
C659 C658 1.439 . S
C659 C677 1.392 . S
N660 Co644 2.282 1_556 S
N660 C663 1.332 . S
N660 C665 1.332 . S
C661 C662 1.386 . S
C661 C664 1.388 . S
C662 C661 1.386 . S
C662 C663 1.382 . S
C662 H688 0.950 . S
C663 N660 1.332 . S
C663 C662 1.382 . S
C663 H674 0.952 . S
C664 C661 1.388 . S
C664 C665 1.382 . S
C664 H689 0.950 . S
C665 N660 1.332 . S
C665 C664 1.382 . S
C665 H675 0.948 . S
N666 Co644 2.282 . S
N666 C670 1.332 . S
N666 C671 1.332 . S
C667 C668 1.388 . S
C667 C671 1.382 . S
C667 H690 0.950 . S
C668 C667 1.388 . S
C668 C669 1.386 . S
C669 C668 1.386 . S
C669 C670 1.382 . S
C669 H691 0.950 . S
C670 N666 1.332 . S
C670 C669 1.382 . S
C670 H672 0.952 . S
C671 N666 1.332 . S
C671 C667 1.382 . S
C671 H673 0.948 . S
H672 C670 0.952 . S
H673 C671 0.948 . S
H674 C663 0.952 . S
H675 C665 0.948 . S
C676 C642 1.395 . S
C676 C646 1.391 1_554 S
C677 C639 1.389 . S
C677 C659 1.392 . S
C678 C649 1.392 . S
C678 C651 1.389 . S
C679 C654 1.395 1_554 S
C679 C656 1.391 . S
H680 C640 0.951 . S
H681 C641 0.950 . S
H682 C647 0.949 . S
H683 C648 0.950 . S
H684 C652 0.951 . S
H685 C653 0.950 . S
H686 C657 0.949 . S
H687 C658 0.950 . S
H688 C662 0.950 . S
H689 C664 0.950 . S
H690 C667 0.950 . S
H691 C669 0.950 . S
C692 C693 1.443 . S
C692 N696 1.376 1_565 S
C692 C730 1.389 . S
C693 C692 1.443 . S
C693 C694 1.340 . S
C693 H733 0.951 . S
C694 C693 1.340 . S
C694 C695 1.439 1_565 S
C694 H734 0.950 . S
C695 C694 1.439 1_545 S
C695 N696 1.374 . S
C695 C729 1.395 . S
N696 C692 1.376 1_545 S
N696 C695 1.374 . S
N696 Co697 2.008 . S
Co697 N696 2.008 . S
Co697 N698 1.995 . S
Co697 N703 2.008 . S
Co697 N708 1.995 . S
Co697 N713 2.282 . S
Co697 N719 2.282 1_545 S
N698 Co697 1.995 . S
N698 C699 1.376 . S
N698 C702 1.383 . S
C699 N698 1.376 . S
C699 C700 1.446 . S
C699 C729 1.391 . S
C700 C699 1.446 . S
C700 C701 1.339 . S
C700 H735 0.949 . S
C701 C700 1.339 . S
C701 C702 1.439 . S
C701 H736 0.950 . S
C702 N698 1.383 . S
C702 C701 1.439 . S
C702 C731 1.392 . S
N703 Co697 2.008 . S
N703 C704 1.376 . S
N703 C707 1.374 . S
C704 N703 1.376 . S
C704 C705 1.443 . S
C704 C731 1.389 . S
C705 C704 1.443 . S
C705 C706 1.340 . S
C705 H737 0.951 . S
C706 C705 1.340 . S
C706 C707 1.439 . S
C706 H738 0.950 . S
C707 N703 1.374 . S
C707 C706 1.439 . S
C707 C732 1.395 . S
N708 Co697 1.995 . S
N708 C709 1.376 . S
N708 C712 1.383 1_545 S
C709 N708 1.376 . S
C709 C710 1.446 1_545 S
C709 C732 1.391 . S
C710 C709 1.446 1_565 S
C710 C711 1.339 . S
C710 H739 0.949 . S
C711 C710 1.339 . S
C711 C712 1.439 . S
C711 H740 0.950 . S
C712 N708 1.383 1_565 S
C712 C711 1.439 . S
C712 C730 1.392 . S
N713 Co697 2.282 . S
N713 C716 1.332 . S
N713 C718 1.332 . S
C714 C715 1.386 . S
C714 C717 1.388 . S
C715 C714 1.386 . S
C715 C716 1.382 . S
C715 H741 0.950 . S
C716 N713 1.332 . S
C716 C715 1.382 . S
C716 H727 0.952 . S
C717 C714 1.388 . S
C717 C718 1.382 . S
C717 H742 0.950 . S
C718 N713 1.332 . S
C718 C717 1.382 . S
C718 H728 0.948 . S
N719 Co697 2.282 1_565 S
N719 C723 1.332 . S
N719 C724 1.332 . S
C720 C721 1.388 . S
C720 C724 1.382 . S
C720 H743 0.950 . S
C721 C720 1.388 . S
C721 C722 1.386 . S
C722 C721 1.386 . S
C722 C723 1.382 . S
C722 H744 0.950 . S
C723 N719 1.332 . S
C723 C722 1.382 . S
C723 H725 0.952 . S
C724 N719 1.332 . S
C724 C720 1.382 . S
C724 H726 0.948 . S
H725 C723 0.952 . S
H726 C724 0.948 . S
H727 C716 0.952 . S
H728 C718 0.948 . S
C729 C695 1.395 . S
C729 C699 1.391 . S
C730 C692 1.389 . S
C730 C712 1.392 . S
C731 C702 1.392 . S
C731 C704 1.389 . S
C732 C707 1.395 . S
C732 C709 1.391 . S
H733 C693 0.951 . S
H734 C694 0.950 . S
H735 C700 0.949 . S
H736 C701 0.950 . S
H737 C705 0.951 . S
H738 C706 0.950 . S
H739 C710 0.949 . S
H740 C711 0.950 . S
H741 C715 0.950 . S
H742 C717 0.950 . S
H743 C720 0.950 . S
H744 C722 0.950 . S
C745 C746 1.443 . S
C745 N749 1.376 . S
C745 C783 1.389 . S
C746 C745 1.443 . S
C746 C747 1.340 . S
C746 H786 0.951 . S
C747 C746 1.340 . S
C747 C748 1.439 . S
C747 H787 0.950 . S
C748 C747 1.439 . S
C748 N749 1.374 . S
C748 C782 1.395 . S
N749 C745 1.376 . S
N749 C748 1.374 . S
N749 Co750 2.008 . S
Co750 N749 2.008 . S
Co750 N751 1.995 . S
Co750 N756 2.024 . S
Co750 N761 1.995 . S
Co750 N766 2.282 1_554 S
Co750 N772 2.282 . S
N751 Co750 1.995 . S
N751 C752 1.376 . S
N751 C755 1.383 1_554 S
C752 N751 1.376 . S
C752 C753 1.446 1_554 S
C752 C782 1.391 . S
C753 C752 1.446 1_556 S
C753 C754 1.339 . S
C753 H788 0.949 . S
C754 C753 1.339 . S
C754 C755 1.439 . S
C754 H789 0.950 . S
C755 N751 1.383 1_556 S
C755 C754 1.439 . S
C755 C784 1.392 . S
N756 Co750 2.024 . S
N756 C757 1.355 1_554 S
N756 C760 1.374 . S
C757 N756 1.355 1_556 S
C757 C758 1.443 . S
C757 C784 1.389 . S
C758 C757 1.443 . S
C758 C759 1.340 . S
C758 H790 0.951 . S
C759 C758 1.340 . S
C759 C760 1.439 1_556 S
C759 H791 0.950 . S
C760 N756 1.374 . S
C760 C759 1.439 1_554 S
C760 C785 1.395 . S
N761 Co750 1.995 . S
N761 C762 1.376 . S
N761 C765 1.383 . S
C762 N761 1.376 . S
C762 C763 1.446 . S
C762 C785 1.391 . S
C763 C762 1.446 . S
C763 C764 1.339 . S
C763 H792 0.949 . S
C764 C763 1.339 . S
C764 C765 1.439 . S
C764 H793 0.950 . S
C765 N761 1.383 . S
C765 C764 1.439 . S
C765 C783 1.392 . S
N766 Co750 2.282 1_556 S
N766 C769 1.332 . S
N766 C771 1.332 . S
C767 C768 1.386 . S
C767 C770 1.388 . S
C768 C767 1.386 . S
C768 C769 1.382 . S
C768 H794 0.950 . S
C769 N766 1.332 . S
C769 C768 1.382 . S
C769 H780 0.952 . S
C770 C767 1.388 . S
C770 C771 1.382 . S
C770 H795 0.950 . S
C771 N766 1.332 . S
C771 C770 1.382 . S
C771 H781 0.948 . S
N772 Co750 2.282 . S
N772 C776 1.332 . S
N772 C777 1.332 . S
C773 C774 1.388 . S
C773 C777 1.382 . S
C773 H796 0.950 . S
C774 C773 1.388 . S
C774 C775 1.386 . S
C775 C774 1.386 . S
C775 C776 1.382 . S
C775 H797 0.950 . S
C776 N772 1.332 . S
C776 C775 1.382 . S
C776 H778 0.952 . S
C777 N772 1.332 . S
C777 C773 1.382 . S
C777 H779 0.948 . S
H778 C776 0.952 . S
H779 C777 0.948 . S
H780 C769 0.952 . S
H781 C771 0.948 . S
C782 C748 1.395 . S
C782 C752 1.391 . S
C783 C745 1.389 . S
C783 C765 1.392 . S
C784 C755 1.392 . S
C784 C757 1.389 . S
C785 C760 1.395 . S
C785 C762 1.391 . S
H786 C746 0.951 . S
H787 C747 0.950 . S
H788 C753 0.949 . S
H789 C754 0.950 . S
H790 C758 0.951 . S
H791 C759 0.950 . S
H792 C763 0.949 . S
H793 C764 0.950 . S
H794 C768 0.950 . S
H795 C770 0.950 . S
H796 C773 0.950 . S
H797 C775 0.950 . S
C798 C799 1.391 . S
C798 C800 1.394 . S
C798 H814 0.931 . S
C799 C798 1.391 . S
C799 C803 1.376 . S
C800 C798 1.394 . S
C800 C801 1.369 . S
C800 C804 1.531 . S
C801 C800 1.369 . S
C801 C802 1.410 . S
C801 C809 1.503 . S
C802 C801 1.410 . S
C802 C803 1.392 . S
C802 C805 1.511 . S
C803 C799 1.376 . S
C803 C802 1.392 . S
C803 H815 0.929 . S
C804 C800 1.531 . S
C804 H816 0.960 . S
C804 H817 0.962 . S
C804 H818 0.960 . S
C805 C802 1.511 . S
C805 H819 0.961 . S
C805 H820 0.961 . S
C805 H821 0.961 . S
C806 C807 1.370 . S
C806 C808 1.363 . S
C806 H822 0.931 . S
C807 C806 1.370 . S
C807 C811 1.408 . S
C808 C806 1.363 . S
C808 C809 1.370 . S
C808 C812 1.524 . S
C809 C801 1.503 . S
C809 C808 1.370 . S
C809 C810 1.403 . S
C810 C809 1.403 . S
C810 C811 1.404 . S
C810 C813 1.539 . S
C811 C807 1.408 . S
C811 C810 1.404 . S
C811 H823 0.930 . S
C812 C808 1.524 . S
C812 H824 0.956 . S
C812 H825 0.961 . S
C812 H826 0.961 . S
C813 C810 1.539 . S
C813 H827 0.958 . S
C813 H828 0.961 . S
C813 H829 0.960 . S
H814 C798 0.931 . S
H815 C803 0.929 . S
H816 C804 0.960 . S
H817 C804 0.962 . S
H818 C804 0.960 . S
H819 C805 0.961 . S
H820 C805 0.961 . S
H821 C805 0.961 . S
H822 C806 0.931 . S
H823 C811 0.930 . S
H824 C812 0.956 . S
H825 C812 0.961 . S
H826 C812 0.961 . S
H827 C813 0.958 . S
H828 C813 0.961 . S
H829 C813 0.960 . S
C830 C831 1.391 . S
C830 C832 1.394 . S
C830 H846 0.931 . S
C831 C830 1.391 . S
C831 C835 1.376 . S
C832 C830 1.394 . S
C832 C833 1.369 . S
C832 C836 1.531 . S
C833 C832 1.369 . S
C833 C834 1.410 . S
C833 C841 1.503 . S
C834 C833 1.410 . S
C834 C835 1.392 . S
C834 C837 1.511 . S
C835 C831 1.376 . S
C835 C834 1.392 . S
C835 H847 0.929 . S
C836 C832 1.531 . S
C836 H848 0.960 . S
C836 H849 0.962 . S
C836 H850 0.960 . S
C837 C834 1.511 . S
C837 H851 0.961 . S
C837 H852 0.961 . S
C837 H853 0.961 . S
C838 C839 1.370 . S
C838 C840 1.363 . S
C838 H854 0.931 . S
C839 C838 1.370 . S
C839 C843 1.408 . S
C840 C838 1.363 . S
C840 C841 1.370 . S
C840 C844 1.524 . S
C841 C833 1.503 . S
C841 C840 1.370 . S
C841 C842 1.403 . S
C842 C841 1.403 . S
C842 C843 1.404 . S
C842 C845 1.539 . S
C843 C839 1.408 . S
C843 C842 1.404 . S
C843 H855 0.930 . S
C844 C840 1.524 . S
C844 H856 0.956 . S
C844 H857 0.961 . S
C844 H858 0.961 . S
C845 C842 1.539 . S
C845 H859 0.958 . S
C845 H860 0.961 . S
C845 H861 0.960 . S
H846 C830 0.931 . S
H847 C835 0.929 . S
H848 C836 0.960 . S
H849 C836 0.962 . S
H850 C836 0.960 . S
H851 C837 0.961 . S
H852 C837 0.961 . S
H853 C837 0.961 . S
H854 C838 0.931 . S
H855 C843 0.930 . S
H856 C844 0.956 . S
H857 C844 0.961 . S
H858 C844 0.961 . S
H859 C845 0.958 . S
H860 C845 0.961 . S
H861 C845 0.960 . S
C862 C863 1.391 . S
C862 C864 1.394 . S
C862 H878 0.931 . S
C863 C862 1.391 . S
C863 C867 1.376 . S
C864 C862 1.394 . S
C864 C865 1.369 . S
C864 C868 1.531 . S
C865 C864 1.369 . S
C865 C866 1.410 . S
C865 C873 1.503 . S
C866 C865 1.410 . S
C866 C867 1.392 . S
C866 C869 1.511 . S
C867 C863 1.376 . S
C867 C866 1.392 . S
C867 H879 0.929 . S
C868 C864 1.531 . S
C868 H880 0.960 . S
C868 H881 0.962 . S
C868 H882 0.960 . S
C869 C866 1.511 . S
C869 H883 0.961 . S
C869 H884 0.961 . S
C869 H885 0.961 . S
C870 C871 1.370 . S
C870 C872 1.363 . S
C870 H886 0.931 . S
C871 C870 1.370 . S
C871 C875 1.408 . S
C872 C870 1.363 . S
C872 C873 1.370 . S
C872 C876 1.524 . S
C873 C865 1.503 . S
C873 C872 1.370 . S
C873 C874 1.403 . S
C874 C873 1.403 . S
C874 C875 1.404 . S
C874 C877 1.539 . S
C875 C871 1.408 . S
C875 C874 1.404 . S
C875 H887 0.930 . S
C876 C872 1.524 . S
C876 H888 0.956 . S
C876 H889 0.961 . S
C876 H890 0.961 . S
C877 C874 1.539 . S
C877 H891 0.958 . S
C877 H892 0.961 . S
C877 H893 0.960 . S
H878 C862 0.931 . S
H879 C867 0.929 . S
H880 C868 0.960 . S
H881 C868 0.962 . S
H882 C868 0.960 . S
H883 C869 0.961 . S
H884 C869 0.961 . S
H885 C869 0.961 . S
H886 C870 0.931 . S
H887 C875 0.930 . S
H888 C876 0.956 . S
H889 C876 0.961 . S
H890 C876 0.961 . S
H891 C877 0.958 . S
H892 C877 0.961 . S
H893 C877 0.960 . S
C894 C895 1.391 . S
C894 C896 1.394 . S
C894 H910 0.931 . S
C895 C894 1.391 . S
C895 C899 1.376 . S
C896 C894 1.394 . S
C896 C897 1.369 . S
C896 C900 1.531 . S
C897 C896 1.369 . S
C897 C898 1.410 . S
C897 C905 1.503 . S
C898 C897 1.410 . S
C898 C899 1.392 . S
C898 C901 1.511 . S
C899 C895 1.376 . S
C899 C898 1.392 . S
C899 H911 0.929 . S
C900 C896 1.531 . S
C900 H912 0.960 . S
C900 H913 0.962 . S
C900 H914 0.960 . S
C901 C898 1.511 . S
C901 H915 0.961 . S
C901 H916 0.961 . S
C901 H917 0.961 . S
C902 C903 1.370 . S
C902 C904 1.363 . S
C902 H918 0.931 . S
C903 C902 1.370 . S
C903 C907 1.408 . S
C904 C902 1.363 . S
C904 C905 1.370 . S
C904 C908 1.524 . S
C905 C897 1.503 . S
C905 C904 1.370 . S
C905 C906 1.403 . S
C906 C905 1.403 . S
C906 C907 1.404 . S
C906 C909 1.539 . S
C907 C903 1.408 . S
C907 C906 1.404 . S
C907 H919 0.930 . S
C908 C904 1.524 . S
C908 H920 0.956 . S
C908 H921 0.961 . S
C908 H922 0.961 . S
C909 C906 1.539 . S
C909 H923 0.958 . S
C909 H924 0.961 . S
C909 H925 0.960 . S
H910 C894 0.931 . S
H911 C899 0.929 . S
H912 C900 0.960 . S
H913 C900 0.962 . S
H914 C900 0.960 . S
H915 C901 0.961 . S
H916 C901 0.961 . S
H917 C901 0.961 . S
H918 C902 0.931 . S
H919 C907 0.930 . S
H920 C908 0.956 . S
H921 C908 0.961 . S
H922 C908 0.961 . S
H923 C909 0.958 . S
H924 C909 0.961 . S
H925 C909 0.960 . S
C926 C927 1.391 . S
C926 C928 1.394 . S
C926 H942 0.931 . S
C927 C926 1.391 . S
C927 C931 1.376 . S
C928 C926 1.394 . S
C928 C929 1.369 . S
C928 C932 1.531 . S
C929 C928 1.369 . S
C929 C930 1.410 . S
C929 C937 1.503 . S
C930 C929 1.410 . S
C930 C931 1.392 . S
C930 C933 1.511 . S
C931 C927 1.376 . S
C931 C930 1.392 . S
C931 H943 0.929 . S
C932 C928 1.531 . S
C932 H944 0.960 . S
C932 H945 0.962 . S
C932 H946 0.960 . S
C933 C930 1.511 . S
C933 H947 0.961 . S
C933 H948 0.961 . S
C933 H949 0.961 . S
C934 C935 1.370 . S
C934 C936 1.363 . S
C934 H950 0.931 . S
C935 C934 1.370 . S
C935 C939 1.408 . S
C936 C934 1.363 . S
C936 C937 1.370 . S
C936 C940 1.524 . S
C937 C929 1.503 . S
C937 C936 1.370 . S
C937 C938 1.403 . S
C938 C937 1.403 . S
C938 C939 1.404 . S
C938 C941 1.539 . S
C939 C935 1.408 . S
C939 C938 1.404 . S
C939 H951 0.930 . S
C940 C936 1.524 . S
C940 H952 0.956 . S
C940 H953 0.961 . S
C940 H954 0.961 . S
C941 C938 1.539 . S
C941 H955 0.958 . S
C941 H956 0.961 . S
C941 H957 0.960 . S
H942 C926 0.931 . S
H943 C931 0.929 . S
H944 C932 0.960 . S
H945 C932 0.962 . S
H946 C932 0.960 . S
H947 C933 0.961 . S
H948 C933 0.961 . S
H949 C933 0.961 . S
H950 C934 0.931 . S
H951 C939 0.930 . S
H952 C940 0.956 . S
H953 C940 0.961 . S
H954 C940 0.961 . S
H955 C941 0.958 . S
H956 C941 0.961 . S
H957 C941 0.960 . S
C958 C959 1.391 . S
C958 C960 1.394 . S
C958 H974 0.931 . S
C959 C958 1.391 . S
C959 C963 1.376 . S
C960 C958 1.394 . S
C960 C961 1.369 . S
C960 C964 1.531 . S
C961 C960 1.369 . S
C961 C962 1.410 . S
C961 C969 1.503 . S
C962 C961 1.410 . S
C962 C963 1.392 . S
C962 C965 1.511 . S
C963 C959 1.376 . S
C963 C962 1.392 . S
C963 H975 0.929 . S
C964 C960 1.531 . S
C964 H976 0.960 . S
C964 H977 0.962 . S
C964 H978 0.960 . S
C965 C962 1.511 . S
C965 H979 0.961 . S
C965 H980 0.961 . S
C965 H981 0.961 . S
C966 C967 1.370 . S
C966 C968 1.363 . S
C966 H982 0.931 . S
C967 C966 1.370 . S
C967 C971 1.408 . S
C968 C966 1.363 . S
C968 C969 1.370 . S
C968 C972 1.524 . S
C969 C961 1.503 . S
C969 C968 1.370 . S
C969 C970 1.403 . S
C970 C969 1.403 . S
C970 C971 1.404 . S
C970 C973 1.539 . S
C971 C967 1.408 . S
C971 C970 1.404 . S
C971 H983 0.930 . S
C972 C968 1.524 . S
C972 H984 0.956 . S
C972 H985 0.961 . S
C972 H986 0.961 . S
C973 C970 1.539 . S
C973 H987 0.958 . S
C973 H988 0.961 . S
C973 H989 0.960 . S
H974 C958 0.931 . S
H975 C963 0.929 . S
H976 C964 0.960 . S
H977 C964 0.962 . S
H978 C964 0.960 . S
H979 C965 0.961 . S
H980 C965 0.961 . S
H981 C965 0.961 . S
H982 C966 0.931 . S
H983 C971 0.930 . S
H984 C972 0.956 . S
H985 C972 0.961 . S
H986 C972 0.961 . S
H987 C973 0.958 . S
H988 C973 0.961 . S
H989 C973 0.960 . S
C990 C991 1.391 . S
C990 C992 1.394 . S
C990 H1006 0.931 . S
C991 C990 1.391 . S
C991 C995 1.376 . S
C992 C990 1.394 . S
C992 C993 1.369 . S
C992 C996 1.531 . S
C993 C992 1.369 . S
C993 C994 1.410 . S
C993 C1001 1.503 . S
C994 C993 1.410 . S
C994 C995 1.392 . S
C994 C997 1.511 . S
C995 C991 1.376 . S
C995 C994 1.392 . S
C995 H1007 0.929 . S
C996 C992 1.531 . S
C996 H1008 0.960 . S
C996 H1009 0.962 . S
C996 H1010 0.960 . S
C997 C994 1.511 . S
C997 H1011 0.961 . S
C997 H1012 0.961 . S
C997 H1013 0.961 . S
C998 C999 1.370 . S
C998 C1000 1.363 . S
C998 H1014 0.931 . S
C999 C998 1.370 . S
C999 C1003 1.408 . S
C1000 C998 1.363 . S
C1000 C1001 1.370 . S
C1000 C1004 1.524 . S
C1001 C993 1.503 . S
C1001 C1000 1.370 . S
C1001 C1002 1.403 . S
C1002 C1001 1.403 . S
C1002 C1003 1.404 . S
C1002 C1005 1.539 . S
C1003 C999 1.408 . S
C1003 C1002 1.404 . S
C1003 H1015 0.930 . S
C1004 C1000 1.524 . S
C1004 H1016 0.956 . S
C1004 H1017 0.961 . S
C1004 H1018 0.961 . S
C1005 C1002 1.539 . S
C1005 H1019 0.958 . S
C1005 H1020 0.961 . S
C1005 H1021 0.960 . S
H1006 C990 0.931 . S
H1007 C995 0.929 . S
H1008 C996 0.960 . S
H1009 C996 0.962 . S
H1010 C996 0.960 . S
H1011 C997 0.961 . S
H1012 C997 0.961 . S
H1013 C997 0.961 . S
H1014 C998 0.931 . S
H1015 C1003 0.930 . S
H1016 C1004 0.956 . S
H1017 C1004 0.961 . S
H1018 C1004 0.961 . S
H1019 C1005 0.958 . S
H1020 C1005 0.961 . S
H1021 C1005 0.960 . S
C1022 C1023 1.391 . S
C1022 C1024 1.394 . S
C1022 H1038 0.931 . S
C1023 C1022 1.391 . S
C1023 C1027 1.376 . S
C1024 C1022 1.394 . S
C1024 C1025 1.369 . S
C1024 C1028 1.531 . S
C1025 C1024 1.369 . S
C1025 C1026 1.410 . S
C1025 C1033 1.503 . S
C1026 C1025 1.410 . S
C1026 C1027 1.392 . S
C1026 C1029 1.511 . S
C1027 C1023 1.376 . S
C1027 C1026 1.392 . S
C1027 H1039 0.929 . S
C1028 C1024 1.531 . S
C1028 H1040 0.960 . S
C1028 H1041 0.962 . S
C1028 H1042 0.960 . S
C1029 C1026 1.511 . S
C1029 H1043 0.961 . S
C1029 H1044 0.961 . S
C1029 H1045 0.961 . S
C1030 C1031 1.370 . S
C1030 C1032 1.363 . S
C1030 H1046 0.931 . S
C1031 C1030 1.370 . S
C1031 C1035 1.408 . S
C1032 C1030 1.363 . S
C1032 C1033 1.370 . S
C1032 C1036 1.524 . S
C1033 C1025 1.503 . S
C1033 C1032 1.370 . S
C1033 C1034 1.403 . S
C1034 C1033 1.403 . S
C1034 C1035 1.404 . S
C1034 C1037 1.539 . S
C1035 C1031 1.408 . S
C1035 C1034 1.404 . S
C1035 H1047 0.930 . S
C1036 C1032 1.524 . S
C1036 H1048 0.956 . S
C1036 H1049 0.961 . S
C1036 H1050 0.961 . S
C1037 C1034 1.539 . S
C1037 H1051 0.958 . S
C1037 H1052 0.961 . S
C1037 H1053 0.960 . S
H1038 C1022 0.931 . S
H1039 C1027 0.929 . S
H1040 C1028 0.960 . S
H1041 C1028 0.962 . S
H1042 C1028 0.960 . S
H1043 C1029 0.961 . S
H1044 C1029 0.961 . S
H1045 C1029 0.961 . S
H1046 C1030 0.931 . S
H1047 C1035 0.930 . S
H1048 C1036 0.956 . S
H1049 C1036 0.961 . S
H1050 C1036 0.961 . S
H1051 C1037 0.958 . S
H1052 C1037 0.961 . S
H1053 C1037 0.960 . S
C1054 C1055 1.391 . S
C1054 C1056 1.394 . S
C1054 H1070 0.931 . S
C1055 C1054 1.391 . S
C1055 C1059 1.376 . S
C1056 C1054 1.394 . S
C1056 C1057 1.369 . S
C1056 C1060 1.531 . S
C1057 C1056 1.369 . S
C1057 C1058 1.410 . S
C1057 C1065 1.503 . S
C1058 C1057 1.410 . S
C1058 C1059 1.392 . S
C1058 C1061 1.511 . S
C1059 C1055 1.376 . S
C1059 C1058 1.392 . S
C1059 H1071 0.929 . S
C1060 C1056 1.531 . S
C1060 H1072 0.960 . S
C1060 H1073 0.962 . S
C1060 H1074 0.960 . S
C1061 C1058 1.511 . S
C1061 H1075 0.961 . S
C1061 H1076 0.961 . S
C1061 H1077 0.961 . S
C1062 C1063 1.370 . S
C1062 C1064 1.363 . S
C1062 H1078 0.931 . S
C1063 C1062 1.370 . S
C1063 C1067 1.408 . S
C1064 C1062 1.363 . S
C1064 C1065 1.370 . S
C1064 C1068 1.524 . S
C1065 C1057 1.503 . S
C1065 C1064 1.370 . S
C1065 C1066 1.403 . S
C1066 C1065 1.403 . S
C1066 C1067 1.404 . S
C1066 C1069 1.539 . S
C1067 C1063 1.408 . S
C1067 C1066 1.404 . S
C1067 H1079 0.930 . S
C1068 C1064 1.524 . S
C1068 H1080 0.956 . S
C1068 H1081 0.961 . S
C1068 H1082 0.961 . S
C1069 C1066 1.539 . S
C1069 H1083 0.958 . S
C1069 H1084 0.961 . S
C1069 H1085 0.960 . S
H1070 C1054 0.931 . S
H1071 C1059 0.929 . S
H1072 C1060 0.960 . S
H1073 C1060 0.962 . S
H1074 C1060 0.960 . S
H1075 C1061 0.961 . S
H1076 C1061 0.961 . S
H1077 C1061 0.961 . S
H1078 C1062 0.931 . S
H1079 C1067 0.930 . S
H1080 C1068 0.956 . S
H1081 C1068 0.961 . S
H1082 C1068 0.961 . S
H1083 C1069 0.958 . S
H1084 C1069 0.961 . S
H1085 C1069 0.960 . S
C1086 C1087 1.391 . S
C1086 C1088 1.394 . S
C1086 H1102 0.931 . S
C1087 C1086 1.391 . S
C1087 C1091 1.376 . S
C1088 C1086 1.394 . S
C1088 C1089 1.369 . S
C1088 C1092 1.531 . S
C1089 C1088 1.369 . S
C1089 C1090 1.410 . S
C1089 C1097 1.503 . S
C1090 C1089 1.410 . S
C1090 C1091 1.392 . S
C1090 C1093 1.511 . S
C1091 C1087 1.376 . S
C1091 C1090 1.392 . S
C1091 H1103 0.929 . S
C1092 C1088 1.531 . S
C1092 H1104 0.960 . S
C1092 H1105 0.962 . S
C1092 H1106 0.960 . S
C1093 C1090 1.511 . S
C1093 H1107 0.961 . S
C1093 H1108 0.961 . S
C1093 H1109 0.961 . S
C1094 C1095 1.370 . S
C1094 C1096 1.363 . S
C1094 H1110 0.931 . S
C1095 C1094 1.370 . S
C1095 C1099 1.408 . S
C1096 C1094 1.363 . S
C1096 C1097 1.370 . S
C1096 C1100 1.524 . S
C1097 C1089 1.503 . S
C1097 C1096 1.370 . S
C1097 C1098 1.403 . S
C1098 C1097 1.403 . S
C1098 C1099 1.404 . S
C1098 C1101 1.539 . S
C1099 C1095 1.408 . S
C1099 C1098 1.404 . S
C1099 H1111 0.930 . S
C1100 C1096 1.524 . S
C1100 H1112 0.956 . S
C1100 H1113 0.961 . S
C1100 H1114 0.961 . S
C1101 C1098 1.539 . S
C1101 H1115 0.958 . S
C1101 H1116 0.961 . S
C1101 H1117 0.960 . S
H1102 C1086 0.931 . S
H1103 C1091 0.929 . S
H1104 C1092 0.960 . S
H1105 C1092 0.962 . S
H1106 C1092 0.960 . S
H1107 C1093 0.961 . S
H1108 C1093 0.961 . S
H1109 C1093 0.961 . S
H1110 C1094 0.931 . S
H1111 C1099 0.930 . S
H1112 C1100 0.956 . S
H1113 C1100 0.961 . S
H1114 C1100 0.961 . S
H1115 C1101 0.958 . S
H1116 C1101 0.961 . S
H1117 C1101 0.960 . S
C1118 C1119 1.391 . S
C1118 C1120 1.394 . S
C1118 H1134 0.931 . S
C1119 C1118 1.391 . S
C1119 C1123 1.376 . S
C1120 C1118 1.394 . S
C1120 C1121 1.369 . S
C1120 C1124 1.531 . S
C1121 C1120 1.369 . S
C1121 C1122 1.410 . S
C1121 C1129 1.503 . S
C1122 C1121 1.410 . S
C1122 C1123 1.392 . S
C1122 C1125 1.511 . S
C1123 C1119 1.376 . S
C1123 C1122 1.392 . S
C1123 H1135 0.929 . S
C1124 C1120 1.531 . S
C1124 H1136 0.960 . S
C1124 H1137 0.962 . S
C1124 H1138 0.960 . S
C1125 C1122 1.511 . S
C1125 H1139 0.961 . S
C1125 H1140 0.961 . S
C1125 H1141 0.961 . S
C1126 C1127 1.370 . S
C1126 C1128 1.363 . S
C1126 H1142 0.931 . S
C1127 C1126 1.370 . S
C1127 C1131 1.408 . S
C1128 C1126 1.363 . S
C1128 C1129 1.370 . S
C1128 C1132 1.524 . S
C1129 C1121 1.503 . S
C1129 C1128 1.370 . S
C1129 C1130 1.403 . S
C1130 C1129 1.403 . S
C1130 C1131 1.404 . S
C1130 C1133 1.539 . S
C1131 C1127 1.408 . S
C1131 C1130 1.404 . S
C1131 H1143 0.930 . S
C1132 C1128 1.524 . S
C1132 H1144 0.956 . S
C1132 H1145 0.961 . S
C1132 H1146 0.961 . S
C1133 C1130 1.539 . S
C1133 H1147 0.958 . S
C1133 H1148 0.961 . S
C1133 H1149 0.960 . S
H1134 C1118 0.931 . S
H1135 C1123 0.929 . S
H1136 C1124 0.960 . S
H1137 C1124 0.962 . S
H1138 C1124 0.960 . S
H1139 C1125 0.961 . S
H1140 C1125 0.961 . S
H1141 C1125 0.961 . S
H1142 C1126 0.931 . S
H1143 C1131 0.930 . S
H1144 C1132 0.956 . S
H1145 C1132 0.961 . S
H1146 C1132 0.961 . S
H1147 C1133 0.958 . S
H1148 C1133 0.961 . S
H1149 C1133 0.960 . S
C1150 C1151 1.391 . S
C1150 C1152 1.394 . S
C1150 H1166 0.931 . S
C1151 C1150 1.391 . S
C1151 C1155 1.376 . S
C1152 C1150 1.394 . S
C1152 C1153 1.369 . S
C1152 C1156 1.531 . S
C1153 C1152 1.369 . S
C1153 C1154 1.410 . S
C1153 C1161 1.503 . S
C1154 C1153 1.410 . S
C1154 C1155 1.392 . S
C1154 C1157 1.511 . S
C1155 C1151 1.376 . S
C1155 C1154 1.392 . S
C1155 H1167 0.929 . S
C1156 C1152 1.531 . S
C1156 H1168 0.960 . S
C1156 H1169 0.962 . S
C1156 H1170 0.960 . S
C1157 C1154 1.511 . S
C1157 H1171 0.961 . S
C1157 H1172 0.961 . S
C1157 H1173 0.961 . S
C1158 C1159 1.370 . S
C1158 C1160 1.363 . S
C1158 H1174 0.931 . S
C1159 C1158 1.370 . S
C1159 C1163 1.408 . S
C1160 C1158 1.363 . S
C1160 C1161 1.370 . S
C1160 C1164 1.524 . S
C1161 C1153 1.503 . S
C1161 C1160 1.370 . S
C1161 C1162 1.403 . S
C1162 C1161 1.403 . S
C1162 C1163 1.404 . S
C1162 C1165 1.539 . S
C1163 C1159 1.408 . S
C1163 C1162 1.404 . S
C1163 H1175 0.930 . S
C1164 C1160 1.524 . S
C1164 H1176 0.956 . S
C1164 H1177 0.961 . S
C1164 H1178 0.961 . S
C1165 C1162 1.539 . S
C1165 H1179 0.958 . S
C1165 H1180 0.961 . S
C1165 H1181 0.960 . S
H1166 C1150 0.931 . S
H1167 C1155 0.929 . S
H1168 C1156 0.960 . S
H1169 C1156 0.962 . S
H1170 C1156 0.960 . S
H1171 C1157 0.961 . S
H1172 C1157 0.961 . S
H1173 C1157 0.961 . S
H1174 C1158 0.931 . S
H1175 C1163 0.930 . S
H1176 C1164 0.956 . S
H1177 C1164 0.961 . S
H1178 C1164 0.961 . S
H1179 C1165 0.958 . S
H1180 C1165 0.961 . S
H1181 C1165 0.960 . S
C1182 C1183 1.391 . S
C1182 C1184 1.394 . S
C1182 H1198 0.931 . S
C1183 C1182 1.391 . S
C1183 C1187 1.376 . S
C1184 C1182 1.394 . S
C1184 C1185 1.369 . S
C1184 C1188 1.531 . S
C1185 C1184 1.369 . S
C1185 C1186 1.410 . S
C1185 C1193 1.503 . S
C1186 C1185 1.410 . S
C1186 C1187 1.392 . S
C1186 C1189 1.511 . S
C1187 C1183 1.376 . S
C1187 C1186 1.392 . S
C1187 H1199 0.929 . S
C1188 C1184 1.531 . S
C1188 H1200 0.960 . S
C1188 H1201 0.962 . S
C1188 H1202 0.960 . S
C1189 C1186 1.511 . S
C1189 H1203 0.961 . S
C1189 H1204 0.961 . S
C1189 H1205 0.961 . S
C1190 C1191 1.370 . S
C1190 C1192 1.363 . S
C1190 H1206 0.931 . S
C1191 C1190 1.370 . S
C1191 C1195 1.408 . S
C1192 C1190 1.363 . S
C1192 C1193 1.370 . S
C1192 C1196 1.524 . S
C1193 C1185 1.503 . S
C1193 C1192 1.370 . S
C1193 C1194 1.403 . S
C1194 C1193 1.403 . S
C1194 C1195 1.404 . S
C1194 C1197 1.539 . S
C1195 C1191 1.408 . S
C1195 C1194 1.404 . S
C1195 H1207 0.930 . S
C1196 C1192 1.524 . S
C1196 H1208 0.956 . S
C1196 H1209 0.961 . S
C1196 H1210 0.961 . S
C1197 C1194 1.539 . S
C1197 H1211 0.958 . S
C1197 H1212 0.961 . S
C1197 H1213 0.960 . S
H1198 C1182 0.931 . S
H1199 C1187 0.929 . S
H1200 C1188 0.960 . S
H1201 C1188 0.962 . S
H1202 C1188 0.960 . S
H1203 C1189 0.961 . S
H1204 C1189 0.961 . S
H1205 C1189 0.961 . S
H1206 C1190 0.931 . S
H1207 C1195 0.930 . S
H1208 C1196 0.956 . S
H1209 C1196 0.961 . S
H1210 C1196 0.961 . S
H1211 C1197 0.958 . S
H1212 C1197 0.961 . S
H1213 C1197 0.960 . S
C1214 C1215 1.391 . S
C1214 C1216 1.394 . S
C1214 H1230 0.931 . S
C1215 C1214 1.391 . S
C1215 C1219 1.376 . S
C1216 C1214 1.394 . S
C1216 C1217 1.369 . S
C1216 C1220 1.531 . S
C1217 C1216 1.369 . S
C1217 C1218 1.410 . S
C1217 C1225 1.503 . S
C1218 C1217 1.410 . S
C1218 C1219 1.392 . S
C1218 C1221 1.511 . S
C1219 C1215 1.376 . S
C1219 C1218 1.392 . S
C1219 H1231 0.929 . S
C1220 C1216 1.531 . S
C1220 H1232 0.960 . S
C1220 H1233 0.962 . S
C1220 H1234 0.960 . S
C1221 C1218 1.511 . S
C1221 H1235 0.961 . S
C1221 H1236 0.961 . S
C1221 H1237 0.961 . S
C1222 C1223 1.370 . S
C1222 C1224 1.363 . S
C1222 H1238 0.931 . S
C1223 C1222 1.370 . S
C1223 C1227 1.408 . S
C1224 C1222 1.363 . S
C1224 C1225 1.370 . S
C1224 C1228 1.524 . S
C1225 C1217 1.503 . S
C1225 C1224 1.370 . S
C1225 C1226 1.403 . S
C1226 C1225 1.403 . S
C1226 C1227 1.404 . S
C1226 C1229 1.539 . S
C1227 C1223 1.408 . S
C1227 C1226 1.404 . S
C1227 H1239 0.930 . S
C1228 C1224 1.524 . S
C1228 H1240 0.956 . S
C1228 H1241 0.961 . S
C1228 H1242 0.961 . S
C1229 C1226 1.539 . S
C1229 H1243 0.958 . S
C1229 H1244 0.961 . S
C1229 H1245 0.960 . S
H1230 C1214 0.931 . S
H1231 C1219 0.929 . S
H1232 C1220 0.960 . S
H1233 C1220 0.962 . S
H1234 C1220 0.960 . S
H1235 C1221 0.961 . S
H1236 C1221 0.961 . S
H1237 C1221 0.961 . S
H1238 C1222 0.931 . S
H1239 C1227 0.930 . S
H1240 C1228 0.956 . S
H1241 C1228 0.961 . S
H1242 C1228 0.961 . S
H1243 C1229 0.958 . S
H1244 C1229 0.961 . S
H1245 C1229 0.960 . S
C1246 C1247 1.391 . S
C1246 C1248 1.394 . S
C1246 H1262 0.931 . S
C1247 C1246 1.391 . S
C1247 C1251 1.376 . S
C1248 C1246 1.394 . S
C1248 C1249 1.369 . S
C1248 C1252 1.531 . S
C1249 C1248 1.369 . S
C1249 C1250 1.410 . S
C1249 C1257 1.503 . S
C1250 C1249 1.410 . S
C1250 C1251 1.392 . S
C1250 C1253 1.511 . S
C1251 C1247 1.376 . S
C1251 C1250 1.392 . S
C1251 H1263 0.929 . S
C1252 C1248 1.531 . S
C1252 H1264 0.960 . S
C1252 H1265 0.962 . S
C1252 H1266 0.960 . S
C1253 C1250 1.511 . S
C1253 H1267 0.961 . S
C1253 H1268 0.961 . S
C1253 H1269 0.961 . S
C1254 C1255 1.370 . S
C1254 C1256 1.363 . S
C1254 H1270 0.931 . S
C1255 C1254 1.370 . S
C1255 C1259 1.408 . S
C1256 C1254 1.363 . S
C1256 C1257 1.370 . S
C1256 C1260 1.524 . S
C1257 C1249 1.503 . S
C1257 C1256 1.370 . S
C1257 C1258 1.403 . S
C1258 C1257 1.403 . S
C1258 C1259 1.404 . S
C1258 C1261 1.539 . S
C1259 C1255 1.408 . S
C1259 C1258 1.404 . S
C1259 H1271 0.930 . S
C1260 C1256 1.524 . S
C1260 H1272 0.956 . S
C1260 H1273 0.961 . S
C1260 H1274 0.961 . S
C1261 C1258 1.539 . S
C1261 H1275 0.958 . S
C1261 H1276 0.961 . S
C1261 H1277 0.960 . S
H1262 C1246 0.931 . S
H1263 C1251 0.929 . S
H1264 C1252 0.960 . S
H1265 C1252 0.962 . S
H1266 C1252 0.960 . S
H1267 C1253 0.961 . S
H1268 C1253 0.961 . S
H1269 C1253 0.961 . S
H1270 C1254 0.931 . S
H1271 C1259 0.930 . S
H1272 C1260 0.956 . S
H1273 C1260 0.961 . S
H1274 C1260 0.961 . S
H1275 C1261 0.958 . S
H1276 C1261 0.961 . S
H1277 C1261 0.960 . S
C1278 C1279 1.391 . S
C1278 C1280 1.394 . S
C1278 H1294 0.931 . S
C1279 C1278 1.391 . S
C1279 C1283 1.376 . S
C1280 C1278 1.394 . S
C1280 C1281 1.369 . S
C1280 C1284 1.531 . S
C1281 C1280 1.369 . S
C1281 C1282 1.410 . S
C1281 C1289 1.503 . S
C1282 C1281 1.410 . S
C1282 C1283 1.392 . S
C1282 C1285 1.511 . S
C1283 C1279 1.376 . S
C1283 C1282 1.392 . S
C1283 H1295 0.929 . S
C1284 C1280 1.531 . S
C1284 H1296 0.960 . S
C1284 H1297 0.962 . S
C1284 H1298 0.960 . S
C1285 C1282 1.511 . S
C1285 H1299 0.961 . S
C1285 H1300 0.961 . S
C1285 H1301 0.961 . S
C1286 C1287 1.370 . S
C1286 C1288 1.363 . S
C1286 H1302 0.931 . S
C1287 C1286 1.370 . S
C1287 C1291 1.408 . S
C1288 C1286 1.363 . S
C1288 C1289 1.370 . S
C1288 C1292 1.524 . S
C1289 C1281 1.503 . S
C1289 C1288 1.370 . S
C1289 C1290 1.403 . S
C1290 C1289 1.403 . S
C1290 C1291 1.404 . S
C1290 C1293 1.539 . S
C1291 C1287 1.408 . S
C1291 C1290 1.404 . S
C1291 H1303 0.930 . S
C1292 C1288 1.524 . S
C1292 H1304 0.956 . S
C1292 H1305 0.961 . S
C1292 H1306 0.961 . S
C1293 C1290 1.539 . S
C1293 H1307 0.958 . S
C1293 H1308 0.961 . S
C1293 H1309 0.960 . S
H1294 C1278 0.931 . S
H1295 C1283 0.929 . S
H1296 C1284 0.960 . S
H1297 C1284 0.962 . S
H1298 C1284 0.960 . S
H1299 C1285 0.961 . S
H1300 C1285 0.961 . S
H1301 C1285 0.961 . S
H1302 C1286 0.931 . S
H1303 C1291 0.930 . S
H1304 C1292 0.956 . S
H1305 C1292 0.961 . S
H1306 C1292 0.961 . S
H1307 C1293 0.958 . S
H1308 C1293 0.961 . S
H1309 C1293 0.960 . S
C1310 C1311 1.391 . S
C1310 C1312 1.394 . S
C1310 H1326 0.931 . S
C1311 C1310 1.391 . S
C1311 C1315 1.376 . S
C1312 C1310 1.394 . S
C1312 C1313 1.369 . S
C1312 C1316 1.531 . S
C1313 C1312 1.369 . S
C1313 C1314 1.410 . S
C1313 C1321 1.503 . S
C1314 C1313 1.410 . S
C1314 C1315 1.392 . S
C1314 C1317 1.511 . S
C1315 C1311 1.376 . S
C1315 C1314 1.392 . S
C1315 H1327 0.929 . S
C1316 C1312 1.531 . S
C1316 H1328 0.960 . S
C1316 H1329 0.962 . S
C1316 H1330 0.960 . S
C1317 C1314 1.511 . S
C1317 H1331 0.961 . S
C1317 H1332 0.961 . S
C1317 H1333 0.961 . S
C1318 C1319 1.370 . S
C1318 C1320 1.363 . S
C1318 H1334 0.931 . S
C1319 C1318 1.370 . S
C1319 C1323 1.408 . S
C1320 C1318 1.363 . S
C1320 C1321 1.370 . S
C1320 C1324 1.524 . S
C1321 C1313 1.503 . S
C1321 C1320 1.370 . S
C1321 C1322 1.403 . S
C1322 C1321 1.403 . S
C1322 C1323 1.404 . S
C1322 C1325 1.539 . S
C1323 C1319 1.408 . S
C1323 C1322 1.404 . S
C1323 H1335 0.930 . S
C1324 C1320 1.524 . S
C1324 H1336 0.956 . S
C1324 H1337 0.961 . S
C1324 H1338 0.961 . S
C1325 C1322 1.539 . S
C1325 H1339 0.958 . S
C1325 H1340 0.961 . S
C1325 H1341 0.960 . S
H1326 C1310 0.931 . S
H1327 C1315 0.929 . S
H1328 C1316 0.960 . S
H1329 C1316 0.962 . S
H1330 C1316 0.960 . S
H1331 C1317 0.961 . S
H1332 C1317 0.961 . S
H1333 C1317 0.961 . S
H1334 C1318 0.931 . S
H1335 C1323 0.930 . S
H1336 C1324 0.956 . S
H1337 C1324 0.961 . S
H1338 C1324 0.961 . S
H1339 C1325 0.958 . S
H1340 C1325 0.961 . S
H1341 C1325 0.960 . S
C1342 C1343 1.391 . S
C1342 C1344 1.394 . S
C1342 H1358 0.931 . S
C1343 C1342 1.391 . S
C1343 C1347 1.376 . S
C1344 C1342 1.394 . S
C1344 C1345 1.369 . S
C1344 C1348 1.531 . S
C1345 C1344 1.369 . S
C1345 C1346 1.410 . S
C1345 C1353 1.503 . S
C1346 C1345 1.410 . S
C1346 C1347 1.392 . S
C1346 C1349 1.511 . S
C1347 C1343 1.376 . S
C1347 C1346 1.392 . S
C1347 H1359 0.929 . S
C1348 C1344 1.531 . S
C1348 H1360 0.960 . S
C1348 H1361 0.962 . S
C1348 H1362 0.960 . S
C1349 C1346 1.511 . S
C1349 H1363 0.961 . S
C1349 H1364 0.961 . S
C1349 H1365 0.961 . S
C1350 C1351 1.370 . S
C1350 C1352 1.363 . S
C1350 H1366 0.931 . S
C1351 C1350 1.370 . S
C1351 C1355 1.408 . S
C1352 C1350 1.363 . S
C1352 C1353 1.370 . S
C1352 C1356 1.524 . S
C1353 C1345 1.503 . S
C1353 C1352 1.370 . S
C1353 C1354 1.403 . S
C1354 C1353 1.403 . S
C1354 C1355 1.404 . S
C1354 C1357 1.539 . S
C1355 C1351 1.408 . S
C1355 C1354 1.404 . S
C1355 H1367 0.930 . S
C1356 C1352 1.524 . S
C1356 H1368 0.956 . S
C1356 H1369 0.961 . S
C1356 H1370 0.961 . S
C1357 C1354 1.539 . S
C1357 H1371 0.958 . S
C1357 H1372 0.961 . S
C1357 H1373 0.960 . S
H1358 C1342 0.931 . S
H1359 C1347 0.929 . S
H1360 C1348 0.960 . S
H1361 C1348 0.962 . S
H1362 C1348 0.960 . S
H1363 C1349 0.961 . S
H1364 C1349 0.961 . S
H1365 C1349 0.961 . S
H1366 C1350 0.931 . S
H1367 C1355 0.930 . S
H1368 C1356 0.956 . S
H1369 C1356 0.961 . S
H1370 C1356 0.961 . S
H1371 C1357 0.958 . S
H1372 C1357 0.961 . S
H1373 C1357 0.960 . S
C1374 C1375 1.391 . S
C1374 C1376 1.394 . S
C1374 H1390 0.931 . S
C1375 C1374 1.391 . S
C1375 C1379 1.376 . S
C1376 C1374 1.394 . S
C1376 C1377 1.369 . S
C1376 C1380 1.531 . S
C1377 C1376 1.369 . S
C1377 C1378 1.410 . S
C1377 C1385 1.503 . S
C1378 C1377 1.410 . S
C1378 C1379 1.392 . S
C1378 C1381 1.511 . S
C1379 C1375 1.376 . S
C1379 C1378 1.392 . S
C1379 H1391 0.929 . S
C1380 C1376 1.531 . S
C1380 H1392 0.960 . S
C1380 H1393 0.962 . S
C1380 H1394 0.960 . S
C1381 C1378 1.511 . S
C1381 H1395 0.961 . S
C1381 H1396 0.961 . S
C1381 H1397 0.961 . S
C1382 C1383 1.370 . S
C1382 C1384 1.363 . S
C1382 H1398 0.931 . S
C1383 C1382 1.370 . S
C1383 C1387 1.408 . S
C1384 C1382 1.363 . S
C1384 C1385 1.370 . S
C1384 C1388 1.524 . S
C1385 C1377 1.503 . S
C1385 C1384 1.370 . S
C1385 C1386 1.403 . S
C1386 C1385 1.403 . S
C1386 C1387 1.404 . S
C1386 C1389 1.539 . S
C1387 C1383 1.408 . S
C1387 C1386 1.404 . S
C1387 H1399 0.930 . S
C1388 C1384 1.524 . S
C1388 H1400 0.956 . S
C1388 H1401 0.961 . S
C1388 H1402 0.961 . S
C1389 C1386 1.539 . S
C1389 H1403 0.958 . S
C1389 H1404 0.961 . S
C1389 H1405 0.960 . S
H1390 C1374 0.931 . S
H1391 C1379 0.929 . S
H1392 C1380 0.960 . S
H1393 C1380 0.962 . S
H1394 C1380 0.960 . S
H1395 C1381 0.961 . S
H1396 C1381 0.961 . S
H1397 C1381 0.961 . S
H1398 C1382 0.931 . S
H1399 C1387 0.930 . S
H1400 C1388 0.956 . S
H1401 C1388 0.961 . S
H1402 C1388 0.961 . S
H1403 C1389 0.958 . S
H1404 C1389 0.961 . S
H1405 C1389 0.960 . S
C1406 C1407 1.391 . S
C1406 C1408 1.394 . S
C1406 H1422 0.931 . S
C1407 C1406 1.391 . S
C1407 C1411 1.376 . S
C1408 C1406 1.394 . S
C1408 C1409 1.369 . S
C1408 C1412 1.531 . S
C1409 C1408 1.369 . S
C1409 C1410 1.410 . S
C1409 C1417 1.503 . S
C1410 C1409 1.410 . S
C1410 C1411 1.392 . S
C1410 C1413 1.511 . S
C1411 C1407 1.376 . S
C1411 C1410 1.392 . S
C1411 H1423 0.929 . S
C1412 C1408 1.531 . S
C1412 H1424 0.960 . S
C1412 H1425 0.962 . S
C1412 H1426 0.960 . S
C1413 C1410 1.511 . S
C1413 H1427 0.961 . S
C1413 H1428 0.961 . S
C1413 H1429 0.961 . S
C1414 C1415 1.370 . S
C1414 C1416 1.363 . S
C1414 H1430 0.931 . S
C1415 C1414 1.370 . S
C1415 C1419 1.408 . S
C1416 C1414 1.363 . S
C1416 C1417 1.370 . S
C1416 C1420 1.524 . S
C1417 C1409 1.503 . S
C1417 C1416 1.370 . S
C1417 C1418 1.403 . S
C1418 C1417 1.403 . S
C1418 C1419 1.404 . S
C1418 C1421 1.539 . S
C1419 C1415 1.408 . S
C1419 C1418 1.404 . S
C1419 H1431 0.930 . S
C1420 C1416 1.524 . S
C1420 H1432 0.956 . S
C1420 H1433 0.961 . S
C1420 H1434 0.961 . S
C1421 C1418 1.539 . S
C1421 H1435 0.958 . S
C1421 H1436 0.961 . S
C1421 H1437 0.960 . S
H1422 C1406 0.931 . S
H1423 C1411 0.929 . S
H1424 C1412 0.960 . S
H1425 C1412 0.962 . S
H1426 C1412 0.960 . S
H1427 C1413 0.961 . S
H1428 C1413 0.961 . S
H1429 C1413 0.961 . S
H1430 C1414 0.931 . S
H1431 C1419 0.930 . S
H1432 C1420 0.956 . S
H1433 C1420 0.961 . S
H1434 C1420 0.961 . S
H1435 C1421 0.958 . S
H1436 C1421 0.961 . S
H1437 C1421 0.960 . S
C1438 C1439 1.391 . S
C1438 C1440 1.394 . S
C1438 H1454 0.931 . S
C1439 C1438 1.391 . S
C1439 C1443 1.376 . S
C1440 C1438 1.394 . S
C1440 C1441 1.369 . S
C1440 C1444 1.531 . S
C1441 C1440 1.369 . S
C1441 C1442 1.410 . S
C1441 C1449 1.503 . S
C1442 C1441 1.410 . S
C1442 C1443 1.392 . S
C1442 C1445 1.511 . S
C1443 C1439 1.376 . S
C1443 C1442 1.392 . S
C1443 H1455 0.929 . S
C1444 C1440 1.531 . S
C1444 H1456 0.960 . S
C1444 H1457 0.962 . S
C1444 H1458 0.960 . S
C1445 C1442 1.511 . S
C1445 H1459 0.961 . S
C1445 H1460 0.961 . S
C1445 H1461 0.961 . S
C1446 C1447 1.370 . S
C1446 C1448 1.363 . S
C1446 H1462 0.931 . S
C1447 C1446 1.370 . S
C1447 C1451 1.408 . S
C1448 C1446 1.363 . S
C1448 C1449 1.370 . S
C1448 C1452 1.524 . S
C1449 C1441 1.503 . S
C1449 C1448 1.370 . S
C1449 C1450 1.403 . S
C1450 C1449 1.403 . S
C1450 C1451 1.404 . S
C1450 C1453 1.539 . S
C1451 C1447 1.408 . S
C1451 C1450 1.404 . S
C1451 H1463 0.930 . S
C1452 C1448 1.524 . S
C1452 H1464 0.956 . S
C1452 H1465 0.961 . S
C1452 H1466 0.961 . S
C1453 C1450 1.539 . S
C1453 H1467 0.958 . S
C1453 H1468 0.961 . S
C1453 H1469 0.960 . S
H1454 C1438 0.931 . S
H1455 C1443 0.929 . S
H1456 C1444 0.960 . S
H1457 C1444 0.962 . S
H1458 C1444 0.960 . S
H1459 C1445 0.961 . S
H1460 C1445 0.961 . S
H1461 C1445 0.961 . S
H1462 C1446 0.931 . S
H1463 C1451 0.930 . S
H1464 C1452 0.956 . S
H1465 C1452 0.961 . S
H1466 C1452 0.961 . S
H1467 C1453 0.958 . S
H1468 C1453 0.961 . S
H1469 C1453 0.960 . S
C1470 C1471 1.391 . S
C1470 C1472 1.394 . S
C1470 H1486 0.931 . S
C1471 C1470 1.391 . S
C1471 C1475 1.376 . S
C1472 C1470 1.394 . S
C1472 C1473 1.369 . S
C1472 C1476 1.531 . S
C1473 C1472 1.369 . S
C1473 C1474 1.410 . S
C1473 C1481 1.503 . S
C1474 C1473 1.410 . S
C1474 C1475 1.392 . S
C1474 C1477 1.511 . S
C1475 C1471 1.376 . S
C1475 C1474 1.392 . S
C1475 H1487 0.929 . S
C1476 C1472 1.531 . S
C1476 H1488 0.960 . S
C1476 H1489 0.962 . S
C1476 H1490 0.960 . S
C1477 C1474 1.511 . S
C1477 H1491 0.961 . S
C1477 H1492 0.961 . S
C1477 H1493 0.961 . S
C1478 C1479 1.370 . S
C1478 C1480 1.363 . S
C1478 H1494 0.931 . S
C1479 C1478 1.370 . S
C1479 C1483 1.408 . S
C1480 C1478 1.363 . S
C1480 C1481 1.370 . S
C1480 C1484 1.524 . S
C1481 C1473 1.503 . S
C1481 C1480 1.370 . S
C1481 C1482 1.403 . S
C1482 C1481 1.403 . S
C1482 C1483 1.404 . S
C1482 C1485 1.539 . S
C1483 C1479 1.408 . S
C1483 C1482 1.404 . S
C1483 H1495 0.930 . S
C1484 C1480 1.524 . S
C1484 H1496 0.956 . S
C1484 H1497 0.961 . S
C1484 H1498 0.961 . S
C1485 C1482 1.539 . S
C1485 H1499 0.958 . S
C1485 H1500 0.961 . S
C1485 H1501 0.960 . S
H1486 C1470 0.931 . S
H1487 C1475 0.929 . S
H1488 C1476 0.960 . S
H1489 C1476 0.962 . S
H1490 C1476 0.960 . S
H1491 C1477 0.961 . S
H1492 C1477 0.961 . S
H1493 C1477 0.961 . S
H1494 C1478 0.931 . S
H1495 C1483 0.930 . S
H1496 C1484 0.956 . S
H1497 C1484 0.961 . S
H1498 C1484 0.961 . S
H1499 C1485 0.958 . S
H1500 C1485 0.961 . S
H1501 C1485 0.960 . S
C1502 C1503 1.391 . S
C1502 C1504 1.394 . S
C1502 H1518 0.931 . S
C1503 C1502 1.391 . S
C1503 C1507 1.376 . S
C1504 C1502 1.394 . S
C1504 C1505 1.369 . S
C1504 C1508 1.531 . S
C1505 C1504 1.369 . S
C1505 C1506 1.410 . S
C1505 C1513 1.503 . S
C1506 C1505 1.410 . S
C1506 C1507 1.392 . S
C1506 C1509 1.511 . S
C1507 C1503 1.376 . S
C1507 C1506 1.392 . S
C1507 H1519 0.929 . S
C1508 C1504 1.531 . S
C1508 H1520 0.960 . S
C1508 H1521 0.962 . S
C1508 H1522 0.960 . S
C1509 C1506 1.511 . S
C1509 H1523 0.961 . S
C1509 H1524 0.961 . S
C1509 H1525 0.961 . S
C1510 C1511 1.370 . S
C1510 C1512 1.363 . S
C1510 H1526 0.931 . S
C1511 C1510 1.370 . S
C1511 C1515 1.408 . S
C1512 C1510 1.363 . S
C1512 C1513 1.370 . S
C1512 C1516 1.524 . S
C1513 C1505 1.503 . S
C1513 C1512 1.370 . S
C1513 C1514 1.403 . S
C1514 C1513 1.403 . S
C1514 C1515 1.404 . S
C1514 C1517 1.539 . S
C1515 C1511 1.408 . S
C1515 C1514 1.404 . S
C1515 H1527 0.930 . S
C1516 C1512 1.524 . S
C1516 H1528 0.956 . S
C1516 H1529 0.961 . S
C1516 H1530 0.961 . S
C1517 C1514 1.539 . S
C1517 H1531 0.958 . S
C1517 H1532 0.961 . S
C1517 H1533 0.960 . S
H1518 C1502 0.931 . S
H1519 C1507 0.929 . S
H1520 C1508 0.960 . S
H1521 C1508 0.962 . S
H1522 C1508 0.960 . S
H1523 C1509 0.961 . S
H1524 C1509 0.961 . S
H1525 C1509 0.961 . S
H1526 C1510 0.931 . S
H1527 C1515 0.930 . S
H1528 C1516 0.956 . S
H1529 C1516 0.961 . S
H1530 C1516 0.961 . S
H1531 C1517 0.958 . S
H1532 C1517 0.961 . S
H1533 C1517 0.960 . S
C1534 C1535 1.391 . S
C1534 C1536 1.394 . S
C1534 H1550 0.931 . S
C1535 C1534 1.391 . S
C1535 C1539 1.376 . S
C1536 C1534 1.394 . S
C1536 C1537 1.369 . S
C1536 C1540 1.531 . S
C1537 C1536 1.369 . S
C1537 C1538 1.410 . S
C1537 C1545 1.503 . S
C1538 C1537 1.410 . S
C1538 C1539 1.392 . S
C1538 C1541 1.511 . S
C1539 C1535 1.376 . S
C1539 C1538 1.392 . S
C1539 H1551 0.929 . S
C1540 C1536 1.531 . S
C1540 H1552 0.960 . S
C1540 H1553 0.962 . S
C1540 H1554 0.960 . S
C1541 C1538 1.511 . S
C1541 H1555 0.961 . S
C1541 H1556 0.961 . S
C1541 H1557 0.961 . S
C1542 C1543 1.370 . S
C1542 C1544 1.363 . S
C1542 H1558 0.931 . S
C1543 C1542 1.370 . S
C1543 C1547 1.408 . S
C1544 C1542 1.363 . S
C1544 C1545 1.370 . S
C1544 C1548 1.524 . S
C1545 C1537 1.503 . S
C1545 C1544 1.370 . S
C1545 C1546 1.403 . S
C1546 C1545 1.403 . S
C1546 C1547 1.404 . S
C1546 C1549 1.539 . S
C1547 C1543 1.408 . S
C1547 C1546 1.404 . S
C1547 H1559 0.930 . S
C1548 C1544 1.524 . S
C1548 H1560 0.956 . S
C1548 H1561 0.961 . S
C1548 H1562 0.961 . S
C1549 C1546 1.539 . S
C1549 H1563 0.958 . S
C1549 H1564 0.961 . S
C1549 H1565 0.960 . S
H1550 C1534 0.931 . S
H1551 C1539 0.929 . S
H1552 C1540 0.960 . S
H1553 C1540 0.962 . S
H1554 C1540 0.960 . S
H1555 C1541 0.961 . S
H1556 C1541 0.961 . S
H1557 C1541 0.961 . S
H1558 C1542 0.931 . S
H1559 C1547 0.930 . S
H1560 C1548 0.956 . S
H1561 C1548 0.961 . S
H1562 C1548 0.961 . S
H1563 C1549 0.958 . S
H1564 C1549 0.961 . S
H1565 C1549 0.960 . S
C807 C502 1.550 . S
C799 C31 1.547 . S
C839 C571 1.550 . S
C831 C61 1.503 . S
C871 C509 1.553 . S
C863 C121 1.550 . S
C903 C572 1.544 . S
C895 C211 1.516 . S
C935 C625 1.551 . S
C927 C1 1.531 . S
C967 C661 1.525 . S
C959 C91 1.516 . S
C991 C151 1.530 . S
C999 C721 1.550 . S
C1031 C784 1.526 . S
C1023 C181 1.461 . S
C1063 C624 1.542 . S
C1055 C80 1.521 . S
C1087 C140 1.464 . S
C1095 C668 1.526 . S
C1127 C714 1.557 . S
C1119 C200 1.501 . S
C1159 C783 1.529 . S
C1151 C20 1.520 . S
C1183 C271 1.509 . S
C1191 C562 1.557 . S
C1223 C519 1.542 . S
C1215 C331 1.537 . S
C1247 C380 1.554 . S
C1255 C555 1.554 . S
C1279 C421 1.548 . S
C1287 C518 1.551 . S
C1319 C730 1.553 . S
C1311 C241 1.527 . S
C1351 C774 1.521 . S
C1343 C320 1.486 . S
C1383 C608 1.558 . S
C1375 C361 1.516 . S
C1407 C440 1.479 . S
C1415 C677 1.526 . S
C1447 C731 1.545 . S
C1439 C301 1.499 . S
C1479 C767 1.522 . S
C1471 C391 1.521 . S
C1511 C615 1.551 . S
C1503 C451 1.530 . S
C1535 C260 1.525 . S
C1543 C678 1.530 . S
