# Generated by pormake.
# Topology zzz, (3,6)-cn, num edge types: 1
# Building blocks:
#     Node 0, Type 0, BuildingBlock: VETTIZ_charged_linker_0, # of connection points: 3
#     Node 1, Type 0, BuildingBlock: VETTIZ_charged_linker_0, # of connection points: 3
#     Node 2, Type 0, BuildingBlock: VETTIZ_charged_linker_0, # of connection points: 3
#     Node 3, Type 0, BuildingBlock: VETTIZ_charged_linker_0, # of connection points: 3
#     Node 4, Type 0, BuildingBlock: VETTIZ_charged_linker_0, # of connection points: 3
#     Node 5, Type 0, BuildingBlock: VETTIZ_charged_linker_0, # of connection points: 3
#     Node 6, Type 0, BuildingBlock: VETTIZ_charged_linker_0, # of connection points: 3
#     Node 7, Type 0, BuildingBlock: VETTIZ_charged_linker_0, # of connection points: 3
#     Node 8, Type 1, BuildingBlock: JUFBIX_clean_sbu_0, # of connection points: 6
#     Node 9, Type 1, BuildingBlock: JUFBIX_clean_sbu_0, # of connection points: 6
#     Node 10, Type 1, BuildingBlock: JUFBIX_clean_sbu_0, # of connection points: 6
#     Node 11, Type 1, BuildingBlock: JUFBIX_clean_sbu_0, # of connection points: 6
#     Edge 12, Type (0, 1), BuildingBlock: MIFKUJ_clean_linker_0, # of connection points: 2
#     Edge 13, Type (0, 1), BuildingBlock: MIFKUJ_clean_linker_0, # of connection points: 2
#     Edge 14, Type (0, 1), BuildingBlock: MIFKUJ_clean_linker_0, # of connection points: 2
#     Edge 15, Type (0, 1), BuildingBlock: MIFKUJ_clean_linker_0, # of connection points: 2
#     Edge 16, Type (0, 1), BuildingBlock: MIFKUJ_clean_linker_0, # of connection points: 2
#     Edge 17, Type (0, 1), BuildingBlock: MIFKUJ_clean_linker_0, # of connection points: 2
#     Edge 18, Type (0, 1), BuildingBlock: MIFKUJ_clean_linker_0, # of connection points: 2
#     Edge 19, Type (0, 1), BuildingBlock: MIFKUJ_clean_linker_0, # of connection points: 2
#     Edge 20, Type (0, 1), BuildingBlock: MIFKUJ_clean_linker_0, # of connection points: 2
#     Edge 21, Type (0, 1), BuildingBlock: MIFKUJ_clean_linker_0, # of connection points: 2
#     Edge 22, Type (0, 1), BuildingBlock: MIFKUJ_clean_linker_0, # of connection points: 2
#     Edge 23, Type (0, 1), BuildingBlock: MIFKUJ_clean_linker_0, # of connection points: 2
#     Edge 24, Type (0, 1), BuildingBlock: MIFKUJ_clean_linker_0, # of connection points: 2
#     Edge 25, Type (0, 1), BuildingBlock: MIFKUJ_clean_linker_0, # of connection points: 2
#     Edge 26, Type (0, 1), BuildingBlock: MIFKUJ_clean_linker_0, # of connection points: 2
#     Edge 27, Type (0, 1), BuildingBlock: MIFKUJ_clean_linker_0, # of connection points: 2
#     Edge 28, Type (0, 1), BuildingBlock: MIFKUJ_clean_linker_0, # of connection points: 2
#     Edge 29, Type (0, 1), BuildingBlock: MIFKUJ_clean_linker_0, # of connection points: 2
#     Edge 30, Type (0, 1), BuildingBlock: MIFKUJ_clean_linker_0, # of connection points: 2
#     Edge 31, Type (0, 1), BuildingBlock: MIFKUJ_clean_linker_0, # of connection points: 2
#     Edge 32, Type (0, 1), BuildingBlock: MIFKUJ_clean_linker_0, # of connection points: 2
#     Edge 33, Type (0, 1), BuildingBlock: MIFKUJ_clean_linker_0, # of connection points: 2
#     Edge 34, Type (0, 1), BuildingBlock: MIFKUJ_clean_linker_0, # of connection points: 2
#     Edge 35, Type (0, 1), BuildingBlock: MIFKUJ_clean_linker_0, # of connection points: 2
# Relax obj value: 0.304
# Max RMSD: 0.225
# Mean RMSD: 0.192
data_MOF--net-zzz--node1-JUFBIX_clean_sbu_0--node2-VETTIZ_charged_linker_0--edge1-MIFKUJ_clean_linker_0
_symmetry_space_group_name_H-M    P1
_symmetry_Int_Tables_number       1
_symmetry_cell_setting            triclinic
loop_
_symmetry_equiv_pos_as_xyz
'x, y, z'
_cell_length_a     70.353551
_cell_length_b     72.625591
_cell_length_c     28.025789
_cell_angle_alpha  83.924136
_cell_angle_beta   90.09137
_cell_angle_gamma 86.826589
loop_
_atom_site_label
_atom_site_type_symbol
_atom_site_fract_x
_atom_site_fract_y
_atom_site_fract_z
_atom_type_partial_charge
C0 C 0.79929 0.56293 0.36543 0.0
C1 C 0.8186 0.56601 0.37404 0.0
C2 C 0.8303 0.57151 0.33514 0.0
C3 C 0.80423 0.57004 0.27971 0.0
C4 C 0.79229 0.56536 0.31769 0.0
C5 C 0.77208 0.56361 0.30032 0.0
H6 H 0.71229 0.56536 0.10612 0.0
C7 C 0.79325 0.57103 0.23467 0.0
C8 C 0.77416 0.56776 0.24597 0.0
H9 H 0.69674 0.55342 0.25452 0.0
H10 H 0.72911 0.55898 0.27939 0.0
H11 H 0.73866 0.59998 0.1199 0.0
H12 H 0.74705 0.54167 0.11092 0.0
H13 H 0.76799 0.55061 0.08722 0.0
H14 H 0.74552 0.55791 0.05817 0.0
H15 H 0.73614 0.58918 0.06568 0.0
H16 H 0.75873 0.59705 0.08355 0.0
C17 C 0.75899 0.57838 0.32152 0.0
C18 C 0.76643 0.54356 0.31465 0.0
C19 C 0.82878 0.57332 0.07708 0.0
C20 C 0.82275 0.57275 0.02934 0.0
C21 C 0.80314 0.5751 0.01855 0.0
C22 C 0.78976 0.57657 0.05507 0.0
C23 C 0.79601 0.57561 0.10302 0.0
C24 C 0.81523 0.57479 0.11311 0.0
C25 C 0.81925 0.5744 0.16595 0.0
C26 C 0.79921 0.57363 0.18616 0.0
C27 C 0.78578 0.57422 0.14916 0.0
C28 C 0.82858 0.59268 0.17446 0.0
C29 C 0.83167 0.5565 0.18208 0.0
C30 C 0.71574 0.56403 0.1441 0.0
C31 C 0.70209 0.55874 0.17831 0.0
C32 C 0.70711 0.55742 0.22742 0.0
C33 C 0.72589 0.56056 0.24168 0.0
C34 C 0.73964 0.56512 0.20638 0.0
C35 C 0.73418 0.56695 0.15858 0.0
C36 C 0.75023 0.57094 0.12498 0.0
C37 C 0.76645 0.57144 0.16001 0.0
C38 C 0.76045 0.56811 0.20801 0.0
C39 C 0.74578 0.59022 0.09661 0.0
C40 C 0.75288 0.5546 0.09337 0.0
H41 H 0.83306 0.5775 0.26049 0.0
H42 H 0.78996 0.5589 0.39494 0.0
H43 H 0.778 0.53347 0.30561 0.0
H44 H 0.75362 0.54014 0.29546 0.0
H45 H 0.76384 0.54117 0.35385 0.0
H46 H 0.76562 0.59201 0.31796 0.0
H47 H 0.75644 0.57438 0.36026 0.0
H48 H 0.74514 0.58074 0.3028 0.0
H49 H 0.84371 0.57156 0.08685 0.0
H50 H 0.79808 0.57525 0.98198 0.0
H51 H 0.77504 0.57773 0.04464 0.0
H52 H 0.82634 0.60354 0.14355 0.0
H53 H 0.8442 0.59038 0.18014 0.0
H54 H 0.82228 0.59905 0.20548 0.0
H55 H 0.82607 0.54441 0.16645 0.0
H56 H 0.83187 0.55275 0.22121 0.0
H57 H 0.8466 0.55788 0.17003 0.0
H58 H 0.84515 0.57394 0.34104 0.0
C59 C 0.82325 0.57355 0.28831 0.0
C60 C 0.97841 0.81225 0.07706 0.0
C61 C 0.97716 0.83165 0.07624 0.0
C62 C 0.966 0.83994 0.11068 0.0
C63 C 0.9611 0.80969 0.15172 0.0
C64 C 0.96981 0.80153 0.11464 0.0
C65 C 0.9692 0.78075 0.1216 0.0
H66 H 0.98235 0.70399 0.25744 0.0
C67 C 0.95732 0.79509 0.19032 0.0
C68 C 0.96042 0.77808 0.1718 0.0
H69 H 0.95682 0.71074 0.11548 0.0
H70 H 0.94745 0.74295 0.12611 0.0
H71 H 1.00116 0.74669 0.26544 0.0
H72 H 0.94282 0.73214 0.29448 0.0
H73 H 0.95334 0.74322 0.34052 0.0
H74 H 0.96231 0.72045 0.32912 0.0
H75 H 0.99602 0.72788 0.30984 0.0
H76 H 0.99258 0.75149 0.32291 0.0
C77 C 0.98962 0.7718 0.12097 0.0
C78 C 0.95671 0.77463 0.0813 0.0
C79 C 0.96121 0.81477 0.35706 0.0
C80 C 0.96651 0.80583 0.40217 0.0
C81 C 0.96968 0.78632 0.40718 0.0
C82 C 0.96825 0.77613 0.36695 0.0
C83 C 0.96359 0.78557 0.32146 0.0
C84 C 0.96023 0.80464 0.31759 0.0
C85 C 0.95651 0.81305 0.26718 0.0
C86 C 0.95776 0.79586 0.24074 0.0
C87 C 0.96173 0.77958 0.27237 0.0
C88 C 0.9723 0.8268 0.25251 0.0
C89 C 0.93611 0.82224 0.26436 0.0
C90 C 0.97556 0.71264 0.22771 0.0
C91 C 0.97145 0.70523 0.18415 0.0
C92 C 0.96114 0.71642 0.14779 0.0
C93 C 0.95665 0.73506 0.15228 0.0
C94 C 0.9633 0.74271 0.19219 0.0
C95 C 0.97059 0.7316 0.23143 0.0
C96 C 0.97075 0.74255 0.27504 0.0
C97 C 0.96378 0.76207 0.253 0.0
C98 C 0.96096 0.76168 0.20361 0.0
C99 C 0.99124 0.74214 0.29465 0.0
C100 C 0.95661 0.73416 0.31211 0.0
H101 H 0.94937 0.83578 0.17377 0.0
H102 H 0.98622 0.80567 0.0496 0.0
H103 H 0.95792 0.78382 0.04723 0.0
H104 H 0.94144 0.77495 0.09144 0.0
H105 H 0.96139 0.76063 0.07203 0.0
H106 H 0.9986 0.77678 0.14914 0.0
H107 H 0.99638 0.7752 0.08558 0.0
H108 H 0.98958 0.75647 0.12747 0.0
H109 H 0.95849 0.82969 0.35204 0.0
H110 H 0.97384 0.77908 0.4417 0.0
H111 H 0.97128 0.76141 0.37231 0.0
H112 H 0.98148 0.82939 0.28314 0.0
H113 H 0.96619 0.84067 0.23801 0.0
H114 H 0.98223 0.82143 0.22584 0.0
H115 H 0.92602 0.8133 0.28522 0.0
H116 H 0.93044 0.82429 0.22725 0.0
H117 H 0.93568 0.83584 0.27922 0.0
H118 H 0.96443 0.8549 0.10986 0.0
C119 C 0.95775 0.82897 0.14826 0.0
C120 C 0.81666 0.95167 0.17516 0.0
C121 C 0.82614 0.94635 0.13366 0.0
C122 C 0.81601 0.93707 0.10102 0.0
C123 C 0.78765 0.93894 0.14887 0.0
C124 C 0.79737 0.94747 0.18247 0.0
C125 C 0.78458 0.95113 0.22459 0.0
H126 H 0.69585 0.94152 0.32424 0.0
C127 C 0.76798 0.93664 0.1649 0.0
C128 C 0.76596 0.94305 0.21041 0.0
H129 H 0.74134 0.97038 0.38128 0.0
H130 H 0.76212 0.96163 0.31642 0.0
H131 H 0.69681 0.9599 0.23379 0.0
H132 H 0.72067 0.90646 0.28489 0.0
H133 H 0.71017 0.9046 0.2285 0.0
H134 H 0.69585 0.91308 0.27575 0.0
H135 H 0.68452 0.93975 0.22444 0.0
H136 H 0.70038 0.9501 0.17997 0.0
C137 C 0.7822 0.97228 0.22659 0.0
C138 C 0.79334 0.9406 0.27076 0.0
C139 C 0.71774 0.92564 0.04393 0.0
C140 C 0.69784 0.92549 0.04789 0.0
C141 C 0.68979 0.92172 0.09365 0.0
C142 C 0.70114 0.92065 0.13497 0.0
C143 C 0.7206 0.9238 0.13043 0.0
C144 C 0.72885 0.9249 0.0857 0.0
C145 C 0.74989 0.92736 0.08827 0.0
C146 C 0.75221 0.93028 0.14107 0.0
C147 C 0.73497 0.92829 0.16521 0.0
C148 C 0.7545 0.94482 0.05437 0.0
C149 C 0.76041 0.90913 0.07568 0.0
C150 C 0.71029 0.94603 0.32327 0.0
C151 C 0.71673 0.95695 0.35761 0.0
C152 C 0.73588 0.96203 0.3551 0.0
C153 C 0.74785 0.9571 0.31719 0.0
C154 C 0.74052 0.94719 0.28121 0.0
C155 C 0.72195 0.94191 0.28522 0.0
C156 C 0.71517 0.93355 0.24229 0.0
C157 C 0.73288 0.93393 0.21188 0.0
C158 C 0.74803 0.94167 0.23452 0.0
C159 C 0.69835 0.9463 0.21886 0.0
C160 C 0.71004 0.91337 0.25845 0.0
H161 H 0.79033 0.9263 0.08204 0.0
H162 H 0.82409 0.95871 0.20114 0.0
H163 H 0.79708 0.9259 0.26524 0.0
H164 H 0.78342 0.94036 0.30123 0.0
H165 H 0.80653 0.94699 0.28108 0.0
H166 H 0.77895 0.9795 0.19025 0.0
H167 H 0.79547 0.9777 0.2398 0.0
H168 H 0.77033 0.97624 0.24971 0.0
H169 H 0.72431 0.92784 0.00903 0.0
H170 H 0.67451 0.92126 0.09787 0.0
H171 H 0.69412 0.91861 0.16883 0.0
H172 H 0.74429 0.95663 0.06004 0.0
H173 H 0.75351 0.94214 0.01618 0.0
H174 H 0.7688 0.94966 0.06017 0.0
H175 H 0.75068 0.8976 0.07453 0.0
H176 H 0.77137 0.90385 0.10305 0.0
H177 H 0.76727 0.91106 0.03996 0.0
H178 H 0.82267 0.93308 0.06854 0.0
C179 C 0.79706 0.93323 0.10862 0.0
C180 C 0.4943 0.71907 0.37169 0.0
C181 C 0.49348 0.69995 0.38744 0.0
C182 C 0.49148 0.68732 0.35348 0.0
C183 C 0.49109 0.71221 0.28901 0.0
C184 C 0.49292 0.72493 0.32188 0.0
C185 C 0.49301 0.74457 0.29683 0.0
H186 H 0.48812 0.79971 0.08146 0.0
C187 C 0.4901 0.72217 0.2404 0.0
C188 C 0.4911 0.74128 0.24397 0.0
H189 H 0.49307 0.8187 0.2216 0.0
H190 H 0.49361 0.78667 0.25856 0.0
H191 H 0.5183 0.76626 0.0993 0.0
H192 H 0.45731 0.77091 0.109 0.0
H193 H 0.46291 0.75028 0.08347 0.0
H194 H 0.46947 0.77206 0.05264 0.0
H195 H 0.5031 0.7695 0.0473 0.0
H196 H 0.51 0.74669 0.07597 0.0
C197 C 0.51219 0.75266 0.30741 0.0
C198 C 0.47563 0.75591 0.31402 0.0
C199 C 0.4858 0.68427 0.09955 0.0
C200 C 0.48491 0.68887 0.04966 0.0
C201 C 0.48442 0.70767 0.03098 0.0
C202 C 0.48524 0.72166 0.06177 0.0
C203 C 0.48646 0.71676 0.11174 0.0
C204 C 0.48658 0.69833 0.12963 0.0
C205 C 0.48773 0.69553 0.18332 0.0
C206 C 0.48857 0.71539 0.19503 0.0
C207 C 0.48782 0.72772 0.15317 0.0
C208 C 0.50645 0.68385 0.19748 0.0
C209 C 0.46918 0.68665 0.20203 0.0
C210 C 0.48901 0.79715 0.12022 0.0
C211 C 0.49016 0.81186 0.1485 0.0
C212 C 0.49205 0.80764 0.19882 0.0
C213 C 0.49227 0.78907 0.22022 0.0
C214 C 0.49073 0.77455 0.191 0.0
C215 C 0.48924 0.77893 0.14179 0.0
C216 C 0.48793 0.76227 0.11518 0.0
C217 C 0.48865 0.74698 0.15613 0.0
C218 C 0.49031 0.75396 0.20103 0.0
C219 C 0.50561 0.76105 0.08237 0.0
C220 C 0.4685 0.76388 0.08827 0.0
H221 H 0.48888 0.68275 0.28122 0.0
H222 H 0.49583 0.72906 0.39731 0.0
H223 H 0.4626 0.74796 0.3131 0.0
H224 H 0.47258 0.76902 0.29104 0.0
H225 H 0.4778 0.75913 0.35147 0.0
H226 H 0.52419 0.74249 0.30184 0.0
H227 H 0.51286 0.75597 0.34517 0.0
H228 H 0.51482 0.76529 0.28347 0.0
H229 H 0.48579 0.66995 0.11505 0.0
H230 H 0.48373 0.71152 0.99258 0.0
H231 H 0.485 0.73571 0.04539 0.0
H232 H 0.51787 0.68707 0.17096 0.0
H233 H 0.5043 0.66877 0.19895 0.0
H234 H 0.51251 0.68685 0.23203 0.0
H235 H 0.45708 0.69041 0.1766 0.0
H236 H 0.46419 0.69166 0.23604 0.0
H237 H 0.47102 0.67128 0.20691 0.0
H238 H 0.49094 0.67261 0.36487 0.0
C239 C 0.4903 0.69328 0.30472 0.0
C240 C 0.29318 0.46654 0.29425 0.0
C241 C 0.30249 0.46248 0.33919 0.0
C242 C 0.29281 0.45307 0.37745 0.0
C243 C 0.26458 0.45335 0.32831 0.0
C244 C 0.27426 0.46139 0.28937 0.0
C245 C 0.26199 0.46338 0.24439 0.0
H246 H 0.17496 0.45138 0.14585 0.0
C247 C 0.24503 0.45054 0.31338 0.0
C248 C 0.24339 0.45567 0.26366 0.0
H249 H 0.22327 0.47433 0.07127 0.0
H250 H 0.24191 0.46965 0.1455 0.0
H251 H 0.19738 0.41804 0.21699 0.0
H252 H 0.17606 0.47382 0.22222 0.0
H253 H 0.17749 0.46545 0.28309 0.0
H254 H 0.16203 0.45494 0.24356 0.0
H255 H 0.17275 0.42595 0.21755 0.0
H256 H 0.18583 0.41911 0.27255 0.0
C257 C 0.27145 0.45132 0.20789 0.0
C258 C 0.25947 0.48416 0.22585 0.0
C259 C 0.19398 0.44329 0.43975 0.0
C260 C 0.17405 0.44341 0.43568 0.0
C261 C 0.1659 0.43987 0.3918 0.0
C262 C 0.17726 0.43822 0.35143 0.0
C263 C 0.19689 0.44049 0.35464 0.0
C264 C 0.20511 0.44194 0.39872 0.0
C265 C 0.22628 0.44378 0.39518 0.0
C266 C 0.22888 0.44541 0.34088 0.0
C267 C 0.2116 0.44354 0.31762 0.0
C268 C 0.23637 0.42581 0.42066 0.0
C269 C 0.23125 0.4617 0.41684 0.0
C270 C 0.18973 0.45493 0.14501 0.0
C271 C 0.19779 0.46277 0.10251 0.0
C272 C 0.2168 0.46806 0.10361 0.0
C273 C 0.22757 0.46532 0.14665 0.0
C274 C 0.21908 0.45759 0.18915 0.0
C275 C 0.20037 0.45273 0.18748 0.0
C276 C 0.19263 0.44662 0.2359 0.0
C277 C 0.21002 0.4476 0.26715 0.0
C278 C 0.22567 0.45392 0.23999 0.0
C279 C 0.18668 0.42639 0.236 0.0
C280 C 0.17617 0.46077 0.24695 0.0
H281 H 0.26741 0.44153 0.4028 0.0
H282 H 0.30045 0.47343 0.26397 0.0
H283 H 0.2563 0.4926 0.25608 0.0
H284 H 0.24746 0.48724 0.20043 0.0
H285 H 0.27264 0.48911 0.20815 0.0
H286 H 0.27637 0.43749 0.22592 0.0
H287 H 0.28403 0.45798 0.19126 0.0
H288 H 0.2616 0.44857 0.1792 0.0
H289 H 0.20061 0.4454 0.47347 0.0
H290 H 0.1506 0.43979 0.38756 0.0
H291 H 0.17016 0.43624 0.31868 0.0
H292 H 0.22635 0.41465 0.42968 0.0
H293 H 0.24322 0.42844 0.45485 0.0
H294 H 0.24728 0.41972 0.39745 0.0
H295 H 0.22182 0.47366 0.4014 0.0
H296 H 0.24597 0.46557 0.40979 0.0
H297 H 0.22939 0.46016 0.45638 0.0
H298 H 0.29965 0.44977 0.41223 0.0
C299 C 0.27403 0.44842 0.37216 0.0
C300 C 0.95146 0.20615 0.41957 0.0
C301 C 0.94813 0.18781 0.41134 0.0
C302 C 0.95087 0.18244 0.36485 0.0
C303 C 0.96265 0.21246 0.33799 0.0
C304 C 0.95881 0.21814 0.38256 0.0
C305 C 0.96476 0.23751 0.38638 0.0
H306 H 0.01062 0.31279 0.29628 0.0
C307 C 0.97253 0.22733 0.30965 0.0
C308 C 0.97376 0.24207 0.3375 0.0
H309 H 0.97874 0.30399 0.42765 0.0
H310 H 0.971 0.27394 0.40846 0.0
H311 H 0.02988 0.26813 0.29958 0.0
H312 H 0.97885 0.29337 0.22672 0.0
H313 H 0.99413 0.28159 0.18829 0.0
H314 H 0.00197 0.30181 0.21272 0.0
H315 H 0.03105 0.28713 0.25317 0.0
H316 H 0.0289 0.26379 0.23871 0.0
C317 C 0.97958 0.23662 0.42773 0.0
C318 C 0.94654 0.25003 0.39315 0.0
C319 C 0.9987 0.21374 0.14928 0.0
C320 C 0.01062 0.2227 0.1157 0.0
C321 C 0.01688 0.24028 0.12353 0.0
C322 C 0.01122 0.24869 0.16503 0.0
C323 C 0.99937 0.23929 0.19894 0.0
C324 C 0.99343 0.22207 0.19023 0.0
C325 C 0.9819 0.21321 0.23005 0.0
C326 C 0.98142 0.22795 0.26429 0.0
C327 C 0.99155 0.24341 0.24648 0.0
C328 C 0.99295 0.19501 0.25119 0.0
C329 C 0.9618 0.21055 0.20988 0.0
C330 C 0.00204 0.30421 0.32064 0.0
C331 C 0.99528 0.31065 0.36376 0.0
C332 C 0.98405 0.29928 0.39446 0.0
C333 C 0.97953 0.28181 0.38314 0.0
C334 C 0.98628 0.2754 0.34047 0.0
C335 C 0.99719 0.28647 0.30948 0.0
C336 C 0.00238 0.27701 0.26505 0.0
C337 C 0.99254 0.25872 0.27465 0.0
C338 C 0.98343 0.25798 0.31949 0.0
C339 C 0.02424 0.27387 0.26364 0.0
C340 C 0.99399 0.28906 0.22056 0.0
H341 H 0.96028 0.18948 0.29414 0.0
H342 H 0.94917 0.21084 0.45464 0.0
H343 H 0.93355 0.24401 0.38006 0.0
H344 H 0.94692 0.26379 0.37202 0.0
H345 H 0.94426 0.25198 0.43154 0.0
H346 H 0.98957 0.22421 0.42721 0.0
H347 H 0.97249 0.23566 0.46323 0.0
H348 H 0.98874 0.24853 0.42506 0.0
H349 H 0.9939 0.20013 0.14431 0.0
H350 H 0.02619 0.24738 0.09788 0.0
H351 H 0.0164 0.26203 0.16948 0.0
H352 H 0.00855 0.19564 0.24521 0.0
H353 H 0.98822 0.18284 0.23439 0.0
H354 H 0.99167 0.19231 0.29057 0.0
H355 H 0.95722 0.2223 0.18283 0.0
H356 H 0.95063 0.21038 0.23759 0.0
H357 H 0.9616 0.19761 0.19205 0.0
H358 H 0.94861 0.1684 0.35736 0.0
C359 C 0.95798 0.19468 0.32817 0.0
C360 C 0.28566 0.05298 0.19721 0.0
C361 C 0.30352 0.05871 0.1797 0.0
C362 C 0.31383 0.07034 0.20588 0.0
C363 C 0.28983 0.06942 0.26739 0.0
C364 C 0.27888 0.05892 0.24098 0.0
C365 C 0.25989 0.05549 0.26528 0.0
H366 H 0.20443 0.06721 0.46266 0.0
C367 C 0.27983 0.07269 0.31199 0.0
C368 C 0.26184 0.06517 0.31091 0.0
H369 H 0.18931 0.03821 0.34254 0.0
H370 H 0.21932 0.04598 0.30365 0.0
H371 H 0.2413 0.04909 0.47736 0.0
H372 H 0.22475 0.10205 0.40413 0.0
H373 H 0.24498 0.10492 0.43928 0.0
H374 H 0.22397 0.09594 0.46786 0.0
H375 H 0.24078 0.06945 0.50809 0.0
H376 H 0.2621 0.06108 0.47966 0.0
C377 C 0.25828 0.03439 0.27674 0.0
C378 C 0.24386 0.06484 0.23207 0.0
C379 C 0.31803 0.09083 0.45069 0.0
C380 C 0.31352 0.09175 0.49932 0.0
C381 C 0.2942 0.09317 0.51244 0.0
C382 C 0.2798 0.09153 0.47879 0.0
C383 C 0.28478 0.0882 0.43175 0.0
C384 C 0.30351 0.08893 0.41773 0.0
C385 C 0.30617 0.08532 0.36625 0.0
C386 C 0.28619 0.08031 0.35337 0.0
C387 C 0.27384 0.08198 0.39187 0.0
C388 C 0.32099 0.06875 0.36472 0.0
C389 C 0.31196 0.10361 0.33743 0.0
C390 C 0.20742 0.06246 0.42793 0.0
C391 C 0.19453 0.05186 0.40616 0.0
C392 C 0.19901 0.04638 0.36033 0.0
C393 C 0.21646 0.05082 0.33793 0.0
C394 C 0.22955 0.06082 0.36165 0.0
C395 C 0.22468 0.06643 0.40591 0.0
C396 C 0.24032 0.07556 0.42876 0.0
C397 C 0.25534 0.07531 0.39038 0.0
C398 C 0.24921 0.06674 0.35057 0.0
C399 C 0.24646 0.06335 0.47595 0.0
C400 C 0.23321 0.09567 0.43581 0.0
H401 H 0.3158 0.0844 0.26733 0.0
H402 H 0.27725 0.04433 0.17727 0.0
H403 H 0.24741 0.07915 0.21819 0.0
H404 H 0.23016 0.06623 0.25077 0.0
H405 H 0.24183 0.05691 0.20082 0.0
H406 H 0.27158 0.02793 0.29425 0.0
H407 H 0.25596 0.02776 0.24341 0.0
H408 H 0.24662 0.03094 0.30178 0.0
H409 H 0.33267 0.08984 0.43912 0.0
H410 H 0.29027 0.09447 0.54933 0.0
H411 H 0.26543 0.09196 0.49138 0.0
H412 H 0.31774 0.05726 0.39249 0.0
H413 H 0.33559 0.07296 0.37167 0.0
H414 H 0.32125 0.06272 0.33031 0.0
H415 H 0.30973 0.11582 0.35804 0.0
H416 H 0.30321 0.1071 0.30438 0.0
H417 H 0.32724 0.1028 0.32747 0.0
H418 H 0.32753 0.07494 0.1933 0.0
C419 C 0.30706 0.07578 0.24913 0.0
C420 C 0.5021 0.2977 0.16376 0.0
C421 C 0.50218 0.31681 0.14744 0.0
C422 C 0.50494 0.32961 0.18055 0.0
C423 C 0.50881 0.30479 0.24483 0.0
C424 C 0.50541 0.29198 0.21314 0.0
C425 C 0.50603 0.27242 0.23881 0.0
H426 H 0.52443 0.21718 0.45015 0.0
C427 C 0.51302 0.29485 0.29253 0.0
C428 C 0.51144 0.27577 0.29003 0.0
H429 H 0.50517 0.19901 0.31738 0.0
H430 H 0.50477 0.23085 0.27932 0.0
H431 H 0.55454 0.24392 0.40463 0.0
H432 H 0.49635 0.25291 0.44712 0.0
H433 H 0.50917 0.27076 0.46707 0.0
H434 H 0.51554 0.24704 0.48924 0.0
H435 H 0.54802 0.24459 0.46628 0.0
H436 H 0.55321 0.26536 0.42833 0.0
C437 C 0.5215 0.26046 0.21566 0.0
C438 C 0.48594 0.26503 0.23631 0.0
C439 C 0.53261 0.33243 0.4247 0.0
C440 C 0.53921 0.32777 0.47202 0.0
C441 C 0.54075 0.30891 0.49057 0.0
C442 C 0.53581 0.29502 0.46232 0.0
C443 C 0.52929 0.30001 0.41493 0.0
C444 C 0.52798 0.31846 0.39698 0.0
C445 C 0.52148 0.32136 0.34568 0.0
C446 C 0.51891 0.30154 0.33558 0.0
C447 C 0.52328 0.28914 0.37621 0.0
C448 C 0.53774 0.33034 0.31549 0.0
C449 C 0.50223 0.33299 0.34347 0.0
C450 C 0.52032 0.21989 0.41268 0.0
C451 C 0.51508 0.20547 0.38672 0.0
C452 C 0.50929 0.20987 0.3383 0.0
C453 C 0.50907 0.22834 0.31629 0.0
C454 C 0.51446 0.24258 0.34312 0.0
C455 C 0.51989 0.23806 0.3906 0.0
C456 C 0.52488 0.25455 0.41484 0.0
C457 C 0.52136 0.26992 0.37463 0.0
C458 C 0.51535 0.26307 0.33209 0.0
C459 C 0.54621 0.25205 0.42973 0.0
C460 C 0.51092 0.25648 0.45704 0.0
H461 H 0.51037 0.3344 0.25161 0.0
H462 H 0.49985 0.2876 0.13884 0.0
H463 H 0.47491 0.27588 0.24396 0.0
H464 H 0.48386 0.25311 0.26317 0.0
H465 H 0.483 0.26095 0.20003 0.0
H466 H 0.53497 0.2678 0.21193 0.0
H467 H 0.51697 0.25755 0.17934 0.0
H468 H 0.52497 0.24712 0.23737 0.0
H469 H 0.53082 0.34675 0.40935 0.0
H470 H 0.54591 0.30487 0.5268 0.0
H471 H 0.53725 0.28094 0.47851 0.0
H472 H 0.55192 0.32665 0.33263 0.0
H473 H 0.5358 0.34571 0.31132 0.0
H474 H 0.53912 0.3254 0.27962 0.0
H475 H 0.49385 0.32984 0.3767 0.0
H476 H 0.49277 0.32985 0.31418 0.0
H477 H 0.50449 0.34809 0.33966 0.0
H478 H 0.50495 0.34431 0.16867 0.0
C479 C 0.50818 0.32378 0.22884 0.0
Co480 Co 0.01353 0.01809 0.80151 0.0
C481 C 0.98311 0.99555 0.83123 0.0
Co482 Co 0.00547 0.99786 0.75121 0.0
C483 C 0.01813 0.05375 0.84122 0.0
C484 C 0.02183 0.02999 0.89314 0.0
N485 N 0.01806 0.03495 0.84617 0.0
N486 N 0.02209 0.06053 0.88319 0.0
C487 C 0.02442 0.04555 0.91573 0.0
H488 H 0.01547 0.06227 0.80755 0.0
H489 H 0.02245 0.0159 0.91024 0.0
C490 C 0.03565 0.021 0.72152 0.0
N491 N 0.00203 0.98047 0.70639 0.0
C492 C 0.98767 0.96982 0.69504 0.0
C493 C 0.01668 0.97512 0.67891 0.0
N494 N 0.99294 0.9586 0.66088 0.0
C495 C 0.01115 0.96208 0.65099 0.0
C496 C 0.98561 0.03134 0.73351 0.0
O497 O 0.03403 0.02715 0.76225 0.0
O498 O 0.0245 0.00892 0.71064 0.0
O499 O 0.98701 0.01506 0.72025 0.0
O500 O 0.99622 0.03544 0.76729 0.0
O501 O 0.98627 0.9876 0.79326 0.0
H502 H 0.03098 0.97976 0.68021 0.0
H503 H 0.97387 0.96999 0.71204 0.0
O504 O 0.99312 0.00891 0.83991 0.0
O505 O 0.03054 1.00007 0.83523 0.0
O506 O 0.02399 0.98091 0.78285 0.0
C507 C 0.03303 0.9843 0.81988 0.0
H508 H 0.02735 0.04585 0.95357 0.0
H509 H 0.0202 0.95492 0.62685 0.0
Co510 Co 0.50108 0.01531 0.79438 0.0
C511 C 0.50498 0.97719 0.82174 0.0
Co512 Co 0.51412 0.99921 0.73843 0.0
C513 C 0.47104 0.02268 0.8605 0.0
C514 C 0.49062 0.04432 0.85492 0.0
N515 N 0.48749 0.02781 0.83937 0.0
N516 N 0.4636 0.03539 0.88815 0.0
C517 C 0.47596 0.04903 0.88477 0.0
H518 H 0.46422 0.01017 0.85402 0.0
H519 H 0.50251 0.0526 0.84423 0.0
C520 C 0.51013 0.0374 0.71112 0.0
N521 N 0.52777 0.98667 0.6933 0.0
C522 C 0.54541 0.99032 0.67689 0.0
C523 C 0.52273 0.97231 0.67011 0.0
N524 N 0.55162 0.97885 0.64463 0.0
C525 C 0.53731 0.96754 0.64001 0.0
C526 C 0.47601 0.00318 0.72708 0.0
O527 O 0.5029 0.03799 0.75267 0.0
O528 O 0.51629 0.02185 0.69858 0.0
O529 O 0.49067 0.99623 0.70777 0.0
O530 O 0.47776 0.01139 0.7645 0.0
O531 O 0.51161 0.97635 0.7796 0.0
H532 H 0.50937 0.96569 0.67491 0.0
H533 H 0.55351 1.00141 0.68787 0.0
O534 O 0.49955 0.99287 0.83471 0.0
O535 O 0.52475 0.01901 0.82408 0.0
O536 O 0.53717 0.00268 0.76908 0.0
C537 C 0.53927 0.01163 0.80501 0.0
H538 H 0.47444 0.06163 0.90222 0.0
H539 H 0.5375 0.95642 0.61715 0.0
Co540 Co 0.51533 0.50882 0.77885 0.0
C541 C 0.49895 0.47602 0.81367 0.0
Co542 Co 0.48679 0.50589 0.74726 0.0
C543 C 0.54427 0.52235 0.83987 0.0
C544 C 0.55523 0.50062 0.80003 0.0
N545 N 0.53926 0.5112 0.80657 0.0
N546 N 0.56266 0.51914 0.85396 0.0
C547 C 0.56956 0.50551 0.8287 0.0
H548 H 0.53457 0.53245 0.85411 0.0
H549 H 0.55634 0.48953 0.7772 0.0
C550 C 0.50321 0.53873 0.71286 0.0
N551 N 0.46288 0.50309 0.72097 0.0
C552 C 0.45753 0.50272 0.67463 0.0
C553 C 0.44692 0.50002 0.7464 0.0
N554 N 0.43885 0.49945 0.67026 0.0
C555 C 0.43221 0.49788 0.71557 0.0
C556 C 0.48568 0.52439 0.8283 0.0
O557 O 0.51681 0.53236 0.74112 0.0
O558 O 0.4888 0.52906 0.70902 0.0
O559 O 0.47533 0.51896 0.79599 0.0
O560 O 0.50351 0.52077 0.82801 0.0
O561 O 0.48514 0.48258 0.78643 0.0
H562 H 0.44606 0.49915 0.78509 0.0
H563 H 0.4673 0.50436 0.6449 0.0
O564 O 0.51357 0.48544 0.81596 0.0
O565 O 0.52671 0.49664 0.72888 0.0
O566 O 0.49853 0.4931 0.69873 0.0
C567 C 0.51651 0.49038 0.69756 0.0
H568 H 0.58376 0.49894 0.83218 0.0
H569 H 0.41771 0.49542 0.72606 0.0
Co570 Co 0.00789 0.53817 0.75533 0.0
C571 C 0.03604 0.50912 0.79283 0.0
Co572 Co 0.00881 0.50227 0.7161 0.0
C573 C 0.00518 0.56407 0.82867 0.0
C574 C 0.00612 0.57777 0.75728 0.0
N575 N 0.00616 0.56079 0.78194 0.0
N576 N 0.00477 0.58239 0.83391 0.0
C577 C 0.00546 0.59102 0.78904 0.0
H578 H 0.00508 0.55323 0.85833 0.0
H579 H 0.0066 0.58037 0.7186 0.0
C580 C 0.97908 0.53044 0.6821 0.0
N581 N 0.0021 0.47798 0.71566 0.0
C582 C 0.00362 0.4696 0.67497 0.0
C583 C 0.99653 0.46474 0.74923 0.0
N584 N 0.99919 0.45161 0.68116 0.0
C585 C 0.99466 0.44856 0.72811 0.0
C586 C 0.9854 0.51367 0.80049 0.0
O587 O 0.98584 0.54252 0.70886 0.0
O588 O 0.98693 0.51369 0.67933 0.0
O589 O 0.99124 0.50354 0.76891 0.0
O590 O 0.99155 0.52947 0.80118 0.0
O591 O 0.02954 0.49737 0.76479 0.0
H592 H 0.99425 0.4666 0.78662 0.0
H593 H 0.00846 0.47662 0.64162 0.0
O594 O 0.02901 0.52618 0.79394 0.0
O595 O 0.02657 0.54919 0.70663 0.0
O596 O 0.01674 0.52293 0.70752 0.0
C597 C 0.02796 0.5341 0.68905 0.0
H598 H 0.00519 0.60589 0.77985 0.0
H599 H 0.99032 0.43558 0.74621 0.0
H600 H 0.19231 0.0397 0.50118 0.0
H601 H 0.16411 0.03488 0.54936 0.0
H602 H 0.12887 0.0452 0.42214 0.0
H603 H 0.1574 0.05133 0.3735 0.0
H604 H 0.1128 0.06244 0.48926 0.0
H605 H 0.13707 1.00041 0.4861 0.0
H606 H 0.1608 0.97397 0.49222 0.0
H607 H 0.17007 0.98019 0.64098 0.0
H608 H 0.14659 0.00684 0.63563 0.0
H609 H 0.03419 0.02224 0.62431 0.0
H610 H 0.05989 0.02855 0.56711 0.0
H611 H 0.09694 0.03866 0.68301 0.0
H612 H 0.07099 0.03289 0.74053 0.0
H613 H 0.11016 0.01 0.61738 0.0
H614 H 0.08711 0.07457 0.61417 0.0
H615 H 0.06215 0.09995 0.60536 0.0
H616 H 0.04826 0.0859 0.46491 0.0
H617 H 0.07327 0.0605 0.47281 0.0
C618 C 0.17859 0.041 0.48318 0.0
C619 C 0.17716 0.04619 0.43338 0.0
C620 C 0.16239 0.03797 0.51089 0.0
C621 C 0.14422 0.0394 0.48963 0.0
C622 C 0.1427 0.04398 0.43957 0.0
C623 C 0.15903 0.04729 0.41165 0.0
C624 C 0.12701 0.03689 0.52051 0.0
C625 C 0.11214 0.05077 0.51662 0.0
C626 C 0.12602 0.0218 0.55686 0.0
C627 C 0.14015 0.00573 0.56034 0.0
C628 C 0.14426 0.99623 0.52004 0.0
C629 C 0.15766 0.98119 0.52339 0.0
C630 C 0.16696 0.97543 0.56694 0.0
C631 C 0.16286 0.98468 0.60727 0.0
C632 C 0.14948 0.99973 0.60411 0.0
C633 C 0.04772 0.0261 0.63757 0.0
C634 C 0.05061 0.02702 0.68696 0.0
C635 C 0.06237 0.02973 0.6048 0.0
C636 C 0.08033 0.03401 0.62081 0.0
C637 C 0.08316 0.03539 0.66995 0.0
C638 C 0.06833 0.03218 0.70272 0.0
C639 C 0.09644 0.0357 0.5866 0.0
C640 C 0.11094 0.02159 0.58978 0.0
C641 C 0.09689 0.05032 0.54915 0.0
C642 C 0.08194 0.06558 0.54422 0.0
C643 C 0.07868 0.07686 0.58149 0.0
C644 C 0.06461 0.09131 0.57655 0.0
C645 C 0.0536 0.09451 0.53464 0.0
C646 C 0.05679 0.08339 0.49737 0.0
C647 C 0.07097 0.06903 0.50195 0.0
H648 H 0.0426 0.1056 0.53107 0.0
H649 H 0.17733 0.96378 0.56945 0.0
H650 H 0.48834 0.17922 0.38399 0.0
H651 H 0.48747 0.14944 0.43425 0.0
H652 H 0.54152 0.159 0.49751 0.0
H653 H 0.54281 0.18815 0.44627 0.0
H654 H 0.54099 0.12437 0.48783 0.0
H655 H 0.49757 0.16859 0.55225 0.0
H656 H 0.4702 0.19139 0.55065 0.0
H657 H 0.43258 0.14965 0.51882 0.0
H658 H 0.45979 0.12666 0.51959 0.0
H659 H 0.50272 0.07382 0.72746 0.0
H660 H 0.50376 0.10147 0.66928 0.0
H661 H 0.51888 0.06682 0.55777 0.0
H662 H 0.51852 0.03936 0.61573 0.0
H663 H 0.48472 0.11397 0.59165 0.0
H664 H 0.5468 0.08836 0.47519 0.0
H665 H 0.57583 0.06758 0.48442 0.0
H666 H 0.57921 0.07574 0.63366 0.0
H667 H 0.55036 0.09676 0.62517 0.0
C668 C 0.50022 0.17474 0.40784 0.0
C669 C 0.51552 0.1862 0.41151 0.0
C670 C 0.49961 0.15781 0.43702 0.0
C671 C 0.51424 0.15208 0.47063 0.0
C672 C 0.52998 0.16307 0.47228 0.0
C673 C 0.53063 0.17985 0.44309 0.0
C674 C 0.51302 0.13512 0.50552 0.0
C675 C 0.52861 0.12207 0.51025 0.0
C676 C 0.49711 0.1322 0.53584 0.0
C677 C 0.48074 0.14597 0.53545 0.0
C678 C 0.48348 0.16432 0.54456 0.0
C679 C 0.468 0.17727 0.54385 0.0
C680 C 0.44967 0.17199 0.5345 0.0
C681 C 0.44679 0.15373 0.52596 0.0
C682 C 0.46223 0.14073 0.52654 0.0
C683 C 0.50639 0.07212 0.6906 0.0
C684 C 0.51075 0.05437 0.67648 0.0
C685 C 0.50688 0.08794 0.65726 0.0
C686 C 0.51166 0.08634 0.60907 0.0
C687 C 0.51559 0.06856 0.59482 0.0
C688 C 0.51532 0.05281 0.62813 0.0
C689 C 0.51264 0.10319 0.57371 0.0
C690 C 0.49703 0.1162 0.56892 0.0
C691 C 0.52876 0.10636 0.54428 0.0
C692 C 0.54631 0.09398 0.54961 0.0
C693 C 0.55379 0.08578 0.50992 0.0
C694 C 0.5702 0.07395 0.51503 0.0
C695 C 0.57931 0.07029 0.55963 0.0
C696 C 0.57209 0.07853 0.59917 0.0
C697 C 0.5557 0.09039 0.59424 0.0
H698 H 0.592 0.06111 0.56353 0.0
H699 H 0.4377 0.18203 0.53398 0.0
H700 H 0.31446 0.49778 0.32968 0.0
H701 H 0.34264 0.50842 0.36824 0.0
H702 H 0.36116 0.45159 0.41318 0.0
H703 H 0.33327 0.44105 0.37434 0.0
H704 H 0.34777 0.50349 0.46176 0.0
H705 H 0.40801 0.44687 0.43696 0.0
H706 H 0.42058 0.42885 0.37302 0.0
H707 H 0.39792 0.47104 0.26593 0.0
H708 H 0.38545 0.48945 0.32917 0.0
H709 H 0.40577 0.48219 0.66374 0.0
H710 H 0.38676 0.48023 0.59227 0.0
H711 H 0.42832 0.50946 0.50566 0.0
H712 H 0.44744 0.51197 0.57776 0.0
H713 H 0.41486 0.47839 0.46462 0.0
H714 H 0.38946 0.53301 0.52717 0.0
H715 H 0.3772 0.55186 0.58979 0.0
H716 H 0.33087 0.51612 0.61593 0.0
H717 H 0.34301 0.49689 0.55396 0.0
C718 C 0.32501 0.4876 0.34599 0.0
C719 C 0.32175 0.46861 0.34895 0.0
C720 C 0.341 0.49367 0.36845 0.0
C721 C 0.35409 0.48084 0.39375 0.0
C722 C 0.35152 0.46181 0.3934 0.0
C723 C 0.33554 0.45577 0.37122 0.0
C724 C 0.3687 0.48709 0.42616 0.0
C725 C 0.3625 0.49819 0.46184 0.0
C726 C 0.38802 0.48039 0.42621 0.0
C727 C 0.3957 0.4695 0.3879 0.0
C728 C 0.40581 0.45237 0.39978 0.0
C729 C 0.4129 0.44207 0.36365 0.0
C730 C 0.41002 0.44878 0.31545 0.0
C731 C 0.40009 0.46583 0.30328 0.0
C732 C 0.39298 0.47619 0.33927 0.0
C733 C 0.4109 0.48845 0.62983 0.0
C734 C 0.42811 0.49753 0.62704 0.0
C735 C 0.4 0.48719 0.58878 0.0
C736 C 0.40597 0.4949 0.54368 0.0
C737 C 0.42341 0.50345 0.54017 0.0
C738 C 0.43435 0.50484 0.58149 0.0
C739 C 0.39363 0.49412 0.50084 0.0
C740 C 0.40024 0.48399 0.46363 0.0
C741 C 0.37469 0.50183 0.49901 0.0
C742 C 0.36721 0.51346 0.53605 0.0
C743 C 0.37672 0.5291 0.54648 0.0
C744 C 0.36978 0.53986 0.58184 0.0
C745 C 0.35328 0.53518 0.60686 0.0
C746 C 0.34365 0.51974 0.59651 0.0
C747 C 0.35054 0.50892 0.56121 0.0
H748 H 0.34793 0.54352 0.63424 0.0
H749 H 0.41551 0.44077 0.28753 0.0
H750 H 0.97082 0.34084 0.36037 0.0
H751 H 0.97318 0.3675 0.40633 0.0
H752 H 0.0299 0.34761 0.45213 0.0
H753 H 0.02754 0.32101 0.40546 0.0
H754 H 0.97562 0.36468 0.50034 0.0
H755 H 0.05422 0.38465 0.48688 0.0
H756 H 0.08014 0.38641 0.42767 0.0
H757 H 0.03915 0.39283 0.3126 0.0
H758 H 0.01299 0.39139 0.37108 0.0
H759 H 0.99977 0.41377 0.69628 0.0
H760 H 1.00058 0.39191 0.63582 0.0
H761 H 1.00114 0.43729 0.52368 0.0
H762 H 0.99997 0.4593 0.58358 0.0
H763 H 0.02649 0.40908 0.50511 0.0
H764 H 0.96067 0.41598 0.54838 0.0
H765 H 0.9335 0.416 0.60387 0.0
H766 H 0.94665 0.35853 0.65139 0.0
H767 H 0.97407 0.35825 0.59662 0.0
C768 C 0.98407 0.34262 0.37861 0.0
C769 C 0.99914 0.3291 0.37857 0.0
C770 C 0.98534 0.35772 0.40541 0.0
C771 C 1.00168 0.35962 0.43302 0.0
C772 C 0.01722 0.34666 0.43077 0.0
C773 C 0.01594 0.33152 0.4038 0.0
C774 C 1.00159 0.37397 0.46763 0.0
C775 C 0.98678 0.37437 0.50121 0.0
C776 C 0.01603 0.38677 0.46895 0.0
C777 C 0.03165 0.38769 0.43342 0.0
C778 C 0.05073 0.38648 0.44894 0.0
C779 C 0.06547 0.38742 0.41551 0.0
C780 C 0.06129 0.38966 0.36641 0.0
C781 C 0.04237 0.39101 0.35065 0.0
C782 C 0.02758 0.3901 0.38393 0.0
C783 C 0.9999 0.41922 0.65888 0.0
C784 C 0.99975 0.43849 0.64534 0.0
C785 C 1.00046 0.40662 0.6242 0.0
C786 C 1.00085 0.41291 0.57503 0.0
C787 C 1.00096 0.43205 0.56133 0.0
C788 C 1.00031 0.44468 0.59592 0.0
C789 C 1.00065 0.39957 0.5379 0.0
C790 C 0.0154 0.39933 0.50411 0.0
C791 C 0.98603 0.38703 0.5359 0.0
C792 C 0.96953 0.38715 0.56875 0.0
C793 C 0.95785 0.40339 0.57094 0.0
C794 C 0.9424 0.40344 0.60221 0.0
C795 C 0.93838 0.38729 0.63123 0.0
C796 C 0.94979 0.37104 0.62894 0.0
C797 C 0.96528 0.37092 0.59776 0.0
H798 H 0.9264 0.38736 0.65541 0.0
H799 H 0.07272 0.39038 0.34058 0.0
H800 H 0.84319 0.97963 0.13343 0.0
H801 H 0.87269 0.98807 0.09197 0.0
H802 H 0.88266 0.93152 0.05988 0.0
H803 H 0.85417 0.92293 0.10392 0.0
H804 H 0.91475 0.94394 0.06571 0.0
H805 H 0.85788 0.96795 0.98091 0.0
H806 H 0.82712 0.98586 0.96872 0.0
H807 H 0.85446 0.0361 0.98702 0.0
H808 H 0.88536 0.01842 0.99994 0.0
H809 H 0.96437 0.96293 0.84113 0.0
H810 H 0.93961 0.95414 0.89994 0.0
H811 H 0.94248 0.00685 0.9566 0.0
H812 H 0.96714 0.01558 0.8989 0.0
H813 H 0.90501 0.99698 0.9397 0.0
H814 H 0.96384 0.96975 0.01318 0.0
H815 H 0.99322 0.94956 0.01388 0.0
H816 H 0.96001 0.90205 0.00674 0.0
H817 H 0.9305 0.92202 0.00427 0.0
C818 C 0.8521 0.9689 0.11915 0.0
C819 C 0.84614 0.95069 0.12123 0.0
C820 C 0.86882 0.97378 0.09464 0.0
C821 C 0.87963 0.96061 0.07086 0.0
C822 C 0.87459 0.94208 0.07709 0.0
C823 C 0.85819 0.93717 0.10225 0.0
C824 C 0.89511 0.96615 0.03634 0.0
C825 C 0.9125 0.95549 0.03806 0.0
C826 C 0.89239 0.98117 0.99979 0.0
C827 C 0.87387 0.99184 0.99196 0.0
C828 C 0.8573 0.9828 0.98263 0.0
C829 C 0.83985 0.99291 0.97557 0.0
C830 C 0.83883 0.0121 0.97724 0.0
C831 C 0.85527 0.02122 0.98585 0.0
C832 C 0.87275 0.01117 0.99305 0.0
C833 C 0.95966 0.97263 0.86605 0.0
C834 C 0.96777 0.98994 0.86533 0.0
C835 C 0.94557 0.96758 0.89973 0.0
C836 C 0.93924 0.97982 0.93286 0.0
C837 C 0.94712 0.99718 0.9315 0.0
C838 C 0.9613 1.00211 0.89849 0.0
C839 C 0.92444 0.97476 0.96917 0.0
C840 C 0.90721 0.98552 0.96765 0.0
C841 C 0.92711 0.9595 0.00483 0.0
C842 C 0.94493 0.94744 0.00791 0.0
C843 C 0.9628 0.95502 0.01128 0.0
C844 C 0.9795 0.94361 0.01192 0.0
C845 C 0.97851 0.92455 0.00996 0.0
C846 C 0.96081 0.91683 0.00784 0.0
C847 C 0.94408 0.9282 0.00676 0.0
H848 H 0.99145 0.91577 0.01012 0.0
H849 H 0.82531 0.0199 0.97174 0.0
H850 H 0.46692 0.82689 0.07462 0.0
H851 H 0.46966 0.85627 0.02474 0.0
H852 H 0.51437 0.87059 0.11689 0.0
H853 H 0.51226 0.84068 0.16638 0.0
H854 H 0.47432 0.89911 0.06575 0.0
H855 H 0.53734 0.86461 0.04679 0.0
H856 H 0.55518 0.83516 0.03554 0.0
H857 H 0.52105 0.82937 0.91139 0.0
H858 H 0.50286 0.85867 0.92243 0.0
H859 H 0.50656 0.97568 0.91878 0.0
H860 H 0.50427 0.94879 0.97781 0.0
H861 H 0.49809 0.91396 0.86377 0.0
H862 H 0.50153 0.94091 0.80418 0.0
H863 H 0.51847 0.89552 0.92863 0.0
H864 H 0.45934 0.93054 0.93492 0.0
H865 H 0.43832 0.95847 0.9416 0.0
H866 H 0.45968 0.96194 0.08377 0.0
H867 H 0.48107 0.93423 0.07764 0.0
C868 C 0.47731 0.83628 0.0846 0.0
C869 C 0.48962 0.83123 0.12414 0.0
C870 C 0.47875 0.85314 0.05613 0.0
C871 C 0.49233 0.8655 0.06682 0.0
C872 C 0.50383 0.86116 0.10797 0.0
C873 C 0.50253 0.84413 0.13639 0.0
C874 C 0.49531 0.88212 0.03248 0.0
C875 C 0.48425 0.89855 0.03629 0.0
C876 C 0.50753 0.88103 0.99282 0.0
C877 C 0.51866 0.86367 0.98571 0.0
C878 C 0.53357 0.85696 0.01735 0.0
C879 C 0.54375 0.84032 0.01097 0.0
C880 C 0.53921 0.83037 0.97285 0.0
C881 C 0.52453 0.83707 0.94093 0.0
C882 C 0.51429 0.85369 0.94722 0.0
C883 C 0.50473 0.96228 0.90619 0.0
C884 C 0.50403 0.96045 0.85676 0.0
C885 C 0.50329 0.94688 0.9401 0.0
C886 C 0.50044 0.9293 0.92562 0.0
C887 C 0.50016 0.92735 0.87611 0.0
C888 C 0.50208 0.94275 0.842 0.0
C889 C 0.49787 0.91305 0.96218 0.0
C890 C 0.50875 0.89644 0.95839 0.0
C891 C 0.48514 0.91394 1.00138 0.0
C892 C 0.47196 0.93039 0.00563 0.0
C893 C 0.45963 0.93731 0.96752 0.0
C894 C 0.44765 0.95311 0.9712 0.0
C895 C 0.44771 0.96202 0.01301 0.0
C896 C 0.45967 0.95507 0.05135 0.0
C897 C 0.47172 0.9393 0.04781 0.0
H898 H 0.43847 0.97428 0.01569 0.0
H899 H 0.5471 0.81749 0.96797 0.0
H900 H 0.66624 0.57273 0.20018 0.0
H901 H 0.63642 0.56906 0.15627 0.0
H902 H 0.66631 0.53105 0.07071 0.0
H903 H 0.6957 0.53428 0.11466 0.0
H904 H 0.64291 0.57106 0.02777 0.0
H905 H 0.64319 0.50819 0.12056 0.0
H906 H 0.64202 0.48865 0.19795 0.0
H907 H 0.59045 0.51839 0.23382 0.0
H908 H 0.59151 0.53827 0.15681 0.0
H909 H 0.6003 0.52425 0.85702 0.0
H910 H 0.61822 0.53478 0.92242 0.0
H911 H 0.56618 0.54315 1.00034 0.0
H912 H 0.54807 0.53221 0.9347 0.0
H913 H 0.59422 0.52439 0.05812 0.0
H914 H 0.58851 0.58026 0.95607 0.0
H915 H 0.5885 0.6005 0.87972 0.0
H916 H 0.64825 0.58731 0.86369 0.0
H917 H 0.64855 0.56668 0.93949 0.0
C918 C 0.66621 0.56314 0.1731 0.0
C919 C 0.68327 0.55384 0.16067 0.0
C920 C 0.64926 0.56116 0.14786 0.0
C921 C 0.64924 0.54983 0.11018 0.0
C922 C 0.66603 0.53982 0.09969 0.0
C923 C 0.68279 0.54167 0.12488 0.0
C924 C 0.63252 0.54953 0.07801 0.0
C925 C 0.63215 0.56097 0.03441 0.0
C926 C 0.61819 0.5368 0.0874 0.0
C927 C 0.61759 0.52486 0.13341 0.0
C928 C 0.63174 0.51069 0.14522 0.0
C929 C 0.63106 0.49952 0.18892 0.0
C930 C 0.61621 0.50232 0.22088 0.0
C931 C 0.60197 0.51627 0.20911 0.0
C932 C 0.6026 0.52748 0.16546 0.0
C933 C 0.59262 0.52837 0.88795 0.0
C934 C 0.57277 0.52724 0.89074 0.0
C935 C 0.60288 0.53454 0.92525 0.0
C936 C 0.59357 0.53986 0.96632 0.0
C937 C 0.57367 0.53912 0.96902 0.0
C938 C 0.56333 0.533 0.93135 0.0
C939 C 0.60506 0.54539 0.00665 0.0
C940 C 0.60454 0.53492 0.05175 0.0
C941 C 0.61847 0.55923 0.9988 0.0
C942 C 0.61852 0.57184 0.95345 0.0
C943 C 0.60163 0.58158 0.93612 0.0
C944 C 0.60157 0.59313 0.89293 0.0
C945 C 0.61836 0.59518 0.86685 0.0
C946 C 0.63525 0.58571 0.88396 0.0
C947 C 0.63538 0.5741 0.92709 0.0
H948 H 0.6183 0.60413 0.83341 0.0
H949 H 0.6157 0.49365 0.25468 0.0
H950 H 0.00701 0.69459 0.1578 0.0
H951 H 0.0151 0.66918 0.10908 0.0
H952 H 0.95889 0.64925 0.13111 0.0
H953 H 0.95067 0.6749 0.17913 0.0
H954 H 0.99106 0.61996 0.12354 0.0
H955 H 0.96147 0.67689 0.04133 0.0
H956 H 0.95905 0.71085 0.02144 0.0
H957 H 0.0158 0.70923 0.9653 0.0
H958 H 0.01864 0.67526 0.98545 0.0
H959 H 0.98223 0.57404 0.91063 0.0
H960 H 0.9781 0.5914 0.98075 0.0
H961 H 0.02173 0.62756 0.92698 0.0
H962 H 0.02472 0.611 0.85563 0.0
H963 H 0.99602 0.64794 0.95501 0.0
H964 H 0.02614 0.5914 0.03149 0.0
H965 H 0.03031 0.55766 0.05419 0.0
H966 H 0.97582 0.55801 0.12284 0.0
H967 H 0.97121 0.59173 0.10014 0.0
C968 C 0.99674 0.68421 0.15438 0.0
C969 C 0.97833 0.68651 0.17295 0.0
C970 C 1.0013 0.66979 0.12612 0.0
C971 C 0.98756 0.65737 0.11614 0.0
C972 C 0.96976 0.65857 0.13856 0.0
C973 C 0.96511 0.67315 0.16631 0.0
C974 C 0.99061 0.64536 0.07652 0.0
C975 C 0.99205 0.62599 0.08659 0.0
C976 C 0.99219 0.65323 0.02842 0.0
C977 C 0.99033 0.67358 0.01533 0.0
C978 C 0.97348 0.6838 0.02504 0.0
C979 C 0.97202 0.70304 0.01369 0.0
C980 C 0.98729 0.7122 0.9923 0.0
C981 C 0.004 0.70212 0.98196 0.0
C982 C 0.00553 0.68287 0.99329 0.0
C983 C 0.99101 0.5856 0.91424 0.0
C984 C 0.00373 0.59124 0.87767 0.0
C985 C 0.98877 0.59549 0.95454 0.0
C986 C 0.99976 0.61081 0.96003 0.0
C987 C 0.01293 0.61596 0.92394 0.0
C988 C 0.01472 0.60645 0.88313 0.0
C989 C 0.99693 0.62221 1.00149 0.0
C990 C 0.9953 0.64165 0.99179 0.0
C991 C 0.99547 0.61432 0.0499 0.0
C992 C 0.99825 0.59406 0.06372 0.0
C993 C 0.01499 0.58427 0.05116 0.0
C994 C 0.01744 0.56515 0.06405 0.0
C995 C 0.00332 0.5557 0.08979 0.0
C996 C 0.98673 0.56535 0.10284 0.0
C997 C 0.9842 0.58446 0.09003 0.0
H998 H 0.00525 0.5409 0.09972 0.0
H999 H 0.98614 0.7271 0.98361 0.0
H1000 H 0.92452 0.15883 0.413 0.0
H1001 H 0.92407 0.1321 0.47377 0.0
H1002 H 0.9627 0.15803 0.56224 0.0
H1003 H 0.96394 0.1843 0.50099 0.0
H1004 H 0.97621 0.12455 0.54761 0.0
H1005 H 0.9163 0.15139 0.59522 0.0
H1006 H 0.88343 0.16478 0.58394 0.0
H1007 H 0.86609 0.11411 0.53534 0.0
H1008 H 0.89893 0.10049 0.5457 0.0
H1009 H 0.97775 0.06622 0.75771 0.0
H1010 H 0.96255 0.09228 0.70729 0.0
H1011 H 0.9497 0.05606 0.60073 0.0
H1012 H 0.96506 0.02969 0.65094 0.0
H1013 H 0.92125 0.0933 0.62418 0.0
H1014 H 0.98351 0.06974 0.56267 0.0
H1015 H 0.01539 0.05519 0.58378 0.0
H1016 H 0.02711 0.10017 0.66523 0.0
H1017 H 0.99519 0.11488 0.64489 0.0
C1018 C 0.93272 0.15894 0.44568 0.0
C1019 C 0.94442 0.17363 0.45187 0.0
C1020 C 0.93232 0.14373 0.48057 0.0
C1021 C 0.94341 0.14306 0.52243 0.0
C1022 C 0.95408 0.15825 0.53008 0.0
C1023 C 0.9546 0.17338 0.49518 0.0
C1024 C 0.94562 0.12583 0.5557 0.0
C1025 C 0.96413 0.11788 0.56441 0.0
C1026 C 0.92989 0.11683 0.57703 0.0
C1027 C 0.91013 0.12499 0.57076 0.0
C1028 C 0.90552 0.14316 0.58171 0.0
C1029 C 0.88688 0.15078 0.57557 0.0
C1030 C 0.87269 0.14032 0.5588 0.0
C1031 C 0.8771 0.1222 0.54826 0.0
C1032 C 0.89572 0.11452 0.55431 0.0
C1033 C 0.97125 0.06363 0.72417 0.0
C1034 C 0.97297 0.04598 0.70775 0.0
C1035 C 0.96238 0.07851 0.69571 0.0
C1036 C 0.95505 0.07599 0.65054 0.0
C1037 C 0.95513 0.05813 0.63585 0.0
C1038 C 0.96406 0.04316 0.66435 0.0
C1039 C 0.95163 0.09236 0.61538 0.0
C1040 C 0.93311 0.10006 0.60659 0.0
C1041 C 0.96726 0.10123 0.59375 0.0
C1042 C 0.98701 0.09335 0.60242 0.0
C1043 C 0.99294 0.07655 0.58491 0.0
C1044 C 0.01097 0.06824 0.59687 0.0
C1045 C 0.02319 0.07667 0.62615 0.0
C1046 C 0.01757 0.09362 0.64275 0.0
C1047 C 0.99955 0.10197 0.63089 0.0
H1048 H 0.03704 0.0701 0.63587 0.0
H1049 H 0.85827 0.14625 0.55408 0.0
H1050 H 0.31162 0.07007 0.58491 0.0
H1051 H 0.33848 0.0555 0.63233 0.0
H1052 H 0.37709 0.08762 0.54308 0.0
H1053 H 0.35022 0.10307 0.49662 0.0
H1054 H 0.37897 0.04596 0.54356 0.0
H1055 H 0.37736 0.09504 0.6485 0.0
H1056 H 0.36232 0.11491 0.70549 0.0
H1057 H 0.35172 0.06679 0.80244 0.0
H1058 H 0.3664 0.04659 0.74562 0.0
H1059 H 0.46978 0.01483 0.63357 0.0
H1060 H 0.43997 0.02893 0.59919 0.0
H1061 H 0.41083 0.01123 0.73034 0.0
H1062 H 0.44114 0.99843 0.76598 0.0
H1063 H 0.40202 0.04453 0.71117 0.0
H1064 H 0.40186 0.99491 0.61415 0.0
H1065 H 0.41424 0.97258 0.55981 0.0
H1066 H 0.4241 0.01732 0.45142 0.0
H1067 H 0.41202 0.03996 0.50533 0.0
C1068 C 0.32569 0.07479 0.57665 0.0
C1069 C 0.32877 0.08752 0.53624 0.0
C1070 C 0.34105 0.0663 0.6037 0.0
C1071 C 0.35968 0.07034 0.59062 0.0
C1072 C 0.36275 0.08428 0.55335 0.0
C1073 C 0.34738 0.09301 0.52676 0.0
C1074 C 0.37578 0.05798 0.61023 0.0
C1075 C 0.38427 0.04574 0.58002 0.0
C1076 C 0.38175 0.05711 0.65851 0.0
C1077 C 0.37278 0.06928 0.69246 0.0
C1078 C 0.37161 0.08867 0.68166 0.0
C1079 C 0.3632 0.1 0.71403 0.0
C1080 C 0.35601 0.09211 0.75748 0.0
C1081 C 0.35725 0.07288 0.76872 0.0
C1082 C 0.36563 0.06149 0.73644 0.0
C1083 C 0.45684 0.0133 0.65424 0.0
C1084 C 0.4576 0.00543 0.7021 0.0
C1085 C 0.43975 0.02139 0.63461 0.0
C1086 C 0.42299 0.02113 0.66199 0.0
C1087 C 0.42353 0.01177 0.70856 0.0
C1088 C 0.44076 0.00423 0.7287 0.0
C1089 C 0.40566 0.03245 0.64427 0.0
C1090 C 0.39678 0.04449 0.67477 0.0
C1091 C 0.39886 0.03271 0.59661 0.0
C1092 C 0.40615 0.01915 0.56398 0.0
C1093 C 0.40679 1.00001 0.57886 0.0
C1094 C 0.41374 0.98729 0.54811 0.0
C1095 C 0.41998 0.99353 0.50223 0.0
C1096 C 0.41926 0.01251 0.48698 0.0
C1097 C 0.41234 0.02529 0.5176 0.0
H1098 H 0.42535 0.98366 0.47848 0.0
H1099 H 0.34952 0.10091 0.78251 0.0
H1100 H 0.55632 0.35996 0.44328 0.0
H1101 H 0.55804 0.38693 0.48684 0.0
H1102 H 0.53569 0.3563 0.61295 0.0
H1103 H 0.53227 0.32967 0.56789 0.0
H1104 H 0.51724 0.38647 0.60141 0.0
H1105 H 0.58316 0.3722 0.6056 0.0
H1106 H 0.61512 0.36333 0.57685 0.0
H1107 H 0.61439 0.41339 0.48033 0.0
H1108 H 0.5823 0.42246 0.50797 0.0
H1109 H 0.55118 0.47166 0.70742 0.0
H1110 H 0.56097 0.44384 0.67021 0.0
H1111 H 0.51122 0.45171 0.57851 0.0
H1112 H 0.5009 0.47917 0.61705 0.0
H1113 H 0.56874 0.43071 0.58806 0.0
H1114 H 0.48926 0.41041 0.58319 0.0
H1115 H 0.4592 0.41794 0.62387 0.0
H1116 H 0.49048 0.43343 0.74364 0.0
H1117 H 0.52067 0.42547 0.70451 0.0
C1118 C 0.55174 0.35891 0.4803 0.0
C1119 C 0.54374 0.34275 0.5017 0.0
C1120 C 0.5531 0.37429 0.50557 0.0
C1121 C 0.54712 0.3737 0.55344 0.0
C1122 C 0.54033 0.35715 0.57598 0.0
C1123 C 0.53857 0.34184 0.5503 0.0
C1124 C 0.54594 0.39097 0.57759 0.0
C1125 C 0.5286 0.39602 0.59879 0.0
C1126 C 0.5609 0.40331 0.57556 0.0
C1127 C 0.58024 0.39796 0.55872 0.0
C1128 C 0.58975 0.38127 0.578 0.0
C1129 C 0.6079 0.37621 0.56194 0.0
C1130 C 0.61677 0.38778 0.52674 0.0
C1131 C 0.60751 0.40444 0.5076 0.0
C1132 C 0.58934 0.40957 0.52352 0.0
C1133 C 0.54259 0.46779 0.67839 0.0
C1134 C 0.52504 0.47731 0.66587 0.0
C1135 C 0.54825 0.45188 0.65708 0.0
C1136 C 0.53652 0.44544 0.6227 0.0
C1137 C 0.52021 0.45624 0.60593 0.0
C1138 C 0.51436 0.47195 0.62783 0.0
C1139 C 0.53982 0.42636 0.60936 0.0
C1140 C 0.55752 0.421 0.59075 0.0
C1141 C 0.5255 0.41338 0.61575 0.0
C1142 C 0.50729 0.41753 0.6405 0.0
C1143 C 0.48974 0.41527 0.61837 0.0
C1144 C 0.47265 0.41962 0.6412 0.0
C1145 C 0.47292 0.42625 0.68621 0.0
C1146 C 0.49027 0.42843 0.70864 0.0
C1147 C 0.50737 0.42395 0.68617 0.0
H1148 H 0.45969 0.42964 0.70378 0.0
H1149 H 0.63083 0.38383 0.51435 0.0
H1150 H 0.13992 0.43067 0.46853 0.0
H1151 H 0.11653 0.44711 0.51554 0.0
H1152 H 0.15661 0.48872 0.53358 0.0
H1153 H 0.17995 0.47254 0.48655 0.0
H1154 H 0.13451 0.48127 0.61404 0.0
H1155 H 0.12591 0.49583 0.44325 0.0
H1156 H 0.12177 0.48787 0.36062 0.0
H1157 H 0.06992 0.46199 0.40098 0.0
H1158 H 0.07392 0.46954 0.48409 0.0
H1159 H 0.06285 0.54877 0.67298 0.0
H1160 H 0.08977 0.53478 0.63083 0.0
H1161 H 0.05433 0.49158 0.59443 0.0
H1162 H 0.02764 0.50556 0.6354 0.0
H1163 H 0.07578 0.50233 0.52096 0.0
H1164 H 0.08552 0.48366 0.69045 0.0
H1165 H 0.09042 0.48756 0.77561 0.0
H1166 H 0.13915 0.51919 0.73993 0.0
H1167 H 0.13465 0.51527 0.65423 0.0
C1168 C 0.14387 0.44312 0.48335 0.0
C1169 C 0.1617 0.4504 0.47337 0.0
C1170 C 0.13052 0.45249 0.51013 0.0
C1171 C 0.13475 0.46934 0.52699 0.0
C1172 C 0.15307 0.47578 0.52066 0.0
C1173 C 0.16643 0.46642 0.49397 0.0
C1174 C 0.11961 0.48113 0.54696 0.0
C1175 C 0.12178 0.48612 0.59352 0.0
C1176 C 0.10296 0.48727 0.5202 0.0
C1177 C 0.10029 0.48313 0.46996 0.0
C1178 C 0.11367 0.48836 0.43455 0.0
C1179 C 0.11135 0.48392 0.38764 0.0
C1180 C 0.09561 0.47441 0.37557 0.0
C1181 C 0.08211 0.46936 0.41038 0.0
C1182 C 0.08439 0.47372 0.45739 0.0
C1183 C 0.06079 0.53656 0.65492 0.0
C1184 C 0.04325 0.52819 0.65738 0.0
C1185 C 0.07617 0.52847 0.6314 0.0
C1186 C 0.0741 0.51199 0.61012 0.0
C1187 C 0.05628 0.50426 0.61062 0.0
C1188 C 0.04104 0.51225 0.63408 0.0
C1189 C 0.09045 0.50221 0.58858 0.0
C1190 C 0.08858 0.49768 0.54142 0.0
C1191 C 0.10728 0.49636 0.61495 0.0
C1192 C 0.10959 0.4994 0.66598 0.0
C1193 C 0.09715 0.49163 0.70072 0.0
C1194 C 0.0999 0.49379 0.74912 0.0
C1195 C 0.11499 0.50376 0.76327 0.0
C1196 C 0.12742 0.51153 0.72894 0.0
C1197 C 0.12482 0.50929 0.68045 0.0
H1198 H 0.11713 0.50536 0.80082 0.0
H1199 H 0.09385 0.47097 0.33924 0.0
H1200 H 0.01524 0.8277 0.06173 0.0
H1201 H 0.03517 0.84969 0.01518 0.0
H1202 H 0.98492 0.88364 0.96903 0.0
H1203 H 0.96501 0.86196 0.01622 0.0
H1204 H 0.01099 0.8805 0.89666 0.0
H1205 H 0.00922 0.89228 0.06467 0.0
H1206 H 0.01511 0.88395 0.15112 0.0
H1207 H 0.07485 0.87503 0.12479 0.0
H1208 H 0.06926 0.8831 0.03793 0.0
H1209 H 0.03032 0.97747 0.91605 0.0
H1210 H 0.03281 0.9467 0.95994 0.0
H1211 H 0.05919 0.92473 0.83741 0.0
H1212 H 0.05516 0.95539 0.79189 0.0
H1213 H 0.05276 0.91653 0.99029 0.0
H1214 H 0.03965 0.88675 0.81687 0.0
H1215 H 0.03203 0.89685 0.73173 0.0
H1216 H 0.99809 0.94348 0.77302 0.0
H1217 H 0.00547 0.9336 0.85821 0.0
C1218 C 0.00848 0.8397 0.04082 0.0
C1219 C 0.98866 0.84326 0.04245 0.0
C1220 C 0.01985 0.85224 0.01459 0.0
C1221 C 0.01147 0.86835 0.98934 0.0
C1222 C 0.99159 0.87133 0.98871 0.0
C1223 C 0.98026 0.85899 0.01552 0.0
C1224 C 0.0232 0.88291 0.96599 0.0
C1225 C 0.02041 0.88816 0.91692 0.0
C1226 C 0.03549 0.89285 0.99252 0.0
C1227 C 0.0388 0.88808 0.04473 0.0
C1228 C 0.0236 0.88842 0.07721 0.0
C1229 C 0.02688 0.88376 0.12632 0.0
C1230 C 0.04534 0.87891 0.14344 0.0
C1231 C 0.06056 0.87875 0.11147 0.0
C1232 C 0.05734 0.88336 0.0623 0.0
C1233 C 0.03741 0.96625 0.89915 0.0
C1234 C 0.0422 0.96863 0.85039 0.0
C1235 C 0.03885 0.9486 0.92434 0.0
C1236 C 0.0455 0.93325 0.90131 0.0
C1237 C 0.05341 0.93628 0.85531 0.0
C1238 C 0.05128 0.95381 0.82944 0.0
C1239 C 0.04011 0.91449 0.92108 0.0
C1240 C 0.04398 0.90842 0.96955 0.0
C1241 C 0.02849 0.9039 0.89431 0.0
C1242 C 0.02328 0.90957 0.84358 0.0
C1243 C 0.03049 0.89911 0.80763 0.0
C1244 C 0.02626 0.90481 0.75943 0.0
C1245 C 0.01472 0.92087 0.74693 0.0
C1246 C 0.00713 0.93112 0.78262 0.0
C1247 C 0.01131 0.92547 0.83088 0.0
H1248 H 0.01171 0.92531 0.70956 0.0
H1249 H 0.04785 0.87531 0.18148 0.0
H1250 H 0.66372 0.91325 0.01961 0.0
H1251 H 0.64014 0.93095 0.96599 0.0
H1252 H 0.68013 0.97323 0.93197 0.0
H1253 H 0.70358 0.95586 0.98553 0.0
H1254 H 0.64645 0.98666 0.96871 0.0
H1255 H 0.66731 0.94969 0.84591 0.0
H1256 H 0.6756 0.92108 0.80864 0.0
H1257 H 0.61837 0.90417 0.82827 0.0
H1258 H 0.60979 0.93256 0.86636 0.0
H1259 H 0.5725 0.01238 0.75732 0.0
H1260 H 0.60377 1.00186 0.79054 0.0
H1261 H 0.58039 0.99786 0.93332 0.0
H1262 H 0.54897 0.00865 0.90001 0.0
H1263 H 0.60896 0.96764 0.83409 0.0
H1264 H 0.6168 0.9995 0.01406 0.0
H1265 H 0.60944 0.02917 0.04732 0.0
H1266 H 0.61158 0.05833 0.90609 0.0
H1267 H 0.61921 0.02888 0.87206 0.0
C1268 C 0.66762 0.92607 0.99968 0.0
C1269 C 0.68547 0.93317 0.00693 0.0
C1270 C 0.65419 0.93613 0.96903 0.0
C1271 C 0.65842 0.95344 0.94543 0.0
C1272 C 0.67663 0.95992 0.95002 0.0
C1273 C 0.69008 0.94984 0.98028 0.0
C1274 C 0.64322 0.96571 0.9207 0.0
C1275 C 0.6383 0.98259 0.93904 0.0
C1276 C 0.6328 0.96042 0.88178 0.0
C1277 C 0.63796 0.94318 0.85949 0.0
C1278 C 0.65654 0.93978 0.8428 0.0
C1279 C 0.66128 0.92361 0.82144 0.0
C1280 C 0.64755 0.91078 0.81631 0.0
C1281 C 0.62902 0.9141 0.83241 0.0
C1282 C 0.6242 0.93024 0.85386 0.0
C1283 C 0.5742 0.00989 0.79594 0.0
C1284 C 0.55839 0.01117 0.82621 0.0
C1285 C 0.59202 0.0038 0.81481 0.0
C1286 C 0.59433 0.99888 0.86424 0.0
C1287 C 0.57892 1.00172 0.89503 0.0
C1288 C 0.56101 0.00797 0.87608 0.0
C1289 C 0.61198 0.9885 0.88256 0.0
C1290 C 0.61724 0.97186 0.86335 0.0
C1291 C 0.62283 0.99412 0.92031 0.0
C1292 C 0.61842 0.01194 0.94048 0.0
C1293 C 0.61578 0.01225 0.99012 0.0
C1294 C 0.61155 0.02903 0.00911 0.0
C1295 C 0.60999 0.04562 0.97882 0.0
C1296 C 0.61271 0.04547 0.92949 0.0
C1297 C 0.61696 0.02873 0.91033 0.0
H1298 H 0.6067 0.0586 0.99359 0.0
H1299 H 0.65124 0.8983 0.79963 0.0
H1300 H 0.46161 0.68679 0.97213 0.0
H1301 H 0.45879 0.66002 0.9264 0.0
H1302 H 0.50417 0.63038 0.01145 0.0
H1303 H 0.50741 0.65712 0.05587 0.0
H1304 H 0.5071 0.62377 0.92017 0.0
H1305 H 0.45694 0.62527 0.03947 0.0
H1306 H 0.42885 0.63942 0.07711 0.0
H1307 H 0.39774 0.64192 0.9444 0.0
H1308 H 0.42576 0.62799 0.90581 0.0
H1309 H 0.49944 0.53094 0.91501 0.0
H1310 H 0.49476 0.56008 0.95063 0.0
H1311 H 0.45159 0.57895 0.8444 0.0
H1312 H 0.4558 0.54954 0.80939 0.0
H1313 H 0.4455 0.59342 0.93262 0.0
H1314 H 0.4955 0.58569 0.81923 0.0
H1315 H 0.52382 0.57021 0.78642 0.0
H1316 H 0.55608 0.5783 0.91188 0.0
H1317 H 0.52786 0.5936 0.94597 0.0
C1318 C 0.47122 0.67468 0.98024 0.0
C1319 C 0.48455 0.67388 0.01792 0.0
C1320 C 0.46951 0.65939 0.95441 0.0
C1321 C 0.48107 0.64313 0.96612 0.0
C1322 C 0.49506 0.64276 1.00194 0.0
C1323 C 0.49679 0.65797 0.02757 0.0
C1324 C 0.47802 0.62596 0.94378 0.0
C1325 C 0.49365 0.61711 0.92293 0.0
C1326 C 0.46033 0.61752 0.94642 0.0
C1327 C 0.44349 0.62581 0.96964 0.0
C1328 C 0.44415 0.62896 0.01825 0.0
C1329 C 0.42824 0.63692 0.03975 0.0
C1330 C 0.41154 0.64162 0.01312 0.0
C1331 C 0.4107 0.63831 0.96495 0.0
C1332 C 0.42658 0.63039 0.94325 0.0
C1333 C 0.48835 0.54096 0.90061 0.0
C1334 C 0.47817 0.53817 0.85913 0.0
C1335 C 0.48577 0.55762 0.92077 0.0
C1336 C 0.47328 0.57179 0.89903 0.0
C1337 C 0.46141 0.56818 0.86129 0.0
C1338 C 0.46379 0.55135 0.84149 0.0
C1339 C 0.47479 0.59095 0.91099 0.0
C1340 C 0.45886 0.60021 0.92926 0.0
C1341 C 0.4923 0.59971 0.90635 0.0
C1342 C 0.50947 0.59084 0.88525 0.0
C1343 C 0.5086 0.58419 0.83994 0.0
C1344 C 0.52466 0.57542 0.82108 0.0
C1345 C 0.54176 0.57333 0.84697 0.0
C1346 C 0.54284 0.58 0.89179 0.0
C1347 C 0.52681 0.58874 0.91089 0.0
H1348 H 0.55417 0.5665 0.83237 0.0
H1349 H 0.39923 0.64778 0.02983 0.0
H1350 H 0.81782 0.55044 0.95774 0.0
H1351 H 0.84225 0.53802 0.90648 0.0
H1352 H 0.88398 0.56983 0.96909 0.0
H1353 H 0.85939 0.5834 0.01766 0.0
H1354 H 0.89218 0.56799 0.88063 0.0
H1355 H 0.87478 0.52315 0.01213 0.0
H1356 H 0.85247 0.50355 0.05923 0.0
H1357 H 0.84042 0.47613 0.93503 0.0
H1358 H 0.8625 0.49576 0.88705 0.0
H1359 H 0.97835 0.52217 0.8904 0.0
H1360 H 0.94661 0.52756 0.92267 0.0
H1361 H 0.92214 0.50256 0.8057 0.0
H1362 H 0.95405 0.49696 0.77324 0.0
H1363 H 0.9019 0.49937 0.90442 0.0
H1364 H 0.92765 0.54249 0.78047 0.0
H1365 H 0.95239 0.56196 0.74411 0.0
H1366 H 0.95142 0.59316 0.86584 0.0
H1367 H 0.92704 0.5735 0.9039 0.0
C1368 C 0.83204 0.55532 0.95946 0.0
C1369 C 0.8367 0.56772 0.9925 0.0
C1370 C 0.84606 0.54797 0.93055 0.0
C1371 C 0.86505 0.55255 0.93498 0.0
C1372 C 0.86946 0.56592 0.96537 0.0
C1373 C 0.8554 0.57353 0.99358 0.0
C1374 C 0.88068 0.54254 0.91122 0.0
C1375 C 0.89426 0.553 0.88575 0.0
C1376 C 0.88324 0.52291 0.91709 0.0
C1377 C 0.87008 0.51105 0.94592 0.0
C1378 C 0.86727 0.51301 0.99483 0.0
C1379 C 0.85469 0.5019 0.02167 0.0
C1380 C 0.84499 0.48864 1.00009 0.0
C1381 C 0.84791 0.48643 0.95166 0.0
C1382 C 0.86045 0.49754 0.92463 0.0
C1383 C 0.9663 0.51693 0.87299 0.0
C1384 C 0.96852 0.50937 0.82918 0.0
C1385 C 0.9482 0.52009 0.8913 0.0
C1386 C 0.93215 0.51585 0.86576 0.0
C1387 C 0.93444 0.50595 0.82563 0.0
C1388 C 0.95266 0.50267 0.80734 0.0
C1389 C 0.9136 0.52494 0.87591 0.0
C1390 C 0.89952 0.51433 0.89837 0.0
C1391 C 0.91081 0.54449 0.86844 0.0
C1392 C 0.92545 0.55643 0.84519 0.0
C1393 C 0.93275 0.55337 0.79979 0.0
C1394 C 0.94677 0.56445 0.77885 0.0
C1395 C 0.95346 0.57879 0.80259 0.0
C1396 C 0.94622 0.58204 0.84748 0.0
C1397 C 0.93231 0.57092 0.86879 0.0
H1398 H 0.96418 0.58744 0.78609 0.0
H1399 H 0.83525 0.48004 0.02093 0.0
H1400 H 0.99186 0.22228 0.03101 0.0
H1401 H 0.99595 0.19839 0.9756 0.0
H1402 H 0.04547 0.17488 0.05582 0.0
H1403 H 0.04155 0.19903 0.11048 0.0
H1404 H 0.04968 0.17022 0.96198 0.0
H1405 H 1.00176 0.15982 0.08188 0.0
H1406 H 0.97287 0.16804 0.12644 0.0
H1407 H 0.93957 0.17095 0.99703 0.0
H1408 H 0.96838 0.16312 0.95147 0.0
H1409 H 0.04623 0.07363 0.94465 0.0
H1410 H 0.04602 0.10498 0.96891 0.0
H1411 H 0.99988 0.12215 0.86985 0.0
H1412 H 1.00012 0.09054 0.84526 0.0
H1413 H 0.99321 0.13213 0.96291 0.0
H1414 H 0.04251 0.13807 0.84588 0.0
H1415 H 0.07224 0.12888 0.80605 0.0
H1416 H 0.10376 0.13253 0.93571 0.0
H1417 H 0.07416 0.14148 0.97658 0.0
C1418 C 0.00411 0.21252 0.03533 0.0
C1419 C 0.01661 0.21267 0.07438 0.0
C1420 C 0.00631 0.19871 0.00408 0.0
C1421 C 0.02082 0.18455 0.01198 0.0
C1422 C 0.03418 0.18559 0.04883 0.0
C1423 C 0.03203 0.19947 0.0799 0.0
C1424 C 0.02079 0.16763 0.98584 0.0
C1425 C 0.03735 0.16188 0.96229 0.0
C1426 C 0.00466 0.15674 0.98571 0.0
C1427 C 0.98725 0.1611 0.01316 0.0
C1428 C 0.9883 0.16233 0.06286 0.0
C1429 C 0.97194 0.16692 0.0883 0.0
C1430 C 0.9544 0.17005 0.06455 0.0
C1431 C 0.95318 0.16855 0.01534 0.0
C1432 C 0.96952 0.16405 0.98969 0.0
C1433 C 0.03615 0.08412 0.92768 0.0
C1434 C 0.02316 0.07959 0.89313 0.0
C1435 C 0.03611 0.10208 0.94139 0.0
C1436 C 0.02299 0.11601 0.92113 0.0
C1437 C 0.01018 0.11166 0.88591 0.0
C1438 C 0.0104 0.09366 0.87163 0.0
C1439 C 0.02211 0.13469 0.93909 0.0
C1440 C 0.00541 0.14067 0.96163 0.0
C1441 C 0.03822 0.14559 0.93893 0.0
C1442 C 0.05608 0.14032 0.91439 0.0
C1443 C 0.05575 0.13678 0.86602 0.0
C1444 C 0.07259 0.13164 0.84323 0.0
C1445 C 0.08987 0.13009 0.86836 0.0
C1446 C 0.09036 0.13373 0.9163 0.0
C1447 C 0.07356 0.13886 0.93927 0.0
H1448 H 0.10289 0.1261 0.85065 0.0
H1449 H 0.94175 0.17361 0.0843 0.0
H1450 H 0.31529 0.08061 0.10223 0.0
H1451 H 0.33873 0.07209 0.04346 0.0
H1452 H 0.33681 0.01456 0.09972 0.0
H1453 H 0.31359 0.02332 0.16 0.0
H1454 H 0.37171 0.02286 0.0963 0.0
H1455 H 0.32241 0.03201 0.98087 0.0
H1456 H 0.29484 0.04682 0.93451 0.0
H1457 H 0.32795 0.0928 0.88428 0.0
H1458 H 0.35561 0.07849 0.93115 0.0
H1459 H 0.44543 0.0051 0.9257 0.0
H1460 H 0.41468 0.00475 0.96678 0.0
H1461 H 0.41009 0.06454 0.94821 0.0
H1462 H 0.44059 0.06497 0.90667 0.0
H1463 H 0.37647 0.04938 0.92658 0.0
H1464 H 0.42385 0.04089 0.05524 0.0
H1465 H 0.4514 0.02445 0.09856 0.0
H1466 H 0.42079 0.97473 0.11911 0.0
H1467 H 0.39312 0.99082 0.07536 0.0
C1468 C 0.31934 0.06606 0.1009 0.0
C1469 C 0.31252 0.05262 0.13554 0.0
C1470 C 0.33279 0.06115 0.06715 0.0
C1471 C 0.33965 0.04262 0.06668 0.0
C1472 C 0.33182 0.02896 0.09918 0.0
C1473 C 0.31834 0.03391 0.13324 0.0
C1474 C 0.35649 0.03811 0.03644 0.0
C1475 C 0.37249 0.02831 0.05884 0.0
C1476 C 0.35783 0.04531 0.98753 0.0
C1477 C 0.34109 0.05421 0.95995 0.0
C1478 C 0.32377 0.04538 0.96041 0.0
C1479 C 0.30812 0.05368 0.93395 0.0
C1480 C 0.30963 0.07076 0.90657 0.0
C1481 C 0.32679 0.07958 0.90558 0.0
C1482 C 0.34246 0.07138 0.9321 0.0
C1483 C 0.43782 0.01817 0.93011 0.0
C1484 C 0.44557 0.03508 0.91301 0.0
C1485 C 0.42027 0.01795 0.95385 0.0
C1486 C 0.41006 0.03464 0.96084 0.0
C1487 C 0.41766 0.05149 0.94328 0.0
C1488 C 0.43523 0.05172 0.91992 0.0
C1489 C 0.39159 0.03476 0.98704 0.0
C1490 C 0.3754 0.04371 0.96382 0.0
C1491 C 0.38997 0.02659 0.03489 0.0
C1492 C 0.4065 0.017 0.06165 0.0
C1493 C 0.42304 0.02642 0.06874 0.0
C1494 C 0.43866 0.01717 0.09341 0.0
C1495 C 0.43785 0.99855 0.11152 0.0
C1496 C 0.42139 0.98915 0.1051 0.0
C1497 C 0.40574 0.99833 0.08037 0.0
H1498 H 0.44996 0.99142 0.13059 0.0
H1499 H 0.29751 0.07714 0.88603 0.0
H1500 H 0.53077 0.32628 0.08749 0.0
H1501 H 0.52822 0.35028 0.0192 0.0
H1502 H 0.46705 0.35066 0.02688 0.0
H1503 H 0.46961 0.32682 0.09612 0.0
H1504 H 0.49033 0.35753 0.92266 0.0
H1505 H 0.47564 0.37982 0.08008 0.0
H1506 H 0.48251 0.37994 0.16642 0.0
H1507 H 0.53945 0.39545 0.13394 0.0
H1508 H 0.53293 0.39525 0.04737 0.0
H1509 H 0.47057 0.4513 0.8158 0.0
H1510 H 0.46996 0.42079 0.86235 0.0
H1511 H 0.52553 0.42799 0.92053 0.0
H1512 H 0.52617 0.45842 0.87463 0.0
H1513 H 0.50319 0.41619 0.98999 0.0
H1514 H 0.5205 0.39439 0.83886 0.0
H1515 H 0.51839 0.39114 0.75233 0.0
H1516 H 0.46109 0.37418 0.76977 0.0
H1517 H 0.46308 0.37684 0.85679 0.0
C1518 C 0.51679 0.33073 0.07288 0.0
C1519 C 0.50038 0.32444 0.09643 0.0
C1520 C 0.51534 0.34456 0.03413 0.0
C1521 C 0.49745 0.35228 0.01805 0.0
C1522 C 0.48098 0.34475 0.03843 0.0
C1523 C 0.48244 0.33101 0.07768 0.0
C1524 C 0.49623 0.37017 0.98673 0.0
C1525 C 0.49275 0.37044 0.93736 0.0
C1526 C 0.50003 0.38689 0.00563 0.0
C1527 C 0.50385 0.38736 0.05744 0.0
C1528 C 0.48965 0.38315 0.09143 0.0
C1529 C 0.49346 0.38329 0.14035 0.0
C1530 C 0.51142 0.38766 0.15567 0.0
C1531 C 0.52556 0.39203 0.12204 0.0
C1532 C 0.5218 0.39195 0.07305 0.0
C1533 C 0.48266 0.44638 0.83849 0.0
C1534 C 0.49836 0.45742 0.84163 0.0
C1535 C 0.48238 0.42883 0.86479 0.0
C1536 C 0.49776 0.42194 0.89484 0.0
C1537 C 0.51346 0.43293 0.89774 0.0
C1538 C 0.51379 0.4504 0.87142 0.0
C1539 C 0.49719 0.4038 0.92536 0.0
C1540 C 0.50044 0.40343 0.97494 0.0
C1541 C 0.49345 0.38701 0.90637 0.0
C1542 C 0.49187 0.386 0.85408 0.0
C1543 C 0.50741 0.39008 0.82414 0.0
C1544 C 0.50629 0.38822 0.7751 0.0
C1545 C 0.48957 0.38257 0.75549 0.0
C1546 C 0.47401 0.37858 0.785 0.0
C1547 C 0.47518 0.38013 0.83423 0.0
H1548 H 0.48869 0.38126 0.71743 0.0
H1549 H 0.51436 0.38768 0.19358 0.0
H1550 H 0.17523 0.43875 0.06408 0.0
H1551 H 0.14979 0.44635 0.00467 0.0
H1552 H 0.16634 0.50295 0.98435 0.0
H1553 H 0.19175 0.49538 0.04457 0.0
H1554 H 0.12904 0.50127 0.00365 0.0
H1555 H 0.1718 0.47426 0.89471 0.0
H1556 H 0.19403 0.45033 0.86664 0.0
H1557 H 0.14981 0.41169 0.87547 0.0
H1558 H 0.12737 0.43532 0.90425 0.0
H1559 H 0.06274 0.53157 0.81975 0.0
H1560 H 0.09154 0.52311 0.86694 0.0
H1561 H 0.0773 0.46576 0.88159 0.0
H1562 H 0.04857 0.47416 0.83215 0.0
H1563 H 0.11395 0.46807 0.86366 0.0
H1564 H 0.07149 0.49464 0.97547 0.0
H1565 H 0.04919 0.51864 0.00313 0.0
H1566 H 0.09288 0.55782 0.98985 0.0
H1567 H 0.11538 0.53414 0.9615 0.0
C1568 C 0.17373 0.45272 0.04608 0.0
C1569 C 0.18547 0.46648 0.05899 0.0
C1570 C 0.1592 0.45704 0.01199 0.0
C1571 C 0.1561 0.47523 0.98989 0.0
C1572 C 0.16845 0.48881 1.00091 0.0
C1573 C 0.18309 0.48445 0.03494 0.0
C1574 C 0.13893 0.48037 0.95908 0.0
C1575 C 0.12592 0.49421 0.97254 0.0
C1576 C 0.13449 0.47076 0.91941 0.0
C1577 C 0.14795 0.45652 0.90207 0.0
C1578 C 0.16685 0.46062 0.89106 0.0
C1579 C 0.17948 0.44711 0.87494 0.0
C1580 C 0.17335 0.42949 0.86938 0.0
C1581 C 0.15455 0.42534 0.87983 0.0
C1582 C 0.14186 0.43879 0.896 0.0
C1583 C 0.0656 0.51715 0.8333 0.0
C1584 C 0.05325 0.50355 0.82262 0.0
C1585 C 0.08209 0.51234 0.86054 0.0
C1586 C 0.08647 0.49385 0.87888 0.0
C1587 C 0.0742 0.48015 0.86811 0.0
C1588 C 0.05779 0.48494 0.83994 0.0
C1589 C 0.10405 0.48892 0.90839 0.0
C1590 C 0.11709 0.47511 0.89476 0.0
C1591 C 0.10851 0.4985 0.94814 0.0
C1592 C 0.09507 0.51265 0.96599 0.0
C1593 C 0.07631 0.5084 0.97822 0.0
C1594 C 0.06364 0.52195 0.99404 0.0
C1595 C 0.06961 0.53975 0.99811 0.0
C1596 C 0.08828 0.54403 0.98662 0.0
C1597 C 0.101 0.53055 0.97074 0.0
H1598 H 0.05978 0.55024 0.0102 0.0
H1599 H 0.18315 0.41905 0.85689 0.0
H1600 H 0.98834 0.83545 0.39865 0.0
H1601 H 0.99005 0.85822 0.45588 0.0
H1602 H 0.95375 0.82625 0.55263 0.0
H1603 H 0.95154 0.8034 0.49381 0.0
H1604 H 0.94225 0.86234 0.54661 0.0
H1605 H 1.00149 0.82948 0.57964 0.0
H1606 H 0.03228 0.81367 0.56273 0.0
H1607 H 0.05185 0.8647 0.49363 0.0
H1608 H 0.02108 0.88077 0.50948 0.0
H1609 H 0.9716 0.9322 0.708 0.0
H1610 H 0.96361 0.90294 0.67693 0.0
H1611 H 0.98549 0.92272 0.53848 0.0
H1612 H 0.99315 0.95168 0.56896 0.0
H1613 H 0.00355 0.88805 0.58565 0.0
H1614 H 0.94137 0.91887 0.54426 0.0
H1615 H 0.91059 0.93402 0.56412 0.0
H1616 H 0.89719 0.88539 0.65599 0.0
H1617 H 0.92805 0.87004 0.63716 0.0
C1618 C 0.9809 0.83309 0.43239 0.0
C1619 C 0.9698 0.8176 0.44166 0.0
C1620 C 0.98196 0.84612 0.46533 0.0
C1621 C 0.97221 0.84398 0.50909 0.0
C1622 C 0.96146 0.82823 0.51924 0.0
C1623 C 0.96037 0.81507 0.48591 0.0
C1624 C 0.97282 0.8588 0.54234 0.0
C1625 C 0.95569 0.86765 0.55613 0.0
C1626 C 0.99029 0.86588 0.55508 0.0
C1627 C 0.00891 0.85632 0.54563 0.0
C1628 C 0.01231 0.83731 0.5606 0.0
C1629 C 0.02977 0.8283 0.55122 0.0
C1630 C 0.044 0.83817 0.52708 0.0
C1631 C 0.04081 0.85707 0.51235 0.0
C1632 C 0.02338 0.86615 0.52161 0.0
C1633 C 0.97396 0.93052 0.67051 0.0
C1634 C 0.98315 0.94415 0.64096 0.0
C1635 C 0.96958 0.91375 0.6529 0.0
C1636 C 0.97424 0.91053 0.60552 0.0
C1637 C 0.98195 0.92478 0.57523 0.0
C1638 C 0.98622 0.94138 0.59261 0.0
C1639 C 0.97306 0.89195 0.58786 0.0
C1640 C 0.99015 0.88241 0.5771 0.0
C1641 C 0.95561 0.88417 0.57861 0.0
C1642 C 0.93711 0.89341 0.58985 0.0
C1643 C 0.93195 0.91149 0.56912 0.0
C1644 C 0.91447 0.92009 0.58008 0.0
C1645 C 0.90197 0.91071 0.61145 0.0
C1646 C 0.90691 0.89267 0.63179 0.0
C1647 C 0.92438 0.88401 0.62097 0.0
H1648 H 0.88844 0.91739 0.61987 0.0
H1649 H 0.05751 0.83116 0.51984 0.0
H1650 H 0.68007 0.96967 0.33937 0.0
H1651 H 0.65527 0.97609 0.39569 0.0
H1652 H 0.6961 0.96772 0.51213 0.0
H1653 H 0.72112 0.95964 0.45523 0.0
H1654 H 0.6661 0.95231 0.54202 0.0
H1655 H 0.67402 0.0125 0.46823 0.0
H1656 H 0.67823 0.03778 0.40381 0.0
H1657 H 0.62321 0.02945 0.34587 0.0
H1658 H 0.61876 0.00394 0.4095 0.0
H1659 H 0.58584 0.9862 0.68093 0.0
H1660 H 0.61672 0.98561 0.63996 0.0
H1661 H 0.58939 0.97079 0.51278 0.0
H1662 H 0.55861 0.97106 0.5538 0.0
H1663 H 0.61573 1.002 0.50038 0.0
H1664 H 0.61211 0.93805 0.57566 0.0
H1665 H 0.60886 0.9154 0.64683 0.0
H1666 H 0.65799 0.93554 0.71122 0.0
H1667 H 0.6614 0.95846 0.64056 0.0
C1668 C 0.68391 0.96908 0.37697 0.0
C1669 C 0.70263 0.96375 0.3927 0.0
C1670 C 0.66964 0.97312 0.40931 0.0
C1671 C 0.67365 0.97278 0.4585 0.0
C1672 C 0.69252 0.96815 0.47441 0.0
C1673 C 0.70689 0.96371 0.44181 0.0
C1674 C 0.65772 0.97624 0.49258 0.0
C1675 C 0.65536 0.96346 0.53329 0.0
C1676 C 0.64355 0.99084 0.48204 0.0
C1677 C 0.6461 0.00622 0.4436 0.0
C1678 C 0.66286 0.01598 0.44159 0.0
C1679 C 0.66528 0.03036 0.40522 0.0
C1680 C 0.65101 0.0352 0.37075 0.0
C1681 C 0.63426 0.02569 0.37262 0.0
C1682 C 0.63176 0.01129 0.40889 0.0
C1683 C 0.58643 0.98288 0.64419 0.0
C1684 C 0.56979 0.97866 0.62056 0.0
C1685 C 0.60408 0.98247 0.62091 0.0
C1686 C 0.60536 0.97814 0.57331 0.0
C1687 C 0.58873 0.97417 0.5495 0.0
C1688 C 0.57118 0.97422 0.57302 0.0
C1689 C 0.62395 0.9777 0.54793 0.0
C1690 C 0.62673 0.99109 0.50915 0.0
C1691 C 0.63873 0.9641 0.56118 0.0
C1692 C 0.6369 0.95007 0.60307 0.0
C1693 C 0.62215 0.93772 0.60513 0.0
C1694 C 0.62029 0.92482 0.64534 0.0
C1695 C 0.63318 0.92407 0.68358 0.0
C1696 C 0.648 0.93615 0.6816 0.0
C1697 C 0.64992 0.94908 0.64145 0.0
H1698 H 0.6317 0.91408 0.71467 0.0
H1699 H 0.65292 0.04634 0.34261 0.0
H1700 H 0.52554 0.69276 0.4422 0.0
H1701 H 0.52921 0.6691 0.51139 0.0
H1702 H 0.46849 0.66354 0.5128 0.0
H1703 H 0.46487 0.68733 0.44424 0.0
H1704 H 0.48315 0.65642 0.6035 0.0
H1705 H 0.49674 0.6375 0.44678 0.0
H1706 H 0.51314 0.63892 0.3689 0.0
H1707 H 0.56692 0.62661 0.44123 0.0
H1708 H 0.55084 0.62543 0.51965 0.0
H1709 H 0.47331 0.56018 0.67101 0.0
H1710 H 0.47368 0.59139 0.62873 0.0
H1711 H 0.53424 0.59139 0.65223 0.0
H1712 H 0.53395 0.56016 0.69539 0.0
H1713 H 0.52255 0.60263 0.55591 0.0
H1714 H 0.50828 0.6199 0.71335 0.0
H1715 H 0.49136 0.61904 0.79054 0.0
H1716 H 0.4383 0.63281 0.71599 0.0
H1717 H 0.45496 0.63419 0.63832 0.0
C1718 C 0.51292 0.6872 0.459 0.0
C1719 C 0.4949 0.69206 0.43837 0.0
C1720 C 0.51503 0.67346 0.49811 0.0
C1721 C 0.49916 0.6642 0.51676 0.0
C1722 C 0.48096 0.67041 0.49916 0.0
C1723 C 0.47887 0.68413 0.46017 0.0
C1724 C 0.50161 0.64653 0.54934 0.0
C1725 C 0.49175 0.64468 0.59301 0.0
C1726 C 0.51296 0.63114 0.53614 0.0
C1727 C 0.52262 0.63159 0.48906 0.0
C1728 C 0.51208 0.63522 0.44608 0.0
C1729 C 0.52131 0.63597 0.40185 0.0
C1730 C 0.54107 0.63291 0.40012 0.0
C1731 C 0.55162 0.62902 0.44264 0.0
C1732 C 0.54246 0.62831 0.48698 0.0
C1733 C 0.48674 0.56678 0.66723 0.0
C1734 C 0.50363 0.55759 0.6864 0.0
C1735 C 0.48689 0.58471 0.64335 0.0
C1736 C 0.50396 0.59383 0.6376 0.0
C1737 C 0.52089 0.58467 0.65638 0.0
C1738 C 0.5207 0.56681 0.68097 0.0
C1739 C 0.5041 0.61254 0.60996 0.0
C1740 C 0.51429 0.6145 0.56688 0.0
C1741 C 0.49296 0.62794 0.62357 0.0
C1742 C 0.48284 0.627 0.67005 0.0
C1743 C 0.49299 0.62264 0.71342 0.0
C1744 C 0.48346 0.62209 0.75725 0.0
C1745 C 0.46375 0.62565 0.75817 0.0
C1746 C 0.45356 0.63 0.71523 0.0
C1747 C 0.46305 0.63079 0.6713 0.0
H1748 H 0.4564 0.62514 0.79216 0.0
H1749 H 0.54819 0.63349 0.36584 0.0
H1750 H 0.83159 0.59244 0.42512 0.0
H1751 H 0.85546 0.58761 0.48954 0.0
H1752 H 0.85164 0.52844 0.49277 0.0
H1753 H 0.82743 0.53333 0.42867 0.0
H1754 H 0.85973 0.53908 0.58371 0.0
H1755 H 0.8833 0.54921 0.42229 0.0
H1756 H 0.88544 0.56622 0.34171 0.0
H1757 H 0.90466 0.61355 0.40376 0.0
H1758 H 0.90233 0.59691 0.48484 0.0
H1759 H 0.95405 0.50682 0.65112 0.0
H1760 H 0.92354 0.51449 0.6103 0.0
H1761 H 0.93178 0.57276 0.61307 0.0
H1762 H 0.96251 0.56517 0.65419 0.0
H1763 H 0.92048 0.56425 0.52397 0.0
H1764 H 0.89802 0.55384 0.68557 0.0
H1765 H 0.89477 0.53719 0.76639 0.0
H1766 H 0.87459 0.49028 0.70446 0.0
H1767 H 0.87735 0.50676 0.6233 0.0
C1768 C 0.83523 0.57845 0.44114 0.0
C1769 C 0.82757 0.56325 0.42233 0.0
C1770 C 0.84901 0.57568 0.4776 0.0
C1771 C 0.85566 0.55765 0.49536 0.0
C1772 C 0.84677 0.54247 0.47963 0.0
C1773 C 0.83285 0.54526 0.44324 0.0
C1774 C 0.87339 0.55469 0.52513 0.0
C1775 C 0.87303 0.54447 0.57054 0.0
C1776 C 0.89075 0.56196 0.50839 0.0
C1777 C 0.89245 0.57189 0.45965 0.0
C1778 C 0.88786 0.56329 0.41877 0.0
C1779 C 0.88912 0.57286 0.37301 0.0
C1780 C 0.89513 0.59097 0.36762 0.0
C1781 C 0.89997 0.59953 0.408 0.0
C1782 C 0.89869 0.59004 0.45386 0.0
C1783 C 0.94947 0.5213 0.64291 0.0
C1784 C 0.96084 0.53539 0.65573 0.0
C1785 C 0.93187 0.52565 0.62001 0.0
C1786 C 0.92521 0.54419 0.6091 0.0
C1787 C 0.93657 0.55834 0.62139 0.0
C1788 C 0.95414 0.55398 0.64483 0.0
C1789 C 0.90686 0.54868 0.58265 0.0
C1790 C 0.90714 0.55906 0.53753 0.0
C1791 C 0.8895 0.54153 0.59969 0.0
C1792 C 0.88804 0.53147 0.64834 0.0
C1793 C 0.89301 0.53992 0.68917 0.0
C1794 C 0.89123 0.53054 0.73503 0.0
C1795 C 0.88467 0.51264 0.74052 0.0
C1796 C 0.87971 0.50414 0.70016 0.0
C1797 C 0.88127 0.51353 0.65423 0.0
H1798 H 0.88336 0.5054 0.77606 0.0
H1799 H 0.89609 0.59836 0.33216 0.0
loop_
_geom_bond_atom_site_label_1
_geom_bond_atom_site_label_2
_geom_bond_distance
_geom_bond_site_symmetry_2
_ccdc_geom_bond_type
C0 C1 1.391 . S
C0 C4 1.391 . S
C0 H42 0.948 . S
C1 C0 1.391 . S
C1 C2 1.391 . S
C2 C1 1.391 . S
C2 H58 0.947 . S
C2 C59 1.392 . S
C3 C4 1.391 . S
C3 C7 1.397 . S
C3 C59 1.419 . S
C4 C0 1.391 . S
C4 C3 1.391 . S
C4 C5 1.399 . S
C5 C4 1.399 . S
C5 C8 1.396 . S
C5 C17 1.453 . S
C5 C18 1.684 . S
H6 C30 0.948 . S
C7 C3 1.397 . S
C7 C8 1.394 . S
C7 C26 1.723 . S
C8 C5 1.396 . S
C8 C7 1.394 . S
C8 C38 1.723 . S
H9 C32 0.947 . S
H10 C33 0.948 . S
H11 C39 0.982 . S
H12 C40 0.985 . S
H13 C40 0.971 1_556 S
H14 C40 0.971 1_556 S
H15 C39 0.979 1_556 S
H16 C39 0.977 1_556 S
C17 C5 1.453 . S
C17 H46 0.982 . S
C17 H47 0.979 . S
C17 H48 0.977 . S
C18 C5 1.684 . S
C18 H43 0.979 . S
C18 H44 0.980 . S
C18 H45 0.983 . S
C19 C20 1.391 1_554 S
C19 C24 1.391 . S
C19 H49 0.948 . S
C20 C19 1.391 1_556 S
C20 C21 1.391 . S
C21 C20 1.391 . S
C21 C22 1.392 . S
C21 H50 0.947 . S
C22 C21 1.392 . S
C22 C23 1.419 1_556 S
C22 H51 0.948 . S
C23 C22 1.419 1_554 S
C23 C24 1.391 . S
C23 C27 1.397 . S
C24 C19 1.391 . S
C24 C23 1.391 . S
C24 C25 1.399 . S
C25 C24 1.399 . S
C25 C26 1.396 . S
C25 C28 1.453 . S
C25 C29 1.684 . S
C26 C7 1.723 . S
C26 C25 1.396 . S
C26 C27 1.394 . S
C27 C23 1.397 . S
C27 C26 1.394 . S
C27 C37 1.723 . S
C28 C25 1.453 . S
C28 H52 0.982 . S
C28 H53 0.979 . S
C28 H54 0.977 . S
C29 C25 1.684 . S
C29 H55 0.979 . S
C29 H56 0.980 . S
C29 H57 0.983 . S
C30 H6 0.948 . S
C30 C31 1.391 . S
C30 C35 1.391 . S
C31 C30 1.391 . S
C31 C32 1.391 . S
C32 H9 0.947 . S
C32 C31 1.391 . S
C32 C33 1.392 . S
C33 H10 0.948 . S
C33 C32 1.392 . S
C33 C34 1.419 . S
C34 C33 1.419 . S
C34 C35 1.391 . S
C34 C38 1.397 . S
C35 C30 1.391 . S
C35 C34 1.391 . S
C35 C36 1.399 . S
C36 C35 1.399 . S
C36 C37 1.396 . S
C36 C39 1.453 . S
C36 C40 1.699 . S
C37 C27 1.723 . S
C37 C36 1.396 . S
C37 C38 1.394 . S
C38 C8 1.723 . S
C38 C34 1.397 . S
C38 C37 1.394 . S
C39 H11 0.982 . S
C39 H15 0.979 1_554 S
C39 H16 0.977 1_554 S
C39 C36 1.453 . S
C40 H12 0.985 . S
C40 H13 0.971 1_554 S
C40 H14 0.971 1_554 S
C40 C36 1.699 . S
H41 C59 0.948 . S
H42 C0 0.948 . S
H43 C18 0.979 . S
H44 C18 0.980 . S
H45 C18 0.983 . S
H46 C17 0.982 . S
H47 C17 0.979 . S
H48 C17 0.977 . S
H49 C19 0.948 . S
H50 C21 0.947 . S
H51 C22 0.948 . S
H52 C28 0.982 . S
H53 C28 0.979 . S
H54 C28 0.977 . S
H55 C29 0.979 . S
H56 C29 0.980 . S
H57 C29 0.983 . S
H58 C2 0.947 . S
C59 C2 1.392 . S
C59 C3 1.419 . S
C59 H41 0.948 . S
C60 C61 1.391 . S
C60 C64 1.391 1_556 S
C60 H102 0.948 . S
C61 C60 1.391 . S
C61 C62 1.391 1_556 S
C62 C61 1.391 1_554 S
C62 H118 0.947 . S
C62 C119 1.392 . S
C63 C64 1.391 . S
C63 C67 1.397 1_655 S
C63 C119 1.419 . S
C64 C60 1.391 1_554 S
C64 C63 1.391 . S
C64 C65 1.399 . S
C65 C64 1.399 . S
C65 C68 1.389 1_655 S
C65 C77 1.451 1_654 S
C65 C78 1.684 1_554 S
H66 C90 0.948 . S
C67 C63 1.397 1_455 S
C67 C68 1.396 . S
C67 C86 1.722 . S
C68 C65 1.389 1_455 S
C68 C67 1.396 . S
C68 C98 1.719 . S
H69 C92 0.947 . S
H70 C93 0.948 . S
H71 C99 0.982 . S
H72 C100 0.979 . S
H73 C100 0.980 . S
H74 C100 0.983 . S
H75 C99 0.979 . S
H76 C99 0.977 . S
C77 C65 1.451 1_456 S
C77 H106 0.981 1_556 S
C77 H107 0.983 . S
C77 H108 0.976 1_556 S
C78 C65 1.684 1_556 S
C78 H103 0.979 . S
C78 H104 0.980 . S
C78 H105 0.983 . S
C79 C80 1.391 . S
C79 C84 1.391 . S
C79 H109 0.948 . S
C80 C79 1.391 . S
C80 C81 1.391 . S
C81 C80 1.391 . S
C81 C82 1.392 . S
C81 H110 0.947 . S
C82 C81 1.392 . S
C82 C83 1.419 . S
C82 H111 0.948 . S
C83 C82 1.419 . S
C83 C84 1.391 . S
C83 C87 1.397 1_655 S
C84 C79 1.391 . S
C84 C83 1.391 . S
C84 C85 1.399 . S
C85 C84 1.399 . S
C85 C86 1.390 1_655 S
C85 C88 1.453 1_655 S
C85 C89 1.684 . S
C86 C67 1.722 . S
C86 C85 1.390 1_455 S
C86 C87 1.390 . S
C87 C83 1.397 1_455 S
C87 C86 1.390 . S
C87 C97 1.725 . S
C88 C85 1.453 1_455 S
C88 H112 0.982 . S
C88 H113 0.979 . S
C88 H114 0.977 . S
C89 C85 1.684 . S
C89 H115 0.979 . S
C89 H116 0.980 . S
C89 H117 0.983 . S
C90 H66 0.948 . S
C90 C91 1.391 . S
C90 C95 1.391 . S
C91 C90 1.391 . S
C91 C92 1.391 . S
C92 H69 0.947 . S
C92 C91 1.391 . S
C92 C93 1.392 . S
C93 H70 0.948 . S
C93 C92 1.392 . S
C93 C94 1.419 . S
C94 C93 1.419 . S
C94 C95 1.391 . S
C94 C98 1.397 1_655 S
C95 C90 1.391 . S
C95 C94 1.391 . S
C95 C96 1.399 . S
C96 C95 1.399 . S
C96 C97 1.385 1_655 S
C96 C99 1.453 1_655 S
C96 C100 1.684 . S
C97 C87 1.725 . S
C97 C96 1.385 1_455 S
C97 C98 1.394 . S
C98 C68 1.719 . S
C98 C94 1.397 1_455 S
C98 C97 1.394 . S
C99 H71 0.982 . S
C99 H75 0.979 . S
C99 H76 0.977 . S
C99 C96 1.453 1_455 S
C100 H72 0.979 . S
C100 H73 0.980 . S
C100 H74 0.983 . S
C100 C96 1.684 . S
H101 C119 0.948 . S
H102 C60 0.948 . S
H103 C78 0.979 . S
H104 C78 0.980 . S
H105 C78 0.983 . S
H106 C77 0.981 1_554 S
H107 C77 0.983 . S
H108 C77 0.976 1_554 S
H109 C79 0.948 . S
H110 C81 0.947 . S
H111 C82 0.948 . S
H112 C88 0.982 . S
H113 C88 0.979 . S
H114 C88 0.977 . S
H115 C89 0.979 . S
H116 C89 0.980 . S
H117 C89 0.983 . S
H118 C62 0.947 . S
C119 C62 1.392 . S
C119 C63 1.419 . S
C119 H101 0.948 . S
C120 C121 1.391 . S
C120 C124 1.391 . S
C120 H162 0.948 . S
C121 C120 1.391 . S
C121 C122 1.391 . S
C122 C121 1.391 . S
C122 H178 0.947 1_554 S
C122 C179 1.392 . S
C123 C124 1.391 . S
C123 C127 1.397 . S
C123 C179 1.419 . S
C124 C120 1.391 . S
C124 C123 1.391 . S
C124 C125 1.399 . S
C125 C124 1.399 . S
C125 C128 1.396 . S
C125 C137 1.453 . S
C125 C138 1.684 . S
H126 C150 0.948 . S
C127 C123 1.397 . S
C127 C128 1.394 . S
C127 C146 1.723 . S
C128 C125 1.396 . S
C128 C127 1.394 . S
C128 C158 1.723 . S
H129 C152 0.947 . S
H130 C153 0.948 . S
H131 C159 0.982 . S
H132 C160 0.979 . S
H133 C160 0.980 . S
H134 C160 0.983 . S
H135 C159 0.979 . S
H136 C159 0.977 . S
C137 C125 1.453 . S
C137 H166 0.982 . S
C137 H167 0.979 . S
C137 H168 0.977 . S
C138 C125 1.684 . S
C138 H163 0.979 . S
C138 H164 0.980 . S
C138 H165 0.983 . S
C139 C140 1.391 . S
C139 C144 1.391 . S
C139 H169 0.948 . S
C140 C139 1.391 . S
C140 C141 1.391 1_556 S
C141 C140 1.391 1_554 S
C141 C142 1.392 . S
C141 H170 0.947 . S
C142 C141 1.392 . S
C142 C143 1.419 . S
C142 H171 0.948 . S
C143 C142 1.419 . S
C143 C144 1.391 1_554 S
C143 C147 1.397 . S
C144 C139 1.391 . S
C144 C143 1.391 1_556 S
C144 C145 1.398 1_556 S
C145 C144 1.398 1_554 S
C145 C146 1.420 . S
C145 C148 1.441 1_554 S
C145 C149 1.668 1_554 S
C146 C127 1.723 . S
C146 C145 1.420 . S
C146 C147 1.394 . S
C147 C143 1.397 . S
C147 C146 1.394 . S
C147 C157 1.723 . S
C148 C145 1.441 1_556 S
C148 H172 0.982 . S
C148 H173 0.979 . S
C148 H174 0.977 . S
C149 C145 1.668 1_556 S
C149 H175 0.979 . S
C149 H176 0.980 . S
C149 H177 0.983 . S
C150 H126 0.948 . S
C150 C151 1.391 . S
C150 C155 1.391 . S
C151 C150 1.391 . S
C151 C152 1.391 . S
C152 H129 0.947 . S
C152 C151 1.391 . S
C152 C153 1.392 . S
C153 H130 0.948 . S
C153 C152 1.392 . S
C153 C154 1.419 . S
C154 C153 1.419 . S
C154 C155 1.391 . S
C154 C158 1.397 . S
C155 C150 1.391 . S
C155 C154 1.391 . S
C155 C156 1.399 . S
C156 C155 1.399 . S
C156 C157 1.396 . S
C156 C159 1.453 . S
C156 C160 1.684 . S
C157 C147 1.723 . S
C157 C156 1.396 . S
C157 C158 1.394 . S
C158 C128 1.723 . S
C158 C154 1.397 . S
C158 C157 1.394 . S
C159 H131 0.982 . S
C159 H135 0.979 . S
C159 H136 0.977 . S
C159 C156 1.453 . S
C160 H132 0.979 . S
C160 H133 0.980 . S
C160 H134 0.983 . S
C160 C156 1.684 . S
H161 C179 0.948 1_556 S
H162 C120 0.948 . S
H163 C138 0.979 . S
H164 C138 0.980 . S
H165 C138 0.983 . S
H166 C137 0.982 . S
H167 C137 0.979 . S
H168 C137 0.977 . S
H169 C139 0.948 . S
H170 C141 0.947 . S
H171 C142 0.948 . S
H172 C148 0.982 . S
H173 C148 0.979 . S
H174 C148 0.977 . S
H175 C149 0.979 . S
H176 C149 0.980 . S
H177 C149 0.983 . S
H178 C122 0.947 1_556 S
C179 C122 1.392 . S
C179 C123 1.419 . S
C179 H161 0.948 1_554 S
C180 C181 1.391 . S
C180 C184 1.391 . S
C180 H222 0.948 . S
C181 C180 1.391 . S
C181 C182 1.391 . S
C182 C181 1.391 . S
C182 H238 0.947 . S
C182 C239 1.392 . S
C183 C184 1.391 . S
C183 C187 1.397 . S
C183 C239 1.419 . S
C184 C180 1.391 . S
C184 C183 1.391 . S
C184 C185 1.399 . S
C185 C184 1.399 . S
C185 C188 1.396 . S
C185 C197 1.453 . S
C185 C198 1.684 . S
H186 C210 0.948 . S
C187 C183 1.397 . S
C187 C188 1.394 . S
C187 C206 1.723 . S
C188 C185 1.396 . S
C188 C187 1.394 . S
C188 C218 1.723 . S
H189 C212 0.947 . S
H190 C213 0.948 . S
H191 C219 0.982 . S
H192 C220 0.980 . S
H193 C220 0.980 . S
H194 C220 0.983 . S
H195 C219 0.979 1_556 S
H196 C219 0.977 1_556 S
C197 C185 1.453 . S
C197 H226 0.982 . S
C197 H227 0.979 . S
C197 H228 0.977 . S
C198 C185 1.684 . S
C198 H223 0.979 . S
C198 H224 0.980 . S
C198 H225 0.983 . S
C199 C200 1.391 1_554 S
C199 C204 1.391 . S
C199 H229 0.948 . S
C200 C199 1.391 1_556 S
C200 C201 1.391 . S
C201 C200 1.391 . S
C201 C202 1.392 . S
C201 H230 0.947 . S
C202 C201 1.392 . S
C202 C203 1.419 1_556 S
C202 H231 0.948 . S
C203 C202 1.419 1_554 S
C203 C204 1.391 . S
C203 C207 1.397 . S
C204 C199 1.391 . S
C204 C203 1.391 . S
C204 C205 1.399 . S
C205 C204 1.399 . S
C205 C206 1.396 . S
C205 C208 1.453 . S
C205 C209 1.684 . S
C206 C187 1.723 . S
C206 C205 1.396 . S
C206 C207 1.394 . S
C207 C203 1.397 . S
C207 C206 1.394 . S
C207 C217 1.723 . S
C208 C205 1.453 . S
C208 H232 0.982 . S
C208 H233 0.979 . S
C208 H234 0.977 . S
C209 C205 1.684 . S
C209 H235 0.979 . S
C209 H236 0.980 . S
C209 H237 0.983 . S
C210 H186 0.948 . S
C210 C211 1.391 . S
C210 C215 1.391 . S
C211 C210 1.391 . S
C211 C212 1.391 . S
C212 H189 0.947 . S
C212 C211 1.391 . S
C212 C213 1.392 . S
C213 H190 0.948 . S
C213 C212 1.392 . S
C213 C214 1.419 . S
C214 C213 1.419 . S
C214 C215 1.391 . S
C214 C218 1.397 . S
C215 C210 1.391 . S
C215 C214 1.391 . S
C215 C216 1.399 . S
C216 C215 1.399 . S
C216 C217 1.396 . S
C216 C219 1.453 . S
C216 C220 1.684 1_554 S
C217 C207 1.723 . S
C217 C216 1.396 . S
C217 C218 1.394 . S
C218 C188 1.723 . S
C218 C214 1.397 . S
C218 C217 1.394 . S
C219 H191 0.982 . S
C219 H195 0.979 1_554 S
C219 H196 0.977 1_554 S
C219 C216 1.453 . S
C220 H192 0.980 . S
C220 H193 0.980 . S
C220 H194 0.983 . S
C220 C216 1.684 1_556 S
H221 C239 0.948 . S
H222 C180 0.948 . S
H223 C198 0.979 . S
H224 C198 0.980 . S
H225 C198 0.983 . S
H226 C197 0.982 . S
H227 C197 0.979 . S
H228 C197 0.977 . S
H229 C199 0.948 . S
H230 C201 0.947 . S
H231 C202 0.948 . S
H232 C208 0.982 . S
H233 C208 0.979 . S
H234 C208 0.977 . S
H235 C209 0.979 . S
H236 C209 0.980 . S
H237 C209 0.983 . S
H238 C182 0.947 . S
C239 C182 1.392 . S
C239 C183 1.419 . S
C239 H221 0.948 . S
C240 C241 1.391 . S
C240 C244 1.391 . S
C240 H282 0.948 . S
C241 C240 1.391 . S
C241 C242 1.391 . S
C242 C241 1.391 . S
C242 H298 0.947 . S
C242 C299 1.392 . S
C243 C244 1.391 . S
C243 C247 1.397 . S
C243 C299 1.419 . S
C244 C240 1.391 . S
C244 C243 1.391 . S
C244 C245 1.399 . S
C245 C244 1.399 . S
C245 C248 1.396 . S
C245 C257 1.453 . S
C245 C258 1.684 . S
H246 C270 0.948 . S
C247 C243 1.397 . S
C247 C248 1.394 . S
C247 C266 1.723 . S
C248 C245 1.396 . S
C248 C247 1.394 . S
C248 C278 1.723 . S
H249 C272 0.947 . S
H250 C273 0.948 . S
H251 C279 0.982 . S
H252 C280 0.979 . S
H253 C280 0.980 . S
H254 C280 0.983 . S
H255 C279 0.979 . S
H256 C279 0.977 . S
C257 C245 1.453 . S
C257 H286 0.982 . S
C257 H287 0.979 . S
C257 H288 0.977 . S
C258 C245 1.684 . S
C258 H283 0.979 . S
C258 H284 0.980 . S
C258 H285 0.983 . S
C259 C260 1.391 . S
C259 C264 1.391 . S
C259 H289 0.948 . S
C260 C259 1.391 . S
C260 C261 1.391 . S
C261 C260 1.391 . S
C261 C262 1.392 . S
C261 H290 0.947 . S
C262 C261 1.392 . S
C262 C263 1.419 . S
C262 H291 0.948 . S
C263 C262 1.419 . S
C263 C264 1.391 . S
C263 C267 1.397 . S
C264 C259 1.391 . S
C264 C263 1.391 . S
C264 C265 1.399 . S
C265 C264 1.399 . S
C265 C266 1.396 . S
C265 C268 1.453 . S
C265 C269 1.684 . S
C266 C247 1.723 . S
C266 C265 1.396 . S
C266 C267 1.394 . S
C267 C263 1.397 . S
C267 C266 1.394 . S
C267 C277 1.723 . S
C268 C265 1.453 . S
C268 H292 0.982 . S
C268 H293 0.979 . S
C268 H294 0.977 . S
C269 C265 1.684 . S
C269 H295 0.979 . S
C269 H296 0.980 . S
C269 H297 0.983 . S
C270 H246 0.948 . S
C270 C271 1.391 . S
C270 C275 1.391 . S
C271 C270 1.391 . S
C271 C272 1.391 . S
C272 H249 0.947 . S
C272 C271 1.391 . S
C272 C273 1.392 . S
C273 H250 0.948 . S
C273 C272 1.392 . S
C273 C274 1.419 . S
C274 C273 1.419 . S
C274 C275 1.391 . S
C274 C278 1.397 . S
C275 C270 1.391 . S
C275 C274 1.391 . S
C275 C276 1.399 . S
C276 C275 1.399 . S
C276 C277 1.396 . S
C276 C279 1.453 . S
C276 C280 1.684 . S
C277 C267 1.723 . S
C277 C276 1.396 . S
C277 C278 1.394 . S
C278 C248 1.723 . S
C278 C274 1.397 . S
C278 C277 1.394 . S
C279 H251 0.982 . S
C279 H255 0.979 . S
C279 H256 0.977 . S
C279 C276 1.453 . S
C280 H252 0.979 . S
C280 H253 0.980 . S
C280 H254 0.983 . S
C280 C276 1.684 . S
H281 C299 0.948 . S
H282 C240 0.948 . S
H283 C258 0.979 . S
H284 C258 0.980 . S
H285 C258 0.983 . S
H286 C257 0.982 . S
H287 C257 0.979 . S
H288 C257 0.977 . S
H289 C259 0.948 . S
H290 C261 0.947 . S
H291 C262 0.948 . S
H292 C268 0.982 . S
H293 C268 0.979 . S
H294 C268 0.977 . S
H295 C269 0.979 . S
H296 C269 0.980 . S
H297 C269 0.983 . S
H298 C242 0.947 . S
C299 C242 1.392 . S
C299 C243 1.419 . S
C299 H281 0.948 . S
C300 C301 1.391 . S
C300 C304 1.391 . S
C300 H342 0.948 . S
C301 C300 1.391 . S
C301 C302 1.391 . S
C302 C301 1.391 . S
C302 H358 0.947 . S
C302 C359 1.392 . S
C303 C304 1.397 . S
C303 C307 1.392 1_655 S
C303 C359 1.427 . S
C304 C300 1.391 . S
C304 C303 1.397 . S
C304 C305 1.399 . S
C305 C304 1.399 . S
C305 C308 1.396 1_655 S
C305 C317 1.453 1_655 S
C305 C318 1.684 . S
H306 C330 0.948 . S
C307 C303 1.392 1_455 S
C307 C308 1.395 . S
C307 C326 1.723 . S
C308 C305 1.396 1_455 S
C308 C307 1.395 . S
C308 C338 1.723 . S
H309 C332 0.947 . S
H310 C333 0.948 . S
H311 C339 0.982 . S
H312 C340 0.979 . S
H313 C340 0.980 . S
H314 C340 0.983 . S
H315 C339 0.979 . S
H316 C339 0.977 . S
C317 C305 1.453 1_455 S
C317 H346 0.982 . S
C317 H347 0.979 . S
C317 H348 0.977 . S
C318 C305 1.684 . S
C318 H343 0.979 . S
C318 H344 0.980 . S
C318 H345 0.983 . S
C319 C320 1.391 . S
C319 C324 1.391 . S
C319 H349 0.948 . S
C320 C319 1.391 . S
C320 C321 1.391 . S
C321 C320 1.391 . S
C321 C322 1.392 . S
C321 H350 0.947 . S
C322 C321 1.392 . S
C322 C323 1.422 . S
C322 H351 0.948 . S
C323 C322 1.422 . S
C323 C324 1.401 . S
C323 C327 1.395 1_655 S
C324 C319 1.391 . S
C324 C323 1.401 . S
C324 C325 1.399 . S
C325 C324 1.399 . S
C325 C326 1.396 1_655 S
C325 C328 1.453 1_655 S
C325 C329 1.684 . S
C326 C307 1.723 . S
C326 C325 1.396 1_455 S
C326 C327 1.394 . S
C327 C323 1.395 1_455 S
C327 C326 1.394 . S
C327 C337 1.724 . S
C328 C325 1.453 1_455 S
C328 H352 0.982 . S
C328 H353 0.979 . S
C328 H354 0.977 . S
C329 C325 1.684 . S
C329 H355 0.979 . S
C329 H356 0.980 . S
C329 H357 0.983 . S
C330 H306 0.948 . S
C330 C331 1.391 . S
C330 C335 1.391 . S
C331 C330 1.391 . S
C331 C332 1.391 . S
C332 H309 0.947 . S
C332 C331 1.391 . S
C332 C333 1.392 . S
C333 H310 0.948 . S
C333 C332 1.392 . S
C333 C334 1.423 . S
C334 C333 1.423 . S
C334 C335 1.396 . S
C334 C338 1.398 1_655 S
C335 C330 1.391 . S
C335 C334 1.396 . S
C335 C336 1.399 . S
C336 C335 1.399 . S
C336 C337 1.396 1_655 S
C336 C339 1.453 1_655 S
C336 C340 1.684 . S
C337 C327 1.724 . S
C337 C336 1.396 1_455 S
C337 C338 1.395 . S
C338 C308 1.723 . S
C338 C334 1.398 1_455 S
C338 C337 1.395 . S
C339 H311 0.982 . S
C339 H315 0.979 . S
C339 H316 0.977 . S
C339 C336 1.453 1_455 S
C340 H312 0.979 . S
C340 H313 0.980 . S
C340 H314 0.983 . S
C340 C336 1.684 . S
H341 C359 0.948 . S
H342 C300 0.948 . S
H343 C318 0.979 . S
H344 C318 0.980 . S
H345 C318 0.983 . S
H346 C317 0.982 . S
H347 C317 0.979 . S
H348 C317 0.977 . S
H349 C319 0.948 . S
H350 C321 0.947 . S
H351 C322 0.948 . S
H352 C328 0.982 . S
H353 C328 0.979 . S
H354 C328 0.977 . S
H355 C329 0.979 . S
H356 C329 0.980 . S
H357 C329 0.983 . S
H358 C302 0.947 . S
C359 C302 1.392 . S
C359 C303 1.427 . S
C359 H341 0.948 . S
C360 C361 1.391 . S
C360 C364 1.391 . S
C360 H402 0.948 . S
C361 C360 1.391 . S
C361 C362 1.391 . S
C362 C361 1.391 . S
C362 H418 0.947 . S
C362 C419 1.392 . S
C363 C364 1.391 . S
C363 C367 1.397 . S
C363 C419 1.419 . S
C364 C360 1.391 . S
C364 C363 1.391 . S
C364 C365 1.399 . S
C365 C364 1.399 . S
C365 C368 1.396 . S
C365 C377 1.453 . S
C365 C378 1.684 . S
H366 C390 0.948 . S
C367 C363 1.397 . S
C367 C368 1.394 . S
C367 C386 1.723 . S
C368 C365 1.396 . S
C368 C367 1.394 . S
C368 C398 1.723 . S
H369 C392 0.947 . S
H370 C393 0.948 . S
H371 C399 0.982 . S
H372 C400 0.979 . S
H373 C400 0.980 . S
H374 C400 0.983 . S
H375 C399 0.979 . S
H376 C399 0.977 . S
C377 C365 1.453 . S
C377 H406 0.982 . S
C377 H407 0.979 . S
C377 H408 0.977 . S
C378 C365 1.684 . S
C378 H403 0.979 . S
C378 H404 0.980 . S
C378 H405 0.983 . S
C379 C380 1.391 . S
C379 C384 1.391 . S
C379 H409 0.948 . S
C380 C379 1.391 . S
C380 C381 1.391 . S
C381 C380 1.391 . S
C381 C382 1.392 . S
C381 H410 0.947 . S
C382 C381 1.392 . S
C382 C383 1.419 . S
C382 H411 0.948 . S
C383 C382 1.419 . S
C383 C384 1.391 . S
C383 C387 1.397 . S
C384 C379 1.391 . S
C384 C383 1.391 . S
C384 C385 1.399 . S
C385 C384 1.399 . S
C385 C386 1.396 . S
C385 C388 1.453 . S
C385 C389 1.684 . S
C386 C367 1.723 . S
C386 C385 1.396 . S
C386 C387 1.394 . S
C387 C383 1.397 . S
C387 C386 1.394 . S
C387 C397 1.723 . S
C388 C385 1.453 . S
C388 H412 0.982 . S
C388 H413 0.979 . S
C388 H414 0.977 . S
C389 C385 1.684 . S
C389 H415 0.979 . S
C389 H416 0.980 . S
C389 H417 0.983 . S
C390 H366 0.948 . S
C390 C391 1.391 . S
C390 C395 1.391 . S
C391 C390 1.391 . S
C391 C392 1.391 . S
C392 H369 0.947 . S
C392 C391 1.391 . S
C392 C393 1.392 . S
C393 H370 0.948 . S
C393 C392 1.392 . S
C393 C394 1.419 . S
C394 C393 1.419 . S
C394 C395 1.391 . S
C394 C398 1.397 . S
C395 C390 1.391 . S
C395 C394 1.391 . S
C395 C396 1.399 . S
C396 C395 1.399 . S
C396 C397 1.396 . S
C396 C399 1.453 . S
C396 C400 1.684 . S
C397 C387 1.723 . S
C397 C396 1.396 . S
C397 C398 1.394 . S
C398 C368 1.723 . S
C398 C394 1.397 . S
C398 C397 1.394 . S
C399 H371 0.982 . S
C399 H375 0.979 . S
C399 H376 0.977 . S
C399 C396 1.453 . S
C400 H372 0.979 . S
C400 H373 0.980 . S
C400 H374 0.983 . S
C400 C396 1.684 . S
H401 C419 0.948 . S
H402 C360 0.948 . S
H403 C378 0.979 . S
H404 C378 0.980 . S
H405 C378 0.983 . S
H406 C377 0.982 . S
H407 C377 0.979 . S
H408 C377 0.977 . S
H409 C379 0.948 . S
H410 C381 0.947 . S
H411 C382 0.948 . S
H412 C388 0.982 . S
H413 C388 0.979 . S
H414 C388 0.977 . S
H415 C389 0.979 . S
H416 C389 0.980 . S
H417 C389 0.983 . S
H418 C362 0.947 . S
C419 C362 1.392 . S
C419 C363 1.419 . S
C419 H401 0.948 . S
C420 C421 1.391 . S
C420 C424 1.391 . S
C420 H462 0.948 . S
C421 C420 1.391 . S
C421 C422 1.391 . S
C422 C421 1.391 . S
C422 H478 0.947 . S
C422 C479 1.392 . S
C423 C424 1.391 . S
C423 C427 1.397 . S
C423 C479 1.419 . S
C424 C420 1.391 . S
C424 C423 1.391 . S
C424 C425 1.399 . S
C425 C424 1.399 . S
C425 C428 1.396 . S
C425 C437 1.453 . S
C425 C438 1.684 . S
H426 C450 0.948 . S
C427 C423 1.397 . S
C427 C428 1.394 . S
C427 C446 1.723 . S
C428 C425 1.396 . S
C428 C427 1.394 . S
C428 C458 1.723 . S
H429 C452 0.947 . S
H430 C453 0.948 . S
H431 C459 0.982 . S
H432 C460 0.979 . S
H433 C460 0.980 . S
H434 C460 0.983 . S
H435 C459 0.979 . S
H436 C459 0.977 . S
C437 C425 1.453 . S
C437 H466 0.982 . S
C437 H467 0.979 . S
C437 H468 0.977 . S
C438 C425 1.684 . S
C438 H463 0.979 . S
C438 H464 0.980 . S
C438 H465 0.983 . S
C439 C440 1.391 . S
C439 C444 1.391 . S
C439 H469 0.948 . S
C440 C439 1.391 . S
C440 C441 1.391 . S
C441 C440 1.391 . S
C441 C442 1.392 . S
C441 H470 0.947 . S
C442 C441 1.392 . S
C442 C443 1.419 . S
C442 H471 0.948 . S
C443 C442 1.419 . S
C443 C444 1.391 . S
C443 C447 1.397 . S
C444 C439 1.391 . S
C444 C443 1.391 . S
C444 C445 1.399 . S
C445 C444 1.399 . S
C445 C446 1.396 . S
C445 C448 1.453 . S
C445 C449 1.684 . S
C446 C427 1.723 . S
C446 C445 1.396 . S
C446 C447 1.394 . S
C447 C443 1.397 . S
C447 C446 1.394 . S
C447 C457 1.723 . S
C448 C445 1.453 . S
C448 H472 0.982 . S
C448 H473 0.979 . S
C448 H474 0.977 . S
C449 C445 1.684 . S
C449 H475 0.979 . S
C449 H476 0.980 . S
C449 H477 0.983 . S
C450 H426 0.948 . S
C450 C451 1.391 . S
C450 C455 1.391 . S
C451 C450 1.391 . S
C451 C452 1.391 . S
C452 H429 0.947 . S
C452 C451 1.391 . S
C452 C453 1.392 . S
C453 H430 0.948 . S
C453 C452 1.392 . S
C453 C454 1.419 . S
C454 C453 1.419 . S
C454 C455 1.391 . S
C454 C458 1.397 . S
C455 C450 1.391 . S
C455 C454 1.391 . S
C455 C456 1.399 . S
C456 C455 1.399 . S
C456 C457 1.396 . S
C456 C459 1.453 . S
C456 C460 1.684 . S
C457 C447 1.723 . S
C457 C456 1.396 . S
C457 C458 1.394 . S
C458 C428 1.723 . S
C458 C454 1.397 . S
C458 C457 1.394 . S
C459 H431 0.982 . S
C459 H435 0.979 . S
C459 H436 0.977 . S
C459 C456 1.453 . S
C460 H432 0.979 . S
C460 H433 0.980 . S
C460 H434 0.983 . S
C460 C456 1.684 . S
H461 C479 0.948 . S
H462 C420 0.948 . S
H463 C438 0.979 . S
H464 C438 0.980 . S
H465 C438 0.983 . S
H466 C437 0.982 . S
H467 C437 0.979 . S
H468 C437 0.977 . S
H469 C439 0.948 . S
H470 C441 0.947 . S
H471 C442 0.948 . S
H472 C448 0.982 . S
H473 C448 0.979 . S
H474 C448 0.977 . S
H475 C449 0.979 . S
H476 C449 0.980 . S
H477 C449 0.983 . S
H478 C422 0.947 . S
C479 C422 1.392 . S
C479 C423 1.419 . S
C479 H461 0.948 . S
Co480 N485 2.057 . S
Co480 O497 2.021 . S
Co480 O500 2.062 1_455 S
Co480 O504 2.117 1_455 S
Co480 O505 2.020 1_545 S
C481 O501 1.259 1_545 S
C481 O504 1.258 . S
Co482 N491 2.057 . S
Co482 O498 2.117 1_665 S
Co482 O499 2.020 1_565 S
Co482 O501 2.021 . S
Co482 O506 2.062 1_655 S
C483 N485 1.316 . S
C483 N486 1.347 . S
C483 H488 0.931 . S
C484 N485 1.375 1_655 S
C484 C487 1.350 . S
C484 H489 0.930 . S
N485 Co480 2.057 . S
N485 C483 1.316 . S
N485 C484 1.375 1_455 S
N486 C483 1.347 . S
N486 C487 1.373 1_455 S
C487 C484 1.350 . S
C487 N486 1.373 1_655 S
C487 H508 0.931 . S
H488 C483 0.931 . S
H489 C484 0.930 . S
C490 O497 1.259 . S
C490 O498 1.258 . S
N491 Co482 2.057 . S
N491 C492 1.316 . S
N491 C493 1.375 1_655 S
C492 N491 1.316 . S
C492 N494 1.347 . S
C492 H503 0.931 . S
C493 N491 1.375 1_455 S
C493 C495 1.350 . S
C493 H502 0.930 . S
N494 C492 1.347 . S
N494 C495 1.373 1_655 S
C495 C493 1.350 . S
C495 N494 1.373 1_455 S
C495 H509 0.931 . S
C496 O499 1.256 . S
C496 O500 1.255 . S
O497 Co480 2.021 . S
O497 C490 1.259 . S
O498 Co482 2.117 1_445 S
O498 C490 1.258 . S
O499 Co482 2.020 1_545 S
O499 C496 1.256 . S
O500 Co480 2.062 1_655 S
O500 C496 1.255 . S
O501 C481 1.259 1_565 S
O501 Co482 2.021 . S
H502 C493 0.930 . S
H503 C492 0.931 . S
O504 Co480 2.117 1_655 S
O504 C481 1.258 . S
O505 Co480 2.020 1_565 S
O505 C507 1.256 . S
O506 Co482 2.062 1_455 S
O506 C507 1.255 . S
C507 O505 1.256 . S
C507 O506 1.255 . S
H508 C487 0.931 . S
H509 C495 0.931 . S
Co510 N515 2.057 . S
Co510 O527 2.021 . S
Co510 O530 2.062 . S
Co510 O534 2.117 1_545 S
Co510 O535 2.020 . S
C511 O531 1.259 . S
C511 O534 1.258 . S
Co512 N521 2.057 1_545 S
Co512 O528 2.116 . S
Co512 O529 2.020 . S
Co512 O531 2.021 1_545 S
Co512 O536 2.062 1_545 S
C513 N515 1.316 . S
C513 N516 1.347 . S
C513 H518 0.931 . S
C514 N515 1.375 . S
C514 C517 1.350 . S
C514 H519 0.930 1_545 S
N515 Co510 2.057 . S
N515 C513 1.316 . S
N515 C514 1.375 . S
N516 C513 1.347 . S
N516 C517 1.373 . S
C517 C514 1.350 . S
C517 N516 1.373 . S
C517 H538 0.931 . S
H518 C513 0.931 . S
H519 C514 0.930 1_565 S
C520 O527 1.259 . S
C520 O528 1.258 . S
N521 Co512 2.057 1_565 S
N521 C522 1.316 . S
N521 C523 1.375 1_565 S
C522 N521 1.316 . S
C522 N524 1.347 . S
C522 H533 0.931 . S
C523 N521 1.375 1_545 S
C523 C525 1.350 . S
C523 H532 0.930 . S
N524 C522 1.347 . S
N524 C525 1.373 1_565 S
C525 C523 1.350 . S
C525 N524 1.373 1_545 S
C525 H539 0.931 . S
C526 O529 1.256 . S
C526 O530 1.255 . S
O527 Co510 2.021 . S
O527 C520 1.259 . S
O528 Co512 2.116 . S
O528 C520 1.258 . S
O529 Co512 2.020 . S
O529 C526 1.256 . S
O530 Co510 2.062 . S
O530 C526 1.255 . S
O531 C511 1.259 . S
O531 Co512 2.021 1_565 S
H532 C523 0.930 . S
H533 C522 0.931 . S
O534 Co510 2.117 1_565 S
O534 C511 1.258 . S
O535 Co510 2.020 . S
O535 C537 1.256 . S
O536 Co512 2.062 1_565 S
O536 C537 1.255 1_565 S
C537 O535 1.256 . S
C537 O536 1.255 1_545 S
H538 C517 0.931 . S
H539 C525 0.931 . S
Co540 N545 2.057 . S
Co540 O557 2.021 . S
Co540 O560 2.062 . S
Co540 O564 2.117 . S
Co540 O565 2.020 . S
C541 O561 1.259 . S
C541 O564 1.258 . S
Co542 N551 2.057 . S
Co542 O558 2.117 . S
Co542 O559 2.020 . S
Co542 O561 2.021 . S
Co542 O566 2.062 . S
C543 N545 1.316 . S
C543 N546 1.347 . S
C543 H548 0.931 . S
C544 N545 1.375 . S
C544 C547 1.350 . S
C544 H549 0.930 . S
N545 Co540 2.057 . S
N545 C543 1.316 . S
N545 C544 1.375 . S
N546 C543 1.347 . S
N546 C547 1.373 . S
C547 C544 1.350 . S
C547 N546 1.373 . S
C547 H568 0.931 . S
H548 C543 0.931 . S
H549 C544 0.930 . S
C550 O557 1.259 . S
C550 O558 1.258 . S
N551 Co542 2.057 . S
N551 C552 1.316 . S
N551 C553 1.375 . S
C552 N551 1.316 . S
C552 N554 1.347 . S
C552 H563 0.931 . S
C553 N551 1.375 . S
C553 C555 1.350 . S
C553 H562 0.930 . S
N554 C552 1.347 . S
N554 C555 1.373 . S
C555 C553 1.350 . S
C555 N554 1.373 . S
C555 H569 0.931 . S
C556 O559 1.256 . S
C556 O560 1.255 . S
O557 Co540 2.021 . S
O557 C550 1.259 . S
O558 Co542 2.117 . S
O558 C550 1.258 . S
O559 Co542 2.020 . S
O559 C556 1.256 . S
O560 Co540 2.062 . S
O560 C556 1.255 . S
O561 C541 1.259 . S
O561 Co542 2.021 . S
H562 C553 0.930 . S
H563 C552 0.931 . S
O564 Co540 2.117 . S
O564 C541 1.258 . S
O565 Co540 2.020 . S
O565 C567 1.256 . S
O566 Co542 2.062 . S
O566 C567 1.255 . S
C567 O565 1.256 . S
C567 O566 1.255 . S
H568 C547 0.931 . S
H569 C555 0.931 . S
Co570 N575 2.057 . S
Co570 O587 2.021 1_455 S
Co570 O590 2.062 1_455 S
Co570 O594 2.117 . S
Co570 O595 2.020 . S
C571 O591 1.259 . S
C571 O594 1.258 . S
Co572 N581 2.057 . S
Co572 O588 2.117 . S
Co572 O589 2.020 . S
Co572 O591 2.021 1_655 S
Co572 O596 2.062 1_655 S
C573 N575 1.316 . S
C573 N576 1.347 . S
C573 H578 0.931 1_455 S
C574 N575 1.375 . S
C574 C577 1.350 . S
C574 H579 0.930 . S
N575 Co570 2.057 . S
N575 C573 1.316 . S
N575 C574 1.375 . S
N576 C573 1.347 . S
N576 C577 1.373 . S
C577 C574 1.350 . S
C577 N576 1.373 . S
C577 H598 0.931 . S
H578 C573 0.931 1_655 S
H579 C574 0.930 . S
C580 O587 1.259 . S
C580 O588 1.258 . S
N581 Co572 2.057 . S
N581 C582 1.316 . S
N581 C583 1.375 . S
C582 N581 1.316 . S
C582 N584 1.347 . S
C582 H593 0.931 1_655 S
C583 N581 1.375 . S
C583 C585 1.350 . S
C583 H592 0.930 . S
N584 C582 1.347 . S
N584 C585 1.373 . S
C585 C583 1.350 . S
C585 N584 1.373 . S
C585 H599 0.931 . S
C586 O589 1.256 . S
C586 O590 1.255 . S
O587 Co570 2.021 1_655 S
O587 C580 1.259 . S
O588 Co572 2.117 . S
O588 C580 1.258 . S
O589 Co572 2.020 . S
O589 C586 1.256 . S
O590 Co570 2.062 1_655 S
O590 C586 1.255 . S
O591 C571 1.259 . S
O591 Co572 2.021 1_455 S
H592 C583 0.930 . S
H593 C582 0.931 1_455 S
O594 Co570 2.117 . S
O594 C571 1.258 . S
O595 Co570 2.020 . S
O595 C597 1.256 . S
O596 Co572 2.062 1_455 S
O596 C597 1.255 . S
C597 O595 1.256 . S
C597 O596 1.255 . S
H598 C577 0.931 . S
H599 C585 0.931 . S
H600 C618 0.951 . S
H601 C620 0.951 . S
H602 C622 0.950 . S
H603 C623 0.950 . S
H604 C625 0.950 . S
H605 C628 0.950 . S
H606 C629 0.950 . S
H607 C631 0.950 . S
H608 C632 0.950 . S
H609 C633 0.951 . S
H610 C635 0.951 . S
H611 C637 0.950 . S
H612 C638 0.950 . S
H613 C640 0.950 . S
H614 C643 0.950 . S
H615 C644 0.950 . S
H616 C646 0.950 . S
H617 C647 0.950 . S
C618 H600 0.951 . S
C618 C619 1.366 . S
C618 C620 1.388 . S
C619 C618 1.366 . S
C619 C623 1.385 . S
C620 H601 0.951 . S
C620 C618 1.388 . S
C620 C621 1.366 . S
C621 C620 1.366 . S
C621 C622 1.414 . S
C621 C624 1.499 . S
C622 H602 0.950 . S
C622 C621 1.414 . S
C622 C623 1.374 . S
C623 H603 0.950 . S
C623 C619 1.385 . S
C623 C622 1.374 . S
C624 C621 1.499 . S
C624 C625 1.373 . S
C624 C626 1.389 . S
C625 H604 0.950 . S
C625 C624 1.373 . S
C625 C641 1.377 . S
C626 C624 1.389 . S
C626 C627 1.524 . S
C626 C640 1.377 . S
C627 C626 1.524 . S
C627 C628 1.397 . S
C627 C632 1.363 . S
C628 H605 0.950 . S
C628 C627 1.397 . S
C628 C629 1.334 . S
C629 H606 0.950 . S
C629 C628 1.334 . S
C629 C630 1.302 . S
C630 C629 1.302 . S
C630 C631 1.543 . S
C630 H649 0.883 1_545 S
C631 H607 0.950 . S
C631 C630 1.543 . S
C631 C632 1.415 . S
C632 H608 0.950 . S
C632 C627 1.363 . S
C632 C631 1.415 . S
C633 H609 0.951 . S
C633 C634 1.366 . S
C633 C635 1.388 . S
C634 C633 1.366 . S
C634 C638 1.385 . S
C635 H610 0.951 . S
C635 C633 1.388 . S
C635 C636 1.366 . S
C636 C635 1.366 . S
C636 C637 1.414 . S
C636 C639 1.499 . S
C637 H611 0.950 . S
C637 C636 1.414 . S
C637 C638 1.374 . S
C638 H612 0.950 . S
C638 C634 1.385 . S
C638 C637 1.374 . S
C639 C636 1.499 . S
C639 C640 1.373 . S
C639 C641 1.389 . S
C640 H613 0.950 . S
C640 C626 1.377 . S
C640 C639 1.373 . S
C641 C625 1.377 . S
C641 C639 1.389 . S
C641 C642 1.524 . S
C642 C641 1.524 . S
C642 C643 1.397 . S
C642 C647 1.363 . S
C643 H614 0.950 . S
C643 C642 1.397 . S
C643 C644 1.334 . S
C644 H615 0.950 . S
C644 C643 1.334 . S
C644 C645 1.287 . S
C645 C644 1.287 . S
C645 C646 1.524 . S
C645 H648 0.999 . S
C646 H616 0.950 . S
C646 C645 1.524 . S
C646 C647 1.415 . S
C647 H617 0.950 . S
C647 C642 1.363 . S
C647 C646 1.415 . S
H648 C645 0.999 . S
H649 C630 0.883 1_565 S
H650 C668 0.951 . S
H651 C670 0.951 . S
H652 C672 0.950 . S
H653 C673 0.950 . S
H654 C675 0.950 . S
H655 C678 0.950 . S
H656 C679 0.950 . S
H657 C681 0.950 . S
H658 C682 0.950 . S
H659 C683 0.951 . S
H660 C685 0.951 . S
H661 C687 0.950 . S
H662 C688 0.950 . S
H663 C690 0.950 . S
H664 C693 0.950 . S
H665 C694 0.950 . S
H666 C696 0.950 . S
H667 C697 0.950 . S
C668 H650 0.951 . S
C668 C669 1.366 . S
C668 C670 1.388 . S
C669 C668 1.366 . S
C669 C673 1.385 . S
C670 H651 0.951 . S
C670 C668 1.388 . S
C670 C671 1.366 . S
C671 C670 1.366 . S
C671 C672 1.414 . S
C671 C674 1.499 . S
C672 H652 0.950 . S
C672 C671 1.414 . S
C672 C673 1.374 . S
C673 H653 0.950 . S
C673 C669 1.385 . S
C673 C672 1.374 . S
C674 C671 1.499 . S
C674 C675 1.373 . S
C674 C676 1.389 . S
C675 H654 0.950 . S
C675 C674 1.373 . S
C675 C691 1.377 . S
C676 C674 1.389 . S
C676 C677 1.524 . S
C676 C690 1.377 . S
C677 C676 1.524 . S
C677 C678 1.397 . S
C677 C682 1.363 . S
C678 H655 0.950 . S
C678 C677 1.397 . S
C678 C679 1.334 . S
C679 H656 0.950 . S
C679 C678 1.334 . S
C679 C680 1.287 . S
C680 C679 1.287 . S
C680 C681 1.524 . S
C680 H699 0.913 . S
C681 H657 0.950 . S
C681 C680 1.524 . S
C681 C682 1.415 . S
C682 H658 0.950 . S
C682 C677 1.363 . S
C682 C681 1.415 . S
C683 H659 0.951 . S
C683 C684 1.366 . S
C683 C685 1.388 . S
C684 C683 1.366 . S
C684 C688 1.385 . S
C685 H660 0.951 . S
C685 C683 1.388 . S
C685 C686 1.366 . S
C686 C685 1.366 . S
C686 C687 1.414 . S
C686 C689 1.499 . S
C687 H661 0.950 . S
C687 C686 1.414 . S
C687 C688 1.374 . S
C688 H662 0.950 . S
C688 C684 1.385 . S
C688 C687 1.374 . S
C689 C686 1.499 . S
C689 C690 1.373 . S
C689 C691 1.389 . S
C690 H663 0.950 . S
C690 C676 1.377 . S
C690 C689 1.373 . S
C691 C675 1.377 . S
C691 C689 1.389 . S
C691 C692 1.524 . S
C692 C691 1.524 . S
C692 C693 1.397 . S
C692 C697 1.363 . S
C693 H664 0.950 . S
C693 C692 1.397 . S
C693 C694 1.334 . S
C694 H665 0.950 . S
C694 C693 1.334 . S
C694 C695 1.287 . S
C695 C694 1.287 . S
C695 C696 1.524 . S
C695 H698 0.999 . S
C696 H666 0.950 . S
C696 C695 1.524 . S
C696 C697 1.415 . S
C697 H667 0.950 . S
C697 C692 1.363 . S
C697 C696 1.415 . S
H698 C695 0.999 . S
H699 C680 0.913 . S
H700 C718 0.951 . S
H701 C720 0.951 . S
H702 C722 0.950 . S
H703 C723 0.950 . S
H704 C725 0.950 . S
H705 C728 0.950 . S
H706 C729 0.950 . S
H707 C731 0.950 . S
H708 C732 0.950 . S
H709 C733 0.951 . S
H710 C735 0.951 . S
H711 C737 0.950 . S
H712 C738 0.950 . S
H713 C740 0.950 . S
H714 C743 0.950 . S
H715 C744 0.950 . S
H716 C746 0.950 . S
H717 C747 0.950 . S
C718 H700 0.951 . S
C718 C719 1.366 . S
C718 C720 1.388 . S
C719 C718 1.366 . S
C719 C723 1.385 . S
C720 H701 0.951 . S
C720 C718 1.388 . S
C720 C721 1.366 . S
C721 C720 1.366 . S
C721 C722 1.414 . S
C721 C724 1.499 . S
C722 H702 0.950 . S
C722 C721 1.414 . S
C722 C723 1.374 . S
C723 H703 0.950 . S
C723 C719 1.385 . S
C723 C722 1.374 . S
C724 C721 1.499 . S
C724 C725 1.373 . S
C724 C726 1.389 . S
C725 H704 0.950 . S
C725 C724 1.373 . S
C725 C741 1.377 . S
C726 C724 1.389 . S
C726 C727 1.524 . S
C726 C740 1.377 . S
C727 C726 1.524 . S
C727 C728 1.397 . S
C727 C732 1.363 . S
C728 H705 0.950 . S
C728 C727 1.397 . S
C728 C729 1.334 . S
C729 H706 0.950 . S
C729 C728 1.334 . S
C729 C730 1.287 . S
C730 C729 1.287 . S
C730 C731 1.524 . S
C730 H749 0.913 . S
C731 H707 0.950 . S
C731 C730 1.524 . S
C731 C732 1.415 . S
C732 H708 0.950 . S
C732 C727 1.363 . S
C732 C731 1.415 . S
C733 H709 0.951 . S
C733 C734 1.366 . S
C733 C735 1.388 . S
C734 C733 1.366 . S
C734 C738 1.385 . S
C735 H710 0.951 . S
C735 C733 1.388 . S
C735 C736 1.366 . S
C736 C735 1.366 . S
C736 C737 1.414 . S
C736 C739 1.499 . S
C737 H711 0.950 . S
C737 C736 1.414 . S
C737 C738 1.374 . S
C738 H712 0.950 . S
C738 C734 1.385 . S
C738 C737 1.374 . S
C739 C736 1.499 . S
C739 C740 1.373 . S
C739 C741 1.389 . S
C740 H713 0.950 . S
C740 C726 1.377 . S
C740 C739 1.373 . S
C741 C725 1.377 . S
C741 C739 1.389 . S
C741 C742 1.524 . S
C742 C741 1.524 . S
C742 C743 1.397 . S
C742 C747 1.363 . S
C743 H714 0.950 . S
C743 C742 1.397 . S
C743 C744 1.334 . S
C744 H715 0.950 . S
C744 C743 1.334 . S
C744 C745 1.287 . S
C745 C744 1.287 . S
C745 C746 1.524 . S
C745 H748 0.999 . S
C746 H716 0.950 . S
C746 C745 1.524 . S
C746 C747 1.415 . S
C747 H717 0.950 . S
C747 C742 1.363 . S
C747 C746 1.415 . S
H748 C745 0.999 . S
H749 C730 0.913 . S
H750 C768 0.954 . S
H751 C770 0.951 . S
H752 C772 0.950 . S
H753 C773 0.951 . S
H754 C775 0.950 . S
H755 C778 0.950 . S
H756 C779 0.950 . S
H757 C781 0.950 . S
H758 C782 0.950 . S
H759 C783 0.951 . S
H760 C785 0.951 . S
H761 C787 0.950 . S
H762 C788 0.950 . S
H763 C790 0.950 . S
H764 C793 0.950 . S
H765 C794 0.950 . S
H766 C796 0.950 . S
H767 C797 0.950 . S
C768 H750 0.954 . S
C768 C769 1.365 . S
C768 C770 1.388 . S
C769 C768 1.365 . S
C769 C773 1.384 . S
C770 H751 0.951 . S
C770 C768 1.388 . S
C770 C771 1.366 . S
C771 C770 1.366 . S
C771 C772 1.414 . S
C771 C774 1.499 . S
C772 H752 0.950 . S
C772 C771 1.414 . S
C772 C773 1.375 . S
C773 H753 0.951 . S
C773 C769 1.384 . S
C773 C772 1.375 . S
C774 C771 1.499 . S
C774 C775 1.373 . S
C774 C776 1.389 1_655 S
C775 H754 0.950 . S
C775 C774 1.373 . S
C775 C791 1.377 . S
C776 C774 1.389 1_455 S
C776 C777 1.524 . S
C776 C790 1.377 . S
C777 C776 1.524 . S
C777 C778 1.397 . S
C777 C782 1.363 . S
C778 H755 0.950 . S
C778 C777 1.397 . S
C778 C779 1.334 . S
C779 H756 0.950 . S
C779 C778 1.334 . S
C779 C780 1.287 . S
C780 C779 1.287 . S
C780 C781 1.524 . S
C780 H799 0.913 . S
C781 H757 0.950 . S
C781 C780 1.524 . S
C781 C782 1.415 . S
C782 H758 0.950 . S
C782 C777 1.363 . S
C782 C781 1.415 . S
C783 H759 0.951 . S
C783 C784 1.366 . S
C783 C785 1.388 . S
C784 C783 1.366 . S
C784 C788 1.385 . S
C785 H760 0.951 . S
C785 C783 1.388 . S
C785 C786 1.366 . S
C786 C785 1.366 . S
C786 C787 1.414 . S
C786 C789 1.499 . S
C787 H761 0.950 . S
C787 C786 1.414 . S
C787 C788 1.374 . S
C788 H762 0.950 . S
C788 C784 1.385 . S
C788 C787 1.374 . S
C789 C786 1.499 . S
C789 C790 1.373 1_655 S
C789 C791 1.389 . S
C790 H763 0.950 . S
C790 C776 1.377 . S
C790 C789 1.373 1_455 S
C791 C775 1.377 . S
C791 C789 1.389 . S
C791 C792 1.524 . S
C792 C791 1.524 . S
C792 C793 1.397 . S
C792 C797 1.363 . S
C793 H764 0.950 . S
C793 C792 1.397 . S
C793 C794 1.334 . S
C794 H765 0.950 . S
C794 C793 1.334 . S
C794 C795 1.287 . S
C795 C794 1.287 . S
C795 C796 1.524 . S
C795 H798 0.999 . S
C796 H766 0.950 . S
C796 C795 1.524 . S
C796 C797 1.415 . S
C797 H767 0.950 . S
C797 C792 1.363 . S
C797 C796 1.415 . S
H798 C795 0.999 . S
H799 C780 0.913 . S
H800 C818 0.951 . S
H801 C820 0.951 . S
H802 C822 0.950 . S
H803 C823 0.950 . S
H804 C825 0.950 . S
H805 C828 0.950 . S
H806 C829 0.949 1_565 S
H807 C831 0.950 . S
H808 C832 0.950 . S
H809 C833 0.951 . S
H810 C835 0.951 . S
H811 C837 0.950 1_545 S
H812 C838 0.950 . S
H813 C840 0.950 . S
H814 C843 0.950 . S
H815 C844 0.950 . S
H816 C846 0.950 . S
H817 C847 0.950 . S
C818 H800 0.951 . S
C818 C819 1.366 . S
C818 C820 1.388 . S
C819 C818 1.366 . S
C819 C823 1.385 1_554 S
C820 H801 0.951 . S
C820 C818 1.388 . S
C820 C821 1.366 1_554 S
C821 C820 1.366 1_556 S
C821 C822 1.414 . S
C821 C824 1.499 . S
C822 H802 0.950 . S
C822 C821 1.414 . S
C822 C823 1.374 . S
C823 H803 0.950 . S
C823 C819 1.385 1_556 S
C823 C822 1.374 . S
C824 C821 1.499 . S
C824 C825 1.373 . S
C824 C826 1.389 . S
C825 H804 0.950 . S
C825 C824 1.373 . S
C825 C841 1.377 . S
C826 C824 1.389 . S
C826 C827 1.524 . S
C826 C840 1.377 . S
C827 C826 1.524 . S
C827 C828 1.397 . S
C827 C832 1.363 1_565 S
C828 H805 0.950 . S
C828 C827 1.397 . S
C828 C829 1.332 1_565 S
C829 H806 0.949 1_545 S
C829 C828 1.332 1_545 S
C829 C830 1.290 . S
C830 C829 1.290 . S
C830 C831 1.524 . S
C830 H849 0.913 . S
C831 H807 0.950 . S
C831 C830 1.524 . S
C831 C832 1.415 . S
C832 H808 0.950 . S
C832 C827 1.363 1_545 S
C832 C831 1.415 . S
C833 H809 0.951 . S
C833 C834 1.366 . S
C833 C835 1.388 . S
C834 C833 1.366 . S
C834 C838 1.385 1_565 S
C835 H810 0.951 . S
C835 C833 1.388 . S
C835 C836 1.366 . S
C836 C835 1.366 . S
C836 C837 1.414 . S
C836 C839 1.499 . S
C837 H811 0.950 1_565 S
C837 C836 1.414 . S
C837 C838 1.374 1_565 S
C838 H812 0.950 . S
C838 C834 1.385 1_545 S
C838 C837 1.374 1_545 S
C839 C836 1.499 . S
C839 C840 1.373 . S
C839 C841 1.389 . S
C840 H813 0.950 . S
C840 C826 1.377 . S
C840 C839 1.373 . S
C841 C825 1.377 . S
C841 C839 1.389 . S
C841 C842 1.524 . S
C842 C841 1.524 . S
C842 C843 1.397 . S
C842 C847 1.363 . S
C843 H814 0.950 . S
C843 C842 1.397 . S
C843 C844 1.334 . S
C844 H815 0.950 . S
C844 C843 1.334 . S
C844 C845 1.287 . S
C845 C844 1.287 . S
C845 C846 1.524 . S
C845 H848 0.999 . S
C846 H816 0.950 . S
C846 C845 1.524 . S
C846 C847 1.415 . S
C847 H817 0.950 . S
C847 C842 1.363 . S
C847 C846 1.415 . S
H848 C845 0.999 . S
H849 C830 0.913 . S
H850 C868 0.951 . S
H851 C870 0.951 . S
H852 C872 0.950 . S
H853 C873 0.950 . S
H854 C875 0.950 1_554 S
H855 C878 0.950 . S
H856 C879 0.950 . S
H857 C881 0.950 . S
H858 C882 0.950 . S
H859 C883 0.951 . S
H860 C885 0.951 . S
H861 C887 0.950 . S
H862 C888 0.950 . S
H863 C890 0.950 . S
H864 C893 0.950 . S
H865 C894 0.950 . S
H866 C896 0.950 . S
H867 C897 0.950 . S
C868 H850 0.951 . S
C868 C869 1.366 1_556 S
C868 C870 1.388 . S
C869 C868 1.366 1_554 S
C869 C873 1.385 . S
C870 H851 0.951 . S
C870 C868 1.388 . S
C870 C871 1.366 . S
C871 C870 1.366 . S
C871 C872 1.414 1_556 S
C871 C874 1.499 . S
C872 H852 0.950 . S
C872 C871 1.414 1_554 S
C872 C873 1.374 . S
C873 H853 0.950 . S
C873 C869 1.385 . S
C873 C872 1.374 . S
C874 C871 1.499 . S
C874 C875 1.373 . S
C874 C876 1.389 . S
C875 H854 0.950 1_556 S
C875 C874 1.373 . S
C875 C891 1.377 . S
C876 C874 1.389 . S
C876 C877 1.524 . S
C876 C890 1.377 . S
C877 C876 1.524 . S
C877 C878 1.397 . S
C877 C882 1.363 . S
C878 H855 0.950 . S
C878 C877 1.397 . S
C878 C879 1.334 . S
C879 H856 0.950 . S
C879 C878 1.334 . S
C879 C880 1.287 . S
C880 C879 1.287 . S
C880 C881 1.524 . S
C880 H899 0.913 . S
C881 H857 0.950 . S
C881 C880 1.524 . S
C881 C882 1.415 . S
C882 H858 0.950 . S
C882 C877 1.363 . S
C882 C881 1.415 . S
C883 H859 0.951 . S
C883 C884 1.366 . S
C883 C885 1.388 . S
C884 C883 1.366 . S
C884 C888 1.385 . S
C885 H860 0.951 . S
C885 C883 1.388 . S
C885 C886 1.366 . S
C886 C885 1.366 . S
C886 C887 1.414 . S
C886 C889 1.499 . S
C887 H861 0.950 . S
C887 C886 1.414 . S
C887 C888 1.374 . S
C888 H862 0.950 . S
C888 C884 1.385 . S
C888 C887 1.374 . S
C889 C886 1.499 . S
C889 C890 1.373 . S
C889 C891 1.389 . S
C890 H863 0.950 . S
C890 C876 1.377 . S
C890 C889 1.373 . S
C891 C875 1.377 . S
C891 C889 1.389 . S
C891 C892 1.524 . S
C892 C891 1.524 . S
C892 C893 1.397 . S
C892 C897 1.363 1_556 S
C893 H864 0.950 . S
C893 C892 1.397 . S
C893 C894 1.334 . S
C894 H865 0.950 . S
C894 C893 1.334 . S
C894 C895 1.287 1_556 S
C895 C894 1.287 1_554 S
C895 C896 1.524 . S
C895 H898 0.999 . S
C896 H866 0.950 . S
C896 C895 1.524 . S
C896 C897 1.415 . S
C897 H867 0.950 . S
C897 C892 1.363 1_554 S
C897 C896 1.415 . S
H898 C895 0.999 . S
H899 C880 0.913 . S
H900 C918 0.951 . S
H901 C920 0.951 . S
H902 C922 0.950 . S
H903 C923 0.950 . S
H904 C925 0.950 . S
H905 C928 0.950 . S
H906 C929 0.950 . S
H907 C931 0.950 . S
H908 C932 0.950 . S
H909 C933 0.951 . S
H910 C935 0.951 . S
H911 C937 0.950 . S
H912 C938 0.950 . S
H913 C940 0.950 . S
H914 C943 0.950 . S
H915 C944 0.950 . S
H916 C946 0.950 . S
H917 C947 0.950 . S
C918 H900 0.951 . S
C918 C919 1.366 . S
C918 C920 1.388 . S
C919 C918 1.366 . S
C919 C923 1.385 . S
C920 H901 0.951 . S
C920 C918 1.388 . S
C920 C921 1.355 1_554 S
C921 C920 1.355 1_556 S
C921 C922 1.417 . S
C921 C924 1.506 . S
C922 H902 0.950 . S
C922 C921 1.417 . S
C922 C923 1.374 1_556 S
C923 H903 0.950 . S
C923 C919 1.385 . S
C923 C922 1.374 1_554 S
C924 C921 1.506 . S
C924 C925 1.373 . S
C924 C926 1.389 . S
C925 H904 0.950 . S
C925 C924 1.373 . S
C925 C941 1.377 . S
C926 C924 1.389 . S
C926 C927 1.524 1_556 S
C926 C940 1.377 . S
C927 C926 1.524 1_554 S
C927 C928 1.397 . S
C927 C932 1.363 . S
C928 H905 0.950 . S
C928 C927 1.397 . S
C928 C929 1.334 . S
C929 H906 0.950 . S
C929 C928 1.334 . S
C929 C930 1.287 . S
C930 C929 1.287 . S
C930 C931 1.524 . S
C930 H949 0.913 . S
C931 H907 0.950 . S
C931 C930 1.524 . S
C931 C932 1.415 . S
C932 H908 0.950 . S
C932 C927 1.363 . S
C932 C931 1.415 . S
C933 H909 0.951 . S
C933 C934 1.366 . S
C933 C935 1.388 . S
C934 C933 1.366 . S
C934 C938 1.385 . S
C935 H910 0.951 . S
C935 C933 1.388 . S
C935 C936 1.366 . S
C936 C935 1.366 . S
C936 C937 1.414 . S
C936 C939 1.499 . S
C937 H911 0.950 . S
C937 C936 1.414 . S
C937 C938 1.374 . S
C938 H912 0.950 . S
C938 C934 1.385 . S
C938 C937 1.374 . S
C939 C936 1.499 . S
C939 C940 1.373 . S
C939 C941 1.389 . S
C940 H913 0.950 . S
C940 C926 1.377 . S
C940 C939 1.373 . S
C941 C925 1.377 . S
C941 C939 1.389 . S
C941 C942 1.524 . S
C942 C941 1.524 . S
C942 C943 1.397 . S
C942 C947 1.363 . S
C943 H914 0.950 . S
C943 C942 1.397 . S
C943 C944 1.334 . S
C944 H915 0.950 . S
C944 C943 1.334 . S
C944 C945 1.287 . S
C945 C944 1.287 . S
C945 C946 1.524 . S
C945 H948 0.999 . S
C946 H916 0.950 . S
C946 C945 1.524 . S
C946 C947 1.415 . S
C947 H917 0.950 . S
C947 C942 1.363 . S
C947 C946 1.415 . S
H948 C945 0.999 . S
H949 C930 0.913 . S
H950 C968 0.951 . S
H951 C970 0.951 1_556 S
H952 C972 0.950 . S
H953 C973 0.950 . S
H954 C975 0.952 1_654 S
H955 C978 0.950 . S
H956 C979 0.950 . S
H957 C981 0.950 . S
H958 C982 0.950 . S
H959 C983 0.951 . S
H960 C985 0.951 . S
H961 C987 0.950 . S
H962 C988 0.950 . S
H963 C990 0.950 . S
H964 C993 0.950 . S
H965 C994 0.951 . S
H966 C996 0.950 . S
H967 C997 0.950 . S
C968 H950 0.951 . S
C968 C969 1.383 . S
C968 C970 1.388 . S
C969 C968 1.383 . S
C969 C973 1.368 1_455 S
C970 H951 0.951 1_554 S
C970 C968 1.388 . S
C970 C971 1.366 . S
C971 C970 1.366 . S
C971 C972 1.414 1_455 S
C971 C974 1.499 1_554 S
C972 H952 0.950 . S
C972 C971 1.414 1_655 S
C972 C973 1.374 . S
C973 H953 0.950 . S
C973 C969 1.368 1_655 S
C973 C972 1.374 . S
C974 C971 1.499 1_556 S
C974 C975 1.372 . S
C974 C976 1.389 . S
C975 H954 0.952 1_456 S
C975 C974 1.372 . S
C975 C991 1.376 . S
C976 C974 1.389 . S
C976 C977 1.524 . S
C976 C990 1.377 . S
C977 C976 1.524 . S
C977 C978 1.397 1_455 S
C977 C982 1.363 . S
C978 H955 0.950 . S
C978 C977 1.397 1_655 S
C978 C979 1.334 . S
C979 H956 0.950 . S
C979 C978 1.334 . S
C979 C980 1.287 1_655 S
C980 C979 1.287 1_455 S
C980 C981 1.524 . S
C980 H999 0.913 . S
C981 H957 0.950 . S
C981 C980 1.524 . S
C981 C982 1.415 . S
C982 H958 0.950 . S
C982 C977 1.363 . S
C982 C981 1.415 . S
C983 H959 0.951 . S
C983 C984 1.366 1_655 S
C983 C985 1.388 . S
C984 C983 1.366 1_455 S
C984 C988 1.385 . S
C985 H960 0.951 . S
C985 C983 1.388 . S
C985 C986 1.366 1_655 S
C986 C985 1.366 1_455 S
C986 C987 1.414 . S
C986 C989 1.499 . S
C987 H961 0.950 . S
C987 C986 1.414 . S
C987 C988 1.374 . S
C988 H962 0.950 . S
C988 C984 1.385 . S
C988 C987 1.374 . S
C989 C986 1.499 . S
C989 C990 1.373 . S
C989 C991 1.389 . S
C990 H963 0.950 . S
C990 C976 1.377 . S
C990 C989 1.373 . S
C991 C975 1.376 . S
C991 C989 1.389 . S
C991 C992 1.526 . S
C992 C991 1.526 . S
C992 C993 1.403 . S
C992 C997 1.356 1_456 S
C993 H964 0.950 . S
C993 C992 1.403 . S
C993 C994 1.334 1_556 S
C994 H965 0.951 . S
C994 C993 1.334 1_554 S
C994 C995 1.287 . S
C995 C994 1.287 . S
C995 C996 1.524 1_455 S
C995 H998 0.999 1_455 S
C996 H966 0.950 . S
C996 C995 1.524 1_655 S
C996 C997 1.415 . S
C997 H967 0.950 . S
C997 C992 1.356 1_654 S
C997 C996 1.415 . S
H998 C995 0.999 1_655 S
H999 C980 0.913 . S
H1000 C1018 0.951 . S
H1001 C1020 0.951 . S
H1002 C1022 0.950 . S
H1003 C1023 0.950 . S
H1004 C1025 0.950 . S
H1005 C1028 0.950 . S
H1006 C1029 0.950 . S
H1007 C1031 0.950 . S
H1008 C1032 0.950 . S
H1009 C1033 0.951 . S
H1010 C1035 0.949 . S
H1011 C1037 0.950 . S
H1012 C1038 0.950 . S
H1013 C1040 0.950 . S
H1014 C1043 0.950 . S
H1015 C1044 0.950 . S
H1016 C1046 0.950 . S
H1017 C1047 0.950 . S
C1018 H1000 0.951 . S
C1018 C1019 1.366 1_655 S
C1018 C1020 1.388 . S
C1019 C1018 1.366 1_455 S
C1019 C1023 1.385 . S
C1020 H1001 0.951 . S
C1020 C1018 1.388 . S
C1020 C1021 1.366 . S
C1021 C1020 1.366 . S
C1021 C1022 1.414 1_655 S
C1021 C1024 1.499 . S
C1022 H1002 0.950 . S
C1022 C1021 1.414 1_455 S
C1022 C1023 1.374 . S
C1023 H1003 0.950 . S
C1023 C1019 1.385 . S
C1023 C1022 1.374 . S
C1024 C1021 1.499 . S
C1024 C1025 1.373 1_655 S
C1024 C1026 1.389 . S
C1025 H1004 0.950 . S
C1025 C1024 1.373 1_455 S
C1025 C1041 1.377 . S
C1026 C1024 1.389 . S
C1026 C1027 1.524 . S
C1026 C1040 1.377 . S
C1027 C1026 1.524 . S
C1027 C1028 1.397 . S
C1027 C1032 1.363 . S
C1028 H1005 0.950 . S
C1028 C1027 1.397 . S
C1028 C1029 1.334 . S
C1029 H1006 0.950 . S
C1029 C1028 1.334 . S
C1029 C1030 1.287 . S
C1030 C1029 1.287 . S
C1030 C1031 1.524 . S
C1030 H1049 0.913 . S
C1031 H1007 0.950 . S
C1031 C1030 1.524 . S
C1031 C1032 1.415 . S
C1032 H1008 0.950 . S
C1032 C1027 1.363 . S
C1032 C1031 1.415 . S
C1033 H1009 0.951 . S
C1033 C1034 1.366 . S
C1033 C1035 1.388 . S
C1034 C1033 1.366 . S
C1034 C1038 1.385 . S
C1035 H1010 0.949 . S
C1035 C1033 1.388 . S
C1035 C1036 1.366 . S
C1036 C1035 1.366 . S
C1036 C1037 1.414 . S
C1036 C1039 1.499 . S
C1037 H1011 0.950 . S
C1037 C1036 1.414 . S
C1037 C1038 1.374 . S
C1038 H1012 0.950 . S
C1038 C1034 1.385 . S
C1038 C1037 1.374 . S
C1039 C1036 1.499 . S
C1039 C1040 1.373 . S
C1039 C1041 1.389 1_655 S
C1040 H1013 0.950 . S
C1040 C1026 1.377 . S
C1040 C1039 1.373 . S
C1041 C1025 1.377 . S
C1041 C1039 1.389 1_455 S
C1041 C1042 1.524 . S
C1042 C1041 1.524 . S
C1042 C1043 1.397 . S
C1042 C1047 1.363 . S
C1043 H1014 0.950 . S
C1043 C1042 1.397 . S
C1043 C1044 1.334 . S
C1044 H1015 0.950 . S
C1044 C1043 1.334 . S
C1044 C1045 1.287 . S
C1045 C1044 1.287 . S
C1045 C1046 1.524 . S
C1045 H1048 0.999 . S
C1046 H1016 0.950 . S
C1046 C1045 1.524 . S
C1046 C1047 1.415 . S
C1047 H1017 0.950 . S
C1047 C1042 1.363 . S
C1047 C1046 1.415 . S
H1048 C1045 0.999 . S
H1049 C1030 0.913 . S
H1050 C1068 0.951 . S
H1051 C1070 0.951 . S
H1052 C1072 0.950 . S
H1053 C1073 0.950 . S
H1054 C1075 0.950 . S
H1055 C1078 0.950 . S
H1056 C1079 0.950 . S
H1057 C1081 0.980 . S
H1058 C1082 0.950 . S
H1059 C1083 0.951 . S
H1060 C1085 0.951 . S
H1061 C1087 0.950 . S
H1062 C1088 0.968 . S
H1063 C1090 0.950 . S
H1064 C1093 0.950 . S
H1065 C1094 0.950 . S
H1066 C1096 0.950 . S
H1067 C1097 0.950 . S
C1068 H1050 0.951 . S
C1068 C1069 1.366 . S
C1068 C1070 1.388 . S
C1069 C1068 1.366 . S
C1069 C1073 1.385 . S
C1070 H1051 0.951 . S
C1070 C1068 1.388 . S
C1070 C1071 1.366 . S
C1071 C1070 1.366 . S
C1071 C1072 1.414 . S
C1071 C1074 1.499 . S
C1072 H1052 0.950 . S
C1072 C1071 1.414 . S
C1072 C1073 1.374 . S
C1073 H1053 0.950 . S
C1073 C1069 1.385 . S
C1073 C1072 1.374 . S
C1074 C1071 1.499 . S
C1074 C1075 1.373 . S
C1074 C1076 1.389 . S
C1075 H1054 0.950 . S
C1075 C1074 1.373 . S
C1075 C1091 1.377 . S
C1076 C1074 1.389 . S
C1076 C1077 1.524 . S
C1076 C1090 1.377 . S
C1077 C1076 1.524 . S
C1077 C1078 1.397 . S
C1077 C1082 1.363 . S
C1078 H1055 0.950 . S
C1078 C1077 1.397 . S
C1078 C1079 1.334 . S
C1079 H1056 0.950 . S
C1079 C1078 1.334 . S
C1079 C1080 1.287 . S
C1080 C1079 1.287 . S
C1080 C1081 1.524 . S
C1080 H1099 0.913 . S
C1081 H1057 0.980 . S
C1081 C1080 1.524 . S
C1081 C1082 1.415 . S
C1082 H1058 0.950 . S
C1082 C1077 1.363 . S
C1082 C1081 1.415 . S
C1083 H1059 0.951 . S
C1083 C1084 1.366 . S
C1083 C1085 1.388 . S
C1084 C1083 1.366 . S
C1084 C1088 1.374 1_545 S
C1085 H1060 0.951 . S
C1085 C1083 1.388 . S
C1085 C1086 1.366 . S
C1086 C1085 1.366 . S
C1086 C1087 1.414 . S
C1086 C1089 1.499 . S
C1087 H1061 0.950 . S
C1087 C1086 1.414 . S
C1087 C1088 1.367 1_545 S
C1088 H1062 0.968 . S
C1088 C1084 1.374 1_565 S
C1088 C1087 1.367 1_565 S
C1089 C1086 1.499 . S
C1089 C1090 1.373 . S
C1089 C1091 1.389 . S
C1090 H1063 0.950 . S
C1090 C1076 1.377 . S
C1090 C1089 1.373 . S
C1091 C1075 1.377 . S
C1091 C1089 1.389 . S
C1091 C1092 1.524 . S
C1092 C1091 1.524 . S
C1092 C1093 1.397 . S
C1092 C1097 1.363 . S
C1093 H1064 0.950 . S
C1093 C1092 1.397 . S
C1093 C1094 1.334 . S
C1094 H1065 0.950 . S
C1094 C1093 1.334 . S
C1094 C1095 1.287 . S
C1095 C1094 1.287 . S
C1095 C1096 1.524 . S
C1095 H1098 0.999 . S
C1096 H1066 0.950 . S
C1096 C1095 1.524 . S
C1096 C1097 1.415 . S
C1097 H1067 0.950 . S
C1097 C1092 1.363 . S
C1097 C1096 1.415 . S
H1098 C1095 0.999 . S
H1099 C1080 0.913 . S
H1100 C1118 0.951 . S
H1101 C1120 0.951 . S
H1102 C1122 0.950 . S
H1103 C1123 0.950 . S
H1104 C1125 0.950 . S
H1105 C1128 0.950 . S
H1106 C1129 0.950 . S
H1107 C1131 0.950 . S
H1108 C1132 0.950 . S
H1109 C1133 0.951 . S
H1110 C1135 0.951 . S
H1111 C1137 0.950 . S
H1112 C1138 0.950 . S
H1113 C1140 0.950 . S
H1114 C1143 0.950 . S
H1115 C1144 0.950 . S
H1116 C1146 0.950 . S
H1117 C1147 0.950 . S
C1118 H1100 0.951 . S
C1118 C1119 1.366 . S
C1118 C1120 1.388 . S
C1119 C1118 1.366 . S
C1119 C1123 1.385 . S
C1120 H1101 0.951 . S
C1120 C1118 1.388 . S
C1120 C1121 1.366 . S
C1121 C1120 1.366 . S
C1121 C1122 1.414 . S
C1121 C1124 1.499 . S
C1122 H1102 0.950 . S
C1122 C1121 1.414 . S
C1122 C1123 1.374 . S
C1123 H1103 0.950 . S
C1123 C1119 1.385 . S
C1123 C1122 1.374 . S
C1124 C1121 1.499 . S
C1124 C1125 1.373 . S
C1124 C1126 1.389 . S
C1125 H1104 0.950 . S
C1125 C1124 1.373 . S
C1125 C1141 1.377 . S
C1126 C1124 1.389 . S
C1126 C1127 1.524 . S
C1126 C1140 1.377 . S
C1127 C1126 1.524 . S
C1127 C1128 1.397 . S
C1127 C1132 1.363 . S
C1128 H1105 0.950 . S
C1128 C1127 1.397 . S
C1128 C1129 1.334 . S
C1129 H1106 0.950 . S
C1129 C1128 1.334 . S
C1129 C1130 1.287 . S
C1130 C1129 1.287 . S
C1130 C1131 1.524 . S
C1130 H1149 0.913 . S
C1131 H1107 0.950 . S
C1131 C1130 1.524 . S
C1131 C1132 1.415 . S
C1132 H1108 0.950 . S
C1132 C1127 1.363 . S
C1132 C1131 1.415 . S
C1133 H1109 0.951 . S
C1133 C1134 1.366 . S
C1133 C1135 1.388 . S
C1134 C1133 1.366 . S
C1134 C1138 1.385 . S
C1135 H1110 0.951 . S
C1135 C1133 1.388 . S
C1135 C1136 1.366 . S
C1136 C1135 1.366 . S
C1136 C1137 1.414 . S
C1136 C1139 1.499 . S
C1137 H1111 0.950 . S
C1137 C1136 1.414 . S
C1137 C1138 1.374 . S
C1138 H1112 0.950 . S
C1138 C1134 1.385 . S
C1138 C1137 1.374 . S
C1139 C1136 1.499 . S
C1139 C1140 1.373 . S
C1139 C1141 1.389 . S
C1140 H1113 0.950 . S
C1140 C1126 1.377 . S
C1140 C1139 1.373 . S
C1141 C1125 1.377 . S
C1141 C1139 1.389 . S
C1141 C1142 1.524 . S
C1142 C1141 1.524 . S
C1142 C1143 1.397 . S
C1142 C1147 1.363 . S
C1143 H1114 0.950 . S
C1143 C1142 1.397 . S
C1143 C1144 1.334 . S
C1144 H1115 0.950 . S
C1144 C1143 1.334 . S
C1144 C1145 1.287 . S
C1145 C1144 1.287 . S
C1145 C1146 1.524 . S
C1145 H1148 0.999 . S
C1146 H1116 0.950 . S
C1146 C1145 1.524 . S
C1146 C1147 1.415 . S
C1147 H1117 0.950 . S
C1147 C1142 1.363 . S
C1147 C1146 1.415 . S
H1148 C1145 0.999 . S
H1149 C1130 0.913 . S
H1150 C1168 0.951 . S
H1151 C1170 0.951 . S
H1152 C1172 0.950 . S
H1153 C1173 0.950 . S
H1154 C1175 0.950 . S
H1155 C1178 0.950 . S
H1156 C1179 0.950 . S
H1157 C1181 0.950 . S
H1158 C1182 0.950 . S
H1159 C1183 0.951 . S
H1160 C1185 0.951 . S
H1161 C1187 0.950 . S
H1162 C1188 0.950 . S
H1163 C1190 0.950 . S
H1164 C1193 0.950 . S
H1165 C1194 0.950 . S
H1166 C1196 0.950 . S
H1167 C1197 0.950 . S
C1168 H1150 0.951 . S
C1168 C1169 1.366 . S
C1168 C1170 1.388 . S
C1169 C1168 1.366 . S
C1169 C1173 1.385 . S
C1170 H1151 0.951 . S
C1170 C1168 1.388 . S
C1170 C1171 1.366 . S
C1171 C1170 1.366 . S
C1171 C1172 1.414 . S
C1171 C1174 1.499 . S
C1172 H1152 0.950 . S
C1172 C1171 1.414 . S
C1172 C1173 1.374 . S
C1173 H1153 0.950 . S
C1173 C1169 1.385 . S
C1173 C1172 1.374 . S
C1174 C1171 1.499 . S
C1174 C1175 1.373 . S
C1174 C1176 1.389 . S
C1175 H1154 0.950 . S
C1175 C1174 1.373 . S
C1175 C1191 1.377 . S
C1176 C1174 1.389 . S
C1176 C1177 1.524 . S
C1176 C1190 1.377 . S
C1177 C1176 1.524 . S
C1177 C1178 1.397 . S
C1177 C1182 1.363 . S
C1178 H1155 0.950 . S
C1178 C1177 1.397 . S
C1178 C1179 1.334 . S
C1179 H1156 0.950 . S
C1179 C1178 1.334 . S
C1179 C1180 1.287 . S
C1180 C1179 1.287 . S
C1180 C1181 1.524 . S
C1180 H1199 0.913 . S
C1181 H1157 0.950 . S
C1181 C1180 1.524 . S
C1181 C1182 1.415 . S
C1182 H1158 0.950 . S
C1182 C1177 1.363 . S
C1182 C1181 1.415 . S
C1183 H1159 0.951 . S
C1183 C1184 1.366 . S
C1183 C1185 1.388 . S
C1184 C1183 1.366 . S
C1184 C1188 1.385 . S
C1185 H1160 0.951 . S
C1185 C1183 1.388 . S
C1185 C1186 1.366 . S
C1186 C1185 1.366 . S
C1186 C1187 1.414 . S
C1186 C1189 1.499 . S
C1187 H1161 0.950 . S
C1187 C1186 1.414 . S
C1187 C1188 1.374 . S
C1188 H1162 0.950 . S
C1188 C1184 1.385 . S
C1188 C1187 1.374 . S
C1189 C1186 1.499 . S
C1189 C1190 1.373 . S
C1189 C1191 1.389 . S
C1190 H1163 0.950 . S
C1190 C1176 1.377 . S
C1190 C1189 1.373 . S
C1191 C1175 1.377 . S
C1191 C1189 1.389 . S
C1191 C1192 1.524 . S
C1192 C1191 1.524 . S
C1192 C1193 1.397 . S
C1192 C1197 1.363 . S
C1193 H1164 0.950 . S
C1193 C1192 1.397 . S
C1193 C1194 1.334 . S
C1194 H1165 0.950 . S
C1194 C1193 1.334 . S
C1194 C1195 1.287 . S
C1195 C1194 1.287 . S
C1195 C1196 1.524 . S
C1195 H1198 0.999 . S
C1196 H1166 0.950 . S
C1196 C1195 1.524 . S
C1196 C1197 1.415 . S
C1197 H1167 0.950 . S
C1197 C1192 1.363 . S
C1197 C1196 1.415 . S
H1198 C1195 0.999 . S
H1199 C1180 0.913 . S
H1200 C1218 0.951 1_554 S
H1201 C1220 0.951 . S
H1202 C1222 0.950 . S
H1203 C1223 0.950 . S
H1204 C1225 0.950 . S
H1205 C1228 0.950 1_556 S
H1206 C1229 0.950 . S
H1207 C1231 0.950 . S
H1208 C1232 0.950 . S
H1209 C1233 0.951 . S
H1210 C1235 0.951 . S
H1211 C1237 0.950 . S
H1212 C1238 0.950 . S
H1213 C1240 0.950 . S
H1214 C1243 0.950 . S
H1215 C1244 0.950 . S
H1216 C1246 0.950 . S
H1217 C1247 0.950 . S
C1218 H1200 0.951 1_556 S
C1218 C1219 1.366 1_455 S
C1218 C1220 1.388 . S
C1219 C1218 1.366 1_655 S
C1219 C1223 1.385 . S
C1220 H1201 0.951 . S
C1220 C1218 1.388 . S
C1220 C1221 1.402 . S
C1221 C1220 1.402 . S
C1221 C1222 1.372 1_455 S
C1221 C1224 1.506 . S
C1222 H1202 0.950 . S
C1222 C1221 1.372 1_655 S
C1222 C1223 1.374 . S
C1223 H1203 0.950 . S
C1223 C1219 1.385 . S
C1223 C1222 1.374 . S
C1224 C1221 1.506 . S
C1224 C1225 1.373 . S
C1224 C1226 1.389 . S
C1225 H1204 0.950 . S
C1225 C1224 1.373 . S
C1225 C1241 1.377 . S
C1226 C1224 1.389 . S
C1226 C1227 1.524 . S
C1226 C1240 1.377 . S
C1227 C1226 1.524 . S
C1227 C1228 1.397 1_456 S
C1227 C1232 1.363 1_556 S
C1228 H1205 0.950 1_554 S
C1228 C1227 1.397 1_654 S
C1228 C1229 1.334 . S
C1229 H1206 0.950 . S
C1229 C1228 1.334 . S
C1229 C1230 1.287 . S
C1230 C1229 1.287 . S
C1230 C1231 1.524 1_655 S
C1230 H1249 0.913 . S
C1231 H1207 0.950 . S
C1231 C1230 1.524 1_455 S
C1231 C1232 1.415 . S
C1232 H1208 0.950 . S
C1232 C1227 1.363 1_554 S
C1232 C1231 1.415 . S
C1233 H1209 0.951 . S
C1233 C1234 1.366 1_655 S
C1233 C1235 1.388 . S
C1234 C1233 1.366 1_455 S
C1234 C1238 1.385 . S
C1235 H1210 0.951 . S
C1235 C1233 1.388 . S
C1235 C1236 1.366 1_655 S
C1236 C1235 1.366 1_455 S
C1236 C1237 1.414 . S
C1236 C1239 1.499 . S
C1237 H1211 0.950 . S
C1237 C1236 1.414 . S
C1237 C1238 1.374 . S
C1238 H1212 0.950 . S
C1238 C1234 1.385 . S
C1238 C1237 1.374 . S
C1239 C1236 1.499 . S
C1239 C1240 1.373 . S
C1239 C1241 1.389 . S
C1240 H1213 0.950 . S
C1240 C1226 1.377 . S
C1240 C1239 1.373 . S
C1241 C1225 1.377 . S
C1241 C1239 1.389 . S
C1241 C1242 1.524 . S
C1242 C1241 1.524 . S
C1242 C1243 1.397 . S
C1242 C1247 1.363 1_455 S
C1243 H1214 0.950 . S
C1243 C1242 1.397 . S
C1243 C1244 1.334 . S
C1244 H1215 0.950 . S
C1244 C1243 1.334 . S
C1244 C1245 1.287 . S
C1245 C1244 1.287 . S
C1245 C1246 1.524 1_455 S
C1245 H1248 0.999 . S
C1246 H1216 0.950 . S
C1246 C1245 1.524 1_655 S
C1246 C1247 1.415 . S
C1247 H1217 0.950 . S
C1247 C1242 1.363 1_655 S
C1247 C1246 1.415 . S
H1248 C1245 0.999 . S
H1249 C1230 0.913 . S
H1250 C1268 0.951 1_554 S
H1251 C1270 0.951 . S
H1252 C1272 0.950 . S
H1253 C1273 0.950 . S
H1254 C1275 0.950 . S
H1255 C1278 0.950 . S
H1256 C1279 0.950 . S
H1257 C1281 0.950 . S
H1258 C1282 0.950 . S
H1259 C1283 0.951 . S
H1260 C1285 0.948 1_545 S
H1261 C1287 0.950 . S
H1262 C1288 0.950 . S
H1263 C1290 0.950 . S
H1264 C1293 0.950 . S
H1265 C1294 0.950 . S
H1266 C1296 0.950 . S
H1267 C1297 0.950 . S
C1268 H1250 0.951 1_556 S
C1268 C1269 1.366 . S
C1268 C1270 1.388 . S
C1269 C1268 1.366 . S
C1269 C1273 1.385 . S
C1270 H1251 0.951 . S
C1270 C1268 1.388 . S
C1270 C1271 1.366 . S
C1271 C1270 1.366 . S
C1271 C1272 1.414 . S
C1271 C1274 1.499 . S
C1272 H1252 0.950 . S
C1272 C1271 1.414 . S
C1272 C1273 1.374 . S
C1273 H1253 0.950 . S
C1273 C1269 1.385 . S
C1273 C1272 1.374 . S
C1274 C1271 1.499 . S
C1274 C1275 1.373 . S
C1274 C1276 1.389 . S
C1275 H1254 0.950 . S
C1275 C1274 1.373 . S
C1275 C1291 1.377 . S
C1276 C1274 1.389 . S
C1276 C1277 1.524 . S
C1276 C1290 1.377 . S
C1277 C1276 1.524 . S
C1277 C1278 1.397 . S
C1277 C1282 1.363 . S
C1278 H1255 0.950 . S
C1278 C1277 1.397 . S
C1278 C1279 1.334 . S
C1279 H1256 0.950 . S
C1279 C1278 1.334 . S
C1279 C1280 1.287 . S
C1280 C1279 1.287 . S
C1280 C1281 1.524 . S
C1280 H1299 0.913 . S
C1281 H1257 0.950 . S
C1281 C1280 1.524 . S
C1281 C1282 1.415 . S
C1282 H1258 0.950 . S
C1282 C1277 1.363 . S
C1282 C1281 1.415 . S
C1283 H1259 0.951 . S
C1283 C1284 1.366 . S
C1283 C1285 1.380 1_545 S
C1284 C1283 1.366 . S
C1284 C1288 1.385 1_545 S
C1285 H1260 0.948 1_565 S
C1285 C1283 1.380 1_565 S
C1285 C1286 1.377 . S
C1286 C1285 1.377 . S
C1286 C1287 1.414 . S
C1286 C1289 1.499 . S
C1287 H1261 0.950 . S
C1287 C1286 1.414 . S
C1287 C1288 1.374 . S
C1288 H1262 0.950 . S
C1288 C1284 1.385 1_565 S
C1288 C1287 1.374 . S
C1289 C1286 1.499 . S
C1289 C1290 1.373 . S
C1289 C1291 1.389 . S
C1290 H1263 0.950 . S
C1290 C1276 1.377 . S
C1290 C1289 1.373 . S
C1291 C1275 1.377 . S
C1291 C1289 1.389 . S
C1291 C1292 1.524 1_565 S
C1292 C1291 1.524 1_545 S
C1292 C1293 1.397 . S
C1292 C1297 1.363 . S
C1293 H1264 0.950 . S
C1293 C1292 1.397 . S
C1293 C1294 1.334 . S
C1294 H1265 0.950 . S
C1294 C1293 1.334 . S
C1294 C1295 1.287 . S
C1295 C1294 1.287 . S
C1295 C1296 1.524 . S
C1295 H1298 0.999 . S
C1296 H1266 0.950 . S
C1296 C1295 1.524 . S
C1296 C1297 1.415 . S
C1297 H1267 0.950 . S
C1297 C1292 1.363 . S
C1297 C1296 1.415 . S
H1298 C1295 0.999 . S
H1299 C1280 0.913 . S
H1300 C1318 0.951 . S
H1301 C1320 0.951 . S
H1302 C1322 0.950 1_554 S
H1303 C1323 0.950 . S
H1304 C1325 0.950 . S
H1305 C1328 0.950 . S
H1306 C1329 0.950 . S
H1307 C1331 0.950 . S
H1308 C1332 0.950 . S
H1309 C1333 0.951 . S
H1310 C1335 0.951 . S
H1311 C1337 0.950 . S
H1312 C1338 0.950 . S
H1313 C1340 0.950 . S
H1314 C1343 0.950 . S
H1315 C1344 0.950 . S
H1316 C1346 0.950 1_554 S
H1317 C1347 0.950 . S
C1318 H1300 0.951 . S
C1318 C1319 1.366 . S
C1318 C1320 1.388 . S
C1319 C1318 1.366 . S
C1319 C1323 1.385 1_556 S
C1320 H1301 0.951 . S
C1320 C1318 1.388 . S
C1320 C1321 1.366 . S
C1321 C1320 1.366 . S
C1321 C1322 1.414 . S
C1321 C1324 1.499 . S
C1322 H1302 0.950 1_556 S
C1322 C1321 1.414 . S
C1322 C1323 1.374 1_556 S
C1323 H1303 0.950 . S
C1323 C1319 1.385 1_554 S
C1323 C1322 1.374 1_554 S
C1324 C1321 1.499 . S
C1324 C1325 1.373 . S
C1324 C1326 1.389 . S
C1325 H1304 0.950 . S
C1325 C1324 1.373 . S
C1325 C1341 1.377 . S
C1326 C1324 1.389 . S
C1326 C1327 1.524 . S
C1326 C1340 1.377 . S
C1327 C1326 1.524 . S
C1327 C1328 1.397 . S
C1327 C1332 1.363 . S
C1328 H1305 0.950 . S
C1328 C1327 1.397 . S
C1328 C1329 1.334 . S
C1329 H1306 0.950 . S
C1329 C1328 1.334 . S
C1329 C1330 1.287 . S
C1330 C1329 1.287 . S
C1330 C1331 1.524 . S
C1330 H1349 0.913 . S
C1331 H1307 0.950 . S
C1331 C1330 1.524 . S
C1331 C1332 1.415 . S
C1332 H1308 0.950 . S
C1332 C1327 1.363 . S
C1332 C1331 1.415 . S
C1333 H1309 0.951 . S
C1333 C1334 1.366 . S
C1333 C1335 1.388 . S
C1334 C1333 1.366 . S
C1334 C1338 1.385 . S
C1335 H1310 0.951 . S
C1335 C1333 1.388 . S
C1335 C1336 1.366 . S
C1336 C1335 1.366 . S
C1336 C1337 1.414 . S
C1336 C1339 1.499 . S
C1337 H1311 0.950 . S
C1337 C1336 1.414 . S
C1337 C1338 1.374 . S
C1338 H1312 0.950 . S
C1338 C1334 1.385 . S
C1338 C1337 1.374 . S
C1339 C1336 1.499 . S
C1339 C1340 1.373 . S
C1339 C1341 1.389 . S
C1340 H1313 0.950 . S
C1340 C1326 1.377 . S
C1340 C1339 1.373 . S
C1341 C1325 1.377 . S
C1341 C1339 1.389 . S
C1341 C1342 1.524 . S
C1342 C1341 1.524 . S
C1342 C1343 1.397 . S
C1342 C1347 1.363 . S
C1343 H1314 0.950 . S
C1343 C1342 1.397 . S
C1343 C1344 1.334 . S
C1344 H1315 0.950 . S
C1344 C1343 1.334 . S
C1344 C1345 1.287 . S
C1345 C1344 1.287 . S
C1345 C1346 1.524 . S
C1345 H1348 0.999 . S
C1346 H1316 0.950 1_556 S
C1346 C1345 1.524 . S
C1346 C1347 1.415 . S
C1347 H1317 0.950 . S
C1347 C1342 1.363 . S
C1347 C1346 1.415 . S
H1348 C1345 0.999 . S
H1349 C1330 0.913 . S
H1350 C1368 0.951 . S
H1351 C1370 0.951 . S
H1352 C1372 0.950 . S
H1353 C1373 0.950 . S
H1354 C1375 0.950 . S
H1355 C1378 0.950 . S
H1356 C1379 0.950 . S
H1357 C1381 0.950 . S
H1358 C1382 0.950 . S
H1359 C1383 0.951 . S
H1360 C1385 0.951 . S
H1361 C1387 0.950 . S
H1362 C1388 0.950 . S
H1363 C1390 0.950 . S
H1364 C1393 0.950 . S
H1365 C1394 0.950 . S
H1366 C1396 0.950 . S
H1367 C1397 0.950 . S
C1368 H1350 0.951 . S
C1368 C1369 1.366 . S
C1368 C1370 1.388 . S
C1369 C1368 1.366 . S
C1369 C1373 1.385 . S
C1370 H1351 0.951 . S
C1370 C1368 1.388 . S
C1370 C1371 1.366 . S
C1371 C1370 1.366 . S
C1371 C1372 1.414 . S
C1371 C1374 1.499 . S
C1372 H1352 0.950 . S
C1372 C1371 1.414 . S
C1372 C1373 1.374 . S
C1373 H1353 0.950 . S
C1373 C1369 1.385 . S
C1373 C1372 1.374 . S
C1374 C1371 1.499 . S
C1374 C1375 1.373 . S
C1374 C1376 1.389 . S
C1375 H1354 0.950 . S
C1375 C1374 1.373 . S
C1375 C1391 1.377 . S
C1376 C1374 1.389 . S
C1376 C1377 1.524 . S
C1376 C1390 1.377 . S
C1377 C1376 1.524 . S
C1377 C1378 1.397 1_556 S
C1377 C1382 1.363 . S
C1378 H1355 0.950 . S
C1378 C1377 1.397 1_554 S
C1378 C1379 1.334 . S
C1379 H1356 0.950 . S
C1379 C1378 1.334 . S
C1379 C1380 1.287 . S
C1380 C1379 1.287 . S
C1380 C1381 1.524 . S
C1380 H1399 0.913 . S
C1381 H1357 0.950 . S
C1381 C1380 1.524 . S
C1381 C1382 1.415 1_554 S
C1382 H1358 0.950 . S
C1382 C1377 1.363 . S
C1382 C1381 1.415 1_556 S
C1383 H1359 0.951 . S
C1383 C1384 1.366 . S
C1383 C1385 1.388 . S
C1384 C1383 1.366 . S
C1384 C1388 1.385 . S
C1385 H1360 0.951 . S
C1385 C1383 1.388 . S
C1385 C1386 1.366 . S
C1386 C1385 1.366 . S
C1386 C1387 1.414 . S
C1386 C1389 1.499 . S
C1387 H1361 0.950 . S
C1387 C1386 1.414 . S
C1387 C1388 1.374 . S
C1388 H1362 0.950 . S
C1388 C1384 1.385 . S
C1388 C1387 1.374 . S
C1389 C1386 1.499 . S
C1389 C1390 1.373 . S
C1389 C1391 1.389 . S
C1390 H1363 0.950 . S
C1390 C1376 1.377 . S
C1390 C1389 1.373 . S
C1391 C1375 1.377 . S
C1391 C1389 1.389 . S
C1391 C1392 1.524 . S
C1392 C1391 1.524 . S
C1392 C1393 1.397 . S
C1392 C1397 1.363 . S
C1393 H1364 0.950 . S
C1393 C1392 1.397 . S
C1393 C1394 1.334 . S
C1394 H1365 0.950 . S
C1394 C1393 1.334 . S
C1394 C1395 1.287 . S
C1395 C1394 1.287 . S
C1395 C1396 1.524 . S
C1395 H1398 0.999 . S
C1396 H1366 0.950 . S
C1396 C1395 1.524 . S
C1396 C1397 1.415 . S
C1397 H1367 0.950 . S
C1397 C1392 1.363 . S
C1397 C1396 1.415 . S
H1398 C1395 0.999 . S
H1399 C1380 0.913 . S
H1400 C1418 0.951 . S
H1401 C1420 0.951 . S
H1402 C1422 0.950 . S
H1403 C1423 0.950 . S
H1404 C1425 0.950 . S
H1405 C1428 0.950 . S
H1406 C1429 0.950 . S
H1407 C1431 0.950 . S
H1408 C1432 0.950 1_556 S
H1409 C1433 0.951 . S
H1410 C1435 0.951 . S
H1411 C1437 0.950 . S
H1412 C1438 0.972 . S
H1413 C1440 0.950 . S
H1414 C1443 0.950 . S
H1415 C1444 0.950 . S
H1416 C1446 0.950 . S
H1417 C1447 0.950 . S
C1418 H1400 0.951 . S
C1418 C1419 1.341 1_655 S
C1418 C1420 1.388 . S
C1419 C1418 1.341 1_455 S
C1419 C1423 1.411 . S
C1420 H1401 0.951 . S
C1420 C1418 1.388 . S
C1420 C1421 1.366 1_655 S
C1421 C1420 1.366 1_455 S
C1421 C1422 1.414 . S
C1421 C1424 1.499 . S
C1422 H1402 0.950 . S
C1422 C1421 1.414 . S
C1422 C1423 1.374 . S
C1423 H1403 0.950 . S
C1423 C1419 1.411 . S
C1423 C1422 1.374 . S
C1424 C1421 1.499 . S
C1424 C1425 1.373 . S
C1424 C1426 1.389 1_455 S
C1425 H1404 0.950 . S
C1425 C1424 1.373 . S
C1425 C1441 1.377 . S
C1426 C1424 1.389 1_655 S
C1426 C1427 1.524 . S
C1426 C1440 1.377 . S
C1427 C1426 1.524 . S
C1427 C1428 1.397 . S
C1427 C1432 1.363 . S
C1428 H1405 0.950 . S
C1428 C1427 1.397 . S
C1428 C1429 1.334 . S
C1429 H1406 0.950 . S
C1429 C1428 1.334 . S
C1429 C1430 1.287 . S
C1430 C1429 1.287 . S
C1430 C1431 1.524 . S
C1430 H1449 0.913 . S
C1431 H1407 0.950 . S
C1431 C1430 1.524 . S
C1431 C1432 1.415 . S
C1432 H1408 0.950 1_554 S
C1432 C1427 1.363 . S
C1432 C1431 1.415 . S
C1433 H1409 0.951 . S
C1433 C1434 1.366 . S
C1433 C1435 1.388 1_556 S
C1434 C1433 1.366 . S
C1434 C1438 1.364 1_455 S
C1435 H1410 0.951 . S
C1435 C1433 1.388 1_554 S
C1435 C1436 1.366 1_554 S
C1436 C1435 1.366 1_556 S
C1436 C1437 1.414 1_455 S
C1436 C1439 1.499 1_556 S
C1437 H1411 0.950 . S
C1437 C1436 1.414 1_655 S
C1437 C1438 1.375 . S
C1438 H1412 0.972 . S
C1438 C1434 1.364 1_655 S
C1438 C1437 1.375 . S
C1439 C1436 1.499 1_554 S
C1439 C1440 1.373 1_455 S
C1439 C1441 1.389 . S
C1440 H1413 0.950 . S
C1440 C1426 1.377 . S
C1440 C1439 1.373 1_655 S
C1441 C1425 1.377 . S
C1441 C1439 1.389 . S
C1441 C1442 1.524 . S
C1442 C1441 1.524 . S
C1442 C1443 1.397 1_554 S
C1442 C1447 1.363 . S
C1443 H1414 0.950 . S
C1443 C1442 1.397 1_556 S
C1443 C1444 1.334 . S
C1444 H1415 0.950 . S
C1444 C1443 1.334 . S
C1444 C1445 1.287 . S
C1445 C1444 1.287 . S
C1445 C1446 1.524 1_556 S
C1445 H1448 0.999 . S
C1446 H1416 0.950 . S
C1446 C1445 1.524 1_554 S
C1446 C1447 1.415 . S
C1447 H1417 0.950 . S
C1447 C1442 1.363 . S
C1447 C1446 1.415 . S
H1448 C1445 0.999 . S
H1449 C1430 0.913 . S
H1450 C1468 0.951 . S
H1451 C1470 0.951 . S
H1452 C1472 0.950 . S
H1453 C1473 0.950 . S
H1454 C1475 0.950 . S
H1455 C1478 0.950 . S
H1456 C1479 0.950 . S
H1457 C1481 0.950 . S
H1458 C1482 0.950 . S
H1459 C1483 0.951 . S
H1460 C1485 0.951 . S
H1461 C1487 0.950 . S
H1462 C1488 0.950 . S
H1463 C1490 0.950 . S
H1464 C1493 0.950 . S
H1465 C1494 0.950 . S
H1466 C1496 0.950 . S
H1467 C1497 0.950 . S
C1468 H1450 0.951 . S
C1468 C1469 1.366 . S
C1468 C1470 1.388 . S
C1469 C1468 1.366 . S
C1469 C1473 1.385 . S
C1470 H1451 0.951 . S
C1470 C1468 1.388 . S
C1470 C1471 1.366 . S
C1471 C1470 1.366 . S
C1471 C1472 1.414 . S
C1471 C1474 1.499 . S
C1472 H1452 0.950 . S
C1472 C1471 1.414 . S
C1472 C1473 1.374 . S
C1473 H1453 0.950 . S
C1473 C1469 1.385 . S
C1473 C1472 1.374 . S
C1474 C1471 1.499 . S
C1474 C1475 1.373 . S
C1474 C1476 1.389 . S
C1475 H1454 0.950 . S
C1475 C1474 1.373 . S
C1475 C1491 1.377 . S
C1476 C1474 1.389 . S
C1476 C1477 1.524 . S
C1476 C1490 1.377 . S
C1477 C1476 1.524 . S
C1477 C1478 1.397 . S
C1477 C1482 1.363 . S
C1478 H1455 0.950 . S
C1478 C1477 1.397 . S
C1478 C1479 1.334 . S
C1479 H1456 0.950 . S
C1479 C1478 1.334 . S
C1479 C1480 1.287 . S
C1480 C1479 1.287 . S
C1480 C1481 1.524 . S
C1480 H1499 0.913 . S
C1481 H1457 0.950 . S
C1481 C1480 1.524 . S
C1481 C1482 1.415 . S
C1482 H1458 0.950 . S
C1482 C1477 1.363 . S
C1482 C1481 1.415 . S
C1483 H1459 0.951 . S
C1483 C1484 1.366 . S
C1483 C1485 1.388 . S
C1484 C1483 1.366 . S
C1484 C1488 1.385 . S
C1485 H1460 0.951 . S
C1485 C1483 1.388 . S
C1485 C1486 1.364 1_556 S
C1486 C1485 1.364 1_554 S
C1486 C1487 1.414 . S
C1486 C1489 1.500 . S
C1487 H1461 0.950 . S
C1487 C1486 1.414 . S
C1487 C1488 1.374 1_554 S
C1488 H1462 0.950 . S
C1488 C1484 1.385 . S
C1488 C1487 1.374 1_556 S
C1489 C1486 1.500 . S
C1489 C1490 1.373 . S
C1489 C1491 1.389 . S
C1490 H1463 0.950 . S
C1490 C1476 1.377 . S
C1490 C1489 1.373 . S
C1491 C1475 1.377 . S
C1491 C1489 1.389 . S
C1491 C1492 1.524 . S
C1492 C1491 1.524 . S
C1492 C1493 1.397 . S
C1492 C1497 1.363 . S
C1493 H1464 0.950 . S
C1493 C1492 1.397 . S
C1493 C1494 1.334 1_545 S
C1494 H1465 0.950 . S
C1494 C1493 1.334 1_565 S
C1494 C1495 1.287 . S
C1495 C1494 1.287 . S
C1495 C1496 1.524 . S
C1495 H1498 0.999 . S
C1496 H1466 0.950 . S
C1496 C1495 1.524 . S
C1496 C1497 1.415 1_565 S
C1497 H1467 0.950 . S
C1497 C1492 1.363 . S
C1497 C1496 1.415 1_545 S
H1498 C1495 0.999 . S
H1499 C1480 0.913 . S
H1500 C1518 0.951 . S
H1501 C1520 0.951 . S
H1502 C1522 0.950 . S
H1503 C1523 0.950 . S
H1504 C1525 0.950 . S
H1505 C1528 0.950 . S
H1506 C1529 0.950 . S
H1507 C1531 0.950 . S
H1508 C1532 0.950 . S
H1509 C1533 0.951 . S
H1510 C1535 0.951 . S
H1511 C1537 0.950 . S
H1512 C1538 0.950 . S
H1513 C1540 0.950 . S
H1514 C1543 0.950 . S
H1515 C1544 0.950 . S
H1516 C1546 0.950 . S
H1517 C1547 0.950 . S
C1518 H1500 0.951 . S
C1518 C1519 1.366 . S
C1518 C1520 1.388 . S
C1519 C1518 1.366 . S
C1519 C1523 1.385 . S
C1520 H1501 0.951 . S
C1520 C1518 1.388 . S
C1520 C1521 1.366 . S
C1521 C1520 1.366 . S
C1521 C1522 1.414 . S
C1521 C1524 1.499 . S
C1522 H1502 0.950 . S
C1522 C1521 1.414 . S
C1522 C1523 1.374 . S
C1523 H1503 0.950 . S
C1523 C1519 1.385 . S
C1523 C1522 1.374 . S
C1524 C1521 1.499 . S
C1524 C1525 1.373 . S
C1524 C1526 1.389 . S
C1525 H1504 0.950 . S
C1525 C1524 1.373 . S
C1525 C1541 1.377 1_554 S
C1526 C1524 1.389 . S
C1526 C1527 1.524 . S
C1526 C1540 1.377 . S
C1527 C1526 1.524 . S
C1527 C1528 1.397 . S
C1527 C1532 1.363 . S
C1528 H1505 0.950 . S
C1528 C1527 1.397 . S
C1528 C1529 1.334 . S
C1529 H1506 0.950 . S
C1529 C1528 1.334 . S
C1529 C1530 1.287 . S
C1530 C1529 1.287 . S
C1530 C1531 1.524 . S
C1530 H1549 0.913 . S
C1531 H1507 0.950 . S
C1531 C1530 1.524 . S
C1531 C1532 1.415 . S
C1532 H1508 0.950 . S
C1532 C1527 1.363 . S
C1532 C1531 1.415 . S
C1533 H1509 0.951 . S
C1533 C1534 1.366 . S
C1533 C1535 1.388 . S
C1534 C1533 1.366 . S
C1534 C1538 1.385 . S
C1535 H1510 0.951 . S
C1535 C1533 1.388 . S
C1535 C1536 1.366 . S
C1536 C1535 1.366 . S
C1536 C1537 1.414 . S
C1536 C1539 1.499 . S
C1537 H1511 0.950 . S
C1537 C1536 1.414 . S
C1537 C1538 1.374 . S
C1538 H1512 0.950 . S
C1538 C1534 1.385 . S
C1538 C1537 1.374 . S
C1539 C1536 1.499 . S
C1539 C1540 1.373 1_556 S
C1539 C1541 1.389 . S
C1540 H1513 0.950 . S
C1540 C1526 1.377 . S
C1540 C1539 1.373 1_554 S
C1541 C1525 1.377 1_556 S
C1541 C1539 1.389 . S
C1541 C1542 1.524 . S
C1542 C1541 1.524 . S
C1542 C1543 1.397 . S
C1542 C1547 1.363 . S
C1543 H1514 0.950 . S
C1543 C1542 1.397 . S
C1543 C1544 1.334 . S
C1544 H1515 0.950 . S
C1544 C1543 1.334 . S
C1544 C1545 1.287 . S
C1545 C1544 1.287 . S
C1545 C1546 1.524 . S
C1545 H1548 0.999 . S
C1546 H1516 0.950 . S
C1546 C1545 1.524 . S
C1546 C1547 1.415 . S
C1547 H1517 0.950 . S
C1547 C1542 1.363 . S
C1547 C1546 1.415 . S
H1548 C1545 0.999 . S
H1549 C1530 0.913 . S
H1550 C1568 0.951 . S
H1551 C1570 0.951 . S
H1552 C1572 0.950 . S
H1553 C1573 0.950 . S
H1554 C1575 0.950 . S
H1555 C1578 0.950 . S
H1556 C1579 0.950 . S
H1557 C1581 0.950 . S
H1558 C1582 0.950 . S
H1559 C1583 0.951 . S
H1560 C1585 0.951 . S
H1561 C1587 0.950 . S
H1562 C1588 0.950 . S
H1563 C1590 0.950 . S
H1564 C1593 0.950 . S
H1565 C1594 0.950 1_554 S
H1566 C1596 0.950 . S
H1567 C1597 0.950 . S
C1568 H1550 0.951 . S
C1568 C1569 1.366 . S
C1568 C1570 1.388 . S
C1569 C1568 1.366 . S
C1569 C1573 1.385 . S
C1570 H1551 0.951 . S
C1570 C1568 1.388 . S
C1570 C1571 1.366 . S
C1571 C1570 1.366 . S
C1571 C1572 1.414 . S
C1571 C1574 1.499 . S
C1572 H1552 0.950 . S
C1572 C1571 1.414 . S
C1572 C1573 1.374 . S
C1573 H1553 0.950 . S
C1573 C1569 1.385 . S
C1573 C1572 1.374 . S
C1574 C1571 1.499 . S
C1574 C1575 1.373 . S
C1574 C1576 1.389 . S
C1575 H1554 0.950 . S
C1575 C1574 1.373 . S
C1575 C1591 1.377 . S
C1576 C1574 1.389 . S
C1576 C1577 1.524 . S
C1576 C1590 1.377 1_554 S
C1577 C1576 1.524 . S
C1577 C1578 1.397 . S
C1577 C1582 1.363 . S
C1578 H1555 0.950 . S
C1578 C1577 1.397 . S
C1578 C1579 1.334 . S
C1579 H1556 0.950 . S
C1579 C1578 1.334 . S
C1579 C1580 1.287 . S
C1580 C1579 1.287 . S
C1580 C1581 1.524 . S
C1580 H1599 0.913 . S
C1581 H1557 0.950 . S
C1581 C1580 1.524 . S
C1581 C1582 1.415 . S
C1582 H1558 0.950 . S
C1582 C1577 1.363 . S
C1582 C1581 1.415 . S
C1583 H1559 0.951 . S
C1583 C1584 1.366 . S
C1583 C1585 1.388 . S
C1584 C1583 1.366 . S
C1584 C1588 1.385 . S
C1585 H1560 0.951 . S
C1585 C1583 1.388 . S
C1585 C1586 1.366 . S
C1586 C1585 1.366 . S
C1586 C1587 1.414 . S
C1586 C1589 1.499 . S
C1587 H1561 0.950 . S
C1587 C1586 1.414 . S
C1587 C1588 1.374 . S
C1588 H1562 0.950 . S
C1588 C1584 1.385 . S
C1588 C1587 1.374 . S
C1589 C1586 1.499 . S
C1589 C1590 1.373 . S
C1589 C1591 1.389 1_556 S
C1590 H1563 0.950 . S
C1590 C1576 1.377 1_556 S
C1590 C1589 1.373 . S
C1591 C1575 1.377 . S
C1591 C1589 1.389 1_554 S
C1591 C1592 1.524 1_554 S
C1592 C1591 1.524 1_556 S
C1592 C1593 1.397 1_556 S
C1592 C1597 1.363 . S
C1593 H1564 0.950 . S
C1593 C1592 1.397 1_554 S
C1593 C1594 1.334 1_554 S
C1594 H1565 0.950 1_556 S
C1594 C1593 1.334 1_556 S
C1594 C1595 1.287 . S
C1595 C1594 1.287 . S
C1595 C1596 1.524 . S
C1595 H1598 0.999 . S
C1596 H1566 0.950 . S
C1596 C1595 1.524 . S
C1596 C1597 1.415 . S
C1597 H1567 0.950 . S
C1597 C1592 1.363 . S
C1597 C1596 1.415 . S
H1598 C1595 0.999 . S
H1599 C1580 0.913 . S
H1600 C1618 0.951 . S
H1601 C1620 0.951 . S
H1602 C1622 0.950 . S
H1603 C1623 0.950 . S
H1604 C1625 0.950 . S
H1605 C1628 0.950 . S
H1606 C1629 0.950 . S
H1607 C1631 0.950 . S
H1608 C1632 0.950 . S
H1609 C1633 0.951 . S
H1610 C1635 0.951 . S
H1611 C1637 0.950 1_455 S
H1612 C1638 0.950 1_455 S
H1613 C1640 0.950 . S
H1614 C1643 0.950 . S
H1615 C1644 0.950 . S
H1616 C1646 0.950 . S
H1617 C1647 0.950 . S
C1618 H1600 0.951 . S
C1618 C1619 1.348 1_455 S
C1618 C1620 1.388 . S
C1619 C1618 1.348 1_655 S
C1619 C1623 1.405 . S
C1620 H1601 0.951 . S
C1620 C1618 1.388 . S
C1620 C1621 1.366 1_455 S
C1621 C1620 1.366 1_655 S
C1621 C1622 1.414 . S
C1621 C1624 1.499 . S
C1622 H1602 0.950 . S
C1622 C1621 1.414 . S
C1622 C1623 1.374 . S
C1623 H1603 0.950 . S
C1623 C1619 1.405 . S
C1623 C1622 1.374 . S
C1624 C1621 1.499 . S
C1624 C1625 1.373 . S
C1624 C1626 1.389 1_655 S
C1625 H1604 0.950 . S
C1625 C1624 1.373 . S
C1625 C1641 1.377 . S
C1626 C1624 1.389 1_455 S
C1626 C1627 1.524 . S
C1626 C1640 1.377 . S
C1627 C1626 1.524 . S
C1627 C1628 1.397 . S
C1627 C1632 1.363 . S
C1628 H1605 0.950 . S
C1628 C1627 1.397 . S
C1628 C1629 1.334 . S
C1629 H1606 0.950 . S
C1629 C1628 1.334 . S
C1629 C1630 1.287 . S
C1630 C1629 1.287 . S
C1630 C1631 1.524 . S
C1630 H1649 0.913 . S
C1631 H1607 0.950 . S
C1631 C1630 1.524 . S
C1631 C1632 1.415 . S
C1632 H1608 0.950 . S
C1632 C1627 1.363 . S
C1632 C1631 1.415 . S
C1633 H1609 0.951 . S
C1633 C1634 1.366 . S
C1633 C1635 1.388 . S
C1634 C1633 1.366 . S
C1634 C1638 1.385 . S
C1635 H1610 0.951 . S
C1635 C1633 1.388 . S
C1635 C1636 1.366 . S
C1636 C1635 1.366 . S
C1636 C1637 1.414 . S
C1636 C1639 1.499 . S
C1637 H1611 0.950 1_655 S
C1637 C1636 1.414 . S
C1637 C1638 1.374 . S
C1638 H1612 0.950 1_655 S
C1638 C1634 1.385 . S
C1638 C1637 1.374 . S
C1639 C1636 1.499 . S
C1639 C1640 1.373 1_655 S
C1639 C1641 1.389 . S
C1640 H1613 0.950 . S
C1640 C1626 1.377 . S
C1640 C1639 1.373 1_455 S
C1641 C1625 1.377 . S
C1641 C1639 1.389 . S
C1641 C1642 1.524 . S
C1642 C1641 1.524 . S
C1642 C1643 1.397 . S
C1642 C1647 1.363 . S
C1643 H1614 0.950 . S
C1643 C1642 1.397 . S
C1643 C1644 1.334 . S
C1644 H1615 0.950 . S
C1644 C1643 1.334 . S
C1644 C1645 1.287 . S
C1645 C1644 1.287 . S
C1645 C1646 1.524 . S
C1645 H1648 0.999 . S
C1646 H1616 0.950 . S
C1646 C1645 1.524 . S
C1646 C1647 1.415 . S
C1647 H1617 0.950 . S
C1647 C1642 1.363 . S
C1647 C1646 1.415 . S
H1648 C1645 0.999 . S
H1649 C1630 0.913 . S
H1650 C1668 0.951 . S
H1651 C1670 0.951 . S
H1652 C1672 0.950 . S
H1653 C1673 0.950 . S
H1654 C1675 0.950 . S
H1655 C1678 0.950 . S
H1656 C1679 0.950 1_545 S
H1657 C1681 0.950 . S
H1658 C1682 0.950 . S
H1659 C1683 0.951 . S
H1660 C1685 0.951 . S
H1661 C1687 0.950 . S
H1662 C1688 0.950 . S
H1663 C1690 0.950 . S
H1664 C1693 0.950 . S
H1665 C1694 0.950 . S
H1666 C1696 0.950 . S
H1667 C1697 0.950 . S
C1668 H1650 0.951 . S
C1668 C1669 1.366 . S
C1668 C1670 1.388 . S
C1669 C1668 1.366 . S
C1669 C1673 1.385 . S
C1670 H1651 0.951 . S
C1670 C1668 1.388 . S
C1670 C1671 1.366 . S
C1671 C1670 1.366 . S
C1671 C1672 1.414 . S
C1671 C1674 1.499 . S
C1672 H1652 0.950 . S
C1672 C1671 1.414 . S
C1672 C1673 1.374 . S
C1673 H1653 0.950 . S
C1673 C1669 1.385 . S
C1673 C1672 1.374 . S
C1674 C1671 1.499 . S
C1674 C1675 1.373 . S
C1674 C1676 1.389 . S
C1675 H1654 0.950 . S
C1675 C1674 1.373 . S
C1675 C1691 1.377 . S
C1676 C1674 1.389 . S
C1676 C1677 1.524 . S
C1676 C1690 1.377 . S
C1677 C1676 1.524 . S
C1677 C1678 1.397 . S
C1677 C1682 1.363 . S
C1678 H1655 0.950 . S
C1678 C1677 1.397 . S
C1678 C1679 1.334 . S
C1679 H1656 0.950 1_565 S
C1679 C1678 1.334 . S
C1679 C1680 1.287 1_565 S
C1680 C1679 1.287 1_545 S
C1680 C1681 1.524 1_545 S
C1680 H1699 0.913 . S
C1681 H1657 0.950 . S
C1681 C1680 1.524 1_565 S
C1681 C1682 1.415 . S
C1682 H1658 0.950 . S
C1682 C1677 1.363 . S
C1682 C1681 1.415 . S
C1683 H1659 0.951 . S
C1683 C1684 1.366 . S
C1683 C1685 1.388 . S
C1684 C1683 1.366 . S
C1684 C1688 1.385 . S
C1685 H1660 0.951 . S
C1685 C1683 1.388 . S
C1685 C1686 1.366 . S
C1686 C1685 1.366 . S
C1686 C1687 1.414 . S
C1686 C1689 1.499 . S
C1687 H1661 0.950 . S
C1687 C1686 1.414 . S
C1687 C1688 1.374 . S
C1688 H1662 0.950 . S
C1688 C1684 1.385 . S
C1688 C1687 1.374 . S
C1689 C1686 1.499 . S
C1689 C1690 1.373 . S
C1689 C1691 1.389 . S
C1690 H1663 0.950 . S
C1690 C1676 1.377 . S
C1690 C1689 1.373 . S
C1691 C1675 1.377 . S
C1691 C1689 1.389 . S
C1691 C1692 1.524 . S
C1692 C1691 1.524 . S
C1692 C1693 1.397 . S
C1692 C1697 1.363 . S
C1693 H1664 0.950 . S
C1693 C1692 1.397 . S
C1693 C1694 1.334 . S
C1694 H1665 0.950 . S
C1694 C1693 1.334 . S
C1694 C1695 1.287 . S
C1695 C1694 1.287 . S
C1695 C1696 1.524 . S
C1695 H1698 0.999 . S
C1696 H1666 0.950 . S
C1696 C1695 1.524 . S
C1696 C1697 1.415 . S
C1697 H1667 0.950 . S
C1697 C1692 1.363 . S
C1697 C1696 1.415 . S
H1698 C1695 0.999 . S
H1699 C1680 0.913 . S
H1700 C1718 0.951 . S
H1701 C1720 0.951 . S
H1702 C1722 0.950 . S
H1703 C1723 0.950 . S
H1704 C1725 0.950 . S
H1705 C1728 0.950 . S
H1706 C1729 0.950 . S
H1707 C1731 0.950 . S
H1708 C1732 0.950 . S
H1709 C1733 0.951 . S
H1710 C1735 0.951 . S
H1711 C1737 0.950 . S
H1712 C1738 0.950 . S
H1713 C1740 0.950 . S
H1714 C1743 0.950 . S
H1715 C1744 0.950 . S
H1716 C1746 0.950 . S
H1717 C1747 0.950 . S
C1718 H1700 0.951 . S
C1718 C1719 1.366 . S
C1718 C1720 1.388 . S
C1719 C1718 1.366 . S
C1719 C1723 1.385 . S
C1720 H1701 0.951 . S
C1720 C1718 1.388 . S
C1720 C1721 1.366 . S
C1721 C1720 1.366 . S
C1721 C1722 1.414 . S
C1721 C1724 1.499 . S
C1722 H1702 0.950 . S
C1722 C1721 1.414 . S
C1722 C1723 1.374 . S
C1723 H1703 0.950 . S
C1723 C1719 1.385 . S
C1723 C1722 1.374 . S
C1724 C1721 1.499 . S
C1724 C1725 1.373 . S
C1724 C1726 1.389 . S
C1725 H1704 0.950 . S
C1725 C1724 1.373 . S
C1725 C1741 1.377 . S
C1726 C1724 1.389 . S
C1726 C1727 1.524 . S
C1726 C1740 1.377 . S
C1727 C1726 1.524 . S
C1727 C1728 1.397 . S
C1727 C1732 1.363 . S
C1728 H1705 0.950 . S
C1728 C1727 1.397 . S
C1728 C1729 1.334 . S
C1729 H1706 0.950 . S
C1729 C1728 1.334 . S
C1729 C1730 1.287 . S
C1730 C1729 1.287 . S
C1730 C1731 1.524 . S
C1730 H1749 0.913 . S
C1731 H1707 0.950 . S
C1731 C1730 1.524 . S
C1731 C1732 1.415 . S
C1732 H1708 0.950 . S
C1732 C1727 1.363 . S
C1732 C1731 1.415 . S
C1733 H1709 0.951 . S
C1733 C1734 1.366 . S
C1733 C1735 1.388 . S
C1734 C1733 1.366 . S
C1734 C1738 1.385 . S
C1735 H1710 0.951 . S
C1735 C1733 1.388 . S
C1735 C1736 1.366 . S
C1736 C1735 1.366 . S
C1736 C1737 1.414 . S
C1736 C1739 1.499 . S
C1737 H1711 0.950 . S
C1737 C1736 1.414 . S
C1737 C1738 1.374 . S
C1738 H1712 0.950 . S
C1738 C1734 1.385 . S
C1738 C1737 1.374 . S
C1739 C1736 1.499 . S
C1739 C1740 1.373 . S
C1739 C1741 1.389 . S
C1740 H1713 0.950 . S
C1740 C1726 1.377 . S
C1740 C1739 1.373 . S
C1741 C1725 1.377 . S
C1741 C1739 1.389 . S
C1741 C1742 1.524 . S
C1742 C1741 1.524 . S
C1742 C1743 1.397 . S
C1742 C1747 1.363 . S
C1743 H1714 0.950 . S
C1743 C1742 1.397 . S
C1743 C1744 1.334 . S
C1744 H1715 0.950 . S
C1744 C1743 1.334 . S
C1744 C1745 1.287 . S
C1745 C1744 1.287 . S
C1745 C1746 1.524 . S
C1745 H1748 0.999 . S
C1746 H1716 0.950 . S
C1746 C1745 1.524 . S
C1746 C1747 1.415 . S
C1747 H1717 0.950 . S
C1747 C1742 1.363 . S
C1747 C1746 1.415 . S
H1748 C1745 0.999 . S
H1749 C1730 0.913 . S
H1750 C1768 0.951 . S
H1751 C1770 0.951 . S
H1752 C1772 0.950 . S
H1753 C1773 0.950 . S
H1754 C1775 0.950 . S
H1755 C1778 0.950 . S
H1756 C1779 0.950 . S
H1757 C1781 0.950 . S
H1758 C1782 0.950 . S
H1759 C1783 0.951 . S
H1760 C1785 0.951 . S
H1761 C1787 0.950 . S
H1762 C1788 0.950 . S
H1763 C1790 0.950 . S
H1764 C1793 0.950 . S
H1765 C1794 0.950 . S
H1766 C1796 0.950 . S
H1767 C1797 0.950 . S
C1768 H1750 0.951 . S
C1768 C1769 1.366 . S
C1768 C1770 1.388 . S
C1769 C1768 1.366 . S
C1769 C1773 1.385 . S
C1770 H1751 0.951 . S
C1770 C1768 1.388 . S
C1770 C1771 1.366 . S
C1771 C1770 1.366 . S
C1771 C1772 1.414 . S
C1771 C1774 1.499 . S
C1772 H1752 0.950 . S
C1772 C1771 1.414 . S
C1772 C1773 1.374 . S
C1773 H1753 0.950 . S
C1773 C1769 1.385 . S
C1773 C1772 1.374 . S
C1774 C1771 1.499 . S
C1774 C1775 1.373 . S
C1774 C1776 1.389 . S
C1775 H1754 0.950 . S
C1775 C1774 1.373 . S
C1775 C1791 1.377 . S
C1776 C1774 1.389 . S
C1776 C1777 1.524 . S
C1776 C1790 1.377 . S
C1777 C1776 1.524 . S
C1777 C1778 1.397 . S
C1777 C1782 1.363 . S
C1778 H1755 0.950 . S
C1778 C1777 1.397 . S
C1778 C1779 1.334 . S
C1779 H1756 0.950 . S
C1779 C1778 1.334 . S
C1779 C1780 1.287 . S
C1780 C1779 1.287 . S
C1780 C1781 1.524 . S
C1780 H1799 0.913 . S
C1781 H1757 0.950 . S
C1781 C1780 1.524 . S
C1781 C1782 1.415 . S
C1782 H1758 0.950 . S
C1782 C1777 1.363 . S
C1782 C1781 1.415 . S
C1783 H1759 0.951 . S
C1783 C1784 1.366 . S
C1783 C1785 1.388 . S
C1784 C1783 1.366 . S
C1784 C1788 1.385 . S
C1785 H1760 0.951 . S
C1785 C1783 1.388 . S
C1785 C1786 1.366 . S
C1786 C1785 1.366 . S
C1786 C1787 1.414 . S
C1786 C1789 1.499 . S
C1787 H1761 0.950 . S
C1787 C1786 1.414 . S
C1787 C1788 1.374 . S
C1788 H1762 0.950 . S
C1788 C1784 1.385 . S
C1788 C1787 1.374 . S
C1789 C1786 1.499 . S
C1789 C1790 1.373 . S
C1789 C1791 1.389 . S
C1790 H1763 0.950 . S
C1790 C1776 1.377 . S
C1790 C1789 1.373 . S
C1791 C1775 1.377 . S
C1791 C1789 1.389 . S
C1791 C1792 1.524 . S
C1792 C1791 1.524 . S
C1792 C1793 1.397 . S
C1792 C1797 1.363 . S
C1793 H1764 0.950 . S
C1793 C1792 1.397 . S
C1793 C1794 1.334 . S
C1794 H1765 0.950 . S
C1794 C1793 1.334 . S
C1794 C1795 1.287 . S
C1795 C1794 1.287 . S
C1795 C1796 1.524 . S
C1795 H1798 0.999 . S
C1796 H1766 0.950 . S
C1796 C1795 1.524 . S
C1796 C1797 1.415 . S
C1797 H1767 0.950 . S
C1797 C1792 1.363 . S
C1797 C1796 1.415 . S
H1798 C1795 0.999 . S
H1799 C1780 0.913 . S
C619 C391 1.805 . S
C634 C490 1.782 . S
C684 C520 1.680 . S
C669 C451 1.669 . S
C734 N554 1.698 . S
C719 C241 1.583 . S
C784 N584 1.258 . S
C769 C331 1.225 . S
C834 C481 1.788 1_565 S
C819 C121 1.725 . S
C869 C211 1.684 . S
C884 C511 1.680 . S
C919 C31 1.695 . S
C934 N546 1.698 . S
C969 C91 1.229 1_455 S
C984 N576 1.261 . S
C1034 C496 0.736 . S
C1019 C301 0.985 1_455 S
C1084 C526 0.316 . S
C1069 C380 0.273 . S
C1134 C567 0.205 . S
C1119 C440 0.231 . S
C1169 C260 0.666 . S
C1184 C597 0.378 . S
C1219 C61 0.953 . S
C1234 C507 0.729 . S
C1284 C537 0.314 . S
C1269 C140 0.544 . S
C1334 C556 0.205 . S
C1319 C200 0.134 . S
C1369 C20 0.585 . S
C1384 C586 0.385 . S
C1419 C320 1.655 1_455 S
C1434 N486 1.638 . S
C1469 C361 1.662 . S
C1484 N516 1.794 . S
C1534 C541 1.809 . S
C1519 C421 1.621 . S
C1584 C571 2.112 . S
C1569 C271 2.026 . S
C1619 C80 1.655 . S
C1634 N494 1.640 . S
C1684 N524 1.793 . S
C1669 C151 1.819 . S
C1734 C550 1.809 . S
C1719 C181 1.647 . S
C1769 C1 1.872 . S
C1784 C580 2.117 . S
