# Generated by pormake.
# Topology apo, (3,6)-cn, num edge types: 1
# Building blocks:
#     Node 0, Type 0, BuildingBlock: MIDCAF_clean_linker_0, # of connection points: 3
#     Node 1, Type 0, BuildingBlock: MIDCAF_clean_linker_0, # of connection points: 3
#     Node 2, Type 0, BuildingBlock: MIDCAF_clean_linker_0, # of connection points: 3
#     Node 3, Type 0, BuildingBlock: MIDCAF_clean_linker_0, # of connection points: 3
#     Node 4, Type 0, BuildingBlock: MIDCAF_clean_linker_0, # of connection points: 3
#     Node 5, Type 0, BuildingBlock: MIDCAF_clean_linker_0, # of connection points: 3
#     Node 6, Type 0, BuildingBlock: MIDCAF_clean_linker_0, # of connection points: 3
#     Node 7, Type 0, BuildingBlock: MIDCAF_clean_linker_0, # of connection points: 3
#     Node 8, Type 1, BuildingBlock: KUMJIN_clean_sbu_1, # of connection points: 6
#     Node 9, Type 1, BuildingBlock: KUMJIN_clean_sbu_1, # of connection points: 6
#     Node 10, Type 1, BuildingBlock: KUMJIN_clean_sbu_1, # of connection points: 6
#     Node 11, Type 1, BuildingBlock: KUMJIN_clean_sbu_1, # of connection points: 6
#     Edge 12, Type (0, 1), BuildingBlock: OJICUG_clean_linker_0, # of connection points: 2
#     Edge 13, Type (0, 1), BuildingBlock: OJICUG_clean_linker_0, # of connection points: 2
#     Edge 14, Type (0, 1), BuildingBlock: OJICUG_clean_linker_0, # of connection points: 2
#     Edge 15, Type (0, 1), BuildingBlock: OJICUG_clean_linker_0, # of connection points: 2
#     Edge 16, Type (0, 1), BuildingBlock: OJICUG_clean_linker_0, # of connection points: 2
#     Edge 17, Type (0, 1), BuildingBlock: OJICUG_clean_linker_0, # of connection points: 2
#     Edge 18, Type (0, 1), BuildingBlock: OJICUG_clean_linker_0, # of connection points: 2
#     Edge 19, Type (0, 1), BuildingBlock: OJICUG_clean_linker_0, # of connection points: 2
#     Edge 20, Type (0, 1), BuildingBlock: OJICUG_clean_linker_0, # of connection points: 2
#     Edge 21, Type (0, 1), BuildingBlock: OJICUG_clean_linker_0, # of connection points: 2
#     Edge 22, Type (0, 1), BuildingBlock: OJICUG_clean_linker_0, # of connection points: 2
#     Edge 23, Type (0, 1), BuildingBlock: OJICUG_clean_linker_0, # of connection points: 2
#     Edge 24, Type (0, 1), BuildingBlock: OJICUG_clean_linker_0, # of connection points: 2
#     Edge 25, Type (0, 1), BuildingBlock: OJICUG_clean_linker_0, # of connection points: 2
#     Edge 26, Type (0, 1), BuildingBlock: OJICUG_clean_linker_0, # of connection points: 2
#     Edge 27, Type (0, 1), BuildingBlock: OJICUG_clean_linker_0, # of connection points: 2
#     Edge 28, Type (0, 1), BuildingBlock: OJICUG_clean_linker_0, # of connection points: 2
#     Edge 29, Type (0, 1), BuildingBlock: OJICUG_clean_linker_0, # of connection points: 2
#     Edge 30, Type (0, 1), BuildingBlock: OJICUG_clean_linker_0, # of connection points: 2
#     Edge 31, Type (0, 1), BuildingBlock: OJICUG_clean_linker_0, # of connection points: 2
#     Edge 32, Type (0, 1), BuildingBlock: OJICUG_clean_linker_0, # of connection points: 2
#     Edge 33, Type (0, 1), BuildingBlock: OJICUG_clean_linker_0, # of connection points: 2
#     Edge 34, Type (0, 1), BuildingBlock: OJICUG_clean_linker_0, # of connection points: 2
#     Edge 35, Type (0, 1), BuildingBlock: OJICUG_clean_linker_0, # of connection points: 2
# Relax obj value: 0.008
# Max RMSD: 0.110
# Mean RMSD: 0.085
data_MOF--net-apo--node1-KUMJIN_clean_sbu_1--node2-MIDCAF_clean_linker_0--edge1-OJICUG_clean_linker_0
_symmetry_space_group_name_H-M    P1
_symmetry_Int_Tables_number       1
_symmetry_cell_setting            triclinic
loop_
_symmetry_equiv_pos_as_xyz
'x, y, z'
_cell_length_a     22.792792
_cell_length_b     40.287982
_cell_length_c     51.499852
_cell_angle_alpha  90.076688
_cell_angle_beta   89.975048
_cell_angle_gamma 90.152953
loop_
_atom_site_label
_atom_site_type_symbol
_atom_site_fract_x
_atom_site_fract_y
_atom_site_fract_z
_atom_type_partial_charge
C0 C 0.34499 0.39651 0.49777 0.0
C1 C 0.31709 0.37082 0.51157 0.0
C2 C 0.27954 0.34913 0.49802 0.0
C3 C 0.27093 0.35256 0.47135 0.0
H4 H 0.23317 0.29464 0.40436 0.0
H5 H 0.18125 0.25146 0.37997 0.0
H6 H 0.14415 0.32179 0.31906 0.0
H7 H 0.19656 0.36489 0.34313 0.0
H8 H 0.33415 0.41005 0.33813 0.0
H9 H 0.37556 0.45572 0.31303 0.0
H10 H 0.37575 0.51763 0.38146 0.0
H11 H 0.33489 0.47163 0.40694 0.0
H12 H 0.35875 0.41991 0.46093 0.0
H13 H 0.37441 0.41355 0.50757 0.0
H14 H 0.25612 0.32957 0.50808 0.0
H15 H 0.24175 0.33523 0.46171 0.0
N16 N 0.26031 0.35697 0.41588 0.0
N17 N 0.27499 0.38536 0.37678 0.0
N18 N 0.31307 0.40713 0.41558 0.0
C19 C 0.25211 0.35915 0.38983 0.0
C20 C 0.30556 0.40939 0.38943 0.0
C21 C 0.29056 0.38089 0.42895 0.0
C22 C 0.21912 0.33316 0.37564 0.0
C23 C 0.21374 0.30093 0.38582 0.0
C24 C 0.18432 0.2762 0.37184 0.0
C25 C 0.15877 0.28339 0.34768 0.0
C26 C 0.16316 0.3157 0.33773 0.0
C27 C 0.19346 0.34027 0.35145 0.0
C28 C 0.3312 0.43725 0.37453 0.0
C29 C 0.34295 0.43337 0.34789 0.0
C30 C 0.36693 0.4594 0.33352 0.0
C31 C 0.37877 0.49006 0.34536 0.0
C32 C 0.3667 0.49419 0.37192 0.0
C33 C 0.34368 0.46786 0.38648 0.0
C34 C 0.29927 0.37795 0.45743 0.0
C35 C 0.33615 0.40006 0.471 0.0
C36 C 0.16007 0.10495 1.00352 0.0
C37 C 0.19273 0.12878 0.01738 0.0
C38 C 0.23262 0.14892 1.0037 0.0
C39 C 0.23899 0.1458 0.97688 0.0
H40 H 0.32889 0.18649 0.9123 0.0
H41 H 0.37761 0.23022 0.88716 0.0
H42 H 0.28058 0.20055 0.81898 0.0
H43 H 0.2325 0.15676 0.84379 0.0
H44 H 0.23492 0.06724 0.84846 0.0
H45 H 0.19643 0.02069 0.82352 0.0
H46 H 0.06957 0.00094 0.88385 0.0
H47 H 0.10849 0.04764 0.90919 0.0
H48 H 0.14069 0.0832 0.96652 0.0
H49 H 0.1286 0.0892 0.01336 0.0
H50 H 0.25965 0.16696 0.01375 0.0
H51 H 0.27018 0.16182 0.96711 0.0
N52 N 0.24158 0.14353 0.92099 0.0
N53 N 0.22544 0.11475 0.88214 0.0
N54 N 0.19045 0.0928 0.92136 0.0
C55 C 0.24759 0.14146 0.89482 0.0
C56 C 0.19714 0.09027 0.8952 0.0
C57 C 0.21286 0.11936 0.93441 0.0
C58 C 0.27698 0.16815 0.88001 0.0
C59 C 0.31799 0.18935 0.89195 0.0
C60 C 0.34608 0.2142 0.87758 0.0
C61 C 0.33274 0.21867 0.85118 0.0
C62 C 0.29138 0.19771 0.83934 0.0
C63 C 0.26414 0.17255 0.85354 0.0
C64 C 0.17456 0.0612 0.88077 0.0
C65 C 0.19889 0.05299 0.85651 0.0
C66 C 0.17717 0.02621 0.84227 0.0
C67 C 0.13011 0.00731 0.85179 0.0
C68 C 0.10575 0.01531 0.87607 0.0
C69 C 0.12819 0.04187 0.89058 0.0
C70 C 0.20615 0.12217 0.96297 0.0
C71 C 0.16686 0.10161 0.97662 0.0
C72 C 0.83792 0.1166 0.51403 0.0
C73 C 0.8146 0.14493 0.50195 0.0
C74 C 0.78175 0.16731 0.51702 0.0
C75 C 0.77318 0.16192 0.5435 0.0
H76 H 0.71021 0.20924 0.60948 0.0
H77 H 0.65816 0.24976 0.63614 0.0
H78 H 0.66128 0.18163 0.70085 0.0
H79 H 0.7144 0.14173 0.67465 0.0
H80 H 0.82952 0.09381 0.67384 0.0
H81 H 0.86621 0.04667 0.69786 0.0
H82 H 0.87264 0.98901 0.62706 0.0
H83 H 0.83758 0.03715 0.60263 0.0
H84 H 0.84834 0.08924 0.5494 0.0
H85 H 0.86354 0.0989 0.503 0.0
H86 H 0.76192 0.18899 0.50828 0.0
H87 H 0.74772 0.17991 0.55431 0.0
N88 N 0.7579 0.15161 0.59828 0.0
N89 N 0.77398 0.12085 0.63604 0.0
N90 N 0.81165 0.10189 0.59634 0.0
C91 C 0.75027 0.14768 0.62425 0.0
C92 C 0.80467 0.0979 0.6224 0.0
C93 C 0.78848 0.12884 0.58413 0.0
C94 C 0.71691 0.17223 0.63989 0.0
C95 C 0.69973 0.2029 0.62938 0.0
C96 C 0.66961 0.22609 0.64465 0.0
C97 C 0.65572 0.21907 0.67074 0.0
C98 C 0.67221 0.18821 0.68104 0.0
C99 C 0.7025 0.16518 0.66589 0.0
C100 C 0.83005 0.06917 0.63632 0.0
C101 C 0.83874 0.07113 0.66329 0.0
C102 C 0.85948 0.04393 0.67715 0.0
C103 C 0.87141 0.01373 0.66455 0.0
C104 C 0.86414 0.01191 0.63741 0.0
C105 C 0.84391 0.03945 0.6234 0.0
C106 C 0.79704 0.13387 0.55576 0.0
C107 C 0.82934 0.11116 0.54067 0.0
C108 C 0.6672 0.38817 0.01043 0.0
C109 C 0.68898 0.35959 0.99801 0.0
C110 C 0.72011 0.33632 0.01293 0.0
C111 C 0.72909 0.34128 0.03943 0.0
H112 H 0.78036 0.29062 0.10654 0.0
H113 H 0.82575 0.248 0.13355 0.0
H114 H 0.85578 0.32078 0.19384 0.0
H115 H 0.80939 0.36288 0.16739 0.0
H116 H 0.75997 0.43206 0.16315 0.0
H117 H 0.72687 0.47908 0.18854 0.0
H118 H 0.59687 0.50128 0.13009 0.0
H119 H 0.63116 0.45424 0.10412 0.0
H120 H 0.6592 0.41554 0.04601 0.0
H121 H 0.64275 0.40653 0.9996 0.0
H122 H 0.73886 0.31441 1.00403 0.0
H123 H 0.7537 0.32275 0.05001 0.0
N124 N 0.74783 0.35129 0.09389 0.0
N125 N 0.74422 0.38463 0.13099 0.0
N126 N 0.7028 0.40375 0.09215 0.0
C127 C 0.76043 0.35594 0.11939 0.0
C128 C 0.71548 0.40861 0.11771 0.0
C129 C 0.71929 0.37511 0.08004 0.0
C130 C 0.79075 0.33013 0.13484 0.0
C131 C 0.79685 0.2975 0.12553 0.0
C132 C 0.82305 0.2731 0.14098 0.0
C133 C 0.84393 0.28089 0.16599 0.0
C134 C 0.83898 0.31369 0.17496 0.0
C135 C 0.81261 0.33794 0.15965 0.0
C136 C 0.69779 0.43915 0.13167 0.0
C137 C 0.72444 0.44697 0.15555 0.0
C138 C 0.70528 0.4739 0.17024 0.0
C139 C 0.65868 0.49368 0.16157 0.0
C140 C 0.63316 0.48662 0.13726 0.0
C141 C 0.65268 0.45965 0.12239 0.0
C142 C 0.70767 0.36985 0.0519 0.0
C143 C 0.67644 0.39325 0.03708 0.0
C144 C 0.63505 0.60253 0.51719 0.0
C145 C 0.67717 0.61223 0.49867 0.0
C146 C 0.73046 0.626 0.50759 0.0
C147 C 0.74185 0.62894 0.53424 0.0
H148 H 0.77793 0.70477 0.60199 0.0
H149 H 0.82828 0.74881 0.62637 0.0
H150 H 0.86699 0.67901 0.68754 0.0
H151 H 0.81775 0.63539 0.66342 0.0
H152 H 0.69158 0.59 0.67374 0.0
H153 H 0.65288 0.54539 0.70078 0.0
H154 H 0.6292 0.48408 0.63279 0.0
H155 H 0.66748 0.52887 0.60545 0.0
H156 H 0.61416 0.59617 0.55737 0.0
H157 H 0.5927 0.59291 0.51132 0.0
H158 H 0.76437 0.63347 0.49408 0.0
H159 H 0.78376 0.63881 0.54054 0.0
N160 N 0.74749 0.64133 0.59175 0.0
N161 N 0.73802 0.61474 0.63206 0.0
N162 N 0.69359 0.59162 0.59535 0.0
C163 C 0.7593 0.64025 0.61766 0.0
C164 C 0.70536 0.59035 0.62114 0.0
C165 C 0.71445 0.61696 0.58054 0.0
C166 C 0.79368 0.66662 0.63078 0.0
C167 C 0.79791 0.69883 0.62048 0.0
C168 C 0.82627 0.72405 0.63451 0.0
C169 C 0.85159 0.71732 0.65885 0.0
C170 C 0.84856 0.68492 0.66873 0.0
C171 C 0.8199 0.65995 0.65492 0.0
C172 C 0.68243 0.56301 0.63741 0.0
C173 C 0.67834 0.56701 0.66449 0.0
C174 C 0.65603 0.54156 0.68 0.0
C175 C 0.63817 0.51142 0.66882 0.0
C176 C 0.6431 0.50709 0.64184 0.0
C177 C 0.66457 0.53278 0.62623 0.0
C178 C 0.70078 0.61751 0.5525 0.0
C179 C 0.64706 0.60469 0.5437 0.0
C180 C 0.84015 0.90607 0.00968 0.0
C181 C 0.81129 0.88284 0.99377 0.0
C182 C 0.77796 0.85759 1.00558 0.0
C183 C 0.77136 0.8566 0.03262 0.0
H184 H 0.74127 0.79398 0.10531 0.0
H185 H 0.69485 0.75073 0.13146 0.0
H186 H 0.61553 0.82628 0.17976 0.0
H187 H 0.66479 0.86896 0.15465 0.0
H188 H 0.74353 0.93728 0.16093 0.0
H189 H 0.78094 0.98303 0.18742 0.0
H190 H 0.92263 0.99776 0.133 0.0
H191 H 0.88495 0.95229 0.10619 0.0
H192 H 0.85535 0.92402 0.0481 0.0
H193 H 0.86698 0.92549 1.00125 0.0
H194 H 0.75477 0.83947 0.99387 0.0
H195 H 0.74372 0.8375 0.04099 0.0
N196 N 0.75435 0.85813 0.08885 0.0
N197 N 0.75836 0.88817 0.12791 0.0
N198 N 0.80432 0.90917 0.09075 0.0
C199 C 0.74044 0.86099 0.11446 0.0
C200 C 0.79063 0.91222 0.11628 0.0
C201 C 0.78599 0.88239 0.07679 0.0
C202 C 0.7071 0.83477 0.12811 0.0
C203 C 0.71352 0.80119 0.12142 0.0
C204 C 0.68666 0.77642 0.13641 0.0
C205 C 0.65189 0.78481 0.15809 0.0
C206 C 0.64341 0.81862 0.16383 0.0
C207 C 0.67122 0.84322 0.14925 0.0
C208 C 0.81144 0.94109 0.13152 0.0
C209 C 0.78245 0.9504 0.1545 0.0
C210 C 0.80357 0.97668 0.16959 0.0
C211 C 0.85464 0.99378 0.16223 0.0
C212 C 0.88328 0.98481 0.13911 0.0
C213 C 0.86156 0.95891 0.12375 0.0
C214 C 0.79793 0.88087 0.04843 0.0
C215 C 0.83353 0.90513 0.03662 0.0
C216 C 0.15932 0.8859 0.50409 0.0
C217 C 0.17419 0.85549 0.51566 0.0
C218 C 0.20191 0.83113 0.50047 0.0
C219 C 0.21377 0.83672 0.47429 0.0
H220 H 0.33045 0.80774 0.40969 0.0
H221 H 0.38165 0.7676 0.38247 0.0
H222 H 0.2748 0.7968 0.31693 0.0
H223 H 0.22691 0.83819 0.34379 0.0
H224 H 0.24609 0.92912 0.35123 0.0
H225 H 0.21188 0.97648 0.32659 0.0
H226 H 0.08442 0.998 0.38638 0.0
H227 H 0.11999 0.95071 0.41162 0.0
H228 H 0.15862 0.9151 0.46936 0.0
H229 H 0.13791 0.90514 0.51529 0.0
H230 H 0.21522 0.80771 0.50891 0.0
H231 H 0.23506 0.8172 0.46333 0.0
N232 N 0.23744 0.84819 0.42032 0.0
N233 N 0.22984 0.88084 0.38296 0.0
N234 N 0.19299 0.90074 0.42251 0.0
C235 C 0.247 0.85234 0.39452 0.0
C236 C 0.20328 0.90523 0.39674 0.0
C237 C 0.21014 0.87222 0.43447 0.0
C238 C 0.27515 0.82622 0.37879 0.0
C239 C 0.31802 0.8054 0.38947 0.0
C240 C 0.34709 0.78226 0.37382 0.0
C241 C 0.33287 0.77893 0.34729 0.0
C242 C 0.28839 0.79916 0.33699 0.0
C243 C 0.26045 0.82276 0.35246 0.0
C244 C 0.18518 0.93589 0.38324 0.0
C245 C 0.21094 0.94399 0.35927 0.0
C246 C 0.1912 0.97111 0.34506 0.0
C247 C 0.14479 0.99068 0.3543 0.0
C248 C 0.12047 0.98347 0.37879 0.0
C249 C 0.14068 0.95635 0.3932 0.0
C250 C 0.19831 0.8669 0.46251 0.0
C251 C 0.17108 0.89151 0.47774 0.0
C252 C 0.35105 0.61509 1.00509 0.0
C253 C 0.32251 0.63992 0.0195 0.0
C254 C 0.27867 0.65885 0.00742 0.0
C255 C 0.26485 0.65375 0.98127 0.0
H256 H 0.16991 0.69582 0.91684 0.0
H257 H 0.11938 0.73758 0.89065 0.0
H258 H 0.20762 0.70103 0.82204 0.0
H259 H 0.25554 0.65884 0.84781 0.0
H260 H 0.24841 0.57344 0.85277 0.0
H261 H 0.28077 0.52644 0.82718 0.0
H262 H 0.40264 0.49936 0.88775 0.0
H263 H 0.36887 0.54634 0.91395 0.0
H264 H 0.36017 0.59068 0.96836 0.0
H265 H 0.38479 0.59999 0.01396 0.0
H266 H 0.25635 0.67838 0.01795 0.0
H267 H 0.23157 0.66922 0.97247 0.0
N268 N 0.25378 0.64983 0.9253 0.0
N269 N 0.26134 0.6189 0.88696 0.0
N270 N 0.29918 0.59741 0.9257 0.0
C271 C 0.24402 0.64685 0.89939 0.0
C272 C 0.28851 0.594 0.89985 0.0
C273 C 0.28158 0.62524 0.93859 0.0
C274 C 0.21602 0.67375 0.88434 0.0
C275 C 0.17845 0.69687 0.89616 0.0
C276 C 0.14973 0.72087 0.88116 0.0
C277 C 0.15868 0.72241 0.85412 0.0
C278 C 0.19814 0.70001 0.84263 0.0
C279 C 0.22598 0.67587 0.85747 0.0
C280 C 0.3065 0.56391 0.88534 0.0
C281 C 0.28202 0.55749 0.86078 0.0
C282 C 0.30075 0.53055 0.846 0.0
C283 C 0.34488 0.50938 0.85522 0.0
C284 C 0.36826 0.51509 0.88014 0.0
C285 C 0.3491 0.54207 0.89511 0.0
C286 C 0.29411 0.62934 0.96668 0.0
C287 C 0.33673 0.60969 0.979 0.0
Eu288 Eu 0.06801 0.13293 0.237 0.0
C289 C 0.81216 0.09577 0.26513 0.0
N290 N 0.83463 0.12692 0.26276 0.0
C291 C 0.75095 0.14387 0.23803 0.0
C292 C 0.75818 0.08733 0.25344 0.0
C293 C 0.80483 0.15104 0.24975 0.0
C294 C 0.72759 0.11186 0.2398 0.0
C295 C 0.82179 0.03955 0.28134 0.0
C296 C 0.84411 0.07209 0.27872 0.0
C297 C 0.76857 0.0309 0.26933 0.0
C298 C 0.73683 0.05472 0.25545 0.0
Eu299 Eu 0.92487 0.13712 0.28359 0.0
N300 N 0.89572 0.08111 0.29014 0.0
C301 C 0.85272 0.01687 0.29661 0.0
C302 C 0.92245 0.06003 0.30713 0.0
C303 C 0.90262 0.02738 0.30999 0.0
H304 H 0.82253 0.17585 0.24861 0.0
H305 H 0.92498 0.01061 0.32304 0.0
H306 H 0.15997 0.07466 0.25875 0.0
H307 H 0.10173 0.26664 0.22468 0.0
H308 H 0.95752 0.06847 0.31941 0.0
H309 H 0.83703 0.99166 0.29912 0.0
H310 H 0.04847 0.21374 0.22086 0.0
H311 H 0.72748 0.16303 0.22765 0.0
H312 H 0.75107 0.00596 0.27101 0.0
H313 H 0.69565 0.04772 0.24645 0.0
H314 H 0.25971 0.07115 0.27742 0.0
H315 H 0.68598 0.10634 0.23057 0.0
H316 H 0.20122 0.2679 0.2438 0.0
N317 N 0.1631 0.12697 0.25417 0.0
C318 C 0.19538 0.15525 0.25651 0.0
C319 C 0.24205 0.09496 0.27172 0.0
C320 C 0.25261 0.15439 0.26684 0.0
C321 C 0.18548 0.09702 0.26137 0.0
C322 C 0.27573 0.12377 0.27453 0.0
N323 N 0.11527 0.1853 0.23897 0.0
C324 C 0.09099 0.21389 0.22983 0.0
C325 C 0.20344 0.21493 0.25077 0.0
C326 C 0.171 0.18522 0.24855 0.0
C327 C 0.17775 0.24454 0.24239 0.0
C328 C 0.1215 0.24395 0.23168 0.0
H329 H 0.31956 0.12208 0.28255 0.0
H330 H 0.32886 0.18383 0.27715 0.0
H331 H 0.28584 0.23677 0.26311 0.0
O332 O 0.0636 0.1384 0.19483 0.0
O333 O 0.07761 0.15953 0.27567 0.0
O334 O 0.98656 0.18136 0.28466 0.0
O335 O 0.12775 0.10551 0.21168 0.0
O336 O 0.9889 0.16146 0.22201 0.0
O337 O 0.93647 0.18154 0.25731 0.0
O338 O 0.90969 0.13698 0.32608 0.0
O339 O 0.916 0.11442 0.24306 0.0
O340 O 0.00527 0.0898 0.23905 0.0
O341 O 0.85643 0.16777 0.30045 0.0
O342 O 0.00924 0.11425 0.29946 0.0
O343 O 0.05049 0.08943 0.26348 0.0
C344 C 0.04381 0.18122 0.28735 0.0
C345 C 0.15379 0.13343 0.17299 0.0
C346 C 0.189 0.14405 0.12904 0.0
C347 C 0.23575 0.16265 0.13939 0.0
C348 C 0.20113 0.15181 0.1829 0.0
C349 C 0.24181 0.16635 0.16618 0.0
C350 C 0.1481 0.12935 0.14601 0.0
C351 C 0.95036 0.18183 0.23248 0.0
C352 C 0.109 0.11959 0.19052 0.0
C353 C 0.28486 0.184 0.2692 0.0
C354 C 0.26034 0.21416 0.2612 0.0
C355 C 0.95023 0.09221 0.23224 0.0
C356 C 0.83249 0.1711 0.3462 0.0
C357 C 0.81207 0.17513 0.3927 0.0
C358 C 0.7682 0.1986 0.3874 0.0
C359 C 0.78814 0.19453 0.3415 0.0
C360 C 0.84392 0.16109 0.37196 0.0
C361 C 0.75622 0.20807 0.36197 0.0
C362 C 0.04426 0.09205 0.28881 0.0
C363 C 0.8669 0.1582 0.32405 0.0
H364 H 0.26809 0.17397 0.12675 0.0
H365 H 0.20673 0.15498 0.20353 0.0
H366 H 0.27813 0.18054 0.174 0.0
H367 H 0.11141 0.11532 0.13823 0.0
H368 H 0.74277 0.20948 0.40301 0.0
H369 H 0.7782 0.20263 0.32194 0.0
H370 H 0.87805 0.14311 0.37593 0.0
H371 H 0.72222 0.22611 0.35812 0.0
Eu372 Eu 0.42029 0.36743 0.73529 0.0
C373 C 0.66556 0.41423 0.7603 0.0
N374 N 0.64925 0.38176 0.75948 0.0
C375 C 0.73161 0.3688 0.73249 0.0
C376 C 0.71492 0.42545 0.74631 0.0
C377 C 0.68194 0.35886 0.74643 0.0
C378 C 0.74792 0.40227 0.73225 0.0
C379 C 0.64768 0.47022 0.77574 0.0
C380 C 0.63183 0.43636 0.77472 0.0
C381 C 0.69596 0.48164 0.76128 0.0
C382 C 0.72951 0.45932 0.74664 0.0
Eu383 Eu 0.56472 0.36727 0.78313 0.0
N384 N 0.58482 0.42469 0.78833 0.0
C385 C 0.61544 0.49147 0.79179 0.0
C386 C 0.55724 0.44467 0.80589 0.0
C387 C 0.57083 0.47848 0.80735 0.0
H388 H 0.66912 0.33304 0.74659 0.0
H389 H 0.54771 0.49434 0.82088 0.0
H390 H 0.33506 0.43141 0.75286 0.0
H391 H 0.36382 0.23687 0.72128 0.0
H392 H 0.52615 0.43456 0.81948 0.0
H393 H 0.62622 0.51763 0.79312 0.0
H394 H 0.4273 0.28668 0.71962 0.0
H395 H 0.75713 0.35068 0.72187 0.0
H396 H 0.70832 0.50762 0.76164 0.0
H397 H 0.76695 0.46847 0.7358 0.0
H398 H 0.23451 0.44089 0.76917 0.0
H399 H 0.78617 0.40993 0.72127 0.0
H400 H 0.2626 0.24121 0.73834 0.0
N401 N 0.32491 0.37909 0.75052 0.0
C402 C 0.28766 0.35281 0.75246 0.0
C403 C 0.24906 0.41595 0.76476 0.0
C404 C 0.22946 0.35712 0.76109 0.0
C405 C 0.30623 0.41048 0.75591 0.0
C406 C 0.2106 0.38913 0.76754 0.0
N407 N 0.36353 0.31832 0.73668 0.0
C408 C 0.38346 0.28866 0.72737 0.0
C409 C 0.26929 0.29394 0.74608 0.0
C410 C 0.30725 0.32159 0.74507 0.0
C411 C 0.29036 0.26308 0.73778 0.0
C412 C 0.34752 0.2605 0.72818 0.0
H413 H 0.1662 0.39348 0.77422 0.0
H414 H 0.14698 0.33234 0.7693 0.0
H415 H 0.18189 0.27705 0.7562 0.0
O416 O 0.43673 0.36192 0.69356 0.0
O417 O 0.41545 0.32995 0.76807 0.0
O418 O 0.49466 0.33197 0.79686 0.0
O419 O 0.36434 0.39186 0.70677 0.0
O420 O 0.49876 0.33648 0.72293 0.0
O421 O 0.55348 0.32052 0.75908 0.0
O422 O 0.59989 0.37406 0.8225 0.0
O423 O 0.56662 0.3843 0.74092 0.0
O424 O 0.48015 0.41159 0.73895 0.0
O425 O 0.63031 0.33279 0.79841 0.0
O426 O 0.47844 0.38658 0.79959 0.0
O427 O 0.43522 0.40967 0.7636 0.0
C428 C 0.44365 0.32035 0.78906 0.0
C429 C 0.35137 0.36252 0.66757 0.0
C430 C 0.32342 0.35183 0.62257 0.0
C431 C 0.27847 0.33068 0.63137 0.0
C432 C 0.30551 0.34175 0.67581 0.0
C433 C 0.26953 0.32582 0.65784 0.0
C434 C 0.35988 0.36783 0.64083 0.0
C435 C 0.53653 0.3168 0.73473 0.0
C436 C 0.39016 0.37851 0.6868 0.0
C437 C 0.19178 0.32952 0.76263 0.0
C438 C 0.21164 0.29803 0.75514 0.0
C439 C 0.53513 0.40903 0.73226 0.0
C440 C 0.6724 0.33711 0.84181 0.0
C441 C 0.69643 0.33353 0.88796 0.0
C442 C 0.74242 0.3117 0.88188 0.0
C443 C 0.71877 0.31536 0.83623 0.0
C444 C 0.66192 0.34664 0.86778 0.0
C445 C 0.75373 0.30294 0.85617 0.0
C446 C 0.43974 0.40656 0.78894 0.0
C447 C 0.63336 0.34807 0.82065 0.0
H448 H 0.24946 0.31837 0.61773 0.0
H449 H 0.29703 0.33803 0.69613 0.0
H450 H 0.23437 0.30981 0.66445 0.0
H451 H 0.39494 0.38401 0.63428 0.0
H452 H 0.76974 0.30148 0.8971 0.0
H453 H 0.72778 0.30774 0.81645 0.0
H454 H 0.62583 0.3631 0.8724 0.0
H455 H 0.78933 0.28614 0.85171 0.0
Eu456 Eu 0.07067 0.85468 0.736 0.0
C457 C 0.81737 0.81235 0.75566 0.0
N458 N 0.83503 0.84459 0.75461 0.0
C459 C 0.75406 0.85801 0.72695 0.0
C460 C 0.76775 0.80152 0.74165 0.0
C461 C 0.80396 0.86754 0.74088 0.0
C462 C 0.73605 0.82482 0.7272 0.0
C463 C 0.83225 0.75653 0.77188 0.0
C464 C 0.84994 0.79008 0.77037 0.0
C465 C 0.78374 0.74547 0.75741 0.0
C466 C 0.75157 0.7679 0.74235 0.0
Eu467 Eu 0.92009 0.8586 0.77824 0.0
N468 N 0.89703 0.80145 0.78411 0.0
C469 C 0.86256 0.73531 0.7886 0.0
C470 C 0.92189 0.7817 0.8026 0.0
C471 C 0.90664 0.74816 0.80449 0.0
H472 H 0.81821 0.89314 0.74056 0.0
H473 H 0.92789 0.73246 0.81868 0.0
H474 H 0.15494 0.79706 0.7645 0.0
H475 H 0.11354 0.98675 0.71905 0.0
H476 H 0.95205 0.79173 0.81666 0.0
H477 H 0.85034 0.70939 0.79032 0.0
H478 H 0.0569 0.93497 0.71698 0.0
H479 H 0.72971 0.87619 0.71591 0.0
H480 H 0.76999 0.71972 0.75816 0.0
H481 H 0.71388 0.75905 0.73153 0.0
H482 H 0.25129 0.79353 0.78621 0.0
H483 H 0.69763 0.81746 0.7162 0.0
H484 H 0.21168 0.98733 0.73946 0.0
N485 N 0.16199 0.8487 0.75695 0.0
C486 C 0.19642 0.87627 0.75793 0.0
C487 C 0.23622 0.817 0.77853 0.0
C488 C 0.25218 0.87528 0.76978 0.0
C489 C 0.18127 0.81917 0.76664 0.0
C490 C 0.27178 0.8452 0.7802 0.0
N491 N 0.12047 0.90632 0.73704 0.0
C492 C 0.09878 0.93475 0.72643 0.0
C493 C 0.20957 0.935 0.74896 0.0
C494 C 0.17529 0.90583 0.74758 0.0
C495 C 0.18673 0.96441 0.73874 0.0
C496 C 0.13124 0.96422 0.72732 0.0
H497 H 0.31436 0.84344 0.78943 0.0
H498 H 0.32933 0.90396 0.78006 0.0
H499 H 0.29202 0.9562 0.7619 0.0
O500 O 0.07973 0.85758 0.69303 0.0
O501 O 0.07518 0.8837 0.77391 0.0
O502 O 0.98109 0.9028 0.78131 0.0
O503 O 0.13372 0.82391 0.71613 0.0
O504 O 0.99587 0.88481 0.71839 0.0
O505 O 0.93508 0.90292 0.75203 0.0
O506 O 0.89599 0.8587 0.81983 0.0
O507 O 0.91775 0.83909 0.73669 0.0
O508 O 0.00528 0.81261 0.73593 0.0
O509 O 0.84745 0.88891 0.7921 0.0
O510 O 0.00266 0.8379 0.7973 0.0
O511 O 0.04549 0.81237 0.76241 0.0
C512 C 0.03791 0.90373 0.78551 0.0
C513 C 0.1517 0.82218 0.67009 0.0
C514 C 0.16894 0.82039 0.62335 0.0
C515 C 0.20884 0.79431 0.62704 0.0
C516 C 0.19213 0.79613 0.67322 0.0
C517 C 0.22049 0.78241 0.65183 0.0
C518 C 0.14065 0.8346 0.64499 0.0
C519 C 0.95503 0.90465 0.72796 0.0
C520 C 0.12093 0.8351 0.69323 0.0
C521 C 0.28642 0.90426 0.77102 0.0
C522 C 0.26518 0.93402 0.76066 0.0
C523 C 0.95215 0.8163 0.72694 0.0
C524 C 0.81401 0.89172 0.83678 0.0
C525 C 0.78943 0.89923 0.88264 0.0
C526 C 0.73965 0.91745 0.87526 0.0
C527 C 0.76392 0.91003 0.82999 0.0
C528 C 0.8263 0.886 0.86325 0.0
C529 C 0.72696 0.92265 0.84913 0.0
C530 C 0.03972 0.81622 0.78756 0.0
C531 C 0.85318 0.87944 0.81603 0.0
H532 H 0.2314 0.78327 0.61065 0.0
H533 H 0.2017 0.78607 0.69224 0.0
H534 H 0.25142 0.76236 0.65448 0.0
H535 H 0.10961 0.85462 0.64222 0.0
H536 H 0.71022 0.92754 0.88978 0.0
H537 H 0.7532 0.91465 0.80983 0.0
H538 H 0.86501 0.87213 0.86876 0.0
H539 H 0.68844 0.93667 0.84369 0.0
Eu540 Eu 0.4388 0.63767 0.23146 0.0
C541 C 0.70053 0.66922 0.25107 0.0
N542 N 0.67166 0.64007 0.25502 0.0
C543 C 0.74895 0.61049 0.2335 0.0
C544 C 0.75383 0.6702 0.23715 0.0
C545 C 0.69679 0.61073 0.24779 0.0
C546 C 0.77708 0.6404 0.22774 0.0
C547 C 0.71002 0.72804 0.26061 0.0
C548 C 0.67896 0.69785 0.26256 0.0
C549 C 0.76158 0.72943 0.24572 0.0
C550 C 0.78335 0.70059 0.23395 0.0
Eu551 Eu 0.5817 0.64386 0.27799 0.0
N552 N 0.62855 0.69592 0.27651 0.0
C553 C 0.68896 0.75574 0.27417 0.0
C554 C 0.60925 0.72225 0.29082 0.0
C555 C 0.6388 0.75269 0.28965 0.0
H556 H 0.6774 0.58734 0.25334 0.0
H557 H 0.62283 0.77377 0.30059 0.0
H558 H 0.33354 0.6693 0.26889 0.0
H559 H 0.45361 0.51379 0.18773 0.0
H560 H 0.57046 0.71977 0.30276 0.0
H561 H 0.71166 0.77937 0.27321 0.0
H562 H 0.47478 0.57353 0.19159 0.0
H563 H 0.76794 0.58718 0.22733 0.0
H564 H 0.78567 0.7525 0.24369 0.0
H565 H 0.82403 0.70185 0.2231 0.0
H566 H 0.24728 0.64977 0.29392 0.0
H567 H 0.81791 0.6401 0.21695 0.0
H568 H 0.37733 0.48811 0.21545 0.0
N569 N 0.35484 0.62124 0.25488 0.0
C570 C 0.33907 0.58877 0.25321 0.0
C571 C 0.27296 0.63233 0.28269 0.0
C572 C 0.2906 0.57647 0.26725 0.0
C573 C 0.32176 0.64331 0.26861 0.0
C574 C 0.25768 0.5987 0.28225 0.0
N575 N 0.41704 0.58092 0.22349 0.0
C576 C 0.44406 0.56233 0.20485 0.0
C577 C 0.35645 0.53407 0.2352 0.0
C578 C 0.37183 0.56789 0.23745 0.0
C579 C 0.38773 0.51421 0.21774 0.0
C580 C 0.43098 0.52857 0.20214 0.0
H581 H 0.22006 0.59023 0.2933 0.0
H582 H 0.23984 0.53255 0.27667 0.0
H583 H 0.29741 0.49542 0.24857 0.0
O584 O 0.38945 0.63235 0.19524 0.0
O585 O 0.43804 0.61857 0.27312 0.0
O586 O 0.52928 0.5963 0.27711 0.0
O587 O 0.38898 0.67915 0.21559 0.0
O588 O 0.52459 0.61731 0.21544 0.0
O589 O 0.57428 0.59839 0.25162 0.0
O590 O 0.56992 0.64517 0.32013 0.0
O591 O 0.55892 0.68625 0.25056 0.0
O592 O 0.52306 0.65889 0.21512 0.0
O593 O 0.65301 0.63006 0.30405 0.0
O594 O 0.49796 0.66737 0.29309 0.0
O595 O 0.44376 0.68367 0.25701 0.0
C596 C 0.47299 0.5955 0.28208 0.0
C597 C 0.39332 0.68061 0.16955 0.0
C598 C 0.39427 0.68175 0.12209 0.0
C599 C 0.43283 0.709 0.12291 0.0
C600 C 0.4317 0.70803 0.16985 0.0
C601 C 0.451 0.72215 0.14665 0.0
C602 C 0.37414 0.66784 0.14554 0.0
C603 C 0.56284 0.59739 0.22652 0.0
C604 C 0.3767 0.66375 0.19397 0.0
C605 C 0.27653 0.54257 0.2658 0.0
C606 C 0.30944 0.52141 0.24986 0.0
C607 C 0.55226 0.68372 0.22533 0.0
C608 C 0.62446 0.606 0.34375 0.0
C609 C 0.63754 0.58706 0.38848 0.0
C610 C 0.63299 0.55404 0.37955 0.0
C611 C 0.61876 0.57301 0.33544 0.0
C612 C 0.63306 0.61297 0.3702 0.0
C613 C 0.62312 0.54719 0.35331 0.0
C614 C 0.45783 0.68593 0.28181 0.0
C615 C 0.62181 0.6334 0.32504 0.0
H616 H 0.44852 0.72034 0.10514 0.0
H617 H 0.44762 0.71831 0.18797 0.0
H618 H 0.48063 0.74319 0.14706 0.0
H619 H 0.34509 0.64648 0.1451 0.0
H620 H 0.6377 0.53332 0.39273 0.0
H621 H 0.61146 0.56727 0.31513 0.0
H622 H 0.63563 0.63864 0.37643 0.0
H623 H 0.61932 0.52172 0.34679 0.0
C624 C 0.1031 0.04796 0.34825 0.0
C625 C 0.12021 0.01729 0.33768 0.0
H626 H 0.06628 0.09596 0.34095 0.0
C627 C 0.11308 0.01181 0.3109 0.0
H628 H 0.10851 0.05301 0.36877 0.0
C629 C 0.08942 0.03634 0.29504 0.0
C630 C 0.07206 0.06691 0.30558 0.0
H631 H 0.12467 0.98823 0.3022 0.0
H632 H 0.08358 0.03101 0.27458 0.0
C633 C 0.07927 0.07257 0.33232 0.0
C634 C 0.38161 0.45101 0.8485 0.0
C635 C 0.36763 0.48237 0.8383 0.0
H636 H 0.41455 0.40216 0.84071 0.0
C637 C 0.37596 0.48807 0.81161 0.0
H638 H 0.37525 0.44574 0.86892 0.0
C639 C 0.39782 0.46314 0.79552 0.0
C640 C 0.41207 0.43189 0.8057 0.0
H641 H 0.36692 0.51213 0.80318 0.0
H642 H 0.40527 0.46877 0.77522 0.0
C643 C 0.40364 0.42601 0.83234 0.0
C644 C 0.63357 0.45234 0.68383 0.0
C645 C 0.61263 0.48505 0.68525 0.0
H646 H 0.6256 0.40247 0.698 0.0
C647 C 0.56659 0.49256 0.70238 0.0
H648 H 0.66939 0.44607 0.67091 0.0
C649 C 0.54123 0.4677 0.71754 0.0
C650 C 0.56216 0.43502 0.71616 0.0
H651 H 0.5496 0.51759 0.70373 0.0
H652 H 0.50563 0.47412 0.73054 0.0
C653 C 0.60879 0.42753 0.69935 0.0
C654 C 0.84393 0.04576 0.18859 0.0
C655 C 0.87936 0.01989 0.17925 0.0
H656 H 0.83938 0.08994 0.21153 0.0
C657 C 0.93844 0.01855 0.1868 0.0
H658 H 0.79837 0.04752 0.18278 0.0
C659 C 0.96137 0.04215 0.2039 0.0
C660 C 0.92587 0.06788 0.21355 0.0
H661 H 0.96656 0.99873 0.17996 0.0
H662 H 0.00688 0.04 0.20969 0.0
C663 C 0.86725 0.06983 0.20525 0.0
C664 C 0.93354 0.96252 0.67044 0.0
C665 C 0.89075 0.98447 0.67998 0.0
H666 H 0.98713 0.92003 0.67789 0.0
C667 C 0.86747 0.97885 0.70491 0.0
H668 H 0.95276 0.96616 0.65142 0.0
C669 C 0.88793 0.95285 0.72028 0.0
C670 C 0.93173 0.93138 0.71104 0.0
H671 H 0.83336 0.99467 0.71269 0.0
H672 H 0.86954 0.94984 0.73952 0.0
C673 C 0.95357 0.93617 0.68574 0.0
C674 C 0.63066 0.51626 0.20532 0.0
C675 C 0.63595 0.52084 0.17831 0.0
H676 H 0.6036 0.53691 0.24175 0.0
C677 C 0.61902 0.55136 0.16753 0.0
H678 H 0.64244 0.49287 0.21422 0.0
C679 C 0.59665 0.57652 0.18335 0.0
C680 C 0.59065 0.57168 0.21024 0.0
H681 H 0.6233 0.55586 0.14689 0.0
H682 H 0.58354 0.59972 0.17448 0.0
C683 C 0.60841 0.54145 0.22112 0.0
C684 C 0.45418 0.51229 0.3147 0.0
C685 C 0.40377 0.51752 0.32983 0.0
H686 H 0.51593 0.53312 0.28789 0.0
C687 C 0.37662 0.54876 0.32947 0.0
H688 H 0.47598 0.48842 0.31478 0.0
C689 C 0.39907 0.5742 0.31389 0.0
C690 C 0.44938 0.56889 0.2987 0.0
H691 H 0.33746 0.55329 0.34085 0.0
H692 H 0.37727 0.59806 0.31383 0.0
C693 C 0.47709 0.53784 0.29944 0.0
C694 C 0.14378 0.95632 0.82478 0.0
C695 C 0.10605 0.97981 0.83597 0.0
H696 H 0.15178 0.91322 0.801 0.0
C697 C 0.04558 0.97763 0.8311 0.0
H698 H 0.19055 0.95724 0.82848 0.0
C699 C 0.02342 0.95289 0.81475 0.0
C700 C 0.06126 0.92961 0.80318 0.0
H701 H 0.01564 0.99559 0.8394 0.0
H702 H 0.97665 0.95224 0.81106 0.0
C703 C 0.12154 0.93126 0.80882 0.0
C704 C 0.18962 0.16435 0.05742 0.0
C705 C 0.18607 0.13267 0.04599 0.0
H706 H 0.19299 0.19269 0.09258 0.0
C707 C 0.1786 0.10488 0.06223 0.0
H708 H 0.19369 0.18641 0.04556 0.0
C709 C 0.17712 0.10863 0.08925 0.0
C710 C 0.1837 0.14018 0.10053 0.0
H711 H 0.17611 0.08009 0.05415 0.0
H712 H 0.17332 0.08675 0.10135 0.0
C713 C 0.18886 0.16802 0.08435 0.0
C714 C 0.32943 0.33437 0.55061 0.0
C715 C 0.32621 0.36645 0.53998 0.0
H716 H 0.33177 0.30474 0.58504 0.0
C717 C 0.32862 0.39395 0.55686 0.0
H718 H 0.32935 0.31265 0.5382 0.0
C719 C 0.331 0.38933 0.58381 0.0
C720 C 0.33058 0.35717 0.5943 0.0
H721 H 0.32599 0.419 0.54936 0.0
H722 H 0.33013 0.41084 0.59645 0.0
C723 C 0.33126 0.3298 0.57743 0.0
C724 C 0.68745 0.38038 0.9517 0.0
C725 C 0.68151 0.35408 0.96954 0.0
H726 H 0.69616 0.39446 0.91159 0.0
C727 C 0.67298 0.32175 0.95985 0.0
H728 H 0.69426 0.40557 0.95842 0.0
C729 C 0.67503 0.31547 0.93322 0.0
C730 C 0.68454 0.3414 0.91556 0.0
H731 H 0.66649 0.30102 0.97292 0.0
H732 H 0.67095 0.2901 0.92642 0.0
C733 C 0.68868 0.37408 0.9249 0.0
C734 C 0.83294 0.18399 0.46497 0.0
C735 C 0.8233 0.15138 0.47373 0.0
H736 H 0.83767 0.21682 0.4324 0.0
C737 C 0.81797 0.12577 0.45522 0.0
H738 H 0.83887 0.20418 0.47863 0.0
C739 C 0.81824 0.13305 0.42858 0.0
C740 C 0.82354 0.16604 0.4201 0.0
H741 H 0.81046 0.10039 0.4613 0.0
H742 H 0.81086 0.11322 0.41472 0.0
C743 C 0.83273 0.19124 0.4385 0.0
C744 C 0.805 0.91852 0.95412 0.0
C745 C 0.81188 0.8868 0.96503 0.0
H746 H 0.79338 0.94719 0.91959 0.0
C747 C 0.81604 0.85922 0.94832 0.0
H748 H 0.80097 0.94028 0.96636 0.0
C749 C 0.81164 0.86326 0.92133 0.0
C750 C 0.80223 0.89489 0.91067 0.0
H751 H 0.82187 0.8345 0.95612 0.0
H752 H 0.8132 0.84156 0.90891 0.0
C753 C 0.80017 0.92249 0.92732 0.0
C754 C 0.63281 0.5791 0.46205 0.0
C755 C 0.6662 0.60657 0.47036 0.0
H756 H 0.59556 0.55228 0.43038 0.0
C757 C 0.68954 0.62797 0.45137 0.0
H758 H 0.61495 0.56152 0.47585 0.0
C759 C 0.68039 0.62176 0.4249 0.0
C760 C 0.64686 0.59426 0.41667 0.0
H761 H 0.71482 0.64965 0.45686 0.0
H762 H 0.70048 0.63833 0.41094 0.0
C763 C 0.62265 0.57331 0.43571 0.0
C764 C 0.2987 0.65322 0.06604 0.0
C765 C 0.34071 0.64754 0.04653 0.0
H766 H 0.28287 0.6681 0.10547 0.0
C767 C 0.40048 0.6511 0.05262 0.0
H768 H 0.25235 0.65042 0.06193 0.0
C769 C 0.4178 0.6614 0.07737 0.0
C770 C 0.37578 0.66799 0.09665 0.0
H771 H 0.43382 0.64712 0.03795 0.0
H772 H 0.46413 0.66469 0.08135 0.0
C773 C 0.31612 0.66311 0.09095 0.0
C774 C 0.14291 0.81734 0.55138 0.0
C775 C 0.16237 0.84891 0.54356 0.0
H776 H 0.129 0.78384 0.58301 0.0
C777 C 0.17516 0.87284 0.56271 0.0
H778 H 0.13132 0.79862 0.53714 0.0
C779 C 0.17289 0.86443 0.5891 0.0
C780 C 0.158 0.832 0.5966 0.0
H781 H 0.19033 0.89737 0.55729 0.0
H782 H 0.18649 0.88253 0.60348 0.0
C783 C 0.14105 0.80893 0.5776 0.0
C784 C 0.15658 0.22665 0.32799 0.0
C785 C 0.12865 0.25709 0.33259 0.0
H786 H 0.15166 0.17886 0.30999 0.0
C787 C 0.07229 0.26243 0.32239 0.0
H788 H 0.20027 0.22207 0.33542 0.0
C789 C 0.04416 0.2376 0.30798 0.0
C790 C 0.07235 0.20725 0.30318 0.0
H791 H 0.04984 0.28571 0.32574 0.0
H792 H 0.00077 0.24238 0.30029 0.0
C793 C 0.12886 0.20205 0.3133 0.0
C794 C 0.42265 0.24904 0.83613 0.0
C795 C 0.36138 0.24524 0.83592 0.0
H796 H 0.49691 0.2755 0.82107 0.0
C797 C 0.32739 0.26673 0.82071 0.0
H798 H 0.44981 0.23265 0.84763 0.0
C799 C 0.35415 0.29144 0.80588 0.0
C800 C 0.41547 0.29473 0.80542 0.0
H801 H 0.27997 0.26473 0.8206 0.0
H802 H 0.32663 0.30841 0.79527 0.0
C803 C 0.44951 0.27351 0.82094 0.0
C804 C 0.63965 0.2479 0.71357 0.0
C805 C 0.62449 0.24377 0.68726 0.0
H806 H 0.62367 0.27366 0.74922 0.0
C807 C 0.57912 0.26329 0.67697 0.0
H808 H 0.6749 0.23364 0.72211 0.0
C809 C 0.55008 0.28654 0.69248 0.0
C810 C 0.56553 0.29086 0.71874 0.0
H811 H 0.56559 0.26043 0.65693 0.0
H812 H 0.5156 0.30122 0.68375 0.0
C813 C 0.61039 0.27103 0.72914 0.0
C814 C 0.8591 0.25479 0.20974 0.0
C815 C 0.87045 0.25504 0.18289 0.0
H816 H 0.87563 0.23193 0.24643 0.0
C817 C 0.90795 0.2308 0.17247 0.0
H818 H 0.82969 0.27275 0.21838 0.0
C819 C 0.93375 0.20704 0.18855 0.0
C820 C 0.92276 0.20698 0.21544 0.0
H821 H 0.91822 0.23051 0.15194 0.0
H822 H 0.96256 0.18881 0.17984 0.0
C823 C 0.88514 0.23117 0.22583 0.0
C824 C 0.93267 0.73775 0.6876 0.0
C825 C 0.87966 0.74389 0.67455 0.0
H826 H 0.99714 0.75579 0.71432 0.0
C827 C 0.85209 0.77476 0.67789 0.0
H828 H 0.95526 0.71433 0.68519 0.0
C829 C 0.87624 0.7986 0.69453 0.0
C830 C 0.92829 0.79201 0.70818 0.0
H831 H 0.81095 0.7801 0.66826 0.0
H832 H 0.85383 0.82206 0.69691 0.0
C833 C 0.9568 0.76157 0.70419 0.0
C834 C 0.6071 0.72799 0.16499 0.0
C835 C 0.62599 0.75866 0.17518 0.0
H836 H 0.56955 0.68021 0.17281 0.0
C837 C 0.61997 0.76423 0.20206 0.0
H838 H 0.60988 0.72287 0.14439 0.0
C839 C 0.59502 0.74018 0.21812 0.0
C840 C 0.57724 0.70944 0.20804 0.0
H841 H 0.63489 0.78713 0.21089 0.0
H842 H 0.58934 0.74584 0.23847 0.0
C843 C 0.58333 0.7036 0.18126 0.0
C844 C 0.38531 0.72461 0.34039 0.0
C845 C 0.3646 0.75486 0.33033 0.0
H846 H 0.43133 0.67934 0.33294 0.0
C847 C 0.37471 0.76196 0.30389 0.0
H848 H 0.37738 0.71777 0.3604 0.0
C849 C 0.40418 0.73936 0.28797 0.0
C850 C 0.42553 0.70957 0.29827 0.0
H851 H 0.36074 0.78522 0.29546 0.0
H852 H 0.41142 0.74554 0.26775 0.0
C853 C 0.41596 0.70242 0.3246 0.0
C854 C 0.11467 0.77902 0.84632 0.0
C855 C 0.12633 0.74655 0.83762 0.0
H856 H 0.07786 0.82664 0.8372 0.0
C857 C 0.10742 0.7372 0.81264 0.0
H858 H 0.12896 0.78718 0.86534 0.0
C859 C 0.07931 0.75989 0.79651 0.0
C860 C 0.06862 0.79237 0.80505 0.0
H861 H 0.11404 0.7122 0.80549 0.0
H862 H 0.06557 0.75191 0.77735 0.0
C863 C 0.08571 0.80167 0.83021 0.0
loop_
_geom_bond_atom_site_label_1
_geom_bond_atom_site_label_2
_geom_bond_distance
_geom_bond_site_symmetry_2
_ccdc_geom_bond_type
C0 C1 1.384 . S
C0 H13 0.947 . S
C0 C35 1.382 . S
C1 C0 1.384 . S
C1 C2 1.378 . S
C2 C1 1.378 . S
C2 C3 1.378 . S
C2 H14 0.952 . S
C3 C2 1.378 . S
C3 H15 0.950 . S
C3 C34 1.383 . S
H4 C23 0.947 . S
H5 C24 0.946 . S
H6 C26 0.953 . S
H7 C27 0.945 . S
H8 C29 0.952 . S
H9 C30 0.949 . S
H10 C32 0.950 . S
H11 C33 0.948 . S
H12 C35 0.951 . S
H13 C0 0.947 . S
H14 C2 0.952 . S
H15 C3 0.950 . S
N16 C19 1.382 . S
N16 C21 1.363 . S
N17 C19 1.371 . S
N17 C20 1.372 . S
N18 C20 1.361 . S
N18 C21 1.377 . S
C19 N16 1.382 . S
C19 N17 1.371 . S
C19 C22 1.480 . S
C20 N17 1.372 . S
C20 N18 1.361 . S
C20 C28 1.457 . S
C21 N16 1.363 . S
C21 N18 1.377 . S
C21 C34 1.479 . S
C22 C19 1.480 . S
C22 C23 1.383 . S
C22 C27 1.385 . S
C23 H4 0.947 . S
C23 C22 1.383 . S
C23 C24 1.388 . S
C24 H5 0.946 . S
C24 C23 1.388 . S
C24 C25 1.384 . S
C25 C24 1.384 . S
C25 C26 1.377 . S
C26 H6 0.953 . S
C26 C25 1.377 . S
C26 C27 1.369 . S
C27 H7 0.945 . S
C27 C22 1.385 . S
C27 C26 1.369 . S
C28 C20 1.457 . S
C28 C29 1.372 . S
C28 C33 1.364 . S
C29 H8 0.952 . S
C29 C28 1.372 . S
C29 C30 1.389 . S
C30 H9 0.949 . S
C30 C29 1.389 . S
C30 C31 1.387 . S
C31 C30 1.387 . S
C31 C32 1.372 . S
C32 H10 0.950 . S
C32 C31 1.372 . S
C32 C33 1.379 . S
C33 H11 0.948 . S
C33 C28 1.364 . S
C33 C32 1.379 . S
C34 C3 1.383 . S
C34 C21 1.479 . S
C34 C35 1.398 . S
C35 C0 1.382 . S
C35 H12 0.951 . S
C35 C34 1.398 . S
C36 C37 1.384 1_556 S
C36 H49 0.947 . S
C36 C71 1.382 . S
C37 C36 1.384 1_554 S
C37 C38 1.378 1_554 S
C38 C37 1.378 1_556 S
C38 C39 1.378 . S
C38 H50 0.938 1_556 S
C39 C38 1.378 . S
C39 H51 0.950 . S
C39 C70 1.383 . S
H40 C59 0.947 . S
H41 C60 0.946 . S
H42 C62 0.953 . S
H43 C63 0.945 . S
H44 C65 0.952 . S
H45 C66 0.949 . S
H46 C68 0.950 1_565 S
H47 C69 0.948 . S
H48 C71 0.951 . S
H49 C36 0.947 . S
H50 C38 0.938 1_554 S
H51 C39 0.950 . S
N52 C55 1.382 . S
N52 C57 1.363 . S
N53 C55 1.371 . S
N53 C56 1.372 . S
N54 C56 1.361 . S
N54 C57 1.377 . S
C55 N52 1.382 . S
C55 N53 1.371 . S
C55 C58 1.480 . S
C56 N53 1.372 . S
C56 N54 1.361 . S
C56 C64 1.457 . S
C57 N52 1.363 . S
C57 N54 1.377 . S
C57 C70 1.479 . S
C58 C55 1.480 . S
C58 C59 1.383 . S
C58 C63 1.385 . S
C59 H40 0.947 . S
C59 C58 1.383 . S
C59 C60 1.388 . S
C60 H41 0.946 . S
C60 C59 1.388 . S
C60 C61 1.384 . S
C61 C60 1.384 . S
C61 C62 1.377 . S
C62 H42 0.953 . S
C62 C61 1.377 . S
C62 C63 1.369 . S
C63 H43 0.945 . S
C63 C58 1.385 . S
C63 C62 1.369 . S
C64 C56 1.457 . S
C64 C65 1.372 . S
C64 C69 1.364 . S
C65 H44 0.952 . S
C65 C64 1.372 . S
C65 C66 1.389 . S
C66 H45 0.949 . S
C66 C65 1.389 . S
C66 C67 1.387 . S
C67 C66 1.387 . S
C67 C68 1.372 . S
C68 H46 0.950 1_545 S
C68 C67 1.372 . S
C68 C69 1.379 . S
C69 H47 0.948 . S
C69 C64 1.364 . S
C69 C68 1.379 . S
C70 C39 1.383 . S
C70 C57 1.479 . S
C70 C71 1.398 . S
C71 C36 1.382 . S
C71 H48 0.951 . S
C71 C70 1.398 . S
C72 C73 1.384 . S
C72 H85 0.947 . S
C72 C107 1.382 . S
C73 C72 1.384 . S
C73 C74 1.378 . S
C74 C73 1.378 . S
C74 C75 1.378 . S
C74 H86 0.952 . S
C75 C74 1.378 . S
C75 H87 0.950 . S
C75 C106 1.383 . S
H76 C95 0.947 . S
H77 C96 0.946 . S
H78 C98 0.953 . S
H79 C99 0.945 . S
H80 C101 0.952 . S
H81 C102 0.949 . S
H82 C104 0.950 1_565 S
H83 C105 0.948 . S
H84 C107 0.951 . S
H85 C72 0.947 . S
H86 C74 0.952 . S
H87 C75 0.950 . S
N88 C91 1.382 . S
N88 C93 1.363 . S
N89 C91 1.371 . S
N89 C92 1.372 . S
N90 C92 1.361 . S
N90 C93 1.377 . S
C91 N88 1.382 . S
C91 N89 1.371 . S
C91 C94 1.480 . S
C92 N89 1.372 . S
C92 N90 1.361 . S
C92 C100 1.457 . S
C93 N88 1.363 . S
C93 N90 1.377 . S
C93 C106 1.479 . S
C94 C91 1.480 . S
C94 C95 1.383 . S
C94 C99 1.385 . S
C95 H76 0.947 . S
C95 C94 1.383 . S
C95 C96 1.388 . S
C96 H77 0.946 . S
C96 C95 1.388 . S
C96 C97 1.384 . S
C97 C96 1.384 . S
C97 C98 1.377 . S
C98 H78 0.953 . S
C98 C97 1.377 . S
C98 C99 1.369 . S
C99 H79 0.945 . S
C99 C94 1.385 . S
C99 C98 1.369 . S
C100 C92 1.457 . S
C100 C101 1.372 . S
C100 C105 1.364 . S
C101 H80 0.952 . S
C101 C100 1.372 . S
C101 C102 1.389 . S
C102 H81 0.949 . S
C102 C101 1.389 . S
C102 C103 1.387 . S
C103 C102 1.387 . S
C103 C104 1.372 . S
C104 H82 0.950 1_545 S
C104 C103 1.372 . S
C104 C105 1.379 . S
C105 H83 0.948 . S
C105 C100 1.364 . S
C105 C104 1.379 . S
C106 C75 1.383 . S
C106 C93 1.479 . S
C106 C107 1.398 . S
C107 C72 1.382 . S
C107 H84 0.951 . S
C107 C106 1.398 . S
C108 C109 1.371 1_554 S
C108 H121 0.947 . S
C108 C143 1.382 . S
C109 C108 1.371 1_556 S
C109 C110 1.367 1_556 S
C110 C109 1.367 1_554 S
C110 C111 1.378 . S
C110 H122 0.952 . S
C111 C110 1.378 . S
C111 H123 0.950 . S
C111 C142 1.383 . S
H112 C131 0.947 . S
H113 C132 0.946 . S
H114 C134 0.953 . S
H115 C135 0.945 . S
H116 C137 0.952 . S
H117 C138 0.949 . S
H118 C140 0.950 . S
H119 C141 0.948 . S
H120 C143 0.951 . S
H121 C108 0.947 . S
H122 C110 0.952 . S
H123 C111 0.950 . S
N124 C127 1.382 . S
N124 C129 1.363 . S
N125 C127 1.371 . S
N125 C128 1.372 . S
N126 C128 1.361 . S
N126 C129 1.377 . S
C127 N124 1.382 . S
C127 N125 1.371 . S
C127 C130 1.480 . S
C128 N125 1.372 . S
C128 N126 1.361 . S
C128 C136 1.457 . S
C129 N124 1.363 . S
C129 N126 1.377 . S
C129 C142 1.479 . S
C130 C127 1.480 . S
C130 C131 1.383 . S
C130 C135 1.385 . S
C131 H112 0.947 . S
C131 C130 1.383 . S
C131 C132 1.388 . S
C132 H113 0.946 . S
C132 C131 1.388 . S
C132 C133 1.384 . S
C133 C132 1.384 . S
C133 C134 1.377 . S
C134 H114 0.953 . S
C134 C133 1.377 . S
C134 C135 1.369 . S
C135 H115 0.945 . S
C135 C130 1.385 . S
C135 C134 1.369 . S
C136 C128 1.457 . S
C136 C137 1.372 . S
C136 C141 1.364 . S
C137 H116 0.952 . S
C137 C136 1.372 . S
C137 C138 1.389 . S
C138 H117 0.949 . S
C138 C137 1.389 . S
C138 C139 1.387 . S
C139 C138 1.387 . S
C139 C140 1.372 . S
C140 H118 0.950 . S
C140 C139 1.372 . S
C140 C141 1.379 . S
C141 H119 0.948 . S
C141 C136 1.364 . S
C141 C140 1.379 . S
C142 C111 1.383 . S
C142 C129 1.479 . S
C142 C143 1.398 . S
C143 C108 1.382 . S
C143 H120 0.951 . S
C143 C142 1.398 . S
C144 C145 1.384 . S
C144 H157 0.947 . S
C144 C179 1.382 . S
C145 C144 1.384 . S
C145 C146 1.378 . S
C146 C145 1.378 . S
C146 C147 1.378 . S
C146 H158 0.952 . S
C147 C146 1.378 . S
C147 H159 0.950 . S
C147 C178 1.383 . S
H148 C167 0.947 . S
H149 C168 0.946 . S
H150 C170 0.953 . S
H151 C171 0.945 . S
H152 C173 0.952 . S
H153 C174 0.949 . S
H154 C176 0.950 . S
H155 C177 0.948 . S
H156 C179 0.951 . S
H157 C144 0.947 . S
H158 C146 0.952 . S
H159 C147 0.950 . S
N160 C163 1.382 . S
N160 C165 1.363 . S
N161 C163 1.371 . S
N161 C164 1.372 . S
N162 C164 1.361 . S
N162 C165 1.377 . S
C163 N160 1.382 . S
C163 N161 1.371 . S
C163 C166 1.480 . S
C164 N161 1.372 . S
C164 N162 1.361 . S
C164 C172 1.457 . S
C165 N160 1.363 . S
C165 N162 1.377 . S
C165 C178 1.479 . S
C166 C163 1.480 . S
C166 C167 1.383 . S
C166 C171 1.385 . S
C167 H148 0.947 . S
C167 C166 1.383 . S
C167 C168 1.388 . S
C168 H149 0.946 . S
C168 C167 1.388 . S
C168 C169 1.384 . S
C169 C168 1.384 . S
C169 C170 1.377 . S
C170 H150 0.953 . S
C170 C169 1.377 . S
C170 C171 1.369 . S
C171 H151 0.945 . S
C171 C166 1.385 . S
C171 C170 1.369 . S
C172 C164 1.457 . S
C172 C173 1.372 . S
C172 C177 1.364 . S
C173 H152 0.952 . S
C173 C172 1.372 . S
C173 C174 1.389 . S
C174 H153 0.949 . S
C174 C173 1.389 . S
C174 C175 1.387 . S
C175 C174 1.387 . S
C175 C176 1.372 . S
C176 H154 0.950 . S
C176 C175 1.372 . S
C176 C177 1.379 . S
C177 H155 0.948 . S
C177 C172 1.364 . S
C177 C176 1.379 . S
C178 C147 1.383 . S
C178 C165 1.479 . S
C178 C179 1.398 . S
C179 C144 1.382 . S
C179 H156 0.951 . S
C179 C178 1.398 . S
C180 C181 1.384 1_554 S
C180 H193 0.947 . S
C180 C215 1.382 . S
C181 C180 1.384 1_556 S
C181 C182 1.378 1_556 S
C182 C181 1.378 1_554 S
C182 C183 1.378 . S
C182 H194 0.952 1_554 S
C183 C182 1.378 . S
C183 H195 0.950 . S
C183 C214 1.383 . S
H184 C203 0.947 . S
H185 C204 0.946 . S
H186 C206 0.953 . S
H187 C207 0.945 . S
H188 C209 0.952 . S
H189 C210 0.949 . S
H190 C212 0.950 1_545 S
H191 C213 0.948 . S
H192 C215 0.951 . S
H193 C180 0.947 . S
H194 C182 0.952 1_556 S
H195 C183 0.950 . S
N196 C199 1.382 . S
N196 C201 1.363 . S
N197 C199 1.371 . S
N197 C200 1.372 . S
N198 C200 1.361 . S
N198 C201 1.377 . S
C199 N196 1.382 . S
C199 N197 1.371 . S
C199 C202 1.480 . S
C200 N197 1.372 . S
C200 N198 1.361 . S
C200 C208 1.457 . S
C201 N196 1.363 . S
C201 N198 1.377 . S
C201 C214 1.479 . S
C202 C199 1.480 . S
C202 C203 1.383 . S
C202 C207 1.385 . S
C203 H184 0.947 . S
C203 C202 1.383 . S
C203 C204 1.388 . S
C204 H185 0.946 . S
C204 C203 1.388 . S
C204 C205 1.384 . S
C205 C204 1.384 . S
C205 C206 1.377 . S
C206 H186 0.953 . S
C206 C205 1.377 . S
C206 C207 1.369 . S
C207 H187 0.945 . S
C207 C202 1.385 . S
C207 C206 1.369 . S
C208 C200 1.457 . S
C208 C209 1.372 . S
C208 C213 1.364 . S
C209 H188 0.952 . S
C209 C208 1.372 . S
C209 C210 1.389 . S
C210 H189 0.949 . S
C210 C209 1.389 . S
C210 C211 1.387 . S
C211 C210 1.387 . S
C211 C212 1.372 . S
C212 H190 0.950 1_565 S
C212 C211 1.372 . S
C212 C213 1.379 . S
C213 H191 0.948 . S
C213 C208 1.364 . S
C213 C212 1.379 . S
C214 C183 1.383 . S
C214 C201 1.479 . S
C214 C215 1.398 . S
C215 C180 1.382 . S
C215 H192 0.951 . S
C215 C214 1.398 . S
C216 C217 1.384 . S
C216 H229 0.947 . S
C216 C251 1.382 . S
C217 C216 1.384 . S
C217 C218 1.378 . S
C218 C217 1.378 . S
C218 C219 1.378 . S
C218 H230 0.952 . S
C219 C218 1.378 . S
C219 H231 0.950 . S
C219 C250 1.383 . S
H220 C239 0.947 . S
H221 C240 0.946 . S
H222 C242 0.953 . S
H223 C243 0.945 . S
H224 C245 0.952 . S
H225 C246 0.949 . S
H226 C248 0.950 1_545 S
H227 C249 0.948 . S
H228 C251 0.951 . S
H229 C216 0.947 . S
H230 C218 0.952 . S
H231 C219 0.950 . S
N232 C235 1.382 . S
N232 C237 1.363 . S
N233 C235 1.371 . S
N233 C236 1.372 . S
N234 C236 1.361 . S
N234 C237 1.377 . S
C235 N232 1.382 . S
C235 N233 1.371 . S
C235 C238 1.480 . S
C236 N233 1.372 . S
C236 N234 1.361 . S
C236 C244 1.457 . S
C237 N232 1.363 . S
C237 N234 1.377 . S
C237 C250 1.479 . S
C238 C235 1.480 . S
C238 C239 1.383 . S
C238 C243 1.385 . S
C239 H220 0.947 . S
C239 C238 1.383 . S
C239 C240 1.388 . S
C240 H221 0.946 . S
C240 C239 1.388 . S
C240 C241 1.384 . S
C241 C240 1.384 . S
C241 C242 1.377 . S
C242 H222 0.953 . S
C242 C241 1.377 . S
C242 C243 1.369 . S
C243 H223 0.945 . S
C243 C238 1.385 . S
C243 C242 1.369 . S
C244 C236 1.457 . S
C244 C245 1.372 . S
C244 C249 1.364 . S
C245 H224 0.952 . S
C245 C244 1.372 . S
C245 C246 1.389 . S
C246 H225 0.949 . S
C246 C245 1.389 . S
C246 C247 1.387 . S
C247 C246 1.387 . S
C247 C248 1.372 . S
C248 H226 0.950 1_565 S
C248 C247 1.372 . S
C248 C249 1.379 . S
C249 H227 0.948 . S
C249 C244 1.364 . S
C249 C248 1.379 . S
C250 C219 1.383 . S
C250 C237 1.479 . S
C250 C251 1.398 . S
C251 C216 1.382 . S
C251 H228 0.951 . S
C251 C250 1.398 . S
C252 C253 1.384 1_556 S
C252 H265 0.947 . S
C252 C287 1.382 . S
C253 C252 1.384 1_554 S
C253 C254 1.378 1_554 S
C254 C253 1.378 1_556 S
C254 C255 1.378 . S
C254 H266 0.958 . S
C255 C254 1.378 . S
C255 H267 0.950 . S
C255 C286 1.383 . S
H256 C275 0.947 . S
H257 C276 0.946 . S
H258 C278 0.953 . S
H259 C279 0.945 . S
H260 C281 0.952 . S
H261 C282 0.949 . S
H262 C284 0.950 . S
H263 C285 0.948 . S
H264 C287 0.951 . S
H265 C252 0.947 . S
H266 C254 0.958 . S
H267 C255 0.950 . S
N268 C271 1.382 . S
N268 C273 1.363 . S
N269 C271 1.371 . S
N269 C272 1.372 . S
N270 C272 1.361 . S
N270 C273 1.377 . S
C271 N268 1.382 . S
C271 N269 1.371 . S
C271 C274 1.480 . S
C272 N269 1.372 . S
C272 N270 1.361 . S
C272 C280 1.457 . S
C273 N268 1.363 . S
C273 N270 1.377 . S
C273 C286 1.479 . S
C274 C271 1.480 . S
C274 C275 1.383 . S
C274 C279 1.385 . S
C275 H256 0.947 . S
C275 C274 1.383 . S
C275 C276 1.388 . S
C276 H257 0.946 . S
C276 C275 1.388 . S
C276 C277 1.384 . S
C277 C276 1.384 . S
C277 C278 1.377 . S
C278 H258 0.953 . S
C278 C277 1.377 . S
C278 C279 1.369 . S
C279 H259 0.945 . S
C279 C274 1.385 . S
C279 C278 1.369 . S
C280 C272 1.457 . S
C280 C281 1.372 . S
C280 C285 1.364 . S
C281 H260 0.952 . S
C281 C280 1.372 . S
C281 C282 1.389 . S
C282 H261 0.949 . S
C282 C281 1.389 . S
C282 C283 1.387 . S
C283 C282 1.387 . S
C283 C284 1.372 . S
C284 H262 0.950 . S
C284 C283 1.372 . S
C284 C285 1.379 . S
C285 H263 0.948 . S
C285 C280 1.364 . S
C285 C284 1.379 . S
C286 C255 1.383 . S
C286 C273 1.479 . S
C286 C287 1.398 . S
C287 C252 1.382 . S
C287 H264 0.951 . S
C287 C286 1.398 . S
Eu288 N317 2.600 . S
Eu288 N323 2.562 . S
Eu288 O332 2.462 . S
Eu288 O333 2.373 . S
Eu288 O335 2.432 . S
Eu288 O336 2.290 1_455 S
Eu288 O340 2.347 . S
Eu288 O343 2.372 . S
Eu288 C352 2.787 . S
C289 N290 1.365 . S
C289 C292 1.405 . S
C289 C296 1.448 . S
N290 C289 1.365 . S
N290 C293 1.319 . S
N290 Eu299 2.600 . S
C291 C293 1.397 . S
C291 C294 1.367 . S
C291 H311 0.931 . S
C292 C289 1.405 . S
C292 C294 1.403 . S
C292 C298 1.439 . S
C293 N290 1.319 . S
C293 C291 1.397 . S
C293 H304 0.930 . S
C294 C291 1.367 . S
C294 C292 1.403 . S
C294 H315 0.929 . S
C295 C296 1.430 . S
C295 C297 1.387 . S
C295 C301 1.404 . S
C296 C289 1.448 . S
C296 C295 1.430 . S
C296 N300 1.351 . S
C297 C295 1.387 . S
C297 C298 1.374 . S
C297 H312 0.931 . S
C298 C292 1.439 . S
C298 C297 1.374 . S
C298 H313 0.931 . S
Eu299 N290 2.600 . S
Eu299 N300 2.562 . S
Eu299 O334 2.336 1_655 S
Eu299 O337 2.372 . S
Eu299 O338 2.462 . S
Eu299 O339 2.373 . S
Eu299 O341 2.432 . S
Eu299 O342 2.291 1_655 S
Eu299 C363 2.787 . S
N300 C296 1.351 . S
N300 Eu299 2.562 . S
N300 C302 1.325 . S
C301 C295 1.404 . S
C301 C303 1.366 . S
C301 H309 0.930 . S
C302 N300 1.325 . S
C302 C303 1.416 . S
C302 H308 0.929 . S
C303 C301 1.366 . S
C303 C302 1.416 . S
C303 H305 0.930 . S
H304 C293 0.930 . S
H305 C303 0.930 . S
H306 C321 0.930 . S
H307 C328 0.930 . S
H308 C302 0.929 . S
H309 C301 0.930 . S
H310 C324 0.929 . S
H311 C291 0.931 . S
H312 C297 0.931 . S
H313 C298 0.931 . S
H314 C319 0.931 . S
H315 C294 0.929 . S
H316 C327 0.930 . S
N317 Eu288 2.600 . S
N317 C318 1.365 . S
N317 C321 1.319 . S
C318 N317 1.365 . S
C318 C320 1.405 . S
C318 C326 1.448 . S
C319 H314 0.931 . S
C319 C321 1.397 . S
C319 C322 1.367 . S
C320 C318 1.405 . S
C320 C322 1.403 . S
C320 C353 1.439 . S
C321 H306 0.930 . S
C321 N317 1.319 . S
C321 C319 1.397 . S
C322 C319 1.367 . S
C322 C320 1.403 . S
C322 H329 0.929 . S
N323 Eu288 2.562 . S
N323 C324 1.325 . S
N323 C326 1.351 . S
C324 H310 0.929 . S
C324 N323 1.325 . S
C324 C328 1.416 . S
C325 C326 1.430 . S
C325 C327 1.404 . S
C325 C354 1.387 . S
C326 C318 1.448 . S
C326 N323 1.351 . S
C326 C325 1.430 . S
C327 H316 0.930 . S
C327 C325 1.404 . S
C327 C328 1.366 . S
C328 H307 0.930 . S
C328 C324 1.416 . S
C328 C327 1.366 . S
H329 C322 0.929 . S
H330 C353 0.931 . S
H331 C354 0.931 . S
O332 Eu288 2.462 . S
O332 C352 1.252 . S
O333 Eu288 2.373 . S
O333 C344 1.249 . S
O334 Eu299 2.336 1_455 S
O334 C344 1.263 . S
O335 Eu288 2.432 . S
O335 C352 1.268 . S
O336 Eu288 2.290 1_655 S
O336 C351 1.257 . S
O337 Eu299 2.372 . S
O337 C351 1.257 . S
O338 Eu299 2.462 . S
O338 C363 1.252 . S
O339 Eu299 2.373 . S
O339 C355 1.249 . S
O340 Eu288 2.347 . S
O340 C355 1.248 1_455 S
O341 Eu299 2.432 . S
O341 C363 1.268 . S
O342 Eu299 2.291 1_455 S
O342 C362 1.255 . S
O343 Eu288 2.372 . S
O343 C362 1.257 . S
C344 O333 1.249 . S
C344 O334 1.263 . S
C345 C348 1.382 . S
C345 C350 1.390 . S
C345 C352 1.506 . S
C346 C347 1.398 . S
C346 C350 1.392 . S
C347 C346 1.398 . S
C347 C349 1.372 . S
C347 H364 0.931 . S
C348 C345 1.382 . S
C348 C349 1.390 . S
C348 H365 0.931 . S
C349 C347 1.372 . S
C349 C348 1.390 . S
C349 H366 0.929 . S
C350 C345 1.390 . S
C350 C346 1.392 . S
C350 H367 0.930 . S
C351 O336 1.257 . S
C351 O337 1.257 . S
C352 Eu288 2.787 . S
C352 O332 1.252 . S
C352 O335 1.268 . S
C352 C345 1.506 . S
C353 C320 1.439 . S
C353 H330 0.931 . S
C353 C354 1.374 . S
C354 C325 1.387 . S
C354 H331 0.931 . S
C354 C353 1.374 . S
C355 O339 1.249 . S
C355 O340 1.248 1_655 S
C356 C359 1.382 . S
C356 C360 1.390 . S
C356 C363 1.506 . S
C357 C358 1.398 . S
C357 C360 1.392 . S
C358 C357 1.398 . S
C358 C361 1.372 . S
C358 H368 0.931 . S
C359 C356 1.382 . S
C359 C361 1.390 . S
C359 H369 0.931 . S
C360 C356 1.390 . S
C360 C357 1.392 . S
C360 H370 0.930 . S
C361 C358 1.372 . S
C361 C359 1.390 . S
C361 H371 0.929 . S
C362 O342 1.255 . S
C362 O343 1.257 . S
C363 Eu299 2.787 . S
C363 O338 1.252 . S
C363 O341 1.268 . S
C363 C356 1.506 . S
H364 C347 0.931 . S
H365 C348 0.931 . S
H366 C349 0.929 . S
H367 C350 0.930 . S
H368 C358 0.931 . S
H369 C359 0.931 . S
H370 C360 0.930 . S
H371 C361 0.929 . S
Eu372 N401 2.600 . S
Eu372 N407 2.562 . S
Eu372 O416 2.462 . S
Eu372 O417 2.373 . S
Eu372 O419 2.432 . S
Eu372 O420 2.291 . S
Eu372 O424 2.335 . S
Eu372 O427 2.372 . S
Eu372 C436 2.787 . S
C373 N374 1.365 . S
C373 C376 1.405 . S
C373 C380 1.448 . S
N374 C373 1.365 . S
N374 C377 1.319 . S
N374 Eu383 2.600 . S
C375 C377 1.397 . S
C375 C378 1.367 . S
C375 H395 0.931 . S
C376 C373 1.405 . S
C376 C378 1.403 . S
C376 C382 1.439 . S
C377 N374 1.319 . S
C377 C375 1.397 . S
C377 H388 0.930 . S
C378 C375 1.367 . S
C378 C376 1.403 . S
C378 H399 0.929 . S
C379 C380 1.430 . S
C379 C381 1.387 . S
C379 C385 1.404 . S
C380 C373 1.448 . S
C380 C379 1.430 . S
C380 N384 1.351 . S
C381 C379 1.387 . S
C381 C382 1.374 . S
C381 H396 0.931 . S
C382 C376 1.439 . S
C382 C381 1.374 . S
C382 H397 0.931 . S
Eu383 N374 2.600 . S
Eu383 N384 2.562 . S
Eu383 O418 2.335 . S
Eu383 O421 2.372 . S
Eu383 O422 2.462 . S
Eu383 O423 2.373 . S
Eu383 O425 2.432 . S
Eu383 O426 2.291 . S
Eu383 C447 2.787 . S
N384 C380 1.351 . S
N384 Eu383 2.562 . S
N384 C386 1.325 . S
C385 C379 1.404 . S
C385 C387 1.366 . S
C385 H393 0.930 . S
C386 N384 1.325 . S
C386 C387 1.416 . S
C386 H392 0.929 . S
C387 C385 1.366 . S
C387 C386 1.416 . S
C387 H389 0.930 . S
H388 C377 0.930 . S
H389 C387 0.930 . S
H390 C405 0.930 . S
H391 C412 0.930 . S
H392 C386 0.929 . S
H393 C385 0.930 . S
H394 C408 0.929 . S
H395 C375 0.931 . S
H396 C381 0.931 . S
H397 C382 0.931 . S
H398 C403 0.931 . S
H399 C378 0.929 . S
H400 C411 0.930 . S
N401 Eu372 2.600 . S
N401 C402 1.365 . S
N401 C405 1.319 . S
C402 N401 1.365 . S
C402 C404 1.405 . S
C402 C410 1.448 . S
C403 H398 0.931 . S
C403 C405 1.397 . S
C403 C406 1.367 . S
C404 C402 1.405 . S
C404 C406 1.403 . S
C404 C437 1.439 . S
C405 H390 0.930 . S
C405 N401 1.319 . S
C405 C403 1.397 . S
C406 C403 1.367 . S
C406 C404 1.403 . S
C406 H413 0.929 . S
N407 Eu372 2.562 . S
N407 C408 1.325 . S
N407 C410 1.351 . S
C408 H394 0.929 . S
C408 N407 1.325 . S
C408 C412 1.416 . S
C409 C410 1.430 . S
C409 C411 1.404 . S
C409 C438 1.387 . S
C410 C402 1.448 . S
C410 N407 1.351 . S
C410 C409 1.430 . S
C411 H400 0.930 . S
C411 C409 1.404 . S
C411 C412 1.366 . S
C412 H391 0.930 . S
C412 C408 1.416 . S
C412 C411 1.366 . S
H413 C406 0.929 . S
H414 C437 0.931 . S
H415 C438 0.931 . S
O416 Eu372 2.462 . S
O416 C436 1.252 . S
O417 Eu372 2.373 . S
O417 C428 1.249 . S
O418 Eu383 2.335 . S
O418 C428 1.264 . S
O419 Eu372 2.432 . S
O419 C436 1.268 . S
O420 Eu372 2.291 . S
O420 C435 1.255 . S
O421 Eu383 2.372 . S
O421 C435 1.257 . S
O422 Eu383 2.462 . S
O422 C447 1.252 . S
O423 Eu383 2.373 . S
O423 C439 1.249 . S
O424 Eu372 2.335 . S
O424 C439 1.264 . S
O425 Eu383 2.432 . S
O425 C447 1.268 . S
O426 Eu383 2.291 . S
O426 C446 1.255 . S
O427 Eu372 2.372 . S
O427 C446 1.257 . S
C428 O417 1.249 . S
C428 O418 1.264 . S
C429 C432 1.382 . S
C429 C434 1.390 . S
C429 C436 1.506 . S
C430 C431 1.398 . S
C430 C434 1.392 . S
C431 C430 1.398 . S
C431 C433 1.372 . S
C431 H448 0.931 . S
C432 C429 1.382 . S
C432 C433 1.390 . S
C432 H449 0.931 . S
C433 C431 1.372 . S
C433 C432 1.390 . S
C433 H450 0.929 . S
C434 C429 1.390 . S
C434 C430 1.392 . S
C434 H451 0.930 . S
C435 O420 1.255 . S
C435 O421 1.257 . S
C436 Eu372 2.787 . S
C436 O416 1.252 . S
C436 O419 1.268 . S
C436 C429 1.506 . S
C437 C404 1.439 . S
C437 H414 0.931 . S
C437 C438 1.374 . S
C438 C409 1.387 . S
C438 H415 0.931 . S
C438 C437 1.374 . S
C439 O423 1.249 . S
C439 O424 1.264 . S
C440 C443 1.382 . S
C440 C444 1.390 . S
C440 C447 1.506 . S
C441 C442 1.398 . S
C441 C444 1.392 . S
C442 C441 1.398 . S
C442 C445 1.372 . S
C442 H452 0.931 . S
C443 C440 1.382 . S
C443 C445 1.390 . S
C443 H453 0.931 . S
C444 C440 1.390 . S
C444 C441 1.392 . S
C444 H454 0.930 . S
C445 C442 1.372 . S
C445 C443 1.390 . S
C445 H455 0.929 . S
C446 O426 1.255 . S
C446 O427 1.257 . S
C447 Eu383 2.787 . S
C447 O422 1.252 . S
C447 O425 1.268 . S
C447 C440 1.506 . S
H448 C431 0.931 . S
H449 C432 0.931 . S
H450 C433 0.929 . S
H451 C434 0.930 . S
H452 C442 0.931 . S
H453 C443 0.931 . S
H454 C444 0.930 . S
H455 C445 0.929 . S
Eu456 N485 2.600 . S
Eu456 N491 2.562 . S
Eu456 O500 2.462 . S
Eu456 O501 2.373 . S
Eu456 O503 2.432 . S
Eu456 O504 2.291 . S
Eu456 O508 2.335 . S
Eu456 O511 2.372 . S
Eu456 C520 2.787 . S
C457 N458 1.365 . S
C457 C460 1.405 . S
C457 C464 1.448 . S
N458 C457 1.365 . S
N458 C461 1.319 . S
N458 Eu467 2.600 . S
C459 C461 1.397 . S
C459 C462 1.367 . S
C459 H479 0.931 . S
C460 C457 1.405 . S
C460 C462 1.403 . S
C460 C466 1.439 . S
C461 N458 1.319 . S
C461 C459 1.397 . S
C461 H472 0.930 . S
C462 C459 1.367 . S
C462 C460 1.403 . S
C462 H483 0.929 . S
C463 C464 1.430 . S
C463 C465 1.387 . S
C463 C469 1.404 . S
C464 C457 1.448 . S
C464 C463 1.430 . S
C464 N468 1.351 . S
C465 C463 1.387 . S
C465 C466 1.374 . S
C465 H480 0.931 . S
C466 C460 1.439 . S
C466 C465 1.374 . S
C466 H481 0.931 . S
Eu467 N458 2.600 . S
Eu467 N468 2.562 . S
Eu467 O502 2.335 1_655 S
Eu467 O505 2.372 . S
Eu467 O506 2.462 . S
Eu467 O507 2.373 . S
Eu467 O509 2.432 . S
Eu467 O510 2.291 1_655 S
Eu467 C531 2.787 . S
N468 C464 1.351 . S
N468 Eu467 2.562 . S
N468 C470 1.325 . S
C469 C463 1.404 . S
C469 C471 1.366 . S
C469 H477 0.930 . S
C470 N468 1.325 . S
C470 C471 1.416 . S
C470 H476 0.929 . S
C471 C469 1.366 . S
C471 C470 1.416 . S
C471 H473 0.930 . S
H472 C461 0.930 . S
H473 C471 0.930 . S
H474 C489 0.930 . S
H475 C496 0.930 . S
H476 C470 0.929 . S
H477 C469 0.930 . S
H478 C492 0.929 . S
H479 C459 0.931 . S
H480 C465 0.931 . S
H481 C466 0.931 . S
H482 C487 0.931 . S
H483 C462 0.929 . S
H484 C495 0.930 . S
N485 Eu456 2.600 . S
N485 C486 1.365 . S
N485 C489 1.319 . S
C486 N485 1.365 . S
C486 C488 1.405 . S
C486 C494 1.448 . S
C487 H482 0.931 . S
C487 C489 1.397 . S
C487 C490 1.367 . S
C488 C486 1.405 . S
C488 C490 1.403 . S
C488 C521 1.439 . S
C489 H474 0.930 . S
C489 N485 1.319 . S
C489 C487 1.397 . S
C490 C487 1.367 . S
C490 C488 1.403 . S
C490 H497 0.929 . S
N491 Eu456 2.562 . S
N491 C492 1.325 . S
N491 C494 1.351 . S
C492 H478 0.929 . S
C492 N491 1.325 . S
C492 C496 1.416 . S
C493 C494 1.430 . S
C493 C495 1.404 . S
C493 C522 1.387 . S
C494 C486 1.448 . S
C494 N491 1.351 . S
C494 C493 1.430 . S
C495 H484 0.930 . S
C495 C493 1.404 . S
C495 C496 1.366 . S
C496 H475 0.930 . S
C496 C492 1.416 . S
C496 C495 1.366 . S
H497 C490 0.929 . S
H498 C521 0.931 . S
H499 C522 0.931 . S
O500 Eu456 2.462 . S
O500 C520 1.252 . S
O501 Eu456 2.373 . S
O501 C512 1.249 . S
O502 Eu467 2.335 1_455 S
O502 C512 1.264 . S
O503 Eu456 2.432 . S
O503 C520 1.268 . S
O504 Eu456 2.291 . S
O504 C519 1.255 1_455 S
O505 Eu467 2.372 . S
O505 C519 1.257 . S
O506 Eu467 2.462 . S
O506 C531 1.252 . S
O507 Eu467 2.373 . S
O507 C523 1.249 . S
O508 Eu456 2.335 . S
O508 C523 1.264 1_455 S
O509 Eu467 2.432 . S
O509 C531 1.268 . S
O510 Eu467 2.291 1_455 S
O510 C530 1.255 . S
O511 Eu456 2.372 . S
O511 C530 1.257 . S
C512 O501 1.249 . S
C512 O502 1.264 . S
C513 C516 1.382 . S
C513 C518 1.390 . S
C513 C520 1.506 . S
C514 C515 1.398 . S
C514 C518 1.392 . S
C515 C514 1.398 . S
C515 C517 1.372 . S
C515 H532 0.931 . S
C516 C513 1.382 . S
C516 C517 1.390 . S
C516 H533 0.931 . S
C517 C515 1.372 . S
C517 C516 1.390 . S
C517 H534 0.929 . S
C518 C513 1.390 . S
C518 C514 1.392 . S
C518 H535 0.930 . S
C519 O504 1.255 1_655 S
C519 O505 1.257 . S
C520 Eu456 2.787 . S
C520 O500 1.252 . S
C520 O503 1.268 . S
C520 C513 1.506 . S
C521 C488 1.439 . S
C521 H498 0.931 . S
C521 C522 1.374 . S
C522 C493 1.387 . S
C522 H499 0.931 . S
C522 C521 1.374 . S
C523 O507 1.249 . S
C523 O508 1.264 1_655 S
C524 C527 1.382 . S
C524 C528 1.390 . S
C524 C531 1.506 . S
C525 C526 1.398 . S
C525 C528 1.392 . S
C526 C525 1.398 . S
C526 C529 1.372 . S
C526 H536 0.931 . S
C527 C524 1.382 . S
C527 C529 1.390 . S
C527 H537 0.931 . S
C528 C524 1.390 . S
C528 C525 1.392 . S
C528 H538 0.930 . S
C529 C526 1.372 . S
C529 C527 1.390 . S
C529 H539 0.929 . S
C530 O510 1.255 . S
C530 O511 1.257 . S
C531 Eu467 2.787 . S
C531 O506 1.252 . S
C531 O509 1.268 . S
C531 C524 1.506 . S
H532 C515 0.931 . S
H533 C516 0.931 . S
H534 C517 0.929 . S
H535 C518 0.930 . S
H536 C526 0.931 . S
H537 C527 0.931 . S
H538 C528 0.930 . S
H539 C529 0.929 . S
Eu540 N569 2.600 . S
Eu540 N575 2.562 . S
Eu540 O584 2.462 . S
Eu540 O585 2.373 . S
Eu540 O587 2.432 . S
Eu540 O588 2.291 . S
Eu540 O592 2.335 . S
Eu540 O595 2.372 . S
Eu540 C604 2.787 . S
C541 N542 1.365 . S
C541 C544 1.405 . S
C541 C548 1.448 . S
N542 C541 1.365 . S
N542 C545 1.319 . S
N542 Eu551 2.600 . S
C543 C545 1.397 . S
C543 C546 1.367 . S
C543 H563 0.931 . S
C544 C541 1.405 . S
C544 C546 1.403 . S
C544 C550 1.439 . S
C545 N542 1.319 . S
C545 C543 1.397 . S
C545 H556 0.930 . S
C546 C543 1.367 . S
C546 C544 1.403 . S
C546 H567 0.929 . S
C547 C548 1.430 . S
C547 C549 1.387 . S
C547 C553 1.404 . S
C548 C541 1.448 . S
C548 C547 1.430 . S
C548 N552 1.351 . S
C549 C547 1.387 . S
C549 C550 1.374 . S
C549 H564 0.931 . S
C550 C544 1.439 . S
C550 C549 1.374 . S
C550 H565 0.931 . S
Eu551 N542 2.600 . S
Eu551 N552 2.562 . S
Eu551 O586 2.335 . S
Eu551 O589 2.372 . S
Eu551 O590 2.462 . S
Eu551 O591 2.373 . S
Eu551 O593 2.432 . S
Eu551 O594 2.291 . S
Eu551 C615 2.787 . S
N552 C548 1.351 . S
N552 Eu551 2.562 . S
N552 C554 1.325 . S
C553 C547 1.404 . S
C553 C555 1.366 . S
C553 H561 0.930 . S
C554 N552 1.325 . S
C554 C555 1.416 . S
C554 H560 0.929 . S
C555 C553 1.366 . S
C555 C554 1.416 . S
C555 H557 0.930 . S
H556 C545 0.930 . S
H557 C555 0.930 . S
H558 C573 0.930 . S
H559 C580 0.930 . S
H560 C554 0.929 . S
H561 C553 0.930 . S
H562 C576 0.929 . S
H563 C543 0.931 . S
H564 C549 0.931 . S
H565 C550 0.931 . S
H566 C571 0.931 . S
H567 C546 0.929 . S
H568 C579 0.930 . S
N569 Eu540 2.600 . S
N569 C570 1.365 . S
N569 C573 1.319 . S
C570 N569 1.365 . S
C570 C572 1.405 . S
C570 C578 1.448 . S
C571 H566 0.931 . S
C571 C573 1.397 . S
C571 C574 1.367 . S
C572 C570 1.405 . S
C572 C574 1.403 . S
C572 C605 1.439 . S
C573 H558 0.930 . S
C573 N569 1.319 . S
C573 C571 1.397 . S
C574 C571 1.367 . S
C574 C572 1.403 . S
C574 H581 0.929 . S
N575 Eu540 2.562 . S
N575 C576 1.325 . S
N575 C578 1.351 . S
C576 H562 0.929 . S
C576 N575 1.325 . S
C576 C580 1.416 . S
C577 C578 1.430 . S
C577 C579 1.404 . S
C577 C606 1.387 . S
C578 C570 1.448 . S
C578 N575 1.351 . S
C578 C577 1.430 . S
C579 H568 0.930 . S
C579 C577 1.404 . S
C579 C580 1.366 . S
C580 H559 0.930 . S
C580 C576 1.416 . S
C580 C579 1.366 . S
H581 C574 0.929 . S
H582 C605 0.931 . S
H583 C606 0.931 . S
O584 Eu540 2.462 . S
O584 C604 1.252 . S
O585 Eu540 2.373 . S
O585 C596 1.249 . S
O586 Eu551 2.335 . S
O586 C596 1.264 . S
O587 Eu540 2.432 . S
O587 C604 1.268 . S
O588 Eu540 2.291 . S
O588 C603 1.255 . S
O589 Eu551 2.372 . S
O589 C603 1.257 . S
O590 Eu551 2.462 . S
O590 C615 1.252 . S
O591 Eu551 2.373 . S
O591 C607 1.249 . S
O592 Eu540 2.335 . S
O592 C607 1.264 . S
O593 Eu551 2.432 . S
O593 C615 1.268 . S
O594 Eu551 2.291 . S
O594 C614 1.255 . S
O595 Eu540 2.372 . S
O595 C614 1.257 . S
C596 O585 1.249 . S
C596 O586 1.264 . S
C597 C600 1.382 . S
C597 C602 1.390 . S
C597 C604 1.506 . S
C598 C599 1.398 . S
C598 C602 1.392 . S
C599 C598 1.398 . S
C599 C601 1.372 . S
C599 H616 0.931 . S
C600 C597 1.382 . S
C600 C601 1.390 . S
C600 H617 0.931 . S
C601 C599 1.372 . S
C601 C600 1.390 . S
C601 H618 0.929 . S
C602 C597 1.390 . S
C602 C598 1.392 . S
C602 H619 0.930 . S
C603 O588 1.255 . S
C603 O589 1.257 . S
C604 Eu540 2.787 . S
C604 O584 1.252 . S
C604 O587 1.268 . S
C604 C597 1.506 . S
C605 C572 1.439 . S
C605 H582 0.931 . S
C605 C606 1.374 . S
C606 C577 1.387 . S
C606 H583 0.931 . S
C606 C605 1.374 . S
C607 O591 1.249 . S
C607 O592 1.264 . S
C608 C611 1.382 . S
C608 C612 1.390 . S
C608 C615 1.506 . S
C609 C610 1.398 . S
C609 C612 1.392 . S
C610 C609 1.398 . S
C610 C613 1.372 . S
C610 H620 0.931 . S
C611 C608 1.382 . S
C611 C613 1.390 . S
C611 H621 0.931 . S
C612 C608 1.390 . S
C612 C609 1.392 . S
C612 H622 0.930 . S
C613 C610 1.372 . S
C613 C611 1.390 . S
C613 H623 0.929 . S
C614 O594 1.255 . S
C614 O595 1.257 . S
C615 Eu551 2.787 . S
C615 O590 1.252 . S
C615 O593 1.268 . S
C615 C608 1.506 . S
H616 C599 0.931 . S
H617 C600 0.931 . S
H618 C601 0.929 . S
H619 C602 0.930 . S
H620 C610 0.931 . S
H621 C611 0.931 . S
H622 C612 0.930 . S
H623 C613 0.929 . S
C624 C625 1.387 . S
C624 H628 0.950 . S
C624 C633 1.390 . S
C625 C624 1.387 . S
C625 C627 1.387 . S
H626 C633 0.950 . S
C627 C625 1.387 . S
C627 C629 1.390 . S
C627 H631 0.950 1_545 S
H628 C624 0.950 . S
C629 C627 1.390 . S
C629 C630 1.387 . S
C629 H632 0.950 . S
C630 C629 1.387 . S
C630 C633 1.387 . S
H631 C627 0.950 1_565 S
H632 C629 0.950 . S
C633 C624 1.390 . S
C633 H626 0.950 . S
C633 C630 1.387 . S
C634 C635 1.387 . S
C634 H638 0.950 . S
C634 C643 1.390 . S
C635 C634 1.387 . S
C635 C637 1.387 . S
H636 C643 0.950 . S
C637 C635 1.387 . S
C637 C639 1.390 . S
C637 H641 0.950 . S
H638 C634 0.950 . S
C639 C637 1.390 . S
C639 C640 1.387 . S
C639 H642 0.950 . S
C640 C639 1.387 . S
C640 C643 1.387 . S
H641 C637 0.950 . S
H642 C639 0.950 . S
C643 C634 1.390 . S
C643 H636 0.950 . S
C643 C640 1.387 . S
C644 C645 1.387 . S
C644 H648 0.950 . S
C644 C653 1.390 . S
C645 C644 1.387 . S
C645 C647 1.387 . S
H646 C653 0.950 . S
C647 C645 1.387 . S
C647 C649 1.390 . S
C647 H651 0.950 . S
H648 C644 0.950 . S
C649 C647 1.390 . S
C649 C650 1.387 . S
C649 H652 0.950 . S
C650 C649 1.387 . S
C650 C653 1.387 . S
H651 C647 0.950 . S
H652 C649 0.950 . S
C653 C644 1.390 . S
C653 H646 0.950 . S
C653 C650 1.387 . S
C654 C655 1.387 . S
C654 H658 0.950 . S
C654 C663 1.390 . S
C655 C654 1.387 . S
C655 C657 1.387 . S
H656 C663 0.950 . S
C657 C655 1.387 . S
C657 C659 1.390 . S
C657 H661 0.950 . S
H658 C654 0.950 . S
C659 C657 1.390 . S
C659 C660 1.387 . S
C659 H662 0.950 . S
C660 C659 1.387 . S
C660 C663 1.387 . S
H661 C657 0.950 . S
H662 C659 0.950 . S
C663 C654 1.390 . S
C663 H656 0.950 . S
C663 C660 1.387 . S
C664 C665 1.387 . S
C664 H668 0.950 . S
C664 C673 1.390 . S
C665 C664 1.387 . S
C665 C667 1.387 . S
H666 C673 0.950 . S
C667 C665 1.387 . S
C667 C669 1.390 . S
C667 H671 0.950 . S
H668 C664 0.950 . S
C669 C667 1.390 . S
C669 C670 1.387 . S
C669 H672 0.950 . S
C670 C669 1.387 . S
C670 C673 1.387 . S
H671 C667 0.950 . S
H672 C669 0.950 . S
C673 C664 1.390 . S
C673 H666 0.950 . S
C673 C670 1.387 . S
C674 C675 1.387 . S
C674 H678 0.950 . S
C674 C683 1.390 . S
C675 C674 1.387 . S
C675 C677 1.387 . S
H676 C683 0.950 . S
C677 C675 1.387 . S
C677 C679 1.390 . S
C677 H681 0.950 . S
H678 C674 0.950 . S
C679 C677 1.390 . S
C679 C680 1.387 . S
C679 H682 0.950 . S
C680 C679 1.387 . S
C680 C683 1.387 . S
H681 C677 0.950 . S
H682 C679 0.950 . S
C683 C674 1.390 . S
C683 H676 0.950 . S
C683 C680 1.387 . S
C684 C685 1.387 . S
C684 H688 0.950 . S
C684 C693 1.390 . S
C685 C684 1.387 . S
C685 C687 1.387 . S
H686 C693 0.950 . S
C687 C685 1.387 . S
C687 C689 1.390 . S
C687 H691 0.950 . S
H688 C684 0.950 . S
C689 C687 1.390 . S
C689 C690 1.387 . S
C689 H692 0.950 . S
C690 C689 1.387 . S
C690 C693 1.387 . S
H691 C687 0.950 . S
H692 C689 0.950 . S
C693 C684 1.390 . S
C693 H686 0.950 . S
C693 C690 1.387 . S
C694 C695 1.387 . S
C694 H698 0.950 . S
C694 C703 1.390 . S
C695 C694 1.387 . S
C695 C697 1.387 . S
H696 C703 0.950 . S
C697 C695 1.387 . S
C697 C699 1.390 . S
C697 H701 0.950 1_565 S
H698 C694 0.950 . S
C699 C697 1.390 . S
C699 C700 1.387 . S
C699 H702 0.950 . S
C700 C699 1.387 . S
C700 C703 1.387 . S
H701 C697 0.950 1_545 S
H702 C699 0.950 . S
C703 C694 1.390 . S
C703 H696 0.950 . S
C703 C700 1.387 . S
C704 C705 1.387 . S
C704 H708 0.950 . S
C704 C713 1.390 . S
C705 C704 1.387 . S
C705 C707 1.387 . S
H706 C713 0.950 . S
C707 C705 1.387 . S
C707 C709 1.390 . S
C707 H711 0.950 . S
H708 C704 0.950 . S
C709 C707 1.390 . S
C709 C710 1.387 . S
C709 H712 0.950 . S
C710 C709 1.387 . S
C710 C713 1.387 . S
H711 C707 0.950 . S
H712 C709 0.950 . S
C713 C704 1.390 . S
C713 H706 0.950 . S
C713 C710 1.387 . S
C714 C715 1.387 . S
C714 H718 0.950 . S
C714 C723 1.390 . S
C715 C714 1.387 . S
C715 C717 1.387 . S
H716 C723 0.950 . S
C717 C715 1.387 . S
C717 C719 1.390 . S
C717 H721 0.950 . S
H718 C714 0.950 . S
C719 C717 1.390 . S
C719 C720 1.387 . S
C719 H722 0.950 . S
C720 C719 1.387 . S
C720 C723 1.387 . S
H721 C717 0.950 . S
H722 C719 0.950 . S
C723 C714 1.390 . S
C723 H716 0.950 . S
C723 C720 1.387 . S
C724 C725 1.387 . S
C724 H728 0.950 . S
C724 C733 1.390 . S
C725 C724 1.387 . S
C725 C727 1.387 . S
H726 C733 0.950 . S
C727 C725 1.387 . S
C727 C729 1.390 . S
C727 H731 0.950 . S
H728 C724 0.950 . S
C729 C727 1.390 . S
C729 C730 1.387 . S
C729 H732 0.950 . S
C730 C729 1.387 . S
C730 C733 1.387 . S
H731 C727 0.950 . S
H732 C729 0.950 . S
C733 C724 1.390 . S
C733 H726 0.950 . S
C733 C730 1.387 . S
C734 C735 1.387 . S
C734 H738 0.950 . S
C734 C743 1.390 . S
C735 C734 1.387 . S
C735 C737 1.387 . S
H736 C743 0.950 . S
C737 C735 1.387 . S
C737 C739 1.390 . S
C737 H741 0.950 . S
H738 C734 0.950 . S
C739 C737 1.390 . S
C739 C740 1.387 . S
C739 H742 0.950 . S
C740 C739 1.387 . S
C740 C743 1.387 . S
H741 C737 0.950 . S
H742 C739 0.950 . S
C743 C734 1.390 . S
C743 H736 0.950 . S
C743 C740 1.387 . S
C744 C745 1.387 . S
C744 H748 0.950 . S
C744 C753 1.390 . S
C745 C744 1.387 . S
C745 C747 1.387 . S
H746 C753 0.950 . S
C747 C745 1.387 . S
C747 C749 1.390 . S
C747 H751 0.950 . S
H748 C744 0.950 . S
C749 C747 1.390 . S
C749 C750 1.387 . S
C749 H752 0.950 . S
C750 C749 1.387 . S
C750 C753 1.387 . S
H751 C747 0.950 . S
H752 C749 0.950 . S
C753 C744 1.390 . S
C753 H746 0.950 . S
C753 C750 1.387 . S
C754 C755 1.387 . S
C754 H758 0.950 . S
C754 C763 1.390 . S
C755 C754 1.387 . S
C755 C757 1.387 . S
H756 C763 0.950 . S
C757 C755 1.387 . S
C757 C759 1.390 . S
C757 H761 0.950 . S
H758 C754 0.950 . S
C759 C757 1.390 . S
C759 C760 1.387 . S
C759 H762 0.950 . S
C760 C759 1.387 . S
C760 C763 1.387 . S
H761 C757 0.950 . S
H762 C759 0.950 . S
C763 C754 1.390 . S
C763 H756 0.950 . S
C763 C760 1.387 . S
C764 C765 1.387 . S
C764 H768 0.950 . S
C764 C773 1.390 . S
C765 C764 1.387 . S
C765 C767 1.387 . S
H766 C773 0.950 . S
C767 C765 1.387 . S
C767 C769 1.390 . S
C767 H771 0.950 . S
H768 C764 0.950 . S
C769 C767 1.390 . S
C769 C770 1.387 . S
C769 H772 0.950 . S
C770 C769 1.387 . S
C770 C773 1.387 . S
H771 C767 0.950 . S
H772 C769 0.950 . S
C773 C764 1.390 . S
C773 H766 0.950 . S
C773 C770 1.387 . S
C774 C775 1.387 . S
C774 H778 0.950 . S
C774 C783 1.390 . S
C775 C774 1.387 . S
C775 C777 1.387 . S
H776 C783 0.950 . S
C777 C775 1.387 . S
C777 C779 1.390 . S
C777 H781 0.950 . S
H778 C774 0.950 . S
C779 C777 1.390 . S
C779 C780 1.387 . S
C779 H782 0.950 . S
C780 C779 1.387 . S
C780 C783 1.387 . S
H781 C777 0.950 . S
H782 C779 0.950 . S
C783 C774 1.390 . S
C783 H776 0.950 . S
C783 C780 1.387 . S
C784 C785 1.387 . S
C784 H788 0.950 . S
C784 C793 1.390 . S
C785 C784 1.387 . S
C785 C787 1.387 . S
H786 C793 0.950 . S
C787 C785 1.387 . S
C787 C789 1.390 . S
C787 H791 0.950 . S
H788 C784 0.950 . S
C789 C787 1.390 . S
C789 C790 1.387 . S
C789 H792 0.950 . S
C790 C789 1.387 . S
C790 C793 1.387 . S
H791 C787 0.950 . S
H792 C789 0.950 . S
C793 C784 1.390 . S
C793 H786 0.950 . S
C793 C790 1.387 . S
C794 C795 1.387 . S
C794 H798 0.950 . S
C794 C803 1.390 . S
C795 C794 1.387 . S
C795 C797 1.387 . S
H796 C803 0.950 . S
C797 C795 1.387 . S
C797 C799 1.390 . S
C797 H801 0.950 . S
H798 C794 0.950 . S
C799 C797 1.390 . S
C799 C800 1.387 . S
C799 H802 0.950 . S
C800 C799 1.387 . S
C800 C803 1.387 . S
H801 C797 0.950 . S
H802 C799 0.950 . S
C803 C794 1.390 . S
C803 H796 0.950 . S
C803 C800 1.387 . S
C804 C805 1.387 . S
C804 H808 0.950 . S
C804 C813 1.390 . S
C805 C804 1.387 . S
C805 C807 1.387 . S
H806 C813 0.950 . S
C807 C805 1.387 . S
C807 C809 1.390 . S
C807 H811 0.950 . S
H808 C804 0.950 . S
C809 C807 1.390 . S
C809 C810 1.387 . S
C809 H812 0.950 . S
C810 C809 1.387 . S
C810 C813 1.387 . S
H811 C807 0.950 . S
H812 C809 0.950 . S
C813 C804 1.390 . S
C813 H806 0.950 . S
C813 C810 1.387 . S
C814 C815 1.387 . S
C814 H818 0.950 . S
C814 C823 1.390 . S
C815 C814 1.387 . S
C815 C817 1.387 . S
H816 C823 0.950 . S
C817 C815 1.387 . S
C817 C819 1.390 . S
C817 H821 0.950 . S
H818 C814 0.950 . S
C819 C817 1.390 . S
C819 C820 1.387 . S
C819 H822 0.950 . S
C820 C819 1.387 . S
C820 C823 1.387 . S
H821 C817 0.950 . S
H822 C819 0.950 . S
C823 C814 1.390 . S
C823 H816 0.950 . S
C823 C820 1.387 . S
C824 C825 1.387 . S
C824 H828 0.950 . S
C824 C833 1.390 . S
C825 C824 1.387 . S
C825 C827 1.387 . S
H826 C833 0.950 . S
C827 C825 1.387 . S
C827 C829 1.390 . S
C827 H831 0.950 . S
H828 C824 0.950 . S
C829 C827 1.390 . S
C829 C830 1.387 . S
C829 H832 0.950 . S
C830 C829 1.387 . S
C830 C833 1.387 . S
H831 C827 0.950 . S
H832 C829 0.950 . S
C833 C824 1.390 . S
C833 H826 0.950 . S
C833 C830 1.387 . S
C834 C835 1.387 . S
C834 H838 0.950 . S
C834 C843 1.390 . S
C835 C834 1.387 . S
C835 C837 1.387 . S
H836 C843 0.950 . S
C837 C835 1.387 . S
C837 C839 1.390 . S
C837 H841 0.950 . S
H838 C834 0.950 . S
C839 C837 1.390 . S
C839 C840 1.387 . S
C839 H842 0.950 . S
C840 C839 1.387 . S
C840 C843 1.387 . S
H841 C837 0.950 . S
H842 C839 0.950 . S
C843 C834 1.390 . S
C843 H836 0.950 . S
C843 C840 1.387 . S
C844 C845 1.387 . S
C844 H848 0.950 . S
C844 C853 1.390 . S
C845 C844 1.387 . S
C845 C847 1.387 . S
H846 C853 0.950 . S
C847 C845 1.387 . S
C847 C849 1.390 . S
C847 H851 0.950 . S
H848 C844 0.950 . S
C849 C847 1.390 . S
C849 C850 1.387 . S
C849 H852 0.950 . S
C850 C849 1.387 . S
C850 C853 1.387 . S
H851 C847 0.950 . S
H852 C849 0.950 . S
C853 C844 1.390 . S
C853 H846 0.950 . S
C853 C850 1.387 . S
C854 C855 1.387 . S
C854 H858 0.950 . S
C854 C863 1.390 . S
C855 C854 1.387 . S
C855 C857 1.387 . S
H856 C863 0.950 . S
C857 C855 1.387 . S
C857 C859 1.390 . S
C857 H861 0.950 . S
H858 C854 0.950 . S
C859 C857 1.390 . S
C859 C860 1.387 . S
C859 H862 0.950 . S
C860 C859 1.387 . S
C860 C863 1.387 . S
H861 C857 0.950 . S
H862 C859 0.950 . S
C863 C854 1.390 . S
C863 H856 0.950 . S
C863 C860 1.387 . S
C625 C247 1.489 1_545 S
C630 C362 1.472 . S
C640 C446 1.471 . S
C635 C283 1.488 . S
C650 C439 1.477 . S
C645 C175 1.486 . S
C655 C211 1.486 1_545 S
C660 C355 1.478 . S
C670 C519 1.471 . S
C665 C103 1.472 1_565 S
C680 C603 1.471 . S
C675 C139 1.471 . S
C685 C31 1.466 . S
C690 C596 1.478 . S
C695 C67 1.466 1_565 S
C700 C512 1.477 . S
C710 C346 1.323 . S
C705 C37 1.510 . S
C720 C430 1.325 . S
C715 C1 1.511 . S
C730 C441 1.398 . S
C725 C109 1.548 . S
C740 C357 1.402 . S
C735 C73 1.526 . S
C750 C525 1.325 . S
C745 C181 1.528 . S
C755 C145 1.528 . S
C760 C609 1.325 . S
C770 C598 1.400 . S
C765 C253 1.540 . S
C775 C217 1.540 . S
C780 C514 1.399 . S
C790 C344 1.574 . S
C785 C25 1.540 . S
C800 C428 1.575 . S
C795 C61 1.541 . S
C805 C97 1.536 . S
C810 C435 1.563 . S
C820 C351 1.563 . S
C815 C133 1.535 . S
C830 C523 1.574 . S
C825 C169 1.566 . S
C835 C205 1.566 . S
C840 C607 1.574 . S
C845 C241 1.558 . S
C850 C614 1.562 . S
C855 C277 1.558 . S
C860 C530 1.562 . S
