# Generated by pormake.
# Topology ptr, (4,4)-cn, num edge types: 1
# Building blocks:
#     Node 0, Type 0, BuildingBlock: KUFVIS_clean_sbu_0, # of connection points: 4
#     Node 1, Type 0, BuildingBlock: KUFVIS_clean_sbu_0, # of connection points: 4
#     Node 2, Type 0, BuildingBlock: KUFVIS_clean_sbu_0, # of connection points: 4
#     Node 3, Type 0, BuildingBlock: KUFVIS_clean_sbu_0, # of connection points: 4
#     Node 4, Type 0, BuildingBlock: KUFVIS_clean_sbu_0, # of connection points: 4
#     Node 5, Type 0, BuildingBlock: KUFVIS_clean_sbu_0, # of connection points: 4
#     Node 6, Type 0, BuildingBlock: KUFVIS_clean_sbu_0, # of connection points: 4
#     Node 7, Type 0, BuildingBlock: KUFVIS_clean_sbu_0, # of connection points: 4
#     Node 8, Type 0, BuildingBlock: KUFVIS_clean_sbu_0, # of connection points: 4
#     Node 9, Type 0, BuildingBlock: KUFVIS_clean_sbu_0, # of connection points: 4
#     Node 10, Type 0, BuildingBlock: KUFVIS_clean_sbu_0, # of connection points: 4
#     Node 11, Type 0, BuildingBlock: KUFVIS_clean_sbu_0, # of connection points: 4
#     Node 12, Type 0, BuildingBlock: KUFVIS_clean_sbu_0, # of connection points: 4
#     Node 13, Type 0, BuildingBlock: KUFVIS_clean_sbu_0, # of connection points: 4
#     Node 14, Type 0, BuildingBlock: KUFVIS_clean_sbu_0, # of connection points: 4
#     Node 15, Type 0, BuildingBlock: KUFVIS_clean_sbu_0, # of connection points: 4
#     Node 16, Type 0, BuildingBlock: KUFVIS_clean_sbu_0, # of connection points: 4
#     Node 17, Type 0, BuildingBlock: KUFVIS_clean_sbu_0, # of connection points: 4
#     Node 18, Type 1, BuildingBlock: AZAVOO_clean_linker_0, # of connection points: 4
#     Node 19, Type 1, BuildingBlock: AZAVOO_clean_linker_0, # of connection points: 4
#     Node 20, Type 1, BuildingBlock: AZAVOO_clean_linker_0, # of connection points: 4
#     Node 21, Type 1, BuildingBlock: AZAVOO_clean_linker_0, # of connection points: 4
#     Node 22, Type 1, BuildingBlock: AZAVOO_clean_linker_0, # of connection points: 4
#     Node 23, Type 1, BuildingBlock: AZAVOO_clean_linker_0, # of connection points: 4
#     Node 24, Type 1, BuildingBlock: AZAVOO_clean_linker_0, # of connection points: 4
#     Node 25, Type 1, BuildingBlock: AZAVOO_clean_linker_0, # of connection points: 4
#     Node 26, Type 1, BuildingBlock: AZAVOO_clean_linker_0, # of connection points: 4
#     Node 27, Type 1, BuildingBlock: AZAVOO_clean_linker_0, # of connection points: 4
#     Node 28, Type 1, BuildingBlock: AZAVOO_clean_linker_0, # of connection points: 4
#     Node 29, Type 1, BuildingBlock: AZAVOO_clean_linker_0, # of connection points: 4
#     Node 30, Type 1, BuildingBlock: AZAVOO_clean_linker_0, # of connection points: 4
#     Node 31, Type 1, BuildingBlock: AZAVOO_clean_linker_0, # of connection points: 4
#     Node 32, Type 1, BuildingBlock: AZAVOO_clean_linker_0, # of connection points: 4
#     Node 33, Type 1, BuildingBlock: AZAVOO_clean_linker_0, # of connection points: 4
#     Node 34, Type 1, BuildingBlock: AZAVOO_clean_linker_0, # of connection points: 4
#     Node 35, Type 1, BuildingBlock: AZAVOO_clean_linker_0, # of connection points: 4
#     Edge 36, Type (0, 1), BuildingBlock: XIVTED_clean_linker_0, # of connection points: 2
#     Edge 37, Type (0, 1), BuildingBlock: XIVTED_clean_linker_0, # of connection points: 2
#     Edge 38, Type (0, 1), BuildingBlock: XIVTED_clean_linker_0, # of connection points: 2
#     Edge 39, Type (0, 1), BuildingBlock: XIVTED_clean_linker_0, # of connection points: 2
#     Edge 40, Type (0, 1), BuildingBlock: XIVTED_clean_linker_0, # of connection points: 2
#     Edge 41, Type (0, 1), BuildingBlock: XIVTED_clean_linker_0, # of connection points: 2
#     Edge 42, Type (0, 1), BuildingBlock: XIVTED_clean_linker_0, # of connection points: 2
#     Edge 43, Type (0, 1), BuildingBlock: XIVTED_clean_linker_0, # of connection points: 2
#     Edge 44, Type (0, 1), BuildingBlock: XIVTED_clean_linker_0, # of connection points: 2
#     Edge 45, Type (0, 1), BuildingBlock: XIVTED_clean_linker_0, # of connection points: 2
#     Edge 46, Type (0, 1), BuildingBlock: XIVTED_clean_linker_0, # of connection points: 2
#     Edge 47, Type (0, 1), BuildingBlock: XIVTED_clean_linker_0, # of connection points: 2
#     Edge 48, Type (0, 1), BuildingBlock: XIVTED_clean_linker_0, # of connection points: 2
#     Edge 49, Type (0, 1), BuildingBlock: XIVTED_clean_linker_0, # of connection points: 2
#     Edge 50, Type (0, 1), BuildingBlock: XIVTED_clean_linker_0, # of connection points: 2
#     Edge 51, Type (0, 1), BuildingBlock: XIVTED_clean_linker_0, # of connection points: 2
#     Edge 52, Type (0, 1), BuildingBlock: XIVTED_clean_linker_0, # of connection points: 2
#     Edge 53, Type (0, 1), BuildingBlock: XIVTED_clean_linker_0, # of connection points: 2
#     Edge 54, Type (0, 1), BuildingBlock: XIVTED_clean_linker_0, # of connection points: 2
#     Edge 55, Type (0, 1), BuildingBlock: XIVTED_clean_linker_0, # of connection points: 2
#     Edge 56, Type (0, 1), BuildingBlock: XIVTED_clean_linker_0, # of connection points: 2
#     Edge 57, Type (0, 1), BuildingBlock: XIVTED_clean_linker_0, # of connection points: 2
#     Edge 58, Type (0, 1), BuildingBlock: XIVTED_clean_linker_0, # of connection points: 2
#     Edge 59, Type (0, 1), BuildingBlock: XIVTED_clean_linker_0, # of connection points: 2
#     Edge 60, Type (0, 1), BuildingBlock: XIVTED_clean_linker_0, # of connection points: 2
#     Edge 61, Type (0, 1), BuildingBlock: XIVTED_clean_linker_0, # of connection points: 2
#     Edge 62, Type (0, 1), BuildingBlock: XIVTED_clean_linker_0, # of connection points: 2
#     Edge 63, Type (0, 1), BuildingBlock: XIVTED_clean_linker_0, # of connection points: 2
#     Edge 64, Type (0, 1), BuildingBlock: XIVTED_clean_linker_0, # of connection points: 2
#     Edge 65, Type (0, 1), BuildingBlock: XIVTED_clean_linker_0, # of connection points: 2
#     Edge 66, Type (0, 1), BuildingBlock: XIVTED_clean_linker_0, # of connection points: 2
#     Edge 67, Type (0, 1), BuildingBlock: XIVTED_clean_linker_0, # of connection points: 2
#     Edge 68, Type (0, 1), BuildingBlock: XIVTED_clean_linker_0, # of connection points: 2
#     Edge 69, Type (0, 1), BuildingBlock: XIVTED_clean_linker_0, # of connection points: 2
#     Edge 70, Type (0, 1), BuildingBlock: XIVTED_clean_linker_0, # of connection points: 2
#     Edge 71, Type (0, 1), BuildingBlock: XIVTED_clean_linker_0, # of connection points: 2
#     Edge 72, Type (0, 1), BuildingBlock: XIVTED_clean_linker_0, # of connection points: 2
#     Edge 73, Type (0, 1), BuildingBlock: XIVTED_clean_linker_0, # of connection points: 2
#     Edge 74, Type (0, 1), BuildingBlock: XIVTED_clean_linker_0, # of connection points: 2
#     Edge 75, Type (0, 1), BuildingBlock: XIVTED_clean_linker_0, # of connection points: 2
#     Edge 76, Type (0, 1), BuildingBlock: XIVTED_clean_linker_0, # of connection points: 2
#     Edge 77, Type (0, 1), BuildingBlock: XIVTED_clean_linker_0, # of connection points: 2
#     Edge 78, Type (0, 1), BuildingBlock: XIVTED_clean_linker_0, # of connection points: 2
#     Edge 79, Type (0, 1), BuildingBlock: XIVTED_clean_linker_0, # of connection points: 2
#     Edge 80, Type (0, 1), BuildingBlock: XIVTED_clean_linker_0, # of connection points: 2
#     Edge 81, Type (0, 1), BuildingBlock: XIVTED_clean_linker_0, # of connection points: 2
#     Edge 82, Type (0, 1), BuildingBlock: XIVTED_clean_linker_0, # of connection points: 2
#     Edge 83, Type (0, 1), BuildingBlock: XIVTED_clean_linker_0, # of connection points: 2
#     Edge 84, Type (0, 1), BuildingBlock: XIVTED_clean_linker_0, # of connection points: 2
#     Edge 85, Type (0, 1), BuildingBlock: XIVTED_clean_linker_0, # of connection points: 2
#     Edge 86, Type (0, 1), BuildingBlock: XIVTED_clean_linker_0, # of connection points: 2
#     Edge 87, Type (0, 1), BuildingBlock: XIVTED_clean_linker_0, # of connection points: 2
#     Edge 88, Type (0, 1), BuildingBlock: XIVTED_clean_linker_0, # of connection points: 2
#     Edge 89, Type (0, 1), BuildingBlock: XIVTED_clean_linker_0, # of connection points: 2
#     Edge 90, Type (0, 1), BuildingBlock: XIVTED_clean_linker_0, # of connection points: 2
#     Edge 91, Type (0, 1), BuildingBlock: XIVTED_clean_linker_0, # of connection points: 2
#     Edge 92, Type (0, 1), BuildingBlock: XIVTED_clean_linker_0, # of connection points: 2
#     Edge 93, Type (0, 1), BuildingBlock: XIVTED_clean_linker_0, # of connection points: 2
#     Edge 94, Type (0, 1), BuildingBlock: XIVTED_clean_linker_0, # of connection points: 2
#     Edge 95, Type (0, 1), BuildingBlock: XIVTED_clean_linker_0, # of connection points: 2
#     Edge 96, Type (0, 1), BuildingBlock: XIVTED_clean_linker_0, # of connection points: 2
#     Edge 97, Type (0, 1), BuildingBlock: XIVTED_clean_linker_0, # of connection points: 2
#     Edge 98, Type (0, 1), BuildingBlock: XIVTED_clean_linker_0, # of connection points: 2
#     Edge 99, Type (0, 1), BuildingBlock: XIVTED_clean_linker_0, # of connection points: 2
#     Edge 100, Type (0, 1), BuildingBlock: XIVTED_clean_linker_0, # of connection points: 2
#     Edge 101, Type (0, 1), BuildingBlock: XIVTED_clean_linker_0, # of connection points: 2
#     Edge 102, Type (0, 1), BuildingBlock: XIVTED_clean_linker_0, # of connection points: 2
#     Edge 103, Type (0, 1), BuildingBlock: XIVTED_clean_linker_0, # of connection points: 2
#     Edge 104, Type (0, 1), BuildingBlock: XIVTED_clean_linker_0, # of connection points: 2
#     Edge 105, Type (0, 1), BuildingBlock: XIVTED_clean_linker_0, # of connection points: 2
#     Edge 106, Type (0, 1), BuildingBlock: XIVTED_clean_linker_0, # of connection points: 2
#     Edge 107, Type (0, 1), BuildingBlock: XIVTED_clean_linker_0, # of connection points: 2
# Relax obj value: 0.057
# Max RMSD: 0.199
# Mean RMSD: 0.130
data_MOF--net-ptr--node1-KUFVIS_clean_sbu_0--node2-AZAVOO_clean_linker_0--edge1-XIVTED_clean_linker_0
_symmetry_space_group_name_H-M    P1
_symmetry_Int_Tables_number       1
_symmetry_cell_setting            triclinic
loop_
_symmetry_equiv_pos_as_xyz
'x, y, z'
_cell_length_a     81.830575
_cell_length_b     80.111805
_cell_length_c     69.203521
_cell_angle_alpha  92.347676
_cell_angle_beta   93.032943
_cell_angle_gamma 119.53146
loop_
_atom_site_label
_atom_site_type_symbol
_atom_site_fract_x
_atom_site_fract_y
_atom_site_fract_z
_atom_type_partial_charge
Mn0 Mn 0.00285 0.36438 0.0158 0.0
Mn1 Mn 0.04378 0.40664 0.01802 0.0
C2 C 0.00691 0.38621 0.99342 0.0
C3 C 0.98505 0.33191 0.00556 0.0
C4 C 0.01268 0.3991 0.04411 0.0
O5 O 0.02022 0.35957 0.03365 0.0
O6 O 0.04699 0.38796 0.03364 0.0
C7 C 0.06545 0.39261 0.99636 0.0
N8 N 0.05876 0.40508 0.99853 0.0
C9 C 0.07345 0.42109 0.97048 0.0
C10 C 0.08061 0.4085 0.96802 0.0
C11 C 0.07654 0.39417 0.981 0.0
C12 C 0.06249 0.41884 0.98607 0.0
H13 H 0.0623 0.38154 0.00627 0.0
C14 C 0.03755 0.37084 0.03899 0.0
O15 O 0.98109 0.33909 0.02058 0.0
O16 O 0.99957 0.34353 0.99675 0.0
N17 N 0.04327 0.42637 0.00376 0.0
C18 C 0.03507 0.43718 0.00799 0.0
C19 C 0.03766 0.45208 0.99631 0.0
C20 C 0.04883 0.45589 0.98057 0.0
C21 C 0.05746 0.44486 0.97676 0.0
C22 C 0.05451 0.4303 0.98901 0.0
H23 H 0.02652 0.43436 0.0201 0.0
O24 O 0.99014 0.37281 0.99655 0.0
O25 O 0.021 0.38619 0.00311 0.0
O26 O 0.00132 0.38184 0.0373 0.0
O27 O 0.02892 0.40954 0.03806 0.0
C28 C 0.06863 0.44753 0.96111 0.0
C29 C 0.07657 0.43561 0.95793 0.0
H30 H 0.08913 0.40963 0.95616 0.0
H31 H 0.08194 0.38435 0.97914 0.0
H32 H 0.03099 0.46057 0.99939 0.0
H33 H 0.05061 0.46726 0.97147 0.0
H34 H 0.07104 0.45858 0.95131 0.0
H35 H 0.08498 0.43769 0.94574 0.0
Mn36 Mn 0.62993 0.62772 0.06703 0.0
Mn37 Mn 0.62887 0.58505 0.06452 0.0
C38 C 0.61165 0.60461 0.08709 0.0
C39 C 0.64495 0.65987 0.07869 0.0
C40 C 0.60762 0.59588 0.03488 0.0
O41 O 0.65213 0.63268 0.05184 0.0
O42 O 0.65223 0.60475 0.05362 0.0
C43 C 0.66149 0.595 0.09258 0.0
N44 N 0.64285 0.58361 0.08677 0.0
C45 C 0.63815 0.56437 0.11394 0.0
C46 C 0.65734 0.5758 0.12014 0.0
C47 C 0.66904 0.5912 0.10943 0.0
C48 C 0.63145 0.56878 0.09698 0.0
H49 H 0.67051 0.6069 0.08443 0.0
C50 C 0.65938 0.62206 0.04865 0.0
O51 O 0.63407 0.65382 0.06264 0.0
O52 O 0.64701 0.64721 0.08801 0.0
N53 N 0.60725 0.56462 0.07459 0.0
C54 C 0.58893 0.55549 0.06709 0.0
C55 C 0.5753 0.53998 0.07635 0.0
C56 C 0.58065 0.53392 0.09309 0.0
C57 C 0.59964 0.54335 0.10036 0.0
C58 C 0.61262 0.5586 0.09042 0.0
H59 H 0.58472 0.56007 0.05423 0.0
O60 O 0.60857 0.6187 0.08377 0.0
O61 O 0.62575 0.60479 0.079 0.0
O62 O 0.61189 0.61212 0.04336 0.0
O63 O 0.61371 0.58502 0.04126 0.0
C64 C 0.60612 0.53847 0.11731 0.0
C65 C 0.62535 0.54899 0.12411 0.0
H66 H 0.6632 0.57299 0.13319 0.0
H67 H 0.68384 0.60015 0.11418 0.0
H68 H 0.56068 0.53277 0.07064 0.0
H69 H 0.57007 0.5221 0.10032 0.0
H70 H 0.59638 0.52682 0.12537 0.0
H71 H 0.63012 0.54526 0.13729 0.0
Mn72 Mn 0.37344 0.99614 0.02492 0.0
Mn73 Mn 0.41265 0.03959 0.02737 0.0
C74 C 0.39961 0.00186 0.04472 0.0
C75 C 0.34412 0.97695 0.0366 0.0
C76 C 0.40029 0.00983 0.99295 0.0
O77 O 0.36443 0.01337 0.01325 0.0
O78 O 0.3905 0.04248 0.01928 0.0
C79 C 0.40529 0.05933 0.06002 0.0
N80 N 0.4164 0.0531 0.05206 0.0
C81 C 0.4388 0.06601 0.08012 0.0
C82 C 0.42768 0.07268 0.08856 0.0
C83 C 0.41084 0.0693 0.07847 0.0
C84 C 0.43266 0.05633 0.06161 0.0
H85 H 0.39227 0.05664 0.05239 0.0
C86 C 0.37302 0.03169 0.01349 0.0
O87 O 0.34762 0.97307 0.01938 0.0
O88 O 0.35746 0.99187 0.04671 0.0
N89 N 0.43488 0.03858 0.03542 0.0
C90 C 0.44321 0.02991 0.02592 0.0
C91 C 0.45978 0.03118 0.03445 0.0
C92 C 0.46763 0.04136 0.05262 0.0
C93 C 0.45884 0.05022 0.06209 0.0
C94 C 0.44244 0.04862 0.0528 0.0
H95 H 0.4372 0.02197 0.01201 0.0
O96 O 0.38668 0.98434 0.03919 0.0
O97 O 0.39666 0.0153 0.03849 0.0
O98 O 0.38632 0.99611 0.00021 0.0
O99 O 0.41028 0.02666 0.00155 0.0
C100 C 0.46546 0.06021 0.08058 0.0
C101 C 0.45546 0.06811 0.08958 0.0
H102 H 0.43181 0.08022 0.10286 0.0
H103 H 0.40212 0.0743 0.08494 0.0
H104 H 0.46645 0.02424 0.02708 0.0
H105 H 0.4803 0.04214 0.05924 0.0
H106 H 0.47807 0.06163 0.08813 0.0
H107 H 0.46053 0.07548 0.10392 0.0
Mn108 Mn 0.99855 0.64002 0.03841 0.0
Mn109 Mn 0.04102 0.64251 0.04368 0.0
C110 C 0.00551 0.62198 0.01717 0.0
C111 C 0.97974 0.65205 0.02604 0.0
C112 C 0.009 0.6186 0.06806 0.0
O113 O 0.01391 0.66406 0.05648 0.0
O114 O 0.04166 0.6645 0.05888 0.0
C115 C 0.06205 0.67765 0.02293 0.0
N116 N 0.05651 0.65882 0.02506 0.0
C117 C 0.07371 0.65761 0.99838 0.0
C118 C 0.07971 0.67704 0.996 0.0
C119 C 0.07382 0.68708 0.0083 0.0
C120 C 0.062 0.64899 0.01323 0.0
H121 H 0.0575 0.6854 0.03231 0.0
C122 C 0.03108 0.67152 0.06301 0.0
O123 O 0.9753 0.64183 0.04099 0.0
O124 O 0.99515 0.65543 0.01852 0.0
N125 N 0.04298 0.62242 0.02994 0.0
C126 C 0.03554 0.60363 0.03383 0.0
C127 C 0.0399 0.59152 0.02268 0.0
C128 C 0.05204 0.5989 0.00782 0.0
C129 C 0.0598 0.61837 0.00432 0.0
C130 C 0.05505 0.62978 0.016 0.0
H131 H 0.02617 0.59786 0.04519 0.0
O132 O 0.98815 0.61736 0.01914 0.0
O133 O 0.01843 0.63737 0.02732 0.0
O134 O 0.99715 0.62302 0.06053 0.0
O135 O 0.02568 0.62511 0.06281 0.0
C136 C 0.07179 0.62683 0.98948 0.0
C137 C 0.07868 0.64642 0.98647 0.0
H138 H 0.08875 0.68436 0.9847 0.0
H139 H 0.07832 0.70205 0.00648 0.0
H140 H 0.03386 0.57651 0.02548 0.0
H141 H 0.0552 0.58947 0.99912 0.0
H142 H 0.07561 0.61833 0.98014 0.0
H143 H 0.08772 0.6527 0.97487 0.0
Mn144 Mn 0.36804 0.38075 0.01385 0.0
Mn145 Mn 0.40936 0.38097 0.01222 0.0
C146 C 0.39217 0.39779 0.03788 0.0
C147 C 0.33742 0.36626 0.02366 0.0
C148 C 0.39907 0.40566 0.9879 0.0
O149 O 0.36113 0.35818 0.99445 0.0
O150 O 0.38929 0.35963 0.99452 0.0
C151 C 0.39751 0.34403 0.02985 0.0
N152 N 0.40958 0.36331 0.0299 0.0
C153 C 0.42772 0.36297 0.05827 0.0
C154 C 0.41557 0.3431 0.05843 0.0
C155 C 0.40038 0.3336 0.04418 0.0
C156 C 0.4242 0.37259 0.04358 0.0
H157 H 0.38576 0.33665 0.019 0.0
C158 C 0.37176 0.35186 0.98875 0.0
O159 O 0.34223 0.37765 0.00962 0.0
O160 O 0.35026 0.3632 0.03168 0.0
N161 N 0.43011 0.40041 0.02888 0.0
C162 C 0.44024 0.4197 0.0271 0.0
C163 C 0.45583 0.43135 0.04034 0.0
C164 C 0.46095 0.42303 0.05526 0.0
C165 C 0.45048 0.40311 0.05669 0.0
C166 C 0.43521 0.39221 0.04291 0.0
H167 H 0.43628 0.42614 0.01585 0.0
O168 O 0.37892 0.40206 0.03491 0.0
O169 O 0.39083 0.38357 0.02686 0.0
O170 O 0.38255 0.39964 0.99351 0.0
O171 O 0.41031 0.3999 0.99416 0.0
C172 C 0.45443 0.3937 0.07145 0.0
C173 C 0.44303 0.37365 0.07226 0.0
H174 H 0.41768 0.33502 0.0695 0.0
H175 H 0.39088 0.31828 0.04426 0.0
H176 H 0.46381 0.44672 0.03913 0.0
H177 H 0.47285 0.43208 0.06559 0.0
H178 H 0.46607 0.40177 0.08237 0.0
H179 H 0.44608 0.36659 0.0838 0.0
Mn180 Mn 0.62534 0.00844 0.04044 0.0
Mn181 Mn 0.58581 0.96516 0.03472 0.0
C182 C 0.60128 0.00344 0.01793 0.0
C183 C 0.65608 0.02677 0.03203 0.0
C184 C 0.59495 0.99459 0.0688 0.0
O185 O 0.63264 0.99097 0.05416 0.0
O186 O 0.60696 0.96206 0.04597 0.0
C187 C 0.59674 0.94619 0.0045 0.0
N188 N 0.58468 0.95206 0.01055 0.0
C189 C 0.56512 0.93937 0.9805 0.0
C190 C 0.57724 0.93305 0.97401 0.0
C191 C 0.59314 0.93651 0.98605 0.0
C192 C 0.56935 0.94882 0.99908 0.0
H193 H 0.60903 0.94892 0.01367 0.0
C194 C 0.62388 0.97266 0.05361 0.0
O195 O 0.65092 0.03126 0.04798 0.0
O196 O 0.64341 0.01211 0.02108 0.0
N197 N 0.56433 0.96607 0.02368 0.0
C198 C 0.55464 0.97404 0.03167 0.0
C199 C 0.53861 0.97231 0.02125 0.0
C200 C 0.53266 0.96235 0.00279 0.0
C201 C 0.54276 0.95414 0.99494 0.0
C202 C 0.55851 0.95614 0.00608 0.0
H203 H 0.55916 0.98175 0.04582 0.0
O204 O 0.61412 0.02083 0.024 0.0
O205 O 0.60323 0.98968 0.02493 0.0
O206 O 0.61002 0.00835 0.06309 0.0
O207 O 0.58564 0.97795 0.05964 0.0
C208 C 0.53805 0.94439 0.97633 0.0
C209 C 0.54924 0.93704 0.9691 0.0
H210 H 0.57459 0.9257 0.95973 0.0
H211 H 0.60262 0.93178 0.98109 0.0
H212 H 0.53091 0.97871 0.0274 0.0
H213 H 0.52042 0.96124 0.99471 0.0
H214 H 0.52602 0.94272 0.96733 0.0
H215 H 0.54564 0.92984 0.95465 0.0
Mn216 Mn 0.66561 0.70256 0.35388 0.0
Mn217 Mn 0.70749 0.74391 0.35937 0.0
C218 C 0.67238 0.72571 0.33223 0.0
C219 C 0.64709 0.67049 0.34244 0.0
C220 C 0.67499 0.73636 0.38332 0.0
O221 O 0.68122 0.69606 0.37256 0.0
O222 O 0.70873 0.72397 0.37455 0.0
C223 C 0.72944 0.72955 0.33871 0.0
N224 N 0.72329 0.74248 0.34076 0.0
C225 C 0.74001 0.75931 0.31394 0.0
C226 C 0.74662 0.74625 0.31162 0.0
C227 C 0.74126 0.73127 0.32403 0.0
C228 C 0.72821 0.75683 0.32879 0.0
H229 H 0.72532 0.718 0.34819 0.0
C230 C 0.69839 0.70666 0.37901 0.0
O231 O 0.64277 0.67768 0.35715 0.0
O232 O 0.66236 0.68191 0.3345 0.0
N233 N 0.70878 0.76472 0.34564 0.0
C234 C 0.70133 0.77622 0.34995 0.0
C235 C 0.70551 0.79204 0.33903 0.0
C236 C 0.71749 0.79603 0.32399 0.0
C237 C 0.72527 0.78422 0.32007 0.0
C238 C 0.72077 0.76879 0.33157 0.0
H239 H 0.69224 0.77332 0.36159 0.0
O240 O 0.65505 0.71275 0.33402 0.0
O241 O 0.68533 0.72453 0.34285 0.0
O242 O 0.66358 0.71961 0.37534 0.0
O243 O 0.69182 0.74667 0.37859 0.0
C244 C 0.73726 0.78711 0.30515 0.0
C245 C 0.74455 0.77461 0.30203 0.0
H246 H 0.75575 0.74753 0.30031 0.0
H247 H 0.74624 0.72109 0.32227 0.0
H248 H 0.69952 0.80114 0.3422 0.0
H249 H 0.72063 0.8082 0.31556 0.0
H250 H 0.74086 0.79883 0.29591 0.0
H251 H 0.75364 0.77689 0.29042 0.0
Mn252 Mn 0.29503 0.9545 0.40038 0.0
Mn253 Mn 0.29134 0.9106 0.39789 0.0
C254 C 0.27701 0.93223 0.42137 0.0
C255 C 0.31111 0.98687 0.41138 0.0
C256 C 0.2702 0.92226 0.36916 0.0
O257 O 0.31654 0.95814 0.3845 0.0
O258 O 0.31409 0.9289 0.38515 0.0
C259 C 0.32517 0.92006 0.42385 0.0
N260 N 0.30621 0.9093 0.4194 0.0
C261 C 0.30242 0.89156 0.44763 0.0
C262 C 0.32192 0.90236 0.45245 0.0
C263 C 0.33334 0.91669 0.44052 0.0
C264 C 0.29509 0.89553 0.43081 0.0
H265 H 0.33397 0.93116 0.41477 0.0
C266 C 0.32221 0.9463 0.3803 0.0
O267 O 0.29986 0.98071 0.3956 0.0
O268 O 0.31308 0.97419 0.42079 0.0
N269 N 0.2701 0.89142 0.40965 0.0
C270 C 0.2515 0.88257 0.40318 0.0
C271 C 0.23815 0.86798 0.4136 0.0
C272 C 0.24406 0.86254 0.43044 0.0
C273 C 0.26331 0.87162 0.43662 0.0
C274 C 0.27598 0.88593 0.42554 0.0
H275 H 0.24687 0.88669 0.39024 0.0
O276 O 0.27433 0.94656 0.418 0.0
O277 O 0.29037 0.93156 0.41258 0.0
O278 O 0.27608 0.93903 0.37729 0.0
O279 O 0.27522 0.91054 0.37548 0.0
C280 C 0.27039 0.86721 0.45348 0.0
C281 C 0.28993 0.87721 0.45901 0.0
H282 H 0.32827 0.89986 0.46533 0.0
H283 H 0.34839 0.92515 0.44419 0.0
H284 H 0.22333 0.861 0.4087 0.0
H285 H 0.23371 0.85142 0.43855 0.0
H286 H 0.26092 0.8563 0.4624 0.0
H287 H 0.29519 0.87384 0.47211 0.0
Mn288 Mn 0.04653 0.32845 0.36076 0.0
Mn289 Mn 0.08797 0.37007 0.36449 0.0
C290 C 0.07069 0.33259 0.38285 0.0
C291 C 0.01592 0.31153 0.37041 0.0
C292 C 0.07604 0.33916 0.3313 0.0
O293 O 0.04023 0.34677 0.34714 0.0
O294 O 0.06782 0.37454 0.35281 0.0
C295 C 0.07964 0.39229 0.39368 0.0
N296 N 0.09054 0.38479 0.38804 0.0
C297 C 0.11087 0.39789 0.41758 0.0
C298 C 0.09994 0.40587 0.42364 0.0
C299 C 0.08424 0.40303 0.41165 0.0
C300 C 0.10569 0.38746 0.39944 0.0
H301 H 0.06751 0.39006 0.38454 0.0
C302 C 0.05043 0.3649 0.34627 0.0
O303 O 0.02021 0.30653 0.35415 0.0
O304 O 0.02934 0.32611 0.38084 0.0
N305 N 0.10859 0.3678 0.37578 0.0
C306 C 0.11691 0.3581 0.36836 0.0
C307 C 0.13247 0.35891 0.37889 0.0
C308 C 0.13934 0.36972 0.39688 0.0
C309 C 0.13063 0.37969 0.40415 0.0
C310 C 0.11529 0.37851 0.39292 0.0
H311 H 0.11166 0.34972 0.35458 0.0
O312 O 0.05714 0.31542 0.37715 0.0
O313 O 0.06957 0.34668 0.3755 0.0
O314 O 0.06047 0.32669 0.33742 0.0
O315 O 0.08679 0.35572 0.34015 0.0
C316 C 0.13631 0.39041 0.42229 0.0
C317 C 0.12642 0.39949 0.429 0.0
H318 H 0.10335 0.41403 0.43756 0.0
H319 H 0.07568 0.40905 0.41628 0.0
H320 H 0.13909 0.35114 0.3732 0.0
H321 H 0.15121 0.37014 0.40505 0.0
H322 H 0.14806 0.39151 0.43133 0.0
H323 H 0.13073 0.40743 0.44311 0.0
Mn324 Mn 0.66201 0.96518 0.37618 0.0
Mn325 Mn 0.7043 0.9679 0.38541 0.0
C326 C 0.67019 0.94661 0.35711 0.0
C327 C 0.64324 0.97613 0.3613 0.0
C328 C 0.67114 0.94597 0.40918 0.0
O329 O 0.67675 0.99 0.3935 0.0
O330 O 0.70473 0.99094 0.39778 0.0
C331 C 0.72719 0.00114 0.3629 0.0
N332 N 0.72099 0.98251 0.3667 0.0
C333 C 0.73963 0.97904 0.34278 0.0
C334 C 0.74632 0.99823 0.3387 0.0
C335 C 0.74003 0.00931 0.34876 0.0
C336 C 0.72693 0.97171 0.35709 0.0
H337 H 0.72236 0.00967 0.37059 0.0
C338 C 0.69388 0.99797 0.40047 0.0
O339 O 0.63853 0.96672 0.37677 0.0
O340 O 0.65906 0.97952 0.3547 0.0
N341 N 0.70608 0.94663 0.37438 0.0
C342 C 0.69733 0.92802 0.37916 0.0
C343 C 0.70153 0.91483 0.36989 0.0
C344 C 0.71482 0.92094 0.35598 0.0
C345 C 0.72382 0.94022 0.35149 0.0
C346 C 0.71914 0.95273 0.36127 0.0
H347 H 0.68712 0.92326 0.38986 0.0
O348 O 0.65263 0.94185 0.35794 0.0
O349 O 0.68255 0.96229 0.36729 0.0
O350 O 0.65945 0.94922 0.39945 0.0
O351 O 0.68818 0.9524 0.4052 0.0
C352 C 0.7369 0.94739 0.33733 0.0
C353 C 0.74477 0.96677 0.33296 0.0
H354 H 0.75615 0.00456 0.32773 0.0
H355 H 0.74506 0.0241 0.34562 0.0
H356 H 0.69451 0.89997 0.37343 0.0
H357 H 0.71788 0.91068 0.34873 0.0
H358 H 0.74074 0.93803 0.32948 0.0
H359 H 0.75457 0.97204 0.32182 0.0
Mn360 Mn 0.03847 0.71642 0.35001 0.0
Mn361 Mn 0.0805 0.71806 0.34986 0.0
C362 C 0.06222 0.735 0.37397 0.0
C363 C 0.00789 0.70124 0.36002 0.0
C364 C 0.06884 0.7403 0.3232 0.0
O365 O 0.0326 0.69341 0.33158 0.0
O366 O 0.06083 0.69489 0.33392 0.0
C367 C 0.07164 0.68363 0.37107 0.0
N368 N 0.08265 0.70283 0.36929 0.0
C369 C 0.10324 0.70615 0.39711 0.0
C370 C 0.0922 0.68638 0.39918 0.0
C371 C 0.07629 0.67509 0.38614 0.0
C372 C 0.09796 0.71384 0.38178 0.0
H373 H 0.05942 0.6749 0.36107 0.0
C374 C 0.04344 0.6868 0.3275 0.0
O375 O 0.01204 0.71181 0.3453 0.0
O376 O 0.02128 0.69924 0.36835 0.0
N377 N 0.10086 0.73957 0.36488 0.0
C378 C 0.10907 0.75863 0.36188 0.0
C379 C 0.12473 0.77202 0.37419 0.0
C380 C 0.13185 0.76567 0.38935 0.0
C381 C 0.1232 0.74597 0.39213 0.0
C382 C 0.10767 0.73329 0.37937 0.0
H383 H 0.10357 0.76361 0.35035 0.0
O384 O 0.04848 0.7384 0.37025 0.0
O385 O 0.06158 0.7207 0.3637 0.0
O386 O 0.05256 0.73496 0.32916 0.0
O387 O 0.07985 0.73446 0.32984 0.0
C388 C 0.12911 0.73847 0.40731 0.0
C389 C 0.1191 0.71859 0.40985 0.0
H390 H 0.09569 0.67976 0.41082 0.0
H391 H 0.06765 0.65984 0.38769 0.0
H392 H 0.13124 0.78721 0.37203 0.0
H393 H 0.14383 0.77605 0.39892 0.0
H394 H 0.14114 0.74791 0.41734 0.0
H395 H 0.12357 0.71305 0.42181 0.0
Mn396 Mn 0.28732 0.34108 0.37537 0.0
Mn397 Mn 0.24778 0.29857 0.37718 0.0
C398 C 0.2604 0.33413 0.35618 0.0
C399 C 0.31586 0.35799 0.36157 0.0
C400 C 0.26293 0.33109 0.40919 0.0
O401 O 0.29639 0.32452 0.38846 0.0
O402 O 0.26988 0.29552 0.38464 0.0
C403 C 0.2521 0.27539 0.34555 0.0
N404 N 0.24204 0.28296 0.35345 0.0
C405 C 0.21796 0.26861 0.3269 0.0
C406 C 0.228 0.26057 0.31854 0.0
C407 C 0.24515 0.264 0.3279 0.0
C408 C 0.22549 0.27969 0.34461 0.0
H409 H 0.26535 0.2781 0.35263 0.0
C410 C 0.28759 0.3063 0.38939 0.0
O411 O 0.31344 0.36388 0.37842 0.0
O412 O 0.30182 0.34249 0.35302 0.0
N413 N 0.22562 0.29996 0.36978 0.0
C414 C 0.21842 0.30995 0.37899 0.0
C415 C 0.20168 0.30874 0.37106 0.0
C416 C 0.19252 0.29728 0.35377 0.0
C417 C 0.20018 0.28711 0.34456 0.0
C418 C 0.21681 0.28873 0.35323 0.0
H419 H 0.22544 0.31884 0.39224 0.0
O420 O 0.27367 0.35188 0.35994 0.0
O421 O 0.26346 0.32136 0.3639 0.0
O422 O 0.27619 0.34392 0.40034 0.0
O423 O 0.25229 0.31375 0.4021 0.0
C424 C 0.19219 0.27577 0.3269 0.0
C425 C 0.20107 0.26652 0.31808 0.0
H426 H 0.22279 0.25194 0.30483 0.0
H427 H 0.25304 0.25795 0.32148 0.0
H428 H 0.1959 0.31669 0.37822 0.0
H429 H 0.17971 0.29654 0.3476 0.0
H430 H 0.17938 0.27431 0.31982 0.0
H431 H 0.19495 0.25809 0.30435 0.0
Mn432 Mn 0.33311 0.03838 0.68467 0.0
Mn433 Mn 0.373 0.08162 0.68821 0.0
C434 C 0.33826 0.05937 0.661 0.0
C435 C 0.3168 0.0056 0.67553 0.0
C436 C 0.3398 0.07286 0.71158 0.0
O437 O 0.34997 0.03503 0.7048 0.0
O438 O 0.37639 0.06384 0.70505 0.0
C439 C 0.39741 0.0693 0.66945 0.0
N440 N 0.3896 0.08087 0.67022 0.0
C441 C 0.40515 0.09681 0.64248 0.0
C442 C 0.41345 0.08514 0.64147 0.0
C443 C 0.40952 0.07129 0.65499 0.0
C444 C 0.39317 0.09414 0.6572 0.0
H445 H 0.39438 0.0586 0.67979 0.0
C446 C 0.36704 0.04688 0.7108 0.0
O447 O 0.31157 0.01298 0.68928 0.0
O448 O 0.3317 0.01727 0.66721 0.0
N449 N 0.37202 0.10042 0.67274 0.0
C450 C 0.36278 0.11044 0.67565 0.0
C451 C 0.36519 0.12486 0.66335 0.0
C452 C 0.37723 0.129 0.64835 0.0
C453 C 0.38688 0.11877 0.64588 0.0
C454 C 0.38406 0.10467 0.65869 0.0
H455 H 0.35359 0.1074 0.68722 0.0
O456 O 0.3213 0.04572 0.66316 0.0
O457 O 0.35173 0.06016 0.67254 0.0
O458 O 0.32928 0.05562 0.70432 0.0
O459 O 0.35649 0.08377 0.7068 0.0
C460 C 0.39906 0.12187 0.6311 0.0
C461 C 0.40812 0.11084 0.62935 0.0
H462 H 0.42278 0.08662 0.63032 0.0
H463 H 0.41582 0.06218 0.65425 0.0
H464 H 0.35776 0.13275 0.6654 0.0
H465 H 0.37893 0.14002 0.63879 0.0
H466 H 0.4014 0.13257 0.62088 0.0
H467 H 0.4173 0.11323 0.61781 0.0
Mn468 Mn 0.96244 0.28879 0.72864 0.0
Mn469 Mn 0.96121 0.24597 0.72635 0.0
C470 C 0.94341 0.26532 0.74801 0.0
C471 C 0.97596 0.32077 0.74051 0.0
C472 C 0.94074 0.2569 0.69611 0.0
O473 O 0.98563 0.29433 0.71483 0.0
O474 O 0.98445 0.26566 0.71533 0.0
C475 C 0.99388 0.25635 0.75451 0.0
N476 N 0.97525 0.24483 0.74871 0.0
C477 C 0.97068 0.22586 0.7761 0.0
C478 C 0.98985 0.23744 0.78229 0.0
C479 C 0.00148 0.25277 0.77146 0.0
C480 C 0.96392 0.23006 0.75903 0.0
H481 H 0.00285 0.26819 0.74627 0.0
C482 C 0.99233 0.28327 0.71117 0.0
O483 O 0.96605 0.31457 0.72389 0.0
O484 O 0.97826 0.30841 0.75017 0.0
N485 N 0.93967 0.22552 0.73651 0.0
C486 C 0.92136 0.2162 0.72897 0.0
C487 C 0.90779 0.20073 0.73831 0.0
C488 C 0.91321 0.19489 0.75519 0.0
C489 C 0.93218 0.2045 0.76249 0.0
C490 C 0.94511 0.21971 0.75246 0.0
H491 H 0.91711 0.22063 0.71601 0.0
O492 O 0.9402 0.2792 0.74416 0.0
O493 O 0.95796 0.26574 0.7407 0.0
O494 O 0.94552 0.27338 0.70431 0.0
O495 O 0.94602 0.24559 0.70296 0.0
C496 C 0.93872 0.19984 0.77955 0.0
C497 C 0.95795 0.21054 0.78637 0.0
H498 H 0.99575 0.23479 0.79541 0.0
H499 H 0.01627 0.26183 0.7762 0.0
H500 H 0.89318 0.19337 0.73257 0.0
H501 H 0.90267 0.18309 0.76248 0.0
H502 H 0.92904 0.18822 0.78768 0.0
H503 H 0.96276 0.20696 0.79962 0.0
Mn504 Mn 0.71047 0.66065 0.69169 0.0
Mn505 Mn 0.75012 0.70381 0.69367 0.0
C506 C 0.7358 0.66721 0.71334 0.0
C507 C 0.68045 0.64266 0.70249 0.0
C508 C 0.73911 0.67229 0.66127 0.0
O509 O 0.70211 0.67729 0.67766 0.0
O510 O 0.72852 0.70625 0.68252 0.0
C511 C 0.74092 0.7253 0.72284 0.0
N512 N 0.75251 0.71873 0.717 0.0
C513 C 0.77342 0.73335 0.74598 0.0
C514 C 0.76178 0.74039 0.75224 0.0
C515 C 0.74545 0.73632 0.74062 0.0
C516 C 0.76828 0.7226 0.72803 0.0
H517 H 0.72829 0.7221 0.71401 0.0
C518 C 0.71112 0.69545 0.67645 0.0
O519 O 0.68466 0.63748 0.68627 0.0
O520 O 0.69363 0.65796 0.71223 0.0
N521 N 0.77196 0.70342 0.70444 0.0
C522 C 0.78098 0.6945 0.69693 0.0
C523 C 0.79727 0.69657 0.7071 0.0
C524 C 0.80413 0.70782 0.72485 0.0
C525 C 0.79466 0.71695 0.73224 0.0
C526 C 0.77862 0.71453 0.72136 0.0
H527 H 0.77575 0.68578 0.68333 0.0
O528 O 0.72295 0.64953 0.70834 0.0
O529 O 0.7333 0.68032 0.70554 0.0
O530 O 0.72428 0.65924 0.66809 0.0
O531 O 0.74908 0.68928 0.6695 0.0
C532 C 0.80028 0.728 0.75019 0.0
C533 C 0.78966 0.73618 0.75706 0.0
H534 H 0.76514 0.74875 0.76602 0.0
H535 H 0.73633 0.7416 0.74541 0.0
H536 H 0.80446 0.68944 0.70133 0.0
H537 H 0.81657 0.7092 0.73276 0.0
H538 H 0.81257 0.73003 0.75897 0.0
H539 H 0.79395 0.74438 0.77102 0.0
Mn540 Mn 0.33406 0.30072 0.7056 0.0
Mn541 Mn 0.37438 0.29871 0.71094 0.0
C542 C 0.33963 0.28213 0.68339 0.0
C543 C 0.31701 0.31502 0.69405 0.0
C544 C 0.3409 0.27584 0.7339 0.0
O545 O 0.35047 0.32372 0.72474 0.0
O546 O 0.37645 0.32083 0.72708 0.0
C547 C 0.39896 0.33462 0.69276 0.0
N548 N 0.39177 0.31534 0.69379 0.0
C549 C 0.41101 0.31425 0.66922 0.0
C550 C 0.41871 0.33412 0.66795 0.0
C551 C 0.41258 0.34433 0.67971 0.0
C552 C 0.39741 0.30535 0.68242 0.0
H553 H 0.39438 0.34254 0.70185 0.0
C554 C 0.36729 0.32936 0.73159 0.0
O555 O 0.31193 0.30432 0.70861 0.0
O556 O 0.33226 0.31779 0.68651 0.0
N557 N 0.37501 0.2783 0.69628 0.0
C558 C 0.36544 0.25905 0.69851 0.0
C559 C 0.36946 0.24668 0.68734 0.0
C560 C 0.38352 0.25426 0.6743 0.0
C561 C 0.39338 0.27415 0.67246 0.0
C562 C 0.3887 0.28575 0.6839 0.0
H563 H 0.3547 0.25317 0.7086 0.0
O564 O 0.32263 0.2788 0.68536 0.0
O565 O 0.35312 0.29656 0.69421 0.0
O566 O 0.33054 0.28226 0.72682 0.0
O567 O 0.35738 0.28093 0.72882 0.0
C568 C 0.40748 0.2829 0.65954 0.0
C569 C 0.41619 0.30291 0.65781 0.0
H570 H 0.42925 0.34167 0.65794 0.0
H571 H 0.41841 0.35965 0.67877 0.0
H572 H 0.36177 0.23134 0.68882 0.0
H573 H 0.38653 0.24467 0.66567 0.0
H574 H 0.41157 0.27434 0.65067 0.0
H575 H 0.42678 0.30941 0.64758 0.0
Mn576 Mn 0.70186 0.04814 0.67676 0.0
Mn577 Mn 0.73927 0.04134 0.67441 0.0
C578 C 0.72739 0.064 0.69954 0.0
C579 C 0.67214 0.03801 0.68777 0.0
C580 C 0.73152 0.06619 0.64758 0.0
O581 O 0.6916 0.02384 0.6587 0.0
O582 O 0.71681 0.0194 0.6599 0.0
C583 C 0.72641 0.00733 0.69736 0.0
N584 N 0.73945 0.0258 0.69455 0.0
C585 C 0.75895 0.02768 0.72276 0.0
C586 C 0.74579 0.00864 0.72589 0.0
C587 C 0.72944 0.99843 0.71314 0.0
C588 C 0.75524 0.03575 0.70671 0.0
H589 H 0.71378 0.99948 0.68765 0.0
C590 C 0.69968 0.01423 0.65427 0.0
O591 O 0.67757 0.04848 0.67304 0.0
O592 O 0.68385 0.03341 0.69585 0.0
N593 N 0.7619 0.0615 0.68799 0.0
C594 C 0.77265 0.08006 0.68355 0.0
C595 C 0.78926 0.09242 0.69524 0.0
C596 C 0.79467 0.08554 0.71129 0.0
C597 C 0.78348 0.06632 0.71546 0.0
C598 C 0.76718 0.05464 0.70319 0.0
H599 H 0.76853 0.08544 0.67126 0.0
O600 O 0.71574 0.07041 0.69662 0.0
O601 O 0.72361 0.04845 0.68915 0.0
O602 O 0.71698 0.06469 0.65519 0.0
O603 O 0.74043 0.05776 0.65351 0.0
C604 C 0.78767 0.05841 0.73152 0.0
C605 C 0.7754 0.03911 0.73517 0.0
H606 H 0.74801 0.00176 0.73812 0.0
H607 H 0.71917 0.98376 0.71552 0.0
H608 H 0.79781 0.10723 0.69194 0.0
H609 H 0.80739 0.09516 0.72039 0.0
H610 H 0.80014 0.06712 0.7413 0.0
H611 H 0.77864 0.03327 0.74772 0.0
Mn612 Mn 0.9497 0.67589 0.70849 0.0
Mn613 Mn 0.90787 0.63537 0.70985 0.0
C614 C 0.92416 0.67091 0.68819 0.0
C615 C 0.97911 0.69149 0.69615 0.0
C616 C 0.92396 0.66854 0.74104 0.0
O617 O 0.95647 0.65806 0.72249 0.0
O618 O 0.92833 0.63063 0.71981 0.0
C619 C 0.91151 0.60958 0.68072 0.0
N620 N 0.90213 0.61856 0.68705 0.0
C621 C 0.87851 0.60373 0.66014 0.0
C622 C 0.88786 0.59424 0.65337 0.0
C623 C 0.90445 0.5972 0.66369 0.0
C624 C 0.8861 0.61574 0.6773 0.0
H625 H 0.92429 0.61187 0.68859 0.0
C626 C 0.94609 0.6402 0.72479 0.0
O627 O 0.97628 0.6975 0.7127 0.0
O628 O 0.96496 0.67642 0.68702 0.0
N629 N 0.88707 0.63824 0.70036 0.0
C630 C 0.88072 0.64977 0.70791 0.0
C631 C 0.86478 0.64932 0.69873 0.0
C632 C 0.85549 0.63699 0.68195 0.0
C633 C 0.86226 0.62523 0.67449 0.0
C634 C 0.87815 0.62622 0.68432 0.0
H635 H 0.88786 0.65932 0.72076 0.0
O636 O 0.93824 0.6882 0.69228 0.0
O637 O 0.92551 0.65721 0.69618 0.0
O638 O 0.93842 0.68017 0.73274 0.0
O639 O 0.91216 0.65155 0.73387 0.0
C640 C 0.85413 0.6129 0.65744 0.0
C641 C 0.86223 0.60214 0.65028 0.0
H642 H 0.88255 0.58481 0.64016 0.0
H643 H 0.9118 0.59 0.65851 0.0
H644 H 0.85969 0.6585 0.70453 0.0
H645 H 0.8433 0.63681 0.67482 0.0
H646 H 0.84183 0.61183 0.64952 0.0
H647 H 0.85604 0.59297 0.63697 0.0
H648 H 0.16101 0.33363 0.02507 0.0
H649 H 0.25894 0.28437 0.18536 0.0
H650 H 0.15837 0.34568 0.13092 0.0
H651 H 0.13569 0.35403 0.11696 0.0
H652 H 0.09036 0.29679 0.12472 0.0
H653 H 0.11353 0.28835 0.13815 0.0
H654 H 0.18431 0.34168 0.10786 0.0
H655 H 0.17895 0.34379 0.07316 0.0
H656 H 0.13155 0.28583 0.06904 0.0
H657 H 0.13723 0.28384 0.10373 0.0
H658 H 0.21372 0.34239 0.13536 0.0
H659 H 0.23801 0.34942 0.11287 0.0
H660 H 0.20497 0.29187 0.0853 0.0
H661 H 0.1805 0.28498 0.10786 0.0
H662 H 0.21406 0.33473 0.1785 0.0
H663 H 0.2413 0.33227 0.19094 0.0
H664 H 0.21655 0.27518 0.16205 0.0
H665 H 0.1893 0.27776 0.14988 0.0
H666 H 0.18224 0.33726 0.19636 0.0
H667 H 0.19169 0.3383 0.23063 0.0
H668 H 0.17637 0.27832 0.22339 0.0
H669 H 0.16721 0.27757 0.18893 0.0
H670 H 0.15138 0.34057 0.1733 0.0
H671 H 0.13438 0.34386 0.19981 0.0
H672 H 0.11353 0.28422 0.21053 0.0
H673 H 0.13009 0.2809 0.18345 0.0
O674 O 0.1629 0.33247 0.03877 0.0
O675 O 0.13857 0.30268 0.03746 0.0
O676 O 0.26045 0.31512 0.19523 0.0
O677 O 0.24836 0.28573 0.18062 0.0
C678 C 0.15194 0.31142 0.14233 0.0
C679 C 0.16455 0.31112 0.12927 0.0
C680 C 0.18036 0.3098 0.13626 0.0
C681 C 0.18301 0.30773 0.15613 0.0
C682 C 0.17012 0.3075 0.16911 0.0
C683 C 0.15455 0.30936 0.16225 0.0
C684 C 0.13757 0.31639 0.13536 0.0
C685 C 0.14353 0.33496 0.12966 0.0
C686 C 0.1305 0.33975 0.12187 0.0
C687 C 0.11116 0.3261 0.11979 0.0
C688 C 0.10516 0.30757 0.12597 0.0
C689 C 0.11831 0.30275 0.13374 0.0
C690 C 0.16129 0.31252 0.10823 0.0
C691 C 0.17289 0.3294 0.0994 0.0
C692 C 0.16973 0.33059 0.07959 0.0
C693 C 0.15485 0.31496 0.0683 0.0
C694 C 0.14316 0.29812 0.07729 0.0
C695 C 0.14637 0.29694 0.09709 0.0
C696 C 0.1954 0.31318 0.12325 0.0
C697 C 0.21178 0.33126 0.12454 0.0
C698 C 0.22554 0.3353 0.1116 0.0
C699 C 0.22329 0.32124 0.09725 0.0
C700 C 0.20705 0.30295 0.09625 0.0
C701 C 0.19311 0.29899 0.10908 0.0
C702 C 0.19967 0.30636 0.16343 0.0
C703 C 0.21452 0.32168 0.17496 0.0
C704 C 0.23007 0.32025 0.182 0.0
C705 C 0.23108 0.3035 0.17753 0.0
C706 C 0.21621 0.28826 0.1658 0.0
C707 C 0.20065 0.2897 0.15881 0.0
C708 C 0.1741 0.30736 0.19022 0.0
C709 C 0.18063 0.32427 0.20228 0.0
C710 C 0.18592 0.32479 0.22188 0.0
C711 C 0.18482 0.3084 0.22974 0.0
C712 C 0.1776 0.29125 0.21771 0.0
C713 C 0.17231 0.29076 0.19808 0.0
C714 C 0.14191 0.31047 0.17634 0.0
C715 C 0.14271 0.32806 0.18099 0.0
C716 C 0.13317 0.32997 0.19634 0.0
C717 C 0.12276 0.31436 0.20748 0.0
C718 C 0.12127 0.29649 0.20219 0.0
C719 C 0.13078 0.29457 0.18676 0.0
C720 C 0.15155 0.31626 0.04726 0.0
C721 C 0.24754 0.30188 0.18502 0.0
H722 H 0.6891 0.83804 0.04126 0.0
H723 H 0.71065 0.97483 0.21002 0.0
H724 H 0.67378 0.82014 0.14327 0.0
H725 H 0.66789 0.7895 0.12813 0.0
H726 H 0.72427 0.80288 0.14812 0.0
H727 H 0.73018 0.83398 0.16323 0.0
H728 H 0.67555 0.8488 0.12173 0.0
H729 H 0.67572 0.84281 0.08684 0.0
H730 H 0.7346 0.85902 0.09498 0.0
H731 H 0.73429 0.86519 0.12986 0.0
H732 H 0.66873 0.87193 0.15134 0.0
H733 H 0.65752 0.88809 0.12972 0.0
H734 H 0.71355 0.9214 0.11095 0.0
H735 H 0.72476 0.90499 0.1329 0.0
H736 H 0.6752 0.87997 0.19484 0.0
H737 H 0.67222 0.90718 0.20765 0.0
H738 H 0.72662 0.94652 0.18823 0.0
H739 H 0.72953 0.91917 0.17571 0.0
H740 H 0.67959 0.84623 0.21366 0.0
H741 H 0.67584 0.85478 0.24653 0.0
H742 H 0.72698 0.90972 0.24563 0.0
H743 H 0.73173 0.89983 0.2138 0.0
H744 H 0.67838 0.81521 0.18485 0.0
H745 H 0.67581 0.79321 0.20946 0.0
H746 H 0.73011 0.83583 0.23685 0.0
H747 H 0.73322 0.85751 0.21142 0.0
O748 O 0.68938 0.84061 0.0551 0.0
O749 O 0.71963 0.84902 0.06007 0.0
O750 O 0.68358 0.94297 0.21481 0.0
O751 O 0.71145 0.96381 0.20505 0.0
C752 C 0.70569 0.84825 0.16231 0.0
C753 C 0.70497 0.86123 0.14953 0.0
C754 C 0.70362 0.8771 0.15691 0.0
C755 C 0.70465 0.88106 0.1771 0.0
C756 C 0.70642 0.86871 0.19006 0.0
C757 C 0.70657 0.85203 0.18263 0.0
C758 C 0.7025 0.8294 0.15405 0.0
C759 C 0.68494 0.81657 0.14425 0.0
C760 C 0.68162 0.7991 0.13559 0.0
C761 C 0.69573 0.79396 0.13668 0.0
C762 C 0.71318 0.80655 0.14703 0.0
C763 C 0.71658 0.82425 0.15561 0.0
C764 C 0.70499 0.85772 0.12827 0.0
C765 C 0.68853 0.85129 0.11592 0.0
C766 C 0.68864 0.84776 0.096 0.0
C767 C 0.70519 0.8505 0.0881 0.0
C768 C 0.72163 0.85683 0.10058 0.0
C769 C 0.7215 0.86037 0.12049 0.0
C770 C 0.69752 0.88736 0.14364 0.0
C771 C 0.67859 0.88271 0.14255 0.0
C772 C 0.6722 0.89182 0.1301 0.0
C773 C 0.68465 0.90584 0.11855 0.0
C774 C 0.70371 0.91064 0.11975 0.0
C775 C 0.7101 0.90132 0.13217 0.0
C776 C 0.70267 0.89762 0.18453 0.0
C777 C 0.68649 0.89448 0.19346 0.0
C778 C 0.68481 0.91004 0.20071 0.0
C779 C 0.69922 0.92904 0.19901 0.0
C780 C 0.71529 0.93209 0.18982 0.0
C781 C 0.71698 0.91651 0.18263 0.0
C782 C 0.70594 0.87241 0.21124 0.0
C783 C 0.69042 0.85974 0.22092 0.0
C784 C 0.68807 0.86492 0.23964 0.0
C785 C 0.70075 0.88326 0.24878 0.0
C786 C 0.7169 0.89541 0.2394 0.0
C787 C 0.71961 0.88987 0.221 0.0
C788 C 0.70613 0.83789 0.19613 0.0
C789 C 0.6901 0.81955 0.19564 0.0
C790 C 0.68857 0.80705 0.20976 0.0
C791 C 0.70279 0.81291 0.2249 0.0
C792 C 0.71902 0.83106 0.22521 0.0
C793 C 0.72079 0.84338 0.21075 0.0
C794 C 0.70525 0.84669 0.06694 0.0
C795 C 0.69754 0.94563 0.20678 0.0
H796 H 0.12862 0.8426 0.03316 0.0
H797 H 0.28976 0.96856 0.18255 0.0
H798 H 0.11935 0.8472 0.13733 0.0
H799 H 0.09259 0.81542 0.12636 0.0
H800 H 0.12475 0.789 0.14675 0.0
H801 H 0.15082 0.82052 0.15817 0.0
H802 H 0.15294 0.88096 0.11146 0.0
H803 H 0.1418 0.86931 0.07746 0.0
H804 H 0.15162 0.82161 0.08546 0.0
H805 H 0.16292 0.83356 0.11935 0.0
H806 H 0.19506 0.91565 0.1261 0.0
H807 H 0.22043 0.92994 0.10408 0.0
H808 H 0.22667 0.87953 0.10491 0.0
H809 H 0.20128 0.86526 0.12652 0.0
H810 H 0.19572 0.92364 0.17631 0.0
H811 H 0.22612 0.95291 0.18442 0.0
H812 H 0.25481 0.92192 0.16836 0.0
H813 H 0.22435 0.89273 0.16056 0.0
H814 H 0.1674 0.89344 0.20754 0.0
H815 H 0.18004 0.9002 0.24175 0.0
H816 H 0.21984 0.88181 0.22766 0.0
H817 H 0.20697 0.87482 0.19384 0.0
H818 H 0.12714 0.85707 0.18464 0.0
H819 H 0.10953 0.83848 0.21116 0.0
H820 H 0.1516 0.82163 0.22256 0.0
H821 H 0.16898 0.84015 0.19627 0.0
O822 O 0.13315 0.847 0.04663 0.0
O823 O 0.13838 0.8227 0.05151 0.0
O824 O 0.26213 0.97243 0.18774 0.0
O825 O 0.27756 0.95719 0.17953 0.0
C826 C 0.15394 0.85513 0.15348 0.0
C827 C 0.16513 0.86513 0.1385 0.0
C828 C 0.18299 0.88155 0.14312 0.0
C829 C 0.18932 0.88853 0.16272 0.0
C830 C 0.17823 0.87847 0.17772 0.0
C831 C 0.16049 0.86176 0.17309 0.0
C832 C 0.13691 0.83608 0.14865 0.0
C833 C 0.12035 0.83444 0.13973 0.0
C834 C 0.10517 0.81629 0.13335 0.0
C835 C 0.10644 0.79956 0.13566 0.0
C836 C 0.12298 0.80141 0.1451 0.0
C837 C 0.13799 0.81946 0.15158 0.0
C838 C 0.15852 0.85799 0.11788 0.0
C839 C 0.15267 0.86801 0.10581 0.0
C840 C 0.1463 0.8613 0.08642 0.0
C841 C 0.14574 0.84448 0.07875 0.0
C842 C 0.1518 0.83457 0.0909 0.0
C843 C 0.15819 0.84131 0.11028 0.0
C844 C 0.19635 0.88943 0.12786 0.0
C845 C 0.20163 0.90756 0.12114 0.0
C846 C 0.21604 0.91565 0.10859 0.0
C847 C 0.22545 0.9058 0.10291 0.0
C848 C 0.21962 0.88738 0.10912 0.0
C849 C 0.20511 0.87922 0.12137 0.0
C850 C 0.20785 0.90616 0.16765 0.0
C851 C 0.2086 0.92323 0.17456 0.0
C852 C 0.22597 0.93991 0.17917 0.0
C853 C 0.24291 0.93977 0.17696 0.0
C854 C 0.24206 0.92256 0.17015 0.0
C855 C 0.22468 0.90588 0.1656 0.0
C856 C 0.18638 0.8838 0.19821 0.0
C857 C 0.17892 0.89101 0.2119 0.0
C858 C 0.18617 0.89488 0.23137 0.0
C859 C 0.20086 0.89141 0.23741 0.0
C860 C 0.20835 0.88436 0.22355 0.0
C861 C 0.20118 0.88059 0.20417 0.0
C862 C 0.1495 0.85023 0.18879 0.0
C863 C 0.13249 0.84934 0.19292 0.0
C864 C 0.12243 0.83867 0.20798 0.0
C865 C 0.12931 0.82881 0.21913 0.0
C866 C 0.14614 0.82943 0.21456 0.0
C867 C 0.15609 0.83997 0.19953 0.0
C868 C 0.13889 0.83735 0.05817 0.0
C869 C 0.2614 0.95748 0.18176 0.0
H870 H 0.28522 0.17381 0.02674 0.0
H871 H 0.29946 0.03273 0.88798 0.0
H872 H 0.27586 0.17475 0.92416 0.0
H873 H 0.28776 0.20868 0.93478 0.0
H874 H 0.34066 0.22359 0.91095 0.0
H875 H 0.32922 0.18983 0.90183 0.0
H876 H 0.26725 0.13519 0.94867 0.0
H877 H 0.26933 0.14747 0.98221 0.0
H878 H 0.32772 0.18995 0.97788 0.0
H879 H 0.32551 0.17737 0.94447 0.0
H880 H 0.26892 0.09468 0.93373 0.0
H881 H 0.27777 0.07646 0.95551 0.0
H882 H 0.3346 0.12467 0.96353 0.0
H883 H 0.32568 0.14253 0.94201 0.0
H884 H 0.26086 0.08921 0.88541 0.0
H885 H 0.25804 0.05757 0.87899 0.0
H886 H 0.31623 0.08093 0.901 0.0
H887 H 0.31891 0.11251 0.90707 0.0
H888 H 0.2676 0.11992 0.85283 0.0
H889 H 0.2732 0.11135 0.82019 0.0
H890 H 0.32937 0.12523 0.84165 0.0
H891 H 0.32369 0.13368 0.8739 0.0
H892 H 0.26976 0.16143 0.87215 0.0
H893 H 0.27411 0.18088 0.84432 0.0
H894 H 0.33043 0.18953 0.84174 0.0
H895 H 0.32579 0.16992 0.8691 0.0
O896 O 0.28472 0.16915 0.01346 0.0
O897 O 0.31466 0.19076 0.01046 0.0
O898 O 0.27043 0.03384 0.87885 0.0
O899 O 0.30021 0.04509 0.89026 0.0
C900 C 0.29584 0.1592 0.90807 0.0
C901 C 0.29467 0.14792 0.92373 0.0
C902 C 0.29297 0.1296 0.92016 0.0
C903 C 0.2915 0.12216 0.90087 0.0
C904 C 0.29263 0.13337 0.88527 0.0
C905 C 0.29468 0.15182 0.88882 0.0
C906 C 0.3016 0.17982 0.91204 0.0
C907 C 0.28992 0.18544 0.92107 0.0
C908 C 0.29672 0.20483 0.92703 0.0
C909 C 0.31526 0.21887 0.9239 0.0
C910 C 0.32648 0.21317 0.91397 0.0
C911 C 0.31982 0.19388 0.90838 0.0
C912 C 0.29614 0.15555 0.94407 0.0
C913 C 0.28046 0.14715 0.95501 0.0
C914 C 0.28169 0.15421 0.97415 0.0
C915 C 0.29867 0.16975 0.98271 0.0
C916 C 0.31441 0.17802 0.97172 0.0
C917 C 0.31317 0.17092 0.9526 0.0
C918 C 0.29663 0.11998 0.93638 0.0
C919 C 0.28311 0.10143 0.94068 0.0
C920 C 0.28824 0.09102 0.95297 0.0
C921 C 0.30692 0.09907 0.96121 0.0
C922 C 0.32003 0.1181 0.95775 0.0
C923 C 0.31494 0.1284 0.94545 0.0
C924 C 0.29 0.10306 0.89691 0.0
C925 C 0.27297 0.08744 0.88881 0.0
C926 C 0.2714 0.0694 0.88518 0.0
C927 C 0.28689 0.0667 0.88957 0.0
C928 C 0.30401 0.08248 0.89752 0.0
C929 C 0.30556 0.10052 0.90107 0.0
C930 C 0.29521 0.12728 0.86567 0.0
C931 C 0.28103 0.12096 0.85041 0.0
C932 C 0.28424 0.1161 0.83187 0.0
C933 C 0.30178 0.11781 0.82841 0.0
C934 C 0.31584 0.12405 0.84383 0.0
C935 C 0.31256 0.12869 0.86228 0.0
C936 C 0.29737 0.16408 0.87244 0.0
C937 C 0.283 0.16755 0.86549 0.0
C938 C 0.28554 0.17871 0.84968 0.0
C939 C 0.30253 0.18656 0.84064 0.0
C940 C 0.31699 0.18331 0.848 0.0
C941 C 0.31442 0.17217 0.86369 0.0
C942 C 0.29991 0.17724 0.00303 0.0
C943 C 0.28527 0.04754 0.88587 0.0
H944 H 0.84086 0.17627 0.03353 0.0
H945 H 0.72479 0.02074 0.87268 0.0
H946 H 0.84158 0.18478 0.92873 0.0
H947 H 0.86803 0.21406 0.94492 0.0
H948 H 0.90534 0.19159 0.93407 0.0
H949 H 0.87859 0.16213 0.91784 0.0
H950 H 0.8127 0.1561 0.95167 0.0
H951 H 0.82043 0.16607 0.98636 0.0
H952 H 0.8636 0.14981 0.98685 0.0
H953 H 0.85557 0.13969 0.95218 0.0
H954 H 0.77974 0.12549 0.92518 0.0
H955 H 0.75671 0.11045 0.94904 0.0
H956 H 0.7893 0.08597 0.97303 0.0
H957 H 0.81234 0.1011 0.94897 0.0
H958 H 0.77746 0.11653 0.88092 0.0
H959 H 0.7482 0.08744 0.86888 0.0
H960 H 0.76911 0.05262 0.89476 0.0
H961 H 0.79839 0.08184 0.90652 0.0
H962 H 0.81022 0.1483 0.86213 0.0
H963 H 0.79905 0.13811 0.82799 0.0
H964 H 0.80857 0.08988 0.8328 0.0
H965 H 0.81959 0.10017 0.86711 0.0
H966 H 0.84172 0.18143 0.88476 0.0
H967 H 0.86086 0.20133 0.85992 0.0
H968 H 0.88044 0.16099 0.8485 0.0
H969 H 0.8612 0.14113 0.87345 0.0
O970 O 0.83795 0.17213 0.01984 0.0
O971 O 0.86 0.1636 0.0193 0.0
O972 O 0.72614 0.05103 0.86419 0.0
O973 O 0.73621 0.03248 0.87728 0.0
C974 C 0.84157 0.15276 0.91504 0.0
C975 C 0.82898 0.14124 0.92836 0.0
C976 C 0.81198 0.12456 0.92156 0.0
C977 C 0.80794 0.1189 0.90151 0.0
C978 C 0.82071 0.13026 0.88819 0.0
C979 C 0.83747 0.14729 0.89497 0.0
C980 C 0.8582 0.17135 0.92228 0.0
C981 C 0.85551 0.18628 0.92967 0.0
C982 C 0.87058 0.20289 0.93901 0.0
C983 C 0.88866 0.20493 0.94101 0.0
C984 C 0.89154 0.19035 0.93272 0.0
C985 C 0.87635 0.1736 0.92345 0.0
C986 C 0.83346 0.14702 0.94949 0.0
C987 C 0.8237 0.15454 0.95935 0.0
C988 C 0.8282 0.1603 0.97914 0.0
C989 C 0.84262 0.15871 0.98939 0.0
C990 C 0.8524 0.1512 0.9794 0.0
C991 C 0.84785 0.14541 0.95962 0.0
C992 C 0.79759 0.11425 0.93529 0.0
C993 C 0.78181 0.11675 0.9355 0.0
C994 C 0.76883 0.10837 0.94927 0.0
C995 C 0.77132 0.0972 0.963 0.0
C996 C 0.78703 0.09447 0.96259 0.0
C997 C 0.80014 0.10304 0.94888 0.0
C998 C 0.79007 0.10126 0.89446 0.0
C999 C 0.77572 0.1026 0.88388 0.0
C1000 C 0.75901 0.08596 0.87707 0.0
C1001 C 0.75633 0.06768 0.88083 0.0
C1002 C 0.77072 0.06645 0.89159 0.0
C1003 C 0.78744 0.0831 0.89835 0.0
C1004 C 0.81576 0.125 0.86705 0.0
C1005 C 0.81023 0.13575 0.8557 0.0
C1006 C 0.8039 0.12992 0.83618 0.0
C1007 C 0.80289 0.11316 0.82766 0.0
C1008 C 0.80897 0.10273 0.83898 0.0
C1009 C 0.81535 0.10861 0.85852 0.0
C1010 C 0.85015 0.15991 0.88091 0.0
C1011 C 0.8503 0.17702 0.87703 0.0
C1012 C 0.86111 0.18826 0.86276 0.0
C1013 C 0.87206 0.18264 0.85223 0.0
C1014 C 0.87223 0.16572 0.85649 0.0
C1015 C 0.86126 0.15437 0.87066 0.0
C1016 C 0.84743 0.16493 0.0104 0.0
C1017 C 0.73863 0.04996 0.87357 0.0
H1018 H 0.85624 0.70065 0.04877 0.0
H1019 H 0.71743 0.67145 0.87622 0.0
H1020 H 0.88027 0.72014 0.94693 0.0
H1021 H 0.90452 0.71514 0.96382 0.0
H1022 H 0.87459 0.65549 0.94161 0.0
H1023 H 0.85055 0.66062 0.92479 0.0
H1024 H 0.84494 0.71895 0.96993 0.0
H1025 H 0.85095 0.71679 0.00452 0.0
H1026 H 0.83716 0.65766 0.9926 0.0
H1027 H 0.831 0.65997 0.9581 0.0
H1028 H 0.80622 0.71379 0.95197 0.0
H1029 H 0.78077 0.70419 0.97368 0.0
H1030 H 0.76851 0.64517 0.9656 0.0
H1031 H 0.7942 0.65505 0.94456 0.0
H1032 H 0.80916 0.72232 0.90532 0.0
H1033 H 0.7801 0.72126 0.89273 0.0
H1034 H 0.75027 0.65929 0.89374 0.0
H1035 H 0.77948 0.66059 0.90622 0.0
H1036 H 0.83635 0.72377 0.87826 0.0
H1037 H 0.82575 0.72205 0.84399 0.0
H1038 H 0.79624 0.65993 0.84241 0.0
H1039 H 0.807 0.66186 0.87648 0.0
H1040 H 0.87489 0.72426 0.89517 0.0
H1041 H 0.89455 0.72349 0.86987 0.0
H1042 H 0.85997 0.66152 0.86242 0.0
H1043 H 0.84083 0.6625 0.8878 0.0
O1044 O 0.85373 0.70116 0.03504 0.0
O1045 O 0.84658 0.67084 0.02814 0.0
O1046 O 0.74506 0.70418 0.88107 0.0
O1047 O 0.72909 0.67229 0.88126 0.0
C1048 C 0.84741 0.69263 0.92745 0.0
C1049 C 0.83422 0.69119 0.94061 0.0
C1050 C 0.81735 0.69051 0.93379 0.0
C1051 C 0.81407 0.69229 0.91398 0.0
C1052 C 0.82724 0.69376 0.90082 0.0
C1053 C 0.84383 0.69377 0.90752 0.0
C1054 C 0.8638 0.69078 0.93451 0.0
C1055 C 0.87928 0.70616 0.94531 0.0
C1056 C 0.89303 0.70326 0.95497 0.0
C1057 C 0.89128 0.68488 0.95414 0.0
C1058 C 0.87616 0.66974 0.94264 0.0
C1059 C 0.86257 0.6727 0.93284 0.0
C1060 C 0.83772 0.68968 0.96155 0.0
C1061 C 0.84322 0.70555 0.97485 0.0
C1062 C 0.84666 0.70428 0.99458 0.0
C1063 C 0.8446 0.68707 0.00132 0.0
C1064 C 0.83894 0.67114 0.9879 0.0
C1065 C 0.83547 0.67243 0.96819 0.0
C1066 C 0.80204 0.68511 0.94684 0.0
C1067 C 0.79802 0.69884 0.95502 0.0
C1068 C 0.78344 0.69328 0.96731 0.0
C1069 C 0.77264 0.6739 0.9715 0.0
C1070 C 0.77676 0.66026 0.96308 0.0
C1071 C 0.79134 0.66583 0.95094 0.0
C1072 C 0.79633 0.69155 0.90675 0.0
C1073 C 0.79631 0.70856 0.90285 0.0
C1074 C 0.7797 0.7079 0.89565 0.0
C1075 C 0.76284 0.69018 0.89224 0.0
C1076 C 0.76298 0.67316 0.89622 0.0
C1077 C 0.77961 0.67386 0.90339 0.0
C1078 C 0.82243 0.69294 0.87974 0.0
C1079 C 0.82782 0.70984 0.87037 0.0
C1080 C 0.82169 0.70881 0.85087 0.0
C1081 C 0.81015 0.69084 0.84049 0.0
C1082 C 0.80532 0.67397 0.84988 0.0
C1083 C 0.81136 0.67503 0.86935 0.0
C1084 C 0.8566 0.69342 0.89335 0.0
C1085 C 0.87182 0.71056 0.8882 0.0
C1086 C 0.88291 0.71009 0.87368 0.0
C1087 C 0.8789 0.69244 0.86419 0.0
C1088 C 0.86372 0.67532 0.86968 0.0
C1089 C 0.85269 0.67583 0.88411 0.0
C1090 C 0.84834 0.68579 0.02228 0.0
C1091 C 0.74518 0.68939 0.88453 0.0
H1092 H 0.82561 0.67391 0.35602 0.0
H1093 H 0.93111 0.63107 0.51218 0.0
H1094 H 0.82106 0.68186 0.46117 0.0
H1095 H 0.79651 0.68856 0.44933 0.0
H1096 H 0.75416 0.62998 0.4571 0.0
H1097 H 0.77917 0.62326 0.46869 0.0
H1098 H 0.84978 0.68044 0.43837 0.0
H1099 H 0.84403 0.68321 0.40391 0.0
H1100 H 0.79691 0.62507 0.39911 0.0
H1101 H 0.80295 0.62242 0.43355 0.0
H1102 H 0.88188 0.68056 0.46827 0.0
H1103 H 0.90737 0.68696 0.44763 0.0
H1104 H 0.87102 0.63398 0.41283 0.0
H1105 H 0.84562 0.62713 0.43417 0.0
H1106 H 0.87982 0.675 0.50972 0.0
H1107 H 0.90836 0.67459 0.52137 0.0
H1108 H 0.88768 0.61938 0.48954 0.0
H1109 H 0.8591 0.61986 0.47819 0.0
H1110 H 0.84301 0.6746 0.52687 0.0
H1111 H 0.85134 0.67646 0.56135 0.0
H1112 H 0.85205 0.6229 0.55324 0.0
H1113 H 0.84126 0.62006 0.51921 0.0
H1114 H 0.81338 0.67582 0.5024 0.0
H1115 H 0.79555 0.67763 0.52873 0.0
H1116 H 0.78109 0.61992 0.54188 0.0
H1117 H 0.79835 0.61792 0.51481 0.0
O1118 O 0.82766 0.6725 0.36961 0.0
O1119 O 0.8035 0.64259 0.36794 0.0
O1120 O 0.92989 0.65992 0.52402 0.0
O1121 O 0.91993 0.63157 0.50784 0.0
C1122 C 0.81728 0.64851 0.47247 0.0
C1123 C 0.83034 0.64945 0.45933 0.0
C1124 C 0.84687 0.64937 0.46619 0.0
C1125 C 0.84996 0.64761 0.48613 0.0
C1126 C 0.83682 0.64653 0.49928 0.0
C1127 C 0.82033 0.6468 0.49241 0.0
C1128 C 0.80188 0.65207 0.46566 0.0
C1129 C 0.80649 0.67045 0.46029 0.0
C1130 C 0.79242 0.6743 0.45373 0.0
C1131 C 0.77338 0.65984 0.45248 0.0
C1132 C 0.76873 0.64136 0.45788 0.0
C1133 C 0.78292 0.63753 0.46454 0.0
C1134 C 0.82689 0.65117 0.43839 0.0
C1135 C 0.83831 0.66828 0.42981 0.0
C1136 C 0.83495 0.66984 0.41014 0.0
C1137 C 0.82003 0.65434 0.39873 0.0
C1138 C 0.80854 0.63726 0.40746 0.0
C1139 C 0.81194 0.63571 0.42712 0.0
C1140 C 0.86196 0.65322 0.45296 0.0
C1141 C 0.87943 0.6702 0.45634 0.0
C1142 C 0.89393 0.6739 0.4445 0.0
C1143 C 0.89112 0.66093 0.42872 0.0
C1144 C 0.87346 0.64421 0.42489 0.0
C1145 C 0.85901 0.64028 0.43706 0.0
C1146 C 0.86732 0.64738 0.49325 0.0
C1147 C 0.88142 0.66277 0.50541 0.0
C1148 C 0.89774 0.66253 0.51197 0.0
C1149 C 0.90029 0.64692 0.50641 0.0
C1150 C 0.88616 0.63159 0.49413 0.0
C1151 C 0.86983 0.63183 0.48761 0.0
C1152 C 0.84132 0.64709 0.5205 0.0
C1153 C 0.84437 0.66296 0.53269 0.0
C1154 C 0.84956 0.66418 0.55243 0.0
C1155 C 0.85271 0.64999 0.56034 0.0
C1156 C 0.84947 0.634 0.54801 0.0
C1157 C 0.84354 0.63243 0.52838 0.0
C1158 C 0.80709 0.64668 0.50651 0.0
C1159 C 0.80584 0.66331 0.51049 0.0
C1160 C 0.79588 0.66443 0.52579 0.0
C1161 C 0.7871 0.64902 0.53763 0.0
C1162 C 0.78757 0.632 0.53301 0.0
C1163 C 0.79747 0.63085 0.51758 0.0
C1164 C 0.8165 0.65604 0.37784 0.0
C1165 C 0.91761 0.6466 0.51332 0.0
H1166 H 0.35401 0.16373 0.36622 0.0
H1167 H 0.37388 0.30511 0.53003 0.0
H1168 H 0.33622 0.14807 0.46768 0.0
H1169 H 0.33103 0.11724 0.45376 0.0
H1170 H 0.38668 0.13115 0.47709 0.0
H1171 H 0.39195 0.16245 0.49086 0.0
H1172 H 0.33846 0.17613 0.44543 0.0
H1173 H 0.33948 0.16939 0.41088 0.0
H1174 H 0.39837 0.18618 0.42108 0.0
H1175 H 0.3972 0.1931 0.45561 0.0
H1176 H 0.33137 0.19903 0.47107 0.0
H1177 H 0.32162 0.21662 0.44982 0.0
H1178 H 0.37957 0.25355 0.43807 0.0
H1179 H 0.38927 0.23551 0.45946 0.0
H1180 H 0.33709 0.20995 0.51633 0.0
H1181 H 0.33423 0.23764 0.52777 0.0
H1182 H 0.38997 0.27593 0.51058 0.0
H1183 H 0.39273 0.2481 0.49944 0.0
H1184 H 0.34106 0.17756 0.53842 0.0
H1185 H 0.33803 0.18812 0.57084 0.0
H1186 H 0.39067 0.24122 0.56802 0.0
H1187 H 0.39448 0.22941 0.53676 0.0
H1188 H 0.33919 0.14452 0.51015 0.0
H1189 H 0.33637 0.12221 0.53459 0.0
H1190 H 0.39057 0.16448 0.56244 0.0
H1191 H 0.39394 0.18646 0.53722 0.0
O1192 O 0.35396 0.1666 0.37995 0.0
O1193 O 0.38419 0.17532 0.38597 0.0
O1194 O 0.34605 0.2736 0.53421 0.0
O1195 O 0.37462 0.29391 0.52557 0.0
C1196 C 0.36747 0.17661 0.48743 0.0
C1197 C 0.3673 0.18937 0.474 0.0
C1198 C 0.36628 0.20565 0.48056 0.0
C1199 C 0.367 0.21018 0.50058 0.0
C1200 C 0.36822 0.19804 0.51419 0.0
C1201 C 0.36798 0.18094 0.50758 0.0
C1202 C 0.36458 0.15763 0.47996 0.0
C1203 C 0.34739 0.14458 0.46964 0.0
C1204 C 0.34445 0.12699 0.4617 0.0
C1205 C 0.35857 0.12196 0.4641 0.0
C1206 C 0.37561 0.13475 0.475 0.0
C1207 C 0.37863 0.15256 0.48282 0.0
C1208 C 0.36784 0.1854 0.45296 0.0
C1209 C 0.35163 0.1786 0.44013 0.0
C1210 C 0.35222 0.17464 0.42042 0.0
C1211 C 0.36902 0.17731 0.41319 0.0
C1212 C 0.38521 0.18402 0.42615 0.0
C1213 C 0.3846 0.188 0.44586 0.0
C1214 C 0.36096 0.21597 0.46662 0.0
C1215 C 0.34193 0.21075 0.46369 0.0
C1216 C 0.3364 0.22074 0.4515 0.0
C1217 C 0.34984 0.23631 0.44218 0.0
C1218 C 0.36897 0.24155 0.44508 0.0
C1219 C 0.3745 0.2313 0.45717 0.0
C1220 C 0.36515 0.22704 0.50717 0.0
C1221 C 0.34868 0.22433 0.51511 0.0
C1222 C 0.34708 0.24017 0.5216 0.0
C1223 C 0.3619 0.25901 0.52012 0.0
C1224 C 0.37831 0.26163 0.51196 0.0
C1225 C 0.37991 0.24577 0.50553 0.0
C1226 C 0.36799 0.20272 0.53517 0.0
C1227 C 0.3523 0.19111 0.5452 0.0
C1228 C 0.3504 0.19743 0.56363 0.0
C1229 C 0.36383 0.21582 0.57211 0.0
C1230 C 0.38005 0.2269 0.56235 0.0
C1231 C 0.38223 0.22025 0.54427 0.0
C1232 C 0.36692 0.16703 0.52169 0.0
C1233 C 0.35075 0.14878 0.52112 0.0
C1234 C 0.34907 0.13611 0.53512 0.0
C1235 C 0.36329 0.14173 0.55022 0.0
C1236 C 0.37949 0.15992 0.55083 0.0
C1237 C 0.3814 0.17241 0.5365 0.0
C1238 C 0.36959 0.17304 0.39224 0.0
C1239 C 0.3603 0.27588 0.52707 0.0
H1240 H 0.79626 0.17749 0.36043 0.0
H1241 H 0.95927 0.2961 0.50874 0.0
H1242 H 0.7886 0.17706 0.46419 0.0
H1243 H 0.76067 0.14565 0.45442 0.0
H1244 H 0.79132 0.11745 0.47405 0.0
H1245 H 0.81874 0.14863 0.48394 0.0
H1246 H 0.8221 0.2123 0.43994 0.0
H1247 H 0.81047 0.20229 0.40578 0.0
H1248 H 0.81838 0.15298 0.41014 0.0
H1249 H 0.83017 0.16328 0.44421 0.0
H1250 H 0.86335 0.24731 0.45885 0.0
H1251 H 0.88795 0.26494 0.4371 0.0
H1252 H 0.89338 0.21447 0.42592 0.0
H1253 H 0.86868 0.197 0.44743 0.0
H1254 H 0.86541 0.25135 0.5069 0.0
H1255 H 0.89608 0.28018 0.5153 0.0
H1256 H 0.92373 0.25019 0.49295 0.0
H1257 H 0.89299 0.22141 0.48487 0.0
H1258 H 0.83645 0.22035 0.53494 0.0
H1259 H 0.84977 0.22757 0.56889 0.0
H1260 H 0.89005 0.21013 0.55384 0.0
H1261 H 0.87648 0.20267 0.52022 0.0
H1262 H 0.79582 0.18368 0.51108 0.0
H1263 H 0.77687 0.16218 0.53516 0.0
H1264 H 0.82022 0.14719 0.54722 0.0
H1265 H 0.8386 0.16806 0.52274 0.0
O1266 O 0.80095 0.18122 0.37394 0.0
O1267 O 0.80522 0.15607 0.37696 0.0
O1268 O 0.93208 0.29958 0.5172 0.0
O1269 O 0.94697 0.28487 0.50569 0.0
C1270 C 0.82291 0.18382 0.48009 0.0
C1271 C 0.8338 0.19461 0.46528 0.0
C1272 C 0.85161 0.21107 0.47017 0.0
C1273 C 0.8583 0.21702 0.4899 0.0
C1274 C 0.84743 0.20621 0.50469 0.0
C1275 C 0.82967 0.18964 0.49982 0.0
C1276 C 0.80559 0.16505 0.4749 0.0
C1277 C 0.78911 0.16403 0.46652 0.0
C1278 C 0.77324 0.14611 0.4609 0.0
C1279 C 0.77368 0.12901 0.46361 0.0
C1280 C 0.79026 0.13025 0.47218 0.0
C1281 C 0.80602 0.14807 0.47776 0.0
C1282 C 0.82681 0.18843 0.44457 0.0
C1283 C 0.82131 0.19935 0.43347 0.0
C1284 C 0.81466 0.19359 0.41398 0.0
C1285 C 0.81343 0.1768 0.40524 0.0
C1286 C 0.81908 0.16595 0.41643 0.0
C1287 C 0.82576 0.17176 0.4359 0.0
C1288 C 0.86424 0.22089 0.45473 0.0
C1289 C 0.8696 0.23999 0.45137 0.0
C1290 C 0.88375 0.25005 0.43905 0.0
C1291 C 0.89278 0.24117 0.42988 0.0
C1292 C 0.88661 0.2217 0.43253 0.0
C1293 C 0.8725 0.21168 0.44485 0.0
C1294 C 0.87699 0.23437 0.49515 0.0
C1295 C 0.87812 0.25104 0.50388 0.0
C1296 C 0.89565 0.26748 0.50863 0.0
C1297 C 0.91237 0.26751 0.50473 0.0
C1298 C 0.91115 0.25069 0.49609 0.0
C1299 C 0.89361 0.23425 0.49141 0.0
C1300 C 0.85558 0.2111 0.52516 0.0
C1301 C 0.84816 0.21813 0.53905 0.0
C1302 C 0.85581 0.2223 0.55836 0.0
C1303 C 0.87091 0.21934 0.56404 0.0
C1304 C 0.87827 0.2123 0.55 0.0
C1305 C 0.87067 0.20823 0.53076 0.0
C1306 C 0.81866 0.17755 0.51526 0.0
C1307 C 0.80121 0.17579 0.51902 0.0
C1308 C 0.79046 0.16358 0.53284 0.0
C1309 C 0.79697 0.15288 0.54308 0.0
C1310 C 0.81462 0.15496 0.53941 0.0
C1311 C 0.82528 0.16708 0.52559 0.0
C1312 C 0.8063 0.17068 0.38455 0.0
C1313 C 0.93102 0.28498 0.50962 0.0
H1314 H 0.96785 0.50988 0.35808 0.0
H1315 H 0.99471 0.38121 0.21216 0.0
H1316 H 0.95511 0.51118 0.25576 0.0
H1317 H 0.96506 0.54426 0.26808 0.0
H1318 H 0.01841 0.56395 0.24338 0.0
H1319 H 0.0089 0.531 0.23239 0.0
H1320 H 0.95049 0.47234 0.27955 0.0
H1321 H 0.95248 0.48382 0.31339 0.0
H1322 H 0.00916 0.52994 0.30801 0.0
H1323 H 0.00709 0.51816 0.27431 0.0
H1324 H 0.95533 0.43337 0.26129 0.0
H1325 H 0.96673 0.41581 0.28077 0.0
H1326 H 0.02027 0.46809 0.29345 0.0
H1327 H 0.00934 0.48495 0.27272 0.0
H1328 H 0.94659 0.42845 0.21512 0.0
H1329 H 0.94742 0.39881 0.20721 0.0
H1330 H 0.00667 0.4279 0.22698 0.0
H1331 H 0.00568 0.45746 0.23458 0.0
H1332 H 0.94732 0.45543 0.18528 0.0
H1333 H 0.95065 0.44381 0.15302 0.0
H1334 H 0.01028 0.46762 0.16836 0.0
H1335 H 0.0068 0.47906 0.20024 0.0
H1336 H 0.94877 0.49894 0.20335 0.0
H1337 H 0.95131 0.51878 0.17626 0.0
H1338 H 0.00914 0.53239 0.17268 0.0
H1339 H 0.00627 0.51232 0.1992 0.0
O1340 O 0.96738 0.50556 0.34469 0.0
O1341 O 0.99644 0.52907 0.34113 0.0
O1342 O 0.96355 0.37848 0.20499 0.0
O1343 O 0.99399 0.39273 0.21511 0.0
C1344 C 0.97696 0.49858 0.23853 0.0
C1345 C 0.97713 0.48745 0.25387 0.0
C1346 C 0.97683 0.46986 0.24972 0.0
C1347 C 0.97543 0.46298 0.23021 0.0
C1348 C 0.97501 0.47394 0.21496 0.0
C1349 C 0.9758 0.49174 0.21906 0.0
C1350 C 0.98121 0.51868 0.24303 0.0
C1351 C 0.9688 0.52273 0.25277 0.0
C1352 C 0.97449 0.54163 0.25972 0.0
C1353 C 0.99263 0.55671 0.25691 0.0
C1354 C 0.0045 0.55265 0.24613 0.0
C1355 C 0.99895 0.53383 0.2395 0.0
C1356 C 0.97853 0.49455 0.27441 0.0
C1357 C 0.96332 0.48492 0.28572 0.0
C1358 C 0.96449 0.49152 0.30503 0.0
C1359 C 0.98095 0.50785 0.31338 0.0
C1360 C 0.99625 0.51737 0.30201 0.0
C1361 C 0.99507 0.51073 0.28273 0.0
C1362 C 0.98151 0.46044 0.26547 0.0
C1363 C 0.96939 0.44107 0.26861 0.0
C1364 C 0.97593 0.43108 0.27982 0.0
C1365 C 0.9946 0.44042 0.28836 0.0
C1366 C 0.00603 0.46027 0.28662 0.0
C1367 C 0.99965 0.47008 0.27509 0.0
C1368 C 0.97601 0.445 0.22559 0.0
C1369 C 0.95971 0.42836 0.21772 0.0
C1370 C 0.96024 0.41147 0.21324 0.0
C1371 C 0.97711 0.41097 0.21652 0.0
C1372 C 0.99344 0.42776 0.22431 0.0
C1373 C 0.99291 0.44465 0.22873 0.0
C1374 C 0.97685 0.46813 0.19495 0.0
C1375 C 0.96109 0.45828 0.18148 0.0
C1376 C 0.963 0.45159 0.16319 0.0
C1377 C 0.98075 0.45491 0.15817 0.0
C1378 C 0.9965 0.46512 0.17167 0.0
C1379 C 0.99454 0.4716 0.1899 0.0
C1380 C 0.97725 0.504 0.20301 0.0
C1381 C 0.96192 0.5062 0.1966 0.0
C1382 C 0.96344 0.5176 0.18123 0.0
C1383 C 0.98036 0.52699 0.17213 0.0
C1384 C 0.99575 0.52498 0.17896 0.0
C1385 C 0.99418 0.51356 0.19418 0.0
C1386 C 0.98213 0.51486 0.33388 0.0
C1387 C 0.97773 0.39306 0.21183 0.0
H1388 H 0.49586 0.50894 0.36819 0.0
H1389 H 0.39979 0.35294 0.20334 0.0
H1390 H 0.50628 0.51936 0.2658 0.0
H1391 H 0.53195 0.54952 0.28145 0.0
H1392 H 0.57131 0.52946 0.27149 0.0
H1393 H 0.54537 0.49915 0.25578 0.0
H1394 H 0.4746 0.48866 0.28498 0.0
H1395 H 0.47915 0.49828 0.31973 0.0
H1396 H 0.52544 0.4867 0.32545 0.0
H1397 H 0.52059 0.47691 0.29071 0.0
H1398 H 0.44388 0.45595 0.25318 0.0
H1399 H 0.41756 0.43837 0.27288 0.0
H1400 H 0.4514 0.42132 0.30775 0.0
H1401 H 0.47774 0.43863 0.28749 0.0
H1402 H 0.4459 0.44895 0.21307 0.0
H1403 H 0.4188 0.41873 0.1993 0.0
H1404 H 0.44162 0.38704 0.22851 0.0
H1405 H 0.46879 0.41741 0.24196 0.0
H1406 H 0.47849 0.48363 0.19837 0.0
H1407 H 0.46683 0.47327 0.16445 0.0
H1408 H 0.47969 0.42713 0.16796 0.0
H1409 H 0.491 0.43748 0.2022 0.0
H1410 H 0.50904 0.51724 0.22214 0.0
H1411 H 0.52864 0.53817 0.19818 0.0
H1412 H 0.55033 0.49957 0.18699 0.0
H1413 H 0.5307 0.47873 0.21115 0.0
O1414 O 0.49425 0.50499 0.35449 0.0
O1415 O 0.518 0.4989 0.35664 0.0
O1416 O 0.39928 0.38208 0.19381 0.0
O1417 O 0.41034 0.36511 0.2086 0.0
C1418 C 0.508 0.48828 0.25186 0.0
C1419 C 0.49453 0.47626 0.26425 0.0
C1420 C 0.47834 0.4592 0.25644 0.0
C1421 C 0.47609 0.4537 0.23639 0.0
C1422 C 0.4895 0.46582 0.224 0.0
C1423 C 0.50541 0.48316 0.23171 0.0
C1424 C 0.52398 0.50704 0.25989 0.0
C1425 C 0.52045 0.5215 0.26697 0.0
C1426 C 0.5351 0.53865 0.27596 0.0
C1427 C 0.55358 0.54171 0.27791 0.0
C1428 C 0.5572 0.52748 0.27015 0.0
C1429 C 0.54246 0.51021 0.26122 0.0
C1430 C 0.49717 0.48194 0.28539 0.0
C1431 C 0.48562 0.48807 0.2938 0.0
C1432 C 0.4883 0.49363 0.31364 0.0
C1433 C 0.50265 0.49323 0.32538 0.0
C1434 C 0.51425 0.48714 0.31684 0.0
C1435 C 0.51152 0.48155 0.29701 0.0
C1436 C 0.46261 0.44832 0.26871 0.0
C1437 C 0.44557 0.44823 0.2649 0.0
C1438 C 0.43059 0.43826 0.2762 0.0
C1439 C 0.43246 0.42844 0.29174 0.0
C1440 C 0.44968 0.42886 0.29587 0.0
C1441 C 0.46463 0.43863 0.28431 0.0
C1442 C 0.4594 0.43536 0.22833 0.0
C1443 C 0.44508 0.43547 0.21635 0.0
C1444 C 0.42959 0.41819 0.20857 0.0
C1445 C 0.42807 0.40046 0.21275 0.0
C1446 C 0.44236 0.40043 0.22495 0.0
C1447 C 0.45788 0.41774 0.23268 0.0
C1448 C 0.48558 0.46131 0.20269 0.0
C1449 C 0.47924 0.4716 0.19166 0.0
C1450 C 0.4726 0.46565 0.17224 0.0
C1451 C 0.4722 0.44928 0.16348 0.0
C1452 C 0.47953 0.43961 0.17435 0.0
C1453 C 0.48614 0.44557 0.19384 0.0
C1454 C 0.51854 0.49655 0.21842 0.0
C1455 C 0.51823 0.51346 0.21472 0.0
C1456 C 0.52929 0.52528 0.20092 0.0
C1457 C 0.54093 0.52043 0.19065 0.0
C1458 C 0.5416 0.50373 0.19479 0.0
C1459 C 0.5304 0.49182 0.20851 0.0
C1460 C 0.50549 0.49919 0.34644 0.0
C1461 C 0.41168 0.38205 0.20446 0.0
H1462 H 0.51723 0.01556 0.37602 0.0
H1463 H 0.37602 0.98118 0.20409 0.0
H1464 H 0.54072 0.03514 0.27115 0.0
H1465 H 0.56634 0.03234 0.28809 0.0
H1466 H 0.53648 0.97121 0.27204 0.0
H1467 H 0.51109 0.97415 0.25516 0.0
H1468 H 0.50399 0.03184 0.29686 0.0
H1469 H 0.51064 0.03049 0.33149 0.0
H1470 H 0.49886 0.9719 0.32049 0.0
H1471 H 0.492 0.97338 0.28596 0.0
H1472 H 0.46229 0.02541 0.27401 0.0
H1473 H 0.4359 0.01613 0.29424 0.0
H1474 H 0.43175 0.96049 0.29881 0.0
H1475 H 0.45719 0.96949 0.27765 0.0
H1476 H 0.46792 0.03462 0.23155 0.0
H1477 H 0.43836 0.03237 0.21879 0.0
H1478 H 0.40989 0.97068 0.22218 0.0
H1479 H 0.4396 0.97314 0.23475 0.0
H1480 H 0.49703 0.03996 0.20924 0.0
H1481 H 0.48753 0.04156 0.17546 0.0
H1482 H 0.4589 0.97948 0.16728 0.0
H1483 H 0.46865 0.97811 0.20099 0.0
H1484 H 0.5306 0.03853 0.21789 0.0
H1485 H 0.54834 0.0378 0.19065 0.0
H1486 H 0.52367 0.97625 0.19289 0.0
H1487 H 0.50556 0.97709 0.21944 0.0
O1488 O 0.51448 0.01576 0.36227 0.0
O1489 O 0.50839 0.98572 0.35582 0.0
O1490 O 0.4032 0.01424 0.20761 0.0
O1491 O 0.38789 0.98249 0.20913 0.0
C1492 C 0.50726 0.0058 0.25476 0.0
C1493 C 0.49389 0.00386 0.26793 0.0
C1494 C 0.47693 0.00311 0.26118 0.0
C1495 C 0.47386 0.00542 0.24143 0.0
C1496 C 0.48745 0.00787 0.22839 0.0
C1497 C 0.50399 0.00769 0.23497 0.0
C1498 C 0.52417 0.00487 0.26183 0.0
C1499 C 0.54002 0.02127 0.27087 0.0
C1500 C 0.55456 0.01964 0.28054 0.0
C1501 C 0.55327 0.00153 0.28149 0.0
C1502 C 0.53774 0.9853 0.27167 0.0
C1503 C 0.52335 0.98698 0.26186 0.0
C1504 C 0.49772 0.00279 0.28891 0.0
C1505 C 0.50285 0.01873 0.30198 0.0
C1506 C 0.50665 0.01792 0.32174 0.0
C1507 C 0.50535 0.00111 0.32875 0.0
C1508 C 0.50006 0.9851 0.31557 0.0
C1509 C 0.49623 0.98592 0.29583 0.0
C1510 C 0.4617 0.99815 0.27441 0.0
C1511 C 0.4556 0.01122 0.27938 0.0
C1512 C 0.44062 0.00592 0.29108 0.0
C1513 C 0.43159 0.9875 0.29816 0.0
C1514 C 0.43806 0.97464 0.29337 0.0
C1515 C 0.45281 0.97985 0.28149 0.0
C1516 C 0.45585 0.00405 0.23405 0.0
C1517 C 0.45528 0.02064 0.22948 0.0
C1518 C 0.43838 0.01931 0.22223 0.0
C1519 C 0.42175 0.00133 0.21946 0.0
C1520 C 0.42242 0.98474 0.22413 0.0
C1521 C 0.43934 0.9861 0.23135 0.0
C1522 C 0.48346 0.00893 0.20748 0.0
C1523 C 0.48895 0.02676 0.20002 0.0
C1524 C 0.48344 0.02762 0.18079 0.0
C1525 C 0.47239 0.01063 0.16873 0.0
C1526 C 0.46758 0.99282 0.17611 0.0
C1527 C 0.47304 0.99199 0.19536 0.0
C1528 C 0.51693 0.00788 0.22069 0.0
C1529 C 0.52933 0.02498 0.21265 0.0
C1530 C 0.53947 0.02453 0.19715 0.0
C1531 C 0.53728 0.00694 0.18947 0.0
C1532 C 0.52544 0.98999 0.19822 0.0
C1533 C 0.51527 0.99046 0.21357 0.0
C1534 C 0.50948 0.00032 0.34974 0.0
C1535 C 0.40377 -0.00018 0.21171 0.0
H1536 H 0.49746 0.02875 0.69577 0.0
H1537 H 0.59871 0.9701 0.84416 0.0
H1538 H 0.49401 0.03197 0.80113 0.0
H1539 H 0.4693 0.03833 0.78893 0.0
H1540 H 0.42747 0.97919 0.79547 0.0
H1541 H 0.45261 0.97283 0.80703 0.0
H1542 H 0.52249 0.03085 0.77702 0.0
H1543 H 0.51646 0.03545 0.7432 0.0
H1544 H 0.46872 0.97767 0.73646 0.0
H1545 H 0.47505 0.97321 0.77027 0.0
H1546 H 0.55267 0.02915 0.79999 0.0
H1547 H 0.57623 0.03447 0.777 0.0
H1548 H 0.54024 0.97703 0.75013 0.0
H1549 H 0.51661 0.97189 0.77318 0.0
H1550 H 0.55359 0.02042 0.84376 0.0
H1551 H 0.58116 0.01767 0.85419 0.0
H1552 H 0.55568 0.96149 0.82313 0.0
H1553 H 0.52811 0.96435 0.813 0.0
H1554 H 0.52274 0.02059 0.86511 0.0
H1555 H 0.53345 0.01877 0.89814 0.0
H1556 H 0.51609 0.95882 0.88478 0.0
H1557 H 0.50572 0.96097 0.85156 0.0
H1558 H 0.49309 0.02572 0.84709 0.0
H1559 H 0.47417 0.02603 0.87304 0.0
H1560 H 0.44663 0.96391 0.87144 0.0
H1561 H 0.46641 0.96399 0.84606 0.0
O1562 O 0.49963 0.0266 0.70909 0.0
O1563 O 0.47517 0.99684 0.70641 0.0
O1564 O 0.60044 0.00048 0.85602 0.0
O1565 O 0.588 0.97157 0.84023 0.0
C1566 C 0.4905 0.99804 0.81043 0.0
C1567 C 0.50293 0.99886 0.79655 0.0
C1568 C 0.51885 0.99721 0.80226 0.0
C1569 C 0.52201 0.99411 0.82169 0.0
C1570 C 0.50937 0.99293 0.83546 0.0
C1571 C 0.49365 0.99497 0.82988 0.0
C1572 C 0.47508 0.00194 0.80479 0.0
C1573 C 0.47949 0.02044 0.80003 0.0
C1574 C 0.46531 0.02406 0.79324 0.0
C1575 C 0.44636 0.00927 0.79125 0.0
C1576 C 0.44193 0.99083 0.79664 0.0
C1577 C 0.45621 0.9872 0.80336 0.0
C1578 C 0.49931 0.00164 0.77601 0.0
C1579 C 0.51084 0.01916 0.76816 0.0
C1580 C 0.50731 0.02177 0.74886 0.0
C1581 C 0.49212 0.00691 0.73711 0.0
C1582 C 0.48054 0.98939 0.7451 0.0
C1583 C 0.48412 0.9868 0.76439 0.0
C1584 C 0.53299 0.00014 0.78824 0.0
C1585 C 0.54988 0.01774 0.7891 0.0
C1586 C 0.56323 0.0208 0.77589 0.0
C1587 C 0.56003 0.00619 0.76172 0.0
C1588 C 0.5431 0.9885 0.76095 0.0
C1589 C 0.52961 0.98555 0.77404 0.0
C1590 C 0.53885 0.99254 0.82772 0.0
C1591 C 0.55398 0.00751 0.8393 0.0
C1592 C 0.56971 0.00592 0.84519 0.0
C1593 C 0.57061 0.98934 0.83952 0.0
C1594 C 0.55544 0.97443 0.82778 0.0
C1595 C 0.5397 0.97604 0.82194 0.0
C1596 C 0.51348 0.99091 0.85603 0.0
C1597 C 0.5209 0.00698 0.86948 0.0
C1598 C 0.52695 0.00587 0.88835 0.0
C1599 C 0.52568 0.98865 0.89408 0.0
C1600 C 0.51748 0.97235 0.88074 0.0
C1601 C 0.51145 0.97349 0.86183 0.0
C1602 C 0.48108 0.99484 0.84469 0.0
C1603 C 0.48287 0.01219 0.85229 0.0
C1604 C 0.47191 0.01228 0.86707 0.0
C1605 C 0.45872 0.99497 0.87443 0.0
C1606 C 0.45679 0.97755 0.86644 0.0
C1607 C 0.46795 0.97752 0.8518 0.0
C1608 C 0.4884 0.00973 0.71662 0.0
C1609 C 0.58728 0.98754 0.84579 0.0
H1610 H 0.99663 0.48089 0.70602 0.0
H1611 H 0.03952 0.63599 0.87896 0.0
H1612 H 0.98971 0.473 0.81772 0.0
H1613 H 0.98418 0.44191 0.80378 0.0
H1614 H 0.04422 0.4651 0.80244 0.0
H1615 H 0.04964 0.4964 0.81629 0.0
H1616 H 0.99045 0.4922 0.78875 0.0
H1617 H 0.98746 0.48345 0.75397 0.0
H1618 H 0.0466 0.5244 0.75129 0.0
H1619 H 0.04941 0.53287 0.78619 0.0
H1620 H 0.98851 0.5226 0.79899 0.0
H1621 H 0.97736 0.54064 0.7804 0.0
H1622 H 0.03291 0.59093 0.78913 0.0
H1623 H 0.0443 0.57215 0.80664 0.0
H1624 H 0.9945 0.54401 0.84396 0.0
H1625 H 0.99342 0.57225 0.85716 0.0
H1626 H 0.05432 0.60518 0.86096 0.0
H1627 H 0.05515 0.57682 0.84767 0.0
H1628 H 0.99701 0.51547 0.8732 0.0
H1629 H 0.99594 0.52898 0.90509 0.0
H1630 H 0.05606 0.56781 0.90768 0.0
H1631 H 0.05693 0.55411 0.87566 0.0
H1632 H 0.99347 0.48095 0.8555 0.0
H1633 H 0.99097 0.4588 0.87994 0.0
H1634 H 0.05165 0.48923 0.89091 0.0
H1635 H 0.05398 0.51117 0.86605 0.0
O1636 O 0.99815 0.48452 0.71981 0.0
O1637 O 0.02862 0.50573 0.7192 0.0
O1638 O 0.00823 0.6072 0.871 0.0
O1639 O 0.03952 0.6247 0.87346 0.0
C1640 C 0.02297 0.50598 0.82469 0.0
C1641 C 0.02209 0.51827 0.81112 0.0
C1642 C 0.02275 0.53552 0.81767 0.0
C1643 C 0.02546 0.54103 0.83774 0.0
C1644 C 0.02669 0.5289 0.85126 0.0
C1645 C 0.02506 0.51121 0.84475 0.0
C1646 C 0.02004 0.48689 0.81783 0.0
C1647 C 0.00167 0.47132 0.81453 0.0
C1648 C 0.99854 0.45365 0.80651 0.0
C1649 C 0.01378 0.45121 0.80189 0.0
C1650 C 0.03226 0.46664 0.80593 0.0
C1651 C 0.03536 0.48445 0.81377 0.0
C1652 C 0.0202 0.51299 0.79 0.0
C1653 C 0.00278 0.49913 0.78066 0.0
C1654 C 0.0011 0.49423 0.76077 0.0
C1655 C 0.01681 0.50319 0.74985 0.0
C1656 C 0.03423 0.51719 0.75927 0.0
C1657 C 0.03588 0.52206 0.77919 0.0
C1658 C 0.01724 0.54601 0.80403 0.0
C1659 C 0.99845 0.53731 0.79631 0.0
C1660 C 0.99202 0.54778 0.786 0.0
C1661 C 0.00415 0.56736 0.78361 0.0
C1662 C 0.02323 0.57586 0.79063 0.0
C1663 C 0.02974 0.5652 0.8007 0.0
C1664 C 0.0249 0.55846 0.84483 0.0
C1665 C 0.00756 0.55739 0.84753 0.0
C1666 C 0.007 0.57351 0.85512 0.0
C1667 C 0.0238 0.59097 0.86015 0.0
C1668 C 0.04114 0.59197 0.85725 0.0
C1669 C 0.04167 0.57583 0.84964 0.0
C1670 C 0.02705 0.5338 0.87221 0.0
C1671 C 0.01003 0.52641 0.88098 0.0
C1672 C 0.00946 0.53419 0.89917 0.0
C1673 C 0.0259 0.54959 0.9088 0.0
C1674 C 0.04314 0.55611 0.90049 0.0
C1675 C 0.04371 0.54821 0.88233 0.0
C1676 C 0.0239 0.4975 0.85899 0.0
C1677 C 0.00621 0.48267 0.86305 0.0
C1678 C 0.00482 0.47017 0.8771 0.0
C1679 C 0.02112 0.47235 0.88739 0.0
C1680 C 0.03888 0.4871 0.88307 0.0
C1681 C 0.04024 0.49966 0.86899 0.0
C1682 C 0.01497 0.49795 0.7287 0.0
C1683 C 0.0233 0.60806 0.86851 0.0
H1684 H 0.47046 0.49652 0.69863 0.0
H1685 H 0.62425 0.63586 0.84599 0.0
H1686 H 0.45891 0.50541 0.79761 0.0
H1687 H 0.43434 0.47261 0.78649 0.0
H1688 H 0.46313 0.4501 0.82179 0.0
H1689 H 0.48815 0.48272 0.83155 0.0
H1690 H 0.49112 0.53936 0.77472 0.0
H1691 H 0.48142 0.52563 0.74109 0.0
H1692 H 0.49241 0.47976 0.75509 0.0
H1693 H 0.50228 0.49377 0.78861 0.0
H1694 H 0.52939 0.57763 0.79366 0.0
H1695 H 0.55327 0.59429 0.77091 0.0
H1696 H 0.56369 0.54638 0.76704 0.0
H1697 H 0.53971 0.52984 0.78956 0.0
H1698 H 0.53028 0.58554 0.84167 0.0
H1699 H 0.55969 0.61602 0.84915 0.0
H1700 H 0.5913 0.58828 0.83268 0.0
H1701 H 0.56182 0.55786 0.8255 0.0
H1702 H 0.503 0.55631 0.87209 0.0
H1703 H 0.5159 0.56537 0.90622 0.0
H1704 H 0.55798 0.54953 0.89426 0.0
H1705 H 0.54493 0.54033 0.86056 0.0
H1706 H 0.46237 0.51643 0.84594 0.0
H1707 H 0.44313 0.49815 0.8717 0.0
H1708 H 0.48827 0.4889 0.89342 0.0
H1709 H 0.50712 0.50664 0.86748 0.0
O1710 O 0.47443 0.50175 0.71198 0.0
O1711 O 0.48024 0.47845 0.71994 0.0
O1712 O 0.59553 0.63753 0.85173 0.0
O1713 O 0.61243 0.62399 0.84325 0.0
C1714 C 0.49189 0.51609 0.81965 0.0
C1715 C 0.50304 0.52587 0.80451 0.0
C1716 C 0.52009 0.54337 0.80881 0.0
C1717 C 0.52598 0.55117 0.82825 0.0
C1718 C 0.51507 0.54125 0.84343 0.0
C1719 C 0.49781 0.52388 0.83913 0.0
C1720 C 0.47538 0.49647 0.81531 0.0
C1721 C 0.45976 0.49335 0.80304 0.0
C1722 C 0.44567 0.47459 0.79683 0.0
C1723 C 0.44689 0.45869 0.80303 0.0
C1724 C 0.46196 0.46198 0.81634 0.0
C1725 C 0.47616 0.48065 0.8222 0.0
C1726 C 0.49726 0.51748 0.7841 0.0
C1727 C 0.49145 0.52637 0.77046 0.0
C1728 C 0.4859 0.51848 0.75128 0.0
C1729 C 0.48609 0.50156 0.74541 0.0
C1730 C 0.49205 0.49277 0.75914 0.0
C1731 C 0.49764 0.50071 0.77829 0.0
C1732 C 0.53282 0.55254 0.79326 0.0
C1733 C 0.53664 0.57064 0.78763 0.0
C1734 C 0.55035 0.58016 0.77473 0.0
C1735 C 0.56049 0.57172 0.76722 0.0
C1736 C 0.55601 0.5532 0.7723 0.0
C1737 C 0.54233 0.54373 0.78521 0.0
C1738 C 0.54392 0.56956 0.83288 0.0
C1739 C 0.54358 0.58609 0.83972 0.0
C1740 C 0.56039 0.60347 0.84395 0.0
C1741 C 0.57786 0.6046 0.84144 0.0
C1742 C 0.57811 0.58793 0.83471 0.0
C1743 C 0.5613 0.57056 0.83053 0.0
C1744 C 0.52308 0.54773 0.86387 0.0
C1745 C 0.51504 0.55491 0.8769 0.0
C1746 C 0.52245 0.5601 0.89631 0.0
C1747 C 0.53785 0.558 0.90293 0.0
C1748 C 0.54593 0.55103 0.88969 0.0
C1749 C 0.53862 0.54596 0.87039 0.0
C1750 C 0.48633 0.51324 0.85505 0.0
C1751 C 0.46809 0.51048 0.85631 0.0
C1752 C 0.4571 0.49999 0.87094 0.0
C1753 C 0.46428 0.49228 0.88466 0.0
C1754 C 0.4825 0.49498 0.88326 0.0
C1755 C 0.49333 0.50519 0.86851 0.0
C1756 C 0.4801 0.49317 0.72504 0.0
C1757 C 0.59575 0.62305 0.8458 0.0
H1758 H 0.6007 0.82263 0.69496 0.0
H1759 H 0.65124 0.70999 0.55288 0.0
H1760 H 0.60188 0.83474 0.59004 0.0
H1761 H 0.60924 0.86799 0.59864 0.0
H1762 H 0.66762 0.88813 0.58887 0.0
H1763 H 0.66007 0.85529 0.58007 0.0
H1764 H 0.59529 0.79243 0.61505 0.0
H1765 H 0.59219 0.80061 0.64861 0.0
H1766 H 0.64895 0.84897 0.65213 0.0
H1767 H 0.65195 0.84049 0.61869 0.0
H1768 H 0.60591 0.75621 0.59854 0.0
H1769 H 0.61851 0.73894 0.61685 0.0
H1770 H 0.66887 0.79296 0.63485 0.0
H1771 H 0.65695 0.80972 0.6153 0.0
H1772 H 0.60045 0.75449 0.55163 0.0
H1773 H 0.60303 0.7259 0.54344 0.0
H1774 H 0.6605 0.75543 0.56929 0.0
H1775 H 0.6578 0.78397 0.57715 0.0
H1776 H 0.60314 0.78549 0.52268 0.0
H1777 H 0.60946 0.77704 0.49041 0.0
H1778 H 0.66719 0.79686 0.51171 0.0
H1779 H 0.66079 0.80532 0.5436 0.0
H1780 H 0.60248 0.82696 0.54338 0.0
H1781 H 0.60818 0.85053 0.5193 0.0
H1782 H 0.66552 0.86181 0.5181 0.0
H1783 H 0.65989 0.83896 0.54256 0.0
O1784 O 0.60224 0.81965 0.68172 0.0
O1785 O 0.63145 0.84438 0.68274 0.0
O1786 O 0.62032 0.70663 0.54257 0.0
O1787 O 0.64985 0.72111 0.55586 0.0
C1788 C 0.62661 0.82288 0.57912 0.0
C1789 C 0.62537 0.81078 0.59397 0.0
C1790 C 0.62634 0.79391 0.58955 0.0
C1791 C 0.62718 0.7885 0.57005 0.0
C1792 C 0.62781 0.80029 0.55518 0.0
C1793 C 0.62768 0.81754 0.55971 0.0
C1794 C 0.63042 0.8427 0.58426 0.0
C1795 C 0.61619 0.84644 0.58966 0.0
C1796 C 0.62044 0.86538 0.59461 0.0
C1797 C 0.63898 0.88077 0.59419 0.0
C1798 C 0.65311 0.87677 0.58884 0.0
C1799 C 0.64886 0.85798 0.58391 0.0
C1800 C 0.62372 0.81602 0.61433 0.0
C1801 C 0.60702 0.8048 0.6231 0.0
C1802 C 0.60529 0.80951 0.64226 0.0
C1803 C 0.62029 0.8255 0.65303 0.0
C1804 C 0.63708 0.83663 0.64422 0.0
C1805 C 0.63879 0.83188 0.62507 0.0
C1806 C 0.63058 0.78422 0.60536 0.0
C1807 C 0.61945 0.76432 0.60686 0.0
C1808 C 0.62668 0.75449 0.61738 0.0
C1809 C 0.64496 0.76452 0.62686 0.0
C1810 C 0.65502 0.78471 0.62718 0.0
C1811 C 0.64802 0.79441 0.61634 0.0
C1812 C 0.62886 0.77119 0.56516 0.0
C1813 C 0.61357 0.75473 0.55549 0.0
C1814 C 0.61509 0.73843 0.55085 0.0
C1815 C 0.63196 0.73835 0.55578 0.0
C1816 C 0.6473 0.75497 0.56534 0.0
C1817 C 0.64578 0.77128 0.56989 0.0
C1818 C 0.63151 0.79595 0.5354 0.0
C1819 C 0.61715 0.78811 0.52024 0.0
C1820 C 0.62076 0.78324 0.50192 0.0
C1821 C 0.63884 0.78636 0.49854 0.0
C1822 C 0.65321 0.79455 0.51376 0.0
C1823 C 0.64956 0.79926 0.532 0.0
C1824 C 0.63069 0.83107 0.54448 0.0
C1825 C 0.61622 0.83451 0.5378 0.0
C1826 C 0.61949 0.84791 0.52403 0.0
C1827 C 0.63732 0.8581 0.51682 0.0
C1828 C 0.65171 0.85445 0.52354 0.0
C1829 C 0.64845 0.84118 0.53731 0.0
C1830 C 0.6184 0.83048 0.67338 0.0
C1831 C 0.63362 0.72105 0.55097 0.0
H1832 H 0.16726 0.84068 0.70978 0.0
H1833 H 0.05288 0.69949 0.54046 0.0
H1834 H 0.17574 0.85576 0.60811 0.0
H1835 H 0.20284 0.88426 0.6245 0.0
H1836 H 0.23907 0.86165 0.60917 0.0
H1837 H 0.21157 0.83274 0.59295 0.0
H1838 H 0.14349 0.82643 0.62673 0.0
H1839 H 0.14944 0.83399 0.66188 0.0
H1840 H 0.19213 0.81707 0.66263 0.0
H1841 H 0.18589 0.80936 0.6275 0.0
H1842 H 0.11041 0.79748 0.59468 0.0
H1843 H 0.08348 0.77865 0.61331 0.0
H1844 H 0.11446 0.75508 0.64277 0.0
H1845 H 0.14132 0.77355 0.6235 0.0
H1846 H 0.11292 0.79406 0.5519 0.0
H1847 H 0.08293 0.76703 0.53792 0.0
H1848 H 0.09671 0.7275 0.5654 0.0
H1849 H 0.12676 0.75464 0.57908 0.0
H1850 H 0.15214 0.82674 0.53559 0.0
H1851 H 0.14255 0.81844 0.50109 0.0
H1852 H 0.13589 0.76191 0.50776 0.0
H1853 H 0.14767 0.77134 0.54162 0.0
H1854 H 0.18443 0.85789 0.56559 0.0
H1855 H 0.20587 0.87754 0.54204 0.0
H1856 H 0.21127 0.82907 0.52143 0.0
H1857 H 0.19065 0.80969 0.54579 0.0
O1858 O 0.16508 0.83751 0.69589 0.0
O1859 O 0.18694 0.82872 0.69548 0.0
O1860 O 0.05828 0.73136 0.53189 0.0
O1861 O 0.06466 0.71044 0.54578 0.0
C1862 C 0.17468 0.82435 0.59098 0.0
C1863 C 0.16071 0.81277 0.60321 0.0
C1864 C 0.14339 0.79727 0.59509 0.0
C1865 C 0.14036 0.79273 0.57482 0.0
C1866 C 0.15449 0.80398 0.56257 0.0
C1867 C 0.17168 0.81992 0.57063 0.0
C1868 C 0.19166 0.84209 0.59959 0.0
C1869 C 0.1895 0.8569 0.60834 0.0
C1870 C 0.20497 0.87311 0.61773 0.0
C1871 C 0.22297 0.87498 0.61833 0.0
C1872 C 0.2253 0.86049 0.60893 0.0
C1873 C 0.20968 0.84405 0.59969 0.0
C1874 C 0.16416 0.8172 0.6246 0.0
C1875 C 0.15401 0.82422 0.63454 0.0
C1876 C 0.15749 0.8286 0.65461 0.0
C1877 C 0.17125 0.82611 0.66508 0.0
C1878 C 0.18143 0.81913 0.65502 0.0
C1879 C 0.1779 0.81472 0.63497 0.0
C1880 C 0.12772 0.78669 0.60755 0.0
C1881 C 0.11139 0.78821 0.60509 0.0
C1882 C 0.09607 0.7775 0.61573 0.0
C1883 C 0.09693 0.76538 0.62933 0.0
C1884 C 0.11354 0.76439 0.63238 0.0
C1885 C 0.12881 0.77488 0.62141 0.0
C1886 C 0.12206 0.77629 0.5664 0.0
C1887 C 0.10947 0.77954 0.55479 0.0
C1888 C 0.09233 0.76409 0.54687 0.0
C1889 C 0.08743 0.74509 0.55053 0.0
C1890 C 0.10005 0.74193 0.56228 0.0
C1891 C 0.11721 0.75739 0.57014 0.0
C1892 C 0.15055 0.79963 0.54118 0.0
C1893 C 0.14919 0.8128 0.52941 0.0
C1894 C 0.14332 0.80783 0.50969 0.0
C1895 C 0.13799 0.7893 0.50145 0.0
C1896 C 0.14006 0.77641 0.51326 0.0
C1897 C 0.14659 0.78167 0.53279 0.0
C1898 C 0.18606 0.83236 0.55759 0.0
C1899 C 0.19067 0.85164 0.55644 0.0
C1900 C 0.2028 0.86281 0.54292 0.0
C1901 C 0.21011 0.85473 0.52998 0.0
C1902 C 0.20573 0.83555 0.53126 0.0
C1903 C 0.19401 0.82453 0.54514 0.0
C1904 C 0.17495 0.83084 0.68639 0.0
C1905 C 0.06924 0.72862 0.54214 0.0
H1906 H 0.19973 0.37588 0.71643 0.0
H1907 H 0.05028 0.32404 0.54968 0.0
H1908 H 0.21767 0.38381 0.61479 0.0
H1909 H 0.243 0.3801 0.63118 0.0
H1910 H 0.21536 0.32074 0.60829 0.0
H1911 H 0.19028 0.32454 0.59193 0.0
H1912 H 0.1805 0.3835 0.63588 0.0
H1913 H 0.18903 0.38559 0.67068 0.0
H1914 H 0.18399 0.32927 0.66411 0.0
H1915 H 0.1752 0.32726 0.62941 0.0
H1916 H 0.13771 0.37286 0.61326 0.0
H1917 H 0.11084 0.36253 0.633 0.0
H1918 H 0.11249 0.3104 0.6429 0.0
H1919 H 0.13836 0.32024 0.62222 0.0
H1920 H 0.14346 0.37926 0.56789 0.0
H1921 H 0.11312 0.37555 0.55571 0.0
H1922 H 0.08538 0.31595 0.56913 0.0
H1923 H 0.11584 0.31982 0.58106 0.0
H1924 H 0.17544 0.38243 0.54468 0.0
H1925 H 0.164 0.3805 0.51068 0.0
H1926 H 0.12703 0.31929 0.51243 0.0
H1927 H 0.13858 0.32138 0.54629 0.0
H1928 H 0.21385 0.38403 0.56543 0.0
H1929 H 0.23327 0.38264 0.54016 0.0
H1930 H 0.19344 0.32207 0.52747 0.0
H1931 H 0.17451 0.32358 0.55284 0.0
O1932 O 0.19626 0.37472 0.70264 0.0
O1933 O 0.19359 0.34577 0.69847 0.0
O1934 O 0.07741 0.3566 0.54772 0.0
O1935 O 0.06245 0.32591 0.55442 0.0
C1936 C 0.18515 0.3553 0.59537 0.0
C1937 C 0.17244 0.35436 0.60897 0.0
C1938 C 0.15476 0.35214 0.60248 0.0
C1939 C 0.15031 0.35212 0.58247 0.0
C1940 C 0.16316 0.35345 0.56894 0.0
C1941 C 0.18043 0.35471 0.57534 0.0
C1942 C 0.20221 0.35446 0.60214 0.0
C1943 C 0.21741 0.37018 0.61291 0.0
C1944 C 0.23179 0.36804 0.62226 0.0
C1945 C 0.23097 0.35008 0.62112 0.0
C1946 C 0.21621 0.33467 0.60953 0.0
C1947 C 0.20201 0.33688 0.60003 0.0
C1948 C 0.17746 0.35535 0.6301 0.0
C1949 C 0.18124 0.37164 0.642 0.0
C1950 C 0.18613 0.37279 0.66186 0.0
C1951 C 0.18727 0.35763 0.67017 0.0
C1952 C 0.18331 0.34124 0.65818 0.0
C1953 C 0.17838 0.34009 0.63833 0.0
C1954 C 0.14001 0.34732 0.6163 0.0
C1955 C 0.13228 0.35926 0.61979 0.0
C1956 C 0.117 0.35337 0.63119 0.0
C1957 C 0.10933 0.33551 0.63942 0.0
C1958 C 0.11769 0.32402 0.63646 0.0
C1959 C 0.13272 0.32977 0.62489 0.0
C1960 C 0.1318 0.34985 0.57544 0.0
C1961 C 0.1308 0.36543 0.56818 0.0
C1962 C 0.11346 0.36326 0.56125 0.0
C1963 C 0.09681 0.34545 0.56148 0.0
C1964 C 0.09791 0.32987 0.56877 0.0
C1965 C 0.11527 0.33204 0.57565 0.0
C1966 C 0.15776 0.35206 0.54788 0.0
C1967 C 0.16507 0.3686 0.53758 0.0
C1968 C 0.15847 0.36748 0.51825 0.0
C1969 C 0.14459 0.34975 0.50892 0.0
C1970 C 0.13787 0.3331 0.51914 0.0
C1971 C 0.14436 0.33427 0.53848 0.0
C1972 C 0.1928 0.35391 0.56088 0.0
C1973 C 0.20949 0.37047 0.55726 0.0
C1974 C 0.22047 0.36967 0.54278 0.0
C1975 C 0.21493 0.35223 0.53185 0.0
C1976 C 0.1983 0.33565 0.53582 0.0
C1977 C 0.18737 0.33649 0.5502 0.0
C1978 C 0.19255 0.35894 0.69126 0.0
C1979 C 0.07836 0.34307 0.55411 0.0
H1980 H 0.03104 0.43637 0.05972 0.0
H1981 H 0.95851 0.41887 0.13991 0.0
H1982 H 0.98083 0.38164 0.06402 0.0
H1983 H 0.00828 0.47329 0.13369 0.0
H1984 H 0.96485 0.40538 0.11069 0.0
H1985 H 0.02164 0.45038 0.08564 0.0
C1986 C 0.01802 0.42725 0.0661 0.0
C1987 C 0.00679 0.40771 0.05971 0.0
C1988 C 0.97428 0.42032 0.11564 0.0
C1989 C 0.99589 0.42381 0.08955 0.0
C1990 C 0.9706 0.42805 0.13221 0.0
C1991 C 0.98299 0.44717 0.1393 0.0
C1992 C 0.99047 0.43182 0.10613 0.0
C1993 C 0.99854 0.45838 0.1289 0.0
C1994 C 0.01262 0.43531 0.0809 0.0
C1995 C 0.98998 0.39674 0.0685 0.0
N1996 N 0.00189 0.45051 0.11294 0.0
N1997 N 0.98508 0.40492 0.08305 0.0
H1998 H 0.57377 0.58384 0.08816 0.0
H1999 H 0.5778 0.53289 0.18388 0.0
H2000 H 0.62598 0.59672 0.11961 0.0
H2001 H 0.52853 0.53501 0.16209 0.0
H2002 H 0.59525 0.55298 0.15819 0.0
H2003 H 0.5564 0.56282 0.11324 0.0
C2004 C 0.58151 0.58203 0.10031 0.0
C2005 C 0.6012 0.59128 0.10155 0.0
C2006 C 0.58063 0.54908 0.15911 0.0
C2007 C 0.58163 0.56776 0.13042 0.0
C2008 C 0.57066 0.53754 0.17366 0.0
C2009 C 0.55175 0.53242 0.17519 0.0
C2010 C 0.57154 0.55532 0.1459 0.0
C2011 C 0.54318 0.53889 0.16163 0.0
C2012 C 0.57165 0.57013 0.11462 0.0
C2013 C 0.61072 0.5891 0.11782 0.0
N2014 N 0.55312 0.54996 0.14753 0.0
N2015 N 0.60084 0.57741 0.1316 0.0
H2016 H 0.40353 0.02212 0.07837 0.0
H2017 H 0.46945 0.98975 0.13486 0.0
H2018 H 0.42412 0.98812 0.05003 0.0
H2019 H 0.45723 0.03288 0.158 0.0
H2020 H 0.45361 0.98909 0.10351 0.0
H2021 H 0.42363 0.02637 0.10759 0.0
C2022 C 0.41265 0.01589 0.07824 0.0
C2023 C 0.4128 0.0054 0.06166 0.0
C2024 C 0.45459 0.99884 0.1154 0.0
C2025 C 0.43524 0.00941 0.09527 0.0
C2026 C 0.46355 0.99917 0.1333 0.0
C2027 C 0.4646 0.01134 0.1491 0.0
C2028 C 0.44645 0.01061 0.11337 0.0
C2029 C 0.45692 0.0234 0.14621 0.0
C2030 C 0.42402 0.01818 0.09495 0.0
C2031 C 0.42405 0.99672 0.06247 0.0
N2032 N 0.44804 0.0226 0.12878 0.0
N2033 N 0.43488 0.99893 0.07905 0.0
H2034 H 0.41714 0.03563 0.96606 0.0
H2035 H 0.44712 0.97124 0.90462 0.0
H2036 H 0.3967 0.97614 0.97669 0.0
H2037 H 0.44457 0.01931 0.88161 0.0
H2038 H 0.43027 0.97321 0.93196 0.0
H2039 H 0.42917 0.03068 0.93608 0.0
C2040 C 0.41506 0.02147 0.962 0.0
C2041 C 0.40591 0.00627 0.9739 0.0
C2042 C 0.43329 0.9832 0.92082 0.0
C2043 C 0.41996 0.0006 0.9397 0.0
C2044 C 0.44286 0.98206 0.9051 0.0
C2045 C 0.4475 0.99523 0.89069 0.0
C2046 C 0.42855 0.99779 0.92237 0.0
C2047 C 0.44181 0.00913 0.8925 0.0
C2048 C 0.42189 0.01865 0.94485 0.0
C2049 C 0.40358 0.98821 0.96788 0.0
N2050 N 0.43284 0.01016 0.9081 0.0
N2051 N 0.41079 0.98593 0.95131 0.0
H2052 H 0.98981 0.40744 0.98875 0.0
H2053 H 0.04228 0.45499 0.89492 0.0
H2054 H 0.0276 0.3922 0.9623 0.0
H2055 H 0.99623 0.46076 0.91532 0.0
H2056 H 0.0388 0.43362 0.92066 0.0
H2057 H 0.99305 0.42824 0.96258 0.0
C2058 C 0.99888 0.40863 0.97741 0.0
C2059 C 0.00912 0.39891 0.97796 0.0
C2060 C 0.02941 0.4395 0.91941 0.0
C2061 C 0.0126 0.42216 0.94785 0.0
C2062 C 0.03148 0.45179 0.90484 0.0
C2063 C 0.01944 0.45955 0.90292 0.0
C2064 C 0.01528 0.43506 0.93218 0.0
C2065 C 0.0056 0.45484 0.91607 0.0
C2066 C 0.0007 0.42042 0.96248 0.0
C2067 C 0.02016 0.40023 0.96269 0.0
N2068 N 0.00392 0.44293 0.93015 0.0
N2069 N 0.02178 0.41185 0.94828 0.0
H2070 H 0.59319 0.56125 0.01362 0.0
H2071 H 0.54545 0.5898 0.92664 0.0
H2072 H 0.59379 0.6155 0.01413 0.0
H2073 H 0.54783 0.53717 0.9261 0.0
H2074 H 0.56059 0.59843 0.95985 0.0
H2075 H 0.57423 0.55127 0.98266 0.0
C2076 C 0.58931 0.57109 0.00727 0.0
C2077 C 0.59528 0.58934 0.01649 0.0
C2078 C 0.5577 0.58495 0.95248 0.0
C2079 C 0.57346 0.57792 0.98085 0.0
C2080 C 0.54897 0.57998 0.93359 0.0
C2081 C 0.54557 0.56285 0.92354 0.0
C2082 C 0.56297 0.57264 0.96138 0.0
C2083 C 0.55051 0.55069 0.93318 0.0
C2084 C 0.57844 0.56534 0.98955 0.0
C2085 C 0.58961 0.60133 0.00755 0.0
N2086 N 0.55902 0.55586 0.95149 0.0
N2087 N 0.57911 0.59545 0.99018 0.0
H2088 H 0.02752 0.63712 0.98751 0.0
H2089 H 0.00574 0.53449 0.9402 0.0
H2090 H 0.99154 0.58345 0.01154 0.0
H2091 H 0.04269 0.58847 0.91695 0.0
H2092 H 0.0012 0.55216 0.96711 0.0
H2093 H 0.03362 0.61954 0.96167 0.0
C2094 C 0.02114 0.62162 0.98741 0.0
C2095 C 0.00966 0.61168 0.00195 0.0
C2096 C 0.01041 0.56014 0.95619 0.0
C2097 C 0.01608 0.59145 0.97237 0.0
C2098 C 0.01299 0.55006 0.94085 0.0
C2099 C 0.02461 0.56002 0.92633 0.0
C2100 C 0.01938 0.58032 0.95695 0.0
C2101 C 0.03381 0.58021 0.92796 0.0
C2102 C 0.02449 0.61158 0.97265 0.0
C2103 C 0.0009 0.59158 0.00079 0.0
N2104 N 0.0309 0.58968 0.94291 0.0
N2105 N 0.00444 0.5821 0.98635 0.0
H2106 H 0.382 0.40494 0.95234 0.0
H2107 H 0.47584 0.49648 0.92303 0.0
H2108 H 0.43199 0.43962 0.99072 0.0
H2109 H 0.42713 0.46359 0.88238 0.0
H2110 H 0.45825 0.47717 0.94872 0.0
H2111 H 0.39632 0.42764 0.92718 0.0
C2112 C 0.39584 0.41746 0.95556 0.0
C2113 C 0.40598 0.42026 0.97353 0.0
C2114 C 0.45129 0.47416 0.93423 0.0
C2115 C 0.42239 0.4461 0.94506 0.0
C2116 C 0.46139 0.48516 0.91954 0.0
C2117 C 0.45301 0.48148 0.90052 0.0
C2118 C 0.43263 0.45916 0.92993 0.0
C2119 C 0.4341 0.46688 0.89689 0.0
C2120 C 0.40404 0.43033 0.94122 0.0
C2121 C 0.42386 0.4366 0.97699 0.0
N2122 N 0.42458 0.45608 0.91143 0.0
N2123 N 0.43149 0.4488 0.96291 0.0
H2124 H 0.57614 0.01622 0.01267 0.0
H2125 H 0.54633 0.97114 0.90262 0.0
H2126 H 0.59904 0.98464 0.98385 0.0
H2127 H 0.52522 0.00565 0.92923 0.0
H2128 H 0.56327 0.97336 0.93347 0.0
H2129 H 0.55573 0.01099 0.98303 0.0
C2130 C 0.57671 0.00808 8e-05 0.0
C2131 C 0.58865 0.00023 0.0007 0.0
C2132 C 0.55488 0.98039 0.93261 0.0
C2133 C 0.56591 0.99454 0.96691 0.0
C2134 C 0.54501 0.97895 0.91502 0.0
C2135 C 0.53439 0.98829 0.91329 0.0
C2136 C 0.55426 0.99139 0.94859 0.0
C2137 C 0.5335 0.99849 0.92983 0.0
C2138 C 0.56512 0.00509 0.98324 0.0
C2139 C 0.58945 0.9903 0.98402 0.0
N2140 N 0.54342 -0.00013 0.94678 0.0
N2141 N 0.57815 0.98765 0.9678 0.0
H2142 H 0.61107 0.02585 0.09612 0.0
H2143 H 0.52149 0.97997 0.15879 0.0
H2144 H 0.5612 0.97037 0.08244 0.0
H2145 H 0.57309 0.03172 0.17914 0.0
H2146 H 0.53586 0.97775 0.12973 0.0
H2147 H 0.59746 0.02979 0.12564 0.0
C2148 C 0.59731 0.01454 0.09926 0.0
C2149 C 0.58733 0.99773 0.08674 0.0
C2150 C 0.54414 0.98959 0.14053 0.0
C2151 C 0.57172 0.00219 0.12034 0.0
C2152 C 0.53595 0.99079 0.15725 0.0
C2153 C 0.54618 0.00589 0.17162 0.0
C2154 C 0.56274 0.00362 0.13795 0.0
C2155 C 0.56468 0.01984 0.16843 0.0
C2156 C 0.58958 0.01679 0.11612 0.0
C2157 C 0.56955 0.98355 0.09159 0.0
N2158 N 0.57242 0.01834 0.15194 0.0
N2159 N 0.56238 0.98613 0.10792 0.0
H2160 H 0.97808 0.60585 0.08962 0.0
H2161 H 0.99843 0.52917 0.13944 0.0
H2162 H 0.02669 0.59944 0.08109 0.0
H2163 H 0.96632 0.55169 0.16676 0.0
H2164 H 0.00403 0.55078 0.11377 0.0
H2165 H 0.96918 0.58232 0.11438 0.0
C2166 C 0.98683 0.5995 0.09287 0.0
C2167 C 0.00316 0.60466 0.08321 0.0
C2168 C 0.99573 0.55098 0.12537 0.0
C2169 C 0.99291 0.57768 0.11114 0.0
C2170 C 0.99258 0.5387 0.14009 0.0
C2171 C 0.9822 0.53887 0.15554 0.0
C2172 C 0.98831 0.56347 0.12586 0.0
C2173 C 0.97442 0.55108 0.15516 0.0
C2174 C 0.98176 0.58614 0.10699 0.0
C2175 C 0.014 0.596 0.08807 0.0
N2176 N 0.97771 0.563 0.14059 0.0
N2177 N 0.00862 0.58291 0.10157 0.0
H2178 H 0.41518 0.43555 0.05013 0.0
H2179 H 0.44931 0.41149 0.15031 0.0
H2180 H 0.39715 0.37799 0.06613 0.0
H2181 H 0.47279 0.4691 0.13172 0.0
H2182 H 0.4309 0.39897 0.1191 0.0
H2183 H 0.43634 0.44834 0.08006 0.0
C2184 C 0.41582 0.42567 0.05997 0.0
C2185 C 0.40506 0.40578 0.05552 0.0
C2186 C 0.44016 0.41435 0.12179 0.0
C2187 C 0.42868 0.42008 0.08975 0.0
C2188 C 0.45086 0.42152 0.13957 0.0
C2189 C 0.4626 0.44142 0.14374 0.0
C2190 C 0.44101 0.42716 0.1081 0.0
C2191 C 0.46368 0.45368 0.1293 0.0
C2192 C 0.42787 0.43291 0.07697 0.0
C2193 C 0.40581 0.39345 0.06884 0.0
N2194 N 0.45291 0.44637 0.11219 0.0
N2195 N 0.4175 0.4008 0.08536 0.0
H2196 H 0.6409 0.71879 0.39917 0.0
H2197 H 0.66957 0.80646 0.47817 0.0
H2198 H 0.69402 0.77204 0.40303 0.0
H2199 H 0.61712 0.75277 0.47586 0.0
H2200 H 0.67751 0.79504 0.44882 0.0
H2201 H 0.63082 0.73185 0.42554 0.0
C2202 C 0.65044 0.73324 0.40549 0.0
C2203 C 0.66842 0.74426 0.39892 0.0
C2204 C 0.6642 0.78578 0.45463 0.0
C2205 C 0.6569 0.7593 0.42913 0.0
C2206 C 0.65968 0.79229 0.4714 0.0
C2207 C 0.64274 0.78047 0.47955 0.0
C2208 C 0.65173 0.76727 0.44594 0.0
C2209 C 0.63029 0.76238 0.47001 0.0
C2210 C 0.64465 0.74069 0.42055 0.0
C2211 C 0.6801 0.76293 0.40767 0.0
N2212 N 0.63511 0.75626 0.45379 0.0
N2213 N 0.67416 0.76981 0.42235 0.0
H2214 H 0.29455 0.92849 0.45388 0.0
H2215 H 0.24285 0.88923 0.53413 0.0
H2216 H 0.23954 0.91029 0.42572 0.0
H2217 H 0.20279 0.84611 0.49091 0.0
H2218 H 0.26063 0.90852 0.50807 0.0
H2219 H 0.27962 0.90979 0.48141 0.0
C2220 C 0.27931 0.9204 0.4535 0.0
C2221 C 0.26815 0.92041 0.43744 0.0
C2222 C 0.24808 0.89472 0.50433 0.0
C2223 C 0.2511 0.89948 0.46877 0.0
C2224 C 0.23793 0.88381 0.51913 0.0
C2225 C 0.22149 0.86607 0.51455 0.0
C2226 C 0.24147 0.88795 0.48488 0.0
C2227 C 0.21554 0.85965 0.49495 0.0
C2228 C 0.27084 0.90996 0.46923 0.0
C2229 C 0.24852 0.91026 0.43777 0.0
N2230 N 0.2254 0.87073 0.48078 0.0
N2231 N 0.24056 0.89989 0.45308 0.0
H2232 H 0.0929 0.31651 0.39019 0.0
H2233 H 0.13318 0.37394 0.4946 0.0
H2234 H 0.07504 0.35417 0.41573 0.0
H2235 H 0.13634 0.32309 0.47837 0.0
H2236 H 0.11647 0.37044 0.46307 0.0
H2237 H 0.11276 0.32155 0.42031 0.0
C2238 C 0.09333 0.32595 0.40212 0.0
C2239 C 0.08301 0.33556 0.40038 0.0
C2240 C 0.1209 0.3601 0.46637 0.0
C2241 C 0.10521 0.34114 0.43465 0.0
C2242 C 0.13059 0.36219 0.48429 0.0
C2243 C 0.13608 0.34874 0.48914 0.0
C2244 C 0.11673 0.34449 0.45313 0.0
C2245 C 0.13214 0.33364 0.47528 0.0
C2246 C 0.10458 0.3288 0.41923 0.0
C2247 C 0.08345 0.34715 0.41632 0.0
N2248 N 0.12266 0.33189 0.45789 0.0
N2249 N 0.09451 0.34976 0.43274 0.0
H2250 H 0.10948 0.36113 0.31588 0.0
H2251 H 0.08858 0.29001 0.22159 0.0
H2252 H 0.05749 0.30703 0.30501 0.0
H2253 H 0.13904 0.34503 0.23456 0.0
H2254 H 0.07664 0.29514 0.25182 0.0
H2255 H 0.12012 0.35462 0.28603 0.0
C2256 C 0.10021 0.34782 0.30723 0.0
C2257 C 0.08245 0.33465 0.31307 0.0
C2258 C 0.09028 0.30608 0.24796 0.0
C2259 C 0.09477 0.32705 0.27842 0.0
C2260 C 0.09714 0.30315 0.23075 0.0
C2261 C 0.11479 0.31719 0.22539 0.0
C2262 C 0.10121 0.32312 0.25993 0.0
C2263 C 0.12521 0.33397 0.2378 0.0
C2264 C 0.10636 0.34411 0.29007 0.0
C2265 C 0.07126 0.31763 0.30112 0.0
N2266 N 0.11828 0.33642 0.25441 0.0
N2267 N 0.0776 0.31432 0.28432 0.0
H2268 H 0.65967 0.75076 0.32643 0.0
H2269 H 0.70204 0.82238 0.26278 0.0
H2270 H 0.69349 0.72892 0.30219 0.0
H2271 H 0.69616 0.77595 0.2239 0.0
H2272 H 0.69392 0.80117 0.28947 0.0
H2273 H 0.66723 0.77273 0.30035 0.0
C2274 C 0.66876 0.75073 0.31561 0.0
C2275 C 0.67667 0.73877 0.31672 0.0
C2276 C 0.69442 0.79565 0.2751 0.0
C2277 C 0.685 0.76326 0.28694 0.0
C2278 C 0.69924 0.80776 0.25998 0.0
C2279 C 0.69973 0.80079 0.24126 0.0
C2280 C 0.69035 0.77657 0.27143 0.0
C2281 C 0.69585 0.78173 0.23821 0.0
C2282 C 0.67314 0.76325 0.30088 0.0
C2283 C 0.68778 0.73857 0.30209 0.0
N2284 N 0.69146 0.77026 0.25324 0.0
N2285 N 0.69165 0.7507 0.2877 0.0
H2286 H 0.25424 0.88784 0.34703 0.0
H2287 H 0.20938 0.9224 0.2628 0.0
H2288 H 0.25715 0.94323 0.34983 0.0
H2289 H 0.20968 0.86866 0.25901 0.0
H2290 H 0.22408 0.929 0.29605 0.0
H2291 H 0.23524 0.87937 0.3161 0.0
C2292 C 0.25082 0.89821 0.34123 0.0
C2293 C 0.2575 0.91637 0.35105 0.0
C2294 C 0.22084 0.91572 0.28797 0.0
C2295 C 0.2357 0.90672 0.31549 0.0
C2296 C 0.21235 0.91191 0.26904 0.0
C2297 C 0.20848 0.89505 0.25805 0.0
C2298 C 0.22542 0.90256 0.29599 0.0
C2299 C 0.21275 0.88201 0.26682 0.0
C2300 C 0.23996 0.89335 0.32352 0.0
C2301 C 0.25245 0.92911 0.34279 0.0
N2302 N 0.22105 0.88607 0.28521 0.0
N2303 N 0.24196 0.92408 0.32545 0.0
H2304 H 0.69569 0.96278 0.33052 0.0
H2305 H 0.66574 0.8731 0.26126 0.0
H2306 H 0.65483 0.90799 0.34913 0.0
H2307 H 0.72527 0.91024 0.27793 0.0
H2308 H 0.65865 0.88721 0.28911 0.0
H2309 H 0.70394 0.94598 0.30572 0.0
C2310 C 0.68876 0.94722 0.32958 0.0
C2311 C 0.67534 0.93668 0.34242 0.0
C2312 C 0.67323 0.89205 0.28664 0.0
C2313 C 0.68382 0.91755 0.31365 0.0
C2314 C 0.6774 0.8839 0.27082 0.0
C2315 C 0.69625 0.89041 0.26692 0.0
C2316 C 0.68791 0.90724 0.29832 0.0
C2317 C 0.71054 0.905 0.27981 0.0
C2318 C 0.69335 0.9377 0.31543 0.0
C2319 C 0.66573 0.91654 0.33983 0.0
N2320 N 0.70607 0.91318 0.29471 0.0
N2321 N 0.67014 0.90754 0.32566 0.0
H2322 H 0.04947 0.75145 0.29738 0.0
H2323 H 0.14479 0.8285 0.25482 0.0
H2324 H 0.10532 0.76185 0.31518 0.0
H2325 H 0.09111 0.80486 0.22132 0.0
H2326 H 0.12907 0.80853 0.28086 0.0
H2327 H 0.06319 0.77484 0.2726 0.0
C2328 C 0.06454 0.75868 0.29621 0.0
C2329 C 0.07621 0.75459 0.30839 0.0
C2330 C 0.12067 0.8077 0.26785 0.0
C2331 C 0.09188 0.78137 0.2805 0.0
C2332 C 0.12966 0.81907 0.25294 0.0
C2333 C 0.11932 0.81805 0.23568 0.0
C2334 C 0.10111 0.79514 0.26564 0.0
C2335 C 0.09963 0.80601 0.23435 0.0
C2336 C 0.07232 0.77196 0.28208 0.0
C2337 C 0.09566 0.76437 0.30618 0.0
N2338 N 0.09113 0.79484 0.24909 0.0
N2339 N 0.1028 0.77725 0.29262 0.0
H2340 H 0.25803 0.31197 0.32492 0.0
H2341 H 0.18232 0.32747 0.26251 0.0
H2342 H 0.23428 0.34545 0.34763 0.0
H2343 H 0.20607 0.29284 0.24269 0.0
H2344 H 0.1992 0.33269 0.29448 0.0
H2345 H 0.2374 0.30355 0.29528 0.0
C2346 C 0.2482 0.31733 0.32367 0.0
C2347 C 0.24733 0.32889 0.33882 0.0
C2348 C 0.20053 0.32379 0.28317 0.0
C2349 C 0.22401 0.31984 0.3047 0.0
C2350 C 0.19095 0.32085 0.26492 0.0
C2351 C 0.19286 0.30978 0.24985 0.0
C2352 C 0.21215 0.31569 0.28629 0.0
C2353 C 0.20399 0.3013 0.25386 0.0
C2354 C 0.23648 0.31262 0.30672 0.0
C2355 C 0.23499 0.33616 0.3363 0.0
N2356 N 0.2133 0.30456 0.27162 0.0
N2357 N 0.22368 0.33144 0.3195 0.0
H2358 H 0.2712 0.36671 0.42535 0.0
H2359 H 0.22334 0.3239 0.52291 0.0
H2360 H 0.24631 0.30699 0.43739 0.0
H2361 H 0.23163 0.37816 0.50444 0.0
H2362 H 0.23793 0.32029 0.49441 0.0
H2363 H 0.2626 0.37372 0.45699 0.0
C2364 C 0.26412 0.35514 0.43471 0.0
C2365 C 0.2593 0.33621 0.42866 0.0
C2366 C 0.23667 0.33306 0.49664 0.0
C2367 C 0.24963 0.34413 0.46473 0.0
C2368 C 0.22829 0.33511 0.51288 0.0
C2369 C 0.22595 0.3512 0.5159 0.0
C2370 C 0.24284 0.34721 0.48325 0.0
C2371 C 0.23314 0.36552 0.50268 0.0
C2372 C 0.25917 0.35914 0.45268 0.0
C2373 C 0.2501 0.32175 0.44133 0.0
N2374 N 0.24111 0.36311 0.4868 0.0
N2375 N 0.24557 0.32601 0.4587 0.0
H2376 H 0.63495 0.92031 0.41733 0.0
H2377 H 0.66904 0.8931 0.51558 0.0
H2378 H 0.69317 0.94464 0.43932 0.0
H2379 H 0.61431 0.8562 0.48529 0.0
H2380 H 0.67639 0.91549 0.49034 0.0
H2381 H 0.62554 0.89988 0.44474 0.0
C2382 C 0.64572 0.92146 0.42797 0.0
C2383 C 0.66488 0.93411 0.42596 0.0
C2384 C 0.66274 0.90252 0.48923 0.0
C2385 C 0.65423 0.91098 0.45728 0.0
C2386 C 0.65856 0.88968 0.5036 0.0
C2387 C 0.64115 0.87256 0.5024 0.0
C2388 C 0.6494 0.89835 0.47353 0.0
C2389 C 0.6279 0.86922 0.48682 0.0
C2390 C 0.64034 0.90977 0.44353 0.0
C2391 C 0.67825 0.93498 0.44014 0.0
N2392 N 0.63235 0.88195 0.4729 0.0
N2393 N 0.67266 0.9236 0.45517 0.0
H2394 H 0.08099 0.77303 0.38641 0.0
H2395 H 0.13893 0.76254 0.4756 0.0
H2396 H 0.07074 0.71744 0.40224 0.0
H2397 H 0.11645 0.80129 0.48054 0.0
H2398 H 0.12096 0.74965 0.44418 0.0
H2399 H 0.10121 0.78773 0.41687 0.0
C2400 C 0.08326 0.76402 0.3962 0.0
C2401 C 0.07499 0.74418 0.39158 0.0
C2402 C 0.12028 0.76118 0.45212 0.0
C2403 C 0.09774 0.76067 0.42604 0.0
C2404 C 0.13036 0.76846 0.4702 0.0
C2405 C 0.12913 0.78295 0.48114 0.0
C2406 C 0.1094 0.76884 0.44455 0.0
C2407 C 0.11822 0.79038 0.47275 0.0
C2408 C 0.0947 0.77235 0.41347 0.0
C2409 C 0.07771 0.73293 0.40493 0.0
N2410 N 0.10882 0.78328 0.45494 0.0
N2411 N 0.08909 0.74136 0.4215 0.0
H2412 H 0.30536 0.05437 0.72668 0.0
H2413 H 0.33284 0.13878 0.80899 0.0
H2414 H 0.35748 0.10867 0.73106 0.0
H2415 H 0.27959 0.08582 0.80369 0.0
H2416 H 0.34086 0.12898 0.77871 0.0
H2417 H 0.29451 0.0665 0.75312 0.0
C2418 C 0.3145 0.06888 0.7331 0.0
C2419 C 0.33248 0.08043 0.72672 0.0
C2420 C 0.32734 0.11954 0.78404 0.0
C2421 C 0.32008 0.09438 0.75706 0.0
C2422 C 0.32279 0.12511 0.80134 0.0
C2423 C 0.30563 0.11297 0.80893 0.0
C2424 C 0.31471 0.10159 0.77429 0.0
C2425 C 0.29296 0.09559 0.7983 0.0
C2426 C 0.30826 0.0758 0.7482 0.0
C2427 C 0.3436 0.09915 0.73556 0.0
N2428 N 0.29785 0.0903 0.78161 0.0
N2429 N 0.33727 0.10547 0.75035 0.0
H2430 H 0.90545 0.2447 0.74884 0.0
H2431 H 0.90861 0.19401 0.84503 0.0
H2432 H 0.9574 0.25757 0.78086 0.0
H2433 H 0.85992 0.19736 0.82357 0.0
H2434 H 0.92613 0.21364 0.81912 0.0
H2435 H 0.88784 0.22388 0.77398 0.0
C2436 C 0.91308 0.24293 0.76112 0.0
C2437 C 0.93278 0.25212 0.76252 0.0
C2438 C 0.91162 0.2101 0.82014 0.0
C2439 C 0.91294 0.22883 0.79142 0.0
C2440 C 0.9016 0.19882 0.83482 0.0
C2441 C 0.88284 0.1942 0.83651 0.0
C2442 C 0.90272 0.21657 0.80695 0.0
C2443 C 0.87445 0.20085 0.82295 0.0
C2444 C 0.90309 0.23115 0.77546 0.0
C2445 C 0.94216 0.25 0.77895 0.0
N2446 N 0.88443 0.21166 0.80873 0.0
N2447 N 0.93214 0.23841 0.79273 0.0
H2448 H 0.76064 0.65433 0.72131 0.0
H2449 H 0.79518 0.71214 0.8261 0.0
H2450 H 0.73869 0.68889 0.74554 0.0
H2451 H 0.80624 0.6664 0.80932 0.0
H2452 H 0.77883 0.70762 0.79414 0.0
H2453 H 0.78104 0.66156 0.75153 0.0
C2454 C 0.76029 0.66356 0.73297 0.0
C2455 C 0.74859 0.67163 0.73085 0.0
C2456 C 0.7849 0.69862 0.79741 0.0
C2457 C 0.77139 0.67967 0.76526 0.0
C2458 C 0.79441 0.70133 0.81559 0.0
C2459 C 0.80199 0.68955 0.82044 0.0
C2460 C 0.78293 0.68402 0.78393 0.0
C2461 C 0.80035 0.6756 0.80628 0.0
C2462 C 0.77186 0.66767 0.75014 0.0
C2463 C 0.7481 0.68302 0.74645 0.0
N2464 N 0.79091 0.67315 0.78868 0.0
N2465 N 0.75943 0.68682 0.76295 0.0
H2466 H 0.77102 0.69598 0.64424 0.0
H2467 H 0.75442 0.62282 0.55316 0.0
H2468 H 0.72234 0.63893 0.6365 0.0
H2469 H 0.80148 0.6806 0.56341 0.0
H2470 H 0.74213 0.62754 0.58334 0.0
H2471 H 0.78193 0.68972 0.6145 0.0
C2472 C 0.76253 0.68207 0.63629 0.0
C2473 C 0.74561 0.66799 0.643 0.0
C2474 C 0.7551 0.63917 0.57889 0.0
C2475 C 0.75828 0.66067 0.60845 0.0
C2476 C 0.76216 0.63648 0.56171 0.0
C2477 C 0.77893 0.65141 0.55558 0.0
C2478 C 0.76496 0.65688 0.59005 0.0
C2479 C 0.7883 0.66881 0.56723 0.0
C2480 C 0.76884 0.6785 0.61919 0.0
C2481 C 0.73543 0.65023 0.63192 0.0
N2482 N 0.78121 0.67102 0.58381 0.0
N2483 N 0.74191 0.64707 0.61515 0.0
H2484 H 0.36013 0.06078 0.6324 0.0
H2485 H 0.3589 0.1057 0.54727 0.0
H2486 H 0.32379 0.0821 0.65052 0.0
H2487 H 0.36093 0.14871 0.58838 0.0
H2488 H 0.35258 0.08398 0.57348 0.0
H2489 H 0.36645 0.07974 0.60392 0.0
C2490 C 0.35353 0.06951 0.6303 0.0
C2491 C 0.34189 0.07047 0.6439 0.0
C2492 C 0.35462 0.09825 0.57675 0.0
C2493 C 0.34873 0.09173 0.61157 0.0
C2494 C 0.35815 0.11054 0.56187 0.0
C2495 C 0.3606 0.12896 0.56588 0.0
C2496 C 0.35314 0.10437 0.59554 0.0
C2497 C 0.35933 0.13465 0.5849 0.0
C2498 C 0.35695 0.0801 0.61403 0.0
C2499 C 0.33315 0.08142 0.64043 0.0
N2500 N 0.35545 0.12228 0.59904 0.0
N2501 N 0.33708 0.09202 0.62475 0.0
H2502 H 0.92659 0.27662 0.67623 0.0
H2503 H 0.88135 0.19785 0.58578 0.0
H2504 H 0.92744 0.22308 0.6735 0.0
H2505 H 0.87933 0.2507 0.58874 0.0
H2506 H 0.89695 0.20623 0.61859 0.0
H2507 H 0.90798 0.26674 0.64496 0.0
C2508 C 0.92283 0.26276 0.66912 0.0
C2509 C 0.92874 0.25074 0.67752 0.0
C2510 C 0.89303 0.21597 0.61212 0.0
C2511 C 0.9074 0.23935 0.6416 0.0
C2512 C 0.8842 0.21123 0.59335 0.0
C2513 C 0.87918 0.22368 0.58445 0.0
C2514 C 0.89697 0.23334 0.6221 0.0
C2515 C 0.88287 0.24064 0.59509 0.0
C2516 C 0.91218 0.25712 0.65124 0.0
C2517 C 0.92333 0.2329 0.66759 0.0
N2518 N 0.89166 0.24504 0.61331 0.0
N2519 N 0.91305 0.2278 0.65014 0.0
H2520 H 0.31994 0.2437 0.67316 0.0
H2521 H 0.38982 0.24268 0.60033 0.0
H2522 H 0.36567 0.29693 0.65692 0.0
H2523 H 0.32969 0.20823 0.58534 0.0
H2524 H 0.38358 0.25892 0.62704 0.0
H2525 H 0.32547 0.22636 0.64638 0.0
C2526 C 0.33127 0.25166 0.66406 0.0
C2527 C 0.34298 0.27159 0.66767 0.0
C2528 C 0.37186 0.24763 0.61796 0.0
C2529 C 0.34927 0.25205 0.63737 0.0
C2530 C 0.37533 0.2384 0.60254 0.0
C2531 C 0.36031 0.2241 0.59012 0.0
C2532 C 0.35327 0.2421 0.62155 0.0
C2533 C 0.34182 0.21887 0.59449 0.0
C2534 C 0.33436 0.24181 0.64887 0.0
C2535 C 0.35702 0.28142 0.65514 0.0
N2536 N 0.33883 0.22781 0.60989 0.0
N2537 N 0.36002 0.27151 0.64069 0.0
H2538 H 0.72563 0.09561 0.636 0.0
H2539 H 0.79186 0.11703 0.54835 0.0
H2540 H 0.75427 0.06432 0.62133 0.0
H2541 H 0.77532 0.15738 0.56986 0.0
H2542 H 0.77433 0.09542 0.57261 0.0
H2543 H 0.73996 0.1163 0.60944 0.0
C2544 C 0.73477 0.09299 0.62714 0.0
C2545 C 0.73885 0.07828 0.63101 0.0
C2546 C 0.7745 0.10899 0.57207 0.0
C2547 C 0.75514 0.10174 0.60068 0.0
C2548 C 0.78462 0.12141 0.55825 0.0
C2549 C 0.78535 0.13923 0.55722 0.0
C2550 C 0.7649 0.11427 0.58503 0.0
C2551 C 0.77514 0.14379 0.5701 0.0
C2552 C 0.743 0.10483 0.61206 0.0
C2553 C 0.75084 0.07557 0.61908 0.0
N2554 N 0.7654 0.13144 0.58356 0.0
N2555 N 0.75852 0.08715 0.60454 0.0
H2556 H 0.90467 0.68953 0.67907 0.0
H2557 H 0.84749 0.62184 0.58516 0.0
H2558 H 0.91548 0.64488 0.65786 0.0
H2559 H 0.87562 0.68374 0.5831 0.0
H2560 H 0.86321 0.62641 0.61747 0.0
H2561 H 0.8846 0.68395 0.64887 0.0
C2562 C 0.90246 0.67831 0.66824 0.0
C2563 C 0.91096 0.66702 0.67117 0.0
C2564 C 0.86557 0.63889 0.60993 0.0
C2565 C 0.88832 0.66064 0.63714 0.0
C2566 C 0.85682 0.63637 0.59136 0.0
C2567 C 0.86034 0.6524 0.58098 0.0
C2568 C 0.87742 0.65752 0.61849 0.0
C2569 C 0.87211 0.67085 0.59039 0.0
C2570 C 0.89111 0.67517 0.65114 0.0
C2571 C 0.90833 0.65315 0.6565 0.0
N2572 N 0.88021 0.6729 0.60861 0.0
N2573 N 0.89703 0.65015 0.64017 0.0
H2574 H 0.93271 0.70471 0.75598 0.0
H2575 H 0.8907 0.66642 0.85695 0.0
H2576 H 0.90779 0.64553 0.76993 0.0
H2577 H 0.89214 0.71664 0.83469 0.0
H2578 H 0.90472 0.6625 0.8281 0.0
H2579 H 0.92502 0.71289 0.78772 0.0
C2580 C 0.92581 0.69352 0.76578 0.0
C2581 C 0.92069 0.67439 0.7603 0.0
C2582 C 0.9021 0.67447 0.82961 0.0
C2583 C 0.91223 0.68363 0.79642 0.0
C2584 C 0.89404 0.67669 0.84604 0.0
C2585 C 0.88987 0.69165 0.84808 0.0
C2586 C 0.90616 0.68736 0.81509 0.0
C2587 C 0.89508 0.70488 0.83371 0.0
C2588 C 0.92139 0.69817 0.78378 0.0
C2589 C 0.91176 0.66041 0.77347 0.0
N2590 N 0.9028 0.70233 0.81769 0.0
N2591 N 0.90785 0.66531 0.79089 0.0
H2592 H 0.35387 0.25189 0.7449 0.0
H2593 H 0.29166 0.21356 0.83416 0.0
H2594 H 0.31138 0.26718 0.75654 0.0
H2595 H 0.31992 0.18591 0.8082 0.0
H2596 H 0.29908 0.23419 0.807 0.0
H2597 H 0.34255 0.22894 0.76955 0.0
C2598 C 0.34211 0.25042 0.75261 0.0
C2599 C 0.33359 0.26154 0.74862 0.0
C2600 C 0.3035 0.22349 0.80724 0.0
C2601 C 0.32058 0.23521 0.77712 0.0
C2602 C 0.29922 0.21166 0.82268 0.0
C2603 C 0.30542 0.19816 0.82363 0.0
C2604 C 0.31416 0.22187 0.79278 0.0
C2605 C 0.31528 0.19645 0.80838 0.0
C2606 C 0.33559 0.23721 0.76667 0.0
C2607 C 0.31834 0.25887 0.75912 0.0
N2608 N 0.31948 0.20827 0.79373 0.0
N2609 N 0.3124 0.24607 0.77304 0.0
H2610 H 0.72886 0.04288 0.72832 0.0
H2611 H 0.80738 0.13391 0.79575 0.0
H2612 H 0.7543 0.10094 0.71117 0.0
H2613 H 0.77858 0.07596 0.81364 0.0
H2614 H 0.79049 0.12192 0.76356 0.0
H2615 H 0.74922 0.05452 0.7586 0.0
C2616 C 0.73902 0.05808 0.73088 0.0
C2617 C 0.74046 0.07095 0.71711 0.0
C2618 C 0.78798 0.11182 0.7745 0.0
C2619 C 0.76334 0.08452 0.75189 0.0
C2620 C 0.79757 0.11866 0.79289 0.0
C2621 C 0.79431 0.10595 0.80749 0.0
C2622 C 0.77498 0.09213 0.77067 0.0
C2623 C 0.78169 0.08628 0.80283 0.0
C2624 C 0.75054 0.06475 0.74819 0.0
C2625 C 0.75316 0.09059 0.72135 0.0
N2626 N 0.77241 0.08002 0.78489 0.0
N2627 N 0.76423 0.0968 0.73838 0.0
H2628 H 0.07047 0.3923 0.06179 0.0
H2629 H 0.08068 0.30373 0.09365 0.0
H2630 H 0.02688 0.33356 0.04626 0.0
H2631 H 0.11097 0.36014 0.12418 0.0
H2632 H 0.0612 0.31398 0.07529 0.0
H2633 H 0.08658 0.38065 0.0833 0.0
C2634 C 0.06429 0.37694 0.06288 0.0
C2635 C 0.04732 0.36388 0.05216 0.0
C2636 C 0.072 0.32402 0.08616 0.0
C2637 C 0.06574 0.35045 0.07677 0.0
C2638 C 0.08305 0.31816 0.09673 0.0
C2639 C 0.09766 0.33117 0.11032 0.0
C2640 C 0.07574 0.34307 0.08906 0.0
C2641 C 0.10019 0.34976 0.11352 0.0
C2642 C 0.07343 0.37031 0.07527 0.0
C2643 C 0.03992 0.34414 0.05429 0.0
N2644 N 0.0895 0.35521 0.10281 0.0
N2645 N 0.04926 0.338 0.06624 0.0
H2646 H 0.64441 0.68977 0.06165 0.0
H2647 H 0.70303 0.76673 0.15129 0.0
H2648 H 0.6674 0.67649 0.1125 0.0
H2649 H 0.67945 0.77894 0.10018 0.0
H2650 H 0.69285 0.7345 0.13621 0.0
H2651 H 0.65949 0.72327 0.07457 0.0
C2652 C 0.65267 0.69391 0.07552 0.0
C2653 C 0.65453 0.6803 0.08608 0.0
C2654 C 0.69005 0.7443 0.12824 0.0
C2655 C 0.67186 0.71867 0.10101 0.0
C2656 C 0.69596 0.76271 0.13679 0.0
C2657 C 0.69185 0.77538 0.12705 0.0
C2658 C 0.68002 0.73862 0.10983 0.0
C2659 C 0.68257 0.76945 0.10834 0.0
C2660 C 0.66132 0.71307 0.08289 0.0
C2661 C 0.66552 0.68651 0.10393 0.0
N2662 N 0.67686 0.75147 0.10041 0.0
N2663 N 0.67369 0.70524 0.11089 0.0
H2664 H 0.3087 0.9547 0.01769 0.0
H2665 H 0.26023 0.91169 0.11399 0.0
H2666 H 0.33857 0.97225 0.07461 0.0
H2667 H 0.22935 0.92146 0.06764 0.0
H2668 H 0.28877 0.92786 0.0968 0.0
H2669 H 0.27887 0.9365 0.03303 0.0
C2670 C 0.30898 0.95457 0.03335 0.0
C2671 C 0.32605 0.96498 0.04494 0.0
C2672 C 0.27574 0.9264 0.09035 0.0
C2673 C 0.29237 0.9442 0.06236 0.0
C2674 C 0.25948 0.91714 0.10009 0.0
C2675 C 0.24251 0.9153 0.09218 0.0
C2676 C 0.27498 0.93361 0.07239 0.0
C2677 C 0.24226 0.92273 0.07421 0.0
C2678 C 0.29202 0.94434 0.04205 0.0
C2679 C 0.3257 0.9645 0.06515 0.0
N2680 N 0.25829 0.9315 0.06479 0.0
N2681 N 0.30917 0.95418 0.0732 0.0
H2682 H 0.38275 0.06953 0.01992 0.0
H2683 H 0.29716 0.06141 0.95249 0.0
H2684 H 0.33836 0.01523 0.99288 0.0
H2685 H 0.33196 0.11006 0.99348 0.0
H2686 H 0.31175 0.04402 0.96681 0.0
H2687 H 0.36468 0.08478 0.00945 0.0
C2688 C 0.36922 0.0608 0.01175 0.0
C2689 C 0.36213 0.04106 0.00719 0.0
C2690 C 0.31601 0.05841 0.97282 0.0
C2691 C 0.34133 0.0585 0.99515 0.0
C2692 C 0.30757 0.06831 0.96476 0.0
C2693 C 0.31344 0.08731 0.97169 0.0
C2694 C 0.33056 0.06766 0.98775 0.0
C2695 C 0.32725 0.09559 0.98741 0.0
C2696 C 0.35884 0.0695 0.00589 0.0
C2697 C 0.3444 0.03048 0.99671 0.0
N2698 N 0.33549 0.0858 0.99475 0.0
N2699 N 0.33467 0.03936 0.99091 0.0
H2700 H 0.98963 0.31314 0.9742 0.0
H2701 H 0.88766 0.2208 0.97619 0.0
H2702 H 0.95259 0.3047 0.01952 0.0
H2703 H 0.92494 0.22775 0.93157 0.0
H2704 H 0.91249 0.2503 0.99365 0.0
H2705 H 0.96749 0.28071 0.95989 0.0
C2706 C 0.97692 0.3044 0.98125 0.0
C2707 C 0.97284 0.31169 0.99797 0.0
C2708 C 0.91533 0.24536 0.98011 0.0
C2709 C 0.94742 0.27464 0.98161 0.0
C2710 C 0.90112 0.22858 0.97008 0.0
C2711 C 0.90419 0.22201 0.95228 0.0
C2712 C 0.93274 0.25576 0.97224 0.0
C2713 C 0.92201 0.23236 0.94524 0.0
C2714 C 0.96429 0.28589 0.97306 0.0
C2715 C 0.95624 0.2997 0.00655 0.0
N2716 N 0.93558 0.24886 0.95516 0.0
N2717 N 0.94406 0.28183 0.99817 0.0
H2718 H 0.68313 0.60739 0.04392 0.0
H2719 H 0.74702 0.68655 0.97361 0.0
H2720 H 0.67552 0.65533 0.03001 0.0
H2721 H 0.76226 0.64702 0.99848 0.0
H2722 H 0.72024 0.67479 0.99346 0.0
H2723 H 0.71148 0.62088 0.02627 0.0
C2724 C 0.6874 0.62074 0.03718 0.0
C2725 C 0.67685 0.63019 0.03842 0.0
C2726 C 0.72951 0.66876 0.99463 0.0
C2727 C 0.70928 0.64567 0.01815 0.0
C2728 C 0.74489 0.67555 0.98338 0.0
C2729 C 0.7569 0.66771 0.98426 0.0
C2730 C 0.72601 0.65391 0.00676 0.0
C2731 C 0.75319 0.65325 0.997 0.0
C2732 C 0.70363 0.62847 0.02716 0.0
C2733 C 0.68317 0.64752 0.02947 0.0
N2734 N 0.73802 0.64674 0.00764 0.0
N2735 N 0.69889 0.65463 0.01964 0.0
H2736 H 0.98833 0.6786 0.99923 0.0
H2737 H 0.8826 0.6559 0.97795 0.0
H2738 H 0.94319 0.64092 0.03274 0.0
H2739 H 0.92992 0.70543 0.95764 0.0
H2740 H 0.90445 0.64925 0.99707 0.0
H2741 H 0.96716 0.68796 0.98296 0.0
C2742 C 0.97398 0.67238 0.00325 0.0
C2743 C 0.96746 0.65889 0.01729 0.0
C2744 C 0.91008 0.66162 0.98851 0.0
C2745 C 0.94313 0.66939 0.99859 0.0
C2746 C 0.89763 0.66533 0.97749 0.0
C2747 C 0.90451 0.68113 0.96608 0.0
C2748 C 0.92958 0.67365 0.98794 0.0
C2749 C 0.92408 0.69311 0.96626 0.0
C2750 C 0.96193 0.67777 0.99399 0.0
C2751 C 0.94878 0.65136 0.02199 0.0
N2752 N 0.93595 0.68902 0.97689 0.0
N2753 N 0.9372 0.65657 0.01251 0.0
H2754 H 0.3347 0.32904 0.97424 0.0
H2755 H 0.35097 0.24253 0.94051 0.0
H2756 H 0.38926 0.33282 0.9749 0.0
H2757 H 0.29834 0.24136 0.92639 0.0
H2758 H 0.36468 0.27559 0.95374 0.0
H2759 H 0.32065 0.29712 0.95691 0.0
C2760 C 0.34377 0.32331 0.97057 0.0
C2761 C 0.36321 0.33364 0.97621 0.0
C2762 C 0.35017 0.26821 0.94762 0.0
C2763 C 0.34716 0.29708 0.95659 0.0
C2764 C 0.34232 0.24929 0.93993 0.0
C2765 C 0.3235 0.23913 0.93204 0.0
C2766 C 0.33913 0.27715 0.94775 0.0
C2767 C 0.31287 0.24857 0.9324 0.0
C2768 C 0.33571 0.30507 0.9607 0.0
C2769 C 0.37422 0.32544 0.971 0.0
N2770 N 0.32083 0.26707 0.94017 0.0
N2771 N 0.36602 0.30762 0.96167 0.0
H2772 H 0.67374 0.01225 0.0111 0.0
H2773 H 0.75497 0.11319 0.98508 0.0
H2774 H 0.68226 0.06523 0.03942 0.0
H2775 H 0.75534 0.06011 0.97311 0.0
H2776 H 0.72904 0.09655 0.00572 0.0
H2777 H 0.70418 0.02986 0.99783 0.0
C2778 C 0.68216 0.02763 0.01465 0.0
C2779 C 0.67547 0.03737 0.0262 0.0
C2780 C 0.73499 0.08863 0.9988 0.0
C2781 C 0.71028 0.05772 0.01081 0.0
C2782 C 0.74968 0.09807 0.98694 0.0
C2783 C 0.75715 0.08794 0.97722 0.0
C2784 C 0.72756 0.06887 0.00071 0.0
C2785 C 0.75001 0.06846 0.98034 0.0
C2786 C 0.69958 0.03768 0.00713 0.0
C2787 C 0.68698 0.05724 0.03054 0.0
N2788 N 0.73544 0.05951 0.9916 0.0
N2789 N 0.70376 0.06688 0.02254 0.0
H2790 H 0.6596 0.98961 0.07185 0.0
H2791 H 0.65273 0.88933 0.0939 0.0
H2792 H 0.61134 0.93401 0.05376 0.0
H2793 H 0.70025 0.94444 0.11441 0.0
H2794 H 0.63882 0.90569 0.07632 0.0
H2795 H 0.67591 0.97354 0.08519 0.0
C2796 C 0.6524 0.97403 0.07067 0.0
C2797 C 0.63396 0.96316 0.0618 0.0
C2798 C 0.65236 0.91424 0.08453 0.0
C2799 C 0.65267 0.94471 0.07696 0.0
C2800 C 0.66029 0.90491 0.09456 0.0
C2801 C 0.67754 0.91559 0.10577 0.0
C2802 C 0.66169 0.93443 0.08579 0.0
C2803 C 0.68693 0.93571 0.10589 0.0
C2804 C 0.66177 0.96488 0.07826 0.0
C2805 C 0.62546 0.94302 0.0606 0.0
N2806 N 0.67877 0.94452 0.0962 0.0
N2807 N 0.63486 0.93447 0.06815 0.0
H2808 H 0.05858 0.68306 0.09255 0.0
H2809 H 0.08418 0.7909 0.10138 0.0
H2810 H 0.02287 0.70076 0.06229 0.0
H2811 H 0.09431 0.76424 0.15014 0.0
H2812 H 0.06284 0.75893 0.08549 0.0
H2813 H 0.07387 0.71372 0.11233 0.0
C2814 C 0.05392 0.69339 0.09015 0.0
C2815 C 0.0395 0.68945 0.07576 0.0
C2816 C 0.06957 0.76016 0.09979 0.0
C2817 C 0.05706 0.72455 0.0981 0.0
C2818 C 0.08169 0.7784 0.10896 0.0
C2819 C 0.09136 0.78037 0.12707 0.0
C2820 C 0.06739 0.74381 0.10862 0.0
C2821 C 0.08767 0.76352 0.13596 0.0
C2822 C 0.06255 0.7108 0.1015 0.0
C2823 C 0.0339 0.70327 0.0733 0.0
N2824 N 0.07625 0.74597 0.1265 0.0
N2825 N 0.04292 0.72039 0.08417 0.0
H2826 H 0.31071 0.37735 0.01854 0.0
H2827 H 0.23991 0.30008 0.08704 0.0
H2828 H 0.32131 0.33576 0.04585 0.0
H2829 H 0.24017 0.35286 0.07635 0.0
H2830 H 0.26602 0.30928 0.06634 0.0
H2831 H 0.281 0.36477 0.03411 0.0
C2832 C 0.30667 0.36542 0.02758 0.0
C2833 C 0.31854 0.35769 0.03104 0.0
C2834 C 0.26026 0.31877 0.06843 0.0
C2835 C 0.28468 0.34323 0.04877 0.0
C2836 C 0.24532 0.31348 0.08014 0.0
C2837 C 0.23801 0.32581 0.08352 0.0
C2838 C 0.26778 0.33641 0.05986 0.0
C2839 C 0.2456 0.34308 0.07431 0.0
C2840 C 0.28979 0.35833 0.03653 0.0
C2841 C 0.31265 0.34227 0.04293 0.0
N2842 N 0.26009 0.34789 0.06292 0.0
N2843 N 0.29617 0.33558 0.05138 0.0
H2844 H 0.72877 0.72655 0.40527 0.0
H2845 H 0.74276 0.63791 0.42634 0.0
H2846 H 0.68785 0.66873 0.38291 0.0
H2847 H 0.77078 0.6919 0.4614 0.0
H2848 H 0.72182 0.648 0.41061 0.0
H2849 H 0.74426 0.71366 0.42584 0.0
C2850 C 0.72301 0.71111 0.40473 0.0
C2851 C 0.70708 0.6987 0.39226 0.0
C2852 C 0.73239 0.65749 0.42194 0.0
C2853 C 0.72484 0.6838 0.41576 0.0
C2854 C 0.74428 0.65171 0.43098 0.0
C2855 C 0.75874 0.66424 0.44495 0.0
C2856 C 0.73514 0.67594 0.42685 0.0
C2857 C 0.76014 0.682 0.45034 0.0
C2858 C 0.73179 0.70373 0.41658 0.0
C2859 C 0.70011 0.67879 0.39233 0.0
N2860 N 0.74867 0.68741 0.44111 0.0
N2861 N 0.70919 0.67194 0.40374 0.0
H2862 H 0.3334 0.00388 0.4453 0.0
H2863 H 0.3445 0.10681 0.42712 0.0
H2864 H 0.31106 0.0166 0.39358 0.0
H2865 H 0.36482 0.09477 0.48058 0.0
H2866 H 0.33537 0.07462 0.41339 0.0
H2867 H 0.34794 0.03776 0.45736 0.0
C2868 C 0.33165 0.01382 0.43643 0.0
C2869 C 0.32088 0.00739 0.41848 0.0
C2870 C 0.34193 0.07899 0.42809 0.0
C2871 C 0.33746 0.04609 0.43215 0.0
C2872 C 0.34712 0.09736 0.43593 0.0
C2873 C 0.35519 0.10333 0.45509 0.0
C2874 C 0.34472 0.06637 0.43949 0.0
C2875 C 0.35862 0.09068 0.46574 0.0
C2876 C 0.33995 0.03314 0.44333 0.0
C2877 C 0.31912 0.02088 0.40757 0.0
N2878 N 0.35317 0.07268 0.45787 0.0
N2879 N 0.32724 0.03954 0.41462 0.0
H2880 H 0.98487 0.2778 0.35477 0.0
H2881 H 0.92155 0.2779 0.4393 0.0
H2882 H 0.00328 0.32221 0.40146 0.0
H2883 H 0.90275 0.23029 0.39612 0.0
H2884 H 0.95038 0.29551 0.42326 0.0
H2885 H 0.95372 0.26112 0.36762 0.0
C2886 C 0.98235 0.28407 0.36763 0.0
C2887 C 0.99673 0.30135 0.37713 0.0
C2888 C 0.93993 0.28125 0.41717 0.0
C2889 C 0.96126 0.28247 0.39181 0.0
C2890 C 0.92332 0.27123 0.42625 0.0
C2891 C 0.90963 0.25255 0.41907 0.0
C2892 C 0.94304 0.27258 0.40078 0.0
C2893 C 0.91301 0.24457 0.40231 0.0
C2894 C 0.9646 0.27456 0.37496 0.0
C2895 C 0.99269 0.30886 0.39372 0.0
N2896 N 0.92941 0.25459 0.39377 0.0
N2897 N 0.97541 0.29938 0.40051 0.0
H2898 H 0.01276 0.353 0.3395 0.0
H2899 H 0.03022 0.44594 0.28639 0.0
H2900 H 0.06813 0.40106 0.33352 0.0
H2901 H 0.97759 0.40922 0.31053 0.0
H2902 H 0.04354 0.42765 0.30071 0.0
H2903 H 0.99879 0.37129 0.32579 0.0
C2904 C 0.02199 0.36735 0.33523 0.0
C2905 C 0.04167 0.3755 0.33764 0.0
C2906 C 0.02911 0.42366 0.30299 0.0
C2907 C 0.02576 0.39639 0.32195 0.0
C2908 C 0.02149 0.43421 0.29494 0.0
C2909 C 0.00277 0.42937 0.29748 0.0
C2910 C 0.01792 0.40788 0.31344 0.0
C2911 C 0.99203 0.41347 0.30811 0.0
C2912 C 0.01399 0.37779 0.32753 0.0
C2913 C 0.05291 0.3942 0.33199 0.0
N2914 N 0.99975 0.40325 0.31567 0.0
N2915 N 0.04479 0.40396 0.32433 0.0
H2916 H 0.61467 0.6434 0.35637 0.0
H2917 H 0.58949 0.56501 0.26769 0.0
H2918 H 0.6512 0.6519 0.31053 0.0
H2919 H 0.55229 0.55897 0.31214 0.0
H2920 H 0.61368 0.59547 0.28467 0.0
H2921 H 0.59305 0.61102 0.34187 0.0
C2922 C 0.6182 0.63841 0.3433 0.0
C2923 C 0.63468 0.65041 0.33456 0.0
C2924 C 0.60025 0.58742 0.29073 0.0
C2925 C 0.60992 0.61334 0.31778 0.0
C2926 C 0.58649 0.57002 0.2811 0.0
C2927 C 0.56881 0.55959 0.28842 0.0
C2928 C 0.59628 0.59434 0.30782 0.0
C2929 C 0.56561 0.56676 0.30579 0.0
C2930 C 0.60583 0.61991 0.33501 0.0
C2931 C 0.63859 0.64314 0.3177 0.0
N2932 N 0.57917 0.5837 0.31485 0.0
N2933 N 0.62622 0.62509 0.30977 0.0
H2934 H 0.34841 0.98335 0.37383 0.0
H2935 H 0.39993 0.95192 0.29786 0.0
H2936 H 0.33386 0.92425 0.36051 0.0
H2937 H 0.42587 0.00937 0.32594 0.0
H2938 H 0.37386 0.94205 0.31832 0.0
H2939 H 0.37517 0.99367 0.35397 0.0
C2940 C 0.35083 0.97254 0.36676 0.0
C2941 C 0.33883 0.95288 0.36885 0.0
C2942 C 0.38529 0.9568 0.32004 0.0
C2943 C 0.36933 0.96463 0.34599 0.0
C2944 C 0.40028 0.96246 0.30842 0.0
C2945 C 0.41532 0.98151 0.31024 0.0
C2946 C 0.38511 0.9703 0.33347 0.0
C2947 C 0.41455 0.9946 0.32383 0.0
C2948 C 0.36614 0.97846 0.35548 0.0
C2949 C 0.34274 0.93955 0.3594 0.0
N2950 N 0.39969 0.98875 0.3349 0.0
N2951 N 0.35756 0.94566 0.34829 0.0
H2952 H 0.60706 0.9659 0.36824 0.0
H2953 H 0.59189 0.02252 0.28279 0.0
H2954 H 0.65062 0.99905 0.33092 0.0
H2955 H 0.5464 0.97549 0.30838 0.0
H2956 H 0.61456 0.01791 0.30336 0.0
H2957 H 0.58557 0.97335 0.3496 0.0
C2958 C 0.61216 0.97488 0.35622 0.0
C2959 C 0.63062 0.98178 0.35105 0.0
C2960 C 0.59961 0.00862 0.30443 0.0
C2961 C 0.60609 0.99034 0.32965 0.0
C2962 C 0.58672 0.01128 0.29277 0.0
C2963 C 0.56729 0.99923 0.29378 0.0
C2964 C 0.59298 0.99402 0.31737 0.0
C2965 C 0.56127 0.98488 0.30694 0.0
C2966 C 0.59986 0.97905 0.34553 0.0
C2967 C 0.63646 0.99335 0.33533 0.0
N2968 N 0.57406 0.9827 0.31824 0.0
N2969 N 0.62422 0.99726 0.32515 0.0
H2970 H 0.00702 0.66362 0.31124 0.0
H2971 H 0.0277 0.58048 0.27473 0.0
H2972 H 0.06174 0.66768 0.31643 0.0
H2973 H 0.97412 0.57745 0.26137 0.0
H2974 H 0.03989 0.61248 0.29038 0.0
H2975 H 0.99424 0.63219 0.29314 0.0
C2976 C 0.01638 0.65801 0.30849 0.0
C2977 C 0.0355 0.66834 0.31547 0.0
C2978 C 0.02549 0.60493 0.28395 0.0
C2979 C 0.02092 0.63239 0.2949 0.0
C2980 C 0.01853 0.58664 0.27486 0.0
C2981 C 0.99991 0.57631 0.26645 0.0
C2982 C 0.01376 0.61305 0.28489 0.0
C2983 C 0.98854 0.58487 0.2677 0.0
C2984 C 0.00906 0.64006 0.29818 0.0
C2985 C 0.04692 0.66031 0.31144 0.0
N2986 N 0.99566 0.60278 0.27677 0.0
N2987 N 0.03944 0.64283 0.30154 0.0
H2988 H 0.32196 0.3505 0.32492 0.0
H2989 H 0.43129 0.42941 0.33137 0.0
H2990 H 0.35013 0.38849 0.3765 0.0
H2991 H 0.39663 0.40256 0.27787 0.0
H2992 H 0.40324 0.41203 0.34945 0.0
H2993 H 0.35081 0.36694 0.30879 0.0
C2994 C 0.33425 0.36233 0.3329 0.0
C2995 C 0.33361 0.36819 0.35209 0.0
C2996 C 0.40185 0.40997 0.33376 0.0
C2997 C 0.36687 0.38714 0.33358 0.0
C2998 C 0.41781 0.41974 0.32349 0.0
C2999 C 0.41617 0.41743 0.30313 0.0
C3000 C 0.3843 0.39765 0.32355 0.0
C3001 C 0.39843 0.40488 0.29355 0.0
C3002 C 0.35074 0.37175 0.32363 0.0
C3003 C 0.35003 0.3836 0.36166 0.0
N3004 N 0.38323 0.39546 0.30383 0.0
N3005 N 0.36607 0.39258 0.35229 0.0
H3006 H 0.32413 0.32325 0.40569 0.0
H3007 H 0.32055 0.2223 0.41434 0.0
H3008 H 0.27594 0.26788 0.38679 0.0
H3009 H 0.36474 0.27538 0.44353 0.0
H3010 H 0.30684 0.24006 0.39923 0.0
H3011 H 0.34158 0.30701 0.41554 0.0
C3012 C 0.31721 0.30771 0.40359 0.0
C3013 C 0.29845 0.29691 0.39557 0.0
C3014 C 0.31964 0.2479 0.40879 0.0
C3015 C 0.31841 0.27835 0.40656 0.0
C3016 C 0.32747 0.23777 0.41736 0.0
C3017 C 0.34362 0.2474 0.43036 0.0
C3018 C 0.32795 0.2678 0.41332 0.0
C3019 C 0.35226 0.26747 0.43356 0.0
C3020 C 0.3272 0.29848 0.40918 0.0
C3021 C 0.29027 0.27682 0.3931 0.0
N3022 N 0.34417 0.27702 0.42528 0.0
N3023 N 0.30029 0.26823 0.39859 0.0
H3024 H 0.71924 0.00995 0.43188 0.0
H3025 H 0.75035 0.11907 0.42998 0.0
H3026 H 0.68718 0.02795 0.39558 0.0
H3027 H 0.76012 0.09522 0.48127 0.0
H3028 H 0.72718 0.0865 0.41662 0.0
H3029 H 0.73505 0.04163 0.44958 0.0
C3030 C 0.71545 0.02058 0.42776 0.0
C3031 C 0.702 0.01644 0.41223 0.0
C3032 C 0.7342 0.08849 0.43093 0.0
C3033 C 0.7202 0.05278 0.4322 0.0
C3034 C 0.74737 0.10707 0.43862 0.0
C3035 C 0.75748 0.10988 0.45664 0.0
C3036 C 0.73136 0.07267 0.44123 0.0
C3037 C 0.7531 0.09372 0.46708 0.0
C3038 C 0.72438 0.0386 0.43792 0.0
C3039 C 0.69748 0.03064 0.40752 0.0
N3040 N 0.74062 0.0758 0.45908 0.0
N3041 N 0.70683 0.04838 0.41727 0.0
H3042 H 0.99767 0.6812 0.39209 0.0
H3043 H 0.89252 0.66317 0.38926 0.0
H3044 H 0.97574 0.7019 0.34661 0.0
H3045 H 0.92575 0.66732 0.44157 0.0
H3046 H 0.92011 0.67139 0.37069 0.0
H3047 H 0.96832 0.66955 0.40741 0.0
C3048 C 0.98662 0.68318 0.3852 0.0
C3049 C 0.98927 0.69273 0.36809 0.0
C3050 C 0.92126 0.67041 0.38622 0.0
C3051 C 0.95546 0.67931 0.38571 0.0
C3052 C 0.90557 0.66564 0.39675 0.0
C3053 C 0.90699 0.66467 0.41693 0.0
C3054 C 0.93825 0.67379 0.39596 0.0
C3055 C 0.92416 0.66807 0.42605 0.0
C3056 C 0.96986 0.67656 0.39403 0.0
C3057 C 0.97432 0.69473 0.35985 0.0
N3058 N 0.93908 0.67241 0.4155 0.0
N3059 N 0.95801 0.68811 0.36878 0.0
H3060 H 0.3982 0.06973 0.73543 0.0
H3061 H 0.41621 0.98562 0.76531 0.0
H3062 H 0.35814 0.01011 0.71837 0.0
H3063 H 0.44301 0.04149 0.79697 0.0
H3064 H 0.39466 0.99382 0.74791 0.0
H3065 H 0.4152 0.05954 0.75756 0.0
C3066 C 0.39294 0.05448 0.73638 0.0
C3067 C 0.3768 0.04074 0.72494 0.0
C3068 C 0.40511 0.00417 0.75885 0.0
C3069 C 0.39627 0.02899 0.75021 0.0
C3070 C 0.41736 0.99947 0.76888 0.0
C3071 C 0.43162 0.01298 0.78247 0.0
C3072 C 0.40729 0.02258 0.76227 0.0
C3073 C 0.43255 0.0308 0.78628 0.0
C3074 C 0.4026 0.04867 0.74911 0.0
C3075 C 0.37054 0.02117 0.72693 0.0
N3076 N 0.42073 0.03516 0.77606 0.0
N3077 N 0.38042 0.01586 0.73916 0.0
H3078 H 0.97039 0.34847 0.72495 0.0
H3079 H 0.03011 0.42946 0.81116 0.0
H3080 H 0.99877 0.3388 0.77393 0.0
H3081 H 0.98931 0.43123 0.77046 0.0
H3082 H 0.02265 0.3982 0.79532 0.0
H3083 H 0.98126 0.38099 0.73903 0.0
C3084 C 0.97902 0.35323 0.73862 0.0
C3085 C 0.98357 0.34087 0.74836 0.0
C3086 C 0.01539 0.40549 0.78986 0.0
C3087 C 0.99606 0.37812 0.76457 0.0
C3088 C 0.01969 0.42331 0.79882 0.0
C3089 C 0.01018 0.43278 0.79218 0.0
C3090 C 0.00168 0.39731 0.77403 0.0
C3091 C 0.99676 0.42423 0.77619 0.0
C3092 C 0.98517 0.37179 0.74668 0.0
C3093 C 0.99484 0.34784 0.76601 0.0
N3094 N 0.99292 0.407 0.76767 0.0
N3095 N 0.00068 0.36603 0.7736 0.0
H3096 H 0.65044 0.60704 0.68932 0.0
H3097 H 0.5872 0.60979 0.77276 0.0
H3098 H 0.66754 0.65424 0.73257 0.0
H3099 H 0.57103 0.55876 0.73524 0.0
H3100 H 0.6151 0.62723 0.75527 0.0
H3101 H 0.61989 0.58987 0.70337 0.0
C3102 C 0.64775 0.61381 0.70167 0.0
C3103 C 0.6616 0.63203 0.70987 0.0
C3104 C 0.60543 0.61224 0.75075 0.0
C3105 C 0.62683 0.61263 0.72588 0.0
C3106 C 0.58935 0.60229 0.76064 0.0
C3107 C 0.5767 0.58274 0.75549 0.0
C3108 C 0.60904 0.60263 0.73556 0.0
C3109 C 0.58052 0.57376 0.73987 0.0
C3110 C 0.63035 0.60402 0.70969 0.0
C3111 C 0.65737 0.64017 0.72585 0.0
N3112 N 0.59639 0.58375 0.73049 0.0
N3113 N 0.64044 0.63042 0.7333 0.0
H3114 H 0.67281 0.6804 0.67028 0.0
H3115 H 0.68163 0.77383 0.62427 0.0
H3116 H 0.72582 0.73179 0.66434 0.0
H3117 H 0.62999 0.731 0.64588 0.0
H3118 H 0.69732 0.75677 0.63599 0.0
H3119 H 0.65619 0.6968 0.65821 0.0
C3120 C 0.68096 0.69507 0.66632 0.0
C3121 C 0.70077 0.70473 0.66833 0.0
C3122 C 0.68259 0.75114 0.6383 0.0
C3123 C 0.68182 0.72349 0.65455 0.0
C3124 C 0.67361 0.76099 0.63177 0.0
C3125 C 0.65448 0.7541 0.63442 0.0
C3126 C 0.67241 0.73406 0.64739 0.0
C3127 C 0.64473 0.73688 0.64352 0.0
C3128 C 0.67145 0.70443 0.65955 0.0
C3129 C 0.71057 0.72377 0.6631 0.0
N3130 N 0.65381 0.72743 0.64969 0.0
N3131 N 0.701 0.73248 0.65642 0.0
H3132 H 0.32174 0.98653 0.64456 0.0
H3133 H 0.22452 0.89026 0.65466 0.0
H3134 H 0.28633 0.97774 0.69154 0.0
H3135 H 0.25786 0.89863 0.60597 0.0
H3136 H 0.24946 0.92069 0.67047 0.0
H3137 H 0.30094 0.95297 0.63225 0.0
C3138 C 0.30971 0.97749 0.6524 0.0
C3139 C 0.30561 0.98498 0.66897 0.0
C3140 C 0.25145 0.91585 0.6564 0.0
C3141 C 0.28181 0.94668 0.65497 0.0
C3142 C 0.2372 0.89851 0.64737 0.0
C3143 C 0.23907 0.89212 0.62888 0.0
C3144 C 0.26767 0.92703 0.64683 0.0
C3145 C 0.2559 0.90312 0.62022 0.0
C3146 C 0.29785 0.95835 0.64535 0.0
C3147 C 0.28991 0.97263 0.6786 0.0
N3148 N 0.26949 0.9202 0.62917 0.0
N3149 N 0.27852 0.95414 0.67138 0.0
H3150 H 0.00775 0.26333 0.69424 0.0
H3151 H 0.09959 0.35621 0.66454 0.0
H3152 H 0.01725 0.32101 0.7055 0.0
H3153 H 0.0799 0.2986 0.63927 0.0
H3154 H 0.0713 0.34384 0.68236 0.0
H3155 H 0.03636 0.2763 0.67719 0.0
C3156 C 0.01587 0.27874 0.69321 0.0
C3157 C 0.01 0.29108 0.70128 0.0
C3158 C 0.07325 0.33395 0.67291 0.0
C3159 C 0.04287 0.30603 0.68175 0.0
C3160 C 0.08934 0.341 0.66266 0.0
C3161 C 0.09228 0.32844 0.65044 0.0
C3162 C 0.06006 0.31419 0.67106 0.0
C3163 C 0.07856 0.30882 0.64882 0.0
C3164 C 0.03218 0.28612 0.68339 0.0
C3165 C 0.02115 0.31093 0.69941 0.0
N3166 N 0.06313 0.30232 0.65904 0.0
N3167 N 0.03707 0.3178 0.68987 0.0
H3168 H 0.28148 0.30617 0.70231 0.0
H3169 H 0.26963 0.37122 0.62416 0.0
H3170 H 0.3257 0.34097 0.66636 0.0
H3171 H 0.22303 0.32178 0.64548 0.0
H3172 H 0.29158 0.36465 0.64368 0.0
H3173 H 0.26108 0.31642 0.68592 0.0
C3174 C 0.28697 0.31613 0.69111 0.0
C3175 C 0.30526 0.32261 0.68558 0.0
C3176 C 0.27654 0.35529 0.64407 0.0
C3177 C 0.28199 0.33438 0.66677 0.0
C3178 C 0.26407 0.35906 0.63302 0.0
C3179 C 0.24456 0.34687 0.63308 0.0
C3180 C 0.26937 0.33945 0.65548 0.0
C3181 C 0.23799 0.33133 0.64481 0.0
C3182 C 0.27529 0.3219 0.6817 0.0
C3183 C 0.31163 0.33552 0.67097 0.0
N3184 N 0.25036 0.32808 0.65555 0.0
N3185 N 0.29999 0.34096 0.66202 0.0
H3186 H 0.71252 0.99853 0.62772 0.0
H3187 H 0.62628 0.89405 0.62395 0.0
H3188 H 0.66207 0.98794 0.65426 0.0
H3189 H 0.66345 0.91356 0.57779 0.0
H3190 H 0.63877 0.92765 0.63611 0.0
H3191 H 0.69507 0.96671 0.61034 0.0
C3192 C 0.69771 0.98952 0.62976 0.0
C3193 C 0.68871 0.99579 0.64245 0.0
C3194 C 0.64394 0.92451 0.62315 0.0
C3195 C 0.66874 0.95929 0.62287 0.0
C3196 C 0.63678 0.90536 0.61615 0.0
C3197 C 0.64409 0.90093 0.60003 0.0
C3198 C 0.65865 0.93924 0.61412 0.0
C3199 C 0.6578 0.91624 0.59061 0.0
C3200 C 0.68774 0.97142 0.61978 0.0
C3201 C 0.66947 0.98362 0.64451 0.0
N3202 N 0.66485 0.93466 0.59798 0.0
N3203 N 0.66015 0.96575 0.63506 0.0
H3204 H 0.01302 0.72081 0.71292 0.0
H3205 H 0.06141 0.74115 0.61338 0.0
H3206 H 0.98664 0.68514 0.65964 0.0
H3207 H 0.09436 0.76228 0.66854 0.0
H3208 H 0.03323 0.72232 0.6303 0.0
H3209 H 0.04259 0.738 0.69725 0.0
C3210 C 0.01347 0.71656 0.69798 0.0
C3211 C 0.99735 0.70159 0.68753 0.0
C3212 C 0.04662 0.73097 0.63874 0.0
C3213 C 0.0309 0.7212 0.66958 0.0
C3214 C 0.06266 0.74177 0.6291 0.0
C3215 C 0.08013 0.75328 0.63963 0.0
C3216 C 0.04799 0.73191 0.65911 0.0
C3217 C 0.08109 0.75349 0.65995 0.0
C3218 C 0.03033 0.72631 0.6891 0.0
C3219 C 0.9987 0.69661 0.66825 0.0
N3220 N 0.06516 0.74308 0.6691 0.0
N3221 N 0.01512 0.70648 0.65987 0.0
H3222 H 0.92866 0.60583 0.74109 0.0
H3223 H 0.02063 0.59651 0.7591 0.0
H3224 H 0.98363 0.65086 0.72862 0.0
H3225 H 0.97023 0.56499 0.78878 0.0
H3226 H 0.00705 0.61505 0.74503 0.0
H3227 H 0.94329 0.58864 0.75548 0.0
C3228 C 0.94382 0.61211 0.74135 0.0
C3229 C 0.95494 0.62983 0.73366 0.0
C3230 C 0.99904 0.60405 0.75464 0.0
C3231 C 0.97177 0.61015 0.75008 0.0
C3232 C 0.00678 0.59352 0.76271 0.0
C3233 C 0.99647 0.57898 0.77494 0.0
C3234 C 0.98085 0.59989 0.75875 0.0
C3235 C 0.97851 0.57565 0.77901 0.0
C3236 C 0.95217 0.60232 0.74965 0.0
C3237 C 0.97454 0.63728 0.73449 0.0
N3238 N 0.97126 0.58594 0.77085 0.0
N3239 N 0.98235 0.62734 0.74248 0.0
H3240 H 0.40123 0.34318 0.7524 0.0
H3241 H 0.40855 0.44176 0.79302 0.0
H3242 H 0.35649 0.35622 0.74073 0.0
H3243 H 0.455 0.43047 0.79288 0.0
H3244 H 0.38771 0.40935 0.77736 0.0
H3245 H 0.41924 0.37368 0.77152 0.0
C3246 C 0.39511 0.35242 0.75391 0.0
C3247 C 0.37736 0.34716 0.74471 0.0
C3248 C 0.40245 0.41401 0.78094 0.0
C3249 C 0.39815 0.38242 0.76666 0.0
C3250 C 0.41437 0.43251 0.78979 0.0
C3251 C 0.43358 0.43887 0.79444 0.0
C3252 C 0.40982 0.40183 0.77678 0.0
C3253 C 0.44026 0.42615 0.79004 0.0
C3254 C 0.40546 0.36991 0.76485 0.0
C3255 C 0.37015 0.35972 0.74748 0.0
N3256 N 0.42843 0.40833 0.78149 0.0
N3257 N 0.38065 0.37688 0.75811 0.0
H3258 H 0.64876 0.05331 0.68268 0.0
H3259 H 0.57355 0.98209 0.75206 0.0
H3260 H 0.65379 0.00889 0.71101 0.0
H3261 H 0.57979 0.03743 0.74085 0.0
H3262 H 0.59923 0.98846 0.7316 0.0
H3263 H 0.61972 0.04442 0.69865 0.0
C3264 C 0.64364 0.04156 0.69205 0.0
C3265 C 0.65374 0.03191 0.69565 0.0
C3266 C 0.5949 0.99916 0.73352 0.0
C3267 C 0.62064 0.02163 0.71379 0.0
C3268 C 0.58018 0.99548 0.74509 0.0
C3269 C 0.57463 0.0093 0.74824 0.0
C3270 C 0.60401 0.0167 0.72485 0.0
C3271 C 0.58382 0.0265 0.73899 0.0
C3272 C 0.62715 0.03656 0.70122 0.0
C3273 C 0.64653 0.01682 0.70797 0.0
N3274 N 0.59808 0.02973 0.72772 0.0
N3275 N 0.63045 0.01216 0.71659 0.0
loop_
_geom_bond_atom_site_label_1
_geom_bond_atom_site_label_2
_geom_bond_distance
_geom_bond_site_symmetry_2
_ccdc_geom_bond_type
Mn0 O5 2.095 1_655 S
Mn0 O15 2.162 . S
Mn0 O16 2.289 1_554 S
Mn0 O24 2.385 . S
Mn0 O25 2.209 1_655 S
Mn0 O26 2.094 . S
Mn1 O6 2.121 . S
Mn1 N8 2.257 . S
Mn1 N17 2.282 . S
Mn1 O25 2.215 . S
Mn1 O27 2.117 . S
C2 O24 1.234 1_456 S
C2 O25 1.283 1_556 S
C3 O15 1.281 . S
C3 O16 1.232 1_554 S
C4 O26 1.240 1_455 S
C4 O27 1.264 . S
O5 Mn0 2.095 1_455 S
O5 C14 1.250 . S
O6 Mn1 2.121 . S
O6 C14 1.258 . S
C7 N8 1.326 . S
C7 C11 1.470 . S
C7 H13 0.929 . S
N8 Mn1 2.257 . S
N8 C7 1.326 . S
N8 C12 1.362 . S
C9 C10 1.258 . S
C9 C12 1.431 1_556 S
C9 C29 1.449 . S
C10 C9 1.258 . S
C10 C11 1.471 1_556 S
C10 H30 0.931 . S
C11 C7 1.470 . S
C11 C10 1.471 1_554 S
C11 H31 0.926 1_554 S
C12 N8 1.362 . S
C12 C9 1.431 1_554 S
C12 C22 1.476 . S
H13 C7 0.929 . S
C14 O5 1.250 . S
C14 O6 1.258 . S
O15 Mn0 2.162 . S
O15 C3 1.281 . S
O16 Mn0 2.289 1_556 S
O16 C3 1.232 1_556 S
N17 Mn1 2.282 . S
N17 C18 1.328 . S
N17 C22 1.318 . S
C18 N17 1.328 . S
C18 C19 1.457 . S
C18 H23 0.929 . S
C19 C18 1.457 . S
C19 C20 1.291 . S
C19 H32 0.931 . S
C20 C19 1.291 . S
C20 C21 1.373 . S
C20 H33 0.929 . S
C21 C20 1.373 . S
C21 C22 1.396 . S
C21 C28 1.403 1_554 S
C22 C12 1.476 . S
C22 N17 1.318 . S
C22 C21 1.396 . S
H23 C18 0.929 . S
O24 Mn0 2.385 . S
O24 C2 1.234 1_654 S
O25 Mn0 2.209 1_455 S
O25 Mn1 2.215 . S
O25 C2 1.283 1_554 S
O26 Mn0 2.094 . S
O26 C4 1.240 1_655 S
O27 Mn1 2.117 . S
O27 C4 1.264 . S
C28 C21 1.403 1_556 S
C28 C29 1.399 . S
C28 H34 0.929 . S
C29 C9 1.449 . S
C29 C28 1.399 . S
C29 H35 0.930 . S
H30 C10 0.931 . S
H31 C11 0.926 1_556 S
H32 C19 0.931 . S
H33 C20 0.929 . S
H34 C28 0.929 . S
H35 C29 0.930 . S
Mn36 O41 2.095 . S
Mn36 O51 2.162 . S
Mn36 O52 2.297 . S
Mn36 O60 2.385 . S
Mn36 O61 2.209 . S
Mn36 O62 2.094 . S
Mn37 O42 2.121 . S
Mn37 N44 2.257 . S
Mn37 N53 2.282 . S
Mn37 O61 2.215 . S
Mn37 O63 2.117 . S
C38 O60 1.234 . S
C38 O61 1.283 . S
C39 O51 1.281 . S
C39 O52 1.236 . S
C40 O62 1.240 . S
C40 O63 1.264 . S
O41 Mn36 2.095 . S
O41 C50 1.250 . S
O42 Mn37 2.121 . S
O42 C50 1.258 . S
C43 N44 1.326 . S
C43 C47 1.460 . S
C43 H49 0.929 . S
N44 Mn37 2.257 . S
N44 C43 1.326 . S
N44 C48 1.362 . S
C45 C46 1.258 . S
C45 C48 1.431 . S
C45 C65 1.449 . S
C46 C45 1.258 . S
C46 C47 1.477 . S
C46 H66 0.931 . S
C47 C43 1.460 . S
C47 C46 1.477 . S
C47 H67 0.930 . S
C48 N44 1.362 . S
C48 C45 1.431 . S
C48 C58 1.476 . S
H49 C43 0.929 . S
C50 O41 1.250 . S
C50 O42 1.258 . S
O51 Mn36 2.162 . S
O51 C39 1.281 . S
O52 Mn36 2.297 . S
O52 C39 1.236 . S
N53 Mn37 2.282 . S
N53 C54 1.328 . S
N53 C58 1.318 . S
C54 N53 1.328 . S
C54 C55 1.457 . S
C54 H59 0.929 . S
C55 C54 1.457 . S
C55 C56 1.291 . S
C55 H68 0.931 . S
C56 C55 1.291 . S
C56 C57 1.373 . S
C56 H69 0.929 . S
C57 C56 1.373 . S
C57 C58 1.396 . S
C57 C64 1.403 . S
C58 C48 1.476 . S
C58 N53 1.318 . S
C58 C57 1.396 . S
H59 C54 0.929 . S
O60 Mn36 2.385 . S
O60 C38 1.234 . S
O61 Mn36 2.209 . S
O61 Mn37 2.215 . S
O61 C38 1.283 . S
O62 Mn36 2.094 . S
O62 C40 1.240 . S
O63 Mn37 2.117 . S
O63 C40 1.264 . S
C64 C57 1.403 . S
C64 C65 1.399 . S
C64 H70 0.929 . S
C65 C45 1.449 . S
C65 C64 1.399 . S
C65 H71 0.930 . S
H66 C46 0.931 . S
H67 C47 0.930 . S
H68 C55 0.931 . S
H69 C56 0.929 . S
H70 C64 0.929 . S
H71 C65 0.930 . S
Mn72 O77 2.095 1_565 S
Mn72 O87 2.162 . S
Mn72 O88 2.297 . S
Mn72 O96 2.385 . S
Mn72 O97 2.209 1_565 S
Mn72 O98 2.094 . S
Mn73 O78 2.121 . S
Mn73 N80 2.257 . S
Mn73 N89 2.282 . S
Mn73 O97 2.215 . S
Mn73 O99 2.117 . S
C74 O96 1.234 1_545 S
C74 O97 1.283 . S
C75 O87 1.281 . S
C75 O88 1.236 . S
C76 O98 1.240 1_556 S
C76 O99 1.264 1_566 S
O77 Mn72 2.095 1_545 S
O77 C86 1.250 . S
O78 Mn73 2.121 . S
O78 C86 1.258 . S
C79 N80 1.326 . S
C79 C83 1.460 . S
C79 H85 0.929 . S
N80 Mn73 2.257 . S
N80 C79 1.326 . S
N80 C84 1.362 . S
C81 C82 1.258 . S
C81 C84 1.431 . S
C81 C101 1.449 . S
C82 C81 1.258 . S
C82 C83 1.477 . S
C82 H102 0.931 . S
C83 C79 1.460 . S
C83 C82 1.477 . S
C83 H103 0.930 . S
C84 N80 1.362 . S
C84 C81 1.431 . S
C84 C94 1.476 . S
H85 C79 0.929 . S
C86 O77 1.250 . S
C86 O78 1.258 . S
O87 Mn72 2.162 . S
O87 C75 1.281 . S
O88 Mn72 2.297 . S
O88 C75 1.236 . S
N89 Mn73 2.282 . S
N89 C90 1.328 . S
N89 C94 1.318 . S
C90 N89 1.328 . S
C90 C91 1.457 . S
C90 H95 0.929 . S
C91 C90 1.457 . S
C91 C92 1.291 . S
C91 H104 0.931 . S
C92 C91 1.291 . S
C92 C93 1.373 . S
C92 H105 0.929 . S
C93 C92 1.373 . S
C93 C94 1.396 . S
C93 C100 1.403 . S
C94 C84 1.476 . S
C94 N89 1.318 . S
C94 C93 1.396 . S
H95 C90 0.929 . S
O96 Mn72 2.385 . S
O96 C74 1.234 1_565 S
O97 Mn72 2.209 1_545 S
O97 Mn73 2.215 . S
O97 C74 1.283 . S
O98 Mn72 2.094 . S
O98 C76 1.240 1_554 S
O99 Mn73 2.117 . S
O99 C76 1.264 1_544 S
C100 C93 1.403 . S
C100 C101 1.399 . S
C100 H106 0.929 . S
C101 C81 1.449 . S
C101 C100 1.399 . S
C101 H107 0.930 . S
H102 C82 0.931 . S
H103 C83 0.930 . S
H104 C91 0.931 . S
H105 C92 0.929 . S
H106 C100 0.929 . S
H107 C101 0.930 . S
Mn108 O113 2.095 1_655 S
Mn108 O123 2.162 . S
Mn108 O124 2.297 . S
Mn108 O132 2.385 . S
Mn108 O133 2.209 1_655 S
Mn108 O134 2.094 . S
Mn109 O114 2.121 . S
Mn109 N116 2.257 . S
Mn109 N125 2.282 . S
Mn109 O133 2.215 . S
Mn109 O135 2.117 . S
C110 O132 1.234 1_455 S
C110 O133 1.283 . S
C111 O123 1.281 . S
C111 O124 1.236 . S
C112 O134 1.240 . S
C112 O135 1.264 1_655 S
O113 Mn108 2.095 1_455 S
O113 C122 1.250 . S
O114 Mn109 2.121 . S
O114 C122 1.258 . S
C115 N116 1.326 . S
C115 C119 1.460 . S
C115 H121 0.929 . S
N116 Mn109 2.257 . S
N116 C115 1.326 . S
N116 C120 1.362 . S
C117 C118 1.258 . S
C117 C120 1.431 . S
C117 C137 1.449 . S
C118 C117 1.258 . S
C118 C119 1.477 . S
C118 H138 0.931 . S
C119 C115 1.460 . S
C119 C118 1.477 . S
C119 H139 0.930 . S
C120 N116 1.362 . S
C120 C117 1.431 . S
C120 C130 1.476 . S
H121 C115 0.929 . S
C122 O113 1.250 . S
C122 O114 1.258 . S
O123 Mn108 2.162 . S
O123 C111 1.281 . S
O124 Mn108 2.297 . S
O124 C111 1.236 . S
N125 Mn109 2.282 . S
N125 C126 1.328 . S
N125 C130 1.318 . S
C126 N125 1.328 . S
C126 C127 1.457 . S
C126 H131 0.929 . S
C127 C126 1.457 . S
C127 C128 1.291 . S
C127 H140 0.931 . S
C128 C127 1.291 . S
C128 C129 1.373 . S
C128 H141 0.929 . S
C129 C128 1.373 . S
C129 C130 1.396 . S
C129 C136 1.403 . S
C130 C120 1.476 . S
C130 N125 1.318 . S
C130 C129 1.396 . S
H131 C126 0.929 . S
O132 Mn108 2.385 . S
O132 C110 1.234 1_655 S
O133 Mn108 2.209 1_455 S
O133 Mn109 2.215 . S
O133 C110 1.283 . S
O134 Mn108 2.094 . S
O134 C112 1.240 . S
O135 Mn109 2.117 . S
O135 C112 1.264 1_455 S
C136 C129 1.403 . S
C136 C137 1.399 . S
C136 H142 0.936 . S
C137 C117 1.449 . S
C137 C136 1.399 . S
C137 H143 0.930 1_554 S
H138 C118 0.931 . S
H139 C119 0.930 . S
H140 C127 0.931 . S
H141 C128 0.929 . S
H142 C136 0.936 . S
H143 C137 0.930 1_556 S
Mn144 O149 2.095 1_554 S
Mn144 O159 2.162 . S
Mn144 O160 2.297 . S
Mn144 O168 2.385 . S
Mn144 O169 2.209 . S
Mn144 O170 2.094 1_554 S
Mn145 O150 2.128 . S
Mn145 N152 2.235 1_556 S
Mn145 N161 2.269 1_556 S
Mn145 O169 2.183 1_556 S
Mn145 O171 2.139 . S
C146 O168 1.234 . S
C146 O169 1.283 . S
C147 O159 1.281 . S
C147 O160 1.236 . S
C148 O170 1.240 . S
C148 O171 1.264 . S
O149 Mn144 2.095 1_556 S
O149 C158 1.250 . S
O150 Mn145 2.128 . S
O150 C158 1.258 . S
C151 N152 1.326 . S
C151 C155 1.460 . S
C151 H157 0.929 . S
N152 Mn145 2.235 1_554 S
N152 C151 1.326 . S
N152 C156 1.362 . S
C153 C154 1.258 . S
C153 C156 1.431 . S
C153 C173 1.449 . S
C154 C153 1.258 . S
C154 C155 1.477 . S
C154 H174 0.931 . S
C155 C151 1.460 . S
C155 C154 1.477 . S
C155 H175 0.930 . S
C156 N152 1.362 . S
C156 C153 1.431 . S
C156 C166 1.476 . S
H157 C151 0.929 . S
C158 O149 1.250 . S
C158 O150 1.258 . S
O159 Mn144 2.162 . S
O159 C147 1.281 . S
O160 Mn144 2.297 . S
O160 C147 1.236 . S
N161 Mn145 2.269 1_554 S
N161 C162 1.328 . S
N161 C166 1.318 . S
C162 N161 1.328 . S
C162 C163 1.457 . S
C162 H167 0.929 . S
C163 C162 1.457 . S
C163 C164 1.291 . S
C163 H176 0.931 . S
C164 C163 1.291 . S
C164 C165 1.373 . S
C164 H177 0.929 . S
C165 C164 1.373 . S
C165 C166 1.396 . S
C165 C172 1.403 . S
C166 C156 1.476 . S
C166 N161 1.318 . S
C166 C165 1.396 . S
H167 C162 0.929 . S
O168 Mn144 2.385 . S
O168 C146 1.234 . S
O169 Mn144 2.209 . S
O169 Mn145 2.183 1_554 S
O169 C146 1.283 . S
O170 Mn144 2.094 1_556 S
O170 C148 1.240 . S
O171 Mn145 2.139 . S
O171 C148 1.264 . S
C172 C165 1.403 . S
C172 C173 1.399 . S
C172 H178 0.929 . S
C173 C153 1.449 . S
C173 C172 1.399 . S
C173 H179 0.930 . S
H174 C154 0.931 . S
H175 C155 0.930 . S
H176 C163 0.931 . S
H177 C164 0.929 . S
H178 C172 0.929 . S
H179 C173 0.930 . S
Mn180 O185 2.095 1_545 S
Mn180 O195 2.162 . S
Mn180 O196 2.297 . S
Mn180 O204 2.385 . S
Mn180 O205 2.209 1_545 S
Mn180 O206 2.094 . S
Mn181 O186 2.121 . S
Mn181 N188 2.257 . S
Mn181 N197 2.282 . S
Mn181 O205 2.215 . S
Mn181 O207 2.117 . S
C182 O204 1.234 . S
C182 O205 1.283 1_545 S
C183 O195 1.281 . S
C183 O196 1.236 . S
C184 O206 1.240 . S
C184 O207 1.264 1_545 S
O185 Mn180 2.095 1_565 S
O185 C194 1.250 . S
O186 Mn181 2.121 . S
O186 C194 1.258 . S
C187 N188 1.326 . S
C187 C191 1.460 . S
C187 H193 0.929 . S
N188 Mn181 2.257 . S
N188 C187 1.326 . S
N188 C192 1.362 . S
C189 C190 1.258 . S
C189 C192 1.431 . S
C189 C209 1.434 1_554 S
C190 C189 1.258 . S
C190 C191 1.477 . S
C190 H210 0.931 1_554 S
C191 C187 1.460 . S
C191 C190 1.477 . S
C191 H211 0.930 . S
C192 N188 1.362 . S
C192 C189 1.431 . S
C192 C202 1.476 . S
H193 C187 0.929 . S
C194 O185 1.250 . S
C194 O186 1.258 . S
O195 Mn180 2.162 . S
O195 C183 1.281 . S
O196 Mn180 2.297 . S
O196 C183 1.236 . S
N197 Mn181 2.282 . S
N197 C198 1.328 . S
N197 C202 1.318 . S
C198 N197 1.328 . S
C198 C199 1.457 . S
C198 H203 0.929 . S
C199 C198 1.457 . S
C199 C200 1.291 . S
C199 H212 0.931 . S
C200 C199 1.291 . S
C200 C201 1.373 . S
C200 H213 0.929 . S
C201 C200 1.373 . S
C201 C202 1.396 . S
C201 C208 1.403 . S
C202 C192 1.476 . S
C202 N197 1.318 . S
C202 C201 1.396 . S
H203 C198 0.929 . S
O204 Mn180 2.385 . S
O204 C182 1.234 . S
O205 Mn180 2.209 1_565 S
O205 Mn181 2.215 . S
O205 C182 1.283 1_565 S
O206 Mn180 2.094 . S
O206 C184 1.240 . S
O207 Mn181 2.117 . S
O207 C184 1.264 1_565 S
C208 C201 1.403 . S
C208 C209 1.394 1_554 S
C208 H214 0.929 1_554 S
C209 C189 1.434 1_556 S
C209 C208 1.394 1_556 S
C209 H215 0.952 . S
H210 C190 0.931 1_556 S
H211 C191 0.930 . S
H212 C199 0.931 . S
H213 C200 0.929 . S
H214 C208 0.929 1_556 S
H215 C209 0.952 . S
Mn216 O221 2.095 . S
Mn216 O231 2.162 . S
Mn216 O232 2.297 . S
Mn216 O240 2.385 . S
Mn216 O241 2.209 . S
Mn216 O242 2.094 . S
Mn217 O222 2.121 . S
Mn217 N224 2.257 . S
Mn217 N233 2.282 . S
Mn217 O241 2.215 . S
Mn217 O243 2.117 . S
C218 O240 1.234 . S
C218 O241 1.283 . S
C219 O231 1.281 . S
C219 O232 1.236 . S
C220 O242 1.240 . S
C220 O243 1.264 . S
O221 Mn216 2.095 . S
O221 C230 1.250 . S
O222 Mn217 2.121 . S
O222 C230 1.258 . S
C223 N224 1.326 . S
C223 C227 1.460 . S
C223 H229 0.929 . S
N224 Mn217 2.257 . S
N224 C223 1.326 . S
N224 C228 1.362 . S
C225 C226 1.258 . S
C225 C228 1.431 . S
C225 C245 1.449 . S
C226 C225 1.258 . S
C226 C227 1.477 . S
C226 H246 0.931 . S
C227 C223 1.460 . S
C227 C226 1.477 . S
C227 H247 0.930 . S
C228 N224 1.362 . S
C228 C225 1.431 . S
C228 C238 1.476 . S
H229 C223 0.929 . S
C230 O221 1.250 . S
C230 O222 1.258 . S
O231 Mn216 2.162 . S
O231 C219 1.281 . S
O232 Mn216 2.297 . S
O232 C219 1.236 . S
N233 Mn217 2.282 . S
N233 C234 1.328 . S
N233 C238 1.318 . S
C234 N233 1.328 . S
C234 C235 1.457 . S
C234 H239 0.929 . S
C235 C234 1.457 . S
C235 C236 1.291 . S
C235 H248 0.931 . S
C236 C235 1.291 . S
C236 C237 1.373 . S
C236 H249 0.929 . S
C237 C236 1.373 . S
C237 C238 1.396 . S
C237 C244 1.403 . S
C238 C228 1.476 . S
C238 N233 1.318 . S
C238 C237 1.396 . S
H239 C234 0.929 . S
O240 Mn216 2.385 . S
O240 C218 1.234 . S
O241 Mn216 2.209 . S
O241 Mn217 2.215 . S
O241 C218 1.283 . S
O242 Mn216 2.094 . S
O242 C220 1.240 . S
O243 Mn217 2.117 . S
O243 C220 1.264 . S
C244 C237 1.403 . S
C244 C245 1.399 . S
C244 H250 0.929 . S
C245 C225 1.449 . S
C245 C244 1.399 . S
C245 H251 0.930 . S
H246 C226 0.931 . S
H247 C227 0.930 . S
H248 C235 0.931 . S
H249 C236 0.929 . S
H250 C244 0.929 . S
H251 C245 0.930 . S
Mn252 O257 2.095 . S
Mn252 O267 2.162 . S
Mn252 O268 2.297 . S
Mn252 O276 2.385 . S
Mn252 O277 2.209 . S
Mn252 O278 2.094 . S
Mn253 O258 2.121 . S
Mn253 N260 2.257 . S
Mn253 N269 2.282 . S
Mn253 O277 2.215 . S
Mn253 O279 2.117 . S
C254 O276 1.234 . S
C254 O277 1.283 . S
C255 O267 1.271 . S
C255 O268 1.290 . S
C256 O278 1.240 . S
C256 O279 1.264 . S
O257 Mn252 2.095 . S
O257 C266 1.250 . S
O258 Mn253 2.121 . S
O258 C266 1.258 . S
C259 N260 1.326 . S
C259 C263 1.460 . S
C259 H265 0.929 . S
N260 Mn253 2.257 . S
N260 C259 1.326 . S
N260 C264 1.362 . S
C261 C262 1.258 . S
C261 C264 1.431 . S
C261 C281 1.449 . S
C262 C261 1.258 . S
C262 C263 1.477 . S
C262 H282 0.931 . S
C263 C259 1.460 . S
C263 C262 1.477 . S
C263 H283 0.930 . S
C264 N260 1.362 . S
C264 C261 1.431 . S
C264 C274 1.476 . S
H265 C259 0.929 . S
C266 O257 1.250 . S
C266 O258 1.258 . S
O267 Mn252 2.162 . S
O267 C255 1.271 . S
O268 Mn252 2.297 . S
O268 C255 1.290 . S
N269 Mn253 2.282 . S
N269 C270 1.328 . S
N269 C274 1.318 . S
C270 N269 1.328 . S
C270 C271 1.457 . S
C270 H275 0.929 . S
C271 C270 1.457 . S
C271 C272 1.291 . S
C271 H284 0.931 . S
C272 C271 1.291 . S
C272 C273 1.373 . S
C272 H285 0.929 . S
C273 C272 1.373 . S
C273 C274 1.396 . S
C273 C280 1.403 . S
C274 C264 1.476 . S
C274 N269 1.318 . S
C274 C273 1.396 . S
H275 C270 0.929 . S
O276 Mn252 2.385 . S
O276 C254 1.234 . S
O277 Mn252 2.209 . S
O277 Mn253 2.215 . S
O277 C254 1.283 . S
O278 Mn252 2.094 . S
O278 C256 1.240 . S
O279 Mn253 2.117 . S
O279 C256 1.264 . S
C280 C273 1.403 . S
C280 C281 1.399 . S
C280 H286 0.929 . S
C281 C261 1.449 . S
C281 C280 1.399 . S
C281 H287 0.930 . S
H282 C262 0.931 . S
H283 C263 0.930 . S
H284 C271 0.931 . S
H285 C272 0.929 . S
H286 C280 0.929 . S
H287 C281 0.930 . S
Mn288 O293 2.095 . S
Mn288 O303 2.162 . S
Mn288 O304 2.297 . S
Mn288 O312 2.385 . S
Mn288 O313 2.209 . S
Mn288 O314 2.094 . S
Mn289 O294 2.121 . S
Mn289 N296 2.257 . S
Mn289 N305 2.282 . S
Mn289 O313 2.215 . S
Mn289 O315 2.117 . S
C290 O312 1.234 . S
C290 O313 1.283 . S
C291 O303 1.281 . S
C291 O304 1.236 . S
C292 O314 1.240 . S
C292 O315 1.264 . S
O293 Mn288 2.095 . S
O293 C302 1.250 . S
O294 Mn289 2.121 . S
O294 C302 1.258 . S
C295 N296 1.326 . S
C295 C299 1.460 . S
C295 H301 0.929 . S
N296 Mn289 2.257 . S
N296 C295 1.326 . S
N296 C300 1.362 . S
C297 C298 1.258 . S
C297 C300 1.431 . S
C297 C317 1.449 . S
C298 C297 1.258 . S
C298 C299 1.477 . S
C298 H318 0.931 . S
C299 C295 1.460 . S
C299 C298 1.477 . S
C299 H319 0.930 . S
C300 N296 1.362 . S
C300 C297 1.431 . S
C300 C310 1.476 . S
H301 C295 0.929 . S
C302 O293 1.250 . S
C302 O294 1.258 . S
O303 Mn288 2.162 . S
O303 C291 1.281 . S
O304 Mn288 2.297 . S
O304 C291 1.236 . S
N305 Mn289 2.282 . S
N305 C306 1.328 . S
N305 C310 1.318 . S
C306 N305 1.328 . S
C306 C307 1.457 . S
C306 H311 0.929 . S
C307 C306 1.457 . S
C307 C308 1.291 . S
C307 H320 0.931 . S
C308 C307 1.291 . S
C308 C309 1.373 . S
C308 H321 0.929 . S
C309 C308 1.373 . S
C309 C310 1.396 . S
C309 C316 1.403 . S
C310 C300 1.476 . S
C310 N305 1.318 . S
C310 C309 1.396 . S
H311 C306 0.929 . S
O312 Mn288 2.385 . S
O312 C290 1.234 . S
O313 Mn288 2.209 . S
O313 Mn289 2.215 . S
O313 C290 1.283 . S
O314 Mn288 2.094 . S
O314 C292 1.240 . S
O315 Mn289 2.117 . S
O315 C292 1.264 . S
C316 C309 1.403 . S
C316 C317 1.399 . S
C316 H322 0.929 . S
C317 C297 1.449 . S
C317 C316 1.399 . S
C317 H323 0.930 . S
H318 C298 0.931 . S
H319 C299 0.930 . S
H320 C307 0.931 . S
H321 C308 0.929 . S
H322 C316 0.929 . S
H323 C317 0.930 . S
Mn324 O329 2.095 . S
Mn324 O339 2.162 . S
Mn324 O340 2.297 . S
Mn324 O348 2.385 . S
Mn324 O349 2.209 . S
Mn324 O350 2.094 . S
Mn325 O330 2.121 . S
Mn325 N332 2.257 . S
Mn325 N341 2.282 . S
Mn325 O349 2.215 . S
Mn325 O351 2.117 . S
C326 O348 1.234 . S
C326 O349 1.283 . S
C327 O339 1.281 . S
C327 O340 1.236 . S
C328 O350 1.240 . S
C328 O351 1.264 . S
O329 Mn324 2.095 . S
O329 C338 1.250 . S
O330 Mn325 2.121 . S
O330 C338 1.258 . S
C331 N332 1.326 . S
C331 C335 1.460 1_565 S
C331 H337 0.929 1_565 S
N332 Mn325 2.257 . S
N332 C331 1.326 . S
N332 C336 1.362 . S
C333 C334 1.258 . S
C333 C336 1.431 . S
C333 C353 1.449 . S
C334 C333 1.258 . S
C334 C335 1.477 1_565 S
C334 H354 0.931 . S
C335 C331 1.460 1_545 S
C335 C334 1.477 1_545 S
C335 H355 0.930 . S
C336 N332 1.362 . S
C336 C333 1.431 . S
C336 C346 1.476 . S
H337 C331 0.929 1_545 S
C338 O329 1.250 . S
C338 O330 1.258 . S
O339 Mn324 2.162 . S
O339 C327 1.281 . S
O340 Mn324 2.297 . S
O340 C327 1.236 . S
N341 Mn325 2.282 . S
N341 C342 1.328 . S
N341 C346 1.318 . S
C342 N341 1.328 . S
C342 C343 1.457 . S
C342 H347 0.929 . S
C343 C342 1.457 . S
C343 C344 1.291 . S
C343 H356 0.931 . S
C344 C343 1.291 . S
C344 C345 1.373 . S
C344 H357 0.929 . S
C345 C344 1.373 . S
C345 C346 1.396 . S
C345 C352 1.403 . S
C346 C336 1.476 . S
C346 N341 1.318 . S
C346 C345 1.396 . S
H347 C342 0.929 . S
O348 Mn324 2.385 . S
O348 C326 1.234 . S
O349 Mn324 2.209 . S
O349 Mn325 2.215 . S
O349 C326 1.283 . S
O350 Mn324 2.094 . S
O350 C328 1.240 . S
O351 Mn325 2.117 . S
O351 C328 1.264 . S
C352 C345 1.403 . S
C352 C353 1.399 . S
C352 H358 0.929 . S
C353 C333 1.449 . S
C353 C352 1.399 . S
C353 H359 0.930 . S
H354 C334 0.931 . S
H355 C335 0.930 . S
H356 C343 0.931 . S
H357 C344 0.929 . S
H358 C352 0.929 . S
H359 C353 0.930 . S
Mn360 O365 2.095 . S
Mn360 O375 2.162 . S
Mn360 O376 2.297 . S
Mn360 O384 2.385 . S
Mn360 O385 2.209 . S
Mn360 O386 2.094 . S
Mn361 O366 2.121 . S
Mn361 N368 2.257 . S
Mn361 N377 2.282 . S
Mn361 O385 2.215 . S
Mn361 O387 2.117 . S
C362 O384 1.234 . S
C362 O385 1.283 . S
C363 O375 1.281 . S
C363 O376 1.236 . S
C364 O386 1.240 . S
C364 O387 1.264 . S
O365 Mn360 2.095 . S
O365 C374 1.250 . S
O366 Mn361 2.121 . S
O366 C374 1.258 . S
C367 N368 1.326 . S
C367 C371 1.460 . S
C367 H373 0.929 . S
N368 Mn361 2.257 . S
N368 C367 1.326 . S
N368 C372 1.362 . S
C369 C370 1.258 . S
C369 C372 1.431 . S
C369 C389 1.449 . S
C370 C369 1.258 . S
C370 C371 1.477 . S
C370 H390 0.931 . S
C371 C367 1.460 . S
C371 C370 1.477 . S
C371 H391 0.930 . S
C372 N368 1.362 . S
C372 C369 1.431 . S
C372 C382 1.476 . S
H373 C367 0.929 . S
C374 O365 1.250 . S
C374 O366 1.258 . S
O375 Mn360 2.162 . S
O375 C363 1.281 . S
O376 Mn360 2.297 . S
O376 C363 1.236 . S
N377 Mn361 2.282 . S
N377 C378 1.328 . S
N377 C382 1.318 . S
C378 N377 1.328 . S
C378 C379 1.457 . S
C378 H383 0.929 . S
C379 C378 1.457 . S
C379 C380 1.291 . S
C379 H392 0.931 . S
C380 C379 1.291 . S
C380 C381 1.373 . S
C380 H393 0.929 . S
C381 C380 1.373 . S
C381 C382 1.396 . S
C381 C388 1.403 . S
C382 C372 1.476 . S
C382 N377 1.318 . S
C382 C381 1.396 . S
H383 C378 0.929 . S
O384 Mn360 2.385 . S
O384 C362 1.234 . S
O385 Mn360 2.209 . S
O385 Mn361 2.215 . S
O385 C362 1.283 . S
O386 Mn360 2.094 . S
O386 C364 1.240 . S
O387 Mn361 2.117 . S
O387 C364 1.264 . S
C388 C381 1.403 . S
C388 C389 1.399 . S
C388 H394 0.929 . S
C389 C369 1.449 . S
C389 C388 1.399 . S
C389 H395 0.930 . S
H390 C370 0.931 . S
H391 C371 0.930 . S
H392 C379 0.931 . S
H393 C380 0.929 . S
H394 C388 0.929 . S
H395 C389 0.930 . S
Mn396 O401 2.095 . S
Mn396 O411 2.162 . S
Mn396 O412 2.297 . S
Mn396 O420 2.385 . S
Mn396 O421 2.209 . S
Mn396 O422 2.094 . S
Mn397 O402 2.121 . S
Mn397 N404 2.257 . S
Mn397 N413 2.282 . S
Mn397 O421 2.215 . S
Mn397 O423 2.117 . S
C398 O420 1.234 . S
C398 O421 1.283 . S
C399 O411 1.281 . S
C399 O412 1.236 . S
C400 O422 1.240 . S
C400 O423 1.264 . S
O401 Mn396 2.095 . S
O401 C410 1.250 . S
O402 Mn397 2.121 . S
O402 C410 1.258 . S
C403 N404 1.326 . S
C403 C407 1.460 . S
C403 H409 0.929 . S
N404 Mn397 2.257 . S
N404 C403 1.326 . S
N404 C408 1.362 . S
C405 C406 1.258 . S
C405 C408 1.431 . S
C405 C425 1.449 . S
C406 C405 1.258 . S
C406 C407 1.477 . S
C406 H426 0.931 . S
C407 C403 1.460 . S
C407 C406 1.477 . S
C407 H427 0.930 . S
C408 N404 1.362 . S
C408 C405 1.431 . S
C408 C418 1.476 . S
H409 C403 0.929 . S
C410 O401 1.250 . S
C410 O402 1.258 . S
O411 Mn396 2.162 . S
O411 C399 1.281 . S
O412 Mn396 2.297 . S
O412 C399 1.236 . S
N413 Mn397 2.282 . S
N413 C414 1.328 . S
N413 C418 1.318 . S
C414 N413 1.328 . S
C414 C415 1.457 . S
C414 H419 0.929 . S
C415 C414 1.457 . S
C415 C416 1.291 . S
C415 H428 0.931 . S
C416 C415 1.291 . S
C416 C417 1.373 . S
C416 H429 0.929 . S
C417 C416 1.373 . S
C417 C418 1.396 . S
C417 C424 1.403 . S
C418 C408 1.476 . S
C418 N413 1.318 . S
C418 C417 1.396 . S
H419 C414 0.929 . S
O420 Mn396 2.385 . S
O420 C398 1.234 . S
O421 Mn396 2.209 . S
O421 Mn397 2.215 . S
O421 C398 1.283 . S
O422 Mn396 2.094 . S
O422 C400 1.240 . S
O423 Mn397 2.117 . S
O423 C400 1.264 . S
C424 C417 1.403 . S
C424 C425 1.399 . S
C424 H430 0.929 . S
C425 C405 1.449 . S
C425 C424 1.399 . S
C425 H431 0.930 . S
H426 C406 0.931 . S
H427 C407 0.930 . S
H428 C415 0.931 . S
H429 C416 0.929 . S
H430 C424 0.929 . S
H431 C425 0.930 . S
Mn432 O437 2.095 . S
Mn432 O447 2.162 . S
Mn432 O448 2.297 . S
Mn432 O456 2.385 . S
Mn432 O457 2.209 . S
Mn432 O458 2.094 . S
Mn433 O438 2.121 . S
Mn433 N440 2.257 . S
Mn433 N449 2.282 . S
Mn433 O457 2.215 . S
Mn433 O459 2.117 . S
C434 O456 1.234 . S
C434 O457 1.283 . S
C435 O447 1.281 . S
C435 O448 1.236 . S
C436 O458 1.240 . S
C436 O459 1.264 . S
O437 Mn432 2.095 . S
O437 C446 1.250 . S
O438 Mn433 2.121 . S
O438 C446 1.258 . S
C439 N440 1.326 . S
C439 C443 1.460 . S
C439 H445 0.929 . S
N440 Mn433 2.257 . S
N440 C439 1.326 . S
N440 C444 1.362 . S
C441 C442 1.258 . S
C441 C444 1.431 . S
C441 C461 1.449 . S
C442 C441 1.258 . S
C442 C443 1.477 . S
C442 H462 0.931 . S
C443 C439 1.460 . S
C443 C442 1.477 . S
C443 H463 0.930 . S
C444 N440 1.362 . S
C444 C441 1.431 . S
C444 C454 1.476 . S
H445 C439 0.929 . S
C446 O437 1.250 . S
C446 O438 1.258 . S
O447 Mn432 2.162 . S
O447 C435 1.281 . S
O448 Mn432 2.297 . S
O448 C435 1.236 . S
N449 Mn433 2.282 . S
N449 C450 1.328 . S
N449 C454 1.318 . S
C450 N449 1.328 . S
C450 C451 1.457 . S
C450 H455 0.929 . S
C451 C450 1.457 . S
C451 C452 1.291 . S
C451 H464 0.931 . S
C452 C451 1.291 . S
C452 C453 1.373 . S
C452 H465 0.929 . S
C453 C452 1.373 . S
C453 C454 1.396 . S
C453 C460 1.403 . S
C454 C444 1.476 . S
C454 N449 1.318 . S
C454 C453 1.396 . S
H455 C450 0.929 . S
O456 Mn432 2.385 . S
O456 C434 1.234 . S
O457 Mn432 2.209 . S
O457 Mn433 2.215 . S
O457 C434 1.283 . S
O458 Mn432 2.094 . S
O458 C436 1.240 . S
O459 Mn433 2.117 . S
O459 C436 1.264 . S
C460 C453 1.403 . S
C460 C461 1.399 . S
C460 H466 0.929 . S
C461 C441 1.449 . S
C461 C460 1.399 . S
C461 H467 0.930 . S
H462 C442 0.931 . S
H463 C443 0.930 . S
H464 C451 0.931 . S
H465 C452 0.929 . S
H466 C460 0.929 . S
H467 C461 0.930 . S
Mn468 O473 2.095 . S
Mn468 O483 2.162 . S
Mn468 O484 2.297 . S
Mn468 O492 2.385 . S
Mn468 O493 2.209 . S
Mn468 O494 2.094 . S
Mn469 O474 2.121 . S
Mn469 N476 2.257 . S
Mn469 N485 2.282 . S
Mn469 O493 2.215 . S
Mn469 O495 2.117 . S
C470 O492 1.234 . S
C470 O493 1.283 . S
C471 O483 1.281 . S
C471 O484 1.236 . S
C472 O494 1.240 . S
C472 O495 1.264 . S
O473 Mn468 2.095 . S
O473 C482 1.250 . S
O474 Mn469 2.121 . S
O474 C482 1.258 . S
C475 N476 1.326 . S
C475 C479 1.460 . S
C475 H481 0.929 . S
N476 Mn469 2.257 . S
N476 C475 1.326 . S
N476 C480 1.362 . S
C477 C478 1.258 . S
C477 C480 1.431 . S
C477 C497 1.449 . S
C478 C477 1.258 . S
C478 C479 1.477 . S
C478 H498 0.931 . S
C479 C475 1.460 . S
C479 C478 1.477 . S
C479 H499 0.930 1_655 S
C480 N476 1.362 . S
C480 C477 1.431 . S
C480 C490 1.476 . S
H481 C475 0.929 . S
C482 O473 1.250 . S
C482 O474 1.258 . S
O483 Mn468 2.162 . S
O483 C471 1.281 . S
O484 Mn468 2.297 . S
O484 C471 1.236 . S
N485 Mn469 2.282 . S
N485 C486 1.328 . S
N485 C490 1.318 . S
C486 N485 1.328 . S
C486 C487 1.457 . S
C486 H491 0.929 . S
C487 C486 1.457 . S
C487 C488 1.291 . S
C487 H500 0.931 . S
C488 C487 1.291 . S
C488 C489 1.373 . S
C488 H501 0.929 . S
C489 C488 1.373 . S
C489 C490 1.396 . S
C489 C496 1.403 . S
C490 C480 1.476 . S
C490 N485 1.318 . S
C490 C489 1.396 . S
H491 C486 0.929 . S
O492 Mn468 2.385 . S
O492 C470 1.234 . S
O493 Mn468 2.209 . S
O493 Mn469 2.215 . S
O493 C470 1.283 . S
O494 Mn468 2.094 . S
O494 C472 1.240 . S
O495 Mn469 2.117 . S
O495 C472 1.264 . S
C496 C489 1.403 . S
C496 C497 1.399 . S
C496 H502 0.929 . S
C497 C477 1.449 . S
C497 C496 1.399 . S
C497 H503 0.930 . S
H498 C478 0.931 . S
H499 C479 0.930 1_455 S
H500 C487 0.931 . S
H501 C488 0.929 . S
H502 C496 0.929 . S
H503 C497 0.930 . S
Mn504 O509 2.095 . S
Mn504 O519 2.162 . S
Mn504 O520 2.297 . S
Mn504 O528 2.385 . S
Mn504 O529 2.209 . S
Mn504 O530 2.094 . S
Mn505 O510 2.121 . S
Mn505 N512 2.257 . S
Mn505 N521 2.282 . S
Mn505 O529 2.215 . S
Mn505 O531 2.117 . S
C506 O528 1.234 . S
C506 O529 1.283 . S
C507 O519 1.281 . S
C507 O520 1.236 . S
C508 O530 1.240 . S
C508 O531 1.264 . S
O509 Mn504 2.095 . S
O509 C518 1.250 . S
O510 Mn505 2.121 . S
O510 C518 1.258 . S
C511 N512 1.326 . S
C511 C515 1.460 . S
C511 H517 0.929 . S
N512 Mn505 2.257 . S
N512 C511 1.326 . S
N512 C516 1.362 . S
C513 C514 1.258 . S
C513 C516 1.431 . S
C513 C533 1.449 . S
C514 C513 1.258 . S
C514 C515 1.477 . S
C514 H534 0.931 . S
C515 C511 1.460 . S
C515 C514 1.477 . S
C515 H535 0.930 . S
C516 N512 1.362 . S
C516 C513 1.431 . S
C516 C526 1.476 . S
H517 C511 0.929 . S
C518 O509 1.250 . S
C518 O510 1.258 . S
O519 Mn504 2.162 . S
O519 C507 1.281 . S
O520 Mn504 2.297 . S
O520 C507 1.236 . S
N521 Mn505 2.282 . S
N521 C522 1.328 . S
N521 C526 1.318 . S
C522 N521 1.328 . S
C522 C523 1.457 . S
C522 H527 0.929 . S
C523 C522 1.457 . S
C523 C524 1.291 . S
C523 H536 0.931 . S
C524 C523 1.291 . S
C524 C525 1.373 . S
C524 H537 0.929 . S
C525 C524 1.373 . S
C525 C526 1.396 . S
C525 C532 1.403 . S
C526 C516 1.476 . S
C526 N521 1.318 . S
C526 C525 1.396 . S
H527 C522 0.929 . S
O528 Mn504 2.385 . S
O528 C506 1.234 . S
O529 Mn504 2.209 . S
O529 Mn505 2.215 . S
O529 C506 1.283 . S
O530 Mn504 2.094 . S
O530 C508 1.240 . S
O531 Mn505 2.117 . S
O531 C508 1.264 . S
C532 C525 1.403 . S
C532 C533 1.399 . S
C532 H538 0.929 . S
C533 C513 1.449 . S
C533 C532 1.399 . S
C533 H539 0.930 . S
H534 C514 0.931 . S
H535 C515 0.930 . S
H536 C523 0.931 . S
H537 C524 0.929 . S
H538 C532 0.929 . S
H539 C533 0.930 . S
Mn540 O545 2.095 . S
Mn540 O555 2.162 . S
Mn540 O556 2.297 . S
Mn540 O564 2.385 . S
Mn540 O565 2.209 . S
Mn540 O566 2.094 . S
Mn541 O546 2.121 . S
Mn541 N548 2.257 . S
Mn541 N557 2.282 . S
Mn541 O565 2.215 . S
Mn541 O567 2.117 . S
C542 O564 1.234 . S
C542 O565 1.283 . S
C543 O555 1.281 . S
C543 O556 1.236 . S
C544 O566 1.240 . S
C544 O567 1.264 . S
O545 Mn540 2.095 . S
O545 C554 1.250 . S
O546 Mn541 2.121 . S
O546 C554 1.258 . S
C547 N548 1.326 . S
C547 C551 1.460 . S
C547 H553 0.929 . S
N548 Mn541 2.257 . S
N548 C547 1.326 . S
N548 C552 1.362 . S
C549 C550 1.258 . S
C549 C552 1.431 . S
C549 C569 1.449 . S
C550 C549 1.258 . S
C550 C551 1.477 . S
C550 H570 0.931 . S
C551 C547 1.460 . S
C551 C550 1.477 . S
C551 H571 0.930 . S
C552 N548 1.362 . S
C552 C549 1.431 . S
C552 C562 1.476 . S
H553 C547 0.929 . S
C554 O545 1.250 . S
C554 O546 1.258 . S
O555 Mn540 2.162 . S
O555 C543 1.281 . S
O556 Mn540 2.297 . S
O556 C543 1.236 . S
N557 Mn541 2.282 . S
N557 C558 1.328 . S
N557 C562 1.318 . S
C558 N557 1.328 . S
C558 C559 1.457 . S
C558 H563 0.929 . S
C559 C558 1.457 . S
C559 C560 1.291 . S
C559 H572 0.931 . S
C560 C559 1.291 . S
C560 C561 1.373 . S
C560 H573 0.929 . S
C561 C560 1.373 . S
C561 C562 1.396 . S
C561 C568 1.403 . S
C562 C552 1.476 . S
C562 N557 1.318 . S
C562 C561 1.396 . S
H563 C558 0.929 . S
O564 Mn540 2.385 . S
O564 C542 1.234 . S
O565 Mn540 2.209 . S
O565 Mn541 2.215 . S
O565 C542 1.283 . S
O566 Mn540 2.094 . S
O566 C544 1.240 . S
O567 Mn541 2.117 . S
O567 C544 1.264 . S
C568 C561 1.403 . S
C568 C569 1.399 . S
C568 H574 0.929 . S
C569 C549 1.449 . S
C569 C568 1.399 . S
C569 H575 0.930 . S
H570 C550 0.931 . S
H571 C551 0.930 . S
H572 C559 0.931 . S
H573 C560 0.929 . S
H574 C568 0.929 . S
H575 C569 0.930 . S
Mn576 O581 2.095 . S
Mn576 O591 2.162 . S
Mn576 O592 2.297 . S
Mn576 O600 2.385 . S
Mn576 O601 2.209 . S
Mn576 O602 2.094 . S
Mn577 O582 2.121 . S
Mn577 N584 2.257 . S
Mn577 N593 2.282 . S
Mn577 O601 2.215 . S
Mn577 O603 2.117 . S
C578 O600 1.234 . S
C578 O601 1.283 . S
C579 O591 1.281 . S
C579 O592 1.236 . S
C580 O602 1.240 . S
C580 O603 1.264 . S
O581 Mn576 2.095 . S
O581 C590 1.250 . S
O582 Mn577 2.121 . S
O582 C590 1.258 . S
C583 N584 1.326 . S
C583 C587 1.460 . S
C583 H589 0.929 . S
N584 Mn577 2.257 . S
N584 C583 1.326 . S
N584 C588 1.362 . S
C585 C586 1.258 . S
C585 C588 1.431 . S
C585 C605 1.449 . S
C586 C585 1.258 . S
C586 C587 1.477 . S
C586 H606 0.931 . S
C587 C583 1.460 . S
C587 C586 1.477 . S
C587 H607 0.930 1_545 S
C588 N584 1.362 . S
C588 C585 1.431 . S
C588 C598 1.476 . S
H589 C583 0.929 . S
C590 O581 1.250 . S
C590 O582 1.258 . S
O591 Mn576 2.162 . S
O591 C579 1.281 . S
O592 Mn576 2.297 . S
O592 C579 1.236 . S
N593 Mn577 2.282 . S
N593 C594 1.328 . S
N593 C598 1.318 . S
C594 N593 1.328 . S
C594 C595 1.457 . S
C594 H599 0.929 . S
C595 C594 1.457 . S
C595 C596 1.291 . S
C595 H608 0.931 . S
C596 C595 1.291 . S
C596 C597 1.373 . S
C596 H609 0.929 . S
C597 C596 1.373 . S
C597 C598 1.396 . S
C597 C604 1.403 . S
C598 C588 1.476 . S
C598 N593 1.318 . S
C598 C597 1.396 . S
H599 C594 0.929 . S
O600 Mn576 2.385 . S
O600 C578 1.234 . S
O601 Mn576 2.209 . S
O601 Mn577 2.215 . S
O601 C578 1.283 . S
O602 Mn576 2.094 . S
O602 C580 1.240 . S
O603 Mn577 2.117 . S
O603 C580 1.264 . S
C604 C597 1.403 . S
C604 C605 1.399 . S
C604 H610 0.929 . S
C605 C585 1.449 . S
C605 C604 1.399 . S
C605 H611 0.930 . S
H606 C586 0.931 . S
H607 C587 0.930 1_565 S
H608 C595 0.931 . S
H609 C596 0.929 . S
H610 C604 0.929 . S
H611 C605 0.930 . S
Mn612 O617 2.095 . S
Mn612 O627 2.162 . S
Mn612 O628 2.297 . S
Mn612 O636 2.385 . S
Mn612 O637 2.209 . S
Mn612 O638 2.094 . S
Mn613 O618 2.121 . S
Mn613 N620 2.257 . S
Mn613 N629 2.282 . S
Mn613 O637 2.215 . S
Mn613 O639 2.117 . S
C614 O636 1.234 . S
C614 O637 1.283 . S
C615 O627 1.281 . S
C615 O628 1.236 . S
C616 O638 1.240 . S
C616 O639 1.264 . S
O617 Mn612 2.095 . S
O617 C626 1.250 . S
O618 Mn613 2.121 . S
O618 C626 1.258 . S
C619 N620 1.326 . S
C619 C623 1.460 . S
C619 H625 0.929 . S
N620 Mn613 2.257 . S
N620 C619 1.326 . S
N620 C624 1.362 . S
C621 C622 1.258 . S
C621 C624 1.431 . S
C621 C641 1.449 . S
C622 C621 1.258 . S
C622 C623 1.477 . S
C622 H642 0.931 . S
C623 C619 1.460 . S
C623 C622 1.477 . S
C623 H643 0.930 . S
C624 N620 1.362 . S
C624 C621 1.431 . S
C624 C634 1.476 . S
H625 C619 0.929 . S
C626 O617 1.250 . S
C626 O618 1.258 . S
O627 Mn612 2.162 . S
O627 C615 1.281 . S
O628 Mn612 2.297 . S
O628 C615 1.236 . S
N629 Mn613 2.282 . S
N629 C630 1.328 . S
N629 C634 1.318 . S
C630 N629 1.328 . S
C630 C631 1.457 . S
C630 H635 0.929 . S
C631 C630 1.457 . S
C631 C632 1.291 . S
C631 H644 0.931 . S
C632 C631 1.291 . S
C632 C633 1.373 . S
C632 H645 0.929 . S
C633 C632 1.373 . S
C633 C634 1.396 . S
C633 C640 1.403 . S
C634 C624 1.476 . S
C634 N629 1.318 . S
C634 C633 1.396 . S
H635 C630 0.929 . S
O636 Mn612 2.385 . S
O636 C614 1.234 . S
O637 Mn612 2.209 . S
O637 Mn613 2.215 . S
O637 C614 1.283 . S
O638 Mn612 2.094 . S
O638 C616 1.240 . S
O639 Mn613 2.117 . S
O639 C616 1.264 . S
C640 C633 1.403 . S
C640 C641 1.399 . S
C640 H646 0.929 . S
C641 C621 1.449 . S
C641 C640 1.399 . S
C641 H647 0.930 . S
H642 C622 0.931 . S
H643 C623 0.930 . S
H644 C631 0.931 . S
H645 C632 0.929 . S
H646 C640 0.929 . S
H647 C641 0.930 . S
H648 O674 0.856 . S
H649 O677 0.854 . S
H650 C685 0.930 . S
H651 C686 0.930 . S
H652 C688 0.930 . S
H653 C689 0.930 . S
H654 C691 0.931 . S
H655 C692 0.930 . S
H656 C694 0.930 . S
H657 C695 0.929 . S
H658 C697 0.930 . S
H659 C698 0.931 . S
H660 C700 0.930 . S
H661 C701 0.929 . S
H662 C703 0.931 . S
H663 C704 0.930 . S
H664 C706 0.930 . S
H665 C707 0.932 . S
H666 C709 0.930 . S
H667 C710 0.929 . S
H668 C712 0.931 . S
H669 C713 0.930 . S
H670 C715 0.929 . S
H671 C716 0.931 . S
H672 C718 0.930 . S
H673 C719 0.929 . S
O674 H648 0.856 . S
O674 C720 1.300 . S
O675 C720 1.209 . S
O676 C721 1.199 . S
O677 H649 0.854 . S
O677 C721 1.297 . S
C678 C679 1.404 . S
C678 C683 1.397 . S
C678 C684 1.492 . S
C679 C678 1.404 . S
C679 C680 1.396 . S
C679 C690 1.492 . S
C680 C679 1.396 . S
C680 C681 1.397 . S
C680 C696 1.509 . S
C681 C680 1.397 . S
C681 C682 1.412 . S
C681 C702 1.485 . S
C682 C681 1.412 . S
C682 C683 1.388 . S
C682 C708 1.490 . S
C683 C678 1.397 . S
C683 C682 1.388 . S
C683 C714 1.519 . S
C684 C678 1.492 . S
C684 C685 1.363 . S
C684 C689 1.390 . S
C685 H650 0.930 . S
C685 C684 1.363 . S
C685 C686 1.372 . S
C686 H651 0.930 . S
C686 C685 1.372 . S
C686 C687 1.383 . S
C687 C686 1.383 . S
C687 C688 1.395 . S
C688 H652 0.930 . S
C688 C687 1.395 . S
C688 C689 1.362 . S
C689 H653 0.930 . S
C689 C684 1.390 . S
C689 C688 1.362 . S
C690 C679 1.492 . S
C690 C691 1.377 . S
C690 C695 1.397 . S
C691 H654 0.931 . S
C691 C690 1.377 . S
C691 C692 1.376 . S
C692 H655 0.930 . S
C692 C691 1.376 . S
C692 C693 1.376 . S
C693 C692 1.376 . S
C693 C694 1.378 . S
C693 C720 1.486 . S
C694 H656 0.930 . S
C694 C693 1.378 . S
C694 C695 1.376 . S
C695 H657 0.929 . S
C695 C690 1.397 . S
C695 C694 1.376 . S
C696 C680 1.509 . S
C696 C697 1.391 . S
C696 C701 1.386 . S
C697 H658 0.930 . S
C697 C696 1.391 . S
C697 C698 1.375 . S
C698 H659 0.931 . S
C698 C697 1.375 . S
C698 C699 1.375 . S
C699 C698 1.375 . S
C699 C700 1.361 . S
C700 H660 0.930 . S
C700 C699 1.361 . S
C700 C701 1.399 . S
C701 H661 0.929 . S
C701 C696 1.386 . S
C701 C700 1.399 . S
C702 C681 1.485 . S
C702 C703 1.394 . S
C702 C707 1.360 . S
C703 H662 0.931 . S
C703 C702 1.394 . S
C703 C704 1.372 . S
C704 H663 0.930 . S
C704 C703 1.372 . S
C704 C705 1.397 . S
C705 C704 1.397 . S
C705 C706 1.390 . S
C705 C721 1.476 . S
C706 H664 0.930 . S
C706 C705 1.390 . S
C706 C707 1.366 . S
C707 H665 0.932 . S
C707 C702 1.360 . S
C707 C706 1.366 . S
C708 C682 1.490 . S
C708 C709 1.380 . S
C708 C713 1.386 . S
C709 H666 0.930 . S
C709 C708 1.380 . S
C709 C710 1.381 . S
C710 H667 0.929 . S
C710 C709 1.381 . S
C710 C711 1.371 . S
C711 C710 1.371 . S
C711 C712 1.380 . S
C712 H668 0.931 . S
C712 C711 1.380 . S
C712 C713 1.387 . S
C713 H669 0.930 . S
C713 C708 1.386 . S
C713 C712 1.387 . S
C714 C683 1.519 . S
C714 C715 1.377 . S
C714 C719 1.361 . S
C715 H670 0.929 . S
C715 C714 1.377 . S
C715 C716 1.386 . S
C716 H671 0.931 . S
C716 C715 1.386 . S
C716 C717 1.363 . S
C717 C716 1.363 . S
C717 C718 1.385 . S
C718 H672 0.930 . S
C718 C717 1.385 . S
C718 C719 1.396 . S
C719 H673 0.929 . S
C719 C714 1.361 . S
C719 C718 1.396 . S
C720 O674 1.300 . S
C720 O675 1.209 . S
C720 C693 1.486 . S
C721 O676 1.199 . S
C721 O677 1.297 . S
C721 C705 1.476 . S
H722 O748 0.856 . S
H723 O751 0.854 . S
H724 C759 0.930 . S
H725 C760 0.930 . S
H726 C762 0.930 . S
H727 C763 0.930 . S
H728 C765 0.931 . S
H729 C766 0.930 . S
H730 C768 0.930 . S
H731 C769 0.929 . S
H732 C771 0.930 . S
H733 C772 0.931 . S
H734 C774 0.930 . S
H735 C775 0.929 . S
H736 C777 0.931 . S
H737 C778 0.930 . S
H738 C780 0.930 . S
H739 C781 0.932 . S
H740 C783 0.930 . S
H741 C784 0.929 . S
H742 C786 0.931 . S
H743 C787 0.930 . S
H744 C789 0.929 . S
H745 C790 0.931 . S
H746 C792 0.930 . S
H747 C793 0.929 . S
O748 H722 0.856 . S
O748 C794 1.300 . S
O749 C794 1.209 . S
O750 C795 1.199 . S
O751 H723 0.854 . S
O751 C795 1.297 . S
C752 C753 1.404 . S
C752 C757 1.397 . S
C752 C758 1.492 . S
C753 C752 1.404 . S
C753 C754 1.396 . S
C753 C764 1.492 . S
C754 C753 1.396 . S
C754 C755 1.397 . S
C754 C770 1.509 . S
C755 C754 1.397 . S
C755 C756 1.412 . S
C755 C776 1.485 . S
C756 C755 1.412 . S
C756 C757 1.388 . S
C756 C782 1.490 . S
C757 C752 1.397 . S
C757 C756 1.388 . S
C757 C788 1.519 . S
C758 C752 1.492 . S
C758 C759 1.363 . S
C758 C763 1.390 . S
C759 H724 0.930 . S
C759 C758 1.363 . S
C759 C760 1.372 . S
C760 H725 0.930 . S
C760 C759 1.372 . S
C760 C761 1.383 . S
C761 C760 1.383 . S
C761 C762 1.395 . S
C762 H726 0.930 . S
C762 C761 1.395 . S
C762 C763 1.362 . S
C763 H727 0.930 . S
C763 C758 1.390 . S
C763 C762 1.362 . S
C764 C753 1.492 . S
C764 C765 1.377 . S
C764 C769 1.397 . S
C765 H728 0.931 . S
C765 C764 1.377 . S
C765 C766 1.376 . S
C766 H729 0.930 . S
C766 C765 1.376 . S
C766 C767 1.376 . S
C767 C766 1.376 . S
C767 C768 1.378 . S
C767 C794 1.486 . S
C768 H730 0.930 . S
C768 C767 1.378 . S
C768 C769 1.376 . S
C769 H731 0.929 . S
C769 C764 1.397 . S
C769 C768 1.376 . S
C770 C754 1.509 . S
C770 C771 1.391 . S
C770 C775 1.386 . S
C771 H732 0.930 . S
C771 C770 1.391 . S
C771 C772 1.375 . S
C772 H733 0.931 . S
C772 C771 1.375 . S
C772 C773 1.375 . S
C773 C772 1.375 . S
C773 C774 1.361 . S
C774 H734 0.930 . S
C774 C773 1.361 . S
C774 C775 1.399 . S
C775 H735 0.929 . S
C775 C770 1.386 . S
C775 C774 1.399 . S
C776 C755 1.485 . S
C776 C777 1.394 . S
C776 C781 1.360 . S
C777 H736 0.931 . S
C777 C776 1.394 . S
C777 C778 1.372 . S
C778 H737 0.930 . S
C778 C777 1.372 . S
C778 C779 1.397 . S
C779 C778 1.397 . S
C779 C780 1.390 . S
C779 C795 1.476 . S
C780 H738 0.930 . S
C780 C779 1.390 . S
C780 C781 1.366 . S
C781 H739 0.932 . S
C781 C776 1.360 . S
C781 C780 1.366 . S
C782 C756 1.490 . S
C782 C783 1.380 . S
C782 C787 1.386 . S
C783 H740 0.930 . S
C783 C782 1.380 . S
C783 C784 1.381 . S
C784 H741 0.929 . S
C784 C783 1.381 . S
C784 C785 1.371 . S
C785 C784 1.371 . S
C785 C786 1.380 . S
C786 H742 0.931 . S
C786 C785 1.380 . S
C786 C787 1.387 . S
C787 H743 0.930 . S
C787 C782 1.386 . S
C787 C786 1.387 . S
C788 C757 1.519 . S
C788 C789 1.377 . S
C788 C793 1.361 . S
C789 H744 0.929 . S
C789 C788 1.377 . S
C789 C790 1.386 . S
C790 H745 0.931 . S
C790 C789 1.386 . S
C790 C791 1.363 . S
C791 C790 1.363 . S
C791 C792 1.385 . S
C792 H746 0.930 . S
C792 C791 1.385 . S
C792 C793 1.396 . S
C793 H747 0.929 . S
C793 C788 1.361 . S
C793 C792 1.396 . S
C794 O748 1.300 . S
C794 O749 1.209 . S
C794 C767 1.486 . S
C795 O750 1.199 . S
C795 O751 1.297 . S
C795 C779 1.476 . S
H796 O822 0.856 . S
H797 O825 0.854 . S
H798 C833 0.930 . S
H799 C834 0.930 . S
H800 C836 0.930 . S
H801 C837 0.930 . S
H802 C839 0.931 . S
H803 C840 0.930 . S
H804 C842 0.930 . S
H805 C843 0.929 . S
H806 C845 0.930 . S
H807 C846 0.931 . S
H808 C848 0.930 . S
H809 C849 0.929 . S
H810 C851 0.931 . S
H811 C852 0.930 . S
H812 C854 0.930 . S
H813 C855 0.932 . S
H814 C857 0.930 . S
H815 C858 0.929 . S
H816 C860 0.931 . S
H817 C861 0.930 . S
H818 C863 0.929 . S
H819 C864 0.931 . S
H820 C866 0.930 . S
H821 C867 0.929 . S
O822 H796 0.856 . S
O822 C868 1.300 . S
O823 C868 1.209 . S
O824 C869 1.199 . S
O825 H797 0.854 . S
O825 C869 1.297 . S
C826 C827 1.404 . S
C826 C831 1.397 . S
C826 C832 1.492 . S
C827 C826 1.404 . S
C827 C828 1.396 . S
C827 C838 1.492 . S
C828 C827 1.396 . S
C828 C829 1.397 . S
C828 C844 1.509 . S
C829 C828 1.397 . S
C829 C830 1.412 . S
C829 C850 1.485 . S
C830 C829 1.412 . S
C830 C831 1.388 . S
C830 C856 1.490 . S
C831 C826 1.397 . S
C831 C830 1.388 . S
C831 C862 1.519 . S
C832 C826 1.492 . S
C832 C833 1.363 . S
C832 C837 1.390 . S
C833 H798 0.930 . S
C833 C832 1.363 . S
C833 C834 1.372 . S
C834 H799 0.930 . S
C834 C833 1.372 . S
C834 C835 1.383 . S
C835 C834 1.383 . S
C835 C836 1.395 . S
C836 H800 0.930 . S
C836 C835 1.395 . S
C836 C837 1.362 . S
C837 H801 0.930 . S
C837 C832 1.390 . S
C837 C836 1.362 . S
C838 C827 1.492 . S
C838 C839 1.377 . S
C838 C843 1.397 . S
C839 H802 0.931 . S
C839 C838 1.377 . S
C839 C840 1.376 . S
C840 H803 0.930 . S
C840 C839 1.376 . S
C840 C841 1.376 . S
C841 C840 1.376 . S
C841 C842 1.378 . S
C841 C868 1.486 . S
C842 H804 0.930 . S
C842 C841 1.378 . S
C842 C843 1.376 . S
C843 H805 0.929 . S
C843 C838 1.397 . S
C843 C842 1.376 . S
C844 C828 1.509 . S
C844 C845 1.391 . S
C844 C849 1.386 . S
C845 H806 0.930 . S
C845 C844 1.391 . S
C845 C846 1.375 . S
C846 H807 0.931 . S
C846 C845 1.375 . S
C846 C847 1.375 . S
C847 C846 1.375 . S
C847 C848 1.361 . S
C848 H808 0.930 . S
C848 C847 1.361 . S
C848 C849 1.399 . S
C849 H809 0.929 . S
C849 C844 1.386 . S
C849 C848 1.399 . S
C850 C829 1.485 . S
C850 C851 1.394 . S
C850 C855 1.360 . S
C851 H810 0.931 . S
C851 C850 1.394 . S
C851 C852 1.372 . S
C852 H811 0.930 . S
C852 C851 1.372 . S
C852 C853 1.397 . S
C853 C852 1.397 . S
C853 C854 1.390 . S
C853 C869 1.476 . S
C854 H812 0.930 . S
C854 C853 1.390 . S
C854 C855 1.366 . S
C855 H813 0.932 . S
C855 C850 1.360 . S
C855 C854 1.366 . S
C856 C830 1.490 . S
C856 C857 1.380 . S
C856 C861 1.386 . S
C857 H814 0.930 . S
C857 C856 1.380 . S
C857 C858 1.381 . S
C858 H815 0.929 . S
C858 C857 1.381 . S
C858 C859 1.371 . S
C859 C858 1.371 . S
C859 C860 1.380 . S
C860 H816 0.931 . S
C860 C859 1.380 . S
C860 C861 1.387 . S
C861 H817 0.930 . S
C861 C856 1.386 . S
C861 C860 1.387 . S
C862 C831 1.519 . S
C862 C863 1.377 . S
C862 C867 1.361 . S
C863 H818 0.929 . S
C863 C862 1.377 . S
C863 C864 1.386 . S
C864 H819 0.931 . S
C864 C863 1.386 . S
C864 C865 1.363 . S
C865 C864 1.363 . S
C865 C866 1.385 . S
C866 H820 0.930 . S
C866 C865 1.385 . S
C866 C867 1.396 . S
C867 H821 0.929 . S
C867 C862 1.361 . S
C867 C866 1.396 . S
C868 O822 1.300 . S
C868 O823 1.209 . S
C868 C841 1.486 . S
C869 O824 1.199 . S
C869 O825 1.297 . S
C869 C853 1.476 . S
H870 O896 0.856 . S
H871 O899 0.854 . S
H872 C907 0.930 . S
H873 C908 0.930 . S
H874 C910 0.930 . S
H875 C911 0.930 . S
H876 C913 0.931 . S
H877 C914 0.930 . S
H878 C916 0.930 . S
H879 C917 0.929 . S
H880 C919 0.930 . S
H881 C920 0.931 . S
H882 C922 0.930 . S
H883 C923 0.929 . S
H884 C925 0.931 . S
H885 C926 0.930 . S
H886 C928 0.930 . S
H887 C929 0.932 . S
H888 C931 0.930 . S
H889 C932 0.929 . S
H890 C934 0.931 . S
H891 C935 0.930 . S
H892 C937 0.929 . S
H893 C938 0.931 . S
H894 C940 0.930 . S
H895 C941 0.929 . S
O896 H870 0.856 . S
O896 C942 1.300 . S
O897 C942 1.209 . S
O898 C943 1.199 . S
O899 H871 0.854 . S
O899 C943 1.297 . S
C900 C901 1.404 . S
C900 C905 1.397 . S
C900 C906 1.492 . S
C901 C900 1.404 . S
C901 C902 1.396 . S
C901 C912 1.492 . S
C902 C901 1.396 . S
C902 C903 1.397 . S
C902 C918 1.509 . S
C903 C902 1.397 . S
C903 C904 1.412 . S
C903 C924 1.485 . S
C904 C903 1.412 . S
C904 C905 1.388 . S
C904 C930 1.490 . S
C905 C900 1.397 . S
C905 C904 1.388 . S
C905 C936 1.519 . S
C906 C900 1.492 . S
C906 C907 1.363 . S
C906 C911 1.390 . S
C907 H872 0.930 . S
C907 C906 1.363 . S
C907 C908 1.372 . S
C908 H873 0.930 . S
C908 C907 1.372 . S
C908 C909 1.383 . S
C909 C908 1.383 . S
C909 C910 1.395 . S
C910 H874 0.930 . S
C910 C909 1.395 . S
C910 C911 1.362 . S
C911 H875 0.930 . S
C911 C906 1.390 . S
C911 C910 1.362 . S
C912 C901 1.492 . S
C912 C913 1.377 . S
C912 C917 1.397 . S
C913 H876 0.931 . S
C913 C912 1.377 . S
C913 C914 1.376 . S
C914 H877 0.930 . S
C914 C913 1.376 . S
C914 C915 1.376 . S
C915 C914 1.376 . S
C915 C916 1.378 . S
C915 C942 1.486 1_556 S
C916 H878 0.930 . S
C916 C915 1.378 . S
C916 C917 1.376 . S
C917 H879 0.929 . S
C917 C912 1.397 . S
C917 C916 1.376 . S
C918 C902 1.509 . S
C918 C919 1.391 . S
C918 C923 1.386 . S
C919 H880 0.930 . S
C919 C918 1.391 . S
C919 C920 1.375 . S
C920 H881 0.931 . S
C920 C919 1.375 . S
C920 C921 1.375 . S
C921 C920 1.375 . S
C921 C922 1.361 . S
C922 H882 0.930 . S
C922 C921 1.361 . S
C922 C923 1.399 . S
C923 H883 0.929 . S
C923 C918 1.386 . S
C923 C922 1.399 . S
C924 C903 1.485 . S
C924 C925 1.394 . S
C924 C929 1.360 . S
C925 H884 0.931 . S
C925 C924 1.394 . S
C925 C926 1.372 . S
C926 H885 0.930 . S
C926 C925 1.372 . S
C926 C927 1.397 . S
C927 C926 1.397 . S
C927 C928 1.390 . S
C927 C943 1.476 . S
C928 H886 0.930 . S
C928 C927 1.390 . S
C928 C929 1.366 . S
C929 H887 0.932 . S
C929 C924 1.360 . S
C929 C928 1.366 . S
C930 C904 1.490 . S
C930 C931 1.380 . S
C930 C935 1.386 . S
C931 H888 0.930 . S
C931 C930 1.380 . S
C931 C932 1.381 . S
C932 H889 0.929 . S
C932 C931 1.381 . S
C932 C933 1.371 . S
C933 C932 1.371 . S
C933 C934 1.380 . S
C934 H890 0.931 . S
C934 C933 1.380 . S
C934 C935 1.387 . S
C935 H891 0.930 . S
C935 C930 1.386 . S
C935 C934 1.387 . S
C936 C905 1.519 . S
C936 C937 1.377 . S
C936 C941 1.361 . S
C937 H892 0.929 . S
C937 C936 1.377 . S
C937 C938 1.386 . S
C938 H893 0.931 . S
C938 C937 1.386 . S
C938 C939 1.363 . S
C939 C938 1.363 . S
C939 C940 1.385 . S
C940 H894 0.930 . S
C940 C939 1.385 . S
C940 C941 1.396 . S
C941 H895 0.929 . S
C941 C936 1.361 . S
C941 C940 1.396 . S
C942 O896 1.300 . S
C942 O897 1.209 . S
C942 C915 1.486 1_554 S
C943 O898 1.199 . S
C943 O899 1.297 . S
C943 C927 1.476 . S
H944 O970 0.856 . S
H945 O973 0.854 . S
H946 C981 0.930 . S
H947 C982 0.930 . S
H948 C984 0.930 . S
H949 C985 0.930 . S
H950 C987 0.931 . S
H951 C988 0.930 . S
H952 C990 0.930 . S
H953 C991 0.929 . S
H954 C993 0.930 . S
H955 C994 0.931 . S
H956 C996 0.930 . S
H957 C997 0.929 . S
H958 C999 0.931 . S
H959 C1000 0.930 . S
H960 C1002 0.930 . S
H961 C1003 0.932 . S
H962 C1005 0.930 . S
H963 C1006 0.929 . S
H964 C1008 0.931 . S
H965 C1009 0.930 . S
H966 C1011 0.929 . S
H967 C1012 0.931 . S
H968 C1014 0.930 . S
H969 C1015 0.929 . S
O970 H944 0.856 . S
O970 C1016 1.300 . S
O971 C1016 1.209 . S
O972 C1017 1.199 . S
O973 H945 0.854 . S
O973 C1017 1.297 . S
C974 C975 1.404 . S
C974 C979 1.397 . S
C974 C980 1.492 . S
C975 C974 1.404 . S
C975 C976 1.396 . S
C975 C986 1.492 . S
C976 C975 1.396 . S
C976 C977 1.397 . S
C976 C992 1.509 . S
C977 C976 1.397 . S
C977 C978 1.412 . S
C977 C998 1.485 . S
C978 C977 1.412 . S
C978 C979 1.388 . S
C978 C1004 1.490 . S
C979 C974 1.397 . S
C979 C978 1.388 . S
C979 C1010 1.519 . S
C980 C974 1.492 . S
C980 C981 1.363 . S
C980 C985 1.390 . S
C981 H946 0.930 . S
C981 C980 1.363 . S
C981 C982 1.372 . S
C982 H947 0.930 . S
C982 C981 1.372 . S
C982 C983 1.383 . S
C983 C982 1.383 . S
C983 C984 1.395 . S
C984 H948 0.930 . S
C984 C983 1.395 . S
C984 C985 1.362 . S
C985 H949 0.930 . S
C985 C980 1.390 . S
C985 C984 1.362 . S
C986 C975 1.492 . S
C986 C987 1.377 . S
C986 C991 1.397 . S
C987 H950 0.931 . S
C987 C986 1.377 . S
C987 C988 1.376 . S
C988 H951 0.930 . S
C988 C987 1.376 . S
C988 C989 1.376 . S
C989 C988 1.376 . S
C989 C990 1.378 . S
C989 C1016 1.486 1_556 S
C990 H952 0.930 . S
C990 C989 1.378 . S
C990 C991 1.376 . S
C991 H953 0.929 . S
C991 C986 1.397 . S
C991 C990 1.376 . S
C992 C976 1.509 . S
C992 C993 1.391 . S
C992 C997 1.386 . S
C993 H954 0.930 . S
C993 C992 1.391 . S
C993 C994 1.375 . S
C994 H955 0.931 . S
C994 C993 1.375 . S
C994 C995 1.375 . S
C995 C994 1.375 . S
C995 C996 1.361 . S
C996 H956 0.930 . S
C996 C995 1.361 . S
C996 C997 1.399 . S
C997 H957 0.929 . S
C997 C992 1.386 . S
C997 C996 1.399 . S
C998 C977 1.485 . S
C998 C999 1.394 . S
C998 C1003 1.360 . S
C999 H958 0.931 . S
C999 C998 1.394 . S
C999 C1000 1.372 . S
C1000 H959 0.930 . S
C1000 C999 1.372 . S
C1000 C1001 1.397 . S
C1001 C1000 1.397 . S
C1001 C1002 1.390 . S
C1001 C1017 1.476 . S
C1002 H960 0.930 . S
C1002 C1001 1.390 . S
C1002 C1003 1.366 . S
C1003 H961 0.932 . S
C1003 C998 1.360 . S
C1003 C1002 1.366 . S
C1004 C978 1.490 . S
C1004 C1005 1.380 . S
C1004 C1009 1.386 . S
C1005 H962 0.930 . S
C1005 C1004 1.380 . S
C1005 C1006 1.381 . S
C1006 H963 0.929 . S
C1006 C1005 1.381 . S
C1006 C1007 1.371 . S
C1007 C1006 1.371 . S
C1007 C1008 1.380 . S
C1008 H964 0.931 . S
C1008 C1007 1.380 . S
C1008 C1009 1.387 . S
C1009 H965 0.930 . S
C1009 C1004 1.386 . S
C1009 C1008 1.387 . S
C1010 C979 1.519 . S
C1010 C1011 1.377 . S
C1010 C1015 1.361 . S
C1011 H966 0.929 . S
C1011 C1010 1.377 . S
C1011 C1012 1.386 . S
C1012 H967 0.931 . S
C1012 C1011 1.386 . S
C1012 C1013 1.363 . S
C1013 C1012 1.363 . S
C1013 C1014 1.385 . S
C1014 H968 0.930 . S
C1014 C1013 1.385 . S
C1014 C1015 1.396 . S
C1015 H969 0.929 . S
C1015 C1010 1.361 . S
C1015 C1014 1.396 . S
C1016 O970 1.300 . S
C1016 O971 1.209 . S
C1016 C989 1.486 1_554 S
C1017 O972 1.199 . S
C1017 O973 1.297 . S
C1017 C1001 1.476 . S
H1018 O1044 0.856 . S
H1019 O1047 0.854 . S
H1020 C1055 0.930 . S
H1021 C1056 0.930 . S
H1022 C1058 0.930 . S
H1023 C1059 0.930 . S
H1024 C1061 0.931 . S
H1025 C1062 0.894 1_554 S
H1026 C1064 0.930 . S
H1027 C1065 0.929 . S
H1028 C1067 0.930 . S
H1029 C1068 0.931 . S
H1030 C1070 0.930 . S
H1031 C1071 0.929 . S
H1032 C1073 0.931 . S
H1033 C1074 0.930 . S
H1034 C1076 0.930 . S
H1035 C1077 0.932 . S
H1036 C1079 0.930 . S
H1037 C1080 0.929 . S
H1038 C1082 0.931 . S
H1039 C1083 0.930 . S
H1040 C1085 0.929 . S
H1041 C1086 0.931 . S
H1042 C1088 0.930 . S
H1043 C1089 0.929 . S
O1044 H1018 0.856 . S
O1044 C1090 1.300 . S
O1045 C1090 1.209 . S
O1046 C1091 1.199 . S
O1047 H1019 0.854 . S
O1047 C1091 1.297 . S
C1048 C1049 1.404 . S
C1048 C1053 1.397 . S
C1048 C1054 1.492 . S
C1049 C1048 1.404 . S
C1049 C1050 1.396 . S
C1049 C1060 1.492 . S
C1050 C1049 1.396 . S
C1050 C1051 1.397 . S
C1050 C1066 1.509 . S
C1051 C1050 1.397 . S
C1051 C1052 1.412 . S
C1051 C1072 1.485 . S
C1052 C1051 1.412 . S
C1052 C1053 1.388 . S
C1052 C1078 1.490 . S
C1053 C1048 1.397 . S
C1053 C1052 1.388 . S
C1053 C1084 1.519 . S
C1054 C1048 1.492 . S
C1054 C1055 1.363 . S
C1054 C1059 1.390 . S
C1055 H1020 0.930 . S
C1055 C1054 1.363 . S
C1055 C1056 1.372 . S
C1056 H1021 0.930 . S
C1056 C1055 1.372 . S
C1056 C1057 1.383 . S
C1057 C1056 1.383 . S
C1057 C1058 1.395 . S
C1058 H1022 0.930 . S
C1058 C1057 1.395 . S
C1058 C1059 1.362 . S
C1059 H1023 0.930 . S
C1059 C1054 1.390 . S
C1059 C1058 1.362 . S
C1060 C1049 1.492 . S
C1060 C1061 1.377 . S
C1060 C1065 1.397 . S
C1061 H1024 0.931 . S
C1061 C1060 1.377 . S
C1061 C1062 1.376 . S
C1062 H1025 0.894 1_556 S
C1062 C1061 1.376 . S
C1062 C1063 1.376 . S
C1063 C1062 1.376 . S
C1063 C1064 1.378 . S
C1063 C1090 1.486 1_556 S
C1064 H1026 0.930 . S
C1064 C1063 1.378 . S
C1064 C1065 1.376 . S
C1065 H1027 0.929 . S
C1065 C1060 1.397 . S
C1065 C1064 1.376 . S
C1066 C1050 1.509 . S
C1066 C1067 1.391 . S
C1066 C1071 1.386 . S
C1067 H1028 0.930 . S
C1067 C1066 1.391 . S
C1067 C1068 1.375 . S
C1068 H1029 0.931 . S
C1068 C1067 1.375 . S
C1068 C1069 1.375 . S
C1069 C1068 1.375 . S
C1069 C1070 1.361 . S
C1070 H1030 0.930 . S
C1070 C1069 1.361 . S
C1070 C1071 1.399 . S
C1071 H1031 0.929 . S
C1071 C1066 1.386 . S
C1071 C1070 1.399 . S
C1072 C1051 1.485 . S
C1072 C1073 1.394 . S
C1072 C1077 1.360 . S
C1073 H1032 0.931 . S
C1073 C1072 1.394 . S
C1073 C1074 1.372 . S
C1074 H1033 0.930 . S
C1074 C1073 1.372 . S
C1074 C1075 1.397 . S
C1075 C1074 1.397 . S
C1075 C1076 1.390 . S
C1075 C1091 1.476 . S
C1076 H1034 0.930 . S
C1076 C1075 1.390 . S
C1076 C1077 1.366 . S
C1077 H1035 0.932 . S
C1077 C1072 1.360 . S
C1077 C1076 1.366 . S
C1078 C1052 1.490 . S
C1078 C1079 1.380 . S
C1078 C1083 1.386 . S
C1079 H1036 0.930 . S
C1079 C1078 1.380 . S
C1079 C1080 1.381 . S
C1080 H1037 0.929 . S
C1080 C1079 1.381 . S
C1080 C1081 1.371 . S
C1081 C1080 1.371 . S
C1081 C1082 1.380 . S
C1082 H1038 0.931 . S
C1082 C1081 1.380 . S
C1082 C1083 1.387 . S
C1083 H1039 0.930 . S
C1083 C1078 1.386 . S
C1083 C1082 1.387 . S
C1084 C1053 1.519 . S
C1084 C1085 1.377 . S
C1084 C1089 1.361 . S
C1085 H1040 0.929 . S
C1085 C1084 1.377 . S
C1085 C1086 1.386 . S
C1086 H1041 0.931 . S
C1086 C1085 1.386 . S
C1086 C1087 1.363 . S
C1087 C1086 1.363 . S
C1087 C1088 1.385 . S
C1088 H1042 0.930 . S
C1088 C1087 1.385 . S
C1088 C1089 1.396 . S
C1089 H1043 0.929 . S
C1089 C1084 1.361 . S
C1089 C1088 1.396 . S
C1090 O1044 1.300 . S
C1090 O1045 1.209 . S
C1090 C1063 1.486 1_554 S
C1091 O1046 1.199 . S
C1091 O1047 1.297 . S
C1091 C1075 1.476 . S
H1092 O1118 0.856 . S
H1093 O1121 0.854 . S
H1094 C1129 0.930 . S
H1095 C1130 0.930 . S
H1096 C1132 0.930 . S
H1097 C1133 0.930 . S
H1098 C1135 0.931 . S
H1099 C1136 0.930 . S
H1100 C1138 0.930 . S
H1101 C1139 0.929 . S
H1102 C1141 0.930 . S
H1103 C1142 0.931 . S
H1104 C1144 0.930 . S
H1105 C1145 0.929 . S
H1106 C1147 0.931 . S
H1107 C1148 0.930 . S
H1108 C1150 0.930 . S
H1109 C1151 0.932 . S
H1110 C1153 0.930 . S
H1111 C1154 0.929 . S
H1112 C1156 0.931 . S
H1113 C1157 0.930 . S
H1114 C1159 0.929 . S
H1115 C1160 0.931 . S
H1116 C1162 0.930 . S
H1117 C1163 0.929 . S
O1118 H1092 0.856 . S
O1118 C1164 1.300 . S
O1119 C1164 1.209 . S
O1120 C1165 1.199 . S
O1121 H1093 0.854 . S
O1121 C1165 1.297 . S
C1122 C1123 1.404 . S
C1122 C1127 1.397 . S
C1122 C1128 1.492 . S
C1123 C1122 1.404 . S
C1123 C1124 1.396 . S
C1123 C1134 1.492 . S
C1124 C1123 1.396 . S
C1124 C1125 1.397 . S
C1124 C1140 1.509 . S
C1125 C1124 1.397 . S
C1125 C1126 1.412 . S
C1125 C1146 1.485 . S
C1126 C1125 1.412 . S
C1126 C1127 1.388 . S
C1126 C1152 1.490 . S
C1127 C1122 1.397 . S
C1127 C1126 1.388 . S
C1127 C1158 1.519 . S
C1128 C1122 1.492 . S
C1128 C1129 1.363 . S
C1128 C1133 1.390 . S
C1129 H1094 0.930 . S
C1129 C1128 1.363 . S
C1129 C1130 1.372 . S
C1130 H1095 0.930 . S
C1130 C1129 1.372 . S
C1130 C1131 1.383 . S
C1131 C1130 1.383 . S
C1131 C1132 1.395 . S
C1132 H1096 0.930 . S
C1132 C1131 1.395 . S
C1132 C1133 1.362 . S
C1133 H1097 0.930 . S
C1133 C1128 1.390 . S
C1133 C1132 1.362 . S
C1134 C1123 1.492 . S
C1134 C1135 1.377 . S
C1134 C1139 1.397 . S
C1135 H1098 0.931 . S
C1135 C1134 1.377 . S
C1135 C1136 1.376 . S
C1136 H1099 0.930 . S
C1136 C1135 1.376 . S
C1136 C1137 1.376 . S
C1137 C1136 1.376 . S
C1137 C1138 1.378 . S
C1137 C1164 1.486 . S
C1138 H1100 0.930 . S
C1138 C1137 1.378 . S
C1138 C1139 1.376 . S
C1139 H1101 0.929 . S
C1139 C1134 1.397 . S
C1139 C1138 1.376 . S
C1140 C1124 1.509 . S
C1140 C1141 1.391 . S
C1140 C1145 1.386 . S
C1141 H1102 0.930 . S
C1141 C1140 1.391 . S
C1141 C1142 1.375 . S
C1142 H1103 0.931 . S
C1142 C1141 1.375 . S
C1142 C1143 1.375 . S
C1143 C1142 1.375 . S
C1143 C1144 1.361 . S
C1144 H1104 0.930 . S
C1144 C1143 1.361 . S
C1144 C1145 1.399 . S
C1145 H1105 0.929 . S
C1145 C1140 1.386 . S
C1145 C1144 1.399 . S
C1146 C1125 1.485 . S
C1146 C1147 1.394 . S
C1146 C1151 1.360 . S
C1147 H1106 0.931 . S
C1147 C1146 1.394 . S
C1147 C1148 1.372 . S
C1148 H1107 0.930 . S
C1148 C1147 1.372 . S
C1148 C1149 1.397 . S
C1149 C1148 1.397 . S
C1149 C1150 1.390 . S
C1149 C1165 1.476 . S
C1150 H1108 0.930 . S
C1150 C1149 1.390 . S
C1150 C1151 1.366 . S
C1151 H1109 0.932 . S
C1151 C1146 1.360 . S
C1151 C1150 1.366 . S
C1152 C1126 1.490 . S
C1152 C1153 1.380 . S
C1152 C1157 1.386 . S
C1153 H1110 0.930 . S
C1153 C1152 1.380 . S
C1153 C1154 1.381 . S
C1154 H1111 0.929 . S
C1154 C1153 1.381 . S
C1154 C1155 1.371 . S
C1155 C1154 1.371 . S
C1155 C1156 1.380 . S
C1156 H1112 0.931 . S
C1156 C1155 1.380 . S
C1156 C1157 1.387 . S
C1157 H1113 0.930 . S
C1157 C1152 1.386 . S
C1157 C1156 1.387 . S
C1158 C1127 1.519 . S
C1158 C1159 1.377 . S
C1158 C1163 1.361 . S
C1159 H1114 0.929 . S
C1159 C1158 1.377 . S
C1159 C1160 1.386 . S
C1160 H1115 0.931 . S
C1160 C1159 1.386 . S
C1160 C1161 1.363 . S
C1161 C1160 1.363 . S
C1161 C1162 1.385 . S
C1162 H1116 0.930 . S
C1162 C1161 1.385 . S
C1162 C1163 1.396 . S
C1163 H1117 0.929 . S
C1163 C1158 1.361 . S
C1163 C1162 1.396 . S
C1164 O1118 1.300 . S
C1164 O1119 1.209 . S
C1164 C1137 1.486 . S
C1165 O1120 1.199 . S
C1165 O1121 1.297 . S
C1165 C1149 1.476 . S
H1166 O1192 0.856 . S
H1167 O1195 0.854 . S
H1168 C1203 0.930 . S
H1169 C1204 0.930 . S
H1170 C1206 0.930 . S
H1171 C1207 0.930 . S
H1172 C1209 0.931 . S
H1173 C1210 0.930 . S
H1174 C1212 0.930 . S
H1175 C1213 0.929 . S
H1176 C1215 0.930 . S
H1177 C1216 0.931 . S
H1178 C1218 0.930 . S
H1179 C1219 0.929 . S
H1180 C1221 0.931 . S
H1181 C1222 0.930 . S
H1182 C1224 0.930 . S
H1183 C1225 0.932 . S
H1184 C1227 0.930 . S
H1185 C1228 0.929 . S
H1186 C1230 0.931 . S
H1187 C1231 0.930 . S
H1188 C1233 0.929 . S
H1189 C1234 0.931 . S
H1190 C1236 0.930 . S
H1191 C1237 0.929 . S
O1192 H1166 0.856 . S
O1192 C1238 1.300 . S
O1193 C1238 1.209 . S
O1194 C1239 1.199 . S
O1195 H1167 0.854 . S
O1195 C1239 1.297 . S
C1196 C1197 1.404 . S
C1196 C1201 1.397 . S
C1196 C1202 1.492 . S
C1197 C1196 1.404 . S
C1197 C1198 1.396 . S
C1197 C1208 1.492 . S
C1198 C1197 1.396 . S
C1198 C1199 1.397 . S
C1198 C1214 1.509 . S
C1199 C1198 1.397 . S
C1199 C1200 1.412 . S
C1199 C1220 1.485 . S
C1200 C1199 1.412 . S
C1200 C1201 1.388 . S
C1200 C1226 1.490 . S
C1201 C1196 1.397 . S
C1201 C1200 1.388 . S
C1201 C1232 1.519 . S
C1202 C1196 1.492 . S
C1202 C1203 1.363 . S
C1202 C1207 1.390 . S
C1203 H1168 0.930 . S
C1203 C1202 1.363 . S
C1203 C1204 1.372 . S
C1204 H1169 0.930 . S
C1204 C1203 1.372 . S
C1204 C1205 1.383 . S
C1205 C1204 1.383 . S
C1205 C1206 1.395 . S
C1206 H1170 0.930 . S
C1206 C1205 1.395 . S
C1206 C1207 1.362 . S
C1207 H1171 0.930 . S
C1207 C1202 1.390 . S
C1207 C1206 1.362 . S
C1208 C1197 1.492 . S
C1208 C1209 1.377 . S
C1208 C1213 1.397 . S
C1209 H1172 0.931 . S
C1209 C1208 1.377 . S
C1209 C1210 1.376 . S
C1210 H1173 0.930 . S
C1210 C1209 1.376 . S
C1210 C1211 1.376 . S
C1211 C1210 1.376 . S
C1211 C1212 1.378 . S
C1211 C1238 1.486 . S
C1212 H1174 0.930 . S
C1212 C1211 1.378 . S
C1212 C1213 1.376 . S
C1213 H1175 0.929 . S
C1213 C1208 1.397 . S
C1213 C1212 1.376 . S
C1214 C1198 1.509 . S
C1214 C1215 1.391 . S
C1214 C1219 1.386 . S
C1215 H1176 0.930 . S
C1215 C1214 1.391 . S
C1215 C1216 1.375 . S
C1216 H1177 0.931 . S
C1216 C1215 1.375 . S
C1216 C1217 1.375 . S
C1217 C1216 1.375 . S
C1217 C1218 1.361 . S
C1218 H1178 0.930 . S
C1218 C1217 1.361 . S
C1218 C1219 1.399 . S
C1219 H1179 0.929 . S
C1219 C1214 1.386 . S
C1219 C1218 1.399 . S
C1220 C1199 1.485 . S
C1220 C1221 1.394 . S
C1220 C1225 1.360 . S
C1221 H1180 0.931 . S
C1221 C1220 1.394 . S
C1221 C1222 1.372 . S
C1222 H1181 0.930 . S
C1222 C1221 1.372 . S
C1222 C1223 1.397 . S
C1223 C1222 1.397 . S
C1223 C1224 1.390 . S
C1223 C1239 1.476 . S
C1224 H1182 0.930 . S
C1224 C1223 1.390 . S
C1224 C1225 1.366 . S
C1225 H1183 0.932 . S
C1225 C1220 1.360 . S
C1225 C1224 1.366 . S
C1226 C1200 1.490 . S
C1226 C1227 1.380 . S
C1226 C1231 1.386 . S
C1227 H1184 0.930 . S
C1227 C1226 1.380 . S
C1227 C1228 1.381 . S
C1228 H1185 0.929 . S
C1228 C1227 1.381 . S
C1228 C1229 1.371 . S
C1229 C1228 1.371 . S
C1229 C1230 1.380 . S
C1230 H1186 0.931 . S
C1230 C1229 1.380 . S
C1230 C1231 1.387 . S
C1231 H1187 0.930 . S
C1231 C1226 1.386 . S
C1231 C1230 1.387 . S
C1232 C1201 1.519 . S
C1232 C1233 1.377 . S
C1232 C1237 1.361 . S
C1233 H1188 0.929 . S
C1233 C1232 1.377 . S
C1233 C1234 1.386 . S
C1234 H1189 0.931 . S
C1234 C1233 1.386 . S
C1234 C1235 1.363 . S
C1235 C1234 1.363 . S
C1235 C1236 1.385 . S
C1236 H1190 0.930 . S
C1236 C1235 1.385 . S
C1236 C1237 1.396 . S
C1237 H1191 0.929 . S
C1237 C1232 1.361 . S
C1237 C1236 1.396 . S
C1238 O1192 1.300 . S
C1238 O1193 1.209 . S
C1238 C1211 1.486 . S
C1239 O1194 1.199 . S
C1239 O1195 1.297 . S
C1239 C1223 1.476 . S
H1240 O1266 0.856 . S
H1241 O1269 0.854 . S
H1242 C1277 0.930 . S
H1243 C1278 0.930 . S
H1244 C1280 0.930 . S
H1245 C1281 0.930 . S
H1246 C1283 0.931 . S
H1247 C1284 0.930 . S
H1248 C1286 0.930 . S
H1249 C1287 0.929 . S
H1250 C1289 0.930 . S
H1251 C1290 0.931 . S
H1252 C1292 0.930 . S
H1253 C1293 0.929 . S
H1254 C1295 0.931 . S
H1255 C1296 0.930 . S
H1256 C1298 0.930 . S
H1257 C1299 0.932 . S
H1258 C1301 0.930 . S
H1259 C1302 0.929 . S
H1260 C1304 0.931 . S
H1261 C1305 0.930 . S
H1262 C1307 0.929 . S
H1263 C1308 0.931 . S
H1264 C1310 0.930 . S
H1265 C1311 0.929 . S
O1266 H1240 0.856 . S
O1266 C1312 1.300 . S
O1267 C1312 1.209 . S
O1268 C1313 1.199 . S
O1269 H1241 0.854 . S
O1269 C1313 1.297 . S
C1270 C1271 1.404 . S
C1270 C1275 1.397 . S
C1270 C1276 1.492 . S
C1271 C1270 1.404 . S
C1271 C1272 1.396 . S
C1271 C1282 1.492 . S
C1272 C1271 1.396 . S
C1272 C1273 1.397 . S
C1272 C1288 1.509 . S
C1273 C1272 1.397 . S
C1273 C1274 1.412 . S
C1273 C1294 1.485 . S
C1274 C1273 1.412 . S
C1274 C1275 1.388 . S
C1274 C1300 1.490 . S
C1275 C1270 1.397 . S
C1275 C1274 1.388 . S
C1275 C1306 1.519 . S
C1276 C1270 1.492 . S
C1276 C1277 1.363 . S
C1276 C1281 1.390 . S
C1277 H1242 0.930 . S
C1277 C1276 1.363 . S
C1277 C1278 1.372 . S
C1278 H1243 0.930 . S
C1278 C1277 1.372 . S
C1278 C1279 1.383 . S
C1279 C1278 1.383 . S
C1279 C1280 1.395 . S
C1280 H1244 0.930 . S
C1280 C1279 1.395 . S
C1280 C1281 1.362 . S
C1281 H1245 0.930 . S
C1281 C1276 1.390 . S
C1281 C1280 1.362 . S
C1282 C1271 1.492 . S
C1282 C1283 1.377 . S
C1282 C1287 1.397 . S
C1283 H1246 0.931 . S
C1283 C1282 1.377 . S
C1283 C1284 1.376 . S
C1284 H1247 0.930 . S
C1284 C1283 1.376 . S
C1284 C1285 1.376 . S
C1285 C1284 1.376 . S
C1285 C1286 1.378 . S
C1285 C1312 1.486 . S
C1286 H1248 0.930 . S
C1286 C1285 1.378 . S
C1286 C1287 1.376 . S
C1287 H1249 0.929 . S
C1287 C1282 1.397 . S
C1287 C1286 1.376 . S
C1288 C1272 1.509 . S
C1288 C1289 1.391 . S
C1288 C1293 1.386 . S
C1289 H1250 0.930 . S
C1289 C1288 1.391 . S
C1289 C1290 1.375 . S
C1290 H1251 0.931 . S
C1290 C1289 1.375 . S
C1290 C1291 1.375 . S
C1291 C1290 1.375 . S
C1291 C1292 1.361 . S
C1292 H1252 0.930 . S
C1292 C1291 1.361 . S
C1292 C1293 1.399 . S
C1293 H1253 0.929 . S
C1293 C1288 1.386 . S
C1293 C1292 1.399 . S
C1294 C1273 1.485 . S
C1294 C1295 1.394 . S
C1294 C1299 1.360 . S
C1295 H1254 0.931 . S
C1295 C1294 1.394 . S
C1295 C1296 1.372 . S
C1296 H1255 0.930 . S
C1296 C1295 1.372 . S
C1296 C1297 1.397 . S
C1297 C1296 1.397 . S
C1297 C1298 1.390 . S
C1297 C1313 1.476 . S
C1298 H1256 0.930 . S
C1298 C1297 1.390 . S
C1298 C1299 1.366 . S
C1299 H1257 0.932 . S
C1299 C1294 1.360 . S
C1299 C1298 1.366 . S
C1300 C1274 1.490 . S
C1300 C1301 1.380 . S
C1300 C1305 1.386 . S
C1301 H1258 0.930 . S
C1301 C1300 1.380 . S
C1301 C1302 1.381 . S
C1302 H1259 0.929 . S
C1302 C1301 1.381 . S
C1302 C1303 1.371 . S
C1303 C1302 1.371 . S
C1303 C1304 1.380 . S
C1304 H1260 0.931 . S
C1304 C1303 1.380 . S
C1304 C1305 1.387 . S
C1305 H1261 0.930 . S
C1305 C1300 1.386 . S
C1305 C1304 1.387 . S
C1306 C1275 1.519 . S
C1306 C1307 1.377 . S
C1306 C1311 1.361 . S
C1307 H1262 0.929 . S
C1307 C1306 1.377 . S
C1307 C1308 1.386 . S
C1308 H1263 0.931 . S
C1308 C1307 1.386 . S
C1308 C1309 1.363 . S
C1309 C1308 1.363 . S
C1309 C1310 1.385 . S
C1310 H1264 0.930 . S
C1310 C1309 1.385 . S
C1310 C1311 1.396 . S
C1311 H1265 0.929 . S
C1311 C1306 1.361 . S
C1311 C1310 1.396 . S
C1312 O1266 1.300 . S
C1312 O1267 1.209 . S
C1312 C1285 1.486 . S
C1313 O1268 1.199 . S
C1313 O1269 1.297 . S
C1313 C1297 1.476 . S
H1314 O1340 0.856 . S
H1315 O1343 0.854 . S
H1316 C1351 0.930 . S
H1317 C1352 0.930 . S
H1318 C1354 0.930 . S
H1319 C1355 0.930 . S
H1320 C1357 0.931 . S
H1321 C1358 0.905 1_655 S
H1322 C1360 0.930 . S
H1323 C1361 0.929 . S
H1324 C1363 0.930 . S
H1325 C1364 0.928 . S
H1326 C1366 0.930 . S
H1327 C1367 0.929 . S
H1328 C1369 0.931 . S
H1329 C1370 0.930 . S
H1330 C1372 0.930 . S
H1331 C1373 0.932 . S
H1332 C1375 0.930 . S
H1333 C1376 0.929 . S
H1334 C1378 0.931 . S
H1335 C1379 0.930 . S
H1336 C1381 0.929 . S
H1337 C1382 0.931 . S
H1338 C1384 0.930 . S
H1339 C1385 0.929 . S
O1340 H1314 0.856 . S
O1340 C1386 1.300 . S
O1341 C1386 1.209 . S
O1342 C1387 1.199 1_655 S
O1343 H1315 0.854 . S
O1343 C1387 1.297 . S
C1344 C1345 1.404 . S
C1344 C1349 1.394 . S
C1344 C1350 1.492 . S
C1345 C1344 1.404 . S
C1345 C1346 1.396 . S
C1345 C1356 1.492 . S
C1346 C1345 1.396 . S
C1346 C1347 1.397 . S
C1346 C1362 1.509 . S
C1347 C1346 1.397 . S
C1347 C1348 1.420 . S
C1347 C1368 1.485 . S
C1348 C1347 1.420 . S
C1348 C1349 1.406 . S
C1348 C1374 1.491 1_455 S
C1349 C1344 1.394 . S
C1349 C1348 1.406 . S
C1349 C1380 1.495 1_455 S
C1350 C1344 1.492 . S
C1350 C1351 1.363 1_455 S
C1350 C1355 1.390 . S
C1351 H1316 0.930 . S
C1351 C1350 1.363 1_655 S
C1351 C1352 1.372 . S
C1352 H1317 0.930 . S
C1352 C1351 1.372 . S
C1352 C1353 1.383 . S
C1353 C1352 1.383 . S
C1353 C1354 1.395 1_655 S
C1354 H1318 0.930 . S
C1354 C1353 1.395 1_455 S
C1354 C1355 1.362 . S
C1355 H1319 0.930 . S
C1355 C1350 1.390 . S
C1355 C1354 1.362 . S
C1356 C1345 1.492 . S
C1356 C1357 1.377 1_455 S
C1356 C1361 1.397 . S
C1357 H1320 0.931 . S
C1357 C1356 1.377 1_655 S
C1357 C1358 1.381 1_655 S
C1358 H1321 0.905 1_455 S
C1358 C1357 1.381 1_455 S
C1358 C1359 1.399 . S
C1359 C1358 1.399 . S
C1359 C1360 1.378 . S
C1359 C1386 1.486 . S
C1360 H1322 0.930 . S
C1360 C1359 1.378 . S
C1360 C1361 1.376 . S
C1361 H1323 0.929 . S
C1361 C1356 1.397 . S
C1361 C1360 1.376 . S
C1362 C1346 1.509 . S
C1362 C1363 1.391 1_455 S
C1362 C1367 1.386 . S
C1363 H1324 0.930 . S
C1363 C1362 1.391 1_655 S
C1363 C1364 1.372 . S
C1364 H1325 0.928 . S
C1364 C1363 1.372 . S
C1364 C1365 1.380 1_655 S
C1365 C1364 1.380 1_455 S
C1365 C1366 1.361 . S
C1366 H1326 0.930 . S
C1366 C1365 1.361 . S
C1366 C1367 1.399 . S
C1367 H1327 0.929 . S
C1367 C1362 1.386 . S
C1367 C1366 1.399 . S
C1368 C1347 1.485 . S
C1368 C1369 1.394 1_455 S
C1368 C1373 1.360 . S
C1369 H1328 0.931 . S
C1369 C1368 1.394 1_655 S
C1369 C1370 1.372 . S
C1370 H1329 0.930 . S
C1370 C1369 1.372 . S
C1370 C1371 1.397 1_655 S
C1371 C1370 1.397 1_455 S
C1371 C1372 1.390 . S
C1371 C1387 1.476 . S
C1372 H1330 0.930 . S
C1372 C1371 1.390 . S
C1372 C1373 1.366 . S
C1373 H1331 0.932 . S
C1373 C1368 1.360 . S
C1373 C1372 1.366 . S
C1374 C1348 1.491 1_655 S
C1374 C1375 1.380 . S
C1374 C1379 1.386 1_655 S
C1375 H1332 0.930 . S
C1375 C1374 1.380 . S
C1375 C1376 1.381 . S
C1376 H1333 0.929 . S
C1376 C1375 1.381 . S
C1376 C1377 1.371 . S
C1377 C1376 1.371 . S
C1377 C1378 1.380 1_655 S
C1378 H1334 0.931 . S
C1378 C1377 1.380 1_455 S
C1378 C1379 1.387 . S
C1379 H1335 0.930 . S
C1379 C1374 1.386 1_455 S
C1379 C1378 1.387 . S
C1380 C1349 1.495 1_655 S
C1380 C1381 1.396 . S
C1380 C1385 1.348 1_655 S
C1381 H1336 0.929 . S
C1381 C1380 1.396 . S
C1381 C1382 1.386 . S
C1382 H1337 0.931 . S
C1382 C1381 1.386 . S
C1382 C1383 1.365 1_655 S
C1383 C1382 1.365 1_455 S
C1383 C1384 1.382 . S
C1384 H1338 0.930 . S
C1384 C1383 1.382 . S
C1384 C1385 1.396 . S
C1385 H1339 0.929 . S
C1385 C1380 1.348 1_455 S
C1385 C1384 1.396 . S
C1386 O1340 1.300 . S
C1386 O1341 1.209 . S
C1386 C1359 1.486 . S
C1387 O1342 1.199 1_455 S
C1387 O1343 1.297 . S
C1387 C1371 1.476 . S
H1388 O1414 0.856 . S
H1389 O1417 0.854 . S
H1390 C1425 0.930 . S
H1391 C1426 0.930 . S
H1392 C1428 0.930 . S
H1393 C1429 0.930 . S
H1394 C1431 0.931 . S
H1395 C1432 0.930 . S
H1396 C1434 0.930 . S
H1397 C1435 0.929 . S
H1398 C1437 0.930 . S
H1399 C1438 0.931 . S
H1400 C1440 0.930 . S
H1401 C1441 0.929 . S
H1402 C1443 0.931 . S
H1403 C1444 0.930 . S
H1404 C1446 0.930 . S
H1405 C1447 0.932 . S
H1406 C1449 0.930 . S
H1407 C1450 0.929 . S
H1408 C1452 0.931 . S
H1409 C1453 0.930 . S
H1410 C1455 0.929 . S
H1411 C1456 0.931 . S
H1412 C1458 0.930 . S
H1413 C1459 0.929 . S
O1414 H1388 0.856 . S
O1414 C1460 1.300 . S
O1415 C1460 1.209 . S
O1416 C1461 1.199 . S
O1417 H1389 0.854 . S
O1417 C1461 1.297 . S
C1418 C1419 1.404 . S
C1418 C1423 1.397 . S
C1418 C1424 1.492 . S
C1419 C1418 1.404 . S
C1419 C1420 1.396 . S
C1419 C1430 1.492 . S
C1420 C1419 1.396 . S
C1420 C1421 1.397 . S
C1420 C1436 1.509 . S
C1421 C1420 1.397 . S
C1421 C1422 1.412 . S
C1421 C1442 1.485 . S
C1422 C1421 1.412 . S
C1422 C1423 1.388 . S
C1422 C1448 1.490 . S
C1423 C1418 1.397 . S
C1423 C1422 1.388 . S
C1423 C1454 1.519 . S
C1424 C1418 1.492 . S
C1424 C1425 1.363 . S
C1424 C1429 1.390 . S
C1425 H1390 0.930 . S
C1425 C1424 1.363 . S
C1425 C1426 1.372 . S
C1426 H1391 0.930 . S
C1426 C1425 1.372 . S
C1426 C1427 1.383 . S
C1427 C1426 1.383 . S
C1427 C1428 1.395 . S
C1428 H1392 0.930 . S
C1428 C1427 1.395 . S
C1428 C1429 1.362 . S
C1429 H1393 0.930 . S
C1429 C1424 1.390 . S
C1429 C1428 1.362 . S
C1430 C1419 1.492 . S
C1430 C1431 1.377 . S
C1430 C1435 1.397 . S
C1431 H1394 0.931 . S
C1431 C1430 1.377 . S
C1431 C1432 1.376 . S
C1432 H1395 0.930 . S
C1432 C1431 1.376 . S
C1432 C1433 1.376 . S
C1433 C1432 1.376 . S
C1433 C1434 1.378 . S
C1433 C1460 1.486 . S
C1434 H1396 0.930 . S
C1434 C1433 1.378 . S
C1434 C1435 1.376 . S
C1435 H1397 0.929 . S
C1435 C1430 1.397 . S
C1435 C1434 1.376 . S
C1436 C1420 1.509 . S
C1436 C1437 1.391 . S
C1436 C1441 1.386 . S
C1437 H1398 0.930 . S
C1437 C1436 1.391 . S
C1437 C1438 1.375 . S
C1438 H1399 0.931 . S
C1438 C1437 1.375 . S
C1438 C1439 1.375 . S
C1439 C1438 1.375 . S
C1439 C1440 1.361 . S
C1440 H1400 0.930 . S
C1440 C1439 1.361 . S
C1440 C1441 1.399 . S
C1441 H1401 0.929 . S
C1441 C1436 1.386 . S
C1441 C1440 1.399 . S
C1442 C1421 1.485 . S
C1442 C1443 1.394 . S
C1442 C1447 1.360 . S
C1443 H1402 0.931 . S
C1443 C1442 1.394 . S
C1443 C1444 1.372 . S
C1444 H1403 0.930 . S
C1444 C1443 1.372 . S
C1444 C1445 1.397 . S
C1445 C1444 1.397 . S
C1445 C1446 1.390 . S
C1445 C1461 1.476 . S
C1446 H1404 0.930 . S
C1446 C1445 1.390 . S
C1446 C1447 1.366 . S
C1447 H1405 0.932 . S
C1447 C1442 1.360 . S
C1447 C1446 1.366 . S
C1448 C1422 1.490 . S
C1448 C1449 1.380 . S
C1448 C1453 1.386 . S
C1449 H1406 0.930 . S
C1449 C1448 1.380 . S
C1449 C1450 1.381 . S
C1450 H1407 0.929 . S
C1450 C1449 1.381 . S
C1450 C1451 1.371 . S
C1451 C1450 1.371 . S
C1451 C1452 1.380 . S
C1452 H1408 0.931 . S
C1452 C1451 1.380 . S
C1452 C1453 1.387 . S
C1453 H1409 0.930 . S
C1453 C1448 1.386 . S
C1453 C1452 1.387 . S
C1454 C1423 1.519 . S
C1454 C1455 1.377 . S
C1454 C1459 1.361 . S
C1455 H1410 0.929 . S
C1455 C1454 1.377 . S
C1455 C1456 1.386 . S
C1456 H1411 0.931 . S
C1456 C1455 1.386 . S
C1456 C1457 1.363 . S
C1457 C1456 1.363 . S
C1457 C1458 1.385 . S
C1458 H1412 0.930 . S
C1458 C1457 1.385 . S
C1458 C1459 1.396 . S
C1459 H1413 0.929 . S
C1459 C1454 1.361 . S
C1459 C1458 1.396 . S
C1460 O1414 1.300 . S
C1460 O1415 1.209 . S
C1460 C1433 1.486 . S
C1461 O1416 1.199 . S
C1461 O1417 1.297 . S
C1461 C1445 1.476 . S
H1462 O1488 0.856 . S
H1463 O1491 0.854 . S
H1464 C1499 0.930 . S
H1465 C1500 0.930 . S
H1466 C1502 0.930 . S
H1467 C1503 0.930 . S
H1468 C1505 0.931 . S
H1469 C1506 0.945 . S
H1470 C1508 0.930 . S
H1471 C1509 0.929 . S
H1472 C1511 0.930 . S
H1473 C1512 0.989 . S
H1474 C1514 0.930 . S
H1475 C1515 0.929 . S
H1476 C1517 0.931 . S
H1477 C1518 0.930 . S
H1478 C1520 0.930 . S
H1479 C1521 0.932 . S
H1480 C1523 0.930 . S
H1481 C1524 0.929 . S
H1482 C1526 0.931 . S
H1483 C1527 0.930 . S
H1484 C1529 0.929 . S
H1485 C1530 0.931 . S
H1486 C1532 0.930 . S
H1487 C1533 0.929 . S
O1488 H1462 0.856 . S
O1488 C1534 1.300 . S
O1489 C1534 1.209 . S
O1490 C1535 1.199 1_545 S
O1491 H1463 0.854 . S
O1491 C1535 1.297 . S
C1492 C1493 1.404 . S
C1492 C1497 1.413 . S
C1492 C1498 1.492 . S
C1493 C1492 1.404 . S
C1493 C1494 1.396 . S
C1493 C1504 1.492 . S
C1494 C1493 1.396 . S
C1494 C1495 1.397 . S
C1494 C1510 1.509 . S
C1495 C1494 1.397 . S
C1495 C1496 1.409 . S
C1495 C1516 1.485 . S
C1496 C1495 1.409 . S
C1496 C1497 1.373 . S
C1496 C1522 1.484 1_565 S
C1497 C1492 1.413 . S
C1497 C1496 1.373 . S
C1497 C1528 1.535 1_565 S
C1498 C1492 1.492 . S
C1498 C1499 1.363 1_565 S
C1498 C1503 1.390 . S
C1499 H1464 0.930 . S
C1499 C1498 1.363 1_545 S
C1499 C1500 1.372 . S
C1500 H1465 0.930 . S
C1500 C1499 1.372 . S
C1500 C1501 1.383 . S
C1501 C1500 1.383 . S
C1501 C1502 1.395 1_545 S
C1502 H1466 0.930 . S
C1502 C1501 1.395 1_565 S
C1502 C1503 1.362 . S
C1503 H1467 0.930 . S
C1503 C1498 1.390 . S
C1503 C1502 1.362 . S
C1504 C1493 1.492 . S
C1504 C1505 1.377 1_565 S
C1504 C1509 1.397 . S
C1505 H1468 0.931 . S
C1505 C1504 1.377 1_545 S
C1505 C1506 1.383 . S
C1506 H1469 0.945 . S
C1506 C1505 1.383 . S
C1506 C1507 1.354 1_545 S
C1507 C1506 1.354 1_565 S
C1507 C1508 1.378 . S
C1507 C1534 1.486 . S
C1508 H1470 0.930 . S
C1508 C1507 1.378 . S
C1508 C1509 1.376 . S
C1509 H1471 0.929 . S
C1509 C1504 1.397 . S
C1509 C1508 1.376 . S
C1510 C1494 1.509 . S
C1510 C1511 1.391 1_565 S
C1510 C1515 1.386 . S
C1511 H1472 0.930 . S
C1511 C1510 1.391 1_545 S
C1511 C1512 1.367 . S
C1512 H1473 0.989 . S
C1512 C1511 1.367 . S
C1512 C1513 1.329 1_545 S
C1513 C1512 1.329 1_565 S
C1513 C1514 1.361 . S
C1514 H1474 0.930 . S
C1514 C1513 1.361 . S
C1514 C1515 1.399 . S
C1515 H1475 0.929 . S
C1515 C1510 1.386 . S
C1515 C1514 1.399 . S
C1516 C1495 1.485 . S
C1516 C1517 1.394 1_565 S
C1516 C1521 1.360 . S
C1517 H1476 0.931 . S
C1517 C1516 1.394 1_545 S
C1517 C1518 1.372 . S
C1518 H1477 0.930 . S
C1518 C1517 1.372 . S
C1518 C1519 1.397 1_545 S
C1519 C1518 1.397 1_565 S
C1519 C1520 1.390 . S
C1519 C1535 1.476 . S
C1520 H1478 0.930 . S
C1520 C1519 1.390 . S
C1520 C1521 1.366 . S
C1521 H1479 0.932 . S
C1521 C1516 1.360 . S
C1521 C1520 1.366 . S
C1522 C1496 1.484 1_545 S
C1522 C1523 1.380 . S
C1522 C1527 1.386 1_545 S
C1523 H1480 0.930 . S
C1523 C1522 1.380 . S
C1523 C1524 1.381 . S
C1524 H1481 0.929 . S
C1524 C1523 1.381 . S
C1524 C1525 1.371 . S
C1525 C1524 1.371 . S
C1525 C1526 1.380 1_545 S
C1526 H1482 0.931 . S
C1526 C1525 1.380 1_565 S
C1526 C1527 1.387 . S
C1527 H1483 0.930 . S
C1527 C1522 1.386 1_565 S
C1527 C1526 1.387 . S
C1528 C1497 1.535 1_545 S
C1528 C1529 1.379 . S
C1528 C1533 1.357 1_545 S
C1529 H1484 0.929 . S
C1529 C1528 1.379 . S
C1529 C1530 1.386 . S
C1530 H1485 0.931 . S
C1530 C1529 1.386 . S
C1530 C1531 1.334 1_545 S
C1531 C1530 1.334 1_565 S
C1531 C1532 1.401 . S
C1532 H1486 0.930 . S
C1532 C1531 1.401 . S
C1532 C1533 1.396 . S
C1533 H1487 0.929 . S
C1533 C1528 1.357 1_565 S
C1533 C1532 1.396 . S
C1534 O1488 1.300 . S
C1534 O1489 1.209 . S
C1534 C1507 1.486 . S
C1535 O1490 1.199 1_565 S
C1535 O1491 1.297 . S
C1535 C1519 1.476 . S
H1536 O1562 0.856 . S
H1537 O1565 0.854 . S
H1538 C1573 0.930 . S
H1539 C1574 0.930 . S
H1540 C1576 0.930 . S
H1541 C1577 0.930 . S
H1542 C1579 0.931 . S
H1543 C1580 0.930 . S
H1544 C1582 0.930 . S
H1545 C1583 0.929 . S
H1546 C1585 0.930 . S
H1547 C1586 0.931 . S
H1548 C1588 0.930 . S
H1549 C1589 0.929 . S
H1550 C1591 0.931 . S
H1551 C1592 0.930 . S
H1552 C1594 0.930 . S
H1553 C1595 0.932 . S
H1554 C1597 0.930 . S
H1555 C1598 0.929 . S
H1556 C1600 0.931 . S
H1557 C1601 0.930 . S
H1558 C1603 0.929 . S
H1559 C1604 0.931 . S
H1560 C1606 0.930 . S
H1561 C1607 0.929 . S
O1562 H1536 0.856 . S
O1562 C1608 1.300 . S
O1563 C1608 1.209 1_565 S
O1564 C1609 1.199 1_545 S
O1565 H1537 0.854 . S
O1565 C1609 1.297 . S
C1566 C1567 1.404 . S
C1566 C1571 1.397 1_545 S
C1566 C1572 1.492 . S
C1567 C1566 1.404 . S
C1567 C1568 1.432 . S
C1567 C1578 1.492 . S
C1568 C1567 1.432 . S
C1568 C1569 1.382 1_545 S
C1568 C1584 1.505 . S
C1569 C1568 1.382 1_565 S
C1569 C1570 1.417 . S
C1569 C1590 1.489 . S
C1570 C1569 1.417 . S
C1570 C1571 1.375 . S
C1570 C1596 1.491 . S
C1571 C1566 1.397 1_565 S
C1571 C1570 1.375 . S
C1571 C1602 1.519 . S
C1572 C1566 1.492 . S
C1572 C1573 1.363 . S
C1572 C1577 1.390 1_545 S
C1573 H1538 0.930 . S
C1573 C1572 1.363 . S
C1573 C1574 1.372 . S
C1574 H1539 0.930 . S
C1574 C1573 1.372 . S
C1574 C1575 1.383 . S
C1575 C1574 1.383 . S
C1575 C1576 1.395 1_545 S
C1576 H1540 0.930 . S
C1576 C1575 1.395 1_565 S
C1576 C1577 1.362 . S
C1577 H1541 0.930 . S
C1577 C1572 1.390 1_565 S
C1577 C1576 1.362 . S
C1578 C1567 1.492 . S
C1578 C1579 1.377 . S
C1578 C1583 1.397 1_545 S
C1579 H1542 0.931 . S
C1579 C1578 1.377 . S
C1579 C1580 1.376 . S
C1580 H1543 0.930 . S
C1580 C1579 1.376 . S
C1580 C1581 1.376 . S
C1581 C1580 1.376 . S
C1581 C1582 1.378 1_545 S
C1581 C1608 1.486 . S
C1582 H1544 0.930 . S
C1582 C1581 1.378 1_565 S
C1582 C1583 1.376 . S
C1583 H1545 0.929 . S
C1583 C1578 1.397 1_565 S
C1583 C1582 1.376 . S
C1584 C1568 1.505 . S
C1584 C1585 1.415 . S
C1584 C1589 1.346 1_545 S
C1585 H1546 0.930 . S
C1585 C1584 1.415 . S
C1585 C1586 1.375 . S
C1586 H1547 0.931 . S
C1586 C1585 1.375 . S
C1586 C1587 1.395 . S
C1587 C1586 1.395 . S
C1587 C1588 1.350 1_545 S
C1588 H1548 0.930 . S
C1588 C1587 1.350 1_565 S
C1588 C1589 1.399 . S
C1589 H1549 0.929 . S
C1589 C1584 1.346 1_565 S
C1589 C1588 1.399 . S
C1590 C1569 1.489 . S
C1590 C1591 1.394 1_565 S
C1590 C1595 1.360 . S
C1591 H1550 0.931 . S
C1591 C1590 1.394 1_545 S
C1591 C1592 1.372 . S
C1592 H1551 0.930 . S
C1592 C1591 1.372 . S
C1592 C1593 1.397 1_545 S
C1593 C1592 1.397 1_565 S
C1593 C1594 1.390 . S
C1593 C1609 1.476 . S
C1594 H1552 0.930 . S
C1594 C1593 1.390 . S
C1594 C1595 1.366 . S
C1595 H1553 0.932 . S
C1595 C1590 1.360 . S
C1595 C1594 1.366 . S
C1596 C1570 1.491 . S
C1596 C1597 1.362 1_565 S
C1596 C1601 1.408 . S
C1597 H1554 0.930 . S
C1597 C1596 1.362 1_545 S
C1597 C1598 1.381 . S
C1598 H1555 0.929 . S
C1598 C1597 1.381 . S
C1598 C1599 1.434 . S
C1599 C1598 1.434 . S
C1599 C1600 1.328 1_545 S
C1600 H1556 0.931 . S
C1600 C1599 1.328 1_565 S
C1600 C1601 1.387 . S
C1601 H1557 0.930 . S
C1601 C1596 1.408 . S
C1601 C1600 1.387 . S
C1602 C1571 1.519 . S
C1602 C1603 1.377 1_565 S
C1602 C1607 1.361 . S
C1603 H1558 0.929 . S
C1603 C1602 1.377 1_545 S
C1603 C1604 1.386 . S
C1604 H1559 0.931 . S
C1604 C1603 1.386 . S
C1604 C1605 1.363 1_545 S
C1605 C1604 1.363 1_565 S
C1605 C1606 1.385 . S
C1606 H1560 0.930 . S
C1606 C1605 1.385 . S
C1606 C1607 1.396 . S
C1607 H1561 0.929 . S
C1607 C1602 1.361 . S
C1607 C1606 1.396 . S
C1608 O1562 1.300 . S
C1608 O1563 1.209 1_545 S
C1608 C1581 1.486 . S
C1609 O1564 1.199 1_565 S
C1609 O1565 1.297 . S
C1609 C1593 1.476 . S
H1610 O1636 0.856 . S
H1611 O1639 0.854 . S
H1612 C1647 0.930 . S
H1613 C1648 0.930 . S
H1614 C1650 0.930 . S
H1615 C1651 0.930 . S
H1616 C1653 0.931 . S
H1617 C1654 0.930 . S
H1618 C1656 0.930 . S
H1619 C1657 0.929 . S
H1620 C1659 0.930 . S
H1621 C1660 0.931 . S
H1622 C1662 0.930 . S
H1623 C1663 0.929 . S
H1624 C1665 0.931 . S
H1625 C1666 0.930 . S
H1626 C1668 0.930 . S
H1627 C1669 0.932 . S
H1628 C1671 0.930 . S
H1629 C1672 0.929 . S
H1630 C1674 0.931 . S
H1631 C1675 0.930 . S
H1632 C1677 0.929 . S
H1633 C1678 0.931 . S
H1634 C1680 0.930 . S
H1635 C1681 0.929 . S
O1636 H1610 0.856 . S
O1636 C1682 1.300 . S
O1637 C1682 1.209 1_455 S
O1638 C1683 1.199 1_655 S
O1639 H1611 0.854 . S
O1639 C1683 1.297 . S
C1640 C1641 1.404 . S
C1640 C1645 1.396 1_655 S
C1640 C1646 1.492 . S
C1641 C1640 1.404 . S
C1641 C1642 1.396 . S
C1641 C1652 1.492 . S
C1642 C1641 1.396 . S
C1642 C1643 1.397 1_655 S
C1642 C1658 1.509 . S
C1643 C1642 1.397 1_455 S
C1643 C1644 1.394 . S
C1643 C1664 1.487 . S
C1644 C1643 1.394 . S
C1644 C1645 1.417 . S
C1644 C1670 1.484 . S
C1645 C1640 1.396 1_455 S
C1645 C1644 1.417 . S
C1645 C1676 1.516 . S
C1646 C1640 1.492 . S
C1646 C1647 1.363 . S
C1646 C1651 1.390 1_655 S
C1647 H1612 0.930 . S
C1647 C1646 1.363 . S
C1647 C1648 1.372 . S
C1648 H1613 0.930 . S
C1648 C1647 1.372 . S
C1648 C1649 1.383 . S
C1649 C1648 1.383 . S
C1649 C1650 1.395 1_655 S
C1650 H1614 0.930 . S
C1650 C1649 1.395 1_455 S
C1650 C1651 1.362 . S
C1651 H1615 0.930 . S
C1651 C1646 1.390 1_455 S
C1651 C1650 1.362 . S
C1652 C1641 1.492 . S
C1652 C1653 1.377 . S
C1652 C1657 1.397 1_655 S
C1653 H1616 0.931 . S
C1653 C1652 1.377 . S
C1653 C1654 1.376 . S
C1654 H1617 0.930 . S
C1654 C1653 1.376 . S
C1654 C1655 1.376 . S
C1655 C1654 1.376 . S
C1655 C1656 1.378 1_655 S
C1655 C1682 1.486 . S
C1656 H1618 0.930 . S
C1656 C1655 1.378 1_455 S
C1656 C1657 1.376 . S
C1657 H1619 0.929 . S
C1657 C1652 1.397 1_455 S
C1657 C1656 1.376 . S
C1658 C1642 1.509 . S
C1658 C1659 1.391 . S
C1658 C1663 1.386 1_655 S
C1659 H1620 0.930 . S
C1659 C1658 1.391 . S
C1659 C1660 1.375 . S
C1660 H1621 0.931 . S
C1660 C1659 1.375 . S
C1660 C1661 1.375 . S
C1661 C1660 1.375 . S
C1661 C1662 1.361 1_655 S
C1662 H1622 0.930 . S
C1662 C1661 1.361 1_455 S
C1662 C1663 1.399 . S
C1663 H1623 0.929 . S
C1663 C1658 1.386 1_455 S
C1663 C1662 1.399 . S
C1664 C1643 1.487 . S
C1664 C1665 1.394 1_455 S
C1664 C1669 1.360 . S
C1665 H1624 0.931 . S
C1665 C1664 1.394 1_655 S
C1665 C1666 1.372 . S
C1666 H1625 0.930 . S
C1666 C1665 1.372 . S
C1666 C1667 1.397 1_655 S
C1667 C1666 1.397 1_455 S
C1667 C1668 1.390 . S
C1667 C1683 1.476 . S
C1668 H1626 0.930 . S
C1668 C1667 1.390 . S
C1668 C1669 1.366 . S
C1669 H1627 0.932 . S
C1669 C1664 1.360 . S
C1669 C1668 1.366 . S
C1670 C1644 1.484 . S
C1670 C1671 1.380 1_455 S
C1670 C1675 1.386 . S
C1671 H1628 0.930 . S
C1671 C1670 1.380 1_655 S
C1671 C1672 1.381 . S
C1672 H1629 0.929 . S
C1672 C1671 1.381 . S
C1672 C1673 1.371 1_655 S
C1673 C1672 1.371 1_455 S
C1673 C1674 1.380 . S
C1674 H1630 0.931 . S
C1674 C1673 1.380 . S
C1674 C1675 1.387 . S
C1675 H1631 0.930 . S
C1675 C1670 1.386 . S
C1675 C1674 1.387 . S
C1676 C1645 1.516 . S
C1676 C1677 1.377 1_455 S
C1676 C1681 1.361 . S
C1677 H1632 0.929 . S
C1677 C1676 1.377 1_655 S
C1677 C1678 1.386 . S
C1678 H1633 0.931 . S
C1678 C1677 1.386 . S
C1678 C1679 1.363 1_655 S
C1679 C1678 1.363 1_455 S
C1679 C1680 1.385 . S
C1680 H1634 0.930 . S
C1680 C1679 1.385 . S
C1680 C1681 1.396 . S
C1681 H1635 0.929 . S
C1681 C1676 1.361 . S
C1681 C1680 1.396 . S
C1682 O1636 1.300 . S
C1682 O1637 1.209 1_655 S
C1682 C1655 1.486 . S
C1683 O1638 1.199 1_455 S
C1683 O1639 1.297 . S
C1683 C1667 1.476 . S
H1684 O1710 0.856 . S
H1685 O1713 0.854 . S
H1686 C1721 0.930 . S
H1687 C1722 0.930 . S
H1688 C1724 0.930 . S
H1689 C1725 0.930 . S
H1690 C1727 0.931 . S
H1691 C1728 0.930 . S
H1692 C1730 0.930 . S
H1693 C1731 0.929 . S
H1694 C1733 0.930 . S
H1695 C1734 0.931 . S
H1696 C1736 0.930 . S
H1697 C1737 0.929 . S
H1698 C1739 0.931 . S
H1699 C1740 0.930 . S
H1700 C1742 0.930 . S
H1701 C1743 0.932 . S
H1702 C1745 0.930 . S
H1703 C1746 0.929 . S
H1704 C1748 0.931 . S
H1705 C1749 0.930 . S
H1706 C1751 0.929 . S
H1707 C1752 0.931 . S
H1708 C1754 0.930 . S
H1709 C1755 0.929 . S
O1710 H1684 0.856 . S
O1710 C1756 1.300 . S
O1711 C1756 1.209 . S
O1712 C1757 1.199 . S
O1713 H1685 0.854 . S
O1713 C1757 1.297 . S
C1714 C1715 1.404 . S
C1714 C1719 1.397 . S
C1714 C1720 1.492 . S
C1715 C1714 1.404 . S
C1715 C1716 1.396 . S
C1715 C1726 1.492 . S
C1716 C1715 1.396 . S
C1716 C1717 1.397 . S
C1716 C1732 1.509 . S
C1717 C1716 1.397 . S
C1717 C1718 1.412 . S
C1717 C1738 1.485 . S
C1718 C1717 1.412 . S
C1718 C1719 1.388 . S
C1718 C1744 1.490 . S
C1719 C1714 1.397 . S
C1719 C1718 1.388 . S
C1719 C1750 1.519 . S
C1720 C1714 1.492 . S
C1720 C1721 1.363 . S
C1720 C1725 1.390 . S
C1721 H1686 0.930 . S
C1721 C1720 1.363 . S
C1721 C1722 1.372 . S
C1722 H1687 0.930 . S
C1722 C1721 1.372 . S
C1722 C1723 1.383 . S
C1723 C1722 1.383 . S
C1723 C1724 1.395 . S
C1724 H1688 0.930 . S
C1724 C1723 1.395 . S
C1724 C1725 1.362 . S
C1725 H1689 0.930 . S
C1725 C1720 1.390 . S
C1725 C1724 1.362 . S
C1726 C1715 1.492 . S
C1726 C1727 1.377 . S
C1726 C1731 1.397 . S
C1727 H1690 0.931 . S
C1727 C1726 1.377 . S
C1727 C1728 1.376 . S
C1728 H1691 0.930 . S
C1728 C1727 1.376 . S
C1728 C1729 1.376 . S
C1729 C1728 1.376 . S
C1729 C1730 1.378 . S
C1729 C1756 1.486 . S
C1730 H1692 0.930 . S
C1730 C1729 1.378 . S
C1730 C1731 1.376 . S
C1731 H1693 0.929 . S
C1731 C1726 1.397 . S
C1731 C1730 1.376 . S
C1732 C1716 1.509 . S
C1732 C1733 1.391 . S
C1732 C1737 1.386 . S
C1733 H1694 0.930 . S
C1733 C1732 1.391 . S
C1733 C1734 1.375 . S
C1734 H1695 0.931 . S
C1734 C1733 1.375 . S
C1734 C1735 1.375 . S
C1735 C1734 1.375 . S
C1735 C1736 1.361 . S
C1736 H1696 0.930 . S
C1736 C1735 1.361 . S
C1736 C1737 1.399 . S
C1737 H1697 0.929 . S
C1737 C1732 1.386 . S
C1737 C1736 1.399 . S
C1738 C1717 1.485 . S
C1738 C1739 1.394 . S
C1738 C1743 1.360 . S
C1739 H1698 0.931 . S
C1739 C1738 1.394 . S
C1739 C1740 1.372 . S
C1740 H1699 0.930 . S
C1740 C1739 1.372 . S
C1740 C1741 1.397 . S
C1741 C1740 1.397 . S
C1741 C1742 1.390 . S
C1741 C1757 1.476 . S
C1742 H1700 0.930 . S
C1742 C1741 1.390 . S
C1742 C1743 1.366 . S
C1743 H1701 0.932 . S
C1743 C1738 1.360 . S
C1743 C1742 1.366 . S
C1744 C1718 1.490 . S
C1744 C1745 1.380 . S
C1744 C1749 1.386 . S
C1745 H1702 0.930 . S
C1745 C1744 1.380 . S
C1745 C1746 1.381 . S
C1746 H1703 0.929 . S
C1746 C1745 1.381 . S
C1746 C1747 1.371 . S
C1747 C1746 1.371 . S
C1747 C1748 1.380 . S
C1748 H1704 0.931 . S
C1748 C1747 1.380 . S
C1748 C1749 1.387 . S
C1749 H1705 0.930 . S
C1749 C1744 1.386 . S
C1749 C1748 1.387 . S
C1750 C1719 1.519 . S
C1750 C1751 1.377 . S
C1750 C1755 1.361 . S
C1751 H1706 0.929 . S
C1751 C1750 1.377 . S
C1751 C1752 1.386 . S
C1752 H1707 0.931 . S
C1752 C1751 1.386 . S
C1752 C1753 1.363 . S
C1753 C1752 1.363 . S
C1753 C1754 1.385 . S
C1754 H1708 0.930 . S
C1754 C1753 1.385 . S
C1754 C1755 1.396 . S
C1755 H1709 0.929 . S
C1755 C1750 1.361 . S
C1755 C1754 1.396 . S
C1756 O1710 1.300 . S
C1756 O1711 1.209 . S
C1756 C1729 1.486 . S
C1757 O1712 1.199 . S
C1757 O1713 1.297 . S
C1757 C1741 1.476 . S
H1758 O1784 0.856 . S
H1759 O1787 0.854 . S
H1760 C1795 0.930 . S
H1761 C1796 0.930 . S
H1762 C1798 0.930 . S
H1763 C1799 0.930 . S
H1764 C1801 0.931 . S
H1765 C1802 0.930 . S
H1766 C1804 0.930 . S
H1767 C1805 0.929 . S
H1768 C1807 0.930 . S
H1769 C1808 0.931 . S
H1770 C1810 0.930 . S
H1771 C1811 0.929 . S
H1772 C1813 0.931 . S
H1773 C1814 0.930 . S
H1774 C1816 0.930 . S
H1775 C1817 0.932 . S
H1776 C1819 0.930 . S
H1777 C1820 0.929 . S
H1778 C1822 0.931 . S
H1779 C1823 0.930 . S
H1780 C1825 0.929 . S
H1781 C1826 0.931 . S
H1782 C1828 0.930 . S
H1783 C1829 0.929 . S
O1784 H1758 0.856 . S
O1784 C1830 1.300 . S
O1785 C1830 1.209 . S
O1786 C1831 1.199 . S
O1787 H1759 0.854 . S
O1787 C1831 1.297 . S
C1788 C1789 1.404 . S
C1788 C1793 1.397 . S
C1788 C1794 1.492 . S
C1789 C1788 1.404 . S
C1789 C1790 1.396 . S
C1789 C1800 1.492 . S
C1790 C1789 1.396 . S
C1790 C1791 1.397 . S
C1790 C1806 1.509 . S
C1791 C1790 1.397 . S
C1791 C1792 1.412 . S
C1791 C1812 1.485 . S
C1792 C1791 1.412 . S
C1792 C1793 1.388 . S
C1792 C1818 1.490 . S
C1793 C1788 1.397 . S
C1793 C1792 1.388 . S
C1793 C1824 1.519 . S
C1794 C1788 1.492 . S
C1794 C1795 1.363 . S
C1794 C1799 1.390 . S
C1795 H1760 0.930 . S
C1795 C1794 1.363 . S
C1795 C1796 1.372 . S
C1796 H1761 0.930 . S
C1796 C1795 1.372 . S
C1796 C1797 1.383 . S
C1797 C1796 1.383 . S
C1797 C1798 1.395 . S
C1798 H1762 0.930 . S
C1798 C1797 1.395 . S
C1798 C1799 1.362 . S
C1799 H1763 0.930 . S
C1799 C1794 1.390 . S
C1799 C1798 1.362 . S
C1800 C1789 1.492 . S
C1800 C1801 1.377 . S
C1800 C1805 1.397 . S
C1801 H1764 0.931 . S
C1801 C1800 1.377 . S
C1801 C1802 1.376 . S
C1802 H1765 0.930 . S
C1802 C1801 1.376 . S
C1802 C1803 1.376 . S
C1803 C1802 1.376 . S
C1803 C1804 1.378 . S
C1803 C1830 1.486 . S
C1804 H1766 0.930 . S
C1804 C1803 1.378 . S
C1804 C1805 1.376 . S
C1805 H1767 0.929 . S
C1805 C1800 1.397 . S
C1805 C1804 1.376 . S
C1806 C1790 1.509 . S
C1806 C1807 1.391 . S
C1806 C1811 1.386 . S
C1807 H1768 0.930 . S
C1807 C1806 1.391 . S
C1807 C1808 1.375 . S
C1808 H1769 0.931 . S
C1808 C1807 1.375 . S
C1808 C1809 1.375 . S
C1809 C1808 1.375 . S
C1809 C1810 1.361 . S
C1810 H1770 0.930 . S
C1810 C1809 1.361 . S
C1810 C1811 1.399 . S
C1811 H1771 0.929 . S
C1811 C1806 1.386 . S
C1811 C1810 1.399 . S
C1812 C1791 1.485 . S
C1812 C1813 1.394 . S
C1812 C1817 1.360 . S
C1813 H1772 0.931 . S
C1813 C1812 1.394 . S
C1813 C1814 1.372 . S
C1814 H1773 0.930 . S
C1814 C1813 1.372 . S
C1814 C1815 1.397 . S
C1815 C1814 1.397 . S
C1815 C1816 1.390 . S
C1815 C1831 1.476 . S
C1816 H1774 0.930 . S
C1816 C1815 1.390 . S
C1816 C1817 1.366 . S
C1817 H1775 0.932 . S
C1817 C1812 1.360 . S
C1817 C1816 1.366 . S
C1818 C1792 1.490 . S
C1818 C1819 1.380 . S
C1818 C1823 1.386 . S
C1819 H1776 0.930 . S
C1819 C1818 1.380 . S
C1819 C1820 1.381 . S
C1820 H1777 0.929 . S
C1820 C1819 1.381 . S
C1820 C1821 1.371 . S
C1821 C1820 1.371 . S
C1821 C1822 1.380 . S
C1822 H1778 0.931 . S
C1822 C1821 1.380 . S
C1822 C1823 1.387 . S
C1823 H1779 0.930 . S
C1823 C1818 1.386 . S
C1823 C1822 1.387 . S
C1824 C1793 1.519 . S
C1824 C1825 1.377 . S
C1824 C1829 1.361 . S
C1825 H1780 0.929 . S
C1825 C1824 1.377 . S
C1825 C1826 1.386 . S
C1826 H1781 0.931 . S
C1826 C1825 1.386 . S
C1826 C1827 1.363 . S
C1827 C1826 1.363 . S
C1827 C1828 1.385 . S
C1828 H1782 0.930 . S
C1828 C1827 1.385 . S
C1828 C1829 1.396 . S
C1829 H1783 0.929 . S
C1829 C1824 1.361 . S
C1829 C1828 1.396 . S
C1830 O1784 1.300 . S
C1830 O1785 1.209 . S
C1830 C1803 1.486 . S
C1831 O1786 1.199 . S
C1831 O1787 1.297 . S
C1831 C1815 1.476 . S
H1832 O1858 0.856 . S
H1833 O1861 0.854 . S
H1834 C1869 0.930 . S
H1835 C1870 0.930 . S
H1836 C1872 0.930 . S
H1837 C1873 0.930 . S
H1838 C1875 0.931 . S
H1839 C1876 0.930 . S
H1840 C1878 0.930 . S
H1841 C1879 0.929 . S
H1842 C1881 0.930 . S
H1843 C1882 0.931 . S
H1844 C1884 0.930 . S
H1845 C1885 0.929 . S
H1846 C1887 0.931 . S
H1847 C1888 0.930 . S
H1848 C1890 0.930 . S
H1849 C1891 0.932 . S
H1850 C1893 0.930 . S
H1851 C1894 0.929 . S
H1852 C1896 0.931 . S
H1853 C1897 0.930 . S
H1854 C1899 0.929 . S
H1855 C1900 0.931 . S
H1856 C1902 0.930 . S
H1857 C1903 0.929 . S
O1858 H1832 0.856 . S
O1858 C1904 1.300 . S
O1859 C1904 1.209 . S
O1860 C1905 1.199 . S
O1861 H1833 0.854 . S
O1861 C1905 1.297 . S
C1862 C1863 1.404 . S
C1862 C1867 1.397 . S
C1862 C1868 1.492 . S
C1863 C1862 1.404 . S
C1863 C1864 1.396 . S
C1863 C1874 1.492 . S
C1864 C1863 1.396 . S
C1864 C1865 1.397 . S
C1864 C1880 1.509 . S
C1865 C1864 1.397 . S
C1865 C1866 1.412 . S
C1865 C1886 1.485 . S
C1866 C1865 1.412 . S
C1866 C1867 1.388 . S
C1866 C1892 1.490 . S
C1867 C1862 1.397 . S
C1867 C1866 1.388 . S
C1867 C1898 1.519 . S
C1868 C1862 1.492 . S
C1868 C1869 1.363 . S
C1868 C1873 1.390 . S
C1869 H1834 0.930 . S
C1869 C1868 1.363 . S
C1869 C1870 1.372 . S
C1870 H1835 0.930 . S
C1870 C1869 1.372 . S
C1870 C1871 1.383 . S
C1871 C1870 1.383 . S
C1871 C1872 1.395 . S
C1872 H1836 0.930 . S
C1872 C1871 1.395 . S
C1872 C1873 1.362 . S
C1873 H1837 0.930 . S
C1873 C1868 1.390 . S
C1873 C1872 1.362 . S
C1874 C1863 1.492 . S
C1874 C1875 1.377 . S
C1874 C1879 1.397 . S
C1875 H1838 0.931 . S
C1875 C1874 1.377 . S
C1875 C1876 1.376 . S
C1876 H1839 0.930 . S
C1876 C1875 1.376 . S
C1876 C1877 1.376 . S
C1877 C1876 1.376 . S
C1877 C1878 1.378 . S
C1877 C1904 1.486 . S
C1878 H1840 0.930 . S
C1878 C1877 1.378 . S
C1878 C1879 1.376 . S
C1879 H1841 0.929 . S
C1879 C1874 1.397 . S
C1879 C1878 1.376 . S
C1880 C1864 1.509 . S
C1880 C1881 1.391 . S
C1880 C1885 1.386 . S
C1881 H1842 0.930 . S
C1881 C1880 1.391 . S
C1881 C1882 1.375 . S
C1882 H1843 0.931 . S
C1882 C1881 1.375 . S
C1882 C1883 1.375 . S
C1883 C1882 1.375 . S
C1883 C1884 1.361 . S
C1884 H1844 0.930 . S
C1884 C1883 1.361 . S
C1884 C1885 1.399 . S
C1885 H1845 0.929 . S
C1885 C1880 1.386 . S
C1885 C1884 1.399 . S
C1886 C1865 1.485 . S
C1886 C1887 1.394 . S
C1886 C1891 1.360 . S
C1887 H1846 0.931 . S
C1887 C1886 1.394 . S
C1887 C1888 1.372 . S
C1888 H1847 0.930 . S
C1888 C1887 1.372 . S
C1888 C1889 1.397 . S
C1889 C1888 1.397 . S
C1889 C1890 1.390 . S
C1889 C1905 1.476 . S
C1890 H1848 0.930 . S
C1890 C1889 1.390 . S
C1890 C1891 1.366 . S
C1891 H1849 0.932 . S
C1891 C1886 1.360 . S
C1891 C1890 1.366 . S
C1892 C1866 1.490 . S
C1892 C1893 1.380 . S
C1892 C1897 1.386 . S
C1893 H1850 0.930 . S
C1893 C1892 1.380 . S
C1893 C1894 1.381 . S
C1894 H1851 0.929 . S
C1894 C1893 1.381 . S
C1894 C1895 1.371 . S
C1895 C1894 1.371 . S
C1895 C1896 1.380 . S
C1896 H1852 0.931 . S
C1896 C1895 1.380 . S
C1896 C1897 1.387 . S
C1897 H1853 0.930 . S
C1897 C1892 1.386 . S
C1897 C1896 1.387 . S
C1898 C1867 1.519 . S
C1898 C1899 1.377 . S
C1898 C1903 1.361 . S
C1899 H1854 0.929 . S
C1899 C1898 1.377 . S
C1899 C1900 1.386 . S
C1900 H1855 0.931 . S
C1900 C1899 1.386 . S
C1900 C1901 1.363 . S
C1901 C1900 1.363 . S
C1901 C1902 1.385 . S
C1902 H1856 0.930 . S
C1902 C1901 1.385 . S
C1902 C1903 1.396 . S
C1903 H1857 0.929 . S
C1903 C1898 1.361 . S
C1903 C1902 1.396 . S
C1904 O1858 1.300 . S
C1904 O1859 1.209 . S
C1904 C1877 1.486 . S
C1905 O1860 1.199 . S
C1905 O1861 1.297 . S
C1905 C1889 1.476 . S
H1906 O1932 0.856 . S
H1907 O1935 0.854 . S
H1908 C1943 0.930 . S
H1909 C1944 0.930 . S
H1910 C1946 0.930 . S
H1911 C1947 0.930 . S
H1912 C1949 0.931 . S
H1913 C1950 0.930 . S
H1914 C1952 0.930 . S
H1915 C1953 0.929 . S
H1916 C1955 0.930 . S
H1917 C1956 0.931 . S
H1918 C1958 0.930 . S
H1919 C1959 0.929 . S
H1920 C1961 0.931 . S
H1921 C1962 0.930 . S
H1922 C1964 0.930 . S
H1923 C1965 0.932 . S
H1924 C1967 0.930 . S
H1925 C1968 0.929 . S
H1926 C1970 0.931 . S
H1927 C1971 0.930 . S
H1928 C1973 0.929 . S
H1929 C1974 0.931 . S
H1930 C1976 0.930 . S
H1931 C1977 0.929 . S
O1932 H1906 0.856 . S
O1932 C1978 1.300 . S
O1933 C1978 1.209 . S
O1934 C1979 1.199 . S
O1935 H1907 0.854 . S
O1935 C1979 1.297 . S
C1936 C1937 1.404 . S
C1936 C1941 1.397 . S
C1936 C1942 1.492 . S
C1937 C1936 1.404 . S
C1937 C1938 1.396 . S
C1937 C1948 1.492 . S
C1938 C1937 1.396 . S
C1938 C1939 1.397 . S
C1938 C1954 1.509 . S
C1939 C1938 1.397 . S
C1939 C1940 1.412 . S
C1939 C1960 1.485 . S
C1940 C1939 1.412 . S
C1940 C1941 1.388 . S
C1940 C1966 1.490 . S
C1941 C1936 1.397 . S
C1941 C1940 1.388 . S
C1941 C1972 1.519 . S
C1942 C1936 1.492 . S
C1942 C1943 1.363 . S
C1942 C1947 1.390 . S
C1943 H1908 0.930 . S
C1943 C1942 1.363 . S
C1943 C1944 1.372 . S
C1944 H1909 0.930 . S
C1944 C1943 1.372 . S
C1944 C1945 1.383 . S
C1945 C1944 1.383 . S
C1945 C1946 1.395 . S
C1946 H1910 0.930 . S
C1946 C1945 1.395 . S
C1946 C1947 1.362 . S
C1947 H1911 0.930 . S
C1947 C1942 1.390 . S
C1947 C1946 1.362 . S
C1948 C1937 1.492 . S
C1948 C1949 1.377 . S
C1948 C1953 1.397 . S
C1949 H1912 0.931 . S
C1949 C1948 1.377 . S
C1949 C1950 1.376 . S
C1950 H1913 0.930 . S
C1950 C1949 1.376 . S
C1950 C1951 1.376 . S
C1951 C1950 1.376 . S
C1951 C1952 1.378 . S
C1951 C1978 1.486 . S
C1952 H1914 0.930 . S
C1952 C1951 1.378 . S
C1952 C1953 1.376 . S
C1953 H1915 0.929 . S
C1953 C1948 1.397 . S
C1953 C1952 1.376 . S
C1954 C1938 1.509 . S
C1954 C1955 1.391 . S
C1954 C1959 1.386 . S
C1955 H1916 0.930 . S
C1955 C1954 1.391 . S
C1955 C1956 1.375 . S
C1956 H1917 0.931 . S
C1956 C1955 1.375 . S
C1956 C1957 1.375 . S
C1957 C1956 1.375 . S
C1957 C1958 1.361 . S
C1958 H1918 0.930 . S
C1958 C1957 1.361 . S
C1958 C1959 1.399 . S
C1959 H1919 0.929 . S
C1959 C1954 1.386 . S
C1959 C1958 1.399 . S
C1960 C1939 1.485 . S
C1960 C1961 1.394 . S
C1960 C1965 1.360 . S
C1961 H1920 0.931 . S
C1961 C1960 1.394 . S
C1961 C1962 1.372 . S
C1962 H1921 0.930 . S
C1962 C1961 1.372 . S
C1962 C1963 1.397 . S
C1963 C1962 1.397 . S
C1963 C1964 1.390 . S
C1963 C1979 1.476 . S
C1964 H1922 0.930 . S
C1964 C1963 1.390 . S
C1964 C1965 1.366 . S
C1965 H1923 0.932 . S
C1965 C1960 1.360 . S
C1965 C1964 1.366 . S
C1966 C1940 1.490 . S
C1966 C1967 1.380 . S
C1966 C1971 1.386 . S
C1967 H1924 0.930 . S
C1967 C1966 1.380 . S
C1967 C1968 1.381 . S
C1968 H1925 0.929 . S
C1968 C1967 1.381 . S
C1968 C1969 1.371 . S
C1969 C1968 1.371 . S
C1969 C1970 1.380 . S
C1970 H1926 0.931 . S
C1970 C1969 1.380 . S
C1970 C1971 1.387 . S
C1971 H1927 0.930 . S
C1971 C1966 1.386 . S
C1971 C1970 1.387 . S
C1972 C1941 1.519 . S
C1972 C1973 1.377 . S
C1972 C1977 1.361 . S
C1973 H1928 0.929 . S
C1973 C1972 1.377 . S
C1973 C1974 1.386 . S
C1974 H1929 0.931 . S
C1974 C1973 1.386 . S
C1974 C1975 1.363 . S
C1975 C1974 1.363 . S
C1975 C1976 1.385 . S
C1976 H1930 0.930 . S
C1976 C1975 1.385 . S
C1976 C1977 1.396 . S
C1977 H1931 0.929 . S
C1977 C1972 1.361 . S
C1977 C1976 1.396 . S
C1978 O1932 1.300 . S
C1978 O1933 1.209 . S
C1978 C1951 1.486 . S
C1979 O1934 1.199 . S
C1979 O1935 1.297 . S
C1979 C1963 1.476 . S
H1980 C1986 0.930 . S
H1981 C1990 0.930 . S
H1982 C1995 0.929 . S
H1983 C1993 0.929 . S
H1984 C1988 0.929 . S
H1985 C1994 0.927 . S
C1986 H1980 0.930 . S
C1986 C1987 1.367 1_455 S
C1986 C1994 1.381 . S
C1987 C1986 1.367 1_655 S
C1987 C1995 1.433 . S
C1988 H1984 0.929 . S
C1988 C1990 1.378 . S
C1988 C1992 1.350 . S
C1989 C1992 1.463 . S
C1989 C1994 1.348 1_655 S
C1989 N1997 1.427 . S
C1990 H1981 0.930 . S
C1990 C1988 1.378 . S
C1990 C1991 1.367 . S
C1991 C1990 1.367 . S
C1991 C1993 1.433 . S
C1992 C1988 1.350 . S
C1992 C1989 1.463 . S
C1992 N1996 1.427 . S
C1993 H1983 0.929 . S
C1993 C1991 1.433 . S
C1993 N1996 1.384 . S
C1994 H1985 0.927 . S
C1994 C1986 1.381 . S
C1994 C1989 1.348 1_455 S
C1995 H1982 0.929 . S
C1995 C1987 1.433 . S
C1995 N1997 1.384 . S
N1996 C1992 1.427 . S
N1996 C1993 1.384 . S
N1997 C1989 1.427 . S
N1997 C1995 1.384 . S
H1998 C2004 0.930 . S
H1999 C2008 0.930 . S
H2000 C2013 0.929 . S
H2001 C2011 0.929 . S
H2002 C2006 0.929 . S
H2003 C2012 0.929 . S
C2004 H1998 0.930 . S
C2004 C2005 1.367 . S
C2004 C2012 1.378 . S
C2005 C2004 1.367 . S
C2005 C2013 1.433 . S
C2006 H2002 0.929 . S
C2006 C2008 1.378 . S
C2006 C2010 1.350 . S
C2007 C2010 1.463 . S
C2007 C2012 1.350 . S
C2007 N2015 1.427 . S
C2008 H1999 0.930 . S
C2008 C2006 1.378 . S
C2008 C2009 1.367 . S
C2009 C2008 1.367 . S
C2009 C2011 1.433 . S
C2010 C2006 1.350 . S
C2010 C2007 1.463 . S
C2010 N2014 1.427 . S
C2011 H2001 0.929 . S
C2011 C2009 1.433 . S
C2011 N2014 1.384 . S
C2012 H2003 0.929 . S
C2012 C2004 1.378 . S
C2012 C2007 1.350 . S
C2013 H2000 0.929 . S
C2013 C2005 1.433 . S
C2013 N2015 1.384 . S
N2014 C2010 1.427 . S
N2014 C2011 1.384 . S
N2015 C2007 1.427 . S
N2015 C2013 1.384 . S
H2016 C2022 0.930 . S
H2017 C2026 0.930 . S
H2018 C2031 0.929 . S
H2019 C2029 0.929 . S
H2020 C2024 0.929 . S
H2021 C2030 0.929 . S
C2022 H2016 0.930 . S
C2022 C2023 1.367 . S
C2022 C2030 1.378 . S
C2023 C2022 1.367 . S
C2023 C2031 1.433 1_545 S
C2024 H2020 0.929 . S
C2024 C2026 1.378 . S
C2024 C2028 1.350 1_565 S
C2025 C2028 1.463 . S
C2025 C2030 1.350 . S
C2025 N2033 1.427 1_545 S
C2026 H2017 0.930 . S
C2026 C2024 1.378 . S
C2026 C2027 1.367 1_565 S
C2027 C2026 1.367 1_545 S
C2027 C2029 1.433 . S
C2028 C2024 1.350 1_545 S
C2028 C2025 1.463 . S
C2028 N2032 1.427 . S
C2029 H2019 0.929 . S
C2029 C2027 1.433 . S
C2029 N2032 1.384 . S
C2030 H2021 0.929 . S
C2030 C2022 1.378 . S
C2030 C2025 1.350 . S
C2031 H2018 0.929 . S
C2031 C2023 1.433 1_565 S
C2031 N2033 1.384 . S
N2032 C2028 1.427 . S
N2032 C2029 1.384 . S
N2033 C2025 1.427 1_565 S
N2033 C2031 1.384 . S
H2034 C2040 0.930 . S
H2035 C2044 0.930 . S
H2036 C2049 0.929 . S
H2037 C2047 0.916 1_545 S
H2038 C2042 0.929 . S
H2039 C2048 0.967 . S
C2040 H2034 0.930 . S
C2040 C2041 1.367 1_545 S
C2040 C2048 1.395 . S
C2041 C2040 1.367 1_565 S
C2041 C2049 1.433 . S
C2042 H2038 0.929 . S
C2042 C2044 1.378 . S
C2042 C2046 1.350 . S
C2043 C2046 1.463 . S
C2043 C2048 1.296 1_565 S
C2043 N2051 1.427 . S
C2044 H2035 0.930 . S
C2044 C2042 1.378 . S
C2044 C2045 1.367 . S
C2045 C2044 1.367 . S
C2045 C2047 1.452 . S
C2046 C2042 1.350 . S
C2046 C2043 1.463 . S
C2046 N2050 1.425 . S
C2047 H2037 0.916 1_565 S
C2047 C2045 1.452 . S
C2047 N2050 1.377 . S
C2048 H2039 0.967 . S
C2048 C2040 1.395 . S
C2048 C2043 1.296 1_545 S
C2049 H2036 0.929 . S
C2049 C2041 1.433 . S
C2049 N2051 1.384 . S
N2050 C2046 1.425 . S
N2050 C2047 1.377 . S
N2051 C2043 1.427 . S
N2051 C2049 1.384 . S
H2052 C2058 0.878 1_554 S
H2053 C2062 0.930 . S
H2054 C2067 0.929 . S
H2055 C2065 0.929 . S
H2056 C2060 0.929 . S
H2057 C2066 0.929 . S
C2058 H2052 0.878 1_556 S
C2058 C2059 1.367 . S
C2058 C2066 1.378 . S
C2059 C2058 1.367 . S
C2059 C2067 1.433 . S
C2060 H2056 0.929 . S
C2060 C2062 1.378 . S
C2060 C2064 1.350 . S
C2061 C2064 1.463 . S
C2061 C2066 1.350 . S
C2061 N2069 1.427 . S
C2062 H2053 0.930 . S
C2062 C2060 1.378 . S
C2062 C2063 1.367 . S
C2063 C2062 1.367 . S
C2063 C2065 1.433 . S
C2064 C2060 1.350 . S
C2064 C2061 1.463 . S
C2064 N2068 1.427 . S
C2065 H2055 0.929 . S
C2065 C2063 1.433 . S
C2065 N2068 1.384 . S
C2066 H2057 0.929 . S
C2066 C2058 1.378 . S
C2066 C2061 1.350 . S
C2067 H2054 0.929 . S
C2067 C2059 1.433 . S
C2067 N2069 1.384 . S
N2068 C2064 1.427 . S
N2068 C2065 1.384 . S
N2069 C2061 1.427 . S
N2069 C2067 1.384 . S
H2070 C2076 0.930 . S
H2071 C2080 0.930 . S
H2072 C2085 0.929 . S
H2073 C2083 0.929 . S
H2074 C2078 0.929 . S
H2075 C2084 0.929 . S
C2076 H2070 0.930 . S
C2076 C2077 1.367 . S
C2076 C2084 1.378 1_554 S
C2077 C2076 1.367 . S
C2077 C2085 1.433 1_554 S
C2078 H2074 0.929 . S
C2078 C2080 1.378 . S
C2078 C2082 1.350 . S
C2079 C2082 1.463 . S
C2079 C2084 1.350 . S
C2079 N2087 1.427 . S
C2080 H2071 0.930 . S
C2080 C2078 1.378 . S
C2080 C2081 1.367 . S
C2081 C2080 1.367 . S
C2081 C2083 1.433 . S
C2082 C2078 1.350 . S
C2082 C2079 1.463 . S
C2082 N2086 1.427 . S
C2083 H2073 0.929 . S
C2083 C2081 1.433 . S
C2083 N2086 1.384 . S
C2084 H2075 0.929 . S
C2084 C2076 1.378 1_556 S
C2084 C2079 1.350 . S
C2085 H2072 0.929 . S
C2085 C2077 1.433 1_556 S
C2085 N2087 1.384 . S
N2086 C2082 1.427 . S
N2086 C2083 1.384 . S
N2087 C2079 1.427 . S
N2087 C2085 1.384 . S
H2088 C2094 0.930 . S
H2089 C2098 0.930 . S
H2090 C2103 0.929 . S
H2091 C2101 0.929 . S
H2092 C2096 0.929 . S
H2093 C2102 0.929 . S
C2094 H2088 0.930 . S
C2094 C2095 1.367 1_556 S
C2094 C2102 1.378 . S
C2095 C2094 1.367 1_554 S
C2095 C2103 1.433 1_455 S
C2096 H2092 0.929 . S
C2096 C2098 1.378 . S
C2096 C2100 1.350 1_655 S
C2097 C2100 1.463 . S
C2097 C2102 1.350 . S
C2097 N2105 1.427 1_455 S
C2098 H2089 0.930 . S
C2098 C2096 1.378 . S
C2098 C2099 1.367 1_655 S
C2099 C2098 1.367 1_455 S
C2099 C2101 1.433 . S
C2100 C2096 1.350 1_455 S
C2100 C2097 1.463 . S
C2100 N2104 1.427 . S
C2101 H2091 0.929 . S
C2101 C2099 1.433 . S
C2101 N2104 1.384 . S
C2102 H2093 0.929 . S
C2102 C2094 1.378 . S
C2102 C2097 1.350 . S
C2103 H2090 0.929 . S
C2103 C2095 1.433 1_655 S
C2103 N2105 1.384 1_554 S
N2104 C2100 1.427 . S
N2104 C2101 1.384 . S
N2105 C2097 1.427 1_655 S
N2105 C2103 1.384 1_556 S
H2106 C2112 0.930 . S
H2107 C2116 0.930 . S
H2108 C2121 0.929 . S
H2109 C2119 0.929 . S
H2110 C2114 0.929 . S
H2111 C2120 0.929 . S
C2112 H2106 0.930 . S
C2112 C2113 1.367 . S
C2112 C2120 1.378 . S
C2113 C2112 1.367 . S
C2113 C2121 1.433 . S
C2114 H2110 0.929 . S
C2114 C2116 1.378 . S
C2114 C2118 1.350 . S
C2115 C2118 1.463 . S
C2115 C2120 1.350 . S
C2115 N2123 1.427 . S
C2116 H2107 0.930 . S
C2116 C2114 1.378 . S
C2116 C2117 1.367 . S
C2117 C2116 1.367 . S
C2117 C2119 1.433 . S
C2118 C2114 1.350 . S
C2118 C2115 1.463 . S
C2118 N2122 1.427 . S
C2119 H2109 0.929 . S
C2119 C2117 1.433 . S
C2119 N2122 1.384 . S
C2120 H2111 0.929 . S
C2120 C2112 1.378 . S
C2120 C2115 1.350 . S
C2121 H2108 0.929 . S
C2121 C2113 1.433 . S
C2121 N2123 1.384 . S
N2122 C2118 1.427 . S
N2122 C2119 1.384 . S
N2123 C2115 1.427 . S
N2123 C2121 1.384 . S
H2124 C2130 0.930 . S
H2125 C2134 0.930 . S
H2126 C2139 0.929 . S
H2127 C2137 0.929 . S
H2128 C2132 0.929 . S
H2129 C2138 0.929 . S
C2130 H2124 0.930 . S
C2130 C2131 1.365 . S
C2130 C2138 1.378 1_554 S
C2131 C2130 1.365 . S
C2131 C2139 1.417 1_564 S
C2132 H2128 0.929 . S
C2132 C2134 1.378 . S
C2132 C2136 1.350 . S
C2133 C2136 1.465 1_565 S
C2133 C2138 1.348 . S
C2133 N2141 1.427 1_565 S
C2134 H2125 0.930 . S
C2134 C2132 1.378 . S
C2134 C2135 1.367 . S
C2135 C2134 1.367 . S
C2135 C2137 1.433 1_545 S
C2136 C2132 1.350 . S
C2136 C2133 1.465 1_545 S
C2136 N2140 1.427 1_545 S
C2137 H2127 0.929 . S
C2137 C2135 1.433 1_565 S
C2137 N2140 1.384 . S
C2138 H2129 0.929 . S
C2138 C2130 1.378 1_556 S
C2138 C2133 1.348 . S
C2139 H2126 0.929 . S
C2139 C2131 1.417 1_546 S
C2139 N2141 1.384 . S
N2140 C2136 1.427 1_565 S
N2140 C2137 1.384 . S
N2141 C2133 1.427 1_545 S
N2141 C2139 1.384 . S
H2142 C2148 0.930 . S
H2143 C2152 0.930 . S
H2144 C2157 0.922 1_565 S
H2145 C2155 0.929 . S
H2146 C2150 0.929 . S
H2147 C2156 0.929 . S
C2148 H2142 0.930 . S
C2148 C2149 1.367 . S
C2148 C2156 1.378 . S
C2149 C2148 1.367 . S
C2149 C2157 1.439 . S
C2150 H2146 0.929 . S
C2150 C2152 1.378 . S
C2150 C2154 1.350 1_565 S
C2151 C2154 1.463 . S
C2151 C2156 1.350 . S
C2151 N2159 1.427 1_545 S
C2152 H2143 0.930 . S
C2152 C2150 1.378 . S
C2152 C2153 1.340 1_565 S
C2153 C2152 1.340 1_545 S
C2153 C2155 1.456 . S
C2154 C2150 1.350 1_545 S
C2154 C2151 1.463 . S
C2154 N2158 1.427 . S
C2155 H2145 0.929 . S
C2155 C2153 1.456 . S
C2155 N2158 1.384 . S
C2156 H2147 0.929 . S
C2156 C2148 1.378 . S
C2156 C2151 1.350 . S
C2157 H2144 0.922 1_545 S
C2157 C2149 1.439 . S
C2157 N2159 1.386 1_545 S
N2158 C2154 1.427 . S
N2158 C2155 1.384 . S
N2159 C2151 1.427 1_565 S
N2159 C2157 1.386 1_565 S
H2160 C2166 0.930 . S
H2161 C2170 0.930 . S
H2162 C2175 0.929 . S
H2163 C2173 0.929 . S
H2164 C2168 0.929 . S
H2165 C2174 0.929 . S
C2166 H2160 0.930 . S
C2166 C2167 1.367 . S
C2166 C2174 1.378 . S
C2167 C2166 1.367 . S
C2167 C2175 1.433 1_655 S
C2168 H2164 0.929 . S
C2168 C2170 1.378 . S
C2168 C2172 1.350 1_455 S
C2169 C2172 1.463 . S
C2169 C2174 1.350 . S
C2169 N2177 1.427 1_655 S
C2170 H2161 0.930 . S
C2170 C2168 1.378 . S
C2170 C2171 1.369 . S
C2171 C2170 1.369 . S
C2171 C2173 1.429 1_455 S
C2172 C2168 1.350 1_655 S
C2172 C2169 1.463 . S
C2172 N2176 1.427 . S
C2173 H2163 0.929 . S
C2173 C2171 1.429 1_655 S
C2173 N2176 1.384 . S
C2174 H2165 0.929 . S
C2174 C2166 1.378 . S
C2174 C2169 1.350 . S
C2175 H2162 0.929 . S
C2175 C2167 1.433 1_455 S
C2175 N2177 1.384 . S
N2176 C2172 1.427 . S
N2176 C2173 1.384 . S
N2177 C2169 1.427 1_455 S
N2177 C2175 1.384 . S
H2178 C2184 0.930 . S
H2179 C2188 0.930 . S
H2180 C2193 0.929 . S
H2181 C2191 0.929 . S
H2182 C2186 0.929 . S
H2183 C2192 0.929 . S
C2184 H2178 0.930 . S
C2184 C2185 1.367 . S
C2184 C2192 1.378 . S
C2185 C2184 1.367 . S
C2185 C2193 1.433 . S
C2186 H2182 0.929 . S
C2186 C2188 1.378 . S
C2186 C2190 1.350 . S
C2187 C2190 1.463 . S
C2187 C2192 1.350 . S
C2187 N2195 1.427 . S
C2188 H2179 0.930 . S
C2188 C2186 1.378 . S
C2188 C2189 1.367 . S
C2189 C2188 1.367 . S
C2189 C2191 1.433 . S
C2190 C2186 1.350 . S
C2190 C2187 1.463 . S
C2190 N2194 1.427 . S
C2191 H2181 0.929 . S
C2191 C2189 1.433 . S
C2191 N2194 1.384 . S
C2192 H2183 0.929 . S
C2192 C2184 1.378 . S
C2192 C2187 1.350 . S
C2193 H2180 0.929 . S
C2193 C2185 1.433 . S
C2193 N2195 1.384 . S
N2194 C2190 1.427 . S
N2194 C2191 1.384 . S
N2195 C2187 1.427 . S
N2195 C2193 1.384 . S
H2196 C2202 0.930 . S
H2197 C2206 0.930 . S
H2198 C2211 0.929 . S
H2199 C2209 0.929 . S
H2200 C2204 0.929 . S
H2201 C2210 0.929 . S
C2202 H2196 0.930 . S
C2202 C2203 1.367 . S
C2202 C2210 1.378 . S
C2203 C2202 1.367 . S
C2203 C2211 1.433 . S
C2204 H2200 0.929 . S
C2204 C2206 1.378 . S
C2204 C2208 1.350 . S
C2205 C2208 1.463 . S
C2205 C2210 1.350 . S
C2205 N2213 1.427 . S
C2206 H2197 0.930 . S
C2206 C2204 1.378 . S
C2206 C2207 1.367 . S
C2207 C2206 1.367 . S
C2207 C2209 1.433 . S
C2208 C2204 1.350 . S
C2208 C2205 1.463 . S
C2208 N2212 1.427 . S
C2209 H2199 0.929 . S
C2209 C2207 1.433 . S
C2209 N2212 1.384 . S
C2210 H2201 0.929 . S
C2210 C2202 1.378 . S
C2210 C2205 1.350 . S
C2211 H2198 0.929 . S
C2211 C2203 1.433 . S
C2211 N2213 1.384 . S
N2212 C2208 1.427 . S
N2212 C2209 1.384 . S
N2213 C2205 1.427 . S
N2213 C2211 1.384 . S
H2214 C2220 0.930 . S
H2215 C2224 0.930 . S
H2216 C2229 0.929 . S
H2217 C2227 0.929 . S
H2218 C2222 0.929 . S
H2219 C2228 0.929 . S
C2220 H2214 0.930 . S
C2220 C2221 1.367 . S
C2220 C2228 1.378 . S
C2221 C2220 1.367 . S
C2221 C2229 1.433 . S
C2222 H2218 0.929 . S
C2222 C2224 1.378 . S
C2222 C2226 1.350 . S
C2223 C2226 1.463 . S
C2223 C2228 1.350 . S
C2223 N2231 1.427 . S
C2224 H2215 0.930 . S
C2224 C2222 1.378 . S
C2224 C2225 1.367 . S
C2225 C2224 1.367 . S
C2225 C2227 1.433 . S
C2226 C2222 1.350 . S
C2226 C2223 1.463 . S
C2226 N2230 1.427 . S
C2227 H2217 0.929 . S
C2227 C2225 1.433 . S
C2227 N2230 1.384 . S
C2228 H2219 0.929 . S
C2228 C2220 1.378 . S
C2228 C2223 1.350 . S
C2229 H2216 0.929 . S
C2229 C2221 1.433 . S
C2229 N2231 1.384 . S
N2230 C2226 1.427 . S
N2230 C2227 1.384 . S
N2231 C2223 1.427 . S
N2231 C2229 1.384 . S
H2232 C2238 0.930 . S
H2233 C2242 0.930 . S
H2234 C2247 0.929 . S
H2235 C2245 0.929 . S
H2236 C2240 0.929 . S
H2237 C2246 0.929 . S
C2238 H2232 0.930 . S
C2238 C2239 1.367 . S
C2238 C2246 1.378 . S
C2239 C2238 1.367 . S
C2239 C2247 1.433 . S
C2240 H2236 0.929 . S
C2240 C2242 1.378 . S
C2240 C2244 1.350 . S
C2241 C2244 1.463 . S
C2241 C2246 1.350 . S
C2241 N2249 1.427 . S
C2242 H2233 0.930 . S
C2242 C2240 1.378 . S
C2242 C2243 1.367 . S
C2243 C2242 1.367 . S
C2243 C2245 1.433 . S
C2244 C2240 1.350 . S
C2244 C2241 1.463 . S
C2244 N2248 1.427 . S
C2245 H2235 0.929 . S
C2245 C2243 1.433 . S
C2245 N2248 1.384 . S
C2246 H2237 0.929 . S
C2246 C2238 1.378 . S
C2246 C2241 1.350 . S
C2247 H2234 0.929 . S
C2247 C2239 1.433 . S
C2247 N2249 1.384 . S
N2248 C2244 1.427 . S
N2248 C2245 1.384 . S
N2249 C2241 1.427 . S
N2249 C2247 1.384 . S
H2250 C2256 0.930 . S
H2251 C2260 0.930 . S
H2252 C2265 0.929 . S
H2253 C2263 0.929 . S
H2254 C2258 0.929 . S
H2255 C2264 0.929 . S
C2256 H2250 0.930 . S
C2256 C2257 1.367 . S
C2256 C2264 1.378 . S
C2257 C2256 1.367 . S
C2257 C2265 1.433 . S
C2258 H2254 0.929 . S
C2258 C2260 1.378 . S
C2258 C2262 1.350 . S
C2259 C2262 1.463 . S
C2259 C2264 1.350 . S
C2259 N2267 1.427 . S
C2260 H2251 0.930 . S
C2260 C2258 1.378 . S
C2260 C2261 1.367 . S
C2261 C2260 1.367 . S
C2261 C2263 1.433 . S
C2262 C2258 1.350 . S
C2262 C2259 1.463 . S
C2262 N2266 1.427 . S
C2263 H2253 0.929 . S
C2263 C2261 1.433 . S
C2263 N2266 1.384 . S
C2264 H2255 0.929 . S
C2264 C2256 1.378 . S
C2264 C2259 1.350 . S
C2265 H2252 0.929 . S
C2265 C2257 1.433 . S
C2265 N2267 1.384 . S
N2266 C2262 1.427 . S
N2266 C2263 1.384 . S
N2267 C2259 1.427 . S
N2267 C2265 1.384 . S
H2268 C2274 0.930 . S
H2269 C2278 0.930 . S
H2270 C2283 0.929 . S
H2271 C2281 0.929 . S
H2272 C2276 0.929 . S
H2273 C2282 0.929 . S
C2274 H2268 0.930 . S
C2274 C2275 1.367 . S
C2274 C2282 1.378 . S
C2275 C2274 1.367 . S
C2275 C2283 1.433 . S
C2276 H2272 0.929 . S
C2276 C2278 1.378 . S
C2276 C2280 1.350 . S
C2277 C2280 1.463 . S
C2277 C2282 1.350 . S
C2277 N2285 1.427 . S
C2278 H2269 0.930 . S
C2278 C2276 1.378 . S
C2278 C2279 1.367 . S
C2279 C2278 1.367 . S
C2279 C2281 1.433 . S
C2280 C2276 1.350 . S
C2280 C2277 1.463 . S
C2280 N2284 1.427 . S
C2281 H2271 0.929 . S
C2281 C2279 1.433 . S
C2281 N2284 1.384 . S
C2282 H2273 0.929 . S
C2282 C2274 1.378 . S
C2282 C2277 1.350 . S
C2283 H2270 0.929 . S
C2283 C2275 1.433 . S
C2283 N2285 1.384 . S
N2284 C2280 1.427 . S
N2284 C2281 1.384 . S
N2285 C2277 1.427 . S
N2285 C2283 1.384 . S
H2286 C2292 0.930 . S
H2287 C2296 0.930 . S
H2288 C2301 0.929 . S
H2289 C2299 0.929 . S
H2290 C2294 0.929 . S
H2291 C2300 0.929 . S
C2292 H2286 0.930 . S
C2292 C2293 1.367 . S
C2292 C2300 1.378 . S
C2293 C2292 1.367 . S
C2293 C2301 1.433 . S
C2294 H2290 0.929 . S
C2294 C2296 1.378 . S
C2294 C2298 1.350 . S
C2295 C2298 1.463 . S
C2295 C2300 1.350 . S
C2295 N2303 1.427 . S
C2296 H2287 0.930 . S
C2296 C2294 1.378 . S
C2296 C2297 1.367 . S
C2297 C2296 1.367 . S
C2297 C2299 1.433 . S
C2298 C2294 1.350 . S
C2298 C2295 1.463 . S
C2298 N2302 1.427 . S
C2299 H2289 0.929 . S
C2299 C2297 1.433 . S
C2299 N2302 1.384 . S
C2300 H2291 0.929 . S
C2300 C2292 1.378 . S
C2300 C2295 1.350 . S
C2301 H2288 0.929 . S
C2301 C2293 1.433 . S
C2301 N2303 1.384 . S
N2302 C2298 1.427 . S
N2302 C2299 1.384 . S
N2303 C2295 1.427 . S
N2303 C2301 1.384 . S
H2304 C2310 0.930 . S
H2305 C2314 0.930 . S
H2306 C2319 0.929 . S
H2307 C2317 0.929 . S
H2308 C2312 0.929 . S
H2309 C2318 0.929 . S
C2310 H2304 0.930 . S
C2310 C2311 1.367 . S
C2310 C2318 1.378 . S
C2311 C2310 1.367 . S
C2311 C2319 1.433 . S
C2312 H2308 0.929 . S
C2312 C2314 1.378 . S
C2312 C2316 1.350 . S
C2313 C2316 1.463 . S
C2313 C2318 1.350 . S
C2313 N2321 1.427 . S
C2314 H2305 0.930 . S
C2314 C2312 1.378 . S
C2314 C2315 1.367 . S
C2315 C2314 1.367 . S
C2315 C2317 1.433 . S
C2316 C2312 1.350 . S
C2316 C2313 1.463 . S
C2316 N2320 1.427 . S
C2317 H2307 0.929 . S
C2317 C2315 1.433 . S
C2317 N2320 1.384 . S
C2318 H2309 0.929 . S
C2318 C2310 1.378 . S
C2318 C2313 1.350 . S
C2319 H2306 0.929 . S
C2319 C2311 1.433 . S
C2319 N2321 1.384 . S
N2320 C2316 1.427 . S
N2320 C2317 1.384 . S
N2321 C2313 1.427 . S
N2321 C2319 1.384 . S
H2322 C2328 0.930 . S
H2323 C2332 0.930 . S
H2324 C2337 0.929 . S
H2325 C2335 0.929 . S
H2326 C2330 0.929 . S
H2327 C2336 0.929 . S
C2328 H2322 0.930 . S
C2328 C2329 1.367 . S
C2328 C2336 1.378 . S
C2329 C2328 1.367 . S
C2329 C2337 1.433 . S
C2330 H2326 0.929 . S
C2330 C2332 1.378 . S
C2330 C2334 1.350 . S
C2331 C2334 1.463 . S
C2331 C2336 1.350 . S
C2331 N2339 1.427 . S
C2332 H2323 0.930 . S
C2332 C2330 1.378 . S
C2332 C2333 1.367 . S
C2333 C2332 1.367 . S
C2333 C2335 1.433 . S
C2334 C2330 1.350 . S
C2334 C2331 1.463 . S
C2334 N2338 1.427 . S
C2335 H2325 0.929 . S
C2335 C2333 1.433 . S
C2335 N2338 1.384 . S
C2336 H2327 0.929 . S
C2336 C2328 1.378 . S
C2336 C2331 1.350 . S
C2337 H2324 0.929 . S
C2337 C2329 1.433 . S
C2337 N2339 1.384 . S
N2338 C2334 1.427 . S
N2338 C2335 1.384 . S
N2339 C2331 1.427 . S
N2339 C2337 1.384 . S
H2340 C2346 0.930 . S
H2341 C2350 0.930 . S
H2342 C2355 0.929 . S
H2343 C2353 0.929 . S
H2344 C2348 0.929 . S
H2345 C2354 0.929 . S
C2346 H2340 0.930 . S
C2346 C2347 1.367 . S
C2346 C2354 1.378 . S
C2347 C2346 1.367 . S
C2347 C2355 1.433 . S
C2348 H2344 0.929 . S
C2348 C2350 1.378 . S
C2348 C2352 1.350 . S
C2349 C2352 1.463 . S
C2349 C2354 1.350 . S
C2349 N2357 1.427 . S
C2350 H2341 0.930 . S
C2350 C2348 1.378 . S
C2350 C2351 1.367 . S
C2351 C2350 1.367 . S
C2351 C2353 1.433 . S
C2352 C2348 1.350 . S
C2352 C2349 1.463 . S
C2352 N2356 1.427 . S
C2353 H2343 0.929 . S
C2353 C2351 1.433 . S
C2353 N2356 1.384 . S
C2354 H2345 0.929 . S
C2354 C2346 1.378 . S
C2354 C2349 1.350 . S
C2355 H2342 0.929 . S
C2355 C2347 1.433 . S
C2355 N2357 1.384 . S
N2356 C2352 1.427 . S
N2356 C2353 1.384 . S
N2357 C2349 1.427 . S
N2357 C2355 1.384 . S
H2358 C2364 0.930 . S
H2359 C2368 0.930 . S
H2360 C2373 0.929 . S
H2361 C2371 0.929 . S
H2362 C2366 0.929 . S
H2363 C2372 0.929 . S
C2364 H2358 0.930 . S
C2364 C2365 1.367 . S
C2364 C2372 1.378 . S
C2365 C2364 1.367 . S
C2365 C2373 1.433 . S
C2366 H2362 0.929 . S
C2366 C2368 1.378 . S
C2366 C2370 1.350 . S
C2367 C2370 1.463 . S
C2367 C2372 1.350 . S
C2367 N2375 1.427 . S
C2368 H2359 0.930 . S
C2368 C2366 1.378 . S
C2368 C2369 1.367 . S
C2369 C2368 1.367 . S
C2369 C2371 1.433 . S
C2370 C2366 1.350 . S
C2370 C2367 1.463 . S
C2370 N2374 1.427 . S
C2371 H2361 0.929 . S
C2371 C2369 1.433 . S
C2371 N2374 1.384 . S
C2372 H2363 0.929 . S
C2372 C2364 1.378 . S
C2372 C2367 1.350 . S
C2373 H2360 0.929 . S
C2373 C2365 1.433 . S
C2373 N2375 1.384 . S
N2374 C2370 1.427 . S
N2374 C2371 1.384 . S
N2375 C2367 1.427 . S
N2375 C2373 1.384 . S
H2376 C2382 0.930 . S
H2377 C2386 0.930 . S
H2378 C2391 0.929 . S
H2379 C2389 0.929 . S
H2380 C2384 0.929 . S
H2381 C2390 0.929 . S
C2382 H2376 0.930 . S
C2382 C2383 1.367 . S
C2382 C2390 1.378 . S
C2383 C2382 1.367 . S
C2383 C2391 1.433 . S
C2384 H2380 0.929 . S
C2384 C2386 1.378 . S
C2384 C2388 1.350 . S
C2385 C2388 1.463 . S
C2385 C2390 1.350 . S
C2385 N2393 1.427 . S
C2386 H2377 0.930 . S
C2386 C2384 1.378 . S
C2386 C2387 1.367 . S
C2387 C2386 1.367 . S
C2387 C2389 1.433 . S
C2388 C2384 1.350 . S
C2388 C2385 1.463 . S
C2388 N2392 1.427 . S
C2389 H2379 0.929 . S
C2389 C2387 1.433 . S
C2389 N2392 1.384 . S
C2390 H2381 0.929 . S
C2390 C2382 1.378 . S
C2390 C2385 1.350 . S
C2391 H2378 0.929 . S
C2391 C2383 1.433 . S
C2391 N2393 1.384 . S
N2392 C2388 1.427 . S
N2392 C2389 1.384 . S
N2393 C2385 1.427 . S
N2393 C2391 1.384 . S
H2394 C2400 0.930 . S
H2395 C2404 0.930 . S
H2396 C2409 0.929 . S
H2397 C2407 0.929 . S
H2398 C2402 0.929 . S
H2399 C2408 0.929 . S
C2400 H2394 0.930 . S
C2400 C2401 1.367 . S
C2400 C2408 1.378 . S
C2401 C2400 1.367 . S
C2401 C2409 1.433 . S
C2402 H2398 0.929 . S
C2402 C2404 1.378 . S
C2402 C2406 1.350 . S
C2403 C2406 1.463 . S
C2403 C2408 1.350 . S
C2403 N2411 1.427 . S
C2404 H2395 0.930 . S
C2404 C2402 1.378 . S
C2404 C2405 1.367 . S
C2405 C2404 1.367 . S
C2405 C2407 1.433 . S
C2406 C2402 1.350 . S
C2406 C2403 1.463 . S
C2406 N2410 1.427 . S
C2407 H2397 0.929 . S
C2407 C2405 1.433 . S
C2407 N2410 1.384 . S
C2408 H2399 0.929 . S
C2408 C2400 1.378 . S
C2408 C2403 1.350 . S
C2409 H2396 0.929 . S
C2409 C2401 1.433 . S
C2409 N2411 1.384 . S
N2410 C2406 1.427 . S
N2410 C2407 1.384 . S
N2411 C2403 1.427 . S
N2411 C2409 1.384 . S
H2412 C2418 0.930 . S
H2413 C2422 0.930 . S
H2414 C2427 0.929 . S
H2415 C2425 0.929 . S
H2416 C2420 0.929 . S
H2417 C2426 0.929 . S
C2418 H2412 0.930 . S
C2418 C2419 1.367 . S
C2418 C2426 1.378 . S
C2419 C2418 1.367 . S
C2419 C2427 1.433 . S
C2420 H2416 0.929 . S
C2420 C2422 1.378 . S
C2420 C2424 1.350 . S
C2421 C2424 1.463 . S
C2421 C2426 1.350 . S
C2421 N2429 1.427 . S
C2422 H2413 0.930 . S
C2422 C2420 1.378 . S
C2422 C2423 1.367 . S
C2423 C2422 1.367 . S
C2423 C2425 1.433 . S
C2424 C2420 1.350 . S
C2424 C2421 1.463 . S
C2424 N2428 1.427 . S
C2425 H2415 0.929 . S
C2425 C2423 1.433 . S
C2425 N2428 1.384 . S
C2426 H2417 0.929 . S
C2426 C2418 1.378 . S
C2426 C2421 1.350 . S
C2427 H2414 0.929 . S
C2427 C2419 1.433 . S
C2427 N2429 1.384 . S
N2428 C2424 1.427 . S
N2428 C2425 1.384 . S
N2429 C2421 1.427 . S
N2429 C2427 1.384 . S
H2430 C2436 0.930 . S
H2431 C2440 0.930 . S
H2432 C2445 0.929 . S
H2433 C2443 0.929 . S
H2434 C2438 0.929 . S
H2435 C2444 0.929 . S
C2436 H2430 0.930 . S
C2436 C2437 1.367 . S
C2436 C2444 1.378 . S
C2437 C2436 1.367 . S
C2437 C2445 1.433 . S
C2438 H2434 0.929 . S
C2438 C2440 1.378 . S
C2438 C2442 1.350 . S
C2439 C2442 1.463 . S
C2439 C2444 1.350 . S
C2439 N2447 1.427 . S
C2440 H2431 0.930 . S
C2440 C2438 1.378 . S
C2440 C2441 1.367 . S
C2441 C2440 1.367 . S
C2441 C2443 1.433 . S
C2442 C2438 1.350 . S
C2442 C2439 1.463 . S
C2442 N2446 1.427 . S
C2443 H2433 0.929 . S
C2443 C2441 1.433 . S
C2443 N2446 1.384 . S
C2444 H2435 0.929 . S
C2444 C2436 1.378 . S
C2444 C2439 1.350 . S
C2445 H2432 0.929 . S
C2445 C2437 1.433 . S
C2445 N2447 1.384 . S
N2446 C2442 1.427 . S
N2446 C2443 1.384 . S
N2447 C2439 1.427 . S
N2447 C2445 1.384 . S
H2448 C2454 0.930 . S
H2449 C2458 0.930 . S
H2450 C2463 0.929 . S
H2451 C2461 0.929 . S
H2452 C2456 0.929 . S
H2453 C2462 0.929 . S
C2454 H2448 0.930 . S
C2454 C2455 1.367 . S
C2454 C2462 1.378 . S
C2455 C2454 1.367 . S
C2455 C2463 1.433 . S
C2456 H2452 0.929 . S
C2456 C2458 1.378 . S
C2456 C2460 1.350 . S
C2457 C2460 1.463 . S
C2457 C2462 1.350 . S
C2457 N2465 1.427 . S
C2458 H2449 0.930 . S
C2458 C2456 1.378 . S
C2458 C2459 1.367 . S
C2459 C2458 1.367 . S
C2459 C2461 1.433 . S
C2460 C2456 1.350 . S
C2460 C2457 1.463 . S
C2460 N2464 1.427 . S
C2461 H2451 0.929 . S
C2461 C2459 1.433 . S
C2461 N2464 1.384 . S
C2462 H2453 0.929 . S
C2462 C2454 1.378 . S
C2462 C2457 1.350 . S
C2463 H2450 0.929 . S
C2463 C2455 1.433 . S
C2463 N2465 1.384 . S
N2464 C2460 1.427 . S
N2464 C2461 1.384 . S
N2465 C2457 1.427 . S
N2465 C2463 1.384 . S
H2466 C2472 0.930 . S
H2467 C2476 0.930 . S
H2468 C2481 0.929 . S
H2469 C2479 0.929 . S
H2470 C2474 0.929 . S
H2471 C2480 0.929 . S
C2472 H2466 0.930 . S
C2472 C2473 1.367 . S
C2472 C2480 1.378 . S
C2473 C2472 1.367 . S
C2473 C2481 1.433 . S
C2474 H2470 0.929 . S
C2474 C2476 1.378 . S
C2474 C2478 1.350 . S
C2475 C2478 1.463 . S
C2475 C2480 1.350 . S
C2475 N2483 1.427 . S
C2476 H2467 0.930 . S
C2476 C2474 1.378 . S
C2476 C2477 1.367 . S
C2477 C2476 1.367 . S
C2477 C2479 1.433 . S
C2478 C2474 1.350 . S
C2478 C2475 1.463 . S
C2478 N2482 1.427 . S
C2479 H2469 0.929 . S
C2479 C2477 1.433 . S
C2479 N2482 1.384 . S
C2480 H2471 0.929 . S
C2480 C2472 1.378 . S
C2480 C2475 1.350 . S
C2481 H2468 0.929 . S
C2481 C2473 1.433 . S
C2481 N2483 1.384 . S
N2482 C2478 1.427 . S
N2482 C2479 1.384 . S
N2483 C2475 1.427 . S
N2483 C2481 1.384 . S
H2484 C2490 0.930 . S
H2485 C2494 0.930 . S
H2486 C2499 0.929 . S
H2487 C2497 0.929 . S
H2488 C2492 0.929 . S
H2489 C2498 0.929 . S
C2490 H2484 0.930 . S
C2490 C2491 1.367 . S
C2490 C2498 1.378 . S
C2491 C2490 1.367 . S
C2491 C2499 1.433 . S
C2492 H2488 0.929 . S
C2492 C2494 1.378 . S
C2492 C2496 1.350 . S
C2493 C2496 1.463 . S
C2493 C2498 1.350 . S
C2493 N2501 1.427 . S
C2494 H2485 0.930 . S
C2494 C2492 1.378 . S
C2494 C2495 1.367 . S
C2495 C2494 1.367 . S
C2495 C2497 1.433 . S
C2496 C2492 1.350 . S
C2496 C2493 1.463 . S
C2496 N2500 1.427 . S
C2497 H2487 0.929 . S
C2497 C2495 1.433 . S
C2497 N2500 1.384 . S
C2498 H2489 0.929 . S
C2498 C2490 1.378 . S
C2498 C2493 1.350 . S
C2499 H2486 0.929 . S
C2499 C2491 1.433 . S
C2499 N2501 1.384 . S
N2500 C2496 1.427 . S
N2500 C2497 1.384 . S
N2501 C2493 1.427 . S
N2501 C2499 1.384 . S
H2502 C2508 0.930 . S
H2503 C2512 0.930 . S
H2504 C2517 0.929 . S
H2505 C2515 0.929 . S
H2506 C2510 0.929 . S
H2507 C2516 0.929 . S
C2508 H2502 0.930 . S
C2508 C2509 1.367 . S
C2508 C2516 1.378 . S
C2509 C2508 1.367 . S
C2509 C2517 1.433 . S
C2510 H2506 0.929 . S
C2510 C2512 1.378 . S
C2510 C2514 1.350 . S
C2511 C2514 1.463 . S
C2511 C2516 1.350 . S
C2511 N2519 1.427 . S
C2512 H2503 0.930 . S
C2512 C2510 1.378 . S
C2512 C2513 1.367 . S
C2513 C2512 1.367 . S
C2513 C2515 1.433 . S
C2514 C2510 1.350 . S
C2514 C2511 1.463 . S
C2514 N2518 1.427 . S
C2515 H2505 0.929 . S
C2515 C2513 1.433 . S
C2515 N2518 1.384 . S
C2516 H2507 0.929 . S
C2516 C2508 1.378 . S
C2516 C2511 1.350 . S
C2517 H2504 0.929 . S
C2517 C2509 1.433 . S
C2517 N2519 1.384 . S
N2518 C2514 1.427 . S
N2518 C2515 1.384 . S
N2519 C2511 1.427 . S
N2519 C2517 1.384 . S
H2520 C2526 0.930 . S
H2521 C2530 0.930 . S
H2522 C2535 0.929 . S
H2523 C2533 0.929 . S
H2524 C2528 0.929 . S
H2525 C2534 0.929 . S
C2526 H2520 0.930 . S
C2526 C2527 1.367 . S
C2526 C2534 1.378 . S
C2527 C2526 1.367 . S
C2527 C2535 1.433 . S
C2528 H2524 0.929 . S
C2528 C2530 1.378 . S
C2528 C2532 1.350 . S
C2529 C2532 1.463 . S
C2529 C2534 1.350 . S
C2529 N2537 1.427 . S
C2530 H2521 0.930 . S
C2530 C2528 1.378 . S
C2530 C2531 1.367 . S
C2531 C2530 1.367 . S
C2531 C2533 1.433 . S
C2532 C2528 1.350 . S
C2532 C2529 1.463 . S
C2532 N2536 1.427 . S
C2533 H2523 0.929 . S
C2533 C2531 1.433 . S
C2533 N2536 1.384 . S
C2534 H2525 0.929 . S
C2534 C2526 1.378 . S
C2534 C2529 1.350 . S
C2535 H2522 0.929 . S
C2535 C2527 1.433 . S
C2535 N2537 1.384 . S
N2536 C2532 1.427 . S
N2536 C2533 1.384 . S
N2537 C2529 1.427 . S
N2537 C2535 1.384 . S
H2538 C2544 0.930 . S
H2539 C2548 0.930 . S
H2540 C2553 0.929 . S
H2541 C2551 0.929 . S
H2542 C2546 0.929 . S
H2543 C2552 0.929 . S
C2544 H2538 0.930 . S
C2544 C2545 1.367 . S
C2544 C2552 1.378 . S
C2545 C2544 1.367 . S
C2545 C2553 1.433 . S
C2546 H2542 0.929 . S
C2546 C2548 1.378 . S
C2546 C2550 1.350 . S
C2547 C2550 1.463 . S
C2547 C2552 1.350 . S
C2547 N2555 1.427 . S
C2548 H2539 0.930 . S
C2548 C2546 1.378 . S
C2548 C2549 1.367 . S
C2549 C2548 1.367 . S
C2549 C2551 1.433 . S
C2550 C2546 1.350 . S
C2550 C2547 1.463 . S
C2550 N2554 1.427 . S
C2551 H2541 0.929 . S
C2551 C2549 1.433 . S
C2551 N2554 1.384 . S
C2552 H2543 0.929 . S
C2552 C2544 1.378 . S
C2552 C2547 1.350 . S
C2553 H2540 0.929 . S
C2553 C2545 1.433 . S
C2553 N2555 1.384 . S
N2554 C2550 1.427 . S
N2554 C2551 1.384 . S
N2555 C2547 1.427 . S
N2555 C2553 1.384 . S
H2556 C2562 0.930 . S
H2557 C2566 0.930 . S
H2558 C2571 0.929 . S
H2559 C2569 0.929 . S
H2560 C2564 0.929 . S
H2561 C2570 0.929 . S
C2562 H2556 0.930 . S
C2562 C2563 1.367 . S
C2562 C2570 1.378 . S
C2563 C2562 1.367 . S
C2563 C2571 1.433 . S
C2564 H2560 0.929 . S
C2564 C2566 1.378 . S
C2564 C2568 1.350 . S
C2565 C2568 1.463 . S
C2565 C2570 1.350 . S
C2565 N2573 1.427 . S
C2566 H2557 0.930 . S
C2566 C2564 1.378 . S
C2566 C2567 1.367 . S
C2567 C2566 1.367 . S
C2567 C2569 1.433 . S
C2568 C2564 1.350 . S
C2568 C2565 1.463 . S
C2568 N2572 1.427 . S
C2569 H2559 0.929 . S
C2569 C2567 1.433 . S
C2569 N2572 1.384 . S
C2570 H2561 0.929 . S
C2570 C2562 1.378 . S
C2570 C2565 1.350 . S
C2571 H2558 0.929 . S
C2571 C2563 1.433 . S
C2571 N2573 1.384 . S
N2572 C2568 1.427 . S
N2572 C2569 1.384 . S
N2573 C2565 1.427 . S
N2573 C2571 1.384 . S
H2574 C2580 0.930 . S
H2575 C2584 0.930 . S
H2576 C2589 0.929 . S
H2577 C2587 0.929 . S
H2578 C2582 0.929 . S
H2579 C2588 0.929 . S
C2580 H2574 0.930 . S
C2580 C2581 1.367 . S
C2580 C2588 1.378 . S
C2581 C2580 1.367 . S
C2581 C2589 1.433 . S
C2582 H2578 0.929 . S
C2582 C2584 1.378 . S
C2582 C2586 1.350 . S
C2583 C2586 1.463 . S
C2583 C2588 1.350 . S
C2583 N2591 1.427 . S
C2584 H2575 0.930 . S
C2584 C2582 1.378 . S
C2584 C2585 1.367 . S
C2585 C2584 1.367 . S
C2585 C2587 1.433 . S
C2586 C2582 1.350 . S
C2586 C2583 1.463 . S
C2586 N2590 1.427 . S
C2587 H2577 0.929 . S
C2587 C2585 1.433 . S
C2587 N2590 1.384 . S
C2588 H2579 0.929 . S
C2588 C2580 1.378 . S
C2588 C2583 1.350 . S
C2589 H2576 0.929 . S
C2589 C2581 1.433 . S
C2589 N2591 1.384 . S
N2590 C2586 1.427 . S
N2590 C2587 1.384 . S
N2591 C2583 1.427 . S
N2591 C2589 1.384 . S
H2592 C2598 0.930 . S
H2593 C2602 0.930 . S
H2594 C2607 0.929 . S
H2595 C2605 0.929 . S
H2596 C2600 0.929 . S
H2597 C2606 0.929 . S
C2598 H2592 0.930 . S
C2598 C2599 1.367 . S
C2598 C2606 1.378 . S
C2599 C2598 1.367 . S
C2599 C2607 1.433 . S
C2600 H2596 0.929 . S
C2600 C2602 1.378 . S
C2600 C2604 1.350 . S
C2601 C2604 1.463 . S
C2601 C2606 1.350 . S
C2601 N2609 1.427 . S
C2602 H2593 0.930 . S
C2602 C2600 1.378 . S
C2602 C2603 1.367 . S
C2603 C2602 1.367 . S
C2603 C2605 1.433 . S
C2604 C2600 1.350 . S
C2604 C2601 1.463 . S
C2604 N2608 1.427 . S
C2605 H2595 0.929 . S
C2605 C2603 1.433 . S
C2605 N2608 1.384 . S
C2606 H2597 0.929 . S
C2606 C2598 1.378 . S
C2606 C2601 1.350 . S
C2607 H2594 0.929 . S
C2607 C2599 1.433 . S
C2607 N2609 1.384 . S
N2608 C2604 1.427 . S
N2608 C2605 1.384 . S
N2609 C2601 1.427 . S
N2609 C2607 1.384 . S
H2610 C2616 0.930 . S
H2611 C2620 0.930 . S
H2612 C2625 0.929 . S
H2613 C2623 0.929 . S
H2614 C2618 0.929 . S
H2615 C2624 0.929 . S
C2616 H2610 0.930 . S
C2616 C2617 1.367 . S
C2616 C2624 1.378 . S
C2617 C2616 1.367 . S
C2617 C2625 1.433 . S
C2618 H2614 0.929 . S
C2618 C2620 1.378 . S
C2618 C2622 1.350 . S
C2619 C2622 1.463 . S
C2619 C2624 1.350 . S
C2619 N2627 1.427 . S
C2620 H2611 0.930 . S
C2620 C2618 1.378 . S
C2620 C2621 1.367 . S
C2621 C2620 1.367 . S
C2621 C2623 1.433 . S
C2622 C2618 1.350 . S
C2622 C2619 1.463 . S
C2622 N2626 1.427 . S
C2623 H2613 0.929 . S
C2623 C2621 1.433 . S
C2623 N2626 1.384 . S
C2624 H2615 0.929 . S
C2624 C2616 1.378 . S
C2624 C2619 1.350 . S
C2625 H2612 0.929 . S
C2625 C2617 1.433 . S
C2625 N2627 1.384 . S
N2626 C2622 1.427 . S
N2626 C2623 1.384 . S
N2627 C2619 1.427 . S
N2627 C2625 1.384 . S
H2628 C2634 0.930 . S
H2629 C2638 0.930 . S
H2630 C2643 0.929 . S
H2631 C2641 0.929 . S
H2632 C2636 0.929 . S
H2633 C2642 0.929 . S
C2634 H2628 0.930 . S
C2634 C2635 1.367 . S
C2634 C2642 1.378 . S
C2635 C2634 1.367 . S
C2635 C2643 1.433 . S
C2636 H2632 0.929 . S
C2636 C2638 1.378 . S
C2636 C2640 1.350 . S
C2637 C2640 1.463 . S
C2637 C2642 1.350 . S
C2637 N2645 1.427 . S
C2638 H2629 0.930 . S
C2638 C2636 1.378 . S
C2638 C2639 1.367 . S
C2639 C2638 1.367 . S
C2639 C2641 1.433 . S
C2640 C2636 1.350 . S
C2640 C2637 1.463 . S
C2640 N2644 1.427 . S
C2641 H2631 0.929 . S
C2641 C2639 1.433 . S
C2641 N2644 1.384 . S
C2642 H2633 0.929 . S
C2642 C2634 1.378 . S
C2642 C2637 1.350 . S
C2643 H2630 0.929 . S
C2643 C2635 1.433 . S
C2643 N2645 1.384 . S
N2644 C2640 1.427 . S
N2644 C2641 1.384 . S
N2645 C2637 1.427 . S
N2645 C2643 1.384 . S
H2646 C2652 0.930 . S
H2647 C2656 0.930 . S
H2648 C2661 0.929 . S
H2649 C2659 0.929 . S
H2650 C2654 0.929 . S
H2651 C2660 0.929 . S
C2652 H2646 0.930 . S
C2652 C2653 1.367 . S
C2652 C2660 1.378 . S
C2653 C2652 1.367 . S
C2653 C2661 1.433 . S
C2654 H2650 0.929 . S
C2654 C2656 1.378 . S
C2654 C2658 1.350 . S
C2655 C2658 1.463 . S
C2655 C2660 1.350 . S
C2655 N2663 1.427 . S
C2656 H2647 0.930 . S
C2656 C2654 1.378 . S
C2656 C2657 1.367 . S
C2657 C2656 1.367 . S
C2657 C2659 1.433 . S
C2658 C2654 1.350 . S
C2658 C2655 1.463 . S
C2658 N2662 1.427 . S
C2659 H2649 0.929 . S
C2659 C2657 1.433 . S
C2659 N2662 1.384 . S
C2660 H2651 0.929 . S
C2660 C2652 1.378 . S
C2660 C2655 1.350 . S
C2661 H2648 0.929 . S
C2661 C2653 1.433 . S
C2661 N2663 1.384 . S
N2662 C2658 1.427 . S
N2662 C2659 1.384 . S
N2663 C2655 1.427 . S
N2663 C2661 1.384 . S
H2664 C2670 0.930 . S
H2665 C2674 0.930 . S
H2666 C2679 0.929 . S
H2667 C2677 0.929 . S
H2668 C2672 0.929 . S
H2669 C2678 0.929 . S
C2670 H2664 0.930 . S
C2670 C2671 1.367 . S
C2670 C2678 1.378 . S
C2671 C2670 1.367 . S
C2671 C2679 1.433 . S
C2672 H2668 0.929 . S
C2672 C2674 1.378 . S
C2672 C2676 1.350 . S
C2673 C2676 1.463 . S
C2673 C2678 1.350 . S
C2673 N2681 1.427 . S
C2674 H2665 0.930 . S
C2674 C2672 1.378 . S
C2674 C2675 1.367 . S
C2675 C2674 1.367 . S
C2675 C2677 1.433 . S
C2676 C2672 1.350 . S
C2676 C2673 1.463 . S
C2676 N2680 1.427 . S
C2677 H2667 0.929 . S
C2677 C2675 1.433 . S
C2677 N2680 1.384 . S
C2678 H2669 0.929 . S
C2678 C2670 1.378 . S
C2678 C2673 1.350 . S
C2679 H2666 0.929 . S
C2679 C2671 1.433 . S
C2679 N2681 1.384 . S
N2680 C2676 1.427 . S
N2680 C2677 1.384 . S
N2681 C2673 1.427 . S
N2681 C2679 1.384 . S
H2682 C2688 0.930 . S
H2683 C2692 0.930 . S
H2684 C2697 0.929 . S
H2685 C2695 0.929 . S
H2686 C2690 0.929 . S
H2687 C2696 0.929 . S
C2688 H2682 0.930 . S
C2688 C2689 1.367 . S
C2688 C2696 1.378 . S
C2689 C2688 1.367 . S
C2689 C2697 1.433 1_554 S
C2690 H2686 0.929 . S
C2690 C2692 1.378 . S
C2690 C2694 1.350 . S
C2691 C2694 1.463 . S
C2691 C2696 1.350 1_556 S
C2691 N2699 1.427 . S
C2692 H2683 0.930 . S
C2692 C2690 1.378 . S
C2692 C2693 1.367 . S
C2693 C2692 1.367 . S
C2693 C2695 1.433 . S
C2694 C2690 1.350 . S
C2694 C2691 1.463 . S
C2694 N2698 1.427 . S
C2695 H2685 0.929 . S
C2695 C2693 1.433 . S
C2695 N2698 1.384 . S
C2696 H2687 0.929 . S
C2696 C2688 1.378 . S
C2696 C2691 1.350 1_554 S
C2697 H2684 0.929 . S
C2697 C2689 1.433 1_556 S
C2697 N2699 1.384 . S
N2698 C2694 1.427 . S
N2698 C2695 1.384 . S
N2699 C2691 1.427 . S
N2699 C2697 1.384 . S
H2700 C2706 0.930 . S
H2701 C2710 0.930 . S
H2702 C2715 0.929 1_554 S
H2703 C2713 0.929 . S
H2704 C2708 0.929 . S
H2705 C2714 0.929 . S
C2706 H2700 0.930 . S
C2706 C2707 1.367 . S
C2706 C2714 1.378 . S
C2707 C2706 1.367 . S
C2707 C2715 1.433 . S
C2708 H2704 0.929 . S
C2708 C2710 1.378 . S
C2708 C2712 1.350 . S
C2709 C2712 1.463 . S
C2709 C2714 1.350 . S
C2709 N2717 1.427 . S
C2710 H2701 0.930 . S
C2710 C2708 1.378 . S
C2710 C2711 1.367 . S
C2711 C2710 1.367 . S
C2711 C2713 1.433 . S
C2712 C2708 1.350 . S
C2712 C2709 1.463 . S
C2712 N2716 1.427 . S
C2713 H2703 0.929 . S
C2713 C2711 1.433 . S
C2713 N2716 1.384 . S
C2714 H2705 0.929 . S
C2714 C2706 1.378 . S
C2714 C2709 1.350 . S
C2715 H2702 0.929 1_556 S
C2715 C2707 1.433 . S
C2715 N2717 1.384 . S
N2716 C2712 1.427 . S
N2716 C2713 1.384 . S
N2717 C2709 1.427 . S
N2717 C2715 1.384 . S
H2718 C2724 0.930 . S
H2719 C2728 0.930 . S
H2720 C2733 0.929 . S
H2721 C2731 0.929 . S
H2722 C2726 0.929 . S
H2723 C2732 0.929 . S
C2724 H2718 0.930 . S
C2724 C2725 1.367 . S
C2724 C2732 1.378 . S
C2725 C2724 1.367 . S
C2725 C2733 1.433 . S
C2726 H2722 0.929 . S
C2726 C2728 1.378 . S
C2726 C2730 1.350 1_556 S
C2727 C2730 1.463 . S
C2727 C2732 1.350 . S
C2727 N2735 1.427 . S
C2728 H2719 0.930 . S
C2728 C2726 1.378 . S
C2728 C2729 1.367 . S
C2729 C2728 1.367 . S
C2729 C2731 1.433 1_556 S
C2730 C2726 1.350 1_554 S
C2730 C2727 1.463 . S
C2730 N2734 1.427 . S
C2731 H2721 0.929 . S
C2731 C2729 1.433 1_554 S
C2731 N2734 1.384 . S
C2732 H2723 0.929 . S
C2732 C2724 1.378 . S
C2732 C2727 1.350 . S
C2733 H2720 0.929 . S
C2733 C2725 1.433 . S
C2733 N2735 1.384 . S
N2734 C2730 1.427 . S
N2734 C2731 1.384 . S
N2735 C2727 1.427 . S
N2735 C2733 1.384 . S
H2736 C2742 0.930 . S
H2737 C2746 0.930 . S
H2738 C2751 0.929 . S
H2739 C2749 0.929 . S
H2740 C2744 0.929 . S
H2741 C2750 0.929 . S
C2742 H2736 0.930 . S
C2742 C2743 1.367 . S
C2742 C2750 1.378 . S
C2743 C2742 1.367 . S
C2743 C2751 1.433 1_554 S
C2744 H2740 0.929 . S
C2744 C2746 1.378 . S
C2744 C2748 1.350 . S
C2745 C2748 1.463 . S
C2745 C2750 1.350 1_556 S
C2745 N2753 1.427 . S
C2746 H2737 0.930 . S
C2746 C2744 1.378 . S
C2746 C2747 1.367 . S
C2747 C2746 1.367 . S
C2747 C2749 1.433 . S
C2748 C2744 1.350 . S
C2748 C2745 1.463 . S
C2748 N2752 1.427 . S
C2749 H2739 0.929 . S
C2749 C2747 1.433 . S
C2749 N2752 1.384 . S
C2750 H2741 0.929 . S
C2750 C2742 1.378 . S
C2750 C2745 1.350 1_554 S
C2751 H2738 0.929 . S
C2751 C2743 1.433 1_556 S
C2751 N2753 1.384 . S
N2752 C2748 1.427 . S
N2752 C2749 1.384 . S
N2753 C2745 1.427 . S
N2753 C2751 1.384 . S
H2754 C2760 0.930 . S
H2755 C2764 0.930 . S
H2756 C2769 0.929 . S
H2757 C2767 0.929 . S
H2758 C2762 0.929 . S
H2759 C2768 0.929 . S
C2760 H2754 0.930 . S
C2760 C2761 1.367 . S
C2760 C2768 1.378 . S
C2761 C2760 1.367 . S
C2761 C2769 1.433 . S
C2762 H2758 0.929 . S
C2762 C2764 1.378 . S
C2762 C2766 1.350 . S
C2763 C2766 1.463 . S
C2763 C2768 1.350 . S
C2763 N2771 1.427 . S
C2764 H2755 0.930 . S
C2764 C2762 1.378 . S
C2764 C2765 1.367 . S
C2765 C2764 1.367 . S
C2765 C2767 1.433 . S
C2766 C2762 1.350 . S
C2766 C2763 1.463 . S
C2766 N2770 1.427 . S
C2767 H2757 0.929 . S
C2767 C2765 1.433 . S
C2767 N2770 1.384 . S
C2768 H2759 0.929 . S
C2768 C2760 1.378 . S
C2768 C2763 1.350 . S
C2769 H2756 0.929 . S
C2769 C2761 1.433 . S
C2769 N2771 1.384 . S
N2770 C2766 1.427 . S
N2770 C2767 1.384 . S
N2771 C2763 1.427 . S
N2771 C2769 1.384 . S
H2772 C2778 0.930 . S
H2773 C2782 0.930 . S
H2774 C2787 0.929 . S
H2775 C2785 0.929 . S
H2776 C2780 0.929 . S
H2777 C2786 0.929 1_556 S
C2778 H2772 0.930 . S
C2778 C2779 1.367 . S
C2778 C2786 1.378 . S
C2779 C2778 1.367 . S
C2779 C2787 1.433 . S
C2780 H2776 0.929 . S
C2780 C2782 1.378 . S
C2780 C2784 1.350 . S
C2781 C2784 1.449 1_554 S
C2781 C2786 1.356 . S
C2781 N2789 1.436 . S
C2782 H2773 0.930 . S
C2782 C2780 1.378 . S
C2782 C2783 1.367 . S
C2783 C2782 1.367 . S
C2783 C2785 1.433 . S
C2784 C2780 1.350 . S
C2784 C2781 1.449 1_556 S
C2784 N2788 1.427 . S
C2785 H2775 0.929 . S
C2785 C2783 1.433 . S
C2785 N2788 1.384 . S
C2786 H2777 0.929 1_554 S
C2786 C2778 1.378 . S
C2786 C2781 1.356 . S
C2787 H2774 0.929 . S
C2787 C2779 1.433 . S
C2787 N2789 1.384 . S
N2788 C2784 1.427 . S
N2788 C2785 1.384 . S
N2789 C2781 1.436 . S
N2789 C2787 1.384 . S
H2790 C2796 0.930 . S
H2791 C2800 0.930 . S
H2792 C2805 0.929 . S
H2793 C2803 0.929 . S
H2794 C2798 0.929 . S
H2795 C2804 0.929 . S
C2796 H2790 0.930 . S
C2796 C2797 1.367 . S
C2796 C2804 1.378 . S
C2797 C2796 1.367 . S
C2797 C2805 1.433 . S
C2798 H2794 0.929 . S
C2798 C2800 1.378 . S
C2798 C2802 1.350 . S
C2799 C2802 1.463 . S
C2799 C2804 1.350 . S
C2799 N2807 1.427 . S
C2800 H2791 0.930 . S
C2800 C2798 1.378 . S
C2800 C2801 1.367 . S
C2801 C2800 1.367 . S
C2801 C2803 1.433 . S
C2802 C2798 1.350 . S
C2802 C2799 1.463 . S
C2802 N2806 1.427 . S
C2803 H2793 0.929 . S
C2803 C2801 1.433 . S
C2803 N2806 1.384 . S
C2804 H2795 0.929 . S
C2804 C2796 1.378 . S
C2804 C2799 1.350 . S
C2805 H2792 0.929 . S
C2805 C2797 1.433 . S
C2805 N2807 1.384 . S
N2806 C2802 1.427 . S
N2806 C2803 1.384 . S
N2807 C2799 1.427 . S
N2807 C2805 1.384 . S
H2808 C2814 0.930 . S
H2809 C2818 0.930 . S
H2810 C2823 0.929 . S
H2811 C2821 0.929 . S
H2812 C2816 0.929 . S
H2813 C2822 0.929 . S
C2814 H2808 0.930 . S
C2814 C2815 1.367 . S
C2814 C2822 1.378 . S
C2815 C2814 1.367 . S
C2815 C2823 1.433 . S
C2816 H2812 0.929 . S
C2816 C2818 1.378 . S
C2816 C2820 1.350 . S
C2817 C2820 1.463 . S
C2817 C2822 1.350 . S
C2817 N2825 1.427 . S
C2818 H2809 0.930 . S
C2818 C2816 1.378 . S
C2818 C2819 1.367 . S
C2819 C2818 1.367 . S
C2819 C2821 1.433 . S
C2820 C2816 1.350 . S
C2820 C2817 1.463 . S
C2820 N2824 1.427 . S
C2821 H2811 0.929 . S
C2821 C2819 1.433 . S
C2821 N2824 1.384 . S
C2822 H2813 0.929 . S
C2822 C2814 1.378 . S
C2822 C2817 1.350 . S
C2823 H2810 0.929 . S
C2823 C2815 1.433 . S
C2823 N2825 1.384 . S
N2824 C2820 1.427 . S
N2824 C2821 1.384 . S
N2825 C2817 1.427 . S
N2825 C2823 1.384 . S
H2826 C2832 0.930 . S
H2827 C2836 0.930 . S
H2828 C2841 0.929 . S
H2829 C2839 0.929 . S
H2830 C2834 0.929 . S
H2831 C2840 0.929 . S
C2832 H2826 0.930 . S
C2832 C2833 1.367 . S
C2832 C2840 1.378 . S
C2833 C2832 1.367 . S
C2833 C2841 1.433 . S
C2834 H2830 0.929 . S
C2834 C2836 1.378 . S
C2834 C2838 1.350 . S
C2835 C2838 1.463 . S
C2835 C2840 1.350 . S
C2835 N2843 1.427 . S
C2836 H2827 0.930 . S
C2836 C2834 1.378 . S
C2836 C2837 1.367 . S
C2837 C2836 1.367 . S
C2837 C2839 1.433 . S
C2838 C2834 1.350 . S
C2838 C2835 1.463 . S
C2838 N2842 1.427 . S
C2839 H2829 0.929 . S
C2839 C2837 1.433 . S
C2839 N2842 1.384 . S
C2840 H2831 0.929 . S
C2840 C2832 1.378 . S
C2840 C2835 1.350 . S
C2841 H2828 0.929 . S
C2841 C2833 1.433 . S
C2841 N2843 1.384 . S
N2842 C2838 1.427 . S
N2842 C2839 1.384 . S
N2843 C2835 1.427 . S
N2843 C2841 1.384 . S
H2844 C2850 0.930 . S
H2845 C2854 0.930 . S
H2846 C2859 0.929 . S
H2847 C2857 0.929 . S
H2848 C2852 0.929 . S
H2849 C2858 0.929 . S
C2850 H2844 0.930 . S
C2850 C2851 1.367 . S
C2850 C2858 1.378 . S
C2851 C2850 1.367 . S
C2851 C2859 1.433 . S
C2852 H2848 0.929 . S
C2852 C2854 1.378 . S
C2852 C2856 1.350 . S
C2853 C2856 1.463 . S
C2853 C2858 1.350 . S
C2853 N2861 1.427 . S
C2854 H2845 0.930 . S
C2854 C2852 1.378 . S
C2854 C2855 1.367 . S
C2855 C2854 1.367 . S
C2855 C2857 1.433 . S
C2856 C2852 1.350 . S
C2856 C2853 1.463 . S
C2856 N2860 1.427 . S
C2857 H2847 0.929 . S
C2857 C2855 1.433 . S
C2857 N2860 1.384 . S
C2858 H2849 0.929 . S
C2858 C2850 1.378 . S
C2858 C2853 1.350 . S
C2859 H2846 0.929 . S
C2859 C2851 1.433 . S
C2859 N2861 1.384 . S
N2860 C2856 1.427 . S
N2860 C2857 1.384 . S
N2861 C2853 1.427 . S
N2861 C2859 1.384 . S
H2862 C2868 0.930 . S
H2863 C2872 0.930 . S
H2864 C2877 0.929 . S
H2865 C2875 0.929 . S
H2866 C2870 0.929 . S
H2867 C2876 0.929 . S
C2868 H2862 0.930 . S
C2868 C2869 1.367 . S
C2868 C2876 1.378 . S
C2869 C2868 1.367 . S
C2869 C2877 1.433 . S
C2870 H2866 0.929 . S
C2870 C2872 1.378 . S
C2870 C2874 1.350 . S
C2871 C2874 1.463 . S
C2871 C2876 1.350 . S
C2871 N2879 1.427 . S
C2872 H2863 0.930 . S
C2872 C2870 1.378 . S
C2872 C2873 1.367 . S
C2873 C2872 1.367 . S
C2873 C2875 1.433 . S
C2874 C2870 1.350 . S
C2874 C2871 1.463 . S
C2874 N2878 1.427 . S
C2875 H2865 0.929 . S
C2875 C2873 1.433 . S
C2875 N2878 1.384 . S
C2876 H2867 0.929 . S
C2876 C2868 1.378 . S
C2876 C2871 1.350 . S
C2877 H2864 0.929 . S
C2877 C2869 1.433 . S
C2877 N2879 1.384 . S
N2878 C2874 1.427 . S
N2878 C2875 1.384 . S
N2879 C2871 1.427 . S
N2879 C2877 1.384 . S
H2880 C2886 0.930 . S
H2881 C2890 0.930 . S
H2882 C2895 0.929 . S
H2883 C2893 0.929 . S
H2884 C2888 0.929 . S
H2885 C2894 0.929 . S
C2886 H2880 0.930 . S
C2886 C2887 1.367 . S
C2886 C2894 1.378 . S
C2887 C2886 1.367 . S
C2887 C2895 1.433 . S
C2888 H2884 0.929 . S
C2888 C2890 1.378 . S
C2888 C2892 1.350 . S
C2889 C2892 1.463 . S
C2889 C2894 1.350 . S
C2889 N2897 1.427 . S
C2890 H2881 0.930 . S
C2890 C2888 1.378 . S
C2890 C2891 1.367 . S
C2891 C2890 1.367 . S
C2891 C2893 1.433 . S
C2892 C2888 1.350 . S
C2892 C2889 1.463 . S
C2892 N2896 1.427 . S
C2893 H2883 0.929 . S
C2893 C2891 1.433 . S
C2893 N2896 1.384 . S
C2894 H2885 0.929 . S
C2894 C2886 1.378 . S
C2894 C2889 1.350 . S
C2895 H2882 0.929 . S
C2895 C2887 1.433 . S
C2895 N2897 1.384 . S
N2896 C2892 1.427 . S
N2896 C2893 1.384 . S
N2897 C2889 1.427 . S
N2897 C2895 1.384 . S
H2898 C2904 0.930 . S
H2899 C2908 0.930 . S
H2900 C2913 0.929 . S
H2901 C2911 0.929 . S
H2902 C2906 0.929 . S
H2903 C2912 0.929 . S
C2904 H2898 0.930 . S
C2904 C2905 1.367 . S
C2904 C2912 1.378 . S
C2905 C2904 1.367 . S
C2905 C2913 1.433 . S
C2906 H2902 0.929 . S
C2906 C2908 1.378 . S
C2906 C2910 1.350 . S
C2907 C2910 1.463 . S
C2907 C2912 1.350 . S
C2907 N2915 1.427 . S
C2908 H2899 0.930 . S
C2908 C2906 1.378 . S
C2908 C2909 1.367 . S
C2909 C2908 1.367 . S
C2909 C2911 1.433 . S
C2910 C2906 1.350 . S
C2910 C2907 1.463 . S
C2910 N2914 1.427 . S
C2911 H2901 0.929 . S
C2911 C2909 1.433 . S
C2911 N2914 1.384 . S
C2912 H2903 0.929 . S
C2912 C2904 1.378 . S
C2912 C2907 1.350 . S
C2913 H2900 0.929 . S
C2913 C2905 1.433 . S
C2913 N2915 1.384 . S
N2914 C2910 1.427 . S
N2914 C2911 1.384 . S
N2915 C2907 1.427 . S
N2915 C2913 1.384 . S
H2916 C2922 0.930 . S
H2917 C2926 0.930 . S
H2918 C2931 0.929 . S
H2919 C2929 0.929 . S
H2920 C2924 0.929 . S
H2921 C2930 0.929 . S
C2922 H2916 0.930 . S
C2922 C2923 1.367 . S
C2922 C2930 1.378 . S
C2923 C2922 1.367 . S
C2923 C2931 1.433 . S
C2924 H2920 0.929 . S
C2924 C2926 1.378 . S
C2924 C2928 1.350 . S
C2925 C2928 1.463 . S
C2925 C2930 1.350 . S
C2925 N2933 1.427 . S
C2926 H2917 0.930 . S
C2926 C2924 1.378 . S
C2926 C2927 1.367 . S
C2927 C2926 1.367 . S
C2927 C2929 1.433 . S
C2928 C2924 1.350 . S
C2928 C2925 1.463 . S
C2928 N2932 1.427 . S
C2929 H2919 0.929 . S
C2929 C2927 1.433 . S
C2929 N2932 1.384 . S
C2930 H2921 0.929 . S
C2930 C2922 1.378 . S
C2930 C2925 1.350 . S
C2931 H2918 0.929 . S
C2931 C2923 1.433 . S
C2931 N2933 1.384 . S
N2932 C2928 1.427 . S
N2932 C2929 1.384 . S
N2933 C2925 1.427 . S
N2933 C2931 1.384 . S
H2934 C2940 0.930 . S
H2935 C2944 0.930 . S
H2936 C2949 0.929 . S
H2937 C2947 0.929 . S
H2938 C2942 0.929 . S
H2939 C2948 0.929 . S
C2940 H2934 0.930 . S
C2940 C2941 1.367 . S
C2940 C2948 1.378 . S
C2941 C2940 1.367 . S
C2941 C2949 1.433 . S
C2942 H2938 0.929 . S
C2942 C2944 1.378 . S
C2942 C2946 1.350 . S
C2943 C2946 1.463 . S
C2943 C2948 1.350 . S
C2943 N2951 1.427 . S
C2944 H2935 0.930 . S
C2944 C2942 1.378 . S
C2944 C2945 1.367 . S
C2945 C2944 1.367 . S
C2945 C2947 1.433 . S
C2946 C2942 1.350 . S
C2946 C2943 1.463 . S
C2946 N2950 1.427 . S
C2947 H2937 0.929 . S
C2947 C2945 1.433 . S
C2947 N2950 1.384 . S
C2948 H2939 0.929 . S
C2948 C2940 1.378 . S
C2948 C2943 1.350 . S
C2949 H2936 0.929 . S
C2949 C2941 1.433 . S
C2949 N2951 1.384 . S
N2950 C2946 1.427 . S
N2950 C2947 1.384 . S
N2951 C2943 1.427 . S
N2951 C2949 1.384 . S
H2952 C2958 0.930 . S
H2953 C2962 0.930 . S
H2954 C2967 0.929 1_545 S
H2955 C2965 0.929 . S
H2956 C2960 0.929 . S
H2957 C2966 0.929 . S
C2958 H2952 0.930 . S
C2958 C2959 1.367 . S
C2958 C2966 1.378 . S
C2959 C2958 1.367 . S
C2959 C2967 1.433 . S
C2960 H2956 0.929 . S
C2960 C2962 1.378 . S
C2960 C2964 1.350 1_545 S
C2961 C2964 1.463 . S
C2961 C2966 1.350 . S
C2961 N2969 1.408 1_565 S
C2962 H2953 0.930 . S
C2962 C2960 1.378 . S
C2962 C2963 1.385 . S
C2963 C2962 1.385 . S
C2963 C2965 1.382 1_545 S
C2964 C2960 1.350 1_565 S
C2964 C2961 1.463 . S
C2964 N2968 1.427 . S
C2965 H2955 0.929 . S
C2965 C2963 1.382 1_565 S
C2965 N2968 1.384 . S
C2966 H2957 0.929 . S
C2966 C2958 1.378 . S
C2966 C2961 1.350 . S
C2967 H2954 0.929 1_565 S
C2967 C2959 1.433 . S
C2967 N2969 1.347 1_565 S
N2968 C2964 1.427 . S
N2968 C2965 1.384 . S
N2969 C2961 1.408 1_545 S
N2969 C2967 1.347 1_545 S
H2970 C2976 0.930 . S
H2971 C2980 0.930 . S
H2972 C2985 0.929 . S
H2973 C2983 0.929 . S
H2974 C2978 0.929 . S
H2975 C2984 0.929 1_655 S
C2976 H2970 0.930 . S
C2976 C2977 1.367 . S
C2976 C2984 1.378 . S
C2977 C2976 1.367 . S
C2977 C2985 1.433 . S
C2978 H2974 0.929 . S
C2978 C2980 1.378 . S
C2978 C2982 1.350 . S
C2979 C2982 1.463 . S
C2979 C2984 1.350 . S
C2979 N2987 1.427 . S
C2980 H2971 0.930 . S
C2980 C2978 1.378 . S
C2980 C2981 1.359 1_455 S
C2981 C2980 1.359 1_655 S
C2981 C2983 1.443 . S
C2982 C2978 1.350 . S
C2982 C2979 1.463 . S
C2982 N2986 1.427 1_455 S
C2983 H2973 0.929 . S
C2983 C2981 1.443 . S
C2983 N2986 1.384 . S
C2984 H2975 0.929 1_455 S
C2984 C2976 1.378 . S
C2984 C2979 1.350 . S
C2985 H2972 0.929 . S
C2985 C2977 1.433 . S
C2985 N2987 1.384 . S
N2986 C2982 1.427 1_655 S
N2986 C2983 1.384 . S
N2987 C2979 1.427 . S
N2987 C2985 1.384 . S
H2988 C2994 0.930 . S
H2989 C2998 0.930 . S
H2990 C3003 0.929 . S
H2991 C3001 0.929 . S
H2992 C2996 0.929 . S
H2993 C3002 0.929 . S
C2994 H2988 0.930 . S
C2994 C2995 1.367 . S
C2994 C3002 1.378 . S
C2995 C2994 1.367 . S
C2995 C3003 1.433 . S
C2996 H2992 0.929 . S
C2996 C2998 1.378 . S
C2996 C3000 1.350 . S
C2997 C3000 1.463 . S
C2997 C3002 1.350 . S
C2997 N3005 1.427 . S
C2998 H2989 0.930 . S
C2998 C2996 1.378 . S
C2998 C2999 1.367 . S
C2999 C2998 1.367 . S
C2999 C3001 1.433 . S
C3000 C2996 1.350 . S
C3000 C2997 1.463 . S
C3000 N3004 1.427 . S
C3001 H2991 0.929 . S
C3001 C2999 1.433 . S
C3001 N3004 1.384 . S
C3002 H2993 0.929 . S
C3002 C2994 1.378 . S
C3002 C2997 1.350 . S
C3003 H2990 0.929 . S
C3003 C2995 1.433 . S
C3003 N3005 1.384 . S
N3004 C3000 1.427 . S
N3004 C3001 1.384 . S
N3005 C2997 1.427 . S
N3005 C3003 1.384 . S
H3006 C3012 0.930 . S
H3007 C3016 0.930 . S
H3008 C3021 0.929 . S
H3009 C3019 0.929 . S
H3010 C3014 0.929 . S
H3011 C3020 0.929 . S
C3012 H3006 0.930 . S
C3012 C3013 1.367 . S
C3012 C3020 1.378 . S
C3013 C3012 1.367 . S
C3013 C3021 1.433 . S
C3014 H3010 0.929 . S
C3014 C3016 1.378 . S
C3014 C3018 1.350 . S
C3015 C3018 1.463 . S
C3015 C3020 1.350 . S
C3015 N3023 1.427 . S
C3016 H3007 0.930 . S
C3016 C3014 1.378 . S
C3016 C3017 1.367 . S
C3017 C3016 1.367 . S
C3017 C3019 1.433 . S
C3018 C3014 1.350 . S
C3018 C3015 1.463 . S
C3018 N3022 1.427 . S
C3019 H3009 0.929 . S
C3019 C3017 1.433 . S
C3019 N3022 1.384 . S
C3020 H3011 0.929 . S
C3020 C3012 1.378 . S
C3020 C3015 1.350 . S
C3021 H3008 0.929 . S
C3021 C3013 1.433 . S
C3021 N3023 1.384 . S
N3022 C3018 1.427 . S
N3022 C3019 1.384 . S
N3023 C3015 1.427 . S
N3023 C3021 1.384 . S
H3024 C3030 0.930 . S
H3025 C3034 0.930 . S
H3026 C3039 0.929 . S
H3027 C3037 0.929 . S
H3028 C3032 0.929 . S
H3029 C3038 0.929 . S
C3030 H3024 0.930 . S
C3030 C3031 1.367 . S
C3030 C3038 1.378 . S
C3031 C3030 1.367 . S
C3031 C3039 1.433 . S
C3032 H3028 0.929 . S
C3032 C3034 1.378 . S
C3032 C3036 1.350 . S
C3033 C3036 1.463 . S
C3033 C3038 1.350 . S
C3033 N3041 1.427 . S
C3034 H3025 0.930 . S
C3034 C3032 1.378 . S
C3034 C3035 1.367 . S
C3035 C3034 1.367 . S
C3035 C3037 1.433 . S
C3036 C3032 1.350 . S
C3036 C3033 1.463 . S
C3036 N3040 1.427 . S
C3037 H3027 0.929 . S
C3037 C3035 1.433 . S
C3037 N3040 1.384 . S
C3038 H3029 0.929 . S
C3038 C3030 1.378 . S
C3038 C3033 1.350 . S
C3039 H3026 0.929 . S
C3039 C3031 1.433 . S
C3039 N3041 1.384 . S
N3040 C3036 1.427 . S
N3040 C3037 1.384 . S
N3041 C3033 1.427 . S
N3041 C3039 1.384 . S
H3042 C3048 0.930 . S
H3043 C3052 0.930 . S
H3044 C3057 0.929 . S
H3045 C3055 0.929 . S
H3046 C3050 0.929 . S
H3047 C3056 0.929 . S
C3048 H3042 0.930 . S
C3048 C3049 1.367 . S
C3048 C3056 1.378 . S
C3049 C3048 1.367 . S
C3049 C3057 1.433 . S
C3050 H3046 0.929 . S
C3050 C3052 1.378 . S
C3050 C3054 1.350 . S
C3051 C3054 1.463 . S
C3051 C3056 1.350 . S
C3051 N3059 1.427 . S
C3052 H3043 0.930 . S
C3052 C3050 1.378 . S
C3052 C3053 1.367 . S
C3053 C3052 1.367 . S
C3053 C3055 1.433 . S
C3054 C3050 1.350 . S
C3054 C3051 1.463 . S
C3054 N3058 1.427 . S
C3055 H3045 0.929 . S
C3055 C3053 1.433 . S
C3055 N3058 1.384 . S
C3056 H3047 0.929 . S
C3056 C3048 1.378 . S
C3056 C3051 1.350 . S
C3057 H3044 0.929 . S
C3057 C3049 1.433 . S
C3057 N3059 1.384 . S
N3058 C3054 1.427 . S
N3058 C3055 1.384 . S
N3059 C3051 1.427 . S
N3059 C3057 1.384 . S
H3060 C3066 0.930 . S
H3061 C3070 0.930 . S
H3062 C3075 0.929 . S
H3063 C3073 0.929 . S
H3064 C3068 0.929 . S
H3065 C3074 0.929 . S
C3066 H3060 0.930 . S
C3066 C3067 1.367 . S
C3066 C3074 1.378 . S
C3067 C3066 1.367 . S
C3067 C3075 1.433 . S
C3068 H3064 0.929 . S
C3068 C3070 1.378 . S
C3068 C3072 1.350 . S
C3069 C3072 1.463 . S
C3069 C3074 1.350 . S
C3069 N3077 1.427 . S
C3070 H3061 0.930 . S
C3070 C3068 1.378 . S
C3070 C3071 1.367 . S
C3071 C3070 1.367 . S
C3071 C3073 1.433 . S
C3072 C3068 1.350 . S
C3072 C3069 1.463 . S
C3072 N3076 1.427 . S
C3073 H3063 0.929 . S
C3073 C3071 1.433 . S
C3073 N3076 1.384 . S
C3074 H3065 0.929 . S
C3074 C3066 1.378 . S
C3074 C3069 1.350 . S
C3075 H3062 0.929 . S
C3075 C3067 1.433 . S
C3075 N3077 1.384 . S
N3076 C3072 1.427 . S
N3076 C3073 1.384 . S
N3077 C3069 1.427 . S
N3077 C3075 1.384 . S
H3078 C3084 0.930 . S
H3079 C3088 0.930 1_455 S
H3080 C3093 0.929 . S
H3081 C3091 0.929 . S
H3082 C3086 0.929 1_455 S
H3083 C3092 0.929 . S
C3084 H3078 0.930 . S
C3084 C3085 1.367 . S
C3084 C3092 1.378 . S
C3085 C3084 1.367 . S
C3085 C3093 1.433 . S
C3086 H3082 0.929 1_655 S
C3086 C3088 1.378 . S
C3086 C3090 1.350 . S
C3087 C3090 1.463 . S
C3087 C3092 1.350 . S
C3087 N3095 1.427 . S
C3088 H3079 0.930 1_655 S
C3088 C3086 1.378 . S
C3088 C3089 1.367 . S
C3089 C3088 1.367 . S
C3089 C3091 1.433 . S
C3090 C3086 1.350 . S
C3090 C3087 1.463 . S
C3090 N3094 1.427 . S
C3091 H3081 0.929 . S
C3091 C3089 1.433 . S
C3091 N3094 1.384 . S
C3092 H3083 0.929 . S
C3092 C3084 1.378 . S
C3092 C3087 1.350 . S
C3093 H3080 0.929 . S
C3093 C3085 1.433 . S
C3093 N3095 1.384 . S
N3094 C3090 1.427 . S
N3094 C3091 1.384 . S
N3095 C3087 1.427 . S
N3095 C3093 1.384 . S
H3096 C3102 0.930 . S
H3097 C3106 0.930 . S
H3098 C3111 0.929 . S
H3099 C3109 0.929 . S
H3100 C3104 0.929 . S
H3101 C3110 0.929 . S
C3102 H3096 0.930 . S
C3102 C3103 1.367 . S
C3102 C3110 1.378 . S
C3103 C3102 1.367 . S
C3103 C3111 1.433 . S
C3104 H3100 0.929 . S
C3104 C3106 1.378 . S
C3104 C3108 1.350 . S
C3105 C3108 1.463 . S
C3105 C3110 1.350 . S
C3105 N3113 1.427 . S
C3106 H3097 0.930 . S
C3106 C3104 1.378 . S
C3106 C3107 1.367 . S
C3107 C3106 1.367 . S
C3107 C3109 1.433 . S
C3108 C3104 1.350 . S
C3108 C3105 1.463 . S
C3108 N3112 1.427 . S
C3109 H3099 0.929 . S
C3109 C3107 1.433 . S
C3109 N3112 1.384 . S
C3110 H3101 0.929 . S
C3110 C3102 1.378 . S
C3110 C3105 1.350 . S
C3111 H3098 0.929 . S
C3111 C3103 1.433 . S
C3111 N3113 1.384 . S
N3112 C3108 1.427 . S
N3112 C3109 1.384 . S
N3113 C3105 1.427 . S
N3113 C3111 1.384 . S
H3114 C3120 0.930 . S
H3115 C3124 0.930 . S
H3116 C3129 0.929 . S
H3117 C3127 0.929 . S
H3118 C3122 0.929 . S
H3119 C3128 0.929 . S
C3120 H3114 0.930 . S
C3120 C3121 1.367 . S
C3120 C3128 1.378 . S
C3121 C3120 1.367 . S
C3121 C3129 1.433 . S
C3122 H3118 0.929 . S
C3122 C3124 1.378 . S
C3122 C3126 1.350 . S
C3123 C3126 1.463 . S
C3123 C3128 1.350 . S
C3123 N3131 1.427 . S
C3124 H3115 0.930 . S
C3124 C3122 1.378 . S
C3124 C3125 1.367 . S
C3125 C3124 1.367 . S
C3125 C3127 1.433 . S
C3126 C3122 1.350 . S
C3126 C3123 1.463 . S
C3126 N3130 1.427 . S
C3127 H3117 0.929 . S
C3127 C3125 1.433 . S
C3127 N3130 1.384 . S
C3128 H3119 0.929 . S
C3128 C3120 1.378 . S
C3128 C3123 1.350 . S
C3129 H3116 0.929 . S
C3129 C3121 1.433 . S
C3129 N3131 1.384 . S
N3130 C3126 1.427 . S
N3130 C3127 1.384 . S
N3131 C3123 1.427 . S
N3131 C3129 1.384 . S
H3132 C3138 0.930 . S
H3133 C3142 0.930 . S
H3134 C3147 0.929 . S
H3135 C3145 0.929 . S
H3136 C3140 0.929 . S
H3137 C3146 0.929 . S
C3138 H3132 0.930 . S
C3138 C3139 1.367 . S
C3138 C3146 1.378 . S
C3139 C3138 1.367 . S
C3139 C3147 1.433 . S
C3140 H3136 0.929 . S
C3140 C3142 1.378 . S
C3140 C3144 1.350 . S
C3141 C3144 1.463 . S
C3141 C3146 1.350 . S
C3141 N3149 1.427 . S
C3142 H3133 0.930 . S
C3142 C3140 1.378 . S
C3142 C3143 1.367 . S
C3143 C3142 1.367 . S
C3143 C3145 1.433 . S
C3144 C3140 1.350 . S
C3144 C3141 1.463 . S
C3144 N3148 1.427 . S
C3145 H3135 0.929 . S
C3145 C3143 1.433 . S
C3145 N3148 1.384 . S
C3146 H3137 0.929 . S
C3146 C3138 1.378 . S
C3146 C3141 1.350 . S
C3147 H3134 0.929 . S
C3147 C3139 1.433 . S
C3147 N3149 1.384 . S
N3148 C3144 1.427 . S
N3148 C3145 1.384 . S
N3149 C3141 1.427 . S
N3149 C3147 1.384 . S
H3150 C3156 0.930 1_655 S
H3151 C3160 0.930 . S
H3152 C3165 0.929 . S
H3153 C3163 0.929 . S
H3154 C3158 0.929 . S
H3155 C3164 0.929 . S
C3156 H3150 0.930 1_455 S
C3156 C3157 1.367 . S
C3156 C3164 1.378 . S
C3157 C3156 1.367 . S
C3157 C3165 1.433 . S
C3158 H3154 0.929 . S
C3158 C3160 1.378 . S
C3158 C3162 1.350 . S
C3159 C3162 1.463 . S
C3159 C3164 1.350 . S
C3159 N3167 1.427 . S
C3160 H3151 0.930 . S
C3160 C3158 1.378 . S
C3160 C3161 1.367 . S
C3161 C3160 1.367 . S
C3161 C3163 1.433 . S
C3162 C3158 1.350 . S
C3162 C3159 1.463 . S
C3162 N3166 1.427 . S
C3163 H3153 0.929 . S
C3163 C3161 1.433 . S
C3163 N3166 1.384 . S
C3164 H3155 0.929 . S
C3164 C3156 1.378 . S
C3164 C3159 1.350 . S
C3165 H3152 0.929 . S
C3165 C3157 1.433 . S
C3165 N3167 1.384 . S
N3166 C3162 1.427 . S
N3166 C3163 1.384 . S
N3167 C3159 1.427 . S
N3167 C3165 1.384 . S
H3168 C3174 0.930 . S
H3169 C3178 0.930 . S
H3170 C3183 0.929 . S
H3171 C3181 0.929 . S
H3172 C3176 0.929 . S
H3173 C3182 0.929 . S
C3174 H3168 0.930 . S
C3174 C3175 1.367 . S
C3174 C3182 1.378 . S
C3175 C3174 1.367 . S
C3175 C3183 1.433 . S
C3176 H3172 0.929 . S
C3176 C3178 1.378 . S
C3176 C3180 1.350 . S
C3177 C3180 1.463 . S
C3177 C3182 1.350 . S
C3177 N3185 1.427 . S
C3178 H3169 0.930 . S
C3178 C3176 1.378 . S
C3178 C3179 1.367 . S
C3179 C3178 1.367 . S
C3179 C3181 1.433 . S
C3180 C3176 1.350 . S
C3180 C3177 1.463 . S
C3180 N3184 1.427 . S
C3181 H3171 0.929 . S
C3181 C3179 1.433 . S
C3181 N3184 1.384 . S
C3182 H3173 0.929 . S
C3182 C3174 1.378 . S
C3182 C3177 1.350 . S
C3183 H3170 0.929 . S
C3183 C3175 1.433 . S
C3183 N3185 1.384 . S
N3184 C3180 1.427 . S
N3184 C3181 1.384 . S
N3185 C3177 1.427 . S
N3185 C3183 1.384 . S
H3186 C3192 0.930 . S
H3187 C3196 0.930 . S
H3188 C3201 0.929 . S
H3189 C3199 0.929 . S
H3190 C3194 0.929 . S
H3191 C3200 0.929 . S
C3192 H3186 0.930 . S
C3192 C3193 1.367 . S
C3192 C3200 1.378 . S
C3193 C3192 1.367 . S
C3193 C3201 1.433 . S
C3194 H3190 0.929 . S
C3194 C3196 1.378 . S
C3194 C3198 1.350 . S
C3195 C3198 1.463 . S
C3195 C3200 1.350 . S
C3195 N3203 1.427 . S
C3196 H3187 0.930 . S
C3196 C3194 1.378 . S
C3196 C3197 1.367 . S
C3197 C3196 1.367 . S
C3197 C3199 1.433 . S
C3198 C3194 1.350 . S
C3198 C3195 1.463 . S
C3198 N3202 1.427 . S
C3199 H3189 0.929 . S
C3199 C3197 1.433 . S
C3199 N3202 1.384 . S
C3200 H3191 0.929 . S
C3200 C3192 1.378 . S
C3200 C3195 1.350 . S
C3201 H3188 0.929 . S
C3201 C3193 1.433 . S
C3201 N3203 1.384 . S
N3202 C3198 1.427 . S
N3202 C3199 1.384 . S
N3203 C3195 1.427 . S
N3203 C3201 1.384 . S
H3204 C3210 0.930 . S
H3205 C3214 0.930 . S
H3206 C3219 0.929 . S
H3207 C3217 0.929 . S
H3208 C3212 0.929 . S
H3209 C3218 0.929 . S
C3210 H3204 0.930 . S
C3210 C3211 1.367 . S
C3210 C3218 1.378 . S
C3211 C3210 1.367 . S
C3211 C3219 1.433 . S
C3212 H3208 0.929 . S
C3212 C3214 1.378 . S
C3212 C3216 1.350 . S
C3213 C3216 1.463 . S
C3213 C3218 1.350 . S
C3213 N3221 1.427 . S
C3214 H3205 0.930 . S
C3214 C3212 1.378 . S
C3214 C3215 1.367 . S
C3215 C3214 1.367 . S
C3215 C3217 1.433 . S
C3216 C3212 1.350 . S
C3216 C3213 1.463 . S
C3216 N3220 1.427 . S
C3217 H3207 0.929 . S
C3217 C3215 1.433 . S
C3217 N3220 1.384 . S
C3218 H3209 0.929 . S
C3218 C3210 1.378 . S
C3218 C3213 1.350 . S
C3219 H3206 0.929 . S
C3219 C3211 1.433 . S
C3219 N3221 1.384 . S
N3220 C3216 1.427 . S
N3220 C3217 1.384 . S
N3221 C3213 1.427 . S
N3221 C3219 1.384 . S
H3222 C3228 0.930 . S
H3223 C3232 0.930 . S
H3224 C3237 0.929 . S
H3225 C3235 0.929 . S
H3226 C3230 0.921 1_455 S
H3227 C3236 0.929 . S
C3228 H3222 0.930 . S
C3228 C3229 1.367 . S
C3228 C3236 1.378 . S
C3229 C3228 1.367 . S
C3229 C3237 1.433 . S
C3230 H3226 0.921 1_655 S
C3230 C3232 1.378 1_655 S
C3230 C3234 1.350 . S
C3231 C3234 1.463 . S
C3231 C3236 1.350 . S
C3231 N3239 1.427 . S
C3232 H3223 0.930 . S
C3232 C3230 1.378 1_455 S
C3232 C3233 1.367 1_455 S
C3233 C3232 1.367 1_655 S
C3233 C3235 1.433 . S
C3234 C3230 1.350 . S
C3234 C3231 1.463 . S
C3234 N3238 1.427 . S
C3235 H3225 0.929 . S
C3235 C3233 1.433 . S
C3235 N3238 1.384 . S
C3236 H3227 0.929 . S
C3236 C3228 1.378 . S
C3236 C3231 1.350 . S
C3237 H3224 0.929 . S
C3237 C3229 1.433 . S
C3237 N3239 1.384 . S
N3238 C3234 1.427 . S
N3238 C3235 1.384 . S
N3239 C3231 1.427 . S
N3239 C3237 1.384 . S
H3240 C3246 0.930 . S
H3241 C3250 0.930 . S
H3242 C3255 0.929 . S
H3243 C3253 0.929 . S
H3244 C3248 0.929 . S
H3245 C3254 0.929 . S
C3246 H3240 0.930 . S
C3246 C3247 1.367 . S
C3246 C3254 1.378 . S
C3247 C3246 1.367 . S
C3247 C3255 1.433 . S
C3248 H3244 0.929 . S
C3248 C3250 1.378 . S
C3248 C3252 1.350 . S
C3249 C3252 1.463 . S
C3249 C3254 1.350 . S
C3249 N3257 1.427 . S
C3250 H3241 0.930 . S
C3250 C3248 1.378 . S
C3250 C3251 1.367 . S
C3251 C3250 1.367 . S
C3251 C3253 1.433 . S
C3252 C3248 1.350 . S
C3252 C3249 1.463 . S
C3252 N3256 1.427 . S
C3253 H3243 0.929 . S
C3253 C3251 1.433 . S
C3253 N3256 1.384 . S
C3254 H3245 0.929 . S
C3254 C3246 1.378 . S
C3254 C3249 1.350 . S
C3255 H3242 0.929 . S
C3255 C3247 1.433 . S
C3255 N3257 1.384 . S
N3256 C3252 1.427 . S
N3256 C3253 1.384 . S
N3257 C3249 1.427 . S
N3257 C3255 1.384 . S
H3258 C3264 0.930 . S
H3259 C3268 0.930 . S
H3260 C3273 0.929 . S
H3261 C3271 0.929 . S
H3262 C3266 0.929 . S
H3263 C3272 0.929 . S
C3264 H3258 0.930 . S
C3264 C3265 1.367 . S
C3264 C3272 1.378 . S
C3265 C3264 1.367 . S
C3265 C3273 1.433 . S
C3266 H3262 0.929 . S
C3266 C3268 1.378 . S
C3266 C3270 1.350 1_565 S
C3267 C3270 1.463 . S
C3267 C3272 1.350 . S
C3267 N3275 1.427 . S
C3268 H3259 0.930 . S
C3268 C3266 1.378 . S
C3268 C3269 1.367 1_565 S
C3269 C3268 1.367 1_545 S
C3269 C3271 1.433 . S
C3270 C3266 1.350 1_545 S
C3270 C3267 1.463 . S
C3270 N3274 1.427 . S
C3271 H3261 0.929 . S
C3271 C3269 1.433 . S
C3271 N3274 1.384 . S
C3272 H3263 0.929 . S
C3272 C3264 1.378 . S
C3272 C3267 1.350 . S
C3273 H3260 0.929 . S
C3273 C3265 1.433 . S
C3273 N3275 1.384 . S
N3274 C3270 1.427 . S
N3274 C3271 1.384 . S
N3275 C3267 1.427 . S
N3275 C3273 1.384 . S
C1987 C4 1.194 1_655 S
C1991 C1377 1.144 . S
C2005 C38 1.746 . S
C2009 C1457 1.702 . S
C2027 C1525 1.291 . S
C2023 C74 1.319 . S
C2041 C76 1.648 . S
C2045 C1605 1.650 . S
C2059 C2 1.544 . S
C2063 C1679 1.565 . S
C2077 C40 1.607 . S
C2081 C1747 1.518 . S
C2095 C110 1.158 . S
C2099 C1673 1.144 . S
C2117 C1753 1.431 . S
C2113 C148 1.431 . S
C2135 C1599 1.331 . S
C2131 C182 1.351 1_565 S
C2149 C184 1.671 . S
C2153 C1531 1.727 1_545 S
C2171 C1383 1.441 . S
C2167 C112 1.425 . S
C2185 C146 1.492 . S
C2189 C1451 1.478 . S
C2203 C220 1.492 . S
C2207 C1821 1.372 . S
C2221 C254 1.803 . S
C2225 C1901 1.726 . S
C2243 C1969 1.545 . S
C2239 C290 1.646 . S
C2257 C292 1.830 . S
C2261 C717 1.781 . S
C2275 C218 1.810 . S
C2279 C791 1.760 . S
C2293 C256 1.631 . S
C2297 C859 1.534 . S
C2311 C326 1.260 . S
C2315 C785 1.219 . S
C2329 C364 1.504 . S
C2333 C865 1.497 . S
C2351 C711 1.486 . S
C2347 C398 1.498 . S
C2369 C1975 1.846 . S
C2365 C400 1.846 . S
C2387 C1827 1.469 . S
C2383 C328 1.476 . S
C2405 C1895 1.527 . S
C2401 C362 1.543 . S
C2419 C436 1.400 . S
C2423 C933 1.294 . S
C2437 C470 1.814 . S
C2441 C1013 1.746 . S
C2455 C506 1.663 . S
C2459 C1081 1.576 . S
C2473 C508 1.926 . S
C2477 C1161 1.872 . S
C2495 C1235 1.726 . S
C2491 C434 1.794 . S
C2513 C1303 1.569 . S
C2509 C472 1.666 . S
C2531 C1229 1.348 . S
C2527 C542 1.381 . S
C2549 C1309 1.479 . S
C2545 C580 1.481 . S
C2563 C614 1.436 . S
C2567 C1155 1.428 . S
C2585 C1087 1.736 . S
C2581 C616 1.734 . S
C2599 C544 1.511 . S
C2603 C939 1.515 . S
C2621 C1007 1.499 . S
C2617 C578 1.511 . S
C2639 C687 1.997 . S
C2635 C14 1.997 . S
C2653 C39 1.491 . S
C2657 C761 1.482 . S
C2675 C847 1.481 . S
C2671 C75 1.494 . S
C2693 C921 1.181 . S
C2689 C86 1.193 . S
C2711 C983 1.618 . S
C2707 C3 1.643 1_556 S
C2729 C1069 1.591 . S
C2725 C50 1.577 . S
C2743 C111 2.126 . S
C2747 C1057 2.028 . S
C2761 C158 1.661 . S
C2765 C909 1.560 . S
C2779 C183 1.842 . S
C2783 C995 1.793 . S
C2797 C194 1.603 . S
C2801 C773 1.520 . S
C2819 C835 1.715 . S
C2815 C122 1.802 . S
C2833 C147 1.720 . S
C2837 C699 1.674 . S
C2855 C1131 1.935 . S
C2851 C230 1.936 . S
C2869 C255 1.592 1_545 S
C2873 C1205 1.615 . S
C2887 C291 1.544 1_655 S
C2891 C1291 1.525 . S
C2909 C1365 1.019 . S
C2905 C302 1.017 . S
C2923 C219 1.562 . S
C2927 C1427 1.548 . S
C2941 C266 1.401 . S
C2945 C1513 1.457 . S
C2959 C327 1.758 . S
C2963 C1501 1.729 . S
C2977 C374 1.363 . S
C2981 C1353 1.336 . S
C2999 C1439 1.735 . S
C2995 C399 1.782 . S
C3013 C410 1.589 . S
C3017 C1217 1.487 . S
C3031 C338 1.819 1_545 S
C3035 C1279 1.753 . S
C3053 C1143 1.767 . S
C3049 C363 1.818 1_655 S
C3071 C1575 1.782 . S
C3067 C446 1.743 . S
C3085 C471 1.306 . S
C3089 C1649 1.300 . S
C3103 C507 1.436 . S
C3107 C1735 1.424 . S
C3125 C1809 1.178 . S
C3121 C518 1.210 . S
C3143 C1871 1.658 . S
C3139 C435 1.680 1_565 S
C3157 C482 1.659 1_455 S
C3161 C1957 1.694 . S
C3175 C543 2.065 . S
C3179 C1945 1.966 . S
C3193 C590 1.777 1_565 S
C3197 C1797 1.705 . S
C3215 C1883 1.804 . S
C3211 C615 1.869 1_455 S
C3233 C1661 1.167 . S
C3229 C626 1.165 . S
C3251 C1723 1.666 . S
C3247 C554 1.731 . S
C3265 C579 1.462 . S
C3269 C1587 1.440 . S
