# Generated by pormake.
# Topology bwt, (3,3)-cn, num edge types: 1
# Building blocks:
#     Node 0, Type 0, BuildingBlock: OLANEW_clean_sbu_2, # of connection points: 3
#     Node 1, Type 0, BuildingBlock: OLANEW_clean_sbu_2, # of connection points: 3
#     Node 2, Type 0, BuildingBlock: OLANEW_clean_sbu_2, # of connection points: 3
#     Node 3, Type 0, BuildingBlock: OLANEW_clean_sbu_2, # of connection points: 3
#     Node 4, Type 0, BuildingBlock: OLANEW_clean_sbu_2, # of connection points: 3
#     Node 5, Type 0, BuildingBlock: OLANEW_clean_sbu_2, # of connection points: 3
#     Node 6, Type 0, BuildingBlock: OLANEW_clean_sbu_2, # of connection points: 3
#     Node 7, Type 0, BuildingBlock: OLANEW_clean_sbu_2, # of connection points: 3
#     Node 8, Type 0, BuildingBlock: OLANEW_clean_sbu_2, # of connection points: 3
#     Node 9, Type 0, BuildingBlock: OLANEW_clean_sbu_2, # of connection points: 3
#     Node 10, Type 0, BuildingBlock: OLANEW_clean_sbu_2, # of connection points: 3
#     Node 11, Type 0, BuildingBlock: OLANEW_clean_sbu_2, # of connection points: 3
#     Node 12, Type 0, BuildingBlock: OLANEW_clean_sbu_2, # of connection points: 3
#     Node 13, Type 0, BuildingBlock: OLANEW_clean_sbu_2, # of connection points: 3
#     Node 14, Type 0, BuildingBlock: OLANEW_clean_sbu_2, # of connection points: 3
#     Node 15, Type 0, BuildingBlock: OLANEW_clean_sbu_2, # of connection points: 3
#     Node 16, Type 0, BuildingBlock: OLANEW_clean_sbu_2, # of connection points: 3
#     Node 17, Type 0, BuildingBlock: OLANEW_clean_sbu_2, # of connection points: 3
#     Node 18, Type 0, BuildingBlock: OLANEW_clean_sbu_2, # of connection points: 3
#     Node 19, Type 0, BuildingBlock: OLANEW_clean_sbu_2, # of connection points: 3
#     Node 20, Type 0, BuildingBlock: OLANEW_clean_sbu_2, # of connection points: 3
#     Node 21, Type 0, BuildingBlock: OLANEW_clean_sbu_2, # of connection points: 3
#     Node 22, Type 0, BuildingBlock: OLANEW_clean_sbu_2, # of connection points: 3
#     Node 23, Type 0, BuildingBlock: OLANEW_clean_sbu_2, # of connection points: 3
#     Node 24, Type 1, BuildingBlock: BETDAH_clean_linker_0, # of connection points: 3
#     Node 25, Type 1, BuildingBlock: BETDAH_clean_linker_0, # of connection points: 3
#     Node 26, Type 1, BuildingBlock: BETDAH_clean_linker_0, # of connection points: 3
#     Node 27, Type 1, BuildingBlock: BETDAH_clean_linker_0, # of connection points: 3
#     Node 28, Type 1, BuildingBlock: BETDAH_clean_linker_0, # of connection points: 3
#     Node 29, Type 1, BuildingBlock: BETDAH_clean_linker_0, # of connection points: 3
#     Node 30, Type 1, BuildingBlock: BETDAH_clean_linker_0, # of connection points: 3
#     Node 31, Type 1, BuildingBlock: BETDAH_clean_linker_0, # of connection points: 3
#     Node 32, Type 1, BuildingBlock: BETDAH_clean_linker_0, # of connection points: 3
#     Node 33, Type 1, BuildingBlock: BETDAH_clean_linker_0, # of connection points: 3
#     Node 34, Type 1, BuildingBlock: BETDAH_clean_linker_0, # of connection points: 3
#     Node 35, Type 1, BuildingBlock: BETDAH_clean_linker_0, # of connection points: 3
#     Node 36, Type 1, BuildingBlock: BETDAH_clean_linker_0, # of connection points: 3
#     Node 37, Type 1, BuildingBlock: BETDAH_clean_linker_0, # of connection points: 3
#     Node 38, Type 1, BuildingBlock: BETDAH_clean_linker_0, # of connection points: 3
#     Node 39, Type 1, BuildingBlock: BETDAH_clean_linker_0, # of connection points: 3
#     Node 40, Type 1, BuildingBlock: BETDAH_clean_linker_0, # of connection points: 3
#     Node 41, Type 1, BuildingBlock: BETDAH_clean_linker_0, # of connection points: 3
#     Node 42, Type 1, BuildingBlock: BETDAH_clean_linker_0, # of connection points: 3
#     Node 43, Type 1, BuildingBlock: BETDAH_clean_linker_0, # of connection points: 3
#     Node 44, Type 1, BuildingBlock: BETDAH_clean_linker_0, # of connection points: 3
#     Node 45, Type 1, BuildingBlock: BETDAH_clean_linker_0, # of connection points: 3
#     Node 46, Type 1, BuildingBlock: BETDAH_clean_linker_0, # of connection points: 3
#     Node 47, Type 1, BuildingBlock: BETDAH_clean_linker_0, # of connection points: 3
#     Edge 48, Type (0, 1), BuildingBlock: OJICUG_clean_linker_0, # of connection points: 2
#     Edge 49, Type (0, 1), BuildingBlock: OJICUG_clean_linker_0, # of connection points: 2
#     Edge 50, Type (0, 1), BuildingBlock: OJICUG_clean_linker_0, # of connection points: 2
#     Edge 51, Type (0, 1), BuildingBlock: OJICUG_clean_linker_0, # of connection points: 2
#     Edge 52, Type (0, 1), BuildingBlock: OJICUG_clean_linker_0, # of connection points: 2
#     Edge 53, Type (0, 1), BuildingBlock: OJICUG_clean_linker_0, # of connection points: 2
#     Edge 54, Type (0, 1), BuildingBlock: OJICUG_clean_linker_0, # of connection points: 2
#     Edge 55, Type (0, 1), BuildingBlock: OJICUG_clean_linker_0, # of connection points: 2
#     Edge 56, Type (0, 1), BuildingBlock: OJICUG_clean_linker_0, # of connection points: 2
#     Edge 57, Type (0, 1), BuildingBlock: OJICUG_clean_linker_0, # of connection points: 2
#     Edge 58, Type (0, 1), BuildingBlock: OJICUG_clean_linker_0, # of connection points: 2
#     Edge 59, Type (0, 1), BuildingBlock: OJICUG_clean_linker_0, # of connection points: 2
#     Edge 60, Type (0, 1), BuildingBlock: OJICUG_clean_linker_0, # of connection points: 2
#     Edge 61, Type (0, 1), BuildingBlock: OJICUG_clean_linker_0, # of connection points: 2
#     Edge 62, Type (0, 1), BuildingBlock: OJICUG_clean_linker_0, # of connection points: 2
#     Edge 63, Type (0, 1), BuildingBlock: OJICUG_clean_linker_0, # of connection points: 2
#     Edge 64, Type (0, 1), BuildingBlock: OJICUG_clean_linker_0, # of connection points: 2
#     Edge 65, Type (0, 1), BuildingBlock: OJICUG_clean_linker_0, # of connection points: 2
#     Edge 66, Type (0, 1), BuildingBlock: OJICUG_clean_linker_0, # of connection points: 2
#     Edge 67, Type (0, 1), BuildingBlock: OJICUG_clean_linker_0, # of connection points: 2
#     Edge 68, Type (0, 1), BuildingBlock: OJICUG_clean_linker_0, # of connection points: 2
#     Edge 69, Type (0, 1), BuildingBlock: OJICUG_clean_linker_0, # of connection points: 2
#     Edge 70, Type (0, 1), BuildingBlock: OJICUG_clean_linker_0, # of connection points: 2
#     Edge 71, Type (0, 1), BuildingBlock: OJICUG_clean_linker_0, # of connection points: 2
#     Edge 72, Type (0, 1), BuildingBlock: OJICUG_clean_linker_0, # of connection points: 2
#     Edge 73, Type (0, 1), BuildingBlock: OJICUG_clean_linker_0, # of connection points: 2
#     Edge 74, Type (0, 1), BuildingBlock: OJICUG_clean_linker_0, # of connection points: 2
#     Edge 75, Type (0, 1), BuildingBlock: OJICUG_clean_linker_0, # of connection points: 2
#     Edge 76, Type (0, 1), BuildingBlock: OJICUG_clean_linker_0, # of connection points: 2
#     Edge 77, Type (0, 1), BuildingBlock: OJICUG_clean_linker_0, # of connection points: 2
#     Edge 78, Type (0, 1), BuildingBlock: OJICUG_clean_linker_0, # of connection points: 2
#     Edge 79, Type (0, 1), BuildingBlock: OJICUG_clean_linker_0, # of connection points: 2
#     Edge 80, Type (0, 1), BuildingBlock: OJICUG_clean_linker_0, # of connection points: 2
#     Edge 81, Type (0, 1), BuildingBlock: OJICUG_clean_linker_0, # of connection points: 2
#     Edge 82, Type (0, 1), BuildingBlock: OJICUG_clean_linker_0, # of connection points: 2
#     Edge 83, Type (0, 1), BuildingBlock: OJICUG_clean_linker_0, # of connection points: 2
#     Edge 84, Type (0, 1), BuildingBlock: OJICUG_clean_linker_0, # of connection points: 2
#     Edge 85, Type (0, 1), BuildingBlock: OJICUG_clean_linker_0, # of connection points: 2
#     Edge 86, Type (0, 1), BuildingBlock: OJICUG_clean_linker_0, # of connection points: 2
#     Edge 87, Type (0, 1), BuildingBlock: OJICUG_clean_linker_0, # of connection points: 2
#     Edge 88, Type (0, 1), BuildingBlock: OJICUG_clean_linker_0, # of connection points: 2
#     Edge 89, Type (0, 1), BuildingBlock: OJICUG_clean_linker_0, # of connection points: 2
#     Edge 90, Type (0, 1), BuildingBlock: OJICUG_clean_linker_0, # of connection points: 2
#     Edge 91, Type (0, 1), BuildingBlock: OJICUG_clean_linker_0, # of connection points: 2
#     Edge 92, Type (0, 1), BuildingBlock: OJICUG_clean_linker_0, # of connection points: 2
#     Edge 93, Type (0, 1), BuildingBlock: OJICUG_clean_linker_0, # of connection points: 2
#     Edge 94, Type (0, 1), BuildingBlock: OJICUG_clean_linker_0, # of connection points: 2
#     Edge 95, Type (0, 1), BuildingBlock: OJICUG_clean_linker_0, # of connection points: 2
#     Edge 96, Type (0, 1), BuildingBlock: OJICUG_clean_linker_0, # of connection points: 2
#     Edge 97, Type (0, 1), BuildingBlock: OJICUG_clean_linker_0, # of connection points: 2
#     Edge 98, Type (0, 1), BuildingBlock: OJICUG_clean_linker_0, # of connection points: 2
#     Edge 99, Type (0, 1), BuildingBlock: OJICUG_clean_linker_0, # of connection points: 2
#     Edge 100, Type (0, 1), BuildingBlock: OJICUG_clean_linker_0, # of connection points: 2
#     Edge 101, Type (0, 1), BuildingBlock: OJICUG_clean_linker_0, # of connection points: 2
#     Edge 102, Type (0, 1), BuildingBlock: OJICUG_clean_linker_0, # of connection points: 2
#     Edge 103, Type (0, 1), BuildingBlock: OJICUG_clean_linker_0, # of connection points: 2
#     Edge 104, Type (0, 1), BuildingBlock: OJICUG_clean_linker_0, # of connection points: 2
#     Edge 105, Type (0, 1), BuildingBlock: OJICUG_clean_linker_0, # of connection points: 2
#     Edge 106, Type (0, 1), BuildingBlock: OJICUG_clean_linker_0, # of connection points: 2
#     Edge 107, Type (0, 1), BuildingBlock: OJICUG_clean_linker_0, # of connection points: 2
#     Edge 108, Type (0, 1), BuildingBlock: OJICUG_clean_linker_0, # of connection points: 2
#     Edge 109, Type (0, 1), BuildingBlock: OJICUG_clean_linker_0, # of connection points: 2
#     Edge 110, Type (0, 1), BuildingBlock: OJICUG_clean_linker_0, # of connection points: 2
#     Edge 111, Type (0, 1), BuildingBlock: OJICUG_clean_linker_0, # of connection points: 2
#     Edge 112, Type (0, 1), BuildingBlock: OJICUG_clean_linker_0, # of connection points: 2
#     Edge 113, Type (0, 1), BuildingBlock: OJICUG_clean_linker_0, # of connection points: 2
#     Edge 114, Type (0, 1), BuildingBlock: OJICUG_clean_linker_0, # of connection points: 2
#     Edge 115, Type (0, 1), BuildingBlock: OJICUG_clean_linker_0, # of connection points: 2
#     Edge 116, Type (0, 1), BuildingBlock: OJICUG_clean_linker_0, # of connection points: 2
#     Edge 117, Type (0, 1), BuildingBlock: OJICUG_clean_linker_0, # of connection points: 2
#     Edge 118, Type (0, 1), BuildingBlock: OJICUG_clean_linker_0, # of connection points: 2
#     Edge 119, Type (0, 1), BuildingBlock: OJICUG_clean_linker_0, # of connection points: 2
# Relax obj value: 0.055
# Max RMSD: 0.120
# Mean RMSD: 0.062
data_MOF--net-bwt--node1-OLANEW_clean_sbu_2--node2-BETDAH_clean_linker_0--edge1-OJICUG_clean_linker_0
_symmetry_space_group_name_H-M    P1
_symmetry_Int_Tables_number       1
_symmetry_cell_setting            triclinic
loop_
_symmetry_equiv_pos_as_xyz
'x, y, z'
_cell_length_a     45.506868
_cell_length_b     45.177153
_cell_length_c     45.147297
_cell_angle_alpha  93.983916
_cell_angle_beta   94.348134
_cell_angle_gamma 94.33674
loop_
_atom_site_label
_atom_site_type_symbol
_atom_site_fract_x
_atom_site_fract_y
_atom_site_fract_z
_atom_type_partial_charge
O0 O 0.28948 0.55804 0.38841 0.0
Cd1 Cd 0.28983 0.55407 0.33426 0.0
O2 O 0.30433 0.60567 0.39301 0.0
Cd3 Cd 0.31664 0.60443 0.34725 0.0
O4 O 0.35037 0.60089 0.31566 0.0
C5 C 0.37227 0.58679 0.32409 0.0
O6 O 0.37195 0.5744 0.34957 0.0
C7 C 0.29511 0.58224 0.40464 0.0
C8 C 0.23423 0.56571 0.3098 0.0
O9 O 0.2395 0.53984 0.31777 0.0
O10 O 0.25552 0.58623 0.31273 0.0
O11 O 0.24374 0.36533 0.77113 0.0
Cd12 Cd 0.21862 0.33641 0.7274 0.0
O13 O 0.22526 0.4073 0.76026 0.0
Cd14 Cd 0.1913 0.38709 0.7267 0.0
O15 O 0.14572 0.38061 0.70704 0.0
C16 C 0.13139 0.40366 0.70601 0.0
O17 O 0.14503 0.42968 0.7154 0.0
C18 C 0.24281 0.39328 0.77631 0.0
C19 C 0.25209 0.34896 0.68 0.0
O20 O 0.23009 0.36381 0.68598 0.0
O21 O 0.2575 0.3271 0.69564 0.0
O22 O 0.72841 0.95816 0.57643 0.0
Cd23 Cd 0.74508 0.98681 0.62371 0.0
O24 O 0.75266 0.91995 0.5889 0.0
Cd25 Cd 0.77389 0.94066 0.63106 0.0
O26 O 0.81249 0.95122 0.66289 0.0
C27 C 0.8337 0.96808 0.65504 0.0
O28 O 0.83059 0.97978 0.62925 0.0
C29 C 0.73582 0.93197 0.57027 0.0
C30 C 0.70055 8e-05 0.66081 0.0
O31 O 0.7078 0.01729 0.64069 0.0
O32 O 0.71392 0.97624 0.66298 0.0
O33 O 0.68095 0.96293 0.20506 0.0
Cd34 Cd 0.67862 0.9568 0.25832 0.0
O35 O 0.67984 0.01143 0.21298 0.0
Cd36 Cd 0.65583 0.00659 0.25281 0.0
O37 O 0.61393 0.00441 0.27394 0.0
C38 C 0.59064 -0.00271 0.25673 0.0
O39 O 0.59331 0.99104 0.22824 0.0
C40 C 0.68426 0.98888 0.19592 0.0
C41 C 0.73674 0.95623 0.28345 0.0
O42 O 0.72106 0.93189 0.2751 0.0
O43 O 0.72467 0.98073 0.28076 0.0
O44 O 0.38632 0.31016 0.58487 0.0
Cd45 Cd 0.33265 0.31171 0.57955 0.0
O46 O 0.39098 0.31444 0.5371 0.0
Cd47 Cd 0.34519 0.32444 0.52853 0.0
O48 O 0.3186 0.36222 0.5331 0.0
C49 C 0.32977 0.38579 0.52314 0.0
O50 O 0.35371 0.3843 0.50872 0.0
C51 C 0.40245 0.31091 0.56307 0.0
C52 C 0.30603 0.25478 0.58298 0.0
O53 O 0.31513 0.26323 0.5585 0.0
O54 O 0.30902 0.27349 0.60589 0.0
O55 O 0.21221 0.7296 0.035 0.0
Cd56 Cd 0.26444 0.73344 0.02483 0.0
O57 O 0.21569 0.69059 0.06133 0.0
Cd58 Cd 0.25874 0.68014 0.04662 0.0
O59 O 0.28718 0.65029 0.02407 0.0
C60 C 0.28289 0.64596 -0.0041 0.0
O61 O 0.26326 0.66098 0.98183 0.0
C62 C 0.20069 0.71103 0.05159 0.0
C63 C 0.28272 0.79161 0.01263 0.0
O64 O 0.27548 0.77134 0.9915 0.0
O65 O 0.28153 0.78439 0.03949 0.0
O66 O 0.80433 0.17616 0.37421 0.0
Cd67 Cd 0.75485 0.15082 0.37058 0.0
O68 O 0.8322 0.1406 0.38723 0.0
Cd69 Cd 0.79667 0.10472 0.38304 0.0
O70 O 0.77419 0.05982 0.3795 0.0
C71 C 0.79016 0.03792 0.37784 0.0
O72 O 0.81896 0.04328 0.37801 0.0
C73 C 0.8296 0.16753 0.38166 0.0
C74 C 0.71848 0.19418 0.38967 0.0
O75 O 0.72834 0.17574 0.40757 0.0
O76 O 0.72472 0.19126 0.36248 0.0
O77 O 0.56615 0.7208 0.92859 0.0
Cd78 Cd 0.61656 0.74482 0.9362 0.0
O79 O 0.55048 0.7477 0.96584 0.0
Cd80 Cd 0.59288 0.77366 0.97614 0.0
O81 O 0.62892 0.80879 0.98144 0.0
C82 C 0.62992 0.82832 0.00323 0.0
O83 O 0.6099 0.82602 0.02263 0.0
C84 C 0.54544 0.72747 0.94464 0.0
C85 C 0.65783 0.70583 0.95449 0.0
O86 O 0.64349 0.72013 0.97339 0.0
O87 O 0.65266 0.70996 0.92684 0.0
O88 O 0.56195 0.40291 0.28939 0.0
Cd89 Cd 0.56745 0.35189 0.30275 0.0
O90 O 0.52932 0.41279 0.32145 0.0
Cd91 Cd 0.53397 0.37121 0.34243 0.0
O92 O 0.54637 0.34601 0.38025 0.0
C93 C 0.54255 0.35877 0.40549 0.0
O94 O 0.53095 0.38455 0.40639 0.0
C95 C 0.54463 0.42069 0.30052 0.0
C96 C 0.55455 0.3122 0.25246 0.0
O97 O 0.53455 0.31842 0.26989 0.0
O98 O 0.58079 0.3244 0.25908 0.0
O99 O 0.96293 0.17749 0.69658 0.0
Cd100 Cd 0.95122 0.22835 0.68865 0.0
O101 O -0.00266 0.17617 0.66482 0.0
Cd102 Cd -0.01231 0.21641 0.64303 0.0
O103 O 0.98714 0.23978 0.60216 0.0
C104 C 0.98157 0.22348 0.57797 0.0
O105 O 0.97547 0.19473 0.57934 0.0
C106 C 0.98335 0.16424 0.68486 0.0
C107 C 0.94234 0.25575 0.74428 0.0
O108 O 0.92035 0.24447 0.72662 0.0
O109 O 0.96831 0.25491 0.73525 0.0
O110 O 0.40958 0.82954 0.17723 0.0
Cd111 Cd 0.40311 0.77982 0.15191 0.0
O112 O 0.36838 0.84338 0.15571 0.0
Cd113 Cd 0.36199 0.80442 0.1234 0.0
O114 O 0.3533 0.77053 0.08592 0.0
C115 C 0.37321 0.7541 0.07788 0.0
O116 O 0.39937 0.75727 0.09271 0.0
C117 C 0.39056 0.84862 0.17478 0.0
C118 C 0.40388 0.74038 0.19655 0.0
O119 O 0.42708 0.74644 0.18299 0.0
O120 O 0.38011 0.75203 0.18819 0.0
O121 O 0.98364 0.58951 0.76331 0.0
Cd122 Cd 0.9856 0.64251 0.77922 0.0
O123 O 0.97164 0.57257 0.80579 0.0
Cd124 Cd 0.9789 0.61494 0.83312 0.0
O125 O 0.98413 0.64518 0.87374 0.0
C126 C 0.00394 0.64102 0.89413 0.0
O127 O 0.02142 0.61958 0.88957 0.0
C128 C 0.97614 0.56787 0.77845 0.0
C129 C 0.00018 0.67613 0.73196 0.0
O130 O 0.01941 0.67297 0.75351 0.0
O131 O 0.97401 0.66382 0.73283 0.0
O132 O 0.70513 0.34727 0.62053 0.0
Cd133 Cd 0.72045 0.35815 0.67346 0.0
O134 O 0.66405 0.36882 0.62598 0.0
Cd135 Cd 0.61998 0.37945 0.60979 0.0
O136 O 0.57244 0.38336 0.60391 0.0
C137 C 0.55988 0.39144 0.58005 0.0
O138 O 0.57601 0.398 0.55811 0.0
C139 C 0.68083 0.35535 0.60934 0.0
C140 C 0.78053 0.3769 0.68219 0.0
O141 O 0.77157 0.3493 0.6821 0.0
O142 O 0.76105 0.39563 0.67832 0.0
O143 O 0.76506 0.62037 0.16948 0.0
Cd144 Cd 0.76065 0.64189 0.21991 0.0
O145 O 0.81248 0.63389 0.17225 0.0
Cd146 Cd 0.85744 0.63789 0.1581 0.0
O147 O 0.90572 0.64089 0.16528 0.0
C148 C 0.91663 0.65068 0.19118 0.0
O149 O 0.89863 0.6589 0.21107 0.0
C150 C 0.78933 0.62183 0.1573 0.0
C151 C 0.70394 0.62718 0.23639 0.0
O152 O 0.70928 0.64976 0.22138 0.0
O153 O 0.72551 0.6119 0.24402 0.0
O154 O 0.21345 0.02702 0.42575 0.0
Cd155 Cd 0.20371 0.00945 0.37317 0.0
O156 O 0.16853 0.01997 0.44081 0.0
Cd157 Cd 0.14255 0.00544 0.39896 0.0
O158 O 0.09641 0.00197 0.38033 0.0
C159 C 0.07901 0.01525 0.39653 0.0
O160 O 0.09006 0.02969 0.42166 0.0
C161 C 0.1959 0.02802 0.44637 0.0
C162 C 0.25689 -0.00105 0.34816 0.0
O163 O 0.24713 0.02485 0.34901 0.0
O164 O 0.24142 0.97796 0.35887 0.0
O165 O 0.24902 0.97863 0.8202 0.0
Cd166 Cd 0.23406 0.98128 0.76728 0.0
O167 O 0.29558 0.98797 0.81236 0.0
Cd168 Cd 0.34389 0.99055 0.82079 0.0
O169 O 0.39169 0.98964 0.81835 0.0
C170 C 0.40941 0.01299 0.82216 0.0
O171 O 0.39894 0.03876 0.82871 0.0
C172 C 0.27604 0.98166 0.8302 0.0
C173 C 0.17492 -0.00725 0.75714 0.0
O174 O 0.1821 0.96661 0.76232 0.0
O175 O 0.19564 0.01355 0.75676 0.0
O176 O 0.58546 0.64356 0.38138 0.0
Cd177 Cd 0.6384 0.64181 0.39347 0.0
O178 O 0.56558 0.59999 0.39262 0.0
Cd179 Cd 0.60493 0.57776 0.40589 0.0
O180 O 0.62078 0.53392 0.41248 0.0
C181 C 0.60379 0.51562 0.42475 0.0
O182 O 0.57904 0.52458 0.43408 0.0
C183 C 0.56289 0.62563 0.38321 0.0
C184 C 0.66243 0.70092 0.40185 0.0
O185 O 0.65756 0.68768 0.37572 0.0
O186 O 0.65685 0.68601 0.42419 0.0
O187 O 0.77542 0.23274 0.95674 0.0
Cd188 Cd 0.72633 0.2148 0.96968 0.0
O189 O 0.7661 0.27929 0.96534 0.0
Cd190 Cd 0.77239 0.32786 0.96448 0.0
O191 O 0.77584 0.37621 0.96217 0.0
C192 C 0.7732 0.39379 0.9849 0.0
O193 O 0.76872 0.38261 0.01044 0.0
C194 C 0.78358 0.26028 0.95679 0.0
C195 C 0.72581 0.15899 -0.00751 0.0
O196 O 0.72657 0.16174 0.96451 0.0
O197 O 0.72535 0.18259 0.00987 0.0
O198 O 0.21628 0.77205 0.64582 0.0
Cd199 Cd 0.26621 0.77168 0.66949 0.0
O200 O 0.21423 0.82031 0.6529 0.0
Cd201 Cd 0.19482 0.86278 0.64885 0.0
O202 O 0.19203 0.91029 0.64418 0.0
C203 C 0.20145 0.92873 0.666 0.0
O204 O 0.21114 0.91852 0.69118 0.0
C205 C 0.20208 0.79495 0.64297 0.0
C206 C 0.28603 0.71805 0.64862 0.0
O207 O 0.27183 0.71971 0.67206 0.0
O208 O 0.29207 0.74208 0.636 0.0
O209 O 0.37049 0.30232 0.06776 0.0
Cd210 Cd 0.32574 0.32896 0.07046 0.0
O211 O 0.34745 0.25756 0.05927 0.0
Cd212 Cd 0.34701 0.2089 0.05211 0.0
O213 O 0.35025 0.16062 0.04864 0.0
C214 C 0.33606 0.1439 0.02769 0.0
O215 O 0.31916 0.15592 0.00771 0.0
C216 C 0.3714 0.27425 0.06397 0.0
C217 C 0.3212 0.37227 0.02959 0.0
O218 O 0.33744 0.37773 0.0541 0.0
O219 O 0.30739 0.34641 0.0244 0.0
O220 O 0.3618 0.58252 0.66597 0.0
Cd221 Cd 0.34586 0.63124 0.68126 0.0
O222 O 0.36618 0.59376 0.6202 0.0
Cd223 Cd 0.37067 0.59108 0.5722 0.0
O224 O 0.37396 0.59697 0.52502 0.0
C225 C 0.37589 0.6235 0.51725 0.0
O226 O 0.37599 0.64559 0.5378 0.0
C227 C 0.36755 0.57463 0.6396 0.0
C228 C 0.35764 0.64282 0.74264 0.0
O229 O 0.33391 0.62753 0.73183 0.0
O230 O 0.37552 0.65291 0.72444 0.0
O231 O 0.96391 0.80056 0.29749 0.0
Cd232 Cd -0.00618 0.75768 0.29506 0.0
O233 O -0.00026 0.82962 0.32263 0.0
Cd234 Cd 0.02233 0.79299 0.34082 0.0
O235 O 0.03 0.77236 0.38307 0.0
C236 C 0.03821 0.7897 0.40613 0.0
O237 O 0.04349 0.81827 0.40299 0.0
C238 C 0.9745 0.8263 0.30809 0.0
C239 C 0.0103 0.74548 0.23708 0.0
O240 O 0.98609 0.73372 0.24549 0.0
O241 O 0.02683 0.76293 0.25611 0.0
O242 O 0.62449 0.21533 0.79386 0.0
Cd243 Cd 0.63214 0.26965 0.79606 0.0
O244 O 0.59268 0.21442 0.82801 0.0
Cd245 Cd 0.56602 0.19424 0.86079 0.0
O246 O 0.55142 0.19111 0.90565 0.0
C247 C 0.56631 0.17708 0.9242 0.0
O248 O 0.58887 0.16334 0.91525 0.0
C249 C 0.60738 0.20058 0.80945 0.0
C250 C 0.61689 0.28902 0.74008 0.0
O251 O 0.64242 0.27983 0.74637 0.0
O252 O 0.59874 0.28964 0.76044 0.0
O253 O 0.01081 0.42483 0.21524 0.0
Cd254 Cd -0.00044 0.37175 0.20155 0.0
O255 O -0.0038 0.44215 0.17263 0.0
Cd256 Cd 0.98272 0.39911 0.14877 0.0
O257 O 0.97684 0.3744 0.10521 0.0
C258 C 0.96522 0.38816 0.08427 0.0
O259 O 0.95635 0.4147 0.09066 0.0
C260 C 0.00731 0.44667 0.19938 0.0
C261 C -0.01169 0.34224 0.25227 0.0
O262 O 0.01474 0.35099 0.24716 0.0
O263 O 0.96709 0.34702 0.23335 0.0
H264 H 0.29027 0.62756 0.54235 0.0
H265 H 0.29993 0.53346 0.53223 0.0
H266 H 0.30115 0.57766 0.61945 0.0
C267 C 0.294 0.60669 0.55183 0.0
C268 C 0.29702 0.60608 0.58299 0.0
C269 C 0.29491 0.58066 0.53302 0.0
C270 C 0.29825 0.55361 0.54616 0.0
C271 C 0.29964 0.55244 0.5773 0.0
C272 C 0.29923 0.57868 0.59548 0.0
N273 N 0.30142 0.52522 0.59102 0.0
C274 C 0.30337 0.49812 0.57513 0.0
H275 H 0.29691 0.41552 0.90549 0.0
H276 H 0.32022 0.49575 0.86395 0.0
H277 H 0.33551 0.49366 0.95881 0.0
C278 C 0.30582 0.43855 0.90733 0.0
C279 C 0.31618 0.4524 0.93543 0.0
C280 C 0.30664 0.454 0.88148 0.0
C281 C 0.3189 0.4836 0.88375 0.0
C282 C 0.32905 0.49795 0.91154 0.0
C283 C 0.32752 0.48244 0.93741 0.0
N284 N 0.34157 0.52774 0.91278 0.0
C285 C 0.33242 0.55021 0.93168 0.0
H286 H 0.69469 0.83045 0.46604 0.0
H287 H 0.72855 0.91115 0.43121 0.0
H288 H 0.70969 0.83181 0.37295 0.0
C289 C 0.70202 0.84209 0.44741 0.0
C290 C 0.70098 0.82691 0.41898 0.0
C291 C 0.71221 0.87237 0.45212 0.0
C292 C 0.72041 0.88792 0.42771 0.0
C293 C 0.71904 0.87326 0.39904 0.0
C294 C 0.70961 0.84293 0.39498 0.0
N295 N 0.72748 0.88808 0.37384 0.0
C296 C 0.73909 0.91754 0.3751 0.0
H297 H 0.71326 0.05464 0.081 0.0
H298 H 0.71356 0.96011 0.06108 0.0
H299 H 0.72487 0.01898 0.99203 0.0
C300 C 0.71511 0.03585 0.06528 0.0
C301 C 0.72008 0.04086 0.03552 0.0
C302 C 0.71223 0.00678 0.07487 0.0
C303 C 0.71468 0.98256 0.05409 0.0
C304 C 0.71925 0.98715 0.0243 0.0
C305 C 0.72212 0.0161 0.01529 0.0
N306 N 0.72067 0.96299 0.00276 0.0
C307 C 0.70636 0.93507 0.00501 0.0
H308 H 0.52899 0.3099 0.6328 0.0
H309 H 0.53798 0.30578 0.53864 0.0
H310 H 0.61519 0.30935 0.59949 0.0
C311 C 0.54276 0.30943 0.61433 0.0
C312 C 0.57361 0.30897 0.62 0.0
C313 C 0.5295 0.30863 0.58504 0.0
C314 C 0.54778 0.3077 0.56133 0.0
C315 C 0.57865 0.30828 0.56659 0.0
C316 C 0.59135 0.30882 0.59579 0.0
N317 N 0.59732 0.30802 0.54278 0.0
C318 C 0.58754 0.31492 0.5144 0.0
H319 H 0.08895 0.7223 0.12699 0.0
H320 H 0.06176 0.71002 0.0334 0.0
H321 H -0.00306 0.72306 0.09627 0.0
C322 C 0.07153 0.72064 0.10908 0.0
C323 C 0.04198 0.72302 0.11565 0.0
C324 C 0.07885 0.7164 0.07944 0.0
C325 C 0.05622 0.71365 0.05621 0.0
C326 C 0.0266 0.71562 0.06238 0.0
C327 C 0.01978 0.72075 0.09193 0.0
N328 N 0.00315 0.71283 0.03944 0.0
C329 C 0.00585 0.70138 0.01045 0.0
H330 H 0.92247 0.26279 0.34201 0.0
H331 H 0.94869 0.24479 0.43169 0.0
H332 H 0.00583 0.30171 0.38504 0.0
C333 C 0.93867 0.26594 0.36101 0.0
C334 C 0.96491 0.28432 0.35974 0.0
C335 C 0.93309 0.25108 0.38657 0.0
C336 C 0.95333 0.25577 0.41179 0.0
C337 C 0.97923 0.27473 0.41137 0.0
C338 C 0.98514 0.28825 0.38523 0.0
N339 N -0.00018 0.28067 0.43677 0.0
C340 C -0.00468 0.27011 0.46441 0.0
H341 H 0.43408 0.67334 0.86466 0.0
H342 H 0.40988 0.67943 0.95481 0.0
H343 H 0.3435 0.65349 0.88319 0.0
C344 C 0.41741 0.6711 0.88042 0.0
C345 C 0.38788 0.66249 0.86993 0.0
C346 C 0.42557 0.67754 0.91096 0.0
C347 C 0.40374 0.67487 0.93123 0.0
C348 C 0.37414 0.66605 0.92121 0.0
C349 C 0.36648 0.65959 0.89069 0.0
N350 N 0.35151 0.66427 0.9412 0.0
C351 C 0.35459 0.67867 0.96963 0.0
H352 H 0.59823 0.54099 0.26516 0.0
H353 H 0.50579 0.55135 0.27096 0.0
H354 H 0.56438 0.62631 0.25397 0.0
C355 C 0.57994 0.55501 0.26442 0.0
C356 C 0.58505 0.58517 0.25914 0.0
C357 C 0.5515 0.54264 0.26883 0.0
C358 C 0.52781 0.56086 0.26788 0.0
C359 C 0.53246 0.59104 0.26217 0.0
C360 C 0.56099 0.60294 0.25781 0.0
N361 N 0.50897 0.61001 0.26055 0.0
C362 C 0.48112 0.60246 0.26974 0.0
H363 H 0.06058 0.06256 0.72939 0.0
H364 H 0.96911 0.0302 0.71673 0.0
H365 H 0.0344 0.97031 0.73997 0.0
C366 C 0.04375 0.04421 0.72879 0.0
C367 C 0.0517 0.01571 0.73538 0.0
C368 C 0.01408 0.04951 0.72178 0.0
C369 C -0.00803 0.02619 0.72226 0.0
C370 C -0.00063 -0.0023 0.72924 0.0
C371 C 0.02908 -0.00735 0.73565 0.0
N372 N 0.97752 0.97354 0.72949 0.0
C373 C 0.94852 0.97428 0.71762 0.0
H374 H 0.34793 0.94167 0.26689 0.0
H375 H 0.44161 0.96128 0.26417 0.0
H376 H 0.39405 0.01128 0.3265 0.0
C377 C 0.36824 0.95476 0.27501 0.0
C378 C 0.36763 0.97728 0.29799 0.0
C379 C 0.39482 0.94885 0.26262 0.0
C380 C 0.42111 0.9657 0.27367 0.0
C381 C 0.42087 0.98831 0.29673 0.0
C382 C 0.39409 -0.00597 0.30857 0.0
N383 N 0.44709 0.00551 0.30871 0.0
C384 C 0.47494 0.00222 0.29872 0.0
H385 H 0.90027 0.45516 0.72498 0.0
H386 H -0.01071 0.44254 0.70431 0.0
H387 H 0.91832 0.37864 0.66898 0.0
C388 C 0.91578 0.44206 0.7139 0.0
C389 C 0.90547 0.41562 0.6968 0.0
C390 C 0.94594 0.45198 0.71652 0.0
C391 C 0.96604 0.43492 0.70222 0.0
C392 C 0.95606 0.40817 0.68534 0.0
C393 C 0.92587 0.39891 0.68255 0.0
N394 N 0.97564 0.39017 0.67066 0.0
C395 C 0.00622 0.39387 0.67587 0.0
H396 H 0.68377 0.29208 0.48151 0.0
H397 H 0.63399 0.36894 0.47246 0.0
H398 H 0.64481 0.31072 0.39596 0.0
C399 C 0.67008 0.3055 0.46819 0.0
C400 C 0.66492 0.29759 0.43747 0.0
C401 C 0.65854 0.33078 0.48162 0.0
C402 C 0.6435 0.34956 0.46302 0.0
C403 C 0.63946 0.34268 0.43203 0.0
C404 C 0.64926 0.31633 0.41968 0.0
N405 N 0.62499 0.36136 0.41261 0.0
C406 C 0.62207 0.39139 0.41957 0.0
H407 H 0.75053 0.64119 0.03646 0.0
H408 H 0.78097 0.55417 0.02095 0.0
H409 H 0.73122 0.59272 0.95076 0.0
C410 C 0.7524 0.62176 0.02143 0.0
C411 C 0.73859 0.61997 -0.00761 0.0
C412 C 0.76761 0.59814 0.03182 0.0
C413 C 0.76957 0.57255 0.01278 0.0
C414 C 0.75703 0.57107 0.98318 0.0
C415 C 0.74178 0.59476 0.97322 0.0
N416 N 0.75884 0.54605 0.96277 0.0
C417 C 0.76561 0.51808 0.97078 0.0
H418 H 0.24916 0.12584 0.54053 0.0
H419 H 0.21935 0.05291 0.58949 0.0
H420 H 0.25568 0.13502 0.63651 0.0
C421 C 0.24652 0.11651 0.56173 0.0
C422 C 0.25456 0.13417 0.5884 0.0
C423 C 0.23403 0.08716 0.56195 0.0
C424 C 0.22903 0.07549 0.58932 0.0
C425 C 0.23658 0.09295 0.61626 0.0
C426 C 0.24937 0.12206 0.61559 0.0
N427 N 0.23158 0.08204 0.64439 0.0
C428 C 0.22258 0.05258 0.64834 0.0
H429 H 0.29296 0.90632 0.94063 0.0
H430 H 0.32462 -0.0032 0.96796 0.0
H431 H 0.33255 0.92933 0.0298 0.0
C432 C 0.30345 0.92265 0.95759 0.0
C433 C 0.31189 0.91383 0.9861 0.0
C434 C 0.30828 0.95246 0.95072 0.0
C435 C 0.32126 0.97377 0.97297 0.0
C436 C 0.32966 0.96542 0.00163 0.0
C437 C 0.3254 0.93551 0.00781 0.0
N438 N 0.34228 0.9865 0.02481 0.0
C439 C 0.34201 0.01716 0.02358 0.0
H440 H 0.46173 0.67614 0.30321 0.0
H441 H 0.42518 0.64338 0.38063 0.0
H442 H 0.36785 0.67437 0.31182 0.0
C443 C 0.44267 0.67116 0.31548 0.0
C444 C 0.41439 0.67749 0.30392 0.0
C445 C 0.44668 0.6583 0.34283 0.0
C446 C 0.42213 0.65263 0.35923 0.0
C447 C 0.39378 0.65893 0.34816 0.0
C448 C 0.39002 0.67062 0.32038 0.0
N449 N 0.3686 0.6537 0.36439 0.0
C450 C 0.37047 0.64667 0.39389 0.0
H451 H 0.8806 0.27546 0.86421 0.0
H452 H 0.91493 0.31681 0.94968 0.0
H453 H 0.9681 0.32051 0.87543 0.0
C454 C 0.89825 0.28815 0.87811 0.0
C455 C 0.92492 0.29661 0.86589 0.0
C456 C 0.89425 0.29568 0.90826 0.0
C457 C 0.91748 0.31167 0.92628 0.0
C458 C 0.94417 0.32046 0.9144 0.0
C459 C 0.94757 0.31313 0.88433 0.0
N460 N 0.96812 0.33643 0.93213 0.0
C461 C 0.96693 0.34539 0.96204 0.0
H462 H 0.08156 0.75082 0.65392 0.0
H463 H 0.07403 0.76753 0.56157 0.0
H464 H 0.00016 0.72445 0.60011 0.0
C465 C 0.0679 0.75011 0.63313 0.0
C466 C 0.03904 0.73616 0.63068 0.0
C467 C 0.08032 0.76185 0.60853 0.0
C468 C 0.06407 0.75907 0.58066 0.0
C469 C 0.03505 0.74537 0.57771 0.0
C470 C 0.02267 0.73446 0.60275 0.0
N471 N 0.01769 0.74166 0.54998 0.0
C472 C 0.02694 0.7508 0.52315 0.0
H473 H 0.47955 0.2629 0.13712 0.0
H474 H 0.49863 0.2117 0.05834 0.0
H475 H 0.56266 0.22339 0.13438 0.0
C476 C 0.49444 0.24929 0.12567 0.0
C477 C 0.5222 0.24474 0.13958 0.0
C478 C 0.48593 0.23733 0.09657 0.0
C479 C 0.50536 0.2208 0.08087 0.0
C480 C 0.53316 0.21571 0.09463 0.0
C481 C 0.54126 0.2275 0.12394 0.0
N482 N 0.55351 0.19886 0.07979 0.0
C483 C 0.55191 0.19242 0.04913 0.0
H484 H 0.33228 0.44369 0.63376 0.0
H485 H 0.40903 0.44627 0.58367 0.0
H486 H 0.35631 0.36382 0.58769 0.0
C487 C 0.34693 0.43241 0.61977 0.0
C488 C 0.34133 0.40175 0.61223 0.0
C489 C 0.37124 0.44876 0.60975 0.0
C490 C 0.39023 0.43398 0.59168 0.0
C491 C 0.38477 0.40324 0.58383 0.0
C492 C 0.36033 0.3874 0.59399 0.0
N493 N 0.40321 0.3877 0.56536 0.0
C494 C 0.43377 0.39302 0.5678 0.0
H495 H 0.86571 0.91177 0.29711 0.0
H496 H 0.94572 0.95365 0.34349 0.0
H497 H 0.86645 -0.00127 0.34328 0.0
C498 C 0.87729 0.93027 0.31082 0.0
C499 C 0.8619 0.95502 0.31947 0.0
C500 C 0.90767 0.9295 0.31925 0.0
C501 C 0.92267 0.95428 0.33596 0.0
C502 C 0.90801 0.97954 0.34383 0.0
C503 C 0.87768 0.97953 0.33605 0.0
N504 N 0.9232 0.00521 0.35968 0.0
C505 C 0.95368 0.00824 0.36638 0.0
H506 H 0.63294 0.08073 0.74717 0.0
H507 H 0.56426 0.05945 0.8048 0.0
H508 H 0.59656 0.99039 0.74899 0.0
C509 C 0.61769 0.06461 0.7559 0.0
C510 C 0.61724 0.03453 0.7455 0.0
C511 C 0.59899 0.07402 0.77762 0.0
C512 C 0.57867 0.05281 0.78796 0.0
C513 C 0.57785 0.02265 0.77751 0.0
C514 C 0.59746 0.01368 0.75685 0.0
N515 N 0.55808 0.00057 0.78778 0.0
C516 C 0.53066 0.00605 0.79759 0.0
H517 H 0.10525 0.53658 0.25431 0.0
H518 H 0.03688 0.58989 0.22368 0.0
H519 H 0.12069 0.63216 0.26115 0.0
C520 C 0.09744 0.55838 0.25164 0.0
C521 C 0.1165 0.58401 0.26007 0.0
C522 C 0.06869 0.56035 0.23885 0.0
C523 C 0.05907 0.58843 0.23366 0.0
C524 C 0.07796 0.61444 0.24147 0.0
C525 C 0.10652 0.61204 0.25468 0.0
N526 N 0.06879 0.6432 0.23644 0.0
C527 C 0.04007 0.64788 0.22616 0.0
C528 C 0.19973 0.59513 0.27983 0.0
C529 C 0.20425 0.57161 0.29802 0.0
H530 H 0.16862 0.61715 0.25291 0.0
C531 C 0.17975 0.5534 0.30492 0.0
H532 H 0.21828 0.60954 0.27421 0.0
C533 C 0.15133 0.55823 0.2935 0.0
C534 C 0.1467 0.58094 0.27423 0.0
H535 H 0.1825 0.53545 0.31934 0.0
H536 H 0.13297 0.54396 0.29974 0.0
C537 C 0.17124 0.59961 0.26783 0.0
C538 C 0.26773 0.38507 0.6438 0.0
C539 C 0.27242 0.35896 0.65797 0.0
H540 H 0.28565 0.41889 0.61825 0.0
C541 C 0.29836 0.34473 0.65349 0.0
H542 H 0.24792 0.3965 0.64656 0.0
C543 C 0.32011 0.35763 0.63695 0.0
C544 C 0.31633 0.38504 0.62476 0.0
H545 H 0.30256 0.32446 0.664 0.0
H546 H 0.34058 0.34709 0.63532 0.0
C547 C 0.28945 0.39798 0.62752 0.0
C548 C 0.67218 0.99039 0.70521 0.0
C549 C 0.67815 0.00803 0.68157 0.0
H550 H 0.64868 0.98507 0.74407 0.0
C551 C 0.66325 0.03394 0.67858 0.0
H552 H 0.68334 0.97034 0.70822 0.0
C553 C 0.64321 0.04227 0.69902 0.0
C554 C 0.63765 0.02496 0.72303 0.0
H555 H 0.66721 0.04797 0.66055 0.0
H556 H 0.63203 0.0623 0.69598 0.0
C557 C 0.65219 -0.00123 0.7257 0.0
C558 C 0.78703 0.98246 0.29624 0.0
C559 C 0.76829 0.95612 0.29429 0.0
H560 H 0.83108 0.0027 0.30453 0.0
C561 C 0.78032 0.9295 0.30136 0.0
H562 H 0.77849 0.00333 0.2908 0.0
C563 C 0.81051 0.92919 0.30985 0.0
C564 C 0.82952 0.95542 0.3111 0.0
H565 H 0.7664 0.90886 0.30034 0.0
H566 H 0.81887 0.90835 0.31564 0.0
C567 C 0.81727 0.98209 0.30428 0.0
C568 C 0.27457 0.21711 0.60726 0.0
C569 C 0.293 0.22409 0.58473 0.0
H570 H 0.24719 0.18361 0.6256 0.0
C571 C 0.29917 0.20139 0.56386 0.0
H572 H 0.26938 0.23424 0.62359 0.0
C573 C 0.28721 0.17224 0.56547 0.0
C574 C 0.26819 0.16516 0.5876 0.0
H575 H 0.31365 0.20605 0.54649 0.0
H576 H 0.29314 0.15522 0.54942 0.0
C577 C 0.26206 0.18801 0.60852 0.0
C578 C 0.29079 0.84612 0.02816 0.0
C579 C 0.29149 0.82261 0.00623 0.0
H580 H 0.2957 0.89313 0.03888 0.0
C581 C 0.29995 0.8291 0.97797 0.0
H582 H 0.2842 0.84185 0.05013 0.0
C583 C 0.3073 0.85851 0.97167 0.0
C584 C 0.30583 0.88225 -0.00668 0.0
H585 H 0.301 0.81142 0.96069 0.0
H586 H 0.31416 0.86256 0.94977 0.0
C587 C 0.29762 0.87558 0.02173 0.0
C588 C 0.70017 0.24451 0.38414 0.0
C589 C 0.70223 0.21936 0.40059 0.0
H590 H 0.68772 0.28912 0.3831 0.0
C591 C 0.69047 0.21943 0.42845 0.0
H592 H 0.70924 0.24522 0.36267 0.0
C593 C 0.67754 0.24441 0.43995 0.0
C594 C 0.67656 0.27014 0.4241 0.0
H595 H 0.69153 0.20028 0.44155 0.0
H596 H 0.66854 0.24359 0.46143 0.0
C597 C 0.68769 0.26969 0.39584 0.0
C598 C 0.69802 0.67233 0.94427 0.0
C599 C 0.67937 0.68483 0.96432 0.0
H600 H 0.73194 0.64277 0.93753 0.0
C601 C 0.68112 0.67671 -0.00618 0.0
H602 H 0.69735 0.67831 0.92142 0.0
C603 C 0.70061 0.65606 0.00294 0.0
C604 C 0.71913 0.64325 0.98288 0.0
H605 H 0.66696 0.68582 0.00978 0.0
H606 H 0.70054 0.64956 0.02558 0.0
C607 C 0.71777 0.65186 0.95348 0.0
C608 C 0.51884 0.27793 0.21873 0.0
C609 C 0.54723 0.29257 0.22482 0.0
H610 H 0.48894 0.25065 0.18747 0.0
C611 C 0.56806 0.28944 0.20359 0.0
H612 H 0.50236 0.27965 0.23473 0.0
C613 C 0.56027 0.27304 0.17633 0.0
C614 C 0.53151 0.25931 0.16976 0.0
H615 H 0.59013 0.30044 0.20761 0.0
H616 H 0.57645 0.27214 0.15996 0.0
C617 C 0.51111 0.26141 0.19157 0.0
C618 C 0.96177 0.27063 0.79686 0.0
C619 C 0.93809 0.26793 0.77478 0.0
H620 H 0.97605 0.28059 0.84281 0.0
C621 C 0.91017 0.2756 0.78252 0.0
H622 H 0.98349 0.26459 0.79166 0.0
C623 C 0.90599 0.28555 0.81184 0.0
C624 C 0.92952 0.28752 0.83423 0.0
H625 H 0.89154 0.27391 0.7659 0.0
H626 H 0.88428 0.2917 0.81688 0.0
C627 C 0.95749 0.28001 0.82624 0.0
C628 C 0.38534 0.72629 0.24462 0.0
C629 C 0.40505 0.72228 0.22253 0.0
H630 H 0.37352 0.71661 0.28786 0.0
C631 C 0.42701 0.70241 0.22654 0.0
H632 H 0.3684 0.74177 0.24228 0.0
C633 C 0.42947 0.68714 0.25239 0.0
C634 C 0.41045 0.69192 0.27521 0.0
H635 H 0.44241 0.69878 0.20974 0.0
H636 H 0.4465 0.67179 0.25443 0.0
C637 C 0.38821 0.71161 0.27077 0.0
C638 C 0.0278 0.71839 0.71063 0.0
C639 C 0.00828 0.69268 0.70635 0.0
H640 H 0.0511 0.75346 0.69061 0.0
C641 C -0.00263 0.68227 0.67731 0.0
H642 H 0.03619 0.72707 0.73289 0.0
C643 C 0.00693 0.69653 0.65281 0.0
C644 C 0.02695 0.72216 0.65684 0.0
H645 H 0.98239 0.66232 0.67348 0.0
H646 H -0.00069 0.68673 0.63077 0.0
C647 C 0.03655 0.7333 0.68624 0.0
C648 C 0.83362 0.36618 0.69103 0.0
C649 C 0.81244 0.38682 0.68636 0.0
H650 H 0.87951 0.35911 0.69838 0.0
C651 C 0.82205 0.41702 0.68542 0.0
H652 H 0.82695 0.34276 0.69196 0.0
C653 C 0.85218 0.42635 0.68891 0.0
C654 C 0.8734 0.40571 0.69346 0.0
H655 H 0.80631 0.43349 0.68176 0.0
H656 H 0.85887 0.44971 0.68755 0.0
C657 C 0.86376 0.37552 0.69454 0.0
C658 C 0.66882 0.59817 0.26553 0.0
C659 C 0.67358 0.61827 0.24372 0.0
H660 H 0.63729 0.57291 0.28834 0.0
C661 C 0.64906 0.62879 0.22811 0.0
H662 H 0.68728 0.58995 0.27817 0.0
C663 C 0.62032 0.61849 0.23343 0.0
C664 C 0.61549 0.59776 0.25476 0.0
H665 H 0.65207 0.64424 0.21108 0.0
H666 H 0.60196 0.6261 0.22015 0.0
C667 C 0.64012 0.58824 0.27119 0.0
C668 C 0.29369 0.96432 0.33075 0.0
C669 C 0.28524 -0.00652 0.33536 0.0
H670 H 0.32632 0.93641 0.31544 0.0
C671 C 0.30422 0.01732 0.32778 0.0
H672 H 0.27962 0.94546 0.33638 0.0
C673 C 0.33108 0.01211 0.31593 0.0
C674 C 0.33939 0.98294 0.31109 0.0
H675 H 0.29841 0.04005 0.33111 0.0
H676 H 0.34516 0.0309 0.31013 0.0
C677 C 0.32039 0.95911 0.31863 0.0
C678 C 0.12159 0.9826 0.76554 0.0
C679 C 0.14362 -0.0013 0.75176 0.0
H680 H 0.07574 0.97624 0.77252 0.0
C681 C 0.13549 0.02046 0.73273 0.0
H682 H 0.12735 0.96586 0.78054 0.0
C683 C 0.10577 0.02573 0.72718 0.0
C684 C 0.08349 0.00996 0.74125 0.0
H685 H 0.15207 0.03293 0.72155 0.0
H686 H 0.10035 0.04188 0.71145 0.0
C687 C 0.09193 0.98845 0.7607 0.0
C688 C 0.68792 0.74481 0.43304 0.0
C689 C 0.67306 0.7328 0.406 0.0
H690 H 0.70947 0.78334 0.45795 0.0
C691 C 0.66756 0.75173 0.38318 0.0
H692 H 0.69261 0.73069 0.45096 0.0
C693 C 0.67628 0.78217 0.38747 0.0
C694 C 0.69137 0.79438 0.41448 0.0
H695 H 0.65582 0.74314 0.36221 0.0
H696 H 0.67067 0.79614 0.3697 0.0
C697 C 0.6973 0.77514 0.4371 0.0
C698 C 0.70833 0.12289 0.02807 0.0
C699 C 0.72517 0.12935 0.00424 0.0
H700 H 0.69216 0.08984 0.05562 0.0
C701 C 0.74094 0.10706 0.99123 0.0
H702 H 0.69575 0.1397 0.03828 0.0
C703 C 0.73999 0.07876 0.00195 0.0
C704 C 0.72238 0.0717 0.02527 0.0
H705 H 0.75436 0.11166 0.973 0.0
H706 H 0.75322 0.06249 0.99188 0.0
C707 C 0.70655 0.09427 0.03817 0.0
C708 C 0.27947 0.66239 0.64413 0.0
C709 C 0.29262 0.68895 0.63479 0.0
H710 H 0.27004 0.6154 0.63479 0.0
C711 C 0.3096 0.68761 0.61011 0.0
H712 H 0.26625 0.66269 0.66309 0.0
C713 C 0.31203 0.66048 0.59409 0.0
C714 C 0.29728 0.63415 0.60221 0.0
H715 H 0.32028 0.70765 0.60256 0.0
H716 H 0.32491 0.66025 0.57486 0.0
C717 C 0.2817 0.63525 0.62793 0.0
C718 C 0.2941 0.39303 0.98671 0.0
C719 C 0.31871 0.39487 0.0076 0.0
H720 H 0.27316 0.41075 0.9487 0.0
C721 C 0.34122 0.41777 0.00654 0.0
H722 H 0.27614 0.37597 0.98735 0.0
C723 C 0.33992 0.43737 0.98383 0.0
C724 C 0.31585 0.43469 0.96206 0.0
H725 H 0.36043 0.41975 0.02247 0.0
H726 H 0.35838 0.45371 0.9826 0.0
C727 C 0.29249 0.41293 0.96448 0.0
C728 C 0.35017 0.63067 0.79505 0.0
C729 C 0.36452 0.6483 0.77518 0.0
H730 H 0.34681 0.62065 0.8404 0.0
C731 C 0.38603 0.67092 0.78663 0.0
H732 H 0.33358 0.61294 0.78684 0.0
C733 C 0.39318 0.67575 0.81729 0.0
C734 C 0.37941 0.65771 0.83729 0.0
H735 H 0.39724 0.68508 0.7719 0.0
H736 H 0.40942 0.69386 0.82527 0.0
C737 C 0.35767 0.63518 0.82577 0.0
C738 C 0.0001 0.72063 0.18549 0.0
C739 C 0.01873 0.73933 0.20627 0.0
H740 H -0.00685 0.69997 0.1412 0.0
C741 C 0.04527 0.75237 0.19717 0.0
H742 H 0.9794 0.71042 0.19166 0.0
C743 C 0.05289 0.747 0.16793 0.0
C744 C 0.03426 0.72824 0.14707 0.0
H745 H 0.06008 0.76703 0.21257 0.0
H746 H 0.07314 0.75805 0.16156 0.0
C747 C 0.00787 0.71494 0.15637 0.0
C748 C 0.62162 0.28497 0.68525 0.0
C749 C 0.60798 0.29696 0.7097 0.0
H750 H 0.62103 0.27849 0.63796 0.0
C751 C 0.58464 0.31506 0.70467 0.0
H752 H 0.63961 0.27082 0.68847 0.0
C753 C 0.57449 0.3203 0.67565 0.0
C754 C 0.58693 0.30686 0.65096 0.0
H755 H 0.574 0.32494 0.72318 0.0
H756 H 0.55654 0.3345 0.67264 0.0
C757 C 0.61103 0.28959 0.65621 0.0
C758 C 0.96465 0.30064 0.27781 0.0
C759 C 0.98249 0.32744 0.27947 0.0
H760 H 0.94673 0.26504 0.30117 0.0
C761 C -0.00527 0.34008 0.3073 0.0
H762 H 0.95526 0.29038 0.25644 0.0
C763 C -0.01133 0.32645 0.33329 0.0
C764 C 0.97114 0.29919 0.33194 0.0
H765 H 0.00837 0.36095 0.30902 0.0
H766 H -0.00251 0.33768 0.35439 0.0
C767 C 0.95953 0.28635 0.30365 0.0
C768 C 0.30266 0.60812 0.4558 0.0
C769 C 0.29253 0.58269 0.43715 0.0
H770 H 0.31247 0.62728 0.50013 0.0
C771 C 0.2812 0.55726 0.45002 0.0
H772 H 0.31124 0.62821 0.44661 0.0
C773 C 0.28104 0.55691 0.48093 0.0
C774 C 0.29281 0.58179 0.49986 0.0
H775 H 0.27269 0.53743 0.43624 0.0
H776 H 0.27173 0.53698 0.48983 0.0
C777 C 0.3031 0.60759 0.48671 0.0
C778 C 0.2811 0.39451 0.81949 0.0
C779 C 0.26133 0.40947 0.80162 0.0
H780 H 0.31157 0.39705 0.85827 0.0
C781 C 0.25864 0.4399 0.80881 0.0
H782 H 0.28397 0.37117 0.81442 0.0
C783 C 0.27436 0.45469 0.83403 0.0
C784 C 0.29315 0.4394 0.85261 0.0
H785 H 0.24371 0.45216 0.79546 0.0
H786 H 0.27079 0.47777 0.83966 0.0
C787 C 0.29686 0.40932 0.84467 0.0
C788 C 0.71369 0.9308 0.51733 0.0
C789 C 0.72694 0.9161 0.5407 0.0
H790 H 0.69847 0.92851 0.471 0.0
C791 C 0.73371 0.88649 0.53498 0.0
H792 H 0.70822 0.95362 0.52095 0.0
C793 C 0.72824 0.87222 0.50645 0.0
C794 C 0.71588 0.88716 0.48283 0.0
H795 H 0.74393 0.87446 0.55241 0.0
H796 H 0.73464 0.84974 0.5027 0.0
C797 C 0.70832 0.91651 0.48866 0.0
C798 C 0.68228 0.97158 0.142 0.0
C799 C 0.6924 -0.00713 0.16535 0.0
H800 H 0.6792 0.95982 0.09525 0.0
C801 C 0.7097 0.01837 0.15911 0.0
H802 H 0.66864 0.95185 0.14621 0.0
C803 C 0.71682 0.02251 0.13001 0.0
C804 C 0.706 0.00167 0.10627 0.0
H805 H 0.71804 0.03498 0.17682 0.0
H806 H 0.73092 0.04205 0.12629 0.0
C807 C 0.6886 0.97613 0.11276 0.0
C808 C 0.45377 0.32127 0.54832 0.0
C809 C 0.43468 0.30912 0.56811 0.0
H810 H 0.49822 0.33224 0.53884 0.0
C811 C 0.44674 0.29624 0.59319 0.0
H812 H 0.44513 0.33172 0.52898 0.0
C813 C 0.47734 0.29551 0.59839 0.0
C814 C 0.4967 0.30845 0.57908 0.0
H815 H 0.4325 0.28644 0.60868 0.0
H816 H 0.48563 0.28452 0.61748 0.0
C817 C 0.48436 0.32133 0.55394 0.0
C818 C 0.15839 0.69604 0.08146 0.0
C819 C 0.16969 0.71282 0.05915 0.0
H820 H 0.12085 0.68408 0.10542 0.0
C821 C 0.15092 0.73096 0.04379 0.0
H822 H 0.17225 0.68186 0.09374 0.0
C823 C 0.12145 0.73201 0.05034 0.0
C824 C 0.11018 0.71523 0.07263 0.0
H825 H 0.15887 0.74414 0.02645 0.0
H826 H 0.10752 0.74619 0.03813 0.0
C827 C 0.129 0.69738 0.08826 0.0
C828 C 0.88367 0.18131 0.39537 0.0
C829 C 0.85601 0.1891 0.38373 0.0
H830 H 0.9297 0.19491 0.4055 0.0
C831 C 0.85376 0.2178 0.37394 0.0
H832 H 0.88616 0.15945 0.4032 0.0
C833 C 0.87868 0.23803 0.37524 0.0
C834 C 0.90636 0.23013 0.38656 0.0
H835 H 0.83279 0.2246 0.36494 0.0
H836 H 0.87628 0.25992 0.36741 0.0
C837 C 0.90856 0.20167 0.39688 0.0
C838 C 0.49128 0.72386 0.95197 0.0
C839 C 0.51514 0.71296 0.93773 0.0
H840 H 0.44445 0.72166 0.95441 0.0
C841 C 0.5095 0.68906 0.9159 0.0
H842 H 0.4948 0.7423 0.96885 0.0
C843 C 0.48058 0.67691 0.90789 0.0
C844 C 0.45658 0.68854 0.92135 0.0
H845 H 0.5274 0.67996 0.90467 0.0
H846 H 0.47701 0.65857 0.89092 0.0
C847 C 0.46235 0.71188 0.94381 0.0
C848 C 0.55998 0.45972 0.26674 0.0
C849 C 0.54375 0.45115 0.29044 0.0
H850 H 0.57457 0.49511 0.24091 0.0
C851 C 0.52813 0.47248 0.30548 0.0
H852 H 0.57204 0.44382 0.25449 0.0
C853 C 0.52977 0.50201 0.29782 0.0
C854 C 0.54704 0.51079 0.27494 0.0
H855 H 0.51539 0.46663 0.32384 0.0
H856 H 0.51847 0.51817 0.31058 0.0
C857 C 0.56155 0.48916 0.25905 0.0
C858 C 0.97455 0.12013 0.71493 0.0
C859 C -0.00884 0.13499 0.6946 0.0
H860 H 0.96888 0.08154 0.73965 0.0
C861 C 0.01548 0.12163 0.68362 0.0
H862 H 0.95571 0.12981 0.72386 0.0
C863 C 0.02301 0.09409 0.6927 0.0
C864 C 0.00634 0.07916 0.71288 0.0
H865 H 0.02876 0.13243 0.66794 0.0
H866 H 0.04163 0.08423 0.68352 0.0
C867 C 0.98201 0.09244 0.7239 0.0
C868 C 0.37135 0.89622 0.19422 0.0
C869 C 0.39314 0.87578 0.19553 0.0
H870 H 0.35504 0.93551 0.21406 0.0
C871 C 0.41646 0.88061 0.21807 0.0
H872 H 0.35316 0.89329 0.17709 0.0
C873 C 0.41741 0.90471 0.23938 0.0
C874 C 0.39507 0.92456 0.23866 0.0
H875 H 0.43362 0.86531 0.21977 0.0
H876 H 0.43513 0.9072 0.25701 0.0
C877 C 0.37231 0.92032 0.21554 0.0
C878 C 0.95444 0.51508 0.77716 0.0
C879 C 0.9708 0.53737 0.7637 0.0
H880 H 0.93374 0.47059 0.7727 0.0
C881 C 0.98053 0.53066 0.73535 0.0
H882 H 0.94659 0.51949 0.79896 0.0
C883 C 0.97342 0.50251 0.72048 0.0
C884 C 0.95605 0.4807 0.73348 0.0
H885 H -0.00674 0.5473 0.72441 0.0
H886 H 0.98058 0.49817 0.69837 0.0
C887 C 0.94696 0.48712 0.7621 0.0
C888 C 0.66698 0.3721 0.55911 0.0
C889 C 0.67245 0.34893 0.57734 0.0
H890 H 0.66 0.38518 0.51484 0.0
C891 C 0.67197 0.31983 0.5645 0.0
H892 H 0.66751 0.39481 0.56871 0.0
C893 C 0.66637 0.31391 0.53375 0.0
C894 C 0.6624 0.33718 0.51484 0.0
H895 H 0.67578 0.30159 0.57831 0.0
H896 H 0.66508 0.2909 0.52504 0.0
C897 C 0.66248 0.36641 0.52815 0.0
C898 C 0.80494 0.62873 0.10623 0.0
C899 C 0.7894 0.61154 0.12559 0.0
H900 H 0.80994 0.6379 0.06077 0.0
C901 C 0.7701 0.58715 0.11365 0.0
H902 H 0.81955 0.64794 0.11485 0.0
C903 C 0.76508 0.58109 0.08283 0.0
C904 C 0.77877 0.59976 0.0635 0.0
H905 H 0.75779 0.57364 0.12815 0.0
H906 H 0.74886 0.5632 0.07412 0.0
C907 C 0.79938 0.62309 0.07537 0.0
C908 C 0.18821 0.03947 0.50026 0.0
C909 C 0.20685 0.04043 0.4768 0.0
H910 H 0.18224 0.05341 0.5456 0.0
C911 C 0.23536 0.05495 0.48231 0.0
H912 H 0.16615 0.02835 0.49683 0.0
C913 C 0.2445 0.06934 0.51025 0.0
C914 C 0.22543 0.06933 0.53334 0.0
H915 H 0.25033 0.05603 0.4648 0.0
H916 H 0.26636 0.08092 0.51368 0.0
C917 C 0.19745 0.05368 0.52827 0.0
C918 C 0.26509 0.9565 0.87605 0.0
C919 C 0.28412 0.97551 0.86144 0.0
H920 H 0.25756 0.93462 0.91562 0.0
C921 C 0.31056 0.98809 0.87693 0.0
H922 H 0.2444 0.94663 0.86484 0.0
C923 C 0.31827 0.98094 0.90603 0.0
C924 C 0.29961 0.96119 0.9203 0.0
H925 H 0.32515 0.0037 0.86679 0.0
H926 H 0.33911 0.99048 0.91716 0.0
C927 C 0.27274 0.94939 0.90508 0.0
C928 C 0.52985 0.66143 0.36057 0.0
C929 C 0.53313 0.63444 0.37373 0.0
H930 H 0.50008 0.69036 0.34094 0.0
C931 C 0.50774 0.61575 0.37731 0.0
H932 H 0.54893 0.67642 0.35754 0.0
C933 C 0.47973 0.62376 0.36776 0.0
C934 C 0.47645 0.65048 0.3541 0.0
H935 H 0.50944 0.5948 0.38737 0.0
H936 H 0.4607 0.60864 0.37055 0.0
C937 C 0.50183 0.66934 0.35084 0.0
C938 C 0.82434 0.25017 0.9244 0.0
C939 C 0.81215 0.26944 0.94509 0.0
H940 H 0.85979 0.24301 0.89696 0.0
C941 C 0.82756 0.29704 0.95424 0.0
H942 H 0.81317 0.22857 0.91709 0.0
C943 C 0.85402 0.30564 0.94218 0.0
C944 C 0.86601 0.28657 0.92108 0.0
H945 H 0.81958 0.31184 0.97112 0.0
H946 H 0.86496 0.32738 0.94928 0.0
C947 C 0.85094 0.2586 0.91258 0.0
C948 C 0.16302 0.76855 0.60687 0.0
C949 C 0.17131 0.79112 0.62965 0.0
H950 H 0.12727 0.74218 0.58159 0.0
C951 C 0.14934 0.80685 0.64232 0.0
H952 H 0.1796 0.75606 0.59682 0.0
C953 C 0.11948 0.79861 0.63389 0.0
C954 C 0.11122 0.77493 0.61231 0.0
H955 H 0.15509 0.82394 0.66028 0.0
H956 H 0.1028 0.80966 0.64534 0.0
C957 C 0.13319 0.76071 0.59803 0.0
C958 C 0.40329 0.23633 0.08378 0.0
C959 C 0.40024 0.26148 0.06752 0.0
H960 H 0.43334 0.20881 0.10557 0.0
C961 C 0.42562 0.27656 0.05809 0.0
H962 H 0.38427 0.22496 0.0923 0.0
C963 C 0.45365 0.26725 0.06566 0.0
C964 C 0.45664 0.24296 0.08303 0.0
H965 H 0.42385 0.2962 0.0458 0.0
H966 H 0.47305 0.27997 0.05938 0.0
C967 C 0.43132 0.2272 0.09156 0.0
C968 C 0.38032 0.53233 0.6039 0.0
C969 C 0.373 0.54299 0.63223 0.0
H970 H 0.3861 0.49409 0.57458 0.0
C971 C 0.36946 0.5225 0.65403 0.0
H972 H 0.38444 0.54721 0.58683 0.0
C973 C 0.37088 0.49215 0.64713 0.0
C974 C 0.37571 0.48127 0.61817 0.0
H975 H 0.3645 0.52971 0.67636 0.0
H976 H 0.36712 0.47704 0.66432 0.0
C977 C 0.3817 0.50175 0.59694 0.0
C978 C 0.92595 0.84874 0.30849 0.0
C979 C 0.9566 0.85211 0.30616 0.0
H980 H 0.88658 0.87038 0.31541 0.0
C981 C 0.97042 0.88075 0.30493 0.0
H982 H 0.9148 0.82685 0.30966 0.0
C983 C 0.95415 0.90568 0.30721 0.0
C984 C 0.92381 0.90267 0.31186 0.0
H985 H -0.00602 0.88391 0.30276 0.0
H986 H 0.96565 0.9274 0.30612 0.0
C987 C 0.90976 0.87376 0.31165 0.0
C988 C 0.57799 0.15098 0.80462 0.0
C989 C 0.60535 0.16777 0.8057 0.0
H990 H 0.55421 0.10831 0.79403 0.0
C991 C 0.63072 0.15326 0.80002 0.0
H992 H 0.55805 0.16177 0.80861 0.0
C993 C 0.62873 0.1227 0.79239 0.0
C994 C 0.60115 0.10594 0.7893 0.0
H995 H 0.65214 0.16569 0.80102 0.0
H996 H 0.6489 0.11234 0.78836 0.0
C997 C 0.57585 0.12035 0.79626 0.0
C998 C 0.01858 0.50089 0.19258 0.0
C999 C 0.01905 0.47705 0.21105 0.0
H1000 H 0.03403 0.54597 0.18686 0.0
C1001 C 0.03331 0.48194 0.23988 0.0
H1002 H 0.0077 0.49793 0.17027 0.0
C1003 C 0.04828 0.50946 0.24936 0.0
C1004 C 0.04932 0.53272 0.23024 0.0
H1005 H 0.03388 0.46418 0.2548 0.0
H1006 H 0.05977 0.51231 0.2714 0.0
C1007 C 0.03357 0.52847 0.2021 0.0
C1008 C 0.42484 0.57563 0.31974 0.0
C1009 C 0.3993 0.5877 0.3078 0.0
H1010 H 0.47115 0.57109 0.31671 0.0
C1011 C 0.40065 0.60251 0.28147 0.0
H1012 H 0.42457 0.56403 0.33993 0.0
C1013 C 0.42735 0.60637 0.26822 0.0
C1014 C 0.45296 0.59559 0.28117 0.0
H1015 H 0.38138 0.61199 0.27166 0.0
H1016 H 0.42815 0.61851 0.2484 0.0
C1017 C 0.45149 0.57963 0.30653 0.0
C1018 C 0.0839 0.37314 0.68924 0.0
C1019 C 0.09938 0.40117 0.69647 0.0
H1020 H 0.04174 0.34901 0.67701 0.0
C1021 C 0.0837 0.42685 0.69573 0.0
H1022 H 0.09528 0.35294 0.68961 0.0
C1023 C 0.05316 0.42449 0.68849 0.0
C1024 C 0.03786 0.39647 0.68192 0.0
H1025 H 0.09493 0.44878 0.70112 0.0
H1026 H 0.04148 0.44452 0.68838 0.0
C1027 C 0.05333 0.37083 0.68207 0.0
C1028 C 0.8673 0.95638 0.69869 0.0
C1029 C 0.86257 0.97186 0.67295 0.0
H1030 H 0.89879 0.94509 0.73317 0.0
C1031 C 0.88632 0.98952 0.66337 0.0
H1032 H 0.84951 0.94259 0.70667 0.0
C1033 C 0.91437 0.99087 0.67856 0.0
C1034 C 0.91909 0.97467 0.70356 0.0
H1035 H 0.88345 0.00177 0.6437 0.0
H1036 H 0.93251 0.00406 0.67038 0.0
C1037 C 0.89542 0.95775 0.71384 0.0
C1038 C 0.55748 0.00524 0.29822 0.0
C1039 C 0.56087 -0.00265 0.26804 0.0
H1040 H 0.5271 0.01291 0.33163 0.0
C1041 C 0.53537 0.99029 0.24838 0.0
H1042 H 0.57661 0.0108 0.31394 0.0
C1043 C 0.50719 -0.00845 0.25856 0.0
C1044 C 0.50401 -0.0002 0.28853 0.0
H1045 H 0.53713 0.98411 0.22501 0.0
H1046 H 0.4879 0.98639 0.24294 0.0
C1047 C 0.52923 0.00646 0.30837 0.0
C1048 C 0.33642 0.44135 0.52696 0.0
C1049 C 0.3198 0.41511 0.53263 0.0
H1050 H 0.34377 0.48868 0.5361 0.0
C1051 C 0.29556 0.41719 0.55003 0.0
H1052 H 0.35515 0.44058 0.51356 0.0
C1053 C 0.28924 0.4448 0.56292 0.0
C1054 C 0.30717 0.47046 0.55875 0.0
H1055 H 0.28224 0.39742 0.55469 0.0
H1056 H 0.27101 0.44597 0.57694 0.0
C1057 C 0.3301 0.46884 0.53994 0.0
C1058 C 0.29189 0.61752 0.94831 0.0
C1059 C 0.29751 0.62244 0.9794 0.0
H1060 H 0.29886 0.59049 0.90888 0.0
C1061 C 0.31591 0.6037 -0.00549 0.0
H1062 H 0.27798 0.63158 0.93593 0.0
C1063 C 0.3277 0.58005 0.97891 0.0
C1064 C 0.32137 0.57498 0.94805 0.0
H1065 H 0.32071 0.6069 0.01843 0.0
H1066 H 0.34142 0.56557 0.99097 0.0
C1067 C 0.30377 0.59401 0.93279 0.0
C1068 C 0.7459 0.00069 0.37485 0.0
C1069 C 0.77679 0.00686 0.37666 0.0
H1070 H 0.70965 0.96703 0.37291 0.0
C1071 C 0.79494 0.98301 0.37775 0.0
H1072 H 0.7313 0.01852 0.37389 0.0
C1073 C 0.78249 0.95372 0.37734 0.0
C1074 C 0.75176 0.9478 0.37568 0.0
H1075 H 0.8188 0.98692 0.37904 0.0
H1076 H 0.79689 0.93571 0.37823 0.0
C1077 C 0.73349 0.97133 0.37432 0.0
C1078 C 0.67191 0.8581 0.98347 0.0
C1079 C 0.65161 0.85466 0.00524 0.0
H1080 H 0.70552 0.88675 0.96653 0.0
C1081 C 0.65112 0.87746 0.02805 0.0
H1082 H 0.67289 0.84097 0.96563 0.0
C1083 C 0.66981 0.90353 0.02846 0.0
C1084 C 0.68931 0.9071 0.00621 0.0
H1085 H 0.63579 0.87553 0.04516 0.0
H1086 H 0.66848 0.92117 0.04573 0.0
C1087 C 0.6906 0.88419 0.98395 0.0
C1088 C 0.56713 0.31958 0.433 0.0
C1089 C 0.55265 0.34605 0.43345 0.0
H1090 H 0.59004 0.28891 0.45888 0.0
C1091 C 0.54888 0.36112 0.46105 0.0
H1092 H 0.57037 0.30745 0.41211 0.0
C1093 C 0.56014 0.35051 0.48751 0.0
C1094 C 0.57529 0.32473 0.48686 0.0
H1095 H 0.5376 0.38138 0.46226 0.0
H1096 H 0.55719 0.36262 0.50849 0.0
C1097 C 0.57841 0.30898 0.45962 0.0
C1098 C 0.97767 0.21756 0.5222 0.0
C1099 C 0.98372 0.23607 0.54869 0.0
H1100 H 0.97669 0.21415 0.47445 0.0
C1101 C -0.00714 0.2663 0.54683 0.0
H1102 H 0.97054 0.1942 0.52279 0.0
C1103 C -0.0036 0.27758 0.5191 0.0
C1104 C -0.00922 0.25883 0.49292 0.0
H1105 H -0.00229 0.28115 0.56678 0.0
H1106 H 0.00379 0.30084 0.51814 0.0
C1107 C 0.98118 0.22888 0.49454 0.0
C1108 C 0.38989 0.71532 0.0418 0.0
C1109 C 0.36758 0.73293 0.05111 0.0
H1110 H 0.40295 0.68383 0.00847 0.0
C1111 C 0.34026 0.73088 0.03395 0.0
H1112 H 0.41113 0.71623 0.05453 0.0
C1113 C 0.33573 0.71243 0.00755 0.0
C1114 C 0.35834 0.69559 -0.00192 0.0
H1115 H 0.3226 0.74398 0.04058 0.0
H1116 H 0.31479 0.71178 -0.00572 0.0
C1117 C 0.38526 0.69677 0.01548 0.0
C1118 C 0.02713 0.65277 0.94626 0.0
C1119 C 0.00587 0.65838 0.92344 0.0
H1120 H 0.04374 0.66234 0.99204 0.0
C1121 C 0.98565 0.67967 0.92946 0.0
H1122 H 0.04306 0.63657 0.94243 0.0
C1123 C 0.98616 0.69435 0.95786 0.0
C1124 C 0.00692 0.68806 0.98062 0.0
H1125 H 0.96901 0.68455 0.91243 0.0
H1126 H 0.96996 0.71016 0.9622 0.0
C1127 C 0.0276 0.66749 0.97464 0.0
C1128 C 0.51045 0.38649 0.60094 0.0
C1129 C 0.52744 0.39315 0.5771 0.0
H1130 H 0.46705 0.38148 0.61644 0.0
C1131 C 0.51302 0.401 0.55043 0.0
H1132 H 0.52079 0.38019 0.62172 0.0
C1133 C 0.48224 0.40178 0.54757 0.0
C1134 C 0.46556 0.39488 0.57135 0.0
H1135 H 0.52542 0.40612 0.53162 0.0
H1136 H 0.47146 0.40724 0.52664 0.0
C1137 C 0.47975 0.38734 0.59804 0.0
C1138 C 0.96022 0.66101 0.22875 0.0
C1139 C 0.94882 0.65141 0.19952 0.0
H1140 H -0.00145 0.66753 0.25998 0.0
C1141 C 0.96836 0.64181 0.1788 0.0
H1142 H 0.94585 0.6686 0.24526 0.0
C1143 C -0.00147 0.6413 0.18736 0.0
C1144 C 0.00952 0.65047 0.21664 0.0
H1145 H 0.96032 0.63434 0.15612 0.0
H1146 H 0.01316 0.63336 0.17125 0.0
C1147 C -0.00966 0.66049 0.23722 0.0
C1148 C 0.02811 0.02853 0.40671 0.0
C1149 C 0.04679 0.01395 0.38804 0.0
H1150 H 0.98364 0.03803 0.41425 0.0
C1151 C 0.03425 -0.00213 0.36172 0.0
H1152 H 0.03699 0.04112 0.42713 0.0
C1153 C 0.00366 -0.00378 0.35444 0.0
C1154 C 0.98526 0.01059 0.37335 0.0
H1155 H 0.04799 0.9864 0.34687 0.0
H1156 H -0.0056 0.98357 0.33417 0.0
C1157 C -0.0024 0.02682 0.39941 0.0
C1158 C 0.46089 0.03709 0.82045 0.0
C1159 C 0.44117 0.01128 0.81751 0.0
H1160 H 0.50526 0.05562 0.81635 0.0
C1161 C 0.45187 0.9838 0.80902 0.0
H1162 H 0.45338 0.0586 0.82696 0.0
C1163 C 0.48141 0.98224 0.80305 0.0
C1164 C 0.50076 0.00804 0.80551 0.0
H1165 H 0.43736 0.9635 0.80652 0.0
H1166 H 0.48902 0.96089 0.79608 0.0
C1167 C 0.49052 0.03547 0.81443 0.0
C1168 C 0.63476 0.47331 0.41285 0.0
C1169 C 0.61017 0.48401 0.42597 0.0
H1170 H 0.65772 0.43503 0.40065 0.0
C1171 C 0.59066 0.46379 0.43877 0.0
H1172 H 0.65019 0.48823 0.40279 0.0
C1173 C 0.59511 0.43345 0.43756 0.0
C1174 C 0.61908 0.42289 0.4236 0.0
H1175 H 0.57155 0.47127 0.44911 0.0
H1176 H 0.57945 0.4182 0.4469 0.0
C1177 C 0.63911 0.44294 0.41162 0.0
C1178 C 0.76746 0.44569 0.00634 0.0
C1179 C 0.7735 0.4263 0.98214 0.0
H1180 H 0.76029 0.49055 0.02161 0.0
C1181 C 0.77871 0.43818 0.95485 0.0
H1182 H 0.76337 0.43728 0.02766 0.0
C1183 C 0.77706 0.46855 0.95158 0.0
C1184 C 0.77024 0.48752 0.97548 0.0
H1185 H 0.78351 0.42395 0.93581 0.0
H1186 H 0.78042 0.47707 0.93013 0.0
C1187 C 0.76576 0.47611 0.00298 0.0
C1188 C 0.21684 0.98129 0.68569 0.0
C1189 C 0.2043 0.96109 0.66219 0.0
H1190 H 0.23247 0.02655 0.69948 0.0
C1191 C 0.19616 0.97195 0.63452 0.0
H1192 H 0.22327 0.9737 0.70729 0.0
C1193 C 0.20142 0.00217 0.63017 0.0
C1194 C 0.21488 0.02193 0.65338 0.0
H1195 H 0.18636 0.95702 0.61599 0.0
H1196 H 0.19549 0.0099 0.60852 0.0
C1197 C 0.22213 0.01149 0.68128 0.0
C1198 C 0.32136 0.0925 0.0038 0.0
C1199 C 0.33818 0.11123 0.0261 0.0
H1200 H 0.30944 0.04761 0.98561 0.0
C1201 C 0.35677 0.09836 0.0471 0.0
H1202 H 0.30682 0.10164 0.98729 0.0
C1203 C 0.35827 0.0675 0.04597 0.0
C1204 C 0.34125 0.04903 0.02388 0.0
H1205 H 0.37005 0.1121 0.06454 0.0
H1206 H 0.37254 0.05805 0.06252 0.0
C1207 C 0.32286 0.06162 0.00275 0.0
C1208 C 0.37686 0.60606 0.46331 0.0
C1209 C 0.37609 0.62947 0.48544 0.0
H1210 H 0.37551 0.59337 0.4164 0.0
C1211 C 0.37425 0.65864 0.4768 0.0
H1212 H 0.37819 0.58334 0.46922 0.0
C1213 C 0.37262 0.6642 0.4467 0.0
C1214 C 0.37288 0.64075 0.42483 0.0
H1215 H 0.37353 0.67715 0.49325 0.0
H1216 H 0.37086 0.68679 0.44052 0.0
C1217 C 0.37527 0.6117 0.43316 0.0
C1218 C 0.04616 0.79853 0.46175 0.0
C1219 C 0.03857 0.77871 0.43637 0.0
H1220 H 0.04848 0.80495 0.50953 0.0
C1221 C 0.02937 0.7489 0.44034 0.0
H1222 H 0.0534 0.82161 0.45955 0.0
C1223 C 0.02663 0.73951 0.46898 0.0
C1224 C 0.03318 0.75968 0.49404 0.0
H1225 H 0.02338 0.73306 0.42133 0.0
H1226 H 0.01857 0.7167 0.47149 0.0
C1227 C 0.04342 0.78908 0.49036 0.0
C1228 C 0.53893 0.19684 0.96668 0.0
C1229 C 0.56039 0.1788 0.95609 0.0
H1230 H 0.51944 0.21533 0.00502 0.0
C1231 C 0.57754 0.16387 0.97662 0.0
H1232 H 0.52537 0.20867 0.9515 0.0
C1233 C 0.57401 0.16769 0.0071 0.0
C1234 C 0.55329 0.18641 0.01753 0.0
H1235 H 0.59422 0.14978 0.96926 0.0
H1236 H 0.58801 0.15658 0.02258 0.0
C1237 C 0.53548 0.20067 -0.00277 0.0
C1238 C 0.95126 0.39159 0.03001 0.0
C1239 C 0.964 0.37589 0.0529 0.0
H1240 H 0.9423 0.39391 0.98288 0.0
C1241 C 0.97679 0.34927 0.04532 0.0
H1242 H 0.94116 0.4121 0.03505 0.0
C1243 C 0.97746 0.33903 0.01543 0.0
C1244 C 0.96531 0.3552 -0.00718 0.0
H1245 H 0.98679 0.33667 0.0624 0.0
H1246 H -0.01221 0.31873 0.00998 0.0
C1247 C 0.95191 0.38128 0.00019 0.0
loop_
_geom_bond_atom_site_label_1
_geom_bond_atom_site_label_2
_geom_bond_distance
_geom_bond_site_symmetry_2
_ccdc_geom_bond_type
O0 Cd1 2.300 . S
O0 C7 1.275 . S
Cd1 O0 2.300 . S
Cd1 O9 2.381 . S
Cd1 O10 2.378 . S
O2 Cd3 2.385 . S
O2 C7 1.255 . S
Cd3 O2 2.385 . S
Cd3 O4 2.317 . S
O4 Cd3 2.317 . S
O4 C5 1.232 . S
C5 O4 1.232 . S
C5 O6 1.218 . S
O6 C5 1.218 . S
C7 O0 1.275 . S
C7 O2 1.255 . S
C8 O9 1.258 . S
C8 O10 1.256 . S
O9 Cd1 2.381 . S
O9 C8 1.258 . S
O10 Cd1 2.378 . S
O10 C8 1.256 . S
O11 Cd12 2.300 . S
O11 C18 1.275 . S
Cd12 O11 2.300 . S
Cd12 O20 2.381 . S
Cd12 O21 2.378 . S
O13 Cd14 2.385 . S
O13 C18 1.255 . S
Cd14 O13 2.385 . S
Cd14 O15 2.317 . S
O15 Cd14 2.317 . S
O15 C16 1.232 . S
C16 O15 1.232 . S
C16 O17 1.218 . S
O17 C16 1.218 . S
C18 O11 1.275 . S
C18 O13 1.255 . S
C19 O20 1.258 . S
C19 O21 1.256 . S
O20 Cd12 2.381 . S
O20 C19 1.258 . S
O21 Cd12 2.378 . S
O21 C19 1.256 . S
O22 Cd23 2.308 . S
O22 C29 1.285 . S
Cd23 O22 2.308 . S
Cd23 O31 2.381 1_565 S
Cd23 O32 2.378 . S
O24 Cd25 2.385 . S
O24 C29 1.255 . S
Cd25 O24 2.385 . S
Cd25 O26 2.317 . S
O26 Cd25 2.317 . S
O26 C27 1.232 . S
C27 O26 1.232 . S
C27 O28 1.218 . S
O28 C27 1.218 . S
C29 O22 1.285 . S
C29 O24 1.255 . S
C30 O31 1.258 . S
C30 O32 1.256 1_545 S
O31 Cd23 2.381 1_545 S
O31 C30 1.258 . S
O32 Cd23 2.378 . S
O32 C30 1.256 1_565 S
O33 Cd34 2.300 1_565 S
O33 C40 1.275 1_565 S
Cd34 O33 2.300 1_545 S
Cd34 O42 2.381 1_545 S
Cd34 O43 2.378 . S
O35 Cd36 2.385 . S
O35 C40 1.255 . S
Cd36 O35 2.385 . S
Cd36 O37 2.317 . S
O37 Cd36 2.317 . S
O37 C38 1.232 . S
C38 O37 1.232 . S
C38 O39 1.218 . S
O39 C38 1.218 . S
C40 O33 1.275 1_545 S
C40 O35 1.255 . S
C41 O42 1.258 1_545 S
C41 O43 1.256 . S
O42 Cd34 2.381 1_565 S
O42 C41 1.258 1_565 S
O43 Cd34 2.378 . S
O43 C41 1.256 . S
O44 Cd45 2.300 . S
O44 C51 1.275 . S
Cd45 O44 2.300 . S
Cd45 O53 2.381 . S
Cd45 O54 2.378 . S
O46 Cd47 2.385 . S
O46 C51 1.255 . S
Cd47 O46 2.385 . S
Cd47 O48 2.317 . S
O48 Cd47 2.317 . S
O48 C49 1.232 . S
C49 O48 1.232 . S
C49 O50 1.218 . S
O50 C49 1.218 . S
C51 O44 1.275 . S
C51 O46 1.255 . S
C52 O53 1.258 . S
C52 O54 1.256 . S
O53 Cd45 2.381 . S
O53 C52 1.258 . S
O54 Cd45 2.378 . S
O54 C52 1.256 . S
O55 Cd56 2.300 1_556 S
O55 C62 1.275 1_556 S
Cd56 O55 2.300 1_554 S
Cd56 O64 2.381 1_554 S
Cd56 O65 2.378 . S
O57 Cd58 2.385 . S
O57 C62 1.255 . S
Cd58 O57 2.385 . S
Cd58 O59 2.317 . S
O59 Cd58 2.317 . S
O59 C60 1.232 . S
C60 O59 1.232 . S
C60 O61 1.218 . S
O61 C60 1.218 . S
C62 O55 1.275 1_554 S
C62 O57 1.255 . S
C63 O64 1.258 1_554 S
C63 O65 1.256 . S
O64 Cd56 2.381 1_556 S
O64 C63 1.258 1_556 S
O65 Cd56 2.378 . S
O65 C63 1.256 . S
O66 Cd67 2.300 . S
O66 C73 1.275 . S
Cd67 O66 2.300 . S
Cd67 O75 2.381 . S
Cd67 O76 2.378 . S
O68 Cd69 2.385 . S
O68 C73 1.255 . S
Cd69 O68 2.385 . S
Cd69 O70 2.317 . S
O70 Cd69 2.317 . S
O70 C71 1.232 . S
C71 O70 1.232 . S
C71 O72 1.218 . S
O72 C71 1.218 . S
C73 O66 1.275 . S
C73 O68 1.255 . S
C74 O75 1.258 . S
C74 O76 1.256 . S
O75 Cd67 2.381 . S
O75 C74 1.258 . S
O76 Cd67 2.378 . S
O76 C74 1.256 . S
O77 Cd78 2.308 . S
O77 C84 1.285 . S
Cd78 O77 2.308 . S
Cd78 O86 2.381 1_556 S
Cd78 O87 2.378 . S
O79 Cd80 2.385 . S
O79 C84 1.255 . S
Cd80 O79 2.385 . S
Cd80 O81 2.317 . S
O81 Cd80 2.317 . S
O81 C82 1.232 . S
C82 O81 1.232 . S
C82 O83 1.218 . S
O83 C82 1.218 . S
C84 O77 1.285 . S
C84 O79 1.255 . S
C85 O86 1.258 . S
C85 O87 1.256 1_554 S
O86 Cd78 2.381 1_554 S
O86 C85 1.258 . S
O87 Cd78 2.378 . S
O87 C85 1.256 1_556 S
O88 Cd89 2.300 . S
O88 C95 1.275 . S
Cd89 O88 2.300 . S
Cd89 O97 2.381 . S
Cd89 O98 2.378 . S
O90 Cd91 2.385 . S
O90 C95 1.255 . S
Cd91 O90 2.385 . S
Cd91 O92 2.317 . S
O92 Cd91 2.317 . S
O92 C93 1.232 . S
C93 O92 1.232 . S
C93 O94 1.218 . S
O94 C93 1.218 . S
C95 O88 1.275 . S
C95 O90 1.255 . S
C96 O97 1.258 . S
C96 O98 1.256 . S
O97 Cd89 2.381 . S
O97 C96 1.258 . S
O98 Cd89 2.378 . S
O98 C96 1.256 . S
O99 Cd100 2.300 1_655 S
O99 C106 1.275 1_655 S
Cd100 O99 2.300 1_455 S
Cd100 O108 2.381 1_455 S
Cd100 O109 2.378 . S
O101 Cd102 2.385 . S
O101 C106 1.255 . S
Cd102 O101 2.385 . S
Cd102 O103 2.317 . S
O103 Cd102 2.317 . S
O103 C104 1.232 . S
C104 O103 1.232 . S
C104 O105 1.218 . S
O105 C104 1.218 . S
C106 O99 1.275 1_455 S
C106 O101 1.255 . S
C107 O108 1.258 1_455 S
C107 O109 1.256 . S
O108 Cd100 2.381 1_655 S
O108 C107 1.258 1_655 S
O109 Cd100 2.378 . S
O109 C107 1.256 . S
O110 Cd111 2.300 . S
O110 C117 1.275 . S
Cd111 O110 2.300 . S
Cd111 O119 2.381 . S
Cd111 O120 2.378 . S
O112 Cd113 2.385 . S
O112 C117 1.255 . S
Cd113 O112 2.385 . S
Cd113 O114 2.317 . S
O114 Cd113 2.317 . S
O114 C115 1.232 . S
C115 O114 1.232 . S
C115 O116 1.218 . S
O116 C115 1.218 . S
C117 O110 1.275 . S
C117 O112 1.255 . S
C118 O119 1.258 . S
C118 O120 1.256 . S
O119 Cd111 2.381 . S
O119 C118 1.258 . S
O120 Cd111 2.378 . S
O120 C118 1.256 . S
O121 Cd122 2.308 . S
O121 C128 1.285 . S
Cd122 O121 2.308 . S
Cd122 O130 2.381 1_655 S
Cd122 O131 2.378 . S
O123 Cd124 2.385 . S
O123 C128 1.255 . S
Cd124 O123 2.385 . S
Cd124 O125 2.317 . S
O125 Cd124 2.317 . S
O125 C126 1.232 . S
C126 O125 1.232 . S
C126 O127 1.218 . S
O127 C126 1.218 . S
C128 O121 1.285 . S
C128 O123 1.255 . S
C129 O130 1.258 . S
C129 O131 1.256 1_455 S
O130 Cd122 2.381 1_455 S
O130 C129 1.258 . S
O131 Cd122 2.378 . S
O131 C129 1.256 1_655 S
O132 Cd133 2.300 . S
O132 C139 1.275 . S
Cd133 O132 2.300 . S
Cd133 O141 2.381 . S
Cd133 O142 2.378 . S
O134 Cd135 2.385 . S
O134 C139 1.255 . S
Cd135 O134 2.385 . S
Cd135 O136 2.317 . S
O136 Cd135 2.317 . S
O136 C137 1.232 . S
C137 O136 1.232 . S
C137 O138 1.218 . S
O138 C137 1.218 . S
C139 O132 1.275 . S
C139 O134 1.255 . S
C140 O141 1.258 . S
C140 O142 1.256 . S
O141 Cd133 2.381 . S
O141 C140 1.258 . S
O142 Cd133 2.378 . S
O142 C140 1.256 . S
O143 Cd144 2.300 . S
O143 C150 1.275 . S
Cd144 O143 2.300 . S
Cd144 O152 2.381 . S
Cd144 O153 2.378 . S
O145 Cd146 2.385 . S
O145 C150 1.255 . S
Cd146 O145 2.385 . S
Cd146 O147 2.317 . S
O147 Cd146 2.317 . S
O147 C148 1.232 . S
C148 O147 1.232 . S
C148 O149 1.218 . S
O149 C148 1.218 . S
C150 O143 1.275 . S
C150 O145 1.255 . S
C151 O152 1.258 . S
C151 O153 1.256 . S
O152 Cd144 2.381 . S
O152 C151 1.258 . S
O153 Cd144 2.378 . S
O153 C151 1.256 . S
O154 Cd155 2.300 1_545 S
O154 C161 1.275 . S
Cd155 O154 2.300 1_565 S
Cd155 O163 2.381 1_565 S
Cd155 O164 2.378 . S
O156 Cd157 2.385 . S
O156 C161 1.255 1_565 S
Cd157 O156 2.385 . S
Cd157 O158 2.317 . S
O158 Cd157 2.317 . S
O158 C159 1.232 . S
C159 O158 1.232 . S
C159 O160 1.218 . S
O160 C159 1.218 . S
C161 O154 1.275 . S
C161 O156 1.255 1_545 S
C162 O163 1.258 1_565 S
C162 O164 1.256 . S
O163 Cd155 2.381 1_545 S
O163 C162 1.258 1_545 S
O164 Cd155 2.378 . S
O164 C162 1.256 . S
O165 Cd166 2.300 1_565 S
O165 C172 1.275 1_565 S
Cd166 O165 2.300 1_545 S
Cd166 O174 2.381 1_545 S
Cd166 O175 2.378 . S
O167 Cd168 2.385 . S
O167 C172 1.255 . S
Cd168 O167 2.385 . S
Cd168 O169 2.317 . S
O169 Cd168 2.317 . S
O169 C170 1.232 . S
C170 O169 1.232 . S
C170 O171 1.218 . S
O171 C170 1.218 . S
C172 O165 1.275 1_545 S
C172 O167 1.255 . S
C173 O174 1.258 1_545 S
C173 O175 1.256 . S
O174 Cd166 2.381 1_565 S
O174 C173 1.258 1_565 S
O175 Cd166 2.378 . S
O175 C173 1.256 . S
O176 Cd177 2.300 . S
O176 C183 1.275 . S
Cd177 O176 2.300 . S
Cd177 O185 2.381 . S
Cd177 O186 2.378 . S
O178 Cd179 2.385 . S
O178 C183 1.255 . S
Cd179 O178 2.385 . S
Cd179 O180 2.317 . S
O180 Cd179 2.317 . S
O180 C181 1.232 . S
C181 O180 1.232 . S
C181 O182 1.218 . S
O182 C181 1.218 . S
C183 O176 1.275 . S
C183 O178 1.255 . S
C184 O185 1.258 . S
C184 O186 1.256 . S
O185 Cd177 2.381 . S
O185 C184 1.258 . S
O186 Cd177 2.378 . S
O186 C184 1.256 . S
O187 Cd188 2.300 1_556 S
O187 C194 1.275 1_556 S
Cd188 O187 2.300 1_554 S
Cd188 O196 2.381 1_554 S
Cd188 O197 2.378 . S
O189 Cd190 2.385 . S
O189 C194 1.255 . S
Cd190 O189 2.385 . S
Cd190 O191 2.317 . S
O191 Cd190 2.317 . S
O191 C192 1.232 . S
C192 O191 1.232 . S
C192 O193 1.218 . S
O193 C192 1.218 . S
C194 O187 1.275 1_554 S
C194 O189 1.255 . S
C195 O196 1.258 1_554 S
C195 O197 1.256 . S
O196 Cd188 2.381 1_556 S
O196 C195 1.258 1_556 S
O197 Cd188 2.378 . S
O197 C195 1.256 . S
O198 Cd199 2.300 . S
O198 C205 1.275 . S
Cd199 O198 2.300 . S
Cd199 O207 2.381 . S
Cd199 O208 2.378 . S
O200 Cd201 2.385 . S
O200 C205 1.255 . S
Cd201 O200 2.385 . S
Cd201 O202 2.317 . S
O202 Cd201 2.317 . S
O202 C203 1.232 . S
C203 O202 1.232 . S
C203 O204 1.218 . S
O204 C203 1.218 . S
C205 O198 1.275 . S
C205 O200 1.255 . S
C206 O207 1.258 . S
C206 O208 1.256 . S
O207 Cd199 2.381 . S
O207 C206 1.258 . S
O208 Cd199 2.378 . S
O208 C206 1.256 . S
O209 Cd210 2.300 1_554 S
O209 C216 1.275 . S
Cd210 O209 2.300 1_556 S
Cd210 O218 2.381 1_556 S
Cd210 O219 2.378 . S
O211 Cd212 2.385 . S
O211 C216 1.255 1_556 S
Cd212 O211 2.385 . S
Cd212 O213 2.317 . S
O213 Cd212 2.317 . S
O213 C214 1.232 . S
C214 O213 1.232 . S
C214 O215 1.218 . S
O215 C214 1.218 . S
C216 O209 1.275 . S
C216 O211 1.255 1_554 S
C217 O218 1.258 1_556 S
C217 O219 1.256 . S
O218 Cd210 2.381 1_554 S
O218 C217 1.258 1_554 S
O219 Cd210 2.378 . S
O219 C217 1.256 . S
O220 Cd221 2.300 . S
O220 C227 1.275 . S
Cd221 O220 2.300 . S
Cd221 O229 2.381 . S
Cd221 O230 2.378 . S
O222 Cd223 2.385 . S
O222 C227 1.255 . S
Cd223 O222 2.385 . S
Cd223 O224 2.317 . S
O224 Cd223 2.317 . S
O224 C225 1.232 . S
C225 O224 1.232 . S
C225 O226 1.218 . S
O226 C225 1.218 . S
C227 O220 1.275 . S
C227 O222 1.255 . S
C228 O229 1.258 . S
C228 O230 1.256 . S
O229 Cd221 2.381 . S
O229 C228 1.258 . S
O230 Cd221 2.378 . S
O230 C228 1.256 . S
O231 Cd232 2.300 1_655 S
O231 C238 1.275 1_655 S
Cd232 O231 2.300 1_455 S
Cd232 O240 2.381 1_455 S
Cd232 O241 2.378 . S
O233 Cd234 2.385 . S
O233 C238 1.255 . S
Cd234 O233 2.385 . S
Cd234 O235 2.317 . S
O235 Cd234 2.317 . S
O235 C236 1.232 . S
C236 O235 1.232 . S
C236 O237 1.218 . S
O237 C236 1.218 . S
C238 O231 1.275 1_455 S
C238 O233 1.255 . S
C239 O240 1.258 1_455 S
C239 O241 1.256 . S
O240 Cd232 2.381 1_655 S
O240 C239 1.258 1_655 S
O241 Cd232 2.378 . S
O241 C239 1.256 . S
O242 Cd243 2.300 . S
O242 C249 1.275 . S
Cd243 O242 2.300 . S
Cd243 O251 2.381 . S
Cd243 O252 2.378 . S
O244 Cd245 2.385 . S
O244 C249 1.255 . S
Cd245 O244 2.385 . S
Cd245 O246 2.317 . S
O246 Cd245 2.317 . S
O246 C247 1.232 . S
C247 O246 1.232 . S
C247 O248 1.218 . S
O248 C247 1.218 . S
C249 O242 1.275 . S
C249 O244 1.255 . S
C250 O251 1.258 . S
C250 O252 1.256 . S
O251 Cd243 2.381 . S
O251 C250 1.258 . S
O252 Cd243 2.378 . S
O252 C250 1.256 . S
O253 Cd254 2.300 1_455 S
O253 C260 1.275 . S
Cd254 O253 2.300 1_655 S
Cd254 O262 2.381 1_655 S
Cd254 O263 2.378 . S
O255 Cd256 2.385 . S
O255 C260 1.255 1_655 S
Cd256 O255 2.385 . S
Cd256 O257 2.317 . S
O257 Cd256 2.317 . S
O257 C258 1.232 . S
C258 O257 1.232 . S
C258 O259 1.218 . S
O259 C258 1.218 . S
C260 O253 1.275 . S
C260 O255 1.255 1_455 S
C261 O262 1.258 1_655 S
C261 O263 1.256 . S
O262 Cd254 2.381 1_455 S
O262 C261 1.258 1_455 S
O263 Cd254 2.378 . S
O263 C261 1.256 . S
H264 C267 0.929 . S
H265 C270 0.929 . S
H266 C272 0.930 . S
C267 H264 0.929 . S
C267 C268 1.398 . S
C267 C269 1.396 . S
C268 C267 1.398 . S
C268 C272 1.407 . S
C269 C267 1.396 . S
C269 C270 1.394 . S
C270 H265 0.929 . S
C270 C269 1.394 . S
C270 C271 1.382 . S
C271 C270 1.382 . S
C271 C272 1.392 . S
C271 N273 1.420 . S
C272 H266 0.930 . S
C272 C268 1.407 . S
C272 C271 1.392 . S
N273 C271 1.420 . S
N273 C274 1.244 . S
C274 N273 1.244 . S
H275 C278 0.929 . S
H276 C281 0.929 . S
H277 C283 0.930 . S
C278 H275 0.929 . S
C278 C279 1.398 . S
C278 C280 1.396 . S
C279 C278 1.398 . S
C279 C283 1.407 . S
C280 C278 1.396 . S
C280 C281 1.394 . S
C281 H276 0.929 . S
C281 C280 1.394 . S
C281 C282 1.382 . S
C282 C281 1.382 . S
C282 C283 1.392 . S
C282 N284 1.420 . S
C283 H277 0.930 . S
C283 C279 1.407 . S
C283 C282 1.392 . S
N284 C282 1.420 . S
N284 C285 1.244 . S
C285 N284 1.244 . S
H286 C289 0.929 . S
H287 C292 0.929 . S
H288 C294 0.930 . S
C289 H286 0.929 . S
C289 C290 1.398 . S
C289 C291 1.396 . S
C290 C289 1.398 . S
C290 C294 1.407 . S
C291 C289 1.396 . S
C291 C292 1.394 1_565 S
C292 H287 0.929 . S
C292 C291 1.394 1_545 S
C292 C293 1.382 . S
C293 C292 1.382 . S
C293 C294 1.392 1_545 S
C293 N295 1.420 . S
C294 H288 0.930 . S
C294 C290 1.407 . S
C294 C293 1.392 1_565 S
N295 C293 1.420 . S
N295 C296 1.244 . S
C296 N295 1.244 . S
H297 C300 0.929 . S
H298 C303 0.929 . S
H299 C305 0.930 . S
C300 H297 0.929 . S
C300 C301 1.398 . S
C300 C302 1.396 1_545 S
C301 C300 1.398 . S
C301 C305 1.407 1_545 S
C302 C300 1.396 1_565 S
C302 C303 1.394 . S
C303 H298 0.929 . S
C303 C302 1.394 . S
C303 C304 1.382 . S
C304 C303 1.382 . S
C304 C305 1.392 . S
C304 N306 1.420 . S
C305 H299 0.930 . S
C305 C301 1.407 1_565 S
C305 C304 1.392 . S
N306 C304 1.420 . S
N306 C307 1.244 . S
C307 N306 1.244 . S
H308 C311 0.929 . S
H309 C314 0.929 . S
H310 C316 0.930 . S
C311 H308 0.929 . S
C311 C312 1.398 . S
C311 C313 1.396 . S
C312 C311 1.398 . S
C312 C316 1.407 . S
C313 C311 1.396 . S
C313 C314 1.394 . S
C314 H309 0.929 . S
C314 C313 1.394 . S
C314 C315 1.382 . S
C315 C314 1.382 . S
C315 C316 1.392 . S
C315 N317 1.420 . S
C316 H310 0.930 . S
C316 C312 1.407 . S
C316 C315 1.392 . S
N317 C315 1.420 . S
N317 C318 1.244 . S
C318 N317 1.244 . S
H319 C322 0.929 . S
H320 C325 0.929 . S
H321 C327 0.930 . S
C322 H319 0.929 . S
C322 C323 1.398 . S
C322 C324 1.396 1_554 S
C323 C322 1.398 . S
C323 C327 1.407 1_554 S
C324 C322 1.396 1_556 S
C324 C325 1.394 . S
C325 H320 0.929 . S
C325 C324 1.394 . S
C325 C326 1.382 . S
C326 C325 1.382 . S
C326 C327 1.392 . S
C326 N328 1.420 . S
C327 H321 0.930 . S
C327 C323 1.407 1_556 S
C327 C326 1.392 . S
N328 C326 1.420 . S
N328 C329 1.244 . S
C329 N328 1.244 . S
H330 C333 0.929 . S
H331 C336 0.929 . S
H332 C338 0.930 . S
C333 H330 0.929 . S
C333 C334 1.398 . S
C333 C335 1.396 . S
C334 C333 1.398 . S
C334 C338 1.407 . S
C335 C333 1.396 . S
C335 C336 1.394 . S
C336 H331 0.929 . S
C336 C335 1.394 . S
C336 C337 1.382 . S
C337 C336 1.382 . S
C337 C338 1.392 . S
C337 N339 1.420 . S
C338 H332 0.930 . S
C338 C334 1.407 . S
C338 C337 1.392 . S
N339 C337 1.420 . S
N339 C340 1.244 . S
C340 N339 1.244 . S
H341 C344 0.929 . S
H342 C347 0.929 . S
H343 C349 0.930 . S
C344 H341 0.929 . S
C344 C345 1.398 . S
C344 C346 1.396 . S
C345 C344 1.398 . S
C345 C349 1.407 . S
C346 C344 1.396 . S
C346 C347 1.394 1_556 S
C347 H342 0.929 . S
C347 C346 1.394 1_554 S
C347 C348 1.382 . S
C348 C347 1.382 . S
C348 C349 1.392 1_554 S
C348 N350 1.420 . S
C349 H343 0.930 . S
C349 C345 1.407 . S
C349 C348 1.392 1_556 S
N350 C348 1.420 . S
N350 C351 1.244 . S
C351 N350 1.244 . S
H352 C355 0.929 . S
H353 C358 0.929 . S
H354 C360 0.930 . S
C355 H352 0.929 . S
C355 C356 1.398 . S
C355 C357 1.396 . S
C356 C355 1.398 . S
C356 C360 1.407 . S
C357 C355 1.396 . S
C357 C358 1.394 . S
C358 H353 0.929 . S
C358 C357 1.394 . S
C358 C359 1.382 . S
C359 C358 1.382 . S
C359 C360 1.392 . S
C359 N361 1.420 . S
C360 H354 0.930 . S
C360 C356 1.407 . S
C360 C359 1.392 . S
N361 C359 1.420 . S
N361 C362 1.244 . S
C362 N361 1.244 . S
H363 C366 0.929 . S
H364 C369 0.929 . S
H365 C371 0.930 . S
C366 H363 0.929 . S
C366 C367 1.398 . S
C366 C368 1.396 1_455 S
C367 C366 1.398 . S
C367 C371 1.407 1_455 S
C368 C366 1.396 1_655 S
C368 C369 1.394 . S
C369 H364 0.929 . S
C369 C368 1.394 . S
C369 C370 1.382 . S
C370 C369 1.382 . S
C370 C371 1.392 . S
C370 N372 1.420 . S
C371 H365 0.930 . S
C371 C367 1.407 1_655 S
C371 C370 1.392 . S
N372 C370 1.420 . S
N372 C373 1.244 . S
C373 N372 1.244 . S
H374 C377 0.929 . S
H375 C380 0.929 . S
H376 C382 0.930 . S
C377 H374 0.929 . S
C377 C378 1.398 . S
C377 C379 1.396 . S
C378 C377 1.398 . S
C378 C382 1.407 . S
C379 C377 1.396 . S
C379 C380 1.394 . S
C380 H375 0.929 . S
C380 C379 1.394 . S
C380 C381 1.382 . S
C381 C380 1.382 . S
C381 C382 1.392 . S
C381 N383 1.420 . S
C382 H376 0.930 . S
C382 C378 1.407 . S
C382 C381 1.392 . S
N383 C381 1.420 . S
N383 C384 1.244 . S
C384 N383 1.244 . S
H385 C388 0.929 . S
H386 C391 0.929 . S
H387 C393 0.930 . S
C388 H385 0.929 . S
C388 C389 1.398 . S
C388 C390 1.396 . S
C389 C388 1.398 . S
C389 C393 1.407 . S
C390 C388 1.396 . S
C390 C391 1.394 1_655 S
C391 H386 0.929 . S
C391 C390 1.394 1_455 S
C391 C392 1.382 . S
C392 C391 1.382 . S
C392 C393 1.392 1_455 S
C392 N394 1.420 . S
C393 H387 0.930 . S
C393 C389 1.407 . S
C393 C392 1.392 1_655 S
N394 C392 1.420 . S
N394 C395 1.244 . S
C395 N394 1.244 . S
H396 C399 0.929 . S
H397 C402 0.929 . S
H398 C404 0.930 . S
C399 H396 0.929 . S
C399 C400 1.398 . S
C399 C401 1.396 . S
C400 C399 1.398 . S
C400 C404 1.407 . S
C401 C399 1.396 . S
C401 C402 1.394 . S
C402 H397 0.929 . S
C402 C401 1.394 . S
C402 C403 1.382 . S
C403 C402 1.382 . S
C403 C404 1.392 . S
C403 N405 1.420 . S
C404 H398 0.930 . S
C404 C400 1.407 . S
C404 C403 1.392 . S
N405 C403 1.420 . S
N405 C406 1.244 . S
C406 N405 1.244 . S
H407 C410 0.929 . S
H408 C413 0.929 . S
H409 C415 0.930 . S
C410 H407 0.929 . S
C410 C411 1.398 . S
C410 C412 1.396 . S
C411 C410 1.398 . S
C411 C415 1.407 . S
C412 C410 1.396 . S
C412 C413 1.394 . S
C413 H408 0.929 . S
C413 C412 1.394 . S
C413 C414 1.382 . S
C414 C413 1.382 . S
C414 C415 1.392 . S
C414 N416 1.420 . S
C415 H409 0.930 . S
C415 C411 1.407 . S
C415 C414 1.392 . S
N416 C414 1.420 . S
N416 C417 1.244 . S
C417 N416 1.244 . S
H418 C421 0.929 . S
H419 C424 0.929 . S
H420 C426 0.930 . S
C421 H418 0.929 . S
C421 C422 1.398 . S
C421 C423 1.396 . S
C422 C421 1.398 . S
C422 C426 1.407 . S
C423 C421 1.396 . S
C423 C424 1.394 1_545 S
C424 H419 0.929 . S
C424 C423 1.394 1_565 S
C424 C425 1.382 . S
C425 C424 1.382 . S
C425 C426 1.392 1_565 S
C425 N427 1.420 . S
C426 H420 0.930 . S
C426 C422 1.407 . S
C426 C425 1.392 1_545 S
N427 C425 1.420 . S
N427 C428 1.244 . S
C428 N427 1.244 . S
H429 C432 0.929 . S
H430 C435 0.929 . S
H431 C437 0.890 1_554 S
C432 H429 0.929 . S
C432 C433 1.398 . S
C432 C434 1.396 1_565 S
C433 C432 1.398 . S
C433 C437 1.407 1_565 S
C434 C432 1.396 1_545 S
C434 C435 1.394 . S
C435 H430 0.929 . S
C435 C434 1.394 . S
C435 C436 1.382 . S
C436 C435 1.382 . S
C436 C437 1.392 . S
C436 N438 1.420 . S
C437 H431 0.890 1_556 S
C437 C433 1.407 1_545 S
C437 C436 1.392 . S
N438 C436 1.420 . S
N438 C439 1.244 . S
C439 N438 1.244 . S
H440 C443 0.929 . S
H441 C446 0.929 . S
H442 C448 0.930 . S
C443 H440 0.929 . S
C443 C444 1.398 . S
C443 C445 1.396 . S
C444 C443 1.398 . S
C444 C448 1.407 . S
C445 C443 1.396 . S
C445 C446 1.394 . S
C446 H441 0.929 . S
C446 C445 1.394 . S
C446 C447 1.382 . S
C447 C446 1.382 . S
C447 C448 1.392 . S
C447 N449 1.420 . S
C448 H442 0.930 . S
C448 C444 1.407 . S
C448 C447 1.392 . S
N449 C447 1.420 . S
N449 C450 1.244 . S
C450 N449 1.244 . S
H451 C454 0.929 . S
H452 C457 0.929 . S
H453 C459 0.891 1_455 S
C454 H451 0.929 . S
C454 C455 1.398 . S
C454 C456 1.396 1_556 S
C455 C454 1.398 . S
C455 C459 1.407 1_556 S
C456 C454 1.396 1_554 S
C456 C457 1.394 . S
C457 H452 0.929 . S
C457 C456 1.394 . S
C457 C458 1.382 . S
C458 C457 1.382 . S
C458 C459 1.392 . S
C458 N460 1.420 . S
C459 H453 0.891 1_655 S
C459 C455 1.407 1_554 S
C459 C458 1.392 . S
N460 C458 1.420 . S
N460 C461 1.244 . S
C461 N460 1.244 . S
H462 C465 0.929 . S
H463 C468 0.929 . S
H464 C470 0.930 . S
C465 H462 0.929 . S
C465 C466 1.398 . S
C465 C467 1.396 . S
C466 C465 1.398 . S
C466 C470 1.407 . S
C467 C465 1.396 . S
C467 C468 1.394 . S
C468 H463 0.929 . S
C468 C467 1.394 . S
C468 C469 1.382 . S
C469 C468 1.382 . S
C469 C470 1.392 . S
C469 N471 1.420 . S
C470 H464 0.930 . S
C470 C466 1.407 . S
C470 C469 1.392 . S
N471 C469 1.420 . S
N471 C472 1.244 . S
C472 N471 1.244 . S
H473 C476 0.929 . S
H474 C479 0.929 . S
H475 C481 0.930 . S
C476 H473 0.929 . S
C476 C477 1.398 . S
C476 C478 1.396 . S
C477 C476 1.398 . S
C477 C481 1.407 . S
C478 C476 1.396 . S
C478 C479 1.394 1_554 S
C479 H474 0.929 . S
C479 C478 1.394 1_556 S
C479 C480 1.382 . S
C480 C479 1.382 . S
C480 C481 1.392 1_556 S
C480 N482 1.420 . S
C481 H475 0.930 . S
C481 C477 1.407 . S
C481 C480 1.392 1_554 S
N482 C480 1.420 . S
N482 C483 1.244 . S
C483 N482 1.244 . S
H484 C487 0.929 . S
H485 C490 0.929 . S
H486 C492 0.930 . S
C487 H484 0.929 . S
C487 C488 1.398 . S
C487 C489 1.396 . S
C488 C487 1.398 . S
C488 C492 1.407 . S
C489 C487 1.396 . S
C489 C490 1.394 . S
C490 H485 0.929 . S
C490 C489 1.394 . S
C490 C491 1.382 . S
C491 C490 1.382 . S
C491 C492 1.392 . S
C491 N493 1.420 . S
C492 H486 0.930 . S
C492 C488 1.407 . S
C492 C491 1.392 . S
N493 C491 1.420 . S
N493 C494 1.244 . S
C494 N493 1.244 . S
H495 C498 0.929 . S
H496 C501 0.929 . S
H497 C503 0.891 1_545 S
C498 H495 0.929 . S
C498 C499 1.398 . S
C498 C500 1.396 1_655 S
C499 C498 1.398 . S
C499 C503 1.407 1_655 S
C500 C498 1.396 1_455 S
C500 C501 1.394 . S
C501 H496 0.929 . S
C501 C500 1.394 . S
C501 C502 1.382 . S
C502 C501 1.382 . S
C502 C503 1.392 . S
C502 N504 1.420 . S
C503 H497 0.891 1_565 S
C503 C499 1.407 1_455 S
C503 C502 1.392 . S
N504 C502 1.420 . S
N504 C505 1.244 . S
C505 N504 1.244 . S
H506 C509 0.929 . S
H507 C512 0.929 . S
H508 C514 0.930 . S
C509 H506 0.929 . S
C509 C510 1.398 . S
C509 C511 1.396 . S
C510 C509 1.398 . S
C510 C514 1.407 . S
C511 C509 1.396 . S
C511 C512 1.394 . S
C512 H507 0.929 . S
C512 C511 1.394 . S
C512 C513 1.382 . S
C513 C512 1.382 . S
C513 C514 1.392 . S
C513 N515 1.420 . S
C514 H508 0.930 . S
C514 C510 1.407 . S
C514 C513 1.392 . S
N515 C513 1.420 . S
N515 C516 1.244 . S
C516 N515 1.244 . S
H517 C520 0.929 . S
H518 C523 0.929 . S
H519 C525 0.930 . S
C520 H517 0.929 . S
C520 C521 1.398 . S
C520 C522 1.396 . S
C521 C520 1.398 . S
C521 C525 1.407 . S
C522 C520 1.396 . S
C522 C523 1.394 1_455 S
C523 H518 0.929 . S
C523 C522 1.394 1_655 S
C523 C524 1.382 . S
C524 C523 1.382 . S
C524 C525 1.392 1_655 S
C524 N526 1.420 . S
C525 H519 0.930 . S
C525 C521 1.407 . S
C525 C524 1.392 1_455 S
N526 C524 1.420 . S
N526 C527 1.244 . S
C527 N526 1.244 . S
C528 C529 1.387 . S
C528 H532 0.950 . S
C528 C537 1.390 . S
C529 C528 1.387 . S
C529 C531 1.387 . S
H530 C537 0.950 . S
C531 C529 1.387 . S
C531 C533 1.390 . S
C531 H535 0.950 . S
H532 C528 0.950 . S
C533 C531 1.390 . S
C533 C534 1.387 . S
C533 H536 0.950 . S
C534 C533 1.387 . S
C534 C537 1.387 . S
H535 C531 0.950 . S
H536 C533 0.950 . S
C537 C528 1.390 . S
C537 H530 0.950 . S
C537 C534 1.387 . S
C538 C539 1.387 . S
C538 H542 0.950 . S
C538 C547 1.390 . S
C539 C538 1.387 . S
C539 C541 1.387 . S
H540 C547 0.950 . S
C541 C539 1.387 . S
C541 C543 1.390 . S
C541 H545 0.950 . S
H542 C538 0.950 . S
C543 C541 1.390 . S
C543 C544 1.387 . S
C543 H546 0.950 . S
C544 C543 1.387 . S
C544 C547 1.387 . S
H545 C541 0.950 . S
H546 C543 0.950 . S
C547 C538 1.390 . S
C547 H540 0.950 . S
C547 C544 1.387 . S
C548 C549 1.387 1_565 S
C548 H552 0.950 . S
C548 C557 1.402 . S
C549 C548 1.387 1_545 S
C549 C551 1.387 . S
H550 C557 0.973 . S
C551 C549 1.387 . S
C551 C553 1.390 . S
C551 H555 0.950 . S
H552 C548 0.950 . S
C553 C551 1.390 . S
C553 C554 1.387 . S
C553 H556 0.950 . S
C554 C553 1.387 . S
C554 C557 1.353 1_545 S
H555 C551 0.950 . S
H556 C553 0.950 . S
C557 C548 1.402 . S
C557 H550 0.973 . S
C557 C554 1.353 1_565 S
C558 C559 1.387 . S
C558 H562 0.950 . S
C558 C567 1.390 . S
C559 C558 1.387 . S
C559 C561 1.387 . S
H560 C567 0.950 . S
C561 C559 1.387 . S
C561 C563 1.390 . S
C561 H565 0.950 . S
H562 C558 0.950 . S
C563 C561 1.390 . S
C563 C564 1.387 . S
C563 H566 0.950 . S
C564 C563 1.387 . S
C564 C567 1.387 . S
H565 C561 0.950 . S
H566 C563 0.950 . S
C567 C558 1.390 . S
C567 H560 0.950 . S
C567 C564 1.387 . S
C568 C569 1.387 . S
C568 H572 0.950 . S
C568 C577 1.390 . S
C569 C568 1.387 . S
C569 C571 1.387 . S
H570 C577 0.950 . S
C571 C569 1.387 . S
C571 C573 1.390 . S
C571 H575 0.950 . S
H572 C568 0.950 . S
C573 C571 1.390 . S
C573 C574 1.387 . S
C573 H576 0.950 . S
C574 C573 1.387 . S
C574 C577 1.387 . S
H575 C571 0.950 . S
H576 C573 0.950 . S
C577 C568 1.390 . S
C577 H570 0.950 . S
C577 C574 1.387 . S
C578 C579 1.387 1_554 S
C578 H582 0.950 . S
C578 C587 1.390 . S
C579 C578 1.387 1_556 S
C579 C581 1.387 . S
H580 C587 0.950 . S
C581 C579 1.387 . S
C581 C583 1.390 . S
C581 H585 0.950 . S
H582 C578 0.950 . S
C583 C581 1.390 . S
C583 C584 1.387 . S
C583 H586 0.950 . S
C584 C583 1.387 . S
C584 C587 1.387 1_556 S
H585 C581 0.950 . S
H586 C583 0.950 . S
C587 C578 1.390 . S
C587 H580 0.950 . S
C587 C584 1.387 1_554 S
C588 C589 1.387 . S
C588 H592 0.950 . S
C588 C597 1.390 . S
C589 C588 1.387 . S
C589 C591 1.387 . S
H590 C597 0.950 . S
C591 C589 1.387 . S
C591 C593 1.390 . S
C591 H595 0.950 . S
H592 C588 0.950 . S
C593 C591 1.390 . S
C593 C594 1.387 . S
C593 H596 0.950 . S
C594 C593 1.387 . S
C594 C597 1.387 . S
H595 C591 0.950 . S
H596 C593 0.950 . S
C597 C588 1.390 . S
C597 H590 0.950 . S
C597 C594 1.387 . S
C598 C599 1.387 1_556 S
C598 H602 0.950 . S
C598 C607 1.390 . S
C599 C598 1.387 1_554 S
C599 C601 1.387 . S
H600 C607 0.950 . S
C601 C599 1.387 . S
C601 C603 1.390 . S
C601 H605 0.950 . S
H602 C598 0.950 . S
C603 C601 1.390 . S
C603 C604 1.387 . S
C603 H606 0.950 . S
C604 C603 1.387 . S
C604 C607 1.387 1_554 S
H605 C601 0.950 . S
H606 C603 0.950 . S
C607 C598 1.390 . S
C607 H600 0.950 . S
C607 C604 1.387 1_556 S
C608 C609 1.387 . S
C608 H612 0.950 . S
C608 C617 1.390 . S
C609 C608 1.387 . S
C609 C611 1.387 . S
H610 C617 0.950 . S
C611 C609 1.387 . S
C611 C613 1.390 . S
C611 H615 0.950 . S
H612 C608 0.950 . S
C613 C611 1.390 . S
C613 C614 1.387 . S
C613 H616 0.950 . S
C614 C613 1.387 . S
C614 C617 1.387 . S
H615 C611 0.950 . S
H616 C613 0.950 . S
C617 C608 1.390 . S
C617 H610 0.950 . S
C617 C614 1.387 . S
C618 C619 1.387 . S
C618 H622 0.950 . S
C618 C627 1.390 . S
C619 C618 1.387 . S
C619 C621 1.387 . S
H620 C627 0.950 . S
C621 C619 1.387 . S
C621 C623 1.390 . S
C621 H625 0.950 . S
H622 C618 0.950 . S
C623 C621 1.390 . S
C623 C624 1.387 . S
C623 H626 0.950 . S
C624 C623 1.387 . S
C624 C627 1.387 . S
H625 C621 0.950 . S
H626 C623 0.950 . S
C627 C618 1.390 . S
C627 H620 0.950 . S
C627 C624 1.387 . S
C628 C629 1.387 . S
C628 H632 0.950 . S
C628 C637 1.390 . S
C629 C628 1.387 . S
C629 C631 1.387 . S
H630 C637 0.950 . S
C631 C629 1.387 . S
C631 C633 1.390 . S
C631 H635 0.950 . S
H632 C628 0.950 . S
C633 C631 1.390 . S
C633 C634 1.387 . S
C633 H636 0.950 . S
C634 C633 1.387 . S
C634 C637 1.387 . S
H635 C631 0.950 . S
H636 C633 0.950 . S
C637 C628 1.390 . S
C637 H630 0.950 . S
C637 C634 1.387 . S
C638 C639 1.387 . S
C638 H642 0.950 . S
C638 C647 1.390 . S
C639 C638 1.387 . S
C639 C641 1.387 . S
H640 C647 0.950 . S
C641 C639 1.387 . S
C641 C643 1.390 . S
C641 H645 0.950 . S
H642 C638 0.950 . S
C643 C641 1.390 . S
C643 C644 1.387 . S
C643 H646 0.950 . S
C644 C643 1.387 . S
C644 C647 1.387 . S
H645 C641 0.950 . S
H646 C643 0.950 . S
C647 C638 1.390 . S
C647 H640 0.950 . S
C647 C644 1.387 . S
C648 C649 1.387 . S
C648 H652 0.950 . S
C648 C657 1.390 . S
C649 C648 1.387 . S
C649 C651 1.387 . S
H650 C657 0.950 . S
C651 C649 1.387 . S
C651 C653 1.390 . S
C651 H655 0.950 . S
H652 C648 0.950 . S
C653 C651 1.390 . S
C653 C654 1.387 . S
C653 H656 0.950 . S
C654 C653 1.387 . S
C654 C657 1.387 . S
H655 C651 0.950 . S
H656 C653 0.950 . S
C657 C648 1.390 . S
C657 H650 0.950 . S
C657 C654 1.387 . S
C658 C659 1.387 . S
C658 H662 0.950 . S
C658 C667 1.390 . S
C659 C658 1.387 . S
C659 C661 1.387 . S
H660 C667 0.950 . S
C661 C659 1.387 . S
C661 C663 1.390 . S
C661 H665 0.950 . S
H662 C658 0.950 . S
C663 C661 1.390 . S
C663 C664 1.387 . S
C663 H666 0.950 . S
C664 C663 1.387 . S
C664 C667 1.387 . S
H665 C661 0.950 . S
H666 C663 0.950 . S
C667 C658 1.390 . S
C667 H660 0.950 . S
C667 C664 1.387 . S
C668 C669 1.387 . S
C668 H672 0.950 . S
C668 C677 1.390 . S
C669 C668 1.387 . S
C669 C671 1.387 1_565 S
H670 C677 0.950 . S
C671 C669 1.387 1_545 S
C671 C673 1.390 1_545 S
C671 H675 0.950 . S
H672 C668 0.950 . S
C673 C671 1.390 1_565 S
C673 C674 1.387 . S
C673 H676 0.950 1_565 S
C674 C673 1.387 . S
C674 C677 1.387 . S
H675 C671 0.950 . S
H676 C673 0.950 1_545 S
C677 C668 1.390 . S
C677 H670 0.950 . S
C677 C674 1.387 . S
C678 C679 1.387 1_565 S
C678 H682 0.950 . S
C678 C687 1.390 1_565 S
C679 C678 1.387 1_545 S
C679 C681 1.387 . S
H680 C687 0.950 1_565 S
C681 C679 1.387 . S
C681 C683 1.390 . S
C681 H685 0.950 . S
H682 C678 0.950 . S
C683 C681 1.390 . S
C683 C684 1.387 . S
C683 H686 0.950 . S
C684 C683 1.387 . S
C684 C687 1.387 . S
H685 C681 0.950 . S
H686 C683 0.950 . S
C687 C678 1.390 1_545 S
C687 H680 0.950 1_545 S
C687 C684 1.387 . S
C688 C689 1.387 . S
C688 H692 0.950 . S
C688 C697 1.390 . S
C689 C688 1.387 . S
C689 C691 1.387 . S
H690 C697 0.950 . S
C691 C689 1.387 . S
C691 C693 1.390 . S
C691 H695 0.950 . S
H692 C688 0.950 . S
C693 C691 1.390 . S
C693 C694 1.387 . S
C693 H696 0.950 . S
C694 C693 1.387 . S
C694 C697 1.387 . S
H695 C691 0.950 . S
H696 C693 0.950 . S
C697 C688 1.390 . S
C697 H690 0.950 . S
C697 C694 1.387 . S
C698 C699 1.387 . S
C698 H702 0.950 . S
C698 C707 1.390 . S
C699 C698 1.387 . S
C699 C701 1.387 . S
H700 C707 0.950 . S
C701 C699 1.387 . S
C701 C703 1.390 . S
C701 H705 0.950 1_554 S
H702 C698 0.950 . S
C703 C701 1.390 . S
C703 C704 1.387 . S
C703 H706 0.950 . S
C704 C703 1.387 . S
C704 C707 1.387 . S
H705 C701 0.950 1_556 S
H706 C703 0.950 . S
C707 C698 1.390 . S
C707 H700 0.950 . S
C707 C704 1.387 . S
C708 C709 1.387 . S
C708 H712 0.950 . S
C708 C717 1.390 . S
C709 C708 1.387 . S
C709 C711 1.387 . S
H710 C717 0.950 . S
C711 C709 1.387 . S
C711 C713 1.390 . S
C711 H715 0.950 . S
H712 C708 0.950 . S
C713 C711 1.390 . S
C713 C714 1.387 . S
C713 H716 0.950 . S
C714 C713 1.387 . S
C714 C717 1.387 . S
H715 C711 0.950 . S
H716 C713 0.950 . S
C717 C708 1.390 . S
C717 H710 0.950 . S
C717 C714 1.387 . S
C718 C719 1.387 . S
C718 H722 0.950 . S
C718 C727 1.390 . S
C719 C718 1.387 . S
C719 C721 1.387 1_556 S
H720 C727 0.950 . S
C721 C719 1.387 1_554 S
C721 C723 1.390 1_554 S
C721 H725 0.950 . S
H722 C718 0.950 . S
C723 C721 1.390 1_556 S
C723 C724 1.387 . S
C723 H726 0.950 1_556 S
C724 C723 1.387 . S
C724 C727 1.387 . S
H725 C721 0.950 . S
H726 C723 0.950 1_554 S
C727 C718 1.390 . S
C727 H720 0.950 . S
C727 C724 1.387 . S
C728 C729 1.387 . S
C728 H732 0.950 . S
C728 C737 1.390 . S
C729 C728 1.387 . S
C729 C731 1.387 . S
H730 C737 0.950 . S
C731 C729 1.387 . S
C731 C733 1.390 . S
C731 H735 0.950 . S
H732 C728 0.950 . S
C733 C731 1.390 . S
C733 C734 1.387 . S
C733 H736 0.950 . S
C734 C733 1.387 . S
C734 C737 1.387 . S
H735 C731 0.950 . S
H736 C733 0.950 . S
C737 C728 1.390 . S
C737 H730 0.950 . S
C737 C734 1.387 . S
C738 C739 1.387 . S
C738 H742 0.950 1_455 S
C738 C747 1.390 . S
C739 C738 1.387 . S
C739 C741 1.387 . S
H740 C747 0.950 . S
C741 C739 1.387 . S
C741 C743 1.390 . S
C741 H745 0.950 . S
H742 C738 0.950 1_655 S
C743 C741 1.390 . S
C743 C744 1.387 . S
C743 H746 0.950 . S
C744 C743 1.387 . S
C744 C747 1.387 . S
H745 C741 0.950 . S
H746 C743 0.950 . S
C747 C738 1.390 . S
C747 H740 0.950 . S
C747 C744 1.387 . S
C748 C749 1.387 . S
C748 H752 0.950 . S
C748 C757 1.390 . S
C749 C748 1.387 . S
C749 C751 1.387 . S
H750 C757 0.950 . S
C751 C749 1.387 . S
C751 C753 1.390 . S
C751 H755 0.950 . S
H752 C748 0.950 . S
C753 C751 1.390 . S
C753 C754 1.387 . S
C753 H756 0.950 . S
C754 C753 1.387 . S
C754 C757 1.387 . S
H755 C751 0.950 . S
H756 C753 0.950 . S
C757 C748 1.390 . S
C757 H750 0.950 . S
C757 C754 1.387 . S
C758 C759 1.387 . S
C758 H762 0.950 . S
C758 C767 1.390 . S
C759 C758 1.387 . S
C759 C761 1.387 . S
H760 C767 0.950 . S
C761 C759 1.387 . S
C761 C763 1.390 . S
C761 H765 0.950 . S
H762 C758 0.950 . S
C763 C761 1.390 . S
C763 C764 1.387 . S
C763 H766 0.950 . S
C764 C763 1.387 . S
C764 C767 1.387 . S
H765 C761 0.950 . S
H766 C763 0.950 . S
C767 C758 1.390 . S
C767 H760 0.950 . S
C767 C764 1.387 . S
C768 C769 1.387 . S
C768 H772 0.950 . S
C768 C777 1.390 . S
C769 C768 1.387 . S
C769 C771 1.387 . S
H770 C777 0.950 . S
C771 C769 1.387 . S
C771 C773 1.390 . S
C771 H775 0.950 . S
H772 C768 0.950 . S
C773 C771 1.390 . S
C773 C774 1.387 . S
C773 H776 0.950 . S
C774 C773 1.387 . S
C774 C777 1.387 . S
H775 C771 0.950 . S
H776 C773 0.950 . S
C777 C768 1.390 . S
C777 H770 0.950 . S
C777 C774 1.387 . S
C778 C779 1.387 . S
C778 H782 0.950 . S
C778 C787 1.390 . S
C779 C778 1.387 . S
C779 C781 1.387 . S
H780 C787 0.950 . S
C781 C779 1.387 . S
C781 C783 1.390 . S
C781 H785 0.950 . S
H782 C778 0.950 . S
C783 C781 1.390 . S
C783 C784 1.387 . S
C783 H786 0.950 . S
C784 C783 1.387 . S
C784 C787 1.387 . S
H785 C781 0.950 . S
H786 C783 0.950 . S
C787 C778 1.390 . S
C787 H780 0.950 . S
C787 C784 1.387 . S
C788 C789 1.387 1_545 S
C788 H792 0.950 . S
C788 C797 1.390 . S
C789 C788 1.387 1_565 S
C789 C791 1.387 . S
H790 C797 0.950 . S
C791 C789 1.387 . S
C791 C793 1.390 . S
C791 H795 0.950 . S
H792 C788 0.950 . S
C793 C791 1.390 . S
C793 C794 1.387 . S
C793 H796 0.950 . S
C794 C793 1.387 . S
C794 C797 1.387 1_565 S
H795 C791 0.950 . S
H796 C793 0.950 . S
C797 C788 1.390 . S
C797 H790 0.950 . S
C797 C794 1.387 1_545 S
C798 C799 1.387 1_565 S
C798 H802 0.950 . S
C798 C807 1.390 . S
C799 C798 1.387 1_545 S
C799 C801 1.387 . S
H800 C807 0.950 . S
C801 C799 1.387 . S
C801 C803 1.390 . S
C801 H805 0.950 . S
H802 C798 0.950 . S
C803 C801 1.390 . S
C803 C804 1.387 1_545 S
C803 H806 0.950 . S
C804 C803 1.387 1_565 S
C804 C807 1.387 . S
H805 C801 0.950 . S
H806 C803 0.950 . S
C807 C798 1.390 . S
C807 H800 0.950 . S
C807 C804 1.387 . S
C808 C809 1.387 . S
C808 H812 0.950 . S
C808 C817 1.390 . S
C809 C808 1.387 . S
C809 C811 1.387 . S
H810 C817 0.950 . S
C811 C809 1.387 . S
C811 C813 1.390 . S
C811 H815 0.950 . S
H812 C808 0.950 . S
C813 C811 1.390 . S
C813 C814 1.387 . S
C813 H816 0.950 . S
C814 C813 1.387 . S
C814 C817 1.387 . S
H815 C811 0.950 . S
H816 C813 0.950 . S
C817 C808 1.390 . S
C817 H810 0.950 . S
C817 C814 1.387 . S
C818 C819 1.387 . S
C818 H822 0.950 . S
C818 C827 1.390 . S
C819 C818 1.387 . S
C819 C821 1.387 1_554 S
H820 C827 0.950 . S
C821 C819 1.387 1_556 S
C821 C823 1.390 . S
C821 H825 0.950 . S
H822 C818 0.950 . S
C823 C821 1.390 . S
C823 C824 1.387 . S
C823 H826 0.950 . S
C824 C823 1.387 . S
C824 C827 1.387 1_556 S
H825 C821 0.950 . S
H826 C823 0.950 . S
C827 C818 1.390 . S
C827 H820 0.950 . S
C827 C824 1.387 1_554 S
C828 C829 1.387 . S
C828 H832 0.950 . S
C828 C837 1.390 . S
C829 C828 1.387 . S
C829 C831 1.387 . S
H830 C837 0.950 . S
C831 C829 1.387 . S
C831 C833 1.390 . S
C831 H835 0.950 . S
H832 C828 0.950 . S
C833 C831 1.390 . S
C833 C834 1.387 . S
C833 H836 0.950 . S
C834 C833 1.387 . S
C834 C837 1.387 . S
H835 C831 0.950 . S
H836 C833 0.950 . S
C837 C828 1.390 . S
C837 H830 0.950 . S
C837 C834 1.387 . S
C838 C839 1.387 . S
C838 H842 0.950 . S
C838 C847 1.390 . S
C839 C838 1.387 . S
C839 C841 1.387 . S
H840 C847 0.950 . S
C841 C839 1.387 . S
C841 C843 1.390 . S
C841 H845 0.950 . S
H842 C838 0.950 . S
C843 C841 1.390 . S
C843 C844 1.387 . S
C843 H846 0.950 . S
C844 C843 1.387 . S
C844 C847 1.387 . S
H845 C841 0.950 . S
H846 C843 0.950 . S
C847 C838 1.390 . S
C847 H840 0.950 . S
C847 C844 1.387 . S
C848 C849 1.387 . S
C848 H852 0.950 . S
C848 C857 1.390 . S
C849 C848 1.387 . S
C849 C851 1.387 . S
H850 C857 0.950 . S
C851 C849 1.387 . S
C851 C853 1.390 . S
C851 H855 0.950 . S
H852 C848 0.950 . S
C853 C851 1.390 . S
C853 C854 1.387 . S
C853 H856 0.950 . S
C854 C853 1.387 . S
C854 C857 1.387 . S
H855 C851 0.950 . S
H856 C853 0.950 . S
C857 C848 1.390 . S
C857 H850 0.950 . S
C857 C854 1.387 . S
C858 C859 1.387 1_655 S
C858 H862 0.950 . S
C858 C867 1.390 . S
C859 C858 1.387 1_455 S
C859 C861 1.386 . S
H860 C867 0.950 . S
C861 C859 1.386 . S
C861 C863 1.386 1_455 S
C861 H865 0.956 . S
H862 C858 0.950 . S
C863 C861 1.386 1_655 S
C863 C864 1.387 . S
C863 H866 0.950 . S
C864 C863 1.387 . S
C864 C867 1.387 . S
H865 C861 0.956 . S
H866 C863 0.950 . S
C867 C858 1.390 . S
C867 H860 0.950 . S
C867 C864 1.387 . S
C868 C869 1.387 . S
C868 H872 0.950 . S
C868 C877 1.390 . S
C869 C868 1.387 . S
C869 C871 1.387 . S
H870 C877 0.950 . S
C871 C869 1.387 . S
C871 C873 1.390 . S
C871 H875 0.950 . S
H872 C868 0.950 . S
C873 C871 1.390 . S
C873 C874 1.387 . S
C873 H876 0.950 . S
C874 C873 1.387 . S
C874 C877 1.387 . S
H875 C871 0.950 . S
H876 C873 0.950 . S
C877 C868 1.390 . S
C877 H870 0.950 . S
C877 C874 1.387 . S
C878 C879 1.387 . S
C878 H882 0.950 . S
C878 C887 1.390 . S
C879 C878 1.387 . S
C879 C881 1.387 . S
H880 C887 0.950 1_455 S
C881 C879 1.387 . S
C881 C883 1.390 . S
C881 H885 0.950 . S
H882 C878 0.950 . S
C883 C881 1.390 . S
C883 C884 1.387 . S
C883 H886 0.950 . S
C884 C883 1.387 . S
C884 C887 1.387 . S
H885 C881 0.950 . S
H886 C883 0.950 . S
C887 C878 1.390 . S
C887 H880 0.950 1_655 S
C887 C884 1.387 . S
C888 C889 1.387 . S
C888 H892 0.950 . S
C888 C897 1.390 . S
C889 C888 1.387 . S
C889 C891 1.387 . S
H890 C897 0.950 . S
C891 C889 1.387 . S
C891 C893 1.390 . S
C891 H895 0.950 . S
H892 C888 0.950 . S
C893 C891 1.390 . S
C893 C894 1.387 . S
C893 H896 0.950 . S
C894 C893 1.387 . S
C894 C897 1.387 . S
H895 C891 0.950 . S
H896 C893 0.950 . S
C897 C888 1.390 . S
C897 H890 0.950 . S
C897 C894 1.387 . S
C898 C899 1.387 . S
C898 H902 0.950 . S
C898 C907 1.390 . S
C899 C898 1.387 . S
C899 C901 1.387 . S
H900 C907 0.950 . S
C901 C899 1.387 . S
C901 C903 1.390 . S
C901 H905 0.950 . S
H902 C898 0.950 . S
C903 C901 1.390 . S
C903 C904 1.387 . S
C903 H906 0.950 . S
C904 C903 1.387 . S
C904 C907 1.387 . S
H905 C901 0.950 . S
H906 C903 0.950 . S
C907 C898 1.390 . S
C907 H900 0.950 . S
C907 C904 1.387 . S
C908 C909 1.387 1_565 S
C908 H912 0.950 . S
C908 C917 1.390 . S
C909 C908 1.387 1_545 S
C909 C911 1.387 . S
H910 C917 0.950 . S
C911 C909 1.387 . S
C911 C913 1.390 . S
C911 H915 0.950 . S
H912 C908 0.950 . S
C913 C911 1.390 . S
C913 C914 1.387 . S
C913 H916 0.950 . S
C914 C913 1.387 . S
C914 C917 1.387 1_545 S
H915 C911 0.950 . S
H916 C913 0.950 . S
C917 C908 1.390 . S
C917 H910 0.950 . S
C917 C914 1.387 1_565 S
C918 C919 1.387 . S
C918 H922 0.950 . S
C918 C927 1.390 . S
C919 C918 1.387 . S
C919 C921 1.387 1_565 S
H920 C927 0.950 . S
C921 C919 1.387 1_545 S
C921 C923 1.390 . S
C921 H925 0.950 . S
H922 C918 0.950 . S
C923 C921 1.390 . S
C923 C924 1.387 . S
C923 H926 0.950 . S
C924 C923 1.387 . S
C924 C927 1.387 1_545 S
H925 C921 0.950 . S
H926 C923 0.950 . S
C927 C918 1.390 . S
C927 H920 0.950 . S
C927 C924 1.387 1_565 S
C928 C929 1.387 . S
C928 H932 0.950 . S
C928 C937 1.390 . S
C929 C928 1.387 . S
C929 C931 1.387 . S
H930 C937 0.950 . S
C931 C929 1.387 . S
C931 C933 1.390 . S
C931 H935 0.950 . S
H932 C928 0.950 . S
C933 C931 1.390 . S
C933 C934 1.387 . S
C933 H936 0.950 . S
C934 C933 1.387 . S
C934 C937 1.387 . S
H935 C931 0.950 . S
H936 C933 0.950 . S
C937 C928 1.390 . S
C937 H930 0.950 . S
C937 C934 1.387 . S
C938 C939 1.387 . S
C938 H942 0.950 . S
C938 C947 1.390 . S
C939 C938 1.387 . S
C939 C941 1.387 1_556 S
H940 C947 0.950 . S
C941 C939 1.387 1_554 S
C941 C943 1.390 . S
C941 H945 0.950 . S
H942 C938 0.950 . S
C943 C941 1.390 . S
C943 C944 1.387 . S
C943 H946 0.950 . S
C944 C943 1.387 . S
C944 C947 1.387 1_554 S
H945 C941 0.950 . S
H946 C943 0.950 . S
C947 C938 1.390 . S
C947 H940 0.950 . S
C947 C944 1.387 1_556 S
C948 C949 1.387 . S
C948 H952 0.950 . S
C948 C957 1.390 . S
C949 C948 1.387 . S
C949 C951 1.387 . S
H950 C957 0.950 . S
C951 C949 1.387 . S
C951 C953 1.390 . S
C951 H955 0.950 . S
H952 C948 0.950 . S
C953 C951 1.390 . S
C953 C954 1.387 . S
C953 H956 0.950 . S
C954 C953 1.387 . S
C954 C957 1.387 . S
H955 C951 0.950 . S
H956 C953 0.950 . S
C957 C948 1.390 . S
C957 H950 0.950 . S
C957 C954 1.387 . S
C958 C959 1.387 . S
C958 H962 0.950 . S
C958 C967 1.390 . S
C959 C958 1.387 . S
C959 C961 1.387 1_554 S
H960 C967 0.950 . S
C961 C959 1.387 1_556 S
C961 C963 1.390 . S
C961 H965 0.950 . S
H962 C958 0.950 . S
C963 C961 1.390 . S
C963 C964 1.387 1_556 S
C963 H966 0.950 . S
C964 C963 1.387 1_554 S
C964 C967 1.387 . S
H965 C961 0.950 . S
H966 C963 0.950 . S
C967 C958 1.390 . S
C967 H960 0.950 . S
C967 C964 1.387 . S
C968 C969 1.387 . S
C968 H972 0.950 . S
C968 C977 1.390 . S
C969 C968 1.387 . S
C969 C971 1.387 . S
H970 C977 0.950 . S
C971 C969 1.387 . S
C971 C973 1.390 . S
C971 H975 0.950 . S
H972 C968 0.950 . S
C973 C971 1.390 . S
C973 C974 1.387 . S
C973 H976 0.950 . S
C974 C973 1.387 . S
C974 C977 1.387 . S
H975 C971 0.950 . S
H976 C973 0.950 . S
C977 C968 1.390 . S
C977 H970 0.950 . S
C977 C974 1.387 . S
C978 C979 1.387 . S
C978 H982 0.950 . S
C978 C987 1.390 . S
C979 C978 1.387 . S
C979 C981 1.387 1_655 S
H980 C987 0.950 . S
C981 C979 1.387 1_455 S
C981 C983 1.390 . S
C981 H985 0.950 . S
H982 C978 0.950 . S
C983 C981 1.390 . S
C983 C984 1.387 . S
C983 H986 0.950 . S
C984 C983 1.387 . S
C984 C987 1.387 1_455 S
H985 C981 0.950 . S
H986 C983 0.950 . S
C987 C978 1.390 . S
C987 H980 0.950 . S
C987 C984 1.387 1_655 S
C988 C989 1.387 . S
C988 H992 0.950 . S
C988 C997 1.390 . S
C989 C988 1.387 . S
C989 C991 1.387 . S
H990 C997 0.950 . S
C991 C989 1.387 . S
C991 C993 1.390 . S
C991 H995 0.950 . S
H992 C988 0.950 . S
C993 C991 1.390 . S
C993 C994 1.387 . S
C993 H996 0.950 . S
C994 C993 1.387 . S
C994 C997 1.387 . S
H995 C991 0.950 . S
H996 C993 0.950 . S
C997 C988 1.390 . S
C997 H990 0.950 . S
C997 C994 1.387 . S
C998 C999 1.387 1_655 S
C998 H1002 0.950 . S
C998 C1007 1.390 . S
C999 C998 1.387 1_455 S
C999 C1001 1.387 . S
H1000 C1007 0.950 . S
C1001 C999 1.387 . S
C1001 C1003 1.390 . S
C1001 H1005 0.950 . S
H1002 C998 0.950 . S
C1003 C1001 1.390 . S
C1003 C1004 1.387 . S
C1003 H1006 0.950 . S
C1004 C1003 1.387 . S
C1004 C1007 1.387 1_455 S
H1005 C1001 0.950 . S
H1006 C1003 0.950 . S
C1007 C998 1.390 . S
C1007 H1000 0.950 . S
C1007 C1004 1.387 1_655 S
C1008 C1009 1.387 . S
C1008 H1012 0.950 . S
C1008 C1017 1.390 . S
C1009 C1008 1.387 . S
C1009 C1011 1.387 . S
H1010 C1017 0.950 . S
C1011 C1009 1.387 . S
C1011 C1013 1.390 . S
C1011 H1015 0.950 . S
H1012 C1008 0.950 . S
C1013 C1011 1.390 . S
C1013 C1014 1.387 . S
C1013 H1016 0.950 . S
C1014 C1013 1.387 . S
C1014 C1017 1.387 . S
H1015 C1011 0.950 . S
H1016 C1013 0.950 . S
C1017 C1008 1.390 . S
C1017 H1010 0.950 . S
C1017 C1014 1.387 . S
C1018 C1019 1.387 . S
C1018 H1022 0.950 . S
C1018 C1027 1.390 . S
C1019 C1018 1.387 . S
C1019 C1021 1.387 . S
H1020 C1027 0.950 . S
C1021 C1019 1.387 . S
C1021 C1023 1.390 . S
C1021 H1025 0.950 . S
H1022 C1018 0.950 . S
C1023 C1021 1.390 . S
C1023 C1024 1.387 . S
C1023 H1026 0.950 . S
C1024 C1023 1.387 . S
C1024 C1027 1.387 . S
H1025 C1021 0.950 . S
H1026 C1023 0.950 . S
C1027 C1018 1.390 . S
C1027 H1020 0.950 . S
C1027 C1024 1.387 . S
C1028 C1029 1.387 1_565 S
C1028 H1032 0.950 . S
C1028 C1037 1.392 . S
C1029 C1028 1.387 1_545 S
C1029 C1031 1.387 . S
H1030 C1037 0.967 . S
C1031 C1029 1.387 . S
C1031 C1033 1.390 . S
C1031 H1035 0.950 . S
H1032 C1028 0.950 . S
C1033 C1031 1.390 . S
C1033 C1034 1.387 . S
C1033 H1036 0.950 . S
C1034 C1033 1.387 . S
C1034 C1037 1.370 1_545 S
H1035 C1031 0.950 . S
H1036 C1033 0.950 . S
C1037 C1028 1.392 . S
C1037 H1030 0.967 . S
C1037 C1034 1.370 1_565 S
C1038 C1039 1.387 . S
C1038 H1042 0.950 . S
C1038 C1047 1.390 . S
C1039 C1038 1.387 . S
C1039 C1041 1.387 1_565 S
H1040 C1047 0.950 . S
C1041 C1039 1.387 1_545 S
C1041 C1043 1.390 1_545 S
C1041 H1045 0.950 . S
H1042 C1038 0.950 . S
C1043 C1041 1.390 1_565 S
C1043 C1044 1.387 . S
C1043 H1046 0.950 1_565 S
C1044 C1043 1.387 . S
C1044 C1047 1.387 . S
H1045 C1041 0.950 . S
H1046 C1043 0.950 1_545 S
C1047 C1038 1.390 . S
C1047 H1040 0.950 . S
C1047 C1044 1.387 . S
C1048 C1049 1.387 . S
C1048 H1052 0.950 . S
C1048 C1057 1.390 . S
C1049 C1048 1.387 . S
C1049 C1051 1.387 . S
H1050 C1057 0.950 . S
C1051 C1049 1.387 . S
C1051 C1053 1.390 . S
C1051 H1055 0.950 . S
H1052 C1048 0.950 . S
C1053 C1051 1.390 . S
C1053 C1054 1.387 . S
C1053 H1056 0.950 . S
C1054 C1053 1.387 . S
C1054 C1057 1.387 . S
H1055 C1051 0.950 . S
H1056 C1053 0.950 . S
C1057 C1048 1.390 . S
C1057 H1050 0.950 . S
C1057 C1054 1.387 . S
C1058 C1059 1.387 . S
C1058 H1062 0.950 . S
C1058 C1067 1.390 . S
C1059 C1058 1.387 . S
C1059 C1061 1.387 1_556 S
H1060 C1067 0.950 . S
C1061 C1059 1.387 1_554 S
C1061 C1063 1.390 . S
C1061 H1065 0.950 . S
H1062 C1058 0.950 . S
C1063 C1061 1.390 . S
C1063 C1064 1.387 1_554 S
C1063 H1066 0.950 . S
C1064 C1063 1.387 1_556 S
C1064 C1067 1.387 . S
H1065 C1061 0.950 . S
H1066 C1063 0.950 . S
C1067 C1058 1.390 . S
C1067 H1060 0.950 . S
C1067 C1064 1.387 . S
C1068 C1069 1.387 . S
C1068 H1072 0.950 . S
C1068 C1077 1.390 . S
C1069 C1068 1.387 . S
C1069 C1071 1.387 . S
H1070 C1077 0.950 . S
C1071 C1069 1.387 . S
C1071 C1073 1.390 . S
C1071 H1075 0.950 . S
H1072 C1068 0.950 . S
C1073 C1071 1.390 . S
C1073 C1074 1.387 . S
C1073 H1076 0.950 . S
C1074 C1073 1.387 . S
C1074 C1077 1.387 . S
H1075 C1071 0.950 . S
H1076 C1073 0.950 . S
C1077 C1068 1.390 . S
C1077 H1070 0.950 . S
C1077 C1074 1.387 . S
C1078 C1079 1.387 . S
C1078 H1082 0.950 . S
C1078 C1087 1.390 . S
C1079 C1078 1.387 . S
C1079 C1081 1.384 1_554 S
H1080 C1087 0.950 . S
C1081 C1079 1.384 1_556 S
C1081 C1083 1.390 1_556 S
C1081 H1085 0.954 . S
H1082 C1078 0.950 . S
C1083 C1081 1.390 1_554 S
C1083 C1084 1.387 . S
C1083 H1086 0.950 1_554 S
C1084 C1083 1.387 . S
C1084 C1087 1.387 . S
H1085 C1081 0.954 . S
H1086 C1083 0.950 1_556 S
C1087 C1078 1.390 . S
C1087 H1080 0.950 . S
C1087 C1084 1.387 . S
C1088 C1089 1.387 . S
C1088 H1092 0.950 . S
C1088 C1097 1.390 . S
C1089 C1088 1.387 . S
C1089 C1091 1.387 . S
H1090 C1097 0.950 . S
C1091 C1089 1.387 . S
C1091 C1093 1.390 . S
C1091 H1095 0.950 . S
H1092 C1088 0.950 . S
C1093 C1091 1.390 . S
C1093 C1094 1.387 . S
C1093 H1096 0.950 . S
C1094 C1093 1.387 . S
C1094 C1097 1.387 . S
H1095 C1091 0.950 . S
H1096 C1093 0.950 . S
C1097 C1088 1.390 . S
C1097 H1090 0.950 . S
C1097 C1094 1.387 . S
C1098 C1099 1.387 . S
C1098 H1102 0.950 . S
C1098 C1107 1.390 . S
C1099 C1098 1.387 . S
C1099 C1101 1.387 1_655 S
H1100 C1107 0.950 . S
C1101 C1099 1.387 1_455 S
C1101 C1103 1.390 1_455 S
C1101 H1105 0.950 . S
H1102 C1098 0.950 . S
C1103 C1101 1.390 1_655 S
C1103 C1104 1.387 . S
C1103 H1106 0.948 1_655 S
C1104 C1103 1.387 . S
C1104 C1107 1.387 . S
H1105 C1101 0.950 . S
H1106 C1103 0.948 1_455 S
C1107 C1098 1.390 . S
C1107 H1100 0.950 . S
C1107 C1104 1.387 . S
C1108 C1109 1.387 . S
C1108 H1112 0.950 . S
C1108 C1117 1.390 . S
C1109 C1108 1.387 . S
C1109 C1111 1.387 . S
H1110 C1117 0.950 . S
C1111 C1109 1.387 . S
C1111 C1113 1.390 . S
C1111 H1115 0.950 . S
H1112 C1108 0.950 . S
C1113 C1111 1.390 . S
C1113 C1114 1.387 . S
C1113 H1116 0.950 . S
C1114 C1113 1.387 . S
C1114 C1117 1.387 . S
H1115 C1111 0.950 . S
H1116 C1113 0.950 . S
C1117 C1108 1.390 . S
C1117 H1110 0.950 . S
C1117 C1114 1.387 . S
C1118 C1119 1.387 . S
C1118 H1122 0.950 . S
C1118 C1127 1.390 . S
C1119 C1118 1.387 . S
C1119 C1121 1.387 . S
H1120 C1127 0.950 . S
C1121 C1119 1.387 . S
C1121 C1123 1.390 . S
C1121 H1125 0.950 1_455 S
H1122 C1118 0.950 . S
C1123 C1121 1.390 . S
C1123 C1124 1.387 . S
C1123 H1126 0.950 . S
C1124 C1123 1.387 . S
C1124 C1127 1.387 . S
H1125 C1121 0.950 1_655 S
H1126 C1123 0.950 . S
C1127 C1118 1.390 . S
C1127 H1120 0.950 . S
C1127 C1124 1.387 . S
C1128 C1129 1.387 . S
C1128 H1132 0.950 . S
C1128 C1137 1.390 . S
C1129 C1128 1.387 . S
C1129 C1131 1.387 . S
H1130 C1137 0.950 . S
C1131 C1129 1.387 . S
C1131 C1133 1.390 . S
C1131 H1135 0.950 . S
H1132 C1128 0.950 . S
C1133 C1131 1.390 . S
C1133 C1134 1.387 . S
C1133 H1136 0.950 . S
C1134 C1133 1.387 . S
C1134 C1137 1.387 . S
H1135 C1131 0.950 . S
H1136 C1133 0.950 . S
C1137 C1128 1.390 . S
C1137 H1130 0.950 . S
C1137 C1134 1.387 . S
C1138 C1139 1.387 . S
C1138 H1142 0.950 . S
C1138 C1147 1.390 . S
C1139 C1138 1.387 . S
C1139 C1141 1.387 . S
H1140 C1147 0.950 . S
C1141 C1139 1.387 . S
C1141 C1143 1.390 . S
C1141 H1145 0.950 . S
H1142 C1138 0.950 . S
C1143 C1141 1.390 . S
C1143 C1144 1.387 . S
C1143 H1146 0.950 . S
C1144 C1143 1.387 . S
C1144 C1147 1.387 . S
H1145 C1141 0.950 . S
H1146 C1143 0.950 . S
C1147 C1138 1.390 . S
C1147 H1140 0.950 . S
C1147 C1144 1.387 . S
C1148 C1149 1.387 . S
C1148 H1152 0.950 . S
C1148 C1157 1.390 . S
C1149 C1148 1.387 . S
C1149 C1151 1.398 . S
H1150 C1157 0.950 . S
C1151 C1149 1.398 . S
C1151 C1153 1.392 . S
C1151 H1155 0.939 1_565 S
H1152 C1148 0.950 . S
C1153 C1151 1.392 . S
C1153 C1154 1.387 . S
C1153 H1156 0.960 . S
C1154 C1153 1.387 . S
C1154 C1157 1.387 . S
H1155 C1151 0.939 1_545 S
H1156 C1153 0.960 . S
C1157 C1148 1.390 . S
C1157 H1150 0.950 . S
C1157 C1154 1.387 . S
C1158 C1159 1.387 1_565 S
C1158 H1162 0.950 . S
C1158 C1167 1.390 . S
C1159 C1158 1.387 1_545 S
C1159 C1161 1.387 . S
H1160 C1167 0.950 . S
C1161 C1159 1.387 . S
C1161 C1163 1.390 . S
C1161 H1165 0.950 . S
H1162 C1158 0.950 . S
C1163 C1161 1.390 . S
C1163 C1164 1.387 . S
C1163 H1166 0.950 . S
C1164 C1163 1.387 . S
C1164 C1167 1.387 1_545 S
H1165 C1161 0.950 . S
H1166 C1163 0.950 . S
C1167 C1158 1.390 . S
C1167 H1160 0.950 . S
C1167 C1164 1.387 1_565 S
C1168 C1169 1.387 . S
C1168 H1172 0.950 . S
C1168 C1177 1.390 . S
C1169 C1168 1.387 . S
C1169 C1171 1.387 . S
H1170 C1177 0.950 . S
C1171 C1169 1.387 . S
C1171 C1173 1.390 . S
C1171 H1175 0.950 . S
H1172 C1168 0.950 . S
C1173 C1171 1.390 . S
C1173 C1174 1.387 . S
C1173 H1176 0.950 . S
C1174 C1173 1.387 . S
C1174 C1177 1.387 . S
H1175 C1171 0.950 . S
H1176 C1173 0.950 . S
C1177 C1168 1.390 . S
C1177 H1170 0.950 . S
C1177 C1174 1.387 . S
C1178 C1179 1.387 1_556 S
C1178 H1182 0.950 . S
C1178 C1187 1.390 . S
C1179 C1178 1.387 1_554 S
C1179 C1181 1.387 . S
H1180 C1187 0.950 . S
C1181 C1179 1.387 . S
C1181 C1183 1.390 . S
C1181 H1185 0.950 . S
H1182 C1178 0.950 . S
C1183 C1181 1.390 . S
C1183 C1184 1.387 . S
C1183 H1186 0.950 . S
C1184 C1183 1.387 . S
C1184 C1187 1.387 1_554 S
H1185 C1181 0.950 . S
H1186 C1183 0.950 . S
C1187 C1178 1.390 . S
C1187 H1180 0.950 . S
C1187 C1184 1.387 1_556 S
C1188 C1189 1.387 . S
C1188 H1192 0.950 . S
C1188 C1197 1.390 . S
C1189 C1188 1.387 . S
C1189 C1191 1.387 . S
H1190 C1197 0.950 . S
C1191 C1189 1.387 . S
C1191 C1193 1.390 . S
C1191 H1195 0.950 . S
H1192 C1188 0.950 . S
C1193 C1191 1.390 . S
C1193 C1194 1.387 . S
C1193 H1196 0.950 . S
C1194 C1193 1.387 . S
C1194 C1197 1.387 . S
H1195 C1191 0.950 . S
H1196 C1193 0.950 . S
C1197 C1188 1.390 . S
C1197 H1190 0.950 . S
C1197 C1194 1.387 . S
C1198 C1199 1.387 1_554 S
C1198 H1202 0.950 . S
C1198 C1207 1.390 . S
C1199 C1198 1.387 1_556 S
C1199 C1201 1.387 . S
H1200 C1207 0.950 . S
C1201 C1199 1.387 . S
C1201 C1203 1.390 . S
C1201 H1205 0.950 . S
H1202 C1198 0.950 . S
C1203 C1201 1.390 . S
C1203 C1204 1.387 . S
C1203 H1206 0.950 . S
C1204 C1203 1.387 . S
C1204 C1207 1.387 1_556 S
H1205 C1201 0.950 . S
H1206 C1203 0.950 . S
C1207 C1198 1.390 . S
C1207 H1200 0.950 . S
C1207 C1204 1.387 1_554 S
C1208 C1209 1.387 . S
C1208 H1212 0.950 . S
C1208 C1217 1.390 . S
C1209 C1208 1.387 . S
C1209 C1211 1.387 . S
H1210 C1217 0.950 . S
C1211 C1209 1.387 . S
C1211 C1213 1.390 . S
C1211 H1215 0.950 . S
H1212 C1208 0.950 . S
C1213 C1211 1.390 . S
C1213 C1214 1.387 . S
C1213 H1216 0.950 . S
C1214 C1213 1.387 . S
C1214 C1217 1.387 . S
H1215 C1211 0.950 . S
H1216 C1213 0.950 . S
C1217 C1208 1.390 . S
C1217 H1210 0.950 . S
C1217 C1214 1.387 . S
C1218 C1219 1.387 . S
C1218 H1222 0.950 . S
C1218 C1227 1.390 . S
C1219 C1218 1.387 . S
C1219 C1221 1.387 . S
H1220 C1227 0.950 . S
C1221 C1219 1.387 . S
C1221 C1223 1.390 . S
C1221 H1225 0.950 . S
H1222 C1218 0.950 . S
C1223 C1221 1.390 . S
C1223 C1224 1.387 . S
C1223 H1226 0.950 . S
C1224 C1223 1.387 . S
C1224 C1227 1.387 . S
H1225 C1221 0.950 . S
H1226 C1223 0.950 . S
C1227 C1218 1.390 . S
C1227 H1220 0.950 . S
C1227 C1224 1.387 . S
C1228 C1229 1.387 . S
C1228 H1232 0.950 . S
C1228 C1237 1.390 . S
C1229 C1228 1.387 . S
C1229 C1231 1.387 . S
H1230 C1237 0.950 . S
C1231 C1229 1.387 . S
C1231 C1233 1.390 . S
C1231 H1235 0.950 . S
H1232 C1228 0.950 . S
C1233 C1231 1.390 . S
C1233 C1234 1.387 . S
C1233 H1236 0.950 . S
C1234 C1233 1.387 . S
C1234 C1237 1.387 . S
H1235 C1231 0.950 . S
H1236 C1233 0.950 . S
C1237 C1228 1.390 . S
C1237 H1230 0.950 . S
C1237 C1234 1.387 . S
C1238 C1239 1.387 . S
C1238 H1242 0.950 . S
C1238 C1247 1.390 . S
C1239 C1238 1.387 . S
C1239 C1241 1.387 . S
H1240 C1247 0.950 . S
C1241 C1239 1.387 . S
C1241 C1243 1.390 . S
C1241 H1245 0.950 . S
H1242 C1238 0.950 . S
C1243 C1241 1.390 . S
C1243 C1244 1.387 . S
C1243 H1246 0.950 . S
C1244 C1243 1.387 . S
C1244 C1247 1.387 . S
H1245 C1241 0.950 . S
H1246 C1243 0.950 . S
C1247 C1238 1.390 . S
C1247 H1240 0.950 . S
C1247 C1244 1.387 . S
C534 C521 1.571 . S
C529 C8 1.573 . S
C544 C488 1.572 . S
C539 C19 1.537 . S
C554 C510 1.351 . S
C549 C30 1.366 . S
C564 C499 1.623 . S
C559 C41 1.587 1_565 S
C574 C422 1.571 . S
C569 C52 1.572 . S
C579 C63 1.588 1_556 S
C584 C433 1.621 . S
C594 C400 1.573 . S
C589 C74 1.535 . S
C599 C85 1.367 . S
C604 C411 1.350 . S
C614 C477 1.570 . S
C609 C96 1.574 . S
C619 C107 1.589 1_655 S
C624 C455 1.621 . S
C629 C118 1.536 . S
C634 C444 1.573 . S
C644 C466 1.351 . S
C639 C129 1.366 . S
C654 C389 1.573 . S
C649 C140 1.534 . S
C659 C151 1.465 . S
C664 C356 1.570 . S
C674 C378 1.350 . S
C669 C162 1.339 . S
C679 C173 1.537 . S
C684 C367 1.614 . S
C694 C290 1.572 . S
C689 C184 1.534 . S
C704 C301 1.616 . S
C699 C195 1.533 . S
C709 C206 1.466 . S
C714 C268 1.570 . S
C719 C217 1.338 . S
C724 C279 1.350 . S
C729 C228 1.535 . S
C734 C345 1.572 . S
C739 C239 1.535 . S
C744 C323 1.615 . S
C754 C312 1.569 . S
C749 C250 1.467 . S
C759 C261 1.338 . S
C764 C334 1.350 . S
C774 C269 1.446 . S
C769 C7 1.489 . S
C784 C280 1.429 . S
C779 C18 1.502 . S
C789 C29 1.387 . S
C794 C291 1.382 . S
C799 C40 1.298 . S
C804 C302 1.294 . S
C814 C313 1.445 . S
C809 C51 1.489 . S
C819 C62 1.299 . S
C824 C324 1.294 . S
C834 C335 1.426 . S
C829 C73 1.503 . S
C844 C346 1.381 . S
C839 C84 1.387 . S
C854 C357 1.448 . S
C849 C95 1.489 . S
C859 C106 1.298 . S
C864 C368 1.295 . S
C869 C117 1.503 . S
C874 C379 1.426 . S
C879 C128 1.388 . S
C884 C390 1.381 . S
C889 C139 1.404 . S
C894 C401 1.444 . S
C899 C150 1.348 . S
C904 C412 1.427 . S
C909 C161 1.326 . S
C914 C423 1.378 . S
C919 C172 1.226 1_565 S
C924 C434 1.294 . S
C929 C183 1.402 . S
C934 C445 1.444 . S
C944 C456 1.294 . S
C939 C194 1.227 1_556 S
C954 C467 1.425 . S
C949 C205 1.344 . S
C964 C478 1.380 . S
C959 C216 1.326 . S
C974 C489 1.446 . S
C969 C227 1.406 . S
C979 C238 1.229 1_655 S
C984 C500 1.294 . S
C989 C249 1.344 . S
C994 C511 1.425 . S
C999 C260 1.327 . S
C1004 C522 1.379 . S
C1009 C5 1.351 . S
C1014 C362 1.523 . S
C1024 C395 1.572 . S
C1019 C16 1.439 . S
C1029 C27 1.301 1_545 S
C1034 C373 1.440 . S
C1044 C384 1.624 . S
C1039 C38 1.431 1_565 S
C1049 C49 1.353 . S
C1054 C274 1.523 . S
C1059 C60 1.433 1_556 S
C1064 C285 1.622 . S
C1069 C71 1.439 . S
C1074 C296 1.572 . S
C1079 C82 1.300 1_554 S
C1084 C307 1.440 . S
C1094 C318 1.523 . S
C1089 C93 1.354 . S
C1104 C340 1.623 . S
C1099 C104 1.428 1_655 S
C1109 C115 1.435 . S
C1114 C351 1.570 . S
C1119 C126 1.295 1_455 S
C1124 C329 1.437 . S
C1134 C494 1.528 . S
C1129 C137 1.239 . S
C1144 C527 1.578 . S
C1139 C148 1.208 . S
C1149 C159 1.217 . S
C1154 C505 1.444 . S
C1164 C516 1.633 . S
C1159 C170 1.211 . S
C1169 C181 1.240 . S
C1174 C406 1.528 . S
C1179 C192 1.211 . S
C1184 C417 1.632 . S
C1189 C203 1.208 . S
C1194 C428 1.578 . S
C1204 C439 1.442 . S
C1199 C214 1.221 . S
C1214 C450 1.529 . S
C1209 C225 1.239 . S
C1224 C472 1.634 . S
C1219 C236 1.210 . S
C1229 C247 1.215 . S
C1234 C483 1.576 . S
C1244 C461 1.445 . S
C1239 C258 1.218 . S
