# Generated by pormake.
# Topology zzz, (3,6)-cn, num edge types: 1
# Building blocks:
#     Node 0, Type 0, BuildingBlock: KAKCAD_clean_linker_0, # of connection points: 3
#     Node 1, Type 0, BuildingBlock: KAKCAD_clean_linker_0, # of connection points: 3
#     Node 2, Type 0, BuildingBlock: KAKCAD_clean_linker_0, # of connection points: 3
#     Node 3, Type 0, BuildingBlock: KAKCAD_clean_linker_0, # of connection points: 3
#     Node 4, Type 0, BuildingBlock: KAKCAD_clean_linker_0, # of connection points: 3
#     Node 5, Type 0, BuildingBlock: KAKCAD_clean_linker_0, # of connection points: 3
#     Node 6, Type 0, BuildingBlock: KAKCAD_clean_linker_0, # of connection points: 3
#     Node 7, Type 0, BuildingBlock: KAKCAD_clean_linker_0, # of connection points: 3
#     Node 8, Type 1, BuildingBlock: NUHQIS_clean_sbu_0, # of connection points: 6
#     Node 9, Type 1, BuildingBlock: NUHQIS_clean_sbu_0, # of connection points: 6
#     Node 10, Type 1, BuildingBlock: NUHQIS_clean_sbu_0, # of connection points: 6
#     Node 11, Type 1, BuildingBlock: NUHQIS_clean_sbu_0, # of connection points: 6
#     Edge 12, Type (0, 1), BuildingBlock: XIVTED_clean_linker_0, # of connection points: 2
#     Edge 13, Type (0, 1), BuildingBlock: XIVTED_clean_linker_0, # of connection points: 2
#     Edge 14, Type (0, 1), BuildingBlock: XIVTED_clean_linker_0, # of connection points: 2
#     Edge 15, Type (0, 1), BuildingBlock: XIVTED_clean_linker_0, # of connection points: 2
#     Edge 16, Type (0, 1), BuildingBlock: XIVTED_clean_linker_0, # of connection points: 2
#     Edge 17, Type (0, 1), BuildingBlock: XIVTED_clean_linker_0, # of connection points: 2
#     Edge 18, Type (0, 1), BuildingBlock: XIVTED_clean_linker_0, # of connection points: 2
#     Edge 19, Type (0, 1), BuildingBlock: XIVTED_clean_linker_0, # of connection points: 2
#     Edge 20, Type (0, 1), BuildingBlock: XIVTED_clean_linker_0, # of connection points: 2
#     Edge 21, Type (0, 1), BuildingBlock: XIVTED_clean_linker_0, # of connection points: 2
#     Edge 22, Type (0, 1), BuildingBlock: XIVTED_clean_linker_0, # of connection points: 2
#     Edge 23, Type (0, 1), BuildingBlock: XIVTED_clean_linker_0, # of connection points: 2
#     Edge 24, Type (0, 1), BuildingBlock: XIVTED_clean_linker_0, # of connection points: 2
#     Edge 25, Type (0, 1), BuildingBlock: XIVTED_clean_linker_0, # of connection points: 2
#     Edge 26, Type (0, 1), BuildingBlock: XIVTED_clean_linker_0, # of connection points: 2
#     Edge 27, Type (0, 1), BuildingBlock: XIVTED_clean_linker_0, # of connection points: 2
#     Edge 28, Type (0, 1), BuildingBlock: XIVTED_clean_linker_0, # of connection points: 2
#     Edge 29, Type (0, 1), BuildingBlock: XIVTED_clean_linker_0, # of connection points: 2
#     Edge 30, Type (0, 1), BuildingBlock: XIVTED_clean_linker_0, # of connection points: 2
#     Edge 31, Type (0, 1), BuildingBlock: XIVTED_clean_linker_0, # of connection points: 2
#     Edge 32, Type (0, 1), BuildingBlock: XIVTED_clean_linker_0, # of connection points: 2
#     Edge 33, Type (0, 1), BuildingBlock: XIVTED_clean_linker_0, # of connection points: 2
#     Edge 34, Type (0, 1), BuildingBlock: XIVTED_clean_linker_0, # of connection points: 2
#     Edge 35, Type (0, 1), BuildingBlock: XIVTED_clean_linker_0, # of connection points: 2
# Relax obj value: 0.417
# Max RMSD: 0.255
# Mean RMSD: 0.232
data_MOF--net-zzz--node1-NUHQIS_clean_sbu_0--node2-KAKCAD_clean_linker_0--edge1-XIVTED_clean_linker_0
_symmetry_space_group_name_H-M    P1
_symmetry_Int_Tables_number       1
_symmetry_cell_setting            triclinic
loop_
_symmetry_equiv_pos_as_xyz
'x, y, z'
_cell_length_a     58.70499
_cell_length_b     58.74318
_cell_length_c     19.301927
_cell_angle_alpha  89.572933
_cell_angle_beta   89.830144
_cell_angle_gamma 90.082448
loop_
_atom_site_label
_atom_site_type_symbol
_atom_site_fract_x
_atom_site_fract_y
_atom_site_fract_z
_atom_type_partial_charge
C0 C 0.77863 0.43799 0.08803 0.0
C1 C 0.79816 0.42586 0.10867 0.0
C2 C 0.76587 0.45017 0.13629 0.0
C3 C 0.77175 0.44981 0.20694 0.0
C4 C 0.78919 0.435 0.22859 0.0
C5 C 0.80246 0.42348 0.1801 0.0
C6 C 0.76195 0.46688 0.25561 0.0
C7 C 0.73991 0.47548 0.24626 0.0
C8 C 0.73212 0.49434 0.28391 0.0
C9 C 0.74639 0.5042 0.33434 0.0
C10 C 0.76803 0.49471 0.34768 0.0
C11 C 0.77568 0.4765 0.30713 0.0
C12 C 0.78373 0.50344 0.40179 0.0
C13 C 0.79203 0.52587 0.3996 0.0
C14 C 0.79365 0.48789 0.44836 0.0
C15 C 0.81246 0.49404 0.48821 0.0
C16 C 0.82191 0.51603 0.48309 0.0
C17 C 0.70969 0.5041 0.2644 0.0
C18 C 0.70834 0.52613 0.236 0.0
C19 C 0.69059 0.48974 0.25996 0.0
C20 C 0.67127 0.49649 0.22299 0.0
C21 C 0.67058 0.51779 0.18927 0.0
C22 C 0.68899 0.53291 0.19869 0.0
C23 C 0.81094 0.53211 0.43987 0.0
H24 H 0.77403 0.43942 0.03393 0.0
H25 H 0.75249 0.46112 0.11693 0.0
H26 H 0.79361 0.43338 0.28282 0.0
H27 H 0.81712 0.41421 0.19897 0.0
H28 H 0.72897 0.4681 0.2073 0.0
H29 H 0.79299 0.47059 0.31409 0.0
H30 H 0.74059 0.51879 0.36351 0.0
H31 H 0.78483 0.53814 0.36374 0.0
H32 H 0.78765 0.47045 0.4509 0.0
H33 H 0.82038 0.48099 0.51981 0.0
H34 H 0.72289 0.53746 0.2381 0.0
H35 H 0.69124 0.47261 0.28111 0.0
H36 H 0.81741 0.54932 0.43535 0.0
H37 H 0.68889 0.5496 0.17454 0.0
H38 H 0.65759 0.4843 0.21676 0.0
C39 C 0.08564 0.77295 0.07813 0.0
C40 C 0.09894 0.79172 0.09826 0.0
C41 C 0.07279 0.76075 0.12688 0.0
C42 C 0.07345 0.76649 0.19752 0.0
C43 C 0.0886 0.78368 0.21842 0.0
C44 C 0.10089 0.79633 0.1695 0.0
C45 C 0.05697 0.75616 0.24782 0.0
C46 C 0.04898 0.73384 0.23953 0.0
C47 C 0.03142 0.72511 0.28157 0.0
C48 C 0.02209 0.73859 0.33447 0.0
C49 C 0.03078 0.7606 0.34577 0.0
C50 C 0.04782 0.76927 0.30168 0.0
C51 C 0.02228 0.77548 0.40185 0.0
C52 C 0.99973 0.78338 0.40188 0.0
C53 C 0.03793 0.78496 0.44837 0.0
C54 C 0.03163 0.803 0.49097 0.0
C55 C 1.00952 0.81213 0.48778 0.0
C56 C 0.02292 0.70203 0.26615 0.0
C57 C 1.00374 0.69939 0.22372 0.0
C58 C 0.03712 0.68328 0.27848 0.0
C59 C 0.03335 0.66275 0.24427 0.0
C60 C 1.01547 0.66069 0.1963 0.0
C61 C 0.99998 0.67883 0.18913 0.0
C62 C 0.99341 0.80161 0.44436 0.0
H63 H 0.08424 0.76824 0.02422 0.0
H64 H 0.06143 0.74765 0.1082 0.0
H65 H 0.09029 0.7881 0.27251 0.0
H66 H 0.11082 0.81057 0.18787 0.0
H67 H 0.05607 0.72319 0.19926 0.0
H68 H 0.05326 0.78676 0.30822 0.0
H69 H 1.00854 0.73192 0.36706 0.0
H70 H 0.98743 0.77646 0.36597 0.0
H71 H 0.05547 0.77922 0.44892 0.0
H72 H 0.04457 0.81074 0.52303 0.0
H73 H 0.99282 0.7138 0.21254 0.0
H74 H 0.05216 0.68507 0.31041 0.0
H75 H 0.97616 0.80804 0.44128 0.0
H76 H 0.98614 0.67786 0.15231 0.0
H77 H 0.04536 0.64897 0.2518 0.0
C78 C 0.75904 0.09274 0.09718 0.0
C79 C 0.73947 0.10506 0.11589 0.0
C80 C 0.77186 0.08139 0.14739 0.0
C81 C 0.76591 0.08274 0.21794 0.0
C82 C 0.74831 0.09767 0.23715 0.0
C83 C 0.73503 0.10843 0.18678 0.0
C84 C 0.77576 0.06639 0.26925 0.0
C85 C 0.79791 0.05793 0.26128 0.0
C86 C 0.80573 0.03942 0.30117 0.0
C87 C 0.79132 0.02978 0.35237 0.0
C88 C 0.76957 0.0392 0.36427 0.0
C89 C 0.76195 0.05709 0.32173 0.0
C90 C 0.75365 0.03063 0.41859 0.0
C91 C 0.74481 1.00842 0.41637 0.0
C92 C 0.74384 0.04627 0.46452 0.0
C93 C 0.72462 0.04047 0.50366 0.0
C94 C 0.71464 0.01875 0.49832 0.0
C95 C 0.82825 0.02962 0.28278 0.0
C96 C 0.82974 1.00739 0.25698 0.0
C97 C 0.84726 0.04406 0.27635 0.0
C98 C 0.8666 0.03717 0.23963 0.0
C99 C 0.86738 1.01565 0.20821 0.0
C100 C 0.84911 1.00047 0.21997 0.0
C101 C 0.72549 1.00253 0.4559 0.0
H102 H 0.76362 0.09051 0.04329 0.0
H103 H 0.78533 0.07026 0.12988 0.0
H104 H 0.74379 0.09995 0.29108 0.0
H105 H 0.72028 0.11791 0.20385 0.0
H106 H 0.80891 0.06508 0.22152 0.0
H107 H 0.74456 0.06293 0.3278 0.0
H108 H 0.79709 1.01541 0.3831 0.0
H109 H 0.75191 0.99611 0.38086 0.0
H110 H 0.75022 0.06357 0.46685 0.0
H111 H 0.71681 0.05362 0.53467 0.0
H112 H 0.81526 0.99598 0.26068 0.0
H113 H 0.84651 0.06134 0.29552 0.0
H114 H 0.7186 0.98551 0.45126 0.0
H115 H 0.84929 0.98361 0.19769 0.0
H116 H 0.88017 0.04941 0.23161 0.0
C117 C 0.49999 0.73572 0.50048 0.0
C118 C 0.52227 0.72694 0.50057 0.0
C119 C 0.4942 0.7539 0.45696 0.0
C120 C 0.51053 0.76378 0.41259 0.0
C121 C 0.53323 0.75644 0.41706 0.0
C122 C 0.53904 0.73815 0.46056 0.0
C123 C 0.50301 0.77807 0.35317 0.0
C124 C 0.51387 0.79869 0.33498 0.0
C125 C 0.5076 0.81028 0.27382 0.0
C126 C 0.49076 0.80107 0.23075 0.0
C127 C 0.47979 0.78068 0.24859 0.0
C128 C 0.48582 0.76947 0.3101 0.0
C129 C 0.46366 0.7697 0.20035 0.0
C130 C 0.44328 0.76007 0.22518 0.0
C131 C 0.46988 0.76639 0.1309 0.0
C132 C 0.45696 0.75216 0.08867 0.0
C133 C 0.43745 0.74109 0.11495 0.0
C134 C 0.5182 0.83206 0.25275 0.0
C135 C 0.51123 0.85238 0.28397 0.0
C136 C 0.53157 0.83305 0.1924 0.0
C137 C 0.53665 0.854 0.16114 0.0
C138 C 0.52809 0.87431 0.18908 0.0
C139 C 0.51606 0.87336 0.25225 0.0
C140 C 0.43021 0.74603 0.18275 0.0
H141 H 0.48657 0.72752 0.53015 0.0
H142 H 0.47657 0.75928 0.45458 0.0
H143 H 0.54613 0.76366 0.38316 0.0
H144 H 0.55645 0.73208 0.46032 0.0
H145 H 0.52723 0.80548 0.3675 0.0
H146 H 0.47806 0.75316 0.32237 0.0
H147 H 0.48617 0.80984 0.18316 0.0
H148 H 0.43796 0.76265 0.27833 0.0
H149 H 0.4856 0.7735 0.1106 0.0
H150 H 0.46325 0.74861 0.0371 0.0
H151 H 0.50063 0.85195 0.33002 0.0
H152 H 0.53682 0.81751 0.16704 0.0
H153 H 0.41501 0.73821 0.20416 0.0
H154 H 0.50936 0.88876 0.27512 0.0
H155 H 0.54574 0.85412 0.11222 0.0
C156 C 0.24828 0.46482 0.29583 0.0
C157 C 0.22899 0.45302 0.27209 0.0
C158 C 0.26783 0.46624 0.25491 0.0
C159 C 0.26839 0.45596 0.18948 0.0
C160 C 0.25055 0.44128 0.17084 0.0
C161 C 0.23099 0.43976 0.212 0.0
C162 C 0.28393 0.4654 0.13588 0.0
C163 C 0.30657 0.47069 0.15154 0.0
C164 C 0.31935 0.48548 0.10885 0.0
C165 C 0.30904 0.49512 0.04927 0.0
C166 C 0.2866 0.48886 0.03139 0.0
C167 C 0.27449 0.47381 0.07436 0.0
C168 C 0.27353 0.49962 0.97433 0.0
C169 C 0.26228 0.52025 0.98696 0.0
C170 C 0.26618 0.48608 0.91896 0.0
C171 C 0.2468 0.49209 0.88073 0.0
C172 C 0.23416 0.51159 0.89791 0.0
C173 C 0.34249 0.49201 0.1328 0.0
C174 C 0.34764 0.51474 0.14853 0.0
C175 C 0.35793 0.47492 0.1526 0.0
C176 C 0.37729 0.48018 0.19138 0.0
C177 C 0.38169 0.5027 0.2117 0.0
C178 C 0.36702 0.52004 0.18776 0.0
C179 C 0.24275 0.52616 0.94926 0.0
H180 H 0.24748 0.47522 0.34187 0.0
H181 H 0.28129 0.47768 0.27088 0.0
H182 H 0.25078 0.43279 0.12121 0.0
H183 H 0.21666 0.42994 0.19342 0.0
H184 H 0.3138 0.46445 0.19971 0.0
H185 H 0.25672 0.47042 0.0629 0.0
H186 H 0.31827 0.50738 0.01768 0.0
H187 H 0.26724 0.5307 0.03042 0.0
H188 H 0.27419 0.46979 0.90943 0.0
H189 H 0.24063 0.4804 0.84189 0.0
H190 H 0.33591 0.52823 0.13455 0.0
H191 H 0.3543 0.45723 0.14147 0.0
H192 H 0.23356 0.54144 0.96324 0.0
H193 H 0.37006 0.53762 0.20147 0.0
H194 H 0.38798 0.46632 0.2091 0.0
C195 C 0.93022 0.24794 0.21196 0.0
C196 C 0.93414 0.24341 0.2827 0.0
C197 C 0.94577 0.26088 0.1733 0.0
C198 C 0.96517 0.27003 0.20502 0.0
C199 C 0.96792 0.26747 0.27677 0.0
C200 C 0.95268 0.25418 0.31516 0.0
C201 C 0.98416 0.27918 0.16286 0.0
C202 C 0.99455 0.29982 0.17984 0.0
C203 C 1.01475 0.30683 0.14671 0.0
C204 C 0.0248 0.29272 0.09629 0.0
C205 C 1.01412 0.27211 0.07819 0.0
C206 C 0.99379 0.26566 0.11115 0.0
C207 C 0.02409 0.25593 0.02839 0.0
C208 C 1.01668 0.25609 0.9594 0.0
C209 C 0.03609 0.23698 0.05359 0.0
C210 C 0.03933 0.21785 0.01192 0.0
C211 C 0.03047 0.21723 0.94424 0.0
C212 C 0.02538 0.32836 0.16967 0.0
C213 C 1.01251 0.34848 0.16854 0.0
C214 C 0.04632 0.32812 0.20456 0.0
C215 C 0.05344 0.34722 0.24201 0.0
C216 C 0.03979 0.36691 0.24467 0.0
C217 C 0.01967 0.36757 0.2053 0.0
C218 C 0.01996 0.23698 0.91755 0.0
H219 H 0.91582 0.2405 0.18551 0.0
H220 H 0.94321 0.26288 0.11802 0.0
H221 H 0.98287 0.27423 0.30229 0.0
H222 H 0.95657 0.251 0.36913 0.0
H223 H 0.98727 0.31013 0.22069 0.0
H224 H 0.98608 0.24938 0.0989 0.0
H225 H 0.0407 0.29765 0.07177 0.0
H226 H 1.00699 0.27036 0.93939 0.0
H227 H 0.04144 0.2363 0.10726 0.0
H228 H 0.04728 0.20296 0.03466 0.0
H229 H 0.9962 0.34897 0.14245 0.0
H230 H 0.0564 0.3127 0.2068 0.0
H231 H 1.01326 0.23729 0.86534 0.0
H232 H 1.0086 0.38229 0.20658 0.0
H233 H 0.06915 0.34625 0.27113 0.0
C234 C 0.2645 0.05957 0.34326 0.0
C235 C 0.28726 0.06649 0.33502 0.0
C236 C 0.24935 0.06122 0.28801 0.0
C237 C 0.25651 0.07046 0.22398 0.0
C238 C 0.27796 0.0811 0.22037 0.0
C239 C 0.29333 0.07888 0.27505 0.0
C240 C 0.24402 0.06445 0.15951 0.0
C241 C 0.22044 0.06081 0.16089 0.0
C242 C 0.20963 0.04835 0.10869 0.0
C243 C 0.22239 0.0407 0.05122 0.0
C244 C 0.24581 0.04598 0.04649 0.0
C245 C 0.25633 0.05769 0.10071 0.0
C246 C 0.26094 0.03737 0.99091 0.0
C247 C 0.27355 0.01746 0.00323 0.0
C248 C 0.26784 0.05209 0.9371 0.0
C249 C 0.2878 0.04771 0.89922 0.0
C250 C 0.30146 0.02874 0.91543 0.0
C251 C 0.18609 0.04067 0.1236 0.0
C252 C 0.18301 0.02051 0.16191 0.0
C253 C 0.16804 0.05624 0.11937 0.0
C254 C 0.1478 0.0524 0.1565 0.0
C255 C 0.14542 0.03319 0.20031 0.0
C256 C 0.16299 1.01683 0.20001 0.0
C257 C 0.29359 1.0132 0.96597 0.0
H258 H 0.259 0.05078 0.38994 0.0
H259 H 0.23293 0.05303 0.29383 0.0
H260 H 0.28371 0.08923 0.1729 0.0
H261 H 0.3106 0.08483 0.26699 0.0
H262 H 0.21062 0.06605 0.20568 0.0
H263 H 0.27467 0.05981 0.09899 0.0
H264 H 0.21439 0.03034 0.01196 0.0
H265 H 0.26891 1.00616 0.04561 0.0
H266 H 0.25879 0.06789 0.92801 0.0
H267 H 0.29343 0.06011 0.86103 0.0
H268 H 0.19695 1.00858 0.16763 0.0
H269 H 0.1702 0.07214 0.0913 0.0
H270 H 0.30359 0.99832 0.97928 0.0
H271 H 0.16218 1.00195 0.23329 0.0
H272 H 0.13453 0.06513 0.15349 0.0
C273 C 0.50016 0.30472 0.96278 0.0
C274 C 0.51702 0.31503 0.92066 0.0
C275 C 0.50536 0.2857 0.00434 0.0
C276 C 0.52749 0.27667 0.00457 0.0
C277 C 0.54378 0.28591 0.95893 0.0
C278 C 0.53867 0.30482 0.91771 0.0
C279 C 0.53509 0.26075 0.05997 0.0
C280 C 0.52428 0.23975 0.07363 0.0
C281 C 0.53286 0.22522 0.12586 0.0
C282 C 0.55176 0.23209 0.16503 0.0
C283 C 0.56165 0.25362 0.15533 0.0
C284 C 0.55334 0.26759 0.10183 0.0
C285 C 0.57853 0.26278 0.20572 0.0
C286 C 0.57677 0.2573 0.27666 0.0
C287 C 0.59457 0.27933 0.18508 0.0
C288 C 0.60619 0.29215 0.23437 0.0
C289 C 0.60257 0.28826 0.30561 0.0
C290 C 0.52155 0.20357 0.14571 0.0
C291 C 0.49994 0.20389 0.17695 0.0
C292 C 0.53435 0.18341 0.14793 0.0
C293 C 0.52648 0.16445 0.1851 0.0
C294 C 0.50571 0.16533 0.22151 0.0
C295 C 0.49211 0.18496 0.21476 0.0
C296 C 0.58895 0.26962 0.3258 0.0
H297 H 0.48319 0.31183 0.96556 0.0
H298 H 0.49252 0.27898 0.0394 0.0
H299 H 0.56101 0.27929 0.9582 0.0
H300 H 0.55225 0.31224 0.8869 0.0
H301 H 0.50962 0.23463 0.0435 0.0
H302 H 0.56027 0.28455 0.09445 0.0
H303 H 0.55809 0.22089 0.20544 0.0
H304 H 0.56479 0.24464 0.29526 0.0
H305 H 0.59716 0.28342 0.13084 0.0
H306 H 0.61662 0.30617 0.21613 0.0
H307 H 0.4899 0.21935 0.17669 0.0
H308 H 0.55119 0.18286 0.12484 0.0
H309 H 0.58644 0.26543 0.37999 0.0
H310 H 0.4759 0.18607 0.24144 0.0
H311 H 0.5375 0.14975 0.18949 0.0
Tb312 Tb 0.03033 1.00821 0.75562 0.0
Eu313 Eu 0.98558 0.02277 0.66474 0.0
C314 C 0.03464 0.02026 0.59816 0.0
C315 C 1.01531 0.05995 0.74712 0.0
C316 C 0.07834 0.97463 0.82575 0.0
C317 C 0.11109 0.95358 0.86799 0.0
C318 C 0.09961 0.97423 0.85839 0.0
C319 C 0.06922 0.95443 0.79949 0.0
C320 C 0.08045 0.9338 0.80981 0.0
C321 C 0.10128 0.93296 0.84585 0.0
C322 C 0.06496 0.9957 0.82335 0.0
O323 O 1.00302 1.01643 0.82849 0.0
O324 O 0.97407 1.00407 0.76074 0.0
O325 O 0.99285 0.9866 0.63503 0.0
O326 O 1.01431 0.97575 0.72919 0.0
C327 C 0.98208 1.00888 0.82214 0.0
O328 O 0.94986 0.03254 0.66407 0.0
O329 O 0.96784 0.02856 0.56675 0.0
O330 O 1.01677 0.03352 0.60405 0.0
O331 O 0.03918 1.005 0.64621 0.0
O332 O 0.03222 0.04531 0.75098 0.0
O333 O 0.99499 0.05398 0.72527 0.0
C334 C 1.00246 0.97076 0.6734 0.0
O335 O 0.06603 1.00741 0.76586 0.0
O336 O 0.04407 0.9938 0.84578 0.0
C337 C 0.93915 0.05698 0.57134 0.0
C338 C 0.92139 0.09853 0.5207 0.0
C339 C 0.92109 0.09359 0.59206 0.0
C340 C 0.92989 0.07305 0.61716 0.0
C341 C 0.93877 0.06156 0.49994 0.0
C342 C 0.93011 0.08214 0.47489 0.0
C343 C 0.9492 0.03548 0.59707 0.0
H344 H 0.12729 0.95371 0.89464 0.0
H345 H 0.107 0.98976 0.87836 0.0
H346 H 0.05289 0.95447 0.77368 0.0
H347 H 0.07205 0.91841 0.79282 0.0
H348 H 0.91422 0.10566 0.6287 0.0
H349 H 0.92964 0.06994 0.67253 0.0
H350 H 0.94559 0.04939 0.46346 0.0
H351 H 0.93098 0.08547 0.4197 0.0
Tb352 Tb 0.51481 0.04162 0.75698 0.0
Eu353 Eu 0.50228 0.99822 0.65981 0.0
C354 C 0.50027 0.04902 0.60256 0.0
C355 C 0.46419 0.02452 0.74542 0.0
C356 C 0.54854 0.08596 0.84347 0.0
C357 C 0.57434 0.10235 0.92755 0.0
C358 C 0.55271 0.09426 0.91008 0.0
C359 C 0.56608 0.08646 0.79383 0.0
C360 C 0.5876 0.09468 0.81103 0.0
C361 C 0.59214 0.1023 0.87848 0.0
C362 C 0.52625 0.07596 0.82684 0.0
O363 O 0.52762 1.01189 0.81341 0.0
O364 O 0.50255 0.98588 0.76998 0.0
O365 O 0.54044 0.99698 0.67095 0.0
O366 O 0.54552 0.03483 0.69624 0.0
C367 C 0.51663 0.99246 0.81837 0.0
O368 O 0.48443 0.96593 0.64737 0.0
O369 O 0.50401 0.97973 0.56211 0.0
O370 O 0.50677 0.02827 0.58854 0.0
O371 O 0.49695 0.05536 0.66686 0.0
O372 O 0.48036 0.03145 0.78743 0.0
O373 O 0.46919 1.01615 0.6843 0.0
C374 C 0.5536 1.01502 0.67615 0.0
O375 O 0.52045 0.07678 0.76188 0.0
O376 O 0.52194 0.05609 0.85422 0.0
C377 C 0.46669 0.96671 0.53842 0.0
C378 C 0.42497 0.98318 0.48778 0.0
C379 C 0.42532 0.96727 0.54241 0.0
C380 C 0.44603 0.95897 0.56725 0.0
C381 C 0.46608 0.98021 0.47794 0.0
C382 C 0.44538 0.98843 0.45303 0.0
C383 C 0.48769 0.9658 0.5805 0.0
H384 H 0.57733 0.10777 0.98025 0.0
H385 H 0.5394 0.09394 0.94909 0.0
H386 H 0.56332 0.08012 0.74196 0.0
H387 H 0.60081 0.09469 0.77172 0.0
H388 H 0.40982 0.96273 0.56985 0.0
H389 H 0.44593 0.9483 0.61329 0.0
H390 H 0.48164 0.98613 0.45346 0.0
H391 H 0.44549 1.00011 0.4093 0.0
Tb392 Tb 0.50397 0.5261 0.75341 0.0
Eu393 Eu 0.54745 0.51415 0.65295 0.0
C394 C 0.49682 0.51682 0.59541 0.0
C395 C 0.52029 0.47502 0.73677 0.0
C396 C 0.45654 0.55679 0.83915 0.0
C397 C 0.42492 0.57545 0.89641 0.0
C398 C 0.43666 0.55557 0.87923 0.0
C399 C 0.46381 0.57787 0.81279 0.0
C400 C 0.45227 0.59776 0.83049 0.0
C401 C 0.43309 0.59688 0.87444 0.0
C402 C 0.4707 0.53646 0.83029 0.0
O403 O 0.53255 0.51715 0.82042 0.0
O404 O 0.56035 0.53093 0.74964 0.0
O405 O 0.53863 0.55034 0.62705 0.0
O406 O 0.51883 0.55925 0.7264 0.0
C407 C 0.55326 0.52511 0.81165 0.0
O408 O 0.58408 0.50958 0.64232 0.0
O409 O 0.56249 0.50536 0.55278 0.0
O410 O 0.51549 0.50455 0.59538 0.0
O411 O 0.49224 0.53054 0.64704 0.0
O412 O 0.50305 0.48906 0.74511 0.0
O413 O 0.54008 0.48194 0.71258 0.0
C414 C 0.52949 0.56534 0.6689 0.0
O415 O 0.46859 0.52568 0.77192 0.0
O416 O 0.492 0.53889 0.84759 0.0
C417 C 0.59338 0.4802 0.56502 0.0
C418 C 0.60924 0.43613 0.53448 0.0
C419 C 0.60914 0.45328 0.4831 0.0
C420 C 0.60128 0.47514 0.49835 0.0
C421 C 0.59425 0.46338 0.61705 0.0
C422 C 0.60226 0.44163 0.60205 0.0
C423 C 0.58274 0.50236 0.57879 0.0
H424 H 0.40995 0.57407 0.9291 0.0
H425 H 0.43072 0.53936 0.89947 0.0
H426 H 0.47907 0.57906 0.78135 0.0
H427 H 0.4593 0.61388 0.8131 0.0
H428 H 0.61407 0.44955 0.43029 0.0
H429 H 0.60062 0.48787 0.45748 0.0
H430 H 0.58814 0.46683 0.66894 0.0
H431 H 0.60241 0.42894 0.64305 0.0
Tb432 Tb 0.0208 0.49896 0.75271 0.0
Eu433 Eu 0.03219 0.54103 0.64678 0.0
C434 C 0.03621 0.4895 0.60053 0.0
C435 C 0.07105 0.51686 0.73628 0.0
C436 C 0.98838 0.45617 0.8522 0.0
C437 C 0.96539 0.42428 0.89214 0.0
C438 C 0.98667 0.43356 0.87525 0.0
C439 C 0.9687 0.4695 0.84644 0.0
C440 C 0.94749 0.46029 0.86331 0.0
C441 C 0.94553 0.43751 0.88577 0.0
C442 C 1.01031 0.46518 0.82814 0.0
O443 O 1.00832 0.5292 0.80622 0.0
O444 O 0.03115 0.55592 0.7533 0.0
O445 O 0.99419 0.54217 0.66187 0.0
O446 O 0.98972 0.50464 0.69284 0.0
C447 C 0.01829 0.54928 0.80539 0.0
O448 O 0.05302 0.57044 0.61802 0.0
O449 O 0.02577 0.55974 0.55063 0.0
O450 O 0.02853 0.50957 0.58258 0.0
O451 O 0.03965 0.48441 0.66596 0.0
O452 O 0.05516 0.50995 0.77981 0.0
O453 O 0.06577 0.52444 0.67416 0.0
C454 C 0.98128 0.52407 0.67018 0.0
O455 O 1.01329 0.46418 0.76147 0.0
O456 O 1.01637 0.48492 0.85244 0.0
C457 C 0.06189 0.56669 0.50002 0.0
C458 C 0.09785 0.54503 0.43024 0.0
C459 C 0.10228 0.56335 0.47469 0.0
C460 C 0.08441 0.57419 0.50903 0.0
C461 C 0.05734 0.55038 0.44878 0.0
C462 C 0.07518 0.5396 0.41436 0.0
C463 C 0.04491 0.57098 0.55511 0.0
H464 H 0.96444 0.40667 0.90887 0.0
H465 H 1.00172 0.42297 0.87896 0.0
H466 H 0.96972 0.48695 0.82804 0.0
H467 H 0.93262 0.47111 0.85918 0.0
H468 H 0.11963 0.56826 0.48645 0.0
H469 H 0.08841 0.58689 0.5476 0.0
H470 H 0.04018 0.5443 0.43986 0.0
H471 H 0.07122 0.52562 0.38011 0.0
H472 H 0.12241 0.06783 0.26668 0.0
H473 H 0.06394 0.98806 0.54843 0.0
H474 H 0.12434 0.99445 0.25309 0.0
H475 H 0.03904 0.05574 0.5052 0.0
H476 H 0.08872 0.99084 0.44653 0.0
H477 H 0.09383 0.06452 0.35797 0.0
C478 C 0.11665 0.05099 0.28161 0.0
C479 C 0.12611 0.03138 0.25136 0.0
C480 C 0.07775 1.00504 0.45912 0.0
C481 C 0.0937 0.02759 0.35872 0.0
C482 C 0.06368 1.00353 0.51754 0.0
C483 C 0.0494 0.02173 0.53558 0.0
C484 C 0.07794 0.02506 0.41893 0.0
C485 C 0.04972 0.04128 0.4932 0.0
C486 C 0.10039 0.04916 0.33449 0.0
C487 C 0.1181 1.01011 0.27529 0.0
N488 N 0.06393 0.04253 0.4373 0.0
N489 N 0.10262 1.00879 0.32789 0.0
H490 H 0.51023 0.11892 0.20766 0.0
H491 H 0.48741 0.0939 0.61021 0.0
H492 H 0.4885 0.17008 0.35277 0.0
H493 H 0.50593 0.04203 0.46321 0.0
H494 H 0.48489 0.12146 0.51499 0.0
H495 H 0.5058 0.08995 0.29845 0.0
C496 C 0.50431 0.12404 0.25839 0.0
C497 C 0.49984 0.14704 0.27251 0.0
C498 C 0.48935 0.10401 0.50348 0.0
C499 C 0.49485 0.11392 0.3771 0.0
C500 C 0.4908 0.08824 0.55792 0.0
C501 C 0.49707 0.06561 0.54495 0.0
C502 C 0.4943 0.09718 0.43542 0.0
C503 C 0.50118 0.0593 0.47592 0.0
C504 C 0.50175 0.10748 0.31025 0.0
C505 C 0.49195 0.15259 0.33912 0.0
N506 N 0.49988 0.07501 0.42395 0.0
N507 N 0.48994 0.13622 0.38899 0.0
H508 H 0.38082 0.53229 0.32136 0.0
H509 H 0.50051 0.49105 0.47742 0.0
H510 H 0.42462 0.48376 0.22015 0.0
H511 H 0.45669 0.54 0.57672 0.0
H512 H 0.47379 0.48928 0.38052 0.0
H513 H 0.40949 0.53699 0.4115 0.0
C514 C 0.39661 0.52288 0.3173 0.0
C515 C 0.40018 0.50754 0.26276 0.0
C516 C 0.47004 0.50045 0.42343 0.0
C517 C 0.43306 0.51252 0.36735 0.0
C518 C 0.4853 0.50145 0.47894 0.0
C519 C 0.48087 0.51565 0.53569 0.0
C520 C 0.45013 0.51372 0.42441 0.0
C521 C 0.46085 0.52876 0.53436 0.0
C522 C 0.41292 0.52542 0.36936 0.0
C523 C 0.4209 0.49553 0.26152 0.0
N524 N 0.44626 0.52743 0.47986 0.0
N525 N 0.43645 0.49819 0.31307 0.0
H526 H 0.05507 0.36348 0.3785 0.0
H527 H 0.03417 0.49527 0.45964 0.0
H528 H 0.03555 0.41313 0.2239 0.0
H529 H 0.04882 0.44474 0.61679 0.0
H530 H 0.03922 0.46633 0.37083 0.0
H531 H 0.05798 0.3939 0.46362 0.0
C532 C 0.05183 0.38083 0.36198 0.0
C533 C 0.04491 0.38568 0.29383 0.0
C534 C 0.04145 0.46157 0.42469 0.0
C535 C 0.04777 0.42063 0.39178 0.0
C536 C 0.03854 0.47811 0.47558 0.0
C537 C 0.04081 0.4724 0.54604 0.0
C538 C 0.04664 0.43908 0.44414 0.0
C539 C 0.04675 0.44991 0.56324 0.0
C540 C 0.05328 0.39819 0.41091 0.0
C541 C 0.0406 0.40851 0.27602 0.0
N542 N 0.0493 0.43406 0.51273 0.0
N543 N 0.04194 0.42508 0.32473 0.0
H544 H 0.86341 0.99337 0.08437 0.0
H545 H 0.99051 0.02167 0.95674 0.0
H546 H 0.91324 0.02639 0.21357 0.0
H547 H 0.93862 0.99196 0.82763 0.0
H548 H 0.9639 0.02042 0.05489 0.0
H549 H 0.89226 0.98903 0.99453 0.0
C550 C 0.88052 0.99934 0.0946 0.0
C551 C 0.88576 1.01033 0.15701 0.0
C552 C 0.9584 1.01406 0.00515 0.0
C553 C 0.91899 1.00588 0.05275 0.0
C554 C 0.97361 1.01474 0.94904 0.0
C555 C 0.9668 1.00704 0.88353 0.0
C556 C 0.93623 1.00555 0.99582 0.0
C557 C 0.94465 0.99822 0.87689 0.0
C558 C 0.89699 0.99707 0.04272 0.0
C559 C 0.90825 0.0181 0.16608 0.0
N560 N 0.9302 0.99781 0.93207 0.0
N561 N 0.92395 1.01585 0.11446 0.0
H562 H 0.56417 0.89328 0.11701 0.0
H563 H 0.48407 0.96613 0.87781 0.0
H564 H 0.49292 0.90323 0.16286 0.0
H565 H 0.55456 0.98549 0.8998 0.0
H566 H 0.48792 0.94043 0.97688 0.0
H567 H 0.56236 0.92502 0.03319 0.0
C568 C 0.54828 0.90237 0.11027 0.0
C569 C 0.52866 0.89561 0.14699 0.0
C570 C 0.50253 0.95041 0.96051 0.0
C571 C 0.52641 0.93142 0.05068 0.0
C572 C 0.50039 0.96497 0.90369 0.0
C573 C 0.51906 0.97786 0.88053 0.0
C574 C 0.52365 0.94824 0.99367 0.0
C575 C 0.53976 0.97584 0.91633 0.0
C576 C 0.54729 0.92046 0.06269 0.0
C577 C 0.50851 0.90796 0.13631 0.0
N578 N 0.54163 0.96099 0.9707 0.0
N579 N 0.50783 0.92499 0.08841 0.0
H580 H 0.67424 0.5392 0.06281 0.0
H581 H 0.54607 0.51186 0.9471 0.0
H582 H 0.62468 0.50757 0.19842 0.0
H583 H 0.59701 0.54147 0.8121 0.0
H584 H 0.57347 0.51278 0.04256 0.0
H585 H 0.64496 0.54338 0.97439 0.0
C586 C 0.65711 0.53349 0.07468 0.0
C587 C 0.65205 0.52295 0.13852 0.0
C588 C 0.57861 0.51917 0.99212 0.0
C589 C 0.61835 0.52724 0.03604 0.0
C590 C 0.56295 0.51866 0.93751 0.0
C591 C 0.56923 0.52649 0.87118 0.0
C592 C 0.60073 0.5276 0.98047 0.0
C593 C 0.59138 0.53514 0.86211 0.0
C594 C 0.6404 0.53568 0.02366 0.0
C595 C 0.62953 0.51551 0.14979 0.0
N596 N 0.60629 0.53539 0.91591 0.0
N597 N 0.61359 0.51767 0.09902 0.0
H598 H 0.05179 0.64279 0.12818 0.0
H599 H 0.98547 0.54955 0.90857 0.0
H600 H 0.97888 0.63555 0.14806 0.0
H601 H 0.04681 0.58371 0.8404 0.0
H602 H 0.98387 0.57525 0.00909 0.0
H603 H 0.05167 0.61439 0.03719 0.0
C604 C 0.03576 0.6349 0.1144 0.0
C605 C 1.01532 0.64153 0.14624 0.0
C606 C 0.99758 0.57703 0.97178 0.0
C607 C 1.01506 0.60912 0.04052 0.0
C608 C 0.99855 0.5624 0.91467 0.0
C609 C 1.01624 0.56457 0.86581 0.0
C610 C 1.01474 0.59345 0.98062 0.0
C611 C 0.03274 0.58149 0.87623 0.0
C612 C 0.03569 0.61886 0.06175 0.0
C613 C 0.99501 0.631 0.12469 0.0
N614 N 0.03167 0.59511 0.93254 0.0
N615 N 0.99537 0.61526 0.07305 0.0
H616 H 0.91718 0.20377 0.22838 0.0
H617 H 0.92819 0.14027 0.58037 0.0
H618 H 0.92277 0.24003 0.42169 0.0
H619 H 0.89854 0.10879 0.40027 0.0
H620 H 0.92204 0.1775 0.52746 0.0
H621 H 0.90535 0.17009 0.29194 0.0
C622 C 0.91533 0.20499 0.28403 0.0
C623 C 0.92158 0.22484 0.31956 0.0
C624 C 0.91646 0.16248 0.50006 0.0
C625 C 0.9088 0.18565 0.39315 0.0
C626 C 0.9199 0.14114 0.53039 0.0
C627 C 0.9143 0.12125 0.49417 0.0
C628 C 0.90769 0.16396 0.4326 0.0
C629 C 0.9038 0.1236 0.42922 0.0
C630 C 0.90871 0.18553 0.32049 0.0
C631 C 0.91897 0.22494 0.39203 0.0
N632 N 0.90123 0.14452 0.39997 0.0
N633 N 0.91333 0.20548 0.42656 0.0
H634 H 0.28827 0.02387 0.39283 0.0
H635 H 0.42138 0.02893 0.46566 0.0
H636 H 0.32792 0.08576 0.37704 0.0
H637 H 0.38092 0.96763 0.47934 0.0
H638 H 0.3868 0.05087 0.44503 0.0
H639 H 0.32088 1.00458 0.44196 0.0
C640 C 0.3036 0.0337 0.40144 0.0
C641 C 0.30529 0.05657 0.37985 0.0
C642 C 0.38546 0.03264 0.45265 0.0
C643 C 0.34323 0.034 0.43387 0.0
C644 C 0.40522 0.02004 0.46352 0.0
C645 C 0.40405 0.99633 0.47289 0.0
C646 C 0.36434 0.02147 0.45107 0.0
C647 C 0.3826 0.98584 0.47205 0.0
C648 C 0.32241 0.02246 0.42872 0.0
C649 C 0.32593 0.06803 0.39143 0.0
N650 N 0.36359 0.99848 0.46085 0.0
N651 N 0.34421 0.05652 0.41668 0.0
H652 H 0.58027 0.30057 0.42474 0.0
H653 H 0.64201 0.41969 0.44518 0.0
H654 H 0.64062 0.31643 0.3046 0.0
H655 H 0.58743 0.39779 0.58073 0.0
H656 H 0.64562 0.38056 0.40359 0.0
H657 H 0.58722 0.33357 0.49506 0.0
C658 C 0.59538 0.31055 0.41387 0.0
C659 C 0.60965 0.30564 0.35729 0.0
C660 C 0.63316 0.38428 0.44338 0.0
C661 C 0.6171 0.34457 0.43689 0.0
C662 C 0.63098 0.40664 0.4668 0.0
C663 C 0.61421 0.41214 0.51598 0.0
C664 C 0.61834 0.36739 0.46897 0.0
C665 C 0.6007 0.39444 0.54314 0.0
C666 C 0.59919 0.32973 0.45398 0.0
C667 C 0.62868 0.31981 0.34605 0.0
N668 N 0.60288 0.37299 0.51864 0.0
N669 N 0.63159 0.3389 0.38456 0.0
H670 H 0.18976 0.46041 0.19954 0.0
H671 H 0.13278 0.52877 0.50895 0.0
H672 H 0.21641 0.46052 0.40791 0.0
H673 H 0.10463 0.52554 0.30293 0.0
H674 H 0.162 0.50151 0.47524 0.0
H675 H 0.15597 0.47998 0.24033 0.0
C676 C 0.18827 0.46388 0.25438 0.0
C677 C 0.20621 0.459 0.30021 0.0
C678 C 0.14944 0.50673 0.43735 0.0
C679 C 0.16773 0.48235 0.3467 0.0
C680 C 0.13295 0.52255 0.45625 0.0
C681 C 0.11648 0.52972 0.40825 0.0
C682 C 0.14954 0.49801 0.36987 0.0
C683 C 0.11706 0.52052 0.34143 0.0
C684 C 0.16902 0.47542 0.27744 0.0
C685 C 0.20326 0.46436 0.37044 0.0
N686 N 0.1334 0.50523 0.3241 0.0
N687 N 0.18457 0.47609 0.39134 0.0
H688 H 0.13721 0.81941 0.10589 0.0
H689 H 0.10093 0.89236 0.77464 0.0
H690 H 0.08155 0.80217 0.9694 0.0
H691 H 0.12364 0.92205 0.96674 0.0
H692 H 0.10788 0.85454 0.82383 0.0
H693 H 0.14568 0.85231 0.03178 0.0
C694 C 0.12693 0.8222 0.06016 0.0
C695 C 0.1081 0.80817 0.04565 0.0
C696 C 0.11183 0.86944 0.85427 0.0
C697 C 0.11852 0.84524 0.95923 0.0
C698 C 0.10771 0.89105 0.82661 0.0
C699 C 0.11095 0.91055 0.86727 0.0
C700 C 0.11965 0.86732 0.92254 0.0
C701 C 0.1207 0.90766 0.93326 0.0
C702 C 0.13199 0.84088 0.01761 0.0
C703 C 0.0962 0.81227 0.98356 0.0
N704 N 0.12437 0.88643 0.95923 0.0
N705 N 0.10144 0.83056 0.94323 0.0
H706 H 0.72902 0.08163 0.99772 0.0
H707 H 0.6066 0.13647 0.96522 0.0
H708 H 0.70891 0.14109 0.1135 0.0
H709 H 0.63159 0.0813 0.83952 0.0
H710 H 0.64527 0.14231 0.00905 0.0
H711 H 0.69582 0.08607 0.92579 0.0
C712 C 0.71804 0.09605 0.00727 0.0
C713 C 0.72185 0.1108 0.0631 0.0
C714 C 0.64231 0.1292 0.97097 0.0
C715 C 0.68272 0.1153 0.98167 0.0
C716 C 0.62022 0.12574 0.94632 0.0
C717 C 0.61575 0.1082 0.89914 0.0
C718 C 0.65998 0.11492 0.94857 0.0
C719 C 0.63415 0.09513 0.87542 0.0
C720 C 0.69875 0.09839 0.96627 0.0
C721 C 0.70643 0.12884 0.07264 0.0
N722 N 0.65534 0.0986 0.90096 0.0
N723 N 0.6873 0.13032 0.03326 0.0
H724 H 0.43018 0.73775 0.97405 0.0
H725 H 0.41734 0.60382 0.00642 0.0
H726 H 0.4213 0.70061 0.16622 0.0
H727 H 0.42791 0.63895 0.81152 0.0
H728 H 0.40945 0.64 0.06109 0.0
H729 H 0.42092 0.70306 0.91057 0.0
C730 C 0.42593 0.72245 0.00297 0.0
C731 C 0.42696 0.72207 0.07571 0.0
C732 C 0.41315 0.63983 0.0061 0.0
C733 C 0.41626 0.68237 0.00337 0.0
C734 C 0.41746 0.61904 0.97446 0.0
C735 C 0.42375 0.61824 0.90424 0.0
C736 C 0.41545 0.6601 0.96773 0.0
C737 C 0.42382 0.63876 0.86622 0.0
C738 C 0.42055 0.70267 0.96666 0.0
C739 C 0.42073 0.70187 0.11031 0.0
N740 N 0.42018 0.65889 0.89871 0.0
N741 N 0.41601 0.6828 0.07385 0.0
H742 H 0.80793 0.44659 0.98368 0.0
H743 H 0.93424 0.4092 0.9946 0.0
H744 H 0.82972 0.39066 0.11459 0.0
H745 H 0.90505 0.44409 0.81843 0.0
H746 H 0.89593 0.3987 0.03305 0.0
H747 H 0.84185 0.4421 0.91461 0.0
C748 C 0.81939 0.43287 0.99727 0.0
C749 C 0.81591 0.41935 0.05688 0.0
C750 C 0.89794 0.40827 0.98525 0.0
C751 C 0.8558 0.41491 0.97847 0.0
C752 C 0.91983 0.41427 0.96321 0.0
C753 C 0.92284 0.42804 0.90409 0.0
C754 C 0.87898 0.41633 0.94835 0.0
C755 C 0.9035 0.43411 0.8656 0.0
C756 C 0.83905 0.43049 0.95767 0.0
C757 C 0.83196 0.40216 0.07109 0.0
N758 N 0.88239 0.42857 0.88905 0.0
N759 N 0.8515 0.40083 0.03333 0.0
H760 H 0.99583 0.20048 0.86422 0.0
H761 H 0.0538 0.07874 0.80455 0.0
H762 H 0.06329 0.18362 0.93656 0.0
H763 H 0.98541 0.09578 0.74105 0.0
H764 H 0.05883 0.11774 0.84562 0.0
H765 H 0.99326 0.16326 0.8101 0.0
C766 C 1.01031 0.18915 0.8678 0.0
C767 C 0.02984 0.19537 0.90517 0.0
C768 C 0.04277 0.11296 0.82242 0.0
C769 C 0.02673 0.15217 0.84422 0.0
C770 C 0.03987 0.09067 0.79885 0.0
C771 C 0.01909 0.08383 0.76948 0.0
C772 C 0.02479 0.12862 0.81657 0.0
C773 C 1.00169 0.10014 0.76357 0.0
C774 C 1.00871 0.16772 0.83735 0.0
C775 C 0.04778 0.17955 0.90907 0.0
N776 N 1.00492 0.12168 0.78704 0.0
N777 N 0.04575 0.15869 0.87931 0.0
H778 H 0.31591 0.0342 0.77978 0.0
H779 H 0.44808 0.03083 0.87703 0.0
H780 H 0.34079 0.01927 0.98514 0.0
H781 H 0.42505 0.01982 0.66776 0.0
H782 H 0.40849 0.03104 0.91615 0.0
H783 H 0.35536 0.03293 0.73617 0.0
C784 C 0.32962 0.03055 0.81559 0.0
C785 C 0.32497 0.02666 0.88619 0.0
C786 C 0.41207 0.02858 0.86164 0.0
C787 C 0.37011 0.02559 0.8369 0.0
C788 C 0.43471 0.02858 0.83912 0.0
C789 C 0.44 0.02533 0.76889 0.0
C790 C 0.39438 0.02564 0.81366 0.0
C791 C 0.42182 0.02236 0.72242 0.0
C792 C 0.3521 0.02978 0.79065 0.0
C793 C 0.34345 0.02203 0.9302 0.0
N794 N 0.39982 0.02271 0.74553 0.0
N795 N 0.36512 0.02181 0.90501 0.0
H796 H 0.49158 0.35145 0.96601 0.0
H797 H 0.54697 0.43892 0.69894 0.0
H798 H 0.53384 0.33021 0.79479 0.0
H799 H 0.48749 0.45562 0.82023 0.0
H800 H 0.54331 0.39925 0.73658 0.0
H801 H 0.48992 0.38964 0.91537 0.0
C802 C 0.50018 0.35459 0.91716 0.0
C803 C 0.51309 0.33743 0.88524 0.0
C804 C 0.53095 0.41155 0.75455 0.0
C805 C 0.51175 0.38154 0.82799 0.0
C806 C 0.53309 0.43425 0.73334 0.0
C807 C 0.51756 0.45069 0.75663 0.0
C808 C 0.51337 0.40522 0.80041 0.0
C809 C 0.49983 0.44355 0.80086 0.0
C810 C 0.49935 0.37653 0.88856 0.0
C811 C 0.52413 0.34289 0.82244 0.0
N812 N 0.49837 0.42141 0.82189 0.0
N813 N 0.52346 0.36447 0.79648 0.0
H814 H 0.21919 0.50716 0.76297 0.0
H815 H 0.08763 0.51235 0.86795 0.0
H816 H 0.19546 0.52267 0.96897 0.0
H817 H 0.10985 0.52088 0.65597 0.0
H818 H 0.12736 0.51259 0.90495 0.0
H819 H 0.17964 0.50915 0.72152 0.0
C820 C 0.20572 0.51117 0.79933 0.0
C821 C 0.21073 0.51491 0.86953 0.0
C822 C 0.12358 0.51445 0.85032 0.0
C823 C 0.16544 0.5168 0.82271 0.0
C824 C 0.10085 0.51418 0.82904 0.0
C825 C 0.0953 0.51656 0.75865 0.0
C826 C 0.14108 0.51679 0.80096 0.0
C827 C 0.11329 0.51902 0.7108 0.0
C828 C 0.18317 0.51233 0.77563 0.0
C829 C 0.19254 0.52001 0.91427 0.0
N830 N 0.13536 0.51893 0.73276 0.0
N831 N 0.17078 0.5206 0.8903 0.0
H832 H 0.02272 0.82575 0.61801 0.0
H833 H 0.98062 0.95401 0.55929 0.0
H834 H 0.98499 0.84854 0.43896 0.0
H835 H 0.01944 0.93229 0.7375 0.0
H836 H 0.97918 0.9147 0.52011 0.0
H837 H 0.01873 0.86369 0.6681 0.0
C838 C 1.01342 0.83865 0.58945 0.0
C839 C 1.00431 0.8339 0.52382 0.0
C840 C 0.98794 0.91848 0.56797 0.0
C841 C 0.99969 0.87747 0.58102 0.0
C842 C 0.98878 0.94099 0.5905 0.0
C843 C 1.00038 0.94662 0.65161 0.0
C844 C 0.99882 0.90132 0.60657 0.0
C845 C 1.01051 0.92887 0.68975 0.0
C846 C 1.01112 0.86031 0.61818 0.0
C847 C 0.99213 0.85125 0.48986 0.0
N848 N 1.00961 0.90707 0.66641 0.0
N849 N 0.99037 0.87226 0.51853 0.0
H850 H 0.67893 0.99274 0.44967 0.0
H851 H 0.58848 0.04336 0.71337 0.0
H852 H 0.69814 0.03441 0.62348 0.0
H853 H 0.57453 0.98318 0.59386 0.0
H854 H 0.62831 0.04166 0.67637 0.0
H855 H 0.64053 0.98953 0.49811 0.0
C856 C 0.67532 1.00091 0.49855 0.0
C857 C 0.69201 1.01409 0.5319 0.0
C858 C 0.61659 0.02872 0.65858 0.0
C859 C 0.6476 1.01097 0.58662 0.0
C860 C 0.59379 0.02975 0.67943 0.0
C861 C 0.57806 1.01343 0.65654 0.0
C862 C 0.62376 1.01149 0.61339 0.0
C863 C 0.58604 0.99609 0.61294 0.0
C864 C 0.65325 0.99919 0.52589 0.0
C865 C 0.68587 0.02455 0.59466 0.0
N866 N 0.60825 0.99572 0.59218 0.0
N867 N 0.66418 0.023 0.61937 0.0
H868 H 0.50653 0.71079 0.62665 0.0
H869 H 0.55152 0.58442 0.5575 0.0
H870 H 0.54838 0.69185 0.45214 0.0
H871 H 0.51123 0.60232 0.73649 0.0
H872 H 0.55261 0.62437 0.52322 0.0
H873 H 0.51025 0.67203 0.67286 0.0
C874 C 0.51668 0.69858 0.59835 0.0
C875 C 0.52707 0.70466 0.53512 0.0
C876 C 0.54359 0.61962 0.57019 0.0
C877 C 0.53134 0.66019 0.58776 0.0
C878 C 0.54293 0.59673 0.58986 0.0
C879 C 0.53108 0.58985 0.64979 0.0
C880 C 0.53225 0.63592 0.6104 0.0
C881 C 0.52042 0.60674 0.68962 0.0
C882 C 0.51882 0.67645 0.62485 0.0
C883 C 0.54025 0.68814 0.50135 0.0
N884 N 0.52114 0.62895 0.66898 0.0
N885 N 0.54183 0.66669 0.52772 0.0
H886 H 0.85727 0.54324 0.4364 0.0
H887 H 0.94682 0.49493 0.70798 0.0
H888 H 0.83777 0.50035 0.60944 0.0
H889 H 0.96006 0.5553 0.58557 0.0
H890 H 0.90723 0.49553 0.66881 0.0
H891 H 0.89508 0.54747 0.48738 0.0
C892 C 0.86068 0.535 0.48562 0.0
C893 C 0.84411 0.5212 0.51802 0.0
C894 C 0.91874 0.50875 0.65091 0.0
C895 C 0.88788 0.52551 0.57575 0.0
C896 C 0.9414 0.50838 0.67308 0.0
C897 C 0.95687 0.52507 0.64996 0.0
C898 C 0.91147 0.5257 0.6042 0.0
C899 C 0.94876 0.54213 0.60492 0.0
C900 C 0.88243 0.5373 0.51444 0.0
C901 C 0.84999 0.5107 0.58132 0.0
N902 N 0.92672 0.54186 0.58294 0.0
N903 N 0.87138 0.51284 0.60751 0.0
loop_
_geom_bond_atom_site_label_1
_geom_bond_atom_site_label_2
_geom_bond_distance
_geom_bond_site_symmetry_2
_ccdc_geom_bond_type
C0 C1 1.386 . S
C0 C2 1.397 . S
C0 H24 0.931 . S
C1 C0 1.386 . S
C1 C5 1.397 . S
C2 C0 1.397 . S
C2 C3 1.384 . S
C2 H25 0.930 . S
C3 C2 1.384 . S
C3 C4 1.377 . S
C3 C6 1.481 . S
C4 C3 1.377 . S
C4 C5 1.389 . S
C4 H26 0.929 . S
C5 C1 1.397 . S
C5 C4 1.389 . S
C5 H27 0.931 . S
C6 C3 1.481 . S
C6 C7 1.387 . S
C6 C11 1.390 . S
C7 C6 1.387 . S
C7 C8 1.401 . S
C7 H28 0.930 . S
C8 C7 1.401 . S
C8 C9 1.376 . S
C8 C17 1.511 . S
C9 C8 1.376 . S
C9 C10 1.392 . S
C9 H30 0.931 . S
C10 C9 1.392 . S
C10 C11 1.361 . S
C10 C12 1.500 . S
C11 C6 1.390 . S
C11 C10 1.361 . S
C11 H29 0.931 . S
C12 C10 1.500 . S
C12 C13 1.371 . S
C12 C14 1.365 . S
C13 C12 1.371 . S
C13 C23 1.386 . S
C13 H31 0.931 . S
C14 C12 1.365 . S
C14 C15 1.409 . S
C14 H32 0.929 . S
C15 C14 1.409 . S
C15 C16 1.380 . S
C15 H33 0.930 . S
C16 C15 1.380 . S
C16 C23 1.357 . S
C17 C8 1.511 . S
C17 C18 1.341 . S
C17 C19 1.371 . S
C18 C17 1.341 . S
C18 C22 1.394 . S
C18 H34 0.930 . S
C19 C17 1.371 . S
C19 C20 1.392 . S
C19 H35 0.931 . S
C20 C19 1.392 . S
C20 C21 1.331 . S
C20 H38 0.932 . S
C21 C20 1.331 . S
C21 C22 1.336 . S
C22 C18 1.394 . S
C22 C21 1.336 . S
C22 H37 0.929 . S
C23 C13 1.386 . S
C23 C16 1.357 . S
C23 H36 0.928 . S
H24 C0 0.931 . S
H25 C2 0.930 . S
H26 C4 0.929 . S
H27 C5 0.931 . S
H28 C7 0.930 . S
H29 C11 0.931 . S
H30 C9 0.931 . S
H31 C13 0.931 . S
H32 C14 0.929 . S
H33 C15 0.930 . S
H34 C18 0.930 . S
H35 C19 0.931 . S
H36 C23 0.928 . S
H37 C22 0.929 . S
H38 C20 0.932 . S
C39 C40 1.394 . S
C39 C41 1.397 . S
C39 H63 0.931 . S
C40 C39 1.394 . S
C40 C44 1.389 1_655 S
C41 C39 1.397 . S
C41 C42 1.389 . S
C41 H64 0.930 . S
C42 C41 1.389 . S
C42 C43 1.373 1_655 S
C42 C45 1.480 . S
C43 C42 1.373 1_455 S
C43 C44 1.389 . S
C43 H65 0.929 . S
C44 C40 1.389 1_455 S
C44 C43 1.389 . S
C44 H66 0.931 . S
C45 C42 1.480 . S
C45 C46 1.388 . S
C45 C50 1.390 . S
C46 C45 1.388 . S
C46 C47 1.402 . S
C46 H67 0.930 . S
C47 C46 1.402 . S
C47 C48 1.376 . S
C47 C56 1.513 . S
C48 C47 1.376 . S
C48 C49 1.392 . S
C48 H69 0.934 . S
C49 C48 1.392 . S
C49 C50 1.361 . S
C49 C51 1.499 1_655 S
C50 C45 1.390 . S
C50 C49 1.361 . S
C50 H68 0.931 . S
C51 C49 1.499 1_455 S
C51 C52 1.362 1_455 S
C51 C53 1.374 . S
C52 C51 1.362 1_655 S
C52 C62 1.386 . S
C52 H70 0.931 . S
C53 C51 1.374 . S
C53 C54 1.409 . S
C53 H71 0.929 . S
C54 C53 1.409 . S
C54 C55 1.379 . S
C54 H72 0.930 . S
C55 C54 1.379 . S
C55 C62 1.359 1_455 S
C56 C47 1.513 . S
C56 C57 1.341 . S
C56 C58 1.371 1_655 S
C57 C56 1.341 . S
C57 C61 1.394 . S
C57 H73 0.930 . S
C58 C56 1.371 1_455 S
C58 C59 1.392 . S
C58 H74 0.931 . S
C59 C58 1.392 . S
C59 C60 1.322 1_455 S
C59 H77 0.932 . S
C60 C59 1.322 1_655 S
C60 C61 1.345 . S
C61 C57 1.394 . S
C61 C60 1.345 . S
C61 H76 0.929 . S
C62 C52 1.386 . S
C62 C55 1.359 1_655 S
C62 H75 0.928 . S
H63 C39 0.931 . S
H64 C41 0.930 . S
H65 C43 0.929 . S
H66 C44 0.931 . S
H67 C46 0.930 . S
H68 C50 0.931 . S
H69 C48 0.934 . S
H70 C52 0.931 . S
H71 C53 0.929 . S
H72 C54 0.930 . S
H73 C57 0.930 . S
H74 C58 0.931 . S
H75 C62 0.928 . S
H76 C61 0.929 . S
H77 C59 0.932 . S
C78 C79 1.394 . S
C78 C80 1.397 . S
C78 H102 0.931 . S
C79 C78 1.394 . S
C79 C83 1.389 1_565 S
C80 C78 1.397 . S
C80 C81 1.389 . S
C80 H103 0.930 . S
C81 C80 1.389 . S
C81 C82 1.373 1_565 S
C81 C84 1.480 . S
C82 C81 1.373 1_545 S
C82 C83 1.389 . S
C82 H104 0.929 . S
C83 C79 1.389 1_545 S
C83 C82 1.389 . S
C83 H105 0.931 . S
C84 C81 1.480 . S
C84 C85 1.388 . S
C84 C89 1.390 . S
C85 C84 1.388 . S
C85 C86 1.402 . S
C85 H106 0.930 . S
C86 C85 1.402 . S
C86 C87 1.376 . S
C86 C95 1.513 . S
C87 C86 1.376 . S
C87 C88 1.392 . S
C87 H108 0.934 . S
C88 C87 1.392 . S
C88 C89 1.361 . S
C88 C90 1.499 1_565 S
C89 C84 1.390 . S
C89 C88 1.361 . S
C89 H107 0.931 . S
C90 C88 1.499 1_545 S
C90 C91 1.362 1_545 S
C90 C92 1.374 . S
C91 C90 1.362 1_565 S
C91 C101 1.386 . S
C91 H109 0.931 . S
C92 C90 1.374 . S
C92 C93 1.409 . S
C92 H110 0.929 . S
C93 C92 1.409 . S
C93 C94 1.379 . S
C93 H111 0.930 . S
C94 C93 1.379 . S
C94 C101 1.359 1_545 S
C95 C86 1.513 . S
C95 C96 1.341 . S
C95 C97 1.371 1_565 S
C96 C95 1.341 . S
C96 C100 1.394 . S
C96 H112 0.930 . S
C97 C95 1.371 1_545 S
C97 C98 1.392 . S
C97 H113 0.931 . S
C98 C97 1.392 . S
C98 C99 1.322 1_545 S
C98 H116 0.932 . S
C99 C98 1.322 1_565 S
C99 C100 1.345 . S
C100 C96 1.394 . S
C100 C99 1.345 . S
C100 H115 0.929 . S
C101 C91 1.386 . S
C101 C94 1.359 1_565 S
C101 H114 0.928 . S
H102 C78 0.931 . S
H103 C80 0.930 . S
H104 C82 0.929 . S
H105 C83 0.931 . S
H106 C85 0.930 . S
H107 C89 0.931 . S
H108 C87 0.934 . S
H109 C91 0.931 . S
H110 C92 0.929 . S
H111 C93 0.930 . S
H112 C96 0.930 . S
H113 C97 0.931 . S
H114 C101 0.928 . S
H115 C100 0.929 . S
H116 C98 0.932 . S
C117 C118 1.386 . S
C117 C119 1.397 . S
C117 H141 0.931 . S
C118 C117 1.386 . S
C118 C122 1.397 . S
C119 C117 1.397 . S
C119 C120 1.384 . S
C119 H142 0.930 . S
C120 C119 1.384 . S
C120 C121 1.377 . S
C120 C123 1.481 . S
C121 C120 1.377 . S
C121 C122 1.389 . S
C121 H143 0.929 . S
C122 C118 1.397 . S
C122 C121 1.389 . S
C122 H144 0.931 . S
C123 C120 1.481 . S
C123 C124 1.387 . S
C123 C128 1.390 . S
C124 C123 1.387 . S
C124 C125 1.401 . S
C124 H145 0.930 . S
C125 C124 1.401 . S
C125 C126 1.376 . S
C125 C134 1.511 . S
C126 C125 1.376 . S
C126 C127 1.392 . S
C126 H147 0.931 . S
C127 C126 1.392 . S
C127 C128 1.361 . S
C127 C129 1.500 . S
C128 C123 1.390 . S
C128 C127 1.361 . S
C128 H146 0.931 . S
C129 C127 1.500 . S
C129 C130 1.371 . S
C129 C131 1.365 . S
C130 C129 1.371 . S
C130 C140 1.386 . S
C130 H148 0.931 . S
C131 C129 1.365 . S
C131 C132 1.409 . S
C131 H149 0.929 . S
C132 C131 1.409 . S
C132 C133 1.380 . S
C132 H150 0.930 . S
C133 C132 1.380 . S
C133 C140 1.357 . S
C134 C125 1.511 . S
C134 C135 1.341 . S
C134 C136 1.371 . S
C135 C134 1.341 . S
C135 C139 1.394 . S
C135 H151 0.930 . S
C136 C134 1.371 . S
C136 C137 1.392 . S
C136 H152 0.931 . S
C137 C136 1.392 . S
C137 C138 1.331 . S
C137 H155 0.932 . S
C138 C137 1.331 . S
C138 C139 1.336 . S
C139 C135 1.394 . S
C139 C138 1.336 . S
C139 H154 0.929 . S
C140 C130 1.386 . S
C140 C133 1.357 . S
C140 H153 0.928 . S
H141 C117 0.931 . S
H142 C119 0.930 . S
H143 C121 0.929 . S
H144 C122 0.931 . S
H145 C124 0.930 . S
H146 C128 0.931 . S
H147 C126 0.931 . S
H148 C130 0.931 . S
H149 C131 0.929 . S
H150 C132 0.930 . S
H151 C135 0.930 . S
H152 C136 0.931 . S
H153 C140 0.928 . S
H154 C139 0.929 . S
H155 C137 0.932 . S
C156 C157 1.386 . S
C156 C158 1.397 . S
C156 H180 0.931 . S
C157 C156 1.386 . S
C157 C161 1.397 . S
C158 C156 1.397 . S
C158 C159 1.384 . S
C158 H181 0.930 . S
C159 C158 1.384 . S
C159 C160 1.377 . S
C159 C162 1.481 . S
C160 C159 1.377 . S
C160 C161 1.389 . S
C160 H182 0.929 . S
C161 C157 1.397 . S
C161 C160 1.389 . S
C161 H183 0.931 . S
C162 C159 1.481 . S
C162 C163 1.387 . S
C162 C167 1.390 . S
C163 C162 1.387 . S
C163 C164 1.401 . S
C163 H184 0.930 . S
C164 C163 1.401 . S
C164 C165 1.373 1_554 S
C164 C173 1.511 . S
C165 C164 1.373 1_556 S
C165 C166 1.393 . S
C165 H186 0.934 . S
C166 C165 1.393 . S
C166 C167 1.361 1_556 S
C166 C168 1.500 . S
C167 C162 1.390 . S
C167 C166 1.361 1_554 S
C167 H185 0.931 . S
C168 C166 1.500 . S
C168 C169 1.371 . S
C168 C170 1.365 . S
C169 C168 1.371 . S
C169 C179 1.386 . S
C169 H187 0.931 . S
C170 C168 1.365 . S
C170 C171 1.409 . S
C170 H188 0.929 . S
C171 C170 1.409 . S
C171 C172 1.380 . S
C171 H189 0.930 . S
C172 C171 1.380 . S
C172 C179 1.357 . S
C173 C164 1.511 . S
C173 C174 1.341 . S
C173 C175 1.371 . S
C174 C173 1.341 . S
C174 C178 1.394 . S
C174 H190 0.930 . S
C175 C173 1.371 . S
C175 C176 1.392 . S
C175 H191 0.931 1_554 S
C176 C175 1.392 . S
C176 C177 1.331 . S
C176 H194 0.932 . S
C177 C176 1.331 . S
C177 C178 1.336 . S
C178 C174 1.394 . S
C178 C177 1.336 . S
C178 H193 0.929 . S
C179 C169 1.386 . S
C179 C172 1.357 . S
C179 H192 0.928 . S
H180 C156 0.931 . S
H181 C158 0.930 . S
H182 C160 0.929 . S
H183 C161 0.931 . S
H184 C163 0.930 . S
H185 C167 0.931 . S
H186 C165 0.934 . S
H187 C169 0.931 . S
H188 C170 0.929 . S
H189 C171 0.930 . S
H190 C174 0.930 . S
H191 C175 0.931 1_556 S
H192 C179 0.928 . S
H193 C178 0.929 . S
H194 C176 0.932 . S
C195 C196 1.387 . S
C195 C197 1.397 . S
C195 H219 0.931 . S
C196 C195 1.387 . S
C196 C200 1.396 1_655 S
C197 C195 1.397 . S
C197 C198 1.382 . S
C197 H220 0.930 . S
C198 C197 1.382 . S
C198 C199 1.380 1_655 S
C198 C201 1.480 . S
C199 C198 1.380 1_455 S
C199 C200 1.389 . S
C199 H221 0.929 . S
C200 C196 1.396 1_455 S
C200 C199 1.389 . S
C200 H222 0.931 . S
C201 C198 1.480 . S
C201 C202 1.388 . S
C201 C206 1.390 . S
C202 C201 1.388 . S
C202 C203 1.402 . S
C202 H223 0.930 . S
C203 C202 1.402 . S
C203 C204 1.376 . S
C203 C212 1.512 . S
C204 C203 1.376 . S
C204 C205 1.392 1_654 S
C204 H225 0.933 1_554 S
C205 C204 1.392 1_456 S
C205 C206 1.361 1_456 S
C205 C207 1.499 . S
C206 C201 1.390 . S
C206 C205 1.361 1_654 S
C206 H224 0.931 . S
C207 C205 1.499 . S
C207 C208 1.357 1_455 S
C207 C209 1.380 . S
C208 C207 1.357 1_655 S
C208 C218 1.386 . S
C208 H226 0.931 . S
C209 C207 1.380 . S
C209 C210 1.409 . S
C209 H227 0.929 . S
C210 C209 1.409 . S
C210 C211 1.384 . S
C210 H228 0.930 . S
C211 C210 1.384 . S
C211 C218 1.353 1_455 S
C212 C203 1.512 . S
C212 C213 1.341 . S
C212 C214 1.371 1_655 S
C213 C212 1.341 . S
C213 C217 1.394 . S
C213 H229 0.930 . S
C214 C212 1.371 1_455 S
C214 C215 1.392 . S
C214 H230 0.931 1_554 S
C215 C214 1.392 . S
C215 C216 1.326 1_455 S
C215 H233 0.932 . S
C216 C215 1.326 1_655 S
C216 C217 1.341 . S
C217 C213 1.394 . S
C217 C216 1.341 . S
C217 H232 0.929 . S
C218 C208 1.386 . S
C218 C211 1.353 1_655 S
C218 H231 0.928 . S
H219 C195 0.931 . S
H220 C197 0.930 . S
H221 C199 0.929 . S
H222 C200 0.931 . S
H223 C202 0.930 . S
H224 C206 0.931 . S
H225 C204 0.933 1_556 S
H226 C208 0.931 . S
H227 C209 0.929 . S
H228 C210 0.930 . S
H229 C213 0.930 . S
H230 C214 0.931 1_556 S
H231 C218 0.928 . S
H232 C217 0.929 . S
H233 C215 0.932 . S
C234 C235 1.387 . S
C234 C236 1.397 . S
C234 H258 0.931 . S
C235 C234 1.387 . S
C235 C239 1.396 1_565 S
C236 C234 1.397 . S
C236 C237 1.381 . S
C236 H259 0.930 . S
C237 C236 1.381 . S
C237 C238 1.380 1_565 S
C237 C240 1.480 . S
C238 C237 1.380 1_545 S
C238 C239 1.389 . S
C238 H260 0.929 . S
C239 C235 1.396 1_545 S
C239 C238 1.389 . S
C239 H261 0.931 . S
C240 C237 1.480 . S
C240 C241 1.388 . S
C240 C245 1.390 . S
C241 C240 1.388 . S
C241 C242 1.402 . S
C241 H262 0.930 . S
C242 C241 1.402 . S
C242 C243 1.382 . S
C242 C251 1.512 . S
C243 C242 1.382 . S
C243 C244 1.390 1_564 S
C243 H264 0.929 1_554 S
C244 C243 1.390 1_546 S
C244 C245 1.361 1_546 S
C244 C246 1.499 . S
C245 C240 1.390 . S
C245 C244 1.361 1_564 S
C245 H263 0.931 . S
C246 C244 1.499 . S
C246 C247 1.357 1_545 S
C246 C248 1.380 . S
C247 C246 1.357 1_565 S
C247 C257 1.386 . S
C247 H265 0.931 . S
C248 C246 1.380 . S
C248 C249 1.409 . S
C248 H266 0.929 . S
C249 C248 1.409 . S
C249 C250 1.384 . S
C249 H267 0.930 . S
C250 C249 1.384 . S
C250 C257 1.353 1_545 S
C251 C242 1.512 . S
C251 C252 1.341 . S
C251 C253 1.371 1_565 S
C252 C251 1.341 . S
C252 C256 1.394 . S
C252 H268 0.930 . S
C253 C251 1.371 1_545 S
C253 C254 1.392 . S
C253 H269 0.931 1_554 S
C254 C253 1.392 . S
C254 C255 1.326 1_545 S
C254 H272 0.932 . S
C255 C254 1.326 1_565 S
C255 C256 1.341 . S
C256 C252 1.394 . S
C256 C255 1.341 . S
C256 H271 0.929 . S
C257 C247 1.386 . S
C257 C250 1.353 1_565 S
C257 H270 0.928 . S
H258 C234 0.931 . S
H259 C236 0.930 . S
H260 C238 0.929 . S
H261 C239 0.931 . S
H262 C241 0.930 . S
H263 C245 0.931 . S
H264 C243 0.929 1_556 S
H265 C247 0.931 . S
H266 C248 0.929 . S
H267 C249 0.930 . S
H268 C252 0.930 . S
H269 C253 0.931 1_556 S
H270 C257 0.928 . S
H271 C256 0.929 . S
H272 C254 0.932 . S
C273 C274 1.386 . S
C273 C275 1.397 . S
C273 H297 0.931 . S
C274 C273 1.386 . S
C274 C278 1.397 . S
C275 C273 1.397 . S
C275 C276 1.384 . S
C275 H298 0.930 . S
C276 C275 1.384 . S
C276 C277 1.377 . S
C276 C279 1.481 . S
C277 C276 1.377 . S
C277 C278 1.389 . S
C277 H299 0.929 . S
C278 C274 1.397 . S
C278 C277 1.389 . S
C278 H300 0.931 . S
C279 C276 1.481 . S
C279 C280 1.383 1_556 S
C279 C284 1.390 1_556 S
C280 C279 1.383 1_554 S
C280 C281 1.416 . S
C280 H301 0.918 1_554 S
C281 C280 1.416 . S
C281 C282 1.376 . S
C281 C290 1.511 . S
C282 C281 1.376 . S
C282 C283 1.392 . S
C282 H303 0.931 . S
C283 C282 1.392 . S
C283 C284 1.361 . S
C283 C285 1.500 . S
C284 C279 1.390 1_554 S
C284 C283 1.361 . S
C284 H302 0.931 . S
C285 C283 1.500 . S
C285 C286 1.371 . S
C285 C287 1.365 . S
C286 C285 1.371 . S
C286 C296 1.386 . S
C286 H304 0.931 . S
C287 C285 1.365 . S
C287 C288 1.409 . S
C287 H305 0.929 . S
C288 C287 1.409 . S
C288 C289 1.380 . S
C288 H306 0.930 . S
C289 C288 1.380 . S
C289 C296 1.357 . S
C290 C281 1.511 . S
C290 C291 1.341 . S
C290 C292 1.371 . S
C291 C290 1.341 . S
C291 C295 1.394 . S
C291 H307 0.930 1_554 S
C292 C290 1.371 . S
C292 C293 1.392 . S
C292 H308 0.931 . S
C293 C292 1.392 . S
C293 C294 1.331 . S
C293 H311 0.932 . S
C294 C293 1.331 . S
C294 C295 1.336 . S
C295 C291 1.394 . S
C295 C294 1.336 . S
C295 H310 0.929 . S
C296 C286 1.386 . S
C296 C289 1.357 . S
C296 H309 0.928 . S
H297 C273 0.931 . S
H298 C275 0.930 . S
H299 C277 0.929 . S
H300 C278 0.931 . S
H301 C280 0.918 1_556 S
H302 C284 0.931 . S
H303 C282 0.931 . S
H304 C286 0.931 . S
H305 C287 0.929 . S
H306 C288 0.930 . S
H307 C291 0.930 1_556 S
H308 C292 0.931 . S
H309 C296 0.928 . S
H310 C295 0.929 . S
H311 C293 0.932 . S
Tb312 C322 2.825 . S
Tb312 O323 2.347 1_455 S
Tb312 O326 2.366 . S
Tb312 O331 2.418 . S
Tb312 O332 2.384 1_565 S
Tb312 O335 2.479 . S
Tb312 O336 2.471 . S
Eu313 O324 2.418 . S
Eu313 O325 2.384 1_545 S
Eu313 O328 2.479 . S
Eu313 O329 2.471 . S
Eu313 O330 2.347 1_655 S
Eu313 O333 2.366 . S
Eu313 C343 2.825 . S
C314 O330 1.259 1_565 S
C314 O331 1.265 . S
C315 O332 1.255 . S
C315 O333 1.265 1_455 S
C316 C318 1.380 . S
C316 C319 1.374 . S
C316 C322 1.507 . S
C317 C318 1.384 . S
C317 C321 1.387 . S
C317 H344 0.930 . S
C318 C316 1.380 . S
C318 C317 1.384 . S
C318 H345 0.931 . S
C319 C316 1.374 . S
C319 C320 1.390 . S
C319 H346 0.930 1_455 S
C320 C319 1.390 . S
C320 C321 1.391 . S
C320 H347 0.930 1_455 S
C321 C317 1.387 . S
C321 C320 1.391 . S
C322 Tb312 2.825 . S
C322 C316 1.507 . S
C322 O335 1.238 . S
C322 O336 1.247 . S
O323 Tb312 2.347 1_655 S
O323 C327 1.259 1_565 S
O324 Eu313 2.418 . S
O324 C327 1.265 . S
O325 Eu313 2.384 1_565 S
O325 C334 1.255 . S
O326 Tb312 2.366 . S
O326 C334 1.265 1_455 S
C327 O323 1.259 1_545 S
C327 O324 1.265 . S
O328 Eu313 2.479 . S
O328 C343 1.238 . S
O329 Eu313 2.471 . S
O329 C343 1.247 . S
O330 Eu313 2.347 1_455 S
O330 C314 1.259 1_545 S
O331 Tb312 2.418 . S
O331 C314 1.265 . S
O332 Tb312 2.384 1_545 S
O332 C315 1.255 . S
O333 Eu313 2.366 . S
O333 C315 1.265 1_655 S
C334 O325 1.255 . S
C334 O326 1.265 1_655 S
O335 Tb312 2.479 . S
O335 C322 1.238 . S
O336 Tb312 2.471 . S
O336 C322 1.247 . S
C337 C340 1.380 . S
C337 C341 1.374 . S
C337 C343 1.507 . S
C338 C339 1.387 . S
C338 C342 1.391 . S
C339 C338 1.387 . S
C339 C340 1.384 . S
C339 H348 0.930 . S
C340 C337 1.380 . S
C340 C339 1.384 . S
C340 H349 0.931 . S
C341 C337 1.374 . S
C341 C342 1.390 . S
C341 H350 0.930 1_655 S
C342 C338 1.391 . S
C342 C341 1.390 . S
C342 H351 0.930 1_655 S
C343 Eu313 2.825 . S
C343 O328 1.238 . S
C343 O329 1.247 . S
C343 C337 1.507 . S
H344 C317 0.930 . S
H345 C318 0.931 . S
H346 C319 0.930 1_655 S
H347 C320 0.930 1_655 S
H348 C339 0.930 . S
H349 C340 0.931 . S
H350 C341 0.930 1_455 S
H351 C342 0.930 1_455 S
Tb352 C362 2.825 . S
Tb352 O363 2.347 1_545 S
Tb352 O366 2.366 . S
Tb352 O371 2.418 . S
Tb352 O372 2.384 . S
Tb352 O375 2.479 . S
Tb352 O376 2.471 . S
Eu353 O364 2.418 . S
Eu353 O365 2.384 . S
Eu353 O368 2.479 . S
Eu353 O369 2.471 . S
Eu353 O370 2.347 1_565 S
Eu353 O373 2.366 . S
Eu353 C383 2.825 . S
C354 O370 1.259 . S
C354 O371 1.265 . S
C355 O372 1.255 . S
C355 O373 1.265 1_545 S
C356 C358 1.380 . S
C356 C359 1.374 . S
C356 C362 1.507 . S
C357 C358 1.384 . S
C357 C361 1.387 . S
C357 H384 0.930 . S
C358 C356 1.380 . S
C358 C357 1.384 . S
C358 H385 0.931 . S
C359 C356 1.374 . S
C359 C360 1.390 . S
C359 H386 0.930 1_545 S
C360 C359 1.390 . S
C360 C361 1.391 . S
C360 H387 0.930 1_545 S
C361 C357 1.387 . S
C361 C360 1.391 . S
C362 Tb352 2.825 . S
C362 C356 1.507 . S
C362 O375 1.238 . S
C362 O376 1.247 . S
O363 Tb352 2.347 1_565 S
O363 C367 1.259 . S
O364 Eu353 2.418 . S
O364 C367 1.265 . S
O365 Eu353 2.384 . S
O365 C374 1.255 . S
O366 Tb352 2.366 . S
O366 C374 1.265 1_545 S
C367 O363 1.259 . S
C367 O364 1.265 . S
O368 Eu353 2.479 . S
O368 C383 1.238 . S
O369 Eu353 2.471 . S
O369 C383 1.247 . S
O370 Eu353 2.347 1_545 S
O370 C354 1.259 . S
O371 Tb352 2.418 . S
O371 C354 1.265 . S
O372 Tb352 2.384 . S
O372 C355 1.255 . S
O373 Eu353 2.366 . S
O373 C355 1.265 1_565 S
C374 O365 1.255 . S
C374 O366 1.265 1_565 S
O375 Tb352 2.479 . S
O375 C362 1.238 . S
O376 Tb352 2.471 . S
O376 C362 1.247 . S
C377 C380 1.380 . S
C377 C381 1.374 . S
C377 C383 1.507 . S
C378 C379 1.387 . S
C378 C382 1.391 . S
C379 C378 1.387 . S
C379 C380 1.384 . S
C379 H388 0.930 . S
C380 C377 1.380 . S
C380 C379 1.384 . S
C380 H389 0.931 . S
C381 C377 1.374 . S
C381 C382 1.390 . S
C381 H390 0.930 1_565 S
C382 C378 1.391 . S
C382 C381 1.390 . S
C382 H391 0.930 1_565 S
C383 Eu353 2.825 . S
C383 O368 1.238 . S
C383 O369 1.247 . S
C383 C377 1.507 . S
H384 C357 0.930 . S
H385 C358 0.931 . S
H386 C359 0.930 1_565 S
H387 C360 0.930 1_565 S
H388 C379 0.930 . S
H389 C380 0.931 . S
H390 C381 0.930 1_545 S
H391 C382 0.930 1_545 S
Tb392 C402 2.825 . S
Tb392 O403 2.347 . S
Tb392 O406 2.366 . S
Tb392 O411 2.418 . S
Tb392 O412 2.384 . S
Tb392 O415 2.479 . S
Tb392 O416 2.471 . S
Eu393 O404 2.418 . S
Eu393 O405 2.384 . S
Eu393 O408 2.479 . S
Eu393 O409 2.471 . S
Eu393 O410 2.347 . S
Eu393 O413 2.366 . S
Eu393 C423 2.825 . S
C394 O410 1.259 . S
C394 O411 1.265 . S
C395 O412 1.255 . S
C395 O413 1.265 . S
C396 C398 1.380 . S
C396 C399 1.374 . S
C396 C402 1.507 . S
C397 C398 1.384 . S
C397 C401 1.387 . S
C397 H424 0.930 . S
C398 C396 1.380 . S
C398 C397 1.384 . S
C398 H425 0.931 . S
C399 C396 1.374 . S
C399 C400 1.390 . S
C399 H426 0.930 . S
C400 C399 1.390 . S
C400 C401 1.391 . S
C400 H427 0.930 . S
C401 C397 1.387 . S
C401 C400 1.391 . S
C402 Tb392 2.825 . S
C402 C396 1.507 . S
C402 O415 1.238 . S
C402 O416 1.247 . S
O403 Tb392 2.347 . S
O403 C407 1.259 . S
O404 Eu393 2.418 . S
O404 C407 1.265 . S
O405 Eu393 2.384 . S
O405 C414 1.255 . S
O406 Tb392 2.366 . S
O406 C414 1.265 . S
C407 O403 1.259 . S
C407 O404 1.265 . S
O408 Eu393 2.479 . S
O408 C423 1.238 . S
O409 Eu393 2.471 . S
O409 C423 1.247 . S
O410 Eu393 2.347 . S
O410 C394 1.259 . S
O411 Tb392 2.418 . S
O411 C394 1.265 . S
O412 Tb392 2.384 . S
O412 C395 1.255 . S
O413 Eu393 2.366 . S
O413 C395 1.265 . S
C414 O405 1.255 . S
C414 O406 1.265 . S
O415 Tb392 2.479 . S
O415 C402 1.238 . S
O416 Tb392 2.471 . S
O416 C402 1.247 . S
C417 C420 1.380 . S
C417 C421 1.374 . S
C417 C423 1.507 . S
C418 C419 1.387 . S
C418 C422 1.391 . S
C419 C418 1.387 . S
C419 C420 1.384 . S
C419 H428 0.930 . S
C420 C417 1.380 . S
C420 C419 1.384 . S
C420 H429 0.931 . S
C421 C417 1.374 . S
C421 C422 1.390 . S
C421 H430 0.930 . S
C422 C418 1.391 . S
C422 C421 1.390 . S
C422 H431 0.930 . S
C423 Eu393 2.825 . S
C423 O408 1.238 . S
C423 O409 1.247 . S
C423 C417 1.507 . S
H424 C397 0.930 . S
H425 C398 0.931 . S
H426 C399 0.930 . S
H427 C400 0.930 . S
H428 C419 0.930 . S
H429 C420 0.931 . S
H430 C421 0.930 . S
H431 C422 0.930 . S
Tb432 C442 2.825 . S
Tb432 O443 2.347 . S
Tb432 O446 2.366 . S
Tb432 O451 2.418 . S
Tb432 O452 2.384 1_655 S
Tb432 O455 2.479 . S
Tb432 O456 2.471 . S
Eu433 O444 2.418 . S
Eu433 O445 2.384 1_455 S
Eu433 O448 2.479 . S
Eu433 O449 2.471 . S
Eu433 O450 2.347 . S
Eu433 O453 2.366 . S
Eu433 C463 2.825 . S
C434 O450 1.259 1_655 S
C434 O451 1.265 . S
C435 O452 1.255 . S
C435 O453 1.265 . S
C436 C438 1.380 . S
C436 C439 1.374 . S
C436 C442 1.507 . S
C437 C438 1.384 . S
C437 C441 1.387 . S
C437 H464 0.930 . S
C438 C436 1.380 . S
C438 C437 1.384 . S
C438 H465 0.931 . S
C439 C436 1.374 . S
C439 C440 1.390 . S
C439 H466 0.930 . S
C440 C439 1.390 . S
C440 C441 1.391 . S
C440 H467 0.930 . S
C441 C437 1.387 . S
C441 C440 1.391 . S
C442 Tb432 2.825 . S
C442 C436 1.507 . S
C442 O455 1.238 . S
C442 O456 1.247 . S
O443 Tb432 2.347 . S
O443 C447 1.259 1_655 S
O444 Eu433 2.418 . S
O444 C447 1.265 . S
O445 Eu433 2.384 1_655 S
O445 C454 1.255 . S
O446 Tb432 2.366 . S
O446 C454 1.265 . S
C447 O443 1.259 1_455 S
C447 O444 1.265 . S
O448 Eu433 2.479 . S
O448 C463 1.238 . S
O449 Eu433 2.471 . S
O449 C463 1.247 . S
O450 Eu433 2.347 . S
O450 C434 1.259 1_455 S
O451 Tb432 2.418 . S
O451 C434 1.265 . S
O452 Tb432 2.384 1_455 S
O452 C435 1.255 . S
O453 Eu433 2.366 . S
O453 C435 1.265 . S
C454 O445 1.255 . S
C454 O446 1.265 . S
O455 Tb432 2.479 . S
O455 C442 1.238 . S
O456 Tb432 2.471 . S
O456 C442 1.247 . S
C457 C460 1.380 . S
C457 C461 1.374 . S
C457 C463 1.507 . S
C458 C459 1.387 . S
C458 C462 1.391 . S
C459 C458 1.387 . S
C459 C460 1.384 . S
C459 H468 0.930 . S
C460 C457 1.380 . S
C460 C459 1.384 . S
C460 H469 0.931 . S
C461 C457 1.374 . S
C461 C462 1.390 . S
C461 H470 0.930 . S
C462 C458 1.391 . S
C462 C461 1.390 . S
C462 H471 0.930 . S
C463 Eu433 2.825 . S
C463 O448 1.238 . S
C463 O449 1.247 . S
C463 C457 1.507 . S
H464 C437 0.930 . S
H465 C438 0.931 . S
H466 C439 0.930 . S
H467 C440 0.930 . S
H468 C459 0.930 . S
H469 C460 0.931 . S
H470 C461 0.930 . S
H471 C462 0.930 . S
H472 C478 0.930 . S
H473 C482 0.930 . S
H474 C487 0.929 . S
H475 C485 0.929 . S
H476 C480 0.929 . S
H477 C486 0.929 . S
C478 H472 0.930 . S
C478 C479 1.392 . S
C478 C486 1.378 . S
C479 C478 1.392 . S
C479 C487 1.408 1_545 S
C480 H476 0.929 . S
C480 C482 1.378 . S
C480 C484 1.358 . S
C481 C484 1.461 1_545 S
C481 C486 1.392 . S
C481 N489 1.385 1_545 S
C482 H473 0.930 . S
C482 C480 1.378 . S
C482 C483 1.368 1_565 S
C483 C482 1.368 1_545 S
C483 C485 1.432 . S
C484 C480 1.358 . S
C484 C481 1.461 1_565 S
C484 N488 1.420 1_565 S
C485 H475 0.929 . S
C485 C483 1.432 . S
C485 N488 1.384 . S
C486 H477 0.929 . S
C486 C478 1.378 . S
C486 C481 1.392 . S
C487 H474 0.929 . S
C487 C479 1.408 1_565 S
C487 N489 1.384 . S
N488 C484 1.420 1_545 S
N488 C485 1.384 . S
N489 C481 1.385 1_565 S
N489 C487 1.384 . S
H490 C496 0.930 . S
H491 C500 0.930 . S
H492 C505 0.929 . S
H493 C503 0.929 . S
H494 C498 0.929 . S
H495 C504 0.929 . S
C496 H490 0.930 . S
C496 C497 1.367 . S
C496 C504 1.378 . S
C497 C496 1.367 . S
C497 C505 1.433 . S
C498 H494 0.929 . S
C498 C500 1.378 . S
C498 C502 1.350 . S
C499 C502 1.463 . S
C499 C504 1.350 . S
C499 N507 1.427 . S
C500 H491 0.930 . S
C500 C498 1.378 . S
C500 C501 1.367 . S
C501 C500 1.367 . S
C501 C503 1.433 . S
C502 C498 1.350 . S
C502 C499 1.463 . S
C502 N506 1.427 . S
C503 H493 0.929 . S
C503 C501 1.433 . S
C503 N506 1.384 . S
C504 H495 0.929 . S
C504 C496 1.378 . S
C504 C499 1.350 . S
C505 H492 0.929 . S
C505 C497 1.433 . S
C505 N507 1.384 . S
N506 C502 1.427 . S
N506 C503 1.384 . S
N507 C499 1.427 . S
N507 C505 1.384 . S
H508 C514 0.930 . S
H509 C518 0.930 . S
H510 C523 0.929 . S
H511 C521 0.929 . S
H512 C516 0.929 . S
H513 C522 0.929 . S
C514 H508 0.930 . S
C514 C515 1.367 . S
C514 C522 1.378 . S
C515 C514 1.367 . S
C515 C523 1.433 . S
C516 H512 0.929 . S
C516 C518 1.378 . S
C516 C520 1.350 . S
C517 C520 1.463 . S
C517 C522 1.350 . S
C517 N525 1.427 . S
C518 H509 0.930 . S
C518 C516 1.378 . S
C518 C519 1.367 . S
C519 C518 1.367 . S
C519 C521 1.433 . S
C520 C516 1.350 . S
C520 C517 1.463 . S
C520 N524 1.427 . S
C521 H511 0.929 . S
C521 C519 1.433 . S
C521 N524 1.384 . S
C522 H513 0.929 . S
C522 C514 1.378 . S
C522 C517 1.350 . S
C523 H510 0.929 . S
C523 C515 1.433 . S
C523 N525 1.384 . S
N524 C520 1.427 . S
N524 C521 1.384 . S
N525 C517 1.427 . S
N525 C523 1.384 . S
H526 C532 0.930 . S
H527 C536 0.930 . S
H528 C541 0.929 . S
H529 C539 0.929 . S
H530 C534 0.929 . S
H531 C540 0.929 . S
C532 H526 0.930 . S
C532 C533 1.385 . S
C532 C540 1.378 . S
C533 C532 1.385 . S
C533 C541 1.416 1_455 S
C534 H530 0.929 . S
C534 C536 1.378 . S
C534 C538 1.344 1_655 S
C535 C538 1.463 . S
C535 C540 1.350 . S
C535 N543 1.427 1_455 S
C536 H527 0.930 . S
C536 C534 1.378 . S
C536 C537 1.346 1_655 S
C537 C536 1.346 1_455 S
C537 C539 1.455 . S
C538 C534 1.344 1_455 S
C538 C535 1.463 . S
C538 N542 1.433 . S
C539 H529 0.929 . S
C539 C537 1.455 . S
C539 N542 1.384 . S
C540 H531 0.929 . S
C540 C532 1.378 . S
C540 C535 1.350 . S
C541 H528 0.929 . S
C541 C533 1.416 1_655 S
C541 N543 1.384 . S
N542 C538 1.433 . S
N542 C539 1.384 . S
N543 C535 1.427 1_655 S
N543 C541 1.384 . S
H544 C550 0.930 . S
H545 C554 0.930 . S
H546 C559 0.929 . S
H547 C557 0.929 . S
H548 C552 0.929 1_554 S
H549 C558 0.929 . S
C550 H544 0.930 . S
C550 C551 1.378 . S
C550 C558 1.378 . S
C551 C550 1.378 . S
C551 C559 1.422 1_565 S
C552 H548 0.929 1_556 S
C552 C554 1.378 . S
C552 C556 1.357 1_556 S
C553 C556 1.476 1_565 S
C553 C558 1.374 . S
C553 N561 1.403 1_565 S
C554 H545 0.930 . S
C554 C552 1.378 . S
C554 C555 1.365 . S
C555 C554 1.365 . S
C555 C557 1.435 1_545 S
C556 C552 1.357 1_554 S
C556 C553 1.476 1_545 S
C556 N560 1.406 1_544 S
C557 H547 0.929 . S
C557 C555 1.435 1_565 S
C557 N560 1.384 . S
C558 H549 0.929 . S
C558 C550 1.378 . S
C558 C553 1.374 . S
C559 H546 0.929 . S
C559 C551 1.422 1_545 S
C559 N561 1.384 . S
N560 C556 1.406 1_566 S
N560 C557 1.384 . S
N561 C553 1.403 1_545 S
N561 C559 1.384 . S
H562 C568 0.930 . S
H563 C572 0.930 . S
H564 C577 0.929 . S
H565 C575 0.929 . S
H566 C570 0.929 . S
H567 C576 0.929 . S
C568 H562 0.930 . S
C568 C569 1.367 . S
C568 C576 1.378 . S
C569 C568 1.367 . S
C569 C577 1.433 . S
C570 H566 0.929 . S
C570 C572 1.378 . S
C570 C574 1.350 1_556 S
C571 C574 1.463 . S
C571 C576 1.350 . S
C571 N579 1.427 . S
C572 H563 0.930 . S
C572 C570 1.378 . S
C572 C573 1.367 . S
C573 C572 1.367 . S
C573 C575 1.433 . S
C574 C570 1.350 1_554 S
C574 C571 1.463 . S
C574 N578 1.427 1_554 S
C575 H565 0.929 . S
C575 C573 1.433 . S
C575 N578 1.384 . S
C576 H567 0.929 . S
C576 C568 1.378 . S
C576 C571 1.350 . S
C577 H564 0.929 . S
C577 C569 1.433 . S
C577 N579 1.384 . S
N578 C574 1.427 1_556 S
N578 C575 1.384 . S
N579 C571 1.427 . S
N579 C577 1.384 . S
H580 C586 0.930 . S
H581 C590 0.930 . S
H582 C595 0.929 . S
H583 C593 0.929 . S
H584 C588 0.929 1_554 S
H585 C594 0.929 . S
C586 H580 0.930 . S
C586 C587 1.367 . S
C586 C594 1.378 . S
C587 C586 1.367 . S
C587 C595 1.433 . S
C588 H584 0.929 1_556 S
C588 C590 1.378 . S
C588 C592 1.350 1_556 S
C589 C592 1.463 . S
C589 C594 1.350 . S
C589 N597 1.427 . S
C590 H581 0.930 . S
C590 C588 1.378 . S
C590 C591 1.367 . S
C591 C590 1.367 . S
C591 C593 1.433 . S
C592 C588 1.350 1_554 S
C592 C589 1.463 . S
C592 N596 1.427 1_554 S
C593 H583 0.929 . S
C593 C591 1.433 . S
C593 N596 1.384 . S
C594 H585 0.929 . S
C594 C586 1.378 . S
C594 C589 1.350 . S
C595 H582 0.929 . S
C595 C587 1.433 . S
C595 N597 1.384 . S
N596 C592 1.427 1_556 S
N596 C593 1.384 . S
N597 C589 1.427 . S
N597 C595 1.384 . S
H598 C604 0.930 . S
H599 C608 0.930 . S
H600 C613 0.929 . S
H601 C611 0.929 . S
H602 C606 0.929 1_554 S
H603 C612 0.929 . S
C604 H598 0.930 . S
C604 C605 1.367 1_455 S
C604 C612 1.378 . S
C605 C604 1.367 1_655 S
C605 C613 1.433 . S
C606 H602 0.929 1_556 S
C606 C608 1.378 . S
C606 C610 1.348 1_556 S
C607 C610 1.475 . S
C607 C612 1.346 1_655 S
C607 N615 1.431 . S
C608 H599 0.930 . S
C608 C606 1.378 . S
C608 C609 1.367 . S
C609 C608 1.367 . S
C609 C611 1.433 1_655 S
C610 C606 1.348 1_554 S
C610 C607 1.475 . S
C610 N614 1.417 1_654 S
C611 H601 0.929 . S
C611 C609 1.433 1_455 S
C611 N614 1.384 . S
C612 H603 0.929 . S
C612 C604 1.378 . S
C612 C607 1.346 1_455 S
C613 H600 0.929 . S
C613 C605 1.433 . S
C613 N615 1.384 . S
N614 C610 1.417 1_456 S
N614 C611 1.384 . S
N615 C607 1.431 . S
N615 C613 1.384 . S
H616 C622 0.930 . S
H617 C626 0.930 . S
H618 C631 0.929 . S
H619 C629 0.929 . S
H620 C624 0.929 . S
H621 C630 0.929 . S
C622 H616 0.930 . S
C622 C623 1.367 . S
C622 C630 1.378 . S
C623 C622 1.367 . S
C623 C631 1.433 1_455 S
C624 H620 0.929 . S
C624 C626 1.378 . S
C624 C628 1.350 . S
C625 C628 1.463 . S
C625 C630 1.350 1_655 S
C625 N633 1.427 . S
C626 H617 0.930 . S
C626 C624 1.378 . S
C626 C627 1.367 . S
C627 C626 1.367 . S
C627 C629 1.433 . S
C628 C624 1.350 . S
C628 C625 1.463 . S
C628 N632 1.427 . S
C629 H619 0.929 . S
C629 C627 1.433 . S
C629 N632 1.384 . S
C630 H621 0.929 . S
C630 C622 1.378 . S
C630 C625 1.350 1_455 S
C631 H618 0.929 . S
C631 C623 1.433 1_655 S
C631 N633 1.384 . S
N632 C628 1.427 . S
N632 C629 1.384 . S
N633 C625 1.427 . S
N633 C631 1.384 . S
H634 C640 0.930 . S
H635 C644 0.904 1_545 S
H636 C649 0.929 . S
H637 C647 0.929 . S
H638 C642 0.929 1_545 S
H639 C648 0.929 . S
C640 H634 0.930 . S
C640 C641 1.367 1_565 S
C640 C648 1.378 . S
C641 C640 1.367 1_545 S
C641 C649 1.433 . S
C642 H638 0.929 1_565 S
C642 C644 1.378 . S
C642 C646 1.350 . S
C643 C646 1.463 . S
C643 C648 1.350 . S
C643 N651 1.427 1_565 S
C644 H635 0.904 1_565 S
C644 C642 1.378 . S
C644 C645 1.367 . S
C645 C644 1.367 . S
C645 C647 1.433 . S
C646 C642 1.350 . S
C646 C643 1.463 . S
C646 N650 1.427 . S
C647 H637 0.929 . S
C647 C645 1.433 . S
C647 N650 1.384 . S
C648 H639 0.929 . S
C648 C640 1.378 . S
C648 C643 1.350 . S
C649 H636 0.929 . S
C649 C641 1.433 . S
C649 N651 1.384 . S
N650 C646 1.427 . S
N650 C647 1.384 . S
N651 C643 1.427 1_545 S
N651 C649 1.384 . S
H652 C658 0.930 . S
H653 C662 0.930 . S
H654 C667 0.929 . S
H655 C665 0.929 . S
H656 C660 0.929 . S
H657 C666 0.929 . S
C658 H652 0.930 . S
C658 C659 1.367 . S
C658 C666 1.378 . S
C659 C658 1.367 . S
C659 C667 1.433 . S
C660 H656 0.929 . S
C660 C662 1.378 . S
C660 C664 1.350 . S
C661 C664 1.463 . S
C661 C666 1.350 . S
C661 N669 1.427 . S
C662 H653 0.930 . S
C662 C660 1.378 . S
C662 C663 1.367 . S
C663 C662 1.367 . S
C663 C665 1.433 . S
C664 C660 1.350 . S
C664 C661 1.463 . S
C664 N668 1.427 . S
C665 H655 0.929 . S
C665 C663 1.433 . S
C665 N668 1.384 . S
C666 H657 0.929 . S
C666 C658 1.378 . S
C666 C661 1.350 . S
C667 H654 0.929 . S
C667 C659 1.433 . S
C667 N669 1.384 . S
N668 C664 1.427 . S
N668 C665 1.384 . S
N669 C661 1.427 . S
N669 C667 1.384 . S
H670 C676 0.930 . S
H671 C680 0.930 . S
H672 C685 0.929 . S
H673 C683 0.929 . S
H674 C678 0.929 . S
H675 C684 0.929 . S
C676 H670 0.930 . S
C676 C677 1.367 . S
C676 C684 1.378 . S
C677 C676 1.367 . S
C677 C685 1.433 . S
C678 H674 0.929 . S
C678 C680 1.378 . S
C678 C682 1.350 . S
C679 C682 1.463 . S
C679 C684 1.350 . S
C679 N687 1.427 . S
C680 H671 0.930 . S
C680 C678 1.378 . S
C680 C681 1.367 . S
C681 C680 1.367 . S
C681 C683 1.433 . S
C682 C678 1.350 . S
C682 C679 1.463 . S
C682 N686 1.427 . S
C683 H673 0.929 . S
C683 C681 1.433 . S
C683 N686 1.384 . S
C684 H675 0.929 . S
C684 C676 1.378 . S
C684 C679 1.350 . S
C685 H672 0.929 . S
C685 C677 1.433 . S
C685 N687 1.384 . S
N686 C682 1.427 . S
N686 C683 1.384 . S
N687 C679 1.427 . S
N687 C685 1.384 . S
H688 C694 0.930 . S
H689 C698 0.930 . S
H690 C703 0.929 . S
H691 C701 0.933 . S
H692 C696 0.929 1_655 S
H693 C702 0.929 . S
C694 H688 0.930 . S
C694 C695 1.367 1_455 S
C694 C702 1.378 . S
C695 C694 1.367 1_655 S
C695 C703 1.433 . S
C696 H692 0.929 1_455 S
C696 C698 1.378 . S
C696 C700 1.350 1_556 S
C697 C700 1.463 . S
C697 C702 1.350 . S
C697 N705 1.427 1_455 S
C698 H689 0.930 . S
C698 C696 1.378 . S
C698 C699 1.367 . S
C699 C698 1.367 . S
C699 C701 1.423 1_556 S
C700 C696 1.350 1_554 S
C700 C697 1.463 . S
C700 N704 1.427 . S
C701 H691 0.933 . S
C701 C699 1.423 1_554 S
C701 N704 1.390 . S
C702 H693 0.929 . S
C702 C694 1.378 . S
C702 C697 1.350 . S
C703 H690 0.929 . S
C703 C695 1.433 . S
C703 N705 1.384 . S
N704 C700 1.427 . S
N704 C701 1.390 . S
N705 C697 1.427 1_655 S
N705 C703 1.384 . S
H706 C712 0.930 . S
H707 C716 0.930 . S
H708 C721 0.929 . S
H709 C719 0.950 . S
H710 C714 0.929 . S
H711 C720 0.929 . S
C712 H706 0.930 . S
C712 C713 1.367 . S
C712 C720 1.378 . S
C713 C712 1.367 . S
C713 C721 1.433 1_565 S
C714 H710 0.929 . S
C714 C716 1.378 . S
C714 C718 1.350 1_556 S
C715 C718 1.463 . S
C715 C720 1.350 1_545 S
C715 N723 1.427 . S
C716 H707 0.930 . S
C716 C714 1.378 . S
C716 C717 1.367 . S
C717 C716 1.367 . S
C717 C719 1.433 . S
C718 C714 1.350 1_554 S
C718 C715 1.463 . S
C718 N722 1.427 . S
C719 H709 0.950 . S
C719 C717 1.433 . S
C719 N722 1.384 1_556 S
C720 H711 0.929 . S
C720 C712 1.378 . S
C720 C715 1.350 1_565 S
C721 H708 0.929 . S
C721 C713 1.433 1_545 S
C721 N723 1.384 . S
N722 C718 1.427 . S
N722 C719 1.384 1_554 S
N723 C715 1.427 . S
N723 C721 1.384 . S
H724 C730 0.930 . S
H725 C734 0.930 . S
H726 C739 0.929 . S
H727 C737 0.929 . S
H728 C732 0.929 . S
H729 C738 0.929 1_556 S
C730 H724 0.930 . S
C730 C731 1.367 . S
C730 C738 1.378 . S
C731 C730 1.367 . S
C731 C739 1.433 . S
C732 H728 0.929 . S
C732 C734 1.378 . S
C732 C736 1.350 . S
C733 C736 1.463 . S
C733 C738 1.350 . S
C733 N741 1.427 . S
C734 H725 0.930 . S
C734 C732 1.378 . S
C734 C735 1.367 1_554 S
C735 C734 1.367 1_556 S
C735 C737 1.433 . S
C736 C732 1.350 . S
C736 C733 1.463 . S
C736 N740 1.427 1_554 S
C737 H727 0.929 . S
C737 C735 1.433 . S
C737 N740 1.384 . S
C738 H729 0.929 1_554 S
C738 C730 1.378 . S
C738 C733 1.350 . S
C739 H726 0.929 . S
C739 C731 1.433 . S
C739 N741 1.384 . S
N740 C736 1.427 1_556 S
N740 C737 1.384 . S
N741 C733 1.427 . S
N741 C739 1.384 . S
H742 C748 0.930 . S
H743 C752 0.930 . S
H744 C757 0.929 . S
H745 C755 0.929 . S
H746 C750 0.929 . S
H747 C756 0.929 1_556 S
C748 H742 0.930 . S
C748 C749 1.367 . S
C748 C756 1.378 . S
C749 C748 1.367 . S
C749 C757 1.433 . S
C750 H746 0.929 . S
C750 C752 1.378 . S
C750 C754 1.350 . S
C751 C754 1.463 . S
C751 C756 1.350 . S
C751 N759 1.427 . S
C752 H743 0.930 . S
C752 C750 1.378 . S
C752 C753 1.367 1_554 S
C753 C752 1.367 1_556 S
C753 C755 1.433 . S
C754 C750 1.350 . S
C754 C751 1.463 . S
C754 N758 1.427 1_554 S
C755 H745 0.929 . S
C755 C753 1.433 . S
C755 N758 1.384 . S
C756 H747 0.929 1_554 S
C756 C748 1.378 . S
C756 C751 1.350 . S
C757 H744 0.929 . S
C757 C749 1.433 . S
C757 N759 1.384 . S
N758 C754 1.427 1_556 S
N758 C755 1.384 . S
N759 C751 1.427 . S
N759 C757 1.384 . S
H760 C766 0.930 . S
H761 C770 0.930 . S
H762 C775 0.929 . S
H763 C773 0.929 . S
H764 C768 0.929 . S
H765 C774 0.929 . S
C766 H760 0.930 . S
C766 C767 1.367 1_655 S
C766 C774 1.378 . S
C767 C766 1.367 1_455 S
C767 C775 1.433 . S
C768 H764 0.929 . S
C768 C770 1.378 . S
C768 C772 1.350 . S
C769 C772 1.463 . S
C769 C774 1.350 1_455 S
C769 N777 1.427 . S
C770 H761 0.930 . S
C770 C768 1.378 . S
C770 C771 1.367 . S
C771 C770 1.367 . S
C771 C773 1.433 1_455 S
C772 C768 1.350 . S
C772 C769 1.463 . S
C772 N776 1.427 1_455 S
C773 H763 0.929 . S
C773 C771 1.433 1_655 S
C773 N776 1.384 . S
C774 H765 0.929 . S
C774 C766 1.378 . S
C774 C769 1.350 1_655 S
C775 H762 0.929 . S
C775 C767 1.433 . S
C775 N777 1.384 . S
N776 C772 1.427 1_655 S
N776 C773 1.384 . S
N777 C769 1.427 . S
N777 C775 1.384 . S
H778 C784 0.930 . S
H779 C788 0.930 . S
H780 C793 0.929 . S
H781 C791 0.929 . S
H782 C786 0.929 . S
H783 C792 0.929 . S
C784 H778 0.930 . S
C784 C785 1.367 . S
C784 C792 1.378 . S
C785 C784 1.367 . S
C785 C793 1.433 1_545 S
C786 H782 0.929 . S
C786 C788 1.378 . S
C786 C790 1.350 1_565 S
C787 C790 1.463 . S
C787 C792 1.350 . S
C787 N795 1.427 1_545 S
C788 H779 0.930 . S
C788 C786 1.378 . S
C788 C789 1.367 1_565 S
C789 C788 1.367 1_545 S
C789 C791 1.433 . S
C790 C786 1.350 1_545 S
C790 C787 1.463 . S
C790 N794 1.427 . S
C791 H781 0.929 . S
C791 C789 1.433 . S
C791 N794 1.384 . S
C792 H783 0.929 . S
C792 C784 1.378 . S
C792 C787 1.350 . S
C793 H780 0.929 . S
C793 C785 1.433 1_565 S
C793 N795 1.384 . S
N794 C790 1.427 . S
N794 C791 1.384 . S
N795 C787 1.427 1_565 S
N795 C793 1.384 . S
H796 C802 0.930 . S
H797 C806 0.930 . S
H798 C811 0.929 . S
H799 C809 0.929 . S
H800 C804 0.929 . S
H801 C810 0.929 . S
C802 H796 0.930 . S
C802 C803 1.367 . S
C802 C810 1.378 . S
C803 C802 1.367 . S
C803 C811 1.433 . S
C804 H800 0.929 . S
C804 C806 1.378 . S
C804 C808 1.350 . S
C805 C808 1.463 . S
C805 C810 1.350 . S
C805 N813 1.427 . S
C806 H797 0.930 . S
C806 C804 1.378 . S
C806 C807 1.367 . S
C807 C806 1.367 . S
C807 C809 1.433 . S
C808 C804 1.350 . S
C808 C805 1.463 . S
C808 N812 1.427 . S
C809 H799 0.929 . S
C809 C807 1.433 . S
C809 N812 1.384 . S
C810 H801 0.929 . S
C810 C802 1.378 . S
C810 C805 1.350 . S
C811 H798 0.929 . S
C811 C803 1.433 . S
C811 N813 1.384 . S
N812 C808 1.427 . S
N812 C809 1.384 . S
N813 C805 1.427 . S
N813 C811 1.384 . S
H814 C820 0.930 . S
H815 C824 0.930 . S
H816 C829 0.929 . S
H817 C827 0.929 . S
H818 C822 0.929 . S
H819 C828 0.929 . S
C820 H814 0.930 . S
C820 C821 1.367 . S
C820 C828 1.378 . S
C821 C820 1.367 . S
C821 C829 1.433 . S
C822 H818 0.929 . S
C822 C824 1.378 . S
C822 C826 1.350 . S
C823 C826 1.463 . S
C823 C828 1.350 . S
C823 N831 1.427 . S
C824 H815 0.930 . S
C824 C822 1.378 . S
C824 C825 1.367 . S
C825 C824 1.367 . S
C825 C827 1.433 . S
C826 C822 1.350 . S
C826 C823 1.463 . S
C826 N830 1.427 . S
C827 H817 0.929 . S
C827 C825 1.433 . S
C827 N830 1.384 . S
C828 H819 0.929 . S
C828 C820 1.378 . S
C828 C823 1.350 . S
C829 H816 0.929 . S
C829 C821 1.433 . S
C829 N831 1.384 . S
N830 C826 1.427 . S
N830 C827 1.384 . S
N831 C823 1.427 . S
N831 C829 1.384 . S
H832 C838 0.930 . S
H833 C842 0.930 . S
H834 C847 0.929 . S
H835 C845 0.929 . S
H836 C840 0.929 . S
H837 C846 0.929 . S
C838 H832 0.930 . S
C838 C839 1.367 . S
C838 C846 1.378 . S
C839 C838 1.367 . S
C839 C847 1.433 1_655 S
C840 H836 0.929 . S
C840 C842 1.378 . S
C840 C844 1.350 1_455 S
C841 C844 1.463 . S
C841 C846 1.350 . S
C841 N849 1.427 1_655 S
C842 H833 0.930 . S
C842 C840 1.378 . S
C842 C843 1.367 1_455 S
C843 C842 1.367 1_655 S
C843 C845 1.433 . S
C844 C840 1.350 1_655 S
C844 C841 1.463 . S
C844 N848 1.427 . S
C845 H835 0.929 . S
C845 C843 1.433 . S
C845 N848 1.384 . S
C846 H837 0.929 . S
C846 C838 1.378 . S
C846 C841 1.350 . S
C847 H834 0.929 . S
C847 C839 1.433 1_455 S
C847 N849 1.384 . S
N848 C844 1.427 . S
N848 C845 1.384 . S
N849 C841 1.427 1_455 S
N849 C847 1.384 . S
H850 C856 0.930 . S
H851 C860 0.930 . S
H852 C865 0.929 . S
H853 C863 0.921 1_545 S
H854 C858 0.929 . S
H855 C864 0.929 . S
C856 H850 0.930 . S
C856 C857 1.367 1_545 S
C856 C864 1.378 . S
C857 C856 1.367 1_565 S
C857 C865 1.433 . S
C858 H854 0.929 . S
C858 C860 1.378 . S
C858 C862 1.350 . S
C859 C862 1.463 . S
C859 C864 1.350 1_565 S
C859 N867 1.427 . S
C860 H851 0.930 . S
C860 C858 1.378 . S
C860 C861 1.367 . S
C861 C860 1.367 . S
C861 C863 1.445 . S
C862 C858 1.350 . S
C862 C859 1.463 . S
C862 N866 1.423 1_565 S
C863 H853 0.921 1_565 S
C863 C861 1.445 . S
C863 N866 1.382 1_565 S
C864 H855 0.929 . S
C864 C856 1.378 . S
C864 C859 1.350 1_545 S
C865 H852 0.929 . S
C865 C857 1.433 . S
C865 N867 1.384 . S
N866 C862 1.423 1_545 S
N866 C863 1.382 1_545 S
N867 C859 1.427 . S
N867 C865 1.384 . S
H868 C874 0.930 . S
H869 C878 0.930 . S
H870 C883 0.929 . S
H871 C881 0.929 . S
H872 C876 0.929 . S
H873 C882 0.929 . S
C874 H868 0.930 . S
C874 C875 1.367 . S
C874 C882 1.378 . S
C875 C874 1.367 . S
C875 C883 1.433 . S
C876 H872 0.929 . S
C876 C878 1.378 . S
C876 C880 1.350 . S
C877 C880 1.463 . S
C877 C882 1.350 . S
C877 N885 1.427 . S
C878 H869 0.930 . S
C878 C876 1.378 . S
C878 C879 1.367 . S
C879 C878 1.367 . S
C879 C881 1.433 . S
C880 C876 1.350 . S
C880 C877 1.463 . S
C880 N884 1.427 . S
C881 H871 0.929 . S
C881 C879 1.433 . S
C881 N884 1.384 . S
C882 H873 0.929 . S
C882 C874 1.378 . S
C882 C877 1.350 . S
C883 H870 0.929 . S
C883 C875 1.433 . S
C883 N885 1.384 . S
N884 C880 1.427 . S
N884 C881 1.384 . S
N885 C877 1.427 . S
N885 C883 1.384 . S
H886 C892 0.930 . S
H887 C896 0.930 . S
H888 C901 0.929 . S
H889 C899 0.929 . S
H890 C894 0.929 . S
H891 C900 0.929 . S
C892 H886 0.930 . S
C892 C893 1.367 . S
C892 C900 1.378 . S
C893 C892 1.367 . S
C893 C901 1.433 . S
C894 H890 0.929 . S
C894 C896 1.378 . S
C894 C898 1.350 . S
C895 C898 1.463 . S
C895 C900 1.350 . S
C895 N903 1.427 . S
C896 H887 0.930 . S
C896 C894 1.378 . S
C896 C897 1.367 . S
C897 C896 1.367 . S
C897 C899 1.433 . S
C898 C894 1.350 . S
C898 C895 1.463 . S
C898 N902 1.427 . S
C899 H889 0.929 . S
C899 C897 1.433 . S
C899 N902 1.384 . S
C900 H891 0.929 . S
C900 C892 1.378 . S
C900 C895 1.350 . S
C901 H888 0.929 . S
C901 C893 1.433 . S
C901 N903 1.384 . S
N902 C898 1.427 . S
N902 C899 1.384 . S
N903 C895 1.427 . S
N903 C901 1.384 . S
C479 C255 2.196 1_545 S
C483 C314 2.377 1_545 S
C501 C354 2.405 . S
C497 C294 2.187 . S
C519 C394 2.394 . S
C515 C177 2.204 . S
C537 C434 2.387 1_455 S
C533 C216 2.199 1_455 S
C555 C327 2.379 . S
C551 C99 2.193 . S
C569 C138 2.194 . S
C573 C367 2.405 . S
C587 C21 2.202 . S
C591 C407 2.393 . S
C605 C60 2.197 . S
C609 C447 2.389 1_655 S
C627 C338 0.384 . S
C623 C196 0.384 1_455 S
C645 C378 0.360 . S
C641 C235 0.378 1_545 S
C663 C418 0.377 . S
C659 C289 0.381 . S
C677 C157 0.367 . S
C681 C458 0.361 . S
C695 C40 0.365 . S
C699 C321 0.355 . S
C717 C361 0.395 . S
C713 C79 0.397 . S
C735 C401 0.373 . S
C731 C133 0.401 . S
C749 C1 0.394 . S
C753 C441 0.382 . S
C767 C211 2.823 . S
C771 C315 3.219 . S
C785 C250 2.802 . S
C789 C355 3.195 . S
C807 C395 3.189 . S
C803 C274 2.798 . S
C825 C435 3.210 . S
C821 C172 2.812 . S
C839 C55 2.835 1_655 S
C843 C334 3.231 . S
C861 C374 3.194 . S
C857 C94 2.791 1_565 S
C879 C414 3.193 . S
C875 C118 2.806 . S
C893 C16 2.812 . S
C897 C454 3.213 . S
