# Generated by pormake.
# Topology nom, (4,4)-cn, num edge types: 1
# Building blocks:
#     Node 0, Type 0, BuildingBlock: MUDLON_clean_linker_0, # of connection points: 4
#     Node 1, Type 0, BuildingBlock: MUDLON_clean_linker_0, # of connection points: 4
#     Node 2, Type 0, BuildingBlock: MUDLON_clean_linker_0, # of connection points: 4
#     Node 3, Type 0, BuildingBlock: MUDLON_clean_linker_0, # of connection points: 4
#     Node 4, Type 0, BuildingBlock: MUDLON_clean_linker_0, # of connection points: 4
#     Node 5, Type 0, BuildingBlock: MUDLON_clean_linker_0, # of connection points: 4
#     Node 6, Type 1, BuildingBlock: QUQFOY_clean_sbu_1, # of connection points: 4
#     Node 7, Type 1, BuildingBlock: QUQFOY_clean_sbu_1, # of connection points: 4
#     Node 8, Type 1, BuildingBlock: QUQFOY_clean_sbu_1, # of connection points: 4
#     Node 9, Type 1, BuildingBlock: QUQFOY_clean_sbu_1, # of connection points: 4
#     Node 10, Type 1, BuildingBlock: QUQFOY_clean_sbu_1, # of connection points: 4
#     Node 11, Type 1, BuildingBlock: QUQFOY_clean_sbu_1, # of connection points: 4
#     Edge 12, Type (0, 1), BuildingBlock: MIFKUJ_clean_linker_0, # of connection points: 2
#     Edge 13, Type (0, 1), BuildingBlock: MIFKUJ_clean_linker_0, # of connection points: 2
#     Edge 14, Type (0, 1), BuildingBlock: MIFKUJ_clean_linker_0, # of connection points: 2
#     Edge 15, Type (0, 1), BuildingBlock: MIFKUJ_clean_linker_0, # of connection points: 2
#     Edge 16, Type (0, 1), BuildingBlock: MIFKUJ_clean_linker_0, # of connection points: 2
#     Edge 17, Type (0, 1), BuildingBlock: MIFKUJ_clean_linker_0, # of connection points: 2
#     Edge 18, Type (0, 1), BuildingBlock: MIFKUJ_clean_linker_0, # of connection points: 2
#     Edge 19, Type (0, 1), BuildingBlock: MIFKUJ_clean_linker_0, # of connection points: 2
#     Edge 20, Type (0, 1), BuildingBlock: MIFKUJ_clean_linker_0, # of connection points: 2
#     Edge 21, Type (0, 1), BuildingBlock: MIFKUJ_clean_linker_0, # of connection points: 2
#     Edge 22, Type (0, 1), BuildingBlock: MIFKUJ_clean_linker_0, # of connection points: 2
#     Edge 23, Type (0, 1), BuildingBlock: MIFKUJ_clean_linker_0, # of connection points: 2
#     Edge 24, Type (0, 1), BuildingBlock: MIFKUJ_clean_linker_0, # of connection points: 2
#     Edge 25, Type (0, 1), BuildingBlock: MIFKUJ_clean_linker_0, # of connection points: 2
#     Edge 26, Type (0, 1), BuildingBlock: MIFKUJ_clean_linker_0, # of connection points: 2
#     Edge 27, Type (0, 1), BuildingBlock: MIFKUJ_clean_linker_0, # of connection points: 2
#     Edge 28, Type (0, 1), BuildingBlock: MIFKUJ_clean_linker_0, # of connection points: 2
#     Edge 29, Type (0, 1), BuildingBlock: MIFKUJ_clean_linker_0, # of connection points: 2
#     Edge 30, Type (0, 1), BuildingBlock: MIFKUJ_clean_linker_0, # of connection points: 2
#     Edge 31, Type (0, 1), BuildingBlock: MIFKUJ_clean_linker_0, # of connection points: 2
#     Edge 32, Type (0, 1), BuildingBlock: MIFKUJ_clean_linker_0, # of connection points: 2
#     Edge 33, Type (0, 1), BuildingBlock: MIFKUJ_clean_linker_0, # of connection points: 2
#     Edge 34, Type (0, 1), BuildingBlock: MIFKUJ_clean_linker_0, # of connection points: 2
#     Edge 35, Type (0, 1), BuildingBlock: MIFKUJ_clean_linker_0, # of connection points: 2
# Relax obj value: 0.009
# Max RMSD: 0.104
# Mean RMSD: 0.097
data_MOF--net-nom--node1-QUQFOY_clean_sbu_1--node2-MUDLON_clean_linker_0--edge1-MIFKUJ_clean_linker_0
_symmetry_space_group_name_H-M    P1
_symmetry_Int_Tables_number       1
_symmetry_cell_setting            triclinic
loop_
_symmetry_equiv_pos_as_xyz
'x, y, z'
_cell_length_a     76.821914
_cell_length_b     77.736174
_cell_length_c     69.995914
_cell_angle_alpha  90.339372
_cell_angle_beta   89.853002
_cell_angle_gamma 120.39738
loop_
_atom_site_label
_atom_site_type_symbol
_atom_site_fract_x
_atom_site_fract_y
_atom_site_fract_z
_atom_type_partial_charge
H0 H 0.09635 0.56877 0.30957 0.0
N1 N 0.07577 0.58639 0.32396 0.0
H2 H 0.12366 0.5833 0.28653 0.0
H3 H 0.08633 0.61814 0.30234 0.0
H4 H 0.11389 0.63289 0.27898 0.0
H5 H 0.09258 0.61684 0.34822 0.0
H6 H 0.11296 0.62037 0.37634 0.0
H7 H 0.08064 0.55691 0.33962 0.0
H8 H 0.10193 0.56061 0.36696 0.0
H9 H 0.06179 0.55016 0.30565 0.0
H10 H 0.04334 0.58594 0.33741 0.0
H11 H 0.02681 0.52386 0.30243 0.0
H12 H 0.00817 0.55916 0.33514 0.0
H13 H 0.91119 0.4395 0.29542 0.0
H14 H 0.89441 0.42909 0.26438 0.0
H15 H 0.92142 0.4909 0.24795 0.0
H16 H 0.93752 0.50113 0.27904 0.0
H17 H 0.91187 0.49684 0.30479 0.0
H18 H 0.88219 0.49137 0.32239 0.0
H19 H 0.88639 0.44852 0.35815 0.0
H20 H 0.9166 0.45444 0.34059 0.0
H21 H 0.96387 0.47238 0.31497 0.0
H22 H 0.99904 0.49875 0.31921 0.0
H23 H 0.98115 0.54306 0.31363 0.0
N24 N 0.93195 0.4763 0.30932 0.0
H25 H 0.94621 0.51674 0.31043 0.0
C26 C 0.08912 0.59236 0.30769 0.0
C27 C 0.09952 0.58241 0.3026 0.0
C28 C 0.11522 0.59076 0.28933 0.0
C29 C 0.12102 0.6093 0.281 0.0
C30 C 0.10988 0.61866 0.28529 0.0
C31 C 0.09406 0.61021 0.29849 0.0
C32 C 0.08531 0.58678 0.34176 0.0
C33 C 0.09428 0.60441 0.35254 0.0
C34 C 0.10611 0.60645 0.36844 0.0
C35 C 0.10947 0.59092 0.37374 0.0
C36 C 0.09964 0.57286 0.3634 0.0
C37 C 0.08756 0.57075 0.34763 0.0
C38 C 0.05525 0.57031 0.32156 0.0
C39 C 0.05029 0.55245 0.31198 0.0
C40 C 0.03014 0.5372 0.31033 0.0
C41 C 0.01454 0.53931 0.31849 0.0
C42 C 0.01966 0.5571 0.32832 0.0
C43 C 0.03976 0.5724 0.32974 0.0
C44 C 0.92563 0.47101 0.2897 0.0
C45 C 0.91383 0.45075 0.28493 0.0
C46 C 0.90429 0.44485 0.26716 0.0
C47 C 0.90641 0.45918 0.25374 0.0
C48 C 0.91918 0.47949 0.25811 0.0
C49 C 0.92862 0.48537 0.27591 0.0
C50 C 0.91657 0.47603 0.32141 0.0
C51 C 0.90685 0.48669 0.31672 0.0
C52 C 0.88968 0.48337 0.32668 0.0
C53 C 0.88177 0.4693 0.34148 0.0
C54 C 0.89216 0.45952 0.34689 0.0
C55 C 0.9094 0.46287 0.33689 0.0
C56 C 0.95235 0.49243 0.31235 0.0
C57 C 0.9676 0.48781 0.31483 0.0
C58 C 0.98771 0.50293 0.31707 0.0
C59 C 0.99305 0.52312 0.31666 0.0
C60 C 0.97766 0.52772 0.31432 0.0
C61 C 0.95753 0.51258 0.31233 0.0
H62 H 0.47711 0.91959 0.4738 0.0
N63 N 0.46522 0.9449 0.46413 0.0
H64 H 0.45995 0.89094 0.49489 0.0
H65 H 0.43457 0.93795 0.48937 0.0
H66 H 0.41799 0.91005 0.51112 0.0
H67 H 0.42571 0.9259 0.45278 0.0
H68 H 0.41218 0.90764 0.42288 0.0
H69 H 0.48602 0.94337 0.43453 0.0
H70 H 0.47261 0.92457 0.40479 0.0
H71 H 0.50136 0.97684 0.46909 0.0
H72 H 0.43841 0.95849 0.46435 0.0
H73 H 0.50998 0.0116 0.47153 0.0
H74 H 0.4465 0.99274 0.46851 0.0
H75 H 0.5347 0.10805 0.49219 0.0
H76 H 0.54717 0.1251 0.52252 0.0
H77 H 0.48584 0.09946 0.54293 0.0
H78 H 0.4734 0.08313 0.51183 0.0
H79 H 0.4818 0.10928 0.46937 0.0
H80 H 0.49866 0.13765 0.44783 0.0
H81 H 0.5447 0.12253 0.43663 0.0
H82 H 0.5278 0.0943 0.45856 0.0
H83 H 0.518 0.06986 0.49419 0.0
H84 H 0.5103 0.03578 0.49046 0.0
H85 H 0.45946 0.02327 0.45443 0.0
N86 N 0.49512 0.08567 0.48109 0.0
H87 H 0.46634 0.05719 0.45973 0.0
C88 C 0.45728 0.93102 0.47983 0.0
C89 C 0.46449 0.91783 0.48227 0.0
C90 C 0.45465 0.90145 0.49441 0.0
C91 C 0.43737 0.89796 0.50462 0.0
C92 C 0.43095 0.91197 0.50316 0.0
C93 C 0.44066 0.9282 0.49078 0.0
C94 C 0.45696 0.93609 0.4458 0.0
C95 C 0.43609 0.92613 0.44218 0.0
C96 C 0.42835 0.91549 0.42515 0.0
C97 C 0.44129 0.91452 0.41148 0.0
C98 C 0.46222 0.9252 0.41486 0.0
C99 C 0.46993 0.93589 0.43185 0.0
C100 C 0.46929 0.96499 0.46699 0.0
C101 C 0.48936 0.98031 0.46905 0.0
C102 C 0.49422 1.0002 0.47055 0.0
C103 C 0.47897 0.00522 0.47036 0.0
C104 C 0.45877 0.98969 0.46841 0.0
C105 C 0.45402 0.96987 0.46642 0.0
C106 C 0.503 0.09446 0.49961 0.0
C107 C 0.52387 0.10609 0.5031 0.0
C108 C 0.53102 0.11568 0.52064 0.0
C109 C 0.51753 0.11372 0.53524 0.0
C110 C 0.49666 0.10158 0.53192 0.0
C111 C 0.48951 0.0921 0.51424 0.0
C112 C 0.50349 0.09973 0.4656 0.0
C113 C 0.49524 0.11182 0.46187 0.0
C114 C 0.50491 0.128 0.4495 0.0
C115 C 0.52313 0.13246 0.44055 0.0
C116 C 0.53084 0.11965 0.44348 0.0
C117 C 0.5211 0.10341 0.45588 0.0
C118 C 0.49241 0.06611 0.47756 0.0
C119 C 0.50509 0.05987 0.4856 0.0
C120 C 0.50076 0.04022 0.48323 0.0
C121 C 0.48406 0.02644 0.47228 0.0
C122 C 0.47206 0.0331 0.46347 0.0
C123 C 0.47611 0.0526 0.46626 0.0
H124 H 0.44672 0.54527 0.64888 0.0
N125 N 0.4287 0.50463 0.65224 0.0
H126 H 0.43693 0.56281 0.62676 0.0
H127 H 0.40584 0.48943 0.62128 0.0
H128 H 0.39674 0.50705 0.59816 0.0
H129 H 0.3929 0.49183 0.66831 0.0
H130 H 0.38543 0.50476 0.69719 0.0
H131 H 0.45663 0.53075 0.67826 0.0
H132 H 0.44935 0.54311 0.7073 0.0
H133 H 0.46888 0.53119 0.64588 0.0
H134 H 0.42539 0.4691 0.65481 0.0
H135 H 0.49597 0.5236 0.6451 0.0
H136 H 0.45226 0.46105 0.65296 0.0
H137 H 0.57633 0.48659 0.62896 0.0
H138 H 0.58391 0.47675 0.59825 0.0
H139 H 0.52 0.44017 0.58676 0.0
H140 H 0.51264 0.44952 0.6178 0.0
H141 H 0.51449 0.43261 0.64672 0.0
H142 H 0.52063 0.40895 0.66393 0.0
H143 H 0.57387 0.45793 0.68959 0.0
H144 H 0.56766 0.48159 0.67217 0.0
H145 H 0.53772 0.50138 0.62618 0.0
H146 H 0.51072 0.50906 0.62703 0.0
H147 H 0.47988 0.46367 0.66987 0.0
N148 N 0.5403 0.47301 0.64495 0.0
H149 H 0.50619 0.45536 0.66834 0.0
C150 C 0.42666 0.51588 0.63696 0.0
C151 C 0.43604 0.53681 0.63769 0.0
C152 C 0.4305 0.5469 0.62486 0.0
C153 C 0.41573 0.53636 0.6108 0.0
C154 C 0.40773 0.51563 0.60911 0.0
C155 C 0.41307 0.50552 0.62215 0.0
C156 C 0.42523 0.51015 0.67101 0.0
C157 C 0.40527 0.50273 0.677 0.0
C158 C 0.40105 0.51013 0.69353 0.0
C159 C 0.4168 0.52513 0.70447 0.0
C160 C 0.43685 0.53184 0.69899 0.0
C161 C 0.44104 0.52454 0.68241 0.0
C162 C 0.44505 0.50065 0.65053 0.0
C163 C 0.46511 0.51586 0.64746 0.0
C164 C 0.48063 0.51143 0.64688 0.0
C165 C 0.47641 0.49167 0.64901 0.0
C166 C 0.45622 0.47648 0.65168 0.0
C167 C 0.44078 0.48099 0.65254 0.0
C168 C 0.54403 0.46892 0.62566 0.0
C169 C 0.56401 0.4767 0.61965 0.0
C170 C 0.56827 0.47109 0.60206 0.0
C171 C 0.55255 0.4576 0.59003 0.0
C172 C 0.53247 0.45032 0.59579 0.0
C173 C 0.52823 0.45581 0.61347 0.0
C174 C 0.54074 0.45896 0.65811 0.0
C175 C 0.52724 0.43829 0.65634 0.0
C176 C 0.53081 0.42477 0.66613 0.0
C177 C 0.54787 0.4316 0.6779 0.0
C178 C 0.56053 0.45224 0.6807 0.0
C179 C 0.55701 0.46577 0.67081 0.0
C180 C 0.52402 0.47734 0.64662 0.0
C181 C 0.52503 0.49291 0.63563 0.0
C182 C 0.50963 0.49745 0.63629 0.0
C183 C 0.49293 0.4869 0.64841 0.0
C184 C 0.49219 0.47176 0.65995 0.0
C185 C 0.50748 0.46701 0.65908 0.0
H186 H 0.10351 0.58023 0.8133 0.0
N187 N 0.07746 0.54513 0.79838 0.0
H188 H 0.13112 0.58793 0.83518 0.0
H189 H 0.08287 0.51754 0.81797 0.0
H190 H 0.10961 0.52489 0.8408 0.0
H191 H 0.09393 0.52466 0.78174 0.0
H192 H 0.11277 0.53299 0.75195 0.0
H193 H 0.08288 0.57322 0.77381 0.0
H194 H 0.10304 0.58274 0.74464 0.0
H195 H 0.04701 0.5494 0.80999 0.0
H196 H 0.06102 0.50508 0.79054 0.0
H197 H 0.01142 0.52363 0.81294 0.0
H198 H 0.02583 0.47926 0.79399 0.0
H199 H 0.91765 0.45828 0.82553 0.0
H200 H 0.89762 0.45448 0.85392 0.0
H201 H 0.90753 0.40756 0.87375 0.0
H202 H 0.9271 0.41108 0.8448 0.0
H203 H 0.91066 0.39782 0.80353 0.0
H204 H 0.88204 0.385 0.78162 0.0
H205 H 0.89634 0.4453 0.76991 0.0
H206 H 0.9249 0.45795 0.79206 0.0
H207 H 0.95573 0.46943 0.83763 0.0
H208 H 0.98998 0.49569 0.83254 0.0
H209 H 0.9928 0.46674 0.78075 0.0
N210 N 0.93379 0.43518 0.81537 0.0
H211 H 0.95827 0.43976 0.78609 0.0
C212 C 0.09103 0.54839 0.814 0.0
C213 C 0.10457 0.56808 0.81958 0.0
C214 C 0.12032 0.57242 0.8322 0.0
C215 C 0.12277 0.55706 0.83982 0.0
C216 C 0.10849 0.53717 0.83498 0.0
C217 C 0.09293 0.53289 0.82204 0.0
C218 C 0.08662 0.54812 0.7798 0.0
C219 C 0.09517 0.53687 0.77337 0.0
C220 C 0.10635 0.54195 0.75645 0.0
C221 C 0.10968 0.5587 0.74586 0.0
C222 C 0.10059 0.56956 0.75213 0.0
C223 C 0.08911 0.56422 0.76886 0.0
C224 C 0.05675 0.5293 0.80014 0.0
C225 C 0.04241 0.53409 0.80647 0.0
C226 C 0.02211 0.51933 0.80821 0.0
C227 C 0.01571 0.49932 0.80372 0.0
C228 C 0.03013 0.49453 0.7973 0.0
C229 C 0.05042 0.50935 0.79547 0.0
C230 C 0.9238 0.43483 0.83301 0.0
C231 C 0.91554 0.44719 0.83596 0.0
C232 C 0.90425 0.44513 0.85234 0.0
C233 C 0.90091 0.43066 0.86608 0.0
C234 C 0.9096 0.41867 0.86331 0.0
C235 C 0.92092 0.42075 0.84691 0.0
C236 C 0.91982 0.42874 0.79952 0.0
C237 C 0.90792 0.40826 0.79582 0.0
C238 C 0.89159 0.40099 0.78326 0.0
C239 C 0.88678 0.41412 0.77412 0.0
C240 C 0.89946 0.43478 0.77695 0.0
C241 C 0.91586 0.44205 0.78952 0.0
C242 C 0.95367 0.45244 0.81188 0.0
C243 C 0.96319 0.46859 0.82487 0.0
C244 C 0.98309 0.48386 0.82198 0.0
C245 C 0.9942 0.48346 0.80619 0.0
C246 C 0.98478 0.46748 0.79317 0.0
C247 C 0.96488 0.45214 0.79609 0.0
H248 H 0.57207 0.10513 0.97461 0.0
N249 N 0.59045 0.08334 0.9672 0.0
H250 H 0.58353 0.13246 0.99726 0.0
H251 H 0.61673 0.09191 0.99548 0.0
H252 H 0.62761 0.11864 0.01924 0.0
H253 H 0.62434 0.10573 0.94795 0.0
H254 H 0.62876 0.1253 0.91922 0.0
H255 H 0.56008 0.08194 0.94548 0.0
H256 H 0.56425 0.10094 0.91649 0.0
H257 H 0.55301 0.06905 0.98379 0.0
H258 H 0.59089 0.05154 0.95407 0.0
H259 H 0.52635 0.03436 0.9858 0.0
H260 H 0.56377 0.01675 0.95496 0.0
H261 H 0.44104 0.91963 0.98976 0.0
H262 H 0.42998 0.90261 0.0204 0.0
H263 H 0.49216 0.93053 0.03879 0.0
H264 H 0.50305 0.94664 0.00799 0.0
H265 H 0.49892 0.92065 0.98171 0.0
H266 H 0.49268 0.89081 0.96439 0.0
H267 H 0.44991 0.89563 0.92817 0.0
H268 H 0.45663 0.92592 0.94541 0.0
H269 H 0.47493 0.97257 0.97123 0.0
H270 H 0.50181 0.00735 0.96816 0.0
H271 H 0.54626 0.98931 0.9749 0.0
N272 N 0.47856 0.94087 0.97693 0.0
H273 H 0.51943 0.95473 0.9768 0.0
C274 C 0.59386 0.09666 0.98308 0.0
C275 C 0.58403 0.10777 0.98442 0.0
C276 C 0.59052 0.12337 0.99761 0.0
C277 C 0.60677 0.12806 0.00998 0.0
C278 C 0.61542 0.11584 0.00963 0.0
C279 C 0.6091 0.10039 0.99622 0.0
C280 C 0.59198 0.09234 0.94883 0.0
C281 C 0.61117 0.10439 0.94091 0.0
C282 C 0.61362 0.11551 0.92449 0.0
C283 C 0.59685 0.11476 0.91561 0.0
C284 C 0.5775 0.10208 0.92315 0.0
C285 C 0.57507 0.09102 0.93962 0.0
C286 C 0.57423 0.06294 0.96903 0.0
C287 C 0.55567 0.05778 0.97769 0.0
C288 C 0.54023 0.03782 0.9786 0.0
C289 C 0.5428 0.02259 0.97055 0.0
C290 C 0.5613 0.02791 0.96169 0.0
C291 C 0.57681 0.04781 0.96106 0.0
C292 C 0.47279 0.93445 0.99642 0.0
C293 C 0.45222 0.92239 0.00059 0.0
C294 C 0.44595 0.91272 0.01816 0.0
C295 C 0.46019 0.91504 0.03204 0.0
C296 C 0.48079 0.92809 0.02829 0.0
C297 C 0.48705 0.93757 0.01063 0.0
C298 C 0.47826 0.92564 0.96479 0.0
C299 C 0.48869 0.91574 0.96968 0.0
C300 C 0.4849 0.89847 0.95991 0.0
C301 C 0.47057 0.89068 0.94509 0.0
C302 C 0.46111 0.90129 0.93944 0.0
C303 C 0.46493 0.9186 0.94924 0.0
C304 C 0.49502 0.96101 0.97429 0.0
C305 C 0.49051 0.97619 0.97183 0.0
C306 C 0.50593 0.99609 0.97029 0.0
C307 C 0.52632 0.00129 0.97145 0.0
C308 C 0.5308 0.98595 0.97367 0.0
C309 C 0.51536 0.96603 0.9749 0.0
H310 H 0.53982 0.45849 0.11972 0.0
N311 N 0.55021 0.48691 0.1458 0.0
H312 H 0.56232 0.45116 0.10136 0.0
H313 H 0.59103 0.51185 0.14192 0.0
H314 H 0.61354 0.50585 0.12234 0.0
H315 H 0.57582 0.51388 0.17218 0.0
H316 H 0.58458 0.50604 0.2033 0.0
H317 H 0.53395 0.45147 0.16222 0.0
H318 H 0.54284 0.44337 0.19299 0.0
H319 H 0.51554 0.48319 0.15704 0.0
H320 H 0.57215 0.52514 0.13068 0.0
H321 H 0.50505 0.50801 0.15614 0.0
H322 H 0.56148 0.5495 0.129 0.0
H323 H 0.4689 0.5664 0.1244 0.0
H324 H 0.45338 0.56838 0.09503 0.0
H325 H 0.51129 0.61607 0.07564 0.0
H326 H 0.52697 0.61289 0.10473 0.0
H327 H 0.52301 0.62709 0.14601 0.0
H328 H 0.50691 0.63963 0.16751 0.0
H329 H 0.46071 0.57906 0.18032 0.0
H330 H 0.47683 0.56671 0.15841 0.0
H331 H 0.48395 0.54899 0.13276 0.0
H332 H 0.49441 0.52445 0.13531 0.0
H333 H 0.55543 0.57148 0.14744 0.0
N334 N 0.50865 0.58985 0.13463 0.0
H335 H 0.54489 0.59618 0.14381 0.0
C336 C 0.56357 0.48585 0.13191 0.0
C337 C 0.55588 0.46909 0.11993 0.0
C338 C 0.56886 0.46498 0.1094 0.0
C339 C 0.58994 0.47778 0.1104 0.0
C340 C 0.5975 0.4953 0.1215 0.0
C341 C 0.58454 0.49906 0.13244 0.0
C342 C 0.55415 0.48317 0.16498 0.0
C343 C 0.56838 0.49851 0.17681 0.0
C344 C 0.57346 0.49398 0.19451 0.0
C345 C 0.56444 0.47406 0.20064 0.0
C346 C 0.54984 0.45888 0.18891 0.0
C347 C 0.54477 0.46343 0.17129 0.0
C348 C 0.54459 0.50201 0.14399 0.0
C349 C 0.52563 0.49766 0.15089 0.0
C350 C 0.51962 0.51187 0.15027 0.0
C351 C 0.53239 0.53084 0.14248 0.0
C352 C 0.55137 0.5352 0.13544 0.0
C353 C 0.55748 0.52104 0.13628 0.0
C354 C 0.49929 0.58928 0.11664 0.0
C355 C 0.47844 0.57682 0.11362 0.0
C356 C 0.46946 0.57826 0.09687 0.0
C357 C 0.48099 0.59253 0.08294 0.0
C358 C 0.50193 0.60468 0.08584 0.0
C359 C 0.51095 0.60297 0.10249 0.0
C360 C 0.50118 0.59606 0.15054 0.0
C361 C 0.50974 0.61654 0.15391 0.0
C362 C 0.50049 0.62365 0.16625 0.0
C363 C 0.48238 0.61036 0.17558 0.0
C364 C 0.47447 0.58971 0.17314 0.0
C365 C 0.48377 0.58261 0.16072 0.0
C366 C 0.51374 0.5746 0.13785 0.0
C367 C 0.49957 0.55415 0.13593 0.0
C368 C 0.50559 0.54 0.13758 0.0
C369 C 0.52584 0.5459 0.14145 0.0
C370 C 0.53981 0.56635 0.14402 0.0
C371 C 0.5338 0.58049 0.14217 0.0
O372 O 0.60365 0.37593 0.41634 0.0
Cd373 Cd 0.60979 0.36662 0.39087 0.0
Cd374 Cd 0.64605 0.40114 0.39417 0.0
O375 O 0.63328 0.40339 0.41931 0.0
O376 O 0.58908 0.33785 0.3884 0.0
O377 O 0.62172 0.34876 0.39123 0.0
C378 C 0.60347 0.33394 0.38962 0.0
C379 C 0.6795 0.40848 0.39499 0.0
C380 C 0.61562 0.39165 0.42558 0.0
C381 C 0.62042 0.39722 0.36019 0.0
O382 O 0.63676 0.40804 0.36925 0.0
O383 O 0.60768 0.37994 0.36624 0.0
O384 O 0.67491 0.42221 0.39676 0.0
O385 O 0.66496 0.39028 0.39294 0.0
O386 O 0.25707 0.62529 0.58367 0.0
Cd387 Cd 0.27187 0.62827 0.55823 0.0
Cd388 Cd 0.2726 0.66403 0.55743 0.0
O389 O 0.25573 0.65295 0.58207 0.0
O390 O 0.27825 0.60647 0.55877 0.0
O391 O 0.30181 0.63835 0.55782 0.0
C392 C 0.29712 0.61988 0.55844 0.0
C393 C 0.2988 0.69728 0.55708 0.0
C394 C 0.25135 0.6368 0.5905 0.0
C395 C 0.25177 0.63538 0.52491 0.0
O396 O 0.25796 0.65266 0.53184 0.0
O397 O 0.25544 0.62315 0.53338 0.0
O398 O 0.28013 0.69256 0.55656 0.0
O399 O 0.30272 0.68299 0.55817 0.0
O400 O 0.64266 0.24931 0.74676 0.0
Cd401 Cd 0.64936 0.2654 0.72186 0.0
Cd402 Cd 0.61565 0.26626 0.73112 0.0
O403 O 0.61764 0.25348 0.75621 0.0
O404 O 0.67798 0.2737 0.71637 0.0
O405 O 0.66793 0.29515 0.72317 0.0
C406 C 0.68249 0.29187 0.71938 0.0
C407 C 0.61047 0.29333 0.7318 0.0
C408 C 0.62942 0.24675 0.75912 0.0
C409 C 0.61435 0.24405 0.69531 0.0
O410 O 0.60448 0.24811 0.70731 0.0
O411 O 0.63303 0.2505 0.69788 0.0
O412 O 0.5963 0.27564 0.73625 0.0
O413 O 0.62798 0.29584 0.72752 0.0
O414 O 0.40024 0.64565 0.91143 0.0
Cd415 Cd 0.3913 0.65517 0.88797 0.0
Cd416 Cd 0.35545 0.62154 0.89574 0.0
O417 O 0.37016 0.62153 0.92039 0.0
O418 O 0.41303 0.68337 0.88429 0.0
O419 O 0.38166 0.67471 0.89177 0.0
C420 C 0.4 0.68862 0.88835 0.0
C421 C 0.32217 0.61471 0.89734 0.0
C422 C 0.38907 0.63214 0.92322 0.0
C423 C 0.37668 0.62283 0.85885 0.0
O424 O 0.36274 0.61243 0.8707 0.0
O425 O 0.38921 0.64106 0.86239 0.0
O426 O 0.32659 0.6009 0.89943 0.0
O427 O 0.33685 0.63277 0.89498 0.0
O428 O 0.76341 0.37598 0.03417 0.0
Cd429 Cd 0.7491 0.36529 0.06 0.0
Cd430 Cd 0.75212 0.40276 0.06015 0.0
O431 O 0.76703 0.40602 0.03465 0.0
O432 O 0.74342 0.33732 0.05962 0.0
O433 O 0.71928 0.34477 0.06103 0.0
C434 C 0.72446 0.33135 0.06034 0.0
C435 C 0.72737 0.41174 0.06143 0.0
C436 C 0.76981 0.39293 0.02653 0.0
C437 C 0.77204 0.39356 0.09237 0.0
O438 O 0.76777 0.40588 0.08504 0.0
O439 O 0.766 0.37666 0.08458 0.0
O440 O 0.74632 0.42495 0.06135 0.0
O441 O 0.72233 0.39317 0.06049 0.0
O442 O 0.39836 0.77345 0.19769 0.0
Cd443 Cd 0.39219 0.75729 0.22261 0.0
Cd444 Cd 0.35604 0.75566 0.21945 0.0
O445 O 0.36844 0.77051 0.19433 0.0
O446 O 0.41351 0.75 0.22458 0.0
O447 O 0.38111 0.72762 0.22131 0.0
C448 C 0.39953 0.73157 0.22292 0.0
C449 C 0.32281 0.72911 0.2193 0.0
C450 C 0.38632 0.77697 0.18839 0.0
C451 C 0.38146 0.7771 0.25369 0.0
O452 O 0.36552 0.77227 0.24425 0.0
O453 O 0.39386 0.77194 0.24786 0.0
O454 O 0.327 0.74728 0.2174 0.0
O455 O 0.33765 0.72586 0.22095 0.0
H456 H 0.13459 0.59397 0.25308 0.0
H457 H 0.16821 0.61038 0.23834 0.0
H458 H 0.18398 0.66446 0.26931 0.0
H459 H 0.15068 0.64821 0.28418 0.0
H460 H 0.19109 0.64639 0.21656 0.0
H461 H 0.23048 0.68049 0.28859 0.0
H462 H 0.22435 0.67317 0.323 0.0
H463 H 0.18761 0.61066 0.31045 0.0
H464 H 0.19379 0.61756 0.276 0.0
H465 H 0.28925 0.73071 0.21015 0.0
H466 H 0.25412 0.7054 0.2159 0.0
H467 H 0.27293 0.66548 0.23747 0.0
H468 H 0.30831 0.69085 0.23171 0.0
H469 H 0.24819 0.67006 0.26217 0.0
H470 H 0.24718 0.65413 0.1964 0.0
H471 H 0.25308 0.66063 0.16187 0.0
H472 H 0.21343 0.68448 0.16127 0.0
H473 H 0.20751 0.67839 0.19586 0.0
C474 C 0.14516 0.60943 0.25654 0.0
C475 C 0.14001 0.61978 0.26983 0.0
C476 C 0.16428 0.61879 0.24805 0.0
C477 C 0.17859 0.63852 0.25292 0.0
C478 C 0.17316 0.64916 0.26548 0.0
C479 C 0.15406 0.63989 0.27384 0.0
C480 C 0.19965 0.64774 0.24602 0.0
C481 C 0.20362 0.6515 0.22646 0.0
C482 C 0.21589 0.65394 0.25896 0.0
C483 C 0.21248 0.64957 0.2797 0.0
C484 C 0.2212 0.66517 0.29318 0.0
C485 C 0.21769 0.6611 0.31269 0.0
C486 C 0.20555 0.64147 0.31891 0.0
C487 C 0.19696 0.62586 0.30562 0.0
C488 C 0.20044 0.62985 0.2861 0.0
C489 C 0.28593 0.71643 0.21584 0.0
C490 C 0.30156 0.71281 0.22059 0.0
C491 C 0.26581 0.70193 0.21901 0.0
C492 C 0.2609 0.68352 0.22702 0.0
C493 C 0.27642 0.67958 0.23121 0.0
C494 C 0.2966 0.69406 0.22788 0.0
C495 C 0.23977 0.66936 0.23271 0.0
C496 C 0.23574 0.66472 0.25214 0.0
C497 C 0.22353 0.66224 0.2196 0.0
C498 C 0.227 0.6659 0.19877 0.0
C499 C 0.23983 0.6609 0.18894 0.0
C500 C 0.24316 0.66448 0.16935 0.0
C501 C 0.23366 0.67299 0.15939 0.0
C502 C 0.22078 0.67789 0.169 0.0
C503 C 0.21741 0.67434 0.1886 0.0
H504 H 0.23626 0.67575 0.14422 0.0
H505 H 0.20283 0.63835 0.33402 0.0
H506 H 0.50873 0.14965 0.41586 0.0
H507 H 0.52711 0.18318 0.4026 0.0
H508 H 0.58241 0.1917 0.42716 0.0
H509 H 0.56393 0.15848 0.44121 0.0
H510 H 0.57776 0.22167 0.43621 0.0
H511 H 0.57465 0.18874 0.37789 0.0
H512 H 0.55909 0.16401 0.3519 0.0
H513 H 0.52053 0.18728 0.33812 0.0
H514 H 0.53565 0.21197 0.36421 0.0
H515 H 0.62895 0.31999 0.39823 0.0
H516 H 0.61995 0.2851 0.40208 0.0
H517 H 0.55856 0.26582 0.38605 0.0
H518 H 0.56739 0.30047 0.38211 0.0
H519 H 0.57167 0.24167 0.37052 0.0
H520 H 0.57124 0.27038 0.43222 0.0
H521 H 0.58653 0.2949 0.45844 0.0
H522 H 0.63212 0.279 0.46555 0.0
H523 H 0.61723 0.25456 0.43918 0.0
C524 C 0.52484 0.15858 0.4183 0.0
C525 C 0.5348 0.15139 0.42973 0.0
C526 C 0.5354 0.1777 0.41051 0.0
C527 C 0.55621 0.18998 0.41375 0.0
C528 C 0.56638 0.1825 0.42442 0.0
C529 C 0.5558 0.1634 0.4323 0.0
C530 C 0.56682 0.21121 0.40769 0.0
C531 C 0.57685 0.226 0.4217 0.0
C532 C 0.56535 0.21695 0.38886 0.0
C533 C 0.55621 0.20214 0.37311 0.0
C534 C 0.56275 0.18849 0.36941 0.0
C535 C 0.55402 0.1745 0.35464 0.0
C536 C 0.53881 0.17405 0.34339 0.0
C537 C 0.53231 0.18764 0.34686 0.0
C538 C 0.54098 0.20166 0.36162 0.0
C539 C 0.61361 0.3083 0.39527 0.0
C540 C 0.59884 0.313 0.39005 0.0
C541 C 0.60849 0.28839 0.39751 0.0
C542 C 0.58854 0.27288 0.39452 0.0
C543 C 0.57404 0.27753 0.38841 0.0
C544 C 0.5791 0.29738 0.38628 0.0
C545 C 0.58222 0.2519 0.39911 0.0
C546 C 0.57294 0.23722 0.38487 0.0
C547 C 0.58439 0.24622 0.41771 0.0
C548 C 0.59329 0.26084 0.43359 0.0
C549 C 0.58462 0.27224 0.43928 0.0
C550 C 0.59319 0.2861 0.45418 0.0
C551 C 0.61032 0.28856 0.46361 0.0
C552 C 0.61888 0.27712 0.4582 0.0
C553 C 0.61038 0.26326 0.44328 0.0
H554 H 0.61694 0.29929 0.47515 0.0
H555 H 0.53207 0.16321 0.33196 0.0
H556 H 0.43542 0.57458 0.5963 0.0
H557 H 0.42008 0.59242 0.58195 0.0
H558 H 0.36152 0.53917 0.58507 0.0
H559 H 0.37642 0.52147 0.59999 0.0
H560 H 0.36788 0.5602 0.55077 0.0
H561 H 0.37545 0.57246 0.61946 0.0
H562 H 0.39529 0.58421 0.64923 0.0
H563 H 0.43101 0.64275 0.62544 0.0
H564 H 0.41154 0.63124 0.5954 0.0
H565 H 0.29095 0.58222 0.55944 0.0
H566 H 0.31599 0.57207 0.56252 0.0
H567 H 0.36363 0.63373 0.56229 0.0
H568 H 0.33841 0.64411 0.55951 0.0
H569 H 0.36912 0.61398 0.59036 0.0
H570 H 0.35704 0.6033 0.52389 0.0
H571 H 0.33717 0.59166 0.49416 0.0
H572 H 0.31058 0.53095 0.51273 0.0
H573 H 0.33006 0.54223 0.54271 0.0
C574 C 0.41928 0.56662 0.59388 0.0
C575 C 0.40719 0.54656 0.59947 0.0
C576 C 0.41058 0.57682 0.58557 0.0
C577 C 0.38966 0.56713 0.58257 0.0
C578 C 0.37772 0.54689 0.58716 0.0
C579 C 0.38634 0.53675 0.59562 0.0
C580 C 0.37975 0.57822 0.57611 0.0
C581 C 0.36812 0.57197 0.55937 0.0
C582 C 0.38064 0.59401 0.58705 0.0
C583 C 0.39223 0.60094 0.60512 0.0
C584 C 0.38765 0.58779 0.62053 0.0
C585 C 0.3988 0.59441 0.63745 0.0
C586 C 0.41445 0.6142 0.6392 0.0
C587 C 0.41893 0.62742 0.62404 0.0
C588 C 0.40784 0.62086 0.60707 0.0
C589 C 0.30675 0.59368 0.55987 0.0
C590 C 0.31268 0.614 0.55923 0.0
C591 C 0.32109 0.58783 0.5615 0.0
C592 C 0.34174 0.60211 0.56233 0.0
C593 C 0.34778 0.62244 0.56155 0.0
C594 C 0.33337 0.62835 0.55994 0.0
C595 C 0.35666 0.59556 0.56525 0.0
C596 C 0.36923 0.60261 0.58139 0.0
C597 C 0.3567 0.58056 0.55368 0.0
C598 C 0.34497 0.57364 0.53562 0.0
C599 C 0.34686 0.58747 0.5217 0.0
C600 C 0.33568 0.58093 0.50479 0.0
C601 C 0.32261 0.56058 0.50157 0.0
C602 C 0.32072 0.54672 0.51524 0.0
C603 C 0.33186 0.55318 0.53219 0.0
H604 H 0.31396 0.55555 0.48846 0.0
H605 H 0.42306 0.6193 0.65232 0.0
H606 H 0.86985 0.38234 0.74924 0.0
H607 H 0.83594 0.36616 0.73555 0.0
H608 H 0.82623 0.41144 0.76064 0.0
H609 H 0.85985 0.4273 0.77493 0.0
H610 H 0.79621 0.37536 0.76917 0.0
H611 H 0.83045 0.40815 0.71189 0.0
H612 H 0.85593 0.4185 0.68636 0.0
H613 H 0.83248 0.35727 0.67029 0.0
H614 H 0.80703 0.34651 0.69591 0.0
H615 H 0.69774 0.33082 0.73037 0.0
H616 H 0.73331 0.35615 0.73509 0.0
H617 H 0.75101 0.31479 0.71459 0.0
H618 H 0.71564 0.28954 0.70968 0.0
H619 H 0.7769 0.35255 0.70217 0.0
H620 H 0.74648 0.31981 0.76162 0.0
H621 H 0.72136 0.30856 0.78758 0.0
H622 H 0.7383 0.36928 0.79977 0.0
H623 H 0.76335 0.38086 0.77369 0.0
C624 C 0.86058 0.38897 0.75169 0.0
C625 C 0.86756 0.40608 0.76326 0.0
C626 C 0.84125 0.37981 0.74369 0.0
C627 C 0.82855 0.38765 0.74697 0.0
C628 C 0.83578 0.40516 0.75788 0.0
C629 C 0.85509 0.41432 0.7659 0.0
C630 C 0.80717 0.37654 0.74055 0.0
C631 C 0.79201 0.37079 0.75442 0.0
C632 C 0.80166 0.37011 0.7214 0.0
C633 C 0.81691 0.37652 0.70593 0.0
C634 C 0.83082 0.39687 0.70301 0.0
C635 C 0.84524 0.40282 0.6885 0.0
C636 C 0.84585 0.38855 0.67673 0.0
C637 C 0.832 0.36831 0.67942 0.0
C638 C 0.81755 0.36228 0.69392 0.0
C639 C 0.70923 0.32725 0.72656 0.0
C640 C 0.70386 0.30811 0.71984 0.0
C641 C 0.72954 0.34171 0.72932 0.0
C642 C 0.74479 0.33726 0.72543 0.0
C643 C 0.7395 0.31855 0.7177 0.0
C644 C 0.71924 0.30409 0.71499 0.0
C645 C 0.76609 0.35136 0.73081 0.0
C646 C 0.78118 0.35752 0.71681 0.0
C647 C 0.77161 0.3581 0.74987 0.0
C648 C 0.7566 0.35117 0.76556 0.0
C649 C 0.74472 0.33074 0.76974 0.0
C650 C 0.73052 0.32431 0.78449 0.0
C651 C 0.72819 0.33819 0.79527 0.0
C652 C 0.74009 0.35854 0.79137 0.0
C653 C 0.7543 0.36505 0.77661 0.0
H654 H 0.71719 0.33318 0.80669 0.0
H655 H 0.85703 0.39319 0.66551 0.0
H656 H 0.46322 0.85712 0.96402 0.0
H657 H 0.45184 0.82401 0.95083 0.0
H658 H 0.4517 0.8456 0.89423 0.0
H659 H 0.46309 0.87895 0.90742 0.0
H660 H 0.41837 0.81018 0.89997 0.0
H661 H 0.48915 0.83695 0.90778 0.0
H662 H 0.52174 0.85351 0.92479 0.0
H663 H 0.49846 0.80625 0.96593 0.0
H664 H 0.46562 0.78953 0.94931 0.0
H665 H 0.43572 0.72046 0.87706 0.0
H666 H 0.44776 0.75576 0.88245 0.0
H667 H 0.39125 0.74059 0.90949 0.0
H668 H 0.37889 0.70516 0.90367 0.0
H669 H 0.455 0.77451 0.91461 0.0
H670 H 0.38221 0.77895 0.90574 0.0
H671 H 0.35116 0.76342 0.88628 0.0
H672 H 0.38149 0.75 0.84215 0.0
H673 H 0.41278 0.76568 0.86123 0.0
C674 C 0.46109 0.85494 0.94872 0.0
C675 C 0.46432 0.87075 0.93673 0.0
C676 C 0.45449 0.83596 0.9412 0.0
C677 C 0.45117 0.83237 0.92151 0.0
C678 C 0.45419 0.84804 0.90948 0.0
C679 C 0.46071 0.86708 0.91702 0.0
C680 C 0.44441 0.81216 0.91364 0.0
C681 C 0.4264 0.80238 0.90309 0.0
C682 C 0.4551 0.80212 0.91739 0.0
C683 C 0.47487 0.81206 0.92737 0.0
C684 C 0.49093 0.83015 0.92053 0.0
C685 C 0.50946 0.83956 0.93009 0.0
C686 C 0.51216 0.83096 0.94645 0.0
C687 C 0.49635 0.8129 0.95326 0.0
C688 C 0.47778 0.80344 0.94376 0.0
C689 C 0.42572 0.72463 0.88392 0.0
C690 C 0.40636 0.71001 0.88999 0.0
C691 C 0.43266 0.74484 0.88703 0.0
C692 C 0.42043 0.75089 0.89634 0.0
C693 C 0.40087 0.73634 0.90201 0.0
C694 C 0.39384 0.71608 0.89873 0.0
C695 C 0.42869 0.77229 0.90123 0.0
C696 C 0.447 0.78229 0.91132 0.0
C697 C 0.41848 0.78263 0.89669 0.0
C698 C 0.39978 0.77334 0.88501 0.0
C699 C 0.38227 0.77276 0.89185 0.0
C700 C 0.36463 0.76392 0.88089 0.0
C701 C 0.36433 0.75568 0.86302 0.0
C702 C 0.38171 0.75632 0.85603 0.0
C703 C 0.3994 0.76516 0.86693 0.0
H704 H 0.35066 0.74883 0.85456 0.0
H705 H 0.52652 0.83826 0.95383 0.0
H706 H 0.58462 0.45625 0.0771 0.0
H707 H 0.60621 0.44403 0.06461 0.0
H708 H 0.64901 0.47471 0.10982 0.0
H709 H 0.62711 0.48577 0.12331 0.0
H710 H 0.66203 0.47711 0.06452 0.0
H711 H 0.62836 0.43509 0.12146 0.0
H712 H 0.59736 0.41261 0.13932 0.0
H713 H 0.57417 0.37362 0.09058 0.0
H714 H 0.60495 0.39607 0.07235 0.0
H715 H 0.73328 0.44743 0.07396 0.0
H716 H 0.70838 0.45773 0.07769 0.0
H717 H 0.66208 0.40075 0.05572 0.0
H718 H 0.68697 0.38996 0.05288 0.0
H719 H 0.64726 0.40968 0.08381 0.0
H720 H 0.68248 0.44597 0.02904 0.0
H721 H 0.71156 0.4676 0.00859 0.0
H722 H 0.72951 0.51626 0.04799 0.0
H723 H 0.7007 0.49486 0.06884 0.0
C724 C 0.59852 0.46031 0.08455 0.0
C725 C 0.60394 0.47203 0.10134 0.0
C726 C 0.61091 0.45345 0.07724 0.0
C727 C 0.62913 0.45852 0.08633 0.0
C728 C 0.63502 0.47078 0.10256 0.0
C729 C 0.62248 0.47725 0.11014 0.0
C730 C 0.64172 0.45032 0.07961 0.0
C731 C 0.65895 0.46242 0.06872 0.0
C732 C 0.63712 0.43088 0.08449 0.0
C733 C 0.61878 0.41735 0.09549 0.0
C734 C 0.61655 0.42182 0.1145 0.0
C735 C 0.59905 0.40907 0.12471 0.0
C736 C 0.58377 0.39173 0.11607 0.0
C737 C 0.58599 0.38708 0.09724 0.0
C738 C 0.60346 0.3998 0.08697 0.0
C739 C 0.71782 0.43711 0.06981 0.0
C740 C 0.7121 0.41791 0.06304 0.0
C741 C 0.70358 0.44309 0.0718 0.0
C742 C 0.68336 0.43024 0.06655 0.0
C743 C 0.67758 0.41101 0.05978 0.0
C744 C 0.69181 0.40485 0.05813 0.0
C745 C 0.66825 0.43671 0.06909 0.0
C746 C 0.65041 0.42429 0.0792 0.0
C747 C 0.67211 0.45574 0.06307 0.0
C748 C 0.68947 0.46874 0.05057 0.0
C749 C 0.6927 0.46125 0.03342 0.0
C750 C 0.70913 0.47348 0.02174 0.0
C751 C 0.72239 0.49328 0.027 0.0
C752 C 0.71922 0.50091 0.04394 0.0
C753 C 0.70282 0.48875 0.05567 0.0
H754 H 0.7351 0.50273 0.01794 0.0
H755 H 0.57024 0.38187 0.12399 0.0
H756 H 0.39617 0.87561 0.50754 0.0
H757 H 0.37594 0.84302 0.52217 0.0
H758 H 0.43005 0.84354 0.53935 0.0
H759 H 0.4506 0.87669 0.52537 0.0
H760 H 0.40231 0.80888 0.51932 0.0
H761 H 0.40256 0.8472 0.57298 0.0
H762 H 0.39881 0.87312 0.58974 0.0
H763 H 0.33642 0.84406 0.57334 0.0
H764 H 0.33986 0.81811 0.55624 0.0
H765 H 0.33972 0.71317 0.56112 0.0
H766 H 0.36621 0.74818 0.55749 0.0
H767 H 0.32089 0.76391 0.54578 0.0
H768 H 0.2945 0.72931 0.54999 0.0
H769 H 0.34844 0.79122 0.56747 0.0
H770 H 0.3489 0.75693 0.50977 0.0
H771 H 0.35171 0.73146 0.49105 0.0
H772 H 0.41149 0.75328 0.51298 0.0
H773 H 0.40892 0.77875 0.53201 0.0
C774 C 0.40388 0.86917 0.5149 0.0
C775 C 0.42511 0.87893 0.51525 0.0
C776 C 0.39224 0.85042 0.52317 0.0
C777 C 0.40149 0.8409 0.53189 0.0
C778 C 0.42262 0.85065 0.53264 0.0
C779 C 0.43433 0.86955 0.52455 0.0
C780 C 0.38895 0.82024 0.53904 0.0
C781 C 0.39082 0.80502 0.53017 0.0
C782 C 0.37369 0.81523 0.55286 0.0
C783 C 0.37152 0.83077 0.56321 0.0
C784 C 0.38808 0.84641 0.57282 0.0
C785 C 0.386 0.8611 0.5824 0.0
C786 C 0.3674 0.86026 0.58257 0.0
C787 C 0.35082 0.8447 0.57319 0.0
C788 C 0.35282 0.82998 0.56357 0.0
C789 C 0.33543 0.72415 0.5579 0.0
C790 C 0.31501 0.71844 0.55576 0.0
C791 C 0.35059 0.74414 0.55576 0.0
C792 C 0.34559 0.75869 0.55111 0.0
C793 C 0.32517 0.75302 0.5494 0.0
C794 C 0.31007 0.73316 0.55174 0.0
C795 C 0.36141 0.77975 0.54738 0.0
C796 C 0.36016 0.79506 0.55688 0.0
C797 C 0.37707 0.78484 0.53391 0.0
C798 C 0.37862 0.76956 0.52249 0.0
C799 C 0.36258 0.75619 0.51071 0.0
C800 C 0.36414 0.74177 0.50003 0.0
C801 C 0.38174 0.74071 0.50088 0.0
C802 C 0.39785 0.7541 0.51237 0.0
C803 C 0.39635 0.76852 0.5231 0.0
H804 H 0.38292 0.72954 0.49259 0.0
H805 H 0.36582 0.87165 0.59 0.0
H806 H 0.56084 0.43021 0.7141 0.0
H807 H 0.57184 0.40757 0.72589 0.0
H808 H 0.55955 0.37895 0.67056 0.0
H809 H 0.54816 0.40113 0.65894 0.0
H810 H 0.54719 0.35196 0.69618 0.0
H811 H 0.60835 0.4141 0.68602 0.0
H812 H 0.63203 0.4502 0.68987 0.0
H813 H 0.63525 0.44247 0.7502 0.0
H814 H 0.61136 0.40634 0.74674 0.0
H815 H 0.6328 0.32917 0.71374 0.0
H816 H 0.62276 0.35386 0.70725 0.0
H817 H 0.56851 0.31949 0.74031 0.0
H818 H 0.57813 0.2945 0.74631 0.0
H819 H 0.61442 0.37823 0.72632 0.0
H820 H 0.5294 0.31954 0.71905 0.0
H821 H 0.50771 0.2839 0.71089 0.0
H822 H 0.55575 0.28565 0.67782 0.0
H823 H 0.5776 0.32134 0.68559 0.0
C824 C 0.56043 0.41901 0.70452 0.0
C825 C 0.55354 0.41736 0.68564 0.0
C826 C 0.56679 0.40614 0.71123 0.0
C827 C 0.56676 0.39167 0.69905 0.0
C828 C 0.55963 0.3899 0.68028 0.0
C829 C 0.55306 0.40255 0.67366 0.0
C830 C 0.57422 0.37839 0.70565 0.0
C831 C 0.56186 0.35774 0.70286 0.0
C832 C 0.59351 0.38588 0.71403 0.0
C833 C 0.60791 0.40757 0.71615 0.0
C834 C 0.614 0.42013 0.70013 0.0
C835 C 0.62747 0.44059 0.70224 0.0
C836 C 0.63509 0.44863 0.72028 0.0
C837 C 0.6293 0.43622 0.73624 0.0
C838 C 0.61581 0.41575 0.73421 0.0
C839 C 0.61888 0.32703 0.71984 0.0
C840 C 0.60613 0.30977 0.73031 0.0
C841 C 0.61316 0.34117 0.71615 0.0
C842 C 0.59467 0.33833 0.72296 0.0
C843 C 0.58262 0.32178 0.73453 0.0
C844 C 0.58818 0.30754 0.738 0.0
C845 C 0.58734 0.35186 0.71692 0.0
C846 C 0.59969 0.37249 0.71981 0.0
C847 C 0.56829 0.34445 0.70803 0.0
C848 C 0.55519 0.32304 0.70309 0.0
C849 C 0.53529 0.31232 0.71 0.0
C850 C 0.52298 0.29212 0.70544 0.0
C851 C 0.53037 0.2825 0.6939 0.0
C852 C 0.55006 0.29309 0.68682 0.0
C853 C 0.56242 0.3133 0.69131 0.0
H854 H 0.52082 0.26686 0.69041 0.0
H855 H 0.64552 0.46447 0.72188 0.0
H856 H 0.14321 0.58796 0.86548 0.0
H857 H 0.17588 0.59864 0.88041 0.0
H858 H 0.17621 0.54776 0.85611 0.0
H859 H 0.14423 0.53752 0.84019 0.0
H860 H 0.18979 0.55825 0.89699 0.0
H861 H 0.20014 0.58613 0.83272 0.0
H862 H 0.19514 0.60545 0.80773 0.0
H863 H 0.22078 0.65696 0.84444 0.0
H864 H 0.22564 0.63781 0.86978 0.0
H865 H 0.28917 0.5779 0.89254 0.0
H866 H 0.2543 0.56933 0.88828 0.0
H867 H 0.27161 0.63107 0.89644 0.0
H868 H 0.30696 0.6399 0.89979 0.0
H869 H 0.248 0.61776 0.86804 0.0
H870 H 0.24279 0.59277 0.93062 0.0
H871 H 0.24721 0.57438 0.95694 0.0
H872 H 0.21159 0.51922 0.92659 0.0
H873 H 0.20718 0.5373 0.89996 0.0
C874 C 0.15018 0.579 0.86324 0.0
C875 C 0.14105 0.56196 0.85136 0.0
C876 C 0.16877 0.58506 0.87197 0.0
C877 C 0.17842 0.57401 0.86928 0.0
C878 C 0.16888 0.5564 0.85843 0.0
C879 C 0.15049 0.55052 0.84941 0.0
C880 C 0.19922 0.58164 0.87631 0.0
C881 C 0.2026 0.5712 0.89068 0.0
C882 C 0.21573 0.59894 0.8685 0.0
C883 C 0.21302 0.61049 0.85321 0.0
C884 C 0.20454 0.60152 0.83552 0.0
C885 C 0.20176 0.61245 0.82128 0.0
C886 C 0.20758 0.63241 0.82452 0.0
C887 C 0.21624 0.64149 0.84197 0.0
C888 C 0.21902 0.63061 0.85627 0.0
C889 C 0.28557 0.58966 0.89367 0.0
C890 C 0.30083 0.60959 0.89654 0.0
C891 C 0.26552 0.5847 0.89138 0.0
C892 C 0.26013 0.59946 0.89241 0.0
C893 C 0.27533 0.61937 0.89565 0.0
C894 C 0.29552 0.62441 0.8976 0.0
C895 C 0.23891 0.59417 0.88865 0.0
C896 C 0.23534 0.60502 0.87477 0.0
C897 C 0.22221 0.57742 0.89721 0.0
C898 C 0.22476 0.56643 0.91322 0.0
C899 C 0.23601 0.57673 0.9295 0.0
C900 C 0.23849 0.56636 0.94448 0.0
C901 C 0.22971 0.54565 0.94342 0.0
C902 C 0.21838 0.53526 0.92739 0.0
C903 C 0.21586 0.54557 0.91235 0.0
H904 H 0.23166 0.53765 0.95504 0.0
H905 H 0.20542 0.64084 0.81348 0.0
H906 H 0.58765 0.14554 0.0282 0.0
H907 H 0.60345 0.17884 0.04265 0.0
H908 H 0.66224 0.18616 0.0329 0.0
H909 H 0.64681 0.15346 0.01777 0.0
H910 H 0.6582 0.201 0.06897 0.0
H911 H 0.64475 0.20386 0.00135 0.0
H912 H 0.62239 0.19445 0.97324 0.0
H913 H 0.58719 0.21592 0.00123 0.0
H914 H 0.60919 0.22519 0.02964 0.0
H915 H 0.73183 0.3007 0.05785 0.0
H916 H 0.70753 0.26523 0.05551 0.0
H917 H 0.65858 0.27719 0.0597 0.0
H918 H 0.68305 0.3131 0.06165 0.0
H919 H 0.65177 0.25161 0.03167 0.0
H920 H 0.66916 0.25482 0.09689 0.0
H921 H 0.6913 0.26425 0.12513 0.0
H922 H 0.71822 0.23147 0.10304 0.0
H923 H 0.69646 0.22207 0.07451 0.0
C924 C 0.60394 0.15417 0.02917 0.0
C925 C 0.61591 0.14677 0.0216 0.0
C926 C 0.61292 0.17315 0.03757 0.0
C927 C 0.634 0.18497 0.03871 0.0
C928 C 0.64593 0.1772 0.03224 0.0
C929 C 0.63702 0.15839 0.02366 0.0
C930 C 0.64388 0.20606 0.04504 0.0
C931 C 0.65684 0.21212 0.06087 0.0
C932 C 0.64154 0.2204 0.0348 0.0
C933 C 0.62843 0.21497 0.01769 0.0
C934 C 0.63213 0.20642 0.00156 0.0
C935 C 0.61955 0.20113 0.98558 0.0
C936 C 0.60334 0.20452 0.98548 0.0
C937 C 0.59972 0.21326 0.00135 0.0
C938 C 0.61224 0.21853 0.01739 0.0
C939 C 0.71591 0.29586 0.05844 0.0
C940 C 0.70938 0.30976 0.05995 0.0
C941 C 0.70199 0.27549 0.05725 0.0
C942 C 0.68119 0.26846 0.05778 0.0
C943 C 0.67456 0.28227 0.0594 0.0
C944 C 0.68855 0.30276 0.06053 0.0
C945 C 0.66665 0.24678 0.05535 0.0
C946 C 0.65282 0.24055 0.04018 0.0
C947 C 0.6681 0.23228 0.06631 0.0
C948 C 0.68121 0.23781 0.08349 0.0
C949 C 0.67989 0.24972 0.09798 0.0
C950 C 0.69236 0.25505 0.11406 0.0
C951 C 0.70617 0.24848 0.11587 0.0
C952 C 0.70751 0.23654 0.10162 0.0
C953 C 0.69508 0.23118 0.08551 0.0
H954 H 0.71582 0.25262 0.12832 0.0
H955 H 0.59361 0.20043 0.97308 0.0
H956 H 0.44152 0.59543 0.17557 0.0
H957 H 0.4234 0.61118 0.18845 0.0
H958 H 0.47912 0.65941 0.21105 0.0
H959 H 0.49721 0.64326 0.19903 0.0
H960 H 0.44866 0.6514 0.23472 0.0
H961 H 0.46116 0.66252 0.16706 0.0
H962 H 0.45957 0.65232 0.13337 0.0
H963 H 0.39481 0.62039 0.13561 0.0
H964 H 0.39603 0.63019 0.16941 0.0
H965 H 0.436 0.73522 0.23063 0.0
H966 H 0.44567 0.70994 0.22713 0.0
H967 H 0.38497 0.66675 0.20993 0.0
H968 H 0.37511 0.69211 0.21339 0.0
H969 H 0.41343 0.66815 0.18535 0.0
H970 H 0.40205 0.66213 0.25264 0.0
H971 H 0.40509 0.67403 0.28587 0.0
H972 H 0.4692 0.69828 0.28396 0.0
H973 H 0.46661 0.68678 0.25062 0.0
C974 C 0.44986 0.60907 0.18379 0.0
C975 C 0.47091 0.61819 0.18606 0.0
C976 C 0.43949 0.61818 0.19097 0.0
C977 C 0.44997 0.63672 0.20033 0.0
C978 C 0.47072 0.64519 0.20374 0.0
C979 C 0.48109 0.63602 0.1967 0.0
C980 C 0.43977 0.64811 0.20516 0.0
C981 C 0.44102 0.65513 0.22392 0.0
C982 C 0.42944 0.65266 0.19116 0.0
C983 C 0.42868 0.64688 0.17081 0.0
C984 C 0.44658 0.6532 0.1604 0.0
C985 C 0.44575 0.64751 0.14129 0.0
C986 C 0.4271 0.63566 0.13237 0.0
C987 C 0.40924 0.62953 0.14254 0.0
C988 C 0.40999 0.63515 0.16168 0.0
C989 C 0.42461 0.72029 0.2263 0.0
C990 C 0.40478 0.71568 0.22224 0.0
C991 C 0.43015 0.70582 0.22442 0.0
C992 C 0.41601 0.68641 0.21843 0.0
C993 C 0.3961 0.68163 0.21465 0.0
C994 C 0.39048 0.69611 0.21667 0.0
C995 C 0.42254 0.67167 0.21485 0.0
C996 C 0.4207 0.6641 0.19626 0.0
C997 C 0.43251 0.66683 0.22897 0.0
C998 C 0.43414 0.6737 0.24907 0.0
C999 C 0.41682 0.67013 0.25926 0.0
C1000 C 0.41846 0.67678 0.27813 0.0
C1001 C 0.43733 0.68693 0.28701 0.0
C1002 C 0.4546 0.69042 0.27706 0.0
C1003 C 0.45305 0.68381 0.25818 0.0
H1004 H 0.43857 0.69207 0.30162 0.0
H1005 H 0.42649 0.63126 0.11758 0.0
H1006 H 0.84778 0.46251 0.3229 0.0
H1007 H 0.81486 0.4528 0.33649 0.0
H1008 H 0.83747 0.45312 0.39293 0.0
H1009 H 0.87066 0.46281 0.37931 0.0
H1010 H 0.80056 0.42114 0.38805 0.0
H1011 H 0.83065 0.49108 0.37924 0.0
H1012 H 0.84868 0.52302 0.36205 0.0
H1013 H 0.80074 0.50159 0.32087 0.0
H1014 H 0.78254 0.46939 0.33766 0.0
H1015 H 0.7121 0.44335 0.40661 0.0
H1016 H 0.74767 0.45376 0.40297 0.0
H1017 H 0.73099 0.39663 0.37778 0.0
H1018 H 0.69528 0.38589 0.38201 0.0
H1019 H 0.76723 0.45968 0.37197 0.0
H1020 H 0.7684 0.38605 0.38301 0.0
H1021 H 0.75163 0.35595 0.40307 0.0
H1022 H 0.73913 0.38825 0.44564 0.0
H1023 H 0.75606 0.4186 0.42596 0.0
C1024 C 0.84587 0.46079 0.33824 0.0
C1025 C 0.86191 0.46371 0.35007 0.0
C1026 C 0.827 0.45516 0.34599 0.0
C1027 C 0.82378 0.45254 0.36576 0.0
C1028 C 0.83965 0.45512 0.37763 0.0
C1029 C 0.85858 0.46067 0.36985 0.0
C1030 C 0.80375 0.44707 0.37382 0.0
C1031 C 0.79327 0.42959 0.38465 0.0
C1032 C 0.79445 0.45838 0.36977 0.0
C1033 C 0.80529 0.47776 0.35965 0.0
C1034 C 0.82401 0.49312 0.36645 0.0
C1035 C 0.83426 0.51128 0.35678 0.0
C1036 C 0.82588 0.51432 0.34036 0.0
C1037 C 0.80722 0.49921 0.33359 0.0
C1038 C 0.79692 0.48101 0.34319 0.0
C1039 C 0.716 0.43288 0.40055 0.0
C1040 C 0.7009 0.41383 0.3945 0.0
C1041 C 0.73636 0.43887 0.39846 0.0
C1042 C 0.74209 0.42601 0.39013 0.0
C1043 C 0.72701 0.40673 0.38455 0.0
C1044 C 0.70658 0.40062 0.38688 0.0
C1045 C 0.7637 0.4334 0.38584 0.0
C1046 C 0.7745 0.45127 0.37562 0.0
C1047 C 0.77341 0.4227 0.39089 0.0
C1048 C 0.76335 0.40455 0.40291 0.0
C1049 C 0.76215 0.38675 0.39668 0.0
C1050 C 0.7526 0.36964 0.40798 0.0
C1051 C 0.74427 0.37017 0.42559 0.0
C1052 C 0.74552 0.38783 0.43196 0.0
C1053 C 0.75506 0.40499 0.42073 0.0
H1054 H 0.73687 0.35691 0.43431 0.0
H1055 H 0.83384 0.52839 0.33289 0.0
H1056 H 0.10708 0.56391 0.40042 0.0
H1057 H 0.13187 0.56899 0.4249 0.0
H1058 H 0.16913 0.63017 0.40721 0.0
H1059 H 0.14518 0.62488 0.38198 0.0
H1060 H 0.19195 0.61534 0.41325 0.0
H1061 H 0.13851 0.6161 0.44827 0.0
H1062 H 0.10356 0.60317 0.45929 0.0
H1063 H 0.10277 0.55216 0.48351 0.0
H1064 H 0.13765 0.56468 0.47241 0.0
H1065 H 0.24885 0.65924 0.49821 0.0
H1066 H 0.22543 0.64891 0.47124 0.0
H1067 H 0.20192 0.5872 0.48578 0.0
H1068 H 0.22556 0.59737 0.51266 0.0
H1069 H 0.17221 0.59929 0.48122 0.0
H1070 H 0.22822 0.60193 0.44798 0.0
H1071 H 0.26374 0.61728 0.43783 0.0
H1072 H 0.26013 0.66498 0.41118 0.0
H1073 H 0.22466 0.65007 0.42142 0.0
C1074 C 0.12063 0.5784 0.40161 0.0
C1075 C 0.124 0.59402 0.38926 0.0
C1076 C 0.13471 0.58135 0.41577 0.0
C1077 C 0.15227 0.60005 0.41809 0.0
C1078 C 0.15569 0.61562 0.40576 0.0
C1079 C 0.14179 0.61263 0.39148 0.0
C1080 C 0.16721 0.60353 0.43326 0.0
C1081 C 0.18761 0.61198 0.42813 0.0
C1082 C 0.16157 0.59878 0.45265 0.0
C1083 C 0.1406 0.59121 0.45932 0.0
C1084 C 0.13082 0.60205 0.45581 0.0
C1085 C 0.11104 0.59481 0.4621 0.0
C1086 C 0.10093 0.57682 0.47204 0.0
C1087 C 0.11061 0.56607 0.47577 0.0
C1088 C 0.13039 0.57323 0.4695 0.0
C1089 C 0.23888 0.64346 0.49553 0.0
C1090 C 0.23903 0.62911 0.50756 0.0
C1091 C 0.22555 0.6376 0.48011 0.0
C1092 C 0.212 0.61731 0.47656 0.0
C1093 C 0.21231 0.60293 0.48832 0.0
C1094 C 0.22588 0.60877 0.50358 0.0
C1095 C 0.19683 0.6113 0.46117 0.0
C1096 C 0.17643 0.60242 0.46629 0.0
C1097 C 0.2025 0.61598 0.44184 0.0
C1098 C 0.22382 0.62496 0.43562 0.0
C1099 C 0.23505 0.61578 0.4401 0.0
C1100 C 0.25516 0.62439 0.4343 0.0
C1101 C 0.2642 0.64212 0.4239 0.0
C1102 C 0.25311 0.65126 0.41925 0.0
C1103 C 0.233 0.64272 0.42503 0.0
H1104 H 0.27977 0.64875 0.41942 0.0
H1105 H 0.08561 0.57125 0.4769 0.0
H1106 H 0.55138 0.12114 0.55513 0.0
H1107 H 0.56595 0.14239 0.58312 0.0
H1108 H 0.51555 0.1523 0.58545 0.0
H1109 H 0.50153 0.1321 0.55662 0.0
H1110 H 0.5485 0.18596 0.59003 0.0
H1111 H 0.52205 0.122 0.61843 0.0
H1112 H 0.51596 0.08788 0.62233 0.0
H1113 H 0.57943 0.11113 0.63027 0.0
H1114 H 0.58595 0.14539 0.62615 0.0
H1115 H 0.57602 0.23151 0.68276 0.0
H1116 H 0.55808 0.20859 0.65634 0.0
H1117 H 0.61054 0.20383 0.64417 0.0
H1118 H 0.62865 0.22677 0.67052 0.0
H1119 H 0.57454 0.16691 0.64593 0.0
H1120 H 0.60005 0.23119 0.616 0.0
H1121 H 0.60479 0.2649 0.61304 0.0
H1122 H 0.54063 0.23988 0.60946 0.0
H1123 H 0.53549 0.20602 0.61266 0.0
C1124 C 0.5434 0.1279 0.5615 0.0
C1125 C 0.52531 0.12496 0.55349 0.0
C1126 C 0.55163 0.13984 0.57772 0.0
C1127 C 0.54174 0.14878 0.58658 0.0
C1128 C 0.52344 0.14553 0.5789 0.0
C1129 C 0.51532 0.13377 0.56252 0.0
C1130 C 0.55105 0.16233 0.60324 0.0
C1131 C 0.55384 0.18162 0.6024 0.0
C1132 C 0.55835 0.15685 0.61929 0.0
C1133 C 0.5545 0.13626 0.62182 0.0
C1134 C 0.53473 0.11983 0.62086 0.0
C1135 C 0.5312 0.10047 0.62314 0.0
C1136 C 0.5473 0.09734 0.6265 0.0
C1137 C 0.56697 0.11358 0.62765 0.0
C1138 C 0.57059 0.13298 0.62537 0.0
C1139 C 0.5838 0.22568 0.67441 0.0
C1140 C 0.60379 0.23099 0.67874 0.0
C1141 C 0.57352 0.21262 0.65931 0.0
C1142 C 0.58302 0.20458 0.64831 0.0
C1143 C 0.60296 0.20987 0.65254 0.0
C1144 C 0.61331 0.22306 0.66753 0.0
C1145 C 0.57209 0.19044 0.63252 0.0
C1146 C 0.56902 0.17108 0.63358 0.0
C1147 C 0.56429 0.19575 0.61681 0.0
C1148 C 0.56738 0.21609 0.61477 0.0
C1149 C 0.58694 0.23289 0.61474 0.0
C1150 C 0.58971 0.25202 0.61299 0.0
C1151 C 0.57302 0.25454 0.61112 0.0
C1152 C 0.55354 0.23791 0.61094 0.0
C1153 C 0.5507 0.21875 0.6127 0.0
H1154 H 0.57519 0.26936 0.60977 0.0
H1155 H 0.54454 0.08234 0.62826 0.0
H1156 H 0.43627 0.56471 0.71393 0.0
H1157 H 0.42861 0.58071 0.74005 0.0
H1158 H 0.37922 0.52361 0.75756 0.0
H1159 H 0.38703 0.50732 0.73159 0.0
H1160 H 0.36876 0.55282 0.75614 0.0
H1161 H 0.42144 0.54465 0.78301 0.0
H1162 H 0.45481 0.54734 0.78397 0.0
H1163 H 0.48378 0.61115 0.7812 0.0
H1164 H 0.45056 0.60883 0.77995 0.0
H1165 H 0.35342 0.58392 0.84746 0.0
H1166 H 0.35928 0.56744 0.82051 0.0
H1167 H 0.41116 0.62332 0.80397 0.0
H1168 H 0.4056 0.63992 0.83108 0.0
H1169 H 0.41997 0.59418 0.80494 0.0
H1170 H 0.36753 0.6026 0.77801 0.0
H1171 H 0.33426 0.60012 0.77676 0.0
H1172 H 0.30493 0.53627 0.77939 0.0
H1173 H 0.33804 0.53837 0.78092 0.0
C1174 C 0.42399 0.55546 0.72352 0.0
C1175 C 0.41238 0.53468 0.72076 0.0
C1176 C 0.41957 0.56467 0.73837 0.0
C1177 C 0.40346 0.55332 0.75081 0.0
C1178 C 0.39171 0.53262 0.74808 0.0
C1179 C 0.39618 0.52336 0.73323 0.0
C1180 C 0.39885 0.56321 0.76656 0.0
C1181 C 0.37983 0.56163 0.767 0.0
C1182 C 0.4135 0.5751 0.78039 0.0
C1183 C 0.43351 0.57655 0.78121 0.0
C1184 C 0.43493 0.55925 0.78245 0.0
C1185 C 0.45382 0.56071 0.78307 0.0
C1186 C 0.47141 0.5794 0.7826 0.0
C1187 C 0.47014 0.59668 0.78155 0.0
C1188 C 0.45129 0.5953 0.7809 0.0
C1189 C 0.36596 0.59279 0.83798 0.0
C1190 C 0.37908 0.61325 0.84147 0.0
C1191 C 0.36924 0.58334 0.82253 0.0
C1192 C 0.3856 0.59417 0.81017 0.0
C1193 C 0.39846 0.61468 0.81335 0.0
C1194 C 0.39521 0.62415 0.82882 0.0
C1195 C 0.3899 0.58392 0.79452 0.0
C1196 C 0.40887 0.58539 0.7941 0.0
C1197 C 0.37521 0.57198 0.7807 0.0
C1198 C 0.35527 0.57066 0.77978 0.0
C1199 C 0.35398 0.58803 0.77849 0.0
C1200 C 0.33515 0.58669 0.77769 0.0
C1201 C 0.31749 0.56805 0.77805 0.0
C1202 C 0.31863 0.5507 0.77915 0.0
C1203 C 0.33742 0.55196 0.77996 0.0
H1204 H 0.30293 0.56705 0.77743 0.0
H1205 H 0.48602 0.5805 0.78308 0.0
H1206 H 0.89942 0.45908 0.88825 0.0
H1207 H 0.87645 0.45382 0.91473 0.0
H1208 H 0.84995 0.39015 0.90852 0.0
H1209 H 0.87233 0.39527 0.88159 0.0
H1210 H 0.82137 0.39977 0.9126 0.0
H1211 H 0.88289 0.41577 0.94478 0.0
H1212 H 0.9192 0.43586 0.95222 0.0
H1213 H 0.91184 0.48492 0.96941 0.0
H1214 H 0.87551 0.4652 0.96182 0.0
H1215 H 0.7734 0.36705 0.00259 0.0
H1216 H 0.79479 0.37506 0.97435 0.0
H1217 H 0.8144 0.43741 0.9816 0.0
H1218 H 0.79297 0.42953 0.00996 0.0
H1219 H 0.84611 0.43029 0.97652 0.0
H1220 H 0.7836 0.41275 0.94595 0.0
H1221 H 0.74726 0.39177 0.93904 0.0
H1222 H 0.75649 0.34456 0.91936 0.0
H1223 H 0.79286 0.36515 0.92642 0.0
C1224 C 0.88864 0.44396 0.89247 0.0
C1225 C 0.88774 0.42759 0.88283 0.0
C1226 C 0.87564 0.44098 0.90771 0.0
C1227 C 0.8616 0.42159 0.91371 0.0
C1228 C 0.86069 0.40524 0.90415 0.0
C1229 C 0.87365 0.4082 0.88889 0.0
C1230 C 0.84764 0.4183 0.92978 0.0
C1231 C 0.82679 0.40627 0.92663 0.0
C1232 C 0.85469 0.4272 0.94795 0.0
C1233 C 0.87653 0.43909 0.95253 0.0
C1234 C 0.88905 0.4309 0.94999 0.0
C1235 C 0.90963 0.44221 0.95426 0.0
C1236 C 0.91784 0.46168 0.96122 0.0
C1237 C 0.90547 0.46986 0.96398 0.0
C1238 C 0.88488 0.45861 0.95971 0.0
C1239 C 0.78211 0.38246 0.9981 0.0
C1240 C 0.7815 0.39766 0.00855 0.0
C1241 C 0.79427 0.387 0.98191 0.0
C1242 C 0.8061 0.40681 0.97586 0.0
C1243 C 0.80535 0.42202 0.98606 0.0
C1244 C 0.79303 0.41747 0.0022 0.0
C1245 C 0.8199 0.41162 0.95937 0.0
C1246 C 0.8407 0.42393 0.96244 0.0
C1247 C 0.81282 0.40286 0.94117 0.0
C1248 C 0.79094 0.39044 0.93687 0.0
C1249 C 0.77786 0.39783 0.9403 0.0
C1250 C 0.75726 0.38602 0.93633 0.0
C1251 C 0.74956 0.36683 0.92881 0.0
C1252 C 0.76247 0.35942 0.9252 0.0
C1253 C 0.78309 0.37117 0.92917 0.0
H1254 H 0.73361 0.35771 0.92574 0.0
H1255 H 0.93377 0.47041 0.96453 0.0
H1256 H 0.47898 0.89744 0.04961 0.0
H1257 H 0.46709 0.87489 0.07674 0.0
H1258 H 0.41418 0.88059 0.08066 0.0
H1259 H 0.42654 0.90414 0.0541 0.0
H1260 H 0.42769 0.87982 0.11532 0.0
H1261 H 0.41284 0.84033 0.05827 0.0
H1262 H 0.42052 0.83012 0.02744 0.0
H1263 H 0.46238 0.81728 0.05528 0.0
H1264 H 0.45516 0.82769 0.08625 0.0
H1265 H 0.36667 0.79221 0.16845 0.0
H1266 H 0.37977 0.81588 0.14209 0.0
H1267 H 0.43536 0.81486 0.14331 0.0
H1268 H 0.42241 0.79115 0.16977 0.0
H1269 H 0.42062 0.81318 0.10631 0.0
H1270 H 0.43468 0.85248 0.16361 0.0
H1271 H 0.42611 0.86218 0.19426 0.0
H1272 H 0.38446 0.8747 0.16553 0.0
H1273 H 0.39256 0.86478 0.13473 0.0
C1274 C 0.46505 0.89433 0.05648 0.0
C1275 C 0.45369 0.90259 0.04958 0.0
C1276 C 0.45813 0.88118 0.07186 0.0
C1277 C 0.43953 0.8757 0.08046 0.0
C1278 C 0.4285 0.88448 0.07412 0.0
C1279 C 0.43551 0.8978 0.05883 0.0
C1280 C 0.43135 0.86042 0.0957 0.0
C1281 C 0.42591 0.86517 0.11325 0.0
C1282 C 0.42935 0.8414 0.09313 0.0
C1283 C 0.43359 0.83497 0.07455 0.0
C1284 C 0.42378 0.83546 0.0578 0.0
C1285 C 0.42804 0.82962 0.0403 0.0
C1286 C 0.44197 0.8231 0.03939 0.0
C1287 C 0.45162 0.82236 0.056 0.0
C1288 C 0.44743 0.82821 0.07353 0.0
C1289 C 0.38162 0.79684 0.16302 0.0
C1290 C 0.39355 0.78986 0.1713 0.0
C1291 C 0.3891 0.81045 0.14801 0.0
C1292 C 0.40861 0.81729 0.14095 0.0
C1293 C 0.42028 0.8098 0.14864 0.0
C1294 C 0.41287 0.79628 0.16377 0.0
C1295 C 0.41699 0.83262 0.12584 0.0
C1296 C 0.42244 0.82785 0.10833 0.0
C1297 C 0.41886 0.85156 0.1284 0.0
C1298 C 0.41408 0.85769 0.14689 0.0
C1299 C 0.42357 0.85714 0.16384 0.0
C1300 C 0.41882 0.86271 0.18124 0.0
C1301 C 0.40471 0.869 0.18185 0.0
C1302 C 0.39537 0.86979 0.16504 0.0
C1303 C 0.40005 0.86422 0.14761 0.0
H1304 H 0.40105 0.8733 0.19533 0.0
H1305 H 0.44525 0.8186 0.02583 0.0
H1306 H 0.54073 0.44587 0.22693 0.0
H1307 H 0.55169 0.43489 0.2546 0.0
H1308 H 0.61354 0.47976 0.24325 0.0
H1309 H 0.60277 0.49021 0.21495 0.0
H1310 H 0.61117 0.44554 0.24991 0.0
H1311 H 0.58717 0.48385 0.28151 0.0
H1312 H 0.56339 0.49529 0.28953 0.0
H1313 H 0.52035 0.43675 0.30959 0.0
H1314 H 0.54377 0.42487 0.30144 0.0
H1315 H 0.64599 0.43075 0.34005 0.0
H1316 H 0.63755 0.44525 0.31322 0.0
H1317 H 0.57584 0.39687 0.3152 0.0
H1318 H 0.58412 0.38218 0.34195 0.0
H1319 H 0.57998 0.43504 0.31411 0.0
H1320 H 0.60478 0.39716 0.28075 0.0
H1321 H 0.62971 0.38702 0.27325 0.0
H1322 H 0.67293 0.44714 0.25738 0.0
H1323 H 0.64833 0.45769 0.26505 0.0
C1324 C 0.55667 0.45342 0.23031 0.0
C1325 C 0.57087 0.46888 0.21866 0.0
C1326 C 0.5629 0.44727 0.24628 0.0
C1327 C 0.58343 0.45662 0.25113 0.0
C1328 C 0.59762 0.47236 0.2398 0.0
C1329 C 0.5914 0.47845 0.22374 0.0
C1330 C 0.59012 0.44921 0.26741 0.0
C1331 C 0.6046 0.4436 0.26404 0.0
C1332 C 0.58133 0.44635 0.28578 0.0
C1333 C 0.56717 0.45342 0.2907 0.0
C1334 C 0.57257 0.47337 0.28749 0.0
C1335 C 0.55916 0.47994 0.29208 0.0
C1336 C 0.54035 0.46674 0.30002 0.0
C1337 C 0.53492 0.44695 0.30342 0.0
C1338 C 0.54827 0.44029 0.29884 0.0
C1339 C 0.63065 0.4231 0.33469 0.0
C1340 C 0.61572 0.4053 0.34313 0.0
C1341 C 0.62588 0.4314 0.31935 0.0
C1342 C 0.60609 0.42211 0.31226 0.0
C1343 C 0.5912 0.40427 0.32052 0.0
C1344 C 0.59599 0.39585 0.33573 0.0
C1345 C 0.60078 0.43121 0.29648 0.0
C1346 C 0.58659 0.43714 0.29999 0.0
C1347 C 0.61001 0.43459 0.27833 0.0
C1348 C 0.62479 0.42825 0.27368 0.0
C1349 C 0.61966 0.40825 0.27583 0.0
C1350 C 0.63372 0.40242 0.27151 0.0
C1351 C 0.65291 0.41644 0.26489 0.0
C1352 C 0.65807 0.4363 0.26253 0.0
C1353 C 0.64407 0.44221 0.26685 0.0
H1354 H 0.66377 0.41189 0.26155 0.0
H1355 H 0.53 0.47187 0.30357 0.0
H1356 H 0.40799 0.8771 0.40975 0.0
H1357 H 0.39625 0.854 0.3827 0.0
H1358 H 0.44459 0.89812 0.34803 0.0
H1359 H 0.45596 0.92168 0.37482 0.0
H1360 H 0.41069 0.87823 0.32748 0.0
H1361 H 0.44908 0.86156 0.36966 0.0
H1362 H 0.45798 0.85298 0.40058 0.0
H1363 H 0.39951 0.80009 0.40354 0.0
H1364 H 0.39016 0.80852 0.37275 0.0
H1365 H 0.41468 0.79138 0.27683 0.0
H1366 H 0.4237 0.81468 0.30362 0.0
H1367 H 0.36807 0.81492 0.29648 0.0
H1368 H 0.359 0.79182 0.26955 0.0
H1369 H 0.40656 0.81311 0.33755 0.0
H1370 H 0.37745 0.86224 0.30517 0.0
H1371 H 0.37163 0.8721 0.27345 0.0
H1372 H 0.41735 0.86234 0.24925 0.0
H1373 H 0.42364 0.8527 0.28086 0.0
C1374 C 0.41587 0.8821 0.39625 0.0
C1375 C 0.43301 0.90123 0.39449 0.0
C1376 C 0.40925 0.86878 0.38086 0.0
C1377 C 0.41977 0.87422 0.36346 0.0
C1378 C 0.43633 0.89358 0.36137 0.0
C1379 C 0.4429 0.90696 0.37674 0.0
C1380 C 0.41411 0.85942 0.34777 0.0
C1381 C 0.4097 0.86396 0.3297 0.0
C1382 C 0.41321 0.84096 0.35057 0.0
C1383 C 0.41886 0.83577 0.369 0.0
C1384 C 0.43808 0.84817 0.37697 0.0
C1385 C 0.44321 0.84333 0.39446 0.0
C1386 C 0.42931 0.82603 0.40404 0.0
C1387 C 0.41026 0.8135 0.39612 0.0
C1388 C 0.40504 0.8183 0.37864 0.0
C1389 C 0.40428 0.79626 0.28103 0.0
C1390 C 0.38618 0.78983 0.27094 0.0
C1391 C 0.40945 0.80955 0.29637 0.0
C1392 C 0.39668 0.81672 0.30186 0.0
C1393 C 0.37829 0.80981 0.29227 0.0
C1394 C 0.3731 0.79653 0.27692 0.0
C1395 C 0.40285 0.83179 0.31734 0.0
C1396 C 0.40739 0.82731 0.33537 0.0
C1397 C 0.40428 0.85047 0.31438 0.0
C1398 C 0.40084 0.85654 0.29535 0.0
C1399 C 0.38631 0.86227 0.29309 0.0
C1400 C 0.38292 0.86781 0.27513 0.0
C1401 C 0.39407 0.86778 0.25933 0.0
C1402 C 0.40868 0.86228 0.26148 0.0
C1403 C 0.41214 0.85676 0.27941 0.0
H1404 H 0.39141 0.87205 0.24543 0.0
H1405 H 0.4333 0.8223 0.41758 0.0
H1406 H 0.53264 0.4198 0.57493 0.0
H1407 H 0.54134 0.40761 0.54639 0.0
H1408 H 0.59223 0.46645 0.53648 0.0
H1409 H 0.58296 0.47904 0.5644 0.0
H1410 H 0.57443 0.45019 0.50391 0.0
H1411 H 0.59726 0.42891 0.55792 0.0
H1412 H 0.59371 0.41225 0.58875 0.0
H1413 H 0.54987 0.35612 0.56407 0.0
H1414 H 0.55295 0.3725 0.53314 0.0
H1415 H 0.63459 0.42693 0.44522 0.0
H1416 H 0.62197 0.43669 0.47279 0.0
H1417 H 0.56825 0.37852 0.47333 0.0
H1418 H 0.58071 0.36858 0.4456 0.0
H1419 H 0.58546 0.39281 0.50991 0.0
H1420 H 0.56441 0.4146 0.45522 0.0
H1421 H 0.56909 0.43176 0.4245 0.0
H1422 H 0.61106 0.48768 0.45081 0.0
H1423 H 0.60686 0.4708 0.48165 0.0
C1424 C 0.54545 0.43027 0.56649 0.0
C1425 C 0.55716 0.45041 0.57205 0.0
C1426 C 0.55056 0.42319 0.5503 0.0
C1427 C 0.56768 0.43602 0.53951 0.0
C1428 C 0.57904 0.45624 0.54466 0.0
C1429 C 0.57383 0.46338 0.56075 0.0
C1430 C 0.574 0.42835 0.52304 0.0
C1431 C 0.57704 0.43778 0.5053 0.0
C1432 C 0.57698 0.41186 0.52472 0.0
C1433 C 0.57518 0.40197 0.54327 0.0
C1434 C 0.58675 0.41304 0.5591 0.0
C1435 C 0.58484 0.40364 0.57659 0.0
C1436 C 0.57153 0.38315 0.57838 0.0
C1437 C 0.56015 0.372 0.56267 0.0
C1438 C 0.56198 0.38132 0.54515 0.0
C1439 C 0.62016 0.41613 0.45125 0.0
C1440 C 0.60861 0.39699 0.44314 0.0
C1441 C 0.61294 0.42177 0.46696 0.0
C1442 C 0.59409 0.40839 0.47491 0.0
C1443 C 0.58281 0.38906 0.46731 0.0
C1444 C 0.58994 0.38344 0.45146 0.0
C1445 C 0.58609 0.41481 0.49095 0.0
C1446 C 0.58273 0.40515 0.50857 0.0
C1447 C 0.58297 0.43118 0.48921 0.0
C1448 C 0.58546 0.44139 0.47071 0.0
C1449 C 0.57477 0.43053 0.45442 0.0
C1450 C 0.57731 0.44021 0.43699 0.0
C1451 C 0.5904 0.46079 0.43569 0.0
C1452 C 0.60094 0.47174 0.45184 0.0
C1453 C 0.59847 0.46212 0.4693 0.0
H1454 H 0.59235 0.46826 0.42218 0.0
H1455 H 0.57007 0.3759 0.59194 0.0
H1456 H 0.10699 0.57641 0.7129 0.0
H1457 H 0.1314 0.59026 0.68698 0.0
H1458 H 0.16769 0.56944 0.71411 0.0
H1459 H 0.14429 0.55707 0.74085 0.0
H1460 H 0.19125 0.6045 0.70239 0.0
H1461 H 0.13733 0.54661 0.67284 0.0
H1462 H 0.10238 0.52318 0.66265 0.0
H1463 H 0.10216 0.56917 0.62916 0.0
H1464 H 0.13704 0.59295 0.63935 0.0
H1465 H 0.24784 0.61033 0.61785 0.0
H1466 H 0.22419 0.59799 0.64474 0.0
H1467 H 0.20117 0.6361 0.62827 0.0
H1468 H 0.2251 0.64889 0.60159 0.0
H1469 H 0.1713 0.59271 0.63409 0.0
H1470 H 0.22714 0.65008 0.66458 0.0
H1471 H 0.26273 0.67118 0.67423 0.0
H1472 H 0.25964 0.6223 0.7054 0.0
H1473 H 0.22409 0.60081 0.6957 0.0
C1474 C 0.12024 0.5749 0.71349 0.0
C1475 C 0.12357 0.56557 0.72909 0.0
C1476 C 0.13408 0.58259 0.69846 0.0
C1477 C 0.15131 0.58068 0.6984 0.0
C1478 C 0.15451 0.57109 0.71377 0.0
C1479 C 0.14089 0.56374 0.72897 0.0
C1480 C 0.16637 0.58928 0.68269 0.0
C1481 C 0.18684 0.60165 0.68748 0.0
C1482 C 0.16072 0.58587 0.66317 0.0
C1483 C 0.13973 0.57162 0.65702 0.0
C1484 C 0.12978 0.55177 0.66342 0.0
C1485 C 0.10999 0.53842 0.65763 0.0
C1486 C 0.10004 0.5447 0.64531 0.0
C1487 C 0.10987 0.56433 0.63872 0.0
C1488 C 0.12966 0.57775 0.64449 0.0
C1489 C 0.2379 0.61625 0.62008 0.0
C1490 C 0.23833 0.63059 0.60764 0.0
C1491 C 0.22443 0.60919 0.63543 0.0
C1492 C 0.21097 0.61613 0.63839 0.0
C1493 C 0.21147 0.63059 0.62615 0.0
C1494 C 0.22521 0.63795 0.61101 0.0
C1495 C 0.19591 0.60778 0.65393 0.0
C1496 C 0.17554 0.59547 0.64906 0.0
C1497 C 0.20167 0.61086 0.67334 0.0
C1498 C 0.22302 0.62378 0.67924 0.0
C1499 C 0.2341 0.64378 0.67334 0.0
C1500 C 0.25426 0.65582 0.67885 0.0
C1501 C 0.26346 0.64807 0.69038 0.0
C1502 C 0.2525 0.62828 0.69645 0.0
C1503 C 0.23235 0.61617 0.69096 0.0
H1504 H 0.27906 0.65742 0.69463 0.0
H1505 H 0.08472 0.53434 0.64083 0.0
H1506 H 0.57766 0.13571 0.90901 0.0
H1507 H 0.58324 0.1585 0.88277 0.0
H1508 H 0.62844 0.14718 0.85919 0.0
H1509 H 0.62274 0.12408 0.88527 0.0
H1510 H 0.64114 0.18709 0.86059 0.0
H1511 H 0.58289 0.12674 0.83868 0.0
H1512 H 0.54851 0.09762 0.84109 0.0
H1513 H 0.52436 0.13648 0.84785 0.0
H1514 H 0.55865 0.16585 0.84575 0.0
H1515 H 0.65054 0.22841 0.76866 0.0
H1516 H 0.64519 0.20705 0.79603 0.0
H1517 H 0.59789 0.21695 0.81635 0.0
H1518 H 0.60286 0.2381 0.78873 0.0
H1519 H 0.58614 0.17833 0.81731 0.0
H1520 H 0.64409 0.23876 0.83845 0.0
H1521 H 0.6784 0.26801 0.83614 0.0
H1522 H 0.70309 0.22946 0.83118 0.0
H1523 H 0.66889 0.19996 0.83318 0.0
C1524 C 0.58855 0.13778 0.89808 0.0
C1525 C 0.59968 0.12797 0.89919 0.0
C1526 C 0.59178 0.1509 0.88314 0.0
C1527 C 0.60616 0.15443 0.86899 0.0
C1528 C 0.61731 0.14469 0.87002 0.0
C1529 C 0.61405 0.13153 0.88494 0.0
C1530 C 0.60975 0.16851 0.85325 0.0
C1531 C 0.62919 0.18507 0.85095 0.0
C1532 C 0.59401 0.16612 0.84106 0.0
C1533 C 0.57336 0.14849 0.84225 0.0
C1534 C 0.57027 0.12907 0.84084 0.0
C1535 C 0.55079 0.11253 0.84212 0.0
C1536 C 0.53426 0.1152 0.84468 0.0
C1537 C 0.53718 0.13443 0.8459 0.0
C1538 C 0.55663 0.15103 0.84465 0.0
C1539 C 0.6391 0.22622 0.77901 0.0
C1540 C 0.62712 0.23498 0.77649 0.0
C1541 C 0.63612 0.21404 0.79472 0.0
C1542 C 0.62127 0.21055 0.80834 0.0
C1543 C 0.60944 0.21946 0.80601 0.0
C1544 C 0.61236 0.2316 0.79025 0.0
C1545 C 0.61757 0.19694 0.82458 0.0
C1546 C 0.59809 0.18044 0.82697 0.0
C1547 C 0.63328 0.19942 0.83689 0.0
C1548 C 0.6539 0.21714 0.8358 0.0
C1549 C 0.65682 0.23651 0.83672 0.0
C1550 C 0.67625 0.25314 0.83549 0.0
C1551 C 0.69291 0.25059 0.83347 0.0
C1552 C 0.69017 0.23141 0.83272 0.0
C1553 C 0.67077 0.21473 0.83393 0.0
H1554 H 0.70794 0.26349 0.83251 0.0
H1555 H 0.5192 0.10237 0.84566 0.0
H1556 H 0.49554 0.60228 0.04623 0.0
H1557 H 0.47978 0.60886 0.01909 0.0
H1558 H 0.42798 0.59523 0.05379 0.0
H1559 H 0.4439 0.5896 0.08124 0.0
H1560 H 0.41935 0.5767 0.01583 0.0
H1561 H 0.45836 0.64072 0.04746 0.0
H1562 H 0.48953 0.66863 0.06109 0.0
H1563 H 0.51872 0.67887 0.00651 0.0
H1564 H 0.48779 0.65081 0.99262 0.0
H1565 H 0.37059 0.61252 0.95615 0.0
H1566 H 0.38602 0.60556 0.98328 0.0
H1567 H 0.44367 0.63516 0.95459 0.0
H1568 H 0.42853 0.64295 0.92789 0.0
H1569 H 0.44963 0.64512 0.98967 0.0
H1570 H 0.41247 0.58241 0.95724 0.0
H1571 H 0.38273 0.55373 0.94253 0.0
H1572 H 0.35182 0.53976 0.99642 0.0
H1573 H 0.3813 0.56853 0.01141 0.0
C1574 C 0.48088 0.60085 0.04819 0.0
C1575 C 0.47105 0.59541 0.06601 0.0
C1576 C 0.47185 0.60448 0.03262 0.0
C1577 C 0.45276 0.60253 0.03452 0.0
C1578 C 0.44267 0.59667 0.05206 0.0
C1579 C 0.45179 0.59333 0.0677 0.0
C1580 C 0.44349 0.60714 0.01835 0.0
C1581 C 0.42579 0.59167 0.01018 0.0
C1582 C 0.4523 0.62658 0.01075 0.0
C1583 C 0.47084 0.64354 0.01906 0.0
C1584 C 0.47148 0.64881 0.03841 0.0
C1585 C 0.4891 0.66468 0.04617 0.0
C1586 C 0.50612 0.67548 0.03469 0.0
C1587 C 0.50554 0.67047 0.0154 0.0
C1588 C 0.48797 0.6546 0.00757 0.0
C1589 C 0.38656 0.61758 0.95568 0.0
C1590 C 0.39833 0.62825 0.93988 0.0
C1591 C 0.39536 0.61348 0.97113 0.0
C1592 C 0.41597 0.61949 0.97086 0.0
C1593 C 0.42776 0.63035 0.95517 0.0
C1594 C 0.41906 0.63478 0.93989 0.0
C1595 C 0.42533 0.61463 0.98693 0.0
C1596 C 0.44311 0.63008 0.99516 0.0
C1597 C 0.41676 0.59507 0.99435 0.0
C1598 C 0.39902 0.57775 0.9854 0.0
C1599 C 0.39927 0.57331 0.96592 0.0
C1600 C 0.38247 0.55703 0.95754 0.0
C1601 C 0.36538 0.54497 0.96852 0.0
C1602 C 0.36507 0.54914 0.98793 0.0
C1603 C 0.38182 0.56542 0.99638 0.0
H1604 H 0.35238 0.53236 0.96201 0.0
H1605 H 0.51974 0.68776 0.04072 0.0
H1606 H 0.89738 0.42734 0.23016 0.0
H1607 H 0.87468 0.41581 0.20259 0.0
H1608 H 0.86513 0.46562 0.20944 0.0
H1609 H 0.88707 0.47676 0.23741 0.0
H1610 H 0.83031 0.43224 0.20452 0.0
H1611 H 0.89461 0.46401 0.17322 0.0
H1612 H 0.92895 0.47078 0.16608 0.0
H1613 H 0.90493 0.40998 0.1481 0.0
H1614 H 0.87043 0.40278 0.15538 0.0
H1615 H 0.78478 0.42682 0.11471 0.0
H1616 H 0.80752 0.43714 0.14216 0.0
H1617 H 0.81149 0.38395 0.1365 0.0
H1618 H 0.78876 0.37349 0.10897 0.0
H1619 H 0.8488 0.41807 0.14081 0.0
H1620 H 0.78414 0.38695 0.17169 0.0
H1621 H 0.75002 0.38103 0.17841 0.0
H1622 H 0.77523 0.44186 0.19676 0.0
H1623 H 0.80951 0.44824 0.18989 0.0
C1624 C 0.89045 0.43584 0.22579 0.0
C1625 C 0.89411 0.45301 0.23597 0.0
C1626 C 0.87761 0.42932 0.20993 0.0
C1627 C 0.86832 0.43994 0.20386 0.0
C1628 C 0.87216 0.45721 0.21384 0.0
C1629 C 0.88491 0.46369 0.22971 0.0
C1630 C 0.85399 0.43269 0.18756 0.0
C1631 C 0.83446 0.4294 0.19052 0.0
C1632 C 0.85923 0.42852 0.16943 0.0
C1633 C 0.87996 0.4328 0.16504 0.0
C1634 C 0.89666 0.45204 0.1679 0.0
C1635 C 0.91615 0.45596 0.1638 0.0
C1636 C 0.91913 0.4408 0.1567 0.0
C1637 C 0.9026 0.4217 0.15363 0.0
C1638 C 0.88308 0.41769 0.15773 0.0
C1639 C 0.79037 0.41724 0.11935 0.0
C1640 C 0.78492 0.39931 0.10965 0.0
C1641 C 0.80333 0.42314 0.13508 0.0
C1642 C 0.81109 0.41125 0.1414 0.0
C1643 C 0.80565 0.39333 0.13182 0.0
C1644 C 0.79259 0.38734 0.11615 0.0
C1645 C 0.82523 0.41777 0.15778 0.0
C1646 C 0.8447 0.42089 0.15484 0.0
C1647 C 0.81998 0.42192 0.1759 0.0
C1648 C 0.79938 0.41812 0.1801 0.0
C1649 C 0.7824 0.39911 0.17701 0.0
C1650 C 0.76303 0.39566 0.18087 0.0
C1651 C 0.76046 0.41107 0.18796 0.0
C1652 C 0.77725 0.42995 0.19125 0.0
C1653 C 0.79666 0.43348 0.18739 0.0
H1654 H 0.74545 0.40837 0.19095 0.0
H1655 H 0.93423 0.44388 0.15352 0.0
loop_
_geom_bond_atom_site_label_1
_geom_bond_atom_site_label_2
_geom_bond_distance
_geom_bond_site_symmetry_2
_ccdc_geom_bond_type
H0 C27 0.929 . S
N1 C26 1.433 . S
N1 C32 1.435 . S
N1 C38 1.423 . S
H2 C28 0.930 . S
H3 C31 0.931 . S
H4 C30 0.929 . S
H5 C33 0.930 . S
H6 C34 0.932 . S
H7 C37 0.929 . S
H8 C36 0.931 . S
H9 C39 0.929 . S
H10 C43 0.932 . S
H11 C40 0.931 . S
H12 C42 0.929 . S
H13 C45 0.929 . S
H14 C46 0.930 . S
H15 C48 0.929 . S
H16 C49 0.931 . S
H17 C51 0.930 . S
H18 C52 0.932 . S
H19 C54 0.931 . S
H20 C55 0.929 . S
H21 C57 0.929 . S
H22 C58 0.931 . S
H23 C60 0.929 . S
N24 C44 1.433 . S
N24 C50 1.435 . S
N24 C56 1.423 . S
H25 C61 0.932 . S
C26 N1 1.433 . S
C26 C27 1.363 . S
C26 C31 1.370 . S
C27 H0 0.929 . S
C27 C26 1.363 . S
C27 C28 1.385 . S
C28 H2 0.930 . S
C28 C27 1.385 . S
C28 C29 1.357 . S
C29 C28 1.357 . S
C29 C30 1.406 . S
C30 H4 0.929 . S
C30 C29 1.406 . S
C30 C31 1.391 . S
C31 H3 0.931 . S
C31 C26 1.370 . S
C31 C30 1.391 . S
C32 N1 1.435 . S
C32 C33 1.358 . S
C32 C37 1.371 . S
C33 H5 0.930 . S
C33 C32 1.358 . S
C33 C34 1.405 . S
C34 H6 0.932 . S
C34 C33 1.405 . S
C34 C35 1.383 . S
C35 C34 1.383 . S
C35 C36 1.393 . S
C36 H8 0.931 . S
C36 C35 1.393 . S
C36 C37 1.382 . S
C37 H7 0.929 . S
C37 C32 1.371 . S
C37 C36 1.382 . S
C38 N1 1.423 . S
C38 C39 1.362 . S
C38 C43 1.388 . S
C39 H9 0.929 . S
C39 C38 1.362 . S
C39 C40 1.376 . S
C40 H11 0.931 . S
C40 C39 1.376 . S
C40 C41 1.396 . S
C41 C40 1.396 . S
C41 C42 1.348 . S
C41 C59 1.472 1_455 S
C42 H12 0.929 . S
C42 C41 1.348 . S
C42 C43 1.443 . S
C43 H10 0.932 . S
C43 C38 1.388 . S
C43 C42 1.443 . S
C44 N24 1.433 . S
C44 C45 1.363 . S
C44 C49 1.370 . S
C45 H13 0.929 . S
C45 C44 1.363 . S
C45 C46 1.385 . S
C46 H14 0.930 . S
C46 C45 1.385 . S
C46 C47 1.357 . S
C47 C46 1.357 . S
C47 C48 1.406 . S
C48 H15 0.929 . S
C48 C47 1.406 . S
C48 C49 1.391 . S
C49 H16 0.931 . S
C49 C44 1.370 . S
C49 C48 1.391 . S
C50 N24 1.435 . S
C50 C51 1.358 . S
C50 C55 1.371 . S
C51 H17 0.930 . S
C51 C50 1.358 . S
C51 C52 1.405 . S
C52 H18 0.932 . S
C52 C51 1.405 . S
C52 C53 1.383 . S
C53 C52 1.383 . S
C53 C54 1.393 . S
C54 H19 0.931 . S
C54 C53 1.393 . S
C54 C55 1.382 . S
C55 H20 0.929 . S
C55 C50 1.371 . S
C55 C54 1.382 . S
C56 N24 1.423 . S
C56 C57 1.362 . S
C56 C61 1.388 . S
C57 H21 0.929 . S
C57 C56 1.362 . S
C57 C58 1.376 . S
C58 H22 0.931 . S
C58 C57 1.376 . S
C58 C59 1.396 . S
C59 C41 1.472 1_655 S
C59 C58 1.396 . S
C59 C60 1.348 . S
C60 H23 0.929 . S
C60 C59 1.348 . S
C60 C61 1.443 . S
C61 H25 0.932 . S
C61 C56 1.388 . S
C61 C60 1.443 . S
H62 C89 0.929 . S
N63 C88 1.433 . S
N63 C94 1.435 . S
N63 C100 1.423 . S
H64 C90 0.930 . S
H65 C93 0.931 . S
H66 C92 0.929 . S
H67 C95 0.930 . S
H68 C96 0.932 . S
H69 C99 0.929 . S
H70 C98 0.931 . S
H71 C101 0.929 . S
H72 C105 0.932 . S
H73 C102 0.931 . S
H74 C104 0.929 1_545 S
H75 C107 0.929 . S
H76 C108 0.930 . S
H77 C110 0.929 . S
H78 C111 0.931 . S
H79 C113 0.930 . S
H80 C114 0.932 . S
H81 C116 0.931 . S
H82 C117 0.929 . S
H83 C119 0.929 . S
H84 C120 0.931 . S
H85 C122 0.929 . S
N86 C106 1.433 . S
N86 C112 1.435 . S
N86 C118 1.423 . S
H87 C123 0.932 . S
C88 N63 1.433 . S
C88 C89 1.363 . S
C88 C93 1.370 . S
C89 H62 0.929 . S
C89 C88 1.363 . S
C89 C90 1.385 . S
C90 H64 0.930 . S
C90 C89 1.385 . S
C90 C91 1.357 . S
C91 C90 1.357 . S
C91 C92 1.406 . S
C92 H66 0.929 . S
C92 C91 1.406 . S
C92 C93 1.391 . S
C93 H65 0.931 . S
C93 C88 1.370 . S
C93 C92 1.391 . S
C94 N63 1.435 . S
C94 C95 1.358 . S
C94 C99 1.371 . S
C95 H67 0.930 . S
C95 C94 1.358 . S
C95 C96 1.405 . S
C96 H68 0.932 . S
C96 C95 1.405 . S
C96 C97 1.383 . S
C97 C96 1.383 . S
C97 C98 1.393 . S
C98 H70 0.931 . S
C98 C97 1.393 . S
C98 C99 1.382 . S
C99 H69 0.929 . S
C99 C94 1.371 . S
C99 C98 1.382 . S
C100 N63 1.423 . S
C100 C101 1.362 . S
C100 C105 1.388 . S
C101 H71 0.929 . S
C101 C100 1.362 . S
C101 C102 1.376 . S
C102 H73 0.931 . S
C102 C101 1.376 . S
C102 C103 1.396 1_565 S
C103 C102 1.396 1_545 S
C103 C104 1.348 1_545 S
C103 C121 1.472 . S
C104 H74 0.929 1_565 S
C104 C103 1.348 1_565 S
C104 C105 1.443 . S
C105 H72 0.932 . S
C105 C100 1.388 . S
C105 C104 1.443 . S
C106 N86 1.433 . S
C106 C107 1.363 . S
C106 C111 1.370 . S
C107 H75 0.929 . S
C107 C106 1.363 . S
C107 C108 1.385 . S
C108 H76 0.930 . S
C108 C107 1.385 . S
C108 C109 1.357 . S
C109 C108 1.357 . S
C109 C110 1.406 . S
C110 H77 0.929 . S
C110 C109 1.406 . S
C110 C111 1.391 . S
C111 H78 0.931 . S
C111 C106 1.370 . S
C111 C110 1.391 . S
C112 N86 1.435 . S
C112 C113 1.358 . S
C112 C117 1.371 . S
C113 H79 0.930 . S
C113 C112 1.358 . S
C113 C114 1.405 . S
C114 H80 0.932 . S
C114 C113 1.405 . S
C114 C115 1.383 . S
C115 C114 1.383 . S
C115 C116 1.393 . S
C116 H81 0.931 . S
C116 C115 1.393 . S
C116 C117 1.382 . S
C117 H82 0.929 . S
C117 C112 1.371 . S
C117 C116 1.382 . S
C118 N86 1.423 . S
C118 C119 1.362 . S
C118 C123 1.388 . S
C119 H83 0.929 . S
C119 C118 1.362 . S
C119 C120 1.376 . S
C120 H84 0.931 . S
C120 C119 1.376 . S
C120 C121 1.396 . S
C121 C103 1.472 . S
C121 C120 1.396 . S
C121 C122 1.348 . S
C122 H85 0.929 . S
C122 C121 1.348 . S
C122 C123 1.443 . S
C123 H87 0.932 . S
C123 C118 1.388 . S
C123 C122 1.443 . S
H124 C151 0.929 . S
N125 C150 1.433 . S
N125 C156 1.435 . S
N125 C162 1.423 . S
H126 C152 0.930 . S
H127 C155 0.931 . S
H128 C154 0.929 . S
H129 C157 0.930 . S
H130 C158 0.932 . S
H131 C161 0.929 . S
H132 C160 0.931 . S
H133 C163 0.929 . S
H134 C167 0.932 . S
H135 C164 0.931 . S
H136 C166 0.929 . S
H137 C169 0.929 . S
H138 C170 0.930 . S
H139 C172 0.929 . S
H140 C173 0.931 . S
H141 C175 0.930 . S
H142 C176 0.932 . S
H143 C178 0.931 . S
H144 C179 0.929 . S
H145 C181 0.929 . S
H146 C182 0.931 . S
H147 C184 0.929 . S
N148 C168 1.433 . S
N148 C174 1.435 . S
N148 C180 1.423 . S
H149 C185 0.932 . S
C150 N125 1.433 . S
C150 C151 1.363 . S
C150 C155 1.370 . S
C151 H124 0.929 . S
C151 C150 1.363 . S
C151 C152 1.385 . S
C152 H126 0.930 . S
C152 C151 1.385 . S
C152 C153 1.357 . S
C153 C152 1.357 . S
C153 C154 1.406 . S
C154 H128 0.929 . S
C154 C153 1.406 . S
C154 C155 1.391 . S
C155 H127 0.931 . S
C155 C150 1.370 . S
C155 C154 1.391 . S
C156 N125 1.435 . S
C156 C157 1.358 . S
C156 C161 1.371 . S
C157 H129 0.930 . S
C157 C156 1.358 . S
C157 C158 1.405 . S
C158 H130 0.932 . S
C158 C157 1.405 . S
C158 C159 1.383 . S
C159 C158 1.383 . S
C159 C160 1.393 . S
C160 H132 0.931 . S
C160 C159 1.393 . S
C160 C161 1.382 . S
C161 H131 0.929 . S
C161 C156 1.371 . S
C161 C160 1.382 . S
C162 N125 1.423 . S
C162 C163 1.362 . S
C162 C167 1.388 . S
C163 H133 0.929 . S
C163 C162 1.362 . S
C163 C164 1.376 . S
C164 H135 0.931 . S
C164 C163 1.376 . S
C164 C165 1.396 . S
C165 C164 1.396 . S
C165 C166 1.348 . S
C165 C183 1.472 . S
C166 H136 0.929 . S
C166 C165 1.348 . S
C166 C167 1.443 . S
C167 H134 0.932 . S
C167 C162 1.388 . S
C167 C166 1.443 . S
C168 N148 1.433 . S
C168 C169 1.363 . S
C168 C173 1.370 . S
C169 H137 0.929 . S
C169 C168 1.363 . S
C169 C170 1.385 . S
C170 H138 0.930 . S
C170 C169 1.385 . S
C170 C171 1.357 . S
C171 C170 1.357 . S
C171 C172 1.406 . S
C172 H139 0.929 . S
C172 C171 1.406 . S
C172 C173 1.391 . S
C173 H140 0.931 . S
C173 C168 1.370 . S
C173 C172 1.391 . S
C174 N148 1.435 . S
C174 C175 1.358 . S
C174 C179 1.371 . S
C175 H141 0.930 . S
C175 C174 1.358 . S
C175 C176 1.405 . S
C176 H142 0.932 . S
C176 C175 1.405 . S
C176 C177 1.383 . S
C177 C176 1.383 . S
C177 C178 1.393 . S
C178 H143 0.931 . S
C178 C177 1.393 . S
C178 C179 1.382 . S
C179 H144 0.929 . S
C179 C174 1.371 . S
C179 C178 1.382 . S
C180 N148 1.423 . S
C180 C181 1.362 . S
C180 C185 1.388 . S
C181 H145 0.929 . S
C181 C180 1.362 . S
C181 C182 1.376 . S
C182 H146 0.931 . S
C182 C181 1.376 . S
C182 C183 1.396 . S
C183 C165 1.472 . S
C183 C182 1.396 . S
C183 C184 1.348 . S
C184 H147 0.929 . S
C184 C183 1.348 . S
C184 C185 1.443 . S
C185 H149 0.932 . S
C185 C180 1.388 . S
C185 C184 1.443 . S
H186 C213 0.929 . S
N187 C212 1.433 . S
N187 C218 1.435 . S
N187 C224 1.423 . S
H188 C214 0.930 . S
H189 C217 0.931 . S
H190 C216 0.929 . S
H191 C219 0.930 . S
H192 C220 0.932 . S
H193 C223 0.929 . S
H194 C222 0.931 . S
H195 C225 0.929 . S
H196 C229 0.932 . S
H197 C226 0.931 . S
H198 C228 0.929 . S
H199 C231 0.929 . S
H200 C232 0.930 . S
H201 C234 0.929 . S
H202 C235 0.931 . S
H203 C237 0.930 . S
H204 C238 0.932 . S
H205 C240 0.931 . S
H206 C241 0.929 . S
H207 C243 0.929 . S
H208 C244 0.931 . S
H209 C246 0.929 . S
N210 C230 1.433 . S
N210 C236 1.435 . S
N210 C242 1.423 . S
H211 C247 0.932 . S
C212 N187 1.433 . S
C212 C213 1.363 . S
C212 C217 1.370 . S
C213 H186 0.929 . S
C213 C212 1.363 . S
C213 C214 1.385 . S
C214 H188 0.930 . S
C214 C213 1.385 . S
C214 C215 1.357 . S
C215 C214 1.357 . S
C215 C216 1.406 . S
C216 H190 0.929 . S
C216 C215 1.406 . S
C216 C217 1.391 . S
C217 H189 0.931 . S
C217 C212 1.370 . S
C217 C216 1.391 . S
C218 N187 1.435 . S
C218 C219 1.358 . S
C218 C223 1.371 . S
C219 H191 0.930 . S
C219 C218 1.358 . S
C219 C220 1.405 . S
C220 H192 0.932 . S
C220 C219 1.405 . S
C220 C221 1.383 . S
C221 C220 1.383 . S
C221 C222 1.393 . S
C222 H194 0.931 . S
C222 C221 1.393 . S
C222 C223 1.382 . S
C223 H193 0.929 . S
C223 C218 1.371 . S
C223 C222 1.382 . S
C224 N187 1.423 . S
C224 C225 1.362 . S
C224 C229 1.388 . S
C225 H195 0.929 . S
C225 C224 1.362 . S
C225 C226 1.376 . S
C226 H197 0.931 . S
C226 C225 1.376 . S
C226 C227 1.396 . S
C227 C226 1.396 . S
C227 C228 1.348 . S
C227 C245 1.472 1_455 S
C228 H198 0.929 . S
C228 C227 1.348 . S
C228 C229 1.443 . S
C229 H196 0.932 . S
C229 C224 1.388 . S
C229 C228 1.443 . S
C230 N210 1.433 . S
C230 C231 1.363 . S
C230 C235 1.370 . S
C231 H199 0.929 . S
C231 C230 1.363 . S
C231 C232 1.385 . S
C232 H200 0.930 . S
C232 C231 1.385 . S
C232 C233 1.357 . S
C233 C232 1.357 . S
C233 C234 1.406 . S
C234 H201 0.929 . S
C234 C233 1.406 . S
C234 C235 1.391 . S
C235 H202 0.931 . S
C235 C230 1.370 . S
C235 C234 1.391 . S
C236 N210 1.435 . S
C236 C237 1.358 . S
C236 C241 1.371 . S
C237 H203 0.930 . S
C237 C236 1.358 . S
C237 C238 1.405 . S
C238 H204 0.932 . S
C238 C237 1.405 . S
C238 C239 1.383 . S
C239 C238 1.383 . S
C239 C240 1.393 . S
C240 H205 0.931 . S
C240 C239 1.393 . S
C240 C241 1.382 . S
C241 H206 0.929 . S
C241 C236 1.371 . S
C241 C240 1.382 . S
C242 N210 1.423 . S
C242 C243 1.362 . S
C242 C247 1.388 . S
C243 H207 0.929 . S
C243 C242 1.362 . S
C243 C244 1.376 . S
C244 H208 0.931 . S
C244 C243 1.376 . S
C244 C245 1.396 . S
C245 C227 1.472 1_655 S
C245 C244 1.396 . S
C245 C246 1.348 . S
C246 H209 0.929 . S
C246 C245 1.348 . S
C246 C247 1.443 . S
C247 H211 0.932 . S
C247 C242 1.388 . S
C247 C246 1.443 . S
H248 C275 0.929 . S
N249 C274 1.433 . S
N249 C280 1.435 . S
N249 C286 1.423 . S
H250 C276 0.930 . S
H251 C279 0.931 . S
H252 C278 0.929 . S
H253 C281 0.930 . S
H254 C282 0.932 . S
H255 C285 0.929 . S
H256 C284 0.931 . S
H257 C287 0.929 . S
H258 C291 0.932 . S
H259 C288 0.931 . S
H260 C290 0.929 . S
H261 C293 0.929 . S
H262 C294 0.930 . S
H263 C296 0.929 . S
H264 C297 0.931 . S
H265 C299 0.945 . S
H266 C300 0.932 . S
H267 C302 0.931 . S
H268 C303 0.929 . S
H269 C305 0.929 1_554 S
H270 C306 0.915 1_545 S
H271 C308 0.929 . S
N272 C292 1.433 1_556 S
N272 C298 1.435 . S
N272 C304 1.423 . S
H273 C309 0.932 . S
C274 N249 1.433 . S
C274 C275 1.363 . S
C274 C279 1.370 . S
C275 H248 0.929 . S
C275 C274 1.363 . S
C275 C276 1.385 . S
C276 H250 0.930 . S
C276 C275 1.385 . S
C276 C277 1.357 1_556 S
C277 C276 1.357 1_554 S
C277 C278 1.406 . S
C278 H252 0.929 . S
C278 C277 1.406 . S
C278 C279 1.391 1_554 S
C279 H251 0.931 . S
C279 C274 1.370 . S
C279 C278 1.391 1_556 S
C280 N249 1.435 . S
C280 C281 1.358 . S
C280 C285 1.371 . S
C281 H253 0.930 . S
C281 C280 1.358 . S
C281 C282 1.405 . S
C282 H254 0.932 . S
C282 C281 1.405 . S
C282 C283 1.383 . S
C283 C282 1.383 . S
C283 C284 1.393 . S
C284 H256 0.931 . S
C284 C283 1.393 . S
C284 C285 1.382 . S
C285 H255 0.929 . S
C285 C280 1.371 . S
C285 C284 1.382 . S
C286 N249 1.423 . S
C286 C287 1.362 . S
C286 C291 1.388 . S
C287 H257 0.929 . S
C287 C286 1.362 . S
C287 C288 1.376 . S
C288 H259 0.931 . S
C288 C287 1.376 . S
C288 C289 1.396 . S
C289 C288 1.396 . S
C289 C290 1.348 . S
C289 C307 1.472 1_545 S
C290 H260 0.929 . S
C290 C289 1.348 . S
C290 C291 1.443 . S
C291 H258 0.932 . S
C291 C286 1.388 . S
C291 C290 1.443 . S
C292 N272 1.433 1_554 S
C292 C293 1.363 . S
C292 C297 1.370 . S
C293 H261 0.929 . S
C293 C292 1.363 . S
C293 C294 1.385 . S
C294 H262 0.930 . S
C294 C293 1.385 . S
C294 C295 1.357 . S
C295 C294 1.357 . S
C295 C296 1.406 . S
C296 H263 0.929 . S
C296 C295 1.406 . S
C296 C297 1.391 . S
C297 H264 0.931 . S
C297 C292 1.370 . S
C297 C296 1.391 . S
C298 N272 1.435 . S
C298 C299 1.358 . S
C298 C303 1.371 . S
C299 H265 0.945 . S
C299 C298 1.358 . S
C299 C300 1.405 . S
C300 H266 0.932 . S
C300 C299 1.405 . S
C300 C301 1.383 . S
C301 C300 1.383 . S
C301 C302 1.393 . S
C302 H267 0.931 . S
C302 C301 1.393 . S
C302 C303 1.382 . S
C303 H268 0.929 . S
C303 C298 1.371 . S
C303 C302 1.382 . S
C304 N272 1.423 . S
C304 C305 1.362 . S
C304 C309 1.388 . S
C305 H269 0.929 1_556 S
C305 C304 1.362 . S
C305 C306 1.376 . S
C306 H270 0.915 1_565 S
C306 C305 1.376 . S
C306 C307 1.396 . S
C307 C289 1.472 1_565 S
C307 C306 1.396 . S
C307 C308 1.348 . S
C308 H271 0.929 . S
C308 C307 1.348 . S
C308 C309 1.443 . S
C309 H273 0.932 . S
C309 C304 1.388 . S
C309 C308 1.443 . S
H310 C337 0.929 . S
N311 C336 1.433 . S
N311 C342 1.435 . S
N311 C348 1.423 . S
H312 C338 0.930 . S
H313 C341 0.931 . S
H314 C340 0.929 . S
H315 C343 0.930 . S
H316 C344 0.932 . S
H317 C347 0.929 . S
H318 C346 0.931 . S
H319 C349 0.929 . S
H320 C353 0.932 . S
H321 C350 0.931 . S
H322 C352 0.929 . S
H323 C355 0.929 . S
H324 C356 0.930 . S
H325 C358 0.929 . S
H326 C359 0.931 . S
H327 C361 0.930 . S
H328 C362 0.932 . S
H329 C364 0.931 . S
H330 C365 0.929 . S
H331 C367 0.929 . S
H332 C368 0.931 . S
H333 C370 0.929 . S
N334 C354 1.433 . S
N334 C360 1.435 . S
N334 C366 1.423 . S
H335 C371 0.932 . S
C336 N311 1.433 . S
C336 C337 1.363 . S
C336 C341 1.370 . S
C337 H310 0.929 . S
C337 C336 1.363 . S
C337 C338 1.385 . S
C338 H312 0.930 . S
C338 C337 1.385 . S
C338 C339 1.357 . S
C339 C338 1.357 . S
C339 C340 1.406 . S
C340 H314 0.929 . S
C340 C339 1.406 . S
C340 C341 1.391 . S
C341 H313 0.931 . S
C341 C336 1.370 . S
C341 C340 1.391 . S
C342 N311 1.435 . S
C342 C343 1.358 . S
C342 C347 1.371 . S
C343 H315 0.930 . S
C343 C342 1.358 . S
C343 C344 1.405 . S
C344 H316 0.932 . S
C344 C343 1.405 . S
C344 C345 1.383 . S
C345 C344 1.383 . S
C345 C346 1.393 . S
C346 H318 0.931 . S
C346 C345 1.393 . S
C346 C347 1.382 . S
C347 H317 0.929 . S
C347 C342 1.371 . S
C347 C346 1.382 . S
C348 N311 1.423 . S
C348 C349 1.362 . S
C348 C353 1.388 . S
C349 H319 0.929 . S
C349 C348 1.362 . S
C349 C350 1.376 . S
C350 H321 0.931 . S
C350 C349 1.376 . S
C350 C351 1.396 . S
C351 C350 1.396 . S
C351 C352 1.348 . S
C351 C369 1.472 . S
C352 H322 0.929 . S
C352 C351 1.348 . S
C352 C353 1.443 . S
C353 H320 0.932 . S
C353 C348 1.388 . S
C353 C352 1.443 . S
C354 N334 1.433 . S
C354 C355 1.363 . S
C354 C359 1.370 . S
C355 H323 0.929 . S
C355 C354 1.363 . S
C355 C356 1.385 . S
C356 H324 0.930 . S
C356 C355 1.385 . S
C356 C357 1.357 . S
C357 C356 1.357 . S
C357 C358 1.406 . S
C358 H325 0.929 . S
C358 C357 1.406 . S
C358 C359 1.391 . S
C359 H326 0.931 . S
C359 C354 1.370 . S
C359 C358 1.391 . S
C360 N334 1.435 . S
C360 C361 1.358 . S
C360 C365 1.371 . S
C361 H327 0.930 . S
C361 C360 1.358 . S
C361 C362 1.405 . S
C362 H328 0.932 . S
C362 C361 1.405 . S
C362 C363 1.383 . S
C363 C362 1.383 . S
C363 C364 1.393 . S
C364 H329 0.931 . S
C364 C363 1.393 . S
C364 C365 1.382 . S
C365 H330 0.929 . S
C365 C360 1.371 . S
C365 C364 1.382 . S
C366 N334 1.423 . S
C366 C367 1.362 . S
C366 C371 1.388 . S
C367 H331 0.929 . S
C367 C366 1.362 . S
C367 C368 1.376 . S
C368 H332 0.931 . S
C368 C367 1.376 . S
C368 C369 1.396 . S
C369 C351 1.472 . S
C369 C368 1.396 . S
C369 C370 1.348 . S
C370 H333 0.929 . S
C370 C369 1.348 . S
C370 C371 1.443 . S
C371 H335 0.932 . S
C371 C366 1.388 . S
C371 C370 1.443 . S
O372 Cd373 2.223 . S
O372 C380 1.315 . S
Cd373 O372 2.223 . S
Cd373 O376 2.297 . S
Cd373 O377 2.439 . S
Cd373 O383 2.240 . S
Cd374 O375 2.240 . S
Cd374 O382 2.223 . S
Cd374 O384 2.297 . S
Cd374 O385 2.439 . S
O375 Cd374 2.240 . S
O375 C380 1.279 . S
O376 Cd373 2.297 . S
O376 C378 1.247 . S
O377 Cd373 2.439 . S
O377 C378 1.208 . S
C378 O376 1.247 . S
C378 O377 1.208 . S
C379 O384 1.247 . S
C379 O385 1.208 . S
C380 O372 1.315 . S
C380 O375 1.279 . S
C381 O382 1.315 . S
C381 O383 1.279 . S
O382 Cd374 2.223 . S
O382 C381 1.315 . S
O383 Cd373 2.240 . S
O383 C381 1.279 . S
O384 Cd374 2.297 . S
O384 C379 1.247 . S
O385 Cd374 2.439 . S
O385 C379 1.208 . S
O386 Cd387 2.223 . S
O386 C394 1.315 . S
Cd387 O386 2.223 . S
Cd387 O390 2.297 . S
Cd387 O391 2.439 . S
Cd387 O397 2.240 . S
Cd388 O389 2.240 . S
Cd388 O396 2.223 . S
Cd388 O398 2.297 . S
Cd388 O399 2.439 . S
O389 Cd388 2.240 . S
O389 C394 1.279 . S
O390 Cd387 2.297 . S
O390 C392 1.247 . S
O391 Cd387 2.439 . S
O391 C392 1.208 . S
C392 O390 1.247 . S
C392 O391 1.208 . S
C393 O398 1.247 . S
C393 O399 1.208 . S
C394 O386 1.315 . S
C394 O389 1.279 . S
C395 O396 1.315 . S
C395 O397 1.279 . S
O396 Cd388 2.223 . S
O396 C395 1.315 . S
O397 Cd387 2.240 . S
O397 C395 1.279 . S
O398 Cd388 2.297 . S
O398 C393 1.247 . S
O399 Cd388 2.439 . S
O399 C393 1.208 . S
O400 Cd401 2.223 . S
O400 C408 1.315 . S
Cd401 O400 2.223 . S
Cd401 O404 2.297 . S
Cd401 O405 2.439 . S
Cd401 O411 2.240 . S
Cd402 O403 2.240 . S
Cd402 O410 2.223 . S
Cd402 O412 2.297 . S
Cd402 O413 2.439 . S
O403 Cd402 2.240 . S
O403 C408 1.279 . S
O404 Cd401 2.297 . S
O404 C406 1.247 . S
O405 Cd401 2.439 . S
O405 C406 1.208 . S
C406 O404 1.247 . S
C406 O405 1.208 . S
C407 O412 1.247 . S
C407 O413 1.208 . S
C408 O400 1.315 . S
C408 O403 1.279 . S
C409 O410 1.315 . S
C409 O411 1.279 . S
O410 Cd402 2.223 . S
O410 C409 1.315 . S
O411 Cd401 2.240 . S
O411 C409 1.279 . S
O412 Cd402 2.297 . S
O412 C407 1.247 . S
O413 Cd402 2.439 . S
O413 C407 1.208 . S
O414 Cd415 2.223 . S
O414 C422 1.315 . S
Cd415 O414 2.223 . S
Cd415 O418 2.297 . S
Cd415 O419 2.439 . S
Cd415 O425 2.240 . S
Cd416 O417 2.240 . S
Cd416 O424 2.223 . S
Cd416 O426 2.297 . S
Cd416 O427 2.439 . S
O417 Cd416 2.240 . S
O417 C422 1.279 . S
O418 Cd415 2.297 . S
O418 C420 1.247 . S
O419 Cd415 2.439 . S
O419 C420 1.208 . S
C420 O418 1.247 . S
C420 O419 1.208 . S
C421 O426 1.247 . S
C421 O427 1.208 . S
C422 O414 1.315 . S
C422 O417 1.279 . S
C423 O424 1.315 . S
C423 O425 1.279 . S
O424 Cd416 2.223 . S
O424 C423 1.315 . S
O425 Cd415 2.240 . S
O425 C423 1.279 . S
O426 Cd416 2.297 . S
O426 C421 1.247 . S
O427 Cd416 2.439 . S
O427 C421 1.208 . S
O428 Cd429 2.223 . S
O428 C436 1.315 . S
Cd429 O428 2.223 . S
Cd429 O432 2.297 . S
Cd429 O433 2.439 . S
Cd429 O439 2.240 . S
Cd430 O431 2.240 . S
Cd430 O438 2.223 . S
Cd430 O440 2.297 . S
Cd430 O441 2.439 . S
O431 Cd430 2.240 . S
O431 C436 1.279 . S
O432 Cd429 2.297 . S
O432 C434 1.247 . S
O433 Cd429 2.439 . S
O433 C434 1.208 . S
C434 O432 1.247 . S
C434 O433 1.208 . S
C435 O440 1.247 . S
C435 O441 1.208 . S
C436 O428 1.315 . S
C436 O431 1.279 . S
C437 O438 1.315 . S
C437 O439 1.279 . S
O438 Cd430 2.223 . S
O438 C437 1.315 . S
O439 Cd429 2.240 . S
O439 C437 1.279 . S
O440 Cd430 2.297 . S
O440 C435 1.247 . S
O441 Cd430 2.439 . S
O441 C435 1.208 . S
O442 Cd443 2.223 . S
O442 C450 1.315 . S
Cd443 O442 2.223 . S
Cd443 O446 2.297 . S
Cd443 O447 2.439 . S
Cd443 O453 2.240 . S
Cd444 O445 2.240 . S
Cd444 O452 2.223 . S
Cd444 O454 2.297 . S
Cd444 O455 2.439 . S
O445 Cd444 2.240 . S
O445 C450 1.279 . S
O446 Cd443 2.297 . S
O446 C448 1.247 . S
O447 Cd443 2.439 . S
O447 C448 1.208 . S
C448 O446 1.247 . S
C448 O447 1.208 . S
C449 O454 1.247 . S
C449 O455 1.208 . S
C450 O442 1.315 . S
C450 O445 1.279 . S
C451 O452 1.315 . S
C451 O453 1.279 . S
O452 Cd444 2.223 . S
O452 C451 1.315 . S
O453 Cd443 2.240 . S
O453 C451 1.279 . S
O454 Cd444 2.297 . S
O454 C449 1.247 . S
O455 Cd444 2.439 . S
O455 C449 1.208 . S
H456 C474 0.951 . S
H457 C476 0.951 . S
H458 C478 0.950 . S
H459 C479 0.950 . S
H460 C481 0.950 . S
H461 C484 0.950 . S
H462 C485 0.950 . S
H463 C487 0.950 . S
H464 C488 0.950 . S
H465 C489 0.951 . S
H466 C491 0.951 . S
H467 C493 0.950 . S
H468 C494 0.950 . S
H469 C496 0.950 . S
H470 C499 0.950 . S
H471 C500 0.950 . S
H472 C502 0.950 . S
H473 C503 0.950 . S
C474 H456 0.951 . S
C474 C475 1.366 . S
C474 C476 1.388 . S
C475 C474 1.366 . S
C475 C479 1.385 . S
C476 H457 0.951 . S
C476 C474 1.388 . S
C476 C477 1.366 . S
C477 C476 1.366 . S
C477 C478 1.414 . S
C477 C480 1.499 . S
C478 H458 0.950 . S
C478 C477 1.414 . S
C478 C479 1.374 . S
C479 H459 0.950 . S
C479 C475 1.385 . S
C479 C478 1.374 . S
C480 C477 1.499 . S
C480 C481 1.373 . S
C480 C482 1.389 . S
C481 H460 0.950 . S
C481 C480 1.373 . S
C481 C497 1.377 . S
C482 C480 1.389 . S
C482 C483 1.524 . S
C482 C496 1.377 . S
C483 C482 1.524 . S
C483 C484 1.397 . S
C483 C488 1.363 . S
C484 H461 0.950 . S
C484 C483 1.397 . S
C484 C485 1.334 . S
C485 H462 0.950 . S
C485 C484 1.334 . S
C485 C486 1.287 . S
C486 C485 1.287 . S
C486 C487 1.524 . S
C486 H505 0.913 . S
C487 H463 0.950 . S
C487 C486 1.524 . S
C487 C488 1.415 . S
C488 H464 0.950 . S
C488 C483 1.363 . S
C488 C487 1.415 . S
C489 H465 0.951 . S
C489 C490 1.366 . S
C489 C491 1.388 . S
C490 C489 1.366 . S
C490 C494 1.385 . S
C491 H466 0.951 . S
C491 C489 1.388 . S
C491 C492 1.366 . S
C492 C491 1.366 . S
C492 C493 1.414 . S
C492 C495 1.499 . S
C493 H467 0.950 . S
C493 C492 1.414 . S
C493 C494 1.374 . S
C494 H468 0.950 . S
C494 C490 1.385 . S
C494 C493 1.374 . S
C495 C492 1.499 . S
C495 C496 1.373 . S
C495 C497 1.389 . S
C496 H469 0.950 . S
C496 C482 1.377 . S
C496 C495 1.373 . S
C497 C481 1.377 . S
C497 C495 1.389 . S
C497 C498 1.524 . S
C498 C497 1.524 . S
C498 C499 1.397 . S
C498 C503 1.363 . S
C499 H470 0.950 . S
C499 C498 1.397 . S
C499 C500 1.334 . S
C500 H471 0.950 . S
C500 C499 1.334 . S
C500 C501 1.287 . S
C501 C500 1.287 . S
C501 C502 1.524 . S
C501 H504 0.999 . S
C502 H472 0.950 . S
C502 C501 1.524 . S
C502 C503 1.415 . S
C503 H473 0.950 . S
C503 C498 1.363 . S
C503 C502 1.415 . S
H504 C501 0.999 . S
H505 C486 0.913 . S
H506 C524 0.951 . S
H507 C526 0.951 . S
H508 C528 0.950 . S
H509 C529 0.950 . S
H510 C531 0.950 . S
H511 C534 0.950 . S
H512 C535 0.950 . S
H513 C537 0.950 . S
H514 C538 0.950 . S
H515 C539 0.951 . S
H516 C541 0.951 . S
H517 C543 0.950 . S
H518 C544 0.950 . S
H519 C546 0.950 . S
H520 C549 0.950 . S
H521 C550 0.950 . S
H522 C552 0.950 . S
H523 C553 0.950 . S
C524 H506 0.951 . S
C524 C525 1.366 . S
C524 C526 1.388 . S
C525 C524 1.366 . S
C525 C529 1.385 . S
C526 H507 0.951 . S
C526 C524 1.388 . S
C526 C527 1.366 . S
C527 C526 1.366 . S
C527 C528 1.414 . S
C527 C530 1.499 . S
C528 H508 0.950 . S
C528 C527 1.414 . S
C528 C529 1.374 . S
C529 H509 0.950 . S
C529 C525 1.385 . S
C529 C528 1.374 . S
C530 C527 1.499 . S
C530 C531 1.373 . S
C530 C532 1.389 . S
C531 H510 0.950 . S
C531 C530 1.373 . S
C531 C547 1.377 . S
C532 C530 1.389 . S
C532 C533 1.524 . S
C532 C546 1.377 . S
C533 C532 1.524 . S
C533 C534 1.397 . S
C533 C538 1.363 . S
C534 H511 0.950 . S
C534 C533 1.397 . S
C534 C535 1.334 . S
C535 H512 0.950 . S
C535 C534 1.334 . S
C535 C536 1.287 . S
C536 C535 1.287 . S
C536 C537 1.524 . S
C536 H555 0.913 . S
C537 H513 0.950 . S
C537 C536 1.524 . S
C537 C538 1.415 . S
C538 H514 0.950 . S
C538 C533 1.363 . S
C538 C537 1.415 . S
C539 H515 0.951 . S
C539 C540 1.366 . S
C539 C541 1.388 . S
C540 C539 1.366 . S
C540 C544 1.385 . S
C541 H516 0.951 . S
C541 C539 1.388 . S
C541 C542 1.366 . S
C542 C541 1.366 . S
C542 C543 1.414 . S
C542 C545 1.499 . S
C543 H517 0.950 . S
C543 C542 1.414 . S
C543 C544 1.374 . S
C544 H518 0.950 . S
C544 C540 1.385 . S
C544 C543 1.374 . S
C545 C542 1.499 . S
C545 C546 1.373 . S
C545 C547 1.389 . S
C546 H519 0.950 . S
C546 C532 1.377 . S
C546 C545 1.373 . S
C547 C531 1.377 . S
C547 C545 1.389 . S
C547 C548 1.524 . S
C548 C547 1.524 . S
C548 C549 1.397 . S
C548 C553 1.363 . S
C549 H520 0.950 . S
C549 C548 1.397 . S
C549 C550 1.334 . S
C550 H521 0.950 . S
C550 C549 1.334 . S
C550 C551 1.287 . S
C551 C550 1.287 . S
C551 C552 1.524 . S
C551 H554 0.999 . S
C552 H522 0.950 . S
C552 C551 1.524 . S
C552 C553 1.415 . S
C553 H523 0.950 . S
C553 C548 1.363 . S
C553 C552 1.415 . S
H554 C551 0.999 . S
H555 C536 0.913 . S
H556 C574 0.951 . S
H557 C576 0.951 . S
H558 C578 0.950 . S
H559 C579 0.950 . S
H560 C581 0.950 . S
H561 C584 0.950 . S
H562 C585 0.950 . S
H563 C587 0.950 . S
H564 C588 0.950 . S
H565 C589 0.951 . S
H566 C591 0.951 . S
H567 C593 0.950 . S
H568 C594 0.950 . S
H569 C596 0.950 . S
H570 C599 0.950 . S
H571 C600 0.950 . S
H572 C602 0.950 . S
H573 C603 0.950 . S
C574 H556 0.951 . S
C574 C575 1.366 . S
C574 C576 1.388 . S
C575 C574 1.366 . S
C575 C579 1.385 . S
C576 H557 0.951 . S
C576 C574 1.388 . S
C576 C577 1.366 . S
C577 C576 1.366 . S
C577 C578 1.414 . S
C577 C580 1.499 . S
C578 H558 0.950 . S
C578 C577 1.414 . S
C578 C579 1.374 . S
C579 H559 0.950 . S
C579 C575 1.385 . S
C579 C578 1.374 . S
C580 C577 1.499 . S
C580 C581 1.373 . S
C580 C582 1.389 . S
C581 H560 0.950 . S
C581 C580 1.373 . S
C581 C597 1.377 . S
C582 C580 1.389 . S
C582 C583 1.524 . S
C582 C596 1.377 . S
C583 C582 1.524 . S
C583 C584 1.397 . S
C583 C588 1.363 . S
C584 H561 0.950 . S
C584 C583 1.397 . S
C584 C585 1.334 . S
C585 H562 0.950 . S
C585 C584 1.334 . S
C585 C586 1.287 . S
C586 C585 1.287 . S
C586 C587 1.524 . S
C586 H605 0.913 . S
C587 H563 0.950 . S
C587 C586 1.524 . S
C587 C588 1.415 . S
C588 H564 0.950 . S
C588 C583 1.363 . S
C588 C587 1.415 . S
C589 H565 0.951 . S
C589 C590 1.366 . S
C589 C591 1.388 . S
C590 C589 1.366 . S
C590 C594 1.385 . S
C591 H566 0.951 . S
C591 C589 1.388 . S
C591 C592 1.366 . S
C592 C591 1.366 . S
C592 C593 1.414 . S
C592 C595 1.499 . S
C593 H567 0.950 . S
C593 C592 1.414 . S
C593 C594 1.374 . S
C594 H568 0.950 . S
C594 C590 1.385 . S
C594 C593 1.374 . S
C595 C592 1.499 . S
C595 C596 1.373 . S
C595 C597 1.389 . S
C596 H569 0.950 . S
C596 C582 1.377 . S
C596 C595 1.373 . S
C597 C581 1.377 . S
C597 C595 1.389 . S
C597 C598 1.524 . S
C598 C597 1.524 . S
C598 C599 1.397 . S
C598 C603 1.363 . S
C599 H570 0.950 . S
C599 C598 1.397 . S
C599 C600 1.334 . S
C600 H571 0.950 . S
C600 C599 1.334 . S
C600 C601 1.287 . S
C601 C600 1.287 . S
C601 C602 1.524 . S
C601 H604 0.999 . S
C602 H572 0.950 . S
C602 C601 1.524 . S
C602 C603 1.415 . S
C603 H573 0.950 . S
C603 C598 1.363 . S
C603 C602 1.415 . S
H604 C601 0.999 . S
H605 C586 0.913 . S
H606 C624 0.951 . S
H607 C626 0.951 . S
H608 C628 0.950 . S
H609 C629 0.950 . S
H610 C631 0.950 . S
H611 C634 0.950 . S
H612 C635 0.950 . S
H613 C637 0.950 . S
H614 C638 0.950 . S
H615 C639 0.951 . S
H616 C641 0.951 . S
H617 C643 0.950 . S
H618 C644 0.950 . S
H619 C646 0.950 . S
H620 C649 0.950 . S
H621 C650 0.950 . S
H622 C652 0.950 . S
H623 C653 0.950 . S
C624 H606 0.951 . S
C624 C625 1.366 . S
C624 C626 1.388 . S
C625 C624 1.366 . S
C625 C629 1.385 . S
C626 H607 0.951 . S
C626 C624 1.388 . S
C626 C627 1.366 . S
C627 C626 1.366 . S
C627 C628 1.414 . S
C627 C630 1.499 . S
C628 H608 0.950 . S
C628 C627 1.414 . S
C628 C629 1.374 . S
C629 H609 0.950 . S
C629 C625 1.385 . S
C629 C628 1.374 . S
C630 C627 1.499 . S
C630 C631 1.373 . S
C630 C632 1.389 . S
C631 H610 0.950 . S
C631 C630 1.373 . S
C631 C647 1.377 . S
C632 C630 1.389 . S
C632 C633 1.524 . S
C632 C646 1.377 . S
C633 C632 1.524 . S
C633 C634 1.397 . S
C633 C638 1.363 . S
C634 H611 0.950 . S
C634 C633 1.397 . S
C634 C635 1.334 . S
C635 H612 0.950 . S
C635 C634 1.334 . S
C635 C636 1.287 . S
C636 C635 1.287 . S
C636 C637 1.524 . S
C636 H655 0.913 . S
C637 H613 0.950 . S
C637 C636 1.524 . S
C637 C638 1.415 . S
C638 H614 0.950 . S
C638 C633 1.363 . S
C638 C637 1.415 . S
C639 H615 0.951 . S
C639 C640 1.366 . S
C639 C641 1.388 . S
C640 C639 1.366 . S
C640 C644 1.385 . S
C641 H616 0.951 . S
C641 C639 1.388 . S
C641 C642 1.366 . S
C642 C641 1.366 . S
C642 C643 1.414 . S
C642 C645 1.499 . S
C643 H617 0.950 . S
C643 C642 1.414 . S
C643 C644 1.374 . S
C644 H618 0.950 . S
C644 C640 1.385 . S
C644 C643 1.374 . S
C645 C642 1.499 . S
C645 C646 1.373 . S
C645 C647 1.389 . S
C646 H619 0.950 . S
C646 C632 1.377 . S
C646 C645 1.373 . S
C647 C631 1.377 . S
C647 C645 1.389 . S
C647 C648 1.524 . S
C648 C647 1.524 . S
C648 C649 1.397 . S
C648 C653 1.363 . S
C649 H620 0.950 . S
C649 C648 1.397 . S
C649 C650 1.334 . S
C650 H621 0.950 . S
C650 C649 1.334 . S
C650 C651 1.287 . S
C651 C650 1.287 . S
C651 C652 1.524 . S
C651 H654 0.999 . S
C652 H622 0.950 . S
C652 C651 1.524 . S
C652 C653 1.415 . S
C653 H623 0.950 . S
C653 C648 1.363 . S
C653 C652 1.415 . S
H654 C651 0.999 . S
H655 C636 0.913 . S
H656 C674 0.951 . S
H657 C676 0.951 . S
H658 C678 0.950 . S
H659 C679 0.950 . S
H660 C681 0.950 . S
H661 C684 0.950 . S
H662 C685 0.950 . S
H663 C687 0.950 . S
H664 C688 0.950 . S
H665 C689 0.951 . S
H666 C691 0.951 . S
H667 C693 0.950 . S
H668 C694 0.950 . S
H669 C696 0.950 . S
H670 C699 0.950 . S
H671 C700 0.950 . S
H672 C702 0.950 . S
H673 C703 0.950 . S
C674 H656 0.951 . S
C674 C675 1.366 . S
C674 C676 1.388 . S
C675 C674 1.366 . S
C675 C679 1.385 . S
C676 H657 0.951 . S
C676 C674 1.388 . S
C676 C677 1.366 . S
C677 C676 1.366 . S
C677 C678 1.414 . S
C677 C680 1.499 . S
C678 H658 0.950 . S
C678 C677 1.414 . S
C678 C679 1.374 . S
C679 H659 0.950 . S
C679 C675 1.385 . S
C679 C678 1.374 . S
C680 C677 1.499 . S
C680 C681 1.373 . S
C680 C682 1.389 . S
C681 H660 0.950 . S
C681 C680 1.373 . S
C681 C697 1.377 . S
C682 C680 1.389 . S
C682 C683 1.524 . S
C682 C696 1.377 . S
C683 C682 1.524 . S
C683 C684 1.397 . S
C683 C688 1.363 . S
C684 H661 0.950 . S
C684 C683 1.397 . S
C684 C685 1.334 . S
C685 H662 0.950 . S
C685 C684 1.334 . S
C685 C686 1.287 . S
C686 C685 1.287 . S
C686 C687 1.524 . S
C686 H705 0.913 . S
C687 H663 0.950 . S
C687 C686 1.524 . S
C687 C688 1.415 . S
C688 H664 0.950 . S
C688 C683 1.363 . S
C688 C687 1.415 . S
C689 H665 0.951 . S
C689 C690 1.366 . S
C689 C691 1.388 . S
C690 C689 1.366 . S
C690 C694 1.385 . S
C691 H666 0.951 . S
C691 C689 1.388 . S
C691 C692 1.366 . S
C692 C691 1.366 . S
C692 C693 1.414 . S
C692 C695 1.499 . S
C693 H667 0.950 . S
C693 C692 1.414 . S
C693 C694 1.374 . S
C694 H668 0.950 . S
C694 C690 1.385 . S
C694 C693 1.374 . S
C695 C692 1.499 . S
C695 C696 1.373 . S
C695 C697 1.389 . S
C696 H669 0.950 . S
C696 C682 1.377 . S
C696 C695 1.373 . S
C697 C681 1.377 . S
C697 C695 1.389 . S
C697 C698 1.524 . S
C698 C697 1.524 . S
C698 C699 1.397 . S
C698 C703 1.363 . S
C699 H670 0.950 . S
C699 C698 1.397 . S
C699 C700 1.334 . S
C700 H671 0.950 . S
C700 C699 1.334 . S
C700 C701 1.287 . S
C701 C700 1.287 . S
C701 C702 1.524 . S
C701 H704 0.999 . S
C702 H672 0.950 . S
C702 C701 1.524 . S
C702 C703 1.415 . S
C703 H673 0.950 . S
C703 C698 1.363 . S
C703 C702 1.415 . S
H704 C701 0.999 . S
H705 C686 0.913 . S
H706 C724 0.951 . S
H707 C726 0.951 . S
H708 C728 0.950 . S
H709 C729 0.950 . S
H710 C731 0.950 . S
H711 C734 0.950 . S
H712 C735 0.950 . S
H713 C737 0.950 . S
H714 C738 0.950 . S
H715 C739 0.951 . S
H716 C741 0.951 . S
H717 C743 0.950 . S
H718 C744 0.950 . S
H719 C746 0.950 . S
H720 C749 0.950 . S
H721 C750 0.950 . S
H722 C752 0.950 . S
H723 C753 0.950 . S
C724 H706 0.951 . S
C724 C725 1.366 . S
C724 C726 1.388 . S
C725 C724 1.366 . S
C725 C729 1.385 . S
C726 H707 0.951 . S
C726 C724 1.388 . S
C726 C727 1.366 . S
C727 C726 1.366 . S
C727 C728 1.414 . S
C727 C730 1.499 . S
C728 H708 0.950 . S
C728 C727 1.414 . S
C728 C729 1.374 . S
C729 H709 0.950 . S
C729 C725 1.385 . S
C729 C728 1.374 . S
C730 C727 1.499 . S
C730 C731 1.373 . S
C730 C732 1.389 . S
C731 H710 0.950 . S
C731 C730 1.373 . S
C731 C747 1.377 . S
C732 C730 1.389 . S
C732 C733 1.524 . S
C732 C746 1.377 . S
C733 C732 1.524 . S
C733 C734 1.397 . S
C733 C738 1.363 . S
C734 H711 0.950 . S
C734 C733 1.397 . S
C734 C735 1.334 . S
C735 H712 0.950 . S
C735 C734 1.334 . S
C735 C736 1.287 . S
C736 C735 1.287 . S
C736 C737 1.524 . S
C736 H755 0.913 . S
C737 H713 0.950 . S
C737 C736 1.524 . S
C737 C738 1.415 . S
C738 H714 0.950 . S
C738 C733 1.363 . S
C738 C737 1.415 . S
C739 H715 0.951 . S
C739 C740 1.366 . S
C739 C741 1.388 . S
C740 C739 1.366 . S
C740 C744 1.385 . S
C741 H716 0.951 . S
C741 C739 1.388 . S
C741 C742 1.366 . S
C742 C741 1.366 . S
C742 C743 1.414 . S
C742 C745 1.499 . S
C743 H717 0.950 . S
C743 C742 1.414 . S
C743 C744 1.374 . S
C744 H718 0.950 . S
C744 C740 1.385 . S
C744 C743 1.374 . S
C745 C742 1.499 . S
C745 C746 1.373 . S
C745 C747 1.389 . S
C746 H719 0.950 . S
C746 C732 1.377 . S
C746 C745 1.373 . S
C747 C731 1.377 . S
C747 C745 1.389 . S
C747 C748 1.524 . S
C748 C747 1.524 . S
C748 C749 1.397 . S
C748 C753 1.363 . S
C749 H720 0.950 . S
C749 C748 1.397 . S
C749 C750 1.334 . S
C750 H721 0.950 . S
C750 C749 1.334 . S
C750 C751 1.287 . S
C751 C750 1.287 . S
C751 C752 1.524 . S
C751 H754 0.999 . S
C752 H722 0.950 . S
C752 C751 1.524 . S
C752 C753 1.415 . S
C753 H723 0.950 . S
C753 C748 1.363 . S
C753 C752 1.415 . S
H754 C751 0.999 . S
H755 C736 0.913 . S
H756 C774 0.951 . S
H757 C776 0.951 . S
H758 C778 0.950 . S
H759 C779 0.950 . S
H760 C781 0.950 . S
H761 C784 0.950 . S
H762 C785 0.950 . S
H763 C787 0.950 . S
H764 C788 0.950 . S
H765 C789 0.951 . S
H766 C791 0.951 . S
H767 C793 0.950 . S
H768 C794 0.950 . S
H769 C796 0.950 . S
H770 C799 0.950 . S
H771 C800 0.950 . S
H772 C802 0.950 . S
H773 C803 0.950 . S
C774 H756 0.951 . S
C774 C775 1.366 . S
C774 C776 1.388 . S
C775 C774 1.366 . S
C775 C779 1.385 . S
C776 H757 0.951 . S
C776 C774 1.388 . S
C776 C777 1.366 . S
C777 C776 1.366 . S
C777 C778 1.414 . S
C777 C780 1.499 . S
C778 H758 0.950 . S
C778 C777 1.414 . S
C778 C779 1.374 . S
C779 H759 0.950 . S
C779 C775 1.385 . S
C779 C778 1.374 . S
C780 C777 1.499 . S
C780 C781 1.373 . S
C780 C782 1.389 . S
C781 H760 0.950 . S
C781 C780 1.373 . S
C781 C797 1.377 . S
C782 C780 1.389 . S
C782 C783 1.524 . S
C782 C796 1.377 . S
C783 C782 1.524 . S
C783 C784 1.397 . S
C783 C788 1.363 . S
C784 H761 0.950 . S
C784 C783 1.397 . S
C784 C785 1.334 . S
C785 H762 0.950 . S
C785 C784 1.334 . S
C785 C786 1.287 . S
C786 C785 1.287 . S
C786 C787 1.524 . S
C786 H805 0.913 . S
C787 H763 0.950 . S
C787 C786 1.524 . S
C787 C788 1.415 . S
C788 H764 0.950 . S
C788 C783 1.363 . S
C788 C787 1.415 . S
C789 H765 0.951 . S
C789 C790 1.366 . S
C789 C791 1.388 . S
C790 C789 1.366 . S
C790 C794 1.385 . S
C791 H766 0.951 . S
C791 C789 1.388 . S
C791 C792 1.366 . S
C792 C791 1.366 . S
C792 C793 1.414 . S
C792 C795 1.499 . S
C793 H767 0.950 . S
C793 C792 1.414 . S
C793 C794 1.374 . S
C794 H768 0.950 . S
C794 C790 1.385 . S
C794 C793 1.374 . S
C795 C792 1.499 . S
C795 C796 1.373 . S
C795 C797 1.389 . S
C796 H769 0.950 . S
C796 C782 1.377 . S
C796 C795 1.373 . S
C797 C781 1.377 . S
C797 C795 1.389 . S
C797 C798 1.524 . S
C798 C797 1.524 . S
C798 C799 1.397 . S
C798 C803 1.363 . S
C799 H770 0.950 . S
C799 C798 1.397 . S
C799 C800 1.334 . S
C800 H771 0.950 . S
C800 C799 1.334 . S
C800 C801 1.287 . S
C801 C800 1.287 . S
C801 C802 1.524 . S
C801 H804 0.999 . S
C802 H772 0.950 . S
C802 C801 1.524 . S
C802 C803 1.415 . S
C803 H773 0.950 . S
C803 C798 1.363 . S
C803 C802 1.415 . S
H804 C801 0.999 . S
H805 C786 0.913 . S
H806 C824 0.951 . S
H807 C826 0.951 . S
H808 C828 0.950 . S
H809 C829 0.950 . S
H810 C831 0.950 . S
H811 C834 0.950 . S
H812 C835 0.950 . S
H813 C837 0.950 . S
H814 C838 0.950 . S
H815 C839 0.951 . S
H816 C841 0.951 . S
H817 C843 0.950 . S
H818 C844 0.950 . S
H819 C846 0.950 . S
H820 C849 0.950 . S
H821 C850 0.950 . S
H822 C852 0.950 . S
H823 C853 0.950 . S
C824 H806 0.951 . S
C824 C825 1.366 . S
C824 C826 1.388 . S
C825 C824 1.366 . S
C825 C829 1.385 . S
C826 H807 0.951 . S
C826 C824 1.388 . S
C826 C827 1.366 . S
C827 C826 1.366 . S
C827 C828 1.414 . S
C827 C830 1.499 . S
C828 H808 0.950 . S
C828 C827 1.414 . S
C828 C829 1.374 . S
C829 H809 0.950 . S
C829 C825 1.385 . S
C829 C828 1.374 . S
C830 C827 1.499 . S
C830 C831 1.373 . S
C830 C832 1.389 . S
C831 H810 0.950 . S
C831 C830 1.373 . S
C831 C847 1.377 . S
C832 C830 1.389 . S
C832 C833 1.524 . S
C832 C846 1.377 . S
C833 C832 1.524 . S
C833 C834 1.397 . S
C833 C838 1.363 . S
C834 H811 0.950 . S
C834 C833 1.397 . S
C834 C835 1.334 . S
C835 H812 0.950 . S
C835 C834 1.334 . S
C835 C836 1.287 . S
C836 C835 1.287 . S
C836 C837 1.524 . S
C836 H855 0.913 . S
C837 H813 0.950 . S
C837 C836 1.524 . S
C837 C838 1.415 . S
C838 H814 0.950 . S
C838 C833 1.363 . S
C838 C837 1.415 . S
C839 H815 0.951 . S
C839 C840 1.366 . S
C839 C841 1.388 . S
C840 C839 1.366 . S
C840 C844 1.385 . S
C841 H816 0.951 . S
C841 C839 1.388 . S
C841 C842 1.366 . S
C842 C841 1.366 . S
C842 C843 1.414 . S
C842 C845 1.499 . S
C843 H817 0.950 . S
C843 C842 1.414 . S
C843 C844 1.374 . S
C844 H818 0.950 . S
C844 C840 1.385 . S
C844 C843 1.374 . S
C845 C842 1.499 . S
C845 C846 1.373 . S
C845 C847 1.389 . S
C846 H819 0.950 . S
C846 C832 1.377 . S
C846 C845 1.373 . S
C847 C831 1.377 . S
C847 C845 1.389 . S
C847 C848 1.524 . S
C848 C847 1.524 . S
C848 C849 1.397 . S
C848 C853 1.363 . S
C849 H820 0.950 . S
C849 C848 1.397 . S
C849 C850 1.334 . S
C850 H821 0.950 . S
C850 C849 1.334 . S
C850 C851 1.287 . S
C851 C850 1.287 . S
C851 C852 1.524 . S
C851 H854 0.999 . S
C852 H822 0.950 . S
C852 C851 1.524 . S
C852 C853 1.415 . S
C853 H823 0.950 . S
C853 C848 1.363 . S
C853 C852 1.415 . S
H854 C851 0.999 . S
H855 C836 0.913 . S
H856 C874 0.951 . S
H857 C876 0.951 . S
H858 C878 0.950 . S
H859 C879 0.950 . S
H860 C881 0.950 . S
H861 C884 0.950 . S
H862 C885 0.950 . S
H863 C887 0.950 . S
H864 C888 0.950 . S
H865 C889 0.951 . S
H866 C891 0.951 . S
H867 C893 0.950 . S
H868 C894 0.950 . S
H869 C896 0.950 . S
H870 C899 0.950 . S
H871 C900 0.950 . S
H872 C902 0.950 . S
H873 C903 0.950 . S
C874 H856 0.951 . S
C874 C875 1.366 . S
C874 C876 1.388 . S
C875 C874 1.366 . S
C875 C879 1.385 . S
C876 H857 0.951 . S
C876 C874 1.388 . S
C876 C877 1.366 . S
C877 C876 1.366 . S
C877 C878 1.414 . S
C877 C880 1.499 . S
C878 H858 0.950 . S
C878 C877 1.414 . S
C878 C879 1.374 . S
C879 H859 0.950 . S
C879 C875 1.385 . S
C879 C878 1.374 . S
C880 C877 1.499 . S
C880 C881 1.373 . S
C880 C882 1.389 . S
C881 H860 0.950 . S
C881 C880 1.373 . S
C881 C897 1.377 . S
C882 C880 1.389 . S
C882 C883 1.524 . S
C882 C896 1.377 . S
C883 C882 1.524 . S
C883 C884 1.397 . S
C883 C888 1.363 . S
C884 H861 0.950 . S
C884 C883 1.397 . S
C884 C885 1.334 . S
C885 H862 0.950 . S
C885 C884 1.334 . S
C885 C886 1.287 . S
C886 C885 1.287 . S
C886 C887 1.524 . S
C886 H905 0.913 . S
C887 H863 0.950 . S
C887 C886 1.524 . S
C887 C888 1.415 . S
C888 H864 0.950 . S
C888 C883 1.363 . S
C888 C887 1.415 . S
C889 H865 0.951 . S
C889 C890 1.366 . S
C889 C891 1.388 . S
C890 C889 1.366 . S
C890 C894 1.385 . S
C891 H866 0.951 . S
C891 C889 1.388 . S
C891 C892 1.366 . S
C892 C891 1.366 . S
C892 C893 1.414 . S
C892 C895 1.499 . S
C893 H867 0.950 . S
C893 C892 1.414 . S
C893 C894 1.374 . S
C894 H868 0.950 . S
C894 C890 1.385 . S
C894 C893 1.374 . S
C895 C892 1.499 . S
C895 C896 1.373 . S
C895 C897 1.389 . S
C896 H869 0.950 . S
C896 C882 1.377 . S
C896 C895 1.373 . S
C897 C881 1.377 . S
C897 C895 1.389 . S
C897 C898 1.524 . S
C898 C897 1.524 . S
C898 C899 1.397 . S
C898 C903 1.363 . S
C899 H870 0.950 . S
C899 C898 1.397 . S
C899 C900 1.334 . S
C900 H871 0.950 . S
C900 C899 1.334 . S
C900 C901 1.287 . S
C901 C900 1.287 . S
C901 C902 1.524 . S
C901 H904 0.999 . S
C902 H872 0.950 . S
C902 C901 1.524 . S
C902 C903 1.415 . S
C903 H873 0.950 . S
C903 C898 1.363 . S
C903 C902 1.415 . S
H904 C901 0.999 . S
H905 C886 0.913 . S
H906 C924 0.951 . S
H907 C926 0.951 . S
H908 C928 0.950 . S
H909 C929 0.950 . S
H910 C931 0.950 . S
H911 C934 0.950 . S
H912 C935 0.950 . S
H913 C937 0.950 . S
H914 C938 0.950 . S
H915 C939 0.951 . S
H916 C941 0.951 . S
H917 C943 0.950 . S
H918 C944 0.950 . S
H919 C946 0.950 . S
H920 C949 0.950 . S
H921 C950 0.950 . S
H922 C952 0.950 . S
H923 C953 0.950 . S
C924 H906 0.951 . S
C924 C925 1.366 . S
C924 C926 1.388 . S
C925 C924 1.366 . S
C925 C929 1.385 . S
C926 H907 0.951 . S
C926 C924 1.388 . S
C926 C927 1.366 . S
C927 C926 1.366 . S
C927 C928 1.414 . S
C927 C930 1.499 . S
C928 H908 0.950 . S
C928 C927 1.414 . S
C928 C929 1.374 . S
C929 H909 0.950 . S
C929 C925 1.385 . S
C929 C928 1.374 . S
C930 C927 1.499 . S
C930 C931 1.373 . S
C930 C932 1.389 . S
C931 H910 0.950 . S
C931 C930 1.373 . S
C931 C947 1.377 . S
C932 C930 1.389 . S
C932 C933 1.524 1_554 S
C932 C946 1.377 . S
C933 C932 1.524 1_556 S
C933 C934 1.397 . S
C933 C938 1.363 . S
C934 H911 0.950 . S
C934 C933 1.397 . S
C934 C935 1.334 . S
C935 H912 0.950 . S
C935 C934 1.334 . S
C935 C936 1.287 . S
C936 C935 1.287 . S
C936 C937 1.524 . S
C936 H955 0.913 . S
C937 H913 0.950 . S
C937 C936 1.524 . S
C937 C938 1.415 . S
C938 H914 0.950 . S
C938 C933 1.363 . S
C938 C937 1.415 . S
C939 H915 0.951 . S
C939 C940 1.366 . S
C939 C941 1.388 . S
C940 C939 1.366 . S
C940 C944 1.385 . S
C941 H916 0.951 . S
C941 C939 1.388 . S
C941 C942 1.366 . S
C942 C941 1.366 . S
C942 C943 1.414 . S
C942 C945 1.499 . S
C943 H917 0.950 . S
C943 C942 1.414 . S
C943 C944 1.374 . S
C944 H918 0.950 . S
C944 C940 1.385 . S
C944 C943 1.374 . S
C945 C942 1.499 . S
C945 C946 1.373 . S
C945 C947 1.389 . S
C946 H919 0.950 . S
C946 C932 1.377 . S
C946 C945 1.373 . S
C947 C931 1.377 . S
C947 C945 1.389 . S
C947 C948 1.524 . S
C948 C947 1.524 . S
C948 C949 1.397 . S
C948 C953 1.363 . S
C949 H920 0.950 . S
C949 C948 1.397 . S
C949 C950 1.334 . S
C950 H921 0.950 . S
C950 C949 1.334 . S
C950 C951 1.287 . S
C951 C950 1.287 . S
C951 C952 1.524 . S
C951 H954 0.999 . S
C952 H922 0.950 . S
C952 C951 1.524 . S
C952 C953 1.415 . S
C953 H923 0.950 . S
C953 C948 1.363 . S
C953 C952 1.415 . S
H954 C951 0.999 . S
H955 C936 0.913 . S
H956 C974 0.951 . S
H957 C976 0.951 . S
H958 C978 0.950 . S
H959 C979 0.950 . S
H960 C981 0.950 . S
H961 C984 0.950 . S
H962 C985 0.950 . S
H963 C987 0.950 . S
H964 C988 0.950 . S
H965 C989 0.951 . S
H966 C991 0.951 . S
H967 C993 0.950 . S
H968 C994 0.950 . S
H969 C996 0.950 . S
H970 C999 0.950 . S
H971 C1000 0.950 . S
H972 C1002 0.950 . S
H973 C1003 0.950 . S
C974 H956 0.951 . S
C974 C975 1.366 . S
C974 C976 1.388 . S
C975 C974 1.366 . S
C975 C979 1.385 . S
C976 H957 0.951 . S
C976 C974 1.388 . S
C976 C977 1.366 . S
C977 C976 1.366 . S
C977 C978 1.414 . S
C977 C980 1.499 . S
C978 H958 0.950 . S
C978 C977 1.414 . S
C978 C979 1.374 . S
C979 H959 0.950 . S
C979 C975 1.385 . S
C979 C978 1.374 . S
C980 C977 1.499 . S
C980 C981 1.373 . S
C980 C982 1.389 . S
C981 H960 0.950 . S
C981 C980 1.373 . S
C981 C997 1.377 . S
C982 C980 1.389 . S
C982 C983 1.524 . S
C982 C996 1.377 . S
C983 C982 1.524 . S
C983 C984 1.397 . S
C983 C988 1.363 . S
C984 H961 0.950 . S
C984 C983 1.397 . S
C984 C985 1.334 . S
C985 H962 0.950 . S
C985 C984 1.334 . S
C985 C986 1.287 . S
C986 C985 1.287 . S
C986 C987 1.524 . S
C986 H1005 0.913 . S
C987 H963 0.950 . S
C987 C986 1.524 . S
C987 C988 1.415 . S
C988 H964 0.950 . S
C988 C983 1.363 . S
C988 C987 1.415 . S
C989 H965 0.951 . S
C989 C990 1.366 . S
C989 C991 1.388 . S
C990 C989 1.366 . S
C990 C994 1.385 . S
C991 H966 0.951 . S
C991 C989 1.388 . S
C991 C992 1.366 . S
C992 C991 1.366 . S
C992 C993 1.414 . S
C992 C995 1.499 . S
C993 H967 0.950 . S
C993 C992 1.414 . S
C993 C994 1.374 . S
C994 H968 0.950 . S
C994 C990 1.385 . S
C994 C993 1.374 . S
C995 C992 1.499 . S
C995 C996 1.373 . S
C995 C997 1.389 . S
C996 H969 0.950 . S
C996 C982 1.377 . S
C996 C995 1.373 . S
C997 C981 1.377 . S
C997 C995 1.389 . S
C997 C998 1.524 . S
C998 C997 1.524 . S
C998 C999 1.397 . S
C998 C1003 1.363 . S
C999 H970 0.950 . S
C999 C998 1.397 . S
C999 C1000 1.334 . S
C1000 H971 0.950 . S
C1000 C999 1.334 . S
C1000 C1001 1.287 . S
C1001 C1000 1.287 . S
C1001 C1002 1.524 . S
C1001 H1004 0.999 . S
C1002 H972 0.950 . S
C1002 C1001 1.524 . S
C1002 C1003 1.415 . S
C1003 H973 0.950 . S
C1003 C998 1.363 . S
C1003 C1002 1.415 . S
H1004 C1001 0.999 . S
H1005 C986 0.913 . S
H1006 C1024 0.951 . S
H1007 C1026 0.951 . S
H1008 C1028 0.950 . S
H1009 C1029 0.950 . S
H1010 C1031 0.950 . S
H1011 C1034 0.950 . S
H1012 C1035 0.950 . S
H1013 C1037 0.950 . S
H1014 C1038 0.950 . S
H1015 C1039 0.951 . S
H1016 C1041 0.951 . S
H1017 C1043 0.950 . S
H1018 C1044 0.950 . S
H1019 C1046 0.950 . S
H1020 C1049 0.950 . S
H1021 C1050 0.950 . S
H1022 C1052 0.950 . S
H1023 C1053 0.950 . S
C1024 H1006 0.951 . S
C1024 C1025 1.366 . S
C1024 C1026 1.388 . S
C1025 C1024 1.366 . S
C1025 C1029 1.385 . S
C1026 H1007 0.951 . S
C1026 C1024 1.388 . S
C1026 C1027 1.366 . S
C1027 C1026 1.366 . S
C1027 C1028 1.414 . S
C1027 C1030 1.499 . S
C1028 H1008 0.950 . S
C1028 C1027 1.414 . S
C1028 C1029 1.374 . S
C1029 H1009 0.950 . S
C1029 C1025 1.385 . S
C1029 C1028 1.374 . S
C1030 C1027 1.499 . S
C1030 C1031 1.373 . S
C1030 C1032 1.389 . S
C1031 H1010 0.950 . S
C1031 C1030 1.373 . S
C1031 C1047 1.377 . S
C1032 C1030 1.389 . S
C1032 C1033 1.524 . S
C1032 C1046 1.377 . S
C1033 C1032 1.524 . S
C1033 C1034 1.397 . S
C1033 C1038 1.363 . S
C1034 H1011 0.950 . S
C1034 C1033 1.397 . S
C1034 C1035 1.334 . S
C1035 H1012 0.950 . S
C1035 C1034 1.334 . S
C1035 C1036 1.287 . S
C1036 C1035 1.287 . S
C1036 C1037 1.524 . S
C1036 H1055 0.913 . S
C1037 H1013 0.950 . S
C1037 C1036 1.524 . S
C1037 C1038 1.415 . S
C1038 H1014 0.950 . S
C1038 C1033 1.363 . S
C1038 C1037 1.415 . S
C1039 H1015 0.951 . S
C1039 C1040 1.366 . S
C1039 C1041 1.388 . S
C1040 C1039 1.366 . S
C1040 C1044 1.385 . S
C1041 H1016 0.951 . S
C1041 C1039 1.388 . S
C1041 C1042 1.366 . S
C1042 C1041 1.366 . S
C1042 C1043 1.414 . S
C1042 C1045 1.499 . S
C1043 H1017 0.950 . S
C1043 C1042 1.414 . S
C1043 C1044 1.374 . S
C1044 H1018 0.950 . S
C1044 C1040 1.385 . S
C1044 C1043 1.374 . S
C1045 C1042 1.499 . S
C1045 C1046 1.373 . S
C1045 C1047 1.389 . S
C1046 H1019 0.950 . S
C1046 C1032 1.377 . S
C1046 C1045 1.373 . S
C1047 C1031 1.377 . S
C1047 C1045 1.389 . S
C1047 C1048 1.524 . S
C1048 C1047 1.524 . S
C1048 C1049 1.397 . S
C1048 C1053 1.363 . S
C1049 H1020 0.950 . S
C1049 C1048 1.397 . S
C1049 C1050 1.334 . S
C1050 H1021 0.950 . S
C1050 C1049 1.334 . S
C1050 C1051 1.287 . S
C1051 C1050 1.287 . S
C1051 C1052 1.524 . S
C1051 H1054 0.999 . S
C1052 H1022 0.950 . S
C1052 C1051 1.524 . S
C1052 C1053 1.415 . S
C1053 H1023 0.950 . S
C1053 C1048 1.363 . S
C1053 C1052 1.415 . S
H1054 C1051 0.999 . S
H1055 C1036 0.913 . S
H1056 C1074 0.951 . S
H1057 C1076 0.951 . S
H1058 C1078 0.950 . S
H1059 C1079 0.950 . S
H1060 C1081 0.950 . S
H1061 C1084 0.950 . S
H1062 C1085 0.950 . S
H1063 C1087 0.950 . S
H1064 C1088 0.950 . S
H1065 C1089 0.951 . S
H1066 C1091 0.951 . S
H1067 C1093 0.950 . S
H1068 C1094 0.950 . S
H1069 C1096 0.950 . S
H1070 C1099 0.950 . S
H1071 C1100 0.950 . S
H1072 C1102 0.950 . S
H1073 C1103 0.950 . S
C1074 H1056 0.951 . S
C1074 C1075 1.366 . S
C1074 C1076 1.388 . S
C1075 C1074 1.366 . S
C1075 C1079 1.385 . S
C1076 H1057 0.951 . S
C1076 C1074 1.388 . S
C1076 C1077 1.366 . S
C1077 C1076 1.366 . S
C1077 C1078 1.414 . S
C1077 C1080 1.499 . S
C1078 H1058 0.950 . S
C1078 C1077 1.414 . S
C1078 C1079 1.374 . S
C1079 H1059 0.950 . S
C1079 C1075 1.385 . S
C1079 C1078 1.374 . S
C1080 C1077 1.499 . S
C1080 C1081 1.373 . S
C1080 C1082 1.389 . S
C1081 H1060 0.950 . S
C1081 C1080 1.373 . S
C1081 C1097 1.377 . S
C1082 C1080 1.389 . S
C1082 C1083 1.524 . S
C1082 C1096 1.377 . S
C1083 C1082 1.524 . S
C1083 C1084 1.397 . S
C1083 C1088 1.363 . S
C1084 H1061 0.950 . S
C1084 C1083 1.397 . S
C1084 C1085 1.334 . S
C1085 H1062 0.950 . S
C1085 C1084 1.334 . S
C1085 C1086 1.287 . S
C1086 C1085 1.287 . S
C1086 C1087 1.524 . S
C1086 H1105 0.913 . S
C1087 H1063 0.950 . S
C1087 C1086 1.524 . S
C1087 C1088 1.415 . S
C1088 H1064 0.950 . S
C1088 C1083 1.363 . S
C1088 C1087 1.415 . S
C1089 H1065 0.951 . S
C1089 C1090 1.366 . S
C1089 C1091 1.388 . S
C1090 C1089 1.366 . S
C1090 C1094 1.385 . S
C1091 H1066 0.951 . S
C1091 C1089 1.388 . S
C1091 C1092 1.366 . S
C1092 C1091 1.366 . S
C1092 C1093 1.414 . S
C1092 C1095 1.499 . S
C1093 H1067 0.950 . S
C1093 C1092 1.414 . S
C1093 C1094 1.374 . S
C1094 H1068 0.950 . S
C1094 C1090 1.385 . S
C1094 C1093 1.374 . S
C1095 C1092 1.499 . S
C1095 C1096 1.373 . S
C1095 C1097 1.389 . S
C1096 H1069 0.950 . S
C1096 C1082 1.377 . S
C1096 C1095 1.373 . S
C1097 C1081 1.377 . S
C1097 C1095 1.389 . S
C1097 C1098 1.524 . S
C1098 C1097 1.524 . S
C1098 C1099 1.397 . S
C1098 C1103 1.363 . S
C1099 H1070 0.950 . S
C1099 C1098 1.397 . S
C1099 C1100 1.334 . S
C1100 H1071 0.950 . S
C1100 C1099 1.334 . S
C1100 C1101 1.287 . S
C1101 C1100 1.287 . S
C1101 C1102 1.524 . S
C1101 H1104 0.999 . S
C1102 H1072 0.950 . S
C1102 C1101 1.524 . S
C1102 C1103 1.415 . S
C1103 H1073 0.950 . S
C1103 C1098 1.363 . S
C1103 C1102 1.415 . S
H1104 C1101 0.999 . S
H1105 C1086 0.913 . S
H1106 C1124 0.951 . S
H1107 C1126 0.951 . S
H1108 C1128 0.950 . S
H1109 C1129 0.950 . S
H1110 C1131 0.950 . S
H1111 C1134 0.950 . S
H1112 C1135 0.950 . S
H1113 C1137 0.950 . S
H1114 C1138 0.950 . S
H1115 C1139 0.951 . S
H1116 C1141 0.951 . S
H1117 C1143 0.950 . S
H1118 C1144 0.950 . S
H1119 C1146 0.950 . S
H1120 C1149 0.950 . S
H1121 C1150 0.950 . S
H1122 C1152 0.950 . S
H1123 C1153 0.950 . S
C1124 H1106 0.951 . S
C1124 C1125 1.366 . S
C1124 C1126 1.388 . S
C1125 C1124 1.366 . S
C1125 C1129 1.385 . S
C1126 H1107 0.951 . S
C1126 C1124 1.388 . S
C1126 C1127 1.366 . S
C1127 C1126 1.366 . S
C1127 C1128 1.414 . S
C1127 C1130 1.499 . S
C1128 H1108 0.950 . S
C1128 C1127 1.414 . S
C1128 C1129 1.374 . S
C1129 H1109 0.950 . S
C1129 C1125 1.385 . S
C1129 C1128 1.374 . S
C1130 C1127 1.499 . S
C1130 C1131 1.373 . S
C1130 C1132 1.389 . S
C1131 H1110 0.950 . S
C1131 C1130 1.373 . S
C1131 C1147 1.377 . S
C1132 C1130 1.389 . S
C1132 C1133 1.524 . S
C1132 C1146 1.377 . S
C1133 C1132 1.524 . S
C1133 C1134 1.397 . S
C1133 C1138 1.363 . S
C1134 H1111 0.950 . S
C1134 C1133 1.397 . S
C1134 C1135 1.334 . S
C1135 H1112 0.950 . S
C1135 C1134 1.334 . S
C1135 C1136 1.287 . S
C1136 C1135 1.287 . S
C1136 C1137 1.524 . S
C1136 H1155 0.913 . S
C1137 H1113 0.950 . S
C1137 C1136 1.524 . S
C1137 C1138 1.415 . S
C1138 H1114 0.950 . S
C1138 C1133 1.363 . S
C1138 C1137 1.415 . S
C1139 H1115 0.951 . S
C1139 C1140 1.366 . S
C1139 C1141 1.388 . S
C1140 C1139 1.366 . S
C1140 C1144 1.385 . S
C1141 H1116 0.951 . S
C1141 C1139 1.388 . S
C1141 C1142 1.366 . S
C1142 C1141 1.366 . S
C1142 C1143 1.414 . S
C1142 C1145 1.499 . S
C1143 H1117 0.950 . S
C1143 C1142 1.414 . S
C1143 C1144 1.374 . S
C1144 H1118 0.950 . S
C1144 C1140 1.385 . S
C1144 C1143 1.374 . S
C1145 C1142 1.499 . S
C1145 C1146 1.373 . S
C1145 C1147 1.389 . S
C1146 H1119 0.950 . S
C1146 C1132 1.377 . S
C1146 C1145 1.373 . S
C1147 C1131 1.377 . S
C1147 C1145 1.389 . S
C1147 C1148 1.524 . S
C1148 C1147 1.524 . S
C1148 C1149 1.397 . S
C1148 C1153 1.363 . S
C1149 H1120 0.950 . S
C1149 C1148 1.397 . S
C1149 C1150 1.334 . S
C1150 H1121 0.950 . S
C1150 C1149 1.334 . S
C1150 C1151 1.287 . S
C1151 C1150 1.287 . S
C1151 C1152 1.524 . S
C1151 H1154 0.999 . S
C1152 H1122 0.950 . S
C1152 C1151 1.524 . S
C1152 C1153 1.415 . S
C1153 H1123 0.950 . S
C1153 C1148 1.363 . S
C1153 C1152 1.415 . S
H1154 C1151 0.999 . S
H1155 C1136 0.913 . S
H1156 C1174 0.951 . S
H1157 C1176 0.951 . S
H1158 C1178 0.950 . S
H1159 C1179 0.950 . S
H1160 C1181 0.950 . S
H1161 C1184 0.950 . S
H1162 C1185 0.950 . S
H1163 C1187 0.950 . S
H1164 C1188 0.950 . S
H1165 C1189 0.951 . S
H1166 C1191 0.951 . S
H1167 C1193 0.950 . S
H1168 C1194 0.950 . S
H1169 C1196 0.950 . S
H1170 C1199 0.950 . S
H1171 C1200 0.950 . S
H1172 C1202 0.950 . S
H1173 C1203 0.950 . S
C1174 H1156 0.951 . S
C1174 C1175 1.366 . S
C1174 C1176 1.388 . S
C1175 C1174 1.366 . S
C1175 C1179 1.385 . S
C1176 H1157 0.951 . S
C1176 C1174 1.388 . S
C1176 C1177 1.366 . S
C1177 C1176 1.366 . S
C1177 C1178 1.414 . S
C1177 C1180 1.499 . S
C1178 H1158 0.950 . S
C1178 C1177 1.414 . S
C1178 C1179 1.374 . S
C1179 H1159 0.950 . S
C1179 C1175 1.385 . S
C1179 C1178 1.374 . S
C1180 C1177 1.499 . S
C1180 C1181 1.373 . S
C1180 C1182 1.389 . S
C1181 H1160 0.950 . S
C1181 C1180 1.373 . S
C1181 C1197 1.377 . S
C1182 C1180 1.389 . S
C1182 C1183 1.524 . S
C1182 C1196 1.377 . S
C1183 C1182 1.524 . S
C1183 C1184 1.397 . S
C1183 C1188 1.363 . S
C1184 H1161 0.950 . S
C1184 C1183 1.397 . S
C1184 C1185 1.334 . S
C1185 H1162 0.950 . S
C1185 C1184 1.334 . S
C1185 C1186 1.287 . S
C1186 C1185 1.287 . S
C1186 C1187 1.524 . S
C1186 H1205 0.913 . S
C1187 H1163 0.950 . S
C1187 C1186 1.524 . S
C1187 C1188 1.415 . S
C1188 H1164 0.950 . S
C1188 C1183 1.363 . S
C1188 C1187 1.415 . S
C1189 H1165 0.951 . S
C1189 C1190 1.366 . S
C1189 C1191 1.388 . S
C1190 C1189 1.366 . S
C1190 C1194 1.385 . S
C1191 H1166 0.951 . S
C1191 C1189 1.388 . S
C1191 C1192 1.366 . S
C1192 C1191 1.366 . S
C1192 C1193 1.414 . S
C1192 C1195 1.499 . S
C1193 H1167 0.950 . S
C1193 C1192 1.414 . S
C1193 C1194 1.374 . S
C1194 H1168 0.950 . S
C1194 C1190 1.385 . S
C1194 C1193 1.374 . S
C1195 C1192 1.499 . S
C1195 C1196 1.373 . S
C1195 C1197 1.389 . S
C1196 H1169 0.950 . S
C1196 C1182 1.377 . S
C1196 C1195 1.373 . S
C1197 C1181 1.377 . S
C1197 C1195 1.389 . S
C1197 C1198 1.524 . S
C1198 C1197 1.524 . S
C1198 C1199 1.397 . S
C1198 C1203 1.363 . S
C1199 H1170 0.950 . S
C1199 C1198 1.397 . S
C1199 C1200 1.334 . S
C1200 H1171 0.950 . S
C1200 C1199 1.334 . S
C1200 C1201 1.287 . S
C1201 C1200 1.287 . S
C1201 C1202 1.524 . S
C1201 H1204 0.999 . S
C1202 H1172 0.950 . S
C1202 C1201 1.524 . S
C1202 C1203 1.415 . S
C1203 H1173 0.950 . S
C1203 C1198 1.363 . S
C1203 C1202 1.415 . S
H1204 C1201 0.999 . S
H1205 C1186 0.913 . S
H1206 C1224 0.951 . S
H1207 C1226 0.951 . S
H1208 C1228 0.950 . S
H1209 C1229 0.950 . S
H1210 C1231 0.950 . S
H1211 C1234 0.950 . S
H1212 C1235 0.950 . S
H1213 C1237 0.950 1_554 S
H1214 C1238 0.950 . S
H1215 C1239 0.950 . S
H1216 C1241 0.951 . S
H1217 C1243 0.950 . S
H1218 C1244 0.950 . S
H1219 C1246 0.950 . S
H1220 C1249 0.950 . S
H1221 C1250 0.950 . S
H1222 C1252 0.950 . S
H1223 C1253 0.950 . S
C1224 H1206 0.951 . S
C1224 C1225 1.366 . S
C1224 C1226 1.388 . S
C1225 C1224 1.366 . S
C1225 C1229 1.385 . S
C1226 H1207 0.951 . S
C1226 C1224 1.388 . S
C1226 C1227 1.366 . S
C1227 C1226 1.366 . S
C1227 C1228 1.414 . S
C1227 C1230 1.499 . S
C1228 H1208 0.950 . S
C1228 C1227 1.414 . S
C1228 C1229 1.374 . S
C1229 H1209 0.950 . S
C1229 C1225 1.385 . S
C1229 C1228 1.374 . S
C1230 C1227 1.499 . S
C1230 C1231 1.373 . S
C1230 C1232 1.389 . S
C1231 H1210 0.950 . S
C1231 C1230 1.373 . S
C1231 C1247 1.377 . S
C1232 C1230 1.389 . S
C1232 C1233 1.524 . S
C1232 C1246 1.377 . S
C1233 C1232 1.524 . S
C1233 C1234 1.397 . S
C1233 C1238 1.363 . S
C1234 H1211 0.950 . S
C1234 C1233 1.397 . S
C1234 C1235 1.334 . S
C1235 H1212 0.950 . S
C1235 C1234 1.334 . S
C1235 C1236 1.287 . S
C1236 C1235 1.287 . S
C1236 C1237 1.524 . S
C1236 H1255 0.913 . S
C1237 H1213 0.950 1_556 S
C1237 C1236 1.524 . S
C1237 C1238 1.415 . S
C1238 H1214 0.950 . S
C1238 C1233 1.363 . S
C1238 C1237 1.415 . S
C1239 H1215 0.950 . S
C1239 C1240 1.366 . S
C1239 C1241 1.388 1_554 S
C1240 C1239 1.366 . S
C1240 C1244 1.385 . S
C1241 H1216 0.951 . S
C1241 C1239 1.388 1_556 S
C1241 C1242 1.366 . S
C1242 C1241 1.366 . S
C1242 C1243 1.414 1_556 S
C1242 C1245 1.499 . S
C1243 H1217 0.950 . S
C1243 C1242 1.414 1_554 S
C1243 C1244 1.374 . S
C1244 H1218 0.950 . S
C1244 C1240 1.385 . S
C1244 C1243 1.374 . S
C1245 C1242 1.499 . S
C1245 C1246 1.373 . S
C1245 C1247 1.389 . S
C1246 H1219 0.950 . S
C1246 C1232 1.377 . S
C1246 C1245 1.373 . S
C1247 C1231 1.377 . S
C1247 C1245 1.389 . S
C1247 C1248 1.524 . S
C1248 C1247 1.524 . S
C1248 C1249 1.397 . S
C1248 C1253 1.363 . S
C1249 H1220 0.950 . S
C1249 C1248 1.397 . S
C1249 C1250 1.334 . S
C1250 H1221 0.950 . S
C1250 C1249 1.334 . S
C1250 C1251 1.287 . S
C1251 C1250 1.287 . S
C1251 C1252 1.524 . S
C1251 H1254 0.999 . S
C1252 H1222 0.950 . S
C1252 C1251 1.524 . S
C1252 C1253 1.415 . S
C1253 H1223 0.950 . S
C1253 C1248 1.363 . S
C1253 C1252 1.415 . S
H1254 C1251 0.999 . S
H1255 C1236 0.913 . S
H1256 C1274 0.951 . S
H1257 C1276 0.951 . S
H1258 C1278 0.950 . S
H1259 C1279 0.950 . S
H1260 C1281 0.950 . S
H1261 C1284 0.950 . S
H1262 C1285 0.950 . S
H1263 C1287 0.950 . S
H1264 C1288 0.950 . S
H1265 C1289 0.951 . S
H1266 C1291 0.951 . S
H1267 C1293 0.950 . S
H1268 C1294 0.950 . S
H1269 C1296 0.950 . S
H1270 C1299 0.950 . S
H1271 C1300 0.950 . S
H1272 C1302 0.950 . S
H1273 C1303 0.950 . S
C1274 H1256 0.951 . S
C1274 C1275 1.366 . S
C1274 C1276 1.388 . S
C1275 C1274 1.366 . S
C1275 C1279 1.385 . S
C1276 H1257 0.951 . S
C1276 C1274 1.388 . S
C1276 C1277 1.366 . S
C1277 C1276 1.366 . S
C1277 C1278 1.414 . S
C1277 C1280 1.499 . S
C1278 H1258 0.950 . S
C1278 C1277 1.414 . S
C1278 C1279 1.374 . S
C1279 H1259 0.950 . S
C1279 C1275 1.385 . S
C1279 C1278 1.374 . S
C1280 C1277 1.499 . S
C1280 C1281 1.373 . S
C1280 C1282 1.389 . S
C1281 H1260 0.950 . S
C1281 C1280 1.373 . S
C1281 C1297 1.377 . S
C1282 C1280 1.389 . S
C1282 C1283 1.524 . S
C1282 C1296 1.377 . S
C1283 C1282 1.524 . S
C1283 C1284 1.397 . S
C1283 C1288 1.363 . S
C1284 H1261 0.950 . S
C1284 C1283 1.397 . S
C1284 C1285 1.334 . S
C1285 H1262 0.950 . S
C1285 C1284 1.334 . S
C1285 C1286 1.287 . S
C1286 C1285 1.287 . S
C1286 C1287 1.524 . S
C1286 H1305 0.913 . S
C1287 H1263 0.950 . S
C1287 C1286 1.524 . S
C1287 C1288 1.415 . S
C1288 H1264 0.950 . S
C1288 C1283 1.363 . S
C1288 C1287 1.415 . S
C1289 H1265 0.951 . S
C1289 C1290 1.366 . S
C1289 C1291 1.388 . S
C1290 C1289 1.366 . S
C1290 C1294 1.385 . S
C1291 H1266 0.951 . S
C1291 C1289 1.388 . S
C1291 C1292 1.366 . S
C1292 C1291 1.366 . S
C1292 C1293 1.414 . S
C1292 C1295 1.499 . S
C1293 H1267 0.950 . S
C1293 C1292 1.414 . S
C1293 C1294 1.374 . S
C1294 H1268 0.950 . S
C1294 C1290 1.385 . S
C1294 C1293 1.374 . S
C1295 C1292 1.499 . S
C1295 C1296 1.373 . S
C1295 C1297 1.389 . S
C1296 H1269 0.950 . S
C1296 C1282 1.377 . S
C1296 C1295 1.373 . S
C1297 C1281 1.377 . S
C1297 C1295 1.389 . S
C1297 C1298 1.524 . S
C1298 C1297 1.524 . S
C1298 C1299 1.397 . S
C1298 C1303 1.363 . S
C1299 H1270 0.950 . S
C1299 C1298 1.397 . S
C1299 C1300 1.334 . S
C1300 H1271 0.950 . S
C1300 C1299 1.334 . S
C1300 C1301 1.287 . S
C1301 C1300 1.287 . S
C1301 C1302 1.524 . S
C1301 H1304 0.999 . S
C1302 H1272 0.950 . S
C1302 C1301 1.524 . S
C1302 C1303 1.415 . S
C1303 H1273 0.950 . S
C1303 C1298 1.363 . S
C1303 C1302 1.415 . S
H1304 C1301 0.999 . S
H1305 C1286 0.913 . S
H1306 C1324 0.951 . S
H1307 C1326 0.951 . S
H1308 C1328 0.950 . S
H1309 C1329 0.950 . S
H1310 C1331 0.950 . S
H1311 C1334 0.950 . S
H1312 C1335 0.950 . S
H1313 C1337 0.950 . S
H1314 C1338 0.950 . S
H1315 C1339 0.951 . S
H1316 C1341 0.951 . S
H1317 C1343 0.950 . S
H1318 C1344 0.950 . S
H1319 C1346 0.950 . S
H1320 C1349 0.950 . S
H1321 C1350 0.950 . S
H1322 C1352 0.950 . S
H1323 C1353 0.950 . S
C1324 H1306 0.951 . S
C1324 C1325 1.366 . S
C1324 C1326 1.388 . S
C1325 C1324 1.366 . S
C1325 C1329 1.385 . S
C1326 H1307 0.951 . S
C1326 C1324 1.388 . S
C1326 C1327 1.366 . S
C1327 C1326 1.366 . S
C1327 C1328 1.414 . S
C1327 C1330 1.499 . S
C1328 H1308 0.950 . S
C1328 C1327 1.414 . S
C1328 C1329 1.374 . S
C1329 H1309 0.950 . S
C1329 C1325 1.385 . S
C1329 C1328 1.374 . S
C1330 C1327 1.499 . S
C1330 C1331 1.373 . S
C1330 C1332 1.389 . S
C1331 H1310 0.950 . S
C1331 C1330 1.373 . S
C1331 C1347 1.377 . S
C1332 C1330 1.389 . S
C1332 C1333 1.524 . S
C1332 C1346 1.377 . S
C1333 C1332 1.524 . S
C1333 C1334 1.397 . S
C1333 C1338 1.363 . S
C1334 H1311 0.950 . S
C1334 C1333 1.397 . S
C1334 C1335 1.334 . S
C1335 H1312 0.950 . S
C1335 C1334 1.334 . S
C1335 C1336 1.287 . S
C1336 C1335 1.287 . S
C1336 C1337 1.524 . S
C1336 H1355 0.913 . S
C1337 H1313 0.950 . S
C1337 C1336 1.524 . S
C1337 C1338 1.415 . S
C1338 H1314 0.950 . S
C1338 C1333 1.363 . S
C1338 C1337 1.415 . S
C1339 H1315 0.951 . S
C1339 C1340 1.366 . S
C1339 C1341 1.388 . S
C1340 C1339 1.366 . S
C1340 C1344 1.385 . S
C1341 H1316 0.951 . S
C1341 C1339 1.388 . S
C1341 C1342 1.366 . S
C1342 C1341 1.366 . S
C1342 C1343 1.414 . S
C1342 C1345 1.499 . S
C1343 H1317 0.950 . S
C1343 C1342 1.414 . S
C1343 C1344 1.374 . S
C1344 H1318 0.950 . S
C1344 C1340 1.385 . S
C1344 C1343 1.374 . S
C1345 C1342 1.499 . S
C1345 C1346 1.373 . S
C1345 C1347 1.389 . S
C1346 H1319 0.950 . S
C1346 C1332 1.377 . S
C1346 C1345 1.373 . S
C1347 C1331 1.377 . S
C1347 C1345 1.389 . S
C1347 C1348 1.524 . S
C1348 C1347 1.524 . S
C1348 C1349 1.397 . S
C1348 C1353 1.363 . S
C1349 H1320 0.950 . S
C1349 C1348 1.397 . S
C1349 C1350 1.334 . S
C1350 H1321 0.950 . S
C1350 C1349 1.334 . S
C1350 C1351 1.287 . S
C1351 C1350 1.287 . S
C1351 C1352 1.524 . S
C1351 H1354 0.999 . S
C1352 H1322 0.950 . S
C1352 C1351 1.524 . S
C1352 C1353 1.415 . S
C1353 H1323 0.950 . S
C1353 C1348 1.363 . S
C1353 C1352 1.415 . S
H1354 C1351 0.999 . S
H1355 C1336 0.913 . S
H1356 C1374 0.951 . S
H1357 C1376 0.951 . S
H1358 C1378 0.950 . S
H1359 C1379 0.950 . S
H1360 C1381 0.950 . S
H1361 C1384 0.950 . S
H1362 C1385 0.950 . S
H1363 C1387 0.950 . S
H1364 C1388 0.950 . S
H1365 C1389 0.951 . S
H1366 C1391 0.951 . S
H1367 C1393 0.950 . S
H1368 C1394 0.950 . S
H1369 C1396 0.950 . S
H1370 C1399 0.950 . S
H1371 C1400 0.950 . S
H1372 C1402 0.950 . S
H1373 C1403 0.950 . S
C1374 H1356 0.951 . S
C1374 C1375 1.366 . S
C1374 C1376 1.388 . S
C1375 C1374 1.366 . S
C1375 C1379 1.385 . S
C1376 H1357 0.951 . S
C1376 C1374 1.388 . S
C1376 C1377 1.366 . S
C1377 C1376 1.366 . S
C1377 C1378 1.414 . S
C1377 C1380 1.499 . S
C1378 H1358 0.950 . S
C1378 C1377 1.414 . S
C1378 C1379 1.374 . S
C1379 H1359 0.950 . S
C1379 C1375 1.385 . S
C1379 C1378 1.374 . S
C1380 C1377 1.499 . S
C1380 C1381 1.373 . S
C1380 C1382 1.389 . S
C1381 H1360 0.950 . S
C1381 C1380 1.373 . S
C1381 C1397 1.377 . S
C1382 C1380 1.389 . S
C1382 C1383 1.524 . S
C1382 C1396 1.377 . S
C1383 C1382 1.524 . S
C1383 C1384 1.397 . S
C1383 C1388 1.363 . S
C1384 H1361 0.950 . S
C1384 C1383 1.397 . S
C1384 C1385 1.334 . S
C1385 H1362 0.950 . S
C1385 C1384 1.334 . S
C1385 C1386 1.287 . S
C1386 C1385 1.287 . S
C1386 C1387 1.524 . S
C1386 H1405 0.913 . S
C1387 H1363 0.950 . S
C1387 C1386 1.524 . S
C1387 C1388 1.415 . S
C1388 H1364 0.950 . S
C1388 C1383 1.363 . S
C1388 C1387 1.415 . S
C1389 H1365 0.951 . S
C1389 C1390 1.366 . S
C1389 C1391 1.388 . S
C1390 C1389 1.366 . S
C1390 C1394 1.385 . S
C1391 H1366 0.951 . S
C1391 C1389 1.388 . S
C1391 C1392 1.366 . S
C1392 C1391 1.366 . S
C1392 C1393 1.414 . S
C1392 C1395 1.499 . S
C1393 H1367 0.950 . S
C1393 C1392 1.414 . S
C1393 C1394 1.374 . S
C1394 H1368 0.950 . S
C1394 C1390 1.385 . S
C1394 C1393 1.374 . S
C1395 C1392 1.499 . S
C1395 C1396 1.373 . S
C1395 C1397 1.389 . S
C1396 H1369 0.950 . S
C1396 C1382 1.377 . S
C1396 C1395 1.373 . S
C1397 C1381 1.377 . S
C1397 C1395 1.389 . S
C1397 C1398 1.524 . S
C1398 C1397 1.524 . S
C1398 C1399 1.397 . S
C1398 C1403 1.363 . S
C1399 H1370 0.950 . S
C1399 C1398 1.397 . S
C1399 C1400 1.334 . S
C1400 H1371 0.950 . S
C1400 C1399 1.334 . S
C1400 C1401 1.287 . S
C1401 C1400 1.287 . S
C1401 C1402 1.524 . S
C1401 H1404 0.999 . S
C1402 H1372 0.950 . S
C1402 C1401 1.524 . S
C1402 C1403 1.415 . S
C1403 H1373 0.950 . S
C1403 C1398 1.363 . S
C1403 C1402 1.415 . S
H1404 C1401 0.999 . S
H1405 C1386 0.913 . S
H1406 C1424 0.951 . S
H1407 C1426 0.951 . S
H1408 C1428 0.950 . S
H1409 C1429 0.950 . S
H1410 C1431 0.950 . S
H1411 C1434 0.950 . S
H1412 C1435 0.950 . S
H1413 C1437 0.950 . S
H1414 C1438 0.950 . S
H1415 C1439 0.951 . S
H1416 C1441 0.951 . S
H1417 C1443 0.950 . S
H1418 C1444 0.950 . S
H1419 C1446 0.950 . S
H1420 C1449 0.950 . S
H1421 C1450 0.950 . S
H1422 C1452 0.950 . S
H1423 C1453 0.950 . S
C1424 H1406 0.951 . S
C1424 C1425 1.366 . S
C1424 C1426 1.388 . S
C1425 C1424 1.366 . S
C1425 C1429 1.385 . S
C1426 H1407 0.951 . S
C1426 C1424 1.388 . S
C1426 C1427 1.366 . S
C1427 C1426 1.366 . S
C1427 C1428 1.414 . S
C1427 C1430 1.499 . S
C1428 H1408 0.950 . S
C1428 C1427 1.414 . S
C1428 C1429 1.374 . S
C1429 H1409 0.950 . S
C1429 C1425 1.385 . S
C1429 C1428 1.374 . S
C1430 C1427 1.499 . S
C1430 C1431 1.373 . S
C1430 C1432 1.389 . S
C1431 H1410 0.950 . S
C1431 C1430 1.373 . S
C1431 C1447 1.377 . S
C1432 C1430 1.389 . S
C1432 C1433 1.524 . S
C1432 C1446 1.377 . S
C1433 C1432 1.524 . S
C1433 C1434 1.397 . S
C1433 C1438 1.363 . S
C1434 H1411 0.950 . S
C1434 C1433 1.397 . S
C1434 C1435 1.334 . S
C1435 H1412 0.950 . S
C1435 C1434 1.334 . S
C1435 C1436 1.287 . S
C1436 C1435 1.287 . S
C1436 C1437 1.524 . S
C1436 H1455 0.913 . S
C1437 H1413 0.950 . S
C1437 C1436 1.524 . S
C1437 C1438 1.415 . S
C1438 H1414 0.950 . S
C1438 C1433 1.363 . S
C1438 C1437 1.415 . S
C1439 H1415 0.951 . S
C1439 C1440 1.366 . S
C1439 C1441 1.388 . S
C1440 C1439 1.366 . S
C1440 C1444 1.385 . S
C1441 H1416 0.951 . S
C1441 C1439 1.388 . S
C1441 C1442 1.366 . S
C1442 C1441 1.366 . S
C1442 C1443 1.414 . S
C1442 C1445 1.499 . S
C1443 H1417 0.950 . S
C1443 C1442 1.414 . S
C1443 C1444 1.374 . S
C1444 H1418 0.950 . S
C1444 C1440 1.385 . S
C1444 C1443 1.374 . S
C1445 C1442 1.499 . S
C1445 C1446 1.373 . S
C1445 C1447 1.389 . S
C1446 H1419 0.950 . S
C1446 C1432 1.377 . S
C1446 C1445 1.373 . S
C1447 C1431 1.377 . S
C1447 C1445 1.389 . S
C1447 C1448 1.524 . S
C1448 C1447 1.524 . S
C1448 C1449 1.397 . S
C1448 C1453 1.363 . S
C1449 H1420 0.950 . S
C1449 C1448 1.397 . S
C1449 C1450 1.334 . S
C1450 H1421 0.950 . S
C1450 C1449 1.334 . S
C1450 C1451 1.287 . S
C1451 C1450 1.287 . S
C1451 C1452 1.524 . S
C1451 H1454 0.999 . S
C1452 H1422 0.950 . S
C1452 C1451 1.524 . S
C1452 C1453 1.415 . S
C1453 H1423 0.950 . S
C1453 C1448 1.363 . S
C1453 C1452 1.415 . S
H1454 C1451 0.999 . S
H1455 C1436 0.913 . S
H1456 C1474 0.951 . S
H1457 C1476 0.951 . S
H1458 C1478 0.950 . S
H1459 C1479 0.950 . S
H1460 C1481 0.950 . S
H1461 C1484 0.950 . S
H1462 C1485 0.950 . S
H1463 C1487 0.950 . S
H1464 C1488 0.950 . S
H1465 C1489 0.951 . S
H1466 C1491 0.951 . S
H1467 C1493 0.950 . S
H1468 C1494 0.950 . S
H1469 C1496 0.950 . S
H1470 C1499 0.950 . S
H1471 C1500 0.950 . S
H1472 C1502 0.950 . S
H1473 C1503 0.950 . S
C1474 H1456 0.951 . S
C1474 C1475 1.366 . S
C1474 C1476 1.388 . S
C1475 C1474 1.366 . S
C1475 C1479 1.385 . S
C1476 H1457 0.951 . S
C1476 C1474 1.388 . S
C1476 C1477 1.366 . S
C1477 C1476 1.366 . S
C1477 C1478 1.414 . S
C1477 C1480 1.499 . S
C1478 H1458 0.950 . S
C1478 C1477 1.414 . S
C1478 C1479 1.374 . S
C1479 H1459 0.950 . S
C1479 C1475 1.385 . S
C1479 C1478 1.374 . S
C1480 C1477 1.499 . S
C1480 C1481 1.373 . S
C1480 C1482 1.389 . S
C1481 H1460 0.950 . S
C1481 C1480 1.373 . S
C1481 C1497 1.377 . S
C1482 C1480 1.389 . S
C1482 C1483 1.524 . S
C1482 C1496 1.377 . S
C1483 C1482 1.524 . S
C1483 C1484 1.397 . S
C1483 C1488 1.363 . S
C1484 H1461 0.950 . S
C1484 C1483 1.397 . S
C1484 C1485 1.334 . S
C1485 H1462 0.950 . S
C1485 C1484 1.334 . S
C1485 C1486 1.287 . S
C1486 C1485 1.287 . S
C1486 C1487 1.524 . S
C1486 H1505 0.913 . S
C1487 H1463 0.950 . S
C1487 C1486 1.524 . S
C1487 C1488 1.415 . S
C1488 H1464 0.950 . S
C1488 C1483 1.363 . S
C1488 C1487 1.415 . S
C1489 H1465 0.951 . S
C1489 C1490 1.366 . S
C1489 C1491 1.388 . S
C1490 C1489 1.366 . S
C1490 C1494 1.385 . S
C1491 H1466 0.951 . S
C1491 C1489 1.388 . S
C1491 C1492 1.366 . S
C1492 C1491 1.366 . S
C1492 C1493 1.414 . S
C1492 C1495 1.499 . S
C1493 H1467 0.950 . S
C1493 C1492 1.414 . S
C1493 C1494 1.374 . S
C1494 H1468 0.950 . S
C1494 C1490 1.385 . S
C1494 C1493 1.374 . S
C1495 C1492 1.499 . S
C1495 C1496 1.373 . S
C1495 C1497 1.389 . S
C1496 H1469 0.950 . S
C1496 C1482 1.377 . S
C1496 C1495 1.373 . S
C1497 C1481 1.377 . S
C1497 C1495 1.389 . S
C1497 C1498 1.524 . S
C1498 C1497 1.524 . S
C1498 C1499 1.397 . S
C1498 C1503 1.363 . S
C1499 H1470 0.950 . S
C1499 C1498 1.397 . S
C1499 C1500 1.334 . S
C1500 H1471 0.950 . S
C1500 C1499 1.334 . S
C1500 C1501 1.287 . S
C1501 C1500 1.287 . S
C1501 C1502 1.524 . S
C1501 H1504 0.999 . S
C1502 H1472 0.950 . S
C1502 C1501 1.524 . S
C1502 C1503 1.415 . S
C1503 H1473 0.950 . S
C1503 C1498 1.363 . S
C1503 C1502 1.415 . S
H1504 C1501 0.999 . S
H1505 C1486 0.913 . S
H1506 C1524 0.951 . S
H1507 C1526 0.951 . S
H1508 C1528 0.950 . S
H1509 C1529 0.950 . S
H1510 C1531 0.950 . S
H1511 C1534 0.950 . S
H1512 C1535 0.950 . S
H1513 C1537 0.950 . S
H1514 C1538 0.950 . S
H1515 C1539 0.951 . S
H1516 C1541 0.951 . S
H1517 C1543 0.950 . S
H1518 C1544 0.950 . S
H1519 C1546 0.950 . S
H1520 C1549 0.950 . S
H1521 C1550 0.950 . S
H1522 C1552 0.950 . S
H1523 C1553 0.950 . S
C1524 H1506 0.951 . S
C1524 C1525 1.366 . S
C1524 C1526 1.388 . S
C1525 C1524 1.366 . S
C1525 C1529 1.385 . S
C1526 H1507 0.951 . S
C1526 C1524 1.388 . S
C1526 C1527 1.366 . S
C1527 C1526 1.366 . S
C1527 C1528 1.414 . S
C1527 C1530 1.499 . S
C1528 H1508 0.950 . S
C1528 C1527 1.414 . S
C1528 C1529 1.374 . S
C1529 H1509 0.950 . S
C1529 C1525 1.385 . S
C1529 C1528 1.374 . S
C1530 C1527 1.499 . S
C1530 C1531 1.373 . S
C1530 C1532 1.389 . S
C1531 H1510 0.950 . S
C1531 C1530 1.373 . S
C1531 C1547 1.377 . S
C1532 C1530 1.389 . S
C1532 C1533 1.524 . S
C1532 C1546 1.377 . S
C1533 C1532 1.524 . S
C1533 C1534 1.397 . S
C1533 C1538 1.363 . S
C1534 H1511 0.950 . S
C1534 C1533 1.397 . S
C1534 C1535 1.334 . S
C1535 H1512 0.950 . S
C1535 C1534 1.334 . S
C1535 C1536 1.287 . S
C1536 C1535 1.287 . S
C1536 C1537 1.524 . S
C1536 H1555 0.913 . S
C1537 H1513 0.950 . S
C1537 C1536 1.524 . S
C1537 C1538 1.415 . S
C1538 H1514 0.950 . S
C1538 C1533 1.363 . S
C1538 C1537 1.415 . S
C1539 H1515 0.951 . S
C1539 C1540 1.366 . S
C1539 C1541 1.388 . S
C1540 C1539 1.366 . S
C1540 C1544 1.385 . S
C1541 H1516 0.951 . S
C1541 C1539 1.388 . S
C1541 C1542 1.366 . S
C1542 C1541 1.366 . S
C1542 C1543 1.414 . S
C1542 C1545 1.499 . S
C1543 H1517 0.950 . S
C1543 C1542 1.414 . S
C1543 C1544 1.374 . S
C1544 H1518 0.950 . S
C1544 C1540 1.385 . S
C1544 C1543 1.374 . S
C1545 C1542 1.499 . S
C1545 C1546 1.373 . S
C1545 C1547 1.389 . S
C1546 H1519 0.950 . S
C1546 C1532 1.377 . S
C1546 C1545 1.373 . S
C1547 C1531 1.377 . S
C1547 C1545 1.389 . S
C1547 C1548 1.524 . S
C1548 C1547 1.524 . S
C1548 C1549 1.397 . S
C1548 C1553 1.363 . S
C1549 H1520 0.950 . S
C1549 C1548 1.397 . S
C1549 C1550 1.334 . S
C1550 H1521 0.950 . S
C1550 C1549 1.334 . S
C1550 C1551 1.287 . S
C1551 C1550 1.287 . S
C1551 C1552 1.524 . S
C1551 H1554 0.999 . S
C1552 H1522 0.950 . S
C1552 C1551 1.524 . S
C1552 C1553 1.415 . S
C1553 H1523 0.950 . S
C1553 C1548 1.363 . S
C1553 C1552 1.415 . S
H1554 C1551 0.999 . S
H1555 C1536 0.913 . S
H1556 C1574 0.951 . S
H1557 C1576 0.951 . S
H1558 C1578 0.950 . S
H1559 C1579 0.950 . S
H1560 C1581 0.950 . S
H1561 C1584 0.950 . S
H1562 C1585 0.950 . S
H1563 C1587 0.950 . S
H1564 C1588 0.950 . S
H1565 C1589 0.951 . S
H1566 C1591 0.951 . S
H1567 C1593 0.950 . S
H1568 C1594 0.950 . S
H1569 C1596 0.950 . S
H1570 C1599 0.950 . S
H1571 C1600 0.950 . S
H1572 C1602 0.950 . S
H1573 C1603 0.950 . S
C1574 H1556 0.951 . S
C1574 C1575 1.366 . S
C1574 C1576 1.388 . S
C1575 C1574 1.366 . S
C1575 C1579 1.385 . S
C1576 H1557 0.951 . S
C1576 C1574 1.388 . S
C1576 C1577 1.366 . S
C1577 C1576 1.366 . S
C1577 C1578 1.414 . S
C1577 C1580 1.499 . S
C1578 H1558 0.950 . S
C1578 C1577 1.414 . S
C1578 C1579 1.374 . S
C1579 H1559 0.950 . S
C1579 C1575 1.385 . S
C1579 C1578 1.374 . S
C1580 C1577 1.499 . S
C1580 C1581 1.373 . S
C1580 C1582 1.389 1_554 S
C1581 H1560 0.950 . S
C1581 C1580 1.373 . S
C1581 C1597 1.377 1_554 S
C1582 C1580 1.389 1_556 S
C1582 C1583 1.524 . S
C1582 C1596 1.377 . S
C1583 C1582 1.524 . S
C1583 C1584 1.397 1_556 S
C1583 C1588 1.363 . S
C1584 H1561 0.950 . S
C1584 C1583 1.397 1_554 S
C1584 C1585 1.334 . S
C1585 H1562 0.950 . S
C1585 C1584 1.334 . S
C1585 C1586 1.287 . S
C1586 C1585 1.287 . S
C1586 C1587 1.524 1_554 S
C1586 H1605 0.913 . S
C1587 H1563 0.950 . S
C1587 C1586 1.524 1_556 S
C1587 C1588 1.415 . S
C1588 H1564 0.950 . S
C1588 C1583 1.363 . S
C1588 C1587 1.415 . S
C1589 H1565 0.951 . S
C1589 C1590 1.366 . S
C1589 C1591 1.388 . S
C1590 C1589 1.366 . S
C1590 C1594 1.385 . S
C1591 H1566 0.951 . S
C1591 C1589 1.388 . S
C1591 C1592 1.366 . S
C1592 C1591 1.366 . S
C1592 C1593 1.414 . S
C1592 C1595 1.499 . S
C1593 H1567 0.950 . S
C1593 C1592 1.414 . S
C1593 C1594 1.374 . S
C1594 H1568 0.950 . S
C1594 C1590 1.385 . S
C1594 C1593 1.374 . S
C1595 C1592 1.499 . S
C1595 C1596 1.373 . S
C1595 C1597 1.389 . S
C1596 H1569 0.950 . S
C1596 C1582 1.377 . S
C1596 C1595 1.373 . S
C1597 C1581 1.377 1_556 S
C1597 C1595 1.389 . S
C1597 C1598 1.524 . S
C1598 C1597 1.524 . S
C1598 C1599 1.397 . S
C1598 C1603 1.363 1_556 S
C1599 H1570 0.950 . S
C1599 C1598 1.397 . S
C1599 C1600 1.334 . S
C1600 H1571 0.950 . S
C1600 C1599 1.334 . S
C1600 C1601 1.287 . S
C1601 C1600 1.287 . S
C1601 C1602 1.524 1_556 S
C1601 H1604 0.999 . S
C1602 H1572 0.950 . S
C1602 C1601 1.524 1_554 S
C1602 C1603 1.415 . S
C1603 H1573 0.950 . S
C1603 C1598 1.363 1_554 S
C1603 C1602 1.415 . S
H1604 C1601 0.999 . S
H1605 C1586 0.913 . S
H1606 C1624 0.951 . S
H1607 C1626 0.951 . S
H1608 C1628 0.950 . S
H1609 C1629 0.950 . S
H1610 C1631 0.950 . S
H1611 C1634 0.950 . S
H1612 C1635 0.950 . S
H1613 C1637 0.950 . S
H1614 C1638 0.950 . S
H1615 C1639 0.951 . S
H1616 C1641 0.951 . S
H1617 C1643 0.950 . S
H1618 C1644 0.950 . S
H1619 C1646 0.950 . S
H1620 C1649 0.950 . S
H1621 C1650 0.950 . S
H1622 C1652 0.950 . S
H1623 C1653 0.950 . S
C1624 H1606 0.951 . S
C1624 C1625 1.366 . S
C1624 C1626 1.388 . S
C1625 C1624 1.366 . S
C1625 C1629 1.385 . S
C1626 H1607 0.951 . S
C1626 C1624 1.388 . S
C1626 C1627 1.366 . S
C1627 C1626 1.366 . S
C1627 C1628 1.414 . S
C1627 C1630 1.499 . S
C1628 H1608 0.950 . S
C1628 C1627 1.414 . S
C1628 C1629 1.374 . S
C1629 H1609 0.950 . S
C1629 C1625 1.385 . S
C1629 C1628 1.374 . S
C1630 C1627 1.499 . S
C1630 C1631 1.373 . S
C1630 C1632 1.389 . S
C1631 H1610 0.950 . S
C1631 C1630 1.373 . S
C1631 C1647 1.377 . S
C1632 C1630 1.389 . S
C1632 C1633 1.524 . S
C1632 C1646 1.377 . S
C1633 C1632 1.524 . S
C1633 C1634 1.397 . S
C1633 C1638 1.363 . S
C1634 H1611 0.950 . S
C1634 C1633 1.397 . S
C1634 C1635 1.334 . S
C1635 H1612 0.950 . S
C1635 C1634 1.334 . S
C1635 C1636 1.287 . S
C1636 C1635 1.287 . S
C1636 C1637 1.524 . S
C1636 H1655 0.913 . S
C1637 H1613 0.950 . S
C1637 C1636 1.524 . S
C1637 C1638 1.415 . S
C1638 H1614 0.950 . S
C1638 C1633 1.363 . S
C1638 C1637 1.415 . S
C1639 H1615 0.951 . S
C1639 C1640 1.366 . S
C1639 C1641 1.388 . S
C1640 C1639 1.366 . S
C1640 C1644 1.385 . S
C1641 H1616 0.951 . S
C1641 C1639 1.388 . S
C1641 C1642 1.366 . S
C1642 C1641 1.366 . S
C1642 C1643 1.414 . S
C1642 C1645 1.499 . S
C1643 H1617 0.950 . S
C1643 C1642 1.414 . S
C1643 C1644 1.374 . S
C1644 H1618 0.950 . S
C1644 C1640 1.385 . S
C1644 C1643 1.374 . S
C1645 C1642 1.499 . S
C1645 C1646 1.373 . S
C1645 C1647 1.389 . S
C1646 H1619 0.950 . S
C1646 C1632 1.377 . S
C1646 C1645 1.373 . S
C1647 C1631 1.377 . S
C1647 C1645 1.389 . S
C1647 C1648 1.524 . S
C1648 C1647 1.524 . S
C1648 C1649 1.397 . S
C1648 C1653 1.363 . S
C1649 H1620 0.950 . S
C1649 C1648 1.397 . S
C1649 C1650 1.334 . S
C1650 H1621 0.950 . S
C1650 C1649 1.334 . S
C1650 C1651 1.287 . S
C1651 C1650 1.287 . S
C1651 C1652 1.524 . S
C1651 H1654 0.999 . S
C1652 H1622 0.950 . S
C1652 C1651 1.524 . S
C1652 C1653 1.415 . S
C1653 H1623 0.950 . S
C1653 C1648 1.363 . S
C1653 C1652 1.415 . S
H1654 C1651 0.999 . S
H1655 C1636 0.913 . S
C490 C449 1.518 . S
C475 C29 1.435 . S
C525 C115 1.401 . S
C540 C378 1.404 . S
C575 C153 1.459 . S
C590 C392 1.535 . S
C625 C239 1.375 . S
C640 C406 1.379 . S
C690 C420 1.462 . S
C675 C301 1.460 . S
C725 C339 1.704 . S
C740 C435 1.803 . S
C775 C91 1.458 . S
C790 C393 1.534 . S
C825 C177 1.402 . S
C840 C407 1.404 . S
C875 C215 1.435 . S
C890 C421 1.518 . S
C940 C434 1.803 . S
C925 C277 1.704 . S
C990 C448 1.462 . S
C975 C363 1.460 . S
C1040 C379 1.379 . S
C1025 C53 1.375 . S
C1075 C35 1.610 . S
C1090 C395 1.632 . S
C1125 C109 1.440 . S
C1140 C409 1.556 . S
C1190 C423 1.486 . S
C1175 C159 1.470 . S
C1225 C233 1.667 . S
C1240 C436 1.791 . S
C1290 C450 1.600 . S
C1275 C295 1.467 . S
C1340 C381 1.450 . S
C1325 C345 1.438 . S
C1390 C451 1.487 . S
C1375 C97 1.472 . S
C1425 C171 1.441 . S
C1440 C380 1.555 . S
C1490 C394 1.633 . S
C1475 C221 1.611 . S
C1525 C283 1.438 . S
C1540 C408 1.450 . S
C1575 C357 1.468 . S
C1590 C422 1.601 . S
C1625 C47 1.667 . S
C1640 C437 1.791 . S
