# Generated by pormake.
# Topology pto, (3,4)-cn, num edge types: 1
# Building blocks:
#     Node 0, Type 0, BuildingBlock: OLANEW_clean_sbu_2, # of connection points: 3
#     Node 1, Type 0, BuildingBlock: OLANEW_clean_sbu_2, # of connection points: 3
#     Node 2, Type 0, BuildingBlock: OLANEW_clean_sbu_2, # of connection points: 3
#     Node 3, Type 0, BuildingBlock: OLANEW_clean_sbu_2, # of connection points: 3
#     Node 4, Type 0, BuildingBlock: OLANEW_clean_sbu_2, # of connection points: 3
#     Node 5, Type 0, BuildingBlock: OLANEW_clean_sbu_2, # of connection points: 3
#     Node 6, Type 0, BuildingBlock: OLANEW_clean_sbu_2, # of connection points: 3
#     Node 7, Type 0, BuildingBlock: OLANEW_clean_sbu_2, # of connection points: 3
#     Node 8, Type 1, BuildingBlock: GIZVER_clean_linker_0, # of connection points: 4
#     Node 9, Type 1, BuildingBlock: GIZVER_clean_linker_0, # of connection points: 4
#     Node 10, Type 1, BuildingBlock: GIZVER_clean_linker_0, # of connection points: 4
#     Node 11, Type 1, BuildingBlock: GIZVER_clean_linker_0, # of connection points: 4
#     Node 12, Type 1, BuildingBlock: GIZVER_clean_linker_0, # of connection points: 4
#     Node 13, Type 1, BuildingBlock: GIZVER_clean_linker_0, # of connection points: 4
#     Edge 14, Type (0, 1), BuildingBlock: KIFKEQ_clean_linker_1, # of connection points: 2
#     Edge 15, Type (0, 1), BuildingBlock: KIFKEQ_clean_linker_1, # of connection points: 2
#     Edge 16, Type (0, 1), BuildingBlock: KIFKEQ_clean_linker_1, # of connection points: 2
#     Edge 17, Type (0, 1), BuildingBlock: KIFKEQ_clean_linker_1, # of connection points: 2
#     Edge 18, Type (0, 1), BuildingBlock: KIFKEQ_clean_linker_1, # of connection points: 2
#     Edge 19, Type (0, 1), BuildingBlock: KIFKEQ_clean_linker_1, # of connection points: 2
#     Edge 20, Type (0, 1), BuildingBlock: KIFKEQ_clean_linker_1, # of connection points: 2
#     Edge 21, Type (0, 1), BuildingBlock: KIFKEQ_clean_linker_1, # of connection points: 2
#     Edge 22, Type (0, 1), BuildingBlock: KIFKEQ_clean_linker_1, # of connection points: 2
#     Edge 23, Type (0, 1), BuildingBlock: KIFKEQ_clean_linker_1, # of connection points: 2
#     Edge 24, Type (0, 1), BuildingBlock: KIFKEQ_clean_linker_1, # of connection points: 2
#     Edge 25, Type (0, 1), BuildingBlock: KIFKEQ_clean_linker_1, # of connection points: 2
#     Edge 26, Type (0, 1), BuildingBlock: KIFKEQ_clean_linker_1, # of connection points: 2
#     Edge 27, Type (0, 1), BuildingBlock: KIFKEQ_clean_linker_1, # of connection points: 2
#     Edge 28, Type (0, 1), BuildingBlock: KIFKEQ_clean_linker_1, # of connection points: 2
#     Edge 29, Type (0, 1), BuildingBlock: KIFKEQ_clean_linker_1, # of connection points: 2
#     Edge 30, Type (0, 1), BuildingBlock: KIFKEQ_clean_linker_1, # of connection points: 2
#     Edge 31, Type (0, 1), BuildingBlock: KIFKEQ_clean_linker_1, # of connection points: 2
#     Edge 32, Type (0, 1), BuildingBlock: KIFKEQ_clean_linker_1, # of connection points: 2
#     Edge 33, Type (0, 1), BuildingBlock: KIFKEQ_clean_linker_1, # of connection points: 2
#     Edge 34, Type (0, 1), BuildingBlock: KIFKEQ_clean_linker_1, # of connection points: 2
#     Edge 35, Type (0, 1), BuildingBlock: KIFKEQ_clean_linker_1, # of connection points: 2
#     Edge 36, Type (0, 1), BuildingBlock: KIFKEQ_clean_linker_1, # of connection points: 2
#     Edge 37, Type (0, 1), BuildingBlock: KIFKEQ_clean_linker_1, # of connection points: 2
# Relax obj value: 0.016
# Max RMSD: 0.162
# Mean RMSD: 0.073
data_MOF--net-pto--node1-OLANEW_clean_sbu_2--node2-GIZVER_clean_linker_0--edge1-KIFKEQ_clean_linker_1
_symmetry_space_group_name_H-M    P1
_symmetry_Int_Tables_number       1
_symmetry_cell_setting            triclinic
loop_
_symmetry_equiv_pos_as_xyz
'x, y, z'
_cell_length_a     53.067236
_cell_length_b     44.998987
_cell_length_c     32.02153
_cell_angle_alpha  94.240601
_cell_angle_beta   90.088937
_cell_angle_gamma 100.19499
loop_
_atom_site_label
_atom_site_type_symbol
_atom_site_fract_x
_atom_site_fract_y
_atom_site_fract_z
_atom_type_partial_charge
O0 O 0.34156 0.42693 0.21441 0.0
Cd1 Cd 0.29911 0.39578 0.21915 0.0
O2 O 0.32628 0.46651 0.196 0.0
Cd3 Cd 0.28552 0.44738 0.20122 0.0
O4 O 0.24445 0.44883 0.20431 0.0
C5 C 0.22775 0.4336 0.17889 0.0
O6 O 0.23488 0.4146 0.15004 0.0
C7 C 0.34531 0.45398 0.20367 0.0
C8 C 0.30052 0.34892 0.27093 0.0
O9 O 0.30555 0.34576 0.23189 0.0
O10 O 0.29464 0.37412 0.28529 0.0
O11 O 0.33643 0.90474 0.90366 0.0
Cd12 Cd 0.30867 0.94284 0.90876 0.0
O13 O 0.30198 0.87124 0.88894 0.0
Cd14 Cd 0.27473 0.8287 0.87804 0.0
O15 O 0.23848 0.79711 0.8678 0.0
C16 C 0.23178 0.77593 0.89179 0.0
O17 O 0.24731 0.77258 0.92241 0.0
C18 C 0.3261 0.8772 0.89535 0.0
C19 C 0.31309 0.97884 0.84111 0.0
O20 O 0.32653 0.98728 0.87458 0.0
O21 O 0.29771 0.95337 0.83967 0.0
O22 O 0.7809 0.75983 0.24301 0.0
Cd23 Cd 0.77588 0.70895 0.20764 0.0
O24 O 0.73974 0.7624 0.24618 0.0
Cd25 Cd 0.72248 0.71689 0.22015 0.0
O26 O 0.68888 0.68402 0.19668 0.0
C27 C 0.66709 0.68789 0.21035 0.0
O28 O 0.66605 0.71018 0.23885 0.0
C29 C 0.76309 0.77453 0.25282 0.0
C30 C 0.822 0.68659 0.2037 0.0
O31 O 0.81626 0.7037 0.17623 0.0
O32 O 0.80607 0.6802 0.23316 0.0
O33 O 0.81424 0.35116 0.7955 0.0
Cd34 Cd 0.77333 0.31728 0.78 0.0
O35 O 0.79655 0.39175 0.80734 0.0
Cd36 Cd 0.75586 0.37206 0.80051 0.0
O37 O 0.71654 0.37904 0.81218 0.0
C38 C 0.70915 0.40165 0.79753 0.0
O39 O 0.72469 0.41863 0.77341 0.0
C40 C 0.81641 0.3795 0.8046 0.0
C41 C 0.78088 0.26205 0.74061 0.0
O42 O 0.78175 0.28565 0.72022 0.0
O43 O 0.77623 0.26429 0.77987 0.0
O44 O 0.79028 0.78337 0.72008 0.0
Cd45 Cd 0.78365 0.73309 0.74687 0.0
O46 O 0.74967 0.78865 0.72103 0.0
Cd47 Cd 0.73137 0.74457 0.74059 0.0
O48 O 0.69617 0.7141 0.75586 0.0
C49 C 0.67515 0.72283 0.74858 0.0
O50 O 0.67584 0.74869 0.73168 0.0
C51 C 0.77307 0.79914 0.71431 0.0
C52 C 0.82972 0.71144 0.75461 0.0
O53 O 0.8163 0.70604 0.72069 0.0
O54 O 0.82144 0.72717 0.78487 0.0
O55 O 0.81405 0.33173 0.19762 0.0
Cd56 Cd 0.77236 0.30443 0.21749 0.0
O57 O 0.79796 0.36574 0.16506 0.0
Cd58 Cd 0.75772 0.35139 0.18053 0.0
O59 O 0.71964 0.36362 0.18596 0.0
C60 C 0.70247 0.35311 0.15844 0.0
O61 O 0.70738 0.33308 0.12901 0.0
C62 C 0.81721 0.35486 0.17642 0.0
C63 C 0.77935 0.25683 0.26469 0.0
O64 O 0.77306 0.2517 0.22583 0.0
O65 O 0.78183 0.28407 0.28102 0.0
O66 O 0.33138 0.49439 0.87674 0.0
Cd67 Cd 0.29435 0.45328 0.86289 0.0
O68 O 0.35063 0.48374 0.81821 0.0
Cd69 Cd 0.32052 0.44623 0.79666 0.0
O70 O 0.307 0.40119 0.76656 0.0
C71 C 0.31467 0.37885 0.78136 0.0
O72 O 0.32881 0.38355 0.81575 0.0
C73 C 0.35049 0.49961 0.85268 0.0
C74 C 0.24676 0.47028 0.85141 0.0
O75 O 0.25611 0.46962 0.8882 0.0
O76 O 0.26014 0.46359 0.81994 0.0
O77 O 0.36575 0.78273 0.33162 0.0
Cd78 Cd 0.34687 0.80622 0.39205 0.0
O79 O 0.3278 0.77435 0.30207 0.0
Cd80 Cd 0.2961 0.75711 0.25789 0.0
O81 O 0.25912 0.73988 0.22679 0.0
C82 C 0.23896 0.73756 0.24863 0.0
O83 O 0.24106 0.746 0.28884 0.0
C84 C 0.35131 0.77178 0.30052 0.0
C85 C 0.34909 0.8685 0.39017 0.0
O86 O 0.36744 0.85773 0.40607 0.0
O87 O 0.32985 0.84974 0.3743 0.0
H88 H 0.99713 0.50272 0.11758 0.0
H89 H 0.99625 0.59855 0.12934 0.0
H90 H 0.93698 0.53672 0.18496 0.0
H91 H 0.02179 0.53781 0.06958 0.0
H92 H 0.02366 0.57776 0.07836 0.0
H93 H 0.04542 0.50969 0.11801 0.0
H94 H 0.11409 0.56279 0.17339 0.0
H95 H 0.05712 0.60739 0.12248 0.0
C96 C 0.98882 0.5217 0.13041 0.0
C97 C 0.9662 0.51632 0.15342 0.0
C98 C 1.00015 0.55139 0.12239 0.0
C99 C 0.98829 0.57575 0.13697 0.0
C100 C 0.96561 0.57056 0.16001 0.0
C101 C 0.95511 0.54091 0.16889 0.0
C102 C 0.02321 0.55662 0.09454 0.0
C103 C 0.04788 0.55837 0.11896 0.0
C104 C 0.05665 0.53163 0.12781 0.0
C105 C 0.08033 0.53329 0.1482 0.0
C106 C 0.09536 0.56159 0.15902 0.0
C107 C 0.08737 0.5883 0.14928 0.0
C108 C 0.06326 0.58674 0.13037 0.0
H109 H 0.05498 0.62357 0.78915 0.0
H110 H 0.06097 0.52919 0.77041 0.0
H111 H 0.11386 0.58929 0.8529 0.0
H112 H 0.03582 0.58963 0.72551 0.0
H113 H 0.03279 0.54954 0.72602 0.0
H114 H 0.00433 0.61563 0.75855 0.0
H115 H 0.93839 0.56274 0.81162 0.0
H116 H 1.00323 0.52155 0.77753 0.0
C117 C 0.06368 0.60462 0.79708 0.0
C118 C 0.08499 0.60965 0.8244 0.0
C119 C 0.05432 0.57539 0.77844 0.0
C120 C 0.06703 0.55138 0.78648 0.0
C121 C 0.08832 0.55634 0.8138 0.0
C122 C 0.09662 0.58522 0.83348 0.0
C123 C 0.03278 0.57067 0.74641 0.0
C124 C 0.007 0.56902 0.76694 0.0
C125 C 0.99482 0.5945 0.77 0.0
C126 C 0.97008 0.59249 0.78648 0.0
C127 C 0.95792 0.5649 0.80073 0.0
C128 C 0.96962 0.53923 0.79759 0.0
C129 C 0.99425 0.54143 0.78081 0.0
H130 H 0.35059 0.17883 0.45935 0.0
H131 H 0.35347 0.18707 0.59413 0.0
H132 H 0.30932 0.24016 0.52793 0.0
H133 H 0.38297 0.15868 0.49656 0.0
H134 H 0.3867 0.16561 0.5521 0.0
H135 H 0.36097 0.11037 0.4677 0.0
H136 H 0.3265 0.04403 0.55026 0.0
H137 H 0.35509 0.13494 0.59956 0.0
C138 C 0.34451 0.18846 0.48887 0.0
C139 C 0.32834 0.21007 0.48904 0.0
C140 C 0.35347 0.17986 0.52672 0.0
C141 C 0.34605 0.19299 0.56492 0.0
C142 C 0.32962 0.21425 0.56559 0.0
C143 C 0.32077 0.22245 0.52755 0.0
C144 C 0.37228 0.15831 0.52644 0.0
C145 C 0.35878 0.12653 0.53266 0.0
C146 C 0.35456 0.10449 0.49864 0.0
C147 C 0.34283 0.07463 0.50474 0.0
C148 C 0.33467 0.06727 0.54495 0.0
C149 C 0.33901 0.08884 0.57919 0.0
C150 C 0.35119 0.11842 0.57295 0.0
H151 H 0.46516 0.73014 0.93193 0.0
H152 H 0.47096 0.70036 0.05565 0.0
H153 H 0.40029 0.72221 0.01288 0.0
H154 H 0.50627 0.73311 0.96355 0.0
H155 H 0.50875 0.72892 0.01791 0.0
H156 H 0.51463 0.69464 0.91393 0.0
H157 H 0.54322 0.61892 0.95809 0.0
H158 H 0.51224 0.68027 0.04443 0.0
C159 C 0.45613 0.72314 0.9608 0.0
C160 C 0.43048 0.72603 0.96782 0.0
C161 C 0.47084 0.71364 0.99227 0.0
C162 C 0.45941 0.70623 0.03064 0.0
C163 C 0.43375 0.70879 0.03801 0.0
C164 C 0.41942 0.71805 0.00611 0.0
C165 C 0.49959 0.71752 0.98826 0.0
C166 C 0.50912 0.68795 0.97929 0.0
C167 C 0.51686 0.68003 0.93857 0.0
C168 C 0.53055 0.65613 0.93103 0.0
C169 C 0.53364 0.63811 0.96401 0.0
C170 C 0.52902 0.64778 0.00558 0.0
C171 C 0.51543 0.67182 0.01269 0.0
H172 H 0.82177 0.0722 0.42758 0.0
H173 H 0.82303 0.05977 0.55953 0.0
H174 H 0.78167 0.12454 0.51381 0.0
H175 H 0.84918 0.04071 0.45379 0.0
H176 H 0.85443 0.04113 0.50894 0.0
H177 H 0.81995 0.99921 0.41706 0.0
H178 H 0.78624 0.92412 0.48598 0.0
H179 H 0.82534 0.00572 0.55204 0.0
C180 C 0.81514 0.07719 0.45887 0.0
C181 C 0.80111 0.10076 0.46654 0.0
C182 C 0.82236 0.06147 0.49213 0.0
C183 C 0.81591 0.07003 0.5334 0.0
C184 C 0.80112 0.0927 0.54112 0.0
C185 C 0.79285 0.10679 0.50743 0.0
C186 C 0.83924 0.03795 0.4842 0.0
C187 C 0.82394 0.00631 0.48455 0.0
C188 C 0.81548 0.98944 0.44669 0.0
C189 C 0.80165 0.9598 0.44709 0.0
C190 C 0.79607 0.94739 0.48558 0.0
C191 C 0.80445 0.96371 0.52347 0.0
C192 C 0.81849 0.99316 0.52284 0.0
H193 H 0.54092 0.56664 0.9802 0.0
H194 H 0.54183 0.54184 0.10772 0.0
H195 H 0.47294 0.56109 0.05399 0.0
H196 H 0.58193 0.56921 0.01664 0.0
H197 H 0.58288 0.56369 0.07124 0.0
H198 H 0.57988 0.52653 0.96418 0.0
H199 H 0.5945 0.44263 0.00616 0.0
H200 H 0.57915 0.51248 0.09598 0.0
C201 C 0.53136 0.563 0.00974 0.0
C202 C 0.5055 0.56579 0.01346 0.0
C203 C 0.54489 0.55542 0.04416 0.0
C204 C 0.5319 0.54896 0.08166 0.0
C205 C 0.50599 0.55128 0.08526 0.0
C206 C 0.49325 0.56054 0.0516 0.0
C207 C 0.57309 0.55447 0.04106 0.0
C208 C 0.57765 0.52254 0.03105 0.0
C209 C 0.58088 0.51185 0.98926 0.0
C210 C 0.58678 0.48284 0.98005 0.0
C211 C 0.58855 0.46432 0.01285 0.0
C212 C 0.58606 0.47483 0.05465 0.0
C213 C 0.58041 0.50392 0.06365 0.0
H214 H 0.18745 0.40747 0.12683 0.0
H215 H 0.20799 0.47424 0.23089 0.0
H216 H 0.14545 0.42225 0.12221 0.0
H217 H 0.16666 0.48955 0.22554 0.0
H218 H 0.09049 0.51137 0.22187 0.0
H219 H 0.12169 0.47868 0.23292 0.0
H220 H 0.1298 0.465 0.09887 0.0
H221 H 0.09779 0.49663 0.08831 0.0
C222 C 0.18293 0.42506 0.149 0.0
C223 C 0.20121 0.43987 0.17897 0.0
C224 C 0.15888 0.43362 0.14624 0.0
C225 C 0.15258 0.45719 0.17336 0.0
C226 C 0.17051 0.47097 0.20451 0.0
C227 C 0.19444 0.46236 0.20735 0.0
C228 C 0.09814 0.50015 0.19491 0.0
C229 C 0.09174 0.50626 0.15429 0.0
C230 C 0.11629 0.48182 0.20113 0.0
C231 C 0.1288 0.46978 0.16683 0.0
C232 C 0.12055 0.4737 0.12607 0.0
C233 C 0.10212 0.49175 0.1199 0.0
H234 H 0.21522 0.72325 0.9284 0.0
H235 H 0.19194 0.7818 0.84036 0.0
H236 H 0.17535 0.68787 0.91525 0.0
H237 H 0.15142 0.74693 0.82832 0.0
H238 H 0.10314 0.65486 0.77504 0.0
H239 H 0.13605 0.69878 0.79417 0.0
H240 H 0.13065 0.67765 0.9238 0.0
H241 H 0.09848 0.63291 0.90392 0.0
C242 C 0.20141 0.72878 0.90665 0.0
C243 C 0.20687 0.75521 0.88517 0.0
C244 C 0.17834 0.70861 0.89938 0.0
C245 C 0.15997 0.71451 0.87079 0.0
C246 C 0.16519 0.74141 0.85013 0.0
C247 C 0.18842 0.76145 0.8571 0.0
C248 C 0.10838 0.66028 0.80779 0.0
C249 C 0.0984 0.64054 0.83801 0.0
C250 C 0.12734 0.68544 0.81885 0.0
C251 C 0.13649 0.69149 0.86048 0.0
C252 C 0.12463 0.67322 0.89127 0.0
C253 C 0.10595 0.64785 0.88008 0.0
H254 H 0.83433 0.64029 0.24543 0.0
H255 H 0.86378 0.70404 0.15538 0.0
H256 H 0.87212 0.61696 0.23738 0.0
H257 H 0.90236 0.6817 0.1487 0.0
H258 H 0.94885 0.6071 0.10623 0.0
H259 H 0.9163 0.63852 0.11919 0.0
H260 H 0.91575 0.62017 0.24995 0.0
H261 H 0.94739 0.58751 0.23604 0.0
C262 C 0.84912 0.64966 0.2244 0.0
C263 C 0.84595 0.67389 0.20085 0.0
C264 C 0.871 0.63643 0.22001 0.0
C265 C 0.89053 0.64736 0.19237 0.0
C266 C 0.88763 0.67225 0.16973 0.0
C267 C 0.86554 0.6852 0.17371 0.0
C268 C 0.94219 0.61046 0.1379 0.0
C269 C 0.95056 0.59489 0.17013 0.0
C270 C 0.92348 0.6285 0.14545 0.0
C271 C 0.91295 0.63165 0.18558 0.0
C272 C 0.92279 0.61767 0.2184 0.0
C273 C 0.94117 0.59925 0.21065 0.0
H274 H 0.82706 0.43805 0.83691 0.0
H275 H 0.86365 0.36508 0.78612 0.0
H276 H 0.86814 0.47175 0.84176 0.0
H277 H 0.90525 0.39912 0.79147 0.0
H278 H 0.96012 0.4868 0.74717 0.0
H279 H 0.92571 0.44375 0.7551 0.0
H280 H 0.90952 0.48264 0.8774 0.0
H281 H 0.94358 0.52587 0.86894 0.0
C282 C 0.84395 0.42905 0.82724 0.0
C283 C 0.842 0.39889 0.81084 0.0
C284 C 0.86762 0.44836 0.83043 0.0
C285 C 0.89005 0.43811 0.81721 0.0
C286 C 0.88829 0.40771 0.80177 0.0
C287 C 0.8645 0.38821 0.79885 0.0
C288 C 0.94979 0.48555 0.77632 0.0
C289 C 0.95426 0.50977 0.80726 0.0
C290 C 0.93004 0.46092 0.78088 0.0
C291 C 0.91452 0.4601 0.81652 0.0
C292 C 0.92074 0.48295 0.84915 0.0
C293 C 0.94033 0.50759 0.84448 0.0
H294 H 0.28467 0.34582 0.35169 0.0
H295 H 0.31985 0.29691 0.25345 0.0
H296 H 0.28903 0.30708 0.39909 0.0
H297 H 0.32418 0.25799 0.30112 0.0
H298 H 0.35935 0.2265 0.42337 0.0
H299 H 0.35029 0.25622 0.36621 0.0
H300 H 0.2729 0.2527 0.40965 0.0
H301 H 0.28185 0.2227 0.46656 0.0
C302 C 0.29315 0.32667 0.3401 0.0
C303 C 0.30199 0.32449 0.29886 0.0
C304 C 0.29547 0.30434 0.36717 0.0
C305 C 0.30686 0.27942 0.35375 0.0
C306 C 0.31542 0.277 0.31235 0.0
C307 C 0.31286 0.29923 0.28507 0.0
C308 C 0.34018 0.23124 0.41996 0.0
C309 C 0.3214 0.22255 0.44977 0.0
C310 C 0.33501 0.24836 0.38728 0.0
C311 C 0.31101 0.25718 0.38389 0.0
C312 C 0.29173 0.24673 0.412 0.0
C313 C 0.29684 0.22952 0.4445 0.0
H314 H 0.37314 0.8822 0.9311 0.0
H315 H 0.31572 0.81818 0.86016 0.0
H316 H 0.39902 0.84338 0.93635 0.0
H317 H 0.34186 0.77897 0.86526 0.0
H318 H 0.37964 0.71362 0.94467 0.0
H319 H 0.35489 0.74909 0.91822 0.0
H320 H 0.42488 0.812 0.90023 0.0
H321 H 0.44946 0.77731 0.92892 0.0
C322 C 0.36609 0.85985 0.91622 0.0
C323 C 0.34202 0.85322 0.89598 0.0
C324 C 0.38112 0.83756 0.9189 0.0
C325 C 0.37264 0.80794 0.90112 0.0
C326 C 0.34884 0.80143 0.8798 0.0
C327 C 0.33373 0.82386 0.87716 0.0
C328 C 0.38978 0.73479 0.93429 0.0
C329 C 0.41651 0.74285 0.93982 0.0
C330 C 0.37558 0.75509 0.91882 0.0
C331 C 0.38782 0.7838 0.90812 0.0
C332 C 0.41477 0.79043 0.90931 0.0
C333 C 0.42894 0.77025 0.92514 0.0
H334 H 0.80898 0.80398 0.287 0.0
H335 H 0.7313 0.81592 0.26391 0.0
H336 H 0.81784 0.85351 0.32563 0.0
H337 H 0.74038 0.86584 0.30119 0.0
H338 H 0.75533 0.92532 0.42626 0.0
H339 H 0.74639 0.88376 0.37248 0.0
H340 H 0.82316 0.90774 0.32582 0.0
H341 H 0.8323 0.94891 0.38112 0.0
C342 C 0.79392 0.81738 0.28956 0.0
C343 C 0.76932 0.80576 0.27293 0.0
C344 C 0.79906 0.84595 0.31142 0.0
C345 C 0.77977 0.86368 0.31684 0.0
C346 C 0.75555 0.85261 0.29837 0.0
C347 C 0.75035 0.82396 0.2769 0.0
C348 C 0.77011 0.9221 0.40392 0.0
C349 C 0.79457 0.94013 0.4081 0.0
C350 C 0.76497 0.89833 0.37286 0.0
C351 C 0.78416 0.89206 0.34502 0.0
C352 C 0.80809 0.91158 0.34723 0.0
C353 C 0.81324 0.93544 0.37848 0.0
H354 H 0.6744 0.37425 0.85198 0.0
H355 H 0.68964 0.45111 0.77674 0.0
H356 H 0.63897 0.39432 0.88452 0.0
H357 H 0.65374 0.47096 0.80881 0.0
H358 H 0.62287 0.51496 0.93276 0.0
H359 H 0.64775 0.49403 0.87789 0.0
H360 H 0.59707 0.40761 0.87892 0.0
H361 H 0.57243 0.42862 0.9345 0.0
C362 C 0.66985 0.39511 0.84169 0.0
C363 C 0.68512 0.41127 0.81219 0.0
C364 C 0.64934 0.40654 0.86013 0.0
C365 C 0.64355 0.43441 0.84949 0.0
C366 C 0.65788 0.44966 0.81815 0.0
C367 C 0.67842 0.4382 0.79967 0.0
C368 C 0.6164 0.49188 0.92004 0.0
C369 C 0.5959 0.47333 0.93822 0.0
C370 C 0.63074 0.47977 0.8886 0.0
C371 C 0.62477 0.44889 0.87464 0.0
C372 C 0.60256 0.43126 0.88971 0.0
C373 C 0.5883 0.44335 0.92123 0.0
H374 H 0.3382 0.03727 0.83813 0.0
H375 H 0.29306 0.96327 0.76247 0.0
H376 H 0.34221 0.06815 0.77817 0.0
H377 H 0.29784 0.99353 0.70231 0.0
H378 H 0.29368 0.05864 0.60618 0.0
H379 H 0.2856 0.03534 0.6724 0.0
H380 H 0.36338 0.07207 0.71294 0.0
H381 H 0.37094 0.09625 0.64728 0.0
C382 C 0.3292 0.02757 0.80866 0.0
C383 C 0.31534 0.99781 0.80502 0.0
C384 C 0.33157 0.04523 0.77423 0.0
C385 C 0.3203 0.03343 0.73532 0.0
C386 C 0.30632 0.00368 0.73192 0.0
C387 C 0.30376 0.98617 0.76638 0.0
C388 C 0.30882 0.06216 0.62971 0.0
C389 C 0.33293 0.07911 0.62171 0.0
C390 C 0.30432 0.04861 0.66747 0.0
C391 C 0.32397 0.05133 0.69781 0.0
C392 C 0.34771 0.06966 0.69055 0.0
C393 C 0.35209 0.08353 0.65293 0.0
H394 H 0.61876 0.70048 0.21795 0.0
H395 H 0.66118 0.63638 0.15723 0.0
H396 H 0.58146 0.67898 0.17462 0.0
H397 H 0.62334 0.61379 0.11504 0.0
H398 H 0.57762 0.63547 0.00131 0.0
H399 H 0.60679 0.63413 0.05749 0.0
H400 H 0.54672 0.64039 0.14689 0.0
H401 H 0.51655 0.64134 0.08916 0.0
C402 C 0.61991 0.68119 0.19617 0.0
C403 C 0.64318 0.67069 0.1902 0.0
C404 C 0.59833 0.66858 0.17155 0.0
C405 C 0.59944 0.64497 0.14067 0.0
C406 C 0.62199 0.63248 0.13777 0.0
C407 C 0.6437 0.6454 0.16197 0.0
C408 C 0.56993 0.63528 0.03252 0.0
C409 C 0.54449 0.63898 0.04026 0.0
C410 C 0.58699 0.63453 0.06524 0.0
C411 C 0.57936 0.63764 0.10701 0.0
C412 C 0.55338 0.63857 0.11503 0.0
C413 C 0.53609 0.63916 0.08195 0.0
H414 H 0.76239 0.20432 0.76146 0.0
H415 H 0.80909 0.25481 0.67122 0.0
H416 H 0.76787 0.15668 0.72258 0.0
H417 H 0.81517 0.20748 0.63354 0.0
H418 H 0.83922 0.11963 0.59464 0.0
H419 H 0.83553 0.15776 0.65182 0.0
H420 H 0.75323 0.13717 0.63928 0.0
H421 H 0.75694 0.09947 0.58134 0.0
C422 C 0.77411 0.2052 0.73375 0.0
C423 C 0.78523 0.23321 0.71917 0.0
C424 C 0.77722 0.17803 0.71165 0.0
C425 C 0.79215 0.17854 0.67546 0.0
C426 C 0.80386 0.20652 0.66171 0.0
C427 C 0.80021 0.23357 0.68306 0.0
C428 C 0.82033 0.12226 0.60542 0.0
C429 C 0.79835 0.10663 0.58378 0.0
C430 C 0.81825 0.14423 0.63782 0.0
C431 C 0.79412 0.15045 0.64958 0.0
C432 C 0.77202 0.1326 0.63091 0.0
C433 C 0.77412 0.11102 0.59793 0.0
H434 H 0.35969 0.50922 0.17272 0.0
H435 H 0.39081 0.43634 0.22217 0.0
H436 H 0.40246 0.53439 0.15716 0.0
H437 H 0.43405 0.46222 0.20791 0.0
H438 H 0.49641 0.4938 0.10843 0.0
H439 H 0.45953 0.47152 0.14789 0.0
H440 H 0.4428 0.5609 0.18066 0.0
H441 H 0.4791 0.58277 0.13928 0.0
C442 C 0.37572 0.49881 0.18102 0.0
C443 C 0.37174 0.47056 0.19825 0.0
C444 C 0.40042 0.51346 0.1725 0.0
C445 C 0.4219 0.50045 0.1813 0.0
C446 C 0.41798 0.47276 0.20021 0.0
C447 C 0.39318 0.45795 0.20848 0.0
C448 C 0.48542 0.50868 0.12555 0.0
C449 C 0.49043 0.5399 0.12082 0.0
C450 C 0.46417 0.49596 0.14813 0.0
C451 C 0.4477 0.51433 0.16667 0.0
C452 C 0.45458 0.54598 0.16577 0.0
C453 C 0.47559 0.5586 0.14267 0.0
H454 H 0.86251 0.71917 0.82227 0.0
H455 H 0.85119 0.67585 0.69704 0.0
H456 H 0.90056 0.69655 0.83089 0.0
H457 H 0.88881 0.65274 0.70596 0.0
H458 H 0.96563 0.62722 0.72112 0.0
H459 H 0.93495 0.66113 0.71364 0.0
H460 H 0.90921 0.64659 0.83967 0.0
H461 H 0.94043 0.61365 0.8475 0.0
C462 C 0.86819 0.70493 0.7965 0.0
C463 C 0.85369 0.69917 0.75906 0.0
C464 C 0.88997 0.69188 0.8015 0.0
C465 C 0.89777 0.67274 0.76918 0.0
C466 C 0.88364 0.6677 0.73131 0.0
C467 C 0.86189 0.68077 0.72631 0.0
C468 C 0.95397 0.63204 0.74764 0.0
C469 C 0.95532 0.61759 0.7848 0.0
C470 C 0.93612 0.65114 0.74317 0.0
C471 C 0.9193 0.65625 0.77581 0.0
C472 C 0.92189 0.64334 0.81392 0.0
C473 C 0.93968 0.62427 0.81835 0.0
H474 H 0.83141 0.3932 0.11535 0.0
H475 H 0.86175 0.35345 0.21888 0.0
H476 H 0.87274 0.42583 0.10794 0.0
H477 H 0.9032 0.38655 0.21169 0.0
H478 H 0.94643 0.49048 0.22344 0.0
H479 H 0.91423 0.44451 0.22577 0.0
H480 H 0.92008 0.42692 0.09207 0.0
H481 H 0.95238 0.47289 0.08983 0.0
C482 C 0.84706 0.39105 0.13603 0.0
C483 C 0.84328 0.37095 0.1679 0.0
C484 C 0.87079 0.40959 0.13159 0.0
C485 C 0.89116 0.40875 0.15931 0.0
C486 C 0.88778 0.38767 0.18999 0.0
C487 C 0.8641 0.3687 0.19397 0.0
C488 C 0.94137 0.47624 0.19482 0.0
C489 C 0.95176 0.48523 0.15646 0.0
C490 C 0.92304 0.4499 0.19613 0.0
C491 C 0.91453 0.43232 0.15902 0.0
C492 C 0.92623 0.44019 0.12108 0.0
C493 C 0.94483 0.46633 0.11986 0.0
H494 H 0.2152 0.45696 0.78253 0.0
H495 H 0.22041 0.50133 0.90721 0.0
H496 H 0.17298 0.46992 0.77303 0.0
H497 H 0.17906 0.516 0.8971 0.0
H498 H 0.09939 0.52911 0.88305 0.0
H499 H 0.13513 0.5025 0.89184 0.0
H500 H 0.1531 0.51013 0.76082 0.0
H501 H 0.11638 0.5348 0.75208 0.0
C502 C 0.20737 0.46973 0.80779 0.0
C503 C 0.22116 0.47826 0.84554 0.0
C504 C 0.18316 0.47729 0.80234 0.0
C505 C 0.17235 0.49412 0.83421 0.0
C506 C 0.18625 0.50244 0.87208 0.0
C507 C 0.2102 0.49434 0.8778 0.0
C508 C 0.11048 0.52392 0.85596 0.0
C509 C 0.10508 0.53362 0.81684 0.0
C510 C 0.13127 0.5092 0.86102 0.0
C511 C 0.14757 0.50467 0.8273 0.0
C512 C 0.14102 0.5128 0.78755 0.0
C513 C 0.1199 0.52693 0.78237 0.0
H514 H 0.22658 0.72364 0.16567 0.0
H515 H 0.19446 0.71869 0.28937 0.0
H516 H 0.18667 0.69459 0.13575 0.0
H517 H 0.15495 0.68873 0.25973 0.0
H518 H 0.08235 0.64004 0.19717 0.0
H519 H 0.11668 0.68314 0.21685 0.0
H520 H 0.16852 0.64251 0.13605 0.0
H521 H 0.13431 0.6005 0.11605 0.0
C522 C 0.21094 0.71654 0.18645 0.0
C523 C 0.21384 0.72304 0.22995 0.0
C524 C 0.18806 0.69983 0.16932 0.0
C525 C 0.16767 0.68892 0.19535 0.0
C526 C 0.1701 0.69696 0.23864 0.0
C527 C 0.1929 0.71393 0.25572 0.0
C528 C 0.10094 0.641 0.18291 0.0
C529 C 0.10587 0.61701 0.15545 0.0
C530 C 0.12064 0.66543 0.19437 0.0
C531 C 0.14547 0.66621 0.17833 0.0
C532 C 0.14968 0.64301 0.14872 0.0
C533 C 0.13012 0.61876 0.13744 0.0
H534 H 0.81771 0.82341 0.67712 0.0
H535 H 0.74359 0.84297 0.71315 0.0
H536 H 0.82598 0.86958 0.6403 0.0
H537 H 0.75218 0.88958 0.67757 0.0
H538 H 0.75933 0.93316 0.55007 0.0
H539 H 0.75319 0.89827 0.60501 0.0
H540 H 0.83309 0.92434 0.64082 0.0
H541 H 0.83929 0.95881 0.5845 0.0
C542 C 0.80343 0.83791 0.67799 0.0
C543 C 0.77981 0.82923 0.69738 0.0
C544 C 0.80824 0.86454 0.65714 0.0
C545 C 0.78961 0.88315 0.65555 0.0
C546 C 0.76672 0.87545 0.67743 0.0
C547 C 0.76182 0.84873 0.6979 0.0
C548 C 0.77544 0.9319 0.5703 0.0
C549 C 0.79982 0.94841 0.56283 0.0
C550 C 0.77192 0.91203 0.60203 0.0
C551 C 0.79272 0.90824 0.62716 0.0
C552 C 0.81677 0.92641 0.6216 0.0
C553 C 0.82028 0.9464 0.58974 0.0
H554 H 0.66431 0.33941 0.09931 0.0
H555 H 0.68788 0.39799 0.21072 0.0
H556 H 0.63032 0.36742 0.08706 0.0
H557 H 0.65318 0.42568 0.19911 0.0
H558 H 0.62354 0.49362 0.11338 0.0
H559 H 0.64691 0.4611 0.14965 0.0
H560 H 0.59106 0.38298 0.10567 0.0
H561 H 0.56825 0.41571 0.06817 0.0
C562 C 0.66185 0.35783 0.12181 0.0
C563 C 0.6791 0.36674 0.1556 0.0
C564 C 0.64213 0.37382 0.11501 0.0
C565 C 0.63902 0.39905 0.14195 0.0
C566 C 0.65524 0.40669 0.17737 0.0
C567 C 0.67507 0.39071 0.18411 0.0
C568 C 0.6157 0.46967 0.11296 0.0
C569 C 0.59426 0.45711 0.08771 0.0
C570 C 0.62913 0.45092 0.1337 0.0
C571 C 0.62124 0.41925 0.12979 0.0
C572 C 0.59807 0.40717 0.10843 0.0
C573 C 0.58481 0.4259 0.08736 0.0
H574 H 0.33327 0.32824 0.79956 0.0
H575 H 0.28838 0.36237 0.70742 0.0
H576 H 0.33306 0.28232 0.75391 0.0
H577 H 0.28856 0.31684 0.66167 0.0
H578 H 0.28337 0.22753 0.59062 0.0
H579 H 0.2754 0.26227 0.64939 0.0
H580 H 0.35472 0.27317 0.68825 0.0
H581 H 0.36259 0.23845 0.62978 0.0
C582 C 0.32303 0.32578 0.76987 0.0
C583 C 0.31113 0.34916 0.75687 0.0
C584 C 0.32301 0.29951 0.74366 0.0
C585 C 0.31102 0.29603 0.70399 0.0
C586 C 0.29779 0.31862 0.69216 0.0
C587 C 0.29783 0.34487 0.71831 0.0
C588 C 0.29897 0.23701 0.61218 0.0
C589 C 0.32367 0.23054 0.60535 0.0
C590 C 0.29442 0.25691 0.64576 0.0
C591 C 0.31449 0.27077 0.6732 0.0
C592 C 0.33877 0.26267 0.66798 0.0
C593 C 0.34331 0.24275 0.63442 0.0
H594 H 0.39393 0.74594 0.29973 0.0
H595 H 0.33394 0.76356 0.21879 0.0
H596 H 0.41388 0.72335 0.23967 0.0
H597 H 0.35363 0.74058 0.15898 0.0
H598 H 0.38563 0.68266 0.06081 0.0
H599 H 0.36474 0.69261 0.12704 0.0
H600 H 0.43627 0.74357 0.17769 0.0
H601 H 0.45703 0.73392 0.11161 0.0
C602 C 0.3848 0.74466 0.26921 0.0
C603 C 0.36209 0.7562 0.26419 0.0
C604 C 0.39625 0.73171 0.23484 0.0
C605 C 0.38527 0.72999 0.19462 0.0
C606 C 0.36226 0.74092 0.18973 0.0
C607 C 0.35086 0.754 0.22411 0.0
C608 C 0.397 0.69542 0.08645 0.0
C609 C 0.42293 0.70773 0.0808 0.0
C610 C 0.385 0.70125 0.12425 0.0
C611 C 0.39875 0.71929 0.15733 0.0
C612 C 0.42516 0.72946 0.15289 0.0
C613 C 0.43713 0.72377 0.11501 0.0
H614 H 0.75729 0.19681 0.25615 0.0
H615 H 0.81235 0.26164 0.33023 0.0
H616 H 0.76298 0.15756 0.30258 0.0
H617 H 0.81948 0.22244 0.37463 0.0
H618 H 0.80426 0.16195 0.47792 0.0
H619 H 0.79856 0.19714 0.42751 0.0
H620 H 0.78868 0.12475 0.32901 0.0
H621 H 0.79197 0.08838 0.38114 0.0
C622 C 0.7709 0.20248 0.282 0.0
C623 C 0.78404 0.23231 0.29018 0.0
C624 C 0.77432 0.17997 0.30845 0.0
C625 C 0.79135 0.18683 0.34301 0.0
C626 C 0.80549 0.21643 0.34941 0.0
C627 C 0.80157 0.23895 0.32377 0.0
C628 C 0.80016 0.1531 0.4458 0.0
C629 C 0.798 0.12199 0.43399 0.0
C630 C 0.79753 0.17362 0.41644 0.0
C631 C 0.79352 0.16406 0.37382 0.0
C632 C 0.79156 0.13298 0.3616 0.0
C633 C 0.79373 0.11214 0.39142 0.0
H634 H 0.39537 0.51415 0.81054 0.0
H635 H 0.35903 0.5334 0.92769 0.0
H636 H 0.43637 0.54092 0.83946 0.0
H637 H 0.39998 0.55959 0.95673 0.0
H638 H 0.50079 0.53256 0.93862 0.0
H639 H 0.46423 0.52595 0.89076 0.0
H640 H 0.4367 0.60016 0.95868 0.0
H641 H 0.47322 0.60628 0.00706 0.0
C642 C 0.39598 0.52461 0.84218 0.0
C643 C 0.37394 0.52115 0.86705 0.0
C644 C 0.41954 0.53988 0.85878 0.0
C645 C 0.42161 0.5521 0.90058 0.0
C646 C 0.39915 0.55074 0.92429 0.0
C647 C 0.3756 0.53548 0.9077 0.0
C648 C 0.48754 0.54831 0.94216 0.0
C649 C 0.48954 0.56954 0.97688 0.0
C650 C 0.46648 0.54451 0.91476 0.0
C651 C 0.44712 0.56202 0.92154 0.0
C652 C 0.4509 0.58578 0.95325 0.0
C653 C 0.4719 0.58947 0.98073 0.0
H654 H 0.38696 0.91347 0.4224 0.0
H655 H 0.31175 0.89832 0.36442 0.0
H656 H 0.3849 0.96674 0.4367 0.0
H657 H 0.30989 0.952 0.37803 0.0
H658 H 0.30257 0.0295 0.48242 0.0
H659 H 0.30465 0.98187 0.44249 0.0
H660 H 0.38319 0.01584 0.41147 0.0
H661 H 0.38126 0.06324 0.45271 0.0
C662 C 0.37019 0.92163 0.4119 0.0
C663 C 0.34936 0.90155 0.39286 0.0
C664 C 0.3691 0.95231 0.41975 0.0
C665 C 0.34714 0.96366 0.40872 0.0
C666 C 0.32693 0.9439 0.38739 0.0
C667 C 0.32804 0.91316 0.3795 0.0
C668 C 0.32006 0.02704 0.46617 0.0
C669 C 0.34186 0.04986 0.47121 0.0
C670 C 0.32123 0.9998 0.44301 0.0
C671 C 0.34425 0.99482 0.42436 0.0
C672 C 0.36532 0.01878 0.42611 0.0
C673 C 0.36413 0.04607 0.44931 0.0
H674 H 0.66537 0.66558 0.77539 0.0
H675 H 0.6292 0.74206 0.75441 0.0
H676 H 0.62647 0.64099 0.80802 0.0
H677 H 0.59078 0.71816 0.78853 0.0
H678 H 0.52164 0.66918 0.8493 0.0
H679 H 0.55368 0.67891 0.7947 0.0
H680 H 0.60998 0.65208 0.87469 0.0
H681 H 0.57898 0.64301 0.92828 0.0
C682 C 0.64904 0.67702 0.7774 0.0
C683 C 0.65056 0.70602 0.76308 0.0
C684 C 0.62673 0.66296 0.79615 0.0
C685 C 0.60558 0.67779 0.80162 0.0
C686 C 0.60653 0.7059 0.78463 0.0
C687 C 0.62873 0.71978 0.7654 0.0
C688 C 0.54074 0.66484 0.85486 0.0
C689 C 0.54744 0.65533 0.89366 0.0
C690 C 0.55912 0.67043 0.82355 0.0
C691 C 0.58452 0.66645 0.83029 0.0
C692 C 0.5906 0.6549 0.86779 0.0
C693 C 0.57246 0.64953 0.89889 0.0
loop_
_geom_bond_atom_site_label_1
_geom_bond_atom_site_label_2
_geom_bond_distance
_geom_bond_site_symmetry_2
_ccdc_geom_bond_type
O0 Cd1 2.300 . S
O0 C7 1.275 . S
Cd1 O0 2.300 . S
Cd1 O9 2.381 . S
Cd1 O10 2.378 . S
O2 Cd3 2.385 . S
O2 C7 1.255 . S
Cd3 O2 2.385 . S
Cd3 O4 2.317 . S
O4 Cd3 2.317 . S
O4 C5 1.232 . S
C5 O4 1.232 . S
C5 O6 1.218 . S
O6 C5 1.218 . S
C7 O0 1.275 . S
C7 O2 1.255 . S
C8 O9 1.258 . S
C8 O10 1.256 . S
O9 Cd1 2.381 . S
O9 C8 1.258 . S
O10 Cd1 2.378 . S
O10 C8 1.256 . S
O11 Cd12 2.300 . S
O11 C18 1.275 . S
Cd12 O11 2.300 . S
Cd12 O20 2.381 . S
Cd12 O21 2.378 . S
O13 Cd14 2.385 . S
O13 C18 1.255 . S
Cd14 O13 2.385 . S
Cd14 O15 2.317 . S
O15 Cd14 2.317 . S
O15 C16 1.232 . S
C16 O15 1.232 . S
C16 O17 1.218 . S
O17 C16 1.218 . S
C18 O11 1.275 . S
C18 O13 1.255 . S
C19 O20 1.258 . S
C19 O21 1.256 . S
O20 Cd12 2.381 . S
O20 C19 1.258 . S
O21 Cd12 2.378 . S
O21 C19 1.256 . S
O22 Cd23 2.300 . S
O22 C29 1.275 . S
Cd23 O22 2.300 . S
Cd23 O31 2.381 . S
Cd23 O32 2.378 . S
O24 Cd25 2.385 . S
O24 C29 1.255 . S
Cd25 O24 2.385 . S
Cd25 O26 2.317 . S
O26 Cd25 2.317 . S
O26 C27 1.232 . S
C27 O26 1.232 . S
C27 O28 1.218 . S
O28 C27 1.218 . S
C29 O22 1.275 . S
C29 O24 1.255 . S
C30 O31 1.258 . S
C30 O32 1.256 . S
O31 Cd23 2.381 . S
O31 C30 1.258 . S
O32 Cd23 2.378 . S
O32 C30 1.256 . S
O33 Cd34 2.300 . S
O33 C40 1.275 . S
Cd34 O33 2.300 . S
Cd34 O42 2.381 . S
Cd34 O43 2.378 . S
O35 Cd36 2.385 . S
O35 C40 1.255 . S
Cd36 O35 2.385 . S
Cd36 O37 2.317 . S
O37 Cd36 2.317 . S
O37 C38 1.232 . S
C38 O37 1.232 . S
C38 O39 1.218 . S
O39 C38 1.218 . S
C40 O33 1.275 . S
C40 O35 1.255 . S
C41 O42 1.258 . S
C41 O43 1.256 . S
O42 Cd34 2.381 . S
O42 C41 1.258 . S
O43 Cd34 2.378 . S
O43 C41 1.256 . S
O44 Cd45 2.300 . S
O44 C51 1.275 . S
Cd45 O44 2.300 . S
Cd45 O53 2.381 . S
Cd45 O54 2.378 . S
O46 Cd47 2.385 . S
O46 C51 1.255 . S
Cd47 O46 2.385 . S
Cd47 O48 2.317 . S
O48 Cd47 2.317 . S
O48 C49 1.232 . S
C49 O48 1.232 . S
C49 O50 1.218 . S
O50 C49 1.218 . S
C51 O44 1.275 . S
C51 O46 1.255 . S
C52 O53 1.258 . S
C52 O54 1.256 . S
O53 Cd45 2.381 . S
O53 C52 1.258 . S
O54 Cd45 2.378 . S
O54 C52 1.256 . S
O55 Cd56 2.300 . S
O55 C62 1.275 . S
Cd56 O55 2.300 . S
Cd56 O64 2.381 . S
Cd56 O65 2.378 . S
O57 Cd58 2.385 . S
O57 C62 1.255 . S
Cd58 O57 2.385 . S
Cd58 O59 2.317 . S
O59 Cd58 2.317 . S
O59 C60 1.232 . S
C60 O59 1.232 . S
C60 O61 1.218 . S
O61 C60 1.218 . S
C62 O55 1.275 . S
C62 O57 1.255 . S
C63 O64 1.258 . S
C63 O65 1.256 . S
O64 Cd56 2.381 . S
O64 C63 1.258 . S
O65 Cd56 2.378 . S
O65 C63 1.256 . S
O66 Cd67 2.300 . S
O66 C73 1.275 . S
Cd67 O66 2.300 . S
Cd67 O75 2.381 . S
Cd67 O76 2.378 . S
O68 Cd69 2.385 . S
O68 C73 1.255 . S
Cd69 O68 2.385 . S
Cd69 O70 2.317 . S
O70 Cd69 2.317 . S
O70 C71 1.232 . S
C71 O70 1.232 . S
C71 O72 1.218 . S
O72 C71 1.218 . S
C73 O66 1.275 . S
C73 O68 1.255 . S
C74 O75 1.258 . S
C74 O76 1.256 . S
O75 Cd67 2.381 . S
O75 C74 1.258 . S
O76 Cd67 2.378 . S
O76 C74 1.256 . S
O77 Cd78 2.300 . S
O77 C84 1.275 . S
Cd78 O77 2.300 . S
Cd78 O86 2.381 . S
Cd78 O87 2.378 . S
O79 Cd80 2.385 . S
O79 C84 1.255 . S
Cd80 O79 2.385 . S
Cd80 O81 2.317 . S
O81 Cd80 2.317 . S
O81 C82 1.232 . S
C82 O81 1.232 . S
C82 O83 1.218 . S
O83 C82 1.218 . S
C84 O77 1.275 . S
C84 O79 1.255 . S
C85 O86 1.258 . S
C85 O87 1.256 . S
O86 Cd78 2.381 . S
O86 C85 1.258 . S
O87 Cd78 2.378 . S
O87 C85 1.256 . S
H88 C96 0.930 . S
H89 C99 0.930 . S
H90 C101 0.930 . S
H91 C102 0.970 . S
H92 C102 0.970 . S
H93 C104 0.930 . S
H94 C106 0.930 . S
H95 C108 0.930 . S
C96 H88 0.930 . S
C96 C97 1.382 1_455 S
C96 C98 1.426 . S
C97 C96 1.382 1_655 S
C97 C101 1.389 . S
C98 C96 1.426 . S
C98 C99 1.375 . S
C98 C102 1.532 . S
C99 H89 0.930 . S
C99 C98 1.375 . S
C99 C100 1.416 1_455 S
C100 C99 1.416 1_655 S
C100 C101 1.371 . S
C101 H90 0.930 . S
C101 C97 1.389 . S
C101 C100 1.371 . S
C102 H91 0.970 . S
C102 H92 0.970 . S
C102 C98 1.532 . S
C102 C103 1.499 . S
C103 C102 1.499 . S
C103 C104 1.370 . S
C103 C108 1.415 . S
C104 H93 0.930 . S
C104 C103 1.370 . S
C104 C105 1.407 . S
C105 C104 1.407 . S
C105 C106 1.365 . S
C106 H94 0.930 . S
C106 C105 1.365 . S
C106 C107 1.393 . S
C107 C106 1.393 . S
C107 C108 1.387 . S
C108 H95 0.930 . S
C108 C103 1.415 . S
C108 C107 1.387 . S
H109 C117 0.930 . S
H110 C120 0.930 . S
H111 C122 0.930 . S
H112 C123 0.970 . S
H113 C123 0.970 . S
H114 C125 0.930 . S
H115 C127 0.930 . S
H116 C129 0.930 . S
C117 H109 0.930 . S
C117 C118 1.382 . S
C117 C119 1.426 . S
C118 C117 1.382 . S
C118 C122 1.389 . S
C119 C117 1.426 . S
C119 C120 1.375 . S
C119 C123 1.532 . S
C120 H110 0.930 . S
C120 C119 1.375 . S
C120 C121 1.416 . S
C121 C120 1.416 . S
C121 C122 1.371 . S
C122 H111 0.930 . S
C122 C118 1.389 . S
C122 C121 1.371 . S
C123 H112 0.970 . S
C123 H113 0.970 . S
C123 C119 1.532 . S
C123 C124 1.499 1_455 S
C124 C123 1.499 1_655 S
C124 C125 1.370 . S
C124 C129 1.415 . S
C125 H114 0.930 . S
C125 C124 1.370 . S
C125 C126 1.407 . S
C126 C125 1.407 . S
C126 C127 1.365 . S
C127 H115 0.930 . S
C127 C126 1.365 . S
C127 C128 1.393 . S
C128 C127 1.393 . S
C128 C129 1.387 . S
C129 H116 0.930 . S
C129 C124 1.415 . S
C129 C128 1.387 . S
H130 C138 0.930 . S
H131 C141 0.930 . S
H132 C143 0.930 . S
H133 C144 0.970 . S
H134 C144 0.970 . S
H135 C146 0.930 . S
H136 C148 0.930 . S
H137 C150 0.930 . S
C138 H130 0.930 . S
C138 C139 1.382 . S
C138 C140 1.426 . S
C139 C138 1.382 . S
C139 C143 1.389 . S
C140 C138 1.426 . S
C140 C141 1.375 . S
C140 C144 1.532 . S
C141 H131 0.930 . S
C141 C140 1.375 . S
C141 C142 1.416 . S
C142 C141 1.416 . S
C142 C143 1.371 . S
C143 H132 0.930 . S
C143 C139 1.389 . S
C143 C142 1.371 . S
C144 H133 0.970 . S
C144 H134 0.970 . S
C144 C140 1.532 . S
C144 C145 1.499 . S
C145 C144 1.499 . S
C145 C146 1.370 . S
C145 C150 1.415 . S
C146 H135 0.930 . S
C146 C145 1.370 . S
C146 C147 1.407 . S
C147 C146 1.407 . S
C147 C148 1.365 . S
C148 H136 0.930 . S
C148 C147 1.365 . S
C148 C149 1.393 . S
C149 C148 1.393 . S
C149 C150 1.387 . S
C150 H137 0.930 . S
C150 C145 1.415 . S
C150 C149 1.387 . S
H151 C159 0.930 . S
H152 C162 0.930 . S
H153 C164 0.930 . S
H154 C165 0.970 1_556 S
H155 C165 0.970 . S
H156 C167 0.930 . S
H157 C169 0.930 . S
H158 C171 0.930 . S
C159 H151 0.930 . S
C159 C160 1.382 . S
C159 C161 1.426 1_556 S
C160 C159 1.382 . S
C160 C164 1.389 1_556 S
C161 C159 1.426 1_554 S
C161 C162 1.375 . S
C161 C165 1.532 . S
C162 H152 0.930 . S
C162 C161 1.375 . S
C162 C163 1.416 . S
C163 C162 1.416 . S
C163 C164 1.371 . S
C164 H153 0.930 . S
C164 C160 1.389 1_554 S
C164 C163 1.371 . S
C165 H154 0.970 1_554 S
C165 H155 0.970 . S
C165 C161 1.532 . S
C165 C166 1.499 . S
C166 C165 1.499 . S
C166 C167 1.370 1_554 S
C166 C171 1.415 . S
C167 H156 0.930 . S
C167 C166 1.370 1_556 S
C167 C168 1.407 . S
C168 C167 1.407 . S
C168 C169 1.365 . S
C169 H157 0.930 . S
C169 C168 1.365 . S
C169 C170 1.393 1_556 S
C170 C169 1.393 1_554 S
C170 C171 1.387 . S
C171 H158 0.930 . S
C171 C166 1.415 . S
C171 C170 1.387 . S
H172 C180 0.930 . S
H173 C183 0.930 . S
H174 C185 0.930 . S
H175 C186 0.970 . S
H176 C186 0.970 . S
H177 C188 0.930 . S
H178 C190 0.930 . S
H179 C192 0.930 . S
C180 H172 0.930 . S
C180 C181 1.382 . S
C180 C182 1.426 . S
C181 C180 1.382 . S
C181 C185 1.389 . S
C182 C180 1.426 . S
C182 C183 1.375 . S
C182 C186 1.532 . S
C183 H173 0.930 . S
C183 C182 1.375 . S
C183 C184 1.416 . S
C184 C183 1.416 . S
C184 C185 1.371 . S
C185 H174 0.930 . S
C185 C181 1.389 . S
C185 C184 1.371 . S
C186 H175 0.970 . S
C186 H176 0.970 . S
C186 C182 1.532 . S
C186 C187 1.499 1_545 S
C187 C186 1.499 1_565 S
C187 C188 1.370 . S
C187 C192 1.415 . S
C188 H177 0.930 . S
C188 C187 1.370 . S
C188 C189 1.407 . S
C189 C188 1.407 . S
C189 C190 1.365 . S
C190 H178 0.930 . S
C190 C189 1.365 . S
C190 C191 1.393 . S
C191 C190 1.393 . S
C191 C192 1.387 . S
C192 H179 0.930 . S
C192 C187 1.415 . S
C192 C191 1.387 . S
H193 C201 0.930 . S
H194 C204 0.930 . S
H195 C206 0.930 . S
H196 C207 0.970 . S
H197 C207 0.970 . S
H198 C209 0.930 . S
H199 C211 0.930 . S
H200 C213 0.930 . S
C201 H193 0.930 . S
C201 C202 1.382 . S
C201 C203 1.426 1_556 S
C202 C201 1.382 . S
C202 C206 1.389 1_556 S
C203 C201 1.426 1_554 S
C203 C204 1.375 . S
C203 C207 1.532 . S
C204 H194 0.930 . S
C204 C203 1.375 . S
C204 C205 1.416 . S
C205 C204 1.416 . S
C205 C206 1.371 . S
C206 H195 0.930 . S
C206 C202 1.389 1_554 S
C206 C205 1.371 . S
C207 H196 0.970 . S
C207 H197 0.970 . S
C207 C203 1.532 . S
C207 C208 1.499 . S
C208 C207 1.499 . S
C208 C209 1.370 1_554 S
C208 C213 1.415 . S
C209 H198 0.930 . S
C209 C208 1.370 1_556 S
C209 C210 1.407 . S
C210 C209 1.407 . S
C210 C211 1.365 1_556 S
C211 H199 0.930 . S
C211 C210 1.365 1_554 S
C211 C212 1.393 . S
C212 C211 1.393 . S
C212 C213 1.387 . S
C213 H200 0.930 . S
C213 C208 1.415 . S
C213 C212 1.387 . S
H214 C222 0.950 . S
H215 C227 0.950 . S
H216 C224 0.950 . S
H217 C226 0.950 . S
H218 C228 0.950 . S
H219 C230 0.950 . S
H220 C232 0.950 . S
H221 C233 0.950 . S
C222 H214 0.950 . S
C222 C223 1.386 . S
C222 C224 1.391 . S
C223 C222 1.386 . S
C223 C227 1.393 . S
C224 H216 0.950 . S
C224 C222 1.391 . S
C224 C225 1.400 . S
C225 C224 1.400 . S
C225 C226 1.398 . S
C225 C231 1.491 . S
C226 H217 0.950 . S
C226 C225 1.398 . S
C226 C227 1.391 . S
C227 H215 0.950 . S
C227 C223 1.393 . S
C227 C226 1.391 . S
C228 H218 0.950 . S
C228 C229 1.386 . S
C228 C230 1.391 . S
C229 C228 1.386 . S
C229 C233 1.393 . S
C230 H219 0.950 . S
C230 C228 1.391 . S
C230 C231 1.400 . S
C231 C225 1.491 . S
C231 C230 1.400 . S
C231 C232 1.398 . S
C232 H220 0.950 . S
C232 C231 1.398 . S
C232 C233 1.391 . S
C233 H221 0.950 . S
C233 C229 1.393 . S
C233 C232 1.391 . S
H234 C242 0.950 . S
H235 C247 0.950 . S
H236 C244 0.950 . S
H237 C246 0.950 . S
H238 C248 0.950 . S
H239 C250 0.950 . S
H240 C252 0.950 . S
H241 C253 0.950 . S
C242 H234 0.950 . S
C242 C243 1.386 . S
C242 C244 1.391 . S
C243 C242 1.386 . S
C243 C247 1.393 . S
C244 H236 0.950 . S
C244 C242 1.391 . S
C244 C245 1.400 . S
C245 C244 1.400 . S
C245 C246 1.398 . S
C245 C251 1.491 . S
C246 H237 0.950 . S
C246 C245 1.398 . S
C246 C247 1.391 . S
C247 H235 0.950 . S
C247 C243 1.393 . S
C247 C246 1.391 . S
C248 H238 0.950 . S
C248 C249 1.386 . S
C248 C250 1.391 . S
C249 C248 1.386 . S
C249 C253 1.393 . S
C250 H239 0.950 . S
C250 C248 1.391 . S
C250 C251 1.400 . S
C251 C245 1.491 . S
C251 C250 1.400 . S
C251 C252 1.398 . S
C252 H240 0.950 . S
C252 C251 1.398 . S
C252 C253 1.391 . S
C253 H241 0.950 . S
C253 C249 1.393 . S
C253 C252 1.391 . S
H254 C262 0.950 . S
H255 C267 0.950 . S
H256 C264 0.950 . S
H257 C266 0.950 . S
H258 C268 0.950 . S
H259 C270 0.950 . S
H260 C272 0.950 . S
H261 C273 0.950 . S
C262 H254 0.950 . S
C262 C263 1.386 . S
C262 C264 1.391 . S
C263 C262 1.386 . S
C263 C267 1.393 . S
C264 H256 0.950 . S
C264 C262 1.391 . S
C264 C265 1.400 . S
C265 C264 1.400 . S
C265 C266 1.398 . S
C265 C271 1.491 . S
C266 H257 0.950 . S
C266 C265 1.398 . S
C266 C267 1.391 . S
C267 H255 0.950 . S
C267 C263 1.393 . S
C267 C266 1.391 . S
C268 H258 0.950 . S
C268 C269 1.386 . S
C268 C270 1.391 . S
C269 C268 1.386 . S
C269 C273 1.393 . S
C270 H259 0.950 . S
C270 C268 1.391 . S
C270 C271 1.400 . S
C271 C265 1.491 . S
C271 C270 1.400 . S
C271 C272 1.398 . S
C272 H260 0.950 . S
C272 C271 1.398 . S
C272 C273 1.391 . S
C273 H261 0.950 . S
C273 C269 1.393 . S
C273 C272 1.391 . S
H274 C282 0.950 . S
H275 C287 0.950 . S
H276 C284 0.950 . S
H277 C286 0.950 . S
H278 C288 0.950 . S
H279 C290 0.950 . S
H280 C292 0.950 . S
H281 C293 0.950 . S
C282 H274 0.950 . S
C282 C283 1.386 . S
C282 C284 1.391 . S
C283 C282 1.386 . S
C283 C287 1.393 . S
C284 H276 0.950 . S
C284 C282 1.391 . S
C284 C285 1.400 . S
C285 C284 1.400 . S
C285 C286 1.398 . S
C285 C291 1.491 . S
C286 H277 0.950 . S
C286 C285 1.398 . S
C286 C287 1.391 . S
C287 H275 0.950 . S
C287 C283 1.393 . S
C287 C286 1.391 . S
C288 H278 0.950 . S
C288 C289 1.386 . S
C288 C290 1.391 . S
C289 C288 1.386 . S
C289 C293 1.393 . S
C290 H279 0.950 . S
C290 C288 1.391 . S
C290 C291 1.400 . S
C291 C285 1.491 . S
C291 C290 1.400 . S
C291 C292 1.398 . S
C292 H280 0.950 . S
C292 C291 1.398 . S
C292 C293 1.391 . S
C293 H281 0.950 . S
C293 C289 1.393 . S
C293 C292 1.391 . S
H294 C302 0.950 . S
H295 C307 0.950 . S
H296 C304 0.950 . S
H297 C306 0.950 . S
H298 C308 0.950 . S
H299 C310 0.950 . S
H300 C312 0.950 . S
H301 C313 0.950 . S
C302 H294 0.950 . S
C302 C303 1.386 . S
C302 C304 1.391 . S
C303 C302 1.386 . S
C303 C307 1.393 . S
C304 H296 0.950 . S
C304 C302 1.391 . S
C304 C305 1.400 . S
C305 C304 1.400 . S
C305 C306 1.398 . S
C305 C311 1.491 . S
C306 H297 0.950 . S
C306 C305 1.398 . S
C306 C307 1.391 . S
C307 H295 0.950 . S
C307 C303 1.393 . S
C307 C306 1.391 . S
C308 H298 0.950 . S
C308 C309 1.386 . S
C308 C310 1.391 . S
C309 C308 1.386 . S
C309 C313 1.393 . S
C310 H299 0.950 . S
C310 C308 1.391 . S
C310 C311 1.400 . S
C311 C305 1.491 . S
C311 C310 1.400 . S
C311 C312 1.398 . S
C312 H300 0.950 . S
C312 C311 1.398 . S
C312 C313 1.391 . S
C313 H301 0.950 . S
C313 C309 1.393 . S
C313 C312 1.391 . S
H314 C322 0.950 . S
H315 C327 0.950 . S
H316 C324 0.950 . S
H317 C326 0.950 . S
H318 C328 0.950 . S
H319 C330 0.950 . S
H320 C332 0.950 . S
H321 C333 0.950 . S
C322 H314 0.950 . S
C322 C323 1.386 . S
C322 C324 1.391 . S
C323 C322 1.386 . S
C323 C327 1.393 . S
C324 H316 0.950 . S
C324 C322 1.391 . S
C324 C325 1.400 . S
C325 C324 1.400 . S
C325 C326 1.398 . S
C325 C331 1.491 . S
C326 H317 0.950 . S
C326 C325 1.398 . S
C326 C327 1.391 . S
C327 H315 0.950 . S
C327 C323 1.393 . S
C327 C326 1.391 . S
C328 H318 0.950 . S
C328 C329 1.386 . S
C328 C330 1.391 . S
C329 C328 1.386 . S
C329 C333 1.393 . S
C330 H319 0.950 . S
C330 C328 1.391 . S
C330 C331 1.400 . S
C331 C325 1.491 . S
C331 C330 1.400 . S
C331 C332 1.398 . S
C332 H320 0.950 . S
C332 C331 1.398 . S
C332 C333 1.391 . S
C333 H321 0.950 . S
C333 C329 1.393 . S
C333 C332 1.391 . S
H334 C342 0.950 . S
H335 C347 0.950 . S
H336 C344 0.950 . S
H337 C346 0.950 . S
H338 C348 0.950 . S
H339 C350 0.950 . S
H340 C352 0.950 . S
H341 C353 0.950 . S
C342 H334 0.950 . S
C342 C343 1.386 . S
C342 C344 1.391 . S
C343 C342 1.386 . S
C343 C347 1.393 . S
C344 H336 0.950 . S
C344 C342 1.391 . S
C344 C345 1.400 . S
C345 C344 1.400 . S
C345 C346 1.398 . S
C345 C351 1.491 . S
C346 H337 0.950 . S
C346 C345 1.398 . S
C346 C347 1.391 . S
C347 H335 0.950 . S
C347 C343 1.393 . S
C347 C346 1.391 . S
C348 H338 0.950 . S
C348 C349 1.386 . S
C348 C350 1.391 . S
C349 C348 1.386 . S
C349 C353 1.393 . S
C350 H339 0.950 . S
C350 C348 1.391 . S
C350 C351 1.400 . S
C351 C345 1.491 . S
C351 C350 1.400 . S
C351 C352 1.398 . S
C352 H340 0.950 . S
C352 C351 1.398 . S
C352 C353 1.391 . S
C353 H341 0.950 . S
C353 C349 1.393 . S
C353 C352 1.391 . S
H354 C362 0.950 . S
H355 C367 0.950 . S
H356 C364 0.950 . S
H357 C366 0.950 . S
H358 C368 0.950 . S
H359 C370 0.950 . S
H360 C372 0.950 . S
H361 C373 0.950 . S
C362 H354 0.950 . S
C362 C363 1.386 . S
C362 C364 1.391 . S
C363 C362 1.386 . S
C363 C367 1.393 . S
C364 H356 0.950 . S
C364 C362 1.391 . S
C364 C365 1.400 . S
C365 C364 1.400 . S
C365 C366 1.398 . S
C365 C371 1.491 . S
C366 H357 0.950 . S
C366 C365 1.398 . S
C366 C367 1.391 . S
C367 H355 0.950 . S
C367 C363 1.393 . S
C367 C366 1.391 . S
C368 H358 0.950 . S
C368 C369 1.386 . S
C368 C370 1.391 . S
C369 C368 1.386 . S
C369 C373 1.393 . S
C370 H359 0.950 . S
C370 C368 1.391 . S
C370 C371 1.400 . S
C371 C365 1.491 . S
C371 C370 1.400 . S
C371 C372 1.398 . S
C372 H360 0.950 . S
C372 C371 1.398 . S
C372 C373 1.391 . S
C373 H361 0.950 . S
C373 C369 1.393 . S
C373 C372 1.391 . S
H374 C382 0.950 . S
H375 C387 0.950 . S
H376 C384 0.950 . S
H377 C386 0.950 . S
H378 C388 0.950 . S
H379 C390 0.950 1_565 S
H380 C392 0.950 . S
H381 C393 0.950 . S
C382 H374 0.950 . S
C382 C383 1.386 . S
C382 C384 1.391 . S
C383 C382 1.386 . S
C383 C387 1.393 . S
C384 H376 0.950 . S
C384 C382 1.391 . S
C384 C385 1.400 . S
C385 C384 1.400 . S
C385 C386 1.398 . S
C385 C391 1.491 1_565 S
C386 H377 0.950 . S
C386 C385 1.398 . S
C386 C387 1.391 . S
C387 H375 0.950 . S
C387 C383 1.393 . S
C387 C386 1.391 . S
C388 H378 0.950 . S
C388 C389 1.386 . S
C388 C390 1.391 . S
C389 C388 1.386 . S
C389 C393 1.393 . S
C390 H379 0.950 1_545 S
C390 C388 1.391 . S
C390 C391 1.400 . S
C391 C385 1.491 1_545 S
C391 C390 1.400 . S
C391 C392 1.398 . S
C392 H380 0.950 . S
C392 C391 1.398 . S
C392 C393 1.391 . S
C393 H381 0.950 . S
C393 C389 1.393 . S
C393 C392 1.391 . S
H394 C402 0.950 . S
H395 C407 0.950 . S
H396 C404 0.950 . S
H397 C406 0.950 . S
H398 C408 0.950 . S
H399 C410 0.950 . S
H400 C412 0.950 . S
H401 C413 0.950 . S
C402 H394 0.950 . S
C402 C403 1.386 . S
C402 C404 1.391 . S
C403 C402 1.386 . S
C403 C407 1.393 . S
C404 H396 0.950 . S
C404 C402 1.391 . S
C404 C405 1.400 . S
C405 C404 1.400 . S
C405 C406 1.398 . S
C405 C411 1.491 . S
C406 H397 0.950 . S
C406 C405 1.398 . S
C406 C407 1.391 . S
C407 H395 0.950 . S
C407 C403 1.393 . S
C407 C406 1.391 . S
C408 H398 0.950 . S
C408 C409 1.386 . S
C408 C410 1.391 . S
C409 C408 1.386 . S
C409 C413 1.393 . S
C410 H399 0.950 . S
C410 C408 1.391 . S
C410 C411 1.400 . S
C411 C405 1.491 . S
C411 C410 1.400 . S
C411 C412 1.398 . S
C412 H400 0.950 . S
C412 C411 1.398 . S
C412 C413 1.391 . S
C413 H401 0.950 . S
C413 C409 1.393 . S
C413 C412 1.391 . S
H414 C422 0.950 . S
H415 C427 0.950 . S
H416 C424 0.950 . S
H417 C426 0.950 . S
H418 C428 0.950 . S
H419 C430 0.950 . S
H420 C432 0.950 . S
H421 C433 0.950 . S
C422 H414 0.950 . S
C422 C423 1.386 . S
C422 C424 1.391 . S
C423 C422 1.386 . S
C423 C427 1.393 . S
C424 H416 0.950 . S
C424 C422 1.391 . S
C424 C425 1.400 . S
C425 C424 1.400 . S
C425 C426 1.398 . S
C425 C431 1.491 . S
C426 H417 0.950 . S
C426 C425 1.398 . S
C426 C427 1.391 . S
C427 H415 0.950 . S
C427 C423 1.393 . S
C427 C426 1.391 . S
C428 H418 0.950 . S
C428 C429 1.386 . S
C428 C430 1.391 . S
C429 C428 1.386 . S
C429 C433 1.393 . S
C430 H419 0.950 . S
C430 C428 1.391 . S
C430 C431 1.400 . S
C431 C425 1.491 . S
C431 C430 1.400 . S
C431 C432 1.398 . S
C432 H420 0.950 . S
C432 C431 1.398 . S
C432 C433 1.391 . S
C433 H421 0.950 . S
C433 C429 1.393 . S
C433 C432 1.391 . S
H434 C442 0.950 . S
H435 C447 0.950 . S
H436 C444 0.950 . S
H437 C446 0.950 . S
H438 C448 0.950 . S
H439 C450 0.950 . S
H440 C452 0.950 . S
H441 C453 0.950 . S
C442 H434 0.950 . S
C442 C443 1.386 . S
C442 C444 1.391 . S
C443 C442 1.386 . S
C443 C447 1.393 . S
C444 H436 0.950 . S
C444 C442 1.391 . S
C444 C445 1.400 . S
C445 C444 1.400 . S
C445 C446 1.398 . S
C445 C451 1.491 . S
C446 H437 0.950 . S
C446 C445 1.398 . S
C446 C447 1.391 . S
C447 H435 0.950 . S
C447 C443 1.393 . S
C447 C446 1.391 . S
C448 H438 0.950 . S
C448 C449 1.386 . S
C448 C450 1.391 . S
C449 C448 1.386 . S
C449 C453 1.393 . S
C450 H439 0.950 . S
C450 C448 1.391 . S
C450 C451 1.400 . S
C451 C445 1.491 . S
C451 C450 1.400 . S
C451 C452 1.398 . S
C452 H440 0.950 . S
C452 C451 1.398 . S
C452 C453 1.391 . S
C453 H441 0.950 . S
C453 C449 1.393 . S
C453 C452 1.391 . S
H454 C462 0.950 . S
H455 C467 0.950 . S
H456 C464 0.950 . S
H457 C466 0.950 . S
H458 C468 0.950 . S
H459 C470 0.950 . S
H460 C472 0.950 . S
H461 C473 0.950 . S
C462 H454 0.950 . S
C462 C463 1.386 . S
C462 C464 1.391 . S
C463 C462 1.386 . S
C463 C467 1.393 . S
C464 H456 0.950 . S
C464 C462 1.391 . S
C464 C465 1.400 . S
C465 C464 1.400 . S
C465 C466 1.398 . S
C465 C471 1.491 . S
C466 H457 0.950 . S
C466 C465 1.398 . S
C466 C467 1.391 . S
C467 H455 0.950 . S
C467 C463 1.393 . S
C467 C466 1.391 . S
C468 H458 0.950 . S
C468 C469 1.386 . S
C468 C470 1.391 . S
C469 C468 1.386 . S
C469 C473 1.393 . S
C470 H459 0.950 . S
C470 C468 1.391 . S
C470 C471 1.400 . S
C471 C465 1.491 . S
C471 C470 1.400 . S
C471 C472 1.398 . S
C472 H460 0.950 . S
C472 C471 1.398 . S
C472 C473 1.391 . S
C473 H461 0.950 . S
C473 C469 1.393 . S
C473 C472 1.391 . S
H474 C482 0.950 . S
H475 C487 0.950 . S
H476 C484 0.950 . S
H477 C486 0.950 . S
H478 C488 0.950 . S
H479 C490 0.950 . S
H480 C492 0.950 . S
H481 C493 0.950 . S
C482 H474 0.950 . S
C482 C483 1.386 . S
C482 C484 1.391 . S
C483 C482 1.386 . S
C483 C487 1.393 . S
C484 H476 0.950 . S
C484 C482 1.391 . S
C484 C485 1.400 . S
C485 C484 1.400 . S
C485 C486 1.398 . S
C485 C491 1.491 . S
C486 H477 0.950 . S
C486 C485 1.398 . S
C486 C487 1.391 . S
C487 H475 0.950 . S
C487 C483 1.393 . S
C487 C486 1.391 . S
C488 H478 0.950 . S
C488 C489 1.386 . S
C488 C490 1.391 . S
C489 C488 1.386 . S
C489 C493 1.393 . S
C490 H479 0.950 . S
C490 C488 1.391 . S
C490 C491 1.400 . S
C491 C485 1.491 . S
C491 C490 1.400 . S
C491 C492 1.398 . S
C492 H480 0.950 . S
C492 C491 1.398 . S
C492 C493 1.391 . S
C493 H481 0.950 . S
C493 C489 1.393 . S
C493 C492 1.391 . S
H494 C502 0.950 . S
H495 C507 0.950 . S
H496 C504 0.950 . S
H497 C506 0.950 . S
H498 C508 0.950 . S
H499 C510 0.950 . S
H500 C512 0.950 . S
H501 C513 0.950 . S
C502 H494 0.950 . S
C502 C503 1.386 . S
C502 C504 1.391 . S
C503 C502 1.386 . S
C503 C507 1.393 . S
C504 H496 0.950 . S
C504 C502 1.391 . S
C504 C505 1.400 . S
C505 C504 1.400 . S
C505 C506 1.398 . S
C505 C511 1.491 . S
C506 H497 0.950 . S
C506 C505 1.398 . S
C506 C507 1.391 . S
C507 H495 0.950 . S
C507 C503 1.393 . S
C507 C506 1.391 . S
C508 H498 0.950 . S
C508 C509 1.386 . S
C508 C510 1.391 . S
C509 C508 1.386 . S
C509 C513 1.393 . S
C510 H499 0.950 . S
C510 C508 1.391 . S
C510 C511 1.400 . S
C511 C505 1.491 . S
C511 C510 1.400 . S
C511 C512 1.398 . S
C512 H500 0.950 . S
C512 C511 1.398 . S
C512 C513 1.391 . S
C513 H501 0.950 . S
C513 C509 1.393 . S
C513 C512 1.391 . S
H514 C522 0.950 . S
H515 C527 0.950 . S
H516 C524 0.950 . S
H517 C526 0.950 . S
H518 C528 0.950 . S
H519 C530 0.950 . S
H520 C532 0.950 . S
H521 C533 0.950 . S
C522 H514 0.950 . S
C522 C523 1.386 . S
C522 C524 1.391 . S
C523 C522 1.386 . S
C523 C527 1.393 . S
C524 H516 0.950 . S
C524 C522 1.391 . S
C524 C525 1.400 . S
C525 C524 1.400 . S
C525 C526 1.398 . S
C525 C531 1.491 . S
C526 H517 0.950 . S
C526 C525 1.398 . S
C526 C527 1.391 . S
C527 H515 0.950 . S
C527 C523 1.393 . S
C527 C526 1.391 . S
C528 H518 0.950 . S
C528 C529 1.386 . S
C528 C530 1.391 . S
C529 C528 1.386 . S
C529 C533 1.393 . S
C530 H519 0.950 . S
C530 C528 1.391 . S
C530 C531 1.400 . S
C531 C525 1.491 . S
C531 C530 1.400 . S
C531 C532 1.398 . S
C532 H520 0.950 . S
C532 C531 1.398 . S
C532 C533 1.391 . S
C533 H521 0.950 . S
C533 C529 1.393 . S
C533 C532 1.391 . S
H534 C542 0.950 . S
H535 C547 0.950 . S
H536 C544 0.950 . S
H537 C546 0.950 . S
H538 C548 0.950 . S
H539 C550 0.950 . S
H540 C552 0.950 . S
H541 C553 0.950 . S
C542 H534 0.950 . S
C542 C543 1.386 . S
C542 C544 1.391 . S
C543 C542 1.386 . S
C543 C547 1.393 . S
C544 H536 0.950 . S
C544 C542 1.391 . S
C544 C545 1.400 . S
C545 C544 1.400 . S
C545 C546 1.398 . S
C545 C551 1.491 . S
C546 H537 0.950 . S
C546 C545 1.398 . S
C546 C547 1.391 . S
C547 H535 0.950 . S
C547 C543 1.393 . S
C547 C546 1.391 . S
C548 H538 0.950 . S
C548 C549 1.386 . S
C548 C550 1.391 . S
C549 C548 1.386 . S
C549 C553 1.393 . S
C550 H539 0.950 . S
C550 C548 1.391 . S
C550 C551 1.400 . S
C551 C545 1.491 . S
C551 C550 1.400 . S
C551 C552 1.398 . S
C552 H540 0.950 . S
C552 C551 1.398 . S
C552 C553 1.391 . S
C553 H541 0.950 . S
C553 C549 1.393 . S
C553 C552 1.391 . S
H554 C562 0.950 . S
H555 C567 0.950 . S
H556 C564 0.950 . S
H557 C566 0.950 . S
H558 C568 0.950 . S
H559 C570 0.950 . S
H560 C572 0.950 . S
H561 C573 0.950 . S
C562 H554 0.950 . S
C562 C563 1.386 . S
C562 C564 1.391 . S
C563 C562 1.386 . S
C563 C567 1.393 . S
C564 H556 0.950 . S
C564 C562 1.391 . S
C564 C565 1.400 . S
C565 C564 1.400 . S
C565 C566 1.398 . S
C565 C571 1.491 . S
C566 H557 0.950 . S
C566 C565 1.398 . S
C566 C567 1.391 . S
C567 H555 0.950 . S
C567 C563 1.393 . S
C567 C566 1.391 . S
C568 H558 0.950 . S
C568 C569 1.386 . S
C568 C570 1.391 . S
C569 C568 1.386 . S
C569 C573 1.393 . S
C570 H559 0.950 . S
C570 C568 1.391 . S
C570 C571 1.400 . S
C571 C565 1.491 . S
C571 C570 1.400 . S
C571 C572 1.398 . S
C572 H560 0.950 . S
C572 C571 1.398 . S
C572 C573 1.391 . S
C573 H561 0.950 . S
C573 C569 1.393 . S
C573 C572 1.391 . S
H574 C582 0.950 . S
H575 C587 0.950 . S
H576 C584 0.950 . S
H577 C586 0.950 . S
H578 C588 0.950 . S
H579 C590 0.950 . S
H580 C592 0.950 . S
H581 C593 0.950 . S
C582 H574 0.950 . S
C582 C583 1.386 . S
C582 C584 1.391 . S
C583 C582 1.386 . S
C583 C587 1.393 . S
C584 H576 0.950 . S
C584 C582 1.391 . S
C584 C585 1.400 . S
C585 C584 1.400 . S
C585 C586 1.398 . S
C585 C591 1.491 . S
C586 H577 0.950 . S
C586 C585 1.398 . S
C586 C587 1.391 . S
C587 H575 0.950 . S
C587 C583 1.393 . S
C587 C586 1.391 . S
C588 H578 0.950 . S
C588 C589 1.386 . S
C588 C590 1.391 . S
C589 C588 1.386 . S
C589 C593 1.393 . S
C590 H579 0.950 . S
C590 C588 1.391 . S
C590 C591 1.400 . S
C591 C585 1.491 . S
C591 C590 1.400 . S
C591 C592 1.398 . S
C592 H580 0.950 . S
C592 C591 1.398 . S
C592 C593 1.391 . S
C593 H581 0.950 . S
C593 C589 1.393 . S
C593 C592 1.391 . S
H594 C602 0.950 . S
H595 C607 0.950 . S
H596 C604 0.950 . S
H597 C606 0.950 . S
H598 C608 0.950 . S
H599 C610 0.950 . S
H600 C612 0.950 . S
H601 C613 0.950 . S
C602 H594 0.950 . S
C602 C603 1.386 . S
C602 C604 1.391 . S
C603 C602 1.386 . S
C603 C607 1.393 . S
C604 H596 0.950 . S
C604 C602 1.391 . S
C604 C605 1.400 . S
C605 C604 1.400 . S
C605 C606 1.398 . S
C605 C611 1.491 . S
C606 H597 0.950 . S
C606 C605 1.398 . S
C606 C607 1.391 . S
C607 H595 0.950 . S
C607 C603 1.393 . S
C607 C606 1.391 . S
C608 H598 0.950 . S
C608 C609 1.386 . S
C608 C610 1.391 . S
C609 C608 1.386 . S
C609 C613 1.393 . S
C610 H599 0.950 . S
C610 C608 1.391 . S
C610 C611 1.400 . S
C611 C605 1.491 . S
C611 C610 1.400 . S
C611 C612 1.398 . S
C612 H600 0.950 . S
C612 C611 1.398 . S
C612 C613 1.391 . S
C613 H601 0.950 . S
C613 C609 1.393 . S
C613 C612 1.391 . S
H614 C622 0.950 . S
H615 C627 0.950 . S
H616 C624 0.950 . S
H617 C626 0.950 . S
H618 C628 0.950 . S
H619 C630 0.950 . S
H620 C632 0.950 . S
H621 C633 0.950 . S
C622 H614 0.950 . S
C622 C623 1.386 . S
C622 C624 1.391 . S
C623 C622 1.386 . S
C623 C627 1.393 . S
C624 H616 0.950 . S
C624 C622 1.391 . S
C624 C625 1.400 . S
C625 C624 1.400 . S
C625 C626 1.398 . S
C625 C631 1.491 . S
C626 H617 0.950 . S
C626 C625 1.398 . S
C626 C627 1.391 . S
C627 H615 0.950 . S
C627 C623 1.393 . S
C627 C626 1.391 . S
C628 H618 0.950 . S
C628 C629 1.386 . S
C628 C630 1.391 . S
C629 C628 1.386 . S
C629 C633 1.393 . S
C630 H619 0.950 . S
C630 C628 1.391 . S
C630 C631 1.400 . S
C631 C625 1.491 . S
C631 C630 1.400 . S
C631 C632 1.398 . S
C632 H620 0.950 . S
C632 C631 1.398 . S
C632 C633 1.391 . S
C633 H621 0.950 . S
C633 C629 1.393 . S
C633 C632 1.391 . S
H634 C642 0.950 . S
H635 C647 0.950 . S
H636 C644 0.950 . S
H637 C646 0.950 . S
H638 C648 0.950 . S
H639 C650 0.950 . S
H640 C652 0.950 . S
H641 C653 0.950 . S
C642 H634 0.950 . S
C642 C643 1.386 . S
C642 C644 1.391 . S
C643 C642 1.386 . S
C643 C647 1.393 . S
C644 H636 0.950 . S
C644 C642 1.391 . S
C644 C645 1.400 . S
C645 C644 1.400 . S
C645 C646 1.398 . S
C645 C651 1.491 . S
C646 H637 0.950 . S
C646 C645 1.398 . S
C646 C647 1.391 . S
C647 H635 0.950 . S
C647 C643 1.393 . S
C647 C646 1.391 . S
C648 H638 0.950 . S
C648 C649 1.386 . S
C648 C650 1.391 . S
C649 C648 1.386 . S
C649 C653 1.393 . S
C650 H639 0.950 . S
C650 C648 1.391 . S
C650 C651 1.400 . S
C651 C645 1.491 . S
C651 C650 1.400 . S
C651 C652 1.398 . S
C652 H640 0.950 . S
C652 C651 1.398 . S
C652 C653 1.391 . S
C653 H641 0.950 . S
C653 C649 1.393 . S
C653 C652 1.391 . S
H654 C662 0.950 . S
H655 C667 0.950 . S
H656 C664 0.950 . S
H657 C666 0.950 . S
H658 C668 0.950 . S
H659 C670 0.950 . S
H660 C672 0.950 1_565 S
H661 C673 0.950 . S
C662 H654 0.950 . S
C662 C663 1.386 . S
C662 C664 1.391 . S
C663 C662 1.386 . S
C663 C667 1.393 . S
C664 H656 0.950 . S
C664 C662 1.391 . S
C664 C665 1.400 . S
C665 C664 1.400 . S
C665 C666 1.398 . S
C665 C671 1.491 . S
C666 H657 0.950 . S
C666 C665 1.398 . S
C666 C667 1.391 . S
C667 H655 0.950 . S
C667 C663 1.393 . S
C667 C666 1.391 . S
C668 H658 0.950 . S
C668 C669 1.386 . S
C668 C670 1.391 . S
C669 C668 1.386 . S
C669 C673 1.393 . S
C670 H659 0.950 . S
C670 C668 1.391 . S
C670 C671 1.400 1_545 S
C671 C665 1.491 . S
C671 C670 1.400 1_565 S
C671 C672 1.398 1_565 S
C672 H660 0.950 1_545 S
C672 C671 1.398 1_545 S
C672 C673 1.391 . S
C673 H661 0.950 . S
C673 C669 1.393 . S
C673 C672 1.391 . S
H674 C682 0.950 . S
H675 C687 0.950 . S
H676 C684 0.950 . S
H677 C686 0.950 . S
H678 C688 0.950 . S
H679 C690 0.950 . S
H680 C692 0.950 . S
H681 C693 0.950 . S
C682 H674 0.950 . S
C682 C683 1.386 . S
C682 C684 1.391 . S
C683 C682 1.386 . S
C683 C687 1.393 . S
C684 H676 0.950 . S
C684 C682 1.391 . S
C684 C685 1.400 . S
C685 C684 1.400 . S
C685 C686 1.398 . S
C685 C691 1.491 . S
C686 H677 0.950 . S
C686 C685 1.398 . S
C686 C687 1.391 . S
C687 H675 0.950 . S
C687 C683 1.393 . S
C687 C686 1.391 . S
C688 H678 0.950 . S
C688 C689 1.386 . S
C688 C690 1.391 . S
C689 C688 1.386 . S
C689 C693 1.393 . S
C690 H679 0.950 . S
C690 C688 1.391 . S
C690 C691 1.400 . S
C691 C685 1.491 . S
C691 C690 1.400 . S
C691 C692 1.398 . S
C692 H680 0.950 . S
C692 C691 1.398 . S
C692 C693 1.391 . S
C693 H681 0.950 . S
C693 C689 1.393 . S
C693 C692 1.391 . S
C229 C105 1.757 . S
C223 C5 1.769 . S
C249 C118 1.389 . S
C243 C16 1.292 . S
C269 C100 1.671 . S
C263 C30 1.732 . S
C289 C128 1.585 . S
C283 C40 1.651 . S
C309 C139 1.410 . S
C303 C8 1.504 . S
C329 C160 1.309 . S
C323 C18 1.387 . S
C343 C29 1.696 . S
C349 C189 1.609 . S
C369 C210 1.663 . S
C363 C38 1.472 . S
C389 C149 1.388 . S
C383 C19 1.405 . S
C403 C27 1.425 . S
C409 C170 1.489 . S
C429 C184 1.485 . S
C423 C41 1.595 . S
C449 C205 1.819 . S
C443 C7 1.807 . S
C463 C52 1.670 . S
C469 C126 1.542 . S
C489 C97 1.867 . S
C483 C62 1.897 . S
C503 C74 1.634 . S
C509 C121 1.400 . S
C523 C82 1.273 . S
C529 C107 1.541 . S
C549 C191 1.751 . S
C543 C51 1.727 . S
C569 C212 1.863 . S
C563 C60 1.665 . S
C589 C142 1.365 . S
C583 C71 1.359 . S
C603 C84 1.504 . S
C609 C163 1.397 . S
C629 C181 1.651 . S
C623 C63 1.716 . S
C649 C202 1.631 . S
C643 C73 1.646 . S
C669 C147 1.453 . S
C663 C85 1.521 . S
C683 C49 1.325 . S
C689 C168 1.490 . S
