# Generated by pormake.
# Topology rtl, (3,6)-cn, num edge types: 1
# Building blocks:
#     Node 0, Type 0, BuildingBlock: BETDIP_clean_linker_0, # of connection points: 3
#     Node 1, Type 0, BuildingBlock: BETDIP_clean_linker_0, # of connection points: 3
#     Node 2, Type 0, BuildingBlock: BETDIP_clean_linker_0, # of connection points: 3
#     Node 3, Type 0, BuildingBlock: BETDIP_clean_linker_0, # of connection points: 3
#     Node 4, Type 1, BuildingBlock: LEVNOQ01_clean_sbu_1, # of connection points: 6
#     Node 5, Type 1, BuildingBlock: LEVNOQ01_clean_sbu_1, # of connection points: 6
#     Edge 6, Type (0, 1), BuildingBlock: MIFKUJ_clean_linker_0, # of connection points: 2
#     Edge 7, Type (0, 1), BuildingBlock: MIFKUJ_clean_linker_0, # of connection points: 2
#     Edge 8, Type (0, 1), BuildingBlock: MIFKUJ_clean_linker_0, # of connection points: 2
#     Edge 9, Type (0, 1), BuildingBlock: MIFKUJ_clean_linker_0, # of connection points: 2
#     Edge 10, Type (0, 1), BuildingBlock: MIFKUJ_clean_linker_0, # of connection points: 2
#     Edge 11, Type (0, 1), BuildingBlock: MIFKUJ_clean_linker_0, # of connection points: 2
#     Edge 12, Type (0, 1), BuildingBlock: MIFKUJ_clean_linker_0, # of connection points: 2
#     Edge 13, Type (0, 1), BuildingBlock: MIFKUJ_clean_linker_0, # of connection points: 2
#     Edge 14, Type (0, 1), BuildingBlock: MIFKUJ_clean_linker_0, # of connection points: 2
#     Edge 15, Type (0, 1), BuildingBlock: MIFKUJ_clean_linker_0, # of connection points: 2
#     Edge 16, Type (0, 1), BuildingBlock: MIFKUJ_clean_linker_0, # of connection points: 2
#     Edge 17, Type (0, 1), BuildingBlock: MIFKUJ_clean_linker_0, # of connection points: 2
# Relax obj value: 0.017
# Max RMSD: 0.120
# Mean RMSD: 0.091
data_MOF--net-rtl--node1-LEVNOQ01_clean_sbu_1--node2-BETDIP_clean_linker_0--edge1-MIFKUJ_clean_linker_0
_symmetry_space_group_name_H-M    P1
_symmetry_Int_Tables_number       1
_symmetry_cell_setting            triclinic
loop_
_symmetry_equiv_pos_as_xyz
'x, y, z'
_cell_length_a     46.272148
_cell_length_b     46.145257
_cell_length_c     29.135839
_cell_angle_alpha  90.903411
_cell_angle_beta   98.623991
_cell_angle_gamma 89.977899
loop_
_atom_site_label
_atom_site_type_symbol
_atom_site_fract_x
_atom_site_fract_y
_atom_site_fract_z
_atom_type_partial_charge
H0 H 0.20619 0.80815 0.00767 0.0
H1 H 0.21377 0.82193 0.15531 0.0
H2 H 0.15096 0.87037 0.0634 0.0
H3 H 0.25995 0.80526 0.15405 0.0
C4 C 0.2568 0.7883 0.1275 0.0
C5 C 0.19934 0.81941 0.03714 0.0
C6 C 0.17665 0.83985 0.03009 0.0
C7 C 0.21328 0.81321 0.08202 0.0
C8 C 0.20409 0.82742 0.12041 0.0
C9 C 0.1814 0.84792 0.11403 0.0
C10 C 0.16791 0.85401 0.06873 0.0
N11 N 0.23551 0.79168 0.08731 0.0
H12 H 0.7049 0.71503 0.66233 0.0
H13 H 0.69633 0.72821 0.51513 0.0
H14 H 0.64057 0.66696 0.56963 0.0
H15 H 0.74787 0.73779 0.53923 0.0
C16 C 0.74563 0.75224 0.56831 0.0
C17 C 0.69445 0.70965 0.62739 0.0
C18 C 0.67186 0.68908 0.62037 0.0
C19 C 0.70362 0.7236 0.58976 0.0
C20 C 0.68986 0.71698 0.54433 0.0
C21 C 0.66671 0.69683 0.53677 0.0
C22 C 0.65792 0.68299 0.57509 0.0
N23 N 0.72567 0.74522 0.59901 0.0
H24 H 0.80094 0.21376 0.91578 0.0
H25 H 0.8054 0.22477 0.06332 0.0
H26 H 0.86179 0.16332 0.00779 0.0
H27 H 0.7537 0.23274 0.03636 0.0
C28 C 0.75632 0.24777 0.00891 0.0
C29 C 0.81035 0.20771 0.95064 0.0
C30 C 0.83265 0.18693 0.95731 0.0
C31 C 0.80003 0.22093 0.98857 0.0
C32 C 0.81264 0.21376 0.03401 0.0
C33 C 0.83545 0.19331 0.04152 0.0
C34 C 0.84502 0.17986 0.00274 0.0
N35 N 0.77779 0.24225 0.97978 0.0
H36 H 0.29218 0.32703 0.41009 0.0
H37 H 0.29722 0.3163 0.55755 0.0
H38 H 0.359 0.37112 0.50395 0.0
H39 H 0.27863 0.27123 0.53187 0.0
C40 C 0.26261 0.27645 0.50193 0.0
C41 C 0.30261 0.33211 0.44514 0.0
C42 C 0.32698 0.3506 0.4525 0.0
C43 C 0.29228 0.31895 0.48257 0.0
C44 C 0.3058 0.32537 0.52831 0.0
C45 C 0.3297 0.3446 0.53638 0.0
C46 C 0.34028 0.35669 0.49815 0.0
N47 N 0.26811 0.29963 0.4729 0.0
O48 O 0.01393 0.06144 0.63559 0.0
Mg49 Mg 0.04587 0.04392 0.59972 0.0
O50 O 0.97945 0.04152 0.58471 0.0
Mg51 Mg 0.00586 0.01473 0.53497 0.0
O52 O 0.04256 0.05058 0.52972 0.0
O53 O 0.0733 0.07449 0.58487 0.0
O54 O 0.0345 0.98909 0.48665 0.0
O55 O 0.98018 0.0415 0.47322 0.0
Mg56 Mg 0.97481 0.97521 0.47071 0.0
O57 O 0.96862 0.97967 0.53881 0.0
O58 O 0.01032 0.95055 0.45741 0.0
O59 O 0.95995 0.00796 0.4241 0.0
O60 O 0.94248 0.95002 0.48588 0.0
C61 C 0.05473 0.98585 0.62281 0.0
C62 C 0.98713 0.05725 0.62095 0.0
C63 C 0.06341 0.06951 0.54171 0.0
C64 C 0.03368 0.96503 0.46426 0.0
C65 C 0.96503 0.03437 0.43435 0.0
C66 C 0.94844 0.95993 0.52785 0.0
O67 O 0.06993 0.0086 0.62699 0.0
O68 O 0.03029 0.98545 0.59582 0.0
O69 O 0.5653 0.53182 0.12592 0.0
Mg70 Mg 0.54459 0.49335 0.10141 0.0
O71 O 0.52353 0.55104 0.0955 0.0
Mg72 Mg 0.50065 0.51938 0.03539 0.0
O73 O 0.53894 0.48541 0.03118 0.0
O74 O 0.57303 0.46411 0.08326 0.0
O75 O 0.4766 0.48876 0.97505 0.0
O76 O 0.52661 0.54628 0.98544 0.0
Mg77 Mg 0.46551 0.55293 0.97143 0.0
O78 O 0.46066 0.55164 0.04022 0.0
O79 O 0.45118 0.51863 0.92685 0.0
O80 O 0.49733 0.57983 0.95257 0.0
O81 O 0.43112 0.57571 0.98502 0.0
C82 C 0.48587 0.47795 0.12303 0.0
C83 C 0.5481 0.5531 0.122 0.0
C84 C 0.56094 0.46769 0.04091 0.0
C85 C 0.45932 0.49318 0.93732 0.0
C86 C 0.52245 0.56877 0.96028 0.0
C87 C 0.43842 0.56874 0.02787 0.0
O88 O 0.51293 0.47541 0.13758 0.0
O89 O 0.47719 0.49233 0.08649 0.0
H90 H 0.25576 0.22334 0.53637 0.0
H91 H 0.21587 0.18881 0.51369 0.0
H92 H 0.17345 0.24938 0.41432 0.0
H93 H 0.21376 0.28399 0.43639 0.0
H94 H 0.13609 0.22286 0.47478 0.0
H95 H 0.19991 0.1956 0.3685 0.0
H96 H 0.24724 0.18412 0.34345 0.0
H97 H 0.25757 0.1113 0.43435 0.0
H98 H 0.21051 0.12259 0.46052 0.0
H99 H 0.03934 0.10309 0.46818 0.0
H100 H 0.06653 0.13837 0.42825 0.0
H101 H 0.14768 0.1058 0.5021 0.0
H102 H 0.12088 0.07071 0.54036 0.0
H103 H 0.15719 0.12345 0.42165 0.0
H104 H 0.10477 0.16343 0.54621 0.0
H105 H 0.05895 0.17476 0.57658 0.0
H106 H 0.02834 0.22285 0.45382 0.0
H107 H 0.07398 0.21167 0.42277 0.0
C108 C 0.23797 0.22926 0.5096 0.0
C109 C 0.23792 0.25621 0.488 0.0
C110 C 0.21528 0.20951 0.49655 0.0
C111 C 0.19188 0.21644 0.46197 0.0
C112 C 0.19141 0.24359 0.44084 0.0
C113 C 0.21445 0.26326 0.45344 0.0
C114 C 0.16786 0.19516 0.4494 0.0
C115 C 0.14036 0.20133 0.46186 0.0
C116 C 0.17344 0.16715 0.43248 0.0
C117 C 0.20166 0.16001 0.41655 0.0
C118 C 0.21234 0.17724 0.38336 0.0
C119 C 0.23912 0.17075 0.36893 0.0
C120 C 0.25541 0.147 0.38731 0.0
C121 C 0.24491 0.12967 0.4201 0.0
C122 C 0.21815 0.13607 0.43468 0.0
C123 C 0.06301 0.10284 0.47415 0.0
C124 C 0.07814 0.08445 0.50744 0.0
C125 C 0.07854 0.12315 0.45178 0.0
C126 C 0.1092 0.12525 0.46294 0.0
C127 C 0.12413 0.10481 0.4928 0.0
C128 C 0.10878 0.08474 0.51484 0.0
C129 C 0.12609 0.15056 0.44999 0.0
C130 C 0.15239 0.14526 0.43267 0.0
C131 C 0.11955 0.17929 0.46292 0.0
C132 C 0.09254 0.18651 0.48205 0.0
C133 C 0.08822 0.1764 0.52577 0.0
C134 C 0.06231 0.18278 0.54307 0.0
C135 C 0.04072 0.19946 0.5171 0.0
C136 C 0.04507 0.20992 0.47388 0.0
C137 C 0.07095 0.2036 0.45644 0.0
H138 H 0.02065 0.20433 0.5305 0.0
H139 H 0.27614 0.14202 0.37611 0.0
H140 H 0.25362 0.73921 0.07264 0.0
H141 H 0.2869 0.6979 0.0801 0.0
H142 H 0.33816 0.73863 0.19962 0.0
H143 H 0.3047 0.78025 0.19232 0.0
H144 H 0.37211 0.71714 0.13618 0.0
H145 H 0.29793 0.68178 0.21718 0.0
H146 H 0.24754 0.67156 0.2303 0.0
H147 H 0.23461 0.61586 0.10951 0.0
H148 H 0.28477 0.62607 0.09522 0.0
H149 H 0.45728 0.59118 0.11536 0.0
H150 H 0.42874 0.62356 0.15947 0.0
H151 H 0.35216 0.60774 0.05786 0.0
H152 H 0.38017 0.57545 0.01492 0.0
H153 H 0.33602 0.61609 0.1397 0.0
H154 H 0.40264 0.66404 0.04729 0.0
H155 H 0.45197 0.67478 0.02938 0.0
H156 H 0.47797 0.70681 0.16865 0.0
H157 H 0.42881 0.696 0.18742 0.0
C158 C 0.2719 0.7394 0.10059 0.0
C159 C 0.27664 0.76298 0.1319 0.0
C160 C 0.29082 0.71567 0.10502 0.0
C161 C 0.31482 0.71502 0.14078 0.0
C162 C 0.3197 0.73862 0.17195 0.0
C163 C 0.3006 0.76231 0.16776 0.0
C164 C 0.33528 0.69008 0.14392 0.0
C165 C 0.36444 0.69505 0.13823 0.0
C166 C 0.32527 0.66126 0.14641 0.0
C167 C 0.29513 0.65478 0.15506 0.0
C168 C 0.28429 0.66747 0.19325 0.0
C169 C 0.25577 0.66167 0.20092 0.0
C170 C 0.23788 0.64308 0.17074 0.0
C171 C 0.2485 0.63023 0.13288 0.0
C172 C 0.277 0.63598 0.12503 0.0
C173 C 0.43409 0.59384 0.1037 0.0
C174 C 0.42091 0.58117 0.06158 0.0
C175 C 0.41787 0.61251 0.12859 0.0
C176 C 0.38842 0.61861 0.11142 0.0
C177 C 0.37479 0.60356 0.07184 0.0
C178 C 0.39088 0.58515 0.04715 0.0
C179 C 0.37239 0.64314 0.12966 0.0
C180 C 0.34399 0.63818 0.13937 0.0
C181 C 0.38297 0.67198 0.13038 0.0
C182 C 0.41225 0.67894 0.11887 0.0
C183 C 0.41894 0.6733 0.07409 0.0
C184 C 0.44684 0.67939 0.0638 0.0
C185 C 0.46812 0.69139 0.09791 0.0
C186 C 0.46149 0.69745 0.14231 0.0
C187 C 0.43362 0.69136 0.15279 0.0
H188 H 0.48972 0.69606 0.0899 0.0
H189 H 0.2158 0.63863 0.17672 0.0
H190 H 0.74005 0.80057 0.62237 0.0
H191 H 0.77439 0.84145 0.63777 0.0
H192 H 0.83258 0.79921 0.55548 0.0
H193 H 0.79792 0.75882 0.53862 0.0
H194 H 0.85652 0.82673 0.6561 0.0
H195 H 0.80044 0.84335 0.49962 0.0
H196 H 0.75364 0.84972 0.44781 0.0
H197 H 0.73108 0.91982 0.53437 0.0
H198 H 0.77763 0.91354 0.58704 0.0
H199 H 0.95694 0.9058 0.55764 0.0
H200 H 0.92193 0.87632 0.59036 0.0
H201 H 0.86961 0.95231 0.60647 0.0
H202 H 0.90473 0.98184 0.57176 0.0
H203 H 0.83721 0.9144 0.55998 0.0
H204 H 0.89891 0.90849 0.70203 0.0
H205 H 0.94448 0.90371 0.75716 0.0
H206 H 0.95501 0.81661 0.70836 0.0
H207 H 0.90987 0.82102 0.65227 0.0
C208 C 0.76025 0.79997 0.6078 0.0
C209 C 0.76644 0.77658 0.57931 0.0
C210 C 0.7798 0.82326 0.61669 0.0
C211 C 0.80603 0.82315 0.59802 0.0
C212 C 0.81251 0.79952 0.57045 0.0
C213 C 0.79269 0.7766 0.56066 0.0
C214 C 0.82615 0.84829 0.60476 0.0
C215 C 0.85248 0.846 0.63529 0.0
C216 C 0.82005 0.87389 0.57929 0.0
C217 C 0.79225 0.87772 0.54753 0.0
C218 C 0.78535 0.85991 0.50783 0.0
C219 C 0.75892 0.86355 0.47826 0.0
C220 C 0.73935 0.88509 0.48788 0.0
C221 C 0.74622 0.90309 0.52702 0.0
C222 C 0.77262 0.89951 0.55673 0.0
C223 C 0.93869 0.91641 0.57024 0.0
C224 C 0.93362 0.94602 0.56284 0.0
C225 C 0.91859 0.89954 0.58908 0.0
C226 C 0.89301 0.91197 0.60128 0.0
C227 C 0.88916 0.94217 0.59743 0.0
C228 C 0.90935 0.95912 0.57818 0.0
C229 C 0.8687 0.89259 0.61001 0.0
C230 C 0.84131 0.89577 0.58224 0.0
C231 C 0.8737 0.86809 0.6389 0.0
C232 C 0.90092 0.86513 0.67279 0.0
C233 C 0.91103 0.88837 0.7028 0.0
C234 C 0.93681 0.88573 0.73426 0.0
C235 C 0.95266 0.85989 0.73626 0.0
C236 C 0.94274 0.83663 0.70681 0.0
C237 C 0.917 0.83917 0.67522 0.0
H238 H 0.97259 0.8579 0.76071 0.0
H239 H 0.7189 0.88788 0.46494 0.0
H240 H 0.76107 0.29639 0.9575 0.0
H241 H 0.72553 0.33592 0.94259 0.0
H242 H 0.66728 0.2915 0.02036 0.0
H243 H 0.70309 0.2523 0.03652 0.0
H244 H 0.64105 0.31706 0.92742 0.0
H245 H 0.70168 0.3396 0.07591 0.0
H246 H 0.74898 0.34798 0.1258 0.0
H247 H 0.76844 0.41671 0.03752 0.0
H248 H 0.72138 0.40842 0.98669 0.0
H249 H 0.54575 0.41257 0.01849 0.0
H250 H 0.57729 0.37693 0.98859 0.0
H251 H 0.63439 0.44555 0.9575 0.0
H252 H 0.603 0.4812 0.98913 0.0
H253 H 0.66415 0.41039 0.0117 0.0
H254 H 0.60194 0.39448 0.86939 0.0
H255 H 0.55624 0.3866 0.81524 0.0
H256 H 0.54041 0.30813 0.88469 0.0
H257 H 0.58624 0.31531 0.93899 0.0
C258 C 0.74061 0.29498 0.97115 0.0
C259 C 0.73475 0.27132 0.9982 0.0
C260 C 0.72035 0.31752 0.96254 0.0
C261 C 0.69375 0.31648 0.98013 0.0
C262 C 0.68759 0.29254 0.00618 0.0
C263 C 0.70809 0.27032 0.01562 0.0
C264 C 0.67308 0.34116 0.97403 0.0
C265 C 0.64593 0.3375 0.94584 0.0
C266 C 0.68002 0.36811 0.99662 0.0
C267 C 0.70824 0.37312 0.02718 0.0
C268 C 0.71619 0.35628 0.06687 0.0
C269 C 0.74292 0.36107 0.09538 0.0
C270 C 0.76176 0.38279 0.08474 0.0
C271 C 0.75386 0.39984 0.04564 0.0
C272 C 0.72716 0.39512 0.01699 0.0
C273 C 0.56414 0.42011 0.00285 0.0
C274 C 0.57177 0.44955 0.00536 0.0
C275 C 0.58231 0.39969 0.98578 0.0
C276 C 0.60841 0.40839 0.97069 0.0
C277 C 0.61445 0.43822 0.96896 0.0
C278 C 0.59633 0.45865 0.98644 0.0
C279 C 0.63143 0.38644 0.96554 0.0
C280 C 0.65921 0.39039 0.99202 0.0
C281 C 0.62516 0.35997 0.94072 0.0
C282 C 0.59744 0.35555 0.90846 0.0
C283 C 0.58862 0.37564 0.87333 0.0
C284 C 0.56271 0.37128 0.84256 0.0
C285 C 0.54529 0.34704 0.84677 0.0
C286 C 0.55389 0.32694 0.88152 0.0
C287 C 0.57993 0.33105 0.91215 0.0
H288 H 0.52519 0.34377 0.82297 0.0
H289 H 0.78243 0.38647 0.10687 0.0
H290 H 0.21487 0.87029 0.19237 0.0
H291 H 0.19791 0.89437 0.25901 0.0
H292 H 0.10853 0.88315 0.19365 0.0
H293 H 0.12523 0.859 0.12733 0.0
H294 H 0.11715 0.93677 0.23055 0.0
H295 H 0.13938 0.83807 0.27871 0.0
H296 H 0.17152 0.79558 0.2943 0.0
H297 H 0.23007 0.84565 0.39325 0.0
H298 H 0.19843 0.88856 0.37776 0.0
H299 H 0.04536 0.90989 0.43929 0.0
H300 H 0.08016 0.89417 0.38902 0.0
H301 H 0.11278 0.98163 0.38698 0.0
H302 H 0.07778 0.99761 0.43774 0.0
H303 H 0.13947 0.89518 0.38793 0.0
H304 H 0.11886 0.9938 0.27137 0.0
H305 H 0.0829 0.0332 0.25433 0.0
H306 H 0.0151 0.97798 0.28957 0.0
H307 H 0.05057 0.93819 0.30616 0.0
C308 C 0.1916 0.87282 0.19236 0.0
C309 C 0.17139 0.86271 0.15455 0.0
C310 C 0.18196 0.88669 0.23036 0.0
C311 C 0.15195 0.89051 0.23134 0.0
C312 C 0.1318 0.88067 0.19346 0.0
C313 C 0.14138 0.86687 0.15555 0.0
C314 C 0.14117 0.90397 0.27214 0.0
C315 C 0.12237 0.9279 0.26507 0.0
C316 C 0.14785 0.89239 0.31719 0.0
C317 C 0.16675 0.86658 0.32669 0.0
C318 C 0.15923 0.84007 0.30353 0.0
C319 C 0.17733 0.81591 0.31238 0.0
C320 C 0.20287 0.81794 0.34463 0.0
C321 C 0.21031 0.84412 0.36821 0.0
C322 C 0.1923 0.86836 0.35942 0.0
C323 C 0.06036 0.9257 0.429 0.0
C324 C 0.05861 0.95504 0.44192 0.0
C325 C 0.08037 0.91663 0.40049 0.0
C326 C 0.0988 0.93677 0.38385 0.0
C327 C 0.09858 0.96578 0.39927 0.0
C328 C 0.07867 0.97486 0.42834 0.0
C329 C 0.11526 0.92771 0.34615 0.0
C330 C 0.13502 0.90459 0.35371 0.0
C331 C 0.10907 0.93967 0.30132 0.0
C332 C 0.08744 0.96321 0.29057 0.0
C333 C 0.09626 0.99009 0.27534 0.0
C334 C 0.07597 0.01247 0.26577 0.0
C335 C 0.04676 0.00814 0.27105 0.0
C336 C 0.03775 0.98135 0.28566 0.0
C337 C 0.05793 0.95889 0.29518 0.0
H338 H 0.0311 0.0255 0.26371 0.0
H339 H 0.21685 0.79921 0.35144 0.0
H340 H 0.61663 0.68468 0.641 0.0
H341 H 0.60107 0.66159 0.70851 0.0
H342 H 0.69006 0.6366 0.75695 0.0
H343 H 0.70592 0.66031 0.68983 0.0
H344 H 0.63436 0.59141 0.75177 0.0
H345 H 0.67978 0.68099 0.81749 0.0
H346 H 0.6884 0.7337 0.81648 0.0
H347 H 0.59669 0.74937 0.81384 0.0
H348 H 0.58747 0.6967 0.81405 0.0
H349 H 0.57776 0.54727 0.9563 0.0
H350 H 0.61343 0.56582 0.90932 0.0
H351 H 0.55462 0.63562 0.86293 0.0
H352 H 0.51981 0.61805 0.91028 0.0
H353 H 0.60715 0.65563 0.87659 0.0
H354 H 0.55912 0.57058 0.79881 0.0
H355 H 0.5455 0.51881 0.79345 0.0
H356 H 0.6362 0.49506 0.81267 0.0
H357 H 0.65034 0.54674 0.81866 0.0
C358 C 0.63282 0.67411 0.66591 0.0
C359 C 0.66245 0.67431 0.66042 0.0
C360 C 0.62395 0.66096 0.70433 0.0
C361 C 0.64446 0.64742 0.73746 0.0
C362 C 0.67398 0.64692 0.73158 0.0
C363 C 0.68298 0.66058 0.69354 0.0
C364 C 0.63479 0.63504 0.77908 0.0
C365 C 0.62906 0.60522 0.7798 0.0
C366 C 0.6274 0.65326 0.81489 0.0
C367 C 0.63293 0.68492 0.81539 0.0
C368 C 0.66143 0.69568 0.81627 0.0
C369 C 0.66643 0.72554 0.81593 0.0
C370 C 0.6431 0.74487 0.815 0.0
C371 C 0.61473 0.73437 0.81453 0.0
C372 C 0.60962 0.70452 0.81481 0.0
C373 C 0.57275 0.56684 0.93665 0.0
C374 C 0.54582 0.58101 0.93672 0.0
C375 C 0.59305 0.57732 0.90962 0.0
C376 C 0.58655 0.60192 0.88204 0.0
C377 C 0.56024 0.61666 0.88386 0.0
C378 C 0.5402 0.60641 0.91088 0.0
C379 C 0.60586 0.61192 0.84902 0.0
C380 C 0.61328 0.64146 0.8496 0.0
C381 C 0.61426 0.59347 0.81396 0.0
C382 C 0.60578 0.56246 0.80975 0.0
C383 C 0.57615 0.55429 0.80214 0.0
C384 C 0.56833 0.52498 0.79896 0.0
C385 C 0.58997 0.50365 0.80287 0.0
C386 C 0.61947 0.51161 0.80976 0.0
C387 C 0.6274 0.5409 0.81303 0.0
H388 H 0.58389 0.48097 0.80047 0.0
H389 H 0.64701 0.76799 0.81473 0.0
H390 H 0.89327 0.18208 0.07275 0.0
H391 H 0.91458 0.16288 0.14772 0.0
H392 H 0.83091 0.16942 0.19535 0.0
H393 H 0.80898 0.18703 0.11938 0.0
H394 H 0.92314 0.17745 0.23675 0.0
H395 H 0.82088 0.11125 0.25962 0.0
H396 H 0.77695 0.09019 0.21228 0.0
H397 H 0.82263 0.08383 0.09463 0.0
H398 H 0.86688 0.10449 0.14144 0.0
H399 H 0.95693 0.09321 0.44731 0.0
H400 H 0.93436 0.12765 0.38884 0.0
H401 H 0.92532 0.05918 0.28504 0.0
H402 H 0.94681 0.02503 0.34265 0.0
H403 H 0.87654 0.08704 0.2797 0.0
H404 H 0.97877 0.11297 0.29219 0.0
H405 H 0.0262 0.12922 0.33504 0.0
H406 H 0.98715 0.20887 0.37263 0.0
H407 H 0.93935 0.19289 0.3305 0.0
C408 C 0.87929 0.17936 0.09905 0.0
C409 C 0.84918 0.18547 0.08944 0.0
C410 C 0.89167 0.16877 0.14226 0.0
C411 C 0.87432 0.16422 0.17707 0.0
C412 C 0.8447 0.17228 0.16881 0.0
C413 C 0.8322 0.18257 0.12536 0.0
C414 C 0.88656 0.14827 0.2197 0.0
C415 C 0.91281 0.15783 0.24643 0.0
C416 C 0.8734 0.12244 0.2322 0.0
C417 C 0.847 0.10976 0.20386 0.0
C418 C 0.82152 0.1053 0.22367 0.0
C419 C 0.79659 0.09343 0.19694 0.0
C420 C 0.79696 0.08579 0.15042 0.0
C421 C 0.82232 0.08987 0.1306 0.0
C422 C 0.84732 0.10167 0.1572 0.0
C423 C 0.95019 0.08566 0.41194 0.0
C424 C 0.95337 0.05632 0.39979 0.0
C425 C 0.93735 0.10533 0.37856 0.0
C426 C 0.92796 0.09599 0.33249 0.0
C427 C 0.93195 0.06689 0.32038 0.0
C428 C 0.94436 0.04735 0.3535 0.0
C429 C 0.91344 0.1158 0.29627 0.0
C430 C 0.88663 0.10699 0.27074 0.0
C431 C 0.92662 0.14172 0.28417 0.0
C432 C 0.95544 0.15161 0.30862 0.0
C433 C 0.98027 0.13388 0.3098 0.0
C434 C 0.00721 0.14304 0.33394 0.0
C435 C 0.00966 0.17002 0.35662 0.0
C436 C 0.9852 0.18795 0.35508 0.0
C437 C 0.95818 0.17887 0.33106 0.0
H438 H 0.03053 0.17706 0.37526 0.0
H439 H 0.77763 0.07663 0.12978 0.0
H440 H 0.34373 0.30942 0.61218 0.0
H441 H 0.37013 0.32324 0.68909 0.0
H442 H 0.37388 0.41176 0.64498 0.0
H443 H 0.34727 0.39838 0.56914 0.0
H444 H 0.42734 0.3923 0.68601 0.0
H445 H 0.3263 0.39169 0.71452 0.0
H446 H 0.27859 0.36878 0.7183 0.0
H447 H 0.32005 0.30696 0.8154 0.0
H448 H 0.3681 0.32933 0.81169 0.0
H449 H 0.42899 0.49896 0.85099 0.0
H450 H 0.41256 0.46158 0.7939 0.0
H451 H 0.44887 0.39576 0.88889 0.0
H452 H 0.46607 0.4337 0.94745 0.0
H453 H 0.3848 0.38872 0.83234 0.0
H454 H 0.48517 0.40193 0.81654 0.0
H455 H 0.52915 0.43171 0.81441 0.0
H456 H 0.48711 0.47353 0.69174 0.0
H457 H 0.44235 0.44506 0.69426 0.0
C458 C 0.34988 0.33188 0.61918 0.0
C459 C 0.3437 0.35273 0.5843 0.0
C460 C 0.36509 0.33969 0.66301 0.0
C461 C 0.37428 0.36847 0.67258 0.0
C462 C 0.36744 0.38934 0.63817 0.0
C463 C 0.35224 0.38162 0.59474 0.0
C464 C 0.39111 0.37752 0.71805 0.0
C465 C 0.41821 0.39122 0.71814 0.0
C466 C 0.37962 0.37536 0.76025 0.0
C467 C 0.35081 0.36188 0.76229 0.0
C468 C 0.32527 0.37303 0.7363 0.0
C469 C 0.29817 0.36019 0.73851 0.0
C470 C 0.2963 0.33635 0.76692 0.0
C471 C 0.32154 0.32537 0.79329 0.0
C472 C 0.34871 0.33811 0.79115 0.0
C473 C 0.43353 0.47661 0.86032 0.0
C474 C 0.44899 0.4694 0.90399 0.0
C475 C 0.42403 0.45524 0.82743 0.0
C476 C 0.42958 0.426 0.83713 0.0
C477 C 0.4444 0.41831 0.88092 0.0
C478 C 0.45428 0.43995 0.91414 0.0
C479 C 0.42038 0.4044 0.79968 0.0
C480 C 0.39463 0.38855 0.80079 0.0
C481 C 0.43296 0.40482 0.75834 0.0
C482 C 0.46028 0.42132 0.75568 0.0
C483 C 0.48518 0.4176 0.78926 0.0
C484 C 0.51027 0.43427 0.788 0.0
C485 C 0.51099 0.45434 0.75281 0.0
C486 C 0.48656 0.4579 0.71892 0.0
C487 C 0.46128 0.44155 0.7203 0.0
H488 H 0.53046 0.46715 0.75183 0.0
H489 H 0.2753 0.32645 0.76862 0.0
H490 H 0.60792 0.69288 0.50747 0.0
H491 H 0.58301 0.67742 0.43103 0.0
H492 H 0.66622 0.66932 0.38217 0.0
H493 H 0.69123 0.68526 0.45853 0.0
H494 H 0.62645 0.69069 0.31544 0.0
H495 H 0.63109 0.61047 0.41959 0.0
H496 H 0.62335 0.58493 0.49047 0.0
H497 H 0.53062 0.59662 0.45578 0.0
H498 H 0.53786 0.62265 0.385 0.0
H499 H 0.60211 0.57535 0.15018 0.0
H500 H 0.61645 0.61008 0.21361 0.0
H501 H 0.52597 0.62171 0.22947 0.0
H502 H 0.51139 0.58718 0.16498 0.0
H503 H 0.56309 0.60364 0.31067 0.0
H504 H 0.55979 0.67794 0.19874 0.0
H505 H 0.56955 0.70064 0.1266 0.0
H506 H 0.66188 0.697 0.1743 0.0
H507 H 0.65271 0.67386 0.24649 0.0
C508 C 0.62089 0.68793 0.48035 0.0
C509 C 0.65156 0.68995 0.48915 0.0
C510 C 0.60663 0.67912 0.43666 0.0
C511 C 0.62274 0.67169 0.40101 0.0
C512 C 0.6533 0.6749 0.40911 0.0
C513 C 0.66758 0.68399 0.45275 0.0
C514 C 0.60794 0.65905 0.35627 0.0
C515 C 0.61271 0.67158 0.3144 0.0
C516 C 0.58944 0.63446 0.35479 0.0
C517 C 0.58504 0.61884 0.39733 0.0
C518 C 0.60907 0.60782 0.42729 0.0
C519 C 0.60477 0.59322 0.46741 0.0
C520 C 0.57652 0.58925 0.47771 0.0
C521 C 0.55249 0.59979 0.44782 0.0
C522 C 0.55668 0.61447 0.40771 0.0
C523 C 0.5852 0.58597 0.16627 0.0
C524 C 0.55566 0.57859 0.15276 0.0
C525 C 0.59342 0.60584 0.20246 0.0
C526 C 0.57229 0.61845 0.22628 0.0
C527 C 0.54259 0.61226 0.21138 0.0
C528 C 0.53428 0.59272 0.17441 0.0
C529 C 0.58184 0.63508 0.26994 0.0
C530 C 0.57629 0.62314 0.31171 0.0
C531 C 0.59989 0.65991 0.27122 0.0
C532 C 0.60555 0.67398 0.22796 0.0
C533 C 0.58219 0.68177 0.19373 0.0
C534 C 0.58762 0.69476 0.15284 0.0
C535 C 0.61632 0.70022 0.14584 0.0
C536 C 0.63965 0.69276 0.17978 0.0
C537 C 0.63435 0.67974 0.22073 0.0
H538 H 0.62047 0.71027 0.11415 0.0
H539 H 0.57323 0.57792 0.50877 0.0
H540 H 0.88924 0.17957 0.94394 0.0
H541 H 0.90728 0.1574 0.8769 0.0
H542 H 0.81873 0.14043 0.81224 0.0
H543 H 0.80044 0.16275 0.87948 0.0
H544 H 0.8596 0.09236 0.80802 0.0
H545 H 0.8489 0.19258 0.77037 0.0
H546 H 0.85417 0.24522 0.785 0.0
H547 H 0.94762 0.2368 0.80607 0.0
H548 H 0.94292 0.18402 0.7923 0.0
H549 H 0.92687 0.0513 0.60676 0.0
H550 H 0.89228 0.07361 0.65328 0.0
H551 H 0.96414 0.11543 0.74103 0.0
H552 H -0.00174 0.09404 0.69504 0.0
H553 H 0.92074 0.15238 0.72021 0.0
H554 H 0.93157 0.0524 0.77217 0.0
H555 H 0.92785 -0.00055 0.75957 0.0
H556 H 0.83568 0.00712 0.71291 0.0
H557 H 0.83895 0.0602 0.72473 0.0
C558 C 0.87361 0.17094 0.91561 0.0
C559 C 0.84344 0.17295 0.91686 0.0
C560 C 0.88392 0.15839 0.87729 0.0
C561 C 0.86431 0.14743 0.83956 0.0
C562 C 0.83418 0.1488 0.84102 0.0
C563 C 0.8238 0.16171 0.87921 0.0
C564 C 0.8757 0.13529 0.79839 0.0
C565 C 0.87246 0.10554 0.78807 0.0
C566 C 0.89257 0.1525 0.77263 0.0
C567 C 0.89554 0.1843 0.78057 0.0
C568 C 0.87058 0.20192 0.77846 0.0
C569 C 0.87346 0.23179 0.78655 0.0
C570 C 0.90121 0.24434 0.79652 0.0
C571 C 0.92614 0.22705 0.79834 0.0
C572 C 0.92337 0.19715 0.79033 0.0
C573 C 0.93517 0.0654 0.63581 0.0
C574 C 0.96536 0.0708 0.64715 0.0
C575 C 0.91542 0.07804 0.66244 0.0
C576 C 0.92564 0.09614 0.70078 0.0
C577 C 0.95567 0.10172 0.71153 0.0
C578 C 0.97523 0.08926 0.68517 0.0
C579 C 0.90578 0.10916 0.73104 0.0
C580 C 0.90734 0.13922 0.73932 0.0
C581 C 0.8876 0.09216 0.75505 0.0
C582 C 0.88556 0.06026 0.74878 0.0
C583 C 0.91055 0.0428 0.75896 0.0
C584 C 0.90852 0.01277 0.75199 0.0
C585 C 0.88157 -6e-05 0.73528 0.0
C586 C 0.85656 0.0171 0.72574 0.0
C587 C 0.85848 0.04715 0.73259 0.0
H588 H 0.88005 0.97669 0.72982 0.0
H589 H 0.9034 0.26748 0.80278 0.0
H590 H 0.29717 0.3758 0.37458 0.0
H591 H 0.31801 0.39943 0.31203 0.0
H592 H 0.40477 0.37783 0.37887 0.0
H593 H 0.38419 0.35426 0.441 0.0
H594 H 0.40108 0.43392 0.35541 0.0
H595 H 0.3716 0.34134 0.28174 0.0
H596 H 0.33603 0.30297 0.25312 0.0
H597 H 0.28593 0.36375 0.16371 0.0
H598 H 0.32103 0.40258 0.19229 0.0
H599 H 0.49815 0.44342 0.19821 0.0
H600 H 0.46457 0.42445 0.24696 0.0
H601 H 0.39198 0.46335 0.15932 0.0
H602 H 0.42574 0.48263 0.10957 0.0
H603 H 0.38087 0.40566 0.18862 0.0
H604 H 0.41419 0.49677 0.25554 0.0
H605 H 0.45058 0.53454 0.2834 0.0
H606 H 0.49341 0.4766 0.38571 0.0
H607 H 0.45755 0.43831 0.35798 0.0
C608 C 0.32066 0.37582 0.37553 0.0
C609 C 0.33907 0.36339 0.4129 0.0
C610 C 0.33253 0.38935 0.33986 0.0
C611 C 0.36296 0.39044 0.34084 0.0
C612 C 0.38125 0.37749 0.37761 0.0
C613 C 0.36946 0.36408 0.41316 0.0
C614 C 0.37623 0.40569 0.30462 0.0
C615 C 0.39672 0.42764 0.31898 0.0
C616 C 0.36973 0.39828 0.25683 0.0
C617 C 0.34873 0.37492 0.23956 0.0
C618 C 0.35286 0.34657 0.25627 0.0
C619 C 0.33281 0.32473 0.24 0.0
C620 C 0.30868 0.33094 0.20674 0.0
C621 C 0.3046 0.35898 0.18955 0.0
C622 C 0.32457 0.38091 0.20575 0.0
C623 C 0.47505 0.44792 0.18891 0.0
C624 C 0.4647 0.46483 0.15015 0.0
C625 C 0.45588 0.43704 0.21693 0.0
C626 C 0.42588 0.44286 0.20714 0.0
C627 C 0.41512 0.45874 0.16751 0.0
C628 C 0.43442 0.46976 0.13923 0.0
C629 C 0.40643 0.43303 0.23987 0.0
C630 C 0.38478 0.41226 0.22492 0.0
C631 C 0.41178 0.44151 0.28726 0.0
C632 C 0.43324 0.46461 0.30448 0.0
C633 C 0.43148 0.49201 0.28379 0.0
C634 C 0.452 0.51353 0.29958 0.0
C635 C 0.47432 0.50796 0.33626 0.0
C636 C 0.47611 0.48089 0.3573 0.0
C637 C 0.45566 0.45928 0.3416 0.0
H638 H 0.49019 0.52464 0.34843 0.0
H639 H 0.29318 0.314 0.19418 0.0
H640 H 0.20323 0.85172 0.95487 0.0
H641 H 0.18025 0.86906 0.87906 0.0
H642 H 0.09536 0.86247 0.92217 0.0
H643 H 0.11822 0.84503 0.99812 0.0
H644 H 0.0969 0.8444 0.82675 0.0
H645 H 0.12438 0.92468 0.93204 0.0
H646 H 0.15835 0.9534 0.98837 0.0
H647 H 0.21497 0.96516 0.88604 0.0
H648 H 0.18152 0.93609 0.8293 0.0
H649 H 0.02207 0.94885 0.66725 0.0
H650 H 0.04092 0.91614 0.7305 0.0
H651 H 0.12915 0.93492 0.70843 0.0
H652 H 0.11047 0.96819 0.6469 0.0
H653 H 0.12429 0.94507 0.79412 0.0
H654 H 0.09492 0.86764 0.68591 0.0
H655 H 0.06137 0.83831 0.62998 0.0
H656 H 0.00914 0.81973 0.73591 0.0
H657 H 0.04169 0.84987 0.79207 0.0
C658 C 0.17963 0.85341 0.94787 0.0
C659 C 0.16253 0.84725 0.98252 0.0
C660 C 0.16655 0.86338 0.90463 0.0
C661 C 0.13613 0.86719 0.89516 0.0
C662 C 0.11885 0.85962 0.92878 0.0
C663 C 0.13195 0.84992 0.97222 0.0
C664 C 0.12278 0.88165 0.85202 0.0
C665 C 0.10258 0.8665 0.81955 0.0
C666 C 0.13057 0.91031 0.84264 0.0
C667 C 0.15061 0.92795 0.87661 0.0
C668 C 0.1442 0.93317 0.92169 0.0
C669 C 0.16334 0.94955 0.95366 0.0
C670 C 0.18884 0.96103 0.94083 0.0
C671 C 0.19523 0.95621 0.89595 0.0
C672 C 0.17618 0.9398 0.86387 0.0
C673 C 0.04542 0.94529 0.67518 0.0
C674 C 0.06487 0.96116 0.65257 0.0
C675 C 0.0562 0.92661 0.71132 0.0
C676 C 0.08653 0.92319 0.72455 0.0
C677 C 0.10571 0.93741 0.69931 0.0
C678 C 0.09502 0.95633 0.664 0.0
C679 C 0.09868 0.90771 0.76762 0.0
C680 C 0.11857 0.92286 0.80065 0.0
C681 C 0.09056 0.87907 0.77717 0.0
C682 C 0.07059 0.86138 0.74312 0.0
C683 C 0.07601 0.85771 0.69714 0.0
C684 C 0.05714 0.84094 0.66535 0.0
C685 C 0.03297 0.82737 0.67926 0.0
C686 C 0.02767 0.83051 0.72502 0.0
C687 C 0.0463 0.84748 0.75684 0.0
H688 H 0.01845 0.8143 0.65467 0.0
H689 H 0.20363 0.97372 0.96563 0.0
loop_
_geom_bond_atom_site_label_1
_geom_bond_atom_site_label_2
_geom_bond_distance
_geom_bond_site_symmetry_2
_ccdc_geom_bond_type
H0 C5 0.932 . S
H1 C8 0.930 . S
H2 C10 0.930 . S
H3 C4 1.016 . S
C4 H3 1.016 . S
C4 N11 1.286 . S
C5 H0 0.932 . S
C5 C6 1.397 . S
C5 C7 1.361 . S
C6 C5 1.397 . S
C6 C10 1.390 . S
C7 C5 1.361 . S
C7 C8 1.393 . S
C7 N11 1.413 . S
C8 H1 0.930 . S
C8 C7 1.393 . S
C8 C9 1.399 . S
C9 C8 1.399 . S
C9 C10 1.381 . S
C10 H2 0.930 . S
C10 C6 1.390 . S
C10 C9 1.381 . S
N11 C4 1.286 . S
N11 C7 1.413 . S
H12 C17 0.930 . S
H13 C20 0.930 . S
H14 C22 0.930 . S
H15 C16 1.016 . S
C16 H15 1.016 . S
C16 N23 1.286 . S
C17 H12 0.930 . S
C17 C18 1.397 . S
C17 C19 1.361 . S
C18 C17 1.397 . S
C18 C22 1.390 . S
C19 C17 1.361 . S
C19 C20 1.393 . S
C19 N23 1.413 . S
C20 H13 0.930 . S
C20 C19 1.393 . S
C20 C21 1.399 . S
C21 C20 1.399 . S
C21 C22 1.381 . S
C22 H14 0.930 . S
C22 C18 1.390 . S
C22 C21 1.381 . S
N23 C16 1.286 . S
N23 C19 1.413 . S
H24 C29 0.930 . S
H25 C32 0.930 . S
H26 C34 0.930 . S
H27 C28 1.016 . S
C28 H27 1.016 . S
C28 N35 1.286 1_554 S
C29 H24 0.930 . S
C29 C30 1.397 . S
C29 C31 1.361 . S
C30 C29 1.397 . S
C30 C34 1.390 1_556 S
C31 C29 1.361 . S
C31 C32 1.393 1_556 S
C31 N35 1.413 . S
C32 H25 0.930 . S
C32 C31 1.393 1_554 S
C32 C33 1.399 . S
C33 C32 1.399 . S
C33 C34 1.381 . S
C34 H26 0.930 . S
C34 C30 1.390 1_554 S
C34 C33 1.381 . S
N35 C28 1.286 1_556 S
N35 C31 1.413 . S
H36 C41 0.930 . S
H37 C44 0.930 . S
H38 C46 0.930 . S
H39 C40 1.016 . S
C40 H39 1.016 . S
C40 N47 1.286 . S
C41 H36 0.930 . S
C41 C42 1.397 . S
C41 C43 1.361 . S
C42 C41 1.397 . S
C42 C46 1.390 . S
C43 C41 1.361 . S
C43 C44 1.393 . S
C43 N47 1.413 . S
C44 H37 0.930 . S
C44 C43 1.393 . S
C44 C45 1.399 . S
C45 C44 1.399 . S
C45 C46 1.381 . S
C46 H38 0.930 . S
C46 C42 1.390 . S
C46 C45 1.381 . S
N47 C40 1.286 . S
N47 C43 1.413 . S
O48 Mg49 1.990 . S
O48 C62 1.253 1_455 S
Mg49 O48 1.990 . S
Mg49 O52 2.180 . S
Mg49 O53 2.117 . S
Mg49 O67 2.030 . S
O50 Mg51 2.072 1_655 S
O50 C62 1.260 . S
Mg51 O50 2.072 1_455 S
Mg51 O52 2.099 . S
Mg51 O54 2.079 1_545 S
Mg51 O55 2.072 1_455 S
Mg51 O57 2.099 1_445 S
Mg51 O68 2.079 1_545 S
O52 Mg49 2.180 . S
O52 Mg51 2.099 . S
O52 C63 1.279 . S
O53 Mg49 2.117 . S
O53 C63 1.250 . S
O54 Mg51 2.079 1_565 S
O54 C64 1.264 . S
O55 Mg51 2.072 1_655 S
O55 C65 1.260 . S
Mg56 O57 2.180 . S
Mg56 O58 2.030 1_655 S
Mg56 O59 1.990 1_565 S
Mg56 O60 2.117 . S
O57 Mg51 2.099 1_665 S
O57 Mg56 2.180 . S
O57 C66 1.279 . S
O58 Mg56 2.030 1_455 S
O58 C64 1.248 . S
O59 Mg56 1.990 1_545 S
O59 C65 1.253 . S
O60 Mg56 2.117 . S
O60 C66 1.250 . S
C61 O67 1.248 1_565 S
C61 O68 1.264 . S
C62 O48 1.253 1_655 S
C62 O50 1.260 . S
C63 O52 1.279 . S
C63 O53 1.250 . S
C64 O54 1.264 . S
C64 O58 1.248 . S
C65 O55 1.260 . S
C65 O59 1.253 . S
C66 O57 1.279 . S
C66 O60 1.250 . S
O67 Mg49 2.030 . S
O67 C61 1.248 1_545 S
O68 Mg51 2.079 1_565 S
O68 C61 1.264 . S
O69 Mg70 1.990 . S
O69 C83 1.253 . S
Mg70 O69 1.990 . S
Mg70 O73 2.180 . S
Mg70 O74 2.117 . S
Mg70 O88 2.030 . S
O71 Mg72 2.072 . S
O71 C83 1.260 . S
Mg72 O71 2.072 . S
Mg72 O73 2.099 . S
Mg72 O75 2.079 1_554 S
Mg72 O76 2.072 . S
Mg72 O78 2.099 . S
Mg72 O89 2.079 . S
O73 Mg70 2.180 . S
O73 Mg72 2.099 . S
O73 C84 1.279 . S
O74 Mg70 2.117 . S
O74 C84 1.250 . S
O75 Mg72 2.079 1_556 S
O75 C85 1.264 . S
O76 Mg72 2.072 . S
O76 C86 1.260 1_554 S
Mg77 O78 2.180 1_556 S
Mg77 O79 2.030 . S
Mg77 O80 1.990 . S
Mg77 O81 2.117 1_556 S
O78 Mg72 2.099 . S
O78 Mg77 2.180 1_554 S
O78 C87 1.279 . S
O79 Mg77 2.030 . S
O79 C85 1.248 . S
O80 Mg77 1.990 . S
O80 C86 1.253 . S
O81 Mg77 2.117 1_554 S
O81 C87 1.250 . S
C82 O88 1.248 . S
C82 O89 1.264 . S
C83 O69 1.253 . S
C83 O71 1.260 . S
C84 O73 1.279 . S
C84 O74 1.250 . S
C85 O75 1.264 . S
C85 O79 1.248 . S
C86 O76 1.260 1_556 S
C86 O80 1.253 . S
C87 O78 1.279 . S
C87 O81 1.250 . S
O88 Mg70 2.030 . S
O88 C82 1.248 . S
O89 Mg72 2.079 . S
O89 C82 1.264 . S
H90 C108 0.951 . S
H91 C110 0.951 . S
H92 C112 0.950 . S
H93 C113 0.950 . S
H94 C115 0.950 . S
H95 C118 0.950 . S
H96 C119 0.950 . S
H97 C121 0.950 . S
H98 C122 0.950 . S
H99 C123 0.951 . S
H100 C125 0.951 . S
H101 C127 0.950 . S
H102 C128 0.950 . S
H103 C130 0.950 . S
H104 C133 0.950 . S
H105 C134 0.950 . S
H106 C136 0.950 . S
H107 C137 0.950 . S
C108 H90 0.951 . S
C108 C109 1.366 . S
C108 C110 1.388 . S
C109 C108 1.366 . S
C109 C113 1.385 . S
C110 H91 0.951 . S
C110 C108 1.388 . S
C110 C111 1.366 . S
C111 C110 1.366 . S
C111 C112 1.414 . S
C111 C114 1.499 . S
C112 H92 0.950 . S
C112 C111 1.414 . S
C112 C113 1.374 . S
C113 H93 0.950 . S
C113 C109 1.385 . S
C113 C112 1.374 . S
C114 C111 1.499 . S
C114 C115 1.373 . S
C114 C116 1.389 . S
C115 H94 0.950 . S
C115 C114 1.373 . S
C115 C131 1.377 . S
C116 C114 1.389 . S
C116 C117 1.524 . S
C116 C130 1.377 . S
C117 C116 1.524 . S
C117 C118 1.397 . S
C117 C122 1.363 . S
C118 H95 0.950 . S
C118 C117 1.397 . S
C118 C119 1.334 . S
C119 H96 0.950 . S
C119 C118 1.334 . S
C119 C120 1.287 . S
C120 C119 1.287 . S
C120 C121 1.524 . S
C120 H139 0.913 . S
C121 H97 0.950 . S
C121 C120 1.524 . S
C121 C122 1.415 . S
C122 H98 0.950 . S
C122 C117 1.363 . S
C122 C121 1.415 . S
C123 H99 0.951 . S
C123 C124 1.366 . S
C123 C125 1.388 . S
C124 C123 1.366 . S
C124 C128 1.385 . S
C125 H100 0.951 . S
C125 C123 1.388 . S
C125 C126 1.366 . S
C126 C125 1.366 . S
C126 C127 1.414 . S
C126 C129 1.499 . S
C127 H101 0.950 . S
C127 C126 1.414 . S
C127 C128 1.374 . S
C128 H102 0.950 . S
C128 C124 1.385 . S
C128 C127 1.374 . S
C129 C126 1.499 . S
C129 C130 1.373 . S
C129 C131 1.389 . S
C130 H103 0.950 . S
C130 C116 1.377 . S
C130 C129 1.373 . S
C131 C115 1.377 . S
C131 C129 1.389 . S
C131 C132 1.524 . S
C132 C131 1.524 . S
C132 C133 1.397 . S
C132 C137 1.363 . S
C133 H104 0.950 . S
C133 C132 1.397 . S
C133 C134 1.334 . S
C134 H105 0.950 . S
C134 C133 1.334 . S
C134 C135 1.287 . S
C135 C134 1.287 . S
C135 C136 1.524 . S
C135 H138 0.999 . S
C136 H106 0.950 . S
C136 C135 1.524 . S
C136 C137 1.415 . S
C137 H107 0.950 . S
C137 C132 1.363 . S
C137 C136 1.415 . S
H138 C135 0.999 . S
H139 C120 0.913 . S
H140 C158 0.951 . S
H141 C160 0.951 . S
H142 C162 0.950 . S
H143 C163 0.950 . S
H144 C165 0.950 . S
H145 C168 0.950 . S
H146 C169 0.950 . S
H147 C171 0.950 . S
H148 C172 0.950 . S
H149 C173 0.951 . S
H150 C175 0.951 . S
H151 C177 0.950 . S
H152 C178 0.950 . S
H153 C180 0.950 . S
H154 C183 0.950 1_556 S
H155 C184 0.950 . S
H156 C186 0.950 . S
H157 C187 0.950 . S
C158 H140 0.951 . S
C158 C159 1.366 . S
C158 C160 1.388 . S
C159 C158 1.366 . S
C159 C163 1.385 . S
C160 H141 0.951 . S
C160 C158 1.388 . S
C160 C161 1.366 . S
C161 C160 1.366 . S
C161 C162 1.414 . S
C161 C164 1.499 . S
C162 H142 0.950 . S
C162 C161 1.414 . S
C162 C163 1.374 . S
C163 H143 0.950 . S
C163 C159 1.385 . S
C163 C162 1.374 . S
C164 C161 1.499 . S
C164 C165 1.373 . S
C164 C166 1.389 . S
C165 H144 0.950 . S
C165 C164 1.373 . S
C165 C181 1.377 . S
C166 C164 1.389 . S
C166 C167 1.524 . S
C166 C180 1.377 . S
C167 C166 1.524 . S
C167 C168 1.397 . S
C167 C172 1.363 . S
C168 H145 0.950 . S
C168 C167 1.397 . S
C168 C169 1.334 . S
C169 H146 0.950 . S
C169 C168 1.334 . S
C169 C170 1.287 . S
C170 C169 1.287 . S
C170 C171 1.524 . S
C170 H189 0.913 . S
C171 H147 0.950 . S
C171 C170 1.524 . S
C171 C172 1.415 . S
C172 H148 0.950 . S
C172 C167 1.363 . S
C172 C171 1.415 . S
C173 H149 0.951 . S
C173 C174 1.366 . S
C173 C175 1.388 . S
C174 C173 1.366 . S
C174 C178 1.385 . S
C175 H150 0.951 . S
C175 C173 1.388 . S
C175 C176 1.366 . S
C176 C175 1.366 . S
C176 C177 1.414 . S
C176 C179 1.499 . S
C177 H151 0.950 . S
C177 C176 1.414 . S
C177 C178 1.374 . S
C178 H152 0.950 . S
C178 C174 1.385 . S
C178 C177 1.374 . S
C179 C176 1.499 . S
C179 C180 1.373 . S
C179 C181 1.389 . S
C180 H153 0.950 . S
C180 C166 1.377 . S
C180 C179 1.373 . S
C181 C165 1.377 . S
C181 C179 1.389 . S
C181 C182 1.524 . S
C182 C181 1.524 . S
C182 C183 1.397 . S
C182 C187 1.363 . S
C183 H154 0.950 1_554 S
C183 C182 1.397 . S
C183 C184 1.334 1_554 S
C184 H155 0.950 . S
C184 C183 1.334 1_556 S
C184 C185 1.287 1_556 S
C185 C184 1.287 1_554 S
C185 C186 1.524 . S
C185 H188 0.999 1_554 S
C186 H156 0.950 . S
C186 C185 1.524 . S
C186 C187 1.415 . S
C187 H157 0.950 . S
C187 C182 1.363 . S
C187 C186 1.415 . S
H188 C185 0.999 1_556 S
H189 C170 0.913 . S
H190 C208 0.951 . S
H191 C210 0.951 . S
H192 C212 0.950 . S
H193 C213 0.950 . S
H194 C215 0.950 . S
H195 C218 0.950 . S
H196 C219 0.950 . S
H197 C221 0.950 . S
H198 C222 0.950 . S
H199 C223 0.951 . S
H200 C225 0.951 . S
H201 C227 0.950 . S
H202 C228 0.950 . S
H203 C230 0.950 . S
H204 C233 0.950 . S
H205 C234 0.950 . S
H206 C236 0.950 . S
H207 C237 0.950 . S
C208 H190 0.951 . S
C208 C209 1.366 . S
C208 C210 1.388 . S
C209 C208 1.366 . S
C209 C213 1.385 . S
C210 H191 0.951 . S
C210 C208 1.388 . S
C210 C211 1.366 . S
C211 C210 1.366 . S
C211 C212 1.414 . S
C211 C214 1.499 . S
C212 H192 0.950 . S
C212 C211 1.414 . S
C212 C213 1.374 . S
C213 H193 0.950 . S
C213 C209 1.385 . S
C213 C212 1.374 . S
C214 C211 1.499 . S
C214 C215 1.373 . S
C214 C216 1.389 . S
C215 H194 0.950 . S
C215 C214 1.373 . S
C215 C231 1.377 . S
C216 C214 1.389 . S
C216 C217 1.524 . S
C216 C230 1.377 . S
C217 C216 1.524 . S
C217 C218 1.397 . S
C217 C222 1.363 . S
C218 H195 0.950 . S
C218 C217 1.397 . S
C218 C219 1.334 . S
C219 H196 0.950 . S
C219 C218 1.334 . S
C219 C220 1.287 . S
C220 C219 1.287 . S
C220 C221 1.524 . S
C220 H239 0.913 . S
C221 H197 0.950 . S
C221 C220 1.524 . S
C221 C222 1.415 . S
C222 H198 0.950 . S
C222 C217 1.363 . S
C222 C221 1.415 . S
C223 H199 0.951 . S
C223 C224 1.366 . S
C223 C225 1.388 . S
C224 C223 1.366 . S
C224 C228 1.385 . S
C225 H200 0.951 . S
C225 C223 1.388 . S
C225 C226 1.366 . S
C226 C225 1.366 . S
C226 C227 1.414 . S
C226 C229 1.499 . S
C227 H201 0.950 . S
C227 C226 1.414 . S
C227 C228 1.374 . S
C228 H202 0.950 . S
C228 C224 1.385 . S
C228 C227 1.374 . S
C229 C226 1.499 . S
C229 C230 1.373 . S
C229 C231 1.389 . S
C230 H203 0.950 . S
C230 C216 1.377 . S
C230 C229 1.373 . S
C231 C215 1.377 . S
C231 C229 1.389 . S
C231 C232 1.524 . S
C232 C231 1.524 . S
C232 C233 1.397 . S
C232 C237 1.363 . S
C233 H204 0.950 . S
C233 C232 1.397 . S
C233 C234 1.334 . S
C234 H205 0.950 . S
C234 C233 1.334 . S
C234 C235 1.287 . S
C235 C234 1.287 . S
C235 C236 1.524 . S
C235 H238 0.999 . S
C236 H206 0.950 . S
C236 C235 1.524 . S
C236 C237 1.415 . S
C237 H207 0.950 . S
C237 C232 1.363 . S
C237 C236 1.415 . S
H238 C235 0.999 . S
H239 C220 0.913 . S
H240 C258 0.951 . S
H241 C260 0.951 . S
H242 C262 0.950 . S
H243 C263 0.950 . S
H244 C265 0.950 . S
H245 C268 0.950 . S
H246 C269 0.950 . S
H247 C271 0.950 . S
H248 C272 0.950 . S
H249 C273 0.951 . S
H250 C275 0.951 . S
H251 C277 0.950 . S
H252 C278 0.950 . S
H253 C280 0.950 . S
H254 C283 0.950 . S
H255 C284 0.950 . S
H256 C286 0.950 . S
H257 C287 0.950 . S
C258 H240 0.951 . S
C258 C259 1.366 . S
C258 C260 1.388 . S
C259 C258 1.366 . S
C259 C263 1.385 . S
C260 H241 0.951 . S
C260 C258 1.388 . S
C260 C261 1.366 . S
C261 C260 1.366 . S
C261 C262 1.414 . S
C261 C264 1.499 . S
C262 H242 0.950 . S
C262 C261 1.414 . S
C262 C263 1.374 . S
C263 H243 0.950 . S
C263 C259 1.385 . S
C263 C262 1.374 . S
C264 C261 1.499 . S
C264 C265 1.373 1_554 S
C264 C266 1.389 . S
C265 H244 0.950 . S
C265 C264 1.373 1_556 S
C265 C281 1.377 . S
C266 C264 1.389 . S
C266 C267 1.524 . S
C266 C280 1.377 . S
C267 C266 1.524 . S
C267 C268 1.397 . S
C267 C272 1.363 . S
C268 H245 0.950 . S
C268 C267 1.397 . S
C268 C269 1.334 . S
C269 H246 0.950 . S
C269 C268 1.334 . S
C269 C270 1.287 . S
C270 C269 1.287 . S
C270 C271 1.524 . S
C270 H289 0.913 . S
C271 H247 0.950 . S
C271 C270 1.524 . S
C271 C272 1.415 . S
C272 H248 0.950 . S
C272 C267 1.363 . S
C272 C271 1.415 . S
C273 H249 0.951 . S
C273 C274 1.366 . S
C273 C275 1.388 . S
C274 C273 1.366 . S
C274 C278 1.385 . S
C275 H250 0.951 . S
C275 C273 1.388 . S
C275 C276 1.366 . S
C276 C275 1.366 . S
C276 C277 1.414 . S
C276 C279 1.499 . S
C277 H251 0.950 . S
C277 C276 1.414 . S
C277 C278 1.374 . S
C278 H252 0.950 . S
C278 C274 1.385 . S
C278 C277 1.374 . S
C279 C276 1.499 . S
C279 C280 1.373 . S
C279 C281 1.389 1_554 S
C280 H253 0.950 . S
C280 C266 1.377 . S
C280 C279 1.373 . S
C281 C265 1.377 . S
C281 C279 1.389 1_556 S
C281 C282 1.524 . S
C282 C281 1.524 . S
C282 C283 1.397 . S
C282 C287 1.363 . S
C283 H254 0.950 . S
C283 C282 1.397 . S
C283 C284 1.334 . S
C284 H255 0.950 . S
C284 C283 1.334 . S
C284 C285 1.287 . S
C285 C284 1.287 . S
C285 C286 1.524 . S
C285 H288 0.999 . S
C286 H256 0.950 . S
C286 C285 1.524 . S
C286 C287 1.415 . S
C287 H257 0.950 . S
C287 C282 1.363 . S
C287 C286 1.415 . S
H288 C285 0.999 . S
H289 C270 0.913 . S
H290 C308 0.951 . S
H291 C310 0.951 . S
H292 C312 0.950 . S
H293 C313 0.950 . S
H294 C315 0.950 . S
H295 C318 0.950 . S
H296 C319 0.950 . S
H297 C321 0.950 . S
H298 C322 0.950 . S
H299 C323 0.951 . S
H300 C325 0.951 . S
H301 C327 0.950 . S
H302 C328 0.950 . S
H303 C330 0.950 . S
H304 C333 0.950 . S
H305 C334 0.950 1_545 S
H306 C336 0.950 . S
H307 C337 0.950 . S
C308 H290 0.951 . S
C308 C309 1.366 . S
C308 C310 1.388 . S
C309 C308 1.366 . S
C309 C313 1.385 . S
C310 H291 0.951 . S
C310 C308 1.388 . S
C310 C311 1.366 . S
C311 C310 1.366 . S
C311 C312 1.414 . S
C311 C314 1.499 . S
C312 H292 0.950 . S
C312 C311 1.414 . S
C312 C313 1.374 . S
C313 H293 0.950 . S
C313 C309 1.385 . S
C313 C312 1.374 . S
C314 C311 1.499 . S
C314 C315 1.373 . S
C314 C316 1.389 . S
C315 H294 0.950 . S
C315 C314 1.373 . S
C315 C331 1.377 . S
C316 C314 1.389 . S
C316 C317 1.524 . S
C316 C330 1.377 . S
C317 C316 1.524 . S
C317 C318 1.397 . S
C317 C322 1.363 . S
C318 H295 0.950 . S
C318 C317 1.397 . S
C318 C319 1.334 . S
C319 H296 0.950 . S
C319 C318 1.334 . S
C319 C320 1.287 . S
C320 C319 1.287 . S
C320 C321 1.524 . S
C320 H339 0.913 . S
C321 H297 0.950 . S
C321 C320 1.524 . S
C321 C322 1.415 . S
C322 H298 0.950 . S
C322 C317 1.363 . S
C322 C321 1.415 . S
C323 H299 0.951 . S
C323 C324 1.366 . S
C323 C325 1.388 . S
C324 C323 1.366 . S
C324 C328 1.385 . S
C325 H300 0.951 . S
C325 C323 1.388 . S
C325 C326 1.366 . S
C326 C325 1.366 . S
C326 C327 1.414 . S
C326 C329 1.499 . S
C327 H301 0.950 . S
C327 C326 1.414 . S
C327 C328 1.374 . S
C328 H302 0.950 . S
C328 C324 1.385 . S
C328 C327 1.374 . S
C329 C326 1.499 . S
C329 C330 1.373 . S
C329 C331 1.389 . S
C330 H303 0.950 . S
C330 C316 1.377 . S
C330 C329 1.373 . S
C331 C315 1.377 . S
C331 C329 1.389 . S
C331 C332 1.524 . S
C332 C331 1.524 . S
C332 C333 1.397 . S
C332 C337 1.363 . S
C333 H304 0.950 . S
C333 C332 1.397 . S
C333 C334 1.334 . S
C334 H305 0.950 1_565 S
C334 C333 1.334 . S
C334 C335 1.287 . S
C335 C334 1.287 . S
C335 C336 1.524 . S
C335 H338 0.985 1_565 S
C336 H306 0.950 . S
C336 C335 1.524 . S
C336 C337 1.415 . S
C337 H307 0.950 . S
C337 C332 1.363 . S
C337 C336 1.415 . S
H338 C335 0.985 1_545 S
H339 C320 0.913 . S
H340 C358 0.951 . S
H341 C360 0.951 . S
H342 C362 0.950 . S
H343 C363 0.950 . S
H344 C365 0.950 . S
H345 C368 0.950 . S
H346 C369 0.950 . S
H347 C371 0.950 . S
H348 C372 0.950 . S
H349 C373 0.951 . S
H350 C375 0.951 . S
H351 C377 0.950 . S
H352 C378 0.950 . S
H353 C380 0.950 . S
H354 C383 0.950 . S
H355 C384 0.950 . S
H356 C386 0.950 . S
H357 C387 0.950 . S
C358 H340 0.951 . S
C358 C359 1.366 . S
C358 C360 1.388 . S
C359 C358 1.366 . S
C359 C363 1.385 . S
C360 H341 0.951 . S
C360 C358 1.388 . S
C360 C361 1.366 . S
C361 C360 1.366 . S
C361 C362 1.414 . S
C361 C364 1.499 . S
C362 H342 0.950 . S
C362 C361 1.414 . S
C362 C363 1.374 . S
C363 H343 0.950 . S
C363 C359 1.385 . S
C363 C362 1.374 . S
C364 C361 1.499 . S
C364 C365 1.373 . S
C364 C366 1.389 . S
C365 H344 0.950 . S
C365 C364 1.373 . S
C365 C381 1.377 . S
C366 C364 1.389 . S
C366 C367 1.524 . S
C366 C380 1.377 . S
C367 C366 1.524 . S
C367 C368 1.397 . S
C367 C372 1.363 . S
C368 H345 0.950 . S
C368 C367 1.397 . S
C368 C369 1.334 . S
C369 H346 0.950 . S
C369 C368 1.334 . S
C369 C370 1.287 . S
C370 C369 1.287 . S
C370 C371 1.524 . S
C370 H389 0.913 . S
C371 H347 0.950 . S
C371 C370 1.524 . S
C371 C372 1.415 . S
C372 H348 0.950 . S
C372 C367 1.363 . S
C372 C371 1.415 . S
C373 H349 0.951 . S
C373 C374 1.366 . S
C373 C375 1.388 . S
C374 C373 1.366 . S
C374 C378 1.385 . S
C375 H350 0.951 . S
C375 C373 1.388 . S
C375 C376 1.366 . S
C376 C375 1.366 . S
C376 C377 1.414 . S
C376 C379 1.499 . S
C377 H351 0.950 . S
C377 C376 1.414 . S
C377 C378 1.374 . S
C378 H352 0.950 . S
C378 C374 1.385 . S
C378 C377 1.374 . S
C379 C376 1.499 . S
C379 C380 1.373 . S
C379 C381 1.389 . S
C380 H353 0.950 . S
C380 C366 1.377 . S
C380 C379 1.373 . S
C381 C365 1.377 . S
C381 C379 1.389 . S
C381 C382 1.524 . S
C382 C381 1.524 . S
C382 C383 1.397 . S
C382 C387 1.363 . S
C383 H354 0.950 . S
C383 C382 1.397 . S
C383 C384 1.334 . S
C384 H355 0.950 . S
C384 C383 1.334 . S
C384 C385 1.287 . S
C385 C384 1.287 . S
C385 C386 1.524 . S
C385 H388 0.999 . S
C386 H356 0.950 . S
C386 C385 1.524 . S
C386 C387 1.415 . S
C387 H357 0.950 . S
C387 C382 1.363 . S
C387 C386 1.415 . S
H388 C385 0.999 . S
H389 C370 0.913 . S
H390 C408 0.951 . S
H391 C410 0.951 . S
H392 C412 0.950 . S
H393 C413 0.950 . S
H394 C415 0.950 . S
H395 C418 0.950 . S
H396 C419 0.950 . S
H397 C421 0.950 . S
H398 C422 0.950 . S
H399 C423 0.951 . S
H400 C425 0.951 . S
H401 C427 0.950 . S
H402 C428 0.950 . S
H403 C430 0.950 . S
H404 C433 0.950 . S
H405 C434 0.950 1_455 S
H406 C436 0.950 . S
H407 C437 0.950 . S
C408 H390 0.951 . S
C408 C409 1.366 . S
C408 C410 1.388 . S
C409 C408 1.366 . S
C409 C413 1.385 . S
C410 H391 0.951 . S
C410 C408 1.388 . S
C410 C411 1.366 . S
C411 C410 1.366 . S
C411 C412 1.414 . S
C411 C414 1.499 . S
C412 H392 0.950 . S
C412 C411 1.414 . S
C412 C413 1.374 . S
C413 H393 0.950 . S
C413 C409 1.385 . S
C413 C412 1.374 . S
C414 C411 1.499 . S
C414 C415 1.373 . S
C414 C416 1.389 . S
C415 H394 0.950 . S
C415 C414 1.373 . S
C415 C431 1.377 . S
C416 C414 1.389 . S
C416 C417 1.524 . S
C416 C430 1.377 . S
C417 C416 1.524 . S
C417 C418 1.397 . S
C417 C422 1.363 . S
C418 H395 0.950 . S
C418 C417 1.397 . S
C418 C419 1.334 . S
C419 H396 0.950 . S
C419 C418 1.334 . S
C419 C420 1.287 . S
C420 C419 1.287 . S
C420 C421 1.524 . S
C420 H439 0.913 . S
C421 H397 0.950 . S
C421 C420 1.524 . S
C421 C422 1.415 . S
C422 H398 0.950 . S
C422 C417 1.363 . S
C422 C421 1.415 . S
C423 H399 0.951 . S
C423 C424 1.366 . S
C423 C425 1.388 . S
C424 C423 1.366 . S
C424 C428 1.385 . S
C425 H400 0.951 . S
C425 C423 1.388 . S
C425 C426 1.366 . S
C426 C425 1.366 . S
C426 C427 1.414 . S
C426 C429 1.499 . S
C427 H401 0.950 . S
C427 C426 1.414 . S
C427 C428 1.374 . S
C428 H402 0.950 . S
C428 C424 1.385 . S
C428 C427 1.374 . S
C429 C426 1.499 . S
C429 C430 1.373 . S
C429 C431 1.389 . S
C430 H403 0.950 . S
C430 C416 1.377 . S
C430 C429 1.373 . S
C431 C415 1.377 . S
C431 C429 1.389 . S
C431 C432 1.524 . S
C432 C431 1.524 . S
C432 C433 1.397 . S
C432 C437 1.363 . S
C433 H404 0.950 . S
C433 C432 1.397 . S
C433 C434 1.334 . S
C434 H405 0.950 1_655 S
C434 C433 1.334 . S
C434 C435 1.287 . S
C435 C434 1.287 . S
C435 C436 1.524 . S
C435 H438 0.999 . S
C436 H406 0.950 . S
C436 C435 1.524 . S
C436 C437 1.415 . S
C437 H407 0.950 . S
C437 C432 1.363 . S
C437 C436 1.415 . S
H438 C435 0.999 . S
H439 C420 0.913 . S
H440 C458 0.951 . S
H441 C460 0.951 . S
H442 C462 0.950 . S
H443 C463 0.950 . S
H444 C465 0.950 . S
H445 C468 0.950 . S
H446 C469 0.950 . S
H447 C471 0.950 . S
H448 C472 0.950 . S
H449 C473 0.951 . S
H450 C475 0.951 . S
H451 C477 0.950 . S
H452 C478 0.950 . S
H453 C480 0.950 . S
H454 C483 0.950 . S
H455 C484 0.950 . S
H456 C486 0.950 . S
H457 C487 0.950 . S
C458 H440 0.951 . S
C458 C459 1.366 . S
C458 C460 1.388 . S
C459 C458 1.366 . S
C459 C463 1.385 . S
C460 H441 0.951 . S
C460 C458 1.388 . S
C460 C461 1.366 . S
C461 C460 1.366 . S
C461 C462 1.414 . S
C461 C464 1.499 . S
C462 H442 0.950 . S
C462 C461 1.414 . S
C462 C463 1.374 . S
C463 H443 0.950 . S
C463 C459 1.385 . S
C463 C462 1.374 . S
C464 C461 1.499 . S
C464 C465 1.373 . S
C464 C466 1.389 . S
C465 H444 0.950 . S
C465 C464 1.373 . S
C465 C481 1.377 . S
C466 C464 1.389 . S
C466 C467 1.524 . S
C466 C480 1.377 . S
C467 C466 1.524 . S
C467 C468 1.397 . S
C467 C472 1.363 . S
C468 H445 0.950 . S
C468 C467 1.397 . S
C468 C469 1.334 . S
C469 H446 0.950 . S
C469 C468 1.334 . S
C469 C470 1.287 . S
C470 C469 1.287 . S
C470 C471 1.524 . S
C470 H489 0.913 . S
C471 H447 0.950 . S
C471 C470 1.524 . S
C471 C472 1.415 . S
C472 H448 0.950 . S
C472 C467 1.363 . S
C472 C471 1.415 . S
C473 H449 0.951 . S
C473 C474 1.366 . S
C473 C475 1.388 . S
C474 C473 1.366 . S
C474 C478 1.385 . S
C475 H450 0.951 . S
C475 C473 1.388 . S
C475 C476 1.366 . S
C476 C475 1.366 . S
C476 C477 1.414 . S
C476 C479 1.499 . S
C477 H451 0.950 . S
C477 C476 1.414 . S
C477 C478 1.374 . S
C478 H452 0.950 . S
C478 C474 1.385 . S
C478 C477 1.374 . S
C479 C476 1.499 . S
C479 C480 1.373 . S
C479 C481 1.389 . S
C480 H453 0.950 . S
C480 C466 1.377 . S
C480 C479 1.373 . S
C481 C465 1.377 . S
C481 C479 1.389 . S
C481 C482 1.524 . S
C482 C481 1.524 . S
C482 C483 1.397 . S
C482 C487 1.363 . S
C483 H454 0.950 . S
C483 C482 1.397 . S
C483 C484 1.334 . S
C484 H455 0.950 . S
C484 C483 1.334 . S
C484 C485 1.287 . S
C485 C484 1.287 . S
C485 C486 1.524 . S
C485 H488 0.999 . S
C486 H456 0.950 . S
C486 C485 1.524 . S
C486 C487 1.415 . S
C487 H457 0.950 . S
C487 C482 1.363 . S
C487 C486 1.415 . S
H488 C485 0.999 . S
H489 C470 0.913 . S
H490 C508 0.951 . S
H491 C510 0.951 . S
H492 C512 0.950 . S
H493 C513 0.950 . S
H494 C515 0.950 . S
H495 C518 0.950 . S
H496 C519 0.950 . S
H497 C521 0.950 . S
H498 C522 0.950 . S
H499 C523 0.951 . S
H500 C525 0.951 . S
H501 C527 0.950 . S
H502 C528 0.950 . S
H503 C530 0.950 . S
H504 C533 0.950 . S
H505 C534 0.950 . S
H506 C536 0.950 . S
H507 C537 0.950 . S
C508 H490 0.951 . S
C508 C509 1.366 . S
C508 C510 1.388 . S
C509 C508 1.366 . S
C509 C513 1.385 . S
C510 H491 0.951 . S
C510 C508 1.388 . S
C510 C511 1.366 . S
C511 C510 1.366 . S
C511 C512 1.414 . S
C511 C514 1.499 . S
C512 H492 0.950 . S
C512 C511 1.414 . S
C512 C513 1.374 . S
C513 H493 0.950 . S
C513 C509 1.385 . S
C513 C512 1.374 . S
C514 C511 1.499 . S
C514 C515 1.373 . S
C514 C516 1.389 . S
C515 H494 0.950 . S
C515 C514 1.373 . S
C515 C531 1.377 . S
C516 C514 1.389 . S
C516 C517 1.524 . S
C516 C530 1.377 . S
C517 C516 1.524 . S
C517 C518 1.397 . S
C517 C522 1.363 . S
C518 H495 0.950 . S
C518 C517 1.397 . S
C518 C519 1.334 . S
C519 H496 0.950 . S
C519 C518 1.334 . S
C519 C520 1.287 . S
C520 C519 1.287 . S
C520 C521 1.524 . S
C520 H539 0.913 . S
C521 H497 0.950 . S
C521 C520 1.524 . S
C521 C522 1.415 . S
C522 H498 0.950 . S
C522 C517 1.363 . S
C522 C521 1.415 . S
C523 H499 0.951 . S
C523 C524 1.366 . S
C523 C525 1.388 . S
C524 C523 1.366 . S
C524 C528 1.385 . S
C525 H500 0.951 . S
C525 C523 1.388 . S
C525 C526 1.366 . S
C526 C525 1.366 . S
C526 C527 1.414 . S
C526 C529 1.499 . S
C527 H501 0.950 . S
C527 C526 1.414 . S
C527 C528 1.374 . S
C528 H502 0.950 . S
C528 C524 1.385 . S
C528 C527 1.374 . S
C529 C526 1.499 . S
C529 C530 1.373 . S
C529 C531 1.389 . S
C530 H503 0.950 . S
C530 C516 1.377 . S
C530 C529 1.373 . S
C531 C515 1.377 . S
C531 C529 1.389 . S
C531 C532 1.524 . S
C532 C531 1.524 . S
C532 C533 1.397 . S
C532 C537 1.363 . S
C533 H504 0.950 . S
C533 C532 1.397 . S
C533 C534 1.334 . S
C534 H505 0.950 . S
C534 C533 1.334 . S
C534 C535 1.287 . S
C535 C534 1.287 . S
C535 C536 1.524 . S
C535 H538 0.999 . S
C536 H506 0.950 . S
C536 C535 1.524 . S
C536 C537 1.415 . S
C537 H507 0.950 . S
C537 C532 1.363 . S
C537 C536 1.415 . S
H538 C535 0.999 . S
H539 C520 0.913 . S
H540 C558 0.951 . S
H541 C560 0.951 . S
H542 C562 0.950 . S
H543 C563 0.950 . S
H544 C565 0.950 . S
H545 C568 0.950 . S
H546 C569 0.950 . S
H547 C571 0.950 . S
H548 C572 0.950 . S
H549 C573 0.951 . S
H550 C575 0.951 . S
H551 C577 0.950 . S
H552 C578 0.950 . S
H553 C580 0.950 . S
H554 C583 0.950 . S
H555 C584 0.950 1_565 S
H556 C586 0.950 1_565 S
H557 C587 0.950 . S
C558 H540 0.951 . S
C558 C559 1.366 . S
C558 C560 1.388 . S
C559 C558 1.366 . S
C559 C563 1.385 . S
C560 H541 0.951 . S
C560 C558 1.388 . S
C560 C561 1.366 . S
C561 C560 1.366 . S
C561 C562 1.414 . S
C561 C564 1.499 . S
C562 H542 0.950 . S
C562 C561 1.414 . S
C562 C563 1.374 . S
C563 H543 0.950 . S
C563 C559 1.385 . S
C563 C562 1.374 . S
C564 C561 1.499 . S
C564 C565 1.373 . S
C564 C566 1.389 . S
C565 H544 0.950 . S
C565 C564 1.373 . S
C565 C581 1.377 . S
C566 C564 1.389 . S
C566 C567 1.524 . S
C566 C580 1.377 . S
C567 C566 1.524 . S
C567 C568 1.397 . S
C567 C572 1.363 . S
C568 H545 0.950 . S
C568 C567 1.397 . S
C568 C569 1.334 . S
C569 H546 0.950 . S
C569 C568 1.334 . S
C569 C570 1.287 . S
C570 C569 1.287 . S
C570 C571 1.524 . S
C570 H589 0.913 . S
C571 H547 0.950 . S
C571 C570 1.524 . S
C571 C572 1.415 . S
C572 H548 0.950 . S
C572 C567 1.363 . S
C572 C571 1.415 . S
C573 H549 0.951 . S
C573 C574 1.366 . S
C573 C575 1.388 . S
C574 C573 1.366 . S
C574 C578 1.385 . S
C575 H550 0.951 . S
C575 C573 1.388 . S
C575 C576 1.366 . S
C576 C575 1.366 . S
C576 C577 1.414 . S
C576 C579 1.499 . S
C577 H551 0.950 . S
C577 C576 1.414 . S
C577 C578 1.374 . S
C578 H552 0.950 . S
C578 C574 1.385 . S
C578 C577 1.374 . S
C579 C576 1.499 . S
C579 C580 1.373 . S
C579 C581 1.389 . S
C580 H553 0.950 . S
C580 C566 1.377 . S
C580 C579 1.373 . S
C581 C565 1.377 . S
C581 C579 1.389 . S
C581 C582 1.524 . S
C582 C581 1.524 . S
C582 C583 1.397 . S
C582 C587 1.363 . S
C583 H554 0.950 . S
C583 C582 1.397 . S
C583 C584 1.334 . S
C584 H555 0.950 1_545 S
C584 C583 1.334 . S
C584 C585 1.287 1_545 S
C585 C584 1.287 1_565 S
C585 C586 1.524 1_565 S
C585 H588 0.999 . S
C586 H556 0.950 1_545 S
C586 C585 1.524 1_545 S
C586 C587 1.415 . S
C587 H557 0.950 . S
C587 C582 1.363 . S
C587 C586 1.415 . S
H588 C585 0.999 . S
H589 C570 0.913 . S
H590 C608 0.951 . S
H591 C610 0.951 . S
H592 C612 0.950 . S
H593 C613 0.950 . S
H594 C615 0.950 . S
H595 C618 0.950 . S
H596 C619 0.950 . S
H597 C621 0.950 . S
H598 C622 0.950 . S
H599 C623 0.951 . S
H600 C625 0.951 . S
H601 C627 0.950 . S
H602 C628 0.950 . S
H603 C630 0.950 . S
H604 C633 0.950 . S
H605 C634 0.950 . S
H606 C636 0.950 . S
H607 C637 0.950 . S
C608 H590 0.951 . S
C608 C609 1.366 . S
C608 C610 1.388 . S
C609 C608 1.366 . S
C609 C613 1.385 . S
C610 H591 0.951 . S
C610 C608 1.388 . S
C610 C611 1.366 . S
C611 C610 1.366 . S
C611 C612 1.414 . S
C611 C614 1.499 . S
C612 H592 0.950 . S
C612 C611 1.414 . S
C612 C613 1.374 . S
C613 H593 0.950 . S
C613 C609 1.385 . S
C613 C612 1.374 . S
C614 C611 1.499 . S
C614 C615 1.373 . S
C614 C616 1.389 . S
C615 H594 0.950 . S
C615 C614 1.373 . S
C615 C631 1.377 . S
C616 C614 1.389 . S
C616 C617 1.524 . S
C616 C630 1.377 . S
C617 C616 1.524 . S
C617 C618 1.397 . S
C617 C622 1.363 . S
C618 H595 0.950 . S
C618 C617 1.397 . S
C618 C619 1.334 . S
C619 H596 0.950 . S
C619 C618 1.334 . S
C619 C620 1.287 . S
C620 C619 1.287 . S
C620 C621 1.524 . S
C620 H639 0.913 . S
C621 H597 0.950 . S
C621 C620 1.524 . S
C621 C622 1.415 . S
C622 H598 0.950 . S
C622 C617 1.363 . S
C622 C621 1.415 . S
C623 H599 0.951 . S
C623 C624 1.366 . S
C623 C625 1.388 . S
C624 C623 1.366 . S
C624 C628 1.385 . S
C625 H600 0.951 . S
C625 C623 1.388 . S
C625 C626 1.366 . S
C626 C625 1.366 . S
C626 C627 1.414 . S
C626 C629 1.499 . S
C627 H601 0.950 . S
C627 C626 1.414 . S
C627 C628 1.374 . S
C628 H602 0.950 . S
C628 C624 1.385 . S
C628 C627 1.374 . S
C629 C626 1.499 . S
C629 C630 1.373 . S
C629 C631 1.389 . S
C630 H603 0.950 . S
C630 C616 1.377 . S
C630 C629 1.373 . S
C631 C615 1.377 . S
C631 C629 1.389 . S
C631 C632 1.524 . S
C632 C631 1.524 . S
C632 C633 1.397 . S
C632 C637 1.363 . S
C633 H604 0.950 . S
C633 C632 1.397 . S
C633 C634 1.334 . S
C634 H605 0.950 . S
C634 C633 1.334 . S
C634 C635 1.287 . S
C635 C634 1.287 . S
C635 C636 1.524 . S
C635 H638 0.999 . S
C636 H606 0.950 . S
C636 C635 1.524 . S
C636 C637 1.415 . S
C637 H607 0.950 . S
C637 C632 1.363 . S
C637 C636 1.415 . S
H638 C635 0.999 . S
H639 C620 0.913 . S
H640 C658 0.951 . S
H641 C660 0.951 . S
H642 C662 0.950 . S
H643 C663 0.950 . S
H644 C665 0.950 . S
H645 C668 0.950 . S
H646 C669 0.950 1_554 S
H647 C671 0.950 . S
H648 C672 0.950 . S
H649 C673 0.951 . S
H650 C675 0.951 . S
H651 C677 0.950 . S
H652 C678 0.950 . S
H653 C680 0.950 . S
H654 C683 0.950 . S
H655 C684 0.950 . S
H656 C686 0.950 . S
H657 C687 0.950 . S
C658 H640 0.951 . S
C658 C659 1.366 . S
C658 C660 1.388 . S
C659 C658 1.366 . S
C659 C663 1.385 . S
C660 H641 0.951 . S
C660 C658 1.388 . S
C660 C661 1.366 . S
C661 C660 1.366 . S
C661 C662 1.414 . S
C661 C664 1.499 . S
C662 H642 0.950 . S
C662 C661 1.414 . S
C662 C663 1.374 . S
C663 H643 0.950 . S
C663 C659 1.385 . S
C663 C662 1.374 . S
C664 C661 1.499 . S
C664 C665 1.373 . S
C664 C666 1.389 . S
C665 H644 0.950 . S
C665 C664 1.373 . S
C665 C681 1.377 . S
C666 C664 1.389 . S
C666 C667 1.524 . S
C666 C680 1.377 . S
C667 C666 1.524 . S
C667 C668 1.397 . S
C667 C672 1.363 . S
C668 H645 0.950 . S
C668 C667 1.397 . S
C668 C669 1.334 . S
C669 H646 0.950 1_556 S
C669 C668 1.334 . S
C669 C670 1.287 . S
C670 C669 1.287 . S
C670 C671 1.524 1_565 S
C670 H689 0.913 1_566 S
C671 H647 0.950 . S
C671 C670 1.524 1_545 S
C671 C672 1.415 1_545 S
C672 H648 0.950 . S
C672 C667 1.363 . S
C672 C671 1.415 1_565 S
C673 H649 0.951 . S
C673 C674 1.366 . S
C673 C675 1.388 . S
C674 C673 1.366 . S
C674 C678 1.385 . S
C675 H650 0.951 . S
C675 C673 1.388 . S
C675 C676 1.366 . S
C676 C675 1.366 . S
C676 C677 1.414 . S
C676 C679 1.499 . S
C677 H651 0.950 . S
C677 C676 1.414 . S
C677 C678 1.374 . S
C678 H652 0.950 . S
C678 C674 1.385 . S
C678 C677 1.374 . S
C679 C676 1.499 . S
C679 C680 1.373 . S
C679 C681 1.389 . S
C680 H653 0.950 . S
C680 C666 1.377 . S
C680 C679 1.373 . S
C681 C665 1.377 . S
C681 C679 1.389 . S
C681 C682 1.524 . S
C682 C681 1.524 . S
C682 C683 1.397 . S
C682 C687 1.363 . S
C683 H654 0.950 . S
C683 C682 1.397 . S
C683 C684 1.334 . S
C684 H655 0.950 . S
C684 C683 1.334 . S
C684 C685 1.287 . S
C685 C684 1.287 . S
C685 C686 1.524 . S
C685 H688 0.999 . S
C686 H656 0.950 . S
C686 C685 1.524 . S
C686 C687 1.415 . S
C687 H657 0.950 . S
C687 C682 1.363 . S
C687 C686 1.415 . S
H688 C685 0.999 . S
H689 C670 0.913 1_544 S
C124 C63 1.256 . S
C109 C40 1.438 . S
C159 C4 1.469 . S
C174 C87 1.274 . S
C209 C16 1.620 . S
C224 C66 1.423 . S
C259 C28 1.618 . S
C274 C84 1.411 . S
C324 C64 1.497 . S
C309 C9 1.514 . S
C374 C86 1.559 . S
C359 C18 1.625 . S
C409 C33 1.601 . S
C424 C65 1.556 . S
C459 C45 1.518 . S
C474 C85 1.470 . S
C524 C83 1.485 . S
C509 C21 1.531 . S
C574 C62 1.490 . S
C559 C30 1.552 . S
C624 C82 1.424 . S
C609 C42 1.460 . S
C659 C6 1.459 1_556 S
C674 C61 1.408 . S
