# Generated by pormake.
# Topology ctn, (3,4)-cn, num edge types: 1
# Building blocks:
#     Node 0, Type 0, BuildingBlock: PAMTOO_clean_linker_0, # of connection points: 3
#     Node 1, Type 0, BuildingBlock: PAMTOO_clean_linker_0, # of connection points: 3
#     Node 2, Type 0, BuildingBlock: PAMTOO_clean_linker_0, # of connection points: 3
#     Node 3, Type 0, BuildingBlock: PAMTOO_clean_linker_0, # of connection points: 3
#     Node 4, Type 0, BuildingBlock: PAMTOO_clean_linker_0, # of connection points: 3
#     Node 5, Type 0, BuildingBlock: PAMTOO_clean_linker_0, # of connection points: 3
#     Node 6, Type 0, BuildingBlock: PAMTOO_clean_linker_0, # of connection points: 3
#     Node 7, Type 0, BuildingBlock: PAMTOO_clean_linker_0, # of connection points: 3
#     Node 8, Type 0, BuildingBlock: PAMTOO_clean_linker_0, # of connection points: 3
#     Node 9, Type 0, BuildingBlock: PAMTOO_clean_linker_0, # of connection points: 3
#     Node 10, Type 0, BuildingBlock: PAMTOO_clean_linker_0, # of connection points: 3
#     Node 11, Type 0, BuildingBlock: PAMTOO_clean_linker_0, # of connection points: 3
#     Node 12, Type 0, BuildingBlock: PAMTOO_clean_linker_0, # of connection points: 3
#     Node 13, Type 0, BuildingBlock: PAMTOO_clean_linker_0, # of connection points: 3
#     Node 14, Type 0, BuildingBlock: PAMTOO_clean_linker_0, # of connection points: 3
#     Node 15, Type 0, BuildingBlock: PAMTOO_clean_linker_0, # of connection points: 3
#     Node 16, Type 1, BuildingBlock: KUFVIS_clean_sbu_0, # of connection points: 4
#     Node 17, Type 1, BuildingBlock: KUFVIS_clean_sbu_0, # of connection points: 4
#     Node 18, Type 1, BuildingBlock: KUFVIS_clean_sbu_0, # of connection points: 4
#     Node 19, Type 1, BuildingBlock: KUFVIS_clean_sbu_0, # of connection points: 4
#     Node 20, Type 1, BuildingBlock: KUFVIS_clean_sbu_0, # of connection points: 4
#     Node 21, Type 1, BuildingBlock: KUFVIS_clean_sbu_0, # of connection points: 4
#     Node 22, Type 1, BuildingBlock: KUFVIS_clean_sbu_0, # of connection points: 4
#     Node 23, Type 1, BuildingBlock: KUFVIS_clean_sbu_0, # of connection points: 4
#     Node 24, Type 1, BuildingBlock: KUFVIS_clean_sbu_0, # of connection points: 4
#     Node 25, Type 1, BuildingBlock: KUFVIS_clean_sbu_0, # of connection points: 4
#     Node 26, Type 1, BuildingBlock: KUFVIS_clean_sbu_0, # of connection points: 4
#     Node 27, Type 1, BuildingBlock: KUFVIS_clean_sbu_0, # of connection points: 4
#     Edge 28, Type (0, 1), BuildingBlock: KIFKEQ_clean_linker_1, # of connection points: 2
#     Edge 29, Type (0, 1), BuildingBlock: KIFKEQ_clean_linker_1, # of connection points: 2
#     Edge 30, Type (0, 1), BuildingBlock: KIFKEQ_clean_linker_1, # of connection points: 2
#     Edge 31, Type (0, 1), BuildingBlock: KIFKEQ_clean_linker_1, # of connection points: 2
#     Edge 32, Type (0, 1), BuildingBlock: KIFKEQ_clean_linker_1, # of connection points: 2
#     Edge 33, Type (0, 1), BuildingBlock: KIFKEQ_clean_linker_1, # of connection points: 2
#     Edge 34, Type (0, 1), BuildingBlock: KIFKEQ_clean_linker_1, # of connection points: 2
#     Edge 35, Type (0, 1), BuildingBlock: KIFKEQ_clean_linker_1, # of connection points: 2
#     Edge 36, Type (0, 1), BuildingBlock: KIFKEQ_clean_linker_1, # of connection points: 2
#     Edge 37, Type (0, 1), BuildingBlock: KIFKEQ_clean_linker_1, # of connection points: 2
#     Edge 38, Type (0, 1), BuildingBlock: KIFKEQ_clean_linker_1, # of connection points: 2
#     Edge 39, Type (0, 1), BuildingBlock: KIFKEQ_clean_linker_1, # of connection points: 2
#     Edge 40, Type (0, 1), BuildingBlock: KIFKEQ_clean_linker_1, # of connection points: 2
#     Edge 41, Type (0, 1), BuildingBlock: KIFKEQ_clean_linker_1, # of connection points: 2
#     Edge 42, Type (0, 1), BuildingBlock: KIFKEQ_clean_linker_1, # of connection points: 2
#     Edge 43, Type (0, 1), BuildingBlock: KIFKEQ_clean_linker_1, # of connection points: 2
#     Edge 44, Type (0, 1), BuildingBlock: KIFKEQ_clean_linker_1, # of connection points: 2
#     Edge 45, Type (0, 1), BuildingBlock: KIFKEQ_clean_linker_1, # of connection points: 2
#     Edge 46, Type (0, 1), BuildingBlock: KIFKEQ_clean_linker_1, # of connection points: 2
#     Edge 47, Type (0, 1), BuildingBlock: KIFKEQ_clean_linker_1, # of connection points: 2
#     Edge 48, Type (0, 1), BuildingBlock: KIFKEQ_clean_linker_1, # of connection points: 2
#     Edge 49, Type (0, 1), BuildingBlock: KIFKEQ_clean_linker_1, # of connection points: 2
#     Edge 50, Type (0, 1), BuildingBlock: KIFKEQ_clean_linker_1, # of connection points: 2
#     Edge 51, Type (0, 1), BuildingBlock: KIFKEQ_clean_linker_1, # of connection points: 2
#     Edge 52, Type (0, 1), BuildingBlock: KIFKEQ_clean_linker_1, # of connection points: 2
#     Edge 53, Type (0, 1), BuildingBlock: KIFKEQ_clean_linker_1, # of connection points: 2
#     Edge 54, Type (0, 1), BuildingBlock: KIFKEQ_clean_linker_1, # of connection points: 2
#     Edge 55, Type (0, 1), BuildingBlock: KIFKEQ_clean_linker_1, # of connection points: 2
#     Edge 56, Type (0, 1), BuildingBlock: KIFKEQ_clean_linker_1, # of connection points: 2
#     Edge 57, Type (0, 1), BuildingBlock: KIFKEQ_clean_linker_1, # of connection points: 2
#     Edge 58, Type (0, 1), BuildingBlock: KIFKEQ_clean_linker_1, # of connection points: 2
#     Edge 59, Type (0, 1), BuildingBlock: KIFKEQ_clean_linker_1, # of connection points: 2
#     Edge 60, Type (0, 1), BuildingBlock: KIFKEQ_clean_linker_1, # of connection points: 2
#     Edge 61, Type (0, 1), BuildingBlock: KIFKEQ_clean_linker_1, # of connection points: 2
#     Edge 62, Type (0, 1), BuildingBlock: KIFKEQ_clean_linker_1, # of connection points: 2
#     Edge 63, Type (0, 1), BuildingBlock: KIFKEQ_clean_linker_1, # of connection points: 2
#     Edge 64, Type (0, 1), BuildingBlock: KIFKEQ_clean_linker_1, # of connection points: 2
#     Edge 65, Type (0, 1), BuildingBlock: KIFKEQ_clean_linker_1, # of connection points: 2
#     Edge 66, Type (0, 1), BuildingBlock: KIFKEQ_clean_linker_1, # of connection points: 2
#     Edge 67, Type (0, 1), BuildingBlock: KIFKEQ_clean_linker_1, # of connection points: 2
#     Edge 68, Type (0, 1), BuildingBlock: KIFKEQ_clean_linker_1, # of connection points: 2
#     Edge 69, Type (0, 1), BuildingBlock: KIFKEQ_clean_linker_1, # of connection points: 2
#     Edge 70, Type (0, 1), BuildingBlock: KIFKEQ_clean_linker_1, # of connection points: 2
#     Edge 71, Type (0, 1), BuildingBlock: KIFKEQ_clean_linker_1, # of connection points: 2
#     Edge 72, Type (0, 1), BuildingBlock: KIFKEQ_clean_linker_1, # of connection points: 2
#     Edge 73, Type (0, 1), BuildingBlock: KIFKEQ_clean_linker_1, # of connection points: 2
#     Edge 74, Type (0, 1), BuildingBlock: KIFKEQ_clean_linker_1, # of connection points: 2
#     Edge 75, Type (0, 1), BuildingBlock: KIFKEQ_clean_linker_1, # of connection points: 2
# Relax obj value: 0.075
# Max RMSD: 0.178
# Mean RMSD: 0.121
data_MOF--net-ctn--node1-KUFVIS_clean_sbu_0--node2-PAMTOO_clean_linker_0--edge1-KIFKEQ_clean_linker_1
_symmetry_space_group_name_H-M    P1
_symmetry_Int_Tables_number       1
_symmetry_cell_setting            triclinic
loop_
_symmetry_equiv_pos_as_xyz
'x, y, z'
_cell_length_a     53.456474
_cell_length_b     53.72988
_cell_length_c     54.939089
_cell_angle_alpha  86.042213
_cell_angle_beta   92.295843
_cell_angle_gamma 98.64161
loop_
_atom_site_label
_atom_site_type_symbol
_atom_site_fract_x
_atom_site_fract_y
_atom_site_fract_z
_atom_type_partial_charge
H0 H 0.01877 0.09191 0.06833 0.0
H1 H 0.05743 0.02702 0.08011 0.0
H2 H 0.07326 0.07796 0.01718 0.0
H3 H 0.06951 0.02564 1.00707 0.0
C4 C 0.07665 0.01751 0.02472 0.0
O5 O 0.08375 0.03645 0.04046 0.0
H6 H 0.06097 1.00369 0.03264 0.0
C7 C 0.03232 0.08049 0.06269 0.0
C8 C 0.04543 0.08765 0.04105 0.0
C9 C 0.03655 0.05874 0.0771 0.0
C10 C 0.05387 0.04385 0.06932 0.0
C11 C 0.06706 0.05082 0.04777 0.0
C12 C 0.06305 0.07282 0.03387 0.0
H13 H 0.34501 0.6767 0.254 0.0
H14 H 0.31421 0.69596 0.18265 0.0
H15 H 0.38081 0.74052 0.20967 0.0
H16 H 0.34987 0.77322 0.18864 0.0
C17 C 0.33515 0.75956 0.17983 0.0
O18 O 0.34519 0.7379 0.17617 0.0
H19 H 0.31908 0.75525 0.19253 0.0
C20 C 0.34639 0.68809 0.23696 0.0
C21 C 0.36583 0.70889 0.23434 0.0
C22 C 0.32795 0.68251 0.21823 0.0
C23 C 0.32831 0.69914 0.19723 0.0
C24 C 0.34691 0.72033 0.19478 0.0
C25 C 0.36619 0.72445 0.21262 0.0
H26 H 0.98549 0.53533 0.09049 0.0
H27 H 0.96233 0.49851 0.0242 0.0
H28 H 0.0201 0.47231 0.07093 0.0
H29 H 0.03145 0.47616 0.02045 0.0
C30 C 0.01244 0.46966 0.01222 0.0
O31 O 0.99445 0.46613 0.03003 0.0
H32 H 1.00765 0.48445 0.99835 0.0
C33 C 0.98688 0.52066 0.07827 0.0
C34 C 1.00477 0.50408 0.08363 0.0
C35 C 0.9712 0.51891 0.05697 0.0
C36 C 0.97422 0.50056 0.04058 0.0
C37 C 0.99208 0.48411 0.04557 0.0
C38 C 1.00696 0.48569 0.06712 0.0
H39 H 0.70147 0.86324 0.25104 0.0
H40 H 0.68 0.78847 0.22697 0.0
H41 H 0.74819 0.83303 0.20146 0.0
H42 H 0.70566 0.80865 0.16558 0.0
C43 C 0.706 0.78937 0.17437 0.0
O44 O 0.71766 0.79099 0.19723 0.0
H45 H 0.68604 0.78021 0.17632 0.0
C46 C 0.70539 0.84819 0.24034 0.0
C47 C 0.72751 0.8513 0.22661 0.0
C48 C 0.68846 0.82548 0.24119 0.0
C49 C 0.69301 0.806 0.2269 0.0
C50 C 0.71409 0.80927 0.21198 0.0
C51 C 0.73146 0.83157 0.21223 0.0
H52 H 0.09731 0.95913 0.53747 0.0
H53 H 0.03109 0.94563 0.48979 0.0
H54 H 0.08442 0.01325 0.47882 0.0
H55 H 0.03213 0.02098 0.4698 0.0
C56 C 0.02387 1.00238 0.463 0.0
O57 O 0.04256 0.98732 0.46231 0.0
H58 H 1.00897 0.99337 0.47571 0.0
C59 C 0.0857 0.9648 0.52204 0.0
C60 C 0.09337 0.98785 0.50903 0.0
C61 C 0.06309 0.94931 0.51551 0.0
C62 C 0.04825 0.95741 0.49558 0.0
C63 C 0.05595 0.98044 0.48242 0.0
C64 C 0.07841 0.99564 0.48924 0.0
H65 H 0.17739 0.74306 0.83037 0.0
H66 H 0.20844 0.6871 0.79306 0.0
H67 H 0.24955 0.72182 0.85354 0.0
H68 H 0.28316 0.71194 0.81735 0.0
C69 C 0.27068 0.69734 0.80733 0.0
O70 O 0.24949 0.68859 0.82076 0.0
H71 H 0.26488 0.7062 0.78947 0.0
C72 C 0.19206 0.73145 0.82857 0.0
C73 C 0.21356 0.73437 0.84425 0.0
C74 C 0.19008 0.71468 0.80977 0.0
C75 C 0.20967 0.7003 0.80726 0.0
C76 C 0.23093 0.70275 0.82314 0.0
C77 C 0.2329 0.71984 0.84149 0.0
H78 H 0.95848 0.55814 0.53087 0.0
H79 H 0.97676 0.51361 0.47385 0.0
H80 H 0.03096 0.57533 0.49681 0.0
H81 H 0.02022 0.57203 0.4431 0.0
C82 C 0.0178 0.55115 0.44221 0.0
O83 O 0.0209 0.54024 0.46543 0.0
H84 H 0.99828 0.54486 0.43501 0.0
C85 C 0.97191 0.55402 0.51801 0.0
C86 C 0.99586 0.56902 0.51636 0.0
C87 C 0.96489 0.53387 0.50297 0.0
C88 C 0.98206 0.52871 0.48599 0.0
C89 C 1.00559 0.54396 0.48349 0.0
C90 C 0.01257 0.5639 0.49878 0.0
H91 H 0.7895 0.83035 0.8622 0.0
H92 H 0.85074 0.79779 0.8343 0.0
H93 H 0.82397 0.86069 0.79492 0.0
H94 H 0.84283 0.83223 0.76026 0.0
C95 C 0.84915 0.81775 0.77357 0.0
O96 O 0.85626 0.82865 0.79535 0.0
H97 H 0.83286 0.80234 0.77634 0.0
C98 C 0.80326 0.82984 0.84835 0.0
C99 C 0.80435 0.84755 0.82817 0.0
C100 C 0.82007 0.81188 0.85105 0.0
C101 C 0.83805 0.81179 0.83305 0.0
C102 C 0.83945 0.82944 0.81297 0.0
C103 C 0.82292 0.84746 0.81078 0.0
H104 H 0.28877 0.33349 0.362 0.0
H105 H 0.35209 0.3028 0.336 0.0
H106 H 0.32357 0.36349 0.29462 0.0
H107 H 0.33977 0.32955 0.26254 0.0
C108 C 0.35057 0.31854 0.27599 0.0
O109 O 0.35686 0.33233 0.29625 0.0
H110 H 0.33809 0.30055 0.28108 0.0
C111 C 0.30323 0.33367 0.34868 0.0
C112 C 0.30389 0.35076 0.32798 0.0
C113 C 0.32061 0.31629 0.35195 0.0
C114 C 0.33898 0.31641 0.3343 0.0
C115 C 0.33988 0.3333 0.31368 0.0
C116 C 0.32258 0.35054 0.31068 0.0
H117 H 0.48054 0.03543 0.59868 0.0
H118 H 0.45937 0.99703 0.53276 0.0
H119 H 0.51638 0.97239 0.58159 0.0
H120 H 0.5286 0.97322 0.5318 0.0
C121 C 0.50962 0.96781 0.52304 0.0
O122 O 0.49124 0.96467 0.54048 0.0
H123 H 0.50587 0.98324 0.50943 0.0
C124 C 0.48258 0.0208 0.58662 0.0
C125 C 0.5002 1.00418 0.59299 0.0
C126 C 0.4675 0.01852 0.56494 0.0
C127 C 0.47082 0.99954 0.54937 0.0
C128 C 0.48846 0.98307 0.5554 0.0
C129 C 0.50281 0.98525 0.57723 0.0
H130 H 0.21118 0.35946 0.74934 0.0
H131 H 0.17902 0.29088 0.71633 0.0
H132 H 0.24657 0.33507 0.68806 0.0
H133 H 0.20398 0.31461 0.65322 0.0
C134 C 0.20215 0.29472 0.66097 0.0
O135 O 0.21416 0.29385 0.68368 0.0
H136 H 0.18168 0.28745 0.66285 0.0
C137 C 0.2113 0.34611 0.73542 0.0
C138 C 0.23088 0.34987 0.71871 0.0
C139 C 0.19227 0.32505 0.73469 0.0
C140 C 0.19331 0.30742 0.71707 0.0
C141 C 0.21276 0.31118 0.70014 0.0
C142 C 0.23136 0.3325 0.70089 0.0
H143 H 0.84753 0.16958 0.75211 0.0
H144 H 0.81133 0.19636 0.68575 0.0
H145 H 0.87543 0.24179 0.71658 0.0
H146 H 0.8415 0.27316 0.69723 0.0
C147 C 0.82844 0.25939 0.68677 0.0
O148 O 0.84069 0.23943 0.68213 0.0
H149 H 0.81167 0.25266 0.69817 0.0
C150 C 0.84647 0.18362 0.73719 0.0
C151 C 0.8645 0.20568 0.73638 0.0
C152 C 0.82689 0.17983 0.71918 0.0
C153 C 0.82579 0.1986 0.70012 0.0
C154 C 0.84322 0.22076 0.69943 0.0
C155 C 0.86257 0.22416 0.71727 0.0
H156 H 0.5204 0.59046 0.56856 0.0
H157 H 0.56071 0.52689 0.58042 0.0
H158 H 0.57554 0.57764 0.51736 0.0
H159 H 0.56973 0.52358 0.50875 0.0
C160 C 0.57943 0.51667 0.52564 0.0
O161 O 0.58647 0.53648 0.54043 0.0
H162 H 0.56598 0.50182 0.53534 0.0
C163 C 0.53459 0.57976 0.56299 0.0
C164 C 0.54737 0.58711 0.54114 0.0
C165 C 0.53929 0.55819 0.57744 0.0
C166 C 0.55675 0.54355 0.56957 0.0
C167 C 0.56952 0.55052 0.5478 0.0
C168 C 0.56502 0.5723 0.53383 0.0
H169 H 0.59458 0.46831 0.03929 0.0
H170 H 0.52841 0.45598 0.99147 0.0
H171 H 0.589 0.51557 0.9735 0.0
H172 H 0.54083 0.53042 0.96301 0.0
C173 C 0.52905 0.51216 0.95914 0.0
O174 O 0.54412 0.49334 0.95989 0.0
H175 H 0.51452 0.50751 0.97337 0.0
C176 C 0.58386 0.47349 0.02303 0.0
C177 C 0.59438 0.49362 1.00724 0.0
C178 C 0.56018 0.45941 0.01742 0.0
C179 C 0.5468 0.46634 0.99603 0.0
C180 C 0.55707 0.48674 0.98039 0.0
C181 C 0.58102 0.50003 0.98581 0.0
H182 H 0.67708 0.24306 0.32899 0.0
H183 H 0.70959 0.18947 0.29014 0.0
H184 H 0.74899 0.22093 0.35278 0.0
H185 H 0.78314 0.21259 0.31756 0.0
C186 C 0.77136 0.19794 0.30702 0.0
O187 O 0.74944 0.18903 0.3193 0.0
H188 H 0.76646 0.20676 0.28885 0.0
C189 C 0.69228 0.23219 0.32696 0.0
C190 C 0.7132 0.23435 0.34354 0.0
C191 C 0.69088 0.21635 0.30743 0.0
C192 C 0.71043 0.202 0.30488 0.0
C193 C 0.73103 0.20342 0.32153 0.0
C194 C 0.73246 0.2196 0.34064 0.0
H195 H 0.45304 0.06995 0.02541 0.0
H196 H 0.47351 0.02078 0.97316 0.0
H197 H 0.52721 0.08352 0.99494 0.0
H198 H 0.52785 0.0768 0.94235 0.0
C199 C 0.51866 0.05682 0.94225 0.0
O200 O 0.51847 0.04601 0.96584 0.0
H201 H 0.49884 0.0566 0.93506 0.0
C202 C 0.46672 0.06472 0.0134 0.0
C203 C 0.4909 0.07912 0.01202 0.0
C204 C 0.46036 0.04328 0.99985 0.0
C205 C 0.4783 0.03678 0.98432 0.0
C206 C 0.50219 0.05143 0.98228 0.0
C207 C 0.50868 0.07227 0.99654 0.0
Mn208 Mn 0.2554 0.88598 1.00404 0.0
Mn209 Mn 0.25554 0.91359 0.947 0.0
C210 C 0.23729 0.86345 0.97173 0.0
C211 C 0.27385 0.86343 0.03593 0.0
C212 C 0.22053 0.92425 0.98591 0.0
O213 O 0.28298 0.91644 1.00644 0.0
O214 O 0.28279 0.93234 0.96732 0.0
C215 C 0.30506 0.90249 0.93191 0.0
N216 N 0.2795 0.9006 0.92831 0.0
C217 C 0.28072 0.87675 0.89298 0.0
C218 C 0.30706 0.87858 0.89623 0.0
C219 C 0.31927 0.89148 0.91581 0.0
C220 C 0.26756 0.8882 0.90955 0.0
H221 H 0.31452 0.91227 0.94701 0.0
C222 C 0.29169 0.93238 0.98937 0.0
O223 O 0.25717 0.87784 0.03981 0.0
O224 O 0.2803 0.86258 0.0135 0.0
N225 N 0.23036 0.89689 0.9255 0.0
C226 C 0.20473 0.89586 0.92556 0.0
C227 C 0.18965 0.88319 0.90741 0.0
C228 C 0.20106 0.8718 0.88936 0.0
C229 C 0.22747 0.87327 0.88958 0.0
C230 C 0.24155 0.88636 0.90798 0.0
H231 H 0.19585 0.90452 0.93942 0.0
O232 O 0.23036 0.8566 0.99387 0.0
O233 O 0.25426 0.88338 0.9693 0.0
O234 O 0.22796 0.90884 1.00233 0.0
O235 O 0.22977 0.92777 0.96463 0.0
C236 C 0.24035 0.86191 0.87249 0.0
C237 C 0.26695 0.86362 0.87421 0.0
H238 H 0.31808 0.86998 0.88393 0.0
H239 H 0.33959 0.89286 0.91852 0.0
H240 H 0.16927 0.88211 0.90738 0.0
H241 H 0.18934 0.86183 0.87554 0.0
H242 H 0.22996 0.85153 0.85815 0.0
H243 H 0.27661 0.85453 0.86115 0.0
Mn244 Mn 0.15993 0.50623 0.27013 0.0
Mn245 Mn 0.1465 0.56593 0.26602 0.0
C246 C 0.18707 0.53878 0.25078 0.0
C247 C 0.1796 0.47372 0.28968 0.0
C248 C 0.12058 0.52549 0.23389 0.0
O249 O 0.1335 0.50491 0.29661 0.0
O250 O 0.12699 0.54555 0.29216 0.0
C251 C 0.16924 0.58133 0.31371 0.0
N252 N 0.16775 0.5851 0.28896 0.0
C253 C 0.19933 0.62205 0.28969 0.0
C254 C 0.20111 0.61863 0.31521 0.0
C255 C 0.18605 0.59814 0.32725 0.0
C256 C 0.18233 0.60461 0.27717 0.0
H257 H 0.1577 0.5656 0.32304 0.0
C258 C 0.12273 0.52329 0.30249 0.0
O259 O 0.16076 0.46907 0.27418 0.0
O260 O 0.18601 0.49706 0.29484 0.0
N261 N 0.16422 0.58794 0.24148 0.0
C262 C 0.16048 0.58831 0.21679 0.0
C263 C 0.17396 0.60775 0.20202 0.0
C264 C 0.19093 0.62669 0.21279 0.0
C265 C 0.19436 0.62599 0.23825 0.0
C266 C 0.18023 0.6063 0.25205 0.0
H267 H 0.14726 0.57395 0.20842 0.0
O268 O 0.18734 0.51561 0.24573 0.0
O269 O 0.17091 0.54218 0.26675 0.0
O270 O 0.13243 0.50784 0.24286 0.0
O271 O 0.12429 0.54776 0.24141 0.0
C272 C 0.21128 0.64401 0.25049 0.0
C273 C 0.2139 0.64194 0.27618 0.0
H274 H 0.21405 0.63156 0.32572 0.0
H275 H 0.18739 0.59532 0.34693 0.0
H276 H 0.17119 0.60818 0.18238 0.0
H277 H 0.20117 0.6417 0.20132 0.0
H278 H 0.22252 0.65943 0.24032 0.0
H279 H 0.22719 0.65574 0.28536 0.0
Mn280 Mn 0.79135 0.64189 0.03098 0.0
Mn281 Mn 0.73617 0.65519 1.00433 0.0
C282 C 0.75477 0.61245 0.0336 0.0
C283 C 0.82962 0.62533 0.03047 0.0
C284 C 0.7576 0.67658 0.0517 0.0
O285 O 0.80329 0.6718 1.00672 0.0
O286 O 0.7652 0.67785 0.99002 0.0
C287 C 0.74347 0.63913 0.95496 0.0
N288 N 0.72927 0.63762 0.97518 0.0
C289 C 0.69621 0.60862 0.95704 0.0
C290 C 0.71042 0.60995 0.93595 0.0
C291 C 0.7342 0.6252 0.93495 0.0
C292 C 0.70647 0.62286 0.97641 0.0
H293 H 0.76171 0.65089 0.95413 0.0
C294 C 0.7893 0.68341 0.99182 0.0
O295 O 0.82614 0.64176 0.04577 0.0
O296 O 0.81132 0.6194 0.01472 0.0
N297 N 0.70615 0.63485 0.01628 0.0
C298 C 0.69536 0.63485 0.03833 0.0
C299 C 0.67161 0.62033 0.04246 0.0
C300 C 0.65907 0.60626 0.02379 0.0
C301 C 0.67046 0.60671 1.00118 0.0
C302 C 0.69407 0.62165 0.99809 0.0
H303 H 0.70479 0.64586 0.05265 0.0
O304 O 0.77319 0.61143 0.04957 0.0
O305 O 0.75815 0.63066 0.0167 0.0
O306 O 0.77732 0.66566 0.05329 0.0
O307 O 0.74122 0.67382 0.03418 0.0
C308 C 0.6595 0.59262 0.98174 0.0
C309 C 0.67243 0.59348 0.95972 0.0
H310 H 0.70334 0.59923 0.92048 0.0
H311 H 0.74531 0.62625 0.91878 0.0
H312 H 0.66294 0.62006 0.05996 0.0
H313 H 0.64076 0.59509 0.02704 0.0
H314 H 0.64134 0.58074 0.98366 0.0
H315 H 0.664 0.58226 0.94504 0.0
Mn316 Mn 0.89572 0.03021 0.2631 0.0
Mn317 Mn 0.91008 0.97094 0.26361 0.0
C318 C 0.86743 0.99825 0.2467 0.0
C319 C 0.878 0.06231 0.27966 0.0
C320 C 0.93291 0.01352 0.22854 0.0
O321 O 0.92388 0.03035 0.28956 0.0
O322 O 0.93081 0.98996 0.28894 0.0
C323 C 0.89133 0.95133 0.31228 0.0
N324 N 0.89099 0.94953 0.28766 0.0
C325 C 0.86073 0.91153 0.29047 0.0
C326 C 0.86085 0.91291 0.31587 0.0
C327 C 0.87618 0.93293 0.32681 0.0
C328 C 0.87633 0.93033 0.27695 0.0
H329 H 0.90304 0.9667 0.32078 0.0
C330 C 0.93503 0.0118 0.29764 0.0
O331 O 0.89565 0.06715 0.26376 0.0
O332 O 0.87144 0.03878 0.28691 0.0
N333 N 0.89087 0.95045 0.24022 0.0
C334 C 0.8915 0.95291 0.21539 0.0
C335 C 0.87641 0.93497 0.20159 0.0
C336 C 0.86096 0.91464 0.21345 0.0
C337 C 0.86076 0.91241 0.23902 0.0
C338 C 0.8763 0.93079 0.25182 0.0
H339 H 0.9033 0.96852 0.20617 0.0
O340 O 0.86657 0.02163 0.23949 0.0
O341 O 0.88504 0.99429 0.26285 0.0
O342 O 0.92108 0.03022 0.23613 0.0
O343 O 0.93048 0.99088 0.23782 0.0
C344 C 0.84529 0.89302 0.25229 0.0
C345 C 0.84527 0.89258 0.278 0.0
H346 H 0.84907 0.89886 0.32713 0.0
H347 H 0.87629 0.93419 0.34639 0.0
H348 H 0.87661 0.93686 0.18186 0.0
H349 H 0.84915 0.90099 0.20274 0.0
H350 H 0.83298 0.87862 0.24288 0.0
H351 H 0.83298 0.87782 0.28797 0.0
Mn352 Mn 0.28782 0.14033 0.52656 0.0
Mn353 Mn 0.23349 0.15083 0.49663 0.0
C354 C 0.25095 0.11137 0.53135 0.0
C355 C 0.32615 0.12366 0.52841 0.0
C356 C 0.2549 0.17839 0.5412 0.0
O357 O 0.29993 0.16815 0.50003 0.0
O358 O 0.26287 0.16918 0.47902 0.0
C359 C 0.23913 0.12445 0.45203 0.0
N360 N 0.22525 0.12792 0.47142 0.0
C361 C 0.19074 0.09714 0.45842 0.0
C362 C 0.20451 0.0935 0.43809 0.0
C363 C 0.22889 0.1071 0.43498 0.0
C364 C 0.20202 0.11455 0.47487 0.0
H365 H 0.25792 0.13475 0.4497 0.0
C366 C 0.28678 0.17585 0.48178 0.0
O367 O 0.32252 0.14158 0.54196 0.0
O368 O 0.30798 0.11625 0.513 0.0
N369 N 0.2032 0.13411 0.51148 0.0
C370 C 0.1929 0.13903 0.53261 0.0
C371 C 0.16861 0.12685 0.53858 0.0
C372 C 0.15505 0.11 0.52266 0.0
C373 C 0.16603 0.10521 0.50104 0.0
C374 C 0.1902 0.11807 0.49595 0.0
H375 H 0.20302 0.1523 0.54472 0.0
O376 O 0.26938 0.11157 0.54747 0.0
O377 O 0.25477 0.12777 0.51296 0.0
O378 O 0.27338 0.16608 0.54581 0.0
O379 O 0.23986 0.17494 0.52265 0.0
C380 C 0.15398 0.08812 0.48438 0.0
C381 C 0.16643 0.08391 0.4632 0.0
H382 H 0.19667 0.08015 0.42489 0.0
H383 H 0.23973 0.10422 0.41947 0.0
H384 H 0.16026 0.13063 0.55531 0.0
H385 H 0.13621 0.10088 0.52722 0.0
H386 H 0.13531 0.07784 0.48785 0.0
H387 H 0.15718 0.07038 0.45077 0.0
Mn388 Mn 0.39534 0.52993 0.76052 0.0
Mn389 Mn 0.41217 0.47156 0.7643 0.0
C390 C 0.36901 0.49651 0.74422 0.0
C391 C 0.37593 0.56177 0.77546 0.0
C392 C 0.43451 0.51322 0.72808 0.0
O393 O 0.42282 0.5323 0.78764 0.0
O394 O 0.43166 0.49246 0.78905 0.0
C395 C 0.39196 0.45447 0.81303 0.0
N396 N 0.39268 0.45115 0.78873 0.0
C397 C 0.36299 0.41282 0.79264 0.0
C398 C 0.36204 0.41575 0.81773 0.0
C399 C 0.37652 0.43672 0.82795 0.0
C400 C 0.37862 0.43119 0.77867 0.0
H401 H 0.40306 0.47055 0.82097 0.0
C402 C 0.4348 0.51475 0.79668 0.0
O403 O 0.3938 0.56672 0.75978 0.0
O404 O 0.36992 0.53832 0.78321 0.0
N405 N 0.39456 0.44911 0.74163 0.0
C406 C 0.3972 0.44932 0.71704 0.0
C407 C 0.38377 0.42974 0.70399 0.0
C408 C 0.36802 0.41001 0.71636 0.0
C409 C 0.36591 0.41 0.74172 0.0
C410 C 0.37982 0.42997 0.75377 0.0
H411 H 0.4094 0.46434 0.70744 0.0
O412 O 0.36722 0.51953 0.73635 0.0
O413 O 0.38609 0.49378 0.76126 0.0
O414 O 0.42174 0.52974 0.73456 0.0
O415 O 0.43272 0.49093 0.73823 0.0
C416 C 0.35045 0.39104 0.75549 0.0
C417 C 0.34889 0.39251 0.78091 0.0
H418 H 0.35016 0.4021 0.82931 0.0
H419 H 0.37581 0.43917 0.84729 0.0
H420 H 0.38555 0.42986 0.68443 0.0
H421 H 0.35758 0.39502 0.70621 0.0
H422 H 0.33943 0.37539 0.74666 0.0
H423 H 0.33667 0.37798 0.79124 0.0
Mn424 Mn 0.75545 0.3833 0.50552 0.0
Mn425 Mn 0.75777 0.41032 0.44822 0.0
C426 C 0.73772 0.36068 0.47316 0.0
C427 C 0.77241 0.3611 0.53853 0.0
C428 C 0.72212 0.42235 0.4859 0.0
O429 O 0.7836 0.41321 0.5082 0.0
O430 O 0.78501 0.42854 0.46889 0.0
C431 C 0.80708 0.39746 0.43455 0.0
N432 N 0.78167 0.39632 0.43032 0.0
C433 C 0.78301 0.37211 0.39527 0.0
C434 C 0.80922 0.37316 0.39916 0.0
C435 C 0.82129 0.38585 0.41892 0.0
C436 C 0.76985 0.38409 0.41141 0.0
H437 H 0.81644 0.40709 0.44978 0.0
C438 C 0.79328 0.42861 0.49114 0.0
O439 O 0.75592 0.37599 0.54136 0.0
O440 O 0.77949 0.35939 0.51642 0.0
N441 N 0.73269 0.39407 0.42634 0.0
C442 C 0.70715 0.39385 0.42574 0.0
C443 C 0.6922 0.38151 0.40731 0.0
C444 C 0.70364 0.36964 0.38965 0.0
C445 C 0.72998 0.37027 0.39053 0.0
C446 C 0.74394 0.38304 0.4092 0.0
H447 H 0.69824 0.40293 0.43927 0.0
O448 O 0.73013 0.35425 0.49518 0.0
O449 O 0.7552 0.38021 0.47086 0.0
O450 O 0.72864 0.40673 0.50256 0.0
O451 O 0.73212 0.42565 0.46495 0.0
C452 C 0.74289 0.35845 0.37383 0.0
C453 C 0.76937 0.35929 0.37624 0.0
H454 H 0.82023 0.36413 0.38721 0.0
H455 H 0.8415 0.38664 0.42211 0.0
H456 H 0.67188 0.38108 0.40676 0.0
H457 H 0.69202 0.35995 0.37559 0.0
H458 H 0.73261 0.34842 0.35921 0.0
H459 H 0.77903 0.34984 0.36348 0.0
Mn460 Mn 0.66034 1.00416 0.77412 0.0
Mn461 Mn 0.64701 0.06366 0.77339 0.0
C462 C 0.68616 0.03711 0.75387 0.0
C463 C 0.68119 0.97193 0.79236 0.0
C464 C 0.61818 0.02345 0.74215 0.0
O465 O 0.63531 1.00217 0.80185 0.0
O466 O 0.6314 0.04349 0.80209 0.0
C467 C 0.67622 0.07988 0.81796 0.0
N468 N 0.67115 0.08339 0.79359 0.0
C469 C 0.70235 0.12066 0.79054 0.0
C470 C 0.70763 0.11763 0.81568 0.0
C471 C 0.69459 0.09706 0.82942 0.0
C472 C 0.68385 0.1029 0.78013 0.0
H473 H 0.66645 0.064 0.82849 0.0
C474 C 0.62713 0.0206 0.81094 0.0
O475 O 0.66169 0.96701 0.77763 0.0
O476 O 0.68762 0.99528 0.79738 0.0
N477 N 0.66141 0.0853 0.74677 0.0
C478 C 0.65504 0.08482 0.72251 0.0
C479 C 0.66687 0.10375 0.70612 0.0
C480 C 0.68493 0.12311 0.71483 0.0
C481 C 0.69103 0.12334 0.73987 0.0
C482 C 0.67856 0.10402 0.75536 0.0
H483 H 0.64106 0.0701 0.7157 0.0
O484 O 0.68633 0.01405 0.74839 0.0
O485 O 0.67104 0.04005 0.77095 0.0
O486 O 0.63158 1.00615 0.74844 0.0
O487 O 0.62164 0.04501 0.75132 0.0
C488 C 0.70917 0.14185 0.75006 0.0
C489 C 0.71496 0.1404 0.77534 0.0
H490 H 0.72182 0.13082 0.82457 0.0
H491 H 0.69872 0.09444 0.84879 0.0
H492 H 0.66205 0.10345 0.68681 0.0
H493 H 0.69407 0.13763 0.70211 0.0
H494 H 0.71897 0.15714 0.7386 0.0
H495 H 0.72927 0.15449 0.78288 0.0
Mn496 Mn 0.02859 0.27604 0.88928 0.0
Mn497 Mn 0.96892 0.26776 0.90963 0.0
C498 C 0.99588 0.25277 0.86806 0.0
C499 C 0.06178 0.2964 0.86552 0.0
C500 C 1.00938 0.2386 0.93168 0.0
O501 O 0.0301 0.30445 0.91267 0.0
O502 O 0.98973 0.29668 0.92503 0.0
C503 C 0.95374 0.31519 0.88724 0.0
N504 N 0.94988 0.28953 0.89004 0.0
C505 C 0.91362 0.28701 0.86241 0.0
C506 C 0.91713 0.31342 0.85935 0.0
C507 C 0.9373 0.32755 0.87179 0.0
C508 C 0.93058 0.27574 0.87809 0.0
H509 H 0.96927 0.32615 0.89667 0.0
C510 C 0.01205 0.3094 0.92534 0.0
O511 O 0.06576 0.28204 0.8848 0.0
O512 O 0.03864 0.30048 0.86104 0.0
N513 N 0.94667 0.24065 0.89588 0.0
C514 C 0.94628 0.21533 0.90034 0.0
C515 C 0.92735 0.19851 0.88913 0.0
C516 C 0.90895 0.20789 0.87358 0.0
C517 C 0.90958 0.23402 0.86948 0.0
C518 C 0.92874 0.24986 0.88136 0.0
H519 H 0.96037 0.208 0.91227 0.0
O520 O 0.01907 0.24907 0.86578 0.0
O521 O 0.9925 0.2697 0.88287 0.0
O522 O 0.02685 0.24942 0.91783 0.0
O523 O 0.98688 0.24403 0.9304 0.0
C524 C 0.8921 0.24496 0.85387 0.0
C525 C 0.89418 0.27143 0.85027 0.0
H526 H 0.90454 0.32302 0.84737 0.0
H527 H 0.94019 0.34794 0.86944 0.0
H528 H 0.92699 0.17837 0.8924 0.0
H529 H 0.89449 0.19485 0.86484 0.0
H530 H 0.87713 0.23319 0.84436 0.0
H531 H 0.88079 0.27961 0.83801 0.0
Mn532 Mn 0.52456 0.7784 0.39444 0.0
Mn533 Mn 0.46519 0.76729 0.41562 0.0
C534 C 0.4922 0.75564 0.37242 0.0
C535 C 0.55722 0.80025 0.37095 0.0
C536 C 0.50695 0.73876 0.43557 0.0
O537 O 0.52547 0.80557 0.41901 0.0
O538 O 0.48538 0.79601 0.43199 0.0
C539 C 0.44736 0.81468 0.39651 0.0
N540 N 0.44463 0.78901 0.39796 0.0
C541 C 0.40697 0.78637 0.37216 0.0
C542 C 0.40931 0.81277 0.37052 0.0
C543 C 0.42961 0.82698 0.38273 0.0
C544 C 0.42508 0.77515 0.38638 0.0
H545 H 0.46299 0.8257 0.40577 0.0
C546 C 0.50739 0.80941 0.43227 0.0
O547 O 0.56164 0.78547 0.38979 0.0
O548 O 0.53393 0.80402 0.36691 0.0
N549 N 0.4437 0.74032 0.40085 0.0
C550 C 0.44533 0.71518 0.40265 0.0
C551 C 0.4271 0.69842 0.39053 0.0
C552 C 0.40734 0.70763 0.37678 0.0
C553 C 0.40597 0.73355 0.37532 0.0
C554 C 0.42458 0.74934 0.38793 0.0
H555 H 0.46058 0.70801 0.41305 0.0
O556 O 0.51552 0.75248 0.36992 0.0
O557 O 0.4884 0.77152 0.38823 0.0
O558 O 0.524 0.7507 0.4219 0.0
O559 O 0.48423 0.74342 0.43485 0.0
C560 C 0.38726 0.74441 0.3613 0.0
C561 C 0.38775 0.7708 0.35974 0.0
H562 H 0.39579 0.82235 0.35973 0.0
H563 H 0.43162 0.84737 0.38145 0.0
H564 H 0.42835 0.67845 0.39166 0.0
H565 H 0.39348 0.69468 0.36723 0.0
H566 H 0.37267 0.73268 0.3513 0.0
H567 H 0.3735 0.77895 0.34858 0.0
Mn568 Mn 0.0217 0.75067 0.64618 0.0
Mn569 Mn 0.99175 0.69506 0.67038 0.0
C570 C 0.02161 0.71405 0.62605 0.0
C571 C 0.02346 0.78891 0.62283 0.0
C572 C 0.04301 0.71944 0.68891 0.0
O573 O 0.99862 0.76175 0.67088 0.0
O574 O 0.97932 0.72361 0.68487 0.0
C575 C 0.94023 0.69903 0.65014 0.0
N576 N 0.96031 0.68612 0.65312 0.0
C577 C 0.93798 0.65134 0.63197 0.0
C578 C 0.91699 0.6642 0.62877 0.0
C579 C 0.91818 0.6882 0.63779 0.0
C580 C 0.95948 0.66316 0.64428 0.0
H581 H 0.94102 0.71742 0.65718 0.0
C582 C 0.98267 0.74774 0.68449 0.0
O583 O 0.03939 0.78558 0.64071 0.0
O584 O 1.00582 0.77007 0.61872 0.0
N585 N 1.00143 0.66554 0.65815 0.0
C586 C 0.02381 0.65635 0.66152 0.0
C587 C 0.02603 0.63276 0.653 0.0
C588 C 1.00513 0.61869 0.64152 0.0
C589 C 0.98224 0.62848 0.6384 0.0
C590 C 0.98118 0.65213 0.64718 0.0
H591 H 0.03982 0.66694 0.67063 0.0
O592 O 0.03892 0.73343 0.622 0.0
O593 O 1.0046 0.71664 0.64166 0.0
O594 O 0.04464 0.73855 0.67371 0.0
O595 O 0.02396 0.702 0.68945 0.0
C596 C 0.96049 0.61583 0.62673 0.0
C597 C 0.93847 0.62735 0.62331 0.0
H598 H 0.89993 0.65588 0.61931 0.0
H599 H 0.9021 0.69828 0.63532 0.0
H600 H 0.04377 0.62535 0.65544 0.0
H601 H 1.00692 0.60046 0.63507 0.0
H602 H 0.96056 0.59733 0.62007 0.0
H603 H 0.92204 0.61763 0.61392 0.0
Mn604 Mn 0.52341 0.25925 0.14469 0.0
Mn605 Mn 0.49389 0.20247 0.16649 0.0
C606 C 0.52263 0.22416 0.12223 0.0
C607 C 0.52378 0.29853 0.12348 0.0
C608 C 0.54524 0.22647 0.18564 0.0
O609 O 0.50099 0.26838 0.171 0.0
O610 O 0.48034 0.2298 0.18218 0.0
C611 C 0.44216 0.20549 0.14633 0.0
N612 N 0.46285 0.1934 0.14858 0.0
C613 C 0.44262 0.1603 0.124 0.0
C614 C 0.42103 0.17232 0.12154 0.0
C615 C 0.42083 0.19504 0.1327 0.0
C616 C 0.46326 0.17154 0.13789 0.0
H617 H 0.44196 0.22298 0.15485 0.0
C618 C 0.4843 0.25384 0.18339 0.0
O619 O 0.54053 0.2946 0.14047 0.0
O620 O 0.50629 0.27968 0.11906 0.0
N621 N 0.5049 0.17433 0.15273 0.0
C622 C 0.52777 0.16601 0.15556 0.0
C623 C 0.53142 0.14391 0.1448 0.0
C624 C 0.51149 0.1305 0.13143 0.0
C625 C 0.48806 0.1393 0.12897 0.0
C626 C 0.48549 0.16136 0.14021 0.0
H627 H 0.54315 0.17622 0.16582 0.0
O628 O 0.53984 0.24372 0.1186 0.0
O629 O 0.50632 0.22574 0.13881 0.0
O630 O 0.54723 0.24581 0.17071 0.0
O631 O 0.5258 0.20945 0.18609 0.0
C632 C 0.46735 0.12737 0.11532 0.0
C633 C 0.44465 0.13788 0.11281 0.0
H634 H 0.40459 0.1644 0.11094 0.0
H635 H 0.40429 0.20449 0.13079 0.0
H636 H 0.54957 0.13728 0.14674 0.0
H637 H 0.51446 0.11362 0.12294 0.0
H638 H 0.46882 0.11036 0.10631 0.0
H639 H 0.429 0.12877 0.10194 0.0
H640 H 0.25149 0.77357 0.84895 0.0
H641 H 0.18159 0.73822 0.88085 0.0
H642 H 0.25604 0.80553 0.87874 0.0
H643 H 0.18671 0.76917 0.91189 0.0
H644 H 0.19198 0.84064 0.95325 0.0
H645 H 0.18542 0.81015 0.92163 0.0
H646 H 0.26658 0.81254 0.91865 0.0
H647 H 0.2727 0.84406 0.9488 0.0
C648 C 0.23728 0.77252 0.86265 0.0
C649 C 0.21631 0.75342 0.86278 0.0
C650 C 0.2399 0.79076 0.87989 0.0
C651 C 0.22189 0.78999 0.8981 0.0
C652 C 0.20081 0.77077 0.89805 0.0
C653 C 0.19793 0.75285 0.88042 0.0
C654 C 0.20826 0.83468 0.94551 0.0
C655 C 0.2328 0.84512 0.95276 0.0
C656 C 0.2046 0.81703 0.92757 0.0
C657 C 0.22546 0.80885 0.91721 0.0
C658 C 0.24999 0.81879 0.92544 0.0
C659 C 0.25358 0.83677 0.94287 0.0
H660 H 0.04949 0.58242 0.41194 0.0
H661 H 0.02642 0.50356 0.43233 0.0
H662 H 0.07409 0.57117 0.37908 0.0
H663 H 0.05139 0.49215 0.39914 0.0
H664 H 0.12435 0.49482 0.34628 0.0
H665 H 0.09963 0.49859 0.3825 0.0
H666 H 0.05672 0.54915 0.3402 0.0
H667 H 0.08097 0.54543 0.30453 0.0
C668 C 0.05013 0.56266 0.4097 0.0
C669 C 0.0362 0.54387 0.42479 0.0
C670 C 0.06407 0.5562 0.39079 0.0
C671 C 0.06442 0.53078 0.38641 0.0
C672 C 0.0515 0.51187 0.40218 0.0
C673 C 0.0373 0.51838 0.42112 0.0
C674 C 0.10912 0.5061 0.34466 0.0
C675 C 0.10476 0.52007 0.32269 0.0
C676 C 0.09511 0.50837 0.36536 0.0
C677 C 0.07671 0.52466 0.36424 0.0
C678 C 0.07117 0.53694 0.34175 0.0
C679 C 0.08499 0.53469 0.32129 0.0
H680 H 0.85891 0.79435 0.87846 0.0
H681 H 0.77732 0.78634 0.87185 0.0
H682 H 0.85553 0.76453 0.91445 0.0
H683 H 0.77405 0.75704 0.90766 0.0
H684 H 0.82964 0.68649 0.96151 0.0
H685 H 0.83986 0.71849 0.92766 0.0
H686 H 0.78326 0.76014 0.95162 0.0
H687 H 0.77293 0.72826 0.98471 0.0
C688 C 0.84028 0.78613 0.88454 0.0
C689 C 0.81837 0.79304 0.87241 0.0
C690 C 0.83838 0.7691 0.90518 0.0
C691 C 0.81455 0.75875 0.91416 0.0
C692 C 0.79273 0.76518 0.90162 0.0
C693 C 0.7946 0.78203 0.88106 0.0
C694 C 0.82002 0.70292 0.95985 0.0
C695 C 0.80042 0.7049 0.97555 0.0
C696 C 0.82574 0.72115 0.94046 0.0
C697 C 0.81191 0.74152 0.93664 0.0
C698 C 0.79378 0.74435 0.95364 0.0
C699 C 0.78803 0.72622 0.97274 0.0
H700 H 0.02452 0.04589 0.43309 0.0
H701 H 0.99665 0.96617 0.4364 0.0
H702 H 1.00538 0.05055 0.39201 0.0
H703 H 0.97739 0.97069 0.39554 0.0
H704 H 0.96846 0.98051 0.31437 0.0
H705 H 0.99122 0.97995 0.35347 0.0
H706 H 0.96282 0.04755 0.3707 0.0
H707 H 0.93997 0.04831 0.33116 0.0
C708 C 0.01424 0.0294 0.425 0.0
C709 C 0.01203 1.00563 0.43782 0.0
C710 C 1.00322 0.03207 0.40156 0.0
C711 C 0.99 0.01098 0.39043 0.0
C712 C 0.98779 0.98726 0.4034 0.0
C713 C 0.99866 0.98464 0.42682 0.0
C714 C 0.96723 0.99549 0.32629 0.0
C715 C 0.9521 0.01432 0.31965 0.0
C716 C 0.98019 0.99505 0.34882 0.0
C717 C 0.97844 0.0134 0.36542 0.0
C718 C 0.96455 0.03312 0.3583 0.0
C719 C 0.95149 0.03358 0.33563 0.0
H720 H 0.21284 0.24634 0.66981 0.0
H721 H 0.21512 0.30647 0.61333 0.0
H722 H 0.22765 0.21924 0.64107 0.0
H723 H 0.22997 0.27954 0.58463 0.0
H724 H 0.22218 0.21303 0.53472 0.0
H725 H 0.21157 0.24157 0.56388 0.0
H726 H 0.26487 0.21438 0.61657 0.0
H727 H 0.2755 0.18553 0.58736 0.0
C728 C 0.21693 0.25386 0.65136 0.0
C729 C 0.21323 0.27864 0.64391 0.0
C730 C 0.22544 0.23839 0.63491 0.0
C731 C 0.23002 0.24723 0.61055 0.0
C732 C 0.22644 0.27208 0.6032 0.0
C733 C 0.2181 0.28757 0.61967 0.0
C734 C 0.23182 0.21317 0.55244 0.0
C735 C 0.24973 0.1969 0.55862 0.0
C736 C 0.2258 0.22968 0.56914 0.0
C737 C 0.23737 0.23029 0.59256 0.0
C738 C 0.25547 0.21423 0.59873 0.0
C739 C 0.26168 0.19782 0.58191 0.0
H740 H 0.53177 0.58905 0.61304 0.0
H741 H 0.51635 0.51143 0.59427 0.0
H742 H 0.50819 0.57817 0.65026 0.0
H743 H 0.4922 0.50051 0.63129 0.0
H744 H 0.46769 0.48511 0.71011 0.0
H745 H 0.49448 0.49579 0.67491 0.0
H746 H 0.46579 0.56678 0.66267 0.0
H747 H 0.43971 0.55652 0.69818 0.0
C748 C 0.52319 0.56966 0.61684 0.0
C749 C 0.5258 0.55113 0.60064 0.0
C750 C 0.50959 0.56341 0.63815 0.0
C751 C 0.49805 0.53848 0.64377 0.0
C752 C 0.50107 0.51984 0.62776 0.0
C753 C 0.51486 0.52609 0.6065 0.0
C754 C 0.46722 0.50308 0.70002 0.0
C755 C 0.45153 0.51996 0.70712 0.0
C756 C 0.48248 0.50913 0.67969 0.0
C757 C 0.48236 0.53216 0.66585 0.0
C758 C 0.46677 0.54907 0.67307 0.0
C759 C 0.45165 0.54309 0.69344 0.0
H760 H 0.7803 0.26339 0.66949 0.0
H761 H 0.85872 0.28473 0.65137 0.0
H762 H 0.76749 0.28726 0.63285 0.0
H763 H 0.84596 0.30884 0.61458 0.0
H764 H 0.80856 0.32979 0.53922 0.0
H765 H 0.82251 0.30383 0.5741 0.0
H766 H 0.77142 0.33281 0.62011 0.0
H767 H 0.75744 0.3585 0.58549 0.0
C768 C 0.79476 0.27309 0.65753 0.0
C769 C 0.82049 0.27239 0.66323 0.0
C770 C 0.78747 0.28685 0.63665 0.0
C771 C 0.80574 0.30011 0.62097 0.0
C772 C 0.83146 0.2987 0.62625 0.0
C773 C 0.83877 0.28502 0.64727 0.0
C774 C 0.8004 0.33064 0.55681 0.0
C775 C 0.78185 0.34613 0.55959 0.0
C776 C 0.80843 0.31585 0.57677 0.0
C777 C 0.79789 0.31613 0.59977 0.0
C778 C 0.77958 0.33186 0.60253 0.0
C779 C 0.77171 0.34673 0.5827 0.0
H780 H 0.51107 0.9665 0.62616 0.0
H781 H 0.52523 0.0473 0.61181 0.0
H782 H 0.53775 0.97027 0.66318 0.0
H783 H 0.55229 0.05113 0.64854 0.0
H784 H 0.58252 0.05322 0.72648 0.0
H785 H 0.55286 0.04797 0.69183 0.0
H786 H 0.5807 0.97934 0.67677 0.0
H787 H 0.60984 0.98416 0.71192 0.0
C788 C 0.52002 0.98508 0.63084 0.0
C789 C 0.51601 1.0066 0.61598 0.0
C790 C 0.53539 0.98726 0.65207 0.0
C791 C 0.54732 0.01101 0.65898 0.0
C792 C 0.54312 0.03254 0.64415 0.0
C793 C 0.52762 0.03037 0.623 0.0
C794 C 0.58219 0.03685 0.71595 0.0
C795 C 0.59869 0.01913 0.7221 0.0
C796 C 0.56526 0.03395 0.69588 0.0
C797 C 0.56441 0.01334 0.68123 0.0
C798 C 0.58052 0.99531 0.68771 0.0
C799 C 0.59736 0.99813 0.7079 0.0
H800 H 0.86181 0.19149 0.78562 0.0
H801 H 0.91331 0.22987 0.73159 0.0
H802 H 0.89455 0.20043 0.8174 0.0
H803 H 0.94511 0.24018 0.76384 0.0
H804 H 0.96974 0.28192 0.83798 0.0
H805 H 0.93862 0.26851 0.80576 0.0
H806 H 0.94791 0.19091 0.82362 0.0
H807 H 0.97981 0.2045 0.85556 0.0
C808 C 0.88009 0.20152 0.78036 0.0
C809 C 0.88473 0.21001 0.75586 0.0
C810 C 0.89873 0.20676 0.79866 0.0
C811 C 0.92215 0.22104 0.79294 0.0
C812 C 0.92706 0.22924 0.76861 0.0
C813 C 0.9087 0.22351 0.75022 0.0
C814 C 0.96502 0.262 0.83506 0.0
C815 C 0.97656 0.24411 0.8495 0.0
C816 C 0.94741 0.25439 0.81661 0.0
C817 C 0.94093 0.22874 0.81243 0.0
C818 C 0.95259 0.21079 0.82672 0.0
C819 C 0.97072 0.2185 0.84486 0.0
H820 H 0.50464 0.91897 0.5433 0.0
H821 H 0.51714 0.96248 0.47478 0.0
H822 H 0.50682 0.88024 0.52295 0.0
H823 H 0.51928 0.92386 0.45436 0.0
H824 H 0.54338 0.85191 0.42909 0.0
H825 H 0.54552 0.88976 0.45199 0.0
H826 H 0.48101 0.85453 0.49308 0.0
H827 H 0.47897 0.81689 0.47053 0.0
C828 C 0.50755 0.92019 0.52383 0.0
C829 C 0.50993 0.94365 0.51048 0.0
C830 C 0.50888 0.89804 0.51218 0.0
C831 C 0.51313 0.89891 0.48698 0.0
C832 C 0.51619 0.9225 0.47379 0.0
C833 C 0.51466 0.94459 0.48542 0.0
C834 C 0.52992 0.85211 0.44327 0.0
C835 C 0.51096 0.83134 0.44786 0.0
C836 C 0.53099 0.87388 0.45624 0.0
C837 C 0.51333 0.87525 0.47429 0.0
C838 C 0.49503 0.8541 0.47947 0.0
C839 C 0.4938 0.83252 0.4664 0.0
H840 H 0.17448 0.28198 0.76205 0.0
H841 H 0.1645 0.36006 0.74876 0.0
H842 H 0.14327 0.27694 0.79406 0.0
H843 H 0.13354 0.35513 0.78096 0.0
H844 H 0.05905 0.32518 0.82254 0.0
H845 H 0.09019 0.33265 0.79041 0.0
H846 H 0.14089 0.29249 0.83559 0.0
H847 H 0.10989 0.285 0.86762 0.0
C848 C 0.16544 0.29798 0.76581 0.0
C849 C 0.17199 0.32141 0.75293 0.0
C850 C 0.14779 0.2952 0.78432 0.0
C851 C 0.13611 0.31572 0.7902 0.0
C852 C 0.14215 0.33896 0.77684 0.0
C853 C 0.15998 0.34181 0.75851 0.0
C854 C 0.07701 0.31832 0.82577 0.0
C855 C 0.08194 0.30446 0.84764 0.0
C856 C 0.09484 0.32257 0.80735 0.0
C857 C 0.11786 0.31284 0.81033 0.0
C858 C 0.12314 0.29982 0.83256 0.0
C859 C 0.10545 0.29576 0.85102 0.0
H860 H 0.54576 0.59438 0.49107 0.0
H861 H 0.53681 0.63196 0.55664 0.0
H862 H 0.53688 0.63169 0.46639 0.0
H863 H 0.52685 0.66876 0.53175 0.0
H864 H 0.48096 0.71513 0.47487 0.0
H865 H 0.49125 0.67894 0.50082 0.0
H866 H 0.55789 0.67788 0.45933 0.0
H867 H 0.54791 0.7141 0.43356 0.0
C868 C 0.54212 0.61058 0.5003 0.0
C869 C 0.54206 0.61 0.52596 0.0
C870 C 0.53689 0.63192 0.4861 0.0
C871 C 0.53112 0.65308 0.49717 0.0
C872 C 0.53094 0.65258 0.52274 0.0
C873 C 0.53655 0.6314 0.53697 0.0
C874 C 0.49789 0.70728 0.47138 0.0
C875 C 0.51362 0.71758 0.45215 0.0
C876 C 0.5038 0.68663 0.48629 0.0
C877 C 0.52531 0.67558 0.48201 0.0
C878 C 0.54109 0.68591 0.46291 0.0
C879 C 0.53542 0.70677 0.44827 0.0
H880 H 0.89757 0.84198 0.76576 0.0
H881 H 0.84927 0.77122 0.75638 0.0
H882 H 0.93195 0.82619 0.74605 0.0
H883 H 0.88301 0.75567 0.73623 0.0
H884 H 0.95322 0.72464 0.7213 0.0
H885 H 0.92324 0.74215 0.74457 0.0
H886 H 0.94374 0.81483 0.70618 0.0
H887 H 0.97447 0.79733 0.68307 0.0
C888 C 0.89445 0.82297 0.75969 0.0
C889 C 0.87098 0.80762 0.76305 0.0
C890 C 0.914 0.81401 0.7482 0.0
C891 C 0.91036 0.78957 0.7397 0.0
C892 C 0.88676 0.77436 0.74303 0.0
C893 C 0.86734 0.78328 0.75453 0.0
C894 C 0.95157 0.74442 0.71785 0.0
C895 C 0.96616 0.75949 0.70006 0.0
C896 C 0.9342 0.75445 0.73116 0.0
C897 C 0.93073 0.77982 0.72703 0.0
C898 C 0.946 0.79523 0.70993 0.0
C899 C 0.96356 0.78518 0.69661 0.0
H900 H 0.01544 0.92762 0.52959 0.0
H901 H 0.09347 0.91496 0.53265 0.0
H902 H 1.00391 0.88849 0.55488 0.0
H903 H 0.08202 0.87637 0.55807 0.0
H904 H 0.0597 0.82963 0.62757 0.0
H905 H 0.06755 0.86759 0.60069 0.0
H906 H 1.00254 0.84056 0.5555 0.0
H907 H 0.99451 0.80215 0.5827 0.0
C908 C 0.03007 0.9164 0.53541 0.0
C909 C 0.05546 0.92467 0.52939 0.0
C910 C 0.02346 0.89401 0.54991 0.0
C911 C 0.04212 0.87956 0.55876 0.0
C912 C 0.0673 0.88739 0.55199 0.0
C913 C 0.07386 0.90958 0.53746 0.0
C914 C 0.04693 0.83172 0.61201 0.0
C915 C 0.02656 0.81274 0.60721 0.0
C916 C 0.05154 0.85346 0.5965 0.0
C917 C 0.03588 0.85692 0.57579 0.0
C918 C 0.01493 0.8384 0.57135 0.0
C919 C 0.01037 0.81643 0.58688 0.0
H920 H 0.19082 0.71464 0.76011 0.0
H921 H 0.13983 0.71144 0.81963 0.0
H922 H 0.1551 0.71425 0.73092 0.0
H923 H 0.10408 0.71135 0.79036 0.0
H924 H 0.04448 0.68694 0.72964 0.0
H925 H 0.07983 0.68422 0.75888 0.0
H926 H 0.12529 0.74461 0.7176 0.0
H927 H 0.09018 0.74741 0.68841 0.0
C928 C 0.17195 0.71358 0.76696 0.0
C929 C 0.16814 0.71309 0.79216 0.0
C930 C 0.15153 0.71359 0.75024 0.0
C931 C 0.12681 0.71287 0.75835 0.0
C932 C 0.1229 0.71175 0.78358 0.0
C933 C 0.14337 0.71201 0.8003 0.0
C934 C 0.06203 0.69961 0.72676 0.0
C935 C 0.06442 0.71743 0.70666 0.0
C936 C 0.08222 0.69811 0.74358 0.0
C937 C 0.10534 0.71416 0.7405 0.0
C938 C 0.1078 0.7318 0.72032 0.0
C939 C 0.08758 0.73349 0.70368 0.0
H940 H 0.98556 0.56959 0.56469 0.0
H941 H 0.02199 0.61653 0.5053 0.0
H942 H 0.99329 0.60514 0.59054 0.0
H943 H 0.03036 0.65193 0.53191 0.0
H944 H 0.05919 0.6893 0.6124 0.0
H945 H 0.05533 0.6544 0.58504 0.0
H946 H 0.97523 0.65679 0.57586 0.0
H947 H 0.97927 0.69227 0.60229 0.0
C948 C 0.99521 0.58744 0.55711 0.0
C949 C 1.00281 0.59021 0.53272 0.0
C950 C 0.99969 0.60773 0.57204 0.0
C951 C 0.01216 0.63118 0.56313 0.0
C952 C 0.02073 0.63391 0.53915 0.0
C953 C 0.01603 0.61361 0.52402 0.0
C954 C 0.0408 0.6823 0.6045 0.0
C955 C 0.0193 0.69266 0.6102 0.0
C956 C 0.03864 0.66249 0.58886 0.0
C957 C 0.01497 0.65292 0.57862 0.0
C958 C 0.99363 0.66377 0.58375 0.0
C959 C 0.99587 0.68378 0.59907 0.0
H960 H 0.73799 0.88155 0.2654 0.0
H961 H 0.76143 0.87439 0.19198 0.0
H962 H 0.76756 0.91942 0.26813 0.0
H963 H 0.79412 0.91043 0.19636 0.0
H964 H 0.84228 0.98662 0.20351 0.0
H965 H 0.80641 0.95317 0.19761 0.0
H966 H 0.80821 0.93323 0.27538 0.0
H967 H 0.84215 0.96758 0.28096 0.0
C968 C 0.7493 0.88793 0.24966 0.0
C969 C 0.7467 0.87461 0.22828 0.0
C970 C 0.76704 0.90957 0.25156 0.0
C971 C 0.78381 0.91812 0.23266 0.0
C972 C 0.78142 0.90484 0.21126 0.0
C973 C 0.76289 0.88364 0.20896 0.0
C974 C 0.83462 0.97507 0.2192 0.0
C975 C 0.84546 0.97885 0.24255 0.0
C976 C 0.81425 0.95574 0.21588 0.0
C977 C 0.80433 0.93998 0.23593 0.0
C978 C 0.8147 0.9449 0.25939 0.0
C979 C 0.83465 0.96435 0.26264 0.0
H980 H 0.79217 0.18577 0.26545 0.0
H981 H 0.78561 0.16339 0.34212 0.0
H982 H 0.81868 0.15328 0.26085 0.0
H983 H 0.81239 0.13078 0.33764 0.0
H984 H 0.83788 0.05785 0.31014 0.0
H985 H 0.81219 0.09035 0.31789 0.0
H986 H 0.86127 0.14479 0.27336 0.0
H987 H 0.88672 0.11241 0.26545 0.0
C988 C 0.79628 0.17374 0.28129 0.0
C989 C 0.78652 0.17682 0.30406 0.0
C990 C 0.81166 0.15527 0.27873 0.0
C991 C 0.81776 0.13948 0.29891 0.0
C992 C 0.80786 0.14246 0.3217 0.0
C993 C 0.79255 0.16109 0.32428 0.0
C994 C 0.84337 0.07684 0.30228 0.0
C995 C 0.86428 0.08249 0.28706 0.0
C996 C 0.82866 0.09548 0.30675 0.0
C997 C 0.83448 0.1201 0.29598 0.0
C998 C 0.85597 0.12591 0.28155 0.0
C999 C 0.87069 0.10736 0.27717 0.0
H1000 H 0.44881 0.99202 1.00575 0.0
H1001 H 0.41442 0.05997 0.99741 0.0
H1002 H 0.40683 0.96662 1.00626 0.0
H1003 H 0.37238 0.03455 0.99799 0.0
H1004 H 0.30823 0.97659 0.96345 0.0
H1005 H 0.34827 1.00435 0.96877 0.0
H1006 H 0.36731 0.95757 0.03181 0.0
H1007 H 0.32709 0.92971 0.02661 0.0
C1008 C 0.43225 1.0015 1.00413 0.0
C1009 C 0.43487 0.02796 1.00144 0.0
C1010 C 0.40825 0.98699 1.00466 0.0
C1011 C 0.38634 0.99861 1.00219 0.0
C1012 C 0.38894 0.02509 0.99984 0.0
C1013 C 0.41297 0.03962 0.99964 0.0
C1014 C 0.32077 0.97238 0.97867 0.0
C1015 C 0.31448 0.95087 0.99456 0.0
C1016 C 0.34366 0.98837 0.98176 0.0
C1017 C 0.36096 0.98306 1.00063 0.0
C1018 C 0.35439 0.962 0.01699 0.0
C1019 C 0.33129 0.94617 0.01411 0.0
H1020 H 0.28541 0.37885 0.36122 0.0
H1021 H 0.27815 0.36159 0.28544 0.0
H1022 H 0.25341 0.40689 0.35425 0.0
H1023 H 0.24672 0.38998 0.27835 0.0
H1024 H 0.1746 0.42468 0.27728 0.0
H1025 H 0.20328 0.39404 0.28806 0.0
H1026 H 0.24876 0.44771 0.33276 0.0
H1027 H 0.21994 0.47824 0.32219 0.0
C1028 C 0.27695 0.38098 0.3431 0.0
C1029 C 0.28446 0.36802 0.32387 0.0
C1030 C 0.25874 0.3972 0.33906 0.0
C1031 C 0.2474 0.40069 0.31574 0.0
C1032 C 0.25478 0.38754 0.2966 0.0
C1033 C 0.27308 0.37149 0.3006 0.0
C1034 C 0.19049 0.42982 0.28971 0.0
C1035 C 0.19499 0.45397 0.2988 0.0
C1036 C 0.20708 0.41232 0.29573 0.0
C1037 C 0.22852 0.41847 0.31109 0.0
C1038 C 0.23238 0.44224 0.32102 0.0
C1039 C 0.21586 0.45979 0.31489 0.0
H1040 H 0.14083 0.97882 0.50108 0.0
H1041 H 0.09987 0.03162 0.53202 0.0
H1042 H 0.18091 1.00571 0.51004 0.0
H1043 H 0.13981 0.05826 0.54168 0.0
H1044 H 0.21693 0.09605 0.56715 0.0
H1045 H 0.17984 0.06306 0.56515 0.0
H1046 H 0.2015 0.04629 0.49379 0.0
H1047 H 0.23834 0.07893 0.49609 0.0
C1048 C 0.14055 0.99615 0.50997 0.0
C1049 C 0.11748 1.00345 0.51565 0.0
C1050 C 0.1634 0.01155 0.51507 0.0
C1051 C 0.16359 0.03436 0.52628 0.0
C1052 C 0.1404 0.04095 0.53293 0.0
C1053 C 0.11753 0.02581 0.52736 0.0
C1054 C 0.21374 0.08501 0.55125 0.0
C1055 C 0.22984 0.09038 0.53144 0.0
C1056 C 0.19255 0.06624 0.55002 0.0
C1057 C 0.18754 0.05217 0.5292 0.0
C1058 C 0.20481 0.05656 0.51017 0.0
C1059 C 0.22574 0.07545 0.51132 0.0
H1060 H 0.83164 0.13174 0.73835 0.0
H1061 H 0.7766 0.17551 0.70398 0.0
H1062 H 0.79811 0.09617 0.74523 0.0
H1063 H 0.74402 0.13893 0.70873 0.0
H1064 H 0.69941 0.05533 0.70775 0.0
H1065 H 0.73461 0.08884 0.69655 0.0
H1066 H 0.75594 0.0949 0.77276 0.0
H1067 H 0.72054 0.06219 0.78384 0.0
C1068 C 0.81259 0.13393 0.73213 0.0
C1069 C 0.80704 0.15697 0.72094 0.0
C1070 C 0.79348 0.11335 0.73581 0.0
C1071 C 0.76856 0.11499 0.72764 0.0
C1072 C 0.76313 0.13729 0.71522 0.0
C1073 C 0.78201 0.15819 0.71229 0.0
C1074 C 0.71168 0.06397 0.72197 0.0
C1075 C 0.70709 0.05684 0.74661 0.0
C1076 C 0.73171 0.08298 0.71562 0.0
C1077 C 0.74791 0.09427 0.73384 0.0
C1078 C 0.7438 0.08634 0.75841 0.0
C1079 C 0.7235 0.06785 0.76473 0.0
H1080 H 0.45381 0.03899 0.51984 0.0
H1081 H 0.43659 0.03664 0.59622 0.0
H1082 H 0.42114 0.06562 0.51001 0.0
H1083 H 0.40439 0.06362 0.58638 0.0
H1084 H 0.36407 0.13084 0.56338 0.0
H1085 H 0.3992 0.10686 0.57147 0.0
H1086 H 0.3746 0.06272 0.50982 0.0
H1087 H 0.33955 0.08681 0.50163 0.0
C1088 C 0.44305 0.04402 0.53456 0.0
C1089 C 0.448 0.03554 0.55887 0.0
C1090 C 0.42432 0.05939 0.5289 0.0
C1091 C 0.41012 0.06687 0.54739 0.0
C1092 C 0.41522 0.05861 0.5717 0.0
C1093 C 0.4338 0.04312 0.57734 0.0
C1094 C 0.3663 0.11622 0.55137 0.0
C1095 C 0.34893 0.11075 0.53186 0.0
C1096 C 0.38635 0.10232 0.55613 0.0
C1097 C 0.38968 0.0827 0.54142 0.0
C1098 C 0.37276 0.0778 0.52143 0.0
C1099 C 0.3526 0.09157 0.51677 0.0
H1100 H 0.59151 0.50278 0.48096 0.0
H1101 H 0.61786 0.50345 0.55617 0.0
H1102 H 0.62633 0.48092 0.47112 0.0
H1103 H 0.65326 0.48234 0.54633 0.0
H1104 H 0.69393 0.41807 0.52687 0.0
H1105 H 0.66067 0.44186 0.53594 0.0
H1106 H 0.67129 0.4848 0.46673 0.0
H1107 H 0.70426 0.46039 0.45727 0.0
C1108 C 0.60507 0.49865 0.49529 0.0
C1109 C 0.60224 0.50518 0.51925 0.0
C1110 C 0.6251 0.48621 0.48965 0.0
C1111 C 0.64271 0.47985 0.50789 0.0
C1112 C 0.63993 0.48663 0.53185 0.0
C1113 C 0.61982 0.49897 0.53748 0.0
C1114 C 0.68927 0.43259 0.51352 0.0
C1115 C 0.70189 0.43725 0.4913 0.0
C1116 C 0.67025 0.44641 0.51884 0.0
C1117 C 0.66331 0.46542 0.50217 0.0
C1118 C 0.67592 0.47014 0.47992 0.0
C1119 C 0.69494 0.4562 0.47454 0.0
H1120 H 0.6963 0.28053 0.34269 0.0
H1121 H 0.73476 0.22941 0.38976 0.0
H1122 H 0.70004 0.3099 0.37496 0.0
H1123 H 0.74001 0.25989 0.42113 0.0
H1124 H 0.7725 0.33988 0.45056 0.0
H1125 H 0.76525 0.30832 0.41996 0.0
H1126 H 0.68468 0.30812 0.42301 0.0
H1127 H 0.692 0.33934 0.45433 0.0
C1128 C 0.70531 0.2753 0.35988 0.0
C1129 C 0.71519 0.25235 0.36341 0.0
C1130 C 0.7076 0.29232 0.37828 0.0
C1131 C 0.72038 0.28713 0.4004 0.0
C1132 C 0.73022 0.26435 0.4041 0.0
C1133 C 0.72739 0.24702 0.38597 0.0
C1134 C 0.75326 0.3331 0.44461 0.0
C1135 C 0.73279 0.34234 0.45424 0.0
C1136 C 0.74912 0.31498 0.4273 0.0
C1137 C 0.72443 0.30591 0.41917 0.0
C1138 C 0.70389 0.31498 0.42896 0.0
C1139 C 0.70803 0.33274 0.44677 0.0
H1140 H 0.50665 0.04601 0.89498 0.0
H1141 H 0.56394 0.03866 0.95146 0.0
H1142 H 0.53262 0.03041 0.86574 0.0
H1143 H 0.58978 0.02211 0.92242 0.0
H1144 H 0.64145 0.03756 0.85525 0.0
H1145 H 0.61436 0.04044 0.88903 0.0
H1146 H 0.55192 0.99702 0.85112 0.0
H1147 H 0.57932 0.99504 0.8167 0.0
C1148 C 0.52452 0.04031 0.90129 0.0
C1149 C 0.5331 0.04323 0.92558 0.0
C1150 C 0.53939 0.0312 0.88455 0.0
C1151 C 0.56338 0.02492 0.89162 0.0
C1152 C 0.57154 0.02698 0.91622 0.0
C1153 C 0.55667 0.03624 0.93295 0.0
C1154 C 0.62208 0.02823 0.85435 0.0
C1155 C 0.61241 0.01623 0.83337 0.0
C1156 C 0.60651 0.02967 0.87385 0.0
C1157 C 0.58078 0.01919 0.87282 0.0
C1158 C 0.57154 1.00565 0.8524 0.0
C1159 C 0.58725 1.0042 0.83282 0.0
H1160 H 0.27747 0.28829 0.3694 0.0
H1161 H 0.35866 0.29963 0.38111 0.0
H1162 H 0.27351 0.25424 0.40118 0.0
H1163 H 0.35464 0.26491 0.41287 0.0
H1164 H 0.32443 0.21665 0.4866 0.0
H1165 H 0.33538 0.25164 0.45565 0.0
H1166 H 0.28579 0.21109 0.4031 0.0
H1167 H 0.27483 0.17679 0.43359 0.0
C1168 C 0.29448 0.28375 0.37897 0.0
C1169 C 0.31837 0.29671 0.37266 0.0
C1170 C 0.29223 0.26401 0.39701 0.0
C1171 C 0.3138 0.25666 0.40931 0.0
C1172 C 0.3377 0.27013 0.40369 0.0
C1173 C 0.33998 0.28986 0.38541 0.0
C1174 C 0.31651 0.21501 0.46823 0.0
C1175 C 0.29858 0.1941 0.4626 0.0
C1176 C 0.32265 0.23505 0.45057 0.0
C1177 C 0.31091 0.23435 0.42714 0.0
C1178 C 0.29462 0.2125 0.42115 0.0
C1179 C 0.2885 0.19273 0.43862 0.0
H1180 H 0.55053 0.51422 0.91434 0.0
H1181 H 0.47971 0.51795 0.9479 0.0
H1182 H 0.53017 0.51892 0.87389 0.0
H1183 H 0.45928 0.52261 0.90754 0.0
H1184 H 0.43418 0.54929 0.83124 0.0
H1185 H 0.45863 0.55162 0.86994 0.0
H1186 H 0.49806 0.49195 0.84983 0.0
H1187 H 0.47392 0.4897 0.81139 0.0
C1188 C 0.53057 0.5159 0.91301 0.0
C1189 C 0.51651 0.51499 0.9342 0.0
C1190 C 0.51894 0.51866 0.88991 0.0
C1191 C 0.49308 0.52103 0.88751 0.0
C1192 C 0.47926 0.52103 0.90876 0.0
C1193 C 0.49087 0.51808 0.93185 0.0
C1194 C 0.44845 0.53706 0.8349 0.0
C1195 C 0.45202 0.51924 0.81829 0.0
C1196 C 0.46227 0.53823 0.85714 0.0
C1197 C 0.48016 0.52184 0.86302 0.0
C1198 C 0.48458 0.50496 0.84583 0.0
C1199 C 0.47062 0.5036 0.82382 0.0
H1200 H 0.716 0.74076 0.18332 0.0
H1201 H 0.72456 0.80296 0.12884 0.0
H1202 H 0.73169 0.71391 0.1547 0.0
H1203 H 0.74016 0.77636 0.10039 0.0
H1204 H 0.72607 0.71208 0.04826 0.0
H1205 H 0.71739 0.73965 0.07902 0.0
H1206 H 0.76985 0.70783 0.12944 0.0
H1207 H 0.77877 0.67987 0.09832 0.0
C1208 C 0.72177 0.74879 0.16543 0.0
C1209 C 0.71915 0.77394 0.15833 0.0
C1210 C 0.73077 0.73348 0.14908 0.0
C1211 C 0.73697 0.74297 0.12522 0.0
C1212 C 0.73526 0.76841 0.11854 0.0
C1213 C 0.72646 0.7837 0.13487 0.0
C1214 C 0.73589 0.71087 0.06584 0.0
C1215 C 0.75315 0.69367 0.07076 0.0
C1216 C 0.73101 0.72688 0.08345 0.0
C1217 C 0.74305 0.72607 0.10662 0.0
C1218 C 0.76026 0.70884 0.11174 0.0
C1219 C 0.76545 0.69294 0.09389 0.0
H1220 H 0.02937 0.0896 0.11285 0.0
H1221 H 0.01281 0.01221 0.09354 0.0
H1222 H 1.00584 0.07876 0.15011 0.0
H1223 H 0.98869 1.00134 0.13056 0.0
H1224 H 0.96524 0.98529 0.20947 0.0
H1225 H 0.99149 0.99614 0.17396 0.0
H1226 H 0.96373 0.06773 0.16334 0.0
H1227 H 0.93819 0.05728 0.19925 0.0
C1228 C 0.02053 0.07027 0.11652 0.0
C1229 C 0.02285 0.05178 0.1002 0.0
C1230 C 1.00695 0.06405 0.13786 0.0
C1231 C 0.99515 0.03918 0.14337 0.0
C1232 C 0.99779 0.02061 0.12716 0.0
C1233 C 0.01156 0.02682 0.10588 0.0
C1234 C 0.96484 1.00343 0.19966 0.0
C1235 C 0.94958 0.02042 0.20734 0.0
C1236 C 0.97979 0.00958 0.17914 0.0
C1237 C 0.97977 0.03281 0.16566 0.0
C1238 C 0.96462 0.04984 0.17345 0.0
C1239 C 0.94981 0.04378 0.19405 0.0
H1240 H 0.28649 0.76089 0.16279 0.0
H1241 H 0.3642 0.78529 0.14367 0.0
H1242 H 0.27225 0.78495 0.12686 0.0
H1243 H 0.35003 0.80958 0.1076 0.0
H1244 H 0.31078 0.83334 0.03417 0.0
H1245 H 0.32587 0.80604 0.06738 0.0
H1246 H 0.27481 0.83096 0.1163 0.0
H1247 H 0.25972 0.85803 0.0833 0.0
C1248 C 0.30049 0.77122 0.1507 0.0
C1249 C 0.32643 0.77156 0.15606 0.0
C1250 C 0.29238 0.7851 0.13024 0.0
C1251 C 0.31004 0.79946 0.11462 0.0
C1252 C 0.33598 0.79868 0.11928 0.0
C1253 C 0.3441 0.78486 0.13987 0.0
C1254 C 0.30288 0.83303 0.05205 0.0
C1255 C 0.28403 0.84781 0.0561 0.0
C1256 C 0.31155 0.81745 0.07105 0.0
C1257 C 0.30135 0.81617 0.09437 0.0
C1258 C 0.28272 0.83119 0.09842 0.0
C1259 C 0.27423 0.84687 0.07954 0.0
H1260 H 0.05468 0.49723 0.08976 0.0
H1261 H 0.99206 0.51507 0.12933 0.0
H1262 H 0.08132 0.5004 0.1268 0.0
H1263 H 0.01902 0.51888 0.16617 0.0
H1264 H 0.08506 0.55429 0.21611 0.0
H1265 H 0.05666 0.54787 0.18062 0.0
H1266 H 0.08588 0.47921 0.16862 0.0
H1267 H 0.1145 0.4856 0.20427 0.0
C1268 C 0.04646 0.50159 0.10636 0.0
C1269 C 0.02112 0.50594 0.10639 0.0
C1270 C 0.0618 0.50343 0.12762 0.0
C1271 C 0.05232 0.50991 0.14944 0.0
C1272 C 0.027 0.51415 0.14957 0.0
C1273 C 0.01157 0.51208 0.12838 0.0
C1274 C 0.08539 0.53771 0.20605 0.0
C1275 C 0.10217 0.52048 0.21311 0.0
C1276 C 0.06897 0.53397 0.18574 0.0
C1277 C 0.06901 0.51306 0.17175 0.0
C1278 C 0.08555 0.49564 0.17891 0.0
C1279 C 0.10182 0.49922 0.19944 0.0
H1280 H 0.39016 0.7557 0.24612 0.0
H1281 H 0.38486 0.6765 0.26933 0.0
H1282 H 0.42145 0.76586 0.27781 0.0
H1283 H 0.41356 0.68717 0.30347 0.0
H1284 H 0.48336 0.71046 0.35139 0.0
H1285 H 0.45381 0.69886 0.31759 0.0
H1286 H 0.42862 0.77187 0.31725 0.0
H1287 H 0.46008 0.78394 0.34882 0.0
C1288 C 0.39554 0.7403 0.25791 0.0
C1289 C 0.38483 0.71513 0.25466 0.0
C1290 C 0.4132 0.74629 0.27678 0.0
C1291 C 0.42009 0.72748 0.29377 0.0
C1292 C 0.40921 0.7023 0.29072 0.0
C1293 C 0.39217 0.69618 0.27127 0.0
C1294 C 0.47137 0.72386 0.34393 0.0
C1295 C 0.47312 0.74767 0.35332 0.0
C1296 C 0.45421 0.7172 0.32469 0.0
C1297 C 0.43839 0.73425 0.31448 0.0
C1298 C 0.44057 0.75821 0.32399 0.0
C1299 C 0.45818 0.765 0.34266 0.0
H1300 H 0.01883 0.46323 0.96392 0.0
H1301 H 0.01059 0.42162 0.03385 0.0
H1302 H 0.02199 0.42427 0.94445 0.0
H1303 H 0.01378 0.38258 0.01445 0.0
H1304 H 0.98522 0.31718 0.96448 0.0
H1305 H 0.98732 0.3554 0.98613 0.0
H1306 H 0.04943 0.39091 0.94201 0.0
H1307 H 0.04724 0.35238 0.92003 0.0
C1308 C 0.01753 0.44568 0.97509 0.0
C1309 C 0.01364 0.44533 1.00027 0.0
C1310 C 0.01965 0.42342 0.96399 0.0
C1311 C 0.01802 0.40026 0.97785 0.0
C1312 C 0.01473 0.40003 1.00318 0.0
C1313 C 0.01281 0.42234 0.01429 0.0
C1314 C 0.99957 0.333 0.95951 0.0
C1315 C 0.01601 0.3317 0.9404 0.0
C1316 C 1.00084 0.35491 0.97207 0.0
C1317 C 0.01845 0.37629 0.96576 0.0
C1318 C 0.03546 0.37483 0.94715 0.0
C1319 C 0.03438 0.35269 0.9347 0.0
H1320 H 0.67341 0.78473 0.27248 0.0
H1321 H 0.65553 0.85851 0.24887 0.0
H1322 H 0.64166 0.78082 0.30378 0.0
H1323 H 0.62419 0.85489 0.28061 0.0
H1324 H 0.55231 0.82492 0.32599 0.0
H1325 H 0.58306 0.83137 0.29353 0.0
H1326 H 0.63751 0.8003 0.34227 0.0
H1327 H 0.60684 0.79364 0.37452 0.0
C1328 C 0.66247 0.79997 0.27377 0.0
C1329 C 0.66708 0.82196 0.25825 0.0
C1330 C 0.64453 0.7979 0.29193 0.0
C1331 C 0.63066 0.81772 0.29495 0.0
C1332 C 0.63454 0.83929 0.27879 0.0
C1333 C 0.65259 0.84142 0.2607 0.0
C1334 C 0.57101 0.81993 0.32991 0.0
C1335 C 0.57707 0.80866 0.35283 0.0
C1336 C 0.58862 0.82357 0.31128 0.0
C1337 C 0.61258 0.81591 0.31517 0.0
C1338 C 0.61901 0.80584 0.33848 0.0
C1339 C 0.6015 0.80229 0.35707 0.0
H1340 H 0.99962 0.10051 0.02576 0.0
H1341 H 0.0799 0.12613 0.02213 0.0
H1342 H 0.99119 0.13744 1.00024 0.0
H1343 H 0.07165 0.16369 0.99746 0.0
H1344 H 0.04996 0.21316 0.93187 0.0
H1345 H 0.05851 0.17732 0.95848 0.0
H1346 H 0.99118 0.18116 0.9983 0.0
H1347 H 0.982 0.21645 0.97078 0.0
C1348 C 0.01546 0.11427 0.01972 0.0
C1349 C 0.04041 0.11043 0.02586 0.0
C1350 C 0.01065 0.13556 1.00519 0.0
C1351 C 0.0307 0.15374 0.99669 0.0
C1352 C 0.05569 0.14995 1.00318 0.0
C1353 C 0.06048 0.12846 0.01742 0.0
C1354 C 0.03702 0.2065 0.94639 0.0
C1355 C 0.01527 0.21775 0.94915 0.0
C1356 C 0.04202 0.18593 0.96181 0.0
C1357 C 0.0256 0.17618 0.98069 0.0
C1358 C 1.00406 0.18777 0.98373 0.0
C1359 C 0.99887 0.20818 0.96806 0.0
H1360 H 0.37231 0.3381 0.23293 0.0
H1361 H 0.38136 0.28487 0.29387 0.0
H1362 H 0.40711 0.32417 0.21256 0.0
H1363 H 0.41659 0.27114 0.27382 0.0
H1364 H 0.44917 0.2291 0.2149 0.0
H1365 H 0.41993 0.24686 0.23891 0.0
H1366 H 0.45239 0.32195 0.21273 0.0
H1367 H 0.48162 0.30411 0.18817 0.0
C1368 C 0.38207 0.32368 0.24211 0.0
C1369 C 0.37401 0.31229 0.26481 0.0
C1370 C 0.40211 0.31578 0.23053 0.0
C1371 C 0.41453 0.29634 0.24142 0.0
C1372 C 0.40716 0.28583 0.2647 0.0
C1373 C 0.38713 0.29376 0.27627 0.0
C1374 C 0.45031 0.24943 0.21431 0.0
C1375 C 0.46779 0.26513 0.19942 0.0
C1376 C 0.43359 0.25964 0.2283 0.0
C1377 C 0.43378 0.28586 0.22783 0.0
C1378 C 0.45157 0.30165 0.21335 0.0
C1379 C 0.46843 0.29142 0.19936 0.0
H1380 H 0.55912 0.45533 0.06727 0.0
H1381 H 0.53889 0.41269 1.0038 0.0
H1382 H 0.54689 0.41745 0.09367 0.0
H1383 H 0.52703 0.37463 0.03016 0.0
H1384 H 0.49325 0.31238 0.08502 0.0
H1385 H 0.4984 0.35225 0.06007 0.0
H1386 H 0.56418 0.37953 0.10429 0.0
H1387 H 0.55867 0.34024 0.12937 0.0
C1388 C 0.55199 0.43785 0.05897 0.0
C1389 C 0.55019 0.43696 0.03345 0.0
C1390 C 0.54502 0.4161 0.07409 0.0
C1391 C 0.53624 0.39285 0.06408 0.0
C1392 C 0.53346 0.39221 0.03854 0.0
C1393 C 0.5403 0.41403 0.0234 0.0
C1394 C 0.50862 0.32704 0.08953 0.0
C1395 C 0.52556 0.32311 0.10916 0.0
C1396 C 0.51167 0.34983 0.07515 0.0
C1397 C 0.53171 0.36917 0.08013 0.0
C1398 C 0.54828 0.36531 0.10011 0.0
C1399 C 0.54522 0.34263 0.11443 0.0
H1400 H 0.69266 0.21872 0.25767 0.0
H1401 H 0.64039 0.21218 0.31648 0.0
H1402 H 0.65745 0.21963 0.22797 0.0
H1403 H 0.60522 0.21344 0.2868 0.0
H1404 H 0.54641 0.19235 0.22513 0.0
H1405 H 0.58153 0.18823 0.25424 0.0
H1406 H 0.62759 0.24991 0.21521 0.0
H1407 H 0.59268 0.25408 0.18608 0.0
C1408 C 0.67362 0.21723 0.26424 0.0
C1409 C 0.6693 0.21544 0.28941 0.0
C1410 C 0.65349 0.21798 0.24725 0.0
C1411 C 0.62857 0.21671 0.25504 0.0
C1412 C 0.62418 0.21429 0.28021 0.0
C1413 C 0.64433 0.21378 0.29721 0.0
C1414 C 0.56403 0.20502 0.22269 0.0
C1415 C 0.56663 0.22361 0.20325 0.0
C1416 C 0.58411 0.2027 0.23946 0.0
C1417 C 0.60734 0.21873 0.23701 0.0
C1418 C 0.61003 0.2371 0.21744 0.0
C1419 C 0.58992 0.23958 0.20084 0.0
H1420 H 0.46909 0.12174 0.008 0.0
H1421 H 0.5266 0.08683 0.04861 0.0
H1422 H 0.47834 0.15848 0.03232 0.0
H1423 H 0.53491 0.12269 0.0743 0.0
H1424 H 0.55822 0.19797 0.10669 0.0
H1425 H 0.55208 0.16459 0.07798 0.0
H1426 H 0.4728 0.17276 0.06969 0.0
H1427 H 0.47964 0.20689 0.09718 0.0
C1428 C 0.48366 0.12199 0.02231 0.0
C1429 C 0.4972 0.10162 0.02646 0.0
C1430 C 0.48886 0.14293 0.03646 0.0
C1431 C 0.50734 0.14373 0.05555 0.0
C1432 C 0.52093 0.12318 0.05954 0.0
C1433 C 0.51609 0.10249 0.04497 0.0
C1434 C 0.53957 0.19253 0.09856 0.0
C1435 C 0.51913 0.20411 0.10485 0.0
C1436 C 0.53593 0.17328 0.08224 0.0
C1437 C 0.5118 0.16543 0.07167 0.0
C1438 C 0.49172 0.17818 0.07716 0.0
C1439 C 0.49546 0.19747 0.09331 0.0
H1440 H 0.24484 0.38911 0.68536 0.0
H1441 H 0.26304 0.3586 0.75737 0.0
H1442 H 0.27706 0.42589 0.69079 0.0
H1443 H 0.29609 0.39415 0.76257 0.0
H1444 H 0.33876 0.46922 0.77725 0.0
H1445 H 0.3044 0.43523 0.77031 0.0
H1446 H 0.31884 0.44334 0.69292 0.0
H1447 H 0.35192 0.47899 0.70012 0.0
C1448 C 0.25611 0.3902 0.7022 0.0
C1449 C 0.25151 0.37126 0.72102 0.0
C1450 C 0.27469 0.41118 0.70533 0.0
C1451 C 0.28936 0.41336 0.72722 0.0
C1452 C 0.28498 0.39377 0.74568 0.0
C1453 C 0.26615 0.37316 0.7427 0.0
C1454 C 0.3344 0.46369 0.75877 0.0
C1455 C 0.34828 0.47607 0.73927 0.0
C1456 C 0.31483 0.44401 0.75472 0.0
C1457 C 0.30899 0.43583 0.73105 0.0
C1458 C 0.32247 0.44904 0.71139 0.0
C1459 C 0.34162 0.46931 0.71544 0.0
H1460 H 0.28683 0.663 0.84152 0.0
H1461 H 0.28844 0.68465 0.76445 0.0
H1462 H 0.31291 0.63021 0.8354 0.0
H1463 H 0.31427 0.65197 0.75823 0.0
H1464 H 0.3829 0.61149 0.75966 0.0
H1465 H 0.35753 0.6437 0.76833 0.0
H1466 H 0.31121 0.58957 0.81563 0.0
H1467 H 0.33682 0.55725 0.8071 0.0
C1468 C 0.29252 0.66049 0.82325 0.0
C1469 C 0.28534 0.6761 0.80341 0.0
C1470 C 0.30742 0.64176 0.81973 0.0
C1471 C 0.31574 0.63852 0.79634 0.0
C1472 C 0.30845 0.65415 0.77653 0.0
C1473 C 0.29348 0.67274 0.78003 0.0
C1474 C 0.36745 0.60646 0.77209 0.0
C1475 C 0.36184 0.58175 0.78262 0.0
C1476 C 0.35278 0.6249 0.77691 0.0
C1477 C 0.33216 0.61915 0.79246 0.0
C1478 C 0.32703 0.59465 0.80365 0.0
C1479 C 0.34167 0.57612 0.79872 0.0
H1480 H 0.95198 0.48258 0.50588 0.0
H1481 H 0.91976 0.5518 0.50252 0.0
H1482 H 0.90935 0.45829 0.50612 0.0
H1483 H 0.87719 0.52754 0.50268 0.0
H1484 H 0.81104 0.47302 0.46623 0.0
H1485 H 0.85205 0.49918 0.47172 0.0
H1486 H 0.86994 0.44975 0.53315 0.0
H1487 H 0.82869 0.42358 0.52787 0.0
C1488 C 0.93578 0.49255 0.5053 0.0
C1489 C 0.93915 0.51904 0.50416 0.0
C1490 C 0.91143 0.47868 0.50564 0.0
C1491 C 0.88999 0.49106 0.50446 0.0
C1492 C 0.89338 0.51754 0.50355 0.0
C1493 C 0.91772 0.53139 0.50358 0.0
C1494 C 0.82353 0.46793 0.48115 0.0
C1495 C 0.81661 0.44621 0.4966 0.0
C1496 C 0.84698 0.48296 0.48433 0.0
C1497 C 0.86421 0.4764 0.50277 0.0
C1498 C 0.85706 0.45511 0.51868 0.0
C1499 C 0.83338 0.44028 0.51577 0.0
H1500 H 0.81315 0.89796 0.81411 0.0
H1501 H 0.75316 0.8379 0.8346 0.0
H1502 H 0.78229 0.92712 0.80738 0.0
H1503 H 0.72231 0.8672 0.82829 0.0
H1504 H 0.67404 0.92158 0.78368 0.0
H1505 H 0.70325 0.8912 0.79389 0.0
H1506 H 0.75382 0.94819 0.83045 0.0
H1507 H 0.72482 0.97851 0.82017 0.0
C1508 C 0.79338 0.89099 0.81722 0.0
C1509 C 0.78565 0.8656 0.8249 0.0
C1510 C 0.77571 0.90776 0.81359 0.0
C1511 C 0.74981 0.89952 0.81735 0.0
C1512 C 0.74207 0.87413 0.82508 0.0
C1513 C 0.75979 0.8574 0.82892 0.0
C1514 C 0.69122 0.92751 0.79419 0.0
C1515 C 0.69711 0.95251 0.80102 0.0
C1516 C 0.70795 0.91009 0.80008 0.0
C1517 C 0.73101 0.91734 0.81278 0.0
C1518 C 0.73644 0.9421 0.8203 0.0
C1519 C 0.71968 0.95943 0.81456 0.0
H1520 H 0.60609 0.52731 0.04197 0.0
H1521 H 0.63877 0.49165 0.98568 0.0
H1522 H 0.64695 0.55255 0.0504 0.0
H1523 H 0.68021 0.51557 0.99484 0.0
H1524 H 0.72437 0.58964 0.06994 0.0
H1525 H 0.68783 0.55664 0.0659 0.0
H1526 H 0.70297 0.55461 0.98926 0.0
H1527 H 0.73993 0.58633 0.99403 0.0
C1528 C 0.62227 0.52471 0.03167 0.0
C1529 C 0.61945 0.50786 0.01307 0.0
C1530 C 0.64582 0.53894 0.03662 0.0
C1531 C 0.66718 0.53635 0.02328 0.0
C1532 C 0.66426 0.51869 1.00516 0.0
C1533 C 0.64059 0.50481 0.99995 0.0
C1534 C 0.71987 0.58176 0.0524 0.0
C1535 C 0.73406 0.59118 0.032 0.0
C1536 C 0.69884 0.56301 0.04994 0.0
C1537 C 0.69176 0.55326 0.02705 0.0
C1538 C 0.70754 0.56138 1.00723 0.0
C1539 C 0.72856 0.57996 0.00978 0.0
H1540 H 0.33188 0.63656 0.24246 0.0
H1541 H 0.27844 0.67652 0.20031 0.0
H1542 H 0.29867 0.60068 0.24925 0.0
H1543 H 0.24624 0.63964 0.20544 0.0
H1544 H 0.20374 0.55579 0.20534 0.0
H1545 H 0.23902 0.58969 0.19559 0.0
H1546 H 0.25465 0.59795 0.27254 0.0
H1547 H 0.21917 0.56477 0.28213 0.0
C1548 C 0.3132 0.63785 0.2346 0.0
C1549 C 0.30801 0.65984 0.22105 0.0
C1550 C 0.29428 0.61709 0.23828 0.0
C1551 C 0.26995 0.61749 0.22789 0.0
C1552 C 0.26489 0.63887 0.21356 0.0
C1553 C 0.28355 0.65996 0.21048 0.0
C1554 C 0.21483 0.56493 0.22004 0.0
C1555 C 0.20854 0.55831 0.24441 0.0
C1556 C 0.23489 0.58421 0.21451 0.0
C1557 C 0.24944 0.59634 0.23335 0.0
C1558 C 0.24378 0.58879 0.25772 0.0
C1559 C 0.22344 0.57001 0.26318 0.0
H1560 H 0.94114 0.53531 0.09007 0.0
H1561 H 0.95608 0.54091 0.01302 0.0
H1562 H 0.9088 0.56253 0.08254 0.0
H1563 H 0.92331 0.56791 1.00549 0.0
H1564 H 0.84206 0.59026 1.00089 0.0
H1565 H 0.87704 0.56572 1.00654 0.0
H1566 H 0.90355 0.60608 0.07013 0.0
H1567 H 0.86847 0.63043 0.06462 0.0
C1568 C 0.9378 0.54256 0.07153 0.0
C1569 C 0.95144 0.53587 0.05219 0.0
C1570 C 0.91915 0.5582 0.06721 0.0
C1571 C 0.91344 0.56754 0.0434 0.0
C1572 C 0.927 0.56086 0.02402 0.0
C1573 C 0.94579 0.5453 0.02836 0.0
C1574 C 0.85551 0.5941 0.01592 0.0
C1575 C 0.85237 0.61229 0.03233 0.0
C1576 C 0.87564 0.58006 0.01912 0.0
C1577 C 0.89306 0.58374 0.03891 0.0
C1578 C 0.89029 0.60245 0.05491 0.0
C1579 C 0.87026 0.61657 0.05163 0.0
H1580 H 0.08649 0.97104 0.04316 0.0
H1581 H 0.11699 0.03487 0.99593 0.0
H1582 H 0.12143 0.94908 0.03387 0.0
H1583 H 0.15249 0.01329 0.98698 0.0
H1584 H 0.19534 0.95538 0.95523 0.0
H1585 H 0.16142 0.9783 0.96515 0.0
H1586 H 0.16598 0.94928 0.04025 0.0
H1587 H 0.19939 0.92593 0.03029 0.0
C1588 C 0.10084 0.98041 0.03091 0.0
C1589 C 0.09895 1.0045 0.02002 0.0
C1590 C 0.12096 0.96792 0.02567 0.0
C1591 C 0.1398 0.97933 0.00956 0.0
C1592 C 0.13813 1.00373 0.99912 0.0
C1593 C 0.11795 0.01619 1.00434 0.0
C1594 C 0.18915 0.9539 0.97388 0.0
C1595 C 0.20013 0.93867 0.99191 0.0
C1596 C 0.16977 0.96719 0.97961 0.0
C1597 C 0.16087 0.96566 1.00352 0.0
C1598 C 0.17202 0.95062 0.02157 0.0
C1599 C 0.19132 0.93728 0.01584 0.0
loop_
_geom_bond_atom_site_label_1
_geom_bond_atom_site_label_2
_geom_bond_distance
_geom_bond_site_symmetry_2
_ccdc_geom_bond_type
H0 C7 0.929 1_655 S
H1 C10 0.930 . S
H2 C12 0.929 1_556 S
H3 C4 0.969 . S
C4 H3 0.969 . S
C4 O5 1.550 1_565 S
C4 H6 0.973 . S
O5 C4 1.550 1_545 S
O5 C11 1.412 . S
H6 C4 0.973 . S
C7 H0 0.929 1_455 S
C7 C8 1.400 . S
C7 C9 1.364 . S
C8 C7 1.400 . S
C8 C12 1.377 . S
C9 C7 1.364 . S
C9 C10 1.374 . S
C10 H1 0.930 . S
C10 C9 1.374 . S
C10 C11 1.383 . S
C11 O5 1.412 . S
C11 C10 1.383 . S
C11 C12 1.394 . S
C12 H2 0.929 1_554 S
C12 C8 1.377 . S
C12 C11 1.394 . S
H13 C20 0.929 . S
H14 C23 0.930 . S
H15 C25 0.929 . S
H16 C17 0.969 . S
C17 H16 0.969 . S
C17 O18 1.550 . S
C17 H19 0.973 . S
O18 C17 1.550 . S
O18 C24 1.412 . S
H19 C17 0.973 . S
C20 H13 0.929 . S
C20 C21 1.400 . S
C20 C22 1.364 . S
C21 C20 1.400 . S
C21 C25 1.377 . S
C22 C20 1.364 . S
C22 C23 1.374 . S
C23 H14 0.930 . S
C23 C22 1.374 . S
C23 C24 1.383 . S
C24 O18 1.412 . S
C24 C23 1.383 . S
C24 C25 1.394 . S
C25 H15 0.929 . S
C25 C21 1.377 . S
C25 C24 1.394 . S
H26 C33 0.929 . S
H27 C36 0.930 . S
H28 C38 0.907 1_455 S
H29 C30 0.969 . S
C30 H29 0.969 . S
C30 O31 1.550 . S
C30 H32 0.973 . S
O31 C30 1.550 . S
O31 C37 1.412 . S
H32 C30 0.973 . S
C33 H26 0.929 . S
C33 C34 1.400 . S
C33 C35 1.364 . S
C34 C33 1.400 . S
C34 C38 1.385 . S
C35 C33 1.364 . S
C35 C36 1.374 . S
C36 H27 0.930 . S
C36 C35 1.374 . S
C36 C37 1.383 . S
C37 O31 1.412 . S
C37 C36 1.383 . S
C37 C38 1.409 . S
C38 H28 0.907 1_655 S
C38 C34 1.385 . S
C38 C37 1.409 . S
H39 C46 0.929 . S
H40 C49 0.930 . S
H41 C51 0.929 . S
H42 C43 0.969 . S
C43 H42 0.969 . S
C43 O44 1.550 . S
C43 H45 0.973 . S
O44 C43 1.550 . S
O44 C50 1.412 . S
H45 C43 0.973 . S
C46 H39 0.929 . S
C46 C47 1.400 . S
C46 C48 1.364 . S
C47 C46 1.400 . S
C47 C51 1.377 . S
C48 C46 1.364 . S
C48 C49 1.374 . S
C49 H40 0.930 . S
C49 C48 1.374 . S
C49 C50 1.383 . S
C50 O44 1.412 . S
C50 C49 1.383 . S
C50 C51 1.394 . S
C51 H41 0.929 . S
C51 C47 1.377 . S
C51 C50 1.394 . S
H52 C59 0.929 . S
H53 C62 0.930 . S
H54 C64 0.929 . S
H55 C56 0.969 1_655 S
C56 H55 0.969 1_455 S
C56 O57 1.550 . S
C56 H58 0.973 . S
O57 C56 1.550 . S
O57 C63 1.412 . S
H58 C56 0.973 . S
C59 H52 0.929 . S
C59 C60 1.400 . S
C59 C61 1.364 . S
C60 C59 1.400 . S
C60 C64 1.377 1_565 S
C61 C59 1.364 . S
C61 C62 1.374 . S
C62 H53 0.930 . S
C62 C61 1.374 . S
C62 C63 1.383 . S
C63 O57 1.412 . S
C63 C62 1.383 . S
C63 C64 1.394 1_565 S
C64 H54 0.929 . S
C64 C60 1.377 1_545 S
C64 C63 1.394 1_545 S
H65 C72 0.929 . S
H66 C75 0.930 . S
H67 C77 0.929 . S
H68 C69 0.969 . S
C69 H68 0.969 . S
C69 O70 1.550 . S
C69 H71 0.973 . S
O70 C69 1.550 . S
O70 C76 1.412 . S
H71 C69 0.973 . S
C72 H65 0.929 . S
C72 C73 1.400 . S
C72 C74 1.364 . S
C73 C72 1.400 . S
C73 C77 1.377 . S
C74 C72 1.364 . S
C74 C75 1.374 . S
C75 H66 0.930 . S
C75 C74 1.374 . S
C75 C76 1.383 . S
C76 O70 1.412 . S
C76 C75 1.383 . S
C76 C77 1.394 . S
C77 H67 0.929 . S
C77 C73 1.377 . S
C77 C76 1.394 . S
H78 C85 0.929 . S
H79 C88 0.930 . S
H80 C90 0.929 . S
H81 C82 0.969 . S
C82 H81 0.969 . S
C82 O83 1.550 . S
C82 H84 0.973 . S
O83 C82 1.550 . S
O83 C89 1.412 . S
H84 C82 0.973 . S
C85 H78 0.929 . S
C85 C86 1.400 . S
C85 C87 1.364 . S
C86 C85 1.400 . S
C86 C90 1.377 1_655 S
C87 C85 1.364 . S
C87 C88 1.374 . S
C88 H79 0.930 . S
C88 C87 1.374 . S
C88 C89 1.383 1_655 S
C89 O83 1.412 . S
C89 C88 1.383 1_455 S
C89 C90 1.394 . S
C90 H80 0.929 . S
C90 C86 1.377 1_455 S
C90 C89 1.394 . S
H91 C98 0.929 . S
H92 C101 0.930 . S
H93 C103 0.929 . S
H94 C95 0.969 . S
C95 H94 0.969 . S
C95 O96 1.550 . S
C95 H97 0.973 . S
O96 C95 1.550 . S
O96 C102 1.412 . S
H97 C95 0.973 . S
C98 H91 0.929 . S
C98 C99 1.400 . S
C98 C100 1.364 . S
C99 C98 1.400 . S
C99 C103 1.377 . S
C100 C98 1.364 . S
C100 C101 1.374 . S
C101 H92 0.930 . S
C101 C100 1.374 . S
C101 C102 1.383 . S
C102 O96 1.412 . S
C102 C101 1.383 . S
C102 C103 1.394 . S
C103 H93 0.929 . S
C103 C99 1.377 . S
C103 C102 1.394 . S
H104 C111 0.929 . S
H105 C114 0.930 . S
H106 C116 0.929 . S
H107 C108 0.969 . S
C108 H107 0.969 . S
C108 O109 1.550 . S
C108 H110 0.973 . S
O109 C108 1.550 . S
O109 C115 1.412 . S
H110 C108 0.973 . S
C111 H104 0.929 . S
C111 C112 1.400 . S
C111 C113 1.364 . S
C112 C111 1.400 . S
C112 C116 1.377 . S
C113 C111 1.364 . S
C113 C114 1.374 . S
C114 H105 0.930 . S
C114 C113 1.374 . S
C114 C115 1.383 . S
C115 O109 1.412 . S
C115 C114 1.383 . S
C115 C116 1.394 . S
C116 H106 0.929 . S
C116 C112 1.377 . S
C116 C115 1.394 . S
H117 C124 0.927 1_545 S
H118 C127 0.930 . S
H119 C129 0.929 . S
H120 C121 0.969 . S
C121 H120 0.969 . S
C121 O122 1.550 . S
C121 H123 0.973 . S
O122 C121 1.550 . S
O122 C128 1.412 . S
H123 C121 0.973 . S
C124 H117 0.927 1_565 S
C124 C125 1.400 . S
C124 C126 1.364 . S
C125 C124 1.400 . S
C125 C129 1.377 . S
C126 C124 1.364 . S
C126 C127 1.374 . S
C127 H118 0.930 . S
C127 C126 1.374 . S
C127 C128 1.383 . S
C128 O122 1.412 . S
C128 C127 1.383 . S
C128 C129 1.394 . S
C129 H119 0.929 . S
C129 C125 1.377 . S
C129 C128 1.394 . S
H130 C137 0.929 . S
H131 C140 0.930 . S
H132 C142 0.929 . S
H133 C134 0.969 . S
C134 H133 0.969 . S
C134 O135 1.550 . S
C134 H136 0.973 . S
O135 C134 1.550 . S
O135 C141 1.412 . S
H136 C134 0.973 . S
C137 H130 0.929 . S
C137 C138 1.400 . S
C137 C139 1.364 . S
C138 C137 1.400 . S
C138 C142 1.377 . S
C139 C137 1.364 . S
C139 C140 1.374 . S
C140 H131 0.930 . S
C140 C139 1.374 . S
C140 C141 1.383 . S
C141 O135 1.412 . S
C141 C140 1.383 . S
C141 C142 1.394 . S
C142 H132 0.929 . S
C142 C138 1.377 . S
C142 C141 1.394 . S
H143 C150 0.929 . S
H144 C153 0.930 . S
H145 C155 0.929 . S
H146 C147 0.969 . S
C147 H146 0.969 . S
C147 O148 1.550 . S
C147 H149 0.973 . S
O148 C147 1.550 . S
O148 C154 1.412 . S
H149 C147 0.973 . S
C150 H143 0.929 . S
C150 C151 1.400 . S
C150 C152 1.364 . S
C151 C150 1.400 . S
C151 C155 1.377 . S
C152 C150 1.364 . S
C152 C153 1.374 . S
C153 H144 0.930 . S
C153 C152 1.374 . S
C153 C154 1.383 . S
C154 O148 1.412 . S
C154 C153 1.383 . S
C154 C155 1.394 . S
C155 H145 0.929 . S
C155 C151 1.377 . S
C155 C154 1.394 . S
H156 C163 0.929 . S
H157 C166 0.930 . S
H158 C168 0.929 . S
H159 C160 0.969 . S
C160 H159 0.969 . S
C160 O161 1.550 . S
C160 H162 0.973 . S
O161 C160 1.550 . S
O161 C167 1.412 . S
H162 C160 0.973 . S
C163 H156 0.929 . S
C163 C164 1.400 . S
C163 C165 1.364 . S
C164 C163 1.400 . S
C164 C168 1.377 . S
C165 C163 1.364 . S
C165 C166 1.374 . S
C166 H157 0.930 . S
C166 C165 1.374 . S
C166 C167 1.383 . S
C167 O161 1.412 . S
C167 C166 1.383 . S
C167 C168 1.394 . S
C168 H158 0.929 . S
C168 C164 1.377 . S
C168 C167 1.394 . S
H169 C176 0.929 1_554 S
H170 C179 0.930 . S
H171 C181 0.929 . S
H172 C173 0.969 . S
C173 H172 0.969 . S
C173 O174 1.550 . S
C173 H175 0.973 . S
O174 C173 1.550 . S
O174 C180 1.412 . S
H175 C173 0.973 . S
C176 H169 0.929 1_556 S
C176 C177 1.400 . S
C176 C178 1.364 . S
C177 C176 1.400 . S
C177 C181 1.377 . S
C178 C176 1.364 . S
C178 C179 1.374 . S
C179 H170 0.930 . S
C179 C178 1.374 . S
C179 C180 1.383 . S
C180 O174 1.412 . S
C180 C179 1.383 . S
C180 C181 1.394 . S
C181 H171 0.929 . S
C181 C177 1.377 . S
C181 C180 1.394 . S
H182 C189 0.929 . S
H183 C192 0.930 . S
H184 C194 0.929 . S
H185 C186 0.969 . S
C186 H185 0.969 . S
C186 O187 1.550 . S
C186 H188 0.973 . S
O187 C186 1.550 . S
O187 C193 1.412 . S
H188 C186 0.973 . S
C189 H182 0.929 . S
C189 C190 1.400 . S
C189 C191 1.364 . S
C190 C189 1.400 . S
C190 C194 1.377 . S
C191 C189 1.364 . S
C191 C192 1.374 . S
C192 H183 0.930 . S
C192 C191 1.374 . S
C192 C193 1.383 . S
C193 O187 1.412 . S
C193 C192 1.383 . S
C193 C194 1.394 . S
C194 H184 0.929 . S
C194 C190 1.377 . S
C194 C193 1.394 . S
H195 C202 0.929 . S
H196 C205 0.930 . S
H197 C207 0.929 . S
H198 C199 0.969 . S
C199 H198 0.969 . S
C199 O200 1.550 . S
C199 H201 0.973 . S
O200 C199 1.550 . S
O200 C206 1.412 . S
H201 C199 0.973 . S
C202 H195 0.929 . S
C202 C203 1.400 . S
C202 C204 1.364 1_554 S
C203 C202 1.400 . S
C203 C207 1.377 1_554 S
C204 C202 1.364 1_556 S
C204 C205 1.374 . S
C205 H196 0.930 . S
C205 C204 1.374 . S
C205 C206 1.383 . S
C206 O200 1.412 . S
C206 C205 1.383 . S
C206 C207 1.394 . S
C207 H197 0.929 . S
C207 C203 1.377 1_556 S
C207 C206 1.394 . S
Mn208 O213 2.095 . S
Mn208 O223 2.162 . S
Mn208 O224 2.297 . S
Mn208 O232 2.385 1_554 S
Mn208 O233 2.209 1_554 S
Mn208 O234 2.094 . S
Mn209 O214 2.121 . S
Mn209 N216 2.257 . S
Mn209 N225 2.282 . S
Mn209 O233 2.215 . S
Mn209 O235 2.117 . S
C210 O232 1.234 . S
C210 O233 1.283 . S
C211 O223 1.281 . S
C211 O224 1.236 . S
C212 O234 1.240 1_556 S
C212 O235 1.264 . S
O213 Mn208 2.095 . S
O213 C222 1.250 1_554 S
O214 Mn209 2.121 . S
O214 C222 1.258 . S
C215 N216 1.326 . S
C215 C219 1.460 . S
C215 H221 0.929 . S
N216 Mn209 2.257 . S
N216 C215 1.326 . S
N216 C220 1.362 . S
C217 C218 1.258 . S
C217 C220 1.431 . S
C217 C237 1.449 . S
C218 C217 1.258 . S
C218 C219 1.477 . S
C218 H238 0.931 . S
C219 C215 1.460 . S
C219 C218 1.477 . S
C219 H239 0.930 . S
C220 N216 1.362 . S
C220 C217 1.431 . S
C220 C230 1.476 . S
H221 C215 0.929 . S
C222 O213 1.250 1_556 S
C222 O214 1.258 . S
O223 Mn208 2.162 . S
O223 C211 1.281 . S
O224 Mn208 2.297 . S
O224 C211 1.236 . S
N225 Mn209 2.282 . S
N225 C226 1.328 . S
N225 C230 1.318 . S
C226 N225 1.328 . S
C226 C227 1.457 . S
C226 H231 0.929 . S
C227 C226 1.457 . S
C227 C228 1.291 . S
C227 H240 0.931 . S
C228 C227 1.291 . S
C228 C229 1.373 . S
C228 H241 0.929 . S
C229 C228 1.373 . S
C229 C230 1.396 . S
C229 C236 1.403 . S
C230 C220 1.476 . S
C230 N225 1.318 . S
C230 C229 1.396 . S
H231 C226 0.929 . S
O232 Mn208 2.385 1_556 S
O232 C210 1.234 . S
O233 Mn208 2.209 1_556 S
O233 Mn209 2.215 . S
O233 C210 1.283 . S
O234 Mn208 2.094 . S
O234 C212 1.240 1_554 S
O235 Mn209 2.117 . S
O235 C212 1.264 . S
C236 C229 1.403 . S
C236 C237 1.399 . S
C236 H242 0.929 . S
C237 C217 1.449 . S
C237 C236 1.399 . S
C237 H243 0.930 . S
H238 C218 0.931 . S
H239 C219 0.930 . S
H240 C227 0.931 . S
H241 C228 0.929 . S
H242 C236 0.929 . S
H243 C237 0.930 . S
Mn244 O249 2.095 . S
Mn244 O259 2.162 . S
Mn244 O260 2.297 . S
Mn244 O268 2.385 . S
Mn244 O269 2.209 . S
Mn244 O270 2.094 . S
Mn245 O250 2.121 . S
Mn245 N252 2.257 . S
Mn245 N261 2.282 . S
Mn245 O269 2.215 . S
Mn245 O271 2.117 . S
C246 O268 1.234 . S
C246 O269 1.283 . S
C247 O259 1.281 . S
C247 O260 1.236 . S
C248 O270 1.240 . S
C248 O271 1.264 . S
O249 Mn244 2.095 . S
O249 C258 1.250 . S
O250 Mn245 2.121 . S
O250 C258 1.258 . S
C251 N252 1.326 . S
C251 C255 1.460 . S
C251 H257 0.929 . S
N252 Mn245 2.257 . S
N252 C251 1.326 . S
N252 C256 1.362 . S
C253 C254 1.258 . S
C253 C256 1.431 . S
C253 C273 1.449 . S
C254 C253 1.258 . S
C254 C255 1.477 . S
C254 H274 0.931 . S
C255 C251 1.460 . S
C255 C254 1.477 . S
C255 H275 0.930 . S
C256 N252 1.362 . S
C256 C253 1.431 . S
C256 C266 1.476 . S
H257 C251 0.929 . S
C258 O249 1.250 . S
C258 O250 1.258 . S
O259 Mn244 2.162 . S
O259 C247 1.281 . S
O260 Mn244 2.297 . S
O260 C247 1.236 . S
N261 Mn245 2.282 . S
N261 C262 1.328 . S
N261 C266 1.318 . S
C262 N261 1.328 . S
C262 C263 1.457 . S
C262 H267 0.929 . S
C263 C262 1.457 . S
C263 C264 1.291 . S
C263 H276 0.931 . S
C264 C263 1.291 . S
C264 C265 1.373 . S
C264 H277 0.929 . S
C265 C264 1.373 . S
C265 C266 1.396 . S
C265 C272 1.403 . S
C266 C256 1.476 . S
C266 N261 1.318 . S
C266 C265 1.396 . S
H267 C262 0.929 . S
O268 Mn244 2.385 . S
O268 C246 1.234 . S
O269 Mn244 2.209 . S
O269 Mn245 2.215 . S
O269 C246 1.283 . S
O270 Mn244 2.094 . S
O270 C248 1.240 . S
O271 Mn245 2.117 . S
O271 C248 1.264 . S
C272 C265 1.403 . S
C272 C273 1.399 . S
C272 H278 0.929 . S
C273 C253 1.449 . S
C273 C272 1.399 . S
C273 H279 0.930 . S
H274 C254 0.931 . S
H275 C255 0.930 . S
H276 C263 0.931 . S
H277 C264 0.929 . S
H278 C272 0.929 . S
H279 C273 0.930 . S
Mn280 O285 2.095 . S
Mn280 O295 2.162 . S
Mn280 O296 2.297 . S
Mn280 O304 2.385 . S
Mn280 O305 2.209 . S
Mn280 O306 2.094 . S
Mn281 O286 2.121 1_554 S
Mn281 N288 2.257 1_554 S
Mn281 N297 2.282 . S
Mn281 O305 2.215 . S
Mn281 O307 2.117 . S
C282 O304 1.234 . S
C282 O305 1.283 . S
C283 O295 1.281 . S
C283 O296 1.236 . S
C284 O306 1.240 . S
C284 O307 1.264 . S
O285 Mn280 2.095 . S
O285 C294 1.250 1_554 S
O286 Mn281 2.121 1_556 S
O286 C294 1.258 . S
C287 N288 1.326 . S
C287 C291 1.460 . S
C287 H293 0.929 . S
N288 Mn281 2.257 1_556 S
N288 C287 1.326 . S
N288 C292 1.362 . S
C289 C290 1.258 . S
C289 C292 1.431 . S
C289 C309 1.449 . S
C290 C289 1.258 . S
C290 C291 1.477 . S
C290 H310 0.931 . S
C291 C287 1.460 . S
C291 C290 1.477 . S
C291 H311 0.930 . S
C292 N288 1.362 . S
C292 C289 1.431 . S
C292 C302 1.476 1_556 S
H293 C287 0.929 . S
C294 O285 1.250 1_556 S
C294 O286 1.258 . S
O295 Mn280 2.162 . S
O295 C283 1.281 . S
O296 Mn280 2.297 . S
O296 C283 1.236 . S
N297 Mn281 2.282 . S
N297 C298 1.328 . S
N297 C302 1.318 . S
C298 N297 1.328 . S
C298 C299 1.457 . S
C298 H303 0.929 . S
C299 C298 1.457 . S
C299 C300 1.291 . S
C299 H312 0.931 . S
C300 C299 1.291 . S
C300 C301 1.373 . S
C300 H313 0.929 . S
C301 C300 1.373 . S
C301 C302 1.396 . S
C301 C308 1.403 1_554 S
C302 C292 1.476 1_554 S
C302 N297 1.318 . S
C302 C301 1.396 . S
H303 C298 0.929 . S
O304 Mn280 2.385 . S
O304 C282 1.234 . S
O305 Mn280 2.209 . S
O305 Mn281 2.215 . S
O305 C282 1.283 . S
O306 Mn280 2.094 . S
O306 C284 1.240 . S
O307 Mn281 2.117 . S
O307 C284 1.264 . S
C308 C301 1.403 1_556 S
C308 C309 1.399 . S
C308 H314 0.929 . S
C309 C289 1.449 . S
C309 C308 1.399 . S
C309 H315 0.930 . S
H310 C290 0.931 . S
H311 C291 0.930 . S
H312 C299 0.931 . S
H313 C300 0.929 . S
H314 C308 0.929 . S
H315 C309 0.930 . S
Mn316 O321 2.095 . S
Mn316 O331 2.162 . S
Mn316 O332 2.297 . S
Mn316 O340 2.385 . S
Mn316 O341 2.209 1_545 S
Mn316 O342 2.094 . S
Mn317 O322 2.121 . S
Mn317 N324 2.257 . S
Mn317 N333 2.282 . S
Mn317 O341 2.215 . S
Mn317 O343 2.117 1_565 S
C318 O340 1.234 1_565 S
C318 O341 1.283 . S
C319 O331 1.281 . S
C319 O332 1.236 . S
C320 O342 1.240 . S
C320 O343 1.264 . S
O321 Mn316 2.095 . S
O321 C330 1.250 . S
O322 Mn317 2.121 . S
O322 C330 1.258 1_565 S
C323 N324 1.326 . S
C323 C327 1.460 . S
C323 H329 0.929 . S
N324 Mn317 2.257 . S
N324 C323 1.326 . S
N324 C328 1.362 . S
C325 C326 1.258 . S
C325 C328 1.431 . S
C325 C345 1.449 . S
C326 C325 1.258 . S
C326 C327 1.477 . S
C326 H346 0.931 . S
C327 C323 1.460 . S
C327 C326 1.477 . S
C327 H347 0.930 . S
C328 N324 1.362 . S
C328 C325 1.431 . S
C328 C338 1.476 . S
H329 C323 0.929 . S
C330 O321 1.250 . S
C330 O322 1.258 1_545 S
O331 Mn316 2.162 . S
O331 C319 1.281 . S
O332 Mn316 2.297 . S
O332 C319 1.236 . S
N333 Mn317 2.282 . S
N333 C334 1.328 . S
N333 C338 1.318 . S
C334 N333 1.328 . S
C334 C335 1.457 . S
C334 H339 0.929 . S
C335 C334 1.457 . S
C335 C336 1.291 . S
C335 H348 0.931 . S
C336 C335 1.291 . S
C336 C337 1.373 . S
C336 H349 0.929 . S
C337 C336 1.373 . S
C337 C338 1.396 . S
C337 C344 1.403 . S
C338 C328 1.476 . S
C338 N333 1.318 . S
C338 C337 1.396 . S
H339 C334 0.929 . S
O340 Mn316 2.385 . S
O340 C318 1.234 1_545 S
O341 Mn316 2.209 1_565 S
O341 Mn317 2.215 . S
O341 C318 1.283 . S
O342 Mn316 2.094 . S
O342 C320 1.240 . S
O343 Mn317 2.117 1_545 S
O343 C320 1.264 . S
C344 C337 1.403 . S
C344 C345 1.399 . S
C344 H350 0.929 . S
C345 C325 1.449 . S
C345 C344 1.399 . S
C345 H351 0.930 . S
H346 C326 0.931 . S
H347 C327 0.930 . S
H348 C335 0.931 . S
H349 C336 0.929 . S
H350 C344 0.929 . S
H351 C345 0.930 . S
Mn352 O357 2.095 . S
Mn352 O367 2.162 . S
Mn352 O368 2.297 . S
Mn352 O376 2.385 . S
Mn352 O377 2.209 . S
Mn352 O378 2.094 . S
Mn353 O358 2.121 . S
Mn353 N360 2.257 . S
Mn353 N369 2.282 . S
Mn353 O377 2.215 . S
Mn353 O379 2.117 . S
C354 O376 1.234 . S
C354 O377 1.283 . S
C355 O367 1.281 . S
C355 O368 1.236 . S
C356 O378 1.240 . S
C356 O379 1.264 . S
O357 Mn352 2.095 . S
O357 C366 1.250 . S
O358 Mn353 2.121 . S
O358 C366 1.258 . S
C359 N360 1.326 . S
C359 C363 1.460 . S
C359 H365 0.929 . S
N360 Mn353 2.257 . S
N360 C359 1.326 . S
N360 C364 1.362 . S
C361 C362 1.258 . S
C361 C364 1.431 . S
C361 C381 1.449 . S
C362 C361 1.258 . S
C362 C363 1.477 . S
C362 H382 0.931 . S
C363 C359 1.460 . S
C363 C362 1.477 . S
C363 H383 0.930 . S
C364 N360 1.362 . S
C364 C361 1.431 . S
C364 C374 1.476 . S
H365 C359 0.929 . S
C366 O357 1.250 . S
C366 O358 1.258 . S
O367 Mn352 2.162 . S
O367 C355 1.281 . S
O368 Mn352 2.297 . S
O368 C355 1.236 . S
N369 Mn353 2.282 . S
N369 C370 1.328 . S
N369 C374 1.318 . S
C370 N369 1.328 . S
C370 C371 1.457 . S
C370 H375 0.929 . S
C371 C370 1.457 . S
C371 C372 1.291 . S
C371 H384 0.931 . S
C372 C371 1.291 . S
C372 C373 1.373 . S
C372 H385 0.929 . S
C373 C372 1.373 . S
C373 C374 1.396 . S
C373 C380 1.403 . S
C374 C364 1.476 . S
C374 N369 1.318 . S
C374 C373 1.396 . S
H375 C370 0.929 . S
O376 Mn352 2.385 . S
O376 C354 1.234 . S
O377 Mn352 2.209 . S
O377 Mn353 2.215 . S
O377 C354 1.283 . S
O378 Mn352 2.094 . S
O378 C356 1.240 . S
O379 Mn353 2.117 . S
O379 C356 1.264 . S
C380 C373 1.403 . S
C380 C381 1.399 . S
C380 H386 0.929 . S
C381 C361 1.449 . S
C381 C380 1.399 . S
C381 H387 0.930 . S
H382 C362 0.931 . S
H383 C363 0.930 . S
H384 C371 0.931 . S
H385 C372 0.929 . S
H386 C380 0.929 . S
H387 C381 0.930 . S
Mn388 O393 2.095 . S
Mn388 O403 2.162 . S
Mn388 O404 2.297 . S
Mn388 O412 2.385 . S
Mn388 O413 2.209 . S
Mn388 O414 2.094 . S
Mn389 O394 2.121 . S
Mn389 N396 2.257 . S
Mn389 N405 2.282 . S
Mn389 O413 2.215 . S
Mn389 O415 2.117 . S
C390 O412 1.234 . S
C390 O413 1.283 . S
C391 O403 1.281 . S
C391 O404 1.236 . S
C392 O414 1.240 . S
C392 O415 1.264 . S
O393 Mn388 2.095 . S
O393 C402 1.250 . S
O394 Mn389 2.121 . S
O394 C402 1.258 . S
C395 N396 1.326 . S
C395 C399 1.460 . S
C395 H401 0.929 . S
N396 Mn389 2.257 . S
N396 C395 1.326 . S
N396 C400 1.362 . S
C397 C398 1.258 . S
C397 C400 1.431 . S
C397 C417 1.449 . S
C398 C397 1.258 . S
C398 C399 1.477 . S
C398 H418 0.931 . S
C399 C395 1.460 . S
C399 C398 1.477 . S
C399 H419 0.930 . S
C400 N396 1.362 . S
C400 C397 1.431 . S
C400 C410 1.476 . S
H401 C395 0.929 . S
C402 O393 1.250 . S
C402 O394 1.258 . S
O403 Mn388 2.162 . S
O403 C391 1.281 . S
O404 Mn388 2.297 . S
O404 C391 1.236 . S
N405 Mn389 2.282 . S
N405 C406 1.328 . S
N405 C410 1.318 . S
C406 N405 1.328 . S
C406 C407 1.457 . S
C406 H411 0.929 . S
C407 C406 1.457 . S
C407 C408 1.291 . S
C407 H420 0.931 . S
C408 C407 1.291 . S
C408 C409 1.373 . S
C408 H421 0.929 . S
C409 C408 1.373 . S
C409 C410 1.396 . S
C409 C416 1.403 . S
C410 C400 1.476 . S
C410 N405 1.318 . S
C410 C409 1.396 . S
H411 C406 0.929 . S
O412 Mn388 2.385 . S
O412 C390 1.234 . S
O413 Mn388 2.209 . S
O413 Mn389 2.215 . S
O413 C390 1.283 . S
O414 Mn388 2.094 . S
O414 C392 1.240 . S
O415 Mn389 2.117 . S
O415 C392 1.264 . S
C416 C409 1.403 . S
C416 C417 1.399 . S
C416 H422 0.929 . S
C417 C397 1.449 . S
C417 C416 1.399 . S
C417 H423 0.930 . S
H418 C398 0.931 . S
H419 C399 0.930 . S
H420 C407 0.931 . S
H421 C408 0.929 . S
H422 C416 0.929 . S
H423 C417 0.930 . S
Mn424 O429 2.095 . S
Mn424 O439 2.162 . S
Mn424 O440 2.297 . S
Mn424 O448 2.385 . S
Mn424 O449 2.209 . S
Mn424 O450 2.094 . S
Mn425 O430 2.121 . S
Mn425 N432 2.257 . S
Mn425 N441 2.282 . S
Mn425 O449 2.215 . S
Mn425 O451 2.117 . S
C426 O448 1.234 . S
C426 O449 1.283 . S
C427 O439 1.281 . S
C427 O440 1.236 . S
C428 O450 1.240 . S
C428 O451 1.264 . S
O429 Mn424 2.095 . S
O429 C438 1.250 . S
O430 Mn425 2.121 . S
O430 C438 1.258 . S
C431 N432 1.326 . S
C431 C435 1.460 . S
C431 H437 0.929 . S
N432 Mn425 2.257 . S
N432 C431 1.326 . S
N432 C436 1.362 . S
C433 C434 1.258 . S
C433 C436 1.431 . S
C433 C453 1.449 . S
C434 C433 1.258 . S
C434 C435 1.477 . S
C434 H454 0.931 . S
C435 C431 1.460 . S
C435 C434 1.477 . S
C435 H455 0.930 . S
C436 N432 1.362 . S
C436 C433 1.431 . S
C436 C446 1.476 . S
H437 C431 0.929 . S
C438 O429 1.250 . S
C438 O430 1.258 . S
O439 Mn424 2.162 . S
O439 C427 1.281 . S
O440 Mn424 2.297 . S
O440 C427 1.236 . S
N441 Mn425 2.282 . S
N441 C442 1.328 . S
N441 C446 1.318 . S
C442 N441 1.328 . S
C442 C443 1.457 . S
C442 H447 0.929 . S
C443 C442 1.457 . S
C443 C444 1.291 . S
C443 H456 0.931 . S
C444 C443 1.291 . S
C444 C445 1.373 . S
C444 H457 0.929 . S
C445 C444 1.373 . S
C445 C446 1.396 . S
C445 C452 1.403 . S
C446 C436 1.476 . S
C446 N441 1.318 . S
C446 C445 1.396 . S
H447 C442 0.929 . S
O448 Mn424 2.385 . S
O448 C426 1.234 . S
O449 Mn424 2.209 . S
O449 Mn425 2.215 . S
O449 C426 1.283 . S
O450 Mn424 2.094 . S
O450 C428 1.240 . S
O451 Mn425 2.117 . S
O451 C428 1.264 . S
C452 C445 1.403 . S
C452 C453 1.399 . S
C452 H458 0.929 . S
C453 C433 1.449 . S
C453 C452 1.399 . S
C453 H459 0.930 . S
H454 C434 0.931 . S
H455 C435 0.930 . S
H456 C443 0.931 . S
H457 C444 0.929 . S
H458 C452 0.929 . S
H459 C453 0.930 . S
Mn460 O465 2.095 . S
Mn460 O475 2.162 . S
Mn460 O476 2.297 . S
Mn460 O484 2.385 1_565 S
Mn460 O485 2.209 1_565 S
Mn460 O486 2.094 . S
Mn461 O466 2.121 . S
Mn461 N468 2.257 . S
Mn461 N477 2.282 . S
Mn461 O485 2.215 . S
Mn461 O487 2.117 . S
C462 O484 1.234 . S
C462 O485 1.283 . S
C463 O475 1.281 . S
C463 O476 1.236 . S
C464 O486 1.240 . S
C464 O487 1.264 1_565 S
O465 Mn460 2.095 . S
O465 C474 1.250 1_565 S
O466 Mn461 2.121 . S
O466 C474 1.258 . S
C467 N468 1.326 . S
C467 C471 1.460 . S
C467 H473 0.929 . S
N468 Mn461 2.257 . S
N468 C467 1.326 . S
N468 C472 1.362 . S
C469 C470 1.258 . S
C469 C472 1.431 . S
C469 C489 1.449 . S
C470 C469 1.258 . S
C470 C471 1.477 . S
C470 H490 0.931 . S
C471 C467 1.460 . S
C471 C470 1.477 . S
C471 H491 0.930 . S
C472 N468 1.362 . S
C472 C469 1.431 . S
C472 C482 1.476 . S
H473 C467 0.929 . S
C474 O465 1.250 1_545 S
C474 O466 1.258 . S
O475 Mn460 2.162 . S
O475 C463 1.281 . S
O476 Mn460 2.297 . S
O476 C463 1.236 . S
N477 Mn461 2.282 . S
N477 C478 1.328 . S
N477 C482 1.318 . S
C478 N477 1.328 . S
C478 C479 1.457 . S
C478 H483 0.929 . S
C479 C478 1.457 . S
C479 C480 1.291 . S
C479 H492 0.931 . S
C480 C479 1.291 . S
C480 C481 1.373 . S
C480 H493 0.929 . S
C481 C480 1.373 . S
C481 C482 1.396 . S
C481 C488 1.403 . S
C482 C472 1.476 . S
C482 N477 1.318 . S
C482 C481 1.396 . S
H483 C478 0.929 . S
O484 Mn460 2.385 1_545 S
O484 C462 1.234 . S
O485 Mn460 2.209 1_545 S
O485 Mn461 2.215 . S
O485 C462 1.283 . S
O486 Mn460 2.094 . S
O486 C464 1.240 . S
O487 Mn461 2.117 . S
O487 C464 1.264 1_545 S
C488 C481 1.403 . S
C488 C489 1.399 . S
C488 H494 0.929 . S
C489 C469 1.449 . S
C489 C488 1.399 . S
C489 H495 0.930 . S
H490 C470 0.931 . S
H491 C471 0.930 . S
H492 C479 0.931 . S
H493 C480 0.929 . S
H494 C488 0.929 . S
H495 C489 0.930 . S
Mn496 O501 2.095 . S
Mn496 O511 2.162 . S
Mn496 O512 2.297 . S
Mn496 O520 2.385 1_455 S
Mn496 O521 2.209 1_455 S
Mn496 O522 2.094 . S
Mn497 O502 2.121 . S
Mn497 N504 2.257 . S
Mn497 N513 2.282 . S
Mn497 O521 2.215 . S
Mn497 O523 2.117 . S
C498 O520 1.234 . S
C498 O521 1.283 . S
C499 O511 1.281 . S
C499 O512 1.236 . S
C500 O522 1.240 1_655 S
C500 O523 1.264 . S
O501 Mn496 2.095 . S
O501 C510 1.250 1_455 S
O502 Mn497 2.121 . S
O502 C510 1.258 . S
C503 N504 1.326 . S
C503 C507 1.460 . S
C503 H509 0.929 . S
N504 Mn497 2.257 . S
N504 C503 1.326 . S
N504 C508 1.362 . S
C505 C506 1.258 . S
C505 C508 1.431 . S
C505 C525 1.449 . S
C506 C505 1.258 . S
C506 C507 1.477 . S
C506 H526 0.931 . S
C507 C503 1.460 . S
C507 C506 1.477 . S
C507 H527 0.930 . S
C508 N504 1.362 . S
C508 C505 1.431 . S
C508 C518 1.476 . S
H509 C503 0.929 . S
C510 O501 1.250 1_655 S
C510 O502 1.258 . S
O511 Mn496 2.162 . S
O511 C499 1.281 . S
O512 Mn496 2.297 . S
O512 C499 1.236 . S
N513 Mn497 2.282 . S
N513 C514 1.328 . S
N513 C518 1.318 . S
C514 N513 1.328 . S
C514 C515 1.457 . S
C514 H519 0.929 . S
C515 C514 1.457 . S
C515 C516 1.291 . S
C515 H528 0.931 . S
C516 C515 1.291 . S
C516 C517 1.373 . S
C516 H529 0.929 . S
C517 C516 1.373 . S
C517 C518 1.396 . S
C517 C524 1.403 . S
C518 C508 1.476 . S
C518 N513 1.318 . S
C518 C517 1.396 . S
H519 C514 0.929 . S
O520 Mn496 2.385 1_655 S
O520 C498 1.234 . S
O521 Mn496 2.209 1_655 S
O521 Mn497 2.215 . S
O521 C498 1.283 . S
O522 Mn496 2.094 . S
O522 C500 1.240 1_455 S
O523 Mn497 2.117 . S
O523 C500 1.264 . S
C524 C517 1.403 . S
C524 C525 1.399 . S
C524 H530 0.929 . S
C525 C505 1.449 . S
C525 C524 1.399 . S
C525 H531 0.930 . S
H526 C506 0.931 . S
H527 C507 0.930 . S
H528 C515 0.931 . S
H529 C516 0.929 . S
H530 C524 0.929 . S
H531 C525 0.930 . S
Mn532 O537 2.095 . S
Mn532 O547 2.162 . S
Mn532 O548 2.297 . S
Mn532 O556 2.385 . S
Mn532 O557 2.209 . S
Mn532 O558 2.094 . S
Mn533 O538 2.121 . S
Mn533 N540 2.257 . S
Mn533 N549 2.282 . S
Mn533 O557 2.215 . S
Mn533 O559 2.117 . S
C534 O556 1.234 . S
C534 O557 1.283 . S
C535 O547 1.281 . S
C535 O548 1.236 . S
C536 O558 1.240 . S
C536 O559 1.264 . S
O537 Mn532 2.095 . S
O537 C546 1.250 . S
O538 Mn533 2.121 . S
O538 C546 1.258 . S
C539 N540 1.326 . S
C539 C543 1.460 . S
C539 H545 0.929 . S
N540 Mn533 2.257 . S
N540 C539 1.326 . S
N540 C544 1.362 . S
C541 C542 1.258 . S
C541 C544 1.431 . S
C541 C561 1.449 . S
C542 C541 1.258 . S
C542 C543 1.477 . S
C542 H562 0.931 . S
C543 C539 1.460 . S
C543 C542 1.477 . S
C543 H563 0.930 . S
C544 N540 1.362 . S
C544 C541 1.431 . S
C544 C554 1.476 . S
H545 C539 0.929 . S
C546 O537 1.250 . S
C546 O538 1.258 . S
O547 Mn532 2.162 . S
O547 C535 1.281 . S
O548 Mn532 2.297 . S
O548 C535 1.236 . S
N549 Mn533 2.282 . S
N549 C550 1.328 . S
N549 C554 1.318 . S
C550 N549 1.328 . S
C550 C551 1.457 . S
C550 H555 0.929 . S
C551 C550 1.457 . S
C551 C552 1.291 . S
C551 H564 0.931 . S
C552 C551 1.291 . S
C552 C553 1.373 . S
C552 H565 0.929 . S
C553 C552 1.373 . S
C553 C554 1.396 . S
C553 C560 1.403 . S
C554 C544 1.476 . S
C554 N549 1.318 . S
C554 C553 1.396 . S
H555 C550 0.929 . S
O556 Mn532 2.385 . S
O556 C534 1.234 . S
O557 Mn532 2.209 . S
O557 Mn533 2.215 . S
O557 C534 1.283 . S
O558 Mn532 2.094 . S
O558 C536 1.240 . S
O559 Mn533 2.117 . S
O559 C536 1.264 . S
C560 C553 1.403 . S
C560 C561 1.399 . S
C560 H566 0.929 . S
C561 C541 1.449 . S
C561 C560 1.399 . S
C561 H567 0.930 . S
H562 C542 0.931 . S
H563 C543 0.930 . S
H564 C551 0.931 . S
H565 C552 0.929 . S
H566 C560 0.929 . S
H567 C561 0.930 . S
Mn568 O573 2.095 . S
Mn568 O583 2.162 . S
Mn568 O584 2.297 . S
Mn568 O592 2.385 . S
Mn568 O593 2.209 . S
Mn568 O594 2.094 . S
Mn569 O574 2.121 1_455 S
Mn569 N576 2.257 1_455 S
Mn569 N585 2.282 . S
Mn569 O593 2.215 . S
Mn569 O595 2.117 . S
C570 O592 1.234 . S
C570 O593 1.283 . S
C571 O583 1.281 . S
C571 O584 1.236 . S
C572 O594 1.240 . S
C572 O595 1.264 . S
O573 Mn568 2.095 . S
O573 C582 1.250 1_455 S
O574 Mn569 2.121 1_655 S
O574 C582 1.258 . S
C575 N576 1.326 . S
C575 C579 1.460 . S
C575 H581 0.929 . S
N576 Mn569 2.257 1_655 S
N576 C575 1.326 . S
N576 C580 1.362 . S
C577 C578 1.258 . S
C577 C580 1.431 . S
C577 C597 1.449 . S
C578 C577 1.258 . S
C578 C579 1.477 . S
C578 H598 0.931 . S
C579 C575 1.460 . S
C579 C578 1.477 . S
C579 H599 0.930 . S
C580 N576 1.362 . S
C580 C577 1.431 . S
C580 C590 1.476 . S
H581 C575 0.929 . S
C582 O573 1.250 1_655 S
C582 O574 1.258 . S
O583 Mn568 2.162 . S
O583 C571 1.281 . S
O584 Mn568 2.297 . S
O584 C571 1.236 . S
N585 Mn569 2.282 . S
N585 C586 1.328 . S
N585 C590 1.318 1_455 S
C586 N585 1.328 . S
C586 C587 1.457 . S
C586 H591 0.929 . S
C587 C586 1.457 . S
C587 C588 1.291 . S
C587 H600 0.931 . S
C588 C587 1.291 . S
C588 C589 1.373 . S
C588 H601 0.929 . S
C589 C588 1.373 . S
C589 C590 1.396 1_455 S
C589 C596 1.403 1_455 S
C590 C580 1.476 . S
C590 N585 1.318 1_655 S
C590 C589 1.396 1_655 S
H591 C586 0.929 . S
O592 Mn568 2.385 . S
O592 C570 1.234 . S
O593 Mn568 2.209 . S
O593 Mn569 2.215 . S
O593 C570 1.283 . S
O594 Mn568 2.094 . S
O594 C572 1.240 . S
O595 Mn569 2.117 . S
O595 C572 1.264 . S
C596 C589 1.403 1_655 S
C596 C597 1.399 . S
C596 H602 0.929 . S
C597 C577 1.449 . S
C597 C596 1.399 . S
C597 H603 0.930 . S
H598 C578 0.931 . S
H599 C579 0.930 . S
H600 C587 0.931 . S
H601 C588 0.929 . S
H602 C596 0.929 . S
H603 C597 0.930 . S
Mn604 O609 2.095 . S
Mn604 O619 2.162 . S
Mn604 O620 2.297 . S
Mn604 O628 2.385 . S
Mn604 O629 2.209 . S
Mn604 O630 2.094 . S
Mn605 O610 2.121 . S
Mn605 N612 2.257 . S
Mn605 N621 2.282 . S
Mn605 O629 2.215 . S
Mn605 O631 2.117 . S
C606 O628 1.234 . S
C606 O629 1.283 . S
C607 O619 1.281 . S
C607 O620 1.236 . S
C608 O630 1.240 . S
C608 O631 1.264 . S
O609 Mn604 2.095 . S
O609 C618 1.250 . S
O610 Mn605 2.121 . S
O610 C618 1.258 . S
C611 N612 1.326 . S
C611 C615 1.460 . S
C611 H617 0.929 . S
N612 Mn605 2.257 . S
N612 C611 1.326 . S
N612 C616 1.362 . S
C613 C614 1.258 . S
C613 C616 1.431 . S
C613 C633 1.449 . S
C614 C613 1.258 . S
C614 C615 1.477 . S
C614 H634 0.931 . S
C615 C611 1.460 . S
C615 C614 1.477 . S
C615 H635 0.930 . S
C616 N612 1.362 . S
C616 C613 1.431 . S
C616 C626 1.476 . S
H617 C611 0.929 . S
C618 O609 1.250 . S
C618 O610 1.258 . S
O619 Mn604 2.162 . S
O619 C607 1.281 . S
O620 Mn604 2.297 . S
O620 C607 1.236 . S
N621 Mn605 2.282 . S
N621 C622 1.328 . S
N621 C626 1.318 . S
C622 N621 1.328 . S
C622 C623 1.457 . S
C622 H627 0.929 . S
C623 C622 1.457 . S
C623 C624 1.291 . S
C623 H636 0.931 . S
C624 C623 1.291 . S
C624 C625 1.373 . S
C624 H637 0.929 . S
C625 C624 1.373 . S
C625 C626 1.396 . S
C625 C632 1.403 . S
C626 C616 1.476 . S
C626 N621 1.318 . S
C626 C625 1.396 . S
H627 C622 0.929 . S
O628 Mn604 2.385 . S
O628 C606 1.234 . S
O629 Mn604 2.209 . S
O629 Mn605 2.215 . S
O629 C606 1.283 . S
O630 Mn604 2.094 . S
O630 C608 1.240 . S
O631 Mn605 2.117 . S
O631 C608 1.264 . S
C632 C625 1.403 . S
C632 C633 1.399 . S
C632 H638 0.929 . S
C633 C613 1.449 . S
C633 C632 1.399 . S
C633 H639 0.930 . S
H634 C614 0.931 . S
H635 C615 0.930 . S
H636 C623 0.931 . S
H637 C624 0.929 . S
H638 C632 0.929 . S
H639 C633 0.930 . S
H640 C648 0.950 . S
H641 C653 0.950 . S
H642 C650 0.950 . S
H643 C652 0.950 . S
H644 C654 0.950 . S
H645 C656 0.950 . S
H646 C658 0.950 . S
H647 C659 0.950 . S
C648 H640 0.950 . S
C648 C649 1.386 . S
C648 C650 1.391 . S
C649 C648 1.386 . S
C649 C653 1.393 . S
C650 H642 0.950 . S
C650 C648 1.391 . S
C650 C651 1.400 . S
C651 C650 1.400 . S
C651 C652 1.398 . S
C651 C657 1.491 . S
C652 H643 0.950 . S
C652 C651 1.398 . S
C652 C653 1.391 . S
C653 H641 0.950 . S
C653 C649 1.393 . S
C653 C652 1.391 . S
C654 H644 0.950 . S
C654 C655 1.386 . S
C654 C656 1.391 . S
C655 C654 1.386 . S
C655 C659 1.393 . S
C656 H645 0.950 . S
C656 C654 1.391 . S
C656 C657 1.400 . S
C657 C651 1.491 . S
C657 C656 1.400 . S
C657 C658 1.398 . S
C658 H646 0.950 . S
C658 C657 1.398 . S
C658 C659 1.391 . S
C659 H647 0.950 . S
C659 C655 1.393 . S
C659 C658 1.391 . S
H660 C668 0.950 . S
H661 C673 0.950 . S
H662 C670 0.950 . S
H663 C672 0.950 . S
H664 C674 0.950 . S
H665 C676 0.950 . S
H666 C678 0.950 . S
H667 C679 0.950 . S
C668 H660 0.950 . S
C668 C669 1.386 . S
C668 C670 1.391 . S
C669 C668 1.386 . S
C669 C673 1.393 . S
C670 H662 0.950 . S
C670 C668 1.391 . S
C670 C671 1.400 . S
C671 C670 1.400 . S
C671 C672 1.398 . S
C671 C677 1.491 . S
C672 H663 0.950 . S
C672 C671 1.398 . S
C672 C673 1.391 . S
C673 H661 0.950 . S
C673 C669 1.393 . S
C673 C672 1.391 . S
C674 H664 0.950 . S
C674 C675 1.386 . S
C674 C676 1.391 . S
C675 C674 1.386 . S
C675 C679 1.393 . S
C676 H665 0.950 . S
C676 C674 1.391 . S
C676 C677 1.400 . S
C677 C671 1.491 . S
C677 C676 1.400 . S
C677 C678 1.398 . S
C678 H666 0.950 . S
C678 C677 1.398 . S
C678 C679 1.391 . S
C679 H667 0.950 . S
C679 C675 1.393 . S
C679 C678 1.391 . S
H680 C688 0.950 . S
H681 C693 0.950 . S
H682 C690 0.950 . S
H683 C692 0.950 . S
H684 C694 0.950 . S
H685 C696 0.950 . S
H686 C698 0.950 . S
H687 C699 0.950 . S
C688 H680 0.950 . S
C688 C689 1.386 . S
C688 C690 1.391 . S
C689 C688 1.386 . S
C689 C693 1.393 . S
C690 H682 0.950 . S
C690 C688 1.391 . S
C690 C691 1.400 . S
C691 C690 1.400 . S
C691 C692 1.398 . S
C691 C697 1.491 . S
C692 H683 0.950 . S
C692 C691 1.398 . S
C692 C693 1.391 . S
C693 H681 0.950 . S
C693 C689 1.393 . S
C693 C692 1.391 . S
C694 H684 0.950 . S
C694 C695 1.386 . S
C694 C696 1.391 . S
C695 C694 1.386 . S
C695 C699 1.393 . S
C696 H685 0.950 . S
C696 C694 1.391 . S
C696 C697 1.400 . S
C697 C691 1.491 . S
C697 C696 1.400 . S
C697 C698 1.398 . S
C698 H686 0.950 . S
C698 C697 1.398 . S
C698 C699 1.391 . S
C699 H687 0.950 . S
C699 C695 1.393 . S
C699 C698 1.391 . S
H700 C708 0.950 . S
H701 C713 0.949 . S
H702 C710 0.950 . S
H703 C712 0.950 . S
H704 C714 0.950 . S
H705 C716 0.950 . S
H706 C718 0.950 1_565 S
H707 C719 0.950 . S
C708 H700 0.950 . S
C708 C709 1.386 . S
C708 C710 1.391 . S
C709 C708 1.386 . S
C709 C713 1.393 1_655 S
C710 H702 0.950 . S
C710 C708 1.391 . S
C710 C711 1.400 . S
C711 C710 1.400 . S
C711 C712 1.398 1_565 S
C711 C717 1.491 1_565 S
C712 H703 0.950 . S
C712 C711 1.398 1_545 S
C712 C713 1.391 1_645 S
C713 H701 0.949 . S
C713 C709 1.393 1_455 S
C713 C712 1.391 1_465 S
C714 H704 0.950 . S
C714 C715 1.386 . S
C714 C716 1.391 . S
C715 C714 1.386 . S
C715 C719 1.393 . S
C716 H705 0.950 . S
C716 C714 1.391 . S
C716 C717 1.400 . S
C717 C711 1.491 1_545 S
C717 C716 1.400 . S
C717 C718 1.398 . S
C718 H706 0.950 1_545 S
C718 C717 1.398 . S
C718 C719 1.391 . S
C719 H707 0.950 . S
C719 C715 1.393 . S
C719 C718 1.391 . S
H720 C728 0.950 . S
H721 C733 0.950 . S
H722 C730 0.950 . S
H723 C732 0.950 . S
H724 C734 0.950 . S
H725 C736 0.950 . S
H726 C738 0.950 . S
H727 C739 0.950 . S
C728 H720 0.950 . S
C728 C729 1.386 . S
C728 C730 1.391 . S
C729 C728 1.386 . S
C729 C733 1.393 . S
C730 H722 0.950 . S
C730 C728 1.391 . S
C730 C731 1.400 . S
C731 C730 1.400 . S
C731 C732 1.398 . S
C731 C737 1.491 . S
C732 H723 0.950 . S
C732 C731 1.398 . S
C732 C733 1.391 . S
C733 H721 0.950 . S
C733 C729 1.393 . S
C733 C732 1.391 . S
C734 H724 0.950 . S
C734 C735 1.386 . S
C734 C736 1.391 . S
C735 C734 1.386 . S
C735 C739 1.393 . S
C736 H725 0.950 . S
C736 C734 1.391 . S
C736 C737 1.400 . S
C737 C731 1.491 . S
C737 C736 1.400 . S
C737 C738 1.398 . S
C738 H726 0.950 . S
C738 C737 1.398 . S
C738 C739 1.391 . S
C739 H727 0.950 . S
C739 C735 1.393 . S
C739 C738 1.391 . S
H740 C748 0.950 . S
H741 C753 0.950 . S
H742 C750 0.950 . S
H743 C752 0.950 . S
H744 C754 0.950 . S
H745 C756 0.950 . S
H746 C758 0.950 . S
H747 C759 0.950 . S
C748 H740 0.950 . S
C748 C749 1.386 . S
C748 C750 1.391 . S
C749 C748 1.386 . S
C749 C753 1.393 . S
C750 H742 0.950 . S
C750 C748 1.391 . S
C750 C751 1.400 . S
C751 C750 1.400 . S
C751 C752 1.398 . S
C751 C757 1.491 . S
C752 H743 0.950 . S
C752 C751 1.398 . S
C752 C753 1.391 . S
C753 H741 0.950 . S
C753 C749 1.393 . S
C753 C752 1.391 . S
C754 H744 0.950 . S
C754 C755 1.386 . S
C754 C756 1.391 . S
C755 C754 1.386 . S
C755 C759 1.393 . S
C756 H745 0.950 . S
C756 C754 1.391 . S
C756 C757 1.400 . S
C757 C751 1.491 . S
C757 C756 1.400 . S
C757 C758 1.398 . S
C758 H746 0.950 . S
C758 C757 1.398 . S
C758 C759 1.391 . S
C759 H747 0.950 . S
C759 C755 1.393 . S
C759 C758 1.391 . S
H760 C768 0.950 . S
H761 C773 0.950 . S
H762 C770 0.950 . S
H763 C772 0.950 . S
H764 C774 0.950 . S
H765 C776 0.950 . S
H766 C778 0.950 . S
H767 C779 0.950 . S
C768 H760 0.950 . S
C768 C769 1.386 . S
C768 C770 1.391 . S
C769 C768 1.386 . S
C769 C773 1.393 . S
C770 H762 0.950 . S
C770 C768 1.391 . S
C770 C771 1.400 . S
C771 C770 1.400 . S
C771 C772 1.398 . S
C771 C777 1.491 . S
C772 H763 0.950 . S
C772 C771 1.398 . S
C772 C773 1.391 . S
C773 H761 0.950 . S
C773 C769 1.393 . S
C773 C772 1.391 . S
C774 H764 0.950 . S
C774 C775 1.386 . S
C774 C776 1.391 . S
C775 C774 1.386 . S
C775 C779 1.393 . S
C776 H765 0.950 . S
C776 C774 1.391 . S
C776 C777 1.400 . S
C777 C771 1.491 . S
C777 C776 1.400 . S
C777 C778 1.398 . S
C778 H766 0.950 . S
C778 C777 1.398 . S
C778 C779 1.391 . S
C779 H767 0.950 . S
C779 C775 1.393 . S
C779 C778 1.391 . S
H780 C788 0.950 . S
H781 C793 0.950 . S
H782 C790 0.950 . S
H783 C792 0.950 . S
H784 C794 0.950 . S
H785 C796 0.950 . S
H786 C798 0.950 . S
H787 C799 0.950 . S
C788 H780 0.950 . S
C788 C789 1.386 . S
C788 C790 1.391 . S
C789 C788 1.386 . S
C789 C793 1.393 1_565 S
C790 H782 0.950 . S
C790 C788 1.391 . S
C790 C791 1.400 . S
C791 C790 1.400 . S
C791 C792 1.398 1_565 S
C791 C797 1.491 . S
C792 H783 0.950 . S
C792 C791 1.398 1_545 S
C792 C793 1.391 . S
C793 H781 0.950 . S
C793 C789 1.393 1_545 S
C793 C792 1.391 . S
C794 H784 0.950 . S
C794 C795 1.386 1_545 S
C794 C796 1.391 . S
C795 C794 1.386 1_565 S
C795 C799 1.393 . S
C796 H785 0.950 . S
C796 C794 1.391 . S
C796 C797 1.400 1_545 S
C797 C791 1.491 . S
C797 C796 1.400 1_565 S
C797 C798 1.398 . S
C798 H786 0.950 . S
C798 C797 1.398 . S
C798 C799 1.391 . S
C799 H787 0.950 . S
C799 C795 1.393 . S
C799 C798 1.391 . S
H800 C808 0.950 . S
H801 C813 0.950 . S
H802 C810 0.950 . S
H803 C812 0.950 . S
H804 C814 0.950 . S
H805 C816 0.950 . S
H806 C818 0.950 . S
H807 C819 0.950 . S
C808 H800 0.950 . S
C808 C809 1.386 . S
C808 C810 1.391 . S
C809 C808 1.386 . S
C809 C813 1.393 . S
C810 H802 0.950 . S
C810 C808 1.391 . S
C810 C811 1.400 . S
C811 C810 1.400 . S
C811 C812 1.398 . S
C811 C817 1.491 . S
C812 H803 0.950 . S
C812 C811 1.398 . S
C812 C813 1.391 . S
C813 H801 0.950 . S
C813 C809 1.393 . S
C813 C812 1.391 . S
C814 H804 0.950 . S
C814 C815 1.386 . S
C814 C816 1.391 . S
C815 C814 1.386 . S
C815 C819 1.393 . S
C816 H805 0.950 . S
C816 C814 1.391 . S
C816 C817 1.400 . S
C817 C811 1.491 . S
C817 C816 1.400 . S
C817 C818 1.398 . S
C818 H806 0.950 . S
C818 C817 1.398 . S
C818 C819 1.391 . S
C819 H807 0.950 . S
C819 C815 1.393 . S
C819 C818 1.391 . S
H820 C828 0.950 . S
H821 C833 0.950 . S
H822 C830 0.950 . S
H823 C832 0.950 . S
H824 C834 0.950 . S
H825 C836 0.950 . S
H826 C838 0.950 . S
H827 C839 0.950 . S
C828 H820 0.950 . S
C828 C829 1.386 . S
C828 C830 1.391 . S
C829 C828 1.386 . S
C829 C833 1.393 . S
C830 H822 0.950 . S
C830 C828 1.391 . S
C830 C831 1.400 . S
C831 C830 1.400 . S
C831 C832 1.398 . S
C831 C837 1.491 . S
C832 H823 0.950 . S
C832 C831 1.398 . S
C832 C833 1.391 . S
C833 H821 0.950 . S
C833 C829 1.393 . S
C833 C832 1.391 . S
C834 H824 0.950 . S
C834 C835 1.386 . S
C834 C836 1.391 . S
C835 C834 1.386 . S
C835 C839 1.393 . S
C836 H825 0.950 . S
C836 C834 1.391 . S
C836 C837 1.400 . S
C837 C831 1.491 . S
C837 C836 1.400 . S
C837 C838 1.398 . S
C838 H826 0.950 . S
C838 C837 1.398 . S
C838 C839 1.391 . S
C839 H827 0.950 . S
C839 C835 1.393 . S
C839 C838 1.391 . S
H840 C848 0.950 . S
H841 C853 0.950 . S
H842 C850 0.950 . S
H843 C852 0.950 . S
H844 C854 0.950 . S
H845 C856 0.950 . S
H846 C858 0.950 . S
H847 C859 0.950 . S
C848 H840 0.950 . S
C848 C849 1.386 . S
C848 C850 1.391 . S
C849 C848 1.386 . S
C849 C853 1.393 . S
C850 H842 0.950 . S
C850 C848 1.391 . S
C850 C851 1.400 . S
C851 C850 1.400 . S
C851 C852 1.398 . S
C851 C857 1.491 . S
C852 H843 0.950 . S
C852 C851 1.398 . S
C852 C853 1.391 . S
C853 H841 0.950 . S
C853 C849 1.393 . S
C853 C852 1.391 . S
C854 H844 0.950 . S
C854 C855 1.386 . S
C854 C856 1.391 . S
C855 C854 1.386 . S
C855 C859 1.393 . S
C856 H845 0.950 . S
C856 C854 1.391 . S
C856 C857 1.400 . S
C857 C851 1.491 . S
C857 C856 1.400 . S
C857 C858 1.398 . S
C858 H846 0.950 . S
C858 C857 1.398 . S
C858 C859 1.391 . S
C859 H847 0.950 . S
C859 C855 1.393 . S
C859 C858 1.391 . S
H860 C868 0.950 . S
H861 C873 0.950 . S
H862 C870 0.950 . S
H863 C872 0.950 . S
H864 C874 0.950 . S
H865 C876 0.950 . S
H866 C878 0.950 . S
H867 C879 0.950 . S
C868 H860 0.950 . S
C868 C869 1.386 . S
C868 C870 1.391 . S
C869 C868 1.386 . S
C869 C873 1.393 . S
C870 H862 0.950 . S
C870 C868 1.391 . S
C870 C871 1.400 . S
C871 C870 1.400 . S
C871 C872 1.398 . S
C871 C877 1.491 . S
C872 H863 0.950 . S
C872 C871 1.398 . S
C872 C873 1.391 . S
C873 H861 0.950 . S
C873 C869 1.393 . S
C873 C872 1.391 . S
C874 H864 0.950 . S
C874 C875 1.386 . S
C874 C876 1.391 . S
C875 C874 1.386 . S
C875 C879 1.393 . S
C876 H865 0.950 . S
C876 C874 1.391 . S
C876 C877 1.400 . S
C877 C871 1.491 . S
C877 C876 1.400 . S
C877 C878 1.398 . S
C878 H866 0.950 . S
C878 C877 1.398 . S
C878 C879 1.391 . S
C879 H867 0.950 . S
C879 C875 1.393 . S
C879 C878 1.391 . S
H880 C888 0.950 . S
H881 C893 0.950 . S
H882 C890 0.950 . S
H883 C892 0.950 . S
H884 C894 0.950 . S
H885 C896 0.950 . S
H886 C898 0.950 . S
H887 C899 0.950 1_455 S
C888 H880 0.950 . S
C888 C889 1.386 . S
C888 C890 1.391 . S
C889 C888 1.386 . S
C889 C893 1.393 . S
C890 H882 0.950 . S
C890 C888 1.391 . S
C890 C891 1.400 . S
C891 C890 1.400 . S
C891 C892 1.398 . S
C891 C897 1.491 . S
C892 H883 0.950 . S
C892 C891 1.398 . S
C892 C893 1.391 . S
C893 H881 0.950 . S
C893 C889 1.393 . S
C893 C892 1.391 . S
C894 H884 0.950 . S
C894 C895 1.386 . S
C894 C896 1.391 . S
C895 C894 1.386 . S
C895 C899 1.393 . S
C896 H885 0.950 . S
C896 C894 1.391 . S
C896 C897 1.400 . S
C897 C891 1.491 . S
C897 C896 1.400 . S
C897 C898 1.398 . S
C898 H886 0.950 . S
C898 C897 1.398 . S
C898 C899 1.391 . S
C899 H887 0.950 1_655 S
C899 C895 1.393 . S
C899 C898 1.391 . S
H900 C908 0.950 . S
H901 C913 0.950 . S
H902 C910 0.950 . S
H903 C912 0.950 . S
H904 C914 0.950 . S
H905 C916 0.950 . S
H906 C918 0.950 1_655 S
H907 C919 0.950 1_655 S
C908 H900 0.950 . S
C908 C909 1.386 . S
C908 C910 1.391 . S
C909 C908 1.386 . S
C909 C913 1.393 . S
C910 H902 0.950 . S
C910 C908 1.391 . S
C910 C911 1.400 . S
C911 C910 1.400 . S
C911 C912 1.398 . S
C911 C917 1.491 . S
C912 H903 0.950 . S
C912 C911 1.398 . S
C912 C913 1.391 . S
C913 H901 0.950 . S
C913 C909 1.393 . S
C913 C912 1.391 . S
C914 H904 0.950 . S
C914 C915 1.386 . S
C914 C916 1.391 . S
C915 C914 1.386 . S
C915 C919 1.393 . S
C916 H905 0.950 . S
C916 C914 1.391 . S
C916 C917 1.400 . S
C917 C911 1.491 . S
C917 C916 1.400 . S
C917 C918 1.398 . S
C918 H906 0.950 1_455 S
C918 C917 1.398 . S
C918 C919 1.391 . S
C919 H907 0.950 1_455 S
C919 C915 1.393 . S
C919 C918 1.391 . S
H920 C928 0.950 . S
H921 C933 0.950 . S
H922 C930 0.950 . S
H923 C932 0.950 . S
H924 C934 0.950 . S
H925 C936 0.950 . S
H926 C938 0.950 . S
H927 C939 0.950 . S
C928 H920 0.950 . S
C928 C929 1.386 . S
C928 C930 1.391 . S
C929 C928 1.386 . S
C929 C933 1.393 . S
C930 H922 0.950 . S
C930 C928 1.391 . S
C930 C931 1.400 . S
C931 C930 1.400 . S
C931 C932 1.398 . S
C931 C937 1.491 . S
C932 H923 0.950 . S
C932 C931 1.398 . S
C932 C933 1.391 . S
C933 H921 0.950 . S
C933 C929 1.393 . S
C933 C932 1.391 . S
C934 H924 0.950 . S
C934 C935 1.386 . S
C934 C936 1.391 . S
C935 C934 1.386 . S
C935 C939 1.393 . S
C936 H925 0.950 . S
C936 C934 1.391 . S
C936 C937 1.400 . S
C937 C931 1.491 . S
C937 C936 1.400 . S
C937 C938 1.398 . S
C938 H926 0.950 . S
C938 C937 1.398 . S
C938 C939 1.391 . S
C939 H927 0.950 . S
C939 C935 1.393 . S
C939 C938 1.391 . S
H940 C948 0.950 . S
H941 C953 0.950 . S
H942 C950 0.950 . S
H943 C952 0.950 . S
H944 C954 0.950 . S
H945 C956 0.950 . S
H946 C958 0.950 . S
H947 C959 0.950 . S
C948 H940 0.950 . S
C948 C949 1.386 . S
C948 C950 1.391 . S
C949 C948 1.386 . S
C949 C953 1.393 1_655 S
C950 H942 0.950 . S
C950 C948 1.391 . S
C950 C951 1.389 1_655 S
C951 C950 1.389 1_455 S
C951 C952 1.412 . S
C951 C957 1.489 . S
C952 H943 0.950 . S
C952 C951 1.412 . S
C952 C953 1.391 . S
C953 H941 0.950 . S
C953 C949 1.393 1_455 S
C953 C952 1.391 . S
C954 H944 0.950 . S
C954 C955 1.386 . S
C954 C956 1.391 . S
C955 C954 1.386 . S
C955 C959 1.393 1_455 S
C956 H945 0.950 . S
C956 C954 1.391 . S
C956 C957 1.400 . S
C957 C951 1.489 . S
C957 C956 1.400 . S
C957 C958 1.398 1_455 S
C958 H946 0.950 . S
C958 C957 1.398 1_655 S
C958 C959 1.391 . S
C959 H947 0.950 . S
C959 C955 1.393 1_655 S
C959 C958 1.391 . S
H960 C968 0.950 . S
H961 C973 0.950 . S
H962 C970 0.950 . S
H963 C972 0.950 . S
H964 C974 0.950 . S
H965 C976 0.950 . S
H966 C978 0.950 . S
H967 C979 0.950 . S
C968 H960 0.950 . S
C968 C969 1.386 . S
C968 C970 1.391 . S
C969 C968 1.386 . S
C969 C973 1.393 . S
C970 H962 0.950 . S
C970 C968 1.391 . S
C970 C971 1.400 . S
C971 C970 1.400 . S
C971 C972 1.398 . S
C971 C977 1.491 . S
C972 H963 0.950 . S
C972 C971 1.398 . S
C972 C973 1.391 . S
C973 H961 0.950 . S
C973 C969 1.393 . S
C973 C972 1.391 . S
C974 H964 0.950 . S
C974 C975 1.386 . S
C974 C976 1.391 . S
C975 C974 1.386 . S
C975 C979 1.393 . S
C976 H965 0.950 . S
C976 C974 1.391 . S
C976 C977 1.400 . S
C977 C971 1.491 . S
C977 C976 1.400 . S
C977 C978 1.398 . S
C978 H966 0.950 . S
C978 C977 1.398 . S
C978 C979 1.391 . S
C979 H967 0.950 . S
C979 C975 1.393 . S
C979 C978 1.391 . S
H980 C988 0.950 . S
H981 C993 0.950 . S
H982 C990 0.950 . S
H983 C992 0.950 . S
H984 C994 0.950 . S
H985 C996 0.950 . S
H986 C998 0.950 . S
H987 C999 0.950 . S
C988 H980 0.950 . S
C988 C989 1.386 . S
C988 C990 1.391 . S
C989 C988 1.386 . S
C989 C993 1.393 . S
C990 H982 0.950 . S
C990 C988 1.391 . S
C990 C991 1.400 . S
C991 C990 1.400 . S
C991 C992 1.398 . S
C991 C997 1.491 . S
C992 H983 0.950 . S
C992 C991 1.398 . S
C992 C993 1.391 . S
C993 H981 0.950 . S
C993 C989 1.393 . S
C993 C992 1.391 . S
C994 H984 0.950 . S
C994 C995 1.386 . S
C994 C996 1.391 . S
C995 C994 1.386 . S
C995 C999 1.393 . S
C996 H985 0.950 . S
C996 C994 1.391 . S
C996 C997 1.400 . S
C997 C991 1.491 . S
C997 C996 1.400 . S
C997 C998 1.398 . S
C998 H986 0.950 . S
C998 C997 1.398 . S
C998 C999 1.391 . S
C999 H987 0.950 . S
C999 C995 1.393 . S
C999 C998 1.391 . S
H1000 C1008 0.960 . S
H1001 C1013 0.950 . S
H1002 C1010 0.950 . S
H1003 C1012 0.950 . S
H1004 C1014 0.950 . S
H1005 C1016 0.967 . S
H1006 C1018 0.950 . S
H1007 C1019 0.950 . S
C1008 H1000 0.960 . S
C1008 C1009 1.364 1_564 S
C1008 C1010 1.403 . S
C1009 C1008 1.364 1_546 S
C1009 C1013 1.393 . S
C1010 H1002 0.950 . S
C1010 C1008 1.403 . S
C1010 C1011 1.400 1_554 S
C1011 C1010 1.400 1_556 S
C1011 C1012 1.398 1_565 S
C1011 C1017 1.491 . S
C1012 H1003 0.950 . S
C1012 C1011 1.398 1_545 S
C1012 C1013 1.391 . S
C1013 H1001 0.950 . S
C1013 C1009 1.393 . S
C1013 C1012 1.391 . S
C1014 H1004 0.950 . S
C1014 C1015 1.386 . S
C1014 C1016 1.391 . S
C1015 C1014 1.386 . S
C1015 C1019 1.393 1_556 S
C1016 H1005 0.967 . S
C1016 C1014 1.391 . S
C1016 C1017 1.400 . S
C1017 C1011 1.491 . S
C1017 C1016 1.400 . S
C1017 C1018 1.398 1_556 S
C1018 H1006 0.950 . S
C1018 C1017 1.398 1_554 S
C1018 C1019 1.391 . S
C1019 H1007 0.950 . S
C1019 C1015 1.393 1_554 S
C1019 C1018 1.391 . S
H1020 C1028 0.950 . S
H1021 C1033 0.950 . S
H1022 C1030 0.950 . S
H1023 C1032 0.950 . S
H1024 C1034 0.950 . S
H1025 C1036 0.950 . S
H1026 C1038 0.950 . S
H1027 C1039 0.950 . S
C1028 H1020 0.950 . S
C1028 C1029 1.386 . S
C1028 C1030 1.391 . S
C1029 C1028 1.386 . S
C1029 C1033 1.393 . S
C1030 H1022 0.950 . S
C1030 C1028 1.391 . S
C1030 C1031 1.400 . S
C1031 C1030 1.400 . S
C1031 C1032 1.398 . S
C1031 C1037 1.491 . S
C1032 H1023 0.950 . S
C1032 C1031 1.398 . S
C1032 C1033 1.391 . S
C1033 H1021 0.950 . S
C1033 C1029 1.393 . S
C1033 C1032 1.391 . S
C1034 H1024 0.950 . S
C1034 C1035 1.386 . S
C1034 C1036 1.391 . S
C1035 C1034 1.386 . S
C1035 C1039 1.393 . S
C1036 H1025 0.950 . S
C1036 C1034 1.391 . S
C1036 C1037 1.400 . S
C1037 C1031 1.491 . S
C1037 C1036 1.400 . S
C1037 C1038 1.398 . S
C1038 H1026 0.950 . S
C1038 C1037 1.398 . S
C1038 C1039 1.391 . S
C1039 H1027 0.950 . S
C1039 C1035 1.393 . S
C1039 C1038 1.391 . S
H1040 C1048 0.950 1_565 S
H1041 C1053 0.950 . S
H1042 C1050 0.950 . S
H1043 C1052 0.950 . S
H1044 C1054 0.950 . S
H1045 C1056 0.950 . S
H1046 C1058 0.950 . S
H1047 C1059 0.950 . S
C1048 H1040 0.950 1_545 S
C1048 C1049 1.386 . S
C1048 C1050 1.391 . S
C1049 C1048 1.386 . S
C1049 C1053 1.393 . S
C1050 H1042 0.950 . S
C1050 C1048 1.391 . S
C1050 C1051 1.400 . S
C1051 C1050 1.400 . S
C1051 C1052 1.398 . S
C1051 C1057 1.491 . S
C1052 H1043 0.950 . S
C1052 C1051 1.398 . S
C1052 C1053 1.391 . S
C1053 H1041 0.950 . S
C1053 C1049 1.393 . S
C1053 C1052 1.391 . S
C1054 H1044 0.950 . S
C1054 C1055 1.386 . S
C1054 C1056 1.391 . S
C1055 C1054 1.386 . S
C1055 C1059 1.393 . S
C1056 H1045 0.950 . S
C1056 C1054 1.391 . S
C1056 C1057 1.400 . S
C1057 C1051 1.491 . S
C1057 C1056 1.400 . S
C1057 C1058 1.398 . S
C1058 H1046 0.950 . S
C1058 C1057 1.398 . S
C1058 C1059 1.391 . S
C1059 H1047 0.950 . S
C1059 C1055 1.393 . S
C1059 C1058 1.391 . S
H1060 C1068 0.950 . S
H1061 C1073 0.950 . S
H1062 C1070 0.950 . S
H1063 C1072 0.950 . S
H1064 C1074 0.950 . S
H1065 C1076 0.950 . S
H1066 C1078 0.950 . S
H1067 C1079 0.950 . S
C1068 H1060 0.950 . S
C1068 C1069 1.386 . S
C1068 C1070 1.391 . S
C1069 C1068 1.386 . S
C1069 C1073 1.393 . S
C1070 H1062 0.950 . S
C1070 C1068 1.391 . S
C1070 C1071 1.400 . S
C1071 C1070 1.400 . S
C1071 C1072 1.398 . S
C1071 C1077 1.491 . S
C1072 H1063 0.950 . S
C1072 C1071 1.398 . S
C1072 C1073 1.391 . S
C1073 H1061 0.950 . S
C1073 C1069 1.393 . S
C1073 C1072 1.391 . S
C1074 H1064 0.950 . S
C1074 C1075 1.386 . S
C1074 C1076 1.391 . S
C1075 C1074 1.386 . S
C1075 C1079 1.393 . S
C1076 H1065 0.950 . S
C1076 C1074 1.391 . S
C1076 C1077 1.400 . S
C1077 C1071 1.491 . S
C1077 C1076 1.400 . S
C1077 C1078 1.398 . S
C1078 H1066 0.950 . S
C1078 C1077 1.398 . S
C1078 C1079 1.391 . S
C1079 H1067 0.950 . S
C1079 C1075 1.393 . S
C1079 C1078 1.391 . S
H1080 C1088 0.950 . S
H1081 C1093 0.955 . S
H1082 C1090 0.950 . S
H1083 C1092 0.950 . S
H1084 C1094 0.950 . S
H1085 C1096 0.950 . S
H1086 C1098 0.950 . S
H1087 C1099 0.950 . S
C1088 H1080 0.950 . S
C1088 C1089 1.386 . S
C1088 C1090 1.391 . S
C1089 C1088 1.386 . S
C1089 C1093 1.393 1_545 S
C1090 H1082 0.950 . S
C1090 C1088 1.391 . S
C1090 C1091 1.400 . S
C1091 C1090 1.400 . S
C1091 C1092 1.398 . S
C1091 C1097 1.491 . S
C1092 H1083 0.950 . S
C1092 C1091 1.398 . S
C1092 C1093 1.385 1_545 S
C1093 H1081 0.955 . S
C1093 C1089 1.393 1_565 S
C1093 C1092 1.385 1_565 S
C1094 H1084 0.950 . S
C1094 C1095 1.386 . S
C1094 C1096 1.391 . S
C1095 C1094 1.386 . S
C1095 C1099 1.393 . S
C1096 H1085 0.950 . S
C1096 C1094 1.391 . S
C1096 C1097 1.400 . S
C1097 C1091 1.491 . S
C1097 C1096 1.400 . S
C1097 C1098 1.398 . S
C1098 H1086 0.950 . S
C1098 C1097 1.398 . S
C1098 C1099 1.391 . S
C1099 H1087 0.950 . S
C1099 C1095 1.393 . S
C1099 C1098 1.391 . S
H1100 C1108 0.950 . S
H1101 C1113 0.950 . S
H1102 C1110 0.950 . S
H1103 C1112 0.950 . S
H1104 C1114 0.950 . S
H1105 C1116 0.950 . S
H1106 C1118 0.950 . S
H1107 C1119 0.950 . S
C1108 H1100 0.950 . S
C1108 C1109 1.386 . S
C1108 C1110 1.391 . S
C1109 C1108 1.386 . S
C1109 C1113 1.393 . S
C1110 H1102 0.950 . S
C1110 C1108 1.391 . S
C1110 C1111 1.400 . S
C1111 C1110 1.400 . S
C1111 C1112 1.398 . S
C1111 C1117 1.491 . S
C1112 H1103 0.950 . S
C1112 C1111 1.398 . S
C1112 C1113 1.391 . S
C1113 H1101 0.950 . S
C1113 C1109 1.393 . S
C1113 C1112 1.391 . S
C1114 H1104 0.950 . S
C1114 C1115 1.386 . S
C1114 C1116 1.391 . S
C1115 C1114 1.386 . S
C1115 C1119 1.393 . S
C1116 H1105 0.950 . S
C1116 C1114 1.391 . S
C1116 C1117 1.400 . S
C1117 C1111 1.491 . S
C1117 C1116 1.400 . S
C1117 C1118 1.398 . S
C1118 H1106 0.950 . S
C1118 C1117 1.398 . S
C1118 C1119 1.391 . S
C1119 H1107 0.950 . S
C1119 C1115 1.393 . S
C1119 C1118 1.391 . S
H1120 C1128 0.950 . S
H1121 C1133 0.950 . S
H1122 C1130 0.950 . S
H1123 C1132 0.950 . S
H1124 C1134 0.950 . S
H1125 C1136 0.950 . S
H1126 C1138 0.950 . S
H1127 C1139 0.950 . S
C1128 H1120 0.950 . S
C1128 C1129 1.386 . S
C1128 C1130 1.391 . S
C1129 C1128 1.386 . S
C1129 C1133 1.393 . S
C1130 H1122 0.950 . S
C1130 C1128 1.391 . S
C1130 C1131 1.400 . S
C1131 C1130 1.400 . S
C1131 C1132 1.398 . S
C1131 C1137 1.491 . S
C1132 H1123 0.950 . S
C1132 C1131 1.398 . S
C1132 C1133 1.391 . S
C1133 H1121 0.950 . S
C1133 C1129 1.393 . S
C1133 C1132 1.391 . S
C1134 H1124 0.950 . S
C1134 C1135 1.386 . S
C1134 C1136 1.391 . S
C1135 C1134 1.386 . S
C1135 C1139 1.393 . S
C1136 H1125 0.950 . S
C1136 C1134 1.391 . S
C1136 C1137 1.400 . S
C1137 C1131 1.491 . S
C1137 C1136 1.400 . S
C1137 C1138 1.398 . S
C1138 H1126 0.950 . S
C1138 C1137 1.398 . S
C1138 C1139 1.391 . S
C1139 H1127 0.950 . S
C1139 C1135 1.393 . S
C1139 C1138 1.391 . S
H1140 C1148 0.950 . S
H1141 C1153 0.950 . S
H1142 C1150 0.950 . S
H1143 C1152 0.950 . S
H1144 C1154 0.950 . S
H1145 C1156 0.950 . S
H1146 C1158 0.950 . S
H1147 C1159 0.941 1_565 S
C1148 H1140 0.950 . S
C1148 C1149 1.386 . S
C1148 C1150 1.391 . S
C1149 C1148 1.386 . S
C1149 C1153 1.393 . S
C1150 H1142 0.950 . S
C1150 C1148 1.391 . S
C1150 C1151 1.400 . S
C1151 C1150 1.400 . S
C1151 C1152 1.398 . S
C1151 C1157 1.491 . S
C1152 H1143 0.950 . S
C1152 C1151 1.398 . S
C1152 C1153 1.391 . S
C1153 H1141 0.950 . S
C1153 C1149 1.393 . S
C1153 C1152 1.391 . S
C1154 H1144 0.950 . S
C1154 C1155 1.386 . S
C1154 C1156 1.391 . S
C1155 C1154 1.386 . S
C1155 C1159 1.394 . S
C1156 H1145 0.950 . S
C1156 C1154 1.391 . S
C1156 C1157 1.400 . S
C1157 C1151 1.491 . S
C1157 C1156 1.400 . S
C1157 C1158 1.398 . S
C1158 H1146 0.950 . S
C1158 C1157 1.398 . S
C1158 C1159 1.398 . S
C1159 H1147 0.941 1_545 S
C1159 C1155 1.394 . S
C1159 C1158 1.398 . S
H1160 C1168 0.950 . S
H1161 C1173 0.950 . S
H1162 C1170 0.950 . S
H1163 C1172 0.950 . S
H1164 C1174 0.950 . S
H1165 C1176 0.950 . S
H1166 C1178 0.950 . S
H1167 C1179 0.950 . S
C1168 H1160 0.950 . S
C1168 C1169 1.386 . S
C1168 C1170 1.391 . S
C1169 C1168 1.386 . S
C1169 C1173 1.393 . S
C1170 H1162 0.950 . S
C1170 C1168 1.391 . S
C1170 C1171 1.400 . S
C1171 C1170 1.400 . S
C1171 C1172 1.398 . S
C1171 C1177 1.491 . S
C1172 H1163 0.950 . S
C1172 C1171 1.398 . S
C1172 C1173 1.391 . S
C1173 H1161 0.950 . S
C1173 C1169 1.393 . S
C1173 C1172 1.391 . S
C1174 H1164 0.950 . S
C1174 C1175 1.386 . S
C1174 C1176 1.391 . S
C1175 C1174 1.386 . S
C1175 C1179 1.393 . S
C1176 H1165 0.950 . S
C1176 C1174 1.391 . S
C1176 C1177 1.400 . S
C1177 C1171 1.491 . S
C1177 C1176 1.400 . S
C1177 C1178 1.398 . S
C1178 H1166 0.950 . S
C1178 C1177 1.398 . S
C1178 C1179 1.391 . S
C1179 H1167 0.950 . S
C1179 C1175 1.393 . S
C1179 C1178 1.391 . S
H1180 C1188 0.950 . S
H1181 C1193 0.950 . S
H1182 C1190 0.950 . S
H1183 C1192 0.950 . S
H1184 C1194 0.950 . S
H1185 C1196 0.950 . S
H1186 C1198 0.950 . S
H1187 C1199 0.950 . S
C1188 H1180 0.950 . S
C1188 C1189 1.386 . S
C1188 C1190 1.391 . S
C1189 C1188 1.386 . S
C1189 C1193 1.393 . S
C1190 H1182 0.950 . S
C1190 C1188 1.391 . S
C1190 C1191 1.400 . S
C1191 C1190 1.400 . S
C1191 C1192 1.398 . S
C1191 C1197 1.491 . S
C1192 H1183 0.950 . S
C1192 C1191 1.398 . S
C1192 C1193 1.391 . S
C1193 H1181 0.950 . S
C1193 C1189 1.393 . S
C1193 C1192 1.391 . S
C1194 H1184 0.950 . S
C1194 C1195 1.386 . S
C1194 C1196 1.391 . S
C1195 C1194 1.386 . S
C1195 C1199 1.393 . S
C1196 H1185 0.950 . S
C1196 C1194 1.391 . S
C1196 C1197 1.400 . S
C1197 C1191 1.491 . S
C1197 C1196 1.400 . S
C1197 C1198 1.398 . S
C1198 H1186 0.950 . S
C1198 C1197 1.398 . S
C1198 C1199 1.391 . S
C1199 H1187 0.950 . S
C1199 C1195 1.393 . S
C1199 C1198 1.391 . S
H1200 C1208 0.950 . S
H1201 C1213 0.950 . S
H1202 C1210 0.950 . S
H1203 C1212 0.950 . S
H1204 C1214 0.950 . S
H1205 C1216 0.950 . S
H1206 C1218 0.950 . S
H1207 C1219 0.950 . S
C1208 H1200 0.950 . S
C1208 C1209 1.386 . S
C1208 C1210 1.391 . S
C1209 C1208 1.386 . S
C1209 C1213 1.393 . S
C1210 H1202 0.950 . S
C1210 C1208 1.391 . S
C1210 C1211 1.400 . S
C1211 C1210 1.400 . S
C1211 C1212 1.398 . S
C1211 C1217 1.491 . S
C1212 H1203 0.950 . S
C1212 C1211 1.398 . S
C1212 C1213 1.391 . S
C1213 H1201 0.950 . S
C1213 C1209 1.393 . S
C1213 C1212 1.391 . S
C1214 H1204 0.950 . S
C1214 C1215 1.386 . S
C1214 C1216 1.391 . S
C1215 C1214 1.386 . S
C1215 C1219 1.393 . S
C1216 H1205 0.950 . S
C1216 C1214 1.391 . S
C1216 C1217 1.400 . S
C1217 C1211 1.491 . S
C1217 C1216 1.400 . S
C1217 C1218 1.398 . S
C1218 H1206 0.950 . S
C1218 C1217 1.398 . S
C1218 C1219 1.391 . S
C1219 H1207 0.950 . S
C1219 C1215 1.393 . S
C1219 C1218 1.391 . S
H1220 C1228 0.950 . S
H1221 C1233 0.950 1_565 S
H1222 C1230 0.950 . S
H1223 C1232 0.950 1_565 S
H1224 C1234 0.950 1_565 S
H1225 C1236 0.950 1_565 S
H1226 C1238 0.950 . S
H1227 C1239 0.950 . S
C1228 H1220 0.950 . S
C1228 C1229 1.386 . S
C1228 C1230 1.391 . S
C1229 C1228 1.386 . S
C1229 C1233 1.393 . S
C1230 H1222 0.950 . S
C1230 C1228 1.391 . S
C1230 C1231 1.400 . S
C1231 C1230 1.400 . S
C1231 C1232 1.398 . S
C1231 C1237 1.491 . S
C1232 H1223 0.950 1_545 S
C1232 C1231 1.398 . S
C1232 C1233 1.391 . S
C1233 H1221 0.950 1_545 S
C1233 C1229 1.393 . S
C1233 C1232 1.391 . S
C1234 H1224 0.950 1_545 S
C1234 C1235 1.386 . S
C1234 C1236 1.391 . S
C1235 C1234 1.386 . S
C1235 C1239 1.393 . S
C1236 H1225 0.950 1_545 S
C1236 C1234 1.391 . S
C1236 C1237 1.400 . S
C1237 C1231 1.491 . S
C1237 C1236 1.400 . S
C1237 C1238 1.398 . S
C1238 H1226 0.950 . S
C1238 C1237 1.398 . S
C1238 C1239 1.391 . S
C1239 H1227 0.950 . S
C1239 C1235 1.393 . S
C1239 C1238 1.391 . S
H1240 C1248 0.950 . S
H1241 C1253 0.950 . S
H1242 C1250 0.950 . S
H1243 C1252 0.950 . S
H1244 C1254 0.950 . S
H1245 C1256 0.950 . S
H1246 C1258 0.950 . S
H1247 C1259 0.950 . S
C1248 H1240 0.950 . S
C1248 C1249 1.386 . S
C1248 C1250 1.391 . S
C1249 C1248 1.386 . S
C1249 C1253 1.393 . S
C1250 H1242 0.950 . S
C1250 C1248 1.391 . S
C1250 C1251 1.400 . S
C1251 C1250 1.400 . S
C1251 C1252 1.398 . S
C1251 C1257 1.491 . S
C1252 H1243 0.950 . S
C1252 C1251 1.398 . S
C1252 C1253 1.391 . S
C1253 H1241 0.950 . S
C1253 C1249 1.393 . S
C1253 C1252 1.391 . S
C1254 H1244 0.950 . S
C1254 C1255 1.386 . S
C1254 C1256 1.391 . S
C1255 C1254 1.386 . S
C1255 C1259 1.393 . S
C1256 H1245 0.950 . S
C1256 C1254 1.391 . S
C1256 C1257 1.400 . S
C1257 C1251 1.491 . S
C1257 C1256 1.400 . S
C1257 C1258 1.398 . S
C1258 H1246 0.950 . S
C1258 C1257 1.398 . S
C1258 C1259 1.391 . S
C1259 H1247 0.950 . S
C1259 C1255 1.393 . S
C1259 C1258 1.391 . S
H1260 C1268 0.950 . S
H1261 C1273 0.950 1_655 S
H1262 C1270 0.950 . S
H1263 C1272 0.950 . S
H1264 C1274 0.950 . S
H1265 C1276 0.950 . S
H1266 C1278 0.950 . S
H1267 C1279 0.950 . S
C1268 H1260 0.950 . S
C1268 C1269 1.386 . S
C1268 C1270 1.391 . S
C1269 C1268 1.386 . S
C1269 C1273 1.393 . S
C1270 H1262 0.950 . S
C1270 C1268 1.391 . S
C1270 C1271 1.400 . S
C1271 C1270 1.400 . S
C1271 C1272 1.398 . S
C1271 C1277 1.491 . S
C1272 H1263 0.950 . S
C1272 C1271 1.398 . S
C1272 C1273 1.391 . S
C1273 H1261 0.950 1_455 S
C1273 C1269 1.393 . S
C1273 C1272 1.391 . S
C1274 H1264 0.950 . S
C1274 C1275 1.386 . S
C1274 C1276 1.391 . S
C1275 C1274 1.386 . S
C1275 C1279 1.393 . S
C1276 H1265 0.950 . S
C1276 C1274 1.391 . S
C1276 C1277 1.400 . S
C1277 C1271 1.491 . S
C1277 C1276 1.400 . S
C1277 C1278 1.398 . S
C1278 H1266 0.950 . S
C1278 C1277 1.398 . S
C1278 C1279 1.391 . S
C1279 H1267 0.950 . S
C1279 C1275 1.393 . S
C1279 C1278 1.391 . S
H1280 C1288 0.950 . S
H1281 C1293 0.950 . S
H1282 C1290 0.950 . S
H1283 C1292 0.950 . S
H1284 C1294 0.950 . S
H1285 C1296 0.950 . S
H1286 C1298 0.950 . S
H1287 C1299 0.950 . S
C1288 H1280 0.950 . S
C1288 C1289 1.386 . S
C1288 C1290 1.391 . S
C1289 C1288 1.386 . S
C1289 C1293 1.393 . S
C1290 H1282 0.950 . S
C1290 C1288 1.391 . S
C1290 C1291 1.400 . S
C1291 C1290 1.400 . S
C1291 C1292 1.398 . S
C1291 C1297 1.491 . S
C1292 H1283 0.950 . S
C1292 C1291 1.398 . S
C1292 C1293 1.391 . S
C1293 H1281 0.950 . S
C1293 C1289 1.393 . S
C1293 C1292 1.391 . S
C1294 H1284 0.950 . S
C1294 C1295 1.386 . S
C1294 C1296 1.391 . S
C1295 C1294 1.386 . S
C1295 C1299 1.393 . S
C1296 H1285 0.950 . S
C1296 C1294 1.391 . S
C1296 C1297 1.400 . S
C1297 C1291 1.491 . S
C1297 C1296 1.400 . S
C1297 C1298 1.398 . S
C1298 H1286 0.950 . S
C1298 C1297 1.398 . S
C1298 C1299 1.391 . S
C1299 H1287 0.950 . S
C1299 C1295 1.393 . S
C1299 C1298 1.391 . S
H1300 C1308 0.950 . S
H1301 C1313 0.950 . S
H1302 C1310 0.950 . S
H1303 C1312 0.940 1_554 S
H1304 C1314 0.950 . S
H1305 C1316 0.950 . S
H1306 C1318 0.950 . S
H1307 C1319 0.950 1_455 S
C1308 H1300 0.950 . S
C1308 C1309 1.385 . S
C1308 C1310 1.391 . S
C1309 C1308 1.385 . S
C1309 C1313 1.393 1_556 S
C1310 H1302 0.950 . S
C1310 C1308 1.391 . S
C1310 C1311 1.400 . S
C1311 C1310 1.400 . S
C1311 C1312 1.398 . S
C1311 C1317 1.491 . S
C1312 H1303 0.940 1_556 S
C1312 C1311 1.398 . S
C1312 C1313 1.391 1_556 S
C1313 H1301 0.950 . S
C1313 C1309 1.393 1_554 S
C1313 C1312 1.391 1_554 S
C1314 H1304 0.950 . S
C1314 C1315 1.386 . S
C1314 C1316 1.391 . S
C1315 C1314 1.386 . S
C1315 C1319 1.393 . S
C1316 H1305 0.950 . S
C1316 C1314 1.391 . S
C1316 C1317 1.400 . S
C1317 C1311 1.491 . S
C1317 C1316 1.400 . S
C1317 C1318 1.398 . S
C1318 H1306 0.950 . S
C1318 C1317 1.398 . S
C1318 C1319 1.391 . S
C1319 H1307 0.950 1_655 S
C1319 C1315 1.393 . S
C1319 C1318 1.391 . S
H1320 C1328 0.950 . S
H1321 C1333 0.950 . S
H1322 C1330 0.950 . S
H1323 C1332 0.950 . S
H1324 C1334 0.950 . S
H1325 C1336 0.950 . S
H1326 C1338 0.950 . S
H1327 C1339 0.950 . S
C1328 H1320 0.950 . S
C1328 C1329 1.386 . S
C1328 C1330 1.391 . S
C1329 C1328 1.386 . S
C1329 C1333 1.393 . S
C1330 H1322 0.950 . S
C1330 C1328 1.391 . S
C1330 C1331 1.400 . S
C1331 C1330 1.400 . S
C1331 C1332 1.398 . S
C1331 C1337 1.491 . S
C1332 H1323 0.950 . S
C1332 C1331 1.398 . S
C1332 C1333 1.391 . S
C1333 H1321 0.950 . S
C1333 C1329 1.393 . S
C1333 C1332 1.391 . S
C1334 H1324 0.950 . S
C1334 C1335 1.386 . S
C1334 C1336 1.391 . S
C1335 C1334 1.386 . S
C1335 C1339 1.393 . S
C1336 H1325 0.950 . S
C1336 C1334 1.391 . S
C1336 C1337 1.400 . S
C1337 C1331 1.491 . S
C1337 C1336 1.400 . S
C1337 C1338 1.398 . S
C1338 H1326 0.950 . S
C1338 C1337 1.398 . S
C1338 C1339 1.391 . S
C1339 H1327 0.950 . S
C1339 C1335 1.393 . S
C1339 C1338 1.391 . S
H1340 C1348 0.950 . S
H1341 C1353 0.950 1_554 S
H1342 C1350 0.950 . S
H1343 C1352 0.950 . S
H1344 C1354 0.950 . S
H1345 C1356 0.950 . S
H1346 C1358 0.950 . S
H1347 C1359 0.950 . S
C1348 H1340 0.950 . S
C1348 C1349 1.386 1_655 S
C1348 C1350 1.391 . S
C1349 C1348 1.386 1_455 S
C1349 C1353 1.393 . S
C1350 H1342 0.950 . S
C1350 C1348 1.391 . S
C1350 C1351 1.400 1_655 S
C1351 C1350 1.400 1_455 S
C1351 C1352 1.398 . S
C1351 C1357 1.491 . S
C1352 H1343 0.950 . S
C1352 C1351 1.398 . S
C1352 C1353 1.391 . S
C1353 H1341 0.950 1_556 S
C1353 C1349 1.393 . S
C1353 C1352 1.391 . S
C1354 H1344 0.950 . S
C1354 C1355 1.420 . S
C1354 C1356 1.391 . S
C1355 C1354 1.420 . S
C1355 C1359 1.369 1_455 S
C1356 H1345 0.950 . S
C1356 C1354 1.391 . S
C1356 C1357 1.400 . S
C1357 C1351 1.491 . S
C1357 C1356 1.400 . S
C1357 C1358 1.398 1_455 S
C1358 H1346 0.950 . S
C1358 C1357 1.398 1_655 S
C1358 C1359 1.391 . S
C1359 H1347 0.950 . S
C1359 C1355 1.369 1_655 S
C1359 C1358 1.391 . S
H1360 C1368 0.950 . S
H1361 C1373 0.950 . S
H1362 C1370 0.950 . S
H1363 C1372 0.950 . S
H1364 C1374 0.950 . S
H1365 C1376 0.950 . S
H1366 C1378 0.950 . S
H1367 C1379 0.950 . S
C1368 H1360 0.950 . S
C1368 C1369 1.386 . S
C1368 C1370 1.391 . S
C1369 C1368 1.386 . S
C1369 C1373 1.393 . S
C1370 H1362 0.950 . S
C1370 C1368 1.391 . S
C1370 C1371 1.400 . S
C1371 C1370 1.400 . S
C1371 C1372 1.398 . S
C1371 C1377 1.491 . S
C1372 H1363 0.950 . S
C1372 C1371 1.398 . S
C1372 C1373 1.391 . S
C1373 H1361 0.950 . S
C1373 C1369 1.393 . S
C1373 C1372 1.391 . S
C1374 H1364 0.950 . S
C1374 C1375 1.386 . S
C1374 C1376 1.391 . S
C1375 C1374 1.386 . S
C1375 C1379 1.393 . S
C1376 H1365 0.950 . S
C1376 C1374 1.391 . S
C1376 C1377 1.400 . S
C1377 C1371 1.491 . S
C1377 C1376 1.400 . S
C1377 C1378 1.398 . S
C1378 H1366 0.950 . S
C1378 C1377 1.398 . S
C1378 C1379 1.391 . S
C1379 H1367 0.950 . S
C1379 C1375 1.393 . S
C1379 C1378 1.391 . S
H1380 C1388 0.950 . S
H1381 C1393 0.976 . S
H1382 C1390 0.950 . S
H1383 C1392 0.950 . S
H1384 C1394 0.950 . S
H1385 C1396 0.950 . S
H1386 C1398 0.950 . S
H1387 C1399 0.950 . S
C1388 H1380 0.950 . S
C1388 C1389 1.386 . S
C1388 C1390 1.391 . S
C1389 C1388 1.386 . S
C1389 C1393 1.387 1_554 S
C1390 H1382 0.950 . S
C1390 C1388 1.391 . S
C1390 C1391 1.400 . S
C1391 C1390 1.400 . S
C1391 C1392 1.398 . S
C1391 C1397 1.491 . S
C1392 H1383 0.950 . S
C1392 C1391 1.398 . S
C1392 C1393 1.371 1_554 S
C1393 H1381 0.976 . S
C1393 C1389 1.387 1_556 S
C1393 C1392 1.371 1_556 S
C1394 H1384 0.950 . S
C1394 C1395 1.386 . S
C1394 C1396 1.391 . S
C1395 C1394 1.386 . S
C1395 C1399 1.393 . S
C1396 H1385 0.950 . S
C1396 C1394 1.391 . S
C1396 C1397 1.400 . S
C1397 C1391 1.491 . S
C1397 C1396 1.400 . S
C1397 C1398 1.398 . S
C1398 H1386 0.950 . S
C1398 C1397 1.398 . S
C1398 C1399 1.391 . S
C1399 H1387 0.950 . S
C1399 C1395 1.393 . S
C1399 C1398 1.391 . S
H1400 C1408 0.950 . S
H1401 C1413 0.950 . S
H1402 C1410 0.950 . S
H1403 C1412 0.950 . S
H1404 C1414 0.950 . S
H1405 C1416 0.950 . S
H1406 C1418 0.950 . S
H1407 C1419 0.950 . S
C1408 H1400 0.950 . S
C1408 C1409 1.386 . S
C1408 C1410 1.391 . S
C1409 C1408 1.386 . S
C1409 C1413 1.393 . S
C1410 H1402 0.950 . S
C1410 C1408 1.391 . S
C1410 C1411 1.400 . S
C1411 C1410 1.400 . S
C1411 C1412 1.398 . S
C1411 C1417 1.491 . S
C1412 H1403 0.950 . S
C1412 C1411 1.398 . S
C1412 C1413 1.391 . S
C1413 H1401 0.950 . S
C1413 C1409 1.393 . S
C1413 C1412 1.391 . S
C1414 H1404 0.950 . S
C1414 C1415 1.386 . S
C1414 C1416 1.391 . S
C1415 C1414 1.386 . S
C1415 C1419 1.393 . S
C1416 H1405 0.950 . S
C1416 C1414 1.391 . S
C1416 C1417 1.400 . S
C1417 C1411 1.491 . S
C1417 C1416 1.400 . S
C1417 C1418 1.398 . S
C1418 H1406 0.950 . S
C1418 C1417 1.398 . S
C1418 C1419 1.391 . S
C1419 H1407 0.950 . S
C1419 C1415 1.393 . S
C1419 C1418 1.391 . S
H1420 C1428 0.950 . S
H1421 C1433 0.950 . S
H1422 C1430 0.950 . S
H1423 C1432 0.950 . S
H1424 C1434 0.950 . S
H1425 C1436 0.950 . S
H1426 C1438 0.950 . S
H1427 C1439 0.950 . S
C1428 H1420 0.950 . S
C1428 C1429 1.386 . S
C1428 C1430 1.391 . S
C1429 C1428 1.386 . S
C1429 C1433 1.393 . S
C1430 H1422 0.950 . S
C1430 C1428 1.391 . S
C1430 C1431 1.400 . S
C1431 C1430 1.400 . S
C1431 C1432 1.398 . S
C1431 C1437 1.491 . S
C1432 H1423 0.950 . S
C1432 C1431 1.398 . S
C1432 C1433 1.391 . S
C1433 H1421 0.950 . S
C1433 C1429 1.393 . S
C1433 C1432 1.391 . S
C1434 H1424 0.950 . S
C1434 C1435 1.386 . S
C1434 C1436 1.391 . S
C1435 C1434 1.386 . S
C1435 C1439 1.393 . S
C1436 H1425 0.950 . S
C1436 C1434 1.391 . S
C1436 C1437 1.400 . S
C1437 C1431 1.491 . S
C1437 C1436 1.400 . S
C1437 C1438 1.398 . S
C1438 H1426 0.950 . S
C1438 C1437 1.398 . S
C1438 C1439 1.391 . S
C1439 H1427 0.950 . S
C1439 C1435 1.393 . S
C1439 C1438 1.391 . S
H1440 C1448 0.950 . S
H1441 C1453 0.950 . S
H1442 C1450 0.950 . S
H1443 C1452 0.950 . S
H1444 C1454 0.950 . S
H1445 C1456 0.950 . S
H1446 C1458 0.950 . S
H1447 C1459 0.950 . S
C1448 H1440 0.950 . S
C1448 C1449 1.386 . S
C1448 C1450 1.391 . S
C1449 C1448 1.386 . S
C1449 C1453 1.393 . S
C1450 H1442 0.950 . S
C1450 C1448 1.391 . S
C1450 C1451 1.400 . S
C1451 C1450 1.400 . S
C1451 C1452 1.398 . S
C1451 C1457 1.491 . S
C1452 H1443 0.950 . S
C1452 C1451 1.398 . S
C1452 C1453 1.391 . S
C1453 H1441 0.950 . S
C1453 C1449 1.393 . S
C1453 C1452 1.391 . S
C1454 H1444 0.950 . S
C1454 C1455 1.386 . S
C1454 C1456 1.391 . S
C1455 C1454 1.386 . S
C1455 C1459 1.393 . S
C1456 H1445 0.950 . S
C1456 C1454 1.391 . S
C1456 C1457 1.400 . S
C1457 C1451 1.491 . S
C1457 C1456 1.400 . S
C1457 C1458 1.398 . S
C1458 H1446 0.950 . S
C1458 C1457 1.398 . S
C1458 C1459 1.391 . S
C1459 H1447 0.950 . S
C1459 C1455 1.393 . S
C1459 C1458 1.391 . S
H1460 C1468 0.950 . S
H1461 C1473 0.950 . S
H1462 C1470 0.950 . S
H1463 C1472 0.950 . S
H1464 C1474 0.950 . S
H1465 C1476 0.950 . S
H1466 C1478 0.950 . S
H1467 C1479 0.950 . S
C1468 H1460 0.950 . S
C1468 C1469 1.386 . S
C1468 C1470 1.391 . S
C1469 C1468 1.386 . S
C1469 C1473 1.393 . S
C1470 H1462 0.950 . S
C1470 C1468 1.391 . S
C1470 C1471 1.400 . S
C1471 C1470 1.400 . S
C1471 C1472 1.398 . S
C1471 C1477 1.491 . S
C1472 H1463 0.950 . S
C1472 C1471 1.398 . S
C1472 C1473 1.391 . S
C1473 H1461 0.950 . S
C1473 C1469 1.393 . S
C1473 C1472 1.391 . S
C1474 H1464 0.950 . S
C1474 C1475 1.386 . S
C1474 C1476 1.391 . S
C1475 C1474 1.386 . S
C1475 C1479 1.393 . S
C1476 H1465 0.950 . S
C1476 C1474 1.391 . S
C1476 C1477 1.400 . S
C1477 C1471 1.491 . S
C1477 C1476 1.400 . S
C1477 C1478 1.398 . S
C1478 H1466 0.950 . S
C1478 C1477 1.398 . S
C1478 C1479 1.391 . S
C1479 H1467 0.950 . S
C1479 C1475 1.393 . S
C1479 C1478 1.391 . S
H1480 C1488 0.950 . S
H1481 C1493 0.950 . S
H1482 C1490 0.950 . S
H1483 C1492 0.950 . S
H1484 C1494 0.950 . S
H1485 C1496 0.950 . S
H1486 C1498 0.950 . S
H1487 C1499 0.950 . S
C1488 H1480 0.950 . S
C1488 C1489 1.386 . S
C1488 C1490 1.391 . S
C1489 C1488 1.386 . S
C1489 C1493 1.393 . S
C1490 H1482 0.950 . S
C1490 C1488 1.391 . S
C1490 C1491 1.400 . S
C1491 C1490 1.400 . S
C1491 C1492 1.398 . S
C1491 C1497 1.491 . S
C1492 H1483 0.950 . S
C1492 C1491 1.398 . S
C1492 C1493 1.391 . S
C1493 H1481 0.950 . S
C1493 C1489 1.393 . S
C1493 C1492 1.391 . S
C1494 H1484 0.950 . S
C1494 C1495 1.386 . S
C1494 C1496 1.391 . S
C1495 C1494 1.386 . S
C1495 C1499 1.393 . S
C1496 H1485 0.950 . S
C1496 C1494 1.391 . S
C1496 C1497 1.400 . S
C1497 C1491 1.491 . S
C1497 C1496 1.400 . S
C1497 C1498 1.398 . S
C1498 H1486 0.950 . S
C1498 C1497 1.398 . S
C1498 C1499 1.391 . S
C1499 H1487 0.950 . S
C1499 C1495 1.393 . S
C1499 C1498 1.391 . S
H1500 C1508 0.950 . S
H1501 C1513 0.950 . S
H1502 C1510 0.950 . S
H1503 C1512 0.950 . S
H1504 C1514 0.950 . S
H1505 C1516 0.950 . S
H1506 C1518 0.950 . S
H1507 C1519 0.950 . S
C1508 H1500 0.950 . S
C1508 C1509 1.386 . S
C1508 C1510 1.391 . S
C1509 C1508 1.386 . S
C1509 C1513 1.393 . S
C1510 H1502 0.950 . S
C1510 C1508 1.391 . S
C1510 C1511 1.400 . S
C1511 C1510 1.400 . S
C1511 C1512 1.398 . S
C1511 C1517 1.491 . S
C1512 H1503 0.950 . S
C1512 C1511 1.398 . S
C1512 C1513 1.391 . S
C1513 H1501 0.950 . S
C1513 C1509 1.393 . S
C1513 C1512 1.391 . S
C1514 H1504 0.950 . S
C1514 C1515 1.386 . S
C1514 C1516 1.391 . S
C1515 C1514 1.386 . S
C1515 C1519 1.393 . S
C1516 H1505 0.950 . S
C1516 C1514 1.391 . S
C1516 C1517 1.400 . S
C1517 C1511 1.491 . S
C1517 C1516 1.400 . S
C1517 C1518 1.398 . S
C1518 H1506 0.950 . S
C1518 C1517 1.398 . S
C1518 C1519 1.391 . S
C1519 H1507 0.950 . S
C1519 C1515 1.393 . S
C1519 C1518 1.391 . S
H1520 C1528 0.950 . S
H1521 C1533 0.950 . S
H1522 C1530 0.950 . S
H1523 C1532 0.950 1_554 S
H1524 C1534 0.950 . S
H1525 C1536 0.950 . S
H1526 C1538 0.953 . S
H1527 C1539 0.950 . S
C1528 H1520 0.950 . S
C1528 C1529 1.386 . S
C1528 C1530 1.391 . S
C1529 C1528 1.386 . S
C1529 C1533 1.393 . S
C1530 H1522 0.950 . S
C1530 C1528 1.391 . S
C1530 C1531 1.400 . S
C1531 C1530 1.400 . S
C1531 C1532 1.398 . S
C1531 C1537 1.491 1_556 S
C1532 H1523 0.950 1_556 S
C1532 C1531 1.398 . S
C1532 C1533 1.391 . S
C1533 H1521 0.950 . S
C1533 C1529 1.393 . S
C1533 C1532 1.391 . S
C1534 H1524 0.950 . S
C1534 C1535 1.386 . S
C1534 C1536 1.391 . S
C1535 C1534 1.386 . S
C1535 C1539 1.393 . S
C1536 H1525 0.950 . S
C1536 C1534 1.391 . S
C1536 C1537 1.400 . S
C1537 C1531 1.491 1_554 S
C1537 C1536 1.400 . S
C1537 C1538 1.398 . S
C1538 H1526 0.953 . S
C1538 C1537 1.398 . S
C1538 C1539 1.391 . S
C1539 H1527 0.950 . S
C1539 C1535 1.393 . S
C1539 C1538 1.391 . S
H1540 C1548 0.950 . S
H1541 C1553 0.950 . S
H1542 C1550 0.950 . S
H1543 C1552 0.950 . S
H1544 C1554 0.950 . S
H1545 C1556 0.950 . S
H1546 C1558 0.950 . S
H1547 C1559 0.950 . S
C1548 H1540 0.950 . S
C1548 C1549 1.386 . S
C1548 C1550 1.391 . S
C1549 C1548 1.386 . S
C1549 C1553 1.393 . S
C1550 H1542 0.950 . S
C1550 C1548 1.391 . S
C1550 C1551 1.400 . S
C1551 C1550 1.400 . S
C1551 C1552 1.398 . S
C1551 C1557 1.491 . S
C1552 H1543 0.950 . S
C1552 C1551 1.398 . S
C1552 C1553 1.391 . S
C1553 H1541 0.950 . S
C1553 C1549 1.393 . S
C1553 C1552 1.391 . S
C1554 H1544 0.950 . S
C1554 C1555 1.386 . S
C1554 C1556 1.391 . S
C1555 C1554 1.386 . S
C1555 C1559 1.393 . S
C1556 H1545 0.950 . S
C1556 C1554 1.391 . S
C1556 C1557 1.400 . S
C1557 C1551 1.491 . S
C1557 C1556 1.400 . S
C1557 C1558 1.398 . S
C1558 H1546 0.950 . S
C1558 C1557 1.398 . S
C1558 C1559 1.391 . S
C1559 H1547 0.950 . S
C1559 C1555 1.393 . S
C1559 C1558 1.391 . S
H1560 C1568 0.950 . S
H1561 C1573 0.950 . S
H1562 C1570 0.950 . S
H1563 C1572 0.950 . S
H1564 C1574 0.950 . S
H1565 C1576 0.950 . S
H1566 C1578 0.950 . S
H1567 C1579 0.950 . S
C1568 H1560 0.950 . S
C1568 C1569 1.386 . S
C1568 C1570 1.391 . S
C1569 C1568 1.386 . S
C1569 C1573 1.393 . S
C1570 H1562 0.950 . S
C1570 C1568 1.391 . S
C1570 C1571 1.400 . S
C1571 C1570 1.400 . S
C1571 C1572 1.398 . S
C1571 C1577 1.491 . S
C1572 H1563 0.950 . S
C1572 C1571 1.398 . S
C1572 C1573 1.391 . S
C1573 H1561 0.950 . S
C1573 C1569 1.393 . S
C1573 C1572 1.391 . S
C1574 H1564 0.950 . S
C1574 C1575 1.386 . S
C1574 C1576 1.391 . S
C1575 C1574 1.386 . S
C1575 C1579 1.393 . S
C1576 H1565 0.950 . S
C1576 C1574 1.391 . S
C1576 C1577 1.400 . S
C1577 C1571 1.491 . S
C1577 C1576 1.400 . S
C1577 C1578 1.398 . S
C1578 H1566 0.950 . S
C1578 C1577 1.398 . S
C1578 C1579 1.391 . S
C1579 H1567 0.950 . S
C1579 C1575 1.393 . S
C1579 C1578 1.391 . S
H1580 C1588 0.950 . S
H1581 C1593 0.981 . S
H1582 C1590 0.950 . S
H1583 C1592 0.944 1_545 S
H1584 C1594 0.950 . S
H1585 C1596 0.950 . S
H1586 C1598 0.950 . S
H1587 C1599 0.950 . S
C1588 H1580 0.950 . S
C1588 C1589 1.386 . S
C1588 C1590 1.391 . S
C1589 C1588 1.386 . S
C1589 C1593 1.380 1_565 S
C1590 H1582 0.950 . S
C1590 C1588 1.391 . S
C1590 C1591 1.400 . S
C1591 C1590 1.400 . S
C1591 C1592 1.398 . S
C1591 C1597 1.491 . S
C1592 H1583 0.944 1_565 S
C1592 C1591 1.398 . S
C1592 C1593 1.373 1_565 S
C1593 H1581 0.981 . S
C1593 C1589 1.380 1_545 S
C1593 C1592 1.373 1_545 S
C1594 H1584 0.950 . S
C1594 C1595 1.386 . S
C1594 C1596 1.391 . S
C1595 C1594 1.386 . S
C1595 C1599 1.393 . S
C1596 H1585 0.950 . S
C1596 C1594 1.391 . S
C1596 C1597 1.400 . S
C1597 C1591 1.491 . S
C1597 C1596 1.400 . S
C1597 C1598 1.398 . S
C1598 H1586 0.950 . S
C1598 C1597 1.398 . S
C1598 C1599 1.391 . S
C1599 H1587 0.950 . S
C1599 C1595 1.393 . S
C1599 C1598 1.391 . S
C655 C210 1.663 . S
C649 C73 1.671 . S
C675 C258 1.351 . S
C669 C82 1.379 . S
C689 C100 1.787 . S
C695 C294 1.704 . S
C715 C330 1.375 . S
C709 C56 1.413 1_655 S
C735 C356 1.355 . S
C729 C134 1.354 . S
C755 C392 1.724 . S
C749 C165 1.725 . S
C769 C147 1.148 . S
C775 C427 1.222 . S
C795 C464 1.901 . S
C789 C125 1.911 . S
C809 C151 1.322 . S
C815 C498 1.315 . S
C835 C546 1.467 . S
C829 C121 1.496 . S
C849 C139 1.699 . S
C855 C499 1.700 . S
C875 C536 1.456 . S
C869 C164 1.457 . S
C889 C95 1.301 . S
C895 C582 1.348 . S
C909 C61 1.558 . S
C915 C571 1.559 . S
C929 C74 1.367 . S
C935 C572 1.366 . S
C949 C86 1.851 . S
C955 C570 1.842 . S
C969 C47 1.301 . S
C975 C318 1.302 . S
C989 C186 1.172 . S
C995 C319 1.249 . S
C1015 C222 1.624 . S
C1009 C204 1.654 . S
C1035 C247 1.865 . S
C1029 C112 1.864 . S
C1049 C60 1.521 1_545 S
C1055 C354 1.518 . S
C1075 C462 1.359 . S
C1069 C152 1.353 . S
C1095 C355 1.921 . S
C1089 C126 1.923 1_545 S
C1115 C428 1.393 . S
C1109 C160 1.387 . S
C1135 C426 1.668 . S
C1129 C190 1.675 . S
C1149 C199 1.366 . S
C1155 C474 1.375 . S
C1169 C113 1.787 . S
C1175 C366 1.679 . S
C1195 C402 1.401 . S
C1189 C173 1.418 . S
C1209 C43 1.345 . S
C1215 C284 1.344 . S
C1235 C320 1.726 . S
C1229 C9 1.727 1_655 S
C1255 C211 1.222 . S
C1249 C17 1.167 . S
C1275 C248 1.903 . S
C1269 C34 1.912 1_455 S
C1289 C21 1.306 . S
C1295 C534 1.295 . S
C1309 C30 1.510 1_556 S
C1315 C510 1.469 . S
C1329 C48 1.691 . S
C1335 C535 1.698 . S
C1349 C8 1.453 1_556 S
C1355 C500 1.442 1_455 S
C1375 C618 1.329 . S
C1369 C108 1.335 . S
C1395 C607 1.560 . S
C1389 C178 1.556 1_554 S
C1415 C608 1.354 . S
C1409 C191 1.359 . S
C1429 C203 1.852 . S
C1435 C606 1.835 . S
C1449 C138 1.311 . S
C1455 C390 1.309 . S
C1475 C391 1.249 . S
C1469 C69 1.173 . S
C1495 C438 1.621 . S
C1489 C87 1.655 . S
C1515 C463 1.867 . S
C1509 C99 1.863 . S
C1529 C177 1.519 . S
C1535 C282 1.521 . S
C1555 C246 1.359 . S
C1549 C22 1.357 . S
C1569 C35 1.920 . S
C1575 C283 1.925 . S
C1595 C212 1.395 1_554 S
C1589 C4 1.384 . S
