# Generated by pormake.
# Topology anh, (6,3)-cn, num edge types: 1
# Building blocks:
#     Node 0, Type 0, BuildingBlock: NUHQIS_clean_sbu_0, # of connection points: 6
#     Node 1, Type 0, BuildingBlock: NUHQIS_clean_sbu_0, # of connection points: 6
#     Node 2, Type 0, BuildingBlock: NUHQIS_clean_sbu_0, # of connection points: 6
#     Node 3, Type 1, BuildingBlock: CUQRIR_clean_linker_1, # of connection points: 3
#     Node 4, Type 1, BuildingBlock: CUQRIR_clean_linker_1, # of connection points: 3
#     Node 5, Type 1, BuildingBlock: CUQRIR_clean_linker_1, # of connection points: 3
#     Node 6, Type 1, BuildingBlock: CUQRIR_clean_linker_1, # of connection points: 3
#     Node 7, Type 1, BuildingBlock: CUQRIR_clean_linker_1, # of connection points: 3
#     Node 8, Type 1, BuildingBlock: CUQRIR_clean_linker_1, # of connection points: 3
#     Edge 9, Type (0, 1), BuildingBlock: XIVTED_clean_linker_0, # of connection points: 2
#     Edge 10, Type (0, 1), BuildingBlock: XIVTED_clean_linker_0, # of connection points: 2
#     Edge 11, Type (0, 1), BuildingBlock: XIVTED_clean_linker_0, # of connection points: 2
#     Edge 12, Type (0, 1), BuildingBlock: XIVTED_clean_linker_0, # of connection points: 2
#     Edge 13, Type (0, 1), BuildingBlock: XIVTED_clean_linker_0, # of connection points: 2
#     Edge 14, Type (0, 1), BuildingBlock: XIVTED_clean_linker_0, # of connection points: 2
#     Edge 15, Type (0, 1), BuildingBlock: XIVTED_clean_linker_0, # of connection points: 2
#     Edge 16, Type (0, 1), BuildingBlock: XIVTED_clean_linker_0, # of connection points: 2
#     Edge 17, Type (0, 1), BuildingBlock: XIVTED_clean_linker_0, # of connection points: 2
#     Edge 18, Type (0, 1), BuildingBlock: XIVTED_clean_linker_0, # of connection points: 2
#     Edge 19, Type (0, 1), BuildingBlock: XIVTED_clean_linker_0, # of connection points: 2
#     Edge 20, Type (0, 1), BuildingBlock: XIVTED_clean_linker_0, # of connection points: 2
#     Edge 21, Type (0, 1), BuildingBlock: XIVTED_clean_linker_0, # of connection points: 2
#     Edge 22, Type (0, 1), BuildingBlock: XIVTED_clean_linker_0, # of connection points: 2
#     Edge 23, Type (0, 1), BuildingBlock: XIVTED_clean_linker_0, # of connection points: 2
#     Edge 24, Type (0, 1), BuildingBlock: XIVTED_clean_linker_0, # of connection points: 2
#     Edge 25, Type (0, 1), BuildingBlock: XIVTED_clean_linker_0, # of connection points: 2
#     Edge 26, Type (0, 1), BuildingBlock: XIVTED_clean_linker_0, # of connection points: 2
# Relax obj value: 0.300
# Max RMSD: 0.224
# Mean RMSD: 0.160
data_MOF--net-anh--node1-NUHQIS_clean_sbu_0--node2-CUQRIR_clean_linker_1--edge1-XIVTED_clean_linker_0
_symmetry_space_group_name_H-M    P1
_symmetry_Int_Tables_number       1
_symmetry_cell_setting            triclinic
loop_
_symmetry_equiv_pos_as_xyz
'x, y, z'
_cell_length_a     27.598926
_cell_length_b     27.595359
_cell_length_c     47.229058
_cell_angle_alpha  88.976257
_cell_angle_beta   89.250354
_cell_angle_gamma 119.791
loop_
_atom_site_label
_atom_site_type_symbol
_atom_site_fract_x
_atom_site_fract_y
_atom_site_fract_z
_atom_type_partial_charge
Tb0 Tb 0.27377 0.65894 0.17679 0.0
Eu1 Eu 0.21743 0.72419 0.14764 0.0
C2 C 0.21749 0.70993 0.21425 0.0
C3 C 1.14355 0.59241 0.16577 0.0
C4 C 0.35262 0.59425 0.21515 0.0
C5 C 0.3604 0.52953 0.24778 0.0
C6 C 0.3302 0.55392 0.2373 0.0
C7 C 0.40847 0.61539 0.20642 0.0
C8 C 0.43872 0.59109 0.21693 0.0
C9 C 0.4133 0.54498 0.23608 0.0
C10 C 0.31365 0.60152 0.19697 0.0
O11 O 0.2584 0.63661 0.13193 0.0
O12 O 0.28026 0.72315 0.11773 0.0
O13 O 0.29941 0.79451 0.1632 0.0
O14 O 0.34475 0.74449 0.17118 0.0
C15 C 0.27594 0.67536 0.11179 0.0
O16 O 0.19056 0.74309 0.10796 0.0
O17 O 0.17944 0.77734 0.14692 0.0
O18 O 0.18666 0.70637 0.19269 0.0
O19 O 0.26234 0.70516 0.21093 0.0
O20 O 0.18482 0.59981 0.18194 0.0
O21 O 1.14998 0.63155 0.14716 0.0
C22 C 0.34525 0.79259 0.16863 0.0
O23 O 0.27255 0.6047 0.20888 0.0
O24 O 0.33227 0.63168 0.17357 0.0
C25 C 1.10537 0.73827 0.11499 0.0
C26 C 0.99766 0.66075 0.09795 0.0
C27 C 1.03331 0.7059 0.07983 0.0
C28 C 1.08713 0.74434 0.08828 0.0
C29 C 1.06825 0.69547 0.13379 0.0
C30 C 1.01482 0.65713 0.12536 0.0
C31 C 0.16517 0.76629 0.12051 0.0
H32 H 0.34014 0.49475 0.26287 0.0
H33 H 0.28718 0.53695 0.24445 0.0
H34 H 0.42695 0.64662 0.18945 0.0
H35 H 0.47943 0.60414 0.20742 0.0
H36 H 1.0208 0.70956 0.05862 0.0
H37 H 1.11565 0.77644 0.07331 0.0
H38 H 1.08171 0.68931 0.15434 0.0
H39 H 0.98759 0.62337 0.13993 0.0
Tb40 Tb 0.83339 0.20377 0.50329 0.0
Eu41 Eu 0.70337 0.13929 0.48715 0.0
C42 C 0.74083 0.16118 0.55036 0.0
C43 C 0.76729 1.06976 0.50371 0.0
C44 C 0.97124 0.31962 0.49643 0.0
C45 C 1.02019 0.41994 0.50299 0.0
C46 C 1.00038 0.36559 0.51381 0.0
C47 C 0.96594 0.32917 0.46755 0.0
C48 C 0.98539 0.38321 0.45684 0.0
C49 C 1.01069 0.42888 0.47469 0.0
C50 C 0.93644 0.26325 0.50928 0.0
O51 O 0.82505 0.22325 0.45895 0.0
O52 O 0.75266 0.13869 0.44917 0.0
O53 O 0.729 0.23179 0.48432 0.0
O54 O 0.80898 0.26719 0.50996 0.0
C55 C 0.79637 0.18518 0.44047 0.0
O56 O 0.61691 1.07629 0.49679 0.0
O57 O 0.63805 0.12679 0.45787 0.0
O58 O 0.70944 0.16719 0.53176 0.0
O59 O 0.78719 0.16222 0.54251 0.0
O60 O 0.81555 0.11684 0.50135 0.0
O61 O 0.71944 1.06925 0.50139 0.0
C62 C 0.76944 0.2732 0.49792 0.0
O63 O 0.89969 0.2595 0.52818 0.0
O64 O 0.9146 0.22222 0.49164 0.0
C65 C 0.55015 1.09925 0.48041 0.0
C66 C 0.45377 0.1088 0.48817 0.0
C67 C 0.45502 1.06113 0.49823 0.0
C68 C 0.50259 1.0564 0.49431 0.0
C69 C 0.55014 0.14812 0.47138 0.0
C70 C 0.50218 0.15273 0.47512 0.0
C71 C 0.59811 1.09083 0.47491 0.0
H72 H 1.03956 0.45454 0.5172 0.0
H73 H 1.00443 0.35928 0.53617 0.0
H74 H 0.94353 0.29478 0.4535 0.0
H75 H 0.97842 0.38908 0.43482 0.0
H76 H 0.41817 1.02588 0.50777 0.0
H77 H 0.50162 1.01836 0.50143 0.0
H78 H 0.58656 0.18216 0.46082 0.0
H79 H 0.50245 0.18992 0.46716 0.0
Tb80 Tb 0.72784 0.66897 0.84686 0.0
Eu81 Eu 0.66335 0.54532 0.82122 0.0
C82 C 0.66995 0.56244 0.88885 0.0
C83 C 0.7928 0.60423 0.83744 0.0
C84 C 0.7865 0.81838 0.84423 0.0
C85 C 0.75381 0.88467 0.83797 0.0
C86 C 0.76594 0.85131 0.85573 0.0
C87 C 0.80119 0.82456 0.8152 0.0
C88 C 0.78917 0.85793 0.79749 0.0
C89 C 0.7621 0.88541 0.80847 0.0
C90 C 0.78011 0.76962 0.86066 0.0
O91 O 0.74644 0.68065 0.80089 0.0
O92 O 0.67013 0.60281 0.78553 0.0
O93 O 0.59573 0.55901 0.84101 0.0
O94 O 0.64393 0.65427 0.83677 0.0
C95 C 0.71222 0.65291 0.78061 0.0
O96 O 0.65374 0.46248 0.81666 0.0
O97 O 0.60097 0.48563 0.79324 0.0
O98 O 0.66171 0.52929 0.86771 0.0
O99 O 0.69078 0.61678 0.88525 0.0
O100 O 0.78071 0.6325 0.85556 0.0
O101 O 0.7572 0.57632 0.81752 0.0
C102 C 0.59646 0.60707 0.84112 0.0
O103 O 0.72908 0.73468 0.86925 0.0
O104 O 0.80428 0.74361 0.84992 0.0
C105 C 0.56064 0.39084 0.80902 0.0
C106 C 0.46836 0.28291 0.81932 0.0
C107 C 0.52272 0.29498 0.82602 0.0
C108 C 0.56827 0.3482 0.82084 0.0
C109 C 0.50608 0.37971 0.80353 0.0
C110 C 0.46038 0.32622 0.80864 0.0
C111 C 0.60992 0.44522 0.80095 0.0
H112 H 0.73284 0.90531 0.84706 0.0
H113 H 0.75429 0.84716 0.87801 0.0
H114 H 0.81747 0.8 0.80565 0.0
H115 H 0.79689 0.85859 0.7749 0.0
H116 H 0.53074 0.26245 0.83366 0.0
H117 H 0.60977 0.35538 0.82511 0.0
H118 H 0.49873 0.41173 0.79445 0.0
H119 H 0.41905 0.31826 0.80331 0.0
C120 C 0.74249 0.19751 0.19205 0.0
N121 N 0.78348 0.23016 0.21033 0.0
N122 N 0.70265 0.14939 0.20523 0.0
C123 C 0.74343 0.21008 0.16093 0.0
C124 C 0.72061 0.154 0.23205 0.0
N125 N 0.76946 0.20213 0.23517 0.0
C126 C 0.68916 0.11186 0.25564 0.0
H127 H 0.72513 0.23754 0.15769 0.0
H128 H 0.71832 0.17122 0.14918 0.0
H129 H 0.78691 0.23211 0.15225 0.0
H130 H 0.70485 1.08188 0.2571 0.0
H131 H 0.64375 1.08819 0.25159 0.0
H132 H 0.69561 0.13257 0.27628 0.0
C133 C 0.76348 0.67047 0.53138 0.0
N134 N 0.76455 0.7076 0.55054 0.0
N135 N 0.77065 0.62989 0.54427 0.0
C136 C 0.75876 0.67551 0.49997 0.0
C137 C 0.77593 0.64367 0.57189 0.0
N138 N 0.77288 0.69071 0.57571 0.0
C139 C 0.78051 0.60892 0.59558 0.0
H140 H 0.71396 0.65621 0.49479 0.0
H141 H 0.77701 0.65353 0.48834 0.0
H142 H 0.78 0.72006 0.49288 0.0
H143 H 0.82521 0.62632 0.60057 0.0
H144 H 0.76323 0.5648 0.58953 0.0
H145 H 0.75812 0.61002 0.61502 0.0
C146 C 0.19446 0.60242 0.86469 0.0
N147 N 0.23427 0.6066 0.88303 0.0
N148 N 1.15325 0.60735 0.87841 0.0
C149 C 0.19758 0.59713 0.83325 0.0
C150 C 0.1694 0.61407 0.90573 0.0
N151 N 0.21812 0.61391 0.90852 0.0
C152 C 1.13691 0.61987 0.93004 0.0
H153 H 0.24169 0.61881 0.82547 0.0
H154 H 0.17427 0.6145 0.82202 0.0
H155 H 0.17858 0.55224 0.82836 0.0
H156 H 1.09171 0.59929 0.92555 0.0
H157 H 1.15254 0.6649 0.93336 0.0
H158 H 1.14256 0.60145 0.94992 0.0
C159 C 1.079 0.84007 0.42981 0.0
N160 N 1.07876 0.80414 0.41067 0.0
N161 N 1.11507 0.89396 0.4217 0.0
C162 C 1.04734 0.82183 0.45772 0.0
C163 C 1.13531 0.88904 0.39616 0.0
N164 N 1.11364 0.8347 0.38972 0.0
C165 C 0.18041 0.93716 0.37888 0.0
H166 H 1.04686 0.85724 0.46824 0.0
H167 H 1.06671 0.80387 0.47175 0.0
H168 H 1.00379 0.78837 0.45424 0.0
H169 H 0.21964 0.95684 0.39089 0.0
H170 H 0.16797 0.96907 0.37477 0.0
H171 H 0.1883 0.92406 0.35809 0.0
C172 C 0.42977 0.93675 0.74736 0.0
N173 N 0.47155 0.94851 0.72845 0.0
N174 N 0.40448 0.96716 0.74155 0.0
C175 C 0.41787 0.89991 0.77338 0.0
C176 C 0.43145 0.99612 0.71737 0.0
N177 N 0.47264 0.98547 0.70975 0.0
C178 C 0.42051 1.03848 0.70263 0.0
H179 H 0.37806 0.89076 0.78408 0.0
H180 H 0.45269 0.92059 0.78829 0.0
H181 H 0.41561 0.86016 0.76736 0.0
H182 H 0.43555 1.07592 0.71583 0.0
H183 H 0.37511 1.02082 0.69977 0.0
H184 H 0.44121 1.051 0.68139 0.0
C185 C 0.5926 0.36087 0.119 0.0
N186 N 0.60681 0.37455 0.09132 0.0
N187 N 0.54131 0.35385 0.12503 0.0
C188 C 0.63261 0.36338 0.14111 0.0
C189 C 0.52351 0.36077 0.09941 0.0
N190 N 0.56316 0.37323 0.07901 0.0
C191 C 0.47067 0.36282 0.09515 0.0
H192 H 0.61074 0.34543 0.16177 0.0
H193 H 0.66563 0.40742 0.1438 0.0
H194 H 0.65328 0.33983 0.13404 0.0
H195 H 0.47691 0.40365 0.10219 0.0
H196 H 0.43599 0.32946 0.10815 0.0
H197 H 0.45893 0.35767 0.07258 0.0
H198 H 0.52195 0.56821 0.24121 0.0
H199 H 0.4448 0.29538 0.15602 0.0
H200 H 0.35396 0.43153 0.23237 0.0
H201 H 0.60344 0.4478 0.15318 0.0
H202 H 0.41609 0.33044 0.19691 0.0
H203 H 0.55765 0.50846 0.22432 0.0
C204 C 0.49261 0.52512 0.23661 0.0
C205 C 0.43499 0.50546 0.23733 0.0
C206 C 0.45776 0.35544 0.18778 0.0
C207 C 0.4753 0.4374 0.21738 0.0
C208 C 0.47383 0.33556 0.16447 0.0
C209 C 0.52632 0.36887 0.15139 0.0
C210 C 0.49466 0.40891 0.19781 0.0
C211 C 0.56285 0.42061 0.16297 0.0
C212 C 0.51294 0.49106 0.22683 0.0
C213 C 0.39879 0.44884 0.23176 0.0
N214 N 0.54618 0.43922 0.18532 0.0
N215 N 0.41953 0.41723 0.22121 0.0
H216 H 1.10531 0.53002 0.4812 0.0
H217 H 0.97895 0.70845 0.41109 0.0
H218 H 0.94148 0.45428 0.44535 0.0
H219 H 1.15333 0.7758 0.42764 0.0
H220 H 0.9617 0.61502 0.42624 0.0
H221 H 1.12171 0.62176 0.4647 0.0
C222 C 1.07291 0.5328 0.46982 0.0
C223 C 1.02226 0.48465 0.46439 0.0
C224 C 1.00381 0.6502 0.42639 0.0
C225 C 1.04035 0.58904 0.44564 0.0
C226 C 1.01339 0.70307 0.41779 0.0
C227 C 1.06748 0.74882 0.4181 0.0
C228 C 1.04873 0.64386 0.43561 0.0
C229 C 1.11119 0.74082 0.42704 0.0
C230 C 1.08227 0.585 0.46032 0.0
C231 C 0.98153 0.4904 0.44955 0.0
N232 N 1.1009 0.68933 0.43557 0.0
N233 N 0.99136 0.54169 0.44077 0.0
H234 H 0.70009 0.83159 0.76312 0.0
H235 H 0.56627 1.02892 0.74948 0.0
H236 H 0.75451 0.98088 0.81111 0.0
H237 H 0.48551 0.85893 0.72253 0.0
H238 H 0.64787 1.02147 0.76312 0.0
H239 H 0.63532 0.85211 0.73823 0.0
C240 C 0.69961 0.86961 0.76787 0.0
C241 C 0.73256 0.90452 0.78936 0.0
C242 C 0.61257 0.98589 0.75403 0.0
C243 C 0.65747 0.92731 0.76139 0.0
C244 C 0.56638 0.9902 0.7463 0.0
C245 C 0.51986 0.94432 0.73512 0.0
C246 C 0.61195 0.93524 0.75046 0.0
C247 C 0.52094 0.89484 0.73127 0.0
C248 C 0.66207 0.88084 0.75388 0.0
C249 C 0.72937 0.9526 0.79492 0.0
N250 N 0.56641 0.89143 0.73906 0.0
N251 N 0.69197 0.96234 0.7812 0.0
H252 H 0.95583 0.54833 0.10349 0.0
H253 H 0.65108 0.48397 0.08062 0.0
H254 H 0.91699 0.67133 0.07017 0.0
H255 H 0.69145 0.3521 0.08365 0.0
H256 H 0.74897 0.55197 0.07226 0.0
H257 H 0.86154 0.47468 0.09278 0.0
C258 C 0.92745 0.55968 0.09367 0.0
C259 C 0.94351 0.61593 0.08825 0.0
C260 C 0.73668 0.50814 0.07397 0.0
C261 C 0.83612 0.53217 0.07586 0.0
C262 C 0.68066 0.46928 0.07841 0.0
C263 C 0.66341 0.41249 0.08212 0.0
C264 C 0.77622 0.49039 0.07443 0.0
C265 C 0.70354 0.39567 0.08068 0.0
C266 C 0.87394 0.51765 0.08732 0.0
C267 C 0.90594 0.62847 0.0749 0.0
N268 N 0.75855 0.43472 0.07743 0.0
N269 N 0.85354 0.58691 0.0696 0.0
H270 H 0.37235 1.07195 0.53004 0.0
H271 H 1.14556 1.00377 0.41347 0.0
H272 H 0.41074 0.14216 0.44489 0.0
H273 H 0.15583 0.88855 0.47258 0.0
H274 H 0.22285 1.08153 0.43774 0.0
H275 H 0.27325 1.03679 0.52179 0.0
C276 C 0.36017 1.0817 0.50996 0.0
C277 C 0.3995 0.10777 0.48768 0.0
C278 C 0.20615 1.03919 0.44599 0.0
C279 C 0.28679 1.06836 0.47835 0.0
C280 C 0.1627 0.99492 0.43202 0.0
C281 C 1.1453 0.93952 0.44051 0.0
C282 C 0.23054 1.02759 0.46911 0.0
C283 C 0.16736 0.93032 0.46531 0.0
C284 C 0.30371 1.06193 0.50536 0.0
C285 C 0.3817 0.12106 0.46246 0.0
N286 N 0.20923 0.97381 0.4785 0.0
N287 N 0.32626 1.0997 0.45814 0.0
H288 H 0.44411 0.1991 0.85884 0.0
H289 H 0.31319 0.98051 0.73745 0.0
H290 H 0.38937 0.23132 0.77909 0.0
H291 H 0.44469 1.00336 0.79337 0.0
H292 H 0.2969 1.04482 0.76629 0.0
H293 H 0.39563 1.09949 0.84886 0.0
C294 C 0.42037 0.18509 0.83968 0.0
C295 C 0.4229 0.22377 0.81917 0.0
C296 C 0.32759 1.03356 0.77278 0.0
C297 C 0.36729 0.11032 0.80784 0.0
C298 C 0.3373 0.99751 0.75623 0.0
C299 C 0.38138 0.98786 0.76255 0.0
C300 C 0.36132 1.05854 0.79611 0.0
C301 C 0.41012 1.00923 0.78768 0.0
C302 C 0.39249 0.12826 0.8341 0.0
C303 C 0.3897 0.20315 0.79522 0.0
N304 N 0.40011 1.04412 0.80328 0.0
N305 N 0.36456 0.14782 0.78977 0.0
H306 H 0.85399 1.05498 0.52178 0.0
H307 H 0.68494 0.71875 0.52225 0.0
H308 H 0.67995 0.96059 0.50111 0.0
H309 H 0.83947 0.81332 0.56532 0.0
H310 H 0.68472 0.80615 0.51077 0.0
H311 H 0.85231 0.96736 0.53387 0.0
C312 C 0.81539 1.01593 0.51958 0.0
C313 C 0.76705 1.01583 0.51026 0.0
C314 C 0.71865 0.80791 0.52281 0.0
C315 C 0.76498 0.91415 0.52417 0.0
C316 C 0.71882 0.75796 0.52929 0.0
C317 C 0.76232 0.7586 0.54477 0.0
C318 C 0.76279 0.85947 0.53145 0.0
C319 C 0.80495 0.81076 0.55354 0.0
C320 C 0.81444 0.9657 0.52667 0.0
C321 C 0.71835 0.96329 0.50816 0.0
N322 N 0.80436 0.85884 0.5466 0.0
N323 N 0.71867 0.91494 0.51487 0.0
H324 H 0.82779 0.53506 0.81295 0.0
H325 H 1.13019 0.69109 0.88448 0.0
H326 H 0.88331 0.67425 0.86844 0.0
H327 H 1.06649 0.52981 0.8477 0.0
H328 H 1.0439 0.69065 0.87254 0.0
H329 H 0.91712 0.53653 0.81978 0.0
C330 C 0.85864 0.56608 0.82643 0.0
C331 C 0.84735 0.60446 0.84018 0.0
C332 C 1.04857 0.65534 0.86683 0.0
C333 C 0.95042 0.60669 0.84791 0.0
C334 C 1.0981 0.65574 0.87359 0.0
C335 C 1.10564 0.61031 0.8673 0.0
C336 C 1.00551 0.60922 0.85338 0.0
C337 C 1.06261 0.56579 0.85287 0.0
C338 C 0.90968 0.56678 0.83038 0.0
C339 C 0.88938 0.64351 0.85745 0.0
N340 N 1.01439 0.56619 0.84654 0.0
N341 N 0.93851 0.64365 0.86069 0.0
H342 H 0.44896 0.80662 0.18042 0.0
H343 H 0.6089 0.1433 0.18344 0.0
H344 H 0.36642 0.90181 0.16403 0.0
H345 H 0.68551 1.04433 0.203 0.0
H346 H 0.52169 1.05701 0.17253 0.0
H347 H 0.53678 0.89381 0.18581 0.0
C348 C 0.44908 0.84576 0.1779 0.0
C349 C 0.39954 0.84623 0.17179 0.0
C350 C 0.55776 1.05415 0.17887 0.0
C351 C 0.50133 0.94753 0.17796 0.0
C352 C 0.60764 0.10348 0.1848 0.0
C353 C 0.65458 1.10094 0.19392 0.0
C354 C 0.55472 1.00176 0.1821 0.0
C355 C 0.65038 1.04811 0.19589 0.0
C356 C 0.49957 0.89583 0.18098 0.0
C357 C 0.40315 0.8989 0.16878 0.0
N358 N 0.60158 1.00091 0.1902 0.0
N359 N 0.45286 0.94713 0.17193 0.0
H360 H 0.68812 0.30056 0.48403 0.0
H361 H 0.85641 0.60925 0.54768 0.0
H362 H 0.85207 0.37127 0.51934 0.0
H363 H 0.69147 0.54267 0.5148 0.0
H364 H 0.85716 0.52431 0.534 0.0
H365 H 0.68953 0.38922 0.49196 0.0
C366 C 0.72456 0.33463 0.49328 0.0
C367 C 0.76993 0.32773 0.5011 0.0
C368 C 0.82082 0.52812 0.52946 0.0
C369 C 0.77177 0.43008 0.5103 0.0
C370 C 0.8206 0.57688 0.53717 0.0
C371 C 0.77395 0.58325 0.53231 0.0
C372 C 0.77379 0.4845 0.51682 0.0
C373 C 0.72848 0.53973 0.51871 0.0
C374 C 0.72527 0.38538 0.49786 0.0
C375 C 0.81582 0.37387 0.51307 0.0
N376 N 0.72934 0.49216 0.51165 0.0
N377 N 0.81543 0.4225 0.5173 0.0
H378 H 0.58231 0.69701 0.85329 0.0
H379 H 0.24554 0.52434 0.85826 0.0
H380 H 0.48753 0.51935 0.84139 0.0
H381 H 0.34098 0.68787 0.89256 0.0
H382 H 0.33316 0.52412 0.84756 0.0
H383 H 0.49479 0.69709 0.86328 0.0
C384 C 0.5432 0.65798 0.85261 0.0
C385 C 0.5429 0.60807 0.84643 0.0
C386 C 0.33508 0.56008 0.85748 0.0
C387 C 0.44149 0.60798 0.85782 0.0
C388 C 0.285 0.56022 0.86349 0.0
C389 C 0.28581 0.60601 0.8765 0.0
C390 C 0.38686 0.60651 0.86408 0.0
C391 C 0.33829 0.65142 0.88288 0.0
C392 C 0.49306 0.65805 0.85846 0.0
C393 C 0.49036 0.55891 0.84607 0.0
N394 N 0.38643 0.65066 0.87651 0.0
N395 N 0.44216 0.56018 0.85152 0.0
H396 H 1.03796 0.56206 0.14499 0.0
H397 H 0.88979 0.25747 0.22313 0.0
H398 H 1.12327 0.49925 0.19686 0.0
H399 H 0.79528 0.32315 0.1822 0.0
H400 H 0.97585 0.34504 0.21152 0.0
H401 H 0.94947 0.47456 0.15541 0.0
C402 C 1.03836 0.53004 0.1584 0.0
C403 C 1.08873 0.53874 0.17005 0.0
C404 C 0.93639 0.34061 0.20505 0.0
C405 C 0.98711 0.43795 0.18213 0.0
C406 C 0.88701 0.29053 0.21194 0.0
C407 C 0.83486 0.28269 0.20385 0.0
C408 C 0.93434 0.3838 0.18968 0.0
C409 C 0.83445 0.32695 0.18865 0.0
C410 C 0.98767 0.48003 0.16445 0.0
C411 C 1.08601 0.49524 0.18737 0.0
N412 N 0.88316 0.37534 0.18206 0.0
N413 N 1.03662 0.44733 0.19278 0.0
H414 H 0.33074 0.75214 0.0693 0.0
H415 H 0.20736 0.53262 0.94501 0.0
H416 H 0.23566 0.57409 0.08531 0.0
H417 H 0.28716 0.71074 0.93285 0.0
H418 H 0.23274 0.54535 0.99529 0.0
H419 H 0.33048 0.73626 0.01877 0.0
C420 C 0.31025 0.70951 0.0622 0.0
C421 C 0.28262 0.6644 0.08166 0.0
C422 C 0.24607 0.58175 0.98149 0.0
C423 C 0.28164 0.64579 0.02328 0.0
C424 C 0.23226 0.57443 0.9528 0.0
C425 C 0.24635 0.62081 0.93485 0.0
C426 C 0.27389 0.63594 0.99223 0.0
C427 C 0.27675 0.67415 0.94598 0.0
C428 C 0.31008 0.70047 0.03323 0.0
C429 C 0.25736 0.61012 0.0711 0.0
N430 N 0.28911 0.68027 0.97393 0.0
N431 N 0.25682 0.60233 0.04259 0.0
H432 H 0.8403 0.28614 0.41146 0.0
H433 H 0.81911 0.15125 0.26043 0.0
H434 H 0.77842 0.11076 0.39918 0.0
H435 H 0.78261 0.28447 0.27019 0.0
H436 H 0.83882 0.15443 0.31107 0.0
H437 H 0.84981 0.30187 0.35958 0.0
C438 C 0.82963 0.25117 0.39789 0.0
C439 C 0.80822 0.19695 0.4096 0.0
C440 C 0.82806 0.1841 0.30203 0.0
C441 C 0.8202 0.21492 0.3506 0.0
C442 C 0.81765 0.1828 0.27314 0.0
C443 C 0.79949 0.21777 0.26126 0.0
C444 C 0.82076 0.22104 0.31922 0.0
C445 C 0.79709 0.2573 0.27861 0.0
C446 C 0.83487 0.26018 0.36838 0.0
C447 C 0.79471 0.15311 0.39106 0.0
N448 N 0.80689 0.2575 0.3069 0.0
N449 N 0.8011 0.16307 0.36256 0.0
H450 H 0.63524 0.62778 0.73976 0.0
H451 H 0.85588 0.74174 0.61266 0.0
H452 H 0.81176 0.72888 0.7536 0.0
H453 H 0.68084 0.68071 0.60176 0.0
H454 H 0.84298 0.74708 0.66389 0.0
H455 H 0.65192 0.65416 0.68953 0.0
C456 C 0.6776 0.65607 0.73226 0.0
C457 C 0.72224 0.67562 0.75095 0.0
C458 C 0.80758 0.7341 0.65028 0.0
C459 C 0.74189 0.7056 0.69295 0.0
C460 C 0.81515 0.73172 0.62105 0.0
C461 C 0.76945 0.71145 0.60307 0.0
C462 C 0.75357 0.71488 0.66169 0.0
C463 C 0.71715 0.69737 0.61493 0.0
C464 C 0.68708 0.6713 0.7035 0.0
C465 C 0.77612 0.71266 0.73997 0.0
N466 N 0.7104 0.69832 0.64352 0.0
N467 N 0.78457 0.72564 0.71161 0.0
H468 H 0.73354 1.07545 0.58318 0.0
H469 H 0.53821 1.09788 0.70231 0.0
H470 H 0.69249 0.20715 0.58208 0.0
H471 H 0.51096 0.94045 0.67166 0.0
H472 H 0.61463 0.1467 0.66711 0.0
H473 H 0.67333 1.03441 0.62581 0.0
C474 C 0.71341 1.0967 0.59253 0.0
C475 C 0.71781 0.14465 0.57935 0.0
C476 C 0.59181 1.10146 0.66812 0.0
C477 C 0.64923 1.0982 0.62749 0.0
C478 C 0.54784 1.07372 0.68783 0.0
C479 C 0.517 1.01517 0.68893 0.0
C480 C 0.60606 1.07035 0.6501 0.0
C481 C 0.53316 0.98565 0.67089 0.0
C482 C 0.67865 1.07299 0.61653 0.0
C483 C 0.69002 0.17011 0.59179 0.0
N484 N 0.5766 1.01353 0.65212 0.0
N485 N 0.65669 0.14647 0.61516 0.0
H486 H 0.65061 0.60455 0.9377 0.0
H487 H 0.5866 0.33519 0.03218 0.0
H488 H 0.64918 0.45867 0.90505 0.0
H489 H 0.54949 0.4601 0.06162 0.0
H490 H 0.61014 0.38097 0.98522 0.0
H491 H 0.61644 0.55505 0.98378 0.0
C492 C 0.64351 0.56241 0.94024 0.0
C493 C 0.65284 0.5358 0.91747 0.0
C494 C 0.59583 0.39796 0.00172 0.0
C495 C 0.61349 0.47901 0.96982 0.0
C496 C 0.58195 0.37147 0.02835 0.0
C497 C 0.56511 0.39331 0.05041 0.0
C498 C 0.5939 0.44747 -0.00275 0.0
C499 C 0.56089 0.44122 0.04484 0.0
C500 C 0.62356 0.53404 0.96643 0.0
C501 C 0.64245 0.48094 0.9219 0.0
N502 N 0.5759 0.46721 0.01884 0.0
N503 N 0.62355 0.45457 0.94748 0.0
H504 H 1.11538 0.69244 0.23097 0.0
H505 H 0.21661 0.85071 0.37664 0.0
H506 H 0.28204 0.75256 0.26126 0.0
H507 H 1.04567 0.76567 0.35088 0.0
H508 H 0.24222 0.81403 0.33542 0.0
H509 H 1.08942 0.7173 0.27549 0.0
C510 C 1.14656 0.71074 0.24708 0.0
C511 C 0.20116 0.72091 0.24229 0.0
C512 C 0.19908 0.80322 0.33879 0.0
C513 C 0.17162 0.74993 0.29351 0.0
C514 C 0.1847 0.82441 0.3621 0.0
C515 C 1.12936 0.81217 0.36638 0.0
C516 C 0.15764 0.76955 0.31981 0.0
C517 C 1.0889 0.77662 0.34776 0.0
C518 C 1.1316 0.7248 0.27259 0.0
C519 C 0.23952 0.74409 0.26409 0.0
N520 N 1.10389 0.75699 0.32509 0.0
N521 N 0.22418 0.75843 0.28871 0.0
loop_
_geom_bond_atom_site_label_1
_geom_bond_atom_site_label_2
_geom_bond_distance
_geom_bond_site_symmetry_2
_ccdc_geom_bond_type
Tb0 C10 2.825 . S
Tb0 O11 2.347 . S
Tb0 O14 2.366 . S
Tb0 O19 2.418 . S
Tb0 O20 2.384 1_455 S
Tb0 O23 2.479 . S
Tb0 O24 2.471 . S
Eu1 O12 2.418 . S
Eu1 O13 2.384 1_655 S
Eu1 O16 2.479 . S
Eu1 O17 2.471 . S
Eu1 O18 2.347 . S
Eu1 O21 2.366 . S
Eu1 C31 2.825 . S
C2 O18 1.259 1_455 S
C2 O19 1.265 . S
C3 O20 1.255 . S
C3 O21 1.265 . S
C4 C6 1.380 . S
C4 C7 1.374 . S
C4 C10 1.507 . S
C5 C6 1.384 . S
C5 C9 1.387 . S
C5 H32 0.930 . S
C6 C4 1.380 . S
C6 C5 1.384 . S
C6 H33 0.931 . S
C7 C4 1.374 . S
C7 C8 1.390 . S
C7 H34 0.930 . S
C8 C7 1.390 . S
C8 C9 1.391 . S
C8 H35 0.930 . S
C9 C5 1.387 . S
C9 C8 1.391 . S
C10 Tb0 2.825 . S
C10 C4 1.507 . S
C10 O23 1.238 . S
C10 O24 1.247 . S
O11 Tb0 2.347 . S
O11 C15 1.268 . S
O12 Eu1 2.418 . S
O12 C15 1.246 1_655 S
O13 Eu1 2.384 1_455 S
O13 C22 1.255 . S
O14 Tb0 2.366 . S
O14 C22 1.265 . S
C15 O11 1.268 . S
C15 O12 1.246 1_455 S
O16 Eu1 2.479 . S
O16 C31 1.238 . S
O17 Eu1 2.471 . S
O17 C31 1.247 . S
O18 Eu1 2.347 . S
O18 C2 1.259 1_655 S
O19 Tb0 2.418 . S
O19 C2 1.265 . S
O20 Tb0 2.384 1_655 S
O20 C3 1.255 . S
O21 Eu1 2.366 . S
O21 C3 1.265 . S
C22 O13 1.255 . S
C22 O14 1.265 . S
O23 Tb0 2.479 . S
O23 C10 1.238 . S
O24 Tb0 2.471 . S
O24 C10 1.247 . S
C25 C28 1.380 . S
C25 C29 1.374 . S
C25 C31 1.507 . S
C26 C27 1.387 . S
C26 C30 1.391 . S
C27 C26 1.387 . S
C27 C28 1.384 . S
C27 H36 0.930 . S
C28 C25 1.380 . S
C28 C27 1.384 . S
C28 H37 0.931 . S
C29 C25 1.374 . S
C29 C30 1.390 . S
C29 H38 0.930 . S
C30 C26 1.391 . S
C30 C29 1.390 . S
C30 H39 0.930 . S
C31 Eu1 2.825 . S
C31 O16 1.238 . S
C31 O17 1.247 . S
C31 C25 1.507 . S
H32 C5 0.930 . S
H33 C6 0.931 . S
H34 C7 0.930 . S
H35 C8 0.930 . S
H36 C27 0.930 . S
H37 C28 0.931 . S
H38 C29 0.930 . S
H39 C30 0.930 . S
Tb40 C50 2.825 . S
Tb40 O51 2.347 . S
Tb40 O54 2.366 . S
Tb40 O59 2.418 . S
Tb40 O60 2.384 1_545 S
Tb40 O63 2.479 . S
Tb40 O64 2.471 . S
Eu41 O52 2.418 . S
Eu41 O53 2.384 . S
Eu41 O56 2.479 1_545 S
Eu41 O57 2.471 1_545 S
Eu41 O58 2.347 . S
Eu41 O61 2.366 1_545 S
Eu41 C71 2.825 1_545 S
C42 O58 1.259 . S
C42 O59 1.265 . S
C43 O60 1.255 . S
C43 O61 1.265 . S
C44 C46 1.380 . S
C44 C47 1.374 . S
C44 C50 1.507 . S
C45 C46 1.384 . S
C45 C49 1.387 . S
C45 H72 0.930 . S
C46 C44 1.380 . S
C46 C45 1.384 . S
C46 H73 0.931 . S
C47 C44 1.374 . S
C47 C48 1.390 . S
C47 H74 0.930 . S
C48 C47 1.390 . S
C48 C49 1.391 . S
C48 H75 0.930 . S
C49 C45 1.387 . S
C49 C48 1.391 . S
C50 Tb40 2.825 . S
C50 C44 1.507 . S
C50 O63 1.238 . S
C50 O64 1.247 . S
O51 Tb40 2.347 . S
O51 C55 1.259 . S
O52 Eu41 2.418 . S
O52 C55 1.265 . S
O53 Eu41 2.384 . S
O53 C62 1.255 . S
O54 Tb40 2.366 . S
O54 C62 1.265 . S
C55 O51 1.259 . S
C55 O52 1.265 . S
O56 Eu41 2.479 1_565 S
O56 C71 1.238 . S
O57 Eu41 2.471 1_565 S
O57 C71 1.247 . S
O58 Eu41 2.347 . S
O58 C42 1.259 . S
O59 Tb40 2.418 . S
O59 C42 1.265 . S
O60 Tb40 2.384 1_565 S
O60 C43 1.255 . S
O61 Eu41 2.366 1_565 S
O61 C43 1.265 . S
C62 O53 1.255 . S
C62 O54 1.265 . S
O63 Tb40 2.479 . S
O63 C50 1.238 . S
O64 Tb40 2.471 . S
O64 C50 1.247 . S
C65 C68 1.380 . S
C65 C69 1.374 . S
C65 C71 1.507 . S
C66 C67 1.387 . S
C66 C70 1.391 . S
C67 C66 1.387 . S
C67 C68 1.384 . S
C67 H76 0.930 . S
C68 C65 1.380 . S
C68 C67 1.384 . S
C68 H77 0.931 . S
C69 C65 1.374 . S
C69 C70 1.390 . S
C69 H78 0.930 . S
C70 C66 1.391 . S
C70 C69 1.390 . S
C70 H79 0.930 . S
C71 Eu41 2.825 1_565 S
C71 O56 1.238 . S
C71 O57 1.247 . S
C71 C65 1.507 . S
H72 C45 0.930 . S
H73 C46 0.931 . S
H74 C47 0.930 . S
H75 C48 0.930 . S
H76 C67 0.930 . S
H77 C68 0.931 . S
H78 C69 0.930 . S
H79 C70 0.930 . S
Tb80 C90 2.825 . S
Tb80 O91 2.347 . S
Tb80 O94 2.366 . S
Tb80 O99 2.418 . S
Tb80 O100 2.384 . S
Tb80 O103 2.479 . S
Tb80 O104 2.471 . S
Eu81 O92 2.418 . S
Eu81 O93 2.384 . S
Eu81 O96 2.479 . S
Eu81 O97 2.471 . S
Eu81 O98 2.347 . S
Eu81 O101 2.366 . S
Eu81 C111 2.825 . S
C82 O98 1.259 . S
C82 O99 1.265 . S
C83 O100 1.255 . S
C83 O101 1.265 . S
C84 C86 1.380 . S
C84 C87 1.374 . S
C84 C90 1.507 . S
C85 C86 1.384 . S
C85 C89 1.387 . S
C85 H112 0.930 . S
C86 C84 1.380 . S
C86 C85 1.384 . S
C86 H113 0.931 . S
C87 C84 1.374 . S
C87 C88 1.390 . S
C87 H114 0.930 . S
C88 C87 1.390 . S
C88 C89 1.391 . S
C88 H115 0.930 . S
C89 C85 1.387 . S
C89 C88 1.391 . S
C90 Tb80 2.825 . S
C90 C84 1.507 . S
C90 O103 1.238 . S
C90 O104 1.247 . S
O91 Tb80 2.347 . S
O91 C95 1.259 . S
O92 Eu81 2.418 . S
O92 C95 1.265 . S
O93 Eu81 2.384 . S
O93 C102 1.255 . S
O94 Tb80 2.366 . S
O94 C102 1.265 . S
C95 O91 1.259 . S
C95 O92 1.265 . S
O96 Eu81 2.479 . S
O96 C111 1.238 . S
O97 Eu81 2.471 . S
O97 C111 1.247 . S
O98 Eu81 2.347 . S
O98 C82 1.259 . S
O99 Tb80 2.418 . S
O99 C82 1.265 . S
O100 Tb80 2.384 . S
O100 C83 1.255 . S
O101 Eu81 2.366 . S
O101 C83 1.265 . S
C102 O93 1.255 . S
C102 O94 1.265 . S
O103 Tb80 2.479 . S
O103 C90 1.238 . S
O104 Tb80 2.471 . S
O104 C90 1.247 . S
C105 C108 1.380 . S
C105 C109 1.374 . S
C105 C111 1.507 . S
C106 C107 1.387 . S
C106 C110 1.391 . S
C107 C106 1.387 . S
C107 C108 1.384 . S
C107 H116 0.930 . S
C108 C105 1.380 . S
C108 C107 1.384 . S
C108 H117 0.931 . S
C109 C105 1.374 . S
C109 C110 1.390 . S
C109 H118 0.930 . S
C110 C106 1.391 . S
C110 C109 1.390 . S
C110 H119 0.930 . S
C111 Eu81 2.825 . S
C111 O96 1.238 . S
C111 O97 1.247 . S
C111 C105 1.507 . S
H112 C85 0.930 . S
H113 C86 0.931 . S
H114 C87 0.930 . S
H115 C88 0.930 . S
H116 C107 0.930 . S
H117 C108 0.931 . S
H118 C109 0.930 . S
H119 C110 0.930 . S
C120 N121 1.317 . S
C120 N122 1.348 1_545 S
C120 C123 1.485 . S
N121 C120 1.317 . S
N121 N125 1.370 . S
N122 C120 1.348 1_565 S
N122 C124 1.346 . S
C123 C120 1.485 . S
C123 H127 0.960 . S
C123 H128 0.961 1_545 S
C123 H129 0.960 . S
C124 N122 1.346 . S
C124 N125 1.307 1_565 S
C124 C126 1.486 . S
N125 N121 1.370 . S
N125 C124 1.307 1_545 S
C126 C124 1.486 . S
C126 H130 0.960 . S
C126 H131 0.960 . S
C126 H132 0.959 . S
H127 C123 0.960 . S
H128 C123 0.961 1_565 S
H129 C123 0.960 . S
H130 C126 0.960 . S
H131 C126 0.960 . S
H132 C126 0.959 . S
C133 N134 1.317 . S
C133 N135 1.348 . S
C133 C136 1.485 . S
N134 C133 1.317 . S
N134 N138 1.370 . S
N135 C133 1.348 . S
N135 C137 1.346 . S
C136 C133 1.485 . S
C136 H140 0.960 . S
C136 H141 0.961 . S
C136 H142 0.960 . S
C137 N135 1.346 . S
C137 N138 1.307 . S
C137 C139 1.486 . S
N138 N134 1.370 . S
N138 C137 1.307 . S
C139 C137 1.486 . S
C139 H143 0.960 . S
C139 H144 0.960 . S
C139 H145 0.959 . S
H140 C136 0.960 . S
H141 C136 0.961 . S
H142 C136 0.960 . S
H143 C139 0.960 . S
H144 C139 0.960 . S
H145 C139 0.959 . S
C146 N147 1.317 . S
C146 N148 1.348 1_455 S
C146 C149 1.485 . S
N147 C146 1.317 . S
N147 N151 1.370 . S
N148 C146 1.348 1_655 S
N148 C150 1.346 . S
C149 C146 1.485 . S
C149 H153 0.960 . S
C149 H154 0.961 . S
C149 H155 0.960 . S
C150 N148 1.346 . S
C150 N151 1.307 1_655 S
C150 C152 1.486 . S
N151 N147 1.370 . S
N151 C150 1.307 1_455 S
C152 C150 1.486 . S
C152 H156 0.960 . S
C152 H157 0.960 . S
C152 H158 0.959 . S
H153 C149 0.960 . S
H154 C149 0.961 . S
H155 C149 0.960 . S
H156 C152 0.960 . S
H157 C152 0.960 . S
H158 C152 0.959 . S
C159 N160 1.317 . S
C159 N161 1.348 . S
C159 C162 1.485 . S
N160 C159 1.317 . S
N160 N164 1.370 . S
N161 C159 1.348 . S
N161 C163 1.346 . S
C162 C159 1.485 . S
C162 H166 0.960 . S
C162 H167 0.961 . S
C162 H168 0.960 . S
C163 N161 1.346 . S
C163 N164 1.307 . S
C163 C165 1.486 . S
N164 N160 1.370 . S
N164 C163 1.307 . S
C165 C163 1.486 . S
C165 H169 0.960 . S
C165 H170 0.960 . S
C165 H171 0.959 . S
H166 C162 0.960 . S
H167 C162 0.961 . S
H168 C162 0.960 . S
H169 C165 0.960 . S
H170 C165 0.960 . S
H171 C165 0.959 . S
C172 N173 1.317 . S
C172 N174 1.348 . S
C172 C175 1.485 . S
N173 C172 1.317 . S
N173 N177 1.370 . S
N174 C172 1.348 . S
N174 C176 1.346 . S
C175 C172 1.485 . S
C175 H179 0.960 . S
C175 H180 0.961 . S
C175 H181 0.960 . S
C176 N174 1.346 . S
C176 N177 1.307 . S
C176 C178 1.486 . S
N177 N173 1.370 . S
N177 C176 1.307 . S
C178 C176 1.486 . S
C178 H182 0.960 . S
C178 H183 0.960 . S
C178 H184 0.959 . S
H179 C175 0.960 . S
H180 C175 0.961 . S
H181 C175 0.960 . S
H182 C178 0.960 . S
H183 C178 0.960 . S
H184 C178 0.959 . S
C185 N186 1.317 . S
C185 N187 1.348 . S
C185 C188 1.485 . S
N186 C185 1.317 . S
N186 N190 1.370 . S
N187 C185 1.348 . S
N187 C189 1.346 . S
C188 C185 1.485 . S
C188 H192 0.960 . S
C188 H193 0.961 . S
C188 H194 0.960 . S
C189 N187 1.346 . S
C189 N190 1.307 . S
C189 C191 1.486 . S
N190 N186 1.370 . S
N190 C189 1.307 . S
C191 C189 1.486 . S
C191 H195 0.960 . S
C191 H196 0.960 . S
C191 H197 0.959 . S
H192 C188 0.960 . S
H193 C188 0.961 . S
H194 C188 0.960 . S
H195 C191 0.960 . S
H196 C191 0.960 . S
H197 C191 0.959 . S
H198 C204 0.930 . S
H199 C208 0.930 . S
H200 C213 0.929 . S
H201 C211 0.929 . S
H202 C206 0.929 . S
H203 C212 0.929 . S
C204 H198 0.930 . S
C204 C205 1.367 . S
C204 C212 1.378 . S
C205 C204 1.367 . S
C205 C213 1.433 . S
C206 H202 0.929 . S
C206 C208 1.378 . S
C206 C210 1.350 . S
C207 C210 1.463 . S
C207 C212 1.350 . S
C207 N215 1.427 . S
C208 H199 0.930 . S
C208 C206 1.378 . S
C208 C209 1.367 . S
C209 C208 1.367 . S
C209 C211 1.433 . S
C210 C206 1.350 . S
C210 C207 1.463 . S
C210 N214 1.427 . S
C211 H201 0.929 . S
C211 C209 1.433 . S
C211 N214 1.384 . S
C212 H203 0.929 . S
C212 C204 1.378 . S
C212 C207 1.350 . S
C213 H200 0.929 . S
C213 C205 1.433 . S
C213 N215 1.384 . S
N214 C210 1.427 . S
N214 C211 1.384 . S
N215 C207 1.427 . S
N215 C213 1.384 . S
H216 C222 0.930 . S
H217 C226 0.930 . S
H218 C231 0.929 . S
H219 C229 0.940 . S
H220 C224 0.929 . S
H221 C230 0.929 . S
C222 H216 0.930 . S
C222 C223 1.367 . S
C222 C230 1.378 . S
C223 C222 1.367 . S
C223 C231 1.433 . S
C224 H220 0.929 . S
C224 C226 1.378 . S
C224 C228 1.350 . S
C225 C228 1.463 . S
C225 C230 1.350 . S
C225 N233 1.427 . S
C226 H217 0.930 . S
C226 C224 1.378 . S
C226 C227 1.367 . S
C227 C226 1.367 . S
C227 C229 1.429 1_655 S
C228 C224 1.350 . S
C228 C225 1.463 . S
C228 N232 1.427 . S
C229 H219 0.940 . S
C229 C227 1.429 1_455 S
C229 N232 1.378 1_455 S
C230 H221 0.929 . S
C230 C222 1.378 . S
C230 C225 1.350 . S
C231 H218 0.929 . S
C231 C223 1.433 . S
C231 N233 1.384 . S
N232 C228 1.427 . S
N232 C229 1.378 1_655 S
N233 C225 1.427 . S
N233 C231 1.384 . S
H234 C240 0.930 . S
H235 C244 0.930 . S
H236 C249 0.929 . S
H237 C247 0.929 . S
H238 C242 0.929 . S
H239 C248 0.929 . S
C240 H234 0.930 . S
C240 C241 1.367 . S
C240 C248 1.378 . S
C241 C240 1.367 . S
C241 C249 1.433 . S
C242 H238 0.929 . S
C242 C244 1.378 1_565 S
C242 C246 1.350 . S
C243 C246 1.463 . S
C243 C248 1.350 . S
C243 N251 1.427 . S
C244 H235 0.930 . S
C244 C242 1.378 1_545 S
C244 C245 1.367 . S
C245 C244 1.367 . S
C245 C247 1.433 1_545 S
C246 C242 1.350 . S
C246 C243 1.463 . S
C246 N250 1.427 . S
C247 H237 0.929 . S
C247 C245 1.433 1_565 S
C247 N250 1.384 . S
C248 H239 0.929 . S
C248 C240 1.378 . S
C248 C243 1.350 . S
C249 H236 0.929 . S
C249 C241 1.433 . S
C249 N251 1.384 . S
N250 C246 1.427 . S
N250 C247 1.384 . S
N251 C243 1.427 . S
N251 C249 1.384 . S
H252 C258 0.930 . S
H253 C262 0.930 . S
H254 C267 0.929 . S
H255 C265 0.929 . S
H256 C260 0.929 . S
H257 C266 0.929 . S
C258 H252 0.930 . S
C258 C259 1.367 . S
C258 C266 1.378 . S
C259 C258 1.367 . S
C259 C267 1.433 . S
C260 H256 0.929 . S
C260 C262 1.378 . S
C260 C264 1.350 . S
C261 C264 1.463 . S
C261 C266 1.350 . S
C261 N269 1.427 . S
C262 H253 0.930 . S
C262 C260 1.378 . S
C262 C263 1.367 . S
C263 C262 1.367 . S
C263 C265 1.433 . S
C264 C260 1.350 . S
C264 C261 1.463 . S
C264 N268 1.427 . S
C265 H255 0.929 . S
C265 C263 1.433 . S
C265 N268 1.384 . S
C266 H257 0.929 . S
C266 C258 1.378 . S
C266 C261 1.350 . S
C267 H254 0.929 . S
C267 C259 1.433 . S
C267 N269 1.384 . S
N268 C264 1.427 . S
N268 C265 1.384 . S
N269 C261 1.427 . S
N269 C267 1.384 . S
H270 C276 0.930 . S
H271 C280 0.930 . S
H272 C285 0.929 . S
H273 C283 0.929 . S
H274 C278 0.929 . S
H275 C284 0.929 . S
C276 H270 0.930 . S
C276 C277 1.367 . S
C276 C284 1.378 . S
C277 C276 1.367 . S
C277 C285 1.433 . S
C278 H274 0.929 . S
C278 C280 1.378 . S
C278 C282 1.350 . S
C279 C282 1.463 . S
C279 C284 1.350 . S
C279 N287 1.427 . S
C280 H271 0.930 . S
C280 C278 1.378 . S
C280 C281 1.367 . S
C281 C280 1.367 . S
C281 C283 1.433 . S
C282 C278 1.350 . S
C282 C279 1.463 . S
C282 N286 1.427 . S
C283 H273 0.929 . S
C283 C281 1.433 . S
C283 N286 1.384 . S
C284 H275 0.929 . S
C284 C276 1.378 . S
C284 C279 1.350 . S
C285 H272 0.929 . S
C285 C277 1.433 . S
C285 N287 1.384 . S
N286 C282 1.427 . S
N286 C283 1.384 . S
N287 C279 1.427 . S
N287 C285 1.384 . S
H288 C294 0.930 . S
H289 C298 0.930 . S
H290 C303 0.929 . S
H291 C301 0.929 . S
H292 C296 0.929 . S
H293 C302 0.929 . S
C294 H288 0.930 . S
C294 C295 1.367 . S
C294 C302 1.378 . S
C295 C294 1.367 . S
C295 C303 1.433 . S
C296 H292 0.929 . S
C296 C298 1.378 . S
C296 C300 1.350 . S
C297 C300 1.463 . S
C297 C302 1.350 . S
C297 N305 1.427 . S
C298 H289 0.930 . S
C298 C296 1.378 . S
C298 C299 1.367 . S
C299 C298 1.367 . S
C299 C301 1.433 . S
C300 C296 1.350 . S
C300 C297 1.463 . S
C300 N304 1.427 . S
C301 H291 0.929 . S
C301 C299 1.433 . S
C301 N304 1.384 . S
C302 H293 0.929 . S
C302 C294 1.378 . S
C302 C297 1.350 . S
C303 H290 0.929 . S
C303 C295 1.433 . S
C303 N305 1.384 . S
N304 C300 1.427 . S
N304 C301 1.384 . S
N305 C297 1.427 . S
N305 C303 1.384 . S
H306 C312 0.930 . S
H307 C316 0.930 . S
H308 C321 0.929 . S
H309 C319 0.929 . S
H310 C314 0.929 . S
H311 C320 0.929 . S
C312 H306 0.930 . S
C312 C313 1.367 . S
C312 C320 1.378 . S
C313 C312 1.367 . S
C313 C321 1.433 . S
C314 H310 0.929 . S
C314 C316 1.378 . S
C314 C318 1.350 . S
C315 C318 1.463 . S
C315 C320 1.350 . S
C315 N323 1.427 . S
C316 H307 0.930 . S
C316 C314 1.378 . S
C316 C317 1.367 . S
C317 C316 1.367 . S
C317 C319 1.433 . S
C318 C314 1.350 . S
C318 C315 1.463 . S
C318 N322 1.427 . S
C319 H309 0.929 . S
C319 C317 1.433 . S
C319 N322 1.384 . S
C320 H311 0.929 . S
C320 C312 1.378 . S
C320 C315 1.350 . S
C321 H308 0.929 . S
C321 C313 1.433 . S
C321 N323 1.384 . S
N322 C318 1.427 . S
N322 C319 1.384 . S
N323 C315 1.427 . S
N323 C321 1.384 . S
H324 C330 0.930 . S
H325 C334 0.930 . S
H326 C339 0.929 . S
H327 C337 0.929 . S
H328 C332 0.929 . S
H329 C338 0.929 . S
C330 H324 0.930 . S
C330 C331 1.367 . S
C330 C338 1.378 . S
C331 C330 1.367 . S
C331 C339 1.433 . S
C332 H328 0.929 . S
C332 C334 1.378 . S
C332 C336 1.350 . S
C333 C336 1.463 . S
C333 C338 1.350 . S
C333 N341 1.427 . S
C334 H325 0.930 . S
C334 C332 1.378 . S
C334 C335 1.367 . S
C335 C334 1.367 . S
C335 C337 1.433 . S
C336 C332 1.350 . S
C336 C333 1.463 . S
C336 N340 1.427 . S
C337 H327 0.929 . S
C337 C335 1.433 . S
C337 N340 1.384 . S
C338 H329 0.929 . S
C338 C330 1.378 . S
C338 C333 1.350 . S
C339 H326 0.929 . S
C339 C331 1.433 . S
C339 N341 1.384 . S
N340 C336 1.427 . S
N340 C337 1.384 . S
N341 C333 1.427 . S
N341 C339 1.384 . S
H342 C348 0.930 . S
H343 C352 0.930 . S
H344 C357 0.929 . S
H345 C355 0.929 . S
H346 C350 0.929 . S
H347 C356 0.929 . S
C348 H342 0.930 . S
C348 C349 1.367 . S
C348 C356 1.378 . S
C349 C348 1.367 . S
C349 C357 1.433 . S
C350 H346 0.929 . S
C350 C352 1.378 . S
C350 C354 1.350 . S
C351 C354 1.463 . S
C351 C356 1.350 . S
C351 N359 1.427 . S
C352 H343 0.930 . S
C352 C350 1.378 . S
C352 C353 1.367 . S
C353 C352 1.367 . S
C353 C355 1.433 . S
C354 C350 1.350 . S
C354 C351 1.463 . S
C354 N358 1.427 . S
C355 H345 0.929 . S
C355 C353 1.433 . S
C355 N358 1.384 . S
C356 H347 0.929 . S
C356 C348 1.378 . S
C356 C351 1.350 . S
C357 H344 0.929 . S
C357 C349 1.433 . S
C357 N359 1.384 . S
N358 C354 1.427 . S
N358 C355 1.384 . S
N359 C351 1.427 . S
N359 C357 1.384 . S
H360 C366 0.930 . S
H361 C370 0.930 . S
H362 C375 0.929 . S
H363 C373 0.929 . S
H364 C368 0.929 . S
H365 C374 0.929 . S
C366 H360 0.930 . S
C366 C367 1.367 . S
C366 C374 1.378 . S
C367 C366 1.367 . S
C367 C375 1.433 . S
C368 H364 0.929 . S
C368 C370 1.378 . S
C368 C372 1.350 . S
C369 C372 1.463 . S
C369 C374 1.350 . S
C369 N377 1.427 . S
C370 H361 0.930 . S
C370 C368 1.378 . S
C370 C371 1.367 . S
C371 C370 1.367 . S
C371 C373 1.433 . S
C372 C368 1.350 . S
C372 C369 1.463 . S
C372 N376 1.427 . S
C373 H363 0.929 . S
C373 C371 1.433 . S
C373 N376 1.384 . S
C374 H365 0.929 . S
C374 C366 1.378 . S
C374 C369 1.350 . S
C375 H362 0.929 . S
C375 C367 1.433 . S
C375 N377 1.384 . S
N376 C372 1.427 . S
N376 C373 1.384 . S
N377 C369 1.427 . S
N377 C375 1.384 . S
H378 C384 0.930 . S
H379 C388 0.930 . S
H380 C393 0.929 . S
H381 C391 0.929 . S
H382 C386 0.929 . S
H383 C392 0.929 . S
C384 H378 0.930 . S
C384 C385 1.367 . S
C384 C392 1.378 . S
C385 C384 1.367 . S
C385 C393 1.433 . S
C386 H382 0.929 . S
C386 C388 1.378 . S
C386 C390 1.350 . S
C387 C390 1.463 . S
C387 C392 1.350 . S
C387 N395 1.427 . S
C388 H379 0.930 . S
C388 C386 1.378 . S
C388 C389 1.367 . S
C389 C388 1.367 . S
C389 C391 1.433 . S
C390 C386 1.350 . S
C390 C387 1.463 . S
C390 N394 1.427 . S
C391 H381 0.929 . S
C391 C389 1.433 . S
C391 N394 1.384 . S
C392 H383 0.929 . S
C392 C384 1.378 . S
C392 C387 1.350 . S
C393 H380 0.929 . S
C393 C385 1.433 . S
C393 N395 1.384 . S
N394 C390 1.427 . S
N394 C391 1.384 . S
N395 C387 1.427 . S
N395 C393 1.384 . S
H396 C402 0.930 . S
H397 C406 0.930 . S
H398 C411 0.929 . S
H399 C409 0.929 . S
H400 C404 0.929 . S
H401 C410 0.929 . S
C402 H396 0.930 . S
C402 C403 1.367 . S
C402 C410 1.378 . S
C403 C402 1.367 . S
C403 C411 1.433 . S
C404 H400 0.929 . S
C404 C406 1.378 . S
C404 C408 1.350 . S
C405 C408 1.463 . S
C405 C410 1.350 . S
C405 N413 1.427 . S
C406 H397 0.930 . S
C406 C404 1.378 . S
C406 C407 1.367 . S
C407 C406 1.367 . S
C407 C409 1.433 . S
C408 C404 1.350 . S
C408 C405 1.463 . S
C408 N412 1.427 . S
C409 H399 0.929 . S
C409 C407 1.433 . S
C409 N412 1.384 . S
C410 H401 0.929 . S
C410 C402 1.378 . S
C410 C405 1.350 . S
C411 H398 0.929 . S
C411 C403 1.433 . S
C411 N413 1.384 . S
N412 C408 1.427 . S
N412 C409 1.384 . S
N413 C405 1.427 . S
N413 C411 1.384 . S
H414 C420 0.930 . S
H415 C424 0.930 . S
H416 C429 0.929 . S
H417 C427 0.929 . S
H418 C422 0.929 . S
H419 C428 0.929 . S
C420 H414 0.930 . S
C420 C421 1.367 . S
C420 C428 1.378 . S
C421 C420 1.367 . S
C421 C429 1.433 1_455 S
C422 H418 0.929 . S
C422 C424 1.378 . S
C422 C426 1.350 1_655 S
C423 C426 1.463 1_554 S
C423 C428 1.350 . S
C423 N431 1.427 1_455 S
C424 H415 0.930 . S
C424 C422 1.378 . S
C424 C425 1.367 1_655 S
C425 C424 1.367 1_455 S
C425 C427 1.433 . S
C426 C422 1.350 1_455 S
C426 C423 1.463 1_556 S
C426 N430 1.427 . S
C427 H417 0.929 . S
C427 C425 1.433 . S
C427 N430 1.384 . S
C428 H419 0.929 . S
C428 C420 1.378 . S
C428 C423 1.350 . S
C429 H416 0.929 . S
C429 C421 1.433 1_655 S
C429 N431 1.384 . S
N430 C426 1.427 . S
N430 C427 1.384 . S
N431 C423 1.427 1_655 S
N431 C429 1.384 . S
H432 C438 0.930 . S
H433 C442 0.930 . S
H434 C447 0.929 1_565 S
H435 C445 0.929 . S
H436 C440 0.929 . S
H437 C446 0.929 . S
C438 H432 0.930 . S
C438 C439 1.367 . S
C438 C446 1.378 . S
C439 C438 1.367 . S
C439 C447 1.433 . S
C440 H436 0.929 . S
C440 C442 1.378 . S
C440 C444 1.350 1_565 S
C441 C444 1.463 . S
C441 C446 1.350 . S
C441 N449 1.427 . S
C442 H433 0.930 . S
C442 C440 1.378 . S
C442 C443 1.367 1_565 S
C443 C442 1.367 1_545 S
C443 C445 1.433 . S
C444 C440 1.350 1_545 S
C444 C441 1.463 . S
C444 N448 1.427 . S
C445 H435 0.929 . S
C445 C443 1.433 . S
C445 N448 1.384 . S
C446 H437 0.929 . S
C446 C438 1.378 . S
C446 C441 1.350 . S
C447 H434 0.929 1_545 S
C447 C439 1.433 . S
C447 N449 1.384 . S
N448 C444 1.427 . S
N448 C445 1.384 . S
N449 C441 1.427 . S
N449 C447 1.384 . S
H450 C456 0.930 . S
H451 C460 0.930 . S
H452 C465 0.929 . S
H453 C463 0.929 . S
H454 C458 0.929 . S
H455 C464 0.929 . S
C456 H450 0.930 . S
C456 C457 1.367 . S
C456 C464 1.378 . S
C457 C456 1.367 . S
C457 C465 1.433 . S
C458 H454 0.929 . S
C458 C460 1.378 . S
C458 C462 1.350 . S
C459 C462 1.463 . S
C459 C464 1.350 . S
C459 N467 1.427 . S
C460 H451 0.930 . S
C460 C458 1.378 . S
C460 C461 1.367 . S
C461 C460 1.367 . S
C461 C463 1.433 . S
C462 C458 1.350 . S
C462 C459 1.463 . S
C462 N466 1.427 . S
C463 H453 0.929 . S
C463 C461 1.433 . S
C463 N466 1.384 . S
C464 H455 0.929 . S
C464 C456 1.378 . S
C464 C459 1.350 . S
C465 H452 0.929 . S
C465 C457 1.433 . S
C465 N467 1.384 . S
N466 C462 1.427 . S
N466 C463 1.384 . S
N467 C459 1.427 . S
N467 C465 1.384 . S
H468 C474 0.930 . S
H469 C478 0.930 . S
H470 C483 0.929 . S
H471 C481 0.929 . S
H472 C476 0.929 . S
H473 C482 0.929 . S
C474 H468 0.930 . S
C474 C475 1.367 1_565 S
C474 C482 1.378 . S
C475 C474 1.367 1_545 S
C475 C483 1.433 . S
C476 H472 0.929 . S
C476 C478 1.378 . S
C476 C480 1.350 . S
C477 C480 1.463 . S
C477 C482 1.350 1_545 S
C477 N485 1.427 . S
C478 H469 0.930 . S
C478 C476 1.378 . S
C478 C479 1.367 . S
C479 C478 1.367 . S
C479 C481 1.433 1_545 S
C480 C476 1.350 . S
C480 C477 1.463 . S
C480 N484 1.427 1_545 S
C481 H471 0.929 . S
C481 C479 1.433 1_565 S
C481 N484 1.384 . S
C482 H473 0.929 . S
C482 C474 1.378 . S
C482 C477 1.350 1_565 S
C483 H470 0.929 . S
C483 C475 1.433 . S
C483 N485 1.384 . S
N484 C480 1.427 1_565 S
N484 C481 1.384 . S
N485 C477 1.427 . S
N485 C483 1.384 . S
H486 C492 0.930 . S
H487 C496 0.930 . S
H488 C501 0.929 . S
H489 C499 0.929 . S
H490 C494 0.929 1_556 S
H491 C500 0.929 . S
C492 H486 0.930 . S
C492 C493 1.367 . S
C492 C500 1.378 . S
C493 C492 1.367 . S
C493 C501 1.433 . S
C494 H490 0.929 1_554 S
C494 C496 1.378 . S
C494 C498 1.350 . S
C495 C498 1.463 1_556 S
C495 C500 1.350 . S
C495 N503 1.427 . S
C496 H487 0.930 . S
C496 C494 1.378 . S
C496 C497 1.367 . S
C497 C496 1.367 . S
C497 C499 1.433 . S
C498 C494 1.350 . S
C498 C495 1.463 1_554 S
C498 N502 1.427 . S
C499 H489 0.929 . S
C499 C497 1.433 . S
C499 N502 1.384 . S
C500 H491 0.929 . S
C500 C492 1.378 . S
C500 C495 1.350 . S
C501 H488 0.929 . S
C501 C493 1.433 . S
C501 N503 1.384 . S
N502 C498 1.427 . S
N502 C499 1.384 . S
N503 C495 1.427 . S
N503 C501 1.384 . S
H504 C510 0.930 . S
H505 C514 0.930 . S
H506 C519 0.927 . S
H507 C517 0.929 . S
H508 C512 0.929 . S
H509 C518 0.929 . S
C510 H504 0.930 . S
C510 C511 1.367 . S
C510 C518 1.378 . S
C511 C510 1.367 . S
C511 C519 1.433 . S
C512 H508 0.929 . S
C512 C514 1.378 . S
C512 C516 1.350 . S
C513 C516 1.463 . S
C513 C518 1.350 . S
C513 N521 1.427 . S
C514 H505 0.930 . S
C514 C512 1.378 . S
C514 C515 1.367 . S
C515 C514 1.367 . S
C515 C517 1.433 . S
C516 C512 1.350 . S
C516 C513 1.463 . S
C516 N520 1.427 . S
C517 H507 0.929 . S
C517 C515 1.433 . S
C517 N520 1.384 . S
C518 H509 0.929 . S
C518 C510 1.378 . S
C518 C513 1.350 . S
C519 H506 0.927 . S
C519 C511 1.433 . S
C519 N521 1.384 . S
N520 C516 1.427 . S
N520 C517 1.384 . S
N521 C513 1.427 . S
N521 C519 1.384 . S
C205 C9 0.311 . S
C209 N187 0.236 . S
C223 C49 0.300 . S
C227 N160 0.354 1_655 S
C241 C89 0.263 . S
C245 N173 0.295 . S
C259 C26 0.613 . S
C263 N186 0.592 . S
C281 N161 0.628 . S
C277 C66 0.681 . S
C299 N174 0.620 . S
C295 C106 0.670 . S
C313 C43 2.868 . S
C317 N134 2.869 . S
C331 C83 2.804 . S
C335 N148 2.747 . S
C349 C22 3.150 . S
C353 N122 3.119 . S
C371 N135 3.127 . S
C367 C62 3.156 . S
C389 N147 3.286 . S
C385 C102 3.271 . S
C403 C3 2.873 . S
C407 N121 2.875 . S
C425 N151 1.771 . S
C421 C15 1.762 . S
C439 C55 1.723 . S
C443 N125 1.782 . S
C457 C95 1.704 . S
C461 N138 1.773 . S
C479 N177 1.227 . S
C475 C42 1.246 . S
C497 N190 1.197 . S
C493 C82 1.198 . S
C511 C2 1.234 . S
C515 N164 1.227 . S
