# Generated by pormake.
# Topology eea, (3,6)-cn, num edge types: 1
# Building blocks:
#     Node 0, Type 0, BuildingBlock: PAMTOO_clean_linker_0, # of connection points: 3
#     Node 1, Type 0, BuildingBlock: PAMTOO_clean_linker_0, # of connection points: 3
#     Node 2, Type 0, BuildingBlock: PAMTOO_clean_linker_0, # of connection points: 3
#     Node 3, Type 0, BuildingBlock: PAMTOO_clean_linker_0, # of connection points: 3
#     Node 4, Type 0, BuildingBlock: PAMTOO_clean_linker_0, # of connection points: 3
#     Node 5, Type 0, BuildingBlock: PAMTOO_clean_linker_0, # of connection points: 3
#     Node 6, Type 0, BuildingBlock: PAMTOO_clean_linker_0, # of connection points: 3
#     Node 7, Type 0, BuildingBlock: PAMTOO_clean_linker_0, # of connection points: 3
#     Node 8, Type 0, BuildingBlock: PAMTOO_clean_linker_0, # of connection points: 3
#     Node 9, Type 0, BuildingBlock: PAMTOO_clean_linker_0, # of connection points: 3
#     Node 10, Type 0, BuildingBlock: PAMTOO_clean_linker_0, # of connection points: 3
#     Node 11, Type 0, BuildingBlock: PAMTOO_clean_linker_0, # of connection points: 3
#     Node 12, Type 0, BuildingBlock: PAMTOO_clean_linker_0, # of connection points: 3
#     Node 13, Type 0, BuildingBlock: PAMTOO_clean_linker_0, # of connection points: 3
#     Node 14, Type 0, BuildingBlock: PAMTOO_clean_linker_0, # of connection points: 3
#     Node 15, Type 0, BuildingBlock: PAMTOO_clean_linker_0, # of connection points: 3
#     Node 16, Type 0, BuildingBlock: PAMTOO_clean_linker_0, # of connection points: 3
#     Node 17, Type 0, BuildingBlock: PAMTOO_clean_linker_0, # of connection points: 3
#     Node 18, Type 1, BuildingBlock: CUKXOW_clean_sbu_0, # of connection points: 6
#     Node 19, Type 1, BuildingBlock: CUKXOW_clean_sbu_0, # of connection points: 6
#     Node 20, Type 1, BuildingBlock: CUKXOW_clean_sbu_0, # of connection points: 6
#     Node 21, Type 1, BuildingBlock: CUKXOW_clean_sbu_0, # of connection points: 6
#     Node 22, Type 1, BuildingBlock: CUKXOW_clean_sbu_0, # of connection points: 6
#     Node 23, Type 1, BuildingBlock: CUKXOW_clean_sbu_0, # of connection points: 6
#     Node 24, Type 1, BuildingBlock: CUKXOW_clean_sbu_0, # of connection points: 6
#     Node 25, Type 1, BuildingBlock: CUKXOW_clean_sbu_0, # of connection points: 6
#     Node 26, Type 1, BuildingBlock: CUKXOW_clean_sbu_0, # of connection points: 6
#     Edge 27, Type (0, 1), BuildingBlock: KIFKEQ_clean_linker_1, # of connection points: 2
#     Edge 28, Type (0, 1), BuildingBlock: KIFKEQ_clean_linker_1, # of connection points: 2
#     Edge 29, Type (0, 1), BuildingBlock: KIFKEQ_clean_linker_1, # of connection points: 2
#     Edge 30, Type (0, 1), BuildingBlock: KIFKEQ_clean_linker_1, # of connection points: 2
#     Edge 31, Type (0, 1), BuildingBlock: KIFKEQ_clean_linker_1, # of connection points: 2
#     Edge 32, Type (0, 1), BuildingBlock: KIFKEQ_clean_linker_1, # of connection points: 2
#     Edge 33, Type (0, 1), BuildingBlock: KIFKEQ_clean_linker_1, # of connection points: 2
#     Edge 34, Type (0, 1), BuildingBlock: KIFKEQ_clean_linker_1, # of connection points: 2
#     Edge 35, Type (0, 1), BuildingBlock: KIFKEQ_clean_linker_1, # of connection points: 2
#     Edge 36, Type (0, 1), BuildingBlock: KIFKEQ_clean_linker_1, # of connection points: 2
#     Edge 37, Type (0, 1), BuildingBlock: KIFKEQ_clean_linker_1, # of connection points: 2
#     Edge 38, Type (0, 1), BuildingBlock: KIFKEQ_clean_linker_1, # of connection points: 2
#     Edge 39, Type (0, 1), BuildingBlock: KIFKEQ_clean_linker_1, # of connection points: 2
#     Edge 40, Type (0, 1), BuildingBlock: KIFKEQ_clean_linker_1, # of connection points: 2
#     Edge 41, Type (0, 1), BuildingBlock: KIFKEQ_clean_linker_1, # of connection points: 2
#     Edge 42, Type (0, 1), BuildingBlock: KIFKEQ_clean_linker_1, # of connection points: 2
#     Edge 43, Type (0, 1), BuildingBlock: KIFKEQ_clean_linker_1, # of connection points: 2
#     Edge 44, Type (0, 1), BuildingBlock: KIFKEQ_clean_linker_1, # of connection points: 2
#     Edge 45, Type (0, 1), BuildingBlock: KIFKEQ_clean_linker_1, # of connection points: 2
#     Edge 46, Type (0, 1), BuildingBlock: KIFKEQ_clean_linker_1, # of connection points: 2
#     Edge 47, Type (0, 1), BuildingBlock: KIFKEQ_clean_linker_1, # of connection points: 2
#     Edge 48, Type (0, 1), BuildingBlock: KIFKEQ_clean_linker_1, # of connection points: 2
#     Edge 49, Type (0, 1), BuildingBlock: KIFKEQ_clean_linker_1, # of connection points: 2
#     Edge 50, Type (0, 1), BuildingBlock: KIFKEQ_clean_linker_1, # of connection points: 2
#     Edge 51, Type (0, 1), BuildingBlock: KIFKEQ_clean_linker_1, # of connection points: 2
#     Edge 52, Type (0, 1), BuildingBlock: KIFKEQ_clean_linker_1, # of connection points: 2
#     Edge 53, Type (0, 1), BuildingBlock: KIFKEQ_clean_linker_1, # of connection points: 2
#     Edge 54, Type (0, 1), BuildingBlock: KIFKEQ_clean_linker_1, # of connection points: 2
#     Edge 55, Type (0, 1), BuildingBlock: KIFKEQ_clean_linker_1, # of connection points: 2
#     Edge 56, Type (0, 1), BuildingBlock: KIFKEQ_clean_linker_1, # of connection points: 2
#     Edge 57, Type (0, 1), BuildingBlock: KIFKEQ_clean_linker_1, # of connection points: 2
#     Edge 58, Type (0, 1), BuildingBlock: KIFKEQ_clean_linker_1, # of connection points: 2
#     Edge 59, Type (0, 1), BuildingBlock: KIFKEQ_clean_linker_1, # of connection points: 2
#     Edge 60, Type (0, 1), BuildingBlock: KIFKEQ_clean_linker_1, # of connection points: 2
#     Edge 61, Type (0, 1), BuildingBlock: KIFKEQ_clean_linker_1, # of connection points: 2
#     Edge 62, Type (0, 1), BuildingBlock: KIFKEQ_clean_linker_1, # of connection points: 2
#     Edge 63, Type (0, 1), BuildingBlock: KIFKEQ_clean_linker_1, # of connection points: 2
#     Edge 64, Type (0, 1), BuildingBlock: KIFKEQ_clean_linker_1, # of connection points: 2
#     Edge 65, Type (0, 1), BuildingBlock: KIFKEQ_clean_linker_1, # of connection points: 2
#     Edge 66, Type (0, 1), BuildingBlock: KIFKEQ_clean_linker_1, # of connection points: 2
#     Edge 67, Type (0, 1), BuildingBlock: KIFKEQ_clean_linker_1, # of connection points: 2
#     Edge 68, Type (0, 1), BuildingBlock: KIFKEQ_clean_linker_1, # of connection points: 2
#     Edge 69, Type (0, 1), BuildingBlock: KIFKEQ_clean_linker_1, # of connection points: 2
#     Edge 70, Type (0, 1), BuildingBlock: KIFKEQ_clean_linker_1, # of connection points: 2
#     Edge 71, Type (0, 1), BuildingBlock: KIFKEQ_clean_linker_1, # of connection points: 2
#     Edge 72, Type (0, 1), BuildingBlock: KIFKEQ_clean_linker_1, # of connection points: 2
#     Edge 73, Type (0, 1), BuildingBlock: KIFKEQ_clean_linker_1, # of connection points: 2
#     Edge 74, Type (0, 1), BuildingBlock: KIFKEQ_clean_linker_1, # of connection points: 2
#     Edge 75, Type (0, 1), BuildingBlock: KIFKEQ_clean_linker_1, # of connection points: 2
#     Edge 76, Type (0, 1), BuildingBlock: KIFKEQ_clean_linker_1, # of connection points: 2
#     Edge 77, Type (0, 1), BuildingBlock: KIFKEQ_clean_linker_1, # of connection points: 2
#     Edge 78, Type (0, 1), BuildingBlock: KIFKEQ_clean_linker_1, # of connection points: 2
#     Edge 79, Type (0, 1), BuildingBlock: KIFKEQ_clean_linker_1, # of connection points: 2
#     Edge 80, Type (0, 1), BuildingBlock: KIFKEQ_clean_linker_1, # of connection points: 2
# Relax obj value: 0.033
# Max RMSD: 0.157
# Mean RMSD: 0.091
data_MOF--net-eea--node1-CUKXOW_clean_sbu_0--node2-PAMTOO_clean_linker_0--edge1-KIFKEQ_clean_linker_1
_symmetry_space_group_name_H-M    P1
_symmetry_Int_Tables_number       1
_symmetry_cell_setting            triclinic
loop_
_symmetry_equiv_pos_as_xyz
'x, y, z'
_cell_length_a     60.942148
_cell_length_b     57.219091
_cell_length_c     50.826065
_cell_angle_alpha  93.352756
_cell_angle_beta   93.267575
_cell_angle_gamma 119.98984
loop_
_atom_site_label
_atom_site_type_symbol
_atom_site_fract_x
_atom_site_fract_y
_atom_site_fract_z
_atom_type_partial_charge
H0 H 0.25108 0.08412 0.45305 0.0
H1 H 0.24995 0.15884 0.45346 0.0
H2 H 0.21506 0.09917 0.38613 0.0
H3 H 0.24169 0.15637 0.37261 0.0
C4 C 0.24014 0.16642 0.39125 0.0
O5 O 0.22457 0.14678 0.40672 0.0
H6 H 0.25954 0.17918 0.40184 0.0
C7 C 0.24586 0.09729 0.44337 0.0
C8 C 0.23237 0.08857 0.4181 0.0
C9 C 0.25257 0.12269 0.45632 0.0
C10 C 0.2451 0.13922 0.44383 0.0
C11 C 0.2318 0.1308 0.41849 0.0
C12 C 0.2256 0.10562 0.40558 0.0
H13 H 0.93209 0.1855 0.45919 0.0
H14 H 0.86112 0.1095 0.44818 0.0
H15 H 0.91476 0.12894 0.39062 0.0
H16 H 0.85836 0.09745 0.36681 0.0
C17 C 0.85041 0.08904 0.38546 0.0
O18 O 0.87009 0.09292 0.40344 0.0
H19 H 0.8408 0.09978 0.39335 0.0
C20 C 0.9194 0.16619 0.4478 0.0
C21 C 0.92662 0.15942 0.42403 0.0
C22 C 0.89574 0.1485 0.45674 0.0
C23 C 0.8792 0.1238 0.44146 0.0
C24 C 0.88596 0.11706 0.41754 0.0
C25 C 0.90956 0.13479 0.40884 0.0
H26 H 0.83808 0.74933 0.4586 0.0
H27 H 0.91087 0.75395 0.46045 0.0
H28 H 0.887 0.78512 0.39713 0.0
H29 H 0.91309 0.75612 0.38086 0.0
C30 C 0.92582 0.76037 0.39928 0.0
O31 O 0.92342 0.77792 0.41707 0.0
H32 H 0.92001 0.74084 0.40778 0.0
C33 C 0.85553 0.75477 0.44968 0.0
C34 C 0.85999 0.76752 0.42616 0.0
C35 C 0.87361 0.7496 0.46223 0.0
C36 C 0.89671 0.75789 0.45125 0.0
C37 C 0.9014 0.77062 0.42782 0.0
C38 C 0.88317 0.77552 0.41539 0.0
H39 H 0.08749 0.26961 0.56206 0.0
H40 H 0.15277 0.25892 0.56904 0.0
H41 H 0.09827 0.2286 0.62575 0.0
H42 H 0.14984 0.24843 0.65083 0.0
C43 C 0.15927 0.24975 0.63243 0.0
O44 O 0.14103 0.23416 0.61174 0.0
H45 H 0.16972 0.27146 0.62848 0.0
C46 C 0.09833 0.26183 0.57205 0.0
C47 C 0.08994 0.24855 0.59503 0.0
C48 C 0.12118 0.26601 0.56254 0.0
C49 C 0.13534 0.25637 0.57612 0.0
C50 C 0.12711 0.24313 0.59886 0.0
C51 C 0.10449 0.23915 0.60822 0.0
H52 H 0.7606 0.8292 0.57853 0.0
H53 H 0.76999 0.9093 0.58567 0.0
H54 H 0.80466 0.88577 0.64638 0.0
H55 H 0.78854 0.92273 0.66958 0.0
C56 C 0.7845 0.92932 0.65066 0.0
O57 O 0.79735 0.92471 0.63139 0.0
H58 H 0.76353 0.91718 0.64514 0.0
C59 C 0.76791 0.84888 0.58954 0.0
C60 C 0.78286 0.85503 0.61378 0.0
C61 C 0.76352 0.86849 0.57884 0.0
C62 C 0.7735 0.89404 0.59327 0.0
C63 C 0.78802 0.90011 0.61768 0.0
C64 C 0.79307 0.8808 0.62767 0.0
H65 H 0.18493 0.93058 0.57255 0.0
H66 H 0.11074 0.8587 0.56596 0.0
H67 H 0.13542 0.91651 0.63431 0.0
H68 H 0.10536 0.86165 0.64721 0.0
C69 C 0.09441 0.85152 0.62767 0.0
O70 O 0.09805 0.87086 0.61074 0.0
H71 H 0.10156 0.83834 0.61956 0.0
C72 C 0.16724 0.91782 0.58085 0.0
C73 C 0.16286 0.92647 0.60546 0.0
C74 C 0.14868 0.89341 0.56633 0.0
C75 C 0.1253 0.87767 0.57664 0.0
C76 C 0.12064 0.88611 0.60106 0.0
C77 C 0.13929 0.91044 0.61535 0.0
H78 H 0.92476 0.42337 0.78114 0.0
H79 H 0.92001 0.49588 0.78062 0.0
H80 H 0.89081 0.43804 0.71191 0.0
H81 H 0.91504 0.49568 0.69964 0.0
C82 C 0.91229 0.50464 0.7183 0.0
O83 O 0.89674 0.48394 0.73283 0.0
H84 H 0.93124 0.51783 0.72967 0.0
C85 C 0.91934 0.43605 0.77083 0.0
C86 C 0.90736 0.42747 0.74477 0.0
C87 C 0.92422 0.46076 0.7839 0.0
C88 C 0.9168 0.47698 0.77073 0.0
C89 C 0.90467 0.46863 0.74491 0.0
C90 C 0.90005 0.44405 0.73196 0.0
H91 H 0.59954 0.51143 0.79708 0.0
H92 H 0.53094 0.43304 0.78397 0.0
H93 H 0.58756 0.45558 0.72964 0.0
H94 H 0.53647 0.42 0.70125 0.0
C95 C 0.52621 0.41471 0.71934 0.0
O96 O 0.54297 0.41791 0.74057 0.0
H97 H 0.51855 0.42861 0.72261 0.0
C98 C 0.58788 0.49201 0.78548 0.0
C99 C 0.59674 0.48587 0.76255 0.0
C100 C 0.56407 0.47319 0.79352 0.0
C101 C 0.54915 0.44811 0.77813 0.0
C102 C 0.55767 0.44197 0.75524 0.0
C103 C 0.5814 0.46065 0.74759 0.0
H104 H 0.50654 0.07732 0.79292 0.0
H105 H 0.57738 0.07795 0.79062 0.0
H106 H 0.55422 0.11295 0.73054 0.0
H107 H 0.57906 0.08233 0.71142 0.0
C108 C 0.59155 0.08561 0.72976 0.0
O109 O 0.58979 0.10323 0.74806 0.0
H110 H 0.58508 0.06572 0.73773 0.0
C111 C 0.52348 0.08205 0.78325 0.0
C112 C 0.52789 0.09552 0.76019 0.0
C113 C 0.54107 0.07546 0.79447 0.0
C114 C 0.56356 0.08291 0.78247 0.0
C115 C 0.56816 0.09631 0.75947 0.0
C116 C 0.55045 0.10269 0.74841 0.0
H117 H 0.75485 0.60168 0.89362 0.0
H118 H 0.82072 0.59197 0.90086 0.0
H119 H 0.76495 0.55908 0.95597 0.0
H120 H 0.81603 0.57938 0.98238 0.0
C121 C 0.82609 0.58163 0.96429 0.0
O122 O 0.80856 0.56639 0.94298 0.0
H123 H 0.83633 0.60353 0.961 0.0
C124 C 0.76576 0.59387 0.90339 0.0
C125 C 0.75687 0.57957 0.92566 0.0
C126 C 0.78889 0.59869 0.89412 0.0
C127 C 0.80311 0.58911 0.90771 0.0
C128 C 0.79458 0.57526 0.93007 0.0
C129 C 0.7715 0.57033 0.93891 0.0
H130 H 0.42983 0.16194 0.90998 0.0
H131 H 0.44543 0.24451 0.91864 0.0
H132 H 0.47354 0.21525 0.97984 0.0
H133 H 0.4583 0.25503 1.00188 0.0
C134 C 0.45686 0.26273 0.98264 0.0
O135 O 0.47029 0.25663 0.96522 0.0
H136 H 0.43637 0.25266 0.97505 0.0
C137 C 0.43856 0.18173 0.92109 0.0
C138 C 0.45233 0.18607 0.94584 0.0
C139 C 0.43561 0.20251 0.91094 0.0
C140 C 0.44673 0.22785 0.92608 0.0
C141 C 0.45993 0.23217 0.95096 0.0
C142 C 0.46274 0.21138 0.96081 0.0
H143 H 0.85683 0.26096 0.91516 0.0
H144 H 0.78322 0.18823 0.91015 0.0
H145 H 0.80895 0.24654 0.97846 0.0
H146 H 0.78123 0.18937 0.99106 0.0
C147 C 0.76893 0.17976 0.97208 0.0
O148 O 0.77176 0.19962 0.95616 0.0
H149 H 0.77507 0.16637 0.96224 0.0
C150 C 0.83924 0.24815 0.92364 0.0
C151 C 0.83525 0.25653 0.94852 0.0
C152 C 0.82054 0.22363 0.90946 0.0
C153 C 0.79793 0.20714 0.92081 0.0
C154 C 0.79383 0.21535 0.9457 0.0
C155 C 0.81235 0.24017 0.95937 0.0
H156 H 0.58602 0.75274 0.11879 0.0
H157 H 0.58473 0.82686 0.11349 0.0
H158 H 0.55268 0.76518 0.04779 0.0
H159 H 0.57866 0.82324 0.03198 0.0
C160 C 0.57698 0.83303 0.05071 0.0
O161 O 0.56108 0.81309 0.06575 0.0
H162 H 0.59627 0.84558 0.06158 0.0
C163 C 0.58088 0.76523 0.10774 0.0
C164 C 0.56856 0.75565 0.08193 0.0
C165 C 0.587 0.79095 0.1193 0.0
C166 C 0.58066 0.80721 0.10473 0.0
C167 C 0.56842 0.79792 0.07897 0.0
C168 C 0.56258 0.77232 0.06753 0.0
H169 H 0.26211 0.84842 0.12251 0.0
H170 H 0.19291 0.7704 0.11015 0.0
H171 H 0.24801 0.79285 0.05413 0.0
H172 H 0.19482 0.75969 0.02739 0.0
C173 C 0.18539 0.75269 0.04575 0.0
O174 O 0.20325 0.75558 0.06562 0.0
H175 H 0.17698 0.76547 0.05123 0.0
C176 C 0.24998 0.8291 0.11093 0.0
C177 C 0.25827 0.82288 0.0876 0.0
C178 C 0.22634 0.81043 0.11949 0.0
C179 C 0.21091 0.78551 0.10397 0.0
C180 C 0.21861 0.77946 0.08041 0.0
C181 C 0.24228 0.79793 0.07239 0.0
H182 H 0.17567 0.41685 0.13053 0.0
H183 H 0.24706 0.41858 0.13098 0.0
H184 H 0.22226 0.44722 0.06613 0.0
H185 H 0.24665 0.41477 0.05046 0.0
C186 C 0.25955 0.4198 0.06891 0.0
O187 O 0.25789 0.43867 0.08551 0.0
H188 H 0.25358 0.40089 0.07865 0.0
C189 C 0.19288 0.42182 0.1213 0.0
C190 C 0.19663 0.43294 0.09687 0.0
C191 C 0.21097 0.41675 0.13392 0.0
C192 C 0.23276 0.42213 0.12149 0.0
C193 C 0.2365 0.43275 0.09694 0.0
C194 C 0.2186 0.43823 0.08473 0.0
H195 H 0.42167 0.94072 0.22971 0.0
H196 H 0.49233 0.94062 0.23865 0.0
H197 H 0.43698 0.90277 0.29352 0.0
H198 H 0.49159 0.93283 0.31815 0.0
C199 C 0.50066 0.93131 0.30024 0.0
O200 O 0.48188 0.91421 0.28055 0.0
H201 H 0.51204 0.95194 0.29369 0.0
C202 C 0.43397 0.93493 0.24011 0.0
C203 C 0.42616 0.92071 0.26262 0.0
C204 C 0.45789 0.94247 0.23138 0.0
C205 C 0.47399 0.93545 0.2453 0.0
C206 C 0.46645 0.92137 0.26772 0.0
C207 C 0.44267 0.91406 0.27637 0.0
H208 H 0.10406 0.49889 0.24029 0.0
H209 H 0.11304 0.57869 0.24632 0.0
H210 H 0.14121 0.55363 0.31133 0.0
H211 H 0.12103 0.58945 0.32884 0.0
C212 C 0.12137 0.59809 0.30972 0.0
O213 O 0.13657 0.59311 0.29391 0.0
H214 H 0.10151 0.58818 0.30008 0.0
C215 C 0.11039 0.51817 0.25166 0.0
C216 C 0.12307 0.52359 0.27728 0.0
C217 C 0.10674 0.53792 0.24017 0.0
C218 C 0.11585 0.56325 0.25463 0.0
C219 C 0.12812 0.56872 0.28019 0.0
C220 C 0.13176 0.54903 0.29145 0.0
H221 H 0.52148 0.59784 0.24164 0.0
H222 H 0.44795 0.52509 0.23502 0.0
H223 H 0.472 0.58233 0.30372 0.0
H224 H 0.44193 0.52685 0.31598 0.0
C225 C 0.4311 0.51704 0.29633 0.0
O226 O 0.43487 0.53672 0.27976 0.0
H227 H 0.4383 0.50401 0.28794 0.0
C228 C 0.50395 0.58476 0.25003 0.0
C229 C 0.49949 0.59308 0.27478 0.0
C230 C 0.48565 0.56023 0.23546 0.0
C231 C 0.46234 0.54411 0.24577 0.0
C232 C 0.45752 0.55222 0.27026 0.0
C233 C 0.476 0.57657 0.28469 0.0
Tb234 Tb 0.53652 0.03045 0.01721 0.0
C235 C 0.51929 0.96806 0.01905 0.0
Tb236 Tb 0.47732 0.98551 0.01499 0.0
O237 O 0.53498 0.04666 0.05681 0.0
O238 O 0.50975 1.00649 0.04312 0.0
O239 O 0.53711 0.99248 0.01347 0.0
C240 C 0.43146 0.95227 0.03016 0.0
O241 O 0.49571 0.96194 0.02336 0.0
C242 C 0.49366 0.99605 0.96758 0.0
C243 C 0.49472 0.04731 0.00779 0.0
O244 O 0.44213 0.9461 0.01167 0.0
O245 O 0.44662 0.97725 0.04005 0.0
O246 O 0.47018 0.97865 0.97102 0.0
O247 O 0.50534 1.00502 0.99017 0.0
O248 O 0.47664 0.02358 0.0147 0.0
O249 O 0.51857 0.05329 0.00542 0.0
C250 C 0.58508 0.06134 0.0077 0.0
O251 O 0.56534 0.05481 0.99127 0.0
O252 O 0.57749 0.05039 0.02954 0.0
C253 C 0.51457 0.02461 0.06143 0.0
Tb254 Tb 0.98869 0.50834 0.01525 0.0
C255 C 0.04704 0.55459 0.01619 0.0
Tb256 Tb 0.03204 0.49275 0.01134 0.0
O257 O 0.99245 0.51503 0.05924 0.0
O258 O 0.01471 0.50418 0.03929 0.0
O259 O 0.02266 0.54779 0.0121 0.0
C260 C 0.06693 0.47937 0.02471 0.0
O261 O 0.05465 0.53666 0.01864 0.0
C262 C 0.01381 0.50109 0.96704 0.0
C263 C 0.97397 0.44642 0.0123 0.0
O264 O 0.06265 0.49622 0.03842 0.0
O265 O 0.05129 0.46959 0.00319 0.0
O266 O 0.03648 0.50407 0.97058 0.0
O267 O 1.00214 0.49122 0.9868 0.0
O268 O 0.99844 0.45336 0.01571 0.0
O269 O 0.96612 0.46416 0.00937 0.0
C270 C 0.95307 0.52033 1.00119 0.0
O271 O 0.95237 0.50603 0.02042 0.0
O272 O 0.97386 0.52787 0.98981 0.0
C273 C 0.01086 0.5098 0.06207 0.0
Tb274 Tb 0.48653 0.50203 0.01242 0.0
C275 C 0.50447 0.45996 0.00499 0.0
Tb276 Tb 0.54329 0.52371 0.00709 0.0
O277 O 0.47684 0.48338 0.97138 0.0
O278 O 0.51165 0.51852 0.98279 0.0
O279 O 0.48719 0.4647 0.01478 0.0
C280 C 0.58814 0.53594 0.99018 0.0
O281 O 0.52624 0.47964 0.99776 0.0
C282 C 0.53181 0.52574 0.05565 0.0
C283 C 0.52543 0.56574 0.01759 0.0
O284 O 0.57972 0.52467 0.01164 0.0
O285 O 0.57137 0.5404 0.97834 0.0
O286 O 0.55399 0.54205 0.04806 0.0
O287 O 0.51838 0.50766 0.03698 0.0
O288 O 0.54303 0.5617 0.00741 0.0
O289 O 0.50342 0.54551 0.02359 0.0
C290 C 0.44065 0.48907 0.02674 0.0
O291 O 0.45044 0.50158 0.00626 0.0
O292 O 0.45671 0.48396 0.03919 0.0
C293 C 0.4988 0.50053 0.96397 0.0
Tb294 Tb 0.20228 0.3631 0.348 0.0
C295 C 0.18565 0.30311 0.35614 0.0
Tb296 Tb 0.14518 0.32314 0.3523 0.0
O297 O 0.21129 0.35934 0.38931 0.0
O298 O 0.17613 0.35494 0.37677 0.0
O299 O 0.20273 0.3254 0.34637 0.0
C300 C 0.09993 0.28806 0.36766 0.0
O301 O 0.16335 0.2995 0.36258 0.0
C302 C 0.15793 0.33263 0.30417 0.0
C303 C 0.16185 0.38289 0.34156 0.0
O304 O 0.10899 0.28459 0.34622 0.0
O305 O 0.11637 0.31126 0.38045 0.0
O306 O 0.13535 0.3255 0.31095 0.0
O307 O 0.17114 0.33144 0.32347 0.0
O308 O 0.14423 0.36068 0.35111 0.0
O309 O 0.18457 0.38663 0.33679 0.0
C310 C 0.2482 0.39841 0.33406 0.0
O311 O 0.23912 0.40081 0.35589 0.0
O312 O 0.23139 0.37618 0.32005 0.0
C313 C 0.18892 0.35314 0.39605 0.0
Tb314 Tb 0.65454 0.8455 0.35185 0.0
C315 C 0.71311 0.89099 0.35354 0.0
Tb316 Tb 0.69464 0.82859 0.34804 0.0
O317 O 0.6502 0.83576 0.3931 0.0
O318 O 0.68451 0.84807 0.37734 0.0
O319 O 0.68899 0.88479 0.34886 0.0
C320 C 0.72649 0.81054 0.3597 0.0
O321 O 0.7194 0.87225 0.35761 0.0
C322 C 0.67668 0.83564 0.30277 0.0
C323 C 0.63575 0.78299 0.34479 0.0
O324 O 0.72612 0.82232 0.33876 0.0
O325 O 0.70873 0.80864 0.37389 0.0
O326 O 0.69911 0.8383 0.30678 0.0
O327 O 0.66489 0.82629 0.32256 0.0
O328 O 0.65983 0.78897 0.34965 0.0
O329 O 0.62972 0.80205 0.34144 0.0
C330 C 0.62312 0.86442 0.34157 0.0
O331 O 0.62345 0.85205 0.36206 0.0
O332 O 0.64058 0.86626 0.32693 0.0
C333 C 0.67272 0.83873 0.39713 0.0
Tb334 Tb 0.1519 0.83766 0.3421 0.0
C335 C 0.16973 0.7953 0.33587 0.0
Tb336 Tb 0.20942 0.85912 0.33919 0.0
O337 O 0.14281 0.82067 0.30037 0.0
O338 O 0.17848 0.85372 0.31376 0.0
O339 O 0.15189 0.79996 0.34421 0.0
C340 C 0.25489 0.87198 0.32364 0.0
O341 O 0.19222 0.81501 0.33014 0.0
C342 C 0.19612 0.86078 0.38691 0.0
C343 C 0.19125 0.90121 0.34854 0.0
O344 O 0.24532 0.85901 0.34399 0.0
O345 O 0.2389 0.8778 0.31212 0.0
O346 O 0.21886 0.87672 0.38034 0.0
O347 O 0.1831 0.84307 0.36782 0.0
O348 O 0.20929 0.89724 0.33941 0.0
O349 O 0.16885 0.88097 0.35359 0.0
C350 C 0.10599 0.82533 0.35599 0.0
O351 O 0.11646 0.83863 0.33612 0.0
O352 O 0.12134 0.81895 0.36798 0.0
C353 C 0.16581 0.83637 0.29442 0.0
Tb354 Tb 0.86596 0.69669 0.6782 0.0
C355 C 0.85129 0.63658 0.68431 0.0
Tb356 Tb 0.80868 0.65387 0.68049 0.0
O357 O 0.87514 0.69373 0.71985 0.0
O358 O 0.83873 0.68514 0.70602 0.0
O359 O 0.86832 0.66001 0.67622 0.0
C360 C 0.76393 0.619 0.69698 0.0
O361 O 0.82809 0.63112 0.68947 0.0
C362 C 0.82232 0.66577 0.63311 0.0
C363 C 0.82381 0.71408 0.67198 0.0
O364 O 0.77389 0.61394 0.67704 0.0
O365 O 0.77911 0.64368 0.70748 0.0
O366 O 0.79908 0.65622 0.63909 0.0
O367 O 0.83572 0.66505 0.65254 0.0
O368 O 0.806 0.6904 0.67896 0.0
O369 O 0.84749 0.71996 0.66888 0.0
C370 C 0.91149 0.73315 0.66448 0.0
O371 O 0.90257 0.73454 0.68675 0.0
O372 O 0.89471 0.71131 0.64993 0.0
C373 C 0.85185 0.68416 0.72551 0.0
Tb374 Tb 0.32286 0.17736 0.68354 0.0
C375 C 0.38092 0.22019 0.69116 0.0
Tb376 Tb 0.36084 0.15658 0.68666 0.0
O377 O 0.33344 0.19451 0.72507 0.0
O378 O 0.33705 0.16141 0.71215 0.0
O379 O 0.35799 0.2155 0.68233 0.0
C380 C 0.39641 0.14427 0.70087 0.0
O381 O 0.38544 0.20046 0.69676 0.0
C382 C 0.3415 0.15486 0.63889 0.0
C383 C 0.30253 0.11386 0.67772 0.0
O384 O 0.39688 0.15799 0.68125 0.0
O385 O 0.37589 0.13743 0.71246 0.0
O386 O 0.34977 0.13887 0.64559 0.0
O387 O 0.34693 0.17265 0.6579 0.0
O388 O 0.3253 0.11828 0.68685 0.0
O389 O 0.29824 0.13382 0.67265 0.0
C390 C 0.28667 0.18898 0.66989 0.0
O391 O 0.30553 0.19331 0.6563 0.0
O392 O 0.28821 0.17811 0.6911 0.0
C393 C 0.3423 0.17893 0.73132 0.0
Tb394 Tb 0.82141 0.17369 0.67837 0.0
C395 C 0.83727 0.1282 0.67813 0.0
Tb396 Tb 0.87801 0.19071 0.6815 0.0
O397 O 0.82161 0.18171 0.63651 0.0
O398 O 0.84619 0.17026 0.65321 0.0
O399 O 0.81939 0.13457 0.68214 0.0
C400 C 0.92471 0.20882 0.66658 0.0
O401 O 0.86087 0.14675 0.67403 0.0
C402 C 0.85872 0.18527 0.72715 0.0
C403 C 0.86193 0.23626 0.68361 0.0
O404 O 0.91679 0.19762 0.68825 0.0
O405 O 0.90647 0.21015 0.65363 0.0
O406 O 0.8785 0.18294 0.7233 0.0
O407 O 0.85321 0.19371 0.70697 0.0
O408 O 0.88 0.23019 0.67936 0.0
O409 O 0.8383 0.21736 0.6871 0.0
C410 C 0.77347 0.15519 0.6893 0.0
O411 O 0.78298 0.16645 0.66817 0.0
O412 O 0.79092 0.15422 0.70427 0.0
C413 C 0.84098 0.17864 0.63289 0.0
H414 H 0.28079 0.87808 0.08735 0.0
H415 H 0.29346 0.81136 0.06926 0.0
H416 H 0.32246 0.90951 0.07356 0.0
H417 H 0.3352 0.84269 0.05585 0.0
H418 H 0.39687 0.9014 0.00793 0.0
H419 H 0.355 0.8706 0.02159 0.0
H420 H 0.36737 0.9302 0.08579 0.0
H421 H 0.40901 0.96127 0.07149 0.0
C422 C 0.29257 0.87016 0.08064 0.0
C423 C 0.28374 0.84219 0.07931 0.0
C424 C 0.31651 0.88818 0.07278 0.0
C425 C 0.33227 0.8787 0.0635 0.0
C426 C 0.32345 0.85072 0.06237 0.0
C427 C 0.2995 0.83271 0.07011 0.0
C428 C 0.39059 0.90789 0.02493 0.0
C429 C 0.40614 0.9337 0.03863 0.0
C430 C 0.36665 0.89018 0.0329 0.0
C431 C 0.35773 0.8978 0.05488 0.0
C432 C 0.3734 0.92374 0.06856 0.0
C433 C 0.39733 0.94151 0.06049 0.0
H434 H 0.17987 0.42763 0.04417 0.0
H435 H 0.17125 0.45412 0.12234 0.0
H436 H 0.14953 0.4396 0.02499 0.0
H437 H 0.13991 0.46416 0.10352 0.0
H438 H 0.10525 0.50673 0.06354 0.0
H439 H 0.13752 0.49635 0.07901 0.0
H440 H 0.10516 0.42653 0.02069 0.0
H441 H 0.07335 0.43793 0.00433 0.0
C442 C 0.17151 0.43595 0.05726 0.0
C443 C 0.178 0.43983 0.08482 0.0
C444 C 0.15387 0.44247 0.04629 0.0
C445 C 0.1423 0.45295 0.06267 0.0
C446 C 0.14872 0.45661 0.0902 0.0
C447 C 0.16645 0.45039 0.10108 0.0
C448 C 0.10511 0.48924 0.05391 0.0
C449 C 0.08675 0.473 0.03289 0.0
C450 C 0.12351 0.48315 0.0629 0.0
C451 C 0.12374 0.46033 0.05141 0.0
C452 C 0.10565 0.44436 0.02988 0.0
C453 C 0.08736 0.45075 0.0206 0.0
H454 H 0.54628 0.70914 0.10623 0.0
H455 H 0.5745 0.73947 0.0322 0.0
H456 H 0.53567 0.66378 0.08881 0.0
H457 H 0.5634 0.69368 0.01447 0.0
H458 H 0.56766 0.61361 0.00846 0.0
H459 H 0.57738 0.65975 0.02229 0.0
H460 H 0.50513 0.62759 0.05505 0.0
H461 H 0.49546 0.58174 0.04158 0.0
C462 C 0.55022 0.70609 0.0862 0.0
C463 C 0.56134 0.72791 0.07063 0.0
C464 C 0.54391 0.68004 0.07612 0.0
C465 C 0.54863 0.67512 0.05023 0.0
C466 C 0.55969 0.69689 0.03455 0.0
C467 C 0.56583 0.72302 0.04461 0.0
C468 C 0.55377 0.61638 0.01844 0.0
C469 C 0.53085 0.59389 0.02403 0.0
C470 C 0.5593 0.64283 0.02624 0.0
C471 C 0.54211 0.64729 0.03995 0.0
C472 C 0.51894 0.62482 0.04488 0.0
C473 C 0.51336 0.59849 0.037 0.0
H474 H 0.883 0.27083 0.96885 0.0
H475 H 0.83158 0.30144 0.95899 0.0
H476 H 0.91648 0.31526 0.98919 0.0
H477 H 0.86526 0.34642 0.97751 0.0
H478 H 0.9247 0.42286 0.02399 0.0
H479 H 0.89109 0.37583 0.01313 0.0
H480 H 0.94509 0.35785 0.97894 0.0
H481 H 0.9788 0.4044 0.99151 0.0
C482 C 0.87898 0.28722 0.97113 0.0
C483 C 0.85484 0.28288 0.96254 0.0
C484 C 0.89819 0.31279 0.98252 0.0
C485 C 0.89388 0.33482 0.98494 0.0
C486 C 0.86938 0.33008 0.97661 0.0
C487 C 0.85004 0.30434 0.96579 0.0
C488 C 0.92938 0.40865 0.01457 0.0
C489 C 0.95436 0.41729 0.0086 0.0
C490 C 0.91005 0.38168 0.00805 0.0
C491 C 0.91505 0.3628 0.99471 0.0
C492 C 0.94034 0.37143 0.98953 0.0
C493 C 0.95978 0.39825 0.99665 0.0
H494 H 0.74649 0.58481 0.97655 0.0
H495 H 0.71164 0.56181 0.89585 0.0
H496 H 0.70582 0.57473 0.99204 0.0
H497 H 0.67082 0.55131 0.91131 0.0
H498 H 0.60775 0.5606 0.94621 0.0
H499 H 0.64881 0.57206 0.93064 0.0
H500 H 0.66462 0.5367 0.99677 0.0
H501 H 0.62389 0.52603 0.01265 0.0
C502 C 0.73007 0.57742 0.96215 0.0
C503 C 0.73224 0.57406 0.935 0.0
C504 C 0.70674 0.57157 0.97101 0.0
C505 C 0.685 0.5621 0.95294 0.0
C506 C 0.68725 0.55894 0.92575 0.0
C507 C 0.71062 0.56492 0.91687 0.0
C508 C 0.62009 0.55538 0.95741 0.0
C509 C 0.61278 0.54256 0.98066 0.0
C510 C 0.64352 0.56177 0.94841 0.0
C511 C 0.66006 0.55535 0.96246 0.0
C512 C 0.65256 0.54235 0.9857 0.0
C513 C 0.62917 0.53607 0.99472 0.0
H514 H 0.44763 0.16864 0.99551 0.0
H515 H 0.46708 0.15502 0.91796 0.0
H516 H 0.45683 0.13449 0.01151 0.0
H517 H 0.47609 0.12097 0.93386 0.0
H518 H 0.52188 0.09107 0.98075 0.0
H519 H 0.51031 0.12361 0.96655 0.0
H520 H 0.44041 0.08285 0.00358 0.0
H521 H 0.45193 0.04982 0.01794 0.0
C522 C 0.45379 0.1583 0.9819 0.0
C523 C 0.45668 0.16453 0.95549 0.0
C524 C 0.45885 0.13864 0.99099 0.0
C525 C 0.46728 0.12517 0.97396 0.0
C526 C 0.46984 0.13119 0.9475 0.0
C527 C 0.46449 0.15053 0.93834 0.0
C528 C 0.5041 0.08902 0.98613 0.0
C529 C 0.48784 0.06777 1.00056 0.0
C530 C 0.4974 0.10761 0.97777 0.0
C531 C 0.47439 0.10566 0.98378 0.0
C532 C 0.45831 0.08485 0.99873 0.0
C533 C 0.46488 0.06592 0.00686 0.0
H534 H 0.72954 0.13999 0.93856 0.0
H535 H 0.7465 0.18206 0.01677 0.0
H536 H 0.68502 0.11145 0.94697 0.0
H537 H 0.70198 0.1539 0.02522 0.0
H538 H 0.6279 0.07783 0.04116 0.0
H539 H 0.67215 0.10683 0.03234 0.0
H540 H 0.64668 0.11355 0.95353 0.0
H541 H 0.6025 0.08423 0.9623 0.0
C542 C 0.72363 0.1431 0.95752 0.0
C543 C 0.74142 0.16286 0.97716 0.0
C544 C 0.69816 0.12692 0.96231 0.0
C545 C 0.68994 0.13025 0.98685 0.0
C546 C 0.70775 0.15046 0.00629 0.0
C547 C 0.73319 0.16668 1.00145 0.0
C548 C 0.63182 0.08551 0.02196 0.0
C549 C 0.61183 0.07879 0.0024 0.0
C550 C 0.65713 0.10226 0.01695 0.0
C551 C 0.66298 0.11257 0.99223 0.0
C552 C 0.64288 0.10573 0.97267 0.0
C553 C 0.61757 0.08905 0.97772 0.0
H554 H 0.81629 0.53242 0.97864 0.0
H555 H 0.87732 0.60862 0.95875 0.0
H556 H 0.84615 0.51606 0.98568 0.0
H557 H 0.90744 0.59283 0.96658 0.0
H558 H 0.95109 0.54787 0.96001 0.0
H559 H 0.91969 0.56146 0.94944 0.0
H560 H 0.88069 0.52385 0.01684 0.0
H561 H 0.91162 0.50965 0.0268 0.0
C562 C 0.83616 0.54563 0.9759 0.0
C563 C 0.8446 0.57176 0.96836 0.0
C564 C 0.85328 0.5364 0.98004 0.0
C565 C 0.87924 0.55317 0.97681 0.0
C566 C 0.88755 0.57924 0.96892 0.0
C567 C 0.87038 0.5884 0.96465 0.0
C568 C 0.93569 0.54242 0.97242 0.0
C569 C 0.93374 0.52779 0.99422 0.0
C570 C 0.9178 0.55032 0.96649 0.0
C571 C 0.89769 0.54383 0.98234 0.0
C572 C 0.89568 0.52886 0.00398 0.0
C573 C 0.91349 0.52086 0.0098 0.0
H574 H 0.47123 0.29874 0.94474 0.0
H575 H 0.46386 0.29416 0.02847 0.0
H576 H 0.48432 0.34692 0.95037 0.0
H577 H 0.47689 0.34222 0.03418 0.0
H578 H 0.46719 0.41627 0.02591 0.0
H579 H 0.45759 0.36946 0.02062 0.0
H580 H 0.51968 0.39216 0.97201 0.0
H581 H 0.52935 0.43925 0.97717 0.0
C582 C 0.47289 0.3082 0.96441 0.0
C583 C 0.46709 0.2929 0.98628 0.0
C584 C 0.48037 0.33574 0.96764 0.0
C585 C 0.48168 0.34838 0.99273 0.0
C586 C 0.47592 0.33303 0.01458 0.0
C587 C 0.46865 0.3056 0.01137 0.0
C588 C 0.47887 0.41138 0.0141 0.0
C589 C 0.49907 0.43158 1.00199 0.0
C590 C 0.47345 0.38454 0.01123 0.0
C591 C 0.48794 0.37712 0.99599 0.0
C592 C 0.5081 0.39724 0.98376 0.0
C593 C 0.51371 0.42423 0.98685 0.0
H594 H 0.13983 0.72734 0.06727 0.0
H595 H 0.18474 0.71215 0.01378 0.0
H596 H 0.10613 0.67966 0.05933 0.0
H597 H 0.15103 0.66455 0.00546 0.0
H598 H 0.0987 0.57637 0.02173 0.0
H599 H 0.13159 0.6239 0.02864 0.0
H600 H 0.07401 0.64687 0.02419 0.0
H601 H 0.04083 0.59907 0.01762 0.0
C602 C 0.14233 0.71376 0.05365 0.0
C603 C 0.16462 0.72339 0.04078 0.0
C604 C 0.12303 0.68654 0.04898 0.0
C605 C 0.12578 0.66831 0.0316 0.0
C606 C 0.14834 0.67798 0.01907 0.0
C607 C 0.16758 0.70521 0.02369 0.0
C608 C 0.09293 0.59146 0.0221 0.0
C609 C 0.06701 0.58376 0.01911 0.0
C610 C 0.11188 0.6188 0.02594 0.0
C611 C 0.10547 0.63923 0.02696 0.0
C612 C 0.07958 0.63162 0.02379 0.0
C613 C 0.06056 0.6042 0.01983 0.0
H614 H 0.27814 0.42592 0.02026 0.0
H615 H 0.30172 0.43852 0.10399 0.0
H616 H 0.32218 0.44342 0.01066 0.0
H617 H 0.34599 0.45695 0.09462 0.0
H618 H 0.41706 0.45898 0.06656 0.0
H619 H 0.37343 0.4427 0.07688 0.0
H620 H 0.36267 0.48446 0.01363 0.0
H621 H 0.40609 0.49996 0.00287 0.0
C622 C 0.29285 0.43268 0.03659 0.0
C623 C 0.28668 0.43106 0.06285 0.0
C624 C 0.31809 0.44288 0.03114 0.0
C625 C 0.33768 0.45171 0.05187 0.0
C626 C 0.33138 0.45004 0.07817 0.0
C627 C 0.30612 0.4397 0.08358 0.0
C628 C 0.40534 0.46472 0.05496 0.0
C629 C 0.41482 0.4806 0.03387 0.0
C630 C 0.3804 0.45554 0.06095 0.0
C631 C 0.36448 0.4622 0.04604 0.0
C632 C 0.37425 0.47856 0.02523 0.0
C633 C 0.39915 0.48761 0.01917 0.0
H634 H 0.5545 0.85258 0.08401 0.0
H635 H 0.57766 0.85632 0.00497 0.0
H636 H 0.53956 0.88413 0.07516 0.0
H637 H 0.56284 0.88802 0.9961 0.0
H638 H 0.56247 0.96909 0.00498 0.0
H639 H 0.57535 0.93564 0.01183 0.0
H640 H 0.5056 0.88607 0.04664 0.0
H641 H 0.49265 0.91951 0.03993 0.0
C642 C 0.55603 0.85986 0.06462 0.0
C643 C 0.56662 0.85147 0.04492 0.0
C644 C 0.54748 0.8779 0.05954 0.0
C645 C 0.54985 0.8884 0.03487 0.0
C646 C 0.5608 0.88031 0.01532 0.0
C647 C 0.56912 0.86206 0.02031 0.0
C648 C 0.54979 0.95102 0.01399 0.0
C649 C 0.52653 0.94706 0.02195 0.0
C650 C 0.55713 0.93178 0.01778 0.0
C651 C 0.54151 0.90825 0.02983 0.0
C652 C 0.51815 0.90413 0.03754 0.0
C653 C 0.51067 0.92324 0.03352 0.0
H654 H 0.93891 0.17364 0.37406 0.0
H655 H 0.97219 0.18681 0.45473 0.0
H656 H 0.98085 0.20445 0.36042 0.0
H657 H 0.01404 0.21749 0.44114 0.0
H658 H 0.07964 0.29327 0.41244 0.0
H659 H 0.03768 0.26204 0.42581 0.0
H660 H 0.02185 0.20816 0.35512 0.0
H661 H 0.06365 0.23974 0.34157 0.0
C662 C 0.9552 0.18293 0.38883 0.0
C663 C 0.95217 0.17787 0.4155 0.0
C664 C 0.97925 0.20057 0.38102 0.0
C665 C 1.00082 0.21353 0.3997 0.0
C666 C 0.99779 0.20826 0.42632 0.0
C667 C 0.97378 0.19066 0.43412 0.0
C668 C 0.06715 0.27474 0.3998 0.0
C669 C 0.0748 0.2689 0.37596 0.0
C670 C 0.04318 0.25677 0.4075 0.0
C671 C 0.02637 0.23258 0.39153 0.0
C672 C 0.03417 0.22677 0.3677 0.0
C673 C 0.05816 0.24475 0.36002 0.0
H674 H 0.80841 0.73329 0.41966 0.0
H675 H 0.86699 0.81279 0.40334 0.0
H676 H 0.77583 0.74251 0.40189 0.0
H677 H 0.83428 0.82186 0.38521 0.0
H678 H 0.7676 0.81862 0.3343 0.0
H679 H 0.79989 0.80709 0.34816 0.0
H680 H 0.76007 0.77313 0.41623 0.0
H681 H 0.72785 0.78454 0.4023 0.0
C682 C 0.81435 0.75276 0.4123 0.0
C683 C 0.84033 0.77243 0.41322 0.0
C684 C 0.79567 0.75801 0.40208 0.0
C685 C 0.80248 0.78299 0.39236 0.0
C686 C 0.82845 0.80232 0.39237 0.0
C687 C 0.84718 0.79712 0.40273 0.0
C688 C 0.76572 0.80852 0.35211 0.0
C689 C 0.74526 0.80241 0.36723 0.0
C690 C 0.78425 0.80208 0.36011 0.0
C691 C 0.78252 0.7892 0.38327 0.0
C692 C 0.76178 0.78275 0.39812 0.0
C693 C 0.74339 0.78937 0.39022 0.0
H694 H 0.24006 0.07511 0.36819 0.0
H695 H 0.20829 0.04074 0.43962 0.0
H696 H 0.22971 0.03002 0.34861 0.0
H697 H 0.19802 0.99601 0.42025 0.0
H698 H 0.15937 0.91657 0.36878 0.0
H699 H 0.1685 0.96204 0.38302 0.0
H700 H 0.24392 0.99534 0.35765 0.0
H701 H 0.23485 0.9495 0.34317 0.0
C702 C 0.23067 0.05787 0.37955 0.0
C703 C 0.22497 0.06133 0.4054 0.0
C704 C 0.22496 0.0322 0.36847 0.0
C705 C 0.21304 0.00954 0.3829 0.0
C706 C 0.20699 0.01304 0.40856 0.0
C707 C 0.21299 0.03864 0.41971 0.0
C708 C 0.17789 0.93348 0.36598 0.0
C709 C 0.19647 0.92927 0.355 0.0
C710 C 0.1831 0.95957 0.37425 0.0
C711 C 0.20698 0.9822 0.37166 0.0
C712 C 0.22529 0.97823 0.35975 0.0
C713 C 0.22012 0.95198 0.35158 0.0
H714 H 0.49239 0.63032 0.30402 0.0
H715 H 0.5514 0.61545 0.27938 0.0
H716 H 0.5247 0.67447 0.3256 0.0
H717 H 0.58365 0.66027 0.29933 0.0
H718 H 0.63857 0.73704 0.35081 0.0
H719 H 0.60524 0.68999 0.33823 0.0
H720 H 0.55357 0.7171 0.31249 0.0
H721 H 0.58629 0.76363 0.32589 0.0
C722 C 0.51223 0.63632 0.30335 0.0
C723 C 0.51919 0.61933 0.28965 0.0
C724 C 0.53083 0.66187 0.31545 0.0
C725 C 0.55689 0.67123 0.31398 0.0
C726 C 0.56384 0.65381 0.30111 0.0
C727 C 0.54526 0.62818 0.28925 0.0
C728 C 0.61998 0.73289 0.34277 0.0
C729 C 0.6152 0.75419 0.3393 0.0
C730 C 0.60089 0.7059 0.33538 0.0
C731 C 0.57664 0.6996 0.32419 0.0
C732 C 0.57178 0.72096 0.32143 0.0
C733 C 0.59072 0.74781 0.32898 0.0
H734 H 0.41435 0.92359 0.31343 0.0
H735 H 0.38067 0.90001 0.23228 0.0
H736 H 0.37289 0.91143 0.32818 0.0
H737 H 0.33921 0.88779 0.24701 0.0
H738 H 0.27584 0.8978 0.28065 0.0
H739 H 0.31725 0.90932 0.26602 0.0
H740 H 0.33118 0.87222 0.33172 0.0
H741 H 0.28994 0.86122 0.34658 0.0
C742 C 0.39805 0.91556 0.29877 0.0
C743 C 0.40083 0.91285 0.27168 0.0
C744 C 0.37428 0.90858 0.30721 0.0
C745 C 0.35274 0.8987 0.28877 0.0
C746 C 0.3555 0.89578 0.2617 0.0
C747 C 0.37925 0.90278 0.25325 0.0
C748 C 0.28781 0.89217 0.29195 0.0
C749 C 0.2798 0.87873 0.31477 0.0
C750 C 0.31144 0.89859 0.28349 0.0
C751 C 0.32753 0.89169 0.29769 0.0
C752 C 0.3194 0.87815 0.32052 0.0
C753 C 0.29575 0.87171 0.32896 0.0
H754 H 0.16622 0.53219 0.30614 0.0
H755 H 0.09091 0.46846 0.27467 0.0
H756 H 0.17473 0.49873 0.32414 0.0
H757 H 0.09988 0.43478 0.29174 0.0
H758 H 0.11725 0.38338 0.34589 0.0
H759 H 0.10728 0.41759 0.33226 0.0
H760 H 0.18258 0.4638 0.30685 0.0
H761 H 0.19271 0.43023 0.32083 0.0
C762 C 0.15139 0.51106 0.3032 0.0
C763 C 0.12788 0.50305 0.28889 0.0
C764 C 0.15639 0.49181 0.31328 0.0
C765 C 0.13806 0.46402 0.30925 0.0
C766 C 0.11436 0.45602 0.29539 0.0
C767 C 0.10933 0.47531 0.28531 0.0
C768 C 0.13174 0.40096 0.3376 0.0
C769 C 0.15582 0.40403 0.33458 0.0
C770 C 0.12596 0.42048 0.32962 0.0
C771 C 0.14414 0.44349 0.3185 0.0
C772 C 0.16825 0.4466 0.31573 0.0
C773 C 0.17401 0.42718 0.32367 0.0
H774 H 0.39869 0.46264 0.28189 0.0
H775 H 0.40094 0.5336 0.31907 0.0
H776 H 0.35412 0.43499 0.28995 0.0
H777 H 0.35602 0.50621 0.32652 0.0
H778 H 0.28628 0.44271 0.36416 0.0
H779 H 0.32987 0.47195 0.3538 0.0
H780 H 0.31182 0.42577 0.27737 0.0
H781 H 0.2684 0.3961 0.28819 0.0
C782 C 0.3895 0.47233 0.29156 0.0
C783 C 0.40321 0.5002 0.29998 0.0
C784 C 0.36391 0.45656 0.29603 0.0
C785 C 0.3514 0.46832 0.30893 0.0
C786 C 0.3651 0.49637 0.31689 0.0
C787 C 0.39074 0.51211 0.3125 0.0
C788 C 0.29164 0.43894 0.3451 0.0
C789 C 0.27406 0.4171 0.32703 0.0
C790 C 0.31658 0.45579 0.33907 0.0
C791 C 0.32446 0.45122 0.31475 0.0
C792 C 0.30658 0.42964 0.29644 0.0
C793 C 0.28166 0.41273 0.30255 0.0
H794 H 0.52182 0.91184 0.26536 0.0
H795 H 0.52033 0.92832 0.34894 0.0
H796 H 0.55106 0.8953 0.27524 0.0
H797 H 0.55035 0.91285 0.35901 0.0
H798 H 0.58321 0.85727 0.36843 0.0
H799 H 0.55333 0.87285 0.35824 0.0
H800 H 0.59386 0.91029 0.29153 0.0
H801 H 0.62312 0.89378 0.3013 0.0
C802 C 0.52773 0.9118 0.28586 0.0
C803 C 0.51836 0.9207 0.30641 0.0
C804 C 0.54469 0.90263 0.29156 0.0
C805 C 0.55303 0.9026 0.31795 0.0
C806 C 0.54395 0.91201 0.33848 0.0
C807 C 0.52684 0.92099 0.33275 0.0
C808 C 0.58567 0.86883 0.3516 0.0
C809 C 0.60542 0.87434 0.33564 0.0
C810 C 0.56866 0.87792 0.34583 0.0
C811 C 0.57115 0.89289 0.32407 0.0
C812 C 0.59108 0.89847 0.30819 0.0
C813 C 0.60798 0.8892 0.31388 0.0
H814 H 0.1248 0.62752 0.35575 0.0
H815 H 0.13869 0.63578 0.27357 0.0
H816 H 0.13791 0.67556 0.36268 0.0
H817 H 0.15184 0.68391 0.28043 0.0
H818 H 0.19625 0.77512 0.31059 0.0
H819 H 0.18621 0.72794 0.30482 0.0
H820 H 0.12037 0.70409 0.34795 0.0
H821 H 0.13037 0.75102 0.35389 0.0
C822 C 0.13099 0.63975 0.33927 0.0
C823 C 0.13127 0.62812 0.31428 0.0
C824 C 0.13832 0.66717 0.34317 0.0
C825 C 0.14599 0.68353 0.32211 0.0
C826 C 0.14642 0.67192 0.29713 0.0
C827 C 0.13888 0.64442 0.29319 0.0
C828 C 0.17971 0.75983 0.31896 0.0
C829 C 0.16413 0.76687 0.33271 0.0
C830 C 0.17389 0.7328 0.31551 0.0
C831 C 0.15254 0.71233 0.32599 0.0
C832 C 0.13713 0.71944 0.33993 0.0
C833 C 0.14279 0.74635 0.34316 0.0
H834 H 0.83571 0.04912 0.41957 0.0
H835 H 0.81962 0.06238 0.33979 0.0
H836 H 0.8028 1.00134 0.41086 0.0
H837 H 0.7864 0.01453 0.33112 0.0
H838 H 0.71012 0.93504 0.33988 0.0
H839 H 0.74353 0.98279 0.347 0.0
H840 H 0.7955 0.96005 0.38198 0.0
H841 H 0.76229 0.91243 0.3749 0.0
C842 C 0.82538 0.04172 0.40005 0.0
C843 C 0.83078 0.05927 0.38005 0.0
C844 C 0.80652 0.01439 0.39508 0.0
C845 C 0.7922 1.00416 0.37024 0.0
C846 C 0.79714 0.02185 0.35046 0.0
C847 C 0.81623 0.04913 0.35533 0.0
C848 C 0.72869 0.94021 0.34901 0.0
C849 C 0.7335 0.9199 0.35685 0.0
C850 C 0.74785 0.96755 0.35296 0.0
C851 C 0.77209 0.97514 0.36513 0.0
C852 C 0.77693 0.95482 0.37279 0.0
C853 C 0.75791 0.92752 0.36857 0.0
H854 H 0.94461 0.76782 0.35076 0.0
H855 H 0.96814 0.77924 0.43441 0.0
H856 H 0.98851 0.78481 0.34105 0.0
H857 H 0.01234 0.7971 0.42491 0.0
H858 H 0.08166 0.79541 0.39565 0.0
H859 H 0.03855 0.78121 0.40655 0.0
H860 H 0.02982 0.82497 0.34412 0.0
H861 H 0.07272 0.83847 0.33282 0.0
C862 C 0.9593 0.77436 0.36707 0.0
C863 C 0.95311 0.77248 0.39334 0.0
C864 C 0.98448 0.78423 0.36155 0.0
C865 C 1.00402 0.79241 0.38219 0.0
C866 C 0.99776 0.7907 0.40852 0.0
C867 C 0.97254 0.78072 0.41401 0.0
C868 C 0.07051 0.80202 0.38434 0.0
C869 C 0.0804 0.81788 0.36332 0.0
C870 C 0.04587 0.79406 0.39069 0.0
C871 C 0.03065 0.80189 0.37618 0.0
C872 C 0.04085 0.81822 0.35543 0.0
C873 C 0.06546 0.82609 0.34904 0.0
H874 H 0.22312 0.19087 0.42594 0.0
H875 H 0.23461 0.18382 0.34354 0.0
H876 H 0.20843 0.22265 0.41688 0.0
H877 H 0.21991 0.2155 0.33438 0.0
H878 H 0.2247 0.29862 0.3376 0.0
H879 H 0.23625 0.26445 0.34568 0.0
H880 H 0.17275 0.22483 0.39236 0.0
H881 H 0.1612 0.25924 0.38447 0.0
C882 C 0.22212 0.19585 0.40584 0.0
C883 C 0.22957 0.18459 0.38535 0.0
C884 C 0.21368 0.21396 0.40063 0.0
C885 C 0.21295 0.22152 0.3749 0.0
C886 C 0.22041 0.2102 0.35443 0.0
C887 C 0.22867 0.19196 0.35961 0.0
C888 C 0.21312 0.28261 0.34954 0.0
C889 C 0.19201 0.28168 0.36038 0.0
C890 C 0.21966 0.26291 0.35402 0.0
C891 C 0.20538 0.24191 0.36961 0.0
C892 C 0.18422 0.24089 0.38042 0.0
C893 C 0.17752 0.2605 0.37574 0.0
H894 H 0.63285 0.47595 0.74395 0.0
H895 H 0.61732 0.54072 0.76163 0.0
H896 H 0.6733 0.50812 0.72845 0.0
H897 H 0.65776 0.57293 0.74602 0.0
H898 H 0.74343 0.62696 0.74037 0.0
H899 H 0.70345 0.59491 0.75703 0.0
H900 H 0.6895 0.53551 0.69198 0.0
H901 H 0.72978 0.56746 0.67572 0.0
C902 C 0.63801 0.49705 0.74439 0.0
C903 C 0.62181 0.50575 0.75397 0.0
C904 C 0.66119 0.51549 0.73545 0.0
C905 C 0.66876 0.54311 0.73586 0.0
C906 C 0.65269 0.55187 0.74574 0.0
C907 C 0.6295 0.53341 0.75471 0.0
C908 C 0.73176 0.60705 0.72965 0.0
C909 C 0.73961 0.59966 0.70675 0.0
C910 C 0.70881 0.58873 0.73911 0.0
C911 C 0.69322 0.56262 0.72584 0.0
C912 C 0.70119 0.55531 0.70289 0.0
C913 C 0.72416 0.57364 0.69346 0.0
H914 H 0.53668 0.14308 0.74134 0.0
H915 H 0.4762 0.06308 0.7536 0.0
H916 H 0.5051 0.15501 0.72608 0.0
H917 H 0.44473 0.07493 0.73837 0.0
H918 H 0.39721 0.11623 0.74187 0.0
H919 H 0.42939 0.10448 0.75487 0.0
H920 H 0.4718 0.14485 0.69028 0.0
H921 H 0.4397 0.15696 0.67758 0.0
C922 C 0.51667 0.12794 0.74041 0.0
C923 C 0.50893 0.10223 0.7489 0.0
C924 C 0.49858 0.13477 0.7317 0.0
C925 C 0.4724 0.11601 0.73129 0.0
C926 C 0.46473 0.09004 0.739 0.0
C927 C 0.48277 0.08324 0.74769 0.0
C928 C 0.41342 0.12256 0.73048 0.0
C929 C 0.41598 0.1374 0.70871 0.0
C930 C 0.43177 0.11572 0.7378 0.0
C931 C 0.45308 0.12358 0.7235 0.0
C932 C 0.45572 0.13867 0.70182 0.0
C933 C 0.43731 0.14549 0.69448 0.0
H934 H 0.93762 0.40457 0.74671 0.0
H935 H 0.86472 0.38997 0.71273 0.0
H936 H 0.92694 0.35932 0.72897 0.0
H937 H 0.85465 0.34529 0.69365 0.0
H938 H 0.83131 0.25606 0.69776 0.0
H939 H 0.84307 0.30281 0.70929 0.0
H940 H 0.91985 0.32921 0.69069 0.0
H941 H 0.90821 0.282 0.67987 0.0
C942 C 0.91937 0.3918 0.73527 0.0
C943 C 0.9019 0.40088 0.7315 0.0
C944 C 0.91339 0.36593 0.72473 0.0
C945 C 0.88983 0.34846 0.70997 0.0
C946 C 0.8728 0.35797 0.70528 0.0
C947 C 0.87872 0.38379 0.71596 0.0
C948 C 0.85068 0.27176 0.69587 0.0
C949 C 0.86885 0.26514 0.68802 0.0
C950 C 0.8574 0.29872 0.70233 0.0
C951 C 0.88244 0.31993 0.70099 0.0
C952 C 0.90047 0.3134 0.69235 0.0
C953 C 0.89375 0.28632 0.68597 0.0
H954 H 0.15661 0.96513 0.63298 0.0
H955 H 0.21438 0.94682 0.61155 0.0
H956 H 0.1896 0.00906 0.65458 0.0
H957 H 0.24736 0.99124 0.63187 0.0
H958 H 0.30202 0.0665 0.6858 0.0
H959 H 0.26762 0.02019 0.67225 0.0
H960 H 0.22089 0.0511 0.64058 0.0
H961 H 0.25475 0.09706 0.6547 0.0
C962 C 0.17632 0.97035 0.63307 0.0
C963 C 0.18282 0.95251 0.62029 0.0
C964 C 0.19528 0.99569 0.64519 0.0
C965 C 0.2212 1.00386 0.64477 0.0
C966 C 0.22764 0.98561 0.6328 0.0
C967 C 0.20869 0.96025 0.62079 0.0
C968 C 0.2843 0.06339 0.67621 0.0
C969 C 0.28123 0.08557 0.67131 0.0
C970 C 0.26461 0.03682 0.6683 0.0
C971 C 0.24146 0.03185 0.65524 0.0
C972 C 0.23825 0.05405 0.65095 0.0
C973 C 0.25783 0.08052 0.65892 0.0
H974 H 0.04367 0.23116 0.56741 0.0
H975 H 0.08257 0.25712 0.64638 0.0
H976 H 1.0042 0.22275 0.58503 0.0
H977 H 0.04335 0.24927 0.66401 0.0
H978 H 0.96265 0.2024 0.68945 0.0
H979 H 1.00276 0.21291 0.67206 0.0
H980 H 0.98318 0.2441 0.60474 0.0
H981 H 0.94274 0.23271 0.62183 0.0
C982 C 0.04384 0.2354 0.58849 0.0
C983 C 0.06618 0.24464 0.60551 0.0
C984 C 0.02124 0.23064 0.59863 0.0
C985 C 0.02051 0.23522 0.62601 0.0
C986 C 0.04304 0.24499 0.64292 0.0
C987 C 0.06556 0.24956 0.63281 0.0
C988 C 0.96705 0.21164 0.67103 0.0
C989 C 0.94966 0.21677 0.65699 0.0
C990 C 0.99008 0.2178 0.66109 0.0
C991 C 0.99627 0.22937 0.63694 0.0
C992 C 0.97892 0.23485 0.62316 0.0
C993 C 0.95584 0.22854 0.63305 0.0
H994 H 0.74966 0.80662 0.63087 0.0
H995 H 0.82872 0.85799 0.61944 0.0
H996 H 0.75895 0.77303 0.64763 0.0
H997 H 0.83807 0.82389 0.63426 0.0
H998 H 0.8539 0.76893 0.68062 0.0
H999 H 0.84353 0.80317 0.66902 0.0
H1000 H 0.76825 0.73974 0.63648 0.0
H1001 H 0.77831 0.70573 0.64994 0.0
C1002 C 0.76902 0.81052 0.63182 0.0
C1003 C 0.78853 0.83479 0.62407 0.0
C1004 C 0.7744 0.79121 0.64119 0.0
C1005 C 0.79934 0.79548 0.64239 0.0
C1006 C 0.81876 0.81993 0.63436 0.0
C1007 C 0.81344 0.83946 0.62561 0.0
C1008 C 0.83505 0.76241 0.67125 0.0
C1009 C 0.81688 0.73472 0.66625 0.0
C1010 C 0.82912 0.78204 0.6643 0.0
C1011 C 0.80506 0.77447 0.65144 0.0
C1012 C 0.78681 0.7466 0.64674 0.0
C1013 C 0.79257 0.72699 0.65434 0.0
H1014 H 0.06505 0.86801 0.6522 0.0
H1015 H 0.06133 0.79767 0.61149 0.0
H1016 H 0.02005 0.84092 0.65948 0.0
H1017 H 0.01667 0.77029 0.61934 0.0
H1018 H 0.93128 0.73278 0.61789 0.0
H1019 H 0.97477 0.7626 0.60739 0.0
H1020 H 0.99348 0.80555 0.68563 0.0
H1021 H 0.94981 0.77618 0.69571 0.0
C1022 C 0.05451 0.84671 0.64487 0.0
C1023 C 0.06658 0.83484 0.63146 0.0
C1024 C 0.02884 0.83115 0.64913 0.0
C1025 C 0.01471 0.80336 0.64009 0.0
C1026 C 0.02682 0.79167 0.62628 0.0
C1027 C 0.05245 0.80727 0.62195 0.0
C1028 C 0.94469 0.74876 0.63271 0.0
C1029 C 0.93728 0.75217 0.65762 0.0
C1030 C 0.96964 0.76574 0.62679 0.0
C1031 C 0.98773 0.7864 0.64572 0.0
C1032 C 0.98003 0.7901 0.67045 0.0
C1033 C 0.95504 0.77319 0.67631 0.0
H1034 H 0.20849 0.27275 0.6196 0.0
H1035 H 0.15074 0.20341 0.65334 0.0
H1036 H 0.23855 0.25687 0.6275 0.0
H1037 H 0.18045 0.18686 0.66059 0.0
H1038 H 0.24921 0.18469 0.69929 0.0
H1039 H 0.21794 0.19835 0.68897 0.0
H1040 H 0.24835 0.22245 0.61406 0.0
H1041 H 0.28014 0.20944 0.62489 0.0
C1042 C 0.20225 0.254 0.6286 0.0
C1043 C 0.17752 0.23949 0.63631 0.0
C1044 C 0.21936 0.24475 0.63292 0.0
C1045 C 0.21199 0.22064 0.64483 0.0
C1046 C 0.18693 0.20577 0.65184 0.0
C1047 C 0.16988 0.2151 0.6476 0.0
C1048 C 0.24912 0.19282 0.68059 0.0
C1049 C 0.26711 0.19613 0.66293 0.0
C1050 C 0.2311 0.20049 0.67457 0.0
C1051 C 0.23059 0.21152 0.65067 0.0
C1052 C 0.24842 0.2144 0.63281 0.0
C1053 C 0.26654 0.20683 0.63892 0.0
H1054 H 0.76091 0.9552 0.62981 0.0
H1055 H 0.82735 0.97024 0.67941 0.0
H1056 H 0.774 1.00326 0.63689 0.0
H1057 H 0.84048 0.01836 0.68683 0.0
H1058 H 0.86812 0.10684 0.67029 0.0
H1059 H 0.85581 0.05917 0.66336 0.0
H1060 H 0.77777 0.03599 0.67295 0.0
H1061 H 0.78994 0.08365 0.67957 0.0
C1062 C 0.77828 0.96885 0.64232 0.0
C1063 C 0.79294 0.95905 0.65444 0.0
C1064 C 0.78573 0.99631 0.6465 0.0
C1065 C 0.80816 0.01462 0.66266 0.0
C1066 C 0.82316 1.00484 0.6742 0.0
C1067 C 0.81563 0.97734 0.67009 0.0
C1068 C 0.84834 0.09162 0.67104 0.0
C1069 C 0.83002 0.09917 0.67543 0.0
C1070 C 0.84131 0.06425 0.66717 0.0
C1071 C 0.81579 0.04375 0.66747 0.0
C1072 C 0.79754 0.05128 0.6722 0.0
C1073 C 0.80457 0.07864 0.67619 0.0
H1074 H 0.52609 0.37083 0.69489 0.0
H1075 H 0.47847 0.39359 0.73583 0.0
H1076 H 0.4911 0.32368 0.68812 0.0
H1077 H 0.44349 0.34649 0.72934 0.0
H1078 H 0.37924 0.2666 0.68545 0.0
H1079 H 0.4144 0.3133 0.69249 0.0
H1080 H 0.4662 0.28504 0.71364 0.0
H1081 H 0.43114 0.23828 0.70634 0.0
C1082 C 0.50807 0.36564 0.70237 0.0
C1083 C 0.50471 0.38577 0.7154 0.0
C1084 C 0.48813 0.3387 0.69868 0.0
C1085 C 0.46446 0.33139 0.70803 0.0
C1086 C 0.46133 0.35156 0.7215 0.0
C1087 C 0.48132 0.37845 0.72529 0.0
C1088 C 0.39811 0.27028 0.69155 0.0
C1089 C 0.40232 0.24862 0.69528 0.0
C1090 C 0.41824 0.29709 0.69576 0.0
C1091 C 0.44308 0.30288 0.70366 0.0
C1092 C 0.44733 0.28124 0.70729 0.0
C1093 C 0.42718 0.25443 0.70321 0.0
H1094 H 0.60959 0.08699 0.68138 0.0
H1095 H 0.63447 0.10836 0.76487 0.0
H1096 H 0.65344 0.10345 0.67176 0.0
H1097 H 0.67855 0.12583 0.75535 0.0
H1098 H 0.75062 0.12807 0.73109 0.0
H1099 H 0.70671 0.11123 0.74083 0.0
H1100 H 0.69331 0.1442 0.67132 0.0
H1101 H 0.73693 0.16013 0.66123 0.0
C1102 C 0.62456 0.09561 0.69762 0.0
C1103 C 0.61877 0.09696 0.7238 0.0
C1104 C 0.6497 0.10515 0.69214 0.0
C1105 C 0.66962 0.11618 0.71275 0.0
C1106 C 0.66371 0.11726 0.739 0.0
C1107 C 0.63853 0.10755 0.74447 0.0
C1108 C 0.73821 0.13163 0.71792 0.0
C1109 C 0.74706 0.14529 0.69538 0.0
C1110 C 0.7131 0.12217 0.72357 0.0
C1111 C 0.6964 0.12634 0.70687 0.0
C1112 C 0.70546 0.14022 0.68438 0.0
C1113 C 0.7305 0.1495 0.67867 0.0
H1114 H 0.90921 0.52475 0.67149 0.0
H1115 H 0.89072 0.52472 0.75216 0.0
H1116 H 0.89315 0.55531 0.66247 0.0
H1117 H 0.87465 0.55537 0.74324 0.0
H1118 H 0.82652 0.59034 0.70941 0.0
H1119 H 0.83972 0.55716 0.71691 0.0
H1120 H 0.9063 0.60303 0.67595 0.0
H1121 H 0.89312 0.63602 0.66825 0.0
C1122 C 0.90142 0.53106 0.68719 0.0
C1123 C 0.90073 0.52196 0.71236 0.0
C1124 C 0.89239 0.54869 0.6821 0.0
C1125 C 0.88256 0.55771 0.70212 0.0
C1126 C 0.88174 0.54846 0.72729 0.0
C1127 C 0.89094 0.53097 0.73242 0.0
C1128 C 0.84388 0.59326 0.70184 0.0
C1129 C 0.85873 0.61586 0.68819 0.0
C1130 C 0.85152 0.57433 0.70631 0.0
C1131 C 0.87404 0.57744 0.697 0.0
C1132 C 0.8887 0.59986 0.6831 0.0
C1133 C 0.88119 0.61888 0.67883 0.0
H1134 H 0.43022 0.93177 0.18353 0.0
H1135 H 0.50383 0.98693 0.22569 0.0
H1136 H 0.44423 0.95492 0.14379 0.0
H1137 H 0.51775 0.0106 0.18619 0.0
H1138 H 0.54293 0.0208 0.10173 0.0
H1139 H 0.5291 1.00302 0.14395 0.0
H1140 H 0.45583 0.99549 0.1232 0.0
H1141 H 0.46987 0.01291 0.08072 0.0
C1142 C 0.44928 0.94913 0.18438 0.0
C1143 C 0.466 0.95744 0.20763 0.0
C1144 C 0.4573 0.9625 0.16165 0.0
C1145 C 0.48217 0.98464 0.16172 0.0
C1146 C 0.49864 0.99334 0.18525 0.0
C1147 C 0.49068 0.97982 0.2079 0.0
C1148 C 0.52406 0.01577 0.10655 0.0
C1149 C 0.50734 0.01798 0.08817 0.0
C1150 C 0.5161 1.00563 0.1307 0.0
C1151 C 0.49126 0.99764 0.13699 0.0
C1152 C 0.4749 1.00094 0.11883 0.0
C1153 C 0.48289 0.01096 0.09457 0.0
H1154 H 0.12043 0.57088 0.20011 0.0
H1155 H 0.06289 0.49213 0.21923 0.0
H1156 H 0.09739 0.56261 0.15656 0.0
H1157 H 0.04007 0.48361 0.17539 0.0
H1158 H 0.99204 0.49643 0.10934 0.0
H1159 H 0.01566 0.50173 0.15199 0.0
H1160 H 0.08541 0.53384 0.11418 0.0
H1161 H 0.06176 0.52938 0.0719 0.0
C1162 C 0.10289 0.55176 0.19496 0.0
C1163 C 0.09341 0.53221 0.21315 0.0
C1164 C 0.08983 0.54691 0.16992 0.0
C1165 C 0.06689 0.52246 0.16254 0.0
C1166 C 0.05758 0.50274 0.18059 0.0
C1167 C 0.07075 0.50751 0.20559 0.0
C1168 C 0.01238 0.50435 0.11022 0.0
C1169 C 0.02504 0.51171 0.08729 0.0
C1170 C 0.02588 0.50723 0.13453 0.0
C1171 C 0.05238 0.51798 0.13642 0.0
C1172 C 0.06501 0.52543 0.11338 0.0
C1173 C 0.05144 0.52237 0.08905 0.0
H1174 H 0.45323 0.53706 0.18969 0.0
H1175 H 0.53025 0.56449 0.22222 0.0
H1176 H 0.46337 0.5266 0.14624 0.0
H1177 H 0.54037 0.55445 0.17886 0.0
H1178 H 0.55704 0.56866 0.09273 0.0
H1179 H 0.54481 0.57483 0.13624 0.0
H1180 H 0.47645 0.49625 0.12155 0.0
H1181 H 0.48907 0.48991 0.0779 0.0
C1182 C 0.4722 0.54053 0.18768 0.0
C1183 C 0.49102 0.55194 0.20939 0.0
C1184 C 0.47799 0.53456 0.16279 0.0
C1185 C 0.50274 0.54001 0.15909 0.0
C1186 C 0.52127 0.55054 0.18098 0.0
C1187 C 0.51547 0.55635 0.20581 0.0
C1188 C 0.53944 0.55265 0.09881 0.0
C1189 C 0.52387 0.52889 0.08188 0.0
C1190 C 0.53247 0.55614 0.12376 0.0
C1191 C 0.50972 0.53598 0.13236 0.0
C1192 C 0.49399 0.51223 0.11534 0.0
C1193 C 0.50112 0.50864 0.09036 0.0
H1194 H 0.96425 0.51028 0.80403 0.0
H1195 H 0.91244 0.43045 0.82584 0.0
H1196 H 0.98595 0.52352 0.84907 0.0
H1197 H 0.93411 0.44354 0.87062 0.0
H1198 H 0.96332 0.48205 0.95457 0.0
H1199 H 0.94124 0.47503 0.91071 0.0
H1200 H 0.01315 0.5103 0.87691 0.0
H1201 H 0.03532 0.51746 0.92097 0.0
C1202 C 0.95739 0.49567 0.81852 0.0
C1203 C 0.93674 0.4693 0.81143 0.0
C1204 C 0.96989 0.50318 0.8442 0.0
C1205 C 0.9617 0.48458 0.86337 0.0
C1206 C 0.9407 0.45842 0.85637 0.0
C1207 C 0.92844 0.45083 0.83068 0.0
C1208 C 0.97446 0.48872 0.93785 0.0
C1209 C 1.00103 0.50017 0.94111 0.0
C1210 C 0.9618 0.48452 0.91272 0.0
C1211 C 0.97543 0.49186 0.89034 0.0
C1212 C 1.00214 0.50456 0.89381 0.0
C1213 C 0.01482 0.50857 0.91897 0.0
H1214 H 0.59158 0.49941 0.8413 0.0
H1215 H 0.51547 0.46094 0.80129 0.0
H1216 H 0.57575 0.50743 0.88193 0.0
H1217 H 0.49968 0.46843 0.84204 0.0
H1218 H 0.47824 0.45608 0.92807 0.0
H1219 H 0.49423 0.45084 0.88642 0.0
H1220 H 0.55614 0.53376 0.90056 0.0
H1221 H 0.53967 0.53911 0.94193 0.0
C1222 C 0.57155 0.49294 0.84103 0.0
C1223 C 0.55479 0.47936 0.818 0.0
C1224 C 0.56248 0.49748 0.86435 0.0
C1225 C 0.53644 0.48837 0.86521 0.0
C1226 C 0.51978 0.47527 0.8421 0.0
C1227 C 0.52885 0.47093 0.81877 0.0
C1228 C 0.49516 0.47322 0.92216 0.0
C1229 C 0.50802 0.49785 0.93839 0.0
C1230 C 0.5043 0.47025 0.89832 0.0
C1231 C 0.52652 0.49185 0.89028 0.0
C1232 C 0.53921 0.51662 0.90643 0.0
C1233 C 0.52989 0.51965 0.93015 0.0
H1234 H 0.57455 0.08479 0.83766 0.0
H1235 H 0.49574 0.03378 0.8065 0.0
H1236 H 0.56511 0.06326 0.8788 0.0
H1237 H 0.48603 0.01338 0.84799 0.0
H1238 H 0.47755 0.96755 0.91913 0.0
H1239 H 0.49102 0.98438 0.87637 0.0
H1240 H 0.54329 0.06404 0.91626 0.0
H1241 H 0.52992 0.04693 0.95857 0.0
C1242 C 0.55526 0.06883 0.83949 0.0
C1243 C 0.53586 0.06119 0.81887 0.0
C1244 C 0.54978 0.05671 0.86319 0.0
C1245 C 0.52476 0.03671 0.86683 0.0
C1246 C 0.50556 0.02849 0.84585 0.0
C1247 C 0.51106 0.04049 0.82216 0.0
C1248 C 0.49219 0.98853 0.91863 0.0
C1249 C 0.5032 1.00582 0.94216 0.0
C1250 C 0.49982 0.99824 0.8942 0.0
C1251 C 0.51833 0.02558 0.89283 0.0
C1252 C 0.52949 0.04272 0.91654 0.0
C1253 C 0.52197 0.03291 0.94091 0.0
H1254 H 0.09363 0.26115 0.51578 0.0
H1255 H 0.17 0.304 0.55535 0.0
H1256 H 0.10977 0.28336 0.47585 0.0
H1257 H 0.18607 0.32598 0.51555 0.0
H1258 H 0.20863 0.3325 0.43069 0.0
H1259 H 0.19171 0.31232 0.47113 0.0
H1260 H 0.12989 0.3282 0.45802 0.0
H1261 H 0.14713 0.3487 0.41757 0.0
C1262 C 0.11379 0.27553 0.51607 0.0
C1263 C 0.13055 0.28058 0.53867 0.0
C1264 C 0.12304 0.28824 0.4932 0.0
C1265 C 0.14924 0.30623 0.49245 0.0
C1266 C 0.16586 0.31179 0.51529 0.0
C1267 C 0.15663 0.29917 0.5381 0.0
C1268 C 0.19152 0.33182 0.43656 0.0
C1269 C 0.17897 0.34182 0.4209 0.0
C1270 C 0.18185 0.32032 0.45974 0.0
C1271 C 0.15943 0.31863 0.4678 0.0
C1272 C 0.14698 0.32885 0.45216 0.0
C1273 C 0.15677 0.34049 0.429 0.0
H1274 H 0.7763 0.9013 0.53881 0.0
H1275 H 0.7192 0.82261 0.55855 0.0
H1276 H 0.75379 0.89202 0.49483 0.0
H1277 H 0.6968 0.81312 0.51421 0.0
H1278 H 0.65085 0.82406 0.44331 0.0
H1279 H 0.67243 0.82977 0.48737 0.0
H1280 H 0.7443 0.86152 0.4538 0.0
H1281 H 0.72282 0.85601 0.40997 0.0
C1282 C 0.75885 0.88206 0.53378 0.0
C1283 C 0.74947 0.86273 0.55219 0.0
C1284 C 0.74612 0.87662 0.50848 0.0
C1285 C 0.72359 0.85178 0.501 0.0
C1286 C 0.71406 0.83249 0.51945 0.0
C1287 C 0.72695 0.83784 0.54474 0.0
C1288 C 0.67122 0.83201 0.44538 0.0
C1289 C 0.68519 0.83975 0.42329 0.0
C1290 C 0.68355 0.83518 0.47056 0.0
C1291 C 0.7101 0.84633 0.47409 0.0
C1292 C 0.72389 0.85327 0.45178 0.0
C1293 C 0.71156 0.84995 0.42666 0.0
H1294 H 0.11641 0.87113 0.52044 0.0
H1295 H 0.19276 0.89622 0.55342 0.0
H1296 H 0.12656 0.86087 0.4769 0.0
H1297 H 0.2029 0.88635 0.51001 0.0
H1298 H 0.22096 0.90291 0.42475 0.0
H1299 H 0.20816 0.90826 0.46814 0.0
H1300 H 0.13929 0.83035 0.45145 0.0
H1301 H 0.15247 0.82481 0.40785 0.0
C1302 C 0.13521 0.87408 0.5185 0.0
C1303 C 0.15388 0.88485 0.54033 0.0
C1304 C 0.14101 0.86823 0.49357 0.0
C1305 C 0.16562 0.87315 0.49001 0.0
C1306 C 0.18393 0.88288 0.51205 0.0
C1307 C 0.17812 0.88858 0.5369 0.0
C1308 C 0.2031 0.88687 0.43033 0.0
C1309 C 0.18758 0.86353 0.41288 0.0
C1310 C 0.19582 0.88989 0.45522 0.0
C1311 C 0.1728 0.86965 0.46326 0.0
C1312 C 0.15705 0.84636 0.44568 0.0
C1313 C 0.16449 0.84325 0.42073 0.0
H1314 H 0.6284 0.84018 0.13779 0.0
H1315 H 0.57399 0.76286 0.16268 0.0
H1316 H 0.65029 0.85454 0.18276 0.0
H1317 H 0.59584 0.77702 0.20735 0.0
H1318 H 0.62659 0.81843 0.2901 0.0
H1319 H 0.60459 0.81051 0.24602 0.0
H1320 H 0.67608 0.84068 0.21194 0.0
H1321 H 0.69816 0.84871 0.2562 0.0
C1322 C 0.62102 0.82639 0.15293 0.0
C1323 C 0.59958 0.80037 0.14675 0.0
C1324 C 0.63361 0.83452 0.17857 0.0
C1325 C 0.62476 0.81692 0.19857 0.0
C1326 C 0.60297 0.79115 0.19246 0.0
C1327 C 0.5906 0.78294 0.16683 0.0
C1328 C 0.63766 0.8237 0.27324 0.0
C1329 C 0.66405 0.83396 0.27651 0.0
C1330 C 0.62504 0.81904 0.248 0.0
C1331 C 0.63858 0.82473 0.22551 0.0
C1332 C 0.66517 0.83623 0.22892 0.0
C1333 C 0.67779 0.84072 0.2542 0.0
H1334 H 0.17766 0.79553 0.13069 0.0
H1335 H 0.25571 0.83925 0.16591 0.0
H1336 H 0.16351 0.80203 0.17257 0.0
H1337 H 0.24177 0.8482 0.20707 0.0
H1338 H 0.20777 0.83291 0.28576 0.0
H1339 H 0.22263 0.82811 0.24363 0.0
H1340 H 0.15973 0.83086 0.20286 0.0
H1341 H 0.14438 0.83425 0.24546 0.0
C1342 C 0.1919 0.80668 0.14728 0.0
C1343 C 0.21789 0.81653 0.14475 0.0
C1344 C 0.18376 0.81091 0.17134 0.0
C1345 C 0.20139 0.82564 0.19351 0.0
C1346 C 0.22747 0.83626 0.19074 0.0
C1347 C 0.23557 0.83155 0.16682 0.0
C1348 C 0.19743 0.83296 0.26782 0.0
C1349 C 0.17524 0.83445 0.26882 0.0
C1350 C 0.20592 0.8302 0.24351 0.0
C1351 C 0.19258 0.82925 0.21952 0.0
C1352 C 0.17037 0.83101 0.22072 0.0
C1353 C 0.16162 0.83318 0.24511 0.0
H1354 H 0.21638 0.37511 0.15085 0.0
H1355 H 0.19675 0.43504 0.1765 0.0
H1356 H 0.20555 0.35536 0.193 0.0
H1357 H 0.1863 0.41568 0.21854 0.0
H1358 H 0.13637 0.35254 0.27131 0.0
H1359 H 0.15168 0.37389 0.23111 0.0
H1360 H 0.21656 0.3626 0.24159 0.0
H1361 H 0.20047 0.34014 0.28163 0.0
C1362 C 0.21015 0.3843 0.16567 0.0
C1363 C 0.207 0.40631 0.16028 0.0
C1364 C 0.204 0.37305 0.18979 0.0
C1365 C 0.19471 0.38372 0.20893 0.0
C1366 C 0.19281 0.40658 0.20395 0.0
C1367 C 0.19882 0.41769 0.1799 0.0
C1368 C 0.15385 0.35452 0.26499 0.0
C1369 C 0.16746 0.34505 0.27968 0.0
C1370 C 0.16279 0.36701 0.24211 0.0
C1371 C 0.18553 0.37028 0.23334 0.0
C1372 C 0.19898 0.36038 0.24785 0.0
C1373 C 0.18998 0.34784 0.27087 0.0
H1374 H 0.83809 0.63437 0.88465 0.0
H1375 H 0.76037 0.5961 0.84904 0.0
H1376 H 0.8531 0.65537 0.8443 0.0
H1377 H 0.77525 0.61895 0.80957 0.0
H1378 H 0.81062 0.63538 0.73177 0.0
H1379 H 0.79527 0.61631 0.77269 0.0
H1380 H 0.85697 0.68859 0.81707 0.0
H1381 H 0.8726 0.70715 0.77546 0.0
C1382 C 0.82415 0.63052 0.8683 0.0
C1383 C 0.79799 0.61324 0.87013 0.0
C1384 C 0.83278 0.64299 0.84524 0.0
C1385 C 0.81545 0.63885 0.8235 0.0
C1386 C 0.78924 0.62225 0.82566 0.0
C1387 C 0.78064 0.60945 0.84856 0.0
C1388 C 0.82049 0.64745 0.75019 0.0
C1389 C 0.84232 0.673 0.75048 0.0
C1390 C 0.81177 0.63648 0.77381 0.0
C1391 C 0.82464 0.65097 0.79838 0.0
C1392 C 0.84666 0.67666 0.79858 0.0
C1393 C 0.85556 0.68742 0.77482 0.0
H1394 H 0.40505 0.22298 0.89584 0.0
H1395 H 0.43313 0.17152 0.86607 0.0
H1396 H 0.38306 0.21723 0.85263 0.0
H1397 H 0.4092 0.16378 0.82348 0.0
H1398 H 0.38666 0.17918 0.74205 0.0
H1399 H 0.40867 0.18401 0.78525 0.0
H1400 H 0.34846 0.18791 0.82284 0.0
H1401 H 0.32721 0.18412 0.7793 0.0
C1402 C 0.40652 0.21035 0.88014 0.0
C1403 C 0.42111 0.19789 0.88461 0.0
C1404 C 0.39344 0.20663 0.85535 0.0
C1405 C 0.39416 0.18993 0.83436 0.0
C1406 C 0.40843 0.17712 0.83894 0.0
C1407 C 0.42187 0.18121 0.86362 0.0
C1408 C 0.37793 0.18043 0.75957 0.0
C1409 C 0.35502 0.18063 0.75744 0.0
C1410 C 0.39057 0.18333 0.78443 0.0
C1411 C 0.38039 0.18624 0.80779 0.0
C1412 C 0.35721 0.1862 0.80545 0.0
C1413 C 0.34487 0.1838 0.78053 0.0
H1414 H 0.83573 0.25518 0.86868 0.0
H1415 H 0.8138 0.17475 0.88928 0.0
H1416 H 0.8427 0.2432 0.82429 0.0
H1417 H 0.82085 0.1627 0.84466 0.0
H1418 H 0.8709 0.17072 0.77356 0.0
H1419 H 0.85961 0.17779 0.81768 0.0
H1420 H 0.81591 0.21111 0.78372 0.0
H1421 H 0.82702 0.20393 0.73977 0.0
C1422 C 0.83246 0.23494 0.86369 0.0
C1423 C 0.82433 0.21592 0.88243 0.0
C1424 C 0.83623 0.22801 0.83823 0.0
C1425 C 0.83224 0.20199 0.83102 0.0
C1426 C 0.82415 0.18293 0.84975 0.0
C1427 C 0.81999 0.18976 0.87517 0.0
C1428 C 0.85864 0.17925 0.77555 0.0
C1429 C 0.84999 0.18697 0.75333 0.0
C1430 C 0.85211 0.18319 0.80074 0.0
C1431 C 0.83707 0.19521 0.80412 0.0
C1432 C 0.82778 0.20211 0.78172 0.0
C1433 C 0.83406 0.19788 0.75657 0.0
H1434 H 0.29379 0.11851 0.47212 0.0
H1435 H 0.24489 0.14699 0.50032 0.0
H1436 H 0.31557 0.12846 0.51646 0.0
H1437 H 0.26693 0.15713 0.54499 0.0
H1438 H 0.33097 0.19144 0.61695 0.0
H1439 H 0.30983 0.18624 0.57257 0.0
H1440 H 0.30166 0.10701 0.55784 0.0
H1441 H 0.32237 0.11213 0.60181 0.0
C1442 C 0.2877 0.12693 0.48782 0.0
C1443 C 0.26734 0.13154 0.48282 0.0
C1444 C 0.30019 0.13265 0.51321 0.0
C1445 C 0.29268 0.14317 0.53428 0.0
C1446 C 0.27315 0.14908 0.52911 0.0
C1447 C 0.26056 0.14329 0.50357 0.0
C1448 C 0.32427 0.17282 0.60429 0.0
C1449 C 0.32821 0.15216 0.61277 0.0
C1450 C 0.31229 0.16988 0.57892 0.0
C1451 C 0.30436 0.14635 0.56164 0.0
C1452 C 0.308 0.1256 0.57047 0.0
C1453 C 0.31978 0.12849 0.5957 0.0
H1454 H 0.92608 0.17216 0.5034 0.0
H1455 H 0.84922 0.14079 0.46788 0.0
H1456 H 0.91421 0.18279 0.54547 0.0
H1457 H 0.83707 0.15035 0.51032 0.0
H1458 H 0.82846 0.19153 0.58554 0.0
H1459 H 0.84279 0.18683 0.5425 0.0
H1460 H 0.88884 0.15754 0.57946 0.0
H1461 H 0.87479 0.16251 0.62215 0.0
C1462 C 0.90668 0.16769 0.5045 0.0
C1463 C 0.88859 0.15556 0.48226 0.0
C1464 C 0.89981 0.17352 0.52871 0.0
C1465 C 0.87466 0.16731 0.53131 0.0
C1466 C 0.85666 0.15564 0.50895 0.0
C1467 C 0.86355 0.14982 0.48471 0.0
C1468 C 0.84181 0.18432 0.58438 0.0
C1469 C 0.85057 0.17747 0.60714 0.0
C1470 C 0.84991 0.18148 0.55977 0.0
C1471 C 0.86696 0.17179 0.55752 0.0
C1472 C 0.87602 0.16545 0.58049 0.0
C1473 C 0.86789 0.16822 0.60498 0.0
H1474 H 0.82903 0.70554 0.47181 0.0
H1475 H 0.90535 0.76131 0.50776 0.0
H1476 H 0.818 0.6846 0.51301 0.0
H1477 H 0.89426 0.74002 0.54916 0.0
H1478 H 0.86603 0.67572 0.61141 0.0
H1479 H 0.88034 0.69564 0.56977 0.0
H1480 H 0.81238 0.70101 0.55696 0.0
H1481 H 0.79852 0.68177 0.59847 0.0
C1482 C 0.84347 0.71334 0.48854 0.0
C1483 C 0.86794 0.73538 0.48666 0.0
C1484 C 0.83715 0.7013 0.51212 0.0
C1485 C 0.85516 0.71093 0.5344 0.0
C1486 C 0.88002 0.73214 0.53225 0.0
C1487 C 0.88636 0.7443 0.50858 0.0
C1488 C 0.8545 0.68168 0.59985 0.0
C1489 C 0.83138 0.67757 0.60822 0.0
C1490 C 0.86257 0.69288 0.57601 0.0
C1491 C 0.84739 0.69971 0.56005 0.0
C1492 C 0.82429 0.69555 0.5686 0.0
C1493 C 0.81638 0.6846 0.59239 0.0
loop_
_geom_bond_atom_site_label_1
_geom_bond_atom_site_label_2
_geom_bond_distance
_geom_bond_site_symmetry_2
_ccdc_geom_bond_type
H0 C7 0.929 . S
H1 C10 0.930 . S
H2 C12 0.929 . S
H3 C4 0.969 . S
C4 H3 0.969 . S
C4 O5 1.550 . S
C4 H6 0.973 . S
O5 C4 1.550 . S
O5 C11 1.412 . S
H6 C4 0.973 . S
C7 H0 0.929 . S
C7 C8 1.400 . S
C7 C9 1.364 . S
C8 C7 1.400 . S
C8 C12 1.377 . S
C9 C7 1.364 . S
C9 C10 1.374 . S
C10 H1 0.930 . S
C10 C9 1.374 . S
C10 C11 1.383 . S
C11 O5 1.412 . S
C11 C10 1.383 . S
C11 C12 1.394 . S
C12 H2 0.929 . S
C12 C8 1.377 . S
C12 C11 1.394 . S
H13 C20 0.929 . S
H14 C23 0.930 . S
H15 C25 0.929 . S
H16 C17 0.969 . S
C17 H16 0.969 . S
C17 O18 1.550 . S
C17 H19 0.973 . S
O18 C17 1.550 . S
O18 C24 1.412 . S
H19 C17 0.973 . S
C20 H13 0.929 . S
C20 C21 1.400 . S
C20 C22 1.364 . S
C21 C20 1.400 . S
C21 C25 1.377 . S
C22 C20 1.364 . S
C22 C23 1.374 . S
C23 H14 0.930 . S
C23 C22 1.374 . S
C23 C24 1.383 . S
C24 O18 1.412 . S
C24 C23 1.383 . S
C24 C25 1.394 . S
C25 H15 0.929 . S
C25 C21 1.377 . S
C25 C24 1.394 . S
H26 C33 0.929 . S
H27 C36 0.930 . S
H28 C38 0.929 . S
H29 C30 0.969 . S
C30 H29 0.969 . S
C30 O31 1.550 . S
C30 H32 0.973 . S
O31 C30 1.550 . S
O31 C37 1.412 . S
H32 C30 0.973 . S
C33 H26 0.929 . S
C33 C34 1.400 . S
C33 C35 1.364 . S
C34 C33 1.400 . S
C34 C38 1.377 . S
C35 C33 1.364 . S
C35 C36 1.374 . S
C36 H27 0.930 . S
C36 C35 1.374 . S
C36 C37 1.383 . S
C37 O31 1.412 . S
C37 C36 1.383 . S
C37 C38 1.394 . S
C38 H28 0.929 . S
C38 C34 1.377 . S
C38 C37 1.394 . S
H39 C46 0.929 . S
H40 C49 0.930 . S
H41 C51 0.929 . S
H42 C43 0.969 . S
C43 H42 0.969 . S
C43 O44 1.550 . S
C43 H45 0.973 . S
O44 C43 1.550 . S
O44 C50 1.412 . S
H45 C43 0.973 . S
C46 H39 0.929 . S
C46 C47 1.400 . S
C46 C48 1.364 . S
C47 C46 1.400 . S
C47 C51 1.377 . S
C48 C46 1.364 . S
C48 C49 1.374 . S
C49 H40 0.930 . S
C49 C48 1.374 . S
C49 C50 1.383 . S
C50 O44 1.412 . S
C50 C49 1.383 . S
C50 C51 1.394 . S
C51 H41 0.929 . S
C51 C47 1.377 . S
C51 C50 1.394 . S
H52 C59 0.929 . S
H53 C62 0.930 . S
H54 C64 0.929 . S
H55 C56 0.969 . S
C56 H55 0.969 . S
C56 O57 1.550 . S
C56 H58 0.973 . S
O57 C56 1.550 . S
O57 C63 1.412 . S
H58 C56 0.973 . S
C59 H52 0.929 . S
C59 C60 1.400 . S
C59 C61 1.364 . S
C60 C59 1.400 . S
C60 C64 1.377 . S
C61 C59 1.364 . S
C61 C62 1.374 . S
C62 H53 0.930 . S
C62 C61 1.374 . S
C62 C63 1.383 . S
C63 O57 1.412 . S
C63 C62 1.383 . S
C63 C64 1.394 . S
C64 H54 0.929 . S
C64 C60 1.377 . S
C64 C63 1.394 . S
H65 C72 0.929 . S
H66 C75 0.930 . S
H67 C77 0.929 . S
H68 C69 0.969 . S
C69 H68 0.969 . S
C69 O70 1.550 . S
C69 H71 0.973 . S
O70 C69 1.550 . S
O70 C76 1.412 . S
H71 C69 0.973 . S
C72 H65 0.929 . S
C72 C73 1.400 . S
C72 C74 1.364 . S
C73 C72 1.400 . S
C73 C77 1.377 . S
C74 C72 1.364 . S
C74 C75 1.374 . S
C75 H66 0.930 . S
C75 C74 1.374 . S
C75 C76 1.383 . S
C76 O70 1.412 . S
C76 C75 1.383 . S
C76 C77 1.394 . S
C77 H67 0.929 . S
C77 C73 1.377 . S
C77 C76 1.394 . S
H78 C85 0.929 . S
H79 C88 0.930 . S
H80 C90 0.929 . S
H81 C82 0.969 . S
C82 H81 0.969 . S
C82 O83 1.550 . S
C82 H84 0.973 . S
O83 C82 1.550 . S
O83 C89 1.412 . S
H84 C82 0.973 . S
C85 H78 0.929 . S
C85 C86 1.400 . S
C85 C87 1.364 . S
C86 C85 1.400 . S
C86 C90 1.377 . S
C87 C85 1.364 . S
C87 C88 1.374 . S
C88 H79 0.930 . S
C88 C87 1.374 . S
C88 C89 1.383 . S
C89 O83 1.412 . S
C89 C88 1.383 . S
C89 C90 1.394 . S
C90 H80 0.929 . S
C90 C86 1.377 . S
C90 C89 1.394 . S
H91 C98 0.929 . S
H92 C101 0.930 . S
H93 C103 0.929 . S
H94 C95 0.969 . S
C95 H94 0.969 . S
C95 O96 1.550 . S
C95 H97 0.973 . S
O96 C95 1.550 . S
O96 C102 1.412 . S
H97 C95 0.973 . S
C98 H91 0.929 . S
C98 C99 1.400 . S
C98 C100 1.364 . S
C99 C98 1.400 . S
C99 C103 1.377 . S
C100 C98 1.364 . S
C100 C101 1.374 . S
C101 H92 0.930 . S
C101 C100 1.374 . S
C101 C102 1.383 . S
C102 O96 1.412 . S
C102 C101 1.383 . S
C102 C103 1.394 . S
C103 H93 0.929 . S
C103 C99 1.377 . S
C103 C102 1.394 . S
H104 C111 0.929 . S
H105 C114 0.930 . S
H106 C116 0.929 . S
H107 C108 0.969 . S
C108 H107 0.969 . S
C108 O109 1.550 . S
C108 H110 0.973 . S
O109 C108 1.550 . S
O109 C115 1.412 . S
H110 C108 0.973 . S
C111 H104 0.929 . S
C111 C112 1.400 . S
C111 C113 1.364 . S
C112 C111 1.400 . S
C112 C116 1.377 . S
C113 C111 1.364 . S
C113 C114 1.374 . S
C114 H105 0.930 . S
C114 C113 1.374 . S
C114 C115 1.383 . S
C115 O109 1.412 . S
C115 C114 1.383 . S
C115 C116 1.394 . S
C116 H106 0.929 . S
C116 C112 1.377 . S
C116 C115 1.394 . S
H117 C124 0.929 . S
H118 C127 0.930 . S
H119 C129 0.929 . S
H120 C121 0.969 . S
C121 H120 0.969 . S
C121 O122 1.550 . S
C121 H123 0.973 . S
O122 C121 1.550 . S
O122 C128 1.412 . S
H123 C121 0.973 . S
C124 H117 0.929 . S
C124 C125 1.400 . S
C124 C126 1.364 . S
C125 C124 1.400 . S
C125 C129 1.377 . S
C126 C124 1.364 . S
C126 C127 1.374 . S
C127 H118 0.930 . S
C127 C126 1.374 . S
C127 C128 1.383 . S
C128 O122 1.412 . S
C128 C127 1.383 . S
C128 C129 1.394 . S
C129 H119 0.929 . S
C129 C125 1.377 . S
C129 C128 1.394 . S
H130 C137 0.929 . S
H131 C140 0.930 . S
H132 C142 0.929 . S
H133 C134 0.969 . S
C134 H133 0.969 . S
C134 O135 1.550 . S
C134 H136 0.973 . S
O135 C134 1.550 . S
O135 C141 1.412 . S
H136 C134 0.973 . S
C137 H130 0.929 . S
C137 C138 1.400 . S
C137 C139 1.364 . S
C138 C137 1.400 . S
C138 C142 1.377 . S
C139 C137 1.364 . S
C139 C140 1.374 . S
C140 H131 0.930 . S
C140 C139 1.374 . S
C140 C141 1.383 . S
C141 O135 1.412 . S
C141 C140 1.383 . S
C141 C142 1.394 . S
C142 H132 0.929 . S
C142 C138 1.377 . S
C142 C141 1.394 . S
H143 C150 0.929 . S
H144 C153 0.930 . S
H145 C155 0.929 . S
H146 C147 0.969 . S
C147 H146 0.969 . S
C147 O148 1.550 . S
C147 H149 0.973 . S
O148 C147 1.550 . S
O148 C154 1.412 . S
H149 C147 0.973 . S
C150 H143 0.929 . S
C150 C151 1.400 . S
C150 C152 1.364 . S
C151 C150 1.400 . S
C151 C155 1.377 . S
C152 C150 1.364 . S
C152 C153 1.374 . S
C153 H144 0.930 . S
C153 C152 1.374 . S
C153 C154 1.383 . S
C154 O148 1.412 . S
C154 C153 1.383 . S
C154 C155 1.394 . S
C155 H145 0.929 . S
C155 C151 1.377 . S
C155 C154 1.394 . S
H156 C163 0.929 . S
H157 C166 0.930 . S
H158 C168 0.929 . S
H159 C160 0.969 . S
C160 H159 0.969 . S
C160 O161 1.550 . S
C160 H162 0.973 . S
O161 C160 1.550 . S
O161 C167 1.412 . S
H162 C160 0.973 . S
C163 H156 0.929 . S
C163 C164 1.400 . S
C163 C165 1.364 . S
C164 C163 1.400 . S
C164 C168 1.377 . S
C165 C163 1.364 . S
C165 C166 1.374 . S
C166 H157 0.930 . S
C166 C165 1.374 . S
C166 C167 1.383 . S
C167 O161 1.412 . S
C167 C166 1.383 . S
C167 C168 1.394 . S
C168 H158 0.929 . S
C168 C164 1.377 . S
C168 C167 1.394 . S
H169 C176 0.929 . S
H170 C179 0.930 . S
H171 C181 0.929 . S
H172 C173 0.969 . S
C173 H172 0.969 . S
C173 O174 1.550 . S
C173 H175 0.973 . S
O174 C173 1.550 . S
O174 C180 1.412 . S
H175 C173 0.973 . S
C176 H169 0.929 . S
C176 C177 1.400 . S
C176 C178 1.364 . S
C177 C176 1.400 . S
C177 C181 1.377 . S
C178 C176 1.364 . S
C178 C179 1.374 . S
C179 H170 0.930 . S
C179 C178 1.374 . S
C179 C180 1.383 . S
C180 O174 1.412 . S
C180 C179 1.383 . S
C180 C181 1.394 . S
C181 H171 0.929 . S
C181 C177 1.377 . S
C181 C180 1.394 . S
H182 C189 0.929 . S
H183 C192 0.930 . S
H184 C194 0.929 . S
H185 C186 0.969 . S
C186 H185 0.969 . S
C186 O187 1.550 . S
C186 H188 0.973 . S
O187 C186 1.550 . S
O187 C193 1.412 . S
H188 C186 0.973 . S
C189 H182 0.929 . S
C189 C190 1.400 . S
C189 C191 1.364 . S
C190 C189 1.400 . S
C190 C194 1.377 . S
C191 C189 1.364 . S
C191 C192 1.374 . S
C192 H183 0.930 . S
C192 C191 1.374 . S
C192 C193 1.383 . S
C193 O187 1.412 . S
C193 C192 1.383 . S
C193 C194 1.394 . S
C194 H184 0.929 . S
C194 C190 1.377 . S
C194 C193 1.394 . S
H195 C202 0.929 . S
H196 C205 0.930 . S
H197 C207 0.929 . S
H198 C199 0.969 . S
C199 H198 0.969 . S
C199 O200 1.550 . S
C199 H201 0.973 . S
O200 C199 1.550 . S
O200 C206 1.412 . S
H201 C199 0.973 . S
C202 H195 0.929 . S
C202 C203 1.400 . S
C202 C204 1.364 . S
C203 C202 1.400 . S
C203 C207 1.377 . S
C204 C202 1.364 . S
C204 C205 1.374 . S
C205 H196 0.930 . S
C205 C204 1.374 . S
C205 C206 1.383 . S
C206 O200 1.412 . S
C206 C205 1.383 . S
C206 C207 1.394 . S
C207 H197 0.929 . S
C207 C203 1.377 . S
C207 C206 1.394 . S
H208 C215 0.929 . S
H209 C218 0.930 . S
H210 C220 0.929 . S
H211 C212 0.969 . S
C212 H211 0.969 . S
C212 O213 1.550 . S
C212 H214 0.973 . S
O213 C212 1.550 . S
O213 C219 1.412 . S
H214 C212 0.973 . S
C215 H208 0.929 . S
C215 C216 1.400 . S
C215 C217 1.364 . S
C216 C215 1.400 . S
C216 C220 1.377 . S
C217 C215 1.364 . S
C217 C218 1.374 . S
C218 H209 0.930 . S
C218 C217 1.374 . S
C218 C219 1.383 . S
C219 O213 1.412 . S
C219 C218 1.383 . S
C219 C220 1.394 . S
C220 H210 0.929 . S
C220 C216 1.377 . S
C220 C219 1.394 . S
H221 C228 0.929 . S
H222 C231 0.930 . S
H223 C233 0.929 . S
H224 C225 0.969 . S
C225 H224 0.969 . S
C225 O226 1.550 . S
C225 H227 0.973 . S
O226 C225 1.550 . S
O226 C232 1.412 . S
H227 C225 0.973 . S
C228 H221 0.929 . S
C228 C229 1.400 . S
C228 C230 1.364 . S
C229 C228 1.400 . S
C229 C233 1.377 . S
C230 C228 1.364 . S
C230 C231 1.374 . S
C231 H222 0.930 . S
C231 C230 1.374 . S
C231 C232 1.383 . S
C232 O226 1.412 . S
C232 C231 1.383 . S
C232 C233 1.394 . S
C233 H223 0.929 . S
C233 C229 1.377 . S
C233 C232 1.394 . S
Tb234 O237 2.453 . S
Tb234 O238 2.596 1_545 S
Tb234 O239 2.374 1_545 S
Tb234 O247 2.343 1_554 S
Tb234 O249 2.353 . S
Tb234 O251 2.427 . S
Tb234 O252 2.538 . S
C235 O239 1.251 . S
C235 O241 1.263 1_554 S
Tb236 O238 2.343 1_556 S
Tb236 O241 2.353 . S
Tb236 O244 2.427 1_556 S
Tb236 O245 2.513 1_556 S
Tb236 O246 2.453 . S
Tb236 O247 2.596 1_565 S
Tb236 O248 2.374 1_566 S
O237 Tb234 2.453 . S
O237 C253 1.245 1_545 S
O238 Tb234 2.596 1_565 S
O238 Tb236 2.343 1_554 S
O238 C253 1.259 . S
O239 Tb234 2.374 1_565 S
O239 C235 1.251 . S
C240 O244 1.275 . S
C240 O245 1.246 . S
O241 C235 1.263 1_556 S
O241 Tb236 2.353 . S
C242 O246 1.245 1_545 S
C242 O247 1.259 . S
C243 O248 1.250 . S
C243 O249 1.263 . S
O244 Tb236 2.427 1_554 S
O244 C240 1.275 . S
O245 Tb236 2.513 1_554 S
O245 C240 1.246 . S
O246 Tb236 2.453 . S
O246 C242 1.245 1_565 S
O247 Tb234 2.343 1_556 S
O247 Tb236 2.596 1_545 S
O247 C242 1.259 . S
O248 Tb236 2.374 1_544 S
O248 C243 1.250 . S
O249 Tb234 2.353 . S
O249 C243 1.263 . S
C250 O251 1.275 1_556 S
C250 O252 1.238 1_556 S
O251 Tb234 2.427 . S
O251 C250 1.275 1_554 S
O252 Tb234 2.538 . S
O252 C250 1.238 1_554 S
C253 O237 1.245 1_565 S
C253 O238 1.259 . S
Tb254 O257 2.453 . S
Tb254 O258 2.596 1_655 S
Tb254 O259 2.374 1_655 S
Tb254 O267 2.343 1_554 S
Tb254 O269 2.353 . S
Tb254 O271 2.427 1_554 S
Tb254 O272 2.513 1_554 S
C255 O259 1.251 . S
C255 O261 1.263 . S
Tb256 O258 2.343 1_556 S
Tb256 O261 2.353 1_556 S
Tb256 O264 2.427 1_556 S
Tb256 O265 2.513 1_556 S
Tb256 O266 2.453 . S
Tb256 O267 2.596 1_455 S
Tb256 O268 2.374 1_455 S
O257 Tb254 2.453 . S
O257 C273 1.245 1_655 S
O258 Tb254 2.596 1_455 S
O258 Tb256 2.343 1_554 S
O258 C273 1.259 . S
O259 Tb254 2.374 1_455 S
O259 C255 1.251 . S
C260 O264 1.275 . S
C260 O265 1.246 . S
O261 C255 1.263 . S
O261 Tb256 2.353 1_554 S
C262 O266 1.245 1_655 S
C262 O267 1.259 . S
C263 O268 1.250 1_554 S
C263 O269 1.263 . S
O264 Tb256 2.427 1_554 S
O264 C260 1.275 . S
O265 Tb256 2.513 1_554 S
O265 C260 1.246 . S
O266 Tb256 2.453 . S
O266 C262 1.245 1_455 S
O267 Tb254 2.343 1_556 S
O267 Tb256 2.596 1_655 S
O267 C262 1.259 . S
O268 Tb256 2.374 1_655 S
O268 C263 1.250 1_556 S
O269 Tb254 2.353 . S
O269 C263 1.263 . S
C270 O271 1.275 . S
C270 O272 1.246 . S
O271 Tb254 2.427 1_556 S
O271 C270 1.275 . S
O272 Tb254 2.513 1_556 S
O272 C270 1.246 . S
C273 O257 1.245 1_455 S
C273 O258 1.259 . S
Tb274 O277 2.453 . S
Tb274 O278 2.596 . S
Tb274 O279 2.374 1_556 S
Tb274 O287 2.343 1_556 S
Tb274 O289 2.353 1_556 S
Tb274 O291 2.427 1_556 S
Tb274 O292 2.513 1_556 S
C275 O279 1.251 . S
C275 O281 1.263 . S
Tb276 O278 2.343 1_554 S
Tb276 O281 2.353 . S
Tb276 O284 2.427 . S
Tb276 O285 2.506 1_554 S
Tb276 O286 2.453 . S
Tb276 O287 2.596 . S
Tb276 O288 2.374 . S
O277 Tb274 2.453 . S
O277 C293 1.245 . S
O278 Tb274 2.596 . S
O278 Tb276 2.343 1_556 S
O278 C293 1.259 . S
O279 Tb274 2.374 1_554 S
O279 C275 1.251 . S
C280 O284 1.275 1_556 S
C280 O285 1.248 . S
O281 C275 1.263 . S
O281 Tb276 2.353 . S
C282 O286 1.245 . S
C282 O287 1.259 . S
C283 O288 1.250 . S
C283 O289 1.263 . S
O284 Tb276 2.427 . S
O284 C280 1.275 1_554 S
O285 Tb276 2.506 1_556 S
O285 C280 1.248 . S
O286 Tb276 2.453 . S
O286 C282 1.245 . S
O287 Tb274 2.343 1_554 S
O287 Tb276 2.596 . S
O287 C282 1.259 . S
O288 Tb276 2.374 . S
O288 C283 1.250 . S
O289 Tb274 2.353 1_554 S
O289 C283 1.263 . S
C290 O291 1.275 . S
C290 O292 1.246 . S
O291 Tb274 2.427 1_554 S
O291 C290 1.275 . S
O292 Tb274 2.513 1_554 S
O292 C290 1.246 . S
C293 O277 1.245 . S
C293 O278 1.259 . S
Tb294 O297 2.453 . S
Tb294 O298 2.596 . S
Tb294 O299 2.374 . S
Tb294 O307 2.343 . S
Tb294 O309 2.353 . S
Tb294 O311 2.427 . S
Tb294 O312 2.513 . S
C295 O299 1.251 . S
C295 O301 1.263 . S
Tb296 O298 2.343 . S
Tb296 O301 2.353 . S
Tb296 O304 2.427 . S
Tb296 O305 2.513 . S
Tb296 O306 2.453 . S
Tb296 O307 2.596 . S
Tb296 O308 2.374 . S
O297 Tb294 2.453 . S
O297 C313 1.245 . S
O298 Tb294 2.596 . S
O298 Tb296 2.343 . S
O298 C313 1.259 . S
O299 Tb294 2.374 . S
O299 C295 1.251 . S
C300 O304 1.275 . S
C300 O305 1.246 . S
O301 C295 1.263 . S
O301 Tb296 2.353 . S
C302 O306 1.245 . S
C302 O307 1.259 . S
C303 O308 1.250 . S
C303 O309 1.263 . S
O304 Tb296 2.427 . S
O304 C300 1.275 . S
O305 Tb296 2.513 . S
O305 C300 1.246 . S
O306 Tb296 2.453 . S
O306 C302 1.245 . S
O307 Tb294 2.343 . S
O307 Tb296 2.596 . S
O307 C302 1.259 . S
O308 Tb296 2.374 . S
O308 C303 1.250 . S
O309 Tb294 2.353 . S
O309 C303 1.263 . S
C310 O311 1.275 . S
C310 O312 1.246 . S
O311 Tb294 2.427 . S
O311 C310 1.275 . S
O312 Tb294 2.513 . S
O312 C310 1.246 . S
C313 O297 1.245 . S
C313 O298 1.259 . S
Tb314 O317 2.453 . S
Tb314 O318 2.596 . S
Tb314 O319 2.374 . S
Tb314 O327 2.343 . S
Tb314 O329 2.353 . S
Tb314 O331 2.427 . S
Tb314 O332 2.513 . S
C315 O319 1.251 . S
C315 O321 1.263 . S
Tb316 O318 2.343 . S
Tb316 O321 2.353 . S
Tb316 O324 2.427 . S
Tb316 O325 2.513 . S
Tb316 O326 2.453 . S
Tb316 O327 2.596 . S
Tb316 O328 2.374 . S
O317 Tb314 2.453 . S
O317 C333 1.245 . S
O318 Tb314 2.596 . S
O318 Tb316 2.343 . S
O318 C333 1.259 . S
O319 Tb314 2.374 . S
O319 C315 1.251 . S
C320 O324 1.275 . S
C320 O325 1.246 . S
O321 C315 1.263 . S
O321 Tb316 2.353 . S
C322 O326 1.245 . S
C322 O327 1.259 . S
C323 O328 1.250 . S
C323 O329 1.263 . S
O324 Tb316 2.427 . S
O324 C320 1.275 . S
O325 Tb316 2.513 . S
O325 C320 1.246 . S
O326 Tb316 2.453 . S
O326 C322 1.245 . S
O327 Tb314 2.343 . S
O327 Tb316 2.596 . S
O327 C322 1.259 . S
O328 Tb316 2.374 . S
O328 C323 1.250 . S
O329 Tb314 2.353 . S
O329 C323 1.263 . S
C330 O331 1.275 . S
C330 O332 1.246 . S
O331 Tb314 2.427 . S
O331 C330 1.275 . S
O332 Tb314 2.513 . S
O332 C330 1.246 . S
C333 O317 1.245 . S
C333 O318 1.259 . S
Tb334 O337 2.453 . S
Tb334 O338 2.596 . S
Tb334 O339 2.374 . S
Tb334 O347 2.343 . S
Tb334 O349 2.353 . S
Tb334 O351 2.427 . S
Tb334 O352 2.513 . S
C335 O339 1.251 . S
C335 O341 1.263 . S
Tb336 O338 2.343 . S
Tb336 O341 2.353 . S
Tb336 O344 2.427 . S
Tb336 O345 2.513 . S
Tb336 O346 2.453 . S
Tb336 O347 2.596 . S
Tb336 O348 2.374 . S
O337 Tb334 2.453 . S
O337 C353 1.245 . S
O338 Tb334 2.596 . S
O338 Tb336 2.343 . S
O338 C353 1.259 . S
O339 Tb334 2.374 . S
O339 C335 1.251 . S
C340 O344 1.275 . S
C340 O345 1.246 . S
O341 C335 1.263 . S
O341 Tb336 2.353 . S
C342 O346 1.245 . S
C342 O347 1.259 . S
C343 O348 1.250 . S
C343 O349 1.263 . S
O344 Tb336 2.427 . S
O344 C340 1.275 . S
O345 Tb336 2.513 . S
O345 C340 1.246 . S
O346 Tb336 2.453 . S
O346 C342 1.245 . S
O347 Tb334 2.343 . S
O347 Tb336 2.596 . S
O347 C342 1.259 . S
O348 Tb336 2.374 . S
O348 C343 1.250 . S
O349 Tb334 2.353 . S
O349 C343 1.263 . S
C350 O351 1.275 . S
C350 O352 1.246 . S
O351 Tb334 2.427 . S
O351 C350 1.275 . S
O352 Tb334 2.513 . S
O352 C350 1.246 . S
C353 O337 1.245 . S
C353 O338 1.259 . S
Tb354 O357 2.453 . S
Tb354 O358 2.596 . S
Tb354 O359 2.374 . S
Tb354 O367 2.343 . S
Tb354 O369 2.353 . S
Tb354 O371 2.427 . S
Tb354 O372 2.513 . S
C355 O359 1.251 . S
C355 O361 1.263 . S
Tb356 O358 2.343 . S
Tb356 O361 2.353 . S
Tb356 O364 2.427 . S
Tb356 O365 2.513 . S
Tb356 O366 2.453 . S
Tb356 O367 2.596 . S
Tb356 O368 2.374 . S
O357 Tb354 2.453 . S
O357 C373 1.245 . S
O358 Tb354 2.596 . S
O358 Tb356 2.343 . S
O358 C373 1.259 . S
O359 Tb354 2.374 . S
O359 C355 1.251 . S
C360 O364 1.275 . S
C360 O365 1.246 . S
O361 C355 1.263 . S
O361 Tb356 2.353 . S
C362 O366 1.245 . S
C362 O367 1.259 . S
C363 O368 1.250 . S
C363 O369 1.263 . S
O364 Tb356 2.427 . S
O364 C360 1.275 . S
O365 Tb356 2.513 . S
O365 C360 1.246 . S
O366 Tb356 2.453 . S
O366 C362 1.245 . S
O367 Tb354 2.343 . S
O367 Tb356 2.596 . S
O367 C362 1.259 . S
O368 Tb356 2.374 . S
O368 C363 1.250 . S
O369 Tb354 2.353 . S
O369 C363 1.263 . S
C370 O371 1.275 . S
C370 O372 1.246 . S
O371 Tb354 2.427 . S
O371 C370 1.275 . S
O372 Tb354 2.513 . S
O372 C370 1.246 . S
C373 O357 1.245 . S
C373 O358 1.259 . S
Tb374 O377 2.453 . S
Tb374 O378 2.596 . S
Tb374 O379 2.374 . S
Tb374 O387 2.343 . S
Tb374 O389 2.353 . S
Tb374 O391 2.427 . S
Tb374 O392 2.513 . S
C375 O379 1.251 . S
C375 O381 1.263 . S
Tb376 O378 2.343 . S
Tb376 O381 2.353 . S
Tb376 O384 2.427 . S
Tb376 O385 2.513 . S
Tb376 O386 2.453 . S
Tb376 O387 2.596 . S
Tb376 O388 2.374 . S
O377 Tb374 2.453 . S
O377 C393 1.245 . S
O378 Tb374 2.596 . S
O378 Tb376 2.343 . S
O378 C393 1.259 . S
O379 Tb374 2.374 . S
O379 C375 1.251 . S
C380 O384 1.275 . S
C380 O385 1.246 . S
O381 C375 1.263 . S
O381 Tb376 2.353 . S
C382 O386 1.245 . S
C382 O387 1.259 . S
C383 O388 1.250 . S
C383 O389 1.263 . S
O384 Tb376 2.427 . S
O384 C380 1.275 . S
O385 Tb376 2.513 . S
O385 C380 1.246 . S
O386 Tb376 2.453 . S
O386 C382 1.245 . S
O387 Tb374 2.343 . S
O387 Tb376 2.596 . S
O387 C382 1.259 . S
O388 Tb376 2.374 . S
O388 C383 1.250 . S
O389 Tb374 2.353 . S
O389 C383 1.263 . S
C390 O391 1.275 . S
C390 O392 1.246 . S
O391 Tb374 2.427 . S
O391 C390 1.275 . S
O392 Tb374 2.513 . S
O392 C390 1.246 . S
C393 O377 1.245 . S
C393 O378 1.259 . S
Tb394 O397 2.453 . S
Tb394 O398 2.596 . S
Tb394 O399 2.374 . S
Tb394 O407 2.343 . S
Tb394 O409 2.353 . S
Tb394 O411 2.427 . S
Tb394 O412 2.513 . S
C395 O399 1.251 . S
C395 O401 1.263 . S
Tb396 O398 2.343 . S
Tb396 O401 2.353 . S
Tb396 O404 2.427 . S
Tb396 O405 2.513 . S
Tb396 O406 2.453 . S
Tb396 O407 2.596 . S
Tb396 O408 2.374 . S
O397 Tb394 2.453 . S
O397 C413 1.245 . S
O398 Tb394 2.596 . S
O398 Tb396 2.343 . S
O398 C413 1.259 . S
O399 Tb394 2.374 . S
O399 C395 1.251 . S
C400 O404 1.275 . S
C400 O405 1.246 . S
O401 C395 1.263 . S
O401 Tb396 2.353 . S
C402 O406 1.245 . S
C402 O407 1.259 . S
C403 O408 1.250 . S
C403 O409 1.263 . S
O404 Tb396 2.427 . S
O404 C400 1.275 . S
O405 Tb396 2.513 . S
O405 C400 1.246 . S
O406 Tb396 2.453 . S
O406 C402 1.245 . S
O407 Tb394 2.343 . S
O407 Tb396 2.596 . S
O407 C402 1.259 . S
O408 Tb396 2.374 . S
O408 C403 1.250 . S
O409 Tb394 2.353 . S
O409 C403 1.263 . S
C410 O411 1.275 . S
C410 O412 1.246 . S
O411 Tb394 2.427 . S
O411 C410 1.275 . S
O412 Tb394 2.513 . S
O412 C410 1.246 . S
C413 O397 1.245 . S
C413 O398 1.259 . S
H414 C422 0.950 . S
H415 C427 0.950 . S
H416 C424 0.950 . S
H417 C426 0.950 . S
H418 C428 0.950 . S
H419 C430 0.950 . S
H420 C432 0.950 . S
H421 C433 0.950 . S
C422 H414 0.950 . S
C422 C423 1.386 . S
C422 C424 1.391 . S
C423 C422 1.386 . S
C423 C427 1.393 . S
C424 H416 0.950 . S
C424 C422 1.391 . S
C424 C425 1.400 . S
C425 C424 1.400 . S
C425 C426 1.398 . S
C425 C431 1.491 . S
C426 H417 0.950 . S
C426 C425 1.398 . S
C426 C427 1.391 . S
C427 H415 0.950 . S
C427 C423 1.393 . S
C427 C426 1.391 . S
C428 H418 0.950 . S
C428 C429 1.386 . S
C428 C430 1.391 . S
C429 C428 1.386 . S
C429 C433 1.393 . S
C430 H419 0.950 . S
C430 C428 1.391 . S
C430 C431 1.400 . S
C431 C425 1.491 . S
C431 C430 1.400 . S
C431 C432 1.398 . S
C432 H420 0.950 . S
C432 C431 1.398 . S
C432 C433 1.391 . S
C433 H421 0.950 . S
C433 C429 1.393 . S
C433 C432 1.391 . S
H434 C442 0.950 . S
H435 C447 0.950 . S
H436 C444 0.950 . S
H437 C446 0.950 . S
H438 C448 0.950 . S
H439 C450 0.950 . S
H440 C452 0.950 . S
H441 C453 0.950 . S
C442 H434 0.950 . S
C442 C443 1.386 . S
C442 C444 1.391 . S
C443 C442 1.386 . S
C443 C447 1.393 . S
C444 H436 0.950 . S
C444 C442 1.391 . S
C444 C445 1.400 . S
C445 C444 1.400 . S
C445 C446 1.398 . S
C445 C451 1.491 . S
C446 H437 0.950 . S
C446 C445 1.398 . S
C446 C447 1.391 . S
C447 H435 0.950 . S
C447 C443 1.393 . S
C447 C446 1.391 . S
C448 H438 0.950 . S
C448 C449 1.386 . S
C448 C450 1.391 . S
C449 C448 1.386 . S
C449 C453 1.393 . S
C450 H439 0.950 . S
C450 C448 1.391 . S
C450 C451 1.400 . S
C451 C445 1.491 . S
C451 C450 1.400 . S
C451 C452 1.398 . S
C452 H440 0.950 . S
C452 C451 1.398 . S
C452 C453 1.391 . S
C453 H441 0.950 . S
C453 C449 1.393 . S
C453 C452 1.391 . S
H454 C462 0.950 . S
H455 C467 0.950 . S
H456 C464 0.950 . S
H457 C466 0.950 . S
H458 C468 0.950 . S
H459 C470 0.950 . S
H460 C472 0.950 . S
H461 C473 0.950 . S
C462 H454 0.950 . S
C462 C463 1.386 . S
C462 C464 1.391 . S
C463 C462 1.386 . S
C463 C467 1.393 . S
C464 H456 0.950 . S
C464 C462 1.391 . S
C464 C465 1.400 . S
C465 C464 1.400 . S
C465 C466 1.398 . S
C465 C471 1.491 . S
C466 H457 0.950 . S
C466 C465 1.398 . S
C466 C467 1.391 . S
C467 H455 0.950 . S
C467 C463 1.393 . S
C467 C466 1.391 . S
C468 H458 0.950 . S
C468 C469 1.386 . S
C468 C470 1.391 . S
C469 C468 1.386 . S
C469 C473 1.393 . S
C470 H459 0.950 . S
C470 C468 1.391 . S
C470 C471 1.400 . S
C471 C465 1.491 . S
C471 C470 1.400 . S
C471 C472 1.398 . S
C472 H460 0.950 . S
C472 C471 1.398 . S
C472 C473 1.391 . S
C473 H461 0.950 . S
C473 C469 1.393 . S
C473 C472 1.391 . S
H474 C482 0.950 . S
H475 C487 0.950 . S
H476 C484 0.950 . S
H477 C486 0.950 . S
H478 C488 0.941 1_554 S
H479 C490 0.950 . S
H480 C492 0.950 . S
H481 C493 0.950 . S
C482 H474 0.950 . S
C482 C483 1.386 . S
C482 C484 1.391 . S
C483 C482 1.386 . S
C483 C487 1.393 . S
C484 H476 0.950 . S
C484 C482 1.391 . S
C484 C485 1.400 . S
C485 C484 1.400 . S
C485 C486 1.398 . S
C485 C491 1.491 . S
C486 H477 0.950 . S
C486 C485 1.398 . S
C486 C487 1.391 . S
C487 H475 0.950 . S
C487 C483 1.393 . S
C487 C486 1.391 . S
C488 H478 0.941 1_556 S
C488 C489 1.391 . S
C488 C490 1.394 . S
C489 C488 1.391 . S
C489 C493 1.393 . S
C490 H479 0.950 . S
C490 C488 1.394 . S
C490 C491 1.400 . S
C491 C485 1.491 . S
C491 C490 1.400 . S
C491 C492 1.398 . S
C492 H480 0.950 . S
C492 C491 1.398 . S
C492 C493 1.391 . S
C493 H481 0.950 . S
C493 C489 1.393 . S
C493 C492 1.391 . S
H494 C502 0.950 . S
H495 C507 0.950 . S
H496 C504 0.950 . S
H497 C506 0.950 . S
H498 C508 0.950 . S
H499 C510 0.950 . S
H500 C512 0.950 1_554 S
H501 C513 0.950 1_554 S
C502 H494 0.950 . S
C502 C503 1.386 . S
C502 C504 1.391 . S
C503 C502 1.386 . S
C503 C507 1.393 . S
C504 H496 0.950 . S
C504 C502 1.391 . S
C504 C505 1.400 . S
C505 C504 1.400 . S
C505 C506 1.398 . S
C505 C511 1.491 . S
C506 H497 0.950 . S
C506 C505 1.398 . S
C506 C507 1.391 . S
C507 H495 0.950 . S
C507 C503 1.393 . S
C507 C506 1.391 . S
C508 H498 0.950 . S
C508 C509 1.386 . S
C508 C510 1.391 . S
C509 C508 1.386 . S
C509 C513 1.393 . S
C510 H499 0.950 . S
C510 C508 1.391 . S
C510 C511 1.400 . S
C511 C505 1.491 . S
C511 C510 1.400 . S
C511 C512 1.398 . S
C512 H500 0.950 1_556 S
C512 C511 1.398 . S
C512 C513 1.391 . S
C513 H501 0.950 1_556 S
C513 C509 1.393 . S
C513 C512 1.391 . S
H514 C522 0.950 . S
H515 C527 0.950 . S
H516 C524 0.950 1_554 S
H517 C526 0.950 . S
H518 C528 0.950 . S
H519 C530 0.950 . S
H520 C532 0.950 . S
H521 C533 0.950 . S
C522 H514 0.950 . S
C522 C523 1.386 . S
C522 C524 1.391 . S
C523 C522 1.386 . S
C523 C527 1.393 . S
C524 H516 0.950 1_556 S
C524 C522 1.391 . S
C524 C525 1.400 . S
C525 C524 1.400 . S
C525 C526 1.398 . S
C525 C531 1.491 . S
C526 H517 0.950 . S
C526 C525 1.398 . S
C526 C527 1.391 . S
C527 H515 0.950 . S
C527 C523 1.393 . S
C527 C526 1.391 . S
C528 H518 0.950 . S
C528 C529 1.387 1_556 S
C528 C530 1.391 . S
C529 C528 1.387 1_554 S
C529 C533 1.392 . S
C530 H519 0.950 . S
C530 C528 1.391 . S
C530 C531 1.400 . S
C531 C525 1.491 . S
C531 C530 1.400 . S
C531 C532 1.398 1_556 S
C532 H520 0.950 . S
C532 C531 1.398 1_554 S
C532 C533 1.391 . S
C533 H521 0.950 . S
C533 C529 1.392 . S
C533 C532 1.391 . S
H534 C542 0.950 . S
H535 C547 0.950 . S
H536 C544 0.950 . S
H537 C546 0.950 . S
H538 C548 0.950 . S
H539 C550 0.950 1_554 S
H540 C552 0.950 . S
H541 C553 0.950 . S
C542 H534 0.950 . S
C542 C543 1.386 . S
C542 C544 1.391 . S
C543 C542 1.386 . S
C543 C547 1.393 . S
C544 H536 0.950 . S
C544 C542 1.391 . S
C544 C545 1.400 . S
C545 C544 1.400 . S
C545 C546 1.398 . S
C545 C551 1.491 . S
C546 H537 0.950 . S
C546 C545 1.398 . S
C546 C547 1.391 . S
C547 H535 0.950 . S
C547 C543 1.393 . S
C547 C546 1.391 . S
C548 H538 0.950 . S
C548 C549 1.386 1_554 S
C548 C550 1.391 1_554 S
C549 C548 1.386 1_556 S
C549 C553 1.393 . S
C550 H539 0.950 1_556 S
C550 C548 1.391 1_556 S
C550 C551 1.400 . S
C551 C545 1.491 . S
C551 C550 1.400 . S
C551 C552 1.398 . S
C552 H540 0.950 . S
C552 C551 1.398 . S
C552 C553 1.391 . S
C553 H541 0.950 . S
C553 C549 1.393 . S
C553 C552 1.391 . S
H554 C562 0.950 . S
H555 C567 0.950 . S
H556 C564 0.950 . S
H557 C566 0.950 . S
H558 C568 0.950 . S
H559 C570 0.950 . S
H560 C572 0.950 . S
H561 C573 0.950 . S
C562 H554 0.950 . S
C562 C563 1.386 . S
C562 C564 1.391 . S
C563 C562 1.386 . S
C563 C567 1.393 . S
C564 H556 0.950 . S
C564 C562 1.391 . S
C564 C565 1.400 . S
C565 C564 1.400 . S
C565 C566 1.398 . S
C565 C571 1.491 . S
C566 H557 0.950 . S
C566 C565 1.398 . S
C566 C567 1.391 . S
C567 H555 0.950 . S
C567 C563 1.393 . S
C567 C566 1.391 . S
C568 H558 0.950 . S
C568 C569 1.386 . S
C568 C570 1.391 . S
C569 C568 1.386 . S
C569 C573 1.393 . S
C570 H559 0.950 . S
C570 C568 1.391 . S
C570 C571 1.400 . S
C571 C565 1.491 . S
C571 C570 1.400 . S
C571 C572 1.398 . S
C572 H560 0.950 . S
C572 C571 1.398 . S
C572 C573 1.391 . S
C573 H561 0.950 . S
C573 C569 1.393 . S
C573 C572 1.391 . S
H574 C582 0.950 . S
H575 C587 0.950 . S
H576 C584 0.950 . S
H577 C586 0.939 1_554 S
H578 C588 0.950 . S
H579 C590 0.950 . S
H580 C592 0.950 . S
H581 C593 0.950 . S
C582 H574 0.950 . S
C582 C583 1.386 . S
C582 C584 1.391 . S
C583 C582 1.386 . S
C583 C587 1.393 . S
C584 H576 0.950 . S
C584 C582 1.391 . S
C584 C585 1.400 . S
C585 C584 1.400 . S
C585 C586 1.398 . S
C585 C591 1.491 . S
C586 H577 0.939 1_556 S
C586 C585 1.398 . S
C586 C587 1.391 . S
C587 H575 0.950 . S
C587 C583 1.393 . S
C587 C586 1.391 . S
C588 H578 0.950 . S
C588 C589 1.386 . S
C588 C590 1.391 . S
C589 C588 1.386 . S
C589 C593 1.393 1_554 S
C590 H579 0.950 . S
C590 C588 1.391 . S
C590 C591 1.400 1_554 S
C591 C585 1.491 . S
C591 C590 1.400 1_556 S
C591 C592 1.398 . S
C592 H580 0.950 . S
C592 C591 1.398 . S
C592 C593 1.391 . S
C593 H581 0.950 . S
C593 C589 1.393 1_556 S
C593 C592 1.391 . S
H594 C602 0.950 . S
H595 C607 0.950 . S
H596 C604 0.950 . S
H597 C606 0.950 . S
H598 C608 0.950 1_556 S
H599 C610 0.950 1_556 S
H600 C612 0.950 . S
H601 C613 0.950 . S
C602 H594 0.950 . S
C602 C603 1.386 . S
C602 C604 1.391 . S
C603 C602 1.386 . S
C603 C607 1.393 . S
C604 H596 0.950 . S
C604 C602 1.391 . S
C604 C605 1.400 . S
C605 C604 1.400 . S
C605 C606 1.398 . S
C605 C611 1.491 . S
C606 H597 0.950 . S
C606 C605 1.398 . S
C606 C607 1.391 . S
C607 H595 0.950 . S
C607 C603 1.393 . S
C607 C606 1.391 . S
C608 H598 0.950 1_554 S
C608 C609 1.386 . S
C608 C610 1.391 . S
C609 C608 1.386 . S
C609 C613 1.393 . S
C610 H599 0.950 1_554 S
C610 C608 1.391 . S
C610 C611 1.400 . S
C611 C605 1.491 . S
C611 C610 1.400 . S
C611 C612 1.398 . S
C612 H600 0.950 . S
C612 C611 1.398 . S
C612 C613 1.391 . S
C613 H601 0.950 . S
C613 C609 1.393 . S
C613 C612 1.391 . S
H614 C622 0.950 . S
H615 C627 0.950 . S
H616 C624 0.950 . S
H617 C626 0.950 . S
H618 C628 0.950 . S
H619 C630 0.950 . S
H620 C632 0.950 . S
H621 C633 0.950 . S
C622 H614 0.950 . S
C622 C623 1.386 . S
C622 C624 1.391 . S
C623 C622 1.386 . S
C623 C627 1.393 . S
C624 H616 0.950 . S
C624 C622 1.391 . S
C624 C625 1.400 . S
C625 C624 1.400 . S
C625 C626 1.398 . S
C625 C631 1.491 . S
C626 H617 0.950 . S
C626 C625 1.398 . S
C626 C627 1.391 . S
C627 H615 0.950 . S
C627 C623 1.393 . S
C627 C626 1.391 . S
C628 H618 0.950 . S
C628 C629 1.386 . S
C628 C630 1.391 . S
C629 C628 1.386 . S
C629 C633 1.393 . S
C630 H619 0.950 . S
C630 C628 1.391 . S
C630 C631 1.400 . S
C631 C625 1.491 . S
C631 C630 1.400 . S
C631 C632 1.398 . S
C632 H620 0.950 . S
C632 C631 1.398 . S
C632 C633 1.391 . S
C633 H621 0.950 . S
C633 C629 1.393 . S
C633 C632 1.391 . S
H634 C642 0.950 . S
H635 C647 0.950 . S
H636 C644 0.950 . S
H637 C646 0.950 . S
H638 C648 0.950 . S
H639 C650 0.950 . S
H640 C652 0.950 . S
H641 C653 0.950 . S
C642 H634 0.950 . S
C642 C643 1.386 . S
C642 C644 1.391 . S
C643 C642 1.386 . S
C643 C647 1.393 . S
C644 H636 0.950 . S
C644 C642 1.391 . S
C644 C645 1.400 . S
C645 C644 1.400 . S
C645 C646 1.398 . S
C645 C651 1.491 . S
C646 H637 0.950 . S
C646 C645 1.398 . S
C646 C647 1.391 . S
C647 H635 0.950 . S
C647 C643 1.393 . S
C647 C646 1.391 . S
C648 H638 0.950 . S
C648 C649 1.386 . S
C648 C650 1.391 . S
C649 C648 1.386 . S
C649 C653 1.393 . S
C650 H639 0.950 . S
C650 C648 1.391 . S
C650 C651 1.400 . S
C651 C645 1.491 . S
C651 C650 1.400 . S
C651 C652 1.398 . S
C652 H640 0.950 . S
C652 C651 1.398 . S
C652 C653 1.391 . S
C653 H641 0.950 . S
C653 C649 1.393 . S
C653 C652 1.391 . S
H654 C662 0.950 . S
H655 C667 0.950 . S
H656 C664 0.950 . S
H657 C666 0.950 . S
H658 C668 0.950 . S
H659 C670 0.950 . S
H660 C672 0.950 . S
H661 C673 0.950 . S
C662 H654 0.950 . S
C662 C663 1.386 . S
C662 C664 1.391 . S
C663 C662 1.386 . S
C663 C667 1.393 . S
C664 H656 0.950 . S
C664 C662 1.391 . S
C664 C665 1.400 . S
C665 C664 1.400 . S
C665 C666 1.398 . S
C665 C671 1.491 1_655 S
C666 H657 0.950 . S
C666 C665 1.398 . S
C666 C667 1.391 . S
C667 H655 0.950 . S
C667 C663 1.393 . S
C667 C666 1.391 . S
C668 H658 0.950 . S
C668 C669 1.386 . S
C668 C670 1.391 . S
C669 C668 1.386 . S
C669 C673 1.393 . S
C670 H659 0.950 . S
C670 C668 1.391 . S
C670 C671 1.400 . S
C671 C665 1.491 1_455 S
C671 C670 1.400 . S
C671 C672 1.398 . S
C672 H660 0.950 . S
C672 C671 1.398 . S
C672 C673 1.391 . S
C673 H661 0.950 . S
C673 C669 1.393 . S
C673 C672 1.391 . S
H674 C682 0.950 . S
H675 C687 0.950 . S
H676 C684 0.950 . S
H677 C686 0.950 . S
H678 C688 0.950 . S
H679 C690 0.950 . S
H680 C692 0.950 . S
H681 C693 0.950 . S
C682 H674 0.950 . S
C682 C683 1.386 . S
C682 C684 1.391 . S
C683 C682 1.386 . S
C683 C687 1.393 . S
C684 H676 0.950 . S
C684 C682 1.391 . S
C684 C685 1.400 . S
C685 C684 1.400 . S
C685 C686 1.398 . S
C685 C691 1.491 . S
C686 H677 0.950 . S
C686 C685 1.398 . S
C686 C687 1.391 . S
C687 H675 0.950 . S
C687 C683 1.393 . S
C687 C686 1.391 . S
C688 H678 0.950 . S
C688 C689 1.386 . S
C688 C690 1.391 . S
C689 C688 1.386 . S
C689 C693 1.393 . S
C690 H679 0.950 . S
C690 C688 1.391 . S
C690 C691 1.400 . S
C691 C685 1.491 . S
C691 C690 1.400 . S
C691 C692 1.398 . S
C692 H680 0.950 . S
C692 C691 1.398 . S
C692 C693 1.391 . S
C693 H681 0.950 . S
C693 C689 1.393 . S
C693 C692 1.391 . S
H694 C702 0.950 . S
H695 C707 0.950 . S
H696 C704 0.950 . S
H697 C706 0.950 . S
H698 C708 0.950 . S
H699 C710 0.950 . S
H700 C712 0.950 . S
H701 C713 0.950 . S
C702 H694 0.950 . S
C702 C703 1.386 . S
C702 C704 1.391 . S
C703 C702 1.386 . S
C703 C707 1.393 . S
C704 H696 0.950 . S
C704 C702 1.391 . S
C704 C705 1.400 . S
C705 C704 1.400 . S
C705 C706 1.398 . S
C705 C711 1.491 1_545 S
C706 H697 0.950 . S
C706 C705 1.398 . S
C706 C707 1.391 . S
C707 H695 0.950 . S
C707 C703 1.393 . S
C707 C706 1.391 . S
C708 H698 0.950 . S
C708 C709 1.386 . S
C708 C710 1.391 . S
C709 C708 1.386 . S
C709 C713 1.393 . S
C710 H699 0.950 . S
C710 C708 1.391 . S
C710 C711 1.400 . S
C711 C705 1.491 1_565 S
C711 C710 1.400 . S
C711 C712 1.398 . S
C712 H700 0.950 . S
C712 C711 1.398 . S
C712 C713 1.391 . S
C713 H701 0.950 . S
C713 C709 1.393 . S
C713 C712 1.391 . S
H714 C722 0.950 . S
H715 C727 0.950 . S
H716 C724 0.950 . S
H717 C726 0.950 . S
H718 C728 0.950 . S
H719 C730 0.950 . S
H720 C732 0.950 . S
H721 C733 0.950 . S
C722 H714 0.950 . S
C722 C723 1.386 . S
C722 C724 1.391 . S
C723 C722 1.386 . S
C723 C727 1.393 . S
C724 H716 0.950 . S
C724 C722 1.391 . S
C724 C725 1.400 . S
C725 C724 1.400 . S
C725 C726 1.398 . S
C725 C731 1.491 . S
C726 H717 0.950 . S
C726 C725 1.398 . S
C726 C727 1.391 . S
C727 H715 0.950 . S
C727 C723 1.393 . S
C727 C726 1.391 . S
C728 H718 0.950 . S
C728 C729 1.386 . S
C728 C730 1.391 . S
C729 C728 1.386 . S
C729 C733 1.393 . S
C730 H719 0.950 . S
C730 C728 1.391 . S
C730 C731 1.400 . S
C731 C725 1.491 . S
C731 C730 1.400 . S
C731 C732 1.398 . S
C732 H720 0.950 . S
C732 C731 1.398 . S
C732 C733 1.391 . S
C733 H721 0.950 . S
C733 C729 1.393 . S
C733 C732 1.391 . S
H734 C742 0.950 . S
H735 C747 0.950 . S
H736 C744 0.950 . S
H737 C746 0.950 . S
H738 C748 0.950 . S
H739 C750 0.950 . S
H740 C752 0.950 . S
H741 C753 0.950 . S
C742 H734 0.950 . S
C742 C743 1.386 . S
C742 C744 1.391 . S
C743 C742 1.386 . S
C743 C747 1.393 . S
C744 H736 0.950 . S
C744 C742 1.391 . S
C744 C745 1.400 . S
C745 C744 1.400 . S
C745 C746 1.398 . S
C745 C751 1.491 . S
C746 H737 0.950 . S
C746 C745 1.398 . S
C746 C747 1.391 . S
C747 H735 0.950 . S
C747 C743 1.393 . S
C747 C746 1.391 . S
C748 H738 0.950 . S
C748 C749 1.386 . S
C748 C750 1.391 . S
C749 C748 1.386 . S
C749 C753 1.393 . S
C750 H739 0.950 . S
C750 C748 1.391 . S
C750 C751 1.400 . S
C751 C745 1.491 . S
C751 C750 1.400 . S
C751 C752 1.398 . S
C752 H740 0.950 . S
C752 C751 1.398 . S
C752 C753 1.391 . S
C753 H741 0.950 . S
C753 C749 1.393 . S
C753 C752 1.391 . S
H754 C762 0.950 . S
H755 C767 0.950 . S
H756 C764 0.950 . S
H757 C766 0.950 . S
H758 C768 0.950 . S
H759 C770 0.950 . S
H760 C772 0.950 . S
H761 C773 0.950 . S
C762 H754 0.950 . S
C762 C763 1.386 . S
C762 C764 1.391 . S
C763 C762 1.386 . S
C763 C767 1.393 . S
C764 H756 0.950 . S
C764 C762 1.391 . S
C764 C765 1.400 . S
C765 C764 1.400 . S
C765 C766 1.398 . S
C765 C771 1.491 . S
C766 H757 0.950 . S
C766 C765 1.398 . S
C766 C767 1.391 . S
C767 H755 0.950 . S
C767 C763 1.393 . S
C767 C766 1.391 . S
C768 H758 0.950 . S
C768 C769 1.386 . S
C768 C770 1.391 . S
C769 C768 1.386 . S
C769 C773 1.393 . S
C770 H759 0.950 . S
C770 C768 1.391 . S
C770 C771 1.400 . S
C771 C765 1.491 . S
C771 C770 1.400 . S
C771 C772 1.398 . S
C772 H760 0.950 . S
C772 C771 1.398 . S
C772 C773 1.391 . S
C773 H761 0.950 . S
C773 C769 1.393 . S
C773 C772 1.391 . S
H774 C782 0.950 . S
H775 C787 0.950 . S
H776 C784 0.950 . S
H777 C786 0.950 . S
H778 C788 0.950 . S
H779 C790 0.950 . S
H780 C792 0.950 . S
H781 C793 0.950 . S
C782 H774 0.950 . S
C782 C783 1.386 . S
C782 C784 1.391 . S
C783 C782 1.386 . S
C783 C787 1.393 . S
C784 H776 0.950 . S
C784 C782 1.391 . S
C784 C785 1.400 . S
C785 C784 1.400 . S
C785 C786 1.398 . S
C785 C791 1.491 . S
C786 H777 0.950 . S
C786 C785 1.398 . S
C786 C787 1.391 . S
C787 H775 0.950 . S
C787 C783 1.393 . S
C787 C786 1.391 . S
C788 H778 0.950 . S
C788 C789 1.386 . S
C788 C790 1.391 . S
C789 C788 1.386 . S
C789 C793 1.393 . S
C790 H779 0.950 . S
C790 C788 1.391 . S
C790 C791 1.400 . S
C791 C785 1.491 . S
C791 C790 1.400 . S
C791 C792 1.398 . S
C792 H780 0.950 . S
C792 C791 1.398 . S
C792 C793 1.391 . S
C793 H781 0.950 . S
C793 C789 1.393 . S
C793 C792 1.391 . S
H794 C802 0.950 . S
H795 C807 0.950 . S
H796 C804 0.950 . S
H797 C806 0.950 . S
H798 C808 0.950 . S
H799 C810 0.950 . S
H800 C812 0.950 . S
H801 C813 0.950 . S
C802 H794 0.950 . S
C802 C803 1.386 . S
C802 C804 1.391 . S
C803 C802 1.386 . S
C803 C807 1.393 . S
C804 H796 0.950 . S
C804 C802 1.391 . S
C804 C805 1.400 . S
C805 C804 1.400 . S
C805 C806 1.398 . S
C805 C811 1.491 . S
C806 H797 0.950 . S
C806 C805 1.398 . S
C806 C807 1.391 . S
C807 H795 0.950 . S
C807 C803 1.393 . S
C807 C806 1.391 . S
C808 H798 0.950 . S
C808 C809 1.386 . S
C808 C810 1.391 . S
C809 C808 1.386 . S
C809 C813 1.393 . S
C810 H799 0.950 . S
C810 C808 1.391 . S
C810 C811 1.400 . S
C811 C805 1.491 . S
C811 C810 1.400 . S
C811 C812 1.398 . S
C812 H800 0.950 . S
C812 C811 1.398 . S
C812 C813 1.391 . S
C813 H801 0.950 . S
C813 C809 1.393 . S
C813 C812 1.391 . S
H814 C822 0.950 . S
H815 C827 0.950 . S
H816 C824 0.950 . S
H817 C826 0.950 . S
H818 C828 0.950 . S
H819 C830 0.950 . S
H820 C832 0.950 . S
H821 C833 0.950 . S
C822 H814 0.950 . S
C822 C823 1.386 . S
C822 C824 1.391 . S
C823 C822 1.386 . S
C823 C827 1.393 . S
C824 H816 0.950 . S
C824 C822 1.391 . S
C824 C825 1.400 . S
C825 C824 1.400 . S
C825 C826 1.398 . S
C825 C831 1.491 . S
C826 H817 0.950 . S
C826 C825 1.398 . S
C826 C827 1.391 . S
C827 H815 0.950 . S
C827 C823 1.393 . S
C827 C826 1.391 . S
C828 H818 0.950 . S
C828 C829 1.386 . S
C828 C830 1.391 . S
C829 C828 1.386 . S
C829 C833 1.393 . S
C830 H819 0.950 . S
C830 C828 1.391 . S
C830 C831 1.400 . S
C831 C825 1.491 . S
C831 C830 1.400 . S
C831 C832 1.398 . S
C832 H820 0.950 . S
C832 C831 1.398 . S
C832 C833 1.391 . S
C833 H821 0.950 . S
C833 C829 1.393 . S
C833 C832 1.391 . S
H834 C842 0.950 . S
H835 C847 0.950 . S
H836 C844 0.950 . S
H837 C846 0.950 . S
H838 C848 0.950 . S
H839 C850 0.950 . S
H840 C852 0.950 . S
H841 C853 0.950 . S
C842 H834 0.950 . S
C842 C843 1.386 . S
C842 C844 1.391 1_545 S
C843 C842 1.386 . S
C843 C847 1.393 . S
C844 H836 0.950 . S
C844 C842 1.391 1_565 S
C844 C845 1.400 . S
C845 C844 1.400 . S
C845 C846 1.398 . S
C845 C851 1.491 . S
C846 H837 0.950 . S
C846 C845 1.398 . S
C846 C847 1.391 1_565 S
C847 H835 0.950 . S
C847 C843 1.393 . S
C847 C846 1.391 1_545 S
C848 H838 0.950 . S
C848 C849 1.386 . S
C848 C850 1.391 . S
C849 C848 1.386 . S
C849 C853 1.393 . S
C850 H839 0.950 . S
C850 C848 1.391 . S
C850 C851 1.400 . S
C851 C845 1.491 . S
C851 C850 1.400 . S
C851 C852 1.398 . S
C852 H840 0.950 . S
C852 C851 1.398 . S
C852 C853 1.391 . S
C853 H841 0.950 . S
C853 C849 1.393 . S
C853 C852 1.391 . S
H854 C862 0.950 . S
H855 C867 0.950 . S
H856 C864 0.950 . S
H857 C866 0.950 . S
H858 C868 0.950 . S
H859 C870 0.950 . S
H860 C872 0.950 . S
H861 C873 0.950 . S
C862 H854 0.950 . S
C862 C863 1.386 . S
C862 C864 1.391 1_655 S
C863 C862 1.386 . S
C863 C867 1.393 . S
C864 H856 0.950 . S
C864 C862 1.391 1_455 S
C864 C865 1.400 . S
C865 C864 1.400 . S
C865 C866 1.398 . S
C865 C871 1.491 . S
C866 H857 0.950 . S
C866 C865 1.398 . S
C866 C867 1.391 1_455 S
C867 H855 0.950 . S
C867 C863 1.393 . S
C867 C866 1.391 1_655 S
C868 H858 0.950 . S
C868 C869 1.386 . S
C868 C870 1.391 . S
C869 C868 1.386 . S
C869 C873 1.393 . S
C870 H859 0.950 . S
C870 C868 1.391 . S
C870 C871 1.400 . S
C871 C865 1.491 . S
C871 C870 1.400 . S
C871 C872 1.398 . S
C872 H860 0.950 . S
C872 C871 1.398 . S
C872 C873 1.391 . S
C873 H861 0.950 . S
C873 C869 1.393 . S
C873 C872 1.391 . S
H874 C882 0.950 . S
H875 C887 0.950 . S
H876 C884 0.950 . S
H877 C886 0.950 . S
H878 C888 0.950 . S
H879 C890 0.950 . S
H880 C892 0.950 . S
H881 C893 0.950 . S
C882 H874 0.950 . S
C882 C883 1.386 . S
C882 C884 1.391 . S
C883 C882 1.386 . S
C883 C887 1.393 . S
C884 H876 0.950 . S
C884 C882 1.391 . S
C884 C885 1.400 . S
C885 C884 1.400 . S
C885 C886 1.398 . S
C885 C891 1.491 . S
C886 H877 0.950 . S
C886 C885 1.398 . S
C886 C887 1.391 . S
C887 H875 0.950 . S
C887 C883 1.393 . S
C887 C886 1.391 . S
C888 H878 0.950 . S
C888 C889 1.386 . S
C888 C890 1.391 . S
C889 C888 1.386 . S
C889 C893 1.393 . S
C890 H879 0.950 . S
C890 C888 1.391 . S
C890 C891 1.400 . S
C891 C885 1.491 . S
C891 C890 1.400 . S
C891 C892 1.398 . S
C892 H880 0.950 . S
C892 C891 1.398 . S
C892 C893 1.391 . S
C893 H881 0.950 . S
C893 C889 1.393 . S
C893 C892 1.391 . S
H894 C902 0.950 . S
H895 C907 0.950 . S
H896 C904 0.950 . S
H897 C906 0.950 . S
H898 C908 0.950 . S
H899 C910 0.950 . S
H900 C912 0.950 . S
H901 C913 0.950 . S
C902 H894 0.950 . S
C902 C903 1.386 . S
C902 C904 1.391 . S
C903 C902 1.386 . S
C903 C907 1.393 . S
C904 H896 0.950 . S
C904 C902 1.391 . S
C904 C905 1.400 . S
C905 C904 1.400 . S
C905 C906 1.398 . S
C905 C911 1.491 . S
C906 H897 0.950 . S
C906 C905 1.398 . S
C906 C907 1.391 . S
C907 H895 0.950 . S
C907 C903 1.393 . S
C907 C906 1.391 . S
C908 H898 0.950 . S
C908 C909 1.386 . S
C908 C910 1.391 . S
C909 C908 1.386 . S
C909 C913 1.393 . S
C910 H899 0.950 . S
C910 C908 1.391 . S
C910 C911 1.400 . S
C911 C905 1.491 . S
C911 C910 1.400 . S
C911 C912 1.398 . S
C912 H900 0.950 . S
C912 C911 1.398 . S
C912 C913 1.391 . S
C913 H901 0.950 . S
C913 C909 1.393 . S
C913 C912 1.391 . S
H914 C922 0.950 . S
H915 C927 0.950 . S
H916 C924 0.950 . S
H917 C926 0.950 . S
H918 C928 0.950 . S
H919 C930 0.950 . S
H920 C932 0.950 . S
H921 C933 0.950 . S
C922 H914 0.950 . S
C922 C923 1.386 . S
C922 C924 1.391 . S
C923 C922 1.386 . S
C923 C927 1.393 . S
C924 H916 0.950 . S
C924 C922 1.391 . S
C924 C925 1.400 . S
C925 C924 1.400 . S
C925 C926 1.398 . S
C925 C931 1.491 . S
C926 H917 0.950 . S
C926 C925 1.398 . S
C926 C927 1.391 . S
C927 H915 0.950 . S
C927 C923 1.393 . S
C927 C926 1.391 . S
C928 H918 0.950 . S
C928 C929 1.386 . S
C928 C930 1.391 . S
C929 C928 1.386 . S
C929 C933 1.393 . S
C930 H919 0.950 . S
C930 C928 1.391 . S
C930 C931 1.400 . S
C931 C925 1.491 . S
C931 C930 1.400 . S
C931 C932 1.398 . S
C932 H920 0.950 . S
C932 C931 1.398 . S
C932 C933 1.391 . S
C933 H921 0.950 . S
C933 C929 1.393 . S
C933 C932 1.391 . S
H934 C942 0.950 . S
H935 C947 0.950 . S
H936 C944 0.950 . S
H937 C946 0.950 . S
H938 C948 0.950 . S
H939 C950 0.950 . S
H940 C952 0.950 . S
H941 C953 0.950 . S
C942 H934 0.950 . S
C942 C943 1.386 . S
C942 C944 1.391 . S
C943 C942 1.386 . S
C943 C947 1.393 . S
C944 H936 0.950 . S
C944 C942 1.391 . S
C944 C945 1.400 . S
C945 C944 1.400 . S
C945 C946 1.398 . S
C945 C951 1.491 . S
C946 H937 0.950 . S
C946 C945 1.398 . S
C946 C947 1.391 . S
C947 H935 0.950 . S
C947 C943 1.393 . S
C947 C946 1.391 . S
C948 H938 0.950 . S
C948 C949 1.386 . S
C948 C950 1.391 . S
C949 C948 1.386 . S
C949 C953 1.393 . S
C950 H939 0.950 . S
C950 C948 1.391 . S
C950 C951 1.400 . S
C951 C945 1.491 . S
C951 C950 1.400 . S
C951 C952 1.398 . S
C952 H940 0.950 . S
C952 C951 1.398 . S
C952 C953 1.391 . S
C953 H941 0.950 . S
C953 C949 1.393 . S
C953 C952 1.391 . S
H954 C962 0.950 . S
H955 C967 0.950 . S
H956 C964 0.950 . S
H957 C966 0.950 . S
H958 C968 0.950 . S
H959 C970 0.950 . S
H960 C972 0.950 . S
H961 C973 0.950 . S
C962 H954 0.950 . S
C962 C963 1.386 . S
C962 C964 1.391 . S
C963 C962 1.386 . S
C963 C967 1.393 . S
C964 H956 0.950 . S
C964 C962 1.391 . S
C964 C965 1.400 . S
C965 C964 1.400 . S
C965 C966 1.398 . S
C965 C971 1.491 1_565 S
C966 H957 0.950 . S
C966 C965 1.398 . S
C966 C967 1.391 . S
C967 H955 0.950 . S
C967 C963 1.393 . S
C967 C966 1.391 . S
C968 H958 0.950 . S
C968 C969 1.386 . S
C968 C970 1.391 . S
C969 C968 1.386 . S
C969 C973 1.393 . S
C970 H959 0.950 . S
C970 C968 1.391 . S
C970 C971 1.400 . S
C971 C965 1.491 1_545 S
C971 C970 1.400 . S
C971 C972 1.398 . S
C972 H960 0.950 . S
C972 C971 1.398 . S
C972 C973 1.391 . S
C973 H961 0.950 . S
C973 C969 1.393 . S
C973 C972 1.391 . S
H974 C982 0.950 . S
H975 C987 0.950 . S
H976 C984 0.950 . S
H977 C986 0.950 . S
H978 C988 0.950 . S
H979 C990 0.950 1_455 S
H980 C992 0.950 . S
H981 C993 0.950 . S
C982 H974 0.950 . S
C982 C983 1.386 . S
C982 C984 1.391 . S
C983 C982 1.386 . S
C983 C987 1.393 . S
C984 H976 0.950 . S
C984 C982 1.391 . S
C984 C985 1.400 . S
C985 C984 1.400 . S
C985 C986 1.398 . S
C985 C991 1.491 1_455 S
C986 H977 0.950 . S
C986 C985 1.398 . S
C986 C987 1.391 . S
C987 H975 0.950 . S
C987 C983 1.393 . S
C987 C986 1.391 . S
C988 H978 0.950 . S
C988 C989 1.386 . S
C988 C990 1.391 . S
C989 C988 1.386 . S
C989 C993 1.393 . S
C990 H979 0.950 1_655 S
C990 C988 1.391 . S
C990 C991 1.400 . S
C991 C985 1.491 1_655 S
C991 C990 1.400 . S
C991 C992 1.398 . S
C992 H980 0.950 . S
C992 C991 1.398 . S
C992 C993 1.391 . S
C993 H981 0.950 . S
C993 C989 1.393 . S
C993 C992 1.391 . S
H994 C1002 0.950 . S
H995 C1007 0.950 . S
H996 C1004 0.950 . S
H997 C1006 0.950 . S
H998 C1008 0.950 . S
H999 C1010 0.950 . S
H1000 C1012 0.950 . S
H1001 C1013 0.950 . S
C1002 H994 0.950 . S
C1002 C1003 1.386 . S
C1002 C1004 1.391 . S
C1003 C1002 1.386 . S
C1003 C1007 1.393 . S
C1004 H996 0.950 . S
C1004 C1002 1.391 . S
C1004 C1005 1.400 . S
C1005 C1004 1.400 . S
C1005 C1006 1.398 . S
C1005 C1011 1.491 . S
C1006 H997 0.950 . S
C1006 C1005 1.398 . S
C1006 C1007 1.391 . S
C1007 H995 0.950 . S
C1007 C1003 1.393 . S
C1007 C1006 1.391 . S
C1008 H998 0.950 . S
C1008 C1009 1.386 . S
C1008 C1010 1.391 . S
C1009 C1008 1.386 . S
C1009 C1013 1.393 . S
C1010 H999 0.950 . S
C1010 C1008 1.391 . S
C1010 C1011 1.400 . S
C1011 C1005 1.491 . S
C1011 C1010 1.400 . S
C1011 C1012 1.398 . S
C1012 H1000 0.950 . S
C1012 C1011 1.398 . S
C1012 C1013 1.391 . S
C1013 H1001 0.950 . S
C1013 C1009 1.393 . S
C1013 C1012 1.391 . S
H1014 C1022 0.950 . S
H1015 C1027 0.950 . S
H1016 C1024 0.950 . S
H1017 C1026 0.950 1_655 S
H1018 C1028 0.950 . S
H1019 C1030 0.950 . S
H1020 C1032 0.950 . S
H1021 C1033 0.950 . S
C1022 H1014 0.950 . S
C1022 C1023 1.386 . S
C1022 C1024 1.391 . S
C1023 C1022 1.386 . S
C1023 C1027 1.393 . S
C1024 H1016 0.950 . S
C1024 C1022 1.391 . S
C1024 C1025 1.400 1_455 S
C1025 C1024 1.400 1_655 S
C1025 C1026 1.398 1_655 S
C1025 C1031 1.491 . S
C1026 H1017 0.950 1_455 S
C1026 C1025 1.398 1_455 S
C1026 C1027 1.391 . S
C1027 H1015 0.950 . S
C1027 C1023 1.393 . S
C1027 C1026 1.391 . S
C1028 H1018 0.950 . S
C1028 C1029 1.386 . S
C1028 C1030 1.391 . S
C1029 C1028 1.386 . S
C1029 C1033 1.393 . S
C1030 H1019 0.950 . S
C1030 C1028 1.391 . S
C1030 C1031 1.400 . S
C1031 C1025 1.491 . S
C1031 C1030 1.400 . S
C1031 C1032 1.398 . S
C1032 H1020 0.950 . S
C1032 C1031 1.398 . S
C1032 C1033 1.391 . S
C1033 H1021 0.950 . S
C1033 C1029 1.393 . S
C1033 C1032 1.391 . S
H1034 C1042 0.950 . S
H1035 C1047 0.950 . S
H1036 C1044 0.950 . S
H1037 C1046 0.950 . S
H1038 C1048 0.950 . S
H1039 C1050 0.950 . S
H1040 C1052 0.950 . S
H1041 C1053 0.950 . S
C1042 H1034 0.950 . S
C1042 C1043 1.386 . S
C1042 C1044 1.391 . S
C1043 C1042 1.386 . S
C1043 C1047 1.393 . S
C1044 H1036 0.950 . S
C1044 C1042 1.391 . S
C1044 C1045 1.400 . S
C1045 C1044 1.400 . S
C1045 C1046 1.398 . S
C1045 C1051 1.491 . S
C1046 H1037 0.950 . S
C1046 C1045 1.398 . S
C1046 C1047 1.391 . S
C1047 H1035 0.950 . S
C1047 C1043 1.393 . S
C1047 C1046 1.391 . S
C1048 H1038 0.950 . S
C1048 C1049 1.386 . S
C1048 C1050 1.391 . S
C1049 C1048 1.386 . S
C1049 C1053 1.393 . S
C1050 H1039 0.950 . S
C1050 C1048 1.391 . S
C1050 C1051 1.400 . S
C1051 C1045 1.491 . S
C1051 C1050 1.400 . S
C1051 C1052 1.398 . S
C1052 H1040 0.950 . S
C1052 C1051 1.398 . S
C1052 C1053 1.391 . S
C1053 H1041 0.950 . S
C1053 C1049 1.393 . S
C1053 C1052 1.391 . S
H1054 C1062 0.950 . S
H1055 C1067 0.950 . S
H1056 C1064 0.950 . S
H1057 C1066 0.950 . S
H1058 C1068 0.950 . S
H1059 C1070 0.950 . S
H1060 C1072 0.950 . S
H1061 C1073 0.950 . S
C1062 H1054 0.950 . S
C1062 C1063 1.386 . S
C1062 C1064 1.391 1_565 S
C1063 C1062 1.386 . S
C1063 C1067 1.393 . S
C1064 H1056 0.950 . S
C1064 C1062 1.391 1_545 S
C1064 C1065 1.400 . S
C1065 C1064 1.400 . S
C1065 C1066 1.398 . S
C1065 C1071 1.491 . S
C1066 H1057 0.950 . S
C1066 C1065 1.398 . S
C1066 C1067 1.391 1_545 S
C1067 H1055 0.950 . S
C1067 C1063 1.393 . S
C1067 C1066 1.391 1_565 S
C1068 H1058 0.950 . S
C1068 C1069 1.386 . S
C1068 C1070 1.391 . S
C1069 C1068 1.386 . S
C1069 C1073 1.393 . S
C1070 H1059 0.950 . S
C1070 C1068 1.391 . S
C1070 C1071 1.400 . S
C1071 C1065 1.491 . S
C1071 C1070 1.400 . S
C1071 C1072 1.398 . S
C1072 H1060 0.950 . S
C1072 C1071 1.398 . S
C1072 C1073 1.391 . S
C1073 H1061 0.950 . S
C1073 C1069 1.393 . S
C1073 C1072 1.391 . S
H1074 C1082 0.950 . S
H1075 C1087 0.950 . S
H1076 C1084 0.950 . S
H1077 C1086 0.950 . S
H1078 C1088 0.950 . S
H1079 C1090 0.950 . S
H1080 C1092 0.950 . S
H1081 C1093 0.950 . S
C1082 H1074 0.950 . S
C1082 C1083 1.386 . S
C1082 C1084 1.391 . S
C1083 C1082 1.386 . S
C1083 C1087 1.393 . S
C1084 H1076 0.950 . S
C1084 C1082 1.391 . S
C1084 C1085 1.400 . S
C1085 C1084 1.400 . S
C1085 C1086 1.398 . S
C1085 C1091 1.491 . S
C1086 H1077 0.950 . S
C1086 C1085 1.398 . S
C1086 C1087 1.391 . S
C1087 H1075 0.950 . S
C1087 C1083 1.393 . S
C1087 C1086 1.391 . S
C1088 H1078 0.950 . S
C1088 C1089 1.386 . S
C1088 C1090 1.391 . S
C1089 C1088 1.386 . S
C1089 C1093 1.393 . S
C1090 H1079 0.950 . S
C1090 C1088 1.391 . S
C1090 C1091 1.400 . S
C1091 C1085 1.491 . S
C1091 C1090 1.400 . S
C1091 C1092 1.398 . S
C1092 H1080 0.950 . S
C1092 C1091 1.398 . S
C1092 C1093 1.391 . S
C1093 H1081 0.950 . S
C1093 C1089 1.393 . S
C1093 C1092 1.391 . S
H1094 C1102 0.950 . S
H1095 C1107 0.950 . S
H1096 C1104 0.950 . S
H1097 C1106 0.950 . S
H1098 C1108 0.950 . S
H1099 C1110 0.950 . S
H1100 C1112 0.950 . S
H1101 C1113 0.950 . S
C1102 H1094 0.950 . S
C1102 C1103 1.386 . S
C1102 C1104 1.391 . S
C1103 C1102 1.386 . S
C1103 C1107 1.393 . S
C1104 H1096 0.950 . S
C1104 C1102 1.391 . S
C1104 C1105 1.400 . S
C1105 C1104 1.400 . S
C1105 C1106 1.398 . S
C1105 C1111 1.491 . S
C1106 H1097 0.950 . S
C1106 C1105 1.398 . S
C1106 C1107 1.391 . S
C1107 H1095 0.950 . S
C1107 C1103 1.393 . S
C1107 C1106 1.391 . S
C1108 H1098 0.950 . S
C1108 C1109 1.386 . S
C1108 C1110 1.391 . S
C1109 C1108 1.386 . S
C1109 C1113 1.393 . S
C1110 H1099 0.950 . S
C1110 C1108 1.391 . S
C1110 C1111 1.400 . S
C1111 C1105 1.491 . S
C1111 C1110 1.400 . S
C1111 C1112 1.398 . S
C1112 H1100 0.950 . S
C1112 C1111 1.398 . S
C1112 C1113 1.391 . S
C1113 H1101 0.950 . S
C1113 C1109 1.393 . S
C1113 C1112 1.391 . S
H1114 C1122 0.950 . S
H1115 C1127 0.950 . S
H1116 C1124 0.950 . S
H1117 C1126 0.950 . S
H1118 C1128 0.950 . S
H1119 C1130 0.950 . S
H1120 C1132 0.950 . S
H1121 C1133 0.950 . S
C1122 H1114 0.950 . S
C1122 C1123 1.386 . S
C1122 C1124 1.391 . S
C1123 C1122 1.386 . S
C1123 C1127 1.393 . S
C1124 H1116 0.950 . S
C1124 C1122 1.391 . S
C1124 C1125 1.400 . S
C1125 C1124 1.400 . S
C1125 C1126 1.398 . S
C1125 C1131 1.491 . S
C1126 H1117 0.950 . S
C1126 C1125 1.398 . S
C1126 C1127 1.391 . S
C1127 H1115 0.950 . S
C1127 C1123 1.393 . S
C1127 C1126 1.391 . S
C1128 H1118 0.950 . S
C1128 C1129 1.386 . S
C1128 C1130 1.391 . S
C1129 C1128 1.386 . S
C1129 C1133 1.393 . S
C1130 H1119 0.950 . S
C1130 C1128 1.391 . S
C1130 C1131 1.400 . S
C1131 C1125 1.491 . S
C1131 C1130 1.400 . S
C1131 C1132 1.398 . S
C1132 H1120 0.950 . S
C1132 C1131 1.398 . S
C1132 C1133 1.391 . S
C1133 H1121 0.950 . S
C1133 C1129 1.393 . S
C1133 C1132 1.391 . S
H1134 C1142 0.950 . S
H1135 C1147 0.950 . S
H1136 C1144 0.950 . S
H1137 C1146 0.950 . S
H1138 C1148 0.950 . S
H1139 C1150 0.950 . S
H1140 C1152 0.950 . S
H1141 C1153 0.950 . S
C1142 H1134 0.950 . S
C1142 C1143 1.386 . S
C1142 C1144 1.391 . S
C1143 C1142 1.386 . S
C1143 C1147 1.393 . S
C1144 H1136 0.950 . S
C1144 C1142 1.391 . S
C1144 C1145 1.400 . S
C1145 C1144 1.400 . S
C1145 C1146 1.398 . S
C1145 C1151 1.491 . S
C1146 H1137 0.950 . S
C1146 C1145 1.398 . S
C1146 C1147 1.391 . S
C1147 H1135 0.950 . S
C1147 C1143 1.393 . S
C1147 C1146 1.391 . S
C1148 H1138 0.950 . S
C1148 C1149 1.386 . S
C1148 C1150 1.391 . S
C1149 C1148 1.386 . S
C1149 C1153 1.393 . S
C1150 H1139 0.950 . S
C1150 C1148 1.391 . S
C1150 C1151 1.400 . S
C1151 C1145 1.491 . S
C1151 C1150 1.400 . S
C1151 C1152 1.398 . S
C1152 H1140 0.950 . S
C1152 C1151 1.398 . S
C1152 C1153 1.391 . S
C1153 H1141 0.950 . S
C1153 C1149 1.393 . S
C1153 C1152 1.391 . S
H1154 C1162 0.950 . S
H1155 C1167 0.950 . S
H1156 C1164 0.950 . S
H1157 C1166 0.950 . S
H1158 C1168 0.950 1_655 S
H1159 C1170 0.950 . S
H1160 C1172 0.950 . S
H1161 C1173 0.950 . S
C1162 H1154 0.950 . S
C1162 C1163 1.386 . S
C1162 C1164 1.391 . S
C1163 C1162 1.386 . S
C1163 C1167 1.393 . S
C1164 H1156 0.950 . S
C1164 C1162 1.391 . S
C1164 C1165 1.400 . S
C1165 C1164 1.400 . S
C1165 C1166 1.398 . S
C1165 C1171 1.491 . S
C1166 H1157 0.950 . S
C1166 C1165 1.398 . S
C1166 C1167 1.391 . S
C1167 H1155 0.950 . S
C1167 C1163 1.393 . S
C1167 C1166 1.391 . S
C1168 H1158 0.950 1_455 S
C1168 C1169 1.386 . S
C1168 C1170 1.391 . S
C1169 C1168 1.386 . S
C1169 C1173 1.393 . S
C1170 H1159 0.950 . S
C1170 C1168 1.391 . S
C1170 C1171 1.400 . S
C1171 C1165 1.491 . S
C1171 C1170 1.400 . S
C1171 C1172 1.398 . S
C1172 H1160 0.950 . S
C1172 C1171 1.398 . S
C1172 C1173 1.391 . S
C1173 H1161 0.950 . S
C1173 C1169 1.393 . S
C1173 C1172 1.391 . S
H1174 C1182 0.950 . S
H1175 C1187 0.950 . S
H1176 C1184 0.950 . S
H1177 C1186 0.950 . S
H1178 C1188 0.950 . S
H1179 C1190 0.950 . S
H1180 C1192 0.950 . S
H1181 C1193 0.950 . S
C1182 H1174 0.950 . S
C1182 C1183 1.386 . S
C1182 C1184 1.391 . S
C1183 C1182 1.386 . S
C1183 C1187 1.393 . S
C1184 H1176 0.950 . S
C1184 C1182 1.391 . S
C1184 C1185 1.400 . S
C1185 C1184 1.400 . S
C1185 C1186 1.398 . S
C1185 C1191 1.491 . S
C1186 H1177 0.950 . S
C1186 C1185 1.398 . S
C1186 C1187 1.391 . S
C1187 H1175 0.950 . S
C1187 C1183 1.393 . S
C1187 C1186 1.391 . S
C1188 H1178 0.950 . S
C1188 C1189 1.386 . S
C1188 C1190 1.391 . S
C1189 C1188 1.386 . S
C1189 C1193 1.393 . S
C1190 H1179 0.950 . S
C1190 C1188 1.391 . S
C1190 C1191 1.400 . S
C1191 C1185 1.491 . S
C1191 C1190 1.400 . S
C1191 C1192 1.398 . S
C1192 H1180 0.950 . S
C1192 C1191 1.398 . S
C1192 C1193 1.391 . S
C1193 H1181 0.950 . S
C1193 C1189 1.393 . S
C1193 C1192 1.391 . S
H1194 C1202 0.950 . S
H1195 C1207 0.950 . S
H1196 C1204 0.950 . S
H1197 C1206 0.950 . S
H1198 C1208 0.950 . S
H1199 C1210 0.950 . S
H1200 C1212 0.950 . S
H1201 C1213 0.950 1_455 S
C1202 H1194 0.950 . S
C1202 C1203 1.386 . S
C1202 C1204 1.391 . S
C1203 C1202 1.386 . S
C1203 C1207 1.393 . S
C1204 H1196 0.950 . S
C1204 C1202 1.391 . S
C1204 C1205 1.400 . S
C1205 C1204 1.400 . S
C1205 C1206 1.398 . S
C1205 C1211 1.491 . S
C1206 H1197 0.950 . S
C1206 C1205 1.398 . S
C1206 C1207 1.391 . S
C1207 H1195 0.950 . S
C1207 C1203 1.393 . S
C1207 C1206 1.391 . S
C1208 H1198 0.950 . S
C1208 C1209 1.386 . S
C1208 C1210 1.391 . S
C1209 C1208 1.386 . S
C1209 C1213 1.393 . S
C1210 H1199 0.950 . S
C1210 C1208 1.391 . S
C1210 C1211 1.400 . S
C1211 C1205 1.491 . S
C1211 C1210 1.400 . S
C1211 C1212 1.398 . S
C1212 H1200 0.950 . S
C1212 C1211 1.398 . S
C1212 C1213 1.391 . S
C1213 H1201 0.950 1_655 S
C1213 C1209 1.393 . S
C1213 C1212 1.391 . S
H1214 C1222 0.950 . S
H1215 C1227 0.950 . S
H1216 C1224 0.950 . S
H1217 C1226 0.950 . S
H1218 C1228 0.950 . S
H1219 C1230 0.950 . S
H1220 C1232 0.950 . S
H1221 C1233 0.950 . S
C1222 H1214 0.950 . S
C1222 C1223 1.386 . S
C1222 C1224 1.391 . S
C1223 C1222 1.386 . S
C1223 C1227 1.393 . S
C1224 H1216 0.950 . S
C1224 C1222 1.391 . S
C1224 C1225 1.400 . S
C1225 C1224 1.400 . S
C1225 C1226 1.398 . S
C1225 C1231 1.491 . S
C1226 H1217 0.950 . S
C1226 C1225 1.398 . S
C1226 C1227 1.391 . S
C1227 H1215 0.950 . S
C1227 C1223 1.393 . S
C1227 C1226 1.391 . S
C1228 H1218 0.950 . S
C1228 C1229 1.386 . S
C1228 C1230 1.391 . S
C1229 C1228 1.386 . S
C1229 C1233 1.393 . S
C1230 H1219 0.950 . S
C1230 C1228 1.391 . S
C1230 C1231 1.400 . S
C1231 C1225 1.491 . S
C1231 C1230 1.400 . S
C1231 C1232 1.398 . S
C1232 H1220 0.950 . S
C1232 C1231 1.398 . S
C1232 C1233 1.391 . S
C1233 H1221 0.950 . S
C1233 C1229 1.393 . S
C1233 C1232 1.391 . S
H1234 C1242 0.950 . S
H1235 C1247 0.950 . S
H1236 C1244 0.950 . S
H1237 C1246 0.950 . S
H1238 C1248 0.950 1_565 S
H1239 C1250 0.950 . S
H1240 C1252 0.950 . S
H1241 C1253 0.950 . S
C1242 H1234 0.950 . S
C1242 C1243 1.386 . S
C1242 C1244 1.391 . S
C1243 C1242 1.386 . S
C1243 C1247 1.393 . S
C1244 H1236 0.950 . S
C1244 C1242 1.391 . S
C1244 C1245 1.400 . S
C1245 C1244 1.400 . S
C1245 C1246 1.398 . S
C1245 C1251 1.491 . S
C1246 H1237 0.950 . S
C1246 C1245 1.398 . S
C1246 C1247 1.391 . S
C1247 H1235 0.950 . S
C1247 C1243 1.393 . S
C1247 C1246 1.391 . S
C1248 H1238 0.950 1_545 S
C1248 C1249 1.386 . S
C1248 C1250 1.391 . S
C1249 C1248 1.386 . S
C1249 C1253 1.393 . S
C1250 H1239 0.950 . S
C1250 C1248 1.391 . S
C1250 C1251 1.400 . S
C1251 C1245 1.491 . S
C1251 C1250 1.400 . S
C1251 C1252 1.398 . S
C1252 H1240 0.950 . S
C1252 C1251 1.398 . S
C1252 C1253 1.391 . S
C1253 H1241 0.950 . S
C1253 C1249 1.393 . S
C1253 C1252 1.391 . S
H1254 C1262 0.950 . S
H1255 C1267 0.950 . S
H1256 C1264 0.950 . S
H1257 C1266 0.950 . S
H1258 C1268 0.950 . S
H1259 C1270 0.950 . S
H1260 C1272 0.950 . S
H1261 C1273 0.950 . S
C1262 H1254 0.950 . S
C1262 C1263 1.386 . S
C1262 C1264 1.391 . S
C1263 C1262 1.386 . S
C1263 C1267 1.393 . S
C1264 H1256 0.950 . S
C1264 C1262 1.391 . S
C1264 C1265 1.400 . S
C1265 C1264 1.400 . S
C1265 C1266 1.398 . S
C1265 C1271 1.491 . S
C1266 H1257 0.950 . S
C1266 C1265 1.398 . S
C1266 C1267 1.391 . S
C1267 H1255 0.950 . S
C1267 C1263 1.393 . S
C1267 C1266 1.391 . S
C1268 H1258 0.950 . S
C1268 C1269 1.386 . S
C1268 C1270 1.391 . S
C1269 C1268 1.386 . S
C1269 C1273 1.393 . S
C1270 H1259 0.950 . S
C1270 C1268 1.391 . S
C1270 C1271 1.400 . S
C1271 C1265 1.491 . S
C1271 C1270 1.400 . S
C1271 C1272 1.398 . S
C1272 H1260 0.950 . S
C1272 C1271 1.398 . S
C1272 C1273 1.391 . S
C1273 H1261 0.950 . S
C1273 C1269 1.393 . S
C1273 C1272 1.391 . S
H1274 C1282 0.950 . S
H1275 C1287 0.950 . S
H1276 C1284 0.950 . S
H1277 C1286 0.950 . S
H1278 C1288 0.950 . S
H1279 C1290 0.950 . S
H1280 C1292 0.950 . S
H1281 C1293 0.950 . S
C1282 H1274 0.950 . S
C1282 C1283 1.386 . S
C1282 C1284 1.391 . S
C1283 C1282 1.386 . S
C1283 C1287 1.393 . S
C1284 H1276 0.950 . S
C1284 C1282 1.391 . S
C1284 C1285 1.400 . S
C1285 C1284 1.400 . S
C1285 C1286 1.398 . S
C1285 C1291 1.491 . S
C1286 H1277 0.950 . S
C1286 C1285 1.398 . S
C1286 C1287 1.391 . S
C1287 H1275 0.950 . S
C1287 C1283 1.393 . S
C1287 C1286 1.391 . S
C1288 H1278 0.950 . S
C1288 C1289 1.386 . S
C1288 C1290 1.391 . S
C1289 C1288 1.386 . S
C1289 C1293 1.393 . S
C1290 H1279 0.950 . S
C1290 C1288 1.391 . S
C1290 C1291 1.400 . S
C1291 C1285 1.491 . S
C1291 C1290 1.400 . S
C1291 C1292 1.398 . S
C1292 H1280 0.950 . S
C1292 C1291 1.398 . S
C1292 C1293 1.391 . S
C1293 H1281 0.950 . S
C1293 C1289 1.393 . S
C1293 C1292 1.391 . S
H1294 C1302 0.950 . S
H1295 C1307 0.950 . S
H1296 C1304 0.950 . S
H1297 C1306 0.950 . S
H1298 C1308 0.950 . S
H1299 C1310 0.950 . S
H1300 C1312 0.950 . S
H1301 C1313 0.950 . S
C1302 H1294 0.950 . S
C1302 C1303 1.386 . S
C1302 C1304 1.391 . S
C1303 C1302 1.386 . S
C1303 C1307 1.393 . S
C1304 H1296 0.950 . S
C1304 C1302 1.391 . S
C1304 C1305 1.400 . S
C1305 C1304 1.400 . S
C1305 C1306 1.398 . S
C1305 C1311 1.491 . S
C1306 H1297 0.950 . S
C1306 C1305 1.398 . S
C1306 C1307 1.391 . S
C1307 H1295 0.950 . S
C1307 C1303 1.393 . S
C1307 C1306 1.391 . S
C1308 H1298 0.950 . S
C1308 C1309 1.386 . S
C1308 C1310 1.391 . S
C1309 C1308 1.386 . S
C1309 C1313 1.393 . S
C1310 H1299 0.950 . S
C1310 C1308 1.391 . S
C1310 C1311 1.400 . S
C1311 C1305 1.491 . S
C1311 C1310 1.400 . S
C1311 C1312 1.398 . S
C1312 H1300 0.950 . S
C1312 C1311 1.398 . S
C1312 C1313 1.391 . S
C1313 H1301 0.950 . S
C1313 C1309 1.393 . S
C1313 C1312 1.391 . S
H1314 C1322 0.950 . S
H1315 C1327 0.950 . S
H1316 C1324 0.950 . S
H1317 C1326 0.950 . S
H1318 C1328 0.950 . S
H1319 C1330 0.950 . S
H1320 C1332 0.950 . S
H1321 C1333 0.950 . S
C1322 H1314 0.950 . S
C1322 C1323 1.386 . S
C1322 C1324 1.391 . S
C1323 C1322 1.386 . S
C1323 C1327 1.393 . S
C1324 H1316 0.950 . S
C1324 C1322 1.391 . S
C1324 C1325 1.400 . S
C1325 C1324 1.400 . S
C1325 C1326 1.398 . S
C1325 C1331 1.491 . S
C1326 H1317 0.950 . S
C1326 C1325 1.398 . S
C1326 C1327 1.391 . S
C1327 H1315 0.950 . S
C1327 C1323 1.393 . S
C1327 C1326 1.391 . S
C1328 H1318 0.950 . S
C1328 C1329 1.386 . S
C1328 C1330 1.391 . S
C1329 C1328 1.386 . S
C1329 C1333 1.393 . S
C1330 H1319 0.950 . S
C1330 C1328 1.391 . S
C1330 C1331 1.400 . S
C1331 C1325 1.491 . S
C1331 C1330 1.400 . S
C1331 C1332 1.398 . S
C1332 H1320 0.950 . S
C1332 C1331 1.398 . S
C1332 C1333 1.391 . S
C1333 H1321 0.950 . S
C1333 C1329 1.393 . S
C1333 C1332 1.391 . S
H1334 C1342 0.950 . S
H1335 C1347 0.950 . S
H1336 C1344 0.950 . S
H1337 C1346 0.950 . S
H1338 C1348 0.950 . S
H1339 C1350 0.950 . S
H1340 C1352 0.950 . S
H1341 C1353 0.950 . S
C1342 H1334 0.950 . S
C1342 C1343 1.386 . S
C1342 C1344 1.391 . S
C1343 C1342 1.386 . S
C1343 C1347 1.393 . S
C1344 H1336 0.950 . S
C1344 C1342 1.391 . S
C1344 C1345 1.400 . S
C1345 C1344 1.400 . S
C1345 C1346 1.398 . S
C1345 C1351 1.491 . S
C1346 H1337 0.950 . S
C1346 C1345 1.398 . S
C1346 C1347 1.391 . S
C1347 H1335 0.950 . S
C1347 C1343 1.393 . S
C1347 C1346 1.391 . S
C1348 H1338 0.950 . S
C1348 C1349 1.386 . S
C1348 C1350 1.391 . S
C1349 C1348 1.386 . S
C1349 C1353 1.393 . S
C1350 H1339 0.950 . S
C1350 C1348 1.391 . S
C1350 C1351 1.400 . S
C1351 C1345 1.491 . S
C1351 C1350 1.400 . S
C1351 C1352 1.398 . S
C1352 H1340 0.950 . S
C1352 C1351 1.398 . S
C1352 C1353 1.391 . S
C1353 H1341 0.950 . S
C1353 C1349 1.393 . S
C1353 C1352 1.391 . S
H1354 C1362 0.950 . S
H1355 C1367 0.950 . S
H1356 C1364 0.950 . S
H1357 C1366 0.950 . S
H1358 C1368 0.950 . S
H1359 C1370 0.950 . S
H1360 C1372 0.950 . S
H1361 C1373 0.950 . S
C1362 H1354 0.950 . S
C1362 C1363 1.386 . S
C1362 C1364 1.391 . S
C1363 C1362 1.386 . S
C1363 C1367 1.393 . S
C1364 H1356 0.950 . S
C1364 C1362 1.391 . S
C1364 C1365 1.400 . S
C1365 C1364 1.400 . S
C1365 C1366 1.398 . S
C1365 C1371 1.491 . S
C1366 H1357 0.950 . S
C1366 C1365 1.398 . S
C1366 C1367 1.391 . S
C1367 H1355 0.950 . S
C1367 C1363 1.393 . S
C1367 C1366 1.391 . S
C1368 H1358 0.950 . S
C1368 C1369 1.386 . S
C1368 C1370 1.391 . S
C1369 C1368 1.386 . S
C1369 C1373 1.393 . S
C1370 H1359 0.950 . S
C1370 C1368 1.391 . S
C1370 C1371 1.400 . S
C1371 C1365 1.491 . S
C1371 C1370 1.400 . S
C1371 C1372 1.398 . S
C1372 H1360 0.950 . S
C1372 C1371 1.398 . S
C1372 C1373 1.391 . S
C1373 H1361 0.950 . S
C1373 C1369 1.393 . S
C1373 C1372 1.391 . S
H1374 C1382 0.950 . S
H1375 C1387 0.950 . S
H1376 C1384 0.950 . S
H1377 C1386 0.950 . S
H1378 C1388 0.950 . S
H1379 C1390 0.950 . S
H1380 C1392 0.950 . S
H1381 C1393 0.950 . S
C1382 H1374 0.950 . S
C1382 C1383 1.386 . S
C1382 C1384 1.391 . S
C1383 C1382 1.386 . S
C1383 C1387 1.393 . S
C1384 H1376 0.950 . S
C1384 C1382 1.391 . S
C1384 C1385 1.400 . S
C1385 C1384 1.400 . S
C1385 C1386 1.398 . S
C1385 C1391 1.491 . S
C1386 H1377 0.950 . S
C1386 C1385 1.398 . S
C1386 C1387 1.391 . S
C1387 H1375 0.950 . S
C1387 C1383 1.393 . S
C1387 C1386 1.391 . S
C1388 H1378 0.950 . S
C1388 C1389 1.386 . S
C1388 C1390 1.391 . S
C1389 C1388 1.386 . S
C1389 C1393 1.393 . S
C1390 H1379 0.950 . S
C1390 C1388 1.391 . S
C1390 C1391 1.400 . S
C1391 C1385 1.491 . S
C1391 C1390 1.400 . S
C1391 C1392 1.398 . S
C1392 H1380 0.950 . S
C1392 C1391 1.398 . S
C1392 C1393 1.391 . S
C1393 H1381 0.950 . S
C1393 C1389 1.393 . S
C1393 C1392 1.391 . S
H1394 C1402 0.950 . S
H1395 C1407 0.950 . S
H1396 C1404 0.950 . S
H1397 C1406 0.950 . S
H1398 C1408 0.950 . S
H1399 C1410 0.950 . S
H1400 C1412 0.950 . S
H1401 C1413 0.950 . S
C1402 H1394 0.950 . S
C1402 C1403 1.386 . S
C1402 C1404 1.391 . S
C1403 C1402 1.386 . S
C1403 C1407 1.393 . S
C1404 H1396 0.950 . S
C1404 C1402 1.391 . S
C1404 C1405 1.400 . S
C1405 C1404 1.400 . S
C1405 C1406 1.398 . S
C1405 C1411 1.491 . S
C1406 H1397 0.950 . S
C1406 C1405 1.398 . S
C1406 C1407 1.391 . S
C1407 H1395 0.950 . S
C1407 C1403 1.393 . S
C1407 C1406 1.391 . S
C1408 H1398 0.950 . S
C1408 C1409 1.386 . S
C1408 C1410 1.391 . S
C1409 C1408 1.386 . S
C1409 C1413 1.393 . S
C1410 H1399 0.950 . S
C1410 C1408 1.391 . S
C1410 C1411 1.400 . S
C1411 C1405 1.491 . S
C1411 C1410 1.400 . S
C1411 C1412 1.398 . S
C1412 H1400 0.950 . S
C1412 C1411 1.398 . S
C1412 C1413 1.391 . S
C1413 H1401 0.950 . S
C1413 C1409 1.393 . S
C1413 C1412 1.391 . S
H1414 C1422 0.950 . S
H1415 C1427 0.950 . S
H1416 C1424 0.950 . S
H1417 C1426 0.950 . S
H1418 C1428 0.950 . S
H1419 C1430 0.950 . S
H1420 C1432 0.950 . S
H1421 C1433 0.950 . S
C1422 H1414 0.950 . S
C1422 C1423 1.386 . S
C1422 C1424 1.391 . S
C1423 C1422 1.386 . S
C1423 C1427 1.393 . S
C1424 H1416 0.950 . S
C1424 C1422 1.391 . S
C1424 C1425 1.400 . S
C1425 C1424 1.400 . S
C1425 C1426 1.398 . S
C1425 C1431 1.491 . S
C1426 H1417 0.950 . S
C1426 C1425 1.398 . S
C1426 C1427 1.391 . S
C1427 H1415 0.950 . S
C1427 C1423 1.393 . S
C1427 C1426 1.391 . S
C1428 H1418 0.950 . S
C1428 C1429 1.386 . S
C1428 C1430 1.391 . S
C1429 C1428 1.386 . S
C1429 C1433 1.393 . S
C1430 H1419 0.950 . S
C1430 C1428 1.391 . S
C1430 C1431 1.400 . S
C1431 C1425 1.491 . S
C1431 C1430 1.400 . S
C1431 C1432 1.398 . S
C1432 H1420 0.950 . S
C1432 C1431 1.398 . S
C1432 C1433 1.391 . S
C1433 H1421 0.950 . S
C1433 C1429 1.393 . S
C1433 C1432 1.391 . S
H1434 C1442 0.950 . S
H1435 C1447 0.950 . S
H1436 C1444 0.950 . S
H1437 C1446 0.950 . S
H1438 C1448 0.950 . S
H1439 C1450 0.950 . S
H1440 C1452 0.950 . S
H1441 C1453 0.950 . S
C1442 H1434 0.950 . S
C1442 C1443 1.386 . S
C1442 C1444 1.391 . S
C1443 C1442 1.386 . S
C1443 C1447 1.393 . S
C1444 H1436 0.950 . S
C1444 C1442 1.391 . S
C1444 C1445 1.400 . S
C1445 C1444 1.400 . S
C1445 C1446 1.398 . S
C1445 C1451 1.491 . S
C1446 H1437 0.950 . S
C1446 C1445 1.398 . S
C1446 C1447 1.391 . S
C1447 H1435 0.950 . S
C1447 C1443 1.393 . S
C1447 C1446 1.391 . S
C1448 H1438 0.950 . S
C1448 C1449 1.386 . S
C1448 C1450 1.391 . S
C1449 C1448 1.386 . S
C1449 C1453 1.393 . S
C1450 H1439 0.950 . S
C1450 C1448 1.391 . S
C1450 C1451 1.400 . S
C1451 C1445 1.491 . S
C1451 C1450 1.400 . S
C1451 C1452 1.398 . S
C1452 H1440 0.950 . S
C1452 C1451 1.398 . S
C1452 C1453 1.391 . S
C1453 H1441 0.950 . S
C1453 C1449 1.393 . S
C1453 C1452 1.391 . S
H1454 C1462 0.950 . S
H1455 C1467 0.950 . S
H1456 C1464 0.950 . S
H1457 C1466 0.950 . S
H1458 C1468 0.950 . S
H1459 C1470 0.950 . S
H1460 C1472 0.950 . S
H1461 C1473 0.950 . S
C1462 H1454 0.950 . S
C1462 C1463 1.386 . S
C1462 C1464 1.391 . S
C1463 C1462 1.386 . S
C1463 C1467 1.393 . S
C1464 H1456 0.950 . S
C1464 C1462 1.391 . S
C1464 C1465 1.400 . S
C1465 C1464 1.400 . S
C1465 C1466 1.398 . S
C1465 C1471 1.491 . S
C1466 H1457 0.950 . S
C1466 C1465 1.398 . S
C1466 C1467 1.391 . S
C1467 H1455 0.950 . S
C1467 C1463 1.393 . S
C1467 C1466 1.391 . S
C1468 H1458 0.950 . S
C1468 C1469 1.386 . S
C1468 C1470 1.391 . S
C1469 C1468 1.386 . S
C1469 C1473 1.393 . S
C1470 H1459 0.950 . S
C1470 C1468 1.391 . S
C1470 C1471 1.400 . S
C1471 C1465 1.491 . S
C1471 C1470 1.400 . S
C1471 C1472 1.398 . S
C1472 H1460 0.950 . S
C1472 C1471 1.398 . S
C1472 C1473 1.391 . S
C1473 H1461 0.950 . S
C1473 C1469 1.393 . S
C1473 C1472 1.391 . S
H1474 C1482 0.950 . S
H1475 C1487 0.950 . S
H1476 C1484 0.950 . S
H1477 C1486 0.950 . S
H1478 C1488 0.950 . S
H1479 C1490 0.950 . S
H1480 C1492 0.950 . S
H1481 C1493 0.950 . S
C1482 H1474 0.950 . S
C1482 C1483 1.386 . S
C1482 C1484 1.391 . S
C1483 C1482 1.386 . S
C1483 C1487 1.393 . S
C1484 H1476 0.950 . S
C1484 C1482 1.391 . S
C1484 C1485 1.400 . S
C1485 C1484 1.400 . S
C1485 C1486 1.398 . S
C1485 C1491 1.491 . S
C1486 H1477 0.950 . S
C1486 C1485 1.398 . S
C1486 C1487 1.391 . S
C1487 H1475 0.950 . S
C1487 C1483 1.393 . S
C1487 C1486 1.391 . S
C1488 H1478 0.950 . S
C1488 C1489 1.386 . S
C1488 C1490 1.391 . S
C1489 C1488 1.386 . S
C1489 C1493 1.393 . S
C1490 H1479 0.950 . S
C1490 C1488 1.391 . S
C1490 C1491 1.400 . S
C1491 C1485 1.491 . S
C1491 C1490 1.400 . S
C1491 C1492 1.398 . S
C1492 H1480 0.950 . S
C1492 C1491 1.398 . S
C1492 C1493 1.391 . S
C1493 H1481 0.950 . S
C1493 C1489 1.393 . S
C1493 C1492 1.391 . S
C423 C177 1.556 . S
C429 C240 1.533 . S
C443 C190 1.514 . S
C449 C260 1.485 . S
C463 C164 1.517 . S
C469 C283 1.522 . S
C483 C151 1.421 . S
C489 C263 1.423 1_556 S
C509 C280 1.428 . S
C503 C125 1.448 . S
C523 C138 1.465 . S
C529 C243 1.468 . S
C549 C250 1.545 . S
C543 C147 1.523 . S
C569 C270 1.426 . S
C563 C121 1.399 . S
C583 C134 1.477 . S
C589 C275 1.558 . S
C603 C173 1.397 . S
C609 C255 1.467 . S
C623 C186 1.412 . S
C629 C290 1.414 . S
C649 C235 1.539 . S
C643 C160 1.480 . S
C669 C300 1.543 . S
C663 C21 1.561 . S
C683 C34 1.516 . S
C689 C320 1.487 . S
C703 C8 1.507 . S
C709 C343 1.513 . S
C723 C229 1.428 . S
C729 C323 1.429 . S
C743 C203 1.449 . S
C749 C340 1.436 . S
C763 C216 1.473 . S
C769 C303 1.473 . S
C783 C225 1.543 . S
C789 C310 1.556 . S
C803 C199 1.411 . S
C809 C330 1.447 . S
C829 C335 1.566 . S
C823 C212 1.505 . S
C843 C17 1.388 . S
C849 C315 1.463 . S
C869 C350 1.416 . S
C863 C30 1.419 . S
C883 C4 1.480 . S
C889 C295 1.538 . S
C909 C360 1.546 . S
C903 C99 1.561 . S
C923 C112 1.521 . S
C929 C380 1.501 . S
C949 C403 1.514 . S
C943 C86 1.506 . S
C969 C383 1.432 . S
C963 C73 1.430 . S
C989 C400 1.431 . S
C983 C47 1.449 . S
C1003 C60 1.464 . S
C1009 C363 1.466 . S
C1023 C69 1.530 . S
C1029 C370 1.535 . S
C1043 C43 1.396 . S
C1049 C390 1.430 . S
C1069 C395 1.568 . S
C1063 C56 1.489 . S
C1083 C95 1.407 . S
C1089 C375 1.454 . S
C1103 C108 1.420 . S
C1109 C410 1.417 . S
C1123 C82 1.504 . S
C1129 C355 1.534 . S
C1143 C204 1.359 . S
C1149 C253 1.317 . S
C1169 C273 1.627 . S
C1163 C217 1.715 . S
C1183 C230 1.512 . S
C1189 C282 1.479 . S
C1203 C87 1.682 . S
C1209 C262 1.623 . S
C1223 C100 1.588 . S
C1229 C293 1.529 . S
C1249 C242 1.310 . S
C1243 C113 1.325 . S
C1263 C48 1.361 . S
C1269 C313 1.322 . S
C1283 C61 1.714 . S
C1289 C333 1.625 . S
C1303 C74 1.511 . S
C1309 C342 1.481 . S
C1323 C165 1.681 . S
C1329 C322 1.622 . S
C1349 C353 1.523 . S
C1343 C178 1.587 . S
C1363 C191 1.330 . S
C1369 C302 1.298 . S
C1383 C126 1.361 . S
C1389 C373 1.309 . S
C1403 C139 1.719 . S
C1409 C393 1.636 . S
C1429 C402 1.496 . S
C1423 C152 1.516 . S
C1443 C9 1.686 . S
C1449 C382 1.638 . S
C1463 C22 1.585 . S
C1469 C413 1.522 . S
C1483 C35 1.334 . S
C1489 C362 1.321 . S
