# Generated by pormake.
# Topology ptr, (4,4)-cn, num edge types: 1
# Building blocks:
#     Node 0, Type 0, BuildingBlock: KUFVIS_clean_sbu_0, # of connection points: 4
#     Node 1, Type 0, BuildingBlock: KUFVIS_clean_sbu_0, # of connection points: 4
#     Node 2, Type 0, BuildingBlock: KUFVIS_clean_sbu_0, # of connection points: 4
#     Node 3, Type 0, BuildingBlock: KUFVIS_clean_sbu_0, # of connection points: 4
#     Node 4, Type 0, BuildingBlock: KUFVIS_clean_sbu_0, # of connection points: 4
#     Node 5, Type 0, BuildingBlock: KUFVIS_clean_sbu_0, # of connection points: 4
#     Node 6, Type 0, BuildingBlock: KUFVIS_clean_sbu_0, # of connection points: 4
#     Node 7, Type 0, BuildingBlock: KUFVIS_clean_sbu_0, # of connection points: 4
#     Node 8, Type 0, BuildingBlock: KUFVIS_clean_sbu_0, # of connection points: 4
#     Node 9, Type 0, BuildingBlock: KUFVIS_clean_sbu_0, # of connection points: 4
#     Node 10, Type 0, BuildingBlock: KUFVIS_clean_sbu_0, # of connection points: 4
#     Node 11, Type 0, BuildingBlock: KUFVIS_clean_sbu_0, # of connection points: 4
#     Node 12, Type 0, BuildingBlock: KUFVIS_clean_sbu_0, # of connection points: 4
#     Node 13, Type 0, BuildingBlock: KUFVIS_clean_sbu_0, # of connection points: 4
#     Node 14, Type 0, BuildingBlock: KUFVIS_clean_sbu_0, # of connection points: 4
#     Node 15, Type 0, BuildingBlock: KUFVIS_clean_sbu_0, # of connection points: 4
#     Node 16, Type 0, BuildingBlock: KUFVIS_clean_sbu_0, # of connection points: 4
#     Node 17, Type 0, BuildingBlock: KUFVIS_clean_sbu_0, # of connection points: 4
#     Node 18, Type 1, BuildingBlock: AZAVOO_clean_linker_0, # of connection points: 4
#     Node 19, Type 1, BuildingBlock: AZAVOO_clean_linker_0, # of connection points: 4
#     Node 20, Type 1, BuildingBlock: AZAVOO_clean_linker_0, # of connection points: 4
#     Node 21, Type 1, BuildingBlock: AZAVOO_clean_linker_0, # of connection points: 4
#     Node 22, Type 1, BuildingBlock: AZAVOO_clean_linker_0, # of connection points: 4
#     Node 23, Type 1, BuildingBlock: AZAVOO_clean_linker_0, # of connection points: 4
#     Node 24, Type 1, BuildingBlock: AZAVOO_clean_linker_0, # of connection points: 4
#     Node 25, Type 1, BuildingBlock: AZAVOO_clean_linker_0, # of connection points: 4
#     Node 26, Type 1, BuildingBlock: AZAVOO_clean_linker_0, # of connection points: 4
#     Node 27, Type 1, BuildingBlock: AZAVOO_clean_linker_0, # of connection points: 4
#     Node 28, Type 1, BuildingBlock: AZAVOO_clean_linker_0, # of connection points: 4
#     Node 29, Type 1, BuildingBlock: AZAVOO_clean_linker_0, # of connection points: 4
#     Node 30, Type 1, BuildingBlock: AZAVOO_clean_linker_0, # of connection points: 4
#     Node 31, Type 1, BuildingBlock: AZAVOO_clean_linker_0, # of connection points: 4
#     Node 32, Type 1, BuildingBlock: AZAVOO_clean_linker_0, # of connection points: 4
#     Node 33, Type 1, BuildingBlock: AZAVOO_clean_linker_0, # of connection points: 4
#     Node 34, Type 1, BuildingBlock: AZAVOO_clean_linker_0, # of connection points: 4
#     Node 35, Type 1, BuildingBlock: AZAVOO_clean_linker_0, # of connection points: 4
#     Edge 36, Type (0, 1), BuildingBlock: UVAHIK_clean_linker_0, # of connection points: 2
#     Edge 37, Type (0, 1), BuildingBlock: UVAHIK_clean_linker_0, # of connection points: 2
#     Edge 38, Type (0, 1), BuildingBlock: UVAHIK_clean_linker_0, # of connection points: 2
#     Edge 39, Type (0, 1), BuildingBlock: UVAHIK_clean_linker_0, # of connection points: 2
#     Edge 40, Type (0, 1), BuildingBlock: UVAHIK_clean_linker_0, # of connection points: 2
#     Edge 41, Type (0, 1), BuildingBlock: UVAHIK_clean_linker_0, # of connection points: 2
#     Edge 42, Type (0, 1), BuildingBlock: UVAHIK_clean_linker_0, # of connection points: 2
#     Edge 43, Type (0, 1), BuildingBlock: UVAHIK_clean_linker_0, # of connection points: 2
#     Edge 44, Type (0, 1), BuildingBlock: UVAHIK_clean_linker_0, # of connection points: 2
#     Edge 45, Type (0, 1), BuildingBlock: UVAHIK_clean_linker_0, # of connection points: 2
#     Edge 46, Type (0, 1), BuildingBlock: UVAHIK_clean_linker_0, # of connection points: 2
#     Edge 47, Type (0, 1), BuildingBlock: UVAHIK_clean_linker_0, # of connection points: 2
#     Edge 48, Type (0, 1), BuildingBlock: UVAHIK_clean_linker_0, # of connection points: 2
#     Edge 49, Type (0, 1), BuildingBlock: UVAHIK_clean_linker_0, # of connection points: 2
#     Edge 50, Type (0, 1), BuildingBlock: UVAHIK_clean_linker_0, # of connection points: 2
#     Edge 51, Type (0, 1), BuildingBlock: UVAHIK_clean_linker_0, # of connection points: 2
#     Edge 52, Type (0, 1), BuildingBlock: UVAHIK_clean_linker_0, # of connection points: 2
#     Edge 53, Type (0, 1), BuildingBlock: UVAHIK_clean_linker_0, # of connection points: 2
#     Edge 54, Type (0, 1), BuildingBlock: UVAHIK_clean_linker_0, # of connection points: 2
#     Edge 55, Type (0, 1), BuildingBlock: UVAHIK_clean_linker_0, # of connection points: 2
#     Edge 56, Type (0, 1), BuildingBlock: UVAHIK_clean_linker_0, # of connection points: 2
#     Edge 57, Type (0, 1), BuildingBlock: UVAHIK_clean_linker_0, # of connection points: 2
#     Edge 58, Type (0, 1), BuildingBlock: UVAHIK_clean_linker_0, # of connection points: 2
#     Edge 59, Type (0, 1), BuildingBlock: UVAHIK_clean_linker_0, # of connection points: 2
#     Edge 60, Type (0, 1), BuildingBlock: UVAHIK_clean_linker_0, # of connection points: 2
#     Edge 61, Type (0, 1), BuildingBlock: UVAHIK_clean_linker_0, # of connection points: 2
#     Edge 62, Type (0, 1), BuildingBlock: UVAHIK_clean_linker_0, # of connection points: 2
#     Edge 63, Type (0, 1), BuildingBlock: UVAHIK_clean_linker_0, # of connection points: 2
#     Edge 64, Type (0, 1), BuildingBlock: UVAHIK_clean_linker_0, # of connection points: 2
#     Edge 65, Type (0, 1), BuildingBlock: UVAHIK_clean_linker_0, # of connection points: 2
#     Edge 66, Type (0, 1), BuildingBlock: UVAHIK_clean_linker_0, # of connection points: 2
#     Edge 67, Type (0, 1), BuildingBlock: UVAHIK_clean_linker_0, # of connection points: 2
#     Edge 68, Type (0, 1), BuildingBlock: UVAHIK_clean_linker_0, # of connection points: 2
#     Edge 69, Type (0, 1), BuildingBlock: UVAHIK_clean_linker_0, # of connection points: 2
#     Edge 70, Type (0, 1), BuildingBlock: UVAHIK_clean_linker_0, # of connection points: 2
#     Edge 71, Type (0, 1), BuildingBlock: UVAHIK_clean_linker_0, # of connection points: 2
#     Edge 72, Type (0, 1), BuildingBlock: UVAHIK_clean_linker_0, # of connection points: 2
#     Edge 73, Type (0, 1), BuildingBlock: UVAHIK_clean_linker_0, # of connection points: 2
#     Edge 74, Type (0, 1), BuildingBlock: UVAHIK_clean_linker_0, # of connection points: 2
#     Edge 75, Type (0, 1), BuildingBlock: UVAHIK_clean_linker_0, # of connection points: 2
#     Edge 76, Type (0, 1), BuildingBlock: UVAHIK_clean_linker_0, # of connection points: 2
#     Edge 77, Type (0, 1), BuildingBlock: UVAHIK_clean_linker_0, # of connection points: 2
#     Edge 78, Type (0, 1), BuildingBlock: UVAHIK_clean_linker_0, # of connection points: 2
#     Edge 79, Type (0, 1), BuildingBlock: UVAHIK_clean_linker_0, # of connection points: 2
#     Edge 80, Type (0, 1), BuildingBlock: UVAHIK_clean_linker_0, # of connection points: 2
#     Edge 81, Type (0, 1), BuildingBlock: UVAHIK_clean_linker_0, # of connection points: 2
#     Edge 82, Type (0, 1), BuildingBlock: UVAHIK_clean_linker_0, # of connection points: 2
#     Edge 83, Type (0, 1), BuildingBlock: UVAHIK_clean_linker_0, # of connection points: 2
#     Edge 84, Type (0, 1), BuildingBlock: UVAHIK_clean_linker_0, # of connection points: 2
#     Edge 85, Type (0, 1), BuildingBlock: UVAHIK_clean_linker_0, # of connection points: 2
#     Edge 86, Type (0, 1), BuildingBlock: UVAHIK_clean_linker_0, # of connection points: 2
#     Edge 87, Type (0, 1), BuildingBlock: UVAHIK_clean_linker_0, # of connection points: 2
#     Edge 88, Type (0, 1), BuildingBlock: UVAHIK_clean_linker_0, # of connection points: 2
#     Edge 89, Type (0, 1), BuildingBlock: UVAHIK_clean_linker_0, # of connection points: 2
#     Edge 90, Type (0, 1), BuildingBlock: UVAHIK_clean_linker_0, # of connection points: 2
#     Edge 91, Type (0, 1), BuildingBlock: UVAHIK_clean_linker_0, # of connection points: 2
#     Edge 92, Type (0, 1), BuildingBlock: UVAHIK_clean_linker_0, # of connection points: 2
#     Edge 93, Type (0, 1), BuildingBlock: UVAHIK_clean_linker_0, # of connection points: 2
#     Edge 94, Type (0, 1), BuildingBlock: UVAHIK_clean_linker_0, # of connection points: 2
#     Edge 95, Type (0, 1), BuildingBlock: UVAHIK_clean_linker_0, # of connection points: 2
#     Edge 96, Type (0, 1), BuildingBlock: UVAHIK_clean_linker_0, # of connection points: 2
#     Edge 97, Type (0, 1), BuildingBlock: UVAHIK_clean_linker_0, # of connection points: 2
#     Edge 98, Type (0, 1), BuildingBlock: UVAHIK_clean_linker_0, # of connection points: 2
#     Edge 99, Type (0, 1), BuildingBlock: UVAHIK_clean_linker_0, # of connection points: 2
#     Edge 100, Type (0, 1), BuildingBlock: UVAHIK_clean_linker_0, # of connection points: 2
#     Edge 101, Type (0, 1), BuildingBlock: UVAHIK_clean_linker_0, # of connection points: 2
#     Edge 102, Type (0, 1), BuildingBlock: UVAHIK_clean_linker_0, # of connection points: 2
#     Edge 103, Type (0, 1), BuildingBlock: UVAHIK_clean_linker_0, # of connection points: 2
#     Edge 104, Type (0, 1), BuildingBlock: UVAHIK_clean_linker_0, # of connection points: 2
#     Edge 105, Type (0, 1), BuildingBlock: UVAHIK_clean_linker_0, # of connection points: 2
#     Edge 106, Type (0, 1), BuildingBlock: UVAHIK_clean_linker_0, # of connection points: 2
#     Edge 107, Type (0, 1), BuildingBlock: UVAHIK_clean_linker_0, # of connection points: 2
# Relax obj value: 0.054
# Max RMSD: 0.197
# Mean RMSD: 0.131
data_MOF--net-ptr--node1-KUFVIS_clean_sbu_0--node2-AZAVOO_clean_linker_0--edge1-UVAHIK_clean_linker_0
_symmetry_space_group_name_H-M    P1
_symmetry_Int_Tables_number       1
_symmetry_cell_setting            triclinic
loop_
_symmetry_equiv_pos_as_xyz
'x, y, z'
_cell_length_a     101.17046
_cell_length_b     99.273287
_cell_length_c     85.948734
_cell_angle_alpha  92.106795
_cell_angle_beta   92.751432
_cell_angle_gamma 119.59135
loop_
_atom_site_label
_atom_site_type_symbol
_atom_site_fract_x
_atom_site_fract_y
_atom_site_fract_z
_atom_type_partial_charge
Mn0 Mn 0.00439 0.35957 0.0162 0.0
Mn1 Mn 0.03874 0.39225 0.01942 0.0
C2 C 0.00906 0.37875 0.99953 0.0
C3 C 0.98919 0.33385 0.00668 0.0
C4 C 0.0139 0.38583 0.04129 0.0
O5 O 0.01753 0.35396 0.02997 0.0
O6 O 0.04056 0.37523 0.0291 0.0
C7 C 0.05508 0.382 0.99867 0.0
N8 N 0.05029 0.39224 0.00248 0.0
C9 C 0.06242 0.40761 0.98108 0.0
C10 C 0.06758 0.39728 0.97699 0.0
C11 C 0.06385 0.3844 0.9858 0.0
C12 C 0.05374 0.40463 0.99404 0.0
H13 H 0.05222 0.37206 0.0054 0.0
C14 C 0.0319 0.36145 0.03318 0.0
O15 O 0.98605 0.33927 0.01909 0.0
O16 O 0.00124 0.34334 -6e-05 0.0
N17 N 0.03889 0.40971 0.01051 0.0
C18 C 0.03248 0.41818 0.01559 0.0
C19 C 0.03477 0.43125 0.00776 0.0
C20 C 0.04377 0.43559 0.99494 0.0
C21 C 0.05047 0.42685 0.99011 0.0
C22 C 0.04782 0.41397 0.99838 0.0
H23 H 0.02558 0.41494 0.02546 0.0
O24 O 0.99519 0.36814 0.00147 0.0
O25 O 0.01989 0.37748 0.00695 0.0
O26 O 0.00363 0.3731 0.03427 0.0
O27 O 0.02751 0.39347 0.03714 0.0
C28 C 0.05946 0.43027 0.97723 0.0
C29 C 0.06537 0.42062 0.97268 0.0
H30 H 0.07431 0.39907 0.96705 0.0
H31 H 0.06773 0.37633 0.98268 0.0
H32 H 0.02958 0.43795 0.01158 0.0
H33 H 0.04541 0.44561 0.98886 0.0
H34 H 0.06174 0.44019 0.97064 0.0
H35 H 0.07208 0.42324 0.96263 0.0
Mn36 Mn 0.63176 0.63055 0.05949 0.0
Mn37 Mn 0.63153 0.59675 0.05304 0.0
C38 C 0.61747 0.61014 0.07433 0.0
C39 C 0.6437 0.65563 0.07129 0.0
C40 C 0.6143 0.60762 0.03175 0.0
O41 O 0.64962 0.63607 0.04626 0.0
O42 O 0.65067 0.6139 0.04582 0.0
C43 C 0.65727 0.60214 0.07515 0.0
N44 N 0.64229 0.59346 0.06999 0.0
C45 C 0.63781 0.57514 0.08944 0.0
C46 C 0.65323 0.58382 0.0949 0.0
C47 C 0.66298 0.5974 0.08773 0.0
C48 C 0.63279 0.58039 0.0768 0.0
H49 H 0.66479 0.61261 0.06971 0.0
C50 C 0.65603 0.62816 0.04284 0.0
O51 O 0.63477 0.65187 0.0586 0.0
O52 O 0.6457 0.64482 0.07706 0.0
N53 N 0.61372 0.57922 0.0596 0.0
C54 C 0.599 0.57268 0.05353 0.0
C55 C 0.58768 0.55928 0.05974 0.0
C56 C 0.59162 0.55268 0.07204 0.0
C57 C 0.60686 0.55951 0.07797 0.0
C58 C 0.61767 0.5728 0.07124 0.0
H59 H 0.59589 0.57769 0.04408 0.0
O60 O 0.61471 0.62156 0.07348 0.0
O61 O 0.62879 0.61126 0.06682 0.0
O62 O 0.61688 0.61952 0.04035 0.0
O63 O 0.61987 0.59888 0.03502 0.0
C64 C 0.61171 0.55386 0.09052 0.0
C65 C 0.62717 0.56168 0.09626 0.0
H66 H 0.65766 0.58026 0.10466 0.0
H67 H 0.67487 0.6042 0.09193 0.0
H68 H 0.57593 0.55409 0.05511 0.0
H69 H 0.58283 0.54245 0.07691 0.0
H70 H 0.6036 0.54365 0.096 0.0
H71 H 0.63072 0.55735 0.10607 0.0
Mn72 Mn 0.36972 0.99401 0.02074 0.0
Mn73 Mn 0.40253 0.02795 0.02031 0.0
C74 C 0.39079 0.99819 0.03634 0.0
C75 C 0.34585 0.98043 0.03069 0.0
C76 C 0.39065 0.00231 0.99423 0.0
O77 O 0.36338 0.0082 0.01027 0.0
O78 O 0.38522 0.03117 0.01371 0.0
C79 C 0.39857 0.04625 0.04576 0.0
N80 N 0.40677 0.04017 0.0395 0.0
C81 C 0.42594 0.05151 0.061 0.0
C82 C 0.41776 0.05797 0.06763 0.0
C83 C 0.404 0.0553 0.05999 0.0
C84 C 0.42002 0.04267 0.04675 0.0
H85 H 0.38797 0.04418 0.03993 0.0
C86 C 0.37096 0.02289 0.00948 0.0
O87 O 0.34843 0.97608 0.01727 0.0
O88 O 0.35712 0.99248 0.03826 0.0
N89 N 0.4201 0.02638 0.02661 0.0
C90 C 0.42601 0.01839 0.01924 0.0
C91 C 0.43946 0.0193 0.02571 0.0
C92 C 0.44673 0.02847 0.03962 0.0
C93 C 0.44049 0.03667 0.04693 0.0
C94 C 0.4271 0.03539 0.0399 0.0
H95 H 0.42048 0.01131 0.00856 0.0
O96 O 0.37959 0.98417 0.03298 0.0
O97 O 0.38912 0.00927 0.0307 0.0
O98 O 0.3794 0.99198 0.00093 0.0
O99 O 0.39936 0.01614 0.00017 0.0
C100 C 0.44685 0.04581 0.06109 0.0
C101 C 0.43957 0.0532 0.06813 0.0
H102 H 0.42185 0.06488 0.07865 0.0
H103 H 0.39757 0.06018 0.06507 0.0
H104 H 0.4442 0.0129 0.02002 0.0
H105 H 0.45704 0.02903 0.04464 0.0
H106 H 0.4572 0.04702 0.06679 0.0
H107 H 0.44442 0.05997 0.07916 0.0
Mn108 Mn 0.995 0.64424 0.03741 0.0
Mn109 Mn 0.02765 0.64319 0.04408 0.0
C110 C 0.99969 0.62781 0.02201 0.0
C111 C 0.98165 0.6551 0.0255 0.0
C112 C 0.00017 0.62559 0.0624 0.0
O113 O 0.00798 0.66391 0.05118 0.0
O114 O 0.02844 0.6611 0.05625 0.0
C115 C 0.04705 0.67196 0.02859 0.0
N116 N 0.04165 0.65652 0.02997 0.0
C117 C 0.05649 0.65545 0.00939 0.0
C118 C 0.06228 0.67136 0.00782 0.0
C119 C 0.0575 0.67964 0.01743 0.0
C120 C 0.04605 0.64841 0.02065 0.0
H121 H 0.04341 0.67839 0.03592 0.0
C122 C 0.02101 0.66832 0.05807 0.0
O123 O 0.97715 0.64764 0.03804 0.0
O124 O 0.99394 0.6564 0.02011 0.0
N125 N 0.0292 0.62684 0.03329 0.0
C126 C 0.02292 0.61167 0.03656 0.0
C127 C 0.02656 0.60178 0.028 0.0
C128 C 0.03694 0.60768 0.01643 0.0
C129 C 0.04373 0.62346 0.01367 0.0
C130 C 0.03964 0.63276 0.02258 0.0
H131 H 0.01517 0.60714 0.0456 0.0
O132 O 0.98589 0.62527 0.02293 0.0
O133 O 0.01052 0.64019 0.02981 0.0
O134 O 0.99215 0.63102 0.05628 0.0
O135 O 0.0134 0.6289 0.05841 0.0
C136 C 0.05434 0.63034 0.00238 0.0
C137 C 0.06065 0.6463 0.00018 0.0
H138 H 0.07036 0.67733 0.99925 0.0
H139 H 0.06186 0.69191 0.01626 0.0
H140 H 0.02141 0.58964 0.03035 0.0
H141 H 0.03968 0.6 0.00979 0.0
H142 H 0.05769 0.62344 0.9953 0.0
H143 H 0.06873 0.65143 0.9914 0.0
Mn144 Mn 0.36607 0.37616 0.00799 0.0
Mn145 Mn 0.3978 0.37328 0.00619 0.0
C146 C 0.38605 0.38936 0.02679 0.0
C147 C 0.34144 0.36573 0.01607 0.0
C148 C 0.39014 0.3928 0.98506 0.0
O149 O 0.3595 0.35752 0.99257 0.0
O150 O 0.38037 0.35487 0.99462 0.0
C151 C 0.38918 0.34601 0.02475 0.0
N152 N 0.39894 0.36117 0.02242 0.0
C153 C 0.41519 0.36378 0.04505 0.0
C154 C 0.40537 0.34816 0.04764 0.0
C155 C 0.39229 0.33925 0.03746 0.0
C156 C 0.41154 0.36986 0.03215 0.0
H157 H 0.37908 0.33915 0.01699 0.0
C158 C 0.36659 0.35023 0.98944 0.0
O159 O 0.34575 0.37488 0.00467 0.0
O160 O 0.35136 0.36266 0.0226 0.0
N161 N 0.41549 0.39031 0.01703 0.0
C162 C 0.42343 0.40537 0.01329 0.0
C163 C 0.43666 0.41593 0.02254 0.0
C164 C 0.44164 0.41088 0.03545 0.0
C165 C 0.43338 0.39529 0.03896 0.0
C166 C 0.42036 0.38527 0.02924 0.0
H167 H 0.41967 0.40932 0.00338 0.0
O168 O 0.37581 0.3935 0.0247 0.0
O169 O 0.38407 0.37747 0.01804 0.0
O170 O 0.37825 0.39092 0.99146 0.0
O171 O 0.39774 0.38624 0.98932 0.0
C172 C 0.4374 0.38937 0.05188 0.0
C173 C 0.42831 0.37363 0.05493 0.0
H174 H 0.40768 0.34292 0.05748 0.0
H175 H 0.38461 0.32721 0.03943 0.0
H176 H 0.44297 0.42794 0.01975 0.0
H177 H 0.45176 0.41909 0.04265 0.0
H178 H 0.44736 0.39686 0.05965 0.0
H179 H 0.4314 0.36926 0.06502 0.0
Mn180 Mn 0.63225 0.01169 0.04063 0.0
Mn181 Mn 0.6001 0.97694 0.03796 0.0
C182 C 0.6114 0.00792 0.02491 0.0
C183 C 0.65609 0.02706 0.0313 0.0
C184 C 0.61014 0.00024 0.06612 0.0
O185 O 0.63902 0.99725 0.04962 0.0
O186 O 0.61764 0.97409 0.04451 0.0
C187 C 0.60638 0.96172 0.01134 0.0
N188 N 0.59737 0.96667 0.01785 0.0
C189 C 0.57986 0.95742 0.99491 0.0
C190 C 0.58889 0.95213 0.98801 0.0
C191 C 0.60221 0.95431 0.99625 0.0
C192 C 0.58452 0.96462 0.01003 0.0
H193 H 0.61668 0.96347 0.0176 0.0
C194 C 0.63175 0.98245 0.04932 0.0
O195 O 0.65327 0.03001 0.04525 0.0
O196 O 0.64521 0.01524 0.0231 0.0
N197 N 0.58237 0.97818 0.03151 0.0
C198 C 0.57541 0.98477 0.03947 0.0
C199 C 0.56215 0.98402 0.03264 0.0
C200 C 0.55617 0.97649 0.01774 0.0
C201 C 0.56346 0.96971 0.00983 0.0
C202 C 0.57654 0.97067 0.01729 0.0
H203 H 0.57999 0.99062 0.05089 0.0
O204 O 0.62204 0.0219 0.02953 0.0
O205 O 0.61346 0.99677 0.02956 0.0
O206 O 0.62172 0.01136 0.06056 0.0
O207 O 0.60184 0.9869 0.05886 0.0
C208 C 0.55843 0.9623 0.99471 0.0
C209 C 0.56663 0.95617 0.98725 0.0
H210 H 0.58579 0.94651 0.97632 0.0
H211 H 0.60929 0.95033 0.99096 0.0
H212 H 0.55661 0.98932 0.03881 0.0
H213 H 0.54604 0.9761 0.01244 0.0
H214 H 0.5484 0.96146 0.98862 0.0
H215 H 0.56278 0.9507 0.97554 0.0
Mn216 Mn 0.66828 0.69823 0.35031 0.0
Mn217 Mn 0.7014 0.73218 0.3565 0.0
C218 C 0.67386 0.71772 0.33364 0.0
C219 C 0.65431 0.67264 0.34 0.0
C220 C 0.67403 0.72371 0.37523 0.0
O221 O 0.68084 0.69295 0.36541 0.0
O222 O 0.70298 0.71561 0.36734 0.0
C223 C 0.7211 0.72359 0.33925 0.0
N224 N 0.71524 0.73318 0.34162 0.0
C225 C 0.72989 0.7496 0.32188 0.0
C226 C 0.73616 0.73995 0.31929 0.0
C227 C 0.73169 0.72685 0.32797 0.0
C228 C 0.71935 0.74573 0.33324 0.0
H229 H 0.71772 0.71353 0.34592 0.0
C230 C 0.69477 0.7014 0.37045 0.0
O231 O 0.65007 0.67758 0.3519 0.0
O232 O 0.66685 0.68254 0.33421 0.0
N233 N 0.70173 0.74929 0.34662 0.0
C234 C 0.69411 0.75702 0.35005 0.0
C235 C 0.69696 0.77018 0.34208 0.0
C236 C 0.70777 0.7754 0.33086 0.0
C237 C 0.71564 0.76741 0.32771 0.0
C238 C 0.7123 0.75435 0.33599 0.0
H239 H 0.68587 0.75312 0.35874 0.0
O240 O 0.6599 0.70676 0.33449 0.0
O241 O 0.68425 0.71681 0.34234 0.0
O242 O 0.66523 0.71063 0.36786 0.0
O243 O 0.68785 0.73249 0.37217 0.0
C244 C 0.72655 0.77179 0.31656 0.0
C245 C 0.73359 0.76283 0.31356 0.0
H246 H 0.74434 0.74244 0.31062 0.0
H247 H 0.73643 0.71932 0.326 0.0
H248 H 0.69085 0.77629 0.34459 0.0
H249 H 0.70989 0.78552 0.32468 0.0
H250 H 0.72949 0.78193 0.31009 0.0
H251 H 0.74178 0.76617 0.30478 0.0
Mn252 Mn 0.29614 0.96178 0.39461 0.0
Mn253 Mn 0.29208 0.92596 0.38994 0.0
C254 C 0.28114 0.94283 0.4107 0.0
C255 C 0.30956 0.98744 0.40496 0.0
C256 C 0.27585 0.93759 0.36842 0.0
O257 O 0.31346 0.96508 0.38127 0.0
O258 O 0.31086 0.94116 0.38048 0.0
C259 C 0.3188 0.93101 0.41028 0.0
N260 N 0.30349 0.92299 0.40646 0.0
C261 C 0.29956 0.90567 0.42682 0.0
C262 C 0.3153 0.91369 0.43092 0.0
C263 C 0.32495 0.92646 0.42265 0.0
C264 C 0.29409 0.91076 0.4144 0.0
H265 H 0.32624 0.94081 0.40392 0.0
C266 C 0.31777 0.95543 0.37723 0.0
O267 O 0.30057 0.9834 0.3923 0.0
O268 O 0.31092 0.97657 0.41153 0.0
N269 N 0.27443 0.91003 0.39854 0.0
C270 C 0.25946 0.90408 0.39365 0.0
C271 C 0.24825 0.89154 0.40105 0.0
C272 C 0.25257 0.88512 0.41323 0.0
C273 C 0.26806 0.89131 0.41791 0.0
C274 C 0.2787 0.90382 0.41013 0.0
H275 H 0.25609 0.90892 0.38423 0.0
O276 O 0.27942 0.95482 0.40899 0.0
O277 O 0.29179 0.9424 0.40314 0.0
O278 O 0.28062 0.95068 0.37589 0.0
O279 O 0.27971 0.92768 0.37245 0.0
C280 C 0.27334 0.88569 0.43014 0.0
C281 C 0.28907 0.89293 0.43466 0.0
H282 H 0.32009 0.91022 0.44046 0.0
H283 H 0.3371 0.93275 0.42578 0.0
H284 H 0.23632 0.88683 0.39736 0.0
H285 H 0.24389 0.8755 0.41896 0.0
H286 H 0.26538 0.87594 0.43628 0.0
H287 H 0.29297 0.88867 0.44426 0.0
Mn288 Mn 0.04011 0.3206 0.35376 0.0
Mn289 Mn 0.0752 0.3521 0.35356 0.0
C290 C 0.05908 0.32483 0.37258 0.0
C291 C 0.01523 0.30908 0.36143 0.0
C292 C 0.06398 0.32351 0.33143 0.0
O293 O 0.03632 0.33461 0.33993 0.0
O294 O 0.06008 0.35519 0.34072 0.0
C295 C 0.06916 0.37459 0.37091 0.0
N296 N 0.0774 0.3672 0.36947 0.0
C297 C 0.09324 0.381 0.39282 0.0
C298 C 0.08498 0.38883 0.39448 0.0
C299 C 0.07287 0.38558 0.38349 0.0
C300 C 0.08906 0.37022 0.37999 0.0
H301 H 0.0598 0.3721 0.36253 0.0
C302 C 0.04583 0.34821 0.33625 0.0
O303 O 0.0186 0.30345 0.34934 0.0
O304 O 0.02626 0.32139 0.36892 0.0
N305 N 0.09092 0.35092 0.36574 0.0
C306 C 0.09723 0.3418 0.36294 0.0
C307 C 0.10927 0.34333 0.37309 0.0
C308 C 0.11475 0.35427 0.38597 0.0
C309 C 0.10817 0.36363 0.38855 0.0
C310 C 0.0963 0.36168 0.37796 0.0
H311 H 0.09301 0.33332 0.35314 0.0
O312 O 0.04758 0.31096 0.36938 0.0
O313 O 0.05915 0.33574 0.36463 0.0
O314 O 0.05067 0.31587 0.33626 0.0
O315 O 0.07409 0.33701 0.33715 0.0
C316 C 0.11273 0.3746 0.4014 0.0
C317 C 0.10526 0.38327 0.40355 0.0
H318 H 0.08776 0.39726 0.40422 0.0
H319 H 0.0664 0.39152 0.38474 0.0
H320 H 0.11425 0.33602 0.37103 0.0
H321 H 0.12392 0.3553 0.39387 0.0
H322 H 0.12183 0.3763 0.40983 0.0
H323 H 0.10873 0.39152 0.41358 0.0
Mn324 Mn 0.66298 0.96725 0.37308 0.0
Mn325 Mn 0.69791 0.97162 0.38166 0.0
C326 C 0.67148 0.9538 0.35798 0.0
C327 C 0.64723 0.97516 0.36067 0.0
C328 C 0.67052 0.95152 0.39943 0.0
O329 O 0.67333 0.98691 0.38758 0.0
O330 O 0.69645 0.98902 0.39198 0.0
C331 C 0.71566 0.99973 0.36462 0.0
N332 N 0.71153 0.98475 0.36721 0.0
C333 C 0.72795 0.98418 0.34817 0.0
C334 C 0.73246 0.99963 0.34536 0.0
C335 C 0.72625 0.00742 0.35359 0.0
C336 C 0.71733 0.97711 0.35927 0.0
H337 H 0.71091 0.00574 0.37092 0.0
C338 C 0.68694 0.99382 0.39383 0.0
O339 O 0.64319 0.96701 0.37281 0.0
O340 O 0.66053 0.97895 0.35593 0.0
N341 N 0.70118 0.95572 0.37257 0.0
C342 C 0.69534 0.94073 0.37637 0.0
C343 C 0.70019 0.93124 0.36899 0.0
C344 C 0.71116 0.93733 0.35797 0.0
C345 C 0.71724 0.95289 0.3545 0.0
C346 C 0.71199 0.96179 0.36224 0.0
H347 H 0.68698 0.93601 0.3849 0.0
O348 O 0.65702 0.94909 0.35802 0.0
O349 O 0.68062 0.96645 0.36655 0.0
O350 O 0.66095 0.95389 0.39149 0.0
O351 O 0.68459 0.9577 0.3968 0.0
C352 C 0.72819 0.95987 0.34354 0.0
C353 C 0.73346 0.97547 0.3403 0.0
H354 H 0.74062 0.00561 0.33686 0.0
H355 H 0.72963 0.01933 0.35144 0.0
H356 H 0.69549 0.91926 0.37177 0.0
H357 H 0.7148 0.92995 0.35223 0.0
H358 H 0.73251 0.95329 0.33741 0.0
H359 H 0.74173 0.98064 0.33169 0.0
Mn360 Mn 0.0341 0.71528 0.34627 0.0
Mn361 Mn 0.06728 0.71504 0.34458 0.0
C362 C 0.05352 0.72862 0.36559 0.0
C363 C 0.00919 0.70349 0.35388 0.0
C364 C 0.05917 0.73514 0.32505 0.0
O365 O 0.02855 0.69727 0.33043 0.0
O366 O 0.05103 0.69766 0.33074 0.0
C367 C 0.05818 0.68569 0.35965 0.0
N368 N 0.06783 0.70122 0.35915 0.0
C369 C 0.08328 0.70156 0.3815 0.0
C370 C 0.07357 0.68554 0.3822 0.0
C371 C 0.06093 0.67759 0.37126 0.0
C372 C 0.07994 0.70901 0.3697 0.0
H373 H 0.04846 0.67954 0.35126 0.0
C374 C 0.03699 0.69193 0.32594 0.0
O375 O 0.01336 0.71297 0.34277 0.0
O376 O 0.01942 0.70085 0.3604 0.0
N377 N 0.08413 0.73112 0.35735 0.0
C378 C 0.09211 0.74663 0.35536 0.0
C379 C 0.10497 0.75631 0.36552 0.0
C380 C 0.1096 0.74993 0.37748 0.0
C381 C 0.10137 0.73389 0.37913 0.0
C382 C 0.08867 0.72482 0.36864 0.0
H383 H 0.08863 0.75159 0.34617 0.0
O384 O 0.04284 0.73214 0.36342 0.0
O385 O 0.0524 0.71725 0.35657 0.0
O386 O 0.0461 0.73093 0.33016 0.0
O387 O 0.06776 0.72978 0.32964 0.0
C388 C 0.10516 0.72658 0.39087 0.0
C389 C 0.09607 0.71045 0.39212 0.0
H390 H 0.07565 0.67926 0.39113 0.0
H391 H 0.05335 0.66524 0.37176 0.0
H392 H 0.11128 0.76867 0.36415 0.0
H393 H 0.11946 0.75744 0.38536 0.0
H394 H 0.11495 0.7333 0.39912 0.0
H395 H 0.09898 0.705 0.40134 0.0
Mn396 Mn 0.29539 0.34687 0.3746 0.0
Mn397 Mn 0.26394 0.312 0.37624 0.0
C398 C 0.27378 0.34038 0.35861 0.0
C399 C 0.31875 0.36142 0.36406 0.0
C400 C 0.27434 0.33864 0.40105 0.0
O401 O 0.30318 0.33431 0.38601 0.0
O402 O 0.28211 0.31063 0.38381 0.0
C403 C 0.26981 0.29375 0.35235 0.0
N404 N 0.26078 0.29923 0.35769 0.0
C405 C 0.24254 0.28675 0.33556 0.0
C406 C 0.25159 0.28088 0.32987 0.0
C407 C 0.26529 0.28441 0.3383 0.0
C408 C 0.24756 0.29588 0.34969 0.0
H409 H 0.2804 0.29652 0.35872 0.0
C410 C 0.29634 0.31973 0.38769 0.0
O411 O 0.31606 0.36587 0.37738 0.0
O412 O 0.30798 0.34861 0.3571 0.0
N413 N 0.24571 0.31189 0.36891 0.0
C414 C 0.23877 0.31923 0.37549 0.0
C415 C 0.22515 0.3173 0.36824 0.0
C416 C 0.2188 0.30784 0.35432 0.0
C417 C 0.2261 0.30034 0.34781 0.0
C418 C 0.23955 0.30255 0.35565 0.0
H419 H 0.24363 0.32657 0.38615 0.0
O420 O 0.28414 0.35485 0.3615 0.0
O421 O 0.27651 0.33035 0.36516 0.0
O422 O 0.28545 0.34887 0.39412 0.0
O423 O 0.2661 0.32451 0.39565 0.0
C424 C 0.22071 0.29101 0.33368 0.0
C425 C 0.22893 0.28422 0.32756 0.0
H426 H 0.24821 0.27379 0.31897 0.0
H427 H 0.27238 0.28 0.33394 0.0
H428 H 0.21961 0.32317 0.37331 0.0
H429 H 0.20839 0.30653 0.34867 0.0
H430 H 0.21038 0.28915 0.32732 0.0
H431 H 0.22479 0.27725 0.31658 0.0
Mn432 Mn 0.33578 0.03386 0.68301 0.0
Mn433 Mn 0.36754 0.06905 0.68917 0.0
C434 C 0.34093 0.05237 0.66533 0.0
C435 C 0.32312 0.00789 0.67384 0.0
C436 C 0.339 0.05994 0.7059 0.0
O437 O 0.34851 0.03007 0.69929 0.0
O438 O 0.36937 0.05381 0.70225 0.0
C439 C 0.38911 0.06081 0.67542 0.0
N440 N 0.38253 0.06991 0.67591 0.0
C441 C 0.39783 0.08535 0.65597 0.0
C442 C 0.40484 0.0762 0.65531 0.0
C443 C 0.40041 0.06384 0.66503 0.0
C444 C 0.3866 0.08174 0.6665 0.0
H445 H 0.38576 0.05132 0.6829 0.0
C446 C 0.36179 0.03957 0.70548 0.0
O447 O 0.31821 0.01295 0.68504 0.0
O448 O 0.3356 0.01793 0.66805 0.0
N449 N 0.3677 0.08509 0.67736 0.0
C450 C 0.35946 0.09246 0.67905 0.0
C451 C 0.36225 0.1049 0.66989 0.0
C452 C 0.37365 0.10981 0.65931 0.0
C453 C 0.38218 0.10224 0.658 0.0
C454 C 0.37886 0.08989 0.66739 0.0
H455 H 0.35076 0.08882 0.68725 0.0
O456 O 0.32715 0.04095 0.66603 0.0
O457 O 0.35145 0.05252 0.67481 0.0
O458 O 0.33132 0.04627 0.69933 0.0
O459 O 0.35271 0.06944 0.70304 0.0
C460 C 0.39373 0.10635 0.64761 0.0
C461 C 0.40148 0.09785 0.64651 0.0
H462 H 0.41357 0.07851 0.64732 0.0
H463 H 0.40572 0.05669 0.66455 0.0
H464 H 0.35564 0.11071 0.671 0.0
H465 H 0.37571 0.11936 0.65221 0.0
H466 H 0.39665 0.11594 0.6403 0.0
H467 H 0.41018 0.10098 0.63832 0.0
Mn468 Mn 0.96254 0.29035 0.72082 0.0
Mn469 Mn 0.96331 0.25691 0.71509 0.0
C470 C 0.9483 0.26971 0.73546 0.0
C471 C 0.97227 0.31528 0.73244 0.0
C472 C 0.94502 0.2661 0.69353 0.0
O473 O 0.98132 0.29692 0.70884 0.0
O474 O 0.98117 0.27419 0.70605 0.0
C475 C 0.99102 0.26537 0.73561 0.0
N476 N 0.97591 0.25564 0.73159 0.0
C477 C 0.97423 0.23896 0.75194 0.0
C478 C 0.98979 0.24875 0.75623 0.0
C479 C 0.99821 0.26203 0.74805 0.0
C480 C 0.96769 0.24286 0.73941 0.0
H481 H 0.99752 0.2756 0.72937 0.0
C482 C 0.98702 0.28873 0.70405 0.0
O483 O 0.96414 0.31096 0.71918 0.0
O484 O 0.97502 0.30517 0.73884 0.0
N485 N 0.94689 0.2392 0.72326 0.0
C486 C 0.93185 0.23137 0.71813 0.0
C487 C 0.92175 0.21803 0.72538 0.0
C488 C 0.92725 0.21277 0.73769 0.0
C489 C 0.94282 0.22088 0.74261 0.0
C490 C 0.95235 0.23408 0.73491 0.0
H491 H 0.92756 0.23535 0.70866 0.0
O492 O 0.94481 0.28054 0.73377 0.0
O493 O 0.96021 0.27135 0.72868 0.0
O494 O 0.94881 0.27895 0.70104 0.0
O495 O 0.9498 0.25694 0.69772 0.0
C496 C 0.94922 0.21655 0.75503 0.0
C497 C 0.9649 0.22561 0.75973 0.0
H498 H 0.99537 0.24625 0.76585 0.0
H499 H 0.01021 0.26968 0.75134 0.0
H500 H 0.90976 0.21183 0.72152 0.0
H501 H 0.91941 0.20254 0.74335 0.0
H502 H 0.94215 0.20637 0.76117 0.0
H503 H 0.96963 0.22228 0.76943 0.0
Mn504 Mn 0.70667 0.6599 0.68598 0.0
Mn505 Mn 0.73895 0.69427 0.68525 0.0
C506 C 0.72763 0.66554 0.70273 0.0
C507 C 0.68263 0.64589 0.69545 0.0
C508 C 0.7285 0.66767 0.66032 0.0
O509 O 0.69992 0.67309 0.67408 0.0
O510 O 0.72133 0.69646 0.6774 0.0
C511 C 0.73359 0.71307 0.70897 0.0
N512 N 0.74236 0.70725 0.70368 0.0
C513 C 0.76125 0.72047 0.72516 0.0
C514 C 0.75249 0.72673 0.73077 0.0
C515 C 0.73857 0.72296 0.72267 0.0
C516 C 0.75573 0.71073 0.71143 0.0
H517 H 0.72286 0.71016 0.7028 0.0
C518 C 0.70719 0.68775 0.67291 0.0
O519 O 0.68579 0.64134 0.68247 0.0
O520 O 0.69341 0.65845 0.70282 0.0
N521 N 0.75677 0.69372 0.69282 0.0
C522 C 0.76325 0.68576 0.68655 0.0
C523 C 0.77689 0.68764 0.6937 0.0
C524 C 0.78378 0.69777 0.70712 0.0
C525 C 0.77695 0.7059 0.7133 0.0
C526 C 0.76337 0.70357 0.70567 0.0
H527 H 0.75804 0.67799 0.67622 0.0
O528 O 0.71692 0.65125 0.69961 0.0
O529 O 0.72561 0.67598 0.6961 0.0
O530 O 0.71702 0.65755 0.66691 0.0
O531 O 0.73677 0.68171 0.66592 0.0
C532 C 0.78295 0.71602 0.72688 0.0
C533 C 0.77509 0.72328 0.73283 0.0
H534 H 0.75625 0.7343 0.74137 0.0
H535 H 0.73169 0.72765 0.72698 0.0
H536 H 0.78207 0.6813 0.68888 0.0
H537 H 0.79426 0.69912 0.71266 0.0
H538 H 0.79347 0.71809 0.733 0.0
H539 H 0.77967 0.7308 0.74345 0.0
Mn540 Mn 0.33131 0.30504 0.70508 0.0
Mn541 Mn 0.36478 0.3058 0.71262 0.0
C542 C 0.33802 0.29073 0.68887 0.0
C543 C 0.31744 0.31567 0.69382 0.0
C544 C 0.33687 0.28705 0.73035 0.0
O545 O 0.34309 0.32396 0.72037 0.0
O546 O 0.36542 0.32411 0.72363 0.0
C547 C 0.38441 0.33365 0.69603 0.0
N548 N 0.37888 0.31831 0.69819 0.0
C549 C 0.39372 0.31607 0.67824 0.0
C550 C 0.39966 0.33187 0.67588 0.0
C551 C 0.39495 0.34068 0.68478 0.0
C552 C 0.38327 0.30971 0.68963 0.0
H553 H 0.38077 0.34044 0.70281 0.0
C554 C 0.35679 0.32988 0.72621 0.0
O555 O 0.31267 0.30698 0.70551 0.0
O556 O 0.33037 0.31835 0.68883 0.0
N557 N 0.36594 0.28885 0.70278 0.0
C558 C 0.35878 0.27366 0.70617 0.0
C559 C 0.36207 0.26322 0.69814 0.0
C560 C 0.37278 0.26852 0.68683 0.0
C561 C 0.38018 0.28425 0.68371 0.0
C562 C 0.37654 0.29414 0.69218 0.0
H563 H 0.35057 0.26953 0.71489 0.0
O564 O 0.32387 0.28726 0.6891 0.0
O565 O 0.34787 0.30266 0.69792 0.0
O566 O 0.32795 0.29049 0.72268 0.0
O567 O 0.35085 0.29239 0.72771 0.0
C568 C 0.39085 0.29045 0.67235 0.0
C569 C 0.39758 0.30634 0.66959 0.0
H570 H 0.40776 0.33733 0.66718 0.0
H571 H 0.39943 0.35286 0.68297 0.0
H572 H 0.35632 0.2511 0.70063 0.0
H573 H 0.37519 0.2604 0.68057 0.0
H574 H 0.39381 0.28306 0.66555 0.0
H575 H 0.40562 0.31093 0.6607 0.0
Mn576 Mn 0.70338 0.04437 0.67242 0.0
Mn577 Mn 0.73437 0.04034 0.66892 0.0
C578 C 0.72467 0.05814 0.6896 0.0
C579 C 0.67991 0.03625 0.68288 0.0
C580 C 0.72695 0.06025 0.64836 0.0
O581 O 0.69492 0.0245 0.65849 0.0
O582 O 0.71631 0.02295 0.65685 0.0
C583 C 0.72405 0.01198 0.68617 0.0
N584 N 0.73458 0.02704 0.68434 0.0
C585 C 0.75046 0.02759 0.70639 0.0
C586 C 0.73983 0.01205 0.70845 0.0
C587 C 0.72656 0.00423 0.69831 0.0
C588 C 0.74736 0.03469 0.69406 0.0
H589 H 0.7138 0.00594 0.67844 0.0
C590 C 0.70207 0.01784 0.65351 0.0
O591 O 0.68334 0.04396 0.6704 0.0
O592 O 0.68988 0.03297 0.68887 0.0
N593 N 0.75271 0.05619 0.68002 0.0
C594 C 0.76153 0.07132 0.67683 0.0
C595 C 0.77512 0.08085 0.68608 0.0
C596 C 0.77955 0.0747 0.69843 0.0
C597 C 0.7704 0.05905 0.70137 0.0
C598 C 0.75704 0.05009 0.69168 0.0
H599 H 0.75814 0.07612 0.66741 0.0
O600 O 0.71486 0.06285 0.68757 0.0
O601 O 0.72168 0.04546 0.6816 0.0
O602 O 0.71449 0.05739 0.6542 0.0
O603 O 0.73515 0.05448 0.65308 0.0
C604 C 0.77388 0.05206 0.71368 0.0
C605 C 0.76389 0.03636 0.71623 0.0
H606 H 0.7417 0.00604 0.71783 0.0
H607 H 0.71827 0.99226 0.69987 0.0
H608 H 0.78211 0.09292 0.68374 0.0
H609 H 0.78996 0.08213 0.70564 0.0
H610 H 0.78411 0.05872 0.72138 0.0
H611 H 0.76659 0.03117 0.72586 0.0
Mn612 Mn 0.95821 0.68123 0.70631 0.0
Mn613 Mn 0.92422 0.6486 0.70638 0.0
C614 C 0.93838 0.67727 0.6888 0.0
C615 C 0.98267 0.69322 0.69773 0.0
C616 C 0.93612 0.67542 0.73123 0.0
O617 O 0.96284 0.66686 0.71885 0.0
O618 O 0.94041 0.64451 0.71489 0.0
C619 C 0.9282 0.62843 0.68308 0.0
N620 N 0.92036 0.63551 0.68789 0.0
C621 C 0.90253 0.62457 0.66526 0.0
C622 C 0.91036 0.61708 0.66011 0.0
C623 C 0.92326 0.61904 0.66905 0.0
C624 C 0.90794 0.63371 0.67938 0.0
H625 H 0.93816 0.62996 0.68988 0.0
C626 C 0.95451 0.65225 0.71992 0.0
O627 O 0.9797 0.69856 0.71033 0.0
O628 O 0.97148 0.68108 0.6902 0.0
N629 N 0.9077 0.65111 0.69812 0.0
C630 C 0.90199 0.65985 0.70425 0.0
C631 C 0.88931 0.65956 0.69646 0.0
C632 C 0.88261 0.65025 0.68251 0.0
C633 C 0.88863 0.64127 0.67648 0.0
C634 C 0.9012 0.64193 0.68482 0.0
H635 H 0.90708 0.66703 0.71496 0.0
O636 O 0.94987 0.69116 0.69195 0.0
O637 O 0.93907 0.66629 0.69585 0.0
O638 O 0.94796 0.68491 0.72468 0.0
O639 O 0.92705 0.66148 0.72572 0.0
C640 C 0.88283 0.63193 0.66238 0.0
C641 C 0.88979 0.6236 0.65676 0.0
H642 H 0.90664 0.60991 0.64924 0.0
H643 H 0.92941 0.61337 0.66511 0.0
H644 H 0.88474 0.66654 0.70118 0.0
H645 H 0.87293 0.65017 0.67646 0.0
H646 H 0.87315 0.63123 0.65566 0.0
H647 H 0.88537 0.61664 0.64579 0.0
H648 H 0.15298 0.32303 0.05027 0.0
H649 H 0.25069 0.29902 0.17444 0.0
H650 H 0.15092 0.32866 0.1406 0.0
H651 H 0.12976 0.331 0.12879 0.0
H652 H 0.10308 0.28108 0.12105 0.0
H653 H 0.12437 0.27883 0.13327 0.0
H654 H 0.1731 0.33016 0.11652 0.0
H655 H 0.16727 0.33191 0.08893 0.0
H656 H 0.13954 0.28187 0.08334 0.0
H657 H 0.14555 0.28032 0.11094 0.0
H658 H 0.2011 0.33331 0.13273 0.0
H659 H 0.2201 0.33959 0.11354 0.0
H660 H 0.19836 0.29112 0.09748 0.0
H661 H 0.17928 0.28495 0.11673 0.0
H662 H 0.20489 0.3295 0.16924 0.0
H663 H 0.22935 0.3319 0.17817 0.0
H664 H 0.21414 0.2856 0.15784 0.0
H665 H 0.18968 0.28332 0.14913 0.0
H666 H 0.17688 0.32722 0.18514 0.0
H667 H 0.18653 0.33082 0.2125 0.0
H668 H 0.18333 0.28576 0.20879 0.0
H669 H 0.17345 0.28216 0.18138 0.0
H670 H 0.1477 0.32299 0.16933 0.0
H671 H 0.13115 0.32059 0.19015 0.0
H672 H 0.12403 0.27475 0.1975 0.0
H673 H 0.14014 0.27697 0.17619 0.0
O674 O 0.15519 0.32208 0.06113 0.0
O675 O 0.14105 0.29632 0.05888 0.0
O676 O 0.24839 0.32212 0.18134 0.0
O677 O 0.24113 0.29839 0.17104 0.0
C678 C 0.15267 0.30267 0.14335 0.0
C679 C 0.16319 0.30412 0.13239 0.0
C680 C 0.17718 0.30523 0.1374 0.0
C681 C 0.18062 0.30468 0.15338 0.0
C682 C 0.17007 0.30315 0.16438 0.0
C683 C 0.15599 0.30195 0.15935 0.0
C684 C 0.13903 0.30358 0.13804 0.0
C685 C 0.14035 0.31821 0.13676 0.0
C686 C 0.12828 0.31952 0.13001 0.0
C687 C 0.11477 0.30621 0.12411 0.0
C688 C 0.11338 0.2915 0.12556 0.0
C689 C 0.12543 0.2902 0.13259 0.0
C690 C 0.15977 0.30512 0.11564 0.0
C691 C 0.16582 0.31961 0.10928 0.0
C692 C 0.16245 0.32056 0.09354 0.0
C693 C 0.15294 0.30703 0.08393 0.0
C694 C 0.1469 0.29251 0.09041 0.0
C695 C 0.15031 0.29159 0.10615 0.0
C696 C 0.1889 0.30869 0.12611 0.0
C697 C 0.20049 0.32406 0.12509 0.0
C698 C 0.21124 0.32763 0.11407 0.0
C699 C 0.21065 0.31585 0.10398 0.0
C700 C 0.19911 0.3004 0.10517 0.0
C701 C 0.18823 0.29687 0.1161 0.0
C702 C 0.19552 0.30621 0.15863 0.0
C703 C 0.20686 0.31988 0.16679 0.0
C704 C 0.22082 0.32122 0.17184 0.0
C705 C 0.22369 0.30892 0.16873 0.0
C706 C 0.2123 0.29528 0.16044 0.0
C707 C 0.19834 0.29395 0.15543 0.0
C708 C 0.1745 0.30444 0.18131 0.0
C709 C 0.17802 0.31802 0.19031 0.0
C710 C 0.18361 0.3201 0.20588 0.0
C711 C 0.18576 0.30861 0.21273 0.0
C712 C 0.18167 0.29475 0.20384 0.0
C713 C 0.17612 0.2927 0.18821 0.0
C714 C 0.14488 0.30003 0.17099 0.0
C715 C 0.14215 0.31221 0.17503 0.0
C716 C 0.13278 0.31087 0.187 0.0
C717 C 0.12628 0.29746 0.19537 0.0
C718 C 0.12891 0.28521 0.19122 0.0
C719 C 0.13805 0.28644 0.17905 0.0
C720 C 0.14933 0.30808 0.06723 0.0
C721 C 0.23849 0.31027 0.17411 0.0
H722 H 0.68793 0.83822 0.0666 0.0
H723 H 0.73089 0.96321 0.19718 0.0
H724 H 0.68153 0.8288 0.15133 0.0
H725 H 0.67584 0.80296 0.1414 0.0
H726 H 0.72285 0.81552 0.15233 0.0
H727 H 0.72846 0.84153 0.16217 0.0
H728 H 0.68366 0.85303 0.132 0.0
H729 H 0.68102 0.84584 0.10402 0.0
H730 H 0.72787 0.85594 0.10644 0.0
H731 H 0.73038 0.86324 0.1344 0.0
H732 H 0.6834 0.87684 0.15288 0.0
H733 H 0.67661 0.89087 0.13432 0.0
H734 H 0.72206 0.91217 0.11851 0.0
H735 H 0.72878 0.89783 0.13721 0.0
H736 H 0.69051 0.88587 0.18746 0.0
H737 H 0.69263 0.91048 0.19688 0.0
H738 H 0.73795 0.93524 0.18079 0.0
H739 H 0.73574 0.91052 0.1716 0.0
H740 H 0.68823 0.85808 0.20292 0.0
H741 H 0.68708 0.86698 0.22938 0.0
H742 H 0.73453 0.90236 0.23018 0.0
H743 H 0.73556 0.89328 0.20357 0.0
H744 H 0.68357 0.83127 0.18514 0.0
H745 H 0.67967 0.8127 0.20482 0.0
H746 H 0.72795 0.83759 0.21852 0.0
H747 H 0.73176 0.85621 0.19873 0.0
O748 O 0.68924 0.84117 0.07765 0.0
O749 O 0.71336 0.84648 0.07952 0.0
O750 O 0.70642 0.94003 0.20168 0.0
O751 O 0.72974 0.95332 0.19355 0.0
C752 C 0.70866 0.85269 0.163 0.0
C753 C 0.70886 0.8631 0.15213 0.0
C754 C 0.71001 0.87727 0.15743 0.0
C755 C 0.71187 0.88148 0.17357 0.0
C756 C 0.71182 0.87114 0.18448 0.0
C757 C 0.70994 0.85662 0.17917 0.0
C758 C 0.7054 0.83699 0.15738 0.0
C759 C 0.69059 0.82595 0.15159 0.0
C760 C 0.68735 0.81119 0.14604 0.0
C761 C 0.6989 0.80722 0.14614 0.0
C762 C 0.71376 0.81831 0.15202 0.0
C763 C 0.71697 0.8331 0.15769 0.0
C764 C 0.70726 0.85881 0.13515 0.0
C765 C 0.69337 0.85381 0.12642 0.0
C766 C 0.69188 0.84965 0.11047 0.0
C767 C 0.70425 0.85035 0.10298 0.0
C768 C 0.71814 0.8553 0.11183 0.0
C769 C 0.71961 0.85948 0.12778 0.0
C770 C 0.70655 0.88635 0.14634 0.0
C771 C 0.6919 0.88455 0.14542 0.0
C772 C 0.68803 0.89247 0.13477 0.0
C773 C 0.69878 0.90246 0.12491 0.0
C774 C 0.71359 0.9045 0.126 0.0
C775 C 0.71742 0.89636 0.1366 0.0
C776 C 0.71304 0.89643 0.17901 0.0
C777 C 0.70091 0.89662 0.18607 0.0
C778 C 0.70214 0.91069 0.19139 0.0
C779 C 0.71549 0.92483 0.18963 0.0
C780 C 0.72754 0.92457 0.18237 0.0
C781 C 0.7263 0.91048 0.17709 0.0
C782 C 0.71201 0.87495 0.20138 0.0
C783 C 0.69851 0.86741 0.20899 0.0
C784 C 0.69787 0.87255 0.22411 0.0
C785 C 0.71071 0.88541 0.23186 0.0
C786 C 0.72442 0.89252 0.22444 0.0
C787 C 0.72507 0.8873 0.20932 0.0
C788 C 0.70794 0.84501 0.19051 0.0
C789 C 0.69332 0.83261 0.19229 0.0
C790 C 0.6911 0.82211 0.20358 0.0
C791 C 0.70351 0.82377 0.21321 0.0
C792 C 0.71822 0.83601 0.21117 0.0
C793 C 0.72041 0.84664 0.19995 0.0
C794 C 0.70262 0.8459 0.08603 0.0
C795 C 0.71688 0.93981 0.19533 0.0
H796 H 0.13588 0.85377 0.05666 0.0
H797 H 0.26166 0.95093 0.18597 0.0
H798 H 0.12419 0.8547 0.14542 0.0
H799 H 0.10228 0.82906 0.13708 0.0
H800 H 0.13115 0.80859 0.14297 0.0
H801 H 0.15265 0.83402 0.15151 0.0
H802 H 0.15117 0.88185 0.12068 0.0
H803 H 0.14346 0.8733 0.09303 0.0
H804 H 0.15662 0.83825 0.09815 0.0
H805 H 0.16443 0.84704 0.12572 0.0
H806 H 0.18564 0.91206 0.13392 0.0
H807 H 0.20513 0.9247 0.11528 0.0
H808 H 0.21212 0.88513 0.11333 0.0
H809 H 0.19288 0.87276 0.13206 0.0
H810 H 0.18733 0.9195 0.16527 0.0
H811 H 0.21209 0.94251 0.17286 0.0
H812 H 0.23252 0.91329 0.17661 0.0
H813 H 0.20766 0.8904 0.16904 0.0
H814 H 0.17279 0.90555 0.19061 0.0
H815 H 0.18329 0.9147 0.21775 0.0
H816 H 0.19161 0.87621 0.22132 0.0
H817 H 0.18173 0.86752 0.19411 0.0
H818 H 0.1371 0.87073 0.18578 0.0
H819 H 0.12214 0.85507 0.20659 0.0
H820 H 0.14224 0.82572 0.20105 0.0
H821 H 0.15729 0.84159 0.1807 0.0
O822 O 0.13903 0.85698 0.06761 0.0
O823 O 0.14582 0.83905 0.0709 0.0
O824 O 0.24066 0.95653 0.18102 0.0
O825 O 0.25174 0.94204 0.18296 0.0
C826 C 0.15341 0.86153 0.15356 0.0
C827 C 0.16281 0.87025 0.14193 0.0
C828 C 0.17669 0.884 0.1462 0.0
C829 C 0.18078 0.88945 0.16207 0.0
C830 C 0.17124 0.8809 0.17371 0.0
C831 C 0.1576 0.86684 0.16945 0.0
C832 C 0.13992 0.84613 0.14915 0.0
C833 C 0.12565 0.8446 0.14504 0.0
C834 C 0.11321 0.82999 0.14021 0.0
C835 C 0.11493 0.81674 0.13946 0.0
C836 C 0.1293 0.81844 0.14373 0.0
C837 C 0.14164 0.83297 0.14854 0.0
C838 C 0.15817 0.86494 0.1252 0.0
C839 C 0.15235 0.87232 0.11579 0.0
C840 C 0.14796 0.86741 0.10001 0.0
C841 C 0.14936 0.85505 0.09339 0.0
C842 C 0.15532 0.84776 0.10289 0.0
C843 C 0.15973 0.8527 0.11865 0.0
C844 C 0.18784 0.8915 0.13431 0.0
C845 C 0.19138 0.90615 0.12943 0.0
C846 C 0.20251 0.91334 0.11882 0.0
C847 C 0.21012 0.90588 0.11281 0.0
C848 C 0.20631 0.89107 0.11756 0.0
C849 C 0.19535 0.884 0.12827 0.0
C850 C 0.19577 0.90336 0.16664 0.0
C851 C 0.19718 0.91813 0.16775 0.0
C852 C 0.21133 0.93123 0.17208 0.0
C853 C 0.2243 0.92973 0.17535 0.0
C854 C 0.22278 0.91485 0.17419 0.0
C855 C 0.20862 0.90177 0.16987 0.0
C856 C 0.17642 0.88582 0.19044 0.0
C857 C 0.17684 0.89909 0.19729 0.0
C858 C 0.18281 0.90428 0.21273 0.0
C859 C 0.18814 0.89608 0.2216 0.0
C860 C 0.18736 0.8826 0.2148 0.0
C861 C 0.1817 0.87761 0.1993 0.0
C862 C 0.14818 0.85721 0.18169 0.0
C863 C 0.13819 0.86088 0.18909 0.0
C864 C 0.12963 0.8519 0.20089 0.0
C865 C 0.13106 0.8392 0.20553 0.0
C866 C 0.14103 0.83555 0.19794 0.0
C867 C 0.14952 0.84449 0.18619 0.0
C868 C 0.14465 0.84983 0.07664 0.0
C869 C 0.23935 0.9436 0.17994 0.0
H870 H 0.28178 0.16445 0.99462 0.0
H871 H 0.30157 0.05523 0.8836 0.0
H872 H 0.2718 0.16218 0.91268 0.0
H873 H 0.27893 0.18901 0.92077 0.0
H874 H 0.32146 0.20532 0.89914 0.0
H875 H 0.3147 0.17861 0.89208 0.0
H876 H 0.26828 0.13208 0.93271 0.0
H877 H 0.26968 0.14221 0.9595 0.0
H878 H 0.31529 0.17963 0.95411 0.0
H879 H 0.31381 0.16926 0.92744 0.0
H880 H 0.27148 0.10031 0.91921 0.0
H881 H 0.27957 0.08644 0.93671 0.0
H882 H 0.32282 0.12854 0.94733 0.0
H883 H 0.3152 0.14174 0.92875 0.0
H884 H 0.26514 0.09588 0.88135 0.0
H885 H 0.26503 0.07141 0.87617 0.0
H886 H 0.3121 0.0933 0.89459 0.0
H887 H 0.3121 0.11772 0.89951 0.0
H888 H 0.26679 0.12029 0.85622 0.0
H889 H 0.26855 0.10938 0.8307 0.0
H890 H 0.31449 0.1203 0.84503 0.0
H891 H 0.31271 0.13122 0.87022 0.0
H892 H 0.26823 0.15483 0.8737 0.0
H893 H 0.26999 0.17111 0.85215 0.0
H894 H 0.31302 0.17487 0.84194 0.0
H895 H 0.31146 0.15911 0.86367 0.0
O896 O 0.28148 0.16063 0.98402 0.0
O897 O 0.30486 0.17968 0.98062 0.0
O898 O 0.27713 0.05408 0.87608 0.0
O899 O 0.3013 0.06476 0.88552 0.0
C900 C 0.28973 0.15226 0.89897 0.0
C901 C 0.28987 0.14375 0.91182 0.0
C902 C 0.28959 0.12946 0.90926 0.0
C903 C 0.2886 0.1234 0.89382 0.0
C904 C 0.28839 0.13183 0.88101 0.0
C905 C 0.2889 0.14623 0.88354 0.0
C906 C 0.29274 0.16843 0.90182 0.0
C907 C 0.28258 0.1716 0.90958 0.0
C908 C 0.28664 0.18693 0.9141 0.0
C909 C 0.30087 0.19932 0.91079 0.0
C910 C 0.31058 0.19606 0.90221 0.0
C911 C 0.30663 0.1808 0.89794 0.0
C912 C 0.29086 0.15002 0.92808 0.0
C913 C 0.27856 0.14246 0.93735 0.0
C914 C 0.27939 0.14828 0.95264 0.0
C915 C 0.29258 0.16177 0.95893 0.0
C916 C 0.30494 0.16925 0.94962 0.0
C917 C 0.3041 0.1634 0.93435 0.0
C918 C 0.29278 0.12202 0.92257 0.0
C919 C 0.28262 0.10655 0.9255 0.0
C920 C 0.28726 0.09867 0.9356 0.0
C921 C 0.30201 0.10625 0.94323 0.0
C922 C 0.31157 0.12215 0.9413 0.0
C923 C 0.30711 0.12985 0.9309 0.0
C924 C 0.28857 0.10851 0.89094 0.0
C925 C 0.2754 0.09534 0.88427 0.0
C926 C 0.27537 0.08139 0.88133 0.0
C927 C 0.28855 0.08039 0.88501 0.0
C928 C 0.30175 0.09365 0.89165 0.0
C929 C 0.30177 0.1076 0.89454 0.0
C930 C 0.28955 0.12632 0.8651 0.0
C931 C 0.27725 0.12043 0.85373 0.0
C932 C 0.27828 0.11424 0.83922 0.0
C933 C 0.29157 0.11379 0.83603 0.0
C934 C 0.304 0.1202 0.8473 0.0
C935 C 0.30302 0.12647 0.86165 0.0
C936 C 0.28958 0.15553 0.87009 0.0
C937 C 0.27799 0.15913 0.86675 0.0
C938 C 0.27902 0.16843 0.8545 0.0
C939 C 0.29156 0.17409 0.8453 0.0
C940 C 0.30309 0.17041 0.84865 0.0
C941 C 0.30218 0.16136 0.86102 0.0
C942 C 0.2934 0.16794 0.97516 0.0
C943 C 0.28859 0.06559 0.88191 0.0
H944 H 0.83852 0.1602 0.00118 0.0
H945 H 0.75462 0.03642 0.86901 0.0
H946 H 0.84356 0.16919 0.91772 0.0
H947 H 0.86409 0.19317 0.93097 0.0
H948 H 0.89607 0.17719 0.92287 0.0
H949 H 0.87531 0.15307 0.90958 0.0
H950 H 0.81922 0.14461 0.93464 0.0
H951 H 0.82383 0.1521 0.96265 0.0
H952 H 0.86072 0.14184 0.96495 0.0
H953 H 0.85587 0.1342 0.93695 0.0
H954 H 0.79357 0.11876 0.91006 0.0
H955 H 0.7737 0.10625 0.92801 0.0
H956 H 0.8014 0.09113 0.95337 0.0
H957 H 0.82132 0.1036 0.93506 0.0
H958 H 0.79411 0.11387 0.87704 0.0
H959 H 0.77143 0.08994 0.86653 0.0
H960 H 0.78943 0.06301 0.88795 0.0
H961 H 0.81216 0.08704 0.89822 0.0
H962 H 0.82119 0.14265 0.86499 0.0
H963 H 0.81205 0.13621 0.83747 0.0
H964 H 0.81873 0.09644 0.83775 0.0
H965 H 0.82839 0.10333 0.8653 0.0
H966 H 0.8458 0.16813 0.88275 0.0
H967 H 0.86163 0.185 0.86338 0.0
H968 H 0.87898 0.15364 0.85429 0.0
H969 H 0.86255 0.13654 0.87331 0.0
O970 O 0.83684 0.15709 0.99013 0.0
O971 O 0.85574 0.15172 0.99067 0.0
O972 O 0.75476 0.06045 0.86218 0.0
O973 O 0.76348 0.04607 0.873 0.0
C974 C 0.84504 0.14424 0.90652 0.0
C975 C 0.83446 0.13437 0.91676 0.0
C976 C 0.82115 0.12074 0.91073 0.0
C977 C 0.81873 0.11668 0.89449 0.0
C978 C 0.82929 0.12661 0.88424 0.0
C979 C 0.84247 0.14038 0.89028 0.0
C980 C 0.85796 0.15938 0.91285 0.0
C981 C 0.85502 0.17093 0.9187 0.0
C982 C 0.86673 0.18455 0.92633 0.0
C983 C 0.88162 0.18693 0.92814 0.0
C984 C 0.88469 0.17565 0.92162 0.0
C985 C 0.8729 0.16191 0.91405 0.0
C986 C 0.83712 0.13873 0.93382 0.0
C987 C 0.82821 0.14386 0.94125 0.0
C988 C 0.8309 0.1482 0.95724 0.0
C989 C 0.84263 0.14755 0.96605 0.0
C990 C 0.85158 0.14245 0.95851 0.0
C991 C 0.84884 0.13808 0.94254 0.0
C992 C 0.8088 0.11193 0.92112 0.0
C993 C 0.79524 0.11247 0.91928 0.0
C994 C 0.78392 0.10535 0.92957 0.0
C995 C 0.78598 0.09766 0.94206 0.0
C996 C 0.79956 0.09705 0.94389 0.0
C997 C 0.81087 0.10407 0.93342 0.0
C998 C 0.80485 0.10218 0.88824 0.0
C999 C 0.79319 0.10279 0.87934 0.0
C1000 C 0.78022 0.08911 0.87341 0.0
C1001 C 0.77863 0.07455 0.87636 0.0
C1002 C 0.7903 0.07401 0.88542 0.0
C1003 C 0.80328 0.08771 0.89131 0.0
C1004 C 0.82553 0.12351 0.86711 0.0
C1005 C 0.82105 0.13278 0.85901 0.0
C1006 C 0.81566 0.12896 0.84335 0.0
C1007 C 0.81451 0.11572 0.83549 0.0
C1008 C 0.81958 0.10678 0.84346 0.0
C1009 C 0.82504 0.11065 0.85918 0.0
C1010 C 0.85309 0.15117 0.87945 0.0
C1011 C 0.85315 0.16502 0.87668 0.0
C1012 C 0.86228 0.17467 0.86564 0.0
C1013 C 0.87165 0.17073 0.85724 0.0
C1014 C 0.87176 0.15695 0.86034 0.0
C1015 C 0.86249 0.14722 0.87129 0.0
C1016 C 0.84551 0.15223 0.98302 0.0
C1017 C 0.76489 0.05998 0.87007 0.0
H1018 H 0.85627 0.70906 0.01537 0.0
H1019 H 0.7398 0.67921 0.88204 0.0
H1020 H 0.8716 0.72375 0.93654 0.0
H1021 H 0.89288 0.72217 0.94956 0.0
H1022 H 0.87801 0.6782 0.924 0.0
H1023 H 0.85643 0.67948 0.91155 0.0
H1024 H 0.84299 0.72126 0.95212 0.0
H1025 H 0.84882 0.72029 0.97988 0.0
H1026 H 0.8453 0.67551 0.97023 0.0
H1027 H 0.83927 0.67655 0.94253 0.0
H1028 H 0.81442 0.71825 0.93532 0.0
H1029 H 0.79462 0.71245 0.9535 0.0
H1030 H 0.78585 0.66516 0.95365 0.0
H1031 H 0.80598 0.67129 0.93605 0.0
H1032 H 0.81528 0.72168 0.89687 0.0
H1033 H 0.7911 0.7198 0.88767 0.0
H1034 H 0.76745 0.67102 0.8963 0.0
H1035 H 0.79173 0.67306 0.90532 0.0
H1036 H 0.83919 0.72301 0.87636 0.0
H1037 H 0.83041 0.72057 0.84866 0.0
H1038 H 0.80257 0.67096 0.85102 0.0
H1039 H 0.81118 0.67352 0.87865 0.0
H1040 H 0.87215 0.72521 0.89564 0.0
H1041 H 0.88913 0.72557 0.87599 0.0
H1042 H 0.85652 0.67779 0.86116 0.0
H1043 H 0.8401 0.6774 0.88118 0.0
O1044 O 0.85384 0.70915 0.00436 0.0
O1045 O 0.85201 0.68621 0.99875 0.0
O1046 O 0.76223 0.70538 0.8813 0.0
O1047 O 0.74952 0.68028 0.88559 0.0
C1048 C 0.84807 0.70123 0.91753 0.0
C1049 C 0.83745 0.69977 0.92845 0.0
C1050 C 0.82338 0.69844 0.92328 0.0
C1051 C 0.81994 0.69877 0.90726 0.0
C1052 C 0.83031 0.69982 0.89632 0.0
C1053 C 0.84438 0.70104 0.9014 0.0
C1054 C 0.86246 0.70174 0.92308 0.0
C1055 C 0.87309 0.7139 0.93357 0.0
C1056 C 0.88517 0.71298 0.94101 0.0
C1057 C 0.88701 0.70005 0.93778 0.0
C1058 C 0.8769 0.68835 0.92657 0.0
C1059 C 0.86464 0.68912 0.91939 0.0
C1060 C 0.84078 0.69901 0.94533 0.0
C1061 C 0.84342 0.71123 0.95605 0.0
C1062 C 0.84678 0.71065 0.97188 0.0
C1063 C 0.84757 0.69784 0.97727 0.0
C1064 C 0.84481 0.68556 0.96647 0.0
C1065 C 0.8414 0.68613 0.95065 0.0
C1066 C 0.81164 0.6952 0.93448 0.0
C1067 C 0.80825 0.7067 0.93942 0.0
C1068 C 0.79688 0.70331 0.94971 0.0
C1069 C 0.78864 0.68833 0.95511 0.0
C1070 C 0.79214 0.67689 0.95005 0.0
C1071 C 0.80357 0.68033 0.9399 0.0
C1072 C 0.80521 0.69754 0.90183 0.0
C1073 C 0.80485 0.71062 0.89675 0.0
C1074 C 0.79103 0.7095 0.89152 0.0
C1075 C 0.77733 0.69525 0.89128 0.0
C1076 C 0.77778 0.68217 0.89636 0.0
C1077 C 0.79161 0.6833 0.90156 0.0
C1078 C 0.82581 0.69843 0.87942 0.0
C1079 C 0.83128 0.71163 0.87082 0.0
C1080 C 0.82625 0.71023 0.85509 0.0
C1081 C 0.81588 0.69557 0.84774 0.0
C1082 C 0.8107 0.68236 0.85635 0.0
C1083 C 0.81554 0.6838 0.8721 0.0
C1084 C 0.85485 0.70132 0.88973 0.0
C1085 C 0.86878 0.71483 0.88818 0.0
C1086 C 0.87839 0.71503 0.87689 0.0
C1087 C 0.8742 0.70171 0.86698 0.0
C1088 C 0.86024 0.68819 0.86872 0.0
C1089 C 0.85074 0.68798 0.88003 0.0
C1090 C 0.85126 0.69732 0.99408 0.0
C1091 C 0.76261 0.69401 0.88575 0.0
H1092 H 0.81925 0.65212 0.37916 0.0
H1093 H 0.90903 0.62531 0.50963 0.0
H1094 H 0.81852 0.6638 0.46913 0.0
H1095 H 0.7995 0.66929 0.45734 0.0
H1096 H 0.76711 0.62006 0.45174 0.0
H1097 H 0.78624 0.61476 0.46439 0.0
H1098 H 0.83812 0.66131 0.4459 0.0
H1099 H 0.83308 0.66215 0.41791 0.0
H1100 H 0.8023 0.61251 0.41453 0.0
H1101 H 0.80753 0.61187 0.44253 0.0
H1102 H 0.86403 0.66424 0.46487 0.0
H1103 H 0.88366 0.67063 0.44644 0.0
H1104 H 0.86231 0.62226 0.43013 0.0
H1105 H 0.84248 0.61597 0.44859 0.0
H1106 H 0.86775 0.66048 0.5002 0.0
H1107 H 0.89124 0.66132 0.51013 0.0
H1108 H 0.87315 0.61372 0.49218 0.0
H1109 H 0.84965 0.613 0.48246 0.0
H1110 H 0.84115 0.66178 0.51426 0.0
H1111 H 0.85127 0.66689 0.54153 0.0
H1112 H 0.84409 0.62024 0.54192 0.0
H1113 H 0.83364 0.61511 0.51459 0.0
H1114 H 0.81493 0.66031 0.49807 0.0
H1115 H 0.79933 0.66191 0.51799 0.0
H1116 H 0.78512 0.61457 0.52838 0.0
H1117 H 0.80015 0.61285 0.50768 0.0
O1118 O 0.82111 0.65153 0.39019 0.0
O1119 O 0.80538 0.626 0.38909 0.0
O1120 O 0.90862 0.64974 0.51487 0.0
O1121 O 0.89986 0.6253 0.50582 0.0
C1122 C 0.81597 0.63606 0.47366 0.0
C1123 C 0.82625 0.63602 0.46312 0.0
C1124 C 0.83973 0.63635 0.46875 0.0
C1125 C 0.84264 0.63604 0.48491 0.0
C1126 C 0.83228 0.6359 0.49548 0.0
C1127 C 0.81889 0.63585 0.48987 0.0
C1128 C 0.80367 0.63892 0.46776 0.0
C1129 C 0.80721 0.65422 0.46563 0.0
C1130 C 0.79638 0.6573 0.45868 0.0
C1131 C 0.78182 0.6451 0.45335 0.0
C1132 C 0.77817 0.62972 0.45581 0.0
C1133 C 0.78905 0.62666 0.46299 0.0
C1134 C 0.82326 0.63651 0.44615 0.0
C1135 C 0.83036 0.65063 0.43905 0.0
C1136 C 0.82743 0.65107 0.42308 0.0
C1137 C 0.8173 0.63739 0.41397 0.0
C1138 C 0.81017 0.62326 0.4212 0.0
C1139 C 0.81314 0.62284 0.43717 0.0
C1140 C 0.85189 0.63966 0.45805 0.0
C1141 C 0.86363 0.65502 0.45736 0.0
C1142 C 0.87475 0.65865 0.44678 0.0
C1143 C 0.87443 0.64695 0.4368 0.0
C1144 C 0.86282 0.63148 0.43773 0.0
C1145 C 0.85152 0.62788 0.44821 0.0
C1146 C 0.85698 0.63664 0.49075 0.0
C1147 C 0.86887 0.65023 0.4985 0.0
C1148 C 0.88228 0.65069 0.50412 0.0
C1149 C 0.88406 0.63756 0.50198 0.0
C1150 C 0.87215 0.62401 0.49406 0.0
C1151 C 0.85873 0.62357 0.48848 0.0
C1152 C 0.83662 0.63806 0.5125 0.0
C1153 C 0.84142 0.65255 0.52034 0.0
C1154 C 0.84732 0.65549 0.53585 0.0
C1155 C 0.84856 0.644 0.54379 0.0
C1156 C 0.84314 0.62926 0.53611 0.0
C1157 C 0.83724 0.62633 0.52053 0.0
C1158 C 0.80842 0.63635 0.50114 0.0
C1159 C 0.80807 0.65012 0.50428 0.0
C1160 C 0.79936 0.65109 0.51592 0.0
C1161 C 0.79102 0.6384 0.52492 0.0
C1162 C 0.79121 0.62451 0.52157 0.0
C1163 C 0.79984 0.62351 0.50978 0.0
C1164 C 0.8142 0.6379 0.39701 0.0
C1165 C 0.89827 0.63797 0.50796 0.0
H1166 H 0.35013 0.17479 0.39694 0.0
H1167 H 0.39424 0.29468 0.53338 0.0
H1168 H 0.34405 0.16175 0.47894 0.0
H1169 H 0.3392 0.13658 0.46778 0.0
H1170 H 0.38505 0.1481 0.48338 0.0
H1171 H 0.38982 0.17338 0.49454 0.0
H1172 H 0.34575 0.18779 0.46282 0.0
H1173 H 0.34326 0.18167 0.43463 0.0
H1174 H 0.38908 0.18873 0.43717 0.0
H1175 H 0.39146 0.195 0.46535 0.0
H1176 H 0.3459 0.21118 0.48501 0.0
H1177 H 0.34069 0.2273 0.46779 0.0
H1178 H 0.38612 0.24678 0.45218 0.0
H1179 H 0.39126 0.23044 0.46959 0.0
H1180 H 0.35244 0.21774 0.51975 0.0
H1181 H 0.35507 0.24216 0.5306 0.0
H1182 H 0.4006 0.267 0.51502 0.0
H1183 H 0.39787 0.24246 0.5044 0.0
H1184 H 0.35041 0.1899 0.53457 0.0
H1185 H 0.34956 0.19965 0.56076 0.0
H1186 H 0.39738 0.23389 0.56117 0.0
H1187 H 0.398 0.22415 0.53477 0.0
H1188 H 0.34621 0.16193 0.5154 0.0
H1189 H 0.34348 0.14312 0.53432 0.0
H1190 H 0.39183 0.16999 0.54774 0.0
H1191 H 0.39429 0.189 0.52905 0.0
O1192 O 0.35138 0.17731 0.40808 0.0
O1193 O 0.37496 0.18101 0.41003 0.0
O1194 O 0.36945 0.27153 0.537 0.0
O1195 O 0.39287 0.28487 0.52913 0.0
C1196 C 0.37024 0.1849 0.4936 0.0
C1197 C 0.37035 0.19565 0.48319 0.0
C1198 C 0.37165 0.20973 0.48909 0.0
C1199 C 0.37361 0.21346 0.50532 0.0
C1200 C 0.37369 0.20282 0.51576 0.0
C1201 C 0.37179 0.18845 0.5099 0.0
C1202 C 0.36733 0.16944 0.48739 0.0
C1203 C 0.35306 0.15886 0.47989 0.0
C1204 C 0.35033 0.14452 0.4735 0.0
C1205 C 0.36179 0.14042 0.47458 0.0
C1206 C 0.37598 0.15091 0.48244 0.0
C1207 C 0.37874 0.16533 0.48877 0.0
C1208 C 0.36884 0.192 0.46607 0.0
C1209 C 0.35528 0.18815 0.45723 0.0
C1210 C 0.35387 0.18459 0.44115 0.0
C1211 C 0.36599 0.18474 0.43364 0.0
C1212 C 0.37954 0.18853 0.44258 0.0
C1213 C 0.38094 0.19212 0.45866 0.0
C1214 C 0.36892 0.21966 0.47848 0.0
C1215 C 0.35471 0.21891 0.47785 0.0
C1216 C 0.35174 0.22804 0.46796 0.0
C1217 C 0.36297 0.23819 0.45858 0.0
C1218 C 0.3773 0.23907 0.45933 0.0
C1219 C 0.38023 0.22976 0.46917 0.0
C1220 C 0.37501 0.22835 0.51142 0.0
C1221 C 0.36298 0.22847 0.51875 0.0
C1222 C 0.36451 0.24243 0.5249 0.0
C1223 C 0.37808 0.25654 0.52372 0.0
C1224 C 0.39002 0.25636 0.51616 0.0
C1225 C 0.38849 0.24237 0.51006 0.0
C1226 C 0.37426 0.20633 0.53279 0.0
C1227 C 0.36081 0.19916 0.54053 0.0
C1228 C 0.36036 0.20478 0.55551 0.0
C1229 C 0.37337 0.21768 0.563 0.0
C1230 C 0.38711 0.22411 0.55561 0.0
C1231 C 0.38754 0.21848 0.54061 0.0
C1232 C 0.37044 0.17675 0.52086 0.0
C1233 C 0.35621 0.16366 0.52237 0.0
C1234 C 0.3547 0.15289 0.53313 0.0
C1235 C 0.36745 0.15501 0.54255 0.0
C1236 C 0.38175 0.16811 0.54083 0.0
C1237 C 0.38321 0.17892 0.53011 0.0
C1238 C 0.36444 0.18092 0.41655 0.0
C1239 C 0.37981 0.27139 0.53036 0.0
H1240 H 0.79782 0.18189 0.38151 0.0
H1241 H 0.92905 0.28187 0.49917 0.0
H1242 H 0.79156 0.18432 0.46614 0.0
H1243 H 0.76866 0.15906 0.45909 0.0
H1244 H 0.79329 0.13597 0.47424 0.0
H1245 H 0.81581 0.16108 0.48142 0.0
H1246 H 0.81852 0.21163 0.44471 0.0
H1247 H 0.80914 0.2028 0.4174 0.0
H1248 H 0.81555 0.1632 0.42271 0.0
H1249 H 0.82507 0.17226 0.44993 0.0
H1250 H 0.85215 0.24058 0.45939 0.0
H1251 H 0.87131 0.2539 0.44065 0.0
H1252 H 0.87481 0.21258 0.43255 0.0
H1253 H 0.85576 0.19945 0.4512 0.0
H1254 H 0.85309 0.24447 0.49803 0.0
H1255 H 0.87765 0.26809 0.50438 0.0
H1256 H 0.90081 0.24452 0.48693 0.0
H1257 H 0.87619 0.22094 0.48083 0.0
H1258 H 0.82973 0.21952 0.52123 0.0
H1259 H 0.84151 0.22783 0.54805 0.0
H1260 H 0.87545 0.21541 0.53671 0.0
H1261 H 0.86358 0.20705 0.51011 0.0
H1262 H 0.79911 0.19208 0.50497 0.0
H1263 H 0.78459 0.17598 0.52563 0.0
H1264 H 0.81675 0.15936 0.53097 0.0
H1265 H 0.83143 0.176 0.5109 0.0
O1266 O 0.80156 0.18517 0.39234 0.0
O1267 O 0.80499 0.16497 0.39571 0.0
O1268 O 0.90674 0.28422 0.50575 0.0
O1269 O 0.91919 0.27267 0.49682 0.0
C1270 C 0.81941 0.1896 0.47808 0.0
C1271 C 0.82808 0.198 0.46585 0.0
C1272 C 0.84243 0.21147 0.46934 0.0
C1273 C 0.84789 0.21676 0.48508 0.0
C1274 C 0.83927 0.20828 0.4973 0.0
C1275 C 0.82501 0.19473 0.4938 0.0
C1276 C 0.80526 0.17448 0.47442 0.0
C1277 C 0.79187 0.17376 0.46806 0.0
C1278 C 0.77886 0.15935 0.46398 0.0
C1279 C 0.77909 0.14548 0.46621 0.0
C1280 C 0.79256 0.14637 0.4727 0.0
C1281 C 0.80548 0.16071 0.47676 0.0
C1282 C 0.82233 0.1925 0.44932 0.0
C1283 C 0.81787 0.20105 0.43994 0.0
C1284 C 0.81252 0.19597 0.42436 0.0
C1285 C 0.81155 0.18226 0.41788 0.0
C1286 C 0.8161 0.17377 0.42734 0.0
C1287 C 0.82148 0.17888 0.44291 0.0
C1288 C 0.85253 0.21903 0.45662 0.0
C1289 C 0.85691 0.23437 0.45337 0.0
C1290 C 0.8679 0.24197 0.44274 0.0
C1291 C 0.87461 0.23431 0.43513 0.0
C1292 C 0.86973 0.21875 0.43802 0.0
C1293 C 0.85884 0.21122 0.44868 0.0
C1294 C 0.86287 0.23105 0.48886 0.0
C1295 C 0.86349 0.24445 0.4956 0.0
C1296 C 0.87752 0.25791 0.4992 0.0
C1297 C 0.8912 0.25821 0.49612 0.0
C1298 C 0.89051 0.24471 0.48942 0.0
C1299 C 0.87646 0.23124 0.48587 0.0
C1300 C 0.84591 0.21284 0.51371 0.0
C1301 C 0.83966 0.21852 0.52461 0.0
C1302 C 0.84636 0.22322 0.53989 0.0
C1303 C 0.85949 0.22241 0.54441 0.0
C1304 C 0.86552 0.21644 0.53349 0.0
C1305 C 0.85875 0.21163 0.51832 0.0
C1306 C 0.81637 0.18528 0.50656 0.0
C1307 C 0.80304 0.18504 0.51076 0.0
C1308 C 0.7947 0.17573 0.52247 0.0
C1309 C 0.79948 0.16635 0.53007 0.0
C1310 C 0.81287 0.16666 0.5257 0.0
C1311 C 0.82126 0.17609 0.51415 0.0
C1312 C 0.80585 0.1769 0.40133 0.0
C1313 C 0.90613 0.2725 0.49987 0.0
H1314 H 0.98264 0.50563 0.3311 0.0
H1315 H 0.00786 0.41238 0.20409 0.0
H1316 H 0.96461 0.50601 0.24572 0.0
H1317 H 0.96702 0.53121 0.25332 0.0
H1318 H 0.01367 0.55414 0.24054 0.0
H1319 H 0.0108 0.52902 0.23233 0.0
H1320 H 0.96674 0.47802 0.26688 0.0
H1321 H 0.96917 0.48608 0.29462 0.0
H1322 H 0.01443 0.52421 0.28935 0.0
H1323 H 0.0119 0.51593 0.26169 0.0
H1324 H 0.96823 0.44832 0.24844 0.0
H1325 H 0.9746 0.43156 0.26332 0.0
H1326 H 0.01987 0.47037 0.27534 0.0
H1327 H 0.01362 0.48676 0.25963 0.0
H1328 H 0.96411 0.4445 0.21395 0.0
H1329 H 0.96658 0.42201 0.20579 0.0
H1330 H 0.01521 0.44887 0.2176 0.0
H1331 H 0.01258 0.47132 0.22552 0.0
H1332 H 0.9603 0.46346 0.19381 0.0
H1333 H 0.96017 0.45168 0.16806 0.0
H1334 H 0.0093 0.47855 0.17058 0.0
H1335 H 0.0094 0.48976 0.19648 0.0
H1336 H 0.96103 0.50053 0.21055 0.0
H1337 H 0.95935 0.51694 0.19069 0.0
H1338 H 0.0048 0.52961 0.17857 0.0
H1339 H 0.00659 0.51369 0.19871 0.0
O1340 O 0.98192 0.50264 0.3201 0.0
O1341 O 0.00509 0.5221 0.31675 0.0
O1342 O 0.98153 0.40784 0.20115 0.0
O1343 O 0.00656 0.4211 0.20721 0.0
C1344 C 0.98626 0.50062 0.23391 0.0
C1345 C 0.98757 0.49149 0.24548 0.0
C1346 C 0.98779 0.47777 0.24103 0.0
C1347 C 0.98669 0.47322 0.22504 0.0
C1348 C 0.98519 0.48223 0.21351 0.0
C1349 C 0.98494 0.49592 0.21792 0.0
C1350 C 0.98752 0.51576 0.23847 0.0
C1351 C 0.97527 0.51654 0.24449 0.0
C1352 C 0.97673 0.53094 0.2489 0.0
C1353 C 0.99054 0.54478 0.24752 0.0
C1354 C 0.00275 0.54383 0.24145 0.0
C1355 C 0.00121 0.52947 0.23687 0.0
C1356 C 0.98909 0.49647 0.26227 0.0
C1357 C 0.97716 0.48811 0.27175 0.0
C1358 C 0.97858 0.49275 0.28758 0.0
C1359 C 0.99198 0.50582 0.2942 0.0
C1360 C 0.00394 0.51413 0.28463 0.0
C1361 C 0.00251 0.50946 0.26881 0.0
C1362 C 0.99048 0.46872 0.25288 0.0
C1363 C 0.97942 0.45325 0.25454 0.0
C1364 C 0.98308 0.4437 0.26312 0.0
C1365 C 0.99783 0.44955 0.27037 0.0
C1366 C 0.00852 0.46539 0.26961 0.0
C1367 C 0.00491 0.47486 0.26085 0.0
C1368 C 0.98817 0.45951 0.22027 0.0
C1369 C 0.97528 0.4455 0.2147 0.0
C1370 C 0.97673 0.43267 0.21009 0.0
C1371 C 0.99111 0.43365 0.21104 0.0
C1372 C 0.00398 0.44773 0.2167 0.0
C1373 C 0.00252 0.46055 0.22125 0.0
C1374 C 0.98485 0.47759 0.19687 0.0
C1375 C 0.97099 0.46706 0.1886 0.0
C1376 C 0.97093 0.46031 0.17401 0.0
C1377 C 0.98472 0.4643 0.16741 0.0
C1378 C 0.99853 0.47546 0.17536 0.0
C1379 C 0.99859 0.4819 0.19008 0.0
C1380 C 0.9838 0.50566 0.20582 0.0
C1381 C 0.9706 0.50687 0.20359 0.0
C1382 C 0.96968 0.51625 0.19233 0.0
C1383 C 0.98189 0.52438 0.18303 0.0
C1384 C 0.99513 0.52325 0.18542 0.0
C1385 C 0.99614 0.5141 0.19683 0.0
C1386 C 0.99345 0.51072 0.31101 0.0
C1387 C 0.99271 0.42006 0.20616 0.0
H1388 H 0.50272 0.5 0.33533 0.0
H1389 H 0.42096 0.37304 0.2054 0.0
H1390 H 0.50878 0.50733 0.25212 0.0
H1391 H 0.52957 0.53168 0.26447 0.0
H1392 H 0.56137 0.51548 0.25631 0.0
H1393 H 0.54036 0.49099 0.24392 0.0
H1394 H 0.48381 0.48277 0.26887 0.0
H1395 H 0.48821 0.49089 0.29674 0.0
H1396 H 0.52569 0.48156 0.30015 0.0
H1397 H 0.52104 0.47329 0.2723 0.0
H1398 H 0.45825 0.45594 0.24436 0.0
H1399 H 0.43787 0.44263 0.26164 0.0
H1400 H 0.46627 0.42947 0.28869 0.0
H1401 H 0.48663 0.44254 0.27094 0.0
H1402 H 0.45906 0.45054 0.21194 0.0
H1403 H 0.43671 0.4262 0.2017 0.0
H1404 H 0.45551 0.40045 0.22422 0.0
H1405 H 0.47791 0.4249 0.23419 0.0
H1406 H 0.48535 0.4788 0.19952 0.0
H1407 H 0.47509 0.47079 0.17238 0.0
H1408 H 0.48391 0.43247 0.17381 0.0
H1409 H 0.49444 0.44075 0.20103 0.0
H1410 H 0.51028 0.50507 0.21644 0.0
H1411 H 0.52617 0.52157 0.19671 0.0
H1412 H 0.54403 0.49052 0.18914 0.0
H1413 H 0.52799 0.47399 0.20886 0.0
O1414 O 0.50113 0.49667 0.32434 0.0
O1415 O 0.52035 0.49177 0.32545 0.0
O1416 O 0.42056 0.39662 0.19788 0.0
O1417 O 0.42969 0.38284 0.20929 0.0
C1418 C 0.51007 0.48214 0.24128 0.0
C1419 C 0.49946 0.47254 0.25166 0.0
C1420 C 0.48621 0.45873 0.24583 0.0
C1421 C 0.4839 0.45424 0.22969 0.0
C1422 C 0.49444 0.46392 0.2193 0.0
C1423 C 0.50754 0.47786 0.22511 0.0
C1424 C 0.52307 0.49737 0.24731 0.0
C1425 C 0.52025 0.50908 0.25292 0.0
C1426 C 0.53211 0.52292 0.26003 0.0
C1427 C 0.54704 0.52537 0.26154 0.0
C1428 C 0.54997 0.51389 0.25528 0.0
C1429 C 0.53802 0.49994 0.24823 0.0
C1430 C 0.50202 0.47732 0.26862 0.0
C1431 C 0.49288 0.48237 0.27569 0.0
C1432 C 0.49546 0.48706 0.29159 0.0
C1433 C 0.50729 0.48686 0.30068 0.0
C1434 C 0.51647 0.48184 0.2935 0.0
C1435 C 0.51385 0.47712 0.27761 0.0
C1436 C 0.47385 0.45003 0.25624 0.0
C1437 C 0.46 0.44995 0.25382 0.0
C1438 C 0.4484 0.44239 0.26373 0.0
C1439 C 0.45049 0.43496 0.27643 0.0
C1440 C 0.46441 0.43515 0.27898 0.0
C1441 C 0.47599 0.44254 0.26886 0.0
C1442 C 0.47018 0.43947 0.22365 0.0
C1443 C 0.45838 0.43963 0.21454 0.0
C1444 C 0.4456 0.42571 0.20876 0.0
C1445 C 0.44434 0.41137 0.21211 0.0
C1446 C 0.45613 0.41128 0.22139 0.0
C1447 C 0.46893 0.42522 0.22712 0.0
C1448 C 0.49066 0.46038 0.20221 0.0
C1449 C 0.48547 0.46894 0.19385 0.0
C1450 C 0.47948 0.46426 0.17842 0.0
C1451 C 0.47857 0.45092 0.17106 0.0
C1452 C 0.48456 0.44285 0.17918 0.0
C1453 C 0.49054 0.44752 0.19469 0.0
C1454 C 0.51805 0.4884 0.21408 0.0
C1455 C 0.51775 0.50194 0.21063 0.0
C1456 C 0.52672 0.51126 0.19931 0.0
C1457 C 0.53626 0.50726 0.19138 0.0
C1458 C 0.53684 0.4939 0.19516 0.0
C1459 C 0.52771 0.48447 0.20636 0.0
C1460 C 0.51003 0.4919 0.31756 0.0
C1461 C 0.4308 0.39654 0.20597 0.0
H1462 H 0.50984 0.01464 0.3452 0.0
H1463 H 0.39846 0.98814 0.20748 0.0
H1464 H 0.5299 0.0294 0.26415 0.0
H1465 H 0.55045 0.02653 0.27714 0.0
H1466 H 0.52932 0.97924 0.25737 0.0
H1467 H 0.50893 0.98224 0.24433 0.0
H1468 H 0.50008 0.02787 0.28122 0.0
H1469 H 0.50482 0.02666 0.30919 0.0
H1470 H 0.49821 0.98047 0.30045 0.0
H1471 H 0.49329 0.98176 0.27256 0.0
H1472 H 0.46964 0.02513 0.2604 0.0
H1473 H 0.44898 0.02029 0.27704 0.0
H1474 H 0.4436 0.97523 0.28556 0.0
H1475 H 0.46352 0.97982 0.26817 0.0
H1476 H 0.47366 0.02945 0.22483 0.0
H1477 H 0.45002 0.028 0.21441 0.0
H1478 H 0.42512 0.9794 0.22355 0.0
H1479 H 0.44889 0.98098 0.23377 0.0
H1480 H 0.49987 0.0326 0.20829 0.0
H1481 H 0.49257 0.03357 0.18084 0.0
H1482 H 0.46198 0.98399 0.17791 0.0
H1483 H 0.4692 0.98317 0.20534 0.0
H1484 H 0.53021 0.03168 0.22774 0.0
H1485 H 0.54816 0.03267 0.20899 0.0
H1486 H 0.51537 0.98594 0.19096 0.0
H1487 H 0.49785 0.98492 0.21006 0.0
O1488 O 0.5079 0.01487 0.33411 0.0
O1489 O 0.50451 0.9912 0.32896 0.0
O1490 O 0.42132 0.01404 0.207 0.0
O1491 O 0.40798 0.98904 0.21152 0.0
C1492 C 0.50441 0.00688 0.24741 0.0
C1493 C 0.49362 0.00579 0.25791 0.0
C1494 C 0.48002 0.0053 0.25226 0.0
C1495 C 0.47737 0.00621 0.23614 0.0
C1496 C 0.48822 0.00743 0.22569 0.0
C1497 C 0.50171 0.0077 0.23129 0.0
C1498 C 0.51798 0.00603 0.25331 0.0
C1499 C 0.52992 0.01855 0.26237 0.0
C1500 C 0.54161 0.0169 0.26975 0.0
C1501 C 0.54137 0.00263 0.26833 0.0
C1502 C 0.52968 0.99031 0.25875 0.0
C1503 C 0.51813 0.99204 0.25122 0.0
C1504 C 0.49647 0.00496 0.27487 0.0
C1505 C 0.49965 0.01751 0.28539 0.0
C1506 C 0.50237 0.01678 0.30135 0.0
C1507 C 0.50193 0.00348 0.30706 0.0
C1508 C 0.49867 0.9909 0.29645 0.0
C1509 C 0.49592 0.99163 0.2805 0.0
C1510 C 0.4681 0.00284 0.26308 0.0
C1511 C 0.46394 0.01421 0.26585 0.0
C1512 C 0.45221 0.01146 0.27547 0.0
C1513 C 0.44453 0.99733 0.28264 0.0
C1514 C 0.449 0.98611 0.28003 0.0
C1515 C 0.46055 0.98879 0.27025 0.0
C1516 C 0.46296 0.00533 0.23005 0.0
C1517 C 0.46309 0.0185 0.22453 0.0
C1518 C 0.44957 0.01764 0.21862 0.0
C1519 C 0.43567 0.00358 0.21816 0.0
C1520 C 0.43561 0.99041 0.22374 0.0
C1521 C 0.44915 0.99128 0.22961 0.0
C1522 C 0.48504 0.00782 0.20874 0.0
C1523 C 0.49175 0.02195 0.20163 0.0
C1524 C 0.48753 0.02249 0.18603 0.0
C1525 C 0.47672 0.00885 0.17729 0.0
C1526 C 0.47045 0.99464 0.18433 0.0
C1527 C 0.47451 0.99415 0.19997 0.0
C1528 C 0.51272 0.00826 0.22018 0.0
C1529 C 0.527 0.02165 0.21979 0.0
C1530 C 0.53717 0.02222 0.20901 0.0
C1531 C 0.53321 0.00938 0.19847 0.0
C1532 C 0.5189 0.99595 0.19905 0.0
C1533 C 0.5088 0.99539 0.20984 0.0
C1534 C 0.50485 0.00275 0.32401 0.0
C1535 C 0.42127 0.0026 0.21188 0.0
H1536 H 0.50499 0.02014 0.72036 0.0
H1537 H 0.58587 0.97781 0.84458 0.0
H1538 H 0.49661 0.02092 0.80292 0.0
H1539 H 0.47539 0.02388 0.79265 0.0
H1540 H 0.44402 0.97614 0.80133 0.0
H1541 H 0.46556 0.97312 0.81087 0.0
H1542 H 0.52306 0.02193 0.7864 0.0
H1543 H 0.5191 0.02559 0.75893 0.0
H1544 H 0.48033 0.97908 0.75335 0.0
H1545 H 0.48452 0.97551 0.78081 0.0
H1546 H 0.54877 0.01979 0.80864 0.0
H1547 H 0.56848 0.02408 0.7909 0.0
H1548 H 0.53686 0.9818 0.76363 0.0
H1549 H 0.51726 0.97724 0.78181 0.0
H1550 H 0.54639 0.01535 0.84234 0.0
H1551 H 0.56897 0.01416 0.85177 0.0
H1552 H 0.55121 0.96954 0.82627 0.0
H1553 H 0.52859 0.97078 0.81709 0.0
H1554 H 0.519 0.01577 0.85637 0.0
H1555 H 0.52752 0.01702 0.88374 0.0
H1556 H 0.52044 0.97048 0.87708 0.0
H1557 H 0.51151 0.96919 0.84973 0.0
H1558 H 0.4937 0.01625 0.84041 0.0
H1559 H 0.47646 0.01483 0.86003 0.0
H1560 H 0.45995 0.96557 0.86169 0.0
H1561 H 0.47781 0.96737 0.84256 0.0
O1562 O 0.50637 0.01843 0.73119 0.0
O1563 O 0.48647 0.99447 0.72895 0.0
O1564 O 0.58562 0.00149 0.85402 0.0
O1565 O 0.57704 0.97856 0.84105 0.0
C1566 C 0.49579 0.99498 0.81289 0.0
C1567 C 0.50655 0.99623 0.80225 0.0
C1568 C 0.51972 0.99568 0.80757 0.0
C1569 C 0.52203 0.99376 0.82351 0.0
C1570 C 0.5113 0.9926 0.83413 0.0
C1571 C 0.49811 0.99303 0.8288 0.0
C1572 C 0.48263 0.99678 0.80751 0.0
C1573 C 0.48515 0.0111 0.80257 0.0
C1574 C 0.47296 0.0128 0.79687 0.0
C1575 C 0.45795 0.00025 0.79619 0.0
C1576 C 0.45544 0.98598 0.80149 0.0
C1577 C 0.4677 0.98426 0.80707 0.0
C1578 C 0.50412 0.99843 0.78556 0.0
C1579 C 0.51377 0.01252 0.7792 0.0
C1580 C 0.51146 0.01459 0.76351 0.0
C1581 C 0.49941 0.00262 0.75393 0.0
C1582 C 0.48972 0.98853 0.76039 0.0
C1583 C 0.49207 0.98646 0.77607 0.0
C1584 C 0.5316 0.99812 0.79664 0.0
C1585 C 0.54613 0.01133 0.79897 0.0
C1586 C 0.55736 0.01379 0.78881 0.0
C1587 C 0.55419 0.00325 0.77593 0.0
C1588 C 0.53956 0.99014 0.77344 0.0
C1589 C 0.5284 0.98752 0.7838 0.0
C1590 C 0.53581 0.9931 0.82913 0.0
C1591 C 0.54736 0.00529 0.83889 0.0
C1592 C 0.56026 0.0046 0.84421 0.0
C1593 C 0.56188 0.99173 0.83979 0.0
C1594 C 0.55032 0.9796 0.82992 0.0
C1595 C 0.53739 0.98028 0.82464 0.0
C1596 C 0.51464 0.9924 0.85109 0.0
C1597 C 0.51895 0.00571 0.86092 0.0
C1598 C 0.52394 0.00645 0.87649 0.0
C1599 C 0.52477 0.9939 0.88251 0.0
C1600 C 0.51979 0.98028 0.87281 0.0
C1601 C 0.51477 0.97955 0.85719 0.0
C1602 C 0.48697 0.99192 0.84006 0.0
C1603 C 0.48628 0.00515 0.84498 0.0
C1604 C 0.47633 0.00427 0.85614 0.0
C1605 C 0.46671 0.99006 0.86249 0.0
C1606 C 0.46732 0.97676 0.8573 0.0
C1607 C 0.47742 0.97772 0.84626 0.0
C1608 C 0.49697 0.00486 0.73727 0.0
C1609 C 0.57558 0.99095 0.84541 0.0
H1610 H 0.98334 0.48694 0.73443 0.0
H1611 H 0.03212 0.61356 0.86477 0.0
H1612 H 0.98438 0.47885 0.81763 0.0
H1613 H 0.98039 0.45402 0.80637 0.0
H1614 H 0.02788 0.46889 0.81794 0.0
H1615 H 0.03176 0.49379 0.82919 0.0
H1616 H 0.984 0.50461 0.80024 0.0
H1617 H 0.97941 0.49657 0.77235 0.0
H1618 H 0.02508 0.50348 0.7719 0.0
H1619 H 0.02957 0.51167 0.79978 0.0
H1620 H 0.98607 0.53055 0.82002 0.0
H1621 H 0.98213 0.54746 0.80271 0.0
H1622 H 0.02709 0.56388 0.78671 0.0
H1623 H 0.03095 0.54688 0.80423 0.0
H1624 H 0.99273 0.53616 0.85545 0.0
H1625 H 0.99469 0.56059 0.86525 0.0
H1626 H 0.03928 0.58596 0.8476 0.0
H1627 H 0.03723 0.56141 0.83803 0.0
H1628 H 0.9934 0.5108 0.87204 0.0
H1629 H 0.99479 0.52191 0.8983 0.0
H1630 H 0.04228 0.55543 0.89446 0.0
H1631 H 0.04059 0.54444 0.86799 0.0
H1632 H 0.98982 0.48196 0.8555 0.0
H1633 H 0.99069 0.46497 0.8749 0.0
H1634 H 0.03981 0.49354 0.88073 0.0
H1635 H 0.03866 0.51077 0.86173 0.0
O1636 O 0.98543 0.49025 0.74542 0.0
O1637 O 0.00899 0.49394 0.74583 0.0
O1638 O 0.00813 0.59013 0.86997 0.0
O1639 O 0.03105 0.60373 0.86101 0.0
C1640 C 0.01087 0.50356 0.82974 0.0
C1641 C 0.00984 0.51348 0.81895 0.0
C1642 C 0.01115 0.52771 0.82436 0.0
C1643 C 0.01377 0.53218 0.84047 0.0
C1644 C 0.015 0.52236 0.85123 0.0
C1645 C 0.0135 0.50804 0.84588 0.0
C1646 C 0.00837 0.48812 0.8241 0.0
C1647 C 0.99389 0.47671 0.81779 0.0
C1648 C 0.99166 0.46258 0.81132 0.0
C1649 C 0.00386 0.45959 0.81114 0.0
C1650 C 0.01826 0.47086 0.81799 0.0
C1651 C 0.0205 0.48506 0.82439 0.0
C1652 C 0.00715 0.50883 0.80198 0.0
C1653 C 0.99304 0.50451 0.79406 0.0
C1654 C 0.99043 0.49986 0.77814 0.0
C1655 C 0.00188 0.4994 0.76989 0.0
C1656 C 0.01602 0.50372 0.7779 0.0
C1657 C 0.01862 0.5084 0.79381 0.0
C1658 C 0.00877 0.53753 0.81332 0.0
C1659 C 0.99502 0.53774 0.8127 0.0
C1660 C 0.99277 0.54732 0.80277 0.0
C1661 C 0.00429 0.55693 0.79333 0.0
C1662 C 0.01807 0.55665 0.79393 0.0
C1663 C 0.02026 0.54693 0.80382 0.0
C1664 C 0.01488 0.54705 0.84612 0.0
C1665 C 0.00293 0.54701 0.85377 0.0
C1666 C 0.00407 0.56098 0.85932 0.0
C1667 C 0.01716 0.57524 0.85723 0.0
C1668 C 0.02905 0.57519 0.84942 0.0
C1669 C 0.02791 0.56121 0.84392 0.0
C1670 C 0.01688 0.52685 0.86816 0.0
C1671 C 0.0042 0.52025 0.87707 0.0
C1672 C 0.00504 0.52663 0.89208 0.0
C1673 C 0.01861 0.53969 0.89843 0.0
C1674 C 0.03158 0.54556 0.88981 0.0
C1675 C 0.0307 0.53922 0.87477 0.0
C1676 C 0.01417 0.49753 0.85725 0.0
C1677 C 0.00074 0.48448 0.86097 0.0
C1678 C 0.0013 0.47475 0.87198 0.0
C1679 C 0.01534 0.47785 0.87938 0.0
C1680 C 0.02879 0.49093 0.87546 0.0
C1681 C 0.02819 0.50073 0.86454 0.0
C1682 C 0.99905 0.49438 0.753 0.0
C1683 C 0.01845 0.59011 0.86314 0.0
H1684 H 0.47288 0.51634 0.72082 0.0
H1685 H 0.59932 0.61281 0.84654 0.0
H1686 H 0.462 0.5184 0.80506 0.0
H1687 H 0.43955 0.49313 0.79704 0.0
H1688 H 0.4641 0.47027 0.8133 0.0
H1689 H 0.48605 0.49541 0.82168 0.0
H1690 H 0.49061 0.54591 0.78422 0.0
H1691 H 0.48256 0.53717 0.75667 0.0
H1692 H 0.48837 0.49742 0.76359 0.0
H1693 H 0.49658 0.5064 0.79106 0.0
H1694 H 0.52444 0.57448 0.79946 0.0
H1695 H 0.5444 0.58666 0.78127 0.0
H1696 H 0.54644 0.54426 0.77592 0.0
H1697 H 0.52703 0.5325 0.79453 0.0
H1698 H 0.52362 0.57999 0.83571 0.0
H1699 H 0.54844 0.60286 0.84335 0.0
H1700 H 0.57044 0.5758 0.83415 0.0
H1701 H 0.54553 0.553 0.82668 0.0
H1702 H 0.50231 0.56143 0.85715 0.0
H1703 H 0.51289 0.57125 0.88422 0.0
H1704 H 0.53684 0.54537 0.88288 0.0
H1705 H 0.52674 0.53612 0.85575 0.0
H1706 H 0.46673 0.52472 0.84246 0.0
H1707 H 0.45068 0.50723 0.86156 0.0
H1708 H 0.48523 0.49469 0.87236 0.0
H1709 H 0.50069 0.51151 0.85281 0.0
O1710 O 0.4761 0.51959 0.73174 0.0
O1711 O 0.47919 0.4993 0.73594 0.0
O1712 O 0.57748 0.61734 0.84815 0.0
O1713 O 0.58935 0.60395 0.84357 0.0
C1714 C 0.48951 0.52384 0.81816 0.0
C1715 C 0.49893 0.53216 0.80634 0.0
C1716 C 0.51323 0.54552 0.81039 0.0
C1717 C 0.51772 0.55102 0.82622 0.0
C1718 C 0.50822 0.54283 0.83801 0.0
C1719 C 0.49421 0.52911 0.83402 0.0
C1720 C 0.47557 0.50868 0.81402 0.0
C1721 C 0.46237 0.50787 0.80704 0.0
C1722 C 0.44962 0.49344 0.80239 0.0
C1723 C 0.44995 0.4796 0.80456 0.0
C1724 C 0.46323 0.48059 0.81175 0.0
C1725 C 0.47586 0.49496 0.81648 0.0
C1726 C 0.494 0.5267 0.78965 0.0
C1727 C 0.49012 0.53532 0.77975 0.0
C1728 C 0.48552 0.53029 0.76403 0.0
C1729 C 0.48477 0.51656 0.75793 0.0
C1730 C 0.48877 0.50801 0.76791 0.0
C1731 C 0.49339 0.51306 0.78362 0.0
C1732 C 0.52427 0.5526 0.7983 0.0
C1733 C 0.52917 0.56784 0.79427 0.0
C1734 C 0.5405 0.57473 0.78381 0.0
C1735 C 0.54709 0.56646 0.77719 0.0
C1736 C 0.54181 0.55105 0.78098 0.0
C1737 C 0.53058 0.54424 0.79147 0.0
C1738 C 0.53282 0.56489 0.83062 0.0
C1739 C 0.53382 0.57904 0.83537 0.0
C1740 C 0.54801 0.59208 0.83971 0.0
C1741 C 0.56144 0.59116 0.83935 0.0
C1742 C 0.56034 0.57692 0.83455 0.0
C1743 C 0.54614 0.56389 0.83025 0.0
C1744 C 0.51366 0.54796 0.85462 0.0
C1745 C 0.50976 0.55783 0.86278 0.0
C1746 C 0.51581 0.56343 0.87814 0.0
C1747 C 0.52554 0.55893 0.88557 0.0
C1748 C 0.5292 0.54883 0.87743 0.0
C1749 C 0.52346 0.54355 0.862 0.0
C1750 C 0.48497 0.51955 0.84643 0.0
C1751 C 0.47082 0.51825 0.84906 0.0
C1752 C 0.46171 0.5083 0.86001 0.0
C1753 C 0.46662 0.49949 0.86846 0.0
C1754 C 0.48095 0.50109 0.8659 0.0
C1755 C 0.48995 0.5109 0.85492 0.0
C1756 C 0.47986 0.51125 0.74123 0.0
C1757 C 0.57654 0.60497 0.84396 0.0
H1758 H 0.6142 0.82922 0.66465 0.0
H1759 H 0.63253 0.71757 0.55714 0.0
H1760 H 0.606 0.82724 0.57945 0.0
H1761 H 0.61169 0.85397 0.58569 0.0
H1762 H 0.65818 0.87077 0.57404 0.0
H1763 H 0.65217 0.84422 0.56734 0.0
H1764 H 0.60204 0.79804 0.60226 0.0
H1765 H 0.60271 0.80789 0.62899 0.0
H1766 H 0.64981 0.84312 0.62622 0.0
H1767 H 0.64902 0.83305 0.59958 0.0
H1768 H 0.60348 0.76623 0.59044 0.0
H1769 H 0.6091 0.75077 0.60842 0.0
H1770 H 0.65535 0.78883 0.61689 0.0
H1771 H 0.64955 0.80408 0.59923 0.0
H1772 H 0.5999 0.7617 0.55174 0.0
H1773 H 0.59845 0.73649 0.54723 0.0
H1774 H 0.64483 0.75624 0.56724 0.0
H1775 H 0.64619 0.7814 0.57145 0.0
H1776 H 0.60463 0.78686 0.5261 0.0
H1777 H 0.60762 0.77634 0.50095 0.0
H1778 H 0.65252 0.78607 0.51813 0.0
H1779 H 0.64949 0.79655 0.54299 0.0
H1780 H 0.60523 0.8204 0.54344 0.0
H1781 H 0.60797 0.83709 0.52204 0.0
H1782 H 0.65205 0.84203 0.51469 0.0
H1783 H 0.64939 0.82568 0.53627 0.0
O1784 O 0.61419 0.82551 0.65407 0.0
O1785 O 0.63835 0.84345 0.65201 0.0
O1786 O 0.60909 0.71789 0.54829 0.0
O1787 O 0.63281 0.72742 0.5587 0.0
C1788 C 0.62571 0.81773 0.56997 0.0
C1789 C 0.6249 0.80885 0.58276 0.0
C1790 C 0.62412 0.79433 0.5802 0.0
C1791 C 0.62381 0.78855 0.56483 0.0
C1792 C 0.62479 0.79749 0.55207 0.0
C1793 C 0.62559 0.81202 0.5546 0.0
C1794 C 0.62866 0.83384 0.57287 0.0
C1795 C 0.61733 0.83677 0.57807 0.0
C1796 C 0.62065 0.85203 0.58172 0.0
C1797 C 0.6354 0.86459 0.58035 0.0
C1798 C 0.64661 0.8615 0.57492 0.0
C1799 C 0.64325 0.84631 0.57116 0.0
C1800 C 0.62542 0.81494 0.59895 0.0
C1801 C 0.61248 0.80789 0.60746 0.0
C1802 C 0.6129 0.81354 0.62272 0.0
C1803 C 0.6263 0.82633 0.62973 0.0
C1804 C 0.63929 0.8333 0.62116 0.0
C1805 C 0.63885 0.82761 0.60592 0.0
C1806 C 0.6261 0.78628 0.59357 0.0
C1807 C 0.61466 0.77134 0.59659 0.0
C1808 C 0.61795 0.76249 0.60674 0.0
C1809 C 0.63272 0.76849 0.61401 0.0
C1810 C 0.6438 0.78387 0.61171 0.0
C1811 C 0.64051 0.79266 0.60161 0.0
C1812 C 0.62308 0.77331 0.56207 0.0
C1813 C 0.60972 0.76054 0.55512 0.0
C1814 C 0.60893 0.74616 0.55258 0.0
C1815 C 0.62151 0.74433 0.55694 0.0
C1816 C 0.63492 0.75722 0.5638 0.0
C1817 C 0.63571 0.77159 0.56627 0.0
C1818 C 0.62677 0.79228 0.53638 0.0
C1819 C 0.61514 0.78683 0.52431 0.0
C1820 C 0.61687 0.78087 0.51001 0.0
C1821 C 0.63022 0.7802 0.5077 0.0
C1822 C 0.642 0.78615 0.51968 0.0
C1823 C 0.64031 0.79218 0.53385 0.0
C1824 C 0.62702 0.82166 0.54128 0.0
C1825 C 0.61545 0.82507 0.53717 0.0
C1826 C 0.61705 0.83461 0.52501 0.0
C1827 C 0.63018 0.84075 0.51666 0.0
C1828 C 0.64171 0.83725 0.52076 0.0
C1829 C 0.64019 0.8279 0.53305 0.0
C1830 C 0.62671 0.83232 0.64593 0.0
C1831 C 0.6207 0.72907 0.55435 0.0
H1832 H 0.17653 0.82944 0.6778 0.0
H1833 H 0.08306 0.71087 0.54407 0.0
H1834 H 0.17722 0.84124 0.59476 0.0
H1835 H 0.19894 0.86503 0.60685 0.0
H1836 H 0.22932 0.84844 0.59354 0.0
H1837 H 0.20735 0.82444 0.58148 0.0
H1838 H 0.15407 0.81748 0.61196 0.0
H1839 H 0.16024 0.82375 0.64009 0.0
H1840 H 0.19481 0.81029 0.63794 0.0
H1841 H 0.18838 0.80389 0.60983 0.0
H1842 H 0.12836 0.79557 0.5906 0.0
H1843 H 0.10889 0.7821 0.60889 0.0
H1844 H 0.13204 0.75758 0.62391 0.0
H1845 H 0.15171 0.77134 0.60562 0.0
H1846 H 0.12527 0.78806 0.55459 0.0
H1847 H 0.10162 0.76494 0.54436 0.0
H1848 H 0.11897 0.73589 0.56182 0.0
H1849 H 0.14262 0.75913 0.57183 0.0
H1850 H 0.15109 0.81379 0.53956 0.0
H1851 H 0.14146 0.80612 0.51223 0.0
H1852 H 0.15102 0.76825 0.51367 0.0
H1853 H 0.16042 0.77592 0.54116 0.0
H1854 H 0.17627 0.84001 0.5579 0.0
H1855 H 0.19165 0.85737 0.53857 0.0
H1856 H 0.20993 0.82702 0.52838 0.0
H1857 H 0.19393 0.80941 0.54734 0.0
O1858 O 0.17422 0.82681 0.66667 0.0
O1859 O 0.19189 0.8198 0.66493 0.0
O1860 O 0.08392 0.73566 0.5392 0.0
O1861 O 0.09228 0.72021 0.548 0.0
C1862 C 0.17725 0.81624 0.58132 0.0
C1863 C 0.16702 0.80637 0.59182 0.0
C1864 C 0.15327 0.79313 0.58604 0.0
C1865 C 0.15011 0.78927 0.56982 0.0
C1866 C 0.16045 0.79899 0.55932 0.0
C1867 C 0.17392 0.8126 0.56506 0.0
C1868 C 0.19072 0.83108 0.58743 0.0
C1869 C 0.18856 0.84275 0.59443 0.0
C1870 C 0.20095 0.85628 0.60137 0.0
C1871 C 0.21577 0.85846 0.60131 0.0
C1872 C 0.21801 0.84703 0.59373 0.0
C1873 C 0.20552 0.83336 0.58688 0.0
C1874 C 0.17066 0.81007 0.60891 0.0
C1875 C 0.16286 0.81575 0.61762 0.0
C1876 C 0.16647 0.81939 0.63367 0.0
C1877 C 0.178 0.81749 0.64128 0.0
C1878 C 0.18584 0.81186 0.63246 0.0
C1879 C 0.1822 0.80819 0.61642 0.0
C1880 C 0.14138 0.78439 0.59682 0.0
C1881 C 0.12921 0.78727 0.59783 0.0
C1882 C 0.1182 0.77968 0.60834 0.0
C1883 C 0.11906 0.76891 0.61787 0.0
C1884 C 0.13115 0.76583 0.61667 0.0
C1885 C 0.14233 0.77364 0.60628 0.0
C1886 C 0.13567 0.77524 0.56384 0.0
C1887 C 0.12395 0.77669 0.55612 0.0
C1888 C 0.11045 0.76347 0.55033 0.0
C1889 C 0.10842 0.74856 0.55225 0.0
C1890 C 0.12017 0.74719 0.56012 0.0
C1891 C 0.13367 0.76043 0.56587 0.0
C1892 C 0.15649 0.79544 0.54228 0.0
C1893 C 0.15139 0.80404 0.53386 0.0
C1894 C 0.14592 0.79964 0.51824 0.0
C1895 C 0.14542 0.78653 0.51077 0.0
C1896 C 0.15106 0.77827 0.51914 0.0
C1897 C 0.15653 0.78268 0.53478 0.0
C1898 C 0.18404 0.8235 0.554 0.0
C1899 C 0.18369 0.8372 0.55154 0.0
C1900 C 0.19256 0.84714 0.54054 0.0
C1901 C 0.20209 0.84365 0.53188 0.0
C1902 C 0.20256 0.82998 0.53462 0.0
C1903 C 0.19354 0.81996 0.54553 0.0
C1904 C 0.18183 0.82142 0.65833 0.0
C1905 C 0.09412 0.73447 0.54607 0.0
H1906 H 0.19932 0.38215 0.68422 0.0
H1907 H 0.07625 0.34357 0.55445 0.0
H1908 H 0.21171 0.38746 0.60251 0.0
H1909 H 0.23162 0.38323 0.61503 0.0
H1910 H 0.20783 0.33573 0.59559 0.0
H1911 H 0.18808 0.34001 0.58314 0.0
H1912 H 0.18303 0.38906 0.61994 0.0
H1913 H 0.19043 0.3905 0.64775 0.0
H1914 H 0.18434 0.34425 0.64217 0.0
H1915 H 0.17675 0.34288 0.61445 0.0
H1916 H 0.14883 0.38227 0.60223 0.0
H1917 H 0.12698 0.37493 0.61793 0.0
H1918 H 0.12608 0.33188 0.62671 0.0
H1919 H 0.14719 0.33888 0.6103 0.0
H1920 H 0.1521 0.38573 0.56522 0.0
H1921 H 0.12773 0.38355 0.55632 0.0
H1922 H 0.10418 0.33605 0.56931 0.0
H1923 H 0.12864 0.33834 0.578 0.0
H1924 H 0.17486 0.38497 0.54404 0.0
H1925 H 0.16297 0.38074 0.51738 0.0
H1926 H 0.13441 0.33203 0.52451 0.0
H1927 H 0.14603 0.33648 0.5511 0.0
H1928 H 0.2086 0.38791 0.56436 0.0
H1929 H 0.22486 0.38728 0.54443 0.0
H1930 H 0.19097 0.33967 0.53051 0.0
H1931 H 0.17524 0.34024 0.55088 0.0
O1932 O 0.1963 0.38131 0.67321 0.0
O1933 O 0.19309 0.35754 0.66969 0.0
O1934 O 0.09871 0.36919 0.55134 0.0
O1935 O 0.08605 0.34475 0.55788 0.0
C1936 C 0.18496 0.36538 0.58693 0.0
C1937 C 0.17519 0.36526 0.59826 0.0
C1938 C 0.16107 0.3641 0.59354 0.0
C1939 C 0.15698 0.3636 0.57749 0.0
C1940 C 0.16671 0.36371 0.56619 0.0
C1941 C 0.18072 0.36463 0.57087 0.0
C1942 C 0.19848 0.36404 0.59192 0.0
C1943 C 0.21105 0.37628 0.60064 0.0
C1944 C 0.22237 0.37386 0.60776 0.0
C1945 C 0.22112 0.35912 0.60637 0.0
C1946 C 0.20895 0.34716 0.59694 0.0
C1947 C 0.19777 0.34962 0.58972 0.0
C1948 C 0.17952 0.36595 0.61516 0.0
C1949 C 0.18329 0.37925 0.62476 0.0
C1950 C 0.18753 0.38005 0.64063 0.0
C1951 C 0.18804 0.36752 0.64717 0.0
C1952 C 0.18412 0.35413 0.6375 0.0
C1953 C 0.17985 0.35334 0.62165 0.0
C1954 C 0.14961 0.36111 0.60511 0.0
C1955 C 0.144 0.37135 0.60771 0.0
C1956 C 0.13155 0.36715 0.61675 0.0
C1957 C 0.12463 0.35271 0.62343 0.0
C1958 C 0.13089 0.34292 0.62146 0.0
C1959 C 0.14314 0.34702 0.61229 0.0
C1960 C 0.1421 0.36224 0.57234 0.0
C1961 C 0.14165 0.37487 0.56613 0.0
C1962 C 0.12772 0.37359 0.56107 0.0
C1963 C 0.11399 0.35962 0.56214 0.0
C1964 C 0.11452 0.34697 0.56835 0.0
C1965 C 0.12847 0.34826 0.57337 0.0
C1966 C 0.16122 0.36104 0.54946 0.0
C1967 C 0.16619 0.37338 0.5397 0.0
C1968 C 0.15941 0.37092 0.5245 0.0
C1969 C 0.1476 0.35608 0.51891 0.0
C1970 C 0.14323 0.34365 0.52856 0.0
C1971 C 0.14993 0.34613 0.5437 0.0
C1972 C 0.19067 0.36418 0.55894 0.0
C1973 C 0.20477 0.37734 0.55703 0.0
C1974 C 0.21398 0.37698 0.54556 0.0
C1975 C 0.20922 0.36344 0.5358 0.0
C1976 C 0.19511 0.35024 0.53792 0.0
C1977 C 0.186 0.35059 0.54943 0.0
C1978 C 0.19261 0.36843 0.66402 0.0
C1979 C 0.09916 0.35821 0.55678 0.0
C1980 C 0.9946 0.38922 0.05555 0.0
C1981 C 0.00973 0.39258 0.0545 0.0
C1982 C 0.99091 0.39662 0.06732 0.0
C1983 C 0.00906 0.43125 0.09574 0.0
H1984 H 0.97004 0.41032 0.11373 0.0
C1985 C 0.97849 0.43967 0.15239 0.0
C1986 C 0.98497 0.45587 0.15301 0.0
C1987 C 0.98038 0.43178 0.13966 0.0
C1988 C 0.98105 0.41632 0.10896 0.0
H1989 H 0.03275 0.40583 0.06533 0.0
H1990 H 0.02627 0.41817 0.08625 0.0
H1991 H 0.97605 0.39646 0.09396 0.0
H1992 H 0.99787 0.47651 0.14069 0.0
H1993 H 0.00057 0.46274 0.11804 0.0
H1994 H 0.01446 0.45079 0.11132 0.0
C1995 C 0.01729 0.4103 0.07767 0.0
C1996 C 0.98442 0.40841 0.09742 0.0
C1997 C 0.02101 0.40312 0.06574 0.0
C1998 C 0.99284 0.46401 0.14045 0.0
C1999 C 0.99449 0.4561 0.12757 0.0
C2000 C 0.0058 0.43905 0.10744 0.0
C2001 C 0.00224 0.40738 0.07847 0.0
C2002 C 0.99851 0.41575 0.09069 0.0
C2003 C 0.98862 0.43992 0.12717 0.0
C2004 C 0.99176 0.43171 0.11424 0.0
H2005 H 0.98568 0.38126 0.04696 0.0
H2006 H 0.97925 0.39421 0.06739 0.0
H2007 H 0.0199 0.43744 0.09066 0.0
H2008 H 0.97256 0.43319 0.16209 0.0
H2009 H 0.9759 0.4194 0.13995 0.0
C2010 C 0.59381 0.59031 0.08519 0.0
C2011 C 0.60975 0.59836 0.0855 0.0
C2012 C 0.58645 0.57964 0.09629 0.0
C2013 C 0.59285 0.56911 0.13571 0.0
H2014 H 0.55478 0.53131 0.12371 0.0
C2015 C 0.56077 0.52156 0.17847 0.0
C2016 C 0.54521 0.51678 0.17886 0.0
C2017 C 0.5692 0.53081 0.16678 0.0
C2018 C 0.56539 0.54184 0.12722 0.0
H2019 H 0.63062 0.60273 0.0982 0.0
H2020 H 0.61783 0.58375 0.11741 0.0
H2021 H 0.5687 0.54879 0.10381 0.0
H2022 H 0.52615 0.51754 0.16716 0.0
H2023 H 0.54084 0.53359 0.14667 0.0
H2024 H 0.58954 0.56203 0.15912 0.0
C2025 C 0.61094 0.58549 0.10856 0.0
C2026 C 0.57333 0.5519 0.11585 0.0
C2027 C 0.61827 0.59617 0.09745 0.0
C2028 C 0.53817 0.52119 0.16721 0.0
C2029 C 0.54653 0.53024 0.15542 0.0
C2030 C 0.58499 0.55896 0.14705 0.0
C2031 C 0.59492 0.57702 0.10807 0.0
C2032 C 0.58703 0.5658 0.11999 0.0
C2033 C 0.56215 0.53523 0.15514 0.0
C2034 C 0.57106 0.54536 0.14295 0.0
H2035 H 0.58707 0.59222 0.0763 0.0
H2036 H 0.57412 0.57365 0.09578 0.0
H2037 H 0.60325 0.57979 0.13937 0.0
H2038 H 0.56647 0.51835 0.18736 0.0
H2039 H 0.58121 0.53445 0.16679 0.0
C2040 C 0.41052 0.99287 0.04841 0.0
C2041 C 0.40248 0.00101 0.04883 0.0
C2042 C 0.42073 0.99469 0.06095 0.0
C2043 C 0.44306 0.0204 0.09562 0.0
H2044 H 0.43879 0.9829 0.11252 0.0
C2045 C 0.46644 0.02024 0.15797 0.0
C2046 C 0.47123 0.00949 0.16119 0.0
C2047 C 0.45994 0.01999 0.14317 0.0
C2048 C 0.44042 0.99354 0.10781 0.0
H2049 H 0.39784 0.01648 0.06292 0.0
H2050 H 0.41588 0.01994 0.08475 0.0
H2051 H 0.42417 0.98108 0.08842 0.0
H2052 H 0.47361 0.99048 0.15133 0.0
H2053 H 0.46271 0.9903 0.1253 0.0
H2054 H 0.45933 0.03292 0.11492 0.0
C2055 C 0.4147 0.01254 0.07458 0.0
C2056 C 0.43198 0.99246 0.09399 0.0
C2057 C 0.40443 0.01062 0.0621 0.0
C2058 C 0.46986 0.9988 0.14918 0.0
C2059 C 0.46354 0.99867 0.13431 0.0
C2060 C 0.45167 0.02151 0.10932 0.0
C2061 C 0.42291 0.00454 0.07417 0.0
C2062 C 0.43301 0.00586 0.08792 0.0
C2063 C 0.45824 0.00907 0.13117 0.0
C2064 C 0.45024 0.00807 0.11578 0.0
H2065 H 0.40887 0.9851 0.03839 0.0
H2066 H 0.42689 0.98835 0.06035 0.0
H2067 H 0.44417 0.03093 0.09113 0.0
H2068 H 0.46717 0.02847 0.16708 0.0
H2069 H 0.45575 0.028 0.14135 0.0
C2070 C 0.39875 0.00913 0.96748 0.0
C2071 C 0.39437 0.99835 0.97896 0.0
C2072 C 0.40439 0.0067 0.9538 0.0
C2073 C 0.41024 0.97766 0.93045 0.0
H2074 H 0.44291 0.0151 0.91537 0.0
C2075 C 0.45367 0.97948 0.8871 0.0
C2076 C 0.45639 0.98925 0.87473 0.0
C2077 C 0.4446 0.97933 0.89898 0.0
C2078 C 0.43371 0.00455 0.91935 0.0
H2079 H 0.39204 0.97638 0.98507 0.0
H2080 H 0.40257 0.97236 0.96143 0.0
H2081 H 0.42989 0.01705 0.93759 0.0
H2082 H 0.45103 0.006 0.86494 0.0
H2083 H 0.43575 0.00613 0.88596 0.0
H2084 H 0.41478 0.96523 0.91243 0.0
C2085 C 0.40123 0.9825 0.96271 0.0
C2086 C 0.42612 0.00564 0.93206 0.0
C2087 C 0.39521 0.98478 0.97629 0.0
C2088 C 0.44953 0.99861 0.87443 0.0
C2089 C 0.44068 0.99862 0.88641 0.0
C2090 C 0.41805 0.97657 0.91785 0.0
C2091 C 0.40626 0.99364 0.95144 0.0
C2092 C 0.41419 0.99224 0.93775 0.0
C2093 C 0.43824 0.9891 0.89888 0.0
C2094 C 0.42979 0.99003 0.91214 0.0
H2095 H 0.39806 0.01963 0.96922 0.0
H2096 H 0.4076 0.01529 0.94522 0.0
H2097 H 0.40103 0.96709 0.93434 0.0
H2098 H 0.4589 0.97228 0.88791 0.0
H2099 H 0.44302 0.97199 0.90854 0.0
C2100 C 0.02041 0.39131 0.97533 0.0
C2101 C 0.01166 0.3901 0.98792 0.0
C2102 C 0.02169 0.40113 0.96355 0.0
C2103 C 0.02856 0.42991 0.9456 0.0
H2104 H 0.99103 0.42651 0.92759 0.0
C2105 C 0.02609 0.47391 0.9047 0.0
C2106 C 0.01588 0.4676 0.89129 0.0
C2107 C 0.02624 0.46432 0.91613 0.0
C2108 C 0.00159 0.42753 0.93246 0.0
H2109 H 0.99666 0.39729 0.99778 0.0
H2110 H 0.99886 0.41451 0.97718 0.0
H2111 H 0.99011 0.41012 0.94849 0.0
H2112 H 0.99815 0.44615 0.87923 0.0
H2113 H 0.99815 0.42952 0.89941 0.0
H2114 H 0.04004 0.44744 0.92961 0.0
C2115 C 0.00495 0.40812 0.97653 0.0
C2116 C 0.00108 0.41826 0.9445 0.0
C2117 C 0.00376 0.39838 0.98832 0.0
C2118 C 0.00595 0.45145 0.88953 0.0
C2119 C 0.00598 0.44191 0.90104 0.0
C2120 C 0.0291 0.43935 0.93369 0.0
C2121 C 0.01388 0.40955 0.964 0.0
C2122 C 0.01455 0.41937 0.95119 0.0
C2123 C 0.01607 0.44826 0.91449 0.0
C2124 C 0.0156 0.43821 0.927 0.0
H2125 H 0.02606 0.38448 0.97451 0.0
H2126 H 0.02846 0.40185 0.95389 0.0
H2127 H 0.0391 0.431 0.95058 0.0
H2128 H 0.03373 0.48631 0.90658 0.0
H2129 H 0.03401 0.46953 0.92647 0.0
C2130 C 0.59314 0.60802 0.01571 0.0
C2131 C 0.60444 0.60372 0.01714 0.0
C2132 C 0.58375 0.60415 0.00189 0.0
C2133 C 0.58262 0.59666 0.96022 0.0
H2134 H 0.53869 0.57133 0.96068 0.0
C2135 C 0.54152 0.58122 0.90501 0.0
C2136 C 0.53244 0.56514 0.90158 0.0
C2137 C 0.54946 0.58704 0.91967 0.0
C2138 C 0.55093 0.57851 0.96044 0.0
H2139 H 0.61492 0.59221 0.00516 0.0
H2140 H 0.5988 0.58587 0.98087 0.0
H2141 H 0.55473 0.5797 0.98537 0.0
H2142 H 0.52394 0.54254 0.91076 0.0
H2143 H 0.53749 0.55275 0.93661 0.0
H2144 H 0.57888 0.59548 0.93533 0.0
C2145 C 0.59712 0.59207 0.99052 0.0
C2146 C 0.56006 0.58332 0.97451 0.0
C2147 C 0.60627 0.59562 0.00443 0.0
C2148 C 0.5309 0.55499 0.9132 0.0
C2149 C 0.53857 0.56081 0.92794 0.0
C2150 C 0.57348 0.59213 0.9462 0.0
C2151 C 0.58576 0.59624 0.98916 0.0
C2152 C 0.57599 0.5922 0.97447 0.0
C2153 C 0.54816 0.57686 0.93119 0.0
C2154 C 0.55759 0.58281 0.94618 0.0
H2155 H 0.59142 0.6142 0.02535 0.0
H2156 H 0.57504 0.60749 0.00107 0.0
H2157 H 0.59488 0.60355 0.95994 0.0
H2158 H 0.54295 0.58924 0.89617 0.0
H2159 H 0.55678 0.59946 0.92194 0.0
C2160 C 0.01237 0.62524 0.99896 0.0
C2161 C 0.00254 0.61827 0.01074 0.0
C2162 C 0.01466 0.61612 0.98785 0.0
C2163 C 0.99744 0.57608 0.96994 0.0
H2164 H 0.03803 0.59078 0.95629 0.0
C2165 C 0.01054 0.53988 0.92566 0.0
C2166 C 0.01874 0.54804 0.91319 0.0
C2167 C 0.00941 0.54786 0.93882 0.0
C2168 C 0.02663 0.58655 0.95997 0.0
H2169 H 0.98659 0.59649 0.01974 0.0
H2170 H 0.99087 0.58044 0.00059 0.0
H2171 H 0.03401 0.60587 0.97664 0.0
H2172 H 0.03231 0.57102 0.90491 0.0
H2173 H 0.03054 0.58486 0.92791 0.0
H2174 H 0.99004 0.55683 0.95313 0.0
C2175 C 0.99685 0.59291 -0.00012 0.0
C2176 C 0.02431 0.59521 0.97159 0.0
C2177 C 0.99447 0.60205 0.01089 0.0
C2178 C 0.02618 0.56436 0.91442 0.0
C2179 C 0.02512 0.57232 0.9276 0.0
C2180 C 0.99977 0.56739 0.95836 0.0
C2181 C 0.00706 0.59985 0.98828 0.0
C2182 C 0.00965 0.5902 0.97655 0.0
C2183 C 0.01653 0.56415 0.93982 0.0
C2184 C 0.01435 0.57264 0.9531 0.0
H2185 H 0.01826 0.63773 0.99835 0.0
H2186 H 0.0223 0.62182 0.97886 0.0
H2187 H 0.98596 0.57198 0.97335 0.0
H2188 H 0.00483 0.52732 0.92517 0.0
H2189 H 0.00285 0.54127 0.94817 0.0
C2190 C 0.39223 0.4152 0.97035 0.0
C2191 C 0.39585 0.40336 0.97223 0.0
C2192 C 0.39884 0.42587 0.95895 0.0
C2193 C 0.43235 0.44146 0.9352 0.0
H2194 H 0.41075 0.45761 0.91072 0.0
C2195 C 0.45631 0.47406 0.8808 0.0
C2196 C 0.45685 0.48842 0.87971 0.0
C2197 C 0.44801 0.46401 0.89198 0.0
C2198 C 0.41693 0.45327 0.91758 0.0
H2199 H 0.40855 0.39289 0.96304 0.0
H2200 H 0.41961 0.41103 0.94304 0.0
H2201 H 0.39764 0.43921 0.93042 0.0
H2202 H 0.44856 0.50317 0.88923 0.0
H2203 H 0.43376 0.48535 0.90866 0.0
H2204 H 0.45149 0.45519 0.9222 0.0
C2205 C 0.41214 0.41251 0.95066 0.0
C2206 C 0.40945 0.44277 0.92888 0.0
C2207 C 0.4057 0.40202 0.96209 0.0
C2208 C 0.44833 0.49218 0.88969 0.0
C2209 C 0.43988 0.482 0.90083 0.0
C2210 C 0.43972 0.45177 0.92386 0.0
C2211 C 0.4091 0.4248 0.94915 0.0
C2212 C 0.41703 0.43657 0.93766 0.0
C2213 C 0.4399 0.46796 0.90227 0.0
C2214 C 0.43206 0.45763 0.91479 0.0
H2215 H 0.3847 0.41655 0.978 0.0
H2216 H 0.39629 0.43521 0.95815 0.0
H2217 H 0.43871 0.43731 0.94204 0.0
H2218 H 0.46236 0.47057 0.87303 0.0
H2219 H 0.44798 0.45311 0.89262 0.0
C2220 C 0.60162 0.99821 0.9976 0.0
C2221 C 0.60084 0.00557 0.01147 0.0
C2222 C 0.5924 0.99663 0.98431 0.0
C2223 C 0.5802 0.00569 0.95617 0.0
H2224 H 0.53681 0.99065 0.95677 0.0
C2225 C 0.54566 0.00916 0.90334 0.0
C2226 C 0.53201 0.99552 0.8984 0.0
C2227 C 0.5532 0.01046 0.9178 0.0
C2228 C 0.54891 0.99482 0.95646 0.0
H2229 H 0.59047 0.01765 0.0224 0.0
H2230 H 0.57396 0.01467 0.99902 0.0
H2231 H 0.55173 0.99252 0.98098 0.0
H2232 H 0.51531 0.97274 0.90496 0.0
H2233 H 0.5286 0.97502 0.93037 0.0
H2234 H 0.57751 0.00795 0.93176 0.0
C2235 C 0.58154 0.0099 0.99855 0.0
C2236 C 0.55743 0.99601 0.97029 0.0
C2237 C 0.59095 0.01165 0.01184 0.0
C2238 C 0.52586 0.98335 0.90843 0.0
C2239 C 0.53338 0.9847 0.923 0.0
C2240 C 0.57175 0.00465 0.94244 0.0
C2241 C 0.58229 0.00248 0.98464 0.0
C2242 C 0.57314 0.0014 0.97022 0.0
C2243 C 0.54726 0.99818 0.92768 0.0
C2244 C 0.55603 0.99922 0.94242 0.0
H2245 H 0.60948 0.9938 0.997 0.0
H2246 H 0.59316 0.99081 0.97377 0.0
H2247 H 0.59232 0.00998 0.95581 0.0
H2248 H 0.55079 0.01867 0.89581 0.0
H2249 H 0.5638 0.02105 0.92117 0.0
C2250 C 0.60831 0.0175 0.08706 0.0
C2251 C 0.6055 0.00275 0.08152 0.0
C2252 C 0.60215 0.01926 0.10075 0.0
C2253 C 0.57045 0.99571 0.1251 0.0
H2254 H 0.59036 0.03159 0.15484 0.0
C2255 C 0.54508 0.99681 0.18291 0.0
C2256 C 0.54375 0.00997 0.18667 0.0
C2257 C 0.55393 0.99683 0.17095 0.0
C2258 C 0.58466 0.02155 0.14656 0.0
H2259 H 0.59498 0.97851 0.08653 0.0
H2260 H 0.58476 0.98162 0.11052 0.0
H2261 H 0.60372 0.02999 0.13242 0.0
H2262 H 0.55117 0.03369 0.1811 0.0
H2263 H 0.56684 0.03375 0.16027 0.0
H2264 H 0.55148 0.9872 0.13922 0.0
C2265 C 0.59118 0.99176 0.10407 0.0
C2266 C 0.59227 0.02064 0.13371 0.0
C2267 C 0.59713 0.98999 0.09035 0.0
C2268 C 0.55204 0.0234 0.1786 0.0
C2269 C 0.561 0.02344 0.16666 0.0
C2270 C 0.56293 0.99656 0.13795 0.0
C2271 C 0.59319 0.00631 0.10921 0.0
C2272 C 0.58528 0.00763 0.12288 0.0
C2273 C 0.56177 0.01004 0.1625 0.0
C2274 C 0.56996 0.00943 0.14887 0.0
H2275 H 0.61468 0.02755 0.08046 0.0
H2276 H 0.60388 0.03062 0.10432 0.0
H2277 H 0.5645 0.98572 0.11678 0.0
H2278 H 0.53915 0.9864 0.18913 0.0
H2279 H 0.55454 0.98642 0.16819 0.0
C2280 C 0.99006 0.61812 0.08865 0.0
C2281 C 0.99372 0.61421 0.07424 0.0
C2282 C 0.9865 0.60801 0.10073 0.0
C2283 C 0.99607 0.57932 0.11389 0.0
H2284 H 0.96269 0.56588 0.14073 0.0
C2285 C 0.98478 0.53211 0.1556 0.0
C2286 C 0.98089 0.5339 0.17067 0.0
C2287 C 0.98484 0.54167 0.14409 0.0
C2288 C 0.97218 0.56969 0.13344 0.0
H2289 H 0.99503 0.59625 0.06053 0.0
H2290 H 0.98897 0.57874 0.08148 0.0
H2291 H 0.9651 0.58327 0.12012 0.0
H2292 H 0.97362 0.54675 0.1855 0.0
H2293 H 0.97411 0.56384 0.16541 0.0
H2294 H 0.00344 0.5662 0.12715 0.0
C2295 C 0.98919 0.58967 0.08366 0.0
C2296 C 0.97352 0.5796 0.12165 0.0
C2297 C 0.99273 0.59971 0.07169 0.0
C2298 C 0.97662 0.54514 0.17392 0.0
C2299 C 0.97686 0.55487 0.16242 0.0
C2300 C 0.99484 0.56961 0.12568 0.0
C2301 C 0.98658 0.59394 0.09845 0.0
C2302 C 0.98533 0.58425 0.1116 0.0
C2303 C 0.98124 0.55342 0.14743 0.0
C2304 C 0.98272 0.56441 0.13542 0.0
H2305 H 0.99077 0.62928 0.09082 0.0
H2306 H 0.9845 0.61154 0.11204 0.0
H2307 H 0.00551 0.58303 0.10654 0.0
H2308 H 0.98784 0.52334 0.15273 0.0
H2309 H 0.98785 0.53991 0.13256 0.0
C2310 C 0.39609 0.38526 0.05194 0.0
C2311 C 0.39673 0.39544 0.04075 0.0
C2312 C 0.40568 0.39092 0.06564 0.0
C2313 C 0.41952 0.40791 0.09745 0.0
H2314 H 0.46242 0.43839 0.09693 0.0
C2315 C 0.45579 0.44352 0.15275 0.0
C2316 C 0.47015 0.44474 0.15555 0.0
C2317 C 0.44743 0.43722 0.13844 0.0
C2318 C 0.45049 0.4298 0.09721 0.0
H2319 H 0.40708 0.41946 0.03521 0.0
H2320 H 0.42417 0.42949 0.0592 0.0
H2321 H 0.44659 0.42774 0.07225 0.0
H2322 H 0.4871 0.44048 0.14552 0.0
H2323 H 0.47241 0.4295 0.12025 0.0
H2324 H 0.42328 0.41002 0.12234 0.0
C2325 C 0.41648 0.4171 0.05723 0.0
C2326 C 0.44143 0.42383 0.08314 0.0
C2327 C 0.40672 0.41142 0.0436 0.0
C2328 C 0.47604 0.43964 0.14366 0.0
C2329 C 0.46771 0.43346 0.12921 0.0
C2330 C 0.42851 0.41398 0.11148 0.0
C2331 C 0.41602 0.40689 0.06839 0.0
C2332 C 0.42583 0.4129 0.08316 0.0
C2333 C 0.45325 0.43207 0.12654 0.0
C2334 C 0.44404 0.42509 0.11153 0.0
H2335 H 0.38813 0.37292 0.05011 0.0
H2336 H 0.40509 0.3828 0.07403 0.0
H2337 H 0.40751 0.39957 0.09781 0.0
H2338 H 0.45088 0.44718 0.16177 0.0
H2339 H 0.43638 0.43642 0.13665 0.0
C2340 C 0.65304 0.71944 0.39234 0.0
C2341 C 0.66788 0.72907 0.38788 0.0
C2342 C 0.64727 0.72448 0.40429 0.0
C2343 C 0.65298 0.75975 0.42661 0.0
H2344 H 0.63175 0.7312 0.45801 0.0
C2345 C 0.63763 0.76269 0.49375 0.0
C2346 C 0.63189 0.77299 0.49306 0.0
C2347 C 0.64014 0.75653 0.4801 0.0
C2348 C 0.63764 0.73931 0.44932 0.0
H2349 H 0.68821 0.75166 0.39244 0.0
H2350 H 0.67819 0.76033 0.41337 0.0
H2351 H 0.64019 0.72236 0.43572 0.0
H2352 H 0.62392 0.78464 0.47756 0.0
H2353 H 0.62828 0.77378 0.45355 0.0
H2354 H 0.65086 0.77684 0.44051 0.0
C2355 C 0.67096 0.74895 0.40749 0.0
C2356 C 0.64235 0.7342 0.43648 0.0
C2357 C 0.67675 0.74391 0.39557 0.0
C2358 C 0.62832 0.77669 0.47841 0.0
C2359 C 0.63093 0.77058 0.4647 0.0
C2360 C 0.64822 0.76485 0.43944 0.0
C2361 C 0.65618 0.73927 0.41203 0.0
C2362 C 0.65028 0.74443 0.4251 0.0
C2363 C 0.637 0.76054 0.46543 0.0
C2364 C 0.64072 0.75475 0.45106 0.0
H2365 H 0.64584 0.70797 0.38664 0.0
H2366 H 0.63578 0.71681 0.4074 0.0
H2367 H 0.65889 0.76786 0.41793 0.0
H2368 H 0.6403 0.75949 0.50489 0.0
H2369 H 0.64497 0.74896 0.48108 0.0
C2370 C 0.25753 0.9258 0.42359 0.0
C2371 C 0.2733 0.93223 0.42283 0.0
C2372 C 0.25017 0.91631 0.43557 0.0
C2373 C 0.23939 0.9048 0.46741 0.0
H2374 H 0.24994 0.87393 0.4799 0.0
C2375 C 0.21762 0.87026 0.52211 0.0
C2376 C 0.21119 0.85405 0.51981 0.0
C2377 C 0.22556 0.87997 0.5105 0.0
C2378 C 0.24686 0.88248 0.4765 0.0
H2379 H 0.294 0.93501 0.43452 0.0
H2380 H 0.28116 0.91829 0.45545 0.0
H2381 H 0.26311 0.89071 0.45922 0.0
H2382 H 0.20824 0.83544 0.50339 0.0
H2383 H 0.22252 0.85247 0.48337 0.0
H2384 H 0.22326 0.89668 0.48488 0.0
C2385 C 0.27438 0.92012 0.44655 0.0
C2386 C 0.25444 0.89212 0.4647 0.0
C2387 C 0.28172 0.92962 0.43456 0.0
C2388 C 0.21323 0.84786 0.50572 0.0
C2389 C 0.22135 0.8576 0.4942 0.0
C2390 C 0.23197 0.89532 0.47937 0.0
C2391 C 0.25851 0.91333 0.44716 0.0
C2392 C 0.25069 0.9033 0.45992 0.0
C2393 C 0.22746 0.87373 0.49642 0.0
C2394 C 0.23557 0.884 0.48396 0.0
H2395 H 0.25089 0.92796 0.4148 0.0
H2396 H 0.23792 0.91119 0.43568 0.0
H2397 H 0.23638 0.91343 0.46414 0.0
H2398 H 0.21657 0.8755 0.53292 0.0
H2399 H 0.23034 0.89239 0.51259 0.0
C2400 C 0.06971 0.33968 0.39814 0.0
C2401 C 0.0687 0.32836 0.38716 0.0
C2402 C 0.07869 0.34319 0.41212 0.0
C2403 C 0.11043 0.33978 0.43094 0.0
H2404 H 0.09547 0.34764 0.46896 0.0
C2405 C 0.14685 0.36059 0.49029 0.0
C2406 C 0.13919 0.35359 0.50347 0.0
C2407 C 0.1387 0.35807 0.47583 0.0
C2408 C 0.09979 0.34539 0.45848 0.0
H2409 H 0.07519 0.31096 0.38243 0.0
H2410 H 0.09098 0.31701 0.40706 0.0
H2411 H 0.08005 0.34142 0.44442 0.0
H2412 H 0.11695 0.3388 0.51188 0.0
H2413 H 0.10289 0.33411 0.48674 0.0
H2414 H 0.13 0.3433 0.44518 0.0
C2415 C 0.08523 0.32355 0.40465 0.0
C2416 C 0.09102 0.342 0.44436 0.0
C2417 C 0.07616 0.32 0.39065 0.0
C2418 C 0.12324 0.34416 0.50191 0.0
C2419 C 0.11514 0.34164 0.48752 0.0
C2420 C 0.11921 0.34314 0.44511 0.0
C2421 C 0.08666 0.33526 0.4155 0.0
C2422 C 0.09618 0.33906 0.43044 0.0
C2423 C 0.12274 0.34858 0.47431 0.0
C2424 C 0.11391 0.34583 0.45907 0.0
H2425 H 0.06364 0.34592 0.39584 0.0
H2426 H 0.07959 0.35232 0.42015 0.0
H2427 H 0.11482 0.33779 0.42037 0.0
H2428 H 0.15913 0.36786 0.49111 0.0
H2429 H 0.14488 0.36369 0.4659 0.0
C2430 C 0.05947 0.31309 0.30367 0.0
C2431 C 0.06793 0.31677 0.31813 0.0
C2432 C 0.06449 0.30876 0.29048 0.0
C2433 C 0.10007 0.31173 0.27635 0.0
H2434 H 0.0729 0.28529 0.24127 0.0
C2435 C 0.12161 0.29301 0.22351 0.0
C2436 C 0.11766 0.29675 0.20906 0.0
C2437 C 0.11446 0.29365 0.2368 0.0
C2438 C 0.08058 0.29269 0.25101 0.0
H2439 H 0.08757 0.3178 0.33049 0.0
H2440 H 0.09588 0.30945 0.30788 0.0
H2441 H 0.06225 0.2891 0.26489 0.0
H2442 H 0.10276 0.30348 0.197 0.0
H2443 H 0.08997 0.30429 0.22027 0.0
H2444 H 0.11836 0.315 0.26254 0.0
C2445 C 0.08581 0.31059 0.30637 0.0
C2446 C 0.07452 0.29497 0.26452 0.0
C2447 C 0.08099 0.31527 0.31942 0.0
C2448 C 0.10603 0.3006 0.20803 0.0
C2449 C 0.09868 0.30097 0.22128 0.0
C2450 C 0.10609 0.3092 0.263 0.0
C2451 C 0.07792 0.30775 0.29159 0.0
C2452 C 0.08419 0.30462 0.27737 0.0
C2453 C 0.10303 0.29778 0.23584 0.0
C2454 C 0.09643 0.29977 0.25017 0.0
H2455 H 0.04941 0.3143 0.30241 0.0
H2456 H 0.05816 0.30685 0.27933 0.0
H2457 H 0.10796 0.31959 0.28572 0.0
H2458 H 0.13062 0.29012 0.22464 0.0
H2459 H 0.11798 0.2911 0.24789 0.0
C2460 C 0.66936 0.73674 0.31971 0.0
C2461 C 0.67745 0.72874 0.32147 0.0
C2462 C 0.67232 0.74677 0.30774 0.0
C2463 C 0.70137 0.76942 0.2808 0.0
H2464 H 0.6677 0.77 0.25796 0.0
C2465 C 0.71002 0.80594 0.2274 0.0
C2466 C 0.70095 0.81293 0.22557 0.0
C2467 C 0.70724 0.79539 0.23884 0.0
C2468 C 0.67727 0.77017 0.26437 0.0
H2469 H 0.69393 0.72374 0.31153 0.0
H2470 H 0.69923 0.74137 0.29056 0.0
H2471 H 0.66259 0.75207 0.27837 0.0
H2472 H 0.68225 0.81484 0.23454 0.0
H2473 H 0.67764 0.79678 0.25475 0.0
H2474 H 0.71609 0.78772 0.26704 0.0
C2475 C 0.69098 0.74033 0.29871 0.0
C2476 C 0.67432 0.75985 0.27605 0.0
C2477 C 0.68802 0.73032 0.3107 0.0
C2478 C 0.68925 0.80941 0.23555 0.0
C2479 C 0.68658 0.79901 0.24708 0.0
C2480 C 0.70434 0.77987 0.26924 0.0
C2481 C 0.6832 0.74872 0.29713 0.0
C2482 C 0.68634 0.75943 0.28447 0.0
C2483 C 0.69544 0.79175 0.2488 0.0
C2484 C 0.69233 0.78043 0.26092 0.0
H2485 H 0.66093 0.73541 0.32774 0.0
H2486 H 0.66621 0.75315 0.3069 0.0
H2487 H 0.71087 0.76938 0.28707 0.0
H2488 H 0.71904 0.80839 0.21976 0.0
H2489 H 0.71417 0.78987 0.23968 0.0
C2490 C 0.26525 0.92342 0.34221 0.0
C2491 C 0.26568 0.93382 0.35404 0.0
C2492 C 0.25623 0.92035 0.3283 0.0
C2493 C 0.22222 0.9186 0.31093 0.0
H2494 H 0.24173 0.92468 0.272 0.0
C2495 C 0.19089 0.89192 0.24985 0.0
C2496 C 0.19529 0.90192 0.23763 0.0
C2497 C 0.19861 0.89704 0.26466 0.0
C2498 C 0.23616 0.92305 0.28278 0.0
H2499 H 0.25667 0.94881 0.36076 0.0
H2500 H 0.24049 0.94301 0.33648 0.0
H2501 H 0.25705 0.93097 0.29686 0.0
H2502 H 0.21097 0.92514 0.23128 0.0
H2503 H 0.22473 0.93402 0.25715 0.0
H2504 H 0.20122 0.91014 0.29678 0.0
C2505 C 0.24734 0.93746 0.33799 0.0
C2506 C 0.24489 0.92654 0.29696 0.0
C2507 C 0.25662 0.94081 0.35181 0.0
C2508 C 0.2073 0.91725 0.24056 0.0
C2509 C 0.2152 0.92229 0.25529 0.0
C2510 C 0.21342 0.91481 0.29671 0.0
C2511 C 0.24723 0.92736 0.32606 0.0
C2512 C 0.23799 0.92427 0.31114 0.0
C2513 C 0.21105 0.91217 0.26741 0.0
C2514 C 0.22032 0.91696 0.28252 0.0
H2515 H 0.27214 0.91791 0.34355 0.0
H2516 H 0.25625 0.91245 0.31928 0.0
H2517 H 0.21666 0.91672 0.32174 0.0
H2518 H 0.18163 0.88006 0.24787 0.0
H2519 H 0.19527 0.88899 0.27379 0.0
C2520 C 0.68694 0.95552 0.33576 0.0
C2521 C 0.67682 0.94653 0.3466 0.0
C2522 C 0.69153 0.94855 0.32445 0.0
C2523 C 0.68008 0.91063 0.30385 0.0
H2524 H 0.72184 0.93172 0.29228 0.0
C2525 C 0.70078 0.88251 0.25848 0.0
C2526 C 0.7093 0.89216 0.24696 0.0
C2527 C 0.69798 0.88882 0.27188 0.0
C2528 C 0.71012 0.92571 0.29534 0.0
H2529 H 0.66277 0.92328 0.35373 0.0
H2530 H 0.67107 0.91102 0.33423 0.0
H2531 H 0.71434 0.94339 0.31301 0.0
H2532 H 0.72183 0.91601 0.24065 0.0
H2533 H 0.71698 0.927 0.26402 0.0
H2534 H 0.67578 0.89311 0.28595 0.0
C2535 C 0.67552 0.92344 0.33441 0.0
C2536 C 0.70582 0.9324 0.30723 0.0
C2537 C 0.67084 0.93042 0.34563 0.0
C2538 C 0.71544 0.90829 0.24942 0.0
C2539 C 0.71263 0.91459 0.26281 0.0
C2540 C 0.68438 0.90395 0.29197 0.0
C2541 C 0.68595 0.93243 0.32369 0.0
C2542 C 0.69071 0.925 0.31154 0.0
C2543 C 0.70363 0.9049 0.27405 0.0
C2544 C 0.69941 0.91148 0.28747 0.0
H2545 H 0.69122 0.96792 0.33599 0.0
H2546 H 0.69928 0.95578 0.31616 0.0
H2547 H 0.66829 0.90473 0.30668 0.0
H2548 H 0.69607 0.87005 0.257 0.0
H2549 H 0.69121 0.88107 0.28046 0.0
C2550 C 0.0803 0.75336 0.30964 0.0
C2551 C 0.06498 0.74678 0.31312 0.0
C2552 C 0.0859 0.76357 0.29787 0.0
C2553 C 0.07965 0.78991 0.27357 0.0
H2554 H 0.10653 0.78361 0.2473 0.0
C2555 C 0.10691 0.82513 0.21938 0.0
C2556 C 0.12241 0.82977 0.21833 0.0
C2557 C 0.09863 0.81526 0.23082 0.0
C2558 C 0.09911 0.78558 0.25458 0.0
H2559 H 0.04365 0.7463 0.3072 0.0
H2560 H 0.05354 0.76422 0.28633 0.0
H2561 H 0.09405 0.76569 0.26722 0.0
H2562 H 0.14157 0.82854 0.2291 0.0
H2563 H 0.12718 0.81131 0.24884 0.0
H2564 H 0.0849 0.80995 0.26077 0.0
C2565 C 0.06116 0.7614 0.29287 0.0
C2566 C 0.09196 0.77532 0.266 0.0
C2567 C 0.0555 0.75111 0.30479 0.0
C2568 C 0.12957 0.82485 0.22932 0.0
C2569 C 0.12133 0.815 0.24065 0.0
C2570 C 0.08681 0.80021 0.26201 0.0
C2571 C 0.07636 0.76748 0.28911 0.0
C2572 C 0.08247 0.77757 0.27592 0.0
C2573 C 0.10571 0.80983 0.24134 0.0
C2574 C 0.09692 0.79834 0.25268 0.0
H2575 H 0.08806 0.75053 0.31591 0.0
H2576 H 0.09778 0.76837 0.29557 0.0
H2577 H 0.07239 0.79194 0.28103 0.0
H2578 H 0.10106 0.82869 0.21104 0.0
H2579 H 0.0866 0.81144 0.23107 0.0
C2580 C 0.26388 0.32697 0.33241 0.0
C2581 C 0.26293 0.33588 0.34488 0.0
C2582 C 0.25445 0.32336 0.31876 0.0
C2583 C 0.21888 0.31966 0.302 0.0
H2584 H 0.23914 0.32812 0.26341 0.0
C2585 C 0.18765 0.30022 0.23961 0.0
C2586 C 0.19326 0.31161 0.2287 0.0
C2587 C 0.19527 0.30301 0.25443 0.0
C2588 C 0.23333 0.32574 0.27409 0.0
H2589 H 0.25194 0.34853 0.35289 0.0
H2590 H 0.23506 0.34196 0.32887 0.0
H2591 H 0.25401 0.33317 0.28825 0.0
H2592 H 0.2112 0.33479 0.22469 0.0
H2593 H 0.22446 0.33962 0.25046 0.0
H2594 H 0.19814 0.31217 0.28769 0.0
C2595 C 0.24295 0.33758 0.32982 0.0
C2596 C 0.24182 0.32852 0.28828 0.0
C2597 C 0.25259 0.34138 0.34346 0.0
C2598 C 0.20652 0.32586 0.23292 0.0
C2599 C 0.21418 0.32858 0.24761 0.0
C2600 C 0.21032 0.31669 0.28772 0.0
C2601 C 0.24394 0.32867 0.3173 0.0
C2602 C 0.2347 0.32557 0.30236 0.0
C2603 C 0.20872 0.31715 0.25846 0.0
C2604 C 0.21751 0.31983 0.27365 0.0
H2605 H 0.27207 0.32295 0.33317 0.0
H2606 H 0.2554 0.31643 0.30931 0.0
H2607 H 0.21315 0.31719 0.31272 0.0
H2608 H 0.17742 0.28916 0.23667 0.0
H2609 H 0.19087 0.29397 0.26257 0.0
C2610 C 0.27506 0.35884 0.42017 0.0
C2611 C 0.27051 0.34323 0.41603 0.0
C2612 C 0.27066 0.36289 0.43399 0.0
C2613 C 0.25771 0.34928 0.47255 0.0
H2614 H 0.23711 0.37338 0.46993 0.0
C2615 C 0.21969 0.34956 0.51996 0.0
C2616 C 0.21877 0.36303 0.52334 0.0
C2617 C 0.22794 0.3488 0.50772 0.0
C2618 C 0.2431 0.3669 0.47099 0.0
H2619 H 0.25813 0.31972 0.42337 0.0
H2620 H 0.25071 0.32683 0.44749 0.0
H2621 H 0.24843 0.36932 0.44704 0.0
H2622 H 0.22613 0.3864 0.51658 0.0
H2623 H 0.24097 0.38525 0.49556 0.0
H2624 H 0.25246 0.34681 0.49643 0.0
C2625 C 0.25762 0.33592 0.44005 0.0
C2626 C 0.24955 0.36456 0.45784 0.0
C2627 C 0.26179 0.33184 0.42617 0.0
C2628 C 0.22668 0.37588 0.5144 0.0
C2629 C 0.23503 0.37515 0.5022 0.0
C2630 C 0.25143 0.35176 0.48573 0.0
C2631 C 0.26188 0.35145 0.44405 0.0
C2632 C 0.25661 0.35544 0.4584 0.0
C2633 C 0.23564 0.36153 0.49859 0.0
C2634 C 0.24372 0.36029 0.48503 0.0
H2635 H 0.28173 0.36788 0.41258 0.0
H2636 H 0.27414 0.37496 0.43684 0.0
H2637 H 0.26329 0.34239 0.47336 0.0
H2638 H 0.21396 0.33953 0.52673 0.0
H2639 H 0.22794 0.33803 0.50519 0.0
C2640 C 0.67573 0.94016 0.42284 0.0
C2641 C 0.66512 0.94066 0.41204 0.0
C2642 C 0.6709 0.92928 0.43411 0.0
C2643 C 0.63721 0.90179 0.4541 0.0
H2644 H 0.66221 0.88293 0.46258 0.0
C2645 C 0.62923 0.86346 0.50599 0.0
C2646 C 0.63208 0.85104 0.50388 0.0
C2647 C 0.63206 0.8738 0.49432 0.0
C2648 C 0.65497 0.88791 0.46024 0.0
H2649 H 0.64104 0.9303 0.40488 0.0
H2650 H 0.63261 0.91106 0.42444 0.0
H2651 H 0.66932 0.90205 0.44325 0.0
H2652 H 0.63936 0.83923 0.48767 0.0
H2653 H 0.64399 0.85704 0.46716 0.0
H2654 H 0.62263 0.88726 0.47088 0.0
C2655 C 0.64467 0.91926 0.42429 0.0
C2656 C 0.65919 0.89909 0.4493 0.0
C2657 C 0.64951 0.93026 0.41305 0.0
C2658 C 0.63731 0.84886 0.4897 0.0
C2659 C 0.64 0.85909 0.47798 0.0
C2660 C 0.63292 0.89051 0.46503 0.0
C2661 C 0.65535 0.9185 0.43481 0.0
C2662 C 0.65046 0.90629 0.44619 0.0
C2663 C 0.63769 0.87187 0.48025 0.0
C2664 C 0.64181 0.88348 0.46828 0.0
H2665 H 0.68783 0.94811 0.42255 0.0
H2666 H 0.67941 0.9293 0.44226 0.0
H2667 H 0.63027 0.90716 0.45206 0.0
H2668 H 0.62532 0.86548 0.51688 0.0
H2669 H 0.63032 0.8836 0.49655 0.0
C2670 C 0.07288 0.75112 0.38293 0.0
C2671 C 0.06408 0.73504 0.37963 0.0
C2672 C 0.08271 0.75714 0.39648 0.0
C2673 C 0.10146 0.7458 0.42761 0.0
H2674 H 0.10685 0.78302 0.44996 0.0
C2675 C 0.12833 0.76502 0.49083 0.0
C2676 C 0.13812 0.78096 0.49468 0.0
C2677 C 0.12046 0.75981 0.47612 0.0
C2678 C 0.10564 0.77275 0.44372 0.0
H2679 H 0.05743 0.71256 0.38831 0.0
H2680 H 0.07424 0.72294 0.41221 0.0
H2681 H 0.09044 0.77314 0.42585 0.0
H2682 H 0.14777 0.80387 0.48585 0.0
H2683 H 0.1339 0.79474 0.46016 0.0
H2684 H 0.11643 0.74526 0.44574 0.0
C2685 C 0.07422 0.731 0.40407 0.0
C2686 C 0.09624 0.76708 0.42988 0.0
C2687 C 0.06457 0.72502 0.39042 0.0
C2688 C 0.14014 0.79154 0.48333 0.0
C2689 C 0.1322 0.78632 0.46863 0.0
C2690 C 0.11082 0.75145 0.44148 0.0
C2691 C 0.08355 0.74714 0.40721 0.0
C2692 C 0.09395 0.75347 0.42168 0.0
C2693 C 0.12214 0.77042 0.46494 0.0
C2694 C 0.11293 0.76491 0.44975 0.0
H2695 H 0.0724 0.75901 0.37484 0.0
H2696 H 0.08979 0.76961 0.39843 0.0
H2697 H 0.10014 0.73541 0.42157 0.0
H2698 H 0.1263 0.75658 0.49937 0.0
H2699 H 0.11263 0.7475 0.4737 0.0
C2700 C 0.31668 0.05483 0.72126 0.0
C2701 C 0.33165 0.06501 0.71747 0.0
C2702 C 0.3099 0.05945 0.73247 0.0
C2703 C 0.31322 0.094 0.75437 0.0
H2704 H 0.29231 0.06485 0.78542 0.0
C2705 C 0.2984 0.09613 0.82157 0.0
C2706 C 0.29257 0.10635 0.82123 0.0
C2707 C 0.30058 0.08997 0.80773 0.0
C2708 C 0.29807 0.0731 0.77681 0.0
H2709 H 0.35107 0.08819 0.72232 0.0
H2710 H 0.33932 0.09612 0.74203 0.0
H2711 H 0.30154 0.05675 0.76329 0.0
H2712 H 0.28395 0.11777 0.80619 0.0
H2713 H 0.28775 0.10692 0.78181 0.0
H2714 H 0.31032 0.11056 0.76829 0.0
C2715 C 0.33276 0.08463 0.73617 0.0
C2716 C 0.30324 0.06843 0.76405 0.0
C2717 C 0.33955 0.08002 0.72496 0.0
C2718 C 0.28845 0.10989 0.80675 0.0
C2719 C 0.29073 0.10378 0.79284 0.0
C2720 C 0.30803 0.09868 0.76713 0.0
C2721 C 0.31792 0.07435 0.74016 0.0
C2722 C 0.31115 0.07892 0.75285 0.0
C2723 C 0.297 0.0939 0.79321 0.0
C2724 C 0.3007 0.08838 0.77867 0.0
H2725 H 0.31019 0.04322 0.71566 0.0
H2726 H 0.29838 0.05133 0.73515 0.0
H2727 H 0.31909 0.10229 0.74582 0.0
H2728 H 0.30151 0.09306 0.83258 0.0
H2729 H 0.30559 0.08254 0.80844 0.0
C2730 C 0.94947 0.25637 0.75904 0.0
C2731 C 0.94077 0.25824 0.747 0.0
C2732 C 0.94231 0.24631 0.77069 0.0
C2733 C 0.92275 0.21727 0.78826 0.0
H2734 H 0.89188 0.22191 0.80904 0.0
C2735 C 0.88259 0.17409 0.83101 0.0
C2736 C 0.88085 0.18073 0.84497 0.0
C2737 C 0.89057 0.18345 0.81918 0.0
C2738 C 0.90051 0.22052 0.80336 0.0
H2739 H 0.91796 0.25197 0.73807 0.0
H2740 H 0.90534 0.2344 0.75853 0.0
H2741 H 0.90432 0.23822 0.78778 0.0
H2742 H 0.8867 0.20255 0.85758 0.0
H2743 H 0.90019 0.21877 0.83673 0.0
H2744 H 0.91882 0.19947 0.80382 0.0
C2745 C 0.91767 0.24043 0.75878 0.0
C2746 C 0.90752 0.22975 0.79113 0.0
C2747 C 0.92485 0.25039 0.74708 0.0
C2748 C 0.88751 0.19698 0.84688 0.0
C2749 C 0.8953 0.2063 0.83497 0.0
C2750 C 0.91555 0.20786 0.80036 0.0
C2751 C 0.92633 0.23831 0.77071 0.0
C2752 C 0.91874 0.22826 0.78348 0.0
C2753 C 0.8968 0.19961 0.82097 0.0
C2754 C 0.90443 0.20947 0.80808 0.0
H2755 H 0.9618 0.26286 0.75955 0.0
H2756 H 0.94926 0.24509 0.77989 0.0
H2757 H 0.93134 0.21588 0.78254 0.0
H2758 H 0.87743 0.16162 0.82899 0.0
H2759 H 0.89145 0.17799 0.80843 0.0
C2760 C 0.7398 0.67968 0.72834 0.0
C2761 C 0.73886 0.66948 0.71606 0.0
C2762 C 0.74996 0.68316 0.74139 0.0
C2763 C 0.76989 0.66759 0.76442 0.0
H2764 H 0.79434 0.71012 0.78175 0.0
C2765 C 0.80933 0.68269 0.8207 0.0
C2766 C 0.80982 0.69401 0.83136 0.0
C2767 C 0.80251 0.68041 0.80558 0.0
C2768 C 0.78749 0.69816 0.77719 0.0
H2769 H 0.7469 0.65409 0.70805 0.0
H2770 H 0.7648 0.66013 0.73105 0.0
H2771 H 0.77858 0.70454 0.75753 0.0
H2772 H 0.8037 0.7119 0.83464 0.0
H2773 H 0.79136 0.70768 0.8085 0.0
H2774 H 0.77808 0.66104 0.78449 0.0
C2775 C 0.75788 0.66567 0.73042 0.0
C2776 C 0.77855 0.69499 0.76321 0.0
C2777 C 0.74773 0.66225 0.71729 0.0
C2778 C 0.80364 0.70323 0.82656 0.0
C2779 C 0.79662 0.70082 0.81154 0.0
C2780 C 0.77865 0.67072 0.77855 0.0
C2781 C 0.75914 0.67623 0.74257 0.0
C2782 C 0.76954 0.67967 0.75675 0.0
C2783 C 0.79582 0.68926 0.80088 0.0
C2784 C 0.78743 0.68604 0.78523 0.0
H2785 H 0.73259 0.68489 0.72789 0.0
H2786 H 0.75042 0.69106 0.75071 0.0
H2787 H 0.7629 0.65564 0.75982 0.0
H2788 H 0.81416 0.67552 0.8241 0.0
H2789 H 0.8024 0.67163 0.79763 0.0
C2790 C 0.72434 0.64804 0.63831 0.0
C2791 C 0.73285 0.66314 0.64557 0.0
C2792 C 0.72876 0.64405 0.62444 0.0
C2793 C 0.75242 0.66206 0.59142 0.0
H2794 H 0.75319 0.6235 0.58605 0.0
C2795 C 0.78916 0.65393 0.54756 0.0
C2796 C 0.78275 0.63996 0.53815 0.0
C2797 C 0.78149 0.65563 0.55988 0.0
C2798 C 0.75284 0.63421 0.5873 0.0
H2799 H 0.75284 0.68579 0.64389 0.0
H2800 H 0.7605 0.67882 0.62008 0.0
H2801 H 0.7424 0.62845 0.60904 0.0
H2802 H 0.76323 0.6167 0.53455 0.0
H2803 H 0.74994 0.61963 0.55636 0.0
H2804 H 0.76319 0.66802 0.56997 0.0
C2805 C 0.75025 0.67011 0.62487 0.0
C2806 C 0.74665 0.63705 0.60044 0.0
C2807 C 0.74588 0.67408 0.63864 0.0
C2808 C 0.76856 0.62759 0.54161 0.0
C2809 C 0.76092 0.62926 0.55408 0.0
C2810 C 0.75865 0.65927 0.57838 0.0
C2811 C 0.74174 0.65509 0.61752 0.0
C2812 C 0.7467 0.65117 0.60282 0.0
C2813 C 0.76726 0.64337 0.56324 0.0
C2814 C 0.75924 0.64548 0.57634 0.0
H2815 H 0.71426 0.6393 0.64332 0.0
H2816 H 0.72192 0.63239 0.61904 0.0
H2817 H 0.7523 0.67289 0.59268 0.0
H2818 H 0.80024 0.66357 0.54555 0.0
H2819 H 0.78683 0.66653 0.56694 0.0
C2820 C 0.35552 0.06478 0.64255 0.0
C2821 C 0.34428 0.06278 0.6526 0.0
C2822 C 0.35826 0.07418 0.63003 0.0
C2823 C 0.34043 0.09085 0.60467 0.0
H2824 H 0.38209 0.12079 0.59714 0.0
C2825 C 0.35563 0.12781 0.55119 0.0
C2826 C 0.36568 0.14381 0.5544 0.0
C2827 C 0.35334 0.11739 0.56263 0.0
C2828 C 0.3704 0.11249 0.59913 0.0
H2829 H 0.32634 0.06795 0.65705 0.0
H2830 H 0.3312 0.0846 0.63528 0.0
H2831 H 0.37717 0.10336 0.61813 0.0
H2832 H 0.38128 0.16135 0.57216 0.0
H2833 H 0.3775 0.14309 0.59199 0.0
H2834 H 0.33365 0.10002 0.58567 0.0
C2835 C 0.33801 0.07906 0.63709 0.0
C2836 C 0.36759 0.10247 0.61108 0.0
C2837 C 0.3353 0.06965 0.64958 0.0
C2838 C 0.37365 0.14909 0.5692 0.0
C2839 C 0.37146 0.13864 0.58058 0.0
C2840 C 0.34324 0.10076 0.59261 0.0
C2841 C 0.34958 0.08148 0.62722 0.0
C2842 C 0.35258 0.09166 0.6141 0.0
C2843 C 0.36116 0.12272 0.57746 0.0
C2844 C 0.35825 0.11177 0.58982 0.0
H2845 H 0.36215 0.05903 0.64435 0.0
H2846 H 0.36706 0.0756 0.62247 0.0
H2847 H 0.32874 0.08251 0.60658 0.0
H2848 H 0.34952 0.12331 0.53983 0.0
H2849 H 0.34549 0.10514 0.55985 0.0
C2850 C 0.93038 0.27206 0.67314 0.0
C2851 C 0.93468 0.26166 0.67912 0.0
C2852 C 0.92105 0.2681 0.6593 0.0
C2853 C 0.89385 0.23478 0.63248 0.0
H2854 H 0.90574 0.26559 0.60175 0.0
C2855 C 0.88303 0.23709 0.56248 0.0
C2856 C 0.86708 0.22791 0.56037 0.0
C2857 C 0.89035 0.24181 0.57746 0.0
C2858 C 0.90228 0.25686 0.61022 0.0
H2859 H 0.93219 0.23875 0.67532 0.0
H2860 H 0.91601 0.23192 0.65113 0.0
H2861 H 0.92017 0.27231 0.62709 0.0
H2862 H 0.84627 0.21662 0.57228 0.0
H2863 H 0.85912 0.22492 0.59857 0.0
H2864 H 0.87619 0.2192 0.61541 0.0
C2865 C 0.91979 0.2431 0.65724 0.0
C2866 C 0.91045 0.26075 0.62479 0.0
C2867 C 0.92917 0.24708 0.67105 0.0
C2868 C 0.85857 0.22375 0.57357 0.0
C2869 C 0.86593 0.22839 0.58859 0.0
C2870 C 0.88562 0.2309 0.61792 0.0
C2871 C 0.91574 0.25362 0.65113 0.0
C2872 C 0.90645 0.2497 0.63601 0.0
C2873 C 0.88191 0.2374 0.59069 0.0
C2874 C 0.88988 0.24184 0.60656 0.0
H2875 H 0.93434 0.28337 0.67905 0.0
H2876 H 0.91798 0.27638 0.65499 0.0
H2877 H 0.8904 0.22606 0.64095 0.0
H2878 H 0.88987 0.24062 0.55252 0.0
H2879 H 0.90268 0.24861 0.57867 0.0
C2880 C 0.35285 0.29244 0.66612 0.0
C2881 C 0.34247 0.28333 0.6767 0.0
C2882 C 0.35687 0.28548 0.65426 0.0
C2883 C 0.3577 0.24966 0.64337 0.0
H2884 H 0.36104 0.26401 0.60163 0.0
C2885 C 0.36298 0.21654 0.58926 0.0
C2886 C 0.37213 0.22534 0.57761 0.0
C2887 C 0.36042 0.22381 0.60208 0.0
C2888 C 0.36041 0.26001 0.61327 0.0
H2889 H 0.32722 0.2599 0.6827 0.0
H2890 H 0.33434 0.24759 0.66199 0.0
H2891 H 0.3541 0.27625 0.62226 0.0
H2892 H 0.38607 0.24877 0.57055 0.0
H2893 H 0.38201 0.26143 0.59309 0.0
H2894 H 0.36398 0.23338 0.63433 0.0
C2895 C 0.33969 0.26013 0.66308 0.0
C2896 C 0.35639 0.26701 0.62509 0.0
C2897 C 0.33557 0.26712 0.67485 0.0
C2898 C 0.37912 0.24162 0.57939 0.0
C2899 C 0.3766 0.24888 0.59221 0.0
C2900 C 0.36178 0.24267 0.63154 0.0
C2901 C 0.35047 0.26925 0.65272 0.0
C2902 C 0.35493 0.26188 0.64025 0.0
C2903 C 0.36696 0.24006 0.60353 0.0
C2904 C 0.36314 0.24774 0.61633 0.0
H2905 H 0.35791 0.30496 0.66708 0.0
H2906 H 0.36522 0.29282 0.64649 0.0
H2907 H 0.35687 0.24559 0.655 0.0
H2908 H 0.35754 0.20398 0.58831 0.0
H2909 H 0.35287 0.21665 0.61054 0.0
C2910 C 0.74787 0.07708 0.63193 0.0
C2911 C 0.73269 0.07107 0.6357 0.0
C2912 C 0.75359 0.08715 0.62005 0.0
C2913 C 0.74682 0.11344 0.59552 0.0
H2914 H 0.77681 0.11041 0.5714 0.0
C2915 C 0.77445 0.14846 0.54117 0.0
C2916 C 0.79051 0.1561 0.54233 0.0
C2917 C 0.76612 0.13815 0.55227 0.0
C2918 C 0.76846 0.11139 0.57806 0.0
H2919 H 0.71162 0.07111 0.62986 0.0
H2920 H 0.72155 0.08848 0.60862 0.0
H2921 H 0.7641 0.09165 0.59061 0.0
H2922 H 0.81031 0.15942 0.55666 0.0
H2923 H 0.79576 0.14101 0.57552 0.0
H2924 H 0.75114 0.13312 0.58249 0.0
C2925 C 0.72909 0.08554 0.61515 0.0
C2926 C 0.76122 0.10071 0.58915 0.0
C2927 C 0.72337 0.07553 0.62727 0.0
C2928 C 0.79799 0.15346 0.55509 0.0
C2929 C 0.78967 0.143 0.56598 0.0
C2930 C 0.75393 0.12402 0.58418 0.0
C2931 C 0.74427 0.09137 0.61132 0.0
C2932 C 0.75061 0.10183 0.59836 0.0
C2933 C 0.77368 0.13512 0.56458 0.0
C2934 C 0.76507 0.12328 0.57564 0.0
H2935 H 0.7555 0.0741 0.63824 0.0
H2936 H 0.76545 0.09173 0.61782 0.0
H2937 H 0.73878 0.11472 0.60242 0.0
H2938 H 0.76826 0.15004 0.53144 0.0
H2939 H 0.75378 0.13215 0.55093 0.0
C2940 C 0.92824 0.66426 0.66249 0.0
C2941 C 0.92819 0.67394 0.67475 0.0
C2942 C 0.91905 0.66125 0.64877 0.0
C2943 C 0.90669 0.66612 0.61796 0.0
H2944 H 0.86375 0.65324 0.6186 0.0
C2945 C 0.87058 0.6617 0.56254 0.0
C2946 C 0.85662 0.64784 0.55956 0.0
C2947 C 0.87872 0.66515 0.57705 0.0
C2948 C 0.87572 0.6568 0.61829 0.0
H2949 H 0.91926 0.68871 0.68225 0.0
H2950 H 0.90277 0.68318 0.65813 0.0
H2951 H 0.87939 0.65898 0.6433 0.0
H2952 H 0.84004 0.62689 0.56952 0.0
H2953 H 0.85435 0.63299 0.59508 0.0
H2954 H 0.90314 0.66396 0.59307 0.0
C2955 C 0.90977 0.67777 0.65928 0.0
C2956 C 0.88465 0.66019 0.63237 0.0
C2957 C 0.91918 0.68097 0.67298 0.0
C2958 C 0.85081 0.63761 0.5715 0.0
C2959 C 0.85892 0.64115 0.58613 0.0
C2960 C 0.89783 0.66292 0.60395 0.0
C2961 C 0.90969 0.66791 0.64704 0.0
C2962 C 0.9002 0.6648 0.63229 0.0
C2963 C 0.87305 0.65487 0.58894 0.0
C2964 C 0.88227 0.65821 0.60395 0.0
H2965 H 0.93541 0.65902 0.66354 0.0
H2966 H 0.91915 0.65357 0.63955 0.0
H2967 H 0.91867 0.66973 0.61759 0.0
H2968 H 0.87543 0.66971 0.5535 0.0
H2969 H 0.88952 0.67585 0.57895 0.0
C2970 C 0.92373 0.66951 0.75643 0.0
C2971 C 0.93264 0.68056 0.7461 0.0
C2972 C 0.92024 0.67412 0.77043 0.0
C2973 C 0.91389 0.70355 0.78866 0.0
H2974 H 0.91841 0.68666 0.82724 0.0
C2975 C 0.89176 0.71473 0.84581 0.0
C2976 C 0.88414 0.70181 0.85472 0.0
C2977 C 0.9002 0.71429 0.83357 0.0
C2978 C 0.91695 0.69139 0.81656 0.0
H2979 H 0.94482 0.70514 0.74235 0.0
H2980 H 0.9383 0.71319 0.76682 0.0
H2981 H 0.92829 0.68174 0.80367 0.0
H2982 H 0.88008 0.67856 0.85816 0.0
H2983 H 0.89418 0.67754 0.83656 0.0
H2984 H 0.90183 0.71251 0.80124 0.0
C2985 C 0.93422 0.70097 0.76404 0.0
C2986 C 0.9227 0.68864 0.8031 0.0
C2987 C 0.93798 0.69637 0.7501 0.0
C2988 C 0.88556 0.68863 0.85138 0.0
C2989 C 0.89389 0.68815 0.83911 0.0
C2990 C 0.90794 0.70614 0.80209 0.0
C2991 C 0.92536 0.68987 0.77434 0.0
C2992 C 0.92095 0.69443 0.78896 0.0
C2993 C 0.90119 0.7009 0.82991 0.0
C2994 C 0.90909 0.69978 0.81613 0.0
H2995 H 0.9195 0.65725 0.75373 0.0
H2996 H 0.91325 0.66532 0.77809 0.0
H2997 H 0.91231 0.70805 0.77785 0.0
H2998 H 0.89084 0.72504 0.84799 0.0
H2999 H 0.90583 0.72441 0.82687 0.0
C3000 C 0.31495 0.26651 0.7437 0.0
C3001 C 0.33075 0.27588 0.74264 0.0
C3002 C 0.30935 0.2552 0.75462 0.0
C3003 C 0.32126 0.23201 0.77816 0.0
H3004 H 0.28584 0.22287 0.80077 0.0
C3005 C 0.29715 0.18142 0.81788 0.0
C3006 C 0.29299 0.1842 0.83249 0.0
C3007 C 0.29996 0.19174 0.80623 0.0
C3008 C 0.2958 0.22534 0.7946 0.0
H3009 H 0.35302 0.28117 0.75274 0.0
H3010 H 0.3433 0.26182 0.77187 0.0
H3011 H 0.29473 0.24329 0.78243 0.0
H3012 H 0.28804 0.19967 0.84625 0.0
H3013 H 0.29327 0.21795 0.82601 0.0
H3014 H 0.32276 0.21458 0.79064 0.0
C3015 C 0.3352 0.26285 0.76401 0.0
C3016 C 0.30079 0.23693 0.78397 0.0
C3017 C 0.34078 0.27404 0.75307 0.0
C3018 C 0.29113 0.19721 0.83504 0.0
C3019 C 0.2941 0.20764 0.82342 0.0
C3020 C 0.31633 0.22053 0.78879 0.0
C3021 C 0.31943 0.25308 0.76474 0.0
C3022 C 0.31368 0.24049 0.77572 0.0
C3023 C 0.29885 0.2052 0.80898 0.0
C3024 C 0.30357 0.21706 0.79721 0.0
H3025 H 0.30691 0.2676 0.73582 0.0
H3026 H 0.29714 0.24781 0.7548 0.0
H3027 H 0.33107 0.23424 0.77182 0.0
H3028 H 0.29843 0.17134 0.81554 0.0
H3029 H 0.30322 0.18927 0.79513 0.0
C3030 C 0.74595 0.08085 0.70511 0.0
C3031 C 0.73611 0.06478 0.70295 0.0
C3032 C 0.75627 0.08716 0.71829 0.0
C3033 C 0.77395 0.07645 0.75106 0.0
H3034 H 0.77935 0.11447 0.77156 0.0
C3035 C 0.81308 0.10524 0.80794 0.0
C3036 C 0.80712 0.11077 0.81939 0.0
C3037 C 0.80585 0.10047 0.79286 0.0
C3038 C 0.77794 0.10382 0.766 0.0
H3039 H 0.72834 0.04276 0.71318 0.0
H3040 H 0.74613 0.05371 0.73636 0.0
H3041 H 0.76392 0.10435 0.74692 0.0
H3042 H 0.78868 0.11518 0.82413 0.0
H3043 H 0.77609 0.10682 0.798 0.0
H3044 H 0.78745 0.0756 0.77056 0.0
C3045 C 0.74646 0.06143 0.72762 0.0
C3046 C 0.76925 0.09812 0.75175 0.0
C3047 C 0.73626 0.05515 0.71439 0.0
C3048 C 0.79376 0.11132 0.81548 0.0
C3049 C 0.78655 0.10654 0.80048 0.0
C3050 C 0.78263 0.08215 0.76535 0.0
C3051 C 0.75662 0.07752 0.72974 0.0
C3052 C 0.76694 0.08423 0.74422 0.0
C3053 C 0.7925 0.10109 0.78897 0.0
C3054 C 0.78449 0.09575 0.77312 0.0
H3055 H 0.74576 0.08848 0.69652 0.0
H3056 H 0.76398 0.09957 0.7195 0.0
H3057 H 0.77256 0.06583 0.74548 0.0
H3058 H 0.82342 0.10478 0.8106 0.0
H3059 H 0.81079 0.09643 0.78423 0.0
C3060 C 0.02985 0.34017 0.04955 0.0
C3061 C 0.03895 0.3538 0.04207 0.0
C3062 C 0.03651 0.33308 0.05813 0.0
C3063 C 0.07121 0.33002 0.06278 0.0
H3064 H 0.05898 0.31839 0.10452 0.0
C3065 C 0.09695 0.30064 0.10048 0.0
C3066 C 0.10274 0.30796 0.11549 0.0
C3067 C 0.08729 0.30407 0.09142 0.0
C3068 C 0.06246 0.32153 0.09286 0.0
H3069 H 0.0622 0.37049 0.03757 0.0
H3070 H 0.07378 0.35805 0.05251 0.0
H3071 H 0.04616 0.32904 0.08851 0.0
H3072 H 0.10236 0.32389 0.13314 0.0
H3073 H 0.0854 0.32981 0.11736 0.0
H3074 H 0.08773 0.32285 0.06723 0.0
C3075 C 0.06149 0.35287 0.05168 0.0
C3076 C 0.05506 0.32752 0.08367 0.0
C3077 C 0.05485 0.36005 0.04323 0.0
C3078 C 0.0981 0.31815 0.12157 0.0
C3079 C 0.08832 0.32146 0.11258 0.0
C3080 C 0.0785 0.3239 0.0719 0.0
C3081 C 0.0524 0.33936 0.05928 0.0
C3082 C 0.05953 0.33205 0.06863 0.0
C3083 C 0.08312 0.31475 0.09727 0.0
C3084 C 0.07435 0.3198 0.08712 0.0
H3085 H 0.01757 0.33504 0.04891 0.0
H3086 H 0.02923 0.32262 0.06378 0.0
H3087 H 0.07479 0.33328 0.05117 0.0
H3088 H 0.10047 0.29284 0.09547 0.0
H3089 H 0.08334 0.29864 0.0797 0.0
C3090 C 0.6602 0.675 0.09307 0.0
C3091 C 0.65116 0.67148 0.07896 0.0
C3092 C 0.66692 0.68985 0.10059 0.0
C3093 C 0.67809 0.73059 0.09419 0.0
H3094 H 0.67524 0.73394 0.13886 0.0
C3095 C 0.70492 0.7899 0.12955 0.0
C3096 C 0.69537 0.7916 0.13983 0.0
C3097 C 0.70093 0.77527 0.12269 0.0
C3098 C 0.67612 0.73319 0.12638 0.0
H3099 H 0.64227 0.6808 0.06155 0.0
H3100 H 0.65393 0.70671 0.07474 0.0
H3101 H 0.66543 0.7084 0.12534 0.0
H3102 H 0.6745 0.77928 0.15149 0.0
H3103 H 0.66747 0.75379 0.13944 0.0
H3104 H 0.6884 0.75535 0.09517 0.0
C3105 C 0.65593 0.69803 0.07991 0.0
C3106 C 0.67064 0.71858 0.11866 0.0
C3107 C 0.64917 0.68316 0.07241 0.0
C3108 C 0.682 0.77834 0.14348 0.0
C3109 C 0.67806 0.76372 0.1367 0.0
C3110 C 0.68364 0.74521 0.10192 0.0
C3111 C 0.66479 0.70151 0.09414 0.0
C3112 C 0.67139 0.7171 0.10245 0.0
C3113 C 0.68736 0.76205 0.12607 0.0
C3114 C 0.68254 0.74664 0.11807 0.0
H3115 H 0.662 0.66626 0.09839 0.0
H3116 H 0.67383 0.69223 0.11145 0.0
H3117 H 0.67899 0.72983 0.08171 0.0
H3118 H 0.71525 0.79994 0.12646 0.0
H3119 H 0.70839 0.77431 0.11465 0.0
C3120 C 0.31897 0.95814 0.03029 0.0
C3121 C 0.33074 0.97238 0.03716 0.0
C3122 C 0.30481 0.95064 0.03674 0.0
C3123 C 0.28044 0.95797 0.06238 0.0
H3124 H 0.26245 0.9144 0.07013 0.0
C3125 C 0.23374 0.92924 0.1053 0.0
C3126 C 0.2224 0.91365 0.10208 0.0
C3127 C 0.24593 0.93624 0.09586 0.0
C3128 C 0.26714 0.9265 0.06782 0.0
H3129 H 0.33686 0.99001 0.05607 0.0
H3130 H 0.31229 0.97703 0.0672 0.0
H3131 H 0.28551 0.92677 0.05612 0.0
H3132 H 0.21461 0.89336 0.08606 0.0
H3133 H 0.23575 0.90565 0.0694 0.0
H3134 H 0.26218 0.95779 0.07409 0.0
C3135 C 0.31391 0.97166 0.05681 0.0
C3136 C 0.28038 0.93359 0.05979 0.0
C3137 C 0.32804 0.97904 0.05048 0.0
C3138 C 0.2233 0.90534 0.08895 0.0
C3139 C 0.23544 0.91237 0.07944 0.0
C3140 C 0.26716 0.95088 0.07029 0.0
C3141 C 0.30214 0.95737 0.05006 0.0
C3142 C 0.28732 0.94946 0.05724 0.0
C3143 C 0.24702 0.92786 0.08288 0.0
C3144 C 0.26048 0.93511 0.07337 0.0
H3145 H 0.32071 0.95273 0.02001 0.0
H3146 H 0.29592 0.93966 0.03126 0.0
H3147 H 0.2854 0.97018 0.06036 0.0
H3148 H 0.23348 0.93587 0.11546 0.0
H3149 H 0.25476 0.9481 0.09904 0.0
C3150 C 0.34684 0.02362 0.00309 0.0
C3151 C 0.36284 0.03091 0.00366 0.0
C3152 C 0.33927 0.03142 0.99801 0.0
C3153 C 0.34622 0.07114 0.99108 0.0
H3154 H 0.30815 0.04907 0.96526 0.0
C3155 C 0.32332 0.10134 0.95139 0.0
C3156 C 0.30797 0.09746 0.95205 0.0
C3157 C 0.32903 0.09303 0.95921 0.0
C3158 C 0.31867 0.05532 0.97264 0.0
H3159 H 0.38338 0.05199 0.99901 0.0
H3160 H 0.37022 0.06535 0.98968 0.0
H3161 H 0.32015 0.03479 0.97567 0.0
H3162 H 0.2866 0.0816 0.96152 0.0
H3163 H 0.29659 0.06667 0.97477 0.0
H3164 H 0.34502 0.09175 0.98742 0.0
C3165 C 0.36349 0.0538 0.99361 0.0
C3166 C 0.32555 0.04716 0.97863 0.0
C3167 C 0.37106 0.04608 0.99886 0.0
C3168 C 0.29844 0.08486 0.96063 0.0
C3169 C 0.30414 0.07634 0.96827 0.0
C3170 C 0.33945 0.07929 0.98492 0.0
C3171 C 0.3475 0.04663 0.99323 0.0
C3172 C 0.33956 0.05502 0.98772 0.0
C3173 C 0.31951 0.08043 0.96767 0.0
C3174 C 0.32574 0.07149 0.97546 0.0
H3175 H 0.34017 0.01197 0.00683 0.0
H3176 H 0.32697 0.02559 0.99806 0.0
H3177 H 0.35677 0.07754 0.99837 0.0
H3178 H 0.33093 0.11059 0.94451 0.0
H3179 H 0.34086 0.09623 0.95832 0.0
C3180 C 0.98282 0.31226 0.98658 0.0
C3181 C 0.97922 0.31773 0.00013 0.0
C3182 C 0.97293 0.29735 0.97979 0.0
C3183 C 0.93255 0.26744 0.97714 0.0
H3184 H 0.94681 0.24088 0.95934 0.0
C3185 C 0.89055 0.20567 0.9516 0.0
C3186 C 0.89367 0.20093 0.9373 0.0
C3187 C 0.90151 0.21925 0.95999 0.0
C3188 C 0.94267 0.24823 0.96414 0.0
H3189 H 0.96267 0.3117 0.01749 0.0
H3190 H 0.94543 0.28562 0.00568 0.0
H3191 H 0.96509 0.26581 0.97297 0.0
H3192 H 0.91083 0.20644 0.92075 0.0
H3193 H 0.93003 0.2304 0.93535 0.0
H3194 H 0.91021 0.25008 0.96817 0.0
C3195 C 0.95581 0.29294 0.00019 0.0
C3196 C 0.95313 0.26248 0.97196 0.0
C3197 C 0.96572 0.30784 0.007 0.0
C3198 C 0.90816 0.20981 0.93177 0.0
C3199 C 0.91914 0.22349 0.94015 0.0
C3200 C 0.92212 0.25324 0.96932 0.0
C3201 C 0.95921 0.28761 0.98639 0.0
C3202 C 0.94817 0.27224 0.97853 0.0
C3203 C 0.91585 0.22847 0.95425 0.0
C3204 C 0.92705 0.24346 0.96272 0.0
H3205 H 0.99315 0.3196 0.98101 0.0
H3206 H 0.9758 0.29363 0.96908 0.0
H3207 H 0.9284 0.27483 0.9818 0.0
H3208 H 0.87959 0.19886 0.95631 0.0
H3209 H 0.89873 0.22256 0.97098 0.0
C3210 C 0.68018 0.62958 0.03487 0.0
C3211 C 0.67038 0.63585 0.03493 0.0
C3212 C 0.69364 0.63675 0.02725 0.0
C3213 C 0.71074 0.66115 0.99526 0.0
H3214 H 0.74909 0.66849 0.01533 0.0
C3215 C 0.76627 0.69047 0.96375 0.0
C3216 C 0.7762 0.68444 0.96569 0.0
C3217 C 0.75404 0.68604 0.97311 0.0
C3218 C 0.73845 0.66637 0.00947 0.0
H3219 H 0.66707 0.65456 0.02702 0.0
H3220 H 0.69047 0.66688 0.01347 0.0
H3221 H 0.72628 0.65751 0.02981 0.0
H3222 H 0.78134 0.66951 0.9795 0.0
H3223 H 0.75971 0.66125 0.99523 0.0
H3224 H 0.72262 0.66938 0.97473 0.0
C3225 C 0.68772 0.65648 0.01941 0.0
C3226 C 0.72542 0.66014 0.01781 0.0
C3227 C 0.67437 0.64945 0.02722 0.0
C3228 C 0.77378 0.67417 0.97746 0.0
C3229 C 0.76148 0.66962 0.98669 0.0
C3230 C 0.72371 0.66718 0.98684 0.0
C3231 C 0.69747 0.65019 0.01935 0.0
C3232 C 0.71142 0.65738 0.01074 0.0
C3233 C 0.75134 0.67537 0.98454 0.0
C3234 C 0.73773 0.66977 0.9938 0.0
H3235 H 0.67748 0.61916 0.04076 0.0
H3236 H 0.70091 0.6316 0.02727 0.0
H3237 H 0.70004 0.65899 0.98949 0.0
H3238 H 0.76769 0.69831 0.95472 0.0
H3239 H 0.74665 0.69093 0.97128 0.0
C3240 C 0.96131 0.66263 0.02428 0.0
C3241 C 0.97294 0.66138 0.01723 0.0
C3242 C 0.95288 0.66816 0.01607 0.0
C3243 C 0.93987 0.67025 0.97657 0.0
H3244 H 0.93366 0.70319 0.99371 0.0
C3245 C 0.90841 0.69421 0.93945 0.0
C3246 C 0.89859 0.69807 0.94695 0.0
C3247 C 0.91845 0.69106 0.94818 0.0
C3248 C 0.93509 0.69383 0.98881 0.0
H3249 H 0.98494 0.66502 0.99615 0.0
H3250 H 0.97002 0.67434 0.9818 0.0
H3251 H 0.94885 0.69474 0.00906 0.0
H3252 H 0.89153 0.70172 0.96935 0.0
H3253 H 0.90864 0.69571 0.98462 0.0
H3254 H 0.92574 0.6688 0.95661 0.0
C3255 C 0.96749 0.67114 0.99366 0.0
C3256 C 0.94384 0.68905 0.99761 0.0
C3257 C 0.97605 0.66586 0.00191 0.0
C3258 C 0.89916 0.69898 0.96332 0.0
C3259 C 0.90901 0.69557 0.97206 0.0
C3260 C 0.93093 0.67483 0.96789 0.0
C3261 C 0.95577 0.67226 0.00062 0.0
C3262 C 0.94635 0.67726 0.99152 0.0
C3263 C 0.91868 0.69138 0.9646 0.0
C3264 C 0.92846 0.68674 0.97384 0.0
H3265 H 0.9587 0.65929 0.03608 0.0
H3266 H 0.94384 0.66887 0.02165 0.0
H3267 H 0.94149 0.66099 0.9717 0.0
H3268 H 0.90823 0.69354 0.92683 0.0
H3269 H 0.92596 0.68825 0.94202 0.0
C3270 C 0.34306 0.32905 0.97426 0.0
C3271 C 0.35854 0.33552 0.97946 0.0
C3272 C 0.33554 0.315 0.96508 0.0
C3273 C 0.34304 0.28899 0.93967 0.0
H3274 H 0.30355 0.2565 0.95033 0.0
C3275 C 0.32139 0.22499 0.92289 0.0
C3276 C 0.30613 0.21546 0.91708 0.0
C3277 C 0.32658 0.24014 0.92885 0.0
C3278 C 0.31446 0.26555 0.94705 0.0
H3279 H 0.3782 0.33219 0.97898 0.0
H3280 H 0.36511 0.30782 0.96318 0.0
H3281 H 0.31493 0.28237 0.96378 0.0
H3282 H 0.28429 0.21443 0.91319 0.0
H3283 H 0.29339 0.24103 0.92397 0.0
H3284 H 0.34281 0.27211 0.92331 0.0
C3285 C 0.35882 0.31368 0.96599 0.0
C3286 C 0.32097 0.28035 0.95474 0.0
C3287 C 0.3663 0.32764 0.97517 0.0
C3288 C 0.2961 0.22143 0.91764 0.0
C3289 C 0.30129 0.23664 0.92376 0.0
C3290 C 0.33657 0.27424 0.93205 0.0
C3291 C 0.34337 0.30719 0.96084 0.0
C3292 C 0.33553 0.2921 0.95141 0.0
C3293 C 0.31663 0.24616 0.92931 0.0
C3294 C 0.3224 0.26226 0.93595 0.0
H3295 H 0.33671 0.33478 0.97735 0.0
H3296 H 0.32364 0.3103 0.96122 0.0
H3297 H 0.35411 0.2979 0.93659 0.0
H3298 H 0.32935 0.22066 0.92309 0.0
H3299 H 0.33837 0.24707 0.93339 0.0
C3300 C 0.67142 0.03544 0.0083 0.0
C3301 C 0.67078 0.03666 0.02454 0.0
C3302 C 0.68508 0.04404 0.00147 0.0
C3303 C 0.72593 0.06184 0.00768 0.0
H3304 H 0.72521 0.08245 0.97043 0.0
C3305 C 0.77769 0.09319 0.96942 0.0
C3306 C 0.77399 0.09065 0.9532 0.0
C3307 C 0.76615 0.08785 0.9798 0.0
C3308 C 0.7256 0.07669 0.98076 0.0
H3309 H 0.684 0.04782 0.04643 0.0
H3310 H 0.70828 0.06284 0.03433 0.0
H3311 H 0.70321 0.07161 0.98597 0.0
H3312 H 0.75541 0.07974 0.93516 0.0
H3313 H 0.73536 0.07033 0.95316 0.0
H3314 H 0.74818 0.06646 0.00207 0.0
C3315 C 0.69803 0.05522 0.02699 0.0
C3316 C 0.71304 0.07058 0.98971 0.0
C3317 C 0.68418 0.04672 0.03387 0.0
C3318 C 0.7586 0.08214 0.94759 0.0
C3319 C 0.74712 0.07681 0.95791 0.0
C3320 C 0.73855 0.06793 0.99865 0.0
C3321 C 0.69853 0.05399 0.01069 0.0
C3322 C 0.71289 0.0627 0.00298 0.0
C3323 C 0.75073 0.07989 0.97411 0.0
C3324 C 0.73829 0.07499 0.98482 0.0
H3325 H 0.66131 0.02781 0.00077 0.0
H3326 H 0.68517 0.0427 0.98891 0.0
H3327 H 0.72605 0.05575 0.01784 0.0
H3328 H 0.78947 0.09981 0.97406 0.0
H3329 H 0.76928 0.0904 0.99222 0.0
C3330 C 0.65493 0.98295 0.06197 0.0
C3331 C 0.63996 0.97445 0.05495 0.0
C3332 C 0.66237 0.9753 0.06784 0.0
C3333 C 0.65382 0.93772 0.08241 0.0
H3334 H 0.69673 0.95217 0.07845 0.0
C3335 C 0.68052 0.90247 0.10441 0.0
C3336 C 0.69431 0.9107 0.1137 0.0
C3337 C 0.67502 0.91033 0.09549 0.0
C3338 C 0.68476 0.94808 0.07971 0.0
H3339 H 0.62135 0.95122 0.04808 0.0
H3340 H 0.63437 0.93796 0.05818 0.0
H3341 H 0.68484 0.96587 0.06624 0.0
H3342 H 0.71359 0.93349 0.12033 0.0
H3343 H 0.70386 0.94738 0.10478 0.0
H3344 H 0.65368 0.9201 0.09599 0.0
C3345 C 0.64024 0.95053 0.05941 0.0
C3346 C 0.67796 0.95591 0.07275 0.0
C3347 C 0.63279 0.95815 0.05358 0.0
C3348 C 0.70294 0.9269 0.11321 0.0
C3349 C 0.69738 0.93481 0.10431 0.0
C3350 C 0.66059 0.92993 0.08934 0.0
C3351 C 0.65502 0.959 0.06681 0.0
C3352 C 0.66239 0.95077 0.074 0.0
C3353 C 0.68312 0.92662 0.09573 0.0
C3354 C 0.67611 0.93496 0.08803 0.0
H3355 H 0.66082 0.99552 0.0632 0.0
H3356 H 0.67371 0.98215 0.07359 0.0
H3357 H 0.6419 0.93368 0.08391 0.0
H3358 H 0.67378 0.88994 0.1044 0.0
H3359 H 0.66418 0.90366 0.0887 0.0
C3360 C 0.02505 0.69479 0.06557 0.0
C3361 C 0.02828 0.68281 0.06829 0.0
C3362 C 0.03288 0.70896 0.07452 0.0
C3363 C 0.0685 0.73222 0.10019 0.0
H3364 H 0.05042 0.75785 0.10953 0.0
C3365 C 0.10027 0.78778 0.14036 0.0
C3366 C 0.10211 0.80125 0.13363 0.0
C3367 C 0.08968 0.7731 0.1336 0.0
C3368 C 0.05557 0.75078 0.10696 0.0
H3369 H 0.04157 0.67588 0.08302 0.0
H3370 H 0.05467 0.70019 0.09907 0.0
H3371 H 0.03483 0.73229 0.09568 0.0
H3372 H 0.09359 0.80979 0.11501 0.0
H3373 H 0.07479 0.78401 0.10341 0.0
H3374 H 0.08912 0.75059 0.11172 0.0
C3375 C 0.0466 0.69902 0.08964 0.0
C3376 C 0.0467 0.73618 0.09896 0.0
C3377 C 0.03901 0.68501 0.08051 0.0
C3378 C 0.0924 0.79967 0.12056 0.0
C3379 C 0.08166 0.78492 0.11388 0.0
C3380 C 0.07724 0.74664 0.10838 0.0
C3381 C 0.04392 0.71133 0.08656 0.0
C3382 C 0.05307 0.72672 0.09543 0.0
C3383 C 0.08055 0.77154 0.12009 0.0
C3384 C 0.07089 0.75607 0.11181 0.0
H3385 H 0.01688 0.69344 0.05616 0.0
H3386 H 0.03061 0.71818 0.07164 0.0
H3387 H 0.07398 0.72554 0.09734 0.0
H3388 H 0.1073 0.78858 0.15065 0.0
H3389 H 0.08886 0.76294 0.13874 0.0
C3390 C 0.32089 0.34695 0.03166 0.0
C3391 C 0.32608 0.35929 0.02183 0.0
C3392 C 0.30687 0.3414 0.03809 0.0
C3393 C 0.28069 0.35403 0.05058 0.0
H3394 H 0.25294 0.31005 0.05339 0.0
C3395 C 0.22596 0.33238 0.08312 0.0
C3396 C 0.22215 0.31975 0.09234 0.0
C3397 C 0.2373 0.33655 0.07266 0.0
C3398 C 0.26062 0.32238 0.05285 0.0
H3399 H 0.32051 0.37532 0.01076 0.0
H3400 H 0.29598 0.36573 0.02228 0.0
H3401 H 0.27513 0.31848 0.0382 0.0
H3402 H 0.22712 0.30152 0.09779 0.0
H3403 H 0.24718 0.30897 0.07985 0.0
H3404 H 0.26665 0.35804 0.06572 0.0
C3405 C 0.30281 0.36035 0.02492 0.0
C3406 C 0.27329 0.32719 0.04407 0.0
C3407 C 0.31679 0.36578 0.01829 0.0
C3408 C 0.22973 0.31121 0.09071 0.0
C3409 C 0.24119 0.31547 0.08036 0.0
C3410 C 0.26812 0.34924 0.05949 0.0
C3411 C 0.29778 0.34819 0.03499 0.0
C3412 C 0.28356 0.34306 0.043 0.0
C3413 C 0.24522 0.32828 0.07129 0.0
C3414 C 0.25802 0.33334 0.06092 0.0
H3415 H 0.32777 0.34168 0.03458 0.0
H3416 H 0.30338 0.33213 0.04593 0.0
H3417 H 0.28852 0.36635 0.05014 0.0
H3418 H 0.22014 0.33903 0.08398 0.0
H3419 H 0.23986 0.34627 0.06565 0.0
C3420 C 0.71799 0.70225 0.38299 0.0
C3421 C 0.70206 0.69445 0.3801 0.0
C3422 C 0.72505 0.69579 0.39189 0.0
C3423 C 0.71928 0.65875 0.40629 0.0
H3424 H 0.75558 0.68663 0.43283 0.0
C3425 C 0.75521 0.6406 0.4473 0.0
C3426 C 0.77086 0.64863 0.44487 0.0
C3427 C 0.74528 0.64487 0.43999 0.0
C3428 C 0.74543 0.67872 0.42549 0.0
H3429 H 0.68103 0.67368 0.38436 0.0
H3430 H 0.6934 0.66252 0.40025 0.0
H3431 H 0.7409 0.69682 0.41961 0.0
H3432 H 0.78807 0.6667 0.43199 0.0
H3433 H 0.77089 0.67441 0.41979 0.0
H3434 H 0.72396 0.64064 0.41241 0.0
C3435 C 0.70043 0.67355 0.3954 0.0
C3436 C 0.73707 0.68454 0.41783 0.0
C3437 C 0.69334 0.67999 0.38635 0.0
C3438 C 0.7762 0.66059 0.43454 0.0
C3439 C 0.76637 0.66496 0.42747 0.0
C3440 C 0.72758 0.65288 0.41415 0.0
C3441 C 0.71638 0.68142 0.3983 0.0
C3442 C 0.72414 0.67474 0.40778 0.0
C3443 C 0.75089 0.65733 0.43031 0.0
C3444 C 0.74094 0.66291 0.42347 0.0
H3445 H 0.72511 0.71331 0.37821 0.0
H3446 H 0.73737 0.70201 0.39354 0.0
H3447 H 0.70943 0.65089 0.39857 0.0
H3448 H 0.75074 0.63136 0.4552 0.0
H3449 H 0.73335 0.63882 0.44231 0.0
C3450 C 0.31575 0.0151 0.40437 0.0
C3451 C 0.31749 0.00364 0.4118 0.0
C3452 C 0.3226 0.03026 0.41113 0.0
C3453 C 0.33721 0.05263 0.44911 0.0
H3454 H 0.35405 0.08789 0.42349 0.0
C3455 C 0.36345 0.11599 0.4753 0.0
C3456 C 0.3589 0.12531 0.46733 0.0
C3457 C 0.36014 0.10149 0.4686 0.0
C3458 C 0.34932 0.07815 0.43079 0.0
H3459 H 0.32804 0.99917 0.43202 0.0
H3460 H 0.3401 0.02573 0.44381 0.0
H3461 H 0.34523 0.06189 0.4116 0.0
H3462 H 0.34777 0.12698 0.44588 0.0
H3463 H 0.34182 0.10167 0.43431 0.0
H3464 H 0.34108 0.06888 0.46826 0.0
C3465 C 0.3333 0.02292 0.43282 0.0
C3466 C 0.34427 0.06326 0.42398 0.0
C3467 C 0.32646 0.00774 0.42603 0.0
C3468 C 0.35126 0.11998 0.4524 0.0
C3469 C 0.34802 0.10556 0.44569 0.0
C3470 C 0.34229 0.06754 0.45593 0.0
C3471 C 0.33135 0.03433 0.4255 0.0
C3472 C 0.33791 0.05029 0.433 0.0
C3473 C 0.35232 0.09609 0.45375 0.0
C3474 C 0.34816 0.08044 0.4468 0.0
H3475 H 0.30889 0.01232 0.39341 0.0
H3476 H 0.32068 0.03869 0.40529 0.0
H3477 H 0.33222 0.04287 0.45636 0.0
H3478 H 0.36929 0.11975 0.48686 0.0
H3479 H 0.36371 0.09452 0.47505 0.0
C3480 C 0.98788 0.28772 0.3594 0.0
C3481 C 0.99961 0.30175 0.36673 0.0
C3482 C 0.97331 0.2806 0.36493 0.0
C3483 C 0.94824 0.28829 0.38949 0.0
H3484 H 0.92821 0.24404 0.39458 0.0
C3485 C 0.89911 0.25782 0.42959 0.0
C3486 C 0.88733 0.2427 0.42499 0.0
C3487 C 0.91179 0.26522 0.42084 0.0
C3488 C 0.9335 0.25636 0.393 0.0
H3489 H 0.00518 0.31943 0.38542 0.0
H3490 H 0.9799 0.30701 0.39507 0.0
H3491 H 0.9522 0.25652 0.38217 0.0
H3492 H 0.87932 0.22375 0.40717 0.0
H3493 H 0.90143 0.23669 0.39184 0.0
H3494 H 0.92967 0.28817 0.40055 0.0
C3495 C 0.98186 0.30156 0.38497 0.0
C3496 C 0.94727 0.26351 0.38589 0.0
C3497 C 0.9964 0.30863 0.3795 0.0
C3498 C 0.88831 0.23532 0.41116 0.0
C3499 C 0.90099 0.24272 0.40239 0.0
C3500 C 0.93447 0.28113 0.39659 0.0
C3501 C 0.97015 0.28741 0.37783 0.0
C3502 C 0.95492 0.2796 0.38425 0.0
C3503 C 0.91299 0.25767 0.40725 0.0
C3504 C 0.92703 0.26511 0.39863 0.0
H3505 H 0.98999 0.28215 0.34951 0.0
H3506 H 0.9645 0.26978 0.35908 0.0
H3507 H 0.95371 0.30066 0.38817 0.0
H3508 H 0.89884 0.26374 0.44031 0.0
H3509 H 0.92092 0.27664 0.42505 0.0
C3510 C 0.02437 0.35222 0.32649 0.0
C3511 C 0.03998 0.35688 0.3273 0.0
C3512 C 0.01907 0.36131 0.31948 0.0
C3513 C 0.02839 0.39172 0.29212 0.0
H3514 H 0.00349 0.40281 0.31655 0.0
C3515 C 0.01692 0.44077 0.27557 0.0
C3516 C 0.00241 0.43891 0.27756 0.0
C3517 C 0.021 0.4303 0.28143 0.0
C3518 C 0.01022 0.39965 0.30944 0.0
H3519 H 0.06216 0.37441 0.3208 0.0
H3520 H 0.05283 0.39014 0.30837 0.0
H3521 H 0.0111 0.38469 0.3263 0.0
H3522 H 0.9809 0.42465 0.28758 0.0
H3523 H 0.98782 0.40606 0.29732 0.0
H3524 H 0.02742 0.40647 0.27515 0.0
C3525 C 0.04474 0.37949 0.31323 0.0
C3526 C 0.0146 0.38929 0.31506 0.0
C3527 C 0.05007 0.37051 0.32041 0.0
C3528 C 0.99212 0.42637 0.28571 0.0
C3529 C 0.99616 0.41579 0.29145 0.0
C3530 C 0.02389 0.40195 0.28641 0.0
C3531 C 0.02924 0.37513 0.31296 0.0
C3532 C 0.02385 0.38536 0.30652 0.0
C3533 C 0.01062 0.41757 0.28928 0.0
C3534 C 0.0149 0.40619 0.29509 0.0
H3535 H 0.01628 0.34181 0.33172 0.0
H3536 H 0.00704 0.35763 0.3193 0.0
H3537 H 0.03539 0.38874 0.28523 0.0
H3538 H 0.02506 0.45012 0.26914 0.0
H3539 H 0.03233 0.43222 0.27977 0.0
C3540 C 0.64888 0.65171 0.3193 0.0
C3541 C 0.64482 0.65664 0.3329 0.0
C3542 C 0.6392 0.63697 0.31195 0.0
C3543 C 0.59875 0.60709 0.3081 0.0
H3544 H 0.61288 0.58032 0.29057 0.0
C3545 C 0.55655 0.54491 0.28435 0.0
C3546 C 0.5593 0.53966 0.27013 0.0
C3547 C 0.56768 0.55875 0.2922 0.0
C3548 C 0.6088 0.58775 0.29527 0.0
H3549 H 0.62778 0.64976 0.34982 0.0
H3550 H 0.611 0.62407 0.33709 0.0
H3551 H 0.63124 0.60532 0.30413 0.0
H3552 H 0.576 0.54455 0.25317 0.0
H3553 H 0.59552 0.56896 0.26686 0.0
H3554 H 0.5764 0.58974 0.29919 0.0
C3555 C 0.62152 0.63167 0.33195 0.0
C3556 C 0.6193 0.60204 0.30304 0.0
C3557 C 0.63118 0.64636 0.33929 0.0
C3558 C 0.57361 0.54832 0.26414 0.0
C3559 C 0.58477 0.56226 0.27199 0.0
C3560 C 0.5883 0.59289 0.30033 0.0
C3561 C 0.62528 0.62691 0.31805 0.0
C3562 C 0.61434 0.61179 0.30964 0.0
C3563 C 0.58183 0.56773 0.286 0.0
C3564 C 0.59316 0.58298 0.29394 0.0
H3565 H 0.65934 0.65938 0.31411 0.0
H3566 H 0.64237 0.63366 0.30121 0.0
H3567 H 0.59461 0.6145 0.31273 0.0
H3568 H 0.54575 0.53829 0.28943 0.0
H3569 H 0.56518 0.56244 0.30315 0.0
C3570 C 0.33412 0.94993 0.36015 0.0
C3571 C 0.33136 0.96081 0.36812 0.0
C3572 C 0.34681 0.95479 0.35146 0.0
C3573 C 0.3761 0.98885 0.33267 0.0
H3574 H 0.39595 0.96398 0.33138 0.0
C3575 C 0.43218 0.00596 0.30253 0.0
C3576 C 0.43179 0.99413 0.29262 0.0
C3577 C 0.4203 0.00275 0.3121 0.0
C3578 C 0.39048 0.971 0.33159 0.0
H3579 H 0.33991 0.98541 0.37325 0.0
H3580 H 0.36236 0.99393 0.3584 0.0
H3581 H 0.37492 0.95703 0.34786 0.0
H3582 H 0.41819 0.96974 0.28468 0.0
H3583 H 0.39781 0.96412 0.3017 0.0
H3584 H 0.39199 0.00297 0.31652 0.0
C3585 C 0.35449 0.9816 0.35861 0.0
C3586 C 0.37837 0.96699 0.34097 0.0
C3587 C 0.34166 0.97672 0.36719 0.0
C3588 C 0.41913 0.97907 0.29242 0.0
C3589 C 0.40738 0.97584 0.30212 0.0
C3590 C 0.38838 0.99298 0.32341 0.0
C3591 C 0.35724 0.97068 0.35065 0.0
C3592 C 0.37082 0.97568 0.34144 0.0
C3593 C 0.40788 0.98761 0.3121 0.0
C3594 C 0.39551 0.98393 0.3226 0.0
H3595 H 0.32635 0.93758 0.36043 0.0
H3596 H 0.3483 0.94603 0.3452 0.0
H3597 H 0.37048 0.99573 0.33259 0.0
H3598 H 0.44181 0.01765 0.30314 0.0
H3599 H 0.42099 0.01202 0.31977 0.0
C3600 C 0.64227 0.99033 0.34086 0.0
C3601 C 0.63684 0.97928 0.35212 0.0
C3602 C 0.63227 0.99357 0.33214 0.0
C3603 C 0.59262 0.97566 0.31704 0.0
H3604 H 0.60077 0.01765 0.31188 0.0
C3605 C 0.54774 0.98736 0.28664 0.0
C3606 C 0.55268 0.00023 0.27758 0.0
C3607 C 0.55823 0.98517 0.29575 0.0
C3608 C 0.59842 0.00586 0.31297 0.0
H3609 H 0.61672 0.9631 0.36322 0.0
H3610 H 0.59921 0.96856 0.34775 0.0
H3611 H 0.61879 0.01337 0.32787 0.0
H3612 H 0.57242 0.02086 0.2708 0.0
H3613 H 0.5909 0.01679 0.28628 0.0
H3614 H 0.57256 0.96804 0.30184 0.0
C3615 C 0.61121 0.97474 0.34574 0.0
C3616 C 0.60872 0.00343 0.32221 0.0
C3617 C 0.62125 0.97169 0.35464 0.0
C3618 C 0.56834 0.01087 0.27775 0.0
C3619 C 0.57889 0.00857 0.2867 0.0
C3620 C 0.58245 0.97808 0.30762 0.0
C3621 C 0.61661 0.98562 0.33433 0.0
C3622 C 0.60584 0.9883 0.32443 0.0
C3623 C 0.57397 0.99569 0.29587 0.0
C3624 C 0.58512 0.9932 0.30555 0.0
H3625 H 0.65424 0.99639 0.33868 0.0
H3626 H 0.6367 0.00196 0.32336 0.0
H3627 H 0.59026 0.96388 0.31836 0.0
H3628 H 0.53569 0.97913 0.28693 0.0
H3629 H 0.55393 0.97533 0.30291 0.0
C3630 C 0.01551 0.66568 0.31661 0.0
C3631 C 0.03023 0.67802 0.31501 0.0
C3632 C 0.00989 0.65176 0.30742 0.0
C3633 C 0.02408 0.6302 0.28343 0.0
H3634 H 0.98095 0.60198 0.27314 0.0
C3635 C 0.00178 0.5735 0.24507 0.0
C3636 C 0.9925 0.56015 0.25286 0.0
C3637 C 0.00503 0.58816 0.25104 0.0
C3638 C 0.99302 0.60982 0.27593 0.0
H3639 H 0.05023 0.68603 0.30193 0.0
H3640 H 0.04014 0.66224 0.28521 0.0
H3641 H 0.98934 0.62762 0.28597 0.0
H3642 H 0.9788 0.55186 0.27274 0.0
H3643 H 0.98408 0.5775 0.28279 0.0
H3644 H 0.02769 0.61247 0.27302 0.0
C3645 C 0.03315 0.66285 0.29405 0.0
C3646 C 0.99786 0.62446 0.28338 0.0
C3647 C 0.03891 0.67657 0.30352 0.0
C3648 C 0.98585 0.5618 0.2663 0.0
C3649 C 0.98889 0.57647 0.27211 0.0
C3650 C 0.01926 0.61575 0.2757 0.0
C3651 C 0.01875 0.65005 0.29618 0.0
C3652 C 0.01347 0.6348 0.28738 0.0
C3653 C 0.99881 0.58978 0.26474 0.0
C3654 C 0.00371 0.60539 0.27204 0.0
H3655 H 0.00865 0.66652 0.32549 0.0
H3656 H 0.99885 0.64219 0.3096 0.0
H3657 H 0.03614 0.63754 0.28665 0.0
H3658 H 0.00678 0.57267 0.23446 0.0
H3659 H 0.01261 0.59829 0.2451 0.0
C3660 C 0.33397 0.36711 0.34089 0.0
C3661 C 0.33324 0.37046 0.35674 0.0
C3662 C 0.34745 0.3754 0.33363 0.0
C3663 C 0.38855 0.39709 0.33997 0.0
H3664 H 0.38608 0.41271 0.29986 0.0
C3665 C 0.44088 0.43039 0.30322 0.0
C3666 C 0.43808 0.42724 0.28695 0.0
C3667 C 0.42879 0.42426 0.31291 0.0
C3668 C 0.38696 0.40828 0.31096 0.0
H3669 H 0.34613 0.38501 0.37751 0.0
H3670 H 0.37003 0.39946 0.36473 0.0
H3671 H 0.36373 0.40101 0.31484 0.0
H3672 H 0.42068 0.41454 0.26814 0.0
H3673 H 0.39968 0.40352 0.28497 0.0
H3674 H 0.41168 0.40389 0.33581 0.0
C3675 C 0.36002 0.39043 0.35799 0.0
C3676 C 0.37418 0.40169 0.31958 0.0
C3677 C 0.34637 0.38224 0.36525 0.0
C3678 C 0.42311 0.41735 0.28062 0.0
C3679 C 0.41108 0.41114 0.29027 0.0
C3680 C 0.40137 0.40359 0.33124 0.0
C3681 C 0.3606 0.38714 0.34207 0.0
C3682 C 0.37475 0.39575 0.33401 0.0
C3683 C 0.4137 0.41479 0.3065 0.0
C3684 C 0.4006 0.40895 0.31647 0.0
H3685 H 0.32406 0.35811 0.33399 0.0
H3686 H 0.34764 0.37251 0.32139 0.0
H3687 H 0.38923 0.39252 0.35104 0.0
H3688 H 0.45234 0.43807 0.30836 0.0
H3689 H 0.4312 0.42734 0.32535 0.0
C3690 C 0.29889 0.29659 0.39366 0.0
C3691 C 0.30539 0.31281 0.39388 0.0
C3692 C 0.30747 0.28996 0.39897 0.0
C3693 C 0.34056 0.2976 0.42482 0.0
H3694 H 0.33616 0.26094 0.40209 0.0
C3695 C 0.3695 0.26386 0.44816 0.0
C3696 C 0.35953 0.2478 0.44819 0.0
C3697 C 0.36528 0.2731 0.43967 0.0
C3698 C 0.3375 0.27117 0.40857 0.0
H3699 H 0.32609 0.33478 0.40002 0.0
H3700 H 0.34104 0.32311 0.40943 0.0
H3701 H 0.324 0.27479 0.39111 0.0
H3702 H 0.33779 0.22864 0.43875 0.0
H3703 H 0.33038 0.24467 0.42409 0.0
H3704 H 0.35365 0.29367 0.44253 0.0
C3705 C 0.32927 0.31558 0.40511 0.0
C3706 C 0.33053 0.27907 0.4023 0.0
C3707 C 0.3207 0.32224 0.39969 0.0
C3708 C 0.34562 0.24103 0.43904 0.0
C3709 C 0.34146 0.2502 0.43052 0.0
C3710 C 0.34752 0.28965 0.43113 0.0
C3711 C 0.32276 0.29937 0.40471 0.0
C3712 C 0.33165 0.29213 0.41054 0.0
C3713 C 0.35109 0.26637 0.43097 0.0
C3714 C 0.34572 0.27611 0.42325 0.0
H3715 H 0.28716 0.28894 0.38926 0.0
H3716 H 0.30206 0.27742 0.39876 0.0
H3717 H 0.34155 0.30758 0.43147 0.0
H3718 H 0.38026 0.26936 0.45517 0.0
H3719 H 0.37299 0.28551 0.44013 0.0
C3720 C 0.70177 0.0111 0.41724 0.0
C3721 C 0.69242 0.00835 0.40357 0.0
C3722 C 0.70855 0.02548 0.42566 0.0
C3723 C 0.70971 0.06381 0.42903 0.0
H3724 H 0.75085 0.07751 0.44629 0.0
C3725 C 0.75723 0.12777 0.44687 0.0
C3726 C 0.7657 0.13007 0.46116 0.0
C3727 C 0.74604 0.11281 0.44115 0.0
C3728 C 0.73931 0.07378 0.44168 0.0
H3729 H 0.68236 0.01816 0.38816 0.0
H3730 H 0.69486 0.04369 0.40242 0.0
H3731 H 0.73577 0.05163 0.43369 0.0
H3732 H 0.76814 0.11862 0.48125 0.0
H3733 H 0.74897 0.09255 0.47102 0.0
H3734 H 0.71388 0.08659 0.43646 0.0
C3735 C 0.69662 0.03463 0.40697 0.0
C3736 C 0.73058 0.05887 0.43452 0.0
C3737 C 0.68949 0.02003 0.39874 0.0
C3738 C 0.7621 0.11722 0.47002 0.0
C3739 C 0.75108 0.10231 0.46423 0.0
C3740 C 0.71862 0.07891 0.43599 0.0
C3741 C 0.70655 0.03765 0.42035 0.0
C3742 C 0.7156 0.05359 0.42818 0.0
C3743 C 0.74325 0.09992 0.44957 0.0
C3744 C 0.73346 0.08395 0.44245 0.0
H3745 H 0.70401 0.00216 0.42129 0.0
H3746 H 0.71565 0.02713 0.43619 0.0
H3747 H 0.6982 0.06015 0.42442 0.0
H3748 H 0.75977 0.13738 0.4397 0.0
H3749 H 0.7402 0.11124 0.42977 0.0
C3750 C 0.98375 0.70193 0.35551 0.0
C3751 C 0.99364 0.69622 0.35933 0.0
C3752 C 0.96952 0.6957 0.36177 0.0
C3753 C 0.94062 0.6615 0.38026 0.0
H3754 H 0.93113 0.69077 0.40078 0.0
C3755 C 0.89435 0.64299 0.42446 0.0
C3756 C 0.88625 0.65106 0.4255 0.0
C3757 C 0.90634 0.64775 0.4147 0.0
C3758 C 0.93339 0.68239 0.39486 0.0
H3759 H 0.99618 0.67915 0.37221 0.0
H3760 H 0.97137 0.6682 0.38294 0.0
H3761 H 0.95377 0.70033 0.38624 0.0
H3762 H 0.88376 0.66987 0.41659 0.0
H3763 H 0.90433 0.67791 0.39923 0.0
H3764 H 0.92027 0.64354 0.38883 0.0
C3765 C 0.97458 0.67749 0.37516 0.0
C3766 C 0.94642 0.6879 0.38655 0.0
C3767 C 0.98883 0.68384 0.36908 0.0
C3768 C 0.88999 0.66359 0.41618 0.0
C3769 C 0.90183 0.66823 0.40629 0.0
C3770 C 0.9275 0.65596 0.38844 0.0
C3771 C 0.96486 0.6835 0.37176 0.0
C3772 C 0.95029 0.67753 0.37935 0.0
C3773 C 0.91037 0.66057 0.40563 0.0
C3774 C 0.92381 0.66634 0.39604 0.0
H3775 H 0.98715 0.71148 0.34803 0.0
H3776 H 0.96221 0.70049 0.35888 0.0
H3777 H 0.94325 0.65323 0.37469 0.0
H3778 H 0.89177 0.63336 0.43162 0.0
H3779 H 0.91276 0.64167 0.41469 0.0
C3780 C 0.38157 0.04431 0.7269 0.0
C3781 C 0.36907 0.03381 0.71672 0.0
C3782 C 0.38886 0.03897 0.73708 0.0
C3783 C 0.39718 0.00762 0.74071 0.0
H3784 H 0.4089 0.02342 0.78403 0.0
C3785 C 0.43324 0.99003 0.77974 0.0
C3786 C 0.44511 0.00202 0.78947 0.0
C3787 C 0.4219 0.99222 0.77235 0.0
C3788 C 0.40583 0.01898 0.77193 0.0
H3789 H 0.35433 0.00943 0.70937 0.0
H3790 H 0.36732 0.00016 0.72701 0.0
H3791 H 0.39303 0.03066 0.76816 0.0
H3792 H 0.45385 0.02545 0.79971 0.0
H3793 H 0.43457 0.02953 0.78634 0.0
H3794 H 0.41051 0.99656 0.74412 0.0
C3795 C 0.37136 0.01251 0.72712 0.0
C3796 C 0.39669 0.02308 0.76288 0.0
C3797 C 0.36391 0.01782 0.71709 0.0
C3798 C 0.44505 0.01606 0.79206 0.0
C3799 C 0.43382 0.01831 0.78457 0.0
C3800 C 0.40648 0.00367 0.74969 0.0
C3801 C 0.38394 0.02304 0.73715 0.0
C3802 C 0.39246 0.01761 0.74714 0.0
C3803 C 0.42222 0.00651 0.77442 0.0
C3804 C 0.41113 0.0095 0.76535 0.0
H3805 H 0.3858 0.05669 0.72696 0.0
H3806 H 0.39864 0.04735 0.74459 0.0
H3807 H 0.3942 0.00337 0.72855 0.0
H3808 H 0.43297 0.9791 0.77738 0.0
H3809 H 0.41301 0.98278 0.76483 0.0
C3810 C 0.97336 0.34097 0.73342 0.0
C3811 C 0.97741 0.33075 0.74025 0.0
C3812 C 0.97711 0.3551 0.74126 0.0
C3813 C 0.00233 0.38388 0.77272 0.0
H3814 H 0.9702 0.39445 0.77298 0.0
C3815 C 0.00766 0.43639 0.81028 0.0
C3816 C 0.00161 0.44497 0.80332 0.0
C3817 C 0.00522 0.42247 0.80289 0.0
C3818 C 0.97937 0.39178 0.77288 0.0
H3819 H 0.98899 0.32754 0.76046 0.0
H3820 H 0.99556 0.35232 0.77419 0.0
H3821 H 0.96536 0.37038 0.7593 0.0
H3822 H 0.98878 0.44603 0.78292 0.0
H3823 H 0.98463 0.42189 0.76999 0.0
H3824 H 0.01637 0.4054 0.78622 0.0
C3825 C 0.98952 0.34938 0.76273 0.0
C3826 C 0.97658 0.37797 0.76504 0.0
C3827 C 0.98571 0.33518 0.7549 0.0
C3828 C 0.99331 0.4395 0.78872 0.0
C3829 C 0.99093 0.42566 0.78132 0.0
C3830 C 0.00515 0.39777 0.78053 0.0
C3831 C 0.98502 0.35936 0.7561 0.0
C3832 C 0.98806 0.37392 0.76476 0.0
C3833 C 0.99673 0.41689 0.78837 0.0
C3834 C 0.99372 0.40194 0.78057 0.0
H3835 H 0.96703 0.33795 0.72211 0.0
H3836 H 0.97372 0.36267 0.73573 0.0
H3837 H 0.01141 0.38109 0.77262 0.0
H3838 H 0.01402 0.44029 0.82158 0.0
H3839 H 0.00971 0.41592 0.8087 0.0
C3840 C 0.65611 0.62293 0.69471 0.0
C3841 C 0.66748 0.63732 0.70174 0.0
C3842 C 0.64196 0.61484 0.70107 0.0
C3843 C 0.61684 0.62022 0.72756 0.0
H3844 H 0.60003 0.57631 0.7331 0.0
C3845 C 0.5598 0.58399 0.75568 0.0
C3846 C 0.55982 0.57399 0.76684 0.0
C3847 C 0.57193 0.59118 0.74616 0.0
C3848 C 0.60458 0.58857 0.73164 0.0
H3849 H 0.67285 0.65458 0.72082 0.0
H3850 H 0.64834 0.64052 0.73186 0.0
H3851 H 0.62312 0.59007 0.71931 0.0
H3852 H 0.57279 0.56395 0.7769 0.0
H3853 H 0.59383 0.57638 0.7603 0.0
H3854 H 0.59861 0.61885 0.74033 0.0
C3855 C 0.65024 0.63552 0.72138 0.0
C3856 C 0.61771 0.59641 0.72359 0.0
C3857 C 0.66435 0.64353 0.7151 0.0
C3858 C 0.57223 0.57132 0.76821 0.0
C3859 C 0.58431 0.57845 0.75869 0.0
C3860 C 0.60368 0.61237 0.73556 0.0
C3861 C 0.63889 0.62106 0.7145 0.0
C3862 C 0.62415 0.61239 0.72171 0.0
C3863 C 0.58434 0.58849 0.74757 0.0
C3864 C 0.59755 0.59651 0.73793 0.0
H3865 H 0.65818 0.61786 0.68439 0.0
H3866 H 0.63341 0.60376 0.69544 0.0
H3867 H 0.62141 0.63249 0.72614 0.0
H3868 H 0.55033 0.58615 0.75419 0.0
H3869 H 0.57155 0.59874 0.73761 0.0
C3870 C 0.70455 0.71129 0.67 0.0
C3871 C 0.69871 0.69529 0.66678 0.0
C3872 C 0.69637 0.71842 0.6649 0.0
C3873 C 0.65764 0.70995 0.65001 0.0
H3874 H 0.68014 0.75234 0.638 0.0
C3875 C 0.63207 0.74307 0.61677 0.0
C3876 C 0.63718 0.75843 0.62258 0.0
C3877 C 0.63818 0.73443 0.62327 0.0
C3878 C 0.67372 0.74054 0.64146 0.0
H3879 H 0.67975 0.67426 0.65545 0.0
H3880 H 0.66574 0.68684 0.64594 0.0
H3881 H 0.69389 0.73913 0.64606 0.0
H3882 H 0.65188 0.77628 0.64054 0.0
H3883 H 0.66282 0.76132 0.65155 0.0
H3884 H 0.63742 0.71136 0.6447 0.0
C3885 C 0.67645 0.69381 0.65282 0.0
C3886 C 0.68159 0.73296 0.64614 0.0
C3887 C 0.68455 0.68661 0.65817 0.0
C3888 C 0.64792 0.76461 0.63557 0.0
C3889 C 0.65416 0.75605 0.64191 0.0
C3890 C 0.64975 0.71748 0.64505 0.0
C3891 C 0.68224 0.70982 0.65617 0.0
C3892 C 0.67369 0.71761 0.65065 0.0
C3893 C 0.64963 0.74105 0.63556 0.0
C3894 C 0.65775 0.7329 0.6409 0.0
H3895 H 0.71533 0.71831 0.67678 0.0
H3896 H 0.70108 0.73068 0.66805 0.0
H3897 H 0.65116 0.69821 0.65358 0.0
H3898 H 0.62399 0.738 0.60664 0.0
H3899 H 0.63457 0.72289 0.61812 0.0
C3900 C 0.30159 0.9809 0.67493 0.0
C3901 C 0.31435 0.99156 0.66752 0.0
C3902 C 0.2923 0.96585 0.66827 0.0
C3903 C 0.2896 0.93633 0.63881 0.0
H3904 H 0.24633 0.92205 0.63877 0.0
C3905 C 0.24226 0.88145 0.60232 0.0
C3906 C 0.22867 0.87254 0.60952 0.0
C3907 C 0.2538 0.89546 0.60971 0.0
C3908 C 0.25836 0.92576 0.63885 0.0
H3909 H 0.32778 0.99464 0.64767 0.0
H3910 H 0.31135 0.96827 0.63587 0.0
H3911 H 0.26458 0.94735 0.65118 0.0
H3912 H 0.21692 0.87065 0.63045 0.0
H3913 H 0.23702 0.89493 0.64337 0.0
H3914 H 0.28322 0.91462 0.62629 0.0
C3915 C 0.30864 0.97156 0.64691 0.0
C3916 C 0.26883 0.94027 0.64598 0.0
C3917 C 0.318 0.98666 0.65363 0.0
C3918 C 0.22713 0.87748 0.62449 0.0
C3919 C 0.23864 0.89138 0.63187 0.0
C3920 C 0.27907 0.92173 0.63164 0.0
C3921 C 0.29548 0.96112 0.65399 0.0
C3922 C 0.28456 0.94568 0.64618 0.0
C3923 C 0.25194 0.90072 0.62442 0.0
C3924 C 0.26333 0.91625 0.63172 0.0
H3925 H 0.29857 0.98426 0.68574 0.0
H3926 H 0.28244 0.95797 0.67418 0.0
H3927 H 0.30166 0.94018 0.63883 0.0
H3928 H 0.2437 0.87789 0.59076 0.0
H3929 H 0.26389 0.90244 0.60366 0.0
C3930 C 0.00572 0.28738 0.68687 0.0
C3931 C 0.00113 0.29635 0.6957 0.0
C3932 C 0.01889 0.2945 0.67881 0.0
C3933 C 0.05571 0.32994 0.67837 0.0
H3934 H 0.0541 0.31552 0.63541 0.0
C3935 C 0.10823 0.35766 0.64141 0.0
C3936 C 0.11041 0.34736 0.63162 0.0
C3937 C 0.09474 0.35242 0.64896 0.0
C3938 C 0.05482 0.31958 0.64746 0.0
H3939 H 0.00698 0.31991 0.70314 0.0
H3940 H 0.03016 0.33233 0.68919 0.0
H3941 H 0.03096 0.30437 0.64928 0.0
H3942 H 0.09988 0.32354 0.62182 0.0
H3943 H 0.07684 0.31435 0.63539 0.0
H3944 H 0.07966 0.34482 0.67674 0.0
C3945 C 0.02345 0.31977 0.68849 0.0
C3946 C 0.04153 0.31322 0.65537 0.0
C3947 C 0.01015 0.31264 0.6964 0.0
C3948 C 0.09876 0.33176 0.6295 0.0
C3949 C 0.08537 0.32652 0.63709 0.0
C3950 C 0.06907 0.33621 0.6705 0.0
C3951 C 0.02789 0.31076 0.67954 0.0
C3952 C 0.04187 0.31819 0.67095 0.0
C3953 C 0.08315 0.33676 0.64689 0.0
C3954 C 0.06882 0.33095 0.655 0.0
H3955 H 0.99905 0.27481 0.68604 0.0
H3956 H 0.02214 0.28727 0.67212 0.0
H3957 H 0.05631 0.33392 0.69043 0.0
H3958 H 0.117 0.36973 0.64337 0.0
H3959 H 0.09336 0.36067 0.65631 0.0
C3960 C 0.31467 0.33312 0.67524 0.0
C3961 C 0.30829 0.32172 0.68607 0.0
C3962 C 0.30574 0.33817 0.66722 0.0
C3963 C 0.26649 0.32469 0.65305 0.0
H3964 H 0.27929 0.36815 0.64915 0.0
C3965 C 0.22572 0.34294 0.62497 0.0
C3966 C 0.23166 0.35573 0.61573 0.0
C3967 C 0.23543 0.33948 0.63383 0.0
C3968 C 0.27564 0.35596 0.64992 0.0
H3969 H 0.28765 0.3069 0.6972 0.0
H3970 H 0.272 0.31555 0.68298 0.0
H3971 H 0.29572 0.361 0.66426 0.0
H3972 H 0.25236 0.37505 0.6086 0.0
H3973 H 0.26947 0.36872 0.62371 0.0
H3974 H 0.24669 0.31949 0.63842 0.0
C3975 C 0.28392 0.32058 0.68075 0.0
C3976 C 0.28502 0.35189 0.65864 0.0
C3977 C 0.29289 0.31569 0.68893 0.0
C3978 C 0.24753 0.36513 0.61565 0.0
C3979 C 0.25729 0.36153 0.62438 0.0
C3980 C 0.25723 0.32872 0.64418 0.0
C3981 C 0.29022 0.33176 0.66971 0.0
C3982 C 0.28046 0.33621 0.6604 0.0
C3983 C 0.25135 0.34859 0.63352 0.0
C3984 C 0.26158 0.34441 0.64261 0.0
H3985 H 0.32652 0.33801 0.67283 0.0
H3986 H 0.31086 0.34675 0.65872 0.0
H3987 H 0.26283 0.3125 0.65399 0.0
H3988 H 0.21352 0.33571 0.62548 0.0
H3989 H 0.2304 0.32969 0.64104 0.0
C3990 C 0.67841 0.99239 0.64625 0.0
C3991 C 0.69354 0.00318 0.64367 0.0
C3992 C 0.67092 0.97787 0.6379 0.0
C3993 C 0.6797 0.95131 0.61442 0.0
H3994 H 0.63583 0.92793 0.60548 0.0
C3995 C 0.65011 0.89335 0.57737 0.0
C3996 C 0.63945 0.88081 0.58527 0.0
C3997 C 0.65543 0.90863 0.58313 0.0
C3998 C 0.6481 0.93438 0.60791 0.0
H3999 H 0.7124 0.00773 0.62973 0.0
H4000 H 0.69915 0.98291 0.61454 0.0
H4001 H 0.64777 0.95435 0.61767 0.0
H4002 H 0.62547 0.87466 0.60506 0.0
H4003 H 0.63443 0.90143 0.61476 0.0
H4004 H 0.67998 0.93144 0.6043 0.0
C4005 C 0.69321 0.9852 0.6235 0.0
C4006 C 0.65496 0.94948 0.61499 0.0
C4007 C 0.7008 0.99952 0.6321 0.0
C4008 C 0.63355 0.88398 0.59856 0.0
C4009 C 0.63871 0.89931 0.60417 0.0
C4010 C 0.67288 0.93641 0.60709 0.0
C4011 C 0.67831 0.97398 0.62655 0.0
C4012 C 0.67087 0.95813 0.61844 0.0
C4013 C 0.64999 0.91173 0.59674 0.0
C4014 C 0.65703 0.92778 0.60386 0.0
H4015 H 0.67259 0.99491 0.65519 0.0
H4016 H 0.65954 0.96954 0.64077 0.0
H4017 H 0.6919 0.95731 0.61724 0.0
H4018 H 0.65462 0.89139 0.56688 0.0
H4019 H 0.66402 0.91805 0.57711 0.0
C4020 C 0.00182 0.69194 0.68155 0.0
C4021 C 0.99805 0.70051 0.69197 0.0
C4022 C 0.01597 0.69885 0.67527 0.0
C4023 C 0.05474 0.73396 0.67912 0.0
H4024 H 0.05472 0.72178 0.63571 0.0
C4025 C 0.10264 0.76919 0.63859 0.0
C4026 C 0.10712 0.76077 0.62877 0.0
C4027 C 0.09045 0.76146 0.64787 0.0
C4028 C 0.05495 0.72516 0.6479 0.0
H4029 H 0.00621 0.72295 0.70427 0.0
H4030 H 0.03079 0.73531 0.6928 0.0
H4031 H 0.03121 0.70928 0.64876 0.0
H4032 H 0.10269 0.73777 0.62121 0.0
H4033 H 0.08117 0.72419 0.63732 0.0
H4034 H 0.07848 0.75037 0.67784 0.0
C4035 C 0.02297 0.72311 0.68976 0.0
C4036 C 0.04147 0.71796 0.65544 0.0
C4037 C 0.00885 0.71608 0.69628 0.0
C4038 C 0.09949 0.74451 0.62874 0.0
C4039 C 0.08715 0.73677 0.63786 0.0
C4040 C 0.06821 0.74132 0.67148 0.0
C4041 C 0.02663 0.71462 0.67899 0.0
C4042 C 0.04116 0.72223 0.67116 0.0
C4043 C 0.08239 0.74517 0.64734 0.0
C4044 C 0.06841 0.73697 0.65579 0.0
H4045 H 0.99379 0.67984 0.6782 0.0
H4046 H 0.0185 0.6918 0.66739 0.0
H4047 H 0.05502 0.73741 0.69128 0.0
H4048 H 0.10843 0.78175 0.63889 0.0
H4049 H 0.08695 0.76821 0.655 0.0
C4050 C 0.97684 0.65135 0.73293 0.0
C4051 C 0.96156 0.64359 0.72673 0.0
C4052 C 0.98353 0.64299 0.73883 0.0
C4053 C 0.97908 0.60374 0.73687 0.0
H4054 H 0.00207 0.61663 0.77722 0.0
C4055 C 0.98798 0.56194 0.77435 0.0
C4056 C 0.00191 0.5674 0.78321 0.0
C4057 C 0.98513 0.57205 0.76587 0.0
C4058 C 0.99593 0.61303 0.7658 0.0
H4059 H 0.94135 0.62091 0.72198 0.0
H4060 H 0.95296 0.60646 0.73236 0.0
H4061 H 0.99312 0.63304 0.76562 0.0
H4062 H 0.02395 0.58763 0.78981 0.0
H4063 H 0.01898 0.60537 0.77483 0.0
H4064 H 0.98157 0.58357 0.73719 0.0
C4065 C 0.95983 0.61898 0.73247 0.0
C4066 C 0.99079 0.62241 0.75918 0.0
C4067 C 0.95314 0.62731 0.72665 0.0
C4068 C 0.01314 0.5831 0.78301 0.0
C4069 C 0.01025 0.59326 0.77456 0.0
C4070 C 0.98423 0.59438 0.74347 0.0
C4071 C 0.9751 0.62671 0.73856 0.0
C4072 C 0.98199 0.61767 0.74482 0.0
C4073 C 0.99613 0.58787 0.76607 0.0
C4074 C 0.9924 0.59874 0.75818 0.0
H4075 H 0.98369 0.66388 0.73315 0.0
H4076 H 0.99535 0.64924 0.7434 0.0
H4077 H 0.9726 0.59995 0.72563 0.0
H4078 H 0.97918 0.54986 0.77419 0.0
H4079 H 0.97407 0.56756 0.75959 0.0
C4080 C 0.36014 0.35621 0.73278 0.0
C4081 C 0.36338 0.3444 0.73626 0.0
C4082 C 0.36772 0.37058 0.74142 0.0
C4083 C 0.40277 0.39427 0.76799 0.0
H4084 H 0.38531 0.42103 0.77376 0.0
C4085 C 0.43332 0.45093 0.80686 0.0
C4086 C 0.43693 0.46421 0.79869 0.0
C4087 C 0.42259 0.43618 0.80035 0.0
C4088 C 0.39026 0.41362 0.77222 0.0
H4089 H 0.37625 0.33784 0.75202 0.0
H4090 H 0.38875 0.3624 0.76768 0.0
H4091 H 0.3697 0.39505 0.76073 0.0
H4092 H 0.43131 0.47232 0.77759 0.0
H4093 H 0.41214 0.44649 0.76652 0.0
H4094 H 0.42316 0.41271 0.77986 0.0
C4095 C 0.38099 0.36103 0.75784 0.0
C4096 C 0.38139 0.39878 0.76467 0.0
C4097 C 0.37372 0.34687 0.74897 0.0
C4098 C 0.42876 0.46241 0.7843 0.0
C4099 C 0.41781 0.44763 0.77791 0.0
C4100 C 0.41146 0.4089 0.7758 0.0
C4101 C 0.37846 0.37327 0.75393 0.0
C4102 C 0.38756 0.38892 0.76239 0.0
C4103 C 0.415 0.43439 0.78569 0.0
C4104 C 0.40533 0.41871 0.77791 0.0
H4105 H 0.35225 0.35459 0.72296 0.0
H4106 H 0.36555 0.3797 0.7379 0.0
H4107 H 0.40816 0.38732 0.7661 0.0
H4108 H 0.43907 0.45188 0.81814 0.0
H4109 H 0.42047 0.42611 0.80662 0.0
C4110 C 0.66465 0.02743 0.70605 0.0
C4111 C 0.66581 0.03215 0.69071 0.0
C4112 C 0.65194 0.02443 0.7141 0.0
C4113 C 0.61187 0.01251 0.71044 0.0
H4114 H 0.62004 0.03417 0.75128 0.0
C4115 C 0.56343 0.0055 0.74902 0.0
C4116 C 0.56623 0.00598 0.76525 0.0
C4117 C 0.57511 0.00888 0.73909 0.0
C4118 C 0.61751 0.02782 0.74002 0.0
H4119 H 0.65432 0.03698 0.67163 0.0
H4120 H 0.63171 0.03128 0.68573 0.0
H4121 H 0.64106 0.03944 0.73529 0.0
H4122 H 0.58317 0.00972 0.78381 0.0
H4123 H 0.60334 0.01502 0.7666 0.0
H4124 H 0.58837 0.00038 0.71538 0.0
C4125 C 0.64083 0.0301 0.69146 0.0
C4126 C 0.62957 0.03096 0.73081 0.0
C4127 C 0.65374 0.03339 0.68344 0.0
C4128 C 0.58078 0.0095 0.77135 0.0
C4129 C 0.59236 0.01265 0.76145 0.0
C4130 C 0.59976 0.00916 0.71977 0.0
C4131 C 0.63996 0.02584 0.70696 0.0
C4132 C 0.6269 0.02323 0.71602 0.0
C4133 C 0.58979 0.01262 0.74519 0.0
C4134 C 0.60245 0.01662 0.7348 0.0
H4135 H 0.67374 0.02637 0.71202 0.0
H4136 H 0.65149 0.02103 0.72599 0.0
H4137 H 0.60954 0.00634 0.69909 0.0
H4138 H 0.55231 0.00292 0.74404 0.0
H4139 H 0.5727 0.0089 0.72669 0.0
loop_
_geom_bond_atom_site_label_1
_geom_bond_atom_site_label_2
_geom_bond_distance
_geom_bond_site_symmetry_2
_ccdc_geom_bond_type
Mn0 O5 2.095 1_655 S
Mn0 O15 2.162 . S
Mn0 O16 2.297 . S
Mn0 O24 2.385 . S
Mn0 O25 2.209 1_655 S
Mn0 O26 2.094 . S
Mn1 O6 2.121 . S
Mn1 N8 2.257 . S
Mn1 N17 2.282 . S
Mn1 O25 2.215 . S
Mn1 O27 2.117 . S
C2 O24 1.242 1_455 S
C2 O25 1.303 . S
C3 O15 1.281 . S
C3 O16 1.236 . S
C4 O26 1.240 1_455 S
C4 O27 1.264 . S
O5 Mn0 2.095 1_455 S
O5 C14 1.250 . S
O6 Mn1 2.121 . S
O6 C14 1.258 . S
C7 N8 1.326 . S
C7 C11 1.460 . S
C7 H13 0.929 . S
N8 Mn1 2.257 . S
N8 C7 1.326 . S
N8 C12 1.362 . S
C9 C10 1.258 . S
C9 C12 1.431 1_556 S
C9 C29 1.449 . S
C10 C9 1.258 . S
C10 C11 1.477 1_556 S
C10 H30 0.931 . S
C11 C7 1.460 . S
C11 C10 1.477 1_554 S
C11 H31 0.930 1_554 S
C12 N8 1.362 . S
C12 C9 1.431 1_554 S
C12 C22 1.476 . S
H13 C7 0.929 . S
C14 O5 1.250 . S
C14 O6 1.258 . S
O15 Mn0 2.162 . S
O15 C3 1.281 . S
O16 Mn0 2.297 . S
O16 C3 1.236 . S
N17 Mn1 2.282 . S
N17 C18 1.328 . S
N17 C22 1.318 . S
C18 N17 1.328 . S
C18 C19 1.457 . S
C18 H23 0.929 . S
C19 C18 1.457 . S
C19 C20 1.291 . S
C19 H32 0.931 . S
C20 C19 1.291 . S
C20 C21 1.373 . S
C20 H33 0.929 . S
C21 C20 1.373 . S
C21 C22 1.396 . S
C21 C28 1.403 1_554 S
C22 C12 1.476 . S
C22 N17 1.318 . S
C22 C21 1.396 . S
H23 C18 0.929 . S
O24 Mn0 2.385 . S
O24 C2 1.242 1_655 S
O25 Mn0 2.209 1_455 S
O25 Mn1 2.215 . S
O25 C2 1.303 . S
O26 Mn0 2.094 . S
O26 C4 1.240 1_655 S
O27 Mn1 2.117 . S
O27 C4 1.264 . S
C28 C21 1.403 1_556 S
C28 C29 1.399 . S
C28 H34 0.929 . S
C29 C9 1.449 . S
C29 C28 1.399 . S
C29 H35 0.930 . S
H30 C10 0.931 . S
H31 C11 0.930 1_556 S
H32 C19 0.931 . S
H33 C20 0.929 . S
H34 C28 0.929 . S
H35 C29 0.930 . S
Mn36 O41 2.095 . S
Mn36 O51 2.162 . S
Mn36 O52 2.297 . S
Mn36 O60 2.385 . S
Mn36 O61 2.209 . S
Mn36 O62 2.094 . S
Mn37 O42 2.121 . S
Mn37 N44 2.257 . S
Mn37 N53 2.282 . S
Mn37 O61 2.215 . S
Mn37 O63 2.117 . S
C38 O60 1.234 . S
C38 O61 1.283 . S
C39 O51 1.281 . S
C39 O52 1.236 . S
C40 O62 1.240 . S
C40 O63 1.264 . S
O41 Mn36 2.095 . S
O41 C50 1.250 . S
O42 Mn37 2.121 . S
O42 C50 1.258 . S
C43 N44 1.326 . S
C43 C47 1.460 . S
C43 H49 0.929 . S
N44 Mn37 2.257 . S
N44 C43 1.326 . S
N44 C48 1.362 . S
C45 C46 1.258 . S
C45 C48 1.431 . S
C45 C65 1.449 . S
C46 C45 1.258 . S
C46 C47 1.477 . S
C46 H66 0.931 . S
C47 C43 1.460 . S
C47 C46 1.477 . S
C47 H67 0.930 . S
C48 N44 1.362 . S
C48 C45 1.431 . S
C48 C58 1.476 . S
H49 C43 0.929 . S
C50 O41 1.250 . S
C50 O42 1.258 . S
O51 Mn36 2.162 . S
O51 C39 1.281 . S
O52 Mn36 2.297 . S
O52 C39 1.236 . S
N53 Mn37 2.282 . S
N53 C54 1.328 . S
N53 C58 1.318 . S
C54 N53 1.328 . S
C54 C55 1.457 . S
C54 H59 0.929 . S
C55 C54 1.457 . S
C55 C56 1.291 . S
C55 H68 0.931 . S
C56 C55 1.291 . S
C56 C57 1.373 . S
C56 H69 0.929 . S
C57 C56 1.373 . S
C57 C58 1.396 . S
C57 C64 1.403 . S
C58 C48 1.476 . S
C58 N53 1.318 . S
C58 C57 1.396 . S
H59 C54 0.929 . S
O60 Mn36 2.385 . S
O60 C38 1.234 . S
O61 Mn36 2.209 . S
O61 Mn37 2.215 . S
O61 C38 1.283 . S
O62 Mn36 2.094 . S
O62 C40 1.240 . S
O63 Mn37 2.117 . S
O63 C40 1.264 . S
C64 C57 1.403 . S
C64 C65 1.399 . S
C64 H70 0.929 . S
C65 C45 1.449 . S
C65 C64 1.399 . S
C65 H71 0.930 . S
H66 C46 0.931 . S
H67 C47 0.930 . S
H68 C55 0.931 . S
H69 C56 0.929 . S
H70 C64 0.929 . S
H71 C65 0.930 . S
Mn72 O77 2.095 1_565 S
Mn72 O87 2.162 . S
Mn72 O88 2.297 . S
Mn72 O96 2.385 . S
Mn72 O97 2.209 1_565 S
Mn72 O98 2.094 . S
Mn73 O78 2.121 . S
Mn73 N80 2.257 . S
Mn73 N89 2.282 . S
Mn73 O97 2.215 . S
Mn73 O99 2.117 . S
C74 O96 1.234 1_545 S
C74 O97 1.283 . S
C75 O87 1.281 . S
C75 O88 1.236 . S
C76 O98 1.240 1_556 S
C76 O99 1.264 1_566 S
O77 Mn72 2.095 1_545 S
O77 C86 1.250 . S
O78 Mn73 2.121 . S
O78 C86 1.258 . S
C79 N80 1.326 . S
C79 C83 1.460 . S
C79 H85 0.929 . S
N80 Mn73 2.257 . S
N80 C79 1.326 . S
N80 C84 1.362 . S
C81 C82 1.258 . S
C81 C84 1.431 . S
C81 C101 1.449 . S
C82 C81 1.258 . S
C82 C83 1.477 . S
C82 H102 0.931 . S
C83 C79 1.460 . S
C83 C82 1.477 . S
C83 H103 0.930 . S
C84 N80 1.362 . S
C84 C81 1.431 . S
C84 C94 1.476 . S
H85 C79 0.929 . S
C86 O77 1.250 . S
C86 O78 1.258 . S
O87 Mn72 2.162 . S
O87 C75 1.281 . S
O88 Mn72 2.297 . S
O88 C75 1.236 . S
N89 Mn73 2.282 . S
N89 C90 1.328 . S
N89 C94 1.318 . S
C90 N89 1.328 . S
C90 C91 1.457 . S
C90 H95 0.929 . S
C91 C90 1.457 . S
C91 C92 1.291 . S
C91 H104 0.931 . S
C92 C91 1.291 . S
C92 C93 1.373 . S
C92 H105 0.929 . S
C93 C92 1.373 . S
C93 C94 1.396 . S
C93 C100 1.403 . S
C94 C84 1.476 . S
C94 N89 1.318 . S
C94 C93 1.396 . S
H95 C90 0.929 . S
O96 Mn72 2.385 . S
O96 C74 1.234 1_565 S
O97 Mn72 2.209 1_545 S
O97 Mn73 2.215 . S
O97 C74 1.283 . S
O98 Mn72 2.094 . S
O98 C76 1.240 1_554 S
O99 Mn73 2.117 . S
O99 C76 1.264 1_544 S
C100 C93 1.403 . S
C100 C101 1.399 . S
C100 H106 0.929 . S
C101 C81 1.449 . S
C101 C100 1.399 . S
C101 H107 0.930 . S
H102 C82 0.931 . S
H103 C83 0.930 . S
H104 C91 0.931 . S
H105 C92 0.929 . S
H106 C100 0.929 . S
H107 C101 0.930 . S
Mn108 O113 2.095 1_655 S
Mn108 O123 2.162 . S
Mn108 O124 2.297 . S
Mn108 O132 2.385 . S
Mn108 O133 2.209 1_655 S
Mn108 O134 2.094 . S
Mn109 O114 2.121 . S
Mn109 N116 2.257 . S
Mn109 N125 2.282 . S
Mn109 O133 2.215 . S
Mn109 O135 2.117 . S
C110 O132 1.234 1_455 S
C110 O133 1.283 . S
C111 O123 1.281 . S
C111 O124 1.236 . S
C112 O134 1.240 . S
C112 O135 1.264 1_655 S
O113 Mn108 2.095 1_455 S
O113 C122 1.250 . S
O114 Mn109 2.121 . S
O114 C122 1.258 . S
C115 N116 1.326 . S
C115 C119 1.460 . S
C115 H121 0.929 . S
N116 Mn109 2.257 . S
N116 C115 1.326 . S
N116 C120 1.362 . S
C117 C118 1.258 . S
C117 C120 1.431 . S
C117 C137 1.449 . S
C118 C117 1.258 . S
C118 C119 1.477 . S
C118 H138 0.931 . S
C119 C115 1.460 . S
C119 C118 1.477 . S
C119 H139 0.930 . S
C120 N116 1.362 . S
C120 C117 1.431 . S
C120 C130 1.476 . S
H121 C115 0.929 . S
C122 O113 1.250 . S
C122 O114 1.258 . S
O123 Mn108 2.162 . S
O123 C111 1.281 . S
O124 Mn108 2.297 . S
O124 C111 1.236 . S
N125 Mn109 2.282 . S
N125 C126 1.328 . S
N125 C130 1.318 . S
C126 N125 1.328 . S
C126 C127 1.457 . S
C126 H131 0.929 . S
C127 C126 1.457 . S
C127 C128 1.291 . S
C127 H140 0.931 . S
C128 C127 1.291 . S
C128 C129 1.373 . S
C128 H141 0.929 . S
C129 C128 1.373 . S
C129 C130 1.396 . S
C129 C136 1.403 . S
C130 C120 1.476 . S
C130 N125 1.318 . S
C130 C129 1.396 . S
H131 C126 0.929 . S
O132 Mn108 2.385 . S
O132 C110 1.234 1_655 S
O133 Mn108 2.209 1_455 S
O133 Mn109 2.215 . S
O133 C110 1.283 . S
O134 Mn108 2.094 . S
O134 C112 1.240 . S
O135 Mn109 2.117 . S
O135 C112 1.264 1_455 S
C136 C129 1.403 . S
C136 C137 1.399 . S
C136 H142 0.929 . S
C137 C117 1.449 . S
C137 C136 1.399 . S
C137 H143 0.930 . S
H138 C118 0.931 . S
H139 C119 0.930 . S
H140 C127 0.931 . S
H141 C128 0.929 . S
H142 C136 0.929 . S
H143 C137 0.930 . S
Mn144 O149 2.095 1_554 S
Mn144 O159 2.162 . S
Mn144 O160 2.297 . S
Mn144 O168 2.385 . S
Mn144 O169 2.209 . S
Mn144 O170 2.094 1_554 S
Mn145 O150 2.121 . S
Mn145 N152 2.257 1_556 S
Mn145 N161 2.282 1_556 S
Mn145 O169 2.215 1_556 S
Mn145 O171 2.117 . S
C146 O168 1.234 . S
C146 O169 1.283 . S
C147 O159 1.281 . S
C147 O160 1.236 . S
C148 O170 1.240 . S
C148 O171 1.264 . S
O149 Mn144 2.095 1_556 S
O149 C158 1.250 . S
O150 Mn145 2.121 . S
O150 C158 1.258 . S
C151 N152 1.326 . S
C151 C155 1.460 . S
C151 H157 0.929 . S
N152 Mn145 2.257 1_554 S
N152 C151 1.326 . S
N152 C156 1.362 . S
C153 C154 1.258 . S
C153 C156 1.431 . S
C153 C173 1.449 . S
C154 C153 1.258 . S
C154 C155 1.477 . S
C154 H174 0.931 . S
C155 C151 1.460 . S
C155 C154 1.477 . S
C155 H175 0.930 . S
C156 N152 1.362 . S
C156 C153 1.431 . S
C156 C166 1.476 . S
H157 C151 0.929 . S
C158 O149 1.250 . S
C158 O150 1.258 . S
O159 Mn144 2.162 . S
O159 C147 1.281 . S
O160 Mn144 2.297 . S
O160 C147 1.236 . S
N161 Mn145 2.282 1_554 S
N161 C162 1.328 . S
N161 C166 1.318 . S
C162 N161 1.328 . S
C162 C163 1.457 . S
C162 H167 0.929 . S
C163 C162 1.457 . S
C163 C164 1.291 . S
C163 H176 0.931 . S
C164 C163 1.291 . S
C164 C165 1.373 . S
C164 H177 0.929 . S
C165 C164 1.373 . S
C165 C166 1.396 . S
C165 C172 1.403 . S
C166 C156 1.476 . S
C166 N161 1.318 . S
C166 C165 1.396 . S
H167 C162 0.929 . S
O168 Mn144 2.385 . S
O168 C146 1.234 . S
O169 Mn144 2.209 . S
O169 Mn145 2.215 1_554 S
O169 C146 1.283 . S
O170 Mn144 2.094 1_556 S
O170 C148 1.240 . S
O171 Mn145 2.117 . S
O171 C148 1.264 . S
C172 C165 1.403 . S
C172 C173 1.399 . S
C172 H178 0.929 . S
C173 C153 1.449 . S
C173 C172 1.399 . S
C173 H179 0.930 . S
H174 C154 0.931 . S
H175 C155 0.930 . S
H176 C163 0.931 . S
H177 C164 0.929 . S
H178 C172 0.929 . S
H179 C173 0.930 . S
Mn180 O185 2.087 . S
Mn180 O195 2.162 . S
Mn180 O196 2.297 . S
Mn180 O204 2.385 . S
Mn180 O205 2.209 1_545 S
Mn180 O206 2.094 . S
Mn181 O186 2.121 . S
Mn181 N188 2.257 . S
Mn181 N197 2.282 . S
Mn181 O205 2.215 . S
Mn181 O207 2.159 . S
C182 O204 1.234 . S
C182 O205 1.283 1_545 S
C183 O195 1.281 . S
C183 O196 1.236 . S
C184 O206 1.240 . S
C184 O207 1.225 1_545 S
O185 Mn180 2.087 . S
O185 C194 1.259 1_545 S
O186 Mn181 2.121 . S
O186 C194 1.258 . S
C187 N188 1.326 . S
C187 C191 1.460 . S
C187 H193 0.929 . S
N188 Mn181 2.257 . S
N188 C187 1.326 . S
N188 C192 1.362 . S
C189 C190 1.258 . S
C189 C192 1.431 . S
C189 C209 1.449 . S
C190 C189 1.258 . S
C190 C191 1.477 . S
C190 H210 0.931 . S
C191 C187 1.460 . S
C191 C190 1.477 . S
C191 H211 0.930 . S
C192 N188 1.362 . S
C192 C189 1.431 . S
C192 C202 1.476 . S
H193 C187 0.929 . S
C194 O185 1.259 1_565 S
C194 O186 1.258 . S
O195 Mn180 2.162 . S
O195 C183 1.281 . S
O196 Mn180 2.297 . S
O196 C183 1.236 . S
N197 Mn181 2.282 . S
N197 C198 1.328 . S
N197 C202 1.318 . S
C198 N197 1.328 . S
C198 C199 1.457 . S
C198 H203 0.931 . S
C199 C198 1.457 . S
C199 C200 1.291 . S
C199 H212 0.931 . S
C200 C199 1.291 . S
C200 C201 1.373 . S
C200 H213 0.929 . S
C201 C200 1.373 . S
C201 C202 1.396 . S
C201 C208 1.403 . S
C202 C192 1.476 . S
C202 N197 1.318 . S
C202 C201 1.396 . S
H203 C198 0.931 . S
O204 Mn180 2.385 . S
O204 C182 1.234 . S
O205 Mn180 2.209 1_565 S
O205 Mn181 2.215 . S
O205 C182 1.283 1_565 S
O206 Mn180 2.094 . S
O206 C184 1.240 . S
O207 Mn181 2.159 . S
O207 C184 1.225 1_565 S
C208 C201 1.403 . S
C208 C209 1.399 . S
C208 H214 0.929 . S
C209 C189 1.449 . S
C209 C208 1.399 . S
C209 H215 0.930 1_554 S
H210 C190 0.931 . S
H211 C191 0.930 . S
H212 C199 0.931 . S
H213 C200 0.929 . S
H214 C208 0.929 . S
H215 C209 0.930 1_556 S
Mn216 O221 2.095 . S
Mn216 O231 2.162 . S
Mn216 O232 2.297 . S
Mn216 O240 2.385 . S
Mn216 O241 2.209 . S
Mn216 O242 2.094 . S
Mn217 O222 2.121 . S
Mn217 N224 2.257 . S
Mn217 N233 2.282 . S
Mn217 O241 2.215 . S
Mn217 O243 2.117 . S
C218 O240 1.234 . S
C218 O241 1.283 . S
C219 O231 1.281 . S
C219 O232 1.236 . S
C220 O242 1.240 . S
C220 O243 1.264 . S
O221 Mn216 2.095 . S
O221 C230 1.250 . S
O222 Mn217 2.121 . S
O222 C230 1.258 . S
C223 N224 1.326 . S
C223 C227 1.460 . S
C223 H229 0.929 . S
N224 Mn217 2.257 . S
N224 C223 1.326 . S
N224 C228 1.362 . S
C225 C226 1.258 . S
C225 C228 1.431 . S
C225 C245 1.449 . S
C226 C225 1.258 . S
C226 C227 1.477 . S
C226 H246 0.931 . S
C227 C223 1.460 . S
C227 C226 1.477 . S
C227 H247 0.930 . S
C228 N224 1.362 . S
C228 C225 1.431 . S
C228 C238 1.476 . S
H229 C223 0.929 . S
C230 O221 1.250 . S
C230 O222 1.258 . S
O231 Mn216 2.162 . S
O231 C219 1.281 . S
O232 Mn216 2.297 . S
O232 C219 1.236 . S
N233 Mn217 2.282 . S
N233 C234 1.328 . S
N233 C238 1.318 . S
C234 N233 1.328 . S
C234 C235 1.457 . S
C234 H239 0.929 . S
C235 C234 1.457 . S
C235 C236 1.291 . S
C235 H248 0.931 . S
C236 C235 1.291 . S
C236 C237 1.373 . S
C236 H249 0.929 . S
C237 C236 1.373 . S
C237 C238 1.396 . S
C237 C244 1.403 . S
C238 C228 1.476 . S
C238 N233 1.318 . S
C238 C237 1.396 . S
H239 C234 0.929 . S
O240 Mn216 2.385 . S
O240 C218 1.234 . S
O241 Mn216 2.209 . S
O241 Mn217 2.215 . S
O241 C218 1.283 . S
O242 Mn216 2.094 . S
O242 C220 1.240 . S
O243 Mn217 2.117 . S
O243 C220 1.264 . S
C244 C237 1.403 . S
C244 C245 1.399 . S
C244 H250 0.929 . S
C245 C225 1.449 . S
C245 C244 1.399 . S
C245 H251 0.930 . S
H246 C226 0.931 . S
H247 C227 0.930 . S
H248 C235 0.931 . S
H249 C236 0.929 . S
H250 C244 0.929 . S
H251 C245 0.930 . S
Mn252 O257 2.095 . S
Mn252 O267 2.162 . S
Mn252 O268 2.297 . S
Mn252 O276 2.385 . S
Mn252 O277 2.209 . S
Mn252 O278 2.094 . S
Mn253 O258 2.121 . S
Mn253 N260 2.257 . S
Mn253 N269 2.282 . S
Mn253 O277 2.215 . S
Mn253 O279 2.117 . S
C254 O276 1.234 . S
C254 O277 1.283 . S
C255 O267 1.281 . S
C255 O268 1.236 . S
C256 O278 1.240 . S
C256 O279 1.264 . S
O257 Mn252 2.095 . S
O257 C266 1.250 . S
O258 Mn253 2.121 . S
O258 C266 1.258 . S
C259 N260 1.326 . S
C259 C263 1.460 . S
C259 H265 0.929 . S
N260 Mn253 2.257 . S
N260 C259 1.326 . S
N260 C264 1.362 . S
C261 C262 1.258 . S
C261 C264 1.431 . S
C261 C281 1.449 . S
C262 C261 1.258 . S
C262 C263 1.477 . S
C262 H282 0.931 . S
C263 C259 1.460 . S
C263 C262 1.477 . S
C263 H283 0.930 . S
C264 N260 1.362 . S
C264 C261 1.431 . S
C264 C274 1.476 . S
H265 C259 0.929 . S
C266 O257 1.250 . S
C266 O258 1.258 . S
O267 Mn252 2.162 . S
O267 C255 1.281 . S
O268 Mn252 2.297 . S
O268 C255 1.236 . S
N269 Mn253 2.282 . S
N269 C270 1.328 . S
N269 C274 1.318 . S
C270 N269 1.328 . S
C270 C271 1.457 . S
C270 H275 0.929 . S
C271 C270 1.457 . S
C271 C272 1.291 . S
C271 H284 0.931 . S
C272 C271 1.291 . S
C272 C273 1.373 . S
C272 H285 0.929 . S
C273 C272 1.373 . S
C273 C274 1.396 . S
C273 C280 1.403 . S
C274 C264 1.476 . S
C274 N269 1.318 . S
C274 C273 1.396 . S
H275 C270 0.929 . S
O276 Mn252 2.385 . S
O276 C254 1.234 . S
O277 Mn252 2.209 . S
O277 Mn253 2.215 . S
O277 C254 1.283 . S
O278 Mn252 2.094 . S
O278 C256 1.240 . S
O279 Mn253 2.117 . S
O279 C256 1.264 . S
C280 C273 1.403 . S
C280 C281 1.399 . S
C280 H286 0.929 . S
C281 C261 1.449 . S
C281 C280 1.399 . S
C281 H287 0.930 . S
H282 C262 0.931 . S
H283 C263 0.930 . S
H284 C271 0.931 . S
H285 C272 0.929 . S
H286 C280 0.929 . S
H287 C281 0.930 . S
Mn288 O293 2.095 . S
Mn288 O303 2.162 . S
Mn288 O304 2.297 . S
Mn288 O312 2.385 . S
Mn288 O313 2.209 . S
Mn288 O314 2.094 . S
Mn289 O294 2.121 . S
Mn289 N296 2.257 . S
Mn289 N305 2.282 . S
Mn289 O313 2.215 . S
Mn289 O315 2.117 . S
C290 O312 1.234 . S
C290 O313 1.283 . S
C291 O303 1.281 . S
C291 O304 1.236 . S
C292 O314 1.240 . S
C292 O315 1.264 . S
O293 Mn288 2.095 . S
O293 C302 1.250 . S
O294 Mn289 2.121 . S
O294 C302 1.258 . S
C295 N296 1.326 . S
C295 C299 1.460 . S
C295 H301 0.929 . S
N296 Mn289 2.257 . S
N296 C295 1.326 . S
N296 C300 1.362 . S
C297 C298 1.258 . S
C297 C300 1.431 . S
C297 C317 1.449 . S
C298 C297 1.258 . S
C298 C299 1.477 . S
C298 H318 0.931 . S
C299 C295 1.460 . S
C299 C298 1.477 . S
C299 H319 0.930 . S
C300 N296 1.362 . S
C300 C297 1.431 . S
C300 C310 1.476 . S
H301 C295 0.929 . S
C302 O293 1.250 . S
C302 O294 1.258 . S
O303 Mn288 2.162 . S
O303 C291 1.281 . S
O304 Mn288 2.297 . S
O304 C291 1.236 . S
N305 Mn289 2.282 . S
N305 C306 1.328 . S
N305 C310 1.318 . S
C306 N305 1.328 . S
C306 C307 1.457 . S
C306 H311 0.929 . S
C307 C306 1.457 . S
C307 C308 1.291 . S
C307 H320 0.931 . S
C308 C307 1.291 . S
C308 C309 1.373 . S
C308 H321 0.929 . S
C309 C308 1.373 . S
C309 C310 1.396 . S
C309 C316 1.403 . S
C310 C300 1.476 . S
C310 N305 1.318 . S
C310 C309 1.396 . S
H311 C306 0.929 . S
O312 Mn288 2.385 . S
O312 C290 1.234 . S
O313 Mn288 2.209 . S
O313 Mn289 2.215 . S
O313 C290 1.283 . S
O314 Mn288 2.094 . S
O314 C292 1.240 . S
O315 Mn289 2.117 . S
O315 C292 1.264 . S
C316 C309 1.403 . S
C316 C317 1.399 . S
C316 H322 0.929 . S
C317 C297 1.449 . S
C317 C316 1.399 . S
C317 H323 0.930 . S
H318 C298 0.931 . S
H319 C299 0.930 . S
H320 C307 0.931 . S
H321 C308 0.929 . S
H322 C316 0.929 . S
H323 C317 0.930 . S
Mn324 O329 2.095 . S
Mn324 O339 2.162 . S
Mn324 O340 2.297 . S
Mn324 O348 2.385 . S
Mn324 O349 2.209 . S
Mn324 O350 2.094 . S
Mn325 O330 2.121 . S
Mn325 N332 2.257 . S
Mn325 N341 2.282 . S
Mn325 O349 2.215 . S
Mn325 O351 2.117 . S
C326 O348 1.234 . S
C326 O349 1.283 . S
C327 O339 1.281 . S
C327 O340 1.236 . S
C328 O350 1.240 . S
C328 O351 1.264 . S
O329 Mn324 2.095 . S
O329 C338 1.250 . S
O330 Mn325 2.121 . S
O330 C338 1.258 . S
C331 N332 1.326 . S
C331 C335 1.460 . S
C331 H337 0.929 . S
N332 Mn325 2.257 . S
N332 C331 1.326 . S
N332 C336 1.362 . S
C333 C334 1.258 . S
C333 C336 1.431 . S
C333 C353 1.449 . S
C334 C333 1.258 . S
C334 C335 1.477 . S
C334 H354 0.931 . S
C335 C331 1.460 . S
C335 C334 1.477 . S
C335 H355 0.930 1_565 S
C336 N332 1.362 . S
C336 C333 1.431 . S
C336 C346 1.476 . S
H337 C331 0.929 . S
C338 O329 1.250 . S
C338 O330 1.258 . S
O339 Mn324 2.162 . S
O339 C327 1.281 . S
O340 Mn324 2.297 . S
O340 C327 1.236 . S
N341 Mn325 2.282 . S
N341 C342 1.328 . S
N341 C346 1.318 . S
C342 N341 1.328 . S
C342 C343 1.457 . S
C342 H347 0.929 . S
C343 C342 1.457 . S
C343 C344 1.291 . S
C343 H356 0.931 . S
C344 C343 1.291 . S
C344 C345 1.373 . S
C344 H357 0.929 . S
C345 C344 1.373 . S
C345 C346 1.396 . S
C345 C352 1.403 . S
C346 C336 1.476 . S
C346 N341 1.318 . S
C346 C345 1.396 . S
H347 C342 0.929 . S
O348 Mn324 2.385 . S
O348 C326 1.234 . S
O349 Mn324 2.209 . S
O349 Mn325 2.215 . S
O349 C326 1.283 . S
O350 Mn324 2.094 . S
O350 C328 1.240 . S
O351 Mn325 2.117 . S
O351 C328 1.264 . S
C352 C345 1.403 . S
C352 C353 1.399 . S
C352 H358 0.929 . S
C353 C333 1.449 . S
C353 C352 1.399 . S
C353 H359 0.930 . S
H354 C334 0.931 . S
H355 C335 0.930 1_545 S
H356 C343 0.931 . S
H357 C344 0.929 . S
H358 C352 0.929 . S
H359 C353 0.930 . S
Mn360 O365 2.095 . S
Mn360 O375 2.162 . S
Mn360 O376 2.297 . S
Mn360 O384 2.385 . S
Mn360 O385 2.209 . S
Mn360 O386 2.094 . S
Mn361 O366 2.121 . S
Mn361 N368 2.257 . S
Mn361 N377 2.282 . S
Mn361 O385 2.215 . S
Mn361 O387 2.117 . S
C362 O384 1.234 . S
C362 O385 1.283 . S
C363 O375 1.281 . S
C363 O376 1.236 . S
C364 O386 1.240 . S
C364 O387 1.264 . S
O365 Mn360 2.095 . S
O365 C374 1.250 . S
O366 Mn361 2.121 . S
O366 C374 1.258 . S
C367 N368 1.326 . S
C367 C371 1.460 . S
C367 H373 0.929 . S
N368 Mn361 2.257 . S
N368 C367 1.326 . S
N368 C372 1.362 . S
C369 C370 1.258 . S
C369 C372 1.431 . S
C369 C389 1.449 . S
C370 C369 1.258 . S
C370 C371 1.477 . S
C370 H390 0.931 . S
C371 C367 1.460 . S
C371 C370 1.477 . S
C371 H391 0.930 . S
C372 N368 1.362 . S
C372 C369 1.431 . S
C372 C382 1.476 . S
H373 C367 0.929 . S
C374 O365 1.250 . S
C374 O366 1.258 . S
O375 Mn360 2.162 . S
O375 C363 1.281 . S
O376 Mn360 2.297 . S
O376 C363 1.236 . S
N377 Mn361 2.282 . S
N377 C378 1.328 . S
N377 C382 1.318 . S
C378 N377 1.328 . S
C378 C379 1.457 . S
C378 H383 0.929 . S
C379 C378 1.457 . S
C379 C380 1.291 . S
C379 H392 0.931 . S
C380 C379 1.291 . S
C380 C381 1.373 . S
C380 H393 0.929 . S
C381 C380 1.373 . S
C381 C382 1.396 . S
C381 C388 1.403 . S
C382 C372 1.476 . S
C382 N377 1.318 . S
C382 C381 1.396 . S
H383 C378 0.929 . S
O384 Mn360 2.385 . S
O384 C362 1.234 . S
O385 Mn360 2.209 . S
O385 Mn361 2.215 . S
O385 C362 1.283 . S
O386 Mn360 2.094 . S
O386 C364 1.240 . S
O387 Mn361 2.117 . S
O387 C364 1.264 . S
C388 C381 1.403 . S
C388 C389 1.399 . S
C388 H394 0.929 . S
C389 C369 1.449 . S
C389 C388 1.399 . S
C389 H395 0.930 . S
H390 C370 0.931 . S
H391 C371 0.930 . S
H392 C379 0.931 . S
H393 C380 0.929 . S
H394 C388 0.929 . S
H395 C389 0.930 . S
Mn396 O401 2.095 . S
Mn396 O411 2.162 . S
Mn396 O412 2.297 . S
Mn396 O420 2.385 . S
Mn396 O421 2.209 . S
Mn396 O422 2.094 . S
Mn397 O402 2.121 . S
Mn397 N404 2.257 . S
Mn397 N413 2.282 . S
Mn397 O421 2.215 . S
Mn397 O423 2.117 . S
C398 O420 1.234 . S
C398 O421 1.283 . S
C399 O411 1.281 . S
C399 O412 1.236 . S
C400 O422 1.240 . S
C400 O423 1.264 . S
O401 Mn396 2.095 . S
O401 C410 1.250 . S
O402 Mn397 2.121 . S
O402 C410 1.258 . S
C403 N404 1.326 . S
C403 C407 1.460 . S
C403 H409 0.929 . S
N404 Mn397 2.257 . S
N404 C403 1.326 . S
N404 C408 1.362 . S
C405 C406 1.258 . S
C405 C408 1.431 . S
C405 C425 1.449 . S
C406 C405 1.258 . S
C406 C407 1.477 . S
C406 H426 0.931 . S
C407 C403 1.460 . S
C407 C406 1.477 . S
C407 H427 0.930 . S
C408 N404 1.362 . S
C408 C405 1.431 . S
C408 C418 1.476 . S
H409 C403 0.929 . S
C410 O401 1.250 . S
C410 O402 1.258 . S
O411 Mn396 2.162 . S
O411 C399 1.281 . S
O412 Mn396 2.297 . S
O412 C399 1.236 . S
N413 Mn397 2.282 . S
N413 C414 1.328 . S
N413 C418 1.318 . S
C414 N413 1.328 . S
C414 C415 1.457 . S
C414 H419 0.929 . S
C415 C414 1.457 . S
C415 C416 1.291 . S
C415 H428 0.931 . S
C416 C415 1.291 . S
C416 C417 1.373 . S
C416 H429 0.929 . S
C417 C416 1.373 . S
C417 C418 1.396 . S
C417 C424 1.403 . S
C418 C408 1.476 . S
C418 N413 1.318 . S
C418 C417 1.396 . S
H419 C414 0.929 . S
O420 Mn396 2.385 . S
O420 C398 1.234 . S
O421 Mn396 2.209 . S
O421 Mn397 2.215 . S
O421 C398 1.283 . S
O422 Mn396 2.094 . S
O422 C400 1.240 . S
O423 Mn397 2.117 . S
O423 C400 1.264 . S
C424 C417 1.403 . S
C424 C425 1.399 . S
C424 H430 0.929 . S
C425 C405 1.449 . S
C425 C424 1.399 . S
C425 H431 0.930 . S
H426 C406 0.931 . S
H427 C407 0.930 . S
H428 C415 0.931 . S
H429 C416 0.929 . S
H430 C424 0.929 . S
H431 C425 0.930 . S
Mn432 O437 2.095 . S
Mn432 O447 2.162 . S
Mn432 O448 2.297 . S
Mn432 O456 2.385 . S
Mn432 O457 2.209 . S
Mn432 O458 2.094 . S
Mn433 O438 2.121 . S
Mn433 N440 2.257 . S
Mn433 N449 2.282 . S
Mn433 O457 2.215 . S
Mn433 O459 2.117 . S
C434 O456 1.234 . S
C434 O457 1.283 . S
C435 O447 1.281 . S
C435 O448 1.236 . S
C436 O458 1.240 . S
C436 O459 1.264 . S
O437 Mn432 2.095 . S
O437 C446 1.250 . S
O438 Mn433 2.121 . S
O438 C446 1.258 . S
C439 N440 1.326 . S
C439 C443 1.460 . S
C439 H445 0.929 . S
N440 Mn433 2.257 . S
N440 C439 1.326 . S
N440 C444 1.362 . S
C441 C442 1.258 . S
C441 C444 1.431 . S
C441 C461 1.449 . S
C442 C441 1.258 . S
C442 C443 1.477 . S
C442 H462 0.931 . S
C443 C439 1.460 . S
C443 C442 1.477 . S
C443 H463 0.930 . S
C444 N440 1.362 . S
C444 C441 1.431 . S
C444 C454 1.476 . S
H445 C439 0.929 . S
C446 O437 1.250 . S
C446 O438 1.258 . S
O447 Mn432 2.162 . S
O447 C435 1.281 . S
O448 Mn432 2.297 . S
O448 C435 1.236 . S
N449 Mn433 2.282 . S
N449 C450 1.328 . S
N449 C454 1.318 . S
C450 N449 1.328 . S
C450 C451 1.457 . S
C450 H455 0.929 . S
C451 C450 1.457 . S
C451 C452 1.291 . S
C451 H464 0.931 . S
C452 C451 1.291 . S
C452 C453 1.373 . S
C452 H465 0.929 . S
C453 C452 1.373 . S
C453 C454 1.396 . S
C453 C460 1.403 . S
C454 C444 1.476 . S
C454 N449 1.318 . S
C454 C453 1.396 . S
H455 C450 0.929 . S
O456 Mn432 2.385 . S
O456 C434 1.234 . S
O457 Mn432 2.209 . S
O457 Mn433 2.215 . S
O457 C434 1.283 . S
O458 Mn432 2.094 . S
O458 C436 1.240 . S
O459 Mn433 2.117 . S
O459 C436 1.264 . S
C460 C453 1.403 . S
C460 C461 1.399 . S
C460 H466 0.929 . S
C461 C441 1.449 . S
C461 C460 1.399 . S
C461 H467 0.930 . S
H462 C442 0.931 . S
H463 C443 0.930 . S
H464 C451 0.931 . S
H465 C452 0.929 . S
H466 C460 0.929 . S
H467 C461 0.930 . S
Mn468 O473 2.095 . S
Mn468 O483 2.162 . S
Mn468 O484 2.297 . S
Mn468 O492 2.385 . S
Mn468 O493 2.209 . S
Mn468 O494 2.094 . S
Mn469 O474 2.121 . S
Mn469 N476 2.257 . S
Mn469 N485 2.282 . S
Mn469 O493 2.215 . S
Mn469 O495 2.117 . S
C470 O492 1.234 . S
C470 O493 1.283 . S
C471 O483 1.281 . S
C471 O484 1.236 . S
C472 O494 1.240 . S
C472 O495 1.264 . S
O473 Mn468 2.095 . S
O473 C482 1.250 . S
O474 Mn469 2.121 . S
O474 C482 1.258 . S
C475 N476 1.326 . S
C475 C479 1.460 . S
C475 H481 0.929 . S
N476 Mn469 2.257 . S
N476 C475 1.326 . S
N476 C480 1.362 . S
C477 C478 1.258 . S
C477 C480 1.431 . S
C477 C497 1.449 . S
C478 C477 1.258 . S
C478 C479 1.477 . S
C478 H498 0.931 . S
C479 C475 1.460 . S
C479 C478 1.477 . S
C479 H499 0.867 1_655 S
C480 N476 1.362 . S
C480 C477 1.431 . S
C480 C490 1.476 . S
H481 C475 0.929 . S
C482 O473 1.250 . S
C482 O474 1.258 . S
O483 Mn468 2.162 . S
O483 C471 1.281 . S
O484 Mn468 2.297 . S
O484 C471 1.236 . S
N485 Mn469 2.282 . S
N485 C486 1.328 . S
N485 C490 1.318 . S
C486 N485 1.328 . S
C486 C487 1.457 . S
C486 H491 0.929 . S
C487 C486 1.457 . S
C487 C488 1.291 . S
C487 H500 0.931 . S
C488 C487 1.291 . S
C488 C489 1.373 . S
C488 H501 0.929 . S
C489 C488 1.373 . S
C489 C490 1.396 . S
C489 C496 1.403 . S
C490 C480 1.476 . S
C490 N485 1.318 . S
C490 C489 1.396 . S
H491 C486 0.929 . S
O492 Mn468 2.385 . S
O492 C470 1.234 . S
O493 Mn468 2.209 . S
O493 Mn469 2.215 . S
O493 C470 1.283 . S
O494 Mn468 2.094 . S
O494 C472 1.240 . S
O495 Mn469 2.117 . S
O495 C472 1.264 . S
C496 C489 1.403 . S
C496 C497 1.399 . S
C496 H502 0.929 . S
C497 C477 1.449 . S
C497 C496 1.399 . S
C497 H503 0.930 . S
H498 C478 0.931 . S
H499 C479 0.867 1_455 S
H500 C487 0.931 . S
H501 C488 0.929 . S
H502 C496 0.929 . S
H503 C497 0.930 . S
Mn504 O509 2.095 . S
Mn504 O519 2.162 . S
Mn504 O520 2.297 . S
Mn504 O528 2.385 . S
Mn504 O529 2.209 . S
Mn504 O530 2.094 . S
Mn505 O510 2.121 . S
Mn505 N512 2.257 . S
Mn505 N521 2.282 . S
Mn505 O529 2.215 . S
Mn505 O531 2.117 . S
C506 O528 1.234 . S
C506 O529 1.283 . S
C507 O519 1.281 . S
C507 O520 1.236 . S
C508 O530 1.240 . S
C508 O531 1.264 . S
O509 Mn504 2.095 . S
O509 C518 1.250 . S
O510 Mn505 2.121 . S
O510 C518 1.258 . S
C511 N512 1.326 . S
C511 C515 1.460 . S
C511 H517 0.929 . S
N512 Mn505 2.257 . S
N512 C511 1.326 . S
N512 C516 1.362 . S
C513 C514 1.258 . S
C513 C516 1.431 . S
C513 C533 1.449 . S
C514 C513 1.258 . S
C514 C515 1.477 . S
C514 H534 0.931 . S
C515 C511 1.460 . S
C515 C514 1.477 . S
C515 H535 0.930 . S
C516 N512 1.362 . S
C516 C513 1.431 . S
C516 C526 1.476 . S
H517 C511 0.929 . S
C518 O509 1.250 . S
C518 O510 1.258 . S
O519 Mn504 2.162 . S
O519 C507 1.281 . S
O520 Mn504 2.297 . S
O520 C507 1.236 . S
N521 Mn505 2.282 . S
N521 C522 1.328 . S
N521 C526 1.318 . S
C522 N521 1.328 . S
C522 C523 1.457 . S
C522 H527 0.929 . S
C523 C522 1.457 . S
C523 C524 1.291 . S
C523 H536 0.931 . S
C524 C523 1.291 . S
C524 C525 1.373 . S
C524 H537 0.929 . S
C525 C524 1.373 . S
C525 C526 1.396 . S
C525 C532 1.403 . S
C526 C516 1.476 . S
C526 N521 1.318 . S
C526 C525 1.396 . S
H527 C522 0.929 . S
O528 Mn504 2.385 . S
O528 C506 1.234 . S
O529 Mn504 2.209 . S
O529 Mn505 2.215 . S
O529 C506 1.283 . S
O530 Mn504 2.094 . S
O530 C508 1.240 . S
O531 Mn505 2.117 . S
O531 C508 1.264 . S
C532 C525 1.403 . S
C532 C533 1.399 . S
C532 H538 0.929 . S
C533 C513 1.449 . S
C533 C532 1.399 . S
C533 H539 0.930 . S
H534 C514 0.931 . S
H535 C515 0.930 . S
H536 C523 0.931 . S
H537 C524 0.929 . S
H538 C532 0.929 . S
H539 C533 0.930 . S
Mn540 O545 2.095 . S
Mn540 O555 2.162 . S
Mn540 O556 2.297 . S
Mn540 O564 2.385 . S
Mn540 O565 2.209 . S
Mn540 O566 2.094 . S
Mn541 O546 2.121 . S
Mn541 N548 2.257 . S
Mn541 N557 2.282 . S
Mn541 O565 2.215 . S
Mn541 O567 2.117 . S
C542 O564 1.234 . S
C542 O565 1.283 . S
C543 O555 1.281 . S
C543 O556 1.236 . S
C544 O566 1.240 . S
C544 O567 1.264 . S
O545 Mn540 2.095 . S
O545 C554 1.250 . S
O546 Mn541 2.121 . S
O546 C554 1.258 . S
C547 N548 1.326 . S
C547 C551 1.460 . S
C547 H553 0.929 . S
N548 Mn541 2.257 . S
N548 C547 1.326 . S
N548 C552 1.362 . S
C549 C550 1.258 . S
C549 C552 1.431 . S
C549 C569 1.449 . S
C550 C549 1.258 . S
C550 C551 1.477 . S
C550 H570 0.931 . S
C551 C547 1.460 . S
C551 C550 1.477 . S
C551 H571 0.930 . S
C552 N548 1.362 . S
C552 C549 1.431 . S
C552 C562 1.476 . S
H553 C547 0.929 . S
C554 O545 1.250 . S
C554 O546 1.258 . S
O555 Mn540 2.162 . S
O555 C543 1.281 . S
O556 Mn540 2.297 . S
O556 C543 1.236 . S
N557 Mn541 2.282 . S
N557 C558 1.328 . S
N557 C562 1.318 . S
C558 N557 1.328 . S
C558 C559 1.457 . S
C558 H563 0.929 . S
C559 C558 1.457 . S
C559 C560 1.291 . S
C559 H572 0.931 . S
C560 C559 1.291 . S
C560 C561 1.373 . S
C560 H573 0.929 . S
C561 C560 1.373 . S
C561 C562 1.396 . S
C561 C568 1.403 . S
C562 C552 1.476 . S
C562 N557 1.318 . S
C562 C561 1.396 . S
H563 C558 0.929 . S
O564 Mn540 2.385 . S
O564 C542 1.234 . S
O565 Mn540 2.209 . S
O565 Mn541 2.215 . S
O565 C542 1.283 . S
O566 Mn540 2.094 . S
O566 C544 1.240 . S
O567 Mn541 2.117 . S
O567 C544 1.264 . S
C568 C561 1.403 . S
C568 C569 1.399 . S
C568 H574 0.929 . S
C569 C549 1.449 . S
C569 C568 1.399 . S
C569 H575 0.930 . S
H570 C550 0.931 . S
H571 C551 0.930 . S
H572 C559 0.931 . S
H573 C560 0.929 . S
H574 C568 0.929 . S
H575 C569 0.930 . S
Mn576 O581 2.095 . S
Mn576 O591 2.162 . S
Mn576 O592 2.297 . S
Mn576 O600 2.385 . S
Mn576 O601 2.209 . S
Mn576 O602 2.094 . S
Mn577 O582 2.121 . S
Mn577 N584 2.257 . S
Mn577 N593 2.282 . S
Mn577 O601 2.215 . S
Mn577 O603 2.117 . S
C578 O600 1.234 . S
C578 O601 1.283 . S
C579 O591 1.281 . S
C579 O592 1.236 . S
C580 O602 1.240 . S
C580 O603 1.264 . S
O581 Mn576 2.095 . S
O581 C590 1.250 . S
O582 Mn577 2.121 . S
O582 C590 1.258 . S
C583 N584 1.326 . S
C583 C587 1.460 . S
C583 H589 0.929 . S
N584 Mn577 2.257 . S
N584 C583 1.326 . S
N584 C588 1.362 . S
C585 C586 1.258 . S
C585 C588 1.431 . S
C585 C605 1.449 . S
C586 C585 1.258 . S
C586 C587 1.477 . S
C586 H606 0.931 . S
C587 C583 1.460 . S
C587 C586 1.477 . S
C587 H607 0.936 1_545 S
C588 N584 1.362 . S
C588 C585 1.431 . S
C588 C598 1.476 . S
H589 C583 0.929 . S
C590 O581 1.250 . S
C590 O582 1.258 . S
O591 Mn576 2.162 . S
O591 C579 1.281 . S
O592 Mn576 2.297 . S
O592 C579 1.236 . S
N593 Mn577 2.282 . S
N593 C594 1.328 . S
N593 C598 1.318 . S
C594 N593 1.328 . S
C594 C595 1.457 . S
C594 H599 0.929 . S
C595 C594 1.457 . S
C595 C596 1.291 . S
C595 H608 0.931 . S
C596 C595 1.291 . S
C596 C597 1.373 . S
C596 H609 0.929 . S
C597 C596 1.373 . S
C597 C598 1.396 . S
C597 C604 1.403 . S
C598 C588 1.476 . S
C598 N593 1.318 . S
C598 C597 1.396 . S
H599 C594 0.929 . S
O600 Mn576 2.385 . S
O600 C578 1.234 . S
O601 Mn576 2.209 . S
O601 Mn577 2.215 . S
O601 C578 1.283 . S
O602 Mn576 2.094 . S
O602 C580 1.240 . S
O603 Mn577 2.117 . S
O603 C580 1.264 . S
C604 C597 1.403 . S
C604 C605 1.399 . S
C604 H610 0.929 . S
C605 C585 1.449 . S
C605 C604 1.399 . S
C605 H611 0.930 . S
H606 C586 0.931 . S
H607 C587 0.936 1_565 S
H608 C595 0.931 . S
H609 C596 0.929 . S
H610 C604 0.929 . S
H611 C605 0.930 . S
Mn612 O617 2.095 . S
Mn612 O627 2.162 . S
Mn612 O628 2.297 . S
Mn612 O636 2.385 . S
Mn612 O637 2.209 . S
Mn612 O638 2.094 . S
Mn613 O618 2.121 . S
Mn613 N620 2.257 . S
Mn613 N629 2.282 . S
Mn613 O637 2.215 . S
Mn613 O639 2.117 . S
C614 O636 1.234 . S
C614 O637 1.283 . S
C615 O627 1.281 . S
C615 O628 1.236 . S
C616 O638 1.240 . S
C616 O639 1.264 . S
O617 Mn612 2.095 . S
O617 C626 1.250 . S
O618 Mn613 2.121 . S
O618 C626 1.258 . S
C619 N620 1.326 . S
C619 C623 1.460 . S
C619 H625 0.929 . S
N620 Mn613 2.257 . S
N620 C619 1.326 . S
N620 C624 1.362 . S
C621 C622 1.258 . S
C621 C624 1.431 . S
C621 C641 1.449 . S
C622 C621 1.258 . S
C622 C623 1.477 . S
C622 H642 0.931 . S
C623 C619 1.460 . S
C623 C622 1.477 . S
C623 H643 0.930 . S
C624 N620 1.362 . S
C624 C621 1.431 . S
C624 C634 1.476 . S
H625 C619 0.929 . S
C626 O617 1.250 . S
C626 O618 1.258 . S
O627 Mn612 2.162 . S
O627 C615 1.281 . S
O628 Mn612 2.297 . S
O628 C615 1.236 . S
N629 Mn613 2.282 . S
N629 C630 1.328 . S
N629 C634 1.318 . S
C630 N629 1.328 . S
C630 C631 1.457 . S
C630 H635 0.929 . S
C631 C630 1.457 . S
C631 C632 1.291 . S
C631 H644 0.931 . S
C632 C631 1.291 . S
C632 C633 1.373 . S
C632 H645 0.929 . S
C633 C632 1.373 . S
C633 C634 1.396 . S
C633 C640 1.403 . S
C634 C624 1.476 . S
C634 N629 1.318 . S
C634 C633 1.396 . S
H635 C630 0.929 . S
O636 Mn612 2.385 . S
O636 C614 1.234 . S
O637 Mn612 2.209 . S
O637 Mn613 2.215 . S
O637 C614 1.283 . S
O638 Mn612 2.094 . S
O638 C616 1.240 . S
O639 Mn613 2.117 . S
O639 C616 1.264 . S
C640 C633 1.403 . S
C640 C641 1.399 . S
C640 H646 0.929 . S
C641 C621 1.449 . S
C641 C640 1.399 . S
C641 H647 0.930 . S
H642 C622 0.931 . S
H643 C623 0.930 . S
H644 C631 0.931 . S
H645 C632 0.929 . S
H646 C640 0.929 . S
H647 C641 0.930 . S
H648 O674 0.856 . S
H649 O677 0.854 . S
H650 C685 0.930 . S
H651 C686 0.930 . S
H652 C688 0.930 . S
H653 C689 0.930 . S
H654 C691 0.931 . S
H655 C692 0.930 . S
H656 C694 0.930 . S
H657 C695 0.929 . S
H658 C697 0.930 . S
H659 C698 0.931 . S
H660 C700 0.930 . S
H661 C701 0.929 . S
H662 C703 0.931 . S
H663 C704 0.930 . S
H664 C706 0.930 . S
H665 C707 0.932 . S
H666 C709 0.930 . S
H667 C710 0.929 . S
H668 C712 0.931 . S
H669 C713 0.930 . S
H670 C715 0.929 . S
H671 C716 0.931 . S
H672 C718 0.930 . S
H673 C719 0.929 . S
O674 H648 0.856 . S
O674 C720 1.300 . S
O675 C720 1.209 . S
O676 C721 1.199 . S
O677 H649 0.854 . S
O677 C721 1.297 . S
C678 C679 1.404 . S
C678 C683 1.397 . S
C678 C684 1.492 . S
C679 C678 1.404 . S
C679 C680 1.396 . S
C679 C690 1.492 . S
C680 C679 1.396 . S
C680 C681 1.397 . S
C680 C696 1.509 . S
C681 C680 1.397 . S
C681 C682 1.412 . S
C681 C702 1.485 . S
C682 C681 1.412 . S
C682 C683 1.388 . S
C682 C708 1.490 . S
C683 C678 1.397 . S
C683 C682 1.388 . S
C683 C714 1.519 . S
C684 C678 1.492 . S
C684 C685 1.363 . S
C684 C689 1.390 . S
C685 H650 0.930 . S
C685 C684 1.363 . S
C685 C686 1.372 . S
C686 H651 0.930 . S
C686 C685 1.372 . S
C686 C687 1.383 . S
C687 C686 1.383 . S
C687 C688 1.395 . S
C688 H652 0.930 . S
C688 C687 1.395 . S
C688 C689 1.362 . S
C689 H653 0.930 . S
C689 C684 1.390 . S
C689 C688 1.362 . S
C690 C679 1.492 . S
C690 C691 1.377 . S
C690 C695 1.397 . S
C691 H654 0.931 . S
C691 C690 1.377 . S
C691 C692 1.376 . S
C692 H655 0.930 . S
C692 C691 1.376 . S
C692 C693 1.376 . S
C693 C692 1.376 . S
C693 C694 1.378 . S
C693 C720 1.486 . S
C694 H656 0.930 . S
C694 C693 1.378 . S
C694 C695 1.376 . S
C695 H657 0.929 . S
C695 C690 1.397 . S
C695 C694 1.376 . S
C696 C680 1.509 . S
C696 C697 1.391 . S
C696 C701 1.386 . S
C697 H658 0.930 . S
C697 C696 1.391 . S
C697 C698 1.375 . S
C698 H659 0.931 . S
C698 C697 1.375 . S
C698 C699 1.375 . S
C699 C698 1.375 . S
C699 C700 1.361 . S
C700 H660 0.930 . S
C700 C699 1.361 . S
C700 C701 1.399 . S
C701 H661 0.929 . S
C701 C696 1.386 . S
C701 C700 1.399 . S
C702 C681 1.485 . S
C702 C703 1.394 . S
C702 C707 1.360 . S
C703 H662 0.931 . S
C703 C702 1.394 . S
C703 C704 1.372 . S
C704 H663 0.930 . S
C704 C703 1.372 . S
C704 C705 1.397 . S
C705 C704 1.397 . S
C705 C706 1.390 . S
C705 C721 1.476 . S
C706 H664 0.930 . S
C706 C705 1.390 . S
C706 C707 1.366 . S
C707 H665 0.932 . S
C707 C702 1.360 . S
C707 C706 1.366 . S
C708 C682 1.490 . S
C708 C709 1.380 . S
C708 C713 1.386 . S
C709 H666 0.930 . S
C709 C708 1.380 . S
C709 C710 1.381 . S
C710 H667 0.929 . S
C710 C709 1.381 . S
C710 C711 1.371 . S
C711 C710 1.371 . S
C711 C712 1.380 . S
C712 H668 0.931 . S
C712 C711 1.380 . S
C712 C713 1.387 . S
C713 H669 0.930 . S
C713 C708 1.386 . S
C713 C712 1.387 . S
C714 C683 1.519 . S
C714 C715 1.377 . S
C714 C719 1.361 . S
C715 H670 0.929 . S
C715 C714 1.377 . S
C715 C716 1.386 . S
C716 H671 0.931 . S
C716 C715 1.386 . S
C716 C717 1.363 . S
C717 C716 1.363 . S
C717 C718 1.385 . S
C718 H672 0.930 . S
C718 C717 1.385 . S
C718 C719 1.396 . S
C719 H673 0.929 . S
C719 C714 1.361 . S
C719 C718 1.396 . S
C720 O674 1.300 . S
C720 O675 1.209 . S
C720 C693 1.486 . S
C721 O676 1.199 . S
C721 O677 1.297 . S
C721 C705 1.476 . S
H722 O748 0.856 . S
H723 O751 0.854 . S
H724 C759 0.930 . S
H725 C760 0.930 . S
H726 C762 0.930 . S
H727 C763 0.930 . S
H728 C765 0.931 . S
H729 C766 0.930 . S
H730 C768 0.930 . S
H731 C769 0.929 . S
H732 C771 0.930 . S
H733 C772 0.931 . S
H734 C774 0.930 . S
H735 C775 0.929 . S
H736 C777 0.931 . S
H737 C778 0.930 . S
H738 C780 0.930 . S
H739 C781 0.932 . S
H740 C783 0.930 . S
H741 C784 0.929 . S
H742 C786 0.931 . S
H743 C787 0.930 . S
H744 C789 0.929 . S
H745 C790 0.931 . S
H746 C792 0.930 . S
H747 C793 0.929 . S
O748 H722 0.856 . S
O748 C794 1.300 . S
O749 C794 1.209 . S
O750 C795 1.199 . S
O751 H723 0.854 . S
O751 C795 1.297 . S
C752 C753 1.404 . S
C752 C757 1.397 . S
C752 C758 1.492 . S
C753 C752 1.404 . S
C753 C754 1.396 . S
C753 C764 1.492 . S
C754 C753 1.396 . S
C754 C755 1.397 . S
C754 C770 1.509 . S
C755 C754 1.397 . S
C755 C756 1.412 . S
C755 C776 1.485 . S
C756 C755 1.412 . S
C756 C757 1.388 . S
C756 C782 1.490 . S
C757 C752 1.397 . S
C757 C756 1.388 . S
C757 C788 1.519 . S
C758 C752 1.492 . S
C758 C759 1.363 . S
C758 C763 1.390 . S
C759 H724 0.930 . S
C759 C758 1.363 . S
C759 C760 1.372 . S
C760 H725 0.930 . S
C760 C759 1.372 . S
C760 C761 1.383 . S
C761 C760 1.383 . S
C761 C762 1.395 . S
C762 H726 0.930 . S
C762 C761 1.395 . S
C762 C763 1.362 . S
C763 H727 0.930 . S
C763 C758 1.390 . S
C763 C762 1.362 . S
C764 C753 1.492 . S
C764 C765 1.377 . S
C764 C769 1.397 . S
C765 H728 0.931 . S
C765 C764 1.377 . S
C765 C766 1.376 . S
C766 H729 0.930 . S
C766 C765 1.376 . S
C766 C767 1.376 . S
C767 C766 1.376 . S
C767 C768 1.378 . S
C767 C794 1.486 . S
C768 H730 0.930 . S
C768 C767 1.378 . S
C768 C769 1.376 . S
C769 H731 0.929 . S
C769 C764 1.397 . S
C769 C768 1.376 . S
C770 C754 1.509 . S
C770 C771 1.391 . S
C770 C775 1.386 . S
C771 H732 0.930 . S
C771 C770 1.391 . S
C771 C772 1.375 . S
C772 H733 0.931 . S
C772 C771 1.375 . S
C772 C773 1.375 . S
C773 C772 1.375 . S
C773 C774 1.361 . S
C774 H734 0.930 . S
C774 C773 1.361 . S
C774 C775 1.399 . S
C775 H735 0.929 . S
C775 C770 1.386 . S
C775 C774 1.399 . S
C776 C755 1.485 . S
C776 C777 1.394 . S
C776 C781 1.360 . S
C777 H736 0.931 . S
C777 C776 1.394 . S
C777 C778 1.372 . S
C778 H737 0.930 . S
C778 C777 1.372 . S
C778 C779 1.397 . S
C779 C778 1.397 . S
C779 C780 1.390 . S
C779 C795 1.476 . S
C780 H738 0.930 . S
C780 C779 1.390 . S
C780 C781 1.366 . S
C781 H739 0.932 . S
C781 C776 1.360 . S
C781 C780 1.366 . S
C782 C756 1.490 . S
C782 C783 1.380 . S
C782 C787 1.386 . S
C783 H740 0.930 . S
C783 C782 1.380 . S
C783 C784 1.381 . S
C784 H741 0.929 . S
C784 C783 1.381 . S
C784 C785 1.371 . S
C785 C784 1.371 . S
C785 C786 1.380 . S
C786 H742 0.931 . S
C786 C785 1.380 . S
C786 C787 1.387 . S
C787 H743 0.930 . S
C787 C782 1.386 . S
C787 C786 1.387 . S
C788 C757 1.519 . S
C788 C789 1.377 . S
C788 C793 1.361 . S
C789 H744 0.929 . S
C789 C788 1.377 . S
C789 C790 1.386 . S
C790 H745 0.931 . S
C790 C789 1.386 . S
C790 C791 1.363 . S
C791 C790 1.363 . S
C791 C792 1.385 . S
C792 H746 0.930 . S
C792 C791 1.385 . S
C792 C793 1.396 . S
C793 H747 0.929 . S
C793 C788 1.361 . S
C793 C792 1.396 . S
C794 O748 1.300 . S
C794 O749 1.209 . S
C794 C767 1.486 . S
C795 O750 1.199 . S
C795 O751 1.297 . S
C795 C779 1.476 . S
H796 O822 0.856 . S
H797 O825 0.854 . S
H798 C833 0.930 . S
H799 C834 0.930 . S
H800 C836 0.930 . S
H801 C837 0.930 . S
H802 C839 0.931 . S
H803 C840 0.930 . S
H804 C842 0.930 . S
H805 C843 0.929 . S
H806 C845 0.930 . S
H807 C846 0.931 . S
H808 C848 0.930 . S
H809 C849 0.929 . S
H810 C851 0.931 . S
H811 C852 0.930 . S
H812 C854 0.930 . S
H813 C855 0.932 . S
H814 C857 0.930 . S
H815 C858 0.929 . S
H816 C860 0.931 . S
H817 C861 0.930 . S
H818 C863 0.929 . S
H819 C864 0.931 . S
H820 C866 0.930 . S
H821 C867 0.929 . S
O822 H796 0.856 . S
O822 C868 1.300 . S
O823 C868 1.209 . S
O824 C869 1.199 . S
O825 H797 0.854 . S
O825 C869 1.297 . S
C826 C827 1.404 . S
C826 C831 1.397 . S
C826 C832 1.492 . S
C827 C826 1.404 . S
C827 C828 1.396 . S
C827 C838 1.492 . S
C828 C827 1.396 . S
C828 C829 1.397 . S
C828 C844 1.509 . S
C829 C828 1.397 . S
C829 C830 1.412 . S
C829 C850 1.485 . S
C830 C829 1.412 . S
C830 C831 1.388 . S
C830 C856 1.490 . S
C831 C826 1.397 . S
C831 C830 1.388 . S
C831 C862 1.519 . S
C832 C826 1.492 . S
C832 C833 1.363 . S
C832 C837 1.390 . S
C833 H798 0.930 . S
C833 C832 1.363 . S
C833 C834 1.372 . S
C834 H799 0.930 . S
C834 C833 1.372 . S
C834 C835 1.383 . S
C835 C834 1.383 . S
C835 C836 1.395 . S
C836 H800 0.930 . S
C836 C835 1.395 . S
C836 C837 1.362 . S
C837 H801 0.930 . S
C837 C832 1.390 . S
C837 C836 1.362 . S
C838 C827 1.492 . S
C838 C839 1.377 . S
C838 C843 1.397 . S
C839 H802 0.931 . S
C839 C838 1.377 . S
C839 C840 1.376 . S
C840 H803 0.930 . S
C840 C839 1.376 . S
C840 C841 1.376 . S
C841 C840 1.376 . S
C841 C842 1.378 . S
C841 C868 1.486 . S
C842 H804 0.930 . S
C842 C841 1.378 . S
C842 C843 1.376 . S
C843 H805 0.929 . S
C843 C838 1.397 . S
C843 C842 1.376 . S
C844 C828 1.509 . S
C844 C845 1.391 . S
C844 C849 1.386 . S
C845 H806 0.930 . S
C845 C844 1.391 . S
C845 C846 1.375 . S
C846 H807 0.931 . S
C846 C845 1.375 . S
C846 C847 1.375 . S
C847 C846 1.375 . S
C847 C848 1.361 . S
C848 H808 0.930 . S
C848 C847 1.361 . S
C848 C849 1.399 . S
C849 H809 0.929 . S
C849 C844 1.386 . S
C849 C848 1.399 . S
C850 C829 1.485 . S
C850 C851 1.394 . S
C850 C855 1.360 . S
C851 H810 0.931 . S
C851 C850 1.394 . S
C851 C852 1.372 . S
C852 H811 0.930 . S
C852 C851 1.372 . S
C852 C853 1.397 . S
C853 C852 1.397 . S
C853 C854 1.390 . S
C853 C869 1.476 . S
C854 H812 0.930 . S
C854 C853 1.390 . S
C854 C855 1.366 . S
C855 H813 0.932 . S
C855 C850 1.360 . S
C855 C854 1.366 . S
C856 C830 1.490 . S
C856 C857 1.380 . S
C856 C861 1.386 . S
C857 H814 0.930 . S
C857 C856 1.380 . S
C857 C858 1.381 . S
C858 H815 0.929 . S
C858 C857 1.381 . S
C858 C859 1.371 . S
C859 C858 1.371 . S
C859 C860 1.380 . S
C860 H816 0.931 . S
C860 C859 1.380 . S
C860 C861 1.387 . S
C861 H817 0.930 . S
C861 C856 1.386 . S
C861 C860 1.387 . S
C862 C831 1.519 . S
C862 C863 1.377 . S
C862 C867 1.361 . S
C863 H818 0.929 . S
C863 C862 1.377 . S
C863 C864 1.386 . S
C864 H819 0.931 . S
C864 C863 1.386 . S
C864 C865 1.363 . S
C865 C864 1.363 . S
C865 C866 1.385 . S
C866 H820 0.930 . S
C866 C865 1.385 . S
C866 C867 1.396 . S
C867 H821 0.929 . S
C867 C862 1.361 . S
C867 C866 1.396 . S
C868 O822 1.300 . S
C868 O823 1.209 . S
C868 C841 1.486 . S
C869 O824 1.199 . S
C869 O825 1.297 . S
C869 C853 1.476 . S
H870 O896 0.856 . S
H871 O899 0.854 . S
H872 C907 0.930 . S
H873 C908 0.930 . S
H874 C910 0.930 . S
H875 C911 0.930 . S
H876 C913 0.931 . S
H877 C914 0.930 . S
H878 C916 0.930 . S
H879 C917 0.929 . S
H880 C919 0.930 . S
H881 C920 0.931 . S
H882 C922 0.930 . S
H883 C923 0.929 . S
H884 C925 0.931 . S
H885 C926 0.930 . S
H886 C928 0.930 . S
H887 C929 0.932 . S
H888 C931 0.930 . S
H889 C932 0.929 . S
H890 C934 0.931 . S
H891 C935 0.930 . S
H892 C937 0.929 . S
H893 C938 0.931 . S
H894 C940 0.930 . S
H895 C941 0.929 . S
O896 H870 0.856 . S
O896 C942 1.300 . S
O897 C942 1.209 . S
O898 C943 1.199 . S
O899 H871 0.854 . S
O899 C943 1.297 . S
C900 C901 1.404 . S
C900 C905 1.397 . S
C900 C906 1.492 . S
C901 C900 1.404 . S
C901 C902 1.396 . S
C901 C912 1.492 . S
C902 C901 1.396 . S
C902 C903 1.397 . S
C902 C918 1.509 . S
C903 C902 1.397 . S
C903 C904 1.412 . S
C903 C924 1.485 . S
C904 C903 1.412 . S
C904 C905 1.388 . S
C904 C930 1.490 . S
C905 C900 1.397 . S
C905 C904 1.388 . S
C905 C936 1.519 . S
C906 C900 1.492 . S
C906 C907 1.363 . S
C906 C911 1.390 . S
C907 H872 0.930 . S
C907 C906 1.363 . S
C907 C908 1.372 . S
C908 H873 0.930 . S
C908 C907 1.372 . S
C908 C909 1.383 . S
C909 C908 1.383 . S
C909 C910 1.395 . S
C910 H874 0.930 . S
C910 C909 1.395 . S
C910 C911 1.362 . S
C911 H875 0.930 . S
C911 C906 1.390 . S
C911 C910 1.362 . S
C912 C901 1.492 . S
C912 C913 1.377 . S
C912 C917 1.397 . S
C913 H876 0.931 . S
C913 C912 1.377 . S
C913 C914 1.376 . S
C914 H877 0.930 . S
C914 C913 1.376 . S
C914 C915 1.376 . S
C915 C914 1.376 . S
C915 C916 1.378 . S
C915 C942 1.486 . S
C916 H878 0.930 . S
C916 C915 1.378 . S
C916 C917 1.376 . S
C917 H879 0.929 . S
C917 C912 1.397 . S
C917 C916 1.376 . S
C918 C902 1.509 . S
C918 C919 1.391 . S
C918 C923 1.386 . S
C919 H880 0.930 . S
C919 C918 1.391 . S
C919 C920 1.375 . S
C920 H881 0.931 . S
C920 C919 1.375 . S
C920 C921 1.375 . S
C921 C920 1.375 . S
C921 C922 1.361 . S
C922 H882 0.930 . S
C922 C921 1.361 . S
C922 C923 1.399 . S
C923 H883 0.929 . S
C923 C918 1.386 . S
C923 C922 1.399 . S
C924 C903 1.485 . S
C924 C925 1.394 . S
C924 C929 1.360 . S
C925 H884 0.931 . S
C925 C924 1.394 . S
C925 C926 1.372 . S
C926 H885 0.930 . S
C926 C925 1.372 . S
C926 C927 1.397 . S
C927 C926 1.397 . S
C927 C928 1.390 . S
C927 C943 1.476 . S
C928 H886 0.930 . S
C928 C927 1.390 . S
C928 C929 1.366 . S
C929 H887 0.932 . S
C929 C924 1.360 . S
C929 C928 1.366 . S
C930 C904 1.490 . S
C930 C931 1.380 . S
C930 C935 1.386 . S
C931 H888 0.930 . S
C931 C930 1.380 . S
C931 C932 1.381 . S
C932 H889 0.929 . S
C932 C931 1.381 . S
C932 C933 1.371 . S
C933 C932 1.371 . S
C933 C934 1.380 . S
C934 H890 0.931 . S
C934 C933 1.380 . S
C934 C935 1.387 . S
C935 H891 0.930 . S
C935 C930 1.386 . S
C935 C934 1.387 . S
C936 C905 1.519 . S
C936 C937 1.377 . S
C936 C941 1.361 . S
C937 H892 0.929 . S
C937 C936 1.377 . S
C937 C938 1.386 . S
C938 H893 0.931 . S
C938 C937 1.386 . S
C938 C939 1.363 . S
C939 C938 1.363 . S
C939 C940 1.385 . S
C940 H894 0.930 . S
C940 C939 1.385 . S
C940 C941 1.396 . S
C941 H895 0.929 . S
C941 C936 1.361 . S
C941 C940 1.396 . S
C942 O896 1.300 . S
C942 O897 1.209 . S
C942 C915 1.486 . S
C943 O898 1.199 . S
C943 O899 1.297 . S
C943 C927 1.476 . S
H944 O970 0.856 . S
H945 O973 0.854 . S
H946 C981 0.930 . S
H947 C982 0.930 . S
H948 C984 0.930 . S
H949 C985 0.930 . S
H950 C987 0.931 . S
H951 C988 0.930 . S
H952 C990 0.930 . S
H953 C991 0.929 . S
H954 C993 0.930 . S
H955 C994 0.931 . S
H956 C996 0.930 . S
H957 C997 0.929 . S
H958 C999 0.931 . S
H959 C1000 0.930 . S
H960 C1002 0.930 . S
H961 C1003 0.932 . S
H962 C1005 0.930 . S
H963 C1006 0.929 . S
H964 C1008 0.931 . S
H965 C1009 0.930 . S
H966 C1011 0.929 . S
H967 C1012 0.931 . S
H968 C1014 0.930 . S
H969 C1015 0.929 . S
O970 H944 0.856 . S
O970 C1016 1.300 . S
O971 C1016 1.209 . S
O972 C1017 1.199 . S
O973 H945 0.854 . S
O973 C1017 1.297 . S
C974 C975 1.404 . S
C974 C979 1.397 . S
C974 C980 1.492 . S
C975 C974 1.404 . S
C975 C976 1.396 . S
C975 C986 1.492 . S
C976 C975 1.396 . S
C976 C977 1.397 . S
C976 C992 1.509 . S
C977 C976 1.397 . S
C977 C978 1.412 . S
C977 C998 1.485 . S
C978 C977 1.412 . S
C978 C979 1.388 . S
C978 C1004 1.490 . S
C979 C974 1.397 . S
C979 C978 1.388 . S
C979 C1010 1.519 . S
C980 C974 1.492 . S
C980 C981 1.363 . S
C980 C985 1.390 . S
C981 H946 0.930 . S
C981 C980 1.363 . S
C981 C982 1.372 . S
C982 H947 0.930 . S
C982 C981 1.372 . S
C982 C983 1.383 . S
C983 C982 1.383 . S
C983 C984 1.395 . S
C984 H948 0.930 . S
C984 C983 1.395 . S
C984 C985 1.362 . S
C985 H949 0.930 . S
C985 C980 1.390 . S
C985 C984 1.362 . S
C986 C975 1.492 . S
C986 C987 1.377 . S
C986 C991 1.397 . S
C987 H950 0.931 . S
C987 C986 1.377 . S
C987 C988 1.376 . S
C988 H951 0.930 . S
C988 C987 1.376 . S
C988 C989 1.376 . S
C989 C988 1.376 . S
C989 C990 1.378 . S
C989 C1016 1.486 . S
C990 H952 0.930 . S
C990 C989 1.378 . S
C990 C991 1.376 . S
C991 H953 0.929 . S
C991 C986 1.397 . S
C991 C990 1.376 . S
C992 C976 1.509 . S
C992 C993 1.391 . S
C992 C997 1.386 . S
C993 H954 0.930 . S
C993 C992 1.391 . S
C993 C994 1.375 . S
C994 H955 0.931 . S
C994 C993 1.375 . S
C994 C995 1.375 . S
C995 C994 1.375 . S
C995 C996 1.361 . S
C996 H956 0.930 . S
C996 C995 1.361 . S
C996 C997 1.399 . S
C997 H957 0.929 . S
C997 C992 1.386 . S
C997 C996 1.399 . S
C998 C977 1.485 . S
C998 C999 1.394 . S
C998 C1003 1.360 . S
C999 H958 0.931 . S
C999 C998 1.394 . S
C999 C1000 1.372 . S
C1000 H959 0.930 . S
C1000 C999 1.372 . S
C1000 C1001 1.397 . S
C1001 C1000 1.397 . S
C1001 C1002 1.390 . S
C1001 C1017 1.476 . S
C1002 H960 0.930 . S
C1002 C1001 1.390 . S
C1002 C1003 1.366 . S
C1003 H961 0.932 . S
C1003 C998 1.360 . S
C1003 C1002 1.366 . S
C1004 C978 1.490 . S
C1004 C1005 1.380 . S
C1004 C1009 1.386 . S
C1005 H962 0.930 . S
C1005 C1004 1.380 . S
C1005 C1006 1.381 . S
C1006 H963 0.929 . S
C1006 C1005 1.381 . S
C1006 C1007 1.371 . S
C1007 C1006 1.371 . S
C1007 C1008 1.380 . S
C1008 H964 0.931 . S
C1008 C1007 1.380 . S
C1008 C1009 1.387 . S
C1009 H965 0.930 . S
C1009 C1004 1.386 . S
C1009 C1008 1.387 . S
C1010 C979 1.519 . S
C1010 C1011 1.377 . S
C1010 C1015 1.361 . S
C1011 H966 0.929 . S
C1011 C1010 1.377 . S
C1011 C1012 1.386 . S
C1012 H967 0.931 . S
C1012 C1011 1.386 . S
C1012 C1013 1.363 . S
C1013 C1012 1.363 . S
C1013 C1014 1.385 . S
C1014 H968 0.930 . S
C1014 C1013 1.385 . S
C1014 C1015 1.396 . S
C1015 H969 0.929 . S
C1015 C1010 1.361 . S
C1015 C1014 1.396 . S
C1016 O970 1.300 . S
C1016 O971 1.209 . S
C1016 C989 1.486 . S
C1017 O972 1.199 . S
C1017 O973 1.297 . S
C1017 C1001 1.476 . S
H1018 O1044 0.904 . S
H1019 O1047 0.854 . S
H1020 C1055 0.930 . S
H1021 C1056 0.930 . S
H1022 C1058 0.930 . S
H1023 C1059 0.930 . S
H1024 C1061 0.931 . S
H1025 C1062 0.930 . S
H1026 C1064 0.930 . S
H1027 C1065 0.929 . S
H1028 C1067 0.930 . S
H1029 C1068 0.931 . S
H1030 C1070 0.930 . S
H1031 C1071 0.929 . S
H1032 C1073 0.931 . S
H1033 C1074 0.930 . S
H1034 C1076 0.930 . S
H1035 C1077 0.932 . S
H1036 C1079 0.930 . S
H1037 C1080 0.929 . S
H1038 C1082 0.931 . S
H1039 C1083 0.930 . S
H1040 C1085 0.929 . S
H1041 C1086 0.931 . S
H1042 C1088 0.930 . S
H1043 C1089 0.929 . S
O1044 H1018 0.904 . S
O1044 C1090 1.266 1_554 S
O1045 C1090 1.209 . S
O1046 C1091 1.199 . S
O1047 H1019 0.854 . S
O1047 C1091 1.297 . S
C1048 C1049 1.404 . S
C1048 C1053 1.397 . S
C1048 C1054 1.492 . S
C1049 C1048 1.404 . S
C1049 C1050 1.396 . S
C1049 C1060 1.492 . S
C1050 C1049 1.396 . S
C1050 C1051 1.397 . S
C1050 C1066 1.509 . S
C1051 C1050 1.397 . S
C1051 C1052 1.412 . S
C1051 C1072 1.485 . S
C1052 C1051 1.412 . S
C1052 C1053 1.388 . S
C1052 C1078 1.490 . S
C1053 C1048 1.397 . S
C1053 C1052 1.388 . S
C1053 C1084 1.519 . S
C1054 C1048 1.492 . S
C1054 C1055 1.363 . S
C1054 C1059 1.390 . S
C1055 H1020 0.930 . S
C1055 C1054 1.363 . S
C1055 C1056 1.372 . S
C1056 H1021 0.930 . S
C1056 C1055 1.372 . S
C1056 C1057 1.383 . S
C1057 C1056 1.383 . S
C1057 C1058 1.395 . S
C1058 H1022 0.930 . S
C1058 C1057 1.395 . S
C1058 C1059 1.362 . S
C1059 H1023 0.930 . S
C1059 C1054 1.390 . S
C1059 C1058 1.362 . S
C1060 C1049 1.492 . S
C1060 C1061 1.377 . S
C1060 C1065 1.397 . S
C1061 H1024 0.931 . S
C1061 C1060 1.377 . S
C1061 C1062 1.376 . S
C1062 H1025 0.930 . S
C1062 C1061 1.376 . S
C1062 C1063 1.376 . S
C1063 C1062 1.376 . S
C1063 C1064 1.378 . S
C1063 C1090 1.486 . S
C1064 H1026 0.930 . S
C1064 C1063 1.378 . S
C1064 C1065 1.376 . S
C1065 H1027 0.929 . S
C1065 C1060 1.397 . S
C1065 C1064 1.376 . S
C1066 C1050 1.509 . S
C1066 C1067 1.391 . S
C1066 C1071 1.386 . S
C1067 H1028 0.930 . S
C1067 C1066 1.391 . S
C1067 C1068 1.375 . S
C1068 H1029 0.931 . S
C1068 C1067 1.375 . S
C1068 C1069 1.375 . S
C1069 C1068 1.375 . S
C1069 C1070 1.361 . S
C1070 H1030 0.930 . S
C1070 C1069 1.361 . S
C1070 C1071 1.399 . S
C1071 H1031 0.929 . S
C1071 C1066 1.386 . S
C1071 C1070 1.399 . S
C1072 C1051 1.485 . S
C1072 C1073 1.394 . S
C1072 C1077 1.360 . S
C1073 H1032 0.931 . S
C1073 C1072 1.394 . S
C1073 C1074 1.372 . S
C1074 H1033 0.930 . S
C1074 C1073 1.372 . S
C1074 C1075 1.397 . S
C1075 C1074 1.397 . S
C1075 C1076 1.390 . S
C1075 C1091 1.476 . S
C1076 H1034 0.930 . S
C1076 C1075 1.390 . S
C1076 C1077 1.366 . S
C1077 H1035 0.932 . S
C1077 C1072 1.360 . S
C1077 C1076 1.366 . S
C1078 C1052 1.490 . S
C1078 C1079 1.380 . S
C1078 C1083 1.386 . S
C1079 H1036 0.930 . S
C1079 C1078 1.380 . S
C1079 C1080 1.381 . S
C1080 H1037 0.929 . S
C1080 C1079 1.381 . S
C1080 C1081 1.371 . S
C1081 C1080 1.371 . S
C1081 C1082 1.380 . S
C1082 H1038 0.931 . S
C1082 C1081 1.380 . S
C1082 C1083 1.387 . S
C1083 H1039 0.930 . S
C1083 C1078 1.386 . S
C1083 C1082 1.387 . S
C1084 C1053 1.519 . S
C1084 C1085 1.377 . S
C1084 C1089 1.361 . S
C1085 H1040 0.929 . S
C1085 C1084 1.377 . S
C1085 C1086 1.386 . S
C1086 H1041 0.931 . S
C1086 C1085 1.386 . S
C1086 C1087 1.363 . S
C1087 C1086 1.363 . S
C1087 C1088 1.385 . S
C1088 H1042 0.930 . S
C1088 C1087 1.385 . S
C1088 C1089 1.396 . S
C1089 H1043 0.929 . S
C1089 C1084 1.361 . S
C1089 C1088 1.396 . S
C1090 O1044 1.266 1_556 S
C1090 O1045 1.209 . S
C1090 C1063 1.486 . S
C1091 O1046 1.199 . S
C1091 O1047 1.297 . S
C1091 C1075 1.476 . S
H1092 O1118 0.856 . S
H1093 O1121 0.854 . S
H1094 C1129 0.930 . S
H1095 C1130 0.930 . S
H1096 C1132 0.930 . S
H1097 C1133 0.930 . S
H1098 C1135 0.931 . S
H1099 C1136 0.930 . S
H1100 C1138 0.930 . S
H1101 C1139 0.929 . S
H1102 C1141 0.930 . S
H1103 C1142 0.931 . S
H1104 C1144 0.930 . S
H1105 C1145 0.929 . S
H1106 C1147 0.931 . S
H1107 C1148 0.930 . S
H1108 C1150 0.930 . S
H1109 C1151 0.932 . S
H1110 C1153 0.930 . S
H1111 C1154 0.929 . S
H1112 C1156 0.931 . S
H1113 C1157 0.930 . S
H1114 C1159 0.929 . S
H1115 C1160 0.931 . S
H1116 C1162 0.930 . S
H1117 C1163 0.929 . S
O1118 H1092 0.856 . S
O1118 C1164 1.300 . S
O1119 C1164 1.209 . S
O1120 C1165 1.199 . S
O1121 H1093 0.854 . S
O1121 C1165 1.297 . S
C1122 C1123 1.404 . S
C1122 C1127 1.397 . S
C1122 C1128 1.492 . S
C1123 C1122 1.404 . S
C1123 C1124 1.396 . S
C1123 C1134 1.492 . S
C1124 C1123 1.396 . S
C1124 C1125 1.397 . S
C1124 C1140 1.509 . S
C1125 C1124 1.397 . S
C1125 C1126 1.412 . S
C1125 C1146 1.485 . S
C1126 C1125 1.412 . S
C1126 C1127 1.388 . S
C1126 C1152 1.490 . S
C1127 C1122 1.397 . S
C1127 C1126 1.388 . S
C1127 C1158 1.519 . S
C1128 C1122 1.492 . S
C1128 C1129 1.363 . S
C1128 C1133 1.390 . S
C1129 H1094 0.930 . S
C1129 C1128 1.363 . S
C1129 C1130 1.372 . S
C1130 H1095 0.930 . S
C1130 C1129 1.372 . S
C1130 C1131 1.383 . S
C1131 C1130 1.383 . S
C1131 C1132 1.395 . S
C1132 H1096 0.930 . S
C1132 C1131 1.395 . S
C1132 C1133 1.362 . S
C1133 H1097 0.930 . S
C1133 C1128 1.390 . S
C1133 C1132 1.362 . S
C1134 C1123 1.492 . S
C1134 C1135 1.377 . S
C1134 C1139 1.397 . S
C1135 H1098 0.931 . S
C1135 C1134 1.377 . S
C1135 C1136 1.376 . S
C1136 H1099 0.930 . S
C1136 C1135 1.376 . S
C1136 C1137 1.376 . S
C1137 C1136 1.376 . S
C1137 C1138 1.378 . S
C1137 C1164 1.486 . S
C1138 H1100 0.930 . S
C1138 C1137 1.378 . S
C1138 C1139 1.376 . S
C1139 H1101 0.929 . S
C1139 C1134 1.397 . S
C1139 C1138 1.376 . S
C1140 C1124 1.509 . S
C1140 C1141 1.391 . S
C1140 C1145 1.386 . S
C1141 H1102 0.930 . S
C1141 C1140 1.391 . S
C1141 C1142 1.375 . S
C1142 H1103 0.931 . S
C1142 C1141 1.375 . S
C1142 C1143 1.375 . S
C1143 C1142 1.375 . S
C1143 C1144 1.361 . S
C1144 H1104 0.930 . S
C1144 C1143 1.361 . S
C1144 C1145 1.399 . S
C1145 H1105 0.929 . S
C1145 C1140 1.386 . S
C1145 C1144 1.399 . S
C1146 C1125 1.485 . S
C1146 C1147 1.394 . S
C1146 C1151 1.360 . S
C1147 H1106 0.931 . S
C1147 C1146 1.394 . S
C1147 C1148 1.372 . S
C1148 H1107 0.930 . S
C1148 C1147 1.372 . S
C1148 C1149 1.397 . S
C1149 C1148 1.397 . S
C1149 C1150 1.390 . S
C1149 C1165 1.476 . S
C1150 H1108 0.930 . S
C1150 C1149 1.390 . S
C1150 C1151 1.366 . S
C1151 H1109 0.932 . S
C1151 C1146 1.360 . S
C1151 C1150 1.366 . S
C1152 C1126 1.490 . S
C1152 C1153 1.380 . S
C1152 C1157 1.386 . S
C1153 H1110 0.930 . S
C1153 C1152 1.380 . S
C1153 C1154 1.381 . S
C1154 H1111 0.929 . S
C1154 C1153 1.381 . S
C1154 C1155 1.371 . S
C1155 C1154 1.371 . S
C1155 C1156 1.380 . S
C1156 H1112 0.931 . S
C1156 C1155 1.380 . S
C1156 C1157 1.387 . S
C1157 H1113 0.930 . S
C1157 C1152 1.386 . S
C1157 C1156 1.387 . S
C1158 C1127 1.519 . S
C1158 C1159 1.377 . S
C1158 C1163 1.361 . S
C1159 H1114 0.929 . S
C1159 C1158 1.377 . S
C1159 C1160 1.386 . S
C1160 H1115 0.931 . S
C1160 C1159 1.386 . S
C1160 C1161 1.363 . S
C1161 C1160 1.363 . S
C1161 C1162 1.385 . S
C1162 H1116 0.930 . S
C1162 C1161 1.385 . S
C1162 C1163 1.396 . S
C1163 H1117 0.929 . S
C1163 C1158 1.361 . S
C1163 C1162 1.396 . S
C1164 O1118 1.300 . S
C1164 O1119 1.209 . S
C1164 C1137 1.486 . S
C1165 O1120 1.199 . S
C1165 O1121 1.297 . S
C1165 C1149 1.476 . S
H1166 O1192 0.856 . S
H1167 O1195 0.854 . S
H1168 C1203 0.930 . S
H1169 C1204 0.930 . S
H1170 C1206 0.930 . S
H1171 C1207 0.930 . S
H1172 C1209 0.931 . S
H1173 C1210 0.930 . S
H1174 C1212 0.930 . S
H1175 C1213 0.929 . S
H1176 C1215 0.930 . S
H1177 C1216 0.931 . S
H1178 C1218 0.930 . S
H1179 C1219 0.929 . S
H1180 C1221 0.931 . S
H1181 C1222 0.930 . S
H1182 C1224 0.930 . S
H1183 C1225 0.932 . S
H1184 C1227 0.930 . S
H1185 C1228 0.929 . S
H1186 C1230 0.931 . S
H1187 C1231 0.930 . S
H1188 C1233 0.929 . S
H1189 C1234 0.931 . S
H1190 C1236 0.930 . S
H1191 C1237 0.929 . S
O1192 H1166 0.856 . S
O1192 C1238 1.300 . S
O1193 C1238 1.209 . S
O1194 C1239 1.199 . S
O1195 H1167 0.854 . S
O1195 C1239 1.297 . S
C1196 C1197 1.404 . S
C1196 C1201 1.397 . S
C1196 C1202 1.492 . S
C1197 C1196 1.404 . S
C1197 C1198 1.396 . S
C1197 C1208 1.492 . S
C1198 C1197 1.396 . S
C1198 C1199 1.397 . S
C1198 C1214 1.509 . S
C1199 C1198 1.397 . S
C1199 C1200 1.412 . S
C1199 C1220 1.485 . S
C1200 C1199 1.412 . S
C1200 C1201 1.388 . S
C1200 C1226 1.490 . S
C1201 C1196 1.397 . S
C1201 C1200 1.388 . S
C1201 C1232 1.519 . S
C1202 C1196 1.492 . S
C1202 C1203 1.363 . S
C1202 C1207 1.390 . S
C1203 H1168 0.930 . S
C1203 C1202 1.363 . S
C1203 C1204 1.372 . S
C1204 H1169 0.930 . S
C1204 C1203 1.372 . S
C1204 C1205 1.383 . S
C1205 C1204 1.383 . S
C1205 C1206 1.395 . S
C1206 H1170 0.930 . S
C1206 C1205 1.395 . S
C1206 C1207 1.362 . S
C1207 H1171 0.930 . S
C1207 C1202 1.390 . S
C1207 C1206 1.362 . S
C1208 C1197 1.492 . S
C1208 C1209 1.377 . S
C1208 C1213 1.397 . S
C1209 H1172 0.931 . S
C1209 C1208 1.377 . S
C1209 C1210 1.376 . S
C1210 H1173 0.930 . S
C1210 C1209 1.376 . S
C1210 C1211 1.376 . S
C1211 C1210 1.376 . S
C1211 C1212 1.378 . S
C1211 C1238 1.486 . S
C1212 H1174 0.930 . S
C1212 C1211 1.378 . S
C1212 C1213 1.376 . S
C1213 H1175 0.929 . S
C1213 C1208 1.397 . S
C1213 C1212 1.376 . S
C1214 C1198 1.509 . S
C1214 C1215 1.391 . S
C1214 C1219 1.386 . S
C1215 H1176 0.930 . S
C1215 C1214 1.391 . S
C1215 C1216 1.375 . S
C1216 H1177 0.931 . S
C1216 C1215 1.375 . S
C1216 C1217 1.375 . S
C1217 C1216 1.375 . S
C1217 C1218 1.361 . S
C1218 H1178 0.930 . S
C1218 C1217 1.361 . S
C1218 C1219 1.399 . S
C1219 H1179 0.929 . S
C1219 C1214 1.386 . S
C1219 C1218 1.399 . S
C1220 C1199 1.485 . S
C1220 C1221 1.394 . S
C1220 C1225 1.360 . S
C1221 H1180 0.931 . S
C1221 C1220 1.394 . S
C1221 C1222 1.372 . S
C1222 H1181 0.930 . S
C1222 C1221 1.372 . S
C1222 C1223 1.397 . S
C1223 C1222 1.397 . S
C1223 C1224 1.390 . S
C1223 C1239 1.476 . S
C1224 H1182 0.930 . S
C1224 C1223 1.390 . S
C1224 C1225 1.366 . S
C1225 H1183 0.932 . S
C1225 C1220 1.360 . S
C1225 C1224 1.366 . S
C1226 C1200 1.490 . S
C1226 C1227 1.380 . S
C1226 C1231 1.386 . S
C1227 H1184 0.930 . S
C1227 C1226 1.380 . S
C1227 C1228 1.381 . S
C1228 H1185 0.929 . S
C1228 C1227 1.381 . S
C1228 C1229 1.371 . S
C1229 C1228 1.371 . S
C1229 C1230 1.380 . S
C1230 H1186 0.931 . S
C1230 C1229 1.380 . S
C1230 C1231 1.387 . S
C1231 H1187 0.930 . S
C1231 C1226 1.386 . S
C1231 C1230 1.387 . S
C1232 C1201 1.519 . S
C1232 C1233 1.377 . S
C1232 C1237 1.361 . S
C1233 H1188 0.929 . S
C1233 C1232 1.377 . S
C1233 C1234 1.386 . S
C1234 H1189 0.931 . S
C1234 C1233 1.386 . S
C1234 C1235 1.363 . S
C1235 C1234 1.363 . S
C1235 C1236 1.385 . S
C1236 H1190 0.930 . S
C1236 C1235 1.385 . S
C1236 C1237 1.396 . S
C1237 H1191 0.929 . S
C1237 C1232 1.361 . S
C1237 C1236 1.396 . S
C1238 O1192 1.300 . S
C1238 O1193 1.209 . S
C1238 C1211 1.486 . S
C1239 O1194 1.199 . S
C1239 O1195 1.297 . S
C1239 C1223 1.476 . S
H1240 O1266 0.856 . S
H1241 O1269 0.854 . S
H1242 C1277 0.930 . S
H1243 C1278 0.930 . S
H1244 C1280 0.930 . S
H1245 C1281 0.930 . S
H1246 C1283 0.931 . S
H1247 C1284 0.930 . S
H1248 C1286 0.930 . S
H1249 C1287 0.929 . S
H1250 C1289 0.930 . S
H1251 C1290 0.931 . S
H1252 C1292 0.930 . S
H1253 C1293 0.929 . S
H1254 C1295 0.931 . S
H1255 C1296 0.930 . S
H1256 C1298 0.930 . S
H1257 C1299 0.932 . S
H1258 C1301 0.930 . S
H1259 C1302 0.929 . S
H1260 C1304 0.931 . S
H1261 C1305 0.930 . S
H1262 C1307 0.929 . S
H1263 C1308 0.931 . S
H1264 C1310 0.930 . S
H1265 C1311 0.929 . S
O1266 H1240 0.856 . S
O1266 C1312 1.300 . S
O1267 C1312 1.209 . S
O1268 C1313 1.199 . S
O1269 H1241 0.854 . S
O1269 C1313 1.297 . S
C1270 C1271 1.404 . S
C1270 C1275 1.397 . S
C1270 C1276 1.492 . S
C1271 C1270 1.404 . S
C1271 C1272 1.396 . S
C1271 C1282 1.492 . S
C1272 C1271 1.396 . S
C1272 C1273 1.397 . S
C1272 C1288 1.509 . S
C1273 C1272 1.397 . S
C1273 C1274 1.412 . S
C1273 C1294 1.485 . S
C1274 C1273 1.412 . S
C1274 C1275 1.388 . S
C1274 C1300 1.490 . S
C1275 C1270 1.397 . S
C1275 C1274 1.388 . S
C1275 C1306 1.519 . S
C1276 C1270 1.492 . S
C1276 C1277 1.363 . S
C1276 C1281 1.390 . S
C1277 H1242 0.930 . S
C1277 C1276 1.363 . S
C1277 C1278 1.372 . S
C1278 H1243 0.930 . S
C1278 C1277 1.372 . S
C1278 C1279 1.383 . S
C1279 C1278 1.383 . S
C1279 C1280 1.395 . S
C1280 H1244 0.930 . S
C1280 C1279 1.395 . S
C1280 C1281 1.362 . S
C1281 H1245 0.930 . S
C1281 C1276 1.390 . S
C1281 C1280 1.362 . S
C1282 C1271 1.492 . S
C1282 C1283 1.377 . S
C1282 C1287 1.397 . S
C1283 H1246 0.931 . S
C1283 C1282 1.377 . S
C1283 C1284 1.376 . S
C1284 H1247 0.930 . S
C1284 C1283 1.376 . S
C1284 C1285 1.376 . S
C1285 C1284 1.376 . S
C1285 C1286 1.378 . S
C1285 C1312 1.486 . S
C1286 H1248 0.930 . S
C1286 C1285 1.378 . S
C1286 C1287 1.376 . S
C1287 H1249 0.929 . S
C1287 C1282 1.397 . S
C1287 C1286 1.376 . S
C1288 C1272 1.509 . S
C1288 C1289 1.391 . S
C1288 C1293 1.386 . S
C1289 H1250 0.930 . S
C1289 C1288 1.391 . S
C1289 C1290 1.375 . S
C1290 H1251 0.931 . S
C1290 C1289 1.375 . S
C1290 C1291 1.375 . S
C1291 C1290 1.375 . S
C1291 C1292 1.361 . S
C1292 H1252 0.930 . S
C1292 C1291 1.361 . S
C1292 C1293 1.399 . S
C1293 H1253 0.929 . S
C1293 C1288 1.386 . S
C1293 C1292 1.399 . S
C1294 C1273 1.485 . S
C1294 C1295 1.394 . S
C1294 C1299 1.360 . S
C1295 H1254 0.931 . S
C1295 C1294 1.394 . S
C1295 C1296 1.372 . S
C1296 H1255 0.930 . S
C1296 C1295 1.372 . S
C1296 C1297 1.397 . S
C1297 C1296 1.397 . S
C1297 C1298 1.390 . S
C1297 C1313 1.476 . S
C1298 H1256 0.930 . S
C1298 C1297 1.390 . S
C1298 C1299 1.366 . S
C1299 H1257 0.932 . S
C1299 C1294 1.360 . S
C1299 C1298 1.366 . S
C1300 C1274 1.490 . S
C1300 C1301 1.380 . S
C1300 C1305 1.386 . S
C1301 H1258 0.930 . S
C1301 C1300 1.380 . S
C1301 C1302 1.381 . S
C1302 H1259 0.929 . S
C1302 C1301 1.381 . S
C1302 C1303 1.371 . S
C1303 C1302 1.371 . S
C1303 C1304 1.380 . S
C1304 H1260 0.931 . S
C1304 C1303 1.380 . S
C1304 C1305 1.387 . S
C1305 H1261 0.930 . S
C1305 C1300 1.386 . S
C1305 C1304 1.387 . S
C1306 C1275 1.519 . S
C1306 C1307 1.377 . S
C1306 C1311 1.361 . S
C1307 H1262 0.929 . S
C1307 C1306 1.377 . S
C1307 C1308 1.386 . S
C1308 H1263 0.931 . S
C1308 C1307 1.386 . S
C1308 C1309 1.363 . S
C1309 C1308 1.363 . S
C1309 C1310 1.385 . S
C1310 H1264 0.930 . S
C1310 C1309 1.385 . S
C1310 C1311 1.396 . S
C1311 H1265 0.929 . S
C1311 C1306 1.361 . S
C1311 C1310 1.396 . S
C1312 O1266 1.300 . S
C1312 O1267 1.209 . S
C1312 C1285 1.486 . S
C1313 O1268 1.199 . S
C1313 O1269 1.297 . S
C1313 C1297 1.476 . S
H1314 O1340 0.856 . S
H1315 O1343 0.854 . S
H1316 C1351 0.930 . S
H1317 C1352 0.930 . S
H1318 C1354 0.930 . S
H1319 C1355 0.930 . S
H1320 C1357 0.931 . S
H1321 C1358 0.922 1_655 S
H1322 C1360 0.930 . S
H1323 C1361 0.929 . S
H1324 C1363 0.930 . S
H1325 C1364 0.937 . S
H1326 C1366 0.930 . S
H1327 C1367 0.929 . S
H1328 C1369 0.931 . S
H1329 C1370 0.930 . S
H1330 C1372 0.930 . S
H1331 C1373 0.932 . S
H1332 C1375 0.930 . S
H1333 C1376 0.929 . S
H1334 C1378 0.931 . S
H1335 C1379 0.930 . S
H1336 C1381 0.929 . S
H1337 C1382 0.931 . S
H1338 C1384 0.930 . S
H1339 C1385 0.929 . S
O1340 H1314 0.856 . S
O1340 C1386 1.300 . S
O1341 C1386 1.209 . S
O1342 C1387 1.199 1_655 S
O1343 H1315 0.854 . S
O1343 C1387 1.297 . S
C1344 C1345 1.404 . S
C1344 C1349 1.394 . S
C1344 C1350 1.492 . S
C1345 C1344 1.404 . S
C1345 C1346 1.396 . S
C1345 C1356 1.492 . S
C1346 C1345 1.396 . S
C1346 C1347 1.397 . S
C1346 C1362 1.509 . S
C1347 C1346 1.397 . S
C1347 C1348 1.421 . S
C1347 C1368 1.485 . S
C1348 C1347 1.421 . S
C1348 C1349 1.404 . S
C1348 C1374 1.491 1_455 S
C1349 C1344 1.394 . S
C1349 C1348 1.404 . S
C1349 C1380 1.498 1_455 S
C1350 C1344 1.492 . S
C1350 C1351 1.363 1_455 S
C1350 C1355 1.390 . S
C1351 H1316 0.930 . S
C1351 C1350 1.363 1_655 S
C1351 C1352 1.372 . S
C1352 H1317 0.930 . S
C1352 C1351 1.372 . S
C1352 C1353 1.383 . S
C1353 C1352 1.383 . S
C1353 C1354 1.395 1_655 S
C1354 H1318 0.930 . S
C1354 C1353 1.395 1_455 S
C1354 C1355 1.362 . S
C1355 H1319 0.930 . S
C1355 C1350 1.390 . S
C1355 C1354 1.362 . S
C1356 C1345 1.492 . S
C1356 C1357 1.377 1_455 S
C1356 C1361 1.397 . S
C1357 H1320 0.931 . S
C1357 C1356 1.377 1_655 S
C1357 C1358 1.377 1_655 S
C1358 H1321 0.922 1_455 S
C1358 C1357 1.377 1_455 S
C1358 C1359 1.383 . S
C1359 C1358 1.383 . S
C1359 C1360 1.378 . S
C1359 C1386 1.486 . S
C1360 H1322 0.930 . S
C1360 C1359 1.378 . S
C1360 C1361 1.376 . S
C1361 H1323 0.929 . S
C1361 C1356 1.397 . S
C1361 C1360 1.376 . S
C1362 C1346 1.509 . S
C1362 C1363 1.391 1_455 S
C1362 C1367 1.386 . S
C1363 H1324 0.930 . S
C1363 C1362 1.391 1_655 S
C1363 C1364 1.382 . S
C1364 H1325 0.937 . S
C1364 C1363 1.382 . S
C1364 C1365 1.362 1_655 S
C1365 C1364 1.362 1_455 S
C1365 C1366 1.361 . S
C1366 H1326 0.930 . S
C1366 C1365 1.361 . S
C1366 C1367 1.399 . S
C1367 H1327 0.929 . S
C1367 C1362 1.386 . S
C1367 C1366 1.399 . S
C1368 C1347 1.485 . S
C1368 C1369 1.394 1_455 S
C1368 C1373 1.360 . S
C1369 H1328 0.931 . S
C1369 C1368 1.394 1_655 S
C1369 C1370 1.372 . S
C1370 H1329 0.930 . S
C1370 C1369 1.372 . S
C1370 C1371 1.397 1_655 S
C1371 C1370 1.397 1_455 S
C1371 C1372 1.390 . S
C1371 C1387 1.476 . S
C1372 H1330 0.930 . S
C1372 C1371 1.390 . S
C1372 C1373 1.366 . S
C1373 H1331 0.932 . S
C1373 C1368 1.360 . S
C1373 C1372 1.366 . S
C1374 C1348 1.491 1_655 S
C1374 C1375 1.380 . S
C1374 C1379 1.386 1_655 S
C1375 H1332 0.930 . S
C1375 C1374 1.380 . S
C1375 C1376 1.381 . S
C1376 H1333 0.929 . S
C1376 C1375 1.381 . S
C1376 C1377 1.371 . S
C1377 C1376 1.371 . S
C1377 C1378 1.380 1_655 S
C1378 H1334 0.931 . S
C1378 C1377 1.380 1_455 S
C1378 C1379 1.387 . S
C1379 H1335 0.930 . S
C1379 C1374 1.386 1_455 S
C1379 C1378 1.387 . S
C1380 C1349 1.498 1_655 S
C1380 C1381 1.387 . S
C1380 C1385 1.354 1_655 S
C1381 H1336 0.929 . S
C1381 C1380 1.387 . S
C1381 C1382 1.386 . S
C1382 H1337 0.931 . S
C1382 C1381 1.386 . S
C1382 C1383 1.354 1_655 S
C1383 C1382 1.354 1_455 S
C1383 C1384 1.399 . S
C1384 H1338 0.930 . S
C1384 C1383 1.399 . S
C1384 C1385 1.396 . S
C1385 H1339 0.929 . S
C1385 C1380 1.354 1_455 S
C1385 C1384 1.396 . S
C1386 O1340 1.300 . S
C1386 O1341 1.209 . S
C1386 C1359 1.486 . S
C1387 O1342 1.199 1_455 S
C1387 O1343 1.297 . S
C1387 C1371 1.476 . S
H1388 O1414 0.856 . S
H1389 O1417 0.854 . S
H1390 C1425 0.930 . S
H1391 C1426 0.930 . S
H1392 C1428 0.930 . S
H1393 C1429 0.930 . S
H1394 C1431 0.931 . S
H1395 C1432 0.930 . S
H1396 C1434 0.930 . S
H1397 C1435 0.929 . S
H1398 C1437 0.930 . S
H1399 C1438 0.931 . S
H1400 C1440 0.930 . S
H1401 C1441 0.929 . S
H1402 C1443 0.931 . S
H1403 C1444 0.930 . S
H1404 C1446 0.930 . S
H1405 C1447 0.932 . S
H1406 C1449 0.930 . S
H1407 C1450 0.929 . S
H1408 C1452 0.931 . S
H1409 C1453 0.930 . S
H1410 C1455 0.929 . S
H1411 C1456 0.931 . S
H1412 C1458 0.930 . S
H1413 C1459 0.929 . S
O1414 H1388 0.856 . S
O1414 C1460 1.300 . S
O1415 C1460 1.209 . S
O1416 C1461 1.199 . S
O1417 H1389 0.854 . S
O1417 C1461 1.297 . S
C1418 C1419 1.404 . S
C1418 C1423 1.397 . S
C1418 C1424 1.492 . S
C1419 C1418 1.404 . S
C1419 C1420 1.396 . S
C1419 C1430 1.492 . S
C1420 C1419 1.396 . S
C1420 C1421 1.397 . S
C1420 C1436 1.509 . S
C1421 C1420 1.397 . S
C1421 C1422 1.412 . S
C1421 C1442 1.485 . S
C1422 C1421 1.412 . S
C1422 C1423 1.388 . S
C1422 C1448 1.490 . S
C1423 C1418 1.397 . S
C1423 C1422 1.388 . S
C1423 C1454 1.519 . S
C1424 C1418 1.492 . S
C1424 C1425 1.363 . S
C1424 C1429 1.390 . S
C1425 H1390 0.930 . S
C1425 C1424 1.363 . S
C1425 C1426 1.372 . S
C1426 H1391 0.930 . S
C1426 C1425 1.372 . S
C1426 C1427 1.383 . S
C1427 C1426 1.383 . S
C1427 C1428 1.395 . S
C1428 H1392 0.930 . S
C1428 C1427 1.395 . S
C1428 C1429 1.362 . S
C1429 H1393 0.930 . S
C1429 C1424 1.390 . S
C1429 C1428 1.362 . S
C1430 C1419 1.492 . S
C1430 C1431 1.377 . S
C1430 C1435 1.397 . S
C1431 H1394 0.931 . S
C1431 C1430 1.377 . S
C1431 C1432 1.376 . S
C1432 H1395 0.930 . S
C1432 C1431 1.376 . S
C1432 C1433 1.376 . S
C1433 C1432 1.376 . S
C1433 C1434 1.378 . S
C1433 C1460 1.486 . S
C1434 H1396 0.930 . S
C1434 C1433 1.378 . S
C1434 C1435 1.376 . S
C1435 H1397 0.929 . S
C1435 C1430 1.397 . S
C1435 C1434 1.376 . S
C1436 C1420 1.509 . S
C1436 C1437 1.391 . S
C1436 C1441 1.386 . S
C1437 H1398 0.930 . S
C1437 C1436 1.391 . S
C1437 C1438 1.375 . S
C1438 H1399 0.931 . S
C1438 C1437 1.375 . S
C1438 C1439 1.375 . S
C1439 C1438 1.375 . S
C1439 C1440 1.361 . S
C1440 H1400 0.930 . S
C1440 C1439 1.361 . S
C1440 C1441 1.399 . S
C1441 H1401 0.929 . S
C1441 C1436 1.386 . S
C1441 C1440 1.399 . S
C1442 C1421 1.485 . S
C1442 C1443 1.394 . S
C1442 C1447 1.360 . S
C1443 H1402 0.931 . S
C1443 C1442 1.394 . S
C1443 C1444 1.372 . S
C1444 H1403 0.930 . S
C1444 C1443 1.372 . S
C1444 C1445 1.397 . S
C1445 C1444 1.397 . S
C1445 C1446 1.390 . S
C1445 C1461 1.476 . S
C1446 H1404 0.930 . S
C1446 C1445 1.390 . S
C1446 C1447 1.366 . S
C1447 H1405 0.932 . S
C1447 C1442 1.360 . S
C1447 C1446 1.366 . S
C1448 C1422 1.490 . S
C1448 C1449 1.380 . S
C1448 C1453 1.386 . S
C1449 H1406 0.930 . S
C1449 C1448 1.380 . S
C1449 C1450 1.381 . S
C1450 H1407 0.929 . S
C1450 C1449 1.381 . S
C1450 C1451 1.371 . S
C1451 C1450 1.371 . S
C1451 C1452 1.380 . S
C1452 H1408 0.931 . S
C1452 C1451 1.380 . S
C1452 C1453 1.387 . S
C1453 H1409 0.930 . S
C1453 C1448 1.386 . S
C1453 C1452 1.387 . S
C1454 C1423 1.519 . S
C1454 C1455 1.377 . S
C1454 C1459 1.361 . S
C1455 H1410 0.929 . S
C1455 C1454 1.377 . S
C1455 C1456 1.386 . S
C1456 H1411 0.931 . S
C1456 C1455 1.386 . S
C1456 C1457 1.363 . S
C1457 C1456 1.363 . S
C1457 C1458 1.385 . S
C1458 H1412 0.930 . S
C1458 C1457 1.385 . S
C1458 C1459 1.396 . S
C1459 H1413 0.929 . S
C1459 C1454 1.361 . S
C1459 C1458 1.396 . S
C1460 O1414 1.300 . S
C1460 O1415 1.209 . S
C1460 C1433 1.486 . S
C1461 O1416 1.199 . S
C1461 O1417 1.297 . S
C1461 C1445 1.476 . S
H1462 O1488 0.856 . S
H1463 O1491 0.854 . S
H1464 C1499 0.930 . S
H1465 C1500 0.930 . S
H1466 C1502 0.930 . S
H1467 C1503 0.930 . S
H1468 C1505 0.931 . S
H1469 C1506 0.959 . S
H1470 C1508 0.930 . S
H1471 C1509 0.929 . S
H1472 C1511 0.930 . S
H1473 C1512 1.006 . S
H1474 C1514 0.930 . S
H1475 C1515 0.929 . S
H1476 C1517 0.931 . S
H1477 C1518 0.930 . S
H1478 C1520 0.930 . S
H1479 C1521 0.932 . S
H1480 C1523 0.930 . S
H1481 C1524 0.929 . S
H1482 C1526 0.931 . S
H1483 C1527 0.930 . S
H1484 C1529 0.929 . S
H1485 C1530 0.931 . S
H1486 C1532 0.930 . S
H1487 C1533 0.929 . S
O1488 H1462 0.856 . S
O1488 C1534 1.300 . S
O1489 C1534 1.209 . S
O1490 C1535 1.199 1_545 S
O1491 H1463 0.854 . S
O1491 C1535 1.297 . S
C1492 C1493 1.404 . S
C1492 C1497 1.412 . S
C1492 C1498 1.492 . S
C1493 C1492 1.404 . S
C1493 C1494 1.396 . S
C1493 C1504 1.492 . S
C1494 C1493 1.396 . S
C1494 C1495 1.397 . S
C1494 C1510 1.509 . S
C1495 C1494 1.397 . S
C1495 C1496 1.409 . S
C1495 C1516 1.485 . S
C1496 C1495 1.409 . S
C1496 C1497 1.374 . S
C1496 C1522 1.484 1_565 S
C1497 C1492 1.412 . S
C1497 C1496 1.374 . S
C1497 C1528 1.533 1_565 S
C1498 C1492 1.492 . S
C1498 C1499 1.363 1_565 S
C1498 C1503 1.390 . S
C1499 H1464 0.930 . S
C1499 C1498 1.363 1_545 S
C1499 C1500 1.372 . S
C1500 H1465 0.930 . S
C1500 C1499 1.372 . S
C1500 C1501 1.383 . S
C1501 C1500 1.383 . S
C1501 C1502 1.395 1_545 S
C1502 H1466 0.930 . S
C1502 C1501 1.395 1_565 S
C1502 C1503 1.362 . S
C1503 H1467 0.930 . S
C1503 C1498 1.390 . S
C1503 C1502 1.362 . S
C1504 C1493 1.492 . S
C1504 C1505 1.377 1_565 S
C1504 C1509 1.397 . S
C1505 H1468 0.931 . S
C1505 C1504 1.377 1_545 S
C1505 C1506 1.390 . S
C1506 H1469 0.959 . S
C1506 C1505 1.390 . S
C1506 C1507 1.334 1_545 S
C1507 C1506 1.334 1_565 S
C1507 C1508 1.378 . S
C1507 C1534 1.486 . S
C1508 H1470 0.930 . S
C1508 C1507 1.378 . S
C1508 C1509 1.376 . S
C1509 H1471 0.929 . S
C1509 C1504 1.397 . S
C1509 C1508 1.376 . S
C1510 C1494 1.509 . S
C1510 C1511 1.391 1_565 S
C1510 C1515 1.386 . S
C1511 H1472 0.930 . S
C1511 C1510 1.391 1_545 S
C1511 C1512 1.365 . S
C1512 H1473 1.006 . S
C1512 C1511 1.365 . S
C1512 C1513 1.316 1_545 S
C1513 C1512 1.316 1_565 S
C1513 C1514 1.361 . S
C1514 H1474 0.930 . S
C1514 C1513 1.361 . S
C1514 C1515 1.399 . S
C1515 H1475 0.929 . S
C1515 C1510 1.386 . S
C1515 C1514 1.399 . S
C1516 C1495 1.485 . S
C1516 C1517 1.394 1_565 S
C1516 C1521 1.360 . S
C1517 H1476 0.931 . S
C1517 C1516 1.394 1_545 S
C1517 C1518 1.372 . S
C1518 H1477 0.930 . S
C1518 C1517 1.372 . S
C1518 C1519 1.397 1_545 S
C1519 C1518 1.397 1_565 S
C1519 C1520 1.390 . S
C1519 C1535 1.476 . S
C1520 H1478 0.930 . S
C1520 C1519 1.390 . S
C1520 C1521 1.366 . S
C1521 H1479 0.932 . S
C1521 C1516 1.360 . S
C1521 C1520 1.366 . S
C1522 C1496 1.484 1_545 S
C1522 C1523 1.380 . S
C1522 C1527 1.386 1_545 S
C1523 H1480 0.930 . S
C1523 C1522 1.380 . S
C1523 C1524 1.381 . S
C1524 H1481 0.929 . S
C1524 C1523 1.381 . S
C1524 C1525 1.371 . S
C1525 C1524 1.371 . S
C1525 C1526 1.380 1_545 S
C1526 H1482 0.931 . S
C1526 C1525 1.380 1_565 S
C1526 C1527 1.387 . S
C1527 H1483 0.930 . S
C1527 C1522 1.386 1_565 S
C1527 C1526 1.387 . S
C1528 C1497 1.533 1_545 S
C1528 C1529 1.376 . S
C1528 C1533 1.363 1_545 S
C1529 H1484 0.929 . S
C1529 C1528 1.376 . S
C1529 C1530 1.386 . S
C1530 H1485 0.931 . S
C1530 C1529 1.386 . S
C1530 C1531 1.324 1_545 S
C1531 C1530 1.324 1_565 S
C1531 C1532 1.406 . S
C1532 H1486 0.930 . S
C1532 C1531 1.406 . S
C1532 C1533 1.396 . S
C1533 H1487 0.929 . S
C1533 C1528 1.363 1_565 S
C1533 C1532 1.396 . S
C1534 O1488 1.300 . S
C1534 O1489 1.209 . S
C1534 C1507 1.486 . S
C1535 O1490 1.199 1_565 S
C1535 O1491 1.297 . S
C1535 C1519 1.476 . S
H1536 O1562 0.856 . S
H1537 O1565 0.854 . S
H1538 C1573 0.930 . S
H1539 C1574 0.930 . S
H1540 C1576 0.930 . S
H1541 C1577 0.930 . S
H1542 C1579 0.931 . S
H1543 C1580 0.930 . S
H1544 C1582 0.930 . S
H1545 C1583 0.929 . S
H1546 C1585 0.930 . S
H1547 C1586 0.931 . S
H1548 C1588 0.930 . S
H1549 C1589 0.929 . S
H1550 C1591 0.931 . S
H1551 C1592 0.930 . S
H1552 C1594 0.930 . S
H1553 C1595 0.932 . S
H1554 C1597 0.930 . S
H1555 C1598 0.929 . S
H1556 C1600 0.931 . S
H1557 C1601 0.930 . S
H1558 C1603 0.929 . S
H1559 C1604 0.931 . S
H1560 C1606 0.930 . S
H1561 C1607 0.929 . S
O1562 H1536 0.856 . S
O1562 C1608 1.300 . S
O1563 C1608 1.209 1_565 S
O1564 C1609 1.199 1_545 S
O1565 H1537 0.854 . S
O1565 C1609 1.297 . S
C1566 C1567 1.380 . S
C1566 C1571 1.380 1_545 S
C1566 C1572 1.543 . S
C1567 C1566 1.380 . S
C1567 C1568 1.426 . S
C1567 C1578 1.492 . S
C1568 C1567 1.426 . S
C1568 C1569 1.384 1_545 S
C1568 C1584 1.504 . S
C1569 C1568 1.384 1_565 S
C1569 C1570 1.416 . S
C1569 C1590 1.446 . S
C1570 C1569 1.416 . S
C1570 C1571 1.375 . S
C1570 C1596 1.491 . S
C1571 C1566 1.380 1_565 S
C1571 C1570 1.375 . S
C1571 C1602 1.520 . S
C1572 C1566 1.543 . S
C1572 C1573 1.363 . S
C1572 C1577 1.390 1_545 S
C1573 H1538 0.930 . S
C1573 C1572 1.363 . S
C1573 C1574 1.372 . S
C1574 H1539 0.930 . S
C1574 C1573 1.372 . S
C1574 C1575 1.383 . S
C1575 C1574 1.383 . S
C1575 C1576 1.395 1_545 S
C1576 H1540 0.930 . S
C1576 C1575 1.395 1_565 S
C1576 C1577 1.362 . S
C1577 H1541 0.930 . S
C1577 C1572 1.390 1_565 S
C1577 C1576 1.362 . S
C1578 C1567 1.492 . S
C1578 C1579 1.377 . S
C1578 C1583 1.397 1_545 S
C1579 H1542 0.931 . S
C1579 C1578 1.377 . S
C1579 C1580 1.376 . S
C1580 H1543 0.930 . S
C1580 C1579 1.376 . S
C1580 C1581 1.376 . S
C1581 C1580 1.376 . S
C1581 C1582 1.378 1_545 S
C1581 C1608 1.486 . S
C1582 H1544 0.930 . S
C1582 C1581 1.378 1_565 S
C1582 C1583 1.376 . S
C1583 H1545 0.929 . S
C1583 C1578 1.397 1_565 S
C1583 C1582 1.376 . S
C1584 C1568 1.504 . S
C1584 C1585 1.409 . S
C1584 C1589 1.357 1_545 S
C1585 H1546 0.930 . S
C1585 C1584 1.409 . S
C1585 C1586 1.375 . S
C1586 H1547 0.931 . S
C1586 C1585 1.375 . S
C1586 C1587 1.377 . S
C1587 C1586 1.377 . S
C1587 C1588 1.360 1_545 S
C1588 H1548 0.930 . S
C1588 C1587 1.360 1_565 S
C1588 C1589 1.399 . S
C1589 H1549 0.929 . S
C1589 C1584 1.357 1_565 S
C1589 C1588 1.399 . S
C1590 C1569 1.446 . S
C1590 C1591 1.362 1_565 S
C1590 C1595 1.441 . S
C1591 H1550 0.931 . S
C1591 C1590 1.362 1_545 S
C1591 C1592 1.372 . S
C1592 H1551 0.930 . S
C1592 C1591 1.372 . S
C1592 C1593 1.397 1_545 S
C1593 C1592 1.397 1_565 S
C1593 C1594 1.390 . S
C1593 C1609 1.476 . S
C1594 H1552 0.930 . S
C1594 C1593 1.390 . S
C1594 C1595 1.366 . S
C1595 H1553 0.932 . S
C1595 C1590 1.441 . S
C1595 C1594 1.366 . S
C1596 C1570 1.491 . S
C1596 C1597 1.369 1_565 S
C1596 C1601 1.400 . S
C1597 H1554 0.930 . S
C1597 C1596 1.369 1_545 S
C1597 C1598 1.381 . S
C1598 H1555 0.929 . S
C1598 C1597 1.381 . S
C1598 C1599 1.448 . S
C1599 C1598 1.448 . S
C1599 C1600 1.316 1_545 S
C1600 H1556 0.931 . S
C1600 C1599 1.316 1_565 S
C1600 C1601 1.387 . S
C1601 H1557 0.930 . S
C1601 C1596 1.400 . S
C1601 C1600 1.387 . S
C1602 C1571 1.520 . S
C1602 C1603 1.377 1_565 S
C1602 C1607 1.361 . S
C1603 H1558 0.929 . S
C1603 C1602 1.377 1_545 S
C1603 C1604 1.386 . S
C1604 H1559 0.931 . S
C1604 C1603 1.386 . S
C1604 C1605 1.363 1_545 S
C1605 C1604 1.363 1_565 S
C1605 C1606 1.385 . S
C1606 H1560 0.930 . S
C1606 C1605 1.385 . S
C1606 C1607 1.396 . S
C1607 H1561 0.929 . S
C1607 C1602 1.361 . S
C1607 C1606 1.396 . S
C1608 O1562 1.300 . S
C1608 O1563 1.209 1_545 S
C1608 C1581 1.486 . S
C1609 O1564 1.199 1_565 S
C1609 O1565 1.297 . S
C1609 C1593 1.476 . S
H1610 O1636 0.856 . S
H1611 O1639 0.854 . S
H1612 C1647 0.930 . S
H1613 C1648 0.930 . S
H1614 C1650 0.930 . S
H1615 C1651 0.930 . S
H1616 C1653 0.931 . S
H1617 C1654 0.930 . S
H1618 C1656 0.930 . S
H1619 C1657 0.929 . S
H1620 C1659 0.930 . S
H1621 C1660 0.931 . S
H1622 C1662 0.930 . S
H1623 C1663 0.929 . S
H1624 C1665 0.931 . S
H1625 C1666 0.930 . S
H1626 C1668 0.930 . S
H1627 C1669 0.932 . S
H1628 C1671 0.930 . S
H1629 C1672 0.929 . S
H1630 C1674 0.931 . S
H1631 C1675 0.930 . S
H1632 C1677 0.929 . S
H1633 C1678 0.931 . S
H1634 C1680 0.930 . S
H1635 C1681 0.929 . S
O1636 H1610 0.856 . S
O1636 C1682 1.300 . S
O1637 C1682 1.209 1_455 S
O1638 C1683 1.199 1_655 S
O1639 H1611 0.854 . S
O1639 C1683 1.297 . S
C1640 C1641 1.404 . S
C1640 C1645 1.396 1_655 S
C1640 C1646 1.492 . S
C1641 C1640 1.404 . S
C1641 C1642 1.396 . S
C1641 C1652 1.492 . S
C1642 C1641 1.396 . S
C1642 C1643 1.398 1_655 S
C1642 C1658 1.509 . S
C1643 C1642 1.398 1_455 S
C1643 C1644 1.397 . S
C1643 C1664 1.484 . S
C1644 C1643 1.397 . S
C1644 C1645 1.416 . S
C1644 C1670 1.484 . S
C1645 C1640 1.396 1_455 S
C1645 C1644 1.416 . S
C1645 C1676 1.515 . S
C1646 C1640 1.492 . S
C1646 C1647 1.363 . S
C1646 C1651 1.390 1_655 S
C1647 H1612 0.930 . S
C1647 C1646 1.363 . S
C1647 C1648 1.372 . S
C1648 H1613 0.930 . S
C1648 C1647 1.372 . S
C1648 C1649 1.383 . S
C1649 C1648 1.383 . S
C1649 C1650 1.395 1_655 S
C1650 H1614 0.930 . S
C1650 C1649 1.395 1_455 S
C1650 C1651 1.362 . S
C1651 H1615 0.930 . S
C1651 C1646 1.390 1_455 S
C1651 C1650 1.362 . S
C1652 C1641 1.492 . S
C1652 C1653 1.377 . S
C1652 C1657 1.397 1_655 S
C1653 H1616 0.931 . S
C1653 C1652 1.377 . S
C1653 C1654 1.376 . S
C1654 H1617 0.930 . S
C1654 C1653 1.376 . S
C1654 C1655 1.376 . S
C1655 C1654 1.376 . S
C1655 C1656 1.378 1_655 S
C1655 C1682 1.486 . S
C1656 H1618 0.930 . S
C1656 C1655 1.378 1_455 S
C1656 C1657 1.376 . S
C1657 H1619 0.929 . S
C1657 C1652 1.397 1_455 S
C1657 C1656 1.376 . S
C1658 C1642 1.509 . S
C1658 C1659 1.391 . S
C1658 C1663 1.386 1_655 S
C1659 H1620 0.930 . S
C1659 C1658 1.391 . S
C1659 C1660 1.375 . S
C1660 H1621 0.931 . S
C1660 C1659 1.375 . S
C1660 C1661 1.375 . S
C1661 C1660 1.375 . S
C1661 C1662 1.361 1_655 S
C1662 H1622 0.930 . S
C1662 C1661 1.361 1_455 S
C1662 C1663 1.399 . S
C1663 H1623 0.929 . S
C1663 C1658 1.386 1_455 S
C1663 C1662 1.399 . S
C1664 C1643 1.484 . S
C1664 C1665 1.394 1_455 S
C1664 C1669 1.360 . S
C1665 H1624 0.931 . S
C1665 C1664 1.394 1_655 S
C1665 C1666 1.372 . S
C1666 H1625 0.930 . S
C1666 C1665 1.372 . S
C1666 C1667 1.397 1_655 S
C1667 C1666 1.397 1_455 S
C1667 C1668 1.390 . S
C1667 C1683 1.476 . S
C1668 H1626 0.930 . S
C1668 C1667 1.390 . S
C1668 C1669 1.366 . S
C1669 H1627 0.932 . S
C1669 C1664 1.360 . S
C1669 C1668 1.366 . S
C1670 C1644 1.484 . S
C1670 C1671 1.380 1_455 S
C1670 C1675 1.386 . S
C1671 H1628 0.930 . S
C1671 C1670 1.380 1_655 S
C1671 C1672 1.381 . S
C1672 H1629 0.929 . S
C1672 C1671 1.381 . S
C1672 C1673 1.371 1_655 S
C1673 C1672 1.371 1_455 S
C1673 C1674 1.380 . S
C1674 H1630 0.931 . S
C1674 C1673 1.380 . S
C1674 C1675 1.387 . S
C1675 H1631 0.930 . S
C1675 C1670 1.386 . S
C1675 C1674 1.387 . S
C1676 C1645 1.515 . S
C1676 C1677 1.377 1_455 S
C1676 C1681 1.361 . S
C1677 H1632 0.929 . S
C1677 C1676 1.377 1_655 S
C1677 C1678 1.386 . S
C1678 H1633 0.931 . S
C1678 C1677 1.386 . S
C1678 C1679 1.363 1_655 S
C1679 C1678 1.363 1_455 S
C1679 C1680 1.385 . S
C1680 H1634 0.930 . S
C1680 C1679 1.385 . S
C1680 C1681 1.396 . S
C1681 H1635 0.929 . S
C1681 C1676 1.361 . S
C1681 C1680 1.396 . S
C1682 O1636 1.300 . S
C1682 O1637 1.209 1_655 S
C1682 C1655 1.486 . S
C1683 O1638 1.199 1_455 S
C1683 O1639 1.297 . S
C1683 C1667 1.476 . S
H1684 O1710 0.856 . S
H1685 O1713 0.854 . S
H1686 C1721 0.930 . S
H1687 C1722 0.930 . S
H1688 C1724 0.930 . S
H1689 C1725 0.930 . S
H1690 C1727 0.931 . S
H1691 C1728 0.930 . S
H1692 C1730 0.930 . S
H1693 C1731 0.929 . S
H1694 C1733 0.930 . S
H1695 C1734 0.931 . S
H1696 C1736 0.930 . S
H1697 C1737 0.929 . S
H1698 C1739 0.931 . S
H1699 C1740 0.930 . S
H1700 C1742 0.930 . S
H1701 C1743 0.932 . S
H1702 C1745 0.930 . S
H1703 C1746 0.929 . S
H1704 C1748 0.931 . S
H1705 C1749 0.930 . S
H1706 C1751 0.929 . S
H1707 C1752 0.931 . S
H1708 C1754 0.930 . S
H1709 C1755 0.929 . S
O1710 H1684 0.856 . S
O1710 C1756 1.300 . S
O1711 C1756 1.209 . S
O1712 C1757 1.199 . S
O1713 H1685 0.854 . S
O1713 C1757 1.297 . S
C1714 C1715 1.404 . S
C1714 C1719 1.397 . S
C1714 C1720 1.492 . S
C1715 C1714 1.404 . S
C1715 C1716 1.396 . S
C1715 C1726 1.492 . S
C1716 C1715 1.396 . S
C1716 C1717 1.397 . S
C1716 C1732 1.509 . S
C1717 C1716 1.397 . S
C1717 C1718 1.412 . S
C1717 C1738 1.485 . S
C1718 C1717 1.412 . S
C1718 C1719 1.388 . S
C1718 C1744 1.490 . S
C1719 C1714 1.397 . S
C1719 C1718 1.388 . S
C1719 C1750 1.519 . S
C1720 C1714 1.492 . S
C1720 C1721 1.363 . S
C1720 C1725 1.390 . S
C1721 H1686 0.930 . S
C1721 C1720 1.363 . S
C1721 C1722 1.372 . S
C1722 H1687 0.930 . S
C1722 C1721 1.372 . S
C1722 C1723 1.383 . S
C1723 C1722 1.383 . S
C1723 C1724 1.395 . S
C1724 H1688 0.930 . S
C1724 C1723 1.395 . S
C1724 C1725 1.362 . S
C1725 H1689 0.930 . S
C1725 C1720 1.390 . S
C1725 C1724 1.362 . S
C1726 C1715 1.492 . S
C1726 C1727 1.377 . S
C1726 C1731 1.397 . S
C1727 H1690 0.931 . S
C1727 C1726 1.377 . S
C1727 C1728 1.376 . S
C1728 H1691 0.930 . S
C1728 C1727 1.376 . S
C1728 C1729 1.376 . S
C1729 C1728 1.376 . S
C1729 C1730 1.378 . S
C1729 C1756 1.486 . S
C1730 H1692 0.930 . S
C1730 C1729 1.378 . S
C1730 C1731 1.376 . S
C1731 H1693 0.929 . S
C1731 C1726 1.397 . S
C1731 C1730 1.376 . S
C1732 C1716 1.509 . S
C1732 C1733 1.391 . S
C1732 C1737 1.386 . S
C1733 H1694 0.930 . S
C1733 C1732 1.391 . S
C1733 C1734 1.375 . S
C1734 H1695 0.931 . S
C1734 C1733 1.375 . S
C1734 C1735 1.375 . S
C1735 C1734 1.375 . S
C1735 C1736 1.361 . S
C1736 H1696 0.930 . S
C1736 C1735 1.361 . S
C1736 C1737 1.399 . S
C1737 H1697 0.929 . S
C1737 C1732 1.386 . S
C1737 C1736 1.399 . S
C1738 C1717 1.485 . S
C1738 C1739 1.394 . S
C1738 C1743 1.360 . S
C1739 H1698 0.931 . S
C1739 C1738 1.394 . S
C1739 C1740 1.372 . S
C1740 H1699 0.930 . S
C1740 C1739 1.372 . S
C1740 C1741 1.397 . S
C1741 C1740 1.397 . S
C1741 C1742 1.390 . S
C1741 C1757 1.476 . S
C1742 H1700 0.930 . S
C1742 C1741 1.390 . S
C1742 C1743 1.366 . S
C1743 H1701 0.932 . S
C1743 C1738 1.360 . S
C1743 C1742 1.366 . S
C1744 C1718 1.490 . S
C1744 C1745 1.380 . S
C1744 C1749 1.386 . S
C1745 H1702 0.930 . S
C1745 C1744 1.380 . S
C1745 C1746 1.381 . S
C1746 H1703 0.929 . S
C1746 C1745 1.381 . S
C1746 C1747 1.371 . S
C1747 C1746 1.371 . S
C1747 C1748 1.380 . S
C1748 H1704 0.931 . S
C1748 C1747 1.380 . S
C1748 C1749 1.387 . S
C1749 H1705 0.930 . S
C1749 C1744 1.386 . S
C1749 C1748 1.387 . S
C1750 C1719 1.519 . S
C1750 C1751 1.377 . S
C1750 C1755 1.361 . S
C1751 H1706 0.929 . S
C1751 C1750 1.377 . S
C1751 C1752 1.386 . S
C1752 H1707 0.931 . S
C1752 C1751 1.386 . S
C1752 C1753 1.363 . S
C1753 C1752 1.363 . S
C1753 C1754 1.385 . S
C1754 H1708 0.930 . S
C1754 C1753 1.385 . S
C1754 C1755 1.396 . S
C1755 H1709 0.929 . S
C1755 C1750 1.361 . S
C1755 C1754 1.396 . S
C1756 O1710 1.300 . S
C1756 O1711 1.209 . S
C1756 C1729 1.486 . S
C1757 O1712 1.199 . S
C1757 O1713 1.297 . S
C1757 C1741 1.476 . S
H1758 O1784 0.856 . S
H1759 O1787 0.854 . S
H1760 C1795 0.930 . S
H1761 C1796 0.930 . S
H1762 C1798 0.930 . S
H1763 C1799 0.930 . S
H1764 C1801 0.931 . S
H1765 C1802 0.930 . S
H1766 C1804 0.930 . S
H1767 C1805 0.929 . S
H1768 C1807 0.930 . S
H1769 C1808 0.931 . S
H1770 C1810 0.930 . S
H1771 C1811 0.929 . S
H1772 C1813 0.931 . S
H1773 C1814 0.930 . S
H1774 C1816 0.930 . S
H1775 C1817 0.932 . S
H1776 C1819 0.930 . S
H1777 C1820 0.929 . S
H1778 C1822 0.931 . S
H1779 C1823 0.930 . S
H1780 C1825 0.929 . S
H1781 C1826 0.931 . S
H1782 C1828 0.930 . S
H1783 C1829 0.929 . S
O1784 H1758 0.856 . S
O1784 C1830 1.300 . S
O1785 C1830 1.209 . S
O1786 C1831 1.199 . S
O1787 H1759 0.854 . S
O1787 C1831 1.297 . S
C1788 C1789 1.404 . S
C1788 C1793 1.397 . S
C1788 C1794 1.492 . S
C1789 C1788 1.404 . S
C1789 C1790 1.396 . S
C1789 C1800 1.492 . S
C1790 C1789 1.396 . S
C1790 C1791 1.397 . S
C1790 C1806 1.509 . S
C1791 C1790 1.397 . S
C1791 C1792 1.412 . S
C1791 C1812 1.485 . S
C1792 C1791 1.412 . S
C1792 C1793 1.388 . S
C1792 C1818 1.490 . S
C1793 C1788 1.397 . S
C1793 C1792 1.388 . S
C1793 C1824 1.519 . S
C1794 C1788 1.492 . S
C1794 C1795 1.363 . S
C1794 C1799 1.390 . S
C1795 H1760 0.930 . S
C1795 C1794 1.363 . S
C1795 C1796 1.372 . S
C1796 H1761 0.930 . S
C1796 C1795 1.372 . S
C1796 C1797 1.383 . S
C1797 C1796 1.383 . S
C1797 C1798 1.395 . S
C1798 H1762 0.930 . S
C1798 C1797 1.395 . S
C1798 C1799 1.362 . S
C1799 H1763 0.930 . S
C1799 C1794 1.390 . S
C1799 C1798 1.362 . S
C1800 C1789 1.492 . S
C1800 C1801 1.377 . S
C1800 C1805 1.397 . S
C1801 H1764 0.931 . S
C1801 C1800 1.377 . S
C1801 C1802 1.376 . S
C1802 H1765 0.930 . S
C1802 C1801 1.376 . S
C1802 C1803 1.376 . S
C1803 C1802 1.376 . S
C1803 C1804 1.378 . S
C1803 C1830 1.486 . S
C1804 H1766 0.930 . S
C1804 C1803 1.378 . S
C1804 C1805 1.376 . S
C1805 H1767 0.929 . S
C1805 C1800 1.397 . S
C1805 C1804 1.376 . S
C1806 C1790 1.509 . S
C1806 C1807 1.391 . S
C1806 C1811 1.386 . S
C1807 H1768 0.930 . S
C1807 C1806 1.391 . S
C1807 C1808 1.375 . S
C1808 H1769 0.931 . S
C1808 C1807 1.375 . S
C1808 C1809 1.375 . S
C1809 C1808 1.375 . S
C1809 C1810 1.361 . S
C1810 H1770 0.930 . S
C1810 C1809 1.361 . S
C1810 C1811 1.399 . S
C1811 H1771 0.929 . S
C1811 C1806 1.386 . S
C1811 C1810 1.399 . S
C1812 C1791 1.485 . S
C1812 C1813 1.394 . S
C1812 C1817 1.360 . S
C1813 H1772 0.931 . S
C1813 C1812 1.394 . S
C1813 C1814 1.372 . S
C1814 H1773 0.930 . S
C1814 C1813 1.372 . S
C1814 C1815 1.397 . S
C1815 C1814 1.397 . S
C1815 C1816 1.390 . S
C1815 C1831 1.476 . S
C1816 H1774 0.930 . S
C1816 C1815 1.390 . S
C1816 C1817 1.366 . S
C1817 H1775 0.932 . S
C1817 C1812 1.360 . S
C1817 C1816 1.366 . S
C1818 C1792 1.490 . S
C1818 C1819 1.380 . S
C1818 C1823 1.386 . S
C1819 H1776 0.930 . S
C1819 C1818 1.380 . S
C1819 C1820 1.381 . S
C1820 H1777 0.929 . S
C1820 C1819 1.381 . S
C1820 C1821 1.371 . S
C1821 C1820 1.371 . S
C1821 C1822 1.380 . S
C1822 H1778 0.931 . S
C1822 C1821 1.380 . S
C1822 C1823 1.387 . S
C1823 H1779 0.930 . S
C1823 C1818 1.386 . S
C1823 C1822 1.387 . S
C1824 C1793 1.519 . S
C1824 C1825 1.377 . S
C1824 C1829 1.361 . S
C1825 H1780 0.929 . S
C1825 C1824 1.377 . S
C1825 C1826 1.386 . S
C1826 H1781 0.931 . S
C1826 C1825 1.386 . S
C1826 C1827 1.363 . S
C1827 C1826 1.363 . S
C1827 C1828 1.385 . S
C1828 H1782 0.930 . S
C1828 C1827 1.385 . S
C1828 C1829 1.396 . S
C1829 H1783 0.929 . S
C1829 C1824 1.361 . S
C1829 C1828 1.396 . S
C1830 O1784 1.300 . S
C1830 O1785 1.209 . S
C1830 C1803 1.486 . S
C1831 O1786 1.199 . S
C1831 O1787 1.297 . S
C1831 C1815 1.476 . S
H1832 O1858 0.856 . S
H1833 O1861 0.854 . S
H1834 C1869 0.930 . S
H1835 C1870 0.930 . S
H1836 C1872 0.930 . S
H1837 C1873 0.930 . S
H1838 C1875 0.931 . S
H1839 C1876 0.930 . S
H1840 C1878 0.930 . S
H1841 C1879 0.929 . S
H1842 C1881 0.930 . S
H1843 C1882 0.931 . S
H1844 C1884 0.930 . S
H1845 C1885 0.929 . S
H1846 C1887 0.931 . S
H1847 C1888 0.930 . S
H1848 C1890 0.930 . S
H1849 C1891 0.932 . S
H1850 C1893 0.930 . S
H1851 C1894 0.929 . S
H1852 C1896 0.931 . S
H1853 C1897 0.930 . S
H1854 C1899 0.929 . S
H1855 C1900 0.931 . S
H1856 C1902 0.930 . S
H1857 C1903 0.929 . S
O1858 H1832 0.856 . S
O1858 C1904 1.300 . S
O1859 C1904 1.209 . S
O1860 C1905 1.199 . S
O1861 H1833 0.854 . S
O1861 C1905 1.297 . S
C1862 C1863 1.404 . S
C1862 C1867 1.397 . S
C1862 C1868 1.492 . S
C1863 C1862 1.404 . S
C1863 C1864 1.396 . S
C1863 C1874 1.492 . S
C1864 C1863 1.396 . S
C1864 C1865 1.397 . S
C1864 C1880 1.509 . S
C1865 C1864 1.397 . S
C1865 C1866 1.412 . S
C1865 C1886 1.485 . S
C1866 C1865 1.412 . S
C1866 C1867 1.388 . S
C1866 C1892 1.490 . S
C1867 C1862 1.397 . S
C1867 C1866 1.388 . S
C1867 C1898 1.519 . S
C1868 C1862 1.492 . S
C1868 C1869 1.363 . S
C1868 C1873 1.390 . S
C1869 H1834 0.930 . S
C1869 C1868 1.363 . S
C1869 C1870 1.372 . S
C1870 H1835 0.930 . S
C1870 C1869 1.372 . S
C1870 C1871 1.383 . S
C1871 C1870 1.383 . S
C1871 C1872 1.395 . S
C1872 H1836 0.930 . S
C1872 C1871 1.395 . S
C1872 C1873 1.362 . S
C1873 H1837 0.930 . S
C1873 C1868 1.390 . S
C1873 C1872 1.362 . S
C1874 C1863 1.492 . S
C1874 C1875 1.377 . S
C1874 C1879 1.397 . S
C1875 H1838 0.931 . S
C1875 C1874 1.377 . S
C1875 C1876 1.376 . S
C1876 H1839 0.930 . S
C1876 C1875 1.376 . S
C1876 C1877 1.376 . S
C1877 C1876 1.376 . S
C1877 C1878 1.378 . S
C1877 C1904 1.486 . S
C1878 H1840 0.930 . S
C1878 C1877 1.378 . S
C1878 C1879 1.376 . S
C1879 H1841 0.929 . S
C1879 C1874 1.397 . S
C1879 C1878 1.376 . S
C1880 C1864 1.509 . S
C1880 C1881 1.391 . S
C1880 C1885 1.386 . S
C1881 H1842 0.930 . S
C1881 C1880 1.391 . S
C1881 C1882 1.375 . S
C1882 H1843 0.931 . S
C1882 C1881 1.375 . S
C1882 C1883 1.375 . S
C1883 C1882 1.375 . S
C1883 C1884 1.361 . S
C1884 H1844 0.930 . S
C1884 C1883 1.361 . S
C1884 C1885 1.399 . S
C1885 H1845 0.929 . S
C1885 C1880 1.386 . S
C1885 C1884 1.399 . S
C1886 C1865 1.485 . S
C1886 C1887 1.394 . S
C1886 C1891 1.360 . S
C1887 H1846 0.931 . S
C1887 C1886 1.394 . S
C1887 C1888 1.372 . S
C1888 H1847 0.930 . S
C1888 C1887 1.372 . S
C1888 C1889 1.397 . S
C1889 C1888 1.397 . S
C1889 C1890 1.390 . S
C1889 C1905 1.476 . S
C1890 H1848 0.930 . S
C1890 C1889 1.390 . S
C1890 C1891 1.366 . S
C1891 H1849 0.932 . S
C1891 C1886 1.360 . S
C1891 C1890 1.366 . S
C1892 C1866 1.490 . S
C1892 C1893 1.380 . S
C1892 C1897 1.386 . S
C1893 H1850 0.930 . S
C1893 C1892 1.380 . S
C1893 C1894 1.381 . S
C1894 H1851 0.929 . S
C1894 C1893 1.381 . S
C1894 C1895 1.371 . S
C1895 C1894 1.371 . S
C1895 C1896 1.380 . S
C1896 H1852 0.931 . S
C1896 C1895 1.380 . S
C1896 C1897 1.387 . S
C1897 H1853 0.930 . S
C1897 C1892 1.386 . S
C1897 C1896 1.387 . S
C1898 C1867 1.519 . S
C1898 C1899 1.377 . S
C1898 C1903 1.361 . S
C1899 H1854 0.929 . S
C1899 C1898 1.377 . S
C1899 C1900 1.386 . S
C1900 H1855 0.931 . S
C1900 C1899 1.386 . S
C1900 C1901 1.363 . S
C1901 C1900 1.363 . S
C1901 C1902 1.385 . S
C1902 H1856 0.930 . S
C1902 C1901 1.385 . S
C1902 C1903 1.396 . S
C1903 H1857 0.929 . S
C1903 C1898 1.361 . S
C1903 C1902 1.396 . S
C1904 O1858 1.300 . S
C1904 O1859 1.209 . S
C1904 C1877 1.486 . S
C1905 O1860 1.199 . S
C1905 O1861 1.297 . S
C1905 C1889 1.476 . S
H1906 O1932 0.856 . S
H1907 O1935 0.854 . S
H1908 C1943 0.930 . S
H1909 C1944 0.930 . S
H1910 C1946 0.930 . S
H1911 C1947 0.930 . S
H1912 C1949 0.931 . S
H1913 C1950 0.930 . S
H1914 C1952 0.930 . S
H1915 C1953 0.929 . S
H1916 C1955 0.930 . S
H1917 C1956 0.931 . S
H1918 C1958 0.930 . S
H1919 C1959 0.929 . S
H1920 C1961 0.931 . S
H1921 C1962 0.930 . S
H1922 C1964 0.930 . S
H1923 C1965 0.932 . S
H1924 C1967 0.930 . S
H1925 C1968 0.929 . S
H1926 C1970 0.931 . S
H1927 C1971 0.930 . S
H1928 C1973 0.929 . S
H1929 C1974 0.931 . S
H1930 C1976 0.930 . S
H1931 C1977 0.929 . S
O1932 H1906 0.856 . S
O1932 C1978 1.300 . S
O1933 C1978 1.209 . S
O1934 C1979 1.199 . S
O1935 H1907 0.854 . S
O1935 C1979 1.297 . S
C1936 C1937 1.404 . S
C1936 C1941 1.397 . S
C1936 C1942 1.492 . S
C1937 C1936 1.404 . S
C1937 C1938 1.396 . S
C1937 C1948 1.492 . S
C1938 C1937 1.396 . S
C1938 C1939 1.397 . S
C1938 C1954 1.509 . S
C1939 C1938 1.397 . S
C1939 C1940 1.412 . S
C1939 C1960 1.485 . S
C1940 C1939 1.412 . S
C1940 C1941 1.388 . S
C1940 C1966 1.490 . S
C1941 C1936 1.397 . S
C1941 C1940 1.388 . S
C1941 C1972 1.519 . S
C1942 C1936 1.492 . S
C1942 C1943 1.363 . S
C1942 C1947 1.390 . S
C1943 H1908 0.930 . S
C1943 C1942 1.363 . S
C1943 C1944 1.372 . S
C1944 H1909 0.930 . S
C1944 C1943 1.372 . S
C1944 C1945 1.383 . S
C1945 C1944 1.383 . S
C1945 C1946 1.395 . S
C1946 H1910 0.930 . S
C1946 C1945 1.395 . S
C1946 C1947 1.362 . S
C1947 H1911 0.930 . S
C1947 C1942 1.390 . S
C1947 C1946 1.362 . S
C1948 C1937 1.492 . S
C1948 C1949 1.377 . S
C1948 C1953 1.397 . S
C1949 H1912 0.931 . S
C1949 C1948 1.377 . S
C1949 C1950 1.376 . S
C1950 H1913 0.930 . S
C1950 C1949 1.376 . S
C1950 C1951 1.376 . S
C1951 C1950 1.376 . S
C1951 C1952 1.378 . S
C1951 C1978 1.486 . S
C1952 H1914 0.930 . S
C1952 C1951 1.378 . S
C1952 C1953 1.376 . S
C1953 H1915 0.929 . S
C1953 C1948 1.397 . S
C1953 C1952 1.376 . S
C1954 C1938 1.509 . S
C1954 C1955 1.391 . S
C1954 C1959 1.386 . S
C1955 H1916 0.930 . S
C1955 C1954 1.391 . S
C1955 C1956 1.375 . S
C1956 H1917 0.931 . S
C1956 C1955 1.375 . S
C1956 C1957 1.375 . S
C1957 C1956 1.375 . S
C1957 C1958 1.361 . S
C1958 H1918 0.930 . S
C1958 C1957 1.361 . S
C1958 C1959 1.399 . S
C1959 H1919 0.929 . S
C1959 C1954 1.386 . S
C1959 C1958 1.399 . S
C1960 C1939 1.485 . S
C1960 C1961 1.394 . S
C1960 C1965 1.360 . S
C1961 H1920 0.931 . S
C1961 C1960 1.394 . S
C1961 C1962 1.372 . S
C1962 H1921 0.930 . S
C1962 C1961 1.372 . S
C1962 C1963 1.397 . S
C1963 C1962 1.397 . S
C1963 C1964 1.390 . S
C1963 C1979 1.476 . S
C1964 H1922 0.930 . S
C1964 C1963 1.390 . S
C1964 C1965 1.366 . S
C1965 H1923 0.932 . S
C1965 C1960 1.360 . S
C1965 C1964 1.366 . S
C1966 C1940 1.490 . S
C1966 C1967 1.380 . S
C1966 C1971 1.386 . S
C1967 H1924 0.930 . S
C1967 C1966 1.380 . S
C1967 C1968 1.381 . S
C1968 H1925 0.929 . S
C1968 C1967 1.381 . S
C1968 C1969 1.371 . S
C1969 C1968 1.371 . S
C1969 C1970 1.380 . S
C1970 H1926 0.931 . S
C1970 C1969 1.380 . S
C1970 C1971 1.387 . S
C1971 H1927 0.930 . S
C1971 C1966 1.386 . S
C1971 C1970 1.387 . S
C1972 C1941 1.519 . S
C1972 C1973 1.377 . S
C1972 C1977 1.361 . S
C1973 H1928 0.929 . S
C1973 C1972 1.377 . S
C1973 C1974 1.386 . S
C1974 H1929 0.931 . S
C1974 C1973 1.386 . S
C1974 C1975 1.363 . S
C1975 C1974 1.363 . S
C1975 C1976 1.385 . S
C1976 H1930 0.930 . S
C1976 C1975 1.385 . S
C1976 C1977 1.396 . S
C1977 H1931 0.929 . S
C1977 C1972 1.361 . S
C1977 C1976 1.396 . S
C1978 O1932 1.300 . S
C1978 O1933 1.209 . S
C1978 C1951 1.486 . S
C1979 O1934 1.199 . S
C1979 O1935 1.297 . S
C1979 C1963 1.476 . S
C1980 C1981 1.425 . S
C1980 C1982 1.327 . S
C1980 H2005 0.950 . S
C1981 C1980 1.425 . S
C1981 C1997 1.318 1_655 S
C1982 C1980 1.327 . S
C1982 C2001 1.429 . S
C1982 H2006 0.950 . S
C1983 C2000 1.511 1_455 S
C1983 C2002 1.331 1_455 S
C1983 H2007 1.022 . S
H1984 C1988 0.949 . S
C1985 C1986 1.349 . S
C1985 C1987 1.327 . S
C1985 H2008 0.950 . S
C1986 C1985 1.349 . S
C1986 C1998 1.349 . S
C1987 C1985 1.327 . S
C1987 C2003 1.429 . S
C1987 H2009 0.950 1_655 S
C1988 H1984 0.949 . S
C1988 C1996 1.574 . S
C1988 C2004 1.368 . S
H1989 C1997 0.950 . S
H1990 C1995 0.950 . S
H1991 C1996 0.949 . S
H1992 C1998 0.950 . S
H1993 C1999 0.950 . S
H1994 C2000 0.931 1_455 S
C1995 H1990 0.950 . S
C1995 C1997 1.327 . S
C1995 C2001 1.429 1_455 S
C1996 C1988 1.574 . S
C1996 H1991 0.949 . S
C1996 C2002 1.368 . S
C1997 C1981 1.318 1_455 S
C1997 H1989 0.950 . S
C1997 C1995 1.327 . S
C1998 C1986 1.349 . S
C1998 H1992 0.950 . S
C1998 C1999 1.327 . S
C1999 H1993 0.950 . S
C1999 C1998 1.327 . S
C1999 C2003 1.429 . S
C2000 C1983 1.511 1_655 S
C2000 H1994 0.931 1_655 S
C2000 C2004 1.420 . S
C2001 C1982 1.429 . S
C2001 C1995 1.429 1_655 S
C2001 C2002 1.523 . S
C2002 C1983 1.331 1_655 S
C2002 C1996 1.368 . S
C2002 C2001 1.523 . S
C2003 C1987 1.429 . S
C2003 C1999 1.429 . S
C2003 C2004 1.523 . S
C2004 C1988 1.368 . S
C2004 C2000 1.420 . S
C2004 C2003 1.523 . S
H2005 C1980 0.950 . S
H2006 C1982 0.950 . S
H2007 C1983 1.022 . S
H2008 C1985 0.950 . S
H2009 C1987 0.950 1_455 S
C2010 C2011 1.349 . S
C2010 C2012 1.327 . S
C2010 H2035 0.950 . S
C2011 C2010 1.349 . S
C2011 C2027 1.349 . S
C2012 C2010 1.327 . S
C2012 C2031 1.429 . S
C2012 H2036 0.950 . S
C2013 C2030 1.574 . S
C2013 C2032 1.368 . S
C2013 H2037 0.949 . S
H2014 C2018 0.949 . S
C2015 C2016 1.349 . S
C2015 C2017 1.327 . S
C2015 H2038 0.950 . S
C2016 C2015 1.349 . S
C2016 C2028 1.349 . S
C2017 C2015 1.327 . S
C2017 C2033 1.429 . S
C2017 H2039 0.950 . S
C2018 H2014 0.949 . S
C2018 C2026 1.574 . S
C2018 C2034 1.368 . S
H2019 C2027 0.950 . S
H2020 C2025 0.950 . S
H2021 C2026 0.949 . S
H2022 C2028 0.950 . S
H2023 C2029 0.950 . S
H2024 C2030 0.949 . S
C2025 H2020 0.950 . S
C2025 C2027 1.327 . S
C2025 C2031 1.429 . S
C2026 C2018 1.574 . S
C2026 H2021 0.949 . S
C2026 C2032 1.368 . S
C2027 C2011 1.349 . S
C2027 H2019 0.950 . S
C2027 C2025 1.327 . S
C2028 C2016 1.349 . S
C2028 H2022 0.950 . S
C2028 C2029 1.327 . S
C2029 H2023 0.950 . S
C2029 C2028 1.327 . S
C2029 C2033 1.429 . S
C2030 C2013 1.574 . S
C2030 H2024 0.949 . S
C2030 C2034 1.368 . S
C2031 C2012 1.429 . S
C2031 C2025 1.429 . S
C2031 C2032 1.523 . S
C2032 C2013 1.368 . S
C2032 C2026 1.368 . S
C2032 C2031 1.523 . S
C2033 C2017 1.429 . S
C2033 C2029 1.429 . S
C2033 C2034 1.523 . S
C2034 C2018 1.368 . S
C2034 C2030 1.368 . S
C2034 C2033 1.523 . S
H2035 C2010 0.950 . S
H2036 C2012 0.950 . S
H2037 C2013 0.949 . S
H2038 C2015 0.950 . S
H2039 C2017 0.950 . S
C2040 C2041 1.349 1_565 S
C2040 C2042 1.327 . S
C2040 H2065 0.950 . S
C2041 C2040 1.349 1_545 S
C2041 C2057 1.349 . S
C2042 C2040 1.327 . S
C2042 C2061 1.429 1_565 S
C2042 H2066 0.950 . S
C2043 C2060 1.574 . S
C2043 C2062 1.368 . S
C2043 H2067 0.949 . S
H2044 C2048 0.949 . S
C2045 C2046 1.349 . S
C2045 C2047 1.327 . S
C2045 H2068 0.950 . S
C2046 C2045 1.349 . S
C2046 C2058 1.409 . S
C2047 C2045 1.327 . S
C2047 C2063 1.429 . S
C2047 H2069 0.950 . S
C2048 H2044 0.949 . S
C2048 C2056 1.574 . S
C2048 C2064 1.368 1_565 S
H2049 C2057 0.950 . S
H2050 C2055 0.950 . S
H2051 C2056 0.949 . S
H2052 C2058 0.865 1_565 S
H2053 C2059 0.951 1_565 S
H2054 C2060 0.949 . S
C2055 H2050 0.950 . S
C2055 C2057 1.327 . S
C2055 C2061 1.429 . S
C2056 C2048 1.574 . S
C2056 H2051 0.949 . S
C2056 C2062 1.368 1_565 S
C2057 C2041 1.349 . S
C2057 H2049 0.950 . S
C2057 C2055 1.327 . S
C2058 C2046 1.409 . S
C2058 H2052 0.865 1_545 S
C2058 C2059 1.355 . S
C2059 H2053 0.951 1_545 S
C2059 C2058 1.355 . S
C2059 C2063 1.426 . S
C2060 C2043 1.574 . S
C2060 H2054 0.949 . S
C2060 C2064 1.368 . S
C2061 C2042 1.429 1_545 S
C2061 C2055 1.429 . S
C2061 C2062 1.523 . S
C2062 C2043 1.368 . S
C2062 C2056 1.368 1_545 S
C2062 C2061 1.523 . S
C2063 C2047 1.429 . S
C2063 C2059 1.426 . S
C2063 C2064 1.523 . S
C2064 C2048 1.368 1_545 S
C2064 C2060 1.368 . S
C2064 C2063 1.523 . S
H2065 C2040 0.950 . S
H2066 C2042 0.950 . S
H2067 C2043 0.949 . S
H2068 C2045 0.950 . S
H2069 C2047 0.950 . S
C2070 C2071 1.304 1_545 S
C2070 C2072 1.326 . S
C2070 H2095 1.018 . S
C2071 C2070 1.304 1_565 S
C2071 C2087 1.349 . S
C2072 C2070 1.326 . S
C2072 C2091 1.364 1_545 S
C2072 H2096 0.998 . S
C2073 C2090 1.574 . S
C2073 C2092 1.368 . S
C2073 H2097 0.949 . S
H2074 C2078 0.971 . S
C2075 C2076 1.349 . S
C2075 C2077 1.327 . S
C2075 H2098 0.950 . S
C2076 C2075 1.349 . S
C2076 C2088 1.425 . S
C2077 C2075 1.327 . S
C2077 C2093 1.429 . S
C2077 H2099 0.950 . S
C2078 H2074 0.971 . S
C2078 C2086 1.566 . S
C2078 C2094 1.334 1_545 S
H2079 C2087 0.950 . S
H2080 C2085 0.950 . S
H2081 C2086 1.008 . S
H2082 C2088 0.901 1_545 S
H2083 C2089 0.915 1_545 S
H2084 C2090 0.949 . S
C2085 H2080 0.950 . S
C2085 C2087 1.327 . S
C2085 C2091 1.429 . S
C2086 C2078 1.566 . S
C2086 H2081 1.008 . S
C2086 C2092 1.323 1_545 S
C2087 C2071 1.349 . S
C2087 H2079 0.950 . S
C2087 C2085 1.327 . S
C2088 C2076 1.425 . S
C2088 H2082 0.901 1_565 S
C2088 C2089 1.314 . S
C2089 H2083 0.915 1_565 S
C2089 C2088 1.314 . S
C2089 C2093 1.451 . S
C2090 C2073 1.574 . S
C2090 H2084 0.949 . S
C2090 C2094 1.368 . S
C2091 C2072 1.364 1_565 S
C2091 C2085 1.429 . S
C2091 C2092 1.523 . S
C2092 C2073 1.368 . S
C2092 C2086 1.323 1_565 S
C2092 C2091 1.523 . S
C2093 C2077 1.429 . S
C2093 C2089 1.451 . S
C2093 C2094 1.523 . S
C2094 C2078 1.334 1_565 S
C2094 C2090 1.368 . S
C2094 C2093 1.523 . S
H2095 C2070 1.018 . S
H2096 C2072 0.998 . S
H2097 C2073 0.949 . S
H2098 C2075 0.950 . S
H2099 C2077 0.950 . S
C2100 C2101 1.349 . S
C2100 C2102 1.327 . S
C2100 H2125 0.950 1_455 S
C2101 C2100 1.349 . S
C2101 C2117 1.349 . S
C2102 C2100 1.327 . S
C2102 C2121 1.429 . S
C2102 H2126 0.950 1_455 S
C2103 C2120 1.574 . S
C2103 C2122 1.368 . S
C2103 H2127 0.949 . S
H2104 C2108 0.949 1_655 S
C2105 C2106 1.349 . S
C2105 C2107 1.327 . S
C2105 H2128 0.950 . S
C2106 C2105 1.349 . S
C2106 C2118 1.349 . S
C2107 C2105 1.327 . S
C2107 C2123 1.429 . S
C2107 H2129 0.950 . S
C2108 H2104 0.949 1_455 S
C2108 C2116 1.574 . S
C2108 C2124 1.368 . S
H2109 C2117 0.890 1_554 S
H2110 C2115 0.950 . S
H2111 C2116 0.949 1_655 S
H2112 C2118 0.950 1_655 S
H2113 C2119 0.950 1_655 S
H2114 C2120 0.949 . S
C2115 H2110 0.950 . S
C2115 C2117 1.327 . S
C2115 C2121 1.429 . S
C2116 C2108 1.574 . S
C2116 H2111 0.949 1_455 S
C2116 C2122 1.368 . S
C2117 C2101 1.349 . S
C2117 H2109 0.890 1_556 S
C2117 C2115 1.327 . S
C2118 C2106 1.349 . S
C2118 H2112 0.950 1_455 S
C2118 C2119 1.327 . S
C2119 H2113 0.950 1_455 S
C2119 C2118 1.327 . S
C2119 C2123 1.429 . S
C2120 C2103 1.574 . S
C2120 H2114 0.949 . S
C2120 C2124 1.368 . S
C2121 C2102 1.429 . S
C2121 C2115 1.429 . S
C2121 C2122 1.523 . S
C2122 C2103 1.368 . S
C2122 C2116 1.368 . S
C2122 C2121 1.523 . S
C2123 C2107 1.429 . S
C2123 C2119 1.429 . S
C2123 C2124 1.523 . S
C2124 C2108 1.368 . S
C2124 C2120 1.368 . S
C2124 C2123 1.523 . S
H2125 C2100 0.950 1_655 S
H2126 C2102 0.950 1_655 S
H2127 C2103 0.949 . S
H2128 C2105 0.950 . S
H2129 C2107 0.950 . S
C2130 C2131 1.349 . S
C2130 C2132 1.327 . S
C2130 H2155 0.950 . S
C2131 C2130 1.349 . S
C2131 C2147 1.325 1_554 S
C2132 C2130 1.327 . S
C2132 C2151 1.429 1_554 S
C2132 H2156 0.950 . S
C2133 C2150 1.574 . S
C2133 C2152 1.368 . S
C2133 H2157 0.949 . S
H2134 C2138 0.949 . S
C2135 C2136 1.349 . S
C2135 C2137 1.327 . S
C2135 H2158 0.950 . S
C2136 C2135 1.349 . S
C2136 C2148 1.349 . S
C2137 C2135 1.327 . S
C2137 C2153 1.429 . S
C2137 H2159 0.950 . S
C2138 H2134 0.949 . S
C2138 C2146 1.574 . S
C2138 C2154 1.368 . S
H2139 C2147 0.947 . S
H2140 C2145 0.950 . S
H2141 C2146 0.949 . S
H2142 C2148 0.950 . S
H2143 C2149 0.950 . S
H2144 C2150 0.949 . S
C2145 H2140 0.950 . S
C2145 C2147 1.348 . S
C2145 C2151 1.429 . S
C2146 C2138 1.574 . S
C2146 H2141 0.949 . S
C2146 C2152 1.368 . S
C2147 C2131 1.325 1_556 S
C2147 H2139 0.947 . S
C2147 C2145 1.348 . S
C2148 C2136 1.349 . S
C2148 H2142 0.950 . S
C2148 C2149 1.327 . S
C2149 H2143 0.950 . S
C2149 C2148 1.327 . S
C2149 C2153 1.429 . S
C2150 C2133 1.574 . S
C2150 H2144 0.949 . S
C2150 C2154 1.368 . S
C2151 C2132 1.429 1_556 S
C2151 C2145 1.429 . S
C2151 C2152 1.523 . S
C2152 C2133 1.368 . S
C2152 C2146 1.368 . S
C2152 C2151 1.523 . S
C2153 C2137 1.429 . S
C2153 C2149 1.429 . S
C2153 C2154 1.523 . S
C2154 C2138 1.368 . S
C2154 C2150 1.368 . S
C2154 C2153 1.523 . S
H2155 C2130 0.950 . S
H2156 C2132 0.950 . S
H2157 C2133 0.949 . S
H2158 C2135 0.950 . S
H2159 C2137 0.950 . S
C2160 C2161 1.307 1_556 S
C2160 C2162 1.371 . S
C2160 H2185 0.952 1_556 S
C2161 C2160 1.307 1_554 S
C2161 C2177 1.349 1_455 S
C2162 C2160 1.371 . S
C2162 C2181 1.429 . S
C2162 H2186 0.950 . S
C2163 C2180 1.574 . S
C2163 C2182 1.368 1_655 S
C2163 H2187 0.949 . S
H2164 C2168 0.949 . S
C2165 C2166 1.349 1_655 S
C2165 C2167 1.327 . S
C2165 H2188 0.950 . S
C2166 C2165 1.349 1_455 S
C2166 C2178 1.349 . S
C2167 C2165 1.327 . S
C2167 C2183 1.429 1_655 S
C2167 H2189 0.950 . S
C2168 H2164 0.949 . S
C2168 C2176 1.574 . S
C2168 C2184 1.368 . S
H2169 C2177 0.950 . S
H2170 C2175 0.950 . S
H2171 C2176 0.949 . S
H2172 C2178 0.950 . S
H2173 C2179 0.950 . S
H2174 C2180 0.949 . S
C2175 H2170 0.950 . S
C2175 C2177 1.327 1_556 S
C2175 C2181 1.429 1_655 S
C2176 C2168 1.574 . S
C2176 H2171 0.949 . S
C2176 C2182 1.368 . S
C2177 C2161 1.349 1_655 S
C2177 H2169 0.950 . S
C2177 C2175 1.327 1_554 S
C2178 C2166 1.349 . S
C2178 H2172 0.950 . S
C2178 C2179 1.327 . S
C2179 H2173 0.950 . S
C2179 C2178 1.327 . S
C2179 C2183 1.429 . S
C2180 C2163 1.574 . S
C2180 H2174 0.949 . S
C2180 C2184 1.368 1_655 S
C2181 C2162 1.429 . S
C2181 C2175 1.429 1_455 S
C2181 C2182 1.523 . S
C2182 C2163 1.368 1_455 S
C2182 C2176 1.368 . S
C2182 C2181 1.523 . S
C2183 C2167 1.429 1_455 S
C2183 C2179 1.429 . S
C2183 C2184 1.523 . S
C2184 C2168 1.368 . S
C2184 C2180 1.368 1_455 S
C2184 C2183 1.523 . S
H2185 C2160 0.952 1_554 S
H2186 C2162 0.950 . S
H2187 C2163 0.949 . S
H2188 C2165 0.950 . S
H2189 C2167 0.950 . S
C2190 C2191 1.349 . S
C2190 C2192 1.327 . S
C2190 H2215 0.950 . S
C2191 C2190 1.349 . S
C2191 C2207 1.349 . S
C2192 C2190 1.327 . S
C2192 C2211 1.429 . S
C2192 H2216 0.950 . S
C2193 C2210 1.574 . S
C2193 C2212 1.368 . S
C2193 H2217 0.949 . S
H2194 C2198 0.949 . S
C2195 C2196 1.349 . S
C2195 C2197 1.327 . S
C2195 H2218 0.950 . S
C2196 C2195 1.349 . S
C2196 C2208 1.349 . S
C2197 C2195 1.327 . S
C2197 C2213 1.429 . S
C2197 H2219 0.950 . S
C2198 H2194 0.949 . S
C2198 C2206 1.574 . S
C2198 C2214 1.368 . S
H2199 C2207 0.950 . S
H2200 C2205 0.950 . S
H2201 C2206 0.949 . S
H2202 C2208 0.950 . S
H2203 C2209 0.950 . S
H2204 C2210 0.949 . S
C2205 H2200 0.950 . S
C2205 C2207 1.327 . S
C2205 C2211 1.429 . S
C2206 C2198 1.574 . S
C2206 H2201 0.949 . S
C2206 C2212 1.368 . S
C2207 C2191 1.349 . S
C2207 H2199 0.950 . S
C2207 C2205 1.327 . S
C2208 C2196 1.349 . S
C2208 H2202 0.950 . S
C2208 C2209 1.327 . S
C2209 H2203 0.950 . S
C2209 C2208 1.327 . S
C2209 C2213 1.429 . S
C2210 C2193 1.574 . S
C2210 H2204 0.949 . S
C2210 C2214 1.368 . S
C2211 C2192 1.429 . S
C2211 C2205 1.429 . S
C2211 C2212 1.523 . S
C2212 C2193 1.368 . S
C2212 C2206 1.368 . S
C2212 C2211 1.523 . S
C2213 C2197 1.429 . S
C2213 C2209 1.429 . S
C2213 C2214 1.523 . S
C2214 C2198 1.368 . S
C2214 C2210 1.368 . S
C2214 C2213 1.523 . S
H2215 C2190 0.950 . S
H2216 C2192 0.950 . S
H2217 C2193 0.949 . S
H2218 C2195 0.950 . S
H2219 C2197 0.950 . S
C2220 C2221 1.334 1_565 S
C2220 C2222 1.327 1_554 S
C2220 H2245 0.950 . S
C2221 C2220 1.334 1_545 S
C2221 C2237 1.392 1_554 S
C2222 C2220 1.327 1_556 S
C2222 C2241 1.429 1_565 S
C2222 H2246 0.950 . S
C2223 C2240 1.574 . S
C2223 C2242 1.368 . S
C2223 H2247 0.949 . S
H2224 C2228 0.949 . S
C2225 C2226 1.349 . S
C2225 C2227 1.327 . S
C2225 H2248 0.950 . S
C2226 C2225 1.349 . S
C2226 C2238 1.349 1_545 S
C2227 C2225 1.327 . S
C2227 C2243 1.429 . S
C2227 H2249 0.950 . S
C2228 H2224 0.949 . S
C2228 C2236 1.574 . S
C2228 C2244 1.368 1_565 S
H2229 C2237 0.956 . S
H2230 C2235 0.950 . S
H2231 C2236 0.949 . S
H2232 C2238 0.950 . S
H2233 C2239 0.950 . S
H2234 C2240 0.949 . S
C2235 H2230 0.950 . S
C2235 C2237 1.327 . S
C2235 C2241 1.429 . S
C2236 C2228 1.574 . S
C2236 H2231 0.949 . S
C2236 C2242 1.368 1_565 S
C2237 C2221 1.392 1_556 S
C2237 H2229 0.956 . S
C2237 C2235 1.327 . S
C2238 C2226 1.349 1_565 S
C2238 H2232 0.950 . S
C2238 C2239 1.327 . S
C2239 H2233 0.950 . S
C2239 C2238 1.327 . S
C2239 C2243 1.429 1_565 S
C2240 C2223 1.574 . S
C2240 H2234 0.949 . S
C2240 C2244 1.368 . S
C2241 C2222 1.429 1_545 S
C2241 C2235 1.429 . S
C2241 C2242 1.523 . S
C2242 C2223 1.368 . S
C2242 C2236 1.368 1_545 S
C2242 C2241 1.523 . S
C2243 C2227 1.429 . S
C2243 C2239 1.429 1_545 S
C2243 C2244 1.523 . S
C2244 C2228 1.368 1_545 S
C2244 C2240 1.368 . S
C2244 C2243 1.523 . S
H2245 C2220 0.950 . S
H2246 C2222 0.950 . S
H2247 C2223 0.949 . S
H2248 C2225 0.950 . S
H2249 C2227 0.950 . S
C2250 C2251 1.349 . S
C2250 C2252 1.327 . S
C2250 H2275 0.950 . S
C2251 C2250 1.349 . S
C2251 C2267 1.349 . S
C2252 C2250 1.327 . S
C2252 C2271 1.429 . S
C2252 H2276 0.950 . S
C2253 C2270 1.574 . S
C2253 C2272 1.368 1_565 S
C2253 H2277 0.949 . S
H2254 C2258 0.949 . S
C2255 C2256 1.333 1_565 S
C2255 C2257 1.327 . S
C2255 H2278 0.950 . S
C2256 C2255 1.333 1_545 S
C2256 C2268 1.362 . S
C2257 C2255 1.327 . S
C2257 C2273 1.429 1_565 S
C2257 H2279 0.950 . S
C2258 H2254 0.949 . S
C2258 C2266 1.574 . S
C2258 C2274 1.368 . S
H2259 C2267 0.950 1_565 S
H2260 C2265 0.955 . S
H2261 C2266 0.949 . S
H2262 C2268 0.950 . S
H2263 C2269 0.950 . S
H2264 C2270 0.949 . S
C2265 H2260 0.955 . S
C2265 C2267 1.328 1_565 S
C2265 C2271 1.422 1_565 S
C2266 C2258 1.574 . S
C2266 H2261 0.949 . S
C2266 C2272 1.368 . S
C2267 C2251 1.349 . S
C2267 H2259 0.950 1_545 S
C2267 C2265 1.328 1_545 S
C2268 C2256 1.362 . S
C2268 H2262 0.950 . S
C2268 C2269 1.327 . S
C2269 H2263 0.950 . S
C2269 C2268 1.327 . S
C2269 C2273 1.429 . S
C2270 C2253 1.574 . S
C2270 H2264 0.949 . S
C2270 C2274 1.368 1_565 S
C2271 C2252 1.429 . S
C2271 C2265 1.422 1_545 S
C2271 C2272 1.523 . S
C2272 C2253 1.368 1_545 S
C2272 C2266 1.368 . S
C2272 C2271 1.523 . S
C2273 C2257 1.429 1_545 S
C2273 C2269 1.429 . S
C2273 C2274 1.523 . S
C2274 C2258 1.368 . S
C2274 C2270 1.368 1_545 S
C2274 C2273 1.523 . S
H2275 C2250 0.950 . S
H2276 C2252 0.950 . S
H2277 C2253 0.949 . S
H2278 C2255 0.950 . S
H2279 C2257 0.950 . S
C2280 C2281 1.349 . S
C2280 C2282 1.327 . S
C2280 H2305 0.950 . S
C2281 C2280 1.349 . S
C2281 C2297 1.408 . S
C2282 C2280 1.327 . S
C2282 C2301 1.429 . S
C2282 H2306 0.950 . S
C2283 C2300 1.600 . S
C2283 C2302 1.320 1_455 S
C2283 H2307 0.975 . S
H2284 C2288 0.949 . S
C2285 C2286 1.358 . S
C2285 C2287 1.327 . S
C2285 H2308 0.950 . S
C2286 C2285 1.358 . S
C2286 C2298 1.332 1_455 S
C2287 C2285 1.327 . S
C2287 C2303 1.388 1_455 S
C2287 H2309 0.950 . S
C2288 H2284 0.949 . S
C2288 C2296 1.574 . S
C2288 C2304 1.368 . S
H2289 C2297 0.910 1_455 S
H2290 C2295 0.931 1_455 S
H2291 C2296 0.949 . S
H2292 C2298 0.950 . S
H2293 C2299 0.950 . S
H2294 C2300 0.949 . S
C2295 H2290 0.931 1_655 S
C2295 C2297 1.309 . S
C2295 C2301 1.438 . S
C2296 C2288 1.574 . S
C2296 H2291 0.949 . S
C2296 C2302 1.368 . S
C2297 C2281 1.408 . S
C2297 H2289 0.910 1_655 S
C2297 C2295 1.309 . S
C2298 C2286 1.332 1_655 S
C2298 H2292 0.950 . S
C2298 C2299 1.327 . S
C2299 H2293 0.950 . S
C2299 C2298 1.327 . S
C2299 C2303 1.449 . S
C2300 C2283 1.600 . S
C2300 H2294 0.949 . S
C2300 C2304 1.368 1_455 S
C2301 C2282 1.429 . S
C2301 C2295 1.438 . S
C2301 C2302 1.523 . S
C2302 C2283 1.320 1_655 S
C2302 C2296 1.368 . S
C2302 C2301 1.523 . S
C2303 C2287 1.388 1_655 S
C2303 C2299 1.449 . S
C2303 C2304 1.544 . S
C2304 C2288 1.368 . S
C2304 C2300 1.368 1_655 S
C2304 C2303 1.544 . S
H2305 C2280 0.950 . S
H2306 C2282 0.950 . S
H2307 C2283 0.975 . S
H2308 C2285 0.950 . S
H2309 C2287 0.950 . S
C2310 C2311 1.349 . S
C2310 C2312 1.327 . S
C2310 H2335 0.950 . S
C2311 C2310 1.349 . S
C2311 C2327 1.349 . S
C2312 C2310 1.327 . S
C2312 C2331 1.429 . S
C2312 H2336 0.950 . S
C2313 C2330 1.574 . S
C2313 C2332 1.368 . S
C2313 H2337 0.949 . S
H2314 C2318 0.949 . S
C2315 C2316 1.349 . S
C2315 C2317 1.327 . S
C2315 H2338 0.950 . S
C2316 C2315 1.349 . S
C2316 C2328 1.349 . S
C2317 C2315 1.327 . S
C2317 C2333 1.429 . S
C2317 H2339 0.950 . S
C2318 H2314 0.949 . S
C2318 C2326 1.574 . S
C2318 C2334 1.368 . S
H2319 C2327 0.950 . S
H2320 C2325 0.950 . S
H2321 C2326 0.949 . S
H2322 C2328 0.950 . S
H2323 C2329 0.950 . S
H2324 C2330 0.949 . S
C2325 H2320 0.950 . S
C2325 C2327 1.327 . S
C2325 C2331 1.429 . S
C2326 C2318 1.574 . S
C2326 H2321 0.949 . S
C2326 C2332 1.368 . S
C2327 C2311 1.349 . S
C2327 H2319 0.950 . S
C2327 C2325 1.327 . S
C2328 C2316 1.349 . S
C2328 H2322 0.950 . S
C2328 C2329 1.327 . S
C2329 H2323 0.950 . S
C2329 C2328 1.327 . S
C2329 C2333 1.429 . S
C2330 C2313 1.574 . S
C2330 H2324 0.949 . S
C2330 C2334 1.368 . S
C2331 C2312 1.429 . S
C2331 C2325 1.429 . S
C2331 C2332 1.523 . S
C2332 C2313 1.368 . S
C2332 C2326 1.368 . S
C2332 C2331 1.523 . S
C2333 C2317 1.429 . S
C2333 C2329 1.429 . S
C2333 C2334 1.523 . S
C2334 C2318 1.368 . S
C2334 C2330 1.368 . S
C2334 C2333 1.523 . S
H2335 C2310 0.950 . S
H2336 C2312 0.950 . S
H2337 C2313 0.949 . S
H2338 C2315 0.950 . S
H2339 C2317 0.950 . S
C2340 C2341 1.349 . S
C2340 C2342 1.327 . S
C2340 H2365 0.950 . S
C2341 C2340 1.349 . S
C2341 C2357 1.349 . S
C2342 C2340 1.327 . S
C2342 C2361 1.429 . S
C2342 H2366 0.950 . S
C2343 C2360 1.574 . S
C2343 C2362 1.368 . S
C2343 H2367 0.949 . S
H2344 C2348 0.949 . S
C2345 C2346 1.349 . S
C2345 C2347 1.327 . S
C2345 H2368 0.950 . S
C2346 C2345 1.349 . S
C2346 C2358 1.349 . S
C2347 C2345 1.327 . S
C2347 C2363 1.429 . S
C2347 H2369 0.950 . S
C2348 H2344 0.949 . S
C2348 C2356 1.574 . S
C2348 C2364 1.368 . S
H2349 C2357 0.950 . S
H2350 C2355 0.950 . S
H2351 C2356 0.949 . S
H2352 C2358 0.950 . S
H2353 C2359 0.950 . S
H2354 C2360 0.949 . S
C2355 H2350 0.950 . S
C2355 C2357 1.327 . S
C2355 C2361 1.429 . S
C2356 C2348 1.574 . S
C2356 H2351 0.949 . S
C2356 C2362 1.368 . S
C2357 C2341 1.349 . S
C2357 H2349 0.950 . S
C2357 C2355 1.327 . S
C2358 C2346 1.349 . S
C2358 H2352 0.950 . S
C2358 C2359 1.327 . S
C2359 H2353 0.950 . S
C2359 C2358 1.327 . S
C2359 C2363 1.429 . S
C2360 C2343 1.574 . S
C2360 H2354 0.949 . S
C2360 C2364 1.368 . S
C2361 C2342 1.429 . S
C2361 C2355 1.429 . S
C2361 C2362 1.523 . S
C2362 C2343 1.368 . S
C2362 C2356 1.368 . S
C2362 C2361 1.523 . S
C2363 C2347 1.429 . S
C2363 C2359 1.429 . S
C2363 C2364 1.523 . S
C2364 C2348 1.368 . S
C2364 C2360 1.368 . S
C2364 C2363 1.523 . S
H2365 C2340 0.950 . S
H2366 C2342 0.950 . S
H2367 C2343 0.949 . S
H2368 C2345 0.950 . S
H2369 C2347 0.950 . S
C2370 C2371 1.349 . S
C2370 C2372 1.327 . S
C2370 H2395 0.950 . S
C2371 C2370 1.349 . S
C2371 C2387 1.349 . S
C2372 C2370 1.327 . S
C2372 C2391 1.429 . S
C2372 H2396 0.950 . S
C2373 C2390 1.574 . S
C2373 C2392 1.368 . S
C2373 H2397 0.949 . S
H2374 C2378 0.949 . S
C2375 C2376 1.349 . S
C2375 C2377 1.327 . S
C2375 H2398 0.950 . S
C2376 C2375 1.349 . S
C2376 C2388 1.349 . S
C2377 C2375 1.327 . S
C2377 C2393 1.429 . S
C2377 H2399 0.950 . S
C2378 H2374 0.949 . S
C2378 C2386 1.574 . S
C2378 C2394 1.368 . S
H2379 C2387 0.950 . S
H2380 C2385 0.950 . S
H2381 C2386 0.949 . S
H2382 C2388 0.950 . S
H2383 C2389 0.950 . S
H2384 C2390 0.949 . S
C2385 H2380 0.950 . S
C2385 C2387 1.327 . S
C2385 C2391 1.429 . S
C2386 C2378 1.574 . S
C2386 H2381 0.949 . S
C2386 C2392 1.368 . S
C2387 C2371 1.349 . S
C2387 H2379 0.950 . S
C2387 C2385 1.327 . S
C2388 C2376 1.349 . S
C2388 H2382 0.950 . S
C2388 C2389 1.327 . S
C2389 H2383 0.950 . S
C2389 C2388 1.327 . S
C2389 C2393 1.429 . S
C2390 C2373 1.574 . S
C2390 H2384 0.949 . S
C2390 C2394 1.368 . S
C2391 C2372 1.429 . S
C2391 C2385 1.429 . S
C2391 C2392 1.523 . S
C2392 C2373 1.368 . S
C2392 C2386 1.368 . S
C2392 C2391 1.523 . S
C2393 C2377 1.429 . S
C2393 C2389 1.429 . S
C2393 C2394 1.523 . S
C2394 C2378 1.368 . S
C2394 C2390 1.368 . S
C2394 C2393 1.523 . S
H2395 C2370 0.950 . S
H2396 C2372 0.950 . S
H2397 C2373 0.949 . S
H2398 C2375 0.950 . S
H2399 C2377 0.950 . S
C2400 C2401 1.349 . S
C2400 C2402 1.327 . S
C2400 H2425 0.950 . S
C2401 C2400 1.349 . S
C2401 C2417 1.349 . S
C2402 C2400 1.327 . S
C2402 C2421 1.429 . S
C2402 H2426 0.950 . S
C2403 C2420 1.574 . S
C2403 C2422 1.368 . S
C2403 H2427 0.949 . S
H2404 C2408 0.949 . S
C2405 C2406 1.349 . S
C2405 C2407 1.327 . S
C2405 H2428 0.950 . S
C2406 C2405 1.349 . S
C2406 C2418 1.349 . S
C2407 C2405 1.327 . S
C2407 C2423 1.429 . S
C2407 H2429 0.950 . S
C2408 H2404 0.949 . S
C2408 C2416 1.574 . S
C2408 C2424 1.368 . S
H2409 C2417 0.950 . S
H2410 C2415 0.950 . S
H2411 C2416 0.949 . S
H2412 C2418 0.950 . S
H2413 C2419 0.950 . S
H2414 C2420 0.949 . S
C2415 H2410 0.950 . S
C2415 C2417 1.327 . S
C2415 C2421 1.429 . S
C2416 C2408 1.574 . S
C2416 H2411 0.949 . S
C2416 C2422 1.368 . S
C2417 C2401 1.349 . S
C2417 H2409 0.950 . S
C2417 C2415 1.327 . S
C2418 C2406 1.349 . S
C2418 H2412 0.950 . S
C2418 C2419 1.327 . S
C2419 H2413 0.950 . S
C2419 C2418 1.327 . S
C2419 C2423 1.429 . S
C2420 C2403 1.574 . S
C2420 H2414 0.949 . S
C2420 C2424 1.368 . S
C2421 C2402 1.429 . S
C2421 C2415 1.429 . S
C2421 C2422 1.523 . S
C2422 C2403 1.368 . S
C2422 C2416 1.368 . S
C2422 C2421 1.523 . S
C2423 C2407 1.429 . S
C2423 C2419 1.429 . S
C2423 C2424 1.523 . S
C2424 C2408 1.368 . S
C2424 C2420 1.368 . S
C2424 C2423 1.523 . S
H2425 C2400 0.950 . S
H2426 C2402 0.950 . S
H2427 C2403 0.949 . S
H2428 C2405 0.950 . S
H2429 C2407 0.950 . S
C2430 C2431 1.349 . S
C2430 C2432 1.327 . S
C2430 H2455 0.950 . S
C2431 C2430 1.349 . S
C2431 C2447 1.349 . S
C2432 C2430 1.327 . S
C2432 C2451 1.429 . S
C2432 H2456 0.950 . S
C2433 C2450 1.574 . S
C2433 C2452 1.368 . S
C2433 H2457 0.949 . S
H2434 C2438 0.949 . S
C2435 C2436 1.349 . S
C2435 C2437 1.327 . S
C2435 H2458 0.950 . S
C2436 C2435 1.349 . S
C2436 C2448 1.349 . S
C2437 C2435 1.327 . S
C2437 C2453 1.429 . S
C2437 H2459 0.950 . S
C2438 H2434 0.949 . S
C2438 C2446 1.574 . S
C2438 C2454 1.368 . S
H2439 C2447 0.950 . S
H2440 C2445 0.950 . S
H2441 C2446 0.949 . S
H2442 C2448 0.950 . S
H2443 C2449 0.950 . S
H2444 C2450 0.949 . S
C2445 H2440 0.950 . S
C2445 C2447 1.327 . S
C2445 C2451 1.429 . S
C2446 C2438 1.574 . S
C2446 H2441 0.949 . S
C2446 C2452 1.368 . S
C2447 C2431 1.349 . S
C2447 H2439 0.950 . S
C2447 C2445 1.327 . S
C2448 C2436 1.349 . S
C2448 H2442 0.950 . S
C2448 C2449 1.327 . S
C2449 H2443 0.950 . S
C2449 C2448 1.327 . S
C2449 C2453 1.429 . S
C2450 C2433 1.574 . S
C2450 H2444 0.949 . S
C2450 C2454 1.368 . S
C2451 C2432 1.429 . S
C2451 C2445 1.429 . S
C2451 C2452 1.523 . S
C2452 C2433 1.368 . S
C2452 C2446 1.368 . S
C2452 C2451 1.523 . S
C2453 C2437 1.429 . S
C2453 C2449 1.429 . S
C2453 C2454 1.523 . S
C2454 C2438 1.368 . S
C2454 C2450 1.368 . S
C2454 C2453 1.523 . S
H2455 C2430 0.950 . S
H2456 C2432 0.950 . S
H2457 C2433 0.949 . S
H2458 C2435 0.950 . S
H2459 C2437 0.950 . S
C2460 C2461 1.349 . S
C2460 C2462 1.327 . S
C2460 H2485 0.950 . S
C2461 C2460 1.349 . S
C2461 C2477 1.349 . S
C2462 C2460 1.327 . S
C2462 C2481 1.429 . S
C2462 H2486 0.950 . S
C2463 C2480 1.574 . S
C2463 C2482 1.368 . S
C2463 H2487 0.949 . S
H2464 C2468 0.949 . S
C2465 C2466 1.349 . S
C2465 C2467 1.327 . S
C2465 H2488 0.950 . S
C2466 C2465 1.349 . S
C2466 C2478 1.349 . S
C2467 C2465 1.327 . S
C2467 C2483 1.429 . S
C2467 H2489 0.950 . S
C2468 H2464 0.949 . S
C2468 C2476 1.574 . S
C2468 C2484 1.368 . S
H2469 C2477 0.950 . S
H2470 C2475 0.950 . S
H2471 C2476 0.949 . S
H2472 C2478 0.950 . S
H2473 C2479 0.950 . S
H2474 C2480 0.949 . S
C2475 H2470 0.950 . S
C2475 C2477 1.327 . S
C2475 C2481 1.429 . S
C2476 C2468 1.574 . S
C2476 H2471 0.949 . S
C2476 C2482 1.368 . S
C2477 C2461 1.349 . S
C2477 H2469 0.950 . S
C2477 C2475 1.327 . S
C2478 C2466 1.349 . S
C2478 H2472 0.950 . S
C2478 C2479 1.327 . S
C2479 H2473 0.950 . S
C2479 C2478 1.327 . S
C2479 C2483 1.429 . S
C2480 C2463 1.574 . S
C2480 H2474 0.949 . S
C2480 C2484 1.368 . S
C2481 C2462 1.429 . S
C2481 C2475 1.429 . S
C2481 C2482 1.523 . S
C2482 C2463 1.368 . S
C2482 C2476 1.368 . S
C2482 C2481 1.523 . S
C2483 C2467 1.429 . S
C2483 C2479 1.429 . S
C2483 C2484 1.523 . S
C2484 C2468 1.368 . S
C2484 C2480 1.368 . S
C2484 C2483 1.523 . S
H2485 C2460 0.950 . S
H2486 C2462 0.950 . S
H2487 C2463 0.949 . S
H2488 C2465 0.950 . S
H2489 C2467 0.950 . S
C2490 C2491 1.349 . S
C2490 C2492 1.327 . S
C2490 H2515 0.950 . S
C2491 C2490 1.349 . S
C2491 C2507 1.349 . S
C2492 C2490 1.327 . S
C2492 C2511 1.429 . S
C2492 H2516 0.950 . S
C2493 C2510 1.574 . S
C2493 C2512 1.368 . S
C2493 H2517 0.949 . S
H2494 C2498 0.949 . S
C2495 C2496 1.349 . S
C2495 C2497 1.327 . S
C2495 H2518 0.950 . S
C2496 C2495 1.349 . S
C2496 C2508 1.349 . S
C2497 C2495 1.327 . S
C2497 C2513 1.429 . S
C2497 H2519 0.950 . S
C2498 H2494 0.949 . S
C2498 C2506 1.574 . S
C2498 C2514 1.368 . S
H2499 C2507 0.950 . S
H2500 C2505 0.950 . S
H2501 C2506 0.949 . S
H2502 C2508 0.950 . S
H2503 C2509 0.950 . S
H2504 C2510 0.949 . S
C2505 H2500 0.950 . S
C2505 C2507 1.327 . S
C2505 C2511 1.429 . S
C2506 C2498 1.574 . S
C2506 H2501 0.949 . S
C2506 C2512 1.368 . S
C2507 C2491 1.349 . S
C2507 H2499 0.950 . S
C2507 C2505 1.327 . S
C2508 C2496 1.349 . S
C2508 H2502 0.950 . S
C2508 C2509 1.327 . S
C2509 H2503 0.950 . S
C2509 C2508 1.327 . S
C2509 C2513 1.429 . S
C2510 C2493 1.574 . S
C2510 H2504 0.949 . S
C2510 C2514 1.368 . S
C2511 C2492 1.429 . S
C2511 C2505 1.429 . S
C2511 C2512 1.523 . S
C2512 C2493 1.368 . S
C2512 C2506 1.368 . S
C2512 C2511 1.523 . S
C2513 C2497 1.429 . S
C2513 C2509 1.429 . S
C2513 C2514 1.523 . S
C2514 C2498 1.368 . S
C2514 C2510 1.368 . S
C2514 C2513 1.523 . S
H2515 C2490 0.950 . S
H2516 C2492 0.950 . S
H2517 C2493 0.949 . S
H2518 C2495 0.950 . S
H2519 C2497 0.950 . S
C2520 C2521 1.349 . S
C2520 C2522 1.327 . S
C2520 H2545 0.950 . S
C2521 C2520 1.349 . S
C2521 C2537 1.349 . S
C2522 C2520 1.327 . S
C2522 C2541 1.429 . S
C2522 H2546 0.950 . S
C2523 C2540 1.574 . S
C2523 C2542 1.368 . S
C2523 H2547 0.949 . S
H2524 C2528 0.949 . S
C2525 C2526 1.349 . S
C2525 C2527 1.327 . S
C2525 H2548 0.950 . S
C2526 C2525 1.349 . S
C2526 C2538 1.349 . S
C2527 C2525 1.327 . S
C2527 C2543 1.429 . S
C2527 H2549 0.950 . S
C2528 H2524 0.949 . S
C2528 C2536 1.574 . S
C2528 C2544 1.368 . S
H2529 C2537 0.950 . S
H2530 C2535 0.950 . S
H2531 C2536 0.949 . S
H2532 C2538 0.950 . S
H2533 C2539 0.950 . S
H2534 C2540 0.949 . S
C2535 H2530 0.950 . S
C2535 C2537 1.327 . S
C2535 C2541 1.429 . S
C2536 C2528 1.574 . S
C2536 H2531 0.949 . S
C2536 C2542 1.368 . S
C2537 C2521 1.349 . S
C2537 H2529 0.950 . S
C2537 C2535 1.327 . S
C2538 C2526 1.349 . S
C2538 H2532 0.950 . S
C2538 C2539 1.327 . S
C2539 H2533 0.950 . S
C2539 C2538 1.327 . S
C2539 C2543 1.429 . S
C2540 C2523 1.574 . S
C2540 H2534 0.949 . S
C2540 C2544 1.368 . S
C2541 C2522 1.429 . S
C2541 C2535 1.429 . S
C2541 C2542 1.523 . S
C2542 C2523 1.368 . S
C2542 C2536 1.368 . S
C2542 C2541 1.523 . S
C2543 C2527 1.429 . S
C2543 C2539 1.429 . S
C2543 C2544 1.523 . S
C2544 C2528 1.368 . S
C2544 C2540 1.368 . S
C2544 C2543 1.523 . S
H2545 C2520 0.950 . S
H2546 C2522 0.950 . S
H2547 C2523 0.949 . S
H2548 C2525 0.950 . S
H2549 C2527 0.950 . S
C2550 C2551 1.349 . S
C2550 C2552 1.327 . S
C2550 H2575 0.950 . S
C2551 C2550 1.349 . S
C2551 C2567 1.349 . S
C2552 C2550 1.327 . S
C2552 C2571 1.429 . S
C2552 H2576 0.950 . S
C2553 C2570 1.574 . S
C2553 C2572 1.368 . S
C2553 H2577 0.949 . S
H2554 C2558 0.949 . S
C2555 C2556 1.349 . S
C2555 C2557 1.327 . S
C2555 H2578 0.950 . S
C2556 C2555 1.349 . S
C2556 C2568 1.349 . S
C2557 C2555 1.327 . S
C2557 C2573 1.429 . S
C2557 H2579 0.950 . S
C2558 H2554 0.949 . S
C2558 C2566 1.574 . S
C2558 C2574 1.368 . S
H2559 C2567 0.950 . S
H2560 C2565 0.950 . S
H2561 C2566 0.949 . S
H2562 C2568 0.950 . S
H2563 C2569 0.950 . S
H2564 C2570 0.949 . S
C2565 H2560 0.950 . S
C2565 C2567 1.327 . S
C2565 C2571 1.429 . S
C2566 C2558 1.574 . S
C2566 H2561 0.949 . S
C2566 C2572 1.368 . S
C2567 C2551 1.349 . S
C2567 H2559 0.950 . S
C2567 C2565 1.327 . S
C2568 C2556 1.349 . S
C2568 H2562 0.950 . S
C2568 C2569 1.327 . S
C2569 H2563 0.950 . S
C2569 C2568 1.327 . S
C2569 C2573 1.429 . S
C2570 C2553 1.574 . S
C2570 H2564 0.949 . S
C2570 C2574 1.368 . S
C2571 C2552 1.429 . S
C2571 C2565 1.429 . S
C2571 C2572 1.523 . S
C2572 C2553 1.368 . S
C2572 C2566 1.368 . S
C2572 C2571 1.523 . S
C2573 C2557 1.429 . S
C2573 C2569 1.429 . S
C2573 C2574 1.523 . S
C2574 C2558 1.368 . S
C2574 C2570 1.368 . S
C2574 C2573 1.523 . S
H2575 C2550 0.950 . S
H2576 C2552 0.950 . S
H2577 C2553 0.949 . S
H2578 C2555 0.950 . S
H2579 C2557 0.950 . S
C2580 C2581 1.349 . S
C2580 C2582 1.327 . S
C2580 H2605 0.950 . S
C2581 C2580 1.349 . S
C2581 C2597 1.349 . S
C2582 C2580 1.327 . S
C2582 C2601 1.429 . S
C2582 H2606 0.950 . S
C2583 C2600 1.574 . S
C2583 C2602 1.368 . S
C2583 H2607 0.949 . S
H2584 C2588 0.949 . S
C2585 C2586 1.349 . S
C2585 C2587 1.327 . S
C2585 H2608 0.950 . S
C2586 C2585 1.349 . S
C2586 C2598 1.349 . S
C2587 C2585 1.327 . S
C2587 C2603 1.429 . S
C2587 H2609 0.950 . S
C2588 H2584 0.949 . S
C2588 C2596 1.574 . S
C2588 C2604 1.368 . S
H2589 C2597 0.950 . S
H2590 C2595 0.950 . S
H2591 C2596 0.949 . S
H2592 C2598 0.950 . S
H2593 C2599 0.950 . S
H2594 C2600 0.949 . S
C2595 H2590 0.950 . S
C2595 C2597 1.327 . S
C2595 C2601 1.429 . S
C2596 C2588 1.574 . S
C2596 H2591 0.949 . S
C2596 C2602 1.368 . S
C2597 C2581 1.349 . S
C2597 H2589 0.950 . S
C2597 C2595 1.327 . S
C2598 C2586 1.349 . S
C2598 H2592 0.950 . S
C2598 C2599 1.327 . S
C2599 H2593 0.950 . S
C2599 C2598 1.327 . S
C2599 C2603 1.429 . S
C2600 C2583 1.574 . S
C2600 H2594 0.949 . S
C2600 C2604 1.368 . S
C2601 C2582 1.429 . S
C2601 C2595 1.429 . S
C2601 C2602 1.523 . S
C2602 C2583 1.368 . S
C2602 C2596 1.368 . S
C2602 C2601 1.523 . S
C2603 C2587 1.429 . S
C2603 C2599 1.429 . S
C2603 C2604 1.523 . S
C2604 C2588 1.368 . S
C2604 C2600 1.368 . S
C2604 C2603 1.523 . S
H2605 C2580 0.950 . S
H2606 C2582 0.950 . S
H2607 C2583 0.949 . S
H2608 C2585 0.950 . S
H2609 C2587 0.950 . S
C2610 C2611 1.349 . S
C2610 C2612 1.327 . S
C2610 H2635 0.950 . S
C2611 C2610 1.349 . S
C2611 C2627 1.349 . S
C2612 C2610 1.327 . S
C2612 C2631 1.429 . S
C2612 H2636 0.950 . S
C2613 C2630 1.574 . S
C2613 C2632 1.368 . S
C2613 H2637 0.949 . S
H2614 C2618 0.949 . S
C2615 C2616 1.349 . S
C2615 C2617 1.327 . S
C2615 H2638 0.950 . S
C2616 C2615 1.349 . S
C2616 C2628 1.349 . S
C2617 C2615 1.327 . S
C2617 C2633 1.429 . S
C2617 H2639 0.950 . S
C2618 H2614 0.949 . S
C2618 C2626 1.574 . S
C2618 C2634 1.368 . S
H2619 C2627 0.950 . S
H2620 C2625 0.950 . S
H2621 C2626 0.949 . S
H2622 C2628 0.950 . S
H2623 C2629 0.950 . S
H2624 C2630 0.949 . S
C2625 H2620 0.950 . S
C2625 C2627 1.327 . S
C2625 C2631 1.429 . S
C2626 C2618 1.574 . S
C2626 H2621 0.949 . S
C2626 C2632 1.368 . S
C2627 C2611 1.349 . S
C2627 H2619 0.950 . S
C2627 C2625 1.327 . S
C2628 C2616 1.349 . S
C2628 H2622 0.950 . S
C2628 C2629 1.327 . S
C2629 H2623 0.950 . S
C2629 C2628 1.327 . S
C2629 C2633 1.429 . S
C2630 C2613 1.574 . S
C2630 H2624 0.949 . S
C2630 C2634 1.368 . S
C2631 C2612 1.429 . S
C2631 C2625 1.429 . S
C2631 C2632 1.523 . S
C2632 C2613 1.368 . S
C2632 C2626 1.368 . S
C2632 C2631 1.523 . S
C2633 C2617 1.429 . S
C2633 C2629 1.429 . S
C2633 C2634 1.523 . S
C2634 C2618 1.368 . S
C2634 C2630 1.368 . S
C2634 C2633 1.523 . S
H2635 C2610 0.950 . S
H2636 C2612 0.950 . S
H2637 C2613 0.949 . S
H2638 C2615 0.950 . S
H2639 C2617 0.950 . S
C2640 C2641 1.349 . S
C2640 C2642 1.327 . S
C2640 H2665 0.950 . S
C2641 C2640 1.349 . S
C2641 C2657 1.349 . S
C2642 C2640 1.327 . S
C2642 C2661 1.429 . S
C2642 H2666 0.950 . S
C2643 C2660 1.574 . S
C2643 C2662 1.368 . S
C2643 H2667 0.949 . S
H2644 C2648 0.949 . S
C2645 C2646 1.349 . S
C2645 C2647 1.327 . S
C2645 H2668 0.950 . S
C2646 C2645 1.349 . S
C2646 C2658 1.349 . S
C2647 C2645 1.327 . S
C2647 C2663 1.429 . S
C2647 H2669 0.950 . S
C2648 H2644 0.949 . S
C2648 C2656 1.574 . S
C2648 C2664 1.368 . S
H2649 C2657 0.950 . S
H2650 C2655 0.950 . S
H2651 C2656 0.949 . S
H2652 C2658 0.950 . S
H2653 C2659 0.950 . S
H2654 C2660 0.949 . S
C2655 H2650 0.950 . S
C2655 C2657 1.327 . S
C2655 C2661 1.429 . S
C2656 C2648 1.574 . S
C2656 H2651 0.949 . S
C2656 C2662 1.368 . S
C2657 C2641 1.349 . S
C2657 H2649 0.950 . S
C2657 C2655 1.327 . S
C2658 C2646 1.349 . S
C2658 H2652 0.950 . S
C2658 C2659 1.327 . S
C2659 H2653 0.950 . S
C2659 C2658 1.327 . S
C2659 C2663 1.429 . S
C2660 C2643 1.574 . S
C2660 H2654 0.949 . S
C2660 C2664 1.368 . S
C2661 C2642 1.429 . S
C2661 C2655 1.429 . S
C2661 C2662 1.523 . S
C2662 C2643 1.368 . S
C2662 C2656 1.368 . S
C2662 C2661 1.523 . S
C2663 C2647 1.429 . S
C2663 C2659 1.429 . S
C2663 C2664 1.523 . S
C2664 C2648 1.368 . S
C2664 C2660 1.368 . S
C2664 C2663 1.523 . S
H2665 C2640 0.950 . S
H2666 C2642 0.950 . S
H2667 C2643 0.949 . S
H2668 C2645 0.950 . S
H2669 C2647 0.950 . S
C2670 C2671 1.349 . S
C2670 C2672 1.327 . S
C2670 H2695 0.950 . S
C2671 C2670 1.349 . S
C2671 C2687 1.349 . S
C2672 C2670 1.327 . S
C2672 C2691 1.429 . S
C2672 H2696 0.950 . S
C2673 C2690 1.574 . S
C2673 C2692 1.368 . S
C2673 H2697 0.949 . S
H2674 C2678 0.949 . S
C2675 C2676 1.349 . S
C2675 C2677 1.327 . S
C2675 H2698 0.950 . S
C2676 C2675 1.349 . S
C2676 C2688 1.349 . S
C2677 C2675 1.327 . S
C2677 C2693 1.429 . S
C2677 H2699 0.950 . S
C2678 H2674 0.949 . S
C2678 C2686 1.574 . S
C2678 C2694 1.368 . S
H2679 C2687 0.950 . S
H2680 C2685 0.950 . S
H2681 C2686 0.949 . S
H2682 C2688 0.950 . S
H2683 C2689 0.950 . S
H2684 C2690 0.949 . S
C2685 H2680 0.950 . S
C2685 C2687 1.327 . S
C2685 C2691 1.429 . S
C2686 C2678 1.574 . S
C2686 H2681 0.949 . S
C2686 C2692 1.368 . S
C2687 C2671 1.349 . S
C2687 H2679 0.950 . S
C2687 C2685 1.327 . S
C2688 C2676 1.349 . S
C2688 H2682 0.950 . S
C2688 C2689 1.327 . S
C2689 H2683 0.950 . S
C2689 C2688 1.327 . S
C2689 C2693 1.429 . S
C2690 C2673 1.574 . S
C2690 H2684 0.949 . S
C2690 C2694 1.368 . S
C2691 C2672 1.429 . S
C2691 C2685 1.429 . S
C2691 C2692 1.523 . S
C2692 C2673 1.368 . S
C2692 C2686 1.368 . S
C2692 C2691 1.523 . S
C2693 C2677 1.429 . S
C2693 C2689 1.429 . S
C2693 C2694 1.523 . S
C2694 C2678 1.368 . S
C2694 C2690 1.368 . S
C2694 C2693 1.523 . S
H2695 C2670 0.950 . S
H2696 C2672 0.950 . S
H2697 C2673 0.949 . S
H2698 C2675 0.950 . S
H2699 C2677 0.950 . S
C2700 C2701 1.349 . S
C2700 C2702 1.327 . S
C2700 H2725 0.950 . S
C2701 C2700 1.349 . S
C2701 C2717 1.349 . S
C2702 C2700 1.327 . S
C2702 C2721 1.429 . S
C2702 H2726 0.950 . S
C2703 C2720 1.574 . S
C2703 C2722 1.368 . S
C2703 H2727 0.949 . S
H2704 C2708 0.949 . S
C2705 C2706 1.349 . S
C2705 C2707 1.327 . S
C2705 H2728 0.950 . S
C2706 C2705 1.349 . S
C2706 C2718 1.349 . S
C2707 C2705 1.327 . S
C2707 C2723 1.429 . S
C2707 H2729 0.950 . S
C2708 H2704 0.949 . S
C2708 C2716 1.574 . S
C2708 C2724 1.368 . S
H2709 C2717 0.950 . S
H2710 C2715 0.950 . S
H2711 C2716 0.949 . S
H2712 C2718 0.950 . S
H2713 C2719 0.950 . S
H2714 C2720 0.949 . S
C2715 H2710 0.950 . S
C2715 C2717 1.327 . S
C2715 C2721 1.429 . S
C2716 C2708 1.574 . S
C2716 H2711 0.949 . S
C2716 C2722 1.368 . S
C2717 C2701 1.349 . S
C2717 H2709 0.950 . S
C2717 C2715 1.327 . S
C2718 C2706 1.349 . S
C2718 H2712 0.950 . S
C2718 C2719 1.327 . S
C2719 H2713 0.950 . S
C2719 C2718 1.327 . S
C2719 C2723 1.429 . S
C2720 C2703 1.574 . S
C2720 H2714 0.949 . S
C2720 C2724 1.368 . S
C2721 C2702 1.429 . S
C2721 C2715 1.429 . S
C2721 C2722 1.523 . S
C2722 C2703 1.368 . S
C2722 C2716 1.368 . S
C2722 C2721 1.523 . S
C2723 C2707 1.429 . S
C2723 C2719 1.429 . S
C2723 C2724 1.523 . S
C2724 C2708 1.368 . S
C2724 C2720 1.368 . S
C2724 C2723 1.523 . S
H2725 C2700 0.950 . S
H2726 C2702 0.950 . S
H2727 C2703 0.949 . S
H2728 C2705 0.950 . S
H2729 C2707 0.950 . S
C2730 C2731 1.349 . S
C2730 C2732 1.327 . S
C2730 H2755 0.950 . S
C2731 C2730 1.349 . S
C2731 C2747 1.349 . S
C2732 C2730 1.327 . S
C2732 C2751 1.429 . S
C2732 H2756 0.950 . S
C2733 C2750 1.574 . S
C2733 C2752 1.368 . S
C2733 H2757 0.949 . S
H2734 C2738 0.949 . S
C2735 C2736 1.349 . S
C2735 C2737 1.327 . S
C2735 H2758 0.950 . S
C2736 C2735 1.349 . S
C2736 C2748 1.349 . S
C2737 C2735 1.327 . S
C2737 C2753 1.429 . S
C2737 H2759 0.950 . S
C2738 H2734 0.949 . S
C2738 C2746 1.574 . S
C2738 C2754 1.368 . S
H2739 C2747 0.950 . S
H2740 C2745 0.950 . S
H2741 C2746 0.949 . S
H2742 C2748 0.950 . S
H2743 C2749 0.950 . S
H2744 C2750 0.949 . S
C2745 H2740 0.950 . S
C2745 C2747 1.327 . S
C2745 C2751 1.429 . S
C2746 C2738 1.574 . S
C2746 H2741 0.949 . S
C2746 C2752 1.368 . S
C2747 C2731 1.349 . S
C2747 H2739 0.950 . S
C2747 C2745 1.327 . S
C2748 C2736 1.349 . S
C2748 H2742 0.950 . S
C2748 C2749 1.327 . S
C2749 H2743 0.950 . S
C2749 C2748 1.327 . S
C2749 C2753 1.429 . S
C2750 C2733 1.574 . S
C2750 H2744 0.949 . S
C2750 C2754 1.368 . S
C2751 C2732 1.429 . S
C2751 C2745 1.429 . S
C2751 C2752 1.523 . S
C2752 C2733 1.368 . S
C2752 C2746 1.368 . S
C2752 C2751 1.523 . S
C2753 C2737 1.429 . S
C2753 C2749 1.429 . S
C2753 C2754 1.523 . S
C2754 C2738 1.368 . S
C2754 C2750 1.368 . S
C2754 C2753 1.523 . S
H2755 C2730 0.950 . S
H2756 C2732 0.950 . S
H2757 C2733 0.949 . S
H2758 C2735 0.950 . S
H2759 C2737 0.950 . S
C2760 C2761 1.349 . S
C2760 C2762 1.327 . S
C2760 H2785 0.950 . S
C2761 C2760 1.349 . S
C2761 C2777 1.349 . S
C2762 C2760 1.327 . S
C2762 C2781 1.429 . S
C2762 H2786 0.950 . S
C2763 C2780 1.574 . S
C2763 C2782 1.368 . S
C2763 H2787 0.949 . S
H2764 C2768 0.949 . S
C2765 C2766 1.349 . S
C2765 C2767 1.327 . S
C2765 H2788 0.950 . S
C2766 C2765 1.349 . S
C2766 C2778 1.349 . S
C2767 C2765 1.327 . S
C2767 C2783 1.429 . S
C2767 H2789 0.950 . S
C2768 H2764 0.949 . S
C2768 C2776 1.574 . S
C2768 C2784 1.368 . S
H2769 C2777 0.950 . S
H2770 C2775 0.950 . S
H2771 C2776 0.949 . S
H2772 C2778 0.950 . S
H2773 C2779 0.950 . S
H2774 C2780 0.949 . S
C2775 H2770 0.950 . S
C2775 C2777 1.327 . S
C2775 C2781 1.429 . S
C2776 C2768 1.574 . S
C2776 H2771 0.949 . S
C2776 C2782 1.368 . S
C2777 C2761 1.349 . S
C2777 H2769 0.950 . S
C2777 C2775 1.327 . S
C2778 C2766 1.349 . S
C2778 H2772 0.950 . S
C2778 C2779 1.327 . S
C2779 H2773 0.950 . S
C2779 C2778 1.327 . S
C2779 C2783 1.429 . S
C2780 C2763 1.574 . S
C2780 H2774 0.949 . S
C2780 C2784 1.368 . S
C2781 C2762 1.429 . S
C2781 C2775 1.429 . S
C2781 C2782 1.523 . S
C2782 C2763 1.368 . S
C2782 C2776 1.368 . S
C2782 C2781 1.523 . S
C2783 C2767 1.429 . S
C2783 C2779 1.429 . S
C2783 C2784 1.523 . S
C2784 C2768 1.368 . S
C2784 C2780 1.368 . S
C2784 C2783 1.523 . S
H2785 C2760 0.950 . S
H2786 C2762 0.950 . S
H2787 C2763 0.949 . S
H2788 C2765 0.950 . S
H2789 C2767 0.950 . S
C2790 C2791 1.349 . S
C2790 C2792 1.327 . S
C2790 H2815 0.950 . S
C2791 C2790 1.349 . S
C2791 C2807 1.349 . S
C2792 C2790 1.327 . S
C2792 C2811 1.429 . S
C2792 H2816 0.950 . S
C2793 C2810 1.574 . S
C2793 C2812 1.368 . S
C2793 H2817 0.949 . S
H2794 C2798 0.949 . S
C2795 C2796 1.349 . S
C2795 C2797 1.327 . S
C2795 H2818 0.950 . S
C2796 C2795 1.349 . S
C2796 C2808 1.349 . S
C2797 C2795 1.327 . S
C2797 C2813 1.429 . S
C2797 H2819 0.950 . S
C2798 H2794 0.949 . S
C2798 C2806 1.574 . S
C2798 C2814 1.368 . S
H2799 C2807 0.950 . S
H2800 C2805 0.950 . S
H2801 C2806 0.949 . S
H2802 C2808 0.950 . S
H2803 C2809 0.950 . S
H2804 C2810 0.949 . S
C2805 H2800 0.950 . S
C2805 C2807 1.327 . S
C2805 C2811 1.429 . S
C2806 C2798 1.574 . S
C2806 H2801 0.949 . S
C2806 C2812 1.368 . S
C2807 C2791 1.349 . S
C2807 H2799 0.950 . S
C2807 C2805 1.327 . S
C2808 C2796 1.349 . S
C2808 H2802 0.950 . S
C2808 C2809 1.327 . S
C2809 H2803 0.950 . S
C2809 C2808 1.327 . S
C2809 C2813 1.429 . S
C2810 C2793 1.574 . S
C2810 H2804 0.949 . S
C2810 C2814 1.368 . S
C2811 C2792 1.429 . S
C2811 C2805 1.429 . S
C2811 C2812 1.523 . S
C2812 C2793 1.368 . S
C2812 C2806 1.368 . S
C2812 C2811 1.523 . S
C2813 C2797 1.429 . S
C2813 C2809 1.429 . S
C2813 C2814 1.523 . S
C2814 C2798 1.368 . S
C2814 C2810 1.368 . S
C2814 C2813 1.523 . S
H2815 C2790 0.950 . S
H2816 C2792 0.950 . S
H2817 C2793 0.949 . S
H2818 C2795 0.950 . S
H2819 C2797 0.950 . S
C2820 C2821 1.349 . S
C2820 C2822 1.327 . S
C2820 H2845 0.950 . S
C2821 C2820 1.349 . S
C2821 C2837 1.349 . S
C2822 C2820 1.327 . S
C2822 C2841 1.429 . S
C2822 H2846 0.950 . S
C2823 C2840 1.574 . S
C2823 C2842 1.368 . S
C2823 H2847 0.949 . S
H2824 C2828 0.949 . S
C2825 C2826 1.349 . S
C2825 C2827 1.327 . S
C2825 H2848 0.950 . S
C2826 C2825 1.349 . S
C2826 C2838 1.349 . S
C2827 C2825 1.327 . S
C2827 C2843 1.429 . S
C2827 H2849 0.950 . S
C2828 H2824 0.949 . S
C2828 C2836 1.574 . S
C2828 C2844 1.368 . S
H2829 C2837 0.950 . S
H2830 C2835 0.950 . S
H2831 C2836 0.949 . S
H2832 C2838 0.950 . S
H2833 C2839 0.950 . S
H2834 C2840 0.949 . S
C2835 H2830 0.950 . S
C2835 C2837 1.327 . S
C2835 C2841 1.429 . S
C2836 C2828 1.574 . S
C2836 H2831 0.949 . S
C2836 C2842 1.368 . S
C2837 C2821 1.349 . S
C2837 H2829 0.950 . S
C2837 C2835 1.327 . S
C2838 C2826 1.349 . S
C2838 H2832 0.950 . S
C2838 C2839 1.327 . S
C2839 H2833 0.950 . S
C2839 C2838 1.327 . S
C2839 C2843 1.429 . S
C2840 C2823 1.574 . S
C2840 H2834 0.949 . S
C2840 C2844 1.368 . S
C2841 C2822 1.429 . S
C2841 C2835 1.429 . S
C2841 C2842 1.523 . S
C2842 C2823 1.368 . S
C2842 C2836 1.368 . S
C2842 C2841 1.523 . S
C2843 C2827 1.429 . S
C2843 C2839 1.429 . S
C2843 C2844 1.523 . S
C2844 C2828 1.368 . S
C2844 C2840 1.368 . S
C2844 C2843 1.523 . S
H2845 C2820 0.950 . S
H2846 C2822 0.950 . S
H2847 C2823 0.949 . S
H2848 C2825 0.950 . S
H2849 C2827 0.950 . S
C2850 C2851 1.349 . S
C2850 C2852 1.327 . S
C2850 H2875 0.950 . S
C2851 C2850 1.349 . S
C2851 C2867 1.349 . S
C2852 C2850 1.327 . S
C2852 C2871 1.429 . S
C2852 H2876 0.950 . S
C2853 C2870 1.574 . S
C2853 C2872 1.368 . S
C2853 H2877 0.949 . S
H2854 C2858 0.949 . S
C2855 C2856 1.349 . S
C2855 C2857 1.327 . S
C2855 H2878 0.950 . S
C2856 C2855 1.349 . S
C2856 C2868 1.349 . S
C2857 C2855 1.327 . S
C2857 C2873 1.429 . S
C2857 H2879 0.950 . S
C2858 H2854 0.949 . S
C2858 C2866 1.574 . S
C2858 C2874 1.368 . S
H2859 C2867 0.950 . S
H2860 C2865 0.950 . S
H2861 C2866 0.949 . S
H2862 C2868 0.950 . S
H2863 C2869 0.950 . S
H2864 C2870 0.949 . S
C2865 H2860 0.950 . S
C2865 C2867 1.327 . S
C2865 C2871 1.429 . S
C2866 C2858 1.574 . S
C2866 H2861 0.949 . S
C2866 C2872 1.368 . S
C2867 C2851 1.349 . S
C2867 H2859 0.950 . S
C2867 C2865 1.327 . S
C2868 C2856 1.349 . S
C2868 H2862 0.950 . S
C2868 C2869 1.327 . S
C2869 H2863 0.950 . S
C2869 C2868 1.327 . S
C2869 C2873 1.429 . S
C2870 C2853 1.574 . S
C2870 H2864 0.949 . S
C2870 C2874 1.368 . S
C2871 C2852 1.429 . S
C2871 C2865 1.429 . S
C2871 C2872 1.523 . S
C2872 C2853 1.368 . S
C2872 C2866 1.368 . S
C2872 C2871 1.523 . S
C2873 C2857 1.429 . S
C2873 C2869 1.429 . S
C2873 C2874 1.523 . S
C2874 C2858 1.368 . S
C2874 C2870 1.368 . S
C2874 C2873 1.523 . S
H2875 C2850 0.950 . S
H2876 C2852 0.950 . S
H2877 C2853 0.949 . S
H2878 C2855 0.950 . S
H2879 C2857 0.950 . S
C2880 C2881 1.349 . S
C2880 C2882 1.327 . S
C2880 H2905 0.950 . S
C2881 C2880 1.349 . S
C2881 C2897 1.349 . S
C2882 C2880 1.327 . S
C2882 C2901 1.429 . S
C2882 H2906 0.950 . S
C2883 C2900 1.574 . S
C2883 C2902 1.368 . S
C2883 H2907 0.949 . S
H2884 C2888 0.949 . S
C2885 C2886 1.349 . S
C2885 C2887 1.327 . S
C2885 H2908 0.950 . S
C2886 C2885 1.349 . S
C2886 C2898 1.349 . S
C2887 C2885 1.327 . S
C2887 C2903 1.429 . S
C2887 H2909 0.950 . S
C2888 H2884 0.949 . S
C2888 C2896 1.574 . S
C2888 C2904 1.368 . S
H2889 C2897 0.950 . S
H2890 C2895 0.950 . S
H2891 C2896 0.949 . S
H2892 C2898 0.950 . S
H2893 C2899 0.950 . S
H2894 C2900 0.949 . S
C2895 H2890 0.950 . S
C2895 C2897 1.327 . S
C2895 C2901 1.429 . S
C2896 C2888 1.574 . S
C2896 H2891 0.949 . S
C2896 C2902 1.368 . S
C2897 C2881 1.349 . S
C2897 H2889 0.950 . S
C2897 C2895 1.327 . S
C2898 C2886 1.349 . S
C2898 H2892 0.950 . S
C2898 C2899 1.327 . S
C2899 H2893 0.950 . S
C2899 C2898 1.327 . S
C2899 C2903 1.429 . S
C2900 C2883 1.574 . S
C2900 H2894 0.949 . S
C2900 C2904 1.368 . S
C2901 C2882 1.429 . S
C2901 C2895 1.429 . S
C2901 C2902 1.523 . S
C2902 C2883 1.368 . S
C2902 C2896 1.368 . S
C2902 C2901 1.523 . S
C2903 C2887 1.429 . S
C2903 C2899 1.429 . S
C2903 C2904 1.523 . S
C2904 C2888 1.368 . S
C2904 C2900 1.368 . S
C2904 C2903 1.523 . S
H2905 C2880 0.950 . S
H2906 C2882 0.950 . S
H2907 C2883 0.949 . S
H2908 C2885 0.950 . S
H2909 C2887 0.950 . S
C2910 C2911 1.349 . S
C2910 C2912 1.327 . S
C2910 H2935 0.950 . S
C2911 C2910 1.349 . S
C2911 C2927 1.349 . S
C2912 C2910 1.327 . S
C2912 C2931 1.429 . S
C2912 H2936 0.950 . S
C2913 C2930 1.574 . S
C2913 C2932 1.368 . S
C2913 H2937 0.949 . S
H2914 C2918 0.949 . S
C2915 C2916 1.349 . S
C2915 C2917 1.327 . S
C2915 H2938 0.950 . S
C2916 C2915 1.349 . S
C2916 C2928 1.349 . S
C2917 C2915 1.327 . S
C2917 C2933 1.429 . S
C2917 H2939 0.950 . S
C2918 H2914 0.949 . S
C2918 C2926 1.574 . S
C2918 C2934 1.368 . S
H2919 C2927 0.950 . S
H2920 C2925 0.950 . S
H2921 C2926 0.949 . S
H2922 C2928 0.950 . S
H2923 C2929 0.950 . S
H2924 C2930 0.949 . S
C2925 H2920 0.950 . S
C2925 C2927 1.327 . S
C2925 C2931 1.429 . S
C2926 C2918 1.574 . S
C2926 H2921 0.949 . S
C2926 C2932 1.368 . S
C2927 C2911 1.349 . S
C2927 H2919 0.950 . S
C2927 C2925 1.327 . S
C2928 C2916 1.349 . S
C2928 H2922 0.950 . S
C2928 C2929 1.327 . S
C2929 H2923 0.950 . S
C2929 C2928 1.327 . S
C2929 C2933 1.429 . S
C2930 C2913 1.574 . S
C2930 H2924 0.949 . S
C2930 C2934 1.368 . S
C2931 C2912 1.429 . S
C2931 C2925 1.429 . S
C2931 C2932 1.523 . S
C2932 C2913 1.368 . S
C2932 C2926 1.368 . S
C2932 C2931 1.523 . S
C2933 C2917 1.429 . S
C2933 C2929 1.429 . S
C2933 C2934 1.523 . S
C2934 C2918 1.368 . S
C2934 C2930 1.368 . S
C2934 C2933 1.523 . S
H2935 C2910 0.950 . S
H2936 C2912 0.950 . S
H2937 C2913 0.949 . S
H2938 C2915 0.950 . S
H2939 C2917 0.950 . S
C2940 C2941 1.349 . S
C2940 C2942 1.327 . S
C2940 H2965 0.950 . S
C2941 C2940 1.349 . S
C2941 C2957 1.349 . S
C2942 C2940 1.327 . S
C2942 C2961 1.429 . S
C2942 H2966 0.950 . S
C2943 C2960 1.574 . S
C2943 C2962 1.368 . S
C2943 H2967 0.949 . S
H2944 C2948 0.949 . S
C2945 C2946 1.349 . S
C2945 C2947 1.327 . S
C2945 H2968 0.950 . S
C2946 C2945 1.349 . S
C2946 C2958 1.349 . S
C2947 C2945 1.327 . S
C2947 C2963 1.429 . S
C2947 H2969 0.950 . S
C2948 H2944 0.949 . S
C2948 C2956 1.574 . S
C2948 C2964 1.368 . S
H2949 C2957 0.950 . S
H2950 C2955 0.950 . S
H2951 C2956 0.949 . S
H2952 C2958 0.950 . S
H2953 C2959 0.950 . S
H2954 C2960 0.949 . S
C2955 H2950 0.950 . S
C2955 C2957 1.327 . S
C2955 C2961 1.429 . S
C2956 C2948 1.574 . S
C2956 H2951 0.949 . S
C2956 C2962 1.368 . S
C2957 C2941 1.349 . S
C2957 H2949 0.950 . S
C2957 C2955 1.327 . S
C2958 C2946 1.349 . S
C2958 H2952 0.950 . S
C2958 C2959 1.327 . S
C2959 H2953 0.950 . S
C2959 C2958 1.327 . S
C2959 C2963 1.429 . S
C2960 C2943 1.574 . S
C2960 H2954 0.949 . S
C2960 C2964 1.368 . S
C2961 C2942 1.429 . S
C2961 C2955 1.429 . S
C2961 C2962 1.523 . S
C2962 C2943 1.368 . S
C2962 C2956 1.368 . S
C2962 C2961 1.523 . S
C2963 C2947 1.429 . S
C2963 C2959 1.429 . S
C2963 C2964 1.523 . S
C2964 C2948 1.368 . S
C2964 C2960 1.368 . S
C2964 C2963 1.523 . S
H2965 C2940 0.950 . S
H2966 C2942 0.950 . S
H2967 C2943 0.949 . S
H2968 C2945 0.950 . S
H2969 C2947 0.950 . S
C2970 C2971 1.349 . S
C2970 C2972 1.327 . S
C2970 H2995 0.950 . S
C2971 C2970 1.349 . S
C2971 C2987 1.349 . S
C2972 C2970 1.327 . S
C2972 C2991 1.429 . S
C2972 H2996 0.950 . S
C2973 C2990 1.574 . S
C2973 C2992 1.368 . S
C2973 H2997 0.949 . S
H2974 C2978 0.949 . S
C2975 C2976 1.349 . S
C2975 C2977 1.327 . S
C2975 H2998 0.950 . S
C2976 C2975 1.349 . S
C2976 C2988 1.349 . S
C2977 C2975 1.327 . S
C2977 C2993 1.429 . S
C2977 H2999 0.950 . S
C2978 H2974 0.949 . S
C2978 C2986 1.574 . S
C2978 C2994 1.368 . S
H2979 C2987 0.950 . S
H2980 C2985 0.950 . S
H2981 C2986 0.949 . S
H2982 C2988 0.950 . S
H2983 C2989 0.950 . S
H2984 C2990 0.949 . S
C2985 H2980 0.950 . S
C2985 C2987 1.327 . S
C2985 C2991 1.429 . S
C2986 C2978 1.574 . S
C2986 H2981 0.949 . S
C2986 C2992 1.368 . S
C2987 C2971 1.349 . S
C2987 H2979 0.950 . S
C2987 C2985 1.327 . S
C2988 C2976 1.349 . S
C2988 H2982 0.950 . S
C2988 C2989 1.327 . S
C2989 H2983 0.950 . S
C2989 C2988 1.327 . S
C2989 C2993 1.429 . S
C2990 C2973 1.574 . S
C2990 H2984 0.949 . S
C2990 C2994 1.368 . S
C2991 C2972 1.429 . S
C2991 C2985 1.429 . S
C2991 C2992 1.523 . S
C2992 C2973 1.368 . S
C2992 C2986 1.368 . S
C2992 C2991 1.523 . S
C2993 C2977 1.429 . S
C2993 C2989 1.429 . S
C2993 C2994 1.523 . S
C2994 C2978 1.368 . S
C2994 C2990 1.368 . S
C2994 C2993 1.523 . S
H2995 C2970 0.950 . S
H2996 C2972 0.950 . S
H2997 C2973 0.949 . S
H2998 C2975 0.950 . S
H2999 C2977 0.950 . S
C3000 C3001 1.349 . S
C3000 C3002 1.327 . S
C3000 H3025 0.950 . S
C3001 C3000 1.349 . S
C3001 C3017 1.349 . S
C3002 C3000 1.327 . S
C3002 C3021 1.429 . S
C3002 H3026 0.950 . S
C3003 C3020 1.574 . S
C3003 C3022 1.368 . S
C3003 H3027 0.949 . S
H3004 C3008 0.949 . S
C3005 C3006 1.349 . S
C3005 C3007 1.327 . S
C3005 H3028 0.950 . S
C3006 C3005 1.349 . S
C3006 C3018 1.349 . S
C3007 C3005 1.327 . S
C3007 C3023 1.429 . S
C3007 H3029 0.950 . S
C3008 H3004 0.949 . S
C3008 C3016 1.574 . S
C3008 C3024 1.368 . S
H3009 C3017 0.950 . S
H3010 C3015 0.950 . S
H3011 C3016 0.949 . S
H3012 C3018 0.950 . S
H3013 C3019 0.950 . S
H3014 C3020 0.949 . S
C3015 H3010 0.950 . S
C3015 C3017 1.327 . S
C3015 C3021 1.429 . S
C3016 C3008 1.574 . S
C3016 H3011 0.949 . S
C3016 C3022 1.368 . S
C3017 C3001 1.349 . S
C3017 H3009 0.950 . S
C3017 C3015 1.327 . S
C3018 C3006 1.349 . S
C3018 H3012 0.950 . S
C3018 C3019 1.327 . S
C3019 H3013 0.950 . S
C3019 C3018 1.327 . S
C3019 C3023 1.429 . S
C3020 C3003 1.574 . S
C3020 H3014 0.949 . S
C3020 C3024 1.368 . S
C3021 C3002 1.429 . S
C3021 C3015 1.429 . S
C3021 C3022 1.523 . S
C3022 C3003 1.368 . S
C3022 C3016 1.368 . S
C3022 C3021 1.523 . S
C3023 C3007 1.429 . S
C3023 C3019 1.429 . S
C3023 C3024 1.523 . S
C3024 C3008 1.368 . S
C3024 C3020 1.368 . S
C3024 C3023 1.523 . S
H3025 C3000 0.950 . S
H3026 C3002 0.950 . S
H3027 C3003 0.949 . S
H3028 C3005 0.950 . S
H3029 C3007 0.950 . S
C3030 C3031 1.349 . S
C3030 C3032 1.327 . S
C3030 H3055 0.950 . S
C3031 C3030 1.349 . S
C3031 C3047 1.349 . S
C3032 C3030 1.327 . S
C3032 C3051 1.429 . S
C3032 H3056 0.950 . S
C3033 C3050 1.574 . S
C3033 C3052 1.368 . S
C3033 H3057 0.949 . S
H3034 C3038 0.949 . S
C3035 C3036 1.349 . S
C3035 C3037 1.327 . S
C3035 H3058 0.950 . S
C3036 C3035 1.349 . S
C3036 C3048 1.349 . S
C3037 C3035 1.327 . S
C3037 C3053 1.429 . S
C3037 H3059 0.950 . S
C3038 H3034 0.949 . S
C3038 C3046 1.574 . S
C3038 C3054 1.368 . S
H3039 C3047 0.950 . S
H3040 C3045 0.950 . S
H3041 C3046 0.949 . S
H3042 C3048 0.950 . S
H3043 C3049 0.950 . S
H3044 C3050 0.949 . S
C3045 H3040 0.950 . S
C3045 C3047 1.327 . S
C3045 C3051 1.429 . S
C3046 C3038 1.574 . S
C3046 H3041 0.949 . S
C3046 C3052 1.368 . S
C3047 C3031 1.349 . S
C3047 H3039 0.950 . S
C3047 C3045 1.327 . S
C3048 C3036 1.349 . S
C3048 H3042 0.950 . S
C3048 C3049 1.327 . S
C3049 H3043 0.950 . S
C3049 C3048 1.327 . S
C3049 C3053 1.429 . S
C3050 C3033 1.574 . S
C3050 H3044 0.949 . S
C3050 C3054 1.368 . S
C3051 C3032 1.429 . S
C3051 C3045 1.429 . S
C3051 C3052 1.523 . S
C3052 C3033 1.368 . S
C3052 C3046 1.368 . S
C3052 C3051 1.523 . S
C3053 C3037 1.429 . S
C3053 C3049 1.429 . S
C3053 C3054 1.523 . S
C3054 C3038 1.368 . S
C3054 C3050 1.368 . S
C3054 C3053 1.523 . S
H3055 C3030 0.950 . S
H3056 C3032 0.950 . S
H3057 C3033 0.949 . S
H3058 C3035 0.950 . S
H3059 C3037 0.950 . S
C3060 C3061 1.349 . S
C3060 C3062 1.327 . S
C3060 H3085 0.950 . S
C3061 C3060 1.349 . S
C3061 C3077 1.349 . S
C3062 C3060 1.327 . S
C3062 C3081 1.429 . S
C3062 H3086 0.950 . S
C3063 C3080 1.574 . S
C3063 C3082 1.368 . S
C3063 H3087 0.949 . S
H3064 C3068 0.949 . S
C3065 C3066 1.349 . S
C3065 C3067 1.327 . S
C3065 H3088 0.950 . S
C3066 C3065 1.349 . S
C3066 C3078 1.349 . S
C3067 C3065 1.327 . S
C3067 C3083 1.429 . S
C3067 H3089 0.950 . S
C3068 H3064 0.949 . S
C3068 C3076 1.574 . S
C3068 C3084 1.368 . S
H3069 C3077 0.950 . S
H3070 C3075 0.950 . S
H3071 C3076 0.949 . S
H3072 C3078 0.950 . S
H3073 C3079 0.950 . S
H3074 C3080 0.949 . S
C3075 H3070 0.950 . S
C3075 C3077 1.327 . S
C3075 C3081 1.429 . S
C3076 C3068 1.574 . S
C3076 H3071 0.949 . S
C3076 C3082 1.368 . S
C3077 C3061 1.349 . S
C3077 H3069 0.950 . S
C3077 C3075 1.327 . S
C3078 C3066 1.349 . S
C3078 H3072 0.950 . S
C3078 C3079 1.327 . S
C3079 H3073 0.950 . S
C3079 C3078 1.327 . S
C3079 C3083 1.429 . S
C3080 C3063 1.574 . S
C3080 H3074 0.949 . S
C3080 C3084 1.368 . S
C3081 C3062 1.429 . S
C3081 C3075 1.429 . S
C3081 C3082 1.523 . S
C3082 C3063 1.368 . S
C3082 C3076 1.368 . S
C3082 C3081 1.523 . S
C3083 C3067 1.429 . S
C3083 C3079 1.429 . S
C3083 C3084 1.523 . S
C3084 C3068 1.368 . S
C3084 C3080 1.368 . S
C3084 C3083 1.523 . S
H3085 C3060 0.950 . S
H3086 C3062 0.950 . S
H3087 C3063 0.949 . S
H3088 C3065 0.950 . S
H3089 C3067 0.950 . S
C3090 C3091 1.349 . S
C3090 C3092 1.327 . S
C3090 H3115 0.950 . S
C3091 C3090 1.349 . S
C3091 C3107 1.349 . S
C3092 C3090 1.327 . S
C3092 C3111 1.429 . S
C3092 H3116 0.950 . S
C3093 C3110 1.574 . S
C3093 C3112 1.368 . S
C3093 H3117 0.949 . S
H3094 C3098 0.949 . S
C3095 C3096 1.349 . S
C3095 C3097 1.327 . S
C3095 H3118 0.950 . S
C3096 C3095 1.349 . S
C3096 C3108 1.349 . S
C3097 C3095 1.327 . S
C3097 C3113 1.429 . S
C3097 H3119 0.950 . S
C3098 H3094 0.949 . S
C3098 C3106 1.574 . S
C3098 C3114 1.368 . S
H3099 C3107 0.950 . S
H3100 C3105 0.950 . S
H3101 C3106 0.949 . S
H3102 C3108 0.950 . S
H3103 C3109 0.950 . S
H3104 C3110 0.949 . S
C3105 H3100 0.950 . S
C3105 C3107 1.327 . S
C3105 C3111 1.429 . S
C3106 C3098 1.574 . S
C3106 H3101 0.949 . S
C3106 C3112 1.368 . S
C3107 C3091 1.349 . S
C3107 H3099 0.950 . S
C3107 C3105 1.327 . S
C3108 C3096 1.349 . S
C3108 H3102 0.950 . S
C3108 C3109 1.327 . S
C3109 H3103 0.950 . S
C3109 C3108 1.327 . S
C3109 C3113 1.429 . S
C3110 C3093 1.574 . S
C3110 H3104 0.949 . S
C3110 C3114 1.368 . S
C3111 C3092 1.429 . S
C3111 C3105 1.429 . S
C3111 C3112 1.523 . S
C3112 C3093 1.368 . S
C3112 C3106 1.368 . S
C3112 C3111 1.523 . S
C3113 C3097 1.429 . S
C3113 C3109 1.429 . S
C3113 C3114 1.523 . S
C3114 C3098 1.368 . S
C3114 C3110 1.368 . S
C3114 C3113 1.523 . S
H3115 C3090 0.950 . S
H3116 C3092 0.950 . S
H3117 C3093 0.949 . S
H3118 C3095 0.950 . S
H3119 C3097 0.950 . S
C3120 C3121 1.349 . S
C3120 C3122 1.327 . S
C3120 H3145 0.950 . S
C3121 C3120 1.349 . S
C3121 C3137 1.349 . S
C3122 C3120 1.327 . S
C3122 C3141 1.429 . S
C3122 H3146 0.950 . S
C3123 C3140 1.574 . S
C3123 C3142 1.368 . S
C3123 H3147 0.949 . S
H3124 C3128 0.949 . S
C3125 C3126 1.349 . S
C3125 C3127 1.327 . S
C3125 H3148 0.950 . S
C3126 C3125 1.349 . S
C3126 C3138 1.349 . S
C3127 C3125 1.327 . S
C3127 C3143 1.429 . S
C3127 H3149 0.950 . S
C3128 H3124 0.949 . S
C3128 C3136 1.574 . S
C3128 C3144 1.368 . S
H3129 C3137 0.950 . S
H3130 C3135 0.950 . S
H3131 C3136 0.949 . S
H3132 C3138 0.950 . S
H3133 C3139 0.950 . S
H3134 C3140 0.949 . S
C3135 H3130 0.950 . S
C3135 C3137 1.327 . S
C3135 C3141 1.429 . S
C3136 C3128 1.574 . S
C3136 H3131 0.949 . S
C3136 C3142 1.368 . S
C3137 C3121 1.349 . S
C3137 H3129 0.950 . S
C3137 C3135 1.327 . S
C3138 C3126 1.349 . S
C3138 H3132 0.950 . S
C3138 C3139 1.327 . S
C3139 H3133 0.950 . S
C3139 C3138 1.327 . S
C3139 C3143 1.429 . S
C3140 C3123 1.574 . S
C3140 H3134 0.949 . S
C3140 C3144 1.368 . S
C3141 C3122 1.429 . S
C3141 C3135 1.429 . S
C3141 C3142 1.523 . S
C3142 C3123 1.368 . S
C3142 C3136 1.368 . S
C3142 C3141 1.523 . S
C3143 C3127 1.429 . S
C3143 C3139 1.429 . S
C3143 C3144 1.523 . S
C3144 C3128 1.368 . S
C3144 C3140 1.368 . S
C3144 C3143 1.523 . S
H3145 C3120 0.950 . S
H3146 C3122 0.950 . S
H3147 C3123 0.949 . S
H3148 C3125 0.950 . S
H3149 C3127 0.950 . S
C3150 C3151 1.349 . S
C3150 C3152 1.327 . S
C3150 H3175 0.950 . S
C3151 C3150 1.349 . S
C3151 C3167 1.349 1_554 S
C3152 C3150 1.327 . S
C3152 C3171 1.429 1_554 S
C3152 H3176 0.950 . S
C3153 C3170 1.574 . S
C3153 C3172 1.368 . S
C3153 H3177 0.949 . S
H3154 C3158 0.949 . S
C3155 C3156 1.349 . S
C3155 C3157 1.327 . S
C3155 H3178 0.950 . S
C3156 C3155 1.349 . S
C3156 C3168 1.349 . S
C3157 C3155 1.327 . S
C3157 C3173 1.429 . S
C3157 H3179 0.950 . S
C3158 H3154 0.949 . S
C3158 C3166 1.574 . S
C3158 C3174 1.368 . S
H3159 C3167 0.950 . S
H3160 C3165 0.950 . S
H3161 C3166 0.906 1_554 S
H3162 C3168 0.950 . S
H3163 C3169 0.950 . S
H3164 C3170 0.949 . S
C3165 H3160 0.950 . S
C3165 C3167 1.327 . S
C3165 C3171 1.429 . S
C3166 C3158 1.574 . S
C3166 H3161 0.906 1_556 S
C3166 C3172 1.368 . S
C3167 C3151 1.349 1_556 S
C3167 H3159 0.950 . S
C3167 C3165 1.327 . S
C3168 C3156 1.349 . S
C3168 H3162 0.950 . S
C3168 C3169 1.327 . S
C3169 H3163 0.950 . S
C3169 C3168 1.327 . S
C3169 C3173 1.429 . S
C3170 C3153 1.574 . S
C3170 H3164 0.949 . S
C3170 C3174 1.368 . S
C3171 C3152 1.429 1_556 S
C3171 C3165 1.429 . S
C3171 C3172 1.523 . S
C3172 C3153 1.368 . S
C3172 C3166 1.368 . S
C3172 C3171 1.523 . S
C3173 C3157 1.429 . S
C3173 C3169 1.429 . S
C3173 C3174 1.523 . S
C3174 C3158 1.368 . S
C3174 C3170 1.368 . S
C3174 C3173 1.523 . S
H3175 C3150 0.950 . S
H3176 C3152 0.950 . S
H3177 C3153 0.949 . S
H3178 C3155 0.950 . S
H3179 C3157 0.950 . S
C3180 C3181 1.349 . S
C3180 C3182 1.327 . S
C3180 H3205 0.950 . S
C3181 C3180 1.349 . S
C3181 C3197 1.362 . S
C3182 C3180 1.327 . S
C3182 C3201 1.429 . S
C3182 H3206 0.950 . S
C3183 C3200 1.574 . S
C3183 C3202 1.368 . S
C3183 H3207 0.949 . S
H3184 C3188 0.949 . S
C3185 C3186 1.349 . S
C3185 C3187 1.327 . S
C3185 H3208 0.950 . S
C3186 C3185 1.349 . S
C3186 C3198 1.349 . S
C3187 C3185 1.327 . S
C3187 C3203 1.429 . S
C3187 H3209 0.950 . S
C3188 H3184 0.949 . S
C3188 C3196 1.574 . S
C3188 C3204 1.368 . S
H3189 C3197 0.922 1_554 S
H3190 C3195 0.950 . S
H3191 C3196 0.949 . S
H3192 C3198 0.950 . S
H3193 C3199 0.950 . S
H3194 C3200 0.949 . S
C3195 H3190 0.950 . S
C3195 C3197 1.342 . S
C3195 C3201 1.429 . S
C3196 C3188 1.574 . S
C3196 H3191 0.949 . S
C3196 C3202 1.368 . S
C3197 C3181 1.362 . S
C3197 H3189 0.922 1_556 S
C3197 C3195 1.342 . S
C3198 C3186 1.349 . S
C3198 H3192 0.950 . S
C3198 C3199 1.327 . S
C3199 H3193 0.950 . S
C3199 C3198 1.327 . S
C3199 C3203 1.429 . S
C3200 C3183 1.574 . S
C3200 H3194 0.949 . S
C3200 C3204 1.368 . S
C3201 C3182 1.429 . S
C3201 C3195 1.429 . S
C3201 C3202 1.523 . S
C3202 C3183 1.368 . S
C3202 C3196 1.368 . S
C3202 C3201 1.523 . S
C3203 C3187 1.429 . S
C3203 C3199 1.429 . S
C3203 C3204 1.523 . S
C3204 C3188 1.368 . S
C3204 C3200 1.368 . S
C3204 C3203 1.523 . S
H3205 C3180 0.950 . S
H3206 C3182 0.950 . S
H3207 C3183 0.949 . S
H3208 C3185 0.950 . S
H3209 C3187 0.950 . S
C3210 C3211 1.349 . S
C3210 C3212 1.327 . S
C3210 H3235 0.950 . S
C3211 C3210 1.349 . S
C3211 C3227 1.349 . S
C3212 C3210 1.327 . S
C3212 C3231 1.429 . S
C3212 H3236 0.950 . S
C3213 C3230 1.574 . S
C3213 C3232 1.368 1_556 S
C3213 H3237 0.949 . S
H3214 C3218 0.949 . S
C3215 C3216 1.349 . S
C3215 C3217 1.327 . S
C3215 H3238 0.950 . S
C3216 C3215 1.349 . S
C3216 C3228 1.349 . S
C3217 C3215 1.327 . S
C3217 C3233 1.429 . S
C3217 H3239 0.950 . S
C3218 H3214 0.949 . S
C3218 C3226 1.574 . S
C3218 C3234 1.368 1_554 S
H3219 C3227 0.950 . S
H3220 C3225 0.950 1_556 S
H3221 C3226 0.949 . S
H3222 C3228 0.950 . S
H3223 C3229 0.950 1_554 S
H3224 C3230 0.949 . S
C3225 H3220 0.950 1_554 S
C3225 C3227 1.327 . S
C3225 C3231 1.429 . S
C3226 C3218 1.574 . S
C3226 H3221 0.949 . S
C3226 C3232 1.368 . S
C3227 C3211 1.349 . S
C3227 H3219 0.950 . S
C3227 C3225 1.327 . S
C3228 C3216 1.349 . S
C3228 H3222 0.950 . S
C3228 C3229 1.327 . S
C3229 H3223 0.950 1_556 S
C3229 C3228 1.327 . S
C3229 C3233 1.429 . S
C3230 C3213 1.574 . S
C3230 H3224 0.949 . S
C3230 C3234 1.368 . S
C3231 C3212 1.429 . S
C3231 C3225 1.429 . S
C3231 C3232 1.523 . S
C3232 C3213 1.368 1_554 S
C3232 C3226 1.368 . S
C3232 C3231 1.523 . S
C3233 C3217 1.429 . S
C3233 C3229 1.429 . S
C3233 C3234 1.523 . S
C3234 C3218 1.368 1_556 S
C3234 C3230 1.368 . S
C3234 C3233 1.523 . S
H3235 C3210 0.950 . S
H3236 C3212 0.950 . S
H3237 C3213 0.949 . S
H3238 C3215 0.950 . S
H3239 C3217 0.950 . S
C3240 C3241 1.349 . S
C3240 C3242 1.327 . S
C3240 H3265 0.950 . S
C3241 C3240 1.349 . S
C3241 C3257 1.349 1_554 S
C3242 C3240 1.327 . S
C3242 C3261 1.429 1_554 S
C3242 H3266 0.950 . S
C3243 C3260 1.574 . S
C3243 C3262 1.368 . S
C3243 H3267 0.949 . S
H3244 C3248 0.949 . S
C3245 C3246 1.349 . S
C3245 C3247 1.327 . S
C3245 H3268 0.950 . S
C3246 C3245 1.349 . S
C3246 C3258 1.349 . S
C3247 C3245 1.327 . S
C3247 C3263 1.429 . S
C3247 H3269 0.950 . S
C3248 H3244 0.949 . S
C3248 C3256 1.574 . S
C3248 C3264 1.368 . S
H3249 C3257 0.950 . S
H3250 C3255 0.950 . S
H3251 C3256 0.949 1_554 S
H3252 C3258 0.950 . S
H3253 C3259 0.950 . S
H3254 C3260 0.949 . S
C3255 H3250 0.950 . S
C3255 C3257 1.327 . S
C3255 C3261 1.429 . S
C3256 C3248 1.574 . S
C3256 H3251 0.949 1_556 S
C3256 C3262 1.368 . S
C3257 C3241 1.349 1_556 S
C3257 H3249 0.950 . S
C3257 C3255 1.327 . S
C3258 C3246 1.349 . S
C3258 H3252 0.950 . S
C3258 C3259 1.327 . S
C3259 H3253 0.950 . S
C3259 C3258 1.327 . S
C3259 C3263 1.429 . S
C3260 C3243 1.574 . S
C3260 H3254 0.949 . S
C3260 C3264 1.368 . S
C3261 C3242 1.429 1_556 S
C3261 C3255 1.429 . S
C3261 C3262 1.523 . S
C3262 C3243 1.368 . S
C3262 C3256 1.368 . S
C3262 C3261 1.523 . S
C3263 C3247 1.429 . S
C3263 C3259 1.429 . S
C3263 C3264 1.523 . S
C3264 C3248 1.368 . S
C3264 C3260 1.368 . S
C3264 C3263 1.523 . S
H3265 C3240 0.950 . S
H3266 C3242 0.950 . S
H3267 C3243 0.949 . S
H3268 C3245 0.950 . S
H3269 C3247 0.950 . S
C3270 C3271 1.349 . S
C3270 C3272 1.327 . S
C3270 H3295 0.950 . S
C3271 C3270 1.349 . S
C3271 C3287 1.349 . S
C3272 C3270 1.327 . S
C3272 C3291 1.429 . S
C3272 H3296 0.950 . S
C3273 C3290 1.574 . S
C3273 C3292 1.368 . S
C3273 H3297 0.949 . S
H3274 C3278 0.949 . S
C3275 C3276 1.349 . S
C3275 C3277 1.327 . S
C3275 H3298 0.950 . S
C3276 C3275 1.349 . S
C3276 C3288 1.349 . S
C3277 C3275 1.327 . S
C3277 C3293 1.429 . S
C3277 H3299 0.950 . S
C3278 H3274 0.949 . S
C3278 C3286 1.574 . S
C3278 C3294 1.368 . S
H3279 C3287 0.950 . S
H3280 C3285 0.950 . S
H3281 C3286 0.949 . S
H3282 C3288 0.950 . S
H3283 C3289 0.950 . S
H3284 C3290 0.949 . S
C3285 H3280 0.950 . S
C3285 C3287 1.327 . S
C3285 C3291 1.429 . S
C3286 C3278 1.574 . S
C3286 H3281 0.949 . S
C3286 C3292 1.368 . S
C3287 C3271 1.349 . S
C3287 H3279 0.950 . S
C3287 C3285 1.327 . S
C3288 C3276 1.349 . S
C3288 H3282 0.950 . S
C3288 C3289 1.327 . S
C3289 H3283 0.950 . S
C3289 C3288 1.327 . S
C3289 C3293 1.429 . S
C3290 C3273 1.574 . S
C3290 H3284 0.949 . S
C3290 C3294 1.368 . S
C3291 C3272 1.429 . S
C3291 C3285 1.429 . S
C3291 C3292 1.523 . S
C3292 C3273 1.368 . S
C3292 C3286 1.368 . S
C3292 C3291 1.523 . S
C3293 C3277 1.429 . S
C3293 C3289 1.429 . S
C3293 C3294 1.523 . S
C3294 C3278 1.368 . S
C3294 C3290 1.368 . S
C3294 C3293 1.523 . S
H3295 C3270 0.950 . S
H3296 C3272 0.950 . S
H3297 C3273 0.949 . S
H3298 C3275 0.950 . S
H3299 C3277 0.950 . S
C3300 C3301 1.349 . S
C3300 C3302 1.327 1_554 S
C3300 H3325 0.950 1_554 S
C3301 C3300 1.349 . S
C3301 C3317 1.349 . S
C3302 C3300 1.327 1_556 S
C3302 C3321 1.429 1_556 S
C3302 H3326 0.950 . S
C3303 C3320 1.574 1_554 S
C3303 C3322 1.368 1_554 S
C3303 H3327 0.949 . S
H3304 C3308 0.949 . S
C3305 C3306 1.349 . S
C3305 C3307 1.327 . S
C3305 H3328 0.950 . S
C3306 C3305 1.349 . S
C3306 C3318 1.349 . S
C3307 C3305 1.327 . S
C3307 C3323 1.429 . S
C3307 H3329 0.950 . S
C3308 H3304 0.949 . S
C3308 C3316 1.574 . S
C3308 C3324 1.368 . S
H3309 C3317 0.950 . S
H3310 C3315 0.950 . S
H3311 C3316 0.949 . S
H3312 C3318 0.950 . S
H3313 C3319 0.950 . S
H3314 C3320 0.950 1_554 S
C3315 H3310 0.950 . S
C3315 C3317 1.327 . S
C3315 C3321 1.429 . S
C3316 C3308 1.574 . S
C3316 H3311 0.949 . S
C3316 C3322 1.368 . S
C3317 C3301 1.349 . S
C3317 H3309 0.950 . S
C3317 C3315 1.327 . S
C3318 C3306 1.349 . S
C3318 H3312 0.950 . S
C3318 C3319 1.327 . S
C3319 H3313 0.950 . S
C3319 C3318 1.327 . S
C3319 C3323 1.429 . S
C3320 C3303 1.574 1_556 S
C3320 H3314 0.950 1_556 S
C3320 C3324 1.368 . S
C3321 C3302 1.429 1_554 S
C3321 C3315 1.429 . S
C3321 C3322 1.523 1_554 S
C3322 C3303 1.368 1_556 S
C3322 C3316 1.368 . S
C3322 C3321 1.523 1_556 S
C3323 C3307 1.429 . S
C3323 C3319 1.429 . S
C3323 C3324 1.523 . S
C3324 C3308 1.368 . S
C3324 C3320 1.368 . S
C3324 C3323 1.523 . S
H3325 C3300 0.950 1_556 S
H3326 C3302 0.950 . S
H3327 C3303 0.949 . S
H3328 C3305 0.950 . S
H3329 C3307 0.950 . S
C3330 C3331 1.349 . S
C3330 C3332 1.327 . S
C3330 H3355 0.950 . S
C3331 C3330 1.349 . S
C3331 C3347 1.349 . S
C3332 C3330 1.327 . S
C3332 C3351 1.429 . S
C3332 H3356 0.950 . S
C3333 C3350 1.574 . S
C3333 C3352 1.368 . S
C3333 H3357 0.949 . S
H3334 C3338 0.949 . S
C3335 C3336 1.349 . S
C3335 C3337 1.327 . S
C3335 H3358 0.950 . S
C3336 C3335 1.349 . S
C3336 C3348 1.349 . S
C3337 C3335 1.327 . S
C3337 C3353 1.429 . S
C3337 H3359 0.950 . S
C3338 H3334 0.949 . S
C3338 C3346 1.574 . S
C3338 C3354 1.368 . S
H3339 C3347 0.950 . S
H3340 C3345 0.950 . S
H3341 C3346 0.949 . S
H3342 C3348 0.950 . S
H3343 C3349 0.950 . S
H3344 C3350 0.949 . S
C3345 H3340 0.950 . S
C3345 C3347 1.327 . S
C3345 C3351 1.429 . S
C3346 C3338 1.574 . S
C3346 H3341 0.949 . S
C3346 C3352 1.368 . S
C3347 C3331 1.349 . S
C3347 H3339 0.950 . S
C3347 C3345 1.327 . S
C3348 C3336 1.349 . S
C3348 H3342 0.950 . S
C3348 C3349 1.327 . S
C3349 H3343 0.950 . S
C3349 C3348 1.327 . S
C3349 C3353 1.429 . S
C3350 C3333 1.574 . S
C3350 H3344 0.949 . S
C3350 C3354 1.368 . S
C3351 C3332 1.429 . S
C3351 C3345 1.429 . S
C3351 C3352 1.523 . S
C3352 C3333 1.368 . S
C3352 C3346 1.368 . S
C3352 C3351 1.523 . S
C3353 C3337 1.429 . S
C3353 C3349 1.429 . S
C3353 C3354 1.523 . S
C3354 C3338 1.368 . S
C3354 C3350 1.368 . S
C3354 C3353 1.523 . S
H3355 C3330 0.950 . S
H3356 C3332 0.950 . S
H3357 C3333 0.949 . S
H3358 C3335 0.950 . S
H3359 C3337 0.950 . S
C3360 C3361 1.349 . S
C3360 C3362 1.327 . S
C3360 H3385 0.950 . S
C3361 C3360 1.349 . S
C3361 C3377 1.349 . S
C3362 C3360 1.327 . S
C3362 C3381 1.429 . S
C3362 H3386 0.950 . S
C3363 C3380 1.574 . S
C3363 C3382 1.368 . S
C3363 H3387 0.949 . S
H3364 C3368 0.949 . S
C3365 C3366 1.349 . S
C3365 C3367 1.327 . S
C3365 H3388 0.950 . S
C3366 C3365 1.349 . S
C3366 C3378 1.349 . S
C3367 C3365 1.327 . S
C3367 C3383 1.429 . S
C3367 H3389 0.950 . S
C3368 H3364 0.949 . S
C3368 C3376 1.574 . S
C3368 C3384 1.368 . S
H3369 C3377 0.950 . S
H3370 C3375 0.950 . S
H3371 C3376 0.949 . S
H3372 C3378 0.950 . S
H3373 C3379 0.950 . S
H3374 C3380 0.949 . S
C3375 H3370 0.950 . S
C3375 C3377 1.327 . S
C3375 C3381 1.429 . S
C3376 C3368 1.574 . S
C3376 H3371 0.949 . S
C3376 C3382 1.368 . S
C3377 C3361 1.349 . S
C3377 H3369 0.950 . S
C3377 C3375 1.327 . S
C3378 C3366 1.349 . S
C3378 H3372 0.950 . S
C3378 C3379 1.327 . S
C3379 H3373 0.950 . S
C3379 C3378 1.327 . S
C3379 C3383 1.429 . S
C3380 C3363 1.574 . S
C3380 H3374 0.949 . S
C3380 C3384 1.368 . S
C3381 C3362 1.429 . S
C3381 C3375 1.429 . S
C3381 C3382 1.523 . S
C3382 C3363 1.368 . S
C3382 C3376 1.368 . S
C3382 C3381 1.523 . S
C3383 C3367 1.429 . S
C3383 C3379 1.429 . S
C3383 C3384 1.523 . S
C3384 C3368 1.368 . S
C3384 C3380 1.368 . S
C3384 C3383 1.523 . S
H3385 C3360 0.950 . S
H3386 C3362 0.950 . S
H3387 C3363 0.949 . S
H3388 C3365 0.950 . S
H3389 C3367 0.950 . S
C3390 C3391 1.349 . S
C3390 C3392 1.327 . S
C3390 H3415 0.950 . S
C3391 C3390 1.349 . S
C3391 C3407 1.349 . S
C3392 C3390 1.327 . S
C3392 C3411 1.429 . S
C3392 H3416 0.950 . S
C3393 C3410 1.574 . S
C3393 C3412 1.368 . S
C3393 H3417 0.949 . S
H3394 C3398 0.949 . S
C3395 C3396 1.349 . S
C3395 C3397 1.327 . S
C3395 H3418 0.950 . S
C3396 C3395 1.349 . S
C3396 C3408 1.349 . S
C3397 C3395 1.327 . S
C3397 C3413 1.429 . S
C3397 H3419 0.950 . S
C3398 H3394 0.949 . S
C3398 C3406 1.574 . S
C3398 C3414 1.368 . S
H3399 C3407 0.950 . S
H3400 C3405 0.950 . S
H3401 C3406 0.949 . S
H3402 C3408 0.950 . S
H3403 C3409 0.950 . S
H3404 C3410 0.949 . S
C3405 H3400 0.950 . S
C3405 C3407 1.327 . S
C3405 C3411 1.429 . S
C3406 C3398 1.574 . S
C3406 H3401 0.949 . S
C3406 C3412 1.368 . S
C3407 C3391 1.349 . S
C3407 H3399 0.950 . S
C3407 C3405 1.327 . S
C3408 C3396 1.349 . S
C3408 H3402 0.950 . S
C3408 C3409 1.327 . S
C3409 H3403 0.950 . S
C3409 C3408 1.327 . S
C3409 C3413 1.429 . S
C3410 C3393 1.574 . S
C3410 H3404 0.949 . S
C3410 C3414 1.368 . S
C3411 C3392 1.429 . S
C3411 C3405 1.429 . S
C3411 C3412 1.523 . S
C3412 C3393 1.368 . S
C3412 C3406 1.368 . S
C3412 C3411 1.523 . S
C3413 C3397 1.429 . S
C3413 C3409 1.429 . S
C3413 C3414 1.523 . S
C3414 C3398 1.368 . S
C3414 C3410 1.368 . S
C3414 C3413 1.523 . S
H3415 C3390 0.950 . S
H3416 C3392 0.950 . S
H3417 C3393 0.949 . S
H3418 C3395 0.950 . S
H3419 C3397 0.950 . S
C3420 C3421 1.349 . S
C3420 C3422 1.327 . S
C3420 H3445 0.950 . S
C3421 C3420 1.349 . S
C3421 C3437 1.349 . S
C3422 C3420 1.327 . S
C3422 C3441 1.429 . S
C3422 H3446 0.950 . S
C3423 C3440 1.574 . S
C3423 C3442 1.368 . S
C3423 H3447 0.949 . S
H3424 C3428 0.949 . S
C3425 C3426 1.349 . S
C3425 C3427 1.327 . S
C3425 H3448 0.950 . S
C3426 C3425 1.349 . S
C3426 C3438 1.349 . S
C3427 C3425 1.327 . S
C3427 C3443 1.429 . S
C3427 H3449 0.950 . S
C3428 H3424 0.949 . S
C3428 C3436 1.574 . S
C3428 C3444 1.368 . S
H3429 C3437 0.950 . S
H3430 C3435 0.950 . S
H3431 C3436 0.949 . S
H3432 C3438 0.950 . S
H3433 C3439 0.950 . S
H3434 C3440 0.949 . S
C3435 H3430 0.950 . S
C3435 C3437 1.327 . S
C3435 C3441 1.429 . S
C3436 C3428 1.574 . S
C3436 H3431 0.949 . S
C3436 C3442 1.368 . S
C3437 C3421 1.349 . S
C3437 H3429 0.950 . S
C3437 C3435 1.327 . S
C3438 C3426 1.349 . S
C3438 H3432 0.950 . S
C3438 C3439 1.327 . S
C3439 H3433 0.950 . S
C3439 C3438 1.327 . S
C3439 C3443 1.429 . S
C3440 C3423 1.574 . S
C3440 H3434 0.949 . S
C3440 C3444 1.368 . S
C3441 C3422 1.429 . S
C3441 C3435 1.429 . S
C3441 C3442 1.523 . S
C3442 C3423 1.368 . S
C3442 C3436 1.368 . S
C3442 C3441 1.523 . S
C3443 C3427 1.429 . S
C3443 C3439 1.429 . S
C3443 C3444 1.523 . S
C3444 C3428 1.368 . S
C3444 C3440 1.368 . S
C3444 C3443 1.523 . S
H3445 C3420 0.950 . S
H3446 C3422 0.950 . S
H3447 C3423 0.949 . S
H3448 C3425 0.950 . S
H3449 C3427 0.950 . S
C3450 C3451 1.349 . S
C3450 C3452 1.327 . S
C3450 H3475 0.950 . S
C3451 C3450 1.349 . S
C3451 C3467 1.349 . S
C3452 C3450 1.327 . S
C3452 C3471 1.429 . S
C3452 H3476 0.950 . S
C3453 C3470 1.574 . S
C3453 C3472 1.368 . S
C3453 H3477 0.949 . S
H3454 C3458 0.949 . S
C3455 C3456 1.349 . S
C3455 C3457 1.327 . S
C3455 H3478 0.950 . S
C3456 C3455 1.349 . S
C3456 C3468 1.349 . S
C3457 C3455 1.327 . S
C3457 C3473 1.429 . S
C3457 H3479 0.950 . S
C3458 H3454 0.949 . S
C3458 C3466 1.574 . S
C3458 C3474 1.368 . S
H3459 C3467 0.950 . S
H3460 C3465 0.950 . S
H3461 C3466 0.949 . S
H3462 C3468 0.950 . S
H3463 C3469 0.950 . S
H3464 C3470 0.949 . S
C3465 H3460 0.950 . S
C3465 C3467 1.327 . S
C3465 C3471 1.429 . S
C3466 C3458 1.574 . S
C3466 H3461 0.949 . S
C3466 C3472 1.368 . S
C3467 C3451 1.349 . S
C3467 H3459 0.950 . S
C3467 C3465 1.327 . S
C3468 C3456 1.349 . S
C3468 H3462 0.950 . S
C3468 C3469 1.327 . S
C3469 H3463 0.950 . S
C3469 C3468 1.327 . S
C3469 C3473 1.429 . S
C3470 C3453 1.574 . S
C3470 H3464 0.949 . S
C3470 C3474 1.368 . S
C3471 C3452 1.429 . S
C3471 C3465 1.429 . S
C3471 C3472 1.523 . S
C3472 C3453 1.368 . S
C3472 C3466 1.368 . S
C3472 C3471 1.523 . S
C3473 C3457 1.429 . S
C3473 C3469 1.429 . S
C3473 C3474 1.523 . S
C3474 C3458 1.368 . S
C3474 C3470 1.368 . S
C3474 C3473 1.523 . S
H3475 C3450 0.950 . S
H3476 C3452 0.950 . S
H3477 C3453 0.949 . S
H3478 C3455 0.950 . S
H3479 C3457 0.950 . S
C3480 C3481 1.349 . S
C3480 C3482 1.327 . S
C3480 H3505 0.950 . S
C3481 C3480 1.349 . S
C3481 C3497 1.349 . S
C3482 C3480 1.327 . S
C3482 C3501 1.429 . S
C3482 H3506 0.950 . S
C3483 C3500 1.574 . S
C3483 C3502 1.368 . S
C3483 H3507 0.949 . S
H3484 C3488 0.949 . S
C3485 C3486 1.349 . S
C3485 C3487 1.327 . S
C3485 H3508 0.950 . S
C3486 C3485 1.349 . S
C3486 C3498 1.349 . S
C3487 C3485 1.327 . S
C3487 C3503 1.429 . S
C3487 H3509 0.950 . S
C3488 H3484 0.949 . S
C3488 C3496 1.574 . S
C3488 C3504 1.368 . S
H3489 C3497 0.950 1_455 S
H3490 C3495 0.950 . S
H3491 C3496 0.949 . S
H3492 C3498 0.950 . S
H3493 C3499 0.950 . S
H3494 C3500 0.949 . S
C3495 H3490 0.950 . S
C3495 C3497 1.327 . S
C3495 C3501 1.429 . S
C3496 C3488 1.574 . S
C3496 H3491 0.949 . S
C3496 C3502 1.368 . S
C3497 C3481 1.349 . S
C3497 H3489 0.950 1_655 S
C3497 C3495 1.327 . S
C3498 C3486 1.349 . S
C3498 H3492 0.950 . S
C3498 C3499 1.327 . S
C3499 H3493 0.950 . S
C3499 C3498 1.327 . S
C3499 C3503 1.429 . S
C3500 C3483 1.574 . S
C3500 H3494 0.949 . S
C3500 C3504 1.368 . S
C3501 C3482 1.429 . S
C3501 C3495 1.429 . S
C3501 C3502 1.523 . S
C3502 C3483 1.368 . S
C3502 C3496 1.368 . S
C3502 C3501 1.523 . S
C3503 C3487 1.429 . S
C3503 C3499 1.429 . S
C3503 C3504 1.523 . S
C3504 C3488 1.368 . S
C3504 C3500 1.368 . S
C3504 C3503 1.523 . S
H3505 C3480 0.950 . S
H3506 C3482 0.950 . S
H3507 C3483 0.949 . S
H3508 C3485 0.950 . S
H3509 C3487 0.950 . S
C3510 C3511 1.349 . S
C3510 C3512 1.327 . S
C3510 H3535 0.950 . S
C3511 C3510 1.349 . S
C3511 C3527 1.349 . S
C3512 C3510 1.327 . S
C3512 C3531 1.429 . S
C3512 H3536 0.950 . S
C3513 C3530 1.574 . S
C3513 C3532 1.368 . S
C3513 H3537 0.949 . S
H3514 C3518 0.984 . S
C3515 C3516 1.349 . S
C3515 C3517 1.327 . S
C3515 H3538 0.950 . S
C3516 C3515 1.349 . S
C3516 C3528 1.349 . S
C3517 C3515 1.327 . S
C3517 C3533 1.429 . S
C3517 H3539 0.950 . S
C3518 H3514 0.984 . S
C3518 C3526 1.574 . S
C3518 C3534 1.368 . S
H3519 C3527 0.950 . S
H3520 C3525 0.950 . S
H3521 C3526 0.949 . S
H3522 C3528 0.950 1_655 S
H3523 C3529 0.950 1_655 S
H3524 C3530 0.949 . S
C3525 H3520 0.950 . S
C3525 C3527 1.327 . S
C3525 C3531 1.429 . S
C3526 C3518 1.574 . S
C3526 H3521 0.949 . S
C3526 C3532 1.368 . S
C3527 C3511 1.349 . S
C3527 H3519 0.950 . S
C3527 C3525 1.327 . S
C3528 C3516 1.349 . S
C3528 H3522 0.950 1_455 S
C3528 C3529 1.327 . S
C3529 H3523 0.950 1_455 S
C3529 C3528 1.327 . S
C3529 C3533 1.429 . S
C3530 C3513 1.574 . S
C3530 H3524 0.949 . S
C3530 C3534 1.368 . S
C3531 C3512 1.429 . S
C3531 C3525 1.429 . S
C3531 C3532 1.523 . S
C3532 C3513 1.368 . S
C3532 C3526 1.368 . S
C3532 C3531 1.523 . S
C3533 C3517 1.429 . S
C3533 C3529 1.429 . S
C3533 C3534 1.523 . S
C3534 C3518 1.368 . S
C3534 C3530 1.368 . S
C3534 C3533 1.523 . S
H3535 C3510 0.950 . S
H3536 C3512 0.950 . S
H3537 C3513 0.949 . S
H3538 C3515 0.950 . S
H3539 C3517 0.950 . S
C3540 C3541 1.349 . S
C3540 C3542 1.327 . S
C3540 H3565 0.950 . S
C3541 C3540 1.349 . S
C3541 C3557 1.349 . S
C3542 C3540 1.327 . S
C3542 C3561 1.429 . S
C3542 H3566 0.950 . S
C3543 C3560 1.574 . S
C3543 C3562 1.368 . S
C3543 H3567 0.949 . S
H3544 C3548 0.949 . S
C3545 C3546 1.349 . S
C3545 C3547 1.327 . S
C3545 H3568 0.950 . S
C3546 C3545 1.349 . S
C3546 C3558 1.349 . S
C3547 C3545 1.327 . S
C3547 C3563 1.429 . S
C3547 H3569 0.950 . S
C3548 H3544 0.949 . S
C3548 C3556 1.574 . S
C3548 C3564 1.368 . S
H3549 C3557 0.950 . S
H3550 C3555 0.950 . S
H3551 C3556 0.949 . S
H3552 C3558 0.950 . S
H3553 C3559 0.950 . S
H3554 C3560 0.949 . S
C3555 H3550 0.950 . S
C3555 C3557 1.327 . S
C3555 C3561 1.429 . S
C3556 C3548 1.574 . S
C3556 H3551 0.949 . S
C3556 C3562 1.368 . S
C3557 C3541 1.349 . S
C3557 H3549 0.950 . S
C3557 C3555 1.327 . S
C3558 C3546 1.349 . S
C3558 H3552 0.950 . S
C3558 C3559 1.327 . S
C3559 H3553 0.950 . S
C3559 C3558 1.327 . S
C3559 C3563 1.429 . S
C3560 C3543 1.574 . S
C3560 H3554 0.949 . S
C3560 C3564 1.368 . S
C3561 C3542 1.429 . S
C3561 C3555 1.429 . S
C3561 C3562 1.523 . S
C3562 C3543 1.368 . S
C3562 C3556 1.368 . S
C3562 C3561 1.523 . S
C3563 C3547 1.429 . S
C3563 C3559 1.429 . S
C3563 C3564 1.523 . S
C3564 C3548 1.368 . S
C3564 C3560 1.368 . S
C3564 C3563 1.523 . S
H3565 C3540 0.950 . S
H3566 C3542 0.950 . S
H3567 C3543 0.949 . S
H3568 C3545 0.950 . S
H3569 C3547 0.950 . S
C3570 C3571 1.349 . S
C3570 C3572 1.327 . S
C3570 H3595 0.950 . S
C3571 C3570 1.349 . S
C3571 C3587 1.349 . S
C3572 C3570 1.327 . S
C3572 C3591 1.429 . S
C3572 H3596 0.950 . S
C3573 C3590 1.574 . S
C3573 C3592 1.368 . S
C3573 H3597 0.949 . S
H3574 C3578 0.949 . S
C3575 C3576 1.349 . S
C3575 C3577 1.327 . S
C3575 H3598 0.950 . S
C3576 C3575 1.349 . S
C3576 C3588 1.349 . S
C3577 C3575 1.327 . S
C3577 C3593 1.429 . S
C3577 H3599 0.950 . S
C3578 H3574 0.949 . S
C3578 C3586 1.574 . S
C3578 C3594 1.368 . S
H3579 C3587 0.950 . S
H3580 C3585 0.950 . S
H3581 C3586 0.949 . S
H3582 C3588 0.950 . S
H3583 C3589 0.950 . S
H3584 C3590 0.949 . S
C3585 H3580 0.950 . S
C3585 C3587 1.327 . S
C3585 C3591 1.429 . S
C3586 C3578 1.574 . S
C3586 H3581 0.949 . S
C3586 C3592 1.368 . S
C3587 C3571 1.349 . S
C3587 H3579 0.950 . S
C3587 C3585 1.327 . S
C3588 C3576 1.349 . S
C3588 H3582 0.950 . S
C3588 C3589 1.327 . S
C3589 H3583 0.950 . S
C3589 C3588 1.327 . S
C3589 C3593 1.429 . S
C3590 C3573 1.574 . S
C3590 H3584 0.949 . S
C3590 C3594 1.368 . S
C3591 C3572 1.429 . S
C3591 C3585 1.429 . S
C3591 C3592 1.523 . S
C3592 C3573 1.368 . S
C3592 C3586 1.368 . S
C3592 C3591 1.523 . S
C3593 C3577 1.429 . S
C3593 C3589 1.429 . S
C3593 C3594 1.523 . S
C3594 C3578 1.368 . S
C3594 C3590 1.368 . S
C3594 C3593 1.523 . S
H3595 C3570 0.950 . S
H3596 C3572 0.950 . S
H3597 C3573 0.949 . S
H3598 C3575 0.950 . S
H3599 C3577 0.950 . S
C3600 C3601 1.349 . S
C3600 C3602 1.327 . S
C3600 H3625 0.950 . S
C3601 C3600 1.349 . S
C3601 C3617 1.349 . S
C3602 C3600 1.327 . S
C3602 C3621 1.429 . S
C3602 H3626 0.950 . S
C3603 C3620 1.574 . S
C3603 C3622 1.368 . S
C3603 H3627 0.949 . S
H3604 C3608 0.949 1_545 S
C3605 C3606 1.309 1_565 S
C3605 C3607 1.327 . S
C3605 H3628 0.950 . S
C3606 C3605 1.309 1_545 S
C3606 C3618 1.348 . S
C3607 C3605 1.327 . S
C3607 C3623 1.429 . S
C3607 H3629 0.950 . S
C3608 H3604 0.949 1_565 S
C3608 C3616 1.574 . S
C3608 C3624 1.368 . S
H3609 C3617 0.950 . S
H3610 C3615 0.950 . S
H3611 C3616 0.949 . S
H3612 C3618 0.950 . S
H3613 C3619 0.950 . S
H3614 C3620 0.949 . S
C3615 H3610 0.950 . S
C3615 C3617 1.327 . S
C3615 C3621 1.429 . S
C3616 C3608 1.574 . S
C3616 H3611 0.949 . S
C3616 C3622 1.368 . S
C3617 C3601 1.349 . S
C3617 H3609 0.950 . S
C3617 C3615 1.327 . S
C3618 C3606 1.348 . S
C3618 H3612 0.950 . S
C3618 C3619 1.327 . S
C3619 H3613 0.950 . S
C3619 C3618 1.327 . S
C3619 C3623 1.429 1_545 S
C3620 C3603 1.574 . S
C3620 H3614 0.949 . S
C3620 C3624 1.368 . S
C3621 C3602 1.429 . S
C3621 C3615 1.429 . S
C3621 C3622 1.523 . S
C3622 C3603 1.368 . S
C3622 C3616 1.368 . S
C3622 C3621 1.523 . S
C3623 C3607 1.429 . S
C3623 C3619 1.429 1_565 S
C3623 C3624 1.523 . S
C3624 C3608 1.368 . S
C3624 C3620 1.368 . S
C3624 C3623 1.523 . S
H3625 C3600 0.950 . S
H3626 C3602 0.950 . S
H3627 C3603 0.949 . S
H3628 C3605 0.950 . S
H3629 C3607 0.950 . S
C3630 C3631 1.349 . S
C3630 C3632 1.327 . S
C3630 H3655 0.950 . S
C3631 C3630 1.349 . S
C3631 C3647 1.349 . S
C3632 C3630 1.327 . S
C3632 C3651 1.429 . S
C3632 H3656 0.950 . S
C3633 C3650 1.574 . S
C3633 C3652 1.368 . S
C3633 H3657 0.949 . S
H3634 C3638 0.949 1_655 S
C3635 C3636 1.349 1_455 S
C3635 C3637 1.327 . S
C3635 H3658 0.950 . S
C3636 C3635 1.349 1_655 S
C3636 C3648 1.349 . S
C3637 C3635 1.327 . S
C3637 C3653 1.429 . S
C3637 H3659 0.950 . S
C3638 H3634 0.949 1_455 S
C3638 C3646 1.574 . S
C3638 C3654 1.368 . S
H3639 C3647 0.950 . S
H3640 C3645 0.950 . S
H3641 C3646 0.999 . S
H3642 C3648 0.950 . S
H3643 C3649 0.950 . S
H3644 C3650 0.949 . S
C3645 H3640 0.950 . S
C3645 C3647 1.327 . S
C3645 C3651 1.429 . S
C3646 C3638 1.574 . S
C3646 H3641 0.999 . S
C3646 C3652 1.368 . S
C3647 C3631 1.349 . S
C3647 H3639 0.950 . S
C3647 C3645 1.327 . S
C3648 C3636 1.349 . S
C3648 H3642 0.950 . S
C3648 C3649 1.327 . S
C3649 H3643 0.950 . S
C3649 C3648 1.327 . S
C3649 C3653 1.429 1_655 S
C3650 C3633 1.574 . S
C3650 H3644 0.949 . S
C3650 C3654 1.368 . S
C3651 C3632 1.429 . S
C3651 C3645 1.429 . S
C3651 C3652 1.523 . S
C3652 C3633 1.368 . S
C3652 C3646 1.368 . S
C3652 C3651 1.523 . S
C3653 C3637 1.429 . S
C3653 C3649 1.429 1_455 S
C3653 C3654 1.523 . S
C3654 C3638 1.368 . S
C3654 C3650 1.368 . S
C3654 C3653 1.523 . S
H3655 C3630 0.950 . S
H3656 C3632 0.950 . S
H3657 C3633 0.949 . S
H3658 C3635 0.950 . S
H3659 C3637 0.950 . S
C3660 C3661 1.349 . S
C3660 C3662 1.327 . S
C3660 H3685 0.950 . S
C3661 C3660 1.349 . S
C3661 C3677 1.349 . S
C3662 C3660 1.327 . S
C3662 C3681 1.429 . S
C3662 H3686 0.950 . S
C3663 C3680 1.574 . S
C3663 C3682 1.368 . S
C3663 H3687 0.949 . S
H3664 C3668 0.949 . S
C3665 C3666 1.349 . S
C3665 C3667 1.327 . S
C3665 H3688 0.950 . S
C3666 C3665 1.349 . S
C3666 C3678 1.349 . S
C3667 C3665 1.327 . S
C3667 C3683 1.429 . S
C3667 H3689 0.950 . S
C3668 H3664 0.949 . S
C3668 C3676 1.574 . S
C3668 C3684 1.368 . S
H3669 C3677 0.950 . S
H3670 C3675 0.950 . S
H3671 C3676 0.949 . S
H3672 C3678 0.950 . S
H3673 C3679 0.950 . S
H3674 C3680 0.949 . S
C3675 H3670 0.950 . S
C3675 C3677 1.327 . S
C3675 C3681 1.429 . S
C3676 C3668 1.574 . S
C3676 H3671 0.949 . S
C3676 C3682 1.368 . S
C3677 C3661 1.349 . S
C3677 H3669 0.950 . S
C3677 C3675 1.327 . S
C3678 C3666 1.349 . S
C3678 H3672 0.950 . S
C3678 C3679 1.327 . S
C3679 H3673 0.950 . S
C3679 C3678 1.327 . S
C3679 C3683 1.429 . S
C3680 C3663 1.574 . S
C3680 H3674 0.949 . S
C3680 C3684 1.368 . S
C3681 C3662 1.429 . S
C3681 C3675 1.429 . S
C3681 C3682 1.523 . S
C3682 C3663 1.368 . S
C3682 C3676 1.368 . S
C3682 C3681 1.523 . S
C3683 C3667 1.429 . S
C3683 C3679 1.429 . S
C3683 C3684 1.523 . S
C3684 C3668 1.368 . S
C3684 C3680 1.368 . S
C3684 C3683 1.523 . S
H3685 C3660 0.950 . S
H3686 C3662 0.950 . S
H3687 C3663 0.949 . S
H3688 C3665 0.950 . S
H3689 C3667 0.950 . S
C3690 C3691 1.349 . S
C3690 C3692 1.327 . S
C3690 H3715 0.950 . S
C3691 C3690 1.349 . S
C3691 C3707 1.349 . S
C3692 C3690 1.327 . S
C3692 C3711 1.429 . S
C3692 H3716 0.950 . S
C3693 C3710 1.574 . S
C3693 C3712 1.368 . S
C3693 H3717 0.949 . S
H3694 C3698 0.949 . S
C3695 C3696 1.349 . S
C3695 C3697 1.327 . S
C3695 H3718 0.950 . S
C3696 C3695 1.349 . S
C3696 C3708 1.349 . S
C3697 C3695 1.327 . S
C3697 C3713 1.429 . S
C3697 H3719 0.950 . S
C3698 H3694 0.949 . S
C3698 C3706 1.574 . S
C3698 C3714 1.368 . S
H3699 C3707 0.950 . S
H3700 C3705 0.950 . S
H3701 C3706 0.949 . S
H3702 C3708 0.950 . S
H3703 C3709 0.950 . S
H3704 C3710 0.949 . S
C3705 H3700 0.950 . S
C3705 C3707 1.327 . S
C3705 C3711 1.429 . S
C3706 C3698 1.574 . S
C3706 H3701 0.949 . S
C3706 C3712 1.368 . S
C3707 C3691 1.349 . S
C3707 H3699 0.950 . S
C3707 C3705 1.327 . S
C3708 C3696 1.349 . S
C3708 H3702 0.950 . S
C3708 C3709 1.327 . S
C3709 H3703 0.950 . S
C3709 C3708 1.327 . S
C3709 C3713 1.429 . S
C3710 C3693 1.574 . S
C3710 H3704 0.949 . S
C3710 C3714 1.368 . S
C3711 C3692 1.429 . S
C3711 C3705 1.429 . S
C3711 C3712 1.523 . S
C3712 C3693 1.368 . S
C3712 C3706 1.368 . S
C3712 C3711 1.523 . S
C3713 C3697 1.429 . S
C3713 C3709 1.429 . S
C3713 C3714 1.523 . S
C3714 C3698 1.368 . S
C3714 C3710 1.368 . S
C3714 C3713 1.523 . S
H3715 C3690 0.950 . S
H3716 C3692 0.950 . S
H3717 C3693 0.949 . S
H3718 C3695 0.950 . S
H3719 C3697 0.950 . S
C3720 C3721 1.349 . S
C3720 C3722 1.327 . S
C3720 H3745 0.950 . S
C3721 C3720 1.349 . S
C3721 C3737 1.349 . S
C3722 C3720 1.327 . S
C3722 C3741 1.429 . S
C3722 H3746 0.950 . S
C3723 C3740 1.574 . S
C3723 C3742 1.368 . S
C3723 H3747 0.949 . S
H3724 C3728 0.949 . S
C3725 C3726 1.349 . S
C3725 C3727 1.327 . S
C3725 H3748 0.950 . S
C3726 C3725 1.349 . S
C3726 C3738 1.349 . S
C3727 C3725 1.327 . S
C3727 C3743 1.429 . S
C3727 H3749 0.950 . S
C3728 H3724 0.949 . S
C3728 C3736 1.574 . S
C3728 C3744 1.368 . S
H3729 C3737 0.950 . S
H3730 C3735 0.950 . S
H3731 C3736 0.949 . S
H3732 C3738 0.950 . S
H3733 C3739 0.950 . S
H3734 C3740 0.949 . S
C3735 H3730 0.950 . S
C3735 C3737 1.327 . S
C3735 C3741 1.429 . S
C3736 C3728 1.574 . S
C3736 H3731 0.949 . S
C3736 C3742 1.368 . S
C3737 C3721 1.349 . S
C3737 H3729 0.950 . S
C3737 C3735 1.327 . S
C3738 C3726 1.349 . S
C3738 H3732 0.950 . S
C3738 C3739 1.327 . S
C3739 H3733 0.950 . S
C3739 C3738 1.327 . S
C3739 C3743 1.429 . S
C3740 C3723 1.574 . S
C3740 H3734 0.949 . S
C3740 C3744 1.368 . S
C3741 C3722 1.429 . S
C3741 C3735 1.429 . S
C3741 C3742 1.523 . S
C3742 C3723 1.368 . S
C3742 C3736 1.368 . S
C3742 C3741 1.523 . S
C3743 C3727 1.429 . S
C3743 C3739 1.429 . S
C3743 C3744 1.523 . S
C3744 C3728 1.368 . S
C3744 C3740 1.368 . S
C3744 C3743 1.523 . S
H3745 C3720 0.950 . S
H3746 C3722 0.950 . S
H3747 C3723 0.949 . S
H3748 C3725 0.950 . S
H3749 C3727 0.950 . S
C3750 C3751 1.349 . S
C3750 C3752 1.327 . S
C3750 H3775 0.950 . S
C3751 C3750 1.349 . S
C3751 C3767 1.349 . S
C3752 C3750 1.327 . S
C3752 C3771 1.429 . S
C3752 H3776 0.950 . S
C3753 C3770 1.574 . S
C3753 C3772 1.368 . S
C3753 H3777 0.949 . S
H3754 C3758 0.949 . S
C3755 C3756 1.349 . S
C3755 C3757 1.327 . S
C3755 H3778 0.950 . S
C3756 C3755 1.349 . S
C3756 C3768 1.349 . S
C3757 C3755 1.327 . S
C3757 C3773 1.429 . S
C3757 H3779 0.950 . S
C3758 H3754 0.949 . S
C3758 C3766 1.574 . S
C3758 C3774 1.368 . S
H3759 C3767 0.950 . S
H3760 C3765 0.950 . S
H3761 C3766 0.949 . S
H3762 C3768 0.950 . S
H3763 C3769 0.950 . S
H3764 C3770 0.949 . S
C3765 H3760 0.950 . S
C3765 C3767 1.327 . S
C3765 C3771 1.429 . S
C3766 C3758 1.574 . S
C3766 H3761 0.949 . S
C3766 C3772 1.368 . S
C3767 C3751 1.349 . S
C3767 H3759 0.950 . S
C3767 C3765 1.327 . S
C3768 C3756 1.349 . S
C3768 H3762 0.950 . S
C3768 C3769 1.327 . S
C3769 H3763 0.950 . S
C3769 C3768 1.327 . S
C3769 C3773 1.429 . S
C3770 C3753 1.574 . S
C3770 H3764 0.949 . S
C3770 C3774 1.368 . S
C3771 C3752 1.429 . S
C3771 C3765 1.429 . S
C3771 C3772 1.523 . S
C3772 C3753 1.368 . S
C3772 C3766 1.368 . S
C3772 C3771 1.523 . S
C3773 C3757 1.429 . S
C3773 C3769 1.429 . S
C3773 C3774 1.523 . S
C3774 C3758 1.368 . S
C3774 C3770 1.368 . S
C3774 C3773 1.523 . S
H3775 C3750 0.950 . S
H3776 C3752 0.950 . S
H3777 C3753 0.949 . S
H3778 C3755 0.950 . S
H3779 C3757 0.950 . S
C3780 C3781 1.349 . S
C3780 C3782 1.327 . S
C3780 H3805 0.950 . S
C3781 C3780 1.349 . S
C3781 C3797 1.349 . S
C3782 C3780 1.327 . S
C3782 C3801 1.429 . S
C3782 H3806 0.950 . S
C3783 C3800 1.574 . S
C3783 C3802 1.368 . S
C3783 H3807 0.949 . S
H3784 C3788 0.949 . S
C3785 C3786 1.349 . S
C3785 C3787 1.327 . S
C3785 H3808 0.950 1_545 S
C3786 C3785 1.349 . S
C3786 C3798 1.349 . S
C3787 C3785 1.327 . S
C3787 C3803 1.429 . S
C3787 H3809 0.950 1_545 S
C3788 H3784 0.949 . S
C3788 C3796 1.574 . S
C3788 C3804 1.368 . S
H3789 C3797 0.950 . S
H3790 C3795 0.950 . S
H3791 C3796 0.949 . S
H3792 C3798 0.950 . S
H3793 C3799 0.950 . S
H3794 C3800 0.949 . S
C3795 H3790 0.950 . S
C3795 C3797 1.327 . S
C3795 C3801 1.429 . S
C3796 C3788 1.574 . S
C3796 H3791 0.949 . S
C3796 C3802 1.368 . S
C3797 C3781 1.349 . S
C3797 H3789 0.950 . S
C3797 C3795 1.327 . S
C3798 C3786 1.349 . S
C3798 H3792 0.950 . S
C3798 C3799 1.327 . S
C3799 H3793 0.950 . S
C3799 C3798 1.327 . S
C3799 C3803 1.429 . S
C3800 C3783 1.574 . S
C3800 H3794 0.949 . S
C3800 C3804 1.368 . S
C3801 C3782 1.429 . S
C3801 C3795 1.429 . S
C3801 C3802 1.523 . S
C3802 C3783 1.368 . S
C3802 C3796 1.368 . S
C3802 C3801 1.523 . S
C3803 C3787 1.429 . S
C3803 C3799 1.429 . S
C3803 C3804 1.523 . S
C3804 C3788 1.368 . S
C3804 C3800 1.368 . S
C3804 C3803 1.523 . S
H3805 C3780 0.950 . S
H3806 C3782 0.950 . S
H3807 C3783 0.949 . S
H3808 C3785 0.950 1_565 S
H3809 C3787 0.950 1_565 S
C3810 C3811 1.349 . S
C3810 C3812 1.327 . S
C3810 H3835 0.950 . S
C3811 C3810 1.349 . S
C3811 C3827 1.349 . S
C3812 C3810 1.327 . S
C3812 C3831 1.429 . S
C3812 H3836 0.950 . S
C3813 C3830 1.574 . S
C3813 C3832 1.368 . S
C3813 H3837 0.949 . S
H3814 C3818 0.949 . S
C3815 C3816 1.349 . S
C3815 C3817 1.327 . S
C3815 H3838 0.950 1_655 S
C3816 C3815 1.349 . S
C3816 C3828 1.349 . S
C3817 C3815 1.327 . S
C3817 C3833 1.429 . S
C3817 H3839 0.954 . S
C3818 H3814 0.949 . S
C3818 C3826 1.574 . S
C3818 C3834 1.368 . S
H3819 C3827 0.950 . S
H3820 C3825 0.950 . S
H3821 C3826 0.949 . S
H3822 C3828 0.950 . S
H3823 C3829 0.950 . S
H3824 C3830 0.949 . S
C3825 H3820 0.950 . S
C3825 C3827 1.327 . S
C3825 C3831 1.429 . S
C3826 C3818 1.574 . S
C3826 H3821 0.949 . S
C3826 C3832 1.368 . S
C3827 C3811 1.349 . S
C3827 H3819 0.950 . S
C3827 C3825 1.327 . S
C3828 C3816 1.349 . S
C3828 H3822 0.950 . S
C3828 C3829 1.327 . S
C3829 H3823 0.950 . S
C3829 C3828 1.327 . S
C3829 C3833 1.429 . S
C3830 C3813 1.574 . S
C3830 H3824 0.949 . S
C3830 C3834 1.368 . S
C3831 C3812 1.429 . S
C3831 C3825 1.429 . S
C3831 C3832 1.523 . S
C3832 C3813 1.368 . S
C3832 C3826 1.368 . S
C3832 C3831 1.523 . S
C3833 C3817 1.429 . S
C3833 C3829 1.429 . S
C3833 C3834 1.523 . S
C3834 C3818 1.368 . S
C3834 C3830 1.368 . S
C3834 C3833 1.523 . S
H3835 C3810 0.950 . S
H3836 C3812 0.950 . S
H3837 C3813 0.949 . S
H3838 C3815 0.950 1_455 S
H3839 C3817 0.954 . S
C3840 C3841 1.349 . S
C3840 C3842 1.327 . S
C3840 H3865 0.950 . S
C3841 C3840 1.349 . S
C3841 C3857 1.349 . S
C3842 C3840 1.327 . S
C3842 C3861 1.429 . S
C3842 H3866 0.950 . S
C3843 C3860 1.574 . S
C3843 C3862 1.368 . S
C3843 H3867 0.949 . S
H3844 C3848 0.949 . S
C3845 C3846 1.349 . S
C3845 C3847 1.327 . S
C3845 H3868 0.950 . S
C3846 C3845 1.349 . S
C3846 C3858 1.349 . S
C3847 C3845 1.327 . S
C3847 C3863 1.429 . S
C3847 H3869 0.950 . S
C3848 H3844 0.949 . S
C3848 C3856 1.574 . S
C3848 C3864 1.368 . S
H3849 C3857 0.950 . S
H3850 C3855 0.950 . S
H3851 C3856 0.949 . S
H3852 C3858 0.950 . S
H3853 C3859 0.950 . S
H3854 C3860 0.949 . S
C3855 H3850 0.950 . S
C3855 C3857 1.327 . S
C3855 C3861 1.429 . S
C3856 C3848 1.574 . S
C3856 H3851 0.949 . S
C3856 C3862 1.368 . S
C3857 C3841 1.349 . S
C3857 H3849 0.950 . S
C3857 C3855 1.327 . S
C3858 C3846 1.349 . S
C3858 H3852 0.950 . S
C3858 C3859 1.327 . S
C3859 H3853 0.950 . S
C3859 C3858 1.327 . S
C3859 C3863 1.429 . S
C3860 C3843 1.574 . S
C3860 H3854 0.949 . S
C3860 C3864 1.368 . S
C3861 C3842 1.429 . S
C3861 C3855 1.429 . S
C3861 C3862 1.523 . S
C3862 C3843 1.368 . S
C3862 C3856 1.368 . S
C3862 C3861 1.523 . S
C3863 C3847 1.429 . S
C3863 C3859 1.429 . S
C3863 C3864 1.523 . S
C3864 C3848 1.368 . S
C3864 C3860 1.368 . S
C3864 C3863 1.523 . S
H3865 C3840 0.950 . S
H3866 C3842 0.950 . S
H3867 C3843 0.949 . S
H3868 C3845 0.950 . S
H3869 C3847 0.950 . S
C3870 C3871 1.349 . S
C3870 C3872 1.327 . S
C3870 H3895 0.950 . S
C3871 C3870 1.349 . S
C3871 C3887 1.349 . S
C3872 C3870 1.327 . S
C3872 C3891 1.429 . S
C3872 H3896 0.950 . S
C3873 C3890 1.574 . S
C3873 C3892 1.368 . S
C3873 H3897 0.949 . S
H3874 C3878 0.949 . S
C3875 C3876 1.349 . S
C3875 C3877 1.327 . S
C3875 H3898 0.950 . S
C3876 C3875 1.349 . S
C3876 C3888 1.349 . S
C3877 C3875 1.327 . S
C3877 C3893 1.429 . S
C3877 H3899 0.950 . S
C3878 H3874 0.949 . S
C3878 C3886 1.574 . S
C3878 C3894 1.368 . S
H3879 C3887 0.950 . S
H3880 C3885 0.950 . S
H3881 C3886 0.949 . S
H3882 C3888 0.950 . S
H3883 C3889 0.950 . S
H3884 C3890 0.949 . S
C3885 H3880 0.950 . S
C3885 C3887 1.327 . S
C3885 C3891 1.429 . S
C3886 C3878 1.574 . S
C3886 H3881 0.949 . S
C3886 C3892 1.368 . S
C3887 C3871 1.349 . S
C3887 H3879 0.950 . S
C3887 C3885 1.327 . S
C3888 C3876 1.349 . S
C3888 H3882 0.950 . S
C3888 C3889 1.327 . S
C3889 H3883 0.950 . S
C3889 C3888 1.327 . S
C3889 C3893 1.429 . S
C3890 C3873 1.574 . S
C3890 H3884 0.949 . S
C3890 C3894 1.368 . S
C3891 C3872 1.429 . S
C3891 C3885 1.429 . S
C3891 C3892 1.523 . S
C3892 C3873 1.368 . S
C3892 C3886 1.368 . S
C3892 C3891 1.523 . S
C3893 C3877 1.429 . S
C3893 C3889 1.429 . S
C3893 C3894 1.523 . S
C3894 C3878 1.368 . S
C3894 C3890 1.368 . S
C3894 C3893 1.523 . S
H3895 C3870 0.950 . S
H3896 C3872 0.950 . S
H3897 C3873 0.949 . S
H3898 C3875 0.950 . S
H3899 C3877 0.950 . S
C3900 C3901 1.349 . S
C3900 C3902 1.327 . S
C3900 H3925 0.950 . S
C3901 C3900 1.349 . S
C3901 C3917 1.349 . S
C3902 C3900 1.327 . S
C3902 C3921 1.429 . S
C3902 H3926 0.950 . S
C3903 C3920 1.574 . S
C3903 C3922 1.368 . S
C3903 H3927 0.949 . S
H3904 C3908 0.949 . S
C3905 C3906 1.349 . S
C3905 C3907 1.327 . S
C3905 H3928 0.950 . S
C3906 C3905 1.349 . S
C3906 C3918 1.349 . S
C3907 C3905 1.327 . S
C3907 C3923 1.429 . S
C3907 H3929 0.950 . S
C3908 H3904 0.949 . S
C3908 C3916 1.574 . S
C3908 C3924 1.368 . S
H3909 C3917 0.950 . S
H3910 C3915 0.950 . S
H3911 C3916 0.949 . S
H3912 C3918 0.950 . S
H3913 C3919 0.950 . S
H3914 C3920 0.949 . S
C3915 H3910 0.950 . S
C3915 C3917 1.327 . S
C3915 C3921 1.429 . S
C3916 C3908 1.574 . S
C3916 H3911 0.949 . S
C3916 C3922 1.368 . S
C3917 C3901 1.349 . S
C3917 H3909 0.950 . S
C3917 C3915 1.327 . S
C3918 C3906 1.349 . S
C3918 H3912 0.950 . S
C3918 C3919 1.327 . S
C3919 H3913 0.950 . S
C3919 C3918 1.327 . S
C3919 C3923 1.429 . S
C3920 C3903 1.574 . S
C3920 H3914 0.949 . S
C3920 C3924 1.368 . S
C3921 C3902 1.429 . S
C3921 C3915 1.429 . S
C3921 C3922 1.523 . S
C3922 C3903 1.368 . S
C3922 C3916 1.368 . S
C3922 C3921 1.523 . S
C3923 C3907 1.429 . S
C3923 C3919 1.429 . S
C3923 C3924 1.523 . S
C3924 C3908 1.368 . S
C3924 C3920 1.368 . S
C3924 C3923 1.523 . S
H3925 C3900 0.950 . S
H3926 C3902 0.950 . S
H3927 C3903 0.949 . S
H3928 C3905 0.950 . S
H3929 C3907 0.950 . S
C3930 C3931 1.349 . S
C3930 C3932 1.327 . S
C3930 H3955 0.950 1_455 S
C3931 C3930 1.349 . S
C3931 C3947 1.349 . S
C3932 C3930 1.327 . S
C3932 C3951 1.429 . S
C3932 H3956 0.950 . S
C3933 C3950 1.574 . S
C3933 C3952 1.368 . S
C3933 H3957 0.949 . S
H3934 C3938 0.949 . S
C3935 C3936 1.349 . S
C3935 C3937 1.327 . S
C3935 H3958 0.950 . S
C3936 C3935 1.349 . S
C3936 C3948 1.349 . S
C3937 C3935 1.327 . S
C3937 C3953 1.429 . S
C3937 H3959 0.950 . S
C3938 H3934 0.949 . S
C3938 C3946 1.574 . S
C3938 C3954 1.368 . S
H3939 C3947 0.950 . S
H3940 C3945 0.950 . S
H3941 C3946 0.949 . S
H3942 C3948 0.950 . S
H3943 C3949 0.950 . S
H3944 C3950 0.949 . S
C3945 H3940 0.950 . S
C3945 C3947 1.327 . S
C3945 C3951 1.429 . S
C3946 C3938 1.574 . S
C3946 H3941 0.949 . S
C3946 C3952 1.368 . S
C3947 C3931 1.349 . S
C3947 H3939 0.950 . S
C3947 C3945 1.327 . S
C3948 C3936 1.349 . S
C3948 H3942 0.950 . S
C3948 C3949 1.327 . S
C3949 H3943 0.950 . S
C3949 C3948 1.327 . S
C3949 C3953 1.429 . S
C3950 C3933 1.574 . S
C3950 H3944 0.949 . S
C3950 C3954 1.368 . S
C3951 C3932 1.429 . S
C3951 C3945 1.429 . S
C3951 C3952 1.523 . S
C3952 C3933 1.368 . S
C3952 C3946 1.368 . S
C3952 C3951 1.523 . S
C3953 C3937 1.429 . S
C3953 C3949 1.429 . S
C3953 C3954 1.523 . S
C3954 C3938 1.368 . S
C3954 C3950 1.368 . S
C3954 C3953 1.523 . S
H3955 C3930 0.950 1_655 S
H3956 C3932 0.950 . S
H3957 C3933 0.949 . S
H3958 C3935 0.950 . S
H3959 C3937 0.950 . S
C3960 C3961 1.349 . S
C3960 C3962 1.327 . S
C3960 H3985 0.950 . S
C3961 C3960 1.349 . S
C3961 C3977 1.349 . S
C3962 C3960 1.327 . S
C3962 C3981 1.429 . S
C3962 H3986 0.950 . S
C3963 C3980 1.574 . S
C3963 C3982 1.368 . S
C3963 H3987 0.949 . S
H3964 C3968 0.949 . S
C3965 C3966 1.349 . S
C3965 C3967 1.327 . S
C3965 H3988 0.950 . S
C3966 C3965 1.349 . S
C3966 C3978 1.349 . S
C3967 C3965 1.327 . S
C3967 C3983 1.429 . S
C3967 H3989 0.950 . S
C3968 H3964 0.949 . S
C3968 C3976 1.574 . S
C3968 C3984 1.368 . S
H3969 C3977 0.950 . S
H3970 C3975 0.950 . S
H3971 C3976 0.949 . S
H3972 C3978 0.950 . S
H3973 C3979 0.950 . S
H3974 C3980 0.949 . S
C3975 H3970 0.950 . S
C3975 C3977 1.327 . S
C3975 C3981 1.429 . S
C3976 C3968 1.574 . S
C3976 H3971 0.949 . S
C3976 C3982 1.368 . S
C3977 C3961 1.349 . S
C3977 H3969 0.950 . S
C3977 C3975 1.327 . S
C3978 C3966 1.349 . S
C3978 H3972 0.950 . S
C3978 C3979 1.327 . S
C3979 H3973 0.950 . S
C3979 C3978 1.327 . S
C3979 C3983 1.429 . S
C3980 C3963 1.574 . S
C3980 H3974 0.949 . S
C3980 C3984 1.368 . S
C3981 C3962 1.429 . S
C3981 C3975 1.429 . S
C3981 C3982 1.523 . S
C3982 C3963 1.368 . S
C3982 C3976 1.368 . S
C3982 C3981 1.523 . S
C3983 C3967 1.429 . S
C3983 C3979 1.429 . S
C3983 C3984 1.523 . S
C3984 C3968 1.368 . S
C3984 C3980 1.368 . S
C3984 C3983 1.523 . S
H3985 C3960 0.950 . S
H3986 C3962 0.950 . S
H3987 C3963 0.949 . S
H3988 C3965 0.950 . S
H3989 C3967 0.950 . S
C3990 C3991 1.349 . S
C3990 C3992 1.327 . S
C3990 H4015 0.950 . S
C3991 C3990 1.349 . S
C3991 C4007 1.349 . S
C3992 C3990 1.327 . S
C3992 C4011 1.429 . S
C3992 H4016 0.950 . S
C3993 C4010 1.574 . S
C3993 C4012 1.368 . S
C3993 H4017 0.949 . S
H3994 C3998 0.949 . S
C3995 C3996 1.349 . S
C3995 C3997 1.327 . S
C3995 H4018 0.950 . S
C3996 C3995 1.349 . S
C3996 C4008 1.349 . S
C3997 C3995 1.327 . S
C3997 C4013 1.429 . S
C3997 H4019 0.950 . S
C3998 H3994 0.949 . S
C3998 C4006 1.574 . S
C3998 C4014 1.368 . S
H3999 C4007 0.950 1_545 S
H4000 C4005 0.950 . S
H4001 C4006 0.949 . S
H4002 C4008 0.950 . S
H4003 C4009 0.950 . S
H4004 C4010 0.949 . S
C4005 H4000 0.950 . S
C4005 C4007 1.327 . S
C4005 C4011 1.429 . S
C4006 C3998 1.574 . S
C4006 H4001 0.949 . S
C4006 C4012 1.368 . S
C4007 C3991 1.349 . S
C4007 H3999 0.950 1_565 S
C4007 C4005 1.327 . S
C4008 C3996 1.349 . S
C4008 H4002 0.950 . S
C4008 C4009 1.327 . S
C4009 H4003 0.950 . S
C4009 C4008 1.327 . S
C4009 C4013 1.429 . S
C4010 C3993 1.574 . S
C4010 H4004 0.949 . S
C4010 C4014 1.368 . S
C4011 C3992 1.429 . S
C4011 C4005 1.429 . S
C4011 C4012 1.523 . S
C4012 C3993 1.368 . S
C4012 C4006 1.368 . S
C4012 C4011 1.523 . S
C4013 C3997 1.429 . S
C4013 C4009 1.429 . S
C4013 C4014 1.523 . S
C4014 C3998 1.368 . S
C4014 C4010 1.368 . S
C4014 C4013 1.523 . S
H4015 C3990 0.950 . S
H4016 C3992 0.950 . S
H4017 C3993 0.949 . S
H4018 C3995 0.950 . S
H4019 C3997 0.950 . S
C4020 C4021 1.349 . S
C4020 C4022 1.327 . S
C4020 H4045 0.950 1_455 S
C4021 C4020 1.349 . S
C4021 C4037 1.349 . S
C4022 C4020 1.327 . S
C4022 C4041 1.429 . S
C4022 H4046 0.950 . S
C4023 C4040 1.574 . S
C4023 C4042 1.368 . S
C4023 H4047 0.949 . S
H4024 C4028 0.949 . S
C4025 C4026 1.349 . S
C4025 C4027 1.327 . S
C4025 H4048 0.950 . S
C4026 C4025 1.349 . S
C4026 C4038 1.349 . S
C4027 C4025 1.327 . S
C4027 C4043 1.429 . S
C4027 H4049 0.950 . S
C4028 H4024 0.949 . S
C4028 C4036 1.574 . S
C4028 C4044 1.368 . S
H4029 C4037 0.950 . S
H4030 C4035 0.950 . S
H4031 C4036 0.949 . S
H4032 C4038 0.950 . S
H4033 C4039 0.950 . S
H4034 C4040 0.949 . S
C4035 H4030 0.950 . S
C4035 C4037 1.327 . S
C4035 C4041 1.429 . S
C4036 C4028 1.574 . S
C4036 H4031 0.949 . S
C4036 C4042 1.368 . S
C4037 C4021 1.349 . S
C4037 H4029 0.950 . S
C4037 C4035 1.327 . S
C4038 C4026 1.349 . S
C4038 H4032 0.950 . S
C4038 C4039 1.327 . S
C4039 H4033 0.950 . S
C4039 C4038 1.327 . S
C4039 C4043 1.429 . S
C4040 C4023 1.574 . S
C4040 H4034 0.949 . S
C4040 C4044 1.368 . S
C4041 C4022 1.429 . S
C4041 C4035 1.429 . S
C4041 C4042 1.523 . S
C4042 C4023 1.368 . S
C4042 C4036 1.368 . S
C4042 C4041 1.523 . S
C4043 C4027 1.429 . S
C4043 C4039 1.429 . S
C4043 C4044 1.523 . S
C4044 C4028 1.368 . S
C4044 C4040 1.368 . S
C4044 C4043 1.523 . S
H4045 C4020 0.950 1_655 S
H4046 C4022 0.950 . S
H4047 C4023 0.949 . S
H4048 C4025 0.950 . S
H4049 C4027 0.950 . S
C4050 C4051 1.349 . S
C4050 C4052 1.327 . S
C4050 H4075 0.950 . S
C4051 C4050 1.349 . S
C4051 C4067 1.349 . S
C4052 C4050 1.327 . S
C4052 C4071 1.429 . S
C4052 H4076 0.950 . S
C4053 C4070 1.574 . S
C4053 C4072 1.368 . S
C4053 H4077 0.949 . S
H4054 C4058 0.949 . S
C4055 C4056 1.349 . S
C4055 C4057 1.327 . S
C4055 H4078 0.950 . S
C4056 C4055 1.349 . S
C4056 C4068 1.349 . S
C4057 C4055 1.327 . S
C4057 C4073 1.429 . S
C4057 H4079 0.950 . S
C4058 H4054 0.949 . S
C4058 C4066 1.574 . S
C4058 C4074 1.368 . S
H4059 C4067 0.950 . S
H4060 C4065 0.950 . S
H4061 C4066 0.949 . S
H4062 C4068 0.950 . S
H4063 C4069 0.950 . S
H4064 C4070 0.949 . S
C4065 H4060 0.950 . S
C4065 C4067 1.327 . S
C4065 C4071 1.429 . S
C4066 C4058 1.574 . S
C4066 H4061 0.949 . S
C4066 C4072 1.368 . S
C4067 C4051 1.349 . S
C4067 H4059 0.950 . S
C4067 C4065 1.327 . S
C4068 C4056 1.349 . S
C4068 H4062 0.950 . S
C4068 C4069 1.327 . S
C4069 H4063 0.950 . S
C4069 C4068 1.327 . S
C4069 C4073 1.429 . S
C4070 C4053 1.574 . S
C4070 H4064 0.949 . S
C4070 C4074 1.368 . S
C4071 C4052 1.429 . S
C4071 C4065 1.429 . S
C4071 C4072 1.523 . S
C4072 C4053 1.368 . S
C4072 C4066 1.368 . S
C4072 C4071 1.523 . S
C4073 C4057 1.429 . S
C4073 C4069 1.429 . S
C4073 C4074 1.523 . S
C4074 C4058 1.368 . S
C4074 C4070 1.368 . S
C4074 C4073 1.523 . S
H4075 C4050 0.950 . S
H4076 C4052 0.950 . S
H4077 C4053 0.949 . S
H4078 C4055 0.950 . S
H4079 C4057 0.950 . S
C4080 C4081 1.349 . S
C4080 C4082 1.327 . S
C4080 H4105 0.950 . S
C4081 C4080 1.349 . S
C4081 C4097 1.349 . S
C4082 C4080 1.327 . S
C4082 C4101 1.429 . S
C4082 H4106 0.950 . S
C4083 C4100 1.574 . S
C4083 C4102 1.368 . S
C4083 H4107 0.949 . S
H4084 C4088 0.949 . S
C4085 C4086 1.349 . S
C4085 C4087 1.327 . S
C4085 H4108 0.950 . S
C4086 C4085 1.349 . S
C4086 C4098 1.349 . S
C4087 C4085 1.327 . S
C4087 C4103 1.429 . S
C4087 H4109 0.950 . S
C4088 H4084 0.949 . S
C4088 C4096 1.574 . S
C4088 C4104 1.368 . S
H4089 C4097 0.950 . S
H4090 C4095 0.950 . S
H4091 C4096 0.949 . S
H4092 C4098 0.950 . S
H4093 C4099 0.950 . S
H4094 C4100 0.949 . S
C4095 H4090 0.950 . S
C4095 C4097 1.327 . S
C4095 C4101 1.429 . S
C4096 C4088 1.574 . S
C4096 H4091 0.949 . S
C4096 C4102 1.368 . S
C4097 C4081 1.349 . S
C4097 H4089 0.950 . S
C4097 C4095 1.327 . S
C4098 C4086 1.349 . S
C4098 H4092 0.950 . S
C4098 C4099 1.327 . S
C4099 H4093 0.950 . S
C4099 C4098 1.327 . S
C4099 C4103 1.429 . S
C4100 C4083 1.574 . S
C4100 H4094 0.949 . S
C4100 C4104 1.368 . S
C4101 C4082 1.429 . S
C4101 C4095 1.429 . S
C4101 C4102 1.523 . S
C4102 C4083 1.368 . S
C4102 C4096 1.368 . S
C4102 C4101 1.523 . S
C4103 C4087 1.429 . S
C4103 C4099 1.429 . S
C4103 C4104 1.523 . S
C4104 C4088 1.368 . S
C4104 C4100 1.368 . S
C4104 C4103 1.523 . S
H4105 C4080 0.950 . S
H4106 C4082 0.950 . S
H4107 C4083 0.949 . S
H4108 C4085 0.950 . S
H4109 C4087 0.950 . S
C4110 C4111 1.349 . S
C4110 C4112 1.327 . S
C4110 H4135 0.950 . S
C4111 C4110 1.349 . S
C4111 C4127 1.349 . S
C4112 C4110 1.327 . S
C4112 C4131 1.429 . S
C4112 H4136 0.950 . S
C4113 C4130 1.574 . S
C4113 C4132 1.368 . S
C4113 H4137 0.949 . S
H4114 C4118 0.949 . S
C4115 C4116 1.349 . S
C4115 C4117 1.327 . S
C4115 H4138 0.950 . S
C4116 C4115 1.349 . S
C4116 C4128 1.349 . S
C4117 C4115 1.327 . S
C4117 C4133 1.429 . S
C4117 H4139 0.950 . S
C4118 H4114 0.949 . S
C4118 C4126 1.574 . S
C4118 C4134 1.368 . S
H4119 C4127 0.950 . S
H4120 C4125 0.950 . S
H4121 C4126 0.949 . S
H4122 C4128 0.950 . S
H4123 C4129 0.950 . S
H4124 C4130 0.949 . S
C4125 H4120 0.950 . S
C4125 C4127 1.327 . S
C4125 C4131 1.429 . S
C4126 C4118 1.574 . S
C4126 H4121 0.949 . S
C4126 C4132 1.368 . S
C4127 C4111 1.349 . S
C4127 H4119 0.950 . S
C4127 C4125 1.327 . S
C4128 C4116 1.349 . S
C4128 H4122 0.950 . S
C4128 C4129 1.327 . S
C4129 H4123 0.950 . S
C4129 C4128 1.327 . S
C4129 C4133 1.429 . S
C4130 C4113 1.574 . S
C4130 H4124 0.949 . S
C4130 C4134 1.368 . S
C4131 C4112 1.429 . S
C4131 C4125 1.429 . S
C4131 C4132 1.523 . S
C4132 C4113 1.368 . S
C4132 C4126 1.368 . S
C4132 C4131 1.523 . S
C4133 C4117 1.429 . S
C4133 C4129 1.429 . S
C4133 C4134 1.523 . S
C4134 C4118 1.368 . S
C4134 C4130 1.368 . S
C4134 C4133 1.523 . S
H4135 C4110 0.950 . S
H4136 C4112 0.950 . S
H4137 C4113 0.949 . S
H4138 C4115 0.950 . S
H4139 C4117 0.950 . S
C1981 C4 1.037 1_655 S
C1986 C1377 1.049 . S
C2011 C38 1.722 . S
C2016 C1457 1.687 . S
C2046 C1525 1.236 . S
C2041 C74 1.248 . S
C2071 C76 1.659 . S
C2076 C1605 1.664 . S
C2101 C2 1.500 1_556 S
C2106 C1679 1.548 . S
C2131 C40 1.561 . S
C2136 C1747 1.493 . S
C2161 C110 1.034 . S
C2166 C1673 1.023 . S
C2196 C1753 1.419 . S
C2191 C148 1.412 . S
C2226 C1599 1.291 . S
C2221 C182 1.290 . S
C2251 C184 1.684 . S
C2256 C1531 1.735 1_545 S
C2286 C1383 1.431 . S
C2281 C112 1.410 . S
C2311 C146 1.472 . S
C2316 C1451 1.462 . S
C2341 C220 1.390 . S
C2346 C1821 1.308 . S
C2371 C254 1.771 . S
C2376 C1901 1.720 . S
C2406 C1969 1.500 . S
C2401 C290 1.578 . S
C2431 C292 1.835 . S
C2436 C717 1.793 . S
C2461 C218 1.802 . S
C2466 C791 1.761 . S
C2491 C256 1.579 . S
C2496 C859 1.506 . S
C2521 C326 1.154 . S
C2526 C785 1.132 . S
C2551 C364 1.497 . S
C2556 C865 1.499 . S
C2586 C711 1.469 . S
C2581 C398 1.474 . S
C2616 C1975 1.902 . S
C2611 C400 1.896 . S
C2646 C1827 1.458 . S
C2641 C328 1.460 . S
C2676 C1895 1.517 . S
C2671 C362 1.531 . S
C2701 C436 1.271 . S
C2706 C933 1.198 . S
C2731 C470 1.791 . S
C2736 C1013 1.744 . S
C2761 C506 1.608 . S
C2766 C1081 1.537 . S
C2791 C508 1.953 . S
C2796 C1161 1.906 . S
C2826 C1235 1.727 . S
C2821 C434 1.772 . S
C2856 C1303 1.542 . S
C2851 C472 1.619 . S
C2886 C1229 1.281 . S
C2881 C542 1.307 . S
C2916 C1309 1.465 . S
C2911 C580 1.466 . S
C2941 C614 1.402 . S
C2946 C1155 1.392 . S
C2976 C1087 1.761 . S
C2971 C616 1.754 . S
C3001 C544 1.514 . S
C3006 C939 1.516 . S
C3036 C1007 1.482 . S
C3031 C578 1.489 . S
C3066 C687 2.028 . S
C3061 C14 2.019 . S
C3091 C39 1.464 . S
C3096 C761 1.451 . S
C3126 C847 1.449 . S
C3121 C75 1.458 . S
C3156 C921 1.072 . S
C3151 C86 1.068 . S
C3186 C983 1.632 . S
C3181 C3 1.651 1_556 S
C3216 C1069 1.568 . S
C3211 C50 1.542 . S
C3241 C111 2.157 . S
C3246 C1057 2.077 . S
C3271 C158 1.579 . S
C3276 C909 1.520 . S
C3301 C183 1.796 . S
C3306 C995 1.756 . S
C3331 C194 1.465 . S
C3336 C773 1.415 . S
C3366 C835 1.685 . S
C3361 C122 1.748 . S
C3391 C147 1.662 . S
C3396 C699 1.622 . S
C3426 C1131 1.970 . S
C3421 C230 1.959 . S
C3451 C255 1.647 1_545 S
C3456 C1205 1.631 . S
C3481 C291 1.519 1_655 S
C3486 C1291 1.505 . S
C3516 C1365 0.885 . S
C3511 C302 0.869 . S
C3541 C219 1.557 . S
C3546 C1427 1.540 . S
C3571 C266 1.352 . S
C3576 C1513 1.414 . S
C3601 C327 1.755 . S
C3606 C1501 1.740 . S
C3631 C374 1.290 . S
C3636 C1353 1.294 . S
C3666 C1439 1.689 . S
C3661 C399 1.731 . S
C3691 C410 1.438 . S
C3696 C1217 1.386 . S
C3721 C338 1.795 1_545 S
C3726 C1279 1.751 . S
C3756 C1143 1.755 . S
C3751 C363 1.800 1_655 S
C3786 C1575 1.802 . S
C3781 C446 1.755 . S
C3811 C471 1.261 . S
C3816 C1649 1.253 . S
C3841 C507 1.387 . S
C3846 C1735 1.378 . S
C3876 C1809 1.068 . S
C3871 C518 1.074 . S
C3906 C1871 1.687 . S
C3901 C435 1.703 1_565 S
C3931 C482 1.664 1_455 S
C3936 C1957 1.702 . S
C3961 C543 2.078 . S
C3966 C1945 1.989 . S
C3991 C590 1.743 1_565 S
C3996 C1797 1.693 . S
C4026 C1883 1.792 . S
C4021 C615 1.843 1_455 S
C4056 C1661 1.019 . S
C4051 C626 1.011 . S
C4086 C1723 1.639 . S
C4081 C554 1.686 . S
C4111 C579 1.401 . S
C4116 C1587 1.388 . S
