# Generated by pormake.
# Topology pyr, (3,6)-cn, num edge types: 1
# Building blocks:
#     Node 0, Type 0, BuildingBlock: QEWDON_clean_linker_0, # of connection points: 3
#     Node 1, Type 0, BuildingBlock: QEWDON_clean_linker_0, # of connection points: 3
#     Node 2, Type 0, BuildingBlock: QEWDON_clean_linker_0, # of connection points: 3
#     Node 3, Type 0, BuildingBlock: QEWDON_clean_linker_0, # of connection points: 3
#     Node 4, Type 0, BuildingBlock: QEWDON_clean_linker_0, # of connection points: 3
#     Node 5, Type 0, BuildingBlock: QEWDON_clean_linker_0, # of connection points: 3
#     Node 6, Type 0, BuildingBlock: QEWDON_clean_linker_0, # of connection points: 3
#     Node 7, Type 0, BuildingBlock: QEWDON_clean_linker_0, # of connection points: 3
#     Node 8, Type 1, BuildingBlock: PAMTOO_clean_sbu_0, # of connection points: 6
#     Node 9, Type 1, BuildingBlock: PAMTOO_clean_sbu_0, # of connection points: 6
#     Node 10, Type 1, BuildingBlock: PAMTOO_clean_sbu_0, # of connection points: 6
#     Node 11, Type 1, BuildingBlock: PAMTOO_clean_sbu_0, # of connection points: 6
#     Edge 12, Type (0, 1), BuildingBlock: UVAHIK_clean_linker_0, # of connection points: 2
#     Edge 13, Type (0, 1), BuildingBlock: UVAHIK_clean_linker_0, # of connection points: 2
#     Edge 14, Type (0, 1), BuildingBlock: UVAHIK_clean_linker_0, # of connection points: 2
#     Edge 15, Type (0, 1), BuildingBlock: UVAHIK_clean_linker_0, # of connection points: 2
#     Edge 16, Type (0, 1), BuildingBlock: UVAHIK_clean_linker_0, # of connection points: 2
#     Edge 17, Type (0, 1), BuildingBlock: UVAHIK_clean_linker_0, # of connection points: 2
#     Edge 18, Type (0, 1), BuildingBlock: UVAHIK_clean_linker_0, # of connection points: 2
#     Edge 19, Type (0, 1), BuildingBlock: UVAHIK_clean_linker_0, # of connection points: 2
#     Edge 20, Type (0, 1), BuildingBlock: UVAHIK_clean_linker_0, # of connection points: 2
#     Edge 21, Type (0, 1), BuildingBlock: UVAHIK_clean_linker_0, # of connection points: 2
#     Edge 22, Type (0, 1), BuildingBlock: UVAHIK_clean_linker_0, # of connection points: 2
#     Edge 23, Type (0, 1), BuildingBlock: UVAHIK_clean_linker_0, # of connection points: 2
#     Edge 24, Type (0, 1), BuildingBlock: UVAHIK_clean_linker_0, # of connection points: 2
#     Edge 25, Type (0, 1), BuildingBlock: UVAHIK_clean_linker_0, # of connection points: 2
#     Edge 26, Type (0, 1), BuildingBlock: UVAHIK_clean_linker_0, # of connection points: 2
#     Edge 27, Type (0, 1), BuildingBlock: UVAHIK_clean_linker_0, # of connection points: 2
#     Edge 28, Type (0, 1), BuildingBlock: UVAHIK_clean_linker_0, # of connection points: 2
#     Edge 29, Type (0, 1), BuildingBlock: UVAHIK_clean_linker_0, # of connection points: 2
#     Edge 30, Type (0, 1), BuildingBlock: UVAHIK_clean_linker_0, # of connection points: 2
#     Edge 31, Type (0, 1), BuildingBlock: UVAHIK_clean_linker_0, # of connection points: 2
#     Edge 32, Type (0, 1), BuildingBlock: UVAHIK_clean_linker_0, # of connection points: 2
#     Edge 33, Type (0, 1), BuildingBlock: UVAHIK_clean_linker_0, # of connection points: 2
#     Edge 34, Type (0, 1), BuildingBlock: UVAHIK_clean_linker_0, # of connection points: 2
#     Edge 35, Type (0, 1), BuildingBlock: UVAHIK_clean_linker_0, # of connection points: 2
# Relax obj value: 0.120
# Max RMSD: 0.248
# Mean RMSD: 0.180
data_MOF--net-pyr--node1-PAMTOO_clean_sbu_0--node2-QEWDON_clean_linker_0--edge1-UVAHIK_clean_linker_0
_symmetry_space_group_name_H-M    P1
_symmetry_Int_Tables_number       1
_symmetry_cell_setting            triclinic
loop_
_symmetry_equiv_pos_as_xyz
'x, y, z'
_cell_length_a     47.605535
_cell_length_b     50.451084
_cell_length_c     54.313334
_cell_angle_alpha  90.16477
_cell_angle_beta   90.40896
_cell_angle_gamma 111.40208
loop_
_atom_site_label
_atom_site_type_symbol
_atom_site_fract_x
_atom_site_fract_y
_atom_site_fract_z
_atom_type_partial_charge
H0 H 0.37413 0.30491 0.17841 0.0
C1 C 0.36046 0.29782 0.1947 0.0
C2 C 0.35967 0.27295 0.20676 0.0
C3 C 0.34327 0.31342 0.2032 0.0
H4 H 0.34133 0.24524 0.23756 0.0
C5 C 0.34166 0.26403 0.22774 0.0
C6 C 0.32422 0.27929 0.23638 0.0
C7 C 0.32474 0.30373 0.22381 0.0
C8 C 0.34598 0.34061 0.19125 0.0
H9 H 0.31181 0.31591 0.23075 0.0
C10 C 0.32017 0.34643 0.18464 0.0
C11 C 0.32297 0.37237 0.1733 0.0
C12 C 0.37469 0.36104 0.18658 0.0
H13 H 0.39489 0.35718 0.1917 0.0
C14 C 0.37763 0.38688 0.17569 0.0
H15 H 0.29801 0.33042 0.18773 0.0
C16 C 0.35204 0.3926 0.16914 0.0
H17 H 0.35509 0.41303 0.16103 0.0
H18 H 0.39985 0.40262 0.1724 0.0
H19 H 0.19869 0.82807 0.7558 0.0
C20 C 0.2133 0.82016 0.74529 0.0
C21 C 0.24139 0.82204 0.75502 0.0
C22 C 0.20319 0.80675 0.72252 0.0
H23 H 0.28165 0.81315 0.74822 0.0
C24 C 0.2595 0.81093 0.74127 0.0
C25 C 0.24945 0.79701 0.71865 0.0
C26 C 0.22118 0.7951 0.7093 0.0
C27 C 0.17255 0.80267 0.71372 0.0
H28 H 0.21276 0.78389 0.69214 0.0
C29 C 0.16647 0.82495 0.70227 0.0
C30 C 0.13682 0.82127 0.69478 0.0
C31 C 0.1491 0.77652 0.71758 0.0
H32 H 0.15351 0.7592 0.72645 0.0
C33 C 0.11971 0.77273 0.71046 0.0
H34 H 0.18494 0.84488 0.69899 0.0
C35 C 0.11351 0.79491 0.69931 0.0
H36 H 0.0903 0.79142 0.69456 0.0
H37 H 0.10159 0.75261 0.71378 0.0
H38 H 0.67584 0.45408 0.87038 0.0
C39 C 0.66626 0.43263 0.87755 0.0
C40 C 0.68473 0.42113 0.89061 0.0
C41 C 0.63514 0.41704 0.87482 0.0
H42 H 0.68575 0.38497 0.91113 0.0
C43 C 0.67179 0.39371 0.90056 0.0
C44 C 0.6408 0.37797 0.89823 0.0
C45 C 0.62263 0.38962 0.88506 0.0
C46 C 0.61508 0.43064 0.86398 0.0
H47 H 0.59854 0.37786 0.88363 0.0
C48 C 0.62062 0.44349 0.84057 0.0
C49 C 0.60171 0.45709 0.83111 0.0
C50 C 0.59046 0.43143 0.87767 0.0
H51 H 0.58589 0.42194 0.89579 0.0
C52 C 0.57187 0.44499 0.86841 0.0
H53 H 0.63948 0.44291 0.82982 0.0
C54 C 0.57745 0.4578 0.84534 0.0
H55 H 0.56242 0.46786 0.83841 0.0
H56 H 0.55303 0.44556 0.87916 0.0
H57 H 0.89 0.75513 0.33251 0.0
C58 C 0.87295 0.74236 0.34516 0.0
C59 C 0.87371 0.75102 0.36991 0.0
C60 C 0.84914 0.71818 0.33637 0.0
H61 H 0.8507 0.74186 0.40468 0.0
C62 C 0.85068 0.73491 0.38577 0.0
C63 C 0.82647 0.71109 0.37721 0.0
C64 C 0.82606 0.7026 0.35252 0.0
C65 C 0.84536 0.71211 0.30959 0.0
H66 H 0.80693 0.68485 0.34546 0.0
C67 C 0.86567 0.70326 0.29613 0.0
C68 C 0.86155 0.69838 0.27051 0.0
C69 C 0.821 0.71579 0.29731 0.0
H70 H 0.80519 0.72263 0.30732 0.0
C71 C 0.81703 0.71115 0.27202 0.0
H72 H 0.88447 0.70025 0.30548 0.0
C73 C 0.83718 0.7026 0.25867 0.0
H74 H 0.83346 0.69885 0.23905 0.0
H75 H 0.79824 0.71417 0.26272 0.0
H76 H 0.72235 0.78806 0.91241 0.0
C77 C 0.73274 0.80462 0.89906 0.0
C78 C 0.76227 0.80975 0.89115 0.0
C79 C 0.71634 0.82051 0.88952 0.0
H80 H 0.79779 0.83461 0.86706 0.0
C81 C 0.77516 0.83087 0.87346 0.0
C82 C 0.75903 0.84684 0.86362 0.0
C83 C 0.72964 0.8417 0.87197 0.0
C84 C 0.68473 0.81402 0.89692 0.0
H85 H 0.71685 0.85377 0.86449 0.0
C86 C 0.6757 0.83541 0.90681 0.0
C87 C 0.64535 0.82948 0.91323 0.0
C88 C 0.66334 0.78645 0.89358 0.0
H89 H 0.66986 0.76972 0.88591 0.0
C90 C 0.63322 0.78046 0.89953 0.0
H91 H 0.69257 0.85641 0.90998 0.0
C92 C 0.62419 0.80176 0.90912 0.0
H93 H 0.60052 0.79647 0.91309 0.0
H94 H 0.61673 0.75924 0.89654 0.0
H95 H 0.84505 0.2672 0.44524 0.0
C96 C 0.83438 0.26619 0.4274 0.0
C97 C 0.84593 0.25658 0.40694 0.0
C98 C 0.80839 0.27312 0.4253 0.0
H99 H 0.84055 0.24727 0.36811 0.0
C100 C 0.83199 0.2551 0.38387 0.0
C101 C 0.80642 0.26255 0.38119 0.0
C102 C 0.79474 0.27147 0.402 0.0
C103 C 0.79443 0.28004 0.44772 0.0
H104 H 0.7745 0.2764 0.40012 0.0
C105 C 0.78051 0.3004 0.44708 0.0
C106 C 0.76669 0.3062 0.46823 0.0
C107 C 0.79422 0.26557 0.4699 0.0
H108 H 0.80385 0.2492 0.47098 0.0
C109 C 0.78089 0.27149 0.49091 0.0
H110 H 0.78075 0.31201 0.43029 0.0
C111 C 0.76719 0.2916 0.49014 0.0
H112 H 0.75634 0.29522 0.50659 0.0
H113 H 0.78078 0.26011 0.5078 0.0
H114 H 0.41777 0.75489 0.25014 0.0
C115 C 0.39508 0.74589 0.24262 0.0
C116 C 0.38319 0.7632 0.22907 0.0
C117 C 0.37836 0.71655 0.24496 0.0
H118 H 0.34607 0.76397 0.20647 0.0
C119 C 0.35467 0.75099 0.21793 0.0
C120 C 0.33812 0.72178 0.21974 0.0
C121 C 0.34972 0.70475 0.23369 0.0
C122 C 0.3926 0.69717 0.25499 0.0
H123 H 0.3374 0.68195 0.23438 0.0
C124 C 0.40176 0.69823 0.27987 0.0
C125 C 0.4145 0.67873 0.28872 0.0
C126 C 0.39652 0.67681 0.2391 0.0
H127 H 0.38974 0.67573 0.21992 0.0
C128 C 0.40918 0.6577 0.2477 0.0
H129 H 0.39875 0.71388 0.2922 0.0
C130 C 0.41797 0.65851 0.27227 0.0
H131 H 0.42701 0.64283 0.2785 0.0
H132 H 0.41194 0.64199 0.23531 0.0
H133 H 0.19916 0.42511 0.75365 0.0
C134 C 0.1863 0.40613 0.74327 0.0
C135 C 0.19282 0.40383 0.71821 0.0
C136 C 0.16433 0.38324 0.75532 0.0
H137 H 0.18254 0.37576 0.68653 0.0
C138 C 0.17692 0.37838 0.70546 0.0
C139 C 0.15483 0.35554 0.71709 0.0
C140 C 0.14819 0.35832 0.74183 0.0
C141 C 0.16131 0.38312 0.7826 0.0
H142 H 0.13167 0.34038 0.75102 0.0
C143 C 0.15707 0.40561 0.79575 0.0
C144 C 0.15448 0.40441 0.82172 0.0
C145 C 0.16314 0.35979 0.7957 0.0
H146 H 0.16687 0.34247 0.78618 0.0
C147 C 0.16052 0.35854 0.82118 0.0
H148 H 0.15573 0.42376 0.78589 0.0
C149 C 0.15613 0.38053 0.83409 0.0
H150 H 0.15361 0.37863 0.85389 0.0
H151 H 0.16182 0.34037 0.83099 0.0
Dy152 Dy 0.05236 0.06785 0.52322 0.0
Dy153 Dy 0.98665 0.04283 0.55109 0.0
C154 C 0.03751 0.10032 0.56814 0.0
O155 O 0.06068 0.04702 0.55741 0.0
O156 O 0.01222 0.01661 0.56487 0.0
O157 O 0.10006 0.09341 0.52326 0.0
O158 O 0.07903 0.06722 0.49156 0.0
O159 O 0.98092 0.02202 0.51401 0.0
O160 O 0.02876 0.02243 0.51216 0.0
O161 O 0.98383 0.0773 0.527 0.0
O162 O 0.02277 0.08367 0.49993 0.0
O163 O 0.9466 0.00702 0.56075 0.0
O164 O 0.95143 0.04983 0.57174 0.0
C165 C 0.04147 0.0244 0.56812 0.0
O166 O 0.04775 0.10315 0.54555 0.0
O167 O 0.01897 0.07555 0.57606 0.0
C168 C 0.12095 0.10881 0.4841 0.0
C169 C 0.15355 0.14897 0.44889 0.0
C170 C 0.12473 0.14755 0.45627 0.0
C171 C 0.10852 0.12758 0.47377 0.0
C172 C 0.14981 0.11054 0.47722 0.0
C173 C 0.16596 0.13037 0.45978 0.0
C174 C 0.10361 0.08604 0.50079 0.0
C175 C 1.00039 0.0116 0.50527 0.0
C176 C 0.99841 0.08816 0.50678 0.0
C177 C 0.92321 0.01192 0.59781 0.0
C178 C 0.89753 0.99103 0.64383 0.0
C179 C 0.88488 0.97654 0.6219 0.0
C180 C 0.89755 0.98695 0.59915 0.0
C181 C 0.93628 0.02628 0.61965 0.0
C182 C 0.92349 0.01596 0.64244 0.0
C183 C 0.93538 0.02272 0.57344 0.0
H184 H 0.11464 0.16171 0.4484 0.0
H185 H 0.08614 0.12642 0.47889 0.0
H186 H 0.15958 0.09601 0.48489 0.0
H187 H 0.18779 0.13043 0.45423 0.0
H188 H 0.86528 0.957 0.62227 0.0
H189 H 0.88721 0.97551 0.58252 0.0
H190 H 0.95617 0.04558 0.61911 0.0
H191 H 0.93367 0.0278 0.65893 0.0
Dy192 Dy 0.49113 0.0562 0.04414 0.0
Dy193 Dy 0.55449 0.07801 0.0766 0.0
C194 C 0.50054 0.01994 0.08974 0.0
O195 O 0.49063 0.09294 0.06663 0.0
O196 O 0.52233 0.09181 0.09832 0.0
O197 O 0.44241 0.03994 0.04077 0.0
O198 O 0.47034 0.05333 0.00837 0.0
O199 O 0.55393 0.11579 0.05576 0.0
O200 O 0.52637 0.09055 0.02331 0.0
O201 O 0.56214 0.05597 0.04274 0.0
O202 O 0.51352 0.02577 0.03498 0.0
O203 O 0.60254 0.10221 0.07879 0.0
O204 O 0.57912 0.07668 0.10963 0.0
C205 C 0.50126 0.10004 0.08904 0.0
O206 O 0.48124 0.02799 0.07728 0.0
O207 O 0.52981 0.03313 0.08778 0.0
C208 C 0.4214 0.01968 1.00204 0.0
C209 C 0.38119 0.97764 0.97115 0.0
C210 C 0.39375 0.96984 0.99223 0.0
C211 C 0.4138 0.99075 0.00758 0.0
C212 C 0.40878 0.02745 0.98123 0.0
C213 C 0.389 0.00672 0.96591 0.0
C214 C 0.44302 0.04251 0.01687 0.0
C215 C 0.54474 0.11459 0.03285 0.0
C216 C 0.54274 0.0327 0.0326 0.0
C217 C 0.62083 0.11812 0.11885 0.0
C218 C 0.65159 0.15796 0.15551 0.0
C219 C 0.62128 0.15324 0.14968 0.0
C220 C 0.60602 0.1335 0.13144 0.0
C221 C 0.65126 0.12344 0.124 0.0
C222 C 0.66655 0.14321 0.14213 0.0
C223 C 0.60445 0.09512 0.10163 0.0
H224 H 0.38811 0.94765 0.99686 0.0
H225 H 0.42348 0.98438 0.02356 0.0
H226 H 0.41462 0.04969 0.97659 0.0
H227 H 0.38044 0.01358 0.94957 0.0
H228 H 0.60925 0.1645 0.15948 0.0
H229 H 0.58249 0.12969 0.12761 0.0
H230 H 0.66296 0.11165 0.11449 0.0
H231 H 0.68974 0.14604 0.14638 0.0
Dy232 Dy 0.51065 0.54306 0.54692 0.0
Dy233 Dy 0.52296 0.60508 0.57369 0.0
C234 C 0.54621 0.55981 0.59873 0.0
O235 O 0.46562 0.54061 0.56098 0.0
O236 O 0.48333 0.57321 0.59224 0.0
O237 O 0.49894 0.49742 0.54843 0.0
O238 O 0.50798 0.51904 0.51347 0.0
O239 O 0.48884 0.60041 0.54375 0.0
O240 O 0.50501 0.57276 0.51866 0.0
O241 O 0.55997 0.61244 0.54635 0.0
O242 O 0.56003 0.56711 0.54311 0.0
O243 O 0.53257 0.65019 0.57061 0.0
O244 O 0.52626 0.63044 0.6065 0.0
C245 C 0.4617 0.55163 0.58205 0.0
O246 O 0.52686 0.53977 0.58508 0.0
O247 O 0.55258 0.58698 0.59431 0.0
C248 C 0.52539 0.48167 0.51896 0.0
C249 C 0.56735 0.45665 0.50576 0.0
C250 C 0.57672 0.48255 0.51889 0.0
C251 C 0.55592 0.49488 0.52548 0.0
C252 C 0.51582 0.45587 0.50592 0.0
C253 C 0.53662 0.44341 0.49939 0.0
C254 C 0.5039 0.49539 0.52506 0.0
C255 C 0.49144 0.59092 0.52171 0.0
C256 C 0.57273 0.59459 0.53926 0.0
C257 C 0.50728 0.66682 0.60057 0.0
C258 C 0.4644 0.68996 0.61544 0.0
C259 C 0.45869 0.67164 0.59493 0.0
C260 C 0.47987 0.66003 0.58763 0.0
C261 C 0.51332 0.68549 0.62074 0.0
C262 C 0.49204 0.69695 0.62816 0.0
C263 C 0.52879 0.65323 0.59407 0.0
H264 H 0.60023 0.49357 0.52378 0.0
H265 H 0.56371 0.51489 0.53548 0.0
H266 H 0.49231 0.44542 0.50073 0.0
H267 H 0.52857 0.42328 0.48957 0.0
H268 H 0.43745 0.66558 0.58497 0.0
H269 H 0.47462 0.64535 0.57218 0.0
H270 H 0.53429 0.69083 0.63099 0.0
H271 H 0.49715 0.71119 0.64391 0.0
Dy272 Dy 0.02665 0.59869 0.02688 0.0
Dy273 Dy 0.0154 0.5383 0.056 0.0
C274 C 0.9936 0.58571 0.07949 0.0
O275 O 0.07174 0.6047 0.04328 0.0
O276 O 0.05673 0.56999 0.07309 0.0
O277 O 0.03933 0.64442 0.02569 0.0
O278 O 0.02539 0.61933 0.99238 0.0
O279 O 0.0512 0.54263 0.02826 0.0
O280 O 0.03629 0.56882 1.00052 0.0
O281 O 0.9798 0.52963 0.02671 0.0
O282 O 0.97725 0.57391 0.02478 0.0
O283 O 0.00451 0.49288 0.0541 0.0
O284 O 0.0125 0.51436 0.08948 0.0
C285 C 0.07683 0.59293 0.06356 0.0
O286 O 0.01183 0.60475 0.0647 0.0
O287 O 0.98724 0.55825 0.07629 0.0
C288 C 0.01072 0.65853 0.99659 0.0
C289 C 0.96872 0.68303 0.98207 0.0
C290 C 0.96119 0.66166 1.0001 0.0
C291 C 0.98201 0.64944 0.00724 0.0
C292 C 0.01857 0.68019 0.979 0.0
C293 C 0.99776 0.69237 0.9718 0.0
C294 C 0.03176 0.64426 1.00256 0.0
C295 C 0.05032 0.55143 1.00568 0.0
C296 C 0.96563 0.54652 0.02021 0.0
C297 C 0.03081 0.47706 0.08454 0.0
C298 C 0.07466 0.45441 0.09897 0.0
C299 C 0.07034 0.45928 0.07397 0.0
C300 C 0.0488 0.47061 0.06684 0.0
C301 C 0.03442 0.47144 0.10941 0.0
C302 C 0.05617 0.46033 0.11658 0.0
C303 C 0.00945 0.49097 0.07758 0.0
H304 H 0.93892 0.65378 0.00815 0.0
H305 H 0.97551 0.63252 0.02072 0.0
H306 H 0.04063 0.68736 0.97056 0.0
H307 H 0.00436 0.70905 0.95811 0.0
H308 H 0.08374 0.45449 0.05984 0.0
H309 H 0.04662 0.4747 0.04749 0.0
H310 H 0.02088 0.4763 0.12341 0.0
H311 H 0.05907 0.45721 0.13601 0.0
C312 C 0.27565 0.26599 0.25958 0.0
C313 C 0.30643 0.27009 0.25913 0.0
C314 C 0.25867 0.25562 0.28077 0.0
C315 C 0.2608 0.21635 0.33807 0.0
H316 H 0.19511 0.23956 0.35805 0.0
C317 C 0.20179 0.1818 0.43034 0.0
C318 C 0.1702 0.16853 0.42903 0.0
C319 C 0.21796 0.19703 0.41035 0.0
C320 C 0.21335 0.23287 0.35259 0.0
H321 H 0.34405 0.26811 0.28066 0.0
H322 H 0.31491 0.251 0.31783 0.0
H323 H 0.2246 0.26091 0.32163 0.0
H324 H 0.13077 0.16219 0.40604 0.0
H325 H 0.15914 0.18938 0.37126 0.0
H326 H 0.24985 0.18866 0.36916 0.0
C327 C 0.30342 0.25469 0.30167 0.0
C328 C 0.23017 0.24497 0.33169 0.0
C329 C 0.3202 0.26464 0.28044 0.0
C330 C 0.15504 0.17231 0.40777 0.0
C331 C 0.17127 0.18781 0.3878 0.0
C332 C 0.24429 0.20459 0.35904 0.0
C333 C 0.2723 0.2495 0.30201 0.0
C334 C 0.25418 0.23689 0.3242 0.0
C335 C 0.20293 0.19961 0.38868 0.0
C336 C 0.22046 0.21274 0.36655 0.0
H337 H 0.26454 0.26998 0.2433 0.0
H338 H 0.23473 0.25163 0.28025 0.0
H339 H 0.27852 0.20896 0.33255 0.0
H340 H 0.21413 0.1799 0.44664 0.0
H341 H 0.24234 0.20636 0.41166 0.0
C342 C 0.26689 0.82217 0.79565 0.0
C343 C 0.25157 0.83452 0.77986 0.0
C344 C 0.27777 0.83441 0.81852 0.0
C345 C 0.26949 0.88232 0.86645 0.0
H346 H 0.35355 0.896 0.88084 0.0
C347 C 0.33699 0.96054 0.94197 0.0
C348 C 0.36114 0.95591 0.95384 0.0
C349 C 0.32074 0.94238 0.92316 0.0
C350 C 0.32987 0.89182 0.87747 0.0
H351 H 0.235 0.86908 0.77617 0.0
H352 H 0.25363 0.89021 0.81646 0.0
H353 H 0.33049 0.87089 0.84327 0.0
H354 H 0.38583 0.92737 0.95622 0.0
H355 H 0.35661 0.89495 0.92416 0.0
H356 H 0.26873 0.9031 0.90069 0.0
C357 C 0.25717 0.87102 0.81097 0.0
C358 C 0.31672 0.87756 0.85582 0.0
C359 C 0.2465 0.85891 0.78792 0.0
C360 C 0.36737 0.93159 0.94752 0.0
C361 C 0.35087 0.91321 0.92886 0.0
C362 C 0.28254 0.89631 0.88829 0.0
C363 C 0.27328 0.8591 0.82632 0.0
C364 C 0.28653 0.87299 0.84994 0.0
C365 C 0.32792 0.91884 0.91594 0.0
C366 C 0.31305 0.90161 0.89392 0.0
H367 H 0.2705 0.80295 0.79036 0.0
H368 H 0.28971 0.82454 0.83015 0.0
H369 H 0.24605 0.87874 0.86248 0.0
H370 H 0.33114 0.97873 0.94672 0.0
H371 H 0.30341 0.94759 0.91361 0.0
C372 C 0.60768 0.45375 0.78543 0.0
C373 C 0.60617 0.46987 0.80616 0.0
C374 C 0.60708 0.46429 0.76167 0.0
C375 C 0.61704 0.52947 0.72589 0.0
H376 H 0.55519 0.47855 0.68311 0.0
C377 C 0.5707 0.5696 0.64063 0.0
C378 C 0.55986 0.55114 0.62042 0.0
C379 C 0.58064 0.5602 0.66207 0.0
C380 C 0.57305 0.49298 0.69448 0.0
H381 H 0.60471 0.51025 0.81839 0.0
H382 H 0.60414 0.52883 0.77698 0.0
H383 H 0.56634 0.46136 0.72234 0.0
H384 H 0.55259 0.50888 0.60632 0.0
H385 H 0.57094 0.49288 0.64315 0.0
H386 H 0.62384 0.56114 0.69807 0.0
C387 C 0.6056 0.50802 0.77901 0.0
C388 C 0.57937 0.48305 0.71707 0.0
C389 C 0.60577 0.49734 0.80271 0.0
C390 C 0.56043 0.52353 0.6217 0.0
C391 C 0.57078 0.51428 0.64295 0.0
C392 C 0.61099 0.53934 0.70313 0.0
C393 C 0.60544 0.49133 0.75821 0.0
C394 C 0.60111 0.50128 0.7332 0.0
C395 C 0.58038 0.53223 0.66369 0.0
C396 C 0.58856 0.52135 0.68723 0.0
H397 H 0.60782 0.43246 0.78758 0.0
H398 H 0.60721 0.45104 0.74598 0.0
H399 H 0.63411 0.54396 0.73786 0.0
H400 H 0.57039 0.59096 0.64027 0.0
H401 H 0.58747 0.57461 0.67767 0.0
C402 C 0.88511 0.66241 0.26083 0.0
C403 C 0.88184 0.6884 0.25563 0.0
C404 C 0.90003 0.65075 0.24426 0.0
C405 C 0.9526 0.66823 0.19159 0.0
H406 H 0.90911 0.59028 0.17073 0.0
C407 C 0.9826 0.62441 0.10172 0.0
C408 C 0.9806 0.59593 0.10068 0.0
C409 C 0.97186 0.63474 0.12208 0.0
C410 C 0.92188 0.61191 0.17657 0.0
H411 H 0.89273 0.7232 0.22977 0.0
H412 H 0.91931 0.70332 0.20121 0.0
H413 H 0.89 0.61039 0.20477 0.0
H414 H 0.96545 0.5559 0.12034 0.0
H415 H 0.94716 0.57405 0.15614 0.0
H416 H 0.9845 0.66993 0.16357 0.0
C417 C 0.9103 0.69179 0.21793 0.0
C418 C 0.91088 0.62344 0.19612 0.0
C419 C 0.89504 0.70318 0.23424 0.0
C420 C 0.9672 0.57791 0.12046 0.0
C421 C 0.95664 0.58834 0.14098 0.0
C422 C 0.96373 0.65666 0.17223 0.0
C423 C 0.91237 0.66513 0.22242 0.0
C424 C 0.92582 0.65191 0.20355 0.0
C425 C 0.95904 0.61699 0.14217 0.0
C426 C 0.94822 0.62851 0.16407 0.0
H427 H 0.87487 0.65048 0.27708 0.0
H428 H 0.90146 0.63027 0.24831 0.0
H429 H 0.96486 0.6901 0.1971 0.0
H430 H 0.9925 0.63888 0.08675 0.0
H431 H 0.97345 0.65671 0.12192 0.0
C432 C 0.40705 0.27023 0.18864 0.0
C433 C 0.37764 0.25633 0.1975 0.0
C434 C 0.42355 0.25457 0.17932 0.0
C435 C 0.42788 0.1828 0.17837 0.0
H436 H 0.46742 0.20697 0.11575 0.0
C437 C 0.49716 0.12456 0.12859 0.0
C438 C 0.48997 0.11899 0.10347 0.0
C439 C 0.48608 0.1425 0.14185 0.0
C440 C 0.45656 0.2 0.13328 0.0
H441 H 0.34263 0.21501 0.20357 0.0
H442 H 0.37151 0.18775 0.18744 0.0
H443 H 0.44293 0.23587 0.13599 0.0
H444 H 0.46576 0.12816 0.07259 0.0
H445 H 0.44675 0.15926 0.09559 0.0
H446 H 0.44089 0.14646 0.17521 0.0
C447 C 0.38193 0.21075 0.188 0.0
C448 C 0.44276 0.21667 0.14498 0.0
C449 C 0.36537 0.2264 0.19722 0.0
C450 C 0.47174 0.13188 0.09191 0.0
C451 C 0.46099 0.14993 0.10505 0.0
C452 C 0.4419 0.16619 0.16672 0.0
C453 C 0.4111 0.22467 0.17874 0.0
C454 C 0.42783 0.20803 0.16745 0.0
C455 C 0.468 0.15546 0.13013 0.0
C456 C 0.45587 0.17437 0.14383 0.0
H457 H 0.4174 0.29324 0.18901 0.0
H458 H 0.44613 0.26589 0.17259 0.0
H459 H 0.41681 0.17575 0.1958 0.0
H460 H 0.51117 0.11498 0.13803 0.0
H461 H 0.49191 0.14649 0.16118 0.0
C462 C 0.10696 0.83823 0.66439 0.0
C463 C 0.12996 0.84464 0.6824 0.0
C464 C 0.0992 0.85977 0.65371 0.0
C465 C 0.12576 0.93292 0.63573 0.0
H466 H 0.0428 0.92733 0.64278 0.0
C467 C 0.08249 0.01643 0.59294 0.0
C468 C 0.05293 0.00619 0.58338 0.0
C469 C 0.09312 0.99868 0.60693 0.0
C470 C 0.06595 0.92909 0.64028 0.0
H471 H 0.16328 0.87929 0.70269 0.0
H472 H 0.15048 0.91701 0.68298 0.0
H473 H 0.05961 0.8924 0.66257 0.0
H474 H 0.01152 0.96916 0.58064 0.0
H475 H 0.03021 0.9381 0.60392 0.0
H476 H 0.1319 0.96864 0.61237 0.0
C477 C 0.13833 0.89508 0.67758 0.0
C478 C 0.07557 0.90917 0.65182 0.0
C479 C 0.14572 0.87343 0.68872 0.0
C480 C 0.0343 0.97787 0.588 0.0
C481 C 0.04502 0.96005 0.60157 0.0
C482 C 0.116 0.95258 0.62372 0.0
C483 C 0.11468 0.88832 0.6603 0.0
C484 C 0.10543 0.91073 0.64943 0.0
C485 C 0.07454 0.97016 0.61134 0.0
C486 C 0.08579 0.95068 0.62554 0.0
H487 H 0.09485 0.81651 0.65844 0.0
H488 H 0.08114 0.85413 0.64015 0.0
H489 H 0.1489 0.9344 0.63358 0.0
H490 H 0.09735 0.03822 0.58978 0.0
H491 H 0.11582 0.00741 0.61439 0.0
C492 C 0.72487 0.46602 0.90626 0.0
C493 C 0.71677 0.43832 0.89658 0.0
C494 C 0.75347 0.47983 0.91681 0.0
C495 C 0.81074 0.4611 0.94934 0.0
H496 H 0.86144 0.54072 0.94303 0.0
C497 C 0.92726 0.50692 0.99655 0.0
C498 C 0.93694 0.53474 0.00611 0.0
C499 C 0.90105 0.49619 0.98217 0.0
C500 C 0.84734 0.51853 0.94527 0.0
H501 H 0.73315 0.40446 0.88835 0.0
H502 H 0.78292 0.42847 0.90682 0.0
H503 H 0.81536 0.52105 0.91816 0.0
H504 H 0.92639 0.57305 0.00828 0.0
H505 H 0.8801 0.554 0.98385 0.0
H506 H 0.84186 0.45849 0.97685 0.0
C507 C 0.76702 0.4393 0.90666 0.0
C508 C 0.82105 0.50727 0.9309 0.0
C509 C 0.73858 0.42561 0.89603 0.0
C510 C 0.91959 0.55151 1.00117 0.0
C511 C 0.89316 0.54066 0.98696 0.0
C512 C 0.83676 0.47237 0.96385 0.0
C513 C 0.77438 0.46611 0.91794 0.0
C514 C 0.80261 0.47838 0.93268 0.0
C515 C 0.8836 0.51288 0.97718 0.0
C516 C 0.85555 0.50119 0.96193 0.0
H517 H 0.70848 0.47628 0.90715 0.0
H518 H 0.75852 0.50047 0.9254 0.0
H519 H 0.79662 0.4389 0.95154 0.0
H520 H 0.94024 0.49351 0.99975 0.0
H521 H 0.89478 0.47491 0.97461 0.0
C522 C 0.78681 0.66743 0.39519 0.0
C523 C 0.80026 0.69722 0.39352 0.0
C524 C 0.76233 0.65487 0.41094 0.0
C525 C 0.70151 0.67015 0.44274 0.0
H526 H 0.69898 0.6084 0.48608 0.0
C527 C 0.61559 0.63486 0.52101 0.0
C528 C 0.60101 0.60548 0.52486 0.0
C529 C 0.64048 0.64505 0.50547 0.0
C530 C 0.69917 0.62543 0.4739 0.0
H531 H 0.79802 0.73712 0.40645 0.0
H532 H 0.75581 0.71535 0.43388 0.0
H533 H 0.74049 0.62736 0.45701 0.0
H534 H 0.60188 0.56382 0.51591 0.0
H535 H 0.64511 0.58163 0.4886 0.0
H536 H 0.66032 0.66831 0.45938 0.0
C537 C 0.76403 0.70162 0.42312 0.0
C538 C 0.72294 0.63625 0.45724 0.0
C539 C 0.78848 0.71411 0.40759 0.0
C540 C 0.61258 0.5866 0.51342 0.0
C541 C 0.63746 0.59682 0.49779 0.0
C542 C 0.67779 0.65932 0.45928 0.0
C543 C 0.75064 0.67187 0.42502 0.0
C544 C 0.72455 0.65898 0.44168 0.0
C545 C 0.65138 0.62615 0.49327 0.0
C546 C 0.67647 0.63705 0.47531 0.0
H547 H 0.79543 0.6539 0.38457 0.0
H548 H 0.75234 0.63187 0.41187 0.0
H549 H 0.70176 0.68729 0.43067 0.0
H550 H 0.60747 0.65005 0.52964 0.0
H551 H 0.65105 0.66782 0.50285 0.0
C552 C 0.29605 0.39329 0.14369 0.0
C553 C 0.29584 0.37849 0.16565 0.0
C554 C 0.27134 0.40037 0.13695 0.0
C555 C 0.19013 0.38161 0.14563 0.0
H556 H 0.20652 0.45926 0.12485 0.0
C557 C 0.09492 0.42505 0.1263 0.0
C558 C 0.09907 0.44422 0.10667 0.0
C559 C 0.1183 0.41631 0.13393 0.0
C560 C 0.2015 0.43738 0.13025 0.0
H561 H 0.26897 0.35904 0.19747 0.0
H562 H 0.22544 0.37093 0.18531 0.0
H563 H 0.24812 0.44486 0.13703 0.0
H564 H 0.13131 0.4692 0.07975 0.0
H565 H 0.17143 0.45312 0.09232 0.0
H566 H 0.14353 0.37392 0.13839 0.0
C567 C 0.24492 0.37706 0.17342 0.0
C568 C 0.22538 0.42918 0.13732 0.0
C569 C 0.26983 0.3702 0.18032 0.0
C570 C 0.12707 0.45413 0.09471 0.0
C571 C 0.15033 0.44524 0.1022 0.0
C572 C 0.1662 0.38974 0.13831 0.0
C573 C 0.24562 0.39256 0.15183 0.0
C574 C 0.21998 0.40119 0.14495 0.0
C575 C 0.14637 0.42641 0.12205 0.0
C576 C 0.17161 0.41771 0.13039 0.0
H577 H 0.31535 0.39941 0.1316 0.0
H578 H 0.27229 0.41187 0.11997 0.0
H579 H 0.18536 0.35983 0.15126 0.0
H580 H 0.07355 0.41671 0.13577 0.0
H581 H 0.1145 0.40199 0.14942 0.0
C582 C 0.63599 0.34818 0.93585 0.0
C583 C 0.62748 0.35041 0.91134 0.0
C584 C 0.62475 0.32225 0.94818 0.0
C585 C 0.59257 0.24492 0.93768 0.0
H586 H 0.57162 0.24338 0.00667 0.0
C587 C 0.54357 0.14025 0.99353 0.0
C588 C 0.5542 0.14085 0.01784 0.0
C589 C 0.55127 0.1653 0.97981 0.0
C590 C 0.57767 0.24347 0.98748 0.0
H591 H 0.60001 0.32728 0.88067 0.0
H592 H 0.58009 0.28166 0.90236 0.0
H593 H 0.58593 0.2879 0.98405 0.0
H594 H 0.58176 0.16827 0.04659 0.0
H595 H 0.59545 0.2118 0.0226 0.0
H596 H 0.58459 0.20047 0.94124 0.0
C597 C 0.59575 0.30006 0.91191 0.0
C598 C 0.5858 0.26899 0.97449 0.0
C599 C 0.60693 0.32618 0.89956 0.0
C600 C 0.57308 0.16701 0.02796 0.0
C601 C 0.58075 0.19203 0.01426 0.0
C602 C 0.58443 0.21933 0.9507 0.0
C603 C 0.60465 0.29782 0.93635 0.0
C604 C 0.59374 0.27013 0.94952 0.0
C605 C 0.56973 0.19154 0.99009 0.0
C606 C 0.57726 0.21839 0.97586 0.0
H607 H 0.65146 0.36656 0.94556 0.0
H608 H 0.63234 0.32125 0.96688 0.0
H609 H 0.59887 0.24514 0.91854 0.0
H610 H 0.52891 0.12048 0.98516 0.0
H611 H 0.54219 0.16418 0.96133 0.0
C612 C 0.90879 0.78067 0.40258 0.0
C613 C 0.89587 0.77867 0.37896 0.0
C614 C 0.92446 0.80722 0.41336 0.0
C615 C 0.92714 0.88104 0.41084 0.0
H616 H 0.99359 0.89497 0.45693 0.0
C617 C 0.95958 0.97252 0.48262 0.0
C618 C 0.99032 0.98674 0.48827 0.0
C619 C 0.95023 0.94847 0.46725 0.0
C620 C 0.97526 0.89164 0.44392 0.0
H621 H 0.89083 0.80302 0.34756 0.0
H622 H 0.91888 0.84945 0.36614 0.0
H623 H 0.97605 0.85121 0.43267 0.0
H624 H 0.03538 0.98713 0.48166 0.0
H625 H 0.01914 0.94558 0.45469 0.0
H626 H 0.92646 0.92154 0.42199 0.0
C627 C 0.91638 0.83044 0.37652 0.0
C628 C 0.96499 0.86636 0.43016 0.0
C629 C 0.9007 0.80382 0.36572 0.0
C630 C 0.01149 0.97661 0.47786 0.0
C631 C 0.00216 0.95265 0.46247 0.0
C632 C 0.93743 0.90634 0.42457 0.0
C633 C 0.92765 0.83248 0.40078 0.0
C634 C 0.94054 0.86054 0.41367 0.0
C635 C 0.97139 0.9381 0.4571 0.0
C636 C 0.96138 0.91182 0.44153 0.0
H637 H 0.90559 0.76165 0.41318 0.0
H638 H 0.93263 0.80787 0.43209 0.0
H639 H 0.90802 0.87718 0.39856 0.0
H640 H 0.94266 0.97969 0.49036 0.0
H641 H 0.92632 0.93761 0.4638 0.0
C642 C 0.28292 0.76859 0.71893 0.0
C643 C 0.2682 0.7836 0.70556 0.0
C644 C 0.30172 0.757 0.70713 0.0
C645 C 0.34752 0.76432 0.65141 0.0
H646 H 0.35099 0.69254 0.67353 0.0
C647 C 0.42492 0.71112 0.60741 0.0
C648 C 0.44108 0.70076 0.62415 0.0
C649 C 0.40238 0.72053 0.6157 0.0
C650 C 0.35038 0.71268 0.66725 0.0
H651 H 0.26119 0.79767 0.66914 0.0
H652 H 0.29379 0.77688 0.64832 0.0
H653 H 0.3131 0.70928 0.69038 0.0
H654 H 0.44614 0.69195 0.66263 0.0
H655 H 0.40694 0.70847 0.6771 0.0
H656 H 0.38497 0.76763 0.6283 0.0
C657 C 0.29105 0.77449 0.66806 0.0
C658 C 0.32869 0.7223 0.6769 0.0
C659 C 0.27216 0.78615 0.67993 0.0
C660 C 0.43429 0.70007 0.64932 0.0
C661 C 0.41162 0.70924 0.65757 0.0
C662 C 0.36914 0.75458 0.64163 0.0
C663 C 0.3062 0.75993 0.68158 0.0
C664 C 0.32736 0.7485 0.66947 0.0
C665 C 0.39534 0.71946 0.64085 0.0
C666 C 0.37113 0.72892 0.6498 0.0
H667 H 0.27998 0.76586 0.73864 0.0
H668 H 0.3133 0.74626 0.71819 0.0
H669 H 0.34733 0.78472 0.64546 0.0
H670 H 0.42981 0.71205 0.58792 0.0
H671 H 0.39012 0.7282 0.60239 0.0
C672 C 0.80326 0.885 0.8445 0.0
C673 C 0.77251 0.86758 0.84365 0.0
C674 C 0.8169 0.90187 0.82441 0.0
C675 C 0.80206 0.93313 0.76666 0.0
H676 H 0.87683 0.92634 0.74559 0.0
C677 C 0.85206 0.96811 0.67032 0.0
C678 C 0.88362 0.98008 0.66799 0.0
C679 C 0.83893 0.95692 0.69275 0.0
C680 C 0.85627 0.92893 0.7514 0.0
H681 H 0.73173 0.85512 0.82134 0.0
H682 H 0.75551 0.88487 0.78633 0.0
H683 H 0.85304 0.90324 0.78329 0.0
H684 H 0.92607 0.98995 0.68768 0.0
H685 H 0.90317 0.97127 0.72698 0.0
H686 H 0.80525 0.95879 0.73472 0.0
C687 C 0.76902 0.88551 0.80262 0.0
C688 C 0.8426 0.91563 0.77302 0.0
C689 C 0.75538 0.86851 0.8227 0.0
C690 C 0.9017 0.9811 0.68882 0.0
C691 C 0.88855 0.97005 0.71131 0.0
C692 C 0.81585 0.94662 0.74508 0.0
C693 C 0.80008 0.90184 0.80305 0.0
C694 C 0.81524 0.91739 0.78079 0.0
C695 C 0.857 0.95758 0.7135 0.0
C696 C 0.843 0.94447 0.73707 0.0
H697 H 0.81696 0.8852 0.86057 0.0
H698 H 0.84077 0.91464 0.82544 0.0
H699 H 0.78113 0.93508 0.77233 0.0
H700 H 0.83741 0.96735 0.65477 0.0
H701 H 0.81458 0.94721 0.69365 0.0
C702 C 0.80749 0.26739 0.33517 0.0
C703 C 0.79083 0.25906 0.35693 0.0
C704 C 0.79299 0.262 0.31222 0.0
C705 C 0.71804 0.24175 0.2815 0.0
H706 H 0.75448 0.20902 0.23222 0.0
C707 C 0.65202 0.17489 0.19902 0.0
C708 C 0.66706 0.17654 0.17657 0.0
C709 C 0.66749 0.18977 0.21974 0.0
C710 C 0.74423 0.21862 0.24555 0.0
H711 H 0.74581 0.23894 0.37165 0.0
H712 H 0.72054 0.22947 0.33165 0.0
H713 H 0.78098 0.22636 0.27086 0.0
H714 H 0.70965 0.19649 0.15787 0.0
H715 H 0.73665 0.22258 0.19404 0.0
H716 H 0.68091 0.23331 0.2563 0.0
C717 C 0.74477 0.24058 0.33231 0.0
C718 C 0.75944 0.22857 0.26775 0.0
C719 C 0.75926 0.24599 0.35526 0.0
C720 C 0.69757 0.19441 0.17502 0.0
C721 C 0.71303 0.20932 0.19574 0.0
C722 C 0.7028 0.23179 0.25925 0.0
C723 C 0.76151 0.2481 0.31051 0.0
C724 C 0.74635 0.23988 0.28614 0.0
C725 C 0.69834 0.20667 0.21848 0.0
C726 C 0.71554 0.21973 0.24117 0.0
H727 H 0.8318 0.27788 0.33588 0.0
H728 H 0.80649 0.26848 0.29578 0.0
H729 H 0.70754 0.25073 0.29515 0.0
H730 H 0.62863 0.16103 0.20092 0.0
H731 H 0.65558 0.18695 0.23703 0.0
C732 C 0.4496 0.67272 0.32093 0.0
C733 C 0.42333 0.67806 0.31505 0.0
C734 C 0.45528 0.6664 0.34501 0.0
C735 C 0.44344 0.67086 0.4099 0.0
H736 H 0.44643 0.59511 0.41227 0.0
C737 C 0.46264 0.61842 0.50137 0.0
C738 C 0.48082 0.6019 0.49957 0.0
C739 C 0.45321 0.62871 0.48006 0.0
C740 C 0.44607 0.61644 0.41202 0.0
H741 H 0.38369 0.68324 0.33038 0.0
H742 H 0.39425 0.67285 0.37294 0.0
H743 H 0.43621 0.61369 0.37338 0.0
H744 H 0.50401 0.58401 0.47395 0.0
H745 H 0.48855 0.60239 0.43738 0.0
H746 H 0.45468 0.67412 0.44842 0.0
C747 C 0.4101 0.67325 0.3586 0.0
C748 C 0.43996 0.62696 0.38971 0.0
C749 C 0.40416 0.67929 0.33429 0.0
C750 C 0.48963 0.59626 0.47611 0.0
C751 C 0.48055 0.60671 0.45499 0.0
C752 C 0.45007 0.66047 0.43231 0.0
C753 C 0.43515 0.66575 0.36392 0.0
C754 C 0.43909 0.6544 0.38832 0.0
C755 C 0.46194 0.62283 0.45655 0.0
C756 C 0.4521 0.6333 0.43353 0.0
H757 H 0.46522 0.67226 0.30668 0.0
H758 H 0.47496 0.66104 0.34873 0.0
H759 H 0.44285 0.69211 0.40923 0.0
H760 H 0.45553 0.62323 0.51919 0.0
H761 H 0.43878 0.64092 0.48202 0.0
C762 C 0.16457 0.43574 0.85915 0.0
C763 C 0.14925 0.4271 0.83655 0.0
C764 C 0.1559 0.45249 0.8757 0.0
C765 C 0.11448 0.50051 0.88435 0.0
H766 H 0.09924 0.46704 0.9494 0.0
C767 C 0.05595 0.54238 0.96076 0.0
C768 C 0.06392 0.54031 0.98547 0.0
C769 C 0.06737 0.53041 0.9418 0.0
C770 C 0.10388 0.47713 0.93155 0.0
H771 H 0.11427 0.43121 0.81287 0.0
H772 H 0.09945 0.46123 0.84182 0.0
H773 H 0.11827 0.4446 0.91736 0.0
H774 H 0.09106 0.52488 0.00951 0.0
H775 H 0.11193 0.50511 0.97659 0.0
H776 H 0.10075 0.53347 0.89867 0.0
C777 C 0.11801 0.45463 0.84669 0.0
C778 C 0.11466 0.46408 0.91309 0.0
C779 C 0.12657 0.43756 0.83009 0.0
C780 C 0.08422 0.52665 0.99071 0.0
C781 C 0.096 0.51507 0.97175 0.0
C782 C 0.10409 0.51389 0.90299 0.0
C783 C 0.13189 0.46137 0.87004 0.0
C784 C 0.12018 0.47562 0.8893 0.0
C785 C 0.08741 0.51635 0.947 0.0
C786 C 0.09868 0.50241 0.92693 0.0
H787 H 0.18256 0.42855 0.86449 0.0
H788 H 0.16746 0.45784 0.89332 0.0
H789 H 0.11865 0.50995 0.86621 0.0
H790 H 0.04021 0.55261 0.95607 0.0
H791 H 0.0598 0.53157 0.92314 0.0
C792 C 0.64961 0.88071 0.91771 0.0
C793 C 0.63575 0.85189 0.92439 0.0
C794 C 0.64054 0.90157 0.92834 0.0
C795 C 0.57638 0.91261 0.95491 0.0
H796 H 0.63326 0.97606 0.99122 0.0
C797 C 0.53566 0.98457 0.01578 0.0
C798 C 0.55395 0.01339 0.01871 0.0
C799 C 0.54626 0.96594 1.00325 0.0
C800 C 0.61712 0.95885 0.98075 0.0
H801 H 0.60178 0.82286 0.94809 0.0
H802 H 0.58512 0.85909 0.96552 0.0
H803 H 0.65083 0.94198 0.97061 0.0
H804 H 0.59754 0.04547 0.01044 0.0
H805 H 0.61567 0.01329 0.98756 0.0
H806 H 0.54276 0.92957 0.96415 0.0
C807 C 0.60307 0.86535 0.95211 0.0
C808 C 0.62724 0.93926 0.96909 0.0
C809 C 0.61253 0.8446 0.94192 0.0
C810 C 0.583 0.0233 0.00859 0.0
C811 C 0.59344 0.00475 0.99561 0.0
C812 C 0.56635 0.93246 0.9661 0.0
C813 C 0.61702 0.89399 0.94545 0.0
C814 C 0.60684 0.91577 0.95641 0.0
C815 C 0.57526 0.97574 0.99286 0.0
C816 C 0.58645 0.95562 0.97958 0.0
H817 H 0.66717 0.88721 0.904 0.0
H818 H 0.65148 0.92356 0.92284 0.0
H819 H 0.56032 0.89479 0.94497 0.0
H820 H 0.51329 0.97621 0.02364 0.0
H821 H 0.5318 0.94371 1.00215 0.0
C822 C 0.86765 0.21872 0.40054 0.0
C823 C 0.87054 0.24538 0.41042 0.0
C824 C 0.88822 0.20593 0.40697 0.0
C825 C 0.93701 0.20537 0.45907 0.0
H826 H 0.95838 0.15258 0.4181 0.0
C827 C 0.9622 0.11297 0.50039 0.0
C828 C 0.9875 0.10741 0.49226 0.0
C829 C 0.95264 0.13241 0.48815 0.0
C830 C 0.95295 0.16755 0.42966 0.0
H831 H 0.89855 0.28053 0.43321 0.0
H832 H 0.93467 0.25835 0.44428 0.0
H833 H 0.93498 0.18368 0.39934 0.0
H834 H 0.02212 0.11754 0.46428 0.0
H835 H 0.00495 0.15158 0.44255 0.0
H836 H 0.95429 0.18891 0.48941 0.0
C837 C 0.91614 0.24704 0.43197 0.0
C838 C 0.93934 0.18517 0.41899 0.0
C839 C 0.8955 0.25977 0.42562 0.0
C840 C 0.00255 0.12132 0.47105 0.0
C841 C 0.99275 0.14077 0.4586 0.0
C842 C 0.95046 0.18776 0.46968 0.0
C843 C 0.91217 0.21955 0.42339 0.0
C844 C 0.93056 0.20381 0.4337 0.0
C845 C 0.96799 0.14682 0.46734 0.0
C846 C 0.95778 0.1681 0.45523 0.0
H847 H 0.84848 0.20695 0.38898 0.0
H848 H 0.88423 0.18463 0.40023 0.0
H849 H 0.93031 0.21918 0.47104 0.0
H850 H 0.94984 0.1026 0.51653 0.0
H851 H 0.9331 0.13617 0.49501 0.0
C852 C 0.31382 0.71138 0.17836 0.0
C853 C 0.31111 0.70866 0.204 0.0
C854 C 0.28874 0.69899 0.16305 0.0
C855 C 0.2102 0.64529 0.16265 0.0
H856 H 0.2061 0.68178 0.10074 0.0
C857 C 0.11732 0.58961 0.09133 0.0
C858 C 0.1056 0.60637 0.07706 0.0
C859 C 0.14299 0.60228 0.106 0.0
C860 C 0.20655 0.67141 0.11807 0.0
H861 H 0.28035 0.69107 0.23395 0.0
H862 H 0.2359 0.67042 0.20733 0.0
H863 H 0.24794 0.70417 0.12876 0.0
H864 H 0.11153 0.64947 0.06672 0.0
H865 H 0.15553 0.67183 0.09313 0.0
H866 H 0.16788 0.61344 0.15267 0.0
C867 C 0.25754 0.68138 0.19885 0.0
C868 C 0.23097 0.68405 0.13405 0.0
C869 C 0.28288 0.69335 0.21417 0.0
C870 C 0.12033 0.63605 0.07736 0.0
C871 C 0.14565 0.64882 0.09249 0.0
C872 C 0.18547 0.63293 0.1469 0.0
C873 C 0.26013 0.684 0.17303 0.0
C874 C 0.23336 0.67103 0.15647 0.0
C875 C 0.15717 0.63212 0.10725 0.0
C876 C 0.1834 0.64564 0.12423 0.0
H877 H 0.33554 0.72279 0.17013 0.0
H878 H 0.29201 0.70088 0.14334 0.0
H879 H 0.21126 0.63433 0.17953 0.0
H880 H 0.10653 0.56662 0.09126 0.0
H881 H 0.15157 0.58857 0.11643 0.0
C882 C 0.21554 0.43183 0.68037 0.0
C883 C 0.21814 0.42627 0.70551 0.0
C884 C 0.24074 0.44849 0.66702 0.0
C885 C 0.31727 0.50186 0.67062 0.0
H886 H 0.33243 0.46302 0.61342 0.0
C887 C 0.43178 0.54375 0.62083 0.0
C888 C 0.43279 0.53902 0.59539 0.0
C889 C 0.40492 0.53162 0.63383 0.0
C890 C 0.32839 0.47456 0.62898 0.0
H891 H 0.24914 0.43572 0.73662 0.0
H892 H 0.293 0.46577 0.71338 0.0
H893 H 0.28661 0.44081 0.63701 0.0
H894 H 0.40614 0.51831 0.56352 0.0
H895 H 0.35887 0.49806 0.58591 0.0
H896 H 0.35852 0.53597 0.6624 0.0
C897 C 0.27138 0.45677 0.70404 0.0
C898 C 0.30212 0.46168 0.6426 0.0
C899 C 0.24619 0.43969 0.71737 0.0
C900 C 0.40615 0.52216 0.58315 0.0
C901 C 0.37906 0.5104 0.5961 0.0
C902 C 0.34331 0.51504 0.65674 0.0
C903 C 0.26908 0.4605 0.67856 0.0
C904 C 0.29641 0.47507 0.66367 0.0
C905 C 0.37807 0.51479 0.6217 0.0
C906 C 0.34948 0.50144 0.63584 0.0
H907 H 0.19416 0.4224 0.67074 0.0
H908 H 0.23823 0.45144 0.64749 0.0
H909 H 0.31328 0.51274 0.68668 0.0
H910 H 0.45197 0.55642 0.6309 0.0
H911 H 0.40548 0.53505 0.65353 0.0
C912 C 0.78089 0.78824 0.92641 0.0
C913 C 0.77985 0.79308 0.901 0.0
C914 C 0.79964 0.77471 0.93574 0.0
C915 C 0.86867 0.76199 0.91987 0.0
H916 H 0.84515 0.70603 0.97203 0.0
C917 C 0.94304 0.69938 0.94818 0.0
C918 C 0.94611 0.69492 0.97342 0.0
C919 C 0.92184 0.71054 0.93987 0.0
C920 C 0.85216 0.72187 0.95764 0.0
H921 H 0.79611 0.78594 0.86534 0.0
H922 H 0.82872 0.76238 0.88156 0.0
H923 H 0.80906 0.72635 0.95653 0.0
H924 H 0.92931 0.69868 0.00975 0.0
H925 H 0.89236 0.71843 0.99524 0.0
H926 H 0.91172 0.75781 0.921 0.0
C927 C 0.81564 0.76962 0.89435 0.0
C928 C 0.83147 0.73347 0.94876 0.0
C929 C 0.79695 0.78309 0.88505 0.0
C930 C 0.92729 0.70165 0.99017 0.0
C931 C 0.9061 0.7129 0.98185 0.0
C932 C 0.8893 0.7505 0.92876 0.0
C933 C 0.81767 0.76577 0.91982 0.0
C934 C 0.83946 0.75351 0.92964 0.0
C935 C 0.90324 0.7176 0.9566 0.0
C936 C 0.88127 0.73016 0.94764 0.0
H937 H 0.76808 0.79584 0.93915 0.0
H938 H 0.80084 0.77217 0.95546 0.0
H939 H 0.87574 0.77785 0.9055 0.0
H940 H 0.95676 0.69387 0.93476 0.0
H941 H 0.91982 0.71334 0.92026 0.0
C942 C 0.39042 0.81472 0.22764 0.0
C943 C 0.40158 0.79303 0.22296 0.0
C944 C 0.4037 0.84144 0.21674 0.0
C945 C 0.41873 0.88609 0.17714 0.0
H946 H 0.5027 0.91847 0.1583 0.0
C947 C 0.46017 0.97466 0.10388 0.0
C948 C 0.48939 0.99518 0.10646 0.0
C949 C 0.45026 0.95105 0.11951 0.0
C950 C 0.47923 0.91004 0.16364 0.0
H951 H 0.43585 0.78235 0.204 0.0
H952 H 0.45866 0.8286 0.1844 0.0
H953 H 0.48595 0.87748 0.1853 0.0
H954 H 0.53081 0.00745 0.12795 0.0
H955 H 0.51329 0.96715 0.15564 0.0
H956 H 0.4122 0.91924 0.15624 0.0
C957 C 0.44021 0.82551 0.19698 0.0
C958 C 0.4695 0.88616 0.17892 0.0
C959 C 0.42721 0.79894 0.20824 0.0
C960 C 0.50827 0.99184 0.12525 0.0
C961 C 0.49825 0.96854 0.14108 0.0
C962 C 0.42853 0.91019 0.16216 0.0
C963 C 0.42802 0.84686 0.20044 0.0
C964 C 0.43903 0.87363 0.18569 0.0
C965 C 0.46919 0.94764 0.13835 0.0
C966 C 0.45886 0.92237 0.15495 0.0
H967 H 0.37055 0.81055 0.23886 0.0
H968 H 0.39417 0.8575 0.22046 0.0
H969 H 0.39497 0.87688 0.1815 0.0
H970 H 0.44515 0.97654 0.08949 0.0
H971 H 0.42793 0.93523 0.11649 0.0
C972 C 0.10968 0.31369 0.70258 0.0
C973 C 0.1411 0.32792 0.70389 0.0
C974 C 0.09717 0.28831 0.68901 0.0
C975 C 0.11742 0.24758 0.63932 0.0
H976 H 0.04394 0.18658 0.65861 0.0
C977 C 0.05999 0.15302 0.57439 0.0
C978 C 0.04692 0.12569 0.58452 0.0
C979 C 0.06972 0.17716 0.58951 0.0
C980 C 0.06465 0.20328 0.65306 0.0
H981 H 0.18409 0.32603 0.6933 0.0
H982 H 0.16259 0.2816 0.67042 0.0
H983 H 0.06472 0.22893 0.68462 0.0
H984 H 0.03335 0.10232 0.61854 0.0
H985 H 0.05129 0.1445 0.64514 0.0
H986 H 0.11823 0.22174 0.60839 0.0
C987 C 0.14737 0.29037 0.67893 0.0
C988 C 0.07636 0.22779 0.66784 0.0
C989 C 0.15976 0.31581 0.69216 0.0
C990 C 0.04335 0.1231 0.61018 0.0
C991 C 0.05348 0.14733 0.6254 0.0
C992 C 0.10593 0.22308 0.62474 0.0
C993 C 0.11589 0.27648 0.67674 0.0
C994 C 0.10297 0.25028 0.66116 0.0
C995 C 0.06709 0.1747 0.61527 0.0
C996 C 0.0793 0.2006 0.63128 0.0
H997 H 0.09481 0.32261 0.71148 0.0
H998 H 0.07285 0.2784 0.68762 0.0
H999 H 0.13763 0.26455 0.63324 0.0
H1000 H 0.06266 0.15587 0.55467 0.0
H1001 H 0.07928 0.19782 0.58089 0.0
C1002 C 0.73132 0.32628 0.44778 0.0
C1003 C 0.75075 0.32661 0.46749 0.0
C1004 C 0.71382 0.34333 0.44846 0.0
C1005 C 0.70489 0.40464 0.48124 0.0
H1006 H 0.62044 0.36713 0.46365 0.0
C1007 C 0.61282 0.4443 0.51529 0.0
C1008 C 0.58961 0.44356 0.49883 0.0
C1009 C 0.63384 0.43215 0.50885 0.0
C1010 C 0.64404 0.37809 0.46829 0.0
H1011 H 0.76832 0.3463 0.50269 0.0
H1012 H 0.73751 0.37555 0.50412 0.0
H1013 H 0.65552 0.34288 0.45643 0.0
H1014 H 0.57066 0.42978 0.46246 0.0
H1015 H 0.60719 0.40822 0.45135 0.0
H1016 H 0.69317 0.43954 0.4937 0.0
C1017 C 0.73583 0.36229 0.48804 0.0
C1018 C 0.66419 0.36422 0.4641 0.0
C1019 C 0.75326 0.34527 0.48737 0.0
C1020 C 0.58795 0.43034 0.47574 0.0
C1021 C 0.60893 0.41807 0.46933 0.0
C1022 C 0.68472 0.41847 0.48549 0.0
C1023 C 0.71546 0.36114 0.46883 0.0
C1024 C 0.69477 0.37712 0.47091 0.0
C1025 C 0.63211 0.41884 0.48582 0.0
C1026 C 0.65397 0.40515 0.47945 0.0
H1027 H 0.72876 0.31204 0.43225 0.0
H1028 H 0.69864 0.34221 0.43321 0.0
H1029 H 0.72839 0.41541 0.4863 0.0
H1030 H 0.61449 0.45386 0.53338 0.0
H1031 H 0.65108 0.43264 0.52215 0.0
loop_
_geom_bond_atom_site_label_1
_geom_bond_atom_site_label_2
_geom_bond_distance
_geom_bond_site_symmetry_2
_ccdc_geom_bond_type
H0 C1 0.949 . S
C1 H0 0.949 . S
C1 C2 1.395 . S
C1 C3 1.391 . S
C2 C1 1.395 . S
C2 C5 1.390 . S
C3 C1 1.391 . S
C3 C7 1.387 . S
C3 C8 1.491 . S
H4 C5 0.950 . S
C5 C2 1.390 . S
C5 H4 0.950 . S
C5 C6 1.378 . S
C6 C5 1.378 . S
C6 C7 1.409 . S
C7 C3 1.387 . S
C7 C6 1.409 . S
C7 H9 0.951 . S
C8 C3 1.491 . S
C8 C10 1.382 . S
C8 C12 1.404 . S
H9 C7 0.951 . S
C10 C8 1.382 . S
C10 C11 1.390 . S
C10 H15 0.949 . S
C11 C10 1.390 . S
C11 C16 1.399 . S
C12 C8 1.404 . S
C12 H13 0.950 . S
C12 C14 1.375 . S
H13 C12 0.950 . S
C14 C12 1.375 . S
C14 C16 1.382 . S
C14 H18 0.950 . S
H15 C10 0.949 . S
C16 C11 1.399 . S
C16 C14 1.382 . S
C16 H17 0.952 . S
H17 C16 0.952 . S
H18 C14 0.950 . S
H19 C20 0.949 . S
C20 H19 0.949 . S
C20 C21 1.395 . S
C20 C22 1.391 . S
C21 C20 1.395 . S
C21 C24 1.390 . S
C22 C20 1.391 . S
C22 C26 1.387 . S
C22 C27 1.491 . S
H23 C24 0.950 . S
C24 C21 1.390 . S
C24 H23 0.950 . S
C24 C25 1.378 . S
C25 C24 1.378 . S
C25 C26 1.409 . S
C26 C22 1.387 . S
C26 C25 1.409 . S
C26 H28 0.951 . S
C27 C22 1.491 . S
C27 C29 1.382 . S
C27 C31 1.404 . S
H28 C26 0.951 . S
C29 C27 1.382 . S
C29 C30 1.390 . S
C29 H34 0.949 . S
C30 C29 1.390 . S
C30 C35 1.399 . S
C31 C27 1.404 . S
C31 H32 0.950 . S
C31 C33 1.375 . S
H32 C31 0.950 . S
C33 C31 1.375 . S
C33 C35 1.382 . S
C33 H37 0.950 . S
H34 C29 0.949 . S
C35 C30 1.399 . S
C35 C33 1.382 . S
C35 H36 0.952 . S
H36 C35 0.952 . S
H37 C33 0.950 . S
H38 C39 0.949 . S
C39 H38 0.949 . S
C39 C40 1.395 . S
C39 C41 1.391 . S
C40 C39 1.395 . S
C40 C43 1.390 . S
C41 C39 1.391 . S
C41 C45 1.387 . S
C41 C46 1.491 . S
H42 C43 0.950 . S
C43 C40 1.390 . S
C43 H42 0.950 . S
C43 C44 1.378 . S
C44 C43 1.378 . S
C44 C45 1.409 . S
C45 C41 1.387 . S
C45 C44 1.409 . S
C45 H47 0.951 . S
C46 C41 1.491 . S
C46 C48 1.382 . S
C46 C50 1.404 . S
H47 C45 0.951 . S
C48 C46 1.382 . S
C48 C49 1.390 . S
C48 H53 0.949 . S
C49 C48 1.390 . S
C49 C54 1.399 . S
C50 C46 1.404 . S
C50 H51 0.950 . S
C50 C52 1.375 . S
H51 C50 0.950 . S
C52 C50 1.375 . S
C52 C54 1.382 . S
C52 H56 0.950 . S
H53 C48 0.949 . S
C54 C49 1.399 . S
C54 C52 1.382 . S
C54 H55 0.952 . S
H55 C54 0.952 . S
H56 C52 0.950 . S
H57 C58 0.949 . S
C58 H57 0.949 . S
C58 C59 1.395 . S
C58 C60 1.391 . S
C59 C58 1.395 . S
C59 C62 1.390 . S
C60 C58 1.391 . S
C60 C64 1.387 . S
C60 C65 1.491 . S
H61 C62 0.950 . S
C62 C59 1.390 . S
C62 H61 0.950 . S
C62 C63 1.378 . S
C63 C62 1.378 . S
C63 C64 1.409 . S
C64 C60 1.387 . S
C64 C63 1.409 . S
C64 H66 0.951 . S
C65 C60 1.491 . S
C65 C67 1.382 . S
C65 C69 1.404 . S
H66 C64 0.951 . S
C67 C65 1.382 . S
C67 C68 1.390 . S
C67 H72 0.949 . S
C68 C67 1.390 . S
C68 C73 1.399 . S
C69 C65 1.404 . S
C69 H70 0.950 . S
C69 C71 1.375 . S
H70 C69 0.950 . S
C71 C69 1.375 . S
C71 C73 1.382 . S
C71 H75 0.950 . S
H72 C67 0.949 . S
C73 C68 1.399 . S
C73 C71 1.382 . S
C73 H74 0.952 . S
H74 C73 0.952 . S
H75 C71 0.950 . S
H76 C77 0.949 . S
C77 H76 0.949 . S
C77 C78 1.395 . S
C77 C79 1.391 . S
C78 C77 1.395 . S
C78 C81 1.390 . S
C79 C77 1.391 . S
C79 C83 1.387 . S
C79 C84 1.491 . S
H80 C81 0.950 . S
C81 C78 1.390 . S
C81 H80 0.950 . S
C81 C82 1.378 . S
C82 C81 1.378 . S
C82 C83 1.409 . S
C83 C79 1.387 . S
C83 C82 1.409 . S
C83 H85 0.951 . S
C84 C79 1.491 . S
C84 C86 1.382 . S
C84 C88 1.404 . S
H85 C83 0.951 . S
C86 C84 1.382 . S
C86 C87 1.390 . S
C86 H91 0.949 . S
C87 C86 1.390 . S
C87 C92 1.399 . S
C88 C84 1.404 . S
C88 H89 0.950 . S
C88 C90 1.375 . S
H89 C88 0.950 . S
C90 C88 1.375 . S
C90 C92 1.382 . S
C90 H94 0.950 . S
H91 C86 0.949 . S
C92 C87 1.399 . S
C92 C90 1.382 . S
C92 H93 0.952 . S
H93 C92 0.952 . S
H94 C90 0.950 . S
H95 C96 0.949 . S
C96 H95 0.949 . S
C96 C97 1.395 . S
C96 C98 1.391 . S
C97 C96 1.395 . S
C97 C100 1.390 . S
C98 C96 1.391 . S
C98 C102 1.387 . S
C98 C103 1.491 . S
H99 C100 0.950 . S
C100 C97 1.390 . S
C100 H99 0.950 . S
C100 C101 1.378 . S
C101 C100 1.378 . S
C101 C102 1.409 . S
C102 C98 1.387 . S
C102 C101 1.409 . S
C102 H104 0.951 . S
C103 C98 1.491 . S
C103 C105 1.382 . S
C103 C107 1.404 . S
H104 C102 0.951 . S
C105 C103 1.382 . S
C105 C106 1.390 . S
C105 H110 0.949 . S
C106 C105 1.390 . S
C106 C111 1.399 . S
C107 C103 1.404 . S
C107 H108 0.950 . S
C107 C109 1.375 . S
H108 C107 0.950 . S
C109 C107 1.375 . S
C109 C111 1.382 . S
C109 H113 0.950 . S
H110 C105 0.949 . S
C111 C106 1.399 . S
C111 C109 1.382 . S
C111 H112 0.952 . S
H112 C111 0.952 . S
H113 C109 0.950 . S
H114 C115 0.949 . S
C115 H114 0.949 . S
C115 C116 1.395 . S
C115 C117 1.391 . S
C116 C115 1.395 . S
C116 C119 1.390 . S
C117 C115 1.391 . S
C117 C121 1.387 . S
C117 C122 1.491 . S
H118 C119 0.950 . S
C119 C116 1.390 . S
C119 H118 0.950 . S
C119 C120 1.378 . S
C120 C119 1.378 . S
C120 C121 1.409 . S
C121 C117 1.387 . S
C121 C120 1.409 . S
C121 H123 0.951 . S
C122 C117 1.491 . S
C122 C124 1.382 . S
C122 C126 1.404 . S
H123 C121 0.951 . S
C124 C122 1.382 . S
C124 C125 1.390 . S
C124 H129 0.949 . S
C125 C124 1.390 . S
C125 C130 1.399 . S
C126 C122 1.404 . S
C126 H127 0.950 . S
C126 C128 1.375 . S
H127 C126 0.950 . S
C128 C126 1.375 . S
C128 C130 1.382 . S
C128 H132 0.950 . S
H129 C124 0.949 . S
C130 C125 1.399 . S
C130 C128 1.382 . S
C130 H131 0.952 . S
H131 C130 0.952 . S
H132 C128 0.950 . S
H133 C134 0.949 . S
C134 H133 0.949 . S
C134 C135 1.395 . S
C134 C136 1.391 . S
C135 C134 1.395 . S
C135 C138 1.390 . S
C136 C134 1.391 . S
C136 C140 1.387 . S
C136 C141 1.491 . S
H137 C138 0.950 . S
C138 C135 1.390 . S
C138 H137 0.950 . S
C138 C139 1.378 . S
C139 C138 1.378 . S
C139 C140 1.409 . S
C140 C136 1.387 . S
C140 C139 1.409 . S
C140 H142 0.951 . S
C141 C136 1.491 . S
C141 C143 1.382 . S
C141 C145 1.404 . S
H142 C140 0.951 . S
C143 C141 1.382 . S
C143 C144 1.390 . S
C143 H148 0.949 . S
C144 C143 1.390 . S
C144 C149 1.399 . S
C145 C141 1.404 . S
C145 H146 0.950 . S
C145 C147 1.375 . S
H146 C145 0.950 . S
C147 C145 1.375 . S
C147 C149 1.382 . S
C147 H151 0.950 . S
H148 C143 0.949 . S
C149 C144 1.399 . S
C149 C147 1.382 . S
C149 H150 0.952 . S
H150 C149 0.952 . S
H151 C147 0.950 . S
Dy152 O155 2.307 . S
Dy152 O157 2.395 . S
Dy152 O158 2.379 . S
Dy152 O160 2.339 . S
Dy152 O162 2.298 . S
Dy152 O166 2.275 . S
Dy152 C174 2.738 . S
Dy153 O156 2.298 1_655 S
Dy153 O159 2.275 . S
Dy153 O161 2.307 . S
Dy153 O163 2.395 1_545 S
Dy153 O164 2.379 . S
Dy153 O167 2.339 1_655 S
Dy153 C183 2.738 1_545 S
C154 O166 1.254 . S
C154 O167 1.257 . S
O155 Dy152 2.307 . S
O155 C165 1.266 . S
O156 Dy153 2.298 1_455 S
O156 C165 1.236 . S
O157 Dy152 2.395 . S
O157 C174 1.255 . S
O158 Dy152 2.379 . S
O158 C174 1.249 . S
O159 Dy153 2.275 . S
O159 C175 1.254 1_545 S
O160 Dy152 2.339 . S
O160 C175 1.257 1_445 S
O161 Dy153 2.307 . S
O161 C176 1.266 . S
O162 Dy152 2.298 . S
O162 C176 1.236 1_455 S
O163 Dy153 2.395 1_565 S
O163 C183 1.255 . S
O164 Dy153 2.379 . S
O164 C183 1.249 1_545 S
C165 O155 1.266 . S
C165 O156 1.236 . S
O166 Dy152 2.275 . S
O166 C154 1.254 . S
O167 Dy153 2.339 1_455 S
O167 C154 1.257 . S
C168 C171 1.344 . S
C168 C172 1.328 . S
C168 C174 1.516 . S
C169 C170 1.304 . S
C169 C173 1.323 . S
C170 C169 1.304 . S
C170 C171 1.371 . S
C170 H184 0.930 . S
C171 C168 1.344 . S
C171 C170 1.371 . S
C171 H185 0.931 . S
C172 C168 1.328 . S
C172 C173 1.433 . S
C172 H186 0.931 . S
C173 C169 1.323 . S
C173 C172 1.433 . S
C173 H187 0.933 . S
C174 Dy152 2.738 . S
C174 O157 1.255 . S
C174 O158 1.249 . S
C174 C168 1.516 . S
C175 O159 1.254 1_565 S
C175 O160 1.257 1_665 S
C176 O161 1.266 . S
C176 O162 1.236 1_655 S
C177 C180 1.344 . S
C177 C181 1.328 . S
C177 C183 1.516 . S
C178 C179 1.304 . S
C178 C182 1.323 . S
C179 C178 1.304 . S
C179 C180 1.371 . S
C179 H188 0.930 . S
C180 C177 1.344 . S
C180 C179 1.371 . S
C180 H189 0.931 . S
C181 C177 1.328 . S
C181 C182 1.433 . S
C181 H190 0.931 . S
C182 C178 1.323 . S
C182 C181 1.433 . S
C182 H191 0.933 . S
C183 Dy153 2.738 1_565 S
C183 O163 1.255 . S
C183 O164 1.249 1_565 S
C183 C177 1.516 . S
H184 C170 0.930 . S
H185 C171 0.931 . S
H186 C172 0.931 . S
H187 C173 0.933 . S
H188 C179 0.930 . S
H189 C180 0.931 . S
H190 C181 0.931 . S
H191 C182 0.933 . S
Dy192 O195 2.307 . S
Dy192 O197 2.395 1_545 S
Dy192 O198 2.379 . S
Dy192 O200 2.339 . S
Dy192 O202 2.298 . S
Dy192 O206 2.275 . S
Dy192 C214 2.738 1_545 S
Dy193 O196 2.298 . S
Dy193 O199 2.275 . S
Dy193 O201 2.307 . S
Dy193 O203 2.395 . S
Dy193 O204 2.379 . S
Dy193 O207 2.321 1_545 S
Dy193 C223 2.738 . S
C194 O206 1.254 1_565 S
C194 O207 1.259 . S
O195 Dy192 2.307 . S
O195 C205 1.266 . S
O196 Dy193 2.298 . S
O196 C205 1.236 . S
O197 Dy192 2.395 1_565 S
O197 C214 1.255 . S
O198 Dy192 2.379 . S
O198 C214 1.249 1_545 S
O199 Dy193 2.275 . S
O199 C215 1.254 . S
O200 Dy192 2.339 . S
O200 C215 1.257 . S
O201 Dy193 2.307 . S
O201 C216 1.266 . S
O202 Dy192 2.298 . S
O202 C216 1.236 . S
O203 Dy193 2.395 . S
O203 C223 1.255 . S
O204 Dy193 2.379 . S
O204 C223 1.249 . S
C205 O195 1.266 . S
C205 O196 1.236 . S
O206 Dy192 2.275 . S
O206 C194 1.254 1_545 S
O207 Dy193 2.321 1_565 S
O207 C194 1.259 . S
C208 C211 1.344 . S
C208 C212 1.328 . S
C208 C214 1.516 1_556 S
C209 C210 1.304 . S
C209 C213 1.323 . S
C210 C209 1.304 . S
C210 C211 1.371 . S
C210 H224 0.930 . S
C211 C208 1.344 . S
C211 C210 1.371 . S
C211 H225 0.931 1_556 S
C212 C208 1.328 . S
C212 C213 1.433 . S
C212 H226 0.931 . S
C213 C209 1.323 . S
C213 C212 1.433 . S
C213 H227 0.933 . S
C214 Dy192 2.738 1_565 S
C214 O197 1.255 . S
C214 O198 1.249 1_565 S
C214 C208 1.516 1_554 S
C215 O199 1.254 . S
C215 O200 1.257 . S
C216 O201 1.266 . S
C216 O202 1.236 . S
C217 C220 1.344 . S
C217 C221 1.328 . S
C217 C223 1.516 . S
C218 C219 1.304 . S
C218 C222 1.323 . S
C219 C218 1.304 . S
C219 C220 1.371 . S
C219 H228 0.930 . S
C220 C217 1.344 . S
C220 C219 1.371 . S
C220 H229 0.931 . S
C221 C217 1.328 . S
C221 C222 1.433 . S
C221 H230 0.931 . S
C222 C218 1.323 . S
C222 C221 1.433 . S
C222 H231 0.933 . S
C223 Dy193 2.738 . S
C223 O203 1.255 . S
C223 O204 1.249 . S
C223 C217 1.516 . S
H224 C210 0.930 . S
H225 C211 0.931 1_554 S
H226 C212 0.931 . S
H227 C213 0.933 . S
H228 C219 0.930 . S
H229 C220 0.931 . S
H230 C221 0.931 . S
H231 C222 0.933 . S
Dy232 O235 2.307 . S
Dy232 O237 2.395 . S
Dy232 O238 2.379 . S
Dy232 O240 2.339 . S
Dy232 O242 2.298 . S
Dy232 O246 2.275 . S
Dy232 C254 2.738 . S
Dy233 O236 2.298 . S
Dy233 O239 2.275 . S
Dy233 O241 2.307 . S
Dy233 O243 2.395 . S
Dy233 O244 2.379 . S
Dy233 O247 2.339 . S
Dy233 C263 2.738 . S
C234 O246 1.254 . S
C234 O247 1.257 . S
O235 Dy232 2.307 . S
O235 C245 1.266 . S
O236 Dy233 2.298 . S
O236 C245 1.236 . S
O237 Dy232 2.395 . S
O237 C254 1.255 . S
O238 Dy232 2.379 . S
O238 C254 1.249 . S
O239 Dy233 2.275 . S
O239 C255 1.254 . S
O240 Dy232 2.339 . S
O240 C255 1.257 . S
O241 Dy233 2.307 . S
O241 C256 1.266 . S
O242 Dy232 2.298 . S
O242 C256 1.236 . S
O243 Dy233 2.395 . S
O243 C263 1.255 . S
O244 Dy233 2.379 . S
O244 C263 1.249 . S
C245 O235 1.266 . S
C245 O236 1.236 . S
O246 Dy232 2.275 . S
O246 C234 1.254 . S
O247 Dy233 2.339 . S
O247 C234 1.257 . S
C248 C251 1.344 . S
C248 C252 1.328 . S
C248 C254 1.516 . S
C249 C250 1.304 . S
C249 C253 1.323 . S
C250 C249 1.304 . S
C250 C251 1.371 . S
C250 H264 0.930 . S
C251 C248 1.344 . S
C251 C250 1.371 . S
C251 H265 0.931 . S
C252 C248 1.328 . S
C252 C253 1.433 . S
C252 H266 0.931 . S
C253 C249 1.323 . S
C253 C252 1.433 . S
C253 H267 0.933 . S
C254 Dy232 2.738 . S
C254 O237 1.255 . S
C254 O238 1.249 . S
C254 C248 1.516 . S
C255 O239 1.254 . S
C255 O240 1.257 . S
C256 O241 1.266 . S
C256 O242 1.236 . S
C257 C260 1.344 . S
C257 C261 1.328 . S
C257 C263 1.516 . S
C258 C259 1.304 . S
C258 C262 1.323 . S
C259 C258 1.304 . S
C259 C260 1.371 . S
C259 H268 0.930 . S
C260 C257 1.344 . S
C260 C259 1.371 . S
C260 H269 0.931 . S
C261 C257 1.328 . S
C261 C262 1.433 . S
C261 H270 0.931 . S
C262 C258 1.323 . S
C262 C261 1.433 . S
C262 H271 0.933 . S
C263 Dy233 2.738 . S
C263 O243 1.255 . S
C263 O244 1.249 . S
C263 C257 1.516 . S
H264 C250 0.930 . S
H265 C251 0.931 . S
H266 C252 0.931 . S
H267 C253 0.933 . S
H268 C259 0.930 . S
H269 C260 0.931 . S
H270 C261 0.931 . S
H271 C262 0.933 . S
Dy272 O275 2.307 1_556 S
Dy272 O277 2.395 . S
Dy272 O278 2.379 . S
Dy272 O280 2.339 . S
Dy272 O282 2.298 . S
Dy272 O286 2.275 1_556 S
Dy272 C294 2.738 . S
Dy273 O276 2.298 . S
Dy273 O279 2.275 1_554 S
Dy273 O281 2.304 1_455 S
Dy273 O283 2.395 . S
Dy273 O284 2.379 . S
Dy273 O287 2.339 . S
Dy273 C303 2.738 . S
C274 O286 1.254 . S
C274 O287 1.257 . S
O275 Dy272 2.307 1_554 S
O275 C285 1.266 . S
O276 Dy273 2.298 . S
O276 C285 1.236 . S
O277 Dy272 2.395 . S
O277 C294 1.255 . S
O278 Dy272 2.379 . S
O278 C294 1.249 . S
O279 Dy273 2.275 1_556 S
O279 C295 1.254 . S
O280 Dy272 2.339 . S
O280 C295 1.257 . S
O281 Dy273 2.304 1_655 S
O281 C296 1.268 1_554 S
O282 Dy272 2.298 . S
O282 C296 1.236 1_455 S
O283 Dy273 2.395 . S
O283 C303 1.255 . S
O284 Dy273 2.379 . S
O284 C303 1.249 . S
C285 O275 1.266 . S
C285 O276 1.236 . S
O286 Dy272 2.275 1_554 S
O286 C274 1.254 . S
O287 Dy273 2.339 . S
O287 C274 1.257 . S
C288 C291 1.344 . S
C288 C292 1.328 . S
C288 C294 1.516 1_655 S
C289 C290 1.304 . S
C289 C293 1.323 . S
C290 C289 1.304 . S
C290 C291 1.371 . S
C290 H304 0.930 . S
C291 C288 1.344 . S
C291 C290 1.371 . S
C291 H305 0.931 . S
C292 C288 1.328 . S
C292 C293 1.433 . S
C292 H306 0.931 1_655 S
C293 C289 1.323 . S
C293 C292 1.433 . S
C293 H307 0.933 . S
C294 Dy272 2.738 . S
C294 O277 1.255 . S
C294 O278 1.249 . S
C294 C288 1.516 1_455 S
C295 O279 1.254 . S
C295 O280 1.257 . S
C296 O281 1.268 1_556 S
C296 O282 1.236 1_655 S
C297 C300 1.344 . S
C297 C301 1.328 . S
C297 C303 1.516 . S
C298 C299 1.304 . S
C298 C302 1.323 . S
C299 C298 1.304 . S
C299 C300 1.371 . S
C299 H308 0.930 . S
C300 C297 1.344 . S
C300 C299 1.371 . S
C300 H309 0.931 . S
C301 C297 1.328 . S
C301 C302 1.433 . S
C301 H310 0.931 . S
C302 C298 1.323 . S
C302 C301 1.433 . S
C302 H311 0.933 . S
C303 Dy273 2.738 . S
C303 O283 1.255 . S
C303 O284 1.249 . S
C303 C297 1.516 . S
H304 C290 0.930 . S
H305 C291 0.931 . S
H306 C292 0.931 1_455 S
H307 C293 0.933 . S
H308 C299 0.930 . S
H309 C300 0.931 . S
H310 C301 0.931 . S
H311 C302 0.933 . S
C312 C313 1.349 . S
C312 C314 1.327 . S
C312 H337 0.950 . S
C313 C312 1.349 . S
C313 C329 1.349 . S
C314 C312 1.327 . S
C314 C333 1.429 . S
C314 H338 0.950 . S
C315 C332 1.574 . S
C315 C334 1.368 . S
C315 H339 0.949 . S
H316 C320 0.949 . S
C317 C318 1.349 . S
C317 C319 1.327 . S
C317 H340 0.950 . S
C318 C317 1.349 . S
C318 C330 1.349 . S
C319 C317 1.327 . S
C319 C335 1.429 . S
C319 H341 0.950 . S
C320 H316 0.949 . S
C320 C328 1.574 . S
C320 C336 1.368 . S
H321 C329 0.950 . S
H322 C327 0.950 . S
H323 C328 0.949 . S
H324 C330 0.950 . S
H325 C331 0.950 . S
H326 C332 0.949 . S
C327 H322 0.950 . S
C327 C329 1.327 . S
C327 C333 1.429 . S
C328 C320 1.574 . S
C328 H323 0.949 . S
C328 C334 1.368 . S
C329 C313 1.349 . S
C329 H321 0.950 . S
C329 C327 1.327 . S
C330 C318 1.349 . S
C330 H324 0.950 . S
C330 C331 1.327 . S
C331 H325 0.950 . S
C331 C330 1.327 . S
C331 C335 1.429 . S
C332 C315 1.574 . S
C332 H326 0.949 . S
C332 C336 1.368 . S
C333 C314 1.429 . S
C333 C327 1.429 . S
C333 C334 1.523 . S
C334 C315 1.368 . S
C334 C328 1.368 . S
C334 C333 1.523 . S
C335 C319 1.429 . S
C335 C331 1.429 . S
C335 C336 1.523 . S
C336 C320 1.368 . S
C336 C332 1.368 . S
C336 C335 1.523 . S
H337 C312 0.950 . S
H338 C314 0.950 . S
H339 C315 0.949 . S
H340 C317 0.950 . S
H341 C319 0.950 . S
C342 C343 1.349 . S
C342 C344 1.327 . S
C342 H367 0.950 . S
C343 C342 1.349 . S
C343 C359 1.349 . S
C344 C342 1.327 . S
C344 C363 1.429 . S
C344 H368 0.950 . S
C345 C362 1.574 . S
C345 C364 1.368 . S
C345 H369 0.949 . S
H346 C350 0.949 . S
C347 C348 1.349 . S
C347 C349 1.327 . S
C347 H370 0.950 . S
C348 C347 1.349 . S
C348 C360 1.349 . S
C349 C347 1.327 . S
C349 C365 1.429 . S
C349 H371 0.950 . S
C350 H346 0.949 . S
C350 C358 1.574 . S
C350 C366 1.368 . S
H351 C359 0.950 . S
H352 C357 0.950 . S
H353 C358 0.949 . S
H354 C360 0.950 . S
H355 C361 0.950 . S
H356 C362 0.949 . S
C357 H352 0.950 . S
C357 C359 1.327 . S
C357 C363 1.429 . S
C358 C350 1.574 . S
C358 H353 0.949 . S
C358 C364 1.368 . S
C359 C343 1.349 . S
C359 H351 0.950 . S
C359 C357 1.327 . S
C360 C348 1.349 . S
C360 H354 0.950 . S
C360 C361 1.327 . S
C361 H355 0.950 . S
C361 C360 1.327 . S
C361 C365 1.429 . S
C362 C345 1.574 . S
C362 H356 0.949 . S
C362 C366 1.368 . S
C363 C344 1.429 . S
C363 C357 1.429 . S
C363 C364 1.523 . S
C364 C345 1.368 . S
C364 C358 1.368 . S
C364 C363 1.523 . S
C365 C349 1.429 . S
C365 C361 1.429 . S
C365 C366 1.523 . S
C366 C350 1.368 . S
C366 C362 1.368 . S
C366 C365 1.523 . S
H367 C342 0.950 . S
H368 C344 0.950 . S
H369 C345 0.949 . S
H370 C347 0.950 . S
H371 C349 0.950 . S
C372 C373 1.349 . S
C372 C374 1.327 . S
C372 H397 0.950 . S
C373 C372 1.349 . S
C373 C389 1.349 . S
C374 C372 1.327 . S
C374 C393 1.429 . S
C374 H398 0.950 . S
C375 C392 1.574 . S
C375 C394 1.368 . S
C375 H399 0.949 . S
H376 C380 0.949 . S
C377 C378 1.349 . S
C377 C379 1.327 . S
C377 H400 0.950 . S
C378 C377 1.349 . S
C378 C390 1.349 . S
C379 C377 1.327 . S
C379 C395 1.429 . S
C379 H401 0.950 . S
C380 H376 0.949 . S
C380 C388 1.574 . S
C380 C396 1.368 . S
H381 C389 0.950 . S
H382 C387 0.950 . S
H383 C388 0.949 . S
H384 C390 0.950 . S
H385 C391 0.950 . S
H386 C392 0.949 . S
C387 H382 0.950 . S
C387 C389 1.327 . S
C387 C393 1.429 . S
C388 C380 1.574 . S
C388 H383 0.949 . S
C388 C394 1.368 . S
C389 C373 1.349 . S
C389 H381 0.950 . S
C389 C387 1.327 . S
C390 C378 1.349 . S
C390 H384 0.950 . S
C390 C391 1.327 . S
C391 H385 0.950 . S
C391 C390 1.327 . S
C391 C395 1.429 . S
C392 C375 1.574 . S
C392 H386 0.949 . S
C392 C396 1.368 . S
C393 C374 1.429 . S
C393 C387 1.429 . S
C393 C394 1.523 . S
C394 C375 1.368 . S
C394 C388 1.368 . S
C394 C393 1.523 . S
C395 C379 1.429 . S
C395 C391 1.429 . S
C395 C396 1.523 . S
C396 C380 1.368 . S
C396 C392 1.368 . S
C396 C395 1.523 . S
H397 C372 0.950 . S
H398 C374 0.950 . S
H399 C375 0.949 . S
H400 C377 0.950 . S
H401 C379 0.950 . S
C402 C403 1.349 . S
C402 C404 1.327 . S
C402 H427 0.950 . S
C403 C402 1.349 . S
C403 C419 1.349 . S
C404 C402 1.327 . S
C404 C423 1.429 . S
C404 H428 0.950 . S
C405 C422 1.574 . S
C405 C424 1.368 . S
C405 H429 0.949 . S
H406 C410 0.949 . S
C407 C408 1.349 1_455 S
C407 C409 1.313 1_455 S
C407 H430 0.950 . S
C408 C407 1.349 1_655 S
C408 C420 1.349 . S
C409 C407 1.313 1_655 S
C409 C425 1.447 . S
C409 H431 0.947 1_655 S
C410 H406 0.949 . S
C410 C418 1.574 . S
C410 C426 1.368 . S
H411 C419 0.950 . S
H412 C417 0.950 . S
H413 C418 0.949 . S
H414 C420 0.950 . S
H415 C421 0.950 . S
H416 C422 0.949 . S
C417 H412 0.950 . S
C417 C419 1.327 . S
C417 C423 1.429 . S
C418 C410 1.574 . S
C418 H413 0.949 . S
C418 C424 1.368 . S
C419 C403 1.349 . S
C419 H411 0.950 . S
C419 C417 1.327 . S
C420 C408 1.349 . S
C420 H414 0.950 . S
C420 C421 1.327 . S
C421 H415 0.950 . S
C421 C420 1.327 . S
C421 C425 1.429 . S
C422 C405 1.574 . S
C422 H416 0.949 . S
C422 C426 1.368 . S
C423 C404 1.429 . S
C423 C417 1.429 . S
C423 C424 1.523 . S
C424 C405 1.368 . S
C424 C418 1.368 . S
C424 C423 1.523 . S
C425 C409 1.447 . S
C425 C421 1.429 . S
C425 C426 1.523 . S
C426 C410 1.368 . S
C426 C422 1.368 . S
C426 C425 1.523 . S
H427 C402 0.950 . S
H428 C404 0.950 . S
H429 C405 0.949 . S
H430 C407 0.950 . S
H431 C409 0.947 1_455 S
C432 C433 1.349 . S
C432 C434 1.327 . S
C432 H457 0.950 . S
C433 C432 1.349 . S
C433 C449 1.349 . S
C434 C432 1.327 . S
C434 C453 1.429 . S
C434 H458 0.950 . S
C435 C452 1.574 . S
C435 C454 1.368 . S
C435 H459 0.949 . S
H436 C440 0.949 . S
C437 C438 1.349 . S
C437 C439 1.327 . S
C437 H460 0.950 . S
C438 C437 1.349 . S
C438 C450 1.349 . S
C439 C437 1.327 . S
C439 C455 1.429 . S
C439 H461 0.950 . S
C440 H436 0.949 . S
C440 C448 1.574 . S
C440 C456 1.368 . S
H441 C449 0.950 . S
H442 C447 0.950 . S
H443 C448 0.949 . S
H444 C450 0.950 . S
H445 C451 0.950 . S
H446 C452 0.949 . S
C447 H442 0.950 . S
C447 C449 1.327 . S
C447 C453 1.429 . S
C448 C440 1.574 . S
C448 H443 0.949 . S
C448 C454 1.368 . S
C449 C433 1.349 . S
C449 H441 0.950 . S
C449 C447 1.327 . S
C450 C438 1.349 . S
C450 H444 0.950 . S
C450 C451 1.327 . S
C451 H445 0.950 . S
C451 C450 1.327 . S
C451 C455 1.429 . S
C452 C435 1.574 . S
C452 H446 0.949 . S
C452 C456 1.368 . S
C453 C434 1.429 . S
C453 C447 1.429 . S
C453 C454 1.523 . S
C454 C435 1.368 . S
C454 C448 1.368 . S
C454 C453 1.523 . S
C455 C439 1.429 . S
C455 C451 1.429 . S
C455 C456 1.523 . S
C456 C440 1.368 . S
C456 C452 1.368 . S
C456 C455 1.523 . S
H457 C432 0.950 . S
H458 C434 0.950 . S
H459 C435 0.949 . S
H460 C437 0.950 . S
H461 C439 0.950 . S
C462 C463 1.349 . S
C462 C464 1.327 . S
C462 H487 0.950 . S
C463 C462 1.349 . S
C463 C479 1.349 . S
C464 C462 1.327 . S
C464 C483 1.429 . S
C464 H488 0.950 . S
C465 C482 1.574 . S
C465 C484 1.368 . S
C465 H489 0.949 . S
H466 C470 0.949 . S
C467 C468 1.349 . S
C467 C469 1.327 . S
C467 H490 0.950 1_565 S
C468 C467 1.349 . S
C468 C480 1.349 . S
C469 C467 1.327 . S
C469 C485 1.429 . S
C469 H491 0.950 . S
C470 H466 0.949 . S
C470 C478 1.574 . S
C470 C486 1.368 . S
H471 C479 0.950 . S
H472 C477 0.950 . S
H473 C478 0.949 . S
H474 C480 0.950 . S
H475 C481 0.950 . S
H476 C482 0.949 . S
C477 H472 0.950 . S
C477 C479 1.327 . S
C477 C483 1.429 . S
C478 C470 1.574 . S
C478 H473 0.949 . S
C478 C484 1.368 . S
C479 C463 1.349 . S
C479 H471 0.950 . S
C479 C477 1.327 . S
C480 C468 1.349 . S
C480 H474 0.950 . S
C480 C481 1.327 . S
C481 H475 0.950 . S
C481 C480 1.327 . S
C481 C485 1.429 . S
C482 C465 1.574 . S
C482 H476 0.949 . S
C482 C486 1.368 . S
C483 C464 1.429 . S
C483 C477 1.429 . S
C483 C484 1.523 . S
C484 C465 1.368 . S
C484 C478 1.368 . S
C484 C483 1.523 . S
C485 C469 1.429 . S
C485 C481 1.429 . S
C485 C486 1.523 . S
C486 C470 1.368 . S
C486 C482 1.368 . S
C486 C485 1.523 . S
H487 C462 0.950 . S
H488 C464 0.950 . S
H489 C465 0.949 . S
H490 C467 0.950 1_545 S
H491 C469 0.950 . S
C492 C493 1.349 . S
C492 C494 1.327 . S
C492 H517 0.950 . S
C493 C492 1.349 . S
C493 C509 1.349 . S
C494 C492 1.327 . S
C494 C513 1.429 . S
C494 H518 0.950 . S
C495 C512 1.574 . S
C495 C514 1.368 . S
C495 H519 0.949 . S
H496 C500 0.949 . S
C497 C498 1.349 . S
C497 C499 1.327 . S
C497 H520 0.950 . S
C498 C497 1.349 . S
C498 C510 1.349 . S
C499 C497 1.327 . S
C499 C515 1.429 . S
C499 H521 0.950 . S
C500 H496 0.949 . S
C500 C508 1.574 . S
C500 C516 1.368 . S
H501 C509 0.950 . S
H502 C507 0.950 . S
H503 C508 0.949 . S
H504 C510 0.950 . S
H505 C511 0.950 . S
H506 C512 0.949 . S
C507 H502 0.950 . S
C507 C509 1.327 . S
C507 C513 1.429 . S
C508 C500 1.574 . S
C508 H503 0.949 . S
C508 C514 1.368 . S
C509 C493 1.349 . S
C509 H501 0.950 . S
C509 C507 1.327 . S
C510 C498 1.349 . S
C510 H504 0.950 . S
C510 C511 1.327 . S
C511 H505 0.950 . S
C511 C510 1.327 . S
C511 C515 1.429 . S
C512 C495 1.574 . S
C512 H506 0.949 . S
C512 C516 1.368 . S
C513 C494 1.429 . S
C513 C507 1.429 . S
C513 C514 1.523 . S
C514 C495 1.368 . S
C514 C508 1.368 . S
C514 C513 1.523 . S
C515 C499 1.429 . S
C515 C511 1.429 . S
C515 C516 1.523 . S
C516 C500 1.368 . S
C516 C512 1.368 . S
C516 C515 1.523 . S
H517 C492 0.950 . S
H518 C494 0.950 . S
H519 C495 0.949 . S
H520 C497 0.950 . S
H521 C499 0.950 . S
C522 C523 1.349 . S
C522 C524 1.327 . S
C522 H547 0.950 . S
C523 C522 1.349 . S
C523 C539 1.349 . S
C524 C522 1.327 . S
C524 C543 1.429 . S
C524 H548 0.950 . S
C525 C542 1.574 . S
C525 C544 1.368 . S
C525 H549 0.949 . S
H526 C530 0.949 . S
C527 C528 1.349 . S
C527 C529 1.327 . S
C527 H550 0.950 . S
C528 C527 1.349 . S
C528 C540 1.349 . S
C529 C527 1.327 . S
C529 C545 1.429 . S
C529 H551 0.950 . S
C530 H526 0.949 . S
C530 C538 1.574 . S
C530 C546 1.368 . S
H531 C539 0.950 . S
H532 C537 0.950 . S
H533 C538 0.949 . S
H534 C540 0.950 . S
H535 C541 0.950 . S
H536 C542 0.949 . S
C537 H532 0.950 . S
C537 C539 1.327 . S
C537 C543 1.429 . S
C538 C530 1.574 . S
C538 H533 0.949 . S
C538 C544 1.368 . S
C539 C523 1.349 . S
C539 H531 0.950 . S
C539 C537 1.327 . S
C540 C528 1.349 . S
C540 H534 0.950 . S
C540 C541 1.327 . S
C541 H535 0.950 . S
C541 C540 1.327 . S
C541 C545 1.429 . S
C542 C525 1.574 . S
C542 H536 0.949 . S
C542 C546 1.368 . S
C543 C524 1.429 . S
C543 C537 1.429 . S
C543 C544 1.523 . S
C544 C525 1.368 . S
C544 C538 1.368 . S
C544 C543 1.523 . S
C545 C529 1.429 . S
C545 C541 1.429 . S
C545 C546 1.523 . S
C546 C530 1.368 . S
C546 C542 1.368 . S
C546 C545 1.523 . S
H547 C522 0.950 . S
H548 C524 0.950 . S
H549 C525 0.949 . S
H550 C527 0.950 . S
H551 C529 0.950 . S
C552 C553 1.349 . S
C552 C554 1.327 . S
C552 H577 0.950 . S
C553 C552 1.349 . S
C553 C569 1.349 . S
C554 C552 1.327 . S
C554 C573 1.429 . S
C554 H578 0.950 . S
C555 C572 1.574 . S
C555 C574 1.368 . S
C555 H579 0.949 . S
H556 C560 0.949 . S
C557 C558 1.349 . S
C557 C559 1.327 . S
C557 H580 0.950 . S
C558 C557 1.349 . S
C558 C570 1.349 . S
C559 C557 1.327 . S
C559 C575 1.429 . S
C559 H581 0.950 . S
C560 H556 0.949 . S
C560 C568 1.574 . S
C560 C576 1.368 . S
H561 C569 0.950 . S
H562 C567 0.950 . S
H563 C568 0.949 . S
H564 C570 0.950 . S
H565 C571 0.950 . S
H566 C572 0.949 . S
C567 H562 0.950 . S
C567 C569 1.327 . S
C567 C573 1.429 . S
C568 C560 1.574 . S
C568 H563 0.949 . S
C568 C574 1.368 . S
C569 C553 1.349 . S
C569 H561 0.950 . S
C569 C567 1.327 . S
C570 C558 1.349 . S
C570 H564 0.950 . S
C570 C571 1.327 . S
C571 H565 0.950 . S
C571 C570 1.327 . S
C571 C575 1.429 . S
C572 C555 1.574 . S
C572 H566 0.949 . S
C572 C576 1.368 . S
C573 C554 1.429 . S
C573 C567 1.429 . S
C573 C574 1.523 . S
C574 C555 1.368 . S
C574 C568 1.368 . S
C574 C573 1.523 . S
C575 C559 1.429 . S
C575 C571 1.429 . S
C575 C576 1.523 . S
C576 C560 1.368 . S
C576 C572 1.368 . S
C576 C575 1.523 . S
H577 C552 0.950 . S
H578 C554 0.950 . S
H579 C555 0.949 . S
H580 C557 0.950 . S
H581 C559 0.950 . S
C582 C583 1.349 . S
C582 C584 1.327 . S
C582 H607 0.950 . S
C583 C582 1.349 . S
C583 C599 1.349 . S
C584 C582 1.327 . S
C584 C603 1.429 . S
C584 H608 0.950 . S
C585 C602 1.574 . S
C585 C604 1.368 . S
C585 H609 0.949 . S
H586 C590 0.949 1_554 S
C587 C588 1.349 1_556 S
C587 C589 1.327 . S
C587 H610 0.950 . S
C588 C587 1.349 1_554 S
C588 C600 1.349 . S
C589 C587 1.327 . S
C589 C605 1.429 . S
C589 H611 0.950 . S
C590 H586 0.949 1_556 S
C590 C598 1.574 . S
C590 C606 1.368 . S
H591 C599 0.950 . S
H592 C597 0.950 . S
H593 C598 0.949 . S
H594 C600 0.950 . S
H595 C601 0.950 . S
H596 C602 0.949 . S
C597 H592 0.950 . S
C597 C599 1.327 . S
C597 C603 1.429 . S
C598 C590 1.574 . S
C598 H593 0.949 . S
C598 C604 1.368 . S
C599 C583 1.349 . S
C599 H591 0.950 . S
C599 C597 1.327 . S
C600 C588 1.349 . S
C600 H594 0.950 . S
C600 C601 1.327 . S
C601 H595 0.950 . S
C601 C600 1.327 . S
C601 C605 1.429 1_554 S
C602 C585 1.574 . S
C602 H596 0.949 . S
C602 C606 1.368 . S
C603 C584 1.429 . S
C603 C597 1.429 . S
C603 C604 1.523 . S
C604 C585 1.368 . S
C604 C598 1.368 . S
C604 C603 1.523 . S
C605 C589 1.429 . S
C605 C601 1.429 1_556 S
C605 C606 1.523 . S
C606 C590 1.368 . S
C606 C602 1.368 . S
C606 C605 1.523 . S
H607 C582 0.950 . S
H608 C584 0.950 . S
H609 C585 0.949 . S
H610 C587 0.950 . S
H611 C589 0.950 . S
C612 C613 1.349 . S
C612 C614 1.327 . S
C612 H637 0.950 . S
C613 C612 1.349 . S
C613 C629 1.349 . S
C614 C612 1.327 . S
C614 C633 1.429 . S
C614 H638 0.950 . S
C615 C632 1.574 . S
C615 C634 1.368 . S
C615 H639 0.949 . S
H616 C620 0.949 . S
C617 C618 1.349 . S
C617 C619 1.327 . S
C617 H640 0.950 . S
C618 C617 1.349 . S
C618 C630 1.349 . S
C619 C617 1.327 . S
C619 C635 1.429 . S
C619 H641 0.950 . S
C620 H616 0.949 . S
C620 C628 1.574 . S
C620 C636 1.368 . S
H621 C629 0.950 . S
H622 C627 0.950 . S
H623 C628 0.949 . S
H624 C630 0.950 1_455 S
H625 C631 0.950 . S
H626 C632 0.949 . S
C627 H622 0.950 . S
C627 C629 1.327 . S
C627 C633 1.429 . S
C628 C620 1.574 . S
C628 H623 0.949 . S
C628 C634 1.368 . S
C629 C613 1.349 . S
C629 H621 0.950 . S
C629 C627 1.327 . S
C630 C618 1.349 . S
C630 H624 0.950 1_655 S
C630 C631 1.327 . S
C631 H625 0.950 . S
C631 C630 1.327 . S
C631 C635 1.429 . S
C632 C615 1.574 . S
C632 H626 0.949 . S
C632 C636 1.368 . S
C633 C614 1.429 . S
C633 C627 1.429 . S
C633 C634 1.523 . S
C634 C615 1.368 . S
C634 C628 1.368 . S
C634 C633 1.523 . S
C635 C619 1.429 . S
C635 C631 1.429 . S
C635 C636 1.523 . S
C636 C620 1.368 . S
C636 C632 1.368 . S
C636 C635 1.523 . S
H637 C612 0.950 . S
H638 C614 0.950 . S
H639 C615 0.949 . S
H640 C617 0.950 . S
H641 C619 0.950 . S
C642 C643 1.349 . S
C642 C644 1.327 . S
C642 H667 0.950 . S
C643 C642 1.349 . S
C643 C659 1.349 . S
C644 C642 1.327 . S
C644 C663 1.429 . S
C644 H668 0.950 . S
C645 C662 1.574 . S
C645 C664 1.368 . S
C645 H669 0.949 . S
H646 C650 0.949 . S
C647 C648 1.349 . S
C647 C649 1.327 . S
C647 H670 0.950 . S
C648 C647 1.349 . S
C648 C660 1.349 . S
C649 C647 1.327 . S
C649 C665 1.429 . S
C649 H671 0.950 . S
C650 H646 0.949 . S
C650 C658 1.574 . S
C650 C666 1.368 . S
H651 C659 0.950 . S
H652 C657 0.950 . S
H653 C658 0.949 . S
H654 C660 0.950 . S
H655 C661 0.950 . S
H656 C662 0.949 . S
C657 H652 0.950 . S
C657 C659 1.327 . S
C657 C663 1.429 . S
C658 C650 1.574 . S
C658 H653 0.949 . S
C658 C664 1.368 . S
C659 C643 1.349 . S
C659 H651 0.950 . S
C659 C657 1.327 . S
C660 C648 1.349 . S
C660 H654 0.950 . S
C660 C661 1.327 . S
C661 H655 0.950 . S
C661 C660 1.327 . S
C661 C665 1.429 . S
C662 C645 1.574 . S
C662 H656 0.949 . S
C662 C666 1.368 . S
C663 C644 1.429 . S
C663 C657 1.429 . S
C663 C664 1.523 . S
C664 C645 1.368 . S
C664 C658 1.368 . S
C664 C663 1.523 . S
C665 C649 1.429 . S
C665 C661 1.429 . S
C665 C666 1.523 . S
C666 C650 1.368 . S
C666 C662 1.368 . S
C666 C665 1.523 . S
H667 C642 0.950 . S
H668 C644 0.950 . S
H669 C645 0.949 . S
H670 C647 0.950 . S
H671 C649 0.950 . S
C672 C673 1.349 . S
C672 C674 1.327 . S
C672 H697 0.950 . S
C673 C672 1.349 . S
C673 C689 1.349 . S
C674 C672 1.327 . S
C674 C693 1.429 . S
C674 H698 0.950 . S
C675 C692 1.574 . S
C675 C694 1.368 . S
C675 H699 0.949 . S
H676 C680 0.949 . S
C677 C678 1.349 . S
C677 C679 1.327 . S
C677 H700 0.950 . S
C678 C677 1.349 . S
C678 C690 1.349 . S
C679 C677 1.327 . S
C679 C695 1.429 . S
C679 H701 0.950 . S
C680 H676 0.949 . S
C680 C688 1.574 . S
C680 C696 1.368 . S
H681 C689 0.950 . S
H682 C687 0.950 . S
H683 C688 0.949 . S
H684 C690 0.950 . S
H685 C691 0.950 . S
H686 C692 0.949 . S
C687 H682 0.950 . S
C687 C689 1.327 . S
C687 C693 1.429 . S
C688 C680 1.574 . S
C688 H683 0.949 . S
C688 C694 1.368 . S
C689 C673 1.349 . S
C689 H681 0.950 . S
C689 C687 1.327 . S
C690 C678 1.349 . S
C690 H684 0.950 . S
C690 C691 1.327 . S
C691 H685 0.950 . S
C691 C690 1.327 . S
C691 C695 1.429 . S
C692 C675 1.574 . S
C692 H686 0.949 . S
C692 C696 1.368 . S
C693 C674 1.429 . S
C693 C687 1.429 . S
C693 C694 1.523 . S
C694 C675 1.368 . S
C694 C688 1.368 . S
C694 C693 1.523 . S
C695 C679 1.429 . S
C695 C691 1.429 . S
C695 C696 1.523 . S
C696 C680 1.368 . S
C696 C692 1.368 . S
C696 C695 1.523 . S
H697 C672 0.950 . S
H698 C674 0.950 . S
H699 C675 0.949 . S
H700 C677 0.950 . S
H701 C679 0.950 . S
C702 C703 1.349 . S
C702 C704 1.327 . S
C702 H727 0.950 . S
C703 C702 1.349 . S
C703 C719 1.349 . S
C704 C702 1.327 . S
C704 C723 1.429 . S
C704 H728 0.950 . S
C705 C722 1.574 . S
C705 C724 1.368 . S
C705 H729 0.949 . S
H706 C710 0.949 . S
C707 C708 1.349 . S
C707 C709 1.327 . S
C707 H730 0.950 . S
C708 C707 1.349 . S
C708 C720 1.349 . S
C709 C707 1.327 . S
C709 C725 1.429 . S
C709 H731 0.950 . S
C710 H706 0.949 . S
C710 C718 1.574 . S
C710 C726 1.368 . S
H711 C719 0.950 . S
H712 C717 0.950 . S
H713 C718 0.949 . S
H714 C720 0.950 . S
H715 C721 0.950 . S
H716 C722 0.949 . S
C717 H712 0.950 . S
C717 C719 1.327 . S
C717 C723 1.429 . S
C718 C710 1.574 . S
C718 H713 0.949 . S
C718 C724 1.368 . S
C719 C703 1.349 . S
C719 H711 0.950 . S
C719 C717 1.327 . S
C720 C708 1.349 . S
C720 H714 0.950 . S
C720 C721 1.327 . S
C721 H715 0.950 . S
C721 C720 1.327 . S
C721 C725 1.429 . S
C722 C705 1.574 . S
C722 H716 0.949 . S
C722 C726 1.368 . S
C723 C704 1.429 . S
C723 C717 1.429 . S
C723 C724 1.523 . S
C724 C705 1.368 . S
C724 C718 1.368 . S
C724 C723 1.523 . S
C725 C709 1.429 . S
C725 C721 1.429 . S
C725 C726 1.523 . S
C726 C710 1.368 . S
C726 C722 1.368 . S
C726 C725 1.523 . S
H727 C702 0.950 . S
H728 C704 0.950 . S
H729 C705 0.949 . S
H730 C707 0.950 . S
H731 C709 0.950 . S
C732 C733 1.349 . S
C732 C734 1.327 . S
C732 H757 0.950 . S
C733 C732 1.349 . S
C733 C749 1.349 . S
C734 C732 1.327 . S
C734 C753 1.429 . S
C734 H758 0.950 . S
C735 C752 1.574 . S
C735 C754 1.368 . S
C735 H759 0.949 . S
H736 C740 0.949 . S
C737 C738 1.349 . S
C737 C739 1.327 . S
C737 H760 0.950 . S
C738 C737 1.349 . S
C738 C750 1.349 . S
C739 C737 1.327 . S
C739 C755 1.429 . S
C739 H761 0.950 . S
C740 H736 0.949 . S
C740 C748 1.574 . S
C740 C756 1.368 . S
H741 C749 0.950 . S
H742 C747 0.950 . S
H743 C748 0.949 . S
H744 C750 0.950 . S
H745 C751 0.950 . S
H746 C752 0.949 . S
C747 H742 0.950 . S
C747 C749 1.327 . S
C747 C753 1.429 . S
C748 C740 1.574 . S
C748 H743 0.949 . S
C748 C754 1.368 . S
C749 C733 1.349 . S
C749 H741 0.950 . S
C749 C747 1.327 . S
C750 C738 1.349 . S
C750 H744 0.950 . S
C750 C751 1.327 . S
C751 H745 0.950 . S
C751 C750 1.327 . S
C751 C755 1.429 . S
C752 C735 1.574 . S
C752 H746 0.949 . S
C752 C756 1.368 . S
C753 C734 1.429 . S
C753 C747 1.429 . S
C753 C754 1.523 . S
C754 C735 1.368 . S
C754 C748 1.368 . S
C754 C753 1.523 . S
C755 C739 1.429 . S
C755 C751 1.429 . S
C755 C756 1.523 . S
C756 C740 1.368 . S
C756 C752 1.368 . S
C756 C755 1.523 . S
H757 C732 0.950 . S
H758 C734 0.950 . S
H759 C735 0.949 . S
H760 C737 0.950 . S
H761 C739 0.950 . S
C762 C763 1.349 . S
C762 C764 1.327 . S
C762 H787 0.950 . S
C763 C762 1.349 . S
C763 C779 1.349 . S
C764 C762 1.327 . S
C764 C783 1.429 . S
C764 H788 0.950 . S
C765 C782 1.574 . S
C765 C784 1.368 . S
C765 H789 0.949 . S
H766 C770 0.949 . S
C767 C768 1.349 . S
C767 C769 1.327 . S
C767 H790 0.950 . S
C768 C767 1.349 . S
C768 C780 1.349 . S
C769 C767 1.327 . S
C769 C785 1.429 . S
C769 H791 0.950 . S
C770 H766 0.949 . S
C770 C778 1.574 . S
C770 C786 1.368 . S
H771 C779 0.950 . S
H772 C777 0.950 . S
H773 C778 0.949 . S
H774 C780 0.950 . S
H775 C781 0.950 . S
H776 C782 0.949 . S
C777 H772 0.950 . S
C777 C779 1.327 . S
C777 C783 1.429 . S
C778 C770 1.574 . S
C778 H773 0.949 . S
C778 C784 1.368 . S
C779 C763 1.349 . S
C779 H771 0.950 . S
C779 C777 1.327 . S
C780 C768 1.349 . S
C780 H774 0.950 . S
C780 C781 1.327 . S
C781 H775 0.950 . S
C781 C780 1.327 . S
C781 C785 1.429 . S
C782 C765 1.574 . S
C782 H776 0.949 . S
C782 C786 1.368 . S
C783 C764 1.429 . S
C783 C777 1.429 . S
C783 C784 1.523 . S
C784 C765 1.368 . S
C784 C778 1.368 . S
C784 C783 1.523 . S
C785 C769 1.429 . S
C785 C781 1.429 . S
C785 C786 1.523 . S
C786 C770 1.368 . S
C786 C782 1.368 . S
C786 C785 1.523 . S
H787 C762 0.950 . S
H788 C764 0.950 . S
H789 C765 0.949 . S
H790 C767 0.950 . S
H791 C769 0.950 . S
C792 C793 1.349 . S
C792 C794 1.327 . S
C792 H817 0.950 . S
C793 C792 1.349 . S
C793 C809 1.349 . S
C794 C792 1.327 . S
C794 C813 1.429 . S
C794 H818 0.950 . S
C795 C812 1.574 . S
C795 C814 1.368 . S
C795 H819 0.949 . S
H796 C800 0.949 . S
C797 C798 1.349 . S
C797 C799 1.327 . S
C797 H820 0.950 . S
C798 C797 1.349 . S
C798 C810 1.349 . S
C799 C797 1.327 . S
C799 C815 1.429 1_554 S
C799 H821 0.950 1_554 S
C800 H796 0.949 . S
C800 C808 1.574 . S
C800 C816 1.368 . S
H801 C809 0.950 . S
H802 C807 0.950 . S
H803 C808 0.949 . S
H804 C810 0.957 . S
H805 C811 0.950 . S
H806 C812 0.949 . S
C807 H802 0.950 . S
C807 C809 1.327 . S
C807 C813 1.429 . S
C808 C800 1.574 . S
C808 H803 0.949 . S
C808 C814 1.368 . S
C809 C793 1.349 . S
C809 H801 0.950 . S
C809 C807 1.327 . S
C810 C798 1.349 . S
C810 H804 0.957 . S
C810 C811 1.327 . S
C811 H805 0.950 . S
C811 C810 1.327 . S
C811 C815 1.429 1_554 S
C812 C795 1.574 . S
C812 H806 0.949 . S
C812 C816 1.368 . S
C813 C794 1.429 . S
C813 C807 1.429 . S
C813 C814 1.523 . S
C814 C795 1.368 . S
C814 C808 1.368 . S
C814 C813 1.523 . S
C815 C799 1.429 1_556 S
C815 C811 1.429 1_556 S
C815 C816 1.523 . S
C816 C800 1.368 . S
C816 C812 1.368 . S
C816 C815 1.523 . S
H817 C792 0.950 . S
H818 C794 0.950 . S
H819 C795 0.949 . S
H820 C797 0.950 . S
H821 C799 0.950 1_556 S
C822 C823 1.349 . S
C822 C824 1.327 . S
C822 H847 0.950 . S
C823 C822 1.349 . S
C823 C839 1.349 . S
C824 C822 1.327 . S
C824 C843 1.429 . S
C824 H848 0.950 . S
C825 C842 1.574 . S
C825 C844 1.368 . S
C825 H849 0.949 . S
H826 C830 0.949 . S
C827 C828 1.349 . S
C827 C829 1.327 . S
C827 H850 0.950 . S
C828 C827 1.349 . S
C828 C840 1.349 . S
C829 C827 1.327 . S
C829 C845 1.429 . S
C829 H851 0.950 . S
C830 H826 0.949 . S
C830 C838 1.574 . S
C830 C846 1.368 . S
H831 C839 0.950 . S
H832 C837 0.950 . S
H833 C838 0.949 . S
H834 C840 0.950 . S
H835 C841 0.950 . S
H836 C842 0.949 . S
C837 H832 0.950 . S
C837 C839 1.327 . S
C837 C843 1.429 . S
C838 C830 1.574 . S
C838 H833 0.949 . S
C838 C844 1.368 . S
C839 C823 1.349 . S
C839 H831 0.950 . S
C839 C837 1.327 . S
C840 C828 1.349 . S
C840 H834 0.950 . S
C840 C841 1.327 . S
C841 H835 0.950 . S
C841 C840 1.327 . S
C841 C845 1.429 . S
C842 C825 1.574 . S
C842 H836 0.949 . S
C842 C846 1.368 . S
C843 C824 1.429 . S
C843 C837 1.429 . S
C843 C844 1.523 . S
C844 C825 1.368 . S
C844 C838 1.368 . S
C844 C843 1.523 . S
C845 C829 1.429 . S
C845 C841 1.429 . S
C845 C846 1.523 . S
C846 C830 1.368 . S
C846 C842 1.368 . S
C846 C845 1.523 . S
H847 C822 0.950 . S
H848 C824 0.950 . S
H849 C825 0.949 . S
H850 C827 0.950 . S
H851 C829 0.950 . S
C852 C853 1.349 . S
C852 C854 1.327 . S
C852 H877 0.950 . S
C853 C852 1.349 . S
C853 C869 1.349 . S
C854 C852 1.327 . S
C854 C873 1.429 . S
C854 H878 0.950 . S
C855 C872 1.574 . S
C855 C874 1.368 . S
C855 H879 0.949 . S
H856 C860 0.949 . S
C857 C858 1.349 . S
C857 C859 1.327 . S
C857 H880 0.950 . S
C858 C857 1.349 . S
C858 C870 1.349 . S
C859 C857 1.327 . S
C859 C875 1.429 . S
C859 H881 0.950 . S
C860 H856 0.949 . S
C860 C868 1.574 . S
C860 C876 1.368 . S
H861 C869 0.950 . S
H862 C867 0.950 . S
H863 C868 0.949 . S
H864 C870 0.950 . S
H865 C871 0.950 . S
H866 C872 0.949 . S
C867 H862 0.950 . S
C867 C869 1.327 . S
C867 C873 1.429 . S
C868 C860 1.574 . S
C868 H863 0.949 . S
C868 C874 1.368 . S
C869 C853 1.349 . S
C869 H861 0.950 . S
C869 C867 1.327 . S
C870 C858 1.349 . S
C870 H864 0.950 . S
C870 C871 1.327 . S
C871 H865 0.950 . S
C871 C870 1.327 . S
C871 C875 1.429 . S
C872 C855 1.574 . S
C872 H866 0.949 . S
C872 C876 1.368 . S
C873 C854 1.429 . S
C873 C867 1.429 . S
C873 C874 1.523 . S
C874 C855 1.368 . S
C874 C868 1.368 . S
C874 C873 1.523 . S
C875 C859 1.429 . S
C875 C871 1.429 . S
C875 C876 1.523 . S
C876 C860 1.368 . S
C876 C872 1.368 . S
C876 C875 1.523 . S
H877 C852 0.950 . S
H878 C854 0.950 . S
H879 C855 0.949 . S
H880 C857 0.950 . S
H881 C859 0.950 . S
C882 C883 1.349 . S
C882 C884 1.327 . S
C882 H907 0.950 . S
C883 C882 1.349 . S
C883 C899 1.349 . S
C884 C882 1.327 . S
C884 C903 1.429 . S
C884 H908 0.950 . S
C885 C902 1.574 . S
C885 C904 1.368 . S
C885 H909 0.949 . S
H886 C890 0.949 . S
C887 C888 1.349 . S
C887 C889 1.327 . S
C887 H910 0.950 . S
C888 C887 1.349 . S
C888 C900 1.349 . S
C889 C887 1.327 . S
C889 C905 1.429 . S
C889 H911 0.950 . S
C890 H886 0.949 . S
C890 C898 1.574 . S
C890 C906 1.368 . S
H891 C899 0.950 . S
H892 C897 0.950 . S
H893 C898 0.949 . S
H894 C900 0.950 . S
H895 C901 0.950 . S
H896 C902 0.949 . S
C897 H892 0.950 . S
C897 C899 1.327 . S
C897 C903 1.429 . S
C898 C890 1.574 . S
C898 H893 0.949 . S
C898 C904 1.368 . S
C899 C883 1.349 . S
C899 H891 0.950 . S
C899 C897 1.327 . S
C900 C888 1.349 . S
C900 H894 0.950 . S
C900 C901 1.327 . S
C901 H895 0.950 . S
C901 C900 1.327 . S
C901 C905 1.429 . S
C902 C885 1.574 . S
C902 H896 0.949 . S
C902 C906 1.368 . S
C903 C884 1.429 . S
C903 C897 1.429 . S
C903 C904 1.523 . S
C904 C885 1.368 . S
C904 C898 1.368 . S
C904 C903 1.523 . S
C905 C889 1.429 . S
C905 C901 1.429 . S
C905 C906 1.523 . S
C906 C890 1.368 . S
C906 C902 1.368 . S
C906 C905 1.523 . S
H907 C882 0.950 . S
H908 C884 0.950 . S
H909 C885 0.949 . S
H910 C887 0.950 . S
H911 C889 0.950 . S
C912 C913 1.349 . S
C912 C914 1.327 . S
C912 H937 0.950 . S
C913 C912 1.349 . S
C913 C929 1.349 . S
C914 C912 1.327 . S
C914 C933 1.429 . S
C914 H938 0.950 . S
C915 C932 1.574 . S
C915 C934 1.368 . S
C915 H939 0.949 . S
H916 C920 0.949 . S
C917 C918 1.349 . S
C917 C919 1.327 . S
C917 H940 0.950 . S
C918 C917 1.349 . S
C918 C930 1.349 . S
C919 C917 1.327 . S
C919 C935 1.429 . S
C919 H941 0.950 . S
C920 H916 0.949 . S
C920 C928 1.574 . S
C920 C936 1.368 . S
H921 C929 0.950 . S
H922 C927 0.950 . S
H923 C928 0.949 . S
H924 C930 0.950 . S
H925 C931 0.950 . S
H926 C932 0.949 . S
C927 H922 0.950 . S
C927 C929 1.327 . S
C927 C933 1.429 . S
C928 C920 1.574 . S
C928 H923 0.949 . S
C928 C934 1.368 . S
C929 C913 1.349 . S
C929 H921 0.950 . S
C929 C927 1.327 . S
C930 C918 1.349 . S
C930 H924 0.950 . S
C930 C931 1.327 . S
C931 H925 0.950 . S
C931 C930 1.327 . S
C931 C935 1.429 . S
C932 C915 1.574 . S
C932 H926 0.949 . S
C932 C936 1.368 . S
C933 C914 1.429 . S
C933 C927 1.429 . S
C933 C934 1.523 . S
C934 C915 1.368 . S
C934 C928 1.368 . S
C934 C933 1.523 . S
C935 C919 1.429 . S
C935 C931 1.429 . S
C935 C936 1.523 . S
C936 C920 1.368 . S
C936 C932 1.368 . S
C936 C935 1.523 . S
H937 C912 0.950 . S
H938 C914 0.950 . S
H939 C915 0.949 . S
H940 C917 0.950 . S
H941 C919 0.950 . S
C942 C943 1.349 . S
C942 C944 1.327 . S
C942 H967 0.950 . S
C943 C942 1.349 . S
C943 C959 1.349 . S
C944 C942 1.327 . S
C944 C963 1.429 . S
C944 H968 0.950 . S
C945 C962 1.574 . S
C945 C964 1.368 . S
C945 H969 0.949 . S
H946 C950 0.949 . S
C947 C948 1.349 . S
C947 C949 1.327 . S
C947 H970 0.950 . S
C948 C947 1.349 . S
C948 C960 1.349 . S
C949 C947 1.327 . S
C949 C965 1.429 . S
C949 H971 0.950 . S
C950 H946 0.949 . S
C950 C958 1.574 . S
C950 C966 1.368 . S
H951 C959 0.950 . S
H952 C957 0.950 . S
H953 C958 0.949 . S
H954 C960 0.950 . S
H955 C961 0.950 . S
H956 C962 0.949 . S
C957 H952 0.950 . S
C957 C959 1.327 . S
C957 C963 1.429 . S
C958 C950 1.574 . S
C958 H953 0.949 . S
C958 C964 1.368 . S
C959 C943 1.349 . S
C959 H951 0.950 . S
C959 C957 1.327 . S
C960 C948 1.349 . S
C960 H954 0.950 . S
C960 C961 1.327 . S
C961 H955 0.950 . S
C961 C960 1.327 . S
C961 C965 1.429 . S
C962 C945 1.574 . S
C962 H956 0.949 . S
C962 C966 1.368 . S
C963 C944 1.429 . S
C963 C957 1.429 . S
C963 C964 1.523 . S
C964 C945 1.368 . S
C964 C958 1.368 . S
C964 C963 1.523 . S
C965 C949 1.429 . S
C965 C961 1.429 . S
C965 C966 1.523 . S
C966 C950 1.368 . S
C966 C962 1.368 . S
C966 C965 1.523 . S
H967 C942 0.950 . S
H968 C944 0.950 . S
H969 C945 0.949 . S
H970 C947 0.950 . S
H971 C949 0.950 . S
C972 C973 1.349 . S
C972 C974 1.327 . S
C972 H997 0.950 . S
C973 C972 1.349 . S
C973 C989 1.349 . S
C974 C972 1.327 . S
C974 C993 1.429 . S
C974 H998 0.950 . S
C975 C992 1.574 . S
C975 C994 1.368 . S
C975 H999 0.949 . S
H976 C980 0.949 . S
C977 C978 1.349 . S
C977 C979 1.327 . S
C977 H1000 0.950 . S
C978 C977 1.349 . S
C978 C990 1.349 . S
C979 C977 1.327 . S
C979 C995 1.429 . S
C979 H1001 0.950 . S
C980 H976 0.949 . S
C980 C988 1.574 . S
C980 C996 1.368 . S
H981 C989 0.950 . S
H982 C987 0.950 . S
H983 C988 0.949 . S
H984 C990 0.950 . S
H985 C991 0.950 . S
H986 C992 0.949 . S
C987 H982 0.950 . S
C987 C989 1.327 . S
C987 C993 1.429 . S
C988 C980 1.574 . S
C988 H983 0.949 . S
C988 C994 1.368 . S
C989 C973 1.349 . S
C989 H981 0.950 . S
C989 C987 1.327 . S
C990 C978 1.349 . S
C990 H984 0.950 . S
C990 C991 1.327 . S
C991 H985 0.950 . S
C991 C990 1.327 . S
C991 C995 1.429 . S
C992 C975 1.574 . S
C992 H986 0.949 . S
C992 C996 1.368 . S
C993 C974 1.429 . S
C993 C987 1.429 . S
C993 C994 1.523 . S
C994 C975 1.368 . S
C994 C988 1.368 . S
C994 C993 1.523 . S
C995 C979 1.429 . S
C995 C991 1.429 . S
C995 C996 1.523 . S
C996 C980 1.368 . S
C996 C992 1.368 . S
C996 C995 1.523 . S
H997 C972 0.950 . S
H998 C974 0.950 . S
H999 C975 0.949 . S
H1000 C977 0.950 . S
H1001 C979 0.950 . S
C1002 C1003 1.349 . S
C1002 C1004 1.327 . S
C1002 H1027 0.950 . S
C1003 C1002 1.349 . S
C1003 C1019 1.349 . S
C1004 C1002 1.327 . S
C1004 C1023 1.429 . S
C1004 H1028 0.950 . S
C1005 C1022 1.574 . S
C1005 C1024 1.368 . S
C1005 H1029 0.949 . S
H1006 C1010 0.949 . S
C1007 C1008 1.349 . S
C1007 C1009 1.327 . S
C1007 H1030 0.950 . S
C1008 C1007 1.349 . S
C1008 C1020 1.349 . S
C1009 C1007 1.327 . S
C1009 C1025 1.429 . S
C1009 H1031 0.950 . S
C1010 H1006 0.949 . S
C1010 C1018 1.574 . S
C1010 C1026 1.368 . S
H1011 C1019 0.950 . S
H1012 C1017 0.950 . S
H1013 C1018 0.949 . S
H1014 C1020 0.950 . S
H1015 C1021 0.950 . S
H1016 C1022 0.949 . S
C1017 H1012 0.950 . S
C1017 C1019 1.327 . S
C1017 C1023 1.429 . S
C1018 C1010 1.574 . S
C1018 H1013 0.949 . S
C1018 C1024 1.368 . S
C1019 C1003 1.349 . S
C1019 H1011 0.950 . S
C1019 C1017 1.327 . S
C1020 C1008 1.349 . S
C1020 H1014 0.950 . S
C1020 C1021 1.327 . S
C1021 H1015 0.950 . S
C1021 C1020 1.327 . S
C1021 C1025 1.429 . S
C1022 C1005 1.574 . S
C1022 H1016 0.949 . S
C1022 C1026 1.368 . S
C1023 C1004 1.429 . S
C1023 C1017 1.429 . S
C1023 C1024 1.523 . S
C1024 C1005 1.368 . S
C1024 C1018 1.368 . S
C1024 C1023 1.523 . S
C1025 C1009 1.429 . S
C1025 C1021 1.429 . S
C1025 C1026 1.523 . S
C1026 C1010 1.368 . S
C1026 C1022 1.368 . S
C1026 C1025 1.523 . S
H1027 C1002 0.950 . S
H1028 C1004 0.950 . S
H1029 C1005 0.949 . S
H1030 C1007 0.950 . S
H1031 C1009 0.950 . S
C313 C6 1.197 . S
C318 C169 1.216 . S
C343 C21 1.557 . S
C348 C209 1.607 . S
C378 C234 1.631 . S
C373 C49 1.586 . S
C403 C68 2.054 . S
C408 C274 2.119 1_655 S
C438 C205 2.690 . S
C433 C2 2.623 . S
C468 C165 1.407 1_565 S
C463 C30 1.358 . S
C498 C296 1.428 . S
C493 C40 1.431 . S
C528 C256 1.337 . S
C523 C63 1.380 . S
C553 C11 1.100 . S
C558 C298 1.200 . S
C588 C215 2.425 . S
C583 C44 2.472 . S
C613 C59 1.636 . S
C618 C175 1.625 . S
C643 C25 1.740 . S
C648 C258 1.719 . S
C678 C178 1.531 . S
C673 C82 1.514 . S
C703 C101 1.182 . S
C708 C218 1.205 . S
C733 C125 2.074 . S
C738 C255 2.119 . S
C763 C144 1.664 . S
C768 C295 1.726 . S
C793 C87 1.385 . S
C798 C216 1.468 1_565 S
C828 C176 2.633 . S
C823 C97 2.563 . S
C858 C285 1.302 . S
C853 C120 1.341 . S
C888 C245 1.460 . S
C883 C135 1.459 . S
C913 C78 1.777 . S
C918 C289 1.810 . S
C948 C194 1.599 . S
C943 C116 1.609 . S
C978 C154 2.400 . S
C973 C139 2.446 . S
C1003 C106 0.991 . S
C1008 C249 1.192 . S
