# Generated by pormake.
# Topology pyr, (3,6)-cn, num edge types: 1
# Building blocks:
#     Node 0, Type 0, BuildingBlock: BELTOD_clean_linker_0, # of connection points: 3
#     Node 1, Type 0, BuildingBlock: BELTOD_clean_linker_0, # of connection points: 3
#     Node 2, Type 0, BuildingBlock: BELTOD_clean_linker_0, # of connection points: 3
#     Node 3, Type 0, BuildingBlock: BELTOD_clean_linker_0, # of connection points: 3
#     Node 4, Type 0, BuildingBlock: BELTOD_clean_linker_0, # of connection points: 3
#     Node 5, Type 0, BuildingBlock: BELTOD_clean_linker_0, # of connection points: 3
#     Node 6, Type 0, BuildingBlock: BELTOD_clean_linker_0, # of connection points: 3
#     Node 7, Type 0, BuildingBlock: BELTOD_clean_linker_0, # of connection points: 3
#     Node 8, Type 1, BuildingBlock: JUFBIX_clean_sbu_0, # of connection points: 6
#     Node 9, Type 1, BuildingBlock: JUFBIX_clean_sbu_0, # of connection points: 6
#     Node 10, Type 1, BuildingBlock: JUFBIX_clean_sbu_0, # of connection points: 6
#     Node 11, Type 1, BuildingBlock: JUFBIX_clean_sbu_0, # of connection points: 6
#     Edge 12, Type (0, 1), None
#     Edge 13, Type (0, 1), None
#     Edge 14, Type (0, 1), None
#     Edge 15, Type (0, 1), None
#     Edge 16, Type (0, 1), None
#     Edge 17, Type (0, 1), None
#     Edge 18, Type (0, 1), None
#     Edge 19, Type (0, 1), None
#     Edge 20, Type (0, 1), None
#     Edge 21, Type (0, 1), None
#     Edge 22, Type (0, 1), None
#     Edge 23, Type (0, 1), None
#     Edge 24, Type (0, 1), None
#     Edge 25, Type (0, 1), None
#     Edge 26, Type (0, 1), None
#     Edge 27, Type (0, 1), None
#     Edge 28, Type (0, 1), None
#     Edge 29, Type (0, 1), None
#     Edge 30, Type (0, 1), None
#     Edge 31, Type (0, 1), None
#     Edge 32, Type (0, 1), None
#     Edge 33, Type (0, 1), None
#     Edge 34, Type (0, 1), None
#     Edge 35, Type (0, 1), None
# Relax obj value: 0.147
# Max RMSD: 0.121
# Mean RMSD: 0.055
data_MOF--net-pry--node1-JUFBIX_clean_sbu_0--node2-BELTOD_clean_linker_0--edge1-none
_symmetry_space_group_name_H-M    P1
_symmetry_Int_Tables_number       1
_symmetry_cell_setting            triclinic
loop_
_symmetry_equiv_pos_as_xyz
'x, y, z'
_cell_length_a     22.177211
_cell_length_b     21.067577
_cell_length_c     22.131412
_cell_angle_alpha  76.810712
_cell_angle_beta   90.155581
_cell_angle_gamma 89.94036
loop_
_atom_site_label
_atom_site_type_symbol
_atom_site_fract_x
_atom_site_fract_y
_atom_site_fract_z
_atom_type_partial_charge
P0 P 0.23876 0.16518 0.2067 0.0
H1 H 0.35695 0.11669 0.24746 0.0
H2 H 0.44005 0.07248 0.2 0.0
H3 H 0.33298 0.07964 0.03527 0.0
H4 H 0.2479 0.12461 0.08445 0.0
H5 H 0.12434 0.21937 0.23475 0.0
H6 H 0.06416 0.31046 0.1818 0.0
H7 H 0.18185 0.33709 1.02288 0.0
H8 H 0.24198 0.2431 0.07642 0.0
H9 H 0.27796 0.10496 0.33239 0.0
H10 H 0.11725 0.10184 0.22322 0.0
O11 O 0.27806 0.21525 0.24043 0.0
H12 H 0.22397 0.0523 0.42568 0.0
H13 H 0.06141 0.05125 0.3179 0.0
C14 C 0.29613 0.12525 0.1695 0.0
C15 C 0.35068 0.10867 0.20123 0.0
C16 C 0.39875 0.08333 0.17361 0.0
C17 C 0.39413 0.07303 0.11311 0.0
C18 C 0.33862 0.08767 0.08157 0.0
C19 C 0.28985 0.11329 0.10972 0.0
C20 C 0.186 0.22078 0.15856 0.0
C21 C 0.1356 0.24161 0.18715 0.0
C22 C 0.10151 0.29519 0.15697 0.0
C23 C 0.11784 0.33129 0.09781 0.0
C24 C 0.16739 0.3098 0.06806 0.0
C25 C 0.20155 0.25543 0.0985 0.0
C26 C 0.2015 0.10937 0.27076 0.0
C27 C 0.23116 0.092 0.32819 0.0
C28 C 0.19984 0.06201 0.3819 0.0
C29 C 0.13763 0.04902 0.37984 0.0
C30 C 0.10895 0.06158 0.32144 0.0
C31 C 0.14096 0.09044 0.26719 0.0
P32 P 0.52426 0.90888 0.59443 0.0
H33 H 0.59173 -0.00256 0.65449 0.0
H34 H 0.56939 0.03037 0.75152 0.0
H35 H 0.44899 0.86685 0.80481 0.0
H36 H 0.47183 0.83339 0.71008 0.0
H37 H 0.61286 0.83758 0.53731 0.0
H38 H 0.6164 0.72594 0.52289 0.0
H39 H 0.44539 0.68572 0.61703 0.0
H40 H 0.44145 0.79663 0.62999 0.0
H41 H 0.47317 0.03105 0.61234 0.0
H42 H 0.41392 0.87281 0.533 0.0
O43 O 0.57696 0.95366 0.55088 0.0
H44 H 0.36893 0.06006 0.62648 0.0
H45 H 0.30987 0.89947 0.54948 0.0
C46 C 0.53343 0.91282 0.67437 0.0
C47 C 0.56272 0.96687 0.68831 0.0
C48 C 0.54916 0.98643 0.74311 0.0
C49 C 0.50566 0.95251 0.78395 0.0
C50 C 0.48102 0.89509 0.77277 0.0
C51 C 0.49514 0.87519 0.71876 0.0
C52 C 0.52706 0.82593 0.58493 0.0
C53 C 0.57612 0.80478 0.5548 0.0
C54 C 0.57804 0.74092 0.5465 0.0
C55 C 0.53103 0.69702 0.5687 0.0
C56 C 0.48238 0.71819 0.59945 0.0
C57 C 0.48047 0.78186 0.60746 0.0
C58 C 0.45145 0.94658 0.57604 0.0
C59 C 0.43779 0.00259 0.59761 0.0
C60 C 0.378 0.01872 0.60652 0.0
C61 C 0.3309 0.97993 0.59249 0.0
C62 C 0.34484 0.92941 0.56269 0.0
C63 C 0.40473 0.91359 0.55364 0.0
P64 P 0.74294 0.33831 0.87733 0.0
H65 H 0.85183 0.40772 0.83393 0.0
H66 H 0.9319 0.45596 0.88275 0.0
H67 H 0.83424 0.41407 0.05592 0.0
H68 H 0.75158 0.36745 1.00496 0.0
H69 H 0.62831 0.28413 0.84772 0.0
H70 H 0.5678 0.19273 0.89997 0.0
H71 H 0.68696 0.16305 0.05856 0.0
H72 H 0.74805 0.25555 1.00545 0.0
H73 H 0.77751 0.39308 0.74844 0.0
H74 H 0.62347 0.40424 0.86392 0.0
O75 O 0.78651 0.29077 0.8448 0.0
H76 H 0.72076 0.44847 0.65695 0.0
H77 H 0.56523 0.45761 0.77164 0.0
C78 C 0.79598 0.38228 0.91574 0.0
C79 C 0.84686 0.40933 0.88223 0.0
C80 C 0.89324 0.43661 0.91069 0.0
C81 C 0.89072 0.43758 0.97408 0.0
C82 C 0.8383 0.41324 1.00737 0.0
C83 C 0.79105 0.38624 0.97825 0.0
C84 C 0.69095 0.28058 0.9239 0.0
C85 C 0.64008 0.26072 0.89498 0.0
C86 C 0.6057 0.2072 0.92472 0.0
C87 C 0.62191 0.17072 0.98389 0.0
C88 C 0.67235 0.19085 1.01351 0.0
C89 C 0.70704 0.24458 0.98338 0.0
C90 C 0.7044 0.39274 0.81307 0.0
C91 C 0.73165 0.40818 0.75437 0.0
C92 C 0.69897 0.43988 0.70182 0.0
C93 C 0.63793 0.45629 0.70663 0.0
C94 C 0.61186 0.44474 0.76612 0.0
C95 C 0.6452 0.41436 0.819 0.0
P96 P 0.97016 0.72039 0.41174 0.0
H97 H 0.09668 0.74428 0.43091 0.0
H98 H 0.1337 0.82039 0.49059 0.0
H99 H 0.9704 0.79403 0.5983 0.0
H100 H 0.93259 0.72099 0.53807 0.0
H101 H 0.9965 0.74327 0.28123 0.0
H102 H 0.99485 0.66822 0.21441 0.0
H103 H 1.00633 0.50578 0.37397 0.0
H104 H 1.00588 0.58301 0.44183 0.0
H105 H 0.85956 0.74415 0.34094 0.0
H106 H 0.92181 0.61718 0.51133 0.0
O107 O 0.96326 0.79603 0.36823 0.0
H108 H 0.76425 0.68403 0.34977 0.0
H109 H 0.82501 0.55968 0.52161 0.0
C110 C 1.01151 0.72763 0.47919 0.0
C111 C 0.07082 0.75084 0.47052 0.0
C112 C 0.09216 0.79424 0.50483 0.0
C113 C 0.05394 0.81364 0.54765 0.0
C114 C 1.00035 0.77953 0.56517 0.0
C115 C 0.97872 0.7372 0.53045 0.0
C116 C 1.00172 0.6688 0.36643 0.0
C117 C 1.00131 0.69178 0.3021 0.0
C118 C 0.99985 0.64824 0.26368 0.0
C119 C 0.99951 0.58054 0.28877 0.0
C120 C 1.0052 0.55753 0.35332 0.0
C121 C 1.00645 0.60161 0.392 0.0
C122 C 0.8964 0.68705 0.42712 0.0
C123 C 0.85187 0.70505 0.38137 0.0
C124 C 0.7981 0.67038 0.38577 0.0
C125 C 0.78828 0.61798 0.43632 0.0
C126 C 0.83217 0.60066 0.48274 0.0
C127 C 0.88671 0.63406 0.47736 0.0
P128 P 0.89418 0.89952 0.91618 0.0
H129 H 0.84922 0.90685 0.03751 0.0
H130 H 0.75094 0.92366 0.07938 0.0
H131 H 0.67035 0.93415 0.89957 0.0
H132 H 0.76994 0.91649 0.85761 0.0
H133 H 0.96816 0.81677 0.85363 0.0
H134 H 1.01138 0.70869 0.88885 0.0
H135 H 0.9199 0.6873 0.06441 0.0
H136 H 0.87624 0.79576 1.02878 0.0
H137 H 0.99768 0.97734 0.86201 0.0
H138 H 0.844 0.89095 0.79204 0.0
O139 O 0.93836 0.93666 0.95866 0.0
H140 H 0.04097 0.00475 0.75881 0.0
H141 H 0.88656 0.92161 0.68676 0.0
C142 C 0.81798 0.91089 0.94388 0.0
C143 C 0.81061 0.9123 1.00671 0.0
C144 C 0.75388 0.92169 1.03099 0.0
C145 C 0.70211 0.93025 0.99323 0.0
C146 C 0.70903 0.92753 0.93034 0.0
C147 C 0.76629 0.91765 0.90601 0.0
C148 C 0.91741 0.81471 0.93781 0.0
C149 C 0.95606 0.78883 0.89924 0.0
C150 C 0.98146 0.72678 0.91974 0.0
C151 C 0.9695 0.6893 0.97967 0.0
C152 C 0.93022 0.71483 1.018 0.0
C153 C 0.90466 0.77691 0.99733 0.0
C154 C 0.91599 0.93381 0.83555 0.0
C155 C 0.97181 0.9661 0.82429 0.0
C156 C 0.99724 0.98129 0.76489 0.0
C157 C 0.96747 0.96544 0.71426 0.0
C158 C 0.91051 0.93512 0.72464 0.0
C159 C 0.88557 0.91838 0.78488 0.0
P160 P 0.6088 0.19493 0.41053 0.0
H161 H 0.67107 0.24086 0.50794 0.0
H162 H 0.64292 0.32385 0.56129 0.0
H163 H 0.46019 0.32003 0.49522 0.0
H164 H 0.48817 0.23302 0.44298 0.0
H165 H 0.7052 0.18128 0.32661 0.0
H166 H 0.79766 0.11607 0.34085 0.0
H167 H 0.76491 0.06067 0.53784 0.0
H168 H 0.67099 0.12355 0.52337 0.0
H169 H 0.52628 0.19439 0.30758 0.0
H170 H 0.6011 0.05399 0.46214 0.0
O171 O 0.61365 0.25753 0.34899 0.0
H172 H 0.53035 0.11383 0.24456 0.0
H173 H 0.60862 0.97419 0.39761 0.0
C174 C 0.58143 0.22898 0.47254 0.0
C175 C 0.62385 0.25343 0.5084 0.0
C176 C 0.60788 0.30193 0.53852 0.0
C177 C 0.54964 0.32833 0.53189 0.0
C178 C 0.5052 0.29952 0.50167 0.0
C179 C 0.52122 0.2499 0.47184 0.0
C180 C 0.68292 0.1601 0.42435 0.0
C181 C 0.7187 0.15659 0.37311 0.0
C182 C 0.77076 0.11848 0.38102 0.0
C183 C 0.78791 0.08375 0.44039 0.0
C184 C 0.75262 0.0879 0.49181 0.0
C185 C 0.69975 0.12475 0.48368 0.0
C186 C 0.56637 0.13114 0.38852 0.0
C187 C 0.54029 0.14519 0.3293 0.0
C188 C 0.54308 0.09917 0.29302 0.0
C189 C 0.57154 0.03884 0.31605 0.0
C190 C 0.58737 0.02087 0.37888 0.0
C191 C 0.58249 0.06637 0.41577 0.0
P192 P 0.38585 0.61227 0.18197 0.0
H193 H 0.34733 0.6064 0.05761 0.0
H194 H 0.25174 0.58396 1.01201 0.0
H195 H 0.16462 0.56847 0.18907 0.0
H196 H 0.2612 0.59144 0.23457 0.0
H197 H 0.47351 0.68643 0.23812 0.0
H198 H 0.52021 0.79297 0.20166 0.0
H199 H 0.4081 0.82715 0.03748 0.0
H200 H 0.36048 0.72125 0.07483 0.0
H201 H 0.46348 0.50848 0.25122 0.0
H202 H 0.33915 0.64831 0.29616 0.0
O203 O 0.43326 0.57174 0.14586 0.0
H204 H 0.50085 0.48317 0.35717 0.0
H205 H 0.37565 0.62048 0.40477 0.0
C206 C 0.31195 0.60038 0.14982 0.0
C207 C 0.30764 0.59878 0.08675 0.0
C208 C 0.25267 0.58596 0.06047 0.0
C209 C 0.20013 0.57411 0.09659 0.0
C210 C 0.20409 0.57731 0.15964 0.0
C211 C 0.25941 0.59045 0.18593 0.0
C212 C 0.41188 0.69596 0.1603 0.0
C213 C 0.45755 0.71735 0.1951 0.0
C214 C 0.48491 0.77825 0.17383 0.0
C215 C 0.46829 0.81855 0.11641 0.0
C216 C 0.4223 0.79725 0.08178 0.0
C217 C 0.39449 0.73665 0.10348 0.0
C218 C 0.39807 0.58039 0.26498 0.0
C219 C 0.44262 0.53253 0.2841 0.0
C220 C 0.46437 0.51808 0.34504 0.0
C221 C 0.44146 0.55 0.38925 0.0
C222 C 0.39383 0.59474 0.37175 0.0
C223 C 0.37273 0.61036 0.30978 0.0
P224 P 0.09366 0.31822 0.67013 0.0
H225 H 0.16015 0.28812 0.5663 0.0
H226 H 0.13925 0.20391 0.51262 0.0
H227 H 0.95602 0.19203 0.57883 0.0
H228 H 0.97628 0.28024 0.63146 0.0
H229 H 0.18942 0.30916 0.76165 0.0
H230 H 0.28768 0.36276 0.75841 0.0
H231 H 0.25965 0.45297 0.56486 0.0
H232 H 0.16099 0.40104 0.56849 0.0
H233 H 1.00439 0.31596 0.76718 0.0
H234 H 0.08829 0.46087 0.62321 0.0
O235 O 0.09223 0.25204 0.72843 0.0
H236 H 1.00466 0.39122 0.83472 0.0
H237 H 0.09444 0.53486 0.69259 0.0
C238 C 0.06963 0.29127 0.603 0.0
C239 C 0.11398 0.2722 0.56567 0.0
C240 C 0.10225 0.22297 0.53515 0.0
C241 C 0.04666 0.19099 0.54306 0.0
C242 C 0.99926 0.21651 0.57208 0.0
C243 C 1.01086 0.2669 0.60213 0.0
C244 C 0.16938 0.34859 0.66447 0.0
C245 C 0.20504 0.33926 0.71815 0.0
C246 C 0.26056 0.37049 0.7166 0.0
C247 C 0.28093 0.41122 0.66126 0.0
C248 C 0.24513 0.42063 0.60765 0.0
C249 C 0.18925 0.39043 0.60955 0.0
C250 C 0.05065 0.38118 0.69217 0.0
C251 C 1.0212 0.36488 0.74928 0.0
C252 C 1.02316 0.40768 0.78872 0.0
C253 C 0.05493 0.46693 0.7712 0.0
C254 C 0.0724 0.48837 0.70889 0.0
C255 C 0.06844 0.44602 0.66884 0.0
Co256 Co 1.00616 0.00741 0.52194 0.0
C257 C 0.05486 0.88174 0.55125 0.0
Co258 Co 0.09414 -0.00306 0.56881 0.0
C259 C 0.8845 0.04493 0.4918 0.0
C260 C 0.91968 0.98676 0.43222 0.0
N261 N 0.93321 0.01035 0.4824 0.0
N262 N 0.84168 0.04519 0.44865 0.0
C263 C 0.8633 0.00864 0.41099 0.0
H264 H 0.88208 0.07293 0.52713 0.0
H265 H 0.95003 0.95829 0.41072 0.0
C266 C 0.04575 0.12273 0.53951 0.0
N267 N 0.16893 -0.00453 0.60514 0.0
C268 C 0.21939 0.97383 0.58265 0.0
C269 C 0.18808 0.02576 0.64908 0.0
N270 N 0.26964 0.99091 0.60916 0.0
C271 C 0.25017 0.02296 0.65174 0.0
C272 C 0.1036 0.02737 0.4392 0.0
O273 O 1.00054 0.0977 0.51892 0.0
O274 O 0.08973 0.08691 0.56301 0.0
O275 O 0.13237 0.01403 0.48998 0.0
O276 O 0.04628 0.02721 0.44129 0.0
O277 O 0.09914 0.90624 0.57402 0.0
H278 H 0.1591 0.05131 0.67489 0.0
H279 H 0.21924 0.94962 0.5445 0.0
O280 O 1.01171 0.91785 0.52575 0.0
O281 O 0.96656 0.9879 0.60217 0.0
O282 O 0.05484 0.98079 0.64833 0.0
C283 C 0.99744 0.97852 0.65213 0.0
H284 H 0.84072 0.00011 0.37014 0.0
H285 H 0.27859 0.04422 0.68167 0.0
Co286 Co 0.52226 -0.00101 1.00691 0.0
C287 C 0.4984 0.88241 0.09269 0.0
Co288 Co 0.56661 0.99179 0.09714 0.0
C289 C 0.52107 -0.00474 0.87824 0.0
C290 C 0.43268 0.98506 0.91809 0.0
N291 N 0.49023 -0.00077 0.92979 0.0
N292 N 0.48562 0.97634 0.83624 0.0
C293 C 0.42977 0.97073 0.86062 0.0
H294 H 0.56953 -0.00023 0.87383 0.0
H295 H 0.39636 0.97935 0.9514 0.0
C296 C 0.59017 0.10847 1.01083 0.0
N297 N 0.59682 0.9893 0.17581 0.0
C298 C 0.56284 0.98972 0.22627 0.0
C299 C 0.65354 8e-05 0.19292 0.0
N300 N 0.59508 0.00374 0.27299 0.0
C301 C 0.6525 0.00926 0.25264 0.0
C302 C 0.64297 0.94733 1.01852 0.0
O303 O 0.55496 0.08367 0.97693 0.0
O304 O 0.60111 0.0768 0.06609 0.0
O305 O 0.63903 0.95378 0.07417 0.0
O306 O 0.59706 0.96171 0.98337 0.0
O307 O 0.53234 0.90713 0.1276 0.0
H308 H 0.6919 0.00753 0.16204 0.0
H309 H 0.51419 0.98674 0.22694 0.0
O310 O 0.48938 0.91402 0.0373 0.0
O311 O 0.44823 0.03694 1.03094 0.0
O312 O 0.49444 0.03101 0.11893 0.0
C313 C 0.44761 0.04617 0.08576 0.0
H314 H 0.39057 0.95313 0.8402 0.0
H315 H 0.68961 0.02719 0.27596 0.0
Co316 Co 0.57821 0.52278 0.52427 0.0
C317 C 0.47293 0.54046 0.45017 0.0
Co318 Co 0.49458 0.50084 0.57655 0.0
C319 C 0.69478 0.57219 0.48812 0.0
C320 C 0.65462 0.52845 0.41935 0.0
N321 N 0.64555 0.53996 0.47624 0.0
N322 N 0.73361 0.5821 0.44058 0.0
C323 C 0.7089 0.55513 0.39691 0.0
H324 H 0.70094 0.5905 0.52964 0.0
H325 H 0.62308 0.50387 0.39513 0.0
C326 C 0.60119 0.48077 0.64949 0.0
N327 N 0.42727 0.48332 0.62472 0.0
C328 C 0.37763 0.45215 0.61223 0.0
C329 C 0.41801 0.4948 0.68153 0.0
N330 N 0.33791 0.44316 0.65914 0.0
C331 C 0.36289 0.46966 0.70309 0.0
C332 C 0.5421 0.39465 0.54089 0.0
O333 O 0.62669 0.50195 0.59751 0.0
O334 O 0.54397 0.47631 0.65078 0.0
O335 O 0.49647 0.41214 0.56762 0.0
O336 O 0.58245 0.43598 0.51919 0.0
O337 O 0.4452 0.52514 0.50171 0.0
H338 H 0.44966 0.51901 0.70599 0.0
H339 H 0.37146 0.43469 0.57025 0.0
O340 O 0.53008 0.54232 0.45073 0.0
O341 O 0.57479 0.61094 0.52978 0.0
O342 O 0.49278 0.58855 0.58526 0.0
C343 C 0.5328 0.62935 0.56061 0.0
H344 H 0.7285 0.55538 0.3521 0.0
H345 H 0.34259 0.47099 0.74722 0.0
Co346 Co 0.06513 0.51511 0.99161 0.0
C347 C 0.94393 0.4631 1.00304 0.0
Co348 Co 1.02059 0.50378 0.08159 0.0
C349 C 0.07514 0.47632 0.87939 0.0
C350 C 0.1039 0.57511 0.86738 0.0
N351 N 0.09032 0.5212 0.91118 0.0
N352 N 0.07473 0.50062 0.81756 0.0
C353 C 0.09445 0.56252 0.80959 0.0
H354 H 0.0599 0.42805 0.90197 0.0
H355 H 0.11389 0.62224 0.87666 0.0
C356 C 0.14274 0.55471 0.06973 0.0
N357 N 0.99474 0.50035 0.16092 0.0
C358 C 1.00517 0.55051 0.18752 0.0
C359 C 0.97353 0.45224 0.20693 0.0
N360 N 0.99219 0.53651 0.24826 0.0
C361 C 0.9718 0.47455 0.26111 0.0
C362 C 0.08747 0.39479 0.07207 0.0
O363 O 0.13952 0.5499 1.01353 0.0
O364 O 0.09684 0.53865 0.10412 0.0
O365 O 0.0531 0.41883 0.10699 0.0
O366 O 0.09881 0.42835 1.01771 0.0
O367 O 0.94525 0.46811 0.0593 0.0
H368 H 0.96251 0.40366 0.20203 0.0
H369 H 1.02543 0.59568 0.16299 0.0
O370 O 0.99036 0.48024 0.96994 0.0
O371 O 0.032 0.60084 0.96631 0.0
O372 O 0.98709 0.58973 0.05556 0.0
C373 C 0.99768 0.62402 1.00166 0.0
H374 H 0.09796 0.59759 0.76566 0.0
H375 H 0.95731 0.4472 0.3062 0.0
loop_
_geom_bond_atom_site_label_1
_geom_bond_atom_site_label_2
_geom_bond_distance
_geom_bond_site_symmetry_2
_ccdc_geom_bond_type
P0 O11 1.490 . S
P0 C14 1.812 . S
P0 C20 1.803 . S
P0 C26 1.819 . S
H1 C15 0.941 . S
H2 C16 0.939 . S
H3 C18 0.940 . S
H4 C19 0.940 . S
H5 C21 0.939 . S
H6 C22 0.942 . S
H7 C24 0.940 . S
H8 C25 0.939 . S
H9 C27 0.941 . S
H10 C31 0.939 . S
O11 P0 1.490 . S
H12 C28 0.939 . S
H13 C30 0.940 . S
C14 P0 1.812 . S
C14 C15 1.389 . S
C14 C19 1.391 . S
C15 H1 0.941 . S
C15 C14 1.389 . S
C15 C16 1.397 . S
C16 H2 0.939 . S
C16 C15 1.397 . S
C16 C17 1.378 . S
C17 C16 1.378 . S
C17 C18 1.378 . S
C18 H3 0.940 . S
C18 C17 1.378 . S
C18 C19 1.396 . S
C19 H4 0.940 . S
C19 C14 1.391 . S
C19 C18 1.396 . S
C20 P0 1.803 . S
C20 C21 1.378 . S
C20 C25 1.400 . S
C21 H5 0.939 . S
C21 C20 1.378 . S
C21 C22 1.361 . S
C22 H6 0.942 . S
C22 C21 1.361 . S
C22 C23 1.369 . S
C23 C22 1.369 . S
C23 C24 1.404 . S
C24 H7 0.940 . S
C24 C23 1.404 . S
C24 C25 1.389 . S
C25 H8 0.939 . S
C25 C20 1.400 . S
C25 C24 1.389 . S
C26 P0 1.819 . S
C26 C27 1.391 . S
C26 C31 1.391 . S
C27 H9 0.941 . S
C27 C26 1.391 . S
C27 C28 1.396 . S
C28 H12 0.939 . S
C28 C27 1.396 . S
C28 C29 1.397 . S
C29 C28 1.397 . S
C29 C30 1.385 . S
C30 H13 0.940 . S
C30 C29 1.385 . S
C30 C31 1.388 . S
C31 H10 0.939 . S
C31 C26 1.391 . S
C31 C30 1.388 . S
P32 O43 1.490 . S
P32 C46 1.812 . S
P32 C52 1.803 . S
P32 C58 1.819 . S
H33 C47 0.941 . S
H34 C48 0.939 . S
H35 C50 0.940 . S
H36 C51 0.940 . S
H37 C53 0.939 . S
H38 C54 0.942 . S
H39 C56 0.940 . S
H40 C57 0.939 . S
H41 C59 0.941 1_545 S
H42 C63 0.939 . S
O43 P32 1.490 . S
H44 C60 0.939 1_545 S
H45 C62 0.940 . S
C46 P32 1.812 . S
C46 C47 1.389 . S
C46 C51 1.391 . S
C47 H33 0.941 . S
C47 C46 1.389 . S
C47 C48 1.397 . S
C48 H34 0.939 . S
C48 C47 1.397 . S
C48 C49 1.378 . S
C49 C48 1.378 . S
C49 C50 1.378 . S
C50 H35 0.940 . S
C50 C49 1.378 . S
C50 C51 1.396 . S
C51 H36 0.940 . S
C51 C46 1.391 . S
C51 C50 1.396 . S
C52 P32 1.803 . S
C52 C53 1.378 . S
C52 C57 1.400 . S
C53 H37 0.939 . S
C53 C52 1.378 . S
C53 C54 1.361 . S
C54 H38 0.942 . S
C54 C53 1.361 . S
C54 C55 1.369 . S
C55 C54 1.369 . S
C55 C56 1.404 . S
C56 H39 0.940 . S
C56 C55 1.404 . S
C56 C57 1.389 . S
C57 H40 0.939 . S
C57 C52 1.400 . S
C57 C56 1.389 . S
C58 P32 1.819 . S
C58 C59 1.391 . S
C58 C63 1.391 . S
C59 H41 0.941 1_565 S
C59 C58 1.391 . S
C59 C60 1.396 . S
C60 H44 0.939 1_565 S
C60 C59 1.396 . S
C60 C61 1.397 . S
C61 C60 1.397 . S
C61 C62 1.385 . S
C62 H45 0.940 . S
C62 C61 1.385 . S
C62 C63 1.388 . S
C63 H42 0.939 . S
C63 C58 1.391 . S
C63 C62 1.388 . S
P64 O75 1.490 . S
P64 C78 1.812 . S
P64 C84 1.803 . S
P64 C90 1.819 . S
H65 C79 0.941 . S
H66 C80 0.939 . S
H67 C82 0.940 . S
H68 C83 0.940 . S
H69 C85 0.939 . S
H70 C86 0.942 . S
H71 C88 0.940 1_554 S
H72 C89 0.939 . S
H73 C91 0.941 . S
H74 C95 0.939 . S
O75 P64 1.490 . S
H76 C92 0.939 . S
H77 C94 0.940 . S
C78 P64 1.812 . S
C78 C79 1.389 . S
C78 C83 1.391 . S
C79 H65 0.941 . S
C79 C78 1.389 . S
C79 C80 1.397 . S
C80 H66 0.939 . S
C80 C79 1.397 . S
C80 C81 1.378 . S
C81 C80 1.378 . S
C81 C82 1.378 . S
C82 H67 0.940 . S
C82 C81 1.378 . S
C82 C83 1.396 . S
C83 H68 0.940 . S
C83 C78 1.391 . S
C83 C82 1.396 . S
C84 P64 1.803 . S
C84 C85 1.378 . S
C84 C89 1.400 . S
C85 H69 0.939 . S
C85 C84 1.378 . S
C85 C86 1.361 . S
C86 H70 0.942 . S
C86 C85 1.361 . S
C86 C87 1.369 . S
C87 C86 1.369 . S
C87 C88 1.404 . S
C88 H71 0.940 1_556 S
C88 C87 1.404 . S
C88 C89 1.389 . S
C89 H72 0.939 . S
C89 C84 1.400 . S
C89 C88 1.389 . S
C90 P64 1.819 . S
C90 C91 1.391 . S
C90 C95 1.391 . S
C91 H73 0.941 . S
C91 C90 1.391 . S
C91 C92 1.396 . S
C92 H76 0.939 . S
C92 C91 1.396 . S
C92 C93 1.397 . S
C93 C92 1.397 . S
C93 C94 1.385 . S
C94 H77 0.940 . S
C94 C93 1.385 . S
C94 C95 1.388 . S
C95 H74 0.939 . S
C95 C90 1.391 . S
C95 C94 1.388 . S
P96 O107 1.490 . S
P96 C110 1.812 . S
P96 C116 1.803 . S
P96 C122 1.819 . S
H97 C111 0.941 . S
H98 C112 0.939 . S
H99 C114 0.940 . S
H100 C115 0.940 . S
H101 C117 0.939 . S
H102 C118 0.942 . S
H103 C120 0.940 . S
H104 C121 0.939 . S
H105 C123 0.941 . S
H106 C127 0.939 . S
O107 P96 1.490 . S
H108 C124 0.939 . S
H109 C126 0.940 . S
C110 P96 1.812 . S
C110 C111 1.389 . S
C110 C115 1.391 . S
C111 H97 0.941 . S
C111 C110 1.389 . S
C111 C112 1.397 . S
C112 H98 0.939 . S
C112 C111 1.397 . S
C112 C113 1.378 . S
C113 C112 1.378 . S
C113 C114 1.378 . S
C114 H99 0.940 . S
C114 C113 1.378 . S
C114 C115 1.396 . S
C115 H100 0.940 . S
C115 C110 1.391 . S
C115 C114 1.396 . S
C116 P96 1.803 . S
C116 C117 1.378 . S
C116 C121 1.400 . S
C117 H101 0.939 . S
C117 C116 1.378 . S
C117 C118 1.361 . S
C118 H102 0.942 . S
C118 C117 1.361 . S
C118 C119 1.369 . S
C119 C118 1.369 . S
C119 C120 1.404 1_655 S
C120 H103 0.940 . S
C120 C119 1.404 1_455 S
C120 C121 1.389 1_455 S
C121 H104 0.939 . S
C121 C116 1.400 . S
C121 C120 1.389 1_655 S
C122 P96 1.819 . S
C122 C123 1.391 . S
C122 C127 1.391 . S
C123 H105 0.941 . S
C123 C122 1.391 . S
C123 C124 1.396 . S
C124 H108 0.939 . S
C124 C123 1.396 . S
C124 C125 1.397 . S
C125 C124 1.397 . S
C125 C126 1.385 . S
C126 H109 0.940 . S
C126 C125 1.385 . S
C126 C127 1.388 . S
C127 H106 0.939 . S
C127 C122 1.391 . S
C127 C126 1.388 . S
P128 O139 1.490 . S
P128 C142 1.812 . S
P128 C148 1.803 . S
P128 C154 1.819 . S
H129 C143 0.941 . S
H130 C144 0.934 1_545 S
H131 C146 0.940 . S
H132 C147 0.940 . S
H133 C149 0.939 1_455 S
H134 C150 0.956 1_554 S
H135 C152 0.940 . S
H136 C153 0.939 . S
H137 C155 0.941 . S
H138 C159 0.939 . S
O139 P128 1.490 . S
H140 C156 0.939 . S
H141 C158 0.940 . S
C142 P128 1.812 . S
C142 C143 1.389 1_556 S
C142 C147 1.391 . S
C143 H129 0.941 . S
C143 C142 1.389 1_554 S
C143 C144 1.397 . S
C144 H130 0.934 1_565 S
C144 C143 1.397 . S
C144 C145 1.378 1_554 S
C145 C144 1.378 1_556 S
C145 C146 1.378 . S
C146 H131 0.940 . S
C146 C145 1.378 . S
C146 C147 1.396 . S
C147 H132 0.940 . S
C147 C142 1.391 . S
C147 C146 1.396 . S
C148 P128 1.803 . S
C148 C149 1.378 . S
C148 C153 1.400 . S
C149 H133 0.939 1_655 S
C149 C148 1.378 . S
C149 C150 1.357 1_655 S
C150 H134 0.956 1_556 S
C150 C149 1.357 1_455 S
C150 C151 1.359 1_455 S
C151 C150 1.359 1_655 S
C151 C152 1.404 . S
C152 H135 0.940 . S
C152 C151 1.404 . S
C152 C153 1.389 . S
C153 H136 0.939 . S
C153 C148 1.400 . S
C153 C152 1.389 . S
C154 P128 1.819 . S
C154 C155 1.391 1_565 S
C154 C159 1.391 . S
C155 H137 0.941 . S
C155 C154 1.391 1_545 S
C155 C156 1.396 . S
C156 H140 0.939 . S
C156 C155 1.396 . S
C156 C157 1.397 1_545 S
C157 C156 1.397 1_565 S
C157 C158 1.385 . S
C158 H141 0.940 . S
C158 C157 1.385 . S
C158 C159 1.388 . S
C159 H138 0.939 . S
C159 C154 1.391 . S
C159 C158 1.388 . S
P160 O171 1.490 . S
P160 C174 1.812 . S
P160 C180 1.803 . S
P160 C186 1.819 . S
H161 C175 0.941 . S
H162 C176 0.939 . S
H163 C178 0.940 . S
H164 C179 0.940 . S
H165 C181 0.939 . S
H166 C182 0.942 . S
H167 C184 0.940 . S
H168 C185 0.939 . S
H169 C187 0.941 . S
H170 C191 0.939 . S
O171 P160 1.490 . S
H172 C188 0.939 . S
H173 C190 0.940 . S
C174 P160 1.812 . S
C174 C175 1.389 . S
C174 C179 1.391 . S
C175 H161 0.941 . S
C175 C174 1.389 . S
C175 C176 1.397 . S
C176 H162 0.939 . S
C176 C175 1.397 . S
C176 C177 1.378 . S
C177 C176 1.378 . S
C177 C178 1.378 . S
C178 H163 0.940 . S
C178 C177 1.378 . S
C178 C179 1.396 . S
C179 H164 0.940 . S
C179 C174 1.391 . S
C179 C178 1.396 . S
C180 P160 1.803 . S
C180 C181 1.378 . S
C180 C185 1.400 . S
C181 H165 0.939 . S
C181 C180 1.378 . S
C181 C182 1.361 . S
C182 H166 0.942 . S
C182 C181 1.361 . S
C182 C183 1.369 . S
C183 C182 1.369 . S
C183 C184 1.404 . S
C184 H167 0.940 . S
C184 C183 1.404 . S
C184 C185 1.389 . S
C185 H168 0.939 . S
C185 C180 1.400 . S
C185 C184 1.389 . S
C186 P160 1.819 . S
C186 C187 1.391 . S
C186 C191 1.391 . S
C187 H169 0.941 . S
C187 C186 1.391 . S
C187 C188 1.396 . S
C188 H172 0.939 . S
C188 C187 1.396 . S
C188 C189 1.397 . S
C189 C188 1.397 . S
C189 C190 1.385 . S
C190 H173 0.940 . S
C190 C189 1.385 . S
C190 C191 1.388 . S
C191 H170 0.939 . S
C191 C186 1.391 . S
C191 C190 1.388 . S
P192 O203 1.490 . S
P192 C206 1.812 . S
P192 C212 1.803 . S
P192 C218 1.819 . S
H193 C207 0.941 . S
H194 C208 0.939 1_556 S
H195 C210 0.940 . S
H196 C211 0.940 . S
H197 C213 0.939 . S
H198 C214 0.942 . S
H199 C216 0.940 . S
H200 C217 0.939 . S
H201 C219 0.941 . S
H202 C223 0.939 . S
O203 P192 1.490 . S
H204 C220 0.939 . S
H205 C222 0.940 . S
C206 P192 1.812 . S
C206 C207 1.389 . S
C206 C211 1.391 . S
C207 H193 0.941 . S
C207 C206 1.389 . S
C207 C208 1.397 . S
C208 H194 0.939 1_554 S
C208 C207 1.397 . S
C208 C209 1.378 . S
C209 C208 1.378 . S
C209 C210 1.378 . S
C210 H195 0.940 . S
C210 C209 1.378 . S
C210 C211 1.396 . S
C211 H196 0.940 . S
C211 C206 1.391 . S
C211 C210 1.396 . S
C212 P192 1.803 . S
C212 C213 1.378 . S
C212 C217 1.400 . S
C213 H197 0.939 . S
C213 C212 1.378 . S
C213 C214 1.361 . S
C214 H198 0.942 . S
C214 C213 1.361 . S
C214 C215 1.369 . S
C215 C214 1.369 . S
C215 C216 1.404 . S
C216 H199 0.940 . S
C216 C215 1.404 . S
C216 C217 1.389 . S
C217 H200 0.939 . S
C217 C212 1.400 . S
C217 C216 1.389 . S
C218 P192 1.819 . S
C218 C219 1.391 . S
C218 C223 1.391 . S
C219 H201 0.941 . S
C219 C218 1.391 . S
C219 C220 1.396 . S
C220 H204 0.939 . S
C220 C219 1.396 . S
C220 C221 1.397 . S
C221 C220 1.397 . S
C221 C222 1.385 . S
C222 H205 0.940 . S
C222 C221 1.385 . S
C222 C223 1.388 . S
C223 H202 0.939 . S
C223 C218 1.391 . S
C223 C222 1.388 . S
P224 O235 1.490 . S
P224 C238 1.812 . S
P224 C244 1.803 . S
P224 C250 1.819 . S
H225 C239 0.941 . S
H226 C240 0.939 . S
H227 C242 0.940 . S
H228 C243 0.940 . S
H229 C245 0.939 . S
H230 C246 0.942 . S
H231 C248 0.940 . S
H232 C249 0.939 . S
H233 C251 0.941 . S
H234 C255 0.939 . S
O235 P224 1.490 . S
H236 C252 0.939 . S
H237 C254 0.940 . S
C238 P224 1.812 . S
C238 C239 1.389 . S
C238 C243 1.391 . S
C239 H225 0.941 . S
C239 C238 1.389 . S
C239 C240 1.397 . S
C240 H226 0.939 . S
C240 C239 1.397 . S
C240 C241 1.378 . S
C241 C240 1.378 . S
C241 C242 1.378 1_455 S
C242 H227 0.940 . S
C242 C241 1.378 1_655 S
C242 C243 1.396 1_655 S
C243 H228 0.940 . S
C243 C238 1.391 . S
C243 C242 1.396 1_455 S
C244 P224 1.803 . S
C244 C245 1.378 . S
C244 C249 1.400 . S
C245 H229 0.939 . S
C245 C244 1.378 . S
C245 C246 1.361 . S
C246 H230 0.942 . S
C246 C245 1.361 . S
C246 C247 1.369 . S
C247 C246 1.369 . S
C247 C248 1.404 . S
C248 H231 0.940 . S
C248 C247 1.404 . S
C248 C249 1.389 . S
C249 H232 0.939 . S
C249 C244 1.400 . S
C249 C248 1.389 . S
C250 P224 1.819 . S
C250 C251 1.391 . S
C250 C255 1.391 . S
C251 H233 0.941 . S
C251 C250 1.391 . S
C251 C252 1.396 . S
C252 H236 0.939 . S
C252 C251 1.396 . S
C252 C253 1.397 . S
C253 C252 1.397 . S
C253 C254 1.385 . S
C254 H237 0.940 . S
C254 C253 1.385 . S
C254 C255 1.388 . S
C255 H234 0.939 . S
C255 C250 1.391 . S
C255 C254 1.388 . S
Co256 N261 2.057 . S
Co256 O273 2.021 . S
Co256 O276 2.062 . S
Co256 O280 2.117 1_545 S
Co256 O281 2.020 1_545 S
C257 O277 1.259 1_655 S
C257 O280 1.258 . S
Co258 N267 2.057 . S
Co258 O274 2.117 1_565 S
Co258 O275 2.020 1_565 S
Co258 O277 2.021 . S
Co258 O282 2.062 . S
C259 N261 1.316 . S
C259 N262 1.347 . S
C259 H264 0.931 . S
C260 N261 1.366 1_565 S
C260 C263 1.345 1_565 S
C260 H265 0.941 . S
N261 Co256 2.057 . S
N261 C259 1.316 . S
N261 C260 1.366 1_545 S
N262 C259 1.347 . S
N262 C263 1.373 . S
C263 C260 1.345 1_545 S
C263 N262 1.373 . S
C263 H284 0.931 . S
H264 C259 0.931 . S
H265 C260 0.941 . S
C266 O273 1.259 1_455 S
C266 O274 1.258 . S
N267 Co258 2.057 . S
N267 C268 1.316 . S
N267 C269 1.375 1_565 S
C268 N267 1.316 . S
C268 N270 1.347 . S
C268 H279 0.931 . S
C269 N267 1.375 1_545 S
C269 C271 1.350 1_545 S
C269 H278 0.930 . S
N270 C268 1.347 . S
N270 C271 1.373 . S
C271 C269 1.350 1_565 S
C271 N270 1.373 . S
C271 H285 0.931 1_565 S
C272 O275 1.256 . S
C272 O276 1.255 1_455 S
O273 Co256 2.021 . S
O273 C266 1.259 1_655 S
O274 Co258 2.117 1_545 S
O274 C266 1.258 . S
O275 Co258 2.020 1_545 S
O275 C272 1.256 . S
O276 Co256 2.062 . S
O276 C272 1.255 1_655 S
O277 C257 1.259 1_455 S
O277 Co258 2.021 . S
H278 C269 0.930 . S
H279 C268 0.931 . S
O280 Co256 2.117 1_565 S
O280 C257 1.258 . S
O281 Co256 2.020 1_565 S
O281 C283 1.256 . S
O282 Co258 2.062 . S
O282 C283 1.255 1_455 S
C283 O281 1.256 . S
C283 O282 1.255 1_655 S
H284 C263 0.931 . S
H285 C271 0.931 1_545 S
Co286 N291 2.057 1_545 S
Co286 O303 2.021 . S
Co286 O306 2.062 1_545 S
Co286 O310 2.117 1_546 S
Co286 O311 2.020 . S
C287 O307 1.259 . S
C287 O310 1.258 . S
Co288 N297 2.057 . S
Co288 O304 2.117 . S
Co288 O305 2.020 1_545 S
Co288 O307 2.021 1_545 S
Co288 O312 2.062 . S
C289 N291 1.316 . S
C289 N292 1.347 . S
C289 H294 0.931 1_565 S
C290 N291 1.375 . S
C290 C293 1.350 . S
C290 H295 0.930 . S
N291 Co286 2.057 1_565 S
N291 C289 1.316 . S
N291 C290 1.375 . S
N292 C289 1.347 . S
N292 C293 1.373 . S
C293 C290 1.350 . S
C293 N292 1.373 . S
C293 H314 0.931 . S
H294 C289 0.931 1_545 S
H295 C290 0.930 . S
C296 O303 1.259 . S
C296 O304 1.258 1_556 S
N297 Co288 2.057 . S
N297 C298 1.316 . S
N297 C299 1.375 . S
C298 N297 1.316 . S
C298 N300 1.347 . S
C298 H309 0.931 . S
C299 N297 1.375 . S
C299 C301 1.350 . S
C299 H308 0.930 . S
N300 C298 1.347 . S
N300 C301 1.373 . S
C301 C299 1.350 . S
C301 N300 1.373 . S
C301 H315 0.931 . S
C302 O305 1.256 1_556 S
C302 O306 1.255 . S
O303 Co286 2.021 . S
O303 C296 1.259 . S
O304 Co288 2.117 . S
O304 C296 1.258 1_554 S
O305 Co288 2.020 1_565 S
O305 C302 1.256 1_554 S
O306 Co286 2.062 1_565 S
O306 C302 1.255 . S
O307 C287 1.259 . S
O307 Co288 2.021 1_565 S
H308 C299 0.930 . S
H309 C298 0.931 . S
O310 Co286 2.117 1_564 S
O310 C287 1.258 . S
O311 Co286 2.020 . S
O311 C313 1.256 1_556 S
O312 Co288 2.062 . S
O312 C313 1.255 . S
C313 O311 1.256 1_554 S
C313 O312 1.255 . S
H314 C293 0.931 . S
H315 C301 0.931 . S
Co316 N321 2.057 . S
Co316 O333 2.021 . S
Co316 O336 2.062 . S
Co316 O340 2.117 . S
Co316 O341 2.020 . S
C317 O337 1.259 . S
C317 O340 1.258 . S
Co318 N327 2.057 . S
Co318 O334 2.117 . S
Co318 O335 2.020 . S
Co318 O337 2.021 . S
Co318 O342 2.062 . S
C319 N321 1.316 . S
C319 N322 1.347 . S
C319 H324 0.931 . S
C320 N321 1.375 . S
C320 C323 1.350 . S
C320 H325 0.930 . S
N321 Co316 2.057 . S
N321 C319 1.316 . S
N321 C320 1.375 . S
N322 C319 1.347 . S
N322 C323 1.373 . S
C323 C320 1.350 . S
C323 N322 1.373 . S
C323 H344 0.931 . S
H324 C319 0.931 . S
H325 C320 0.930 . S
C326 O333 1.259 . S
C326 O334 1.258 . S
N327 Co318 2.057 . S
N327 C328 1.316 . S
N327 C329 1.375 . S
C328 N327 1.316 . S
C328 N330 1.347 . S
C328 H339 0.931 . S
C329 N327 1.375 . S
C329 C331 1.350 . S
C329 H338 0.930 . S
N330 C328 1.347 . S
N330 C331 1.373 . S
C331 C329 1.350 . S
C331 N330 1.373 . S
C331 H345 0.931 . S
C332 O335 1.256 . S
C332 O336 1.255 . S
O333 Co316 2.021 . S
O333 C326 1.259 . S
O334 Co318 2.117 . S
O334 C326 1.258 . S
O335 Co318 2.020 . S
O335 C332 1.256 . S
O336 Co316 2.062 . S
O336 C332 1.255 . S
O337 C317 1.259 . S
O337 Co318 2.021 . S
H338 C329 0.930 . S
H339 C328 0.931 . S
O340 Co316 2.117 . S
O340 C317 1.258 . S
O341 Co316 2.020 . S
O341 C343 1.256 . S
O342 Co318 2.062 . S
O342 C343 1.255 . S
C343 O341 1.256 . S
C343 O342 1.255 . S
H344 C323 0.931 . S
H345 C331 0.931 . S
Co346 N351 2.057 . S
Co346 O363 2.021 . S
Co346 O366 2.062 . S
Co346 O370 2.117 1_455 S
Co346 O371 2.020 1_455 S
C347 O367 1.259 1_556 S
C347 O370 1.258 . S
Co348 N357 2.057 . S
Co348 O364 2.117 1_655 S
Co348 O365 2.020 1_655 S
Co348 O367 2.021 . S
Co348 O372 2.062 . S
C349 N351 1.316 . S
C349 N352 1.347 . S
C349 H354 0.931 . S
C350 N351 1.375 1_655 S
C350 C353 1.350 1_655 S
C350 H355 0.930 . S
N351 Co346 2.057 . S
N351 C349 1.316 . S
N351 C350 1.375 1_455 S
N352 C349 1.347 . S
N352 C353 1.373 . S
C353 C350 1.350 1_455 S
C353 N352 1.373 . S
C353 H374 0.931 1_455 S
H354 C349 0.931 . S
H355 C350 0.930 . S
C356 O363 1.259 1_554 S
C356 O364 1.258 . S
N357 Co348 2.057 . S
N357 C358 1.316 . S
N357 C359 1.375 1_655 S
C358 N357 1.316 . S
C358 N360 1.347 . S
C358 H369 0.931 . S
C359 N357 1.375 1_455 S
C359 C361 1.354 . S
C359 H368 0.930 . S
N360 C358 1.347 . S
N360 C361 1.365 1_655 S
C361 C359 1.354 . S
C361 N360 1.365 1_455 S
C361 H375 0.935 . S
C362 O365 1.256 . S
C362 O366 1.255 1_554 S
O363 Co346 2.021 . S
O363 C356 1.259 1_556 S
O364 Co348 2.117 1_455 S
O364 C356 1.258 . S
O365 Co348 2.020 1_455 S
O365 C362 1.256 . S
O366 Co346 2.062 . S
O366 C362 1.255 1_556 S
O367 C347 1.259 1_554 S
O367 Co348 2.021 . S
H368 C359 0.930 . S
H369 C358 0.931 . S
O370 Co346 2.117 1_655 S
O370 C347 1.258 . S
O371 Co346 2.020 1_655 S
O371 C373 1.256 . S
O372 Co348 2.062 . S
O372 C373 1.255 1_554 S
C373 O371 1.256 . S
C373 O372 1.255 1_556 S
H374 C353 0.931 1_655 S
H375 C361 0.935 . S
C29 C272 2.746 . S
C49 N292 1.500 . S
C326 C93 2.486 . S
C119 N360 1.429 . S
C313 C17 2.909 . S
N270 C61 1.807 . S
C347 C81 2.598 . S
N322 C125 1.256 . S
C23 C362 1.972 . S
C296 C87 1.903 . S
C113 C257 1.488 . S
C55 C343 1.774 . S
C283 C157 2.903 . S
C189 N300 1.241 . S
C221 C317 2.701 . S
C253 N352 1.440 . S
C145 C302 3.153 . S
N262 C183 1.270 . S
C356 C209 2.784 . S
N330 C247 1.169 . S
C151 C373 2.290 . S
C287 C215 2.239 . S
C266 C241 1.539 . S
C177 C332 1.436 . S
