# Generated by pormake.
# Topology pts, (4,4)-cn, num edge types: 1
# Building blocks:
#     Node 0, Type 0, BuildingBlock: GIZVER_clean_linker_0, # of connection points: 4
#     Node 1, Type 0, BuildingBlock: GIZVER_clean_linker_0, # of connection points: 4
#     Node 2, Type 1, BuildingBlock: UXUYUI_clean_sbu_0, # of connection points: 4
#     Node 3, Type 1, BuildingBlock: UXUYUI_clean_sbu_0, # of connection points: 4
#     Edge 4, Type (0, 1), BuildingBlock: MIFKUJ_clean_linker_0, # of connection points: 2
#     Edge 5, Type (0, 1), BuildingBlock: MIFKUJ_clean_linker_0, # of connection points: 2
#     Edge 6, Type (0, 1), BuildingBlock: MIFKUJ_clean_linker_0, # of connection points: 2
#     Edge 7, Type (0, 1), BuildingBlock: MIFKUJ_clean_linker_0, # of connection points: 2
#     Edge 8, Type (0, 1), BuildingBlock: MIFKUJ_clean_linker_0, # of connection points: 2
#     Edge 9, Type (0, 1), BuildingBlock: MIFKUJ_clean_linker_0, # of connection points: 2
#     Edge 10, Type (0, 1), BuildingBlock: MIFKUJ_clean_linker_0, # of connection points: 2
#     Edge 11, Type (0, 1), BuildingBlock: MIFKUJ_clean_linker_0, # of connection points: 2
# Relax obj value: 0.010
# Max RMSD: 0.058
# Mean RMSD: 0.057
data_MOF--net-pts--node1-UXUYUI_clean_sbu_0--node2-GIZVER_clean_linker_0--edge1-MIFKUJ_clean_linker_0
_symmetry_space_group_name_H-M    P1
_symmetry_Int_Tables_number       1
_symmetry_cell_setting            triclinic
loop_
_symmetry_equiv_pos_as_xyz
'x, y, z'
_cell_length_a     39.907698
_cell_length_b     39.845584
_cell_length_c     50.903622
_cell_angle_alpha  90.033581
_cell_angle_beta   89.65814
_cell_angle_gamma 89.631399
loop_
_atom_site_label
_atom_site_type_symbol
_atom_site_fract_x
_atom_site_fract_y
_atom_site_fract_z
_atom_type_partial_charge
H0 H 0.55639 0.06737 0.04166 0.0
H1 H 0.56054 0.05446 0.95762 0.0
H2 H 0.63882 0.01436 0.00638 0.0
H3 H 0.52295 0.10301 0.01277 0.0
H4 H 0.52565 0.09884 0.978 0.0
H5 H 0.48172 0.07156 0.03813 0.0
H6 H 0.40191 0.02646 0.99461 0.0
H7 H 0.49137 0.05734 0.95436 0.0
C8 C 0.56805 0.05638 0.02437 0.0
C9 C 0.59837 0.03873 0.02681 0.0
C10 C 0.55381 0.06153 -0.00056 0.0
C11 C 0.5706 0.04921 0.97693 0.0
C12 C 0.60127 0.03185 0.97924 0.0
C13 C 0.61435 0.02606 0.00435 0.0
C14 C 0.5236 0.08424 0.99657 0.0
C15 C 0.49113 0.06494 0.99649 0.0
C16 C 0.47224 0.06154 0.01984 0.0
C17 C 0.43986 0.04801 0.01909 0.0
C18 C 0.4273 0.03604 0.99527 0.0
C19 C 0.44569 0.03913 0.97192 0.0
C20 C 0.47767 0.05357 0.97256 0.0
H21 H 0.05757 0.55688 0.45335 0.0
H22 H 0.07067 0.56352 0.53722 0.0
H23 H 0.02772 0.64618 0.49497 0.0
H24 H 0.09986 0.52208 0.47663 0.0
H25 H 0.10281 0.52308 0.51146 0.0
H26 H 0.05342 0.49099 0.45466 0.0
H27 H 0.01949 0.40542 0.49848 0.0
H28 H 0.07111 0.48453 0.53808 0.0
C29 C 0.05382 0.57026 0.47169 0.0
C30 C 0.03998 0.60281 0.47139 0.0
C31 C 0.06451 0.55562 0.49545 0.0
C32 C 0.06105 0.57388 0.51906 0.0
C33 C 0.04801 0.60667 0.51881 0.0
C34 C 0.03688 0.62049 0.49511 0.0
C35 C 0.0846 0.52333 0.49498 0.0
C36 C 0.06291 0.49241 0.49648 0.0
C37 C 0.04968 0.47841 0.47332 0.0
C38 C 0.03345 0.44721 0.47399 0.0
C39 C 0.03028 0.43035 0.498 0.0
C40 C 0.0439 0.44349 0.52104 0.0
C41 C 0.05954 0.4749 0.52042 0.0
Li42 Li 0.01842 0.05391 0.26963 0.0
Li43 Li 0.01965 0.99393 0.26598 0.0
Li44 Li 0.05187 0.02635 0.23359 0.0
Li45 Li 0.98885 0.02456 0.2343 0.0
C46 C 0.0736 0.00983 0.29314 0.0
N47 N 0.10328 0.97781 0.33522 0.0
C48 C 0.06574 0.01967 0.31882 0.0
C49 C 0.09665 0.98383 0.28884 0.0
C50 C 0.08103 1.00317 0.33983 0.0
C51 C 0.11132 0.96789 0.31038 0.0
C52 C 0.96457 1.00862 0.29335 0.0
C53 C 0.93142 0.96387 0.31171 0.0
N54 N 0.93365 0.97839 0.33582 0.0
C55 C 0.96647 0.02314 0.3183 0.0
C56 C 0.94682 0.97879 0.28998 0.0
C57 C 0.95067 1.00746 0.33952 0.0
C58 C 0.98707 0.1097 0.29382 0.0
N59 N 0.01693 0.09354 0.29078 0.0
C60 C 0.04528 0.13762 0.31327 0.0
C61 C 0.04576 0.10673 0.30025 0.0
C62 C 0.01488 0.15535 0.31629 0.0
C63 C 0.98546 0.14078 0.30649 0.0
H64 H 0.96462 0.09887 0.28566 0.0
H65 H 0.06926 0.09358 0.29718 0.0
C66 C 0.02682 0.92368 0.26933 0.0
N67 N 0.02162 0.95147 0.28439 0.0
C68 C 0.02792 0.89183 0.28076 0.0
C69 C 0.01878 0.91758 0.32317 0.0
C70 C 0.01813 0.94897 0.31094 0.0
C71 C 0.02357 0.88845 0.30801 0.0
H72 H 0.03002 0.92617 0.24834 0.0
H73 H 0.01459 0.97126 0.32269 0.0
C74 C 0.01301 0.09755 0.23028 0.0
N75 N 1.00079 0.16586 0.23222 0.0
C76 C 0.98053 0.11001 0.22673 0.0
C77 C 0.03928 0.11984 0.23479 0.0
C78 C 0.97488 0.14463 0.22774 0.0
C79 C 0.03258 0.15428 0.23575 0.0
C80 C 0.00863 0.97386 0.20567 0.0
C81 C 0.02151 0.98215 0.18095 0.0
C82 C 0.98125 0.95229 0.20765 0.0
C83 C 1.00657 0.96884 0.15852 0.0
C84 C 0.96697 0.93957 0.18475 0.0
N85 N 0.97982 0.94805 0.16087 0.0
C86 C 0.11166 1.00034 0.21169 0.0
C87 C 0.1005 0.05701 0.20053 0.0
C88 C 0.14219 1.00118 0.1981 0.0
N89 N 0.09179 0.02814 0.21293 0.0
C90 C 0.13082 0.05901 0.18677 0.0
C91 C 0.15233 0.03093 0.1856 0.0
H92 H 0.10385 0.97754 0.2214 0.0
H93 H 0.08408 0.07861 0.20152 0.0
C94 C 0.92004 0.01661 0.22439 0.0
N95 N 0.94951 0.02548 0.21294 0.0
C96 C 0.89048 0.01666 0.20993 0.0
C97 C 0.92186 0.03576 0.17211 0.0
C98 C 0.95096 0.03512 0.18733 0.0
C99 C 0.8911 0.0263 0.18341 0.0
H100 H 0.91937 0.00974 0.24487 0.0
H101 H 0.9747 0.04237 0.17876 0.0
O102 O 0.05858 0.0254 0.27232 0.0
O103 O 0.97965 0.02378 0.27232 0.0
O104 O 0.01888 0.06367 0.23012 0.0
O105 O 0.02238 0.98723 0.22783 0.0
H106 H 0.04768 0.03949 0.32251 0.0
H107 H 0.10289 0.97581 0.26911 0.0
H108 H 0.07505 0.0104 0.35981 0.0
H109 H 0.12905 0.94758 0.30736 0.0
H110 H 0.91781 0.94066 0.30942 0.0
H111 H 0.98016 0.04614 0.32132 0.0
H112 H 0.94542 0.96698 0.27088 0.0
H113 H 0.95203 0.01835 0.35895 0.0
H114 H 0.06853 0.14753 0.32079 0.0
H115 H 0.96154 0.15364 0.3079 0.0
H116 H 0.03156 0.87004 0.26832 0.0
H117 H 0.01587 0.91615 0.34431 0.0
H118 H 0.95982 0.09316 0.22354 0.0
H119 H 0.06445 0.11061 0.23817 0.0
H120 H 0.94986 0.15462 0.22511 0.0
H121 H 0.05261 0.17178 0.23947 0.0
H122 H 0.04261 0.99893 0.17909 0.0
H123 H 0.97093 0.94577 0.22668 0.0
H124 H 0.01616 0.97515 0.13923 0.0
H125 H 0.94563 0.92303 0.18597 0.0
H126 H 0.15757 0.97872 0.1973 0.0
H127 H 0.13763 0.08256 0.17765 0.0
H128 H 0.86724 0.00982 0.21956 0.0
H129 H 0.92346 0.04325 0.15169 0.0
Li130 Li 0.99234 0.02357 0.76629 0.0
Li131 Li 0.05371 0.02366 0.76949 0.0
Li132 Li 0.02342 0.05345 0.73401 0.0
Li133 Li 0.02585 0.99241 0.73318 0.0
C134 C 1.00677 0.07646 0.79338 0.0
N135 N 0.97304 0.10301 0.83621 0.0
C136 C 0.01702 0.06846 0.81883 0.0
C137 C 0.97955 0.09815 0.78968 0.0
C138 C 0.99961 0.08213 0.84024 0.0
C139 C 0.96276 0.11124 0.8116 0.0
C140 C 0.03889 0.95527 0.77839 0.0
C141 C 0.08706 0.9186 0.77531 0.0
N142 N 0.07077 0.89547 0.79022 0.0
C143 C 0.02259 0.93115 0.79363 0.0
C144 C 0.07136 0.94898 0.76911 0.0
C145 C 0.03915 0.90107 0.79942 0.0
C146 C 0.92254 0.03144 0.77508 0.0
N147 N 0.9518 0.02211 0.78657 0.0
C148 C 0.92321 0.01081 0.82703 0.0
C149 C 0.95265 0.01168 0.81199 0.0
C150 C 0.8926 0.02065 0.81572 0.0
C151 C 0.89257 0.03098 0.78934 0.0
H152 H 0.92236 0.03907 0.75476 0.0
H153 H 0.97625 1.0042 0.82062 0.0
C154 C 0.11604 0.04803 0.78423 0.0
N155 N 0.09241 0.02535 0.79136 0.0
C156 C 0.14652 0.04942 0.79747 0.0
C157 C 0.12731 1.00497 0.82599 0.0
C158 C 0.0971 1.00452 0.8122 0.0
C159 C 0.15271 0.02735 0.81843 0.0
H160 H 0.11132 0.06476 0.76794 0.0
H161 H 0.07763 0.98722 0.81792 0.0
C162 C 0.96918 0.03541 0.70715 0.0
N163 N 0.93572 0.06403 0.66529 0.0
C164 C 0.96821 0.01889 0.68293 0.0
C165 C 0.95273 0.06628 0.71016 0.0
C166 C 0.95126 0.03383 0.66199 0.0
C167 C 0.93607 0.0804 0.68874 0.0
C168 C 0.08027 0.02812 0.70757 0.0
C169 C 0.06467 0.01926 0.6841 0.0
C170 C 0.11281 0.04089 0.7069 0.0
C171 C 0.08168 0.02364 0.6603 0.0
C172 C 0.12904 0.04488 0.68271 0.0
N173 N 0.11326 0.03627 0.6601 0.0
C174 C 0.02841 0.12334 0.7273 0.0
C175 C 0.02371 0.09428 0.68691 0.0
C176 C 0.02969 0.15411 0.71419 0.0
N177 N 0.02532 0.0942 0.71361 0.0
C178 C 0.02509 0.12446 0.673 0.0
C179 C 0.02809 0.15495 0.68666 0.0
H180 H 0.02997 0.12274 0.74848 0.0
H181 H 0.02081 0.07102 0.67633 0.0
C182 C 0.99975 0.93353 0.71053 0.0
N183 N 0.0283 0.95151 0.71358 0.0
C184 C 1.00067 0.90246 0.69774 0.0
C185 C 0.06035 0.90901 0.69154 0.0
C186 C 0.0583 0.93984 0.70451 0.0
C187 C 0.03129 0.8898 0.68806 0.0
H188 H 0.97631 0.94324 0.71824 0.0
H189 H 0.08079 0.95421 0.70773 0.0
O190 O 0.0229 0.06259 0.77219 0.0
O191 O 0.02278 0.98462 0.77228 0.0
O192 O 0.98568 0.02114 0.72787 0.0
O193 O 0.06416 0.02365 0.73112 0.0
H194 H 0.03795 0.05159 0.82202 0.0
H195 H 0.97129 0.10456 0.77011 0.0
H196 H 1.00714 0.07602 0.86006 0.0
H197 H 0.94151 0.12788 0.80904 0.0
H198 H 0.1122 0.91341 0.76827 0.0
H199 H 0.99739 0.93563 0.80087 0.0
H200 H 0.08435 0.96737 0.75728 0.0
H201 H 0.02686 0.88217 0.81121 0.0
H202 H 0.92447 1.00293 0.84735 0.0
H203 H 0.86954 0.03818 0.77965 0.0
H204 H 0.16536 0.067 0.79088 0.0
H205 H 0.13073 0.98799 0.84237 0.0
H206 H 0.98039 0.99478 0.68031 0.0
H207 H 0.9533 0.07948 0.72872 0.0
H208 H 0.95045 0.02139 0.64311 0.0
H209 H 0.92353 0.10442 0.69074 0.0
H210 H 0.03962 0.0092 0.68424 0.0
H211 H 0.12554 0.04748 0.72483 0.0
H212 H 0.06978 0.01698 0.64201 0.0
H213 H 0.15422 0.05474 0.68192 0.0
H214 H 0.03241 0.17697 0.72549 0.0
H215 H 0.0233 0.12397 0.65178 0.0
H216 H 0.97763 0.88862 0.69532 0.0
H217 H 0.08458 0.89998 0.68481 0.0
H218 H 0.44604 0.01985 0.06815 0.0
H219 H 0.40278 0.01869 0.10294 0.0
H220 H 0.33815 0.08015 0.05487 0.0
H221 H 0.38124 0.08178 0.02072 0.0
H222 H 0.33358 0.0989 0.1051 0.0
H223 H 0.33142 0.99466 0.05598 0.0
H224 H 0.35582 0.94201 0.0387 0.0
H225 H 0.37537 0.90842 0.11731 0.0
H226 H 0.35147 0.96113 0.13504 0.0
H227 H 0.16669 0.06301 0.13929 0.0
H228 H 0.22086 0.06748 0.1171 0.0
H229 H 0.26665 1.00723 0.17756 0.0
H230 H 0.21255 1.00306 0.20021 0.0
H231 H 0.28659 0.98768 0.12817 0.0
H232 H 0.28006 0.08997 0.17692 0.0
H233 H 0.25388 0.14243 0.19287 0.0
H234 H 0.2493 0.17984 0.11388 0.0
H235 H 0.275 0.12739 0.09739 0.0
C236 C 0.42281 0.03358 0.06541 0.0
C237 C 0.41665 0.05059 0.04178 0.0
C238 C 0.39808 0.03275 0.08512 0.0
C239 C 0.36702 0.04898 0.08135 0.0
C240 C 0.36181 0.06743 0.05826 0.0
C241 C 0.38634 0.0682 0.0387 0.0
C242 C 0.3389 0.04542 0.1004 0.0
C243 C 0.32329 0.07458 0.11013 0.0
C244 C 0.32586 0.01367 0.10743 0.0
C245 C 0.34006 0.98197 0.09681 0.0
C246 C 0.34116 0.97615 0.06956 0.0
C247 C 0.35486 0.94629 0.05969 0.0
C248 C 0.36723 0.92193 0.0769 0.0
C249 C 0.36584 0.92735 0.10401 0.0
C250 C 0.35223 0.9572 0.11398 0.0
C251 C 0.1883 0.05099 0.14808 0.0
C252 C 0.18521 0.03284 0.17165 0.0
C253 C 0.21927 0.05351 0.13532 0.0
C254 C 0.24791 0.03806 0.14586 0.0
C255 C 0.24489 0.0194 0.16911 0.0
C256 C 0.21389 0.01692 0.18195 0.0
C257 C 0.2808 0.04121 0.1323 0.0
C258 C 0.29726 0.01198 0.1236 0.0
C259 C 0.29451 0.07292 0.12605 0.0
C260 C 0.27927 0.10463 0.13591 0.0
C261 C 0.27327 0.10929 0.16292 0.0
C262 C 0.25854 0.13904 0.17207 0.0
C263 C 0.24988 0.16443 0.1544 0.0
C264 C 0.25601 0.16015 0.12754 0.0
C265 C 0.2707 0.13043 0.11829 0.0
H266 H 0.23848 0.18744 0.16151 0.0
H267 H 0.37782 0.89883 0.06922 0.0
H268 H 1.00819 0.44516 0.5673 0.0
H269 H 1.00551 0.39986 0.60029 0.0
H270 H 0.08199 0.34504 0.55771 0.0
H271 H 0.08466 0.38997 0.5251 0.0
H272 H 0.02331 0.30905 0.56558 0.0
H273 H 0.09981 0.37771 0.61552 0.0
H274 H 0.11718 0.42938 0.63823 0.0
H275 H 0.03194 0.42258 0.68978 0.0
H276 H 0.01379 0.37109 0.66712 0.0
H277 H 0.06388 0.16906 0.64215 0.0
H278 H 0.06578 0.22187 0.61789 0.0
H279 H 0.99795 0.26708 0.67415 0.0
H280 H 0.99622 0.21424 0.69872 0.0
H281 H 0.04595 0.31038 0.66128 0.0
H282 H 0.97018 0.24157 0.61418 0.0
H283 H 0.94991 0.19095 0.59155 0.0
H284 H 0.029 0.19947 0.53443 0.0
H285 H 0.05011 0.24983 0.55698 0.0
C286 C 0.02506 0.42386 0.5656 0.0
C287 C 0.04676 0.42092 0.54391 0.0
C288 C 0.02346 0.39801 0.5843 0.0
C289 C 0.04345 0.36902 0.58132 0.0
C290 C 0.06629 0.36709 0.56032 0.0
C291 C 0.06796 0.3928 0.54183 0.0
C292 C 0.03877 0.33922 0.59838 0.0
C293 C 0.02859 0.30924 0.58647 0.0
C294 C 0.04429 0.33989 0.62579 0.0
C295 C 0.05523 0.37078 0.63942 0.0
C296 C 0.08459 0.38741 0.63153 0.0
C297 C 0.09462 0.41663 0.64443 0.0
C298 C 0.07562 0.42932 0.66538 0.0
C299 C 0.04659 0.41276 0.67352 0.0
C300 C 0.03644 0.38355 0.66066 0.0
C301 C 0.0492 0.19017 0.64928 0.0
C302 C 0.02967 0.18736 0.67223 0.0
C303 C 0.05033 0.22039 0.63542 0.0
C304 C 0.03157 0.24835 0.64394 0.0
C305 C 0.0126 0.24587 0.66717 0.0
C306 C 0.01165 0.21566 0.68119 0.0
C307 C 0.03153 0.27986 0.62828 0.0
C308 C 0.04051 0.31018 0.64043 0.0
C309 C 0.02448 0.2797 0.60105 0.0
C310 C 0.01191 0.24934 0.58743 0.0
C311 C 0.98343 0.23249 0.59692 0.0
C312 C 0.97177 0.20386 0.58409 0.0
C313 C 0.98821 0.19196 0.56161 0.0
C314 C 0.01632 0.20869 0.55188 0.0
C315 C 0.02814 0.2373 0.56467 0.0
H316 H 0.97912 0.1698 0.55169 0.0
H317 H 0.08343 0.45193 0.67534 0.0
H318 H 0.62658 0.09201 0.05055 0.0
H319 H 0.67304 0.08985 0.08181 0.0
H320 H 0.66141 0.98272 0.08867 0.0
H321 H 0.6156 0.98469 0.05664 0.0
H322 H 0.6802 0.02661 0.13885 0.0
H323 H 0.71114 0.99428 0.04957 0.0
H324 H 0.71084 1.00269 0.00157 0.0
H325 H 0.75845 0.09821 0.01113 0.0
H326 H 0.75827 0.0907 0.05928 0.0
H327 H 0.84167 0.97916 0.18255 0.0
H328 H 0.78843 0.9816 0.15914 0.0
H329 H 0.81578 0.0774 0.12619 0.0
H330 H 0.86931 0.07492 0.14941 0.0
H331 H 0.78735 0.03964 0.08988 0.0
H332 H 0.76044 0.07123 0.17837 0.0
H333 H 0.75901 0.06526 0.22657 0.0
H334 H 0.7033 0.97393 0.21924 0.0
H335 H 0.70481 0.97911 0.17095 0.0
C336 C 0.63301 0.06826 0.05963 0.0
C337 C 0.61745 0.03855 0.05153 0.0
C338 C 0.65964 0.06701 0.0773 0.0
C339 C 0.67063 0.03611 0.08735 0.0
C340 C 0.65307 1.00679 0.08118 0.0
C341 C 0.62689 1.00793 0.06305 0.0
C342 C 0.70315 0.0339 0.10099 0.0
C343 C 0.7037 0.02903 0.12822 0.0
C344 C 0.73361 0.0378 0.08701 0.0
C345 C 0.73427 0.04213 0.05805 0.0
C346 C 0.72119 0.01725 0.04146 0.0
C347 C 0.72116 0.02181 0.01422 0.0
C348 C 0.73454 0.051 0.00331 0.0
C349 C 0.74803 0.07564 0.01961 0.0
C350 C 0.74798 0.07125 0.04688 0.0
C351 C 0.83631 1.00079 0.17037 0.0
C352 C 0.8596 0.02697 0.16798 0.0
C353 C 0.80584 1.00218 0.15702 0.0
C354 C 0.79779 0.02998 0.14127 0.0
C355 C 0.82138 0.05574 0.13828 0.0
C356 C 0.852 0.05426 0.1515 0.0
C357 C 0.76474 0.0322 0.12801 0.0
C358 C 0.764 0.03715 0.10071 0.0
C359 C 0.73412 0.0285 0.14199 0.0
C360 C 0.73302 0.0254 0.17103 0.0
C361 C 0.7481 0.04974 0.18703 0.0
C362 C 0.74724 0.04652 0.21437 0.0
C363 C 0.73115 0.01918 0.22596 0.0
C364 C 0.7158 0.99506 0.21023 0.0
C365 C 0.71662 0.99815 0.18288 0.0
H366 H 0.73051 0.01673 0.24713 0.0
H367 H 0.73453 0.05447 0.98221 0.0
H368 H 0.01955 0.59805 0.56769 0.0
H369 H 0.01795 0.63938 0.60379 0.0
H370 H 0.07907 0.7064 0.55763 0.0
H371 H 0.08082 0.66545 0.52202 0.0
H372 H 0.09793 0.70657 0.6085 0.0
H373 H 0.99399 0.71378 0.55887 0.0
H374 H 0.94128 0.69104 0.54139 0.0
H375 H 0.90767 0.66882 0.61973 0.0
H376 H 0.96043 0.69106 0.63765 0.0
H377 H 0.06684 0.87357 0.64375 0.0
H378 H 0.07069 0.81921 0.62181 0.0
H379 H 1.00371 0.77671 0.67951 0.0
H380 H 0.99965 0.83128 0.70159 0.0
H381 H 0.98729 0.75651 0.63123 0.0
H382 H 0.08769 0.75881 0.68111 0.0
H383 H 0.14011 0.78258 0.69821 0.0
H384 H 0.18072 0.78686 0.62 0.0
H385 H 0.12835 0.76357 0.60235 0.0
C386 C 0.03305 0.6214 0.5656 0.0
C387 C 0.05004 0.62882 0.5421 0.0
C388 C 0.032 0.64501 0.58609 0.0
C389 C 0.04812 0.67614 0.58327 0.0
C390 C 0.06646 0.68263 0.56027 0.0
C391 C 0.06732 0.6593 0.5399 0.0
C392 C 0.04458 0.70319 0.60321 0.0
C393 C 0.07375 0.71749 0.61351 0.0
C394 C 0.01299 0.71688 0.61033 0.0
C395 C 0.98129 0.70366 0.59956 0.0
C396 C 0.97546 0.7038 0.57234 0.0
C397 C 0.94557 0.69104 0.56236 0.0
C398 C 0.92119 0.67839 0.57943 0.0
C399 C 0.92661 0.67856 0.60653 0.0
C400 C 0.9565 0.69123 0.61661 0.0
C401 C 0.05316 0.85261 0.65194 0.0
C402 C 0.0331 0.85673 0.67452 0.0
C403 C 0.0554 0.8215 0.63938 0.0
C404 C 0.03797 0.79366 0.64928 0.0
C405 C 0.01749 0.79778 0.67158 0.0
C406 C 0.0151 0.829 0.68412 0.0
C407 C 0.04075 0.76061 0.63584 0.0
C408 C 0.01146 0.74519 0.62678 0.0
C409 C 0.07227 0.74586 0.62986 0.0
C410 C 0.10398 0.75959 0.6404 0.0
C411 C 0.10772 0.765 0.66753 0.0
C412 C 0.13744 0.77837 0.67733 0.0
C413 C 0.16371 0.78626 0.6602 0.0
C414 C 0.16035 0.78073 0.63324 0.0
C415 C 0.13066 0.76739 0.62334 0.0
H416 H 0.1867 0.79663 0.66782 0.0
H417 H 0.89805 0.66854 0.57167 0.0
H418 H 0.43173 0.08423 0.9337 0.0
H419 H 0.38705 0.07931 0.90116 0.0
H420 H 0.37339 0.97559 0.92247 0.0
H421 H 0.41764 0.98064 0.95548 0.0
H422 H 0.36239 0.99524 0.86455 0.0
H423 H 0.32797 0.01802 0.95441 0.0
H424 H 0.33228 0.04804 0.99659 0.0
H425 H 0.31255 0.14161 0.95761 0.0
H426 H 0.30856 0.11206 0.91507 0.0
H427 H 0.18966 0.97311 0.83476 0.0
H428 H 0.24439 0.97316 0.85612 0.0
H429 H 0.24571 0.08133 0.85318 0.0
H430 H 0.19056 0.08153 0.83254 0.0
H431 H 0.26499 0.05902 0.90033 0.0
H432 H 0.29289 0.0341 0.81055 0.0
H433 H 0.28954 1.00317 0.76869 0.0
H434 H 0.32179 0.91284 0.80722 0.0
H435 H 0.32488 0.94313 0.84941 0.0
C436 C 0.42028 0.05999 0.93055 0.0
C437 C 0.42807 0.03277 0.94697 0.0
C438 C 0.39467 0.05725 0.91209 0.0
C439 C 0.37686 0.02716 0.90961 0.0
C440 C 0.38701 0.99893 0.92403 0.0
C441 C 0.41226 1.00182 0.94281 0.0
C442 C 0.34433 0.027 0.89581 0.0
C443 C 0.34096 1.00891 0.87237 0.0
C444 C 0.3166 0.04512 0.90601 0.0
C445 C 0.31834 0.06291 0.93156 0.0
C446 C 0.32482 0.04503 0.95481 0.0
C447 C 0.32716 0.06194 0.97878 0.0
C448 C 0.32282 0.09674 0.97977 0.0
C449 C 0.31597 0.11466 0.9568 0.0
C450 C 0.31363 0.09784 0.93275 0.0
C451 C 0.20144 0.99693 0.8389 0.0
C452 C 0.18571 0.02733 0.83191 0.0
C453 C 0.23292 0.9969 0.85083 0.0
C454 C 0.24939 0.02723 0.85592 0.0
C455 C 0.23357 0.05761 0.8493 0.0
C456 C 0.20213 0.05767 0.83735 0.0
C457 C 0.28276 0.0274 0.86873 0.0
C458 C 0.28632 0.04545 0.89223 0.0
C459 C 0.31053 0.00907 0.85855 0.0
C460 C 0.30881 0.99082 0.83319 0.0
C461 C 0.29901 1.00758 0.81014 0.0
C462 C 0.2972 0.99017 0.78634 0.0
C463 C 0.30536 0.95604 0.78531 0.0
C464 C 0.31543 0.93927 0.80806 0.0
C465 C 0.31725 0.95655 0.83192 0.0
H466 H 0.30395 0.94261 0.76686 0.0
H467 H 0.32466 0.1098 0.99835 0.0
H468 H 0.07315 0.43485 0.43122 0.0
H469 H 0.06469 0.39085 0.39838 0.0
H470 H 0.96601 0.37243 0.43006 0.0
H471 H 0.97451 0.41624 0.46299 0.0
H472 H 1.00458 0.31723 0.43123 0.0
H473 H 0.977 0.40095 0.36708 0.0
H474 H 0.98557 0.45255 0.34126 0.0
H475 H 0.07668 0.41157 0.30899 0.0
H476 H 0.06892 0.35988 0.3349 0.0
H477 H 0.96604 0.18128 0.34884 0.0
H478 H 0.96463 0.23607 0.37018 0.0
H479 H 0.06055 0.25992 0.33568 0.0
H480 H 0.06128 0.20587 0.31301 0.0
H481 H 0.0215 0.3136 0.33468 0.0
H482 H 0.05282 0.23316 0.40011 0.0
H483 H 0.04785 0.18201 0.42706 0.0
H484 H 0.95388 0.21749 0.45824 0.0
H485 H 0.95806 0.26866 0.43117 0.0
C486 C 0.04912 0.4224 0.43043 0.0
C487 C 0.02452 0.42883 0.44969 0.0
C488 C 0.04435 0.39713 0.41172 0.0
C489 C 0.01479 0.37814 0.41187 0.0
C490 C 0.98908 0.38661 0.42967 0.0
C491 C 0.99388 0.41174 0.44837 0.0
C492 C 0.01255 0.34667 0.39629 0.0
C493 C 1.00756 0.31656 0.41003 0.0
C494 C 0.01785 0.34561 0.36879 0.0
C495 C 0.02251 0.37663 0.35312 0.0
C496 C 0.99901 0.40304 0.35464 0.0
C497 C 1.0037 0.43229 0.33995 0.0
C498 C 0.03169 0.43537 0.32354 0.0
C499 C 0.05502 0.40916 0.32173 0.0
C500 C 0.05047 0.37986 0.33639 0.0
C501 C 0.98665 0.1983 0.34542 0.0
C502 C 0.01391 0.1889 0.3293 0.0
C503 C 0.98596 0.22957 0.35789 0.0
C504 C 0.01275 0.25198 0.35491 0.0
C505 C 0.03965 0.24303 0.33839 0.0
C506 C 0.04022 0.21187 0.32571 0.0
C507 C 0.01315 0.28426 0.36964 0.0
C508 C 0.01809 0.31439 0.35583 0.0
C509 C 0.00825 0.28542 0.3972 0.0
C510 C 1.00558 0.25457 0.41338 0.0
C511 C 0.03095 0.22992 0.41253 0.0
C512 C 0.0283 0.20095 0.42786 0.0
C513 C 1.00052 0.19646 0.44429 0.0
C514 C 0.97535 0.22097 0.44546 0.0
C515 C 0.97785 0.24996 0.43014 0.0
H516 H 0.99853 0.17403 0.45617 0.0
H517 H 0.03527 0.45803 0.31218 0.0
H518 H 0.6144 0.07238 0.9371 0.0
H519 H 0.66004 0.06581 0.90522 0.0
H520 H 0.68426 0.96895 0.93801 0.0
H521 H 0.63828 0.97507 0.96964 0.0
H522 H 0.73753 0.0116 0.93801 0.0
H523 H 0.65524 0.97444 0.8765 0.0
H524 H 0.60267 0.97771 0.85141 0.0
H525 H 0.63528 0.06937 0.81537 0.0
H526 H 0.68788 0.0669 0.84053 0.0
H527 H 0.87152 0.97266 0.85059 0.0
H528 H 0.81896 0.97139 0.8755 0.0
H529 H 0.789 0.06541 0.84055 0.0
H530 H 0.84154 0.06694 0.81566 0.0
H531 H 0.73779 0.02237 0.84094 0.0
H532 H 0.81781 0.06194 0.90316 0.0
H533 H 0.86981 0.0613 0.92906 0.0
H534 H 0.8408 0.96823 0.96478 0.0
H535 H 0.78884 0.96804 0.93876 0.0
C536 C 0.62856 0.04911 0.93687 0.0
C537 C 0.62282 0.02432 0.95601 0.0
C538 C 0.65482 0.04548 0.91872 0.0
C539 C 0.67569 0.01698 0.91937 0.0
C540 C 0.66858 0.99123 0.93728 0.0
C541 C 0.64227 0.99474 0.9553 0.0
C542 C 0.70694 0.01566 0.90343 0.0
C543 C 0.73757 0.01328 0.91673 0.0
C544 C 0.70698 0.01911 0.87578 0.0
C545 C 0.67539 0.02064 0.8606 0.0
C546 C 0.65109 0.99545 0.8634 0.0
C547 C 0.62131 0.99713 0.84913 0.0
C548 C 0.6156 0.02377 0.83186 0.0
C549 C 0.63972 0.04876 0.82878 0.0
C550 C 0.66954 0.04721 0.84302 0.0
C551 C 0.85391 0.99325 0.84839 0.0
C552 C 0.86082 0.01995 0.83117 0.0
C553 C 0.82381 0.99243 0.86259 0.0
C554 C 0.80011 0.01844 0.86005 0.0
C555 C 0.80682 0.045 0.84275 0.0
C556 C 0.83687 0.0458 0.82851 0.0
C557 C 0.7684 0.01807 0.87553 0.0
C558 C 0.73773 0.02035 0.8622 0.0
C559 C 0.76827 0.01484 0.90323 0.0
C560 C 0.79963 0.01476 0.91875 0.0
C561 C 0.82268 0.04116 0.91633 0.0
C562 C 0.85212 0.04098 0.93108 0.0
C563 C 0.85866 0.01468 0.94849 0.0
C564 C 0.83574 0.98854 0.95123 0.0
C565 C 0.80629 0.98856 0.9365 0.0
H566 H 0.88145 0.01461 0.95991 0.0
H567 H 0.59253 0.02502 0.82082 0.0
H568 H 0.98545 0.64155 0.45964 0.0
H569 H 0.98109 0.68271 0.42441 0.0
H570 H 0.07468 0.64699 0.39158 0.0
H571 H 0.07973 0.60647 0.42751 0.0
H572 H 0.0774 0.71161 0.39868 0.0
H573 H 0.99872 0.63992 0.35794 0.0
H574 H 0.94956 0.60305 0.35462 0.0
H575 H 0.88478 0.68508 0.37627 0.0
H576 H 0.93359 0.72236 0.38011 0.0
H577 H 0.06691 0.83623 0.29848 0.0
H578 H 0.06782 0.78101 0.31958 0.0
H579 H 0.9822 0.80928 0.36692 0.0
H580 H 0.98089 0.86441 0.34567 0.0
H581 H 0.97757 0.74412 0.34674 0.0
H582 H 0.05769 0.81274 0.39283 0.0
H583 H 0.10705 0.84938 0.39612 0.0
H584 H 0.16939 0.77141 0.36352 0.0
H585 H 0.12025 0.73445 0.35968 0.0
C586 C 1.00469 0.64191 0.44454 0.0
C587 C 0.03305 0.62094 0.44647 0.0
C588 C 1.00208 0.66534 0.42426 0.0
C589 C 0.02755 0.66804 0.40524 0.0
C590 C 0.05473 0.64543 0.40604 0.0
C591 C 0.05742 0.62202 0.42643 0.0
C592 C 0.02778 0.69705 0.38681 0.0
C593 C 0.05584 0.71817 0.38681 0.0
C594 C 0.9994 0.70621 0.37177 0.0
C595 C 0.9699 0.6839 0.36948 0.0
C596 C 0.97402 0.65005 0.36219 0.0
C597 C 0.9462 0.62908 0.36018 0.0
C598 C 0.91407 0.6417 0.36527 0.0
C599 C 0.90969 0.67534 0.37234 0.0
C600 C 0.93742 0.69642 0.37439 0.0
C601 C 0.04808 0.83056 0.3132 0.0
C602 C 0.02393 0.85474 0.32052 0.0
C603 C 0.04872 0.79906 0.32531 0.0
C604 C 0.02517 0.79111 0.3449 0.0
C605 C 1.00058 0.8149 0.35183 0.0
C606 C 1.00007 0.84649 0.33987 0.0
C607 C 0.02694 0.75854 0.359 0.0
C608 C 0.99927 0.737 0.35825 0.0
C609 C 0.0557 0.74884 0.37329 0.0
C610 C 0.08525 0.77099 0.37567 0.0
C611 C 0.08188 0.80352 0.38615 0.0
C612 C 0.10982 0.82432 0.38815 0.0
C613 C 0.14132 0.81277 0.37996 0.0
C614 C 0.14496 0.78035 0.36981 0.0
C615 C 0.11708 0.75946 0.36772 0.0
H616 H 0.16292 0.82892 0.38153 0.0
H617 H 0.89257 0.62542 0.3637 0.0
loop_
_geom_bond_atom_site_label_1
_geom_bond_atom_site_label_2
_geom_bond_distance
_geom_bond_site_symmetry_2
_ccdc_geom_bond_type
H0 C8 0.930 . S
H1 C11 0.930 . S
H2 C13 0.930 . S
H3 C14 1.001 . S
H4 C14 0.941 1_556 S
H5 C16 0.930 . S
H6 C18 0.930 1_565 S
H7 C20 0.930 . S
C8 H0 0.930 . S
C8 C9 1.382 . S
C8 C10 1.457 . S
C9 C8 1.382 . S
C9 C13 1.389 . S
C10 C8 1.457 . S
C10 C11 1.345 1_554 S
C10 C14 1.532 . S
C11 H1 0.930 . S
C11 C10 1.345 1_556 S
C11 C12 1.416 . S
C12 C11 1.416 . S
C12 C13 1.371 1_556 S
C13 H2 0.930 . S
C13 C9 1.389 . S
C13 C12 1.371 1_554 S
C14 H3 1.001 . S
C14 H4 0.941 1_554 S
C14 C10 1.532 . S
C14 C15 1.499 . S
C15 C14 1.499 . S
C15 C16 1.383 . S
C15 C20 1.403 1_554 S
C16 H5 0.930 . S
C16 C15 1.383 . S
C16 C17 1.407 . S
C17 C16 1.407 . S
C17 C18 1.375 . S
C18 H6 0.930 1_545 S
C18 C17 1.375 . S
C18 C19 1.382 1_554 S
C19 C18 1.382 1_556 S
C19 C20 1.387 . S
C20 H7 0.930 . S
C20 C15 1.403 1_556 S
C20 C19 1.387 . S
H21 C29 0.930 . S
H22 C32 0.930 . S
H23 C34 0.930 . S
H24 C35 0.970 . S
H25 C35 0.970 . S
H26 C37 0.930 . S
H27 C39 0.930 1_655 S
H28 C41 0.930 . S
C29 H21 0.930 . S
C29 C30 1.382 . S
C29 C31 1.426 . S
C30 C29 1.382 . S
C30 C34 1.389 . S
C31 C29 1.426 . S
C31 C32 1.375 . S
C31 C35 1.532 . S
C32 H22 0.930 . S
C32 C31 1.375 . S
C32 C33 1.416 . S
C33 C32 1.416 . S
C33 C34 1.371 . S
C34 H23 0.930 . S
C34 C30 1.389 . S
C34 C33 1.371 . S
C35 H24 0.970 . S
C35 H25 0.970 . S
C35 C31 1.532 . S
C35 C36 1.499 . S
C36 C35 1.499 . S
C36 C37 1.370 . S
C36 C41 1.415 . S
C37 H26 0.930 . S
C37 C36 1.370 . S
C37 C38 1.407 . S
C38 C37 1.407 . S
C38 C39 1.365 . S
C39 H27 0.930 1_455 S
C39 C38 1.365 . S
C39 C40 1.393 . S
C40 C39 1.393 . S
C40 C41 1.387 . S
C41 H28 0.930 . S
C41 C36 1.415 . S
C41 C40 1.387 . S
Li42 N59 1.990 . S
Li42 O102 1.956 . S
Li42 O103 1.970 1_455 S
Li42 O104 1.961 . S
Li43 N67 1.990 . S
Li43 O102 1.970 1_565 S
Li43 O103 1.956 1_465 S
Li43 O105 1.961 . S
Li44 N89 1.990 . S
Li44 O102 1.961 . S
Li44 O104 1.956 . S
Li44 O105 1.970 1_545 S
Li45 N95 1.990 . S
Li45 O103 1.961 . S
Li45 O104 1.970 1_655 S
Li45 O105 1.956 1_645 S
C46 C48 1.342 1_545 S
C46 C49 1.356 . S
C46 O102 1.325 . S
N47 C50 1.314 . S
N47 C51 1.279 . S
C48 C46 1.342 1_565 S
C48 C50 1.352 1_565 S
C48 H106 0.935 . S
C49 C46 1.356 . S
C49 C51 1.358 . S
C49 H107 0.930 . S
C50 N47 1.314 . S
C50 C48 1.352 1_545 S
C50 H108 0.930 1_545 S
C51 N47 1.279 . S
C51 C49 1.358 . S
C51 H109 0.930 . S
C52 C55 1.348 . S
C52 C56 1.356 1_545 S
C52 O103 1.325 . S
C53 N54 1.279 1_565 S
C53 C56 1.358 . S
C53 H110 0.930 . S
N54 C53 1.279 1_545 S
N54 C57 1.314 . S
C55 C52 1.348 . S
C55 C57 1.353 . S
C55 H111 0.929 . S
C56 C52 1.356 1_565 S
C56 C53 1.358 . S
C56 H112 0.930 . S
C57 N54 1.314 . S
C57 C55 1.353 . S
C57 H113 0.930 . S
C58 N59 1.314 . S
C58 C63 1.352 1_455 S
C58 H64 0.930 1_455 S
N59 Li42 1.990 . S
N59 C58 1.314 . S
N59 C61 1.279 . S
C60 C61 1.358 . S
C60 C62 1.356 . S
C60 H114 0.930 . S
C61 N59 1.279 . S
C61 C60 1.358 . S
C61 H65 0.930 . S
C62 C60 1.356 . S
C62 C63 1.336 1_455 S
C63 C58 1.352 1_655 S
C63 C62 1.336 1_655 S
C63 H115 0.943 . S
H64 C58 0.930 1_655 S
H65 C61 0.930 . S
C66 N67 1.314 . S
C66 C68 1.353 . S
C66 H72 0.930 . S
N67 Li43 1.990 . S
N67 C66 1.314 . S
N67 C70 1.279 1_455 S
C68 C66 1.353 . S
C68 C71 1.348 . S
C68 H116 0.929 . S
C69 C70 1.358 . S
C69 C71 1.356 1_655 S
C69 H117 0.930 . S
C70 N67 1.279 1_655 S
C70 C69 1.358 . S
C70 H73 0.930 . S
C71 C68 1.348 . S
C71 C69 1.356 1_455 S
H72 C66 0.930 . S
H73 C70 0.930 . S
C74 C76 1.342 1_455 S
C74 C77 1.356 . S
C74 O104 1.325 . S
N75 C78 1.314 . S
N75 C79 1.279 . S
C76 C74 1.342 1_655 S
C76 C78 1.352 1_655 S
C76 H118 0.935 . S
C77 C74 1.356 . S
C77 C79 1.358 . S
C77 H119 0.930 . S
C78 N75 1.314 . S
C78 C76 1.352 1_455 S
C78 H120 0.930 1_455 S
C79 N75 1.279 . S
C79 C77 1.358 . S
C79 H121 0.930 . S
C80 C81 1.348 . S
C80 C82 1.356 1_455 S
C80 O105 1.325 . S
C81 C80 1.348 . S
C81 C83 1.353 . S
C81 H122 0.929 . S
C82 C80 1.356 1_655 S
C82 C84 1.358 . S
C82 H123 0.930 . S
C83 C81 1.353 . S
C83 N85 1.314 . S
C83 H124 0.930 . S
C84 C82 1.358 . S
C84 N85 1.279 1_655 S
C84 H125 0.930 . S
N85 C83 1.314 . S
N85 C84 1.279 1_455 S
C86 C88 1.352 1_545 S
C86 N89 1.314 . S
C86 H92 0.930 1_545 S
C87 N89 1.279 . S
C87 C90 1.358 . S
C87 H93 0.930 . S
C88 C86 1.352 1_565 S
C88 C91 1.336 1_565 S
C88 H126 0.943 . S
N89 Li44 1.990 . S
N89 C86 1.314 . S
N89 C87 1.279 . S
C90 C87 1.358 . S
C90 C91 1.356 . S
C90 H127 0.930 . S
C91 C88 1.336 1_545 S
C91 C90 1.356 . S
H92 C86 0.930 1_565 S
H93 C87 0.930 . S
C94 N95 1.314 . S
C94 C96 1.353 . S
C94 H100 0.930 . S
N95 Li45 1.990 . S
N95 C94 1.314 . S
N95 C98 1.279 1_545 S
C96 C94 1.353 . S
C96 C99 1.348 . S
C96 H128 0.929 . S
C97 C98 1.358 . S
C97 C99 1.356 1_565 S
C97 H129 0.930 . S
C98 N95 1.279 1_565 S
C98 C97 1.358 . S
C98 H101 0.930 . S
C99 C96 1.348 . S
C99 C97 1.356 1_545 S
H100 C94 0.930 . S
H101 C98 0.930 . S
O102 Li42 1.956 . S
O102 Li43 1.970 1_545 S
O102 Li44 1.961 . S
O102 C46 1.325 . S
O103 Li42 1.970 1_655 S
O103 Li43 1.956 1_645 S
O103 Li45 1.961 . S
O103 C52 1.325 . S
O104 Li42 1.961 . S
O104 Li44 1.956 . S
O104 Li45 1.970 1_455 S
O104 C74 1.325 . S
O105 Li43 1.961 . S
O105 Li44 1.970 1_565 S
O105 Li45 1.956 1_465 S
O105 C80 1.325 . S
H106 C48 0.935 . S
H107 C49 0.930 . S
H108 C50 0.930 1_565 S
H109 C51 0.930 . S
H110 C53 0.930 . S
H111 C55 0.929 . S
H112 C56 0.930 . S
H113 C57 0.930 . S
H114 C60 0.930 . S
H115 C63 0.943 . S
H116 C68 0.929 . S
H117 C69 0.930 . S
H118 C76 0.935 . S
H119 C77 0.930 . S
H120 C78 0.930 1_655 S
H121 C79 0.930 . S
H122 C81 0.929 . S
H123 C82 0.930 . S
H124 C83 0.930 . S
H125 C84 0.930 . S
H126 C88 0.943 . S
H127 C90 0.930 . S
H128 C96 0.929 . S
H129 C97 0.930 . S
Li130 N147 1.990 . S
Li130 O190 1.956 1_655 S
Li130 O191 1.970 1_645 S
Li130 O192 1.961 . S
Li131 N155 1.990 . S
Li131 O190 1.970 . S
Li131 O191 1.956 1_545 S
Li131 O193 1.961 . S
Li132 N177 1.990 . S
Li132 O190 1.961 . S
Li132 O192 1.956 1_455 S
Li132 O193 1.970 . S
Li133 N183 1.990 . S
Li133 O191 1.961 . S
Li133 O192 1.970 1_465 S
Li133 O193 1.956 1_565 S
C134 C136 1.348 . S
C134 C137 1.356 1_455 S
C134 O190 1.325 . S
N135 C138 1.314 . S
N135 C139 1.279 1_455 S
C136 C134 1.348 . S
C136 C138 1.353 . S
C136 H194 0.929 . S
C137 C134 1.356 1_655 S
C137 C139 1.358 . S
C137 H195 0.930 . S
C138 N135 1.314 . S
C138 C136 1.353 . S
C138 H196 0.930 . S
C139 N135 1.279 1_655 S
C139 C137 1.358 . S
C139 H197 0.930 . S
C140 C143 1.348 1_455 S
C140 C144 1.356 . S
C140 O191 1.325 . S
C141 N142 1.279 . S
C141 C144 1.358 . S
C141 H198 0.930 . S
N142 C141 1.279 . S
N142 C145 1.322 . S
C143 C140 1.348 1_655 S
C143 C145 1.352 1_655 S
C143 H199 0.929 . S
C144 C140 1.356 . S
C144 C141 1.358 . S
C144 H200 0.930 . S
C145 N142 1.322 . S
C145 C143 1.352 1_455 S
C145 H201 0.921 1_455 S
C146 N147 1.330 . S
C146 C151 1.351 1_545 S
C146 H152 0.914 1_545 S
N147 Li130 1.990 . S
N147 C146 1.330 . S
N147 C149 1.279 . S
C148 C149 1.358 . S
C148 C150 1.356 . S
C148 H202 0.930 . S
C149 N147 1.279 . S
C149 C148 1.358 . S
C149 H153 0.930 . S
C150 C148 1.356 . S
C150 C151 1.348 1_545 S
C151 C146 1.351 1_565 S
C151 C150 1.348 1_565 S
C151 H203 0.929 . S
H152 C146 0.914 1_565 S
H153 C149 0.930 . S
C154 N155 1.314 . S
C154 C156 1.353 . S
C154 H160 0.930 . S
N155 Li131 1.990 . S
N155 C154 1.314 . S
N155 C158 1.279 1_545 S
C156 C154 1.353 . S
C156 C159 1.348 . S
C156 H204 0.929 . S
C157 C158 1.358 . S
C157 C159 1.356 1_565 S
C157 H205 0.930 . S
C158 N155 1.279 1_565 S
C158 C157 1.358 . S
C158 H161 0.930 . S
C159 C156 1.348 . S
C159 C157 1.356 1_545 S
H160 C154 0.930 . S
H161 C158 0.930 . S
C162 C164 1.348 1_545 S
C162 C165 1.356 . S
C162 O192 1.325 . S
N163 C166 1.323 . S
N163 C167 1.279 . S
C164 C162 1.348 1_565 S
C164 C166 1.352 1_565 S
C164 H206 0.929 . S
C165 C162 1.356 . S
C165 C167 1.358 . S
C165 H207 0.930 . S
C166 N163 1.323 . S
C166 C164 1.352 1_545 S
C166 H208 0.921 1_545 S
C167 N163 1.279 . S
C167 C165 1.358 . S
C167 H209 0.930 . S
C168 C169 1.348 . S
C168 C170 1.356 1_545 S
C168 O193 1.325 . S
C169 C168 1.348 . S
C169 C171 1.353 . S
C169 H210 0.929 . S
C170 C168 1.356 1_565 S
C170 C172 1.358 . S
C170 H211 0.930 . S
C171 C169 1.353 . S
C171 N173 1.314 . S
C171 H212 0.930 . S
C172 C170 1.358 . S
C172 N173 1.279 1_565 S
C172 H213 0.930 . S
N173 C171 1.314 . S
N173 C172 1.279 1_545 S
C174 C176 1.353 . S
C174 N177 1.314 . S
C174 H180 0.930 . S
C175 N177 1.279 1_655 S
C175 C178 1.358 . S
C175 H181 0.930 . S
C176 C174 1.353 . S
C176 C179 1.348 . S
C176 H214 0.929 . S
N177 Li132 1.990 . S
N177 C174 1.314 . S
N177 C175 1.279 1_455 S
C178 C175 1.358 . S
C178 C179 1.356 1_655 S
C178 H215 0.930 . S
C179 C176 1.348 . S
C179 C178 1.356 1_455 S
H180 C174 0.930 . S
H181 C175 0.930 . S
C182 N183 1.330 . S
C182 C184 1.351 1_455 S
C182 H188 0.914 1_455 S
N183 Li133 1.990 . S
N183 C182 1.330 . S
N183 C186 1.279 . S
C184 C182 1.351 1_655 S
C184 C187 1.348 1_655 S
C184 H216 0.929 . S
C185 C186 1.358 . S
C185 C187 1.356 . S
C185 H217 0.930 . S
C186 N183 1.279 . S
C186 C185 1.358 . S
C186 H189 0.930 . S
C187 C184 1.348 1_455 S
C187 C185 1.356 . S
H188 C182 0.914 1_655 S
H189 C186 0.930 . S
O190 Li130 1.956 1_455 S
O190 Li131 1.970 . S
O190 Li132 1.961 . S
O190 C134 1.325 . S
O191 Li130 1.970 1_465 S
O191 Li131 1.956 1_565 S
O191 Li133 1.961 . S
O191 C140 1.325 . S
O192 Li130 1.961 . S
O192 Li132 1.956 1_655 S
O192 Li133 1.970 1_645 S
O192 C162 1.325 . S
O193 Li131 1.961 . S
O193 Li132 1.970 . S
O193 Li133 1.956 1_545 S
O193 C168 1.325 . S
H194 C136 0.929 . S
H195 C137 0.930 . S
H196 C138 0.930 . S
H197 C139 0.930 . S
H198 C141 0.930 . S
H199 C143 0.929 . S
H200 C144 0.930 . S
H201 C145 0.921 1_655 S
H202 C148 0.930 . S
H203 C151 0.929 . S
H204 C156 0.929 . S
H205 C157 0.930 . S
H206 C164 0.929 . S
H207 C165 0.930 . S
H208 C166 0.921 1_565 S
H209 C167 0.930 . S
H210 C169 0.929 . S
H211 C170 0.930 . S
H212 C171 0.930 . S
H213 C172 0.930 . S
H214 C176 0.929 . S
H215 C178 0.930 . S
H216 C184 0.929 . S
H217 C185 0.930 . S
H218 C236 0.951 . S
H219 C238 0.951 . S
H220 C240 0.950 . S
H221 C241 0.950 . S
H222 C243 0.950 . S
H223 C246 0.950 . S
H224 C247 0.950 . S
H225 C249 0.950 . S
H226 C250 0.950 . S
H227 C251 0.951 . S
H228 C253 0.951 . S
H229 C255 0.950 . S
H230 C256 0.950 . S
H231 C258 0.950 . S
H232 C261 0.950 . S
H233 C262 0.950 . S
H234 C264 0.950 . S
H235 C265 0.950 . S
C236 H218 0.951 . S
C236 C237 1.366 1_565 S
C236 C238 1.388 . S
C237 C236 1.366 1_545 S
C237 C241 1.385 . S
C238 H219 0.951 . S
C238 C236 1.388 . S
C238 C239 1.366 1_565 S
C239 C238 1.366 1_545 S
C239 C240 1.414 . S
C239 C242 1.499 . S
C240 H220 0.950 . S
C240 C239 1.414 . S
C240 C241 1.374 . S
C241 H221 0.950 . S
C241 C237 1.385 . S
C241 C240 1.374 . S
C242 C239 1.499 . S
C242 C243 1.373 . S
C242 C244 1.389 1_545 S
C243 H222 0.950 . S
C243 C242 1.373 . S
C243 C259 1.377 . S
C244 C242 1.389 1_565 S
C244 C245 1.524 . S
C244 C258 1.377 . S
C245 C244 1.524 . S
C245 C246 1.397 . S
C245 C250 1.363 . S
C246 H223 0.950 . S
C246 C245 1.397 . S
C246 C247 1.334 . S
C247 H224 0.950 . S
C247 C246 1.334 . S
C247 C248 1.287 . S
C248 C247 1.287 . S
C248 C249 1.524 . S
C248 H267 0.913 . S
C249 H225 0.950 . S
C249 C248 1.524 . S
C249 C250 1.415 . S
C250 H226 0.950 . S
C250 C245 1.363 . S
C250 C249 1.415 . S
C251 H227 0.951 . S
C251 C252 1.366 . S
C251 C253 1.388 . S
C252 C251 1.366 . S
C252 C256 1.385 1_545 S
C253 H228 0.951 . S
C253 C251 1.388 . S
C253 C254 1.366 . S
C254 C253 1.366 . S
C254 C255 1.414 1_545 S
C254 C257 1.499 . S
C255 H229 0.950 . S
C255 C254 1.414 1_565 S
C255 C256 1.374 . S
C256 H230 0.950 . S
C256 C252 1.385 1_565 S
C256 C255 1.374 . S
C257 C254 1.499 . S
C257 C258 1.373 1_545 S
C257 C259 1.389 . S
C258 H231 0.950 . S
C258 C244 1.377 . S
C258 C257 1.373 1_565 S
C259 C243 1.377 . S
C259 C257 1.389 . S
C259 C260 1.524 . S
C260 C259 1.524 . S
C260 C261 1.397 . S
C260 C265 1.363 . S
C261 H232 0.950 . S
C261 C260 1.397 . S
C261 C262 1.334 . S
C262 H233 0.950 . S
C262 C261 1.334 . S
C262 C263 1.287 . S
C263 C262 1.287 . S
C263 C264 1.524 . S
C263 H266 0.999 . S
C264 H234 0.950 . S
C264 C263 1.524 . S
C264 C265 1.415 . S
C265 H235 0.950 . S
C265 C260 1.363 . S
C265 C264 1.415 . S
H266 C263 0.999 . S
H267 C248 0.913 . S
H268 C286 0.951 . S
H269 C288 0.951 . S
H270 C290 0.950 . S
H271 C291 0.950 . S
H272 C293 0.950 1_655 S
H273 C296 0.950 . S
H274 C297 0.950 . S
H275 C299 0.950 . S
H276 C300 0.950 . S
H277 C301 0.951 . S
H278 C303 0.951 . S
H279 C305 0.956 . S
H280 C306 0.956 . S
H281 C308 0.950 . S
H282 C311 0.950 . S
H283 C312 0.950 . S
H284 C314 0.950 . S
H285 C315 0.950 1_455 S
C286 H268 0.951 . S
C286 C287 1.366 . S
C286 C288 1.388 . S
C287 C286 1.366 . S
C287 C291 1.385 . S
C288 H269 0.951 . S
C288 C286 1.388 . S
C288 C289 1.366 . S
C289 C288 1.366 . S
C289 C290 1.414 . S
C289 C292 1.499 . S
C290 H270 0.950 . S
C290 C289 1.414 . S
C290 C291 1.374 . S
C291 H271 0.950 . S
C291 C287 1.385 . S
C291 C290 1.374 . S
C292 C289 1.499 . S
C292 C293 1.373 . S
C292 C294 1.389 . S
C293 H272 0.950 1_455 S
C293 C292 1.373 . S
C293 C309 1.377 . S
C294 C292 1.389 . S
C294 C295 1.524 . S
C294 C308 1.377 . S
C295 C294 1.524 . S
C295 C296 1.397 . S
C295 C300 1.363 . S
C296 H273 0.950 . S
C296 C295 1.397 . S
C296 C297 1.334 . S
C297 H274 0.950 . S
C297 C296 1.334 . S
C297 C298 1.287 . S
C298 C297 1.287 . S
C298 C299 1.524 . S
C298 H317 0.913 . S
C299 H275 0.950 . S
C299 C298 1.524 . S
C299 C300 1.415 . S
C300 H276 0.950 . S
C300 C295 1.363 . S
C300 C299 1.415 . S
C301 H277 0.951 . S
C301 C302 1.366 . S
C301 C303 1.388 . S
C302 C301 1.366 . S
C302 C306 1.385 . S
C303 H278 0.951 . S
C303 C301 1.388 . S
C303 C304 1.366 . S
C304 C303 1.366 . S
C304 C305 1.414 . S
C304 C307 1.499 . S
C305 H279 0.956 . S
C305 C304 1.414 . S
C305 C306 1.374 . S
C306 H280 0.956 . S
C306 C302 1.385 . S
C306 C305 1.374 . S
C307 C304 1.499 . S
C307 C308 1.373 . S
C307 C309 1.389 . S
C308 H281 0.950 . S
C308 C294 1.377 . S
C308 C307 1.373 . S
C309 C293 1.377 . S
C309 C307 1.389 . S
C309 C310 1.524 1_455 S
C310 C309 1.524 1_655 S
C310 C311 1.397 . S
C310 C315 1.363 . S
C311 H282 0.950 . S
C311 C310 1.397 . S
C311 C312 1.334 . S
C312 H283 0.950 . S
C312 C311 1.334 . S
C312 C313 1.287 . S
C313 C312 1.287 . S
C313 C314 1.524 . S
C313 H316 0.999 . S
C314 H284 0.950 . S
C314 C313 1.524 . S
C314 C315 1.415 . S
C315 H285 0.950 1_655 S
C315 C310 1.363 . S
C315 C314 1.415 . S
H316 C313 0.999 . S
H317 C298 0.913 . S
H318 C336 0.951 . S
H319 C338 0.951 . S
H320 C340 0.958 . S
H321 C341 0.950 . S
H322 C343 0.950 . S
H323 C346 0.950 . S
H324 C347 0.950 . S
H325 C349 0.950 1_556 S
H326 C350 0.950 1_545 S
H327 C351 0.956 . S
H328 C353 0.951 . S
H329 C355 0.950 . S
H330 C356 0.950 . S
H331 C358 0.950 1_565 S
H332 C361 0.950 . S
H333 C362 0.950 . S
H334 C364 0.950 . S
H335 C365 0.950 . S
C336 H318 0.951 . S
C336 C337 1.366 . S
C336 C338 1.388 . S
C337 C336 1.366 . S
C337 C341 1.385 . S
C338 H319 0.951 . S
C338 C336 1.388 . S
C338 C339 1.366 . S
C339 C338 1.366 . S
C339 C340 1.414 . S
C339 C342 1.499 . S
C340 H320 0.958 . S
C340 C339 1.414 . S
C340 C341 1.374 . S
C341 H321 0.950 . S
C341 C337 1.385 . S
C341 C340 1.374 . S
C342 C339 1.499 . S
C342 C343 1.373 . S
C342 C344 1.389 . S
C343 H322 0.950 . S
C343 C342 1.373 . S
C343 C359 1.377 . S
C344 C342 1.389 . S
C344 C345 1.524 1_545 S
C344 C358 1.377 . S
C345 C344 1.524 1_565 S
C345 C346 1.397 . S
C345 C350 1.363 . S
C346 H323 0.950 . S
C346 C345 1.397 . S
C346 C347 1.334 . S
C347 H324 0.950 . S
C347 C346 1.334 . S
C347 C348 1.287 . S
C348 C347 1.287 . S
C348 C349 1.524 . S
C348 H367 0.913 1_554 S
C349 H325 0.950 1_554 S
C349 C348 1.524 . S
C349 C350 1.415 . S
C350 H326 0.950 1_565 S
C350 C345 1.363 . S
C350 C349 1.415 . S
C351 H327 0.956 . S
C351 C352 1.366 . S
C351 C353 1.388 . S
C352 C351 1.366 . S
C352 C356 1.385 . S
C353 H328 0.951 . S
C353 C351 1.388 . S
C353 C354 1.366 . S
C354 C353 1.366 . S
C354 C355 1.414 . S
C354 C357 1.499 . S
C355 H329 0.950 . S
C355 C354 1.414 . S
C355 C356 1.374 . S
C356 H330 0.950 . S
C356 C352 1.385 . S
C356 C355 1.374 . S
C357 C354 1.499 . S
C357 C358 1.373 . S
C357 C359 1.389 . S
C358 H331 0.950 1_545 S
C358 C344 1.377 . S
C358 C357 1.373 . S
C359 C343 1.377 . S
C359 C357 1.389 . S
C359 C360 1.524 . S
C360 C359 1.524 . S
C360 C361 1.397 . S
C360 C365 1.363 . S
C361 H332 0.950 . S
C361 C360 1.397 . S
C361 C362 1.334 . S
C362 H333 0.950 . S
C362 C361 1.334 . S
C362 C363 1.287 . S
C363 C362 1.287 . S
C363 C364 1.524 . S
C363 H366 0.999 . S
C364 H334 0.950 . S
C364 C363 1.524 . S
C364 C365 1.415 . S
C365 H335 0.950 . S
C365 C360 1.363 . S
C365 C364 1.415 . S
H366 C363 0.999 . S
H367 C348 0.913 1_556 S
H368 C386 0.951 1_655 S
H369 C388 0.951 1_655 S
H370 C390 0.950 . S
H371 C391 0.950 . S
H372 C393 0.950 . S
H373 C396 0.950 . S
H374 C397 0.950 . S
H375 C399 0.950 . S
H376 C400 0.950 . S
H377 C401 0.951 . S
H378 C403 0.951 . S
H379 C405 0.950 1_655 S
H380 C406 0.950 1_655 S
H381 C408 0.950 . S
H382 C411 0.950 . S
H383 C412 0.950 . S
H384 C414 0.950 . S
H385 C415 0.950 . S
C386 H368 0.951 1_455 S
C386 C387 1.366 . S
C386 C388 1.388 . S
C387 C386 1.366 . S
C387 C391 1.385 . S
C388 H369 0.951 1_455 S
C388 C386 1.388 . S
C388 C389 1.366 . S
C389 C388 1.366 . S
C389 C390 1.414 . S
C389 C392 1.499 . S
C390 H370 0.950 . S
C390 C389 1.414 . S
C390 C391 1.374 . S
C391 H371 0.950 . S
C391 C387 1.385 . S
C391 C390 1.374 . S
C392 C389 1.499 . S
C392 C393 1.373 . S
C392 C394 1.389 1_455 S
C393 H372 0.950 . S
C393 C392 1.373 . S
C393 C409 1.377 . S
C394 C392 1.389 1_655 S
C394 C395 1.524 . S
C394 C408 1.377 . S
C395 C394 1.524 . S
C395 C396 1.397 . S
C395 C400 1.363 . S
C396 H373 0.950 . S
C396 C395 1.397 . S
C396 C397 1.334 . S
C397 H374 0.950 . S
C397 C396 1.334 . S
C397 C398 1.287 . S
C398 C397 1.287 . S
C398 C399 1.524 . S
C398 H417 0.913 . S
C399 H375 0.950 . S
C399 C398 1.524 . S
C399 C400 1.415 . S
C400 H376 0.950 . S
C400 C395 1.363 . S
C400 C399 1.415 . S
C401 H377 0.951 . S
C401 C402 1.366 . S
C401 C403 1.388 . S
C402 C401 1.366 . S
C402 C406 1.385 . S
C403 H378 0.951 . S
C403 C401 1.388 . S
C403 C404 1.366 . S
C404 C403 1.366 . S
C404 C405 1.414 . S
C404 C407 1.499 . S
C405 H379 0.950 1_455 S
C405 C404 1.414 . S
C405 C406 1.374 . S
C406 H380 0.950 1_455 S
C406 C402 1.385 . S
C406 C405 1.374 . S
C407 C404 1.499 . S
C407 C408 1.373 1_455 S
C407 C409 1.389 . S
C408 H381 0.950 . S
C408 C394 1.377 . S
C408 C407 1.373 1_655 S
C409 C393 1.377 . S
C409 C407 1.389 . S
C409 C410 1.524 . S
C410 C409 1.524 . S
C410 C411 1.397 . S
C410 C415 1.363 . S
C411 H382 0.950 . S
C411 C410 1.397 . S
C411 C412 1.334 . S
C412 H383 0.950 . S
C412 C411 1.334 . S
C412 C413 1.287 . S
C413 C412 1.287 . S
C413 C414 1.524 . S
C413 H416 0.999 . S
C414 H384 0.950 . S
C414 C413 1.524 . S
C414 C415 1.415 . S
C415 H385 0.950 . S
C415 C410 1.363 . S
C415 C414 1.415 . S
H416 C413 0.999 . S
H417 C398 0.913 . S
H418 C436 0.951 . S
H419 C438 0.951 . S
H420 C440 0.950 . S
H421 C441 0.950 . S
H422 C443 0.950 . S
H423 C446 0.950 . S
H424 C447 0.950 1_554 S
H425 C449 0.950 . S
H426 C450 0.950 . S
H427 C451 0.951 . S
H428 C453 0.951 . S
H429 C455 0.950 . S
H430 C456 0.950 . S
H431 C458 0.950 . S
H432 C461 0.950 1_545 S
H433 C462 0.950 . S
H434 C464 0.950 . S
H435 C465 0.950 . S
C436 H418 0.951 . S
C436 C437 1.366 . S
C436 C438 1.388 . S
C437 C436 1.366 . S
C437 C441 1.385 1_545 S
C438 H419 0.951 . S
C438 C436 1.388 . S
C438 C439 1.366 . S
C439 C438 1.366 . S
C439 C440 1.414 1_545 S
C439 C442 1.499 . S
C440 H420 0.950 . S
C440 C439 1.414 1_565 S
C440 C441 1.374 . S
C441 H421 0.950 . S
C441 C437 1.385 1_565 S
C441 C440 1.374 . S
C442 C439 1.499 . S
C442 C443 1.373 1_545 S
C442 C444 1.389 . S
C443 H422 0.950 . S
C443 C442 1.373 1_565 S
C443 C459 1.377 . S
C444 C442 1.389 . S
C444 C445 1.524 . S
C444 C458 1.377 . S
C445 C444 1.524 . S
C445 C446 1.397 . S
C445 C450 1.363 . S
C446 H423 0.950 . S
C446 C445 1.397 . S
C446 C447 1.334 . S
C447 H424 0.950 1_556 S
C447 C446 1.334 . S
C447 C448 1.287 . S
C448 C447 1.287 . S
C448 C449 1.524 . S
C448 H467 0.913 1_556 S
C449 H425 0.950 . S
C449 C448 1.524 . S
C449 C450 1.415 . S
C450 H426 0.950 . S
C450 C445 1.363 . S
C450 C449 1.415 . S
C451 H427 0.951 . S
C451 C452 1.366 1_565 S
C451 C453 1.388 . S
C452 C451 1.366 1_545 S
C452 C456 1.385 . S
C453 H428 0.951 . S
C453 C451 1.388 . S
C453 C454 1.366 1_565 S
C454 C453 1.366 1_545 S
C454 C455 1.414 . S
C454 C457 1.499 . S
C455 H429 0.950 . S
C455 C454 1.414 . S
C455 C456 1.374 . S
C456 H430 0.950 . S
C456 C452 1.385 . S
C456 C455 1.374 . S
C457 C454 1.499 . S
C457 C458 1.373 . S
C457 C459 1.378 1_545 S
C458 H431 0.950 . S
C458 C444 1.377 . S
C458 C457 1.373 . S
C459 C443 1.377 . S
C459 C457 1.378 1_565 S
C459 C460 1.535 . S
C460 C459 1.535 . S
C460 C461 1.397 . S
C460 C465 1.363 . S
C461 H432 0.950 1_565 S
C461 C460 1.397 . S
C461 C462 1.334 . S
C462 H433 0.950 . S
C462 C461 1.334 . S
C462 C463 1.287 . S
C463 C462 1.287 . S
C463 C464 1.524 . S
C463 H466 0.999 . S
C464 H434 0.950 . S
C464 C463 1.524 . S
C464 C465 1.415 . S
C465 H435 0.950 . S
C465 C460 1.363 . S
C465 C464 1.415 . S
H466 C463 0.999 . S
H467 C448 0.913 1_554 S
H468 C486 0.951 . S
H469 C488 0.951 . S
H470 C490 0.950 . S
H471 C491 0.950 . S
H472 C493 0.950 . S
H473 C496 0.950 . S
H474 C497 0.950 . S
H475 C499 0.950 . S
H476 C500 0.950 . S
H477 C501 0.951 . S
H478 C503 0.951 . S
H479 C505 0.950 . S
H480 C506 0.950 . S
H481 C508 0.950 . S
H482 C511 0.950 . S
H483 C512 0.950 . S
H484 C514 0.950 . S
H485 C515 0.950 . S
C486 H468 0.951 . S
C486 C487 1.366 . S
C486 C488 1.388 . S
C487 C486 1.366 . S
C487 C491 1.385 1_455 S
C488 H469 0.951 . S
C488 C486 1.388 . S
C488 C489 1.366 . S
C489 C488 1.366 . S
C489 C490 1.414 1_455 S
C489 C492 1.499 . S
C490 H470 0.950 . S
C490 C489 1.414 1_655 S
C490 C491 1.374 . S
C491 H471 0.950 . S
C491 C487 1.385 1_655 S
C491 C490 1.374 . S
C492 C489 1.499 . S
C492 C493 1.373 1_455 S
C492 C494 1.389 . S
C493 H472 0.950 . S
C493 C492 1.373 1_655 S
C493 C509 1.377 . S
C494 C492 1.389 . S
C494 C495 1.524 . S
C494 C508 1.377 . S
C495 C494 1.524 . S
C495 C496 1.397 . S
C495 C500 1.363 . S
C496 H473 0.950 . S
C496 C495 1.397 . S
C496 C497 1.334 . S
C497 H474 0.950 . S
C497 C496 1.334 . S
C497 C498 1.287 . S
C498 C497 1.287 . S
C498 C499 1.524 . S
C498 H517 0.913 . S
C499 H475 0.950 . S
C499 C498 1.524 . S
C499 C500 1.415 . S
C500 H476 0.950 . S
C500 C495 1.363 . S
C500 C499 1.415 . S
C501 H477 0.951 . S
C501 C502 1.366 1_655 S
C501 C503 1.388 . S
C502 C501 1.366 1_455 S
C502 C506 1.385 . S
C503 H478 0.951 . S
C503 C501 1.388 . S
C503 C504 1.366 1_655 S
C504 C503 1.366 1_455 S
C504 C505 1.414 . S
C504 C507 1.499 . S
C505 H479 0.950 . S
C505 C504 1.414 . S
C505 C506 1.374 . S
C506 H480 0.950 . S
C506 C502 1.385 . S
C506 C505 1.374 . S
C507 C504 1.499 . S
C507 C508 1.373 . S
C507 C509 1.389 1_455 S
C508 H481 0.950 . S
C508 C494 1.377 . S
C508 C507 1.373 . S
C509 C493 1.377 . S
C509 C507 1.389 1_655 S
C509 C510 1.524 . S
C510 C509 1.524 . S
C510 C511 1.397 . S
C510 C515 1.363 . S
C511 H482 0.950 . S
C511 C510 1.397 . S
C511 C512 1.334 . S
C512 H483 0.950 . S
C512 C511 1.334 . S
C512 C513 1.287 . S
C513 C512 1.287 . S
C513 C514 1.524 . S
C513 H516 0.999 . S
C514 H484 0.950 . S
C514 C513 1.524 . S
C514 C515 1.415 . S
C515 H485 0.950 . S
C515 C510 1.363 . S
C515 C514 1.415 . S
H516 C513 0.999 . S
H517 C498 0.913 . S
H518 C536 0.951 . S
H519 C538 0.951 . S
H520 C540 0.950 . S
H521 C541 0.960 . S
H522 C543 0.950 . S
H523 C546 0.950 . S
H524 C547 0.950 . S
H525 C549 0.950 . S
H526 C550 0.925 1_545 S
H527 C551 0.951 1_565 S
H528 C553 0.951 1_565 S
H529 C555 0.950 . S
H530 C556 0.950 . S
H531 C558 0.949 1_565 S
H532 C561 0.950 . S
H533 C562 0.950 . S
H534 C564 0.950 . S
H535 C565 0.950 . S
C536 H518 0.951 . S
C536 C537 1.366 . S
C536 C538 1.388 . S
C537 C536 1.366 . S
C537 C541 1.375 1_545 S
C538 H519 0.951 . S
C538 C536 1.388 . S
C538 C539 1.366 . S
C539 C538 1.366 . S
C539 C540 1.414 1_545 S
C539 C542 1.499 . S
C540 H520 0.950 . S
C540 C539 1.414 1_565 S
C540 C541 1.374 . S
C541 H521 0.960 . S
C541 C537 1.375 1_565 S
C541 C540 1.374 . S
C542 C539 1.499 . S
C542 C543 1.373 . S
C542 C544 1.389 . S
C543 H522 0.950 . S
C543 C542 1.373 . S
C543 C559 1.377 . S
C544 C542 1.389 . S
C544 C545 1.524 1_545 S
C544 C558 1.377 . S
C545 C544 1.524 1_565 S
C545 C546 1.397 . S
C545 C550 1.374 . S
C546 H523 0.950 . S
C546 C545 1.397 . S
C546 C547 1.334 . S
C547 H524 0.950 . S
C547 C546 1.334 . S
C547 C548 1.287 . S
C548 C547 1.287 . S
C548 C549 1.524 . S
C548 H567 0.913 . S
C549 H525 0.950 . S
C549 C548 1.524 . S
C549 C550 1.429 . S
C550 H526 0.925 1_565 S
C550 C545 1.374 . S
C550 C549 1.429 . S
C551 H527 0.951 1_545 S
C551 C552 1.366 . S
C551 C553 1.388 . S
C552 C551 1.366 . S
C552 C556 1.385 . S
C553 H528 0.951 1_545 S
C553 C551 1.388 . S
C553 C554 1.366 . S
C554 C553 1.366 . S
C554 C555 1.414 . S
C554 C557 1.499 . S
C555 H529 0.950 . S
C555 C554 1.414 . S
C555 C556 1.374 . S
C556 H530 0.950 . S
C556 C552 1.385 . S
C556 C555 1.374 . S
C557 C554 1.499 . S
C557 C558 1.373 . S
C557 C559 1.389 . S
C558 H531 0.949 1_545 S
C558 C544 1.377 . S
C558 C557 1.373 . S
C559 C543 1.377 . S
C559 C557 1.389 . S
C559 C560 1.524 . S
C560 C559 1.524 . S
C560 C561 1.397 . S
C560 C565 1.363 . S
C561 H532 0.950 . S
C561 C560 1.397 . S
C561 C562 1.334 . S
C562 H533 0.950 . S
C562 C561 1.334 . S
C562 C563 1.287 . S
C563 C562 1.287 . S
C563 C564 1.524 . S
C563 H566 0.999 . S
C564 H534 0.950 . S
C564 C563 1.524 . S
C564 C565 1.415 . S
C565 H535 0.950 . S
C565 C560 1.363 . S
C565 C564 1.415 . S
H566 C563 0.999 . S
H567 C548 0.913 . S
H568 C586 0.951 . S
H569 C588 0.951 . S
H570 C590 0.950 . S
H571 C591 0.950 . S
H572 C593 0.950 . S
H573 C596 0.950 . S
H574 C597 0.950 . S
H575 C599 0.950 . S
H576 C600 0.950 . S
H577 C601 0.951 . S
H578 C603 0.951 . S
H579 C605 0.950 . S
H580 C606 0.950 . S
H581 C608 0.950 1_655 S
H582 C611 0.939 1_655 S
H583 C612 0.950 . S
H584 C614 0.950 . S
H585 C615 0.950 . S
C586 H568 0.951 . S
C586 C587 1.366 1_655 S
C586 C588 1.388 . S
C587 C586 1.366 1_455 S
C587 C591 1.385 . S
C588 H569 0.951 . S
C588 C586 1.388 . S
C588 C589 1.366 1_655 S
C589 C588 1.366 1_455 S
C589 C590 1.414 . S
C589 C592 1.499 . S
C590 H570 0.950 . S
C590 C589 1.414 . S
C590 C591 1.374 . S
C591 H571 0.950 . S
C591 C587 1.385 . S
C591 C590 1.374 . S
C592 C589 1.499 . S
C592 C593 1.373 . S
C592 C594 1.389 . S
C593 H572 0.950 . S
C593 C592 1.373 . S
C593 C609 1.377 . S
C594 C592 1.389 . S
C594 C595 1.524 1_455 S
C594 C608 1.377 . S
C595 C594 1.524 1_655 S
C595 C596 1.397 1_655 S
C595 C600 1.363 . S
C596 H573 0.950 . S
C596 C595 1.397 1_455 S
C596 C597 1.334 . S
C597 H574 0.950 . S
C597 C596 1.334 . S
C597 C598 1.287 1_455 S
C598 C597 1.287 1_655 S
C598 C599 1.524 . S
C598 H617 0.913 . S
C599 H575 0.950 . S
C599 C598 1.524 . S
C599 C600 1.415 . S
C600 H576 0.950 . S
C600 C595 1.363 . S
C600 C599 1.415 . S
C601 H577 0.951 . S
C601 C602 1.366 . S
C601 C603 1.388 . S
C602 C601 1.366 . S
C602 C606 1.385 1_455 S
C603 H578 0.951 . S
C603 C601 1.388 . S
C603 C604 1.366 . S
C604 C603 1.366 . S
C604 C605 1.414 1_455 S
C604 C607 1.499 . S
C605 H579 0.950 . S
C605 C604 1.414 1_655 S
C605 C606 1.374 . S
C606 H580 0.950 . S
C606 C602 1.385 1_655 S
C606 C605 1.374 . S
C607 C604 1.499 . S
C607 C608 1.373 . S
C607 C609 1.389 . S
C608 H581 0.950 1_455 S
C608 C594 1.377 . S
C608 C607 1.373 . S
C609 C593 1.377 . S
C609 C607 1.389 . S
C609 C610 1.524 . S
C610 C609 1.524 . S
C610 C611 1.397 . S
C610 C615 1.363 . S
C611 H582 0.939 1_455 S
C611 C610 1.397 . S
C611 C612 1.334 . S
C612 H583 0.950 . S
C612 C611 1.334 . S
C612 C613 1.287 . S
C613 C612 1.287 . S
C613 C614 1.524 . S
C613 H616 0.999 . S
C614 H584 0.950 . S
C614 C613 1.524 . S
C614 C615 1.415 . S
C615 H585 0.950 . S
C615 C610 1.363 . S
C615 C614 1.415 . S
H616 C613 0.999 . S
H617 C598 0.913 . S
C252 C91 1.571 . S
C237 C17 1.475 . S
C302 C179 1.559 . S
C287 C40 1.490 . S
C352 C99 1.574 . S
C337 C9 1.492 . S
C402 C187 1.564 . S
C387 C33 1.460 . S
C452 C159 1.559 . S
C437 C19 1.491 . S
C502 C62 1.571 . S
C487 C38 1.475 . S
C552 C150 1.563 . S
C537 C12 1.460 . S
C587 C30 1.491 . S
C602 C71 1.573 . S
