# Generated by pormake.
# Topology anh, (6,3)-cn, num edge types: 1
# Building blocks:
#     Node 0, Type 0, BuildingBlock: BETDEL_clean_sbu_0, # of connection points: 6
#     Node 1, Type 0, BuildingBlock: BETDEL_clean_sbu_0, # of connection points: 6
#     Node 2, Type 0, BuildingBlock: BETDEL_clean_sbu_0, # of connection points: 6
#     Node 3, Type 1, BuildingBlock: BELTOD_clean_linker_0, # of connection points: 3
#     Node 4, Type 1, BuildingBlock: BELTOD_clean_linker_0, # of connection points: 3
#     Node 5, Type 1, BuildingBlock: BELTOD_clean_linker_0, # of connection points: 3
#     Node 6, Type 1, BuildingBlock: BELTOD_clean_linker_0, # of connection points: 3
#     Node 7, Type 1, BuildingBlock: BELTOD_clean_linker_0, # of connection points: 3
#     Node 8, Type 1, BuildingBlock: BELTOD_clean_linker_0, # of connection points: 3
#     Edge 9, Type (0, 1), BuildingBlock: AJUNOK_clean_linker_0, # of connection points: 2
#     Edge 10, Type (0, 1), BuildingBlock: AJUNOK_clean_linker_0, # of connection points: 2
#     Edge 11, Type (0, 1), BuildingBlock: AJUNOK_clean_linker_0, # of connection points: 2
#     Edge 12, Type (0, 1), BuildingBlock: AJUNOK_clean_linker_0, # of connection points: 2
#     Edge 13, Type (0, 1), BuildingBlock: AJUNOK_clean_linker_0, # of connection points: 2
#     Edge 14, Type (0, 1), BuildingBlock: AJUNOK_clean_linker_0, # of connection points: 2
#     Edge 15, Type (0, 1), BuildingBlock: AJUNOK_clean_linker_0, # of connection points: 2
#     Edge 16, Type (0, 1), BuildingBlock: AJUNOK_clean_linker_0, # of connection points: 2
#     Edge 17, Type (0, 1), BuildingBlock: AJUNOK_clean_linker_0, # of connection points: 2
#     Edge 18, Type (0, 1), BuildingBlock: AJUNOK_clean_linker_0, # of connection points: 2
#     Edge 19, Type (0, 1), BuildingBlock: AJUNOK_clean_linker_0, # of connection points: 2
#     Edge 20, Type (0, 1), BuildingBlock: AJUNOK_clean_linker_0, # of connection points: 2
#     Edge 21, Type (0, 1), BuildingBlock: AJUNOK_clean_linker_0, # of connection points: 2
#     Edge 22, Type (0, 1), BuildingBlock: AJUNOK_clean_linker_0, # of connection points: 2
#     Edge 23, Type (0, 1), BuildingBlock: AJUNOK_clean_linker_0, # of connection points: 2
#     Edge 24, Type (0, 1), BuildingBlock: AJUNOK_clean_linker_0, # of connection points: 2
#     Edge 25, Type (0, 1), BuildingBlock: AJUNOK_clean_linker_0, # of connection points: 2
#     Edge 26, Type (0, 1), BuildingBlock: AJUNOK_clean_linker_0, # of connection points: 2
# Relax obj value: 0.141
# Max RMSD: 0.161
# Mean RMSD: 0.128
data_MOF--net-anh--node1-BETDEL_clean_sbu_0--node2-BELTOD_clean_linker_0--edge1-AJUNOK_clean_linker_0
_symmetry_space_group_name_H-M    P1
_symmetry_Int_Tables_number       1
_symmetry_cell_setting            triclinic
loop_
_symmetry_equiv_pos_as_xyz
'x, y, z'
_cell_length_a     25.72469
_cell_length_b     25.755784
_cell_length_c     44.954319
_cell_angle_alpha  90.280277
_cell_angle_beta   90.010264
_cell_angle_gamma 119.92377
loop_
_atom_site_label
_atom_site_type_symbol
_atom_site_fract_x
_atom_site_fract_y
_atom_site_fract_z
_atom_type_partial_charge
Dy0 Dy 0.05954 0.49716 0.16516 0.0
C1 C 0.902 0.5852 0.18326 0.0
C2 C 0.14061 0.46046 0.15427 0.0
Dy3 Dy 0.98976 0.55825 0.16982 0.0
O4 O 0.13325 0.48049 0.17943 0.0
O5 O 0.1033 0.46021 0.1347 0.0
O6 O 0.02338 0.45357 0.20887 0.0
O7 O 0.04234 0.54187 0.20241 0.0
C8 C 0.02218 0.49904 0.22063 0.0
C9 C 0.0286 0.55799 0.1146 0.0
O10 O 0.0782 0.63644 0.18304 0.0
O11 O 0.13084 0.59537 0.16147 0.0
O12 O 0.93819 0.60575 0.16075 0.0
O13 O 0.91664 0.55273 0.19931 0.0
O14 O 0.02438 0.60209 0.12595 0.0
O15 O 1.0077 0.51427 0.13232 0.0
O16 O 0.97021 0.41437 0.15842 0.0
O17 O 0.91627 0.46108 0.17036 0.0
C18 C 0.12936 0.64206 0.17328 0.0
C19 C 0.91852 0.41189 0.16416 0.0
Dy20 Dy 0.49076 0.07199 0.49832 0.0
C21 C 0.74725 0.22201 0.52494 0.0
C22 C 0.37539 1.00445 0.47916 0.0
Dy23 Dy 0.63316 0.14793 0.50511 0.0
O24 O 0.39141 0.03067 0.50504 0.0
O25 O 0.42282 0.01745 0.46352 0.0
O26 O 0.48487 0.03892 0.5453 0.0
O27 O 0.55534 0.12308 0.53297 0.0
C28 C 0.5349 0.08548 0.55361 0.0
C29 C 0.60056 0.12009 0.44745 0.0
O30 O 0.61151 0.05503 0.51871 0.0
O31 O 0.51892 1.0022 0.495 0.0
O32 O 0.72898 0.17073 0.51175 0.0
O33 O 0.70261 0.2316 0.52789 0.0
O34 O 0.65602 0.14961 0.45623 0.0
O35 O 0.5682 0.10908 0.47003 0.0
O36 O 0.50561 0.16621 0.49401 0.0
O37 O 0.60938 0.22045 0.50212 0.0
C38 C 0.56589 1.00398 0.50839 0.0
C39 C 0.55711 0.21788 0.49737 0.0
Dy40 Dy 0.58857 0.58756 0.83163 0.0
C41 C 0.49477 0.32909 0.84687 0.0
C42 C 0.64365 0.70598 0.81788 0.0
Dy43 Dy 0.52698 0.44386 0.83156 0.0
O44 O 0.64406 0.68488 0.84403 0.0
O45 O 0.6141 0.66223 0.79921 0.0
O46 O 0.55284 0.58384 0.87753 0.0
O47 O 0.57238 0.51759 0.86324 0.0
C48 C 0.54965 0.53307 0.88384 0.0
C49 C 0.54548 0.48897 0.77585 0.0
O50 O 0.44869 0.45804 0.8415 0.0
O51 O 0.49079 0.55691 0.82492 0.0
O52 O 0.47257 0.34419 0.82475 0.0
O53 O 0.53162 0.37704 0.86159 0.0
O54 O 0.52416 0.43241 0.78115 0.0
O55 O 0.55551 0.51526 0.80046 0.0
O56 O 0.67017 0.57607 0.82956 0.0
O57 O 0.62479 0.47144 0.83128 0.0
C58 C 0.44398 0.5057 0.83404 0.0
C59 C 0.67305 0.52576 0.8303 0.0
P60 P 0.54879 1.00024 0.22463 0.0
H61 H 0.50396 0.93762 0.16757 0.0
H62 H 0.40383 0.85838 0.15216 0.0
H63 H 0.32937 0.88771 0.23229 0.0
H64 H 0.42812 0.96754 0.24686 0.0
H65 H 0.67144 0.07607 0.2422 0.0
H66 H 0.75397 0.17014 0.22435 0.0
H67 H 0.63961 0.17475 0.15531 0.0
H68 H 0.55562 0.07973 0.17404 0.0
H69 H 0.54628 0.93474 0.27825 0.0
H70 H 0.53839 0.0938 0.25707 0.0
O71 O 0.57627 0.95378 0.22217 0.0
H72 H 0.54821 0.95702 0.33132 0.0
H73 H 0.54008 0.11618 0.31038 0.0
C74 C 0.47417 0.95932 0.20829 0.0
C75 C 0.46569 0.92873 0.18119 0.0
C76 C 0.40839 0.8827 0.17262 0.0
C77 C 0.35813 0.86618 0.19098 0.0
C78 C 0.36638 0.89957 0.2172 0.0
C79 C 0.4235 0.94562 0.22566 0.0
C80 C 0.60714 0.07076 0.20958 0.0
C81 C 0.66377 0.09721 0.22323 0.0
C82 C 0.71128 0.15105 0.21286 0.0
C83 C 0.70388 0.1804 0.18834 0.0
C84 C 0.64686 0.15389 0.1745 0.0
C85 C 0.59881 0.0994 0.18505 0.0
C86 C 0.54344 0.01331 0.26373 0.0
C87 C 0.54443 0.97419 0.28499 0.0
C88 C 0.54526 0.98677 0.31532 0.0
C89 C 0.54421 0.03824 0.32492 0.0
C90 C 0.54019 0.07583 0.30359 0.0
C91 C 0.5398 0.0634 0.27318 0.0
P92 P 0.60951 0.62853 0.55504 0.0
H93 H 0.63491 0.59368 0.49692 0.0
H94 H 0.61603 0.49662 0.47772 0.0
H95 H 0.49815 0.40823 0.55165 0.0
H96 H 0.51513 0.50469 0.57005 0.0
H97 H 0.61023 0.72425 0.58999 0.0
H98 H 0.59609 0.8081 0.57773 0.0
H99 H 0.54994 0.74219 0.48762 0.0
H100 H 0.56277 0.65629 0.50041 0.0
H101 H 0.68704 0.61582 0.59848 0.0
H102 H 0.51344 0.60306 0.59787 0.0
O103 O 0.68283 0.66439 0.54768 0.0
H104 H 0.67502 0.5893 0.65116 0.0
H105 H 0.50051 0.5751 0.65052 0.0
C106 C 0.57752 0.55718 0.53531 0.0
C107 C 0.60338 0.55333 0.50849 0.0
C108 C 0.5932 0.4977 0.49775 0.0
C109 C 0.55726 0.44464 0.51373 0.0
C110 C 0.52658 0.44807 0.53891 0.0
C111 C 0.53646 0.50366 0.54951 0.0
C112 C 0.58529 0.68216 0.54649 0.0
C113 C 0.59486 0.72614 0.56783 0.0
C114 C 0.58771 0.77497 0.56066 0.0
C115 C 0.57173 0.78212 0.53171 0.0
C116 C 0.56118 0.7376 0.5103 0.0
C117 C 0.56833 0.6883 0.51758 0.0
C118 C 0.60174 0.61278 0.59443 0.0
C119 C 0.64666 0.60813 0.60978 0.0
C120 C 0.63962 0.59265 0.63985 0.0
C121 C 0.58724 0.58102 0.65512 0.0
C122 C 0.5421 0.58545 0.63962 0.0
C123 C 0.54928 0.6011 0.60951 0.0
P124 P 0.08907 0.57253 0.88539 0.0
H125 H 0.15171 0.58825 0.82905 0.0
H126 H 0.22889 0.56449 0.81381 0.0
H127 H 0.19778 0.4611 0.89384 0.0
H128 H 0.11909 0.48268 0.90818 0.0
H129 H 0.05513 0.64914 0.85239 0.0
H130 H 0.95961 0.63566 0.83534 0.0
H131 H 0.87254 0.45021 0.86217 0.0
H132 H 0.9699 0.46315 0.87718 0.0
H133 H 0.17495 0.60432 0.93359 0.0
H134 H 0.98216 0.51595 0.92553 0.0
O135 O 0.13646 0.64596 0.88212 0.0
H136 H 0.1655 0.59689 0.98785 0.0
H137 H 0.97293 0.50801 0.97942 0.0
C138 C 0.12951 0.53766 0.86984 0.0
C139 C 0.15985 0.55856 0.84276 0.0
C140 C 0.20464 0.54553 0.83425 0.0
C141 C 0.22026 0.51126 0.85267 0.0
C142 C 0.18674 0.48691 0.87881 0.0
C143 C 0.14164 0.49964 0.88717 0.0
C144 C 1.02002 0.55736 0.86659 0.0
C145 C 1.01597 0.605 0.85398 0.0
C146 C 0.96076 0.5974 0.84445 0.0
C147 C 0.90754 0.54207 0.84764 0.0
C148 C 0.91223 0.49336 0.85879 0.0
C149 C 0.96806 0.50074 0.86764 0.0
C150 C 0.07944 0.56046 0.92519 0.0
C151 C 0.1306 0.58263 0.94336 0.0
C152 C 0.12524 0.57849 0.97434 0.0
C153 C 0.06848 0.55201 0.98775 0.0
C154 C 1.01718 0.52814 0.96958 0.0
C155 C 0.02259 0.53272 0.93859 0.0
P156 P 0.12925 0.56529 0.44485 0.0
H157 H 0.2112 0.64795 0.48927 0.0
H158 H 0.2503 0.75495 0.49802 0.0
H159 H 0.12984 0.75524 0.43124 0.0
H160 H 0.08979 0.64773 0.42295 0.0
H161 H 0.12078 0.46627 0.48031 0.0
H162 H 0.03902 0.38833 0.50942 0.0
H163 H 0.93111 0.47031 0.49134 0.0
H164 H 1.01393 0.54935 0.46349 0.0
H165 H 0.18558 0.62682 0.39024 0.0
H166 H 1.01764 0.47293 0.41552 0.0
O167 O 0.19053 0.55884 0.4472 0.0
H168 H 0.15227 0.61207 0.33838 0.0
H169 H 0.98379 0.4588 0.36378 0.0
C170 C 0.14919 0.64059 0.45482 0.0
C171 C 0.19239 0.67074 0.47692 0.0
C172 C 0.21432 0.73164 0.48204 0.0
C173 C 0.19332 0.76311 0.46505 0.0
C174 C 0.14696 0.73186 0.44438 0.0
C175 C 0.12447 0.67066 0.43955 0.0
C176 C 0.07324 0.51353 0.46988 0.0
C177 C 0.0801 0.46833 0.48333 0.0
C178 C 0.03335 0.42376 0.49991 0.0
C179 C 0.97881 0.42342 0.50298 0.0
C180 C 0.97309 0.47017 0.49025 0.0
C181 C 1.02015 0.5151 0.47403 0.0
C182 C 0.10397 0.55149 0.40679 0.0
C183 C 0.14142 0.5901 0.38465 0.0
C184 C 0.12208 0.58209 0.35512 0.0
C185 C 0.06489 0.53512 0.34722 0.0
C186 C 0.02783 0.49572 0.36937 0.0
C187 C 0.0472 0.50388 0.39896 0.0
P188 P 0.70774 0.12629 0.76717 0.0
H189 H 0.73504 0.2325 0.80247 0.0
H190 H 0.67127 0.26213 0.82898 0.0
H191 H 0.51747 0.08749 0.81235 0.0
H192 H 0.58143 0.05847 0.78514 0.0
H193 H 0.78715 0.09579 0.80005 0.0
H194 H 0.78022 0.99975 0.8119 0.0
H195 H 0.6068 0.9065 0.76892 0.0
H196 H 0.61481 1.00226 0.75634 0.0
H197 H 0.647 0.1825 0.73733 0.0
H198 H 0.71445 0.06433 0.71373 0.0
O199 O 0.77946 0.1803 0.76908 0.0
H200 H 0.60896 0.17456 0.68669 0.0
H201 H 0.67605 0.05614 0.66302 0.0
C202 C 0.66313 0.14318 0.79193 0.0
C203 C 0.68792 0.20002 0.80507 0.0
C204 C 0.65138 0.21684 0.82034 0.0
C205 C 0.58925 0.17725 0.82254 0.0
C206 C 0.56504 0.11914 0.8107 0.0
C207 C 0.60171 0.10238 0.79536 0.0
C208 C 0.70166 0.05603 0.77716 0.0
C209 C 0.74768 0.05464 0.7932 0.0
C210 C 0.74354 0.99983 0.80011 0.0
C211 C 0.69294 0.94577 0.79134 0.0
C212 C 0.64657 0.94752 0.77569 0.0
C213 C 0.65087 1.00219 0.76872 0.0
C214 C 0.68202 0.12258 0.72955 0.0
C215 C 0.65352 0.15472 0.72134 0.0
C216 C 0.63218 0.15055 0.69236 0.0
C217 C 0.63952 0.11461 0.67109 0.0
C218 C 0.66939 0.08366 0.67915 0.0
C219 C 0.69119 0.08828 0.70808 0.0
P220 P 0.48128 0.37311 0.10004 0.0
H221 H 0.50965 0.41638 0.16211 0.0
H222 H 0.60503 0.48087 0.18776 0.0
H223 H 0.70058 0.4889 0.10731 0.0
H224 H 0.60581 0.42673 0.0817 0.0
H225 H 0.35191 0.29272 0.10331 0.0
H226 H 0.26902 0.30952 0.11706 0.0
H227 H 0.3965 0.49388 0.13828 0.0
H228 H 0.4788 0.4773 0.12424 0.0
H229 H 0.45533 0.3073 0.04322 0.0
H230 H 0.52613 0.4898 0.07306 0.0
O231 O 0.4629 0.30132 0.10246 0.0
H232 H 0.46511 0.34032 0.99131 0.0
H233 H 0.53611 0.52284 0.0215 0.0
C234 C 0.55065 0.41847 0.11972 0.0
C235 C 0.55119 0.43281 0.14993 0.0
C236 C 0.60564 0.46929 0.16463 0.0
C237 C 0.66024 0.49068 0.14941 0.0
C238 C 0.65922 0.47454 0.1194 0.0
C239 C 0.60503 0.43863 0.10477 0.0
C240 C 0.42149 0.38315 0.11388 0.0
C241 C 0.36198 0.33637 0.11152 0.0
C242 C 0.31479 0.34606 0.11909 0.0
C243 C 0.32676 0.40267 0.12911 0.0
C244 C 0.38637 0.44949 0.13124 0.0
C245 C 0.43335 0.43994 0.12338 0.0
C246 C 0.49035 0.39625 0.06187 0.0
C247 C 0.47314 0.35439 0.03861 0.0
C248 C 0.47863 0.3732 0.00904 0.0
C249 C 0.50055 0.43393 0.00252 0.0
C250 C 0.51789 0.4756 0.02595 0.0
C251 C 0.51263 0.45684 0.05537 0.0
C252 C 0.18849 0.41818 0.12118 0.0
C253 C 0.18637 0.44307 0.14874 0.0
C254 C 0.23313 0.40347 0.11523 0.0
C255 C 0.27732 0.41385 0.13655 0.0
H256 H 0.15587 0.41055 0.10399 0.0
H257 H 0.23407 0.38538 0.09355 0.0
S258 S 0.28989 0.47515 0.2126 0.0
N259 N 0.231 0.47513 0.19798 0.0
N260 N 0.31497 0.44787 0.18655 0.0
C261 C 0.27503 0.43758 0.16434 0.0
C262 C 0.22946 0.45207 0.17051 0.0
C263 C 0.85435 0.26311 0.51162 0.0
C264 C 0.81051 0.26972 0.52705 0.0
C265 C 0.91076 0.31273 0.50586 0.0
C266 C 0.92537 0.37054 0.51555 0.0
H267 H 0.8436 0.22032 0.50189 0.0
H268 H 0.94128 0.30628 0.49179 0.0
S269 S 0.83073 0.40884 0.56263 0.0
N270 N 0.78834 0.33639 0.5559 0.0
N271 N 0.89512 0.42954 0.54574 0.0
C272 C 0.88408 0.37648 0.53369 0.0
C273 C 0.82646 0.32601 0.53934 0.0
C274 C 0.65889 0.78559 0.78211 0.0
C275 C 0.66465 0.76941 0.81121 0.0
C276 C 0.67023 0.84341 0.77573 0.0
C277 C 0.68777 0.88719 0.79822 0.0
H278 H 0.64373 0.75286 0.76423 0.0
H279 H 0.664 0.8536 0.7531 0.0
S280 S 0.71216 0.86831 0.87782 0.0
N281 N 0.69188 0.80246 0.86251 0.0
N282 N 0.71243 0.91115 0.85054 0.0
C283 C 0.69607 0.87235 0.8272 0.0
C284 C 0.68466 0.81339 0.8337 0.0
C285 C 0.82504 0.60121 0.15855 0.0
C286 C 0.84085 0.57674 0.1824 0.0
C287 C 0.76514 0.57665 0.14972 0.0
C288 C 0.71903 0.52693 0.16449 0.0
H289 H 0.85943 0.6358 0.14486 0.0
H290 H 0.75534 0.59376 0.1298 0.0
S291 S 0.73581 0.45638 0.23281 0.0
N292 N 0.80492 0.50807 0.22422 0.0
N293 N 0.69218 0.46128 0.20736 0.0
C294 C 0.7335 0.5073 0.19071 0.0
C295 C 0.79462 0.53252 0.19978 0.0
C296 C 0.2799 0.91896 0.49719 0.0
C297 C 0.31663 0.95113 0.4731 0.0
C298 C 0.2357 0.85864 0.49393 0.0
C299 C 0.22607 0.82922 0.46637 0.0
H300 H 0.28902 0.93852 0.51929 0.0
H301 H 0.21183 0.83374 0.51349 0.0
S302 S 0.30287 0.89697 0.3954 0.0
N303 N 0.33497 0.95182 0.42006 0.0
N304 N 0.25123 0.83865 0.41382 0.0
C305 C 0.25792 0.86279 0.44148 0.0
C306 C 0.30339 0.9239 0.44487 0.0
C307 C 0.54196 0.2722 0.86618 0.0
C308 C 0.50032 0.27467 0.84678 0.0
C309 C 0.56666 0.23575 0.85973 0.0
C310 C 0.55018 0.20017 0.83382 0.0
H311 H 0.5599 0.30274 0.88494 0.0
H312 H 0.60217 0.23885 0.87392 0.0
S313 S 0.43334 0.18105 0.77938 0.0
N314 N 0.43586 0.23069 0.80357 0.0
N315 N 0.48289 0.16282 0.79115 0.0
C316 C 0.50324 0.19676 0.81627 0.0
C317 C 0.47797 0.2338 0.8229 0.0
C318 C 0.61522 0.94728 0.52782 0.0
C319 C 0.56672 0.94659 0.51285 0.0
C320 C 0.61661 0.89427 0.53332 0.0
C321 C 0.5697 0.83778 0.52407 0.0
H322 H 0.65254 0.98914 0.53569 0.0
H323 H 0.65504 0.89766 0.54499 0.0
S324 S 0.43183 0.80996 0.4841 0.0
N325 N 0.47014 0.88338 0.4887 0.0
N326 N 0.47303 0.7843 0.49925 0.0
C327 C 0.5212 0.83619 0.50876 0.0
C328 C 0.51959 0.89026 0.50318 0.0
C329 C 0.78203 0.58123 0.84511 0.0
C330 C 0.73323 0.53019 0.83233 0.0
C331 C 0.83769 0.58452 0.8497 0.0
C332 C 0.84775 0.53729 0.84136 0.0
H333 H 0.77675 0.6184 0.85258 0.0
H334 H 0.87276 0.62412 0.86064 0.0
S335 S 0.73626 0.39584 0.80413 0.0
N336 N 0.69954 0.43234 0.80988 0.0
N337 N 0.80444 0.43939 0.81751 0.0
C338 C 0.79975 0.48665 0.82767 0.0
C339 C 0.74268 0.48297 0.82337 0.0
C340 C 0.24231 0.70365 0.17181 0.0
C341 C 0.18667 0.70073 0.17641 0.0
C342 C 0.29702 0.75738 0.17577 0.0
C343 C 0.29892 0.811 0.18441 0.0
H344 H 0.2439 0.66375 0.16569 0.0
H345 H 0.33829 0.75635 0.17286 0.0
S346 S 0.16627 0.82959 0.19652 0.0
N347 N 0.13728 0.75779 0.18844 0.0
N348 N 0.23974 0.85851 0.19531 0.0
C349 C 0.24365 0.80924 0.18819 0.0
C350 C 0.18782 0.75438 0.18432 0.0
C351 C 0.50307 0.27741 0.50181 0.0
C352 C 0.55691 0.27616 0.49807 0.0
C353 C 0.50311 0.33182 0.50602 0.0
C354 C 0.55691 0.38749 0.50634 0.0
H355 H 0.46056 0.23593 0.50247 0.0
H356 H 0.46067 0.33021 0.50949 0.0
S357 S 0.71026 0.40991 0.49697 0.0
N358 N 0.66571 0.33681 0.49408 0.0
N359 N 0.66548 0.43768 0.50248 0.0
C360 C 0.61084 0.38699 0.50189 0.0
C361 C 0.61092 0.33186 0.49765 0.0
C362 C 0.38211 0.5567 0.83338 0.0
C363 C 0.38496 0.50384 0.83734 0.0
C364 C 0.32871 0.55803 0.83774 0.0
C365 C 0.27513 0.50658 0.84623 0.0
H366 H 0.42184 0.59819 0.82738 0.0
H367 H 0.32999 0.60045 0.8352 0.0
S368 S 0.25609 0.35527 0.85737 0.0
N369 N 0.32775 0.39758 0.849 0.0
N370 N 0.22743 0.4001 0.85675 0.0
C371 C 0.27667 0.45297 0.8496 0.0
C372 C 0.33133 0.45158 0.84523 0.0
C373 C 0.86524 0.29965 0.17 0.0
C374 C 0.86207 0.35227 0.16623 0.0
C375 C 0.8137 0.24421 0.17587 0.0
C376 C 0.7563 0.23842 0.17803 0.0
H377 H 0.90824 0.30151 0.16957 0.0
H378 H 0.81912 0.2056 0.17939 0.0
S379 S 0.72198 0.3609 0.16681 0.0
N380 N 0.79543 0.39375 0.16273 0.0
N381 N 0.69912 0.28988 0.1739 0.0
C382 C 0.75196 0.28999 0.17281 0.0
C383 C 0.80456 0.34668 0.16697 0.0
C384 C 1.01718 0.50131 0.06717 0.0
C385 C 0.04335 0.55584 0.083 0.0
C386 C 0.02612 0.50009 0.03636 0.0
C387 C 0.06267 0.55317 0.02058 0.0
H388 H 0.98793 0.45963 0.07842 0.0
H389 H 1.00389 0.45746 0.02474 0.0
S390 S 0.14423 0.70685 0.05225 0.0
N391 N 0.10909 0.66372 0.08093 0.0
N392 N 0.12661 0.6613 0.02332 0.0
C393 C 0.09072 0.60758 0.03644 0.0
C394 C 0.08087 0.60893 0.06758 0.0
C395 C 0.619 0.08122 0.40056 0.0
C396 C 0.58174 0.09597 0.41707 0.0
C397 C 0.60532 0.06108 0.37112 0.0
C398 C 0.55438 0.05595 0.35679 0.0
H399 H 0.65936 0.08544 0.41046 0.0
H400 H 0.63581 0.05094 0.35919 0.0
S401 S 0.44279 0.09002 0.39012 0.0
N402 N 0.49191 0.10447 0.41711 0.0
N403 N 0.46617 0.06696 0.36138 0.0
C404 C 0.5165 0.0704 0.37305 0.0
C405 C 0.53009 0.09017 0.40333 0.0
C406 C 0.57898 0.49185 0.7238 0.0
C407 C 0.55873 0.51603 0.74599 0.0
C408 C 0.58912 0.514 0.6947 0.0
C409 C 0.57845 0.56059 0.68656 0.0
H410 H 0.58694 0.45533 0.72895 0.0
H411 H 0.60412 0.49347 0.67827 0.0
S412 S 0.52237 0.63719 0.73632 0.0
N413 N 0.52593 0.5872 0.75781 0.0
N414 N 0.54615 0.63003 0.70324 0.0
C415 C 0.55797 0.58507 0.70862 0.0
C416 C 0.54793 0.56257 0.73833 0.0
C417 C 0.54918 0.04398 0.60091 0.0
C418 C 0.56287 0.09394 0.58317 0.0
C419 C 0.57511 0.051 0.62914 0.0
C420 C 0.6148 0.10827 0.64072 0.0
H421 H 0.5185 0.99914 0.59286 0.0
H422 H 0.5632 1.01142 0.64224 0.0
S423 S 0.66501 0.25335 0.60309 0.0
N424 N 0.61863 0.20252 0.57911 0.0
N425 N 0.66724 0.21564 0.6322 0.0
C426 C 0.62892 0.15854 0.62317 0.0
C427 C 0.60303 0.15138 0.59434 0.0
C428 C 0.55164 0.46441 0.92224 0.0
C429 C 0.53159 0.50356 0.91302 0.0
C430 C 0.53954 0.44022 0.95094 0.0
C431 C 0.50718 0.45458 0.97136 0.0
H432 H 0.57883 0.45419 0.90762 0.0
H433 H 0.5576 0.41195 0.95757 0.0
S434 S 0.4386 0.54903 0.95682 0.0
N435 N 0.47355 0.55151 0.92559 0.0
N436 N 0.45067 0.50591 0.97954 0.0
C437 C 0.4847 0.49158 0.96195 0.0
C438 C 0.49697 0.51614 0.93276 0.0
C439 C 1.01401 0.45973 0.27195 0.0
C440 C 0.0236 0.50734 0.25324 0.0
C441 C 0.02489 0.46851 0.30259 0.0
C442 C 0.04577 0.52523 0.31562 0.0
H443 H 1.00043 0.41582 0.26273 0.0
H444 H 1.01964 0.43126 0.31591 0.0
S445 S 0.06914 0.66237 0.27721 0.0
N446 N 0.04871 0.61163 0.25048 0.0
N447 N 0.06904 0.62805 0.30817 0.0
C448 C 0.05183 0.57229 0.29751 0.0
C449 C 0.04057 0.56331 0.26629 0.0
loop_
_geom_bond_atom_site_label_1
_geom_bond_atom_site_label_2
_geom_bond_distance
_geom_bond_site_symmetry_2
_ccdc_geom_bond_type
Dy0 O4 2.398 . S
Dy0 O5 2.491 . S
Dy0 O6 2.403 . S
Dy0 O7 2.664 . S
Dy0 O11 2.326 . S
Dy0 O15 2.310 . S
Dy0 O16 2.351 1_455 S
C1 O12 1.185 . S
C1 O13 1.355 . S
C2 O4 1.185 . S
C2 O5 1.355 . S
Dy3 O7 2.310 1_655 S
Dy3 O10 2.351 1_655 S
Dy3 O12 2.398 . S
Dy3 O13 2.491 . S
Dy3 O14 2.403 . S
Dy3 O15 2.664 1_655 S
Dy3 O17 2.326 . S
O4 Dy0 2.398 . S
O4 C2 1.185 . S
O5 Dy0 2.491 . S
O5 C2 1.355 . S
O6 Dy0 2.403 . S
O6 C8 1.254 . S
O7 Dy0 2.664 . S
O7 Dy3 2.310 1_455 S
O7 C8 1.268 . S
C8 O6 1.254 . S
C8 O7 1.268 . S
C9 O14 1.254 1_455 S
C9 O15 1.268 . S
O10 Dy3 2.351 1_455 S
O10 C18 1.249 . S
O11 Dy0 2.326 . S
O11 C18 1.267 . S
O12 C1 1.185 . S
O12 Dy3 2.398 . S
O13 C1 1.355 . S
O13 Dy3 2.491 . S
O14 Dy3 2.403 . S
O14 C9 1.254 1_655 S
O15 Dy0 2.310 . S
O15 Dy3 2.664 1_455 S
O15 C9 1.268 . S
O16 Dy0 2.351 1_655 S
O16 C19 1.249 . S
O17 Dy3 2.326 . S
O17 C19 1.267 . S
C18 O10 1.249 . S
C18 O11 1.267 . S
C19 O16 1.249 . S
C19 O17 1.267 . S
Dy20 O24 2.398 . S
Dy20 O25 2.491 . S
Dy20 O26 2.403 . S
Dy20 O27 2.664 1_565 S
Dy20 O31 2.326 . S
Dy20 O35 2.310 1_565 S
Dy20 O36 2.351 1_565 S
C21 O32 1.185 . S
C21 O33 1.355 . S
C22 O24 1.185 . S
C22 O25 1.355 . S
Dy23 O27 2.310 . S
Dy23 O30 2.351 1_545 S
Dy23 O32 2.398 . S
Dy23 O33 2.491 . S
Dy23 O34 2.403 . S
Dy23 O35 2.664 . S
Dy23 O37 2.326 . S
O24 Dy20 2.398 . S
O24 C22 1.185 . S
O25 Dy20 2.491 . S
O25 C22 1.355 . S
O26 Dy20 2.403 . S
O26 C28 1.251 1_565 S
O27 Dy20 2.664 1_545 S
O27 Dy23 2.310 . S
O27 C28 1.268 . S
C28 O26 1.251 1_545 S
C28 O27 1.268 . S
C29 O34 1.254 . S
C29 O35 1.268 . S
O30 Dy23 2.351 1_565 S
O30 C38 1.249 . S
O31 Dy20 2.326 . S
O31 C38 1.267 . S
O32 C21 1.185 . S
O32 Dy23 2.398 . S
O33 C21 1.355 . S
O33 Dy23 2.491 . S
O34 Dy23 2.403 . S
O34 C29 1.254 . S
O35 Dy20 2.310 1_545 S
O35 Dy23 2.664 . S
O35 C29 1.268 . S
O36 Dy20 2.351 1_545 S
O36 C39 1.249 . S
O37 Dy23 2.326 . S
O37 C39 1.267 . S
C38 O30 1.249 . S
C38 O31 1.267 . S
C39 O36 1.249 . S
C39 O37 1.267 . S
Dy40 O44 2.398 . S
Dy40 O45 2.491 . S
Dy40 O46 2.403 . S
Dy40 O47 2.664 . S
Dy40 O51 2.326 . S
Dy40 O55 2.310 . S
Dy40 O56 2.351 . S
C41 O52 1.185 . S
C41 O53 1.355 . S
C42 O44 1.185 . S
C42 O45 1.355 . S
Dy43 O47 2.310 . S
Dy43 O50 2.351 . S
Dy43 O52 2.398 . S
Dy43 O53 2.491 . S
Dy43 O54 2.403 . S
Dy43 O55 2.664 . S
Dy43 O57 2.326 . S
O44 Dy40 2.398 . S
O44 C42 1.185 . S
O45 Dy40 2.491 . S
O45 C42 1.355 . S
O46 Dy40 2.403 . S
O46 C48 1.254 . S
O47 Dy40 2.664 . S
O47 Dy43 2.310 . S
O47 C48 1.268 . S
C48 O46 1.254 . S
C48 O47 1.268 . S
C49 O54 1.254 . S
C49 O55 1.268 . S
O50 Dy43 2.351 . S
O50 C58 1.249 . S
O51 Dy40 2.326 . S
O51 C58 1.267 . S
O52 C41 1.185 . S
O52 Dy43 2.398 . S
O53 C41 1.355 . S
O53 Dy43 2.491 . S
O54 Dy43 2.403 . S
O54 C49 1.254 . S
O55 Dy40 2.310 . S
O55 Dy43 2.664 . S
O55 C49 1.268 . S
O56 Dy40 2.351 . S
O56 C59 1.249 . S
O57 Dy43 2.326 . S
O57 C59 1.267 . S
C58 O50 1.249 . S
C58 O51 1.267 . S
C59 O56 1.249 . S
C59 O57 1.267 . S
P60 O71 1.490 . S
P60 C74 1.812 . S
P60 C80 1.803 1_565 S
P60 C86 1.819 . S
H61 C75 0.941 . S
H62 C76 0.939 . S
H63 C78 0.940 . S
H64 C79 0.940 . S
H65 C81 0.939 . S
H66 C82 0.942 . S
H67 C84 0.940 . S
H68 C85 0.939 . S
H69 C87 0.941 . S
H70 C91 0.939 . S
O71 P60 1.490 . S
H72 C88 0.939 . S
H73 C90 0.940 . S
C74 P60 1.812 . S
C74 C75 1.389 . S
C74 C79 1.391 . S
C75 H61 0.941 . S
C75 C74 1.389 . S
C75 C76 1.397 . S
C76 H62 0.939 . S
C76 C75 1.397 . S
C76 C77 1.378 . S
C77 C76 1.378 . S
C77 C78 1.378 . S
C78 H63 0.940 . S
C78 C77 1.378 . S
C78 C79 1.396 . S
C79 H64 0.940 . S
C79 C74 1.391 . S
C79 C78 1.396 . S
C80 P60 1.803 1_545 S
C80 C81 1.378 . S
C80 C85 1.400 . S
C81 H65 0.939 . S
C81 C80 1.378 . S
C81 C82 1.361 . S
C82 H66 0.942 . S
C82 C81 1.361 . S
C82 C83 1.369 . S
C83 C82 1.369 . S
C83 C84 1.404 . S
C84 H67 0.940 . S
C84 C83 1.404 . S
C84 C85 1.389 . S
C85 H68 0.939 . S
C85 C80 1.400 . S
C85 C84 1.389 . S
C86 P60 1.819 . S
C86 C87 1.391 . S
C86 C91 1.391 1_565 S
C87 H69 0.941 . S
C87 C86 1.391 . S
C87 C88 1.396 . S
C88 H72 0.939 . S
C88 C87 1.396 . S
C88 C89 1.397 1_565 S
C89 C88 1.397 1_545 S
C89 C90 1.385 . S
C90 H73 0.940 . S
C90 C89 1.385 . S
C90 C91 1.388 . S
C91 H70 0.939 . S
C91 C86 1.391 1_545 S
C91 C90 1.388 . S
P92 O103 1.490 . S
P92 C106 1.812 . S
P92 C112 1.803 . S
P92 C118 1.819 . S
H93 C107 0.941 . S
H94 C108 0.939 . S
H95 C110 0.940 . S
H96 C111 0.940 . S
H97 C113 0.939 . S
H98 C114 0.942 . S
H99 C116 0.940 . S
H100 C117 0.939 . S
H101 C119 0.941 . S
H102 C123 0.939 . S
O103 P92 1.490 . S
H104 C120 0.939 . S
H105 C122 0.940 . S
C106 P92 1.812 . S
C106 C107 1.389 . S
C106 C111 1.391 . S
C107 H93 0.941 . S
C107 C106 1.389 . S
C107 C108 1.397 . S
C108 H94 0.939 . S
C108 C107 1.397 . S
C108 C109 1.378 . S
C109 C108 1.378 . S
C109 C110 1.378 . S
C110 H95 0.940 . S
C110 C109 1.378 . S
C110 C111 1.396 . S
C111 H96 0.940 . S
C111 C106 1.391 . S
C111 C110 1.396 . S
C112 P92 1.803 . S
C112 C113 1.378 . S
C112 C117 1.400 . S
C113 H97 0.939 . S
C113 C112 1.378 . S
C113 C114 1.361 . S
C114 H98 0.942 . S
C114 C113 1.361 . S
C114 C115 1.369 . S
C115 C114 1.369 . S
C115 C116 1.404 . S
C116 H99 0.940 . S
C116 C115 1.404 . S
C116 C117 1.389 . S
C117 H100 0.939 . S
C117 C112 1.400 . S
C117 C116 1.389 . S
C118 P92 1.819 . S
C118 C119 1.391 . S
C118 C123 1.391 . S
C119 H101 0.941 . S
C119 C118 1.391 . S
C119 C120 1.396 . S
C120 H104 0.939 . S
C120 C119 1.396 . S
C120 C121 1.397 . S
C121 C120 1.397 . S
C121 C122 1.385 . S
C122 H105 0.940 . S
C122 C121 1.385 . S
C122 C123 1.388 . S
C123 H102 0.939 . S
C123 C118 1.391 . S
C123 C122 1.388 . S
P124 O135 1.490 . S
P124 C138 1.812 . S
P124 C144 1.803 . S
P124 C150 1.819 . S
H125 C139 0.941 . S
H126 C140 0.939 . S
H127 C142 0.940 . S
H128 C143 0.940 . S
H129 C145 0.939 1_455 S
H130 C146 0.942 . S
H131 C148 0.940 . S
H132 C149 0.939 1_455 S
H133 C151 0.941 . S
H134 C155 0.939 1_655 S
O135 P124 1.490 . S
H136 C152 0.939 . S
H137 C154 0.940 1_655 S
C138 P124 1.812 . S
C138 C139 1.389 . S
C138 C143 1.391 . S
C139 H125 0.941 . S
C139 C138 1.389 . S
C139 C140 1.397 . S
C140 H126 0.939 . S
C140 C139 1.397 . S
C140 C141 1.378 . S
C141 C140 1.378 . S
C141 C142 1.378 . S
C142 H127 0.940 . S
C142 C141 1.378 . S
C142 C143 1.396 . S
C143 H128 0.940 . S
C143 C138 1.391 . S
C143 C142 1.396 . S
C144 P124 1.803 . S
C144 C145 1.378 1_455 S
C144 C149 1.400 1_455 S
C145 H129 0.939 1_655 S
C145 C144 1.378 1_655 S
C145 C146 1.361 . S
C146 H130 0.942 . S
C146 C145 1.361 . S
C146 C147 1.369 . S
C147 C146 1.369 . S
C147 C148 1.404 . S
C148 H131 0.940 . S
C148 C147 1.404 . S
C148 C149 1.389 . S
C149 H132 0.939 1_655 S
C149 C144 1.400 1_655 S
C149 C148 1.389 . S
C150 P124 1.819 . S
C150 C151 1.391 . S
C150 C155 1.391 . S
C151 H133 0.941 . S
C151 C150 1.391 . S
C151 C152 1.396 . S
C152 H136 0.939 . S
C152 C151 1.396 . S
C152 C153 1.397 . S
C153 C152 1.397 . S
C153 C154 1.385 . S
C154 H137 0.940 1_455 S
C154 C153 1.385 . S
C154 C155 1.388 . S
C155 H134 0.939 1_455 S
C155 C150 1.391 . S
C155 C154 1.388 . S
P156 O167 1.490 . S
P156 C170 1.812 . S
P156 C176 1.803 1_455 S
P156 C182 1.819 . S
H157 C171 0.941 . S
H158 C172 0.939 . S
H159 C174 0.940 . S
H160 C175 0.940 . S
H161 C177 0.939 . S
H162 C178 0.942 . S
H163 C180 0.940 . S
H164 C181 0.939 . S
H165 C183 0.941 . S
H166 C187 0.939 . S
O167 P156 1.490 . S
H168 C184 0.939 . S
H169 C186 0.940 . S
C170 P156 1.812 . S
C170 C171 1.389 . S
C170 C175 1.391 . S
C171 H157 0.941 . S
C171 C170 1.389 . S
C171 C172 1.397 . S
C172 H158 0.939 . S
C172 C171 1.397 . S
C172 C173 1.378 . S
C173 C172 1.378 . S
C173 C174 1.378 . S
C174 H159 0.940 . S
C174 C173 1.378 . S
C174 C175 1.396 . S
C175 H160 0.940 . S
C175 C170 1.391 . S
C175 C174 1.396 . S
C176 P156 1.803 1_655 S
C176 C177 1.378 . S
C176 C181 1.400 . S
C177 H161 0.939 . S
C177 C176 1.378 . S
C177 C178 1.361 . S
C178 H162 0.942 . S
C178 C177 1.361 . S
C178 C179 1.369 . S
C179 C178 1.369 . S
C179 C180 1.404 . S
C180 H163 0.940 . S
C180 C179 1.404 . S
C180 C181 1.389 . S
C181 H164 0.939 . S
C181 C176 1.400 . S
C181 C180 1.389 . S
C182 P156 1.819 . S
C182 C183 1.391 . S
C182 C187 1.391 1_455 S
C183 H165 0.941 . S
C183 C182 1.391 . S
C183 C184 1.396 . S
C184 H168 0.939 . S
C184 C183 1.396 . S
C184 C185 1.397 . S
C185 C184 1.397 . S
C185 C186 1.385 1_455 S
C186 H169 0.940 . S
C186 C185 1.385 1_655 S
C186 C187 1.388 . S
C187 H166 0.939 . S
C187 C182 1.391 1_655 S
C187 C186 1.388 . S
P188 O199 1.490 . S
P188 C202 1.812 . S
P188 C208 1.803 . S
P188 C214 1.819 . S
H189 C203 0.941 . S
H190 C204 0.939 . S
H191 C206 0.940 . S
H192 C207 0.940 . S
H193 C209 0.939 1_545 S
H194 C210 0.942 . S
H195 C212 0.940 . S
H196 C213 0.930 1_545 S
H197 C215 0.941 . S
H198 C219 0.939 1_565 S
O199 P188 1.490 . S
H200 C216 0.939 . S
H201 C218 0.940 1_565 S
C202 P188 1.812 . S
C202 C203 1.389 . S
C202 C207 1.391 . S
C203 H189 0.941 . S
C203 C202 1.389 . S
C203 C204 1.397 . S
C204 H190 0.939 . S
C204 C203 1.397 . S
C204 C205 1.378 . S
C205 C204 1.378 . S
C205 C206 1.378 . S
C206 H191 0.940 . S
C206 C205 1.378 . S
C206 C207 1.396 . S
C207 H192 0.940 . S
C207 C202 1.391 . S
C207 C206 1.396 . S
C208 P188 1.803 . S
C208 C209 1.370 1_545 S
C208 C213 1.399 1_545 S
C209 H193 0.939 1_565 S
C209 C208 1.370 1_565 S
C209 C210 1.369 . S
C210 H194 0.942 . S
C210 C209 1.369 . S
C210 C211 1.369 . S
C211 C210 1.369 . S
C211 C212 1.404 . S
C212 H195 0.940 . S
C212 C211 1.404 . S
C212 C213 1.399 . S
C213 H196 0.930 1_565 S
C213 C208 1.399 1_565 S
C213 C212 1.399 . S
C214 P188 1.819 . S
C214 C215 1.391 . S
C214 C219 1.391 . S
C215 H197 0.941 . S
C215 C214 1.391 . S
C215 C216 1.396 . S
C216 H200 0.939 . S
C216 C215 1.396 . S
C216 C217 1.397 . S
C217 C216 1.397 . S
C217 C218 1.385 . S
C218 H201 0.940 1_545 S
C218 C217 1.385 . S
C218 C219 1.388 . S
C219 H198 0.939 1_545 S
C219 C214 1.391 . S
C219 C218 1.388 . S
P220 O231 1.490 . S
P220 C234 1.812 . S
P220 C240 1.803 . S
P220 C246 1.819 . S
H221 C235 0.941 . S
H222 C236 0.939 . S
H223 C238 0.940 . S
H224 C239 0.940 . S
H225 C241 0.939 . S
H226 C242 0.942 . S
H227 C244 0.940 . S
H228 C245 0.939 . S
H229 C247 0.941 . S
H230 C251 0.939 . S
O231 P220 1.490 . S
H232 C248 0.939 . S
H233 C250 0.940 . S
C234 P220 1.812 . S
C234 C235 1.389 . S
C234 C239 1.391 . S
C235 H221 0.941 . S
C235 C234 1.389 . S
C235 C236 1.397 . S
C236 H222 0.939 . S
C236 C235 1.397 . S
C236 C237 1.378 . S
C237 C236 1.378 . S
C237 C238 1.378 . S
C238 H223 0.940 . S
C238 C237 1.378 . S
C238 C239 1.396 . S
C239 H224 0.940 . S
C239 C234 1.391 . S
C239 C238 1.396 . S
C240 P220 1.803 . S
C240 C241 1.378 . S
C240 C245 1.400 . S
C241 H225 0.939 . S
C241 C240 1.378 . S
C241 C242 1.361 . S
C242 H226 0.942 . S
C242 C241 1.361 . S
C242 C243 1.369 . S
C243 C242 1.369 . S
C243 C244 1.404 . S
C244 H227 0.940 . S
C244 C243 1.404 . S
C244 C245 1.389 . S
C245 H228 0.939 . S
C245 C240 1.400 . S
C245 C244 1.389 . S
C246 P220 1.819 . S
C246 C247 1.391 . S
C246 C251 1.391 . S
C247 H229 0.941 . S
C247 C246 1.391 . S
C247 C248 1.396 . S
C248 H232 0.939 . S
C248 C247 1.396 . S
C248 C249 1.397 . S
C249 C248 1.397 . S
C249 C250 1.385 . S
C250 H233 0.940 . S
C250 C249 1.385 . S
C250 C251 1.388 . S
C251 H230 0.939 . S
C251 C246 1.391 . S
C251 C250 1.388 . S
C252 C253 1.369 . S
C252 C254 1.419 . S
C252 H256 0.930 . S
C253 C252 1.369 . S
C253 C262 1.429 . S
C254 C252 1.419 . S
C254 C255 1.363 . S
C254 H257 0.929 . S
C255 C254 1.363 . S
C255 C261 1.428 . S
H256 C252 0.930 . S
H257 C254 0.929 . S
S258 N259 1.613 . S
S258 N260 1.610 . S
N259 S258 1.613 . S
N259 C262 1.350 . S
N260 S258 1.610 . S
N260 C261 1.351 . S
C261 C255 1.428 . S
C261 N260 1.351 . S
C261 C262 1.434 . S
C262 C253 1.429 . S
C262 N259 1.350 . S
C262 C261 1.434 . S
C263 C264 1.369 . S
C263 C265 1.419 . S
C263 H267 0.930 . S
C264 C263 1.369 . S
C264 C273 1.429 . S
C265 C263 1.419 . S
C265 C266 1.363 . S
C265 H268 0.929 . S
C266 C265 1.363 . S
C266 C272 1.428 . S
H267 C263 0.930 . S
H268 C265 0.929 . S
S269 N270 1.613 . S
S269 N271 1.610 . S
N270 S269 1.613 . S
N270 C273 1.350 . S
N271 S269 1.610 . S
N271 C272 1.351 . S
C272 C266 1.428 . S
C272 N271 1.351 . S
C272 C273 1.434 . S
C273 C264 1.429 . S
C273 N270 1.350 . S
C273 C272 1.434 . S
C274 C275 1.369 . S
C274 C276 1.419 . S
C274 H278 0.930 . S
C275 C274 1.369 . S
C275 C284 1.429 . S
C276 C274 1.419 . S
C276 C277 1.363 . S
C276 H279 0.929 . S
C277 C276 1.363 . S
C277 C283 1.428 . S
H278 C274 0.930 . S
H279 C276 0.929 . S
S280 N281 1.613 . S
S280 N282 1.610 . S
N281 S280 1.613 . S
N281 C284 1.350 . S
N282 S280 1.610 . S
N282 C283 1.351 . S
C283 C277 1.428 . S
C283 N282 1.351 . S
C283 C284 1.434 . S
C284 C275 1.429 . S
C284 N281 1.350 . S
C284 C283 1.434 . S
C285 C286 1.369 . S
C285 C287 1.419 . S
C285 H289 0.930 . S
C286 C285 1.369 . S
C286 C295 1.429 . S
C287 C285 1.419 . S
C287 C288 1.363 . S
C287 H290 0.929 . S
C288 C287 1.363 . S
C288 C294 1.428 . S
H289 C285 0.930 . S
H290 C287 0.929 . S
S291 N292 1.613 . S
S291 N293 1.610 . S
N292 S291 1.613 . S
N292 C295 1.350 . S
N293 S291 1.610 . S
N293 C294 1.351 . S
C294 C288 1.428 . S
C294 N293 1.351 . S
C294 C295 1.434 . S
C295 C286 1.429 . S
C295 N292 1.350 . S
C295 C294 1.434 . S
C296 C297 1.369 . S
C296 C298 1.419 . S
C296 H300 0.930 . S
C297 C296 1.369 . S
C297 C306 1.429 . S
C298 C296 1.419 . S
C298 C299 1.363 . S
C298 H301 0.929 . S
C299 C298 1.363 . S
C299 C305 1.428 . S
H300 C296 0.930 . S
H301 C298 0.929 . S
S302 N303 1.613 . S
S302 N304 1.610 . S
N303 S302 1.613 . S
N303 C306 1.350 . S
N304 S302 1.610 . S
N304 C305 1.351 . S
C305 C299 1.428 . S
C305 N304 1.351 . S
C305 C306 1.434 . S
C306 C297 1.429 . S
C306 N303 1.350 . S
C306 C305 1.434 . S
C307 C308 1.369 . S
C307 C309 1.419 . S
C307 H311 0.930 . S
C308 C307 1.369 . S
C308 C317 1.429 . S
C309 C307 1.419 . S
C309 C310 1.363 . S
C309 H312 0.929 . S
C310 C309 1.363 . S
C310 C316 1.428 . S
H311 C307 0.930 . S
H312 C309 0.929 . S
S313 N314 1.613 . S
S313 N315 1.610 . S
N314 S313 1.613 . S
N314 C317 1.350 . S
N315 S313 1.610 . S
N315 C316 1.351 . S
C316 C310 1.428 . S
C316 N315 1.351 . S
C316 C317 1.434 . S
C317 C308 1.429 . S
C317 N314 1.350 . S
C317 C316 1.434 . S
C318 C319 1.369 . S
C318 C320 1.419 . S
C318 H322 0.930 . S
C319 C318 1.369 . S
C319 C328 1.429 . S
C320 C318 1.419 . S
C320 C321 1.363 . S
C320 H323 0.929 . S
C321 C320 1.363 . S
C321 C327 1.428 . S
H322 C318 0.930 . S
H323 C320 0.929 . S
S324 N325 1.613 . S
S324 N326 1.610 . S
N325 S324 1.613 . S
N325 C328 1.350 . S
N326 S324 1.610 . S
N326 C327 1.351 . S
C327 C321 1.428 . S
C327 N326 1.351 . S
C327 C328 1.434 . S
C328 C319 1.429 . S
C328 N325 1.350 . S
C328 C327 1.434 . S
C329 C330 1.369 . S
C329 C331 1.419 . S
C329 H333 0.930 . S
C330 C329 1.369 . S
C330 C339 1.429 . S
C331 C329 1.419 . S
C331 C332 1.363 . S
C331 H334 0.929 . S
C332 C331 1.363 . S
C332 C338 1.428 . S
H333 C329 0.930 . S
H334 C331 0.929 . S
S335 N336 1.613 . S
S335 N337 1.610 . S
N336 S335 1.613 . S
N336 C339 1.350 . S
N337 S335 1.610 . S
N337 C338 1.351 . S
C338 C332 1.428 . S
C338 N337 1.351 . S
C338 C339 1.434 . S
C339 C330 1.429 . S
C339 N336 1.350 . S
C339 C338 1.434 . S
C340 C341 1.369 . S
C340 C342 1.419 . S
C340 H344 0.930 . S
C341 C340 1.369 . S
C341 C350 1.429 . S
C342 C340 1.419 . S
C342 C343 1.363 . S
C342 H345 0.929 . S
C343 C342 1.363 . S
C343 C349 1.428 . S
H344 C340 0.930 . S
H345 C342 0.929 . S
S346 N347 1.613 . S
S346 N348 1.610 . S
N347 S346 1.613 . S
N347 C350 1.350 . S
N348 S346 1.610 . S
N348 C349 1.351 . S
C349 C343 1.428 . S
C349 N348 1.351 . S
C349 C350 1.434 . S
C350 C341 1.429 . S
C350 N347 1.350 . S
C350 C349 1.434 . S
C351 C352 1.369 . S
C351 C353 1.419 . S
C351 H355 0.930 . S
C352 C351 1.369 . S
C352 C361 1.429 . S
C353 C351 1.419 . S
C353 C354 1.363 . S
C353 H356 0.929 . S
C354 C353 1.363 . S
C354 C360 1.428 . S
H355 C351 0.930 . S
H356 C353 0.929 . S
S357 N358 1.613 . S
S357 N359 1.610 . S
N358 S357 1.613 . S
N358 C361 1.350 . S
N359 S357 1.610 . S
N359 C360 1.351 . S
C360 C354 1.428 . S
C360 N359 1.351 . S
C360 C361 1.434 . S
C361 C352 1.429 . S
C361 N358 1.350 . S
C361 C360 1.434 . S
C362 C363 1.369 . S
C362 C364 1.419 . S
C362 H366 0.930 . S
C363 C362 1.369 . S
C363 C372 1.429 . S
C364 C362 1.419 . S
C364 C365 1.363 . S
C364 H367 0.929 . S
C365 C364 1.363 . S
C365 C371 1.428 . S
H366 C362 0.930 . S
H367 C364 0.929 . S
S368 N369 1.613 . S
S368 N370 1.610 . S
N369 S368 1.613 . S
N369 C372 1.350 . S
N370 S368 1.610 . S
N370 C371 1.351 . S
C371 C365 1.428 . S
C371 N370 1.351 . S
C371 C372 1.434 . S
C372 C363 1.429 . S
C372 N369 1.350 . S
C372 C371 1.434 . S
C373 C374 1.369 . S
C373 C375 1.419 . S
C373 H377 0.930 . S
C374 C373 1.369 . S
C374 C383 1.429 . S
C375 C373 1.419 . S
C375 C376 1.363 . S
C375 H378 0.929 . S
C376 C375 1.363 . S
C376 C382 1.428 . S
H377 C373 0.930 . S
H378 C375 0.929 . S
S379 N380 1.613 . S
S379 N381 1.610 . S
N380 S379 1.613 . S
N380 C383 1.350 . S
N381 S379 1.610 . S
N381 C382 1.351 . S
C382 C376 1.428 . S
C382 N381 1.351 . S
C382 C383 1.434 . S
C383 C374 1.429 . S
C383 N380 1.350 . S
C383 C382 1.434 . S
C384 C385 1.369 . S
C384 C386 1.419 . S
C384 H388 0.930 1_455 S
C385 C384 1.369 . S
C385 C394 1.429 . S
C386 C384 1.419 . S
C386 C387 1.363 . S
C386 H389 0.929 1_455 S
C387 C386 1.363 . S
C387 C393 1.428 . S
H388 C384 0.930 1_655 S
H389 C386 0.929 1_655 S
S390 N391 1.613 . S
S390 N392 1.610 . S
N391 S390 1.613 . S
N391 C394 1.350 . S
N392 S390 1.610 . S
N392 C393 1.351 . S
C393 C387 1.428 . S
C393 N392 1.351 . S
C393 C394 1.434 . S
C394 C385 1.429 . S
C394 N391 1.350 . S
C394 C393 1.434 . S
C395 C396 1.369 . S
C395 C397 1.419 . S
C395 H399 0.930 . S
C396 C395 1.369 . S
C396 C405 1.429 1_545 S
C397 C395 1.419 . S
C397 C398 1.363 . S
C397 H400 0.929 . S
C398 C397 1.363 . S
C398 C404 1.428 1_545 S
H399 C395 0.930 . S
H400 C397 0.929 . S
S401 N402 1.613 . S
S401 N403 1.610 . S
N402 S401 1.613 . S
N402 C405 1.350 . S
N403 S401 1.610 . S
N403 C404 1.351 . S
C404 C398 1.428 1_565 S
C404 N403 1.351 . S
C404 C405 1.434 . S
C405 C396 1.429 1_565 S
C405 N402 1.350 . S
C405 C404 1.434 . S
C406 C407 1.369 . S
C406 C408 1.419 . S
C406 H410 0.930 . S
C407 C406 1.369 . S
C407 C416 1.429 . S
C408 C406 1.419 . S
C408 C409 1.363 . S
C408 H411 0.929 . S
C409 C408 1.363 . S
C409 C415 1.428 . S
H410 C406 0.930 . S
H411 C408 0.929 . S
S412 N413 1.613 . S
S412 N414 1.610 . S
N413 S412 1.613 . S
N413 C416 1.350 . S
N414 S412 1.610 . S
N414 C415 1.351 . S
C415 C409 1.428 . S
C415 N414 1.351 . S
C415 C416 1.434 . S
C416 C407 1.429 . S
C416 N413 1.350 . S
C416 C415 1.434 . S
C417 C418 1.363 1_565 S
C417 C419 1.419 1_565 S
C417 H421 0.936 . S
C418 C417 1.363 1_545 S
C418 C427 1.429 . S
C419 C417 1.419 1_545 S
C419 C420 1.363 . S
C419 H422 0.929 1_545 S
C420 C419 1.363 . S
C420 C426 1.428 . S
H421 C417 0.936 . S
H422 C419 0.929 1_565 S
S423 N424 1.613 . S
S423 N425 1.610 . S
N424 S423 1.613 . S
N424 C427 1.350 . S
N425 S423 1.610 . S
N425 C426 1.351 . S
C426 C420 1.428 . S
C426 N425 1.351 . S
C426 C427 1.434 . S
C427 C418 1.429 . S
C427 N424 1.350 . S
C427 C426 1.434 . S
C428 C429 1.369 . S
C428 C430 1.419 . S
C428 H432 0.930 . S
C429 C428 1.369 . S
C429 C438 1.429 . S
C430 C428 1.419 . S
C430 C431 1.363 . S
C430 H433 0.929 . S
C431 C430 1.363 . S
C431 C437 1.428 . S
H432 C428 0.930 . S
H433 C430 0.929 . S
S434 N435 1.613 . S
S434 N436 1.610 . S
N435 S434 1.613 . S
N435 C438 1.350 . S
N436 S434 1.610 . S
N436 C437 1.351 . S
C437 C431 1.428 . S
C437 N436 1.351 . S
C437 C438 1.434 . S
C438 C429 1.429 . S
C438 N435 1.350 . S
C438 C437 1.434 . S
C439 C440 1.369 . S
C439 C441 1.419 1_455 S
C439 H443 0.930 1_455 S
C440 C439 1.369 . S
C440 C449 1.429 . S
C441 C439 1.419 1_655 S
C441 C442 1.363 1_655 S
C441 H444 0.929 . S
C442 C441 1.363 1_455 S
C442 C448 1.428 . S
H443 C439 0.930 1_655 S
H444 C441 0.929 . S
S445 N446 1.613 . S
S445 N447 1.610 . S
N446 S445 1.613 . S
N446 C449 1.350 . S
N447 S445 1.610 . S
N447 C448 1.351 . S
C448 C442 1.428 . S
C448 N447 1.351 . S
C448 C449 1.434 . S
C449 C440 1.429 . S
C449 N446 1.350 . S
C449 C448 1.434 . S
C253 C2 1.105 . S
C255 C243 1.089 . S
C264 C21 1.078 . S
C266 C179 1.061 . S
C275 C42 1.116 . S
C277 C211 1.103 . S
C286 C1 1.073 . S
C288 C237 1.063 . S
C299 C173 1.075 . S
C297 C22 1.095 . S
C310 C205 1.045 . S
C308 C41 1.049 . S
C319 C38 1.958 . S
C321 C115 1.897 . S
C330 C59 1.981 . S
C332 C147 1.918 . S
C341 C18 1.937 . S
C343 C77 1.888 . S
C354 C109 1.927 . S
C352 C39 1.982 . S
C365 C141 1.908 . S
C363 C58 1.955 . S
C374 C19 2.003 . S
C376 C83 1.935 . S
C387 C153 1.545 1_554 S
C385 C9 1.510 . S
C396 C29 1.514 . S
C398 C89 1.555 . S
C407 C49 1.510 . S
C409 C121 1.539 . S
C420 C217 1.376 . S
C418 C28 1.377 . S
C431 C249 1.371 1_556 S
C429 C48 1.361 . S
C440 C8 1.365 . S
C442 C185 1.356 . S
