# Generated by pormake.
# Topology pyr, (3,6)-cn, num edge types: 1
# Building blocks:
#     Node 0, Type 0, BuildingBlock: PAMTOO_clean_linker_0, # of connection points: 3
#     Node 1, Type 0, BuildingBlock: PAMTOO_clean_linker_0, # of connection points: 3
#     Node 2, Type 0, BuildingBlock: PAMTOO_clean_linker_0, # of connection points: 3
#     Node 3, Type 0, BuildingBlock: PAMTOO_clean_linker_0, # of connection points: 3
#     Node 4, Type 0, BuildingBlock: PAMTOO_clean_linker_0, # of connection points: 3
#     Node 5, Type 0, BuildingBlock: PAMTOO_clean_linker_0, # of connection points: 3
#     Node 6, Type 0, BuildingBlock: PAMTOO_clean_linker_0, # of connection points: 3
#     Node 7, Type 0, BuildingBlock: PAMTOO_clean_linker_0, # of connection points: 3
#     Node 8, Type 1, BuildingBlock: GEDQOX_clean_sbu_0, # of connection points: 6
#     Node 9, Type 1, BuildingBlock: GEDQOX_clean_sbu_0, # of connection points: 6
#     Node 10, Type 1, BuildingBlock: GEDQOX_clean_sbu_0, # of connection points: 6
#     Node 11, Type 1, BuildingBlock: GEDQOX_clean_sbu_0, # of connection points: 6
#     Edge 12, Type (0, 1), BuildingBlock: MIFKUJ_clean_linker_0, # of connection points: 2
#     Edge 13, Type (0, 1), BuildingBlock: MIFKUJ_clean_linker_0, # of connection points: 2
#     Edge 14, Type (0, 1), BuildingBlock: MIFKUJ_clean_linker_0, # of connection points: 2
#     Edge 15, Type (0, 1), BuildingBlock: MIFKUJ_clean_linker_0, # of connection points: 2
#     Edge 16, Type (0, 1), BuildingBlock: MIFKUJ_clean_linker_0, # of connection points: 2
#     Edge 17, Type (0, 1), BuildingBlock: MIFKUJ_clean_linker_0, # of connection points: 2
#     Edge 18, Type (0, 1), BuildingBlock: MIFKUJ_clean_linker_0, # of connection points: 2
#     Edge 19, Type (0, 1), BuildingBlock: MIFKUJ_clean_linker_0, # of connection points: 2
#     Edge 20, Type (0, 1), BuildingBlock: MIFKUJ_clean_linker_0, # of connection points: 2
#     Edge 21, Type (0, 1), BuildingBlock: MIFKUJ_clean_linker_0, # of connection points: 2
#     Edge 22, Type (0, 1), BuildingBlock: MIFKUJ_clean_linker_0, # of connection points: 2
#     Edge 23, Type (0, 1), BuildingBlock: MIFKUJ_clean_linker_0, # of connection points: 2
#     Edge 24, Type (0, 1), BuildingBlock: MIFKUJ_clean_linker_0, # of connection points: 2
#     Edge 25, Type (0, 1), BuildingBlock: MIFKUJ_clean_linker_0, # of connection points: 2
#     Edge 26, Type (0, 1), BuildingBlock: MIFKUJ_clean_linker_0, # of connection points: 2
#     Edge 27, Type (0, 1), BuildingBlock: MIFKUJ_clean_linker_0, # of connection points: 2
#     Edge 28, Type (0, 1), BuildingBlock: MIFKUJ_clean_linker_0, # of connection points: 2
#     Edge 29, Type (0, 1), BuildingBlock: MIFKUJ_clean_linker_0, # of connection points: 2
#     Edge 30, Type (0, 1), BuildingBlock: MIFKUJ_clean_linker_0, # of connection points: 2
#     Edge 31, Type (0, 1), BuildingBlock: MIFKUJ_clean_linker_0, # of connection points: 2
#     Edge 32, Type (0, 1), BuildingBlock: MIFKUJ_clean_linker_0, # of connection points: 2
#     Edge 33, Type (0, 1), BuildingBlock: MIFKUJ_clean_linker_0, # of connection points: 2
#     Edge 34, Type (0, 1), BuildingBlock: MIFKUJ_clean_linker_0, # of connection points: 2
#     Edge 35, Type (0, 1), BuildingBlock: MIFKUJ_clean_linker_0, # of connection points: 2
# Relax obj value: 0.136
# Max RMSD: 0.230
# Mean RMSD: 0.148
data_MOF--net-pyr--node1-GEDQOX_clean_sbu_0--node2-PAMTOO_clean_linker_0--edge1-MIFKUJ_clean_linker_0
_symmetry_space_group_name_H-M    P1
_symmetry_Int_Tables_number       1
_symmetry_cell_setting            triclinic
loop_
_symmetry_equiv_pos_as_xyz
'x, y, z'
_cell_length_a     50.348714
_cell_length_b     51.474253
_cell_length_c     45.684867
_cell_angle_alpha  89.144719
_cell_angle_beta   94.304693
_cell_angle_gamma 93.444318
loop_
_atom_site_label
_atom_site_type_symbol
_atom_site_fract_x
_atom_site_fract_y
_atom_site_fract_z
_atom_type_partial_charge
H0 H 0.17714 0.20161 0.23028 0.0
H1 H 0.23738 0.14508 0.23287 0.0
H2 H 0.23762 0.20632 0.16757 0.0
H3 H 0.25381 0.14592 0.15067 0.0
C4 C 0.26797 0.14411 0.17037 0.0
O5 O 0.2646 0.16566 0.18883 0.0
H6 H 0.2611 0.12613 0.18201 0.0
C7 C 0.19433 0.19412 0.22142 0.0
C8 C 0.20534 0.20779 0.19694 0.0
C9 C 0.20491 0.17113 0.23504 0.0
C10 C 0.22811 0.16175 0.22281 0.0
C11 C 0.24026 0.17394 0.19819 0.0
C12 C 0.22838 0.19685 0.18582 0.0
H13 H 0.36096 0.82121 0.78426 0.0
H14 H 0.3684 0.77111 0.711 0.0
H15 H 0.43236 0.78001 0.77793 0.0
H16 H 0.4493 0.78214 0.7184 0.0
C17 C 0.43318 0.76933 0.70718 0.0
O18 O 0.41672 0.7587 0.7276 0.0
H19 H 0.42164 0.78156 0.69108 0.0
C20 C 0.37205 0.80733 0.77327 0.0
C21 C 0.3978 0.80169 0.78485 0.0
C22 C 0.36121 0.79652 0.74658 0.0
C23 C 0.37628 0.77959 0.73166 0.0
C24 C 0.40187 0.77385 0.74296 0.0
C25 C 0.41248 0.78464 0.76955 0.0
H26 H 0.77428 0.36746 0.8972 0.0
H27 H 0.71551 0.38586 0.82745 0.0
H28 H 0.78807 0.43351 0.84052 0.0
H29 H 0.74601 0.46514 0.81909 0.0
C30 C 0.73068 0.44943 0.8126 0.0
O31 O 0.74298 0.42661 0.80881 0.0
H32 H 0.71666 0.44688 0.83032 0.0
C33 C 0.76737 0.37985 0.87915 0.0
C34 C 0.78376 0.40137 0.87112 0.0
C35 C 0.74279 0.3737 0.86337 0.0
C36 C 0.73457 0.38983 0.83968 0.0
C37 C 0.75093 0.41129 0.8316 0.0
C38 C 0.77561 0.41681 0.84698 0.0
H39 H 0.87981 0.79699 0.32188 0.0
H40 H 0.85222 0.77624 0.23338 0.0
H41 H 0.89213 0.85102 0.2506 0.0
H42 H 0.90843 0.82643 0.2019 0.0
C43 C 0.8888 0.81958 0.19094 0.0
O44 O 0.86884 0.82049 0.20998 0.0
H45 H 0.88469 0.83348 0.17256 0.0
C46 C 0.87847 0.80152 0.29858 0.0
C47 C 0.88819 0.82602 0.28876 0.0
C48 C 0.86532 0.78348 0.27888 0.0
C49 C 0.8625 0.78985 0.24886 0.0
C50 C 0.87236 0.81411 0.23877 0.0
C51 C 0.88485 0.83223 0.25871 0.0
H52 H 0.85054 0.89917 0.85874 0.0
H53 H 0.84995 0.84078 0.92806 0.0
H54 H 0.91097 0.84248 0.86689 0.0
H55 H 0.89644 0.78823 0.8856 0.0
C56 C 0.89197 0.79103 0.90876 0.0
O57 O 0.89455 0.81824 0.91459 0.0
H58 H 0.87062 0.78452 0.90987 0.0
C59 C 0.85898 0.88249 0.86969 0.0
C60 C 0.88236 0.8724 0.85845 0.0
C61 C 0.84637 0.87174 0.89497 0.0
C62 C 0.85843 0.84946 0.90889 0.0
C63 C 0.88155 0.8382 0.89871 0.0
C64 C 0.89297 0.85023 0.87376 0.0
H65 H 0.76219 0.2135 0.27086 0.0
H66 H 0.69556 0.26242 0.26175 0.0
H67 H 0.75493 0.2744 0.33308 0.0
H68 H 0.699 0.27186 0.34625 0.0
C69 C 0.69114 0.28459 0.32808 0.0
O70 O 0.71026 0.28987 0.30837 0.0
H71 H 0.67344 0.27407 0.3167 0.0
C72 C 0.75178 0.22971 0.2783 0.0
C73 C 0.76189 0.24324 0.30368 0.0
C74 C 0.72777 0.23628 0.26308 0.0
C75 C 0.71417 0.25708 0.27305 0.0
C76 C 0.72417 0.2708 0.29808 0.0
C77 C 0.74799 0.26405 0.31321 0.0
H78 H 0.36537 0.62744 0.10669 0.0
H79 H 0.38474 0.55331 0.14548 0.0
H80 H 0.44304 0.61715 0.14984 0.0
H81 H 0.46333 0.56879 0.14199 0.0
C82 C 0.45392 0.55822 0.16038 0.0
O83 O 0.43148 0.56993 0.16769 0.0
H84 H 0.4484 0.5379 0.15336 0.0
C85 C 0.37968 0.61483 0.1174 0.0
C86 C 0.40549 0.6252 0.12608 0.0
C87 C 0.37169 0.58894 0.12453 0.0
C88 C 0.3903 0.57324 0.13954 0.0
C89 C 0.4157 0.58364 0.14888 0.0
C90 C 0.42328 0.60943 0.14215 0.0
H91 H 0.21091 0.25078 0.7569 0.0
H92 H 0.27497 0.308 0.7441 0.0
H93 H 0.26548 0.24037 0.69012 0.0
H94 H 0.32746 0.26641 0.70122 0.0
C95 C 0.31924 0.28438 0.70911 0.0
O96 O 0.29254 0.28458 0.69992 0.0
H97 H 0.32228 0.28456 0.73351 0.0
C98 C 0.22849 0.25715 0.74582 0.0
C99 C 0.23647 0.24245 0.72265 0.0
C100 C 0.24258 0.2806 0.75407 0.0
C101 C 0.26458 0.28941 0.73882 0.0
C102 C 0.27282 0.2748 0.71601 0.0
C103 C 0.25906 0.25126 0.70817 0.0
Nd104 Nd 0.06184 0.99435 0.54312 0.0
Nd105 Nd 0.02935 0.03898 0.54763 0.0
C106 C 0.08181 0.94813 0.54015 0.0
C107 C 0.09652 0.93172 0.56148 0.0
C108 C 0.10362 0.90705 0.55348 0.0
C109 C 0.12068 0.89291 0.5724 0.0
C110 C 0.13106 0.90344 0.59941 0.0
C111 C 0.12296 0.92773 0.60781 0.0
C112 C 0.10576 0.94172 0.58903 0.0
C113 C 0.08646 0.03239 0.57869 0.0
C114 C 1.01908 0.99319 0.59787 0.0
C115 C 1.0103 0.08554 0.55095 0.0
C116 C 0.9993 0.10409 0.52935 0.0
C117 C 0.98701 0.12587 0.53874 0.0
C118 C 0.9731 0.14153 0.51836 0.0
C119 C 0.97117 0.13546 0.48832 0.0
C120 C 0.98463 0.11429 0.47892 0.0
C121 C 0.99858 0.09871 0.49929 0.0
C122 C 1.00528 1.00076 0.51151 0.0
C123 C 0.07189 0.04072 0.493 0.0
O124 O 0.05676 0.95109 0.54433 0.0
O125 O 0.09462 0.96996 0.5335 0.0
O126 O 0.09894 0.01857 0.56139 0.0
O127 O 0.06221 0.02488 0.57838 0.0
O128 O 0.03342 0.97945 0.58077 0.0
O129 O 1.01705 0.01835 0.59154 0.0
O130 O 0.03578 0.08194 0.55063 0.0
O131 O 0.99584 0.06379 0.5533 0.0
O132 O 0.99255 0.01402 0.52918 0.0
O133 O 0.02941 1.00868 0.51212 0.0
O134 O 0.05737 0.05426 0.51002 0.0
O135 O 0.07404 0.01551 0.49923 0.0
H136 H 0.09675 0.89914 0.53221 0.0
H137 H 0.12673 0.87431 0.56531 0.0
H138 H 0.13041 0.93616 0.62864 0.0
H139 H 0.10044 0.96079 0.59553 0.0
H140 H 0.98726 0.13014 0.56192 0.0
H141 H 0.96271 0.15754 0.52627 0.0
H142 H 0.98371 0.10932 0.4559 0.0
H143 H 1.00793 0.08188 0.49171 0.0
Nd144 Nd 0.55946 0.99917 0.05533 0.0
Nd145 Nd 0.55894 0.0273 1.00961 0.0
C146 C 0.55907 0.96007 0.09395 0.0
C147 C 0.54631 0.93361 0.09425 0.0
C148 C 0.54504 0.91774 0.06936 0.0
C149 C 0.53156 0.89322 0.06951 0.0
C150 C 0.51909 0.88414 0.09454 0.0
C151 C 0.52055 0.90008 0.11945 0.0
C152 C 0.53405 0.92457 0.11928 0.0
C153 C 0.51892 0.03487 0.06166 0.0
C154 C 0.52296 0.9772 0.99912 0.0
C155 C 0.5574 0.06628 0.97089 0.0
C156 C 0.5744 0.08923 0.96259 0.0
C157 C 0.57782 0.11129 0.98058 0.0
C158 C 0.59278 0.13337 0.97188 0.0
C159 C 0.60477 0.13394 0.94503 0.0
C160 C 0.60162 0.11173 0.92722 0.0
C161 C 0.58648 0.08967 0.93586 0.0
C162 C 0.60034 0.99235 1.00315 0.0
C163 C 0.59607 0.04959 0.06593 0.0
O164 O 0.57771 0.96455 0.07595 0.0
O165 O 0.54304 0.97895 0.09397 0.0
O166 O 0.539 0.03092 0.08041 0.0
O167 O 0.52238 0.02198 0.03835 0.0
O168 O 0.53872 0.97024 0.02158 0.0
O169 O 0.52362 1.00165 0.99137 0.0
O170 O 0.54745 0.06678 0.99638 0.0
O171 O 0.56518 0.04337 0.96492 0.0
O172 O 0.58114 0.99745 0.98375 0.0
O173 O 0.59615 1.00444 0.02679 0.0
O174 O 0.58308 0.05581 0.04116 0.0
O175 O 0.5926 0.02602 0.07643 0.0
H176 H 0.55427 0.92432 0.04969 0.0
H177 H 0.53107 0.88132 0.0501 0.0
H178 H 0.51083 0.89382 0.13893 0.0
H179 H 0.5346 0.93663 0.13858 0.0
H180 H 0.56864 0.11172 1.00125 0.0
H181 H 0.59438 0.15023 0.98593 0.0
H182 H 0.61087 0.11137 0.9066 0.0
H183 H 0.58407 0.07299 0.92151 0.0
Nd184 Nd 0.55015 0.531 0.49565 0.0
Nd185 Nd 0.603 0.56187 0.50278 0.0
C186 C 0.49976 0.51384 0.48649 0.0
C187 C 0.47862 0.50814 0.50638 0.0
C188 C 0.45565 0.49309 0.49673 0.0
C189 C 0.43772 0.48371 0.51686 0.0
C190 C 0.44271 0.48911 0.54694 0.0
C191 C 0.46498 0.50553 0.55621 0.0
C192 C 0.48283 0.51496 0.53607 0.0
C193 C 0.58147 0.51713 0.54447 0.0
C194 C 0.55452 0.58526 0.53251 0.0
C195 C 0.65323 0.58001 0.51111 0.0
C196 C 0.67342 0.58845 0.49092 0.0
C197 C 0.69826 0.59948 0.50176 0.0
C198 C 0.71628 0.61021 0.48236 0.0
C199 C 0.70956 0.61017 0.45189 0.0
C200 C 0.68501 0.59815 0.44117 0.0
C201 C 0.66709 0.58738 0.46053 0.0
C202 C 0.57189 0.5737 0.45245 0.0
C203 C 0.59871 0.50645 0.46809 0.0
O204 O 0.50772 0.53836 0.48361 0.0
O205 O 0.51955 0.49851 0.4898 0.0
O206 O 0.56594 0.50075 0.52907 0.0
O207 O 0.57866 0.54005 0.53545 0.0
O208 O 0.53932 0.57017 0.51418 0.0
O209 O 0.58041 0.58246 0.53633 0.0
O210 O 0.64607 0.55516 0.51121 0.0
O211 O 0.63291 0.59468 0.51085 0.0
O212 O 0.5875 0.59082 0.46671 0.0
O213 O 0.57507 0.55161 0.46331 0.0
O214 O 0.61376 0.52165 0.48653 0.0
O215 O 0.57307 0.51009 0.46287 0.0
H216 H 0.45226 0.48753 0.47391 0.0
H217 H 0.42088 0.47089 0.50915 0.0
H218 H 0.46915 0.5102 0.57921 0.0
H219 H 0.50058 0.52653 0.54386 0.0
H220 H 0.70335 0.60052 0.5252 0.0
H221 H 0.73495 0.61952 0.49128 0.0
H222 H 0.67943 0.59752 0.41781 0.0
H223 H 0.64794 0.57891 0.45183 0.0
Nd224 Nd 0.03884 0.50511 0.08591 0.0
Nd225 Nd 0.0753 0.50909 0.03663 0.0
C226 C 0.99924 0.5063 0.12045 0.0
C227 C 0.97551 0.52173 0.119 0.0
C228 C 0.96384 0.52996 0.09179 0.0
C229 C 0.94621 0.54999 0.09044 0.0
C230 C 0.94019 0.56226 0.11623 0.0
C231 C 0.95017 0.55242 0.14352 0.0
C232 C 0.96772 0.53234 0.14486 0.0
C233 C 0.08975 0.52513 0.10063 0.0
C234 C 0.03134 0.55599 0.0379 0.0
C235 C 0.11197 0.51891 0.99912 0.0
C236 C 0.12784 0.50281 0.98161 0.0
C237 C 0.13947 0.48058 0.99381 0.0
C238 C 0.15217 0.46404 0.97615 0.0
C239 C 0.15306 0.46923 0.94596 0.0
C240 C 0.14201 0.49182 0.93397 0.0
C241 C 0.12959 0.50853 0.95171 0.0
C242 C 0.03216 0.47446 0.02662 0.0
C243 C 0.08069 0.45727 0.08268 0.0
O244 O 1.00017 0.48848 0.1004 0.0
O245 O 1.02178 0.52013 0.12501 0.0
O246 O 0.07737 0.50822 0.11686 0.0
O247 O 0.07522 0.53078 0.0782 0.0
O248 O 1.02249 0.54285 0.06107 0.0
O249 O 0.05213 0.54734 0.02523 0.0
O250 O 0.11737 0.51836 0.02764 0.0
O251 O 0.08635 0.51803 0.99142 0.0
O252 O 0.05562 0.47069 0.01818 0.0
O253 O 0.03188 0.49648 0.03809 0.0
O254 O 0.09339 0.47384 0.06478 0.0
O255 O 0.05684 0.46336 0.09087 0.0
H256 H 0.96964 0.52213 0.07148 0.0
H257 H 0.93848 0.55689 0.06914 0.0
H258 H 0.94612 0.56155 0.16379 0.0
H259 H 0.97669 0.52642 0.16602 0.0
H260 H 0.13804 0.47556 0.01677 0.0
H261 H 0.16029 0.4466 0.98586 0.0
H262 H 0.14263 0.49632 0.91078 0.0
H263 H 0.12066 0.52554 0.9419 0.0
H264 H 0.17243 0.19109 0.27692 0.0
H265 H 0.15075 0.16986 0.31729 0.0
H266 H 0.1857 0.09822 0.29907 0.0
H267 H 0.20633 0.11904 0.2571 0.0
H268 H 0.14144 0.08263 0.31745 0.0
H269 H 0.2039 0.14538 0.36433 0.0
H270 H 0.22592 0.18877 0.37438 0.0
H271 H 0.1514 0.21717 0.39593 0.0
H272 H 0.12887 0.174 0.38568 0.0
H273 H 0.10579 0.02017 0.45403 0.0
H274 H 0.12805 0.04082 0.41302 0.0
H275 H 0.09211 0.11257 0.42877 0.0
H276 H 0.07041 0.09203 0.47044 0.0
H277 H 0.13733 0.1278 0.4118 0.0
H278 H 0.0752 0.06435 0.36534 0.0
H279 H 0.05395 0.0206 0.35634 0.0
H280 H 0.12866 0.99308 0.33427 0.0
H281 H 0.15057 0.03664 0.34378 0.0
C282 C 0.1756 0.1707 0.28071 0.0
C283 C 0.1918 0.15747 0.26216 0.0
C284 C 0.16322 0.15836 0.30496 0.0
C285 C 0.16638 0.13189 0.31306 0.0
C286 C 0.18237 0.11851 0.29453 0.0
C287 C 0.1947 0.13083 0.27008 0.0
C288 C 0.153 0.11839 0.34001 0.0
C289 C 0.1411 0.09269 0.33808 0.0
C290 C 0.15122 0.13061 0.36777 0.0
C291 C 0.16467 0.15654 0.37395 0.0
C292 C 0.19219 0.16092 0.37104 0.0
C293 C 0.20476 0.18547 0.37679 0.0
C294 C 0.19005 0.20573 0.38571 0.0
C295 C 0.16275 0.20147 0.38897 0.0
C296 C 0.15008 0.17696 0.38322 0.0
C297 C 0.10235 0.04036 0.44893 0.0
C298 C 0.08566 0.05389 0.46645 0.0
C299 C 0.1152 0.0524 0.42476 0.0
C300 C 0.112 0.07878 0.41606 0.0
C301 C 0.09553 0.09238 0.43384 0.0
C302 C 0.08277 0.08036 0.45812 0.0
C303 C 0.12573 0.09208 0.38921 0.0
C304 C 0.13769 0.11775 0.39117 0.0
C305 C 0.12766 0.07978 0.36153 0.0
C306 C 0.11456 0.05368 0.35557 0.0
C307 C 0.08714 0.04894 0.35874 0.0
C308 C 0.07496 0.02416 0.35353 0.0
C309 C 0.0899 1.00404 0.34474 0.0
C310 C 0.1171 1.00868 0.34112 0.0
C311 C 0.12942 0.0334 0.34644 0.0
H312 H 0.0804 0.98487 0.34071 0.0
H313 H 0.19982 0.22472 0.39015 0.0
H314 H 0.37435 0.81121 0.83563 0.0
H315 H 0.3934 0.83698 0.87758 0.0
H316 H 0.46764 0.84839 0.83645 0.0
H317 H 0.44877 0.82285 0.79451 0.0
H318 H 0.47667 0.84063 0.89497 0.0
H319 H 0.4221 0.89396 0.82983 0.0
H320 H 0.38051 0.90508 0.8017 0.0
H321 H 0.34049 0.90602 0.88141 0.0
H322 H 0.3818 0.89452 0.90997 0.0
H323 H 0.49915 0.98337 0.94416 0.0
H324 H 0.47531 0.95012 0.91317 0.0
H325 H 0.48457 0.89367 0.98349 0.0
H326 H 0.5094 0.92676 0.01426 0.0
H327 H 0.43156 0.92109 0.91437 0.0
H328 H 0.49093 0.83524 0.95654 0.0
H329 H 0.53473 0.8273 0.98209 0.0
H330 H 0.56934 0.89599 0.94205 0.0
H331 H 0.52577 0.90433 0.91627 0.0
C332 C 0.39478 0.81911 0.83561 0.0
C333 C 0.40998 0.8151 0.81164 0.0
C334 C 0.40566 0.83373 0.85963 0.0
C335 C 0.43187 0.8448 0.86001 0.0
C336 C 0.44743 0.83992 0.8367 0.0
C337 C 0.4366 0.82527 0.81273 0.0
C338 C 0.44254 0.86305 0.88348 0.0
C339 C 0.46668 0.8581 0.89941 0.0
C340 C 0.4297 0.886 0.88908 0.0
C341 C 0.40492 0.89309 0.87198 0.0
C342 C 0.40437 0.89635 0.84132 0.0
C343 C 0.38086 0.90274 0.82531 0.0
C344 C 0.35784 0.90617 0.83975 0.0
C345 C 0.35832 0.9033 0.87025 0.0
C346 C 0.38177 0.89685 0.88636 0.0
C347 C 0.49598 0.96392 0.95312 0.0
C348 C 0.50642 0.95758 0.98152 0.0
C349 C 0.48225 0.94493 0.9354 0.0
C350 C 0.47846 0.91926 0.94579 0.0
C351 C 0.48775 0.91318 0.97472 0.0
C352 C 0.50188 0.93211 0.99232 0.0
C353 C 0.46587 0.89887 0.92567 0.0
C354 C 0.44132 0.90339 0.91036 0.0
C355 C 0.47865 0.87584 0.92017 0.0
C356 C 0.50511 0.87045 0.93465 0.0
C357 C 0.50794 0.84853 0.95305 0.0
C358 C 0.53269 0.844 0.96762 0.0
C359 C 0.55478 0.86112 0.96369 0.0
C360 C 0.5522 0.88277 0.94511 0.0
C361 C 0.52749 0.88743 0.93055 0.0
H362 H 0.5739 0.85759 0.97504 0.0
H363 H 0.33966 0.91113 0.82732 0.0
H364 H 0.67984 0.46588 0.80411 0.0
H365 H 0.65582 0.47787 0.75777 0.0
H366 H 0.72459 0.4625 0.71115 0.0
H367 H 0.74896 0.4514 0.75767 0.0
H368 H 0.7035 0.50429 0.6894 0.0
H369 H 0.67055 0.41815 0.71227 0.0
H370 H 0.65132 0.38303 0.7429 0.0
H371 H 0.58033 0.42458 0.74749 0.0
H372 H 0.59931 0.46015 0.71723 0.0
H373 H 0.59393 0.46874 0.56305 0.0
H374 H 0.62093 0.45704 0.60752 0.0
H375 H 0.63104 0.53808 0.63137 0.0
H376 H 0.60496 0.5499 0.58632 0.0
H377 H 0.61443 0.46103 0.66262 0.0
H378 H 0.69029 0.55078 0.66888 0.0
H379 H 0.71117 0.5822 0.63496 0.0
H380 H 0.70059 0.52598 0.56594 0.0
H381 H 0.68008 0.49408 0.59957 0.0
C382 C 0.68977 0.46507 0.78394 0.0
C383 C 0.71597 0.45711 0.78425 0.0
C384 C 0.67605 0.47185 0.75751 0.0
C385 C 0.68822 0.47055 0.73093 0.0
C386 C 0.71475 0.46348 0.73136 0.0
C387 C 0.72856 0.45697 0.75784 0.0
C388 C 0.67315 0.47616 0.70264 0.0
C389 C 0.68403 0.49484 0.68352 0.0
C390 C 0.64804 0.46335 0.69464 0.0
C391 C 0.63646 0.44192 0.7127 0.0
C392 C 0.65091 0.41988 0.71998 0.0
C393 C 0.64005 0.39989 0.73726 0.0
C394 C 0.61464 0.4016 0.7472 0.0
C395 C 0.60002 0.42329 0.73981 0.0
C396 C 0.61081 0.44337 0.72257 0.0
C397 C 0.60204 0.48402 0.57778 0.0
C398 C 0.59752 0.51019 0.57132 0.0
C399 C 0.61736 0.47733 0.60318 0.0
C400 C 0.62825 0.49669 0.62263 0.0
C401 C 0.62332 0.52285 0.61639 0.0
C402 C 0.60833 0.52958 0.59075 0.0
C403 C 0.64457 0.48946 0.64956 0.0
C404 C 0.63391 0.47048 0.66845 0.0
C405 C 0.67026 0.50137 0.65684 0.0
C406 C 0.68342 0.52013 0.63671 0.0
C407 C 0.69259 0.54506 0.64653 0.0
C408 C 0.70433 0.56296 0.62734 0.0
C409 C 0.70712 0.55612 0.59829 0.0
C410 C 0.69835 0.53128 0.58842 0.0
C411 C 0.68666 0.51329 0.60754 0.0
H412 H 0.71612 0.57004 0.58344 0.0
H413 H 0.60627 0.3861 0.76058 0.0
H414 H 0.91571 0.77945 0.21613 0.0
H415 H 0.91967 0.73595 0.19639 0.0
H416 H 0.86879 0.7555 0.11997 0.0
H417 H 0.86434 0.79887 0.14011 0.0
H418 H 0.8569 0.70677 0.13784 0.0
H419 H 0.9358 0.75747 0.11713 0.0
H420 H 0.9762 0.78618 0.12748 0.0
H421 H 1.0094 0.72848 0.18592 0.0
H422 H 0.96904 0.69945 0.17612 0.0
H423 H 0.94999 0.60328 0.07959 0.0
H424 H 0.93516 0.64736 0.08275 0.0
H425 H 0.88789 0.62302 0.15433 0.0
H426 H 0.90205 0.57861 0.15058 0.0
H427 H 0.94775 0.67683 0.12894 0.0
H428 H 0.83655 0.66317 0.15779 0.0
H429 H 0.79638 0.63533 0.14285 0.0
H430 H 0.82802 0.62093 0.06031 0.0
H431 H 0.86819 0.64893 0.07454 0.0
C432 C 0.90535 0.77434 0.19518 0.0
C433 C 0.89017 0.79252 0.17931 0.0
C434 C 0.90766 0.7496 0.18388 0.0
C435 C 0.89498 0.74269 0.1564 0.0
C436 C 0.8789 0.7605 0.14108 0.0
C437 C 0.87646 0.78523 0.1525 0.0
C438 C 0.89906 0.71706 0.14354 0.0
C439 C 0.87674 0.70019 0.13587 0.0
C440 C 0.92495 0.70883 0.14002 0.0
C441 C 0.94929 0.72628 0.14594 0.0
C442 C 0.95164 0.75089 0.13226 0.0
C443 C 0.97456 0.76724 0.13803 0.0
C444 C 0.99535 0.75917 0.15737 0.0
C445 C 0.99328 0.7347 0.17093 0.0
C446 C 0.9704 0.71828 0.16524 0.0
C447 C 0.93562 0.60705 0.09521 0.0
C448 C 0.92716 0.58744 0.11479 0.0
C449 C 0.92739 0.63234 0.09722 0.0
C450 C 0.91047 0.63852 0.11881 0.0
C451 C 0.90075 0.61866 0.1373 0.0
C452 C 0.90901 0.59333 0.1353 0.0
C453 C 0.90564 0.66608 0.12445 0.0
C454 C 0.92786 0.6834 0.13072 0.0
C455 C 0.8797 0.6748 0.12617 0.0
C456 C 0.85551 0.65801 0.11738 0.0
C457 C 0.83489 0.65415 0.13641 0.0
C458 C 0.81213 0.63832 0.12806 0.0
C459 C 0.80968 0.62631 0.10069 0.0
C460 C 0.82998 0.63016 0.08156 0.0
C461 C 0.85278 0.64597 0.08978 0.0
H462 H 0.79204 0.61406 0.09428 0.0
H463 H 1.01307 0.77187 0.16183 0.0
H464 H 0.32221 0.14759 0.19818 0.0
H465 H 0.36342 0.1313 0.18059 0.0
H466 H 0.31996 0.10745 0.09994 0.0
H467 H 0.27944 0.12393 0.11716 0.0
H468 H 0.35124 0.07011 0.112 0.0
H469 H 0.37232 0.16174 0.10848 0.0
H470 H 0.37948 0.20646 0.12729 0.0
H471 H 0.44044 0.18159 0.19054 0.0
H472 H 0.43339 0.13661 0.17234 0.0
H473 H 0.46593 0.03585 0.03377 0.0
H474 H 0.42608 0.05491 0.0509 0.0
H475 H 0.47207 0.08195 0.12882 0.0
H476 H 0.51163 0.06313 0.11167 0.0
H477 H 0.43972 0.11787 0.11869 0.0
H478 H 0.41866 0.02645 0.12312 0.0
H479 H 0.41162 0.98148 0.10501 0.0
H480 H 0.35069 1.0055 0.04122 0.0
H481 H 0.35761 0.05071 0.05872 0.0
C482 C 0.3214 0.13968 0.1763 0.0
C483 C 0.29662 0.13858 0.15903 0.0
C484 C 0.34543 0.12994 0.16603 0.0
C485 C 0.34616 0.11775 0.13815 0.0
C486 C 0.3213 0.11645 0.12131 0.0
C487 C 0.29764 0.12647 0.1313 0.0
C488 C 0.37183 0.10597 0.1266 0.0
C489 C 0.37037 0.08103 0.11331 0.0
C490 C 0.39794 0.11886 0.12811 0.0
C491 C 0.40209 0.14575 0.1393 0.0
C492 C 0.38708 0.16576 0.12658 0.0
C493 C 0.39115 0.19116 0.13709 0.0
C494 C 0.41034 0.19685 0.16016 0.0
C495 C 0.42554 0.17714 0.17272 0.0
C496 C 0.42152 0.15169 0.16231 0.0
C497 C 0.46781 0.04586 0.05456 0.0
C498 C 0.49303 0.04744 0.0709 0.0
C499 C 0.44446 0.05683 0.06478 0.0
C500 C 0.44464 0.07021 0.09203 0.0
C501 C 0.47004 0.07213 0.10791 0.0
C502 C 0.49321 0.06103 0.09786 0.0
C503 C 0.41913 0.08201 0.104 0.0
C504 C 0.42061 0.10694 0.11737 0.0
C505 C 0.39303 0.06906 0.1027 0.0
C506 C 0.38888 0.04201 0.09199 0.0
C507 C 0.40391 0.02217 0.10507 0.0
C508 C 0.39992 0.99664 0.09495 0.0
C509 C 0.38078 0.99066 0.07192 0.0
C510 C 0.36555 1.01018 0.05901 0.0
C511 C 0.36949 0.03577 0.06903 0.0
H512 H 0.37771 0.97087 0.06412 0.0
H513 H 0.41349 0.21653 0.16825 0.0
H514 H 0.31503 0.80048 0.7739 0.0
H515 H 0.2721 0.81433 0.75217 0.0
H516 H 0.30551 0.82449 0.6682 0.0
H517 H 0.34818 0.81038 0.68966 0.0
H518 H 0.25817 0.8583 0.72857 0.0
H519 H 0.25948 0.81264 0.61279 0.0
H520 H 0.27533 0.77353 0.59068 0.0
H521 H 0.27132 0.73246 0.67287 0.0
H522 H 0.25508 0.77117 0.69537 0.0
H523 H 0.17804 0.92483 0.62396 0.0
H524 H 0.2133 0.90301 0.65233 0.0
H525 H 0.16633 0.83013 0.64484 0.0
H526 H 0.13114 0.85193 0.6156 0.0
H527 H 0.21514 0.82221 0.63543 0.0
H528 H 0.17479 0.86494 0.71061 0.0
H529 H 0.15629 0.90159 0.73484 0.0
H530 H 0.23299 0.94314 0.73888 0.0
H531 H 0.25189 0.9069 0.71429 0.0
C532 C 0.31313 0.80559 0.75078 0.0
C533 C 0.3349 0.80415 0.73343 0.0
C534 C 0.28861 0.81348 0.73839 0.0
C535 C 0.28543 0.8201 0.70845 0.0
C536 C 0.30724 0.81886 0.69118 0.0
C537 C 0.33164 0.81079 0.70347 0.0
C538 C 0.25967 0.82926 0.69535 0.0
C539 C 0.24867 0.8503 0.70831 0.0
C540 C 0.24685 0.81843 0.6693 0.0
C541 C 0.25625 0.7949 0.65582 0.0
C542 C 0.26184 0.79522 0.62611 0.0
C543 C 0.27093 0.77313 0.61352 0.0
C544 C 0.2744 0.75055 0.63038 0.0
C545 C 0.26871 0.74999 0.65986 0.0
C546 C 0.25959 0.77201 0.67255 0.0
C547 C 0.17507 0.90422 0.62869 0.0
C548 C 0.15175 0.89011 0.6178 0.0
C549 C 0.19523 0.89175 0.64497 0.0
C550 C 0.19232 0.86498 0.65124 0.0
C551 C 0.16901 0.85081 0.64038 0.0
C552 C 0.14893 0.86325 0.62372 0.0
C553 C 0.21412 0.85178 0.66815 0.0
C554 C 0.22442 0.83001 0.65589 0.0
C555 C 0.22589 0.86152 0.69525 0.0
C556 C 0.21472 0.88323 0.71045 0.0
C557 C 0.18769 0.88194 0.71654 0.0
C558 C 0.17713 0.90265 0.73034 0.0
C559 C 0.19345 0.92469 0.73836 0.0
C560 C 0.22038 0.92605 0.73266 0.0
C561 C 0.23103 0.90541 0.71883 0.0
H562 H 0.18523 0.94072 0.74901 0.0
H563 H 0.28145 0.73348 0.6206 0.0
H564 H 0.83297 0.40857 0.85031 0.0
H565 H 0.87562 0.41821 0.8789 0.0
H566 H 0.83453 0.41847 0.9584 0.0
H567 H 0.79193 0.40833 0.92999 0.0
H568 H 0.87388 0.4631 0.94805 0.0
H569 H 0.8636 0.36877 0.95056 0.0
H570 H 0.85589 0.3256 0.92776 0.0
H571 H 0.92509 0.34012 0.87911 0.0
H572 H 0.93297 0.38358 0.9013 0.0
H573 H 0.98379 0.47213 0.0489 0.0
H574 H 0.94153 0.45489 0.02515 0.0
H575 H 0.98276 0.43035 0.9517 0.0
H576 H 0.02537 0.4459 0.97659 0.0
H577 H 0.94265 0.39769 0.95884 0.0
H578 H 0.95355 0.49077 0.95247 0.0
H579 H 0.96343 0.53464 0.97306 0.0
H580 H 0.89538 0.52473 0.02428 0.0
H581 H 0.88525 0.48067 1.00421 0.0
C582 C 0.83313 0.41078 0.87387 0.0
C583 C 0.80935 0.40769 0.88808 0.0
C584 C 0.85738 0.41619 0.89011 0.0
C585 C 0.85805 0.41896 0.92065 0.0
C586 C 0.83428 0.41637 0.93481 0.0
C587 C 0.81009 0.41049 0.91866 0.0
C588 C 0.88367 0.42426 0.9379 0.0
C589 C 0.88883 0.44875 0.95078 0.0
C590 C 0.90331 0.40572 0.94054 0.0
C591 C 0.8987 0.37953 0.92735 0.0
C592 C 0.87702 0.36286 0.93479 0.0
C593 C 0.87265 0.33832 0.92202 0.0
C594 C 0.88995 0.33015 0.90193 0.0
C595 C 0.91169 0.34649 0.89464 0.0
C596 C 0.91613 0.37107 0.90733 0.0
C597 C 0.98387 0.4624 0.0281 0.0
C598 C 1.00767 0.46047 0.01445 0.0
C599 C 0.95972 0.45279 0.01439 0.0
C600 C 0.95889 0.44216 0.98619 0.0
C601 C 0.9829 0.43869 0.97335 0.0
C602 C 1.00721 0.4476 0.98754 0.0
C603 C 0.93298 0.43657 0.96927 0.0
C604 C 0.92775 0.41209 0.95626 0.0
C605 C 0.91348 0.45538 0.96593 0.0
C606 C 0.91874 0.48235 0.97698 0.0
C607 C 0.94069 0.49795 0.96812 0.0
C608 C 0.94636 0.52283 0.97973 0.0
C609 C 0.93008 0.53244 1.00001 0.0
C610 C 0.90798 0.51726 1.00856 0.0
C611 C 0.90222 0.49235 0.99704 0.0
H612 H 0.93457 0.55166 1.00907 0.0
H613 H 0.88653 0.31114 0.89207 0.0
H614 H 0.81369 0.76562 0.26795 0.0
H615 H 0.78974 0.73115 0.29467 0.0
H616 H 0.86308 0.71307 0.34349 0.0
H617 H 0.88717 0.74783 0.317 0.0
H618 H 0.82474 0.66767 0.32575 0.0
H619 H 0.83227 0.74895 0.37686 0.0
H620 H 0.82982 0.79644 0.38078 0.0
H621 H 0.746 0.78949 0.35459 0.0
H622 H 0.74808 0.74194 0.34998 0.0
H623 H 0.76404 0.60987 0.45127 0.0
H624 H 0.79284 0.63527 0.41898 0.0
H625 H 0.72355 0.66763 0.3745 0.0
H626 H 0.69481 0.64271 0.40681 0.0
H627 H 0.76255 0.70492 0.39098 0.0
H628 H 0.75543 0.62245 0.34163 0.0
H629 H 0.75894 0.57506 0.33799 0.0
H630 H 0.843 0.58396 0.36235 0.0
H631 H 0.83992 0.63141 0.36655 0.0
C632 C 0.82484 0.75378 0.28373 0.0
C633 C 0.85222 0.7594 0.29054 0.0
C634 C 0.81114 0.73418 0.29902 0.0
C635 C 0.82468 0.71975 0.32111 0.0
C636 C 0.85237 0.72399 0.32644 0.0
C637 C 0.86603 0.74387 0.31143 0.0
C638 C 0.80933 0.70275 0.34095 0.0
C639 C 0.81136 0.67573 0.3403 0.0
C640 C 0.79184 0.7134 0.35972 0.0
C641 C 0.7904 0.74194 0.36274 0.0
C642 C 0.81337 0.75758 0.37165 0.0
C643 C 0.81205 0.7845 0.37405 0.0
C644 C 0.78779 0.79599 0.36786 0.0
C645 C 0.76479 0.78057 0.35932 0.0
C646 C 0.76603 0.75362 0.35682 0.0
C647 C 0.75499 0.62236 0.43454 0.0
C648 C 0.72716 0.62422 0.4315 0.0
C649 C 0.77142 0.6367 0.41601 0.0
C650 C 0.76028 0.65321 0.39426 0.0
C651 C 0.73252 0.65494 0.39109 0.0
C652 C 0.71612 0.64053 0.40943 0.0
C653 C 0.77747 0.66962 0.37554 0.0
C654 C 0.7759 0.69671 0.3765 0.0
C655 C 0.79549 0.65895 0.3573 0.0
C656 C 0.79739 0.63045 0.35472 0.0
C657 C 0.77462 0.61428 0.34647 0.0
C658 C 0.77654 0.58741 0.34425 0.0
C659 C 0.80116 0.5765 0.35002 0.0
C660 C 0.82393 0.59244 0.35794 0.0
C661 C 0.82212 0.61933 0.36022 0.0
H662 H 0.80261 0.55569 0.34828 0.0
H663 H 0.78679 0.81684 0.36974 0.0
H664 H 0.22687 0.24876 0.16099 0.0
H665 H 0.20735 0.28822 0.14126 0.0
H666 H 0.13533 0.26766 0.18329 0.0
H667 H 0.15383 0.22746 0.20128 0.0
H668 H 0.11733 0.29081 0.13985 0.0
H669 H 0.19236 0.32319 0.20266 0.0
H670 H 0.23958 0.329 0.22131 0.0
H671 H 0.26042 0.35834 0.13706 0.0
H672 H 0.21336 0.35242 0.11781 0.0
H673 H 0.06209 0.41804 0.12126 0.0
H674 H 0.08235 0.37808 0.13928 0.0
H675 H 0.14941 0.39621 0.0881 0.0
H676 H 0.12938 0.4366 0.07056 0.0
H677 H 0.17025 0.37479 0.13539 0.0
H678 H 0.09467 0.34322 0.07339 0.0
H679 H 0.04721 0.33822 0.05551 0.0
H680 H 0.02723 0.30803 0.13971 0.0
H681 H 0.07456 0.31315 0.15821 0.0
C682 C 0.20676 0.2521 0.16617 0.0
C683 C 0.19284 0.23352 0.18381 0.0
C684 C 0.19544 0.27563 0.15496 0.0
C685 C 0.16942 0.28275 0.16083 0.0
C686 C 0.15534 0.26402 0.17792 0.0
C687 C 0.16651 0.24043 0.18888 0.0
C688 C 0.15673 0.30878 0.14919 0.0
C689 C 0.12922 0.30906 0.13953 0.0
C690 C 0.17113 0.33363 0.1473 0.0
C691 C 0.19941 0.33706 0.15872 0.0
C692 C 0.20705 0.33071 0.18807 0.0
C693 C 0.23378 0.33405 0.19875 0.0
C694 C 0.253 0.34395 0.18035 0.0
C695 C 0.24552 0.35061 0.15126 0.0
C696 C 0.21883 0.34727 0.14045 0.0
C697 C 0.08117 0.41377 0.1136 0.0
C698 C 0.09356 0.43155 0.09396 0.0
C699 C 0.09296 0.39028 0.12398 0.0
C700 C 0.11795 0.38269 0.11533 0.0
C701 C 0.13043 0.40061 0.09588 0.0
C702 C 0.11865 0.42414 0.08551 0.0
C703 C 0.13093 0.35674 0.1264 0.0
C704 C 0.15845 0.3565 0.13587 0.0
C705 C 0.11651 0.33196 0.1283 0.0
C706 C 0.0881 0.32882 0.11726 0.0
C707 C 0.08013 0.33568 0.08815 0.0
C708 C 0.05326 0.3328 0.07789 0.0
C709 C 0.03421 0.32288 0.09649 0.0
C710 C 0.042 0.31575 0.12535 0.0
C711 C 0.06885 0.31862 0.13573 0.0
H712 H 1.01341 0.32067 0.08851 0.0
H713 H 0.27368 0.34653 0.18867 0.0
H714 H 0.71475 0.33898 0.82611 0.0
H715 H 0.69021 0.29851 0.83905 0.0
H716 H 0.70989 0.31378 0.93092 0.0
H717 H 0.73381 0.35462 0.91829 0.0
H718 H 0.721 0.26376 0.91416 0.0
H719 H 0.6486 0.32123 0.90359 0.0
H720 H 0.62068 0.35323 0.87747 0.0
H721 H 0.5992 0.29849 0.80844 0.0
H722 H 0.62731 0.26628 0.83397 0.0
H723 H 0.63823 0.16732 0.97881 0.0
H724 H 0.66086 0.20791 0.96356 0.0
H725 H 0.62935 0.19491 0.87418 0.0
H726 H 0.60533 0.155 0.88957 0.0
H727 H 0.62468 0.24343 0.88776 0.0
H728 H 0.69566 0.18572 0.89699 0.0
H729 H 0.72448 0.15336 0.921 0.0
H730 H 0.74987 0.20749 0.98955 0.0
H731 H 0.72092 0.24007 0.96616 0.0
C732 C 0.71343 0.33402 0.84909 0.0
C733 C 0.72634 0.35002 0.87116 0.0
C734 C 0.69952 0.31081 0.85642 0.0
C735 C 0.6983 0.30321 0.88593 0.0
C736 C 0.71078 0.31928 0.90801 0.0
C737 C 0.72451 0.34255 0.90073 0.0
C738 C 0.68471 0.27808 0.89379 0.0
C739 C 0.69986 0.25937 0.90875 0.0
C740 C 0.65737 0.27218 0.88579 0.0
C741 C 0.64028 0.29144 0.87055 0.0
C742 C 0.6381 0.31609 0.88273 0.0
C743 C 0.6222 0.33425 0.86805 0.0
C744 C 0.60824 0.32793 0.84127 0.0
C745 C 0.61006 0.30338 0.82917 0.0
C746 C 0.62595 0.28516 0.84375 0.0
C747 C 0.63591 0.17316 0.95594 0.0
C748 C 0.61991 0.15786 0.93543 0.0
C749 C 0.64916 0.19624 0.94718 0.0
C750 C 0.64711 0.2043 0.91764 0.0
C751 C 0.6313 0.18903 0.89707 0.0
C752 C 0.61782 0.16605 0.90587 0.0
C753 C 0.66091 0.22903 0.90842 0.0
C754 C 0.64584 0.24768 0.89314 0.0
C755 C 0.68843 0.23479 0.91583 0.0
C756 C 0.70592 0.21526 0.92995 0.0
C757 C 0.70723 0.19066 0.9173 0.0
C758 C 0.72362 0.17229 0.93078 0.0
C759 C 0.73895 0.17834 0.95682 0.0
C760 C 0.73797 0.20282 0.9694 0.0
C761 C 0.72159 0.22125 0.95602 0.0
H762 H 0.75163 0.1641 0.96722 0.0
H763 H 0.59596 0.34202 0.82993 0.0
H764 H 0.92403 0.81747 0.33535 0.0
H765 H 0.94202 0.84848 0.3728 0.0
H766 H 0.89853 0.90912 0.32845 0.0
H767 H 0.88032 0.87814 0.29093 0.0
H768 H 0.94784 0.92691 0.34654 0.0
H769 H 0.87548 0.88064 0.38878 0.0
H770 H 0.84824 0.84187 0.40337 0.0
H771 H 0.91366 0.8174 0.46087 0.0
H772 H 0.94144 0.85588 0.44631 0.0
H773 H 0.9526 0.98467 0.50414 0.0
H774 H 0.93087 0.95634 0.46566 0.0
H775 H 1.00691 0.94818 0.43012 0.0
H776 H 0.02866 0.97658 0.46838 0.0
H777 H 0.93657 0.90674 0.45163 0.0
H778 H 0.99686 0.94612 0.35432 0.0
H779 H 1.01843 0.98731 0.33743 0.0
H780 H 0.96868 0.03046 0.38889 0.0
H781 H 0.94629 0.98955 0.40545 0.0
C782 C 0.91825 0.8374 0.3336 0.0
C783 C 0.90063 0.84531 0.31027 0.0
C784 C 0.92855 0.85509 0.35501 0.0
C785 C 0.9213 0.88101 0.35364 0.0
C786 C 0.90435 0.88919 0.32993 0.0
C787 C 0.89406 0.87149 0.30845 0.0
C788 C 0.93123 0.89945 0.37718 0.0
C789 C 0.94544 0.92251 0.36952 0.0
C790 C 0.92735 0.89404 0.40709 0.0
C791 C 0.91062 0.87104 0.41626 0.0
C792 C 0.88413 0.86691 0.40439 0.0
C793 C 0.86858 0.84499 0.41267 0.0
C794 C 0.87924 0.82713 0.43296 0.0
C795 C 0.90544 0.83123 0.44512 0.0
C796 C 0.92109 0.85311 0.43689 0.0
C797 C 0.96465 0.97678 0.48813 0.0
C798 C 0.99226 0.98293 0.48908 0.0
C799 C 0.95224 0.96057 0.46623 0.0
C800 C 0.96722 0.9504 0.44483 0.0
C801 C 0.9949 0.95613 0.44614 0.0
C802 C 1.00731 0.97227 0.46806 0.0
C803 C 0.95396 0.93384 0.42105 0.0
C804 C 0.93906 0.91114 0.42866 0.0
C805 C 0.95659 0.93995 0.39103 0.0
C806 C 0.97013 0.9647 0.38142 0.0
C807 C 0.99048 0.96439 0.36199 0.0
C808 C 1.00283 0.98771 0.35244 0.0
C809 C 0.99503 1.0115 0.3622 0.0
C810 C 0.97479 1.01201 0.38145 0.0
C811 C 0.96226 0.98875 0.39093 0.0
H812 H 1.00458 0.02955 0.35475 0.0
H813 H 0.86718 0.81016 0.43931 0.0
H814 H 0.48316 0.75095 0.7162 0.0
H815 H 0.50306 0.71804 0.68787 0.0
H816 H 0.42926 0.70672 0.63396 0.0
H817 H 0.40928 0.73956 0.66251 0.0
H818 H 0.45202 0.66042 0.64792 0.0
H819 H 0.4793 0.74446 0.60917 0.0
H820 H 0.499 0.78948 0.61182 0.0
H821 H 0.57397 0.76149 0.64578 0.0
H822 H 0.5546 0.71631 0.64371 0.0
H823 H 0.50258 0.59856 0.52793 0.0
H824 H 0.48166 0.62868 0.55862 0.0
H825 H 0.5568 0.64413 0.60894 0.0
H826 H 0.57805 0.61452 0.57789 0.0
H827 H 0.5331 0.68792 0.59734 0.0
H828 H 0.50639 0.60359 0.63486 0.0
H829 H 0.48705 0.55849 0.63115 0.0
H830 H 0.41142 0.58646 0.59953 0.0
H831 H 0.43041 0.63174 0.6026 0.0
C832 C 0.47122 0.74133 0.69837 0.0
C833 C 0.44492 0.74805 0.69104 0.0
C834 C 0.48257 0.72259 0.68221 0.0
C835 C 0.46777 0.71026 0.6585 0.0
C836 C 0.44106 0.7161 0.65206 0.0
C837 C 0.42972 0.73487 0.66822 0.0
C838 C 0.48051 0.6921 0.63971 0.0
C839 C 0.46958 0.66647 0.6366 0.0
C840 C 0.50371 0.69989 0.6254 0.0
C841 C 0.51542 0.72703 0.62656 0.0
C842 C 0.49993 0.74793 0.61742 0.0
C843 C 0.51105 0.77347 0.61878 0.0
C844 C 0.5377 0.77835 0.62904 0.0
C845 C 0.55332 0.75768 0.63789 0.0
C846 C 0.54229 0.73211 0.6366 0.0
C847 C 0.5147 0.60841 0.54548 0.0
C848 C 0.54199 0.60409 0.5505 0.0
C849 C 0.50265 0.62551 0.56312 0.0
C850 C 0.51755 0.63835 0.58639 0.0
C851 C 0.54489 0.63439 0.59116 0.0
C852 C 0.55701 0.61743 0.57339 0.0
C853 C 0.50474 0.65613 0.6056 0.0
C854 C 0.51561 0.68176 0.60874 0.0
C855 C 0.48154 0.64827 0.61997 0.0
C856 C 0.4699 0.62107 0.61871 0.0
C857 C 0.48567 0.60013 0.62696 0.0
C858 C 0.47477 0.57453 0.62497 0.0
C859 C 0.44804 0.56961 0.61503 0.0
C860 C 0.43213 0.5903 0.60719 0.0
C861 C 0.44295 0.61594 0.60907 0.0
H862 H 0.43966 0.54977 0.61346 0.0
H863 H 0.54627 0.79813 0.63007 0.0
H864 H 0.88277 0.92409 0.83529 0.0
H865 H 0.90472 0.94359 0.79366 0.0
H866 H 0.93635 0.87012 0.77613 0.0
H867 H 0.91451 0.85048 0.81776 0.0
H868 H 0.9734 0.90266 0.76283 0.0
H869 H 0.88065 0.90456 0.73129 0.0
H870 H 0.83373 0.915 0.73404 0.0
H871 H 0.85732 0.99652 0.73773 0.0
H872 H 0.90443 0.98654 0.73534 0.0
H873 H 1.01847 0.94157 0.61995 0.0
H874 H 0.99626 0.92178 0.66159 0.0
H875 H 0.96538 0.99549 0.67987 0.0
H876 H 0.98717 0.01513 0.63788 0.0
H877 H 0.92802 0.9628 0.69275 0.0
H878 H 1.0208 0.96084 0.72406 0.0
H879 H 0.06767 0.95035 0.72097 0.0
H880 H 0.04398 0.86885 0.71747 0.0
H881 H 0.99691 0.87888 0.72018 0.0
C882 C 0.89401 0.91162 0.82264 0.0
C883 C 0.89608 0.88506 0.83122 0.0
C884 C 0.90686 0.92309 0.79813 0.0
C885 C 0.92254 0.90883 0.78007 0.0
C886 C 0.92482 0.88238 0.78874 0.0
C887 C 0.91203 0.87091 0.81327 0.0
C888 C 0.93653 0.92113 0.75287 0.0
C889 C 0.963 0.91549 0.74748 0.0
C890 C 0.92433 0.93871 0.73202 0.0
C891 C 0.89608 0.94478 0.73346 0.0
C892 C 0.87584 0.9247 0.73288 0.0
C893 C 0.84921 0.93053 0.73435 0.0
C894 C 0.84255 0.9564 0.73615 0.0
C895 C 0.86251 0.97649 0.7364 0.0
C896 C 0.88918 0.97076 0.73497 0.0
C897 C 1.00708 0.95381 0.63273 0.0
C898 C 1.00525 0.98045 0.62463 0.0
C899 C 0.99425 0.94231 0.65725 0.0
C900 C 0.97884 0.95666 0.67555 0.0
C901 C 0.97678 0.98321 0.66714 0.0
C902 C 0.98961 0.99472 0.64266 0.0
C903 C 0.96487 0.94433 0.70272 0.0
C904 C 0.93841 0.94997 0.70811 0.0
C905 C 0.97708 0.92674 0.72355 0.0
C906 C 1.00532 0.92063 0.72201 0.0
C907 C 0.02558 0.94069 0.72244 0.0
C908 C 0.05218 0.93483 0.72078 0.0
C909 C 0.05879 0.90896 0.71893 0.0
C910 C 0.03882 0.88889 0.71884 0.0
C911 C 1.01218 0.89464 0.72046 0.0
H912 H 0.07939 0.90446 0.71764 0.0
H913 H 0.82193 0.96087 0.73728 0.0
H914 H 0.75294 0.21835 0.21694 0.0
H915 H 0.73383 0.18946 0.17766 0.0
H916 H 0.65732 0.18829 0.21456 0.0
H917 H 0.6762 0.2173 0.25349 0.0
H918 H 0.71356 0.14166 0.17988 0.0
H919 H 0.60723 0.18087 0.16265 0.0
H920 H 0.58611 0.22282 0.16368 0.0
H921 H 0.66009 0.26342 0.14521 0.0
H922 H 0.68156 0.22171 0.14365 0.0
H923 H 0.61911 0.0459 0.12181 0.0
H924 H 0.64519 0.07984 0.14989 0.0
H925 H 0.63861 0.13196 0.07516 0.0
H926 H 0.61185 0.09833 0.0472 0.0
H927 H 0.62852 0.15645 0.12164 0.0
H928 H 0.69827 0.10444 0.09747 0.0
H929 H 0.72182 0.06427 0.09256 0.0
H930 H 0.72578 0.05283 0.18604 0.0
H931 H 0.70191 0.09274 0.19149 0.0
C932 C 0.73201 0.21204 0.21649 0.0
C933 C 0.71602 0.2202 0.23816 0.0
C934 C 0.72112 0.19555 0.19408 0.0
C935 C 0.69407 0.18693 0.19295 0.0
C936 C 0.67809 0.19515 0.21454 0.0
C937 C 0.6889 0.21175 0.23679 0.0
C938 C 0.6827 0.1684 0.17008 0.0
C939 C 0.69505 0.14496 0.16701 0.0
C940 C 0.65891 0.17295 0.15273 0.0
C941 C 0.64605 0.19814 0.15327 0.0
C942 C 0.61896 0.19873 0.15866 0.0
C943 C 0.60694 0.22248 0.15936 0.0
C944 C 0.62177 0.24578 0.15459 0.0
C945 C 0.64865 0.24537 0.149 0.0
C946 C 0.66076 0.22168 0.14825 0.0
C947 C 0.62342 0.0645 0.11126 0.0
C948 C 0.6134 0.06944 0.08231 0.0
C949 C 0.63845 0.08386 0.1273 0.0
C950 C 0.64413 0.10839 0.11455 0.0
C951 C 0.63448 0.11321 0.08547 0.0
C952 C 0.61923 0.09394 0.0695 0.0
C953 C 0.65894 0.12937 0.13211 0.0
C954 C 0.6472 0.15326 0.13423 0.0
C955 C 0.68366 0.12549 0.14799 0.0
C956 C 0.69812 0.1015 0.14486 0.0
C957 C 0.704 0.09326 0.11696 0.0
C958 C 0.71743 0.07055 0.11409 0.0
C959 C 0.72525 0.05598 0.13897 0.0
C960 C 0.7197 0.06413 0.16678 0.0
C961 C 0.70625 0.08681 0.16978 0.0
H962 H 0.73565 0.0384 0.13669 0.0
H963 H 0.61243 0.26414 0.15517 0.0
H964 H 0.49282 0.59565 0.17679 0.0
H965 H 0.51609 0.60135 0.22563 0.0
H966 H 0.47859 0.52876 0.25425 0.0
H967 H 0.45541 0.52304 0.20548 0.0
H968 H 0.47005 0.57014 0.28909 0.0
H969 H 0.54402 0.53298 0.24735 0.0
H970 H 0.57801 0.52943 0.21171 0.0
H971 H 0.61071 0.60627 0.23355 0.0
H972 H 0.57667 0.6104 0.26909 0.0
H973 H 0.53548 0.54056 0.42453 0.0
H974 H 0.51723 0.54283 0.37373 0.0
H975 H 0.56074 0.61666 0.36241 0.0
H976 H 0.57934 0.6144 0.41376 0.0
H977 H 0.56699 0.58117 0.31805 0.0
H978 H 0.49533 0.6164 0.36354 0.0
H979 H 0.46198 0.61892 0.40009 0.0
H980 H 0.42495 0.54542 0.37143 0.0
H981 H 0.45832 0.54226 0.33499 0.0
C982 C 0.4904 0.58049 0.19325 0.0
C983 C 0.47286 0.55861 0.18733 0.0
C984 C 0.50354 0.58382 0.22112 0.0
C985 C 0.49905 0.56545 0.24349 0.0
C986 C 0.48234 0.5431 0.23723 0.0
C987 C 0.46933 0.53972 0.20937 0.0
C988 C 0.50963 0.57062 0.27407 0.0
C989 C 0.49126 0.57232 0.29549 0.0
C990 C 0.53724 0.57451 0.2821 0.0
C991 C 0.55758 0.57213 0.2606 0.0
C992 C 0.55827 0.54923 0.24433 0.0
C993 C 0.57759 0.54708 0.2242 0.0
C994 C 0.59644 0.56765 0.22029 0.0
C995 C 0.59606 0.59038 0.23656 0.0
C996 C 0.57677 0.59263 0.25671 0.0
C997 C 0.5409 0.55747 0.41136 0.0
C998 C 0.55878 0.57732 0.42296 0.0
C999 C 0.53041 0.55877 0.38237 0.0
C1000 C 0.53752 0.57998 0.36439 0.0
C1001 C 0.555 0.60017 0.37603 0.0
C1002 C 0.56543 0.59896 0.4053 0.0
C1003 C 0.5274 0.58002 0.33315 0.0
C1004 C 0.54579 0.57938 0.31158 0.0
C1005 C 0.49976 0.57711 0.32491 0.0
C1006 C 0.47945 0.57903 0.34662 0.0
C1007 C 0.48018 0.60068 0.36515 0.0
C1008 C 0.46126 0.60224 0.38584 0.0
C1009 C 0.44138 0.58233 0.38811 0.0
C1010 C 0.44036 0.56084 0.36965 0.0
C1011 C 0.45925 0.55917 0.34893 0.0
H1012 H 0.42676 0.58356 0.40415 0.0
H1013 H 0.6114 0.56594 0.20471 0.0
H1014 H 0.19236 0.29616 0.75881 0.0
H1015 H 0.17825 0.32724 0.79384 0.0
H1016 H 0.25796 0.33333 0.83587 0.0
H1017 H 0.27226 0.30238 0.80071 0.0
H1018 H 0.21434 0.32988 0.87534 0.0
H1019 H 0.24485 0.37794 0.79145 0.0
H1020 H 0.24605 0.38761 0.73853 0.0
H1021 H 0.16259 0.40164 0.73298 0.0
H1022 H 0.16081 0.39161 0.78582 0.0
H1023 H 0.20032 0.44566 0.95414 0.0
H1024 H 0.21698 0.41284 0.92299 0.0
H1025 H 0.1461 0.41655 0.86407 0.0
H1026 H 0.12984 0.4498 0.89466 0.0
H1027 H 0.18725 0.41473 0.83364 0.0
H1028 H 0.1552 0.36639 0.91589 0.0
H1029 H 0.15204 0.35537 0.96828 0.0
H1030 H 0.23526 0.34038 0.97676 0.0
H1031 H 0.23901 0.35168 0.92449 0.0
C1032 C 0.20672 0.30378 0.77586 0.0
C1033 C 0.23338 0.297 0.77711 0.0
C1034 C 0.19869 0.32156 0.79572 0.0
C1035 C 0.21715 0.33259 0.81722 0.0
C1036 C 0.24349 0.32495 0.81939 0.0
C1037 C 0.25162 0.30744 0.79928 0.0
C1038 C 0.20934 0.35337 0.83618 0.0
C1039 C 0.20871 0.34859 0.8664 0.0
C1040 C 0.20155 0.37746 0.82422 0.0
C1041 C 0.20265 0.38377 0.79252 0.0
C1042 C 0.22671 0.38286 0.77889 0.0
C1043 C 0.2275 0.38845 0.74892 0.0
C1044 C 0.2044 0.39517 0.73239 0.0
C1045 C 0.18047 0.39639 0.74581 0.0
C1046 C 0.17956 0.39077 0.77577 0.0
C1047 C 0.18841 0.43946 0.93448 0.0
C1048 C 0.16385 0.45023 0.92673 0.0
C1049 C 0.19785 0.42066 0.91678 0.0
C1050 C 0.18259 0.41194 0.89142 0.0
C1051 C 0.15824 0.423 0.88349 0.0
C1052 C 0.14898 0.44201 0.90093 0.0
C1053 C 0.19186 0.39129 0.87302 0.0
C1054 C 0.19286 0.39609 0.84278 0.0
C1055 C 0.19968 0.36711 0.88497 0.0
C1056 C 0.19744 0.36014 0.91635 0.0
C1057 C 0.17287 0.36093 0.92898 0.0
C1058 C 0.17097 0.3546 0.95865 0.0
C1059 C 0.19345 0.34725 0.97586 0.0
C1060 C 0.21787 0.34612 0.96341 0.0
C1061 C 0.21989 0.35247 0.93376 0.0
H1062 H 0.19194 0.34236 0.99882 0.0
H1063 H 0.20505 0.39949 0.70918 0.0
H1064 H 0.80434 0.89833 0.86497 0.0
H1065 H 0.76533 0.91707 0.88288 0.0
H1066 H 0.78989 0.89329 0.97092 0.0
H1067 H 0.82858 0.87358 0.95276 0.0
H1068 H 0.74105 0.89141 0.97364 0.0
H1069 H 0.78988 0.96463 0.93436 0.0
H1070 H 0.81315 0.99092 0.89744 0.0
H1071 H 0.74162 0.98819 0.83986 0.0
H1072 H 0.718 0.96163 0.87632 0.0
H1073 H 0.64592 0.97443 0.0377 0.0
H1074 H 0.68596 0.95474 0.02161 0.0
H1075 H 0.65589 0.96283 0.93158 0.0
H1076 H 0.61601 0.98188 0.94754 0.0
H1077 H 0.70793 0.97353 0.93136 0.0
H1078 H 0.65931 0.90099 0.97322 0.0
H1079 H 0.63684 0.87642 0.012 0.0
H1080 H 0.70971 0.88039 0.06741 0.0
H1081 H 0.73254 0.9053 0.02907 0.0
C1082 C 0.80198 0.8971 0.8883 0.0
C1083 C 0.82105 0.88399 0.90683 0.0
C1084 C 0.77907 0.90835 0.89892 0.0
C1085 C 0.77357 0.90806 0.92913 0.0
C1086 C 0.79241 0.89461 0.94762 0.0
C1087 C 0.81517 0.88301 0.93692 0.0
C1088 C 0.74865 0.92115 0.94112 0.0
C1089 C 0.73444 0.90962 0.96434 0.0
C1090 C 0.73819 0.94502 0.92988 0.0
C1091 C 0.75227 0.96092 0.90792 0.0
C1092 C 0.77917 0.96952 0.91374 0.0
C1093 C 0.79241 0.98447 0.89292 0.0
C1094 C 0.77889 0.99115 0.86629 0.0
C1095 C 0.75208 0.98295 0.86047 0.0
C1096 C 0.73874 0.96796 0.88121 0.0
C1097 C 0.64761 0.97209 0.01442 0.0
C1098 C 0.62667 0.98027 0.99434 0.0
C1099 C 0.67093 0.96045 1.00496 0.0
C1100 C 0.67515 0.95649 0.97478 0.0
C1101 C 0.65436 0.9651 0.9549 0.0
C1102 C 0.63097 0.97623 0.96431 0.0
C1103 C 0.70052 0.94379 0.96372 0.0
C1104 C 0.71472 0.95537 0.94064 0.0
C1105 C 0.71116 0.92022 0.97538 0.0
C1106 C 0.69755 0.90525 0.99841 0.0
C1107 C 0.67049 0.89679 0.99376 0.0
C1108 C 0.6577 0.88278 0.01565 0.0
C1109 C 0.67182 0.87692 0.04219 0.0
C1110 C 0.69879 0.88499 0.04686 0.0
C1111 C 0.71167 0.89904 0.02505 0.0
H1112 H 0.66189 0.86606 0.05911 0.0
H1113 H 0.78918 1.00273 0.85019 0.0
H1114 H 0.80288 0.27326 0.33158 0.0
H1115 H 0.84057 0.25835 0.36308 0.0
H1116 H 0.81281 0.17858 0.34668 0.0
H1117 H 0.77459 0.19327 0.31642 0.0
H1118 H 0.82512 0.18554 0.40309 0.0
H1119 H 0.86711 0.20795 0.31393 0.0
H1120 H 0.88007 0.23689 0.27325 0.0
H1121 H 0.9222 0.28969 0.33483 0.0
H1122 H 0.90918 0.2612 0.37592 0.0
H1123 H 0.93527 0.11432 0.4466 0.0
H1124 H 0.90234 0.13656 0.41509 0.0
H1125 H 0.93225 0.21034 0.45157 0.0
H1126 H 0.96564 0.18813 0.48322 0.0
H1127 H 0.91996 0.21057 0.38835 0.0
H1128 H 0.8798 0.18604 0.47729 0.0
H1129 H 0.8674 0.15604 0.51725 0.0
H1130 H 0.82188 0.10632 0.45495 0.0
H1131 H 0.83436 0.13583 0.41453 0.0
C1132 C 0.80478 0.25255 0.33476 0.0
C1133 C 0.78576 0.23446 0.32135 0.0
C1134 C 0.82647 0.24406 0.35254 0.0
C1135 C 0.82964 0.21734 0.35702 0.0
C1136 C 0.81081 0.19929 0.34348 0.0
C1137 C 0.7891 0.20774 0.32589 0.0
C1138 C 0.852 0.20794 0.37657 0.0
C1139 C 0.84585 0.19085 0.39964 0.0
C1140 C 0.87904 0.21549 0.37267 0.0
C1141 C 0.88692 0.2326 0.34801 0.0
C1142 C 0.87895 0.22584 0.31881 0.0
C1143 C 0.88635 0.24214 0.29568 0.0
C1144 C 0.90188 0.26516 0.30146 0.0
C1145 C 0.91012 0.27188 0.33039 0.0
C1146 C 0.90276 0.25566 0.3536 0.0
C1147 C 0.93525 0.13533 0.44753 0.0
C1148 C 0.95304 0.1495 0.46737 0.0
C1149 C 0.9163 0.14797 0.42966 0.0
C1150 C 0.91477 0.17502 0.43124 0.0
C1151 C 0.93315 0.18943 0.45012 0.0
C1152 C 0.95205 0.17673 0.46825 0.0
C1153 C 0.89295 0.18777 0.41421 0.0
C1154 C 0.8992 0.2055 0.39181 0.0
C1155 C 0.86594 0.18075 0.41858 0.0
C1156 C 0.85821 0.16305 0.44286 0.0
C1157 C 0.86732 0.16861 0.47208 0.0
C1158 C 0.86025 0.1517 0.49482 0.0
C1159 C 0.84391 0.12926 0.48864 0.0
C1160 C 0.83456 0.1237 0.4597 0.0
C1161 C 0.8416 0.14053 0.43687 0.0
H1162 H 0.83845 0.1162 0.50627 0.0
H1163 H 0.90759 0.27775 0.28352 0.0
H1164 H 0.3367 0.59864 0.07699 0.0
H1165 H 0.28879 0.58669 0.07155 0.0
H1166 H 0.29459 0.54529 0.15429 0.0
H1167 H 0.34203 0.55793 0.16061 0.0
H1168 H 0.26241 0.5185 0.10849 0.0
H1169 H 0.27411 0.60274 0.15502 0.0
H1170 H 0.29091 0.64867 0.15848 0.0
H1171 H 0.24702 0.66599 0.077 0.0
H1172 H 0.23029 0.62003 0.07283 0.0
H1173 H 0.12684 0.50613 0.14081 0.0
H1174 H 0.1752 0.51599 0.14368 0.0
H1175 H 0.16574 0.56928 0.07028 0.0
H1176 H 0.11748 0.56019 0.06806 0.0
H1177 H 0.2003 0.58971 0.10973 0.0
H1178 H 0.18791 0.50713 0.06203 0.0
H1179 H 0.17281 0.46101 0.05516 0.0
H1180 H 0.21782 0.44042 0.13479 0.0
H1181 H 0.23317 0.48645 0.14221 0.0
C1182 C 0.32781 0.58699 0.09404 0.0
C1183 C 0.3433 0.57933 0.11927 0.0
C1184 C 0.30049 0.58007 0.0908 0.0
C1185 C 0.28826 0.56524 0.11261 0.0
C1186 C 0.30377 0.55663 0.13716 0.0
C1187 C 0.33097 0.56377 0.1406 0.0
C1188 C 0.25903 0.55988 0.11077 0.0
C1189 C 0.24876 0.53399 0.10902 0.0
C1190 C 0.24138 0.58022 0.1108 0.0
C1191 C 0.25119 0.6079 0.11346 0.0
C1192 C 0.26822 0.61629 0.13772 0.0
C1193 C 0.2777 0.64234 0.13983 0.0
C1194 C 0.2701 0.66022 0.11793 0.0
C1195 C 0.25293 0.65211 0.09392 0.0
C1196 C 0.24343 0.62607 0.09168 0.0
C1197 C 0.13512 0.52014 0.12553 0.0
C1198 C 0.11854 0.53228 0.10409 0.0
C1199 C 0.16273 0.52557 0.12698 0.0
C1200 C 0.17413 0.543 0.10682 0.0
C1201 C 0.15742 0.55568 0.08597 0.0
C1202 C 0.12987 0.55043 0.08468 0.0
C1203 C 0.20345 0.5482 0.10743 0.0
C1204 C 0.21381 0.57412 0.10905 0.0
C1205 C 0.22116 0.52788 0.10689 0.0
C1206 C 0.21151 0.50027 0.10281 0.0
C1207 C 0.1944 0.49281 0.07822 0.0
C1208 C 0.18584 0.46668 0.0742 0.0
C1209 C 0.19428 0.44783 0.09458 0.0
C1210 C 0.21129 0.45506 0.11904 0.0
C1211 C 0.21998 0.48115 0.12314 0.0
H1212 H 0.1878 0.4276 0.09133 0.0
H1213 H 0.27746 0.68038 0.1196 0.0
H1214 H 0.3151 0.33458 0.72537 0.0
H1215 H 0.33236 0.37436 0.70135 0.0
H1216 H 0.37146 0.32779 0.64161 0.0
H1217 H 0.35341 0.28809 0.66495 0.0
H1218 H 0.37914 0.39662 0.69259 0.0
H1219 H 0.36831 0.35398 0.57444 0.0
H1220 H 0.33935 0.32156 0.546 0.0
H1221 H 0.27661 0.3308 0.603 0.0
H1222 H 0.30503 0.36354 0.63151 0.0
H1223 H 0.46139 0.46413 0.59634 0.0
H1224 H 0.43632 0.4352 0.62822 0.0
H1225 H 0.36299 0.45259 0.57867 0.0
H1226 H 0.3883 0.48125 0.54606 0.0
H1227 H 0.36446 0.40341 0.5842 0.0
H1228 H 0.37735 0.47206 0.65178 0.0
H1229 H 0.40148 0.50735 0.68061 0.0
H1230 H 0.45086 0.45201 0.72564 0.0
H1231 H 0.42732 0.41641 0.69675 0.0
C1232 C 0.32767 0.33297 0.70732 0.0
C1233 C 0.33306 0.30841 0.697 0.0
C1234 C 0.3375 0.35563 0.69364 0.0
C1235 C 0.35283 0.35405 0.66938 0.0
C1236 C 0.35921 0.32947 0.65992 0.0
C1237 C 0.34914 0.30682 0.67339 0.0
C1238 C 0.36149 0.37797 0.65332 0.0
C1239 C 0.37589 0.39819 0.6689 0.0
C1240 C 0.35628 0.38049 0.62256 0.0
C1241 C 0.33891 0.36106 0.60525 0.0
C1242 C 0.34829 0.34919 0.58081 0.0
C1243 C 0.33198 0.33074 0.5647 0.0
C1244 C 0.30619 0.32407 0.57274 0.0
C1245 C 0.29662 0.33591 0.59685 0.0
C1246 C 0.31283 0.3544 0.61301 0.0
C1247 C 0.43985 0.46236 0.59269 0.0
C1248 C 0.42677 0.47497 0.56874 0.0
C1249 C 0.42549 0.44581 0.611 0.0
C1250 C 0.39769 0.44186 0.60608 0.0
C1251 C 0.38443 0.45531 0.58288 0.0
C1252 C 0.39886 0.47167 0.5643 0.0
C1253 C 0.3831 0.4217 0.62328 0.0
C1254 C 0.3675 0.4021 0.60792 0.0
C1255 C 0.38647 0.42024 0.65432 0.0
C1256 C 0.40064 0.44156 0.67194 0.0
C1257 C 0.39347 0.46742 0.66769 0.0
C1258 C 0.40703 0.48749 0.68406 0.0
C1259 C 0.42771 0.48193 0.70492 0.0
C1260 C 0.43483 0.45628 0.70948 0.0
C1261 C 0.42136 0.43614 0.69313 0.0
H1262 H 0.43819 0.49749 0.71757 0.0
H1263 H 0.29361 0.30977 0.56025 0.0
H1264 H 0.87756 0.75705 0.95474 0.0
H1265 H 0.89993 0.7198 0.97677 0.0
H1266 H 0.96849 0.74012 0.92852 0.0
H1267 H 0.94549 0.77706 0.90572 0.0
H1268 H 0.9658 0.69135 0.92713 0.0
H1269 H 0.96039 0.74216 0.01514 0.0
H1270 H 0.93769 0.76557 0.05193 0.0
H1271 H 0.88758 0.69705 0.06729 0.0
H1272 H 0.91005 0.67317 0.03082 0.0
H1273 H 0.04839 0.5943 0.99754 0.0
H1274 H 0.02733 0.63357 0.97899 0.0
H1275 H 0.96038 0.6145 0.0301 0.0
H1276 H 0.9823 0.57586 0.04995 0.0
H1277 H 0.96197 0.66259 0.03067 0.0
H1278 H 0.96407 0.61155 0.94522 0.0
H1279 H 0.98342 0.58571 0.90799 0.0
H1280 H 0.03488 0.6516 0.88617 0.0
H1281 H 1.01605 0.67776 0.92355 0.0
C1282 C 0.89778 0.75434 0.94937 0.0
C1283 C 0.90948 0.7715 0.92859 0.0
C1284 C 0.91091 0.73244 0.96224 0.0
C1285 C 0.93689 0.72608 0.95546 0.0
C1286 C 0.94877 0.74355 0.93502 0.0
C1287 C 0.93556 0.76543 0.92206 0.0
C1288 C 0.95096 0.70119 0.96824 0.0
C1289 C 0.96517 0.68567 0.95001 0.0
C1290 C 0.95006 0.6917 0.99793 0.0
C1291 C 0.93667 0.70601 0.01995 0.0
C1292 C 0.94446 0.73213 0.02629 0.0
C1293 C 0.93168 0.74544 0.04717 0.0
C1294 C 0.91114 0.73281 0.06186 0.0
C1295 C 0.9035 0.70678 0.05593 0.0
C1296 C 0.91628 0.69334 0.03521 0.0
C1297 C 0.02916 0.59823 1.00506 0.0
C1298 C 1.01756 0.58093 0.02572 0.0
C1299 C 1.01665 0.6211 0.99394 0.0
C1300 C 0.99126 0.62807 1.0021 0.0
C1301 C 0.97974 0.61075 0.02287 0.0
C1302 C 0.99247 0.58808 0.03435 0.0
C1303 C 0.97709 0.65299 0.98962 0.0
C1304 C 0.96279 0.66841 1.00784 0.0
C1305 C 0.97744 0.66212 0.95981 0.0
C1306 C 0.98887 0.64651 0.9374 0.0
C1307 C 0.97964 0.62047 0.93261 0.0
C1308 C 0.9905 0.60578 0.91147 0.0
C1309 C 1.01042 0.61699 0.89479 0.0
C1310 C 1.01948 0.64293 0.89916 0.0
C1311 C 1.00872 0.65771 0.92031 0.0
H1312 H 1.0188 0.60558 0.87843 0.0
H1313 H 0.90113 0.74317 0.07784 0.0
H1314 H 0.43284 0.65993 0.16348 0.0
H1315 H 0.44701 0.70504 0.15343 0.0
H1316 H 0.40933 0.69888 0.06561 0.0
H1317 H 0.39582 0.65314 0.07523 0.0
H1318 H 0.45817 0.72294 0.0654 0.0
H1319 H 0.38106 0.73282 0.11662 0.0
H1320 H 0.35027 0.72533 0.15577 0.0
H1321 H 0.4104 0.75668 0.21934 0.0
H1322 H 0.44172 0.76399 0.18064 0.0
H1323 H 0.48608 0.86126 0.05051 0.0
H1324 H 0.46211 0.81846 0.05148 0.0
H1325 H 0.49523 0.80576 0.14002 0.0
H1326 H 0.51944 0.84823 0.13914 0.0
H1327 H 0.44171 0.79316 0.13386 0.0
H1328 H 0.52013 0.77743 0.08196 0.0
H1329 H 0.55021 0.78443 0.042 0.0
H1330 H 0.4853 0.76472 0.97831 0.0
H1331 H 0.45476 0.75788 0.01791 0.0
C1332 C 0.42773 0.66805 0.14192 0.0
C1333 C 0.41334 0.65291 0.12007 0.0
C1334 C 0.43556 0.69396 0.13633 0.0
C1335 C 0.42891 0.70543 0.1089 0.0
C1336 C 0.41454 0.69042 0.08698 0.0
C1337 C 0.40671 0.66439 0.09256 0.0
C1338 C 0.43782 0.73287 0.10318 0.0
C1339 C 0.4541 0.73842 0.07998 0.0
C1340 C 0.43263 0.75302 0.12232 0.0
C1341 C 0.41381 0.74881 0.14571 0.0
C1342 C 0.38779 0.73795 0.13897 0.0
C1343 C 0.37023 0.73376 0.16109 0.0
C1344 C 0.37838 0.74049 0.19003 0.0
C1345 C 0.40411 0.75147 0.19691 0.0
C1346 C 0.42177 0.75568 0.17488 0.0
C1347 C 0.48845 0.84924 0.07008 0.0
C1348 C 0.50465 0.85816 0.09479 0.0
C1349 C 0.47467 0.82485 0.07062 0.0
C1350 C 0.47697 0.80895 0.0958 0.0
C1351 C 0.49305 0.81783 0.12045 0.0
C1352 C 0.50682 0.84213 0.11993 0.0
C1353 C 0.46278 0.78295 0.09677 0.0
C1354 C 0.4454 0.77774 0.11902 0.0
C1355 C 0.46677 0.76321 0.07661 0.0
C1356 C 0.48513 0.7674 0.05285 0.0
C1357 C 0.51224 0.77479 0.05942 0.0
C1358 C 0.52937 0.77868 0.03684 0.0
C1359 C 0.51967 0.77502 1.00764 0.0
C1360 C 0.49279 0.76753 1.00094 0.0
C1361 C 0.47557 0.76363 0.02344 0.0
H1362 H 0.53299 0.77792 0.9902 0.0
H1363 H 0.36476 0.73723 0.20712 0.0
H1364 H 0.22124 0.2295 0.66601 0.0
H1365 H 0.19268 0.19215 0.64838 0.0
H1366 H 0.18507 0.16573 0.73757 0.0
H1367 H 0.21426 0.20293 0.75545 0.0
H1368 H 0.19348 0.1258 0.70107 0.0
H1369 H 0.13443 0.19427 0.70313 0.0
H1370 H 0.11894 0.23837 0.69375 0.0
H1371 H 0.11748 0.2263 0.60083 0.0
H1372 H 0.13336 0.18226 0.60965 0.0
H1373 H 0.06341 0.06288 0.61688 0.0
H1374 H 0.08581 0.09657 0.64902 0.0
H1375 H 0.16146 0.08029 0.61688 0.0
H1376 H 0.1393 0.04659 0.5851 0.0
H1377 H 0.11318 0.14042 0.63438 0.0
H1378 H 0.21073 0.08925 0.67033 0.0
H1379 H 0.22459 0.04489 0.68198 0.0
H1380 H 0.14524 0.02158 0.70427 0.0
H1381 H 0.13099 0.06587 0.69318 0.0
C1382 C 0.21381 0.21556 0.68188 0.0
C1383 C 0.22004 0.2191 0.71212 0.0
C1384 C 0.19726 0.19439 0.67179 0.0
C1385 C 0.18649 0.1764 0.6917 0.0
C1386 C 0.19309 0.17951 0.72189 0.0
C1387 C 0.20962 0.20079 0.73204 0.0
C1388 C 0.16839 0.1544 0.68069 0.0
C1389 C 0.17582 0.12893 0.68665 0.0
C1390 C 0.14498 0.15856 0.66252 0.0
C1391 C 0.13525 0.185 0.65707 0.0
C1392 C 0.13098 0.20108 0.68069 0.0
C1393 C 0.12211 0.22606 0.67548 0.0
C1394 C 0.11727 0.23514 0.64671 0.0
C1395 C 0.12124 0.21924 0.6231 0.0
C1396 C 0.13015 0.19424 0.6282 0.0
C1397 C 0.08485 0.0664 0.61693 0.0
C1398 C 0.09969 0.05214 0.59865 0.0
C1399 C 0.09758 0.08562 0.63522 0.0
C1400 C 0.12532 0.09067 0.63561 0.0
C1401 C 0.14011 0.07635 0.61736 0.0
C1402 C 0.12742 0.05722 0.59909 0.0
C1403 C 0.13886 0.11183 0.65378 0.0
C1404 C 0.13059 0.1372 0.64915 0.0
C1405 C 0.16123 0.10751 0.67354 0.0
C1406 C 0.16975 0.08088 0.68072 0.0
C1407 C 0.19627 0.07471 0.67788 0.0
C1408 C 0.20419 0.04956 0.68435 0.0
C1409 C 0.1858 0.03041 0.69379 0.0
C1410 C 0.15946 0.0364 0.69687 0.0
C1411 C 0.15144 0.06152 0.69045 0.0
H1412 H 0.19196 1.01095 0.69876 0.0
H1413 H 0.11039 0.25449 0.64272 0.0
H1414 H 0.72214 0.31739 0.36449 0.0
H1415 H 0.70978 0.35756 0.38691 0.0
H1416 H 0.63088 0.34767 0.34312 0.0
H1417 H 0.64344 0.30787 0.32028 0.0
H1418 H 0.64922 0.39744 0.34077 0.0
H1419 H 0.64302 0.33079 0.41559 0.0
H1420 H 0.65953 0.29565 0.44808 0.0
H1421 H 0.72105 0.34843 0.48698 0.0
H1422 H 0.7051 0.38382 0.45442 0.0
H1423 H 0.57395 0.47341 0.42711 0.0
H1424 H 0.59319 0.43833 0.40213 0.0
H1425 H 0.66961 0.45698 0.4485 0.0
H1426 H 0.65041 0.49211 0.47398 0.0
H1427 H 0.6564 0.40507 0.44926 0.0
H1428 H 0.65948 0.4729 0.37678 0.0
H1429 H 0.64153 0.50783 0.34498 0.0
H1430 H 0.5847 0.45272 0.302 0.0
H1431 H 0.60205 0.4175 0.33385 0.0
C1432 C 0.70223 0.32396 0.35966 0.0
C1433 C 0.68364 0.30955 0.34098 0.0
C1434 C 0.69515 0.34678 0.37249 0.0
C1435 C 0.66928 0.35541 0.367 0.0
C1436 C 0.65092 0.34134 0.3477 0.0
C1437 C 0.65804 0.31859 0.33478 0.0
C1438 C 0.66107 0.37877 0.3818 0.0
C1439 C 0.65058 0.39902 0.36449 0.0
C1440 C 0.66347 0.38111 0.41274 0.0
C1441 C 0.67306 0.35987 0.43235 0.0
C1442 C 0.66021 0.33485 0.43091 0.0
C1443 C 0.66944 0.3149 0.44936 0.0
C1444 C 0.69138 0.31978 0.46952 0.0
C1445 C 0.70409 0.34466 0.47131 0.0
C1446 C 0.69496 0.36468 0.45288 0.0
C1447 C 0.59489 0.47018 0.43197 0.0
C1448 C 0.61067 0.48559 0.45253 0.0
C1449 C 0.60588 0.45018 0.41753 0.0
C1450 C 0.6329 0.44527 0.42319 0.0
C1451 C 0.64873 0.46054 0.44375 0.0
C1452 C 0.63774 0.48062 0.45823 0.0
C1453 C 0.64426 0.42359 0.40825 0.0
C1454 C 0.65532 0.40363 0.42553 0.0
C1455 C 0.64226 0.42149 0.3773 0.0
C1456 C 0.63195 0.44258 0.35787 0.0
C1457 C 0.64303 0.46825 0.36068 0.0
C1458 C 0.63298 0.4881 0.34263 0.0
C1459 C 0.61195 0.4825 0.32152 0.0
C1460 C 0.60098 0.45703 0.31837 0.0
C1461 C 0.61094 0.4371 0.3364 0.0
H1462 H 0.60419 0.4979 0.30757 0.0
H1463 H 0.69849 0.30431 0.48379 0.0
loop_
_geom_bond_atom_site_label_1
_geom_bond_atom_site_label_2
_geom_bond_distance
_geom_bond_site_symmetry_2
_ccdc_geom_bond_type
H0 C7 0.929 . S
H1 C10 0.930 . S
H2 C12 0.929 . S
H3 C4 0.969 . S
C4 H3 0.969 . S
C4 O5 1.550 . S
C4 H6 0.973 . S
O5 C4 1.550 . S
O5 C11 1.412 . S
H6 C4 0.973 . S
C7 H0 0.929 . S
C7 C8 1.400 . S
C7 C9 1.364 . S
C8 C7 1.400 . S
C8 C12 1.377 . S
C9 C7 1.364 . S
C9 C10 1.374 . S
C10 H1 0.930 . S
C10 C9 1.374 . S
C10 C11 1.383 . S
C11 O5 1.412 . S
C11 C10 1.383 . S
C11 C12 1.394 . S
C12 H2 0.929 . S
C12 C8 1.377 . S
C12 C11 1.394 . S
H13 C20 0.929 . S
H14 C23 0.930 . S
H15 C25 0.929 . S
H16 C17 0.969 . S
C17 H16 0.969 . S
C17 O18 1.550 . S
C17 H19 0.973 . S
O18 C17 1.550 . S
O18 C24 1.412 . S
H19 C17 0.973 . S
C20 H13 0.929 . S
C20 C21 1.400 . S
C20 C22 1.364 . S
C21 C20 1.400 . S
C21 C25 1.377 . S
C22 C20 1.364 . S
C22 C23 1.374 . S
C23 H14 0.930 . S
C23 C22 1.374 . S
C23 C24 1.383 . S
C24 O18 1.412 . S
C24 C23 1.383 . S
C24 C25 1.394 . S
C25 H15 0.929 . S
C25 C21 1.377 . S
C25 C24 1.394 . S
H26 C33 0.929 . S
H27 C36 0.930 . S
H28 C38 0.929 . S
H29 C30 0.969 . S
C30 H29 0.969 . S
C30 O31 1.550 . S
C30 H32 0.973 . S
O31 C30 1.550 . S
O31 C37 1.412 . S
H32 C30 0.973 . S
C33 H26 0.929 . S
C33 C34 1.400 . S
C33 C35 1.364 . S
C34 C33 1.400 . S
C34 C38 1.377 . S
C35 C33 1.364 . S
C35 C36 1.374 . S
C36 H27 0.930 . S
C36 C35 1.374 . S
C36 C37 1.383 . S
C37 O31 1.412 . S
C37 C36 1.383 . S
C37 C38 1.394 . S
C38 H28 0.929 . S
C38 C34 1.377 . S
C38 C37 1.394 . S
H39 C46 0.929 . S
H40 C49 0.930 . S
H41 C51 0.929 . S
H42 C43 0.969 . S
C43 H42 0.969 . S
C43 O44 1.550 . S
C43 H45 0.973 . S
O44 C43 1.550 . S
O44 C50 1.412 . S
H45 C43 0.973 . S
C46 H39 0.929 . S
C46 C47 1.400 . S
C46 C48 1.364 . S
C47 C46 1.400 . S
C47 C51 1.377 . S
C48 C46 1.364 . S
C48 C49 1.374 . S
C49 H40 0.930 . S
C49 C48 1.374 . S
C49 C50 1.383 . S
C50 O44 1.412 . S
C50 C49 1.383 . S
C50 C51 1.394 . S
C51 H41 0.929 . S
C51 C47 1.377 . S
C51 C50 1.394 . S
H52 C59 0.929 . S
H53 C62 0.930 . S
H54 C64 0.929 . S
H55 C56 0.969 . S
C56 H55 0.969 . S
C56 O57 1.550 . S
C56 H58 0.973 . S
O57 C56 1.550 . S
O57 C63 1.412 . S
H58 C56 0.973 . S
C59 H52 0.929 . S
C59 C60 1.400 . S
C59 C61 1.364 . S
C60 C59 1.400 . S
C60 C64 1.377 . S
C61 C59 1.364 . S
C61 C62 1.374 . S
C62 H53 0.930 . S
C62 C61 1.374 . S
C62 C63 1.383 . S
C63 O57 1.412 . S
C63 C62 1.383 . S
C63 C64 1.394 . S
C64 H54 0.929 . S
C64 C60 1.377 . S
C64 C63 1.394 . S
H65 C72 0.929 . S
H66 C75 0.930 . S
H67 C77 0.929 . S
H68 C69 0.969 . S
C69 H68 0.969 . S
C69 O70 1.550 . S
C69 H71 0.973 . S
O70 C69 1.550 . S
O70 C76 1.412 . S
H71 C69 0.973 . S
C72 H65 0.929 . S
C72 C73 1.400 . S
C72 C74 1.364 . S
C73 C72 1.400 . S
C73 C77 1.377 . S
C74 C72 1.364 . S
C74 C75 1.374 . S
C75 H66 0.930 . S
C75 C74 1.374 . S
C75 C76 1.383 . S
C76 O70 1.412 . S
C76 C75 1.383 . S
C76 C77 1.394 . S
C77 H67 0.929 . S
C77 C73 1.377 . S
C77 C76 1.394 . S
H78 C85 0.929 . S
H79 C88 0.930 . S
H80 C90 0.929 . S
H81 C82 0.969 . S
C82 H81 0.969 . S
C82 O83 1.550 . S
C82 H84 0.973 . S
O83 C82 1.550 . S
O83 C89 1.412 . S
H84 C82 0.973 . S
C85 H78 0.929 . S
C85 C86 1.400 . S
C85 C87 1.364 . S
C86 C85 1.400 . S
C86 C90 1.377 . S
C87 C85 1.364 . S
C87 C88 1.374 . S
C88 H79 0.930 . S
C88 C87 1.374 . S
C88 C89 1.383 . S
C89 O83 1.412 . S
C89 C88 1.383 . S
C89 C90 1.394 . S
C90 H80 0.929 . S
C90 C86 1.377 . S
C90 C89 1.394 . S
H91 C98 0.929 . S
H92 C101 0.930 . S
H93 C103 0.929 . S
H94 C95 0.969 . S
C95 H94 0.969 . S
C95 O96 1.550 . S
C95 H97 0.973 . S
O96 C95 1.550 . S
O96 C102 1.412 . S
H97 C95 0.973 . S
C98 H91 0.929 . S
C98 C99 1.400 . S
C98 C100 1.364 . S
C99 C98 1.400 . S
C99 C103 1.377 . S
C100 C98 1.364 . S
C100 C101 1.374 . S
C101 H92 0.930 . S
C101 C100 1.374 . S
C101 C102 1.383 . S
C102 O96 1.412 . S
C102 C101 1.383 . S
C102 C103 1.394 . S
C103 H93 0.929 . S
C103 C99 1.377 . S
C103 C102 1.394 . S
Nd104 C106 2.836 . S
Nd104 O124 2.500 . S
Nd104 O125 2.492 . S
Nd104 O126 2.487 1_565 S
Nd104 O127 2.682 1_565 S
Nd104 O128 2.410 . S
Nd104 O133 2.414 . S
Nd104 O135 2.424 1_565 S
Nd105 C115 2.836 . S
Nd105 O127 2.414 1_655 S
Nd105 O129 2.424 . S
Nd105 O130 2.500 . S
Nd105 O131 2.492 . S
Nd105 O132 2.487 1_545 S
Nd105 O133 2.682 1_645 S
Nd105 O134 2.410 1_655 S
C106 Nd104 2.836 . S
C106 C107 1.498 . S
C106 O124 1.258 . S
C106 O125 1.239 . S
C107 C106 1.498 . S
C107 C108 1.366 . S
C107 C112 1.407 . S
C108 C107 1.366 . S
C108 C109 1.392 . S
C108 H136 0.930 . S
C109 C108 1.392 . S
C109 C110 1.398 . S
C109 H137 0.929 . S
C110 C109 1.398 . S
C110 C111 1.352 . S
C111 C110 1.352 . S
C111 C112 1.384 . S
C111 H138 0.930 . S
C112 C107 1.407 . S
C112 C111 1.384 . S
C112 H139 0.929 . S
C113 O126 1.241 . S
C113 O127 1.273 . S
C114 O128 1.251 . S
C114 O129 1.268 1_465 S
C115 Nd105 2.836 . S
C115 C116 1.498 . S
C115 O130 1.258 . S
C115 O131 1.239 . S
C116 C115 1.498 . S
C116 C117 1.366 . S
C116 C121 1.407 . S
C117 C116 1.366 . S
C117 C118 1.392 . S
C117 H140 0.930 . S
C118 C117 1.392 . S
C118 C119 1.398 . S
C118 H141 0.929 . S
C119 C118 1.398 . S
C119 C120 1.352 . S
C120 C119 1.352 . S
C120 C121 1.384 . S
C120 H142 0.930 . S
C121 C116 1.407 . S
C121 C120 1.384 . S
C121 H143 0.929 . S
C122 O132 1.241 . S
C122 O133 1.273 1_655 S
C123 O134 1.251 . S
C123 O135 1.268 . S
O124 Nd104 2.500 . S
O124 C106 1.258 . S
O125 Nd104 2.492 . S
O125 C106 1.239 . S
O126 Nd104 2.487 1_545 S
O126 C113 1.241 . S
O127 Nd104 2.682 1_545 S
O127 Nd105 2.414 1_455 S
O127 C113 1.273 . S
O128 Nd104 2.410 . S
O128 C114 1.251 . S
O129 Nd105 2.424 . S
O129 C114 1.268 1_645 S
O130 Nd105 2.500 . S
O130 C115 1.258 . S
O131 Nd105 2.492 . S
O131 C115 1.239 . S
O132 Nd105 2.487 1_565 S
O132 C122 1.241 . S
O133 Nd104 2.414 . S
O133 Nd105 2.682 1_465 S
O133 C122 1.273 1_455 S
O134 Nd105 2.410 1_455 S
O134 C123 1.251 . S
O135 Nd104 2.424 1_545 S
O135 C123 1.268 . S
H136 C108 0.930 . S
H137 C109 0.929 . S
H138 C111 0.930 . S
H139 C112 0.929 . S
H140 C117 0.930 . S
H141 C118 0.929 . S
H142 C120 0.930 . S
H143 C121 0.929 . S
Nd144 C146 2.836 . S
Nd144 O164 2.500 . S
Nd144 O165 2.492 . S
Nd144 O166 2.487 1_565 S
Nd144 O167 2.682 1_565 S
Nd144 O168 2.410 1_554 S
Nd144 O173 2.414 1_554 S
Nd144 O175 2.424 1_565 S
Nd145 C155 2.836 . S
Nd145 O167 2.414 1_556 S
Nd145 O169 2.424 1_545 S
Nd145 O170 2.500 . S
Nd145 O171 2.492 . S
Nd145 O172 2.487 . S
Nd145 O173 2.682 1_545 S
Nd145 O174 2.410 1_556 S
C146 Nd144 2.836 . S
C146 C147 1.498 . S
C146 O164 1.258 . S
C146 O165 1.239 . S
C147 C146 1.498 . S
C147 C148 1.366 . S
C147 C152 1.407 . S
C148 C147 1.366 . S
C148 C149 1.392 . S
C148 H176 0.930 . S
C149 C148 1.392 . S
C149 C150 1.398 . S
C149 H177 0.929 . S
C150 C149 1.398 . S
C150 C151 1.352 . S
C151 C150 1.352 . S
C151 C152 1.384 . S
C151 H178 0.930 . S
C152 C147 1.407 . S
C152 C151 1.384 . S
C152 H179 0.929 . S
C153 O166 1.241 . S
C153 O167 1.273 . S
C154 O168 1.251 . S
C154 O169 1.268 . S
C155 Nd145 2.836 . S
C155 C156 1.498 . S
C155 O170 1.258 . S
C155 O171 1.239 . S
C156 C155 1.498 . S
C156 C157 1.366 . S
C156 C161 1.407 . S
C157 C156 1.366 . S
C157 C158 1.392 . S
C157 H180 0.930 . S
C158 C157 1.392 . S
C158 C159 1.398 . S
C158 H181 0.929 . S
C159 C158 1.398 . S
C159 C160 1.352 . S
C160 C159 1.352 . S
C160 C161 1.384 . S
C160 H182 0.930 . S
C161 C156 1.407 . S
C161 C160 1.384 . S
C161 H183 0.929 . S
C162 O172 1.241 1_565 S
C162 O173 1.273 . S
C163 O174 1.251 . S
C163 O175 1.268 . S
O164 Nd144 2.500 . S
O164 C146 1.258 . S
O165 Nd144 2.492 . S
O165 C146 1.239 . S
O166 Nd144 2.487 1_545 S
O166 C153 1.241 . S
O167 Nd144 2.682 1_545 S
O167 Nd145 2.414 1_554 S
O167 C153 1.273 . S
O168 Nd144 2.410 1_556 S
O168 C154 1.251 . S
O169 Nd145 2.424 1_565 S
O169 C154 1.268 . S
O170 Nd145 2.500 . S
O170 C155 1.258 . S
O171 Nd145 2.492 . S
O171 C155 1.239 . S
O172 Nd145 2.487 . S
O172 C162 1.241 1_545 S
O173 Nd144 2.414 1_556 S
O173 Nd145 2.682 1_565 S
O173 C162 1.273 . S
O174 Nd145 2.410 1_554 S
O174 C163 1.251 . S
O175 Nd144 2.424 1_545 S
O175 C163 1.268 . S
H176 C148 0.930 . S
H177 C149 0.929 . S
H178 C151 0.930 . S
H179 C152 0.929 . S
H180 C157 0.930 . S
H181 C158 0.929 . S
H182 C160 0.930 . S
H183 C161 0.929 . S
Nd184 C186 2.836 . S
Nd184 O204 2.500 . S
Nd184 O205 2.492 . S
Nd184 O206 2.487 . S
Nd184 O207 2.682 . S
Nd184 O208 2.410 . S
Nd184 O213 2.414 . S
Nd184 O215 2.424 . S
Nd185 C195 2.836 . S
Nd185 O207 2.414 . S
Nd185 O209 2.424 . S
Nd185 O210 2.500 . S
Nd185 O211 2.492 . S
Nd185 O212 2.487 . S
Nd185 O213 2.682 . S
Nd185 O214 2.410 . S
C186 Nd184 2.836 . S
C186 C187 1.498 . S
C186 O204 1.258 . S
C186 O205 1.239 . S
C187 C186 1.498 . S
C187 C188 1.366 . S
C187 C192 1.407 . S
C188 C187 1.366 . S
C188 C189 1.392 . S
C188 H216 0.930 . S
C189 C188 1.392 . S
C189 C190 1.398 . S
C189 H217 0.929 . S
C190 C189 1.398 . S
C190 C191 1.352 . S
C191 C190 1.352 . S
C191 C192 1.384 . S
C191 H218 0.930 . S
C192 C187 1.407 . S
C192 C191 1.384 . S
C192 H219 0.929 . S
C193 O206 1.241 . S
C193 O207 1.273 . S
C194 O208 1.251 . S
C194 O209 1.268 . S
C195 Nd185 2.836 . S
C195 C196 1.498 . S
C195 O210 1.258 . S
C195 O211 1.239 . S
C196 C195 1.498 . S
C196 C197 1.366 . S
C196 C201 1.407 . S
C197 C196 1.366 . S
C197 C198 1.392 . S
C197 H220 0.930 . S
C198 C197 1.392 . S
C198 C199 1.398 . S
C198 H221 0.929 . S
C199 C198 1.398 . S
C199 C200 1.352 . S
C200 C199 1.352 . S
C200 C201 1.384 . S
C200 H222 0.930 . S
C201 C196 1.407 . S
C201 C200 1.384 . S
C201 H223 0.929 . S
C202 O212 1.241 . S
C202 O213 1.273 . S
C203 O214 1.251 . S
C203 O215 1.268 . S
O204 Nd184 2.500 . S
O204 C186 1.258 . S
O205 Nd184 2.492 . S
O205 C186 1.239 . S
O206 Nd184 2.487 . S
O206 C193 1.241 . S
O207 Nd184 2.682 . S
O207 Nd185 2.414 . S
O207 C193 1.273 . S
O208 Nd184 2.410 . S
O208 C194 1.251 . S
O209 Nd185 2.424 . S
O209 C194 1.268 . S
O210 Nd185 2.500 . S
O210 C195 1.258 . S
O211 Nd185 2.492 . S
O211 C195 1.239 . S
O212 Nd185 2.487 . S
O212 C202 1.241 . S
O213 Nd184 2.414 . S
O213 Nd185 2.682 . S
O213 C202 1.273 . S
O214 Nd185 2.410 . S
O214 C203 1.251 . S
O215 Nd184 2.424 . S
O215 C203 1.268 . S
H216 C188 0.930 . S
H217 C189 0.929 . S
H218 C191 0.930 . S
H219 C192 0.929 . S
H220 C197 0.930 . S
H221 C198 0.929 . S
H222 C200 0.930 . S
H223 C201 0.929 . S
Nd224 C226 2.846 . S
Nd224 O244 2.500 1_455 S
Nd224 O245 2.492 . S
Nd224 O246 2.487 . S
Nd224 O247 2.682 . S
Nd224 O248 2.410 . S
Nd224 O253 2.414 . S
Nd224 O255 2.424 . S
Nd225 C235 2.836 . S
Nd225 O247 2.414 1_556 S
Nd225 O249 2.424 . S
Nd225 O250 2.500 . S
Nd225 O251 2.492 . S
Nd225 O252 2.487 1_455 S
Nd225 O253 2.682 1_556 S
Nd225 O254 2.410 1_556 S
C226 Nd224 2.846 . S
C226 C227 1.489 1_455 S
C226 O244 1.253 1_455 S
C226 O245 1.253 . S
C227 C226 1.489 1_655 S
C227 C228 1.366 . S
C227 C232 1.407 . S
C228 C227 1.366 . S
C228 C229 1.392 . S
C228 H256 0.930 . S
C229 C228 1.392 . S
C229 C230 1.398 . S
C229 H257 0.929 . S
C230 C229 1.398 . S
C230 C231 1.352 . S
C231 C230 1.352 . S
C231 C232 1.383 . S
C231 H258 0.930 . S
C232 C227 1.407 . S
C232 C231 1.383 . S
C232 H259 0.930 1_655 S
C233 O246 1.241 . S
C233 O247 1.273 . S
C234 O248 1.251 . S
C234 O249 1.268 1_554 S
C235 Nd225 2.836 . S
C235 C236 1.498 . S
C235 O250 1.258 . S
C235 O251 1.239 . S
C236 C235 1.498 . S
C236 C237 1.366 . S
C236 C241 1.407 . S
C237 C236 1.366 . S
C237 C238 1.392 . S
C237 H260 0.930 . S
C238 C237 1.392 . S
C238 C239 1.398 . S
C238 H261 0.929 . S
C239 C238 1.398 . S
C239 C240 1.352 . S
C240 C239 1.352 . S
C240 C241 1.384 . S
C240 H262 0.930 . S
C241 C236 1.407 . S
C241 C240 1.384 . S
C241 H263 0.929 . S
C242 O252 1.241 . S
C242 O253 1.273 1_656 S
C243 O254 1.251 . S
C243 O255 1.268 . S
O244 Nd224 2.500 1_655 S
O244 C226 1.253 1_655 S
O245 Nd224 2.492 . S
O245 C226 1.253 . S
O246 Nd224 2.487 . S
O246 C233 1.241 . S
O247 Nd224 2.682 . S
O247 Nd225 2.414 1_554 S
O247 C233 1.273 . S
O248 Nd224 2.410 . S
O248 C234 1.251 . S
O249 Nd225 2.424 . S
O249 C234 1.268 1_556 S
O250 Nd225 2.500 . S
O250 C235 1.258 . S
O251 Nd225 2.492 . S
O251 C235 1.239 . S
O252 Nd225 2.487 1_655 S
O252 C242 1.241 . S
O253 Nd224 2.414 . S
O253 Nd225 2.682 1_554 S
O253 C242 1.273 1_454 S
O254 Nd225 2.410 1_554 S
O254 C243 1.251 . S
O255 Nd224 2.424 . S
O255 C243 1.268 . S
H256 C228 0.930 . S
H257 C229 0.929 . S
H258 C231 0.930 . S
H259 C232 0.930 1_455 S
H260 C237 0.930 . S
H261 C238 0.929 . S
H262 C240 0.930 . S
H263 C241 0.929 . S
H264 C282 0.951 . S
H265 C284 0.951 . S
H266 C286 0.950 . S
H267 C287 0.950 . S
H268 C289 0.950 . S
H269 C292 0.950 . S
H270 C293 0.950 . S
H271 C295 0.950 . S
H272 C296 0.950 . S
H273 C297 0.951 . S
H274 C299 0.951 . S
H275 C301 0.950 . S
H276 C302 0.950 . S
H277 C304 0.950 . S
H278 C307 0.950 . S
H279 C308 0.950 . S
H280 C310 0.950 . S
H281 C311 0.950 . S
C282 H264 0.951 . S
C282 C283 1.366 . S
C282 C284 1.388 . S
C283 C282 1.366 . S
C283 C287 1.385 . S
C284 H265 0.951 . S
C284 C282 1.388 . S
C284 C285 1.366 . S
C285 C284 1.366 . S
C285 C286 1.414 . S
C285 C288 1.499 . S
C286 H266 0.950 . S
C286 C285 1.414 . S
C286 C287 1.374 . S
C287 H267 0.950 . S
C287 C283 1.385 . S
C287 C286 1.374 . S
C288 C285 1.499 . S
C288 C289 1.373 . S
C288 C290 1.389 . S
C289 H268 0.950 . S
C289 C288 1.373 . S
C289 C305 1.377 . S
C290 C288 1.389 . S
C290 C291 1.524 . S
C290 C304 1.377 . S
C291 C290 1.524 . S
C291 C292 1.397 . S
C291 C296 1.363 . S
C292 H269 0.950 . S
C292 C291 1.397 . S
C292 C293 1.334 . S
C293 H270 0.950 . S
C293 C292 1.334 . S
C293 C294 1.287 . S
C294 C293 1.287 . S
C294 C295 1.524 . S
C294 H313 0.913 . S
C295 H271 0.950 . S
C295 C294 1.524 . S
C295 C296 1.415 . S
C296 H272 0.950 . S
C296 C291 1.363 . S
C296 C295 1.415 . S
C297 H273 0.951 . S
C297 C298 1.366 . S
C297 C299 1.388 . S
C298 C297 1.366 . S
C298 C302 1.385 . S
C299 H274 0.951 . S
C299 C297 1.388 . S
C299 C300 1.366 . S
C300 C299 1.366 . S
C300 C301 1.414 . S
C300 C303 1.499 . S
C301 H275 0.950 . S
C301 C300 1.414 . S
C301 C302 1.374 . S
C302 H276 0.950 . S
C302 C298 1.385 . S
C302 C301 1.374 . S
C303 C300 1.499 . S
C303 C304 1.373 . S
C303 C305 1.389 . S
C304 H277 0.950 . S
C304 C290 1.377 . S
C304 C303 1.373 . S
C305 C289 1.377 . S
C305 C303 1.389 . S
C305 C306 1.524 . S
C306 C305 1.524 . S
C306 C307 1.397 . S
C306 C311 1.363 . S
C307 H278 0.950 . S
C307 C306 1.397 . S
C307 C308 1.334 . S
C308 H279 0.950 . S
C308 C307 1.334 . S
C308 C309 1.287 1_545 S
C309 C308 1.287 1_565 S
C309 C310 1.524 . S
C309 H312 0.999 . S
C310 H280 0.950 . S
C310 C309 1.524 . S
C310 C311 1.415 1_565 S
C311 H281 0.950 . S
C311 C306 1.363 . S
C311 C310 1.415 1_545 S
H312 C309 0.999 . S
H313 C294 0.913 . S
H314 C332 0.951 . S
H315 C334 0.951 . S
H316 C336 0.950 . S
H317 C337 0.950 . S
H318 C339 0.950 . S
H319 C342 0.950 . S
H320 C343 0.950 . S
H321 C345 0.950 . S
H322 C346 0.950 . S
H323 C347 0.951 . S
H324 C349 0.951 . S
H325 C351 0.950 . S
H326 C352 0.950 . S
H327 C354 0.950 . S
H328 C357 0.950 . S
H329 C358 0.950 . S
H330 C360 0.950 . S
H331 C361 0.950 . S
C332 H314 0.951 . S
C332 C333 1.366 . S
C332 C334 1.388 . S
C333 C332 1.366 . S
C333 C337 1.385 . S
C334 H315 0.951 . S
C334 C332 1.388 . S
C334 C335 1.366 . S
C335 C334 1.366 . S
C335 C336 1.414 . S
C335 C338 1.499 . S
C336 H316 0.950 . S
C336 C335 1.414 . S
C336 C337 1.374 . S
C337 H317 0.950 . S
C337 C333 1.385 . S
C337 C336 1.374 . S
C338 C335 1.499 . S
C338 C339 1.373 . S
C338 C340 1.389 . S
C339 H318 0.950 . S
C339 C338 1.373 . S
C339 C355 1.377 . S
C340 C338 1.389 . S
C340 C341 1.524 . S
C340 C354 1.377 . S
C341 C340 1.524 . S
C341 C342 1.397 . S
C341 C346 1.363 . S
C342 H319 0.950 . S
C342 C341 1.397 . S
C342 C343 1.334 . S
C343 H320 0.950 . S
C343 C342 1.334 . S
C343 C344 1.287 . S
C344 C343 1.287 . S
C344 C345 1.524 . S
C344 H363 0.913 . S
C345 H321 0.950 . S
C345 C344 1.524 . S
C345 C346 1.415 . S
C346 H322 0.950 . S
C346 C341 1.363 . S
C346 C345 1.415 . S
C347 H323 0.951 . S
C347 C348 1.366 . S
C347 C349 1.388 . S
C348 C347 1.366 . S
C348 C352 1.385 . S
C349 H324 0.951 . S
C349 C347 1.388 . S
C349 C350 1.366 . S
C350 C349 1.366 . S
C350 C351 1.414 . S
C350 C353 1.499 . S
C351 H325 0.950 . S
C351 C350 1.414 . S
C351 C352 1.374 . S
C352 H326 0.950 . S
C352 C348 1.385 . S
C352 C351 1.374 . S
C353 C350 1.499 . S
C353 C354 1.373 . S
C353 C355 1.389 . S
C354 H327 0.950 . S
C354 C340 1.377 . S
C354 C353 1.373 . S
C355 C339 1.377 . S
C355 C353 1.389 . S
C355 C356 1.524 . S
C356 C355 1.524 . S
C356 C357 1.397 . S
C356 C361 1.363 . S
C357 H328 0.950 . S
C357 C356 1.397 . S
C357 C358 1.334 . S
C358 H329 0.950 . S
C358 C357 1.334 . S
C358 C359 1.287 . S
C359 C358 1.287 . S
C359 C360 1.524 . S
C359 H362 0.999 . S
C360 H330 0.950 . S
C360 C359 1.524 . S
C360 C361 1.415 . S
C361 H331 0.950 . S
C361 C356 1.363 . S
C361 C360 1.415 . S
H362 C359 0.999 . S
H363 C344 0.913 . S
H364 C382 0.951 . S
H365 C384 0.951 . S
H366 C386 0.950 . S
H367 C387 0.950 . S
H368 C389 0.950 . S
H369 C392 0.950 . S
H370 C393 0.950 . S
H371 C395 0.950 . S
H372 C396 0.950 . S
H373 C397 0.951 . S
H374 C399 0.951 . S
H375 C401 0.950 . S
H376 C402 0.950 . S
H377 C404 0.950 . S
H378 C407 0.950 . S
H379 C408 0.950 . S
H380 C410 0.950 . S
H381 C411 0.950 . S
C382 H364 0.951 . S
C382 C383 1.366 . S
C382 C384 1.388 . S
C383 C382 1.366 . S
C383 C387 1.385 . S
C384 H365 0.951 . S
C384 C382 1.388 . S
C384 C385 1.366 . S
C385 C384 1.366 . S
C385 C386 1.414 . S
C385 C388 1.499 . S
C386 H366 0.950 . S
C386 C385 1.414 . S
C386 C387 1.374 . S
C387 H367 0.950 . S
C387 C383 1.385 . S
C387 C386 1.374 . S
C388 C385 1.499 . S
C388 C389 1.373 . S
C388 C390 1.389 . S
C389 H368 0.950 . S
C389 C388 1.373 . S
C389 C405 1.377 . S
C390 C388 1.389 . S
C390 C391 1.524 . S
C390 C404 1.377 . S
C391 C390 1.524 . S
C391 C392 1.397 . S
C391 C396 1.363 . S
C392 H369 0.950 . S
C392 C391 1.397 . S
C392 C393 1.334 . S
C393 H370 0.950 . S
C393 C392 1.334 . S
C393 C394 1.287 . S
C394 C393 1.287 . S
C394 C395 1.524 . S
C394 H413 0.913 . S
C395 H371 0.950 . S
C395 C394 1.524 . S
C395 C396 1.415 . S
C396 H372 0.950 . S
C396 C391 1.363 . S
C396 C395 1.415 . S
C397 H373 0.951 . S
C397 C398 1.366 . S
C397 C399 1.388 . S
C398 C397 1.366 . S
C398 C402 1.385 . S
C399 H374 0.951 . S
C399 C397 1.388 . S
C399 C400 1.366 . S
C400 C399 1.366 . S
C400 C401 1.414 . S
C400 C403 1.499 . S
C401 H375 0.950 . S
C401 C400 1.414 . S
C401 C402 1.374 . S
C402 H376 0.950 . S
C402 C398 1.385 . S
C402 C401 1.374 . S
C403 C400 1.499 . S
C403 C404 1.373 . S
C403 C405 1.389 . S
C404 H377 0.950 . S
C404 C390 1.377 . S
C404 C403 1.373 . S
C405 C389 1.377 . S
C405 C403 1.389 . S
C405 C406 1.524 . S
C406 C405 1.524 . S
C406 C407 1.397 . S
C406 C411 1.363 . S
C407 H378 0.950 . S
C407 C406 1.397 . S
C407 C408 1.334 . S
C408 H379 0.950 . S
C408 C407 1.334 . S
C408 C409 1.287 . S
C409 C408 1.287 . S
C409 C410 1.524 . S
C409 H412 0.999 . S
C410 H380 0.950 . S
C410 C409 1.524 . S
C410 C411 1.415 . S
C411 H381 0.950 . S
C411 C406 1.363 . S
C411 C410 1.415 . S
H412 C409 0.999 . S
H413 C394 0.913 . S
H414 C432 0.951 . S
H415 C434 0.951 . S
H416 C436 0.950 . S
H417 C437 0.950 . S
H418 C439 0.950 . S
H419 C442 0.950 . S
H420 C443 0.950 . S
H421 C445 0.950 . S
H422 C446 0.950 . S
H423 C447 0.951 . S
H424 C449 0.951 . S
H425 C451 0.950 . S
H426 C452 0.950 . S
H427 C454 0.950 . S
H428 C457 0.950 . S
H429 C458 0.950 . S
H430 C460 0.950 . S
H431 C461 0.950 . S
C432 H414 0.951 . S
C432 C433 1.366 . S
C432 C434 1.388 . S
C433 C432 1.366 . S
C433 C437 1.385 . S
C434 H415 0.951 . S
C434 C432 1.388 . S
C434 C435 1.366 . S
C435 C434 1.366 . S
C435 C436 1.414 . S
C435 C438 1.499 . S
C436 H416 0.950 . S
C436 C435 1.414 . S
C436 C437 1.374 . S
C437 H417 0.950 . S
C437 C433 1.385 . S
C437 C436 1.374 . S
C438 C435 1.499 . S
C438 C439 1.373 . S
C438 C440 1.389 . S
C439 H418 0.950 . S
C439 C438 1.373 . S
C439 C455 1.377 . S
C440 C438 1.389 . S
C440 C441 1.524 . S
C440 C454 1.377 . S
C441 C440 1.524 . S
C441 C442 1.397 . S
C441 C446 1.363 . S
C442 H419 0.950 . S
C442 C441 1.397 . S
C442 C443 1.334 . S
C443 H420 0.950 . S
C443 C442 1.334 . S
C443 C444 1.287 . S
C444 C443 1.287 . S
C444 C445 1.524 . S
C444 H463 0.913 . S
C445 H421 0.950 . S
C445 C444 1.524 . S
C445 C446 1.415 . S
C446 H422 0.950 . S
C446 C441 1.363 . S
C446 C445 1.415 . S
C447 H423 0.951 . S
C447 C448 1.366 . S
C447 C449 1.388 . S
C448 C447 1.366 . S
C448 C452 1.385 . S
C449 H424 0.951 . S
C449 C447 1.388 . S
C449 C450 1.366 . S
C450 C449 1.366 . S
C450 C451 1.414 . S
C450 C453 1.499 . S
C451 H425 0.950 . S
C451 C450 1.414 . S
C451 C452 1.374 . S
C452 H426 0.950 . S
C452 C448 1.385 . S
C452 C451 1.374 . S
C453 C450 1.499 . S
C453 C454 1.373 . S
C453 C455 1.389 . S
C454 H427 0.950 . S
C454 C440 1.377 . S
C454 C453 1.373 . S
C455 C439 1.377 . S
C455 C453 1.389 . S
C455 C456 1.524 . S
C456 C455 1.524 . S
C456 C457 1.397 . S
C456 C461 1.363 . S
C457 H428 0.950 . S
C457 C456 1.397 . S
C457 C458 1.334 . S
C458 H429 0.950 . S
C458 C457 1.334 . S
C458 C459 1.287 . S
C459 C458 1.287 . S
C459 C460 1.524 . S
C459 H462 0.999 . S
C460 H430 0.950 . S
C460 C459 1.524 . S
C460 C461 1.415 . S
C461 H431 0.950 . S
C461 C456 1.363 . S
C461 C460 1.415 . S
H462 C459 0.999 . S
H463 C444 0.913 . S
H464 C482 0.951 . S
H465 C484 0.951 . S
H466 C486 0.950 . S
H467 C487 0.950 . S
H468 C489 0.950 . S
H469 C492 0.950 . S
H470 C493 0.950 . S
H471 C495 0.950 . S
H472 C496 0.950 . S
H473 C497 0.951 . S
H474 C499 0.951 . S
H475 C501 0.950 . S
H476 C502 0.950 . S
H477 C504 0.950 . S
H478 C507 0.950 . S
H479 C508 0.950 . S
H480 C510 0.950 . S
H481 C511 0.950 . S
C482 H464 0.951 . S
C482 C483 1.366 . S
C482 C484 1.388 . S
C483 C482 1.366 . S
C483 C487 1.385 . S
C484 H465 0.951 . S
C484 C482 1.388 . S
C484 C485 1.366 . S
C485 C484 1.366 . S
C485 C486 1.414 . S
C485 C488 1.499 . S
C486 H466 0.950 . S
C486 C485 1.414 . S
C486 C487 1.374 . S
C487 H467 0.950 . S
C487 C483 1.385 . S
C487 C486 1.374 . S
C488 C485 1.499 . S
C488 C489 1.373 . S
C488 C490 1.389 . S
C489 H468 0.950 . S
C489 C488 1.373 . S
C489 C505 1.377 . S
C490 C488 1.389 . S
C490 C491 1.524 . S
C490 C504 1.377 . S
C491 C490 1.524 . S
C491 C492 1.397 . S
C491 C496 1.363 . S
C492 H469 0.950 . S
C492 C491 1.397 . S
C492 C493 1.334 . S
C493 H470 0.950 . S
C493 C492 1.334 . S
C493 C494 1.287 . S
C494 C493 1.287 . S
C494 C495 1.524 . S
C494 H513 0.913 . S
C495 H471 0.950 . S
C495 C494 1.524 . S
C495 C496 1.415 . S
C496 H472 0.950 . S
C496 C491 1.363 . S
C496 C495 1.415 . S
C497 H473 0.951 . S
C497 C498 1.366 . S
C497 C499 1.388 . S
C498 C497 1.366 . S
C498 C502 1.385 . S
C499 H474 0.951 . S
C499 C497 1.388 . S
C499 C500 1.366 . S
C500 C499 1.366 . S
C500 C501 1.414 . S
C500 C503 1.499 . S
C501 H475 0.950 . S
C501 C500 1.414 . S
C501 C502 1.374 . S
C502 H476 0.950 . S
C502 C498 1.385 . S
C502 C501 1.374 . S
C503 C500 1.499 . S
C503 C504 1.373 . S
C503 C505 1.389 . S
C504 H477 0.950 . S
C504 C490 1.377 . S
C504 C503 1.373 . S
C505 C489 1.377 . S
C505 C503 1.389 . S
C505 C506 1.524 . S
C506 C505 1.524 . S
C506 C507 1.397 . S
C506 C511 1.363 . S
C507 H478 0.950 . S
C507 C506 1.397 . S
C507 C508 1.334 1_545 S
C508 H479 0.950 . S
C508 C507 1.334 1_565 S
C508 C509 1.287 . S
C509 C508 1.287 . S
C509 C510 1.524 . S
C509 H512 0.999 . S
C510 H480 0.950 . S
C510 C509 1.524 . S
C510 C511 1.415 1_565 S
C511 H481 0.950 . S
C511 C506 1.363 . S
C511 C510 1.415 1_545 S
H512 C509 0.999 . S
H513 C494 0.913 . S
H514 C532 0.951 . S
H515 C534 0.951 . S
H516 C536 0.950 . S
H517 C537 0.950 . S
H518 C539 0.950 . S
H519 C542 0.950 . S
H520 C543 0.950 . S
H521 C545 0.950 . S
H522 C546 0.950 . S
H523 C547 0.951 . S
H524 C549 0.951 . S
H525 C551 0.950 . S
H526 C552 0.950 . S
H527 C554 0.950 . S
H528 C557 0.950 . S
H529 C558 0.950 . S
H530 C560 0.950 . S
H531 C561 0.950 . S
C532 H514 0.951 . S
C532 C533 1.366 . S
C532 C534 1.388 . S
C533 C532 1.366 . S
C533 C537 1.385 . S
C534 H515 0.951 . S
C534 C532 1.388 . S
C534 C535 1.366 . S
C535 C534 1.366 . S
C535 C536 1.414 . S
C535 C538 1.499 . S
C536 H516 0.950 . S
C536 C535 1.414 . S
C536 C537 1.374 . S
C537 H517 0.950 . S
C537 C533 1.385 . S
C537 C536 1.374 . S
C538 C535 1.499 . S
C538 C539 1.373 . S
C538 C540 1.389 . S
C539 H518 0.950 . S
C539 C538 1.373 . S
C539 C555 1.377 . S
C540 C538 1.389 . S
C540 C541 1.524 . S
C540 C554 1.377 . S
C541 C540 1.524 . S
C541 C542 1.397 . S
C541 C546 1.363 . S
C542 H519 0.950 . S
C542 C541 1.397 . S
C542 C543 1.334 . S
C543 H520 0.950 . S
C543 C542 1.334 . S
C543 C544 1.287 . S
C544 C543 1.287 . S
C544 C545 1.524 . S
C544 H563 0.913 . S
C545 H521 0.950 . S
C545 C544 1.524 . S
C545 C546 1.415 . S
C546 H522 0.950 . S
C546 C541 1.363 . S
C546 C545 1.415 . S
C547 H523 0.951 . S
C547 C548 1.366 . S
C547 C549 1.388 . S
C548 C547 1.366 . S
C548 C552 1.385 . S
C549 H524 0.951 . S
C549 C547 1.388 . S
C549 C550 1.366 . S
C550 C549 1.366 . S
C550 C551 1.414 . S
C550 C553 1.499 . S
C551 H525 0.950 . S
C551 C550 1.414 . S
C551 C552 1.374 . S
C552 H526 0.950 . S
C552 C548 1.385 . S
C552 C551 1.374 . S
C553 C550 1.499 . S
C553 C554 1.373 . S
C553 C555 1.389 . S
C554 H527 0.950 . S
C554 C540 1.377 . S
C554 C553 1.373 . S
C555 C539 1.377 . S
C555 C553 1.389 . S
C555 C556 1.524 . S
C556 C555 1.524 . S
C556 C557 1.397 . S
C556 C561 1.363 . S
C557 H528 0.950 . S
C557 C556 1.397 . S
C557 C558 1.334 . S
C558 H529 0.950 . S
C558 C557 1.334 . S
C558 C559 1.287 . S
C559 C558 1.287 . S
C559 C560 1.524 . S
C559 H562 0.999 . S
C560 H530 0.950 . S
C560 C559 1.524 . S
C560 C561 1.415 . S
C561 H531 0.950 . S
C561 C556 1.363 . S
C561 C560 1.415 . S
H562 C559 0.999 . S
H563 C544 0.913 . S
H564 C582 0.951 . S
H565 C584 0.951 . S
H566 C586 0.950 . S
H567 C587 0.950 . S
H568 C589 0.950 . S
H569 C592 0.950 . S
H570 C593 0.950 . S
H571 C595 0.950 . S
H572 C596 0.950 . S
H573 C597 0.951 . S
H574 C599 0.951 . S
H575 C601 0.950 . S
H576 C602 0.950 . S
H577 C604 0.950 . S
H578 C607 0.950 . S
H579 C608 0.950 . S
H580 C610 0.950 . S
H581 C611 0.950 . S
C582 H564 0.951 . S
C582 C583 1.366 . S
C582 C584 1.388 . S
C583 C582 1.366 . S
C583 C587 1.385 . S
C584 H565 0.951 . S
C584 C582 1.388 . S
C584 C585 1.366 . S
C585 C584 1.366 . S
C585 C586 1.414 . S
C585 C588 1.499 . S
C586 H566 0.950 . S
C586 C585 1.414 . S
C586 C587 1.374 . S
C587 H567 0.950 . S
C587 C583 1.385 . S
C587 C586 1.374 . S
C588 C585 1.499 . S
C588 C589 1.373 . S
C588 C590 1.389 . S
C589 H568 0.950 . S
C589 C588 1.373 . S
C589 C605 1.377 . S
C590 C588 1.389 . S
C590 C591 1.524 . S
C590 C604 1.377 . S
C591 C590 1.524 . S
C591 C592 1.397 . S
C591 C596 1.363 . S
C592 H569 0.950 . S
C592 C591 1.397 . S
C592 C593 1.334 . S
C593 H570 0.950 . S
C593 C592 1.334 . S
C593 C594 1.287 . S
C594 C593 1.287 . S
C594 C595 1.524 . S
C594 H613 0.913 . S
C595 H571 0.950 . S
C595 C594 1.524 . S
C595 C596 1.415 . S
C596 H572 0.950 . S
C596 C591 1.363 . S
C596 C595 1.415 . S
C597 H573 0.951 . S
C597 C598 1.366 1_554 S
C597 C599 1.388 1_554 S
C598 C597 1.366 1_556 S
C598 C602 1.385 . S
C599 H574 0.951 . S
C599 C597 1.388 1_556 S
C599 C600 1.366 . S
C600 C599 1.366 . S
C600 C601 1.414 . S
C600 C603 1.499 . S
C601 H575 0.950 . S
C601 C600 1.414 . S
C601 C602 1.374 . S
C602 H576 0.950 . S
C602 C598 1.385 . S
C602 C601 1.374 . S
C603 C600 1.499 . S
C603 C604 1.373 . S
C603 C605 1.389 . S
C604 H577 0.950 . S
C604 C590 1.377 . S
C604 C603 1.373 . S
C605 C589 1.377 . S
C605 C603 1.389 . S
C605 C606 1.524 . S
C606 C605 1.524 . S
C606 C607 1.397 . S
C606 C611 1.363 . S
C607 H578 0.950 . S
C607 C606 1.397 . S
C607 C608 1.321 1_556 S
C608 H579 0.950 . S
C608 C607 1.321 1_554 S
C608 C609 1.301 . S
C609 C608 1.301 . S
C609 C610 1.524 . S
C609 H612 0.999 . S
C610 H580 0.950 . S
C610 C609 1.524 . S
C610 C611 1.415 1_554 S
C611 H581 0.950 . S
C611 C606 1.363 . S
C611 C610 1.415 1_556 S
H612 C609 0.999 . S
H613 C594 0.913 . S
H614 C632 0.951 . S
H615 C634 0.951 . S
H616 C636 0.950 . S
H617 C637 0.950 . S
H618 C639 0.950 . S
H619 C642 0.950 . S
H620 C643 0.950 . S
H621 C645 0.950 . S
H622 C646 0.950 . S
H623 C647 0.951 . S
H624 C649 0.951 . S
H625 C651 0.950 . S
H626 C652 0.950 . S
H627 C654 0.950 . S
H628 C657 0.950 . S
H629 C658 0.950 . S
H630 C660 0.950 . S
H631 C661 0.950 . S
C632 H614 0.951 . S
C632 C633 1.366 . S
C632 C634 1.388 . S
C633 C632 1.366 . S
C633 C637 1.385 . S
C634 H615 0.951 . S
C634 C632 1.388 . S
C634 C635 1.366 . S
C635 C634 1.366 . S
C635 C636 1.414 . S
C635 C638 1.499 . S
C636 H616 0.950 . S
C636 C635 1.414 . S
C636 C637 1.374 . S
C637 H617 0.950 . S
C637 C633 1.385 . S
C637 C636 1.374 . S
C638 C635 1.499 . S
C638 C639 1.373 . S
C638 C640 1.389 . S
C639 H618 0.950 . S
C639 C638 1.373 . S
C639 C655 1.377 . S
C640 C638 1.389 . S
C640 C641 1.524 . S
C640 C654 1.377 . S
C641 C640 1.524 . S
C641 C642 1.397 . S
C641 C646 1.363 . S
C642 H619 0.950 . S
C642 C641 1.397 . S
C642 C643 1.334 . S
C643 H620 0.950 . S
C643 C642 1.334 . S
C643 C644 1.287 . S
C644 C643 1.287 . S
C644 C645 1.524 . S
C644 H663 0.913 . S
C645 H621 0.950 . S
C645 C644 1.524 . S
C645 C646 1.415 . S
C646 H622 0.950 . S
C646 C641 1.363 . S
C646 C645 1.415 . S
C647 H623 0.951 . S
C647 C648 1.366 . S
C647 C649 1.388 . S
C648 C647 1.366 . S
C648 C652 1.385 . S
C649 H624 0.951 . S
C649 C647 1.388 . S
C649 C650 1.366 . S
C650 C649 1.366 . S
C650 C651 1.414 . S
C650 C653 1.499 . S
C651 H625 0.950 . S
C651 C650 1.414 . S
C651 C652 1.374 . S
C652 H626 0.950 . S
C652 C648 1.385 . S
C652 C651 1.374 . S
C653 C650 1.499 . S
C653 C654 1.373 . S
C653 C655 1.389 . S
C654 H627 0.950 . S
C654 C640 1.377 . S
C654 C653 1.373 . S
C655 C639 1.377 . S
C655 C653 1.389 . S
C655 C656 1.524 . S
C656 C655 1.524 . S
C656 C657 1.397 . S
C656 C661 1.363 . S
C657 H628 0.950 . S
C657 C656 1.397 . S
C657 C658 1.334 . S
C658 H629 0.950 . S
C658 C657 1.334 . S
C658 C659 1.287 . S
C659 C658 1.287 . S
C659 C660 1.524 . S
C659 H662 0.999 . S
C660 H630 0.950 . S
C660 C659 1.524 . S
C660 C661 1.415 . S
C661 H631 0.950 . S
C661 C656 1.363 . S
C661 C660 1.415 . S
H662 C659 0.999 . S
H663 C644 0.913 . S
H664 C682 0.951 . S
H665 C684 0.951 . S
H666 C686 0.950 . S
H667 C687 0.950 . S
H668 C689 0.950 . S
H669 C692 0.950 . S
H670 C693 0.950 . S
H671 C695 0.950 . S
H672 C696 0.950 . S
H673 C697 0.951 . S
H674 C699 0.951 . S
H675 C701 0.950 . S
H676 C702 0.950 . S
H677 C704 0.950 . S
H678 C707 0.950 . S
H679 C708 0.950 1_556 S
H680 C710 0.950 . S
H681 C711 0.950 . S
C682 H664 0.951 . S
C682 C683 1.366 . S
C682 C684 1.388 . S
C683 C682 1.366 . S
C683 C687 1.385 . S
C684 H665 0.951 . S
C684 C682 1.388 . S
C684 C685 1.366 . S
C685 C684 1.366 . S
C685 C686 1.414 . S
C685 C688 1.499 . S
C686 H666 0.950 . S
C686 C685 1.414 . S
C686 C687 1.374 . S
C687 H667 0.950 . S
C687 C683 1.385 . S
C687 C686 1.374 . S
C688 C685 1.499 . S
C688 C689 1.373 . S
C688 C690 1.389 . S
C689 H668 0.950 . S
C689 C688 1.373 . S
C689 C705 1.377 . S
C690 C688 1.389 . S
C690 C691 1.524 . S
C690 C704 1.377 . S
C691 C690 1.524 . S
C691 C692 1.397 . S
C691 C696 1.363 . S
C692 H669 0.950 . S
C692 C691 1.397 . S
C692 C693 1.334 . S
C693 H670 0.950 . S
C693 C692 1.334 . S
C693 C694 1.287 . S
C694 C693 1.287 . S
C694 C695 1.524 . S
C694 H713 0.913 . S
C695 H671 0.950 . S
C695 C694 1.524 . S
C695 C696 1.415 . S
C696 H672 0.950 . S
C696 C691 1.363 . S
C696 C695 1.415 . S
C697 H673 0.951 . S
C697 C698 1.366 . S
C697 C699 1.388 . S
C698 C697 1.366 . S
C698 C702 1.385 . S
C699 H674 0.951 . S
C699 C697 1.388 . S
C699 C700 1.366 . S
C700 C699 1.366 . S
C700 C701 1.414 . S
C700 C703 1.499 . S
C701 H675 0.950 . S
C701 C700 1.414 . S
C701 C702 1.374 . S
C702 H676 0.950 . S
C702 C698 1.385 . S
C702 C701 1.374 . S
C703 C700 1.499 . S
C703 C704 1.373 . S
C703 C705 1.389 . S
C704 H677 0.950 . S
C704 C690 1.377 . S
C704 C703 1.373 . S
C705 C689 1.377 . S
C705 C703 1.389 . S
C705 C706 1.524 . S
C706 C705 1.524 . S
C706 C707 1.397 . S
C706 C711 1.363 . S
C707 H678 0.950 . S
C707 C706 1.397 . S
C707 C708 1.334 . S
C708 H679 0.950 1_554 S
C708 C707 1.334 . S
C708 C709 1.287 . S
C709 C708 1.287 . S
C709 C710 1.524 . S
C709 H712 0.995 1_554 S
C710 H680 0.950 . S
C710 C709 1.524 . S
C710 C711 1.415 . S
C711 H681 0.950 . S
C711 C706 1.363 . S
C711 C710 1.415 . S
H712 C709 0.995 1_556 S
H713 C694 0.913 . S
H714 C732 0.951 . S
H715 C734 0.951 . S
H716 C736 0.950 . S
H717 C737 0.950 . S
H718 C739 0.950 . S
H719 C742 0.950 . S
H720 C743 0.950 . S
H721 C745 0.950 . S
H722 C746 0.950 . S
H723 C747 0.951 . S
H724 C749 0.951 . S
H725 C751 0.950 . S
H726 C752 0.950 . S
H727 C754 0.950 . S
H728 C757 0.950 . S
H729 C758 0.950 . S
H730 C760 0.950 . S
H731 C761 0.950 . S
C732 H714 0.951 . S
C732 C733 1.366 . S
C732 C734 1.388 . S
C733 C732 1.366 . S
C733 C737 1.385 . S
C734 H715 0.951 . S
C734 C732 1.388 . S
C734 C735 1.366 . S
C735 C734 1.366 . S
C735 C736 1.414 . S
C735 C738 1.499 . S
C736 H716 0.950 . S
C736 C735 1.414 . S
C736 C737 1.374 . S
C737 H717 0.950 . S
C737 C733 1.385 . S
C737 C736 1.374 . S
C738 C735 1.499 . S
C738 C739 1.373 . S
C738 C740 1.389 . S
C739 H718 0.950 . S
C739 C738 1.373 . S
C739 C755 1.377 . S
C740 C738 1.389 . S
C740 C741 1.524 . S
C740 C754 1.377 . S
C741 C740 1.524 . S
C741 C742 1.397 . S
C741 C746 1.363 . S
C742 H719 0.950 . S
C742 C741 1.397 . S
C742 C743 1.334 . S
C743 H720 0.950 . S
C743 C742 1.334 . S
C743 C744 1.287 . S
C744 C743 1.287 . S
C744 C745 1.524 . S
C744 H763 0.913 . S
C745 H721 0.950 . S
C745 C744 1.524 . S
C745 C746 1.415 . S
C746 H722 0.950 . S
C746 C741 1.363 . S
C746 C745 1.415 . S
C747 H723 0.951 . S
C747 C748 1.366 . S
C747 C749 1.388 . S
C748 C747 1.366 . S
C748 C752 1.385 . S
C749 H724 0.951 . S
C749 C747 1.388 . S
C749 C750 1.366 . S
C750 C749 1.366 . S
C750 C751 1.414 . S
C750 C753 1.499 . S
C751 H725 0.950 . S
C751 C750 1.414 . S
C751 C752 1.374 . S
C752 H726 0.950 . S
C752 C748 1.385 . S
C752 C751 1.374 . S
C753 C750 1.499 . S
C753 C754 1.373 . S
C753 C755 1.389 . S
C754 H727 0.950 . S
C754 C740 1.377 . S
C754 C753 1.373 . S
C755 C739 1.377 . S
C755 C753 1.389 . S
C755 C756 1.524 . S
C756 C755 1.524 . S
C756 C757 1.397 . S
C756 C761 1.363 . S
C757 H728 0.950 . S
C757 C756 1.397 . S
C757 C758 1.334 . S
C758 H729 0.950 . S
C758 C757 1.334 . S
C758 C759 1.287 . S
C759 C758 1.287 . S
C759 C760 1.524 . S
C759 H762 0.999 . S
C760 H730 0.950 . S
C760 C759 1.524 . S
C760 C761 1.415 . S
C761 H731 0.950 . S
C761 C756 1.363 . S
C761 C760 1.415 . S
H762 C759 0.999 . S
H763 C744 0.913 . S
H764 C782 0.951 . S
H765 C784 0.951 . S
H766 C786 0.950 . S
H767 C787 0.950 . S
H768 C789 0.950 . S
H769 C792 0.950 . S
H770 C793 0.950 . S
H771 C795 0.950 . S
H772 C796 0.950 . S
H773 C797 0.951 . S
H774 C799 0.951 . S
H775 C801 0.949 1_455 S
H776 C802 0.950 . S
H777 C804 0.950 . S
H778 C807 0.950 . S
H779 C808 0.950 1_455 S
H780 C810 0.950 . S
H781 C811 0.950 . S
C782 H764 0.951 . S
C782 C783 1.366 . S
C782 C784 1.388 . S
C783 C782 1.366 . S
C783 C787 1.385 . S
C784 H765 0.951 . S
C784 C782 1.388 . S
C784 C785 1.366 . S
C785 C784 1.366 . S
C785 C786 1.414 . S
C785 C788 1.499 . S
C786 H766 0.950 . S
C786 C785 1.414 . S
C786 C787 1.374 . S
C787 H767 0.950 . S
C787 C783 1.385 . S
C787 C786 1.374 . S
C788 C785 1.499 . S
C788 C789 1.373 . S
C788 C790 1.389 . S
C789 H768 0.950 . S
C789 C788 1.373 . S
C789 C805 1.377 . S
C790 C788 1.389 . S
C790 C791 1.524 . S
C790 C804 1.377 . S
C791 C790 1.524 . S
C791 C792 1.397 . S
C791 C796 1.363 . S
C792 H769 0.950 . S
C792 C791 1.397 . S
C792 C793 1.334 . S
C793 H770 0.950 . S
C793 C792 1.334 . S
C793 C794 1.287 . S
C794 C793 1.287 . S
C794 C795 1.524 . S
C794 H813 0.913 . S
C795 H771 0.950 . S
C795 C794 1.524 . S
C795 C796 1.415 . S
C796 H772 0.950 . S
C796 C791 1.363 . S
C796 C795 1.415 . S
C797 H773 0.951 . S
C797 C798 1.366 . S
C797 C799 1.388 . S
C798 C797 1.366 . S
C798 C802 1.385 1_655 S
C799 H774 0.951 . S
C799 C797 1.388 . S
C799 C800 1.366 . S
C800 C799 1.366 . S
C800 C801 1.414 . S
C800 C803 1.499 . S
C801 H775 0.949 1_655 S
C801 C800 1.414 . S
C801 C802 1.374 1_655 S
C802 H776 0.950 . S
C802 C798 1.385 1_455 S
C802 C801 1.374 1_455 S
C803 C800 1.499 . S
C803 C804 1.373 . S
C803 C805 1.389 . S
C804 H777 0.950 . S
C804 C790 1.377 . S
C804 C803 1.373 . S
C805 C789 1.377 . S
C805 C803 1.389 . S
C805 C806 1.524 . S
C806 C805 1.524 . S
C806 C807 1.397 . S
C806 C811 1.363 . S
C807 H778 0.950 . S
C807 C806 1.397 . S
C807 C808 1.334 . S
C808 H779 0.950 1_655 S
C808 C807 1.334 . S
C808 C809 1.287 . S
C809 C808 1.287 . S
C809 C810 1.524 . S
C809 H812 0.999 . S
C810 H780 0.950 . S
C810 C809 1.524 . S
C810 C811 1.415 . S
C811 H781 0.950 . S
C811 C806 1.363 . S
C811 C810 1.415 . S
H812 C809 0.999 . S
H813 C794 0.913 . S
H814 C832 0.951 . S
H815 C834 0.951 . S
H816 C836 0.950 . S
H817 C837 0.950 . S
H818 C839 0.950 . S
H819 C842 0.950 . S
H820 C843 0.950 . S
H821 C845 0.950 . S
H822 C846 0.950 . S
H823 C847 0.951 . S
H824 C849 0.951 . S
H825 C851 0.950 . S
H826 C852 0.950 . S
H827 C854 0.950 . S
H828 C857 0.950 . S
H829 C858 0.950 . S
H830 C860 0.950 . S
H831 C861 0.950 . S
C832 H814 0.951 . S
C832 C833 1.366 . S
C832 C834 1.388 . S
C833 C832 1.366 . S
C833 C837 1.385 . S
C834 H815 0.951 . S
C834 C832 1.388 . S
C834 C835 1.366 . S
C835 C834 1.366 . S
C835 C836 1.414 . S
C835 C838 1.499 . S
C836 H816 0.950 . S
C836 C835 1.414 . S
C836 C837 1.374 . S
C837 H817 0.950 . S
C837 C833 1.385 . S
C837 C836 1.374 . S
C838 C835 1.499 . S
C838 C839 1.373 . S
C838 C840 1.389 . S
C839 H818 0.950 . S
C839 C838 1.373 . S
C839 C855 1.377 . S
C840 C838 1.389 . S
C840 C841 1.524 . S
C840 C854 1.377 . S
C841 C840 1.524 . S
C841 C842 1.397 . S
C841 C846 1.363 . S
C842 H819 0.950 . S
C842 C841 1.397 . S
C842 C843 1.334 . S
C843 H820 0.950 . S
C843 C842 1.334 . S
C843 C844 1.287 . S
C844 C843 1.287 . S
C844 C845 1.524 . S
C844 H863 0.913 . S
C845 H821 0.950 . S
C845 C844 1.524 . S
C845 C846 1.415 . S
C846 H822 0.950 . S
C846 C841 1.363 . S
C846 C845 1.415 . S
C847 H823 0.951 . S
C847 C848 1.366 . S
C847 C849 1.388 . S
C848 C847 1.366 . S
C848 C852 1.385 . S
C849 H824 0.951 . S
C849 C847 1.388 . S
C849 C850 1.366 . S
C850 C849 1.366 . S
C850 C851 1.414 . S
C850 C853 1.499 . S
C851 H825 0.950 . S
C851 C850 1.414 . S
C851 C852 1.374 . S
C852 H826 0.950 . S
C852 C848 1.385 . S
C852 C851 1.374 . S
C853 C850 1.499 . S
C853 C854 1.373 . S
C853 C855 1.389 . S
C854 H827 0.950 . S
C854 C840 1.377 . S
C854 C853 1.373 . S
C855 C839 1.377 . S
C855 C853 1.389 . S
C855 C856 1.524 . S
C856 C855 1.524 . S
C856 C857 1.397 . S
C856 C861 1.363 . S
C857 H828 0.950 . S
C857 C856 1.397 . S
C857 C858 1.334 . S
C858 H829 0.950 . S
C858 C857 1.334 . S
C858 C859 1.287 . S
C859 C858 1.287 . S
C859 C860 1.524 . S
C859 H862 0.999 . S
C860 H830 0.950 . S
C860 C859 1.524 . S
C860 C861 1.415 . S
C861 H831 0.950 . S
C861 C856 1.363 . S
C861 C860 1.415 . S
H862 C859 0.999 . S
H863 C844 0.913 . S
H864 C882 0.951 . S
H865 C884 0.951 . S
H866 C886 0.950 . S
H867 C887 0.950 . S
H868 C889 0.950 . S
H869 C892 0.950 . S
H870 C893 0.950 . S
H871 C895 0.950 . S
H872 C896 0.950 . S
H873 C897 0.951 . S
H874 C899 0.951 1_455 S
H875 C901 0.950 . S
H876 C902 0.950 . S
H877 C904 0.950 . S
H878 C907 0.950 . S
H879 C908 0.950 . S
H880 C910 0.950 . S
H881 C911 0.950 . S
C882 H864 0.951 . S
C882 C883 1.366 . S
C882 C884 1.388 . S
C883 C882 1.366 . S
C883 C887 1.385 . S
C884 H865 0.951 . S
C884 C882 1.388 . S
C884 C885 1.366 . S
C885 C884 1.366 . S
C885 C886 1.414 . S
C885 C888 1.499 . S
C886 H866 0.950 . S
C886 C885 1.414 . S
C886 C887 1.374 . S
C887 H867 0.950 . S
C887 C883 1.385 . S
C887 C886 1.374 . S
C888 C885 1.499 . S
C888 C889 1.373 . S
C888 C890 1.389 . S
C889 H868 0.950 . S
C889 C888 1.373 . S
C889 C905 1.377 . S
C890 C888 1.389 . S
C890 C891 1.524 . S
C890 C904 1.377 . S
C891 C890 1.524 . S
C891 C892 1.397 . S
C891 C896 1.363 . S
C892 H869 0.950 . S
C892 C891 1.397 . S
C892 C893 1.334 . S
C893 H870 0.950 . S
C893 C892 1.334 . S
C893 C894 1.287 . S
C894 C893 1.287 . S
C894 C895 1.524 . S
C894 H913 0.913 . S
C895 H871 0.950 . S
C895 C894 1.524 . S
C895 C896 1.415 . S
C896 H872 0.950 . S
C896 C891 1.363 . S
C896 C895 1.415 . S
C897 H873 0.951 . S
C897 C898 1.366 1_455 S
C897 C899 1.388 1_455 S
C898 C897 1.366 1_655 S
C898 C902 1.385 . S
C899 H874 0.951 1_655 S
C899 C897 1.388 1_655 S
C899 C900 1.366 . S
C900 C899 1.366 . S
C900 C901 1.414 . S
C900 C903 1.499 . S
C901 H875 0.950 . S
C901 C900 1.414 . S
C901 C902 1.374 . S
C902 H876 0.950 . S
C902 C898 1.385 . S
C902 C901 1.374 . S
C903 C900 1.499 . S
C903 C904 1.373 . S
C903 C905 1.389 . S
C904 H877 0.950 . S
C904 C890 1.377 . S
C904 C903 1.373 . S
C905 C889 1.377 . S
C905 C903 1.389 . S
C905 C906 1.524 . S
C906 C905 1.524 . S
C906 C907 1.397 . S
C906 C911 1.363 1_655 S
C907 H878 0.950 . S
C907 C906 1.397 . S
C907 C908 1.334 1_665 S
C908 H879 0.950 . S
C908 C907 1.334 1_445 S
C908 C909 1.287 . S
C909 C908 1.287 . S
C909 C910 1.524 1_545 S
C909 H912 0.999 . S
C910 H880 0.950 . S
C910 C909 1.524 1_565 S
C910 C911 1.415 . S
C911 H881 0.950 . S
C911 C906 1.363 1_455 S
C911 C910 1.415 . S
H912 C909 0.999 . S
H913 C894 0.913 . S
H914 C932 0.951 . S
H915 C934 0.951 . S
H916 C936 0.950 . S
H917 C937 0.950 . S
H918 C939 0.950 . S
H919 C942 0.950 . S
H920 C943 0.950 . S
H921 C945 0.950 . S
H922 C946 0.950 . S
H923 C947 0.951 . S
H924 C949 0.951 . S
H925 C951 0.950 . S
H926 C952 0.950 . S
H927 C954 0.950 . S
H928 C957 0.950 . S
H929 C958 0.950 . S
H930 C960 0.950 . S
H931 C961 0.950 . S
C932 H914 0.951 . S
C932 C933 1.366 . S
C932 C934 1.388 . S
C933 C932 1.366 . S
C933 C937 1.385 . S
C934 H915 0.951 . S
C934 C932 1.388 . S
C934 C935 1.366 . S
C935 C934 1.366 . S
C935 C936 1.414 . S
C935 C938 1.499 . S
C936 H916 0.950 . S
C936 C935 1.414 . S
C936 C937 1.374 . S
C937 H917 0.950 . S
C937 C933 1.385 . S
C937 C936 1.374 . S
C938 C935 1.499 . S
C938 C939 1.373 . S
C938 C940 1.389 . S
C939 H918 0.950 . S
C939 C938 1.373 . S
C939 C955 1.377 . S
C940 C938 1.389 . S
C940 C941 1.524 . S
C940 C954 1.377 . S
C941 C940 1.524 . S
C941 C942 1.397 . S
C941 C946 1.363 . S
C942 H919 0.950 . S
C942 C941 1.397 . S
C942 C943 1.334 . S
C943 H920 0.950 . S
C943 C942 1.334 . S
C943 C944 1.287 . S
C944 C943 1.287 . S
C944 C945 1.524 . S
C944 H963 0.913 . S
C945 H921 0.950 . S
C945 C944 1.524 . S
C945 C946 1.415 . S
C946 H922 0.950 . S
C946 C941 1.363 . S
C946 C945 1.415 . S
C947 H923 0.951 . S
C947 C948 1.366 . S
C947 C949 1.388 . S
C948 C947 1.366 . S
C948 C952 1.385 . S
C949 H924 0.951 . S
C949 C947 1.388 . S
C949 C950 1.366 . S
C950 C949 1.366 . S
C950 C951 1.414 . S
C950 C953 1.499 . S
C951 H925 0.950 . S
C951 C950 1.414 . S
C951 C952 1.374 . S
C952 H926 0.950 . S
C952 C948 1.385 . S
C952 C951 1.374 . S
C953 C950 1.499 . S
C953 C954 1.373 . S
C953 C955 1.389 . S
C954 H927 0.950 . S
C954 C940 1.377 . S
C954 C953 1.373 . S
C955 C939 1.377 . S
C955 C953 1.389 . S
C955 C956 1.524 . S
C956 C955 1.524 . S
C956 C957 1.397 . S
C956 C961 1.363 . S
C957 H928 0.950 . S
C957 C956 1.397 . S
C957 C958 1.334 . S
C958 H929 0.950 . S
C958 C957 1.334 . S
C958 C959 1.287 . S
C959 C958 1.287 . S
C959 C960 1.524 . S
C959 H962 0.999 . S
C960 H930 0.950 . S
C960 C959 1.524 . S
C960 C961 1.415 . S
C961 H931 0.950 . S
C961 C956 1.363 . S
C961 C960 1.415 . S
H962 C959 0.999 . S
H963 C944 0.913 . S
H964 C982 0.951 . S
H965 C984 0.951 . S
H966 C986 0.950 . S
H967 C987 0.950 . S
H968 C989 0.950 . S
H969 C992 0.950 . S
H970 C993 0.950 . S
H971 C995 0.950 . S
H972 C996 0.950 . S
H973 C997 0.951 . S
H974 C999 0.951 . S
H975 C1001 0.950 . S
H976 C1002 0.950 . S
H977 C1004 0.950 . S
H978 C1007 0.950 . S
H979 C1008 0.950 . S
H980 C1010 0.950 . S
H981 C1011 0.950 . S
C982 H964 0.951 . S
C982 C983 1.366 . S
C982 C984 1.388 . S
C983 C982 1.366 . S
C983 C987 1.385 . S
C984 H965 0.951 . S
C984 C982 1.388 . S
C984 C985 1.366 . S
C985 C984 1.366 . S
C985 C986 1.414 . S
C985 C988 1.499 . S
C986 H966 0.950 . S
C986 C985 1.414 . S
C986 C987 1.374 . S
C987 H967 0.950 . S
C987 C983 1.385 . S
C987 C986 1.374 . S
C988 C985 1.499 . S
C988 C989 1.373 . S
C988 C990 1.389 . S
C989 H968 0.950 . S
C989 C988 1.373 . S
C989 C1005 1.377 . S
C990 C988 1.389 . S
C990 C991 1.524 . S
C990 C1004 1.377 . S
C991 C990 1.524 . S
C991 C992 1.397 . S
C991 C996 1.363 . S
C992 H969 0.950 . S
C992 C991 1.397 . S
C992 C993 1.334 . S
C993 H970 0.950 . S
C993 C992 1.334 . S
C993 C994 1.287 . S
C994 C993 1.287 . S
C994 C995 1.524 . S
C994 H1013 0.913 . S
C995 H971 0.950 . S
C995 C994 1.524 . S
C995 C996 1.415 . S
C996 H972 0.950 . S
C996 C991 1.363 . S
C996 C995 1.415 . S
C997 H973 0.951 . S
C997 C998 1.366 . S
C997 C999 1.388 . S
C998 C997 1.366 . S
C998 C1002 1.385 . S
C999 H974 0.951 . S
C999 C997 1.388 . S
C999 C1000 1.366 . S
C1000 C999 1.366 . S
C1000 C1001 1.414 . S
C1000 C1003 1.499 . S
C1001 H975 0.950 . S
C1001 C1000 1.414 . S
C1001 C1002 1.374 . S
C1002 H976 0.950 . S
C1002 C998 1.385 . S
C1002 C1001 1.374 . S
C1003 C1000 1.499 . S
C1003 C1004 1.373 . S
C1003 C1005 1.389 . S
C1004 H977 0.950 . S
C1004 C990 1.377 . S
C1004 C1003 1.373 . S
C1005 C989 1.377 . S
C1005 C1003 1.389 . S
C1005 C1006 1.524 . S
C1006 C1005 1.524 . S
C1006 C1007 1.397 . S
C1006 C1011 1.363 . S
C1007 H978 0.950 . S
C1007 C1006 1.397 . S
C1007 C1008 1.334 . S
C1008 H979 0.950 . S
C1008 C1007 1.334 . S
C1008 C1009 1.287 . S
C1009 C1008 1.287 . S
C1009 C1010 1.524 . S
C1009 H1012 0.999 . S
C1010 H980 0.950 . S
C1010 C1009 1.524 . S
C1010 C1011 1.415 . S
C1011 H981 0.950 . S
C1011 C1006 1.363 . S
C1011 C1010 1.415 . S
H1012 C1009 0.999 . S
H1013 C994 0.913 . S
H1014 C1032 0.951 . S
H1015 C1034 0.951 . S
H1016 C1036 0.950 . S
H1017 C1037 0.950 . S
H1018 C1039 0.950 . S
H1019 C1042 0.950 . S
H1020 C1043 0.950 . S
H1021 C1045 0.950 . S
H1022 C1046 0.950 . S
H1023 C1047 0.951 . S
H1024 C1049 0.951 . S
H1025 C1051 0.950 . S
H1026 C1052 0.950 . S
H1027 C1054 0.950 . S
H1028 C1057 0.950 . S
H1029 C1058 0.950 . S
H1030 C1060 0.950 . S
H1031 C1061 0.950 . S
C1032 H1014 0.951 . S
C1032 C1033 1.366 . S
C1032 C1034 1.388 . S
C1033 C1032 1.366 . S
C1033 C1037 1.385 . S
C1034 H1015 0.951 . S
C1034 C1032 1.388 . S
C1034 C1035 1.366 . S
C1035 C1034 1.366 . S
C1035 C1036 1.414 . S
C1035 C1038 1.499 . S
C1036 H1016 0.950 . S
C1036 C1035 1.414 . S
C1036 C1037 1.374 . S
C1037 H1017 0.950 . S
C1037 C1033 1.385 . S
C1037 C1036 1.374 . S
C1038 C1035 1.499 . S
C1038 C1039 1.373 . S
C1038 C1040 1.389 . S
C1039 H1018 0.950 . S
C1039 C1038 1.373 . S
C1039 C1055 1.377 . S
C1040 C1038 1.389 . S
C1040 C1041 1.524 . S
C1040 C1054 1.377 . S
C1041 C1040 1.524 . S
C1041 C1042 1.397 . S
C1041 C1046 1.363 . S
C1042 H1019 0.950 . S
C1042 C1041 1.397 . S
C1042 C1043 1.334 . S
C1043 H1020 0.950 . S
C1043 C1042 1.334 . S
C1043 C1044 1.287 . S
C1044 C1043 1.287 . S
C1044 C1045 1.524 . S
C1044 H1063 0.913 . S
C1045 H1021 0.950 . S
C1045 C1044 1.524 . S
C1045 C1046 1.415 . S
C1046 H1022 0.950 . S
C1046 C1041 1.363 . S
C1046 C1045 1.415 . S
C1047 H1023 0.951 . S
C1047 C1048 1.366 . S
C1047 C1049 1.388 . S
C1048 C1047 1.366 . S
C1048 C1052 1.385 . S
C1049 H1024 0.951 . S
C1049 C1047 1.388 . S
C1049 C1050 1.366 . S
C1050 C1049 1.366 . S
C1050 C1051 1.414 . S
C1050 C1053 1.499 . S
C1051 H1025 0.950 . S
C1051 C1050 1.414 . S
C1051 C1052 1.374 . S
C1052 H1026 0.950 . S
C1052 C1048 1.385 . S
C1052 C1051 1.374 . S
C1053 C1050 1.499 . S
C1053 C1054 1.373 . S
C1053 C1055 1.389 . S
C1054 H1027 0.950 . S
C1054 C1040 1.377 . S
C1054 C1053 1.373 . S
C1055 C1039 1.377 . S
C1055 C1053 1.389 . S
C1055 C1056 1.524 . S
C1056 C1055 1.524 . S
C1056 C1057 1.397 . S
C1056 C1061 1.363 . S
C1057 H1028 0.950 . S
C1057 C1056 1.397 . S
C1057 C1058 1.334 . S
C1058 H1029 0.950 . S
C1058 C1057 1.334 . S
C1058 C1059 1.287 . S
C1059 C1058 1.287 . S
C1059 C1060 1.524 . S
C1059 H1062 0.999 . S
C1060 H1030 0.950 . S
C1060 C1059 1.524 . S
C1060 C1061 1.415 . S
C1061 H1031 0.950 . S
C1061 C1056 1.363 . S
C1061 C1060 1.415 . S
H1062 C1059 0.999 . S
H1063 C1044 0.913 . S
H1064 C1082 0.951 . S
H1065 C1084 0.951 . S
H1066 C1086 0.950 . S
H1067 C1087 0.950 . S
H1068 C1089 0.950 . S
H1069 C1092 0.950 . S
H1070 C1093 0.950 . S
H1071 C1095 0.950 1_545 S
H1072 C1096 0.950 . S
H1073 C1097 0.951 . S
H1074 C1099 0.951 . S
H1075 C1101 0.950 . S
H1076 C1102 0.950 . S
H1077 C1104 0.950 . S
H1078 C1107 0.950 . S
H1079 C1108 0.950 . S
H1080 C1110 0.950 . S
H1081 C1111 0.950 . S
C1082 H1064 0.951 . S
C1082 C1083 1.366 . S
C1082 C1084 1.388 . S
C1083 C1082 1.366 . S
C1083 C1087 1.385 . S
C1084 H1065 0.951 . S
C1084 C1082 1.388 . S
C1084 C1085 1.366 . S
C1085 C1084 1.366 . S
C1085 C1086 1.414 . S
C1085 C1088 1.499 . S
C1086 H1066 0.950 . S
C1086 C1085 1.414 . S
C1086 C1087 1.374 . S
C1087 H1067 0.950 . S
C1087 C1083 1.385 . S
C1087 C1086 1.374 . S
C1088 C1085 1.499 . S
C1088 C1089 1.373 . S
C1088 C1090 1.389 . S
C1089 H1068 0.950 . S
C1089 C1088 1.373 . S
C1089 C1105 1.377 . S
C1090 C1088 1.389 . S
C1090 C1091 1.524 . S
C1090 C1104 1.377 . S
C1091 C1090 1.524 . S
C1091 C1092 1.397 . S
C1091 C1096 1.363 . S
C1092 H1069 0.950 . S
C1092 C1091 1.397 . S
C1092 C1093 1.334 . S
C1093 H1070 0.950 . S
C1093 C1092 1.334 . S
C1093 C1094 1.287 . S
C1094 C1093 1.287 . S
C1094 C1095 1.524 . S
C1094 H1113 0.913 . S
C1095 H1071 0.950 1_565 S
C1095 C1094 1.524 . S
C1095 C1096 1.415 . S
C1096 H1072 0.950 . S
C1096 C1091 1.363 . S
C1096 C1095 1.415 . S
C1097 H1073 0.951 . S
C1097 C1098 1.366 . S
C1097 C1099 1.388 . S
C1098 C1097 1.366 . S
C1098 C1102 1.385 . S
C1099 H1074 0.951 . S
C1099 C1097 1.388 . S
C1099 C1100 1.366 . S
C1100 C1099 1.366 . S
C1100 C1101 1.414 . S
C1100 C1103 1.499 . S
C1101 H1075 0.950 . S
C1101 C1100 1.414 . S
C1101 C1102 1.374 . S
C1102 H1076 0.950 . S
C1102 C1098 1.385 . S
C1102 C1101 1.374 . S
C1103 C1100 1.499 . S
C1103 C1104 1.373 . S
C1103 C1105 1.389 . S
C1104 H1077 0.950 . S
C1104 C1090 1.377 . S
C1104 C1103 1.373 . S
C1105 C1089 1.377 . S
C1105 C1103 1.389 . S
C1105 C1106 1.524 . S
C1106 C1105 1.524 . S
C1106 C1107 1.397 . S
C1106 C1111 1.363 . S
C1107 H1078 0.950 . S
C1107 C1106 1.397 . S
C1107 C1108 1.334 . S
C1108 H1079 0.950 . S
C1108 C1107 1.334 . S
C1108 C1109 1.287 . S
C1109 C1108 1.287 . S
C1109 C1110 1.524 . S
C1109 H1112 0.999 . S
C1110 H1080 0.950 . S
C1110 C1109 1.524 . S
C1110 C1111 1.415 . S
C1111 H1081 0.950 . S
C1111 C1106 1.363 . S
C1111 C1110 1.415 . S
H1112 C1109 0.999 . S
H1113 C1094 0.913 . S
H1114 C1132 0.951 . S
H1115 C1134 0.951 . S
H1116 C1136 0.950 . S
H1117 C1137 0.950 . S
H1118 C1139 0.950 . S
H1119 C1142 0.950 . S
H1120 C1143 0.950 . S
H1121 C1145 0.950 . S
H1122 C1146 0.950 . S
H1123 C1147 0.951 . S
H1124 C1149 0.951 . S
H1125 C1151 0.950 . S
H1126 C1152 0.950 . S
H1127 C1154 0.950 . S
H1128 C1157 0.950 . S
H1129 C1158 0.950 . S
H1130 C1160 0.950 . S
H1131 C1161 0.950 . S
C1132 H1114 0.951 . S
C1132 C1133 1.366 . S
C1132 C1134 1.388 . S
C1133 C1132 1.366 . S
C1133 C1137 1.385 . S
C1134 H1115 0.951 . S
C1134 C1132 1.388 . S
C1134 C1135 1.366 . S
C1135 C1134 1.366 . S
C1135 C1136 1.414 . S
C1135 C1138 1.499 . S
C1136 H1116 0.950 . S
C1136 C1135 1.414 . S
C1136 C1137 1.374 . S
C1137 H1117 0.950 . S
C1137 C1133 1.385 . S
C1137 C1136 1.374 . S
C1138 C1135 1.499 . S
C1138 C1139 1.373 . S
C1138 C1140 1.389 . S
C1139 H1118 0.950 . S
C1139 C1138 1.373 . S
C1139 C1155 1.377 . S
C1140 C1138 1.389 . S
C1140 C1141 1.524 . S
C1140 C1154 1.377 . S
C1141 C1140 1.524 . S
C1141 C1142 1.397 . S
C1141 C1146 1.363 . S
C1142 H1119 0.950 . S
C1142 C1141 1.397 . S
C1142 C1143 1.334 . S
C1143 H1120 0.950 . S
C1143 C1142 1.334 . S
C1143 C1144 1.287 . S
C1144 C1143 1.287 . S
C1144 C1145 1.524 . S
C1144 H1163 0.913 . S
C1145 H1121 0.950 . S
C1145 C1144 1.524 . S
C1145 C1146 1.415 . S
C1146 H1122 0.950 . S
C1146 C1141 1.363 . S
C1146 C1145 1.415 . S
C1147 H1123 0.951 . S
C1147 C1148 1.366 . S
C1147 C1149 1.388 . S
C1148 C1147 1.366 . S
C1148 C1152 1.385 . S
C1149 H1124 0.951 . S
C1149 C1147 1.388 . S
C1149 C1150 1.366 . S
C1150 C1149 1.366 . S
C1150 C1151 1.414 . S
C1150 C1153 1.499 . S
C1151 H1125 0.950 . S
C1151 C1150 1.414 . S
C1151 C1152 1.374 . S
C1152 H1126 0.950 . S
C1152 C1148 1.385 . S
C1152 C1151 1.374 . S
C1153 C1150 1.499 . S
C1153 C1154 1.373 . S
C1153 C1155 1.389 . S
C1154 H1127 0.950 . S
C1154 C1140 1.377 . S
C1154 C1153 1.373 . S
C1155 C1139 1.377 . S
C1155 C1153 1.389 . S
C1155 C1156 1.524 . S
C1156 C1155 1.524 . S
C1156 C1157 1.397 . S
C1156 C1161 1.363 . S
C1157 H1128 0.950 . S
C1157 C1156 1.397 . S
C1157 C1158 1.334 . S
C1158 H1129 0.950 . S
C1158 C1157 1.334 . S
C1158 C1159 1.287 . S
C1159 C1158 1.287 . S
C1159 C1160 1.524 . S
C1159 H1162 0.999 . S
C1160 H1130 0.950 . S
C1160 C1159 1.524 . S
C1160 C1161 1.415 . S
C1161 H1131 0.950 . S
C1161 C1156 1.363 . S
C1161 C1160 1.415 . S
H1162 C1159 0.999 . S
H1163 C1144 0.913 . S
H1164 C1182 0.951 . S
H1165 C1184 0.951 . S
H1166 C1186 0.950 . S
H1167 C1187 0.950 . S
H1168 C1189 0.950 . S
H1169 C1192 0.950 . S
H1170 C1193 0.950 . S
H1171 C1195 0.950 . S
H1172 C1196 0.950 . S
H1173 C1197 0.951 . S
H1174 C1199 0.951 . S
H1175 C1201 0.950 . S
H1176 C1202 0.950 . S
H1177 C1204 0.950 . S
H1178 C1207 0.950 . S
H1179 C1208 0.950 . S
H1180 C1210 0.950 . S
H1181 C1211 0.950 . S
C1182 H1164 0.951 . S
C1182 C1183 1.366 . S
C1182 C1184 1.388 . S
C1183 C1182 1.366 . S
C1183 C1187 1.385 . S
C1184 H1165 0.951 . S
C1184 C1182 1.388 . S
C1184 C1185 1.366 . S
C1185 C1184 1.366 . S
C1185 C1186 1.414 . S
C1185 C1188 1.499 . S
C1186 H1166 0.950 . S
C1186 C1185 1.414 . S
C1186 C1187 1.374 . S
C1187 H1167 0.950 . S
C1187 C1183 1.385 . S
C1187 C1186 1.374 . S
C1188 C1185 1.499 . S
C1188 C1189 1.373 . S
C1188 C1190 1.389 . S
C1189 H1168 0.950 . S
C1189 C1188 1.373 . S
C1189 C1205 1.377 . S
C1190 C1188 1.389 . S
C1190 C1191 1.524 . S
C1190 C1204 1.377 . S
C1191 C1190 1.524 . S
C1191 C1192 1.397 . S
C1191 C1196 1.363 . S
C1192 H1169 0.950 . S
C1192 C1191 1.397 . S
C1192 C1193 1.334 . S
C1193 H1170 0.950 . S
C1193 C1192 1.334 . S
C1193 C1194 1.287 . S
C1194 C1193 1.287 . S
C1194 C1195 1.524 . S
C1194 H1213 0.913 . S
C1195 H1171 0.950 . S
C1195 C1194 1.524 . S
C1195 C1196 1.415 . S
C1196 H1172 0.950 . S
C1196 C1191 1.363 . S
C1196 C1195 1.415 . S
C1197 H1173 0.951 . S
C1197 C1198 1.366 . S
C1197 C1199 1.388 . S
C1198 C1197 1.366 . S
C1198 C1202 1.385 . S
C1199 H1174 0.951 . S
C1199 C1197 1.388 . S
C1199 C1200 1.366 . S
C1200 C1199 1.366 . S
C1200 C1201 1.414 . S
C1200 C1203 1.499 . S
C1201 H1175 0.950 . S
C1201 C1200 1.414 . S
C1201 C1202 1.374 . S
C1202 H1176 0.950 . S
C1202 C1198 1.385 . S
C1202 C1201 1.374 . S
C1203 C1200 1.499 . S
C1203 C1204 1.373 . S
C1203 C1205 1.389 . S
C1204 H1177 0.950 . S
C1204 C1190 1.377 . S
C1204 C1203 1.373 . S
C1205 C1189 1.377 . S
C1205 C1203 1.389 . S
C1205 C1206 1.524 . S
C1206 C1205 1.524 . S
C1206 C1207 1.397 . S
C1206 C1211 1.363 . S
C1207 H1178 0.950 . S
C1207 C1206 1.397 . S
C1207 C1208 1.334 . S
C1208 H1179 0.950 . S
C1208 C1207 1.334 . S
C1208 C1209 1.287 . S
C1209 C1208 1.287 . S
C1209 C1210 1.524 . S
C1209 H1212 0.999 . S
C1210 H1180 0.950 . S
C1210 C1209 1.524 . S
C1210 C1211 1.415 . S
C1211 H1181 0.950 . S
C1211 C1206 1.363 . S
C1211 C1210 1.415 . S
H1212 C1209 0.999 . S
H1213 C1194 0.913 . S
H1214 C1232 0.951 . S
H1215 C1234 0.951 . S
H1216 C1236 0.950 . S
H1217 C1237 0.950 . S
H1218 C1239 0.950 . S
H1219 C1242 0.950 . S
H1220 C1243 0.950 . S
H1221 C1245 0.950 . S
H1222 C1246 0.950 . S
H1223 C1247 0.951 . S
H1224 C1249 0.951 . S
H1225 C1251 0.950 . S
H1226 C1252 0.950 . S
H1227 C1254 0.950 . S
H1228 C1257 0.950 . S
H1229 C1258 0.950 . S
H1230 C1260 0.950 . S
H1231 C1261 0.950 . S
C1232 H1214 0.951 . S
C1232 C1233 1.366 . S
C1232 C1234 1.388 . S
C1233 C1232 1.366 . S
C1233 C1237 1.385 . S
C1234 H1215 0.951 . S
C1234 C1232 1.388 . S
C1234 C1235 1.366 . S
C1235 C1234 1.366 . S
C1235 C1236 1.414 . S
C1235 C1238 1.499 . S
C1236 H1216 0.950 . S
C1236 C1235 1.414 . S
C1236 C1237 1.374 . S
C1237 H1217 0.950 . S
C1237 C1233 1.385 . S
C1237 C1236 1.374 . S
C1238 C1235 1.499 . S
C1238 C1239 1.373 . S
C1238 C1240 1.389 . S
C1239 H1218 0.950 . S
C1239 C1238 1.373 . S
C1239 C1255 1.377 . S
C1240 C1238 1.389 . S
C1240 C1241 1.524 . S
C1240 C1254 1.377 . S
C1241 C1240 1.524 . S
C1241 C1242 1.397 . S
C1241 C1246 1.363 . S
C1242 H1219 0.950 . S
C1242 C1241 1.397 . S
C1242 C1243 1.334 . S
C1243 H1220 0.950 . S
C1243 C1242 1.334 . S
C1243 C1244 1.287 . S
C1244 C1243 1.287 . S
C1244 C1245 1.524 . S
C1244 H1263 0.913 . S
C1245 H1221 0.950 . S
C1245 C1244 1.524 . S
C1245 C1246 1.415 . S
C1246 H1222 0.950 . S
C1246 C1241 1.363 . S
C1246 C1245 1.415 . S
C1247 H1223 0.951 . S
C1247 C1248 1.366 . S
C1247 C1249 1.388 . S
C1248 C1247 1.366 . S
C1248 C1252 1.385 . S
C1249 H1224 0.951 . S
C1249 C1247 1.388 . S
C1249 C1250 1.366 . S
C1250 C1249 1.366 . S
C1250 C1251 1.414 . S
C1250 C1253 1.499 . S
C1251 H1225 0.950 . S
C1251 C1250 1.414 . S
C1251 C1252 1.374 . S
C1252 H1226 0.950 . S
C1252 C1248 1.385 . S
C1252 C1251 1.374 . S
C1253 C1250 1.499 . S
C1253 C1254 1.373 . S
C1253 C1255 1.389 . S
C1254 H1227 0.950 . S
C1254 C1240 1.377 . S
C1254 C1253 1.373 . S
C1255 C1239 1.377 . S
C1255 C1253 1.389 . S
C1255 C1256 1.524 . S
C1256 C1255 1.524 . S
C1256 C1257 1.397 . S
C1256 C1261 1.363 . S
C1257 H1228 0.950 . S
C1257 C1256 1.397 . S
C1257 C1258 1.334 . S
C1258 H1229 0.950 . S
C1258 C1257 1.334 . S
C1258 C1259 1.287 . S
C1259 C1258 1.287 . S
C1259 C1260 1.524 . S
C1259 H1262 0.999 . S
C1260 H1230 0.950 . S
C1260 C1259 1.524 . S
C1260 C1261 1.415 . S
C1261 H1231 0.950 . S
C1261 C1256 1.363 . S
C1261 C1260 1.415 . S
H1262 C1259 0.999 . S
H1263 C1244 0.913 . S
H1264 C1282 0.951 . S
H1265 C1284 0.951 . S
H1266 C1286 0.950 . S
H1267 C1287 0.950 . S
H1268 C1289 0.950 . S
H1269 C1292 0.950 . S
H1270 C1293 0.950 . S
H1271 C1295 0.950 . S
H1272 C1296 0.950 . S
H1273 C1297 0.951 . S
H1274 C1299 0.951 . S
H1275 C1301 0.950 . S
H1276 C1302 0.944 1_554 S
H1277 C1304 0.950 1_554 S
H1278 C1307 0.950 . S
H1279 C1308 0.950 . S
H1280 C1310 0.950 . S
H1281 C1311 0.950 . S
C1282 H1264 0.951 . S
C1282 C1283 1.366 . S
C1282 C1284 1.388 . S
C1283 C1282 1.366 . S
C1283 C1287 1.385 . S
C1284 H1265 0.951 . S
C1284 C1282 1.388 . S
C1284 C1285 1.366 . S
C1285 C1284 1.366 . S
C1285 C1286 1.414 . S
C1285 C1288 1.499 . S
C1286 H1266 0.950 . S
C1286 C1285 1.414 . S
C1286 C1287 1.374 . S
C1287 H1267 0.950 . S
C1287 C1283 1.385 . S
C1287 C1286 1.374 . S
C1288 C1285 1.499 . S
C1288 C1289 1.373 . S
C1288 C1290 1.389 . S
C1289 H1268 0.950 . S
C1289 C1288 1.373 . S
C1289 C1305 1.377 . S
C1290 C1288 1.389 . S
C1290 C1291 1.524 1_556 S
C1290 C1304 1.377 . S
C1291 C1290 1.524 1_554 S
C1291 C1292 1.397 . S
C1291 C1296 1.363 . S
C1292 H1269 0.950 . S
C1292 C1291 1.397 . S
C1292 C1293 1.334 . S
C1293 H1270 0.950 . S
C1293 C1292 1.334 . S
C1293 C1294 1.287 . S
C1294 C1293 1.287 . S
C1294 C1295 1.524 . S
C1294 H1313 0.913 . S
C1295 H1271 0.950 . S
C1295 C1294 1.524 . S
C1295 C1296 1.415 . S
C1296 H1272 0.950 . S
C1296 C1291 1.363 . S
C1296 C1295 1.415 . S
C1297 H1273 0.951 . S
C1297 C1298 1.366 . S
C1297 C1299 1.388 . S
C1298 C1297 1.366 . S
C1298 C1302 1.385 1_455 S
C1299 H1274 0.951 . S
C1299 C1297 1.388 . S
C1299 C1300 1.366 1_455 S
C1300 C1299 1.366 1_655 S
C1300 C1301 1.414 . S
C1300 C1303 1.499 . S
C1301 H1275 0.950 . S
C1301 C1300 1.414 . S
C1301 C1302 1.374 . S
C1302 H1276 0.944 1_556 S
C1302 C1298 1.385 1_655 S
C1302 C1301 1.374 . S
C1303 C1300 1.499 . S
C1303 C1304 1.373 . S
C1303 C1305 1.389 . S
C1304 H1277 0.950 1_556 S
C1304 C1290 1.377 . S
C1304 C1303 1.373 . S
C1305 C1289 1.377 . S
C1305 C1303 1.389 . S
C1305 C1306 1.524 . S
C1306 C1305 1.524 . S
C1306 C1307 1.397 . S
C1306 C1311 1.363 1_655 S
C1307 H1278 0.950 . S
C1307 C1306 1.397 . S
C1307 C1308 1.334 . S
C1308 H1279 0.950 . S
C1308 C1307 1.334 . S
C1308 C1309 1.287 1_655 S
C1309 C1308 1.287 1_455 S
C1309 C1310 1.524 . S
C1309 H1312 0.999 . S
C1310 H1280 0.950 . S
C1310 C1309 1.524 . S
C1310 C1311 1.415 . S
C1311 H1281 0.950 . S
C1311 C1306 1.363 1_455 S
C1311 C1310 1.415 . S
H1312 C1309 0.999 . S
H1313 C1294 0.913 . S
H1314 C1332 0.951 . S
H1315 C1334 0.951 . S
H1316 C1336 0.950 . S
H1317 C1337 0.950 . S
H1318 C1339 0.950 . S
H1319 C1342 0.950 . S
H1320 C1343 0.950 . S
H1321 C1345 0.950 . S
H1322 C1346 0.950 . S
H1323 C1347 0.951 . S
H1324 C1349 0.951 . S
H1325 C1351 0.950 . S
H1326 C1352 0.950 . S
H1327 C1354 0.950 . S
H1328 C1357 0.950 . S
H1329 C1358 0.950 . S
H1330 C1360 0.950 . S
H1331 C1361 0.950 . S
C1332 H1314 0.951 . S
C1332 C1333 1.366 . S
C1332 C1334 1.388 . S
C1333 C1332 1.366 . S
C1333 C1337 1.385 . S
C1334 H1315 0.951 . S
C1334 C1332 1.388 . S
C1334 C1335 1.366 . S
C1335 C1334 1.366 . S
C1335 C1336 1.414 . S
C1335 C1338 1.499 . S
C1336 H1316 0.950 . S
C1336 C1335 1.414 . S
C1336 C1337 1.374 . S
C1337 H1317 0.950 . S
C1337 C1333 1.385 . S
C1337 C1336 1.374 . S
C1338 C1335 1.499 . S
C1338 C1339 1.373 . S
C1338 C1340 1.389 . S
C1339 H1318 0.950 . S
C1339 C1338 1.373 . S
C1339 C1355 1.377 . S
C1340 C1338 1.389 . S
C1340 C1341 1.524 . S
C1340 C1354 1.377 . S
C1341 C1340 1.524 . S
C1341 C1342 1.397 . S
C1341 C1346 1.363 . S
C1342 H1319 0.950 . S
C1342 C1341 1.397 . S
C1342 C1343 1.334 . S
C1343 H1320 0.950 . S
C1343 C1342 1.334 . S
C1343 C1344 1.287 . S
C1344 C1343 1.287 . S
C1344 C1345 1.524 . S
C1344 H1363 0.913 . S
C1345 H1321 0.950 . S
C1345 C1344 1.524 . S
C1345 C1346 1.415 . S
C1346 H1322 0.950 . S
C1346 C1341 1.363 . S
C1346 C1345 1.415 . S
C1347 H1323 0.951 . S
C1347 C1348 1.366 . S
C1347 C1349 1.388 . S
C1348 C1347 1.366 . S
C1348 C1352 1.385 . S
C1349 H1324 0.951 . S
C1349 C1347 1.388 . S
C1349 C1350 1.366 . S
C1350 C1349 1.366 . S
C1350 C1351 1.414 . S
C1350 C1353 1.499 . S
C1351 H1325 0.950 . S
C1351 C1350 1.414 . S
C1351 C1352 1.374 . S
C1352 H1326 0.950 . S
C1352 C1348 1.385 . S
C1352 C1351 1.374 . S
C1353 C1350 1.499 . S
C1353 C1354 1.373 . S
C1353 C1355 1.389 . S
C1354 H1327 0.950 . S
C1354 C1340 1.377 . S
C1354 C1353 1.373 . S
C1355 C1339 1.377 . S
C1355 C1353 1.389 . S
C1355 C1356 1.524 . S
C1356 C1355 1.524 . S
C1356 C1357 1.397 . S
C1356 C1361 1.363 . S
C1357 H1328 0.950 . S
C1357 C1356 1.397 . S
C1357 C1358 1.334 . S
C1358 H1329 0.950 . S
C1358 C1357 1.334 . S
C1358 C1359 1.287 . S
C1359 C1358 1.287 . S
C1359 C1360 1.524 . S
C1359 H1362 0.999 . S
C1360 H1330 0.950 . S
C1360 C1359 1.524 . S
C1360 C1361 1.415 . S
C1361 H1331 0.950 . S
C1361 C1356 1.363 . S
C1361 C1360 1.415 . S
H1362 C1359 0.999 . S
H1363 C1344 0.913 . S
H1364 C1382 0.951 . S
H1365 C1384 0.951 . S
H1366 C1386 0.950 . S
H1367 C1387 0.950 . S
H1368 C1389 0.950 . S
H1369 C1392 0.950 . S
H1370 C1393 0.950 . S
H1371 C1395 0.950 . S
H1372 C1396 0.950 . S
H1373 C1397 0.951 . S
H1374 C1399 0.951 . S
H1375 C1401 0.950 . S
H1376 C1402 0.950 . S
H1377 C1404 0.950 . S
H1378 C1407 0.950 . S
H1379 C1408 0.950 . S
H1380 C1410 0.950 . S
H1381 C1411 0.950 . S
C1382 H1364 0.951 . S
C1382 C1383 1.366 . S
C1382 C1384 1.388 . S
C1383 C1382 1.366 . S
C1383 C1387 1.385 . S
C1384 H1365 0.951 . S
C1384 C1382 1.388 . S
C1384 C1385 1.366 . S
C1385 C1384 1.366 . S
C1385 C1386 1.414 . S
C1385 C1388 1.499 . S
C1386 H1366 0.950 . S
C1386 C1385 1.414 . S
C1386 C1387 1.374 . S
C1387 H1367 0.950 . S
C1387 C1383 1.385 . S
C1387 C1386 1.374 . S
C1388 C1385 1.499 . S
C1388 C1389 1.373 . S
C1388 C1390 1.389 . S
C1389 H1368 0.950 . S
C1389 C1388 1.373 . S
C1389 C1405 1.377 . S
C1390 C1388 1.389 . S
C1390 C1391 1.524 . S
C1390 C1404 1.377 . S
C1391 C1390 1.524 . S
C1391 C1392 1.397 . S
C1391 C1396 1.363 . S
C1392 H1369 0.950 . S
C1392 C1391 1.397 . S
C1392 C1393 1.334 . S
C1393 H1370 0.950 . S
C1393 C1392 1.334 . S
C1393 C1394 1.287 . S
C1394 C1393 1.287 . S
C1394 C1395 1.524 . S
C1394 H1413 0.913 . S
C1395 H1371 0.950 . S
C1395 C1394 1.524 . S
C1395 C1396 1.415 . S
C1396 H1372 0.950 . S
C1396 C1391 1.363 . S
C1396 C1395 1.415 . S
C1397 H1373 0.951 . S
C1397 C1398 1.366 . S
C1397 C1399 1.388 . S
C1398 C1397 1.366 . S
C1398 C1402 1.385 . S
C1399 H1374 0.951 . S
C1399 C1397 1.388 . S
C1399 C1400 1.366 . S
C1400 C1399 1.366 . S
C1400 C1401 1.414 . S
C1400 C1403 1.499 . S
C1401 H1375 0.950 . S
C1401 C1400 1.414 . S
C1401 C1402 1.374 . S
C1402 H1376 0.950 . S
C1402 C1398 1.385 . S
C1402 C1401 1.374 . S
C1403 C1400 1.499 . S
C1403 C1404 1.373 . S
C1403 C1405 1.389 . S
C1404 H1377 0.950 . S
C1404 C1390 1.377 . S
C1404 C1403 1.373 . S
C1405 C1389 1.377 . S
C1405 C1403 1.389 . S
C1405 C1406 1.524 . S
C1406 C1405 1.524 . S
C1406 C1407 1.397 . S
C1406 C1411 1.363 . S
C1407 H1378 0.950 . S
C1407 C1406 1.397 . S
C1407 C1408 1.334 . S
C1408 H1379 0.950 . S
C1408 C1407 1.334 . S
C1408 C1409 1.287 . S
C1409 C1408 1.287 . S
C1409 C1410 1.524 . S
C1409 H1412 0.999 . S
C1410 H1380 0.950 . S
C1410 C1409 1.524 . S
C1410 C1411 1.415 . S
C1411 H1381 0.950 . S
C1411 C1406 1.363 . S
C1411 C1410 1.415 . S
H1412 C1409 0.999 . S
H1413 C1394 0.913 . S
H1414 C1432 0.951 . S
H1415 C1434 0.951 . S
H1416 C1436 0.950 . S
H1417 C1437 0.950 . S
H1418 C1439 0.950 . S
H1419 C1442 0.950 . S
H1420 C1443 0.950 . S
H1421 C1445 0.950 . S
H1422 C1446 0.950 . S
H1423 C1447 0.951 . S
H1424 C1449 0.951 . S
H1425 C1451 0.950 . S
H1426 C1452 0.950 . S
H1427 C1454 0.950 . S
H1428 C1457 0.950 . S
H1429 C1458 0.950 . S
H1430 C1460 0.950 . S
H1431 C1461 0.950 . S
C1432 H1414 0.951 . S
C1432 C1433 1.366 . S
C1432 C1434 1.388 . S
C1433 C1432 1.366 . S
C1433 C1437 1.385 . S
C1434 H1415 0.951 . S
C1434 C1432 1.388 . S
C1434 C1435 1.366 . S
C1435 C1434 1.366 . S
C1435 C1436 1.414 . S
C1435 C1438 1.499 . S
C1436 H1416 0.950 . S
C1436 C1435 1.414 . S
C1436 C1437 1.374 . S
C1437 H1417 0.950 . S
C1437 C1433 1.385 . S
C1437 C1436 1.374 . S
C1438 C1435 1.499 . S
C1438 C1439 1.373 . S
C1438 C1440 1.389 . S
C1439 H1418 0.950 . S
C1439 C1438 1.373 . S
C1439 C1455 1.377 . S
C1440 C1438 1.389 . S
C1440 C1441 1.524 . S
C1440 C1454 1.377 . S
C1441 C1440 1.524 . S
C1441 C1442 1.397 . S
C1441 C1446 1.363 . S
C1442 H1419 0.950 . S
C1442 C1441 1.397 . S
C1442 C1443 1.334 . S
C1443 H1420 0.950 . S
C1443 C1442 1.334 . S
C1443 C1444 1.287 . S
C1444 C1443 1.287 . S
C1444 C1445 1.524 . S
C1444 H1463 0.913 . S
C1445 H1421 0.950 . S
C1445 C1444 1.524 . S
C1445 C1446 1.415 . S
C1446 H1422 0.950 . S
C1446 C1441 1.363 . S
C1446 C1445 1.415 . S
C1447 H1423 0.951 . S
C1447 C1448 1.366 . S
C1447 C1449 1.388 . S
C1448 C1447 1.366 . S
C1448 C1452 1.385 . S
C1449 H1424 0.951 . S
C1449 C1447 1.388 . S
C1449 C1450 1.366 . S
C1450 C1449 1.366 . S
C1450 C1451 1.414 . S
C1450 C1453 1.499 . S
C1451 H1425 0.950 . S
C1451 C1450 1.414 . S
C1451 C1452 1.374 . S
C1452 H1426 0.950 . S
C1452 C1448 1.385 . S
C1452 C1451 1.374 . S
C1453 C1450 1.499 . S
C1453 C1454 1.373 . S
C1453 C1455 1.389 . S
C1454 H1427 0.950 . S
C1454 C1440 1.377 . S
C1454 C1453 1.373 . S
C1455 C1439 1.377 . S
C1455 C1453 1.389 . S
C1455 C1456 1.524 . S
C1456 C1455 1.524 . S
C1456 C1457 1.397 . S
C1456 C1461 1.363 . S
C1457 H1428 0.950 . S
C1457 C1456 1.397 . S
C1457 C1458 1.334 . S
C1458 H1429 0.950 . S
C1458 C1457 1.334 . S
C1458 C1459 1.287 . S
C1459 C1458 1.287 . S
C1459 C1460 1.524 . S
C1459 H1462 0.999 . S
C1460 H1430 0.950 . S
C1460 C1459 1.524 . S
C1460 C1461 1.415 . S
C1461 H1431 0.950 . S
C1461 C1456 1.363 . S
C1461 C1460 1.415 . S
H1462 C1459 0.999 . S
H1463 C1444 0.913 . S
C283 C9 3.428 . S
C298 C123 3.395 . S
C333 C21 2.072 . S
C348 C154 2.111 . S
C398 C193 0.766 . S
C383 C30 0.769 . S
C433 C43 0.517 . S
C448 C230 0.249 . S
C498 C153 2.756 . S
C483 C4 2.804 . S
C548 C110 1.983 . S
C533 C22 1.976 . S
C598 C242 0.837 . S
C583 C34 0.855 . S
C648 C199 0.716 . S
C633 C48 0.715 . S
C683 C8 2.309 . S
C698 C243 2.301 . S
C748 C159 1.441 . S
C733 C35 1.445 . S
C783 C47 0.540 . S
C798 C122 0.567 . S
C833 C17 2.062 . S
C848 C194 2.202 . S
C898 C114 2.832 1_655 S
C883 C60 2.848 . S
C933 C74 2.481 . S
C948 C163 2.546 . S
C983 C82 0.583 . S
C998 C202 0.604 . S
C1033 C100 0.669 . S
C1048 C239 0.673 . S
C1083 C61 3.325 . S
C1098 C162 3.265 . S
C1148 C119 1.515 . S
C1133 C73 1.498 . S
C1198 C233 1.413 . S
C1183 C87 1.453 . S
C1248 C190 0.565 . S
C1233 C95 0.589 . S
C1283 C56 2.465 . S
C1298 C234 2.516 1_556 S
C1348 C150 1.419 . S
C1333 C86 1.418 . S
C1398 C113 0.536 . S
C1383 C99 0.458 . S
C1433 C69 2.166 . S
C1448 C203 2.275 . S
