# Generated by pormake.
# Topology rtl, (3,6)-cn, num edge types: 1
# Building blocks:
#     Node 0, Type 0, BuildingBlock: QEWDON_clean_linker_0, # of connection points: 3
#     Node 1, Type 0, BuildingBlock: QEWDON_clean_linker_0, # of connection points: 3
#     Node 2, Type 0, BuildingBlock: QEWDON_clean_linker_0, # of connection points: 3
#     Node 3, Type 0, BuildingBlock: QEWDON_clean_linker_0, # of connection points: 3
#     Node 4, Type 1, BuildingBlock: FUNLAD_clean_sbu_0, # of connection points: 6
#     Node 5, Type 1, BuildingBlock: FUNLAD_clean_sbu_0, # of connection points: 6
#     Edge 6, Type (0, 1), BuildingBlock: FUNLAD_clean_linker_1, # of connection points: 2
#     Edge 7, Type (0, 1), BuildingBlock: FUNLAD_clean_linker_1, # of connection points: 2
#     Edge 8, Type (0, 1), BuildingBlock: FUNLAD_clean_linker_1, # of connection points: 2
#     Edge 9, Type (0, 1), BuildingBlock: FUNLAD_clean_linker_1, # of connection points: 2
#     Edge 10, Type (0, 1), BuildingBlock: FUNLAD_clean_linker_1, # of connection points: 2
#     Edge 11, Type (0, 1), BuildingBlock: FUNLAD_clean_linker_1, # of connection points: 2
#     Edge 12, Type (0, 1), BuildingBlock: FUNLAD_clean_linker_1, # of connection points: 2
#     Edge 13, Type (0, 1), BuildingBlock: FUNLAD_clean_linker_1, # of connection points: 2
#     Edge 14, Type (0, 1), BuildingBlock: FUNLAD_clean_linker_1, # of connection points: 2
#     Edge 15, Type (0, 1), BuildingBlock: FUNLAD_clean_linker_1, # of connection points: 2
#     Edge 16, Type (0, 1), BuildingBlock: FUNLAD_clean_linker_1, # of connection points: 2
#     Edge 17, Type (0, 1), BuildingBlock: FUNLAD_clean_linker_1, # of connection points: 2
# Relax obj value: 0.015
# Max RMSD: 0.097
# Mean RMSD: 0.079
data_MOF--net-rtl--node1-FUNLAD_clean_sbu_0--node2-QEWDON_clean_linker_0--edge1-FUNLAD_clean_linker_1
_symmetry_space_group_name_H-M    P1
_symmetry_Int_Tables_number       1
_symmetry_cell_setting            triclinic
loop_
_symmetry_equiv_pos_as_xyz
'x, y, z'
_cell_length_a     43.258843
_cell_length_b     43.681068
_cell_length_c     21.348958
_cell_angle_alpha  91.516298
_cell_angle_beta   92.939624
_cell_angle_gamma 90.177527
loop_
_atom_site_label
_atom_site_type_symbol
_atom_site_fract_x
_atom_site_fract_y
_atom_site_fract_z
_atom_type_partial_charge
H0 H 0.21545 0.85713 0.10348 0.0
C1 C 0.1993 0.8598 0.06347 0.0
C2 C 0.1701 0.87289 0.07203 0.0
C3 C 0.20835 0.85161 0.003 0.0
H4 H 0.12798 0.88862 0.02388 0.0
C5 C 0.14994 0.8772 0.01912 0.0
C6 C 0.15892 0.86967 0.95861 0.0
C7 C 0.18815 0.85671 0.95074 0.0
C8 C 0.24011 0.84081 0.99319 0.0
H9 H 0.19543 0.85091 0.90408 0.0
C10 C 0.24998 0.81171 0.01244 0.0
C11 C 0.27995 0.80128 1.00024 0.0
C12 C 0.26036 0.85959 0.96208 0.0
H13 H 0.25308 0.88202 0.94676 0.0
C14 C 0.29006 0.84954 0.95015 0.0
H15 H 0.23417 0.79702 0.03574 0.0
C16 C 0.2998 0.82057 0.96856 0.0
H17 H 0.32258 0.8132 0.95613 0.0
H18 H 0.30546 0.86407 0.92561 0.0
H19 H 0.70204 0.67754 0.45196 0.0
C20 C 0.69242 0.66969 0.49463 0.0
C21 C 0.66208 0.65795 0.49306 0.0
C22 C 0.71076 0.67001 0.55093 0.0
H23 H 0.6271 0.6372 0.54531 0.0
C24 C 0.64999 0.64739 0.54821 0.0
C25 C 0.66814 0.64719 0.6047 0.0
C26 C 0.69856 0.65846 0.60544 0.0
C27 C 0.74358 0.6798 0.55232 0.0
H28 H 0.71301 0.65788 0.64844 0.0
C29 C 0.75194 0.70988 0.53771 0.0
C30 C 0.78321 0.7193 0.54253 0.0
C31 C 0.76671 0.65901 0.57086 0.0
H32 H 0.76076 0.63576 0.58223 0.0
C33 C 0.79767 0.66803 0.5753 0.0
H34 H 0.73405 0.72609 0.52412 0.0
C35 C 0.80593 0.69794 0.56186 0.0
H36 H 0.83008 0.70423 0.56852 0.0
H37 H 0.81532 0.6519 0.59025 0.0
H38 H 0.83888 0.18697 0.09438 0.0
C39 C 0.85283 0.18423 0.05387 0.0
C40 C 0.88432 0.17653 0.06182 0.0
C41 C 0.8391 0.18724 0.99323 0.0
H42 H 0.92615 0.16625 0.01513 0.0
C43 C 0.90203 0.17282 0.00902 0.0
C44 C 0.88831 0.17436 0.94838 0.0
C45 C 0.85684 0.18195 0.94071 0.0
C46 C 0.80557 0.19298 0.98382 0.0
H47 H 0.84595 0.18355 0.89405 0.0
C48 C 0.79277 0.22155 0.99971 0.0
C49 C 0.76106 0.22737 0.9866 0.0
C50 C 0.7865 0.17 0.95554 0.0
H51 H 0.796 0.14791 0.94276 0.0
C52 C 0.75511 0.17541 0.94295 0.0
H53 H 0.80764 0.23944 0.02077 0.0
C54 C 0.74245 0.20387 0.95773 0.0
H55 H 0.71828 0.20735 0.9447 0.0
H56 H 0.7406 0.15763 0.92057 0.0
H57 H 0.36053 0.30843 0.60008 0.0
C58 C 0.36165 0.32313 0.56011 0.0
C59 C 0.3724 0.35345 0.56894 0.0
C60 C 0.35407 0.31114 0.49947 0.0
H61 H 0.38502 0.39446 0.52139 0.0
C62 C 0.37567 0.3715 0.516 0.0
C63 C 0.36865 0.3596 0.45521 0.0
C64 C 0.35721 0.32965 0.44735 0.0
C65 C 0.34831 0.27799 0.4893 0.0
H66 H 0.35254 0.32006 0.40041 0.0
C67 C 0.32015 0.26422 0.50385 0.0
C68 C 0.31547 0.23244 0.49265 0.0
C69 C 0.37169 0.25999 0.46416 0.0
H70 H 0.39346 0.27026 0.4527 0.0
C71 C 0.36737 0.22861 0.45424 0.0
H72 H 0.3023 0.27822 0.52367 0.0
C73 C 0.33956 0.21491 0.46854 0.0
H74 H 0.33672 0.19047 0.45993 0.0
H75 H 0.38561 0.21485 0.43521 0.0
C76 C 0.04563 0.98226 0.41347 0.0
N77 N 0.06345 0.06819 0.50318 0.0
C78 C 0.09409 0.06113 0.50532 0.0
C79 C 0.11653 0.08427 0.50743 0.0
C80 C 0.10745 0.11522 0.5069 0.0
C81 C 0.07563 0.12174 0.50457 0.0
C82 C 0.05395 0.09785 0.50269 0.0
Zn83 Zn 0.03151 0.03316 0.5029 0.0
C84 C 0.9782 0.04271 0.41146 0.0
N85 N 0.9652 0.95963 0.50362 0.0
C86 C 0.97642 0.93058 0.50448 0.0
C87 C 0.93417 0.96493 0.50189 0.0
C88 C 0.91311 0.94045 0.50081 0.0
C89 C 0.92417 0.91015 0.50172 0.0
C90 C 0.95628 0.90554 0.50347 0.0
Zn91 Zn 0.99655 0.99517 0.50365 0.0
O92 O 0.05587 1.00821 0.43371 0.0
C93 C 0.04977 0.98605 0.59565 0.0
O94 O 0.02084 0.97167 0.43393 0.0
H95 H 0.9257 0.9882 0.50097 0.0
H96 H 0.10121 0.03743 0.50601 0.0
H97 H 1.00112 0.92675 0.50568 0.0
O98 O 0.05829 0.01142 0.57441 0.0
O99 O 0.02454 0.97374 0.57454 0.0
H100 H 0.02949 0.10304 0.50121 0.0
O101 O 0.97282 0.0193 0.57349 0.0
O102 O 1.00658 0.05703 0.5721 0.0
O103 O 0.96929 0.01746 0.43291 0.0
O104 O 1.00388 0.05444 0.43167 0.0
C105 C 0.98235 0.04549 0.5935 0.0
H106 H 0.14054 0.07754 0.51035 0.0
H107 H 0.06755 0.14519 0.50432 0.0
H108 H 0.88865 0.9455 0.49854 0.0
H109 H 0.96584 0.88264 0.50405 0.0
C110 C 0.47541 0.48193 0.94241 0.0
N111 N 0.5626 0.45651 0.02166 0.0
C112 C 0.55185 0.4272 0.02004 0.0
C113 C 0.57235 0.40263 0.01769 0.0
C114 C 0.60435 0.40803 0.01719 0.0
C115 C 0.61483 0.43861 0.01787 0.0
C116 C 0.59345 0.46256 0.02019 0.0
Zn117 Zn 0.53142 0.49171 0.02899 0.0
C118 C 0.54252 0.54211 0.94285 0.0
N119 N 0.46539 0.5643 0.04651 0.0
C120 C 0.43447 0.55874 0.04846 0.0
C121 C 0.47666 0.59343 0.04884 0.0
C122 C 0.45664 0.61832 0.05247 0.0
C123 C 0.42459 0.61346 0.05362 0.0
C124 C 0.41354 0.58306 0.05211 0.0
Zn125 Zn 0.49632 0.52895 0.03865 0.0
O126 O 0.5014 0.47027 0.95882 0.0
C127 C 0.48508 0.47858 0.12471 0.0
O128 O 0.46709 0.50693 0.96817 0.0
H129 H 0.50129 0.59744 0.04739 0.0
H130 H 0.52726 0.42281 0.02118 0.0
H131 H 0.42599 0.53541 0.0468 0.0
O132 O 0.50901 0.46808 0.09968 0.0
O133 O 0.47423 0.50435 0.10828 0.0
H134 H 0.60154 0.48603 0.02127 0.0
O135 O 0.52642 0.55038 0.10892 0.0
O136 O 0.5607 0.51378 0.0989 0.0
O137 O 0.51886 0.55273 0.96859 0.0
O138 O 0.55327 0.51621 0.95873 0.0
C139 C 0.55255 0.53882 0.12459 0.0
H140 H 0.56322 0.37949 0.0169 0.0
H141 H 0.6391 0.44433 0.01649 0.0
H142 H 0.46621 0.6413 0.05373 0.0
H143 H 0.38919 0.57774 0.05353 0.0
H144 H 0.28733 0.19133 0.50762 0.0
C145 C 0.28626 0.21618 0.50525 0.0
H146 H 0.25558 0.25387 0.50207 0.0
H147 H 0.14634 0.1648 0.39935 0.0
H148 H 0.15145 0.19879 0.3125 0.0
H149 H 0.19235 0.23835 0.31592 0.0
H150 H 0.22847 0.24412 0.40617 0.0
C151 C 0.25833 0.22945 0.50845 0.0
C152 C 0.23008 0.20988 0.51186 0.0
C153 C 0.20855 0.20743 0.45954 0.0
C154 C 0.18478 0.18472 0.45774 0.0
C155 C 0.16451 0.1819 0.40367 0.0
C156 C 0.16724 0.20121 0.35334 0.0
C157 C 0.19029 0.22347 0.35525 0.0
C158 C 0.21086 0.22655 0.40742 0.0
H159 H 0.12103 0.16426 0.51662 0.0
C160 C 0.13004 0.14125 0.50986 0.0
H161 H 0.17111 0.11583 0.49695 0.0
H162 H 0.26339 0.21271 0.6242 0.0
H163 H 0.2573 0.17978 0.7127 0.0
H164 H 0.21689 0.13968 0.70873 0.0
H165 H 0.18216 0.13241 0.61648 0.0
C166 C 0.16072 0.13811 0.50367 0.0
C167 C 0.18238 0.16477 0.50865 0.0
C168 C 0.20259 0.16863 0.56267 0.0
C169 C 0.22623 0.19141 0.56458 0.0
C170 C 0.24563 0.19517 0.61969 0.0
C171 C 0.24223 0.17659 0.67095 0.0
C172 C 0.21946 0.15403 0.66874 0.0
C173 C 0.19976 0.15003 0.61543 0.0
H174 H 0.27105 0.75269 0.02235 0.0
C175 C 0.2892 0.76953 0.01676 0.0
H176 H 0.33761 0.77728 0.0229 0.0
H177 H 0.37924 0.66053 0.1666 0.0
H178 H 0.38141 0.69784 0.2531 0.0
H179 H 0.35915 0.74937 0.24008 0.0
H180 H 0.3344 0.76383 0.14058 0.0
C181 C 0.31896 0.76063 0.02328 0.0
C182 C 0.32813 0.72823 0.03349 0.0
C183 C 0.34261 0.72014 0.09174 0.0
C184 C 0.35583 0.69058 0.099 0.0
C185 C 0.36959 0.68295 0.15811 0.0
C186 C 0.37078 0.70407 0.20824 0.0
C187 C 0.35823 0.73307 0.20092 0.0
C188 C 0.34421 0.74112 0.14351 0.0
H189 H 0.41536 0.66319 0.05833 0.0
C190 C 0.40409 0.64084 0.05549 0.0
H191 H 0.36019 0.61879 0.04605 0.0
H192 H 0.30123 0.73574 0.91562 0.0
H193 H 0.29766 0.69787 0.83071 0.0
H194 H 0.31992 0.64639 0.84397 0.0
H195 H 0.34608 0.63258 0.94226 0.0
C196 C 0.3729 0.64017 0.05154 0.0
C197 C 0.35502 0.66929 0.04759 0.0
C198 C 0.33882 0.67666 0.99057 0.0
C199 C 0.32561 0.70626 0.98324 0.0
C200 C 0.31108 0.71348 0.92452 0.0
C201 C 0.30899 0.69196 0.87513 0.0
C202 C 0.32154 0.66299 0.88257 0.0
C203 C 0.33646 0.65536 0.93934 0.0
H204 H 0.77301 0.76891 0.5336 0.0
C205 C 0.79127 0.75192 0.53153 0.0
H206 H 0.83845 0.7449 0.51356 0.0
H207 H 0.87035 0.86707 0.38882 0.0
H208 H 0.86549 0.83313 0.2969 0.0
H209 H 0.84357 0.78119 0.30377 0.0
H210 H 0.82621 0.76291 0.40254 0.0
C211 C 0.8202 0.76137 0.52093 0.0
C212 C 0.82871 0.79425 0.51524 0.0
C213 C 0.83874 0.80463 0.45725 0.0
C214 C 0.85169 0.83446 0.45341 0.0
C215 C 0.86106 0.84435 0.39464 0.0
C216 C 0.8582 0.82519 0.34144 0.0
C217 C 0.84583 0.79595 0.3453 0.0
C218 C 0.8361 0.78569 0.40234 0.0
H219 H 0.91455 0.86042 0.49437 0.0
C220 C 0.90358 0.88265 0.49997 0.0
H221 H 0.86063 0.9043 0.5154 0.0
H222 H 0.81133 0.78209 0.63412 0.0
H223 H 0.81449 0.81677 0.72446 0.0
H224 H 0.83577 0.86891 0.71684 0.0
H225 H 0.85427 0.88654 0.61867 0.0
C226 C 0.87277 0.88309 0.50649 0.0
C227 C 0.85499 0.85378 0.5078 0.0
C228 C 0.84312 0.84421 0.56482 0.0
C229 C 0.83031 0.81427 0.56886 0.0
C230 C 0.82046 0.80475 0.62758 0.0
C231 C 0.82231 0.82441 0.68009 0.0
C232 C 0.83433 0.85375 0.67583 0.0
C233 C 0.84482 0.86359 0.61913 0.0
H234 H 0.76507 0.27734 0.00818 0.0
C235 C 0.74862 0.25863 0.99969 0.0
H236 H 0.70103 0.24674 0.99671 0.0
H237 H 0.64723 0.36091 0.13229 0.0
H238 H 0.64538 0.32362 0.2143 0.0
H239 H 0.67143 0.27371 0.20378 0.0
H240 H 0.6996 0.26084 0.11132 0.0
C241 C 0.71814 0.26496 1.00017 0.0
C242 C 0.70606 0.29661 0.00952 0.0
C243 C 0.68967 0.30381 0.0638 0.0
C244 C 0.67442 0.33249 0.06966 0.0
C245 C 0.65864 0.33921 0.12484 0.0
C246 C 0.65756 0.31809 0.17245 0.0
C247 C 0.67224 0.29 0.16654 0.0
C248 C 0.68821 0.28285 0.11307 0.0
H249 H 0.61473 0.35857 0.00922 0.0
C250 C 0.62544 0.38108 0.01574 0.0
H251 H 0.66879 0.40402 0.02963 0.0
H252 H 0.73516 0.29039 0.89846 0.0
H253 H 0.73836 0.32844 0.8187 0.0
H254 H 0.71322 0.37871 0.8307 0.0
H255 H 0.68443 0.39107 0.92256 0.0
C256 C 0.65654 0.38241 0.02341 0.0
C257 C 0.67531 0.35385 0.0209 0.0
C258 C 0.69306 0.34737 0.96819 0.0
C259 C 0.70812 0.31857 0.96198 0.0
C260 C 0.72406 0.31213 0.90684 0.0
C261 C 0.72592 0.33374 0.86033 0.0
C262 C 0.71173 0.36202 0.86704 0.0
C263 C 0.69531 0.36883 0.92004 0.0
H264 H 0.18185 0.89344 0.16649 0.0
C265 C 0.16273 0.88592 0.13467 0.0
H266 H 0.11392 0.88349 0.12101 0.0
H267 H 0.10694 0.9243 0.41459 0.0
H268 H 0.12147 0.87174 0.43547 0.0
H269 H 0.13836 0.83727 0.35047 0.0
H270 H 0.14111 0.85527 0.24409 0.0
C271 C 0.13355 0.89137 0.15085 0.0
C272 C 0.12667 0.91255 0.20385 0.0
C273 C 0.12508 0.90165 0.26543 0.0
C274 C 0.11469 0.92135 0.31409 0.0
C275 C 0.11384 0.91006 0.37554 0.0
C276 C 0.12231 0.88 0.38822 0.0
C277 C 0.13187 0.86061 0.34037 0.0
C278 C 0.13331 0.87119 0.27957 0.0
H279 H 0.05086 0.94298 0.34834 0.0
C280 C 0.06212 0.9638 0.36717 0.0
H281 H 0.10187 0.99203 0.36601 0.0
H282 H 0.12966 0.94136 0.09186 0.0
H283 H 0.11589 0.99404 0.07126 0.0
H284 H 0.09734 0.02806 0.15536 0.0
H285 H 0.09245 1.00956 0.26057 0.0
C286 C 0.09037 0.97109 0.34873 0.0
C287 C 0.10537 0.95172 0.30061 0.0
C288 C 0.10863 0.9631 0.23976 0.0
C289 C 0.11919 0.94345 0.19125 0.0
C290 C 0.12163 0.95522 0.13046 0.0
C291 C 0.11384 0.98545 0.11798 0.0
C292 C 0.10342 1.0046 0.16533 0.0
C293 C 0.10073 0.99368 0.22554 0.0
H294 H 0.67449 0.62367 0.69518 0.0
C295 C 0.65716 0.63227 0.66143 0.0
H296 H 0.60901 0.63648 0.63976 0.0
H297 H 0.56927 0.51676 0.7705 0.0
H298 H 0.56355 0.50068 0.66087 0.0
H299 H 0.58261 0.5332 0.57824 0.0
H300 H 0.60738 0.58207 0.60462 0.0
C301 C 0.62704 0.62786 0.6717 0.0
C302 C 0.61712 0.60792 0.72246 0.0
C303 C 0.60305 0.57922 0.7062 0.0
C304 C 0.59238 0.56029 0.75384 0.0
C305 C 0.57801 0.53195 0.73622 0.0
C306 C 0.57457 0.52243 0.67345 0.0
C307 C 0.58528 0.54075 0.62693 0.0
C308 C 0.59939 0.56881 0.64278 0.0
H309 H 0.54675 0.58222 0.88353 0.0
C310 C 0.55715 0.56034 0.89534 0.0
H311 H 0.59285 0.529 0.87633 0.0
H312 H 0.64166 0.66221 0.76954 0.0
H313 H 0.64873 0.67755 0.8794 0.0
H314 H 0.63259 0.64353 0.96233 0.0
H315 H 0.60893 0.59413 0.9358 0.0
C316 C 0.58257 0.55116 0.86671 0.0
C317 C 0.59575 0.57011 0.81761 0.0
C318 C 0.61057 0.59844 0.83404 0.0
C319 C 0.62085 0.61759 0.78633 0.0
C320 C 0.63425 0.64637 0.80391 0.0
C321 C 0.63832 0.65552 0.86682 0.0
C322 C 0.62916 0.63641 0.9135 0.0
C323 C 0.61546 0.60817 0.8976 0.0
H324 H 0.92372 0.17349 0.13112 0.0
C325 C 0.89907 0.16885 0.12346 0.0
H326 H 0.86156 0.14281 0.1535 0.0
H327 H 0.97472 0.05425 0.24419 0.0
H328 H 0.96822 0.03569 0.13638 0.0
H329 H 0.93202 0.06093 0.06126 0.0
H330 H 0.90239 0.1051 0.09344 0.0
C331 C 0.88547 0.15001 0.16254 0.0
C332 C 0.90474 0.13321 0.20991 0.0
C333 C 0.92095 0.10661 0.191 0.0
C334 C 0.94105 0.09146 0.23482 0.0
C335 C 0.95827 0.06601 0.21362 0.0
C336 C 0.95494 0.05522 0.15164 0.0
C337 C 0.93463 0.06947 0.10932 0.0
C338 C 0.9178 0.09488 0.12844 0.0
H339 H 0.9376 0.04655 0.34516 0.0
C340 C 0.95837 0.0583 0.36401 0.0
H341 H 0.98481 0.09909 0.36498 0.0
H342 H 0.87651 0.18302 0.26102 0.0
H343 H 0.88226 0.20137 0.36953 0.0
H344 H 0.91608 0.17445 0.44645 0.0
H345 H 0.94443 0.1291 0.41562 0.0
C346 C 0.96488 0.08651 0.34453 0.0
C347 C 0.94405 0.10231 0.2981 0.0
C348 C 0.92755 0.12872 0.31708 0.0
C349 C 0.90788 0.14418 0.27287 0.0
C350 C 0.89173 0.17049 0.29289 0.0
C351 C 0.89479 0.18121 0.35495 0.0
C352 C 0.91384 0.16605 0.39828 0.0
C353 C 0.93005 0.14008 0.3799 0.0
H354 H 0.39326 0.34758 0.66495 0.0
C355 C 0.38424 0.36447 0.63233 0.0
H356 H 0.37713 0.41173 0.61783 0.0
H357 H 0.41943 0.41558 0.92109 0.0
H358 H 0.37082 0.38961 0.93652 0.0
H359 H 0.33751 0.37111 0.84598 0.0
H360 H 0.35275 0.37821 0.73943 0.0
C361 C 0.38644 0.39439 0.64894 0.0
C362 C 0.40605 0.40534 0.70441 0.0
C363 C 0.39654 0.40141 0.76626 0.0
C364 C 0.41539 0.41277 0.81846 0.0
C365 C 0.4057 0.40797 0.87979 0.0
C366 C 0.3779 0.39301 0.8893 0.0
C367 C 0.35918 0.38254 0.83831 0.0
C368 C 0.36825 0.38666 0.7774 0.0
H369 H 0.43322 0.47814 0.87989 0.0
C370 C 0.45501 0.4671 0.89295 0.0
H371 H 0.48508 0.43038 0.8735 0.0
H372 H 0.43145 0.41627 0.59194 0.0
H373 H 0.47952 0.44302 0.57671 0.0
H374 H 0.51167 0.46344 0.6672 0.0
H375 H 0.49592 0.45715 0.77351 0.0
C376 C 0.46292 0.44117 0.86259 0.0
C377 C 0.4434 0.42848 0.80858 0.0
C378 C 0.45297 0.43227 0.74677 0.0
C379 C 0.43427 0.42075 0.69464 0.0
C380 C 0.4445 0.42483 0.63335 0.0
C381 C 0.47213 0.44009 0.62388 0.0
C382 C 0.49024 0.45155 0.67481 0.0
C383 C 0.48092 0.44775 0.73561 0.0
H384 H 0.61811 0.65565 0.43626 0.0
C385 C 0.64307 0.6533 0.43399 0.0
H386 H 0.67884 0.63458 0.38113 0.0
H387 H 0.55706 0.5496 0.29257 0.0
H388 H 0.56503 0.52822 0.39571 0.0
H389 H 0.60507 0.54937 0.47137 0.0
H390 H 0.63687 0.59232 0.44478 0.0
C391 C 0.65421 0.63891 0.38361 0.0
C392 C 0.63265 0.62406 0.33525 0.0
C393 C 0.61534 0.59783 0.3505 0.0
C394 C 0.59335 0.58465 0.3058 0.0
C395 C 0.57499 0.55974 0.32371 0.0
C396 C 0.57918 0.54734 0.38298 0.0
C397 C 0.60162 0.55932 0.42565 0.0
C398 C 0.61958 0.58419 0.40986 0.0
H399 H 0.59443 0.54195 0.18779 0.0
C400 C 0.57358 0.55403 0.17233 0.0
H401 H 0.54801 0.59502 0.17996 0.0
H402 H 0.66281 0.67331 0.29067 0.0
H403 H 0.65636 0.6935 0.18582 0.0
H404 H 0.61966 0.66946 0.1068 0.0
H405 H 0.58901 0.62524 0.13213 0.0
C406 C 0.568 0.58202 0.19675 0.0
C407 C 0.58989 0.59666 0.24476 0.0
C408 C 0.60763 0.62248 0.22915 0.0
C409 C 0.62902 0.6362 0.2745 0.0
C410 C 0.64635 0.662 0.25781 0.0
C411 C 0.64287 0.67379 0.19786 0.0
C412 C 0.62219 0.66026 0.15337 0.0
C413 C 0.60472 0.63491 0.16854 0.0
H414 H 0.9321 0.16811 0.90058 0.0
C415 C 0.90711 0.16533 0.89481 0.0
H416 H 0.8706 0.14498 0.83805 0.0
H417 H 0.94901 0.13299 0.59513 0.0
H418 H 0.91655 0.17617 0.56663 0.0
H419 H 0.8836 0.201 0.64389 0.0
H420 H 0.88282 0.18273 0.75027 0.0
C421 C 0.8953 0.14928 0.84453 0.0
C422 C 0.91587 0.1348 0.7986 0.0
C423 C 0.91623 0.14587 0.73688 0.0
C424 C 0.93543 0.13171 0.69249 0.0
C425 C 0.93504 0.14302 0.63088 0.0
C426 C 0.9165 0.16777 0.61386 0.0
C427 C 0.89793 0.18175 0.65737 0.0
C428 C 0.89769 0.17103 0.71823 0.0
H429 H 0.94539 0.05051 0.66021 0.0
C430 C 0.96509 0.06202 0.64143 0.0
H431 H 0.99153 0.10287 0.64243 0.0
H432 H 0.91873 0.10586 0.91156 0.0
H433 H 0.9528 0.06426 0.94132 0.0
H434 H 0.98884 0.04221 0.86659 0.0
H435 H 0.99056 0.06135 0.76125 0.0
C436 C 0.97268 0.09049 0.66225 0.0
C437 C 0.95419 0.10647 0.70997 0.0
C438 C 0.95446 0.09589 0.77225 0.0
C439 C 0.93473 0.10957 0.8162 0.0
C440 C 0.93413 0.09727 0.87693 0.0
C441 C 0.95344 0.07319 0.89458 0.0
C442 C 0.97365 0.06071 0.85245 0.0
C443 C 0.97425 0.07181 0.79196 0.0
H444 H 0.35945 0.37567 0.35822 0.0
C445 C 0.37529 0.37751 0.39936 0.0
H446 H 0.41786 0.3952 0.43753 0.0
H447 H 0.43092 0.41544 0.13208 0.0
H448 H 0.42474 0.36044 0.11821 0.0
H449 H 0.41307 0.3284 0.20753 0.0
H450 H 0.4066 0.3512 0.31053 0.0
C451 C 0.40153 0.394 0.3971 0.0
C452 C 0.4089 0.41265 0.34235 0.0
C453 C 0.41412 0.39856 0.28313 0.0
C454 C 0.42289 0.41676 0.23258 0.0
C455 C 0.42589 0.40249 0.17285 0.0
C456 C 0.42215 0.37097 0.16411 0.0
C457 C 0.41543 0.35296 0.21431 0.0
C458 C 0.41151 0.36643 0.27322 0.0
H459 H 0.48293 0.44089 0.19076 0.0
C460 C 0.47041 0.46056 0.1725 0.0
H461 H 0.42955 0.48677 0.17545 0.0
H462 H 0.39862 0.44719 0.44822 0.0
H463 H 0.40666 0.5019 0.4627 0.0
H464 H 0.42508 0.53286 0.377 0.0
H465 H 0.43532 0.50934 0.27616 0.0
C466 C 0.44219 0.467 0.19279 0.0
C467 C 0.42859 0.4486 0.24249 0.0
C468 C 0.42275 0.46274 0.3012 0.0
C469 C 0.4127 0.44478 0.35099 0.0
C470 C 0.40681 0.45958 0.40905 0.0
C471 C 0.41123 0.49102 0.41799 0.0
C472 C 0.42156 0.50845 0.36972 0.0
C473 C 0.42732 0.49462 0.31197 0.0
H474 H 0.11311 0.87809 0.91186 0.0
C475 C 0.13785 0.87784 0.9048 0.0
H476 H 0.17261 0.89085 0.84433 0.0
H477 H 0.08189 0.89833 0.60225 0.0
H478 H 0.11132 0.85298 0.57614 0.0
H479 H 0.14749 0.83006 0.65463 0.0
H480 H 0.15468 0.85254 0.75962 0.0
C481 C 0.14804 0.88979 0.85225 0.0
C482 C 0.12609 0.90364 0.8051 0.0
C483 C 0.12193 0.89005 0.74424 0.0
C484 C 0.10076 0.90304 0.69925 0.0
C485 C 0.09742 0.88925 0.63846 0.0
C486 C 0.11419 0.86322 0.62282 0.0
C487 C 0.13458 0.85033 0.667 0.0
C488 C 0.1385 0.86348 0.72707 0.0
H489 H 0.09024 0.9834 0.66217 0.0
C490 C 0.06944 0.97133 0.64441 0.0
H491 H 0.04271 0.93089 0.64833 0.0
H492 H 0.13154 0.93819 0.91474 0.0
H493 H 0.10062 0.98215 0.94218 0.0
H494 H 0.06057 1.00182 0.86737 0.0
H495 H 0.05176 0.97795 0.76418 0.0
C496 C 0.06274 0.94384 0.66712 0.0
C497 C 0.08373 0.92954 0.71533 0.0
C498 C 0.08748 0.94284 0.77661 0.0
C499 C 0.10934 0.93045 0.82094 0.0
C500 C 0.11418 0.94558 0.88023 0.0
C501 C 0.09675 0.97107 0.89647 0.0
C502 C 0.07431 0.98221 0.85428 0.0
C503 C 0.06964 0.96839 0.795 0.0
loop_
_geom_bond_atom_site_label_1
_geom_bond_atom_site_label_2
_geom_bond_distance
_geom_bond_site_symmetry_2
_ccdc_geom_bond_type
H0 C1 0.949 . S
C1 H0 0.949 . S
C1 C2 1.395 . S
C1 C3 1.391 1_554 S
C2 C1 1.395 . S
C2 C5 1.390 . S
C3 C1 1.391 1_556 S
C3 C7 1.387 . S
C3 C8 1.491 . S
H4 C5 0.950 . S
C5 C2 1.390 . S
C5 H4 0.950 . S
C5 C6 1.378 1_554 S
C6 C5 1.378 1_556 S
C6 C7 1.409 . S
C7 C3 1.387 . S
C7 C6 1.409 . S
C7 H9 0.951 . S
C8 C3 1.491 . S
C8 C10 1.382 1_556 S
C8 C12 1.404 . S
H9 C7 0.951 . S
C10 C8 1.382 1_554 S
C10 C11 1.390 . S
C10 H15 0.949 . S
C11 C10 1.390 . S
C11 C16 1.399 1_554 S
C12 C8 1.404 . S
C12 H13 0.950 . S
C12 C14 1.375 . S
H13 C12 0.950 . S
C14 C12 1.375 . S
C14 C16 1.382 . S
C14 H18 0.950 . S
H15 C10 0.949 . S
C16 C11 1.399 1_556 S
C16 C14 1.382 . S
C16 H17 0.952 . S
H17 C16 0.952 . S
H18 C14 0.950 . S
H19 C20 0.949 . S
C20 H19 0.949 . S
C20 C21 1.395 . S
C20 C22 1.391 . S
C21 C20 1.395 . S
C21 C24 1.390 . S
C22 C20 1.391 . S
C22 C26 1.387 . S
C22 C27 1.491 . S
H23 C24 0.950 . S
C24 C21 1.390 . S
C24 H23 0.950 . S
C24 C25 1.378 . S
C25 C24 1.378 . S
C25 C26 1.409 . S
C26 C22 1.387 . S
C26 C25 1.409 . S
C26 H28 0.951 . S
C27 C22 1.491 . S
C27 C29 1.382 . S
C27 C31 1.404 . S
H28 C26 0.951 . S
C29 C27 1.382 . S
C29 C30 1.390 . S
C29 H34 0.949 . S
C30 C29 1.390 . S
C30 C35 1.399 . S
C31 C27 1.404 . S
C31 H32 0.950 . S
C31 C33 1.375 . S
H32 C31 0.950 . S
C33 C31 1.375 . S
C33 C35 1.382 . S
C33 H37 0.950 . S
H34 C29 0.949 . S
C35 C30 1.399 . S
C35 C33 1.382 . S
C35 H36 0.952 . S
H36 C35 0.952 . S
H37 C33 0.950 . S
H38 C39 0.949 . S
C39 H38 0.949 . S
C39 C40 1.395 . S
C39 C41 1.391 1_554 S
C40 C39 1.395 . S
C40 C43 1.390 . S
C41 C39 1.391 1_556 S
C41 C45 1.387 . S
C41 C46 1.491 . S
H42 C43 0.950 . S
C43 C40 1.390 . S
C43 H42 0.950 . S
C43 C44 1.378 1_554 S
C44 C43 1.378 1_556 S
C44 C45 1.409 . S
C45 C41 1.387 . S
C45 C44 1.409 . S
C45 H47 0.951 . S
C46 C41 1.491 . S
C46 C48 1.382 1_556 S
C46 C50 1.404 . S
H47 C45 0.951 . S
C48 C46 1.382 1_554 S
C48 C49 1.390 . S
C48 H53 0.949 . S
C49 C48 1.390 . S
C49 C54 1.399 1_554 S
C50 C46 1.404 . S
C50 H51 0.950 . S
C50 C52 1.375 . S
H51 C50 0.950 . S
C52 C50 1.375 . S
C52 C54 1.382 . S
C52 H56 0.950 . S
H53 C48 0.949 . S
C54 C49 1.399 1_556 S
C54 C52 1.382 . S
C54 H55 0.952 . S
H55 C54 0.952 . S
H56 C52 0.950 . S
H57 C58 0.949 . S
C58 H57 0.949 . S
C58 C59 1.395 . S
C58 C60 1.391 . S
C59 C58 1.395 . S
C59 C62 1.390 . S
C60 C58 1.391 . S
C60 C64 1.387 . S
C60 C65 1.491 . S
H61 C62 0.950 . S
C62 C59 1.390 . S
C62 H61 0.950 . S
C62 C63 1.378 . S
C63 C62 1.378 . S
C63 C64 1.409 . S
C64 C60 1.387 . S
C64 C63 1.409 . S
C64 H66 0.951 . S
C65 C60 1.491 . S
C65 C67 1.382 . S
C65 C69 1.404 . S
H66 C64 0.951 . S
C67 C65 1.382 . S
C67 C68 1.390 . S
C67 H72 0.949 . S
C68 C67 1.390 . S
C68 C73 1.399 . S
C69 C65 1.404 . S
C69 H70 0.950 . S
C69 C71 1.375 . S
H70 C69 0.950 . S
C71 C69 1.375 . S
C71 C73 1.382 . S
C71 H75 0.950 . S
H72 C67 0.949 . S
C73 C68 1.399 . S
C73 C71 1.382 . S
C73 H74 0.952 . S
H74 C73 0.952 . S
H75 C71 0.950 . S
C76 O92 1.280 . S
C76 O94 1.254 . S
N77 C78 1.333 . S
N77 C82 1.307 . S
N77 Zn83 2.020 . S
C78 N77 1.333 . S
C78 C79 1.379 . S
C78 H96 0.952 . S
C79 C78 1.379 . S
C79 C80 1.390 . S
C79 H106 0.949 . S
C80 C79 1.390 . S
C80 C81 1.357 . S
C81 C80 1.357 . S
C81 C82 1.370 . S
C81 H107 0.950 . S
C82 N77 1.307 . S
C82 C81 1.370 . S
C82 H100 0.948 . S
Zn83 N77 2.020 . S
Zn83 O92 2.020 1_545 S
Zn83 O98 2.034 1_545 S
Zn83 O102 2.025 1_455 S
Zn83 O104 2.024 1_455 S
C84 O103 1.246 . S
C84 O104 1.249 . S
N85 C86 1.307 . S
N85 C87 1.333 . S
N85 Zn91 2.020 . S
C86 N85 1.307 . S
C86 C90 1.370 . S
C86 H97 0.948 . S
C87 N85 1.333 . S
C87 C88 1.379 . S
C87 H95 0.952 . S
C88 C87 1.379 . S
C88 C89 1.390 . S
C88 H108 0.949 . S
C89 C88 1.390 . S
C89 C90 1.357 . S
C90 C86 1.370 . S
C90 C89 1.357 . S
C90 H109 0.950 . S
Zn91 N85 2.020 . S
Zn91 O94 2.025 1_655 S
Zn91 O99 2.024 1_655 S
Zn91 O101 2.039 1_565 S
Zn91 O103 2.034 1_565 S
O92 C76 1.280 . S
O92 Zn83 2.020 1_565 S
C93 O98 1.246 . S
C93 O99 1.249 . S
O94 C76 1.254 . S
O94 Zn91 2.025 1_455 S
H95 C87 0.952 . S
H96 C78 0.952 . S
H97 C86 0.948 . S
O98 Zn83 2.034 1_565 S
O98 C93 1.246 . S
O99 Zn91 2.024 1_455 S
O99 C93 1.249 . S
H100 C82 0.948 . S
O101 Zn91 2.039 1_545 S
O101 C105 1.251 . S
O102 Zn83 2.025 1_655 S
O102 C105 1.254 . S
O103 C84 1.246 . S
O103 Zn91 2.034 1_545 S
O104 Zn83 2.024 1_655 S
O104 C84 1.249 . S
C105 O101 1.251 . S
C105 O102 1.254 . S
H106 C79 0.949 . S
H107 C81 0.950 . S
H108 C88 0.949 . S
H109 C90 0.950 . S
C110 O126 1.251 . S
C110 O128 1.254 . S
N111 C112 1.333 . S
N111 C116 1.307 . S
N111 Zn117 2.020 . S
C112 N111 1.333 . S
C112 C113 1.379 . S
C112 H130 0.952 1_554 S
C113 C112 1.379 . S
C113 C114 1.390 . S
C113 H140 0.949 1_554 S
C114 C113 1.390 . S
C114 C115 1.357 . S
C115 C114 1.357 . S
C115 C116 1.370 . S
C115 H141 0.950 . S
C116 N111 1.307 . S
C116 C115 1.370 . S
C116 H134 0.948 . S
Zn117 N111 2.020 . S
Zn117 O126 2.039 1_554 S
Zn117 O132 2.034 . S
Zn117 O136 2.025 . S
Zn117 O138 2.024 1_554 S
C118 O137 1.246 . S
C118 O138 1.249 . S
N119 C120 1.307 . S
N119 C121 1.333 . S
N119 Zn125 2.020 . S
C120 N119 1.307 . S
C120 C124 1.370 . S
C120 H131 0.950 . S
C121 N119 1.333 . S
C121 C122 1.379 . S
C121 H129 0.952 . S
C122 C121 1.379 . S
C122 C123 1.390 . S
C122 H142 0.949 . S
C123 C122 1.390 . S
C123 C124 1.357 . S
C124 C120 1.370 . S
C124 C123 1.357 . S
C124 H143 0.950 . S
Zn125 N119 2.020 . S
Zn125 O128 2.025 1_554 S
Zn125 O133 2.024 . S
Zn125 O135 2.039 . S
Zn125 O137 2.034 1_554 S
O126 C110 1.251 . S
O126 Zn117 2.039 1_556 S
C127 O132 1.246 . S
C127 O133 1.249 . S
O128 C110 1.254 . S
O128 Zn125 2.025 1_556 S
H129 C121 0.952 . S
H130 C112 0.952 1_556 S
H131 C120 0.950 . S
O132 Zn117 2.034 . S
O132 C127 1.246 . S
O133 Zn125 2.024 . S
O133 C127 1.249 . S
H134 C116 0.948 . S
O135 Zn125 2.039 . S
O135 C139 1.251 . S
O136 Zn117 2.025 . S
O136 C139 1.254 . S
O137 C118 1.246 . S
O137 Zn125 2.034 1_556 S
O138 Zn117 2.024 1_556 S
O138 C118 1.249 . S
C139 O135 1.251 . S
C139 O136 1.254 . S
H140 C113 0.949 1_556 S
H141 C115 0.950 . S
H142 C122 0.949 . S
H143 C124 0.950 . S
H144 C145 0.951 . S
C145 H144 0.951 . S
C145 C151 1.265 . S
H146 C151 0.950 . S
H147 C155 0.949 . S
H148 C156 0.950 . S
H149 C157 0.951 . S
H150 C158 0.951 . S
C151 C145 1.265 . S
C151 H146 0.950 . S
C151 C152 1.478 . S
C152 C151 1.478 . S
C152 C153 1.397 . S
C152 C169 1.394 . S
C153 C152 1.397 . S
C153 C154 1.438 . S
C153 C158 1.429 . S
C154 C153 1.438 . S
C154 C155 1.428 . S
C154 C167 1.394 . S
C155 H147 0.949 . S
C155 C154 1.428 . S
C155 C156 1.345 . S
C156 H148 0.950 . S
C156 C155 1.345 . S
C156 C157 1.424 . S
C157 H149 0.951 . S
C157 C156 1.424 . S
C157 C158 1.347 . S
C158 H150 0.951 . S
C158 C153 1.429 . S
C158 C157 1.347 . S
H159 C160 0.951 . S
C160 H159 0.951 . S
C160 C166 1.265 . S
H161 C166 0.950 . S
H162 C170 0.949 . S
H163 C171 0.950 . S
H164 C172 0.951 . S
H165 C173 0.951 . S
C166 C160 1.265 . S
C166 H161 0.950 . S
C166 C167 1.478 . S
C167 C154 1.394 . S
C167 C166 1.478 . S
C167 C168 1.397 . S
C168 C167 1.397 . S
C168 C169 1.438 . S
C168 C173 1.429 . S
C169 C152 1.394 . S
C169 C168 1.438 . S
C169 C170 1.428 . S
C170 H162 0.949 . S
C170 C169 1.428 . S
C170 C171 1.345 . S
C171 H163 0.950 . S
C171 C170 1.345 . S
C171 C172 1.424 . S
C172 H164 0.951 . S
C172 C171 1.424 . S
C172 C173 1.347 . S
C173 H165 0.951 . S
C173 C168 1.429 . S
C173 C172 1.347 . S
H174 C175 0.951 . S
C175 H174 0.951 . S
C175 C181 1.265 . S
H176 C181 0.950 . S
H177 C185 0.949 . S
H178 C186 0.950 . S
H179 C187 0.951 . S
H180 C188 0.951 . S
C181 C175 1.265 . S
C181 H176 0.950 . S
C181 C182 1.478 . S
C182 C181 1.478 . S
C182 C183 1.397 . S
C182 C199 1.394 1_554 S
C183 C182 1.397 . S
C183 C184 1.438 . S
C183 C188 1.429 . S
C184 C183 1.438 . S
C184 C185 1.428 . S
C184 C197 1.394 . S
C185 H177 0.949 . S
C185 C184 1.428 . S
C185 C186 1.345 . S
C186 H178 0.950 . S
C186 C185 1.345 . S
C186 C187 1.424 . S
C187 H179 0.951 . S
C187 C186 1.424 . S
C187 C188 1.347 . S
C188 H180 0.951 . S
C188 C183 1.429 . S
C188 C187 1.347 . S
H189 C190 0.951 . S
C190 H189 0.951 . S
C190 C196 1.265 . S
H191 C196 0.950 . S
H192 C200 0.949 . S
H193 C201 0.950 . S
H194 C202 0.951 . S
H195 C203 0.951 . S
C196 C190 1.265 . S
C196 H191 0.950 . S
C196 C197 1.478 . S
C197 C184 1.394 . S
C197 C196 1.478 . S
C197 C198 1.397 1_554 S
C198 C197 1.397 1_556 S
C198 C199 1.438 . S
C198 C203 1.429 . S
C199 C182 1.394 1_556 S
C199 C198 1.438 . S
C199 C200 1.428 . S
C200 H192 0.949 . S
C200 C199 1.428 . S
C200 C201 1.345 . S
C201 H193 0.950 . S
C201 C200 1.345 . S
C201 C202 1.424 . S
C202 H194 0.951 . S
C202 C201 1.424 . S
C202 C203 1.347 . S
C203 H195 0.951 . S
C203 C198 1.429 . S
C203 C202 1.347 . S
H204 C205 0.951 . S
C205 H204 0.951 . S
C205 C211 1.265 . S
H206 C211 0.950 . S
H207 C215 0.949 . S
H208 C216 0.950 . S
H209 C217 0.951 . S
H210 C218 0.951 . S
C211 C205 1.265 . S
C211 H206 0.950 . S
C211 C212 1.478 . S
C212 C211 1.478 . S
C212 C213 1.397 . S
C212 C229 1.394 . S
C213 C212 1.397 . S
C213 C214 1.438 . S
C213 C218 1.429 . S
C214 C213 1.438 . S
C214 C215 1.428 . S
C214 C227 1.394 . S
C215 H207 0.949 . S
C215 C214 1.428 . S
C215 C216 1.345 . S
C216 H208 0.950 . S
C216 C215 1.345 . S
C216 C217 1.424 . S
C217 H209 0.951 . S
C217 C216 1.424 . S
C217 C218 1.347 . S
C218 H210 0.951 . S
C218 C213 1.429 . S
C218 C217 1.347 . S
H219 C220 0.951 . S
C220 H219 0.951 . S
C220 C226 1.265 . S
H221 C226 0.950 . S
H222 C230 0.949 . S
H223 C231 0.950 . S
H224 C232 0.951 . S
H225 C233 0.951 . S
C226 C220 1.265 . S
C226 H221 0.950 . S
C226 C227 1.478 . S
C227 C214 1.394 . S
C227 C226 1.478 . S
C227 C228 1.397 . S
C228 C227 1.397 . S
C228 C229 1.438 . S
C228 C233 1.429 . S
C229 C212 1.394 . S
C229 C228 1.438 . S
C229 C230 1.428 . S
C230 H222 0.949 . S
C230 C229 1.428 . S
C230 C231 1.345 . S
C231 H223 0.950 . S
C231 C230 1.345 . S
C231 C232 1.424 . S
C232 H224 0.951 . S
C232 C231 1.424 . S
C232 C233 1.347 . S
C233 H225 0.951 . S
C233 C228 1.429 . S
C233 C232 1.347 . S
H234 C235 0.951 . S
C235 H234 0.951 . S
C235 C241 1.265 . S
H236 C241 0.950 . S
H237 C245 0.949 . S
H238 C246 0.950 . S
H239 C247 0.951 . S
H240 C248 0.951 . S
C241 C235 1.265 . S
C241 H236 0.950 . S
C241 C242 1.478 . S
C242 C241 1.478 . S
C242 C243 1.397 . S
C242 C259 1.394 1_554 S
C243 C242 1.397 . S
C243 C244 1.438 . S
C243 C248 1.429 . S
C244 C243 1.438 . S
C244 C245 1.428 . S
C244 C257 1.394 . S
C245 H237 0.949 . S
C245 C244 1.428 . S
C245 C246 1.345 . S
C246 H238 0.950 . S
C246 C245 1.345 . S
C246 C247 1.424 . S
C247 H239 0.951 . S
C247 C246 1.424 . S
C247 C248 1.347 . S
C248 H240 0.951 . S
C248 C243 1.429 . S
C248 C247 1.347 . S
H249 C250 0.951 . S
C250 H249 0.951 . S
C250 C256 1.265 . S
H251 C256 0.950 . S
H252 C260 0.949 . S
H253 C261 0.950 . S
H254 C262 0.951 . S
H255 C263 0.951 . S
C256 C250 1.265 . S
C256 H251 0.950 . S
C256 C257 1.478 . S
C257 C244 1.394 . S
C257 C256 1.478 . S
C257 C258 1.397 1_554 S
C258 C257 1.397 1_556 S
C258 C259 1.438 . S
C258 C263 1.429 . S
C259 C242 1.394 1_556 S
C259 C258 1.438 . S
C259 C260 1.428 . S
C260 H252 0.949 . S
C260 C259 1.428 . S
C260 C261 1.345 . S
C261 H253 0.950 . S
C261 C260 1.345 . S
C261 C262 1.424 . S
C262 H254 0.951 . S
C262 C261 1.424 . S
C262 C263 1.347 . S
C263 H255 0.951 . S
C263 C258 1.429 . S
C263 C262 1.347 . S
H264 C265 0.951 . S
C265 H264 0.951 . S
C265 C271 1.265 . S
H266 C271 0.950 . S
H267 C275 0.949 . S
H268 C276 0.950 . S
H269 C277 0.951 . S
H270 C278 0.951 . S
C271 C265 1.265 . S
C271 H266 0.950 . S
C271 C272 1.478 . S
C272 C271 1.478 . S
C272 C273 1.397 . S
C272 C289 1.394 . S
C273 C272 1.397 . S
C273 C274 1.438 . S
C273 C278 1.429 . S
C274 C273 1.438 . S
C274 C275 1.428 . S
C274 C287 1.394 . S
C275 H267 0.949 . S
C275 C274 1.428 . S
C275 C276 1.345 . S
C276 H268 0.950 . S
C276 C275 1.345 . S
C276 C277 1.424 . S
C277 H269 0.951 . S
C277 C276 1.424 . S
C277 C278 1.347 . S
C278 H270 0.951 . S
C278 C273 1.429 . S
C278 C277 1.347 . S
H279 C280 0.951 . S
C280 H279 0.951 . S
C280 C286 1.265 . S
H281 C286 0.950 . S
H282 C290 0.949 . S
H283 C291 0.950 . S
H284 C292 0.951 1_545 S
H285 C293 0.951 . S
C286 C280 1.265 . S
C286 H281 0.950 . S
C286 C287 1.478 . S
C287 C274 1.394 . S
C287 C286 1.478 . S
C287 C288 1.397 . S
C288 C287 1.397 . S
C288 C289 1.438 . S
C288 C293 1.429 . S
C289 C272 1.394 . S
C289 C288 1.438 . S
C289 C290 1.428 . S
C290 H282 0.949 . S
C290 C289 1.428 . S
C290 C291 1.345 . S
C291 H283 0.950 . S
C291 C290 1.345 . S
C291 C292 1.424 . S
C292 H284 0.951 1_565 S
C292 C291 1.424 . S
C292 C293 1.347 . S
C293 H285 0.951 . S
C293 C288 1.429 . S
C293 C292 1.347 . S
H294 C295 0.951 . S
C295 H294 0.951 . S
C295 C301 1.265 . S
H296 C301 0.950 . S
H297 C305 0.949 . S
H298 C306 0.950 . S
H299 C307 0.951 . S
H300 C308 0.951 . S
C301 C295 1.265 . S
C301 H296 0.950 . S
C301 C302 1.478 . S
C302 C301 1.478 . S
C302 C303 1.397 . S
C302 C319 1.394 . S
C303 C302 1.397 . S
C303 C304 1.438 . S
C303 C308 1.429 . S
C304 C303 1.438 . S
C304 C305 1.428 . S
C304 C317 1.394 . S
C305 H297 0.949 . S
C305 C304 1.428 . S
C305 C306 1.345 . S
C306 H298 0.950 . S
C306 C305 1.345 . S
C306 C307 1.424 . S
C307 H299 0.951 . S
C307 C306 1.424 . S
C307 C308 1.347 . S
C308 H300 0.951 . S
C308 C303 1.429 . S
C308 C307 1.347 . S
H309 C310 0.951 . S
C310 H309 0.951 . S
C310 C316 1.265 . S
H311 C316 0.950 . S
H312 C320 0.949 . S
H313 C321 0.950 . S
H314 C322 0.951 . S
H315 C323 0.951 . S
C316 C310 1.265 . S
C316 H311 0.950 . S
C316 C317 1.478 . S
C317 C304 1.394 . S
C317 C316 1.478 . S
C317 C318 1.397 . S
C318 C317 1.397 . S
C318 C319 1.438 . S
C318 C323 1.429 . S
C319 C302 1.394 . S
C319 C318 1.438 . S
C319 C320 1.428 . S
C320 H312 0.949 . S
C320 C319 1.428 . S
C320 C321 1.345 . S
C321 H313 0.950 . S
C321 C320 1.345 . S
C321 C322 1.424 . S
C322 H314 0.951 . S
C322 C321 1.424 . S
C322 C323 1.347 . S
C323 H315 0.951 . S
C323 C318 1.429 . S
C323 C322 1.347 . S
H324 C325 0.951 . S
C325 H324 0.951 . S
C325 C331 1.265 . S
H326 C331 0.950 . S
H327 C335 0.949 . S
H328 C336 0.950 1_565 S
H329 C337 0.951 . S
H330 C338 0.951 . S
C331 C325 1.265 . S
C331 H326 0.950 . S
C331 C332 1.478 . S
C332 C331 1.478 . S
C332 C333 1.397 . S
C332 C349 1.394 . S
C333 C332 1.397 . S
C333 C334 1.438 . S
C333 C338 1.429 . S
C334 C333 1.438 . S
C334 C335 1.428 . S
C334 C347 1.394 . S
C335 H327 0.949 . S
C335 C334 1.428 . S
C335 C336 1.345 . S
C336 H328 0.950 1_545 S
C336 C335 1.345 . S
C336 C337 1.424 . S
C337 H329 0.951 . S
C337 C336 1.424 . S
C337 C338 1.347 . S
C338 H330 0.951 . S
C338 C333 1.429 . S
C338 C337 1.347 . S
H339 C340 0.951 . S
C340 H339 0.951 . S
C340 C346 1.265 . S
H341 C346 0.950 . S
H342 C350 0.949 . S
H343 C351 0.950 . S
H344 C352 0.951 . S
H345 C353 0.951 . S
C346 C340 1.265 . S
C346 H341 0.950 . S
C346 C347 1.478 . S
C347 C334 1.394 . S
C347 C346 1.478 . S
C347 C348 1.397 . S
C348 C347 1.397 . S
C348 C349 1.438 . S
C348 C353 1.429 . S
C349 C332 1.394 . S
C349 C348 1.438 . S
C349 C350 1.428 . S
C350 H342 0.949 . S
C350 C349 1.428 . S
C350 C351 1.345 . S
C351 H343 0.950 . S
C351 C350 1.345 . S
C351 C352 1.424 . S
C352 H344 0.951 . S
C352 C351 1.424 . S
C352 C353 1.347 . S
C353 H345 0.951 . S
C353 C348 1.429 . S
C353 C352 1.347 . S
H354 C355 0.951 . S
C355 H354 0.951 . S
C355 C361 1.265 . S
H356 C361 0.950 . S
H357 C365 0.949 . S
H358 C366 0.950 . S
H359 C367 0.951 . S
H360 C368 0.951 . S
C361 C355 1.265 . S
C361 H356 0.950 . S
C361 C362 1.478 . S
C362 C361 1.478 . S
C362 C363 1.397 . S
C362 C379 1.394 . S
C363 C362 1.397 . S
C363 C364 1.438 . S
C363 C368 1.429 . S
C364 C363 1.438 . S
C364 C365 1.428 . S
C364 C377 1.394 . S
C365 H357 0.949 . S
C365 C364 1.428 . S
C365 C366 1.345 . S
C366 H358 0.950 . S
C366 C365 1.345 . S
C366 C367 1.424 . S
C367 H359 0.951 . S
C367 C366 1.424 . S
C367 C368 1.347 . S
C368 H360 0.951 . S
C368 C363 1.429 . S
C368 C367 1.347 . S
H369 C370 0.951 . S
C370 H369 0.951 . S
C370 C376 1.265 . S
H371 C376 0.950 . S
H372 C380 0.949 . S
H373 C381 0.950 . S
H374 C382 0.951 . S
H375 C383 0.951 . S
C376 C370 1.265 . S
C376 H371 0.950 . S
C376 C377 1.478 . S
C377 C364 1.394 . S
C377 C376 1.478 . S
C377 C378 1.397 . S
C378 C377 1.397 . S
C378 C379 1.438 . S
C378 C383 1.429 . S
C379 C362 1.394 . S
C379 C378 1.438 . S
C379 C380 1.428 . S
C380 H372 0.949 . S
C380 C379 1.428 . S
C380 C381 1.345 . S
C381 H373 0.950 . S
C381 C380 1.345 . S
C381 C382 1.424 . S
C382 H374 0.951 . S
C382 C381 1.424 . S
C382 C383 1.347 . S
C383 H375 0.951 . S
C383 C378 1.429 . S
C383 C382 1.347 . S
H384 C385 0.951 . S
C385 H384 0.951 . S
C385 C391 1.265 . S
H386 C391 0.950 . S
H387 C395 0.949 . S
H388 C396 0.950 . S
H389 C397 0.951 . S
H390 C398 0.951 . S
C391 C385 1.265 . S
C391 H386 0.950 . S
C391 C392 1.478 . S
C392 C391 1.478 . S
C392 C393 1.397 . S
C392 C409 1.394 . S
C393 C392 1.397 . S
C393 C394 1.438 . S
C393 C398 1.429 . S
C394 C393 1.438 . S
C394 C395 1.428 . S
C394 C407 1.394 . S
C395 H387 0.949 . S
C395 C394 1.428 . S
C395 C396 1.345 . S
C396 H388 0.950 . S
C396 C395 1.345 . S
C396 C397 1.424 . S
C397 H389 0.951 . S
C397 C396 1.424 . S
C397 C398 1.347 . S
C398 H390 0.951 . S
C398 C393 1.429 . S
C398 C397 1.347 . S
H399 C400 0.951 . S
C400 H399 0.951 . S
C400 C406 1.265 . S
H401 C406 0.950 . S
H402 C410 0.949 . S
H403 C411 0.950 . S
H404 C412 0.951 . S
H405 C413 0.951 . S
C406 C400 1.265 . S
C406 H401 0.950 . S
C406 C407 1.478 . S
C407 C394 1.394 . S
C407 C406 1.478 . S
C407 C408 1.397 . S
C408 C407 1.397 . S
C408 C409 1.438 . S
C408 C413 1.429 . S
C409 C392 1.394 . S
C409 C408 1.438 . S
C409 C410 1.428 . S
C410 H402 0.949 . S
C410 C409 1.428 . S
C410 C411 1.345 . S
C411 H403 0.950 . S
C411 C410 1.345 . S
C411 C412 1.424 . S
C412 H404 0.951 . S
C412 C411 1.424 . S
C412 C413 1.347 . S
C413 H405 0.951 . S
C413 C408 1.429 . S
C413 C412 1.347 . S
H414 C415 0.951 . S
C415 H414 0.951 . S
C415 C421 1.265 . S
H416 C421 0.950 . S
H417 C425 0.949 . S
H418 C426 0.950 . S
H419 C427 0.951 . S
H420 C428 0.951 . S
C421 C415 1.265 . S
C421 H416 0.950 . S
C421 C422 1.478 . S
C422 C421 1.478 . S
C422 C423 1.397 . S
C422 C439 1.394 . S
C423 C422 1.397 . S
C423 C424 1.438 . S
C423 C428 1.429 . S
C424 C423 1.438 . S
C424 C425 1.428 . S
C424 C437 1.394 . S
C425 H417 0.949 . S
C425 C424 1.428 . S
C425 C426 1.345 . S
C426 H418 0.950 . S
C426 C425 1.345 . S
C426 C427 1.424 . S
C427 H419 0.951 . S
C427 C426 1.424 . S
C427 C428 1.347 . S
C428 H420 0.951 . S
C428 C423 1.429 . S
C428 C427 1.347 . S
H429 C430 0.951 . S
C430 H429 0.951 . S
C430 C436 1.265 . S
H431 C436 0.950 . S
H432 C440 0.949 . S
H433 C441 0.950 . S
H434 C442 0.951 . S
H435 C443 0.951 . S
C436 C430 1.265 . S
C436 H431 0.950 . S
C436 C437 1.478 . S
C437 C424 1.394 . S
C437 C436 1.478 . S
C437 C438 1.397 . S
C438 C437 1.397 . S
C438 C439 1.438 . S
C438 C443 1.429 . S
C439 C422 1.394 . S
C439 C438 1.438 . S
C439 C440 1.428 . S
C440 H432 0.949 . S
C440 C439 1.428 . S
C440 C441 1.345 . S
C441 H433 0.950 . S
C441 C440 1.345 . S
C441 C442 1.424 . S
C442 H434 0.951 . S
C442 C441 1.424 . S
C442 C443 1.347 . S
C443 H435 0.951 . S
C443 C438 1.429 . S
C443 C442 1.347 . S
H444 C445 0.951 . S
C445 H444 0.951 . S
C445 C451 1.265 . S
H446 C451 0.950 . S
H447 C455 0.949 . S
H448 C456 0.950 . S
H449 C457 0.951 . S
H450 C458 0.951 . S
C451 C445 1.265 . S
C451 H446 0.950 . S
C451 C452 1.478 . S
C452 C451 1.478 . S
C452 C453 1.397 . S
C452 C469 1.394 . S
C453 C452 1.397 . S
C453 C454 1.438 . S
C453 C458 1.429 . S
C454 C453 1.438 . S
C454 C455 1.428 . S
C454 C467 1.394 . S
C455 H447 0.949 . S
C455 C454 1.428 . S
C455 C456 1.345 . S
C456 H448 0.950 . S
C456 C455 1.345 . S
C456 C457 1.424 . S
C457 H449 0.951 . S
C457 C456 1.424 . S
C457 C458 1.347 . S
C458 H450 0.951 . S
C458 C453 1.429 . S
C458 C457 1.347 . S
H459 C460 0.951 . S
C460 H459 0.951 . S
C460 C466 1.265 . S
H461 C466 0.950 . S
H462 C470 0.949 . S
H463 C471 0.950 . S
H464 C472 0.951 . S
H465 C473 0.951 . S
C466 C460 1.265 . S
C466 H461 0.950 . S
C466 C467 1.478 . S
C467 C454 1.394 . S
C467 C466 1.478 . S
C467 C468 1.397 . S
C468 C467 1.397 . S
C468 C469 1.438 . S
C468 C473 1.429 . S
C469 C452 1.394 . S
C469 C468 1.438 . S
C469 C470 1.428 . S
C470 H462 0.949 . S
C470 C469 1.428 . S
C470 C471 1.345 . S
C471 H463 0.950 . S
C471 C470 1.345 . S
C471 C472 1.424 . S
C472 H464 0.951 . S
C472 C471 1.424 . S
C472 C473 1.347 . S
C473 H465 0.951 . S
C473 C468 1.429 . S
C473 C472 1.347 . S
H474 C475 0.951 . S
C475 H474 0.951 . S
C475 C481 1.265 . S
H476 C481 0.950 . S
H477 C485 0.949 . S
H478 C486 0.950 . S
H479 C487 0.951 . S
H480 C488 0.951 . S
C481 C475 1.265 . S
C481 H476 0.950 . S
C481 C482 1.478 . S
C482 C481 1.478 . S
C482 C483 1.397 . S
C482 C499 1.394 . S
C483 C482 1.397 . S
C483 C484 1.438 . S
C483 C488 1.429 . S
C484 C483 1.438 . S
C484 C485 1.428 . S
C484 C497 1.394 . S
C485 H477 0.949 . S
C485 C484 1.428 . S
C485 C486 1.345 . S
C486 H478 0.950 . S
C486 C485 1.345 . S
C486 C487 1.424 . S
C487 H479 0.951 . S
C487 C486 1.424 . S
C487 C488 1.347 . S
C488 H480 0.951 . S
C488 C483 1.429 . S
C488 C487 1.347 . S
H489 C490 0.951 . S
C490 H489 0.951 . S
C490 C496 1.265 . S
H491 C496 0.950 . S
H492 C500 0.949 . S
H493 C501 0.950 . S
H494 C502 0.951 1_545 S
H495 C503 0.951 . S
C496 C490 1.265 . S
C496 H491 0.950 . S
C496 C497 1.478 . S
C497 C484 1.394 . S
C497 C496 1.478 . S
C497 C498 1.397 . S
C498 C497 1.397 . S
C498 C499 1.438 . S
C498 C503 1.429 . S
C499 C482 1.394 . S
C499 C498 1.438 . S
C499 C500 1.428 . S
C500 H492 0.949 . S
C500 C499 1.428 . S
C500 C501 1.345 . S
C501 H493 0.950 . S
C501 C500 1.345 . S
C501 C502 1.424 . S
C502 H494 0.951 1_565 S
C502 C501 1.424 . S
C502 C503 1.347 . S
C503 H495 0.951 . S
C503 C498 1.429 . S
C503 C502 1.347 . S
C160 C80 1.522 . S
C145 C68 1.351 . S
C175 C11 1.451 . S
C190 C123 1.541 . S
C205 C30 1.462 . S
C220 C89 1.528 . S
C235 C49 1.469 . S
C250 C114 1.538 . S
C280 C76 1.619 . S
C265 C2 1.596 . S
C310 C118 1.599 . S
C295 C25 1.592 . S
C325 C40 1.566 . S
C340 C84 1.606 . S
C355 C59 1.541 . S
C370 C110 1.584 . S
C400 C139 1.494 . S
C385 C21 1.471 . S
C430 C105 1.480 . S
C415 C44 1.476 . S
C460 C127 1.513 . S
C445 C63 1.510 . S
C475 C6 1.474 . S
C490 C93 1.471 . S
