# Generated by pormake.
# Topology zzz, (3,6)-cn, num edge types: 1
# Building blocks:
#     Node 0, Type 0, BuildingBlock: VETTIZ_charged_linker_0, # of connection points: 3
#     Node 1, Type 0, BuildingBlock: VETTIZ_charged_linker_0, # of connection points: 3
#     Node 2, Type 0, BuildingBlock: VETTIZ_charged_linker_0, # of connection points: 3
#     Node 3, Type 0, BuildingBlock: VETTIZ_charged_linker_0, # of connection points: 3
#     Node 4, Type 0, BuildingBlock: VETTIZ_charged_linker_0, # of connection points: 3
#     Node 5, Type 0, BuildingBlock: VETTIZ_charged_linker_0, # of connection points: 3
#     Node 6, Type 0, BuildingBlock: VETTIZ_charged_linker_0, # of connection points: 3
#     Node 7, Type 0, BuildingBlock: VETTIZ_charged_linker_0, # of connection points: 3
#     Node 8, Type 1, BuildingBlock: NUHQIS_clean_sbu_0, # of connection points: 6
#     Node 9, Type 1, BuildingBlock: NUHQIS_clean_sbu_0, # of connection points: 6
#     Node 10, Type 1, BuildingBlock: NUHQIS_clean_sbu_0, # of connection points: 6
#     Node 11, Type 1, BuildingBlock: NUHQIS_clean_sbu_0, # of connection points: 6
#     Edge 12, Type (0, 1), BuildingBlock: TEMPAE_clean_linker_10, # of connection points: 2
#     Edge 13, Type (0, 1), BuildingBlock: TEMPAE_clean_linker_10, # of connection points: 2
#     Edge 14, Type (0, 1), BuildingBlock: TEMPAE_clean_linker_10, # of connection points: 2
#     Edge 15, Type (0, 1), BuildingBlock: TEMPAE_clean_linker_10, # of connection points: 2
#     Edge 16, Type (0, 1), BuildingBlock: TEMPAE_clean_linker_10, # of connection points: 2
#     Edge 17, Type (0, 1), BuildingBlock: TEMPAE_clean_linker_10, # of connection points: 2
#     Edge 18, Type (0, 1), BuildingBlock: TEMPAE_clean_linker_10, # of connection points: 2
#     Edge 19, Type (0, 1), BuildingBlock: TEMPAE_clean_linker_10, # of connection points: 2
#     Edge 20, Type (0, 1), BuildingBlock: TEMPAE_clean_linker_10, # of connection points: 2
#     Edge 21, Type (0, 1), BuildingBlock: TEMPAE_clean_linker_10, # of connection points: 2
#     Edge 22, Type (0, 1), BuildingBlock: TEMPAE_clean_linker_10, # of connection points: 2
#     Edge 23, Type (0, 1), BuildingBlock: TEMPAE_clean_linker_10, # of connection points: 2
#     Edge 24, Type (0, 1), BuildingBlock: TEMPAE_clean_linker_10, # of connection points: 2
#     Edge 25, Type (0, 1), BuildingBlock: TEMPAE_clean_linker_10, # of connection points: 2
#     Edge 26, Type (0, 1), BuildingBlock: TEMPAE_clean_linker_10, # of connection points: 2
#     Edge 27, Type (0, 1), BuildingBlock: TEMPAE_clean_linker_10, # of connection points: 2
#     Edge 28, Type (0, 1), BuildingBlock: TEMPAE_clean_linker_10, # of connection points: 2
#     Edge 29, Type (0, 1), BuildingBlock: TEMPAE_clean_linker_10, # of connection points: 2
#     Edge 30, Type (0, 1), BuildingBlock: TEMPAE_clean_linker_10, # of connection points: 2
#     Edge 31, Type (0, 1), BuildingBlock: TEMPAE_clean_linker_10, # of connection points: 2
#     Edge 32, Type (0, 1), BuildingBlock: TEMPAE_clean_linker_10, # of connection points: 2
#     Edge 33, Type (0, 1), BuildingBlock: TEMPAE_clean_linker_10, # of connection points: 2
#     Edge 34, Type (0, 1), BuildingBlock: TEMPAE_clean_linker_10, # of connection points: 2
#     Edge 35, Type (0, 1), BuildingBlock: TEMPAE_clean_linker_10, # of connection points: 2
# Relax obj value: 0.427
# Max RMSD: 0.259
# Mean RMSD: 0.235
data_MOF--net-zzz--node1-NUHQIS_clean_sbu_0--node2-VETTIZ_charged_linker_0--edge1-TEMPAE_clean_linker_10
_symmetry_space_group_name_H-M    P1
_symmetry_Int_Tables_number       1
_symmetry_cell_setting            triclinic
loop_
_symmetry_equiv_pos_as_xyz
'x, y, z'
_cell_length_a     59.681567
_cell_length_b     59.681597
_cell_length_c     19.228859
_cell_angle_alpha  89.887464
_cell_angle_beta   89.976626
_cell_angle_gamma 90.010052
loop_
_atom_site_label
_atom_site_type_symbol
_atom_site_fract_x
_atom_site_fract_y
_atom_site_fract_z
_atom_type_partial_charge
C0 C 0.79888 0.51796 0.3755 0.0
C1 C 0.81725 0.52982 0.40536 0.0
C2 C 0.81981 0.55271 0.3894 0.0
C3 C 0.79018 0.55046 0.30477 0.0
C4 C 0.78491 0.52914 0.32648 0.0
C5 C 0.76273 0.52182 0.29356 0.0
H6 H 0.68315 0.54764 0.04297 0.0
C7 C 0.77525 0.55708 0.24821 0.0
C8 C 0.75792 0.54122 0.24264 0.0
H9 H 0.67854 0.493 0.18935 0.0
H10 H 0.71498 0.50362 0.23865 0.0
H11 H 0.70267 0.58612 0.14283 0.0
H12 H 0.72795 0.5383 1.0001 0.0
H13 H 0.75092 0.55647 0.00745 0.0
H14 H 0.72457 0.56672 0.97376 0.0
H15 H 0.69957 0.58632 0.04986 0.0
H16 H 0.72316 0.59961 0.09118 0.0
C17 C 0.74497 0.52045 0.35157 0.0
C18 C 0.766 0.49942 0.25544 0.0
C19 C 0.81027 0.6019 0.05555 0.0
C20 C 0.80318 0.6052 0.98652 0.0
C21 C 0.78003 0.60481 0.97222 0.0
C22 C 0.76478 0.59763 0.02311 0.0
C23 C 0.7729 0.59025 0.08788 0.0
C24 C 0.79504 0.59386 0.1049 0.0
C25 C 0.80086 0.58502 0.17594 0.0
C26 C 0.77895 0.57318 0.19517 0.0
C27 C 0.76297 0.57589 0.1426 0.0
C28 C 0.80641 0.60528 0.22338 0.0
C29 C 0.82067 0.56833 0.16953 0.0
C30 C 0.68951 0.53822 0.08697 0.0
C31 C 0.67747 0.51994 0.11344 0.0
C32 C 0.68723 0.50744 0.16842 0.0
C33 C 0.70821 0.51375 0.19752 0.0
C34 C 0.71965 0.53263 0.17111 0.0
C35 C 0.71019 0.54413 0.11577 0.0
C36 C 0.72489 0.56241 0.08858 0.0
C37 C 0.74387 0.56174 0.14065 0.0
C38 C 0.74122 0.54414 0.18936 0.0
C39 C 0.71194 0.58487 0.09277 0.0
C40 C 0.73247 0.55584 0.01374 0.0
H41 H 0.8079 0.58073 0.33224 0.0
H42 H 0.79553 0.50077 0.39018 0.0
H43 H 0.78005 0.50071 0.21767 0.0
H44 H 0.75085 0.49454 0.22609 0.0
H45 H 0.76994 0.48579 0.29294 0.0
H46 H 0.74513 0.53598 0.38345 0.0
H47 H 0.74839 0.50602 0.38661 0.0
H48 H 0.72784 0.51875 0.3309 0.0
H49 H 0.82787 0.6026 0.0688 0.0
H50 H 0.774 0.60796 0.91998 0.0
H51 H 0.74749 0.59664 0.00854 0.0
H52 H 0.80902 0.62103 0.19344 0.0
H53 H 0.82227 0.60265 0.25243 0.0
H54 H 0.79264 0.60864 0.26086 0.0
H55 H 0.81664 0.55484 0.1317 0.0
H56 H 0.82488 0.5603 0.21955 0.0
H57 H 0.83616 0.57693 0.15194 0.0
H58 H 0.83294 0.56252 0.41366 0.0
C59 C 0.80605 0.56312 0.34056 0.0
C60 C 0.11269 0.76901 0.99516 0.0
C61 C 0.12491 0.78873 0.00754 0.0
C62 C 0.1242 0.79844 0.07418 0.0
C63 C 0.09471 0.77279 0.10766 0.0
C64 C 0.09785 0.76123 0.04638 0.0
C65 C 0.08207 0.74172 0.04017 0.0
H66 H 0.99211 0.68287 0.15066 0.0
C67 C 0.07464 0.76351 0.14259 0.0
C68 C 0.06755 0.7449 0.10467 0.0
H69 H 0.03891 0.6686 0.98479 0.0
H70 H 0.05936 0.70177 0.0109 0.0
H71 H 0.03069 0.70332 0.27008 0.0
H72 H 0.99196 0.74173 0.11969 0.0
H73 H 0.98957 0.75116 0.20701 0.0
H74 H 0.9782 0.72439 0.18341 0.0
H75 H 1.00054 0.70222 0.27022 0.0
H76 H 0.01504 0.72594 0.30591 0.0
C77 C 0.0963 0.71993 0.04391 0.0
C78 C 0.06834 0.74463 0.97219 0.0
C79 C 0.03902 0.81112 0.32853 0.0
C80 C 0.01983 0.8099 0.3707 0.0
C81 C 1.00592 0.79072 0.36289 0.0
C82 C 0.01127 0.77346 0.31456 0.0
C83 C 0.03073 0.77523 0.27315 0.0
C84 C 0.04421 0.79389 0.28199 0.0
C85 C 0.06451 0.79364 0.23661 0.0
C86 C 0.06108 0.77203 0.19705 0.0
C87 C 0.04116 0.76095 0.21731 0.0
C88 C 0.08558 0.79261 0.28403 0.0
C89 C 0.06334 0.81454 0.18855 0.0
C90 C 0.00686 0.6871 0.12062 0.0
C91 C 0.01404 0.67301 0.06537 0.0
C92 C 0.03315 0.67905 0.02729 0.0
C93 C 0.04516 0.69836 0.043 0.0
C94 C 0.03817 0.71226 0.09761 0.0
C95 C 0.0193 0.70688 0.13581 0.0
C96 C 0.01488 0.72465 0.19132 0.0
C97 C 0.03479 0.7407 0.18141 0.0
C98 C 0.04805 0.73305 0.12551 0.0
C99 C 0.01522 0.71349 0.26356 0.0
C100 C 0.99239 0.73615 0.17489 0.0
H101 H 0.10815 0.79978 0.17198 0.0
H102 H 0.1131 0.76116 0.94443 0.0
H103 H 0.06367 0.76251 0.9643 0.0
H104 H 0.05227 0.73547 0.97264 0.0
H105 H 0.07816 0.73919 0.92614 0.0
H106 H 0.11314 0.7229 0.06705 0.0
H107 H 0.09904 0.71269 0.99142 0.0
H108 H 0.08858 0.70707 0.078 0.0
H109 H 0.04998 0.82555 0.33037 0.0
H110 H 0.99105 0.78888 0.39459 0.0
H111 H 1.00023 0.75928 0.31146 0.0
H112 H 0.08158 0.78592 0.33665 0.0
H113 H 0.09308 0.80949 0.29121 0.0
H114 H 0.09851 0.78104 0.26362 0.0
H115 H 0.04602 0.81694 0.16837 0.0
H116 H 0.07399 0.81338 0.142 0.0
H117 H 0.06811 0.82996 0.21721 0.0
H118 H 0.13341 0.81371 0.08486 0.0
C119 C 0.10915 0.79057 0.12434 0.0
C120 C 0.81367 0.01101 0.14201 0.0
C121 C 0.82861 0.02162 0.09472 0.0
C122 C 0.82429 0.04385 0.07449 0.0
C123 C 0.79125 0.04504 0.14697 0.0
C124 C 0.79514 0.02329 0.16846 0.0
C125 C 0.77765 0.01609 0.22193 0.0
H126 H 0.68568 0.04878 0.4154 0.0
C127 C 0.77201 0.05414 0.18534 0.0
C128 C 0.7642 0.03776 0.23228 0.0
H129 H 0.71159 0.98157 0.40118 0.0
H130 H 0.74274 0.99512 0.3291 0.0
H131 H 0.73551 0.07362 0.42654 0.0
H132 H 0.68159 0.06322 0.29811 0.0
H133 H 0.69785 0.07606 0.23278 0.0
H134 H 0.68942 0.09143 0.30937 0.0
H135 H 0.70869 0.08717 0.42094 0.0
H136 H 0.73289 0.09801 0.37546 0.0
C137 C 0.78951 0.00867 0.28926 0.0
C138 C 0.76326 0.99741 0.18923 0.0
C139 C 0.72845 0.12055 0.09698 0.0
C140 C 0.7099 0.13171 0.12637 0.0
C141 C 0.70754 0.13173 0.1994 0.0
C142 C 0.72019 0.11706 0.24028 0.0
C143 C 0.7352 0.1025 0.20748 0.0
C144 C 0.7412 0.1062 0.13935 0.0
C145 C 0.76075 0.09165 0.11876 0.0
C146 C 0.76146 0.07537 0.18051 0.0
C147 C 0.74572 0.08153 0.23078 0.0
C148 C 0.78186 0.10687 0.11473 0.0
C149 C 0.75547 0.07955 0.04962 0.0
C150 C 0.6979 0.03683 0.39637 0.0
C151 C 0.69578 0.01407 0.41255 0.0
C152 C 0.71262 0.99924 0.38868 0.0
C153 C 0.73048 0.00707 0.34612 0.0
C154 C 0.73139 0.02989 0.32676 0.0
C155 C 0.71518 0.04422 0.35284 0.0
C156 C 0.71772 0.06778 0.32755 0.0
C157 C 0.73751 0.06532 0.27852 0.0
C158 C 0.74603 0.04321 0.27847 0.0
C159 C 0.72389 0.08258 0.39079 0.0
C160 C 0.69568 0.0751 0.29006 0.0
H161 H 0.80373 0.07236 0.08324 0.0
H162 H 0.81666 0.99396 0.15889 0.0
H163 H 0.75781 1.0023 0.136 0.0
H164 H 0.74784 0.99405 0.21896 0.0
H165 H 0.77298 0.98159 0.18511 0.0
H166 H 0.80168 0.02167 0.30623 0.0
H167 H 0.79882 0.99277 0.28105 0.0
H168 H 0.7776 1.00617 0.33252 0.0
H169 H 0.73145 0.1211 0.04152 0.0
H170 H 0.69428 0.14128 0.22394 0.0
H171 H 0.71703 0.11662 0.29511 0.0
H172 H 0.77823 0.12468 0.12764 0.0
H173 H 0.78917 0.10704 0.06157 0.0
H174 H 0.79495 0.10145 0.15224 0.0
H175 H 0.73912 0.07066 0.05313 0.0
H176 H 0.76832 0.06698 0.03607 0.0
H177 H 0.75463 0.09167 0.0058 0.0
H178 H 0.83534 0.05233 0.03819 0.0
C179 C 0.80591 0.05553 0.10046 0.0
C180 C 0.49369 0.70023 0.38052 0.0
C181 C 0.4836 0.67901 0.39415 0.0
C182 C 0.4665 0.67162 0.34946 0.0
C183 C 0.46966 0.70512 0.27911 0.0
C184 C 0.48616 0.71323 0.32271 0.0
C185 C 0.49355 0.73661 0.29924 0.0
H186 H 0.48435 0.8182 0.04309 0.0
C187 C 0.46585 0.72135 0.22227 0.0
C188 C 0.4796 0.74023 0.23284 0.0
H189 H 0.52391 0.82398 0.22944 0.0
H190 H 0.51164 0.78645 0.26659 0.0
H191 H 0.49752 0.76981 0.00874 0.0
H192 H 0.4411 0.79821 0.11505 0.0
H193 H 0.43043 0.77726 0.06023 0.0
H194 H 0.44544 0.80057 0.02295 0.0
H195 H 0.4742 0.78145 0.96244 0.0
H196 H 0.47501 0.75228 0.98757 0.0
C197 C 0.51885 0.7363 0.28367 0.0
C198 C 0.48721 0.75349 0.35646 0.0
C199 C 0.41751 0.69619 0.02109 0.0
C200 C 0.41452 0.70464 0.95368 0.0
C201 C 0.42152 0.72652 0.938 0.0
C202 C 0.43287 0.73929 0.9882 0.0
C203 C 0.43758 0.72977 0.05391 0.0
C204 C 0.42942 0.70876 0.06965 0.0
C205 C 0.43745 0.70032 0.13878 0.0
C206 C 0.45223 0.71959 0.16201 0.0
C207 C 0.45209 0.73678 0.1126 0.0
C208 C 0.45112 0.67849 0.12589 0.0
C209 C 0.41663 0.69753 0.18652 0.0
C210 C 0.49038 0.81147 0.09206 0.0
C211 C 0.50503 0.82393 0.13316 0.0
C212 C 0.51252 0.8146 0.19677 0.0
C213 C 0.50536 0.79292 0.21824 0.0
C214 C 0.49042 0.78065 0.17595 0.0
C215 C 0.48328 0.79033 0.11415 0.0
C216 C 0.46751 0.77584 0.07445 0.0
C217 C 0.46553 0.75599 0.12269 0.0
C218 C 0.47916 0.75822 0.18249 0.0
C219 C 0.47892 0.76955 1.00444 0.0
C220 C 0.44493 0.78854 0.06707 0.0
H221 H 0.44652 0.67733 0.26182 0.0
H222 H 0.50677 0.70654 0.4142 0.0
H223 H 0.46944 0.75116 0.37238 0.0
H224 H 0.48883 0.771 0.33881 0.0
H225 H 0.49791 0.75111 0.40316 0.0
H226 H 0.52293 0.72254 0.24687 0.0
H227 H 0.52862 0.73359 0.33214 0.0
H228 H 0.52458 0.7521 0.25956 0.0
H229 H 0.41254 0.67918 0.03368 0.0
H230 H 0.41951 0.73315 0.88588 0.0
H231 H 0.43847 0.75562 0.97262 0.0
H232 H 0.44021 0.66343 0.12809 0.0
H233 H 0.46521 0.67627 0.16246 0.0
H234 H 0.4593 0.67871 0.07386 0.0
H235 H 0.40315 0.7096 0.17239 0.0
H236 H 0.42031 0.70124 0.24173 0.0
H237 H 0.40945 0.68041 0.18239 0.0
H238 H 0.45863 0.65544 0.35741 0.0
C239 C 0.45949 0.68443 0.29311 0.0
C240 C 0.32158 0.4999 0.26812 0.0
C241 C 0.33766 0.50947 0.31379 0.0
C242 C 0.33421 0.53134 0.33817 0.0
C243 C 0.29935 0.53407 0.27451 0.0
C244 C 0.30252 0.51274 0.24837 0.0
C245 C 0.28357 0.50651 0.19865 0.0
H246 H 0.18363 0.54047 0.0502 0.0
C247 C 0.2784 0.54339 0.2459 0.0
C248 C 0.26891 0.52765 0.19976 0.0
H249 H 0.21597 0.47683 0.01407 0.0
H250 H 0.24656 0.48783 0.09184 0.0
H251 H 0.18166 0.56737 0.16125 0.0
H252 H 0.22732 0.56985 0.0351 0.0
H253 H 0.22807 0.59031 0.10042 0.0
H254 H 0.2014 0.58149 0.06534 0.0
H255 H 0.19958 0.56698 0.23666 0.0
H256 H 0.18968 0.54173 0.20288 0.0
C257 C 0.27108 0.48602 0.22832 0.0
C258 C 0.29354 0.50222 0.12599 0.0
C259 C 0.2464 0.61414 0.35322 0.0
C260 C 0.22568 0.62497 0.34315 0.0
C261 C 0.21389 0.62092 0.28072 0.0
C262 C 0.22078 0.60414 0.23498 0.0
C263 C 0.2396 0.59112 0.25156 0.0
C264 C 0.25291 0.59713 0.30708 0.0
C265 C 0.27261 0.5816 0.31521 0.0
C266 C 0.26751 0.56407 0.25971 0.0
C267 C 0.24803 0.56966 0.22355 0.0
C268 C 0.27186 0.5715 0.38962 0.0
C269 C 0.29418 0.59517 0.29841 0.0
C270 C 0.1974 0.52885 0.05697 0.0
C271 C 0.19725 0.50789 0.02412 0.0
C272 C 0.21541 0.49318 0.03828 0.0
C273 C 0.23324 0.49961 0.08326 0.0
C274 C 0.23299 0.52095 0.11484 0.0
C275 C 0.21509 0.53499 0.10056 0.0
C276 C 0.21649 0.55685 0.13771 0.0
C277 C 0.23821 0.55409 0.17707 0.0
C278 C 0.24826 0.53304 0.16457 0.0
C279 C 0.19583 0.55858 0.18693 0.0
C280 C 0.21824 0.57573 0.08222 0.0
H281 H 0.31389 0.55999 0.34045 0.0
H282 H 0.32393 0.48313 0.24807 0.0
H283 H 0.30462 0.51634 0.1103 0.0
H284 H 0.28046 0.5008 0.0857 0.0
H285 H 0.30366 0.4866 0.12578 0.0
H286 H 0.26645 0.48894 0.28361 0.0
H287 H 0.28181 0.47082 0.22598 0.0
H288 H 0.25538 0.48255 0.20009 0.0
H289 H 0.25621 0.6173 0.39953 0.0
H290 H 0.19793 0.6289 0.27049 0.0
H291 H 0.21009 0.60086 0.19142 0.0
H292 H 0.28175 0.55601 0.39528 0.0
H293 H 0.25441 0.56676 0.40382 0.0
H294 H 0.27791 0.58377 0.42869 0.0
H295 H 0.29049 0.61093 0.26958 0.0
H296 H 0.30573 0.58579 0.26387 0.0
H297 H 0.30324 0.59996 0.34658 0.0
H298 H 0.3462 0.539 0.37318 0.0
C299 C 0.31535 0.54358 0.31889 0.0
C300 C 0.87451 0.2287 0.36159 0.0
C301 C 0.86338 0.20845 0.34675 0.0
C302 C 0.86783 0.19785 0.28258 0.0
C303 C 0.89851 0.22339 0.26109 0.0
C304 C 0.89223 0.23563 0.31862 0.0
C305 C 0.9083 0.25447 0.33295 0.0
H306 H 1.00567 0.30891 0.27194 0.0
C307 C 0.92045 0.23192 0.23677 0.0
C308 C 0.92617 0.2503 0.27777 0.0
H309 H 0.95107 0.3253 0.41113 0.0
H310 H 0.93114 0.29301 0.3749 0.0
H311 H 1.00162 0.2499 0.30156 0.0
H312 H 0.97317 0.29007 0.13433 0.0
H313 H 0.98972 0.26687 0.10669 0.0
H314 H 1.00291 0.28998 0.15011 0.0
H315 H 0.01936 0.2665 0.24598 0.0
H316 H 0.00803 0.24032 0.21637 0.0
C317 C 0.91771 0.25129 0.40765 0.0
C318 C 0.89558 0.27685 0.32064 0.0
C319 C 0.9614 0.18494 0.06068 0.0
C320 C 0.98266 0.18507 0.02971 0.0
C321 C 0.99754 0.20264 0.04836 0.0
C322 C 0.99098 0.21967 0.09607 0.0
C323 C 0.9694 0.21909 0.1262 0.0
C324 C 0.95522 0.20174 0.10746 0.0
C325 C 0.93321 0.20251 0.14412 0.0
C326 C 0.93609 0.22314 0.18854 0.0
C327 C 0.95729 0.23327 0.1789 0.0
C328 C 0.93103 0.18075 0.1884 0.0
C329 C 0.91459 0.20584 0.08862 0.0
C330 C 0.98941 0.3053 0.29426 0.0
C331 C 0.97975 0.32011 0.34392 0.0
C332 C 0.95869 0.31469 0.37202 0.0
C333 C 0.94702 0.29577 0.35069 0.0
C334 C 0.95626 0.2815 0.30051 0.0
C335 C 0.97716 0.28601 0.27281 0.0
C336 C 0.98361 0.26809 0.21971 0.0
C337 C 0.96273 0.253 0.21882 0.0
C338 C 0.94706 0.26121 0.26751 0.0
C339 C 1.00435 0.25548 0.24699 0.0
C340 C 0.98766 0.2793 0.14863 0.0
H341 H 0.88876 0.19539 0.19452 0.0
H342 H 0.87113 0.23764 0.40941 0.0
H343 H 0.88069 0.27459 0.28655 0.0
H344 H 0.90599 0.28942 0.29306 0.0
H345 H 0.88953 0.28412 0.37035 0.0
H346 H 0.92041 0.23321 0.41928 0.0
H347 H 0.90594 0.25798 0.44724 0.0
H348 H 0.93429 0.2591 0.41541 0.0
H349 H 0.94963 0.17155 0.05017 0.0
H350 H 0.01412 0.20335 0.02562 0.0
H351 H 1.00284 0.23265 0.10786 0.0
H352 H 0.94773 0.17437 0.20487 0.0
H353 H 0.9227 0.16718 0.1586 0.0
H354 H 0.92195 0.18325 0.2378 0.0
H355 H 0.92082 0.21585 0.04368 0.0
H356 H 0.90012 0.2155 0.10847 0.0
H357 H 0.90861 0.18953 0.06807 0.0
H358 H 0.85964 0.1823 0.26869 0.0
C359 C 0.88524 0.20525 0.23974 0.0
C360 C 0.30027 0.98524 0.06536 0.0
C361 C 0.31445 0.97257 0.02063 0.0
C362 C 0.3082 0.95036 1.00471 0.0
C363 C 0.27956 0.95143 0.09255 0.0
C364 C 0.28221 0.97421 0.09955 0.0
C365 C 0.26467 0.9834 0.14978 0.0
H366 H 0.19038 0.95827 0.40993 0.0
C367 C 0.2642 0.94316 0.14606 0.0
C368 C 0.25278 0.96175 0.17385 0.0
H369 H 0.17576 0.00717 0.25067 0.0
H370 H 0.20937 0.99518 0.18615 0.0
H371 H 0.19788 0.92086 0.30457 0.0
H372 H 0.24393 0.96242 0.41617 0.0
H373 H 0.25913 0.93783 0.39937 0.0
H374 H 0.23408 0.93653 0.45206 0.0
H375 H 0.20288 0.91926 0.39659 0.0
H376 H 0.21952 0.90352 0.33612 0.0
C377 C 0.24909 0.99965 0.11074 0.0
C378 C 0.27624 0.99515 0.21127 0.0
C379 C 0.29504 0.87529 0.27128 0.0
C380 C 0.29559 0.87086 0.34316 0.0
C381 C 0.27842 0.87975 0.38524 0.0
C382 C 0.26295 0.89503 0.35787 0.0
C383 C 0.26507 0.90208 0.28838 0.0
C384 C 0.28075 0.89204 0.24585 0.0
C385 C 0.28231 0.9033 0.17573 0.0
C386 C 0.26625 0.92306 0.18583 0.0
C387 C 0.25575 0.9216 0.25098 0.0
C388 C 0.27336 0.88666 0.12104 0.0
C389 C 0.30696 0.91061 0.16157 0.0
C390 C 0.19472 0.96719 0.3627 0.0
C391 C 0.18052 0.98393 0.33635 0.0
C392 C 0.18675 0.99476 0.27356 0.0
C393 C 0.20641 0.98835 0.23712 0.0
C394 C 0.22038 0.97163 0.26502 0.0
C395 C 0.21386 0.96084 0.32557 0.0
C396 C 0.22736 0.94008 0.33932 0.0
C397 C 0.24145 0.93902 0.27383 0.0
C398 C 0.23884 0.95843 0.2334 0.0
C399 C 0.21119 0.91978 0.34493 0.0
C400 C 0.24181 0.94424 0.40522 0.0
H401 H 0.2865 0.9229 0.02686 0.0
H402 H 0.30381 1.00269 0.07588 0.0
H403 H 0.28811 0.98356 0.23767 0.0
H404 H 0.26364 1.00075 0.25007 0.0
H405 H 0.28571 0.0101 0.19317 0.0
H406 H 0.237 0.99038 0.07757 0.0
H407 H 0.25894 0.0111 0.0768 0.0
H408 H 0.23987 0.01054 0.14746 0.0
H409 H 0.30738 0.86783 0.23715 0.0
H410 H 0.2781 0.87661 0.4407 0.0
H411 H 0.25088 0.90186 0.39322 0.0
H412 H 0.25735 0.87897 0.13868 0.0
H413 H 0.28565 0.87298 0.11212 0.0
H414 H 0.26971 0.89485 0.07082 0.0
H415 H 0.31002 0.92809 0.17891 0.0
H416 H 0.31149 0.90891 0.10605 0.0
H417 H 0.31949 0.90014 0.18893 0.0
H418 H 0.31769 0.94069 0.96726 0.0
C419 C 0.29058 0.9399 0.0397 0.0
C420 C 0.51759 0.2856 0.05477 0.0
C421 C 0.52862 0.30338 0.01919 0.0
C422 C 0.55212 0.30436 0.02085 0.0
C423 C 0.55318 0.27437 0.10509 0.0
C424 C 0.53053 0.27077 0.09663 0.0
C425 C 0.52335 0.24988 0.13698 0.0
H426 H 0.55286 0.17533 0.39728 0.0
C427 C 0.56154 0.25981 0.16117 0.0
C428 C 0.54451 0.24456 0.17957 0.0
H429 H 0.49481 0.16945 0.26485 0.0
H430 H 0.50516 0.20439 0.20602 0.0
H431 H 0.58913 0.18902 0.28315 0.0
H432 H 0.54703 0.2252 0.42409 0.0
H433 H 0.56954 0.24347 0.40887 0.0
H434 H 0.57454 0.21654 0.44918 0.0
H435 H 0.59138 0.18858 0.37637 0.0
H436 H 0.6055 0.20955 0.32559 0.0
C437 C 0.51825 0.23133 0.08357 0.0
C438 C 0.50317 0.25535 0.18383 0.0
C439 C 0.62736 0.2897 0.29684 0.0
C440 C 0.6324 0.2872 0.36773 0.0
C441 C 0.62567 0.26744 0.40196 0.0
C442 C 0.61148 0.25208 0.36854 0.0
C443 C 0.60332 0.25703 0.30148 0.0
C444 C 0.61176 0.27533 0.26613 0.0
C445 C 0.59884 0.28044 0.20093 0.0
C446 C 0.58084 0.26234 0.2036 0.0
C447 C 0.58375 0.24859 0.26191 0.0
C448 C 0.61477 0.27765 0.13769 0.0
C449 C 0.58893 0.30441 0.2089 0.0
C450 C 0.54256 0.18107 0.35445 0.0
C451 C 0.5234 0.16904 0.33463 0.0
C452 C 0.50989 0.1781 0.28084 0.0
C453 C 0.51607 0.19818 0.24598 0.0
C454 C 0.53599 0.20935 0.26482 0.0
C455 C 0.54857 0.20069 0.3191 0.0
C456 C 0.56868 0.21466 0.33551 0.0
C457 C 0.56774 0.23175 0.27741 0.0
C458 C 0.54823 0.22932 0.2365 0.0
C459 C 0.58988 0.19976 0.33034 0.0
C460 C 0.56495 0.22548 0.40814 0.0
H461 H 0.58222 0.29176 0.06306 0.0
H462 H 0.49958 0.28378 0.05165 0.0
H463 H 0.50704 0.26992 0.21773 0.0
H464 H 0.49877 0.24111 0.21801 0.0
H465 H 0.48821 0.25955 0.15203 0.0
H466 H 0.53176 0.2304 0.0438 0.0
H467 H 0.50222 0.23478 0.05621 0.0
H468 H 0.51732 0.21458 0.10744 0.0
H469 H 0.63281 0.30453 0.26901 0.0
H470 H 0.62957 0.26488 0.45641 0.0
H471 H 0.6062 0.23778 0.39806 0.0
H472 H 0.63064 0.26898 0.15184 0.0
H473 H 0.61947 0.29413 0.11505 0.0
H474 H 0.60717 0.26713 0.09641 0.0
H475 H 0.5809 0.30636 0.26078 0.0
H476 H 0.57595 0.30869 0.17081 0.0
H477 H 0.60223 0.31733 0.2041 0.0
H478 H 0.56097 0.31728 0.99215 0.0
C479 C 0.56442 0.28974 0.06249 0.0
Tb480 Tb 0.01398 0.98761 0.76609 0.0
Eu481 Eu 0.98426 0.00776 0.63807 0.0
C482 C 0.0371 0.99956 0.61992 0.0
C483 C 1.0016 0.03922 0.76206 0.0
C484 C 0.05884 0.95944 0.86761 0.0
C485 C 0.09445 0.94585 0.82249 0.0
C486 C 0.07638 0.96079 0.81886 0.0
C487 C 0.05971 0.94328 0.92012 0.0
C488 C 0.07747 0.92825 0.92326 0.0
C489 C 0.0951 0.92923 0.87448 0.0
C490 C 0.0388 0.97362 0.86284 0.0
O491 O 0.97935 0.98186 0.80011 0.0
O492 O 0.96152 0.00781 0.73204 0.0
O493 O 0.98461 0.97029 0.61946 0.0
O494 O 0.0123 0.95891 0.6952 0.0
C495 C 0.96167 0.99422 0.78583 0.0
O496 O 0.95294 0.00722 0.57984 0.0
O497 O 0.97922 0.03062 0.55111 0.0
O498 O 0.01756 1.00006 0.58874 0.0
O499 O 0.03866 0.99872 0.68827 0.0
O500 O 1.00323 0.02095 0.80004 0.0
O501 O 0.99891 0.03788 0.69431 0.0
C502 C 0.99837 0.95489 0.64354 0.0
O503 O 0.04113 0.99315 0.83325 0.0
O504 O 0.02062 0.96344 0.84268 0.0
C505 C 0.94152 0.04271 0.53656 0.0
C506 C 0.9094 0.07694 0.51939 0.0
C507 C 0.90259 0.05508 0.53621 0.0
C508 C 0.91852 0.03807 0.54434 0.0
C509 C 0.94826 0.06471 0.5212 0.0
C510 C 0.9324 0.08162 0.51305 0.0
C511 C 0.95836 0.02462 0.54214 0.0
H512 H 0.10769 0.94714 0.78418 0.0
H513 H 0.07593 0.97309 0.77738 0.0
H514 H 0.04622 0.94183 0.95764 0.0
H515 H 0.07684 0.91529 0.96269 0.0
H516 H 0.88496 0.05102 0.54096 0.0
H517 H 0.91279 0.02124 0.55571 0.0
H518 H 0.9658 0.06888 0.51468 0.0
H519 H 0.93814 0.09841 0.50105 0.0
Tb520 Tb 0.51666 0.01337 0.79409 0.0
Eu521 Eu 0.49924 0.97851 0.67519 0.0
C522 C 0.50467 0.03124 0.64219 0.0
C523 C 0.46528 0.99893 0.79027 0.0
C524 C 0.54618 0.06098 0.87435 0.0
C525 C 0.5767 0.0801 0.81536 0.0
C526 C 0.56037 0.06333 0.81651 0.0
C527 C 0.54734 0.07659 0.92846 0.0
C528 C 0.56351 0.09353 0.92701 0.0
C529 C 0.57886 0.09493 0.87163 0.0
C530 C 0.53127 0.04152 0.88062 0.0
O531 O 0.52288 0.97989 0.83852 0.0
O532 O 0.49725 0.95961 0.77654 0.0
O533 O 0.53709 0.97738 0.67108 0.0
O534 O 0.54431 0.01159 0.71924 0.0
C535 C 0.51069 0.96167 0.83012 0.0
O536 O 0.50213 0.94552 0.62757 0.0
O537 O 0.4783 0.96961 0.58666 0.0
O538 O 0.50585 0.01083 0.61687 0.0
O539 O 0.50432 0.03479 0.70974 0.0
O540 O 0.48271 1.0047 0.82827 0.0
O541 O 0.46769 0.99196 0.72576 0.0
C542 C 0.55074 0.99425 0.68217 0.0
O543 O 0.51187 0.04324 0.85008 0.0
O544 O 0.54061 0.02215 0.86883 0.0
C545 C 0.46821 0.93155 0.58405 0.0
C546 C 0.4331 0.90022 0.57604 0.0
C547 C 0.4348 0.91467 0.63353 0.0
C548 C 0.45227 0.93021 0.63756 0.0
C549 C 0.46722 0.9165 0.52844 0.0
C550 C 0.44981 0.90092 0.52445 0.0
C551 C 0.48551 0.94895 0.58489 0.0
H552 H 0.58833 0.08083 0.77211 0.0
H553 H 0.55949 0.05159 0.77376 0.0
H554 H 0.53642 0.07508 0.97326 0.0
H555 H 0.565 0.10453 0.97153 0.0
H556 H 0.42222 0.91444 0.67415 0.0
H557 H 0.45298 0.94161 0.68131 0.0
H558 H 0.47949 0.91728 0.48697 0.0
H559 H 0.44877 0.89027 0.479 0.0
Tb560 Tb 0.4898 0.49917 0.76605 0.0
Eu561 Eu 0.52532 0.48365 0.64851 0.0
C562 C 0.47281 0.48774 0.61422 0.0
C563 C 0.50694 0.44894 0.7625 0.0
C564 C 0.4406 0.52683 0.8398 0.0
C565 C 0.4138 0.54575 0.76447 0.0
C566 C 0.42962 0.52884 0.77536 0.0
C567 C 0.4348 0.54122 0.89411 0.0
C568 C 0.41906 0.55813 0.88332 0.0
C569 C 0.40876 0.56097 0.81786 0.0
C570 C 0.45945 0.51127 0.84882 0.0
O571 O 0.52066 0.49393 0.82591 0.0
O572 O 0.54559 0.49851 0.73663 0.0
O573 O 0.51357 0.51785 0.61375 0.0
O574 O 0.50229 0.53077 0.72026 0.0
C575 C 0.54126 0.49726 0.80357 0.0
O576 O 0.55601 0.4902 0.59016 0.0
O577 O 0.53732 0.45962 0.57203 0.0
O578 O 0.49095 0.47569 0.60348 0.0
O579 O 0.47154 0.50125 0.66789 0.0
O580 O 0.48965 0.46238 0.77 0.0
O581 O 0.52454 0.4554 0.72688 0.0
C582 C 0.50774 0.53446 0.65467 0.0
O583 O 0.45857 0.49299 0.81203 0.0
O584 O 0.47934 0.52034 0.84718 0.0
C585 C 0.57644 0.45719 0.57003 0.0
C586 C 0.61186 0.42637 0.58325 0.0
C587 C 0.59946 0.43288 0.64201 0.0
C588 C 0.58188 0.44822 0.63544 0.0
C589 C 0.58963 0.45189 0.51226 0.0
C590 C 0.60726 0.43664 0.51879 0.0
C591 C 0.55598 0.47048 0.56108 0.0
H592 H 0.40614 0.5474 0.71366 0.0
H593 H 0.4338 0.51783 0.73269 0.0
H594 H 0.44318 0.54002 0.94396 0.0
H595 H 0.41606 0.56983 0.92527 0.0
H596 H 0.60262 0.42528 0.69226 0.0
H597 H 0.57187 0.45228 0.68074 0.0
H598 H 0.58563 0.45869 0.46147 0.0
H599 H 0.6162 0.43169 0.47226 0.0
Tb600 Tb 0.9966 0.48179 0.76604 0.0
Eu601 Eu 0.01889 0.51156 0.64308 0.0
C602 C 0.0115 0.45833 0.62652 0.0
C603 C 0.04972 0.49011 0.76476 0.0
C604 C 0.95248 0.47085 0.88222 0.0
C605 C 0.91745 0.48541 0.83601 0.0
C606 C 0.93522 0.4703 0.83229 0.0
C607 C 0.94977 0.48444 0.94128 0.0
C608 C 0.9318 0.49938 0.94544 0.0
C609 C 0.91631 0.50084 0.89068 0.0
C610 C 0.97524 0.46343 0.86246 0.0
O611 O 0.98793 0.51698 0.78547 0.0
O612 O 0.01983 0.53188 0.74195 0.0
O613 O 0.98144 0.51526 0.62589 0.0
O614 O 0.96869 0.48628 0.69361 0.0
C615 C 1.00275 0.53325 0.78449 0.0
O616 O 0.02083 0.54393 0.5906 0.0
O617 O 0.04108 0.51613 0.55426 0.0
O618 O 0.01104 0.47792 0.59508 0.0
O619 O 0.01084 0.45684 0.69498 0.0
O620 O 0.03143 0.48573 0.80077 0.0
O621 O 0.0488 0.49694 0.69972 0.0
C622 C 0.96523 0.50182 0.64628 0.0
O623 O 0.97728 0.45447 0.80093 0.0
O624 O 0.99085 0.47829 0.87336 0.0
C625 C 0.05686 0.55268 0.54625 0.0
C626 C 0.09399 0.58158 0.53264 0.0
C627 C 0.07255 0.59038 0.54476 0.0
C628 C 0.05411 0.57604 0.55108 0.0
C629 C 0.07846 0.54393 0.53599 0.0
C630 C 0.0968 0.55823 0.52938 0.0
C631 C 0.0372 0.53764 0.55009 0.0
H632 H 0.90534 0.48595 0.79404 0.0
H633 H 0.9365 0.45978 0.78667 0.0
H634 H 0.96276 0.48521 0.98057 0.0
H635 H 0.93109 0.51106 0.98846 0.0
H636 H 0.06995 0.60833 0.54693 0.0
H637 H 0.03763 0.58326 0.55865 0.0
H638 H 0.08123 0.52604 0.53211 0.0
H639 H 0.11323 0.55102 0.52073 0.0
C640 C 0.14548 0.96979 0.39449 0.0
C641 C 0.15848 0.98807 0.37188 0.0
C642 C 0.12567 0.97281 0.43304 0.0
C643 C 0.11837 0.99472 0.44988 0.0
C644 C 0.13104 0.01333 0.42564 0.0
C645 C 0.15086 0.0098 0.38672 0.0
C646 C 0.11273 0.95242 0.45673 0.0
C647 C 0.12391 0.03697 0.44219 0.0
C648 C 0.05679 1.00016 0.50352 0.0
C649 C 0.05802 0.99972 0.57658 0.0
C650 C 0.07623 0.99926 0.46186 0.0
C651 C 0.09764 0.99787 0.49353 0.0
C652 C 0.09904 0.9979 0.5672 0.0
C653 C 0.07931 0.99881 0.60765 0.0
C654 C 0.0738 0.99918 0.38372 0.0
C655 C 0.12141 0.9964 0.60348 0.0
H656 H 0.15092 0.95292 0.38225 0.0
H657 H 0.16076 0.02402 0.36974 0.0
H658 H 0.11203 0.95194 0.51437 0.0
H659 H 0.09521 0.95333 0.4376 0.0
H660 H 0.12033 0.93654 0.43806 0.0
H661 H 0.13502 0.04965 0.41761 0.0
H662 H 0.10648 0.03985 0.42424 0.0
H663 H 0.12409 0.03952 0.49933 0.0
H664 H 0.04053 1.00087 0.47852 0.0
H665 H 0.08062 0.99849 0.66385 0.0
H666 H 0.07972 0.98292 0.3627 0.0
H667 H 0.08438 0.01248 0.36029 0.0
H668 H 0.05618 1.00179 0.36695 0.0
H669 H 0.12947 0.98012 0.59128 0.0
H670 H 0.11984 0.99788 0.66086 0.0
H671 H 0.13274 0.0098 0.58437 0.0
C672 C 0.53583 0.13249 0.38806 0.0
C673 C 0.51827 0.14722 0.3708 0.0
C674 C 0.53223 0.11324 0.42899 0.0
C675 C 0.5104 0.10812 0.45317 0.0
C676 C 0.49236 0.1223 0.4334 0.0
C677 C 0.49649 0.14165 0.3926 0.0
C678 C 0.55204 0.09875 0.44824 0.0
C679 C 0.46877 0.11742 0.45719 0.0
C680 C 0.50207 0.04822 0.52155 0.0
C681 C 0.50452 0.051 0.59376 0.0
C682 C 0.50306 0.06668 0.47549 0.0
C683 C 0.50689 0.08856 0.50174 0.0
C684 C 0.509 0.09149 0.57464 0.0
C685 C 0.50769 0.07281 0.61951 0.0
C686 C 0.50051 0.06269 0.39843 0.0
C687 C 0.51336 0.11435 0.60529 0.0
H688 H 0.55267 0.13623 0.37036 0.0
H689 H 0.48277 0.15284 0.37996 0.0
H690 H 0.55437 0.09886 0.50549 0.0
H691 H 0.54894 0.08115 0.43258 0.0
H692 H 0.56783 0.10454 0.4234 0.0
H693 H 0.45634 0.12885 0.43286 0.0
H694 H 0.46419 0.09987 0.4446 0.0
H695 H 0.4677 0.11924 0.5145 0.0
H696 H 0.49954 0.03155 0.50077 0.0
H697 H 0.50972 0.07529 0.67496 0.0
H698 H 0.51652 0.06653 0.37159 0.0
H699 H 0.48758 0.07404 0.37655 0.0
H700 H 0.49578 0.0451 0.38658 0.0
H701 H 0.52976 0.12074 0.58662 0.0
H702 H 0.51357 0.11406 0.66305 0.0
H703 H 0.50035 0.12636 0.58776 0.0
C704 C 0.37931 0.50639 0.31919 0.0
C705 C 0.3583 0.49785 0.33876 0.0
C706 C 0.39877 0.50171 0.35815 0.0
C707 C 0.39731 0.48826 0.41887 0.0
C708 C 0.37642 0.47819 0.43575 0.0
C709 C 0.35718 0.48318 0.39571 0.0
C710 C 0.4205 0.51285 0.33761 0.0
C711 C 0.37395 0.46365 0.49951 0.0
C712 C 0.45186 0.47096 0.51153 0.0
C713 C 0.45365 0.48735 0.56366 0.0
C714 C 0.43356 0.47076 0.46461 0.0
C715 C 0.41664 0.48743 0.46935 0.0
C716 C 0.41846 0.504 0.52179 0.0
C717 C 0.43678 0.50375 0.56786 0.0
C718 C 0.43235 0.45275 0.40984 0.0
C719 C 0.40108 0.52225 0.52903 0.0
H720 H 0.38021 0.51814 0.27619 0.0
H721 H 0.34094 0.47699 0.41222 0.0
H722 H 0.42431 0.52653 0.37478 0.0
H723 H 0.43456 0.50072 0.33989 0.0
H724 H 0.41971 0.5201 0.28442 0.0
H725 H 0.35783 0.45433 0.49964 0.0
H726 H 0.38794 0.45146 0.50304 0.0
H727 H 0.37459 0.4743 0.54669 0.0
H728 H 0.46469 0.45818 0.50757 0.0
H729 H 0.43798 0.51673 0.60694 0.0
H730 H 0.43255 0.46048 0.35732 0.0
H731 H 0.41636 0.4434 0.41479 0.0
H732 H 0.44648 0.4407 0.41369 0.0
H733 H 0.40033 0.53231 0.48051 0.0
H734 H 0.40468 0.53369 0.57316 0.0
H735 H 0.38427 0.51474 0.53707 0.0
C736 C 0.97706 0.36112 0.36863 0.0
C737 C 0.99021 0.34157 0.36827 0.0
C738 C 0.98313 0.38006 0.40778 0.0
C739 C 1.00325 0.37991 0.44686 0.0
C740 C 0.01756 0.36091 0.44226 0.0
C741 C 0.01079 0.34188 0.40353 0.0
C742 C 0.96715 0.39965 0.41093 0.0
C743 C 0.03948 0.36019 0.48114 0.0
C744 C 0.02001 0.43788 0.51475 0.0
C745 C 0.0117 0.4375 0.58318 0.0
C746 C 0.0187 0.41886 0.47131 0.0
C747 C 0.00819 0.39904 0.49575 0.0
C748 C 1.00028 0.3984 0.56542 0.0
C749 C 1.00239 0.41746 0.60837 0.0
C750 C 0.02798 0.42025 0.39843 0.0
C751 C 0.98856 0.3779 0.59369 0.0
H752 H 0.96115 0.36106 0.34144 0.0
H753 H 0.02097 0.32684 0.40421 0.0
H754 H 0.9607 0.40151 0.46477 0.0
H755 H 0.97595 0.41542 0.39732 0.0
H756 H 0.95266 0.39759 0.37527 0.0
H757 H 0.05024 0.3461 0.46372 0.0
H758 H 0.04878 0.37614 0.47417 0.0
H759 H 0.03616 0.35814 0.53756 0.0
H760 H 0.02744 0.45317 0.4948 0.0
H761 H 0.9958 0.41696 0.6609 0.0
H762 H 0.01401 0.42044 0.36043 0.0
H763 H 0.03841 0.40531 0.38696 0.0
H764 H 0.03827 0.43554 0.39034 0.0
H765 H 0.97286 0.37498 0.56411 0.0
H766 H 0.9843 0.37959 0.64968 0.0
H767 H 0.99926 0.36288 0.5869 0.0
C768 C 0.84746 0.99323 0.01725 0.0
C769 C 0.8491 0.01078 0.06539 0.0
C770 C 0.86592 0.98722 0.97503 0.0
C771 C 0.88648 0.9991 0.98084 0.0
C772 C 0.88856 0.01576 0.03289 0.0
C773 C 0.86993 0.02135 0.07425 0.0
C774 C 0.86293 0.9692 0.92096 0.0
C775 C 0.90999 0.02891 0.04157 0.0
C776 C 0.94113 0.98025 0.89308 0.0
C777 C 0.94177 0.99399 0.83357 0.0
C778 C 0.92295 0.98109 0.9402 0.0
C779 C 0.90493 0.9961 0.92813 0.0
C780 C 0.90526 0.00959 0.86733 0.0
C781 C 0.92352 0.00833 0.82104 0.0
C782 C 0.9233 0.96629 1.00388 0.0
C783 C 0.88658 0.02594 0.85204 0.0
H784 H 0.83136 0.98523 0.00933 0.0
H785 H 0.87125 0.03505 0.111 0.0
H786 H 0.86199 0.97702 0.86865 0.0
H787 H 0.87749 0.95764 0.92093 0.0
H788 H 0.8474 0.95932 0.92969 0.0
H789 H 0.90971 0.0396 0.08879 0.0
H790 H 0.92458 0.01744 0.04484 0.0
H791 H 0.91256 0.03984 0.9955 0.0
H792 H 0.95501 0.96905 0.90355 0.0
H793 H 0.92365 0.01904 0.77545 0.0
H794 H 0.90733 0.95686 0.00828 0.0
H795 H 0.92485 0.97678 0.05119 0.0
H796 H 0.93742 0.95417 1.00296 0.0
H797 H 0.87021 0.01713 0.85203 0.0
H798 H 0.88876 0.03449 0.80111 0.0
H799 H 0.8859 0.03886 0.89341 0.0
C800 C 0.5268 0.84811 0.05108 0.0
C801 C 0.51174 0.84649 0.10689 0.0
C802 C 0.52877 0.86798 0.0117 0.0
C803 C 0.51508 0.88673 0.02762 0.0
C804 C 0.50072 0.88554 0.08644 0.0
C805 C 0.49919 0.86545 0.12516 0.0
C806 C 0.54439 0.86833 0.94997 0.0
C807 C 0.48576 0.90494 0.10559 0.0
C808 C 0.52694 0.94322 0.93811 0.0
C809 C 0.5119 0.94281 0.88184 0.0
C810 C 0.52813 0.92527 0.98617 0.0
C811 C 0.5139 0.90638 0.97829 0.0
C812 C 0.49858 0.906 0.92195 0.0
C813 C 0.4978 0.92407 0.87473 0.0
C814 C 0.54474 0.92643 0.04517 0.0
C815 C 0.483 0.88637 0.91116 0.0
H816 H 0.53613 0.83333 0.0357 0.0
H817 H 0.48708 0.8641 0.16702 0.0
H818 H 0.53442 0.86817 0.90126 0.0
H819 H 0.55456 0.88389 0.9498 0.0
H820 H 0.55585 0.85367 0.94959 0.0
H821 H 0.47776 0.90256 0.15726 0.0
H822 H 0.49541 0.92083 0.10611 0.0
H823 H 0.47236 0.90674 0.06597 0.0
H824 H 0.53793 0.95753 0.94448 0.0
H825 H 0.48602 0.92343 0.83191 0.0
H826 H 0.55669 0.91224 0.0415 0.0
H827 H 0.53589 0.9248 0.09568 0.0
H828 H 0.55437 0.94236 0.04506 0.0
H829 H 0.49288 0.87083 0.90332 0.0
H830 H 0.4718 0.88874 0.86559 0.0
H831 H 0.47248 0.88382 0.95811 0.0
C832 C 0.64012 0.53178 0.06499 0.0
C833 C 0.65517 0.51441 0.08123 0.0
C834 C 0.62079 0.528 0.02473 0.0
C835 C 0.61602 0.50619 0.99979 0.0
C836 C 0.63048 0.48829 0.01906 0.0
C837 C 0.64984 0.49259 0.0595 0.0
C838 C 0.60599 0.54765 0.0062 0.0
C839 C 0.62604 0.46474 0.99433 0.0
C840 C 0.55693 0.49636 0.92626 0.0
C841 C 0.5603 0.49914 0.85435 0.0
C842 C 0.57489 0.498 0.97398 0.0
C843 C 0.59688 0.50265 0.94971 0.0
C844 C 0.60039 0.50522 0.87716 0.0
C845 C 0.5822 0.5034 0.8307 0.0
C846 C 0.57029 0.495 0.05059 0.0
C847 C 0.6234 0.51029 0.84849 0.0
H848 H 0.64385 0.54866 0.08225 0.0
H849 H 0.66134 0.47906 0.07126 0.0
H850 H 0.60672 0.55068 0.94929 0.0
H851 H 0.5883 0.54393 0.0196 0.0
H852 H 0.61111 0.56325 0.03334 0.0
H853 H 0.63735 0.45235 0.01939 0.0
H854 H 0.60842 0.45993 1.00517 0.0
H855 H 0.62848 0.46389 0.9372 0.0
H856 H 0.54021 0.49291 0.94548 0.0
H857 H 0.5852 0.50549 0.77548 0.0
H858 H 0.57404 0.5108 0.0786 0.0
H859 H 0.58141 0.48187 0.07243 0.0
H860 H 0.5526 0.49029 0.06106 0.0
H861 H 0.62937 0.5266 0.869 0.0
H862 H 0.62357 0.51105 0.79076 0.0
H863 H 0.63549 0.49731 0.86571 0.0
C864 C 0.01082 0.6313 0.07023 0.0
C865 C 1.00281 0.65175 0.0441 0.0
C866 C 0.00744 0.61103 0.03387 0.0
C867 C 0.99594 0.61113 0.96922 0.0
C868 C 0.98624 0.63149 0.9457 0.0
C869 C 0.9899 0.6515 0.98311 0.0
C870 C 0.01798 0.58985 0.06165 0.0
C871 C 0.97373 0.63261 0.87762 0.0
C872 C 0.01677 0.57016 0.83055 0.0
C873 C 1.00043 0.55321 0.83132 0.0
C874 C 0.01537 0.5889 0.87478 0.0
C875 C 0.99712 0.59107 0.92163 0.0
C876 C 0.98042 0.57411 0.92248 0.0
C877 C 0.98227 0.55543 0.87755 0.0
C878 C 0.0336 0.60645 0.87141 0.0
C879 C 0.96061 0.57566 0.97099 0.0
H880 H 0.02134 0.63142 0.11618 0.0
H881 H 0.98419 0.6673 0.96155 0.0
H882 H 1.00616 0.57557 0.0575 0.0
H883 H 0.03299 0.5857 0.03012 0.0
H884 H 0.02322 0.59165 0.11679 0.0
H885 H 0.96422 0.64851 0.87204 0.0
H886 H 0.98585 0.63143 0.83399 0.0
H887 H 0.96193 0.61834 0.8728 0.0
H888 H 0.03089 0.56876 0.79535 0.0
H889 H 0.9695 0.54252 0.87885 0.0
H890 H 0.04184 0.608 0.92288 0.0
H891 H 0.02623 0.62301 0.85858 0.0
H892 H 0.04659 0.60244 0.83196 0.0
H893 H 0.9665 0.5763 0.02566 0.0
H894 H 0.94897 0.56124 0.96521 0.0
H895 H 0.9512 0.59136 0.96091 0.0
C896 C 0.86466 0.19351 0.46728 0.0
C897 C 0.85314 0.19491 0.40368 0.0
C898 C 0.86516 0.17333 0.50447 0.0
C899 C 0.85385 0.15451 0.47703 0.0
C900 C 0.83765 0.15774 0.42438 0.0
C901 C 0.8374 0.17815 0.38791 0.0
C902 C 0.88127 0.17105 0.56449 0.0
C903 C 0.82358 0.13855 0.39841 0.0
C904 C 0.89589 0.10848 0.44655 0.0
C905 C 0.89285 0.09482 0.50494 0.0
C906 C 0.88239 0.12721 0.43515 0.0
C907 C 0.86505 0.13235 0.48316 0.0
C908 C 0.86075 0.11764 0.53951 0.0
C909 C 0.87484 0.09902 0.55 0.0
C910 C 0.88759 0.14207 0.3733 0.0
C911 C 0.8421 0.12184 0.59078 0.0
H912 H 0.87618 0.20666 0.48244 0.0
H913 H 0.8273 0.17963 0.34127 0.0
H914 H 0.87419 0.16001 0.6054 0.0
H915 H 0.89709 0.16336 0.5457 0.0
H916 H 0.88531 0.18758 0.58779 0.0
H917 H 0.80784 0.14472 0.3742 0.0
H918 H 0.83311 0.12916 0.35837 0.0
H919 H 0.81941 0.1268 0.44134 0.0
H920 H 0.90938 0.10481 0.41049 0.0
H921 H 0.87229 0.08832 0.59494 0.0
H922 H 0.8924 0.15906 0.39121 0.0
H923 H 0.87258 0.14377 0.33974 0.0
H924 H 0.90149 0.1354 0.34093 0.0
H925 H 0.84918 0.12953 0.63842 0.0
H926 H 0.83417 0.10576 0.6065 0.0
H927 H 0.82897 0.13312 0.56967 0.0
C928 C 0.33723 0.87089 0.35037 0.0
C929 C 0.31672 0.86282 0.3761 0.0
C930 C 0.35669 0.87007 0.39056 0.0
C931 C 0.35576 0.86084 0.45833 0.0
C932 C 0.33596 0.85003 0.48114 0.0
C933 C 0.31654 0.85126 0.43982 0.0
C934 C 0.37751 0.88163 0.36347 0.0
C935 C 0.3346 0.83898 0.55159 0.0
C936 C 0.41348 0.8653 0.53601 0.0
C937 C 0.41244 0.88699 0.56396 0.0
C938 C 0.39424 0.85498 0.50881 0.0
C939 C 0.37376 0.86693 0.50814 0.0
C940 C 0.37221 0.88776 0.54305 0.0
C941 C 0.39157 0.89748 0.5708 0.0
C942 C 0.39635 0.83226 0.47527 0.0
C943 C 0.35068 0.90108 0.54408 0.0
H944 H 0.33778 0.87999 0.30162 0.0
H945 H 0.30094 0.84443 0.45949 0.0
H946 H 0.3804 0.89729 0.39323 0.0
H947 H 0.39242 0.87081 0.3705 0.0
H948 H 0.37612 0.88603 0.30746 0.0
H949 H 0.32161 0.82564 0.55227 0.0
H950 H 0.35094 0.8316 0.56695 0.0
H951 H 0.32993 0.85167 0.59109 0.0
H952 H 0.42954 0.8569 0.53205 0.0
H953 H 0.39063 0.91423 0.59229 0.0
H954 H 0.39974 0.83438 0.41892 0.0
H955 H 0.38066 0.82244 0.48092 0.0
H956 H 0.41044 0.82257 0.49816 0.0
H957 H 0.34696 0.9073 0.49087 0.0
H958 H 0.35166 0.91572 0.57957 0.0
H959 H 0.33646 0.89037 0.56062 0.0
C960 C 0.62673 0.32732 0.3948 0.0
C961 C 0.63846 0.30743 0.40846 0.0
C962 C 0.62915 0.34613 0.43687 0.0
C963 C 0.64374 0.34525 0.49488 0.0
C964 C 0.65637 0.32556 0.50792 0.0
C965 C 0.65346 0.30673 0.4646 0.0
C966 C 0.61504 0.36659 0.42079 0.0
C967 C 0.67279 0.32433 0.56739 0.0
C968 C 0.64597 0.40512 0.54537 0.0
C969 C 0.62627 0.40611 0.58509 0.0
C970 C 0.65493 0.38437 0.52521 0.0
C971 C 0.64351 0.36448 0.54384 0.0
C972 C 0.62615 0.3654 0.59398 0.0
C973 C 0.61771 0.38631 0.61413 0.0
C974 C 0.67443 0.38396 0.4754 0.0
C975 C 0.61385 0.34457 0.617 0.0
H976 H 0.6146 0.32789 0.35288 0.0
H977 H 0.6626 0.29141 0.47519 0.0
H978 H 0.6037 0.37027 0.46506 0.0
H979 H 0.62593 0.38143 0.41278 0.0
H980 H 0.60461 0.36442 0.37343 0.0
H981 H 0.6781 0.30683 0.57832 0.0
H982 H 0.6879 0.33427 0.55389 0.0
H983 H 0.66562 0.33164 0.61548 0.0
H984 H 0.65312 0.42045 0.52471 0.0
H985 H 0.60267 0.3869 0.64574 0.0
H986 H 0.66802 0.38334 0.42126 0.0
H987 H 0.68497 0.3689 0.48408 0.0
H988 H 0.68496 0.3992 0.48078 0.0
H989 H 0.60166 0.3397 0.57611 0.0
H990 H 0.60447 0.3474 0.66612 0.0
H991 H 0.62558 0.33038 0.62463 0.0
C992 C 0.21296 0.6226 0.46596 0.0
C993 C 0.21315 0.63462 0.40305 0.0
C994 C 0.19353 0.62184 0.50678 0.0
C995 C 0.17418 0.63324 0.48339 0.0
C996 C 0.17633 0.64969 0.43084 0.0
C997 C 0.19606 0.65036 0.39115 0.0
C998 C 0.19244 0.60544 0.56643 0.0
C999 C 0.15655 0.66358 0.4082 0.0
C1000 C 0.12671 0.59216 0.46038 0.0
C1001 C 0.11329 0.59646 0.51841 0.0
C1002 C 0.14601 0.60471 0.44735 0.0
C1003 C 0.15212 0.62216 0.49372 0.0
C1004 C 0.13803 0.62734 0.55078 0.0
C1005 C 0.1187 0.61435 0.56253 0.0
C1006 C 0.16017 0.59866 0.38479 0.0
C1007 C 0.14361 0.64584 0.60122 0.0
H1008 H 0.2264 0.61102 0.47798 0.0
H1009 H 0.19665 0.66077 0.34492 0.0
H1010 H 0.18159 0.61193 0.60868 0.0
H1011 H 0.18514 0.58942 0.54779 0.0
H1012 H 0.20936 0.6019 0.58782 0.0
H1013 H 0.16207 0.67931 0.38239 0.0
H1014 H 0.14642 0.65386 0.37037 0.0
H1015 H 0.14565 0.66778 0.45311 0.0
H1016 H 0.12219 0.57868 0.42534 0.0
H1017 H 0.10824 0.61775 0.6074 0.0
H1018 H 0.17705 0.59316 0.40186 0.0
H1019 H 0.16231 0.61349 0.35057 0.0
H1020 H 0.15265 0.58498 0.35342 0.0
H1021 H 0.15268 0.63859 0.64632 0.0
H1022 H 0.12807 0.65377 0.62139 0.0
H1023 H 0.15433 0.65897 0.57749 0.0
C1024 C 0.11462 0.81104 0.90539 0.0
C1025 C 0.13171 0.80319 0.94889 0.0
C1026 C 0.11636 0.83199 0.87323 0.0
C1027 C 0.1362 0.84476 0.8823 0.0
C1028 C 0.15517 0.83457 0.91334 0.0
C1029 C 0.15249 0.81413 0.9488 0.0
C1030 C 0.09576 0.84162 0.83858 0.0
C1031 C 0.1776 0.84613 0.91579 0.0
C1032 C 0.12058 0.90169 0.81408 0.0
C1033 C 0.1127 0.91154 0.87574 0.0
C1034 C 0.13193 0.88104 0.81576 0.0
C1035 C 0.13424 0.86961 0.87996 0.0
C1036 C 0.12903 0.88098 0.94269 0.0
C1037 C 0.1191 0.90216 0.93954 0.0
C1038 C 0.13973 0.87098 0.7481 0.0
C1039 C 0.13145 0.86995 0.01321 0.0
H1040 H 0.09864 0.80237 0.90465 0.0
H1041 H 0.16597 0.80775 0.98101 0.0
H1042 H 0.09968 0.84633 0.78419 0.0
H1043 H 0.08156 0.82959 0.83768 0.0
H1044 H 0.09019 0.85696 0.86625 0.0
H1045 H 0.19093 0.83417 0.90016 0.0
H1046 H 0.17834 0.86098 0.88099 0.0
H1047 H 0.18138 0.85135 0.96986 0.0
H1048 H 0.11654 0.9091 0.76416 0.0
H1049 H 0.11444 0.91047 0.98749 0.0
H1050 H 0.14984 0.85556 0.75561 0.0
H1051 H 0.15001 0.88346 0.71938 0.0
H1052 H 0.12506 0.86714 0.71475 0.0
H1053 H 0.12209 0.85388 0.01465 0.0
H1054 H 0.12515 0.88068 0.05613 0.0
H1055 H 0.14932 0.86627 0.02357 0.0
C1056 C 0.66916 0.12958 0.1026 0.0
C1057 C 0.69031 0.13744 0.08206 0.0
C1058 C 0.65126 0.12882 0.056 0.0
C1059 C 0.65435 0.13655 0.98699 0.0
C1060 C 0.67489 0.14677 0.9679 0.0
C1061 C 0.69284 0.14675 0.01543 0.0
C1062 C 0.62976 0.11756 0.07903 0.0
C1063 C 0.67857 0.15634 0.89618 0.0
C1064 C 0.62023 0.09847 0.8749 0.0
C1065 C 0.59924 0.10884 0.87955 0.0
C1066 C 0.63936 0.10874 0.90239 0.0
C1067 C 0.63742 0.13007 0.93406 0.0
C1068 C 0.61696 0.14196 0.9293 0.0
C1069 C 0.59788 0.13099 0.90337 0.0
C1070 C 0.66088 0.09547 0.90559 0.0
C1071 C 0.61467 0.16535 0.95792 0.0
H1072 H 0.66702 0.12203 0.15348 0.0
H1073 H 0.70905 0.15312 0.99938 0.0
H1074 H 0.61523 0.12868 0.06938 0.0
H1075 H 0.62713 0.10198 0.04863 0.0
H1076 H 0.62992 0.11309 0.13515 0.0
H1077 H 0.69018 0.17087 0.89824 0.0
H1078 H 0.68643 0.14344 0.86265 0.0
H1079 H 0.66262 0.16173 0.87165 0.0
H1080 H 0.62135 0.08137 0.85627 0.0
H1081 H 0.58171 0.13923 0.9056 0.0
H1082 H 0.66414 0.09027 0.96013 0.0
H1083 H 0.67521 0.1059 0.88835 0.0
H1084 H 0.66023 0.0802 0.87271 0.0
H1085 H 0.61141 0.1645 0.01465 0.0
H1086 H 0.60049 0.1744 0.93315 0.0
H1087 H 0.63032 0.17508 0.94984 0.0
C1088 C 0.42429 0.67117 0.8871 0.0
C1089 C 0.40906 0.68852 0.89855 0.0
C1090 C 0.41797 0.65196 0.85103 0.0
C1091 C 0.39593 0.65042 0.82362 0.0
C1092 C 0.38143 0.66922 0.82743 0.0
C1093 C 0.38807 0.68808 0.86622 0.0
C1094 C 0.43431 0.63255 0.84889 0.0
C1095 C 0.35849 0.66918 0.79474 0.0
C1096 C 0.40019 0.59453 0.74408 0.0
C1097 C 0.39575 0.5817 0.8039 0.0
C1098 C 0.3956 0.6176 0.74329 0.0
C1099 C 0.38754 0.62783 0.80459 0.0
C1100 C 0.37878 0.61423 0.85859 0.0
C1101 C 0.38277 0.59113 0.85708 0.0
C1102 C 0.40255 0.63143 0.68128 0.0
C1103 C 0.36861 0.62432 0.92321 0.0
H1104 H 0.44065 0.67191 0.9116 0.0
H1105 H 0.37644 0.70178 0.87444 0.0
H1106 H 0.43792 0.62783 0.79434 0.0
H1107 H 0.4505 0.63656 0.8745 0.0
H1108 H 0.42702 0.61772 0.87543 0.0
H1109 H 0.35562 0.68528 0.76708 0.0
H1110 H 0.35615 0.6552 0.75746 0.0
H1111 H 0.34557 0.66795 0.8361 0.0
H1112 H 0.40949 0.58732 0.70119 0.0
H1113 H 0.37811 0.58094 0.90155 0.0
H1114 H 0.42022 0.63684 0.6874 0.0
H1115 H 0.39197 0.64667 0.67647 0.0
H1116 H 0.40136 0.62151 0.63259 0.0
H1117 H 0.38177 0.63315 0.95337 0.0
H1118 H 0.36085 0.61141 0.95731 0.0
H1119 H 0.35561 0.63675 0.9089 0.0
C1120 C 0.84203 0.60872 0.9391 0.0
C1121 C 0.81985 0.6014 0.93035 0.0
C1122 C 0.85992 0.59587 0.91368 0.0
C1123 C 0.85525 0.57571 0.87791 0.0
C1124 C 0.83308 0.5711 0.85632 0.0
C1125 C 0.81554 0.58416 0.8826 0.0
C1126 C 0.88346 0.60198 0.93496 0.0
C1127 C 0.82739 0.5502 0.81591 0.0
C1128 C 0.90039 0.53381 0.82816 0.0
C1129 C 0.90053 0.51983 0.88693 0.0
C1130 C 0.8862 0.55253 0.82473 0.0
C1131 C 0.87159 0.55699 0.88091 0.0
C1132 C 0.87176 0.54286 0.94045 0.0
C1133 C 0.88642 0.52457 0.94293 0.0
C1134 C 0.88714 0.56767 0.76184 0.0
C1135 C 0.85629 0.54692 1.00149 0.0
H1136 H 0.84546 0.62259 0.97382 0.0
H1137 H 0.79848 0.5786 0.87388 0.0
H1138 H 0.88772 0.59306 0.98391 0.0
H1139 H 0.89581 0.59694 0.89485 0.0
H1140 H 0.88505 0.62027 0.94451 0.0
H1141 H 0.81095 0.5518 0.7893 0.0
H1142 H 0.84042 0.54637 0.77658 0.0
H1143 H 0.82643 0.53578 0.85237 0.0
H1144 H 0.91174 0.53033 0.78544 0.0
H1145 H 0.88669 0.51375 0.9883 0.0
H1146 H 0.89367 0.58432 0.77729 0.0
H1147 H 0.87012 0.57034 0.74024 0.0
H1148 H 0.89813 0.56083 0.72037 0.0
H1149 H 0.85947 0.56374 0.02386 0.0
H1150 H 0.85844 0.53424 0.04334 0.0
H1151 H 0.83858 0.54652 0.98399 0.0
C1152 C 0.97208 0.15751 0.93558 0.0
C1153 C 0.9886 0.16637 0.98008 0.0
C1154 C 0.97559 0.13771 0.89735 0.0
C1155 C 0.99646 0.12649 0.90125 0.0
C1156 C 0.0138 0.13611 0.9422 0.0
C1157 C 0.00964 0.15578 0.9814 0.0
C1158 C 0.95645 0.12821 0.85531 0.0
C1159 C 0.03652 0.12516 0.94666 0.0
C1160 C 0.99555 0.06313 0.86834 0.0
C1161 C 1.0013 0.06159 0.7976 0.0
C1162 C 0.99428 0.08399 0.9026 0.0
C1163 C 0.9994 0.10404 0.86614 0.0
C1164 C 1.00583 0.10256 0.79515 0.0
C1165 C 1.00639 0.08147 0.7616 0.0
C1166 C 0.98678 0.08458 0.97757 0.0
C1167 C 0.01194 0.1233 0.75438 0.0
H1168 H 0.95594 0.16576 0.93212 0.0
H1169 H 0.0226 0.16229 0.01526 0.0
H1170 H 0.9617 0.1256 0.80062 0.0
H1171 H 0.95158 0.11161 0.87662 0.0
H1172 H 0.94148 0.13927 0.85572 0.0
H1173 H 0.04898 0.13599 0.97326 0.0
H1174 H 0.03514 0.10917 0.97584 0.0
H1175 H 0.04281 0.1211 0.89384 0.0
H1176 H 0.99141 0.04799 0.89679 0.0
H1177 H 0.01101 0.08055 0.70716 0.0
H1178 H 0.97109 0.09445 0.98203 0.0
H1179 H 0.99961 0.09301 0.01 0.0
H1180 H 0.98372 0.06756 0.99907 0.0
H1181 H 0.997 0.1342 0.74858 0.0
H1182 H 0.01845 0.11925 0.70175 0.0
H1183 H 0.02481 0.13309 0.7828 0.0
C1184 C 0.35547 0.96677 1.00069 0.0
C1185 C 0.33662 0.98073 0.9937 0.0
C1186 C 0.376 0.97184 0.96842 0.0
C1187 C 0.37811 0.99157 0.92794 0.0
C1188 C 0.35947 1.00635 0.9231 0.0
C1189 C 0.33894 1.00078 0.9561 0.0
C1190 C 0.39524 0.95557 0.97587 0.0
C1191 C 0.36099 0.02766 0.88117 0.0
C1192 C 0.43883 0.00835 0.88885 0.0
C1193 C 0.4424 0.99892 0.82278 0.0
C1194 C 0.41776 0.00712 0.9221 0.0
C1195 C 0.39965 0.99598 0.88917 0.0
C1196 C 0.40297 0.98699 0.82166 0.0
C1197 C 0.42416 0.98863 0.78933 0.0
C1198 C 0.41511 0.01707 0.99372 0.0
C1199 C 0.38435 0.97477 0.78453 0.0
H1200 H 0.35397 0.95139 0.03045 0.0
H1201 H 0.32451 0.01164 0.95018 0.0
H1202 H 0.39978 0.94872 0.92412 0.0
H1203 H 0.41024 0.9643 0.99647 0.0
H1204 H 0.39116 0.94135 0.01103 0.0
H1205 H 0.34581 0.03826 0.88703 0.0
H1206 H 0.37588 0.0375 0.89719 0.0
H1207 H 0.36311 0.02351 0.82534 0.0
H1208 H 0.45264 0.01647 0.91532 0.0
H1209 H 0.42657 0.98122 0.73846 0.0
H1210 H 0.4128 1.00345 0.03239 0.0
H1211 H 0.39996 0.02782 0.99586 0.0
H1212 H 0.42989 0.02721 0.00923 0.0
H1213 H 0.3801 0.95924 0.81346 0.0
H1214 H 0.38901 0.97016 0.73048 0.0
H1215 H 0.36904 0.9853 0.78295 0.0
C1216 C 0.511 0.32163 0.9144 0.0
C1217 C 0.51693 0.32254 0.98491 0.0
C1218 C 0.50648 0.34142 0.87623 0.0
C1219 C 0.50843 0.36269 0.90886 0.0
C1220 C 0.51329 0.36349 0.98101 0.0
C1221 C 0.5174 0.34349 0.01792 0.0
C1222 C 0.50097 0.33962 0.79992 0.0
C1223 C 0.51582 0.38558 0.01833 0.0
C1224 C 0.52672 0.41373 0.80169 0.0
C1225 C 0.50687 0.42629 0.79656 0.0
C1226 C 0.52731 0.39295 0.83675 0.0
C1227 C 0.5075 0.38409 0.86703 0.0
C1228 C 0.48725 0.39637 0.8604 0.0
C1229 C 0.48721 0.41731 0.8259 0.0
C1230 C 0.54938 0.38074 0.84298 0.0
C1231 C 0.46566 0.38752 0.89068 0.0
H1232 H 0.5112 0.30558 0.88813 0.0
H1233 H 0.52255 0.34433 0.07194 0.0
H1234 H 0.49688 0.32215 0.78465 0.0
H1235 H 0.4866 0.35061 0.78658 0.0
H1236 H 0.51554 0.34532 0.76869 0.0
H1237 H 0.51777 0.38337 0.07539 0.0
H1238 H 0.53078 0.39451 0.99809 0.0
H1239 H 0.50108 0.39643 0.00849 0.0
H1240 H 0.54206 0.4204 0.7796 0.0
H1241 H 0.47172 0.4267 0.82213 0.0
H1242 H 0.54782 0.36355 0.82167 0.0
H1243 H 0.55405 0.3791 0.89862 0.0
H1244 H 0.56316 0.3895 0.81515 0.0
H1245 H 0.45105 0.39817 0.87685 0.0
H1246 H 0.46698 0.38672 0.94817 0.0
H1247 H 0.46253 0.37023 0.87197 0.0
C1248 C 0.16828 0.48055 0.97553 0.0
C1249 C 0.17783 0.5021 0.97695 0.0
C1250 C 0.14831 0.47618 0.93797 0.0
C1251 C 0.13725 0.4938 0.90189 0.0
C1252 C 0.14728 0.5153 0.90105 0.0
C1253 C 0.16748 0.51902 0.93706 0.0
C1254 C 0.13871 0.4528 0.93854 0.0
C1255 C 0.13621 0.53477 0.86434 0.0
C1256 C 0.09191 0.48563 0.76248 0.0
C1257 C 0.07205 0.48895 0.80039 0.0
C1258 C 0.11311 0.48588 0.79532 0.0
C1259 C 0.11473 0.49033 0.86766 0.0
C1260 C 0.09468 0.49341 0.90624 0.0
C1261 C 0.0737 0.49235 0.87249 0.0
C1262 C 0.13383 0.48182 0.75218 0.0
C1263 C 0.0954 0.49883 0.98285 0.0
H1264 H 0.17593 0.46725 0.0057 0.0
H1265 H 0.17491 0.53557 0.93521 0.0
H1266 H 0.12301 0.45256 0.96941 0.0
H1267 H 0.13441 0.4475 0.88489 0.0
H1268 H 0.15053 0.44043 0.96134 0.0
H1269 H 0.14611 0.55048 0.86851 0.0
H1270 H 0.13382 0.53086 0.8085 0.0
H1271 H 0.11936 0.53776 0.88696 0.0
H1272 H 0.0909 0.48284 0.70688 0.0
H1273 H 0.05855 0.49515 0.90235 0.0
H1274 H 0.14479 0.46929 0.77795 0.0
H1275 H 0.14357 0.49758 0.74743 0.0
H1276 H 0.12971 0.47581 0.69906 0.0
H1277 H 0.10503 0.48585 0.01133 0.0
H1278 H 0.0784 0.50002 0.00609 0.0
H1279 H 0.10416 0.51504 0.9907 0.0
C1280 C 0.99287 0.8357 0.4365 0.0
C1281 C 0.01489 0.82894 0.42068 0.0
C1282 C 0.98857 0.85501 0.47731 0.0
C1283 C 0.00661 0.86846 0.50147 0.0
C1284 C 0.0288 0.86137 0.48744 0.0
C1285 C 0.0326 0.84158 0.44937 0.0
C1286 C 0.96464 0.86127 0.49336 0.0
C1287 C 0.04869 0.87516 0.51041 0.0
C1288 C 0.99749 0.93119 0.53542 0.0
C1289 C 0.99912 0.93257 0.60814 0.0
C1290 C 0.99962 0.91052 0.50036 0.0
C1291 C 1.00258 0.89039 0.53877 0.0
C1292 C 1.00333 0.89162 0.61253 0.0
C1293 C 1.00212 0.91267 0.64609 0.0
C1294 C 0.99961 0.91038 0.42187 0.0
C1295 C 1.00558 0.8707 0.65614 0.0
H1296 H 0.97891 0.82633 0.41545 0.0
H1297 H 0.04974 0.8363 0.44106 0.0
H1298 H 0.96274 0.86509 0.54952 0.0
H1299 H 0.96001 0.87659 0.464 0.0
H1300 H 0.95272 0.84771 0.47931 0.0
H1301 H 0.06488 0.86778 0.49355 0.0
H1302 H 0.0474 0.89236 0.48864 0.0
H1303 H 0.04885 0.87672 0.56783 0.0
H1304 H 0.99541 0.94647 0.50557 0.0
H1305 H 1.00325 0.91353 0.70229 0.0
H1306 H 0.9862 0.89919 0.40227 0.0
H1307 H 0.01581 0.90367 0.40258 0.0
H1308 H 0.99707 0.92736 0.3995 0.0
H1309 H 1.0029 0.87407 0.71232 0.0
H1310 H 0.02255 0.86347 0.64946 0.0
H1311 H 0.99333 0.85786 0.63889 0.0
C1312 C 0.65408 0.01405 0.42778 0.0
C1313 C 0.67517 1.00659 0.45071 0.0
C1314 C 0.63451 0.01028 0.46687 0.0
C1315 C 0.63579 0.99873 0.53118 0.0
C1316 C 0.65691 0.99035 0.5535 0.0
C1317 C 0.67633 0.99431 0.51291 0.0
C1318 C 0.6125 0.01935 0.44017 0.0
C1319 C 0.65911 0.97794 0.62153 0.0
C1320 C 0.58828 0.01234 0.65829 0.0
C1321 C 0.57338 0.9944 0.64811 0.0
C1322 C 0.60896 0.01348 0.62283 0.0
C1323 C 0.61509 0.99631 0.57551 0.0
C1324 C 0.60043 0.97784 0.56653 0.0
C1325 C 0.57986 0.9771 0.6028 0.0
C1326 C 0.62396 0.03349 0.63442 0.0
C1327 C 0.6061 0.95919 0.51664 0.0
H1328 H 0.65298 0.02339 0.37949 0.0
H1329 H 0.69253 0.98863 0.5313 0.0
H1330 H 0.59984 1.00577 0.43775 0.0
H1331 H 0.60603 0.03226 0.47646 0.0
H1332 H 0.61411 0.02699 0.38767 0.0
H1333 H 0.65519 0.98943 0.66517 0.0
H1334 H 0.64689 0.96395 0.62389 0.0
H1335 H 0.67624 0.9711 0.62933 0.0
H1336 H 0.58364 0.0258 0.69315 0.0
H1337 H 0.56862 0.96311 0.59429 0.0
H1338 H 0.62512 0.04347 0.5858 0.0
H1339 H 0.64117 0.02791 0.64774 0.0
H1340 H 0.6177 0.04454 0.67661 0.0
H1341 H 0.60619 0.96578 0.46265 0.0
H1342 H 0.59393 0.94513 0.51963 0.0
H1343 H 0.62312 0.9526 0.52752 0.0
C1344 C 0.51207 0.65532 0.45906 0.0
C1345 C 0.49011 0.66346 0.45238 0.0
C1346 C 0.51679 0.63611 0.50003 0.0
C1347 C 0.49911 0.62448 0.53422 0.0
C1348 C 0.47724 0.63368 0.53162 0.0
C1349 C 0.47313 0.65308 0.49182 0.0
C1350 C 0.54051 0.62748 0.50317 0.0
C1351 C 0.4577 0.62202 0.56619 0.0
C1352 C 0.50306 0.56066 0.55296 0.0
C1353 C 0.50638 0.55767 0.62472 0.0
C1354 C 0.50093 0.58218 0.52325 0.0
C1355 C 0.50275 0.60153 0.56565 0.0
C1356 C 0.50667 0.59867 0.638 0.0
C1357 C 0.50806 0.57684 0.66676 0.0
C1358 C 0.4961 0.58414 0.4464 0.0
C1359 C 0.50926 0.61866 0.6852 0.0
H1360 H 0.52531 0.66304 0.42873 0.0
H1361 H 0.45612 0.65931 0.48753 0.0
H1362 H 0.54493 0.62259 0.55716 0.0
H1363 H 0.54204 0.61232 0.47022 0.0
H1364 H 0.55276 0.64015 0.48442 0.0
H1365 H 0.44197 0.6319 0.5624 0.0
H1366 H 0.45491 0.6055 0.54126 0.0
H1367 H 0.46134 0.61887 0.62188 0.0
H1368 H 0.50151 0.54605 0.5199 0.0
H1369 H 0.51073 0.5748 0.72216 0.0
H1370 H 0.50936 0.59417 0.42054 0.0
H1371 H 0.47998 0.59306 0.43838 0.0
H1372 H 0.49509 0.56755 0.42051 0.0
H1373 H 0.51514 0.61379 0.73792 0.0
H1374 H 0.49295 0.62738 0.69053 0.0
H1375 H 0.52131 0.63081 0.66252 0.0
C1376 C 0.84971 0.50359 0.42453 0.0
C1377 C 0.83466 0.51944 0.45137 0.0
C1378 C 0.8701 0.49869 0.4589 0.0
C1379 C 0.87566 0.50987 0.52178 0.0
C1380 C 0.85973 0.52466 0.55144 0.0
C1381 C 0.83959 0.52931 0.51589 0.0
C1382 C 0.88635 0.48263 0.42546 0.0
C1383 C 0.86459 0.53692 0.61831 0.0
C1384 C 0.92484 0.48936 0.63409 0.0
C1385 C 0.94229 0.50394 0.61449 0.0
C1386 C 0.90322 0.49101 0.60457 0.0
C1387 C 0.89871 0.50757 0.55349 0.0
C1388 C 0.91623 0.52234 0.53346 0.0
C1389 C 0.93767 0.52037 0.56403 0.0
C1390 C 0.88516 0.47504 0.62836 0.0
C1391 C 0.9123 0.54037 0.47967 0.0
H1392 H 0.84629 0.49621 0.37417 0.0
H1393 H 0.8282 0.54178 0.53663 0.0
H1394 H 0.90114 0.49203 0.40612 0.0
H1395 H 0.89246 0.47024 0.46415 0.0
H1396 H 0.8787 0.4735 0.38112 0.0
H1397 H 0.8494 0.54515 0.6398 0.0
H1398 H 0.87148 0.52535 0.65813 0.0
H1399 H 0.87739 0.55001 0.60834 0.0
H1400 H 0.92803 0.47651 0.67259 0.0
H1401 H 0.95085 0.53178 0.54818 0.0
H1402 H 0.87847 0.46561 0.58325 0.0
H1403 H 0.87101 0.48458 0.65119 0.0
H1404 H 0.89135 0.46289 0.66774 0.0
H1405 H 0.9065 0.53272 0.43031 0.0
H1406 H 0.92763 0.55035 0.46894 0.0
H1407 H 0.89891 0.55187 0.49767 0.0
loop_
_geom_bond_atom_site_label_1
_geom_bond_atom_site_label_2
_geom_bond_distance
_geom_bond_site_symmetry_2
_ccdc_geom_bond_type
C0 C1 1.391 . S
C0 C4 1.391 . S
C0 H42 0.948 . S
C1 C0 1.391 . S
C1 C2 1.391 . S
C2 C1 1.391 . S
C2 H58 0.947 . S
C2 C59 1.392 . S
C3 C4 1.391 . S
C3 C7 1.397 . S
C3 C59 1.419 . S
C4 C0 1.391 . S
C4 C3 1.391 . S
C4 C5 1.399 . S
C5 C4 1.399 . S
C5 C8 1.396 . S
C5 C17 1.453 . S
C5 C18 1.684 . S
H6 C30 0.948 . S
C7 C3 1.397 . S
C7 C8 1.394 . S
C7 C26 1.723 . S
C8 C5 1.396 . S
C8 C7 1.394 . S
C8 C38 1.723 . S
H9 C32 0.947 . S
H10 C33 0.948 . S
H11 C39 0.982 . S
H12 C40 0.979 . S
H13 C40 0.980 . S
H14 C40 0.983 . S
H15 C39 0.979 . S
H16 C39 0.977 . S
C17 C5 1.453 . S
C17 H46 0.982 . S
C17 H47 0.979 . S
C17 H48 0.977 . S
C18 C5 1.684 . S
C18 H43 0.979 . S
C18 H44 0.980 . S
C18 H45 0.983 . S
C19 C20 1.391 . S
C19 C24 1.391 . S
C19 H49 0.948 . S
C20 C19 1.391 . S
C20 C21 1.391 . S
C21 C20 1.391 . S
C21 C22 1.392 . S
C21 H50 0.947 . S
C22 C21 1.392 . S
C22 C23 1.419 . S
C22 H51 0.948 . S
C23 C22 1.419 . S
C23 C24 1.391 . S
C23 C27 1.397 . S
C24 C19 1.391 . S
C24 C23 1.391 . S
C24 C25 1.399 . S
C25 C24 1.399 . S
C25 C26 1.396 . S
C25 C28 1.453 . S
C25 C29 1.684 . S
C26 C7 1.723 . S
C26 C25 1.396 . S
C26 C27 1.394 . S
C27 C23 1.397 . S
C27 C26 1.394 . S
C27 C37 1.723 . S
C28 C25 1.453 . S
C28 H52 0.982 . S
C28 H53 0.979 . S
C28 H54 0.977 . S
C29 C25 1.684 . S
C29 H55 0.979 . S
C29 H56 0.980 . S
C29 H57 0.983 . S
C30 H6 0.948 . S
C30 C31 1.391 . S
C30 C35 1.391 . S
C31 C30 1.391 . S
C31 C32 1.391 . S
C32 H9 0.947 . S
C32 C31 1.391 . S
C32 C33 1.392 . S
C33 H10 0.948 . S
C33 C32 1.392 . S
C33 C34 1.419 . S
C34 C33 1.419 . S
C34 C35 1.391 . S
C34 C38 1.397 . S
C35 C30 1.391 . S
C35 C34 1.391 . S
C35 C36 1.399 . S
C36 C35 1.399 . S
C36 C37 1.396 . S
C36 C39 1.453 . S
C36 C40 1.684 . S
C37 C27 1.723 . S
C37 C36 1.396 . S
C37 C38 1.394 . S
C38 C8 1.723 . S
C38 C34 1.397 . S
C38 C37 1.394 . S
C39 H11 0.982 . S
C39 H15 0.979 . S
C39 H16 0.977 . S
C39 C36 1.453 . S
C40 H12 0.979 . S
C40 H13 0.980 . S
C40 H14 0.983 . S
C40 C36 1.684 . S
H41 C59 0.948 . S
H42 C0 0.948 . S
H43 C18 0.979 . S
H44 C18 0.980 . S
H45 C18 0.983 . S
H46 C17 0.982 . S
H47 C17 0.979 . S
H48 C17 0.977 . S
H49 C19 0.948 . S
H50 C21 0.947 . S
H51 C22 0.948 . S
H52 C28 0.982 . S
H53 C28 0.979 . S
H54 C28 0.977 . S
H55 C29 0.979 . S
H56 C29 0.980 . S
H57 C29 0.983 . S
H58 C2 0.947 . S
C59 C2 1.392 . S
C59 C3 1.419 . S
C59 H41 0.948 . S
C60 C61 1.391 . S
C60 C64 1.391 . S
C60 H102 0.948 . S
C61 C60 1.391 . S
C61 C62 1.391 . S
C62 C61 1.391 . S
C62 H118 0.947 . S
C62 C119 1.392 . S
C63 C64 1.391 . S
C63 C67 1.397 1_655 S
C63 C119 1.419 . S
C64 C60 1.391 . S
C64 C63 1.391 . S
C64 C65 1.399 . S
C65 C64 1.399 . S
C65 C68 1.396 1_655 S
C65 C77 1.453 1_655 S
C65 C78 1.684 . S
H66 C90 0.948 . S
C67 C63 1.397 1_455 S
C67 C68 1.394 . S
C67 C86 1.723 . S
C68 C65 1.396 1_455 S
C68 C67 1.394 . S
C68 C98 1.723 . S
H69 C92 0.947 . S
H70 C93 0.948 . S
H71 C99 0.982 . S
H72 C100 0.979 . S
H73 C100 0.980 . S
H74 C100 0.983 . S
H75 C99 0.979 . S
H76 C99 0.977 . S
C77 C65 1.453 1_455 S
C77 H106 0.982 . S
C77 H107 0.979 . S
C77 H108 0.977 . S
C78 C65 1.684 . S
C78 H103 0.979 . S
C78 H104 0.980 . S
C78 H105 0.983 . S
C79 C80 1.391 . S
C79 C84 1.391 . S
C79 H109 0.948 . S
C80 C79 1.391 . S
C80 C81 1.391 . S
C81 C80 1.391 . S
C81 C82 1.392 . S
C81 H110 0.947 . S
C82 C81 1.392 . S
C82 C83 1.419 . S
C82 H111 0.948 . S
C83 C82 1.419 . S
C83 C84 1.391 . S
C83 C87 1.397 1_655 S
C84 C79 1.391 . S
C84 C83 1.391 . S
C84 C85 1.399 . S
C85 C84 1.399 . S
C85 C86 1.396 1_655 S
C85 C88 1.453 1_655 S
C85 C89 1.684 . S
C86 C67 1.723 . S
C86 C85 1.396 1_455 S
C86 C87 1.394 . S
C87 C83 1.397 1_455 S
C87 C86 1.394 . S
C87 C97 1.723 . S
C88 C85 1.453 1_455 S
C88 H112 0.982 . S
C88 H113 0.979 . S
C88 H114 0.977 . S
C89 C85 1.684 . S
C89 H115 0.979 . S
C89 H116 0.980 . S
C89 H117 0.983 . S
C90 H66 0.948 . S
C90 C91 1.391 . S
C90 C95 1.391 . S
C91 C90 1.391 . S
C91 C92 1.391 . S
C92 H69 0.947 . S
C92 C91 1.391 . S
C92 C93 1.392 . S
C93 H70 0.948 . S
C93 C92 1.392 . S
C93 C94 1.419 . S
C94 C93 1.419 . S
C94 C95 1.391 . S
C94 C98 1.397 1_655 S
C95 C90 1.391 . S
C95 C94 1.391 . S
C95 C96 1.399 . S
C96 C95 1.399 . S
C96 C97 1.396 1_655 S
C96 C99 1.453 1_655 S
C96 C100 1.684 . S
C97 C87 1.723 . S
C97 C96 1.396 1_455 S
C97 C98 1.394 . S
C98 C68 1.723 . S
C98 C94 1.397 1_455 S
C98 C97 1.394 . S
C99 H71 0.982 . S
C99 H75 0.979 . S
C99 H76 0.977 . S
C99 C96 1.453 1_455 S
C100 H72 0.979 . S
C100 H73 0.980 . S
C100 H74 0.983 . S
C100 C96 1.684 . S
H101 C119 0.948 . S
H102 C60 0.948 . S
H103 C78 0.979 . S
H104 C78 0.980 . S
H105 C78 0.983 . S
H106 C77 0.982 . S
H107 C77 0.979 . S
H108 C77 0.977 . S
H109 C79 0.948 . S
H110 C81 0.947 . S
H111 C82 0.948 . S
H112 C88 0.982 . S
H113 C88 0.979 . S
H114 C88 0.977 . S
H115 C89 0.979 . S
H116 C89 0.980 . S
H117 C89 0.983 . S
H118 C62 0.947 . S
C119 C62 1.392 . S
C119 C63 1.419 . S
C119 H101 0.948 . S
C120 C121 1.391 . S
C120 C124 1.391 . S
C120 H162 0.948 . S
C121 C120 1.391 . S
C121 C122 1.391 . S
C122 C121 1.391 . S
C122 H178 0.947 . S
C122 C179 1.392 . S
C123 C124 1.391 . S
C123 C127 1.397 1_565 S
C123 C179 1.419 . S
C124 C120 1.391 . S
C124 C123 1.391 . S
C124 C125 1.399 . S
C125 C124 1.399 . S
C125 C128 1.396 1_565 S
C125 C137 1.453 1_565 S
C125 C138 1.684 . S
H126 C150 0.948 . S
C127 C123 1.397 1_545 S
C127 C128 1.394 . S
C127 C146 1.723 . S
C128 C125 1.396 1_545 S
C128 C127 1.394 . S
C128 C158 1.723 . S
H129 C152 0.947 . S
H130 C153 0.948 . S
H131 C159 0.982 . S
H132 C160 0.979 . S
H133 C160 0.980 . S
H134 C160 0.983 . S
H135 C159 0.979 . S
H136 C159 0.977 . S
C137 C125 1.453 1_545 S
C137 H166 0.982 . S
C137 H167 0.979 . S
C137 H168 0.977 . S
C138 C125 1.684 . S
C138 H163 0.979 . S
C138 H164 0.980 . S
C138 H165 0.983 . S
C139 C140 1.391 . S
C139 C144 1.391 . S
C139 H169 0.948 . S
C140 C139 1.391 . S
C140 C141 1.391 . S
C141 C140 1.391 . S
C141 C142 1.392 . S
C141 H170 0.947 . S
C142 C141 1.392 . S
C142 C143 1.419 . S
C142 H171 0.948 . S
C143 C142 1.419 . S
C143 C144 1.391 . S
C143 C147 1.397 1_565 S
C144 C139 1.391 . S
C144 C143 1.391 . S
C144 C145 1.399 . S
C145 C144 1.399 . S
C145 C146 1.396 1_565 S
C145 C148 1.453 1_565 S
C145 C149 1.684 . S
C146 C127 1.723 . S
C146 C145 1.396 1_545 S
C146 C147 1.394 . S
C147 C143 1.397 1_545 S
C147 C146 1.394 . S
C147 C157 1.723 . S
C148 C145 1.453 1_545 S
C148 H172 0.982 . S
C148 H173 0.979 . S
C148 H174 0.977 . S
C149 C145 1.684 . S
C149 H175 0.979 . S
C149 H176 0.980 . S
C149 H177 0.983 . S
C150 H126 0.948 . S
C150 C151 1.391 . S
C150 C155 1.391 . S
C151 C150 1.391 . S
C151 C152 1.391 . S
C152 H129 0.947 . S
C152 C151 1.391 . S
C152 C153 1.392 . S
C153 H130 0.948 . S
C153 C152 1.392 . S
C153 C154 1.419 . S
C154 C153 1.419 . S
C154 C155 1.391 . S
C154 C158 1.397 1_565 S
C155 C150 1.391 . S
C155 C154 1.391 . S
C155 C156 1.399 . S
C156 C155 1.399 . S
C156 C157 1.396 1_565 S
C156 C159 1.453 1_565 S
C156 C160 1.684 . S
C157 C147 1.723 . S
C157 C156 1.396 1_545 S
C157 C158 1.394 . S
C158 C128 1.723 . S
C158 C154 1.397 1_545 S
C158 C157 1.394 . S
C159 H131 0.982 . S
C159 H135 0.979 . S
C159 H136 0.977 . S
C159 C156 1.453 1_545 S
C160 H132 0.979 . S
C160 H133 0.980 . S
C160 H134 0.983 . S
C160 C156 1.684 . S
H161 C179 0.948 . S
H162 C120 0.948 . S
H163 C138 0.979 . S
H164 C138 0.980 . S
H165 C138 0.983 . S
H166 C137 0.982 . S
H167 C137 0.979 . S
H168 C137 0.977 . S
H169 C139 0.948 . S
H170 C141 0.947 . S
H171 C142 0.948 . S
H172 C148 0.982 . S
H173 C148 0.979 . S
H174 C148 0.977 . S
H175 C149 0.979 . S
H176 C149 0.980 . S
H177 C149 0.983 . S
H178 C122 0.947 . S
C179 C122 1.392 . S
C179 C123 1.419 . S
C179 H161 0.948 . S
C180 C181 1.391 . S
C180 C184 1.391 . S
C180 H222 0.948 . S
C181 C180 1.391 . S
C181 C182 1.391 . S
C182 C181 1.391 . S
C182 H238 0.947 . S
C182 C239 1.392 . S
C183 C184 1.391 . S
C183 C187 1.397 . S
C183 C239 1.419 . S
C184 C180 1.391 . S
C184 C183 1.391 . S
C184 C185 1.399 . S
C185 C184 1.399 . S
C185 C188 1.396 . S
C185 C197 1.453 . S
C185 C198 1.684 . S
H186 C210 0.948 . S
C187 C183 1.397 . S
C187 C188 1.394 . S
C187 C206 1.723 . S
C188 C185 1.396 . S
C188 C187 1.394 . S
C188 C218 1.723 . S
H189 C212 0.947 . S
H190 C213 0.948 . S
H191 C219 0.982 . S
H192 C220 0.979 . S
H193 C220 0.980 . S
H194 C220 0.983 . S
H195 C219 0.979 . S
H196 C219 0.977 . S
C197 C185 1.453 . S
C197 H226 0.982 . S
C197 H227 0.979 . S
C197 H228 0.977 . S
C198 C185 1.684 . S
C198 H223 0.979 . S
C198 H224 0.980 . S
C198 H225 0.983 . S
C199 C200 1.391 . S
C199 C204 1.391 . S
C199 H229 0.948 . S
C200 C199 1.391 . S
C200 C201 1.391 . S
C201 C200 1.391 . S
C201 C202 1.392 . S
C201 H230 0.947 . S
C202 C201 1.392 . S
C202 C203 1.419 . S
C202 H231 0.948 . S
C203 C202 1.419 . S
C203 C204 1.391 . S
C203 C207 1.397 . S
C204 C199 1.391 . S
C204 C203 1.391 . S
C204 C205 1.399 . S
C205 C204 1.399 . S
C205 C206 1.396 . S
C205 C208 1.453 . S
C205 C209 1.684 . S
C206 C187 1.723 . S
C206 C205 1.396 . S
C206 C207 1.394 . S
C207 C203 1.397 . S
C207 C206 1.394 . S
C207 C217 1.723 . S
C208 C205 1.453 . S
C208 H232 0.982 . S
C208 H233 0.979 . S
C208 H234 0.977 . S
C209 C205 1.684 . S
C209 H235 0.979 . S
C209 H236 0.980 . S
C209 H237 0.983 . S
C210 H186 0.948 . S
C210 C211 1.391 . S
C210 C215 1.391 . S
C211 C210 1.391 . S
C211 C212 1.391 . S
C212 H189 0.947 . S
C212 C211 1.391 . S
C212 C213 1.392 . S
C213 H190 0.948 . S
C213 C212 1.392 . S
C213 C214 1.419 . S
C214 C213 1.419 . S
C214 C215 1.391 . S
C214 C218 1.397 . S
C215 C210 1.391 . S
C215 C214 1.391 . S
C215 C216 1.399 . S
C216 C215 1.399 . S
C216 C217 1.396 . S
C216 C219 1.453 . S
C216 C220 1.684 . S
C217 C207 1.723 . S
C217 C216 1.396 . S
C217 C218 1.394 . S
C218 C188 1.723 . S
C218 C214 1.397 . S
C218 C217 1.394 . S
C219 H191 0.982 . S
C219 H195 0.979 . S
C219 H196 0.977 . S
C219 C216 1.453 . S
C220 H192 0.979 . S
C220 H193 0.980 . S
C220 H194 0.983 . S
C220 C216 1.684 . S
H221 C239 0.948 . S
H222 C180 0.948 . S
H223 C198 0.979 . S
H224 C198 0.980 . S
H225 C198 0.983 . S
H226 C197 0.982 . S
H227 C197 0.979 . S
H228 C197 0.977 . S
H229 C199 0.948 . S
H230 C201 0.947 . S
H231 C202 0.948 . S
H232 C208 0.982 . S
H233 C208 0.979 . S
H234 C208 0.977 . S
H235 C209 0.979 . S
H236 C209 0.980 . S
H237 C209 0.983 . S
H238 C182 0.947 . S
C239 C182 1.392 . S
C239 C183 1.419 . S
C239 H221 0.948 . S
C240 C241 1.391 . S
C240 C244 1.391 . S
C240 H282 0.948 . S
C241 C240 1.391 . S
C241 C242 1.391 . S
C242 C241 1.391 . S
C242 H298 0.947 . S
C242 C299 1.392 . S
C243 C244 1.391 . S
C243 C247 1.397 . S
C243 C299 1.419 . S
C244 C240 1.391 . S
C244 C243 1.391 . S
C244 C245 1.399 1_554 S
C245 C244 1.399 1_556 S
C245 C248 1.396 1_556 S
C245 C257 1.453 . S
C245 C258 1.684 . S
H246 C270 0.948 . S
C247 C243 1.397 . S
C247 C248 1.394 . S
C247 C266 1.723 . S
C248 C245 1.396 1_554 S
C248 C247 1.394 . S
C248 C278 1.723 1_554 S
H249 C272 0.947 . S
H250 C273 0.948 . S
H251 C279 0.982 . S
H252 C280 0.979 . S
H253 C280 0.980 1_554 S
H254 C280 0.983 . S
H255 C279 0.979 . S
H256 C279 0.977 1_554 S
C257 C245 1.453 . S
C257 H286 0.982 . S
C257 H287 0.979 . S
C257 H288 0.977 . S
C258 C245 1.684 . S
C258 H283 0.979 . S
C258 H284 0.980 . S
C258 H285 0.983 . S
C259 C260 1.391 . S
C259 C264 1.391 . S
C259 H289 0.948 . S
C260 C259 1.391 . S
C260 C261 1.391 . S
C261 C260 1.391 . S
C261 C262 1.392 . S
C261 H290 0.947 . S
C262 C261 1.392 . S
C262 C263 1.419 . S
C262 H291 0.948 . S
C263 C262 1.419 . S
C263 C264 1.391 . S
C263 C267 1.397 . S
C264 C259 1.391 . S
C264 C263 1.391 . S
C264 C265 1.399 . S
C265 C264 1.399 . S
C265 C266 1.396 . S
C265 C268 1.453 . S
C265 C269 1.684 . S
C266 C247 1.723 . S
C266 C265 1.396 . S
C266 C267 1.394 . S
C267 C263 1.397 . S
C267 C266 1.394 . S
C267 C277 1.723 . S
C268 C265 1.453 . S
C268 H292 0.982 . S
C268 H293 0.979 . S
C268 H294 0.977 . S
C269 C265 1.684 . S
C269 H295 0.979 . S
C269 H296 0.980 . S
C269 H297 0.983 . S
C270 H246 0.948 . S
C270 C271 1.391 . S
C270 C275 1.391 . S
C271 C270 1.391 . S
C271 C272 1.391 . S
C272 H249 0.947 . S
C272 C271 1.391 . S
C272 C273 1.392 . S
C273 H250 0.948 . S
C273 C272 1.392 . S
C273 C274 1.419 . S
C274 C273 1.419 . S
C274 C275 1.391 . S
C274 C278 1.397 . S
C275 C270 1.391 . S
C275 C274 1.391 . S
C275 C276 1.399 . S
C276 C275 1.399 . S
C276 C277 1.396 1_556 S
C276 C279 1.453 . S
C276 C280 1.684 . S
C277 C267 1.723 . S
C277 C276 1.396 1_554 S
C277 C278 1.394 1_554 S
C278 C248 1.723 1_556 S
C278 C274 1.397 . S
C278 C277 1.394 1_556 S
C279 H251 0.982 . S
C279 H255 0.979 . S
C279 H256 0.977 1_556 S
C279 C276 1.453 . S
C280 H252 0.979 . S
C280 H253 0.980 1_556 S
C280 H254 0.983 . S
C280 C276 1.684 . S
H281 C299 0.948 . S
H282 C240 0.948 . S
H283 C258 0.979 . S
H284 C258 0.980 . S
H285 C258 0.983 . S
H286 C257 0.982 . S
H287 C257 0.979 . S
H288 C257 0.977 . S
H289 C259 0.948 . S
H290 C261 0.947 . S
H291 C262 0.948 . S
H292 C268 0.982 . S
H293 C268 0.979 . S
H294 C268 0.977 . S
H295 C269 0.979 . S
H296 C269 0.980 . S
H297 C269 0.983 . S
H298 C242 0.947 . S
C299 C242 1.392 . S
C299 C243 1.419 . S
C299 H281 0.948 . S
C300 C301 1.391 . S
C300 C304 1.391 . S
C300 H342 0.948 . S
C301 C300 1.391 . S
C301 C302 1.391 . S
C302 C301 1.391 . S
C302 H358 0.947 . S
C302 C359 1.392 . S
C303 C304 1.391 . S
C303 C307 1.396 1_655 S
C303 C359 1.419 . S
C304 C300 1.391 . S
C304 C303 1.391 . S
C304 C305 1.399 . S
C305 C304 1.399 . S
C305 C308 1.396 1_655 S
C305 C317 1.453 1_655 S
C305 C318 1.684 . S
H306 C330 0.948 . S
C307 C303 1.396 1_455 S
C307 C308 1.395 . S
C307 C326 1.723 . S
C308 C305 1.396 1_455 S
C308 C307 1.395 . S
C308 C338 1.723 . S
H309 C332 0.947 . S
H310 C333 0.948 . S
H311 C339 0.982 . S
H312 C340 0.979 . S
H313 C340 0.980 . S
H314 C340 0.983 . S
H315 C339 0.979 . S
H316 C339 0.977 . S
C317 C305 1.453 1_455 S
C317 H346 0.982 . S
C317 H347 0.979 . S
C317 H348 0.977 . S
C318 C305 1.684 . S
C318 H343 0.979 . S
C318 H344 0.980 . S
C318 H345 0.983 . S
C319 C320 1.391 . S
C319 C324 1.391 . S
C319 H349 0.948 . S
C320 C319 1.391 . S
C320 C321 1.391 . S
C321 C320 1.391 . S
C321 C322 1.392 . S
C321 H350 0.947 . S
C322 C321 1.392 . S
C322 C323 1.419 . S
C322 H351 0.948 . S
C323 C322 1.419 . S
C323 C324 1.391 . S
C323 C327 1.396 1_655 S
C324 C319 1.391 . S
C324 C323 1.391 . S
C324 C325 1.399 . S
C325 C324 1.399 . S
C325 C326 1.396 1_656 S
C325 C328 1.453 1_655 S
C325 C329 1.684 . S
C326 C307 1.723 . S
C326 C325 1.396 1_454 S
C326 C327 1.395 1_554 S
C327 C323 1.396 1_455 S
C327 C326 1.395 1_556 S
C327 C337 1.723 1_556 S
C328 C325 1.453 1_455 S
C328 H352 0.982 . S
C328 H353 0.979 . S
C328 H354 0.977 1_556 S
C329 C325 1.684 . S
C329 H355 0.979 . S
C329 H356 0.980 1_556 S
C329 H357 0.983 . S
C330 H306 0.948 . S
C330 C331 1.391 . S
C330 C335 1.391 . S
C331 C330 1.391 . S
C331 C332 1.391 . S
C332 H309 0.947 . S
C332 C331 1.391 . S
C332 C333 1.392 . S
C333 H310 0.948 . S
C333 C332 1.392 . S
C333 C334 1.419 . S
C334 C333 1.419 . S
C334 C335 1.391 . S
C334 C338 1.396 1_655 S
C335 C330 1.391 . S
C335 C334 1.391 . S
C335 C336 1.399 1_554 S
C336 C335 1.399 1_556 S
C336 C337 1.396 1_656 S
C336 C339 1.453 1_655 S
C336 C340 1.684 . S
C337 C327 1.723 1_554 S
C337 C336 1.396 1_454 S
C337 C338 1.395 . S
C338 C308 1.723 . S
C338 C334 1.396 1_455 S
C338 C337 1.395 . S
C339 H311 0.982 . S
C339 H315 0.979 . S
C339 H316 0.977 . S
C339 C336 1.453 1_455 S
C340 H312 0.979 . S
C340 H313 0.980 . S
C340 H314 0.983 . S
C340 C336 1.684 . S
H341 C359 0.948 . S
H342 C300 0.948 . S
H343 C318 0.979 . S
H344 C318 0.980 . S
H345 C318 0.983 . S
H346 C317 0.982 . S
H347 C317 0.979 . S
H348 C317 0.977 . S
H349 C319 0.948 . S
H350 C321 0.947 . S
H351 C322 0.948 . S
H352 C328 0.982 . S
H353 C328 0.979 . S
H354 C328 0.977 1_554 S
H355 C329 0.979 . S
H356 C329 0.980 1_554 S
H357 C329 0.983 . S
H358 C302 0.947 . S
C359 C302 1.392 . S
C359 C303 1.419 . S
C359 H341 0.948 . S
C360 C361 1.391 . S
C360 C364 1.391 . S
C360 H402 0.948 . S
C361 C360 1.391 . S
C361 C362 1.391 . S
C362 C361 1.391 . S
C362 H418 0.947 . S
C362 C419 1.392 . S
C363 C364 1.391 . S
C363 C367 1.397 1_545 S
C363 C419 1.419 . S
C364 C360 1.391 . S
C364 C363 1.391 . S
C364 C365 1.399 . S
C365 C364 1.399 . S
C365 C368 1.396 1_545 S
C365 C377 1.453 1_545 S
C365 C378 1.684 . S
H366 C390 0.948 . S
C367 C363 1.397 1_565 S
C367 C368 1.394 . S
C367 C386 1.723 1_556 S
C368 C365 1.396 1_565 S
C368 C367 1.394 . S
C368 C398 1.723 1_556 S
H369 C392 0.958 . S
H370 C393 0.948 1_556 S
H371 C399 0.982 . S
H372 C400 0.979 . S
H373 C400 0.980 . S
H374 C400 0.983 . S
H375 C399 0.979 . S
H376 C399 0.977 . S
C377 C365 1.453 1_565 S
C377 H406 0.982 . S
C377 H407 0.979 . S
C377 H408 0.977 . S
C378 C365 1.684 . S
C378 H403 0.979 . S
C378 H404 0.980 . S
C378 H405 0.983 . S
C379 C380 1.391 . S
C379 C384 1.391 . S
C379 H409 0.948 . S
C380 C379 1.391 . S
C380 C381 1.391 . S
C381 C380 1.391 . S
C381 C382 1.392 . S
C381 H410 0.947 . S
C382 C381 1.392 . S
C382 C383 1.419 . S
C382 H411 0.948 . S
C383 C382 1.419 . S
C383 C384 1.391 . S
C383 C387 1.397 1_545 S
C384 C379 1.391 . S
C384 C383 1.391 . S
C384 C385 1.399 . S
C385 C384 1.399 . S
C385 C386 1.396 1_545 S
C385 C388 1.453 1_545 S
C385 C389 1.684 . S
C386 C367 1.723 1_554 S
C386 C385 1.396 1_565 S
C386 C387 1.394 . S
C387 C383 1.397 1_565 S
C387 C386 1.394 . S
C387 C397 1.723 . S
C388 C385 1.453 1_565 S
C388 H412 0.982 . S
C388 H413 0.979 . S
C388 H414 0.990 . S
C389 C385 1.684 . S
C389 H415 0.979 . S
C389 H416 0.980 1_554 S
C389 H417 0.983 . S
C390 H366 0.948 . S
C390 C391 1.391 . S
C390 C395 1.391 . S
C391 C390 1.391 . S
C391 C392 1.391 . S
C392 H369 0.958 . S
C392 C391 1.391 . S
C392 C393 1.392 . S
C393 H370 0.948 1_554 S
C393 C392 1.392 . S
C393 C394 1.419 . S
C394 C393 1.419 . S
C394 C395 1.391 . S
C394 C398 1.397 1_545 S
C395 C390 1.391 . S
C395 C394 1.391 . S
C395 C396 1.399 . S
C396 C395 1.399 . S
C396 C397 1.396 1_545 S
C396 C399 1.453 1_545 S
C396 C400 1.684 . S
C397 C387 1.723 . S
C397 C396 1.396 1_565 S
C397 C398 1.394 . S
C398 C368 1.723 1_554 S
C398 C394 1.397 1_565 S
C398 C397 1.394 . S
C399 H371 0.982 . S
C399 H375 0.979 . S
C399 H376 0.977 . S
C399 C396 1.453 1_565 S
C400 H372 0.979 . S
C400 H373 0.980 . S
C400 H374 0.983 . S
C400 C396 1.684 . S
H401 C419 0.948 . S
H402 C360 0.948 . S
H403 C378 0.979 . S
H404 C378 0.980 . S
H405 C378 0.983 . S
H406 C377 0.982 . S
H407 C377 0.979 . S
H408 C377 0.977 . S
H409 C379 0.948 . S
H410 C381 0.947 . S
H411 C382 0.948 . S
H412 C388 0.982 . S
H413 C388 0.979 . S
H414 C388 0.990 . S
H415 C389 0.979 . S
H416 C389 0.980 1_556 S
H417 C389 0.983 . S
H418 C362 0.947 . S
C419 C362 1.392 . S
C419 C363 1.419 . S
C419 H401 0.948 . S
C420 C421 1.391 . S
C420 C424 1.391 . S
C420 H462 0.948 . S
C421 C420 1.391 . S
C421 C422 1.391 . S
C422 C421 1.391 . S
C422 H478 0.947 . S
C422 C479 1.392 . S
C423 C424 1.391 . S
C423 C427 1.397 . S
C423 C479 1.419 . S
C424 C420 1.391 . S
C424 C423 1.391 . S
C424 C425 1.399 . S
C425 C424 1.399 . S
C425 C428 1.396 . S
C425 C437 1.453 . S
C425 C438 1.684 . S
H426 C450 0.948 . S
C427 C423 1.397 . S
C427 C428 1.394 . S
C427 C446 1.723 1_556 S
C428 C425 1.396 . S
C428 C427 1.394 . S
C428 C458 1.723 1_556 S
H429 C452 0.935 1_556 S
H430 C453 0.948 1_556 S
H431 C459 0.982 . S
H432 C460 0.979 . S
H433 C460 0.980 . S
H434 C460 0.983 . S
H435 C459 0.979 . S
H436 C459 0.977 . S
C437 C425 1.453 . S
C437 H466 0.982 . S
C437 H467 0.979 . S
C437 H468 0.977 . S
C438 C425 1.684 . S
C438 H463 0.979 . S
C438 H464 0.980 . S
C438 H465 0.983 . S
C439 C440 1.391 . S
C439 C444 1.391 . S
C439 H469 0.948 . S
C440 C439 1.391 . S
C440 C441 1.391 . S
C441 C440 1.391 . S
C441 C442 1.392 . S
C441 H470 0.947 . S
C442 C441 1.392 . S
C442 C443 1.419 . S
C442 H471 0.948 . S
C443 C442 1.419 . S
C443 C444 1.391 . S
C443 C447 1.397 . S
C444 C439 1.391 . S
C444 C443 1.391 . S
C444 C445 1.399 . S
C445 C444 1.399 . S
C445 C446 1.396 . S
C445 C448 1.453 . S
C445 C449 1.684 . S
C446 C427 1.723 1_554 S
C446 C445 1.396 . S
C446 C447 1.394 . S
C447 C443 1.397 . S
C447 C446 1.394 . S
C447 C457 1.723 . S
C448 C445 1.453 . S
C448 H472 0.982 . S
C448 H473 0.979 . S
C448 H474 0.977 1_554 S
C449 C445 1.684 . S
C449 H475 0.979 . S
C449 H476 0.980 1_554 S
C449 H477 0.983 . S
C450 H426 0.948 . S
C450 C451 1.391 . S
C450 C455 1.391 . S
C451 C450 1.391 . S
C451 C452 1.391 . S
C452 H429 0.935 1_554 S
C452 C451 1.391 . S
C452 C453 1.392 . S
C453 H430 0.948 1_554 S
C453 C452 1.392 . S
C453 C454 1.419 . S
C454 C453 1.419 . S
C454 C455 1.391 . S
C454 C458 1.397 . S
C455 C450 1.391 . S
C455 C454 1.391 . S
C455 C456 1.399 . S
C456 C455 1.399 . S
C456 C457 1.396 . S
C456 C459 1.453 . S
C456 C460 1.684 . S
C457 C447 1.723 . S
C457 C456 1.396 . S
C457 C458 1.394 . S
C458 C428 1.723 1_554 S
C458 C454 1.397 . S
C458 C457 1.394 . S
C459 H431 0.982 . S
C459 H435 0.979 . S
C459 H436 0.977 . S
C459 C456 1.453 . S
C460 H432 0.979 . S
C460 H433 0.980 . S
C460 H434 0.983 . S
C460 C456 1.684 . S
H461 C479 0.948 . S
H462 C420 0.948 . S
H463 C438 0.979 . S
H464 C438 0.980 . S
H465 C438 0.983 . S
H466 C437 0.982 . S
H467 C437 0.979 . S
H468 C437 0.977 . S
H469 C439 0.948 . S
H470 C441 0.947 . S
H471 C442 0.948 . S
H472 C448 0.982 . S
H473 C448 0.979 . S
H474 C448 0.977 1_556 S
H475 C449 0.979 . S
H476 C449 0.980 1_556 S
H477 C449 0.983 . S
H478 C422 0.947 . S
C479 C422 1.392 . S
C479 C423 1.419 . S
C479 H461 0.948 . S
Tb480 C490 2.825 . S
Tb480 O491 2.347 1_455 S
Tb480 O494 2.366 . S
Tb480 O499 2.418 . S
Tb480 O500 2.384 1_565 S
Tb480 O503 2.479 . S
Tb480 O504 2.471 . S
Eu481 O492 2.418 . S
Eu481 O493 2.384 1_545 S
Eu481 O496 2.479 . S
Eu481 O497 2.471 . S
Eu481 O498 2.347 1_655 S
Eu481 O501 2.366 . S
Eu481 C511 2.825 . S
C482 O498 1.259 1_565 S
C482 O499 1.265 . S
C483 O500 1.255 . S
C483 O501 1.265 1_455 S
C484 C486 1.380 . S
C484 C487 1.374 . S
C484 C490 1.507 . S
C485 C486 1.384 . S
C485 C489 1.387 . S
C485 H512 0.930 . S
C486 C484 1.380 . S
C486 C485 1.384 . S
C486 H513 0.931 . S
C487 C484 1.374 . S
C487 C488 1.390 . S
C487 H514 0.930 1_455 S
C488 C487 1.390 . S
C488 C489 1.391 . S
C488 H515 0.930 1_455 S
C489 C485 1.387 . S
C489 C488 1.391 . S
C490 Tb480 2.825 . S
C490 C484 1.507 . S
C490 O503 1.238 . S
C490 O504 1.247 . S
O491 Tb480 2.347 1_655 S
O491 C495 1.259 1_565 S
O492 Eu481 2.418 . S
O492 C495 1.265 . S
O493 Eu481 2.384 1_565 S
O493 C502 1.255 . S
O494 Tb480 2.366 . S
O494 C502 1.265 1_455 S
C495 O491 1.259 1_545 S
C495 O492 1.265 . S
O496 Eu481 2.479 . S
O496 C511 1.238 . S
O497 Eu481 2.471 . S
O497 C511 1.247 . S
O498 Eu481 2.347 1_455 S
O498 C482 1.259 1_545 S
O499 Tb480 2.418 . S
O499 C482 1.265 . S
O500 Tb480 2.384 1_545 S
O500 C483 1.255 . S
O501 Eu481 2.366 . S
O501 C483 1.265 1_655 S
C502 O493 1.255 . S
C502 O494 1.265 1_655 S
O503 Tb480 2.479 . S
O503 C490 1.238 . S
O504 Tb480 2.471 . S
O504 C490 1.247 . S
C505 C508 1.380 . S
C505 C509 1.374 . S
C505 C511 1.507 . S
C506 C507 1.387 . S
C506 C510 1.391 . S
C507 C506 1.387 . S
C507 C508 1.384 . S
C507 H516 0.930 . S
C508 C505 1.380 . S
C508 C507 1.384 . S
C508 H517 0.931 . S
C509 C505 1.374 . S
C509 C510 1.390 . S
C509 H518 0.930 1_655 S
C510 C506 1.391 . S
C510 C509 1.390 . S
C510 H519 0.930 1_655 S
C511 Eu481 2.825 . S
C511 O496 1.238 . S
C511 O497 1.247 . S
C511 C505 1.507 . S
H512 C485 0.930 . S
H513 C486 0.931 . S
H514 C487 0.930 1_655 S
H515 C488 0.930 1_655 S
H516 C507 0.930 . S
H517 C508 0.931 . S
H518 C509 0.930 1_455 S
H519 C510 0.930 1_455 S
Tb520 C530 2.825 . S
Tb520 O531 2.347 1_545 S
Tb520 O534 2.366 . S
Tb520 O539 2.418 . S
Tb520 O540 2.384 . S
Tb520 O543 2.479 . S
Tb520 O544 2.471 . S
Eu521 O532 2.418 . S
Eu521 O533 2.384 . S
Eu521 O536 2.479 . S
Eu521 O537 2.471 . S
Eu521 O538 2.347 1_565 S
Eu521 O541 2.366 . S
Eu521 C551 2.825 . S
C522 O538 1.259 . S
C522 O539 1.265 . S
C523 O540 1.255 . S
C523 O541 1.265 1_545 S
C524 C526 1.380 . S
C524 C527 1.374 . S
C524 C530 1.507 . S
C525 C526 1.384 . S
C525 C529 1.387 . S
C525 H552 0.930 . S
C526 C524 1.380 . S
C526 C525 1.384 . S
C526 H553 0.931 . S
C527 C524 1.374 . S
C527 C528 1.390 . S
C527 H554 0.930 1_545 S
C528 C527 1.390 . S
C528 C529 1.391 . S
C528 H555 0.930 1_545 S
C529 C525 1.387 . S
C529 C528 1.391 . S
C530 Tb520 2.825 . S
C530 C524 1.507 . S
C530 O543 1.238 . S
C530 O544 1.247 . S
O531 Tb520 2.347 1_565 S
O531 C535 1.259 . S
O532 Eu521 2.418 . S
O532 C535 1.265 . S
O533 Eu521 2.384 . S
O533 C542 1.255 . S
O534 Tb520 2.366 . S
O534 C542 1.265 1_545 S
C535 O531 1.259 . S
C535 O532 1.265 . S
O536 Eu521 2.479 . S
O536 C551 1.238 . S
O537 Eu521 2.471 . S
O537 C551 1.247 . S
O538 Eu521 2.347 1_545 S
O538 C522 1.259 . S
O539 Tb520 2.418 . S
O539 C522 1.265 . S
O540 Tb520 2.384 . S
O540 C523 1.255 . S
O541 Eu521 2.366 . S
O541 C523 1.265 1_565 S
C542 O533 1.255 . S
C542 O534 1.265 1_565 S
O543 Tb520 2.479 . S
O543 C530 1.238 . S
O544 Tb520 2.471 . S
O544 C530 1.247 . S
C545 C548 1.380 . S
C545 C549 1.374 . S
C545 C551 1.507 . S
C546 C547 1.387 . S
C546 C550 1.391 . S
C547 C546 1.387 . S
C547 C548 1.384 . S
C547 H556 0.930 . S
C548 C545 1.380 . S
C548 C547 1.384 . S
C548 H557 0.931 . S
C549 C545 1.374 . S
C549 C550 1.390 . S
C549 H558 0.930 1_565 S
C550 C546 1.391 . S
C550 C549 1.390 . S
C550 H559 0.930 1_565 S
C551 Eu521 2.825 . S
C551 O536 1.238 . S
C551 O537 1.247 . S
C551 C545 1.507 . S
H552 C525 0.930 . S
H553 C526 0.931 . S
H554 C527 0.930 1_565 S
H555 C528 0.930 1_565 S
H556 C547 0.930 . S
H557 C548 0.931 . S
H558 C549 0.930 1_545 S
H559 C550 0.930 1_545 S
Tb560 C570 2.825 . S
Tb560 O571 2.347 . S
Tb560 O574 2.366 . S
Tb560 O579 2.418 . S
Tb560 O580 2.384 . S
Tb560 O583 2.479 . S
Tb560 O584 2.471 . S
Eu561 O572 2.418 . S
Eu561 O573 2.384 . S
Eu561 O576 2.479 . S
Eu561 O577 2.471 . S
Eu561 O578 2.347 . S
Eu561 O581 2.366 . S
Eu561 C591 2.825 . S
C562 O578 1.259 . S
C562 O579 1.265 . S
C563 O580 1.255 . S
C563 O581 1.265 . S
C564 C566 1.380 . S
C564 C567 1.374 . S
C564 C570 1.507 . S
C565 C566 1.384 . S
C565 C569 1.387 . S
C565 H592 0.930 . S
C566 C564 1.380 . S
C566 C565 1.384 . S
C566 H593 0.931 . S
C567 C564 1.374 . S
C567 C568 1.390 . S
C567 H594 0.930 . S
C568 C567 1.390 . S
C568 C569 1.391 . S
C568 H595 0.930 . S
C569 C565 1.387 . S
C569 C568 1.391 . S
C570 Tb560 2.825 . S
C570 C564 1.507 . S
C570 O583 1.238 . S
C570 O584 1.247 . S
O571 Tb560 2.347 . S
O571 C575 1.259 . S
O572 Eu561 2.418 . S
O572 C575 1.265 . S
O573 Eu561 2.384 . S
O573 C582 1.255 . S
O574 Tb560 2.366 . S
O574 C582 1.265 . S
C575 O571 1.259 . S
C575 O572 1.265 . S
O576 Eu561 2.479 . S
O576 C591 1.238 . S
O577 Eu561 2.471 . S
O577 C591 1.247 . S
O578 Eu561 2.347 . S
O578 C562 1.259 . S
O579 Tb560 2.418 . S
O579 C562 1.265 . S
O580 Tb560 2.384 . S
O580 C563 1.255 . S
O581 Eu561 2.366 . S
O581 C563 1.265 . S
C582 O573 1.255 . S
C582 O574 1.265 . S
O583 Tb560 2.479 . S
O583 C570 1.238 . S
O584 Tb560 2.471 . S
O584 C570 1.247 . S
C585 C588 1.380 . S
C585 C589 1.374 . S
C585 C591 1.507 . S
C586 C587 1.387 . S
C586 C590 1.391 . S
C587 C586 1.387 . S
C587 C588 1.384 . S
C587 H596 0.930 . S
C588 C585 1.380 . S
C588 C587 1.384 . S
C588 H597 0.931 . S
C589 C585 1.374 . S
C589 C590 1.390 . S
C589 H598 0.930 . S
C590 C586 1.391 . S
C590 C589 1.390 . S
C590 H599 0.930 . S
C591 Eu561 2.825 . S
C591 O576 1.238 . S
C591 O577 1.247 . S
C591 C585 1.507 . S
H592 C565 0.930 . S
H593 C566 0.931 . S
H594 C567 0.930 . S
H595 C568 0.930 . S
H596 C587 0.930 . S
H597 C588 0.931 . S
H598 C589 0.930 . S
H599 C590 0.930 . S
Tb600 C610 2.825 . S
Tb600 O611 2.347 . S
Tb600 O614 2.366 . S
Tb600 O619 2.418 . S
Tb600 O620 2.384 1_655 S
Tb600 O623 2.479 . S
Tb600 O624 2.471 . S
Eu601 O612 2.418 . S
Eu601 O613 2.384 1_455 S
Eu601 O616 2.479 . S
Eu601 O617 2.471 . S
Eu601 O618 2.347 . S
Eu601 O621 2.366 . S
Eu601 C631 2.825 . S
C602 O618 1.259 1_655 S
C602 O619 1.265 . S
C603 O620 1.255 . S
C603 O621 1.265 . S
C604 C606 1.380 . S
C604 C607 1.374 . S
C604 C610 1.507 . S
C605 C606 1.384 . S
C605 C609 1.387 . S
C605 H632 0.930 . S
C606 C604 1.380 . S
C606 C605 1.384 . S
C606 H633 0.931 . S
C607 C604 1.374 . S
C607 C608 1.390 . S
C607 H634 0.930 . S
C608 C607 1.390 . S
C608 C609 1.391 . S
C608 H635 0.930 . S
C609 C605 1.387 . S
C609 C608 1.391 . S
C610 Tb600 2.825 . S
C610 C604 1.507 . S
C610 O623 1.238 . S
C610 O624 1.247 . S
O611 Tb600 2.347 . S
O611 C615 1.259 1_655 S
O612 Eu601 2.418 . S
O612 C615 1.265 . S
O613 Eu601 2.384 1_655 S
O613 C622 1.255 . S
O614 Tb600 2.366 . S
O614 C622 1.265 . S
C615 O611 1.259 1_455 S
C615 O612 1.265 . S
O616 Eu601 2.479 . S
O616 C631 1.238 . S
O617 Eu601 2.471 . S
O617 C631 1.247 . S
O618 Eu601 2.347 . S
O618 C602 1.259 1_455 S
O619 Tb600 2.418 . S
O619 C602 1.265 . S
O620 Tb600 2.384 1_455 S
O620 C603 1.255 . S
O621 Eu601 2.366 . S
O621 C603 1.265 . S
C622 O613 1.255 . S
C622 O614 1.265 . S
O623 Tb600 2.479 . S
O623 C610 1.238 . S
O624 Tb600 2.471 . S
O624 C610 1.247 . S
C625 C628 1.380 . S
C625 C629 1.374 . S
C625 C631 1.507 . S
C626 C627 1.387 . S
C626 C630 1.391 . S
C627 C626 1.387 . S
C627 C628 1.384 . S
C627 H636 0.930 . S
C628 C625 1.380 . S
C628 C627 1.384 . S
C628 H637 0.931 . S
C629 C625 1.374 . S
C629 C630 1.390 . S
C629 H638 0.930 . S
C630 C626 1.391 . S
C630 C629 1.390 . S
C630 H639 0.930 . S
C631 Eu601 2.825 . S
C631 O616 1.238 . S
C631 O617 1.247 . S
C631 C625 1.507 . S
H632 C605 0.930 . S
H633 C606 0.931 . S
H634 C607 0.930 . S
H635 C608 0.930 . S
H636 C627 0.930 . S
H637 C628 0.931 . S
H638 C629 0.930 . S
H639 C630 0.930 . S
C640 C641 1.391 . S
C640 C642 1.394 . S
C640 H656 0.931 . S
C641 C640 1.391 . S
C641 C645 1.376 1_565 S
C642 C640 1.394 . S
C642 C643 1.369 . S
C642 C646 1.531 . S
C643 C642 1.369 . S
C643 C644 1.410 1_565 S
C643 C651 1.503 . S
C644 C643 1.410 1_545 S
C644 C645 1.392 . S
C644 C647 1.511 . S
C645 C641 1.376 1_545 S
C645 C644 1.392 . S
C645 H657 0.929 . S
C646 C642 1.531 . S
C646 H658 0.960 . S
C646 H659 0.962 . S
C646 H660 0.960 . S
C647 C644 1.511 . S
C647 H661 0.961 . S
C647 H662 0.961 . S
C647 H663 0.961 1_545 S
C648 C649 1.366 1_545 S
C648 C650 1.363 . S
C648 H664 0.931 . S
C649 C648 1.366 1_565 S
C649 C653 1.413 . S
C650 C648 1.363 . S
C650 C651 1.370 1_545 S
C650 C654 1.524 . S
C651 C643 1.503 . S
C651 C650 1.370 1_565 S
C651 C652 1.403 . S
C652 C651 1.403 . S
C652 C653 1.404 . S
C652 C655 1.539 . S
C653 C649 1.413 . S
C653 C652 1.404 . S
C653 H665 0.930 . S
C654 C650 1.524 . S
C654 H666 0.956 . S
C654 H667 0.961 . S
C654 H668 0.961 . S
C655 C652 1.539 . S
C655 H669 0.958 . S
C655 H670 0.961 . S
C655 H671 0.960 . S
H656 C640 0.931 . S
H657 C645 0.929 . S
H658 C646 0.960 . S
H659 C646 0.962 . S
H660 C646 0.960 . S
H661 C647 0.961 . S
H662 C647 0.961 . S
H663 C647 0.961 1_565 S
H664 C648 0.931 . S
H665 C653 0.930 . S
H666 C654 0.956 . S
H667 C654 0.961 . S
H668 C654 0.961 . S
H669 C655 0.958 . S
H670 C655 0.961 . S
H671 C655 0.960 . S
C672 C673 1.391 . S
C672 C674 1.394 . S
C672 H688 0.931 . S
C673 C672 1.391 . S
C673 C677 1.376 . S
C674 C672 1.394 . S
C674 C675 1.369 . S
C674 C678 1.531 . S
C675 C674 1.369 . S
C675 C676 1.410 . S
C675 C683 1.503 . S
C676 C675 1.410 . S
C676 C677 1.392 . S
C676 C679 1.511 . S
C677 C673 1.376 . S
C677 C676 1.392 . S
C677 H689 0.929 . S
C678 C674 1.531 . S
C678 H690 0.960 . S
C678 H691 0.962 . S
C678 H692 0.960 . S
C679 C676 1.511 . S
C679 H693 0.961 . S
C679 H694 0.961 . S
C679 H695 0.961 . S
C680 C681 1.370 . S
C680 C682 1.363 . S
C680 H696 0.931 . S
C681 C680 1.370 . S
C681 C685 1.408 . S
C682 C680 1.363 . S
C682 C683 1.370 . S
C682 C686 1.524 . S
C683 C675 1.503 . S
C683 C682 1.370 . S
C683 C684 1.403 . S
C684 C683 1.403 . S
C684 C685 1.404 . S
C684 C687 1.539 . S
C685 C681 1.408 . S
C685 C684 1.404 . S
C685 H697 0.930 . S
C686 C682 1.524 . S
C686 H698 0.956 . S
C686 H699 0.961 . S
C686 H700 0.961 . S
C687 C684 1.539 . S
C687 H701 0.958 . S
C687 H702 0.961 . S
C687 H703 0.960 . S
H688 C672 0.931 . S
H689 C677 0.929 . S
H690 C678 0.960 . S
H691 C678 0.962 . S
H692 C678 0.960 . S
H693 C679 0.961 . S
H694 C679 0.961 . S
H695 C679 0.961 . S
H696 C680 0.931 . S
H697 C685 0.930 . S
H698 C686 0.956 . S
H699 C686 0.961 . S
H700 C686 0.961 . S
H701 C687 0.958 . S
H702 C687 0.961 . S
H703 C687 0.960 . S
C704 C705 1.391 . S
C704 C706 1.394 . S
C704 H720 0.931 . S
C705 C704 1.391 . S
C705 C709 1.376 . S
C706 C704 1.394 . S
C706 C707 1.369 . S
C706 C710 1.531 . S
C707 C706 1.369 . S
C707 C708 1.410 . S
C707 C715 1.503 . S
C708 C707 1.410 . S
C708 C709 1.392 . S
C708 C711 1.511 . S
C709 C705 1.376 . S
C709 C708 1.392 . S
C709 H721 0.929 . S
C710 C706 1.531 . S
C710 H722 0.960 . S
C710 H723 0.962 . S
C710 H724 0.960 . S
C711 C708 1.511 . S
C711 H725 0.961 . S
C711 H726 0.961 . S
C711 H727 0.961 . S
C712 C713 1.370 . S
C712 C714 1.363 . S
C712 H728 0.931 . S
C713 C712 1.370 . S
C713 C717 1.408 . S
C714 C712 1.363 . S
C714 C715 1.370 . S
C714 C718 1.524 . S
C715 C707 1.503 . S
C715 C714 1.370 . S
C715 C716 1.403 . S
C716 C715 1.403 . S
C716 C717 1.404 . S
C716 C719 1.539 . S
C717 C713 1.408 . S
C717 C716 1.404 . S
C717 H729 0.930 . S
C718 C714 1.524 . S
C718 H730 0.956 . S
C718 H731 0.961 . S
C718 H732 0.961 . S
C719 C716 1.539 . S
C719 H733 0.958 . S
C719 H734 0.961 . S
C719 H735 0.960 . S
H720 C704 0.931 . S
H721 C709 0.929 . S
H722 C710 0.960 . S
H723 C710 0.962 . S
H724 C710 0.960 . S
H725 C711 0.961 . S
H726 C711 0.961 . S
H727 C711 0.961 . S
H728 C712 0.931 . S
H729 C717 0.930 . S
H730 C718 0.956 . S
H731 C718 0.961 . S
H732 C718 0.961 . S
H733 C719 0.958 . S
H734 C719 0.961 . S
H735 C719 0.960 . S
C736 C737 1.391 1_655 S
C736 C738 1.394 . S
C736 H752 0.931 . S
C737 C736 1.391 1_455 S
C737 C741 1.376 . S
C738 C736 1.394 . S
C738 C739 1.369 1_655 S
C738 C742 1.531 . S
C739 C738 1.369 1_455 S
C739 C740 1.410 . S
C739 C747 1.503 . S
C740 C739 1.410 . S
C740 C741 1.392 . S
C740 C743 1.511 . S
C741 C737 1.376 . S
C741 C740 1.392 . S
C741 H753 0.929 . S
C742 C738 1.531 . S
C742 H754 0.960 . S
C742 H755 0.962 . S
C742 H756 0.960 . S
C743 C740 1.511 . S
C743 H757 0.961 . S
C743 H758 0.961 . S
C743 H759 0.961 . S
C744 C745 1.370 1_655 S
C744 C746 1.363 . S
C744 H760 0.931 . S
C745 C744 1.370 1_455 S
C745 C749 1.408 . S
C746 C744 1.363 . S
C746 C747 1.370 1_655 S
C746 C750 1.524 . S
C747 C739 1.503 . S
C747 C746 1.370 1_455 S
C747 C748 1.403 . S
C748 C747 1.403 . S
C748 C749 1.404 . S
C748 C751 1.539 . S
C749 C745 1.408 . S
C749 C748 1.404 . S
C749 H761 0.930 . S
C750 C746 1.524 . S
C750 H762 0.956 . S
C750 H763 0.961 . S
C750 H764 0.961 . S
C751 C748 1.539 . S
C751 H765 0.958 . S
C751 H766 0.961 . S
C751 H767 0.960 . S
H752 C736 0.931 . S
H753 C741 0.929 . S
H754 C742 0.960 . S
H755 C742 0.962 . S
H756 C742 0.960 . S
H757 C743 0.961 . S
H758 C743 0.961 . S
H759 C743 0.961 . S
H760 C744 0.931 . S
H761 C749 0.930 . S
H762 C750 0.956 . S
H763 C750 0.961 . S
H764 C750 0.961 . S
H765 C751 0.958 . S
H766 C751 0.961 . S
H767 C751 0.960 . S
C768 C769 1.391 1_565 S
C768 C770 1.394 . S
C768 H784 0.931 . S
C769 C768 1.391 1_545 S
C769 C773 1.376 . S
C770 C768 1.394 . S
C770 C771 1.369 1_565 S
C770 C774 1.531 . S
C771 C770 1.369 1_545 S
C771 C772 1.410 . S
C771 C779 1.503 1_554 S
C772 C771 1.410 . S
C772 C773 1.392 . S
C772 C775 1.511 . S
C773 C769 1.376 . S
C773 C772 1.392 . S
C773 H785 0.929 . S
C774 C770 1.531 . S
C774 H786 0.960 1_554 S
C774 H787 0.962 . S
C774 H788 0.960 . S
C775 C772 1.511 . S
C775 H789 0.961 . S
C775 H790 0.961 . S
C775 H791 0.961 . S
C776 C777 1.360 1_565 S
C776 C778 1.363 . S
C776 H792 0.931 . S
C777 C776 1.360 1_545 S
C777 C781 1.419 . S
C778 C776 1.363 . S
C778 C779 1.370 1_565 S
C778 C782 1.524 1_556 S
C779 C771 1.503 1_556 S
C779 C778 1.370 1_545 S
C779 C780 1.403 . S
C780 C779 1.403 . S
C780 C781 1.404 . S
C780 C783 1.539 . S
C781 C777 1.419 . S
C781 C780 1.404 . S
C781 H793 0.930 . S
C782 C778 1.524 1_554 S
C782 H794 0.956 . S
C782 H795 0.961 . S
C782 H796 0.961 . S
C783 C780 1.539 . S
C783 H797 0.958 . S
C783 H798 0.961 . S
C783 H799 0.959 . S
H784 C768 0.931 . S
H785 C773 0.929 . S
H786 C774 0.960 1_556 S
H787 C774 0.962 . S
H788 C774 0.960 . S
H789 C775 0.961 . S
H790 C775 0.961 . S
H791 C775 0.961 . S
H792 C776 0.931 . S
H793 C781 0.930 . S
H794 C782 0.956 . S
H795 C782 0.961 . S
H796 C782 0.961 . S
H797 C783 0.958 . S
H798 C783 0.961 . S
H799 C783 0.959 . S
C800 C801 1.391 . S
C800 C802 1.394 . S
C800 H816 0.931 . S
C801 C800 1.391 . S
C801 C805 1.376 . S
C802 C800 1.394 . S
C802 C803 1.369 . S
C802 C806 1.531 . S
C803 C802 1.369 . S
C803 C804 1.410 . S
C803 C811 1.503 1_554 S
C804 C803 1.410 . S
C804 C805 1.392 . S
C804 C807 1.511 . S
C805 C801 1.376 . S
C805 C804 1.392 . S
C805 H817 0.929 . S
C806 C802 1.531 . S
C806 H818 0.960 1_554 S
C806 H819 0.962 . S
C806 H820 0.960 . S
C807 C804 1.511 . S
C807 H821 0.961 . S
C807 H822 0.961 . S
C807 H823 0.961 . S
C808 C809 1.370 . S
C808 C810 1.363 . S
C808 H824 0.931 . S
C809 C808 1.370 . S
C809 C813 1.408 . S
C810 C808 1.363 . S
C810 C811 1.370 . S
C810 C814 1.524 1_556 S
C811 C803 1.503 1_556 S
C811 C810 1.370 . S
C811 C812 1.403 . S
C812 C811 1.403 . S
C812 C813 1.404 . S
C812 C815 1.539 . S
C813 C809 1.408 . S
C813 C812 1.404 . S
C813 H825 0.930 . S
C814 C810 1.524 1_554 S
C814 H826 0.956 . S
C814 H827 0.961 . S
C814 H828 0.961 . S
C815 C812 1.539 . S
C815 H829 0.958 . S
C815 H830 0.961 . S
C815 H831 0.960 1_556 S
H816 C800 0.931 . S
H817 C805 0.929 . S
H818 C806 0.960 1_556 S
H819 C806 0.962 . S
H820 C806 0.960 . S
H821 C807 0.961 . S
H822 C807 0.961 . S
H823 C807 0.961 . S
H824 C808 0.931 . S
H825 C813 0.930 . S
H826 C814 0.956 . S
H827 C814 0.961 . S
H828 C814 0.961 . S
H829 C815 0.958 . S
H830 C815 0.961 . S
H831 C815 0.960 1_554 S
C832 C833 1.391 . S
C832 C834 1.394 . S
C832 H848 0.931 . S
C833 C832 1.391 . S
C833 C837 1.376 . S
C834 C832 1.394 . S
C834 C835 1.369 . S
C834 C838 1.531 . S
C835 C834 1.369 . S
C835 C836 1.410 . S
C835 C843 1.503 1_554 S
C836 C835 1.410 . S
C836 C837 1.392 . S
C836 C839 1.511 . S
C837 C833 1.376 . S
C837 C836 1.392 . S
C837 H849 0.929 . S
C838 C834 1.531 . S
C838 H850 0.960 . S
C838 H851 0.962 . S
C838 H852 0.960 . S
C839 C836 1.511 . S
C839 H853 0.961 . S
C839 H854 0.961 1_554 S
C839 H855 0.961 1_554 S
C840 C841 1.370 . S
C840 C842 1.363 . S
C840 H856 0.931 . S
C841 C840 1.370 . S
C841 C845 1.408 . S
C842 C840 1.363 . S
C842 C843 1.370 . S
C842 C846 1.524 1_556 S
C843 C835 1.503 1_556 S
C843 C842 1.370 . S
C843 C844 1.403 . S
C844 C843 1.403 . S
C844 C845 1.404 . S
C844 C847 1.539 . S
C845 C841 1.408 . S
C845 C844 1.404 . S
C845 H857 0.930 . S
C846 C842 1.524 1_554 S
C846 H858 0.956 . S
C846 H859 0.961 . S
C846 H860 0.961 . S
C847 C844 1.539 . S
C847 H861 0.958 . S
C847 H862 0.961 . S
C847 H863 0.960 1_556 S
H848 C832 0.931 . S
H849 C837 0.929 . S
H850 C838 0.960 . S
H851 C838 0.962 . S
H852 C838 0.960 . S
H853 C839 0.961 . S
H854 C839 0.961 1_556 S
H855 C839 0.961 1_556 S
H856 C840 0.931 . S
H857 C845 0.930 . S
H858 C846 0.956 . S
H859 C846 0.961 . S
H860 C846 0.961 . S
H861 C847 0.958 . S
H862 C847 0.961 . S
H863 C847 0.960 1_554 S
C864 C865 1.395 1_455 S
C864 C866 1.394 . S
C864 H880 0.931 . S
C865 C864 1.395 1_655 S
C865 C869 1.372 . S
C866 C864 1.394 . S
C866 C867 1.387 . S
C866 C870 1.531 . S
C867 C866 1.387 . S
C867 C868 1.391 1_455 S
C867 C875 1.503 1_455 S
C868 C867 1.391 1_655 S
C868 C869 1.392 . S
C868 C871 1.511 . S
C869 C865 1.372 . S
C869 C868 1.392 . S
C869 H881 0.929 . S
C870 C866 1.531 . S
C870 H882 0.960 . S
C870 H883 0.962 . S
C870 H884 0.960 . S
C871 C868 1.511 . S
C871 H885 0.961 . S
C871 H886 0.961 . S
C871 H887 0.961 . S
C872 C873 1.370 . S
C872 C874 1.363 . S
C872 H888 0.931 . S
C873 C872 1.370 . S
C873 C877 1.408 1_655 S
C874 C872 1.363 . S
C874 C875 1.370 1_556 S
C874 C878 1.524 . S
C875 C867 1.503 1_655 S
C875 C874 1.370 1_554 S
C875 C876 1.403 1_654 S
C876 C875 1.403 1_456 S
C876 C877 1.404 . S
C876 C879 1.539 1_556 S
C877 C873 1.408 1_455 S
C877 C876 1.404 . S
C877 H889 0.930 . S
C878 C874 1.524 . S
C878 H890 0.956 1_655 S
C878 H891 0.961 . S
C878 H892 0.961 . S
C879 C876 1.539 1_554 S
C879 H893 0.958 . S
C879 H894 0.961 1_455 S
C879 H895 0.960 1_455 S
H880 C864 0.931 . S
H881 C869 0.929 . S
H882 C870 0.960 . S
H883 C870 0.962 . S
H884 C870 0.960 . S
H885 C871 0.961 . S
H886 C871 0.961 . S
H887 C871 0.961 . S
H888 C872 0.931 . S
H889 C877 0.930 . S
H890 C878 0.956 1_455 S
H891 C878 0.961 . S
H892 C878 0.961 . S
H893 C879 0.958 . S
H894 C879 0.961 1_655 S
H895 C879 0.960 1_655 S
C896 C897 1.391 . S
C896 C898 1.394 . S
C896 H912 0.931 . S
C897 C896 1.391 . S
C897 C901 1.376 1_455 S
C898 C896 1.394 . S
C898 C899 1.369 1_455 S
C898 C902 1.531 . S
C899 C898 1.369 1_655 S
C899 C900 1.410 . S
C899 C907 1.503 . S
C900 C899 1.410 . S
C900 C901 1.392 . S
C900 C903 1.511 . S
C901 C897 1.376 1_655 S
C901 C900 1.392 . S
C901 H913 0.929 . S
C902 C898 1.531 . S
C902 H914 0.960 . S
C902 H915 0.962 . S
C902 H916 0.960 . S
C903 C900 1.511 . S
C903 H917 0.961 . S
C903 H918 0.961 . S
C903 H919 0.961 . S
C904 C905 1.370 . S
C904 C906 1.363 . S
C904 H920 0.931 . S
C905 C904 1.370 . S
C905 C909 1.408 . S
C906 C904 1.363 . S
C906 C907 1.370 . S
C906 C910 1.524 . S
C907 C899 1.503 . S
C907 C906 1.370 . S
C907 C908 1.403 . S
C908 C907 1.403 . S
C908 C909 1.404 . S
C908 C911 1.525 1_655 S
C909 C905 1.408 . S
C909 C908 1.404 . S
C909 H921 0.930 . S
C910 C906 1.524 . S
C910 H922 0.956 . S
C910 H923 0.961 . S
C910 H924 0.961 . S
C911 C908 1.525 1_455 S
C911 H925 0.988 . S
C911 H926 0.951 1_455 S
C911 H927 0.955 1_455 S
H912 C896 0.931 . S
H913 C901 0.929 . S
H914 C902 0.960 . S
H915 C902 0.962 . S
H916 C902 0.960 . S
H917 C903 0.961 . S
H918 C903 0.961 . S
H919 C903 0.961 . S
H920 C904 0.931 . S
H921 C909 0.930 . S
H922 C910 0.956 . S
H923 C910 0.961 . S
H924 C910 0.961 . S
H925 C911 0.988 . S
H926 C911 0.951 1_655 S
H927 C911 0.955 1_655 S
C928 C929 1.391 . S
C928 C930 1.394 . S
C928 H944 0.931 . S
C929 C928 1.391 . S
C929 C933 1.376 1_545 S
C930 C928 1.394 . S
C930 C931 1.369 1_545 S
C930 C934 1.531 . S
C931 C930 1.369 1_565 S
C931 C932 1.410 . S
C931 C939 1.503 . S
C932 C931 1.410 . S
C932 C933 1.392 . S
C932 C935 1.511 . S
C933 C929 1.376 1_565 S
C933 C932 1.392 . S
C933 H945 0.929 . S
C934 C930 1.531 . S
C934 H946 0.960 . S
C934 H947 0.962 . S
C934 H948 0.960 . S
C935 C932 1.511 . S
C935 H949 0.961 . S
C935 H950 0.961 . S
C935 H951 0.961 . S
C936 C937 1.370 . S
C936 C938 1.363 . S
C936 H952 0.931 . S
C937 C936 1.370 . S
C937 C941 1.408 . S
C938 C936 1.363 . S
C938 C939 1.370 . S
C938 C942 1.524 . S
C939 C931 1.503 . S
C939 C938 1.370 . S
C939 C940 1.403 . S
C940 C939 1.403 . S
C940 C941 1.404 . S
C940 C943 1.539 . S
C941 C937 1.408 . S
C941 C940 1.404 . S
C941 H953 0.930 . S
C942 C938 1.524 . S
C942 H954 0.956 1_565 S
C942 H955 0.961 . S
C942 H956 0.961 . S
C943 C940 1.539 . S
C943 H957 0.958 . S
C943 H958 0.961 . S
C943 H959 0.960 . S
H944 C928 0.931 . S
H945 C933 0.929 . S
H946 C934 0.960 . S
H947 C934 0.962 . S
H948 C934 0.960 . S
H949 C935 0.961 . S
H950 C935 0.961 . S
H951 C935 0.961 . S
H952 C936 0.931 . S
H953 C941 0.930 . S
H954 C942 0.956 1_545 S
H955 C942 0.961 . S
H956 C942 0.961 . S
H957 C943 0.958 . S
H958 C943 0.961 . S
H959 C943 0.960 . S
C960 C961 1.391 . S
C960 C962 1.394 . S
C960 H976 0.931 . S
C961 C960 1.391 . S
C961 C965 1.376 . S
C962 C960 1.394 . S
C962 C963 1.369 . S
C962 C966 1.531 . S
C963 C962 1.369 . S
C963 C964 1.410 . S
C963 C971 1.503 . S
C964 C963 1.410 . S
C964 C965 1.392 . S
C964 C967 1.511 . S
C965 C961 1.376 . S
C965 C964 1.392 . S
C965 H977 0.929 . S
C966 C962 1.531 . S
C966 H978 0.960 . S
C966 H979 0.962 . S
C966 H980 0.960 . S
C967 C964 1.511 . S
C967 H981 0.961 . S
C967 H982 0.961 . S
C967 H983 0.961 . S
C968 C969 1.370 . S
C968 C970 1.363 . S
C968 H984 0.931 . S
C969 C968 1.370 . S
C969 C973 1.408 . S
C970 C968 1.363 . S
C970 C971 1.370 . S
C970 C974 1.524 . S
C971 C963 1.503 . S
C971 C970 1.370 . S
C971 C972 1.403 . S
C972 C971 1.403 . S
C972 C973 1.404 . S
C972 C975 1.539 . S
C973 C969 1.408 . S
C973 C972 1.404 . S
C973 H985 0.930 . S
C974 C970 1.524 . S
C974 H986 0.956 . S
C974 H987 0.961 . S
C974 H988 0.961 . S
C975 C972 1.539 . S
C975 H989 0.958 . S
C975 H990 0.961 . S
C975 H991 0.960 . S
H976 C960 0.931 . S
H977 C965 0.929 . S
H978 C966 0.960 . S
H979 C966 0.962 . S
H980 C966 0.960 . S
H981 C967 0.961 . S
H982 C967 0.961 . S
H983 C967 0.961 . S
H984 C968 0.931 . S
H985 C973 0.930 . S
H986 C974 0.956 . S
H987 C974 0.961 . S
H988 C974 0.961 . S
H989 C975 0.958 . S
H990 C975 0.961 . S
H991 C975 0.960 . S
C992 C993 1.391 . S
C992 C994 1.394 . S
C992 H1008 0.931 . S
C993 C992 1.391 . S
C993 C997 1.376 . S
C994 C992 1.394 . S
C994 C995 1.369 . S
C994 C998 1.531 . S
C995 C994 1.369 . S
C995 C996 1.410 . S
C995 C1003 1.503 . S
C996 C995 1.410 . S
C996 C997 1.392 . S
C996 C999 1.511 . S
C997 C993 1.376 . S
C997 C996 1.392 . S
C997 H1009 0.929 . S
C998 C994 1.531 . S
C998 H1010 0.960 . S
C998 H1011 0.962 . S
C998 H1012 0.960 . S
C999 C996 1.511 . S
C999 H1013 0.961 . S
C999 H1014 0.961 . S
C999 H1015 0.961 . S
C1000 C1001 1.370 . S
C1000 C1002 1.363 . S
C1000 H1016 0.931 . S
C1001 C1000 1.370 . S
C1001 C1005 1.408 . S
C1002 C1000 1.363 . S
C1002 C1003 1.370 . S
C1002 C1006 1.524 . S
C1003 C995 1.503 . S
C1003 C1002 1.370 . S
C1003 C1004 1.403 . S
C1004 C1003 1.403 . S
C1004 C1005 1.404 . S
C1004 C1007 1.539 . S
C1005 C1001 1.408 . S
C1005 C1004 1.404 . S
C1005 H1017 0.930 . S
C1006 C1002 1.524 . S
C1006 H1018 0.956 . S
C1006 H1019 0.961 . S
C1006 H1020 0.961 . S
C1007 C1004 1.539 . S
C1007 H1021 0.958 . S
C1007 H1022 0.961 . S
C1007 H1023 0.960 . S
H1008 C992 0.931 . S
H1009 C997 0.929 . S
H1010 C998 0.960 . S
H1011 C998 0.962 . S
H1012 C998 0.960 . S
H1013 C999 0.961 . S
H1014 C999 0.961 . S
H1015 C999 0.961 . S
H1016 C1000 0.931 . S
H1017 C1005 0.930 . S
H1018 C1006 0.956 . S
H1019 C1006 0.961 . S
H1020 C1006 0.961 . S
H1021 C1007 0.958 . S
H1022 C1007 0.961 . S
H1023 C1007 0.960 . S
C1024 C1025 1.391 . S
C1024 C1026 1.394 . S
C1024 H1040 0.931 . S
C1025 C1024 1.391 . S
C1025 C1029 1.376 1_655 S
C1026 C1024 1.394 . S
C1026 C1027 1.369 1_655 S
C1026 C1030 1.531 . S
C1027 C1026 1.369 1_455 S
C1027 C1028 1.410 . S
C1027 C1035 1.503 . S
C1028 C1027 1.410 . S
C1028 C1029 1.392 . S
C1028 C1031 1.511 . S
C1029 C1025 1.376 1_455 S
C1029 C1028 1.392 . S
C1029 H1041 0.929 . S
C1030 C1026 1.531 . S
C1030 H1042 0.960 . S
C1030 H1043 0.962 . S
C1030 H1044 0.960 . S
C1031 C1028 1.511 . S
C1031 H1045 0.961 . S
C1031 H1046 0.961 1_554 S
C1031 H1047 0.961 . S
C1032 C1033 1.370 . S
C1032 C1034 1.363 . S
C1032 H1048 0.931 . S
C1033 C1032 1.370 . S
C1033 C1037 1.408 1_556 S
C1034 C1032 1.363 . S
C1034 C1035 1.370 1_556 S
C1034 C1038 1.524 . S
C1035 C1027 1.503 . S
C1035 C1034 1.370 1_554 S
C1035 C1036 1.403 . S
C1036 C1035 1.403 . S
C1036 C1037 1.404 . S
C1036 C1039 1.539 . S
C1037 C1033 1.408 1_554 S
C1037 C1036 1.404 . S
C1037 H1049 0.930 . S
C1038 C1034 1.524 . S
C1038 H1050 0.956 1_455 S
C1038 H1051 0.961 . S
C1038 H1052 0.961 . S
C1039 C1036 1.539 . S
C1039 H1053 0.958 . S
C1039 H1054 0.961 . S
C1039 H1055 0.960 . S
H1040 C1024 0.931 . S
H1041 C1029 0.929 . S
H1042 C1030 0.960 . S
H1043 C1030 0.962 . S
H1044 C1030 0.960 . S
H1045 C1031 0.961 . S
H1046 C1031 0.961 1_556 S
H1047 C1031 0.961 . S
H1048 C1032 0.931 . S
H1049 C1037 0.930 . S
H1050 C1038 0.956 1_655 S
H1051 C1038 0.961 . S
H1052 C1038 0.961 . S
H1053 C1039 0.958 . S
H1054 C1039 0.961 . S
H1055 C1039 0.960 . S
C1056 C1057 1.391 . S
C1056 C1058 1.394 . S
C1056 H1072 0.931 . S
C1057 C1056 1.391 . S
C1057 C1061 1.376 1_565 S
C1058 C1056 1.394 . S
C1058 C1059 1.369 1_565 S
C1058 C1062 1.531 . S
C1059 C1058 1.369 1_545 S
C1059 C1060 1.410 . S
C1059 C1067 1.503 . S
C1060 C1059 1.410 . S
C1060 C1061 1.392 . S
C1060 C1063 1.511 . S
C1061 C1057 1.376 1_545 S
C1061 C1060 1.392 . S
C1061 H1073 0.929 . S
C1062 C1058 1.531 . S
C1062 H1074 0.960 . S
C1062 H1075 0.962 . S
C1062 H1076 0.960 . S
C1063 C1060 1.511 . S
C1063 H1077 0.961 . S
C1063 H1078 0.961 . S
C1063 H1079 0.961 . S
C1064 C1065 1.370 . S
C1064 C1066 1.363 . S
C1064 H1080 0.931 . S
C1065 C1064 1.370 . S
C1065 C1069 1.408 1_556 S
C1066 C1064 1.363 . S
C1066 C1067 1.370 1_556 S
C1066 C1070 1.524 . S
C1067 C1059 1.503 . S
C1067 C1066 1.370 1_554 S
C1067 C1068 1.403 . S
C1068 C1067 1.403 . S
C1068 C1069 1.404 . S
C1068 C1071 1.539 . S
C1069 C1065 1.408 1_554 S
C1069 C1068 1.404 . S
C1069 H1081 0.930 . S
C1070 C1066 1.524 . S
C1070 H1082 0.966 . S
C1070 H1083 0.961 . S
C1070 H1084 0.961 . S
C1071 C1068 1.539 . S
C1071 H1085 0.958 . S
C1071 H1086 0.961 . S
C1071 H1087 0.960 . S
H1072 C1056 0.931 . S
H1073 C1061 0.929 . S
H1074 C1062 0.960 . S
H1075 C1062 0.962 . S
H1076 C1062 0.960 . S
H1077 C1063 0.961 . S
H1078 C1063 0.961 . S
H1079 C1063 0.961 . S
H1080 C1064 0.931 . S
H1081 C1069 0.930 . S
H1082 C1070 0.966 . S
H1083 C1070 0.961 . S
H1084 C1070 0.961 . S
H1085 C1071 0.958 . S
H1086 C1071 0.961 . S
H1087 C1071 0.960 . S
C1088 C1089 1.391 . S
C1088 C1090 1.394 . S
C1088 H1104 0.931 . S
C1089 C1088 1.391 . S
C1089 C1093 1.376 . S
C1090 C1088 1.394 . S
C1090 C1091 1.369 . S
C1090 C1094 1.531 1_554 S
C1091 C1090 1.369 . S
C1091 C1092 1.410 . S
C1091 C1099 1.503 . S
C1092 C1091 1.410 . S
C1092 C1093 1.392 . S
C1092 C1095 1.511 . S
C1093 C1089 1.376 . S
C1093 C1092 1.392 . S
C1093 H1105 0.929 . S
C1094 C1090 1.531 1_556 S
C1094 H1106 0.960 . S
C1094 H1107 0.962 . S
C1094 H1108 0.960 . S
C1095 C1092 1.511 . S
C1095 H1109 0.961 . S
C1095 H1110 0.961 . S
C1095 H1111 0.961 . S
C1096 C1097 1.370 . S
C1096 C1098 1.363 . S
C1096 H1112 0.931 . S
C1097 C1096 1.370 . S
C1097 C1101 1.408 . S
C1098 C1096 1.363 . S
C1098 C1099 1.370 1_556 S
C1098 C1102 1.524 . S
C1099 C1091 1.503 . S
C1099 C1098 1.370 1_554 S
C1099 C1100 1.403 . S
C1100 C1099 1.403 . S
C1100 C1101 1.404 1_554 S
C1100 C1103 1.539 . S
C1101 C1097 1.408 . S
C1101 C1100 1.404 1_556 S
C1101 H1113 0.930 . S
C1102 C1098 1.524 . S
C1102 H1114 0.956 . S
C1102 H1115 0.961 1_556 S
C1102 H1116 0.961 . S
C1103 C1100 1.539 . S
C1103 H1117 0.958 . S
C1103 H1118 0.961 . S
C1103 H1119 0.960 . S
H1104 C1088 0.931 . S
H1105 C1093 0.929 . S
H1106 C1094 0.960 . S
H1107 C1094 0.962 . S
H1108 C1094 0.960 . S
H1109 C1095 0.961 . S
H1110 C1095 0.961 . S
H1111 C1095 0.961 . S
H1112 C1096 0.931 . S
H1113 C1101 0.930 . S
H1114 C1102 0.956 . S
H1115 C1102 0.961 1_554 S
H1116 C1102 0.961 . S
H1117 C1103 0.958 . S
H1118 C1103 0.961 . S
H1119 C1103 0.960 . S
C1120 C1121 1.391 . S
C1120 C1122 1.394 . S
C1120 H1136 0.931 . S
C1121 C1120 1.391 . S
C1121 C1125 1.376 . S
C1122 C1120 1.394 . S
C1122 C1123 1.369 . S
C1122 C1126 1.531 . S
C1123 C1122 1.369 . S
C1123 C1124 1.410 . S
C1123 C1131 1.503 . S
C1124 C1123 1.410 . S
C1124 C1125 1.392 . S
C1124 C1127 1.511 1_554 S
C1125 C1121 1.376 . S
C1125 C1124 1.392 . S
C1125 H1137 0.929 . S
C1126 C1122 1.531 . S
C1126 H1138 0.960 . S
C1126 H1139 0.962 . S
C1126 H1140 0.960 . S
C1127 C1124 1.511 1_556 S
C1127 H1141 0.961 . S
C1127 H1142 0.961 . S
C1127 H1143 0.961 . S
C1128 C1129 1.370 . S
C1128 C1130 1.363 . S
C1128 H1144 0.931 . S
C1129 C1128 1.370 . S
C1129 C1133 1.408 . S
C1130 C1128 1.363 . S
C1130 C1131 1.370 1_556 S
C1130 C1134 1.524 . S
C1131 C1123 1.503 . S
C1131 C1130 1.370 1_554 S
C1131 C1132 1.403 . S
C1132 C1131 1.403 . S
C1132 C1133 1.404 1_554 S
C1132 C1135 1.539 . S
C1133 C1129 1.408 . S
C1133 C1132 1.404 1_556 S
C1133 H1145 0.930 . S
C1134 C1130 1.524 . S
C1134 H1146 0.956 1_556 S
C1134 H1147 0.961 . S
C1134 H1148 0.961 . S
C1135 C1132 1.539 . S
C1135 H1149 0.958 . S
C1135 H1150 0.961 . S
C1135 H1151 0.960 . S
H1136 C1120 0.931 . S
H1137 C1125 0.929 . S
H1138 C1126 0.960 . S
H1139 C1126 0.962 . S
H1140 C1126 0.960 . S
H1141 C1127 0.961 . S
H1142 C1127 0.961 . S
H1143 C1127 0.961 . S
H1144 C1128 0.931 . S
H1145 C1133 0.930 . S
H1146 C1134 0.956 1_554 S
H1147 C1134 0.961 . S
H1148 C1134 0.961 . S
H1149 C1135 0.958 . S
H1150 C1135 0.961 . S
H1151 C1135 0.960 . S
C1152 C1153 1.391 1_655 S
C1152 C1154 1.394 . S
C1152 H1168 0.931 . S
C1153 C1152 1.391 1_455 S
C1153 C1157 1.376 . S
C1154 C1152 1.394 . S
C1154 C1155 1.369 1_655 S
C1154 C1158 1.531 . S
C1155 C1154 1.369 1_455 S
C1155 C1156 1.410 . S
C1155 C1163 1.503 . S
C1156 C1155 1.410 . S
C1156 C1157 1.392 . S
C1156 C1159 1.511 . S
C1157 C1153 1.376 . S
C1157 C1156 1.392 . S
C1157 H1169 0.929 . S
C1158 C1154 1.531 . S
C1158 H1170 0.960 . S
C1158 H1171 0.962 . S
C1158 H1172 0.960 . S
C1159 C1156 1.511 . S
C1159 H1173 0.961 . S
C1159 H1174 0.961 . S
C1159 H1175 0.961 . S
C1160 C1161 1.370 . S
C1160 C1162 1.363 . S
C1160 H1176 0.931 . S
C1161 C1160 1.370 . S
C1161 C1165 1.408 . S
C1162 C1160 1.363 . S
C1162 C1163 1.370 . S
C1162 C1166 1.519 1_455 S
C1163 C1155 1.503 . S
C1163 C1162 1.370 . S
C1163 C1164 1.403 . S
C1164 C1163 1.403 . S
C1164 C1165 1.404 . S
C1164 C1167 1.539 . S
C1165 C1161 1.408 . S
C1165 C1164 1.404 . S
C1165 H1177 0.930 . S
C1166 C1162 1.519 1_655 S
C1166 H1178 0.989 . S
C1166 H1179 0.934 1_655 S
C1166 H1180 0.961 . S
C1167 C1164 1.539 . S
C1167 H1181 0.958 . S
C1167 H1182 0.961 . S
C1167 H1183 0.960 . S
H1168 C1152 0.931 . S
H1169 C1157 0.929 . S
H1170 C1158 0.960 . S
H1171 C1158 0.962 . S
H1172 C1158 0.960 . S
H1173 C1159 0.961 . S
H1174 C1159 0.961 . S
H1175 C1159 0.961 . S
H1176 C1160 0.931 . S
H1177 C1165 0.930 . S
H1178 C1166 0.989 . S
H1179 C1166 0.934 1_455 S
H1180 C1166 0.961 . S
H1181 C1167 0.958 . S
H1182 C1167 0.961 . S
H1183 C1167 0.960 . S
C1184 C1185 1.394 . S
C1184 C1186 1.394 . S
C1184 H1200 0.931 . S
C1185 C1184 1.394 . S
C1185 C1189 1.373 1_545 S
C1186 C1184 1.394 . S
C1186 C1187 1.366 1_545 S
C1186 C1190 1.531 . S
C1187 C1186 1.366 1_565 S
C1187 C1188 1.413 . S
C1187 C1195 1.502 1_565 S
C1188 C1187 1.413 . S
C1188 C1189 1.392 . S
C1188 C1191 1.511 . S
C1189 C1185 1.373 1_565 S
C1189 C1188 1.392 . S
C1189 H1201 0.929 . S
C1190 C1186 1.531 . S
C1190 H1202 0.960 . S
C1190 H1203 0.962 . S
C1190 H1204 0.960 . S
C1191 C1188 1.511 . S
C1191 H1205 0.961 . S
C1191 H1206 0.961 . S
C1191 H1207 0.961 . S
C1192 C1193 1.370 . S
C1192 C1194 1.363 . S
C1192 H1208 0.931 . S
C1193 C1192 1.370 . S
C1193 C1197 1.408 1_545 S
C1194 C1192 1.363 . S
C1194 C1195 1.370 . S
C1194 C1198 1.524 . S
C1195 C1187 1.502 1_545 S
C1195 C1194 1.370 . S
C1195 C1196 1.403 1_545 S
C1196 C1195 1.403 1_565 S
C1196 C1197 1.404 . S
C1196 C1199 1.539 . S
C1197 C1193 1.408 1_565 S
C1197 C1196 1.404 . S
C1197 H1209 0.930 . S
C1198 C1194 1.524 . S
C1198 H1210 0.956 . S
C1198 H1211 0.961 . S
C1198 H1212 0.961 . S
C1199 C1196 1.539 . S
C1199 H1213 0.958 . S
C1199 H1214 0.961 . S
C1199 H1215 0.960 . S
H1200 C1184 0.931 . S
H1201 C1189 0.929 . S
H1202 C1190 0.960 . S
H1203 C1190 0.962 . S
H1204 C1190 0.960 . S
H1205 C1191 0.961 . S
H1206 C1191 0.961 . S
H1207 C1191 0.961 . S
H1208 C1192 0.931 . S
H1209 C1197 0.930 . S
H1210 C1198 0.956 . S
H1211 C1198 0.961 . S
H1212 C1198 0.961 . S
H1213 C1199 0.958 . S
H1214 C1199 0.961 . S
H1215 C1199 0.960 . S
C1216 C1217 1.391 . S
C1216 C1218 1.394 . S
C1216 H1232 0.931 . S
C1217 C1216 1.391 . S
C1217 C1221 1.376 . S
C1218 C1216 1.394 . S
C1218 C1219 1.369 . S
C1218 C1222 1.531 . S
C1219 C1218 1.369 . S
C1219 C1220 1.410 . S
C1219 C1227 1.503 . S
C1220 C1219 1.410 . S
C1220 C1221 1.392 . S
C1220 C1223 1.511 . S
C1221 C1217 1.376 . S
C1221 C1220 1.392 . S
C1221 H1233 0.929 . S
C1222 C1218 1.531 . S
C1222 H1234 0.960 . S
C1222 H1235 0.962 . S
C1222 H1236 0.960 . S
C1223 C1220 1.511 . S
C1223 H1237 0.961 . S
C1223 H1238 0.961 . S
C1223 H1239 0.961 . S
C1224 C1225 1.370 . S
C1224 C1226 1.363 . S
C1224 H1240 0.931 . S
C1225 C1224 1.370 . S
C1225 C1229 1.408 . S
C1226 C1224 1.363 . S
C1226 C1227 1.370 . S
C1226 C1230 1.524 . S
C1227 C1219 1.503 . S
C1227 C1226 1.370 . S
C1227 C1228 1.403 . S
C1228 C1227 1.403 . S
C1228 C1229 1.404 . S
C1228 C1231 1.539 . S
C1229 C1225 1.408 . S
C1229 C1228 1.404 . S
C1229 H1241 0.930 . S
C1230 C1226 1.524 . S
C1230 H1242 0.956 . S
C1230 H1243 0.961 . S
C1230 H1244 0.961 . S
C1231 C1228 1.539 . S
C1231 H1245 0.958 . S
C1231 H1246 0.961 . S
C1231 H1247 0.960 . S
H1232 C1216 0.931 . S
H1233 C1221 0.929 . S
H1234 C1222 0.960 . S
H1235 C1222 0.962 . S
H1236 C1222 0.960 . S
H1237 C1223 0.961 . S
H1238 C1223 0.961 . S
H1239 C1223 0.961 . S
H1240 C1224 0.931 . S
H1241 C1229 0.930 . S
H1242 C1230 0.956 . S
H1243 C1230 0.961 . S
H1244 C1230 0.961 . S
H1245 C1231 0.958 . S
H1246 C1231 0.961 . S
H1247 C1231 0.960 . S
C1248 C1249 1.391 . S
C1248 C1250 1.394 . S
C1248 H1264 0.931 . S
C1249 C1248 1.391 . S
C1249 C1253 1.376 . S
C1250 C1248 1.394 . S
C1250 C1251 1.369 . S
C1250 C1254 1.531 . S
C1251 C1250 1.369 . S
C1251 C1252 1.410 . S
C1251 C1259 1.503 . S
C1252 C1251 1.410 . S
C1252 C1253 1.392 . S
C1252 C1255 1.511 . S
C1253 C1249 1.376 . S
C1253 C1252 1.392 . S
C1253 H1265 0.929 . S
C1254 C1250 1.531 . S
C1254 H1266 0.960 . S
C1254 H1267 0.962 . S
C1254 H1268 0.960 . S
C1255 C1252 1.511 . S
C1255 H1269 0.961 . S
C1255 H1270 0.961 . S
C1255 H1271 0.961 . S
C1256 C1257 1.370 . S
C1256 C1258 1.363 . S
C1256 H1272 0.931 . S
C1257 C1256 1.370 . S
C1257 C1261 1.408 . S
C1258 C1256 1.363 . S
C1258 C1259 1.370 . S
C1258 C1262 1.524 . S
C1259 C1251 1.503 . S
C1259 C1258 1.370 . S
C1259 C1260 1.403 . S
C1260 C1259 1.403 . S
C1260 C1261 1.404 . S
C1260 C1263 1.539 . S
C1261 C1257 1.408 . S
C1261 C1260 1.404 . S
C1261 H1273 0.930 . S
C1262 C1258 1.524 . S
C1262 H1274 0.956 . S
C1262 H1275 0.961 . S
C1262 H1276 0.961 . S
C1263 C1260 1.539 . S
C1263 H1277 0.958 . S
C1263 H1278 0.961 . S
C1263 H1279 0.960 . S
H1264 C1248 0.931 . S
H1265 C1253 0.929 . S
H1266 C1254 0.960 . S
H1267 C1254 0.962 . S
H1268 C1254 0.960 . S
H1269 C1255 0.961 . S
H1270 C1255 0.961 . S
H1271 C1255 0.961 . S
H1272 C1256 0.931 . S
H1273 C1261 0.930 . S
H1274 C1262 0.956 . S
H1275 C1262 0.961 . S
H1276 C1262 0.961 . S
H1277 C1263 0.958 . S
H1278 C1263 0.961 . S
H1279 C1263 0.960 . S
C1280 C1281 1.391 . S
C1280 C1282 1.394 . S
C1280 H1296 0.931 . S
C1281 C1280 1.391 . S
C1281 C1285 1.376 1_655 S
C1282 C1280 1.394 . S
C1282 C1283 1.369 . S
C1282 C1286 1.531 . S
C1283 C1282 1.369 . S
C1283 C1284 1.410 1_655 S
C1283 C1291 1.503 . S
C1284 C1283 1.410 1_455 S
C1284 C1285 1.392 . S
C1284 C1287 1.511 . S
C1285 C1281 1.376 1_455 S
C1285 C1284 1.392 . S
C1285 H1297 0.929 . S
C1286 C1282 1.531 . S
C1286 H1298 0.960 . S
C1286 H1299 0.962 . S
C1286 H1300 0.960 . S
C1287 C1284 1.511 . S
C1287 H1301 0.961 . S
C1287 H1302 0.961 . S
C1287 H1303 0.961 . S
C1288 C1289 1.370 . S
C1288 C1290 1.363 . S
C1288 H1304 0.931 . S
C1289 C1288 1.370 . S
C1289 C1293 1.408 1_655 S
C1290 C1288 1.363 . S
C1290 C1291 1.370 . S
C1290 C1294 1.524 . S
C1291 C1283 1.503 . S
C1291 C1290 1.370 . S
C1291 C1292 1.403 1_655 S
C1292 C1291 1.403 1_455 S
C1292 C1293 1.404 . S
C1292 C1295 1.539 . S
C1293 C1289 1.408 1_455 S
C1293 C1292 1.404 . S
C1293 H1305 0.930 . S
C1294 C1290 1.524 . S
C1294 H1306 0.956 . S
C1294 H1307 0.961 . S
C1294 H1308 0.961 . S
C1295 C1292 1.539 . S
C1295 H1309 0.958 . S
C1295 H1310 0.961 . S
C1295 H1311 0.960 . S
H1296 C1280 0.931 . S
H1297 C1285 0.929 . S
H1298 C1286 0.960 . S
H1299 C1286 0.962 . S
H1300 C1286 0.960 . S
H1301 C1287 0.961 . S
H1302 C1287 0.961 . S
H1303 C1287 0.961 . S
H1304 C1288 0.931 . S
H1305 C1293 0.930 . S
H1306 C1294 0.956 . S
H1307 C1294 0.961 . S
H1308 C1294 0.961 . S
H1309 C1295 0.958 . S
H1310 C1295 0.961 . S
H1311 C1295 0.960 . S
C1312 C1313 1.391 . S
C1312 C1314 1.394 . S
C1312 H1328 0.931 . S
C1313 C1312 1.391 . S
C1313 C1317 1.381 . S
C1314 C1312 1.394 . S
C1314 C1315 1.369 . S
C1314 C1318 1.531 . S
C1315 C1314 1.369 . S
C1315 C1316 1.410 . S
C1315 C1323 1.503 . S
C1316 C1315 1.410 . S
C1316 C1317 1.396 . S
C1316 C1319 1.509 1_565 S
C1317 C1313 1.381 . S
C1317 C1316 1.396 . S
C1317 H1329 0.921 1_565 S
C1318 C1314 1.531 . S
C1318 H1330 0.960 . S
C1318 H1331 0.962 . S
C1318 H1332 0.960 . S
C1319 C1316 1.509 1_545 S
C1319 H1333 0.970 . S
C1319 H1334 0.966 . S
C1319 H1335 0.948 1_545 S
C1320 C1321 1.370 1_545 S
C1320 C1322 1.363 . S
C1320 H1336 0.931 . S
C1321 C1320 1.370 1_565 S
C1321 C1325 1.408 . S
C1322 C1320 1.363 . S
C1322 C1323 1.370 1_545 S
C1322 C1326 1.524 . S
C1323 C1315 1.503 . S
C1323 C1322 1.370 1_565 S
C1323 C1324 1.403 . S
C1324 C1323 1.403 . S
C1324 C1325 1.404 . S
C1324 C1327 1.539 . S
C1325 C1321 1.408 . S
C1325 C1324 1.404 . S
C1325 H1337 0.930 . S
C1326 C1322 1.524 . S
C1326 H1338 0.956 . S
C1326 H1339 0.961 . S
C1326 H1340 0.961 . S
C1327 C1324 1.539 . S
C1327 H1341 0.958 . S
C1327 H1342 0.961 . S
C1327 H1343 0.960 . S
H1328 C1312 0.931 . S
H1329 C1317 0.921 1_545 S
H1330 C1318 0.960 . S
H1331 C1318 0.962 . S
H1332 C1318 0.960 . S
H1333 C1319 0.970 . S
H1334 C1319 0.966 . S
H1335 C1319 0.948 1_565 S
H1336 C1320 0.931 . S
H1337 C1325 0.930 . S
H1338 C1326 0.956 . S
H1339 C1326 0.961 . S
H1340 C1326 0.961 . S
H1341 C1327 0.958 . S
H1342 C1327 0.961 . S
H1343 C1327 0.960 . S
C1344 C1345 1.391 . S
C1344 C1346 1.394 . S
C1344 H1360 0.931 . S
C1345 C1344 1.391 . S
C1345 C1349 1.376 . S
C1346 C1344 1.394 . S
C1346 C1347 1.369 . S
C1346 C1350 1.531 . S
C1347 C1346 1.369 . S
C1347 C1348 1.410 . S
C1347 C1355 1.503 . S
C1348 C1347 1.410 . S
C1348 C1349 1.392 . S
C1348 C1351 1.511 . S
C1349 C1345 1.376 . S
C1349 C1348 1.392 . S
C1349 H1361 0.929 . S
C1350 C1346 1.531 . S
C1350 H1362 0.960 . S
C1350 H1363 0.962 . S
C1350 H1364 0.960 . S
C1351 C1348 1.511 . S
C1351 H1365 0.961 . S
C1351 H1366 0.961 . S
C1351 H1367 0.961 . S
C1352 C1353 1.370 . S
C1352 C1354 1.363 . S
C1352 H1368 0.931 . S
C1353 C1352 1.370 . S
C1353 C1357 1.408 . S
C1354 C1352 1.363 . S
C1354 C1355 1.370 . S
C1354 C1358 1.524 . S
C1355 C1347 1.503 . S
C1355 C1354 1.370 . S
C1355 C1356 1.403 . S
C1356 C1355 1.403 . S
C1356 C1357 1.404 . S
C1356 C1359 1.539 . S
C1357 C1353 1.408 . S
C1357 C1356 1.404 . S
C1357 H1369 0.930 . S
C1358 C1354 1.524 . S
C1358 H1370 0.956 . S
C1358 H1371 0.961 . S
C1358 H1372 0.961 . S
C1359 C1356 1.539 . S
C1359 H1373 0.958 . S
C1359 H1374 0.961 . S
C1359 H1375 0.960 . S
H1360 C1344 0.931 . S
H1361 C1349 0.929 . S
H1362 C1350 0.960 . S
H1363 C1350 0.962 . S
H1364 C1350 0.960 . S
H1365 C1351 0.961 . S
H1366 C1351 0.961 . S
H1367 C1351 0.961 . S
H1368 C1352 0.931 . S
H1369 C1357 0.930 . S
H1370 C1358 0.956 . S
H1371 C1358 0.961 . S
H1372 C1358 0.961 . S
H1373 C1359 0.958 . S
H1374 C1359 0.961 . S
H1375 C1359 0.960 . S
C1376 C1377 1.391 . S
C1376 C1378 1.394 . S
C1376 H1392 0.931 . S
C1377 C1376 1.391 . S
C1377 C1381 1.376 . S
C1378 C1376 1.394 . S
C1378 C1379 1.369 . S
C1378 C1382 1.531 . S
C1379 C1378 1.369 . S
C1379 C1380 1.410 . S
C1379 C1387 1.503 . S
C1380 C1379 1.410 . S
C1380 C1381 1.392 . S
C1380 C1383 1.511 . S
C1381 C1377 1.376 . S
C1381 C1380 1.392 . S
C1381 H1393 0.929 . S
C1382 C1378 1.531 . S
C1382 H1394 0.960 . S
C1382 H1395 0.962 . S
C1382 H1396 0.960 . S
C1383 C1380 1.511 . S
C1383 H1397 0.961 . S
C1383 H1398 0.961 . S
C1383 H1399 0.961 . S
C1384 C1385 1.370 . S
C1384 C1386 1.363 . S
C1384 H1400 0.931 . S
C1385 C1384 1.370 . S
C1385 C1389 1.408 . S
C1386 C1384 1.363 . S
C1386 C1387 1.370 . S
C1386 C1390 1.524 . S
C1387 C1379 1.503 . S
C1387 C1386 1.370 . S
C1387 C1388 1.403 . S
C1388 C1387 1.403 . S
C1388 C1389 1.404 . S
C1388 C1391 1.539 . S
C1389 C1385 1.408 . S
C1389 C1388 1.404 . S
C1389 H1401 0.930 . S
C1390 C1386 1.524 . S
C1390 H1402 0.956 . S
C1390 H1403 0.961 . S
C1390 H1404 0.961 . S
C1391 C1388 1.539 . S
C1391 H1405 0.958 . S
C1391 H1406 0.961 . S
C1391 H1407 0.960 . S
H1392 C1376 0.931 . S
H1393 C1381 0.929 . S
H1394 C1382 0.960 . S
H1395 C1382 0.962 . S
H1396 C1382 0.960 . S
H1397 C1383 0.961 . S
H1398 C1383 0.961 . S
H1399 C1383 0.961 . S
H1400 C1384 0.931 . S
H1401 C1389 0.930 . S
H1402 C1390 0.956 . S
H1403 C1390 0.961 . S
H1404 C1390 0.961 . S
H1405 C1391 0.958 . S
H1406 C1391 0.961 . S
H1407 C1391 0.960 . S
C641 C391 2.270 1_565 S
C649 C482 2.362 . S
C681 C522 2.382 . S
C673 C451 2.257 . S
C713 C562 2.379 . S
C705 C241 1.994 . S
C745 C602 2.373 1_455 S
C737 C331 1.970 1_455 S
C777 C495 2.365 . S
C769 C121 1.980 1_545 S
C801 C211 2.273 . S
C809 C535 2.378 . S
C833 C31 2.289 . S
C841 C575 2.385 . S
C865 C91 2.043 . S
C873 C615 2.366 1_655 S
C905 C506 0.366 . S
C897 C301 0.650 1_455 S
C937 C546 0.393 . S
C929 C380 0.326 . S
C969 C586 0.367 . S
C961 C440 0.336 . S
C993 C260 0.500 . S
C1001 C626 0.389 . S
C1025 C61 0.357 . S
C1033 C489 0.381 . S
C1065 C529 0.374 . S
C1057 C140 0.356 . S
C1097 C569 0.337 . S
C1089 C200 0.480 . S
C1121 C20 0.301 . S
C1129 C609 0.397 . S
C1153 C320 2.999 1_455 S
C1161 C483 3.196 . S
C1185 C361 2.550 . S
C1193 C523 3.177 . S
C1225 C563 3.170 . S
C1217 C421 2.554 . S
C1257 C603 3.197 . S
C1249 C271 2.936 . S
C1281 C80 2.988 . S
C1289 C502 3.206 . S
C1321 C542 3.181 . S
C1313 C151 2.937 . S
C1353 C582 3.165 . S
C1345 C181 2.589 . S
C1377 C1 2.558 . S
C1385 C622 3.205 . S
