# Generated by pormake.
# Topology cml, (3,6)-cn, num edge types: 1
# Building blocks:
#     Node 0, Type 0, BuildingBlock: BELTOD_clean_linker_0, # of connection points: 3
#     Node 1, Type 0, BuildingBlock: BELTOD_clean_linker_0, # of connection points: 3
#     Node 2, Type 0, BuildingBlock: BELTOD_clean_linker_0, # of connection points: 3
#     Node 3, Type 0, BuildingBlock: BELTOD_clean_linker_0, # of connection points: 3
#     Node 4, Type 0, BuildingBlock: BELTOD_clean_linker_0, # of connection points: 3
#     Node 5, Type 0, BuildingBlock: BELTOD_clean_linker_0, # of connection points: 3
#     Node 6, Type 0, BuildingBlock: BELTOD_clean_linker_0, # of connection points: 3
#     Node 7, Type 0, BuildingBlock: BELTOD_clean_linker_0, # of connection points: 3
#     Node 8, Type 1, BuildingBlock: OJICUG_clean_sbu_0, # of connection points: 6
#     Node 9, Type 1, BuildingBlock: OJICUG_clean_sbu_0, # of connection points: 6
#     Node 10, Type 1, BuildingBlock: OJICUG_clean_sbu_0, # of connection points: 6
#     Node 11, Type 1, BuildingBlock: OJICUG_clean_sbu_0, # of connection points: 6
#     Edge 12, Type (0, 1), BuildingBlock: CIFDUS_clean_linker_0, # of connection points: 2
#     Edge 13, Type (0, 1), BuildingBlock: CIFDUS_clean_linker_0, # of connection points: 2
#     Edge 14, Type (0, 1), BuildingBlock: CIFDUS_clean_linker_0, # of connection points: 2
#     Edge 15, Type (0, 1), BuildingBlock: CIFDUS_clean_linker_0, # of connection points: 2
#     Edge 16, Type (0, 1), BuildingBlock: CIFDUS_clean_linker_0, # of connection points: 2
#     Edge 17, Type (0, 1), BuildingBlock: CIFDUS_clean_linker_0, # of connection points: 2
#     Edge 18, Type (0, 1), BuildingBlock: CIFDUS_clean_linker_0, # of connection points: 2
#     Edge 19, Type (0, 1), BuildingBlock: CIFDUS_clean_linker_0, # of connection points: 2
#     Edge 20, Type (0, 1), BuildingBlock: CIFDUS_clean_linker_0, # of connection points: 2
#     Edge 21, Type (0, 1), BuildingBlock: CIFDUS_clean_linker_0, # of connection points: 2
#     Edge 22, Type (0, 1), BuildingBlock: CIFDUS_clean_linker_0, # of connection points: 2
#     Edge 23, Type (0, 1), BuildingBlock: CIFDUS_clean_linker_0, # of connection points: 2
#     Edge 24, Type (0, 1), BuildingBlock: CIFDUS_clean_linker_0, # of connection points: 2
#     Edge 25, Type (0, 1), BuildingBlock: CIFDUS_clean_linker_0, # of connection points: 2
#     Edge 26, Type (0, 1), BuildingBlock: CIFDUS_clean_linker_0, # of connection points: 2
#     Edge 27, Type (0, 1), BuildingBlock: CIFDUS_clean_linker_0, # of connection points: 2
#     Edge 28, Type (0, 1), BuildingBlock: CIFDUS_clean_linker_0, # of connection points: 2
#     Edge 29, Type (0, 1), BuildingBlock: CIFDUS_clean_linker_0, # of connection points: 2
#     Edge 30, Type (0, 1), BuildingBlock: CIFDUS_clean_linker_0, # of connection points: 2
#     Edge 31, Type (0, 1), BuildingBlock: CIFDUS_clean_linker_0, # of connection points: 2
#     Edge 32, Type (0, 1), BuildingBlock: CIFDUS_clean_linker_0, # of connection points: 2
#     Edge 33, Type (0, 1), BuildingBlock: CIFDUS_clean_linker_0, # of connection points: 2
#     Edge 34, Type (0, 1), BuildingBlock: CIFDUS_clean_linker_0, # of connection points: 2
#     Edge 35, Type (0, 1), BuildingBlock: CIFDUS_clean_linker_0, # of connection points: 2
# Relax obj value: 0.065
# Max RMSD: 0.078
# Mean RMSD: 0.074
data_MOF--net-cml--node1-OJICUG_clean_sbu_0--node2-BELTOD_clean_linker_0--edge1-CIFDUS_clean_linker_0
_symmetry_space_group_name_H-M    P1
_symmetry_Int_Tables_number       1
_symmetry_cell_setting            triclinic
loop_
_symmetry_equiv_pos_as_xyz
'x, y, z'
_cell_length_a     39.607886
_cell_length_b     39.856256
_cell_length_c     37.23984
_cell_angle_alpha  89.514891
_cell_angle_beta   89.324912
_cell_angle_gamma 89.957449
loop_
_atom_site_label
_atom_site_type_symbol
_atom_site_fract_x
_atom_site_fract_y
_atom_site_fract_z
_atom_type_partial_charge
P0 P 0.30191 0.36208 0.97548 0.0
H1 H 0.30738 0.29825 0.01332 0.0
H2 H 0.31756 0.28376 0.07616 0.0
H3 H 0.31841 0.38942 0.10221 0.0
H4 H 0.30578 0.40324 0.04026 0.0
H5 H 0.26941 0.33797 0.91107 0.0
H6 H 0.21186 0.31948 0.89975 0.0
H7 H 0.18125 0.35225 0.0056 0.0
H8 H 0.2391 0.37069 0.01678 0.0
H9 H 0.36323 0.39714 0.99322 0.0
H10 H 0.27134 0.41913 0.93652 0.0
O11 O 0.32605 0.33634 0.9511 0.0
H12 H 0.38398 0.45361 0.98008 0.0
H13 H 0.29238 0.47577 0.92268 0.0
C14 C 0.30749 0.35181 0.02199 0.0
C15 C 0.30958 0.31817 0.03276 0.0
C16 C 0.31541 0.30997 0.06866 0.0
C17 C 0.31956 0.33541 0.09424 0.0
C18 C 0.31525 0.36907 0.08348 0.0
C19 C 0.30876 0.37713 0.04776 0.0
C20 C 0.25854 0.35486 0.96501 0.0
C21 C 0.2502 0.34166 0.93161 0.0
C22 C 0.21726 0.3313 0.92513 0.0
C23 C 0.19218 0.33413 0.952 0.0
C24 C 0.20023 0.34933 0.98468 0.0
C25 C 0.23321 0.3599 0.99102 0.0
C26 C 0.31559 0.40423 0.96635 0.0
C27 C 0.34736 0.41432 0.9783 0.0
C28 C 0.35909 0.4466 0.97097 0.0
C29 C 0.33954 0.46911 0.95081 0.0
C30 C 0.30777 0.45888 0.93851 0.0
C31 C 0.29579 0.4266 0.94638 0.0
P32 P 0.72629 0.57739 0.50505 0.0
H33 H 0.73934 0.51715 0.46347 0.0
H34 H 0.70281 0.48042 0.42843 0.0
H35 H 0.61717 0.54302 0.45456 0.0
H36 H 0.65377 0.58014 0.48869 0.0
H37 H 0.76644 0.63635 0.52047 0.0
H38 H 0.80479 0.67073 0.48387 0.0
H39 H 0.7811 0.61166 0.3908 0.0
H40 H 0.74259 0.57753 0.42737 0.0
H41 H 0.70434 0.56164 0.57805 0.0
H42 H 0.69295 0.64348 0.50276 0.0
O43 O 0.75312 0.55271 0.52723 0.0
H44 H 0.66934 0.59125 0.62175 0.0
H45 H 0.65832 0.67385 0.54682 0.0
C46 C 0.69918 0.55103 0.4791 0.0
C47 C 0.71272 0.52302 0.46151 0.0
C48 C 0.69197 0.50225 0.44132 0.0
C49 C 0.65729 0.50898 0.43895 0.0
C50 C 0.64386 0.53731 0.45619 0.0
C51 C 0.66474 0.55842 0.4758 0.0
C52 C 0.75117 0.60474 0.47665 0.0
C53 C 0.76898 0.63119 0.49206 0.0
C54 C 0.79088 0.65081 0.47111 0.0
C55 C 0.79577 0.64393 0.43444 0.0
C56 C 0.77786 0.61742 0.41901 0.0
C57 C 0.75569 0.598 0.43995 0.0
C58 C 0.7019 0.6007 0.53754 0.0
C59 C 0.69476 0.5863 0.57117 0.0
C60 C 0.67484 0.60338 0.59622 0.0
C61 C 0.66141 0.63522 0.58804 0.0
C62 C 0.66829 0.64943 0.55401 0.0
C63 C 0.68829 0.63223 0.52891 0.0
P64 P 0.73606 0.42467 0.02828 0.0
H65 H 0.74148 0.39918 0.10208 0.0
H66 H 0.70016 0.373 0.14307 0.0
H67 H 0.62803 0.36961 0.05709 0.0
H68 H 0.66928 0.39585 0.01641 0.0
H69 H 0.80386 0.43427 -0.00082 0.0
H70 H 0.84026 0.39988 0.9609 0.0
H71 H 0.76233 0.32417 0.95709 0.0
H72 H 0.72631 0.35853 0.99592 0.0
H73 H 0.68806 0.47716 0.04582 0.0
H74 H 0.72877 0.43215 0.94965 0.0
O75 O 0.76016 0.44843 0.0543 0.0
H76 H 0.6516 0.51291 0.00938 0.0
H77 H 0.69315 0.46839 0.91304 0.0
C78 C 0.70805 0.40027 0.05655 0.0
C79 C 0.71693 0.39235 0.09197 0.0
C80 C 0.69341 0.37716 0.11528 0.0
C81 C 0.66073 0.3697 0.10338 0.0
C82 C 0.65285 0.37558 0.06713 0.0
C83 C 0.67638 0.39061 0.04389 0.0
C84 C 0.76288 0.39845 0.00123 0.0
C85 C 0.79477 0.41012 0.99036 0.0
C86 C 0.81535 0.39065 0.96808 0.0
C87 C 0.80421 0.35925 0.95604 0.0
C88 C 0.77182 0.34802 0.96637 0.0
C89 C 0.75125 0.36757 0.98865 0.0
C90 C 0.71118 0.45212 0.00053 0.0
C91 C 0.68944 0.47529 0.01684 0.0
C92 C 0.66874 0.49581 0.99594 0.0
C93 C 0.66952 0.49359 0.95824 0.0
C94 C 0.69165 0.47048 0.94199 0.0
C95 C 0.71225 0.44987 0.96297 0.0
P96 P 0.30718 0.63724 0.44975 0.0
H97 H 0.28606 0.60421 0.38451 0.0
H98 H 0.2943 0.54745 0.36166 0.0
H99 H 0.34837 0.52117 0.45824 0.0
H100 H 0.33814 0.57676 0.48157 0.0
H101 H 0.27329 0.70176 0.45017 0.0
H102 H 0.21395 0.71768 0.44447 0.0
H103 H 0.18539 0.6131 0.44749 0.0
H104 H 0.24472 0.59732 0.4539 0.0
H105 H 0.37725 0.64313 0.46984 0.0
H106 H 0.2802 0.64082 0.52366 0.0
O107 O 0.32665 0.66239 0.42006 0.0
H108 H 0.40532 0.64451 0.52798 0.0
H109 H 0.30825 0.64277 0.58198 0.0
C110 C 0.31186 0.59485 0.43445 0.0
C111 C 0.29929 0.58596 0.40085 0.0
C112 C 0.30411 0.55355 0.38782 0.0
C113 C 0.32218 0.52966 0.40796 0.0
C114 C 0.33381 0.53856 0.44216 0.0
C115 C 0.32846 0.57076 0.45537 0.0
C116 C 0.26336 0.64844 0.45129 0.0
C117 C 0.25419 0.68232 0.45016 0.0
C118 C 0.22033 0.69135 0.44717 0.0
C119 C 0.19524 0.66653 0.44521 0.0
C120 C 0.20437 0.63262 0.44852 0.0
C121 C 0.23824 0.62364 0.452 0.0
C122 C 0.32673 0.64241 0.49253 0.0
C123 C 0.36201 0.6435 0.49419 0.0
C124 C 0.37799 0.64399 0.52732 0.0
C125 C 0.35887 0.64365 0.5593 0.0
C126 C 0.32346 0.64327 0.55761 0.0
C127 C 0.30747 0.64225 0.52437 0.0
P128 P 0.80987 0.84098 0.97265 0.0
H129 H 0.84356 0.78164 0.00261 0.0
H130 H 0.8659 0.77035 0.06246 0.0
H131 H 0.81726 0.86014 0.10179 0.0
H132 H 0.79602 0.87184 0.0418 0.0
H133 H 0.77723 0.8212 0.90667 0.0
H134 H 0.71887 0.80823 0.89224 0.0
H135 H 0.68788 0.8354 -0.00017 0.0
H136 H 0.74653 0.84773 0.01428 0.0
H137 H 0.87172 0.87399 0.99206 0.0
H138 H 0.77635 0.90266 0.9461 0.0
O139 O 0.83401 0.81897 0.94434 0.0
H140 H 0.89103 0.93194 0.98805 0.0
H141 H 0.79564 0.96106 0.942 0.0
C142 C 0.81851 0.82776 0.01779 0.0
C143 C 0.8371 0.79846 0.0243 0.0
C144 C 0.84969 0.79194 0.05856 0.0
C145 C 0.84372 0.81467 0.08659 0.0
C146 C 0.82271 0.84251 0.08051 0.0
C147 C 0.81032 0.84905 0.04632 0.0
C148 C 0.76633 0.83457 0.96178 0.0
C149 C 0.75788 0.82448 0.92713 0.0
C150 C 0.72442 0.81741 0.91881 0.0
C151 C 0.69876 0.82063 0.94499 0.0
C152 C 0.70718 0.8322 0.97929 0.0
C153 C 0.74073 0.83927 0.98757 0.0
C154 C 0.82267 0.8841 0.96941 0.0
C155 C 0.85483 0.89289 0.98137 0.0
C156 C 0.8657 0.92608 0.97944 0.0
C157 C 0.84469 0.9511 0.96509 0.0
C158 C 0.8123 0.94226 0.95324 0.0
C159 C 0.80131 0.90892 0.95548 0.0
P160 P 0.25408 0.05402 0.55646 0.0
H161 H 0.22665 0.98598 0.55932 0.0
H162 H 0.18887 0.95543 0.51996 0.0
H163 H 0.1795 0.04365 0.45239 0.0
H164 H 0.21825 0.07368 0.49139 0.0
H165 H 0.27385 0.12538 0.5531 0.0
H166 H 0.31187 0.15622 0.51257 0.0
H167 H 0.3334 0.06459 0.45523 0.0
H168 H 0.29631 0.03385 0.49666 0.0
H169 H 0.27098 0.07796 0.6277 0.0
H170 H 0.18709 0.08653 0.55543 0.0
O171 O 0.27712 0.02603 0.57905 0.0
H172 H 0.23781 0.10578 0.67459 0.0
H173 H 0.15358 0.11367 0.60231 0.0
C174 C 0.22543 0.03191 0.52803 0.0
C175 C 0.21657 -0.00132 0.53597 0.0
C176 C 0.19479 0.98133 0.51353 0.0
C177 C 0.18115 -0.00289 0.48298 0.0
C178 C 0.18997 0.0306 0.47533 0.0
C179 C 0.21192 0.04785 0.49772 0.0
C180 C 0.2823 0.0774 0.52774 0.0
C181 C 0.28687 0.11195 0.53192 0.0
C182 C 0.3084 0.12958 0.5085 0.0
C183 C 0.32554 0.11289 0.48047 0.0
C184 C 0.32094 0.07816 0.4767 0.0
C185 C 0.29962 0.06059 0.50025 0.0
C186 C 0.23122 0.07934 0.58843 0.0
C187 C 0.24553 0.08609 0.62181 0.0
C188 C 0.22652 0.10195 0.6486 0.0
C189 C 0.19285 0.11147 0.64238 0.0
C190 C 0.17944 0.10677 0.60797 0.0
C191 C 0.19853 0.09091 0.58119 0.0
P192 P 0.25765 0.9309 0.04208 0.0
H193 H 0.21227 0.95817 0.09494 0.0
H194 H 0.18241 0.93458 0.14675 0.0
H195 H 0.22292 0.8366 0.12247 0.0
H196 H 0.25316 0.86067 0.07011 0.0
H197 H 0.32882 0.92983 0.02116 0.0
H198 H 0.36068 0.89717 0.97744 0.0
H199 H 0.27095 0.84023 0.95379 0.0
H200 H 0.23914 0.87292 -0.00168 0.0
H201 H 0.26007 -0.0031 0.00731 0.0
H202 H 0.19094 0.91355 0.0151 0.0
O203 O 0.28374 0.95863 0.0604 0.0
H204 H 0.21953 0.02788 0.97069 0.0
H205 H 0.15017 0.94444 0.97855 0.0
C206 C 0.23478 0.91121 0.07862 0.0
C207 C 0.21469 0.93158 0.10061 0.0
C208 C 0.19782 0.91808 0.13039 0.0
C209 C 0.20065 0.8838 0.13895 0.0
C210 C 0.22029 0.8631 0.11647 0.0
C211 C 0.23753 0.87682 0.08658 0.0
C212 C 0.28169 0.90351 0.01334 0.0
C213 C 0.316 0.91007 0.00697 0.0
C214 C 0.33414 0.89164 0.98155 0.0
C215 C 0.31828 0.86635 0.96181 0.0
C216 C 0.28393 0.85945 0.96867 0.0
C217 C 0.26575 0.87803 0.99414 0.0
C218 C 0.22817 0.95324 0.01443 0.0
C219 C 0.23611 0.98531 0.00122 0.0
C220 C 0.21294 0.00299 0.98032 0.0
C221 C 0.18159 0.98866 0.97196 0.0
C222 C 0.1742 0.95604 0.98436 0.0
C223 C 0.19735 0.93847 0.00542 0.0
P224 P 0.81167 0.14622 0.47688 0.0
H225 H 0.84506 0.12405 0.4108 0.0
H226 H 0.85882 0.06842 0.38892 0.0
H227 H 0.79615 0.02443 0.47286 0.0
H228 H 0.78505 0.08015 0.49637 0.0
H229 H 0.7894 0.21544 0.46845 0.0
H230 H 0.73362 0.24083 0.46138 0.0
H231 H 0.68758 0.14311 0.47392 0.0
H232 H 0.74315 0.11792 0.48031 0.0
H233 H 0.87009 0.11409 0.50732 0.0
H234 H 0.77935 0.16204 0.54667 0.0
O235 O 0.83996 0.1722 0.45816 0.0
H236 H 0.8883 0.10434 0.56883 0.0
H237 H 0.79733 0.15204 0.60847 0.0
C238 C 0.81404 0.10624 0.45516 0.0
C239 C 0.83377 0.10247 0.42407 0.0
C240 C 0.84136 0.07047 0.41137 0.0
C241 C 0.82887 0.04171 0.42931 0.0
C242 C 0.8068 0.0459 0.45879 0.0
C243 C 0.7999 0.07786 0.47192 0.0
C244 C 0.77049 0.16466 0.47367 0.0
C245 C 0.76728 0.1995 0.46964 0.0
C246 C 0.73542 0.21403 0.46608 0.0
C247 C 0.70636 0.19385 0.46677 0.0
C248 C 0.70964 0.15915 0.47268 0.0
C249 C 0.74148 0.1447 0.47621 0.0
C250 C 0.82356 0.13892 0.52252 0.0
C251 C 0.85396 0.12225 0.52928 0.0
C252 C 0.86412 0.11632 0.56442 0.0
C253 C 0.84409 0.12722 0.59343 0.0
C254 C 0.81326 0.14345 0.58656 0.0
C255 C 0.80303 0.14924 0.55128 0.0
Sc256 Sc -0.00109 0.78348 0.31321 0.0
Sc257 Sc 0.00731 0.8717 0.31263 0.0
Sc258 Sc 0.98274 0.8299 0.39176 0.0
O259 O -0.00357 0.82833 0.33918 0.0
C260 C 0.93415 0.7728 0.36442 0.0
C261 C 0.96376 0.83031 0.2558 0.0
C262 C 0.94378 0.89333 0.36003 0.0
C263 C 0.06174 0.8233 0.27773 0.0
C264 C 0.03272 0.76682 0.38807 0.0
C265 C 0.04053 0.88521 0.38898 0.0
O266 O 0.95351 0.76349 0.33888 0.0
O267 O 0.97784 0.85692 0.26701 0.0
O268 O 0.94821 0.87094 0.38401 0.0
O269 O 0.04434 0.79675 0.28266 0.0
O270 O 0.0162 0.78917 0.40504 0.0
O271 O 0.03794 0.89142 0.35554 0.0
O272 O 0.03013 0.76224 0.35441 0.0
O273 O 0.05254 0.85174 0.28937 0.0
O274 O 0.02258 0.86335 0.40512 0.0
O275 O 0.96776 0.80174 0.27059 0.0
O276 O 0.94103 0.79719 0.38459 0.0
O277 O 0.96294 0.8965 0.33264 0.0
Sc278 Sc 0.98768 0.21003 0.81619 0.0
Sc279 Sc -0.00427 0.12259 0.82369 0.0
Sc280 Sc 0.98919 0.17104 0.90148 0.0
O281 O 0.99097 0.16797 0.84716 0.0
C282 C 0.03443 0.23482 0.8786 0.0
C283 C 0.04442 0.16646 0.775 0.0
C284 C 0.04437 0.11463 0.8916 0.0
C285 C 0.94341 0.16006 0.77198 0.0
C286 C 0.93418 0.22478 0.87953 0.0
C287 C 0.94346 0.10657 0.8859 0.0
O288 O 0.02561 0.23488 0.84596 0.0
O289 O 0.03741 0.13931 0.7915 0.0
O290 O 0.03302 0.14021 0.90784 0.0
O291 O 0.949 0.18917 0.78396 0.0
O292 O 0.94527 0.20205 0.90033 0.0
O293 O 0.95424 0.10289 0.85398 0.0
O294 O 0.94801 0.23199 0.84937 0.0
O295 O 0.96014 0.13439 0.7818 0.0
O296 O 0.95555 0.1281 0.90736 0.0
O297 O 0.02722 0.19332 0.7789 0.0
O298 O 0.02242 0.21435 0.90194 0.0
O299 O 0.03192 0.10413 0.86242 0.0
Sc300 Sc 0.48997 0.26405 0.31013 0.0
Sc301 Sc 0.48006 0.35183 0.30657 0.0
Sc302 Sc 0.4767 0.31047 0.38975 0.0
O303 O 0.48238 0.30869 0.33549 0.0
C304 C 0.43545 0.2446 0.37036 0.0
C305 C 0.43795 0.30172 0.25895 0.0
C306 C 0.42339 0.36524 0.36662 0.0
C307 C 0.53713 0.31183 0.2629 0.0
C308 C 0.53504 0.25606 0.37996 0.0
C309 C 0.52254 0.37503 0.37346 0.0
O310 O 0.44978 0.23938 0.34018 0.0
O311 O 0.44322 0.33084 0.27141 0.0
O312 O 0.43269 0.34222 0.38809 0.0
O313 O 0.53124 0.28313 0.27681 0.0
O314 O 0.52022 0.2789 0.39786 0.0
O315 O 0.5167 0.37655 0.33992 0.0
O316 O 0.52639 0.24776 0.34853 0.0
O317 O 0.52006 0.33774 0.27074 0.0
O318 O 0.50897 0.35343 0.39437 0.0
O319 O 0.45412 0.27575 0.26889 0.0
O320 O 0.44312 0.26858 0.39086 0.0
O321 O 0.43919 0.37191 0.33763 0.0
Sc322 Sc 0.48783 0.72284 0.79513 0.0
Sc323 Sc 0.49735 0.63564 0.80035 0.0
Sc324 Sc 0.48685 0.68145 0.87877 0.0
O325 O 0.49063 0.68007 0.82479 0.0
C326 C 0.53321 0.74535 0.85946 0.0
C327 C 0.54624 0.68074 0.75495 0.0
C328 C 0.54241 0.62582 0.87062 0.0
C329 C 0.44726 0.67435 0.74676 0.0
C330 C 0.43275 0.73565 0.85753 0.0
C331 C 0.44298 0.6167 0.85886 0.0
O332 O 0.52653 0.74588 0.82614 0.0
O333 O 0.54124 0.65398 0.77292 0.0
O334 O 0.53142 0.65193 0.88609 0.0
O335 O 0.44895 0.70263 0.7621 0.0
O336 O 0.44198 0.71091 0.87665 0.0
O337 O 0.45378 0.61484 0.82667 0.0
O338 O 0.44858 0.74498 0.82915 0.0
O339 O 0.46563 0.64947 0.75564 0.0
O340 O 0.45477 0.63738 0.88144 0.0
O341 O 0.52685 0.70629 0.75692 0.0
O342 O 0.51875 0.72544 0.88176 0.0
O343 O 0.53032 0.61534 0.84126 0.0
H344 H 0.15319 0.33823 0.89296 0.0
H345 H 0.15676 0.29453 -0.00082 0.0
H346 H 0.10618 0.26163 0.98699 0.0
H347 H 0.06465 0.24102 0.94384 0.0
H348 H 0.06295 0.28391 0.83684 0.0
H349 H 0.10919 0.32105 0.85164 0.0
C350 C 0.1427 0.32168 0.9135 0.0
C351 C 0.15877 0.31854 0.94672 0.0
C352 C 0.11422 0.30232 0.90604 0.0
C353 C 0.14465 0.29751 0.97342 0.0
C354 C 0.11595 0.27845 0.96635 0.0
C355 C 0.07417 0.25869 0.92386 0.0
C356 C 0.06058 0.25921 0.88915 0.0
C357 C 0.10108 0.27997 0.93239 0.0
C358 C 0.07311 0.28254 0.86369 0.0
C359 C 0.09958 0.30392 0.87209 0.0
H360 H 0.80234 0.71138 0.43248 0.0
H361 H 0.84464 0.62072 0.38844 0.0
H362 H 0.88958 0.65321 0.35879 0.0
H363 H 0.92015 0.70693 0.35094 0.0
H364 H 0.87792 0.79681 0.39734 0.0
H365 H 0.82969 0.76518 0.42029 0.0
C366 C 0.82132 0.69879 0.41622 0.0
C367 C 0.82048 0.66377 0.41299 0.0
C368 C 0.84723 0.71749 0.39981 0.0
C369 C 0.84477 0.64775 0.39126 0.0
C370 C 0.87056 0.66628 0.37449 0.0
C371 C 0.90006 0.71962 0.36548 0.0
C372 C 0.90285 0.75404 0.37284 0.0
C373 C 0.87252 0.70111 0.3793 0.0
C374 C 0.87663 0.7702 0.39177 0.0
C375 C 0.84901 0.75217 0.40494 0.0
H376 H 0.81451 0.29246 0.96399 0.0
H377 H 0.84545 0.37776 0.89963 0.0
H378 H 0.88668 0.34291 0.86773 0.0
H379 H 0.91666 0.28892 0.86125 0.0
H380 H 0.88593 0.20449 0.92724 0.0
H381 H 0.84141 0.23809 0.95472 0.0
C382 C 0.82978 0.30331 0.9425 0.0
C383 C 0.82701 0.33765 0.93432 0.0
C384 C 0.85356 0.28326 0.92457 0.0
C385 C 0.84743 0.35144 0.90678 0.0
C386 C 0.87091 0.33151 0.88844 0.0
C387 C 0.89985 0.27778 0.88121 0.0
C388 C 0.90478 0.24436 0.89236 0.0
C389 C 0.87462 0.29749 0.89756 0.0
C390 C 0.88292 0.23029 0.91844 0.0
C391 C 0.85744 0.24947 0.93421 0.0
H392 H 0.15647 0.71464 0.47607 0.0
H393 H 0.15665 0.64026 0.39266 0.0
H394 H 0.1037 0.66269 0.36956 0.0
H395 H 0.06153 0.70774 0.36864 0.0
H396 H 0.06165 0.78255 0.45186 0.0
H397 H 0.1101 0.75548 0.47964 0.0
C398 C 0.14455 0.70311 0.45319 0.0
C399 C 0.16043 0.67615 0.43583 0.0
C400 C 0.1144 0.71638 0.43981 0.0
C401 C 0.1447 0.66099 0.40651 0.0
C402 C 0.11461 0.67396 0.39312 0.0
C403 C 0.0719 0.71787 0.39311 0.0
C404 C 0.05837 0.74739 0.4078 0.0
C405 C 0.09987 0.70233 0.40885 0.0
C406 C 0.07168 0.7599 0.43988 0.0
C407 C 0.0995 0.74455 0.45573 0.0
H408 H 0.66326 0.83226 0.88409 0.0
H409 H 0.65627 0.78384 0.98801 0.0
H410 H 0.60215 0.75924 0.97203 0.0
H411 H 0.56022 0.74655 0.92637 0.0
H412 H 0.56868 0.79284 0.82129 0.0
H413 H 0.61886 0.82305 0.83995 0.0
C414 C 0.64979 0.81644 0.90328 0.0
C415 C 0.66393 0.80962 0.93701 0.0
C416 C 0.61912 0.80171 0.89362 0.0
C417 C 0.64586 0.78968 0.96192 0.0
C418 C 0.61504 0.77535 0.9527 0.0
C419 C 0.57271 0.76356 0.90763 0.0
C420 C 0.56085 0.767 0.87232 0.0
C421 C 0.60191 0.78048 0.9183 0.0
C422 C 0.57737 0.78938 0.84854 0.0
C423 C 0.60614 0.80668 0.85915 0.0
H424 H 0.3153 0.17474 0.45132 0.0
H425 H 0.38681 0.09298 0.4531 0.0
H426 H 0.42521 0.12484 0.41409 0.0
H427 H 0.44084 0.17818 0.3841 0.0
H428 H 0.37148 0.26141 0.38752 0.0
H429 H 0.32979 0.22685 0.41967 0.0
C430 C 0.33935 0.16393 0.44334 0.0
C431 C 0.34823 0.13163 0.4554 0.0
C432 C 0.36166 0.18267 0.42167 0.0
C433 C 0.37918 0.1177 0.44403 0.0
C434 C 0.40127 0.13597 0.42185 0.0
C435 C 0.41623 0.18829 0.39118 0.0
C436 C 0.4088 0.22192 0.38328 0.0
C437 C 0.39303 0.16869 0.41099 0.0
C438 C 0.37734 0.23534 0.3932 0.0
C439 C 0.35369 0.21571 0.41174 0.0
H440 H 0.31707 0.79903 0.95086 0.0
H441 H 0.36382 0.89031 0.91209 0.0
H442 H 0.40078 0.85799 0.87236 0.0
H443 H 0.4237 0.80332 0.85324 0.0
H444 H 0.378 0.71232 0.89415 0.0
H445 H 0.3362 0.74493 0.92751 0.0
C446 C 0.33486 0.8119 0.93319 0.0
C447 C 0.33794 0.84697 0.93478 0.0
C448 C 0.35628 0.79316 0.91071 0.0
C449 C 0.36139 0.86324 0.91191 0.0
C450 C 0.38243 0.8448 0.88904 0.0
C451 C 0.40405 0.79071 0.86874 0.0
C452 C 0.40399 0.75552 0.87137 0.0
C453 C 0.38068 0.80967 0.88885 0.0
C454 C 0.37865 0.73944 0.89191 0.0
C455 C 0.35483 0.75805 0.91111 0.0
H456 H 0.66106 0.16892 0.42088 0.0
H457 H 0.67783 0.25176 0.49224 0.0
H458 H 0.62473 0.27761 0.47323 0.0
H459 H 0.57526 0.2778 0.43377 0.0
H460 H 0.56038 0.19522 0.36124 0.0
H461 H 0.6109 0.1678 0.38379 0.0
C462 C 0.65277 0.1923 0.43281 0.0
C463 C 0.67312 0.20838 0.45798 0.0
C464 C 0.62268 0.20708 0.42145 0.0
C465 C 0.66254 0.23906 0.47264 0.0
C466 C 0.63223 0.25376 0.46184 0.0
C467 C 0.58289 0.25363 0.42322 0.0
C468 C 0.56423 0.23866 0.39576 0.0
C469 C 0.61234 0.2382 0.43587 0.0
C470 C 0.57451 0.20744 0.38215 0.0
C471 C 0.60335 0.19169 0.39504 0.0
H472 H 0.34307 0.49613 0.88414 0.0
H473 H 0.36893 0.51511 0.99423 0.0
H474 H 0.40059 0.56515 0.97568 0.0
H475 H 0.42575 0.59966 0.92756 0.0
H476 H 0.40215 0.57857 0.81708 0.0
H477 H 0.36444 0.53346 0.83642 0.0
C478 C 0.35499 0.51172 0.90408 0.0
C479 C 0.35386 0.50205 0.9404 0.0
C480 C 0.37385 0.53981 0.89312 0.0
C481 C 0.36976 0.52208 0.96605 0.0
C482 C 0.38786 0.55058 0.95546 0.0
C483 C 0.41197 0.58555 0.90772 0.0
C484 C 0.4171 0.59224 0.87093 0.0
C485 C 0.39088 0.55912 0.91895 0.0
C486 C 0.39903 0.57367 0.84559 0.0
C487 C 0.37742 0.54786 0.85659 0.0
H488 H 0.60215 0.4788 0.46672 0.0
H489 H 0.6628 0.48597 0.3702 0.0
H490 H 0.62569 0.44579 0.34041 0.0
H491 H 0.57615 0.40791 0.34256 0.0
H492 H 0.51833 0.39887 0.44115 0.0
H493 H 0.55403 0.4405 0.46938 0.0
C494 C 0.60699 0.47171 0.43906 0.0
C495 C 0.63478 0.48538 0.42046 0.0
C496 C 0.58613 0.4482 0.42258 0.0
C497 C 0.64139 0.47566 0.3849 0.0
C498 C 0.62021 0.45277 0.36793 0.0
C499 C 0.5714 0.41521 0.37015 0.0
C500 C 0.54469 0.40035 0.38973 0.0
C501 C 0.59253 0.43877 0.38658 0.0
C502 C 0.53893 0.40974 0.4256 0.0
C503 C 0.55924 0.43363 0.44176 0.0
H504 H 0.65379 0.55939 0.96788 0.0
H505 H 0.63401 0.4754 0.89885 0.0
H506 H 0.59469 0.50952 0.86413 0.0
H507 H 0.56362 0.5623 0.85538 0.0
H508 H 0.58193 0.64544 0.92621 0.0
H509 H 0.6238 0.6124 0.95835 0.0
C510 C 0.64074 0.54847 0.94537 0.0
C511 C 0.64677 0.51483 0.93614 0.0
C512 C 0.61774 0.56803 0.9259 0.0
C513 C 0.63015 0.50132 0.90638 0.0
C514 C 0.60746 0.52075 0.88663 0.0
C515 C 0.57695 0.57331 0.87765 0.0
C516 C 0.56942 0.60628 0.88841 0.0
C517 C 0.60079 0.55403 0.89639 0.0
C518 C 0.58695 0.62006 0.91744 0.0
C519 C 0.61096 0.60119 0.93588 0.0
H520 H 0.32751 0.46872 0.44183 0.0
H521 H 0.34005 0.51714 0.33824 0.0
H522 H 0.36678 0.46703 0.31462 0.0
H523 H 0.39504 0.41396 0.32587 0.0
H524 H 0.38873 0.36753 0.43096 0.0
H525 H 0.35116 0.41234 0.45139 0.0
C526 C 0.33594 0.46827 0.41403 0.0
C527 C 0.33222 0.497 0.39213 0.0
C528 C 0.35287 0.43988 0.40097 0.0
C529 C 0.3423 0.4955 0.35582 0.0
C530 C 0.358 0.46691 0.3423 0.0
C531 C 0.38516 0.41328 0.35316 0.0
C532 C 0.39539 0.38785 0.37709 0.0
C533 C 0.36469 0.43962 0.36505 0.0
C534 C 0.38164 0.38704 0.41207 0.0
C535 C 0.36027 0.41274 0.42383 0.0
H536 H 0.84011 0.98928 0.9051 0.0
H537 H 0.88036 0.98932 0.01217 0.0
H538 H 0.9115 0.04098 -0.00143 0.0
H539 H 0.93297 0.08169 0.95352 0.0
H540 H 0.89439 0.07903 0.8457 0.0
H541 H 0.85636 0.03338 0.86251 0.0
C542 C 0.85493 0.0011 0.92578 0.0
C543 C 0.85819 0.98542 0.95943 0.0
C544 C 0.87333 0.03021 0.9175 0.0
C545 C 0.87786 0.00078 0.98585 0.0
C546 C 0.89565 0.03028 0.9781 0.0
C547 C 0.91568 0.07157 0.93402 0.0
C548 C 0.91675 0.08334 0.89837 0.0
C549 C 0.8945 0.04457 0.94359 0.0
C550 C 0.89433 0.06999 0.87323 0.0
C551 C 0.87259 0.04388 0.88278 0.0
H552 H 0.13069 0.95546 0.5044 0.0
H553 H 0.17768 -0.00198 0.40936 0.0
H554 H 0.13797 0.96778 0.37161 0.0
H555 H 0.09023 0.92842 0.36576 0.0
H556 H 0.0453 0.88507 0.4618 0.0
H557 H 0.08432 0.91598 0.49874 0.0
C558 C 0.13259 0.95783 0.47541 0.0
C559 C 0.15722 0.97885 0.45978 0.0
C560 C 0.11008 0.94012 0.45394 0.0
C561 C 0.15873 0.98223 0.42215 0.0
C562 C 0.13617 0.9648 0.40052 0.0
C563 C 0.08896 0.92577 0.39475 0.0
C564 C 0.06479 0.90436 0.41081 0.0
C565 C 0.11173 0.9436 0.41614 0.0
C566 C 0.06365 0.9012 0.4485 0.0
C567 C 0.08595 0.91894 0.4698 0.0
H568 H 0.16341 0.05343 0.98214 0.0
H569 H 0.14249 0.96749 0.91643 0.0
H570 H 0.09903 -0.00073 0.88461 0.0
H571 H 0.06593 0.05109 0.87676 0.0
H572 H 0.08655 0.1364 0.94382 0.0
H573 H 0.13146 0.10536 0.97342 0.0
C574 C 0.14965 0.0418 0.96053 0.0
C575 C 0.15618 0.00821 0.9516 0.0
C576 C 0.12461 0.06009 0.94261 0.0
C577 C 0.13771 0.99326 0.92399 0.0
C578 C 0.11297 0.01145 0.90572 0.0
C579 C 0.08042 0.06298 0.89765 0.0
C580 C 0.07274 0.09602 0.90806 0.0
C581 C 0.10602 0.04482 0.91499 0.0
C582 C 0.09169 0.11095 0.93537 0.0
C583 C 0.11744 0.09323 0.95234 0.0
H584 H 0.8458 0.01726 0.36308 0.0
H585 H 0.8435 0.99027 0.47576 0.0
H586 H 0.87459 0.93921 0.46298 0.0
H587 H 0.90943 0.90649 0.42171 0.0
H588 H 0.91715 0.93625 0.31015 0.0
H589 H 0.87757 0.98216 0.32082 0.0
C590 C 0.852 0.0002 0.38487 0.0
C591 C 0.84249 0.00799 0.42035 0.0
C592 C 0.87145 0.97158 0.37767 0.0
C593 C 0.84998 0.98499 0.44806 0.0
C594 C 0.86823 0.95585 0.44089 0.0
C595 C 0.90209 0.92268 0.39957 0.0
C596 C 0.91659 0.91823 0.36534 0.0
C597 C 0.88011 0.94954 0.40605 0.0
C598 C 0.90672 0.93942 0.33693 0.0
C599 C 0.88406 0.96566 0.34297 0.0
H600 H 0.36455 0.28697 0.11275 0.0
H601 H 0.3033 0.36618 0.15797 0.0
H602 H 0.33332 0.361 0.21457 0.0
H603 H 0.38144 0.33855 0.24834 0.0
H604 H 0.44057 0.25769 0.2037 0.0
H605 H 0.40594 0.25826 0.14991 0.0
C606 C 0.35684 0.30242 0.13522 0.0
C607 C 0.33216 0.32746 0.13072 0.0
C608 C 0.37398 0.29918 0.1677 0.0
C609 C 0.3229 0.34736 0.16029 0.0
C610 C 0.33995 0.34435 0.19273 0.0
C611 C 0.38638 0.32078 0.22699 0.0
C612 C 0.41377 0.29854 0.22954 0.0
C613 C 0.36636 0.32119 0.19623 0.0
C614 C 0.41964 0.27514 0.20218 0.0
C615 C 0.39998 0.27556 0.17138 0.0
H616 H 0.6703 0.63955 0.66011 0.0
H617 H 0.60271 0.66991 0.57583 0.0
H618 H 0.56316 0.69235 0.62046 0.0
H619 H 0.54449 0.6966 0.68393 0.0
H620 H 0.61034 0.66138 0.7675 0.0
H621 H 0.65387 0.64782 0.72289 0.0
C622 C 0.64696 0.65116 0.65146 0.0
C623 C 0.63933 0.65259 0.61468 0.0
C624 C 0.62395 0.66314 0.67727 0.0
C625 C 0.60933 0.66852 0.60394 0.0
C626 C 0.58656 0.68118 0.62948 0.0
C627 C 0.56879 0.6869 0.69228 0.0
C628 C 0.57445 0.68017 0.72882 0.0
C629 C 0.59317 0.67781 0.66629 0.0
C630 C 0.60565 0.66688 0.73945 0.0
C631 C 0.6304 0.65892 0.71396 0.0
H632 H 0.66284 0.32135 0.15635 0.0
H633 H 0.59829 0.39662 0.1091 0.0
H634 H 0.55446 0.38438 0.15358 0.0
H635 H 0.53521 0.35445 0.20698 0.0
H636 H 0.59745 0.27784 0.25488 0.0
H637 H 0.64149 0.28828 0.20899 0.0
C638 C 0.63909 0.33487 0.15582 0.0
C639 C 0.63378 0.35979 0.12937 0.0
C640 C 0.61373 0.32761 0.1816 0.0
C641 C 0.60283 0.37702 0.1288 0.0
C642 C 0.57783 0.37022 0.15438 0.0
C643 C 0.55844 0.34 0.20748 0.0
C644 C 0.56335 0.31578 0.23456 0.0
C645 C 0.58315 0.34589 0.18105 0.0
C646 C 0.5932 0.29672 0.23434 0.0
C647 C 0.61835 0.30278 0.20819 0.0
H648 H 0.34802 0.68493 0.61579 0.0
H649 H 0.40838 0.6011 0.58054 0.0
H650 H 0.43941 0.60165 0.63687 0.0
H651 H 0.45131 0.62776 0.69442 0.0
H652 H 0.39321 0.71363 0.72878 0.0
H653 H 0.35911 0.71034 0.67463 0.0
C654 C 0.36774 0.66662 0.62075 0.0
C655 C 0.37609 0.64309 0.59423 0.0
C656 C 0.38587 0.66751 0.65288 0.0
C657 C 0.40184 0.61962 0.60059 0.0
C658 C 0.41948 0.61988 0.63275 0.0
C659 C 0.43092 0.64553 0.69034 0.0
C660 C 0.42481 0.67089 0.71559 0.0
C661 C 0.412 0.64398 0.65886 0.0
C662 C 0.39853 0.69394 0.70965 0.0
C663 C 0.37903 0.69209 0.67871 0.0
H664 H 0.87626 0.86443 0.12029 0.0
H665 H 0.85482 0.75848 0.12784 0.0
H666 H 0.8901 0.754 0.18128 0.0
H667 H 0.92792 0.78016 0.22467 0.0
H668 H 0.94913 0.88636 0.21617 0.0
H669 H 0.91259 0.89074 0.16426 0.0
C670 C 0.87876 0.84045 0.13402 0.0
C671 C 0.86274 0.81188 0.12042 0.0
C672 C 0.89915 0.83808 0.16433 0.0
C673 C 0.86697 0.78081 0.13787 0.0
C674 C 0.88709 0.77826 0.16835 0.0
C675 C 0.92458 0.8043 0.21153 0.0
C676 C 0.94143 0.83285 0.22432 0.0
C677 C 0.90353 0.80671 0.1816 0.0
C678 C 0.93663 0.86392 0.20693 0.0
C679 C 0.91569 0.8665 0.17724 0.0
H680 H 0.14572 0.16207 0.64293 0.0
H681 H 0.18976 0.08492 0.70973 0.0
H682 H 0.1498 0.0977 0.75776 0.0
H683 H 0.09937 0.12683 0.77889 0.0
H684 H 0.05383 0.20368 0.71317 0.0
H685 H 0.09747 0.1952 0.66678 0.0
C686 C 0.14667 0.14827 0.66811 0.0
C687 C 0.17073 0.12251 0.67261 0.0
C688 C 0.12325 0.15554 0.69574 0.0
C689 C 0.17188 0.10513 0.7056 0.0
C690 C 0.14883 0.11222 0.73305 0.0
C691 C 0.09913 0.14199 0.75454 0.0
C692 C 0.07317 0.16553 0.74923 0.0
C693 C 0.124 0.13682 0.72811 0.0
C694 C 0.07355 0.18538 0.71787 0.0
C695 C 0.09837 0.18037 0.69127 0.0
H696 H 0.16115 0.82758 0.14533 0.0
H697 H 0.2005 0.91046 0.20573 0.0
H698 H 0.16406 0.89564 0.25659 0.0
H699 H 0.11583 0.86428 0.28057 0.0
H700 H 0.07495 0.78183 0.22083 0.0
H701 H 0.11773 0.79063 0.17359 0.0
C702 C 0.16225 0.84185 0.16995 0.0
C703 C 0.18296 0.87051 0.17149 0.0
C704 C 0.14083 0.83338 0.19915 0.0
C705 C 0.18421 0.88875 0.2036 0.0
C706 C 0.16344 0.88027 0.23273 0.0
C707 C 0.1167 0.84778 0.25754 0.0
C708 C 0.092 0.82276 0.25396 0.0
C709 C 0.1408 0.85344 0.23029 0.0
C710 C 0.09372 0.80127 0.22425 0.0
C711 C 0.11798 0.80652 0.19705 0.0
H712 H 0.84379 0.17575 0.64349 0.0
H713 H 0.8749 0.07347 0.62546 0.0
H714 H 0.906 0.07341 0.68182 0.0
H715 H 0.92956 0.10477 0.73214 0.0
H716 H 0.89918 0.20774 0.7486 0.0
H717 H 0.86204 0.20487 0.6972 0.0
C718 C 0.85658 0.15313 0.65237 0.0
C719 C 0.85735 0.12478 0.63029 0.0
C720 C 0.87486 0.15352 0.68428 0.0
C721 C 0.8744 0.09577 0.64189 0.0
C722 C 0.89216 0.09574 0.67404 0.0
C723 C 0.91449 0.12645 0.72481 0.0
C724 C 0.9177 0.15659 0.74382 0.0
C725 C 0.89349 0.12487 0.69481 0.0
C726 C 0.89768 0.18434 0.73412 0.0
C727 C 0.87636 0.18277 0.70472 0.0
loop_
_geom_bond_atom_site_label_1
_geom_bond_atom_site_label_2
_geom_bond_distance
_geom_bond_site_symmetry_2
_ccdc_geom_bond_type
P0 O11 1.490 . S
P0 C14 1.812 1_556 S
P0 C20 1.803 . S
P0 C26 1.819 . S
H1 C15 0.941 . S
H2 C16 0.939 . S
H3 C18 0.940 . S
H4 C19 0.940 . S
H5 C21 0.939 . S
H6 C22 0.942 . S
H7 C24 0.940 1_554 S
H8 C25 0.939 . S
H9 C27 0.941 . S
H10 C31 0.939 . S
O11 P0 1.490 . S
H12 C28 0.939 . S
H13 C30 0.940 . S
C14 P0 1.812 1_554 S
C14 C15 1.389 . S
C14 C19 1.391 . S
C15 H1 0.941 . S
C15 C14 1.389 . S
C15 C16 1.397 . S
C16 H2 0.939 . S
C16 C15 1.397 . S
C16 C17 1.378 . S
C17 C16 1.378 . S
C17 C18 1.378 . S
C18 H3 0.940 . S
C18 C17 1.378 . S
C18 C19 1.396 . S
C19 H4 0.940 . S
C19 C14 1.391 . S
C19 C18 1.396 . S
C20 P0 1.803 . S
C20 C21 1.378 . S
C20 C25 1.400 1_556 S
C21 H5 0.939 . S
C21 C20 1.378 . S
C21 C22 1.361 . S
C22 H6 0.942 . S
C22 C21 1.361 . S
C22 C23 1.369 . S
C23 C22 1.369 . S
C23 C24 1.404 . S
C24 H7 0.940 1_556 S
C24 C23 1.404 . S
C24 C25 1.389 1_556 S
C25 H8 0.939 . S
C25 C20 1.400 1_554 S
C25 C24 1.389 1_554 S
C26 P0 1.819 . S
C26 C27 1.391 . S
C26 C31 1.391 . S
C27 H9 0.941 . S
C27 C26 1.391 . S
C27 C28 1.396 . S
C28 H12 0.939 . S
C28 C27 1.396 . S
C28 C29 1.397 . S
C29 C28 1.397 . S
C29 C30 1.385 . S
C30 H13 0.940 . S
C30 C29 1.385 . S
C30 C31 1.388 . S
C31 H10 0.939 . S
C31 C26 1.391 . S
C31 C30 1.388 . S
P32 O43 1.490 . S
P32 C46 1.812 . S
P32 C52 1.803 . S
P32 C58 1.819 . S
H33 C47 0.941 . S
H34 C48 0.939 . S
H35 C50 0.940 . S
H36 C51 0.940 . S
H37 C53 0.939 . S
H38 C54 0.942 . S
H39 C56 0.940 . S
H40 C57 0.939 . S
H41 C59 0.941 . S
H42 C63 0.939 . S
O43 P32 1.490 . S
H44 C60 0.939 . S
H45 C62 0.940 . S
C46 P32 1.812 . S
C46 C47 1.389 . S
C46 C51 1.391 . S
C47 H33 0.941 . S
C47 C46 1.389 . S
C47 C48 1.397 . S
C48 H34 0.939 . S
C48 C47 1.397 . S
C48 C49 1.378 . S
C49 C48 1.378 . S
C49 C50 1.378 . S
C50 H35 0.940 . S
C50 C49 1.378 . S
C50 C51 1.396 . S
C51 H36 0.940 . S
C51 C46 1.391 . S
C51 C50 1.396 . S
C52 P32 1.803 . S
C52 C53 1.378 . S
C52 C57 1.400 . S
C53 H37 0.939 . S
C53 C52 1.378 . S
C53 C54 1.361 . S
C54 H38 0.942 . S
C54 C53 1.361 . S
C54 C55 1.369 . S
C55 C54 1.369 . S
C55 C56 1.404 . S
C56 H39 0.940 . S
C56 C55 1.404 . S
C56 C57 1.389 . S
C57 H40 0.939 . S
C57 C52 1.400 . S
C57 C56 1.389 . S
C58 P32 1.819 . S
C58 C59 1.391 . S
C58 C63 1.391 . S
C59 H41 0.941 . S
C59 C58 1.391 . S
C59 C60 1.396 . S
C60 H44 0.939 . S
C60 C59 1.396 . S
C60 C61 1.397 . S
C61 C60 1.397 . S
C61 C62 1.385 . S
C62 H45 0.940 . S
C62 C61 1.385 . S
C62 C63 1.388 . S
C63 H42 0.939 . S
C63 C58 1.391 . S
C63 C62 1.388 . S
P64 O75 1.490 . S
P64 C78 1.812 . S
P64 C84 1.803 . S
P64 C90 1.823 . S
H65 C79 0.941 . S
H66 C80 0.939 . S
H67 C82 0.940 . S
H68 C83 0.940 . S
H69 C85 0.944 . S
H70 C86 0.942 . S
H71 C88 0.940 . S
H72 C89 0.945 . S
H73 C91 0.941 . S
H74 C95 0.939 . S
O75 P64 1.490 . S
H76 C92 0.939 . S
H77 C94 0.940 . S
C78 P64 1.812 . S
C78 C79 1.389 . S
C78 C83 1.391 . S
C79 H65 0.941 . S
C79 C78 1.389 . S
C79 C80 1.397 . S
C80 H66 0.939 . S
C80 C79 1.397 . S
C80 C81 1.378 . S
C81 C80 1.378 . S
C81 C82 1.378 . S
C82 H67 0.940 . S
C82 C81 1.378 . S
C82 C83 1.396 . S
C83 H68 0.940 . S
C83 C78 1.391 . S
C83 C82 1.396 . S
C84 P64 1.803 . S
C84 C85 1.378 1_554 S
C84 C89 1.404 . S
C85 H69 0.944 . S
C85 C84 1.378 1_556 S
C85 C86 1.361 . S
C86 H70 0.942 . S
C86 C85 1.361 . S
C86 C87 1.369 . S
C87 C86 1.369 . S
C87 C88 1.404 . S
C88 H71 0.940 . S
C88 C87 1.404 . S
C88 C89 1.380 1_556 S
C89 H72 0.945 . S
C89 C84 1.404 . S
C89 C88 1.380 1_554 S
C90 P64 1.823 . S
C90 C91 1.393 . S
C90 C95 1.385 1_554 S
C91 H73 0.941 . S
C91 C90 1.393 . S
C91 C92 1.396 1_554 S
C92 H76 0.939 . S
C92 C91 1.396 1_556 S
C92 C93 1.397 . S
C93 C92 1.397 . S
C93 C94 1.385 . S
C94 H77 0.940 . S
C94 C93 1.385 . S
C94 C95 1.388 . S
C95 H74 0.939 . S
C95 C90 1.385 1_556 S
C95 C94 1.388 . S
P96 O107 1.490 . S
P96 C110 1.812 . S
P96 C116 1.803 . S
P96 C122 1.819 . S
H97 C111 0.941 . S
H98 C112 0.939 . S
H99 C114 0.940 . S
H100 C115 0.940 . S
H101 C117 0.939 . S
H102 C118 0.942 . S
H103 C120 0.940 . S
H104 C121 0.939 . S
H105 C123 0.941 . S
H106 C127 0.939 . S
O107 P96 1.490 . S
H108 C124 0.939 . S
H109 C126 0.940 . S
C110 P96 1.812 . S
C110 C111 1.389 . S
C110 C115 1.391 . S
C111 H97 0.941 . S
C111 C110 1.389 . S
C111 C112 1.397 . S
C112 H98 0.939 . S
C112 C111 1.397 . S
C112 C113 1.378 . S
C113 C112 1.378 . S
C113 C114 1.378 . S
C114 H99 0.940 . S
C114 C113 1.378 . S
C114 C115 1.396 . S
C115 H100 0.940 . S
C115 C110 1.391 . S
C115 C114 1.396 . S
C116 P96 1.803 . S
C116 C117 1.378 . S
C116 C121 1.400 . S
C117 H101 0.939 . S
C117 C116 1.378 . S
C117 C118 1.361 . S
C118 H102 0.942 . S
C118 C117 1.361 . S
C118 C119 1.369 . S
C119 C118 1.369 . S
C119 C120 1.404 . S
C120 H103 0.940 . S
C120 C119 1.404 . S
C120 C121 1.389 . S
C121 H104 0.939 . S
C121 C116 1.400 . S
C121 C120 1.389 . S
C122 P96 1.819 . S
C122 C123 1.391 . S
C122 C127 1.391 . S
C123 H105 0.941 . S
C123 C122 1.391 . S
C123 C124 1.396 . S
C124 H108 0.939 . S
C124 C123 1.396 . S
C124 C125 1.397 . S
C125 C124 1.397 . S
C125 C126 1.385 . S
C126 H109 0.940 . S
C126 C125 1.385 . S
C126 C127 1.388 . S
C127 H106 0.939 . S
C127 C122 1.391 . S
C127 C126 1.388 . S
P128 O139 1.490 . S
P128 C142 1.812 1_556 S
P128 C148 1.803 . S
P128 C154 1.819 . S
H129 C143 0.941 . S
H130 C144 0.939 . S
H131 C146 0.940 . S
H132 C147 0.940 . S
H133 C149 0.939 . S
H134 C150 0.942 . S
H135 C152 0.940 1_554 S
H136 C153 0.939 . S
H137 C155 0.941 . S
H138 C159 0.939 . S
O139 P128 1.490 . S
H140 C156 0.939 . S
H141 C158 0.940 . S
C142 P128 1.812 1_554 S
C142 C143 1.389 . S
C142 C147 1.391 . S
C143 H129 0.941 . S
C143 C142 1.389 . S
C143 C144 1.397 . S
C144 H130 0.939 . S
C144 C143 1.397 . S
C144 C145 1.378 . S
C145 C144 1.378 . S
C145 C146 1.378 . S
C146 H131 0.940 . S
C146 C145 1.378 . S
C146 C147 1.396 . S
C147 H132 0.940 . S
C147 C142 1.391 . S
C147 C146 1.396 . S
C148 P128 1.803 . S
C148 C149 1.378 . S
C148 C153 1.400 1_556 S
C149 H133 0.939 . S
C149 C148 1.378 . S
C149 C150 1.361 . S
C150 H134 0.942 . S
C150 C149 1.361 . S
C150 C151 1.369 . S
C151 C150 1.369 . S
C151 C152 1.404 . S
C152 H135 0.940 1_556 S
C152 C151 1.404 . S
C152 C153 1.389 1_556 S
C153 H136 0.939 . S
C153 C148 1.400 1_554 S
C153 C152 1.389 1_554 S
C154 P128 1.819 . S
C154 C155 1.391 . S
C154 C159 1.391 . S
C155 H137 0.941 . S
C155 C154 1.391 . S
C155 C156 1.396 . S
C156 H140 0.939 . S
C156 C155 1.396 . S
C156 C157 1.397 . S
C157 C156 1.397 . S
C157 C158 1.385 . S
C158 H141 0.940 . S
C158 C157 1.385 . S
C158 C159 1.388 . S
C159 H138 0.939 . S
C159 C154 1.391 . S
C159 C158 1.388 . S
P160 O171 1.490 . S
P160 C174 1.812 . S
P160 C180 1.803 . S
P160 C186 1.819 . S
H161 C175 0.941 . S
H162 C176 0.939 . S
H163 C178 0.940 . S
H164 C179 0.940 . S
H165 C181 0.939 . S
H166 C182 0.942 . S
H167 C184 0.940 . S
H168 C185 0.939 . S
H169 C187 0.941 . S
H170 C191 0.939 . S
O171 P160 1.490 . S
H172 C188 0.939 . S
H173 C190 0.940 . S
C174 P160 1.812 . S
C174 C175 1.389 . S
C174 C179 1.391 . S
C175 H161 0.941 . S
C175 C174 1.389 . S
C175 C176 1.397 1_545 S
C176 H162 0.939 . S
C176 C175 1.397 1_565 S
C176 C177 1.378 1_565 S
C177 C176 1.378 1_545 S
C177 C178 1.378 . S
C178 H163 0.940 . S
C178 C177 1.378 . S
C178 C179 1.396 . S
C179 H164 0.940 . S
C179 C174 1.391 . S
C179 C178 1.396 . S
C180 P160 1.803 . S
C180 C181 1.378 . S
C180 C185 1.400 . S
C181 H165 0.939 . S
C181 C180 1.378 . S
C181 C182 1.361 . S
C182 H166 0.942 . S
C182 C181 1.361 . S
C182 C183 1.369 . S
C183 C182 1.369 . S
C183 C184 1.404 . S
C184 H167 0.940 . S
C184 C183 1.404 . S
C184 C185 1.389 . S
C185 H168 0.939 . S
C185 C180 1.400 . S
C185 C184 1.389 . S
C186 P160 1.819 . S
C186 C187 1.391 . S
C186 C191 1.391 . S
C187 H169 0.941 . S
C187 C186 1.391 . S
C187 C188 1.396 . S
C188 H172 0.939 . S
C188 C187 1.396 . S
C188 C189 1.397 . S
C189 C188 1.397 . S
C189 C190 1.385 . S
C190 H173 0.940 . S
C190 C189 1.385 . S
C190 C191 1.388 . S
C191 H170 0.939 . S
C191 C186 1.391 . S
C191 C190 1.388 . S
P192 O203 1.490 . S
P192 C206 1.812 . S
P192 C212 1.803 . S
P192 C218 1.823 . S
H193 C207 0.941 . S
H194 C208 0.939 . S
H195 C210 0.940 . S
H196 C211 0.940 . S
H197 C213 0.944 . S
H198 C214 0.942 . S
H199 C216 0.940 . S
H200 C217 0.945 . S
H201 C219 0.941 . S
H202 C223 0.939 . S
O203 P192 1.490 . S
H204 C220 0.939 . S
H205 C222 0.940 . S
C206 P192 1.812 . S
C206 C207 1.389 . S
C206 C211 1.391 . S
C207 H193 0.941 . S
C207 C206 1.389 . S
C207 C208 1.397 . S
C208 H194 0.939 . S
C208 C207 1.397 . S
C208 C209 1.378 . S
C209 C208 1.378 . S
C209 C210 1.378 . S
C210 H195 0.940 . S
C210 C209 1.378 . S
C210 C211 1.396 . S
C211 H196 0.940 . S
C211 C206 1.391 . S
C211 C210 1.396 . S
C212 P192 1.803 . S
C212 C213 1.378 1_554 S
C212 C217 1.404 . S
C213 H197 0.944 . S
C213 C212 1.378 1_556 S
C213 C214 1.361 . S
C214 H198 0.942 . S
C214 C213 1.361 . S
C214 C215 1.369 . S
C215 C214 1.369 . S
C215 C216 1.404 . S
C216 H199 0.940 . S
C216 C215 1.404 . S
C216 C217 1.380 1_556 S
C217 H200 0.945 . S
C217 C212 1.404 . S
C217 C216 1.380 1_554 S
C218 P192 1.823 . S
C218 C219 1.393 . S
C218 C223 1.385 1_554 S
C219 H201 0.941 . S
C219 C218 1.393 . S
C219 C220 1.396 1_564 S
C220 H204 0.939 . S
C220 C219 1.396 1_546 S
C220 C221 1.397 1_545 S
C221 C220 1.397 1_565 S
C221 C222 1.385 . S
C222 H205 0.940 . S
C222 C221 1.385 . S
C222 C223 1.388 . S
C223 H202 0.939 . S
C223 C218 1.385 1_556 S
C223 C222 1.388 . S
P224 O235 1.490 . S
P224 C238 1.812 . S
P224 C244 1.803 . S
P224 C250 1.819 . S
H225 C239 0.941 . S
H226 C240 0.939 . S
H227 C242 0.940 . S
H228 C243 0.940 . S
H229 C245 0.939 . S
H230 C246 0.942 . S
H231 C248 0.940 . S
H232 C249 0.939 . S
H233 C251 0.941 . S
H234 C255 0.939 . S
O235 P224 1.490 . S
H236 C252 0.939 . S
H237 C254 0.940 . S
C238 P224 1.812 . S
C238 C239 1.389 . S
C238 C243 1.391 . S
C239 H225 0.941 . S
C239 C238 1.389 . S
C239 C240 1.397 . S
C240 H226 0.939 . S
C240 C239 1.397 . S
C240 C241 1.378 . S
C241 C240 1.378 . S
C241 C242 1.378 . S
C242 H227 0.940 . S
C242 C241 1.378 . S
C242 C243 1.396 . S
C243 H228 0.940 . S
C243 C238 1.391 . S
C243 C242 1.396 . S
C244 P224 1.803 . S
C244 C245 1.378 . S
C244 C249 1.400 . S
C245 H229 0.939 . S
C245 C244 1.378 . S
C245 C246 1.361 . S
C246 H230 0.942 . S
C246 C245 1.361 . S
C246 C247 1.369 . S
C247 C246 1.369 . S
C247 C248 1.404 . S
C248 H231 0.940 . S
C248 C247 1.404 . S
C248 C249 1.389 . S
C249 H232 0.939 . S
C249 C244 1.400 . S
C249 C248 1.389 . S
C250 P224 1.819 . S
C250 C251 1.391 . S
C250 C255 1.391 . S
C251 H233 0.941 . S
C251 C250 1.391 . S
C251 C252 1.396 . S
C252 H236 0.939 . S
C252 C251 1.396 . S
C252 C253 1.397 . S
C253 C252 1.397 . S
C253 C254 1.385 . S
C254 H237 0.940 . S
C254 C253 1.385 . S
C254 C255 1.388 . S
C255 H234 0.939 . S
C255 C250 1.391 . S
C255 C254 1.388 . S
Sc256 O259 2.025 . S
Sc256 O266 2.105 1_455 S
Sc256 O269 2.105 . S
Sc256 O272 2.105 . S
Sc256 O275 2.105 1_455 S
Sc257 O259 2.025 . S
Sc257 O267 2.105 1_455 S
Sc257 O271 2.105 . S
Sc257 O273 2.105 . S
Sc257 O277 2.105 1_455 S
Sc258 O259 2.025 . S
Sc258 O268 2.105 1_455 S
Sc258 O270 2.105 . S
Sc258 O274 2.105 . S
Sc258 O276 2.105 1_455 S
O259 Sc256 2.025 . S
O259 Sc257 2.025 . S
O259 Sc258 2.025 . S
C260 O266 1.268 . S
C260 O276 1.268 . S
C261 O267 1.268 . S
C261 O275 1.268 . S
C262 O268 1.268 . S
C262 O277 1.268 . S
C263 O269 1.268 . S
C263 O273 1.268 . S
C264 O270 1.268 . S
C264 O272 1.268 . S
C265 O271 1.268 . S
C265 O274 1.268 . S
O266 Sc256 2.105 1_655 S
O266 C260 1.268 . S
O267 Sc257 2.105 1_655 S
O267 C261 1.268 . S
O268 Sc258 2.105 1_655 S
O268 C262 1.268 . S
O269 Sc256 2.105 . S
O269 C263 1.268 . S
O270 Sc258 2.105 . S
O270 C264 1.268 . S
O271 Sc257 2.105 . S
O271 C265 1.268 . S
O272 Sc256 2.105 . S
O272 C264 1.268 . S
O273 Sc257 2.105 . S
O273 C263 1.268 . S
O274 Sc258 2.105 . S
O274 C265 1.268 . S
O275 Sc256 2.105 1_655 S
O275 C261 1.268 . S
O276 Sc258 2.105 1_655 S
O276 C260 1.268 . S
O277 Sc257 2.105 1_655 S
O277 C262 1.268 . S
Sc278 O281 2.025 . S
Sc278 O288 2.105 . S
Sc278 O291 2.105 1_455 S
Sc278 O294 2.105 1_455 S
Sc278 O297 2.105 . S
Sc279 O281 2.025 . S
Sc279 O289 2.105 . S
Sc279 O293 2.105 1_455 S
Sc279 O295 2.105 1_455 S
Sc279 O299 2.105 . S
Sc280 O281 2.025 . S
Sc280 O290 2.105 . S
Sc280 O292 2.105 1_455 S
Sc280 O296 2.105 1_455 S
Sc280 O298 2.105 . S
O281 Sc278 2.025 . S
O281 Sc279 2.025 . S
O281 Sc280 2.025 . S
C282 O288 1.268 . S
C282 O298 1.268 . S
C283 O289 1.268 . S
C283 O297 1.268 . S
C284 O290 1.268 . S
C284 O299 1.268 . S
C285 O291 1.268 . S
C285 O295 1.268 . S
C286 O292 1.268 . S
C286 O294 1.268 . S
C287 O293 1.268 . S
C287 O296 1.268 . S
O288 Sc278 2.105 . S
O288 C282 1.268 . S
O289 Sc279 2.105 . S
O289 C283 1.268 . S
O290 Sc280 2.105 . S
O290 C284 1.268 . S
O291 Sc278 2.105 1_655 S
O291 C285 1.268 . S
O292 Sc280 2.105 1_655 S
O292 C286 1.268 . S
O293 Sc279 2.105 1_655 S
O293 C287 1.268 . S
O294 Sc278 2.105 1_655 S
O294 C286 1.268 . S
O295 Sc279 2.105 1_655 S
O295 C285 1.268 . S
O296 Sc280 2.105 1_655 S
O296 C287 1.268 . S
O297 Sc278 2.105 . S
O297 C283 1.268 . S
O298 Sc280 2.105 . S
O298 C282 1.268 . S
O299 Sc279 2.105 . S
O299 C284 1.268 . S
Sc300 O303 2.025 . S
Sc300 O310 2.105 . S
Sc300 O313 2.105 . S
Sc300 O316 2.105 . S
Sc300 O319 2.105 . S
Sc301 O303 2.025 . S
Sc301 O311 2.105 . S
Sc301 O315 2.105 . S
Sc301 O317 2.105 . S
Sc301 O321 2.105 . S
Sc302 O303 2.025 . S
Sc302 O312 2.105 . S
Sc302 O314 2.105 . S
Sc302 O318 2.105 . S
Sc302 O320 2.105 . S
O303 Sc300 2.025 . S
O303 Sc301 2.025 . S
O303 Sc302 2.025 . S
C304 O310 1.268 . S
C304 O320 1.268 . S
C305 O311 1.268 . S
C305 O319 1.268 . S
C306 O312 1.268 . S
C306 O321 1.268 . S
C307 O313 1.268 . S
C307 O317 1.268 . S
C308 O314 1.268 . S
C308 O316 1.268 . S
C309 O315 1.268 . S
C309 O318 1.268 . S
O310 Sc300 2.105 . S
O310 C304 1.268 . S
O311 Sc301 2.105 . S
O311 C305 1.268 . S
O312 Sc302 2.105 . S
O312 C306 1.268 . S
O313 Sc300 2.105 . S
O313 C307 1.268 . S
O314 Sc302 2.105 . S
O314 C308 1.268 . S
O315 Sc301 2.105 . S
O315 C309 1.268 . S
O316 Sc300 2.105 . S
O316 C308 1.268 . S
O317 Sc301 2.105 . S
O317 C307 1.268 . S
O318 Sc302 2.105 . S
O318 C309 1.268 . S
O319 Sc300 2.105 . S
O319 C305 1.268 . S
O320 Sc302 2.105 . S
O320 C304 1.268 . S
O321 Sc301 2.105 . S
O321 C306 1.268 . S
Sc322 O325 2.025 . S
Sc322 O332 2.105 . S
Sc322 O335 2.105 . S
Sc322 O338 2.105 . S
Sc322 O341 2.105 . S
Sc323 O325 2.025 . S
Sc323 O333 2.105 . S
Sc323 O337 2.105 . S
Sc323 O339 2.105 . S
Sc323 O343 2.105 . S
Sc324 O325 2.025 . S
Sc324 O334 2.105 . S
Sc324 O336 2.105 . S
Sc324 O340 2.105 . S
Sc324 O342 2.105 . S
O325 Sc322 2.025 . S
O325 Sc323 2.025 . S
O325 Sc324 2.025 . S
C326 O332 1.268 . S
C326 O342 1.268 . S
C327 O333 1.268 . S
C327 O341 1.268 . S
C328 O334 1.268 . S
C328 O343 1.268 . S
C329 O335 1.268 . S
C329 O339 1.268 . S
C330 O336 1.268 . S
C330 O338 1.268 . S
C331 O337 1.268 . S
C331 O340 1.268 . S
O332 Sc322 2.105 . S
O332 C326 1.268 . S
O333 Sc323 2.105 . S
O333 C327 1.268 . S
O334 Sc324 2.105 . S
O334 C328 1.268 . S
O335 Sc322 2.105 . S
O335 C329 1.268 . S
O336 Sc324 2.105 . S
O336 C330 1.268 . S
O337 Sc323 2.105 . S
O337 C331 1.268 . S
O338 Sc322 2.105 . S
O338 C330 1.268 . S
O339 Sc323 2.105 . S
O339 C329 1.268 . S
O340 Sc324 2.105 . S
O340 C331 1.268 . S
O341 Sc322 2.105 . S
O341 C327 1.268 . S
O342 Sc324 2.105 . S
O342 C326 1.268 . S
O343 Sc323 2.105 . S
O343 C328 1.268 . S
H344 C350 0.930 . S
H345 C353 0.930 . S
H346 C354 0.930 . S
H347 C355 0.930 . S
H348 C358 0.930 . S
H349 C359 0.930 . S
C350 H344 0.930 . S
C350 C351 1.355 . S
C350 C352 1.415 . S
C351 C350 1.355 . S
C351 C353 1.419 . S
C352 C350 1.415 . S
C352 C357 1.425 . S
C352 C359 1.409 . S
C353 H345 0.930 . S
C353 C351 1.419 . S
C353 C354 1.362 . S
C354 H346 0.930 . S
C354 C353 1.362 . S
C354 C357 1.409 . S
C355 H347 0.930 . S
C355 C356 1.355 . S
C355 C357 1.415 . S
C356 C355 1.355 . S
C356 C358 1.419 . S
C357 C352 1.425 . S
C357 C354 1.409 . S
C357 C355 1.415 . S
C358 H348 0.930 . S
C358 C356 1.419 . S
C358 C359 1.362 . S
C359 H349 0.930 . S
C359 C352 1.409 . S
C359 C358 1.362 . S
H360 C366 0.930 . S
H361 C369 0.930 . S
H362 C370 0.930 . S
H363 C371 0.930 . S
H364 C374 0.930 . S
H365 C375 0.930 . S
C366 H360 0.930 . S
C366 C367 1.355 . S
C366 C368 1.415 . S
C367 C366 1.355 . S
C367 C369 1.419 . S
C368 C366 1.415 . S
C368 C373 1.425 . S
C368 C375 1.409 . S
C369 H361 0.930 . S
C369 C367 1.419 . S
C369 C370 1.362 . S
C370 H362 0.930 . S
C370 C369 1.362 . S
C370 C373 1.409 . S
C371 H363 0.930 . S
C371 C372 1.355 . S
C371 C373 1.415 . S
C372 C371 1.355 . S
C372 C374 1.419 . S
C373 C368 1.425 . S
C373 C370 1.409 . S
C373 C371 1.415 . S
C374 H364 0.930 . S
C374 C372 1.419 . S
C374 C375 1.362 . S
C375 H365 0.930 . S
C375 C368 1.409 . S
C375 C374 1.362 . S
H376 C382 0.930 . S
H377 C385 0.930 . S
H378 C386 0.930 . S
H379 C387 0.930 . S
H380 C390 0.930 . S
H381 C391 0.930 . S
C382 H376 0.930 . S
C382 C383 1.355 . S
C382 C384 1.415 . S
C383 C382 1.355 . S
C383 C385 1.419 . S
C384 C382 1.415 . S
C384 C389 1.425 . S
C384 C391 1.409 . S
C385 H377 0.930 . S
C385 C383 1.419 . S
C385 C386 1.362 . S
C386 H378 0.930 . S
C386 C385 1.362 . S
C386 C389 1.409 . S
C387 H379 0.930 . S
C387 C388 1.355 . S
C387 C389 1.415 . S
C388 C387 1.355 . S
C388 C390 1.419 . S
C389 C384 1.425 . S
C389 C386 1.409 . S
C389 C387 1.415 . S
C390 H380 0.930 . S
C390 C388 1.419 . S
C390 C391 1.362 . S
C391 H381 0.930 . S
C391 C384 1.409 . S
C391 C390 1.362 . S
H392 C398 0.930 . S
H393 C401 0.930 . S
H394 C402 0.930 . S
H395 C403 0.930 . S
H396 C406 0.930 . S
H397 C407 0.930 . S
C398 H392 0.930 . S
C398 C399 1.355 . S
C398 C400 1.415 . S
C399 C398 1.355 . S
C399 C401 1.419 . S
C400 C398 1.415 . S
C400 C405 1.425 . S
C400 C407 1.409 . S
C401 H393 0.930 . S
C401 C399 1.419 . S
C401 C402 1.362 . S
C402 H394 0.930 . S
C402 C401 1.362 . S
C402 C405 1.409 . S
C403 H395 0.930 . S
C403 C404 1.355 . S
C403 C405 1.415 . S
C404 C403 1.355 . S
C404 C406 1.419 . S
C405 C400 1.425 . S
C405 C402 1.409 . S
C405 C403 1.415 . S
C406 H396 0.930 . S
C406 C404 1.419 . S
C406 C407 1.362 . S
C407 H397 0.930 . S
C407 C400 1.409 . S
C407 C406 1.362 . S
H408 C414 0.930 . S
H409 C417 0.930 . S
H410 C418 0.930 . S
H411 C419 0.930 . S
H412 C422 0.930 . S
H413 C423 0.930 . S
C414 H408 0.930 . S
C414 C415 1.355 . S
C414 C416 1.415 . S
C415 C414 1.355 . S
C415 C417 1.419 . S
C416 C414 1.415 . S
C416 C421 1.425 . S
C416 C423 1.409 . S
C417 H409 0.930 . S
C417 C415 1.419 . S
C417 C418 1.362 . S
C418 H410 0.930 . S
C418 C417 1.362 . S
C418 C421 1.409 . S
C419 H411 0.930 . S
C419 C420 1.355 . S
C419 C421 1.415 . S
C420 C419 1.355 . S
C420 C422 1.419 . S
C421 C416 1.425 . S
C421 C418 1.409 . S
C421 C419 1.415 . S
C422 H412 0.930 . S
C422 C420 1.419 . S
C422 C423 1.362 . S
C423 H413 0.930 . S
C423 C416 1.409 . S
C423 C422 1.362 . S
H424 C430 0.930 . S
H425 C433 0.930 . S
H426 C434 0.930 . S
H427 C435 0.930 . S
H428 C438 0.930 . S
H429 C439 0.930 . S
C430 H424 0.930 . S
C430 C431 1.355 . S
C430 C432 1.415 . S
C431 C430 1.355 . S
C431 C433 1.419 . S
C432 C430 1.415 . S
C432 C437 1.425 . S
C432 C439 1.409 . S
C433 H425 0.930 . S
C433 C431 1.419 . S
C433 C434 1.362 . S
C434 H426 0.930 . S
C434 C433 1.362 . S
C434 C437 1.409 . S
C435 H427 0.930 . S
C435 C436 1.355 . S
C435 C437 1.415 . S
C436 C435 1.355 . S
C436 C438 1.419 . S
C437 C432 1.425 . S
C437 C434 1.409 . S
C437 C435 1.415 . S
C438 H428 0.930 . S
C438 C436 1.419 . S
C438 C439 1.362 . S
C439 H429 0.930 . S
C439 C432 1.409 . S
C439 C438 1.362 . S
H440 C446 0.930 . S
H441 C449 0.930 . S
H442 C450 0.930 . S
H443 C451 0.930 . S
H444 C454 0.930 . S
H445 C455 0.930 . S
C446 H440 0.930 . S
C446 C447 1.355 . S
C446 C448 1.415 . S
C447 C446 1.355 . S
C447 C449 1.419 . S
C448 C446 1.415 . S
C448 C453 1.425 . S
C448 C455 1.409 . S
C449 H441 0.930 . S
C449 C447 1.419 . S
C449 C450 1.362 . S
C450 H442 0.930 . S
C450 C449 1.362 . S
C450 C453 1.409 . S
C451 H443 0.930 . S
C451 C452 1.355 . S
C451 C453 1.415 . S
C452 C451 1.355 . S
C452 C454 1.419 . S
C453 C448 1.425 . S
C453 C450 1.409 . S
C453 C451 1.415 . S
C454 H444 0.930 . S
C454 C452 1.419 . S
C454 C455 1.362 . S
C455 H445 0.930 . S
C455 C448 1.409 . S
C455 C454 1.362 . S
H456 C462 0.930 . S
H457 C465 0.930 . S
H458 C466 0.930 . S
H459 C467 0.930 . S
H460 C470 0.930 . S
H461 C471 0.930 . S
C462 H456 0.930 . S
C462 C463 1.355 . S
C462 C464 1.415 . S
C463 C462 1.355 . S
C463 C465 1.419 . S
C464 C462 1.415 . S
C464 C469 1.425 . S
C464 C471 1.409 . S
C465 H457 0.930 . S
C465 C463 1.419 . S
C465 C466 1.362 . S
C466 H458 0.930 . S
C466 C465 1.362 . S
C466 C469 1.409 . S
C467 H459 0.930 . S
C467 C468 1.355 . S
C467 C469 1.415 . S
C468 C467 1.355 . S
C468 C470 1.419 . S
C469 C464 1.425 . S
C469 C466 1.409 . S
C469 C467 1.415 . S
C470 H460 0.930 . S
C470 C468 1.419 . S
C470 C471 1.362 . S
C471 H461 0.930 . S
C471 C464 1.409 . S
C471 C470 1.362 . S
H472 C478 0.930 . S
H473 C481 0.930 . S
H474 C482 0.930 . S
H475 C483 0.930 . S
H476 C486 0.930 . S
H477 C487 0.930 . S
C478 H472 0.930 . S
C478 C479 1.355 . S
C478 C480 1.415 . S
C479 C478 1.355 . S
C479 C481 1.419 . S
C480 C478 1.415 . S
C480 C485 1.425 . S
C480 C487 1.409 . S
C481 H473 0.930 . S
C481 C479 1.419 . S
C481 C482 1.362 . S
C482 H474 0.930 . S
C482 C481 1.362 . S
C482 C485 1.409 . S
C483 H475 0.930 . S
C483 C484 1.355 . S
C483 C485 1.415 . S
C484 C483 1.355 . S
C484 C486 1.419 . S
C485 C480 1.425 . S
C485 C482 1.409 . S
C485 C483 1.415 . S
C486 H476 0.930 . S
C486 C484 1.419 . S
C486 C487 1.362 . S
C487 H477 0.930 . S
C487 C480 1.409 . S
C487 C486 1.362 . S
H488 C494 0.930 . S
H489 C497 0.930 . S
H490 C498 0.930 . S
H491 C499 0.930 . S
H492 C502 0.930 . S
H493 C503 0.930 . S
C494 H488 0.930 . S
C494 C495 1.355 . S
C494 C496 1.415 . S
C495 C494 1.355 . S
C495 C497 1.419 . S
C496 C494 1.415 . S
C496 C501 1.425 . S
C496 C503 1.409 . S
C497 H489 0.930 . S
C497 C495 1.419 . S
C497 C498 1.362 . S
C498 H490 0.930 . S
C498 C497 1.362 . S
C498 C501 1.409 . S
C499 H491 0.930 . S
C499 C500 1.355 . S
C499 C501 1.415 . S
C500 C499 1.355 . S
C500 C502 1.419 . S
C501 C496 1.425 . S
C501 C498 1.409 . S
C501 C499 1.415 . S
C502 H492 0.930 . S
C502 C500 1.419 . S
C502 C503 1.362 . S
C503 H493 0.930 . S
C503 C496 1.409 . S
C503 C502 1.362 . S
H504 C510 0.930 . S
H505 C513 0.930 . S
H506 C514 0.930 . S
H507 C515 0.930 . S
H508 C518 0.930 . S
H509 C519 0.930 . S
C510 H504 0.930 . S
C510 C511 1.355 . S
C510 C512 1.415 . S
C511 C510 1.355 . S
C511 C513 1.419 . S
C512 C510 1.415 . S
C512 C517 1.425 . S
C512 C519 1.409 . S
C513 H505 0.930 . S
C513 C511 1.419 . S
C513 C514 1.362 . S
C514 H506 0.930 . S
C514 C513 1.362 . S
C514 C517 1.409 . S
C515 H507 0.930 . S
C515 C516 1.355 . S
C515 C517 1.415 . S
C516 C515 1.355 . S
C516 C518 1.419 . S
C517 C512 1.425 . S
C517 C514 1.409 . S
C517 C515 1.415 . S
C518 H508 0.930 . S
C518 C516 1.419 . S
C518 C519 1.362 . S
C519 H509 0.930 . S
C519 C512 1.409 . S
C519 C518 1.362 . S
H520 C526 0.930 . S
H521 C529 0.930 . S
H522 C530 0.930 . S
H523 C531 0.930 . S
H524 C534 0.930 . S
H525 C535 0.930 . S
C526 H520 0.930 . S
C526 C527 1.355 . S
C526 C528 1.415 . S
C527 C526 1.355 . S
C527 C529 1.419 . S
C528 C526 1.415 . S
C528 C533 1.425 . S
C528 C535 1.409 . S
C529 H521 0.930 . S
C529 C527 1.419 . S
C529 C530 1.362 . S
C530 H522 0.930 . S
C530 C529 1.362 . S
C530 C533 1.409 . S
C531 H523 0.930 . S
C531 C532 1.355 . S
C531 C533 1.415 . S
C532 C531 1.355 . S
C532 C534 1.419 . S
C533 C528 1.425 . S
C533 C530 1.409 . S
C533 C531 1.415 . S
C534 H524 0.930 . S
C534 C532 1.419 . S
C534 C535 1.362 . S
C535 H525 0.930 . S
C535 C528 1.409 . S
C535 C534 1.362 . S
H536 C542 0.930 1_565 S
H537 C545 0.930 . S
H538 C546 0.930 . S
H539 C547 0.930 . S
H540 C550 0.930 . S
H541 C551 0.930 . S
C542 H536 0.930 1_545 S
C542 C543 1.355 . S
C542 C544 1.415 . S
C543 C542 1.355 . S
C543 C545 1.419 . S
C544 C542 1.415 . S
C544 C549 1.425 . S
C544 C551 1.409 . S
C545 H537 0.930 . S
C545 C543 1.419 . S
C545 C546 1.362 . S
C546 H538 0.930 . S
C546 C545 1.362 . S
C546 C549 1.409 . S
C547 H539 0.930 . S
C547 C548 1.355 . S
C547 C549 1.415 . S
C548 C547 1.355 . S
C548 C550 1.419 . S
C549 C544 1.425 . S
C549 C546 1.409 . S
C549 C547 1.415 . S
C550 H540 0.930 . S
C550 C548 1.419 . S
C550 C551 1.362 . S
C551 H541 0.930 . S
C551 C544 1.409 . S
C551 C550 1.362 . S
H552 C558 0.930 . S
H553 C561 0.930 . S
H554 C562 0.930 1_545 S
H555 C563 0.930 . S
H556 C566 0.930 . S
H557 C567 0.930 . S
C558 H552 0.930 . S
C558 C559 1.355 . S
C558 C560 1.415 . S
C559 C558 1.355 . S
C559 C561 1.419 1_565 S
C560 C558 1.415 . S
C560 C565 1.425 . S
C560 C567 1.409 . S
C561 H553 0.930 . S
C561 C559 1.419 1_545 S
C561 C562 1.362 1_545 S
C562 H554 0.930 1_565 S
C562 C561 1.362 1_565 S
C562 C565 1.409 . S
C563 H555 0.930 . S
C563 C564 1.355 . S
C563 C565 1.415 . S
C564 C563 1.355 . S
C564 C566 1.419 . S
C565 C560 1.425 . S
C565 C562 1.409 . S
C565 C563 1.415 . S
C566 H556 0.930 . S
C566 C564 1.419 . S
C566 C567 1.362 . S
C567 H557 0.930 . S
C567 C560 1.409 . S
C567 C566 1.362 . S
H568 C574 0.930 . S
H569 C577 0.930 1_565 S
H570 C578 0.930 . S
H571 C579 0.930 . S
H572 C582 0.930 . S
H573 C583 0.930 . S
C574 H568 0.930 . S
C574 C575 1.355 . S
C574 C576 1.415 . S
C575 C574 1.355 . S
C575 C577 1.419 . S
C576 C574 1.415 . S
C576 C581 1.425 . S
C576 C583 1.409 . S
C577 H569 0.930 1_545 S
C577 C575 1.419 . S
C577 C578 1.362 . S
C578 H570 0.930 . S
C578 C577 1.362 . S
C578 C581 1.409 . S
C579 H571 0.930 . S
C579 C580 1.355 . S
C579 C581 1.415 . S
C580 C579 1.355 . S
C580 C582 1.419 . S
C581 C576 1.425 . S
C581 C578 1.409 . S
C581 C579 1.415 . S
C582 H572 0.930 . S
C582 C580 1.419 . S
C582 C583 1.362 . S
C583 H573 0.930 . S
C583 C576 1.409 . S
C583 C582 1.362 . S
H584 C590 0.930 . S
H585 C593 0.930 . S
H586 C594 0.930 . S
H587 C595 0.930 . S
H588 C598 0.930 . S
H589 C599 0.930 . S
C590 H584 0.930 . S
C590 C591 1.355 . S
C590 C592 1.415 . S
C591 C590 1.355 . S
C591 C593 1.419 . S
C592 C590 1.415 . S
C592 C597 1.425 . S
C592 C599 1.409 . S
C593 H585 0.930 . S
C593 C591 1.419 . S
C593 C594 1.362 . S
C594 H586 0.930 . S
C594 C593 1.362 . S
C594 C597 1.409 . S
C595 H587 0.930 . S
C595 C596 1.355 . S
C595 C597 1.415 . S
C596 C595 1.355 . S
C596 C598 1.419 . S
C597 C592 1.425 . S
C597 C594 1.409 . S
C597 C595 1.415 . S
C598 H588 0.930 . S
C598 C596 1.419 . S
C598 C599 1.362 . S
C599 H589 0.930 . S
C599 C592 1.409 . S
C599 C598 1.362 . S
H600 C606 0.930 . S
H601 C609 0.930 . S
H602 C610 0.930 . S
H603 C611 0.930 . S
H604 C614 0.930 . S
H605 C615 0.930 . S
C606 H600 0.930 . S
C606 C607 1.355 . S
C606 C608 1.415 . S
C607 C606 1.355 . S
C607 C609 1.419 . S
C608 C606 1.415 . S
C608 C613 1.425 . S
C608 C615 1.409 . S
C609 H601 0.930 . S
C609 C607 1.419 . S
C609 C610 1.362 . S
C610 H602 0.930 . S
C610 C609 1.362 . S
C610 C613 1.409 . S
C611 H603 0.930 . S
C611 C612 1.355 . S
C611 C613 1.415 . S
C612 C611 1.355 . S
C612 C614 1.419 . S
C613 C608 1.425 . S
C613 C610 1.409 . S
C613 C611 1.415 . S
C614 H604 0.930 . S
C614 C612 1.419 . S
C614 C615 1.362 . S
C615 H605 0.930 . S
C615 C608 1.409 . S
C615 C614 1.362 . S
H616 C622 0.930 . S
H617 C625 0.930 . S
H618 C626 0.930 . S
H619 C627 0.930 . S
H620 C630 0.930 . S
H621 C631 0.930 . S
C622 H616 0.930 . S
C622 C623 1.355 . S
C622 C624 1.415 . S
C623 C622 1.355 . S
C623 C625 1.419 . S
C624 C622 1.415 . S
C624 C629 1.425 . S
C624 C631 1.409 . S
C625 H617 0.930 . S
C625 C623 1.419 . S
C625 C626 1.362 . S
C626 H618 0.930 . S
C626 C625 1.362 . S
C626 C629 1.409 . S
C627 H619 0.930 . S
C627 C628 1.355 . S
C627 C629 1.415 . S
C628 C627 1.355 . S
C628 C630 1.419 . S
C629 C624 1.425 . S
C629 C626 1.409 . S
C629 C627 1.415 . S
C630 H620 0.930 . S
C630 C628 1.419 . S
C630 C631 1.362 . S
C631 H621 0.930 . S
C631 C624 1.409 . S
C631 C630 1.362 . S
H632 C638 0.930 . S
H633 C641 0.930 . S
H634 C642 0.930 . S
H635 C643 0.930 . S
H636 C646 0.930 . S
H637 C647 0.930 . S
C638 H632 0.930 . S
C638 C639 1.355 . S
C638 C640 1.415 . S
C639 C638 1.355 . S
C639 C641 1.419 . S
C640 C638 1.415 . S
C640 C645 1.425 . S
C640 C647 1.409 . S
C641 H633 0.930 . S
C641 C639 1.419 . S
C641 C642 1.362 . S
C642 H634 0.930 . S
C642 C641 1.362 . S
C642 C645 1.409 . S
C643 H635 0.930 . S
C643 C644 1.355 . S
C643 C645 1.415 . S
C644 C643 1.355 . S
C644 C646 1.419 . S
C645 C640 1.425 . S
C645 C642 1.409 . S
C645 C643 1.415 . S
C646 H636 0.930 . S
C646 C644 1.419 . S
C646 C647 1.362 . S
C647 H637 0.930 . S
C647 C640 1.409 . S
C647 C646 1.362 . S
H648 C654 0.930 . S
H649 C657 0.930 . S
H650 C658 0.930 . S
H651 C659 0.930 . S
H652 C662 0.930 . S
H653 C663 0.930 . S
C654 H648 0.930 . S
C654 C655 1.355 . S
C654 C656 1.415 . S
C655 C654 1.355 . S
C655 C657 1.419 . S
C656 C654 1.415 . S
C656 C661 1.425 . S
C656 C663 1.409 . S
C657 H649 0.930 . S
C657 C655 1.419 . S
C657 C658 1.362 . S
C658 H650 0.930 . S
C658 C657 1.362 . S
C658 C661 1.409 . S
C659 H651 0.930 . S
C659 C660 1.355 . S
C659 C661 1.415 . S
C660 C659 1.355 . S
C660 C662 1.419 . S
C661 C656 1.425 . S
C661 C658 1.409 . S
C661 C659 1.415 . S
C662 H652 0.930 . S
C662 C660 1.419 . S
C662 C663 1.362 . S
C663 H653 0.930 . S
C663 C656 1.409 . S
C663 C662 1.362 . S
H664 C670 0.930 . S
H665 C673 0.930 . S
H666 C674 0.930 . S
H667 C675 0.930 . S
H668 C678 0.930 . S
H669 C679 0.930 . S
C670 H664 0.930 . S
C670 C671 1.355 . S
C670 C672 1.415 . S
C671 C670 1.355 . S
C671 C673 1.419 . S
C672 C670 1.415 . S
C672 C677 1.425 . S
C672 C679 1.409 . S
C673 H665 0.930 . S
C673 C671 1.419 . S
C673 C674 1.362 . S
C674 H666 0.930 . S
C674 C673 1.362 . S
C674 C677 1.409 . S
C675 H667 0.930 . S
C675 C676 1.355 . S
C675 C677 1.415 . S
C676 C675 1.355 . S
C676 C678 1.419 . S
C677 C672 1.425 . S
C677 C674 1.409 . S
C677 C675 1.415 . S
C678 H668 0.930 . S
C678 C676 1.419 . S
C678 C679 1.362 . S
C679 H669 0.930 . S
C679 C672 1.409 . S
C679 C678 1.362 . S
H680 C686 0.930 . S
H681 C689 0.930 . S
H682 C690 0.930 . S
H683 C691 0.930 . S
H684 C694 0.930 . S
H685 C695 0.930 . S
C686 H680 0.930 . S
C686 C687 1.355 . S
C686 C688 1.415 . S
C687 C686 1.355 . S
C687 C689 1.419 . S
C688 C686 1.415 . S
C688 C693 1.425 . S
C688 C695 1.409 . S
C689 H681 0.930 . S
C689 C687 1.419 . S
C689 C690 1.362 . S
C690 H682 0.930 . S
C690 C689 1.362 . S
C690 C693 1.409 . S
C691 H683 0.930 . S
C691 C692 1.355 . S
C691 C693 1.415 . S
C692 C691 1.355 . S
C692 C694 1.419 . S
C693 C688 1.425 . S
C693 C690 1.409 . S
C693 C691 1.415 . S
C694 H684 0.930 . S
C694 C692 1.419 . S
C694 C695 1.362 . S
C695 H685 0.930 . S
C695 C688 1.409 . S
C695 C694 1.362 . S
H696 C702 0.930 . S
H697 C705 0.930 . S
H698 C706 0.930 . S
H699 C707 0.930 . S
H700 C710 0.930 . S
H701 C711 0.930 . S
C702 H696 0.930 . S
C702 C703 1.355 . S
C702 C704 1.415 . S
C703 C702 1.355 . S
C703 C705 1.419 . S
C704 C702 1.415 . S
C704 C709 1.425 . S
C704 C711 1.409 . S
C705 H697 0.930 . S
C705 C703 1.419 . S
C705 C706 1.362 . S
C706 H698 0.930 . S
C706 C705 1.362 . S
C706 C709 1.409 . S
C707 H699 0.930 . S
C707 C708 1.355 . S
C707 C709 1.415 . S
C708 C707 1.355 . S
C708 C710 1.419 . S
C709 C704 1.425 . S
C709 C706 1.409 . S
C709 C707 1.415 . S
C710 H700 0.930 . S
C710 C708 1.419 . S
C710 C711 1.362 . S
C711 H701 0.930 . S
C711 C704 1.409 . S
C711 C710 1.362 . S
H712 C718 0.930 . S
H713 C721 0.930 . S
H714 C722 0.930 . S
H715 C723 0.930 . S
H716 C726 0.930 . S
H717 C727 0.930 . S
C718 H712 0.930 . S
C718 C719 1.355 . S
C718 C720 1.415 . S
C719 C718 1.355 . S
C719 C721 1.419 . S
C720 C718 1.415 . S
C720 C725 1.425 . S
C720 C727 1.409 . S
C721 H713 0.930 . S
C721 C719 1.419 . S
C721 C722 1.362 . S
C722 H714 0.930 . S
C722 C721 1.362 . S
C722 C725 1.409 . S
C723 H715 0.930 . S
C723 C724 1.355 . S
C723 C725 1.415 . S
C724 C723 1.355 . S
C724 C726 1.419 . S
C725 C720 1.425 . S
C725 C722 1.409 . S
C725 C723 1.415 . S
C726 H716 0.930 . S
C726 C724 1.419 . S
C726 C727 1.362 . S
C727 H717 0.930 . S
C727 C720 1.409 . S
C727 C726 1.362 . S
C351 C23 1.456 . S
C356 C282 1.506 . S
C372 C260 1.456 . S
C367 C55 1.528 . S
C388 C286 1.546 . S
C383 C87 1.569 . S
C404 C264 1.508 . S
C399 C119 1.475 . S
C420 C326 1.559 . S
C415 C151 1.528 . S
C436 C304 1.469 . S
C431 C183 1.517 . S
C447 C215 1.567 . S
C452 C330 1.552 . S
C468 C308 1.459 . S
C463 C247 1.405 . S
C479 C29 1.534 . S
C484 C331 1.549 . S
C500 C309 1.478 . S
C495 C49 1.499 . S
C511 C93 1.570 . S
C516 C328 1.581 . S
C527 C113 1.402 . S
C532 C306 1.514 . S
C548 C287 1.547 . S
C543 C157 1.535 1_545 S
C559 C177 1.515 1_565 S
C564 C265 1.495 . S
C580 C284 1.568 . S
C575 C221 1.580 1_545 S
C596 C262 1.506 . S
C591 C241 1.436 1_565 S
C612 C305 1.489 . S
C607 C17 1.480 . S
C628 C327 1.511 . S
C623 C61 1.536 . S
C639 C81 1.526 . S
C644 C307 1.522 . S
C660 C329 1.522 . S
C655 C125 1.464 . S
C676 C261 1.502 . S
C671 C145 1.420 . S
C687 C189 1.517 . S
C692 C283 1.531 . S
C703 C209 1.528 . S
C708 C263 1.488 . S
C719 C253 1.480 . S
C724 C285 1.505 . S
