# Generated by pormake.
# Topology rtl, (3,6)-cn, num edge types: 1
# Building blocks:
#     Node 0, Type 0, BuildingBlock: MIDCAF_clean_linker_0, # of connection points: 3
#     Node 1, Type 0, BuildingBlock: MIDCAF_clean_linker_0, # of connection points: 3
#     Node 2, Type 0, BuildingBlock: MIDCAF_clean_linker_0, # of connection points: 3
#     Node 3, Type 0, BuildingBlock: MIDCAF_clean_linker_0, # of connection points: 3
#     Node 4, Type 1, BuildingBlock: KUMBOL_clean_sbu_1, # of connection points: 6
#     Node 5, Type 1, BuildingBlock: KUMBOL_clean_sbu_1, # of connection points: 6
#     Edge 6, Type (0, 1), BuildingBlock: CIFDUS_clean_linker_0, # of connection points: 2
#     Edge 7, Type (0, 1), BuildingBlock: CIFDUS_clean_linker_0, # of connection points: 2
#     Edge 8, Type (0, 1), BuildingBlock: CIFDUS_clean_linker_0, # of connection points: 2
#     Edge 9, Type (0, 1), BuildingBlock: CIFDUS_clean_linker_0, # of connection points: 2
#     Edge 10, Type (0, 1), BuildingBlock: CIFDUS_clean_linker_0, # of connection points: 2
#     Edge 11, Type (0, 1), BuildingBlock: CIFDUS_clean_linker_0, # of connection points: 2
#     Edge 12, Type (0, 1), BuildingBlock: CIFDUS_clean_linker_0, # of connection points: 2
#     Edge 13, Type (0, 1), BuildingBlock: CIFDUS_clean_linker_0, # of connection points: 2
#     Edge 14, Type (0, 1), BuildingBlock: CIFDUS_clean_linker_0, # of connection points: 2
#     Edge 15, Type (0, 1), BuildingBlock: CIFDUS_clean_linker_0, # of connection points: 2
#     Edge 16, Type (0, 1), BuildingBlock: CIFDUS_clean_linker_0, # of connection points: 2
#     Edge 17, Type (0, 1), BuildingBlock: CIFDUS_clean_linker_0, # of connection points: 2
# Relax obj value: 0.018
# Max RMSD: 0.103
# Mean RMSD: 0.061
data_MOF--net-rtl--node1-KUMBOL_clean_sbu_1--node2-MIDCAF_clean_linker_0--edge1-CIFDUS_clean_linker_0
_symmetry_space_group_name_H-M    P1
_symmetry_Int_Tables_number       1
_symmetry_cell_setting            triclinic
loop_
_symmetry_equiv_pos_as_xyz
'x, y, z'
_cell_length_a     35.653776
_cell_length_b     36.318857
_cell_length_c     31.939502
_cell_angle_alpha  78.698743
_cell_angle_beta   99.609365
_cell_angle_gamma 91.041874
loop_
_atom_site_label
_atom_site_type_symbol
_atom_site_fract_x
_atom_site_fract_y
_atom_site_fract_z
_atom_type_partial_charge
C0 C 0.16234 0.88679 0.13375 0.0
C1 C 0.18776 0.87237 0.17191 0.0
C2 C 0.21915 0.8507 0.16922 0.0
C3 C 0.2253 0.84385 0.12942 0.0
H4 H 0.27812 0.76682 0.07829 0.0
H5 H 0.32341 0.71806 0.07668 0.0
H6 H 0.32667 0.76468 0.94201 0.0
H7 H 0.28029 0.81261 0.94318 0.0
H8 H 0.22263 0.88581 0.8966 0.0
H9 H 0.18591 0.90958 0.82497 0.0
H10 H 0.08307 0.90451 0.88034 0.0
H11 H 0.12007 0.88138 0.95265 0.0
H12 H 0.14878 0.89192 0.06477 0.0
H13 H 0.13796 0.90372 0.13482 0.0
H14 H 0.23894 0.8387 0.19808 0.0
H15 H 0.24999 0.82709 0.12896 0.0
N16 N 0.23662 0.82743 0.04851 0.0
N17 N 0.22517 0.83953 0.97284 0.0
N18 N 0.18746 0.8693 0.0105 0.0
C19 C 0.24532 0.82119 0.01074 0.0
C20 C 0.19621 0.86345 0.97234 0.0
C21 C 0.20803 0.85159 0.04886 0.0
C22 C 0.2753 0.79347 0.01077 0.0
C23 C 0.2887 0.76687 0.0484 0.0
C24 C 0.31489 0.73897 0.04754 0.0
C25 C 0.3286 0.73723 0.00914 0.0
C26 C 0.31614 0.76465 0.97191 0.0
C27 C 0.28966 0.7923 0.97265 0.0
C28 C 0.17417 0.88172 0.93017 0.0
C29 C 0.19225 0.89025 0.89362 0.0
C30 C 0.17132 0.90396 0.85267 0.0
C31 C 0.13172 0.9087 0.84722 0.0
C32 C 0.1136 0.90092 0.88379 0.0
C33 C 0.13475 0.88797 0.92508 0.0
C34 C 0.20031 0.85861 0.091 0.0
C35 C 0.16866 0.88015 0.09363 0.0
C36 C 0.61198 0.62073 0.51677 0.0
C37 C 0.62106 0.63487 0.47553 0.0
C38 C 0.64349 0.66716 0.46986 0.0
C39 C 0.65636 0.68495 0.50461 0.0
H40 H 0.71888 0.77341 0.53823 0.0
H41 H 0.76673 0.82143 0.52998 0.0
H42 H 0.78602 0.81739 0.66796 0.0
H43 H 0.73723 0.76962 0.6763 0.0
H44 H 0.64876 0.73271 0.71859 0.0
H45 H 0.62145 0.70827 0.78423 0.0
H46 H 0.61384 0.59841 0.75121 0.0
H47 H 0.64026 0.62261 0.68583 0.0
H48 H 0.61713 0.62662 0.58266 0.0
H49 H 0.59535 0.59553 0.52252 0.0
H50 H 0.6507 0.67901 0.43841 0.0
H51 H 0.6734 0.70987 0.49901 0.0
N52 N 0.6843 0.7191 0.57889 0.0
N53 N 0.68421 0.72372 0.65129 0.0
N54 N 0.64859 0.67733 0.62138 0.0
C55 C 0.69655 0.73625 0.61287 0.0
C56 C 0.66018 0.69414 0.65563 0.0
C57 C 0.66028 0.68966 0.58285 0.0
C58 C 0.72426 0.7673 0.60803 0.0
C59 C 0.73312 0.78273 0.56694 0.0
C60 C 0.76082 0.81021 0.56218 0.0
C61 C 0.78065 0.82298 0.59835 0.0
C62 C 0.77115 0.80836 0.63936 0.0
C63 C 0.74324 0.78085 0.64415 0.0
C64 C 0.64654 0.67961 0.69702 0.0
C65 C 0.64153 0.7033 0.72565 0.0
C66 C 0.62573 0.68942 0.76297 0.0
C67 C 0.61561 0.65147 0.7727 0.0
C68 C 0.62162 0.6277 0.74464 0.0
C69 C 0.63659 0.64165 0.7071 0.0
C70 C 0.64704 0.67088 0.54582 0.0
C71 C 0.62472 0.6385 0.55141 0.0
C72 C 0.83667 0.08281 0.94998 0.0
C73 C 0.843 0.10758 0.91213 0.0
C74 C 0.82948 0.1449 0.9047 0.0
C75 C 0.81158 0.15745 0.93522 0.0
H76 H 0.70682 0.21851 0.96149 0.0
H77 H 0.66091 0.27012 0.95216 0.0
H78 H 0.71133 0.29268 0.07716 0.0
H79 H 0.75586 0.24095 0.08699 0.0
H80 H 0.7861 0.16924 0.15725 0.0
H81 H 0.81847 0.14791 0.23109 0.0
H82 H 0.88344 0.06732 0.18846 0.0
H83 H 0.85072 0.08821 0.11435 0.0
H84 H 0.81622 0.07605 0.01027 0.0
H85 H 0.84565 0.05365 0.95633 0.0
H86 H 0.83417 0.16498 0.87625 0.0
H87 H 0.80282 0.18667 0.92935 0.0
N88 N 0.77017 0.17788 1.00055 0.0
N89 N 0.77478 0.17624 0.07503 0.0
N90 N 0.80817 0.13184 0.05111 0.0
C91 C 0.76027 0.1922 0.03354 0.0
C92 C 0.79864 0.14607 0.08419 0.0
C93 C 0.7941 0.14752 0.00931 0.0
C94 C 0.73455 0.22528 0.02525 0.0
C95 C 0.70811 0.23472 0.98677 0.0
C96 C 0.68191 0.2643 0.9814 0.0
C97 C 0.68197 0.28506 0.01429 0.0
C98 C 0.70966 0.27657 0.05176 0.0
C99 C 0.73538 0.24696 0.05729 0.0
C100 C 0.81602 0.13071 0.12963 0.0
C101 C 0.80704 0.14675 0.16347 0.0
C102 C 0.82571 0.13467 0.20585 0.0
C103 C 0.85375 0.10623 0.21547 0.0
C104 C 0.86178 0.08916 0.18204 0.0
C105 C 0.84313 0.10129 0.13953 0.0
C106 C 0.80746 0.13315 0.97411 0.0
C107 C 0.81949 0.09555 0.98079 0.0
C108 C 0.40172 0.38913 0.58427 0.0
C109 C 0.39275 0.37012 0.62414 0.0
C110 C 0.37256 0.33645 0.62519 0.0
C111 C 0.36028 0.32295 0.58726 0.0
H112 H 0.29965 0.23896 0.54234 0.0
H113 H 0.24944 0.19396 0.55235 0.0
H114 H 0.19504 0.23377 0.4201 0.0
H115 H 0.24656 0.27862 0.40958 0.0
H116 H 0.30143 0.34133 0.34868 0.0
H117 H 0.32074 0.37046 0.27964 0.0
H118 H 0.42918 0.39782 0.34812 0.0
H119 H 0.40992 0.3695 0.41692 0.0
H120 H 0.39595 0.39138 0.51587 0.0
H121 H 0.41761 0.41493 0.58238 0.0
H122 H 0.36465 0.32127 0.65508 0.0
H123 H 0.3439 0.29743 0.58947 0.0
N124 N 0.32406 0.3031 0.50799 0.0
N125 N 0.31548 0.30889 0.43258 0.0
N126 N 0.36018 0.34624 0.46761 0.0
C127 C 0.30628 0.29223 0.47152 0.0
C128 C 0.3428 0.33571 0.43049 0.0
C129 C 0.3508 0.3301 0.50654 0.0
C130 C 0.27692 0.26279 0.47528 0.0
C131 C 0.27713 0.23817 0.5152 0.0
C132 C 0.24811 0.21241 0.52106 0.0
C133 C 0.21765 0.21071 0.48737 0.0
C134 C 0.21808 0.23429 0.44676 0.0
C135 C 0.24754 0.26003 0.44073 0.0
C136 C 0.3541 0.3531 0.38838 0.0
C137 C 0.32938 0.35356 0.34899 0.0
C138 C 0.34032 0.37036 0.3095 0.0
C139 C 0.37649 0.38625 0.30858 0.0
C140 C 0.40124 0.38553 0.34787 0.0
C141 C 0.39008 0.36947 0.38728 0.0
C142 C 0.36777 0.3427 0.54707 0.0
C143 C 0.38946 0.37552 0.54616 0.0
C144 C 0.94232 0.12024 0.48023 0.0
C145 C 0.88074 0.10531 0.44247 0.0
C146 C 0.91385 0.09439 0.47317 0.0
C147 C 0.87673 0.14239 0.41898 0.0
C148 C 0.93827 0.15755 0.45684 0.0
C149 C 0.9054 0.16842 0.42613 0.0
N150 N 0.97406 0.10887 0.50974 0.0
C151 C 1.00219 0.13356 0.51853 0.0
C152 C 0.96745 0.18283 0.46497 0.0
C153 C 0.99945 0.17081 0.49613 0.0
Gd154 Gd 0.03746 0.96698 0.51012 0.0
Gd155 Gd 0.97673 0.04552 0.54397 0.0
N156 N 0.91912 0.05829 0.49529 0.0
C157 C 0.85278 0.07853 0.43599 0.0
C158 C 0.89129 0.03246 0.49023 0.0
C159 C 0.85797 0.04205 0.46024 0.0
H160 H 0.89443 0.00444 0.5091 0.0
H161 H 0.83624 0.02129 0.45592 0.0
H162 H 0.11728 0.01761 0.49746 0.0
H163 H 0.02637 0.1247 0.54352 0.0
H164 H 0.18028 0.02454 0.53989 0.0
H165 H 0.82701 0.08578 0.41262 0.0
H166 H 0.85159 0.1512 0.39509 0.0
H167 H 0.00376 0.88531 0.55555 0.0
H168 H 0.9654 0.21172 0.44766 0.0
H169 H 0.0219 0.19028 0.50309 0.0
H170 H 0.18863 0.92254 0.66193 0.0
H171 H 0.90188 0.19692 0.40773 0.0
H172 H 0.08531 0.83624 0.66597 0.0
H173 H 0.02302 0.83407 0.61886 0.0
N174 N 0.05468 0.91566 0.56695 0.0
C175 C 0.08949 0.91688 0.5916 0.0
C176 C 0.0311 0.88617 0.57582 0.0
C177 C 0.07715 0.85854 0.63807 0.0
C178 C 0.04193 0.85723 0.61158 0.0
C179 C 0.1015 0.88852 0.62817 0.0
H180 H 0.14671 0.86983 0.68228 0.0
N181 N 0.10008 0.97417 0.54519 0.0
C182 C 0.11264 0.94724 0.5807 0.0
C183 C 0.17305 0.97818 0.59129 0.0
C184 C 0.14911 0.94906 0.60531 0.0
C185 C 0.12485 1.00004 0.52898 0.0
C186 C 0.16119 0.00322 0.55235 0.0
O187 O 0.97367 0.04703 0.47242 0.0
O188 O 0.98305 0.98621 0.46466 0.0
O189 O 0.06488 0.96785 0.45419 0.0
O190 O 0.04135 0.91622 0.4844 0.0
O191 O 0.95508 0.98551 0.55702 0.0
O192 O 0.97631 0.95113 0.51087 0.0
O193 O 0.02902 0.96451 0.57964 0.0
O194 O 0.0331 0.02596 0.58436 0.0
O195 O 0.94814 0.02899 0.59963 0.0
O196 O 0.96446 0.08672 0.58076 0.0
O197 O 0.04911 0.02878 0.48602 0.0
O198 O 0.03879 0.05695 0.54169 0.0
C199 C 0.96998 0.02058 0.44934 0.0
C200 C 0.95339 0.95629 0.53773 0.0
C201 C 0.0935 0.91172 0.44843 0.0
C202 C 0.12939 0.89002 0.39883 0.0
C203 C 0.15332 0.87808 0.47638 0.0
C204 C 0.1216 0.89651 0.48346 0.0
C205 C 0.15729 0.87483 0.43442 0.0
C206 C 0.09748 0.90844 0.40632 0.0
C207 C 0.06037 0.9322 0.45457 0.0
C208 C 0.1609 0.92129 0.64234 0.0
C209 C 0.13712 0.89115 0.65379 0.0
H210 H 0.20131 0.98056 0.60923 0.0
C211 C 0.0398 0.99061 0.60189 0.0
C212 C 0.05478 0.05642 0.50754 0.0
C213 C 0.96596 0.06354 0.65485 0.0
C214 C 0.95501 0.07272 0.72555 0.0
C215 C 0.01928 0.06254 0.71312 0.0
C216 C 0.00516 0.06015 0.67033 0.0
C217 C 0.99449 0.069 0.74055 0.0
C218 C 0.94101 0.0695 0.68251 0.0
C219 C 0.95083 0.0622 0.60956 0.0
H220 H 0.17493 0.86627 0.50351 0.0
H221 H 0.11906 0.89897 0.5161 0.0
H222 H 0.18198 0.86009 0.42988 0.0
H223 H 0.07597 0.92088 0.3793 0.0
H224 H 0.04959 0.06 0.72486 0.0
H225 H 0.02484 0.05623 0.64921 0.0
H226 H 0.00642 0.07194 0.77318 0.0
H227 H 0.91072 0.07175 0.67032 0.0
C228 C 0.63123 0.53604 0.04664 0.0
C229 C 0.62818 0.60154 0.01044 0.0
C230 C 0.61177 0.57037 0.03426 0.0
C231 C 0.66409 0.59768 0.99905 0.0
C232 C 0.66722 0.53206 0.03514 0.0
C233 C 0.68355 0.56307 0.01137 0.0
N234 N 0.61421 0.50616 0.06838 0.0
C235 C 0.63196 0.47188 0.08073 0.0
C236 C 0.68547 0.49684 0.0473 0.0
C237 C 0.66779 0.46665 0.0703 0.0
Gd238 Gd 0.46145 0.48841 1.00288 0.0
Gd239 Gd 0.55349 0.51708 0.08247 0.0
N240 N 0.5763 0.57287 0.04426 0.0
C241 C 0.60792 0.63564 0.99858 0.0
C242 C 0.55741 0.60658 0.03474 0.0
C243 C 0.57261 0.63826 0.01125 0.0
H244 H 0.53101 0.60964 0.04573 0.0
H245 H 0.5572 0.66479 1.00324 0.0
H246 H 0.48931 0.39983 0.99844 0.0
H247 H 0.61861 0.44865 0.09906 0.0
H248 H 0.47608 0.33503 0.03097 0.0
H249 H 0.61952 0.66022 0.98022 0.0
H250 H 0.67702 0.6213 0.9806 0.0
H251 H 0.39156 0.54116 0.01919 0.0
H252 H 0.71313 0.49264 0.03905 0.0
H253 H 0.68173 0.43936 0.08 0.0
H254 H 0.37022 0.34638 0.1024 0.0
H255 H 0.71113 0.56052 1.00213 0.0
H256 H 0.316 0.4689 0.0874 0.0
H257 H 0.33373 0.53258 0.0533 0.0
N258 N 0.40623 0.48315 0.03433 0.0
C259 C 0.3963 0.44773 0.05143 0.0
C260 C 0.38389 0.51337 0.03402 0.0
C261 C 0.34119 0.47252 0.07225 0.0
C262 C 0.35116 0.50854 0.05316 0.0
C263 C 0.36376 0.44156 0.0715 0.0
H264 H 0.33034 0.39966 0.10644 0.0
N265 N 0.45008 0.42443 0.02911 0.0
C266 C 0.4193 0.4177 0.04961 0.0
C267 C 0.43131 0.35082 0.06188 0.0
C268 C 0.40957 0.38071 0.06721 0.0
C269 C 0.46867 0.39512 0.01997 0.0
C270 C 0.46045 0.35804 0.03733 0.0
O271 O 0.55833 0.51776 0.01278 0.0
O272 O 0.49897 0.53386 0.97294 0.0
O273 O 0.44937 0.46685 0.94194 0.0
O274 O 0.41307 0.50975 0.95481 0.0
O275 O 0.49906 0.55119 0.07403 0.0
O276 O 0.46713 0.54965 0.00517 0.0
O277 O 0.45791 0.48896 0.07359 0.0
O278 O 0.51737 0.46983 0.10976 0.0
O279 O 0.55574 0.5496 0.13311 0.0
O280 O 0.59617 0.50425 0.14049 0.0
O281 O 0.51763 0.45767 0.00847 0.0
O282 O 0.54546 0.4559 0.07962 0.0
C283 C 0.53628 0.53393 0.97717 0.0
C284 C 0.47335 0.5646 0.03991 0.0
C285 C 0.39323 0.48979 0.88694 0.0
C286 C 0.37928 0.48016 0.81226 0.0
C287 C 0.332 0.50935 0.84253 0.0
C288 C 0.35685 0.5061 0.88167 0.0
C289 C 0.34312 0.49668 0.808 0.0
C290 C 0.40421 0.47625 0.85221 0.0
C291 C 0.41934 0.48854 0.92836 0.0
C292 C 0.37781 0.37458 0.08833 0.0
C293 C 0.35496 0.4049 0.09043 0.0
H294 H 0.42475 0.32203 0.0749 0.0
C295 C 0.48037 0.47072 0.10794 0.0
C296 C 0.5412 0.44238 0.04379 0.0
C297 C 0.57661 0.51595 0.20367 0.0
C298 C 0.58109 0.52664 0.27744 0.0
C299 C 0.55125 0.4703 0.25764 0.0
C300 C 0.5584 0.48186 0.21545 0.0
C301 C 0.56243 0.49251 0.2885 0.0
C302 C 0.58802 0.5382 0.23472 0.0
C303 C 0.58296 0.52903 0.15889 0.0
H304 H 0.30405 0.52191 0.83888 0.0
H305 H 0.34752 0.51649 0.90786 0.0
H306 H 0.32322 0.49948 0.77791 0.0
H307 H 0.43224 0.46379 0.85575 0.0
H308 H 0.53712 0.44397 0.2665 0.0
H309 H 0.54986 0.46424 0.19205 0.0
H310 H 0.55704 0.48269 0.32119 0.0
H311 H 0.60182 0.5647 0.22544 0.0
H312 H 0.17772 0.16755 0.43392 0.0
H313 H 0.18432 0.1967 0.55967 0.0
H314 H 0.13484 0.15198 0.57668 0.0
H315 H 0.09158 0.10276 0.55754 0.0
H316 H 0.08172 0.07518 0.43084 0.0
H317 H 0.13053 0.121 0.41265 0.0
C318 C 0.168 0.16448 0.46481 0.0
C319 C 0.18535 0.18512 0.49568 0.0
C320 C 0.13904 0.13882 0.47439 0.0
C321 C 0.17233 0.18056 0.53564 0.0
C322 C 0.1438 0.15512 0.54538 0.0
C323 C 0.09951 0.10722 0.52561 0.0
C324 C 0.08282 0.08567 0.49555 0.0
C325 C 0.12726 0.13381 0.51524 0.0
C326 C 0.09415 0.09135 0.45466 0.0
C327 C 0.12205 0.11757 0.44421 0.0
H328 H 0.38715 0.70469 0.07128 0.0
H329 H 0.32801 0.69918 0.94315 0.0
H330 H 0.36891 0.64699 0.94059 0.0
H331 H 0.41967 0.60148 0.9754 0.0
H332 H 0.47657 0.60411 0.10523 0.0
H333 H 0.43802 0.65863 0.10645 0.0
C334 C 0.38299 0.69193 0.0429 0.0
C335 C 0.35452 0.70607 0.00743 0.0
C336 C 0.4061 0.66129 0.04194 0.0
C337 C 0.35006 0.68946 0.97065 0.0
C338 C 0.37325 0.65934 0.96926 0.0
C339 C 0.42378 0.61392 1.00403 0.0
C340 C 0.45093 0.5985 0.04023 0.0
C341 C 0.40116 0.64488 0.00481 0.0
C342 C 0.45583 0.61524 0.0769 0.0
C343 C 0.43376 0.64644 0.07767 0.0
H344 H 0.83457 0.82501 0.547 0.0
H345 H 0.79678 0.88334 0.63816 0.0
H346 H 0.84719 0.92928 0.62827 0.0
H347 H 0.90127 0.95362 0.59241 0.0
H348 H 0.93738 0.89528 0.49998 0.0
H349 H 0.88805 0.84908 0.51137 0.0
C350 C 0.83703 0.84798 0.56441 0.0
C351 C 0.81167 0.85077 0.59308 0.0
C352 C 0.86579 0.87444 0.55827 0.0
C353 C 0.81602 0.88027 0.61613 0.0
C354 C 0.84473 0.90671 0.61029 0.0
C355 C 0.8984 0.93082 0.57473 0.0
C356 C 0.9232 0.92815 0.54534 0.0
C357 C 0.8697 0.90417 0.58128 0.0
C358 C 0.91891 0.89825 0.52285 0.0
C359 C 0.89061 0.8717 0.52929 0.0
H360 H 0.64518 0.2984 0.07758 0.0
H361 H 0.65306 0.33841 0.94294 0.0
H362 H 0.60779 0.38933 0.93923 0.0
H363 H 0.56896 0.42468 0.97582 0.0
H364 H 0.5649 0.38589 0.11156 0.0
H365 H 0.60624 0.33256 0.11347 0.0
C366 C 0.63732 0.31842 0.04745 0.0
C367 C 0.65289 0.31483 0.01075 0.0
C368 C 0.61211 0.34795 0.04585 0.0
C369 C 0.64141 0.3404 0.97165 0.0
C370 C 0.61572 0.36966 0.96959 0.0
C371 C 0.57688 0.40426 0.00561 0.0
C372 C 0.56412 0.40912 0.04354 0.0
C373 C 0.60126 0.37398 0.00666 0.0
C374 C 0.5747 0.38278 0.08208 0.0
C375 C 0.59826 0.35231 0.08318 0.0
H376 H 0.12196 0.8678 0.20571 0.0
H377 H 0.24107 0.89322 0.23424 0.0
H378 H 0.23351 0.90117 0.30651 0.0
H379 H 0.19351 0.89968 0.36225 0.0
H380 H 0.07455 0.87338 0.33459 0.0
H381 H 0.08146 0.86767 0.26128 0.0
C382 C 0.14612 0.87552 0.22759 0.0
C383 C 0.18206 0.87968 0.21466 0.0
C384 C 0.14164 0.87985 0.26933 0.0
C385 C 0.2132 0.88934 0.24358 0.0
C386 C 0.2089 0.894 0.28489 0.0
C387 C 0.16915 0.89241 0.34031 0.0
C388 C 0.13362 0.88684 0.35405 0.0
C389 C 0.17336 0.88891 0.2983 0.0
C390 C 0.10218 0.87816 0.32482 0.0
C391 C 0.10613 0.87471 0.28291 0.0
H392 H 0.63775 0.58986 0.83418 0.0
H393 H 0.55363 0.67908 0.79715 0.0
H394 H 0.52059 0.6502 0.85663 0.0
H395 H 0.51453 0.59788 0.91783 0.0
H396 H 0.60088 0.51059 0.95598 0.0
H397 H 0.63405 0.54018 0.89749 0.0
C398 C 0.61227 0.60302 0.83934 0.0
C399 C 0.59794 0.63634 0.81129 0.0
C400 C 0.59364 0.58636 0.87354 0.0
C401 C 0.56523 0.65348 0.81854 0.0
C402 C 0.54622 0.63683 0.85231 0.0
C403 C 0.54039 0.58528 0.9129 0.0
C404 C 0.55492 0.55181 0.94056 0.0
C405 C 0.55986 0.60295 0.87965 0.0
C406 C 0.58901 0.5362 0.93478 0.0
C407 C 0.60804 0.55312 0.90142 0.0
H408 H 0.87312 0.03595 0.26197 0.0
H409 H 0.88405 0.15338 0.2683 0.0
H410 H 0.92131 0.13708 0.34082 0.0
H411 H 0.95191 0.08993 0.40135 0.0
H412 H 0.94017 0.97219 0.39694 0.0
H413 H 0.90312 0.98825 0.32399 0.0
C414 C 0.88384 0.05792 0.2792 0.0
C415 C 0.87576 0.09579 0.25984 0.0
C416 C 0.90536 0.04836 0.32093 0.0
C417 C 0.88943 0.12399 0.28271 0.0
C418 C 0.91096 0.11473 0.32404 0.0
C419 C 0.94087 0.06768 0.38479 0.0
C420 C 0.94846 0.02992 0.4048 0.0
C421 C 0.91913 0.07706 0.34336 0.0
C422 C 0.93476 0.00152 0.38227 0.0
C423 C 0.91344 0.01067 0.34064 0.0
H424 H 0.3861 0.44338 0.62992 0.0
H425 H 0.41747 0.33392 0.70796 0.0
H426 H 0.42044 0.35932 0.77384 0.0
H427 H 0.4068 0.41129 0.80918 0.0
H428 H 0.37457 0.52012 0.7303 0.0
H429 H 0.3802 0.49658 0.66506 0.0
C430 C 0.3946 0.42522 0.66126 0.0
C431 C 0.40109 0.38668 0.66384 0.0
C432 C 0.39587 0.43991 0.69901 0.0
C433 C 0.41161 0.36357 0.70494 0.0
C434 C 0.41341 0.37809 0.74269 0.0
C435 C 0.40194 0.42997 0.77776 0.0
C436 C 0.3899 0.46724 0.77445 0.0
C437 C 0.40448 0.416 0.74015 0.0
C438 C 0.38343 0.49117 0.73354 0.0
C439 C 0.38658 0.47773 0.69623 0.0
H440 H 0.65981 0.62166 0.41293 0.0
H441 H 0.55094 0.60503 0.45553 0.0
H442 H 0.52897 0.5706 0.39794 0.0
H443 H 0.54091 0.54416 0.33626 0.0
H444 H 0.64933 0.56121 0.29292 0.0
H445 H 0.67085 0.59733 0.34928 0.0
C446 C 0.6311 0.61096 0.40928 0.0
C447 C 0.60722 0.61571 0.43883 0.0
C448 C 0.6185 0.59132 0.37587 0.0
C449 C 0.57022 0.60122 0.43382 0.0
C450 C 0.55752 0.58169 0.40071 0.0
C451 C 0.5693 0.55567 0.33928 0.0
C452 C 0.59354 0.54985 0.31059 0.0
C453 C 0.58153 0.57625 0.37183 0.0
C454 C 0.63001 0.56552 0.31439 0.0
C455 C 0.64241 0.586 0.34676 0.0
H456 H 0.8334 0.12812 0.82372 0.0
H457 H 0.90442 0.05936 0.93287 0.0
H458 H 0.94325 0.04062 0.88466 0.0
H459 H 0.95884 0.04544 0.81208 0.0
H460 H 0.89191 0.11902 0.70379 0.0
H461 H 0.84987 0.134 0.75113 0.0
C462 C 0.85752 0.10927 0.83711 0.0
C463 C 0.86565 0.09515 0.88203 0.0
C464 C 0.88062 0.0994 0.80932 0.0
C465 C 0.89676 0.07017 0.89845 0.0
C466 C 0.91934 0.05966 0.87092 0.0
C467 C 0.9353 0.06505 0.7988 0.0
C468 C 0.92872 0.08101 0.75431 0.0
C469 C 0.91178 0.0744 0.82638 0.0
C470 C 0.89746 0.10575 0.7377 0.0
C471 C 0.87352 0.11463 0.76485 0.0
H472 H 0.4413 0.3718 0.28056 0.0
H473 H 0.33887 0.4397 0.24339 0.0
H474 H 0.36138 0.47171 0.1773 0.0
H475 H 0.41245 0.48297 0.13259 0.0
H476 H 0.51242 0.41127 0.16783 0.0
H477 H 0.48918 0.37888 0.23261 0.0
C478 C 0.42391 0.39356 0.25789 0.0
C479 C 0.3887 0.40368 0.26698 0.0
C480 C 0.43685 0.41148 0.21991 0.0
C481 C 0.36609 0.43145 0.23703 0.0
C482 C 0.37904 0.44985 0.19939 0.0
C483 C 0.42871 0.45976 0.15397 0.0
C484 C 0.46426 0.44983 0.14548 0.0
C485 C 0.41463 0.44044 0.19076 0.0
C486 C 0.48527 0.42 0.17393 0.0
C487 C 0.47191 0.40125 0.21091 0.0
H488 H 0.14273 0.96929 0.78603 0.0
H489 H 0.0715 0.87284 0.80958 0.0
H490 H 0.03747 0.88875 0.73497 0.0
H491 H 0.02841 0.93004 0.66276 0.0
H492 H 0.0973 0.02845 0.64069 0.0
H493 H 0.13197 0.01193 0.71483 0.0
C494 C 0.11962 0.95194 0.77475 0.0
C495 C 0.10951 0.92002 0.80308 0.0
C496 C 0.09992 0.96157 0.73212 0.0
C497 C 0.07944 0.89777 0.78836 0.0
C498 C 0.06017 0.90673 0.74571 0.0
C499 C 0.05104 0.94776 0.67435 0.0
C500 C 0.06043 0.98033 0.64659 0.0
C501 C 0.07024 0.9385 0.71727 0.0
C502 C 0.08954 0.00333 0.66178 0.0
C503 C 0.10937 0.99387 0.70405 0.0
loop_
_geom_bond_atom_site_label_1
_geom_bond_atom_site_label_2
_geom_bond_distance
_geom_bond_site_symmetry_2
_ccdc_geom_bond_type
C0 C1 1.384 . S
C0 H13 0.947 . S
C0 C35 1.382 . S
C1 C0 1.384 . S
C1 C2 1.378 . S
C2 C1 1.378 . S
C2 C3 1.378 . S
C2 H14 0.952 . S
C3 C2 1.378 . S
C3 H15 0.950 . S
C3 C34 1.383 . S
H4 C23 0.947 . S
H5 C24 0.946 . S
H6 C26 0.953 . S
H7 C27 0.945 . S
H8 C29 0.952 . S
H9 C30 0.949 . S
H10 C32 0.950 . S
H11 C33 0.948 . S
H12 C35 0.951 . S
H13 C0 0.947 . S
H14 C2 0.952 . S
H15 C3 0.950 . S
N16 C19 1.382 . S
N16 C21 1.363 . S
N17 C19 1.371 1_556 S
N17 C20 1.372 . S
N18 C20 1.361 1_554 S
N18 C21 1.377 . S
C19 N16 1.382 . S
C19 N17 1.371 1_554 S
C19 C22 1.480 . S
C20 N17 1.372 . S
C20 N18 1.361 1_556 S
C20 C28 1.457 . S
C21 N16 1.363 . S
C21 N18 1.377 . S
C21 C34 1.479 . S
C22 C19 1.480 . S
C22 C23 1.383 . S
C22 C27 1.385 1_554 S
C23 H4 0.947 . S
C23 C22 1.383 . S
C23 C24 1.388 . S
C24 H5 0.946 . S
C24 C23 1.388 . S
C24 C25 1.384 . S
C25 C24 1.384 . S
C25 C26 1.377 1_554 S
C26 H6 0.953 . S
C26 C25 1.377 1_556 S
C26 C27 1.369 . S
C27 H7 0.945 . S
C27 C22 1.385 1_556 S
C27 C26 1.369 . S
C28 C20 1.457 . S
C28 C29 1.372 . S
C28 C33 1.364 . S
C29 H8 0.952 . S
C29 C28 1.372 . S
C29 C30 1.389 . S
C30 H9 0.949 . S
C30 C29 1.389 . S
C30 C31 1.387 . S
C31 C30 1.387 . S
C31 C32 1.372 . S
C32 H10 0.950 . S
C32 C31 1.372 . S
C32 C33 1.379 . S
C33 H11 0.948 . S
C33 C28 1.364 . S
C33 C32 1.379 . S
C34 C3 1.383 . S
C34 C21 1.479 . S
C34 C35 1.398 . S
C35 C0 1.382 . S
C35 H12 0.951 . S
C35 C34 1.398 . S
C36 C37 1.384 . S
C36 H49 0.947 . S
C36 C71 1.382 . S
C37 C36 1.384 . S
C37 C38 1.378 . S
C38 C37 1.378 . S
C38 C39 1.378 . S
C38 H50 0.952 . S
C39 C38 1.378 . S
C39 H51 0.950 . S
C39 C70 1.383 . S
H40 C59 0.947 . S
H41 C60 0.946 . S
H42 C62 0.953 . S
H43 C63 0.945 . S
H44 C65 0.952 . S
H45 C66 0.949 . S
H46 C68 0.950 . S
H47 C69 0.948 . S
H48 C71 0.951 . S
H49 C36 0.947 . S
H50 C38 0.952 . S
H51 C39 0.950 . S
N52 C55 1.382 . S
N52 C57 1.363 . S
N53 C55 1.371 . S
N53 C56 1.372 . S
N54 C56 1.361 . S
N54 C57 1.377 . S
C55 N52 1.382 . S
C55 N53 1.371 . S
C55 C58 1.480 . S
C56 N53 1.372 . S
C56 N54 1.361 . S
C56 C64 1.457 . S
C57 N52 1.363 . S
C57 N54 1.377 . S
C57 C70 1.479 . S
C58 C55 1.480 . S
C58 C59 1.383 . S
C58 C63 1.385 . S
C59 H40 0.947 . S
C59 C58 1.383 . S
C59 C60 1.388 . S
C60 H41 0.946 . S
C60 C59 1.388 . S
C60 C61 1.384 . S
C61 C60 1.384 . S
C61 C62 1.377 . S
C62 H42 0.953 . S
C62 C61 1.377 . S
C62 C63 1.369 . S
C63 H43 0.945 . S
C63 C58 1.385 . S
C63 C62 1.369 . S
C64 C56 1.457 . S
C64 C65 1.372 . S
C64 C69 1.364 . S
C65 H44 0.952 . S
C65 C64 1.372 . S
C65 C66 1.389 . S
C66 H45 0.949 . S
C66 C65 1.389 . S
C66 C67 1.387 . S
C67 C66 1.387 . S
C67 C68 1.372 . S
C68 H46 0.950 . S
C68 C67 1.372 . S
C68 C69 1.379 . S
C69 H47 0.948 . S
C69 C64 1.364 . S
C69 C68 1.379 . S
C70 C39 1.383 . S
C70 C57 1.479 . S
C70 C71 1.398 . S
C71 C36 1.382 . S
C71 H48 0.951 . S
C71 C70 1.398 . S
C72 C73 1.384 . S
C72 H85 0.947 . S
C72 C107 1.382 . S
C73 C72 1.384 . S
C73 C74 1.378 . S
C74 C73 1.378 . S
C74 C75 1.378 . S
C74 H86 0.952 . S
C75 C74 1.378 . S
C75 H87 0.950 . S
C75 C106 1.383 . S
H76 C95 0.947 1_556 S
H77 C96 0.946 . S
H78 C98 0.953 . S
H79 C99 0.945 . S
H80 C101 0.952 . S
H81 C102 0.949 . S
H82 C104 0.950 . S
H83 C105 0.948 . S
H84 C107 0.951 1_554 S
H85 C72 0.947 . S
H86 C74 0.952 . S
H87 C75 0.950 . S
N88 C91 1.382 . S
N88 C93 1.363 . S
N89 C91 1.371 . S
N89 C92 1.372 . S
N90 C92 1.361 . S
N90 C93 1.377 . S
C91 N88 1.382 . S
C91 N89 1.371 . S
C91 C94 1.480 . S
C92 N89 1.372 . S
C92 N90 1.361 . S
C92 C100 1.457 . S
C93 N88 1.363 . S
C93 N90 1.377 . S
C93 C106 1.479 1_554 S
C94 C91 1.480 . S
C94 C95 1.383 . S
C94 C99 1.385 . S
C95 H76 0.947 1_554 S
C95 C94 1.383 . S
C95 C96 1.388 1_554 S
C96 H77 0.946 . S
C96 C95 1.388 1_556 S
C96 C97 1.384 1_556 S
C97 C96 1.384 1_554 S
C97 C98 1.377 . S
C98 H78 0.953 . S
C98 C97 1.377 . S
C98 C99 1.369 . S
C99 H79 0.945 . S
C99 C94 1.385 . S
C99 C98 1.369 . S
C100 C92 1.457 . S
C100 C101 1.372 . S
C100 C105 1.364 . S
C101 H80 0.952 . S
C101 C100 1.372 . S
C101 C102 1.389 . S
C102 H81 0.949 . S
C102 C101 1.389 . S
C102 C103 1.387 . S
C103 C102 1.387 . S
C103 C104 1.372 . S
C104 H82 0.950 . S
C104 C103 1.372 . S
C104 C105 1.379 . S
C105 H83 0.948 . S
C105 C100 1.364 . S
C105 C104 1.379 . S
C106 C75 1.383 . S
C106 C93 1.479 1_556 S
C106 C107 1.398 . S
C107 C72 1.382 . S
C107 H84 0.951 1_556 S
C107 C106 1.398 . S
C108 C109 1.384 . S
C108 H121 0.947 . S
C108 C143 1.382 . S
C109 C108 1.384 . S
C109 C110 1.378 . S
C110 C109 1.378 . S
C110 C111 1.378 . S
C110 H122 0.952 . S
C111 C110 1.378 . S
C111 H123 0.950 . S
C111 C142 1.383 . S
H112 C131 0.947 . S
H113 C132 0.946 . S
H114 C134 0.953 . S
H115 C135 0.945 . S
H116 C137 0.952 . S
H117 C138 0.949 . S
H118 C140 0.950 . S
H119 C141 0.948 . S
H120 C143 0.951 . S
H121 C108 0.947 . S
H122 C110 0.952 . S
H123 C111 0.950 . S
N124 C127 1.382 . S
N124 C129 1.363 . S
N125 C127 1.371 . S
N125 C128 1.372 . S
N126 C128 1.361 . S
N126 C129 1.377 . S
C127 N124 1.382 . S
C127 N125 1.371 . S
C127 C130 1.480 . S
C128 N125 1.372 . S
C128 N126 1.361 . S
C128 C136 1.457 . S
C129 N124 1.363 . S
C129 N126 1.377 . S
C129 C142 1.479 . S
C130 C127 1.480 . S
C130 C131 1.383 . S
C130 C135 1.385 . S
C131 H112 0.947 . S
C131 C130 1.383 . S
C131 C132 1.388 . S
C132 H113 0.946 . S
C132 C131 1.388 . S
C132 C133 1.384 . S
C133 C132 1.384 . S
C133 C134 1.377 . S
C134 H114 0.953 . S
C134 C133 1.377 . S
C134 C135 1.369 . S
C135 H115 0.945 . S
C135 C130 1.385 . S
C135 C134 1.369 . S
C136 C128 1.457 . S
C136 C137 1.372 . S
C136 C141 1.364 . S
C137 H116 0.952 . S
C137 C136 1.372 . S
C137 C138 1.389 . S
C138 H117 0.949 . S
C138 C137 1.389 . S
C138 C139 1.387 . S
C139 C138 1.387 . S
C139 C140 1.372 . S
C140 H118 0.950 . S
C140 C139 1.372 . S
C140 C141 1.379 . S
C141 H119 0.948 . S
C141 C136 1.364 . S
C141 C140 1.379 . S
C142 C111 1.383 . S
C142 C129 1.479 . S
C142 C143 1.398 . S
C143 C108 1.382 . S
C143 H120 0.951 . S
C143 C142 1.398 . S
C144 C146 1.422 . S
C144 C148 1.415 . S
C144 N150 1.369 . S
C145 C146 1.421 . S
C145 C147 1.417 . S
C145 C157 1.422 . S
C146 C144 1.422 . S
C146 C145 1.421 . S
C146 N156 1.359 . S
C147 C145 1.417 . S
C147 C149 1.329 . S
C147 H166 0.930 . S
C148 C144 1.415 . S
C148 C149 1.437 . S
C148 C152 1.413 . S
C149 C147 1.329 . S
C149 C148 1.437 . S
C149 H171 0.929 . S
N150 C144 1.369 . S
N150 C151 1.335 . S
N150 Gd155 2.622 . S
C151 N150 1.335 . S
C151 C153 1.378 . S
C151 H163 0.932 1_655 S
C152 C148 1.413 . S
C152 C153 1.348 . S
C152 H168 0.931 . S
C153 C151 1.378 . S
C153 C152 1.348 . S
C153 H169 0.930 1_655 S
Gd154 N174 2.622 . S
Gd154 N181 2.570 . S
Gd154 O188 2.351 1_455 S
Gd154 O189 2.468 . S
Gd154 O190 2.427 . S
Gd154 O192 2.388 1_455 S
Gd154 O193 2.386 . S
Gd154 O197 2.307 1_565 S
Gd154 C207 2.805 . S
Gd155 N150 2.622 . S
Gd155 N156 2.570 . S
Gd155 O187 2.386 . S
Gd155 O191 2.307 1_545 S
Gd155 O194 2.353 1_655 S
Gd155 O195 2.468 . S
Gd155 O196 2.427 . S
Gd155 O198 2.388 1_655 S
Gd155 C219 2.805 . S
N156 C146 1.359 . S
N156 Gd155 2.570 . S
N156 C158 1.343 . S
C157 C145 1.422 . S
C157 C159 1.321 . S
C157 H165 0.931 . S
C158 N156 1.343 . S
C158 C159 1.390 . S
C158 H160 0.931 . S
C159 C157 1.321 . S
C159 C158 1.390 . S
C159 H161 0.930 . S
H160 C158 0.931 . S
H161 C159 0.930 . S
H162 C185 0.931 . S
H163 C151 0.932 1_455 S
H164 C186 0.930 . S
H165 C157 0.931 . S
H166 C147 0.930 . S
H167 C176 0.929 1_655 S
H168 C152 0.931 . S
H169 C153 0.930 1_455 S
H170 C208 0.930 . S
H171 C149 0.929 . S
H172 C177 0.931 . S
H173 C178 0.930 1_655 S
N174 Gd154 2.622 . S
N174 C175 1.369 . S
N174 C176 1.338 . S
C175 N174 1.369 . S
C175 C179 1.415 . S
C175 C182 1.422 . S
C176 H167 0.929 1_455 S
C176 N174 1.338 . S
C176 C178 1.378 . S
C177 H172 0.931 . S
C177 C178 1.348 . S
C177 C179 1.413 . S
C178 H173 0.930 1_455 S
C178 C176 1.378 . S
C178 C177 1.348 . S
C179 C175 1.415 . S
C179 C177 1.413 . S
C179 C209 1.437 . S
H180 C209 0.929 . S
N181 Gd154 2.570 . S
N181 C182 1.359 . S
N181 C185 1.343 . S
C182 C175 1.422 . S
C182 N181 1.359 . S
C182 C184 1.421 . S
C183 C184 1.422 . S
C183 C186 1.321 . S
C183 H210 0.931 . S
C184 C182 1.421 . S
C184 C183 1.422 . S
C184 C208 1.417 . S
C185 H162 0.931 . S
C185 N181 1.343 . S
C185 C186 1.390 . S
C186 H164 0.930 . S
C186 C183 1.321 . S
C186 C185 1.390 . S
O187 Gd155 2.386 . S
O187 C199 1.265 . S
O188 Gd154 2.351 1_655 S
O188 C199 1.244 1_565 S
O189 Gd154 2.468 . S
O189 C207 1.263 . S
O190 Gd154 2.427 . S
O190 C207 1.252 . S
O191 Gd155 2.307 1_565 S
O191 C200 1.261 . S
O192 Gd154 2.388 1_655 S
O192 C200 1.252 . S
O193 Gd154 2.386 . S
O193 C211 1.265 . S
O194 Gd155 2.353 1_455 S
O194 C211 1.242 1_545 S
O195 Gd155 2.468 . S
O195 C219 1.263 . S
O196 Gd155 2.427 . S
O196 C219 1.252 . S
O197 Gd154 2.307 1_545 S
O197 C212 1.261 . S
O198 Gd155 2.388 1_455 S
O198 C212 1.252 . S
C199 O187 1.265 . S
C199 O188 1.244 1_545 S
C200 O191 1.261 . S
C200 O192 1.252 . S
C201 C204 1.394 . S
C201 C206 1.370 . S
C201 C207 1.500 . S
C202 C205 1.383 . S
C202 C206 1.395 . S
C203 C204 1.396 . S
C203 C205 1.365 . S
C203 H220 0.929 . S
C204 C201 1.394 . S
C204 C203 1.396 . S
C204 H221 0.930 . S
C205 C202 1.383 . S
C205 C203 1.365 . S
C205 H222 0.931 . S
C206 C201 1.370 . S
C206 C202 1.395 . S
C206 H223 0.930 . S
C207 Gd154 2.805 . S
C207 O189 1.263 . S
C207 O190 1.252 . S
C207 C201 1.500 . S
C208 H170 0.930 . S
C208 C184 1.417 . S
C208 C209 1.329 . S
C209 C179 1.437 . S
C209 H180 0.929 . S
C209 C208 1.329 . S
H210 C183 0.931 . S
C211 O193 1.265 . S
C211 O194 1.242 1_565 S
C212 O197 1.261 . S
C212 O198 1.252 . S
C213 C216 1.394 . S
C213 C218 1.370 . S
C213 C219 1.500 . S
C214 C217 1.383 . S
C214 C218 1.395 . S
C215 C216 1.396 . S
C215 C217 1.365 . S
C215 H224 0.929 . S
C216 C213 1.394 . S
C216 C215 1.396 . S
C216 H225 0.930 . S
C217 C214 1.383 . S
C217 C215 1.365 . S
C217 H226 0.931 . S
C218 C213 1.370 . S
C218 C214 1.395 . S
C218 H227 0.930 . S
C219 Gd155 2.805 . S
C219 O195 1.263 . S
C219 O196 1.252 . S
C219 C213 1.500 . S
H220 C203 0.929 . S
H221 C204 0.930 . S
H222 C205 0.931 . S
H223 C206 0.930 . S
H224 C215 0.929 . S
H225 C216 0.930 . S
H226 C217 0.931 . S
H227 C218 0.930 . S
C228 C230 1.422 . S
C228 C232 1.415 . S
C228 N234 1.369 . S
C229 C230 1.421 . S
C229 C231 1.417 . S
C229 C241 1.422 . S
C230 C228 1.422 . S
C230 C229 1.421 . S
C230 N240 1.359 . S
C231 C229 1.417 . S
C231 C233 1.329 . S
C231 H250 0.930 . S
C232 C228 1.415 . S
C232 C233 1.437 . S
C232 C236 1.413 . S
C233 C231 1.329 . S
C233 C232 1.437 . S
C233 H255 0.929 . S
N234 C228 1.369 . S
N234 C235 1.338 . S
N234 Gd239 2.622 . S
C235 N234 1.338 . S
C235 C237 1.378 . S
C235 H247 0.929 . S
C236 C232 1.413 . S
C236 C237 1.348 . S
C236 H252 0.931 . S
C237 C235 1.378 . S
C237 C236 1.348 . S
C237 H253 0.930 . S
Gd238 N258 2.622 . S
Gd238 N265 2.570 1_556 S
Gd238 O272 2.353 . S
Gd238 O273 2.468 . S
Gd238 O274 2.427 . S
Gd238 O276 2.387 1_556 S
Gd238 O277 2.386 1_556 S
Gd238 O281 2.307 1_556 S
Gd238 C291 2.805 . S
Gd239 N234 2.622 . S
Gd239 N240 2.570 . S
Gd239 O271 2.379 1_554 S
Gd239 O275 2.307 . S
Gd239 O278 2.353 . S
Gd239 O279 2.468 . S
Gd239 O280 2.427 . S
Gd239 O282 2.388 . S
Gd239 C303 2.805 . S
N240 C230 1.359 . S
N240 Gd239 2.570 . S
N240 C242 1.343 . S
C241 C229 1.422 . S
C241 C243 1.321 . S
C241 H249 0.931 . S
C242 N240 1.343 . S
C242 C243 1.390 . S
C242 H244 0.931 . S
C243 C241 1.321 . S
C243 C242 1.390 . S
C243 H245 0.930 . S
H244 C242 0.931 . S
H245 C243 0.930 . S
H246 C269 0.931 . S
H247 C235 0.929 . S
H248 C270 0.930 . S
H249 C241 0.931 . S
H250 C231 0.930 . S
H251 C260 0.929 . S
H252 C236 0.931 . S
H253 C237 0.930 . S
H254 C292 0.930 . S
H255 C233 0.929 . S
H256 C261 0.931 . S
H257 C262 0.930 . S
N258 Gd238 2.622 . S
N258 C259 1.369 1_556 S
N258 C260 1.338 . S
C259 N258 1.369 1_554 S
C259 C263 1.415 . S
C259 C266 1.422 . S
C260 H251 0.929 . S
C260 N258 1.338 . S
C260 C262 1.378 . S
C261 H256 0.931 . S
C261 C262 1.348 1_554 S
C261 C263 1.413 . S
C262 H257 0.930 . S
C262 C260 1.378 . S
C262 C261 1.348 1_556 S
C263 C259 1.415 . S
C263 C261 1.413 . S
C263 C293 1.437 . S
H264 C293 0.929 . S
N265 Gd238 2.570 1_554 S
N265 C266 1.359 . S
N265 C269 1.343 . S
C266 C259 1.422 . S
C266 N265 1.359 . S
C266 C268 1.421 . S
C267 C268 1.422 . S
C267 C270 1.321 . S
C267 H294 0.931 . S
C268 C266 1.421 . S
C268 C267 1.422 . S
C268 C292 1.417 . S
C269 H246 0.931 . S
C269 N265 1.343 . S
C269 C270 1.390 . S
C270 H248 0.930 . S
C270 C267 1.321 . S
C270 C269 1.390 . S
O271 Gd239 2.379 1_556 S
O271 C283 1.271 . S
O272 Gd238 2.353 . S
O272 C283 1.242 . S
O273 Gd238 2.468 . S
O273 C291 1.263 . S
O274 Gd238 2.427 . S
O274 C291 1.252 . S
O275 Gd239 2.307 . S
O275 C284 1.261 . S
O276 Gd238 2.387 1_554 S
O276 C284 1.253 . S
O277 Gd238 2.386 1_554 S
O277 C295 1.265 . S
O278 Gd239 2.353 . S
O278 C295 1.242 . S
O279 Gd239 2.468 . S
O279 C303 1.263 . S
O280 Gd239 2.427 . S
O280 C303 1.252 . S
O281 Gd238 2.307 1_554 S
O281 C296 1.261 . S
O282 Gd239 2.388 . S
O282 C296 1.252 . S
C283 O271 1.271 . S
C283 O272 1.242 . S
C284 O275 1.261 . S
C284 O276 1.253 . S
C285 C288 1.394 . S
C285 C290 1.370 . S
C285 C291 1.500 . S
C286 C289 1.383 . S
C286 C290 1.395 . S
C287 C288 1.396 . S
C287 C289 1.365 . S
C287 H304 0.929 . S
C288 C285 1.394 . S
C288 C287 1.396 . S
C288 H305 0.930 . S
C289 C286 1.383 . S
C289 C287 1.365 . S
C289 H306 0.931 . S
C290 C285 1.370 . S
C290 C286 1.395 . S
C290 H307 0.930 . S
C291 Gd238 2.805 . S
C291 O273 1.263 . S
C291 O274 1.252 . S
C291 C285 1.500 . S
C292 H254 0.930 . S
C292 C268 1.417 . S
C292 C293 1.329 . S
C293 C263 1.437 . S
C293 H264 0.929 . S
C293 C292 1.329 . S
H294 C267 0.931 . S
C295 O277 1.265 . S
C295 O278 1.242 . S
C296 O281 1.261 . S
C296 O282 1.252 . S
C297 C300 1.394 . S
C297 C302 1.370 . S
C297 C303 1.500 . S
C298 C301 1.383 . S
C298 C302 1.395 . S
C299 C300 1.396 . S
C299 C301 1.365 . S
C299 H308 0.929 . S
C300 C297 1.394 . S
C300 C299 1.396 . S
C300 H309 0.930 . S
C301 C298 1.383 . S
C301 C299 1.365 . S
C301 H310 0.931 . S
C302 C297 1.370 . S
C302 C298 1.395 . S
C302 H311 0.930 . S
C303 Gd239 2.805 . S
C303 O279 1.263 . S
C303 O280 1.252 . S
C303 C297 1.500 . S
H304 C287 0.929 . S
H305 C288 0.930 . S
H306 C289 0.931 . S
H307 C290 0.930 . S
H308 C299 0.929 . S
H309 C300 0.930 . S
H310 C301 0.931 . S
H311 C302 0.930 . S
H312 C318 0.930 . S
H313 C321 0.930 . S
H314 C322 0.930 . S
H315 C323 0.930 . S
H316 C326 0.930 . S
H317 C327 0.930 . S
C318 H312 0.930 . S
C318 C319 1.355 . S
C318 C320 1.415 . S
C319 C318 1.355 . S
C319 C321 1.419 . S
C320 C318 1.415 . S
C320 C325 1.425 . S
C320 C327 1.409 . S
C321 H313 0.930 . S
C321 C319 1.419 . S
C321 C322 1.362 . S
C322 H314 0.930 . S
C322 C321 1.362 . S
C322 C325 1.409 . S
C323 H315 0.930 . S
C323 C324 1.355 . S
C323 C325 1.415 . S
C324 C323 1.355 . S
C324 C326 1.419 . S
C325 C320 1.425 . S
C325 C322 1.409 . S
C325 C323 1.415 . S
C326 H316 0.930 . S
C326 C324 1.419 . S
C326 C327 1.362 . S
C327 H317 0.930 . S
C327 C320 1.409 . S
C327 C326 1.362 . S
H328 C334 0.930 . S
H329 C337 0.930 . S
H330 C338 0.930 . S
H331 C339 0.930 . S
H332 C342 0.930 . S
H333 C343 0.930 . S
C334 H328 0.930 . S
C334 C335 1.355 . S
C334 C336 1.415 . S
C335 C334 1.355 . S
C335 C337 1.419 . S
C336 C334 1.415 . S
C336 C341 1.425 . S
C336 C343 1.409 . S
C337 H329 0.930 . S
C337 C335 1.419 . S
C337 C338 1.362 . S
C338 H330 0.930 . S
C338 C337 1.362 . S
C338 C341 1.409 . S
C339 H331 0.930 . S
C339 C340 1.355 . S
C339 C341 1.415 . S
C340 C339 1.355 . S
C340 C342 1.419 . S
C341 C336 1.425 . S
C341 C338 1.409 . S
C341 C339 1.415 . S
C342 H332 0.930 . S
C342 C340 1.419 . S
C342 C343 1.362 . S
C343 H333 0.930 . S
C343 C336 1.409 . S
C343 C342 1.362 . S
H344 C350 0.930 . S
H345 C353 0.930 . S
H346 C354 0.930 . S
H347 C355 0.930 . S
H348 C358 0.930 . S
H349 C359 0.930 . S
C350 H344 0.930 . S
C350 C351 1.355 . S
C350 C352 1.415 . S
C351 C350 1.355 . S
C351 C353 1.419 . S
C352 C350 1.415 . S
C352 C357 1.425 . S
C352 C359 1.409 . S
C353 H345 0.930 . S
C353 C351 1.419 . S
C353 C354 1.362 . S
C354 H346 0.930 . S
C354 C353 1.362 . S
C354 C357 1.409 . S
C355 H347 0.930 . S
C355 C356 1.355 . S
C355 C357 1.415 . S
C356 C355 1.355 . S
C356 C358 1.419 . S
C357 C352 1.425 . S
C357 C354 1.409 . S
C357 C355 1.415 . S
C358 H348 0.930 . S
C358 C356 1.419 . S
C358 C359 1.362 . S
C359 H349 0.930 . S
C359 C352 1.409 . S
C359 C358 1.362 . S
H360 C366 0.930 . S
H361 C369 0.930 . S
H362 C370 0.930 . S
H363 C371 0.930 . S
H364 C374 0.930 . S
H365 C375 0.930 . S
C366 H360 0.930 . S
C366 C367 1.355 . S
C366 C368 1.415 . S
C367 C366 1.355 . S
C367 C369 1.419 . S
C368 C366 1.415 . S
C368 C373 1.425 . S
C368 C375 1.409 . S
C369 H361 0.930 . S
C369 C367 1.419 . S
C369 C370 1.362 . S
C370 H362 0.930 . S
C370 C369 1.362 . S
C370 C373 1.409 . S
C371 H363 0.930 . S
C371 C372 1.355 . S
C371 C373 1.415 . S
C372 C371 1.355 . S
C372 C374 1.419 . S
C373 C368 1.425 . S
C373 C370 1.409 . S
C373 C371 1.415 . S
C374 H364 0.930 . S
C374 C372 1.419 . S
C374 C375 1.362 . S
C375 H365 0.930 . S
C375 C368 1.409 . S
C375 C374 1.362 . S
H376 C382 0.930 . S
H377 C385 0.930 . S
H378 C386 0.930 . S
H379 C387 0.930 . S
H380 C390 0.930 . S
H381 C391 0.930 . S
C382 H376 0.930 . S
C382 C383 1.355 . S
C382 C384 1.415 . S
C383 C382 1.355 . S
C383 C385 1.419 . S
C384 C382 1.415 . S
C384 C389 1.425 . S
C384 C391 1.409 . S
C385 H377 0.930 . S
C385 C383 1.419 . S
C385 C386 1.362 . S
C386 H378 0.930 . S
C386 C385 1.362 . S
C386 C389 1.409 . S
C387 H379 0.930 . S
C387 C388 1.355 . S
C387 C389 1.415 . S
C388 C387 1.355 . S
C388 C390 1.419 . S
C389 C384 1.425 . S
C389 C386 1.409 . S
C389 C387 1.415 . S
C390 H380 0.930 . S
C390 C388 1.419 . S
C390 C391 1.362 . S
C391 H381 0.930 . S
C391 C384 1.409 . S
C391 C390 1.362 . S
H392 C398 0.930 . S
H393 C401 0.930 . S
H394 C402 0.930 . S
H395 C403 0.930 . S
H396 C406 0.930 . S
H397 C407 0.930 . S
C398 H392 0.930 . S
C398 C399 1.355 . S
C398 C400 1.415 . S
C399 C398 1.355 . S
C399 C401 1.419 . S
C400 C398 1.415 . S
C400 C405 1.425 . S
C400 C407 1.409 . S
C401 H393 0.930 . S
C401 C399 1.419 . S
C401 C402 1.362 . S
C402 H394 0.930 . S
C402 C401 1.362 . S
C402 C405 1.409 . S
C403 H395 0.930 . S
C403 C404 1.355 . S
C403 C405 1.415 . S
C404 C403 1.355 . S
C404 C406 1.419 . S
C405 C400 1.425 . S
C405 C402 1.409 . S
C405 C403 1.415 . S
C406 H396 0.930 . S
C406 C404 1.419 . S
C406 C407 1.362 . S
C407 H397 0.930 . S
C407 C400 1.409 . S
C407 C406 1.362 . S
H408 C414 0.930 . S
H409 C417 0.930 . S
H410 C418 0.930 . S
H411 C419 0.930 . S
H412 C422 0.930 1_565 S
H413 C423 0.930 1_565 S
C414 H408 0.930 . S
C414 C415 1.355 . S
C414 C416 1.415 . S
C415 C414 1.355 . S
C415 C417 1.419 . S
C416 C414 1.415 . S
C416 C421 1.425 . S
C416 C423 1.409 . S
C417 H409 0.930 . S
C417 C415 1.419 . S
C417 C418 1.362 . S
C418 H410 0.930 . S
C418 C417 1.362 . S
C418 C421 1.409 . S
C419 H411 0.930 . S
C419 C420 1.355 . S
C419 C421 1.415 . S
C420 C419 1.355 . S
C420 C422 1.419 . S
C421 C416 1.425 . S
C421 C418 1.409 . S
C421 C419 1.415 . S
C422 H412 0.930 1_545 S
C422 C420 1.419 . S
C422 C423 1.362 . S
C423 H413 0.930 1_545 S
C423 C416 1.409 . S
C423 C422 1.362 . S
H424 C430 0.930 . S
H425 C433 0.930 . S
H426 C434 0.930 . S
H427 C435 0.930 . S
H428 C438 0.930 . S
H429 C439 0.930 . S
C430 H424 0.930 . S
C430 C431 1.355 . S
C430 C432 1.415 . S
C431 C430 1.355 . S
C431 C433 1.419 . S
C432 C430 1.415 . S
C432 C437 1.425 . S
C432 C439 1.409 . S
C433 H425 0.930 . S
C433 C431 1.419 . S
C433 C434 1.362 . S
C434 H426 0.930 . S
C434 C433 1.362 . S
C434 C437 1.409 . S
C435 H427 0.930 . S
C435 C436 1.355 . S
C435 C437 1.415 . S
C436 C435 1.355 . S
C436 C438 1.419 . S
C437 C432 1.425 . S
C437 C434 1.409 . S
C437 C435 1.415 . S
C438 H428 0.930 . S
C438 C436 1.419 . S
C438 C439 1.362 . S
C439 H429 0.930 . S
C439 C432 1.409 . S
C439 C438 1.362 . S
H440 C446 0.930 . S
H441 C449 0.930 . S
H442 C450 0.930 . S
H443 C451 0.930 . S
H444 C454 0.930 . S
H445 C455 0.930 . S
C446 H440 0.930 . S
C446 C447 1.355 . S
C446 C448 1.415 . S
C447 C446 1.355 . S
C447 C449 1.419 . S
C448 C446 1.415 . S
C448 C453 1.425 . S
C448 C455 1.409 . S
C449 H441 0.930 . S
C449 C447 1.419 . S
C449 C450 1.362 . S
C450 H442 0.930 . S
C450 C449 1.362 . S
C450 C453 1.409 . S
C451 H443 0.930 . S
C451 C452 1.355 . S
C451 C453 1.415 . S
C452 C451 1.355 . S
C452 C454 1.419 . S
C453 C448 1.425 . S
C453 C450 1.409 . S
C453 C451 1.415 . S
C454 H444 0.930 . S
C454 C452 1.419 . S
C454 C455 1.362 . S
C455 H445 0.930 . S
C455 C448 1.409 . S
C455 C454 1.362 . S
H456 C462 0.930 . S
H457 C465 0.930 . S
H458 C466 0.930 . S
H459 C467 0.930 . S
H460 C470 0.930 . S
H461 C471 0.930 . S
C462 H456 0.930 . S
C462 C463 1.355 . S
C462 C464 1.415 . S
C463 C462 1.355 . S
C463 C465 1.419 . S
C464 C462 1.415 . S
C464 C469 1.425 . S
C464 C471 1.409 . S
C465 H457 0.930 . S
C465 C463 1.419 . S
C465 C466 1.362 . S
C466 H458 0.930 . S
C466 C465 1.362 . S
C466 C469 1.409 . S
C467 H459 0.930 . S
C467 C468 1.355 . S
C467 C469 1.415 . S
C468 C467 1.355 . S
C468 C470 1.419 . S
C469 C464 1.425 . S
C469 C466 1.409 . S
C469 C467 1.415 . S
C470 H460 0.930 . S
C470 C468 1.419 . S
C470 C471 1.362 . S
C471 H461 0.930 . S
C471 C464 1.409 . S
C471 C470 1.362 . S
H472 C478 0.930 . S
H473 C481 0.930 . S
H474 C482 0.930 . S
H475 C483 0.930 . S
H476 C486 0.930 . S
H477 C487 0.930 . S
C478 H472 0.930 . S
C478 C479 1.355 . S
C478 C480 1.415 . S
C479 C478 1.355 . S
C479 C481 1.419 . S
C480 C478 1.415 . S
C480 C485 1.425 . S
C480 C487 1.409 . S
C481 H473 0.930 . S
C481 C479 1.419 . S
C481 C482 1.362 . S
C482 H474 0.930 . S
C482 C481 1.362 . S
C482 C485 1.409 . S
C483 H475 0.930 . S
C483 C484 1.355 . S
C483 C485 1.415 . S
C484 C483 1.355 . S
C484 C486 1.419 . S
C485 C480 1.425 . S
C485 C482 1.409 . S
C485 C483 1.415 . S
C486 H476 0.930 . S
C486 C484 1.419 . S
C486 C487 1.362 . S
C487 H477 0.930 . S
C487 C480 1.409 . S
C487 C486 1.362 . S
H488 C494 0.930 . S
H489 C497 0.930 . S
H490 C498 0.930 . S
H491 C499 0.930 . S
H492 C502 0.930 1_545 S
H493 C503 0.930 1_545 S
C494 H488 0.930 . S
C494 C495 1.355 . S
C494 C496 1.415 . S
C495 C494 1.355 . S
C495 C497 1.419 . S
C496 C494 1.415 . S
C496 C501 1.425 . S
C496 C503 1.409 . S
C497 H489 0.930 . S
C497 C495 1.419 . S
C497 C498 1.362 . S
C498 H490 0.930 . S
C498 C497 1.362 . S
C498 C501 1.409 . S
C499 H491 0.930 . S
C499 C500 1.355 . S
C499 C501 1.415 . S
C500 C499 1.355 . S
C500 C502 1.419 . S
C501 C496 1.425 . S
C501 C498 1.409 . S
C501 C499 1.415 . S
C502 H492 0.930 1_565 S
C502 C500 1.419 . S
C502 C503 1.362 . S
C503 H493 0.930 1_565 S
C503 C496 1.409 . S
C503 C502 1.362 . S
C324 C212 1.651 . S
C319 C133 1.630 . S
C335 C25 1.606 . S
C340 C284 1.631 . S
C351 C61 1.644 . S
C356 C200 1.627 . S
C367 C97 1.558 . S
C372 C296 1.615 . S
C388 C202 1.357 . S
C383 C1 1.557 . S
C404 C283 1.608 . S
C399 C67 1.593 . S
C415 C103 1.579 . S
C420 C199 1.622 . S
C431 C109 1.521 . S
C436 C286 1.356 . S
C452 C298 1.344 . S
C447 C37 1.537 . S
C468 C214 1.393 . S
C463 C73 1.537 . S
C484 C295 1.613 . S
C479 C139 1.608 . S
C495 C31 1.606 . S
C500 C211 1.624 . S
