# Generated by pormake.
# Topology pyr, (3,6)-cn, num edge types: 1
# Building blocks:
#     Node 0, Type 0, BuildingBlock: BELTOD_clean_linker_0, # of connection points: 3
#     Node 1, Type 0, BuildingBlock: BELTOD_clean_linker_0, # of connection points: 3
#     Node 2, Type 0, BuildingBlock: BELTOD_clean_linker_0, # of connection points: 3
#     Node 3, Type 0, BuildingBlock: BELTOD_clean_linker_0, # of connection points: 3
#     Node 4, Type 0, BuildingBlock: BELTOD_clean_linker_0, # of connection points: 3
#     Node 5, Type 0, BuildingBlock: BELTOD_clean_linker_0, # of connection points: 3
#     Node 6, Type 0, BuildingBlock: BELTOD_clean_linker_0, # of connection points: 3
#     Node 7, Type 0, BuildingBlock: BELTOD_clean_linker_0, # of connection points: 3
#     Node 8, Type 1, BuildingBlock: BETGAK_clean_sbu_0, # of connection points: 6
#     Node 9, Type 1, BuildingBlock: BETGAK_clean_sbu_0, # of connection points: 6
#     Node 10, Type 1, BuildingBlock: BETGAK_clean_sbu_0, # of connection points: 6
#     Node 11, Type 1, BuildingBlock: BETGAK_clean_sbu_0, # of connection points: 6
#     Edge 12, Type (0, 1), None
#     Edge 13, Type (0, 1), None
#     Edge 14, Type (0, 1), None
#     Edge 15, Type (0, 1), None
#     Edge 16, Type (0, 1), None
#     Edge 17, Type (0, 1), None
#     Edge 18, Type (0, 1), None
#     Edge 19, Type (0, 1), None
#     Edge 20, Type (0, 1), None
#     Edge 21, Type (0, 1), None
#     Edge 22, Type (0, 1), None
#     Edge 23, Type (0, 1), None
#     Edge 24, Type (0, 1), None
#     Edge 25, Type (0, 1), None
#     Edge 26, Type (0, 1), None
#     Edge 27, Type (0, 1), None
#     Edge 28, Type (0, 1), None
#     Edge 29, Type (0, 1), None
#     Edge 30, Type (0, 1), None
#     Edge 31, Type (0, 1), None
#     Edge 32, Type (0, 1), None
#     Edge 33, Type (0, 1), None
#     Edge 34, Type (0, 1), None
#     Edge 35, Type (0, 1), None
# Relax obj value: 0.287
# Max RMSD: 0.167
# Mean RMSD: 0.084
data_MOF--net-pyr--node1-BETGAK_clean_sbu_0--node2-BELTOD_clean_linker_0--edge1-none
_symmetry_space_group_name_H-M    P1
_symmetry_Int_Tables_number       1
_symmetry_cell_setting            triclinic
loop_
_symmetry_equiv_pos_as_xyz
'x, y, z'
_cell_length_a     22.224201
_cell_length_b     24.521898
_cell_length_c     21.799758
_cell_angle_alpha  90.836053
_cell_angle_beta   87.997517
_cell_angle_gamma 105.19577
loop_
_atom_site_label
_atom_site_type_symbol
_atom_site_fract_x
_atom_site_fract_y
_atom_site_fract_z
_atom_type_partial_charge
P0 P 0.45918 0.35818 0.32451 0.0
H1 H 0.57194 0.33896 0.2632 0.0
H2 H 0.59635 0.25402 0.22048 0.0
H3 H 0.42185 0.15187 0.29619 0.0
H4 H 0.39837 0.23559 0.33982 0.0
H5 H 0.43145 0.45648 0.26719 0.0
H6 H 0.33506 0.46969 0.2263 0.0
H7 H 0.25129 0.29005 0.24013 0.0
H8 H 0.34685 0.27722 0.27825 0.0
H9 H 0.44249 0.28119 0.43245 0.0
H10 H 0.39451 0.43433 0.38698 0.0
O11 O 0.52011 0.41478 0.31869 0.0
H12 H 0.33831 0.24344 0.47787 0.0
H13 H 0.29017 0.39682 0.43199 0.0
C14 C 0.483 0.29442 0.30453 0.0
C15 C 0.53971 0.29819 0.27222 0.0
C16 C 0.55388 0.24945 0.24813 0.0
C17 C 0.51091 0.19623 0.255 0.0
C18 C 0.45591 0.19223 0.29018 0.0
C19 C 0.44232 0.24064 0.31491 0.0
C20 C 0.39774 0.36561 0.27497 0.0
C21 C 0.39318 0.41968 0.25911 0.0
C22 C 0.33742 0.42732 0.23697 0.0
C23 C 0.28492 0.38097 0.23035 0.0
C24 C 0.29071 0.32675 0.24372 0.0
C25 C 0.34624 0.31927 0.26561 0.0
C26 C 0.42262 0.35724 0.39981 0.0
C27 C 0.41065 0.30785 0.43456 0.0
C28 C 0.35124 0.28649 0.46115 0.0
C29 C 0.30562 0.31612 0.45473 0.0
C30 C 0.32418 0.37255 0.43576 0.0
C31 C 0.38398 0.39384 0.40979 0.0
P32 P 0.39549 1.06412 0.63224 0.0
H33 H 0.45252 0.13561 0.73566 0.0
H34 H 0.42068 0.13686 0.84417 0.0
H35 H 0.26098 0.99578 0.81227 0.0
H36 H 0.29429 0.99357 0.70507 0.0
H37 H 0.51825 1.04261 0.62925 0.0
H38 H 0.55091 0.95495 0.63569 0.0
H39 H 0.35896 0.85847 0.62214 0.0
H40 H 0.32678 0.9455 0.61641 0.0
H41 H 0.30827 0.13011 0.66097 0.0
H42 H 0.32635 1.00469 0.52552 0.0
O43 O 0.45219 0.12113 0.61251 0.0
H44 H 0.20108 0.11945 0.63325 0.0
H45 H 0.21817 0.99525 0.4958 0.0
C46 C 0.37608 1.06424 0.71272 0.0
C47 C 0.41097 0.10486 0.75227 0.0
C48 C 0.39204 0.10603 0.81394 0.0
C49 C 0.33775 1.06678 0.83653 0.0
C50 C 0.30307 1.02631 0.7964 0.0
C51 C 0.32236 1.02484 0.73519 0.0
C52 C 0.42035 1.00069 0.62005 0.0
C53 C 0.48351 1.00252 0.62558 0.0
C54 C 0.50204 0.95252 0.63002 0.0
C55 C 0.45748 0.89996 0.62913 0.0
C56 C 0.3945 0.8983 0.6217 0.0
C57 C 0.37606 0.94822 0.61793 0.0
C58 C 0.32426 1.06634 0.59719 0.0
C59 C 0.28925 0.10048 0.62481 0.0
C60 C 0.22767 0.09389 0.60948 0.0
C61 C 0.20086 1.05472 0.56425 0.0
C62 C 0.23764 1.02437 0.53223 0.0
C63 C 0.29931 1.03006 0.54881 0.0
P64 P 0.67456 0.37341 0.891 0.0
H65 H 0.75635 0.34054 0.97814 0.0
H66 H 0.84634 0.38994 1.03584 0.0
H67 H 0.83121 0.54881 0.96475 0.0
H68 H 0.73917 0.4986 0.90761 0.0
H69 H 0.59068 0.26148 0.856 0.0
H70 H 0.54332 0.17357 0.91217 0.0
H71 H 0.60544 0.25725 0.08231 0.0
H72 H 0.64975 0.34589 1.02651 0.0
H73 H 0.6436 0.35422 0.75879 0.0
H74 H 0.62593 0.48014 0.89268 0.0
O75 O 0.71564 0.34079 0.84474 0.0
H76 H 0.60818 0.40646 0.67901 0.0
H77 H 0.58956 0.5328 0.81224 0.0
C78 C 0.73767 0.41519 0.93987 0.0
C79 C 0.77043 0.38623 0.97631 0.0
C80 C 0.82301 0.41485 1.00935 0.0
C81 C 0.84678 0.47403 1.00633 0.0
C82 C 0.81441 0.5034 0.96947 0.0
C83 C 0.76096 0.47449 0.93667 0.0
C84 C 0.62455 0.31205 0.93579 0.0
C85 C 0.59295 0.26187 0.90554 0.0
C86 C 0.56639 0.21079 0.93802 0.0
C87 C 0.57129 0.20686 1.00232 0.0
C88 C 0.60127 0.2574 1.03296 0.0
C89 C 0.62654 0.30888 1.00057 0.0
C90 C 0.63896 0.41232 0.83355 0.0
C91 C 0.63206 0.3931 0.77183 0.0
C92 C 0.61162 0.42362 0.7252 0.0
C93 C 0.59611 0.47522 0.73735 0.0
C94 C 0.60131 0.49392 0.79955 0.0
C95 C 0.62215 0.46328 0.84642 0.0
P96 P 0.85597 0.72349 0.37268 0.0
H97 H 0.86781 0.84441 0.34125 0.0
H98 H 0.91636 0.93551 0.38892 0.0
H99 H 0.99285 0.85031 0.52575 0.0
H100 H 0.94564 0.75886 0.47656 0.0
H101 H 0.92765 0.74636 0.25248 0.0
H102 H 0.97206 0.68868 0.17884 0.0
H103 H 0.92201 0.54954 0.30517 0.0
H104 H 0.87711 0.60681 0.37779 0.0
H105 H 0.83822 0.72402 0.51134 0.0
H106 H 0.7372 0.63377 0.35995 0.0
O107 O 0.81089 0.74241 0.3218 0.0
H108 H 0.75127 0.68102 0.58157 0.0
H109 H 0.64891 0.59133 0.43053 0.0
C110 C 0.90153 0.79289 0.40497 0.0
C111 C 0.89556 0.8446 0.38106 0.0
C112 C 0.92368 0.89759 0.40867 0.0
C113 C 0.95871 0.90156 0.46206 0.0
C114 C 0.96619 0.84994 0.48505 0.0
C115 C 0.9389 0.79694 0.4567 0.0
C116 C 0.89922 0.68221 0.32254 0.0
C117 C 0.92691 0.70365 0.2651 0.0
C118 C 0.9521 0.67016 0.22214 0.0
C119 C 0.95097 0.61349 0.2347 0.0
C120 C 0.92419 0.59261 0.29269 0.0
C121 C 0.89864 0.62586 0.33524 0.0
C122 C 0.7962 0.68251 0.42904 0.0
C123 C 0.79827 0.69425 0.49267 0.0
C124 C 0.74752 0.6695 0.53343 0.0
C125 C 0.69185 0.63251 0.51244 0.0
C126 C 0.69034 0.6195 0.44908 0.0
C127 C 0.74151 0.64377 0.4084 0.0
P128 P 0.67854 0.88792 0.87182 0.0
H129 H 0.62537 0.86294 0.99731 0.0
H130 H 0.5653 0.9141 1.05901 0.0
H131 H 0.52982 0.99875 0.89754 0.0
H132 H 0.58675 0.94406 0.83441 0.0
H133 H 0.81293 0.92918 0.88487 0.0
H134 H 0.89017 0.88464 0.92097 0.0
H135 H 0.74335 0.74378 0.98868 0.0
H136 H 0.66549 0.79002 0.95446 0.0
H137 H 0.66627 0.91184 0.74208 0.0
H138 H 0.65812 0.76367 0.84816 0.0
O139 O 0.71736 0.95232 0.84767 0.0
H140 H 0.73759 0.88519 0.66898 0.0
H141 H 0.73479 0.73902 0.77813 0.0
C142 C 0.61092 0.89979 0.91117 0.0
C143 C 0.60153 0.88944 0.97419 0.0
C144 C 0.56746 0.91931 1.00972 0.0
C145 C 0.54394 0.96079 0.98285 0.0
C146 C 0.54722 0.96657 0.91898 0.0
C147 C 0.57967 0.93524 0.88308 0.0
C148 C 0.73295 0.86332 0.91709 0.0
C149 C 0.79682 0.88977 0.90949 0.0
C150 C 0.84129 0.86373 0.92942 0.0
C151 C 0.82302 0.80993 0.95632 0.0
C152 C 0.75908 0.78524 0.96814 0.0
C153 C 0.71442 0.81186 0.94882 0.0
C154 C 0.66423 0.84371 0.80443 0.0
C155 C 0.67713 0.87172 0.74814 0.0
C156 C 0.71852 0.85624 0.70608 0.0
C157 C 0.74628 0.81291 0.72127 0.0
C158 C 0.71694 0.77471 0.76732 0.0
C159 C 0.67367 0.78944 0.80799 0.0
P160 P 0.9348 0.29598 0.47648 0.0
H161 H 0.91952 0.40968 0.49352 0.0
H162 H 0.82506 0.44256 0.49883 0.0
H163 H 0.71421 0.27061 0.52596 0.0
H164 H 0.80779 0.23799 0.51674 0.0
H165 H 0.88379 0.17907 0.43128 0.0
H166 H 0.87788 0.08725 0.47711 0.0
H167 H 0.94406 0.17077 0.64699 0.0
H168 H 0.95412 0.26255 0.5996 0.0
H169 H 1.00002 0.24465 0.3816 0.0
H170 H 0.86055 0.33848 0.38766 0.0
O171 O 1.00276 0.33925 0.49617 0.0
H172 H 0.96762 0.2104 0.27873 0.0
H173 H 0.82689 0.3035 0.28842 0.0
C174 C 0.87087 0.32161 0.50521 0.0
C175 C 0.87506 0.37945 0.50285 0.0
C176 C 0.82086 0.39805 0.50555 0.0
C177 C 0.76194 0.35891 0.51162 0.0
C178 C 0.75868 0.30157 0.51948 0.0
C179 C 0.81261 0.283 0.51551 0.0
C180 C 0.92445 0.22772 0.51067 0.0
C181 C 0.8982 0.1778 0.47797 0.0
C182 C 0.89303 0.12522 0.50465 0.0
C183 C 0.91179 0.12216 0.56496 0.0
C184 C 0.93023 0.17198 0.59999 0.0
C185 C 0.93722 0.22447 0.57268 0.0
C186 C 0.93023 0.29114 0.39405 0.0
C187 C 0.96379 0.25918 0.36034 0.0
C188 C 0.94498 0.23952 0.30162 0.0
C189 C 0.89243 0.2518 0.27642 0.0
C190 C 0.8667 0.29199 0.30625 0.0
C191 C 0.88556 0.31156 0.36446 0.0
P192 P 0.39281 0.72838 0.26129 0.0
H193 H 0.32494 0.7608 0.1583 0.0
H194 H 0.22761 0.71552 0.10768 0.0
H195 H 0.18972 0.58153 0.24064 0.0
H196 H 0.28543 0.62837 0.29291 0.0
H197 H 0.52067 0.79991 0.24209 0.0
H198 H 0.56577 0.89506 0.20357 0.0
H199 H 0.38452 0.92787 0.21164 0.0
H200 H 0.33863 0.83057 0.24989 0.0
H201 H 0.39108 0.61122 0.29337 0.0
H202 H 0.43652 0.77035 0.38959 0.0
O203 O 0.43483 0.70207 0.20948 0.0
H204 H 0.422 0.56502 0.38087 0.0
H205 H 0.46834 0.72391 0.47833 0.0
C206 C 0.31301 0.69992 0.23165 0.0
C207 C 0.29486 0.72284 0.17838 0.0
C208 C 0.23904 0.69616 0.1485 0.0
C209 C 0.19995 0.64417 0.16922 0.0
C210 C 0.21813 0.62114 0.22248 0.0
C211 C 0.27331 0.64851 0.25311 0.0
C212 C 0.42563 0.80627 0.24936 0.0
C213 C 0.49013 0.82737 0.23713 0.0
C214 C 0.51615 0.88255 0.21441 0.0
C215 C 0.4794 0.92045 0.20365 0.0
C216 C 0.41499 0.90084 0.21925 0.0
C217 C 0.38856 0.84465 0.24145 0.0
C218 C 0.40966 0.69485 0.33367 0.0
C219 C 0.40656 0.6365 0.33379 0.0
C220 C 0.42497 0.60973 0.38452 0.0
C221 C 0.44795 0.63979 0.43834 0.0
C222 C 0.45054 0.69836 0.43878 0.0
C223 C 0.43201 0.72533 0.3875 0.0
P224 P 0.18653 0.38182 0.78943 0.0
H225 H 0.10474 0.35225 0.67687 0.0
H226 H 0.06698 0.26461 0.61737 0.0
H227 H 0.1322 0.17153 0.75471 0.0
H228 H 0.17283 0.25886 0.81203 0.0
H229 H 0.31411 0.45281 0.81264 0.0
H230 H 0.40339 0.50136 0.74668 0.0
H231 H 0.29098 0.4547 0.58763 0.0
H232 H 0.20218 0.4069 0.65324 0.0
H233 H 0.07854 0.3577 0.88308 0.0
H234 H 0.21154 0.50606 0.81362 0.0
O235 O 0.22612 0.35825 0.84216 0.0
H236 H 0.04232 0.41602 0.96259 0.0
H237 H 0.17691 0.56356 0.89278 0.0
C238 C 0.14372 0.31451 0.74963 0.0
C239 C 0.11174 0.31344 0.69444 0.0
C240 C 0.08963 0.26246 0.66002 0.0
C241 C 0.09655 0.20964 0.68002 0.0
C242 C 0.12573 0.21044 0.73666 0.0
C243 C 0.14908 0.26139 0.77013 0.0
C244 C 0.25024 0.42463 0.73888 0.0
C245 C 0.30807 0.45326 0.76361 0.0
C246 C 0.35958 0.48137 0.72565 0.0
C247 C 0.35523 0.48201 0.66132 0.0
C248 C 0.29675 0.45518 0.63679 0.0
C249 C 0.24525 0.4273 0.67479 0.0
C250 C 0.14693 0.42661 0.83918 0.0
C251 C 0.09911 0.40289 0.88334 0.0
C252 C 0.07882 0.43655 0.93 0.0
C253 C 0.10642 0.49545 0.93566 0.0
C254 C 0.15382 0.51883 0.89116 0.0
C255 C 0.17352 0.48548 0.84455 0.0
La256 La 0.04309 0.08751 0.51097 0.0
La257 La 1.01376 1.02484 0.62444 0.0
C258 C 0.06541 0.16347 0.43137 0.0
C259 C 0.12105 0.21219 0.42872 0.0
C260 C 0.17004 0.21036 0.38718 0.0
C261 C 0.22948 0.24527 0.39577 0.0
C262 C 0.24095 0.28337 0.44539 0.0
C263 C 0.19114 0.28959 0.48345 0.0
C264 C 0.13137 0.25403 0.47524 0.0
C265 C 0.13595 1.04893 0.54847 0.0
C266 C 0.07381 0.15459 0.64266 0.0
C267 C 0.98968 0.94623 0.70169 0.0
C268 C 0.93633 0.89559 0.70159 0.0
C269 C 0.90032 0.88192 0.64898 0.0
C270 C 0.84039 0.84577 0.65262 0.0
C271 C 0.81454 0.82406 0.7095 0.0
C272 C 0.8536 0.83162 0.76038 0.0
C273 C 0.91394 0.86764 0.75654 0.0
C274 C 0.9247 1.06999 0.58651 0.0
C275 C 0.98492 0.95801 0.49524 0.0
O276 O 0.07679 0.11423 0.42221 0.0
O277 O 1.02696 0.16229 0.47825 0.0
O278 O 0.121 1.05047 0.49208 0.0
O279 O 0.09994 1.06952 0.58161 0.0
O280 O 0.06129 0.15655 0.5833 0.0
O281 O 0.06793 0.10418 0.66803 0.0
O282 O 0.97405 0.99365 0.70997 0.0
O283 O 0.0311 0.95003 0.65677 0.0
O284 O 0.93677 1.06406 0.64309 0.0
O285 O 0.95821 1.04566 0.55496 0.0
O286 O 1.00435 0.95781 0.55203 0.0
O287 O 0.98626 1.00758 0.47045 0.0
H288 H 0.16345 0.17908 0.35068 0.0
H289 H 0.26722 0.24113 0.36476 0.0
H290 H 0.19895 0.31989 0.52091 0.0
H291 H 0.09425 0.25717 0.50746 0.0
H292 H 0.91528 0.90325 0.60624 0.0
H293 H 0.81165 0.84063 0.6127 0.0
H294 H 0.83514 0.81554 0.80507 0.0
H295 H 0.94064 0.87769 0.79773 0.0
La296 La 0.58549 0.07748 0.13312 0.0
La297 La 0.46411 1.07081 0.10714 0.0
C298 C 0.69995 0.09461 0.15312 0.0
C299 C 0.75579 0.1363 0.17335 0.0
C300 C 0.79853 0.11687 0.20672 0.0
C301 C 0.84749 0.15497 0.23502 0.0
C302 C 0.85479 0.21354 0.23026 0.0
C303 C 0.81527 0.23281 0.19144 0.0
C304 C 0.76552 0.19439 0.16372 0.0
C305 C 0.50993 0.9765 0.17118 0.0
C306 C 0.51738 0.14764 0.21668 0.0
C307 C 0.35044 1.06106 0.09133 0.0
C308 C 0.32209 1.06185 1.03122 0.0
C309 C 0.32952 0.11361 1.00096 0.0
C310 C 0.32931 0.11513 0.93709 0.0
C311 C 0.32091 1.06496 0.90281 0.0
C312 C 0.30382 1.0129 0.93352 0.0
C313 C 0.30376 1.01137 0.99735 0.0
C314 C 0.54349 0.15092 1.0362 0.0
C315 C 0.53265 1.00617 1.02213 0.0
O316 O 0.65554 0.07726 0.19488 0.0
O317 O 0.67834 0.102 0.09965 0.0
O318 O 0.56429 0.98569 0.14509 0.0
O319 O 0.4981 1.02461 0.17651 0.0
O320 O 0.57234 0.14497 0.19448 0.0
O321 O 0.46655 0.11341 0.19543 0.0
O322 O 0.38935 0.10839 0.10776 0.0
O323 O 0.37348 1.01797 0.10014 0.0
O324 O 0.49522 0.11317 1.01783 0.0
O325 O 0.54767 0.14139 0.09282 0.0
O326 O 0.47882 1.00094 1.05103 0.0
O327 O 0.58139 1.04554 1.03957 0.0
H328 H 0.79188 0.072 0.214 0.0
H329 H 0.87603 0.13808 0.26488 0.0
H330 H 0.82027 0.27759 0.1857 0.0
H331 H 0.73325 0.21007 0.13729 0.0
H332 H 0.342 0.1533 1.0259 0.0
H333 H 0.34024 0.15576 0.91449 0.0
H334 H 0.29634 0.97336 0.90844 0.0
H335 H 0.29641 0.97076 1.01949 0.0
La336 La 0.51483 0.51167 0.55135 0.0
La337 La 0.53199 0.60683 0.62547 0.0
C338 C 0.53989 0.43363 0.48807 0.0
C339 C 0.59607 0.41393 0.49208 0.0
C340 C 0.59909 0.36172 0.46767 0.0
C341 C 0.6531 0.34359 0.47411 0.0
C342 C 0.70415 0.37725 0.50583 0.0
C343 C 0.70044 0.42955 0.53003 0.0
C344 C 0.64727 0.44797 0.52249 0.0
C345 C 0.4114 0.50674 0.61932 0.0
C346 C 0.5734 0.50769 0.68607 0.0
C347 C 0.51145 0.68925 0.68516 0.0
C348 C 0.49978 0.74343 0.66865 0.0
C349 C 0.52603 0.79199 0.703 0.0
C350 C 0.51421 0.84354 0.68884 0.0
C351 C 0.47534 0.84701 0.64029 0.0
C352 C 0.44977 0.79839 0.60542 0.0
C353 C 0.46174 0.74706 0.61955 0.0
C354 C 0.63555 0.6104 0.55605 0.0
C355 C 0.47118 0.61005 0.49115 0.0
O356 O 0.50284 0.42447 0.53673 0.0
O357 O 0.5504 0.48553 0.46907 0.0
O358 O 0.41307 0.49165 0.56213 0.0
O359 O 0.46743 0.5242 0.63648 0.0
O360 O 0.56936 0.48876 0.62828 0.0
O361 O 0.55519 0.55405 0.69841 0.0
O362 O 0.56742 0.68373 0.67232 0.0
O363 O 0.46811 0.6439 0.67094 0.0
O364 O 0.63434 0.62598 0.61313 0.0
O365 O 0.57916 0.59374 0.54002 0.0
O366 O 0.4901 0.63672 0.54352 0.0
O367 O 0.47552 0.55758 0.48365 0.0
H368 H 0.56012 0.33532 0.44356 0.0
H369 H 0.65514 0.30364 0.4535 0.0
H370 H 0.73848 0.45629 0.55503 0.0
H371 H 0.64628 0.48908 0.54051 0.0
H372 H 0.55453 0.78963 0.74157 0.0
H373 H 0.53365 0.88013 0.71721 0.0
H374 H 0.41983 0.79989 0.56766 0.0
H375 H 0.44012 0.71013 0.59275 0.0
La376 La 1.0247 0.50511 0.11672 0.0
La377 La 0.03194 0.60722 1.04349 0.0
C378 C 0.05725 0.41657 0.13982 0.0
C379 C 0.10936 0.40373 0.17145 0.0
C380 C 0.14577 0.44268 0.21206 0.0
C381 C 0.20248 0.43519 0.23173 0.0
C382 C 0.2239 0.38869 0.21091 0.0
C383 C 0.18612 0.34905 0.17158 0.0
C384 C 0.12958 0.35657 0.15211 0.0
C385 C 0.97733 0.57517 0.19029 0.0
C386 C 0.14112 0.61412 0.13585 0.0
C387 C 1.01423 0.69473 0.99576 0.0
C388 C 0.96277 0.72072 0.98568 0.0
C389 C 0.96473 0.75235 0.93243 0.0
C390 C 0.91902 0.78065 0.92299 0.0
C391 C 0.87043 0.7783 0.96688 0.0
C392 C 0.86763 0.74531 1.01972 0.0
C393 C 0.91351 0.71672 1.02909 0.0
C394 C 0.08737 0.53347 0.98599 0.0
C395 C 0.90738 0.50326 1.03736 0.0
O396 O 1.01452 0.4332 0.17252 0.0
O397 O 0.07515 0.44733 0.09086 0.0
O398 O 0.97993 0.52439 0.20396 0.0
O399 O 0.99887 0.58337 0.13492 0.0
O400 O 0.11581 0.55954 0.14543 0.0
O401 O 0.11514 0.64252 0.09815 0.0
O402 O 1.0138 0.64858 0.96491 0.0
O403 O 1.03007 0.69192 1.05255 0.0
O404 O 0.10808 0.58816 0.9859 0.0
O405 O 0.03707 0.52274 1.01894 0.0
O406 O 0.93416 0.55784 1.02702 0.0
O407 O 0.93547 0.47282 1.07084 0.0
H408 H 0.13132 0.47973 0.227 0.0
H409 H 0.22968 0.46603 0.26289 0.0
H410 H 0.2012 0.31311 0.15398 0.0
H411 H 0.10288 0.32671 0.11967 0.0
H412 H 1.00213 0.75569 0.89829 0.0
H413 H 0.92175 0.8043 0.88101 0.0
H414 H 0.83082 0.74254 1.05434 0.0
H415 H 0.911 0.69226 1.07053 0.0
loop_
_geom_bond_atom_site_label_1
_geom_bond_atom_site_label_2
_geom_bond_distance
_geom_bond_site_symmetry_2
_ccdc_geom_bond_type
P0 O11 1.490 . S
P0 C14 1.812 . S
P0 C20 1.803 . S
P0 C26 1.819 . S
H1 C15 0.941 . S
H2 C16 0.939 . S
H3 C18 0.940 . S
H4 C19 0.940 . S
H5 C21 0.939 . S
H6 C22 0.942 . S
H7 C24 0.940 . S
H8 C25 0.939 . S
H9 C27 0.941 . S
H10 C31 0.939 . S
O11 P0 1.490 . S
H12 C28 0.939 . S
H13 C30 0.940 . S
C14 P0 1.812 . S
C14 C15 1.389 . S
C14 C19 1.391 . S
C15 H1 0.941 . S
C15 C14 1.389 . S
C15 C16 1.397 . S
C16 H2 0.939 . S
C16 C15 1.397 . S
C16 C17 1.378 . S
C17 C16 1.378 . S
C17 C18 1.378 . S
C18 H3 0.940 . S
C18 C17 1.378 . S
C18 C19 1.396 . S
C19 H4 0.940 . S
C19 C14 1.391 . S
C19 C18 1.396 . S
C20 P0 1.803 . S
C20 C21 1.378 . S
C20 C25 1.400 . S
C21 H5 0.939 . S
C21 C20 1.378 . S
C21 C22 1.361 . S
C22 H6 0.942 . S
C22 C21 1.361 . S
C22 C23 1.369 . S
C23 C22 1.369 . S
C23 C24 1.404 . S
C24 H7 0.940 . S
C24 C23 1.404 . S
C24 C25 1.389 . S
C25 H8 0.939 . S
C25 C20 1.400 . S
C25 C24 1.389 . S
C26 P0 1.819 . S
C26 C27 1.391 . S
C26 C31 1.391 . S
C27 H9 0.941 . S
C27 C26 1.391 . S
C27 C28 1.396 . S
C28 H12 0.939 . S
C28 C27 1.396 . S
C28 C29 1.397 . S
C29 C28 1.397 . S
C29 C30 1.385 . S
C30 H13 0.940 . S
C30 C29 1.385 . S
C30 C31 1.388 . S
C31 H10 0.939 . S
C31 C26 1.391 . S
C31 C30 1.388 . S
P32 O43 1.490 . S
P32 C46 1.812 . S
P32 C52 1.803 . S
P32 C58 1.819 . S
H33 C47 0.941 . S
H34 C48 0.939 . S
H35 C50 0.940 . S
H36 C51 0.940 . S
H37 C53 0.939 . S
H38 C54 0.942 . S
H39 C56 0.940 . S
H40 C57 0.939 . S
H41 C59 0.941 . S
H42 C63 0.939 . S
O43 P32 1.490 . S
H44 C60 0.939 . S
H45 C62 0.940 . S
C46 P32 1.812 . S
C46 C47 1.389 . S
C46 C51 1.391 . S
C47 H33 0.941 . S
C47 C46 1.389 . S
C47 C48 1.397 . S
C48 H34 0.939 . S
C48 C47 1.397 . S
C48 C49 1.378 . S
C49 C48 1.378 . S
C49 C50 1.378 . S
C50 H35 0.940 . S
C50 C49 1.378 . S
C50 C51 1.396 . S
C51 H36 0.940 . S
C51 C46 1.391 . S
C51 C50 1.396 . S
C52 P32 1.803 . S
C52 C53 1.378 . S
C52 C57 1.400 . S
C53 H37 0.939 . S
C53 C52 1.378 . S
C53 C54 1.361 . S
C54 H38 0.942 . S
C54 C53 1.361 . S
C54 C55 1.369 . S
C55 C54 1.369 . S
C55 C56 1.404 . S
C56 H39 0.940 . S
C56 C55 1.404 . S
C56 C57 1.389 . S
C57 H40 0.939 . S
C57 C52 1.400 . S
C57 C56 1.389 . S
C58 P32 1.819 . S
C58 C59 1.391 . S
C58 C63 1.391 . S
C59 H41 0.941 . S
C59 C58 1.391 . S
C59 C60 1.396 . S
C60 H44 0.939 . S
C60 C59 1.396 . S
C60 C61 1.397 . S
C61 C60 1.397 . S
C61 C62 1.385 . S
C62 H45 0.940 . S
C62 C61 1.385 . S
C62 C63 1.388 . S
C63 H42 0.939 . S
C63 C58 1.391 . S
C63 C62 1.388 . S
P64 O75 1.490 . S
P64 C78 1.812 . S
P64 C84 1.803 . S
P64 C90 1.819 . S
H65 C79 0.941 . S
H66 C80 0.939 . S
H67 C82 0.940 . S
H68 C83 0.940 . S
H69 C85 0.939 . S
H70 C86 0.942 . S
H71 C88 0.940 . S
H72 C89 0.939 . S
H73 C91 0.941 . S
H74 C95 0.939 . S
O75 P64 1.490 . S
H76 C92 0.939 . S
H77 C94 0.940 . S
C78 P64 1.812 . S
C78 C79 1.389 . S
C78 C83 1.391 . S
C79 H65 0.941 . S
C79 C78 1.389 . S
C79 C80 1.397 . S
C80 H66 0.939 . S
C80 C79 1.397 . S
C80 C81 1.378 . S
C81 C80 1.378 . S
C81 C82 1.378 . S
C82 H67 0.940 . S
C82 C81 1.378 . S
C82 C83 1.396 . S
C83 H68 0.940 . S
C83 C78 1.391 . S
C83 C82 1.396 . S
C84 P64 1.803 . S
C84 C85 1.378 . S
C84 C89 1.400 . S
C85 H69 0.939 . S
C85 C84 1.378 . S
C85 C86 1.361 . S
C86 H70 0.942 . S
C86 C85 1.361 . S
C86 C87 1.369 . S
C87 C86 1.369 . S
C87 C88 1.404 . S
C88 H71 0.940 . S
C88 C87 1.404 . S
C88 C89 1.389 . S
C89 H72 0.939 . S
C89 C84 1.400 . S
C89 C88 1.389 . S
C90 P64 1.819 . S
C90 C91 1.391 . S
C90 C95 1.391 . S
C91 H73 0.941 . S
C91 C90 1.391 . S
C91 C92 1.396 . S
C92 H76 0.939 . S
C92 C91 1.396 . S
C92 C93 1.397 . S
C93 C92 1.397 . S
C93 C94 1.385 . S
C94 H77 0.940 . S
C94 C93 1.385 . S
C94 C95 1.388 . S
C95 H74 0.939 . S
C95 C90 1.391 . S
C95 C94 1.388 . S
P96 O107 1.490 . S
P96 C110 1.812 . S
P96 C116 1.803 . S
P96 C122 1.819 . S
H97 C111 0.941 . S
H98 C112 0.939 . S
H99 C114 0.940 . S
H100 C115 0.940 . S
H101 C117 0.939 . S
H102 C118 0.942 . S
H103 C120 0.940 . S
H104 C121 0.939 . S
H105 C123 0.941 . S
H106 C127 0.939 . S
O107 P96 1.490 . S
H108 C124 0.939 . S
H109 C126 0.940 . S
C110 P96 1.812 . S
C110 C111 1.389 . S
C110 C115 1.391 . S
C111 H97 0.941 . S
C111 C110 1.389 . S
C111 C112 1.397 . S
C112 H98 0.939 . S
C112 C111 1.397 . S
C112 C113 1.378 . S
C113 C112 1.378 . S
C113 C114 1.378 . S
C114 H99 0.940 . S
C114 C113 1.378 . S
C114 C115 1.396 . S
C115 H100 0.940 . S
C115 C110 1.391 . S
C115 C114 1.396 . S
C116 P96 1.803 . S
C116 C117 1.378 . S
C116 C121 1.400 . S
C117 H101 0.939 . S
C117 C116 1.378 . S
C117 C118 1.361 . S
C118 H102 0.942 . S
C118 C117 1.361 . S
C118 C119 1.369 . S
C119 C118 1.369 . S
C119 C120 1.404 . S
C120 H103 0.940 . S
C120 C119 1.404 . S
C120 C121 1.389 . S
C121 H104 0.939 . S
C121 C116 1.400 . S
C121 C120 1.389 . S
C122 P96 1.819 . S
C122 C123 1.391 . S
C122 C127 1.391 . S
C123 H105 0.941 . S
C123 C122 1.391 . S
C123 C124 1.396 . S
C124 H108 0.939 . S
C124 C123 1.396 . S
C124 C125 1.397 . S
C125 C124 1.397 . S
C125 C126 1.385 . S
C126 H109 0.940 . S
C126 C125 1.385 . S
C126 C127 1.388 . S
C127 H106 0.939 . S
C127 C122 1.391 . S
C127 C126 1.388 . S
P128 O139 1.490 . S
P128 C142 1.812 . S
P128 C148 1.803 . S
P128 C154 1.819 . S
H129 C143 0.941 . S
H130 C144 0.939 . S
H131 C146 0.940 . S
H132 C147 0.940 . S
H133 C149 0.939 . S
H134 C150 0.942 . S
H135 C152 0.940 . S
H136 C153 0.939 . S
H137 C155 0.941 . S
H138 C159 0.939 . S
O139 P128 1.490 . S
H140 C156 0.939 . S
H141 C158 0.940 . S
C142 P128 1.812 . S
C142 C143 1.389 . S
C142 C147 1.391 . S
C143 H129 0.941 . S
C143 C142 1.389 . S
C143 C144 1.397 . S
C144 H130 0.939 . S
C144 C143 1.397 . S
C144 C145 1.378 . S
C145 C144 1.378 . S
C145 C146 1.378 . S
C146 H131 0.940 . S
C146 C145 1.378 . S
C146 C147 1.396 . S
C147 H132 0.940 . S
C147 C142 1.391 . S
C147 C146 1.396 . S
C148 P128 1.803 . S
C148 C149 1.378 . S
C148 C153 1.400 . S
C149 H133 0.939 . S
C149 C148 1.378 . S
C149 C150 1.361 . S
C150 H134 0.942 . S
C150 C149 1.361 . S
C150 C151 1.369 . S
C151 C150 1.369 . S
C151 C152 1.404 . S
C152 H135 0.940 . S
C152 C151 1.404 . S
C152 C153 1.389 . S
C153 H136 0.939 . S
C153 C148 1.400 . S
C153 C152 1.389 . S
C154 P128 1.819 . S
C154 C155 1.391 . S
C154 C159 1.391 . S
C155 H137 0.941 . S
C155 C154 1.391 . S
C155 C156 1.396 . S
C156 H140 0.939 . S
C156 C155 1.396 . S
C156 C157 1.397 . S
C157 C156 1.397 . S
C157 C158 1.385 . S
C158 H141 0.940 . S
C158 C157 1.385 . S
C158 C159 1.388 . S
C159 H138 0.939 . S
C159 C154 1.391 . S
C159 C158 1.388 . S
P160 O171 1.490 . S
P160 C174 1.812 . S
P160 C180 1.803 . S
P160 C186 1.819 . S
H161 C175 0.941 . S
H162 C176 0.939 . S
H163 C178 0.940 . S
H164 C179 0.940 . S
H165 C181 0.939 1_455 S
H166 C182 0.942 . S
H167 C184 0.940 . S
H168 C185 0.939 . S
H169 C187 0.941 . S
H170 C191 0.939 . S
O171 P160 1.490 . S
H172 C188 0.939 . S
H173 C190 0.940 . S
C174 P160 1.812 . S
C174 C175 1.389 . S
C174 C179 1.391 . S
C175 H161 0.941 . S
C175 C174 1.389 . S
C175 C176 1.397 . S
C176 H162 0.939 . S
C176 C175 1.397 . S
C176 C177 1.378 . S
C177 C176 1.378 . S
C177 C178 1.378 . S
C178 H163 0.940 . S
C178 C177 1.378 . S
C178 C179 1.396 . S
C179 H164 0.940 . S
C179 C174 1.391 . S
C179 C178 1.396 . S
C180 P160 1.803 . S
C180 C181 1.378 . S
C180 C185 1.400 . S
C181 H165 0.939 1_655 S
C181 C180 1.378 . S
C181 C182 1.361 1_655 S
C182 H166 0.942 . S
C182 C181 1.361 1_455 S
C182 C183 1.369 1_455 S
C183 C182 1.369 1_655 S
C183 C184 1.404 . S
C184 H167 0.940 . S
C184 C183 1.404 . S
C184 C185 1.389 . S
C185 H168 0.939 . S
C185 C180 1.400 . S
C185 C184 1.389 . S
C186 P160 1.819 . S
C186 C187 1.391 . S
C186 C191 1.391 . S
C187 H169 0.941 . S
C187 C186 1.391 . S
C187 C188 1.396 . S
C188 H172 0.939 . S
C188 C187 1.396 . S
C188 C189 1.397 . S
C189 C188 1.397 . S
C189 C190 1.385 . S
C190 H173 0.940 . S
C190 C189 1.385 . S
C190 C191 1.388 . S
C191 H170 0.939 . S
C191 C186 1.391 . S
C191 C190 1.388 . S
P192 O203 1.490 . S
P192 C206 1.812 . S
P192 C212 1.803 . S
P192 C218 1.819 . S
H193 C207 0.941 . S
H194 C208 0.939 . S
H195 C210 0.940 . S
H196 C211 0.940 . S
H197 C213 0.939 . S
H198 C214 0.942 . S
H199 C216 0.940 . S
H200 C217 0.939 . S
H201 C219 0.941 . S
H202 C223 0.939 . S
O203 P192 1.490 . S
H204 C220 0.939 . S
H205 C222 0.940 . S
C206 P192 1.812 . S
C206 C207 1.389 . S
C206 C211 1.391 . S
C207 H193 0.941 . S
C207 C206 1.389 . S
C207 C208 1.397 . S
C208 H194 0.939 . S
C208 C207 1.397 . S
C208 C209 1.378 . S
C209 C208 1.378 . S
C209 C210 1.378 . S
C210 H195 0.940 . S
C210 C209 1.378 . S
C210 C211 1.396 . S
C211 H196 0.940 . S
C211 C206 1.391 . S
C211 C210 1.396 . S
C212 P192 1.803 . S
C212 C213 1.378 . S
C212 C217 1.400 . S
C213 H197 0.939 . S
C213 C212 1.378 . S
C213 C214 1.361 . S
C214 H198 0.942 . S
C214 C213 1.361 . S
C214 C215 1.369 . S
C215 C214 1.369 . S
C215 C216 1.404 . S
C216 H199 0.940 . S
C216 C215 1.404 . S
C216 C217 1.389 . S
C217 H200 0.939 . S
C217 C212 1.400 . S
C217 C216 1.389 . S
C218 P192 1.819 . S
C218 C219 1.391 . S
C218 C223 1.391 . S
C219 H201 0.941 . S
C219 C218 1.391 . S
C219 C220 1.396 . S
C220 H204 0.939 . S
C220 C219 1.396 . S
C220 C221 1.397 . S
C221 C220 1.397 . S
C221 C222 1.385 . S
C222 H205 0.940 . S
C222 C221 1.385 . S
C222 C223 1.388 . S
C223 H202 0.939 . S
C223 C218 1.391 . S
C223 C222 1.388 . S
P224 O235 1.490 . S
P224 C238 1.812 . S
P224 C244 1.803 . S
P224 C250 1.819 . S
H225 C239 0.941 . S
H226 C240 0.939 . S
H227 C242 0.940 . S
H228 C243 0.940 . S
H229 C245 0.939 . S
H230 C246 0.942 . S
H231 C248 0.940 . S
H232 C249 0.939 . S
H233 C251 0.941 . S
H234 C255 0.939 . S
O235 P224 1.490 . S
H236 C252 0.939 . S
H237 C254 0.940 . S
C238 P224 1.812 . S
C238 C239 1.389 . S
C238 C243 1.391 . S
C239 H225 0.941 . S
C239 C238 1.389 . S
C239 C240 1.397 . S
C240 H226 0.939 . S
C240 C239 1.397 . S
C240 C241 1.378 . S
C241 C240 1.378 . S
C241 C242 1.378 . S
C242 H227 0.940 . S
C242 C241 1.378 . S
C242 C243 1.396 . S
C243 H228 0.940 . S
C243 C238 1.391 . S
C243 C242 1.396 . S
C244 P224 1.803 . S
C244 C245 1.378 . S
C244 C249 1.400 . S
C245 H229 0.939 . S
C245 C244 1.378 . S
C245 C246 1.361 . S
C246 H230 0.942 . S
C246 C245 1.361 . S
C246 C247 1.369 . S
C247 C246 1.369 . S
C247 C248 1.404 . S
C248 H231 0.940 . S
C248 C247 1.404 . S
C248 C249 1.389 . S
C249 H232 0.939 . S
C249 C244 1.400 . S
C249 C248 1.389 . S
C250 P224 1.819 . S
C250 C251 1.391 . S
C250 C255 1.391 . S
C251 H233 0.941 . S
C251 C250 1.391 . S
C251 C252 1.396 . S
C252 H236 0.939 . S
C252 C251 1.396 . S
C252 C253 1.397 . S
C253 C252 1.397 . S
C253 C254 1.385 . S
C254 H237 0.940 . S
C254 C253 1.385 . S
C254 C255 1.388 . S
C255 H234 0.939 . S
C255 C250 1.391 . S
C255 C254 1.388 . S
La256 C258 2.928 . S
La256 O276 2.521 . S
La256 O277 2.628 . S
La256 O278 2.554 1_545 S
La256 O279 2.757 1_545 S
La256 O280 2.470 . S
La256 O285 2.482 1_455 S
La256 O287 2.503 1_445 S
La257 C267 2.941 . S
La257 O279 2.492 1_655 S
La257 O281 2.490 1_665 S
La257 O282 2.526 . S
La257 O283 2.645 . S
La257 O284 2.541 1_565 S
La257 O285 2.748 1_565 S
La257 O286 2.481 . S
C258 La256 2.928 . S
C258 C259 1.503 . S
C258 O276 1.261 . S
C258 O277 1.243 . S
C259 C258 1.503 . S
C259 C260 1.394 . S
C259 C264 1.373 . S
C260 C259 1.394 . S
C260 C261 1.380 . S
C260 H288 0.930 . S
C261 C260 1.380 . S
C261 C262 1.376 . S
C261 H289 0.930 . S
C262 C261 1.376 . S
C262 C263 1.370 . S
C263 C262 1.370 . S
C263 C264 1.396 . S
C263 H290 0.929 . S
C264 C259 1.373 . S
C264 C263 1.396 . S
C264 H291 0.929 . S
C265 O278 1.240 . S
C265 O279 1.289 . S
C266 O280 1.258 . S
C266 O281 1.256 . S
C267 La257 2.941 . S
C267 C268 1.503 . S
C267 O282 1.261 . S
C267 O283 1.243 . S
C268 C267 1.503 . S
C268 C269 1.394 . S
C268 C273 1.373 . S
C269 C268 1.394 . S
C269 C270 1.380 . S
C269 H292 0.930 . S
C270 C269 1.380 . S
C270 C271 1.376 . S
C270 H293 0.930 . S
C271 C270 1.376 . S
C271 C272 1.370 . S
C272 C271 1.370 . S
C272 C273 1.396 . S
C272 H294 0.929 . S
C273 C268 1.373 . S
C273 C272 1.396 . S
C273 H295 0.929 . S
C274 O284 1.240 . S
C274 O285 1.289 . S
C275 O286 1.258 . S
C275 O287 1.256 . S
O276 La256 2.521 . S
O276 C258 1.261 . S
O277 La256 2.628 . S
O277 C258 1.243 . S
O278 La256 2.554 1_565 S
O278 C265 1.240 . S
O279 La256 2.757 1_565 S
O279 La257 2.492 1_455 S
O279 C265 1.289 . S
O280 La256 2.470 . S
O280 C266 1.258 . S
O281 La257 2.490 1_445 S
O281 C266 1.256 . S
O282 La257 2.526 . S
O282 C267 1.261 . S
O283 La257 2.645 . S
O283 C267 1.243 . S
O284 La257 2.541 1_545 S
O284 C274 1.240 . S
O285 La256 2.482 1_655 S
O285 La257 2.748 1_545 S
O285 C274 1.289 . S
O286 La257 2.481 . S
O286 C275 1.258 . S
O287 La256 2.503 1_665 S
O287 C275 1.256 . S
H288 C260 0.930 . S
H289 C261 0.930 . S
H290 C263 0.929 . S
H291 C264 0.929 . S
H292 C269 0.930 . S
H293 C270 0.930 . S
H294 C272 0.929 . S
H295 C273 0.929 . S
La296 C298 2.928 . S
La296 O316 2.521 . S
La296 O317 2.628 . S
La296 O318 2.554 1_545 S
La296 O319 2.757 1_545 S
La296 O320 2.470 . S
La296 O325 2.482 1_554 S
La296 O327 2.503 1_544 S
La297 C307 2.928 1_545 S
La297 O319 2.482 1_546 S
La297 O321 2.503 1_556 S
La297 O322 2.521 . S
La297 O323 2.628 1_545 S
La297 O324 2.554 . S
La297 O325 2.757 . S
La297 O326 2.470 1_545 S
C298 La296 2.928 . S
C298 C299 1.503 . S
C298 O316 1.261 . S
C298 O317 1.243 . S
C299 C298 1.503 . S
C299 C300 1.394 . S
C299 C304 1.373 . S
C300 C299 1.394 . S
C300 C301 1.380 . S
C300 H328 0.930 . S
C301 C300 1.380 . S
C301 C302 1.376 . S
C301 H329 0.930 . S
C302 C301 1.376 . S
C302 C303 1.370 . S
C303 C302 1.370 . S
C303 C304 1.396 . S
C303 H330 0.929 . S
C304 C299 1.373 . S
C304 C303 1.396 . S
C304 H331 0.929 . S
C305 O318 1.240 . S
C305 O319 1.289 . S
C306 O320 1.258 . S
C306 O321 1.256 . S
C307 La297 2.928 1_565 S
C307 C308 1.503 . S
C307 O322 1.261 1_565 S
C307 O323 1.243 . S
C308 C307 1.503 . S
C308 C309 1.394 . S
C308 C313 1.373 . S
C309 C308 1.394 . S
C309 C310 1.380 . S
C309 H332 0.930 . S
C310 C309 1.380 . S
C310 C311 1.376 . S
C310 H333 0.930 . S
C311 C310 1.376 . S
C311 C312 1.370 . S
C312 C311 1.370 . S
C312 C313 1.396 . S
C312 H334 0.929 . S
C313 C308 1.373 . S
C313 C312 1.396 . S
C313 H335 0.929 . S
C314 O324 1.240 . S
C314 O325 1.289 . S
C315 O326 1.258 . S
C315 O327 1.256 . S
O316 La296 2.521 . S
O316 C298 1.261 . S
O317 La296 2.628 . S
O317 C298 1.243 . S
O318 La296 2.554 1_565 S
O318 C305 1.240 . S
O319 La296 2.757 1_565 S
O319 La297 2.482 1_564 S
O319 C305 1.289 . S
O320 La296 2.470 . S
O320 C306 1.258 . S
O321 La297 2.503 1_554 S
O321 C306 1.256 . S
O322 La297 2.521 . S
O322 C307 1.261 1_545 S
O323 La297 2.628 1_565 S
O323 C307 1.243 . S
O324 La297 2.554 . S
O324 C314 1.240 . S
O325 La296 2.482 1_556 S
O325 La297 2.757 . S
O325 C314 1.289 . S
O326 La297 2.470 1_565 S
O326 C315 1.258 . S
O327 La296 2.503 1_566 S
O327 C315 1.256 . S
H328 C300 0.930 . S
H329 C301 0.930 . S
H330 C303 0.929 . S
H331 C304 0.929 . S
H332 C309 0.930 . S
H333 C310 0.930 . S
H334 C312 0.929 . S
H335 C313 0.929 . S
La336 C338 2.928 . S
La336 O356 2.521 . S
La336 O357 2.628 . S
La336 O358 2.554 . S
La336 O359 2.757 . S
La336 O360 2.470 . S
La336 O365 2.482 . S
La336 O367 2.503 . S
La337 C347 2.928 . S
La337 O359 2.482 . S
La337 O361 2.503 . S
La337 O362 2.521 . S
La337 O363 2.628 . S
La337 O364 2.554 . S
La337 O365 2.757 . S
La337 O366 2.470 . S
C338 La336 2.928 . S
C338 C339 1.503 . S
C338 O356 1.261 . S
C338 O357 1.243 . S
C339 C338 1.503 . S
C339 C340 1.394 . S
C339 C344 1.373 . S
C340 C339 1.394 . S
C340 C341 1.380 . S
C340 H368 0.930 . S
C341 C340 1.380 . S
C341 C342 1.376 . S
C341 H369 0.930 . S
C342 C341 1.376 . S
C342 C343 1.370 . S
C343 C342 1.370 . S
C343 C344 1.396 . S
C343 H370 0.929 . S
C344 C339 1.373 . S
C344 C343 1.396 . S
C344 H371 0.929 . S
C345 O358 1.240 . S
C345 O359 1.289 . S
C346 O360 1.258 . S
C346 O361 1.256 . S
C347 La337 2.928 . S
C347 C348 1.503 . S
C347 O362 1.261 . S
C347 O363 1.243 . S
C348 C347 1.503 . S
C348 C349 1.394 . S
C348 C353 1.373 . S
C349 C348 1.394 . S
C349 C350 1.380 . S
C349 H372 0.930 . S
C350 C349 1.380 . S
C350 C351 1.376 . S
C350 H373 0.930 . S
C351 C350 1.376 . S
C351 C352 1.370 . S
C352 C351 1.370 . S
C352 C353 1.396 . S
C352 H374 0.929 . S
C353 C348 1.373 . S
C353 C352 1.396 . S
C353 H375 0.929 . S
C354 O364 1.240 . S
C354 O365 1.289 . S
C355 O366 1.258 . S
C355 O367 1.256 . S
O356 La336 2.521 . S
O356 C338 1.261 . S
O357 La336 2.628 . S
O357 C338 1.243 . S
O358 La336 2.554 . S
O358 C345 1.240 . S
O359 La336 2.757 . S
O359 La337 2.482 . S
O359 C345 1.289 . S
O360 La336 2.470 . S
O360 C346 1.258 . S
O361 La337 2.503 . S
O361 C346 1.256 . S
O362 La337 2.521 . S
O362 C347 1.261 . S
O363 La337 2.628 . S
O363 C347 1.243 . S
O364 La337 2.554 . S
O364 C354 1.240 . S
O365 La336 2.482 . S
O365 La337 2.757 . S
O365 C354 1.289 . S
O366 La337 2.470 . S
O366 C355 1.258 . S
O367 La336 2.503 . S
O367 C355 1.256 . S
H368 C340 0.930 . S
H369 C341 0.930 . S
H370 C343 0.929 . S
H371 C344 0.929 . S
H372 C349 0.930 . S
H373 C350 0.930 . S
H374 C352 0.929 . S
H375 C353 0.929 . S
La376 C378 2.928 . S
La376 O396 2.521 . S
La376 O397 2.628 . S
La376 O398 2.554 1_455 S
La376 O399 2.757 1_455 S
La376 O400 2.470 . S
La376 O405 2.482 1_554 S
La376 O407 2.503 1_454 S
La377 C387 2.928 . S
La377 O399 2.482 1_556 S
La377 O401 2.503 1_656 S
La377 O402 2.521 . S
La377 O403 2.628 . S
La377 O404 2.554 1_655 S
La377 O405 2.757 1_655 S
La377 O406 2.470 . S
C378 La376 2.928 . S
C378 C379 1.503 . S
C378 O396 1.261 . S
C378 O397 1.243 . S
C379 C378 1.503 . S
C379 C380 1.394 . S
C379 C384 1.373 . S
C380 C379 1.394 . S
C380 C381 1.380 . S
C380 H408 0.930 . S
C381 C380 1.380 . S
C381 C382 1.376 . S
C381 H409 0.930 . S
C382 C381 1.376 . S
C382 C383 1.370 . S
C383 C382 1.370 . S
C383 C384 1.396 . S
C383 H410 0.929 . S
C384 C379 1.373 . S
C384 C383 1.396 . S
C384 H411 0.929 . S
C385 O398 1.240 . S
C385 O399 1.289 . S
C386 O400 1.258 . S
C386 O401 1.256 . S
C387 La377 2.928 . S
C387 C388 1.503 . S
C387 O402 1.261 . S
C387 O403 1.243 . S
C388 C387 1.503 . S
C388 C389 1.394 . S
C388 C393 1.373 . S
C389 C388 1.394 . S
C389 C390 1.380 . S
C389 H412 0.930 . S
C390 C389 1.380 . S
C390 C391 1.376 . S
C390 H413 0.930 . S
C391 C390 1.376 . S
C391 C392 1.370 . S
C392 C391 1.370 . S
C392 C393 1.396 . S
C392 H414 0.929 . S
C393 C388 1.373 . S
C393 C392 1.396 . S
C393 H415 0.929 . S
C394 O404 1.240 . S
C394 O405 1.289 . S
C395 O406 1.258 . S
C395 O407 1.256 . S
O396 La376 2.521 . S
O396 C378 1.261 . S
O397 La376 2.628 . S
O397 C378 1.243 . S
O398 La376 2.554 1_655 S
O398 C385 1.240 . S
O399 La376 2.757 1_655 S
O399 La377 2.482 1_554 S
O399 C385 1.289 . S
O400 La376 2.470 . S
O400 C386 1.258 . S
O401 La377 2.503 1_454 S
O401 C386 1.256 . S
O402 La377 2.521 . S
O402 C387 1.261 . S
O403 La377 2.628 . S
O403 C387 1.243 . S
O404 La377 2.554 1_455 S
O404 C394 1.240 . S
O405 La376 2.482 1_556 S
O405 La377 2.757 1_455 S
O405 C394 1.289 . S
O406 La377 2.470 . S
O406 C395 1.258 . S
O407 La376 2.503 1_656 S
O407 C395 1.256 . S
H408 C380 0.930 . S
H409 C381 0.930 . S
H410 C383 0.929 . S
H411 C384 0.929 . S
H412 C389 0.930 . S
H413 C390 0.930 . S
H414 C392 0.929 . S
H415 C393 0.929 . S
C29 C262 1.738 . S
C49 C311 1.609 . S
C346 C93 3.699 . S
C119 C385 3.512 . S
C306 C17 4.202 . S
C265 C61 1.431 . S
C395 C81 2.505 . S
C354 C125 2.313 . S
C23 C382 2.721 . S
C314 C87 3.273 . S
C113 C275 3.312 . S
C55 C351 2.204 . S
C271 C157 1.557 . S
C189 C302 1.640 . S
C221 C355 3.651 . S
C253 C394 3.661 . S
C145 C315 3.781 . S
C274 C183 1.791 . S
C386 C209 2.479 . S
C345 C247 2.298 . S
C151 C391 2.465 . S
C305 C215 3.311 . S
C266 C241 3.307 . S
C177 C342 2.588 . S
