# Generated by pormake.
# Topology rtl, (3,6)-cn, num edge types: 1
# Building blocks:
#     Node 0, Type 0, BuildingBlock: VETTIZ_charged_linker_0, # of connection points: 3
#     Node 1, Type 0, BuildingBlock: VETTIZ_charged_linker_0, # of connection points: 3
#     Node 2, Type 0, BuildingBlock: VETTIZ_charged_linker_0, # of connection points: 3
#     Node 3, Type 0, BuildingBlock: VETTIZ_charged_linker_0, # of connection points: 3
#     Node 4, Type 1, BuildingBlock: LEVNOQ01_clean_sbu_1, # of connection points: 6
#     Node 5, Type 1, BuildingBlock: LEVNOQ01_clean_sbu_1, # of connection points: 6
#     Edge 6, Type (0, 1), None
#     Edge 7, Type (0, 1), None
#     Edge 8, Type (0, 1), None
#     Edge 9, Type (0, 1), None
#     Edge 10, Type (0, 1), None
#     Edge 11, Type (0, 1), None
#     Edge 12, Type (0, 1), None
#     Edge 13, Type (0, 1), None
#     Edge 14, Type (0, 1), None
#     Edge 15, Type (0, 1), None
#     Edge 16, Type (0, 1), None
#     Edge 17, Type (0, 1), None
# Relax obj value: 0.028
# Max RMSD: 0.060
# Mean RMSD: 0.047
data_MOF--net-rtl--node1-LEVNOQ01_clean_sbu_1--node2-VETTIZ_charged_linker_0--edge1-none
_symmetry_space_group_name_H-M    P1
_symmetry_Int_Tables_number       1
_symmetry_cell_setting            triclinic
loop_
_symmetry_equiv_pos_as_xyz
'x, y, z'
_cell_length_a     20.139203
_cell_length_b     22.888843
_cell_length_c     16.316913
_cell_angle_alpha  90.117486
_cell_angle_beta   97.515133
_cell_angle_gamma 89.261442
loop_
_atom_site_label
_atom_site_type_symbol
_atom_site_fract_x
_atom_site_fract_y
_atom_site_fract_z
_atom_type_partial_charge
C0 C 0.14404 0.96696 0.8095 0.0
C1 C 0.09912 0.0145 0.80536 0.0
C2 C 0.08748 0.0426 0.87934 0.0
C3 C 0.16225 0.97362 0.95933 0.0
C4 C 0.17462 0.94741 0.88646 0.0
C5 C 0.22175 0.89623 0.90045 0.0
H6 H 0.41805 0.71448 0.15448 0.0
C7 C 0.20041 0.94046 0.02842 0.0
C8 C 0.23526 0.89525 0.99407 0.0
H9 H 0.38309 0.72034 0.88711 0.0
H10 H 0.30661 0.79954 0.89126 0.0
H11 H 0.42299 0.85701 0.18372 0.0
H12 H 0.2545 0.74088 0.17706 0.0
H13 H 0.255 0.78957 0.26074 0.0
H14 H 0.32331 0.73816 0.25903 0.0
H15 H 0.41873 0.8019 0.26111 0.0
H16 H 0.37794 0.87192 0.26737 0.0
C17 C 0.28563 0.91073 0.86069 0.0
C18 C 0.18377 0.84102 0.8653 0.0
C19 C 0.16741 0.98936 0.32306 0.0
C20 C 0.1855 0.96012 0.39847 0.0
C21 C 0.23438 0.91502 0.4021 0.0
C22 C 0.26036 0.89619 0.33045 0.0
C23 C 0.23659 0.92213 0.25406 0.0
C24 C 0.1923 0.96908 0.25183 0.0
C25 C 0.16851 0.98899 0.16519 0.0
C26 C 0.20477 0.94585 0.11561 0.0
C27 C 0.24491 0.90647 0.16765 0.0
C28 C 0.19266 0.05226 0.15573 0.0
C29 C 0.09134 0.98192 0.1488 0.0
C30 C 0.39305 0.7329 0.09739 0.0
C31 C 0.40727 0.71159 0.02015 0.0
C32 C 0.37389 0.7365 0.9472 0.0
C33 C 0.32921 0.78286 0.94964 0.0
C34 C 0.31697 0.8055 0.02599 0.0
C35 C 0.34766 0.78061 0.09864 0.0
C36 C 0.32657 0.81196 0.17324 0.0
C37 C 0.28054 0.86039 0.13239 0.0
C38 C 0.27532 0.8554 0.04612 0.0
C39 C 0.38969 0.8369 0.2248 0.0
C40 C 0.28811 0.76809 0.2208 0.0
H41 H 0.10728 0.04517 0.01036 0.0
H42 H 0.1544 0.94436 0.75406 0.0
H43 H 0.12923 0.84486 0.8699 0.0
H44 H 0.19986 0.8008 0.90015 0.0
H45 H 0.18928 0.83427 0.7991 0.0
H46 H 0.29481 0.95859 0.86115 0.0
H47 H 0.28106 0.89594 0.79535 0.0
H48 H 0.33185 0.89178 0.89505 0.0
H49 H 0.12937 0.02354 0.3175 0.0
H50 H 0.24932 0.89173 0.45942 0.0
H51 H 0.29559 0.86043 0.33663 0.0
H52 H 0.24347 0.0583 0.19044 0.0
H53 H 0.15833 0.08436 0.18013 0.0
H54 H 0.19784 0.06357 0.09113 0.0
H55 H 0.07555 0.94264 0.18096 0.0
H56 H 0.07235 0.97476 0.08307 0.0
H57 H 0.06497 0.02044 0.17146 0.0
H58 H 0.05342 0.07968 0.87789 0.0
C59 C 0.11885 0.02247 0.95626 0.0
C60 C 0.71821 0.59058 0.8657 0.0
C61 C 0.67597 0.54355 0.87799 0.0
C62 C 0.66332 0.50114 0.81532 0.0
C63 C 0.71847 0.56082 0.72331 0.0
C64 C 0.73915 0.59826 0.78781 0.0
C65 C 0.77902 0.64844 0.76059 0.0
H66 H 0.88839 0.79082 0.43919 0.0
C67 C 0.73702 0.58616 0.64688 0.0
C68 C 0.77425 0.63693 0.66824 0.0
H69 H 0.93506 0.83495 0.69734 0.0
H70 H 0.86567 0.75435 0.73384 0.0
H71 H 0.90849 0.65722 0.45709 0.0
H72 H 0.73938 0.77302 0.44108 0.0
H73 H 0.70562 0.70856 0.39648 0.0
H74 H 0.77032 0.74537 0.35044 0.0
H75 H 0.87154 0.69174 0.36315 0.0
H76 H 0.84432 0.62123 0.39403 0.0
C77 C 0.85171 0.64223 0.80388 0.0
C78 C 0.74419 0.70662 0.77954 0.0
C79 C 0.62254 0.51534 0.36797 0.0
C80 C 0.62498 0.53562 0.28697 0.0
C81 C 0.67179 0.57851 0.27338 0.0
C82 C 0.7133 0.60283 0.33927 0.0
C83 C 0.70792 0.58462 0.42014 0.0
C84 C 0.66462 0.54048 0.43366 0.0
C85 C 0.66748 0.52638 0.52435 0.0
C86 C 0.71696 0.57193 0.56256 0.0
C87 C 0.73949 0.60586 0.50091 0.0
C88 C 0.69506 0.46314 0.53916 0.0
C89 C 0.59647 0.53612 0.54889 0.0
C90 C 0.88375 0.78336 0.50382 0.0
C91 C 0.91745 0.81841 0.56554 0.0
C92 C 0.90922 0.80818 0.64876 0.0
C93 C 0.86973 0.76111 0.66959 0.0
C94 C 0.83823 0.72485 0.60624 0.0
C95 C 0.84517 0.73741 0.52507 0.0
C96 C 0.80851 0.69645 0.46442 0.0
C97 C 0.77982 0.65512 0.52204 0.0
C98 C 0.79693 0.67135 0.60515 0.0
C99 C 0.86041 0.6651 0.4164 0.0
C100 C 0.75333 0.73228 0.40973 0.0
H101 H 0.67034 0.4776 0.69112 0.0
H102 H 0.73011 0.62322 0.91331 0.0
H103 H 0.68905 0.70366 0.76215 0.0
H104 H 0.76011 0.74379 0.74426 0.0
H105 H 0.75392 0.71729 0.84644 0.0
H106 H 0.86856 0.59572 0.80512 0.0
H107 H 0.85572 0.65792 0.86881 0.0
H108 H 0.88793 0.66585 0.77146 0.0
H109 H 0.58789 0.48161 0.38011 0.0
H110 H 0.67568 0.59426 0.21163 0.0
H111 H 0.74696 0.63585 0.32442 0.0
H112 H 0.72169 0.44737 0.48757 0.0
H113 H 0.65415 0.43197 0.54522 0.0
H114 H 0.73284 0.45996 0.59491 0.0
H115 H 0.57618 0.5797 0.52749 0.0
H116 H 0.59503 0.53481 0.61605 0.0
H117 H 0.56164 0.5024 0.52018 0.0
H118 H 0.6322 0.46388 0.8235 0.0
C119 C 0.68451 0.50957 0.73799 0.0
C120 C 0.86064 0.06174 0.2665 0.0
C121 C 0.90542 0.01409 0.27069 0.0
C122 C 0.91697 0.98591 0.19673 0.0
C123 C 0.84235 0.05497 0.11669 0.0
C124 C 0.83008 0.08128 0.18952 0.0
C125 C 0.78303 0.13251 0.17548 0.0
H126 H 0.58611 0.31365 0.92115 0.0
C127 C 0.80418 0.08808 0.04756 0.0
C128 C 0.76941 0.13337 0.08185 0.0
H129 H 0.62163 0.30846 0.18851 0.0
H130 H 0.69832 0.22938 0.1845 0.0
H131 H 0.7496 0.28759 0.89833 0.0
H132 H 0.58151 0.17111 0.89242 0.0
H133 H 0.62644 0.15619 0.80867 0.0
H134 H 0.58551 0.22615 0.81486 0.0
H135 H 0.68083 0.28989 0.8163 0.0
H136 H 0.74937 0.23865 0.815 0.0
C137 C 0.82115 0.18772 0.21038 0.0
C138 C 0.7192 0.11819 0.21543 0.0
C139 C 0.83699 0.03888 0.75296 0.0
C140 C 0.81888 0.06808 0.67753 0.0
C141 C 0.76995 0.11314 0.67385 0.0
C142 C 0.74398 0.132 0.74548 0.0
C143 C 0.7678 0.10613 0.8219 0.0
C144 C 0.81211 0.0592 0.82418 0.0
C145 C 0.83594 0.03936 0.91085 0.0
C146 C 0.79973 0.08256 0.96038 0.0
C147 C 0.75954 0.12188 0.90829 0.0
C148 C 0.91312 0.04642 0.92716 0.0
C149 C 0.81178 0.9761 0.92045 0.0
C150 C 0.61126 0.29541 0.97826 0.0
C151 C 0.59714 0.31685 0.05546 0.0
C152 C 0.63075 0.29218 0.12846 0.0
C153 C 0.67555 0.24589 0.1261 0.0
C154 C 0.68765 0.22308 0.04979 0.0
C155 C 0.65677 0.24777 0.97709 0.0
C156 C 0.67781 0.21633 0.90255 0.0
C157 C 0.72395 0.16801 0.94349 0.0
C158 C 0.72931 0.17316 0.02975 0.0
C159 C 0.71613 0.26016 0.85475 0.0
C160 C 0.61468 0.19123 0.85119 0.0
H161 H 0.89711 0.98325 0.06572 0.0
H162 H 0.85037 0.08441 0.32192 0.0
H163 H 0.70995 0.07035 0.21518 0.0
H164 H 0.67297 0.13714 0.18107 0.0
H165 H 0.72386 0.13312 0.28071 0.0
H166 H 0.87565 0.18382 0.20553 0.0
H167 H 0.81583 0.19453 0.27663 0.0
H168 H 0.805 0.22792 0.17551 0.0
H169 H 0.87506 0.00472 0.75856 0.0
H170 H 0.75498 0.13638 0.6165 0.0
H171 H 0.70871 0.16774 0.73926 0.0
H172 H 0.92887 0.08574 0.89504 0.0
H173 H 0.93946 0.00793 0.9044 0.0
H174 H 0.93216 0.05352 0.99288 0.0
H175 H 0.76103 0.97 0.88564 0.0
H176 H 0.80648 0.96491 0.98506 0.0
H177 H 0.84618 0.94396 0.89626 0.0
H178 H 0.95092 0.94875 0.19821 0.0
C179 C 0.88563 0.00602 0.1198 0.0
C180 C 0.28606 0.43765 0.20999 0.0
C181 C 0.32823 0.4847 0.19761 0.0
C182 C 0.34081 0.52719 0.26018 0.0
C183 C 0.28567 0.46758 0.35228 0.0
C184 C 0.26508 0.43005 0.28787 0.0
C185 C 0.22523 0.37989 0.31518 0.0
H186 H 0.11474 0.23844 0.63661 0.0
C187 C 0.26699 0.44238 0.42873 0.0
C188 C 0.22978 0.3916 0.40746 0.0
H189 H 0.06959 0.19318 0.37867 0.0
H190 H 0.13888 0.27383 0.34211 0.0
H191 H 0.26305 0.25578 0.63633 0.0
H192 H 0.09482 0.37256 0.61736 0.0
H193 H 0.15882 0.40811 0.68137 0.0
H194 H 0.13069 0.33776 0.71157 0.0
H195 H 0.23257 0.28492 0.72637 0.0
H196 H 0.29753 0.32049 0.67924 0.0
C197 C 0.26023 0.3217 0.29662 0.0
C198 C 0.1526 0.38591 0.27163 0.0
C199 C 0.38156 0.51317 0.70759 0.0
C200 C 0.37895 0.49299 0.7886 0.0
C201 C 0.33174 0.45046 0.80223 0.0
C202 C 0.29005 0.42633 0.73635 0.0
C203 C 0.29566 0.44434 0.65546 0.0
C204 C 0.33931 0.4882 0.6419 0.0
C205 C 0.33657 0.5022 0.5512 0.0
C206 C 0.2869 0.45677 0.51302 0.0
C207 C 0.26409 0.42307 0.57472 0.0
C208 C 0.40755 0.49217 0.5267 0.0
C209 C 0.3093 0.56552 0.53623 0.0
C210 C 0.11965 0.24568 0.57201 0.0
C211 C 0.08642 0.21028 0.51036 0.0
C212 C 0.09505 0.22022 0.4272 0.0
C213 C 0.13449 0.26732 0.40633 0.0
C214 C 0.16555 0.30388 0.46958 0.0
C215 C 0.15822 0.29163 0.55072 0.0
C216 C 0.19467 0.33275 0.61131 0.0
C217 C 0.22371 0.37383 0.55366 0.0
C218 C 0.20687 0.35737 0.47059 0.0
C219 C 0.24956 0.29706 0.6667 0.0
C220 C 0.14253 0.36437 0.65864 0.0
H221 H 0.33369 0.55086 0.38431 0.0
H222 H 0.27422 0.40493 0.16246 0.0
H223 H 0.1356 0.43239 0.27031 0.0
H224 H 0.11637 0.3622 0.3039 0.0
H225 H 0.1488 0.37022 0.20672 0.0
H226 H 0.31536 0.32481 0.31399 0.0
H227 H 0.25053 0.31081 0.22979 0.0
H228 H 0.24444 0.28462 0.33217 0.0
H229 H 0.41648 0.54666 0.69543 0.0
H230 H 0.32768 0.43484 0.864 0.0
H231 H 0.25605 0.3936 0.75122 0.0
H232 H 0.42756 0.44847 0.54797 0.0
H233 H 0.44257 0.5257 0.55556 0.0
H234 H 0.40903 0.49359 0.45955 0.0
H235 H 0.28304 0.58161 0.58797 0.0
H236 H 0.27129 0.56869 0.4807 0.0
H237 H 0.35032 0.59647 0.52967 0.0
H238 H 0.37189 0.56446 0.25193 0.0
C239 C 0.31959 0.51883 0.33751 0.0
O240 O 0.87005 0.10613 0.5679 0.0
Mg241 Mg 0.97551 0.1029 0.59974 0.0
O242 O 0.90889 0.02316 0.61709 0.0
Mg243 Mg 0.00222 0.01421 0.53803 0.0
O244 O 0.03892 0.11335 0.51365 0.0
O245 O 0.00406 0.1851 0.59309 0.0
O246 O 0.0956 0.00513 0.45901 0.0
O247 O 0.93127 0.02262 0.41719 0.0
Mg248 Mg 0.02883 0.92544 0.47625 0.0
O249 O 0.96552 0.91513 0.56248 0.0
O250 O 0.13427 0.92204 0.50804 0.0
O251 O 0.98611 0.9559 0.35554 0.0
O252 O -0.00022 0.84335 0.48263 0.0
C253 C 0.06262 0.03247 0.72461 0.0
C254 C 0.86246 0.06197 0.61127 0.0
C255 C 0.03921 0.16794 0.53691 0.0
C256 C 0.14193 0.96622 0.46474 0.0
C257 C 0.94186 0.99606 0.35144 0.0
C258 C 0.96482 0.86059 0.53896 0.0
O259 O 0.01834 0.07261 0.7205 0.0
O260 O 0.07316 0.00586 0.65889 0.0
O261 O 0.53526 0.47569 0.22624 0.0
Mg262 Mg 0.48351 0.43666 0.11526 0.0
O263 O 0.58151 0.53411 0.1446 0.0
Mg264 Mg 0.50208 0.51415 0.03777 0.0
O265 O 0.54425 0.41269 0.03076 0.0
O266 O 0.5096 0.35249 0.12454 0.0
O267 O 0.42261 0.49423 0.93093 0.0
O268 O 0.58645 0.50941 0.94674 0.0
Mg269 Mg 0.5207 0.59157 0.96043 0.0
O270 O 0.45997 0.61566 0.04487 0.0
O271 O 0.4689 0.55267 0.84937 0.0
O272 O 0.62706 0.59385 0.98182 0.0
O273 O 0.49469 0.67575 0.95102 0.0
C274 C 0.37112 0.48206 0.13069 0.0
C275 C 0.57871 0.51381 0.21639 0.0
C276 C 0.54548 0.36158 0.06625 0.0
C277 C 0.42539 0.5146 0.85917 0.0
C278 C 0.63307 0.54618 0.9449 0.0
C279 C 0.45878 0.66674 0.00929 0.0
O280 O 0.37716 0.43437 0.09385 0.0
O281 O 0.41771 0.51885 0.12877 0.0
loop_
_geom_bond_atom_site_label_1
_geom_bond_atom_site_label_2
_geom_bond_distance
_geom_bond_site_symmetry_2
_ccdc_geom_bond_type
C0 C1 1.391 . S
C0 C4 1.391 . S
C0 H42 0.948 . S
C1 C0 1.391 . S
C1 C2 1.391 1_565 S
C2 C1 1.391 1_545 S
C2 H58 0.947 . S
C2 C59 1.392 1_545 S
C3 C4 1.391 . S
C3 C7 1.397 1_556 S
C3 C59 1.419 . S
C4 C0 1.391 . S
C4 C3 1.391 . S
C4 C5 1.399 . S
C5 C4 1.399 . S
C5 C8 1.396 . S
C5 C17 1.453 . S
C5 C18 1.684 . S
H6 C30 0.948 . S
C7 C3 1.397 1_554 S
C7 C8 1.394 1_554 S
C7 C26 1.723 . S
C8 C5 1.396 . S
C8 C7 1.394 1_556 S
C8 C38 1.723 1_556 S
H9 C32 0.947 1_556 S
H10 C33 0.948 . S
H11 C39 0.982 . S
H12 C40 0.979 . S
H13 C40 0.980 . S
H14 C40 0.983 . S
H15 C39 0.979 . S
H16 C39 0.977 . S
C17 C5 1.453 . S
C17 H46 0.982 . S
C17 H47 0.979 . S
C17 H48 0.977 . S
C18 C5 1.684 . S
C18 H43 0.979 . S
C18 H44 0.980 . S
C18 H45 0.983 . S
C19 C20 1.391 . S
C19 C24 1.391 . S
C19 H49 0.948 1_565 S
C20 C19 1.391 . S
C20 C21 1.391 . S
C21 C20 1.391 . S
C21 C22 1.392 . S
C21 H50 0.947 . S
C22 C21 1.392 . S
C22 C23 1.419 . S
C22 H51 0.948 . S
C23 C22 1.419 . S
C23 C24 1.391 . S
C23 C27 1.397 . S
C24 C19 1.391 . S
C24 C23 1.391 . S
C24 C25 1.399 . S
C25 C24 1.399 . S
C25 C26 1.396 . S
C25 C28 1.453 1_565 S
C25 C29 1.684 . S
C26 C7 1.723 . S
C26 C25 1.396 . S
C26 C27 1.394 . S
C27 C23 1.397 . S
C27 C26 1.394 . S
C27 C37 1.723 . S
C28 C25 1.453 1_545 S
C28 H52 0.982 . S
C28 H53 0.979 . S
C28 H54 0.977 . S
C29 C25 1.684 . S
C29 H55 0.979 . S
C29 H56 0.979 1_565 S
C29 H57 0.983 1_565 S
C30 H6 0.948 . S
C30 C31 1.391 . S
C30 C35 1.391 . S
C31 C30 1.391 . S
C31 C32 1.391 . S
C32 H9 0.947 1_554 S
C32 C31 1.391 . S
C32 C33 1.392 1_554 S
C33 H10 0.948 . S
C33 C32 1.392 1_556 S
C33 C34 1.419 1_556 S
C34 C33 1.419 1_554 S
C34 C35 1.391 . S
C34 C38 1.397 . S
C35 C30 1.391 . S
C35 C34 1.391 . S
C35 C36 1.399 . S
C36 C35 1.399 . S
C36 C37 1.396 . S
C36 C39 1.453 . S
C36 C40 1.684 . S
C37 C27 1.723 . S
C37 C36 1.396 . S
C37 C38 1.394 . S
C38 C8 1.723 1_554 S
C38 C34 1.397 . S
C38 C37 1.394 . S
C39 H11 0.982 . S
C39 H15 0.979 . S
C39 H16 0.977 . S
C39 C36 1.453 . S
C40 H12 0.979 . S
C40 H13 0.980 . S
C40 H14 0.983 . S
C40 C36 1.684 . S
H41 C59 0.948 1_545 S
H42 C0 0.948 . S
H43 C18 0.979 . S
H44 C18 0.980 . S
H45 C18 0.983 . S
H46 C17 0.982 . S
H47 C17 0.979 . S
H48 C17 0.977 . S
H49 C19 0.948 1_545 S
H50 C21 0.947 . S
H51 C22 0.948 . S
H52 C28 0.982 . S
H53 C28 0.979 . S
H54 C28 0.977 . S
H55 C29 0.979 . S
H56 C29 0.979 1_545 S
H57 C29 0.983 1_545 S
H58 C2 0.947 . S
C59 C2 1.392 1_565 S
C59 C3 1.419 . S
C59 H41 0.948 1_565 S
C60 C61 1.391 . S
C60 C64 1.391 . S
C60 H102 0.948 . S
C61 C60 1.391 . S
C61 C62 1.391 . S
C62 C61 1.391 . S
C62 H118 0.947 . S
C62 C119 1.392 . S
C63 C64 1.391 . S
C63 C67 1.397 . S
C63 C119 1.419 . S
C64 C60 1.391 . S
C64 C63 1.391 . S
C64 C65 1.399 . S
C65 C64 1.399 . S
C65 C68 1.396 . S
C65 C77 1.453 . S
C65 C78 1.684 . S
H66 C90 0.948 . S
C67 C63 1.397 . S
C67 C68 1.394 . S
C67 C86 1.723 . S
C68 C65 1.396 . S
C68 C67 1.394 . S
C68 C98 1.723 . S
H69 C92 0.947 . S
H70 C93 0.948 . S
H71 C99 0.982 . S
H72 C100 0.979 . S
H73 C100 0.980 . S
H74 C100 0.983 . S
H75 C99 0.979 . S
H76 C99 0.977 . S
C77 C65 1.453 . S
C77 H106 0.982 . S
C77 H107 0.979 . S
C77 H108 0.977 . S
C78 C65 1.684 . S
C78 H103 0.979 . S
C78 H104 0.980 . S
C78 H105 0.983 . S
C79 C80 1.391 . S
C79 C84 1.391 . S
C79 H109 0.948 . S
C80 C79 1.391 . S
C80 C81 1.391 . S
C81 C80 1.391 . S
C81 C82 1.392 . S
C81 H110 0.947 . S
C82 C81 1.392 . S
C82 C83 1.419 . S
C82 H111 0.948 . S
C83 C82 1.419 . S
C83 C84 1.391 . S
C83 C87 1.397 . S
C84 C79 1.391 . S
C84 C83 1.391 . S
C84 C85 1.399 . S
C85 C84 1.399 . S
C85 C86 1.396 . S
C85 C88 1.453 . S
C85 C89 1.684 . S
C86 C67 1.723 . S
C86 C85 1.396 . S
C86 C87 1.394 . S
C87 C83 1.397 . S
C87 C86 1.394 . S
C87 C97 1.723 . S
C88 C85 1.453 . S
C88 H112 0.982 . S
C88 H113 0.979 . S
C88 H114 0.977 . S
C89 C85 1.684 . S
C89 H115 0.979 . S
C89 H116 0.980 . S
C89 H117 0.983 . S
C90 H66 0.948 . S
C90 C91 1.391 . S
C90 C95 1.391 . S
C91 C90 1.391 . S
C91 C92 1.391 . S
C92 H69 0.947 . S
C92 C91 1.391 . S
C92 C93 1.392 . S
C93 H70 0.948 . S
C93 C92 1.392 . S
C93 C94 1.419 . S
C94 C93 1.419 . S
C94 C95 1.391 . S
C94 C98 1.397 . S
C95 C90 1.391 . S
C95 C94 1.391 . S
C95 C96 1.399 . S
C96 C95 1.399 . S
C96 C97 1.396 . S
C96 C99 1.453 . S
C96 C100 1.684 . S
C97 C87 1.723 . S
C97 C96 1.396 . S
C97 C98 1.394 . S
C98 C68 1.723 . S
C98 C94 1.397 . S
C98 C97 1.394 . S
C99 H71 0.982 . S
C99 H75 0.979 . S
C99 H76 0.977 . S
C99 C96 1.453 . S
C100 H72 0.979 . S
C100 H73 0.980 . S
C100 H74 0.983 . S
C100 C96 1.684 . S
H101 C119 0.948 . S
H102 C60 0.948 . S
H103 C78 0.979 . S
H104 C78 0.980 . S
H105 C78 0.983 . S
H106 C77 0.982 . S
H107 C77 0.979 . S
H108 C77 0.977 . S
H109 C79 0.948 . S
H110 C81 0.947 . S
H111 C82 0.948 . S
H112 C88 0.982 . S
H113 C88 0.979 . S
H114 C88 0.977 . S
H115 C89 0.979 . S
H116 C89 0.980 . S
H117 C89 0.983 . S
H118 C62 0.947 . S
C119 C62 1.392 . S
C119 C63 1.419 . S
C119 H101 0.948 . S
C120 C121 1.391 . S
C120 C124 1.391 . S
C120 H162 0.948 . S
C121 C120 1.391 . S
C121 C122 1.391 . S
C122 C121 1.391 . S
C122 H178 0.947 1_545 S
C122 C179 1.392 . S
C123 C124 1.391 . S
C123 C127 1.397 . S
C123 C179 1.419 . S
C124 C120 1.391 . S
C124 C123 1.391 . S
C124 C125 1.399 . S
C125 C124 1.399 . S
C125 C128 1.396 . S
C125 C137 1.453 . S
C125 C138 1.684 . S
H126 C150 0.948 . S
C127 C123 1.397 . S
C127 C128 1.394 . S
C127 C146 1.723 1_554 S
C128 C125 1.396 . S
C128 C127 1.394 . S
C128 C158 1.723 . S
H129 C152 0.947 . S
H130 C153 0.948 . S
H131 C159 0.982 . S
H132 C160 0.979 . S
H133 C160 0.980 . S
H134 C160 0.983 . S
H135 C159 0.979 . S
H136 C159 0.977 . S
C137 C125 1.453 . S
C137 H166 0.982 . S
C137 H167 0.979 . S
C137 H168 0.977 . S
C138 C125 1.684 . S
C138 H163 0.979 . S
C138 H164 0.980 . S
C138 H165 0.983 . S
C139 C140 1.391 . S
C139 C144 1.391 . S
C139 H169 0.948 . S
C140 C139 1.391 . S
C140 C141 1.391 . S
C141 C140 1.391 . S
C141 C142 1.392 . S
C141 H170 0.947 . S
C142 C141 1.392 . S
C142 C143 1.419 . S
C142 H171 0.948 . S
C143 C142 1.419 . S
C143 C144 1.391 . S
C143 C147 1.397 . S
C144 C139 1.391 . S
C144 C143 1.391 . S
C144 C145 1.399 . S
C145 C144 1.399 . S
C145 C146 1.396 . S
C145 C148 1.453 . S
C145 C149 1.684 1_545 S
C146 C127 1.723 1_556 S
C146 C145 1.396 . S
C146 C147 1.394 . S
C147 C143 1.397 . S
C147 C146 1.394 . S
C147 C157 1.723 . S
C148 C145 1.453 . S
C148 H172 0.982 . S
C148 H173 0.979 . S
C148 H174 0.977 1_556 S
C149 C145 1.684 1_565 S
C149 H175 0.979 . S
C149 H176 0.980 1_556 S
C149 H177 0.983 . S
C150 H126 0.948 . S
C150 C151 1.388 1_556 S
C150 C155 1.391 . S
C151 C150 1.388 1_554 S
C151 C152 1.395 . S
C152 H129 0.947 . S
C152 C151 1.395 . S
C152 C153 1.392 . S
C153 H130 0.948 . S
C153 C152 1.392 . S
C153 C154 1.419 . S
C154 C153 1.419 . S
C154 C155 1.391 1_554 S
C154 C158 1.397 . S
C155 C150 1.391 . S
C155 C154 1.391 1_556 S
C155 C156 1.399 . S
C156 C155 1.399 . S
C156 C157 1.396 . S
C156 C159 1.453 . S
C156 C160 1.684 . S
C157 C147 1.723 . S
C157 C156 1.396 . S
C157 C158 1.394 1_556 S
C158 C128 1.723 . S
C158 C154 1.397 . S
C158 C157 1.394 1_554 S
C159 H131 0.982 . S
C159 H135 0.979 . S
C159 H136 0.977 . S
C159 C156 1.453 . S
C160 H132 0.979 . S
C160 H133 0.980 . S
C160 H134 0.983 . S
C160 C156 1.684 . S
H161 C179 0.948 . S
H162 C120 0.948 . S
H163 C138 0.979 . S
H164 C138 0.980 . S
H165 C138 0.983 . S
H166 C137 0.982 . S
H167 C137 0.979 . S
H168 C137 0.977 . S
H169 C139 0.948 . S
H170 C141 0.947 . S
H171 C142 0.948 . S
H172 C148 0.982 . S
H173 C148 0.979 . S
H174 C148 0.977 1_554 S
H175 C149 0.979 . S
H176 C149 0.980 1_554 S
H177 C149 0.983 . S
H178 C122 0.947 1_565 S
C179 C122 1.392 . S
C179 C123 1.419 . S
C179 H161 0.948 . S
C180 C181 1.391 . S
C180 C184 1.391 . S
C180 H222 0.948 . S
C181 C180 1.391 . S
C181 C182 1.391 . S
C182 C181 1.391 . S
C182 H238 0.947 . S
C182 C239 1.392 . S
C183 C184 1.391 . S
C183 C187 1.397 . S
C183 C239 1.419 . S
C184 C180 1.391 . S
C184 C183 1.391 . S
C184 C185 1.399 . S
C185 C184 1.399 . S
C185 C188 1.396 . S
C185 C197 1.453 . S
C185 C198 1.684 . S
H186 C210 0.948 . S
C187 C183 1.397 . S
C187 C188 1.394 . S
C187 C206 1.723 . S
C188 C185 1.396 . S
C188 C187 1.394 . S
C188 C218 1.723 . S
H189 C212 0.947 . S
H190 C213 0.948 . S
H191 C219 0.982 . S
H192 C220 0.979 . S
H193 C220 0.980 . S
H194 C220 0.983 . S
H195 C219 0.979 . S
H196 C219 0.977 . S
C197 C185 1.453 . S
C197 H226 0.982 . S
C197 H227 0.979 . S
C197 H228 0.977 . S
C198 C185 1.684 . S
C198 H223 0.979 . S
C198 H224 0.980 . S
C198 H225 0.983 . S
C199 C200 1.391 . S
C199 C204 1.391 . S
C199 H229 0.948 . S
C200 C199 1.391 . S
C200 C201 1.391 . S
C201 C200 1.391 . S
C201 C202 1.392 . S
C201 H230 0.947 . S
C202 C201 1.392 . S
C202 C203 1.419 . S
C202 H231 0.948 . S
C203 C202 1.419 . S
C203 C204 1.391 . S
C203 C207 1.397 . S
C204 C199 1.391 . S
C204 C203 1.391 . S
C204 C205 1.399 . S
C205 C204 1.399 . S
C205 C206 1.396 . S
C205 C208 1.453 . S
C205 C209 1.684 . S
C206 C187 1.723 . S
C206 C205 1.396 . S
C206 C207 1.394 . S
C207 C203 1.397 . S
C207 C206 1.394 . S
C207 C217 1.723 . S
C208 C205 1.453 . S
C208 H232 0.982 . S
C208 H233 0.979 . S
C208 H234 0.977 . S
C209 C205 1.684 . S
C209 H235 0.979 . S
C209 H236 0.980 . S
C209 H237 0.983 . S
C210 H186 0.948 . S
C210 C211 1.391 . S
C210 C215 1.391 . S
C211 C210 1.391 . S
C211 C212 1.391 . S
C212 H189 0.947 . S
C212 C211 1.391 . S
C212 C213 1.392 . S
C213 H190 0.948 . S
C213 C212 1.392 . S
C213 C214 1.419 . S
C214 C213 1.419 . S
C214 C215 1.391 . S
C214 C218 1.397 . S
C215 C210 1.391 . S
C215 C214 1.391 . S
C215 C216 1.399 . S
C216 C215 1.399 . S
C216 C217 1.396 . S
C216 C219 1.453 . S
C216 C220 1.684 . S
C217 C207 1.723 . S
C217 C216 1.396 . S
C217 C218 1.394 . S
C218 C188 1.723 . S
C218 C214 1.397 . S
C218 C217 1.394 . S
C219 H191 0.982 . S
C219 H195 0.979 . S
C219 H196 0.977 . S
C219 C216 1.453 . S
C220 H192 0.979 . S
C220 H193 0.980 . S
C220 H194 0.983 . S
C220 C216 1.684 . S
H221 C239 0.948 . S
H222 C180 0.948 . S
H223 C198 0.979 . S
H224 C198 0.980 . S
H225 C198 0.983 . S
H226 C197 0.982 . S
H227 C197 0.979 . S
H228 C197 0.977 . S
H229 C199 0.948 . S
H230 C201 0.947 . S
H231 C202 0.948 . S
H232 C208 0.982 . S
H233 C208 0.979 . S
H234 C208 0.977 . S
H235 C209 0.979 . S
H236 C209 0.980 . S
H237 C209 0.983 . S
H238 C182 0.947 . S
C239 C182 1.392 . S
C239 C183 1.419 . S
C239 H221 0.948 . S
O240 Mg241 1.990 1_655 S
O240 C254 1.253 . S
Mg241 O240 1.990 1_455 S
Mg241 O244 2.180 . S
Mg241 O245 2.117 . S
Mg241 O259 2.030 . S
O242 Mg243 2.072 1_655 S
O242 C254 1.260 . S
Mg243 O242 2.072 1_455 S
Mg243 O244 2.099 . S
Mg243 O246 2.079 1_545 S
Mg243 O247 2.072 1_455 S
Mg243 O249 2.099 1_445 S
Mg243 O260 2.079 1_545 S
O244 Mg241 2.180 . S
O244 Mg243 2.099 . S
O244 C255 1.279 . S
O245 Mg241 2.117 . S
O245 C255 1.250 . S
O246 Mg243 2.079 1_565 S
O246 C256 1.264 . S
O247 Mg243 2.072 1_655 S
O247 C257 1.260 . S
Mg248 O249 2.180 . S
Mg248 O250 2.030 1_655 S
Mg248 O251 1.990 . S
Mg248 O252 2.117 . S
O249 Mg243 2.099 1_665 S
O249 Mg248 2.180 . S
O249 C258 1.279 . S
O250 Mg248 2.030 1_455 S
O250 C256 1.248 . S
O251 Mg248 1.990 . S
O251 C257 1.253 1_565 S
O252 Mg248 2.117 . S
O252 C258 1.250 . S
C253 O259 1.248 1_565 S
C253 O260 1.264 . S
C254 O240 1.253 . S
C254 O242 1.260 . S
C255 O244 1.279 . S
C255 O245 1.250 . S
C256 O246 1.264 . S
C256 O250 1.248 . S
C257 O247 1.260 . S
C257 O251 1.253 1_545 S
C258 O249 1.279 . S
C258 O252 1.250 . S
O259 Mg241 2.030 . S
O259 C253 1.248 1_545 S
O260 Mg243 2.079 1_565 S
O260 C253 1.264 . S
O261 Mg262 1.990 . S
O261 C275 1.253 . S
Mg262 O261 1.990 . S
Mg262 O265 2.180 . S
Mg262 O266 2.117 . S
Mg262 O280 2.030 . S
O263 Mg264 2.072 . S
O263 C275 1.260 . S
Mg264 O263 2.072 . S
Mg264 O265 2.099 . S
Mg264 O267 2.079 1_554 S
Mg264 O268 2.072 1_554 S
Mg264 O270 2.099 . S
Mg264 O281 2.079 . S
O265 Mg262 2.180 . S
O265 Mg264 2.099 . S
O265 C276 1.279 . S
O266 Mg262 2.117 . S
O266 C276 1.250 . S
O267 Mg264 2.079 1_556 S
O267 C277 1.264 . S
O268 Mg264 2.072 1_556 S
O268 C278 1.260 . S
Mg269 O270 2.180 1_556 S
Mg269 O271 2.030 . S
Mg269 O272 1.990 . S
Mg269 O273 2.117 . S
O270 Mg264 2.099 . S
O270 Mg269 2.180 1_554 S
O270 C279 1.279 . S
O271 Mg269 2.030 . S
O271 C277 1.248 . S
O272 Mg269 1.990 . S
O272 C278 1.253 . S
O273 Mg269 2.117 . S
O273 C279 1.250 1_556 S
C274 O280 1.248 . S
C274 O281 1.264 . S
C275 O261 1.253 . S
C275 O263 1.260 . S
C276 O265 1.279 . S
C276 O266 1.250 . S
C277 O267 1.264 . S
C277 O271 1.248 . S
C278 O268 1.260 . S
C278 O272 1.253 . S
C279 O270 1.279 . S
C279 O273 1.250 1_554 S
O280 Mg262 2.030 . S
O280 C274 1.248 . S
O281 Mg264 2.079 . S
O281 C274 1.264 . S
C255 C211 2.148 . S
C31 C279 1.691 . S
C91 C258 2.011 . S
C151 C276 1.950 . S
C256 C20 2.236 . S
C278 C61 1.813 . S
C121 C257 1.705 . S
C200 C277 1.964 . S
C275 C80 1.623 . S
C254 C140 2.164 . S
C274 C181 2.300 . S
C1 C253 1.678 . S
