# Generated by pormake.
# Topology pto, (3,4)-cn, num edge types: 1
# Building blocks:
#     Node 0, Type 0, BuildingBlock: WUSLED_clean_sbu_0, # of connection points: 3
#     Node 1, Type 0, BuildingBlock: WUSLED_clean_sbu_0, # of connection points: 3
#     Node 2, Type 0, BuildingBlock: WUSLED_clean_sbu_0, # of connection points: 3
#     Node 3, Type 0, BuildingBlock: WUSLED_clean_sbu_0, # of connection points: 3
#     Node 4, Type 0, BuildingBlock: WUSLED_clean_sbu_0, # of connection points: 3
#     Node 5, Type 0, BuildingBlock: WUSLED_clean_sbu_0, # of connection points: 3
#     Node 6, Type 0, BuildingBlock: WUSLED_clean_sbu_0, # of connection points: 3
#     Node 7, Type 0, BuildingBlock: WUSLED_clean_sbu_0, # of connection points: 3
#     Node 8, Type 1, BuildingBlock: KUFVIS_clean_linker_0, # of connection points: 4
#     Node 9, Type 1, BuildingBlock: KUFVIS_clean_linker_0, # of connection points: 4
#     Node 10, Type 1, BuildingBlock: KUFVIS_clean_linker_0, # of connection points: 4
#     Node 11, Type 1, BuildingBlock: KUFVIS_clean_linker_0, # of connection points: 4
#     Node 12, Type 1, BuildingBlock: KUFVIS_clean_linker_0, # of connection points: 4
#     Node 13, Type 1, BuildingBlock: KUFVIS_clean_linker_0, # of connection points: 4
#     Edge 14, Type (0, 1), None
#     Edge 15, Type (0, 1), None
#     Edge 16, Type (0, 1), None
#     Edge 17, Type (0, 1), None
#     Edge 18, Type (0, 1), None
#     Edge 19, Type (0, 1), None
#     Edge 20, Type (0, 1), None
#     Edge 21, Type (0, 1), None
#     Edge 22, Type (0, 1), None
#     Edge 23, Type (0, 1), None
#     Edge 24, Type (0, 1), None
#     Edge 25, Type (0, 1), None
#     Edge 26, Type (0, 1), None
#     Edge 27, Type (0, 1), None
#     Edge 28, Type (0, 1), None
#     Edge 29, Type (0, 1), None
#     Edge 30, Type (0, 1), None
#     Edge 31, Type (0, 1), None
#     Edge 32, Type (0, 1), None
#     Edge 33, Type (0, 1), None
#     Edge 34, Type (0, 1), None
#     Edge 35, Type (0, 1), None
#     Edge 36, Type (0, 1), None
#     Edge 37, Type (0, 1), None
# Relax obj value: 0.002
# Max RMSD: 0.051
# Mean RMSD: 0.028
data_MOF--net-pto--node1-WUSLED_clean_sbu_0--node2-KUFVIS_clean_linker_0--edge1-none
_symmetry_space_group_name_H-M    P1
_symmetry_Int_Tables_number       1
_symmetry_cell_setting            triclinic
loop_
_symmetry_equiv_pos_as_xyz
'x, y, z'
_cell_length_a     23.638497
_cell_length_b     36.026705
_cell_length_c     30.091109
_cell_angle_alpha  89.731503
_cell_angle_beta   90.229184
_cell_angle_gamma 90.569213
loop_
_atom_site_label
_atom_site_type_symbol
_atom_site_fract_x
_atom_site_fract_y
_atom_site_fract_z
_atom_type_partial_charge
C0 C 0.14239 0.22652 0.38521 0.0
C1 C 0.18841 0.20204 0.38651 0.0
C2 C 0.13957 0.16326 0.4411 0.0
C3 C 0.18696 0.17059 0.41429 0.0
C4 C 0.09189 0.18605 0.43673 0.0
C5 C 0.09328 0.21734 0.409 0.0
U6 U 0.20487 0.29834 0.30228 0.0
O7 O 0.16594 0.34618 0.26869 0.0
O8 O 0.23522 0.35514 0.31616 0.0
C9 C 0.19692 0.37059 0.29046 0.0
C10 C 0.1474 0.264 0.36512 0.0
C11 C 0.16547 0.40173 0.30963 0.0
C12 C 0.10466 0.42645 0.36684 0.0
C13 C 0.14092 0.39881 0.35183 0.0
C14 C 0.1197 0.4614 0.29887 0.0
C15 C 0.09179 0.45726 0.33971 0.0
C16 C 0.15624 0.43376 0.28393 0.0
C17 C 0.31294 0.27133 0.21479 0.0
C18 C 0.39051 0.30935 0.18669 0.0
C19 C 0.36175 0.25378 0.14721 0.0
C20 C 0.31911 0.24737 0.17855 0.0
C21 C 0.39911 0.28406 0.15202 0.0
C22 C 0.3475 0.3032 0.21765 0.0
C23 C 0.27321 0.26144 0.2507 0.0
O24 O 0.19582 0.28133 0.37196 0.0
O25 O 0.12764 0.26852 0.32455 0.0
O26 O 0.21923 0.26566 0.24159 0.0
O27 O 0.28744 0.27298 0.29066 0.0
H28 H 0.22681 0.20856 0.36843 0.0
H29 H 0.22462 0.1539 0.41769 0.0
H30 H 0.05517 0.18132 0.45753 0.0
H31 H 0.05735 0.23579 0.40858 0.0
H32 H 0.08353 0.42252 0.39843 0.0
H33 H 0.14756 0.37435 0.37222 0.0
H34 H 0.10995 0.48448 0.27703 0.0
H35 H 0.17501 0.4365 0.25127 0.0
H36 H 0.41893 0.33284 0.19108 0.0
H37 H 0.36801 0.23368 0.12106 0.0
H38 H 0.29262 0.22278 0.1756 0.0
H39 H 0.34303 0.32244 0.24495 0.0
C40 C 0.13212 0.88783 0.6467 0.0
C41 C 0.08809 0.89529 0.61674 0.0
C42 C 0.13553 0.95241 0.59324 0.0
C43 C 0.08978 0.92728 0.5902 0.0
C44 C 0.17691 0.94667 0.62613 0.0
C45 C 0.17522 0.91458 0.65275 0.0
U46 U 0.19185 0.81835 0.73158 0.0
O47 O 0.15565 0.76838 0.76316 0.0
O48 O 0.22866 0.76337 0.71902 0.0
C49 C 0.19075 0.74581 0.74331 0.0
C50 C 0.13692 0.85009 0.66576 0.0
C51 C 0.16445 0.71234 0.72386 0.0
C52 C 0.1004 0.68386 0.67053 0.0
C53 C 0.13391 0.71409 0.68391 0.0
C54 C 0.13115 0.64879 0.73493 0.0
C55 C 0.09625 0.65167 0.69723 0.0
C56 C 0.1649 0.67898 0.74818 0.0
C57 C 0.28833 0.8503 0.82498 0.0
C58 C 0.35049 0.80721 0.86284 0.0
C59 C 0.34582 0.87111 0.88737 0.0
C60 C 0.30528 0.87837 0.85447 0.0
C61 C 0.36997 0.83577 0.89078 0.0
C62 C 0.30967 0.81435 0.83037 0.0
C63 C 0.25149 0.85905 0.787 0.0
O64 O 0.18689 0.83488 0.66151 0.0
O65 O 0.11411 0.84416 0.70499 0.0
O66 O 0.19746 0.85171 0.79268 0.0
O67 O 0.27049 0.84819 0.7482 0.0
H68 H 0.05452 0.87505 0.61148 0.0
H69 H 0.05792 0.93076 0.56456 0.0
H70 H 0.21319 0.96518 0.62845 0.0
H71 H 0.20969 0.90937 0.6757 0.0
H72 H 0.07371 0.68688 0.6414 0.0
H73 H 0.13317 0.73954 0.66461 0.0
H74 H 0.12827 0.62467 0.75646 0.0
H75 H 0.18844 0.67712 0.77907 0.0
H76 H 0.36903 0.77986 0.86472 0.0
H77 H 0.36096 0.89362 0.90815 0.0
H78 H 0.289 0.90623 0.85084 0.0
H79 H 0.2967 0.79226 0.8081 0.0
C80 C 0.67277 0.81116 0.19041 0.0
C81 C 0.66689 0.7931 0.1495 0.0
C82 C 0.58603 0.83157 0.13115 0.0
C83 C 0.62396 0.80333 0.11992 0.0
C84 C 0.59509 0.85163 0.17059 0.0
C85 C 0.63826 0.84154 0.19999 0.0
U86 U 0.75017 0.81651 0.3019 0.0
O87 O 0.69693 0.85682 0.33706 0.0
O88 O 0.77421 0.87556 0.30338 0.0
C89 C 0.7321 0.88462 0.32944 0.0
C90 C 0.70938 0.79506 0.22486 0.0
C91 C 0.74754 0.90753 0.36822 0.0
C92 C 0.72902 0.96052 0.41591 0.0
C93 C 0.71525 0.93876 0.3788 0.0
C94 C 0.8085 0.92052 0.43149 0.0
C95 C 0.77536 0.9513 0.4431 0.0
C96 C 0.79456 0.89876 0.39462 0.0
C97 C 0.82727 0.73048 0.34651 0.0
C98 C 0.86138 0.67494 0.38386 0.0
C99 C 0.87664 0.68299 0.30493 0.0
C100 C 0.84709 0.71651 0.30596 0.0
C101 C 0.8863 0.6628 0.34427 0.0
C102 C 0.83217 0.70856 0.38497 0.0
C103 C 0.80764 0.7692 0.35046 0.0
O104 O 0.68412 0.78847 0.26295 0.0
O105 O 0.76 0.81 0.22942 0.0
O106 O 0.83151 0.7936 0.3236 0.0
O107 O 0.75287 0.77379 0.35472 0.0
H108 H 0.6932 0.76958 0.14163 0.0
H109 H 0.61762 0.78716 0.09002 0.0
H110 H 0.56654 0.87357 0.17994 0.0
H111 H 0.64243 0.85592 0.2314 0.0
H112 H 0.70235 0.98375 0.42413 0.0
H113 H 0.6789 0.94605 0.35864 0.0
H114 H 0.84496 0.91292 0.45133 0.0
H115 H 0.82029 0.87493 0.38692 0.0
H116 H 0.86959 0.66046 0.41483 0.0
H117 H 0.89673 0.67475 0.27426 0.0
H118 H 0.84341 0.73274 0.27571 0.0
H119 H 0.81704 0.71872 0.41657 0.0
C120 C 0.73737 0.19981 0.68135 0.0
C121 C 0.71024 0.20396 0.64002 0.0
C122 C 0.75801 0.14931 0.61152 0.0
C123 C 0.7204 0.17901 0.60563 0.0
C124 C 0.7827 0.14384 0.6535 0.0
C125 C 0.77239 0.16885 0.68813 0.0
U126 U 0.75613 0.29693 0.73395 0.0
O127 O 0.69716 0.33088 0.7721 0.0
O128 O 0.77452 0.31063 0.80396 0.0
C129 C 0.72576 0.32724 0.80936 0.0
C130 C 0.72926 0.22716 0.71757 0.0
C131 C 0.69143 0.31444 0.84713 0.0
C132 C 0.62673 0.26873 0.87823 0.0
C133 C 0.66743 0.27872 0.84679 0.0
C134 C 0.63633 0.32915 0.91274 0.0
C135 C 0.60948 0.29426 0.91057 0.0
C136 C 0.67697 0.33925 0.88098 0.0
C137 C 0.837 0.37439 0.6733 0.0
C138 C 0.86529 0.43128 0.71098 0.0
C139 C 0.90355 0.4172 0.63853 0.0
C140 C 0.87078 0.38468 0.63703 0.0
C141 C 0.90283 0.44 0.67629 0.0
C142 C 0.83258 0.39862 0.70954 0.0
C143 C 0.81283 0.33655 0.67524 0.0
O144 O 0.77511 0.23728 0.73941 0.0
O145 O 0.69527 0.25511 0.70933 0.0
O146 O 0.75735 0.33386 0.67527 0.0
O147 O 0.83697 0.31437 0.70432 0.0
H148 H 0.68218 0.22699 0.63372 0.0
H149 H 0.70038 0.18375 0.57368 0.0
H150 H 0.81212 0.12138 0.6589 0.0
H151 H 0.79306 0.16455 0.71991 0.0
H152 H 0.6065 0.24168 0.87591 0.0
H153 H 0.67797 0.25928 0.82079 0.0
H154 H 0.62323 0.34938 0.93704 0.0
H155 H 0.69494 0.36702 0.88151 0.0
H156 H 0.86518 0.44786 0.74093 0.0
H157 H 0.93321 0.42285 0.61192 0.0
H158 H 0.87486 0.36629 0.60885 0.0
H159 H 0.80685 0.39103 0.73796 0.0
C160 C 0.81451 0.70158 0.73334 0.0
C161 C 0.84085 0.70386 0.69177 0.0
C162 C 0.89039 0.64602 0.70695 0.0
C163 C 0.8782 0.67618 0.67858 0.0
C164 C 0.86064 0.64243 0.74704 0.0
C165 C 0.82301 0.67008 0.76013 0.0
U166 U 0.77086 0.80471 0.7373 0.0
O167 O 0.68686 0.82833 0.74799 0.0
O168 O 0.75444 0.83809 0.79703 0.0
C169 C 0.70034 0.84101 0.78761 0.0
C170 C 0.78183 0.73284 0.75089 0.0
C171 C 0.66088 0.83152 0.82387 0.0
C172 C 0.58074 0.79599 0.85213 0.0
C173 C 0.62299 0.80135 0.82034 0.0
C174 C 0.61663 0.84881 0.89346 0.0
C175 C 0.57611 0.82038 0.8882 0.0
C176 C 0.65854 0.85444 0.86137 0.0
C177 C 0.82836 0.87795 0.65533 0.0
C178 C 0.77884 0.93418 0.63306 0.0
C179 C 0.8704 0.92057 0.60168 0.0
C180 C 0.87354 0.88839 0.62779 0.0
C181 C 0.82207 0.94299 0.60276 0.0
C182 C 0.78197 0.90188 0.65924 0.0
C183 C 0.82701 0.84007 0.67455 0.0
O184 O 0.81158 0.75818 0.77219 0.0
O185 O 0.7435 0.74712 0.72424 0.0
O186 O 0.78 0.82119 0.66741 0.0
O187 O 0.84674 0.83602 0.71519 0.0
H188 H 0.83474 0.72788 0.67055 0.0
H189 H 0.90079 0.67969 0.64755 0.0
H190 H 0.8698 0.61988 0.7698 0.0
H191 H 0.80281 0.66784 0.79231 0.0
H192 H 0.54994 0.77387 0.84742 0.0
H193 H 0.62439 0.78287 0.79208 0.0
H194 H 0.61354 0.86823 0.9207 0.0
H195 H 0.68757 0.87772 0.86485 0.0
H196 H 0.74062 0.95051 0.63376 0.0
H197 H 0.90376 0.92637 0.57797 0.0
H198 H 0.90964 0.87036 0.62418 0.0
H199 H 0.74655 0.89433 0.68028 0.0
C200 C 0.68545 0.26048 0.22445 0.0
C201 C 0.66074 0.29559 0.22036 0.0
C202 C 0.60618 0.27432 0.15654 0.0
C203 C 0.62111 0.30236 0.18683 0.0
C204 C 0.63378 0.24004 0.1588 0.0
C205 C 0.67309 0.23312 0.19272 0.0
U206 U 0.78154 0.29088 0.31949 0.0
O207 O 0.85753 0.26344 0.34686 0.0
O208 O 0.78439 0.27398 0.38951 0.0
C209 C 0.83382 0.25793 0.38584 0.0
C210 C 0.72122 0.25154 0.26309 0.0
C211 C 0.83676 0.22016 0.40503 0.0
C212 C 0.78967 0.16172 0.42391 0.0
C213 C 0.79359 0.19378 0.39736 0.0
C214 C 0.87477 0.18047 0.46319 0.0
C215 C 0.82885 0.15569 0.45836 0.0
C216 C 0.87872 0.21241 0.43668 0.0
C217 C 0.81462 0.3959 0.3289 0.0
C218 C 0.88239 0.42154 0.38148 0.0
C219 C 0.84988 0.45919 0.31978 0.0
C220 C 0.81428 0.43003 0.3062 0.0
C221 C 0.88655 0.45449 0.35615 0.0
C222 C 0.84698 0.39235 0.36778 0.0
C223 C 0.7866 0.36343 0.30854 0.0
O224 O 0.77564 0.25787 0.2581 0.0
O225 O 0.70188 0.26276 0.30164 0.0
O226 O 0.74729 0.34658 0.33215 0.0
O227 O 0.82069 0.3402 0.28869 0.0
H228 H 0.67019 0.31721 0.24426 0.0
H229 H 0.59998 0.32891 0.18583 0.0
H230 H 0.62226 0.2179 0.13617 0.0
H231 H 0.69203 0.20593 0.19528 0.0
H232 H 0.75327 0.14348 0.42018 0.0
H233 H 0.76067 0.19927 0.37312 0.0
H234 H 0.90491 0.17675 0.49003 0.0
H235 H 0.91227 0.23239 0.4432 0.0
H236 H 0.91036 0.41712 0.40958 0.0
H237 H 0.85266 0.48395 0.29929 0.0
H238 H 0.78938 0.43328 0.27614 0.0
H239 H 0.84767 0.36626 0.38582 0.0
C240 C 0.16243 0.21951 0.6636 0.0
C241 C 0.21072 0.19833 0.6543 0.0
C242 C 0.15587 0.15957 0.6035 0.0
C243 C 0.20743 0.16857 0.62437 0.0
C244 C 0.10698 0.17892 0.61559 0.0
C245 C 0.11024 0.20854 0.64538 0.0
U246 U 0.21897 0.28582 0.75493 0.0
O247 O 0.24798 0.34385 0.74774 0.0
O248 O 0.17619 0.33057 0.79098 0.0
C249 C 0.20709 0.35692 0.77251 0.0
C250 C 0.16629 0.25559 0.68689 0.0
C251 C 0.17505 0.38834 0.75376 0.0
C252 C 0.1198 0.4154 0.69389 0.0
C253 C 0.15599 0.38777 0.70959 0.0
C254 C 0.12347 0.44579 0.76546 0.0
C255 C 0.10145 0.44393 0.72212 0.0
C256 C 0.15998 0.41813 0.78116 0.0
C257 C 0.32287 0.25224 0.84328 0.0
C258 C 0.38368 0.29435 0.88473 0.0
C259 C 0.38437 0.22849 0.90159 0.0
C260 C 0.34306 0.22246 0.86883 0.0
C261 C 0.40593 0.26436 0.90886 0.0
C262 C 0.34215 0.28838 0.85235 0.0
C263 C 0.28525 0.24514 0.80518 0.0
O264 O 0.14374 0.25742 0.72669 0.0
O265 O 0.21474 0.2736 0.68364 0.0
O266 O 0.30155 0.26046 0.76755 0.0
O267 O 0.23085 0.2487 0.81264 0.0
H268 H 0.25155 0.20614 0.66799 0.0
H269 H 0.24586 0.15456 0.61492 0.0
H270 H 0.06695 0.17287 0.59938 0.0
H271 H 0.07251 0.22442 0.65194 0.0
H272 H 0.10325 0.41321 0.66035 0.0
H273 H 0.16704 0.36511 0.68783 0.0
H274 H 0.1094 0.46706 0.78809 0.0
H275 H 0.17437 0.41906 0.81537 0.0
H276 H 0.4003 0.32218 0.88962 0.0
H277 H 0.40168 0.20499 0.91945 0.0
H278 H 0.32857 0.19439 0.86222 0.0
H279 H 0.32688 0.31174 0.83307 0.0
C280 C 0.14959 0.73193 0.36877 0.0
C281 C 0.14796 0.71091 0.32957 0.0
C282 C 0.08977 0.66389 0.3663 0.0
C283 C 0.11812 0.67711 0.32835 0.0
C284 C 0.09626 0.68323 0.40648 0.0
C285 C 0.12595 0.71703 0.40768 0.0
U286 U 0.22476 0.81425 0.31284 0.0
O287 O 0.1991 0.87238 0.30525 0.0
O288 O 0.27657 0.85939 0.34211 0.0
C289 C 0.24023 0.88515 0.33061 0.0
C290 C 0.1689 0.77099 0.36826 0.0
C291 C 0.22269 0.91065 0.36621 0.0
C292 C 0.15674 0.92764 0.42412 0.0
C293 C 0.17266 0.90394 0.38991 0.0
C294 C 0.24007 0.96578 0.41133 0.0
C295 C 0.19083 0.95837 0.43601 0.0
C296 C 0.25586 0.94204 0.37669 0.0
C297 C 0.29854 0.79969 0.20165 0.0
C298 C 0.36683 0.84399 0.17232 0.0
C299 C 0.34704 0.78702 0.13236 0.0
C300 C 0.30742 0.77683 0.16478 0.0
C301 C 0.37852 0.82008 0.13676 0.0
C302 C 0.32702 0.83392 0.20447 0.0
C303 C 0.26422 0.78602 0.23898 0.0
O304 O 0.22376 0.77674 0.37106 0.0
O305 O 0.14425 0.7922 0.33838 0.0
O306 O 0.2131 0.79972 0.24223 0.0
O307 O 0.29111 0.78452 0.27726 0.0
H308 H 0.16605 0.72195 0.29917 0.0
H309 H 0.11239 0.66327 0.29673 0.0
H310 H 0.07349 0.67415 0.43583 0.0
H311 H 0.12678 0.73282 0.43824 0.0
H312 H 0.1182 0.92137 0.44216 0.0
H313 H 0.14617 0.88005 0.38236 0.0
H314 H 0.26742 0.98897 0.41991 0.0
H315 H 0.29451 0.94781 0.3586 0.0
H316 H 0.39057 0.86964 0.17637 0.0
H317 H 0.35574 0.76795 0.10558 0.0
H318 H 0.28575 0.75028 0.16218 0.0
H319 H 0.32053 0.85196 0.23268 0.0
H320 H -0.00949 0.42968 0.35418 0.0
H321 H 0.89736 0.5302 0.36327 0.0
H322 H 0.07883 0.53272 0.33983 0.0
H323 H 0.07871 0.58785 0.3679 0.0
H324 H -0.01173 0.68912 0.35391 0.0
H325 H 0.89734 0.58686 0.34061 0.0
C326 C -0.00988 0.45978 0.35567 0.0
C327 C 0.04055 0.47935 0.34924 0.0
C328 C 0.93856 0.4779 0.35929 0.0
C329 C 0.93779 0.51701 0.35912 0.0
C330 C -0.01151 0.53823 0.35363 0.0
C331 C 0.0396 0.51839 0.34719 0.0
C332 C -0.01181 0.58047 0.35362 0.0
C333 C 0.03901 0.60131 0.36092 0.0
C334 C 0.03881 0.64034 0.36026 0.0
C335 C -0.01173 0.65894 0.35369 0.0
C336 C 0.93757 0.63978 0.34758 0.0
C337 C 0.93726 0.60072 0.34685 0.0
H338 H -0.00853 0.67479 0.69547 0.0
H339 H 0.08843 0.57532 0.69273 0.0
H340 H 0.90586 0.57049 0.70879 0.0
H341 H 0.91172 0.51608 0.67619 0.0
H342 H 0.00348 0.41594 0.69623 0.0
H343 H 0.08584 0.5197 0.72354 0.0
C344 C -0.00703 0.64469 0.69486 0.0
C345 C 0.94283 0.62449 0.69988 0.0
C346 C 0.04534 0.62731 0.69356 0.0
C347 C 0.04746 0.58823 0.69499 0.0
C348 C -0.00286 0.56645 0.69898 0.0
C349 C 0.94496 0.5855 0.70286 0.0
C350 C -0.00113 0.52436 0.69922 0.0
C351 C 0.95063 0.50296 0.68636 0.0
C352 C 0.95256 0.46399 0.68565 0.0
C353 C 0.0027 0.44608 0.69639 0.0
C354 C 0.05094 0.46588 0.7093 0.0
C355 C 0.04871 0.50493 0.71177 0.0
H356 H 0.14239 0.18743 0.52341 0.0
H357 H 0.17076 0.08478 0.59135 0.0
H358 H 0.14736 0.08733 0.44786 0.0
H359 H 0.19126 1.03381 0.44974 0.0
H360 H 0.16475 0.92908 0.51455 0.0
H361 H 0.13365 1.02851 0.5867 0.0
C362 C 0.14674 0.15747 0.52228 0.0
C363 C 0.14533 0.13954 0.48133 0.0
C364 C 0.15515 0.13786 0.56176 0.0
C365 C 0.16258 0.09918 0.56041 0.0
C366 C 0.15905 0.07958 0.5195 0.0
C367 C 0.15093 0.10068 0.47985 0.0
C368 C 0.16222 1.03753 0.51837 0.0
C369 C 0.17842 1.01856 0.4791 0.0
C370 C 0.17753 0.97944 0.47714 0.0
C371 C 0.16338 0.95919 0.51524 0.0
C372 C 0.1485 0.9767 0.55462 0.0
C373 C 0.14742 1.01571 0.55623 0.0
H374 H 0.48297 0.83035 0.16679 0.0
H375 H 0.56886 0.83929 0.04278 0.0
H376 H 0.38754 0.81889 0.04689 0.0
H377 H 0.38583 0.8409 0.97991 0.0
H378 H 0.47072 0.82318 0.85704 0.0
H379 H 0.5659 0.81758 0.97751 0.0
C380 C 0.48135 0.83162 0.13077 0.0
C381 C 0.42943 0.82674 0.10917 0.0
C382 C 0.53162 0.83462 0.10676 0.0
C383 C 0.52943 0.83515 0.06014 0.0
C384 C 0.4776 0.83 0.03696 0.0
C385 C 0.4278 0.8249 0.06254 0.0
C386 C 0.4758 0.82851 0.98675 0.0
C387 C 0.42449 0.83387 0.96301 0.0
C388 C 0.42251 0.83044 0.91657 0.0
C389 C 0.47209 0.82381 0.89309 0.0
C390 C 0.52385 0.82071 0.9151 0.0
C391 C 0.52546 0.82198 0.96169 0.0
H392 H 0.79542 0.17884 0.53625 0.0
H393 H 0.76394 0.07349 0.59906 0.0
H394 H 0.82798 0.0793 0.4642 0.0
H395 H 0.77397 1.02628 0.4592 0.0
H396 H 0.79924 0.92058 0.52197 0.0
H397 H 0.81833 1.01969 0.59892 0.0
C398 C 0.79546 0.14872 0.53505 0.0
C399 C 0.81316 0.13134 0.49629 0.0
C400 C 0.77747 0.1283 0.57204 0.0
C401 C 0.77858 0.08918 0.57049 0.0
C402 C 0.79631 0.07057 0.53152 0.0
C403 C 0.81341 0.09236 0.49434 0.0
C404 C 0.7964 1.02873 0.52928 0.0
C405 C 0.78467 1.01037 0.48861 0.0
C406 C 0.78678 0.97139 0.48549 0.0
C407 C 0.79922 0.95067 0.52363 0.0
C408 C 0.81015 0.96774 0.56438 0.0
C409 C 0.80868 1.00674 0.56735 0.0
H410 H 0.50258 0.28389 0.18667 0.0
H411 H 0.59579 0.27016 0.06655 0.0
H412 H 0.41409 0.28679 0.06271 0.0
H413 H 0.41855 0.26055 0.99826 0.0
H414 H 0.50795 0.27869 0.87705 0.0
H415 H 0.59472 0.29621 1.00032 0.0
C416 C 0.50341 0.28343 0.15061 0.0
C417 C 0.45272 0.28502 0.12681 0.0
C418 C 0.55483 0.27855 0.1289 0.0
C419 C 0.55574 0.27558 0.08238 0.0
C420 C 0.50539 0.2793 0.057 0.0
C421 C 0.4538 0.28382 0.08021 0.0
C422 C 0.50657 0.27835 1.00689 0.0
C423 C 0.45746 0.26874 0.98206 0.0
C424 C 0.45775 0.27008 0.9355 0.0
C425 C 0.50787 0.27824 0.91313 0.0
C426 C 0.55759 0.2864 0.93646 0.0
C427 C 0.5565 0.28776 0.98312 0.0
loop_
_geom_bond_atom_site_label_1
_geom_bond_atom_site_label_2
_geom_bond_distance
_geom_bond_site_symmetry_2
_ccdc_geom_bond_type
C0 C1 1.264 . S
C0 C5 1.479 . S
C0 C10 1.465 . S
C1 C0 1.264 . S
C1 C3 1.339 . S
C1 H28 0.931 . S
C2 C3 1.395 . S
C2 C4 1.320 . S
C3 C1 1.339 . S
C3 C2 1.395 . S
C3 H29 0.929 . S
C4 C2 1.320 . S
C4 C5 1.405 . S
C4 H30 0.930 . S
C5 C0 1.479 . S
C5 C4 1.405 . S
C5 H31 0.931 . S
U6 O7 2.454 . S
U6 O8 2.458 . S
U6 C9 2.984 . S
U6 C10 2.847 . S
U6 C23 2.882 . S
U6 O24 2.441 . S
U6 O25 2.420 . S
U6 O26 2.455 . S
U6 O27 2.449 . S
O7 U6 2.454 . S
O7 C9 1.353 . S
O8 U6 2.458 . S
O8 C9 1.286 . S
C9 U6 2.984 . S
C9 O7 1.353 . S
C9 O8 1.286 . S
C9 C11 1.363 . S
C10 C0 1.465 . S
C10 U6 2.847 . S
C10 O24 1.249 . S
C10 O25 1.202 . S
C11 C9 1.363 . S
C11 C13 1.408 . S
C11 C16 1.342 . S
C12 C13 1.310 . S
C12 C15 1.461 . S
C12 H32 0.932 . S
C13 C11 1.408 . S
C13 C12 1.310 . S
C13 H33 0.930 . S
C14 C15 1.474 . S
C14 C16 1.285 . S
C14 H34 0.929 . S
C15 C12 1.461 . S
C15 C14 1.474 . S
C16 C11 1.342 . S
C16 C14 1.285 . S
C16 H35 0.930 . S
C17 C20 1.424 . S
C17 C22 1.245 . S
C17 C23 1.428 . S
C18 C21 1.260 . S
C18 C22 1.477 . S
C18 H36 0.932 . S
C19 C20 1.384 . S
C19 C21 1.479 . S
C19 H37 0.929 . S
C20 C17 1.424 . S
C20 C19 1.384 . S
C20 H38 0.928 . S
C21 C18 1.260 . S
C21 C19 1.479 . S
C22 C17 1.245 . S
C22 C18 1.477 . S
C22 H39 0.932 . S
C23 U6 2.882 . S
C23 C17 1.428 . S
C23 O26 1.301 . S
C23 O27 1.282 . S
O24 U6 2.441 . S
O24 C10 1.249 . S
O25 U6 2.420 . S
O25 C10 1.202 . S
O26 U6 2.455 . S
O26 C23 1.301 . S
O27 U6 2.449 . S
O27 C23 1.282 . S
H28 C1 0.931 . S
H29 C3 0.929 . S
H30 C4 0.930 . S
H31 C5 0.931 . S
H32 C12 0.932 . S
H33 C13 0.930 . S
H34 C14 0.929 . S
H35 C16 0.930 . S
H36 C18 0.932 . S
H37 C19 0.929 . S
H38 C20 0.928 . S
H39 C22 0.932 . S
C40 C41 1.264 . S
C40 C45 1.479 . S
C40 C50 1.465 . S
C41 C40 1.264 . S
C41 C43 1.339 . S
C41 H68 0.931 . S
C42 C43 1.395 . S
C42 C44 1.320 . S
C43 C41 1.339 . S
C43 C42 1.395 . S
C43 H69 0.929 . S
C44 C42 1.320 . S
C44 C45 1.405 . S
C44 H70 0.930 . S
C45 C40 1.479 . S
C45 C44 1.405 . S
C45 H71 0.931 . S
U46 O47 2.454 . S
U46 O48 2.458 . S
U46 C49 2.984 . S
U46 C50 2.847 . S
U46 C63 2.882 . S
U46 O64 2.441 . S
U46 O65 2.420 . S
U46 O66 2.455 . S
U46 O67 2.449 . S
O47 U46 2.454 . S
O47 C49 1.353 . S
O48 U46 2.458 . S
O48 C49 1.286 . S
C49 U46 2.984 . S
C49 O47 1.353 . S
C49 O48 1.286 . S
C49 C51 1.363 . S
C50 C40 1.465 . S
C50 U46 2.847 . S
C50 O64 1.249 . S
C50 O65 1.202 . S
C51 C49 1.363 . S
C51 C53 1.408 . S
C51 C56 1.342 . S
C52 C53 1.310 . S
C52 C55 1.461 . S
C52 H72 0.932 . S
C53 C51 1.408 . S
C53 C52 1.310 . S
C53 H73 0.930 . S
C54 C55 1.474 . S
C54 C56 1.285 . S
C54 H74 0.929 . S
C55 C52 1.461 . S
C55 C54 1.474 . S
C56 C51 1.342 . S
C56 C54 1.285 . S
C56 H75 0.930 . S
C57 C60 1.424 . S
C57 C62 1.245 . S
C57 C63 1.428 . S
C58 C61 1.260 . S
C58 C62 1.477 . S
C58 H76 0.932 . S
C59 C60 1.384 . S
C59 C61 1.479 . S
C59 H77 0.929 . S
C60 C57 1.424 . S
C60 C59 1.384 . S
C60 H78 0.928 . S
C61 C58 1.260 . S
C61 C59 1.479 . S
C62 C57 1.245 . S
C62 C58 1.477 . S
C62 H79 0.932 . S
C63 U46 2.882 . S
C63 C57 1.428 . S
C63 O66 1.301 . S
C63 O67 1.282 . S
O64 U46 2.441 . S
O64 C50 1.249 . S
O65 U46 2.420 . S
O65 C50 1.202 . S
O66 U46 2.455 . S
O66 C63 1.301 . S
O67 U46 2.449 . S
O67 C63 1.282 . S
H68 C41 0.931 . S
H69 C43 0.929 . S
H70 C44 0.930 . S
H71 C45 0.931 . S
H72 C52 0.932 . S
H73 C53 0.930 . S
H74 C54 0.929 . S
H75 C56 0.930 . S
H76 C58 0.932 . S
H77 C59 0.929 . S
H78 C60 0.928 . S
H79 C62 0.932 . S
C80 C81 1.264 . S
C80 C85 1.479 . S
C80 C90 1.465 . S
C81 C80 1.264 . S
C81 C83 1.339 . S
C81 H108 0.931 . S
C82 C83 1.395 . S
C82 C84 1.320 . S
C83 C81 1.339 . S
C83 C82 1.395 . S
C83 H109 0.929 . S
C84 C82 1.320 . S
C84 C85 1.405 . S
C84 H110 0.930 . S
C85 C80 1.479 . S
C85 C84 1.405 . S
C85 H111 0.931 . S
U86 O87 2.454 . S
U86 O88 2.458 . S
U86 C89 2.984 . S
U86 C90 2.847 . S
U86 C103 2.882 . S
U86 O104 2.441 . S
U86 O105 2.420 . S
U86 O106 2.455 . S
U86 O107 2.449 . S
O87 U86 2.454 . S
O87 C89 1.353 . S
O88 U86 2.458 . S
O88 C89 1.286 . S
C89 U86 2.984 . S
C89 O87 1.353 . S
C89 O88 1.286 . S
C89 C91 1.363 . S
C90 C80 1.465 . S
C90 U86 2.847 . S
C90 O104 1.249 . S
C90 O105 1.202 . S
C91 C89 1.363 . S
C91 C93 1.408 . S
C91 C96 1.342 . S
C92 C93 1.310 . S
C92 C95 1.461 . S
C92 H112 0.932 . S
C93 C91 1.408 . S
C93 C92 1.310 . S
C93 H113 0.930 . S
C94 C95 1.474 . S
C94 C96 1.285 . S
C94 H114 0.929 . S
C95 C92 1.461 . S
C95 C94 1.474 . S
C96 C91 1.342 . S
C96 C94 1.285 . S
C96 H115 0.930 . S
C97 C100 1.424 . S
C97 C102 1.245 . S
C97 C103 1.428 . S
C98 C101 1.260 . S
C98 C102 1.477 . S
C98 H116 0.932 . S
C99 C100 1.384 . S
C99 C101 1.479 . S
C99 H117 0.929 . S
C100 C97 1.424 . S
C100 C99 1.384 . S
C100 H118 0.928 . S
C101 C98 1.260 . S
C101 C99 1.479 . S
C102 C97 1.245 . S
C102 C98 1.477 . S
C102 H119 0.932 . S
C103 U86 2.882 . S
C103 C97 1.428 . S
C103 O106 1.301 . S
C103 O107 1.282 . S
O104 U86 2.441 . S
O104 C90 1.249 . S
O105 U86 2.420 . S
O105 C90 1.202 . S
O106 U86 2.455 . S
O106 C103 1.301 . S
O107 U86 2.449 . S
O107 C103 1.282 . S
H108 C81 0.931 . S
H109 C83 0.929 . S
H110 C84 0.930 . S
H111 C85 0.931 . S
H112 C92 0.932 . S
H113 C93 0.930 . S
H114 C94 0.929 . S
H115 C96 0.930 . S
H116 C98 0.932 . S
H117 C99 0.929 . S
H118 C100 0.928 . S
H119 C102 0.932 . S
C120 C121 1.264 . S
C120 C125 1.479 . S
C120 C130 1.465 . S
C121 C120 1.264 . S
C121 C123 1.339 . S
C121 H148 0.931 . S
C122 C123 1.395 . S
C122 C124 1.320 . S
C123 C121 1.339 . S
C123 C122 1.395 . S
C123 H149 0.929 . S
C124 C122 1.320 . S
C124 C125 1.405 . S
C124 H150 0.930 . S
C125 C120 1.479 . S
C125 C124 1.405 . S
C125 H151 0.931 . S
U126 O127 2.454 . S
U126 O128 2.458 . S
U126 C129 2.984 . S
U126 C130 2.847 . S
U126 C143 2.882 . S
U126 O144 2.441 . S
U126 O145 2.420 . S
U126 O146 2.455 . S
U126 O147 2.449 . S
O127 U126 2.454 . S
O127 C129 1.353 . S
O128 U126 2.458 . S
O128 C129 1.286 . S
C129 U126 2.984 . S
C129 O127 1.353 . S
C129 O128 1.286 . S
C129 C131 1.363 . S
C130 C120 1.465 . S
C130 U126 2.847 . S
C130 O144 1.249 . S
C130 O145 1.202 . S
C131 C129 1.363 . S
C131 C133 1.408 . S
C131 C136 1.342 . S
C132 C133 1.310 . S
C132 C135 1.461 . S
C132 H152 0.932 . S
C133 C131 1.408 . S
C133 C132 1.310 . S
C133 H153 0.930 . S
C134 C135 1.474 . S
C134 C136 1.285 . S
C134 H154 0.929 . S
C135 C132 1.461 . S
C135 C134 1.474 . S
C136 C131 1.342 . S
C136 C134 1.285 . S
C136 H155 0.930 . S
C137 C140 1.424 . S
C137 C142 1.245 . S
C137 C143 1.428 . S
C138 C141 1.260 . S
C138 C142 1.477 . S
C138 H156 0.932 . S
C139 C140 1.384 . S
C139 C141 1.479 . S
C139 H157 0.929 . S
C140 C137 1.424 . S
C140 C139 1.384 . S
C140 H158 0.928 . S
C141 C138 1.260 . S
C141 C139 1.479 . S
C142 C137 1.245 . S
C142 C138 1.477 . S
C142 H159 0.932 . S
C143 U126 2.882 . S
C143 C137 1.428 . S
C143 O146 1.301 . S
C143 O147 1.282 . S
O144 U126 2.441 . S
O144 C130 1.249 . S
O145 U126 2.420 . S
O145 C130 1.202 . S
O146 U126 2.455 . S
O146 C143 1.301 . S
O147 U126 2.449 . S
O147 C143 1.282 . S
H148 C121 0.931 . S
H149 C123 0.929 . S
H150 C124 0.930 . S
H151 C125 0.931 . S
H152 C132 0.932 . S
H153 C133 0.930 . S
H154 C134 0.929 . S
H155 C136 0.930 . S
H156 C138 0.932 . S
H157 C139 0.929 . S
H158 C140 0.928 . S
H159 C142 0.932 . S
C160 C161 1.264 . S
C160 C165 1.479 . S
C160 C170 1.465 . S
C161 C160 1.264 . S
C161 C163 1.339 . S
C161 H188 0.931 . S
C162 C163 1.395 . S
C162 C164 1.320 . S
C163 C161 1.339 . S
C163 C162 1.395 . S
C163 H189 0.929 . S
C164 C162 1.320 . S
C164 C165 1.405 . S
C164 H190 0.930 . S
C165 C160 1.479 . S
C165 C164 1.405 . S
C165 H191 0.931 . S
U166 O167 2.454 . S
U166 O168 2.458 . S
U166 C169 2.984 . S
U166 C170 2.847 . S
U166 C183 2.882 . S
U166 O184 2.441 . S
U166 O185 2.420 . S
U166 O186 2.455 . S
U166 O187 2.449 . S
O167 U166 2.454 . S
O167 C169 1.353 . S
O168 U166 2.458 . S
O168 C169 1.286 . S
C169 U166 2.984 . S
C169 O167 1.353 . S
C169 O168 1.286 . S
C169 C171 1.363 . S
C170 C160 1.465 . S
C170 U166 2.847 . S
C170 O184 1.249 . S
C170 O185 1.202 . S
C171 C169 1.363 . S
C171 C173 1.408 . S
C171 C176 1.342 . S
C172 C173 1.310 . S
C172 C175 1.461 . S
C172 H192 0.932 . S
C173 C171 1.408 . S
C173 C172 1.310 . S
C173 H193 0.930 . S
C174 C175 1.474 . S
C174 C176 1.285 . S
C174 H194 0.929 . S
C175 C172 1.461 . S
C175 C174 1.474 . S
C176 C171 1.342 . S
C176 C174 1.285 . S
C176 H195 0.930 . S
C177 C180 1.424 . S
C177 C182 1.245 . S
C177 C183 1.428 . S
C178 C181 1.260 . S
C178 C182 1.477 . S
C178 H196 0.932 . S
C179 C180 1.384 . S
C179 C181 1.479 . S
C179 H197 0.929 . S
C180 C177 1.424 . S
C180 C179 1.384 . S
C180 H198 0.928 . S
C181 C178 1.260 . S
C181 C179 1.479 . S
C182 C177 1.245 . S
C182 C178 1.477 . S
C182 H199 0.932 . S
C183 U166 2.882 . S
C183 C177 1.428 . S
C183 O186 1.301 . S
C183 O187 1.282 . S
O184 U166 2.441 . S
O184 C170 1.249 . S
O185 U166 2.420 . S
O185 C170 1.202 . S
O186 U166 2.455 . S
O186 C183 1.301 . S
O187 U166 2.449 . S
O187 C183 1.282 . S
H188 C161 0.931 . S
H189 C163 0.929 . S
H190 C164 0.930 . S
H191 C165 0.931 . S
H192 C172 0.932 . S
H193 C173 0.930 . S
H194 C174 0.929 . S
H195 C176 0.930 . S
H196 C178 0.932 . S
H197 C179 0.929 . S
H198 C180 0.928 . S
H199 C182 0.932 . S
C200 C201 1.264 . S
C200 C205 1.479 . S
C200 C210 1.465 . S
C201 C200 1.264 . S
C201 C203 1.339 . S
C201 H228 0.931 . S
C202 C203 1.395 . S
C202 C204 1.320 . S
C203 C201 1.339 . S
C203 C202 1.395 . S
C203 H229 0.929 . S
C204 C202 1.320 . S
C204 C205 1.405 . S
C204 H230 0.930 . S
C205 C200 1.479 . S
C205 C204 1.405 . S
C205 H231 0.931 . S
U206 O207 2.454 . S
U206 O208 2.458 . S
U206 C209 2.984 . S
U206 C210 2.847 . S
U206 C223 2.882 . S
U206 O224 2.441 . S
U206 O225 2.420 . S
U206 O226 2.455 . S
U206 O227 2.449 . S
O207 U206 2.454 . S
O207 C209 1.353 . S
O208 U206 2.458 . S
O208 C209 1.286 . S
C209 U206 2.984 . S
C209 O207 1.353 . S
C209 O208 1.286 . S
C209 C211 1.363 . S
C210 C200 1.465 . S
C210 U206 2.847 . S
C210 O224 1.249 . S
C210 O225 1.202 . S
C211 C209 1.363 . S
C211 C213 1.408 . S
C211 C216 1.342 . S
C212 C213 1.310 . S
C212 C215 1.461 . S
C212 H232 0.932 . S
C213 C211 1.408 . S
C213 C212 1.310 . S
C213 H233 0.930 . S
C214 C215 1.474 . S
C214 C216 1.285 . S
C214 H234 0.929 . S
C215 C212 1.461 . S
C215 C214 1.474 . S
C216 C211 1.342 . S
C216 C214 1.285 . S
C216 H235 0.930 . S
C217 C220 1.424 . S
C217 C222 1.245 . S
C217 C223 1.428 . S
C218 C221 1.260 . S
C218 C222 1.477 . S
C218 H236 0.932 . S
C219 C220 1.384 . S
C219 C221 1.479 . S
C219 H237 0.929 . S
C220 C217 1.424 . S
C220 C219 1.384 . S
C220 H238 0.928 . S
C221 C218 1.260 . S
C221 C219 1.479 . S
C222 C217 1.245 . S
C222 C218 1.477 . S
C222 H239 0.932 . S
C223 U206 2.882 . S
C223 C217 1.428 . S
C223 O226 1.301 . S
C223 O227 1.282 . S
O224 U206 2.441 . S
O224 C210 1.249 . S
O225 U206 2.420 . S
O225 C210 1.202 . S
O226 U206 2.455 . S
O226 C223 1.301 . S
O227 U206 2.449 . S
O227 C223 1.282 . S
H228 C201 0.931 . S
H229 C203 0.929 . S
H230 C204 0.930 . S
H231 C205 0.931 . S
H232 C212 0.932 . S
H233 C213 0.930 . S
H234 C214 0.929 . S
H235 C216 0.930 . S
H236 C218 0.932 . S
H237 C219 0.929 . S
H238 C220 0.928 . S
H239 C222 0.932 . S
C240 C241 1.264 . S
C240 C245 1.479 . S
C240 C250 1.465 . S
C241 C240 1.264 . S
C241 C243 1.339 . S
C241 H268 0.931 . S
C242 C243 1.395 . S
C242 C244 1.320 . S
C243 C241 1.339 . S
C243 C242 1.395 . S
C243 H269 0.929 . S
C244 C242 1.320 . S
C244 C245 1.405 . S
C244 H270 0.930 . S
C245 C240 1.479 . S
C245 C244 1.405 . S
C245 H271 0.931 . S
U246 O247 2.454 . S
U246 O248 2.458 . S
U246 C249 2.984 . S
U246 C250 2.847 . S
U246 C263 2.882 . S
U246 O264 2.441 . S
U246 O265 2.420 . S
U246 O266 2.455 . S
U246 O267 2.449 . S
O247 U246 2.454 . S
O247 C249 1.353 . S
O248 U246 2.458 . S
O248 C249 1.286 . S
C249 U246 2.984 . S
C249 O247 1.353 . S
C249 O248 1.286 . S
C249 C251 1.363 . S
C250 C240 1.465 . S
C250 U246 2.847 . S
C250 O264 1.249 . S
C250 O265 1.202 . S
C251 C249 1.363 . S
C251 C253 1.408 . S
C251 C256 1.342 . S
C252 C253 1.310 . S
C252 C255 1.461 . S
C252 H272 0.932 . S
C253 C251 1.408 . S
C253 C252 1.310 . S
C253 H273 0.930 . S
C254 C255 1.474 . S
C254 C256 1.285 . S
C254 H274 0.929 . S
C255 C252 1.461 . S
C255 C254 1.474 . S
C256 C251 1.342 . S
C256 C254 1.285 . S
C256 H275 0.930 . S
C257 C260 1.424 . S
C257 C262 1.245 . S
C257 C263 1.428 . S
C258 C261 1.260 . S
C258 C262 1.477 . S
C258 H276 0.932 . S
C259 C260 1.384 . S
C259 C261 1.479 . S
C259 H277 0.929 . S
C260 C257 1.424 . S
C260 C259 1.384 . S
C260 H278 0.928 . S
C261 C258 1.260 . S
C261 C259 1.479 . S
C262 C257 1.245 . S
C262 C258 1.477 . S
C262 H279 0.932 . S
C263 U246 2.882 . S
C263 C257 1.428 . S
C263 O266 1.301 . S
C263 O267 1.282 . S
O264 U246 2.441 . S
O264 C250 1.249 . S
O265 U246 2.420 . S
O265 C250 1.202 . S
O266 U246 2.455 . S
O266 C263 1.301 . S
O267 U246 2.449 . S
O267 C263 1.282 . S
H268 C241 0.931 . S
H269 C243 0.929 . S
H270 C244 0.930 . S
H271 C245 0.931 . S
H272 C252 0.932 . S
H273 C253 0.930 . S
H274 C254 0.929 . S
H275 C256 0.930 . S
H276 C258 0.932 . S
H277 C259 0.929 . S
H278 C260 0.928 . S
H279 C262 0.932 . S
C280 C281 1.264 . S
C280 C285 1.479 . S
C280 C290 1.465 . S
C281 C280 1.264 . S
C281 C283 1.339 . S
C281 H308 0.931 . S
C282 C283 1.395 . S
C282 C284 1.320 . S
C283 C281 1.339 . S
C283 C282 1.395 . S
C283 H309 0.929 . S
C284 C282 1.320 . S
C284 C285 1.405 . S
C284 H310 0.930 . S
C285 C280 1.479 . S
C285 C284 1.405 . S
C285 H311 0.931 . S
U286 O287 2.454 . S
U286 O288 2.458 . S
U286 C289 2.984 . S
U286 C290 2.847 . S
U286 C303 2.882 . S
U286 O304 2.441 . S
U286 O305 2.420 . S
U286 O306 2.455 . S
U286 O307 2.449 . S
O287 U286 2.454 . S
O287 C289 1.353 . S
O288 U286 2.458 . S
O288 C289 1.286 . S
C289 U286 2.984 . S
C289 O287 1.353 . S
C289 O288 1.286 . S
C289 C291 1.363 . S
C290 C280 1.465 . S
C290 U286 2.847 . S
C290 O304 1.249 . S
C290 O305 1.202 . S
C291 C289 1.363 . S
C291 C293 1.408 . S
C291 C296 1.342 . S
C292 C293 1.310 . S
C292 C295 1.461 . S
C292 H312 0.932 . S
C293 C291 1.408 . S
C293 C292 1.310 . S
C293 H313 0.930 . S
C294 C295 1.474 . S
C294 C296 1.285 . S
C294 H314 0.929 . S
C295 C292 1.461 . S
C295 C294 1.474 . S
C296 C291 1.342 . S
C296 C294 1.285 . S
C296 H315 0.930 . S
C297 C300 1.424 . S
C297 C302 1.245 . S
C297 C303 1.428 . S
C298 C301 1.260 . S
C298 C302 1.477 . S
C298 H316 0.932 . S
C299 C300 1.384 . S
C299 C301 1.479 . S
C299 H317 0.929 . S
C300 C297 1.424 . S
C300 C299 1.384 . S
C300 H318 0.928 . S
C301 C298 1.260 . S
C301 C299 1.479 . S
C302 C297 1.245 . S
C302 C298 1.477 . S
C302 H319 0.932 . S
C303 U286 2.882 . S
C303 C297 1.428 . S
C303 O306 1.301 . S
C303 O307 1.282 . S
O304 U286 2.441 . S
O304 C290 1.249 . S
O305 U286 2.420 . S
O305 C290 1.202 . S
O306 U286 2.455 . S
O306 C303 1.301 . S
O307 U286 2.449 . S
O307 C303 1.282 . S
H308 C281 0.931 . S
H309 C283 0.929 . S
H310 C284 0.930 . S
H311 C285 0.931 . S
H312 C292 0.932 . S
H313 C293 0.930 . S
H314 C294 0.929 . S
H315 C296 0.930 . S
H316 C298 0.932 . S
H317 C299 0.929 . S
H318 C300 0.928 . S
H319 C302 0.932 . S
H320 C326 0.930 . S
H321 C329 0.931 . S
H322 C331 0.931 . S
H323 C333 0.930 . S
H324 C335 0.930 . S
H325 C337 0.931 . S
C326 H320 0.930 . S
C326 C327 1.380 . S
C326 C328 1.394 1_455 S
C327 C326 1.380 . S
C327 C331 1.382 . S
C328 C326 1.394 1_655 S
C328 C329 1.400 . S
C329 H321 0.931 . S
C329 C328 1.400 . S
C329 C330 1.375 1_655 S
C330 C329 1.375 1_455 S
C330 C331 1.415 . S
C330 C332 1.501 . S
C331 H322 0.931 . S
C331 C327 1.382 . S
C331 C330 1.415 . S
C332 C330 1.501 . S
C332 C333 1.384 . S
C332 C337 1.408 1_455 S
C333 H323 0.930 . S
C333 C332 1.384 . S
C333 C334 1.389 . S
C334 C333 1.389 . S
C334 C335 1.405 . S
C335 H324 0.930 . S
C335 C334 1.405 . S
C335 C336 1.364 1_455 S
C336 C335 1.364 1_655 S
C336 C337 1.400 . S
C337 H325 0.931 . S
C337 C332 1.408 1_655 S
C337 C336 1.400 . S
H338 C344 0.930 . S
H339 C347 0.931 . S
H340 C349 0.931 . S
H341 C351 0.930 . S
H342 C353 0.930 . S
H343 C355 0.931 . S
C344 H338 0.930 . S
C344 C345 1.380 1_455 S
C344 C346 1.394 . S
C345 C344 1.380 1_655 S
C345 C349 1.382 . S
C346 C344 1.394 . S
C346 C347 1.400 . S
C347 H339 0.931 . S
C347 C346 1.400 . S
C347 C348 1.375 . S
C348 C347 1.375 . S
C348 C349 1.415 1_455 S
C348 C350 1.501 . S
C349 H340 0.931 . S
C349 C345 1.382 . S
C349 C348 1.415 1_655 S
C350 C348 1.501 . S
C350 C351 1.384 1_455 S
C350 C355 1.408 . S
C351 H341 0.930 . S
C351 C350 1.384 1_655 S
C351 C352 1.389 . S
C352 C351 1.389 . S
C352 C353 1.405 1_655 S
C353 H342 0.930 . S
C353 C352 1.405 1_455 S
C353 C354 1.364 . S
C354 C353 1.364 . S
C354 C355 1.400 . S
C355 H343 0.931 . S
C355 C350 1.408 . S
C355 C354 1.400 . S
H356 C362 0.930 . S
H357 C365 0.931 . S
H358 C367 0.931 . S
H359 C369 0.930 . S
H360 C371 0.930 . S
H361 C373 0.931 . S
C362 H356 0.930 . S
C362 C363 1.380 . S
C362 C364 1.394 . S
C363 C362 1.380 . S
C363 C367 1.382 . S
C364 C362 1.394 . S
C364 C365 1.400 . S
C365 H357 0.931 . S
C365 C364 1.400 . S
C365 C366 1.375 . S
C366 C365 1.375 . S
C366 C367 1.415 . S
C366 C368 1.501 1_545 S
C367 H358 0.931 . S
C367 C363 1.382 . S
C367 C366 1.415 . S
C368 C366 1.501 1_565 S
C368 C369 1.384 . S
C368 C373 1.408 . S
C369 H359 0.930 . S
C369 C368 1.384 . S
C369 C370 1.389 . S
C370 C369 1.389 . S
C370 C371 1.405 . S
C371 H360 0.930 . S
C371 C370 1.405 . S
C371 C372 1.364 . S
C372 C371 1.364 . S
C372 C373 1.400 . S
C373 H361 0.931 . S
C373 C368 1.408 . S
C373 C372 1.400 . S
H374 C380 0.930 . S
H375 C383 0.931 . S
H376 C385 0.931 . S
H377 C387 0.930 . S
H378 C389 0.930 . S
H379 C391 0.931 . S
C380 H374 0.930 . S
C380 C381 1.380 . S
C380 C382 1.394 . S
C381 C380 1.380 . S
C381 C385 1.382 . S
C382 C380 1.394 . S
C382 C383 1.400 . S
C383 H375 0.931 . S
C383 C382 1.400 . S
C383 C384 1.375 . S
C384 C383 1.375 . S
C384 C385 1.415 . S
C384 C386 1.501 1_554 S
C385 H376 0.931 . S
C385 C381 1.382 . S
C385 C384 1.415 . S
C386 C384 1.501 1_556 S
C386 C387 1.384 . S
C386 C391 1.408 . S
C387 H377 0.930 . S
C387 C386 1.384 . S
C387 C388 1.389 . S
C388 C387 1.389 . S
C388 C389 1.405 . S
C389 H378 0.930 . S
C389 C388 1.405 . S
C389 C390 1.364 . S
C390 C389 1.364 . S
C390 C391 1.400 . S
C391 H379 0.931 . S
C391 C386 1.408 . S
C391 C390 1.400 . S
H392 C398 0.930 . S
H393 C401 0.931 . S
H394 C403 0.931 . S
H395 C405 0.930 . S
H396 C407 0.930 . S
H397 C409 0.931 . S
C398 H392 0.930 . S
C398 C399 1.380 . S
C398 C400 1.394 . S
C399 C398 1.380 . S
C399 C403 1.382 . S
C400 C398 1.394 . S
C400 C401 1.400 . S
C401 H393 0.931 . S
C401 C400 1.400 . S
C401 C402 1.375 . S
C402 C401 1.375 . S
C402 C403 1.415 . S
C402 C404 1.501 1_545 S
C403 H394 0.931 . S
C403 C399 1.382 . S
C403 C402 1.415 . S
C404 C402 1.501 1_565 S
C404 C405 1.384 . S
C404 C409 1.408 . S
C405 H395 0.930 . S
C405 C404 1.384 . S
C405 C406 1.389 . S
C406 C405 1.389 . S
C406 C407 1.405 . S
C407 H396 0.930 . S
C407 C406 1.405 . S
C407 C408 1.364 . S
C408 C407 1.364 . S
C408 C409 1.400 . S
C409 H397 0.931 . S
C409 C404 1.408 . S
C409 C408 1.400 . S
H410 C416 0.930 . S
H411 C419 0.931 . S
H412 C421 0.931 . S
H413 C423 0.930 . S
H414 C425 0.930 . S
H415 C427 0.931 . S
C416 H410 0.930 . S
C416 C417 1.380 . S
C416 C418 1.394 . S
C417 C416 1.380 . S
C417 C421 1.382 . S
C418 C416 1.394 . S
C418 C419 1.400 . S
C419 H411 0.931 . S
C419 C418 1.400 . S
C419 C420 1.375 . S
C420 C419 1.375 . S
C420 C421 1.415 . S
C420 C422 1.501 1_554 S
C421 H412 0.931 . S
C421 C417 1.382 . S
C421 C420 1.415 . S
C422 C420 1.501 1_556 S
C422 C423 1.384 . S
C422 C427 1.408 . S
C423 H413 0.930 . S
C423 C422 1.384 . S
C423 C424 1.389 . S
C424 C423 1.389 . S
C424 C425 1.405 . S
C425 H414 0.930 . S
C425 C424 1.405 . S
C425 C426 1.364 . S
C426 C425 1.364 . S
C426 C427 1.400 . S
C427 H415 0.931 . S
C427 C422 1.408 . S
C427 C426 1.400 . S
C327 C15 1.683 . S
C346 C55 1.685 . S
C336 C101 1.684 . S
C352 C141 1.812 . S
C363 C2 1.529 . S
C388 C61 1.411 . S
C95 C406 1.746 . S
C426 C135 1.463 . S
C372 C42 1.534 . S
C82 C382 1.427 . S
C400 C122 1.861 . S
C417 C21 1.419 . S
C162 C345 1.884 . S
C328 C221 1.885 . S
C255 C354 1.758 . S
C282 C334 1.675 . S
C408 C181 2.049 . S
C418 C202 1.572 . S
C364 C242 1.834 . S
C301 C381 1.477 . S
C399 C215 1.957 . S
C424 C261 1.562 . S
C370 C295 1.794 . S
C175 C390 1.508 . S
