# Generated by pormake.
# Topology eea, (3,6)-cn, num edge types: 1
# Building blocks:
#     Node 0, Type 0, BuildingBlock: BETDIP_clean_linker_0, # of connection points: 3
#     Node 1, Type 0, BuildingBlock: BETDIP_clean_linker_0, # of connection points: 3
#     Node 2, Type 0, BuildingBlock: BETDIP_clean_linker_0, # of connection points: 3
#     Node 3, Type 0, BuildingBlock: BETDIP_clean_linker_0, # of connection points: 3
#     Node 4, Type 0, BuildingBlock: BETDIP_clean_linker_0, # of connection points: 3
#     Node 5, Type 0, BuildingBlock: BETDIP_clean_linker_0, # of connection points: 3
#     Node 6, Type 0, BuildingBlock: BETDIP_clean_linker_0, # of connection points: 3
#     Node 7, Type 0, BuildingBlock: BETDIP_clean_linker_0, # of connection points: 3
#     Node 8, Type 0, BuildingBlock: BETDIP_clean_linker_0, # of connection points: 3
#     Node 9, Type 0, BuildingBlock: BETDIP_clean_linker_0, # of connection points: 3
#     Node 10, Type 0, BuildingBlock: BETDIP_clean_linker_0, # of connection points: 3
#     Node 11, Type 0, BuildingBlock: BETDIP_clean_linker_0, # of connection points: 3
#     Node 12, Type 0, BuildingBlock: BETDIP_clean_linker_0, # of connection points: 3
#     Node 13, Type 0, BuildingBlock: BETDIP_clean_linker_0, # of connection points: 3
#     Node 14, Type 0, BuildingBlock: BETDIP_clean_linker_0, # of connection points: 3
#     Node 15, Type 0, BuildingBlock: BETDIP_clean_linker_0, # of connection points: 3
#     Node 16, Type 0, BuildingBlock: BETDIP_clean_linker_0, # of connection points: 3
#     Node 17, Type 0, BuildingBlock: BETDIP_clean_linker_0, # of connection points: 3
#     Node 18, Type 1, BuildingBlock: KUMJIN_clean_sbu_0, # of connection points: 6
#     Node 19, Type 1, BuildingBlock: KUMJIN_clean_sbu_0, # of connection points: 6
#     Node 20, Type 1, BuildingBlock: KUMJIN_clean_sbu_0, # of connection points: 6
#     Node 21, Type 1, BuildingBlock: KUMJIN_clean_sbu_0, # of connection points: 6
#     Node 22, Type 1, BuildingBlock: KUMJIN_clean_sbu_0, # of connection points: 6
#     Node 23, Type 1, BuildingBlock: KUMJIN_clean_sbu_0, # of connection points: 6
#     Node 24, Type 1, BuildingBlock: KUMJIN_clean_sbu_0, # of connection points: 6
#     Node 25, Type 1, BuildingBlock: KUMJIN_clean_sbu_0, # of connection points: 6
#     Node 26, Type 1, BuildingBlock: KUMJIN_clean_sbu_0, # of connection points: 6
#     Edge 27, Type (0, 1), BuildingBlock: AJUNOK_clean_linker_0, # of connection points: 2
#     Edge 28, Type (0, 1), BuildingBlock: AJUNOK_clean_linker_0, # of connection points: 2
#     Edge 29, Type (0, 1), BuildingBlock: AJUNOK_clean_linker_0, # of connection points: 2
#     Edge 30, Type (0, 1), BuildingBlock: AJUNOK_clean_linker_0, # of connection points: 2
#     Edge 31, Type (0, 1), BuildingBlock: AJUNOK_clean_linker_0, # of connection points: 2
#     Edge 32, Type (0, 1), BuildingBlock: AJUNOK_clean_linker_0, # of connection points: 2
#     Edge 33, Type (0, 1), BuildingBlock: AJUNOK_clean_linker_0, # of connection points: 2
#     Edge 34, Type (0, 1), BuildingBlock: AJUNOK_clean_linker_0, # of connection points: 2
#     Edge 35, Type (0, 1), BuildingBlock: AJUNOK_clean_linker_0, # of connection points: 2
#     Edge 36, Type (0, 1), BuildingBlock: AJUNOK_clean_linker_0, # of connection points: 2
#     Edge 37, Type (0, 1), BuildingBlock: AJUNOK_clean_linker_0, # of connection points: 2
#     Edge 38, Type (0, 1), BuildingBlock: AJUNOK_clean_linker_0, # of connection points: 2
#     Edge 39, Type (0, 1), BuildingBlock: AJUNOK_clean_linker_0, # of connection points: 2
#     Edge 40, Type (0, 1), BuildingBlock: AJUNOK_clean_linker_0, # of connection points: 2
#     Edge 41, Type (0, 1), BuildingBlock: AJUNOK_clean_linker_0, # of connection points: 2
#     Edge 42, Type (0, 1), BuildingBlock: AJUNOK_clean_linker_0, # of connection points: 2
#     Edge 43, Type (0, 1), BuildingBlock: AJUNOK_clean_linker_0, # of connection points: 2
#     Edge 44, Type (0, 1), BuildingBlock: AJUNOK_clean_linker_0, # of connection points: 2
#     Edge 45, Type (0, 1), BuildingBlock: AJUNOK_clean_linker_0, # of connection points: 2
#     Edge 46, Type (0, 1), BuildingBlock: AJUNOK_clean_linker_0, # of connection points: 2
#     Edge 47, Type (0, 1), BuildingBlock: AJUNOK_clean_linker_0, # of connection points: 2
#     Edge 48, Type (0, 1), BuildingBlock: AJUNOK_clean_linker_0, # of connection points: 2
#     Edge 49, Type (0, 1), BuildingBlock: AJUNOK_clean_linker_0, # of connection points: 2
#     Edge 50, Type (0, 1), BuildingBlock: AJUNOK_clean_linker_0, # of connection points: 2
#     Edge 51, Type (0, 1), BuildingBlock: AJUNOK_clean_linker_0, # of connection points: 2
#     Edge 52, Type (0, 1), BuildingBlock: AJUNOK_clean_linker_0, # of connection points: 2
#     Edge 53, Type (0, 1), BuildingBlock: AJUNOK_clean_linker_0, # of connection points: 2
#     Edge 54, Type (0, 1), BuildingBlock: AJUNOK_clean_linker_0, # of connection points: 2
#     Edge 55, Type (0, 1), BuildingBlock: AJUNOK_clean_linker_0, # of connection points: 2
#     Edge 56, Type (0, 1), BuildingBlock: AJUNOK_clean_linker_0, # of connection points: 2
#     Edge 57, Type (0, 1), BuildingBlock: AJUNOK_clean_linker_0, # of connection points: 2
#     Edge 58, Type (0, 1), BuildingBlock: AJUNOK_clean_linker_0, # of connection points: 2
#     Edge 59, Type (0, 1), BuildingBlock: AJUNOK_clean_linker_0, # of connection points: 2
#     Edge 60, Type (0, 1), BuildingBlock: AJUNOK_clean_linker_0, # of connection points: 2
#     Edge 61, Type (0, 1), BuildingBlock: AJUNOK_clean_linker_0, # of connection points: 2
#     Edge 62, Type (0, 1), BuildingBlock: AJUNOK_clean_linker_0, # of connection points: 2
#     Edge 63, Type (0, 1), BuildingBlock: AJUNOK_clean_linker_0, # of connection points: 2
#     Edge 64, Type (0, 1), BuildingBlock: AJUNOK_clean_linker_0, # of connection points: 2
#     Edge 65, Type (0, 1), BuildingBlock: AJUNOK_clean_linker_0, # of connection points: 2
#     Edge 66, Type (0, 1), BuildingBlock: AJUNOK_clean_linker_0, # of connection points: 2
#     Edge 67, Type (0, 1), BuildingBlock: AJUNOK_clean_linker_0, # of connection points: 2
#     Edge 68, Type (0, 1), BuildingBlock: AJUNOK_clean_linker_0, # of connection points: 2
#     Edge 69, Type (0, 1), BuildingBlock: AJUNOK_clean_linker_0, # of connection points: 2
#     Edge 70, Type (0, 1), BuildingBlock: AJUNOK_clean_linker_0, # of connection points: 2
#     Edge 71, Type (0, 1), BuildingBlock: AJUNOK_clean_linker_0, # of connection points: 2
#     Edge 72, Type (0, 1), BuildingBlock: AJUNOK_clean_linker_0, # of connection points: 2
#     Edge 73, Type (0, 1), BuildingBlock: AJUNOK_clean_linker_0, # of connection points: 2
#     Edge 74, Type (0, 1), BuildingBlock: AJUNOK_clean_linker_0, # of connection points: 2
#     Edge 75, Type (0, 1), BuildingBlock: AJUNOK_clean_linker_0, # of connection points: 2
#     Edge 76, Type (0, 1), BuildingBlock: AJUNOK_clean_linker_0, # of connection points: 2
#     Edge 77, Type (0, 1), BuildingBlock: AJUNOK_clean_linker_0, # of connection points: 2
#     Edge 78, Type (0, 1), BuildingBlock: AJUNOK_clean_linker_0, # of connection points: 2
#     Edge 79, Type (0, 1), BuildingBlock: AJUNOK_clean_linker_0, # of connection points: 2
#     Edge 80, Type (0, 1), BuildingBlock: AJUNOK_clean_linker_0, # of connection points: 2
# Relax obj value: 0.026
# Max RMSD: 0.186
# Mean RMSD: 0.131
data_MOF--net-eea--node1-KUMJIN_clean_sbu_0--node2-BETDIP_clean_linker_0--edge1-AJUNOK_clean_linker_0
_symmetry_space_group_name_H-M    P1
_symmetry_Int_Tables_number       1
_symmetry_cell_setting            triclinic
loop_
_symmetry_equiv_pos_as_xyz
'x, y, z'
_cell_length_a     38.974996
_cell_length_b     40.663548
_cell_length_c     52.211102
_cell_angle_alpha  89.471515
_cell_angle_beta   89.493911
_cell_angle_gamma 120.13164
loop_
_atom_site_label
_atom_site_type_symbol
_atom_site_fract_x
_atom_site_fract_y
_atom_site_fract_z
_atom_type_partial_charge
H0 H 0.24042 0.09693 0.37604 0.0
H1 H 0.2918 0.17216 0.43913 0.0
H2 H 0.28591 0.06385 0.44017 0.0
H3 H 0.23717 0.18043 0.43062 0.0
C4 C 0.24117 0.18464 0.40998 0.0
C5 C 0.25392 0.10241 0.39471 0.0
C6 C 0.26216 0.07587 0.4065 0.0
C7 C 0.26248 0.1361 0.40706 0.0
C8 C 0.28274 0.14501 0.43038 0.0
C9 C 0.29266 0.11967 0.44201 0.0
C10 C 0.2808 0.0846 0.43042 0.0
N11 N 0.25092 0.16085 0.39554 0.0
H12 H 0.95541 0.13845 0.37482 0.0
H13 H 0.871 0.10325 0.43743 0.0
H14 H 0.96944 0.21736 0.43389 0.0
H15 H 0.87162 0.0471 0.43113 0.0
C16 C 0.86689 0.04552 0.4106 0.0
C17 C 0.94542 0.14474 0.39258 0.0
C18 C 0.96603 0.18175 0.4025 0.0
C19 C 0.91167 0.11585 0.40551 0.0
C20 C 0.89815 0.12463 0.4281 0.0
C21 C 0.91845 0.16124 0.43834 0.0
C22 C 0.95277 0.18935 0.42566 0.0
N23 N 0.89057 0.07861 0.39511 0.0
H24 H 0.89731 0.81099 0.37155 0.0
H25 H 0.93761 0.77493 0.43687 0.0
H26 H 0.82058 0.76064 0.43749 0.0
H27 H 0.99819 0.83937 0.41983 0.0
C28 C 0.99581 0.82467 0.40207 0.0
C29 C 0.89216 0.79889 0.39074 0.0
C30 C 0.8556 0.78701 0.40335 0.0
C31 C 0.92211 0.79504 0.40289 0.0
C32 C 0.91501 0.77875 0.42767 0.0
C33 C 0.87848 0.76638 0.44035 0.0
C34 C 0.84908 0.77068 0.42802 0.0
N35 N 0.9585 0.8059 0.38965 0.0
H36 H 0.09004 0.19926 0.66373 0.0
H37 H 0.17762 0.24546 0.60292 0.0
H38 H 0.07587 0.25992 0.60029 0.0
H39 H 0.21525 0.26462 0.64429 0.0
C40 C 0.20348 0.23478 0.64927 0.0
C41 C 0.10028 0.21423 0.64551 0.0
C42 C 0.07799 0.22833 0.63311 0.0
C43 C 0.13704 0.22149 0.63505 0.0
C44 C 0.15026 0.24126 0.61148 0.0
C45 C 0.12861 0.25547 0.59884 0.0
C46 C 0.09254 0.24871 0.6098 0.0
N47 N 0.16144 0.21018 0.64848 0.0
H48 H 0.80796 0.88071 0.66222 0.0
H49 H 0.75337 0.90402 0.59918 0.0
H50 H 0.75208 0.79838 0.60238 0.0
H51 H 0.79741 0.96295 0.60579 0.0
C52 C 0.80183 0.96549 0.62631 0.0
C53 C 0.7929 0.87211 0.64412 0.0
C54 C 0.78219 0.83632 0.63378 0.0
C55 C 0.78452 0.8975 0.63116 0.0
C56 C 0.76177 0.88558 0.60885 0.0
C57 C 0.74912 0.84952 0.59883 0.0
C58 C 0.76054 0.82558 0.61086 0.0
N59 N 0.79883 0.93459 0.6411 0.0
H60 H 0.13924 0.92549 0.66292 0.0
H61 H 0.1145 0.84467 0.60328 0.0
H62 H 0.21838 0.95588 0.59771 0.0
H63 H 0.09042 0.80438 0.64113 0.0
C64 C 0.07164 0.81535 0.6478 0.0
C65 C 0.14729 0.91827 0.64477 0.0
C66 C 0.18225 0.94498 0.63172 0.0
C67 C 0.12292 0.88192 0.63479 0.0
C68 C 0.13311 0.87266 0.61107 0.0
C69 C 0.16725 0.89937 0.59734 0.0
C70 C 0.19163 0.93537 0.60791 0.0
N71 N 0.08782 0.85547 0.64854 0.0
H72 H 0.89791 0.42015 0.70836 0.0
H73 H 0.95345 0.49932 0.769 0.0
H74 H 0.94877 0.3915 0.77161 0.0
H75 H 0.89756 0.50593 0.76159 0.0
C76 C 0.90055 0.50939 0.74087 0.0
C77 C 0.91303 0.42705 0.72652 0.0
C78 C 0.92249 0.40154 0.73849 0.0
C79 C 0.92234 0.4614 0.7381 0.0
C80 C 0.94408 0.47174 0.76085 0.0
C81 C 0.95481 0.44716 0.77274 0.0
C82 C 0.94276 0.41164 0.76181 0.0
N83 N 0.9098 0.48526 0.72649 0.0
H84 H 0.6201 0.47429 0.70819 0.0
H85 H 0.53598 0.43844 0.77101 0.0
H86 H 0.63366 0.55283 0.7675 0.0
H87 H 0.53693 0.38274 0.76386 0.0
C88 C 0.53206 0.38117 0.74335 0.0
C89 C 0.6102 0.48049 0.72601 0.0
C90 C 0.63147 0.5172 0.73643 0.0
C91 C 0.5761 0.45161 0.73863 0.0
C92 C 0.56275 0.46005 0.76146 0.0
C93 C 0.58353 0.49637 0.77208 0.0
C94 C 0.6177 0.52467 0.75942 0.0
N95 N 0.55501 0.41453 0.72797 0.0
H96 H 0.56182 0.14743 0.70659 0.0
H97 H 0.60223 0.10375 0.76749 0.0
H98 H 0.48647 0.09212 0.77254 0.0
H99 H 0.61718 0.08195 0.72466 0.0
C100 C 0.63704 0.11155 0.71924 0.0
C101 C 0.55693 0.13359 0.72518 0.0
C102 C 0.52047 0.12074 0.73842 0.0
C103 C 0.58616 0.12653 0.73528 0.0
C104 C 0.57933 0.10811 0.75934 0.0
C105 C 0.54357 0.09577 0.77305 0.0
C106 C 0.51442 0.10217 0.76234 0.0
N107 N 0.62187 0.13696 0.72104 0.0
H108 H 0.75847 0.5425 1.002 0.0
H109 H 0.84065 0.57661 0.93828 0.0
H110 H 0.73989 0.59287 0.93447 0.0
H111 H 0.82436 0.50392 0.96046 0.0
C112 C 0.84123 0.52442 0.97509 0.0
C113 C 0.76721 0.55411 0.98273 0.0
C114 C 0.74452 0.56673 0.96941 0.0
C115 C 0.80155 0.55696 0.97131 0.0
C116 C 0.81326 0.57284 0.94651 0.0
C117 C 0.7915 0.58637 0.93316 0.0
C118 C 0.75704 0.58283 0.94472 0.0
N119 N 0.82612 0.54696 0.98555 0.0
H120 H 0.48687 0.22195 0.99205 0.0
H121 H 0.43338 0.25172 0.93123 0.0
H122 H 0.41599 0.13884 0.93605 0.0
H123 H 0.49138 0.3094 0.93642 0.0
C124 C 0.48907 0.3111 0.95706 0.0
C125 C 0.46855 0.21406 0.97518 0.0
C126 C 0.45244 0.17721 0.96537 0.0
C127 C 0.46249 0.24132 0.96267 0.0
C128 C 0.43869 0.23101 0.94082 0.0
C129 C 0.42135 0.194 0.93128 0.0
C130 C 0.42898 0.16744 0.9434 0.0
N131 N 0.47973 0.27866 0.9726 0.0
H132 H 0.7985 0.25566 0.99102 0.0
H133 H 0.78422 0.17558 0.9331 0.0
H134 H 0.88258 0.2898 0.92808 0.0
H135 H 0.72654 0.21351 0.99242 0.0
C136 C 0.72333 0.18567 0.98963 0.0
C137 C 0.80825 0.24931 0.97321 0.0
C138 C 0.84315 0.27759 0.96068 0.0
C139 C 0.78677 0.21253 0.96294 0.0
C140 C 0.8003 0.20426 0.94037 0.0
C141 C 0.83402 0.23224 0.92716 0.0
C142 C 0.8556 0.26858 0.9377 0.0
N143 N 0.75237 0.18233 0.97505 0.0
H144 H 0.55569 0.75407 0.04573 0.0
H145 H 0.61199 0.83435 0.10591 0.0
H146 H 0.61362 0.72986 0.10692 0.0
H147 H 0.56325 0.84631 0.09948 0.0
C148 C 0.56072 0.84583 0.07878 0.0
C149 C 0.57196 0.76194 0.06347 0.0
C150 C 0.58523 0.73849 0.07429 0.0
C151 C 0.57975 0.79574 0.07541 0.0
C152 C 0.60261 0.80683 0.09775 0.0
C153 C 0.61452 0.78305 0.10943 0.0
C154 C 0.60532 0.74877 0.09768 0.0
N155 N 0.56514 0.81853 0.06446 0.0
H156 H 0.28514 0.80636 0.04003 0.0
H157 H 0.2011 0.76707 0.10297 0.0
H158 H 0.29675 0.88259 0.10056 0.0
H159 H 0.20045 0.71106 0.09362 0.0
C160 C 0.19559 0.7115 0.07318 0.0
C161 C 0.27496 0.8117 0.05806 0.0
C162 C 0.29555 0.84812 0.06895 0.0
C163 C 0.24107 0.78209 0.07039 0.0
C164 C 0.22743 0.78943 0.09349 0.0
C165 C 0.24705 0.82567 0.10433 0.0
C166 C 0.28128 0.85465 0.0921 0.0
N167 N 0.21993 0.74566 0.05884 0.0
H168 H 0.22419 0.47478 0.03568 0.0
H169 H 0.26364 0.43595 0.09993 0.0
H170 H 0.15051 0.43066 0.10336 0.0
H171 H 0.32719 0.5099 0.07676 0.0
C172 C 0.32258 0.48911 0.06227 0.0
C173 C 0.2195 0.46344 0.05507 0.0
C174 C 0.18391 0.45364 0.06832 0.0
C175 C 0.24888 0.45812 0.06674 0.0
C176 C 0.24189 0.4418 0.09154 0.0
C177 C 0.20577 0.43047 0.10464 0.0
C178 C 0.1778 0.43788 0.09314 0.0
N179 N 0.28369 0.46584 0.05262 0.0
H180 H 0.42762 0.87286 0.33792 0.0
H181 H 0.50865 0.90246 0.27393 0.0
H182 H 0.41188 0.92477 0.27021 0.0
H183 H 0.49343 0.83263 0.29668 0.0
C184 C 0.50992 0.85308 0.31142 0.0
C185 C 0.43669 0.88419 0.31862 0.0
C186 C 0.41487 0.89752 0.30505 0.0
C187 C 0.4705 0.88582 0.30736 0.0
C188 C 0.48251 0.90108 0.28245 0.0
C189 C 0.46214 0.91612 0.26904 0.0
C190 C 0.42797 0.91349 0.28038 0.0
N191 N 0.49427 0.87515 0.32187 0.0
H192 H 0.143 0.54838 0.32982 0.0
H193 H 0.0987 0.58265 0.26596 0.0
H194 H 0.08922 0.47303 0.26644 0.0
H195 H 0.0872 0.61411 0.29842 0.0
C196 C 0.11607 0.62711 0.30739 0.0
C197 C 0.12881 0.5422 0.31135 0.0
C198 C 0.11665 0.5069 0.29977 0.0
C199 C 0.12176 0.56937 0.29957 0.0
C200 C 0.10319 0.56148 0.27564 0.0
C201 C 0.09108 0.52666 0.2637 0.0
C202 C 0.09822 0.49974 0.27578 0.0
N203 N 0.1342 0.60471 0.31179 0.0
H204 H 0.48221 0.58952 0.33271 0.0
H205 H 0.44511 0.51255 0.26975 0.0
H206 H 0.55408 0.61973 0.26383 0.0
H207 H 0.38339 0.52662 0.28966 0.0
C208 C 0.386 0.51059 0.30556 0.0
C209 C 0.48744 0.58302 0.31348 0.0
C210 C 0.52209 0.60883 0.29976 0.0
C211 C 0.45914 0.54889 0.30233 0.0
C212 C 0.46614 0.53981 0.27766 0.0
C213 C 0.5009 0.56488 0.26387 0.0
C214 C 0.52808 0.59965 0.27485 0.0
N215 N 0.424 0.52327 0.31615 0.0
Eu216 Eu 0.49717 0.99233 0.99007 0.0
C217 C 0.56453 0.12147 0.07229 0.0
C218 C 0.63518 0.14526 0.07052 0.0
C219 C 0.61064 0.18734 0.08273 0.0
C220 C 0.59577 0.11557 0.06728 0.0
C221 C 0.5715 0.15699 0.08102 0.0
C222 C 0.64247 0.18149 0.07744 0.0
C223 C 0.50111 0.1283 0.08924 0.0
N224 N 0.52724 0.09137 0.07088 0.0
C225 C 0.4958 0.09369 0.0804 0.0
C226 C 0.53904 0.16035 0.08899 0.0
Eu227 Eu 0.51959 0.03363 0.05526 0.0
N228 N 0.58752 0.08008 0.061 0.0
C229 C 0.61729 0.07161 0.05992 0.0
C230 C 0.66593 0.13725 0.06769 0.0
C231 C 0.65686 0.10008 0.06286 0.0
H232 H 0.46642 0.06891 0.08065 0.0
H233 H 0.68035 0.09334 0.0612 0.0
H234 H 0.67254 0.20477 0.07967 0.0
H235 H 0.47596 0.13021 0.09625 0.0
H236 H 0.61104 0.04327 0.05585 0.0
H237 H 0.33696 0.93411 0.98411 0.0
H238 H 0.69661 0.15925 0.06995 0.0
H239 H 0.55047 0.954 0.96913 0.0
H240 H 0.40685 0.98435 0.98819 0.0
H241 H 0.53987 0.89107 0.95638 0.0
H242 H 0.61662 0.21501 0.08905 0.0
H243 H 0.31992 0.86741 0.97776 0.0
H244 H 0.34318 0.82071 0.9701 0.0
H245 H 0.54312 0.18709 0.09593 0.0
H246 H 0.3985 0.80898 0.96236 0.0
N247 N 0.42933 0.94645 0.98488 0.0
C248 C 0.39996 0.95545 0.98528 0.0
C249 C 0.35071 0.88938 0.97951 0.0
C250 C 0.38117 0.8808 0.97733 0.0
C251 C 0.36022 0.92701 0.983 0.0
C252 C 0.42073 0.91044 0.97988 0.0
H253 H 0.47195 0.83523 0.95656 0.0
N254 N 0.48934 0.93351 0.9768 0.0
C255 C 0.51484 0.89419 0.96191 0.0
C256 C 0.45175 0.90375 0.97567 0.0
C257 C 0.52075 0.92973 0.96903 0.0
C258 C 0.47646 0.86272 0.96212 0.0
C259 C 0.44424 0.86738 0.96862 0.0
O260 O 0.53109 0.00934 0.95393 0.0
O261 O 0.53955 0.04045 0.01426 0.0
O262 O 0.50516 0.07203 0.0316 0.0
O263 O 0.47519 0.03439 0.99564 0.0
O264 O 0.56419 0.01998 0.98813 0.0
O265 O 0.47699 0.01145 0.95716 0.0
O266 O 0.48415 0.01211 0.09072 0.0
O267 O 0.47661 0.98592 0.0309 0.0
O268 O 0.50821 0.95295 0.01518 0.0
O269 O 0.54438 0.99409 0.04784 0.0
O270 O 0.45291 0.00772 0.05663 0.0
O271 O 0.53961 0.01299 0.08736 0.0
C272 C 0.57201 0.04561 1.00505 0.0
C273 C 0.49456 0.9999 0.91607 0.0
C274 C 0.49963 0.00834 0.86933 0.0
C275 C 0.50985 0.02371 0.89412 0.0
C276 C 0.47342 0.96904 0.86698 0.0
C277 C 0.46866 0.96083 0.9131 0.0
C278 C 0.45816 0.94556 0.8887 0.0
C279 C 0.48497 0.06451 1.01003 0.0
C280 C 0.50579 0.0158 0.94197 0.0
C281 C 0.40489 0.83726 0.96742 0.0
C282 C 0.37339 0.84395 0.97181 0.0
C283 C 0.44437 0.98196 0.0397 0.0
C284 C 0.51973 0.02024 0.12875 0.0
C285 C 0.50752 0.99462 0.14979 0.0
C286 C 0.5172 0.00824 0.17501 0.0
C287 C 0.53833 0.04779 0.17875 0.0
C288 C 0.54152 0.05944 0.13306 0.0
C289 C 0.55053 0.07309 0.15792 0.0
C290 C 0.53119 0.96171 0.03545 0.0
C291 C 0.50985 0.00605 0.10241 0.0
H292 H 0.52989 0.05395 0.8963 0.0
H293 H 0.46427 0.95649 0.84828 0.0
H294 H 0.4564 0.94215 0.92962 0.0
H295 H 0.43796 0.91538 0.8866 0.0
H296 H 0.49098 0.96426 0.14652 0.0
H297 H 0.54513 0.05923 0.19787 0.0
H298 H 0.55151 0.07953 0.11723 0.0
H299 H 0.56696 0.10343 0.16107 0.0
Eu300 Eu 0.04249 0.5059 0.98635 0.0
C301 C 0.89799 0.44268 0.06186 0.0
C302 C 0.87798 0.49014 0.05918 0.0
C303 C 0.82867 0.42411 0.06825 0.0
C304 C 0.90757 0.47992 0.05748 0.0
C305 C 0.85867 0.41458 0.06814 0.0
C306 C 0.83831 0.46185 0.06375 0.0
C307 C 0.88246 0.37106 0.07697 0.0
N308 N 0.92776 0.4346 0.06206 0.0
C309 C 0.92101 0.4 0.0708 0.0
C310 C 0.85101 0.37817 0.07519 0.0
Eu311 Eu 0.9919 0.4844 0.04999 0.0
N312 N 0.94624 0.5066 0.0535 0.0
C313 C 0.95781 0.54436 0.05341 0.0
C314 C 0.88939 0.52866 0.05734 0.0
C315 C 0.92957 0.55592 0.05503 0.0
H316 H 0.94532 0.39444 0.07206 0.0
H317 H 0.93882 0.58586 0.05423 0.0
H318 H 0.8151 0.46909 0.06477 0.0
H319 H 0.87703 0.34333 0.08309 0.0
H320 H 0.9887 0.56576 0.05133 0.0
H321 H 0.06497 0.38306 0.98475 0.0
H322 H 0.86758 0.53769 0.05852 0.0
H323 H 0.10684 0.59466 0.9659 0.0
H324 H 0.02638 0.41548 0.98565 0.0
H325 H 0.17924 0.6364 0.95922 0.0
H326 H 0.79818 0.40282 0.07269 0.0
H327 H 0.13823 0.42036 0.98289 0.0
H328 H 0.2003 0.48404 0.97933 0.0
H329 H 0.8212 0.35579 0.08015 0.0
H330 H 0.23162 0.55327 0.97289 0.0
N331 N 0.077 0.47141 0.98432 0.0
C332 C 0.05821 0.43254 0.98451 0.0
C333 C 0.12139 0.43494 0.98306 0.0
C334 C 0.14045 0.47462 0.98159 0.0
C335 C 0.08006 0.41381 0.98405 0.0
C336 C 0.11713 0.49224 0.98191 0.0
H337 H 0.22402 0.6103 0.96501 0.0
N338 N 0.11123 0.54677 0.97758 0.0
C339 C 0.16726 0.607 0.96506 0.0
C340 C 0.13479 0.53115 0.97864 0.0
C341 C 0.12643 0.58349 0.9691 0.0
C342 C 0.19239 0.59215 0.96834 0.0
C343 C 0.17617 0.55354 0.97449 0.0
O344 O 0.04154 0.53254 0.95011 0.0
O345 O 0.9913 0.50038 1.00913 0.0
O346 O 0.95117 0.43453 0.02552 0.0
O347 O 0.98847 0.44569 0.98768 0.0
O348 O 1.01689 0.54535 0.98346 0.0
O349 O 0.02262 0.47257 0.95143 0.0
O350 O 1.00689 0.46662 0.08575 0.0
O351 O 0.04444 0.4914 0.02758 0.0
O352 O 0.07949 0.55761 1.01038 0.0
O353 O 0.03904 0.54756 0.04652 0.0
O354 O 1.01659 0.44459 0.05197 0.0
O355 O 1.00697 0.5198 0.08394 0.0
C356 C 0.9883 0.52763 0.99994 0.0
C357 C 0.05055 0.50574 0.91249 0.0
C358 C 0.0473 0.49671 0.86622 0.0
C359 C 0.02831 0.49175 0.89018 0.0
C360 C 0.08904 0.5162 0.865 0.0
C361 C 0.09205 0.52397 0.91095 0.0
C362 C 0.11115 0.52928 0.88728 0.0
C363 C 0.95707 0.42442 1.00264 0.0
C364 C 0.02981 0.50169 0.93697 0.0
C365 C 0.19973 0.53644 0.9756 0.0
C366 C 0.1819 0.49703 0.97919 0.0
C367 C 0.04646 0.46345 0.0366 0.0
C368 C 0.99206 0.48753 0.1239 0.0
C369 C 1.01575 0.49722 0.14571 0.0
C370 C 0.99832 0.48816 0.17038 0.0
C371 C 0.95673 0.46977 0.17282 0.0
C372 C 0.9507 0.46946 0.12671 0.0
C373 C 0.93317 0.46063 0.1511 0.0
C374 C 0.07098 0.56887 0.03199 0.0
C375 C 1.01106 0.49578 0.09845 0.0
H376 H 0.99618 0.47703 0.89153 0.0
H377 H 0.10469 0.52185 0.84681 0.0
H378 H 0.10976 0.53445 0.92787 0.0
H379 H 0.14324 0.54397 0.88617 0.0
H380 H 0.04776 0.51211 0.1434 0.0
H381 H 0.94241 0.46223 0.19154 0.0
H382 H 0.93201 0.46216 0.11015 0.0
H383 H 0.9012 0.44652 0.15317 0.0
Eu384 Eu 0.54438 0.51117 0.04815 0.0
C385 C 0.47002 0.5782 0.97486 0.0
C386 C 0.40005 0.53095 0.97507 0.0
C387 C 0.42105 0.59784 0.96904 0.0
C388 C 0.44008 0.54067 0.97734 0.0
C389 C 0.46092 0.60714 0.97015 0.0
C390 C 0.39067 0.55981 0.9715 0.0
C391 C 0.53128 0.65177 0.96585 0.0
N392 N 0.50821 0.58618 0.97579 0.0
C393 C 0.5388 0.62205 0.9704 0.0
C394 C 0.49218 0.64438 0.96602 0.0
Eu395 Eu 0.51846 0.53478 0.98527 0.0
N396 N 0.45016 0.51347 0.9806 0.0
C397 C 0.42196 0.47585 0.97976 0.0
C398 C 0.37077 0.49246 0.97566 0.0
C399 C 0.38185 0.46479 0.97755 0.0
H400 H 0.56907 0.62785 0.97044 0.0
H401 H 0.3595 0.43492 0.97754 0.0
H402 H 0.36006 0.55293 0.96997 0.0
H403 H 0.5556 0.68034 0.96222 0.0
H404 H 0.43014 0.45422 0.98147 0.0
H405 H 0.70511 0.60464 0.05276 0.0
H406 H 0.33967 0.48381 0.97403 0.0
H407 H 0.49071 0.42125 0.06943 0.0
H408 H 0.63536 0.58868 0.04999 0.0
H409 H 0.50037 0.3674 0.0811 0.0
H410 H 0.41342 0.61971 0.96567 0.0
H411 H 0.72124 0.55331 0.05761 0.0
H412 H 0.697 0.48368 0.0645 0.0
H413 H 0.48642 0.66743 0.96238 0.0
H414 H 0.64107 0.41886 0.07237 0.0
N415 N 0.6121 0.52903 0.05231 0.0
C416 C 0.64191 0.56609 0.05219 0.0
C417 C 0.69053 0.54619 0.05636 0.0
C418 C 0.65968 0.5084 0.05837 0.0
C419 C 0.68155 0.57522 0.05373 0.0
C420 C 0.62025 0.50071 0.05644 0.0
H421 H 0.56761 0.37537 0.07922 0.0
N422 N 0.55162 0.45878 0.0604 0.0
C423 C 0.52553 0.39445 0.07521 0.0
C424 C 0.58894 0.46433 0.06067 0.0
C425 C 0.52016 0.42498 0.06863 0.0
C426 C 0.56351 0.39901 0.07403 0.0
C427 C 0.59594 0.43451 0.06719 0.0
O428 O 0.51028 0.49631 0.08403 0.0
O429 O 0.49941 0.5169 0.02561 0.0
O430 O 0.5239 0.57869 0.0135 0.0
O431 O 0.56689 0.575 0.04257 0.0
O432 O 0.47725 0.47151 0.05064 0.0
O433 O 0.56717 0.54801 0.0814 0.0
O434 O 0.55254 0.55503 0.94945 0.0
O435 O 0.56364 0.5284 1.00737 0.0
O436 O 0.53494 0.46363 0.02186 0.0
O437 O 0.49971 0.47168 0.98852 0.0
O438 O 0.58503 0.57513 0.98315 0.0
O439 O 0.49805 0.5005 0.95086 0.0
C440 C 0.46755 0.4892 0.03423 0.0
C441 C 0.54718 0.51693 0.12178 0.0
C442 C 0.54307 0.51921 0.16839 0.0
C443 C 0.5351 0.52821 0.14384 0.0
C444 C 0.56342 0.49889 0.17043 0.0
C445 C 0.56772 0.49703 0.12429 0.0
C446 C 0.5757 0.488 0.14851 0.0
C447 C 0.54992 0.59307 0.03206 0.0
C448 C 0.53741 0.52532 0.09631 0.0
C449 C 0.63508 0.4415 0.06771 0.0
C450 C 0.66692 0.47841 0.06325 0.0
C451 C 0.59511 0.55671 0.99868 0.0
C452 C 0.51732 0.53328 0.91102 0.0
C453 C 0.53196 0.52392 0.8893 0.0
C454 C 0.52394 0.532 0.86452 0.0
C455 C 0.50033 0.54897 0.86188 0.0
C456 C 0.49396 0.55028 0.90802 0.0
C457 C 0.48546 0.55798 0.88351 0.0
C458 C 0.51359 0.45211 1.00082 0.0
C459 C 0.52733 0.52556 0.93655 0.0
H460 H 0.52002 0.54435 0.14182 0.0
H461 H 0.56972 0.49129 0.18903 0.0
H462 H 0.57755 0.48842 0.10759 0.0
H463 H 0.5914 0.47245 0.15031 0.0
H464 H 0.54937 0.5101 0.89176 0.0
H465 H 0.49375 0.55566 0.84307 0.0
H466 H 0.48239 0.55759 0.92455 0.0
H467 H 0.46745 0.57116 0.88126 0.0
Eu468 Eu 0.16469 0.32139 0.32026 0.0
C469 C 0.23485 0.45472 0.39658 0.0
C470 C 0.30525 0.47686 0.39635 0.0
C471 C 0.28209 0.52157 0.40338 0.0
C472 C 0.26564 0.4474 0.39358 0.0
C473 C 0.24263 0.49169 0.40209 0.0
C474 C 0.31336 0.51415 0.40055 0.0
C475 C 0.17196 0.46613 0.40715 0.0
N476 N 0.19714 0.42511 0.39566 0.0
C477 C 0.16578 0.42992 0.40186 0.0
C478 C 0.21054 0.49727 0.40693 0.0
Eu479 Eu 0.18895 0.36527 0.38453 0.0
N480 N 0.25673 0.41101 0.38981 0.0
C481 C 0.2857 0.40154 0.3908 0.0
C482 C 0.33535 0.46766 0.39587 0.0
C483 C 0.32543 0.42971 0.39367 0.0
H484 H 0.13589 0.40593 0.40185 0.0
H485 H 0.34839 0.42215 0.39389 0.0
H486 H 0.34363 0.53722 0.40243 0.0
H487 H 0.147 0.47001 0.41137 0.0
H488 H 0.27848 0.37239 0.38883 0.0
H489 H 1.00344 0.25658 0.31618 0.0
H490 H 0.36616 0.48942 0.39798 0.0
H491 H 0.21921 0.28721 0.29488 0.0
H492 H 0.07267 0.30882 0.31877 0.0
H493 H 0.21139 0.22555 0.28165 0.0
H494 H 0.28871 0.55026 0.40735 0.0
H495 H 0.98908 0.19043 0.31099 0.0
H496 H 1.0151 0.14586 0.30307 0.0
H497 H 0.21527 0.52526 0.41118 0.0
H498 H 0.07213 0.13735 0.29352 0.0
N499 N 0.09738 0.27289 0.31612 0.0
C500 C 0.06688 0.28027 0.31643 0.0
C501 C 0.01955 0.21334 0.3122 0.0
C502 C 0.0511 0.20636 0.30974 0.0
C503 C 0.02753 0.25062 0.31499 0.0
C504 C 0.09018 0.23723 0.3116 0.0
H505 H 0.14551 0.16716 0.28478 0.0
N506 N 0.15882 0.26352 0.30629 0.0
C507 C 0.18607 0.22696 0.28891 0.0
C508 C 0.12205 0.23237 0.30644 0.0
C509 C 0.19043 0.26178 0.29644 0.0
C510 C 0.14886 0.19405 0.29076 0.0
C511 C 0.11603 0.19662 0.29902 0.0
O512 O 0.20005 0.34485 0.28504 0.0
O513 O 0.20846 0.36911 0.34391 0.0
O514 O 0.18107 0.40472 0.35777 0.0
O515 O 0.14026 0.36181 0.32718 0.0
O516 O 0.23171 0.34741 0.31813 0.0
O517 O 0.1411 0.33658 0.28703 0.0
O518 O 0.15405 0.34895 0.42016 0.0
O519 O 0.14502 0.31658 0.36127 0.0
O520 O 0.17909 0.28356 0.34466 0.0
O521 O 0.21038 0.32265 0.37981 0.0
O522 O 0.12254 0.34061 0.3862 0.0
O523 O 0.20865 0.34744 0.41836 0.0
C524 C 0.24069 0.37308 0.33519 0.0
C525 C 0.16511 0.33103 0.24636 0.0
C526 C 0.16885 0.34044 0.19973 0.0
C527 C 0.17496 0.35536 0.2247 0.0
C528 C 0.1542 0.30123 0.19693 0.0
C529 C 0.14922 0.29192 0.24288 0.0
C530 C 0.1442 0.27722 0.21833 0.0
C531 C 0.15507 0.39478 0.33919 0.0
C532 C 0.17224 0.34645 0.2725 0.0
C533 C 0.07735 0.16517 0.29883 0.0
C534 C 0.04489 0.17003 0.30425 0.0
C535 C 0.11328 0.31377 0.37003 0.0
C536 C 0.18882 0.35892 0.45872 0.0
C537 C 0.17644 0.33455 0.48042 0.0
C538 C 0.18493 0.34958 0.50532 0.0
C539 C 0.20528 0.38934 0.50805 0.0
C540 C 0.20969 0.39839 0.46198 0.0
C541 C 0.21773 0.41345 0.48654 0.0
C542 C 0.20012 0.292 0.3659 0.0
C543 C 0.1791 0.34295 0.43284 0.0
H544 H 0.18675 0.38556 0.22726 0.0
H545 H 0.15038 0.28903 0.17809 0.0
H546 H 0.14087 0.2727 0.25912 0.0
H547 H 0.13249 0.24705 0.21587 0.0
H548 H 0.16048 0.30401 0.47789 0.0
H549 H 0.21119 0.40187 0.52686 0.0
H550 H 0.21949 0.41754 0.44559 0.0
H551 H 0.23345 0.44397 0.48892 0.0
Eu552 Eu 0.71587 0.84156 0.32215 0.0
C553 C 0.56854 0.77489 0.39326 0.0
C554 C 0.54927 0.82303 0.3933 0.0
C555 C 0.49894 0.75626 0.39788 0.0
C556 C 0.57878 0.81273 0.39138 0.0
C557 C 0.52864 0.74632 0.39725 0.0
C558 C 0.50924 0.79454 0.39588 0.0
C559 C 0.55086 0.70083 0.40248 0.0
N560 N 0.59794 0.76625 0.39288 0.0
C561 C 0.59001 0.7302 0.39865 0.0
C562 C 0.51996 0.70882 0.40139 0.0
Eu563 Eu 0.66304 0.81725 0.38486 0.0
N564 N 0.61773 0.8396 0.38902 0.0
C565 C 0.62948 0.87732 0.39033 0.0
C566 C 0.56099 0.86168 0.39335 0.0
C567 C 0.60131 0.88892 0.39234 0.0
H568 H 0.61393 0.72402 0.39934 0.0
H569 H 0.61071 0.91887 0.39282 0.0
H570 H 0.48613 0.80189 0.39708 0.0
H571 H 0.54454 0.6721 0.40627 0.0
H572 H 0.66049 0.89867 0.38925 0.0
H573 H 0.78614 0.75423 0.32039 0.0
H574 H 0.53924 0.87076 0.39476 0.0
H575 H 0.75271 0.93006 0.29881 0.0
H576 H 0.7306 0.7669 0.32231 0.0
H577 H 0.81771 0.9855 0.28663 0.0
H578 H 0.46806 0.73467 0.40063 0.0
H579 H 0.85504 0.80769 0.31525 0.0
H580 H 0.90115 0.87769 0.30741 0.0
H581 H 0.48967 0.68605 0.4045 0.0
H582 H 0.9098 0.94092 0.2981 0.0
N583 N 0.76747 0.82684 0.31907 0.0
C584 C 0.7604 0.7904 0.31987 0.0
C585 C 0.8307 0.81336 0.31605 0.0
C586 C 0.83747 0.85042 0.31324 0.0
C587 C 0.79187 0.78312 0.31885 0.0
C588 C 0.80473 0.85622 0.31459 0.0
H589 H 0.87869 0.98121 0.28966 0.0
N590 N 0.77692 0.89529 0.30921 0.0
C591 C 0.81591 0.95935 0.29321 0.0
C592 C 0.80964 0.89168 0.30951 0.0
C593 C 0.77916 0.92792 0.30007 0.0
C594 C 0.85028 0.95687 0.29505 0.0
C595 C 0.84734 0.92248 0.30276 0.0
O596 O 0.69698 0.85346 0.28568 0.0
O597 O 0.66368 0.83429 0.34444 0.0
O598 O 0.62474 0.77246 0.35651 0.0
O599 O 0.6732 0.77731 0.3279 0.0
O600 O 0.68711 0.87841 0.31837 0.0
O601 O 0.70299 0.80364 0.28976 0.0
O602 O 0.67425 0.79516 0.42005 0.0
O603 O 0.71672 0.8257 0.36329 0.0
O604 O 0.75338 0.89171 0.34722 0.0
O605 O 0.71079 0.88058 0.38244 0.0
O606 O 0.68853 0.77805 0.38696 0.0
O607 O 0.67441 0.8485 0.42059 0.0
C608 C 0.65925 0.86064 0.33524 0.0
C609 C 0.71499 0.83264 0.24878 0.0
C610 C 0.70877 0.82969 0.20226 0.0
C611 C 0.69133 0.82059 0.22694 0.0
C612 C 0.75041 0.85029 0.19987 0.0
C613 C 0.75641 0.85298 0.24601 0.0
C614 C 0.77399 0.86168 0.22163 0.0
C615 C 0.63694 0.75838 0.3382 0.0
C616 C 0.69588 0.82467 0.2742 0.0
C617 C 0.88048 0.91748 0.3029 0.0
C618 C 0.87556 0.88148 0.30818 0.0
C619 C 0.71891 0.79773 0.3721 0.0
C620 C 0.65537 0.81116 0.45872 0.0
C621 C 0.6767 0.82006 0.48158 0.0
C622 C 0.6567 0.80766 0.50537 0.0
C623 C 0.61501 0.78569 0.50586 0.0
C624 C 0.61382 0.79005 0.45967 0.0
C625 C 0.59379 0.77725 0.48314 0.0
C626 C 0.74396 0.90212 0.3689 0.0
C627 C 0.67701 0.82268 0.4341 0.0
H628 H 0.65936 0.80398 0.22927 0.0
H629 H 0.76474 0.85793 0.18116 0.0
H630 H 0.7751 0.86218 0.26261 0.0
H631 H 0.80599 0.87755 0.2196 0.0
H632 H 0.70884 0.83678 0.48081 0.0
H633 H 0.5988 0.77476 0.52379 0.0
H634 H 0.59687 0.78311 0.44234 0.0
H635 H 0.56171 0.76051 0.48372 0.0
Eu636 Eu 0.21548 0.84643 0.38182 0.0
C637 C 0.14734 0.91725 0.30567 0.0
C638 C 0.07639 0.87395 0.30563 0.0
C639 C 0.1026 0.94146 0.29771 0.0
C640 C 0.11536 0.88089 0.30887 0.0
C641 C 0.1414 0.94785 0.29955 0.0
C642 C 0.07013 0.90455 0.30072 0.0
C643 C 0.21255 0.98822 0.29562 0.0
N644 N 0.18441 0.92231 0.30723 0.0
C645 C 0.21692 0.95691 0.30147 0.0
C646 C 0.17464 0.98378 0.29488 0.0
Eu647 Eu 0.18943 0.86823 0.31846 0.0
N648 N 0.12249 0.85194 0.31325 0.0
C649 C 0.09232 0.81513 0.31247 0.0
C650 C 0.04505 0.83632 0.30634 0.0
C651 C 0.05316 0.80675 0.3092 0.0
H652 H 0.24633 0.96061 0.30208 0.0
H653 H 0.02925 0.77748 0.30912 0.0
H654 H 0.04039 0.89983 0.29846 0.0
H655 H 0.23841 0.01575 0.29165 0.0
H656 H 0.09822 0.79207 0.31481 0.0
H657 H 0.3757 0.94187 0.38795 0.0
H658 H 1.01469 0.82975 0.30386 0.0
H659 H 0.16189 0.75483 0.39985 0.0
H660 H 0.30586 0.92505 0.38402 0.0
H661 H 0.17243 0.70141 0.41125 0.0
H662 H 0.09741 0.96468 0.2933 0.0
H663 H 0.39268 0.8913 0.39392 0.0
H664 H 0.36938 0.82192 0.40093 0.0
H665 H 0.17133 0.00804 0.29022 0.0
H666 H 0.31402 0.75649 0.40759 0.0
N667 N 0.28329 0.8654 0.38689 0.0
C668 C 0.3127 0.90266 0.38669 0.0
C669 C 0.3619 0.88373 0.39218 0.0
C670 C 0.33142 0.84576 0.39405 0.0
C671 C 0.35243 0.91234 0.3889 0.0
C672 C 0.29187 0.83744 0.39146 0.0
H673 H 0.24051 0.71145 0.41209 0.0
N674 N 0.22326 0.79424 0.39372 0.0
C675 C 0.19756 0.72916 0.40666 0.0
C676 C 0.26086 0.80067 0.39506 0.0
C677 C 0.19169 0.75943 0.40025 0.0
C678 C 0.23603 0.73492 0.40705 0.0
C679 C 0.26832 0.77113 0.40153 0.0
O680 O 0.18196 0.83005 0.41797 0.0
O681 O 0.17046 0.85207 0.3592 0.0
O682 O 0.19594 0.91366 0.34566 0.0
O683 O 0.23816 0.9102 0.37548 0.0
O684 O 0.14844 0.80732 0.38462 0.0
O685 O 0.23639 0.88414 0.41475 0.0
O686 O 0.22276 0.88382 0.28225 0.0
O687 O 0.23424 0.86185 0.34099 0.0
O688 O 0.20653 0.79939 0.35509 0.0
O689 O 0.16563 0.80442 0.32481 0.0
O690 O 0.25627 0.90706 0.31556 0.0
O691 O 0.16695 0.83093 0.28541 0.0
C692 C 0.13849 0.82476 0.36817 0.0
C693 C 0.2188 0.85398 0.45556 0.0
C694 C 0.21537 0.85784 0.50219 0.0
C695 C 0.20599 0.86498 0.47746 0.0
C696 C 0.23802 0.83982 0.5045 0.0
C697 C 0.24145 0.83622 0.45839 0.0
C698 C 0.25098 0.82919 0.48275 0.0
C699 C 0.2216 0.9283 0.36442 0.0
C700 C 0.20763 0.86036 0.42992 0.0
C701 C 0.30766 0.77889 0.40295 0.0
C702 C 0.33918 0.81615 0.39916 0.0
C703 C 0.26593 0.88934 0.33194 0.0
C704 C 0.18512 0.8617 0.24482 0.0
C705 C 0.19849 0.85201 0.22259 0.0
C706 C 0.18896 0.85979 0.19814 0.0
C707 C 0.16651 0.87807 0.19634 0.0
C708 C 0.16224 0.87932 0.24254 0.0
C709 C 0.15312 0.88755 0.21841 0.0
C710 C 0.18073 0.78531 0.33629 0.0
C711 C 0.19601 0.85419 0.27021 0.0
H712 H 0.18913 0.87937 0.47519 0.0
H713 H 0.24545 0.83362 0.52319 0.0
H714 H 0.25166 0.82768 0.44182 0.0
H715 H 0.26834 0.81532 0.48479 0.0
H716 H 0.21602 0.8382 0.22434 0.0
H717 H 0.15964 0.88541 0.17784 0.0
H718 H 0.15165 0.88692 0.25936 0.0
H719 H 0.13578 0.90151 0.21681 0.0
Eu720 Eu 0.82901 0.65278 0.65423 0.0
C721 C 0.91169 0.78496 0.73281 0.0
C722 C 0.98108 0.80303 0.73161 0.0
C723 C 0.96224 0.85022 0.74135 0.0
C724 C 0.94071 0.77548 0.72875 0.0
C725 C 0.92203 0.8222 0.73976 0.0
C726 C 0.99172 0.84064 0.73728 0.0
C727 C 0.85215 0.80048 0.74515 0.0
N728 N 0.87318 0.75717 0.73132 0.0
C729 C 0.84342 0.76394 0.73831 0.0
C730 C 0.89163 0.82988 0.74558 0.0
Eu731 Eu 0.86054 0.69649 0.71834 0.0
N732 N 0.92937 0.73885 0.72344 0.0
C733 C 0.95664 0.72713 0.72299 0.0
C734 C 1.00941 0.79166 0.72944 0.0
C735 C 0.99705 0.75341 0.72556 0.0
H736 H 0.81284 0.7413 0.73783 0.0
H737 H 1.01864 0.74414 0.72442 0.0
H738 H 0.02261 0.8623 0.73923 0.0
H739 H 0.82846 0.80596 0.75005 0.0
H740 H 0.94757 0.69771 0.7199 0.0
H741 H 0.66942 0.60147 0.65521 0.0
H742 H 0.04073 0.81195 0.73142 0.0
H743 H 0.87452 0.61126 0.6263 0.0
H744 H 0.74043 0.64913 0.65631 0.0
H745 H 0.85928 0.54735 0.61245 0.0
H746 H 0.97081 0.87912 0.74637 0.0
H747 H 0.64804 0.53364 0.64898 0.0
H748 H 0.66685 0.48423 0.6392 0.0
H749 H 0.89834 0.85815 0.75095 0.0
H750 H 0.71885 0.46936 0.62743 0.0
N751 N 0.75971 0.60899 0.65144 0.0
C752 C 0.73182 0.61985 0.65339 0.0
C753 C 0.67939 0.55455 0.6494 0.0
C754 C 0.70808 0.54402 0.64543 0.0
C755 C 0.69134 0.59279 0.65281 0.0
C756 C 0.74848 0.57238 0.64629 0.0
H757 H 0.79074 0.49297 0.61671 0.0
N758 N 0.8156 0.59282 0.639 0.0
C759 C 0.83603 0.55152 0.6204 0.0
C760 C 0.77749 0.56397 0.63986 0.0
C761 C 0.84456 0.58763 0.62825 0.0
C762 C 0.79733 0.52088 0.62289 0.0
C763 C 0.76727 0.52705 0.63217 0.0
O764 O 0.86168 0.67252 0.6178 0.0
O765 O 0.8773 0.69911 0.67699 0.0
O766 O 0.85355 0.7379 0.69271 0.0
O767 O 0.80901 0.69559 0.66335 0.0
O768 O 0.89451 0.67348 0.64956 0.0
O769 O 0.80791 0.6745 0.6233 0.0
O770 O 0.82823 0.6819 0.75502 0.0
O771 O 0.81346 0.64923 0.69583 0.0
O772 O 0.84191 0.61285 0.67735 0.0
O773 O 0.87841 0.65177 0.71145 0.0
O774 O 0.79441 0.67408 0.72241 0.0
O775 O 0.8787 0.67391 0.75033 0.0
C776 C 0.90705 0.69941 0.66671 0.0
C777 C 0.82381 0.66514 0.58123 0.0
C778 C 0.82899 0.67616 0.53488 0.0
C779 C 0.83948 0.69002 0.55993 0.0
C780 C 0.80277 0.63709 0.53152 0.0
C781 C 0.79741 0.62635 0.57743 0.0
C782 C 0.78702 0.61245 0.55267 0.0
C783 C 0.82672 0.72902 0.67474 0.0
C784 C 0.83601 0.67969 0.60723 0.0
C785 C 0.72729 0.49805 0.6329 0.0
C786 C 0.6977 0.50652 0.63958 0.0
C787 C 0.78293 0.64717 0.70603 0.0
C788 C 0.86439 0.68622 0.79212 0.0
C789 C 0.84622 0.66204 0.81356 0.0
C790 C 0.85786 0.67557 0.83861 0.0
C791 C 0.8879 0.7136 0.84176 0.0
C792 C 0.89432 0.72395 0.79579 0.0
C793 C 0.90598 0.7375 0.8205 0.0
C794 C 0.86467 0.62045 0.69772 0.0
C795 C 0.85155 0.67195 0.76609 0.0
H796 H 0.86019 0.71996 0.56283 0.0
H797 H 0.79407 0.6257 0.51249 0.0
H798 H 0.78495 0.60683 0.59357 0.0
H799 H 0.76668 0.58247 0.54987 0.0
H800 H 0.82268 0.63301 0.81074 0.0
H801 H 0.89764 0.72479 0.86073 0.0
H802 H 0.90861 0.74291 0.77958 0.0
H803 H 0.92913 0.76667 0.8232 0.0
Eu804 Eu 0.38101 0.17431 0.6565 0.0
C805 C 0.23373 0.115 0.72911 0.0
C806 C 0.21636 0.16432 0.72669 0.0
C807 C 0.1649 0.09871 0.73454 0.0
C808 C 0.24489 0.15272 0.72516 0.0
C809 C 0.19385 0.0878 0.73485 0.0
C810 C 0.17615 0.13695 0.73047 0.0
C811 C 0.2152 0.04283 0.74503 0.0
N812 N 0.26256 0.10568 0.72998 0.0
C813 C 0.25435 0.07101 0.7395 0.0
C814 C 0.18465 0.05101 0.74212 0.0
Eu815 Eu 0.32798 0.15406 0.71904 0.0
N816 N 0.28404 0.17845 0.72186 0.0
C817 C 0.297 0.21651 0.72244 0.0
C818 C 0.22929 0.20321 0.72545 0.0
C819 C 0.26986 0.22943 0.72388 0.0
H820 H 0.2781 0.06492 0.74208 0.0
H821 H 0.28026 0.25962 0.72358 0.0
H822 H 0.15375 0.14526 0.73126 0.0
H823 H 0.20865 0.01496 0.75169 0.0
H824 H 0.3282 0.23717 0.72104 0.0
H825 H 0.41478 0.05868 0.6571 0.0
H826 H 0.20834 0.2133 0.72652 0.0
H827 H 0.43964 0.26408 0.63593 0.0
H828 H 0.37189 0.08678 0.65745 0.0
H829 H 0.51103 0.30916 0.62758 0.0
H830 H 0.13401 0.07812 0.73852 0.0
H831 H 0.48768 0.10005 0.65442 0.0
H832 H 0.54661 0.16573 0.64923 0.0
H833 H 0.15438 0.02929 0.7467 0.0
H834 H 0.57296 0.23409 0.64134 0.0
N835 N 0.41976 0.14408 0.65512 0.0
C836 C 0.40352 0.10545 0.65594 0.0
C837 C 0.46893 0.11268 0.65436 0.0
C838 C 0.4853 0.15206 0.65207 0.0
C839 C 0.42781 0.08924 0.6558 0.0
C840 C 0.45958 0.16707 0.65218 0.0
H841 H 0.55987 0.28772 0.63276 0.0
N842 N 0.44856 0.21847 0.64684 0.0
C843 C 0.50122 0.28017 0.63354 0.0
C844 C 0.47445 0.20549 0.64804 0.0
C845 C 0.46093 0.25466 0.63825 0.0
C846 C 0.52868 0.26798 0.63655 0.0
C847 C 0.51536 0.23001 0.6433 0.0
O848 O 0.37565 0.19749 0.61986 0.0
O849 O 0.3286 0.16996 0.67775 0.0
O850 O 0.2887 0.10379 0.69443 0.0
O851 O 0.32946 0.11291 0.65866 0.0
O852 O 0.35906 0.21614 0.65291 0.0
O853 O 0.36318 0.13936 0.62221 0.0
O854 O 0.34013 0.13517 0.75541 0.0
O855 O 0.38091 0.15983 0.69787 0.0
O856 O 0.41954 0.22438 0.68149 0.0
O857 O 0.3764 0.21682 0.71545 0.0
O858 O 0.35253 0.11404 0.72284 0.0
O859 O 0.34202 0.18913 0.75308 0.0
C860 C 0.32887 0.1989 0.66826 0.0
C861 C 0.38726 0.17199 0.5826 0.0
C862 C 0.38407 0.16527 0.53611 0.0
C863 C 0.36503 0.15912 0.56018 0.0
C864 C 0.42581 0.18494 0.5349 0.0
C865 C 0.42877 0.1905 0.58102 0.0
C866 C 0.4479 0.19706 0.55726 0.0
C867 C 0.29694 0.09236 0.6728 0.0
C868 C 0.3666 0.16674 0.60728 0.0
C869 C 0.54136 0.21559 0.64454 0.0
C870 C 0.52636 0.17667 0.64898 0.0
C871 C 0.38274 0.13216 0.7076 0.0
C872 C 0.32332 0.15612 0.79278 0.0
C873 C 0.34512 0.1644 0.81537 0.0
C874 C 0.32576 0.15573 0.83943 0.0
C875 C 0.28413 0.13806 0.8405 0.0
C876 C 0.28195 0.13942 0.79422 0.0
C877 C 0.26246 0.13025 0.81799 0.0
C878 C 0.41024 0.23665 0.70233 0.0
C879 C 0.34423 0.16439 0.76796 0.0
H880 H 0.33291 0.1443 0.56151 0.0
H881 H 0.44148 0.19145 0.51667 0.0
H882 H 0.44643 0.20024 0.59802 0.0
H883 H 0.47999 0.21193 0.55613 0.0
H884 H 0.37719 0.17788 0.8142 0.0
H885 H 0.26829 0.13004 0.8587 0.0
H886 H 0.2647 0.13333 0.77709 0.0
H887 H 0.23046 0.11691 0.81898 0.0
Eu888 Eu 0.87904 0.17424 0.71363 0.0
C889 C 0.80649 0.2437 0.63937 0.0
C890 C 0.73565 0.19987 0.63872 0.0
C891 C 0.76124 0.2676 0.63241 0.0
C892 C 0.77474 0.20704 0.64175 0.0
C893 C 0.80018 0.27435 0.63429 0.0
C894 C 0.72904 0.23041 0.63459 0.0
C895 C 0.87131 0.31571 0.63172 0.0
N896 N 0.84372 0.24921 0.64117 0.0
C897 C 0.87607 0.28437 0.63658 0.0
C898 C 0.8332 0.31076 0.63081 0.0
Eu899 Eu 0.84933 0.19511 0.65109 0.0
N900 N 0.78218 0.17817 0.64561 0.0
C901 C 0.75214 0.14128 0.64462 0.0
C902 C 0.70449 0.16213 0.63919 0.0
C903 C 0.71286 0.13269 0.64176 0.0
H904 H 0.90563 0.28845 0.63746 0.0
H905 H 0.68908 0.10337 0.64172 0.0
H906 H 0.69919 0.2255 0.63248 0.0
H907 H 0.89703 0.34366 0.6287 0.0
H908 H 0.75814 0.1183 0.64685 0.0
H909 H 0.03974 0.26944 0.71451 0.0
H910 H 0.67404 0.15542 0.637 0.0
H911 H 0.82699 0.08429 0.73518 0.0
H912 H 0.96965 0.25262 0.71275 0.0
H913 H 0.83808 0.03133 0.74686 0.0
H914 H 0.75576 0.29082 0.62874 0.0
H915 H 0.05698 0.21898 0.72004 0.0
H916 H 0.03398 0.14982 0.72806 0.0
H917 H 0.8296 0.33507 0.62697 0.0
H918 H 0.97898 0.08488 0.73705 0.0
N919 N 0.94717 0.19308 0.7165 0.0
C920 C 0.97663 0.2303 0.71529 0.0
C921 C 0.0261 0.21142 0.71931 0.0
C922 C 0.9957 0.17359 0.72232 0.0
C923 C 1.01649 0.23998 0.71626 0.0
C924 C 0.95602 0.16532 0.72106 0.0
H925 H 0.90586 0.0406 0.74469 0.0
N926 N 0.8877 0.12276 0.7261 0.0
C927 C 0.86285 0.05858 0.7409 0.0
C928 C 0.92524 0.12891 0.726 0.0
C929 C 0.85669 0.08863 0.73434 0.0
C930 C 0.90113 0.06388 0.73957 0.0
C931 C 0.93303 0.09957 0.73246 0.0
O932 O 0.84906 0.16065 0.75102 0.0
O933 O 0.83198 0.17796 0.6919 0.0
O934 O 0.8541 0.23838 0.6796 0.0
O935 O 0.901 0.23744 0.70618 0.0
O936 O 0.81259 0.13537 0.71946 0.0
O937 O 0.90276 0.21474 0.74489 0.0
O938 O 0.88138 0.21254 0.61437 0.0
O939 O 0.8953 0.1884 0.67224 0.0
O940 O 0.86526 0.12482 0.6877 0.0
O941 O 0.8256 0.13154 0.65718 0.0
O942 O 0.91624 0.23384 0.6471 0.0
O943 O 0.82759 0.15782 0.61818 0.0
C944 C 0.80127 0.1509 0.70244 0.0
C945 C 0.88955 0.18822 0.78673 0.0
C946 C 0.88802 0.19395 0.83323 0.0
C947 C 0.87666 0.19901 0.80861 0.0
C948 C 0.91331 0.17874 0.83544 0.0
C949 C 0.91469 0.17308 0.78935 0.0
C950 C 0.92659 0.16851 0.81362 0.0
C951 C 0.88149 0.25394 0.69726 0.0
C952 C 0.87569 0.19208 0.76141 0.0
C953 C 0.97239 0.10714 0.73244 0.0
C954 C 1.00369 0.14411 0.72733 0.0
C955 C 0.92664 0.21552 0.66245 0.0
C956 C 0.84344 0.18745 0.57722 0.0
C957 C 0.86215 0.18344 0.55531 0.0
C958 C 0.85098 0.18842 0.53064 0.0
C959 C 0.82045 0.19713 0.52829 0.0
C960 C 0.81347 0.19664 0.57447 0.0
C961 C 0.80204 0.20138 0.55008 0.0
C962 C 0.84007 0.11175 0.66844 0.0
C963 C 0.85561 0.18192 0.6027 0.0
H964 H 0.85792 0.21146 0.8064 0.0
H965 H 0.92241 0.17428 0.85408 0.0
H966 H 0.92498 0.16473 0.7727 0.0
H967 H 0.94592 0.15671 0.81555 0.0
H968 H 0.88555 0.17663 0.5575 0.0
H969 H 0.81035 0.20006 0.50961 0.0
H970 H 0.79879 0.19989 0.59111 0.0
H971 H 0.77862 0.20811 0.54805 0.0
C972 C 0.33534 0.91595 0.05388 0.0
C973 C 0.33202 0.87999 0.05667 0.0
C974 C 0.37143 0.9482 0.04678 0.0
C975 C 0.40571 0.94592 0.0419 0.0
H976 H 0.31014 0.91946 0.05819 0.0
H977 H 0.37287 0.97551 0.04595 0.0
S978 S 0.41269 0.85828 0.04561 0.0
N979 N 0.36584 0.8437 0.05296 0.0
N980 N 0.43383 0.90448 0.03997 0.0
C981 C 0.40251 0.90991 0.04357 0.0
C982 C 0.36557 0.87689 0.05073 0.0
C983 C 0.11374 0.42448 0.05389 0.0
C984 C 0.15132 0.45717 0.0563 0.0
C985 C 0.08063 0.427 0.04641 0.0
C986 C 0.08362 0.46228 0.04085 0.0
H987 H 0.10967 0.39672 0.05861 0.0
H988 H 0.05213 0.40106 0.04547 0.0
S989 S 0.17507 0.55664 0.04536 0.0
N990 N 0.18966 0.526 0.05279 0.0
N991 N 0.12722 0.5309 0.03936 0.0
C992 C 0.12114 0.49526 0.043 0.0
C993 C 0.15505 0.49263 0.05042 0.0
C994 C 0.53967 0.67711 0.05245 0.0
C995 C 0.5776 0.70277 0.06172 0.0
C996 C 0.53124 0.642 0.04235 0.0
C997 C 0.56025 0.63107 0.04148 0.0
H998 H 0.51602 0.6837 0.05365 0.0
H999 H 0.50145 0.62286 0.03584 0.0
S1000 S 0.66565 0.69027 0.0595 0.0
N1001 N 0.64563 0.71659 0.06643 0.0
N1002 N 0.62933 0.65026 0.04813 0.0
C1003 C 0.59862 0.65703 0.04969 0.0
C1004 C 0.60739 0.69294 0.05963 0.0
C1005 C 0.87968 0.31938 0.9978 0.0
C1006 C 0.86837 0.31595 0.97196 0.0
C1007 C 0.90773 0.35471 1.00783 0.0
C1008 C 0.92571 0.38783 0.99236 0.0
H1009 H 0.86803 0.29435 1.0101 0.0
H1010 H 0.91657 0.35576 0.02753 0.0
S1011 S 0.90247 0.39543 0.92462 0.0
N1012 N 0.8743 0.34983 0.932 0.0
N1013 N 0.92753 0.41572 0.95071 0.0
C1014 C 0.91347 0.38513 0.96687 0.0
C1015 C 0.88466 0.34938 0.95674 0.0
C1016 C 0.67434 0.5291 0.98699 0.0
C1017 C 0.70821 0.56448 0.98101 0.0
C1018 C 0.63793 0.5265 0.99393 0.0
C1019 C 0.63439 0.55928 0.99547 0.0
H1020 H 0.67548 0.50317 0.98508 0.0
H1021 H 0.61214 0.49863 0.99713 0.0
S1022 S 0.71535 0.65874 0.9847 0.0
N1023 N 0.73648 0.63296 0.97917 0.0
N1024 N 0.66863 0.62816 0.99235 0.0
C1025 C 0.66853 0.59478 0.99073 0.0
C1026 C 0.7053 0.59738 0.98358 0.0
C1027 C 0.47759 0.13167 0.9628 0.0
C1028 C 0.4608 0.14896 0.97752 0.0
C1029 C 0.48508 0.10428 0.97361 0.0
C1030 C 0.47596 0.09311 0.99951 0.0
H1031 H 0.48524 0.1396 0.94281 0.0
H1032 H 0.49856 0.09206 0.96166 0.0
S1033 S 0.42752 0.12672 0.04532 0.0
N1034 N 0.4331 0.15146 0.01879 0.0
N1035 N 0.44626 0.09914 0.03892 0.0
C1036 C 0.45847 0.10961 0.01428 0.0
C1037 C 0.4511 0.13776 1.00332 0.0
C1038 C 0.68194 0.11474 0.99533 0.0
C1039 C 0.68492 0.1507 0.99603 0.0
C1040 C 0.64537 0.08118 0.99902 0.0
C1041 C 0.61031 0.08209 1.00383 0.0
H1042 H 0.70795 0.11234 0.99152 0.0
H1043 H 0.64447 0.05416 0.9979 0.0
S1044 S 0.60164 0.16881 1.00655 0.0
N1045 N 0.64952 0.18518 1.0017 0.0
N1046 N 0.58066 0.12203 1.00789 0.0
C1047 C 0.6128 0.11781 1.00462 0.0
C1048 C 0.65018 0.1521 1.00106 0.0
C1049 C 0.87906 0.49214 0.98759 0.0
C1050 C 0.87788 0.52599 0.98464 0.0
C1051 C 0.91441 0.49273 0.99386 0.0
C1052 C 0.95022 0.52729 0.99667 0.0
H1053 H 0.8525 0.46494 0.98472 0.0
H1054 H 0.91393 0.46595 0.99555 0.0
S1055 S 0.96322 0.62381 0.99046 0.0
N1056 N 0.91548 0.59497 0.9854 0.0
N1057 N 0.9823 0.59616 0.99577 0.0
C1058 C 0.94944 0.5613 0.99362 0.0
C1059 C 0.91316 0.56066 0.98811 0.0
C1060 C 0.49059 0.35004 0.99466 0.0
C1061 C 0.4956 0.34713 0.96822 0.0
C1062 C 0.49601 0.38399 1.00508 0.0
C1063 C 0.50652 0.41612 0.98948 0.0
H1064 H 0.48217 0.32595 1.00743 0.0
H1065 H 0.49117 0.38477 0.02538 0.0
S1066 S 0.52449 0.42359 0.91923 0.0
N1067 N 0.51222 0.37943 0.92672 0.0
N1068 N 0.52288 0.44321 0.94641 0.0
C1069 C 0.51169 0.41356 0.96306 0.0
C1070 C 0.50619 0.37909 0.95243 0.0
C1071 C 0.14333 0.64325 0.07722 0.0
C1072 C 0.16374 0.67606 0.06158 0.0
C1073 C 0.11258 0.60908 0.06764 0.0
C1074 C 0.10105 0.60629 0.04197 0.0
H1075 H 0.15137 0.64388 0.0971 0.0
H1076 H 0.09838 0.58438 0.08029 0.0
S1077 S 0.14198 0.68456 0.99356 0.0
N1078 N 0.16845 0.704 0.01935 0.0
N1079 N 0.11015 0.63991 1.00159 0.0
C1080 C 0.12042 0.63903 0.02625 0.0
C1081 C 0.15187 0.67391 0.03597 0.0
C1082 C 0.39441 0.5228 0.04926 0.0
C1083 C 0.35787 0.48859 0.05154 0.0
C1084 C 0.42944 0.52307 0.04206 0.0
C1085 C 0.42947 0.48902 0.03751 0.0
H1086 H 0.39608 0.54957 0.05356 0.0
H1087 H 0.45694 0.55 0.04127 0.0
S1088 S 0.3417 0.39189 0.04075 0.0
N1089 N 0.32371 0.41989 0.04785 0.0
N1090 N 0.38981 0.42024 0.03566 0.0
C1091 C 0.39309 0.45468 0.03956 0.0
C1092 C 0.3572 0.4545 0.04609 0.0
C1093 C 0.5334 0.86935 0.0442 0.0
C1094 C 0.55581 0.87603 0.06643 0.0
C1095 C 0.52607 0.89738 0.03407 0.0
C1096 C 0.54181 0.93345 0.04539 0.0
H1097 H 0.52015 0.84186 0.03516 0.0
H1098 H 0.50704 0.89019 0.01766 0.0
S1099 S 0.60555 0.96534 0.10301 0.0
N1100 N 0.59491 0.92102 0.09902 0.0
N1101 N 0.58325 0.97432 0.07954 0.0
C1102 C 0.56567 0.94063 0.06717 0.0
C1103 C 0.57213 0.91178 0.07777 0.0
C1104 C 0.03536 0.21045 0.38378 0.0
C1105 C 1.00141 0.21327 0.38913 0.0
C1106 C 0.07138 0.2426 0.37579 0.0
C1107 C 0.07435 0.27841 0.3728 0.0
H1108 H 0.03471 0.18383 0.38722 0.0
H1109 H 0.09745 0.23986 0.37331 0.0
S1110 S 0.99262 0.29934 0.38028 0.0
N1111 N 0.97204 0.25367 0.38767 0.0
N1112 N 0.03948 0.31381 0.37315 0.0
C1113 C 0.04 0.28087 0.3765 0.0
C1114 C 1.00356 0.24836 0.38442 0.0
C1115 C 0.78566 0.75804 0.38851 0.0
C1116 C 0.82322 0.79063 0.39119 0.0
C1117 C 0.75268 0.76085 0.38117 0.0
C1118 C 0.75585 0.79634 0.37618 0.0
H1119 H 0.78149 0.73017 0.39294 0.0
H1120 H 0.72414 0.735 0.38 0.0
S1121 S 0.84758 0.89042 0.3809 0.0
N1122 N 0.86192 0.85951 0.38807 0.0
N1123 N 0.79971 0.86492 0.37492 0.0
C1124 C 0.79344 0.82918 0.37833 0.0
C1125 C 0.8272 0.82626 0.38557 0.0
C1126 C 0.27812 0.02484 0.39566 0.0
C1127 C 0.25174 0.03901 0.39421 0.0
C1128 C 0.26827 0.98922 0.38587 0.0
C1129 C 0.23195 0.96653 0.3737 0.0
H1130 H 0.30672 0.04134 0.40458 0.0
H1131 H 0.28942 0.97952 0.38778 0.0
S1132 S 0.1522 0.99008 0.36465 0.0
N1133 N 0.18713 0.02679 0.37997 0.0
N1134 N 0.16961 0.96097 0.36032 0.0
C1135 C 0.20569 0.9807 0.37141 0.0
C1136 C 0.21533 0.01662 0.38192 0.0
C1137 C 0.5396 0.66919 0.3228 0.0
C1138 C 0.55188 0.64579 0.31097 0.0
C1139 C 0.56732 0.70533 0.33173 0.0
C1140 C 0.60847 0.71963 0.32908 0.0
H1141 H 0.50832 0.65996 0.32458 0.0
H1142 H 0.55632 0.72249 0.34029 0.0
S1143 S 0.65601 0.66781 0.3022 0.0
N1144 N 0.60799 0.63815 0.2992 0.0
N1145 N 0.65992 0.70622 0.31545 0.0
C1146 C 0.62111 0.69608 0.31794 0.0
C1147 C 0.5929 0.65916 0.30906 0.0
C1148 C 0.34478 0.86087 0.32269 0.0
C1149 C 0.37878 0.89597 0.31637 0.0
C1150 C 0.30843 0.8587 0.32912 0.0
C1151 C 0.30512 0.89164 0.32977 0.0
H1152 H 0.34574 0.83478 0.32137 0.0
H1153 H 0.2825 0.831 0.33249 0.0
S1154 S 0.38655 0.99061 0.31806 0.0
N1155 N 0.40752 0.96447 0.31351 0.0
N1156 N 0.33969 0.96044 0.32564 0.0
C1157 C 0.33942 0.92691 0.32481 0.0
C1158 C 0.37615 0.92909 0.31822 0.0
C1159 C 0.16054 0.48887 0.32397 0.0
C1160 C 0.12405 0.47779 0.31216 0.0
C1161 C 0.16951 0.4618 0.33366 0.0
C1162 C 0.14304 0.42256 0.33108 0.0
H1163 H 0.18291 0.51865 0.32512 0.0
H1164 H 0.19801 0.47183 0.34251 0.0
S1165 S 0.04036 0.37854 0.30695 0.0
N1166 N 0.05845 0.42467 0.30283 0.0
N1167 N 0.07659 0.37408 0.31943 0.0
C1168 C 0.10565 0.41108 0.32071 0.0
C1169 C 0.09592 0.43859 0.31158 0.0
C1170 C 0.35024 0.44574 0.32665 0.0
C1171 C 0.34951 0.47742 0.31626 0.0
C1172 C 0.31479 0.41226 0.33346 0.0
C1173 C 0.27772 0.41014 0.33159 0.0
H1174 H 0.37809 0.44608 0.32828 0.0
H1175 H 0.31633 0.3877 0.34007 0.0
S1176 S 0.26008 0.48459 0.30393 0.0
N1177 N 0.30877 0.50389 0.30309 0.0
N1178 N 0.24262 0.44191 0.31702 0.0
C1179 C 0.27684 0.44188 0.32154 0.0
C1180 C 0.31267 0.47535 0.31374 0.0
C1181 C 0.54968 0.8224 0.32272 0.0
C1182 C 0.54706 0.8556 0.32081 0.0
C1183 C 0.5856 0.82403 0.32872 0.0
C1184 C 0.62051 0.85904 0.33248 0.0
H1185 H 0.52385 0.79494 0.31914 0.0
H1186 H 0.58629 0.79778 0.32936 0.0
S1187 S 0.62978 0.95426 0.32886 0.0
N1188 N 0.58241 0.92448 0.3233 0.0
N1189 N 0.65032 0.92768 0.33332 0.0
C1190 C 0.61832 0.89243 0.33043 0.0
C1191 C 0.58146 0.89069 0.32509 0.0
C1192 C 0.11241 0.68603 0.31171 0.0
C1193 C 0.13416 0.66736 0.31534 0.0
C1194 C 0.12789 0.72416 0.3183 0.0
C1195 C 0.16582 0.74528 0.32889 0.0
H1196 H 0.08298 0.67097 0.30368 0.0
H1197 H 0.10965 0.73696 0.31534 0.0
S1198 S 0.23619 0.71062 0.34077 0.0
N1199 N 0.19643 0.67337 0.32936 0.0
N1200 N 0.22571 0.74522 0.34155 0.0
C1201 C 0.18822 0.72715 0.33237 0.0
C1202 C 0.17238 0.68817 0.32564 0.0
C1203 C 0.82741 1.00514 0.37353 0.0
C1204 C 0.8354 0.0091 0.3999 0.0
C1205 C 0.79729 0.97068 0.36369 0.0
C1206 C 0.77391 0.93902 0.37978 0.0
H1207 H 0.84444 0.02873 0.36038 0.0
H1208 H 0.79198 0.96906 0.34337 0.0
S1209 S 0.78352 0.93447 0.45017 0.0
N1210 N 0.81768 0.97828 0.4419 0.0
N1211 N 0.76146 0.91378 0.42335 0.0
C1212 C 0.78154 0.94273 0.40616 0.0
C1213 C 0.81222 0.97766 0.41619 0.0
C1214 C 0.02984 0.79643 0.37668 0.0
C1215 C 0.03208 0.8266 0.39097 0.0
C1216 C 0.06445 0.79617 0.36898 0.0
C1217 C 0.10244 0.82726 0.37364 0.0
H1218 H 1.00123 0.77199 0.37255 0.0
H1219 H 0.06148 0.77136 0.35943 0.0
S1220 S 0.12423 0.9107 0.41309 0.0
N1221 N 0.07533 0.88635 0.41174 0.0
N1222 N 0.13998 0.8869 0.39585 0.0
C1223 C 0.10495 0.8574 0.38802 0.0
C1224 C 0.06987 0.85692 0.39683 0.0
C1225 C 0.21095 0.22582 0.4122 0.0
C1226 C 0.23106 0.21164 0.39762 0.0
C1227 C 0.20111 0.25179 0.40166 0.0
C1228 C 0.21101 0.26454 0.37612 0.0
H1229 H 0.20259 0.21666 0.43196 0.0
H1230 H 0.18534 0.26175 0.41354 0.0
S1231 S 0.26806 0.24002 0.33076 0.0
N1232 N 0.26299 0.21442 0.35676 0.0
N1233 N 0.24528 0.26402 0.33728 0.0
C1234 C 0.23196 0.25142 0.36149 0.0
C1235 C 0.24183 0.22475 0.37216 0.0
C1236 C 0.67378 0.58511 0.72201 0.0
C1237 C 0.66851 0.54828 0.72414 0.0
C1238 C 0.71057 0.6165 0.71499 0.0
C1239 C 0.7435 0.61239 0.70927 0.0
H1240 H 0.64957 0.58996 0.72672 0.0
H1241 H 0.71352 0.64446 0.71457 0.0
S1242 S 0.74552 0.52215 0.71122 0.0
N1243 N 0.69937 0.50945 0.71927 0.0
N1244 N 0.76846 0.56854 0.70595 0.0
C1245 C 0.73842 0.57561 0.71035 0.0
C1246 C 0.70087 0.54352 0.71763 0.0
C1247 C 0.44931 0.09227 0.72548 0.0
C1248 C 0.48734 0.12465 0.72735 0.0
C1249 C 0.41628 0.09519 0.71821 0.0
C1250 C 0.4197 0.13055 0.71224 0.0
H1251 H 0.44488 0.06439 0.73022 0.0
H1252 H 0.38757 0.06945 0.71756 0.0
S1253 S 0.51226 0.22433 0.71558 0.0
N1254 N 0.52636 0.19338 0.72312 0.0
N1255 N 0.46423 0.19897 0.71008 0.0
C1256 C 0.4576 0.16321 0.714 0.0
C1257 C 0.49141 0.1602 0.72122 0.0
C1258 C 0.93916 0.35162 0.72648 0.0
C1259 C 0.91152 0.3643 0.7269 0.0
C1260 C 0.92924 0.31595 0.71682 0.0
C1261 C 0.89144 0.29173 0.70692 0.0
H1262 H 0.96881 0.36943 0.73368 0.0
H1263 H 0.95151 0.30745 0.71699 0.0
S1264 S 0.8077 0.31062 0.70435 0.0
N1265 N 0.84418 0.34907 0.71726 0.0
N1266 N 0.82589 0.28247 0.69852 0.0
C1267 C 0.86358 0.3041 0.70697 0.0
C1268 C 0.87353 0.34027 0.71707 0.0
C1269 C 0.22461 0.01624 0.62828 0.0
C1270 C 0.20998 0.98256 0.64308 0.0
C1271 C 0.25275 0.05167 0.63806 0.0
C1272 C 0.26721 0.05474 0.66302 0.0
H1273 H 0.21426 0.01518 0.60895 0.0
H1274 H 0.26313 0.07688 0.62607 0.0
S1275 S 0.24187 0.97508 0.70856 0.0
N1276 N 0.21409 0.95455 0.68344 0.0
N1277 N 0.26727 0.021 0.70153 0.0
C1278 C 0.25333 0.02139 0.67787 0.0
C1279 C 0.22461 0.98534 0.66799 0.0
C1280 C 0.0359 0.25618 0.64634 0.0
C1281 C 0.0404 0.22399 0.64443 0.0
C1282 C 0.99938 0.25292 0.65321 0.0
C1283 C 0.96563 0.21739 0.65875 0.0
H1284 H 0.06069 0.28419 0.64179 0.0
H1285 H 0.99734 0.27852 0.6537 0.0
S1286 S 0.96116 0.12407 0.65646 0.0
N1287 N 1.00784 0.15527 0.64901 0.0
N1288 N 0.93904 0.14909 0.66145 0.0
C1289 C 0.96978 0.18494 0.65746 0.0
C1290 C 1.00721 0.18828 0.65057 0.0
C1291 C 0.76719 0.77034 0.64594 0.0
C1292 C 0.79337 0.80994 0.64654 0.0
C1293 C 0.77798 0.74462 0.65556 0.0
C1294 C 0.81502 0.7572 0.66693 0.0
H1295 H 0.73805 0.75885 0.63771 0.0
H1296 H 0.75699 0.71454 0.65396 0.0
S1297 S 0.89331 0.85772 0.67575 0.0
N1298 N 0.85805 0.86037 0.66028 0.0
N1299 N 0.87667 0.81192 0.68024 0.0
C1300 C 0.84061 0.79661 0.66913 0.0
C1301 C 0.83021 0.82296 0.65853 0.0
C1302 C 1.01824 0.74873 0.65711 0.0
C1303 C 0.03004 0.78756 0.65586 0.0
C1304 C 0.97862 0.72082 0.66202 0.0
C1305 C 0.94907 0.73048 0.66614 0.0
H1306 H 0.03967 0.73969 0.65357 0.0
H1307 H 0.97082 0.69121 0.662 0.0
S1308 S 0.9642 0.82801 0.66449 0.0
N1309 N 1.00895 0.83433 0.65939 0.0
N1310 N 0.9342 0.78167 0.66798 0.0
C1311 C 0.96044 0.76922 0.66534 0.0
C1312 C 1.00102 0.7978 0.66046 0.0
C1313 C 0.27288 0.25166 0.65815 0.0
C1314 C 0.23291 0.22287 0.65614 0.0
C1315 C 0.30306 0.24324 0.66269 0.0
C1316 C 0.29479 0.2056 0.66586 0.0
H1317 H 0.28116 0.28126 0.65579 0.0
H1318 H 0.33336 0.26658 0.66369 0.0
S1319 S 0.19554 0.11913 0.66095 0.0
N1320 N 0.18678 0.15463 0.65697 0.0
N1321 N 0.24383 0.13883 0.66523 0.0
C1322 C 0.25502 0.17625 0.66375 0.0
C1323 C 0.224 0.18487 0.65909 0.0
C1324 C 0.83374 0.01583 0.65957 0.0
C1325 C 0.80942 1.00128 0.63813 0.0
C1326 C 0.84325 0.05143 0.66936 0.0
C1327 C 0.82789 0.07322 0.65853 0.0
H1328 H 0.84664 1.00032 0.66825 0.0
H1329 H 0.86352 0.06215 0.68517 0.0
S1330 S 0.76037 0.04537 0.60282 0.0
N1331 N 0.76929 0.01005 0.60666 0.0
N1332 N 0.78533 0.07583 0.62549 0.0
C1333 C 0.80242 0.05798 0.63745 0.0
C1334 C 0.79365 0.02229 0.62718 0.0
C1335 C 0.49371 0.33986 0.7062 0.0
C1336 C 0.50126 0.34439 0.73264 0.0
C1337 C 0.46404 0.30501 0.69645 0.0
C1338 C 0.44067 0.27363 0.71278 0.0
H1339 H 0.51069 0.36331 0.69295 0.0
H1340 H 0.45898 0.30287 0.67606 0.0
S1341 S 0.44978 0.27029 0.78328 0.0
N1342 N 0.48356 0.31414 0.77482 0.0
N1343 N 0.42819 0.24905 0.75649 0.0
C1344 C 0.44812 0.27782 0.73916 0.0
C1345 C 0.47834 0.31306 0.74906 0.0
C1346 C 0.70924 0.16122 0.70878 0.0
C1347 C 0.67856 0.12292 0.71111 0.0
C1348 C 0.74911 0.17074 0.7042 0.0
C1349 C 0.75944 0.14226 0.70166 0.0
H1350 H 0.70274 0.18392 0.71148 0.0
H1351 H 0.7721 0.2004 0.7038 0.0
S1352 S 0.69007 0.03821 0.70355 0.0
N1353 N 0.66143 0.05676 0.70847 0.0
N1354 N 0.73557 0.07465 0.70019 0.0
C1355 C 0.72884 0.10417 0.70292 0.0
C1356 C 0.68864 0.09453 0.70743 0.0
C1357 C 0.87431 0.55359 0.74374 0.0
C1358 C 0.89097 0.53668 0.72853 0.0
C1359 C 0.86566 0.58042 0.7334 0.0
C1360 C 0.87329 0.5913 0.70743 0.0
H1361 H 0.86797 0.5461 0.76389 0.0
H1362 H 0.85274 0.59267 0.74582 0.0
S1363 S 0.91959 0.55802 0.65979 0.0
N1364 N 0.9163 0.53398 0.68626 0.0
N1365 N 0.90062 0.58512 0.66707 0.0
C1366 C 0.89024 0.575 0.69199 0.0
C1367 C 0.89899 0.54749 0.70249 0.0
C1368 C 0.45166 0.93081 0.22365 0.0
C1369 C 0.47766 0.93687 0.244 0.0
C1370 C 0.46494 0.95276 0.2009 0.0
C1371 C 0.50471 0.98183 0.19766 0.0
H1372 H 0.42058 0.90934 0.22549 0.0
H1373 H 0.44355 0.94791 0.18618 0.0
S1374 S 0.58547 0.00768 0.24421 0.0
N1375 N 0.54557 0.97344 0.25882 0.0
N1376 N 0.57059 0.01357 0.21592 0.0
C1377 C 0.53134 0.98711 0.21738 0.0
C1378 C 0.51785 0.96493 0.24054 0.0
C1379 C 0.03745 0.52481 0.23668 0.0
C1380 C 0.06914 0.51778 0.23921 0.0
C1381 C 1.01501 0.51535 0.21436 0.0
C1382 C 0.02323 0.49839 0.19363 0.0
H1383 H 0.02945 0.53716 0.25229 0.0
H1384 H 0.99103 0.52148 0.21332 0.0
S1385 S 0.10353 0.47461 0.19032 0.0
N1386 N 0.10852 0.49401 0.21869 0.0
N1387 N 0.06528 0.47476 0.1771 0.0
C1388 C 0.05502 0.4914 0.19579 0.0
C1389 C 0.07812 0.50134 0.2185 0.0
C1390 C 0.54885 0.55931 0.23465 0.0
C1391 C 0.51065 0.55399 0.23884 0.0
C1392 C 0.55901 0.54843 0.21176 0.0
C1393 C 0.53142 0.53168 0.19202 0.0
H1394 H 0.57103 0.57144 0.2494 0.0
H1395 H 0.58884 0.5532 0.20952 0.0
S1396 S 0.4276 0.51219 0.19305 0.0
N1397 N 0.44538 0.53191 0.22096 0.0
N1398 N 0.46413 0.51036 0.17812 0.0
C1399 C 0.49318 0.5265 0.19578 0.0
C1400 C 0.48284 0.53775 0.21916 0.0
C1401 C 0.96906 0.47661 0.8162 0.0
C1402 C 0.97836 0.45866 0.79663 0.0
C1403 C 0.99127 0.48852 0.83863 0.0
C1404 C 0.02357 0.48273 0.84252 0.0
H1405 H 0.94431 0.48149 0.81423 0.0
H1406 H 0.98339 0.50291 0.85286 0.0
S1407 S 0.05969 0.43618 0.79751 0.0
N1408 N 0.0225 0.43604 0.78254 0.0
N1409 N 0.0627 0.45635 0.82532 0.0
C1410 C 0.03279 0.46421 0.82331 0.0
C1411 C 1.01053 0.45259 0.80029 0.0
C1412 C 0.52896 0.49521 0.79862 0.0
C1413 C 0.56897 0.50495 0.79614 0.0
C1414 C 0.51471 0.50396 0.82078 0.0
C1415 C 0.53983 0.52261 0.84141 0.0
H1416 H 0.5086 0.48122 0.78314 0.0
H1417 H 0.48367 0.49587 0.8218 0.0
S1418 S 0.64696 0.5536 0.8447 0.0
N1419 N 0.63329 0.53334 0.8165 0.0
N1420 N 0.6068 0.55067 0.85785 0.0
C1421 C 0.57986 0.53225 0.83926 0.0
C1422 C 0.59435 0.52329 0.8167 0.0
C1423 C 0.52017 0.08524 0.81921 0.0
C1424 C 0.53579 0.0751 0.79821 0.0
C1425 C 0.51022 0.06464 0.84255 0.0
C1426 C 0.51506 0.03281 0.84573 0.0
H1427 H 0.5152 0.10909 0.8175 0.0
H1428 H 0.49731 0.07288 0.85788 0.0
S1429 S 0.55642 0.99537 0.79728 0.0
N1430 N 0.55662 0.03159 0.7826 0.0
N1431 N 0.53848 0.99339 0.82638 0.0
C1432 C 0.53171 0.02306 0.82518 0.0
C1433 C 0.54196 0.04406 0.80149 0.0
C1434 C 0.11895 0.27159 0.55366 0.0
C1435 C 0.14416 0.2785 0.5746 0.0
C1436 C 0.13257 0.29388 0.53107 0.0
C1437 C 0.17191 0.32419 0.52856 0.0
H1438 H 0.08833 0.2488 0.55475 0.0
H1439 H 0.11181 0.28796 0.51573 0.0
S1440 S 0.25037 0.35344 0.57731 0.0
N1441 N 0.21065 0.3178 0.5911 0.0
N1442 N 0.23644 0.35867 0.54852 0.0
C1443 C 0.19765 0.33084 0.54911 0.0
C1444 C 0.18379 0.30827 0.5721 0.0
C1445 C 0.73469 0.82266 0.55454 0.0
C1446 C 0.72417 0.83728 0.5756 0.0
C1447 C 0.71271 0.81307 0.53192 0.0
C1448 C 0.67932 0.81759 0.52959 0.0
H1449 H 0.76054 0.81931 0.55535 0.0
H1450 H 0.72188 0.80194 0.51617 0.0
S1451 S 0.639 0.85398 0.57949 0.0
N1452 N 0.67737 0.85452 0.59304 0.0
N1453 N 0.63703 0.83786 0.55032 0.0
C1454 C 0.66833 0.83185 0.55063 0.0
C1455 C 0.69052 0.84138 0.57365 0.0
C1456 C 0.21788 0.89741 0.56839 0.0
C1457 C 0.17865 0.88935 0.5725 0.0
C1458 C 0.22945 0.88764 0.54552 0.0
C1459 C 0.20232 0.86939 0.52572 0.0
H1460 H 0.23979 0.91086 0.58316 0.0
H1461 H 0.26 0.89444 0.54336 0.0
S1462 S 0.09622 0.84285 0.52652 0.0
N1463 N 0.1129 0.86319 0.55442 0.0
N1464 N 0.13435 0.84381 0.51173 0.0
C1465 C 0.16307 0.86154 0.52941 0.0
C1466 C 0.1513 0.87162 0.55273 0.0
C1467 C 0.67105 0.79038 0.13614 0.0
C1468 C 0.63741 0.7944 0.13358 0.0
C1469 C 0.69373 0.80169 0.1584 0.0
C1470 C 0.68381 0.81759 0.179 0.0
H1471 H 0.68029 0.77886 0.12066 0.0
H1472 H 0.71919 0.79775 0.1595 0.0
S1473 S 0.59832 0.83396 0.18208 0.0
N1474 N 0.59453 0.8143 0.15396 0.0
N1475 N 0.63828 0.8373 0.19523 0.0
C1476 C 0.65021 0.82175 0.17673 0.0
C1477 C 0.62684 0.80984 0.15416 0.0
C1478 C 0.25701 0.85188 0.14881 0.0
C1479 C 0.23148 0.83343 0.1283 0.0
C1480 C 0.24294 0.85965 0.17151 0.0
C1481 C 0.20287 0.84954 0.17448 0.0
H1482 H 0.28809 0.86024 0.14735 0.0
H1483 H 0.26376 0.87432 0.18665 0.0
S1484 S 0.12376 0.80028 0.12667 0.0
N1485 N 0.1642 0.8054 0.11247 0.0
N1486 N 0.13763 0.81906 0.15527 0.0
C1487 C 0.17698 0.83073 0.15422 0.0
C1488 C 0.19129 0.82288 0.13114 0.0
C1489 C 0.22317 0.41962 0.1494 0.0
C1490 C 0.19568 0.40831 0.12935 0.0
C1491 C 0.21397 0.39844 0.17252 0.0
C1492 C 0.17708 0.36496 0.17636 0.0
H1493 H 0.25201 0.44502 0.14721 0.0
H1494 H 0.23628 0.40776 0.1872 0.0
S1495 S 0.09445 0.32332 0.13021 0.0
N1496 N 0.12998 0.36105 0.11508 0.0
N1497 N 0.11236 0.32253 0.15858 0.0
C1498 C 0.14914 0.35385 0.15668 0.0
C1499 C 0.15851 0.37513 0.1332 0.0
C1500 C 0.80932 0.64288 0.90464 0.0
C1501 C 0.80641 0.60718 0.90814 0.0
C1502 C 0.82523 0.66428 0.88197 0.0
C1503 C 0.83865 0.65083 0.86168 0.0
H1504 H 0.80013 0.65489 0.91983 0.0
H1505 H 0.82731 0.69181 0.88038 0.0
S1506 S 0.83614 0.55841 0.86064 0.0
N1507 N 0.81701 0.5587 0.88895 0.0
N1508 N 0.84719 0.59907 0.84639 0.0
C1509 C 0.8351 0.6148 0.86464 0.0
C1510 C 0.81907 0.59304 0.88786 0.0
C1511 C 0.40208 0.16474 0.88795 0.0
C1512 C 0.39568 0.18334 0.90844 0.0
C1513 C 0.37926 0.15579 0.86577 0.0
C1514 C 0.34909 0.16499 0.8633 0.0
H1515 H 0.42536 0.15763 0.88887 0.0
H1516 H 0.3852 0.14144 0.85048 0.0
S1517 S 0.31997 0.21307 0.91173 0.0
N1518 N 0.35613 0.2095 0.92523 0.0
N1519 N 0.31422 0.19392 0.88322 0.0
C1520 C 0.3422 0.18332 0.88374 0.0
C1521 C 0.36528 0.19225 0.90636 0.0
C1522 C 0.8873 0.23375 0.89887 0.0
C1523 C 0.84724 0.22317 0.9027 0.0
C1524 C 0.9002 0.22449 0.87632 0.0
C1525 C 0.87361 0.20431 0.85664 0.0
H1526 H 0.90879 0.24876 0.91361 0.0
H1527 H 0.93134 0.2333 0.87429 0.0
S1528 S 0.76569 0.17071 0.85693 0.0
N1529 N 0.78129 0.19261 0.88446 0.0
N1530 N 0.80519 0.1739 0.84259 0.0
C1531 C 0.83351 0.19382 0.86013 0.0
C1532 C 0.82042 0.20348 0.88302 0.0
C1533 C 0.30631 0.14735 0.4861 0.0
C1534 C 0.31573 0.13005 0.46613 0.0
C1535 C 0.32825 0.15826 0.50869 0.0
C1536 C 0.36042 0.15219 0.5123 0.0
H1537 H 0.28172 0.15248 0.48429 0.0
H1538 H 0.3203 0.17215 0.52327 0.0
S1539 S 0.39675 0.10711 0.46621 0.0
N1540 N 0.35981 0.1077 0.45142 0.0
N1541 N 0.39953 0.12625 0.4944 0.0
C1542 C 0.36973 0.13432 0.49269 0.0
C1543 C 0.34774 0.12366 0.46954 0.0
C1544 C 0.89086 0.1446 0.48328 0.0
C1545 C 0.90318 0.16991 0.46211 0.0
C1546 C 0.87476 0.15118 0.50547 0.0
C1547 C 0.87017 0.18327 0.5074 0.0
H1548 H 0.89357 0.11937 0.48266 0.0
H1549 H 0.86502 0.13048 0.52103 0.0
S1550 S 0.89898 0.25901 0.4578 0.0
N1551 N 0.90998 0.22861 0.44466 0.0
N1552 N 0.88093 0.24155 0.48664 0.0
C1553 C 0.88309 0.20921 0.4866 0.0
C1554 C 0.89937 0.20246 0.46395 0.0
C1555 C 0.87461 0.71472 0.46891 0.0
C1556 C 0.86967 0.74647 0.46569 0.0
C1557 C 0.8623 0.69275 0.49159 0.0
C1558 C 0.84503 0.70195 0.51206 0.0
H1559 H 0.88672 0.70592 0.45342 0.0
H1560 H 0.86578 0.66798 0.49299 0.0
S1561 S 0.82775 0.78368 0.51389 0.0
N1562 N 0.8481 0.78715 0.48537 0.0
N1563 N 0.82493 0.74584 0.52797 0.0
C1564 C 0.84124 0.73443 0.50946 0.0
C1565 C 0.85348 0.75663 0.48628 0.0
loop_
_geom_bond_atom_site_label_1
_geom_bond_atom_site_label_2
_geom_bond_distance
_geom_bond_site_symmetry_2
_ccdc_geom_bond_type
H0 C5 0.930 . S
H1 C8 0.930 . S
H2 C10 0.930 . S
H3 C4 1.016 . S
C4 H3 1.016 . S
C4 N11 1.286 . S
C5 H0 0.930 . S
C5 C6 1.397 . S
C5 C7 1.361 . S
C6 C5 1.397 . S
C6 C10 1.390 . S
C7 C5 1.361 . S
C7 C8 1.393 . S
C7 N11 1.413 . S
C8 H1 0.930 . S
C8 C7 1.393 . S
C8 C9 1.399 . S
C9 C8 1.399 . S
C9 C10 1.381 . S
C10 H2 0.930 . S
C10 C6 1.390 . S
C10 C9 1.381 . S
N11 C4 1.286 . S
N11 C7 1.413 . S
H12 C17 0.930 . S
H13 C20 0.930 . S
H14 C22 0.930 . S
H15 C16 1.016 . S
C16 H15 1.016 . S
C16 N23 1.286 . S
C17 H12 0.930 . S
C17 C18 1.397 . S
C17 C19 1.361 . S
C18 C17 1.397 . S
C18 C22 1.390 . S
C19 C17 1.361 . S
C19 C20 1.393 . S
C19 N23 1.413 . S
C20 H13 0.930 . S
C20 C19 1.393 . S
C20 C21 1.399 . S
C21 C20 1.399 . S
C21 C22 1.381 . S
C22 H14 0.930 . S
C22 C18 1.390 . S
C22 C21 1.381 . S
N23 C16 1.286 . S
N23 C19 1.413 . S
H24 C29 0.930 . S
H25 C32 0.930 . S
H26 C34 0.930 . S
H27 C28 1.016 . S
C28 H27 1.016 . S
C28 N35 1.286 . S
C29 H24 0.930 . S
C29 C30 1.397 . S
C29 C31 1.361 . S
C30 C29 1.397 . S
C30 C34 1.390 . S
C31 C29 1.361 . S
C31 C32 1.393 . S
C31 N35 1.413 . S
C32 H25 0.930 . S
C32 C31 1.393 . S
C32 C33 1.399 . S
C33 C32 1.399 . S
C33 C34 1.381 . S
C34 H26 0.930 . S
C34 C30 1.390 . S
C34 C33 1.381 . S
N35 C28 1.286 . S
N35 C31 1.413 . S
H36 C41 0.930 . S
H37 C44 0.930 . S
H38 C46 0.930 . S
H39 C40 1.016 . S
C40 H39 1.016 . S
C40 N47 1.286 . S
C41 H36 0.930 . S
C41 C42 1.397 . S
C41 C43 1.361 . S
C42 C41 1.397 . S
C42 C46 1.390 . S
C43 C41 1.361 . S
C43 C44 1.393 . S
C43 N47 1.413 . S
C44 H37 0.930 . S
C44 C43 1.393 . S
C44 C45 1.399 . S
C45 C44 1.399 . S
C45 C46 1.381 . S
C46 H38 0.930 . S
C46 C42 1.390 . S
C46 C45 1.381 . S
N47 C40 1.286 . S
N47 C43 1.413 . S
H48 C53 0.930 . S
H49 C56 0.930 . S
H50 C58 0.930 . S
H51 C52 1.016 . S
C52 H51 1.016 . S
C52 N59 1.286 . S
C53 H48 0.930 . S
C53 C54 1.397 . S
C53 C55 1.361 . S
C54 C53 1.397 . S
C54 C58 1.390 . S
C55 C53 1.361 . S
C55 C56 1.393 . S
C55 N59 1.413 . S
C56 H49 0.930 . S
C56 C55 1.393 . S
C56 C57 1.399 . S
C57 C56 1.399 . S
C57 C58 1.381 . S
C58 H50 0.930 . S
C58 C54 1.390 . S
C58 C57 1.381 . S
N59 C52 1.286 . S
N59 C55 1.413 . S
H60 C65 0.930 . S
H61 C68 0.930 . S
H62 C70 0.930 . S
H63 C64 1.016 . S
C64 H63 1.016 . S
C64 N71 1.286 . S
C65 H60 0.930 . S
C65 C66 1.397 . S
C65 C67 1.361 . S
C66 C65 1.397 . S
C66 C70 1.390 . S
C67 C65 1.361 . S
C67 C68 1.393 . S
C67 N71 1.413 . S
C68 H61 0.930 . S
C68 C67 1.393 . S
C68 C69 1.399 . S
C69 C68 1.399 . S
C69 C70 1.381 . S
C70 H62 0.930 . S
C70 C66 1.390 . S
C70 C69 1.381 . S
N71 C64 1.286 . S
N71 C67 1.413 . S
H72 C77 0.930 . S
H73 C80 0.930 . S
H74 C82 0.930 . S
H75 C76 1.016 . S
C76 H75 1.016 . S
C76 N83 1.286 . S
C77 H72 0.930 . S
C77 C78 1.397 . S
C77 C79 1.361 . S
C78 C77 1.397 . S
C78 C82 1.390 . S
C79 C77 1.361 . S
C79 C80 1.393 . S
C79 N83 1.413 . S
C80 H73 0.930 . S
C80 C79 1.393 . S
C80 C81 1.399 . S
C81 C80 1.399 . S
C81 C82 1.381 . S
C82 H74 0.930 . S
C82 C78 1.390 . S
C82 C81 1.381 . S
N83 C76 1.286 . S
N83 C79 1.413 . S
H84 C89 0.930 . S
H85 C92 0.930 . S
H86 C94 0.930 . S
H87 C88 1.016 . S
C88 H87 1.016 . S
C88 N95 1.286 . S
C89 H84 0.930 . S
C89 C90 1.397 . S
C89 C91 1.361 . S
C90 C89 1.397 . S
C90 C94 1.390 . S
C91 C89 1.361 . S
C91 C92 1.393 . S
C91 N95 1.413 . S
C92 H85 0.930 . S
C92 C91 1.393 . S
C92 C93 1.399 . S
C93 C92 1.399 . S
C93 C94 1.381 . S
C94 H86 0.930 . S
C94 C90 1.390 . S
C94 C93 1.381 . S
N95 C88 1.286 . S
N95 C91 1.413 . S
H96 C101 0.930 . S
H97 C104 0.930 . S
H98 C106 0.930 . S
H99 C100 1.016 . S
C100 H99 1.016 . S
C100 N107 1.286 . S
C101 H96 0.930 . S
C101 C102 1.397 . S
C101 C103 1.361 . S
C102 C101 1.397 . S
C102 C106 1.390 . S
C103 C101 1.361 . S
C103 C104 1.393 . S
C103 N107 1.413 . S
C104 H97 0.930 . S
C104 C103 1.393 . S
C104 C105 1.399 . S
C105 C104 1.399 . S
C105 C106 1.381 . S
C106 H98 0.930 . S
C106 C102 1.390 . S
C106 C105 1.381 . S
N107 C100 1.286 . S
N107 C103 1.413 . S
H108 C113 0.930 . S
H109 C116 0.930 . S
H110 C118 0.930 . S
H111 C112 1.016 . S
C112 H111 1.016 . S
C112 N119 1.286 . S
C113 H108 0.930 . S
C113 C114 1.397 . S
C113 C115 1.361 . S
C114 C113 1.397 . S
C114 C118 1.390 . S
C115 C113 1.361 . S
C115 C116 1.393 . S
C115 N119 1.413 . S
C116 H109 0.930 . S
C116 C115 1.393 . S
C116 C117 1.399 . S
C117 C116 1.399 . S
C117 C118 1.381 . S
C118 H110 0.930 . S
C118 C114 1.390 . S
C118 C117 1.381 . S
N119 C112 1.286 . S
N119 C115 1.413 . S
H120 C125 0.930 . S
H121 C128 0.930 . S
H122 C130 0.930 . S
H123 C124 1.016 . S
C124 H123 1.016 . S
C124 N131 1.286 . S
C125 H120 0.930 . S
C125 C126 1.397 . S
C125 C127 1.361 . S
C126 C125 1.397 . S
C126 C130 1.390 . S
C127 C125 1.361 . S
C127 C128 1.393 . S
C127 N131 1.413 . S
C128 H121 0.930 . S
C128 C127 1.393 . S
C128 C129 1.399 . S
C129 C128 1.399 . S
C129 C130 1.381 . S
C130 H122 0.930 . S
C130 C126 1.390 . S
C130 C129 1.381 . S
N131 C124 1.286 . S
N131 C127 1.413 . S
H132 C137 0.930 . S
H133 C140 0.930 . S
H134 C142 0.930 . S
H135 C136 1.016 . S
C136 H135 1.016 . S
C136 N143 1.286 . S
C137 H132 0.930 . S
C137 C138 1.397 . S
C137 C139 1.361 . S
C138 C137 1.397 . S
C138 C142 1.390 . S
C139 C137 1.361 . S
C139 C140 1.393 . S
C139 N143 1.413 . S
C140 H133 0.930 . S
C140 C139 1.393 . S
C140 C141 1.399 . S
C141 C140 1.399 . S
C141 C142 1.381 . S
C142 H134 0.930 . S
C142 C138 1.390 . S
C142 C141 1.381 . S
N143 C136 1.286 . S
N143 C139 1.413 . S
H144 C149 0.930 . S
H145 C152 0.930 . S
H146 C154 0.930 . S
H147 C148 1.016 . S
C148 H147 1.016 . S
C148 N155 1.286 . S
C149 H144 0.930 . S
C149 C150 1.397 . S
C149 C151 1.361 . S
C150 C149 1.397 . S
C150 C154 1.390 . S
C151 C149 1.361 . S
C151 C152 1.393 . S
C151 N155 1.413 . S
C152 H145 0.930 . S
C152 C151 1.393 . S
C152 C153 1.399 . S
C153 C152 1.399 . S
C153 C154 1.381 . S
C154 H146 0.930 . S
C154 C150 1.390 . S
C154 C153 1.381 . S
N155 C148 1.286 . S
N155 C151 1.413 . S
H156 C161 0.930 . S
H157 C164 0.930 . S
H158 C166 0.930 . S
H159 C160 1.016 . S
C160 H159 1.016 . S
C160 N167 1.286 . S
C161 H156 0.930 . S
C161 C162 1.397 . S
C161 C163 1.361 . S
C162 C161 1.397 . S
C162 C166 1.390 . S
C163 C161 1.361 . S
C163 C164 1.393 . S
C163 N167 1.413 . S
C164 H157 0.930 . S
C164 C163 1.393 . S
C164 C165 1.399 . S
C165 C164 1.399 . S
C165 C166 1.381 . S
C166 H158 0.930 . S
C166 C162 1.390 . S
C166 C165 1.381 . S
N167 C160 1.286 . S
N167 C163 1.413 . S
H168 C173 0.930 . S
H169 C176 0.930 . S
H170 C178 0.930 . S
H171 C172 1.016 . S
C172 H171 1.016 . S
C172 N179 1.286 . S
C173 H168 0.930 . S
C173 C174 1.397 . S
C173 C175 1.361 . S
C174 C173 1.397 . S
C174 C178 1.390 . S
C175 C173 1.361 . S
C175 C176 1.393 . S
C175 N179 1.413 . S
C176 H169 0.930 . S
C176 C175 1.393 . S
C176 C177 1.399 . S
C177 C176 1.399 . S
C177 C178 1.381 . S
C178 H170 0.930 . S
C178 C174 1.390 . S
C178 C177 1.381 . S
N179 C172 1.286 . S
N179 C175 1.413 . S
H180 C185 0.930 . S
H181 C188 0.930 . S
H182 C190 0.930 . S
H183 C184 1.016 . S
C184 H183 1.016 . S
C184 N191 1.286 . S
C185 H180 0.930 . S
C185 C186 1.397 . S
C185 C187 1.361 . S
C186 C185 1.397 . S
C186 C190 1.390 . S
C187 C185 1.361 . S
C187 C188 1.393 . S
C187 N191 1.413 . S
C188 H181 0.930 . S
C188 C187 1.393 . S
C188 C189 1.399 . S
C189 C188 1.399 . S
C189 C190 1.381 . S
C190 H182 0.930 . S
C190 C186 1.390 . S
C190 C189 1.381 . S
N191 C184 1.286 . S
N191 C187 1.413 . S
H192 C197 0.930 . S
H193 C200 0.930 . S
H194 C202 0.930 . S
H195 C196 1.016 . S
C196 H195 1.016 . S
C196 N203 1.286 . S
C197 H192 0.930 . S
C197 C198 1.397 . S
C197 C199 1.361 . S
C198 C197 1.397 . S
C198 C202 1.390 . S
C199 C197 1.361 . S
C199 C200 1.393 . S
C199 N203 1.413 . S
C200 H193 0.930 . S
C200 C199 1.393 . S
C200 C201 1.399 . S
C201 C200 1.399 . S
C201 C202 1.381 . S
C202 H194 0.930 . S
C202 C198 1.390 . S
C202 C201 1.381 . S
N203 C196 1.286 . S
N203 C199 1.413 . S
H204 C209 0.930 . S
H205 C212 0.930 . S
H206 C214 0.930 . S
H207 C208 1.016 . S
C208 H207 1.016 . S
C208 N215 1.286 . S
C209 H204 0.930 . S
C209 C210 1.397 . S
C209 C211 1.361 . S
C210 C209 1.397 . S
C210 C214 1.390 . S
C211 C209 1.361 . S
C211 C212 1.393 . S
C211 N215 1.413 . S
C212 H205 0.930 . S
C212 C211 1.393 . S
C212 C213 1.399 . S
C213 C212 1.399 . S
C213 C214 1.381 . S
C214 H206 0.930 . S
C214 C210 1.390 . S
C214 C213 1.381 . S
N215 C208 1.286 . S
N215 C211 1.413 . S
Eu216 N247 2.657 . S
Eu216 N254 2.609 . S
Eu216 O260 2.558 . S
Eu216 O261 2.612 1_566 S
Eu216 O263 2.339 1_565 S
Eu216 O264 2.563 1_565 S
Eu216 O265 2.419 1_565 S
Eu216 O267 2.380 1_556 S
Eu216 O268 2.432 . S
Eu216 C280 2.848 . S
C217 C220 1.429 . S
C217 C221 1.411 . S
C217 N224 1.377 . S
C218 C220 1.420 . S
C218 C222 1.423 . S
C218 C230 1.392 . S
C219 C221 1.420 . S
C219 C222 1.351 . S
C219 H242 0.931 . S
C220 C217 1.429 . S
C220 C218 1.420 . S
C220 N228 1.362 . S
C221 C217 1.411 . S
C221 C219 1.420 . S
C221 C226 1.395 . S
C222 C218 1.423 . S
C222 C219 1.351 . S
C222 H234 0.930 . S
C223 C225 1.400 . S
C223 C226 1.386 . S
C223 H235 0.930 . S
N224 C217 1.377 . S
N224 C225 1.321 . S
N224 Eu227 2.609 . S
C225 C223 1.400 . S
C225 N224 1.321 . S
C225 H232 0.930 . S
C226 C221 1.395 . S
C226 C223 1.386 . S
C226 H245 0.930 . S
Eu227 N224 2.609 . S
Eu227 N228 2.657 . S
Eu227 O261 2.380 . S
Eu227 O262 2.432 . S
Eu227 O266 2.558 . S
Eu227 O267 2.612 1_545 S
Eu227 O269 2.339 1_545 S
Eu227 O270 2.563 1_545 S
Eu227 O271 2.419 1_545 S
Eu227 C291 2.848 . S
N228 C220 1.362 . S
N228 Eu227 2.657 . S
N228 C229 1.334 . S
C229 N228 1.334 . S
C229 C231 1.413 . S
C229 H236 0.929 . S
C230 C218 1.392 . S
C230 C231 1.367 . S
C230 H238 0.930 . S
C231 C229 1.413 . S
C231 C230 1.367 . S
C231 H233 0.930 . S
H232 C225 0.930 . S
H233 C231 0.930 . S
H234 C222 0.930 . S
H235 C223 0.930 . S
H236 C229 0.929 . S
H237 C251 0.930 . S
H238 C230 0.930 . S
H239 C257 0.930 . S
H240 C248 0.929 . S
H241 C255 0.930 . S
H242 C219 0.931 . S
H243 C249 0.930 . S
H244 C282 0.930 . S
H245 C226 0.930 . S
H246 C281 0.931 . S
N247 Eu216 2.657 . S
N247 C248 1.334 . S
N247 C252 1.362 . S
C248 H240 0.929 . S
C248 N247 1.334 . S
C248 C251 1.413 . S
C249 H243 0.930 . S
C249 C250 1.392 . S
C249 C251 1.367 . S
C250 C249 1.392 . S
C250 C252 1.420 . S
C250 C282 1.423 . S
C251 H237 0.930 . S
C251 C248 1.413 . S
C251 C249 1.367 . S
C252 N247 1.362 . S
C252 C250 1.420 . S
C252 C256 1.429 . S
H253 C258 0.930 . S
N254 Eu216 2.609 . S
N254 C256 1.377 . S
N254 C257 1.321 . S
C255 H241 0.930 . S
C255 C257 1.400 . S
C255 C258 1.386 . S
C256 C252 1.429 . S
C256 N254 1.377 . S
C256 C259 1.411 . S
C257 H239 0.930 . S
C257 N254 1.321 . S
C257 C255 1.400 . S
C258 H253 0.930 . S
C258 C255 1.386 . S
C258 C259 1.395 . S
C259 C256 1.411 . S
C259 C258 1.395 . S
C259 C281 1.420 . S
O260 Eu216 2.558 . S
O260 C280 1.257 . S
O261 Eu216 2.612 1_544 S
O261 Eu227 2.380 . S
O261 C272 1.276 1_554 S
O262 Eu227 2.432 . S
O262 C279 1.264 1_554 S
O263 Eu216 2.339 1_545 S
O263 C279 1.254 . S
O264 Eu216 2.563 1_545 S
O264 C272 1.235 . S
O265 Eu216 2.419 1_545 S
O265 C280 1.249 1_545 S
O266 Eu227 2.558 . S
O266 C291 1.257 . S
O267 Eu216 2.380 1_554 S
O267 Eu227 2.612 1_565 S
O267 C283 1.276 . S
O268 Eu216 2.432 . S
O268 C290 1.264 1_556 S
O269 Eu227 2.339 1_565 S
O269 C290 1.254 . S
O270 Eu227 2.563 1_565 S
O270 C283 1.235 . S
O271 Eu227 2.419 1_565 S
O271 C291 1.249 1_565 S
C272 O261 1.276 1_556 S
C272 O264 1.235 . S
C273 C275 1.393 . S
C273 C277 1.395 1_545 S
C273 C280 1.492 1_545 S
C274 C275 1.392 . S
C274 C276 1.386 . S
C275 C273 1.393 . S
C275 C274 1.392 . S
C275 H292 0.930 . S
C276 C274 1.386 . S
C276 C278 1.395 1_545 S
C276 H293 0.930 . S
C277 C273 1.395 1_565 S
C277 C278 1.379 . S
C277 H294 0.930 . S
C278 C276 1.395 1_565 S
C278 C277 1.379 . S
C278 H295 0.930 . S
C279 O262 1.264 1_556 S
C279 O263 1.254 . S
C280 Eu216 2.848 . S
C280 O260 1.257 . S
C280 O265 1.249 1_565 S
C280 C273 1.492 1_565 S
C281 H246 0.931 . S
C281 C259 1.420 . S
C281 C282 1.351 . S
C282 H244 0.930 . S
C282 C250 1.423 . S
C282 C281 1.351 . S
C283 O267 1.276 . S
C283 O270 1.235 . S
C284 C285 1.393 1_545 S
C284 C288 1.395 . S
C284 C291 1.492 . S
C285 C284 1.393 1_565 S
C285 C286 1.392 . S
C285 H296 0.930 . S
C286 C285 1.392 . S
C286 C287 1.386 . S
C287 C286 1.386 . S
C287 C289 1.395 1_565 S
C287 H297 0.930 . S
C288 C284 1.395 . S
C288 C289 1.379 . S
C288 H298 0.930 . S
C289 C287 1.395 1_545 S
C289 C288 1.379 . S
C289 H299 0.930 . S
C290 O268 1.264 1_554 S
C290 O269 1.254 . S
C291 Eu227 2.848 . S
C291 O266 1.257 . S
C291 O271 1.249 1_545 S
C291 C284 1.492 . S
H292 C275 0.930 . S
H293 C276 0.930 . S
H294 C277 0.930 . S
H295 C278 0.930 . S
H296 C285 0.930 . S
H297 C287 0.930 . S
H298 C288 0.930 . S
H299 C289 0.930 . S
Eu300 N331 2.657 . S
Eu300 N338 2.609 . S
Eu300 O344 2.558 . S
Eu300 O345 2.612 1_456 S
Eu300 O347 2.339 1_455 S
Eu300 O348 2.563 1_455 S
Eu300 O349 2.419 1_455 S
Eu300 O351 2.380 1_556 S
Eu300 O352 2.432 . S
Eu300 C364 2.848 . S
C301 C304 1.429 . S
C301 C305 1.411 . S
C301 N308 1.377 . S
C302 C304 1.420 . S
C302 C306 1.423 . S
C302 C314 1.392 . S
C303 C305 1.420 . S
C303 C306 1.351 . S
C303 H326 0.931 . S
C304 C301 1.429 . S
C304 C302 1.420 . S
C304 N312 1.362 . S
C305 C301 1.411 . S
C305 C303 1.420 . S
C305 C310 1.395 . S
C306 C302 1.423 . S
C306 C303 1.351 . S
C306 H318 0.930 . S
C307 C309 1.400 . S
C307 C310 1.386 . S
C307 H319 0.930 . S
N308 C301 1.377 . S
N308 C309 1.321 . S
N308 Eu311 2.609 . S
C309 C307 1.400 . S
C309 N308 1.321 . S
C309 H316 0.930 . S
C310 C305 1.395 . S
C310 C307 1.386 . S
C310 H329 0.930 . S
Eu311 N308 2.609 . S
Eu311 N312 2.657 . S
Eu311 O345 2.380 . S
Eu311 O346 2.432 . S
Eu311 O350 2.558 . S
Eu311 O351 2.612 1_655 S
Eu311 O353 2.339 1_655 S
Eu311 O354 2.563 1_655 S
Eu311 O355 2.419 1_655 S
Eu311 C375 2.848 . S
N312 C304 1.362 . S
N312 Eu311 2.657 . S
N312 C313 1.334 . S
C313 N312 1.334 . S
C313 C315 1.413 . S
C313 H320 0.929 . S
C314 C302 1.392 . S
C314 C315 1.367 . S
C314 H322 0.930 . S
C315 C313 1.413 . S
C315 C314 1.367 . S
C315 H317 0.930 . S
H316 C309 0.930 . S
H317 C315 0.930 . S
H318 C306 0.930 . S
H319 C307 0.930 . S
H320 C313 0.929 . S
H321 C335 0.930 . S
H322 C314 0.930 . S
H323 C341 0.930 . S
H324 C332 0.929 . S
H325 C339 0.930 . S
H326 C303 0.931 . S
H327 C333 0.930 . S
H328 C366 0.930 . S
H329 C310 0.930 . S
H330 C365 0.931 . S
N331 Eu300 2.657 . S
N331 C332 1.334 . S
N331 C336 1.362 . S
C332 H324 0.929 . S
C332 N331 1.334 . S
C332 C335 1.413 . S
C333 H327 0.930 . S
C333 C334 1.392 . S
C333 C335 1.367 . S
C334 C333 1.392 . S
C334 C336 1.420 . S
C334 C366 1.423 . S
C335 H321 0.930 . S
C335 C332 1.413 . S
C335 C333 1.367 . S
C336 N331 1.362 . S
C336 C334 1.420 . S
C336 C340 1.429 . S
H337 C342 0.930 . S
N338 Eu300 2.609 . S
N338 C340 1.377 . S
N338 C341 1.321 . S
C339 H325 0.930 . S
C339 C341 1.400 . S
C339 C342 1.386 . S
C340 C336 1.429 . S
C340 N338 1.377 . S
C340 C343 1.411 . S
C341 H323 0.930 . S
C341 N338 1.321 . S
C341 C339 1.400 . S
C342 H337 0.930 . S
C342 C339 1.386 . S
C342 C343 1.395 . S
C343 C340 1.411 . S
C343 C342 1.395 . S
C343 C365 1.420 . S
O344 Eu300 2.558 . S
O344 C364 1.257 . S
O345 Eu300 2.612 1_654 S
O345 Eu311 2.380 . S
O345 C356 1.276 1_554 S
O346 Eu311 2.432 . S
O346 C363 1.264 1_554 S
O347 Eu300 2.339 1_655 S
O347 C363 1.254 . S
O348 Eu300 2.563 1_655 S
O348 C356 1.235 . S
O349 Eu300 2.419 1_655 S
O349 C364 1.249 1_655 S
O350 Eu311 2.558 . S
O350 C375 1.257 . S
O351 Eu300 2.380 1_554 S
O351 Eu311 2.612 1_455 S
O351 C367 1.276 . S
O352 Eu300 2.432 . S
O352 C374 1.264 1_556 S
O353 Eu311 2.339 1_455 S
O353 C374 1.254 . S
O354 Eu311 2.563 1_455 S
O354 C367 1.235 . S
O355 Eu311 2.419 1_455 S
O355 C375 1.249 1_455 S
C356 O345 1.276 1_556 S
C356 O348 1.235 . S
C357 C359 1.393 1_455 S
C357 C361 1.395 . S
C357 C364 1.492 . S
C358 C359 1.392 . S
C358 C360 1.386 . S
C359 C357 1.393 1_655 S
C359 C358 1.392 . S
C359 H376 0.930 . S
C360 C358 1.386 . S
C360 C362 1.395 1_655 S
C360 H377 0.930 . S
C361 C357 1.395 . S
C361 C362 1.379 . S
C361 H378 0.930 . S
C362 C360 1.395 1_455 S
C362 C361 1.379 . S
C362 H379 0.930 . S
C363 O346 1.264 1_556 S
C363 O347 1.254 . S
C364 Eu300 2.848 . S
C364 O344 1.257 . S
C364 O349 1.249 1_455 S
C364 C357 1.492 . S
C365 H330 0.931 . S
C365 C343 1.420 . S
C365 C366 1.351 . S
C366 H328 0.930 . S
C366 C334 1.423 . S
C366 C365 1.351 . S
C367 O351 1.276 . S
C367 O354 1.235 . S
C368 C369 1.393 . S
C368 C372 1.395 1_455 S
C368 C375 1.492 1_455 S
C369 C368 1.393 . S
C369 C370 1.392 . S
C369 H380 0.930 . S
C370 C369 1.392 . S
C370 C371 1.386 . S
C371 C370 1.386 . S
C371 C373 1.395 1_455 S
C371 H381 0.930 . S
C372 C368 1.395 1_655 S
C372 C373 1.379 . S
C372 H382 0.930 . S
C373 C371 1.395 1_655 S
C373 C372 1.379 . S
C373 H383 0.930 . S
C374 O352 1.264 1_554 S
C374 O353 1.254 . S
C375 Eu311 2.848 . S
C375 O350 1.257 . S
C375 O355 1.249 1_655 S
C375 C368 1.492 1_655 S
H376 C359 0.930 . S
H377 C360 0.930 . S
H378 C361 0.930 . S
H379 C362 0.930 . S
H380 C369 0.930 . S
H381 C371 0.930 . S
H382 C372 0.930 . S
H383 C373 0.930 . S
Eu384 N415 2.657 . S
Eu384 N422 2.609 . S
Eu384 O428 2.558 . S
Eu384 O429 2.612 . S
Eu384 O431 2.339 . S
Eu384 O432 2.563 . S
Eu384 O433 2.419 . S
Eu384 O435 2.380 . S
Eu384 O436 2.432 . S
Eu384 C448 2.848 . S
C385 C388 1.429 . S
C385 C389 1.411 . S
C385 N392 1.377 . S
C386 C388 1.420 . S
C386 C390 1.423 . S
C386 C398 1.392 . S
C387 C389 1.420 . S
C387 C390 1.351 . S
C387 H410 0.931 . S
C388 C385 1.429 . S
C388 C386 1.420 . S
C388 N396 1.362 . S
C389 C385 1.411 . S
C389 C387 1.420 . S
C389 C394 1.395 . S
C390 C386 1.423 . S
C390 C387 1.351 . S
C390 H402 0.930 . S
C391 C393 1.400 . S
C391 C394 1.386 . S
C391 H403 0.930 . S
N392 C385 1.377 . S
N392 C393 1.321 . S
N392 Eu395 2.609 . S
C393 C391 1.400 . S
C393 N392 1.321 . S
C393 H400 0.930 . S
C394 C389 1.395 . S
C394 C391 1.386 . S
C394 H413 0.930 . S
Eu395 N392 2.609 . S
Eu395 N396 2.657 . S
Eu395 O429 2.380 1_556 S
Eu395 O430 2.432 . S
Eu395 O434 2.558 . S
Eu395 O435 2.612 1_556 S
Eu395 O437 2.339 . S
Eu395 O438 2.563 . S
Eu395 O439 2.419 . S
Eu395 C459 2.848 . S
N396 C388 1.362 . S
N396 Eu395 2.657 . S
N396 C397 1.334 . S
C397 N396 1.334 . S
C397 C399 1.413 . S
C397 H404 0.929 . S
C398 C386 1.392 . S
C398 C399 1.367 . S
C398 H406 0.930 . S
C399 C397 1.413 . S
C399 C398 1.367 . S
C399 H401 0.930 . S
H400 C393 0.930 . S
H401 C399 0.930 . S
H402 C390 0.930 . S
H403 C391 0.930 . S
H404 C397 0.929 . S
H405 C419 0.930 . S
H406 C398 0.930 . S
H407 C425 0.930 . S
H408 C416 0.929 . S
H409 C423 0.930 . S
H410 C387 0.931 . S
H411 C417 0.930 . S
H412 C450 0.930 . S
H413 C394 0.930 . S
H414 C449 0.931 . S
N415 Eu384 2.657 . S
N415 C416 1.334 . S
N415 C420 1.362 . S
C416 H408 0.929 . S
C416 N415 1.334 . S
C416 C419 1.413 . S
C417 H411 0.930 . S
C417 C418 1.392 . S
C417 C419 1.367 . S
C418 C417 1.392 . S
C418 C420 1.420 . S
C418 C450 1.423 . S
C419 H405 0.930 . S
C419 C416 1.413 . S
C419 C417 1.367 . S
C420 N415 1.362 . S
C420 C418 1.420 . S
C420 C424 1.429 . S
H421 C426 0.930 . S
N422 Eu384 2.609 . S
N422 C424 1.377 . S
N422 C425 1.321 . S
C423 H409 0.930 . S
C423 C425 1.400 . S
C423 C426 1.386 . S
C424 C420 1.429 . S
C424 N422 1.377 . S
C424 C427 1.411 . S
C425 H407 0.930 . S
C425 N422 1.321 . S
C425 C423 1.400 . S
C426 H421 0.930 . S
C426 C423 1.386 . S
C426 C427 1.395 . S
C427 C424 1.411 . S
C427 C426 1.395 . S
C427 C449 1.420 . S
O428 Eu384 2.558 . S
O428 C448 1.257 . S
O429 Eu384 2.612 . S
O429 Eu395 2.380 1_554 S
O429 C440 1.276 . S
O430 Eu395 2.432 . S
O430 C447 1.264 1_556 S
O431 Eu384 2.339 . S
O431 C447 1.254 . S
O432 Eu384 2.563 . S
O432 C440 1.235 . S
O433 Eu384 2.419 . S
O433 C448 1.249 . S
O434 Eu395 2.558 . S
O434 C459 1.257 . S
O435 Eu384 2.380 . S
O435 Eu395 2.612 1_554 S
O435 C451 1.276 1_554 S
O436 Eu384 2.432 . S
O436 C458 1.264 1_554 S
O437 Eu395 2.339 . S
O437 C458 1.254 . S
O438 Eu395 2.563 . S
O438 C451 1.235 . S
O439 Eu395 2.419 . S
O439 C459 1.249 . S
C440 O429 1.276 . S
C440 O432 1.235 . S
C441 C443 1.393 . S
C441 C445 1.395 . S
C441 C448 1.492 . S
C442 C443 1.392 . S
C442 C444 1.386 . S
C443 C441 1.393 . S
C443 C442 1.392 . S
C443 H460 0.930 . S
C444 C442 1.386 . S
C444 C446 1.395 . S
C444 H461 0.930 . S
C445 C441 1.395 . S
C445 C446 1.379 . S
C445 H462 0.930 . S
C446 C444 1.395 . S
C446 C445 1.379 . S
C446 H463 0.930 . S
C447 O430 1.264 1_554 S
C447 O431 1.254 . S
C448 Eu384 2.848 . S
C448 O428 1.257 . S
C448 O433 1.249 . S
C448 C441 1.492 . S
C449 H414 0.931 . S
C449 C427 1.420 . S
C449 C450 1.351 . S
C450 H412 0.930 . S
C450 C418 1.423 . S
C450 C449 1.351 . S
C451 O435 1.276 1_556 S
C451 O438 1.235 . S
C452 C453 1.393 . S
C452 C456 1.395 . S
C452 C459 1.492 . S
C453 C452 1.393 . S
C453 C454 1.392 . S
C453 H464 0.930 . S
C454 C453 1.392 . S
C454 C455 1.386 . S
C455 C454 1.386 . S
C455 C457 1.395 . S
C455 H465 0.930 . S
C456 C452 1.395 . S
C456 C457 1.379 . S
C456 H466 0.930 . S
C457 C455 1.395 . S
C457 C456 1.379 . S
C457 H467 0.930 . S
C458 O436 1.264 1_556 S
C458 O437 1.254 . S
C459 Eu395 2.848 . S
C459 O434 1.257 . S
C459 O439 1.249 . S
C459 C452 1.492 . S
H460 C443 0.930 . S
H461 C444 0.930 . S
H462 C445 0.930 . S
H463 C446 0.930 . S
H464 C453 0.930 . S
H465 C455 0.930 . S
H466 C456 0.930 . S
H467 C457 0.930 . S
Eu468 N499 2.657 . S
Eu468 N506 2.609 . S
Eu468 O512 2.558 . S
Eu468 O513 2.612 . S
Eu468 O515 2.339 . S
Eu468 O516 2.563 . S
Eu468 O517 2.419 . S
Eu468 O519 2.380 . S
Eu468 O520 2.432 . S
Eu468 C532 2.848 . S
C469 C472 1.429 . S
C469 C473 1.411 . S
C469 N476 1.377 . S
C470 C472 1.420 . S
C470 C474 1.423 . S
C470 C482 1.392 . S
C471 C473 1.420 . S
C471 C474 1.351 . S
C471 H494 0.931 . S
C472 C469 1.429 . S
C472 C470 1.420 . S
C472 N480 1.362 . S
C473 C469 1.411 . S
C473 C471 1.420 . S
C473 C478 1.395 . S
C474 C470 1.423 . S
C474 C471 1.351 . S
C474 H486 0.930 . S
C475 C477 1.400 . S
C475 C478 1.386 . S
C475 H487 0.930 . S
N476 C469 1.377 . S
N476 C477 1.321 . S
N476 Eu479 2.609 . S
C477 C475 1.400 . S
C477 N476 1.321 . S
C477 H484 0.930 . S
C478 C473 1.395 . S
C478 C475 1.386 . S
C478 H497 0.930 . S
Eu479 N476 2.609 . S
Eu479 N480 2.657 . S
Eu479 O513 2.380 . S
Eu479 O514 2.432 . S
Eu479 O518 2.558 . S
Eu479 O519 2.612 . S
Eu479 O521 2.339 . S
Eu479 O522 2.563 . S
Eu479 O523 2.419 . S
Eu479 C543 2.848 . S
N480 C472 1.362 . S
N480 Eu479 2.657 . S
N480 C481 1.334 . S
C481 N480 1.334 . S
C481 C483 1.413 . S
C481 H488 0.929 . S
C482 C470 1.392 . S
C482 C483 1.367 . S
C482 H490 0.930 . S
C483 C481 1.413 . S
C483 C482 1.367 . S
C483 H485 0.930 . S
H484 C477 0.930 . S
H485 C483 0.930 . S
H486 C474 0.930 . S
H487 C475 0.930 . S
H488 C481 0.929 . S
H489 C503 0.930 . S
H490 C482 0.930 . S
H491 C509 0.930 . S
H492 C500 0.929 . S
H493 C507 0.930 . S
H494 C471 0.931 . S
H495 C501 0.930 . S
H496 C534 0.930 . S
H497 C478 0.930 . S
H498 C533 0.931 . S
N499 Eu468 2.657 . S
N499 C500 1.334 . S
N499 C504 1.362 . S
C500 H492 0.929 . S
C500 N499 1.334 . S
C500 C503 1.413 1_455 S
C501 H495 0.930 . S
C501 C502 1.392 . S
C501 C503 1.367 . S
C502 C501 1.392 . S
C502 C504 1.420 1_655 S
C502 C534 1.423 . S
C503 H489 0.930 . S
C503 C500 1.413 1_655 S
C503 C501 1.367 . S
C504 N499 1.362 . S
C504 C502 1.420 1_455 S
C504 C508 1.429 . S
H505 C510 0.930 . S
N506 Eu468 2.609 . S
N506 C508 1.377 . S
N506 C509 1.321 . S
C507 H493 0.930 . S
C507 C509 1.400 . S
C507 C510 1.386 . S
C508 C504 1.429 . S
C508 N506 1.377 . S
C508 C511 1.411 . S
C509 H491 0.930 . S
C509 N506 1.321 . S
C509 C507 1.400 . S
C510 H505 0.930 . S
C510 C507 1.386 . S
C510 C511 1.395 . S
C511 C508 1.411 . S
C511 C510 1.395 . S
C511 C533 1.420 1_455 S
O512 Eu468 2.558 . S
O512 C532 1.257 . S
O513 Eu468 2.612 . S
O513 Eu479 2.380 . S
O513 C524 1.276 . S
O514 Eu479 2.432 . S
O514 C531 1.264 . S
O515 Eu468 2.339 . S
O515 C531 1.254 . S
O516 Eu468 2.563 . S
O516 C524 1.235 . S
O517 Eu468 2.419 . S
O517 C532 1.249 . S
O518 Eu479 2.558 . S
O518 C543 1.257 . S
O519 Eu468 2.380 . S
O519 Eu479 2.612 . S
O519 C535 1.276 . S
O520 Eu468 2.432 . S
O520 C542 1.264 . S
O521 Eu479 2.339 . S
O521 C542 1.254 . S
O522 Eu479 2.563 . S
O522 C535 1.235 . S
O523 Eu479 2.419 . S
O523 C543 1.249 . S
C524 O513 1.276 . S
C524 O516 1.235 . S
C525 C527 1.393 . S
C525 C529 1.395 . S
C525 C532 1.492 . S
C526 C527 1.392 . S
C526 C528 1.386 . S
C527 C525 1.393 . S
C527 C526 1.392 . S
C527 H544 0.930 . S
C528 C526 1.386 . S
C528 C530 1.395 . S
C528 H545 0.930 . S
C529 C525 1.395 . S
C529 C530 1.379 . S
C529 H546 0.930 . S
C530 C528 1.395 . S
C530 C529 1.379 . S
C530 H547 0.930 . S
C531 O514 1.264 . S
C531 O515 1.254 . S
C532 Eu468 2.848 . S
C532 O512 1.257 . S
C532 O517 1.249 . S
C532 C525 1.492 . S
C533 H498 0.931 . S
C533 C511 1.420 1_655 S
C533 C534 1.351 . S
C534 H496 0.930 . S
C534 C502 1.423 . S
C534 C533 1.351 . S
C535 O519 1.276 . S
C535 O522 1.235 . S
C536 C537 1.393 . S
C536 C540 1.395 . S
C536 C543 1.492 . S
C537 C536 1.393 . S
C537 C538 1.392 . S
C537 H548 0.930 . S
C538 C537 1.392 . S
C538 C539 1.386 . S
C539 C538 1.386 . S
C539 C541 1.395 . S
C539 H549 0.930 . S
C540 C536 1.395 . S
C540 C541 1.379 . S
C540 H550 0.930 . S
C541 C539 1.395 . S
C541 C540 1.379 . S
C541 H551 0.930 . S
C542 O520 1.264 . S
C542 O521 1.254 . S
C543 Eu479 2.848 . S
C543 O518 1.257 . S
C543 O523 1.249 . S
C543 C536 1.492 . S
H544 C527 0.930 . S
H545 C528 0.930 . S
H546 C529 0.930 . S
H547 C530 0.930 . S
H548 C537 0.930 . S
H549 C539 0.930 . S
H550 C540 0.930 . S
H551 C541 0.930 . S
Eu552 N583 2.657 . S
Eu552 N590 2.609 . S
Eu552 O596 2.558 . S
Eu552 O597 2.612 . S
Eu552 O599 2.339 . S
Eu552 O600 2.563 . S
Eu552 O601 2.419 . S
Eu552 O603 2.380 . S
Eu552 O604 2.432 . S
Eu552 C616 2.848 . S
C553 C556 1.429 . S
C553 C557 1.411 . S
C553 N560 1.377 . S
C554 C556 1.420 . S
C554 C558 1.423 . S
C554 C566 1.392 . S
C555 C557 1.420 . S
C555 C558 1.351 . S
C555 H578 0.931 . S
C556 C553 1.429 . S
C556 C554 1.420 . S
C556 N564 1.362 . S
C557 C553 1.411 . S
C557 C555 1.420 . S
C557 C562 1.395 . S
C558 C554 1.423 . S
C558 C555 1.351 . S
C558 H570 0.930 . S
C559 C561 1.400 . S
C559 C562 1.386 . S
C559 H571 0.930 . S
N560 C553 1.377 . S
N560 C561 1.321 . S
N560 Eu563 2.609 . S
C561 C559 1.400 . S
C561 N560 1.321 . S
C561 H568 0.930 . S
C562 C557 1.395 . S
C562 C559 1.386 . S
C562 H581 0.930 . S
Eu563 N560 2.609 . S
Eu563 N564 2.657 . S
Eu563 O597 2.380 . S
Eu563 O598 2.432 . S
Eu563 O602 2.558 . S
Eu563 O603 2.612 . S
Eu563 O605 2.339 . S
Eu563 O606 2.563 . S
Eu563 O607 2.419 . S
Eu563 C627 2.848 . S
N564 C556 1.362 . S
N564 Eu563 2.657 . S
N564 C565 1.334 . S
C565 N564 1.334 . S
C565 C567 1.413 . S
C565 H572 0.929 . S
C566 C554 1.392 . S
C566 C567 1.367 . S
C566 H574 0.930 . S
C567 C565 1.413 . S
C567 C566 1.367 . S
C567 H569 0.930 . S
H568 C561 0.930 . S
H569 C567 0.930 . S
H570 C558 0.930 . S
H571 C559 0.930 . S
H572 C565 0.929 . S
H573 C587 0.930 . S
H574 C566 0.930 . S
H575 C593 0.930 . S
H576 C584 0.929 . S
H577 C591 0.930 . S
H578 C555 0.931 . S
H579 C585 0.930 . S
H580 C618 0.930 . S
H581 C562 0.930 . S
H582 C617 0.931 . S
N583 Eu552 2.657 . S
N583 C584 1.334 . S
N583 C588 1.362 . S
C584 H576 0.929 . S
C584 N583 1.334 . S
C584 C587 1.413 . S
C585 H579 0.930 . S
C585 C586 1.392 . S
C585 C587 1.367 . S
C586 C585 1.392 . S
C586 C588 1.420 . S
C586 C618 1.423 . S
C587 H573 0.930 . S
C587 C584 1.413 . S
C587 C585 1.367 . S
C588 N583 1.362 . S
C588 C586 1.420 . S
C588 C592 1.429 . S
H589 C594 0.930 . S
N590 Eu552 2.609 . S
N590 C592 1.377 . S
N590 C593 1.321 . S
C591 H577 0.930 . S
C591 C593 1.400 . S
C591 C594 1.386 . S
C592 C588 1.429 . S
C592 N590 1.377 . S
C592 C595 1.411 . S
C593 H575 0.930 . S
C593 N590 1.321 . S
C593 C591 1.400 . S
C594 H589 0.930 . S
C594 C591 1.386 . S
C594 C595 1.395 . S
C595 C592 1.411 . S
C595 C594 1.395 . S
C595 C617 1.420 . S
O596 Eu552 2.558 . S
O596 C616 1.257 . S
O597 Eu552 2.612 . S
O597 Eu563 2.380 . S
O597 C608 1.276 . S
O598 Eu563 2.432 . S
O598 C615 1.264 . S
O599 Eu552 2.339 . S
O599 C615 1.254 . S
O600 Eu552 2.563 . S
O600 C608 1.235 . S
O601 Eu552 2.419 . S
O601 C616 1.249 . S
O602 Eu563 2.558 . S
O602 C627 1.257 . S
O603 Eu552 2.380 . S
O603 Eu563 2.612 . S
O603 C619 1.276 . S
O604 Eu552 2.432 . S
O604 C626 1.264 . S
O605 Eu563 2.339 . S
O605 C626 1.254 . S
O606 Eu563 2.563 . S
O606 C619 1.235 . S
O607 Eu563 2.419 . S
O607 C627 1.249 . S
C608 O597 1.276 . S
C608 O600 1.235 . S
C609 C611 1.393 . S
C609 C613 1.395 . S
C609 C616 1.492 . S
C610 C611 1.392 . S
C610 C612 1.386 . S
C611 C609 1.393 . S
C611 C610 1.392 . S
C611 H628 0.930 . S
C612 C610 1.386 . S
C612 C614 1.395 . S
C612 H629 0.930 . S
C613 C609 1.395 . S
C613 C614 1.379 . S
C613 H630 0.930 . S
C614 C612 1.395 . S
C614 C613 1.379 . S
C614 H631 0.930 . S
C615 O598 1.264 . S
C615 O599 1.254 . S
C616 Eu552 2.848 . S
C616 O596 1.257 . S
C616 O601 1.249 . S
C616 C609 1.492 . S
C617 H582 0.931 . S
C617 C595 1.420 . S
C617 C618 1.351 . S
C618 H580 0.930 . S
C618 C586 1.423 . S
C618 C617 1.351 . S
C619 O603 1.276 . S
C619 O606 1.235 . S
C620 C621 1.393 . S
C620 C624 1.395 . S
C620 C627 1.492 . S
C621 C620 1.393 . S
C621 C622 1.392 . S
C621 H632 0.930 . S
C622 C621 1.392 . S
C622 C623 1.386 . S
C623 C622 1.386 . S
C623 C625 1.395 . S
C623 H633 0.930 . S
C624 C620 1.395 . S
C624 C625 1.379 . S
C624 H634 0.930 . S
C625 C623 1.395 . S
C625 C624 1.379 . S
C625 H635 0.930 . S
C626 O604 1.264 . S
C626 O605 1.254 . S
C627 Eu563 2.848 . S
C627 O602 1.257 . S
C627 O607 1.249 . S
C627 C620 1.492 . S
H628 C611 0.930 . S
H629 C612 0.930 . S
H630 C613 0.930 . S
H631 C614 0.930 . S
H632 C621 0.930 . S
H633 C623 0.930 . S
H634 C624 0.930 . S
H635 C625 0.930 . S
Eu636 N667 2.657 . S
Eu636 N674 2.609 . S
Eu636 O680 2.558 . S
Eu636 O681 2.612 . S
Eu636 O683 2.339 . S
Eu636 O684 2.563 . S
Eu636 O685 2.419 . S
Eu636 O687 2.380 . S
Eu636 O688 2.432 . S
Eu636 C700 2.848 . S
C637 C640 1.429 . S
C637 C641 1.411 . S
C637 N644 1.377 . S
C638 C640 1.420 . S
C638 C642 1.423 . S
C638 C650 1.392 . S
C639 C641 1.420 . S
C639 C642 1.351 . S
C639 H662 0.931 . S
C640 C637 1.429 . S
C640 C638 1.420 . S
C640 N648 1.362 . S
C641 C637 1.411 . S
C641 C639 1.420 . S
C641 C646 1.395 . S
C642 C638 1.423 . S
C642 C639 1.351 . S
C642 H654 0.930 . S
C643 C645 1.400 . S
C643 C646 1.386 . S
C643 H655 0.939 . S
N644 C637 1.377 . S
N644 C645 1.321 . S
N644 Eu647 2.609 . S
C645 C643 1.400 . S
C645 N644 1.321 . S
C645 H652 0.930 . S
C646 C641 1.395 . S
C646 C643 1.386 . S
C646 H665 0.930 . S
Eu647 N644 2.609 . S
Eu647 N648 2.657 . S
Eu647 O681 2.380 . S
Eu647 O682 2.432 . S
Eu647 O686 2.558 . S
Eu647 O687 2.612 . S
Eu647 O689 2.339 . S
Eu647 O690 2.563 . S
Eu647 O691 2.419 . S
Eu647 C711 2.848 . S
N648 C640 1.362 . S
N648 Eu647 2.657 . S
N648 C649 1.334 . S
C649 N648 1.334 . S
C649 C651 1.413 . S
C649 H656 0.929 . S
C650 C638 1.392 . S
C650 C651 1.367 . S
C650 H658 0.930 . S
C651 C649 1.413 . S
C651 C650 1.367 . S
C651 H653 0.930 . S
H652 C645 0.930 . S
H653 C651 0.930 . S
H654 C642 0.930 . S
H655 C643 0.939 . S
H656 C649 0.929 . S
H657 C671 0.930 . S
H658 C650 0.930 . S
H659 C677 0.930 . S
H660 C668 0.929 . S
H661 C675 0.930 . S
H662 C639 0.931 . S
H663 C669 0.930 . S
H664 C702 0.930 . S
H665 C646 0.930 . S
H666 C701 0.931 . S
N667 Eu636 2.657 . S
N667 C668 1.334 . S
N667 C672 1.362 . S
C668 H660 0.929 . S
C668 N667 1.334 . S
C668 C671 1.413 . S
C669 H663 0.930 . S
C669 C670 1.392 . S
C669 C671 1.367 . S
C670 C669 1.392 . S
C670 C672 1.420 . S
C670 C702 1.423 . S
C671 H657 0.930 . S
C671 C668 1.413 . S
C671 C669 1.367 . S
C672 N667 1.362 . S
C672 C670 1.420 . S
C672 C676 1.429 . S
H673 C678 0.930 . S
N674 Eu636 2.609 . S
N674 C676 1.377 . S
N674 C677 1.321 . S
C675 H661 0.930 . S
C675 C677 1.400 . S
C675 C678 1.386 . S
C676 C672 1.429 . S
C676 N674 1.377 . S
C676 C679 1.411 . S
C677 H659 0.930 . S
C677 N674 1.321 . S
C677 C675 1.400 . S
C678 H673 0.930 . S
C678 C675 1.386 . S
C678 C679 1.395 . S
C679 C676 1.411 . S
C679 C678 1.395 . S
C679 C701 1.420 . S
O680 Eu636 2.558 . S
O680 C700 1.257 . S
O681 Eu636 2.612 . S
O681 Eu647 2.380 . S
O681 C692 1.276 . S
O682 Eu647 2.432 . S
O682 C699 1.264 . S
O683 Eu636 2.339 . S
O683 C699 1.254 . S
O684 Eu636 2.563 . S
O684 C692 1.235 . S
O685 Eu636 2.419 . S
O685 C700 1.249 . S
O686 Eu647 2.558 . S
O686 C711 1.257 . S
O687 Eu636 2.380 . S
O687 Eu647 2.612 . S
O687 C703 1.276 . S
O688 Eu636 2.432 . S
O688 C710 1.264 . S
O689 Eu647 2.339 . S
O689 C710 1.254 . S
O690 Eu647 2.563 . S
O690 C703 1.235 . S
O691 Eu647 2.419 . S
O691 C711 1.249 . S
C692 O681 1.276 . S
C692 O684 1.235 . S
C693 C695 1.393 . S
C693 C697 1.395 . S
C693 C700 1.492 . S
C694 C695 1.392 . S
C694 C696 1.386 . S
C695 C693 1.393 . S
C695 C694 1.392 . S
C695 H712 0.930 . S
C696 C694 1.386 . S
C696 C698 1.395 . S
C696 H713 0.930 . S
C697 C693 1.395 . S
C697 C698 1.379 . S
C697 H714 0.930 . S
C698 C696 1.395 . S
C698 C697 1.379 . S
C698 H715 0.930 . S
C699 O682 1.264 . S
C699 O683 1.254 . S
C700 Eu636 2.848 . S
C700 O680 1.257 . S
C700 O685 1.249 . S
C700 C693 1.492 . S
C701 H666 0.931 . S
C701 C679 1.420 . S
C701 C702 1.351 . S
C702 H664 0.930 . S
C702 C670 1.423 . S
C702 C701 1.351 . S
C703 O687 1.276 . S
C703 O690 1.235 . S
C704 C705 1.393 . S
C704 C708 1.395 . S
C704 C711 1.492 . S
C705 C704 1.393 . S
C705 C706 1.392 . S
C705 H716 0.930 . S
C706 C705 1.392 . S
C706 C707 1.386 . S
C707 C706 1.386 . S
C707 C709 1.395 . S
C707 H717 0.930 . S
C708 C704 1.395 . S
C708 C709 1.379 . S
C708 H718 0.930 . S
C709 C707 1.395 . S
C709 C708 1.379 . S
C709 H719 0.930 . S
C710 O688 1.264 . S
C710 O689 1.254 . S
C711 Eu647 2.848 . S
C711 O686 1.257 . S
C711 O691 1.249 . S
C711 C704 1.492 . S
H712 C695 0.930 . S
H713 C696 0.930 . S
H714 C697 0.930 . S
H715 C698 0.930 . S
H716 C705 0.930 . S
H717 C707 0.930 . S
H718 C708 0.930 . S
H719 C709 0.930 . S
Eu720 N751 2.657 . S
Eu720 N758 2.609 . S
Eu720 O764 2.558 . S
Eu720 O765 2.612 . S
Eu720 O767 2.339 . S
Eu720 O768 2.563 . S
Eu720 O769 2.419 . S
Eu720 O771 2.380 . S
Eu720 O772 2.432 . S
Eu720 C784 2.848 . S
C721 C724 1.429 . S
C721 C725 1.411 . S
C721 N728 1.377 . S
C722 C724 1.420 . S
C722 C726 1.423 . S
C722 C734 1.392 . S
C723 C725 1.420 . S
C723 C726 1.351 . S
C723 H746 0.931 . S
C724 C721 1.429 . S
C724 C722 1.420 . S
C724 N732 1.362 . S
C725 C721 1.411 . S
C725 C723 1.420 . S
C725 C730 1.395 . S
C726 C722 1.423 . S
C726 C723 1.351 . S
C726 H738 0.930 . S
C727 C729 1.400 . S
C727 C730 1.386 . S
C727 H739 0.930 . S
N728 C721 1.377 . S
N728 C729 1.321 . S
N728 Eu731 2.609 . S
C729 C727 1.400 . S
C729 N728 1.321 . S
C729 H736 0.930 . S
C730 C725 1.395 . S
C730 C727 1.386 . S
C730 H749 0.930 . S
Eu731 N728 2.609 . S
Eu731 N732 2.657 . S
Eu731 O765 2.380 . S
Eu731 O766 2.432 . S
Eu731 O770 2.558 . S
Eu731 O771 2.612 . S
Eu731 O773 2.339 . S
Eu731 O774 2.563 . S
Eu731 O775 2.419 . S
Eu731 C795 2.848 . S
N732 C724 1.362 . S
N732 Eu731 2.657 . S
N732 C733 1.334 . S
C733 N732 1.334 . S
C733 C735 1.413 . S
C733 H740 0.929 . S
C734 C722 1.392 . S
C734 C735 1.367 . S
C734 H742 0.930 . S
C735 C733 1.413 . S
C735 C734 1.367 . S
C735 H737 0.930 . S
H736 C729 0.930 . S
H737 C735 0.930 . S
H738 C726 0.930 . S
H739 C727 0.930 . S
H740 C733 0.929 . S
H741 C755 0.930 . S
H742 C734 0.930 . S
H743 C761 0.930 . S
H744 C752 0.929 . S
H745 C759 0.930 . S
H746 C723 0.931 . S
H747 C753 0.930 . S
H748 C786 0.930 . S
H749 C730 0.930 . S
H750 C785 0.931 . S
N751 Eu720 2.657 . S
N751 C752 1.334 . S
N751 C756 1.362 . S
C752 H744 0.929 . S
C752 N751 1.334 . S
C752 C755 1.413 . S
C753 H747 0.930 . S
C753 C754 1.392 . S
C753 C755 1.367 . S
C754 C753 1.392 . S
C754 C756 1.420 . S
C754 C786 1.423 . S
C755 H741 0.930 . S
C755 C752 1.413 . S
C755 C753 1.367 . S
C756 N751 1.362 . S
C756 C754 1.420 . S
C756 C760 1.429 . S
H757 C762 0.930 . S
N758 Eu720 2.609 . S
N758 C760 1.377 . S
N758 C761 1.321 . S
C759 H745 0.930 . S
C759 C761 1.400 . S
C759 C762 1.386 . S
C760 C756 1.429 . S
C760 N758 1.377 . S
C760 C763 1.411 . S
C761 H743 0.930 . S
C761 N758 1.321 . S
C761 C759 1.400 . S
C762 H757 0.930 . S
C762 C759 1.386 . S
C762 C763 1.395 . S
C763 C760 1.411 . S
C763 C762 1.395 . S
C763 C785 1.420 . S
O764 Eu720 2.558 . S
O764 C784 1.257 . S
O765 Eu720 2.612 . S
O765 Eu731 2.380 . S
O765 C776 1.276 . S
O766 Eu731 2.432 . S
O766 C783 1.264 . S
O767 Eu720 2.339 . S
O767 C783 1.254 . S
O768 Eu720 2.563 . S
O768 C776 1.235 . S
O769 Eu720 2.419 . S
O769 C784 1.249 . S
O770 Eu731 2.558 . S
O770 C795 1.257 . S
O771 Eu720 2.380 . S
O771 Eu731 2.612 . S
O771 C787 1.276 . S
O772 Eu720 2.432 . S
O772 C794 1.264 . S
O773 Eu731 2.339 . S
O773 C794 1.254 . S
O774 Eu731 2.563 . S
O774 C787 1.235 . S
O775 Eu731 2.419 . S
O775 C795 1.249 . S
C776 O765 1.276 . S
C776 O768 1.235 . S
C777 C779 1.393 . S
C777 C781 1.395 . S
C777 C784 1.492 . S
C778 C779 1.392 . S
C778 C780 1.386 . S
C779 C777 1.393 . S
C779 C778 1.392 . S
C779 H796 0.930 . S
C780 C778 1.386 . S
C780 C782 1.395 . S
C780 H797 0.930 . S
C781 C777 1.395 . S
C781 C782 1.379 . S
C781 H798 0.930 . S
C782 C780 1.395 . S
C782 C781 1.379 . S
C782 H799 0.930 . S
C783 O766 1.264 . S
C783 O767 1.254 . S
C784 Eu720 2.848 . S
C784 O764 1.257 . S
C784 O769 1.249 . S
C784 C777 1.492 . S
C785 H750 0.931 . S
C785 C763 1.420 . S
C785 C786 1.351 . S
C786 H748 0.930 . S
C786 C754 1.423 . S
C786 C785 1.351 . S
C787 O771 1.276 . S
C787 O774 1.235 . S
C788 C789 1.393 . S
C788 C792 1.395 . S
C788 C795 1.492 . S
C789 C788 1.393 . S
C789 C790 1.392 . S
C789 H800 0.930 . S
C790 C789 1.392 . S
C790 C791 1.386 . S
C791 C790 1.386 . S
C791 C793 1.395 . S
C791 H801 0.930 . S
C792 C788 1.395 . S
C792 C793 1.379 . S
C792 H802 0.930 . S
C793 C791 1.395 . S
C793 C792 1.379 . S
C793 H803 0.930 . S
C794 O772 1.264 . S
C794 O773 1.254 . S
C795 Eu731 2.848 . S
C795 O770 1.257 . S
C795 O775 1.249 . S
C795 C788 1.492 . S
H796 C779 0.930 . S
H797 C780 0.930 . S
H798 C781 0.930 . S
H799 C782 0.930 . S
H800 C789 0.930 . S
H801 C791 0.930 . S
H802 C792 0.930 . S
H803 C793 0.930 . S
Eu804 N835 2.657 . S
Eu804 N842 2.609 . S
Eu804 O848 2.558 . S
Eu804 O849 2.612 . S
Eu804 O851 2.339 . S
Eu804 O852 2.563 . S
Eu804 O853 2.419 . S
Eu804 O855 2.380 . S
Eu804 O856 2.432 . S
Eu804 C868 2.848 . S
C805 C808 1.429 . S
C805 C809 1.411 . S
C805 N812 1.377 . S
C806 C808 1.420 . S
C806 C810 1.423 . S
C806 C818 1.392 . S
C807 C809 1.420 . S
C807 C810 1.351 . S
C807 H830 0.931 . S
C808 C805 1.429 . S
C808 C806 1.420 . S
C808 N816 1.362 . S
C809 C805 1.411 . S
C809 C807 1.420 . S
C809 C814 1.395 . S
C810 C806 1.423 . S
C810 C807 1.351 . S
C810 H822 0.930 . S
C811 C813 1.400 . S
C811 C814 1.386 . S
C811 H823 0.930 . S
N812 C805 1.377 . S
N812 C813 1.321 . S
N812 Eu815 2.609 . S
C813 C811 1.400 . S
C813 N812 1.321 . S
C813 H820 0.930 . S
C814 C809 1.395 . S
C814 C811 1.386 . S
C814 H833 0.930 . S
Eu815 N812 2.609 . S
Eu815 N816 2.657 . S
Eu815 O849 2.380 . S
Eu815 O850 2.432 . S
Eu815 O854 2.558 . S
Eu815 O855 2.612 . S
Eu815 O857 2.339 . S
Eu815 O858 2.563 . S
Eu815 O859 2.419 . S
Eu815 C879 2.848 . S
N816 C808 1.362 . S
N816 Eu815 2.657 . S
N816 C817 1.334 . S
C817 N816 1.334 . S
C817 C819 1.413 . S
C817 H824 0.929 . S
C818 C806 1.392 . S
C818 C819 1.367 . S
C818 H826 0.930 . S
C819 C817 1.413 . S
C819 C818 1.367 . S
C819 H821 0.930 . S
H820 C813 0.930 . S
H821 C819 0.930 . S
H822 C810 0.930 . S
H823 C811 0.930 . S
H824 C817 0.929 . S
H825 C839 0.930 . S
H826 C818 0.930 . S
H827 C845 0.930 . S
H828 C836 0.929 . S
H829 C843 0.930 . S
H830 C807 0.931 . S
H831 C837 0.930 . S
H832 C870 0.930 . S
H833 C814 0.930 . S
H834 C869 0.931 . S
N835 Eu804 2.657 . S
N835 C836 1.334 . S
N835 C840 1.362 . S
C836 H828 0.929 . S
C836 N835 1.334 . S
C836 C839 1.413 . S
C837 H831 0.930 . S
C837 C838 1.392 . S
C837 C839 1.367 . S
C838 C837 1.392 . S
C838 C840 1.420 . S
C838 C870 1.423 . S
C839 H825 0.930 . S
C839 C836 1.413 . S
C839 C837 1.367 . S
C840 N835 1.362 . S
C840 C838 1.420 . S
C840 C844 1.429 . S
H841 C846 0.930 . S
N842 Eu804 2.609 . S
N842 C844 1.377 . S
N842 C845 1.321 . S
C843 H829 0.930 . S
C843 C845 1.400 . S
C843 C846 1.386 . S
C844 C840 1.429 . S
C844 N842 1.377 . S
C844 C847 1.411 . S
C845 H827 0.930 . S
C845 N842 1.321 . S
C845 C843 1.400 . S
C846 H841 0.930 . S
C846 C843 1.386 . S
C846 C847 1.395 . S
C847 C844 1.411 . S
C847 C846 1.395 . S
C847 C869 1.420 . S
O848 Eu804 2.558 . S
O848 C868 1.257 . S
O849 Eu804 2.612 . S
O849 Eu815 2.380 . S
O849 C860 1.276 . S
O850 Eu815 2.432 . S
O850 C867 1.264 . S
O851 Eu804 2.339 . S
O851 C867 1.254 . S
O852 Eu804 2.563 . S
O852 C860 1.235 . S
O853 Eu804 2.419 . S
O853 C868 1.249 . S
O854 Eu815 2.558 . S
O854 C879 1.257 . S
O855 Eu804 2.380 . S
O855 Eu815 2.612 . S
O855 C871 1.276 . S
O856 Eu804 2.432 . S
O856 C878 1.264 . S
O857 Eu815 2.339 . S
O857 C878 1.254 . S
O858 Eu815 2.563 . S
O858 C871 1.235 . S
O859 Eu815 2.419 . S
O859 C879 1.249 . S
C860 O849 1.276 . S
C860 O852 1.235 . S
C861 C863 1.393 . S
C861 C865 1.395 . S
C861 C868 1.492 . S
C862 C863 1.392 . S
C862 C864 1.386 . S
C863 C861 1.393 . S
C863 C862 1.392 . S
C863 H880 0.930 . S
C864 C862 1.386 . S
C864 C866 1.395 . S
C864 H881 0.930 . S
C865 C861 1.395 . S
C865 C866 1.379 . S
C865 H882 0.930 . S
C866 C864 1.395 . S
C866 C865 1.379 . S
C866 H883 0.930 . S
C867 O850 1.264 . S
C867 O851 1.254 . S
C868 Eu804 2.848 . S
C868 O848 1.257 . S
C868 O853 1.249 . S
C868 C861 1.492 . S
C869 H834 0.931 . S
C869 C847 1.420 . S
C869 C870 1.351 . S
C870 H832 0.930 . S
C870 C838 1.423 . S
C870 C869 1.351 . S
C871 O855 1.276 . S
C871 O858 1.235 . S
C872 C873 1.393 . S
C872 C876 1.395 . S
C872 C879 1.492 . S
C873 C872 1.393 . S
C873 C874 1.392 . S
C873 H884 0.930 . S
C874 C873 1.392 . S
C874 C875 1.386 . S
C875 C874 1.386 . S
C875 C877 1.395 . S
C875 H885 0.930 . S
C876 C872 1.395 . S
C876 C877 1.379 . S
C876 H886 0.930 . S
C877 C875 1.395 . S
C877 C876 1.379 . S
C877 H887 0.930 . S
C878 O856 1.264 . S
C878 O857 1.254 . S
C879 Eu815 2.848 . S
C879 O854 1.257 . S
C879 O859 1.249 . S
C879 C872 1.492 . S
H880 C863 0.930 . S
H881 C864 0.930 . S
H882 C865 0.930 . S
H883 C866 0.930 . S
H884 C873 0.930 . S
H885 C875 0.930 . S
H886 C876 0.930 . S
H887 C877 0.930 . S
Eu888 N919 2.657 . S
Eu888 N926 2.609 . S
Eu888 O932 2.558 . S
Eu888 O933 2.612 . S
Eu888 O935 2.339 . S
Eu888 O936 2.563 . S
Eu888 O937 2.419 . S
Eu888 O939 2.380 . S
Eu888 O940 2.432 . S
Eu888 C952 2.848 . S
C889 C892 1.429 . S
C889 C893 1.411 . S
C889 N896 1.377 . S
C890 C892 1.420 . S
C890 C894 1.423 . S
C890 C902 1.392 . S
C891 C893 1.420 . S
C891 C894 1.351 . S
C891 H914 0.931 . S
C892 C889 1.429 . S
C892 C890 1.420 . S
C892 N900 1.362 . S
C893 C889 1.411 . S
C893 C891 1.420 . S
C893 C898 1.395 . S
C894 C890 1.423 . S
C894 C891 1.351 . S
C894 H906 0.930 . S
C895 C897 1.400 . S
C895 C898 1.386 . S
C895 H907 0.930 . S
N896 C889 1.377 . S
N896 C897 1.321 . S
N896 Eu899 2.609 . S
C897 C895 1.400 . S
C897 N896 1.321 . S
C897 H904 0.930 . S
C898 C893 1.395 . S
C898 C895 1.386 . S
C898 H917 0.930 . S
Eu899 N896 2.609 . S
Eu899 N900 2.657 . S
Eu899 O933 2.380 . S
Eu899 O934 2.432 . S
Eu899 O938 2.558 . S
Eu899 O939 2.612 . S
Eu899 O941 2.339 . S
Eu899 O942 2.563 . S
Eu899 O943 2.419 . S
Eu899 C963 2.848 . S
N900 C892 1.362 . S
N900 Eu899 2.657 . S
N900 C901 1.334 . S
C901 N900 1.334 . S
C901 C903 1.413 . S
C901 H908 0.929 . S
C902 C890 1.392 . S
C902 C903 1.367 . S
C902 H910 0.930 . S
C903 C901 1.413 . S
C903 C902 1.367 . S
C903 H905 0.930 . S
H904 C897 0.930 . S
H905 C903 0.930 . S
H906 C894 0.930 . S
H907 C895 0.930 . S
H908 C901 0.929 . S
H909 C923 0.930 . S
H910 C902 0.930 . S
H911 C929 0.930 . S
H912 C920 0.929 . S
H913 C927 0.930 . S
H914 C891 0.931 . S
H915 C921 0.930 . S
H916 C954 0.930 . S
H917 C898 0.930 . S
H918 C953 0.931 . S
N919 Eu888 2.657 . S
N919 C920 1.334 . S
N919 C924 1.362 . S
C920 H912 0.929 . S
C920 N919 1.334 . S
C920 C923 1.413 1_655 S
C921 H915 0.930 . S
C921 C922 1.392 . S
C921 C923 1.367 . S
C922 C921 1.392 . S
C922 C924 1.420 1_455 S
C922 C954 1.423 . S
C923 H909 0.930 . S
C923 C920 1.413 1_455 S
C923 C921 1.367 . S
C924 N919 1.362 . S
C924 C922 1.420 1_655 S
C924 C928 1.429 . S
H925 C930 0.930 . S
N926 Eu888 2.609 . S
N926 C928 1.377 . S
N926 C929 1.321 . S
C927 H913 0.930 . S
C927 C929 1.400 . S
C927 C930 1.386 . S
C928 C924 1.429 . S
C928 N926 1.377 . S
C928 C931 1.411 . S
C929 H911 0.930 . S
C929 N926 1.321 . S
C929 C927 1.400 . S
C930 H925 0.930 . S
C930 C927 1.386 . S
C930 C931 1.395 . S
C931 C928 1.411 . S
C931 C930 1.395 . S
C931 C953 1.420 1_655 S
O932 Eu888 2.558 . S
O932 C952 1.257 . S
O933 Eu888 2.612 . S
O933 Eu899 2.380 . S
O933 C944 1.276 . S
O934 Eu899 2.432 . S
O934 C951 1.264 . S
O935 Eu888 2.339 . S
O935 C951 1.254 . S
O936 Eu888 2.563 . S
O936 C944 1.235 . S
O937 Eu888 2.419 . S
O937 C952 1.249 . S
O938 Eu899 2.558 . S
O938 C963 1.257 . S
O939 Eu888 2.380 . S
O939 Eu899 2.612 . S
O939 C955 1.276 . S
O940 Eu888 2.432 . S
O940 C962 1.264 . S
O941 Eu899 2.339 . S
O941 C962 1.254 . S
O942 Eu899 2.563 . S
O942 C955 1.235 . S
O943 Eu899 2.419 . S
O943 C963 1.249 . S
C944 O933 1.276 . S
C944 O936 1.235 . S
C945 C947 1.393 . S
C945 C949 1.395 . S
C945 C952 1.492 . S
C946 C947 1.392 . S
C946 C948 1.386 . S
C947 C945 1.393 . S
C947 C946 1.392 . S
C947 H964 0.930 . S
C948 C946 1.386 . S
C948 C950 1.395 . S
C948 H965 0.930 . S
C949 C945 1.395 . S
C949 C950 1.379 . S
C949 H966 0.930 . S
C950 C948 1.395 . S
C950 C949 1.379 . S
C950 H967 0.930 . S
C951 O934 1.264 . S
C951 O935 1.254 . S
C952 Eu888 2.848 . S
C952 O932 1.257 . S
C952 O937 1.249 . S
C952 C945 1.492 . S
C953 H918 0.931 . S
C953 C931 1.420 1_455 S
C953 C954 1.351 . S
C954 H916 0.930 . S
C954 C922 1.423 . S
C954 C953 1.351 . S
C955 O939 1.276 . S
C955 O942 1.235 . S
C956 C957 1.393 . S
C956 C960 1.395 . S
C956 C963 1.492 . S
C957 C956 1.393 . S
C957 C958 1.392 . S
C957 H968 0.930 . S
C958 C957 1.392 . S
C958 C959 1.386 . S
C959 C958 1.386 . S
C959 C961 1.395 . S
C959 H969 0.930 . S
C960 C956 1.395 . S
C960 C961 1.379 . S
C960 H970 0.930 . S
C961 C959 1.395 . S
C961 C960 1.379 . S
C961 H971 0.930 . S
C962 O940 1.264 . S
C962 O941 1.254 . S
C963 Eu899 2.848 . S
C963 O938 1.257 . S
C963 O943 1.249 . S
C963 C956 1.492 . S
H964 C947 0.930 . S
H965 C948 0.930 . S
H966 C949 0.930 . S
H967 C950 0.930 . S
H968 C957 0.930 . S
H969 C959 0.930 . S
H970 C960 0.930 . S
H971 C961 0.930 . S
C972 C973 1.369 . S
C972 C974 1.419 . S
C972 H976 0.930 . S
C973 C972 1.369 . S
C973 C982 1.429 . S
C974 C972 1.419 . S
C974 C975 1.363 . S
C974 H977 0.929 1_554 S
C975 C974 1.363 . S
C975 C981 1.428 . S
H976 C972 0.930 . S
H977 C974 0.929 1_556 S
S978 N979 1.613 . S
S978 N980 1.610 . S
N979 S978 1.613 . S
N979 C982 1.350 . S
N980 S978 1.610 . S
N980 C981 1.351 . S
C981 C975 1.428 . S
C981 N980 1.351 . S
C981 C982 1.434 . S
C982 C973 1.429 . S
C982 N979 1.350 . S
C982 C981 1.434 . S
C983 C984 1.369 . S
C983 C985 1.419 . S
C983 H987 0.930 . S
C984 C983 1.369 . S
C984 C993 1.429 . S
C985 C983 1.419 . S
C985 C986 1.363 . S
C985 H988 0.929 . S
C986 C985 1.363 . S
C986 C992 1.428 . S
H987 C983 0.930 . S
H988 C985 0.929 . S
S989 N990 1.613 . S
S989 N991 1.610 . S
N990 S989 1.613 . S
N990 C993 1.350 . S
N991 S989 1.610 . S
N991 C992 1.351 . S
C992 C986 1.428 . S
C992 N991 1.351 . S
C992 C993 1.434 . S
C993 C984 1.429 . S
C993 N990 1.350 . S
C993 C992 1.434 . S
C994 C995 1.369 . S
C994 C996 1.419 . S
C994 H998 0.930 . S
C995 C994 1.369 . S
C995 C1004 1.429 . S
C996 C994 1.419 . S
C996 C997 1.363 . S
C996 H999 0.929 . S
C997 C996 1.363 . S
C997 C1003 1.428 . S
H998 C994 0.930 . S
H999 C996 0.929 . S
S1000 N1001 1.613 . S
S1000 N1002 1.610 . S
N1001 S1000 1.613 . S
N1001 C1004 1.350 . S
N1002 S1000 1.610 . S
N1002 C1003 1.351 . S
C1003 C997 1.428 . S
C1003 N1002 1.351 . S
C1003 C1004 1.434 . S
C1004 C995 1.429 . S
C1004 N1001 1.350 . S
C1004 C1003 1.434 . S
C1005 C1006 1.369 . S
C1005 C1007 1.419 . S
C1005 H1009 0.930 . S
C1006 C1005 1.369 . S
C1006 C1015 1.429 . S
C1007 C1005 1.419 . S
C1007 C1008 1.363 . S
C1007 H1010 0.929 1_556 S
C1008 C1007 1.363 . S
C1008 C1014 1.428 . S
H1009 C1005 0.930 . S
H1010 C1007 0.929 1_554 S
S1011 N1012 1.613 . S
S1011 N1013 1.610 . S
N1012 S1011 1.613 . S
N1012 C1015 1.350 . S
N1013 S1011 1.610 . S
N1013 C1014 1.351 . S
C1014 C1008 1.428 . S
C1014 N1013 1.351 . S
C1014 C1015 1.434 . S
C1015 C1006 1.429 . S
C1015 N1012 1.350 . S
C1015 C1014 1.434 . S
C1016 C1017 1.369 . S
C1016 C1018 1.419 . S
C1016 H1020 0.930 . S
C1017 C1016 1.369 . S
C1017 C1026 1.429 . S
C1018 C1016 1.419 . S
C1018 C1019 1.363 . S
C1018 H1021 0.929 . S
C1019 C1018 1.363 . S
C1019 C1025 1.428 . S
H1020 C1016 0.930 . S
H1021 C1018 0.929 . S
S1022 N1023 1.613 . S
S1022 N1024 1.610 . S
N1023 S1022 1.613 . S
N1023 C1026 1.350 1_554 S
N1024 S1022 1.610 . S
N1024 C1025 1.351 1_554 S
C1025 C1019 1.428 . S
C1025 N1024 1.351 1_556 S
C1025 C1026 1.434 . S
C1026 C1017 1.429 . S
C1026 N1023 1.350 1_556 S
C1026 C1025 1.434 . S
C1027 C1028 1.369 . S
C1027 C1029 1.419 . S
C1027 H1031 0.930 . S
C1028 C1027 1.369 . S
C1028 C1037 1.429 . S
C1029 C1027 1.419 . S
C1029 C1030 1.363 . S
C1029 H1032 0.929 . S
C1030 C1029 1.363 . S
C1030 C1036 1.428 . S
H1031 C1027 0.930 . S
H1032 C1029 0.929 . S
S1033 N1034 1.613 . S
S1033 N1035 1.610 . S
N1034 S1033 1.613 . S
N1034 C1037 1.350 1_554 S
N1035 S1033 1.610 . S
N1035 C1036 1.351 1_554 S
C1036 C1030 1.428 . S
C1036 N1035 1.351 1_556 S
C1036 C1037 1.434 . S
C1037 C1028 1.429 . S
C1037 N1034 1.350 1_556 S
C1037 C1036 1.434 . S
C1038 C1039 1.369 . S
C1038 C1040 1.419 . S
C1038 H1042 0.930 . S
C1039 C1038 1.369 . S
C1039 C1048 1.429 . S
C1040 C1038 1.419 . S
C1040 C1041 1.363 . S
C1040 H1043 0.929 . S
C1041 C1040 1.363 . S
C1041 C1047 1.428 . S
H1042 C1038 0.930 . S
H1043 C1040 0.929 . S
S1044 N1045 1.613 . S
S1044 N1046 1.610 . S
N1045 S1044 1.613 . S
N1045 C1048 1.350 . S
N1046 S1044 1.610 . S
N1046 C1047 1.351 . S
C1047 C1041 1.428 . S
C1047 N1046 1.351 . S
C1047 C1048 1.434 . S
C1048 C1039 1.429 . S
C1048 N1045 1.350 . S
C1048 C1047 1.434 . S
C1049 C1050 1.369 . S
C1049 C1051 1.419 . S
C1049 H1053 0.930 . S
C1050 C1049 1.369 . S
C1050 C1059 1.429 . S
C1051 C1049 1.419 . S
C1051 C1052 1.363 . S
C1051 H1054 0.929 . S
C1052 C1051 1.363 . S
C1052 C1058 1.428 1_556 S
H1053 C1049 0.930 . S
H1054 C1051 0.929 . S
S1055 N1056 1.613 . S
S1055 N1057 1.610 . S
N1056 S1055 1.613 . S
N1056 C1059 1.350 1_554 S
N1057 S1055 1.610 . S
N1057 C1058 1.351 . S
C1058 C1052 1.428 1_554 S
C1058 N1057 1.351 . S
C1058 C1059 1.434 1_554 S
C1059 C1050 1.429 . S
C1059 N1056 1.350 1_556 S
C1059 C1058 1.434 1_556 S
C1060 C1061 1.369 1_554 S
C1060 C1062 1.419 . S
C1060 H1064 0.930 . S
C1061 C1060 1.369 1_556 S
C1061 C1070 1.429 . S
C1062 C1060 1.419 . S
C1062 C1063 1.363 1_554 S
C1062 H1065 0.929 . S
C1063 C1062 1.363 1_556 S
C1063 C1069 1.428 . S
H1064 C1060 0.930 . S
H1065 C1062 0.929 . S
S1066 N1067 1.613 . S
S1066 N1068 1.610 . S
N1067 S1066 1.613 . S
N1067 C1070 1.350 . S
N1068 S1066 1.610 . S
N1068 C1069 1.351 . S
C1069 C1063 1.428 . S
C1069 N1068 1.351 . S
C1069 C1070 1.434 . S
C1070 C1061 1.429 . S
C1070 N1067 1.350 . S
C1070 C1069 1.434 . S
C1071 C1072 1.369 . S
C1071 C1073 1.419 . S
C1071 H1075 0.930 . S
C1072 C1071 1.369 . S
C1072 C1081 1.429 . S
C1073 C1071 1.419 . S
C1073 C1074 1.363 . S
C1073 H1076 0.929 . S
C1074 C1073 1.363 . S
C1074 C1080 1.428 . S
H1075 C1071 0.930 . S
H1076 C1073 0.929 . S
S1077 N1078 1.613 . S
S1077 N1079 1.610 . S
N1078 S1077 1.613 . S
N1078 C1081 1.350 1_556 S
N1079 S1077 1.610 . S
N1079 C1080 1.351 1_556 S
C1080 C1074 1.428 . S
C1080 N1079 1.351 1_554 S
C1080 C1081 1.434 . S
C1081 C1072 1.429 . S
C1081 N1078 1.350 1_554 S
C1081 C1080 1.434 . S
C1082 C1083 1.369 . S
C1082 C1084 1.419 . S
C1082 H1086 0.930 . S
C1083 C1082 1.369 . S
C1083 C1092 1.429 . S
C1084 C1082 1.419 . S
C1084 C1085 1.363 . S
C1084 H1087 0.929 . S
C1085 C1084 1.363 . S
C1085 C1091 1.428 . S
H1086 C1082 0.930 . S
H1087 C1084 0.929 . S
S1088 N1089 1.613 1_556 S
S1088 N1090 1.610 . S
N1089 S1088 1.613 1_554 S
N1089 C1092 1.350 . S
N1090 S1088 1.610 . S
N1090 C1091 1.351 1_556 S
C1091 C1085 1.428 . S
C1091 N1090 1.351 1_554 S
C1091 C1092 1.434 . S
C1092 C1083 1.429 . S
C1092 N1089 1.350 . S
C1092 C1091 1.434 . S
C1093 C1094 1.369 . S
C1093 C1095 1.419 . S
C1093 H1097 0.924 1_554 S
C1094 C1093 1.369 . S
C1094 C1103 1.429 . S
C1095 C1093 1.419 . S
C1095 C1096 1.363 . S
C1095 H1098 0.929 1_554 S
C1096 C1095 1.363 . S
C1096 C1102 1.428 . S
H1097 C1093 0.924 1_556 S
H1098 C1095 0.929 1_556 S
S1099 N1100 1.613 . S
S1099 N1101 1.610 . S
N1100 S1099 1.613 . S
N1100 C1103 1.350 . S
N1101 S1099 1.610 . S
N1101 C1102 1.351 . S
C1102 C1096 1.428 . S
C1102 N1101 1.351 . S
C1102 C1103 1.434 . S
C1103 C1094 1.429 . S
C1103 N1100 1.350 . S
C1103 C1102 1.434 . S
C1104 C1105 1.369 . S
C1104 C1106 1.419 1_655 S
C1104 H1108 0.930 . S
C1105 C1104 1.369 . S
C1105 C1114 1.429 . S
C1106 C1104 1.419 1_455 S
C1106 C1107 1.363 . S
C1106 H1109 0.929 . S
C1107 C1106 1.363 . S
C1107 C1113 1.428 . S
H1108 C1104 0.930 . S
H1109 C1106 0.929 . S
S1110 N1111 1.613 . S
S1110 N1112 1.610 1_655 S
N1111 S1110 1.613 . S
N1111 C1114 1.350 . S
N1112 S1110 1.610 1_455 S
N1112 C1113 1.351 . S
C1113 C1107 1.428 . S
C1113 N1112 1.351 . S
C1113 C1114 1.434 1_455 S
C1114 C1105 1.429 . S
C1114 N1111 1.350 . S
C1114 C1113 1.434 1_655 S
C1115 C1116 1.369 . S
C1115 C1117 1.419 . S
C1115 H1119 0.930 . S
C1116 C1115 1.369 . S
C1116 C1125 1.429 . S
C1117 C1115 1.419 . S
C1117 C1118 1.363 . S
C1117 H1120 0.929 . S
C1118 C1117 1.363 . S
C1118 C1124 1.428 . S
H1119 C1115 0.930 . S
H1120 C1117 0.929 . S
S1121 N1122 1.613 . S
S1121 N1123 1.610 . S
N1122 S1121 1.613 . S
N1122 C1125 1.350 . S
N1123 S1121 1.610 . S
N1123 C1124 1.351 . S
C1124 C1118 1.428 . S
C1124 N1123 1.351 . S
C1124 C1125 1.434 . S
C1125 C1116 1.429 . S
C1125 N1122 1.350 . S
C1125 C1124 1.434 . S
C1126 C1127 1.369 . S
C1126 C1128 1.419 . S
C1126 H1130 0.930 . S
C1127 C1126 1.369 . S
C1127 C1136 1.429 . S
C1128 C1126 1.419 . S
C1128 C1129 1.363 1_545 S
C1128 H1131 0.929 . S
C1129 C1128 1.363 1_565 S
C1129 C1135 1.428 . S
H1130 C1126 0.930 . S
H1131 C1128 0.929 . S
S1132 N1133 1.613 1_565 S
S1132 N1134 1.610 . S
N1133 S1132 1.613 1_545 S
N1133 C1136 1.350 . S
N1134 S1132 1.610 . S
N1134 C1135 1.351 . S
C1135 C1129 1.428 . S
C1135 N1134 1.351 . S
C1135 C1136 1.434 1_565 S
C1136 C1127 1.429 . S
C1136 N1133 1.350 . S
C1136 C1135 1.434 1_545 S
C1137 C1138 1.369 . S
C1137 C1139 1.419 . S
C1137 H1141 0.930 . S
C1138 C1137 1.369 . S
C1138 C1147 1.429 . S
C1139 C1137 1.419 . S
C1139 C1140 1.363 . S
C1139 H1142 0.929 . S
C1140 C1139 1.363 . S
C1140 C1146 1.428 . S
H1141 C1137 0.930 . S
H1142 C1139 0.929 . S
S1143 N1144 1.613 . S
S1143 N1145 1.610 . S
N1144 S1143 1.613 . S
N1144 C1147 1.350 . S
N1145 S1143 1.610 . S
N1145 C1146 1.351 . S
C1146 C1140 1.428 . S
C1146 N1145 1.351 . S
C1146 C1147 1.434 . S
C1147 C1138 1.429 . S
C1147 N1144 1.350 . S
C1147 C1146 1.434 . S
C1148 C1149 1.369 . S
C1148 C1150 1.419 . S
C1148 H1152 0.930 . S
C1149 C1148 1.369 . S
C1149 C1158 1.429 . S
C1150 C1148 1.419 . S
C1150 C1151 1.363 . S
C1150 H1153 0.929 . S
C1151 C1150 1.363 . S
C1151 C1157 1.428 . S
H1152 C1148 0.930 . S
H1153 C1150 0.929 . S
S1154 N1155 1.613 . S
S1154 N1156 1.610 . S
N1155 S1154 1.613 . S
N1155 C1158 1.350 . S
N1156 S1154 1.610 . S
N1156 C1157 1.351 . S
C1157 C1151 1.428 . S
C1157 N1156 1.351 . S
C1157 C1158 1.434 . S
C1158 C1149 1.429 . S
C1158 N1155 1.350 . S
C1158 C1157 1.434 . S
C1159 C1160 1.369 . S
C1159 C1161 1.419 . S
C1159 H1163 0.930 . S
C1160 C1159 1.369 . S
C1160 C1169 1.429 . S
C1161 C1159 1.419 . S
C1161 C1162 1.363 . S
C1161 H1164 0.929 . S
C1162 C1161 1.363 . S
C1162 C1168 1.428 . S
H1163 C1159 0.930 . S
H1164 C1161 0.929 . S
S1165 N1166 1.613 . S
S1165 N1167 1.610 . S
N1166 S1165 1.613 . S
N1166 C1169 1.350 . S
N1167 S1165 1.610 . S
N1167 C1168 1.351 . S
C1168 C1162 1.428 . S
C1168 N1167 1.351 . S
C1168 C1169 1.434 . S
C1169 C1160 1.429 . S
C1169 N1166 1.350 . S
C1169 C1168 1.434 . S
C1170 C1171 1.369 . S
C1170 C1172 1.419 . S
C1170 H1174 0.930 . S
C1171 C1170 1.369 . S
C1171 C1180 1.429 . S
C1172 C1170 1.419 . S
C1172 C1173 1.363 . S
C1172 H1175 0.929 . S
C1173 C1172 1.363 . S
C1173 C1179 1.428 . S
H1174 C1170 0.930 . S
H1175 C1172 0.929 . S
S1176 N1177 1.613 . S
S1176 N1178 1.610 . S
N1177 S1176 1.613 . S
N1177 C1180 1.350 . S
N1178 S1176 1.610 . S
N1178 C1179 1.351 . S
C1179 C1173 1.428 . S
C1179 N1178 1.351 . S
C1179 C1180 1.434 . S
C1180 C1171 1.429 . S
C1180 N1177 1.350 . S
C1180 C1179 1.434 . S
C1181 C1182 1.369 . S
C1181 C1183 1.419 . S
C1181 H1185 0.930 . S
C1182 C1181 1.369 . S
C1182 C1191 1.429 . S
C1183 C1181 1.419 . S
C1183 C1184 1.363 . S
C1183 H1186 0.929 . S
C1184 C1183 1.363 . S
C1184 C1190 1.428 . S
H1185 C1181 0.930 . S
H1186 C1183 0.929 . S
S1187 N1188 1.613 . S
S1187 N1189 1.610 . S
N1188 S1187 1.613 . S
N1188 C1191 1.350 . S
N1189 S1187 1.610 . S
N1189 C1190 1.351 . S
C1190 C1184 1.428 . S
C1190 N1189 1.351 . S
C1190 C1191 1.434 . S
C1191 C1182 1.429 . S
C1191 N1188 1.350 . S
C1191 C1190 1.434 . S
C1192 C1193 1.369 . S
C1192 C1194 1.419 . S
C1192 H1196 0.930 . S
C1193 C1192 1.369 . S
C1193 C1202 1.429 . S
C1194 C1192 1.419 . S
C1194 C1195 1.363 . S
C1194 H1197 0.929 . S
C1195 C1194 1.363 . S
C1195 C1201 1.428 . S
H1196 C1192 0.930 . S
H1197 C1194 0.929 . S
S1198 N1199 1.613 . S
S1198 N1200 1.610 . S
N1199 S1198 1.613 . S
N1199 C1202 1.350 . S
N1200 S1198 1.610 . S
N1200 C1201 1.351 . S
C1201 C1195 1.428 . S
C1201 N1200 1.351 . S
C1201 C1202 1.434 . S
C1202 C1193 1.429 . S
C1202 N1199 1.350 . S
C1202 C1201 1.434 . S
C1203 C1204 1.369 . S
C1203 C1205 1.419 . S
C1203 H1207 0.930 . S
C1204 C1203 1.369 . S
C1204 C1213 1.429 . S
C1205 C1203 1.419 . S
C1205 C1206 1.363 . S
C1205 H1208 0.929 . S
C1206 C1205 1.363 . S
C1206 C1212 1.428 . S
H1207 C1203 0.930 . S
H1208 C1205 0.929 . S
S1209 N1210 1.613 . S
S1209 N1211 1.610 . S
N1210 S1209 1.613 . S
N1210 C1213 1.350 . S
N1211 S1209 1.610 . S
N1211 C1212 1.351 . S
C1212 C1206 1.428 . S
C1212 N1211 1.351 . S
C1212 C1213 1.434 . S
C1213 C1204 1.429 . S
C1213 N1210 1.350 . S
C1213 C1212 1.434 . S
C1214 C1215 1.369 . S
C1214 C1216 1.419 . S
C1214 H1218 0.930 . S
C1215 C1214 1.369 . S
C1215 C1224 1.429 . S
C1216 C1214 1.419 . S
C1216 C1217 1.363 . S
C1216 H1219 0.929 . S
C1217 C1216 1.363 . S
C1217 C1223 1.428 . S
H1218 C1214 0.930 . S
H1219 C1216 0.929 . S
S1220 N1221 1.613 . S
S1220 N1222 1.610 . S
N1221 S1220 1.613 . S
N1221 C1224 1.350 . S
N1222 S1220 1.610 . S
N1222 C1223 1.351 . S
C1223 C1217 1.428 . S
C1223 N1222 1.351 . S
C1223 C1224 1.434 . S
C1224 C1215 1.429 . S
C1224 N1221 1.350 . S
C1224 C1223 1.434 . S
C1225 C1226 1.369 . S
C1225 C1227 1.419 . S
C1225 H1229 0.930 . S
C1226 C1225 1.369 . S
C1226 C1235 1.429 . S
C1227 C1225 1.419 . S
C1227 C1228 1.363 . S
C1227 H1230 0.929 . S
C1228 C1227 1.363 . S
C1228 C1234 1.428 . S
H1229 C1225 0.930 . S
H1230 C1227 0.929 . S
S1231 N1232 1.613 . S
S1231 N1233 1.610 . S
N1232 S1231 1.613 . S
N1232 C1235 1.350 . S
N1233 S1231 1.610 . S
N1233 C1234 1.351 . S
C1234 C1228 1.428 . S
C1234 N1233 1.351 . S
C1234 C1235 1.434 . S
C1235 C1226 1.429 . S
C1235 N1232 1.350 . S
C1235 C1234 1.434 . S
C1236 C1237 1.369 . S
C1236 C1238 1.419 . S
C1236 H1240 0.930 . S
C1237 C1236 1.369 . S
C1237 C1246 1.429 . S
C1238 C1236 1.419 . S
C1238 C1239 1.363 . S
C1238 H1241 0.929 . S
C1239 C1238 1.363 . S
C1239 C1245 1.428 . S
H1240 C1236 0.930 . S
H1241 C1238 0.929 . S
S1242 N1243 1.613 . S
S1242 N1244 1.610 . S
N1243 S1242 1.613 . S
N1243 C1246 1.350 . S
N1244 S1242 1.610 . S
N1244 C1245 1.351 . S
C1245 C1239 1.428 . S
C1245 N1244 1.351 . S
C1245 C1246 1.434 . S
C1246 C1237 1.429 . S
C1246 N1243 1.350 . S
C1246 C1245 1.434 . S
C1247 C1248 1.369 . S
C1247 C1249 1.419 . S
C1247 H1251 0.930 . S
C1248 C1247 1.369 . S
C1248 C1257 1.429 . S
C1249 C1247 1.419 . S
C1249 C1250 1.363 . S
C1249 H1252 0.929 . S
C1250 C1249 1.363 . S
C1250 C1256 1.428 . S
H1251 C1247 0.930 . S
H1252 C1249 0.929 . S
S1253 N1254 1.613 . S
S1253 N1255 1.610 . S
N1254 S1253 1.613 . S
N1254 C1257 1.350 . S
N1255 S1253 1.610 . S
N1255 C1256 1.351 . S
C1256 C1250 1.428 . S
C1256 N1255 1.351 . S
C1256 C1257 1.434 . S
C1257 C1248 1.429 . S
C1257 N1254 1.350 . S
C1257 C1256 1.434 . S
C1258 C1259 1.369 . S
C1258 C1260 1.419 . S
C1258 H1262 0.930 . S
C1259 C1258 1.369 . S
C1259 C1268 1.429 . S
C1260 C1258 1.419 . S
C1260 C1261 1.363 . S
C1260 H1263 0.929 . S
C1261 C1260 1.363 . S
C1261 C1267 1.428 . S
H1262 C1258 0.930 . S
H1263 C1260 0.929 . S
S1264 N1265 1.613 . S
S1264 N1266 1.610 . S
N1265 S1264 1.613 . S
N1265 C1268 1.350 . S
N1266 S1264 1.610 . S
N1266 C1267 1.351 . S
C1267 C1261 1.428 . S
C1267 N1266 1.351 . S
C1267 C1268 1.434 . S
C1268 C1259 1.429 . S
C1268 N1265 1.350 . S
C1268 C1267 1.434 . S
C1269 C1270 1.377 . S
C1269 C1271 1.415 1_565 S
C1269 H1273 0.926 1_565 S
C1270 C1269 1.377 . S
C1270 C1279 1.429 . S
C1271 C1269 1.415 1_545 S
C1271 C1272 1.363 . S
C1271 H1274 0.929 . S
C1272 C1271 1.363 . S
C1272 C1278 1.428 1_545 S
H1273 C1269 0.926 1_545 S
H1274 C1271 0.929 . S
S1275 N1276 1.613 . S
S1275 N1277 1.610 . S
N1276 S1275 1.613 . S
N1276 C1279 1.350 . S
N1277 S1275 1.610 . S
N1277 C1278 1.351 . S
C1278 C1272 1.428 1_565 S
C1278 N1277 1.351 . S
C1278 C1279 1.434 . S
C1279 C1270 1.429 . S
C1279 N1276 1.350 . S
C1279 C1278 1.434 . S
C1280 C1281 1.369 . S
C1280 C1282 1.419 . S
C1280 H1284 0.930 . S
C1281 C1280 1.369 . S
C1281 C1290 1.429 1_455 S
C1282 C1280 1.419 . S
C1282 C1283 1.363 1_455 S
C1282 H1285 0.929 . S
C1283 C1282 1.363 1_655 S
C1283 C1289 1.428 . S
H1284 C1280 0.930 . S
H1285 C1282 0.929 . S
S1286 N1287 1.613 . S
S1286 N1288 1.610 . S
N1287 S1286 1.613 . S
N1287 C1290 1.350 . S
N1288 S1286 1.610 . S
N1288 C1289 1.351 . S
C1289 C1283 1.428 . S
C1289 N1288 1.351 . S
C1289 C1290 1.434 . S
C1290 C1281 1.429 1_655 S
C1290 N1287 1.350 . S
C1290 C1289 1.434 . S
C1291 C1292 1.369 . S
C1291 C1293 1.419 . S
C1291 H1295 0.930 . S
C1292 C1291 1.369 . S
C1292 C1301 1.429 . S
C1293 C1291 1.419 . S
C1293 C1294 1.363 . S
C1293 H1296 0.929 . S
C1294 C1293 1.363 . S
C1294 C1300 1.428 . S
H1295 C1291 0.930 . S
H1296 C1293 0.929 . S
S1297 N1298 1.613 . S
S1297 N1299 1.610 . S
N1298 S1297 1.613 . S
N1298 C1301 1.350 . S
N1299 S1297 1.610 . S
N1299 C1300 1.351 . S
C1300 C1294 1.428 . S
C1300 N1299 1.351 . S
C1300 C1301 1.434 . S
C1301 C1292 1.429 . S
C1301 N1298 1.350 . S
C1301 C1300 1.434 . S
C1302 C1303 1.369 . S
C1302 C1304 1.419 . S
C1302 H1306 0.930 . S
C1303 C1302 1.369 . S
C1303 C1312 1.429 . S
C1304 C1302 1.419 . S
C1304 C1305 1.363 . S
C1304 H1307 0.929 . S
C1305 C1304 1.363 . S
C1305 C1311 1.428 . S
H1306 C1302 0.930 . S
H1307 C1304 0.929 . S
S1308 N1309 1.613 . S
S1308 N1310 1.610 . S
N1309 S1308 1.613 . S
N1309 C1312 1.350 . S
N1310 S1308 1.610 . S
N1310 C1311 1.351 . S
C1311 C1305 1.428 . S
C1311 N1310 1.351 . S
C1311 C1312 1.434 . S
C1312 C1303 1.429 . S
C1312 N1309 1.350 . S
C1312 C1311 1.434 . S
C1313 C1314 1.369 . S
C1313 C1315 1.419 . S
C1313 H1317 0.930 . S
C1314 C1313 1.369 . S
C1314 C1323 1.429 . S
C1315 C1313 1.419 . S
C1315 C1316 1.363 . S
C1315 H1318 0.929 . S
C1316 C1315 1.363 . S
C1316 C1322 1.428 . S
H1317 C1313 0.930 . S
H1318 C1315 0.929 . S
S1319 N1320 1.613 . S
S1319 N1321 1.610 . S
N1320 S1319 1.613 . S
N1320 C1323 1.350 . S
N1321 S1319 1.610 . S
N1321 C1322 1.351 . S
C1322 C1316 1.428 . S
C1322 N1321 1.351 . S
C1322 C1323 1.434 . S
C1323 C1314 1.429 . S
C1323 N1320 1.350 . S
C1323 C1322 1.434 . S
C1324 C1325 1.369 . S
C1324 C1326 1.419 . S
C1324 H1328 0.930 . S
C1325 C1324 1.369 . S
C1325 C1334 1.429 . S
C1326 C1324 1.419 . S
C1326 C1327 1.363 . S
C1326 H1329 0.929 . S
C1327 C1326 1.363 . S
C1327 C1333 1.428 . S
H1328 C1324 0.930 . S
H1329 C1326 0.929 . S
S1330 N1331 1.613 . S
S1330 N1332 1.610 . S
N1331 S1330 1.613 . S
N1331 C1334 1.350 . S
N1332 S1330 1.610 . S
N1332 C1333 1.351 . S
C1333 C1327 1.428 . S
C1333 N1332 1.351 . S
C1333 C1334 1.434 . S
C1334 C1325 1.429 . S
C1334 N1331 1.350 . S
C1334 C1333 1.434 . S
C1335 C1336 1.369 . S
C1335 C1337 1.419 . S
C1335 H1339 0.930 . S
C1336 C1335 1.369 . S
C1336 C1345 1.429 . S
C1337 C1335 1.419 . S
C1337 C1338 1.363 . S
C1337 H1340 0.929 . S
C1338 C1337 1.363 . S
C1338 C1344 1.428 . S
H1339 C1335 0.930 . S
H1340 C1337 0.929 . S
S1341 N1342 1.613 . S
S1341 N1343 1.610 . S
N1342 S1341 1.613 . S
N1342 C1345 1.350 . S
N1343 S1341 1.610 . S
N1343 C1344 1.351 . S
C1344 C1338 1.428 . S
C1344 N1343 1.351 . S
C1344 C1345 1.434 . S
C1345 C1336 1.429 . S
C1345 N1342 1.350 . S
C1345 C1344 1.434 . S
C1346 C1347 1.369 . S
C1346 C1348 1.419 . S
C1346 H1350 0.930 . S
C1347 C1346 1.369 . S
C1347 C1356 1.429 . S
C1348 C1346 1.419 . S
C1348 C1349 1.363 . S
C1348 H1351 0.929 . S
C1349 C1348 1.363 . S
C1349 C1355 1.428 . S
H1350 C1346 0.930 . S
H1351 C1348 0.929 . S
S1352 N1353 1.613 . S
S1352 N1354 1.610 . S
N1353 S1352 1.613 . S
N1353 C1356 1.350 . S
N1354 S1352 1.610 . S
N1354 C1355 1.351 . S
C1355 C1349 1.428 . S
C1355 N1354 1.351 . S
C1355 C1356 1.434 . S
C1356 C1347 1.429 . S
C1356 N1353 1.350 . S
C1356 C1355 1.434 . S
C1357 C1358 1.369 . S
C1357 C1359 1.419 . S
C1357 H1361 0.930 . S
C1358 C1357 1.369 . S
C1358 C1367 1.429 . S
C1359 C1357 1.419 . S
C1359 C1360 1.363 . S
C1359 H1362 0.929 . S
C1360 C1359 1.363 . S
C1360 C1366 1.428 . S
H1361 C1357 0.930 . S
H1362 C1359 0.929 . S
S1363 N1364 1.613 . S
S1363 N1365 1.610 . S
N1364 S1363 1.613 . S
N1364 C1367 1.350 . S
N1365 S1363 1.610 . S
N1365 C1366 1.351 . S
C1366 C1360 1.428 . S
C1366 N1365 1.351 . S
C1366 C1367 1.434 . S
C1367 C1358 1.429 . S
C1367 N1364 1.350 . S
C1367 C1366 1.434 . S
C1368 C1369 1.369 . S
C1368 C1370 1.419 . S
C1368 H1372 0.930 . S
C1369 C1368 1.369 . S
C1369 C1378 1.429 . S
C1370 C1368 1.419 . S
C1370 C1371 1.363 . S
C1370 H1373 0.929 . S
C1371 C1370 1.363 . S
C1371 C1377 1.428 . S
H1372 C1368 0.930 . S
H1373 C1370 0.929 . S
S1374 N1375 1.613 . S
S1374 N1376 1.610 . S
N1375 S1374 1.613 . S
N1375 C1378 1.350 . S
N1376 S1374 1.610 . S
N1376 C1377 1.351 . S
C1377 C1371 1.428 . S
C1377 N1376 1.351 . S
C1377 C1378 1.434 . S
C1378 C1369 1.429 . S
C1378 N1375 1.350 . S
C1378 C1377 1.434 . S
C1379 C1380 1.369 . S
C1379 C1381 1.419 . S
C1379 H1383 0.930 . S
C1380 C1379 1.369 . S
C1380 C1389 1.429 . S
C1381 C1379 1.419 . S
C1381 C1382 1.363 . S
C1381 H1384 0.929 . S
C1382 C1381 1.363 . S
C1382 C1388 1.428 . S
H1383 C1379 0.930 . S
H1384 C1381 0.929 . S
S1385 N1386 1.613 . S
S1385 N1387 1.610 . S
N1386 S1385 1.613 . S
N1386 C1389 1.350 . S
N1387 S1385 1.610 . S
N1387 C1388 1.351 . S
C1388 C1382 1.428 . S
C1388 N1387 1.351 . S
C1388 C1389 1.434 . S
C1389 C1380 1.429 . S
C1389 N1386 1.350 . S
C1389 C1388 1.434 . S
C1390 C1391 1.369 . S
C1390 C1392 1.419 . S
C1390 H1394 0.930 . S
C1391 C1390 1.369 . S
C1391 C1400 1.429 . S
C1392 C1390 1.419 . S
C1392 C1393 1.363 . S
C1392 H1395 0.929 . S
C1393 C1392 1.363 . S
C1393 C1399 1.428 . S
H1394 C1390 0.930 . S
H1395 C1392 0.929 . S
S1396 N1397 1.613 . S
S1396 N1398 1.610 . S
N1397 S1396 1.613 . S
N1397 C1400 1.350 . S
N1398 S1396 1.610 . S
N1398 C1399 1.351 . S
C1399 C1393 1.428 . S
C1399 N1398 1.351 . S
C1399 C1400 1.434 . S
C1400 C1391 1.429 . S
C1400 N1397 1.350 . S
C1400 C1399 1.434 . S
C1401 C1402 1.369 . S
C1401 C1403 1.419 . S
C1401 H1405 0.930 . S
C1402 C1401 1.369 . S
C1402 C1411 1.429 . S
C1403 C1401 1.419 . S
C1403 C1404 1.363 . S
C1403 H1406 0.929 . S
C1404 C1403 1.363 . S
C1404 C1410 1.428 . S
H1405 C1401 0.930 . S
H1406 C1403 0.929 . S
S1407 N1408 1.613 1_455 S
S1407 N1409 1.610 . S
N1408 S1407 1.613 1_655 S
N1408 C1411 1.350 . S
N1409 S1407 1.610 . S
N1409 C1410 1.351 1_455 S
C1410 C1404 1.428 . S
C1410 N1409 1.351 1_655 S
C1410 C1411 1.434 . S
C1411 C1402 1.429 . S
C1411 N1408 1.350 . S
C1411 C1410 1.434 . S
C1412 C1413 1.369 . S
C1412 C1414 1.419 . S
C1412 H1416 0.930 . S
C1413 C1412 1.369 . S
C1413 C1422 1.429 . S
C1414 C1412 1.419 . S
C1414 C1415 1.363 . S
C1414 H1417 0.929 . S
C1415 C1414 1.363 . S
C1415 C1421 1.428 . S
H1416 C1412 0.930 . S
H1417 C1414 0.929 . S
S1418 N1419 1.613 . S
S1418 N1420 1.610 . S
N1419 S1418 1.613 . S
N1419 C1422 1.350 . S
N1420 S1418 1.610 . S
N1420 C1421 1.351 . S
C1421 C1415 1.428 . S
C1421 N1420 1.351 . S
C1421 C1422 1.434 . S
C1422 C1413 1.429 . S
C1422 N1419 1.350 . S
C1422 C1421 1.434 . S
C1423 C1424 1.369 . S
C1423 C1425 1.419 . S
C1423 H1427 0.930 . S
C1424 C1423 1.369 . S
C1424 C1433 1.429 . S
C1425 C1423 1.419 . S
C1425 C1426 1.363 . S
C1425 H1428 0.929 . S
C1426 C1425 1.363 . S
C1426 C1432 1.428 . S
H1427 C1423 0.930 . S
H1428 C1425 0.929 . S
S1429 N1430 1.613 . S
S1429 N1431 1.610 . S
N1430 S1429 1.613 . S
N1430 C1433 1.350 . S
N1431 S1429 1.610 . S
N1431 C1432 1.351 . S
C1432 C1426 1.428 . S
C1432 N1431 1.351 . S
C1432 C1433 1.434 . S
C1433 C1424 1.429 . S
C1433 N1430 1.350 . S
C1433 C1432 1.434 . S
C1434 C1435 1.369 . S
C1434 C1436 1.419 . S
C1434 H1438 0.930 . S
C1435 C1434 1.369 . S
C1435 C1444 1.429 . S
C1436 C1434 1.419 . S
C1436 C1437 1.363 . S
C1436 H1439 0.929 . S
C1437 C1436 1.363 . S
C1437 C1443 1.428 . S
H1438 C1434 0.930 . S
H1439 C1436 0.929 . S
S1440 N1441 1.613 . S
S1440 N1442 1.610 . S
N1441 S1440 1.613 . S
N1441 C1444 1.350 . S
N1442 S1440 1.610 . S
N1442 C1443 1.351 . S
C1443 C1437 1.428 . S
C1443 N1442 1.351 . S
C1443 C1444 1.434 . S
C1444 C1435 1.429 . S
C1444 N1441 1.350 . S
C1444 C1443 1.434 . S
C1445 C1446 1.369 . S
C1445 C1447 1.419 . S
C1445 H1449 0.930 . S
C1446 C1445 1.369 . S
C1446 C1455 1.429 . S
C1447 C1445 1.419 . S
C1447 C1448 1.363 . S
C1447 H1450 0.929 . S
C1448 C1447 1.363 . S
C1448 C1454 1.428 . S
H1449 C1445 0.930 . S
H1450 C1447 0.929 . S
S1451 N1452 1.613 . S
S1451 N1453 1.610 . S
N1452 S1451 1.613 . S
N1452 C1455 1.350 . S
N1453 S1451 1.610 . S
N1453 C1454 1.351 . S
C1454 C1448 1.428 . S
C1454 N1453 1.351 . S
C1454 C1455 1.434 . S
C1455 C1446 1.429 . S
C1455 N1452 1.350 . S
C1455 C1454 1.434 . S
C1456 C1457 1.369 . S
C1456 C1458 1.419 . S
C1456 H1460 0.930 . S
C1457 C1456 1.369 . S
C1457 C1466 1.429 . S
C1458 C1456 1.419 . S
C1458 C1459 1.363 . S
C1458 H1461 0.929 . S
C1459 C1458 1.363 . S
C1459 C1465 1.428 . S
H1460 C1456 0.930 . S
H1461 C1458 0.929 . S
S1462 N1463 1.613 . S
S1462 N1464 1.610 . S
N1463 S1462 1.613 . S
N1463 C1466 1.350 . S
N1464 S1462 1.610 . S
N1464 C1465 1.351 . S
C1465 C1459 1.428 . S
C1465 N1464 1.351 . S
C1465 C1466 1.434 . S
C1466 C1457 1.429 . S
C1466 N1463 1.350 . S
C1466 C1465 1.434 . S
C1467 C1468 1.369 . S
C1467 C1469 1.419 . S
C1467 H1471 0.930 . S
C1468 C1467 1.369 . S
C1468 C1477 1.429 . S
C1469 C1467 1.419 . S
C1469 C1470 1.363 . S
C1469 H1472 0.929 . S
C1470 C1469 1.363 . S
C1470 C1476 1.428 . S
H1471 C1467 0.930 . S
H1472 C1469 0.929 . S
S1473 N1474 1.613 . S
S1473 N1475 1.610 . S
N1474 S1473 1.613 . S
N1474 C1477 1.350 . S
N1475 S1473 1.610 . S
N1475 C1476 1.351 . S
C1476 C1470 1.428 . S
C1476 N1475 1.351 . S
C1476 C1477 1.434 . S
C1477 C1468 1.429 . S
C1477 N1474 1.350 . S
C1477 C1476 1.434 . S
C1478 C1479 1.369 . S
C1478 C1480 1.419 . S
C1478 H1482 0.930 . S
C1479 C1478 1.369 . S
C1479 C1488 1.429 . S
C1480 C1478 1.419 . S
C1480 C1481 1.363 . S
C1480 H1483 0.929 . S
C1481 C1480 1.363 . S
C1481 C1487 1.428 . S
H1482 C1478 0.930 . S
H1483 C1480 0.929 . S
S1484 N1485 1.613 . S
S1484 N1486 1.610 . S
N1485 S1484 1.613 . S
N1485 C1488 1.350 . S
N1486 S1484 1.610 . S
N1486 C1487 1.351 . S
C1487 C1481 1.428 . S
C1487 N1486 1.351 . S
C1487 C1488 1.434 . S
C1488 C1479 1.429 . S
C1488 N1485 1.350 . S
C1488 C1487 1.434 . S
C1489 C1490 1.369 . S
C1489 C1491 1.419 . S
C1489 H1493 0.930 . S
C1490 C1489 1.369 . S
C1490 C1499 1.429 . S
C1491 C1489 1.419 . S
C1491 C1492 1.363 . S
C1491 H1494 0.929 . S
C1492 C1491 1.363 . S
C1492 C1498 1.428 . S
H1493 C1489 0.930 . S
H1494 C1491 0.929 . S
S1495 N1496 1.613 . S
S1495 N1497 1.610 . S
N1496 S1495 1.613 . S
N1496 C1499 1.350 . S
N1497 S1495 1.610 . S
N1497 C1498 1.351 . S
C1498 C1492 1.428 . S
C1498 N1497 1.351 . S
C1498 C1499 1.434 . S
C1499 C1490 1.429 . S
C1499 N1496 1.350 . S
C1499 C1498 1.434 . S
C1500 C1501 1.369 . S
C1500 C1502 1.419 . S
C1500 H1504 0.930 . S
C1501 C1500 1.369 . S
C1501 C1510 1.429 . S
C1502 C1500 1.419 . S
C1502 C1503 1.363 . S
C1502 H1505 0.929 . S
C1503 C1502 1.363 . S
C1503 C1509 1.428 . S
H1504 C1500 0.930 . S
H1505 C1502 0.929 . S
S1506 N1507 1.613 . S
S1506 N1508 1.610 . S
N1507 S1506 1.613 . S
N1507 C1510 1.350 . S
N1508 S1506 1.610 . S
N1508 C1509 1.351 . S
C1509 C1503 1.428 . S
C1509 N1508 1.351 . S
C1509 C1510 1.434 . S
C1510 C1501 1.429 . S
C1510 N1507 1.350 . S
C1510 C1509 1.434 . S
C1511 C1512 1.369 . S
C1511 C1513 1.419 . S
C1511 H1515 0.930 . S
C1512 C1511 1.369 . S
C1512 C1521 1.429 . S
C1513 C1511 1.419 . S
C1513 C1514 1.363 . S
C1513 H1516 0.929 . S
C1514 C1513 1.363 . S
C1514 C1520 1.428 . S
H1515 C1511 0.930 . S
H1516 C1513 0.929 . S
S1517 N1518 1.613 . S
S1517 N1519 1.610 . S
N1518 S1517 1.613 . S
N1518 C1521 1.350 . S
N1519 S1517 1.610 . S
N1519 C1520 1.351 . S
C1520 C1514 1.428 . S
C1520 N1519 1.351 . S
C1520 C1521 1.434 . S
C1521 C1512 1.429 . S
C1521 N1518 1.350 . S
C1521 C1520 1.434 . S
C1522 C1523 1.369 . S
C1522 C1524 1.419 . S
C1522 H1526 0.930 . S
C1523 C1522 1.369 . S
C1523 C1532 1.429 . S
C1524 C1522 1.419 . S
C1524 C1525 1.363 . S
C1524 H1527 0.929 . S
C1525 C1524 1.363 . S
C1525 C1531 1.428 . S
H1526 C1522 0.930 . S
H1527 C1524 0.929 . S
S1528 N1529 1.613 . S
S1528 N1530 1.610 . S
N1529 S1528 1.613 . S
N1529 C1532 1.350 . S
N1530 S1528 1.610 . S
N1530 C1531 1.351 . S
C1531 C1525 1.428 . S
C1531 N1530 1.351 . S
C1531 C1532 1.434 . S
C1532 C1523 1.429 . S
C1532 N1529 1.350 . S
C1532 C1531 1.434 . S
C1533 C1534 1.369 . S
C1533 C1535 1.419 . S
C1533 H1537 0.930 . S
C1534 C1533 1.369 . S
C1534 C1543 1.429 . S
C1535 C1533 1.419 . S
C1535 C1536 1.363 . S
C1535 H1538 0.929 . S
C1536 C1535 1.363 . S
C1536 C1542 1.428 . S
H1537 C1533 0.930 . S
H1538 C1535 0.929 . S
S1539 N1540 1.613 . S
S1539 N1541 1.610 . S
N1540 S1539 1.613 . S
N1540 C1543 1.350 . S
N1541 S1539 1.610 . S
N1541 C1542 1.351 . S
C1542 C1536 1.428 . S
C1542 N1541 1.351 . S
C1542 C1543 1.434 . S
C1543 C1534 1.429 . S
C1543 N1540 1.350 . S
C1543 C1542 1.434 . S
C1544 C1545 1.369 . S
C1544 C1546 1.419 . S
C1544 H1548 0.930 . S
C1545 C1544 1.369 . S
C1545 C1554 1.429 . S
C1546 C1544 1.419 . S
C1546 C1547 1.363 . S
C1546 H1549 0.929 . S
C1547 C1546 1.363 . S
C1547 C1553 1.428 . S
H1548 C1544 0.930 . S
H1549 C1546 0.929 . S
S1550 N1551 1.613 . S
S1550 N1552 1.610 . S
N1551 S1550 1.613 . S
N1551 C1554 1.350 . S
N1552 S1550 1.610 . S
N1552 C1553 1.351 . S
C1553 C1547 1.428 . S
C1553 N1552 1.351 . S
C1553 C1554 1.434 . S
C1554 C1545 1.429 . S
C1554 N1551 1.350 . S
C1554 C1553 1.434 . S
C1555 C1556 1.369 . S
C1555 C1557 1.419 . S
C1555 H1559 0.930 . S
C1556 C1555 1.369 . S
C1556 C1565 1.429 . S
C1557 C1555 1.419 . S
C1557 C1558 1.363 . S
C1557 H1560 0.929 . S
C1558 C1557 1.363 . S
C1558 C1564 1.428 . S
H1559 C1555 0.930 . S
H1560 C1557 0.929 . S
S1561 N1562 1.613 . S
S1561 N1563 1.610 . S
N1562 S1561 1.613 . S
N1562 C1565 1.350 . S
N1563 S1561 1.610 . S
N1563 C1564 1.351 . S
C1564 C1558 1.428 . S
C1564 N1563 1.351 . S
C1564 C1565 1.434 . S
C1565 C1556 1.429 . S
C1565 N1562 1.350 . S
C1565 C1564 1.434 . S
C973 C162 1.472 . S
C975 C283 1.416 . S
C984 C174 1.500 . S
C986 C367 1.450 . S
C995 C150 1.468 . S
C997 C447 1.468 . S
C1006 C138 1.458 . S
C1008 C363 1.463 . S
C1019 C451 1.413 . S
C1017 C114 1.465 . S
C1028 C126 1.438 . S
C1030 C279 1.435 . S
C1041 C272 1.466 . S
C1039 C136 1.509 . S
C1052 C356 1.485 . S
C1050 C112 1.530 . S
C1061 C124 1.517 . S
C1063 C458 1.485 . S
C1072 C160 1.502 . S
C1074 C374 1.459 . S
C1083 C172 1.490 . S
C1085 C440 1.438 . S
C1096 C290 1.444 . S
C1094 C148 1.478 . S
C1107 C535 1.423 . S
C1105 C18 1.475 . S
C1116 C30 1.496 . S
C1118 C619 1.446 . S
C1127 C6 1.470 . S
C1129 C699 1.471 . S
C1138 C210 1.457 . S
C1140 C615 1.461 . S
C1149 C186 1.463 . S
C1151 C703 1.405 . S
C1160 C198 1.436 . S
C1162 C531 1.435 . S
C1171 C208 1.506 . S
C1173 C524 1.464 . S
C1182 C184 1.531 . S
C1184 C608 1.486 . S
C1195 C710 1.484 . S
C1193 C196 1.524 . S
C1204 C16 1.498 1_565 S
C1206 C626 1.465 . S
C1217 C692 1.438 . S
C1215 C28 1.486 1_455 S
C1226 C4 1.485 . S
C1228 C542 1.440 . S
C1239 C787 1.420 . S
C1237 C90 1.475 . S
C1248 C102 1.499 . S
C1250 C871 1.453 . S
C1261 C951 1.470 . S
C1259 C78 1.471 . S
C1272 C867 1.461 . S
C1270 C66 1.459 . S
C1283 C955 1.407 . S
C1281 C42 1.465 . S
C1292 C54 1.438 . S
C1294 C783 1.437 . S
C1303 C64 1.511 1_655 S
C1305 C776 1.465 . S
C1314 C40 1.531 . S
C1316 C860 1.488 . S
C1327 C962 1.483 . S
C1325 C52 1.518 1_545 S
C1336 C88 1.496 . S
C1338 C878 1.461 . S
C1347 C100 1.485 . S
C1349 C944 1.434 . S
C1358 C76 1.485 . S
C1360 C794 1.440 . S
C1369 C189 1.585 . S
C1371 C286 1.479 . S
C1382 C370 1.495 . S
C1380 C201 1.627 . S
C1391 C213 1.582 . S
C1393 C442 1.389 . S
C1402 C81 1.590 . S
C1404 C358 1.381 . S
C1413 C93 1.593 . S
C1415 C454 1.469 . S
C1426 C274 1.375 . S
C1424 C105 1.547 . S
C1435 C45 1.580 . S
C1437 C538 1.476 . S
C1446 C57 1.624 . S
C1448 C622 1.484 . S
C1457 C69 1.582 . S
C1459 C694 1.389 . S
C1468 C153 1.593 . S
C1470 C610 1.385 . S
C1481 C706 1.461 . S
C1479 C165 1.591 . S
C1490 C177 1.547 . S
C1492 C526 1.375 . S
C1501 C117 1.585 . S
C1503 C790 1.480 . S
C1512 C129 1.623 . S
C1514 C874 1.486 . S
C1525 C946 1.389 . S
C1523 C141 1.582 . S
C1534 C9 1.591 . S
C1536 C862 1.379 . S
C1545 C21 1.588 . S
C1547 C958 1.463 . S
C1556 C33 1.548 . S
C1558 C778 1.386 . S
