# Generated by pormake.
# Topology ctn, (3,4)-cn, num edge types: 1
# Building blocks:
#     Node 0, Type 0, BuildingBlock: BELTOD_clean_linker_0, # of connection points: 3
#     Node 1, Type 0, BuildingBlock: BELTOD_clean_linker_0, # of connection points: 3
#     Node 2, Type 0, BuildingBlock: BELTOD_clean_linker_0, # of connection points: 3
#     Node 3, Type 0, BuildingBlock: BELTOD_clean_linker_0, # of connection points: 3
#     Node 4, Type 0, BuildingBlock: BELTOD_clean_linker_0, # of connection points: 3
#     Node 5, Type 0, BuildingBlock: BELTOD_clean_linker_0, # of connection points: 3
#     Node 6, Type 0, BuildingBlock: BELTOD_clean_linker_0, # of connection points: 3
#     Node 7, Type 0, BuildingBlock: BELTOD_clean_linker_0, # of connection points: 3
#     Node 8, Type 0, BuildingBlock: BELTOD_clean_linker_0, # of connection points: 3
#     Node 9, Type 0, BuildingBlock: BELTOD_clean_linker_0, # of connection points: 3
#     Node 10, Type 0, BuildingBlock: BELTOD_clean_linker_0, # of connection points: 3
#     Node 11, Type 0, BuildingBlock: BELTOD_clean_linker_0, # of connection points: 3
#     Node 12, Type 0, BuildingBlock: BELTOD_clean_linker_0, # of connection points: 3
#     Node 13, Type 0, BuildingBlock: BELTOD_clean_linker_0, # of connection points: 3
#     Node 14, Type 0, BuildingBlock: BELTOD_clean_linker_0, # of connection points: 3
#     Node 15, Type 0, BuildingBlock: BELTOD_clean_linker_0, # of connection points: 3
#     Node 16, Type 1, BuildingBlock: NAHDIM_clean_sbu_0, # of connection points: 4
#     Node 17, Type 1, BuildingBlock: NAHDIM_clean_sbu_0, # of connection points: 4
#     Node 18, Type 1, BuildingBlock: NAHDIM_clean_sbu_0, # of connection points: 4
#     Node 19, Type 1, BuildingBlock: NAHDIM_clean_sbu_0, # of connection points: 4
#     Node 20, Type 1, BuildingBlock: NAHDIM_clean_sbu_0, # of connection points: 4
#     Node 21, Type 1, BuildingBlock: NAHDIM_clean_sbu_0, # of connection points: 4
#     Node 22, Type 1, BuildingBlock: NAHDIM_clean_sbu_0, # of connection points: 4
#     Node 23, Type 1, BuildingBlock: NAHDIM_clean_sbu_0, # of connection points: 4
#     Node 24, Type 1, BuildingBlock: NAHDIM_clean_sbu_0, # of connection points: 4
#     Node 25, Type 1, BuildingBlock: NAHDIM_clean_sbu_0, # of connection points: 4
#     Node 26, Type 1, BuildingBlock: NAHDIM_clean_sbu_0, # of connection points: 4
#     Node 27, Type 1, BuildingBlock: NAHDIM_clean_sbu_0, # of connection points: 4
#     Edge 28, Type (0, 1), BuildingBlock: KIFKEQ_clean_linker_1, # of connection points: 2
#     Edge 29, Type (0, 1), BuildingBlock: KIFKEQ_clean_linker_1, # of connection points: 2
#     Edge 30, Type (0, 1), BuildingBlock: KIFKEQ_clean_linker_1, # of connection points: 2
#     Edge 31, Type (0, 1), BuildingBlock: KIFKEQ_clean_linker_1, # of connection points: 2
#     Edge 32, Type (0, 1), BuildingBlock: KIFKEQ_clean_linker_1, # of connection points: 2
#     Edge 33, Type (0, 1), BuildingBlock: KIFKEQ_clean_linker_1, # of connection points: 2
#     Edge 34, Type (0, 1), BuildingBlock: KIFKEQ_clean_linker_1, # of connection points: 2
#     Edge 35, Type (0, 1), BuildingBlock: KIFKEQ_clean_linker_1, # of connection points: 2
#     Edge 36, Type (0, 1), BuildingBlock: KIFKEQ_clean_linker_1, # of connection points: 2
#     Edge 37, Type (0, 1), BuildingBlock: KIFKEQ_clean_linker_1, # of connection points: 2
#     Edge 38, Type (0, 1), BuildingBlock: KIFKEQ_clean_linker_1, # of connection points: 2
#     Edge 39, Type (0, 1), BuildingBlock: KIFKEQ_clean_linker_1, # of connection points: 2
#     Edge 40, Type (0, 1), BuildingBlock: KIFKEQ_clean_linker_1, # of connection points: 2
#     Edge 41, Type (0, 1), BuildingBlock: KIFKEQ_clean_linker_1, # of connection points: 2
#     Edge 42, Type (0, 1), BuildingBlock: KIFKEQ_clean_linker_1, # of connection points: 2
#     Edge 43, Type (0, 1), BuildingBlock: KIFKEQ_clean_linker_1, # of connection points: 2
#     Edge 44, Type (0, 1), BuildingBlock: KIFKEQ_clean_linker_1, # of connection points: 2
#     Edge 45, Type (0, 1), BuildingBlock: KIFKEQ_clean_linker_1, # of connection points: 2
#     Edge 46, Type (0, 1), BuildingBlock: KIFKEQ_clean_linker_1, # of connection points: 2
#     Edge 47, Type (0, 1), BuildingBlock: KIFKEQ_clean_linker_1, # of connection points: 2
#     Edge 48, Type (0, 1), BuildingBlock: KIFKEQ_clean_linker_1, # of connection points: 2
#     Edge 49, Type (0, 1), BuildingBlock: KIFKEQ_clean_linker_1, # of connection points: 2
#     Edge 50, Type (0, 1), BuildingBlock: KIFKEQ_clean_linker_1, # of connection points: 2
#     Edge 51, Type (0, 1), BuildingBlock: KIFKEQ_clean_linker_1, # of connection points: 2
#     Edge 52, Type (0, 1), BuildingBlock: KIFKEQ_clean_linker_1, # of connection points: 2
#     Edge 53, Type (0, 1), BuildingBlock: KIFKEQ_clean_linker_1, # of connection points: 2
#     Edge 54, Type (0, 1), BuildingBlock: KIFKEQ_clean_linker_1, # of connection points: 2
#     Edge 55, Type (0, 1), BuildingBlock: KIFKEQ_clean_linker_1, # of connection points: 2
#     Edge 56, Type (0, 1), BuildingBlock: KIFKEQ_clean_linker_1, # of connection points: 2
#     Edge 57, Type (0, 1), BuildingBlock: KIFKEQ_clean_linker_1, # of connection points: 2
#     Edge 58, Type (0, 1), BuildingBlock: KIFKEQ_clean_linker_1, # of connection points: 2
#     Edge 59, Type (0, 1), BuildingBlock: KIFKEQ_clean_linker_1, # of connection points: 2
#     Edge 60, Type (0, 1), BuildingBlock: KIFKEQ_clean_linker_1, # of connection points: 2
#     Edge 61, Type (0, 1), BuildingBlock: KIFKEQ_clean_linker_1, # of connection points: 2
#     Edge 62, Type (0, 1), BuildingBlock: KIFKEQ_clean_linker_1, # of connection points: 2
#     Edge 63, Type (0, 1), BuildingBlock: KIFKEQ_clean_linker_1, # of connection points: 2
#     Edge 64, Type (0, 1), BuildingBlock: KIFKEQ_clean_linker_1, # of connection points: 2
#     Edge 65, Type (0, 1), BuildingBlock: KIFKEQ_clean_linker_1, # of connection points: 2
#     Edge 66, Type (0, 1), BuildingBlock: KIFKEQ_clean_linker_1, # of connection points: 2
#     Edge 67, Type (0, 1), BuildingBlock: KIFKEQ_clean_linker_1, # of connection points: 2
#     Edge 68, Type (0, 1), BuildingBlock: KIFKEQ_clean_linker_1, # of connection points: 2
#     Edge 69, Type (0, 1), BuildingBlock: KIFKEQ_clean_linker_1, # of connection points: 2
#     Edge 70, Type (0, 1), BuildingBlock: KIFKEQ_clean_linker_1, # of connection points: 2
#     Edge 71, Type (0, 1), BuildingBlock: KIFKEQ_clean_linker_1, # of connection points: 2
#     Edge 72, Type (0, 1), BuildingBlock: KIFKEQ_clean_linker_1, # of connection points: 2
#     Edge 73, Type (0, 1), BuildingBlock: KIFKEQ_clean_linker_1, # of connection points: 2
#     Edge 74, Type (0, 1), BuildingBlock: KIFKEQ_clean_linker_1, # of connection points: 2
#     Edge 75, Type (0, 1), BuildingBlock: KIFKEQ_clean_linker_1, # of connection points: 2
# Relax obj value: 0.002
# Max RMSD: 0.035
# Mean RMSD: 0.021
data_MOF--net-ctn--node1-NAHDIM_clean_sbu_0--node2-BELTOD_clean_linker_0--edge1-KIFKEQ_clean_linker_1
_symmetry_space_group_name_H-M    P1
_symmetry_Int_Tables_number       1
_symmetry_cell_setting            triclinic
loop_
_symmetry_equiv_pos_as_xyz
'x, y, z'
_cell_length_a     63.079294
_cell_length_b     63.853099
_cell_length_c     62.666302
_cell_angle_alpha  90.46768
_cell_angle_beta   90.110107
_cell_angle_gamma 92.922878
loop_
_atom_site_label
_atom_site_type_symbol
_atom_site_fract_x
_atom_site_fract_y
_atom_site_fract_z
_atom_type_partial_charge
P0 P 0.06836 0.0761 0.07812 0.0
H1 H 0.0684 0.07401 0.1246 0.0
H2 H 0.04067 0.06514 0.15065 0.0
H3 H 0.99614 0.05144 0.09933 0.0
H4 H 0.02408 0.06036 0.07327 0.0
H5 H 0.11015 0.07323 0.05942 0.0
H6 H 0.1301 0.04384 0.04676 0.0
H7 H 0.07667 0.00126 0.06122 0.0
H8 H 0.05697 0.03079 0.07427 0.0
H9 H 0.04872 0.11608 0.07805 0.0
H10 H 0.06227 0.06815 0.0319 0.0
O11 O 0.08605 0.09231 0.09052 0.0
H12 H 0.03433 0.13737 0.0498 0.0
H13 H 0.0476 0.08921 0.00353 0.0
C14 C 0.04816 0.0682 0.09706 0.0
C15 C 0.05268 0.0691 0.11894 0.0
C16 C 0.0368 0.06409 0.13381 0.0
C17 C 0.01617 0.05783 0.12703 0.0
C18 C 0.01189 0.05618 0.10502 0.0
C19 C 0.02779 0.06137 0.09014 0.0
C20 C 0.08227 0.05414 0.06815 0.0
C21 C 0.10275 0.05755 0.05989 0.0
C22 C 0.11407 0.04073 0.05248 0.0
C23 C 0.10502 0.02015 0.05303 0.0
C24 C 0.08423 0.01686 0.06089 0.0
C25 C 0.07291 0.03375 0.0683 0.0
C26 C 0.05676 0.0907 0.05704 0.0
C27 C 0.04845 0.1101 0.06182 0.0
C28 C 0.0401 0.12217 0.04567 0.0
C29 C 0.03985 0.11502 0.02437 0.0
C30 C 0.04783 0.0953 0.01972 0.0
C31 C 0.05616 0.0832 0.03595 0.0
P32 P 0.31013 0.68713 0.19585 0.0
H33 H 0.33434 0.71078 0.16413 0.0
H34 H 0.32606 0.73972 0.14088 0.0
H35 H 0.26337 0.7406 0.16859 0.0
H36 H 0.2722 0.7122 0.19245 0.0
H37 H 0.35358 0.67797 0.20753 0.0
H38 H 0.37704 0.69042 0.23641 0.0
H39 H 0.32824 0.72959 0.26004 0.0
H40 H 0.30467 0.71696 0.23089 0.0
H41 H 0.27208 0.67008 0.17443 0.0
H42 H 0.2974 0.67166 0.23844 0.0
O43 O 0.32306 0.67053 0.18054 0.0
H44 H 0.24188 0.64772 0.18633 0.0
H45 H 0.26702 0.64984 0.25057 0.0
C46 C 0.3037 0.70899 0.17956 0.0
C47 C 0.31882 0.71723 0.16519 0.0
C48 C 0.314 0.73371 0.15182 0.0
C49 C 0.29389 0.74228 0.15255 0.0
C50 C 0.27901 0.73443 0.16759 0.0
C51 C 0.28395 0.71801 0.18111 0.0
C52 C 0.32738 0.69654 0.21712 0.0
C53 C 0.34789 0.68927 0.21885 0.0
C54 C 0.36135 0.69648 0.23533 0.0
C55 C 0.35451 0.71103 0.25045 0.0
C56 C 0.33388 0.71826 0.2487 0.0
C57 C 0.32047 0.71115 0.23205 0.0
C58 C 0.28679 0.67287 0.20558 0.0
C59 C 0.2709 0.66598 0.19114 0.0
C60 C 0.2536 0.65326 0.198 0.0
C61 C 0.25198 0.64702 0.21944 0.0
C62 C 0.26786 0.65421 0.23392 0.0
C63 C 0.28517 0.6669 0.22702 0.0
P64 P 0.99172 0.49673 0.01411 0.0
H65 H 0.97032 0.47775 0.97684 0.0
H66 H 0.97098 0.44285 0.96057 0.0
H67 H 0.00882 0.42243 0.01336 0.0
H68 H 0.00893 0.45745 0.02885 0.0
H69 H 0.98294 0.54027 0.00676 0.0
H70 H 0.95033 0.55917 0.00638 0.0
H71 H 0.914 0.50133 0.01884 0.0
H72 H 0.94697 0.48258 0.01964 0.0
H73 H 0.02725 0.51983 0.03518 0.0
H74 H 0.97575 0.47653 0.05302 0.0
O75 O 0.00962 0.50942 0.99873 0.0
H76 H 0.04019 0.52065 0.07193 0.0
H77 H 0.98864 0.4773 0.09001 0.0
C78 C 0.98915 0.47012 0.00429 0.0
C79 C 0.97842 0.46562 0.98507 0.0
C80 C 0.97877 0.44561 0.97582 0.0
C81 C 0.98999 0.42977 0.98561 0.0
C82 C 1.00026 0.43428 0.0052 0.0
C83 C 1.00006 0.45431 0.01428 0.0
C84 C 0.96728 0.50997 0.01267 0.0
C85 C 0.96794 0.53161 0.00916 0.0
C86 C 0.94925 0.54239 0.0089 0.0
C87 C 0.92949 0.53174 0.01233 0.0
C88 C 0.92894 0.51002 0.0162 0.0
C89 C 0.94773 0.49924 0.01647 0.0
C90 C 0.00073 0.49788 0.04137 0.0
C91 C 0.01869 0.51052 0.04702 0.0
C92 C 0.026 0.51108 0.06808 0.0
C93 C 0.01547 0.49898 0.08383 0.0
C94 C 0.99722 0.48659 0.07815 0.0
C95 C 0.9898 0.4862 0.05709 0.0
P96 P 0.67763 0.82051 0.18129 0.0
H97 H 0.71592 0.836 0.15944 0.0
H98 H 0.74492 0.86087 0.16983 0.0
H99 H 0.71801 0.86537 0.23298 0.0
H100 H 0.68888 0.84091 0.22233 0.0
H101 H 0.65667 0.79802 0.14602 0.0
H102 H 0.66619 0.76822 0.12409 0.0
H103 H 0.72375 0.76345 0.16091 0.0
H104 H 0.71421 0.79369 0.18259 0.0
H105 H 0.63642 0.83243 0.19731 0.0
H106 H 0.68376 0.78904 0.21416 0.0
O107 O 0.66333 0.83567 0.16587 0.0
H108 H 0.61455 0.82038 0.22723 0.0
H109 H 0.6621 0.77712 0.24458 0.0
C110 C 0.70044 0.83632 0.19018 0.0
C111 C 0.71649 0.84207 0.17563 0.0
C112 C 0.73309 0.85626 0.18162 0.0
C113 C 0.73379 0.86513 0.20226 0.0
C114 C 0.71783 0.85901 0.21691 0.0
C115 C 0.70124 0.84482 0.21088 0.0
C116 C 0.68497 0.79833 0.16557 0.0
C117 C 0.67139 0.79062 0.14931 0.0
C118 C 0.67677 0.77343 0.13692 0.0
C119 C 0.69577 0.76344 0.14071 0.0
C120 C 0.70916 0.77098 0.15737 0.0
C121 C 0.70373 0.78822 0.16979 0.0
C122 C 0.66157 0.81141 0.20337 0.0
C123 C 0.64212 0.82029 0.20747 0.0
C124 C 0.6297 0.8135 0.22474 0.0
C125 C 0.63657 0.79779 0.23836 0.0
C126 C 0.65621 0.78904 0.23425 0.0
C127 C 0.66863 0.79586 0.21692 0.0
P128 P 0.05698 0.94004 0.43569 0.0
H129 H 0.10281 0.9426 0.44176 0.0
H130 H 0.12756 0.97012 0.45536 0.0
H131 H 0.075 0.00912 0.46862 0.0
H132 H 0.05036 0.98157 0.45435 0.0
H133 H 0.04716 0.89502 0.43542 0.0
H134 H 0.03497 0.87042 0.46291 0.0
H135 H 0.03379 0.92143 0.50859 0.0
H136 H 0.04564 0.94606 0.48077 0.0
H137 H 0.05595 0.97262 0.40373 0.0
H138 H 0.01059 0.93122 0.43602 0.0
O139 O 0.07041 0.92653 0.41777 0.0
H140 H 0.02763 0.98494 0.38107 0.0
H141 H 0.98228 0.94323 0.41323 0.0
C142 C 0.07483 0.96024 0.44666 0.0
C143 C 0.09662 0.9571 0.44754 0.0
C144 C 0.11075 0.97281 0.45552 0.0
C145 C 0.10331 0.99192 0.46303 0.0
C146 C 0.08132 0.99477 0.46261 0.0
C147 C 0.0672 0.97902 0.45454 0.0
C148 C 0.0478 0.92226 0.45621 0.0
C149 C 0.04439 0.9009 0.45138 0.0
C150 C 0.03746 0.88684 0.46713 0.0
C151 C 0.03367 0.89391 0.48803 0.0
C152 C 0.03651 0.91549 0.49265 0.0
C153 C 0.04346 0.92956 0.47682 0.0
C154 C 0.03538 0.95114 0.42165 0.0
C155 C 0.03984 0.96643 0.40616 0.0
C156 C 0.02367 0.97333 0.39313 0.0
C157 C 0.00272 0.96496 0.39526 0.0
C158 C 0.99819 0.95015 0.41133 0.0
C159 C 0.01442 0.94321 0.42434 0.0
P160 P 0.23008 0.74225 0.77607 0.0
H161 H 0.25322 0.73534 0.81583 0.0
H162 H 0.25175 0.75143 0.85119 0.0
H163 H 0.20057 0.78882 0.83011 0.0
H164 H 0.20256 0.77303 0.79458 0.0
H165 H 0.26881 0.72755 0.75659 0.0
H166 H 0.2856 0.694 0.75731 0.0
H167 H 0.23479 0.66842 0.79697 0.0
H168 H 0.21787 0.70211 0.79589 0.0
H169 H 0.21666 0.7493 0.73225 0.0
H170 H 0.18766 0.7284 0.79112 0.0
O171 O 0.24548 0.75949 0.76252 0.0
H172 H 0.18198 0.7473 0.71476 0.0
H173 H 0.15284 0.72612 0.77364 0.0
C174 C 0.22759 0.75255 0.80273 0.0
C175 C 0.24144 0.74673 0.81889 0.0
C176 C 0.24055 0.75594 0.83916 0.0
C177 C 0.22593 0.77133 0.84357 0.0
C178 C 0.2121 0.77712 0.82725 0.0
C179 C 0.21306 0.76794 0.80698 0.0
C180 C 0.2421 0.71729 0.7762 0.0
C181 C 0.26123 0.71474 0.76541 0.0
C182 C 0.27091 0.69556 0.76595 0.0
C183 C 0.26161 0.67854 0.7773 0.0
C184 C 0.24227 0.68113 0.78793 0.0
C185 C 0.23261 0.70038 0.78738 0.0
C186 C 0.20462 0.73945 0.76308 0.0
C187 C 0.20281 0.74421 0.7414 0.0
C188 C 0.18299 0.7429 0.73137 0.0
C189 C 0.16462 0.73669 0.74286 0.0
C190 C 0.16663 0.73129 0.76446 0.0
C191 C 0.18652 0.73251 0.77444 0.0
P192 P 0.98944 0.5098 0.50038 0.0
H193 H 0.0259 0.53392 0.48377 0.0
H194 H 0.0424 0.5358 0.44861 0.0
H195 H 0.99177 0.49469 0.42315 0.0
H196 H 0.97565 0.49251 0.45856 0.0
H197 H 0.99666 0.52103 0.545 0.0
H198 H 0.99649 0.55423 0.56459 0.0
H199 H 0.98073 0.58597 0.50646 0.0
H200 H 0.9807 0.55252 0.48698 0.0
H201 H 0.97383 0.4674 0.51139 0.0
H202 H 0.9474 0.52464 0.49023 0.0
O203 O 0.00612 0.49462 0.513 0.0
H204 H 0.93824 0.45083 0.51404 0.0
H205 H 0.91156 0.50826 0.49322 0.0
C206 C 0.99941 0.51335 0.47371 0.0
C207 C 0.01816 0.52561 0.47052 0.0
C208 C 0.02754 0.52672 0.45037 0.0
C209 C 0.0184 0.51542 0.433 0.0
C210 C 0.99933 0.50343 0.43621 0.0
C211 C 0.98998 0.50232 0.45643 0.0
C212 C 0.98918 0.53443 0.51448 0.0
C213 C 0.99329 0.53515 0.53645 0.0
C214 C 0.99323 0.55415 0.54761 0.0
C215 C 0.98883 0.57279 0.53703 0.0
C216 C 0.98412 0.57189 0.51507 0.0
C217 C 0.98426 0.55283 0.5039 0.0
C218 C 0.96321 0.49735 0.50096 0.0
C219 C 0.96036 0.47643 0.50735 0.0
C220 C 0.93997 0.467 0.50895 0.0
C221 C 0.92204 0.47831 0.5041 0.0
C222 C 0.92503 0.4991 0.497 0.0
C223 C 0.94549 0.50853 0.49542 0.0
P224 P 0.81427 0.81994 0.82007 0.0
H225 H 0.85898 0.81145 0.81767 0.0
H226 H 0.88111 0.79775 0.78936 0.0
H227 H 0.8265 0.79209 0.74761 0.0
H228 H 0.80436 0.80573 0.77618 0.0
H229 H 0.77056 0.82374 0.83525 0.0
H230 H 0.74262 0.84678 0.825 0.0
H231 H 0.7825 0.87227 0.77457 0.0
H232 H 0.81048 0.84928 0.78503 0.0
H233 H 0.82919 0.80511 0.86108 0.0
H234 H 0.78166 0.78597 0.81436 0.0
O235 O 0.82946 0.83671 0.83474 0.0
H236 H 0.81858 0.77505 0.88307 0.0
H237 H 0.77093 0.75559 0.83635 0.0
C238 C 0.8302 0.81016 0.79879 0.0
C239 C 0.85179 0.80739 0.80238 0.0
C240 C 0.86438 0.7994 0.78625 0.0
C241 C 0.85555 0.79396 0.76623 0.0
C242 C 0.83379 0.79645 0.76278 0.0
C243 C 0.82114 0.80426 0.77905 0.0
C244 C 0.79239 0.83432 0.81048 0.0
C245 C 0.7731 0.83384 0.82161 0.0
C246 C 0.75711 0.84707 0.81575 0.0
C247 C 0.76031 0.86131 0.79892 0.0
C248 C 0.77958 0.86154 0.78765 0.0
C249 C 0.79551 0.84826 0.79348 0.0
C250 C 0.80588 0.79799 0.83634 0.0
C251 C 0.81636 0.79449 0.8556 0.0
C252 C 0.81041 0.77717 0.86808 0.0
C253 C 0.79389 0.76296 0.86146 0.0
C254 C 0.78353 0.76642 0.84199 0.0
C255 C 0.78963 0.78371 0.82943 0.0
P256 P 0.30907 0.31868 0.32375 0.0
H257 H 0.35141 0.33465 0.31101 0.0
H258 H 0.37601 0.32368 0.28362 0.0
H259 H 0.32965 0.27593 0.26208 0.0
H260 H 0.30489 0.28729 0.28945 0.0
H261 H 0.2697 0.32803 0.34486 0.0
H262 H 0.23944 0.34791 0.33422 0.0
H263 H 0.26731 0.3572 0.27183 0.0
H264 H 0.29775 0.33759 0.28278 0.0
H265 H 0.32945 0.29898 0.35956 0.0
H266 H 0.27381 0.28691 0.32043 0.0
O267 O 0.32204 0.33583 0.33994 0.0
H268 H 0.32002 0.26792 0.38069 0.0
H269 H 0.26433 0.25559 0.34137 0.0
C270 C 0.32642 0.31162 0.30239 0.0
C271 C 0.34646 0.3219 0.30035 0.0
C272 C 0.36057 0.31553 0.28473 0.0
C273 C 0.35489 0.29877 0.27082 0.0
C274 C 0.33448 0.28895 0.27248 0.0
C275 C 0.32036 0.29534 0.28817 0.0
C276 C 0.28577 0.331 0.3145 0.0
C277 C 0.2691 0.33403 0.32876 0.0
C278 C 0.25178 0.34536 0.32262 0.0
C279 C 0.25089 0.3541 0.30213 0.0
C280 C 0.26756 0.35081 0.28777 0.0
C281 C 0.28491 0.33943 0.29395 0.0
C282 C 0.30204 0.2955 0.33882 0.0
C283 C 0.31517 0.28963 0.35554 0.0
C284 C 0.30986 0.27176 0.36748 0.0
C285 C 0.29135 0.25933 0.36278 0.0
C286 C 0.27849 0.26502 0.34561 0.0
C287 C 0.2839 0.28289 0.33362 0.0
P288 P 0.49113 0.99449 0.51743 0.0
H289 H 0.46788 0.98162 0.47898 0.0
H290 H 0.46408 0.94832 0.45936 0.0
H291 H 0.50089 0.91886 0.50781 0.0
H292 H 0.50468 0.95213 0.52727 0.0
H293 H 0.48463 0.03918 0.51487 0.0
H294 H 0.45299 0.0596 0.51646 0.0
H295 H 0.4141 0.00249 0.52451 0.0
H296 H 0.44602 0.98221 0.52338 0.0
H297 H 0.52962 0.01218 0.53816 0.0
H298 H 0.47492 0.97275 0.5555 0.0
O299 O 0.50908 0.00762 0.50245 0.0
H300 H 0.54349 0.00989 0.57435 0.0
H301 H 0.4887 0.9705 0.59204 0.0
C302 C 0.48612 0.96926 0.50483 0.0
C303 C 0.47479 0.96789 0.48557 0.0
C304 C 0.47278 0.94891 0.47429 0.0
C305 C 0.48215 0.93096 0.48208 0.0
C306 C 0.49321 0.93233 0.50158 0.0
C307 C 0.49536 0.95137 0.51275 0.0
C308 C 0.46757 0.00917 0.51846 0.0
C309 C 0.46927 0.03105 0.51685 0.0
C310 C 0.45115 0.0427 0.5177 0.0
C311 C 0.43095 0.03268 0.52035 0.0
C312 C 0.4294 0.01072 0.52253 0.0
C313 C 0.4476 0.99908 0.5217 0.0
C314 C 0.50133 0.99248 0.54413 0.0
C315 C 0.52058 0.003 0.54977 0.0
C316 C 0.52843 0.0018 0.57053 0.0
C317 C 0.51717 0.99006 0.58608 0.0
C318 C 0.49783 0.97951 0.58036 0.0
C319 C 0.48991 0.98084 0.55955 0.0
P320 P 0.17332 0.3219 0.6796 0.0
H321 H 0.19415 0.35816 0.65928 0.0
H322 H 0.22345 0.38245 0.67005 0.0
H323 H 0.23109 0.34737 0.72798 0.0
H324 H 0.20173 0.32298 0.717 0.0
H325 H 0.15498 0.3002 0.64242 0.0
H326 H 0.16622 0.27122 0.6205 0.0
H327 H 0.22111 0.26567 0.66115 0.0
H328 H 0.2101 0.29547 0.68253 0.0
H329 H 0.13718 0.33851 0.70165 0.0
H330 H 0.17658 0.28568 0.70803 0.0
O331 O 0.15743 0.33571 0.6644 0.0
H332 H 0.11544 0.32591 0.73145 0.0
H333 H 0.15529 0.27324 0.73838 0.0
C334 C 0.19549 0.33906 0.68756 0.0
C335 C 0.20208 0.35572 0.67433 0.0
C336 C 0.21879 0.36963 0.68053 0.0
C337 C 0.22941 0.36698 0.69999 0.0
C338 C 0.22322 0.34981 0.7129 0.0
C339 C 0.20637 0.33594 0.70671 0.0
C340 C 0.18189 0.30021 0.66387 0.0
C341 C 0.16951 0.29285 0.64655 0.0
C342 C 0.17586 0.27605 0.63415 0.0
C343 C 0.19458 0.26597 0.63904 0.0
C344 C 0.20679 0.27322 0.6567 0.0
C345 C 0.20048 0.29022 0.669 0.0
C346 C 0.1582 0.3128 0.70234 0.0
C347 C 0.1412 0.32421 0.70954 0.0
C348 C 0.12889 0.31707 0.72675 0.0
C349 C 0.13353 0.29848 0.73732 0.0
C350 C 0.15102 0.28739 0.73038 0.0
C351 C 0.16327 0.29453 0.71306 0.0
P352 P 0.81372 0.18679 0.69002 0.0
H353 H 0.82999 0.22991 0.68255 0.0
H354 H 0.81764 0.25774 0.65979 0.0
H355 H 0.76216 0.21857 0.64294 0.0
H356 H 0.7747 0.19076 0.66552 0.0
H357 H 0.85506 0.17401 0.70448 0.0
H358 H 0.87833 0.18567 0.73377 0.0
H359 H 0.83204 0.22931 0.7541 0.0
H360 H 0.8091 0.21795 0.72417 0.0
H361 H 0.80379 0.14195 0.68347 0.0
H362 H 0.77745 0.19319 0.71795 0.0
O363 O 0.82819 0.17402 0.67238 0.0
H364 H 0.77473 0.11842 0.69555 0.0
H365 H 0.74854 0.16954 0.73075 0.0
C366 C 0.80301 0.20846 0.67616 0.0
C367 C 0.81491 0.22751 0.67438 0.0
C368 C 0.80783 0.24342 0.66135 0.0
C369 C 0.7889 0.24037 0.64958 0.0
C370 C 0.77687 0.22135 0.6517 0.0
C371 C 0.78393 0.20551 0.66478 0.0
C372 C 0.83052 0.19535 0.71198 0.0
C373 C 0.84994 0.18615 0.71517 0.0
C374 C 0.86315 0.1927 0.7321 0.0
C375 C 0.85708 0.20845 0.74634 0.0
C376 C 0.83735 0.21737 0.74328 0.0
C377 C 0.82416 0.21082 0.72625 0.0
C378 C 0.79274 0.16932 0.6998 0.0
C379 C 0.79184 0.14811 0.69381 0.0
C380 C 0.77525 0.13461 0.70088 0.0
C381 C 0.75929 0.14206 0.71418 0.0
C382 C 0.76042 0.16334 0.72033 0.0
C383 C 0.77702 0.17685 0.71318 0.0
P384 P 0.56841 0.5769 0.57794 0.0
H385 H 0.56801 0.57621 0.62451 0.0
H386 H 0.54055 0.56624 0.65046 0.0
H387 H 0.49777 0.54752 0.59905 0.0
H388 H 0.52548 0.55751 0.57307 0.0
H389 H 0.60909 0.57675 0.55652 0.0
H390 H 0.63109 0.54875 0.54402 0.0
H391 H 0.58358 0.50255 0.56543 0.0
H392 H 0.56156 0.53069 0.57784 0.0
H393 H 0.53737 0.60892 0.57844 0.0
H394 H 0.57283 0.57629 0.53092 0.0
O395 O 0.58513 0.59411 0.59029 0.0
H396 H 0.52328 0.63107 0.55072 0.0
H397 H 0.55884 0.5984 0.50316 0.0
C398 C 0.54861 0.56794 0.5969 0.0
C399 C 0.55275 0.56994 0.6188 0.0
C400 C 0.53702 0.5643 0.63362 0.0
C401 C 0.51692 0.55634 0.62678 0.0
C402 C 0.51311 0.55357 0.60479 0.0
C403 C 0.52886 0.55936 0.58995 0.0
C404 C 0.58378 0.55582 0.56822 0.0
C405 C 0.60337 0.56059 0.55845 0.0
C406 C 0.61586 0.54458 0.55119 0.0
C407 C 0.60905 0.52345 0.55374 0.0
C408 C 0.5893 0.51869 0.56341 0.0
C409 C 0.57668 0.53478 0.57047 0.0
C410 C 0.55605 0.59086 0.55679 0.0
C411 C 0.54183 0.60627 0.56199 0.0
C412 C 0.53376 0.6189 0.54612 0.0
C413 C 0.53998 0.61651 0.52475 0.0
C414 C 0.55391 0.60075 0.51952 0.0
C415 C 0.56187 0.58802 0.53541 0.0
P416 P 0.55393 0.44089 0.94276 0.0
H417 H 0.58833 0.46445 0.92136 0.0
H418 H 0.61322 0.49285 0.93301 0.0
H419 H 0.58208 0.49421 0.99432 0.0
H420 H 0.55726 0.46574 0.98258 0.0
H421 H 0.57201 0.40377 0.96075 0.0
H422 H 0.5616 0.38101 0.9904 0.0
H423 H 0.5097 0.42048 0.00476 0.0
H424 H 0.52002 0.44295 0.97465 0.0
H425 H 0.54522 0.47912 0.91913 0.0
H426 H 0.51244 0.42022 0.93431 0.0
O427 O 0.56726 0.42638 0.92562 0.0
H428 H 0.51587 0.48795 0.89604 0.0
H429 H 0.48264 0.42929 0.91197 0.0
C430 C 0.57123 0.4627 0.95124 0.0
C431 C 0.58683 0.47089 0.9373 0.0
C432 C 0.60096 0.48723 0.94393 0.0
C433 C 0.59971 0.49568 0.96465 0.0
C434 C 0.58364 0.4878 0.97838 0.0
C435 C 0.56941 0.47154 0.97166 0.0
C436 C 0.5465 0.42475 0.96524 0.0
C437 C 0.55836 0.40749 0.97024 0.0
C438 C 0.55249 0.39459 0.98735 0.0
C439 C 0.53474 0.39885 0.99993 0.0
C440 C 0.52322 0.41654 0.99518 0.0
C441 C 0.52912 0.42943 0.97802 0.0
C442 C 0.53086 0.44919 0.92882 0.0
C443 C 0.53147 0.46832 0.91798 0.0
C444 C 0.51459 0.4734 0.9048 0.0
C445 C 0.49685 0.45933 0.9021 0.0
C446 C 0.49613 0.44039 0.91346 0.0
C447 C 0.51307 0.43529 0.92648 0.0
P448 P 0.72853 0.24523 0.27374 0.0
H449 H 0.76052 0.26834 0.29942 0.0
H450 H 0.75911 0.28631 0.33396 0.0
H451 H 0.6934 0.26484 0.3407 0.0
H452 H 0.69493 0.24696 0.30608 0.0
H453 H 0.75461 0.22254 0.24411 0.0
H454 H 0.77005 0.18834 0.24542 0.0
H455 H 0.7402 0.17673 0.30653 0.0
H456 H 0.72512 0.21132 0.30524 0.0
H457 H 0.69936 0.27807 0.26672 0.0
H458 H 0.70087 0.21172 0.2538 0.0
O459 O 0.74464 0.26056 0.2588 0.0
H460 H 0.66467 0.27875 0.24944 0.0
H461 H 0.66602 0.21222 0.23663 0.0
C462 C 0.72771 0.25678 0.3 0.0
C463 C 0.74584 0.26744 0.30839 0.0
C464 C 0.74504 0.27759 0.32818 0.0
C465 C 0.72607 0.27716 0.33997 0.0
C466 C 0.70813 0.26577 0.33182 0.0
C467 C 0.709 0.25552 0.31206 0.0
C468 C 0.73912 0.21962 0.27477 0.0
C469 C 0.75144 0.21267 0.25782 0.0
C470 C 0.7601 0.193 0.25852 0.0
C471 C 0.75644 0.17978 0.27613 0.0
C472 C 0.74362 0.18665 0.2929 0.0
C473 C 0.73494 0.20638 0.29217 0.0
C474 C 0.70261 0.24486 0.26166 0.0
C475 C 0.69212 0.26361 0.2603 0.0
C476 C 0.67224 0.26395 0.25052 0.0
C477 C 0.66254 0.24551 0.24174 0.0
C478 C 0.67315 0.2267 0.24311 0.0
C479 C 0.69304 0.22638 0.25302 0.0
P480 P 0.48348 0.00956 0.9977 0.0
H481 H 0.5267 0.0081 0.98205 0.0
H482 H 0.54224 0.01035 0.94656 0.0
H483 H 0.48034 0.02024 0.9198 0.0
H484 H 0.4648 0.01727 0.95547 0.0
H485 H 0.48266 0.02053 0.04263 0.0
H486 H 0.48086 0.05377 0.06184 0.0
H487 H 0.4795 0.08652 0.00178 0.0
H488 H 0.48177 0.05311 0.98267 0.0
H489 H 0.46747 0.96637 0.0041 0.0
H490 H 0.44154 0.02596 0.99015 0.0
O491 O 0.499 0.99444 0.01187 0.0
H492 H 0.43159 0.95022 0.00658 0.0
H493 H 0.40553 0.00987 0.99262 0.0
C494 C 0.49455 0.01208 0.97134 0.0
C495 C 0.51644 0.01067 0.96854 0.0
C496 C 0.52535 0.01219 0.94821 0.0
C497 C 0.51256 0.01546 0.93024 0.0
C498 C 0.49061 0.01737 0.93321 0.0
C499 C 0.4817 0.01574 0.95361 0.0
C500 C 0.48282 0.03443 0.01128 0.0
C501 C 0.48217 0.0349 0.03361 0.0
C502 C 0.4809 0.05391 0.04456 0.0
C503 C 0.48002 0.07284 0.03335 0.0
C504 C 0.48046 0.07227 0.01089 0.0
C505 C 0.48174 0.05318 0.99994 0.0
C506 C 0.45712 0.99742 0.99729 0.0
C507 C 0.45405 0.97596 0.00148 0.0
C508 C 0.43355 0.96677 0.00297 0.0
C509 C 0.41576 0.97884 1.00004 0.0
C510 C 0.41893 1.00017 0.9949 0.0
C511 C 0.43948 0.00939 0.99358 0.0
C512 C 0.20324 0.90687 0.01102 0.0
O513 O 0.20846 0.90412 0.99094 0.0
O514 O 0.22888 0.86151 0.99088 0.0
Zn515 Zn 0.23665 0.87857 0.01734 0.0
O516 O 0.26276 0.89691 0.0108 0.0
C517 C 0.26171 0.85423 0.0459 0.0
O518 O 0.27738 0.86245 0.03442 0.0
O519 O 0.21297 0.89717 0.02538 0.0
C520 C 0.27081 0.90939 0.02485 0.0
O521 O 0.26166 0.91047 0.04362 0.0
C522 C 0.24109 0.84736 0.98488 0.0
O523 O 0.25807 0.84408 0.99627 0.0
O524 O 0.2428 0.85899 0.04173 0.0
C525 C 0.13739 0.45704 0.27789 0.0
O526 O 0.12484 0.46148 0.29383 0.0
O527 O 0.10109 0.49784 0.28328 0.0
Zn528 Zn 0.12003 0.49379 0.25773 0.0
O529 O 0.14086 0.51852 0.25401 0.0
C530 C 0.08605 0.50131 0.22836 0.0
O531 O 0.08069 0.51438 0.24348 0.0
O532 O 0.1374 0.46826 0.26122 0.0
C533 C 0.13621 0.53766 0.25435 0.0
O534 O 0.11647 0.5424 0.25771 0.0
C535 C 0.10755 0.50787 0.29986 0.0
O536 O 0.12717 0.51583 0.30051 0.0
O537 O 0.1022 0.49049 0.23105 0.0
C538 C 0.79922 0.61763 0.01064 0.0
O539 O 0.80154 0.63787 0.00709 0.0
O540 O 0.76246 0.64651 0.98207 0.0
Zn541 Zn 0.75528 0.62644 0.00604 0.0
O542 O 0.73015 0.60714 0.99786 0.0
C543 C 0.73228 0.65484 0.03087 0.0
O544 O 0.72066 0.65384 0.01342 0.0
O545 O 0.78058 0.6091 0.01147 0.0
C546 C 0.71713 0.59957 0.01157 0.0
O547 O 0.72001 0.60438 0.03183 0.0
C548 C 0.75131 0.64832 0.96533 0.0
O549 O 0.73392 0.63633 0.9628 0.0
O550 O 0.74848 0.64384 0.03195 0.0
C551 C 0.83536 0.04593 0.27719 0.0
O552 O 0.83246 0.03163 0.292 0.0
O553 O 0.88052 0.01015 0.28551 0.0
Zn554 Zn 0.86424 0.01642 0.25874 0.0
O555 O 0.8436 0.99196 0.25205 0.0
C556 C 0.90315 0.03066 0.23906 0.0
O557 O 0.90678 0.03765 0.25857 0.0
O558 O 0.84819 0.04275 0.26202 0.0
C559 C 0.84362 0.98205 0.23436 0.0
O560 O 0.85748 0.98785 0.21966 0.0
C561 C 0.89204 0.99441 0.2844 0.0
O562 O 0.89175 0.98318 0.26673 0.0
O563 O 0.88552 0.02093 0.23489 0.0
C564 C 0.30024 0.1178 0.51604 0.0
O565 O 0.30214 0.138 0.51216 0.0
O566 O 0.26316 0.14302 0.48373 0.0
Zn567 Zn 0.25598 0.12474 0.50916 0.0
O568 O 0.23186 0.10353 0.50218 0.0
C569 C 0.23763 0.15938 0.53011 0.0
O570 O 0.2314 0.16264 0.51046 0.0
O571 O 0.28183 0.10874 0.51618 0.0
C572 C 0.2124 0.10586 0.5064 0.0
O573 O 0.20687 0.12313 0.51591 0.0
C574 C 0.25134 0.14484 0.46745 0.0
O575 O 0.23314 0.13394 0.46633 0.0
O576 O 0.24857 0.14363 0.53392 0.0
C577 C 0.33428 0.54102 0.77319 0.0
O578 O 0.32562 0.52399 0.78186 0.0
O579 O 0.38129 0.50471 0.78493 0.0
Zn580 Zn 0.36546 0.51246 0.75824 0.0
O581 O 0.34304 0.4898 0.7509 0.0
C582 C 0.40371 0.52703 0.73815 0.0
O583 O 0.40673 0.53495 0.7574 0.0
O584 O 0.35141 0.53982 0.7627 0.0
C585 C 0.3469 0.47367 0.73982 0.0
O586 O 0.36621 0.4715 0.7326 0.0
C587 C 0.39526 0.49111 0.78334 0.0
O588 O 0.39839 0.48231 0.76467 0.0
O589 O 0.38655 0.51639 0.73417 0.0
C590 C 0.71731 0.41862 0.51449 0.0
O591 O 0.73405 0.42524 0.50355 0.0
O592 O 0.73379 0.36222 0.48957 0.0
Zn593 Zn 0.74008 0.38057 0.51535 0.0
O594 O 0.76754 0.39732 0.51023 0.0
C595 C 0.75712 0.34707 0.53752 0.0
O596 O 0.76655 0.34555 0.51893 0.0
O597 O 0.71617 0.39983 0.52115 0.0
C598 C 0.77698 0.40706 0.52557 0.0
O599 O 0.76841 0.40628 0.54466 0.0
C600 C 0.72759 0.36903 0.47175 0.0
O601 O 0.72431 0.38908 0.4698 0.0
O602 O 0.74433 0.36159 0.54038 0.0
C603 C 0.65381 0.97222 0.77809 0.0
O604 O 0.65618 0.9895 0.78957 0.0
O605 O 0.60372 0.99943 0.78706 0.0
Zn606 Zn 0.62178 0.99628 0.76081 0.0
O607 O 0.64242 0.02136 0.75863 0.0
C608 C 0.58791 0.98241 0.73044 0.0
O609 O 0.58073 0.96999 0.7457 0.0
O610 O 0.63917 0.97083 0.7641 0.0
C611 C 0.63908 0.03703 0.74693 0.0
O612 O 0.62118 0.03741 0.73622 0.0
C613 C 0.58574 0.00755 0.78748 0.0
O614 O 0.57758 0.01438 0.7697 0.0
O615 O 0.60447 0.99419 0.7337 0.0
C616 C 0.99408 0.2189 0.91492 0.0
O617 O 0.97394 0.2219 0.91127 0.0
O618 O 0.97432 0.24518 0.86883 0.0
Zn619 Zn 0.00049 0.25376 0.88595 0.0
O620 O 0.99518 0.27997 0.90305 0.0
C621 C 0.02708 0.24918 0.84858 0.0
O622 O 0.01355 0.23338 0.84429 0.0
O623 O 0.00816 0.2306 0.90578 0.0
C624 C 0.01023 0.29369 0.90609 0.0
O625 O 0.02908 0.29037 0.89826 0.0
C626 C 0.96881 0.25701 0.85379 0.0
O627 O 0.98006 0.27453 0.85031 0.0
O628 O 0.02475 0.25986 0.86555 0.0
C629 C 0.49822 0.72852 0.42222 0.0
O630 O 0.48409 0.74187 0.428 0.0
O631 O 0.47736 0.74757 0.36598 0.0
Zn632 Zn 0.50188 0.75557 0.38562 0.0
O633 O 0.49611 0.78109 0.40351 0.0
C634 C 0.53115 0.75075 0.35123 0.0
O635 O 0.51863 0.73402 0.34758 0.0
O636 O 0.50787 0.73119 0.40458 0.0
C637 C 0.4898 0.79769 0.39501 0.0
O638 O 0.48657 0.79796 0.37429 0.0
C639 C 0.45803 0.75162 0.36876 0.0
O640 O 0.45253 0.76171 0.38608 0.0
O641 O 0.52739 0.76244 0.36716 0.0
C642 C 0.98976 0.78679 0.59958 0.0
O643 O 0.9697 0.78291 0.60441 0.0
O644 O 0.97242 0.76055 0.6479 0.0
Zn645 Zn 0.99739 0.75314 0.62953 0.0
O646 O 0.99159 0.72582 0.61338 0.0
C647 C 0.02382 0.74665 0.6674 0.0
O648 O 0.00568 0.74356 0.67742 0.0
O649 O 0.00382 0.77611 0.60829 0.0
C650 C 0.99637 0.70847 0.62149 0.0
O651 O 0.00445 0.70841 0.64082 0.0
C652 C 0.95998 0.74678 0.65649 0.0
O653 O 0.9631 0.72684 0.65321 0.0
O654 O 0.02377 0.75088 0.6476 0.0
C655 C 0.48969 0.29098 0.11002 0.0
O656 O 0.4737 0.29353 0.12303 0.0
O657 O 0.46727 0.25689 0.14945 0.0
Zn658 Zn 0.49207 0.25014 0.13061 0.0
O659 O 0.48539 0.22403 0.11304 0.0
C660 C 0.52632 0.26066 0.15962 0.0
O661 O 0.51795 0.27908 0.15896 0.0
O662 O 0.4994 0.27402 0.1106 0.0
C663 C 0.48567 0.206 0.12144 0.0
O664 O 0.48967 0.2046 0.14194 0.0
C665 C 0.4656 0.24949 0.16818 0.0
O666 O 0.47997 0.23695 0.17503 0.0
O667 O 0.51782 0.24558 0.14875 0.0
H668 H 0.23017 0.75355 0.88291 0.0
H669 H 0.22138 0.81294 0.85239 0.0
H670 H 0.23203 0.7712 0.91759 0.0
H671 H 0.22305 0.8305 0.88707 0.0
H672 H 0.20995 0.85273 0.95509 0.0
H673 H 0.20428 0.83359 0.92145 0.0
H674 H 0.2573 0.79583 0.93585 0.0
H675 H 0.26282 0.81469 0.96945 0.0
C676 C 0.22865 0.77036 0.88358 0.0
C677 C 0.22573 0.78183 0.86484 0.0
C678 C 0.22968 0.78046 0.90346 0.0
C679 C 0.22776 0.80225 0.90506 0.0
C680 C 0.2243 0.81365 0.8864 0.0
C681 C 0.22333 0.80357 0.86651 0.0
C682 C 0.22029 0.84024 0.95113 0.0
C683 C 0.23687 0.83527 0.96493 0.0
C684 C 0.21711 0.82936 0.93182 0.0
C685 C 0.23035 0.81321 0.92598 0.0
C686 C 0.24665 0.80801 0.93999 0.0
C687 C 0.2499 0.81893 0.9592 0.0
H688 H 0.02293 0.48205 0.40597 0.0
H689 H 0.03909 0.54836 0.41263 0.0
H690 H 0.04323 0.48114 0.37299 0.0
H691 H 0.0596 0.54737 0.37969 0.0
H692 H 0.11574 0.52976 0.33688 0.0
H693 H 0.09284 0.53235 0.36797 0.0
H694 H 0.04417 0.49371 0.33598 0.0
H695 H 0.06717 0.49088 0.30492 0.0
C696 C 0.0305 0.49652 0.40022 0.0
C697 C 0.02942 0.51527 0.41202 0.0
C698 C 0.04219 0.49598 0.38132 0.0
C699 C 0.05313 0.51416 0.37378 0.0
C700 C 0.05163 0.53302 0.38527 0.0
C701 C 0.03988 0.53358 0.40414 0.0
C702 C 0.10014 0.52187 0.33643 0.0
C703 C 0.09333 0.51004 0.31844 0.0
C704 C 0.08695 0.52347 0.3542 0.0
C705 C 0.06669 0.51323 0.35445 0.0
C706 C 0.05978 0.5016 0.33637 0.0
C707 C 0.07293 0.50006 0.31854 0.0
H708 H 0.7537 0.74829 0.87171 0.0
H709 H 0.81975 0.73649 0.88182 0.0
H710 H 0.74342 0.71981 0.89594 0.0
H711 H 0.80954 0.70788 0.90579 0.0
H712 H 0.78495 0.67696 0.96696 0.0
H713 H 0.79496 0.7037 0.94095 0.0
H714 H 0.74242 0.68219 0.90071 0.0
H715 H 0.73204 0.65569 0.92708 0.0
C716 C 0.766 0.7394 0.87887 0.0
C717 C 0.78753 0.74473 0.875 0.0
C718 C 0.76012 0.72306 0.89274 0.0
C719 C 0.77566 0.71164 0.90296 0.0
C720 C 0.79717 0.71662 0.89856 0.0
C721 C 0.80303 0.73299 0.8848 0.0
C722 C 0.77554 0.67787 0.95255 0.0
C723 C 0.75767 0.66418 0.94912 0.0
C724 C 0.78137 0.69314 0.93755 0.0
C725 C 0.76954 0.69507 0.91868 0.0
C726 C 0.75174 0.68129 0.91518 0.0
C727 C 0.74586 0.66602 0.93024 0.0
H728 H 0.96126 0.97359 0.40336 0.0
H729 H 0.00647 0.96847 0.35212 0.0
H730 H 0.93355 0.98062 0.3773 0.0
H731 H 0.97905 0.97592 0.3263 0.0
H732 H 0.92051 0.96375 0.28512 0.0
H733 H 0.94656 0.95715 0.31259 0.0
H734 H 0.92365 0.00787 0.3507 0.0
H735 H 0.8973 0.01447 0.32314 0.0
C736 C 0.96529 0.97406 0.38657 0.0
C737 C 0.98606 0.97049 0.3798 0.0
C738 C 0.94948 0.97824 0.37169 0.0
C739 C 0.9541 0.97869 0.34975 0.0
C740 C 0.97493 0.97541 0.34307 0.0
C741 C 0.99071 0.9714 0.3579 0.0
C742 C 0.92089 0.97346 0.29938 0.0
C743 C 0.90688 0.98972 0.30187 0.0
C744 C 0.93593 0.96974 0.31508 0.0
C745 C 0.9373 0.98213 0.33371 0.0
C746 C 0.92291 0.99802 0.33654 0.0
C747 C 0.90788 0.00183 0.32073 0.0
H748 H 0.23507 0.257 0.62701 0.0
H749 H 0.1695 0.23472 0.62014 0.0
H750 H 0.24567 0.22961 0.60236 0.0
H751 H 0.18014 0.20796 0.59497 0.0
H752 H 0.20622 0.18696 0.52924 0.0
H753 H 0.19612 0.21111 0.55731 0.0
H754 H 0.24508 0.18872 0.59822 0.0
H755 H 0.25513 0.1642 0.57009 0.0
C756 C 0.22294 0.24613 0.62053 0.0
C757 C 0.20137 0.24828 0.62542 0.0
C758 C 0.22904 0.23049 0.60637 0.0
C759 C 0.21369 0.21684 0.59663 0.0
C760 C 0.19225 0.21851 0.60202 0.0
C761 C 0.18618 0.23393 0.61635 0.0
C762 C 0.21482 0.18711 0.54423 0.0
C763 C 0.23147 0.17368 0.54746 0.0
C764 C 0.20894 0.20085 0.56033 0.0
C765 C 0.21978 0.20171 0.57994 0.0
C766 C 0.23652 0.18838 0.58321 0.0
C767 C 0.24219 0.17432 0.56717 0.0
H768 H 0.48923 0.52185 0.62851 0.0
H769 H 0.50596 0.58046 0.66064 0.0
H770 H 0.46176 0.51411 0.6552 0.0
H771 H 0.47837 0.57304 0.68696 0.0
H772 H 0.44378 0.54429 0.74335 0.0
H773 H 0.47085 0.55053 0.7163 0.0
H774 H 0.42786 0.52445 0.66809 0.0
H775 H 0.40089 0.51755 0.69542 0.0
C776 C 0.4869 0.53315 0.64118 0.0
C777 C 0.49987 0.55167 0.64261 0.0
C778 C 0.47114 0.52875 0.65643 0.0
C779 C 0.46793 0.54287 0.67336 0.0
C780 C 0.4807 0.56156 0.67448 0.0
C781 C 0.4965 0.56586 0.65935 0.0
C782 C 0.44007 0.53985 0.72699 0.0
C783 C 0.42013 0.53051 0.72153 0.0
C784 C 0.45558 0.54355 0.71142 0.0
C785 C 0.45151 0.53818 0.68994 0.0
C786 C 0.43162 0.5286 0.6845 0.0
C787 C 0.41612 0.52476 0.70015 0.0
H788 H 0.77437 0.23368 0.60897 0.0
H789 H 0.78936 0.2831 0.65487 0.0
H790 H 0.76564 0.25971 0.58259 0.0
H791 H 0.78102 0.30926 0.62819 0.0
H792 H 0.74372 0.34769 0.57916 0.0
H793 H 0.75035 0.32207 0.60694 0.0
H794 H 0.78643 0.28663 0.56208 0.0
H795 H 0.77977 0.31199 0.53441 0.0
C796 C 0.77558 0.2501 0.61351 0.0
C797 C 0.78254 0.25633 0.63402 0.0
C798 C 0.7708 0.26502 0.59831 0.0
C799 C 0.77278 0.28653 0.60328 0.0
C800 C 0.77924 0.29279 0.62394 0.0
C801 C 0.78418 0.27784 0.63914 0.0
C802 C 0.75305 0.33441 0.57525 0.0
C803 C 0.76117 0.33185 0.55456 0.0
C804 C 0.75693 0.31982 0.59118 0.0
C805 C 0.76881 0.30229 0.58664 0.0
C806 C 0.77696 0.29981 0.56598 0.0
C807 C 0.77324 0.31444 0.55015 0.0
H808 H 0.53467 0.02206 0.61048 0.0
H809 H 0.51901 0.95545 0.61148 0.0
H810 H 0.55067 0.02004 0.64574 0.0
H811 H 0.53528 0.95333 0.64677 0.0
H812 H 0.55064 0.96149 0.71838 0.0
H813 H 0.53221 0.96341 0.68416 0.0
H814 H 0.58196 0.00641 0.66115 0.0
H815 H 0.60002 0.00491 0.69532 0.0
C816 C 0.53473 0.00696 0.61822 0.0
C817 C 0.52574 0.98889 0.60812 0.0
C818 C 0.54394 0.00578 0.63842 0.0
C819 C 0.54448 0.98648 0.64901 0.0
C820 C 0.53497 0.96848 0.63916 0.0
C821 C 0.52566 0.96968 0.61893 0.0
C822 C 0.55762 0.97136 0.70601 0.0
C823 C 0.57677 0.98309 0.70963 0.0
C824 C 0.5471 0.97238 0.68636 0.0
C825 C 0.55553 0.98516 0.66993 0.0
C826 C 0.57479 0.99672 0.67356 0.0
C827 C 0.58523 0.99575 0.69315 0.0
H828 H 0.86524 0.24868 0.76088 0.0
H829 H 0.88178 0.18479 0.77173 0.0
H830 H 0.89028 0.26079 0.78851 0.0
H831 H 0.90761 0.19699 0.79851 0.0
H832 H 0.94076 0.2231 0.85779 0.0
H833 H 0.91203 0.21189 0.83351 0.0
H834 H 0.92794 0.26486 0.79305 0.0
H835 H 0.95616 0.27637 0.8176 0.0
C836 C 0.87409 0.23719 0.76925 0.0
C837 C 0.87155 0.21576 0.76398 0.0
C838 C 0.88866 0.24416 0.78492 0.0
C839 C 0.90111 0.2299 0.79565 0.0
C840 C 0.89818 0.20842 0.79073 0.0
C841 C 0.88355 0.20144 0.77514 0.0
C842 C 0.93801 0.23242 0.84379 0.0
C843 C 0.95078 0.2506 0.83961 0.0
C844 C 0.92162 0.22593 0.8298 0.0
C845 C 0.91769 0.23742 0.81126 0.0
C846 C 0.93027 0.25579 0.80731 0.0
C847 C 0.94658 0.26233 0.82134 0.0
H848 H 0.47375 0.89091 0.49612 0.0
H849 H 0.48907 0.9264 0.43938 0.0
H850 H 0.47383 0.8584 0.47534 0.0
H851 H 0.48967 0.89402 0.41869 0.0
H852 H 0.4721 0.83395 0.38295 0.0
H853 H 0.46835 0.86567 0.40417 0.0
H854 H 0.49782 0.83639 0.45783 0.0
H855 H 0.50086 0.80445 0.43682 0.0
C856 C 0.4772 0.89173 0.47921 0.0
C857 C 0.48135 0.9112 0.46937 0.0
C858 C 0.47732 0.87311 0.4673 0.0
C859 C 0.48179 0.87352 0.4453 0.0
C860 C 0.48577 0.89307 0.43548 0.0
C861 C 0.48547 0.91166 0.44735 0.0
C862 C 0.47768 0.83425 0.39932 0.0
C863 C 0.48685 0.81669 0.40816 0.0
C864 C 0.47564 0.8525 0.41147 0.0
C865 C 0.48289 0.8537 0.43272 0.0
C866 C 0.49178 0.83598 0.44163 0.0
C867 C 0.49366 0.81768 0.42953 0.0
H868 H 0.11529 0.32115 0.76909 0.0
H869 H 0.12053 0.25775 0.74578 0.0
H870 H 0.09054 0.30849 0.79633 0.0
H871 H 0.09668 0.24493 0.77383 0.0
H872 H 0.03295 0.23364 0.80838 0.0
H873 H 0.05983 0.24497 0.78253 0.0
H874 H 0.08722 0.28924 0.82866 0.0
H875 H 0.05989 0.27838 0.85426 0.0
C876 C 0.11127 0.30448 0.76984 0.0
C877 C 0.1198 0.29051 0.75509 0.0
C878 C 0.09727 0.29717 0.78568 0.0
C879 C 0.09153 0.27566 0.78729 0.0
C880 C 0.1005 0.26162 0.77289 0.0
C881 C 0.11442 0.26896 0.75696 0.0
C882 C 0.04477 0.24572 0.81305 0.0
C883 C 0.0442 0.25518 0.83334 0.0
C884 C 0.0603 0.25213 0.79825 0.0
C885 C 0.07571 0.26807 0.80345 0.0
C886 C 0.0754 0.27718 0.82396 0.0
C887 C 0.05979 0.27087 0.8387 0.0
H888 H 0.56394 0.63604 0.49384 0.0
H889 H 0.50009 0.63043 0.5186 0.0
H890 H 0.55309 0.66208 0.46842 0.0
H891 H 0.48906 0.65626 0.49288 0.0
H892 H 0.48418 0.72116 0.46283 0.0
H893 H 0.49358 0.69311 0.48658 0.0
H894 H 0.53258 0.66762 0.43707 0.0
H895 H 0.52367 0.69608 0.41353 0.0
C896 C 0.54748 0.6401 0.49357 0.0
C897 C 0.53288 0.6312 0.50825 0.0
C898 C 0.54123 0.65503 0.47898 0.0
C899 C 0.5202 0.66135 0.47861 0.0
C900 C 0.50547 0.65206 0.49297 0.0
C901 C 0.51176 0.63721 0.50766 0.0
C902 C 0.4947 0.70954 0.45697 0.0
C903 C 0.50325 0.71093 0.43632 0.0
C904 C 0.49999 0.69334 0.47056 0.0
C905 C 0.51387 0.67807 0.46378 0.0
C906 C 0.52212 0.67928 0.44296 0.0
C907 C 0.51692 0.69555 0.42941 0.0
H908 H 0.85709 0.80562 0.72434 0.0
H909 H 0.88484 0.76412 0.76943 0.0
H910 H 0.88092 0.79354 0.69656 0.0
H911 H 0.9088 0.75228 0.74181 0.0
H912 H 0.93475 0.72161 0.68203 0.0
H913 H 0.90804 0.73224 0.70748 0.0
H914 H 0.92009 0.79692 0.68961 0.0
H915 H 0.94677 0.78633 0.66406 0.0
C916 C 0.86814 0.79379 0.72824 0.0
C917 C 0.86916 0.78586 0.74906 0.0
C918 C 0.88189 0.78701 0.71241 0.0
C919 C 0.89675 0.772 0.71703 0.0
C920 C 0.89741 0.76373 0.73772 0.0
C921 C 0.88382 0.77064 0.75358 0.0
C922 C 0.93162 0.73809 0.68341 0.0
C923 C 0.94297 0.75314 0.67108 0.0
C924 C 0.91638 0.74417 0.69806 0.0
C925 C 0.91202 0.76541 0.70059 0.0
C926 C 0.92298 0.78041 0.68788 0.0
C927 C 0.93835 0.77435 0.67334 0.0
H928 H 0.049 0.85535 0.49509 0.0
H929 H 0.00362 0.89806 0.51921 0.0
H930 H 0.03799 0.82997 0.52215 0.0
H931 H 0.9931 0.87287 0.54689 0.0
H932 H 0.96399 0.8121 0.57721 0.0
H933 H 0.97451 0.83841 0.55069 0.0
H934 H 0.04031 0.82524 0.5604 0.0
H935 H 0.02984 0.79874 0.58654 0.0
C936 C 0.03664 0.85931 0.50617 0.0
C937 C 0.02713 0.8787 0.50492 0.0
C938 C 0.0305 0.84485 0.52185 0.0
C939 C 0.01471 0.84941 0.53674 0.0
C940 C 0.00519 0.86881 0.53555 0.0
C941 C 0.01137 0.88333 0.51984 0.0
C942 C 0.9807 0.81484 0.57371 0.0
C943 C 0.99606 0.80322 0.58392 0.0
C944 C 0.98674 0.83002 0.55859 0.0
C945 C 0.00825 0.83387 0.55335 0.0
C946 C 0.02359 0.82243 0.56381 0.0
C947 C 0.01757 0.8073 0.57889 0.0
H948 H 0.12779 0.75096 0.75916 0.0
H949 H 0.1536 0.7222 0.70294 0.0
H950 H 0.09358 0.75272 0.74126 0.0
H951 H 0.11935 0.72379 0.68508 0.0
H952 H 0.06394 0.75329 0.65165 0.0
H953 H 0.09746 0.75001 0.67029 0.0
H954 H 0.06346 0.73167 0.72751 0.0
H955 H 0.02984 0.73544 0.70898 0.0
C956 C 0.12606 0.74472 0.74309 0.0
C957 C 0.14343 0.73652 0.73243 0.0
C958 C 0.10644 0.74573 0.73282 0.0
C959 C 0.10374 0.73852 0.71168 0.0
C960 C 0.121 0.72987 0.70122 0.0
C961 C 0.14061 0.72891 0.71146 0.0
C962 C 0.06358 0.74857 0.66821 0.0
C963 C 0.04419 0.74465 0.67882 0.0
C964 C 0.08283 0.74653 0.67887 0.0
C965 C 0.08317 0.74048 0.70038 0.0
C966 C 0.06377 0.73658 0.71101 0.0
C967 C 0.04449 0.73865 0.70035 0.0
H968 H 0.96094 0.60427 0.53452 0.0
H969 H 0.01827 0.58714 0.5663 0.0
H970 H 0.96174 0.63714 0.55486 0.0
H971 H 0.01919 0.61991 0.58643 0.0
H972 H 0.00285 0.6689 0.63523 0.0
H973 H 1.00014 0.63639 0.6147 0.0
H974 H 0.9817 0.67059 0.55899 0.0
H975 H 0.98393 0.70317 0.57974 0.0
C976 C 0.9738 0.60761 0.5457 0.0
C977 C 0.98946 0.59304 0.54891 0.0
C978 C 0.97427 0.62643 0.55735 0.0
C979 C 0.99043 0.6311 0.5724 0.0
C980 C 0.00624 0.61663 0.57533 0.0
C981 C 0.00574 0.59784 0.56376 0.0
C982 C 0.99812 0.66951 0.61863 0.0
C983 C 0.99371 0.68866 0.60911 0.0
C984 C 0.99669 0.65087 0.60681 0.0
C985 C 0.99091 0.65089 0.58513 0.0
C986 C 0.98605 0.66998 0.5757 0.0
C987 C 0.98742 0.68867 0.58757 0.0
H988 H 0.77621 0.86607 0.19251 0.0
H989 H 0.72913 0.90132 0.22502 0.0
H990 H 0.8032 0.89369 0.20088 0.0
H991 H 0.75605 0.92886 0.23336 0.0
H992 H 0.8135 0.96536 0.26159 0.0
H993 H 0.78772 0.93633 0.25471 0.0
H994 H 0.81249 0.92974 0.19092 0.0
H995 H 0.83855 0.95847 0.19792 0.0
C996 C 0.77161 0.87972 0.2014 0.0
C997 C 0.75051 0.88146 0.20811 0.0
C998 C 0.78707 0.89556 0.20617 0.0
C999 C 0.78179 0.91351 0.21777 0.0
C1000 C 0.76074 0.91511 0.2247 0.0
C1001 C 0.7453 0.89929 0.21993 0.0
C1002 C 0.81349 0.95769 0.24611 0.0
C1003 C 0.82807 0.96427 0.23029 0.0
C1004 C 0.79864 0.94111 0.24214 0.0
C1005 C 0.79801 0.93072 0.22225 0.0
C1006 C 0.81272 0.9372 0.2065 0.0
C1007 C 0.82758 0.95378 0.21048 0.0
H1008 H 0.7607 0.15134 0.24369 0.0
H1009 H 0.77471 0.16151 0.3106 0.0
H1010 H 0.77917 0.11876 0.24446 0.0
H1011 H 0.79308 0.12878 0.31138 0.0
H1012 H 0.80761 0.05857 0.30778 0.0
H1013 H 0.7874 0.09024 0.308 0.0
H1014 H 0.81605 0.10884 0.24808 0.0
H1015 H 0.836 0.07722 0.2477 0.0
C1016 C 0.76776 0.14666 0.25856 0.0
C1017 C 0.76636 0.15915 0.27704 0.0
C1018 C 0.77835 0.12798 0.259 0.0
C1019 C 0.78776 0.12127 0.27794 0.0
C1020 C 0.78584 0.13342 0.29658 0.0
C1021 C 0.77529 0.15217 0.29614 0.0
C1022 C 0.8096 0.06943 0.29466 0.0
C1023 C 0.8234 0.06533 0.27771 0.0
C1024 C 0.79808 0.08761 0.29484 0.0
C1025 C 0.80003 0.102 0.278 0.0
C1026 C 0.81392 0.09792 0.26113 0.0
C1027 C 0.82548 0.07984 0.26099 0.0
H1028 H 0.38062 0.98278 0.97489 0.0
H1029 H 0.40188 0.95368 0.03255 0.0
H1030 H 0.34478 0.96726 0.98065 0.0
H1031 H 0.36627 0.93803 0.03814 0.0
H1032 H 0.29559 0.93218 0.05334 0.0
H1033 H 0.33013 0.94994 0.04698 0.0
H1034 H 0.32671 0.93108 0.98069 0.0
H1035 H 0.29209 0.91333 0.98697 0.0
C1036 C 0.37761 0.97311 0.98879 0.0
C1037 C 0.39405 0.96937 0.00323 0.0
C1038 C 0.35717 0.96414 0.99201 0.0
C1039 C 0.35274 0.95149 0.00987 0.0
C1040 C 0.36916 0.94788 0.02435 0.0
C1041 C 0.38959 0.95666 0.02102 0.0
C1042 C 0.30211 0.93194 0.03737 0.0
C1043 C 0.29113 0.92126 0.02068 0.0
C1044 C 0.32195 0.94201 0.03377 0.0
C1045 C 0.33116 0.94179 0.01337 0.0
C1046 C 0.31993 0.93163 0.99654 0.0
C1047 C 0.30016 0.92138 0.00018 0.0
H1048 H 0.20852 0.34768 0.31105 0.0
H1049 H 0.25325 0.39103 0.28022 0.0
H1050 H 0.18001 0.3711 0.30383 0.0
H1051 H 0.2248 0.41437 0.273 0.0
H1052 H 0.16612 0.44443 0.24837 0.0
H1053 H 0.19241 0.41806 0.25253 0.0
H1054 H 0.16943 0.40529 0.31624 0.0
H1055 H 0.1429 0.43136 0.31197 0.0
C1056 C 0.21227 0.36219 0.30272 0.0
C1057 C 0.23319 0.3675 0.29627 0.0
C1058 C 0.19593 0.37561 0.29859 0.0
C1059 C 0.20013 0.39465 0.28791 0.0
C1060 C 0.22095 0.39969 0.28099 0.0
C1061 C 0.23728 0.38629 0.28512 0.0
C1062 C 0.16655 0.43588 0.26321 0.0
C1063 C 0.15245 0.44009 0.27988 0.0
C1064 C 0.18171 0.42084 0.26563 0.0
C1065 C 0.18311 0.40963 0.28475 0.0
C1066 C 0.16864 0.41346 0.30121 0.0
C1067 C 0.15349 0.42851 0.2988 0.0
H1068 H 0.10209 0.03423 0.45632 0.0
H1069 H 0.13913 0.98807 0.48723 0.0
H1070 H 0.12803 0.06179 0.46751 0.0
H1071 H 0.16519 0.01562 0.49811 0.0
H1072 H 0.21866 0.0668 0.49006 0.0
H1073 H 0.19182 0.0395 0.48044 0.0
H1074 H 0.14243 0.07986 0.50011 0.0
H1075 H 0.16924 0.10729 0.50961 0.0
C1076 C 0.1156 0.02997 0.46572 0.0
C1077 C 0.11854 0.00889 0.47078 0.0
C1078 C 0.1305 0.04578 0.47209 0.0
C1079 C 0.14872 0.04086 0.48358 0.0
C1080 C 0.15149 0.01986 0.48895 0.0
C1081 C 0.13656 0.00407 0.48269 0.0
C1082 C 0.20208 0.06988 0.49235 0.0
C1083 C 0.19611 0.08924 0.50061 0.0
C1084 C 0.18671 0.05417 0.48696 0.0
C1085 C 0.16501 0.05751 0.48957 0.0
C1086 C 0.15902 0.07689 0.49775 0.0
C1087 C 0.1744 0.09256 0.50328 0.0
H1088 H 0.76086 0.10121 0.72677 0.0
H1089 H 0.71717 0.15031 0.71746 0.0
H1090 H 0.73137 0.07693 0.73584 0.0
H1091 H 0.68772 0.12626 0.72762 0.0
H1092 H 0.63938 0.07001 0.71935 0.0
H1093 H 0.66812 0.09614 0.71305 0.0
H1094 H 0.70526 0.06866 0.76258 0.0
H1095 H 0.67676 0.04217 0.76844 0.0
C1096 C 0.74497 0.10686 0.72676 0.0
C1097 C 0.7414 0.12768 0.72122 0.0
C1098 C 0.72806 0.093 0.73226 0.0
C1099 C 0.70713 0.09961 0.73246 0.0
C1100 C 0.7036 0.12056 0.72738 0.0
C1101 C 0.72052 0.13443 0.72181 0.0
C1102 C 0.65362 0.06963 0.729 0.0
C1103 C 0.65583 0.05391 0.74429 0.0
C1104 C 0.67007 0.0847 0.72547 0.0
C1105 C 0.68908 0.08446 0.73723 0.0
C1106 C 0.691 0.06909 0.75297 0.0
C1107 C 0.6746 0.05397 0.75642 0.0
H1108 H 0.39604 0.02784 0.54628 0.0
H1109 H 0.42212 0.06568 0.49487 0.0
H1110 H 0.36451 0.04853 0.54659 0.0
H1111 H 0.39073 0.08632 0.49523 0.0
H1112 H 0.3418 0.13216 0.51523 0.0
H1113 H 0.37329 0.11171 0.51743 0.0
H1114 H 0.33354 0.05508 0.5245 0.0
H1115 H 0.30201 0.07558 0.52267 0.0
C1116 C 0.39499 0.04047 0.53496 0.0
C1117 C 0.41165 0.04514 0.5206 0.0
C1118 C 0.37694 0.05233 0.53515 0.0
C1119 C 0.37515 0.06915 0.52101 0.0
C1120 C 0.39178 0.07375 0.50662 0.0
C1121 C 0.40978 0.06189 0.50641 0.0
C1122 C 0.33975 0.11537 0.5174 0.0
C1123 C 0.31936 0.10551 0.51868 0.0
C1124 C 0.35782 0.10362 0.51853 0.0
C1125 C 0.35594 0.08173 0.52098 0.0
C1126 C 0.33556 0.07193 0.52279 0.0
C1127 C 0.31747 0.08368 0.52164 0.0
H1128 H 0.6305 0.52047 0.51613 0.0
H1129 H 0.61894 0.4884 0.57568 0.0
H1130 H 0.65527 0.49419 0.50568 0.0
H1131 H 0.64409 0.4623 0.56551 0.0
H1132 H 0.67892 0.40955 0.53369 0.0
H1133 H 0.65124 0.43372 0.54195 0.0
H1134 H 0.69001 0.48468 0.51515 0.0
H1135 H 0.71725 0.4605 0.50635 0.0
C1136 C 0.6333 0.50779 0.527 0.0
C1137 C 0.62288 0.50656 0.54677 0.0
C1138 C 0.64756 0.49276 0.52106 0.0
C1139 C 0.65189 0.47621 0.53484 0.0
C1140 C 0.64099 0.47467 0.55439 0.0
C1141 C 0.62659 0.48964 0.56025 0.0
C1142 C 0.68146 0.42591 0.52949 0.0
C1143 C 0.70029 0.43309 0.51934 0.0
C1144 C 0.66564 0.43979 0.53432 0.0
C1145 C 0.66834 0.46118 0.52919 0.0
C1146 C 0.68717 0.46827 0.51899 0.0
C1147 C 0.7029 0.4544 0.51406 0.0
H1148 H 0.75514 0.27991 0.37246 0.0
H1149 H 0.69438 0.30184 0.35322 0.0
H1150 H 0.75421 0.30154 0.4047 0.0
H1151 H 0.6932 0.32308 0.38574 0.0
H1152 H 0.71385 0.37795 0.43152 0.0
H1153 H 0.71234 0.35479 0.40033 0.0
H1154 H 0.73479 0.30446 0.43858 0.0
H1155 H 0.73654 0.32762 0.46971 0.0
C1156 C 0.74154 0.28928 0.37518 0.0
C1157 C 0.72487 0.28921 0.36027 0.0
C1158 C 0.74091 0.30151 0.39374 0.0
C1159 C 0.72364 0.31404 0.39775 0.0
C1160 C 0.70681 0.31374 0.383 0.0
C1161 C 0.70739 0.3014 0.36449 0.0
C1162 C 0.71834 0.36192 0.43332 0.0
C1163 C 0.72541 0.35468 0.45309 0.0
C1164 C 0.71737 0.34861 0.41546 0.0
C1165 C 0.72352 0.32781 0.41698 0.0
C1166 C 0.73021 0.32048 0.43684 0.0
C1167 C 0.73109 0.33374 0.4547 0.0
H1168 H 0.55085 0.03401 0.91846 0.0
H1169 H 0.49606 0.99891 0.89279 0.0
H1170 H 0.56792 0.03286 0.88366 0.0
H1171 H 0.51305 0.99822 0.85783 0.0
H1172 H 0.54481 0.01868 0.7939 0.0
H1173 H 0.5263 0.02198 0.82797 0.0
H1174 H 0.58247 0.00421 0.86137 0.0
H1175 H 0.60094 0.00091 0.82752 0.0
C1176 C 0.54243 0.02604 0.90542 0.0
C1177 C 0.52215 0.01635 0.90854 0.0
C1178 C 0.55221 0.02544 0.88547 0.0
C1179 C 0.54189 0.0153 0.86808 0.0
C1180 C 0.52132 0.00628 0.87092 0.0
C1181 C 0.51157 0.00673 0.89095 0.0
C1182 C 0.5532 0.0155 0.80852 0.0
C1183 C 0.57435 0.00954 0.80799 0.0
C1184 C 0.54257 0.01731 0.828 0.0
C1185 C 0.55298 0.01345 0.84732 0.0
C1186 C 0.57412 0.00755 0.84676 0.0
C1187 C 0.58465 0.00553 0.82733 0.0
H1188 H 0.31714 0.22971 0.37816 0.0
H1189 H 0.25191 0.24723 0.3777 0.0
H1190 H 0.30764 0.20074 0.40199 0.0
H1191 H 0.2424 0.21832 0.40159 0.0
H1192 H 0.22927 0.15408 0.43132 0.0
H1193 H 0.23901 0.18027 0.40442 0.0
H1194 H 0.29698 0.19655 0.4389 0.0
H1195 H 0.2875 0.17017 0.46549 0.0
C1196 C 0.30077 0.22739 0.38318 0.0
C1197 C 0.2853 0.24085 0.37613 0.0
C1198 C 0.29533 0.21079 0.39684 0.0
C1199 C 0.27428 0.20727 0.40381 0.0
C1200 C 0.25871 0.22042 0.39632 0.0
C1201 C 0.26415 0.237 0.38263 0.0
C1202 C 0.24416 0.16315 0.43308 0.0
C1203 C 0.25758 0.16005 0.45059 0.0
C1204 C 0.24968 0.17824 0.41772 0.0
C1205 C 0.26876 0.19053 0.41951 0.0
C1206 C 0.28232 0.18717 0.43685 0.0
C1207 C 0.2768 0.17212 0.45219 0.0
H1208 H 0.4793 0.49695 0.89364 0.0
H1209 H 0.4762 0.43162 0.87471 0.0
H1210 H 0.45374 0.50434 0.86574 0.0
H1211 H 0.44998 0.43881 0.84768 0.0
H1212 H 0.42706 0.46384 0.78421 0.0
H1213 H 0.45019 0.4562 0.81386 0.0
H1214 H 0.4169 0.49874 0.8542 0.0
H1215 H 0.39392 0.50681 0.82422 0.0
C1216 C 0.47306 0.48414 0.88366 0.0
C1217 C 0.47991 0.46371 0.8864 0.0
C1218 C 0.45821 0.48834 0.86783 0.0
C1219 C 0.44989 0.47219 0.85437 0.0
C1220 C 0.45629 0.45168 0.85754 0.0
C1221 C 0.47114 0.4475 0.87328 0.0
C1222 C 0.42457 0.47153 0.79941 0.0
C1223 C 0.40863 0.48594 0.80183 0.0
C1224 C 0.43778 0.46703 0.81648 0.0
C1225 C 0.43536 0.47678 0.83646 0.0
C1226 C 0.41932 0.49111 0.83897 0.0
C1227 C 0.40607 0.49564 0.82182 0.0
H1228 H 0.73495 0.75552 0.12453 0.0
H1229 H 0.66989 0.73088 0.12563 0.0
H1230 H 0.74388 0.72778 0.09957 0.0
H1231 H 0.67879 0.70331 0.10058 0.0
H1232 H 0.69699 0.67752 0.03458 0.0
H1233 H 0.68858 0.70226 0.06267 0.0
H1234 H 0.74671 0.68931 0.09545 0.0
H1235 H 0.7553 0.66458 0.06712 0.0
C1236 C 0.72263 0.744 0.11973 0.0
C1237 C 0.70165 0.74555 0.12693 0.0
C1238 C 0.72775 0.72811 0.10541 0.0
C1239 C 0.712 0.71346 0.09795 0.0
C1240 C 0.6912 0.7146 0.10571 0.0
C1241 C 0.6861 0.73042 0.12005 0.0
C1242 C 0.70796 0.67984 0.04781 0.0
C1243 C 0.72684 0.6691 0.04857 0.0
C1244 C 0.70306 0.69393 0.064 0.0
C1245 C 0.71696 0.69773 0.08132 0.0
C1246 C 0.73577 0.68685 0.08222 0.0
C1247 C 0.74062 0.67261 0.06605 0.0
H1248 H 0.00726 0.08138 0.16199 0.0
H1249 H 0.98646 0.02499 0.12789 0.0
H1250 H 0.97965 0.07467 0.18847 0.0
H1251 H 0.959 0.01791 0.15473 0.0
H1252 H 0.89928 0.02313 0.19604 0.0
H1253 H 0.92614 0.02969 0.16857 0.0
H1254 H 0.97099 0.05164 0.21704 0.0
H1255 H 0.94402 0.04577 0.24426 0.0
C1256 C 0.99689 0.06741 0.1603 0.0
C1257 C 0.99911 0.05364 0.14295 0.0
C1258 C 0.98108 0.06351 0.17551 0.0
C1259 C 0.96717 0.04564 0.17388 0.0
C1260 C 0.96926 0.03195 0.15637 0.0
C1261 C 0.98502 0.03595 0.14102 0.0
C1262 C 0.91488 0.02937 0.20079 0.0
C1263 C 0.91947 0.03406 0.22232 0.0
C1264 C 0.93033 0.03302 0.18506 0.0
C1265 C 0.95074 0.04131 0.19054 0.0
C1266 C 0.95534 0.04566 0.21214 0.0
C1267 C 0.93989 0.04218 0.2278 0.0
H1268 H 0.30469 0.74548 0.11042 0.0
H1269 H 0.27051 0.77684 0.16004 0.0
H1270 H 0.29671 0.77307 0.08558 0.0
H1271 H 0.26212 0.80429 0.13485 0.0
H1272 H 0.23379 0.83572 0.07447 0.0
H1273 H 0.24111 0.80895 0.10085 0.0
H1274 H 0.3068 0.81106 0.08137 0.0
H1275 H 0.29958 0.83762 0.05508 0.0
C1276 C 0.29563 0.75834 0.11612 0.0
C1277 C 0.28844 0.759 0.13734 0.0
C1278 C 0.29099 0.77412 0.10183 0.0
C1279 C 0.27891 0.79091 0.10831 0.0
C1280 C 0.27135 0.79145 0.12938 0.0
C1281 C 0.27613 0.7757 0.14377 0.0
C1282 C 0.2498 0.83052 0.0759 0.0
C1283 C 0.26607 0.83873 0.0626 0.0
C1284 C 0.254 0.81528 0.09106 0.0
C1285 C 0.27449 0.80782 0.09306 0.0
C1286 C 0.29079 0.81628 0.07999 0.0
C1287 C 0.28665 0.8316 0.065 0.0
H1288 H 0.0206 0.46524 0.10955 0.0
H1289 H 0.02946 0.53272 0.108 0.0
H1290 H 0.03614 0.46513 0.14533 0.0
H1291 H 0.0453 0.53259 0.14356 0.0
H1292 H 0.05428 0.52589 0.21545 0.0
H1293 H 0.03566 0.5248 0.18127 0.0
H1294 H 0.07214 0.47282 0.16099 0.0
H1295 H 0.09072 0.47379 0.1952 0.0
C1296 C 0.02568 0.48005 0.11694 0.0
C1297 C 0.02386 0.49898 0.10597 0.0
C1298 C 0.03475 0.47997 0.13732 0.0
C1299 C 0.04198 0.49884 0.14722 0.0
C1300 C 0.03972 0.51781 0.13643 0.0
C1301 C 0.03082 0.51787 0.116 0.0
C1302 C 0.05825 0.51414 0.20377 0.0
C1303 C 0.07404 0.49997 0.20803 0.0
C1304 C 0.04764 0.51359 0.18415 0.0
C1305 C 0.05248 0.49877 0.16844 0.0
C1306 C 0.06793 0.4843 0.17286 0.0
C1307 C 0.07866 0.48494 0.19242 0.0
H1308 H 0.39632 0.72369 0.24752 0.0
H1309 H 0.34529 0.71509 0.29293 0.0
H1310 H 0.42068 0.73403 0.27634 0.0
H1311 H 0.36978 0.72508 0.32197 0.0
H1312 H 0.41658 0.76243 0.36624 0.0
H1313 H 0.39109 0.7537 0.33774 0.0
H1314 H 0.43804 0.71809 0.30543 0.0
H1315 H 0.46357 0.72728 0.33346 0.0
C1316 C 0.39035 0.72392 0.26371 0.0
C1317 C 0.36894 0.71844 0.26799 0.0
C1318 C 0.40432 0.72978 0.28026 0.0
C1319 C 0.39727 0.73016 0.30154 0.0
C1320 C 0.37571 0.72515 0.30576 0.0
C1321 C 0.36168 0.7194 0.28914 0.0
C1322 C 0.42141 0.7527 0.35307 0.0
C1323 C 0.44214 0.74564 0.35208 0.0
C1324 C 0.40678 0.74763 0.33677 0.0
C1325 C 0.41254 0.73532 0.31918 0.0
C1326 C 0.43317 0.72797 0.31847 0.0
C1327 C 0.44779 0.73313 0.33466 0.0
H1328 H 0.02507 0.4063 0.98406 0.0
H1329 H 0.95993 0.4064 0.96256 0.0
H1330 H 0.02913 0.37302 0.96599 0.0
H1331 H 0.96441 0.37353 0.94334 0.0
H1332 H 0.97455 0.30425 0.92784 0.0
H1333 H 0.96913 0.33656 0.94779 0.0
H1334 H 0.03222 0.36 0.93055 0.0
H1335 H 0.03782 0.32761 0.91126 0.0
C1336 C 0.01153 0.39918 0.9756 0.0
C1337 C 0.99213 0.40907 0.97487 0.0
C1338 C 0.01398 0.38019 0.96492 0.0
C1339 C 0.99717 0.37064 0.95302 0.0
C1340 C 0.97766 0.38035 0.95249 0.0
C1341 C 0.97516 0.39934 0.9633 0.0
C1342 C 0.98726 0.31631 0.92836 0.0
C1343 C 0.00665 0.31331 0.91805 0.0
C1344 C 0.98411 0.33488 0.9397 0.0
C1345 C 1.00027 0.35088 0.94088 0.0
C1346 C 0.01957 0.34788 0.93036 0.0
C1347 C 0.02275 0.32932 0.91917 0.0
H1348 H 0.61372 0.82154 0.26563 0.0
H1349 H 0.6289 0.75753 0.2523 0.0
H1350 H 0.58962 0.80948 0.29374 0.0
H1351 H 0.60549 0.74552 0.28113 0.0
H1352 H 0.54098 0.73115 0.31389 0.0
H1353 H 0.56787 0.74211 0.28792 0.0
H1354 H 0.5879 0.79432 0.32875 0.0
H1355 H 0.56059 0.78366 0.35451 0.0
C1356 C 0.612 0.80489 0.26877 0.0
C1357 C 0.62311 0.7905 0.25657 0.0
C1358 C 0.59838 0.79799 0.2851 0.0
C1359 C 0.59557 0.77651 0.2897 0.0
C1360 C 0.60708 0.76215 0.27784 0.0
C1361 C 0.62069 0.76906 0.26147 0.0
C1362 C 0.5512 0.74489 0.31741 0.0
C1363 C 0.54853 0.7566 0.33622 0.0
C1364 C 0.56673 0.75111 0.30256 0.0
C1365 C 0.58003 0.76914 0.30619 0.0
C1366 C 0.57771 0.78054 0.32528 0.0
C1367 C 0.56213 0.77436 0.34011 0.0
H1368 H 0.00493 0.13881 0.02498 0.0
H1369 H 0.05698 0.12179 0.98476 0.0
H1370 H 0.99364 0.163 0.99783 0.0
H1371 H 0.04519 0.14538 0.95724 0.0
H1372 H 0.0342 0.20923 0.9266 0.0
H1373 H 0.04444 0.18298 0.9521 0.0
H1374 H 0.97839 0.16467 0.96232 0.0
H1375 H 0.96809 0.19124 0.9371 0.0
C1376 C 0.01389 0.14014 0.01028 0.0
C1377 C 0.03194 0.12846 0.00711 0.0
C1378 C 0.00728 0.15384 0.99461 0.0
C1379 C 0.01855 0.1562 0.97538 0.0
C1380 C 0.03631 0.14414 0.97199 0.0
C1381 C 0.04291 0.13042 0.98766 0.0
C1382 C 0.02184 0.19957 0.93422 0.0
C1383 C 0.00031 0.20241 0.92986 0.0
C1384 C 0.02773 0.18441 0.94875 0.0
C1385 C 0.01224 0.17171 0.95926 0.0
C1386 C 0.99071 0.17437 0.9547 0.0
C1387 C 0.98481 0.18954 0.94016 0.0
H1388 H 0.34823 0.28702 0.22899 0.0
H1389 H 0.39695 0.29313 0.2775 0.0
H1390 H 0.37418 0.27414 0.20373 0.0
H1391 H 0.42289 0.2809 0.25219 0.0
H1392 H 0.45857 0.23741 0.20935 0.0
H1393 H 0.43113 0.24859 0.23356 0.0
H1394 H 0.40614 0.28697 0.18394 0.0
H1395 H 0.43348 0.27555 0.15953 0.0
C1396 C 0.36445 0.2856 0.23425 0.0
C1397 C 0.37054 0.29115 0.25523 0.0
C1398 C 0.37935 0.2784 0.21974 0.0
C1399 C 0.40059 0.27646 0.22597 0.0
C1400 C 0.40661 0.28198 0.24695 0.0
C1401 C 0.39179 0.28924 0.26139 0.0
C1402 C 0.44718 0.24815 0.20353 0.0
C1403 C 0.44829 0.25565 0.18252 0.0
C1404 C 0.43151 0.25465 0.21746 0.0
C1405 C 0.41654 0.26879 0.21073 0.0
C1406 C 0.41734 0.27594 0.18957 0.0
C1407 C 0.43307 0.26947 0.17562 0.0
H1408 H 0.56 0.37987 0.0288 0.0
H1409 H 0.49434 0.38535 0.01091 0.0
H1410 H 0.54918 0.35463 0.05619 0.0
H1411 H 0.48353 0.36023 0.03842 0.0
H1412 H 0.47122 0.32819 0.10287 0.0
H1413 H 0.48221 0.3554 0.07744 0.0
H1414 H 0.53409 0.31845 0.05708 0.0
H1415 H 0.52333 0.29143 0.08261 0.0
C1416 C 0.54326 0.37566 0.03068 0.0
C1417 C 0.52805 0.38454 0.01756 0.0
C1418 C 0.53706 0.36122 0.04638 0.0
C1419 C 0.51551 0.35534 0.04939 0.0
C1420 C 0.50025 0.3646 0.03666 0.0
C1421 C 0.50645 0.37902 0.0209 0.0
C1422 C 0.485 0.3259 0.09301 0.0
C1423 C 0.49638 0.30762 0.09476 0.0
C1424 C 0.49123 0.34145 0.07837 0.0
C1425 C 0.50904 0.33909 0.06527 0.0
C1426 C 0.52048 0.32087 0.06715 0.0
C1427 C 0.51421 0.30531 0.08169 0.0
H1428 H 0.65028 0.22654 0.20407 0.0
H1429 H 0.6277 0.26606 0.25454 0.0
H1430 H 0.61684 0.22943 0.18497 0.0
H1431 H 0.59421 0.26885 0.23554 0.0
H1432 H 0.54919 0.28999 0.1833 0.0
H1433 H 0.58147 0.28533 0.20371 0.0
H1434 H 0.57916 0.21971 0.186 0.0
H1435 H 0.54708 0.22447 0.16518 0.0
C1436 C 0.63805 0.23558 0.21124 0.0
C1437 C 0.64168 0.24616 0.23076 0.0
C1438 C 0.61887 0.23724 0.2003 0.0
C1439 C 0.60287 0.24947 0.20866 0.0
C1440 C 0.60634 0.25963 0.22845 0.0
C1441 C 0.62552 0.25801 0.23935 0.0
C1442 C 0.55552 0.27455 0.18379 0.0
C1443 C 0.54558 0.25763 0.17255 0.0
C1444 C 0.57397 0.27184 0.19562 0.0
C1445 C 0.58291 0.25213 0.19652 0.0
C1446 C 0.57285 0.23516 0.18543 0.0
C1447 C 0.55439 0.23787 0.17358 0.0
H1448 H 0.50094 0.11047 0.02466 0.0
H1449 H 0.45648 0.08092 0.06885 0.0
H1450 H 0.50061 0.14298 0.04537 0.0
H1451 H 0.45627 0.11336 0.0896 0.0
H1452 H 0.4841 0.1653 0.13464 0.0
H1453 H 0.48133 0.13366 0.11263 0.0
H1454 H 0.4778 0.17149 0.05603 0.0
H1455 H 0.48084 0.20323 0.07803 0.0
C1456 C 0.49087 0.11099 0.03862 0.0
C1457 C 0.47886 0.09304 0.04518 0.0
C1458 C 0.49069 0.12962 0.05049 0.0
C1459 C 0.47851 0.13071 0.06921 0.0
C1460 C 0.46611 0.11292 0.07547 0.0
C1461 C 0.46625 0.09432 0.06359 0.0
C1462 C 0.48262 0.1669 0.11752 0.0
C1463 C 0.48276 0.18681 0.1081 0.0
C1464 C 0.48091 0.14875 0.10491 0.0
C1465 C 0.47936 0.15006 0.08258 0.0
C1466 C 0.4792 0.16996 0.07317 0.0
C1467 C 0.48082 0.18814 0.0858 0.0
H1468 H 0.2296 0.40965 0.69805 0.0
H1469 H 0.26803 0.35902 0.71742 0.0
H1470 H 0.25808 0.43502 0.70827 0.0
H1471 H 0.29645 0.3845 0.7281 0.0
H1472 H 0.3503 0.436 0.71931 0.0
H1473 H 0.32191 0.40993 0.71058 0.0
H1474 H 0.27636 0.44879 0.74073 0.0
H1475 H 0.30467 0.47496 0.74932 0.0
C1476 C 0.24416 0.40395 0.70448 0.0
C1477 C 0.24662 0.38233 0.70683 0.0
C1478 C 0.26039 0.41849 0.71055 0.0
C1479 C 0.27951 0.41177 0.71901 0.0
C1480 C 0.28196 0.39015 0.72147 0.0
C1481 C 0.26563 0.37558 0.71553 0.0
C1482 C 0.33424 0.43898 0.72411 0.0
C1483 C 0.32975 0.45761 0.73493 0.0
C1484 C 0.318 0.42397 0.71923 0.0
C1485 C 0.29689 0.42731 0.72494 0.0
C1486 C 0.29243 0.44586 0.73591 0.0
C1487 C 0.30868 0.46081 0.74091 0.0
H1488 H 0.30388 0.67238 0.78255 0.0
H1489 H 0.24325 0.63882 0.77378 0.0
H1490 H 0.32145 0.63928 0.78258 0.0
H1491 H 0.26084 0.60565 0.77374 0.0
H1492 H 0.29757 0.54915 0.79428 0.0
H1493 H 0.28009 0.58232 0.79643 0.0
H1494 H 0.32965 0.61165 0.75774 0.0
H1495 H 0.34733 0.57869 0.75595 0.0
C1496 C 0.29431 0.65793 0.7805 0.0
C1497 C 0.27217 0.65826 0.77804 0.0
C1498 C 0.30438 0.63895 0.78051 0.0
C1499 C 0.29258 0.6198 0.77806 0.0
C1500 C 0.27039 0.62009 0.77594 0.0
C1501 C 0.2603 0.63911 0.77594 0.0
C1502 C 0.30478 0.5627 0.7863 0.0
C1503 C 0.32386 0.56125 0.77494 0.0
C1504 C 0.29469 0.58169 0.78743 0.0
C1505 C 0.30345 0.59966 0.77725 0.0
C1506 C 0.32261 0.59821 0.76603 0.0
C1507 C 0.3327 0.57925 0.7649 0.0
H1508 H 0.88742 0.48068 0.47779 0.0
H1509 H 0.90756 0.45394 0.53713 0.0
H1510 H 0.85181 0.46461 0.48293 0.0
H1511 H 0.8723 0.43737 0.54189 0.0
H1512 H 0.80169 0.42852 0.55512 0.0
H1513 H 0.83615 0.44666 0.5497 0.0
H1514 H 0.83368 0.42967 0.48284 0.0
H1515 H 0.799 0.4118 0.48816 0.0
C1516 C 0.88424 0.47141 0.49194 0.0
C1517 C 0.90034 0.46854 0.50702 0.0
C1518 C 0.86391 0.46205 0.49478 0.0
C1519 C 0.85921 0.44971 0.51282 0.0
C1520 C 0.8753 0.44696 0.52793 0.0
C1521 C 0.8956 0.45625 0.52507 0.0
C1522 C 0.80843 0.42871 0.53924 0.0
C1523 C 0.79762 0.41863 0.5221 0.0
C1524 C 0.82825 0.43902 0.53616 0.0
C1525 C 0.83772 0.43952 0.51586 0.0
C1526 C 0.82674 0.42975 0.49863 0.0
C1527 C 0.80691 0.4194 0.50172 0.0
H1528 H 0.71702 0.85487 0.79631 0.0
H1529 H 0.76732 0.90304 0.79113 0.0
H1530 H 0.69069 0.88121 0.79085 0.0
H1531 H 0.74114 0.92915 0.78526 0.0
H1532 H 0.68885 0.97263 0.8036 0.0
H1533 H 0.71402 0.94532 0.80767 0.0
H1534 H 0.67786 0.9059 0.76301 0.0
H1535 H 0.65242 0.93331 0.75896 0.0
C1536 C 0.72244 0.87104 0.79389 0.0
C1537 C 0.74425 0.87687 0.79417 0.0
C1538 C 0.70739 0.88607 0.7906 0.0
C1539 C 0.71386 0.90726 0.78775 0.0
C1540 C 0.73566 0.91299 0.78765 0.0
C1541 C 0.75067 0.89798 0.79078 0.0
C1542 C 0.68617 0.95814 0.79466 0.0
C1543 C 0.66864 0.95519 0.7809 0.0
C1544 C 0.7007 0.94254 0.7969 0.0
C1545 C 0.69801 0.92353 0.78554 0.0
C1546 C 0.68028 0.92036 0.77205 0.0
C1547 C 0.66578 0.93608 0.76967 0.0
H1548 H 0.62063 0.49794 0.00286 0.0
H1549 H 0.61481 0.53045 0.94315 0.0
H1550 H 0.64826 0.52368 0.0143 0.0
H1551 H 0.64222 0.55644 0.95468 0.0
H1552 H 0.70882 0.58349 0.97168 0.0
H1553 H 0.67976 0.55918 0.96076 0.0
H1554 H 0.65513 0.55948 0.02507 0.0
H1555 H 0.68458 0.58332 0.03613 0.0
C1556 C 0.62503 0.5108 0.99232 0.0
C1557 C 0.61558 0.51213 0.97208 0.0
C1558 C 0.64086 0.52558 0.99887 0.0
C1559 C 0.64756 0.54213 0.98539 0.0
C1560 C 0.63776 0.54369 0.96532 0.0
C1561 C 0.62201 0.52884 0.95872 0.0
C1562 C 0.69719 0.5784 0.98349 0.0
C1563 C 0.69908 0.58528 0.00481 0.0
C1564 C 0.68042 0.56456 0.97719 0.0
C1565 C 0.66506 0.55735 0.99202 0.0
C1566 C 0.66683 0.56445 0.01329 0.0
C1567 C 0.68367 0.57822 0.01962 0.0
H1568 H 0.20998 0.64649 0.20788 0.0
H1569 H 0.25429 0.61383 0.24651 0.0
H1570 H 0.18186 0.62054 0.21722 0.0
H1571 H 0.22602 0.58847 0.25655 0.0
H1572 H 0.17827 0.53288 0.24659 0.0
H1573 H 0.20567 0.56002 0.2393 0.0
H1574 H 0.15969 0.60745 0.24658 0.0
H1575 H 0.13205 0.58017 0.25347 0.0
C1576 C 0.21369 0.63386 0.21847 0.0
C1577 C 0.23442 0.6322 0.22637 0.0
C1578 C 0.19752 0.61912 0.22402 0.0
C1579 C 0.20171 0.60237 0.23756 0.0
C1580 C 0.22232 0.60101 0.24585 0.0
C1581 C 0.23847 0.61572 0.24031 0.0
C1582 C 0.17397 0.54909 0.2467 0.0
C1583 C 0.15294 0.55434 0.25058 0.0
C1584 C 0.18974 0.56468 0.24266 0.0
C1585 C 0.1849 0.58593 0.24242 0.0
C1586 C 0.1639 0.59122 0.24643 0.0
C1587 C 0.14808 0.57559 0.25049 0.0
H1588 H 0.91896 0.56264 0.98489 0.0
H1589 H 0.89514 0.52734 0.03908 0.0
H1590 H 0.88742 0.58306 0.98533 0.0
H1591 H 0.86341 0.54775 0.0394 0.0
H1592 H 0.80022 0.57535 0.01761 0.0
H1593 H 0.83131 0.55406 0.01817 0.0
H1594 H 0.8719 0.60961 0.00806 0.0
H1595 H 0.84092 0.63082 0.00722 0.0
C1596 C 0.90705 0.5593 0.99698 0.0
C1597 C 0.90968 0.54343 0.01205 0.0
C1598 C 0.88896 0.57103 0.99723 0.0
C1599 C 0.87298 0.56716 0.01251 0.0
C1600 C 0.87536 0.551 0.02731 0.0
C1601 C 0.89352 0.53928 0.0271 0.0
C1602 C 0.81579 0.58303 0.01561 0.0
C1603 C 0.81806 0.60478 0.01227 0.0
C1604 C 0.8336 0.57083 0.01602 0.0
C1605 C 0.85406 0.58012 0.01301 0.0
C1606 C 0.85633 0.60192 0.01008 0.0
C1607 C 0.83856 0.61411 0.00973 0.0
H1608 H 0.13127 0.01822 0.0184 0.0
H1609 H 0.10714 0.98155 0.07152 0.0
H1610 H 0.15377 0.98996 0.0082 0.0
H1611 H 0.12899 0.95286 0.06076 0.0
H1612 H 0.19121 0.9189 0.05105 0.0
H1613 H 0.16615 0.94523 0.06055 0.0
H1614 H 0.15318 0.95489 0.99371 0.0
H1615 H 0.17861 0.92893 0.9842 0.0
C1616 C 0.13067 0.00407 0.02784 0.0
C1617 C 0.1175 0.00223 0.04587 0.0
C1618 C 0.1434 0.98775 0.02184 0.0
C1619 C 0.14324 0.96912 0.03368 0.0
C1620 C 0.1297 0.96708 0.05143 0.0
C1621 C 0.11697 0.98343 0.05745 0.0
C1622 C 0.18292 0.92655 0.03838 0.0
C1623 C 0.18702 0.92189 0.01686 0.0
C1624 C 0.16844 0.94157 0.04383 0.0
C1625 C 0.15768 0.95225 0.02789 0.0
C1626 C 0.16143 0.94722 0.00639 0.0
C1627 C 0.17595 0.93224 0.00094 0.0
loop_
_geom_bond_atom_site_label_1
_geom_bond_atom_site_label_2
_geom_bond_distance
_geom_bond_site_symmetry_2
_ccdc_geom_bond_type
P0 O11 1.490 . S
P0 C14 1.812 . S
P0 C20 1.803 . S
P0 C26 1.819 . S
H1 C15 0.941 . S
H2 C16 0.939 . S
H3 C18 0.940 . S
H4 C19 0.940 . S
H5 C21 0.939 . S
H6 C22 0.942 . S
H7 C24 0.940 1_565 S
H8 C25 0.939 . S
H9 C27 0.941 . S
H10 C31 0.939 . S
O11 P0 1.490 . S
H12 C28 0.939 . S
H13 C30 0.940 1_556 S
C14 P0 1.812 . S
C14 C15 1.389 . S
C14 C19 1.391 . S
C15 H1 0.941 . S
C15 C14 1.389 . S
C15 C16 1.397 . S
C16 H2 0.939 . S
C16 C15 1.397 . S
C16 C17 1.378 1_455 S
C17 C16 1.378 1_655 S
C17 C18 1.378 . S
C18 H3 0.940 . S
C18 C17 1.378 . S
C18 C19 1.396 1_655 S
C19 H4 0.940 . S
C19 C14 1.391 . S
C19 C18 1.396 1_455 S
C20 P0 1.803 . S
C20 C21 1.378 . S
C20 C25 1.400 . S
C21 H5 0.939 . S
C21 C20 1.378 . S
C21 C22 1.361 . S
C22 H6 0.942 . S
C22 C21 1.361 . S
C22 C23 1.369 . S
C23 C22 1.369 . S
C23 C24 1.404 . S
C24 H7 0.940 1_545 S
C24 C23 1.404 . S
C24 C25 1.389 . S
C25 H8 0.939 . S
C25 C20 1.400 . S
C25 C24 1.389 . S
C26 P0 1.819 . S
C26 C27 1.391 . S
C26 C31 1.391 . S
C27 H9 0.941 . S
C27 C26 1.391 . S
C27 C28 1.396 . S
C28 H12 0.939 . S
C28 C27 1.396 . S
C28 C29 1.397 . S
C29 C28 1.397 . S
C29 C30 1.385 . S
C30 H13 0.940 1_554 S
C30 C29 1.385 . S
C30 C31 1.388 . S
C31 H10 0.939 . S
C31 C26 1.391 . S
C31 C30 1.388 . S
P32 O43 1.490 . S
P32 C46 1.812 . S
P32 C52 1.803 . S
P32 C58 1.819 . S
H33 C47 0.941 . S
H34 C48 0.939 . S
H35 C50 0.940 . S
H36 C51 0.940 . S
H37 C53 0.939 . S
H38 C54 0.942 . S
H39 C56 0.940 . S
H40 C57 0.939 . S
H41 C59 0.941 . S
H42 C63 0.939 . S
O43 P32 1.490 . S
H44 C60 0.939 . S
H45 C62 0.940 . S
C46 P32 1.812 . S
C46 C47 1.389 . S
C46 C51 1.391 . S
C47 H33 0.941 . S
C47 C46 1.389 . S
C47 C48 1.397 . S
C48 H34 0.939 . S
C48 C47 1.397 . S
C48 C49 1.378 . S
C49 C48 1.378 . S
C49 C50 1.378 . S
C50 H35 0.940 . S
C50 C49 1.378 . S
C50 C51 1.396 . S
C51 H36 0.940 . S
C51 C46 1.391 . S
C51 C50 1.396 . S
C52 P32 1.803 . S
C52 C53 1.378 . S
C52 C57 1.400 . S
C53 H37 0.939 . S
C53 C52 1.378 . S
C53 C54 1.361 . S
C54 H38 0.942 . S
C54 C53 1.361 . S
C54 C55 1.369 . S
C55 C54 1.369 . S
C55 C56 1.404 . S
C56 H39 0.940 . S
C56 C55 1.404 . S
C56 C57 1.389 . S
C57 H40 0.939 . S
C57 C52 1.400 . S
C57 C56 1.389 . S
C58 P32 1.819 . S
C58 C59 1.391 . S
C58 C63 1.391 . S
C59 H41 0.941 . S
C59 C58 1.391 . S
C59 C60 1.396 . S
C60 H44 0.939 . S
C60 C59 1.396 . S
C60 C61 1.397 . S
C61 C60 1.397 . S
C61 C62 1.385 . S
C62 H45 0.940 . S
C62 C61 1.385 . S
C62 C63 1.388 . S
C63 H42 0.939 . S
C63 C58 1.391 . S
C63 C62 1.388 . S
P64 O75 1.490 . S
P64 C78 1.812 . S
P64 C84 1.803 . S
P64 C90 1.819 . S
H65 C79 0.941 . S
H66 C80 0.939 . S
H67 C82 0.940 . S
H68 C83 0.940 . S
H69 C85 0.939 . S
H70 C86 0.942 . S
H71 C88 0.940 . S
H72 C89 0.939 . S
H73 C91 0.941 . S
H74 C95 0.939 . S
O75 P64 1.490 . S
H76 C92 0.939 . S
H77 C94 0.940 . S
C78 P64 1.812 . S
C78 C79 1.389 1_554 S
C78 C83 1.391 . S
C79 H65 0.941 . S
C79 C78 1.389 1_556 S
C79 C80 1.397 . S
C80 H66 0.939 . S
C80 C79 1.397 . S
C80 C81 1.378 . S
C81 C80 1.378 . S
C81 C82 1.378 1_556 S
C82 H67 0.940 . S
C82 C81 1.378 1_554 S
C82 C83 1.396 . S
C83 H68 0.940 . S
C83 C78 1.391 . S
C83 C82 1.396 . S
C84 P64 1.803 . S
C84 C85 1.378 . S
C84 C89 1.400 . S
C85 H69 0.939 . S
C85 C84 1.378 . S
C85 C86 1.361 . S
C86 H70 0.942 . S
C86 C85 1.361 . S
C86 C87 1.369 . S
C87 C86 1.369 . S
C87 C88 1.404 . S
C88 H71 0.940 . S
C88 C87 1.404 . S
C88 C89 1.389 . S
C89 H72 0.939 . S
C89 C84 1.400 . S
C89 C88 1.389 . S
C90 P64 1.819 . S
C90 C91 1.391 1_655 S
C90 C95 1.391 . S
C91 H73 0.941 . S
C91 C90 1.391 1_455 S
C91 C92 1.396 . S
C92 H76 0.939 . S
C92 C91 1.396 . S
C92 C93 1.397 . S
C93 C92 1.397 . S
C93 C94 1.385 1_455 S
C94 H77 0.940 . S
C94 C93 1.385 1_655 S
C94 C95 1.388 . S
C95 H74 0.939 . S
C95 C90 1.391 . S
C95 C94 1.388 . S
P96 O107 1.490 . S
P96 C110 1.812 . S
P96 C116 1.803 . S
P96 C122 1.819 . S
H97 C111 0.941 . S
H98 C112 0.939 . S
H99 C114 0.940 . S
H100 C115 0.940 . S
H101 C117 0.939 . S
H102 C118 0.942 . S
H103 C120 0.940 . S
H104 C121 0.939 . S
H105 C123 0.941 . S
H106 C127 0.939 . S
O107 P96 1.490 . S
H108 C124 0.939 . S
H109 C126 0.940 . S
C110 P96 1.812 . S
C110 C111 1.389 . S
C110 C115 1.391 . S
C111 H97 0.941 . S
C111 C110 1.389 . S
C111 C112 1.397 . S
C112 H98 0.939 . S
C112 C111 1.397 . S
C112 C113 1.378 . S
C113 C112 1.378 . S
C113 C114 1.378 . S
C114 H99 0.940 . S
C114 C113 1.378 . S
C114 C115 1.396 . S
C115 H100 0.940 . S
C115 C110 1.391 . S
C115 C114 1.396 . S
C116 P96 1.803 . S
C116 C117 1.378 . S
C116 C121 1.400 . S
C117 H101 0.939 . S
C117 C116 1.378 . S
C117 C118 1.361 . S
C118 H102 0.942 . S
C118 C117 1.361 . S
C118 C119 1.369 . S
C119 C118 1.369 . S
C119 C120 1.404 . S
C120 H103 0.940 . S
C120 C119 1.404 . S
C120 C121 1.389 . S
C121 H104 0.939 . S
C121 C116 1.400 . S
C121 C120 1.389 . S
C122 P96 1.819 . S
C122 C123 1.391 . S
C122 C127 1.391 . S
C123 H105 0.941 . S
C123 C122 1.391 . S
C123 C124 1.396 . S
C124 H108 0.939 . S
C124 C123 1.396 . S
C124 C125 1.397 . S
C125 C124 1.397 . S
C125 C126 1.385 . S
C126 H109 0.940 . S
C126 C125 1.385 . S
C126 C127 1.388 . S
C127 H106 0.939 . S
C127 C122 1.391 . S
C127 C126 1.388 . S
P128 O139 1.490 . S
P128 C142 1.812 . S
P128 C148 1.803 . S
P128 C154 1.819 . S
H129 C143 0.941 . S
H130 C144 0.939 . S
H131 C146 0.940 . S
H132 C147 0.940 . S
H133 C149 0.939 . S
H134 C150 0.942 . S
H135 C152 0.940 . S
H136 C153 0.939 . S
H137 C155 0.941 . S
H138 C159 0.939 . S
O139 P128 1.490 . S
H140 C156 0.939 . S
H141 C158 0.940 . S
C142 P128 1.812 . S
C142 C143 1.389 . S
C142 C147 1.391 . S
C143 H129 0.941 . S
C143 C142 1.389 . S
C143 C144 1.397 . S
C144 H130 0.939 . S
C144 C143 1.397 . S
C144 C145 1.378 1_565 S
C145 C144 1.378 1_545 S
C145 C146 1.378 . S
C146 H131 0.940 . S
C146 C145 1.378 . S
C146 C147 1.396 1_545 S
C147 H132 0.940 . S
C147 C142 1.391 . S
C147 C146 1.396 1_565 S
C148 P128 1.803 . S
C148 C149 1.378 . S
C148 C153 1.400 . S
C149 H133 0.939 . S
C149 C148 1.378 . S
C149 C150 1.361 . S
C150 H134 0.942 . S
C150 C149 1.361 . S
C150 C151 1.369 . S
C151 C150 1.369 . S
C151 C152 1.404 . S
C152 H135 0.940 . S
C152 C151 1.404 . S
C152 C153 1.389 . S
C153 H136 0.939 . S
C153 C148 1.400 . S
C153 C152 1.389 . S
C154 P128 1.819 . S
C154 C155 1.391 . S
C154 C159 1.391 . S
C155 H137 0.941 . S
C155 C154 1.391 . S
C155 C156 1.396 . S
C156 H140 0.939 . S
C156 C155 1.396 . S
C156 C157 1.397 1_455 S
C157 C156 1.397 1_655 S
C157 C158 1.385 . S
C158 H141 0.940 . S
C158 C157 1.385 . S
C158 C159 1.388 1_655 S
C159 H138 0.939 . S
C159 C154 1.391 . S
C159 C158 1.388 1_455 S
P160 O171 1.490 . S
P160 C174 1.812 . S
P160 C180 1.803 . S
P160 C186 1.819 . S
H161 C175 0.941 . S
H162 C176 0.939 . S
H163 C178 0.940 . S
H164 C179 0.940 . S
H165 C181 0.939 . S
H166 C182 0.942 . S
H167 C184 0.940 . S
H168 C185 0.939 . S
H169 C187 0.941 . S
H170 C191 0.939 . S
O171 P160 1.490 . S
H172 C188 0.939 . S
H173 C190 0.940 . S
C174 P160 1.812 . S
C174 C175 1.389 . S
C174 C179 1.391 . S
C175 H161 0.941 . S
C175 C174 1.389 . S
C175 C176 1.397 . S
C176 H162 0.939 . S
C176 C175 1.397 . S
C176 C177 1.378 . S
C177 C176 1.378 . S
C177 C178 1.378 . S
C178 H163 0.940 . S
C178 C177 1.378 . S
C178 C179 1.396 . S
C179 H164 0.940 . S
C179 C174 1.391 . S
C179 C178 1.396 . S
C180 P160 1.803 . S
C180 C181 1.378 . S
C180 C185 1.400 . S
C181 H165 0.939 . S
C181 C180 1.378 . S
C181 C182 1.361 . S
C182 H166 0.942 . S
C182 C181 1.361 . S
C182 C183 1.369 . S
C183 C182 1.369 . S
C183 C184 1.404 . S
C184 H167 0.940 . S
C184 C183 1.404 . S
C184 C185 1.389 . S
C185 H168 0.939 . S
C185 C180 1.400 . S
C185 C184 1.389 . S
C186 P160 1.819 . S
C186 C187 1.391 . S
C186 C191 1.391 . S
C187 H169 0.941 . S
C187 C186 1.391 . S
C187 C188 1.396 . S
C188 H172 0.939 . S
C188 C187 1.396 . S
C188 C189 1.397 . S
C189 C188 1.397 . S
C189 C190 1.385 . S
C190 H173 0.940 . S
C190 C189 1.385 . S
C190 C191 1.388 . S
C191 H170 0.939 . S
C191 C186 1.391 . S
C191 C190 1.388 . S
P192 O203 1.490 . S
P192 C206 1.812 . S
P192 C212 1.803 . S
P192 C218 1.819 . S
H193 C207 0.941 . S
H194 C208 0.939 . S
H195 C210 0.940 . S
H196 C211 0.940 . S
H197 C213 0.939 . S
H198 C214 0.942 . S
H199 C216 0.940 . S
H200 C217 0.939 . S
H201 C219 0.941 . S
H202 C223 0.939 . S
O203 P192 1.490 . S
H204 C220 0.939 . S
H205 C222 0.940 . S
C206 P192 1.812 . S
C206 C207 1.389 1_655 S
C206 C211 1.391 . S
C207 H193 0.941 . S
C207 C206 1.389 1_455 S
C207 C208 1.397 . S
C208 H194 0.939 . S
C208 C207 1.397 . S
C208 C209 1.378 . S
C209 C208 1.378 . S
C209 C210 1.378 1_455 S
C210 H195 0.940 . S
C210 C209 1.378 1_655 S
C210 C211 1.396 . S
C211 H196 0.940 . S
C211 C206 1.391 . S
C211 C210 1.396 . S
C212 P192 1.803 . S
C212 C213 1.378 . S
C212 C217 1.400 . S
C213 H197 0.939 . S
C213 C212 1.378 . S
C213 C214 1.361 . S
C214 H198 0.942 . S
C214 C213 1.361 . S
C214 C215 1.369 . S
C215 C214 1.369 . S
C215 C216 1.404 . S
C216 H199 0.940 . S
C216 C215 1.404 . S
C216 C217 1.389 . S
C217 H200 0.939 . S
C217 C212 1.400 . S
C217 C216 1.389 . S
C218 P192 1.819 . S
C218 C219 1.391 . S
C218 C223 1.391 . S
C219 H201 0.941 . S
C219 C218 1.391 . S
C219 C220 1.396 . S
C220 H204 0.939 . S
C220 C219 1.396 . S
C220 C221 1.397 . S
C221 C220 1.397 . S
C221 C222 1.385 . S
C222 H205 0.940 . S
C222 C221 1.385 . S
C222 C223 1.388 . S
C223 H202 0.939 . S
C223 C218 1.391 . S
C223 C222 1.388 . S
P224 O235 1.490 . S
P224 C238 1.812 . S
P224 C244 1.803 . S
P224 C250 1.819 . S
H225 C239 0.941 . S
H226 C240 0.939 . S
H227 C242 0.940 . S
H228 C243 0.940 . S
H229 C245 0.939 . S
H230 C246 0.942 . S
H231 C248 0.940 . S
H232 C249 0.939 . S
H233 C251 0.941 . S
H234 C255 0.939 . S
O235 P224 1.490 . S
H236 C252 0.939 . S
H237 C254 0.940 . S
C238 P224 1.812 . S
C238 C239 1.389 . S
C238 C243 1.391 . S
C239 H225 0.941 . S
C239 C238 1.389 . S
C239 C240 1.397 . S
C240 H226 0.939 . S
C240 C239 1.397 . S
C240 C241 1.378 . S
C241 C240 1.378 . S
C241 C242 1.378 . S
C242 H227 0.940 . S
C242 C241 1.378 . S
C242 C243 1.396 . S
C243 H228 0.940 . S
C243 C238 1.391 . S
C243 C242 1.396 . S
C244 P224 1.803 . S
C244 C245 1.378 . S
C244 C249 1.400 . S
C245 H229 0.939 . S
C245 C244 1.378 . S
C245 C246 1.361 . S
C246 H230 0.942 . S
C246 C245 1.361 . S
C246 C247 1.369 . S
C247 C246 1.369 . S
C247 C248 1.404 . S
C248 H231 0.940 . S
C248 C247 1.404 . S
C248 C249 1.389 . S
C249 H232 0.939 . S
C249 C244 1.400 . S
C249 C248 1.389 . S
C250 P224 1.819 . S
C250 C251 1.391 . S
C250 C255 1.391 . S
C251 H233 0.941 . S
C251 C250 1.391 . S
C251 C252 1.396 . S
C252 H236 0.939 . S
C252 C251 1.396 . S
C252 C253 1.397 . S
C253 C252 1.397 . S
C253 C254 1.385 . S
C254 H237 0.940 . S
C254 C253 1.385 . S
C254 C255 1.388 . S
C255 H234 0.939 . S
C255 C250 1.391 . S
C255 C254 1.388 . S
P256 O267 1.490 . S
P256 C270 1.812 . S
P256 C276 1.803 . S
P256 C282 1.819 . S
H257 C271 0.941 . S
H258 C272 0.939 . S
H259 C274 0.940 . S
H260 C275 0.940 . S
H261 C277 0.939 . S
H262 C278 0.942 . S
H263 C280 0.940 . S
H264 C281 0.939 . S
H265 C283 0.941 . S
H266 C287 0.939 . S
O267 P256 1.490 . S
H268 C284 0.939 . S
H269 C286 0.940 . S
C270 P256 1.812 . S
C270 C271 1.389 . S
C270 C275 1.391 . S
C271 H257 0.941 . S
C271 C270 1.389 . S
C271 C272 1.397 . S
C272 H258 0.939 . S
C272 C271 1.397 . S
C272 C273 1.378 . S
C273 C272 1.378 . S
C273 C274 1.378 . S
C274 H259 0.940 . S
C274 C273 1.378 . S
C274 C275 1.396 . S
C275 H260 0.940 . S
C275 C270 1.391 . S
C275 C274 1.396 . S
C276 P256 1.803 . S
C276 C277 1.378 . S
C276 C281 1.400 . S
C277 H261 0.939 . S
C277 C276 1.378 . S
C277 C278 1.361 . S
C278 H262 0.942 . S
C278 C277 1.361 . S
C278 C279 1.369 . S
C279 C278 1.369 . S
C279 C280 1.404 . S
C280 H263 0.940 . S
C280 C279 1.404 . S
C280 C281 1.389 . S
C281 H264 0.939 . S
C281 C276 1.400 . S
C281 C280 1.389 . S
C282 P256 1.819 . S
C282 C283 1.391 . S
C282 C287 1.391 . S
C283 H265 0.941 . S
C283 C282 1.391 . S
C283 C284 1.396 . S
C284 H268 0.939 . S
C284 C283 1.396 . S
C284 C285 1.397 . S
C285 C284 1.397 . S
C285 C286 1.385 . S
C286 H269 0.940 . S
C286 C285 1.385 . S
C286 C287 1.388 . S
C287 H266 0.939 . S
C287 C282 1.391 . S
C287 C286 1.388 . S
P288 O299 1.490 . S
P288 C302 1.812 . S
P288 C308 1.803 . S
P288 C314 1.819 . S
H289 C303 0.941 . S
H290 C304 0.939 . S
H291 C306 0.940 . S
H292 C307 0.940 . S
H293 C309 0.939 . S
H294 C310 0.942 . S
H295 C312 0.940 . S
H296 C313 0.939 . S
H297 C315 0.941 . S
H298 C319 0.939 . S
O299 P288 1.490 . S
H300 C316 0.939 . S
H301 C318 0.940 . S
C302 P288 1.812 . S
C302 C303 1.389 . S
C302 C307 1.391 . S
C303 H289 0.941 . S
C303 C302 1.389 . S
C303 C304 1.397 . S
C304 H290 0.939 . S
C304 C303 1.397 . S
C304 C305 1.378 . S
C305 C304 1.378 . S
C305 C306 1.378 . S
C306 H291 0.940 . S
C306 C305 1.378 . S
C306 C307 1.396 . S
C307 H292 0.940 . S
C307 C302 1.391 . S
C307 C306 1.396 . S
C308 P288 1.803 . S
C308 C309 1.378 1_565 S
C308 C313 1.400 . S
C309 H293 0.939 . S
C309 C308 1.378 1_545 S
C309 C310 1.361 . S
C310 H294 0.942 . S
C310 C309 1.361 . S
C310 C311 1.369 . S
C311 C310 1.369 . S
C311 C312 1.404 1_545 S
C312 H295 0.940 . S
C312 C311 1.404 1_565 S
C312 C313 1.389 . S
C313 H296 0.939 . S
C313 C308 1.400 . S
C313 C312 1.389 . S
C314 P288 1.819 . S
C314 C315 1.391 . S
C314 C319 1.391 . S
C315 H297 0.941 . S
C315 C314 1.391 . S
C315 C316 1.396 . S
C316 H300 0.939 . S
C316 C315 1.396 . S
C316 C317 1.397 . S
C317 C316 1.397 . S
C317 C318 1.385 . S
C318 H301 0.940 . S
C318 C317 1.385 . S
C318 C319 1.388 . S
C319 H298 0.939 . S
C319 C314 1.391 . S
C319 C318 1.388 . S
P320 O331 1.490 . S
P320 C334 1.812 . S
P320 C340 1.803 . S
P320 C346 1.819 . S
H321 C335 0.941 . S
H322 C336 0.939 . S
H323 C338 0.940 . S
H324 C339 0.940 . S
H325 C341 0.939 . S
H326 C342 0.942 . S
H327 C344 0.940 . S
H328 C345 0.939 . S
H329 C347 0.941 . S
H330 C351 0.939 . S
O331 P320 1.490 . S
H332 C348 0.939 . S
H333 C350 0.940 . S
C334 P320 1.812 . S
C334 C335 1.389 . S
C334 C339 1.391 . S
C335 H321 0.941 . S
C335 C334 1.389 . S
C335 C336 1.397 . S
C336 H322 0.939 . S
C336 C335 1.397 . S
C336 C337 1.378 . S
C337 C336 1.378 . S
C337 C338 1.378 . S
C338 H323 0.940 . S
C338 C337 1.378 . S
C338 C339 1.396 . S
C339 H324 0.940 . S
C339 C334 1.391 . S
C339 C338 1.396 . S
C340 P320 1.803 . S
C340 C341 1.378 . S
C340 C345 1.400 . S
C341 H325 0.939 . S
C341 C340 1.378 . S
C341 C342 1.361 . S
C342 H326 0.942 . S
C342 C341 1.361 . S
C342 C343 1.369 . S
C343 C342 1.369 . S
C343 C344 1.404 . S
C344 H327 0.940 . S
C344 C343 1.404 . S
C344 C345 1.389 . S
C345 H328 0.939 . S
C345 C340 1.400 . S
C345 C344 1.389 . S
C346 P320 1.819 . S
C346 C347 1.391 . S
C346 C351 1.391 . S
C347 H329 0.941 . S
C347 C346 1.391 . S
C347 C348 1.396 . S
C348 H332 0.939 . S
C348 C347 1.396 . S
C348 C349 1.397 . S
C349 C348 1.397 . S
C349 C350 1.385 . S
C350 H333 0.940 . S
C350 C349 1.385 . S
C350 C351 1.388 . S
C351 H330 0.939 . S
C351 C346 1.391 . S
C351 C350 1.388 . S
P352 O363 1.490 . S
P352 C366 1.812 . S
P352 C372 1.803 . S
P352 C378 1.819 . S
H353 C367 0.941 . S
H354 C368 0.939 . S
H355 C370 0.940 . S
H356 C371 0.940 . S
H357 C373 0.939 . S
H358 C374 0.942 . S
H359 C376 0.940 . S
H360 C377 0.939 . S
H361 C379 0.941 . S
H362 C383 0.939 . S
O363 P352 1.490 . S
H364 C380 0.939 . S
H365 C382 0.940 . S
C366 P352 1.812 . S
C366 C367 1.389 . S
C366 C371 1.391 . S
C367 H353 0.941 . S
C367 C366 1.389 . S
C367 C368 1.397 . S
C368 H354 0.939 . S
C368 C367 1.397 . S
C368 C369 1.378 . S
C369 C368 1.378 . S
C369 C370 1.378 . S
C370 H355 0.940 . S
C370 C369 1.378 . S
C370 C371 1.396 . S
C371 H356 0.940 . S
C371 C366 1.391 . S
C371 C370 1.396 . S
C372 P352 1.803 . S
C372 C373 1.378 . S
C372 C377 1.400 . S
C373 H357 0.939 . S
C373 C372 1.378 . S
C373 C374 1.361 . S
C374 H358 0.942 . S
C374 C373 1.361 . S
C374 C375 1.369 . S
C375 C374 1.369 . S
C375 C376 1.404 . S
C376 H359 0.940 . S
C376 C375 1.404 . S
C376 C377 1.389 . S
C377 H360 0.939 . S
C377 C372 1.400 . S
C377 C376 1.389 . S
C378 P352 1.819 . S
C378 C379 1.391 . S
C378 C383 1.391 . S
C379 H361 0.941 . S
C379 C378 1.391 . S
C379 C380 1.396 . S
C380 H364 0.939 . S
C380 C379 1.396 . S
C380 C381 1.397 . S
C381 C380 1.397 . S
C381 C382 1.385 . S
C382 H365 0.940 . S
C382 C381 1.385 . S
C382 C383 1.388 . S
C383 H362 0.939 . S
C383 C378 1.391 . S
C383 C382 1.388 . S
P384 O395 1.490 . S
P384 C398 1.812 . S
P384 C404 1.803 . S
P384 C410 1.819 . S
H385 C399 0.941 . S
H386 C400 0.939 . S
H387 C402 0.940 . S
H388 C403 0.940 . S
H389 C405 0.939 . S
H390 C406 0.942 . S
H391 C408 0.940 . S
H392 C409 0.939 . S
H393 C411 0.941 . S
H394 C415 0.939 . S
O395 P384 1.490 . S
H396 C412 0.939 . S
H397 C414 0.940 . S
C398 P384 1.812 . S
C398 C399 1.389 . S
C398 C403 1.391 . S
C399 H385 0.941 . S
C399 C398 1.389 . S
C399 C400 1.397 . S
C400 H386 0.939 . S
C400 C399 1.397 . S
C400 C401 1.378 . S
C401 C400 1.378 . S
C401 C402 1.378 . S
C402 H387 0.940 . S
C402 C401 1.378 . S
C402 C403 1.396 . S
C403 H388 0.940 . S
C403 C398 1.391 . S
C403 C402 1.396 . S
C404 P384 1.803 . S
C404 C405 1.378 . S
C404 C409 1.400 . S
C405 H389 0.939 . S
C405 C404 1.378 . S
C405 C406 1.361 . S
C406 H390 0.942 . S
C406 C405 1.361 . S
C406 C407 1.369 . S
C407 C406 1.369 . S
C407 C408 1.404 . S
C408 H391 0.940 . S
C408 C407 1.404 . S
C408 C409 1.389 . S
C409 H392 0.939 . S
C409 C404 1.400 . S
C409 C408 1.389 . S
C410 P384 1.819 . S
C410 C411 1.391 . S
C410 C415 1.391 . S
C411 H393 0.941 . S
C411 C410 1.391 . S
C411 C412 1.396 . S
C412 H396 0.939 . S
C412 C411 1.396 . S
C412 C413 1.397 . S
C413 C412 1.397 . S
C413 C414 1.385 . S
C414 H397 0.940 . S
C414 C413 1.385 . S
C414 C415 1.388 . S
C415 H394 0.939 . S
C415 C410 1.391 . S
C415 C414 1.388 . S
P416 O427 1.490 . S
P416 C430 1.812 . S
P416 C436 1.803 . S
P416 C442 1.819 . S
H417 C431 0.941 . S
H418 C432 0.939 . S
H419 C434 0.940 . S
H420 C435 0.940 . S
H421 C437 0.939 . S
H422 C438 0.942 . S
H423 C440 0.940 . S
H424 C441 0.939 . S
H425 C443 0.941 . S
H426 C447 0.939 . S
O427 P416 1.490 . S
H428 C444 0.939 . S
H429 C446 0.940 . S
C430 P416 1.812 . S
C430 C431 1.389 . S
C430 C435 1.391 . S
C431 H417 0.941 . S
C431 C430 1.389 . S
C431 C432 1.397 . S
C432 H418 0.939 . S
C432 C431 1.397 . S
C432 C433 1.378 . S
C433 C432 1.378 . S
C433 C434 1.378 . S
C434 H419 0.940 . S
C434 C433 1.378 . S
C434 C435 1.396 . S
C435 H420 0.940 . S
C435 C430 1.391 . S
C435 C434 1.396 . S
C436 P416 1.803 . S
C436 C437 1.378 . S
C436 C441 1.400 . S
C437 H421 0.939 . S
C437 C436 1.378 . S
C437 C438 1.361 . S
C438 H422 0.942 . S
C438 C437 1.361 . S
C438 C439 1.369 1_556 S
C439 C438 1.369 1_554 S
C439 C440 1.404 . S
C440 H423 0.940 . S
C440 C439 1.404 . S
C440 C441 1.389 1_554 S
C441 H424 0.939 . S
C441 C436 1.400 . S
C441 C440 1.389 1_556 S
C442 P416 1.819 . S
C442 C443 1.391 . S
C442 C447 1.391 . S
C443 H425 0.941 . S
C443 C442 1.391 . S
C443 C444 1.396 . S
C444 H428 0.939 . S
C444 C443 1.396 . S
C444 C445 1.397 . S
C445 C444 1.397 . S
C445 C446 1.385 . S
C446 H429 0.940 . S
C446 C445 1.385 . S
C446 C447 1.388 . S
C447 H426 0.939 . S
C447 C442 1.391 . S
C447 C446 1.388 . S
P448 O459 1.490 . S
P448 C462 1.812 . S
P448 C468 1.803 . S
P448 C474 1.819 . S
H449 C463 0.941 . S
H450 C464 0.939 . S
H451 C466 0.940 . S
H452 C467 0.940 . S
H453 C469 0.939 . S
H454 C470 0.942 . S
H455 C472 0.940 . S
H456 C473 0.939 . S
H457 C475 0.941 . S
H458 C479 0.939 . S
O459 P448 1.490 . S
H460 C476 0.939 . S
H461 C478 0.940 . S
C462 P448 1.812 . S
C462 C463 1.389 . S
C462 C467 1.391 . S
C463 H449 0.941 . S
C463 C462 1.389 . S
C463 C464 1.397 . S
C464 H450 0.939 . S
C464 C463 1.397 . S
C464 C465 1.378 . S
C465 C464 1.378 . S
C465 C466 1.378 . S
C466 H451 0.940 . S
C466 C465 1.378 . S
C466 C467 1.396 . S
C467 H452 0.940 . S
C467 C462 1.391 . S
C467 C466 1.396 . S
C468 P448 1.803 . S
C468 C469 1.378 . S
C468 C473 1.400 . S
C469 H453 0.939 . S
C469 C468 1.378 . S
C469 C470 1.361 . S
C470 H454 0.942 . S
C470 C469 1.361 . S
C470 C471 1.369 . S
C471 C470 1.369 . S
C471 C472 1.404 . S
C472 H455 0.940 . S
C472 C471 1.404 . S
C472 C473 1.389 . S
C473 H456 0.939 . S
C473 C468 1.400 . S
C473 C472 1.389 . S
C474 P448 1.819 . S
C474 C475 1.391 . S
C474 C479 1.391 . S
C475 H457 0.941 . S
C475 C474 1.391 . S
C475 C476 1.396 . S
C476 H460 0.939 . S
C476 C475 1.396 . S
C476 C477 1.397 . S
C477 C476 1.397 . S
C477 C478 1.385 . S
C478 H461 0.940 . S
C478 C477 1.385 . S
C478 C479 1.388 . S
C479 H458 0.939 . S
C479 C474 1.391 . S
C479 C478 1.388 . S
P480 O491 1.490 1_556 S
P480 C494 1.812 . S
P480 C500 1.803 . S
P480 C506 1.819 . S
H481 C495 0.941 . S
H482 C496 0.939 . S
H483 C498 0.940 . S
H484 C499 0.940 . S
H485 C501 0.939 . S
H486 C502 0.942 . S
H487 C504 0.940 . S
H488 C505 0.939 . S
H489 C507 0.941 . S
H490 C511 0.939 . S
O491 P480 1.490 1_554 S
H492 C508 0.939 . S
H493 C510 0.940 . S
C494 P480 1.812 . S
C494 C495 1.389 . S
C494 C499 1.391 . S
C495 H481 0.941 . S
C495 C494 1.389 . S
C495 C496 1.397 . S
C496 H482 0.939 . S
C496 C495 1.397 . S
C496 C497 1.378 . S
C497 C496 1.378 . S
C497 C498 1.378 . S
C498 H483 0.940 . S
C498 C497 1.378 . S
C498 C499 1.396 . S
C499 H484 0.940 . S
C499 C494 1.391 . S
C499 C498 1.396 . S
C500 P480 1.803 . S
C500 C501 1.378 1_556 S
C500 C505 1.400 . S
C501 H485 0.939 . S
C501 C500 1.378 1_554 S
C501 C502 1.361 . S
C502 H486 0.942 . S
C502 C501 1.361 . S
C502 C503 1.369 . S
C503 C502 1.369 . S
C503 C504 1.404 1_554 S
C504 H487 0.940 . S
C504 C503 1.404 1_556 S
C504 C505 1.389 . S
C505 H488 0.939 . S
C505 C500 1.400 . S
C505 C504 1.389 . S
C506 P480 1.819 . S
C506 C507 1.391 1_545 S
C506 C511 1.391 . S
C507 H489 0.941 . S
C507 C506 1.391 1_565 S
C507 C508 1.396 . S
C508 H492 0.939 . S
C508 C507 1.396 . S
C508 C509 1.397 . S
C509 C508 1.397 . S
C509 C510 1.385 1_565 S
C510 H493 0.940 . S
C510 C509 1.385 1_545 S
C510 C511 1.388 . S
C511 H490 0.939 . S
C511 C506 1.391 . S
C511 C510 1.388 . S
C512 O513 1.160 1_554 S
C512 O519 1.185 . S
O513 C512 1.160 1_556 S
O514 Zn515 1.899 1_556 S
O514 C522 1.284 . S
Zn515 O514 1.899 1_554 S
Zn515 O516 2.032 . S
Zn515 O519 2.086 . S
Zn515 O524 1.977 . S
O516 Zn515 2.032 . S
O516 C520 1.278 . S
C517 O518 1.203 . S
C517 O524 1.267 . S
O518 C517 1.203 . S
O519 C512 1.185 . S
O519 Zn515 2.086 . S
C520 O516 1.278 . S
C520 O521 1.211 . S
O521 C520 1.211 . S
C522 O514 1.284 . S
C522 O523 1.273 . S
O523 C522 1.273 . S
O524 Zn515 1.977 . S
O524 C517 1.267 . S
C525 O526 1.160 . S
C525 O532 1.185 . S
O526 C525 1.160 . S
O527 Zn528 1.899 . S
O527 C535 1.284 . S
Zn528 O527 1.899 . S
Zn528 O529 2.032 . S
Zn528 O532 2.086 . S
Zn528 O537 1.977 . S
O529 Zn528 2.032 . S
O529 C533 1.278 . S
C530 O531 1.203 . S
C530 O537 1.267 . S
O531 C530 1.203 . S
O532 C525 1.185 . S
O532 Zn528 2.086 . S
C533 O529 1.278 . S
C533 O534 1.211 . S
O534 C533 1.211 . S
C535 O527 1.284 . S
C535 O536 1.273 . S
O536 C535 1.273 . S
O537 Zn528 1.977 . S
O537 C530 1.267 . S
C538 O539 1.160 1_554 S
C538 O545 1.185 . S
O539 C538 1.160 1_556 S
O540 Zn541 1.899 1_556 S
O540 C548 1.284 . S
Zn541 O540 1.899 1_554 S
Zn541 O542 2.032 1_554 S
Zn541 O545 2.086 . S
Zn541 O550 1.977 . S
O542 Zn541 2.032 1_556 S
O542 C546 1.281 . S
C543 O544 1.203 . S
C543 O550 1.267 . S
O544 C543 1.203 . S
O545 C538 1.185 . S
O545 Zn541 2.086 . S
C546 O542 1.281 . S
C546 O547 1.202 1_556 S
O547 C546 1.202 1_554 S
C548 O540 1.284 . S
C548 O549 1.273 . S
O549 C548 1.273 . S
O550 Zn541 1.977 . S
O550 C543 1.267 . S
C551 O552 1.160 . S
C551 O558 1.185 . S
O552 C551 1.160 . S
O553 Zn554 1.899 . S
O553 C561 1.284 . S
Zn554 O553 1.899 . S
Zn554 O555 2.032 1_545 S
Zn554 O558 2.086 . S
Zn554 O563 1.977 . S
O555 Zn554 2.032 1_565 S
O555 C559 1.278 . S
C556 O557 1.203 . S
C556 O563 1.267 . S
O557 C556 1.203 . S
O558 C551 1.185 . S
O558 Zn554 2.086 . S
C559 O555 1.278 . S
C559 O560 1.211 . S
O560 C559 1.211 . S
C561 O553 1.284 . S
C561 O562 1.273 1_545 S
O562 C561 1.273 1_565 S
O563 Zn554 1.977 . S
O563 C556 1.267 . S
C564 O565 1.160 . S
C564 O571 1.185 . S
O565 C564 1.160 . S
O566 Zn567 1.899 . S
O566 C574 1.284 . S
Zn567 O566 1.899 . S
Zn567 O568 2.032 . S
Zn567 O571 2.086 . S
Zn567 O576 1.977 . S
O568 Zn567 2.032 . S
O568 C572 1.278 . S
C569 O570 1.203 . S
C569 O576 1.267 . S
O570 C569 1.203 . S
O571 C564 1.185 . S
O571 Zn567 2.086 . S
C572 O568 1.278 . S
C572 O573 1.211 . S
O573 C572 1.211 . S
C574 O566 1.284 . S
C574 O575 1.273 . S
O575 C574 1.273 . S
O576 Zn567 1.977 . S
O576 C569 1.267 . S
C577 O578 1.160 . S
C577 O584 1.185 . S
O578 C577 1.160 . S
O579 Zn580 1.899 . S
O579 C587 1.284 . S
Zn580 O579 1.899 . S
Zn580 O581 2.032 . S
Zn580 O584 2.086 . S
Zn580 O589 1.977 . S
O581 Zn580 2.032 . S
O581 C585 1.278 . S
C582 O583 1.203 . S
C582 O589 1.267 . S
O583 C582 1.203 . S
O584 C577 1.185 . S
O584 Zn580 2.086 . S
C585 O581 1.278 . S
C585 O586 1.211 . S
O586 C585 1.211 . S
C587 O579 1.284 . S
C587 O588 1.273 . S
O588 C587 1.273 . S
O589 Zn580 1.977 . S
O589 C582 1.267 . S
C590 O591 1.160 . S
C590 O597 1.185 . S
O591 C590 1.160 . S
O592 Zn593 1.899 . S
O592 C600 1.284 . S
Zn593 O592 1.899 . S
Zn593 O594 2.032 . S
Zn593 O597 2.086 . S
Zn593 O602 1.977 . S
O594 Zn593 2.032 . S
O594 C598 1.278 . S
C595 O596 1.203 . S
C595 O602 1.267 . S
O596 C595 1.203 . S
O597 C590 1.185 . S
O597 Zn593 2.086 . S
C598 O594 1.278 . S
C598 O599 1.211 . S
O599 C598 1.211 . S
C600 O592 1.284 . S
C600 O601 1.273 . S
O601 C600 1.273 . S
O602 Zn593 1.977 . S
O602 C595 1.267 . S
C603 O604 1.160 . S
C603 O610 1.185 . S
O604 C603 1.160 . S
O605 Zn606 1.899 . S
O605 C613 1.284 1_565 S
Zn606 O605 1.899 . S
Zn606 O607 2.032 1_565 S
Zn606 O610 2.086 . S
Zn606 O615 1.977 . S
O607 Zn606 2.032 1_545 S
O607 C611 1.278 . S
C608 O609 1.203 1_565 S
C608 O615 1.267 . S
O609 C608 1.203 1_545 S
O610 C603 1.185 . S
O610 Zn606 2.086 . S
C611 O607 1.278 . S
C611 O612 1.211 . S
O612 C611 1.211 . S
C613 O605 1.284 1_545 S
C613 O614 1.273 . S
O614 C613 1.273 . S
O615 Zn606 1.977 . S
O615 C608 1.267 . S
C616 O617 1.160 1_455 S
C616 O623 1.185 . S
O617 C616 1.160 1_655 S
O618 Zn619 1.899 1_655 S
O618 C626 1.284 . S
Zn619 O618 1.899 1_455 S
Zn619 O620 2.044 . S
Zn619 O623 2.086 . S
Zn619 O628 1.977 . S
O620 Zn619 2.044 . S
O620 C624 1.282 . S
C621 O622 1.203 . S
C621 O628 1.267 . S
O622 C621 1.203 . S
O623 C616 1.185 . S
O623 Zn619 2.086 . S
C624 O620 1.282 . S
C624 O625 1.211 . S
O625 C624 1.211 . S
C626 O618 1.284 . S
C626 O627 1.273 . S
O627 C626 1.273 . S
O628 Zn619 1.977 . S
O628 C621 1.267 . S
C629 O630 1.160 . S
C629 O636 1.185 . S
O630 C629 1.160 . S
O631 Zn632 1.899 . S
O631 C639 1.284 . S
Zn632 O631 1.899 . S
Zn632 O633 2.032 . S
Zn632 O636 2.086 . S
Zn632 O641 1.977 . S
O633 Zn632 2.032 . S
O633 C637 1.278 . S
C634 O635 1.203 . S
C634 O641 1.267 . S
O635 C634 1.203 . S
O636 C629 1.185 . S
O636 Zn632 2.086 . S
C637 O633 1.278 . S
C637 O638 1.211 . S
O638 C637 1.211 . S
C639 O631 1.284 . S
C639 O640 1.273 . S
O640 C639 1.273 . S
O641 Zn632 1.977 . S
O641 C634 1.267 . S
C642 O643 1.160 1_455 S
C642 O649 1.185 . S
O643 C642 1.160 1_655 S
O644 Zn645 1.899 1_655 S
O644 C652 1.284 . S
Zn645 O644 1.899 1_455 S
Zn645 O646 2.032 1_455 S
Zn645 O649 2.086 . S
Zn645 O654 1.977 . S
O646 Zn645 2.032 1_655 S
O646 C650 1.278 . S
C647 O648 1.203 . S
C647 O654 1.267 . S
O648 C647 1.203 . S
O649 C642 1.185 . S
O649 Zn645 2.086 . S
C650 O646 1.278 . S
C650 O651 1.211 1_655 S
O651 C650 1.211 1_455 S
C652 O644 1.284 . S
C652 O653 1.273 . S
O653 C652 1.273 . S
O654 Zn645 1.977 . S
O654 C647 1.267 . S
C655 O656 1.160 . S
C655 O662 1.185 . S
O656 C655 1.160 . S
O657 Zn658 1.899 . S
O657 C665 1.284 . S
Zn658 O657 1.899 . S
Zn658 O659 2.032 . S
Zn658 O662 2.086 . S
Zn658 O667 1.977 . S
O659 Zn658 2.032 . S
O659 C663 1.278 . S
C660 O661 1.203 . S
C660 O667 1.267 . S
O661 C660 1.203 . S
O662 C655 1.185 . S
O662 Zn658 2.086 . S
C663 O659 1.278 . S
C663 O664 1.211 . S
O664 C663 1.211 . S
C665 O657 1.284 . S
C665 O666 1.273 . S
O666 C665 1.273 . S
O667 Zn658 1.977 . S
O667 C660 1.267 . S
H668 C676 0.950 . S
H669 C681 0.950 . S
H670 C678 0.950 . S
H671 C680 0.950 . S
H672 C682 0.950 . S
H673 C684 0.950 . S
H674 C686 0.950 . S
H675 C687 0.950 . S
C676 H668 0.950 . S
C676 C677 1.386 . S
C676 C678 1.391 . S
C677 C676 1.386 . S
C677 C681 1.393 . S
C678 H670 0.950 . S
C678 C676 1.391 . S
C678 C679 1.400 . S
C679 C678 1.400 . S
C679 C680 1.398 . S
C679 C685 1.491 . S
C680 H671 0.950 . S
C680 C679 1.398 . S
C680 C681 1.391 . S
C681 H669 0.950 . S
C681 C677 1.393 . S
C681 C680 1.391 . S
C682 H672 0.950 . S
C682 C683 1.386 . S
C682 C684 1.391 . S
C683 C682 1.386 . S
C683 C687 1.393 . S
C684 H673 0.950 . S
C684 C682 1.391 . S
C684 C685 1.400 . S
C685 C679 1.491 . S
C685 C684 1.400 . S
C685 C686 1.398 . S
C686 H674 0.950 . S
C686 C685 1.398 . S
C686 C687 1.391 . S
C687 H675 0.950 . S
C687 C683 1.393 . S
C687 C686 1.391 . S
H688 C696 0.950 1_655 S
H689 C701 0.950 . S
H690 C698 0.950 . S
H691 C700 0.950 . S
H692 C702 0.950 . S
H693 C704 0.950 . S
H694 C706 0.950 . S
H695 C707 0.950 . S
C696 H688 0.950 1_455 S
C696 C697 1.386 . S
C696 C698 1.391 . S
C697 C696 1.386 . S
C697 C701 1.393 . S
C698 H690 0.950 . S
C698 C696 1.391 . S
C698 C699 1.400 . S
C699 C698 1.400 . S
C699 C700 1.398 . S
C699 C705 1.491 . S
C700 H691 0.950 . S
C700 C699 1.398 . S
C700 C701 1.391 . S
C701 H689 0.950 . S
C701 C697 1.393 . S
C701 C700 1.391 . S
C702 H692 0.950 . S
C702 C703 1.386 . S
C702 C704 1.391 . S
C703 C702 1.386 . S
C703 C707 1.393 . S
C704 H693 0.950 . S
C704 C702 1.391 . S
C704 C705 1.400 . S
C705 C699 1.491 . S
C705 C704 1.400 . S
C705 C706 1.398 . S
C706 H694 0.950 . S
C706 C705 1.398 . S
C706 C707 1.391 . S
C707 H695 0.950 . S
C707 C703 1.393 . S
C707 C706 1.391 . S
H708 C716 0.950 . S
H709 C721 0.950 . S
H710 C718 0.950 . S
H711 C720 0.950 . S
H712 C722 0.950 . S
H713 C724 0.950 . S
H714 C726 0.950 . S
H715 C727 0.950 . S
C716 H708 0.950 . S
C716 C717 1.386 . S
C716 C718 1.391 . S
C717 C716 1.386 . S
C717 C721 1.393 . S
C718 H710 0.950 . S
C718 C716 1.391 . S
C718 C719 1.400 . S
C719 C718 1.400 . S
C719 C720 1.398 . S
C719 C725 1.491 . S
C720 H711 0.950 . S
C720 C719 1.398 . S
C720 C721 1.391 . S
C721 H709 0.950 . S
C721 C717 1.393 . S
C721 C720 1.391 . S
C722 H712 0.950 . S
C722 C723 1.386 . S
C722 C724 1.391 . S
C723 C722 1.386 . S
C723 C727 1.393 . S
C724 H713 0.950 . S
C724 C722 1.391 . S
C724 C725 1.400 . S
C725 C719 1.491 . S
C725 C724 1.400 . S
C725 C726 1.398 . S
C726 H714 0.950 . S
C726 C725 1.398 . S
C726 C727 1.391 . S
C727 H715 0.950 . S
C727 C723 1.393 . S
C727 C726 1.391 . S
H728 C736 0.949 1_545 S
H729 C741 0.950 . S
H730 C738 0.950 . S
H731 C740 0.950 . S
H732 C742 0.950 . S
H733 C744 0.950 . S
H734 C746 0.950 . S
H735 C747 0.950 . S
C736 H728 0.949 1_565 S
C736 C737 1.386 . S
C736 C738 1.391 1_565 S
C737 C736 1.386 . S
C737 C741 1.393 . S
C738 H730 0.950 . S
C738 C736 1.391 1_545 S
C738 C739 1.400 1_545 S
C739 C738 1.400 1_565 S
C739 C740 1.398 . S
C739 C745 1.491 . S
C740 H731 0.950 . S
C740 C739 1.398 . S
C740 C741 1.391 . S
C741 H729 0.950 . S
C741 C737 1.393 . S
C741 C740 1.391 . S
C742 H732 0.950 . S
C742 C743 1.386 1_565 S
C742 C744 1.391 . S
C743 C742 1.386 1_545 S
C743 C747 1.393 . S
C744 H733 0.950 . S
C744 C742 1.391 . S
C744 C745 1.400 . S
C745 C739 1.491 . S
C745 C744 1.400 . S
C745 C746 1.398 1_565 S
C746 H734 0.950 . S
C746 C745 1.398 1_545 S
C746 C747 1.391 . S
C747 H735 0.950 . S
C747 C743 1.393 . S
C747 C746 1.391 . S
H748 C756 0.950 . S
H749 C761 0.950 . S
H750 C758 0.950 . S
H751 C760 0.950 . S
H752 C762 0.950 . S
H753 C764 0.950 . S
H754 C766 0.950 . S
H755 C767 0.950 . S
C756 H748 0.950 . S
C756 C757 1.386 . S
C756 C758 1.391 . S
C757 C756 1.386 . S
C757 C761 1.393 . S
C758 H750 0.950 . S
C758 C756 1.391 . S
C758 C759 1.400 . S
C759 C758 1.400 . S
C759 C760 1.398 . S
C759 C765 1.491 . S
C760 H751 0.950 . S
C760 C759 1.398 . S
C760 C761 1.391 . S
C761 H749 0.950 . S
C761 C757 1.393 . S
C761 C760 1.391 . S
C762 H752 0.950 . S
C762 C763 1.386 . S
C762 C764 1.391 . S
C763 C762 1.386 . S
C763 C767 1.393 . S
C764 H753 0.950 . S
C764 C762 1.391 . S
C764 C765 1.400 . S
C765 C759 1.491 . S
C765 C764 1.400 . S
C765 C766 1.398 . S
C766 H754 0.950 . S
C766 C765 1.398 . S
C766 C767 1.391 . S
C767 H755 0.950 . S
C767 C763 1.393 . S
C767 C766 1.391 . S
H768 C776 0.950 . S
H769 C781 0.950 . S
H770 C778 0.950 . S
H771 C780 0.950 . S
H772 C782 0.950 . S
H773 C784 0.950 . S
H774 C786 0.950 . S
H775 C787 0.950 . S
C776 H768 0.950 . S
C776 C777 1.386 . S
C776 C778 1.391 . S
C777 C776 1.386 . S
C777 C781 1.393 . S
C778 H770 0.950 . S
C778 C776 1.391 . S
C778 C779 1.400 . S
C779 C778 1.400 . S
C779 C780 1.398 . S
C779 C785 1.491 . S
C780 H771 0.950 . S
C780 C779 1.398 . S
C780 C781 1.391 . S
C781 H769 0.950 . S
C781 C777 1.393 . S
C781 C780 1.391 . S
C782 H772 0.950 . S
C782 C783 1.386 . S
C782 C784 1.391 . S
C783 C782 1.386 . S
C783 C787 1.393 . S
C784 H773 0.950 . S
C784 C782 1.391 . S
C784 C785 1.400 . S
C785 C779 1.491 . S
C785 C784 1.400 . S
C785 C786 1.398 . S
C786 H774 0.950 . S
C786 C785 1.398 . S
C786 C787 1.391 . S
C787 H775 0.950 . S
C787 C783 1.393 . S
C787 C786 1.391 . S
H788 C796 0.950 . S
H789 C801 0.950 . S
H790 C798 0.950 . S
H791 C800 0.950 . S
H792 C802 0.950 . S
H793 C804 0.950 . S
H794 C806 0.950 . S
H795 C807 0.950 . S
C796 H788 0.950 . S
C796 C797 1.386 . S
C796 C798 1.391 . S
C797 C796 1.386 . S
C797 C801 1.393 . S
C798 H790 0.950 . S
C798 C796 1.391 . S
C798 C799 1.400 . S
C799 C798 1.400 . S
C799 C800 1.398 . S
C799 C805 1.491 . S
C800 H791 0.950 . S
C800 C799 1.398 . S
C800 C801 1.391 . S
C801 H789 0.950 . S
C801 C797 1.393 . S
C801 C800 1.391 . S
C802 H792 0.950 . S
C802 C803 1.386 . S
C802 C804 1.391 . S
C803 C802 1.386 . S
C803 C807 1.393 . S
C804 H793 0.950 . S
C804 C802 1.391 . S
C804 C805 1.400 . S
C805 C799 1.491 . S
C805 C804 1.400 . S
C805 C806 1.398 . S
C806 H794 0.950 . S
C806 C805 1.398 . S
C806 C807 1.391 . S
C807 H795 0.950 . S
C807 C803 1.393 . S
C807 C806 1.391 . S
H808 C816 0.950 1_545 S
H809 C821 0.950 . S
H810 C818 0.950 1_545 S
H811 C820 0.950 . S
H812 C822 0.950 . S
H813 C824 0.950 . S
H814 C826 0.950 . S
H815 C827 0.950 . S
C816 H808 0.950 1_565 S
C816 C817 1.386 . S
C816 C818 1.391 . S
C817 C816 1.386 . S
C817 C821 1.393 . S
C818 H810 0.950 1_565 S
C818 C816 1.391 . S
C818 C819 1.400 . S
C819 C818 1.400 . S
C819 C820 1.398 . S
C819 C825 1.491 . S
C820 H811 0.950 . S
C820 C819 1.398 . S
C820 C821 1.391 . S
C821 H809 0.950 . S
C821 C817 1.393 . S
C821 C820 1.391 . S
C822 H812 0.950 . S
C822 C823 1.386 . S
C822 C824 1.391 . S
C823 C822 1.386 . S
C823 C827 1.393 1_565 S
C824 H813 0.950 . S
C824 C822 1.391 . S
C824 C825 1.400 . S
C825 C819 1.491 . S
C825 C824 1.400 . S
C825 C826 1.398 1_565 S
C826 H814 0.950 . S
C826 C825 1.398 1_545 S
C826 C827 1.391 . S
C827 H815 0.950 . S
C827 C823 1.393 1_545 S
C827 C826 1.391 . S
H828 C836 0.950 . S
H829 C841 0.950 . S
H830 C838 0.950 . S
H831 C840 0.950 . S
H832 C842 0.950 . S
H833 C844 0.950 . S
H834 C846 0.950 . S
H835 C847 0.950 . S
C836 H828 0.950 . S
C836 C837 1.386 . S
C836 C838 1.391 . S
C837 C836 1.386 . S
C837 C841 1.393 . S
C838 H830 0.950 . S
C838 C836 1.391 . S
C838 C839 1.400 . S
C839 C838 1.400 . S
C839 C840 1.398 . S
C839 C845 1.491 . S
C840 H831 0.950 . S
C840 C839 1.398 . S
C840 C841 1.391 . S
C841 H829 0.950 . S
C841 C837 1.393 . S
C841 C840 1.391 . S
C842 H832 0.950 . S
C842 C843 1.386 . S
C842 C844 1.391 . S
C843 C842 1.386 . S
C843 C847 1.393 . S
C844 H833 0.950 . S
C844 C842 1.391 . S
C844 C845 1.400 . S
C845 C839 1.491 . S
C845 C844 1.400 . S
C845 C846 1.398 . S
C846 H834 0.950 . S
C846 C845 1.398 . S
C846 C847 1.391 . S
C847 H835 0.950 . S
C847 C843 1.393 . S
C847 C846 1.391 . S
H848 C856 0.950 . S
H849 C861 0.950 . S
H850 C858 0.950 . S
H851 C860 0.950 . S
H852 C862 0.950 . S
H853 C864 0.950 . S
H854 C866 0.950 . S
H855 C867 0.950 . S
C856 H848 0.950 . S
C856 C857 1.386 . S
C856 C858 1.391 . S
C857 C856 1.386 . S
C857 C861 1.393 . S
C858 H850 0.950 . S
C858 C856 1.391 . S
C858 C859 1.400 . S
C859 C858 1.400 . S
C859 C860 1.398 . S
C859 C865 1.491 . S
C860 H851 0.950 . S
C860 C859 1.398 . S
C860 C861 1.391 . S
C861 H849 0.950 . S
C861 C857 1.393 . S
C861 C860 1.391 . S
C862 H852 0.950 . S
C862 C863 1.386 . S
C862 C864 1.391 . S
C863 C862 1.386 . S
C863 C867 1.393 . S
C864 H853 0.950 . S
C864 C862 1.391 . S
C864 C865 1.400 . S
C865 C859 1.491 . S
C865 C864 1.400 . S
C865 C866 1.398 . S
C866 H854 0.950 . S
C866 C865 1.398 . S
C866 C867 1.391 . S
C867 H855 0.950 . S
C867 C863 1.393 . S
C867 C866 1.391 . S
H868 C876 0.950 . S
H869 C881 0.950 . S
H870 C878 0.950 . S
H871 C880 0.950 . S
H872 C882 0.950 . S
H873 C884 0.950 . S
H874 C886 0.950 . S
H875 C887 0.950 . S
C876 H868 0.950 . S
C876 C877 1.386 . S
C876 C878 1.391 . S
C877 C876 1.386 . S
C877 C881 1.393 . S
C878 H870 0.950 . S
C878 C876 1.391 . S
C878 C879 1.400 . S
C879 C878 1.400 . S
C879 C880 1.398 . S
C879 C885 1.491 . S
C880 H871 0.950 . S
C880 C879 1.398 . S
C880 C881 1.391 . S
C881 H869 0.950 . S
C881 C877 1.393 . S
C881 C880 1.391 . S
C882 H872 0.950 . S
C882 C883 1.386 . S
C882 C884 1.391 . S
C883 C882 1.386 . S
C883 C887 1.393 . S
C884 H873 0.950 . S
C884 C882 1.391 . S
C884 C885 1.400 . S
C885 C879 1.491 . S
C885 C884 1.400 . S
C885 C886 1.398 . S
C886 H874 0.950 . S
C886 C885 1.398 . S
C886 C887 1.391 . S
C887 H875 0.950 . S
C887 C883 1.393 . S
C887 C886 1.391 . S
H888 C896 0.950 . S
H889 C901 0.950 . S
H890 C898 0.950 . S
H891 C900 0.950 . S
H892 C902 0.950 . S
H893 C904 0.950 . S
H894 C906 0.950 . S
H895 C907 0.950 . S
C896 H888 0.950 . S
C896 C897 1.386 . S
C896 C898 1.391 . S
C897 C896 1.386 . S
C897 C901 1.393 . S
C898 H890 0.950 . S
C898 C896 1.391 . S
C898 C899 1.400 . S
C899 C898 1.400 . S
C899 C900 1.398 . S
C899 C905 1.491 . S
C900 H891 0.950 . S
C900 C899 1.398 . S
C900 C901 1.391 . S
C901 H889 0.950 . S
C901 C897 1.393 . S
C901 C900 1.391 . S
C902 H892 0.950 . S
C902 C903 1.386 . S
C902 C904 1.391 . S
C903 C902 1.386 . S
C903 C907 1.393 . S
C904 H893 0.950 . S
C904 C902 1.391 . S
C904 C905 1.400 . S
C905 C899 1.491 . S
C905 C904 1.400 . S
C905 C906 1.398 . S
C906 H894 0.950 . S
C906 C905 1.398 . S
C906 C907 1.391 . S
C907 H895 0.950 . S
C907 C903 1.393 . S
C907 C906 1.391 . S
H908 C916 0.950 . S
H909 C921 0.950 . S
H910 C918 0.950 . S
H911 C920 0.950 . S
H912 C922 0.950 . S
H913 C924 0.950 . S
H914 C926 0.950 . S
H915 C927 0.950 . S
C916 H908 0.950 . S
C916 C917 1.386 . S
C916 C918 1.391 . S
C917 C916 1.386 . S
C917 C921 1.393 . S
C918 H910 0.950 . S
C918 C916 1.391 . S
C918 C919 1.400 . S
C919 C918 1.400 . S
C919 C920 1.398 . S
C919 C925 1.491 . S
C920 H911 0.950 . S
C920 C919 1.398 . S
C920 C921 1.391 . S
C921 H909 0.950 . S
C921 C917 1.393 . S
C921 C920 1.391 . S
C922 H912 0.950 . S
C922 C923 1.386 . S
C922 C924 1.391 . S
C923 C922 1.386 . S
C923 C927 1.393 . S
C924 H913 0.950 . S
C924 C922 1.391 . S
C924 C925 1.400 . S
C925 C919 1.491 . S
C925 C924 1.400 . S
C925 C926 1.398 . S
C926 H914 0.950 . S
C926 C925 1.398 . S
C926 C927 1.391 . S
C927 H915 0.950 . S
C927 C923 1.393 . S
C927 C926 1.391 . S
H928 C936 0.950 . S
H929 C941 0.950 1_655 S
H930 C938 0.950 . S
H931 C940 0.948 . S
H932 C942 0.950 . S
H933 C944 0.950 . S
H934 C946 0.950 . S
H935 C947 0.950 . S
C936 H928 0.950 . S
C936 C937 1.386 . S
C936 C938 1.391 . S
C937 C936 1.386 . S
C937 C941 1.393 . S
C938 H930 0.950 . S
C938 C936 1.391 . S
C938 C939 1.400 . S
C939 C938 1.400 . S
C939 C940 1.400 1_455 S
C939 C945 1.491 . S
C940 H931 0.948 . S
C940 C939 1.400 1_655 S
C940 C941 1.391 1_655 S
C941 H929 0.950 1_455 S
C941 C937 1.393 . S
C941 C940 1.391 1_455 S
C942 H932 0.950 . S
C942 C943 1.386 1_655 S
C942 C944 1.391 . S
C943 C942 1.386 1_455 S
C943 C947 1.393 . S
C944 H933 0.950 . S
C944 C942 1.391 . S
C944 C945 1.400 1_655 S
C945 C939 1.491 . S
C945 C944 1.400 1_455 S
C945 C946 1.398 . S
C946 H934 0.950 . S
C946 C945 1.398 . S
C946 C947 1.391 . S
C947 H935 0.950 . S
C947 C943 1.393 . S
C947 C946 1.391 . S
H948 C956 0.950 . S
H949 C961 0.950 . S
H950 C958 0.950 . S
H951 C960 0.950 . S
H952 C962 0.950 . S
H953 C964 0.950 . S
H954 C966 0.950 . S
H955 C967 0.950 . S
C956 H948 0.950 . S
C956 C957 1.386 . S
C956 C958 1.391 . S
C957 C956 1.386 . S
C957 C961 1.393 . S
C958 H950 0.950 . S
C958 C956 1.391 . S
C958 C959 1.400 . S
C959 C958 1.400 . S
C959 C960 1.398 . S
C959 C965 1.491 . S
C960 H951 0.950 . S
C960 C959 1.398 . S
C960 C961 1.391 . S
C961 H949 0.950 . S
C961 C957 1.393 . S
C961 C960 1.391 . S
C962 H952 0.950 . S
C962 C963 1.386 . S
C962 C964 1.391 . S
C963 C962 1.386 . S
C963 C967 1.393 . S
C964 H953 0.950 . S
C964 C962 1.391 . S
C964 C965 1.400 . S
C965 C959 1.491 . S
C965 C964 1.400 . S
C965 C966 1.398 . S
C966 H954 0.950 . S
C966 C965 1.398 . S
C966 C967 1.391 . S
C967 H955 0.950 . S
C967 C963 1.393 . S
C967 C966 1.391 . S
H968 C976 0.950 . S
H969 C981 0.950 1_455 S
H970 C978 0.950 . S
H971 C980 0.950 1_455 S
H972 C982 0.950 . S
H973 C984 0.950 . S
H974 C986 0.950 . S
H975 C987 0.950 . S
C976 H968 0.950 . S
C976 C977 1.386 . S
C976 C978 1.391 . S
C977 C976 1.386 . S
C977 C981 1.393 . S
C978 H970 0.950 . S
C978 C976 1.391 . S
C978 C979 1.400 . S
C979 C978 1.400 . S
C979 C980 1.398 . S
C979 C985 1.491 . S
C980 H971 0.950 1_655 S
C980 C979 1.398 . S
C980 C981 1.391 . S
C981 H969 0.950 1_655 S
C981 C977 1.393 . S
C981 C980 1.391 . S
C982 H972 0.950 . S
C982 C983 1.386 1_455 S
C982 C984 1.391 . S
C983 C982 1.386 1_655 S
C983 C987 1.393 . S
C984 H973 0.950 . S
C984 C982 1.391 . S
C984 C985 1.400 1_455 S
C985 C979 1.491 . S
C985 C984 1.400 1_655 S
C985 C986 1.398 . S
C986 H974 0.950 . S
C986 C985 1.398 . S
C986 C987 1.391 . S
C987 H975 0.950 . S
C987 C983 1.393 . S
C987 C986 1.391 . S
H988 C996 0.950 . S
H989 C1001 0.950 . S
H990 C998 0.950 . S
H991 C1000 0.950 . S
H992 C1002 0.950 . S
H993 C1004 0.950 . S
H994 C1006 0.950 . S
H995 C1007 0.950 . S
C996 H988 0.950 . S
C996 C997 1.386 . S
C996 C998 1.391 . S
C997 C996 1.386 . S
C997 C1001 1.393 . S
C998 H990 0.950 . S
C998 C996 1.391 . S
C998 C999 1.400 . S
C999 C998 1.400 . S
C999 C1000 1.398 . S
C999 C1005 1.491 . S
C1000 H991 0.950 . S
C1000 C999 1.398 . S
C1000 C1001 1.391 . S
C1001 H989 0.950 . S
C1001 C997 1.393 . S
C1001 C1000 1.391 . S
C1002 H992 0.950 . S
C1002 C1003 1.386 . S
C1002 C1004 1.391 . S
C1003 C1002 1.386 . S
C1003 C1007 1.393 . S
C1004 H993 0.950 . S
C1004 C1002 1.391 . S
C1004 C1005 1.400 . S
C1005 C999 1.491 . S
C1005 C1004 1.400 . S
C1005 C1006 1.398 . S
C1006 H994 0.950 . S
C1006 C1005 1.398 . S
C1006 C1007 1.391 . S
C1007 H995 0.950 . S
C1007 C1003 1.393 . S
C1007 C1006 1.391 . S
H1008 C1016 0.950 . S
H1009 C1021 0.950 . S
H1010 C1018 0.950 . S
H1011 C1020 0.950 . S
H1012 C1022 0.950 . S
H1013 C1024 0.950 . S
H1014 C1026 0.950 . S
H1015 C1027 0.950 . S
C1016 H1008 0.950 . S
C1016 C1017 1.386 . S
C1016 C1018 1.391 . S
C1017 C1016 1.386 . S
C1017 C1021 1.393 . S
C1018 H1010 0.950 . S
C1018 C1016 1.391 . S
C1018 C1019 1.400 . S
C1019 C1018 1.400 . S
C1019 C1020 1.398 . S
C1019 C1025 1.491 . S
C1020 H1011 0.950 . S
C1020 C1019 1.398 . S
C1020 C1021 1.391 . S
C1021 H1009 0.950 . S
C1021 C1017 1.393 . S
C1021 C1020 1.391 . S
C1022 H1012 0.950 . S
C1022 C1023 1.386 . S
C1022 C1024 1.391 . S
C1023 C1022 1.386 . S
C1023 C1027 1.393 . S
C1024 H1013 0.950 . S
C1024 C1022 1.391 . S
C1024 C1025 1.400 . S
C1025 C1019 1.491 . S
C1025 C1024 1.400 . S
C1025 C1026 1.398 . S
C1026 H1014 0.950 . S
C1026 C1025 1.398 . S
C1026 C1027 1.391 . S
C1027 H1015 0.950 . S
C1027 C1023 1.393 . S
C1027 C1026 1.391 . S
H1028 C1036 0.950 . S
H1029 C1041 0.950 . S
H1030 C1038 0.950 . S
H1031 C1040 0.950 . S
H1032 C1042 0.950 . S
H1033 C1044 0.950 . S
H1034 C1046 0.950 . S
H1035 C1047 0.950 . S
C1036 H1028 0.950 . S
C1036 C1037 1.386 . S
C1036 C1038 1.391 . S
C1037 C1036 1.386 . S
C1037 C1041 1.393 1_556 S
C1038 H1030 0.950 . S
C1038 C1036 1.391 . S
C1038 C1039 1.400 . S
C1039 C1038 1.400 . S
C1039 C1040 1.398 1_556 S
C1039 C1045 1.491 . S
C1040 H1031 0.950 . S
C1040 C1039 1.398 1_554 S
C1040 C1041 1.391 . S
C1041 H1029 0.950 . S
C1041 C1037 1.393 1_554 S
C1041 C1040 1.391 . S
C1042 H1032 0.950 . S
C1042 C1043 1.386 . S
C1042 C1044 1.391 . S
C1043 C1042 1.386 . S
C1043 C1047 1.393 1_554 S
C1044 H1033 0.950 . S
C1044 C1042 1.391 . S
C1044 C1045 1.400 1_554 S
C1045 C1039 1.491 . S
C1045 C1044 1.400 1_556 S
C1045 C1046 1.398 . S
C1046 H1034 0.950 . S
C1046 C1045 1.398 . S
C1046 C1047 1.391 . S
C1047 H1035 0.950 . S
C1047 C1043 1.393 1_556 S
C1047 C1046 1.391 . S
H1048 C1056 0.950 . S
H1049 C1061 0.950 . S
H1050 C1058 0.950 . S
H1051 C1060 0.950 . S
H1052 C1062 0.950 . S
H1053 C1064 0.950 . S
H1054 C1066 0.950 . S
H1055 C1067 0.950 . S
C1056 H1048 0.950 . S
C1056 C1057 1.386 . S
C1056 C1058 1.391 . S
C1057 C1056 1.386 . S
C1057 C1061 1.393 . S
C1058 H1050 0.950 . S
C1058 C1056 1.391 . S
C1058 C1059 1.400 . S
C1059 C1058 1.400 . S
C1059 C1060 1.398 . S
C1059 C1065 1.491 . S
C1060 H1051 0.950 . S
C1060 C1059 1.398 . S
C1060 C1061 1.391 . S
C1061 H1049 0.950 . S
C1061 C1057 1.393 . S
C1061 C1060 1.391 . S
C1062 H1052 0.950 . S
C1062 C1063 1.386 . S
C1062 C1064 1.391 . S
C1063 C1062 1.386 . S
C1063 C1067 1.393 . S
C1064 H1053 0.950 . S
C1064 C1062 1.391 . S
C1064 C1065 1.400 . S
C1065 C1059 1.491 . S
C1065 C1064 1.400 . S
C1065 C1066 1.398 . S
C1066 H1054 0.950 . S
C1066 C1065 1.398 . S
C1066 C1067 1.391 . S
C1067 H1055 0.950 . S
C1067 C1063 1.393 . S
C1067 C1066 1.391 . S
H1068 C1076 0.950 . S
H1069 C1081 0.950 . S
H1070 C1078 0.950 . S
H1071 C1080 0.950 . S
H1072 C1082 0.950 . S
H1073 C1084 0.950 . S
H1074 C1086 0.950 . S
H1075 C1087 0.950 . S
C1076 H1068 0.950 . S
C1076 C1077 1.386 . S
C1076 C1078 1.391 . S
C1077 C1076 1.386 . S
C1077 C1081 1.393 . S
C1078 H1070 0.950 . S
C1078 C1076 1.391 . S
C1078 C1079 1.400 . S
C1079 C1078 1.400 . S
C1079 C1080 1.398 . S
C1079 C1085 1.491 . S
C1080 H1071 0.950 . S
C1080 C1079 1.398 . S
C1080 C1081 1.391 . S
C1081 H1069 0.950 . S
C1081 C1077 1.393 . S
C1081 C1080 1.391 . S
C1082 H1072 0.950 . S
C1082 C1083 1.386 . S
C1082 C1084 1.391 . S
C1083 C1082 1.386 . S
C1083 C1087 1.393 . S
C1084 H1073 0.950 . S
C1084 C1082 1.391 . S
C1084 C1085 1.400 . S
C1085 C1079 1.491 . S
C1085 C1084 1.400 . S
C1085 C1086 1.398 . S
C1086 H1074 0.950 . S
C1086 C1085 1.398 . S
C1086 C1087 1.391 . S
C1087 H1075 0.950 . S
C1087 C1083 1.393 . S
C1087 C1086 1.391 . S
H1088 C1096 0.950 . S
H1089 C1101 0.950 . S
H1090 C1098 0.950 . S
H1091 C1100 0.950 . S
H1092 C1102 0.950 . S
H1093 C1104 0.950 . S
H1094 C1106 0.950 . S
H1095 C1107 0.950 . S
C1096 H1088 0.950 . S
C1096 C1097 1.386 . S
C1096 C1098 1.391 . S
C1097 C1096 1.386 . S
C1097 C1101 1.393 . S
C1098 H1090 0.950 . S
C1098 C1096 1.391 . S
C1098 C1099 1.400 . S
C1099 C1098 1.400 . S
C1099 C1100 1.398 . S
C1099 C1105 1.491 . S
C1100 H1091 0.950 . S
C1100 C1099 1.398 . S
C1100 C1101 1.391 . S
C1101 H1089 0.950 . S
C1101 C1097 1.393 . S
C1101 C1100 1.391 . S
C1102 H1092 0.950 . S
C1102 C1103 1.386 . S
C1102 C1104 1.391 . S
C1103 C1102 1.386 . S
C1103 C1107 1.393 . S
C1104 H1093 0.950 . S
C1104 C1102 1.391 . S
C1104 C1105 1.400 . S
C1105 C1099 1.491 . S
C1105 C1104 1.400 . S
C1105 C1106 1.398 . S
C1106 H1094 0.950 . S
C1106 C1105 1.398 . S
C1106 C1107 1.391 . S
C1107 H1095 0.950 . S
C1107 C1103 1.393 . S
C1107 C1106 1.391 . S
H1108 C1116 0.950 . S
H1109 C1121 0.950 . S
H1110 C1118 0.950 . S
H1111 C1120 0.950 . S
H1112 C1122 0.950 . S
H1113 C1124 0.950 . S
H1114 C1126 0.950 . S
H1115 C1127 0.950 . S
C1116 H1108 0.950 . S
C1116 C1117 1.386 . S
C1116 C1118 1.391 . S
C1117 C1116 1.386 . S
C1117 C1121 1.393 . S
C1118 H1110 0.950 . S
C1118 C1116 1.391 . S
C1118 C1119 1.400 . S
C1119 C1118 1.400 . S
C1119 C1120 1.398 . S
C1119 C1125 1.491 . S
C1120 H1111 0.950 . S
C1120 C1119 1.398 . S
C1120 C1121 1.391 . S
C1121 H1109 0.950 . S
C1121 C1117 1.393 . S
C1121 C1120 1.391 . S
C1122 H1112 0.950 . S
C1122 C1123 1.386 . S
C1122 C1124 1.391 . S
C1123 C1122 1.386 . S
C1123 C1127 1.393 . S
C1124 H1113 0.950 . S
C1124 C1122 1.391 . S
C1124 C1125 1.400 . S
C1125 C1119 1.491 . S
C1125 C1124 1.400 . S
C1125 C1126 1.398 . S
C1126 H1114 0.950 . S
C1126 C1125 1.398 . S
C1126 C1127 1.391 . S
C1127 H1115 0.950 . S
C1127 C1123 1.393 . S
C1127 C1126 1.391 . S
H1128 C1136 0.950 . S
H1129 C1141 0.950 . S
H1130 C1138 0.950 . S
H1131 C1140 0.950 . S
H1132 C1142 0.950 . S
H1133 C1144 0.950 . S
H1134 C1146 0.950 . S
H1135 C1147 0.950 . S
C1136 H1128 0.950 . S
C1136 C1137 1.386 . S
C1136 C1138 1.391 . S
C1137 C1136 1.386 . S
C1137 C1141 1.393 . S
C1138 H1130 0.950 . S
C1138 C1136 1.391 . S
C1138 C1139 1.400 . S
C1139 C1138 1.400 . S
C1139 C1140 1.398 . S
C1139 C1145 1.491 . S
C1140 H1131 0.950 . S
C1140 C1139 1.398 . S
C1140 C1141 1.391 . S
C1141 H1129 0.950 . S
C1141 C1137 1.393 . S
C1141 C1140 1.391 . S
C1142 H1132 0.950 . S
C1142 C1143 1.386 . S
C1142 C1144 1.391 . S
C1143 C1142 1.386 . S
C1143 C1147 1.393 . S
C1144 H1133 0.950 . S
C1144 C1142 1.391 . S
C1144 C1145 1.400 . S
C1145 C1139 1.491 . S
C1145 C1144 1.400 . S
C1145 C1146 1.398 . S
C1146 H1134 0.950 . S
C1146 C1145 1.398 . S
C1146 C1147 1.391 . S
C1147 H1135 0.950 . S
C1147 C1143 1.393 . S
C1147 C1146 1.391 . S
H1148 C1156 0.950 . S
H1149 C1161 0.950 . S
H1150 C1158 0.950 . S
H1151 C1160 0.950 . S
H1152 C1162 0.950 . S
H1153 C1164 0.950 . S
H1154 C1166 0.950 . S
H1155 C1167 0.950 . S
C1156 H1148 0.950 . S
C1156 C1157 1.386 . S
C1156 C1158 1.391 . S
C1157 C1156 1.386 . S
C1157 C1161 1.393 . S
C1158 H1150 0.950 . S
C1158 C1156 1.391 . S
C1158 C1159 1.400 . S
C1159 C1158 1.400 . S
C1159 C1160 1.398 . S
C1159 C1165 1.491 . S
C1160 H1151 0.950 . S
C1160 C1159 1.398 . S
C1160 C1161 1.391 . S
C1161 H1149 0.950 . S
C1161 C1157 1.393 . S
C1161 C1160 1.391 . S
C1162 H1152 0.950 . S
C1162 C1163 1.386 . S
C1162 C1164 1.391 . S
C1163 C1162 1.386 . S
C1163 C1167 1.393 . S
C1164 H1153 0.950 . S
C1164 C1162 1.391 . S
C1164 C1165 1.400 . S
C1165 C1159 1.491 . S
C1165 C1164 1.400 . S
C1165 C1166 1.398 . S
C1166 H1154 0.950 . S
C1166 C1165 1.398 . S
C1166 C1167 1.391 . S
C1167 H1155 0.950 . S
C1167 C1163 1.393 . S
C1167 C1166 1.391 . S
H1168 C1176 0.950 . S
H1169 C1181 0.950 . S
H1170 C1178 0.950 . S
H1171 C1180 0.950 . S
H1172 C1182 0.950 . S
H1173 C1184 0.950 . S
H1174 C1186 0.950 . S
H1175 C1187 0.950 . S
C1176 H1168 0.950 . S
C1176 C1177 1.386 . S
C1176 C1178 1.391 . S
C1177 C1176 1.386 . S
C1177 C1181 1.393 . S
C1178 H1170 0.950 . S
C1178 C1176 1.391 . S
C1178 C1179 1.400 . S
C1179 C1178 1.400 . S
C1179 C1180 1.398 . S
C1179 C1185 1.491 . S
C1180 H1171 0.950 . S
C1180 C1179 1.398 . S
C1180 C1181 1.391 . S
C1181 H1169 0.950 . S
C1181 C1177 1.393 . S
C1181 C1180 1.391 . S
C1182 H1172 0.950 . S
C1182 C1183 1.386 . S
C1182 C1184 1.391 . S
C1183 C1182 1.386 . S
C1183 C1187 1.393 . S
C1184 H1173 0.950 . S
C1184 C1182 1.391 . S
C1184 C1185 1.400 . S
C1185 C1179 1.491 . S
C1185 C1184 1.400 . S
C1185 C1186 1.398 . S
C1186 H1174 0.950 . S
C1186 C1185 1.398 . S
C1186 C1187 1.391 . S
C1187 H1175 0.950 . S
C1187 C1183 1.393 . S
C1187 C1186 1.391 . S
H1188 C1196 0.950 . S
H1189 C1201 0.950 . S
H1190 C1198 0.950 . S
H1191 C1200 0.950 . S
H1192 C1202 0.950 . S
H1193 C1204 0.950 . S
H1194 C1206 0.950 . S
H1195 C1207 0.950 . S
C1196 H1188 0.950 . S
C1196 C1197 1.386 . S
C1196 C1198 1.391 . S
C1197 C1196 1.386 . S
C1197 C1201 1.393 . S
C1198 H1190 0.950 . S
C1198 C1196 1.391 . S
C1198 C1199 1.400 . S
C1199 C1198 1.400 . S
C1199 C1200 1.398 . S
C1199 C1205 1.491 . S
C1200 H1191 0.950 . S
C1200 C1199 1.398 . S
C1200 C1201 1.391 . S
C1201 H1189 0.950 . S
C1201 C1197 1.393 . S
C1201 C1200 1.391 . S
C1202 H1192 0.950 . S
C1202 C1203 1.386 . S
C1202 C1204 1.391 . S
C1203 C1202 1.386 . S
C1203 C1207 1.393 . S
C1204 H1193 0.950 . S
C1204 C1202 1.391 . S
C1204 C1205 1.400 . S
C1205 C1199 1.491 . S
C1205 C1204 1.400 . S
C1205 C1206 1.398 . S
C1206 H1194 0.950 . S
C1206 C1205 1.398 . S
C1206 C1207 1.391 . S
C1207 H1195 0.950 . S
C1207 C1203 1.393 . S
C1207 C1206 1.391 . S
H1208 C1216 0.950 . S
H1209 C1221 0.950 . S
H1210 C1218 0.950 . S
H1211 C1220 0.950 . S
H1212 C1222 0.950 . S
H1213 C1224 0.950 . S
H1214 C1226 0.950 . S
H1215 C1227 0.950 . S
C1216 H1208 0.950 . S
C1216 C1217 1.386 . S
C1216 C1218 1.391 . S
C1217 C1216 1.386 . S
C1217 C1221 1.393 . S
C1218 H1210 0.950 . S
C1218 C1216 1.391 . S
C1218 C1219 1.400 . S
C1219 C1218 1.400 . S
C1219 C1220 1.398 . S
C1219 C1225 1.491 . S
C1220 H1211 0.950 . S
C1220 C1219 1.398 . S
C1220 C1221 1.391 . S
C1221 H1209 0.950 . S
C1221 C1217 1.393 . S
C1221 C1220 1.391 . S
C1222 H1212 0.950 . S
C1222 C1223 1.386 . S
C1222 C1224 1.391 . S
C1223 C1222 1.386 . S
C1223 C1227 1.393 . S
C1224 H1213 0.950 . S
C1224 C1222 1.391 . S
C1224 C1225 1.400 . S
C1225 C1219 1.491 . S
C1225 C1224 1.400 . S
C1225 C1226 1.398 . S
C1226 H1214 0.950 . S
C1226 C1225 1.398 . S
C1226 C1227 1.391 . S
C1227 H1215 0.950 . S
C1227 C1223 1.393 . S
C1227 C1226 1.391 . S
H1228 C1236 0.950 . S
H1229 C1241 0.950 . S
H1230 C1238 0.950 . S
H1231 C1240 0.950 . S
H1232 C1242 0.950 . S
H1233 C1244 0.950 . S
H1234 C1246 0.950 . S
H1235 C1247 0.950 . S
C1236 H1228 0.950 . S
C1236 C1237 1.386 . S
C1236 C1238 1.391 . S
C1237 C1236 1.386 . S
C1237 C1241 1.393 . S
C1238 H1230 0.950 . S
C1238 C1236 1.391 . S
C1238 C1239 1.400 . S
C1239 C1238 1.400 . S
C1239 C1240 1.398 . S
C1239 C1245 1.491 . S
C1240 H1231 0.950 . S
C1240 C1239 1.398 . S
C1240 C1241 1.391 . S
C1241 H1229 0.950 . S
C1241 C1237 1.393 . S
C1241 C1240 1.391 . S
C1242 H1232 0.950 . S
C1242 C1243 1.386 . S
C1242 C1244 1.391 . S
C1243 C1242 1.386 . S
C1243 C1247 1.393 . S
C1244 H1233 0.950 . S
C1244 C1242 1.391 . S
C1244 C1245 1.400 . S
C1245 C1239 1.491 . S
C1245 C1244 1.400 . S
C1245 C1246 1.398 . S
C1246 H1234 0.950 . S
C1246 C1245 1.398 . S
C1246 C1247 1.391 . S
C1247 H1235 0.950 . S
C1247 C1243 1.393 . S
C1247 C1246 1.391 . S
H1248 C1256 0.908 1_455 S
H1249 C1261 0.950 . S
H1250 C1258 0.950 . S
H1251 C1260 0.950 . S
H1252 C1262 0.950 . S
H1253 C1264 0.950 . S
H1254 C1266 0.950 . S
H1255 C1267 0.950 . S
C1256 H1248 0.908 1_655 S
C1256 C1257 1.386 . S
C1256 C1258 1.391 . S
C1257 C1256 1.386 . S
C1257 C1261 1.393 . S
C1258 H1250 0.950 . S
C1258 C1256 1.391 . S
C1258 C1259 1.400 . S
C1259 C1258 1.400 . S
C1259 C1260 1.398 . S
C1259 C1265 1.491 . S
C1260 H1251 0.950 . S
C1260 C1259 1.398 . S
C1260 C1261 1.391 . S
C1261 H1249 0.950 . S
C1261 C1257 1.393 . S
C1261 C1260 1.391 . S
C1262 H1252 0.950 . S
C1262 C1263 1.386 . S
C1262 C1264 1.391 . S
C1263 C1262 1.386 . S
C1263 C1267 1.393 . S
C1264 H1253 0.950 . S
C1264 C1262 1.391 . S
C1264 C1265 1.400 . S
C1265 C1259 1.491 . S
C1265 C1264 1.400 . S
C1265 C1266 1.398 . S
C1266 H1254 0.950 . S
C1266 C1265 1.398 . S
C1266 C1267 1.391 . S
C1267 H1255 0.950 . S
C1267 C1263 1.393 . S
C1267 C1266 1.391 . S
H1268 C1276 0.950 . S
H1269 C1281 0.950 . S
H1270 C1278 0.950 . S
H1271 C1280 0.950 . S
H1272 C1282 0.950 . S
H1273 C1284 0.950 . S
H1274 C1286 0.950 . S
H1275 C1287 0.950 . S
C1276 H1268 0.950 . S
C1276 C1277 1.386 . S
C1276 C1278 1.391 . S
C1277 C1276 1.386 . S
C1277 C1281 1.393 . S
C1278 H1270 0.950 . S
C1278 C1276 1.391 . S
C1278 C1279 1.400 . S
C1279 C1278 1.400 . S
C1279 C1280 1.398 . S
C1279 C1285 1.491 . S
C1280 H1271 0.950 . S
C1280 C1279 1.398 . S
C1280 C1281 1.391 . S
C1281 H1269 0.950 . S
C1281 C1277 1.393 . S
C1281 C1280 1.391 . S
C1282 H1272 0.950 . S
C1282 C1283 1.386 . S
C1282 C1284 1.391 . S
C1283 C1282 1.386 . S
C1283 C1287 1.393 . S
C1284 H1273 0.950 . S
C1284 C1282 1.391 . S
C1284 C1285 1.400 . S
C1285 C1279 1.491 . S
C1285 C1284 1.400 . S
C1285 C1286 1.398 . S
C1286 H1274 0.950 . S
C1286 C1285 1.398 . S
C1286 C1287 1.391 . S
C1287 H1275 0.950 . S
C1287 C1283 1.393 . S
C1287 C1286 1.391 . S
H1288 C1296 0.950 . S
H1289 C1301 0.950 . S
H1290 C1298 0.950 . S
H1291 C1300 0.950 . S
H1292 C1302 0.950 . S
H1293 C1304 0.950 . S
H1294 C1306 0.950 . S
H1295 C1307 0.950 . S
C1296 H1288 0.950 . S
C1296 C1297 1.386 . S
C1296 C1298 1.391 . S
C1297 C1296 1.386 . S
C1297 C1301 1.393 . S
C1298 H1290 0.950 . S
C1298 C1296 1.391 . S
C1298 C1299 1.400 . S
C1299 C1298 1.400 . S
C1299 C1300 1.398 . S
C1299 C1305 1.491 . S
C1300 H1291 0.950 . S
C1300 C1299 1.398 . S
C1300 C1301 1.391 . S
C1301 H1289 0.950 . S
C1301 C1297 1.393 . S
C1301 C1300 1.391 . S
C1302 H1292 0.950 . S
C1302 C1303 1.386 . S
C1302 C1304 1.391 . S
C1303 C1302 1.386 . S
C1303 C1307 1.393 . S
C1304 H1293 0.950 . S
C1304 C1302 1.391 . S
C1304 C1305 1.400 . S
C1305 C1299 1.491 . S
C1305 C1304 1.400 . S
C1305 C1306 1.398 . S
C1306 H1294 0.950 . S
C1306 C1305 1.398 . S
C1306 C1307 1.391 . S
C1307 H1295 0.950 . S
C1307 C1303 1.393 . S
C1307 C1306 1.391 . S
H1308 C1316 0.950 . S
H1309 C1321 0.950 . S
H1310 C1318 0.950 . S
H1311 C1320 0.950 . S
H1312 C1322 0.950 . S
H1313 C1324 0.950 . S
H1314 C1326 0.950 . S
H1315 C1327 0.950 . S
C1316 H1308 0.950 . S
C1316 C1317 1.386 . S
C1316 C1318 1.391 . S
C1317 C1316 1.386 . S
C1317 C1321 1.393 . S
C1318 H1310 0.950 . S
C1318 C1316 1.391 . S
C1318 C1319 1.400 . S
C1319 C1318 1.400 . S
C1319 C1320 1.398 . S
C1319 C1325 1.491 . S
C1320 H1311 0.950 . S
C1320 C1319 1.398 . S
C1320 C1321 1.391 . S
C1321 H1309 0.950 . S
C1321 C1317 1.393 . S
C1321 C1320 1.391 . S
C1322 H1312 0.950 . S
C1322 C1323 1.386 . S
C1322 C1324 1.391 . S
C1323 C1322 1.386 . S
C1323 C1327 1.393 . S
C1324 H1313 0.950 . S
C1324 C1322 1.391 . S
C1324 C1325 1.400 . S
C1325 C1319 1.491 . S
C1325 C1324 1.400 . S
C1325 C1326 1.398 . S
C1326 H1314 0.950 . S
C1326 C1325 1.398 . S
C1326 C1327 1.391 . S
C1327 H1315 0.950 . S
C1327 C1323 1.393 . S
C1327 C1326 1.391 . S
H1328 C1336 0.958 . S
H1329 C1341 0.950 . S
H1330 C1338 0.950 . S
H1331 C1340 0.950 . S
H1332 C1342 0.950 . S
H1333 C1344 0.950 . S
H1334 C1346 0.950 . S
H1335 C1347 0.950 . S
C1336 H1328 0.958 . S
C1336 C1337 1.375 1_455 S
C1336 C1338 1.394 . S
C1337 C1336 1.375 1_655 S
C1337 C1341 1.393 . S
C1338 H1330 0.950 . S
C1338 C1336 1.394 . S
C1338 C1339 1.400 1_455 S
C1339 C1338 1.400 1_655 S
C1339 C1340 1.398 . S
C1339 C1345 1.491 . S
C1340 H1331 0.950 . S
C1340 C1339 1.398 . S
C1340 C1341 1.391 . S
C1341 H1329 0.950 . S
C1341 C1337 1.393 . S
C1341 C1340 1.391 . S
C1342 H1332 0.950 . S
C1342 C1343 1.386 . S
C1342 C1344 1.391 . S
C1343 C1342 1.386 . S
C1343 C1347 1.393 1_655 S
C1344 H1333 0.950 . S
C1344 C1342 1.391 . S
C1344 C1345 1.400 . S
C1345 C1339 1.491 . S
C1345 C1344 1.400 . S
C1345 C1346 1.398 1_655 S
C1346 H1334 0.950 . S
C1346 C1345 1.398 1_455 S
C1346 C1347 1.391 . S
C1347 H1335 0.950 . S
C1347 C1343 1.393 1_455 S
C1347 C1346 1.391 . S
H1348 C1356 0.950 . S
H1349 C1361 0.950 . S
H1350 C1358 0.950 . S
H1351 C1360 0.950 . S
H1352 C1362 0.950 . S
H1353 C1364 0.950 . S
H1354 C1366 0.950 . S
H1355 C1367 0.950 . S
C1356 H1348 0.950 . S
C1356 C1357 1.386 . S
C1356 C1358 1.391 . S
C1357 C1356 1.386 . S
C1357 C1361 1.393 . S
C1358 H1350 0.950 . S
C1358 C1356 1.391 . S
C1358 C1359 1.400 . S
C1359 C1358 1.400 . S
C1359 C1360 1.398 . S
C1359 C1365 1.491 . S
C1360 H1351 0.950 . S
C1360 C1359 1.398 . S
C1360 C1361 1.391 . S
C1361 H1349 0.950 . S
C1361 C1357 1.393 . S
C1361 C1360 1.391 . S
C1362 H1352 0.950 . S
C1362 C1363 1.386 . S
C1362 C1364 1.391 . S
C1363 C1362 1.386 . S
C1363 C1367 1.393 . S
C1364 H1353 0.950 . S
C1364 C1362 1.391 . S
C1364 C1365 1.400 . S
C1365 C1359 1.491 . S
C1365 C1364 1.400 . S
C1365 C1366 1.398 . S
C1366 H1354 0.950 . S
C1366 C1365 1.398 . S
C1366 C1367 1.391 . S
C1367 H1355 0.950 . S
C1367 C1363 1.393 . S
C1367 C1366 1.391 . S
H1368 C1376 0.934 1_654 S
H1369 C1381 0.950 . S
H1370 C1378 0.950 1_655 S
H1371 C1380 0.950 . S
H1372 C1382 0.950 . S
H1373 C1384 0.950 . S
H1374 C1386 0.950 . S
H1375 C1387 0.950 . S
C1376 H1368 0.934 1_456 S
C1376 C1377 1.386 . S
C1376 C1378 1.391 . S
C1377 C1376 1.386 . S
C1377 C1381 1.393 . S
C1378 H1370 0.950 1_455 S
C1378 C1376 1.391 . S
C1378 C1379 1.400 . S
C1379 C1378 1.400 . S
C1379 C1380 1.398 . S
C1379 C1385 1.491 . S
C1380 H1371 0.950 . S
C1380 C1379 1.398 . S
C1380 C1381 1.391 . S
C1381 H1369 0.950 . S
C1381 C1377 1.393 . S
C1381 C1380 1.391 . S
C1382 H1372 0.950 . S
C1382 C1383 1.386 . S
C1382 C1384 1.391 . S
C1383 C1382 1.386 . S
C1383 C1387 1.393 1_455 S
C1384 H1373 0.950 . S
C1384 C1382 1.391 . S
C1384 C1385 1.400 . S
C1385 C1379 1.491 . S
C1385 C1384 1.400 . S
C1385 C1386 1.398 1_455 S
C1386 H1374 0.950 . S
C1386 C1385 1.398 1_655 S
C1386 C1387 1.391 . S
C1387 H1375 0.950 . S
C1387 C1383 1.393 1_655 S
C1387 C1386 1.391 . S
H1388 C1396 0.950 . S
H1389 C1401 0.950 . S
H1390 C1398 0.950 . S
H1391 C1400 0.950 . S
H1392 C1402 0.950 . S
H1393 C1404 0.950 . S
H1394 C1406 0.950 . S
H1395 C1407 0.950 . S
C1396 H1388 0.950 . S
C1396 C1397 1.386 . S
C1396 C1398 1.391 . S
C1397 C1396 1.386 . S
C1397 C1401 1.393 . S
C1398 H1390 0.950 . S
C1398 C1396 1.391 . S
C1398 C1399 1.400 . S
C1399 C1398 1.400 . S
C1399 C1400 1.398 . S
C1399 C1405 1.491 . S
C1400 H1391 0.950 . S
C1400 C1399 1.398 . S
C1400 C1401 1.391 . S
C1401 H1389 0.950 . S
C1401 C1397 1.393 . S
C1401 C1400 1.391 . S
C1402 H1392 0.950 . S
C1402 C1403 1.386 . S
C1402 C1404 1.391 . S
C1403 C1402 1.386 . S
C1403 C1407 1.393 . S
C1404 H1393 0.950 . S
C1404 C1402 1.391 . S
C1404 C1405 1.400 . S
C1405 C1399 1.491 . S
C1405 C1404 1.400 . S
C1405 C1406 1.398 . S
C1406 H1394 0.950 . S
C1406 C1405 1.398 . S
C1406 C1407 1.391 . S
C1407 H1395 0.950 . S
C1407 C1403 1.393 . S
C1407 C1406 1.391 . S
H1408 C1416 0.950 . S
H1409 C1421 0.950 . S
H1410 C1418 0.950 . S
H1411 C1420 0.950 . S
H1412 C1422 0.950 . S
H1413 C1424 0.950 . S
H1414 C1426 0.950 . S
H1415 C1427 0.950 . S
C1416 H1408 0.950 . S
C1416 C1417 1.386 . S
C1416 C1418 1.391 . S
C1417 C1416 1.386 . S
C1417 C1421 1.393 . S
C1418 H1410 0.950 . S
C1418 C1416 1.391 . S
C1418 C1419 1.400 . S
C1419 C1418 1.400 . S
C1419 C1420 1.398 . S
C1419 C1425 1.491 . S
C1420 H1411 0.950 . S
C1420 C1419 1.398 . S
C1420 C1421 1.391 . S
C1421 H1409 0.950 . S
C1421 C1417 1.393 . S
C1421 C1420 1.391 . S
C1422 H1412 0.950 . S
C1422 C1423 1.386 . S
C1422 C1424 1.391 . S
C1423 C1422 1.386 . S
C1423 C1427 1.393 . S
C1424 H1413 0.950 . S
C1424 C1422 1.391 . S
C1424 C1425 1.400 . S
C1425 C1419 1.491 . S
C1425 C1424 1.400 . S
C1425 C1426 1.398 . S
C1426 H1414 0.950 . S
C1426 C1425 1.398 . S
C1426 C1427 1.391 . S
C1427 H1415 0.950 . S
C1427 C1423 1.393 . S
C1427 C1426 1.391 . S
H1428 C1436 0.950 . S
H1429 C1441 0.950 . S
H1430 C1438 0.950 . S
H1431 C1440 0.950 . S
H1432 C1442 0.950 . S
H1433 C1444 0.950 . S
H1434 C1446 0.950 . S
H1435 C1447 0.950 . S
C1436 H1428 0.950 . S
C1436 C1437 1.386 . S
C1436 C1438 1.391 . S
C1437 C1436 1.386 . S
C1437 C1441 1.393 . S
C1438 H1430 0.950 . S
C1438 C1436 1.391 . S
C1438 C1439 1.400 . S
C1439 C1438 1.400 . S
C1439 C1440 1.398 . S
C1439 C1445 1.491 . S
C1440 H1431 0.950 . S
C1440 C1439 1.398 . S
C1440 C1441 1.391 . S
C1441 H1429 0.950 . S
C1441 C1437 1.393 . S
C1441 C1440 1.391 . S
C1442 H1432 0.950 . S
C1442 C1443 1.386 . S
C1442 C1444 1.391 . S
C1443 C1442 1.386 . S
C1443 C1447 1.393 . S
C1444 H1433 0.950 . S
C1444 C1442 1.391 . S
C1444 C1445 1.400 . S
C1445 C1439 1.491 . S
C1445 C1444 1.400 . S
C1445 C1446 1.398 . S
C1446 H1434 0.950 . S
C1446 C1445 1.398 . S
C1446 C1447 1.391 . S
C1447 H1435 0.950 . S
C1447 C1443 1.393 . S
C1447 C1446 1.391 . S
H1448 C1456 0.950 . S
H1449 C1461 0.950 . S
H1450 C1458 0.950 . S
H1451 C1460 0.950 . S
H1452 C1462 0.950 . S
H1453 C1464 0.950 . S
H1454 C1466 0.950 . S
H1455 C1467 0.950 . S
C1456 H1448 0.950 . S
C1456 C1457 1.386 . S
C1456 C1458 1.391 . S
C1457 C1456 1.386 . S
C1457 C1461 1.393 . S
C1458 H1450 0.950 . S
C1458 C1456 1.391 . S
C1458 C1459 1.400 . S
C1459 C1458 1.400 . S
C1459 C1460 1.398 . S
C1459 C1465 1.491 . S
C1460 H1451 0.950 . S
C1460 C1459 1.398 . S
C1460 C1461 1.391 . S
C1461 H1449 0.950 . S
C1461 C1457 1.393 . S
C1461 C1460 1.391 . S
C1462 H1452 0.950 . S
C1462 C1463 1.386 . S
C1462 C1464 1.391 . S
C1463 C1462 1.386 . S
C1463 C1467 1.393 . S
C1464 H1453 0.950 . S
C1464 C1462 1.391 . S
C1464 C1465 1.400 . S
C1465 C1459 1.491 . S
C1465 C1464 1.400 . S
C1465 C1466 1.398 . S
C1466 H1454 0.950 . S
C1466 C1465 1.398 . S
C1466 C1467 1.391 . S
C1467 H1455 0.950 . S
C1467 C1463 1.393 . S
C1467 C1466 1.391 . S
H1468 C1476 0.950 . S
H1469 C1481 0.950 . S
H1470 C1478 0.950 . S
H1471 C1480 0.950 . S
H1472 C1482 0.950 . S
H1473 C1484 0.950 . S
H1474 C1486 0.950 . S
H1475 C1487 0.950 . S
C1476 H1468 0.950 . S
C1476 C1477 1.386 . S
C1476 C1478 1.391 . S
C1477 C1476 1.386 . S
C1477 C1481 1.393 . S
C1478 H1470 0.950 . S
C1478 C1476 1.391 . S
C1478 C1479 1.400 . S
C1479 C1478 1.400 . S
C1479 C1480 1.398 . S
C1479 C1485 1.491 . S
C1480 H1471 0.950 . S
C1480 C1479 1.398 . S
C1480 C1481 1.391 . S
C1481 H1469 0.950 . S
C1481 C1477 1.393 . S
C1481 C1480 1.391 . S
C1482 H1472 0.950 . S
C1482 C1483 1.386 . S
C1482 C1484 1.391 . S
C1483 C1482 1.386 . S
C1483 C1487 1.393 . S
C1484 H1473 0.950 . S
C1484 C1482 1.391 . S
C1484 C1485 1.400 . S
C1485 C1479 1.491 . S
C1485 C1484 1.400 . S
C1485 C1486 1.398 . S
C1486 H1474 0.950 . S
C1486 C1485 1.398 . S
C1486 C1487 1.391 . S
C1487 H1475 0.950 . S
C1487 C1483 1.393 . S
C1487 C1486 1.391 . S
H1488 C1496 0.950 . S
H1489 C1501 0.950 . S
H1490 C1498 0.950 . S
H1491 C1500 0.950 . S
H1492 C1502 0.950 . S
H1493 C1504 0.950 . S
H1494 C1506 0.950 . S
H1495 C1507 0.950 . S
C1496 H1488 0.950 . S
C1496 C1497 1.386 . S
C1496 C1498 1.391 . S
C1497 C1496 1.386 . S
C1497 C1501 1.393 . S
C1498 H1490 0.950 . S
C1498 C1496 1.391 . S
C1498 C1499 1.400 . S
C1499 C1498 1.400 . S
C1499 C1500 1.398 . S
C1499 C1505 1.491 . S
C1500 H1491 0.950 . S
C1500 C1499 1.398 . S
C1500 C1501 1.391 . S
C1501 H1489 0.950 . S
C1501 C1497 1.393 . S
C1501 C1500 1.391 . S
C1502 H1492 0.950 . S
C1502 C1503 1.386 . S
C1502 C1504 1.391 . S
C1503 C1502 1.386 . S
C1503 C1507 1.393 . S
C1504 H1493 0.950 . S
C1504 C1502 1.391 . S
C1504 C1505 1.400 . S
C1505 C1499 1.491 . S
C1505 C1504 1.400 . S
C1505 C1506 1.398 . S
C1506 H1494 0.950 . S
C1506 C1505 1.398 . S
C1506 C1507 1.391 . S
C1507 H1495 0.950 . S
C1507 C1503 1.393 . S
C1507 C1506 1.391 . S
H1508 C1516 0.950 . S
H1509 C1521 0.950 . S
H1510 C1518 0.950 . S
H1511 C1520 0.950 . S
H1512 C1522 0.950 . S
H1513 C1524 0.950 . S
H1514 C1526 0.950 . S
H1515 C1527 0.950 . S
C1516 H1508 0.950 . S
C1516 C1517 1.386 . S
C1516 C1518 1.391 . S
C1517 C1516 1.386 . S
C1517 C1521 1.393 . S
C1518 H1510 0.950 . S
C1518 C1516 1.391 . S
C1518 C1519 1.400 . S
C1519 C1518 1.400 . S
C1519 C1520 1.398 . S
C1519 C1525 1.491 . S
C1520 H1511 0.950 . S
C1520 C1519 1.398 . S
C1520 C1521 1.391 . S
C1521 H1509 0.950 . S
C1521 C1517 1.393 . S
C1521 C1520 1.391 . S
C1522 H1512 0.950 . S
C1522 C1523 1.386 . S
C1522 C1524 1.391 . S
C1523 C1522 1.386 . S
C1523 C1527 1.393 . S
C1524 H1513 0.950 . S
C1524 C1522 1.391 . S
C1524 C1525 1.400 . S
C1525 C1519 1.491 . S
C1525 C1524 1.400 . S
C1525 C1526 1.398 . S
C1526 H1514 0.950 . S
C1526 C1525 1.398 . S
C1526 C1527 1.391 . S
C1527 H1515 0.950 . S
C1527 C1523 1.393 . S
C1527 C1526 1.391 . S
H1528 C1536 0.950 . S
H1529 C1541 0.950 . S
H1530 C1538 0.950 . S
H1531 C1540 0.950 . S
H1532 C1542 0.950 . S
H1533 C1544 0.950 . S
H1534 C1546 0.950 . S
H1535 C1547 0.950 . S
C1536 H1528 0.950 . S
C1536 C1537 1.386 . S
C1536 C1538 1.391 . S
C1537 C1536 1.386 . S
C1537 C1541 1.393 . S
C1538 H1530 0.950 . S
C1538 C1536 1.391 . S
C1538 C1539 1.400 . S
C1539 C1538 1.400 . S
C1539 C1540 1.398 . S
C1539 C1545 1.491 . S
C1540 H1531 0.950 . S
C1540 C1539 1.398 . S
C1540 C1541 1.391 . S
C1541 H1529 0.950 . S
C1541 C1537 1.393 . S
C1541 C1540 1.391 . S
C1542 H1532 0.950 . S
C1542 C1543 1.386 . S
C1542 C1544 1.391 . S
C1543 C1542 1.386 . S
C1543 C1547 1.393 . S
C1544 H1533 0.950 . S
C1544 C1542 1.391 . S
C1544 C1545 1.400 . S
C1545 C1539 1.491 . S
C1545 C1544 1.400 . S
C1545 C1546 1.398 . S
C1546 H1534 0.950 . S
C1546 C1545 1.398 . S
C1546 C1547 1.391 . S
C1547 H1535 0.950 . S
C1547 C1543 1.393 . S
C1547 C1546 1.391 . S
H1548 C1556 0.950 1_554 S
H1549 C1561 0.950 . S
H1550 C1558 0.967 . S
H1551 C1560 0.950 . S
H1552 C1562 0.950 . S
H1553 C1564 0.950 . S
H1554 C1566 0.950 . S
H1555 C1567 0.950 . S
C1556 H1548 0.950 1_556 S
C1556 C1557 1.386 . S
C1556 C1558 1.389 1_556 S
C1557 C1556 1.386 . S
C1557 C1561 1.393 . S
C1558 H1550 0.967 . S
C1558 C1556 1.389 1_554 S
C1558 C1559 1.386 1_554 S
C1559 C1558 1.386 1_556 S
C1559 C1560 1.398 . S
C1559 C1565 1.491 . S
C1560 H1551 0.950 . S
C1560 C1559 1.398 . S
C1560 C1561 1.391 . S
C1561 H1549 0.950 . S
C1561 C1557 1.393 . S
C1561 C1560 1.391 . S
C1562 H1552 0.950 . S
C1562 C1563 1.386 . S
C1562 C1564 1.391 . S
C1563 C1562 1.386 . S
C1563 C1567 1.393 1_556 S
C1564 H1553 0.950 . S
C1564 C1562 1.391 . S
C1564 C1565 1.400 . S
C1565 C1559 1.491 . S
C1565 C1564 1.400 . S
C1565 C1566 1.398 1_556 S
C1566 H1554 0.950 . S
C1566 C1565 1.398 1_554 S
C1566 C1567 1.391 . S
C1567 H1555 0.950 . S
C1567 C1563 1.393 1_554 S
C1567 C1566 1.391 . S
H1568 C1576 0.950 . S
H1569 C1581 0.950 . S
H1570 C1578 0.950 . S
H1571 C1580 0.950 . S
H1572 C1582 0.950 . S
H1573 C1584 0.950 . S
H1574 C1586 0.950 . S
H1575 C1587 0.950 . S
C1576 H1568 0.950 . S
C1576 C1577 1.386 . S
C1576 C1578 1.391 . S
C1577 C1576 1.386 . S
C1577 C1581 1.393 . S
C1578 H1570 0.950 . S
C1578 C1576 1.391 . S
C1578 C1579 1.400 . S
C1579 C1578 1.400 . S
C1579 C1580 1.398 . S
C1579 C1585 1.491 . S
C1580 H1571 0.950 . S
C1580 C1579 1.398 . S
C1580 C1581 1.391 . S
C1581 H1569 0.950 . S
C1581 C1577 1.393 . S
C1581 C1580 1.391 . S
C1582 H1572 0.950 . S
C1582 C1583 1.386 . S
C1582 C1584 1.391 . S
C1583 C1582 1.386 . S
C1583 C1587 1.393 . S
C1584 H1573 0.950 . S
C1584 C1582 1.391 . S
C1584 C1585 1.400 . S
C1585 C1579 1.491 . S
C1585 C1584 1.400 . S
C1585 C1586 1.398 . S
C1586 H1574 0.950 . S
C1586 C1585 1.398 . S
C1586 C1587 1.391 . S
C1587 H1575 0.950 . S
C1587 C1583 1.393 . S
C1587 C1586 1.391 . S
H1588 C1596 0.950 1_556 S
H1589 C1601 0.950 . S
H1590 C1598 0.950 1_556 S
H1591 C1600 0.950 . S
H1592 C1602 0.950 . S
H1593 C1604 0.950 . S
H1594 C1606 0.924 1_556 S
H1595 C1607 0.950 . S
C1596 H1588 0.950 1_554 S
C1596 C1597 1.386 . S
C1596 C1598 1.391 . S
C1597 C1596 1.386 . S
C1597 C1601 1.393 . S
C1598 H1590 0.950 1_554 S
C1598 C1596 1.391 . S
C1598 C1599 1.400 . S
C1599 C1598 1.400 . S
C1599 C1600 1.398 . S
C1599 C1605 1.491 . S
C1600 H1591 0.950 . S
C1600 C1599 1.398 . S
C1600 C1601 1.391 . S
C1601 H1589 0.950 . S
C1601 C1597 1.393 . S
C1601 C1600 1.391 . S
C1602 H1592 0.950 . S
C1602 C1603 1.386 . S
C1602 C1604 1.391 . S
C1603 C1602 1.386 . S
C1603 C1607 1.393 1_554 S
C1604 H1593 0.950 . S
C1604 C1602 1.391 . S
C1604 C1605 1.400 . S
C1605 C1599 1.491 . S
C1605 C1604 1.400 . S
C1605 C1606 1.432 . S
C1606 H1594 0.924 1_554 S
C1606 C1605 1.432 . S
C1606 C1607 1.385 1_554 S
C1607 H1595 0.950 . S
C1607 C1603 1.393 1_556 S
C1607 C1606 1.385 1_556 S
H1608 C1616 0.950 1_545 S
H1609 C1621 0.950 . S
H1610 C1618 0.950 . S
H1611 C1620 0.950 . S
H1612 C1622 0.950 . S
H1613 C1624 0.950 . S
H1614 C1626 0.950 1_556 S
H1615 C1627 0.950 1_556 S
C1616 H1608 0.950 1_565 S
C1616 C1617 1.386 . S
C1616 C1618 1.391 . S
C1617 C1616 1.386 . S
C1617 C1621 1.393 . S
C1618 H1610 0.950 . S
C1618 C1616 1.391 . S
C1618 C1619 1.400 . S
C1619 C1618 1.400 . S
C1619 C1620 1.398 . S
C1619 C1625 1.491 . S
C1620 H1611 0.950 . S
C1620 C1619 1.398 . S
C1620 C1621 1.391 . S
C1621 H1609 0.950 . S
C1621 C1617 1.393 . S
C1621 C1620 1.391 . S
C1622 H1612 0.950 . S
C1622 C1623 1.386 . S
C1622 C1624 1.391 . S
C1623 C1622 1.386 . S
C1623 C1627 1.393 . S
C1624 H1613 0.950 . S
C1624 C1622 1.391 . S
C1624 C1625 1.400 . S
C1625 C1619 1.491 . S
C1625 C1624 1.400 . S
C1625 C1626 1.398 . S
C1626 H1614 0.950 1_554 S
C1626 C1625 1.398 . S
C1626 C1627 1.391 . S
C1627 H1615 0.950 1_554 S
C1627 C1623 1.393 . S
C1627 C1626 1.391 . S
C683 C522 1.389 . S
C677 C177 1.360 . S
C703 C535 1.619 . S
C697 C209 1.609 . S
C717 C253 1.395 . S
C723 C548 1.409 . S
C743 C561 1.529 . S
C737 C157 1.510 . S
C763 C569 1.469 . S
C757 C343 1.492 . S
C783 C582 1.415 . S
C777 C401 1.391 . S
C797 C369 1.525 . S
C803 C595 1.510 . S
C823 C608 1.505 . S
C817 C317 1.490 . S
C837 C375 1.441 . S
C843 C626 1.451 . S
C863 C637 1.552 . S
C857 C305 1.558 . S
C877 C349 1.460 . S
C883 C621 1.467 . S
C903 C629 1.472 . S
C897 C413 1.466 . S
C917 C241 1.444 . S
C923 C652 1.462 . S
C937 C151 1.465 . S
C943 C642 1.465 . S
C957 C189 1.473 . S
C963 C647 1.489 . S
C977 C215 1.540 . S
C983 C650 1.539 . S
C997 C113 1.422 . S
C1003 C559 1.411 . S
C1017 C471 1.374 . S
C1023 C551 1.403 . S
C1043 C520 1.555 . S
C1037 C509 1.548 . S
C1063 C525 1.487 . S
C1057 C279 1.474 . S
C1077 C145 1.477 . S
C1083 C572 1.481 . S
C1103 C611 1.544 . S
C1097 C381 1.551 . S
C1123 C564 1.499 . S
C1117 C311 1.506 . S
C1143 C590 1.433 . S
C1137 C407 1.430 . S
C1163 C600 1.394 . S
C1157 C465 1.352 . S
C1177 C497 1.605 . S
C1183 C613 1.608 . S
C1197 C285 1.374 . S
C1203 C574 1.398 . S
C1223 C587 1.534 . S
C1217 C445 1.501 . S
C1237 C119 1.494 . S
C1243 C543 1.467 . S
C1263 C556 1.398 . S
C1257 C17 1.402 . S
C1283 C517 1.515 . S
C1277 C49 1.522 . S
C1303 C530 1.491 . S
C1297 C93 1.487 . S
C1317 C55 1.434 . S
C1323 C639 1.449 . S
C1337 C81 1.569 . S
C1343 C624 1.538 1_655 S
C1357 C125 1.458 . S
C1363 C634 1.470 . S
C1377 C29 1.446 1_556 S
C1383 C616 1.454 . S
C1403 C665 1.462 . S
C1397 C273 1.443 . S
C1423 C655 1.460 . S
C1417 C439 1.460 . S
C1443 C660 1.498 . S
C1437 C477 1.485 . S
C1457 C503 1.547 . S
C1463 C663 1.530 . S
C1477 C337 1.433 . S
C1483 C585 1.408 . S
C1503 C577 1.405 . S
C1497 C183 1.386 . S
C1523 C598 1.554 . S
C1517 C221 1.550 . S
C1543 C603 1.496 . S
C1537 C247 1.477 . S
C1557 C433 1.462 . S
C1563 C546 1.473 . S
C1583 C533 1.555 . S
C1577 C61 1.541 . S
C1597 C87 1.509 . S
C1603 C538 1.497 . S
C1623 C512 1.432 . S
C1617 C23 1.429 1_565 S
