# Generated by pormake.
# Topology ftw, (4,12)-cn, num edge types: 1
# Building blocks:
#     Node 0, Type 0, BuildingBlock: GIZVER_clean_linker_0, # of connection points: 4
#     Node 1, Type 0, BuildingBlock: GIZVER_clean_linker_0, # of connection points: 4
#     Node 2, Type 0, BuildingBlock: GIZVER_clean_linker_0, # of connection points: 4
#     Node 3, Type 1, BuildingBlock: EZIPEK_clean_sbu_0, # of connection points: 12
#     Edge 4, Type (0, 1), BuildingBlock: MIFKUJ_clean_linker_0, # of connection points: 2
#     Edge 5, Type (0, 1), BuildingBlock: MIFKUJ_clean_linker_0, # of connection points: 2
#     Edge 6, Type (0, 1), BuildingBlock: MIFKUJ_clean_linker_0, # of connection points: 2
#     Edge 7, Type (0, 1), BuildingBlock: MIFKUJ_clean_linker_0, # of connection points: 2
#     Edge 8, Type (0, 1), BuildingBlock: MIFKUJ_clean_linker_0, # of connection points: 2
#     Edge 9, Type (0, 1), BuildingBlock: MIFKUJ_clean_linker_0, # of connection points: 2
#     Edge 10, Type (0, 1), BuildingBlock: MIFKUJ_clean_linker_0, # of connection points: 2
#     Edge 11, Type (0, 1), BuildingBlock: MIFKUJ_clean_linker_0, # of connection points: 2
#     Edge 12, Type (0, 1), BuildingBlock: MIFKUJ_clean_linker_0, # of connection points: 2
#     Edge 13, Type (0, 1), BuildingBlock: MIFKUJ_clean_linker_0, # of connection points: 2
#     Edge 14, Type (0, 1), BuildingBlock: MIFKUJ_clean_linker_0, # of connection points: 2
#     Edge 15, Type (0, 1), BuildingBlock: MIFKUJ_clean_linker_0, # of connection points: 2
# Relax obj value: 0.085
# Max RMSD: 0.239
# Mean RMSD: 0.181
data_MOF--net-ftw--node1-EZIPEK_clean_sbu_0--node2-GIZVER_clean_linker_0--edge1-MIFKUJ_clean_linker_0
_symmetry_space_group_name_H-M    P1
_symmetry_Int_Tables_number       1
_symmetry_cell_setting            triclinic
loop_
_symmetry_equiv_pos_as_xyz
'x, y, z'
_cell_length_a     32.392275
_cell_length_b     30.387179
_cell_length_c     29.442611
_cell_angle_alpha  89.755956
_cell_angle_beta   89.896387
_cell_angle_gamma 90.249351
loop_
_atom_site_label
_atom_site_type_symbol
_atom_site_fract_x
_atom_site_fract_y
_atom_site_fract_z
_atom_type_partial_charge
H0 H 0.91183 0.47225 0.41187 0.0
H1 H 0.91595 0.46054 0.55711 0.0
H2 H 1.0126 0.40474 0.47557 0.0
H3 H 0.85369 0.49619 0.45907 0.0
H4 H 0.856 0.49215 0.51975 0.0
H5 H 0.88113 0.56057 0.4198 0.0
H6 H 0.92926 0.66824 0.49821 0.0
H7 H 0.89857 0.54604 0.56402 0.0
C8 C 0.92797 0.46165 0.44218 0.0
C9 C 0.96329 0.43528 0.43858 0.0
C10 C 0.91197 0.47248 0.48513 0.0
C11 C 0.93042 0.455 0.52446 0.0
C12 C 0.96602 0.42885 0.52129 0.0
C13 C 0.98386 0.4226 0.47838 0.0
C14 C 0.8742 0.50104 0.48894 0.0
C15 C 0.88732 0.54855 0.49177 0.0
C16 C 0.8902 0.57444 0.45215 0.0
C17 C 0.90476 0.61799 0.45426 0.0
C18 C 0.91716 0.63499 0.49634 0.0
C19 C 0.9151 0.60942 0.53602 0.0
C20 C 0.89975 0.56628 0.53363 0.0
H21 H 0.48865 0.08793 0.42573 0.0
H22 H 0.49729 0.05807 0.56859 0.0
H23 H 0.38934 0.02023 0.49317 0.0
H24 H 0.53779 0.12746 0.47414 0.0
H25 H 0.53891 0.11786 0.53393 0.0
H26 H 0.5735 0.07657 0.42125 0.0
H27 H 0.67618 1.00645 0.47755 0.0
H28 H 0.58659 0.06569 0.5663 0.0
C29 C 0.47606 0.07246 0.456 0.0
C30 C 0.43675 0.05291 0.45458 0.0
C31 C 0.49794 0.07464 0.49726 0.0
C32 C 0.48071 0.05583 0.53673 0.0
C33 C 0.44157 0.03578 0.53555 0.0
C34 C 0.42015 0.03426 0.49423 0.0
C35 C 0.53735 0.10105 0.50046 0.0
C36 C 0.57478 0.07232 0.49448 0.0
C37 C 0.58956 0.0635 0.45061 0.0
C38 C 0.62607 0.03971 0.44455 0.0
C39 C 0.64751 0.02408 0.48258 0.0
C40 C 0.63419 0.03395 0.5268 0.0
C41 C 0.59701 0.05713 0.53249 0.0
H42 H 0.57784 0.44274 0.01291 0.0
H43 H 0.58145 0.58339 0.0297 0.0
H44 H 0.69002 0.51553 0.98689 0.0
H45 H 0.5338 0.47988 0.06957 0.0
H46 H 0.53464 0.53773 0.07515 0.0
H47 H 0.49046 0.4438 0.01189 0.0
H48 H 0.38045 0.51724 0.98193 0.0
H49 H 0.48813 0.58422 0.03121 0.0
C50 C 0.59447 0.47357 0.00974 0.0
C51 C 0.63642 0.47373 -0.00377 0.0
C52 C 0.57433 0.51298 0.02212 0.0
C53 C 0.59604 0.55322 0.01868 0.0
C54 C 0.63783 0.55398 0.00585 0.0
C55 C 0.65738 0.5144 -0.00527 0.0
C56 C 0.53448 0.51097 0.04944 0.0
C57 C 0.49473 0.51392 0.02225 0.0
C58 C 0.47455 0.47493 0.00853 0.0
C59 C 0.43313 0.4756 -0.00618 0.0
C60 C 0.41268 0.51626 -0.00836 0.0
C61 C 0.43208 0.55559 0.00477 0.0
C62 C 0.47353 0.55437 0.01904 0.0
C63 C 0.03686 0.11286 0.87063 0.0
C64 C 0.03309 0.13159 0.08791 0.0
C65 C 0.02905 0.89982 0.89039 0.0
C66 C 0.0342 0.91825 0.10924 0.0
C67 C 0.13522 0.90852 -0.00405 0.0
C68 C 0.13546 0.12176 0.98294 0.0
C69 C 0.93417 0.9089 0.00129 0.0
C70 C 0.93458 0.12108 0.98064 0.0
C71 C 0.93456 0.02268 0.09878 0.0
C72 C 0.13543 0.02266 0.09914 0.0
C73 C 0.93508 1.00287 0.88001 0.0
C74 C 0.13546 1.00765 0.88033 0.0
Eu75 Eu 0.03509 0.0977 0.9816 0.0
O76 O 0.0717 0.05759 0.0263 0.0
O77 O 0.99817 0.0508 0.94481 0.0
Eu78 Eu 0.11291 0.01514 -0.01029 0.0
Eu79 Eu 0.95722 1.01487 -0.01073 0.0
O80 O 0.07183 0.05054 0.94555 0.0
O81 O 0.99845 0.05718 0.02615 0.0
Eu82 Eu 0.03524 1.00801 0.90338 0.0
Eu83 Eu 0.03498 0.02273 0.0757 0.0
O84 O 0.0716 0.97263 0.95278 0.0
O85 O 0.07145 0.97959 0.03388 0.0
O86 O 0.99856 0.97979 0.03345 0.0
O87 O 0.99896 0.97301 0.95313 0.0
Eu88 Eu 0.03483 0.93208 -0.00243 0.0
O89 O 0.03737 0.12912 0.91252 0.0
O90 O 0.0335 0.14045 0.0436 0.0
O91 O 0.02903 0.89017 0.93464 0.0
O92 O 0.0355 0.90148 0.06747 0.0
O93 O 0.14764 0.95039 -0.00764 0.0
O94 O 0.14783 0.08008 -0.01266 0.0
O95 O 0.92213 0.95042 -0.00504 0.0
O96 O 0.92229 0.07924 0.98465 0.0
O97 O 0.97363 0.02526 0.11312 0.0
O98 O 0.09627 0.02593 0.11317 0.0
O99 O 0.97426 1.00351 0.86573 0.0
O100 O 0.09649 1.00366 0.86612 0.0
O101 O 0.97338 0.89551 0.00432 0.0
O102 O 0.09588 0.89512 -0.00144 0.0
O103 O 0.97392 0.13451 0.97815 0.0
O104 O 0.09622 0.13484 0.97961 0.0
O105 O 0.03397 0.09136 0.10655 0.0
O106 O 0.03361 0.96106 0.11942 0.0
O107 O 0.03525 0.07019 0.85976 0.0
O108 O 0.03268 0.93998 0.87217 0.0
O109 O 0.14757 1.01323 0.92318 0.0
O110 O 0.14762 0.01783 0.05615 0.0
O111 O 0.92271 1.00676 0.92306 0.0
O112 O 0.92261 0.01871 0.05567 0.0
H113 H 0.98905 0.35134 0.42561 0.0
H114 H 1.00794 0.31562 0.35552 0.0
H115 H 0.98064 0.43401 0.2804 0.0
H116 H 0.9631 0.47161 0.35189 0.0
H117 H 0.94348 0.35111 0.24708 0.0
H118 H 0.07492 0.41121 0.28153 0.0
H119 H 0.13384 0.43213 0.32982 0.0
H120 H 0.15577 0.29613 0.36124 0.0
H121 H 0.09658 0.27438 0.31371 0.0
H122 H 1.01617 0.21673 0.06439 0.0
H123 H 1.00983 0.28003 0.11431 0.0
H124 H 0.03744 0.19793 0.23004 0.0
H125 H 0.04404 0.13396 0.18033 0.0
H126 H 0.07991 0.27932 0.22917 0.0
H127 H 0.94123 0.2219 0.20913 0.0
H128 H 0.88108 0.19889 0.16375 0.0
H129 H 0.87209 0.32892 0.10705 0.0
H130 H 0.93271 0.35255 0.1517 0.0
C131 C 0.98817 0.37063 0.39462 0.0
C132 C 0.97553 0.4149 0.39473 0.0
C133 C 0.99868 0.34984 0.35441 0.0
C134 C 0.99631 0.37239 0.31302 0.0
C135 C 0.98298 0.4163 0.31229 0.0
C136 C 0.97287 0.4376 0.35303 0.0
C137 C 1.00617 0.34807 0.2711 0.0
C138 C 0.97365 0.33649 0.24208 0.0
C139 C 0.04533 0.32839 0.26548 0.0
C140 C 0.08116 0.34118 0.29408 0.0
C141 C 0.09211 0.38576 0.29896 0.0
C142 C 0.12561 0.39777 0.32618 0.0
C143 C 0.14852 0.36549 0.3486 0.0
C144 C 0.13801 0.32111 0.34381 0.0
C145 C 0.10453 0.30891 0.31666 0.0
C146 C 0.02121 0.21195 0.10042 0.0
C147 C 0.03051 0.17007 0.11839 0.0
C148 C 1.01744 0.24827 0.12884 0.0
C149 C 0.02295 0.24351 0.17572 0.0
C150 C 0.03313 0.20213 0.1938 0.0
C151 C 0.03665 0.16561 0.1654 0.0
C152 C 1.0169 0.28133 0.2063 0.0
C153 C 0.05015 0.29512 0.23313 0.0
C154 C 0.97839 0.3029 0.20995 0.0
C155 C 0.94184 0.28883 0.18328 0.0
C156 C 0.92668 0.24548 0.18666 0.0
C157 C 0.89245 0.23235 0.16114 0.0
C158 C 0.87286 0.26239 0.13239 0.0
C159 C 0.88739 0.30567 0.12924 0.0
C160 C 0.92167 0.31895 0.15466 0.0
H161 H 0.84636 0.25218 0.11269 0.0
H162 H 0.17444 0.37485 0.36965 0.0
H163 H 0.65099 0.96618 0.39951 0.0
H164 H 0.69802 0.96374 0.33426 0.0
H165 H 0.69661 0.10566 0.32652 0.0
H166 H 0.64805 0.10785 0.39009 0.0
H167 H 0.70612 0.07619 0.24587 0.0
H168 H 0.77016 0.04802 0.38882 0.0
H169 H 0.78026 1.01053 0.46241 0.0
H170 H 0.80522 0.88924 0.39346 0.0
H171 H 0.79429 0.92579 0.31947 0.0
H172 H 0.94095 0.0448 0.18887 0.0
H173 H 0.88496 0.05015 0.2444 0.0
H174 H 0.79738 1.00907 0.14264 0.0
H175 H 0.85264 1.00438 0.08693 0.0
H176 H 0.83425 0.99344 0.27961 0.0
H177 H 0.70555 0.05923 0.15823 0.0
H178 H 0.69989 0.10728 0.09077 0.0
H179 H 0.81367 0.17136 0.12594 0.0
H180 H 0.81975 0.12425 0.19403 0.0
C181 C 0.65976 0.99663 0.38276 0.0
C182 C 0.64613 0.03718 0.39962 0.0
C183 C 0.68686 0.99532 0.34584 0.0
C184 C 0.70182 0.03461 0.32634 0.0
C185 C 0.6857 0.07494 0.34107 0.0
C186 C 0.65789 0.07619 0.37732 0.0
C187 C 0.73699 0.03404 0.29393 0.0
C188 C 0.734 0.05782 0.25307 0.0
C189 C 0.77414 1.01159 0.30415 0.0
C190 C 0.78109 0.98957 0.3486 0.0
C191 C 0.77755 1.01329 0.38936 0.0
C192 C 0.78339 0.99221 0.43115 0.0
C193 C 0.79333 0.94753 0.4326 0.0
C194 C 0.79747 0.92385 0.39227 0.0
C195 C 0.79144 0.94472 0.3504 0.0
C196 C 0.90974 0.0369 0.17827 0.0
C197 C 0.90129 0.02461 0.13325 0.0
C198 C 0.87782 0.03997 0.21008 0.0
C199 C 0.83689 0.03078 0.19745 0.0
C200 C 0.82855 0.01743 0.15287 0.0
C201 C 0.86032 1.01458 0.12104 0.0
C202 C 0.80286 0.03435 0.23094 0.0
C203 C 0.80619 1.01137 0.27214 0.0
C204 C 0.76679 0.05904 0.22182 0.0
C205 C 0.76327 0.08781 0.18104 0.0
C206 C 0.72929 0.08368 0.15169 0.0
C207 C 0.72603 0.11076 0.11334 0.0
C208 C 0.75648 0.14227 0.10404 0.0
C209 C 0.79021 0.14685 0.13315 0.0
C210 C 0.7936 0.11991 0.17159 0.0
H211 H 0.75389 0.1632 0.07435 0.0
H212 H 0.79792 0.9313 0.46495 0.0
H213 H 0.93356 0.59305 0.37056 0.0
H214 H 0.95258 0.64132 0.30719 0.0
H215 H 0.90877 0.75368 0.38206 0.0
H216 H 0.88726 0.7054 0.44409 0.0
H217 H 0.89565 0.76735 0.29617 0.0
H218 H 1.01161 0.71983 0.38568 0.0
H219 H 0.05754 0.66539 0.42164 0.0
H220 H 0.08793 0.61281 0.29068 0.0
H221 H 0.0417 0.6666 0.25398 0.0
H222 H 1.01551 0.93508 0.19838 0.0
H223 H 0.99615 0.88124 0.25654 0.0
H224 H 0.02257 0.77553 0.16383 0.0
H225 H 0.0426 0.82878 0.10565 0.0
H226 H 0.04414 0.75717 0.25535 0.0
H227 H 0.93019 0.81499 0.16717 0.0
H228 H 0.8923 0.87879 0.1368 0.0
H229 H 0.86139 0.91867 0.27234 0.0
H230 H 0.90048 0.85613 0.30362 0.0
C231 C 0.92677 0.62783 0.37293 0.0
C232 C 0.90971 0.64552 0.41278 0.0
C233 C 0.93809 0.65548 0.33688 0.0
C234 C 0.93327 0.7013 0.34046 0.0
C235 C 0.91325 0.71853 0.37867 0.0
C236 C 0.90138 0.69091 0.41435 0.0
C237 C 0.95232 0.73168 0.30674 0.0
C238 C 0.92812 0.76515 0.28743 0.0
C239 C 0.99476 0.72896 0.29522 0.0
C240 C 0.02288 0.69689 0.31715 0.0
C241 C 0.02791 0.69647 0.36459 0.0
C242 C 0.054 0.66576 0.3851 0.0
C243 C 0.07555 0.63558 0.35847 0.0
C244 C 0.07116 0.63616 0.31126 0.0
C245 C 0.04503 0.66675 0.29059 0.0
C246 C 1.01818 0.9004 0.1906 0.0
C247 C 0.0298 0.88631 0.14699 0.0
C248 C 1.00706 0.86971 0.2239 0.0
C249 C 1.00722 0.82457 0.21401 0.0
C250 C 0.02203 0.81028 0.17191 0.0
C251 C 0.03317 0.84087 0.13861 0.0
C252 C 0.98756 0.79264 0.2453 0.0
C253 C 1.01159 0.75895 0.26392 0.0
C254 C 0.94521 0.79569 0.25678 0.0
C255 C 0.91868 0.83105 0.2378 0.0
C256 C 0.91554 0.83751 0.19054 0.0
C257 C 0.89412 0.87368 0.17315 0.0
C258 C 0.87468 0.90298 0.20265 0.0
C259 C 0.87655 0.89607 0.24955 0.0
C260 C 0.89844 0.86031 0.26713 0.0
H261 H 0.85787 0.93077 0.18915 0.0
H262 H 0.09574 0.61182 0.37441 0.0
H263 H 0.45591 0.02593 0.36817 0.0
H264 H 0.40839 0.02049 0.30323 0.0
H265 H 0.31169 0.07855 0.38391 0.0
H266 H 0.35863 0.08362 0.44837 0.0
H267 H 0.28573 1.00426 0.34491 0.0
H268 H 0.36021 0.13514 0.29776 0.0
H269 H 0.4222 0.17822 0.27708 0.0
H270 H 0.44811 0.08844 0.16857 0.0
H271 H 0.38656 0.04447 0.18902 0.0
H272 H 0.12951 0.05231 0.18666 0.0
H273 H 0.18434 0.05663 0.24328 0.0
H274 H 0.27055 1.0013 0.14757 0.0
H275 H 0.21619 0.9978 0.09038 0.0
H276 H 0.30533 0.06802 0.191 0.0
H277 H 0.22997 0.9392 0.2346 0.0
H278 H 0.16813 0.89537 0.25405 0.0
H279 H 0.14489 0.97876 0.36857 0.0
H280 H 0.20625 0.02352 0.34941 0.0
C281 C 0.4247 0.03816 0.37155 0.0
C282 C 0.41072 0.05474 0.41328 0.0
C283 C 0.39759 0.03501 0.33459 0.0
C284 C 0.35638 0.0489 0.33883 0.0
C285 C 0.34315 0.0672 0.37997 0.0
C286 C 0.37001 0.07014 0.41673 0.0
C287 C 0.32602 0.04252 0.30168 0.0
C288 C 0.28985 0.01859 0.31138 0.0
C289 C 0.33204 0.05984 0.25748 0.0
C290 C 0.36906 0.08623 0.24527 0.0
C291 C 0.37934 0.12435 0.26976 0.0
C292 C 0.41435 0.14898 0.25803 0.0
C293 C 0.43915 0.136 0.22163 0.0
C294 C 0.42892 0.09841 0.19681 0.0
C295 C 0.39397 0.07364 0.20844 0.0
C296 C 0.16007 0.04087 0.17766 0.0
C297 C 0.16835 0.02462 0.13397 0.0
C298 C 0.1914 0.04329 0.21012 0.0
C299 C 0.23149 0.0288 0.19987 0.0
C300 C 0.2399 1.01274 0.15625 0.0
C301 C 0.2087 1.0107 0.12361 0.0
C302 C 0.2646 0.03071 0.23465 0.0
C303 C 0.30133 0.05349 0.22446 0.0
C304 C 0.25927 1.01209 0.27841 0.0
C305 C 0.22256 0.98494 0.29034 0.0
C306 C 0.21153 0.94837 0.26376 0.0
C307 C 0.17657 0.92334 0.27476 0.0
C308 C 0.15255 0.93433 0.31247 0.0
C309 C 0.16351 0.97031 0.33935 0.0
C310 C 0.1984 0.9955 0.32846 0.0
H311 H 0.12548 0.91492 0.3209 0.0
H312 H 0.46623 0.15512 0.21258 0.0
H313 H 0.98634 0.65486 0.55051 0.0
H314 H 1.00678 0.69433 0.61873 0.0
H315 H 0.89837 0.64562 0.68838 0.0
H316 H 0.87696 0.60698 0.61916 0.0
H317 H 0.90593 0.73197 0.69919 0.0
H318 H 0.99494 0.60999 0.71832 0.0
H319 H 0.04584 0.55366 0.6969 0.0
H320 H 0.13566 0.65458 0.66903 0.0
H321 H 0.08511 0.7116 0.6896 0.0
H322 H 0.98388 0.82578 0.90654 0.0
H323 H 0.96597 0.76793 0.85232 0.0
H324 H 0.03931 0.83273 0.74939 0.0
H325 H 0.0566 0.89152 0.80311 0.0
H326 H 0.0472 0.73116 0.76429 0.0
H327 H 0.95198 0.85184 0.73351 0.0
H328 H 0.90079 0.90726 0.75663 0.0
H329 H 0.82249 0.80517 0.81043 0.0
H330 H 0.87354 0.74914 0.78798 0.0
C331 C 0.96696 0.65233 0.58044 0.0
C332 C 0.92984 0.62825 0.57943 0.0
C333 C 0.9789 0.67452 0.6196 0.0
C334 C 0.95428 0.67266 0.65882 0.0
C335 C 0.91786 0.64739 0.65849 0.0
C336 C 0.90582 0.62513 0.61912 0.0
C337 C 0.96532 0.70001 0.69861 0.0
C338 C 0.93654 0.73103 0.71406 0.0
C339 C 1.00545 0.6993 0.71765 0.0
C340 C 0.03608 0.66512 0.70525 0.0
C341 C 0.02544 0.62022 0.70729 0.0
C342 C 0.05426 0.58815 0.69535 0.0
C343 C 0.09394 0.60054 0.68155 0.0
C344 C 0.10491 0.64503 0.67973 0.0
C345 C 0.07619 0.67725 0.69159 0.0
C346 C 0.99668 0.8274 0.87254 0.0
C347 C 0.02168 0.86306 0.85894 0.0
C348 C 0.98629 0.79446 0.84168 0.0
C349 C 1.00137 0.7963 0.79711 0.0
C350 C 0.02755 0.83092 0.78383 0.0
C351 C 0.03724 0.86443 0.81439 0.0
C352 C 0.98816 0.7632 0.76368 0.0
C353 C 1.01648 0.73132 0.74967 0.0
C354 C 0.94758 0.76281 0.74624 0.0
C355 C 0.91679 0.79638 0.75958 0.0
C356 C 0.92404 0.84126 0.75067 0.0
C357 C 0.895 0.87278 0.76354 0.0
C358 C 0.85846 0.85979 0.78512 0.0
C359 C 0.85084 0.81521 0.79376 0.0
C360 C 0.87979 0.78355 0.78092 0.0
H361 H 0.836 0.88424 0.79502 0.0
H362 H 0.11621 0.57566 0.67232 0.0
H363 H 0.4399 0.07717 0.61795 0.0
H364 H 0.39281 0.06191 0.68108 0.0
H365 H 0.34562 0.94825 0.6107 0.0
H366 H 0.3937 0.96223 0.5481 0.0
H367 H 0.28574 1.01336 0.63319 0.0
H368 H 0.39397 0.93011 0.70358 0.0
H369 H 0.46426 0.91737 0.73264 0.0
H370 H 0.45024 0.02412 0.82642 0.0
H371 H 0.38004 0.03793 0.79746 0.0
H372 H 0.13628 0.96069 0.80148 0.0
H373 H 0.19231 0.95667 0.74576 0.0
H374 H 0.26403 0.04843 0.82516 0.0
H375 H 0.20908 0.05069 0.88189 0.0
H376 H 0.31231 0.98839 0.79708 0.0
H377 H 0.20811 0.07679 0.72531 0.0
H378 H 0.13852 0.09366 0.69621 0.0
H379 H 0.14609 0.98492 0.60407 0.0
H380 H 0.21526 0.96666 0.63334 0.0
C381 C 0.42068 0.04796 0.6166 0.0
C382 C 0.42018 0.02122 0.57772 0.0
C383 C 0.3936 0.03945 0.65261 0.0
C384 C 0.36557 1.00422 0.65021 0.0
C385 C 0.36688 0.97578 0.61292 0.0
C386 C 0.39427 0.98392 0.5772 0.0
C387 C 0.33189 1.00017 0.68391 0.0
C388 C 0.29134 1.00711 0.66897 0.0
C389 C 0.33963 0.99352 0.73059 0.0
C390 C 0.38186 0.9853 0.74804 0.0
C391 C 0.406 0.95114 0.7301 0.0
C392 C 0.44581 0.94367 0.74662 0.0
C393 C 0.46174 0.96999 0.78128 0.0
C394 C 0.43787 1.00378 0.79955 0.0
C395 C 0.39805 1.01142 0.78312 0.0
C396 C 0.164 0.98004 0.80685 0.0
C397 C 0.16838 1.00608 0.84582 0.0
C398 C 0.19596 0.97784 0.77498 0.0
C399 C 0.23223 1.00275 0.78087 0.0
C400 C 0.23647 0.02878 0.81988 0.0
C401 C 0.205 0.03017 0.8522 0.0
C402 C 0.26586 1.00198 0.74655 0.0
C403 C 0.30647 0.99432 0.7613 0.0
C404 C 0.25827 1.00886 0.69968 0.0
C405 C 0.21672 0.02005 0.68189 0.0
C406 C 0.19482 0.05626 0.69909 0.0
C407 C 0.15547 0.06611 0.68255 0.0
C408 C 0.13793 0.0404 0.64835 0.0
C409 C 0.1597 1.00478 0.63061 0.0
C410 C 0.19895 0.99462 0.64719 0.0
H411 H 0.10749 0.04812 0.63557 0.0
H412 H 0.49256 0.96414 0.79403 0.0
H413 H 0.99964 0.34632 0.52018 0.0
H414 H 1.02042 0.30104 0.58361 0.0
H415 H 0.9841 0.40265 0.67689 0.0
H416 H 0.96585 0.4507 0.6128 0.0
H417 H 0.07683 0.31863 0.6637 0.0
H418 H 0.92491 0.33781 0.7532 0.0
H419 H 0.85301 0.36067 0.73852 0.0
H420 H 0.86116 0.31022 0.60277 0.0
H421 H 0.93277 0.28649 0.61705 0.0
H422 H 0.07031 0.19491 0.8729 0.0
H423 H 0.06441 0.25289 0.81567 0.0
H424 H 0.9974 0.16422 0.72839 0.0
H425 H 1.00327 0.10562 0.7857 0.0
H426 H 0.95863 0.24778 0.74342 0.0
H427 H 0.0929 0.18789 0.70247 0.0
H428 H 0.16474 0.16631 0.71889 0.0
H429 H 0.19353 0.29872 0.75823 0.0
H430 H 0.12178 0.32106 0.74264 0.0
C431 C 0.99758 0.3604 0.5538 0.0
C432 C 0.98147 0.40289 0.5609 0.0
C433 C 1.00927 0.33399 0.59017 0.0
C434 C 1.00398 0.34865 0.63467 0.0
C435 C 0.98855 0.39103 0.6425 0.0
C436 C 0.97773 0.41818 0.60584 0.0
C437 C 1.01079 0.31721 0.67215 0.0
C438 C 0.05114 0.30348 0.68167 0.0
C439 C 0.97718 0.2973 0.69497 0.0
C440 C 0.93409 0.31073 0.68613 0.0
C441 C 0.91118 0.33148 0.72034 0.0
C442 C 0.87054 0.34457 0.71209 0.0
C443 C 0.85256 0.33699 0.6697 0.0
C444 C 0.87515 0.31617 0.63555 0.0
C445 C 0.91575 0.30291 0.6437 0.0
C446 C 0.0546 0.18758 0.84135 0.0
C447 C 0.03706 0.1458 0.83374 0.0
C448 C 0.05139 0.22072 0.80872 0.0
C449 C 0.03043 0.21275 0.76802 0.0
C450 C 1.01364 0.17084 0.75978 0.0
C451 C 1.01727 0.1374 0.79228 0.0
C452 C 0.02476 0.2487 0.73479 0.0
C453 C 0.98451 0.26328 0.72608 0.0
C454 C 0.05861 0.26951 0.71299 0.0
C455 C 0.10186 0.25606 0.72177 0.0
C456 C 0.11446 0.21234 0.71493 0.0
C457 C 0.15516 0.19998 0.72402 0.0
C458 C 0.1836 0.23107 0.73968 0.0
C459 C 0.17145 0.27466 0.74614 0.0
C460 C 0.1308 0.2872 0.73713 0.0
H461 H 0.21508 0.2214 0.74672 0.0
H462 H 0.82112 0.34719 0.66335 0.0
H463 H 0.71797 0.043 0.53037 0.0
H464 H 0.76383 0.02781 0.59363 0.0
H465 H 0.65963 0.99053 0.67685 0.0
H466 H 0.61298 1.00486 0.61273 0.0
H467 H 0.7144 0.04616 0.72116 0.0
H468 H 0.72127 0.91159 0.63946 0.0
H469 H 0.72855 0.86428 0.57213 0.0
H470 H 0.85111 0.91427 0.54975 0.0
H471 H 0.8444 0.96234 0.61666 0.0
H472 H 0.85448 0.97862 0.89334 0.0
H473 H 0.79972 0.9738 0.83665 0.0
H474 H 0.88645 1.01052 0.73166 0.0
H475 H 0.94165 1.01466 0.78796 0.0
H476 H 0.83407 0.94612 0.70349 0.0
H477 H 0.82485 0.08391 0.78397 0.0
H478 H 0.81832 0.12759 0.85388 0.0
H479 H 0.69828 0.07208 0.87846 0.0
H480 H 0.70502 0.02604 0.81004 0.0
C481 C 0.70462 0.0307 0.56172 0.0
C482 C 0.6617 0.02436 0.5661 0.0
C483 C 0.731 0.02226 0.59802 0.0
C484 C 0.71525 1.00736 0.63973 0.0
C485 C 0.67241 1.00177 0.6448 0.0
C486 C 0.64582 1.01006 0.60821 0.0
C487 C 0.74402 0.99879 0.67791 0.0
C488 C 0.74009 0.02363 0.71775 0.0
C489 C 0.77787 0.96984 0.6731 0.0
C490 C 0.78221 0.94078 0.63296 0.0
C491 C 0.74968 0.91272 0.62002 0.0
C492 C 0.75373 0.88571 0.58197 0.0
C493 C 0.79027 0.88627 0.55669 0.0
C494 C 0.82285 0.91383 0.56943 0.0
C495 C 0.81896 0.94092 0.60746 0.0
C496 C 0.862 0.98559 0.85818 0.0
C497 C 0.90238 0.9977 0.8453 0.0
C498 C 0.83064 0.9827 0.82582 0.0
C499 C 0.83886 0.99248 0.78007 0.0
C500 C 0.87941 1.00294 0.76683 0.0
C501 C 0.9109 1.00545 0.7991 0.0
C502 C 0.805 0.99425 0.74625 0.0
C503 C 0.80804 0.96818 0.7072 0.0
C504 C 0.77034 0.02207 0.75188 0.0
C505 C 0.76567 0.05105 0.79209 0.0
C506 C 0.79718 0.08069 0.80443 0.0
C507 C 0.79345 0.10591 0.84381 0.0
C508 C 0.75782 0.10287 0.87043 0.0
C509 C 0.72589 0.07441 0.85781 0.0
C510 C 0.72974 0.04854 0.81886 0.0
H511 H 0.755 0.12253 0.90085 0.0
H512 H 0.79334 0.86534 0.52723 0.0
H513 H 0.43785 0.39682 0.04045 0.0
H514 H 0.39091 0.3337 0.0352 0.0
H515 H 0.3244 0.3982 0.92748 0.0
H516 H 0.37244 0.46029 0.93042 0.0
H517 H 0.27612 0.3673 0.01045 0.0
H518 H 0.3732 0.31951 0.89506 0.0
H519 H 0.44263 0.30068 0.86694 0.0
H520 H 0.45325 0.20067 0.9697 0.0
H521 H 0.38405 0.21937 -0.00116 0.0
H522 H 0.13023 0.20558 0.94879 0.0
H523 H 0.18356 0.26262 0.94839 0.0
H524 H 0.26731 0.17412 0.01627 0.0
H525 H 0.21456 0.11639 0.01525 0.0
H526 H 0.30859 0.21701 0.95619 0.0
H527 H 0.21565 0.25976 0.0727 0.0
H528 H 0.14841 0.27693 0.10765 0.0
H529 H 0.13253 0.38456 0.01444 0.0
H530 H 0.19942 0.36761 0.97843 0.0
C531 C 0.41413 0.39716 0.01461 0.0
C532 C 0.40893 0.43415 0.98614 0.0
C533 C 0.38701 0.36115 0.01203 0.0
C534 C 0.35389 0.36157 0.98135 0.0
C535 C 0.34949 0.39747 0.95176 0.0
C536 C 0.37699 0.43303 0.95365 0.0
C537 C 0.32267 0.32559 0.98149 0.0
C538 C 0.28295 0.33454 -0.00193 0.0
C539 C 0.33218 0.28253 0.96704 0.0
C540 C 0.37366 0.27118 0.94944 0.0
C541 C 0.3905 0.29381 0.91194 0.0
C542 C 0.42978 0.28309 0.89575 0.0
C543 C 0.45239 0.24959 0.91661 0.0
C544 C 0.43572 0.22666 0.95362 0.0
C545 C 0.39647 0.23728 0.96996 0.0
C546 C 0.15998 0.19823 0.9637 0.0
C547 C 0.16798 0.15642 0.98227 0.0
C548 C 0.19048 0.23101 0.96362 0.0
C549 C 0.22941 0.22315 0.98308 0.0
C550 C 0.23762 0.18118 0.00108 0.0
C551 C 0.20734 0.14816 0.00053 0.0
C552 C 0.26145 0.25863 0.98465 0.0
C553 C 0.30148 0.24966 0.96864 0.0
C554 C 0.2525 0.30149 0.00075 0.0
C555 C 0.2124 0.31213 0.02257 0.0
C556 C 0.1977 0.28691 0.05944 0.0
C557 C 0.15966 0.29661 0.07947 0.0
C558 C 0.13617 0.33174 0.0632 0.0
C559 C 0.15074 0.35732 0.02696 0.0
C560 C 0.18874 0.3477 0.00675 0.0
H561 H 0.10671 0.33918 0.07873 0.0
H562 H 0.48279 0.24133 0.90402 0.0
H563 H 0.35667 0.56432 0.0444 0.0
H564 H 0.31087 0.62773 0.04285 0.0
H565 H 0.40372 0.70327 0.97163 0.0
H566 H 0.45016 0.63916 0.973 0.0
H567 H 0.3607 0.7522 0.03933 0.0
H568 H 0.328 0.65978 0.91196 0.0
H569 H 0.31134 0.58943 0.87465 0.0
H570 H 0.2018 0.57674 0.95608 0.0
H571 H 0.21814 0.64671 -0.0056 0.0
H572 H 0.21674 0.91686 0.97162 0.0
H573 H 0.27016 0.86045 0.97296 0.0
H574 H 0.18185 0.76615 0.02492 0.0
H575 H 0.12793 0.82208 0.02243 0.0
H576 H 0.22604 0.72884 0.96278 0.0
H577 H 0.25805 0.81708 0.09278 0.0
H578 H 0.27319 0.88618 0.13326 0.0
H579 H 0.38185 0.9055 0.05172 0.0
H580 H 0.367 0.83684 0.01024 0.0
C581 C 0.36749 0.59442 0.02842 0.0
C582 C 0.40678 0.59642 0.00798 0.0
C583 C 0.34125 0.63072 0.02767 0.0
C584 C 0.35345 0.67005 0.00634 0.0
C585 C 0.39354 0.67315 -0.01196 0.0
C586 C 0.42004 0.63658 -0.01115 0.0
C587 C 0.32323 0.70667 0.0015 0.0
C588 C 0.33154 0.74742 0.02194 0.0
C589 C 0.28469 0.70012 0.97979 0.0
C590 C 0.27447 0.65835 0.95628 0.0
C591 C 0.30049 0.64186 0.92211 0.0
C592 C 0.29109 0.60206 0.90076 0.0
C593 C 0.25557 0.57859 0.91305 0.0
C594 C 0.22931 0.59494 0.94662 0.0
C595 C 0.23861 0.63469 0.96813 0.0
C596 C 0.20861 0.88417 0.98349 0.0
C597 C 0.1679 0.87418 -0.00296 0.0
C598 C 0.23936 0.8519 0.98442 0.0
C599 C 0.23039 0.80901 -0.0003 0.0
C600 C 0.1897 0.79891 0.01299 0.0
C601 C 0.15883 0.83103 0.01159 0.0
C602 C 0.26306 0.77443 0.00118 0.0
C603 C 0.25524 0.73393 0.98 0.0
C604 C 0.30177 0.78113 0.02267 0.0
C605 C 0.31118 0.82203 0.04809 0.0
C606 C 0.28504 0.8362 0.08329 0.0
C607 C 0.29357 0.87528 0.10643 0.0
C608 C 0.3284 0.90027 0.09498 0.0
C609 C 0.35485 0.88614 0.06049 0.0
C610 C 0.3464 0.84713 0.03718 0.0
H611 H 0.33493 0.93054 0.1129 0.0
H612 H 0.24836 0.54777 0.8965 0.0
H613 H 0.62457 0.39026 0.03376 0.0
H614 H 0.66874 0.32612 0.02626 0.0
H615 H 0.75018 0.40007 0.93791 0.0
H616 H 0.70298 0.46109 0.93916 0.0
H617 H 0.75707 0.32852 0.91082 0.0
H618 H 0.76225 0.37581 0.06599 0.0
H619 H 0.73702 0.39378 0.14279 0.0
H620 H 0.6918 0.26161 0.15938 0.0
H621 H 0.71627 0.24305 0.08244 0.0
H622 H 0.94238 0.20935 0.96081 0.0
H623 H 0.88808 0.26511 0.9602 0.0
H624 H 0.79809 0.16655 -0.00219 0.0
H625 H 0.85194 0.11059 -0.00133 0.0
H626 H 0.79353 0.24457 0.04959 0.0
H627 H 0.80177 0.20356 0.8884 0.0
H628 H 0.84012 0.19436 0.81629 0.0
H629 H 0.87771 0.32985 0.82028 0.0
H630 H 0.83976 0.33987 0.89201 0.0
C631 C 0.65111 0.39261 0.01153 0.0
C632 C 0.66035 0.43205 -0.01186 0.0
C633 C 0.67721 0.35591 0.0082 0.0
C634 C 0.7143 0.35819 0.98312 0.0
C635 C 0.72234 0.3968 0.95808 0.0
C636 C 0.69539 0.43252 0.95963 0.0
C637 C 0.74503 0.32115 0.98272 0.0
C638 C 0.76518 0.31094 0.94163 0.0
C639 C 0.75602 0.29694 0.02234 0.0
C640 C 0.74049 0.30827 0.0682 0.0
C641 C 0.74654 0.35073 0.08585 0.0
C642 C 0.73245 0.36099 0.12943 0.0
C643 C 0.71265 0.32892 0.15586 0.0
C644 C 0.70699 0.28647 0.13881 0.0
C645 C 0.72094 0.27607 0.09522 0.0
C646 C 0.91105 0.19939 0.96887 0.0
C647 C 0.9017 0.15525 0.97957 0.0
C648 C 0.87999 0.23135 0.96831 0.0
C649 C 0.83892 0.21994 0.97853 0.0
C650 C 0.82951 0.1761 -0.01034 0.0
C651 C 0.86044 0.14407 -0.01007 0.0
C652 C 0.80583 0.25381 0.97847 0.0
C653 C 0.78514 0.2628 0.01924 0.0
C654 C 0.79599 0.27858 0.93927 0.0
C655 C 0.81812 0.27237 0.89565 0.0
C656 C 0.81836 0.23129 0.87389 0.0
C657 C 0.83996 0.22594 0.83309 0.0
C658 C 0.8614 0.2614 0.8138 0.0
C659 C 0.8611 0.30237 0.83512 0.0
C660 C 0.83945 0.30795 0.87575 0.0
H661 H 0.87819 0.25711 0.78231 0.0
H662 H 0.70182 0.33691 0.18962 0.0
H663 H 0.62344 0.63496 0.96667 0.0
H664 H 0.66974 0.69954 0.9668 0.0
H665 H 0.75587 0.62866 0.05109 0.0
H666 H 0.70984 0.56493 0.05146 0.0
H667 H 0.74747 0.71045 0.08053 0.0
H668 H 0.77012 0.6403 0.93656 0.0
H669 H 0.75149 0.61123 0.86125 0.0
H670 H 0.71149 0.73962 0.81925 0.0
H671 H 0.72924 0.76933 0.89463 0.0
H672 H 0.93657 0.82844 0.04412 0.0
H673 H 0.88147 0.77289 0.04831 0.0
H674 H 0.80186 0.85722 0.96976 0.0
H675 H 0.85645 0.91291 0.96578 0.0
H676 H 0.80299 0.77301 0.93699 0.0
H677 H 0.77872 0.8428 0.08036 0.0
H678 H 0.79092 0.87099 0.15766 0.0
H679 H 0.83369 0.7438 0.20017 0.0
H680 H 0.82142 0.71475 0.12316 0.0
C681 C 0.65206 0.63355 0.98557 0.0
C682 C 0.66322 0.59484 0.0087 0.0
C683 C 0.67864 0.67023 0.98534 0.0
C684 C 0.71664 0.66879 0.00847 0.0
C685 C 0.72692 0.63062 0.03283 0.0
C686 C 0.70063 0.59412 0.03287 0.0
C687 C 0.74618 0.70658 0.00756 0.0
C688 C 0.7599 0.7238 0.04909 0.0
C689 C 0.7617 0.72488 0.96658 0.0
C690 C 0.75043 0.7069 0.92149 0.0
C691 C 0.75688 0.66223 0.91147 0.0
C692 C 0.74658 0.64566 0.86872 0.0
C693 C 0.73016 0.67352 0.83554 0.0
C694 C 0.72408 0.71804 0.84503 0.0
C695 C 0.73424 0.73476 0.88776 0.0
C696 C 0.90731 0.83516 0.0278 0.0
C697 C 0.90098 0.87509 0.00455 0.0
C698 C 0.87572 0.80353 0.03053 0.0
C699 C 0.83738 0.81097 0.00958 0.0
C700 C 0.83107 0.85077 0.98631 0.0
C701 C 0.86235 0.88264 0.98417 0.0
C702 C 0.80458 0.77644 0.01001 0.0
C703 C 0.79036 0.75979 0.96839 0.0
C704 C 0.78863 0.75853 0.05088 0.0
C705 C 0.79943 0.77672 0.09595 0.0
C706 C 0.79121 0.821 0.10604 0.0
C707 C 0.79774 0.83699 0.14991 0.0
C708 C 0.8127 0.80906 0.18387 0.0
C709 C 0.82178 0.76527 0.1739 0.0
C710 C 0.81496 0.749 0.13019 0.0
H711 H 0.81748 0.82141 0.21789 0.0
H712 H 0.72228 0.66064 0.80244 0.0
loop_
_geom_bond_atom_site_label_1
_geom_bond_atom_site_label_2
_geom_bond_distance
_geom_bond_site_symmetry_2
_ccdc_geom_bond_type
H0 C8 0.930 . S
H1 C11 0.930 . S
H2 C13 0.930 . S
H3 C14 0.970 . S
H4 C14 0.970 . S
H5 C16 0.930 . S
H6 C18 0.930 . S
H7 C20 0.930 . S
C8 H0 0.930 . S
C8 C9 1.382 . S
C8 C10 1.426 . S
C9 C8 1.382 . S
C9 C13 1.389 1_655 S
C10 C8 1.426 . S
C10 C11 1.375 . S
C10 C14 1.532 . S
C11 H1 0.930 . S
C11 C10 1.375 . S
C11 C12 1.416 . S
C12 C11 1.416 . S
C12 C13 1.371 1_655 S
C13 H2 0.930 . S
C13 C9 1.389 1_455 S
C13 C12 1.371 1_455 S
C14 H3 0.970 . S
C14 H4 0.970 . S
C14 C10 1.532 . S
C14 C15 1.499 . S
C15 C14 1.499 . S
C15 C16 1.370 . S
C15 C20 1.415 . S
C16 H5 0.930 . S
C16 C15 1.370 . S
C16 C17 1.407 . S
C17 C16 1.407 . S
C17 C18 1.365 1_655 S
C18 H6 0.930 . S
C18 C17 1.365 1_455 S
C18 C19 1.393 1_455 S
C19 C18 1.393 1_655 S
C19 C20 1.387 . S
C20 H7 0.930 . S
C20 C15 1.415 . S
C20 C19 1.387 . S
H21 C29 0.930 . S
H22 C32 0.930 . S
H23 C34 0.929 . S
H24 C35 0.970 . S
H25 C35 0.970 . S
H26 C37 0.930 . S
H27 C39 0.930 . S
H28 C41 0.930 . S
C29 H21 0.930 . S
C29 C30 1.382 . S
C29 C31 1.426 . S
C30 C29 1.382 . S
C30 C34 1.389 1_545 S
C31 C29 1.426 . S
C31 C32 1.375 . S
C31 C35 1.532 . S
C32 H22 0.930 . S
C32 C31 1.375 . S
C32 C33 1.416 . S
C33 C32 1.416 . S
C33 C34 1.372 1_545 S
C34 H23 0.929 . S
C34 C30 1.389 1_565 S
C34 C33 1.372 1_565 S
C35 H24 0.970 . S
C35 H25 0.970 . S
C35 C31 1.532 . S
C35 C36 1.499 . S
C36 C35 1.499 . S
C36 C37 1.370 . S
C36 C41 1.415 . S
C37 H26 0.930 . S
C37 C36 1.370 . S
C37 C38 1.407 . S
C38 C37 1.407 . S
C38 C39 1.365 1_545 S
C39 H27 0.930 . S
C39 C38 1.365 1_565 S
C39 C40 1.393 1_565 S
C40 C39 1.393 1_545 S
C40 C41 1.387 . S
C41 H28 0.930 . S
C41 C36 1.415 . S
C41 C40 1.387 . S
H42 C50 0.930 . S
H43 C53 0.930 . S
H44 C55 0.936 . S
H45 C56 0.970 . S
H46 C56 0.970 . S
H47 C58 0.930 . S
H48 C60 0.930 . S
H49 C62 0.930 . S
C50 H42 0.930 . S
C50 C51 1.382 . S
C50 C52 1.426 . S
C51 C50 1.382 . S
C51 C55 1.385 1_554 S
C52 C50 1.426 . S
C52 C53 1.375 . S
C52 C56 1.532 . S
C53 H43 0.930 . S
C53 C52 1.375 . S
C53 C54 1.416 . S
C54 C53 1.416 . S
C54 C55 1.368 1_554 S
C55 H44 0.936 . S
C55 C51 1.385 1_556 S
C55 C54 1.368 1_556 S
C56 H45 0.970 . S
C56 H46 0.970 . S
C56 C52 1.532 . S
C56 C57 1.499 . S
C57 C56 1.499 . S
C57 C58 1.370 . S
C57 C62 1.415 . S
C58 H47 0.930 . S
C58 C57 1.370 . S
C58 C59 1.407 . S
C59 C58 1.407 . S
C59 C60 1.365 1_554 S
C60 H48 0.930 . S
C60 C59 1.365 1_556 S
C60 C61 1.393 1_556 S
C61 C60 1.393 1_554 S
C61 C62 1.387 . S
C62 H49 0.930 . S
C62 C57 1.415 . S
C62 C61 1.387 . S
C63 O89 1.283 . S
C63 O107 1.283 . S
C64 O90 1.283 . S
C64 O105 1.283 . S
C65 O91 1.283 . S
C65 O108 1.283 . S
C66 O92 1.283 . S
C66 O106 1.283 . S
C67 O93 1.283 . S
C67 O102 1.283 . S
C68 O94 1.283 . S
C68 O104 1.283 . S
C69 O95 1.283 . S
C69 O101 1.283 . S
C70 O96 1.283 . S
C70 O103 1.283 . S
C71 O97 1.283 . S
C71 O112 1.283 . S
C72 O98 1.283 . S
C72 O110 1.283 . S
C73 O99 1.283 . S
C73 O111 1.283 . S
C74 O100 1.283 . S
C74 O109 1.283 . S
Eu75 O76 2.375 . S
Eu75 O77 2.365 1_454 S
Eu75 O80 2.375 1_554 S
Eu75 O81 2.365 1_455 S
Eu75 O89 2.363 1_554 S
Eu75 O90 2.363 . S
Eu75 O103 2.354 1_455 S
Eu75 O104 2.372 . S
O76 Eu75 2.375 . S
O76 Eu78 2.370 . S
O76 Eu83 2.369 . S
O77 Eu75 2.365 1_656 S
O77 Eu79 2.370 1_556 S
O77 Eu82 2.365 1_655 S
Eu78 O76 2.370 . S
Eu78 O80 2.370 1_554 S
Eu78 O84 2.370 1_544 S
Eu78 O85 2.370 1_545 S
Eu78 O93 2.363 1_545 S
Eu78 O94 2.363 . S
Eu78 O109 2.363 1_554 S
Eu78 O110 2.363 . S
Eu79 O77 2.370 1_554 S
Eu79 O81 2.370 . S
Eu79 O86 2.370 1_545 S
Eu79 O87 2.370 1_544 S
Eu79 O95 2.363 1_545 S
Eu79 O96 2.363 . S
Eu79 O111 2.363 1_554 S
Eu79 O112 2.363 . S
O80 Eu75 2.375 1_556 S
O80 Eu78 2.370 1_556 S
O80 Eu82 2.376 . S
O81 Eu75 2.365 1_655 S
O81 Eu79 2.370 . S
O81 Eu83 2.371 1_655 S
Eu82 O77 2.365 1_455 S
Eu82 O80 2.376 . S
Eu82 O84 2.376 1_545 S
Eu82 O87 2.365 1_445 S
Eu82 O99 2.354 1_455 S
Eu82 O100 2.372 . S
Eu82 O107 2.363 . S
Eu82 O108 2.363 1_545 S
Eu83 O76 2.369 . S
Eu83 O81 2.371 1_455 S
Eu83 O85 2.369 1_545 S
Eu83 O86 2.371 1_445 S
Eu83 O97 2.365 1_455 S
Eu83 O98 2.361 . S
Eu83 O105 2.363 . S
Eu83 O106 2.363 1_445 S
O84 Eu78 2.370 1_566 S
O84 Eu82 2.376 1_565 S
O84 Eu88 2.369 1_556 S
O85 Eu78 2.370 1_565 S
O85 Eu83 2.369 1_565 S
O85 Eu88 2.369 . S
O86 Eu79 2.370 1_565 S
O86 Eu83 2.371 1_665 S
O86 Eu88 2.371 1_655 S
O87 Eu79 2.370 1_566 S
O87 Eu82 2.365 1_665 S
O87 Eu88 2.371 1_656 S
Eu88 O84 2.369 1_554 S
Eu88 O85 2.369 . S
Eu88 O86 2.371 1_455 S
Eu88 O87 2.371 1_454 S
Eu88 O91 2.363 1_554 S
Eu88 O92 2.363 1_455 S
Eu88 O101 2.365 1_455 S
Eu88 O102 2.361 . S
O89 C63 1.283 . S
O89 Eu75 2.363 1_556 S
O90 C64 1.283 . S
O90 Eu75 2.363 . S
O91 C65 1.283 . S
O91 Eu88 2.363 1_556 S
O92 C66 1.283 . S
O92 Eu88 2.363 1_655 S
O93 C67 1.283 . S
O93 Eu78 2.363 1_565 S
O94 C68 1.283 . S
O94 Eu78 2.363 . S
O95 C69 1.283 . S
O95 Eu79 2.363 1_565 S
O96 C70 1.283 . S
O96 Eu79 2.363 . S
O97 C71 1.283 . S
O97 Eu83 2.365 1_655 S
O98 C72 1.283 . S
O98 Eu83 2.361 . S
O99 C73 1.283 . S
O99 Eu82 2.354 1_655 S
O100 C74 1.283 . S
O100 Eu82 2.372 . S
O101 C69 1.283 . S
O101 Eu88 2.365 1_655 S
O102 C67 1.283 . S
O102 Eu88 2.361 . S
O103 C70 1.283 . S
O103 Eu75 2.354 1_655 S
O104 C68 1.283 . S
O104 Eu75 2.372 . S
O105 C64 1.283 . S
O105 Eu83 2.363 . S
O106 C66 1.283 . S
O106 Eu83 2.363 1_665 S
O107 C63 1.283 . S
O107 Eu82 2.363 . S
O108 C65 1.283 . S
O108 Eu82 2.363 1_565 S
O109 C74 1.283 . S
O109 Eu78 2.363 1_556 S
O110 C72 1.283 . S
O110 Eu78 2.363 . S
O111 C73 1.283 . S
O111 Eu79 2.363 1_556 S
O112 C71 1.283 . S
O112 Eu79 2.363 . S
H113 C131 0.951 . S
H114 C133 0.951 . S
H115 C135 0.950 . S
H116 C136 0.950 . S
H117 C138 0.950 . S
H118 C141 0.950 . S
H119 C142 0.950 . S
H120 C144 0.950 . S
H121 C145 0.950 . S
H122 C146 0.951 . S
H123 C148 0.951 . S
H124 C150 0.950 . S
H125 C151 0.950 . S
H126 C153 0.950 . S
H127 C156 0.950 . S
H128 C157 0.950 . S
H129 C159 0.950 . S
H130 C160 0.950 . S
C131 H113 0.951 . S
C131 C132 1.366 1_455 S
C131 C133 1.388 . S
C132 C131 1.366 1_655 S
C132 C136 1.385 . S
C133 H114 0.951 . S
C133 C131 1.388 . S
C133 C134 1.364 1_455 S
C134 C133 1.364 1_655 S
C134 C135 1.416 . S
C134 C137 1.499 . S
C135 H115 0.950 . S
C135 C134 1.416 . S
C135 C136 1.374 . S
C136 H116 0.950 . S
C136 C132 1.385 . S
C136 C135 1.374 . S
C137 C134 1.499 . S
C137 C138 1.377 . S
C137 C139 1.386 1_655 S
C138 H117 0.950 . S
C138 C137 1.377 . S
C138 C154 1.377 . S
C139 C137 1.386 1_455 S
C139 C140 1.524 . S
C139 C153 1.377 . S
C140 C139 1.524 . S
C140 C141 1.397 . S
C140 C145 1.363 . S
C141 H118 0.950 . S
C141 C140 1.397 . S
C141 C142 1.334 . S
C142 H119 0.950 . S
C142 C141 1.334 . S
C142 C143 1.287 . S
C143 C142 1.287 . S
C143 C144 1.524 . S
C143 H162 0.913 . S
C144 H120 0.950 . S
C144 C143 1.524 . S
C144 C145 1.415 . S
C145 H121 0.950 . S
C145 C140 1.363 . S
C145 C144 1.415 . S
C146 H122 0.951 . S
C146 C147 1.365 1_655 S
C146 C148 1.388 . S
C147 C146 1.365 1_455 S
C147 C151 1.385 . S
C148 H123 0.951 . S
C148 C146 1.388 . S
C148 C149 1.366 . S
C149 C148 1.366 . S
C149 C150 1.414 1_655 S
C149 C152 1.499 . S
C150 H124 0.950 . S
C150 C149 1.414 1_455 S
C150 C151 1.374 . S
C151 H125 0.950 . S
C151 C147 1.385 . S
C151 C150 1.374 . S
C152 C149 1.499 . S
C152 C153 1.373 1_655 S
C152 C154 1.389 . S
C153 H126 0.950 . S
C153 C139 1.377 . S
C153 C152 1.373 1_455 S
C154 C138 1.377 . S
C154 C152 1.389 . S
C154 C155 1.524 . S
C155 C154 1.524 . S
C155 C156 1.397 . S
C155 C160 1.363 . S
C156 H127 0.950 . S
C156 C155 1.397 . S
C156 C157 1.334 . S
C157 H128 0.950 . S
C157 C156 1.334 . S
C157 C158 1.287 . S
C158 C157 1.287 . S
C158 C159 1.524 . S
C158 H161 0.999 . S
C159 H129 0.950 . S
C159 C158 1.524 . S
C159 C160 1.415 . S
C160 H130 0.950 . S
C160 C155 1.363 . S
C160 C159 1.415 . S
H161 C158 0.999 . S
H162 C143 0.913 . S
H163 C181 0.951 . S
H164 C183 0.951 . S
H165 C185 0.950 . S
H166 C186 0.950 . S
H167 C188 0.950 . S
H168 C191 0.950 1_545 S
H169 C192 0.950 . S
H170 C194 0.950 . S
H171 C195 0.950 . S
H172 C196 0.951 . S
H173 C198 0.951 . S
H174 C200 0.950 . S
H175 C201 0.950 . S
H176 C203 0.950 . S
H177 C206 0.950 1_565 S
H178 C207 0.950 . S
H179 C209 0.950 . S
H180 C210 0.950 . S
C181 H163 0.951 . S
C181 C182 1.351 1_565 S
C181 C183 1.388 . S
C182 C181 1.351 1_545 S
C182 C186 1.400 . S
C183 H164 0.951 . S
C183 C181 1.388 . S
C183 C184 1.366 1_565 S
C184 C183 1.366 1_545 S
C184 C185 1.414 . S
C184 C187 1.499 . S
C185 H165 0.950 . S
C185 C184 1.414 . S
C185 C186 1.374 . S
C186 H166 0.950 . S
C186 C182 1.400 . S
C186 C185 1.374 . S
C187 C184 1.499 . S
C187 C188 1.373 . S
C187 C189 1.389 1_545 S
C188 H167 0.950 . S
C188 C187 1.373 . S
C188 C204 1.377 . S
C189 C187 1.389 1_565 S
C189 C190 1.524 . S
C189 C203 1.377 . S
C190 C189 1.524 . S
C190 C191 1.397 . S
C190 C195 1.363 . S
C191 H168 0.950 1_565 S
C191 C190 1.397 . S
C191 C192 1.334 . S
C192 H169 0.950 . S
C192 C191 1.334 . S
C192 C193 1.287 . S
C193 C192 1.287 . S
C193 C194 1.524 . S
C193 H212 0.913 . S
C194 H170 0.950 . S
C194 C193 1.524 . S
C194 C195 1.415 . S
C195 H171 0.950 . S
C195 C190 1.363 . S
C195 C194 1.415 . S
C196 H172 0.951 . S
C196 C197 1.366 . S
C196 C198 1.388 . S
C197 C196 1.366 . S
C197 C201 1.385 1_545 S
C198 H173 0.951 . S
C198 C196 1.388 . S
C198 C199 1.366 . S
C199 C198 1.366 . S
C199 C200 1.414 1_545 S
C199 C202 1.499 . S
C200 H174 0.950 . S
C200 C199 1.414 1_565 S
C200 C201 1.374 . S
C201 H175 0.950 . S
C201 C197 1.385 1_565 S
C201 C200 1.374 . S
C202 C199 1.499 . S
C202 C203 1.364 1_545 S
C202 C204 1.399 . S
C203 H176 0.950 . S
C203 C189 1.377 . S
C203 C202 1.364 1_565 S
C204 C188 1.377 . S
C204 C202 1.399 . S
C204 C205 1.524 . S
C205 C204 1.524 . S
C205 C206 1.397 . S
C205 C210 1.363 . S
C206 H177 0.950 1_545 S
C206 C205 1.397 . S
C206 C207 1.334 . S
C207 H178 0.950 . S
C207 C206 1.334 . S
C207 C208 1.287 . S
C208 C207 1.287 . S
C208 C209 1.524 . S
C208 H211 0.999 . S
C209 H179 0.950 . S
C209 C208 1.524 . S
C209 C210 1.415 . S
C210 H180 0.950 . S
C210 C205 1.363 . S
C210 C209 1.415 . S
H211 C208 0.999 . S
H212 C193 0.913 . S
H213 C231 0.951 . S
H214 C233 0.951 . S
H215 C235 0.950 . S
H216 C236 0.950 . S
H217 C238 0.950 . S
H218 C241 0.950 . S
H219 C242 0.950 . S
H220 C244 0.950 . S
H221 C245 0.950 . S
H222 C246 0.951 . S
H223 C248 0.951 . S
H224 C250 0.950 . S
H225 C251 0.950 . S
H226 C253 0.950 . S
H227 C256 0.950 . S
H228 C257 0.950 . S
H229 C259 0.950 . S
H230 C260 0.950 . S
C231 H213 0.951 . S
C231 C232 1.366 . S
C231 C233 1.388 . S
C232 C231 1.366 . S
C232 C236 1.385 1_455 S
C233 H214 0.951 . S
C233 C231 1.388 . S
C233 C234 1.366 . S
C234 C233 1.366 . S
C234 C235 1.414 1_455 S
C234 C237 1.499 . S
C235 H215 0.950 . S
C235 C234 1.414 1_655 S
C235 C236 1.374 . S
C236 H216 0.950 . S
C236 C232 1.385 1_655 S
C236 C235 1.374 . S
C237 C234 1.499 . S
C237 C238 1.373 1_455 S
C237 C239 1.389 . S
C238 H217 0.950 . S
C238 C237 1.373 1_655 S
C238 C254 1.377 . S
C239 C237 1.389 . S
C239 C240 1.524 . S
C239 C253 1.377 . S
C240 C239 1.524 . S
C240 C241 1.397 . S
C240 C245 1.363 . S
C241 H218 0.950 . S
C241 C240 1.397 . S
C241 C242 1.334 . S
C242 H219 0.950 . S
C242 C241 1.334 . S
C242 C243 1.287 . S
C243 C242 1.287 . S
C243 C244 1.524 . S
C243 H262 0.913 . S
C244 H220 0.950 . S
C244 C243 1.524 . S
C244 C245 1.415 . S
C245 H221 0.950 . S
C245 C240 1.363 . S
C245 C244 1.415 . S
C246 H222 0.951 . S
C246 C247 1.366 . S
C246 C248 1.388 . S
C247 C246 1.366 . S
C247 C251 1.385 1_655 S
C248 H223 0.951 . S
C248 C246 1.388 . S
C248 C249 1.366 . S
C249 C248 1.366 . S
C249 C250 1.414 1_655 S
C249 C252 1.499 . S
C250 H224 0.950 . S
C250 C249 1.414 1_455 S
C250 C251 1.374 . S
C251 H225 0.950 . S
C251 C247 1.385 1_455 S
C251 C250 1.374 . S
C252 C249 1.499 . S
C252 C253 1.353 1_655 S
C252 C254 1.408 . S
C253 H226 0.950 . S
C253 C239 1.377 . S
C253 C252 1.353 1_455 S
C254 C238 1.377 . S
C254 C252 1.408 . S
C254 C255 1.524 . S
C255 C254 1.524 . S
C255 C256 1.397 . S
C255 C260 1.363 . S
C256 H227 0.950 . S
C256 C255 1.397 . S
C256 C257 1.334 . S
C257 H228 0.950 . S
C257 C256 1.334 . S
C257 C258 1.287 . S
C258 C257 1.287 . S
C258 C259 1.524 . S
C258 H261 0.999 . S
C259 H229 0.950 . S
C259 C258 1.524 . S
C259 C260 1.415 . S
C260 H230 0.950 . S
C260 C255 1.363 . S
C260 C259 1.415 . S
H261 C258 0.999 . S
H262 C243 0.913 . S
H263 C281 0.951 . S
H264 C283 0.951 . S
H265 C285 0.950 . S
H266 C286 0.950 . S
H267 C288 0.950 . S
H268 C291 0.950 . S
H269 C292 0.950 . S
H270 C294 0.950 . S
H271 C295 0.939 1_565 S
H272 C296 0.951 . S
H273 C298 0.951 . S
H274 C300 0.950 . S
H275 C301 0.950 . S
H276 C303 0.950 . S
H277 C306 0.950 . S
H278 C307 0.950 . S
H279 C309 0.950 . S
H280 C310 0.950 1_545 S
C281 H263 0.951 . S
C281 C282 1.366 1_565 S
C281 C283 1.388 . S
C282 C281 1.366 1_545 S
C282 C286 1.385 . S
C283 H264 0.951 . S
C283 C281 1.388 . S
C283 C284 1.366 1_565 S
C284 C283 1.366 1_545 S
C284 C285 1.414 . S
C284 C287 1.499 . S
C285 H265 0.950 . S
C285 C284 1.414 . S
C285 C286 1.374 . S
C286 H266 0.950 . S
C286 C282 1.385 . S
C286 C285 1.374 . S
C287 C284 1.499 . S
C287 C288 1.373 1_545 S
C287 C289 1.389 . S
C288 H267 0.950 . S
C288 C287 1.373 1_565 S
C288 C304 1.377 . S
C289 C287 1.389 . S
C289 C290 1.524 . S
C289 C303 1.377 . S
C290 C289 1.524 . S
C290 C291 1.397 . S
C290 C295 1.363 . S
C291 H268 0.950 . S
C291 C290 1.397 . S
C291 C292 1.334 . S
C292 H269 0.950 . S
C292 C291 1.334 . S
C292 C293 1.287 . S
C293 C292 1.287 . S
C293 C294 1.524 . S
C293 H312 0.913 . S
C294 H270 0.950 . S
C294 C293 1.524 . S
C294 C295 1.415 . S
C295 H271 0.939 1_545 S
C295 C290 1.363 . S
C295 C294 1.415 . S
C296 H272 0.951 . S
C296 C297 1.366 . S
C296 C298 1.388 . S
C297 C296 1.366 . S
C297 C301 1.385 1_545 S
C298 H273 0.951 . S
C298 C296 1.388 . S
C298 C299 1.366 . S
C299 C298 1.366 . S
C299 C300 1.414 1_545 S
C299 C302 1.499 . S
C300 H274 0.950 . S
C300 C299 1.414 1_565 S
C300 C301 1.374 . S
C301 H275 0.950 . S
C301 C297 1.385 1_565 S
C301 C300 1.374 . S
C302 C299 1.499 . S
C302 C303 1.373 . S
C302 C304 1.389 1_545 S
C303 H276 0.950 . S
C303 C289 1.377 . S
C303 C302 1.373 . S
C304 C288 1.377 . S
C304 C302 1.389 1_565 S
C304 C305 1.524 . S
C305 C304 1.524 . S
C305 C306 1.397 . S
C305 C310 1.363 . S
C306 H277 0.950 . S
C306 C305 1.397 . S
C306 C307 1.334 . S
C307 H278 0.950 . S
C307 C306 1.334 . S
C307 C308 1.287 . S
C308 C307 1.287 . S
C308 C309 1.524 . S
C308 H311 0.999 . S
C309 H279 0.950 . S
C309 C308 1.524 . S
C309 C310 1.415 . S
C310 H280 0.950 1_565 S
C310 C305 1.363 . S
C310 C309 1.415 . S
H311 C308 0.999 . S
H312 C293 0.913 . S
H313 C331 0.951 . S
H314 C333 0.951 . S
H315 C335 0.950 . S
H316 C336 0.950 . S
H317 C338 0.950 . S
H318 C341 0.950 . S
H319 C342 0.950 . S
H320 C344 0.950 . S
H321 C345 0.950 . S
H322 C346 0.951 . S
H323 C348 0.951 . S
H324 C350 0.950 . S
H325 C351 0.950 . S
H326 C353 0.950 . S
H327 C356 0.950 . S
H328 C357 0.950 . S
H329 C359 0.950 . S
H330 C360 0.950 . S
C331 H313 0.951 . S
C331 C332 1.366 1_455 S
C331 C333 1.388 . S
C332 C331 1.366 1_655 S
C332 C336 1.385 . S
C333 H314 0.951 . S
C333 C331 1.388 . S
C333 C334 1.366 1_455 S
C334 C333 1.366 1_655 S
C334 C335 1.414 . S
C334 C337 1.499 . S
C335 H315 0.950 . S
C335 C334 1.414 . S
C335 C336 1.374 . S
C336 H316 0.950 . S
C336 C332 1.385 . S
C336 C335 1.374 . S
C337 C334 1.499 . S
C337 C338 1.373 . S
C337 C339 1.389 1_655 S
C338 H317 0.950 . S
C338 C337 1.373 . S
C338 C354 1.377 . S
C339 C337 1.389 1_455 S
C339 C340 1.524 . S
C339 C353 1.377 . S
C340 C339 1.524 . S
C340 C341 1.397 . S
C340 C345 1.363 . S
C341 H318 0.950 . S
C341 C340 1.397 . S
C341 C342 1.334 . S
C342 H319 0.950 . S
C342 C341 1.334 . S
C342 C343 1.287 . S
C343 C342 1.287 . S
C343 C344 1.524 . S
C343 H362 0.913 . S
C344 H320 0.950 . S
C344 C343 1.524 . S
C344 C345 1.415 . S
C345 H321 0.950 . S
C345 C340 1.363 . S
C345 C344 1.415 . S
C346 H322 0.951 . S
C346 C347 1.363 1_655 S
C346 C348 1.388 . S
C347 C346 1.363 1_455 S
C347 C351 1.387 . S
C348 H323 0.951 . S
C348 C346 1.388 . S
C348 C349 1.366 . S
C349 C348 1.366 . S
C349 C350 1.414 1_655 S
C349 C352 1.499 . S
C350 H324 0.950 . S
C350 C349 1.414 1_455 S
C350 C351 1.374 . S
C351 H325 0.950 . S
C351 C347 1.387 . S
C351 C350 1.374 . S
C352 C349 1.499 . S
C352 C353 1.373 1_655 S
C352 C354 1.389 . S
C353 H326 0.950 . S
C353 C339 1.377 . S
C353 C352 1.373 1_455 S
C354 C338 1.377 . S
C354 C352 1.389 . S
C354 C355 1.524 . S
C355 C354 1.524 . S
C355 C356 1.397 . S
C355 C360 1.363 . S
C356 H327 0.950 . S
C356 C355 1.397 . S
C356 C357 1.334 . S
C357 H328 0.950 . S
C357 C356 1.334 . S
C357 C358 1.287 . S
C358 C357 1.287 . S
C358 C359 1.524 . S
C358 H361 0.999 . S
C359 H329 0.950 . S
C359 C358 1.524 . S
C359 C360 1.415 . S
C360 H330 0.950 . S
C360 C355 1.363 . S
C360 C359 1.415 . S
H361 C358 0.999 . S
H362 C343 0.913 . S
H363 C381 0.951 . S
H364 C383 0.951 . S
H365 C385 0.950 . S
H366 C386 0.950 . S
H367 C388 0.951 . S
H368 C391 0.950 . S
H369 C392 0.950 . S
H370 C394 0.950 . S
H371 C395 0.950 . S
H372 C396 0.951 . S
H373 C398 0.951 . S
H374 C400 0.950 . S
H375 C401 0.950 . S
H376 C403 0.950 . S
H377 C406 0.950 . S
H378 C407 0.950 . S
H379 C409 0.950 . S
H380 C410 0.950 . S
C381 H363 0.951 . S
C381 C382 1.378 . S
C381 C383 1.388 . S
C382 C381 1.378 . S
C382 C386 1.372 1_545 S
C383 H364 0.951 . S
C383 C381 1.388 . S
C383 C384 1.366 1_545 S
C384 C383 1.366 1_565 S
C384 C385 1.414 . S
C384 C387 1.499 . S
C385 H365 0.950 . S
C385 C384 1.414 . S
C385 C386 1.374 . S
C386 H366 0.950 . S
C386 C382 1.372 1_565 S
C386 C385 1.374 . S
C387 C384 1.499 . S
C387 C388 1.372 1_565 S
C387 C389 1.389 . S
C388 H367 0.951 . S
C388 C387 1.372 1_545 S
C388 C404 1.377 . S
C389 C387 1.389 . S
C389 C390 1.524 . S
C389 C403 1.377 1_565 S
C390 C389 1.524 . S
C390 C391 1.397 . S
C390 C395 1.363 1_565 S
C391 H368 0.950 . S
C391 C390 1.397 . S
C391 C392 1.334 . S
C392 H369 0.950 . S
C392 C391 1.334 . S
C392 C393 1.287 . S
C393 C392 1.287 . S
C393 C394 1.524 1_565 S
C393 H412 0.913 . S
C394 H370 0.950 . S
C394 C393 1.524 1_545 S
C394 C395 1.415 . S
C395 H371 0.950 . S
C395 C390 1.363 1_545 S
C395 C394 1.415 . S
C396 H372 0.951 . S
C396 C397 1.366 1_565 S
C396 C398 1.388 . S
C397 C396 1.366 1_545 S
C397 C401 1.385 . S
C398 H373 0.951 . S
C398 C396 1.388 . S
C398 C399 1.366 1_565 S
C399 C398 1.366 1_545 S
C399 C400 1.414 . S
C399 C402 1.499 . S
C400 H374 0.950 . S
C400 C399 1.414 . S
C400 C401 1.374 . S
C401 H375 0.950 . S
C401 C397 1.385 . S
C401 C400 1.374 . S
C402 C399 1.499 . S
C402 C403 1.373 . S
C402 C404 1.389 . S
C403 H376 0.950 . S
C403 C389 1.377 1_545 S
C403 C402 1.373 . S
C404 C388 1.377 . S
C404 C402 1.389 . S
C404 C405 1.524 . S
C405 C404 1.524 . S
C405 C406 1.397 . S
C405 C410 1.363 1_545 S
C406 H377 0.950 . S
C406 C405 1.397 . S
C406 C407 1.334 . S
C407 H378 0.950 . S
C407 C406 1.334 . S
C407 C408 1.287 . S
C408 C407 1.287 . S
C408 C409 1.524 1_545 S
C408 H411 0.999 . S
C409 H379 0.950 . S
C409 C408 1.524 1_565 S
C409 C410 1.415 . S
C410 H380 0.950 . S
C410 C405 1.363 1_565 S
C410 C409 1.415 . S
H411 C408 0.999 . S
H412 C393 0.913 . S
H413 C431 0.951 . S
H414 C433 0.951 . S
H415 C435 0.950 . S
H416 C436 0.950 . S
H417 C438 0.950 . S
H418 C441 0.950 . S
H419 C442 0.950 . S
H420 C444 0.950 . S
H421 C445 0.950 . S
H422 C446 0.951 . S
H423 C448 0.951 . S
H424 C450 0.950 . S
H425 C451 0.950 . S
H426 C453 0.950 . S
H427 C456 0.950 . S
H428 C457 0.950 . S
H429 C459 0.950 . S
H430 C460 0.950 . S
C431 H413 0.951 . S
C431 C432 1.366 1_655 S
C431 C433 1.388 . S
C432 C431 1.366 1_455 S
C432 C436 1.385 . S
C433 H414 0.951 . S
C433 C431 1.388 . S
C433 C434 1.354 1_655 S
C434 C433 1.354 1_455 S
C434 C435 1.427 . S
C434 C437 1.499 . S
C435 H415 0.950 . S
C435 C434 1.427 . S
C435 C436 1.374 . S
C436 H416 0.950 . S
C436 C432 1.385 . S
C436 C435 1.374 . S
C437 C434 1.499 . S
C437 C438 1.373 . S
C437 C439 1.389 1_455 S
C438 H417 0.950 . S
C438 C437 1.373 . S
C438 C454 1.377 . S
C439 C437 1.389 1_655 S
C439 C440 1.524 . S
C439 C453 1.377 . S
C440 C439 1.524 . S
C440 C441 1.397 . S
C440 C445 1.363 . S
C441 H418 0.950 . S
C441 C440 1.397 . S
C441 C442 1.334 . S
C442 H419 0.950 . S
C442 C441 1.334 . S
C442 C443 1.287 . S
C443 C442 1.287 . S
C443 C444 1.524 . S
C443 H462 0.913 . S
C444 H420 0.950 . S
C444 C443 1.524 . S
C444 C445 1.415 . S
C445 H421 0.950 . S
C445 C440 1.363 . S
C445 C444 1.415 . S
C446 H422 0.951 . S
C446 C447 1.375 . S
C446 C448 1.388 . S
C447 C446 1.375 . S
C447 C451 1.376 1_455 S
C448 H423 0.951 . S
C448 C446 1.388 . S
C448 C449 1.366 . S
C449 C448 1.366 . S
C449 C450 1.414 1_455 S
C449 C452 1.499 . S
C450 H424 0.950 . S
C450 C449 1.414 1_655 S
C450 C451 1.374 . S
C451 H425 0.950 . S
C451 C447 1.376 1_655 S
C451 C450 1.374 . S
C452 C449 1.499 . S
C452 C453 1.373 1_455 S
C452 C454 1.389 . S
C453 H426 0.950 . S
C453 C439 1.377 . S
C453 C452 1.373 1_655 S
C454 C438 1.377 . S
C454 C452 1.389 . S
C454 C455 1.524 . S
C455 C454 1.524 . S
C455 C456 1.397 . S
C455 C460 1.363 . S
C456 H427 0.950 . S
C456 C455 1.397 . S
C456 C457 1.334 . S
C457 H428 0.950 . S
C457 C456 1.334 . S
C457 C458 1.287 . S
C458 C457 1.287 . S
C458 C459 1.524 . S
C458 H461 0.999 . S
C459 H429 0.950 . S
C459 C458 1.524 . S
C459 C460 1.415 . S
C460 H430 0.950 . S
C460 C455 1.363 . S
C460 C459 1.415 . S
H461 C458 0.999 . S
H462 C443 0.913 . S
H463 C481 0.951 . S
H464 C483 0.951 . S
H465 C485 0.950 . S
H466 C486 0.954 . S
H467 C488 0.950 . S
H468 C491 0.950 . S
H469 C492 0.950 . S
H470 C494 0.950 . S
H471 C495 0.950 . S
H472 C496 0.951 . S
H473 C498 0.951 . S
H474 C500 0.950 . S
H475 C501 0.950 . S
H476 C503 0.950 . S
H477 C506 0.950 . S
H478 C507 0.950 . S
H479 C509 0.950 . S
H480 C510 0.950 . S
C481 H463 0.951 . S
C481 C482 1.366 . S
C481 C483 1.388 . S
C482 C481 1.366 . S
C482 C486 1.380 1_545 S
C483 H464 0.951 . S
C483 C481 1.388 . S
C483 C484 1.366 . S
C484 C483 1.366 . S
C484 C485 1.414 1_545 S
C484 C487 1.499 . S
C485 H465 0.950 . S
C485 C484 1.414 1_565 S
C485 C486 1.375 . S
C486 H466 0.954 . S
C486 C482 1.380 1_565 S
C486 C485 1.375 . S
C487 C484 1.499 . S
C487 C488 1.373 . S
C487 C489 1.389 1_545 S
C488 H467 0.950 . S
C488 C487 1.373 . S
C488 C504 1.377 . S
C489 C487 1.389 1_565 S
C489 C490 1.524 . S
C489 C503 1.377 . S
C490 C489 1.524 . S
C490 C491 1.397 . S
C490 C495 1.363 . S
C491 H468 0.950 . S
C491 C490 1.397 . S
C491 C492 1.334 . S
C492 H469 0.950 . S
C492 C491 1.334 . S
C492 C493 1.287 . S
C493 C492 1.287 . S
C493 C494 1.524 . S
C493 H512 0.913 . S
C494 H470 0.950 . S
C494 C493 1.524 . S
C494 C495 1.415 . S
C495 H471 0.950 . S
C495 C490 1.363 . S
C495 C494 1.415 . S
C496 H472 0.951 . S
C496 C497 1.366 1_565 S
C496 C498 1.388 . S
C497 C496 1.366 1_545 S
C497 C501 1.385 . S
C498 H473 0.951 . S
C498 C496 1.388 . S
C498 C499 1.366 1_565 S
C499 C498 1.366 1_545 S
C499 C500 1.414 . S
C499 C502 1.499 . S
C500 H474 0.950 . S
C500 C499 1.414 . S
C500 C501 1.374 . S
C501 H475 0.950 . S
C501 C497 1.385 . S
C501 C500 1.374 . S
C502 C499 1.499 . S
C502 C503 1.373 1_545 S
C502 C504 1.389 . S
C503 H476 0.950 . S
C503 C489 1.377 . S
C503 C502 1.373 1_565 S
C504 C488 1.377 . S
C504 C502 1.389 . S
C504 C505 1.524 . S
C505 C504 1.524 . S
C505 C506 1.397 . S
C505 C510 1.363 . S
C506 H477 0.950 . S
C506 C505 1.397 . S
C506 C507 1.334 . S
C507 H478 0.950 . S
C507 C506 1.334 . S
C507 C508 1.287 . S
C508 C507 1.287 . S
C508 C509 1.524 . S
C508 H511 0.999 . S
C509 H479 0.950 . S
C509 C508 1.524 . S
C509 C510 1.415 . S
C510 H480 0.950 . S
C510 C505 1.363 . S
C510 C509 1.415 . S
H511 C508 0.999 . S
H512 C493 0.913 . S
H513 C531 0.951 . S
H514 C533 0.951 . S
H515 C535 0.950 . S
H516 C536 0.950 . S
H517 C538 0.950 . S
H518 C541 0.950 . S
H519 C542 0.950 . S
H520 C544 0.950 . S
H521 C545 0.950 1_554 S
H522 C546 0.951 . S
H523 C548 0.951 . S
H524 C550 0.950 . S
H525 C551 0.950 . S
H526 C553 0.950 . S
H527 C556 0.950 . S
H528 C557 0.950 . S
H529 C559 0.950 . S
H530 C560 0.950 1_556 S
C531 H513 0.951 . S
C531 C532 1.369 . S
C531 C533 1.388 . S
C532 C531 1.369 . S
C532 C536 1.381 1_554 S
C533 H514 0.951 . S
C533 C531 1.388 . S
C533 C534 1.366 1_554 S
C534 C533 1.366 1_556 S
C534 C535 1.414 . S
C534 C537 1.499 . S
C535 H515 0.950 . S
C535 C534 1.414 . S
C535 C536 1.374 . S
C536 H516 0.950 . S
C536 C532 1.381 1_556 S
C536 C535 1.374 . S
C537 C534 1.499 . S
C537 C538 1.373 1_556 S
C537 C539 1.389 . S
C538 H517 0.950 . S
C538 C537 1.373 1_554 S
C538 C554 1.377 . S
C539 C537 1.389 . S
C539 C540 1.524 . S
C539 C553 1.377 . S
C540 C539 1.524 . S
C540 C541 1.397 . S
C540 C545 1.363 . S
C541 H518 0.950 . S
C541 C540 1.397 . S
C541 C542 1.334 . S
C542 H519 0.950 . S
C542 C541 1.334 . S
C542 C543 1.287 . S
C543 C542 1.287 . S
C543 C544 1.524 . S
C543 H562 0.913 . S
C544 H520 0.950 . S
C544 C543 1.524 . S
C544 C545 1.415 . S
C545 H521 0.950 1_556 S
C545 C540 1.363 . S
C545 C544 1.415 . S
C546 H522 0.951 . S
C546 C547 1.366 1_556 S
C546 C548 1.388 . S
C547 C546 1.366 1_554 S
C547 C551 1.385 . S
C548 H523 0.951 . S
C548 C546 1.388 . S
C548 C549 1.366 1_556 S
C549 C548 1.366 1_554 S
C549 C550 1.414 . S
C549 C552 1.499 . S
C550 H524 0.950 . S
C550 C549 1.414 . S
C550 C551 1.374 . S
C551 H525 0.950 . S
C551 C547 1.385 . S
C551 C550 1.374 . S
C552 C549 1.499 . S
C552 C553 1.373 1_554 S
C552 C554 1.389 . S
C553 H526 0.950 . S
C553 C539 1.377 . S
C553 C552 1.373 1_556 S
C554 C538 1.377 . S
C554 C552 1.389 . S
C554 C555 1.524 . S
C555 C554 1.524 . S
C555 C556 1.397 . S
C555 C560 1.363 . S
C556 H527 0.950 . S
C556 C555 1.397 . S
C556 C557 1.334 . S
C557 H528 0.950 . S
C557 C556 1.334 . S
C557 C558 1.287 . S
C558 C557 1.287 . S
C558 C559 1.524 . S
C558 H561 0.999 . S
C559 H529 0.950 . S
C559 C558 1.524 . S
C559 C560 1.415 . S
C560 H530 0.950 1_554 S
C560 C555 1.363 . S
C560 C559 1.415 . S
H561 C558 0.999 . S
H562 C543 0.913 . S
H563 C581 0.951 . S
H564 C583 0.951 . S
H565 C585 0.950 . S
H566 C586 0.950 . S
H567 C588 0.950 1_556 S
H568 C591 0.950 . S
H569 C592 0.950 . S
H570 C594 0.950 . S
H571 C595 0.950 . S
H572 C596 0.951 . S
H573 C598 0.951 . S
H574 C600 0.950 . S
H575 C601 0.950 . S
H576 C603 0.950 . S
H577 C606 0.950 . S
H578 C607 0.950 . S
H579 C609 0.950 . S
H580 C610 0.950 . S
C581 H563 0.951 . S
C581 C582 1.366 . S
C581 C583 1.388 . S
C582 C581 1.366 . S
C582 C586 1.385 1_554 S
C583 H564 0.951 . S
C583 C581 1.388 . S
C583 C584 1.366 . S
C584 C583 1.366 . S
C584 C585 1.414 1_554 S
C584 C587 1.499 . S
C585 H565 0.950 . S
C585 C584 1.414 1_556 S
C585 C586 1.374 . S
C586 H566 0.950 . S
C586 C582 1.385 1_556 S
C586 C585 1.374 . S
C587 C584 1.499 . S
C587 C588 1.373 . S
C587 C589 1.389 . S
C588 H567 0.950 1_554 S
C588 C587 1.373 . S
C588 C604 1.377 . S
C589 C587 1.389 . S
C589 C590 1.524 . S
C589 C603 1.377 . S
C590 C589 1.524 . S
C590 C591 1.397 1_554 S
C590 C595 1.363 . S
C591 H568 0.950 . S
C591 C590 1.397 1_556 S
C591 C592 1.334 . S
C592 H569 0.950 . S
C592 C591 1.334 . S
C592 C593 1.287 . S
C593 C592 1.287 . S
C593 C594 1.524 1_556 S
C593 H612 0.913 . S
C594 H570 0.950 . S
C594 C593 1.524 1_554 S
C594 C595 1.415 . S
C595 H571 0.950 . S
C595 C590 1.363 . S
C595 C594 1.415 . S
C596 H572 0.951 . S
C596 C597 1.366 1_556 S
C596 C598 1.388 . S
C597 C596 1.366 1_554 S
C597 C601 1.385 . S
C598 H573 0.951 . S
C598 C596 1.388 . S
C598 C599 1.366 1_556 S
C599 C598 1.366 1_554 S
C599 C600 1.414 . S
C599 C602 1.499 . S
C600 H574 0.950 . S
C600 C599 1.414 . S
C600 C601 1.374 . S
C601 H575 0.950 . S
C601 C597 1.385 . S
C601 C600 1.374 . S
C602 C599 1.499 . S
C602 C603 1.373 . S
C602 C604 1.389 . S
C603 H576 0.950 . S
C603 C589 1.377 . S
C603 C602 1.373 . S
C604 C588 1.377 . S
C604 C602 1.389 . S
C604 C605 1.524 . S
C605 C604 1.524 . S
C605 C606 1.397 . S
C605 C610 1.363 1_554 S
C606 H577 0.950 . S
C606 C605 1.397 . S
C606 C607 1.334 . S
C607 H578 0.950 . S
C607 C606 1.334 . S
C607 C608 1.287 . S
C608 C607 1.287 . S
C608 C609 1.524 1_554 S
C608 H611 0.999 . S
C609 H579 0.950 . S
C609 C608 1.524 1_556 S
C609 C610 1.415 . S
C610 H580 0.950 . S
C610 C605 1.363 1_556 S
C610 C609 1.415 . S
H611 C608 0.999 . S
H612 C593 0.913 . S
H613 C631 0.951 . S
H614 C633 0.951 . S
H615 C635 0.950 . S
H616 C636 0.950 . S
H617 C638 0.950 . S
H618 C641 0.950 . S
H619 C642 0.950 . S
H620 C644 0.950 . S
H621 C645 0.950 . S
H622 C646 0.951 . S
H623 C648 0.951 . S
H624 C650 0.950 . S
H625 C651 0.950 . S
H626 C653 0.950 . S
H627 C656 0.950 . S
H628 C657 0.950 . S
H629 C659 0.950 . S
H630 C660 0.950 . S
C631 H613 0.951 . S
C631 C632 1.366 . S
C631 C633 1.388 . S
C632 C631 1.366 . S
C632 C636 1.385 1_554 S
C633 H614 0.951 . S
C633 C631 1.388 . S
C633 C634 1.366 . S
C634 C633 1.366 . S
C634 C635 1.414 1_554 S
C634 C637 1.499 . S
C635 H615 0.950 . S
C635 C634 1.414 1_556 S
C635 C636 1.374 . S
C636 H616 0.950 . S
C636 C632 1.385 1_556 S
C636 C635 1.374 . S
C637 C634 1.499 . S
C637 C638 1.373 1_554 S
C637 C639 1.389 . S
C638 H617 0.950 . S
C638 C637 1.373 1_556 S
C638 C654 1.377 . S
C639 C637 1.389 . S
C639 C640 1.524 . S
C639 C653 1.377 . S
C640 C639 1.524 . S
C640 C641 1.397 . S
C640 C645 1.363 . S
C641 H618 0.950 . S
C641 C640 1.397 . S
C641 C642 1.334 . S
C642 H619 0.950 . S
C642 C641 1.334 . S
C642 C643 1.287 . S
C643 C642 1.287 . S
C643 C644 1.524 . S
C643 H662 0.913 . S
C644 H620 0.950 . S
C644 C643 1.524 . S
C644 C645 1.415 . S
C645 H621 0.950 . S
C645 C640 1.363 . S
C645 C644 1.415 . S
C646 H622 0.951 . S
C646 C647 1.366 1_556 S
C646 C648 1.388 . S
C647 C646 1.366 1_554 S
C647 C651 1.385 . S
C648 H623 0.951 . S
C648 C646 1.388 . S
C648 C649 1.366 1_556 S
C649 C648 1.366 1_554 S
C649 C650 1.414 . S
C649 C652 1.499 . S
C650 H624 0.950 . S
C650 C649 1.414 . S
C650 C651 1.374 . S
C651 H625 0.950 . S
C651 C647 1.385 . S
C651 C650 1.374 . S
C652 C649 1.499 . S
C652 C653 1.373 . S
C652 C654 1.389 1_554 S
C653 H626 0.950 . S
C653 C639 1.377 . S
C653 C652 1.373 . S
C654 C638 1.377 . S
C654 C652 1.389 1_556 S
C654 C655 1.524 . S
C655 C654 1.524 . S
C655 C656 1.397 . S
C655 C660 1.363 . S
C656 H627 0.950 . S
C656 C655 1.397 . S
C656 C657 1.334 . S
C657 H628 0.950 . S
C657 C656 1.334 . S
C657 C658 1.287 . S
C658 C657 1.287 . S
C658 C659 1.524 . S
C658 H661 0.999 . S
C659 H629 0.950 . S
C659 C658 1.524 . S
C659 C660 1.415 . S
C660 H630 0.950 . S
C660 C655 1.363 . S
C660 C659 1.415 . S
H661 C658 0.999 . S
H662 C643 0.913 . S
H663 C681 0.951 . S
H664 C683 0.951 . S
H665 C685 0.950 . S
H666 C686 0.950 . S
H667 C688 0.950 . S
H668 C691 0.950 . S
H669 C692 0.950 . S
H670 C694 0.950 . S
H671 C695 0.950 . S
H672 C696 0.951 . S
H673 C698 0.951 . S
H674 C700 0.950 . S
H675 C701 0.950 . S
H676 C703 0.950 . S
H677 C706 0.950 . S
H678 C707 0.950 . S
H679 C709 0.950 . S
H680 C710 0.950 . S
C681 H663 0.951 . S
C681 C682 1.359 1_556 S
C681 C683 1.388 . S
C682 C681 1.359 1_554 S
C682 C686 1.392 . S
C683 H664 0.951 . S
C683 C681 1.388 . S
C683 C684 1.364 1_556 S
C684 C683 1.364 1_554 S
C684 C685 1.415 . S
C684 C687 1.499 . S
C685 H665 0.950 . S
C685 C684 1.415 . S
C685 C686 1.374 . S
C686 H666 0.950 . S
C686 C682 1.392 . S
C686 C685 1.374 . S
C687 C684 1.499 . S
C687 C688 1.373 . S
C687 C689 1.389 1_554 S
C688 H667 0.950 . S
C688 C687 1.373 . S
C688 C704 1.377 . S
C689 C687 1.389 1_556 S
C689 C690 1.524 . S
C689 C703 1.377 . S
C690 C689 1.524 . S
C690 C691 1.397 . S
C690 C695 1.363 . S
C691 H668 0.950 . S
C691 C690 1.397 . S
C691 C692 1.334 . S
C692 H669 0.950 . S
C692 C691 1.334 . S
C692 C693 1.287 . S
C693 C692 1.287 . S
C693 C694 1.524 . S
C693 H712 0.913 . S
C694 H670 0.950 . S
C694 C693 1.524 . S
C694 C695 1.415 . S
C695 H671 0.950 . S
C695 C690 1.363 . S
C695 C694 1.415 . S
C696 H672 0.951 . S
C696 C697 1.366 . S
C696 C698 1.388 . S
C697 C696 1.366 . S
C697 C701 1.385 1_554 S
C698 H673 0.951 . S
C698 C696 1.388 . S
C698 C699 1.366 . S
C699 C698 1.366 . S
C699 C700 1.414 1_554 S
C699 C702 1.499 . S
C700 H674 0.950 . S
C700 C699 1.414 1_556 S
C700 C701 1.374 . S
C701 H675 0.950 . S
C701 C697 1.385 1_556 S
C701 C700 1.374 . S
C702 C699 1.499 . S
C702 C703 1.373 1_554 S
C702 C704 1.389 . S
C703 H676 0.950 . S
C703 C689 1.377 . S
C703 C702 1.373 1_556 S
C704 C688 1.377 . S
C704 C702 1.389 . S
C704 C705 1.524 . S
C705 C704 1.524 . S
C705 C706 1.397 . S
C705 C710 1.363 . S
C706 H677 0.950 . S
C706 C705 1.397 . S
C706 C707 1.334 . S
C707 H678 0.950 . S
C707 C706 1.334 . S
C707 C708 1.287 . S
C708 C707 1.287 . S
C708 C709 1.524 . S
C708 H711 0.999 . S
C709 H679 0.950 . S
C709 C708 1.524 . S
C709 C710 1.415 . S
C710 H680 0.950 . S
C710 C705 1.363 . S
C710 C709 1.415 . S
H711 C708 0.999 . S
H712 C693 0.913 . S
C147 C64 1.103 . S
C132 C9 1.079 . S
C197 C71 1.558 . S
C182 C38 1.502 . S
C247 C66 1.118 . S
C232 C17 1.086 1_455 S
C297 C72 1.540 . S
C282 C30 1.494 . S
C332 C19 1.075 . S
C347 C65 1.093 . S
C397 C74 1.553 . S
C382 C33 1.489 . S
C432 C12 1.078 1_455 S
C447 C63 1.114 . S
C482 C40 1.493 . S
C497 C73 1.529 . S
C532 C59 1.954 . S
C547 C68 2.012 . S
C582 C61 1.949 . S
C597 C67 1.983 . S
C647 C70 1.993 . S
C632 C51 1.949 . S
C697 C69 2.008 . S
C682 C54 1.939 . S
