# Generated by pormake.
# Topology anh, (6,3)-cn, num edge types: 1
# Building blocks:
#     Node 0, Type 0, BuildingBlock: NUHQIS_clean_sbu_0, # of connection points: 6
#     Node 1, Type 0, BuildingBlock: NUHQIS_clean_sbu_0, # of connection points: 6
#     Node 2, Type 0, BuildingBlock: NUHQIS_clean_sbu_0, # of connection points: 6
#     Node 3, Type 1, BuildingBlock: QEWDON_clean_linker_0, # of connection points: 3
#     Node 4, Type 1, BuildingBlock: QEWDON_clean_linker_0, # of connection points: 3
#     Node 5, Type 1, BuildingBlock: QEWDON_clean_linker_0, # of connection points: 3
#     Node 6, Type 1, BuildingBlock: QEWDON_clean_linker_0, # of connection points: 3
#     Node 7, Type 1, BuildingBlock: QEWDON_clean_linker_0, # of connection points: 3
#     Node 8, Type 1, BuildingBlock: QEWDON_clean_linker_0, # of connection points: 3
#     Edge 9, Type (0, 1), BuildingBlock: MIFKUJ_clean_linker_0, # of connection points: 2
#     Edge 10, Type (0, 1), BuildingBlock: MIFKUJ_clean_linker_0, # of connection points: 2
#     Edge 11, Type (0, 1), BuildingBlock: MIFKUJ_clean_linker_0, # of connection points: 2
#     Edge 12, Type (0, 1), BuildingBlock: MIFKUJ_clean_linker_0, # of connection points: 2
#     Edge 13, Type (0, 1), BuildingBlock: MIFKUJ_clean_linker_0, # of connection points: 2
#     Edge 14, Type (0, 1), BuildingBlock: MIFKUJ_clean_linker_0, # of connection points: 2
#     Edge 15, Type (0, 1), BuildingBlock: MIFKUJ_clean_linker_0, # of connection points: 2
#     Edge 16, Type (0, 1), BuildingBlock: MIFKUJ_clean_linker_0, # of connection points: 2
#     Edge 17, Type (0, 1), BuildingBlock: MIFKUJ_clean_linker_0, # of connection points: 2
#     Edge 18, Type (0, 1), BuildingBlock: MIFKUJ_clean_linker_0, # of connection points: 2
#     Edge 19, Type (0, 1), BuildingBlock: MIFKUJ_clean_linker_0, # of connection points: 2
#     Edge 20, Type (0, 1), BuildingBlock: MIFKUJ_clean_linker_0, # of connection points: 2
#     Edge 21, Type (0, 1), BuildingBlock: MIFKUJ_clean_linker_0, # of connection points: 2
#     Edge 22, Type (0, 1), BuildingBlock: MIFKUJ_clean_linker_0, # of connection points: 2
#     Edge 23, Type (0, 1), BuildingBlock: MIFKUJ_clean_linker_0, # of connection points: 2
#     Edge 24, Type (0, 1), BuildingBlock: MIFKUJ_clean_linker_0, # of connection points: 2
#     Edge 25, Type (0, 1), BuildingBlock: MIFKUJ_clean_linker_0, # of connection points: 2
#     Edge 26, Type (0, 1), BuildingBlock: MIFKUJ_clean_linker_0, # of connection points: 2
# Relax obj value: 0.160
# Max RMSD: 0.133
# Mean RMSD: 0.121
data_MOF--net-anh--node1-NUHQIS_clean_sbu_0--node2-QEWDON_clean_linker_0--edge1-MIFKUJ_clean_linker_0
_symmetry_space_group_name_H-M    P1
_symmetry_Int_Tables_number       1
_symmetry_cell_setting            triclinic
loop_
_symmetry_equiv_pos_as_xyz
'x, y, z'
_cell_length_a     42.814465
_cell_length_b     42.627726
_cell_length_c     63.466953
_cell_angle_alpha  93.436343
_cell_angle_beta   97.076746
_cell_angle_gamma 119.87853
loop_
_atom_site_label
_atom_site_type_symbol
_atom_site_fract_x
_atom_site_fract_y
_atom_site_fract_z
_atom_type_partial_charge
Tb0 Tb 0.10859 0.57701 0.15101 0.0
Eu1 Eu 0.06257 0.61637 0.14549 0.0
C2 C 0.09085 0.60485 0.19053 0.0
C3 C 1.01924 0.52724 0.14801 0.0
C4 C 0.18598 0.56307 0.16587 0.0
C5 C 0.23289 0.55838 0.18876 0.0
C6 C 0.19611 0.54399 0.17971 0.0
C7 C 0.21297 0.59706 0.16151 0.0
C8 C 0.24962 0.61128 0.17037 0.0
C9 C 0.26013 0.59207 0.18401 0.0
C10 C 0.14728 0.54796 0.15648 0.0
O11 O 0.08598 0.56587 0.11662 0.0
O12 O 0.08088 0.61615 0.11394 0.0
O13 O 0.12273 0.66602 0.15246 0.0
O14 O 0.15336 0.6349 0.14966 0.0
C15 C 0.0838 0.5895 0.10503 0.0
O16 O 1.02007 0.62333 0.12764 0.0
O17 O 1.0471 0.65354 0.15949 0.0
O18 O 0.06149 0.59876 0.17794 0.0
O19 O 0.11833 0.60762 0.18217 0.0
O20 O 1.05224 0.53201 0.15498 0.0
O21 O 1.01766 0.55461 0.14007 0.0
C22 C 0.15406 0.66662 0.15188 0.0
O23 O 0.12642 0.54795 0.16978 0.0
O24 O 0.14097 0.559 0.13858 0.0
C25 C 0.98303 0.62291 0.15171 0.0
C26 C 0.91263 0.5801 0.16143 0.0
C27 C 0.92138 0.61111 0.15112 0.0
C28 C 0.95637 0.63226 0.14613 0.0
C29 C 0.9746 0.59275 0.16269 0.0
C30 C 0.9397 0.5714 0.16738 0.0
C31 C 1.01839 0.64138 0.14442 0.0
H32 H 0.23998 0.54307 0.19938 0.0
H33 H 0.17559 0.51794 0.18348 0.0
H34 H 0.20587 0.61252 0.15102 0.0
H35 H 0.26979 0.63691 0.16598 0.0
H36 H 0.90077 0.61816 0.14621 0.0
H37 H 0.96226 0.65517 0.13746 0.0
H38 H 0.99475 0.58502 0.16714 0.0
H39 H 0.93375 0.54785 0.17546 0.0
Tb40 Tb 0.6356 0.12295 0.49013 0.0
Eu41 Eu 0.54877 0.08077 0.48027 0.0
C42 C 0.59091 0.09734 0.52713 0.0
C43 C 0.59471 1.03463 0.48621 0.0
C44 C 0.72596 0.20471 0.5019 0.0
C45 C 0.77349 0.26332 0.52168 0.0
C46 C 0.75587 0.22519 0.51856 0.0
C47 C 0.71426 0.22281 0.48811 0.0
C48 C 0.7319 0.26087 0.49115 0.0
C49 C 0.76135 0.28155 0.50817 0.0
C50 C 0.70377 0.16491 0.501 0.0
O51 O 0.62414 0.11289 0.45492 0.0
O52 O 0.5637 0.09648 0.44831 0.0
O53 O 0.56056 0.1398 0.48014 0.0
O54 O 0.62249 0.16852 0.49179 0.0
C55 C 0.59444 0.10545 0.4416 0.0
O56 O 0.49792 1.03638 0.46118 0.0
O57 O 0.4962 0.06772 0.48867 0.0
O58 O 0.56524 0.0999 0.51553 0.0
O59 O 0.617 0.09732 0.51841 0.0
O60 O 0.62599 0.06598 0.48711 0.0
O61 O 0.56364 1.03513 0.48467 0.0
C62 C 0.59237 0.17047 0.48656 0.0
O63 O 0.68109 0.15463 0.51446 0.0
O64 O 0.68812 0.14582 0.48203 0.0
C65 C 0.45617 1.00438 0.48335 0.0
C66 C 0.41531 0.93801 0.49928 0.0
C67 C 0.39956 0.94714 0.48161 0.0
C68 C 0.41981 0.9801 0.47377 0.0
C69 C 0.4723 0.99533 0.50073 0.0
C70 C 0.45207 0.96244 0.50862 0.0
C71 C 0.47803 1.03825 0.47463 0.0
H72 H 0.79588 0.27845 0.53504 0.0
H73 H 0.76476 0.21162 0.52963 0.0
H74 H 0.69079 0.20751 0.47535 0.0
H75 H 0.72229 0.27406 0.48022 0.0
H76 H 0.37171 0.92856 0.47353 0.0
H77 H 0.40721 0.98643 0.4601 0.0
H78 H 0.50064 1.01366 0.50814 0.0
H79 H 0.46523 0.95638 0.5221 0.0
Tb80 Tb 0.6393 0.62384 0.82268 0.0
Eu81 Eu 0.59459 0.53743 0.81186 0.0
C82 C 0.62122 0.57572 0.85933 0.0
C83 C 0.68627 0.58224 0.81965 0.0
C84 C 0.65687 0.71226 0.84487 0.0
C85 C 0.6617 0.76933 0.85816 0.0
C86 C 0.67709 0.75042 0.84932 0.0
C87 C 0.62202 0.69314 0.85036 0.0
C88 C 0.60629 0.71184 0.85862 0.0
C89 C 0.62549 0.7503 0.86217 0.0
C90 C 0.67044 0.69187 0.83341 0.0
O91 O 0.64187 0.61174 0.78912 0.0
O92 O 0.58666 0.55939 0.78152 0.0
O93 O 0.54945 0.54998 0.81896 0.0
O94 O 0.58055 0.61134 0.81719 0.0
C95 C 0.61368 0.58698 0.77504 0.0
O96 O 0.57975 0.48835 0.79048 0.0
O97 O 0.55645 0.48364 0.81942 0.0
O98 O 0.62021 0.55004 0.84651 0.0
O99 O 0.61961 0.60271 0.8516 0.0
O100 O 0.68554 0.61198 0.82667 0.0
O101 O 0.65476 0.55202 0.81136 0.0
C102 C 0.54938 0.58111 0.81871 0.0
O103 O 0.67729 0.67054 0.8445 0.0
O104 O 0.65142 0.67515 0.81439 0.0
C105 C 0.57255 0.44051 0.80962 0.0
C106 C 0.59423 0.39073 0.82141 0.0
C107 C 0.55796 0.37824 0.81154 0.0
C108 C 0.54723 0.40298 0.80568 0.0
C109 C 0.60868 0.4532 0.81963 0.0
C110 C 0.6195 0.42848 0.8254 0.0
C111 C 0.5613 0.4665 0.80358 0.0
H112 H 0.67783 0.79886 0.86119 0.0
H113 H 0.7043 0.76559 0.84547 0.0
H114 H 0.60626 0.66362 0.84748 0.0
H115 H 0.57828 0.69585 0.86105 0.0
H116 H 0.53804 0.34927 0.80795 0.0
H117 H 0.51925 0.39283 0.798 0.0
H118 H 0.6285 0.48221 0.82294 0.0
H119 H 0.64752 0.43889 0.83309 0.0
H120 H 0.60633 0.12062 0.20523 0.0
C121 C 0.58216 0.0957 0.19718 0.0
C122 C 0.55808 0.07187 0.20989 0.0
C123 C 0.57467 0.0887 0.17453 0.0
H124 H 0.50766 1.02182 0.21036 0.0
C125 C 0.52552 0.03958 0.2002 0.0
C126 C 0.51553 1.0291 0.17793 0.0
C127 C 0.54071 0.05407 0.16513 0.0
C128 C 0.60119 0.11841 0.16131 0.0
H129 H 0.53344 0.04611 0.14798 0.0
C130 C 0.63829 0.15053 0.1694 0.0
C131 C 0.66 0.17674 0.1555 0.0
C132 C 0.58786 0.1152 0.13941 0.0
H133 H 0.56073 0.09367 0.13202 0.0
C134 C 0.60831 0.13996 0.12623 0.0
H135 H 0.65046 0.15492 0.18606 0.0
C136 C 0.64327 0.16967 0.13398 0.0
H137 H 0.65747 0.18777 0.12278 0.0
H138 H 0.59659 0.13611 0.1095 0.0
H139 H 0.59729 0.61653 0.54048 0.0
C140 C 0.59843 0.59398 0.53264 0.0
C141 C 0.60272 0.57005 0.54556 0.0
C142 C 0.59522 0.58903 0.51013 0.0
H143 H 0.60656 0.52163 0.54653 0.0
C144 C 0.60365 0.53974 0.53621 0.0
C145 C 0.59957 0.53137 0.51396 0.0
C146 C 0.59562 0.55662 0.50096 0.0
C147 C 0.58959 0.61658 0.4968 0.0
H148 H 0.59335 0.55085 0.48387 0.0
C149 C 0.59516 0.65251 0.50518 0.0
C150 C 0.58724 0.6751 0.49145 0.0
C151 C 0.57645 0.60564 0.47462 0.0
H152 H 0.57053 0.57952 0.46697 0.0
C153 C 0.56938 0.62731 0.46149 0.0
H154 H 0.60517 0.66281 0.52206 0.0
C155 C 0.57449 0.66096 0.46964 0.0
H156 H 0.56819 0.67624 0.45856 0.0
H157 H 0.55922 0.61753 0.44452 0.0
H158 H 0.13457 0.58303 0.87293 0.0
C159 C 0.11121 0.58371 0.86485 0.0
C160 C 0.08726 0.58608 0.87749 0.0
C161 C 0.1055 0.58232 0.84231 0.0
H162 H 1.03791 0.58763 0.87792 0.0
C163 C 1.05612 0.58658 0.8678 0.0
C164 C 1.04704 0.58489 0.84561 0.0
C165 C 0.07227 0.58272 0.83285 0.0
C166 C 0.13368 0.57947 0.82931 0.0
H167 H 0.06608 0.58223 0.8158 0.0
C168 C 0.16984 0.58424 0.83808 0.0
C169 C 0.19342 0.58017 0.82443 0.0
C170 C 0.12338 0.57045 0.80688 0.0
H171 H 0.09727 0.5654 0.79884 0.0
C172 C 0.14578 0.56679 0.79389 0.0
H173 H 0.17982 0.59118 0.85516 0.0
C174 C 0.17974 0.57154 0.80237 0.0
H175 H 0.19561 0.56815 0.79135 0.0
H176 H 0.13639 0.5598 0.77671 0.0
H177 H 1.04004 0.63537 0.41367 0.0
C178 C 0.06202 0.63631 0.42471 0.0
C179 C 0.08786 0.62972 0.41691 0.0
C180 C 0.06516 0.64542 0.44678 0.0
H181 H 0.13637 0.62655 0.42578 0.0
C182 C 0.11648 0.63192 0.43158 0.0
C183 C 0.1214 0.64358 0.45351 0.0
C184 C 0.09484 0.64911 0.46113 0.0
C185 C 1.03843 0.65297 0.45487 0.0
H186 H 0.0984 0.65863 0.47796 0.0
C187 C 1.01404 0.62862 0.46687 0.0
C188 C 0.98809 0.63511 0.47469 0.0
C189 C 1.03716 0.68425 0.45065 0.0
H190 H 1.05589 0.70332 0.44139 0.0
C191 C 1.01189 0.69124 0.45861 0.0
H192 H 1.01462 0.60399 0.46943 0.0
C193 C 0.98744 0.66686 0.47055 0.0
H194 H 0.9681 0.67287 0.47652 0.0
H195 H 1.01116 0.71556 0.45546 0.0
H196 H 0.48267 0.97919 0.73411 0.0
C197 C 0.50074 1.0019 0.7466 0.0
C198 C 0.52943 1.03408 0.74142 0.0
C199 C 0.495 0.99931 0.76791 0.0
H200 H 0.57356 0.08873 0.75349 0.0
C201 C 0.55215 0.06354 0.75766 0.0
C202 C 0.54662 0.06136 0.77898 0.0
C203 C 0.51822 1.02893 0.78402 0.0
C204 C 0.4641 0.96638 0.77361 0.0
H205 H 0.51343 1.02707 0.8004 0.0
C206 C 0.47085 0.94797 0.78948 0.0
C207 C 0.44184 0.91862 0.79681 0.0
C208 C 0.42793 0.95474 0.76438 0.0
H209 H 0.42218 0.96876 0.75216 0.0
C210 C 0.3989 0.92567 0.77144 0.0
H211 H 0.499 0.95647 0.79577 0.0
C212 C 0.40568 0.90788 0.78765 0.0
H213 H 0.38255 0.88595 0.79304 0.0
H214 H 0.37099 0.91713 0.76451 0.0
H215 H 0.61827 0.63083 0.08757 0.0
C216 C 0.61927 0.61021 0.09632 0.0
C217 C 0.61862 0.58005 0.08545 0.0
C218 C 0.62163 0.61427 0.11861 0.0
H219 H 0.62292 0.53235 0.08949 0.0
C220 C 0.62058 0.55412 0.09742 0.0
C221 C 0.62295 0.55796 0.11982 0.0
C222 C 0.62234 0.58764 0.13018 0.0
C223 C 0.62717 0.64811 0.13027 0.0
H224 H 0.62474 0.59134 0.14747 0.0
C225 C 0.60158 0.64679 0.14252 0.0
C226 C 0.60788 0.67858 0.15497 0.0
C227 C 0.65921 0.68149 0.13017 0.0
H228 H 0.67938 0.6829 0.12089 0.0
C229 C 0.66595 0.71306 0.1426 0.0
H230 H 0.57647 0.62097 0.14187 0.0
C231 C 0.64066 0.71168 0.15503 0.0
H232 H 0.64696 0.73654 0.16474 0.0
H233 H 0.691 0.73866 0.14273 0.0
H234 H 0.29492 0.55292 0.18808 0.0
H235 H 0.36073 0.57693 0.19448 0.0
H236 H 0.3808 0.68693 0.20279 0.0
H237 H 0.31492 0.66321 0.19734 0.0
H238 H 0.40847 0.66881 0.16836 0.0
H239 H 0.41096 0.66237 0.24337 0.0
H240 H 0.39081 0.63317 0.27535 0.0
H241 H 0.4176 0.55214 0.25672 0.0
H242 H 0.43741 0.58052 0.22445 0.0
H243 H 0.59074 0.73198 0.16262 0.0
H244 H 0.53981 0.72698 0.1784 0.0
H245 H 0.50758 0.61648 0.18858 0.0
H246 H 0.56068 0.6225 0.17492 0.0
H247 H 0.48965 0.6442 0.21848 0.0
H248 H 0.47293 0.63847 0.14156 0.0
H249 H 0.48814 0.6604 0.10704 0.0
H250 H 0.48196 0.75523 0.12618 0.0
H251 H 0.46715 0.73404 0.16094 0.0
C252 C 0.3132 0.58216 0.19209 0.0
C253 C 0.29958 0.60615 0.19184 0.0
C254 C 0.35086 0.59583 0.19572 0.0
C255 C 0.37548 0.63365 0.19905 0.0
C256 C 0.36212 0.65763 0.20023 0.0
C257 C 0.32448 0.644 0.19689 0.0
C258 C 0.41431 0.64777 0.19765 0.0
C259 C 0.42664 0.66436 0.17963 0.0
C260 C 0.43724 0.64058 0.21195 0.0
C261 C 0.42547 0.62348 0.2314 0.0
C262 C 0.41229 0.63816 0.24599 0.0
C263 C 0.40098 0.62178 0.26419 0.0
C264 C 0.40287 0.59079 0.26805 0.0
C265 C 0.41615 0.57615 0.25372 0.0
C266 C 0.42748 0.59241 0.23548 0.0
C267 C 0.5737 0.70699 0.16886 0.0
C268 C 0.57953 0.6773 0.16695 0.0
C269 C 0.54418 0.70403 0.17766 0.0
C270 C 0.5191 0.67092 0.18399 0.0
C271 C 0.52626 0.64218 0.18354 0.0
C272 C 0.55635 0.64546 0.17532 0.0
C273 C 0.48368 0.66483 0.18897 0.0
C274 C 0.47186 0.64952 0.20751 0.0
C275 C 0.46056 0.67216 0.1748 0.0
C276 C 0.46942 0.68493 0.15393 0.0
C277 C 0.47508 0.66413 0.13845 0.0
C278 C 0.48359 0.6764 0.11885 0.0
C279 C 0.48614 0.70925 0.11445 0.0
C280 C 0.48007 0.72984 0.12963 0.0
C281 C 0.47162 0.71772 0.14928 0.0
H282 H 0.49272 0.7187 0.09926 0.0
H283 H 0.3941 0.57815 0.28215 0.0
H284 H 0.72903 0.32318 0.50501 0.0
H285 H 0.75954 0.38968 0.50689 0.0
H286 H 0.8646 0.3978 0.52162 0.0
H287 H 0.83452 0.33144 0.51922 0.0
H288 H 0.86072 0.45406 0.54503 0.0
H289 H 0.83017 0.39319 0.47081 0.0
H290 H 0.78578 0.34995 0.43954 0.0
H291 H 0.7258 0.40611 0.43939 0.0
H292 H 0.76967 0.44943 0.47083 0.0
H293 H 0.99875 0.59487 0.5037 0.0
H294 H 0.95212 0.5419 0.51665 0.0
H295 H 0.86871 0.56086 0.4855 0.0
H296 H 0.91515 0.61249 0.47111 0.0
H297 H 0.84924 0.49509 0.47446 0.0
H298 H 0.88904 0.56609 0.54235 0.0
H299 H 0.93194 0.60951 0.57392 0.0
H300 H 0.97166 0.53691 0.58764 0.0
H301 H 0.92942 0.49325 0.55598 0.0
C302 C 0.75865 0.33914 0.50868 0.0
C303 C 0.77942 0.32199 0.51162 0.0
C304 C 0.77596 0.37711 0.50997 0.0
C305 C 0.81428 0.39853 0.51431 0.0
C306 C 0.83497 0.3817 0.51842 0.0
C307 C 0.81772 0.34376 0.51701 0.0
C308 C 0.83325 0.43784 0.51216 0.0
C309 C 0.85831 0.4633 0.52967 0.0
C310 C 0.82882 0.44987 0.49234 0.0
C311 C 0.80292 0.42426 0.47324 0.0
C312 C 0.8074 0.39618 0.46415 0.0
C313 C 0.78236 0.37168 0.44641 0.0
C314 C 0.75293 0.37522 0.43752 0.0
C315 C 0.74857 0.40336 0.44631 0.0
C316 C 0.77352 0.4279 0.46408 0.0
C317 C 0.97051 0.58795 0.49968 0.0
C318 C 0.96066 0.60755 0.48601 0.0
C319 C 0.94384 0.55796 0.50747 0.0
C320 C 0.90676 0.54741 0.50224 0.0
C321 C 0.89712 0.56845 0.48978 0.0
C322 C 0.92378 0.59818 0.48169 0.0
C323 C 0.87818 0.51172 0.50719 0.0
C324 C 0.85116 0.48664 0.49013 0.0
C325 C 0.88058 0.5003 0.52754 0.0
C326 C 0.90606 0.5264 0.5467 0.0
C327 C 0.90707 0.55945 0.55201 0.0
C328 C 0.93127 0.58411 0.56995 0.0
C329 C 0.95453 0.57599 0.58277 0.0
C330 C 0.9536 0.54315 0.5777 0.0
C331 C 0.92947 0.51839 0.55979 0.0
H332 H 0.97325 0.59512 0.59664 0.0
H333 H 0.73356 0.35622 0.42379 0.0
H334 H 0.63579 0.81497 0.84977 0.0
H335 H 0.59574 0.8396 0.85143 0.0
H336 H 0.52806 0.75317 0.88561 0.0
H337 H 0.56997 0.72994 0.88597 0.0
H338 H 0.50944 0.77316 0.8336 0.0
H339 H 0.53024 0.80042 0.9117 0.0
H340 H 0.57063 0.8273 0.94699 0.0
H341 H 0.62262 0.93296 0.92614 0.0
H342 H 0.58291 0.90652 0.8906 0.0
H343 H 0.40111 0.8456 0.8015 0.0
H344 H 0.4195 0.81205 0.82462 0.0
H345 H 0.52055 0.91184 0.8509 0.0
H346 H 0.50024 0.94622 0.83016 0.0
H347 H 0.50876 0.87155 0.87901 0.0
H348 H 0.5064 0.85003 0.80251 0.0
H349 H 0.47751 0.83026 0.76433 0.0
H350 H 0.40398 0.72288 0.77821 0.0
H351 H 0.43224 0.74224 0.8165 0.0
C352 C 0.61364 0.80204 0.85866 0.0
C353 C 0.606 0.76987 0.86739 0.0
C354 C 0.59055 0.81615 0.85946 0.0
C355 C 0.55911 0.7982 0.86867 0.0
C356 C 0.55248 0.7676 0.87864 0.0
C357 C 0.57621 0.75403 0.87844 0.0
C358 C 0.53054 0.80776 0.86402 0.0
C359 C 0.5083 0.79387 0.84375 0.0
C360 C 0.53015 0.83543 0.87709 0.0
C361 C 0.55391 0.8514 0.89843 0.0
C362 C 0.55059 0.82928 0.91456 0.0
C363 C 0.57327 0.84447 0.93463 0.0
C364 C 0.59925 0.8818 0.93879 0.0
C365 C 0.60252 0.90404 0.9229 0.0
C366 C 0.57991 0.88897 0.9028 0.0
C367 C 0.42661 0.86079 0.81277 0.0
C368 C 0.4498 0.89868 0.81321 0.0
C369 C 0.43736 0.84134 0.82582 0.0
C370 C 0.47222 0.85903 0.8388 0.0
C371 C 0.49379 0.89723 0.84077 0.0
C372 C 0.48243 0.91687 0.82842 0.0
C373 C 0.48847 0.83801 0.84805 0.0
C374 C 0.50856 0.8498 0.86909 0.0
C375 C 0.48815 0.80928 0.83532 0.0
C376 C 0.47104 0.79767 0.81236 0.0
C377 C 0.48393 0.82228 0.79741 0.0
C378 C 0.46769 0.81115 0.77576 0.0
C379 C 0.43883 0.77537 0.76886 0.0
C380 C 0.42624 0.75062 0.78358 0.0
C381 C 0.44235 0.76164 0.80526 0.0
H382 H 0.42631 0.7668 0.75209 0.0
H383 H 0.61678 0.8935 0.95434 0.0
H384 H 0.86954 0.60001 0.17939 0.0
H385 H 0.80498 0.56131 0.18143 0.0
H386 H 0.80584 0.46692 0.15354 0.0
H387 H 0.87087 0.5058 0.15154 0.0
H388 H 0.7557 0.47912 0.13061 0.0
H389 H 0.78053 0.46258 0.20109 0.0
H390 H 0.81111 0.47702 0.23874 0.0
H391 H 0.77512 0.55289 0.25124 0.0
H392 H 0.74472 0.53941 0.21361 0.0
H393 H 0.59545 0.48365 0.11211 0.0
H394 H 0.6239 0.45077 0.12792 0.0
H395 H 0.70196 0.54857 0.17141 0.0
H396 H 0.67388 0.58091 0.15609 0.0
H397 H 0.69359 0.49048 0.18908 0.0
H398 H 0.7124 0.53232 0.11636 0.0
H399 H 0.68698 0.52666 0.07828 0.0
H400 H 0.64653 0.41126 0.07085 0.0
H401 H 0.67139 0.41631 0.10898 0.0
C402 C 0.85612 0.57092 0.17408 0.0
C403 C 0.87494 0.55594 0.1651 0.0
C404 C 0.8194 0.54868 0.17554 0.0
C405 C 0.80073 0.5111 0.1679 0.0
C406 C 0.81989 0.49573 0.15979 0.0
C407 C 0.8569 0.51797 0.15859 0.0
C408 C 0.76029 0.49051 0.16474 0.0
C409 C 0.74157 0.48002 0.1435 0.0
C410 C 0.74178 0.49128 0.18156 0.0
C411 C 0.75987 0.49958 0.20441 0.0
C412 C 0.77904 0.48234 0.21181 0.0
C413 C 0.79645 0.49042 0.23319 0.0
C414 C 0.79495 0.51576 0.24739 0.0
C415 C 0.77609 0.53311 0.24024 0.0
C416 C 0.75864 0.52514 0.21888 0.0
C417 C 0.61798 0.49767 0.1255 0.0
C418 C 0.63283 0.53508 0.13256 0.0
C419 C 0.63405 0.4788 0.1346 0.0
C420 C 0.6656 0.4974 0.15053 0.0
C421 C 0.67764 0.53347 0.15917 0.0
C422 C 0.6615 0.55211 0.15029 0.0
C423 C 0.6913 0.48382 0.15496 0.0
C424 C 0.70697 0.48724 0.17638 0.0
C425 C 0.70764 0.47756 0.13834 0.0
C426 C 0.69335 0.4746 0.11543 0.0
C427 C 0.69807 0.50578 0.10655 0.0
C428 C 0.68372 0.50267 0.08501 0.0
C429 C 0.66509 0.4686 0.07217 0.0
C430 C 0.66087 0.4376 0.08083 0.0
C431 C 0.67503 0.44055 0.1024 0.0
H432 H 0.65398 0.46623 0.05549 0.0
H433 H 0.80848 0.52201 0.26394 0.0
H434 H 0.43796 0.89266 0.51574 0.0
H435 H 0.39988 0.83268 0.52641 0.0
H436 H 0.30471 0.84295 0.51021 0.0
H437 H 0.34287 0.90402 0.50215 0.0
H438 H 0.29277 0.80468 0.53972 0.0
H439 H 0.34509 0.80515 0.47379 0.0
H440 H 0.39555 0.81624 0.4545 0.0
H441 H 0.42203 0.75112 0.49368 0.0
H442 H 0.37219 0.74036 0.51351 0.0
H443 H 0.18799 0.68308 0.44246 0.0
H444 H 0.24661 0.71587 0.46566 0.0
H445 H 0.19663 0.66862 0.51954 0.0
H446 H 0.13645 0.63565 0.49592 0.0
H447 H 0.29379 0.70981 0.49124 0.0
H448 H 0.24072 0.73286 0.56201 0.0
H449 H 0.18408 0.72409 0.57347 0.0
H450 H 0.15055 0.74674 0.51244 0.0
H451 H 0.20713 0.75591 0.50077 0.0
C452 C 0.4091 0.88263 0.51517 0.0
C453 C 0.39337 0.90294 0.50759 0.0
C454 C 0.38729 0.84809 0.52106 0.0
C455 C 0.3492 0.83263 0.51857 0.0
C456 C 0.33397 0.85391 0.51227 0.0
C457 C 0.3558 0.88873 0.50714 0.0
C458 C 0.32396 0.79323 0.51958 0.0
C459 C 0.2934 0.78375 0.52948 0.0
C460 C 0.32503 0.76532 0.50691 0.0
C461 C 0.35551 0.77261 0.49539 0.0
C462 C 0.36196 0.79355 0.47842 0.0
C463 C 0.39041 0.79975 0.46739 0.0
C464 C 0.41208 0.78451 0.47292 0.0
C465 C 0.40528 0.76297 0.48946 0.0
C466 C 0.3771 0.75701 0.50068 0.0
C467 C 0.1893 0.67839 0.45905 0.0
C468 C 0.15739 0.65683 0.46733 0.0
C469 C 0.22316 0.69727 0.47242 0.0
C470 C 0.22624 0.69519 0.4945 0.0
C471 C 0.19491 0.67113 0.50262 0.0
C472 C 0.16058 0.65238 0.48914 0.0
C473 C 0.2609 0.72328 0.50856 0.0
C474 C 0.29391 0.73023 0.50238 0.0
C475 C 0.26141 0.74956 0.52354 0.0
C476 C 0.22779 0.74469 0.53052 0.0
C477 C 0.22123 0.73602 0.55111 0.0
C478 C 0.18919 0.73099 0.55762 0.0
C479 C 0.1637 0.73476 0.54367 0.0
C480 C 0.17028 0.74378 0.52322 0.0
C481 C 0.20233 0.74896 0.51667 0.0
H482 H 0.13887 0.73076 0.54873 0.0
H483 H 0.43408 0.78932 0.46436 0.0
H484 H 0.55757 0.32944 0.84008 0.0
H485 H 0.57159 0.28097 0.84366 0.0
H486 H 0.67115 0.34368 0.81875 0.0
H487 H 0.65661 0.39193 0.8145 0.0
H488 H 0.62927 0.2781 0.79617 0.0
H489 H 0.67507 0.32179 0.86989 0.0
H490 H 0.67703 0.34587 0.90662 0.0
H491 H 0.5785 0.24654 0.91097 0.0
H492 H 0.57557 0.22203 0.87415 0.0
H493 H 0.62023 0.11122 0.78586 0.0
H494 H 0.65034 0.17359 0.80474 0.0
H495 H 0.55052 0.14911 0.82712 0.0
H496 H 0.52024 0.08713 0.80819 0.0
H497 H 0.61391 0.20359 0.85544 0.0
H498 H 0.55848 0.17287 0.77944 0.0
H499 H 0.55169 0.1472 0.74218 0.0
H500 H 0.66537 0.22284 0.74223 0.0
H501 H 0.67292 0.24848 0.77969 0.0
C502 C 0.58269 0.33311 0.83563 0.0
C503 C 0.60572 0.3642 0.82673 0.0
C504 C 0.59099 0.30564 0.83799 0.0
C505 C 0.62261 0.30882 0.83164 0.0
C506 C 0.64674 0.34079 0.82387 0.0
C507 C 0.63843 0.36834 0.8215 0.0
C508 C 0.62681 0.27636 0.82984 0.0
C509 C 0.62732 0.26251 0.80936 0.0
C510 C 0.62345 0.25561 0.84693 0.0
C511 C 0.62509 0.27008 0.86918 0.0
C512 C 0.65368 0.30514 0.87861 0.0
C513 C 0.65498 0.31886 0.89947 0.0
C514 C 0.6279 0.29776 0.91112 0.0
C515 C 0.59949 0.26285 0.90194 0.0
C516 C 0.59804 0.24898 0.88108 0.0
C517 C 0.60507 0.11886 0.79535 0.0
C518 C 0.56764 0.09461 0.79513 0.0
C519 C 0.62239 0.15436 0.80626 0.0
C520 C 0.60241 0.16603 0.81697 0.0
C521 C 0.56641 0.14057 0.81896 0.0
C522 C 0.54908 0.10511 0.80806 0.0
C523 C 0.61539 0.20539 0.82177 0.0
C524 C 0.61769 0.2202 0.84263 0.0
C525 C 0.62097 0.22709 0.80502 0.0
C526 C 0.61638 0.21221 0.78241 0.0
C527 C 0.58207 0.18381 0.77154 0.0
C528 C 0.57809 0.16924 0.7504 0.0
C529 C 0.60813 0.18316 0.73987 0.0
C530 C 0.64217 0.21187 0.75043 0.0
C531 C 0.64633 0.22644 0.77163 0.0
H532 H 0.60496 0.17181 0.7235 0.0
H533 H 0.62895 0.30844 0.92726 0.0
H534 H 0.53548 0.96246 0.48281 0.0
H535 H 0.53469 0.90488 0.48492 0.0
H536 H 0.65242 0.96333 0.49573 0.0
H537 H 0.6531 1.02091 0.49279 0.0
H538 H 0.63642 0.90366 0.47505 0.0
H539 H 0.58635 0.91733 0.53623 0.0
H540 H 0.54369 0.92583 0.55534 0.0
H541 H 0.45309 0.82768 0.51874 0.0
H542 H 0.49504 0.81878 0.49912 0.0
H543 H 0.64893 0.74662 0.50316 0.0
H544 H 0.65155 0.80577 0.50397 0.0
H545 H 0.53391 0.74964 0.49116 0.0
H546 H 0.53153 0.69092 0.4908 0.0
H547 H 0.55068 0.80863 0.51371 0.0
H548 H 0.59988 0.79541 0.45221 0.0
H549 H 0.64179 0.7869 0.43237 0.0
H550 H 0.73352 0.88404 0.46935 0.0
H551 H 0.69218 0.89288 0.48958 0.0
C552 C 0.56146 0.96349 0.48566 0.0
C553 C 0.59437 0.9978 0.48761 0.0
C554 C 0.56104 0.92979 0.48714 0.0
C555 C 0.59354 0.92792 0.49111 0.0
C556 C 0.62644 0.96226 0.49278 0.0
C557 C 0.62685 0.99596 0.49113 0.0
C558 C 0.59339 0.89105 0.49325 0.0
C559 C 0.61784 0.88346 0.48388 0.0
C560 C 0.56909 0.86257 0.50421 0.0
C561 C 0.54382 0.86759 0.51608 0.0
C562 C 0.55729 0.89765 0.53218 0.0
C563 C 0.53323 0.90252 0.54308 0.0
C564 C 0.49568 0.87729 0.53818 0.0
C565 C 0.48214 0.84714 0.52242 0.0
C566 C 0.50603 0.84217 0.51142 0.0
C567 C 0.62347 0.74664 0.50125 0.0
C568 C 0.58996 0.71264 0.49772 0.0
C569 C 0.6249 0.78113 0.50118 0.0
C570 C 0.59292 0.78401 0.49717 0.0
C571 C 0.55953 0.75001 0.49435 0.0
C572 C 0.55813 0.71569 0.49437 0.0
C573 C 0.59377 0.82132 0.49556 0.0
C574 C 0.56938 0.82893 0.50497 0.0
C575 C 0.61809 0.8498 0.48464 0.0
C576 C 0.64299 0.84456 0.47256 0.0
C577 C 0.62902 0.81481 0.4562 0.0
C578 C 0.65266 0.80995 0.44488 0.0
C579 C 0.6903 0.83485 0.44964 0.0
C580 C 0.70437 0.86473 0.46571 0.0
C581 C 0.68085 0.86969 0.4771 0.0
H582 H 0.70856 0.83105 0.44086 0.0
H583 H 0.47702 0.88097 0.5466 0.0
H584 H 0.70055 0.52814 0.80394 0.0
H585 H 0.75802 0.52815 0.80588 0.0
H586 H 0.81625 0.63629 0.84161 0.0
H587 H 0.75869 0.63678 0.83883 0.0
H588 H 0.86306 0.63789 0.8215 0.0
H589 H 0.79324 0.54149 0.86104 0.0
H590 H 0.74005 0.48419 0.86712 0.0
H591 H 0.752 0.42531 0.81444 0.0
H592 H 0.80505 0.48237 0.80789 0.0
H593 H 1.02987 0.63726 0.85828 0.0
H594 H 0.9718 0.63611 0.85311 0.0
H595 H 0.92107 0.53329 0.81201 0.0
H596 H 0.97984 0.53431 0.81753 0.0
H597 H 0.87027 0.52788 0.83379 0.0
H598 H 0.94162 0.62496 0.79528 0.0
H599 H 0.99473 0.68269 0.78966 0.0
H600 H 0.97981 0.74063 0.84147 0.0
H601 H 0.92685 0.68316 0.84756 0.0
C602 C 0.72539 0.55215 0.81231 0.0
C603 C 0.7234 0.58242 0.82121 0.0
C604 C 0.75911 0.55202 0.81369 0.0
C605 C 0.79348 0.58187 0.82447 0.0
C606 C 0.79146 0.61232 0.83317 0.0
C607 C 0.75773 0.61258 0.83162 0.0
C608 C 0.8308 0.58178 0.82639 0.0
C609 C 0.86409 0.61365 0.82453 0.0
C610 C 0.83446 0.55063 0.82984 0.0
C611 C 0.80288 0.51626 0.83384 0.0
C612 C 0.78442 0.51635 0.85069 0.0
C613 C 0.7543 0.48392 0.85422 0.0
C614 C 0.74261 0.45116 0.84114 0.0
C615 C 0.76107 0.45073 0.82454 0.0
C616 C 0.79118 0.4831 0.82092 0.0
C617 C 1.00684 0.61464 0.84757 0.0
C618 C 1.01147 0.58653 0.83789 0.0
C619 C 0.97274 0.61393 0.84458 0.0
C620 C 0.94018 0.5849 0.83172 0.0
C621 C 0.9446 0.5566 0.82196 0.0
C622 C 0.97906 0.55744 0.82487 0.0
C623 C 0.90241 0.58406 0.82905 0.0
C624 C 0.86912 0.55207 0.83078 0.0
C625 C 0.89873 0.61514 0.82562 0.0
C626 C 0.93049 0.6497 0.822 0.0
C627 C 0.94982 0.64998 0.80556 0.0
C628 C 0.97987 0.68266 0.80228 0.0
C629 C 0.99069 0.71529 0.81523 0.0
C630 C 0.97142 0.71533 0.83146 0.0
C631 C 0.94137 0.68272 0.83483 0.0
H632 H 1.01397 0.74056 0.81266 0.0
H633 H 0.71932 0.42609 0.84392 0.0
H634 H 0.16884 0.73947 0.15626 0.0
H635 H 0.22664 0.7976 0.15935 0.0
H636 H 0.28417 0.73938 0.15467 0.0
H637 H 0.22632 0.68117 0.15205 0.0
H638 H 0.33098 0.79715 0.17963 0.0
H639 H 0.26338 0.79167 0.11239 0.0
H640 H 0.21141 0.78599 0.08733 0.0
H641 H 0.22167 0.88025 0.12328 0.0
H642 H 0.27346 0.88623 0.14872 0.0
H643 H 0.50142 0.95757 0.16644 0.0
H644 H 0.44338 0.89873 0.16112 0.0
H645 H 0.38525 0.95568 0.1687 0.0
H646 H 0.44334 1.01439 0.17381 0.0
H647 H 0.33898 0.89838 0.1417 0.0
H648 H 0.40718 0.90361 0.20884 0.0
H649 H 0.45946 0.9091 0.23348 0.0
H650 H 0.44837 0.81482 0.19703 0.0
H651 H 0.39631 0.80907 0.17199 0.0
C652 C 0.19357 0.73856 0.15579 0.0
C653 C 0.19125 0.704 0.15371 0.0
C654 C 0.22747 0.77266 0.1574 0.0
C655 C 0.26175 0.77491 0.15688 0.0
C656 C 0.25945 0.7403 0.15512 0.0
C657 C 0.22552 0.70618 0.1535 0.0
C658 C 0.2992 0.8124 0.15837 0.0
C659 C 0.33225 0.81875 0.17093 0.0
C660 C 0.30315 0.84269 0.14775 0.0
C661 C 0.27202 0.83915 0.13258 0.0
C662 C 0.25438 0.81103 0.11503 0.0
C663 C 0.22499 0.80778 0.10075 0.0
C664 C 0.21318 0.83267 0.10375 0.0
C665 C 0.23081 0.86094 0.12101 0.0
C666 C 0.26019 0.86429 0.13535 0.0
C667 C 0.47631 0.95794 0.16637 0.0
C668 C 0.47834 0.99224 0.16982 0.0
C669 C 0.44239 0.92351 0.16373 0.0
C670 C 0.40799 0.92076 0.16469 0.0
C671 C 0.41005 0.95516 0.16767 0.0
C672 C 0.44397 0.98952 0.17044 0.0
C673 C 0.3707 0.88307 0.16294 0.0
C674 C 0.33769 0.87672 0.15036 0.0
C675 C 0.36683 0.85274 0.17346 0.0
C676 C 0.39813 0.85617 0.18841 0.0
C677 C 0.41607 0.88422 0.20599 0.0
C678 C 0.44564 0.88735 0.22004 0.0
C679 C 0.4573 0.86239 0.21679 0.0
C680 C 0.43936 0.83418 0.1995 0.0
C681 C 0.40981 0.83097 0.18538 0.0
H682 H 0.48018 0.86485 0.22769 0.0
H683 H 0.19042 0.83012 0.09268 0.0
H684 H 0.65323 0.24263 0.49537 0.0
H685 H 0.65571 0.30148 0.49777 0.0
H686 H 0.53802 0.24528 0.48491 0.0
H687 H 0.53567 0.18645 0.4816 0.0
H688 H 0.5547 0.30123 0.46756 0.0
H689 H 0.60723 0.2999 0.5392 0.0
H690 H 0.65119 0.29577 0.56624 0.0
H691 H 0.74043 0.38774 0.54629 0.0
H692 H 0.69705 0.39198 0.51884 0.0
H693 H 0.54056 0.46076 0.49784 0.0
H694 H 0.53941 0.40264 0.49281 0.0
H695 H 0.65698 0.46049 0.50891 0.0
H696 H 0.65764 0.51834 0.51486 0.0
H697 H 0.64141 0.40411 0.52406 0.0
H698 H 0.59195 0.40683 0.45295 0.0
H699 H 0.55029 0.41142 0.42446 0.0
H700 H 0.45833 0.31836 0.44163 0.0
H701 H 0.49942 0.31347 0.47039 0.0
C702 C 0.62764 0.2424 0.49305 0.0
C703 C 0.59419 0.20829 0.4883 0.0
C704 C 0.62903 0.27688 0.4947 0.0
C705 C 0.59704 0.27981 0.49218 0.0
C706 C 0.56366 0.24562 0.48716 0.0
C707 C 0.56228 0.21117 0.48529 0.0
C708 C 0.59799 0.31749 0.49444 0.0
C709 C 0.57351 0.32325 0.48025 0.0
C710 C 0.62285 0.34836 0.51031 0.0
C711 C 0.64891 0.34604 0.52686 0.0
C712 C 0.63624 0.31911 0.54051 0.0
C713 C 0.66106 0.31672 0.55588 0.0
C714 C 0.69859 0.34137 0.5579 0.0
C715 C 0.71137 0.36857 0.54463 0.0
C716 C 0.68669 0.37097 0.52916 0.0
C717 C 0.56641 0.46151 0.49964 0.0
C718 C 0.59932 0.49574 0.50591 0.0
C719 C 0.56583 0.42749 0.49675 0.0
C720 C 0.59819 0.42519 0.4998 0.0
C721 C 0.63108 0.4596 0.50611 0.0
C722 C 0.63158 0.49353 0.50922 0.0
C723 C 0.59792 0.38784 0.49723 0.0
C724 C 0.62254 0.38213 0.51138 0.0
C725 C 0.57348 0.35715 0.48115 0.0
C726 C 0.54871 0.36004 0.46396 0.0
C727 C 0.56281 0.3875 0.45073 0.0
C728 C 0.53931 0.39013 0.43453 0.0
C729 C 0.50167 0.36526 0.43128 0.0
C730 C 0.48748 0.33764 0.44419 0.0
C731 C 0.51086 0.33491 0.46044 0.0
H732 H 0.48352 0.36734 0.41872 0.0
H733 H 0.71776 0.33948 0.56981 0.0
H734 H 0.47948 0.52491 0.82361 0.0
H735 H 0.4235 0.52582 0.82668 0.0
H736 H 0.47842 0.64012 0.82017 0.0
H737 H 0.53505 0.63941 0.81788 0.0
H738 H 0.4346 0.63594 0.84396 0.0
H739 H 0.40126 0.55565 0.77897 0.0
H740 H 0.39284 0.50284 0.75543 0.0
H741 H 0.32177 0.42965 0.79443 0.0
H742 H 0.33011 0.48208 0.81835 0.0
H743 H 0.26384 0.63999 0.82515 0.0
H744 H 0.32202 0.64172 0.82516 0.0
H745 H 0.27007 0.52871 0.83445 0.0
H746 H 0.21173 0.5271 0.83402 0.0
H747 H 0.31282 0.53302 0.80938 0.0
H748 H 0.34499 0.61643 0.87341 0.0
H749 H 0.35473 0.67085 0.89587 0.0
H750 H 0.42934 0.74055 0.85711 0.0
H751 H 0.41951 0.68648 0.83416 0.0
C752 C 0.48006 0.55047 0.82268 0.0
C753 C 0.51325 0.58196 0.82019 0.0
C754 C 0.44705 0.55095 0.82426 0.0
C755 C 0.44434 0.58286 0.82317 0.0
C756 C 0.47779 0.61454 0.82102 0.0
C757 C 0.51094 0.6141 0.81956 0.0
C758 C 0.40771 0.58334 0.82453 0.0
C759 C 0.40824 0.61337 0.83601 0.0
C760 C 0.37164 0.55433 0.81483 0.0
C761 C 0.36663 0.52279 0.80057 0.0
C762 C 0.38403 0.52829 0.7826 0.0
C763 C 0.37925 0.49844 0.76919 0.0
C764 C 0.35687 0.46292 0.77347 0.0
C765 C 0.33915 0.45718 0.79116 0.0
C766 C 0.34388 0.48695 0.80464 0.0
C767 C 0.26482 0.61574 0.82817 0.0
C768 C 0.232 0.58396 0.83085 0.0
C769 C 0.29887 0.61661 0.82799 0.0
C770 C 0.30275 0.58555 0.83021 0.0
C771 C 0.26984 0.55373 0.83284 0.0
C772 C 0.23581 0.55293 0.83304 0.0
C773 C 0.33963 0.58556 0.82891 0.0
C774 C 0.33915 0.5556 0.81738 0.0
C775 C 0.37577 0.61488 0.83836 0.0
C776 C 0.38105 0.64735 0.85185 0.0
C777 C 0.36312 0.64333 0.86951 0.0
C778 C 0.36871 0.67412 0.88235 0.0
C779 C 0.39249 0.70912 0.87784 0.0
C780 C 0.41078 0.71341 0.8605 0.0
C781 C 0.40517 0.6827 0.84756 0.0
H782 H 0.39685 0.73292 0.88784 0.0
H783 H 0.3532 0.43984 0.76306 0.0
H784 H 1.00817 0.46757 0.16993 0.0
H785 H 0.95166 0.41241 0.17381 0.0
H786 H 0.88879 0.44643 0.13351 0.0
H787 H 0.9454 0.50278 0.13083 0.0
H788 H 0.8438 0.41085 0.1545 0.0
H789 H 0.90988 0.36456 0.12202 0.0
H790 H 0.96161 0.35582 0.11755 0.0
H791 H 0.95773 0.31544 0.17814 0.0
H792 H 0.90619 0.32429 0.18305 0.0
H793 H 0.72251 0.18909 0.13992 0.0
H794 H 0.77982 0.24589 0.13971 0.0
H795 H 0.74677 0.30364 0.18089 0.0
H796 H 0.68853 0.2464 0.18048 0.0
H797 H 0.83913 0.29311 0.15855 0.0
H798 H 0.79768 0.40075 0.18055 0.0
H799 H 0.74362 0.40797 0.17519 0.0
H800 H 0.69274 0.32138 0.12212 0.0
H801 H 0.74662 0.31399 0.12686 0.0
C802 C 0.9825 0.46353 0.16167 0.0
C803 C 0.98296 0.49089 0.14971 0.0
C804 C 0.94923 0.43089 0.16371 0.0
C805 C 0.91375 0.42244 0.15348 0.0
C806 C 0.91435 0.45021 0.14176 0.0
C807 C 0.9476 0.48317 0.14003 0.0
C808 C 0.87687 0.38588 0.1551 0.0
C809 C 0.84345 0.38541 0.15555 0.0
C810 C 0.87352 0.35072 0.15583 0.0
C811 C 0.9045 0.34548 0.15301 0.0
C812 C 0.92022 0.35402 0.13444 0.0
C813 C 0.94947 0.34902 0.13182 0.0
C814 C 0.96302 0.33519 0.14758 0.0
C815 C 0.94726 0.32622 0.16597 0.0
C816 C 0.91802 0.3312 0.16867 0.0
C817 C 0.72751 0.21352 0.14954 0.0
C818 C 0.69986 0.21127 0.16086 0.0
C819 C 0.76102 0.24696 0.14926 0.0
C820 C 0.76958 0.2813 0.15997 0.0
C821 C 0.74235 0.27904 0.17184 0.0
C822 C 0.70859 0.24534 0.17209 0.0
C823 C 0.80616 0.31816 0.15845 0.0
C824 C 0.83952 0.31863 0.15785 0.0
C825 C 0.80902 0.35297 0.15675 0.0
C826 C 0.77597 0.35634 0.15434 0.0
C827 C 0.7749 0.38313 0.16779 0.0
C828 C 0.74435 0.38735 0.16483 0.0
C829 C 0.71474 0.36505 0.14842 0.0
C830 C 0.71561 0.3385 0.13491 0.0
C831 C 0.74613 0.33424 0.13774 0.0
H832 H 0.69118 0.36845 0.14613 0.0
H833 H 0.98567 0.33134 0.14553 0.0
H834 H 0.09355 0.54056 0.0803 0.0
H835 H 0.09607 0.53721 0.04186 0.0
H836 H 0.07881 0.62829 0.03828 0.0
H837 H 0.07584 0.63154 0.07638 0.0
H838 H 1.03736 0.57671 0.0052 0.0
H839 H 0.16414 0.63762 0.0391 0.0
H840 H 0.21741 0.644 0.06317 0.0
H841 H 0.20332 0.54699 0.02834 0.0
H842 H 0.14963 0.53977 0.00423 0.0
H843 H 0.08708 0.63432 0.90764 0.0
H844 H 0.08905 0.63237 0.94614 0.0
H845 H 0.10349 0.53929 0.94004 0.0
H846 H 0.10186 0.54139 0.90127 0.0
H847 H 0.14448 0.58568 0.97739 0.0
H848 H 1.01971 0.52689 0.94218 0.0
H849 H 0.96716 0.5214 0.91782 0.0
H850 H 0.97737 0.61441 0.95522 0.0
H851 H 1.03038 0.62083 0.97962 0.0
C852 C 0.09016 0.5598 0.07132 0.0
C853 C 0.08448 0.58632 0.08155 0.0
C854 C 0.09183 0.55799 0.04932 0.0
C855 C 0.08797 0.58273 0.03708 0.0
C856 C 0.08185 0.60886 0.04726 0.0
C857 C 0.08024 0.61072 0.06916 0.0
C858 C 0.09002 0.5816 0.01369 0.0
C859 C 0.06098 0.57901 -0.0008 0.0
C860 C 0.1203 0.58354 0.00561 0.0
C861 C 0.15263 0.58793 0.02003 0.0
C862 C 0.17223 0.61749 0.03669 0.0
C863 C 0.20252 0.62129 0.05031 0.0
C864 C 0.21367 0.59585 0.04732 0.0
C865 C 0.19461 0.56663 0.03066 0.0
C866 C 0.16426 0.56268 0.017 0.0
C867 C 0.09103 0.61362 0.91451 0.0
C868 C 0.09389 0.58775 0.90133 0.0
C869 C 0.09206 0.61247 0.93655 0.0
C870 C 0.09557 0.58516 0.94601 0.0
C871 C 0.10053 0.56049 0.93313 0.0
C872 C 0.09969 0.56177 0.91099 0.0
C873 C 0.09216 0.58156 0.96904 0.0
C874 C 0.1208 0.58313 0.98341 0.0
C875 C 0.06147 0.57865 0.97707 0.0
C876 C 1.0292 0.5745 0.96264 0.0
C877 C 1.01088 0.5463 0.94514 0.0
C878 C 0.98101 0.54302 0.93133 0.0
C879 C 0.96898 0.56758 0.93495 0.0
C880 C 0.98674 0.59542 0.95243 0.0
C881 C 1.01668 0.59888 0.96627 0.0
H882 H 0.94586 0.56501 0.92423 0.0
H883 H 0.23714 0.59884 0.05789 0.0
H884 H 0.54288 0.10397 0.41079 0.0
H885 H 0.54109 0.10155 0.37219 0.0
H886 H 0.64419 0.1048 0.37993 0.0
H887 H 0.64667 0.10826 0.41892 0.0
H888 H 0.64216 0.1456 0.35002 0.0
H889 H 0.56057 1.02339 0.36259 0.0
H890 H 0.50945 0.97551 0.37716 0.0
H891 H 0.43474 1.00077 0.34155 0.0
H892 H 0.48549 0.04912 0.32699 0.0
H893 H 0.62019 0.08728 0.23755 0.0
H894 H 0.63037 0.09531 0.2769 0.0
H895 H 0.52446 0.08473 0.27547 0.0
H896 H 0.51381 0.07525 0.23628 0.0
H897 H 0.53072 0.04604 0.30261 0.0
H898 H 0.61225 0.16968 0.29092 0.0
H899 H 0.66325 0.218 0.2765 0.0
H900 H 0.73772 0.19057 0.31019 0.0
H901 H 0.68706 0.14178 0.3246 0.0
C902 C 0.56533 0.10428 0.40439 0.0
C903 C 0.59478 0.10596 0.41809 0.0
C904 C 0.56417 0.10273 0.38218 0.0
C905 C 0.59207 0.10213 0.3729 0.0
C906 C 0.62215 0.10499 0.38657 0.0
C907 C 0.62352 0.10691 0.40891 0.0
C908 C 0.58925 0.09782 0.34898 0.0
C909 C 0.61798 0.12353 0.33967 0.0
C910 C 0.55753 0.06942 0.33527 0.0
C911 C 0.52689 0.04006 0.34383 0.0
C912 C 0.53327 1.01886 0.35796 0.0
C913 C 0.50436 0.99163 0.36621 0.0
C914 C 0.46888 0.98515 0.36032 0.0
C915 C 0.46223 1.00583 0.34611 0.0
C916 C 0.49105 1.03312 0.33784 0.0
C917 C 0.59935 0.08716 0.2457 0.0
C918 C 0.5662 0.08063 0.23381 0.0
C919 C 0.60519 0.09186 0.26825 0.0
C920 C 0.57835 0.09101 0.27944 0.0
C921 C 0.54563 0.08536 0.26744 0.0
C922 C 0.53957 0.08007 0.24498 0.0
C923 C 0.58327 0.09432 0.30349 0.0
C924 C 0.55495 0.0682 0.31288 0.0
C925 C 0.61531 0.12239 0.3172 0.0
C926 C 0.6458 0.15186 0.30866 0.0
C927 C 0.63946 0.17381 0.29514 0.0
C928 C 0.66831 0.20129 0.28699 0.0
C929 C 0.70369 0.20728 0.29238 0.0
C930 C 0.7103 0.18587 0.306 0.0
C931 C 0.68154 0.15832 0.31418 0.0
H932 H 0.72598 0.22856 0.28605 0.0
H933 H 0.44654 0.96408 0.36673 0.0
H934 H 0.55389 0.55695 0.74302 0.0
H935 H 0.55245 0.55744 0.70446 0.0
H936 H 0.67054 0.61954 0.7153 0.0
H937 H 0.67188 0.62093 0.75406 0.0
H938 H 0.64937 0.64326 0.68481 0.0
H939 H 0.61497 0.52181 0.69681 0.0
H940 H 0.58014 0.46278 0.71003 0.0
H941 H 0.48115 0.44331 0.67104 0.0
H942 H 0.51532 0.50248 0.6578 0.0
H943 H 0.65757 0.57944 0.57703 0.0
H944 H 0.66002 0.58586 0.61607 0.0
H945 H 0.55484 0.57806 0.6065 0.0
H946 H 0.55285 0.57285 0.56747 0.0
H947 H 0.57007 0.52709 0.63552 0.0
H948 H 0.61045 0.65248 0.62383 0.0
H949 H 0.65032 0.70965 0.61015 0.0
H950 H 0.74491 0.71827 0.64849 0.0
H951 H 0.70559 0.66079 0.66214 0.0
C952 C 0.57956 0.57088 0.73719 0.0
C953 C 0.61301 0.58873 0.75164 0.0
C954 C 0.57875 0.5709 0.71505 0.0
C955 C 0.61141 0.58765 0.70665 0.0
C956 C 0.64487 0.60623 0.72116 0.0
C957 C 0.64565 0.60699 0.74338 0.0
C958 C 0.61063 0.58561 0.68286 0.0
C959 C 0.63225 0.61767 0.67418 0.0
C960 C 0.5883 0.5524 0.66861 0.0
C961 C 0.56765 0.51675 0.67649 0.0
C962 C 0.58573 0.50505 0.69117 0.0
C963 C 0.56611 0.47156 0.69865 0.0
C964 C 0.52844 0.44936 0.69142 0.0
C965 C 0.51032 0.46057 0.67665 0.0
C966 C 0.5298 0.49407 0.66914 0.0
C967 C 0.63518 0.57947 0.5833 0.0
C968 C 0.6051 0.57583 0.56925 0.0
C969 C 0.63659 0.58313 0.60557 0.0
C970 C 0.60761 0.58244 0.61419 0.0
C971 C 0.57751 0.57872 0.60019 0.0
C972 C 0.57648 0.57592 0.57794 0.0
C973 C 0.60837 0.58461 0.63779 0.0
C974 C 0.58695 0.55254 0.64633 0.0
C975 C 0.63153 0.61751 0.65191 0.0
C976 C 0.65512 0.65212 0.6438 0.0
C977 C 0.63978 0.66635 0.62917 0.0
C978 C 0.66227 0.69886 0.62146 0.0
C979 C 0.70014 0.71752 0.6284 0.0
C980 C 0.71558 0.70375 0.64311 0.0
C981 C 0.6932 0.67123 0.65084 0.0
H982 H 0.7175 0.74269 0.62242 0.0
H983 H 0.5133 0.42343 0.69723 0.0
H984 H 0.61534 0.05978 0.55073 0.0
H985 H 0.60685 0.04657 0.58747 0.0
H986 H 0.55278 0.10868 0.59098 0.0
H987 H 0.56003 0.12096 0.55413 0.0
H988 H 0.61798 0.12153 0.62803 0.0
H989 H 0.49737 1.034 0.58502 0.0
H990 H 0.45395 0.98267 0.55697 0.0
H991 H 0.49284 0.91526 0.58314 0.0
H992 H 0.53688 0.96641 0.61111 0.0
H993 H 0.53608 0.08923 0.71945 0.0
H994 H 0.55012 0.09851 0.68343 0.0
H995 H 0.55121 0.99766 0.67699 0.0
H996 H 0.5362 0.98793 0.71304 0.0
H997 H 0.5181 1.00221 0.64145 0.0
H998 H 0.63156 0.0827 0.68663 0.0
H999 H 0.67533 0.13084 0.71614 0.0
H1000 H 0.65528 0.20923 0.68742 0.0
H1001 H 0.6109 0.16142 0.65786 0.0
C1002 C 0.60189 0.0708 0.55943 0.0
C1003 C 0.58837 0.09143 0.54966 0.0
C1004 C 0.59693 0.0631 0.5803 0.0
C1005 C 0.57911 0.07659 0.59177 0.0
C1006 C 0.56652 0.09801 0.58228 0.0
C1007 C 0.57066 0.10495 0.56128 0.0
C1008 C 0.57334 0.06837 0.61371 0.0
C1009 C 0.59604 0.09558 0.63106 0.0
C1010 C 0.54561 1.03405 0.61754 0.0
C1011 C 0.52083 1.00419 0.5999 0.0
C1012 C 0.49719 1.00848 0.5845 0.0
C1013 C 0.47234 0.97935 0.56868 0.0
C1014 C 0.47079 0.94578 0.56818 0.0
C1015 C 0.49421 0.94132 0.58343 0.0
C1016 C 0.51912 0.97036 0.59926 0.0
C1017 C 0.53933 0.06908 0.71033 0.0
C1018 C 0.53536 1.03802 0.71902 0.0
C1019 C 0.54757 0.07448 0.6898 0.0
C1020 C 0.55264 0.04925 0.67767 0.0
C1021 C 0.54768 1.01764 0.68611 0.0
C1022 C 0.539 1.01201 0.70662 0.0
C1023 C 0.56227 0.05566 0.65602 0.0
C1024 C 0.54039 1.02811 0.63864 0.0
C1025 C 0.59127 0.0895 0.65224 0.0
C1026 C 0.61771 0.11837 0.67008 0.0
C1027 C 0.63624 0.11013 0.68668 0.0
C1028 C 0.6612 0.13737 0.7034 0.0
C1029 C 0.66812 0.17307 0.70363 0.0
C1030 C 0.64996 0.18157 0.68718 0.0
C1031 C 0.6249 0.15441 0.67043 0.0
H1032 H 0.6876 0.19415 0.71653 0.0
H1033 H 0.45125 0.92314 0.55611 0.0
H1034 H 0.64041 0.63067 0.89143 0.0
H1035 H 0.64091 0.62689 0.92976 0.0
H1036 H 0.60391 0.51201 0.91794 0.0
H1037 H 0.60395 0.51563 0.8795 0.0
H1038 H 0.56384 0.53299 0.94479 0.0
H1039 H 0.6857 0.5609 0.93908 0.0
H1040 H 0.74577 0.59554 0.92798 0.0
H1041 H 0.7666 0.69328 0.96561 0.0
H1042 H 0.70637 0.65933 0.97667 0.0
H1043 H 0.58481 0.51775 0.05592 0.0
H1044 H 0.58661 0.51296 0.01764 0.0
H1045 H 0.65226 0.63043 0.02312 0.0
H1046 H 0.65306 0.63532 0.06157 0.0
H1047 H 0.67806 0.60272 -0.00134 0.0
H1048 H 0.55674 0.57917 0.00214 0.0
H1049 H 0.49573 0.54786 0.01244 0.0
H1050 H 0.47261 0.44627 0.97859 0.0
H1051 H 0.5337 0.47691 0.96832 0.0
C1052 C 0.63249 0.60461 0.89698 0.0
C1053 C 0.62219 0.57344 0.88249 0.0
C1054 C 0.63287 0.60254 0.91886 0.0
C1055 C 0.62254 0.56921 0.92659 0.0
C1056 C 0.61199 0.53796 0.9122 0.0
C1057 C 0.61219 0.54012 0.89031 0.0
C1058 C 0.62246 0.56722 0.94975 0.0
C1059 C 0.5888 0.54765 0.95663 0.0
C1060 C 0.65501 0.58719 0.96505 0.0
C1061 C 0.69137 0.60762 0.95855 0.0
C1062 C 0.70295 0.58984 0.94484 0.0
C1063 C 0.73706 0.60934 0.93859 0.0
C1064 C 0.75995 0.6466 0.94605 0.0
C1065 C 0.74882 0.66442 0.95983 0.0
C1066 C 0.71471 0.64505 0.96611 0.0
C1067 C 0.6 0.54258 0.04906 0.0
C1068 C 0.61852 0.57697 0.06193 0.0
C1069 C 0.60061 0.5398 0.02707 0.0
C1070 C 0.61904 0.57137 0.01737 0.0
C1071 C 0.63769 0.60566 0.03018 0.0
C1072 C 0.63764 0.60843 0.05219 0.0
C1073 C 0.61925 0.56895 -0.00606 0.0
C1074 C 0.653 0.58772 0.98694 0.0
C1075 C 0.58667 0.54871 0.97853 0.0
C1076 C 0.54993 0.53025 0.98467 0.0
C1077 C 0.53875 0.5501 -0.00296 0.0
C1078 C 0.50414 0.53249 0.00284 0.0
C1079 C 0.48035 0.49508 -0.00377 0.0
C1080 C 0.49109 0.47523 0.98374 0.0
C1081 C 0.52569 0.49271 0.97791 0.0
H1082 H 0.45357 0.48149 0.00074 0.0
H1083 H 0.78635 0.66166 0.94119 0.0
H1084 H 0.15007 0.63013 0.22288 0.0
H1085 H 0.14973 0.63287 0.26156 0.0
H1086 H 1.03228 0.5841 0.24913 0.0
H1087 H 1.03262 0.58262 0.21081 0.0
H1088 H 0.05949 0.63735 0.27984 0.0
H1089 H 0.0758 0.53541 0.2643 0.0
H1090 H 0.10533 0.50354 0.25026 0.0
H1091 H 0.20537 0.57716 0.29363 0.0
H1092 H 0.17657 0.6098 0.30773 0.0
H1093 H 1.02842 0.58976 0.38452 0.0
H1094 H 1.0286 0.58354 0.34587 0.0
H1095 H 0.14632 0.65051 0.35786 0.0
H1096 H 0.14645 0.65805 0.39618 0.0
H1097 H 0.11864 0.5869 0.3278 0.0
H1098 H 0.10042 0.68869 0.34263 0.0
H1099 H 0.06903 0.71858 0.35659 0.0
H1100 H 0.96934 0.64134 0.31406 0.0
H1101 H 1.00003 0.61063 0.30007 0.0
C1102 C 0.12425 0.62001 0.22847 0.0
C1103 C 0.09143 0.60627 0.21385 0.0
C1104 C 0.12403 0.62139 0.25053 0.0
C1105 C 0.09089 0.6083 0.25825 0.0
C1106 C 0.05817 0.59447 0.2436 0.0
C1107 C 0.05844 0.5936 0.22166 0.0
C1108 C 0.09002 0.6095 0.28157 0.0
C1109 C 0.072 0.62581 0.29023 0.0
C1110 C 0.10682 0.59501 0.29525 0.0
C1111 C 0.12412 0.57526 0.28692 0.0
C1112 C 0.10417 0.54496 0.27074 0.0
C1113 C 0.12077 0.52674 0.26278 0.0
C1114 C 0.15723 0.53838 0.27101 0.0
C1115 C 0.17714 0.56821 0.28725 0.0
C1116 C 0.16069 0.58655 0.29525 0.0
C1117 C 1.05431 0.60326 0.37892 0.0
C1118 C 0.0874 0.62417 0.3935 0.0
C1119 C 1.05438 0.59952 0.35688 0.0
C1120 C 0.08751 0.61654 0.34911 0.0
C1121 C 0.12053 0.63688 0.36359 0.0
C1122 C 0.12049 0.64095 0.38553 0.0
C1123 C 0.08794 0.61443 0.32584 0.0
C1124 C 0.10598 0.59814 0.31728 0.0
C1125 C 0.07081 0.62853 0.31218 0.0
C1126 C 1.05241 0.64713 0.32048 0.0
C1127 C 0.07173 0.67789 0.33639 0.0
C1128 C 1.05407 0.69501 0.34428 0.0
C1129 C 1.01718 0.6818 0.33626 0.0
C1130 C 0.99789 0.6515 0.32028 0.0
C1131 C 1.01541 0.63424 0.31236 0.0
H1132 H 1.00356 0.6951 0.3424 0.0
H1133 H 0.17004 0.52425 0.26482 0.0
loop_
_geom_bond_atom_site_label_1
_geom_bond_atom_site_label_2
_geom_bond_distance
_geom_bond_site_symmetry_2
_ccdc_geom_bond_type
Tb0 C10 2.825 . S
Tb0 O11 2.347 . S
Tb0 O14 2.366 . S
Tb0 O19 2.418 . S
Tb0 O20 2.384 . S
Tb0 O23 2.479 . S
Tb0 O24 2.471 . S
Eu1 O12 2.418 . S
Eu1 O13 2.384 . S
Eu1 O16 2.479 1_455 S
Eu1 O17 2.471 1_455 S
Eu1 O18 2.347 . S
Eu1 O21 2.366 1_455 S
Eu1 C31 2.825 1_455 S
C2 O18 1.259 . S
C2 O19 1.265 . S
C3 O20 1.255 1_655 S
C3 O21 1.265 . S
C4 C6 1.380 . S
C4 C7 1.374 . S
C4 C10 1.507 . S
C5 C6 1.384 . S
C5 C9 1.387 . S
C5 H32 0.930 . S
C6 C4 1.380 . S
C6 C5 1.384 . S
C6 H33 0.931 . S
C7 C4 1.374 . S
C7 C8 1.390 . S
C7 H34 0.930 . S
C8 C7 1.390 . S
C8 C9 1.391 . S
C8 H35 0.930 . S
C9 C5 1.387 . S
C9 C8 1.391 . S
C10 Tb0 2.825 . S
C10 C4 1.507 . S
C10 O23 1.238 . S
C10 O24 1.247 . S
O11 Tb0 2.347 . S
O11 C15 1.259 . S
O12 Eu1 2.418 . S
O12 C15 1.265 . S
O13 Eu1 2.384 . S
O13 C22 1.255 . S
O14 Tb0 2.366 . S
O14 C22 1.265 . S
C15 O11 1.259 . S
C15 O12 1.265 . S
O16 Eu1 2.479 1_655 S
O16 C31 1.238 . S
O17 Eu1 2.471 1_655 S
O17 C31 1.247 . S
O18 Eu1 2.347 . S
O18 C2 1.259 . S
O19 Tb0 2.418 . S
O19 C2 1.265 . S
O20 Tb0 2.384 . S
O20 C3 1.255 1_455 S
O21 Eu1 2.366 1_655 S
O21 C3 1.265 . S
C22 O13 1.255 . S
C22 O14 1.265 . S
O23 Tb0 2.479 . S
O23 C10 1.238 . S
O24 Tb0 2.471 . S
O24 C10 1.247 . S
C25 C28 1.380 . S
C25 C29 1.374 . S
C25 C31 1.507 . S
C26 C27 1.387 . S
C26 C30 1.391 . S
C27 C26 1.387 . S
C27 C28 1.384 . S
C27 H36 0.930 . S
C28 C25 1.380 . S
C28 C27 1.384 . S
C28 H37 0.931 . S
C29 C25 1.374 . S
C29 C30 1.390 . S
C29 H38 0.930 . S
C30 C26 1.391 . S
C30 C29 1.390 . S
C30 H39 0.930 . S
C31 Eu1 2.825 1_655 S
C31 O16 1.238 . S
C31 O17 1.247 . S
C31 C25 1.507 . S
H32 C5 0.930 . S
H33 C6 0.931 . S
H34 C7 0.930 . S
H35 C8 0.930 . S
H36 C27 0.930 . S
H37 C28 0.931 . S
H38 C29 0.930 . S
H39 C30 0.930 . S
Tb40 C50 2.825 . S
Tb40 O51 2.347 . S
Tb40 O54 2.366 . S
Tb40 O59 2.418 . S
Tb40 O60 2.384 . S
Tb40 O63 2.479 . S
Tb40 O64 2.471 . S
Eu41 O52 2.418 . S
Eu41 O53 2.384 . S
Eu41 O56 2.479 1_545 S
Eu41 O57 2.471 1_545 S
Eu41 O58 2.347 . S
Eu41 O61 2.366 . S
Eu41 C71 2.825 1_545 S
C42 O58 1.259 . S
C42 O59 1.265 . S
C43 O60 1.255 . S
C43 O61 1.265 . S
C44 C46 1.380 . S
C44 C47 1.374 . S
C44 C50 1.507 . S
C45 C46 1.384 . S
C45 C49 1.387 . S
C45 H72 0.930 . S
C46 C44 1.380 . S
C46 C45 1.384 . S
C46 H73 0.931 . S
C47 C44 1.374 . S
C47 C48 1.390 . S
C47 H74 0.930 . S
C48 C47 1.390 . S
C48 C49 1.391 . S
C48 H75 0.930 . S
C49 C45 1.387 . S
C49 C48 1.391 . S
C50 Tb40 2.825 . S
C50 C44 1.507 . S
C50 O63 1.238 . S
C50 O64 1.247 . S
O51 Tb40 2.347 . S
O51 C55 1.259 . S
O52 Eu41 2.418 . S
O52 C55 1.265 . S
O53 Eu41 2.384 . S
O53 C62 1.255 . S
O54 Tb40 2.366 . S
O54 C62 1.265 . S
C55 O51 1.259 . S
C55 O52 1.265 . S
O56 Eu41 2.479 1_565 S
O56 C71 1.238 . S
O57 Eu41 2.471 1_565 S
O57 C71 1.247 . S
O58 Eu41 2.347 . S
O58 C42 1.259 . S
O59 Tb40 2.418 . S
O59 C42 1.265 . S
O60 Tb40 2.384 . S
O60 C43 1.255 . S
O61 Eu41 2.366 . S
O61 C43 1.265 . S
C62 O53 1.255 . S
C62 O54 1.265 . S
O63 Tb40 2.479 . S
O63 C50 1.238 . S
O64 Tb40 2.471 . S
O64 C50 1.247 . S
C65 C68 1.380 . S
C65 C69 1.374 . S
C65 C71 1.507 . S
C66 C67 1.387 . S
C66 C70 1.391 . S
C67 C66 1.387 . S
C67 C68 1.384 . S
C67 H76 0.930 . S
C68 C65 1.380 . S
C68 C67 1.384 . S
C68 H77 0.931 . S
C69 C65 1.374 . S
C69 C70 1.390 . S
C69 H78 0.930 . S
C70 C66 1.391 . S
C70 C69 1.390 . S
C70 H79 0.930 . S
C71 Eu41 2.825 1_565 S
C71 O56 1.238 . S
C71 O57 1.247 . S
C71 C65 1.507 . S
H72 C45 0.930 . S
H73 C46 0.931 . S
H74 C47 0.930 . S
H75 C48 0.930 . S
H76 C67 0.930 . S
H77 C68 0.931 . S
H78 C69 0.930 . S
H79 C70 0.930 . S
Tb80 C90 2.825 . S
Tb80 O91 2.347 . S
Tb80 O94 2.366 . S
Tb80 O99 2.418 . S
Tb80 O100 2.384 . S
Tb80 O103 2.479 . S
Tb80 O104 2.471 . S
Eu81 O92 2.418 . S
Eu81 O93 2.384 . S
Eu81 O96 2.479 . S
Eu81 O97 2.471 . S
Eu81 O98 2.347 . S
Eu81 O101 2.366 . S
Eu81 C111 2.825 . S
C82 O98 1.259 . S
C82 O99 1.265 . S
C83 O100 1.255 . S
C83 O101 1.265 . S
C84 C86 1.380 . S
C84 C87 1.374 . S
C84 C90 1.507 . S
C85 C86 1.384 . S
C85 C89 1.387 . S
C85 H112 0.930 . S
C86 C84 1.380 . S
C86 C85 1.384 . S
C86 H113 0.931 . S
C87 C84 1.374 . S
C87 C88 1.390 . S
C87 H114 0.930 . S
C88 C87 1.390 . S
C88 C89 1.391 . S
C88 H115 0.930 . S
C89 C85 1.387 . S
C89 C88 1.391 . S
C90 Tb80 2.825 . S
C90 C84 1.507 . S
C90 O103 1.238 . S
C90 O104 1.247 . S
O91 Tb80 2.347 . S
O91 C95 1.259 . S
O92 Eu81 2.418 . S
O92 C95 1.265 . S
O93 Eu81 2.384 . S
O93 C102 1.255 . S
O94 Tb80 2.366 . S
O94 C102 1.265 . S
C95 O91 1.259 . S
C95 O92 1.265 . S
O96 Eu81 2.479 . S
O96 C111 1.238 . S
O97 Eu81 2.471 . S
O97 C111 1.247 . S
O98 Eu81 2.347 . S
O98 C82 1.259 . S
O99 Tb80 2.418 . S
O99 C82 1.265 . S
O100 Tb80 2.384 . S
O100 C83 1.255 . S
O101 Eu81 2.366 . S
O101 C83 1.265 . S
C102 O93 1.255 . S
C102 O94 1.265 . S
O103 Tb80 2.479 . S
O103 C90 1.238 . S
O104 Tb80 2.471 . S
O104 C90 1.247 . S
C105 C108 1.380 . S
C105 C109 1.374 . S
C105 C111 1.507 . S
C106 C107 1.387 . S
C106 C110 1.391 . S
C107 C106 1.387 . S
C107 C108 1.384 . S
C107 H116 0.930 . S
C108 C105 1.380 . S
C108 C107 1.384 . S
C108 H117 0.931 . S
C109 C105 1.374 . S
C109 C110 1.390 . S
C109 H118 0.930 . S
C110 C106 1.391 . S
C110 C109 1.390 . S
C110 H119 0.930 . S
C111 Eu81 2.825 . S
C111 O96 1.238 . S
C111 O97 1.247 . S
C111 C105 1.507 . S
H112 C85 0.930 . S
H113 C86 0.931 . S
H114 C87 0.930 . S
H115 C88 0.930 . S
H116 C107 0.930 . S
H117 C108 0.931 . S
H118 C109 0.930 . S
H119 C110 0.930 . S
H120 C121 0.949 . S
C121 H120 0.949 . S
C121 C122 1.395 . S
C121 C123 1.391 . S
C122 C121 1.395 . S
C122 C125 1.390 . S
C123 C121 1.391 . S
C123 C127 1.387 . S
C123 C128 1.491 . S
H124 C125 0.950 . S
C125 C122 1.390 . S
C125 H124 0.950 . S
C125 C126 1.378 . S
C126 C125 1.378 . S
C126 C127 1.409 . S
C127 C123 1.387 . S
C127 C126 1.409 . S
C127 H129 0.951 . S
C128 C123 1.491 . S
C128 C130 1.382 . S
C128 C132 1.404 . S
H129 C127 0.951 . S
C130 C128 1.382 . S
C130 C131 1.390 . S
C130 H135 0.949 . S
C131 C130 1.390 . S
C131 C136 1.399 . S
C132 C128 1.404 . S
C132 H133 0.950 . S
C132 C134 1.375 . S
H133 C132 0.950 . S
C134 C132 1.375 . S
C134 C136 1.382 . S
C134 H138 0.950 . S
H135 C130 0.949 . S
C136 C131 1.399 . S
C136 C134 1.382 . S
C136 H137 0.952 . S
H137 C136 0.952 . S
H138 C134 0.950 . S
H139 C140 0.949 . S
C140 H139 0.949 . S
C140 C141 1.395 . S
C140 C142 1.391 . S
C141 C140 1.395 . S
C141 C144 1.390 . S
C142 C140 1.391 . S
C142 C146 1.387 . S
C142 C147 1.491 . S
H143 C144 0.950 . S
C144 C141 1.390 . S
C144 H143 0.950 . S
C144 C145 1.378 . S
C145 C144 1.378 . S
C145 C146 1.409 . S
C146 C142 1.387 . S
C146 C145 1.409 . S
C146 H148 0.951 . S
C147 C142 1.491 . S
C147 C149 1.382 . S
C147 C151 1.404 . S
H148 C146 0.951 . S
C149 C147 1.382 . S
C149 C150 1.390 . S
C149 H154 0.949 . S
C150 C149 1.390 . S
C150 C155 1.399 . S
C151 C147 1.404 . S
C151 H152 0.950 . S
C151 C153 1.375 . S
H152 C151 0.950 . S
C153 C151 1.375 . S
C153 C155 1.382 . S
C153 H157 0.950 . S
H154 C149 0.949 . S
C155 C150 1.399 . S
C155 C153 1.382 . S
C155 H156 0.952 . S
H156 C155 0.952 . S
H157 C153 0.950 . S
H158 C159 0.949 . S
C159 H158 0.949 . S
C159 C160 1.395 . S
C159 C161 1.391 . S
C160 C159 1.395 . S
C160 C163 1.376 1_455 S
C161 C159 1.391 . S
C161 C165 1.387 . S
C161 C166 1.491 . S
H162 C163 0.963 . S
C163 C160 1.376 1_655 S
C163 H162 0.963 . S
C163 C164 1.379 . S
C164 C163 1.379 . S
C164 C165 1.409 1_655 S
C165 C161 1.387 . S
C165 C164 1.409 1_455 S
C165 H167 0.951 . S
C166 C161 1.491 . S
C166 C168 1.382 . S
C166 C170 1.404 . S
H167 C165 0.951 . S
C168 C166 1.382 . S
C168 C169 1.390 . S
C168 H173 0.949 . S
C169 C168 1.390 . S
C169 C174 1.399 . S
C170 C166 1.404 . S
C170 H171 0.950 . S
C170 C172 1.375 . S
H171 C170 0.950 . S
C172 C170 1.375 . S
C172 C174 1.382 . S
C172 H176 0.950 . S
H173 C168 0.949 . S
C174 C169 1.399 . S
C174 C172 1.382 . S
C174 H175 0.952 . S
H175 C174 0.952 . S
H176 C172 0.950 . S
H177 C178 0.949 1_655 S
C178 H177 0.949 1_455 S
C178 C179 1.395 . S
C178 C180 1.391 . S
C179 C178 1.395 . S
C179 C182 1.390 . S
C180 C178 1.391 . S
C180 C184 1.387 . S
C180 C185 1.491 1_455 S
H181 C182 0.950 . S
C182 C179 1.390 . S
C182 H181 0.950 . S
C182 C183 1.378 . S
C183 C182 1.378 . S
C183 C184 1.409 . S
C184 C180 1.387 . S
C184 C183 1.409 . S
C184 H186 0.951 . S
C185 C180 1.491 1_655 S
C185 C187 1.382 . S
C185 C189 1.404 . S
H186 C184 0.951 . S
C187 C185 1.382 . S
C187 C188 1.390 . S
C187 H192 0.949 . S
C188 C187 1.390 . S
C188 C193 1.399 . S
C189 C185 1.404 . S
C189 H190 0.950 . S
C189 C191 1.375 . S
H190 C189 0.950 . S
C191 C189 1.375 . S
C191 C193 1.382 . S
C191 H195 0.950 . S
H192 C187 0.949 . S
C193 C188 1.399 . S
C193 C191 1.382 . S
C193 H194 0.952 . S
H194 C193 0.952 . S
H195 C191 0.950 . S
H196 C197 0.949 1_565 S
C197 H196 0.949 1_545 S
C197 C198 1.395 . S
C197 C199 1.391 . S
C198 C197 1.395 . S
C198 C201 1.390 . S
C199 C197 1.391 . S
C199 C203 1.387 . S
C199 C204 1.491 1_545 S
H200 C201 0.950 . S
C201 C198 1.390 . S
C201 H200 0.950 . S
C201 C202 1.378 . S
C202 C201 1.378 . S
C202 C203 1.409 . S
C203 C199 1.387 . S
C203 C202 1.409 . S
C203 H205 0.951 . S
C204 C199 1.491 1_565 S
C204 C206 1.382 . S
C204 C208 1.404 . S
H205 C203 0.951 . S
C206 C204 1.382 . S
C206 C207 1.390 . S
C206 H211 0.949 . S
C207 C206 1.390 . S
C207 C212 1.399 . S
C208 C204 1.404 . S
C208 H209 0.950 . S
C208 C210 1.375 . S
H209 C208 0.950 . S
C210 C208 1.375 . S
C210 C212 1.382 . S
C210 H214 0.950 . S
H211 C206 0.949 . S
C212 C207 1.399 . S
C212 C210 1.382 . S
C212 H213 0.952 . S
H213 C212 0.952 . S
H214 C210 0.950 . S
H215 C216 0.949 . S
C216 H215 0.949 . S
C216 C217 1.395 . S
C216 C218 1.391 . S
C217 C216 1.395 . S
C217 C220 1.390 . S
C218 C216 1.391 . S
C218 C222 1.387 . S
C218 C223 1.491 . S
H219 C220 0.950 . S
C220 C217 1.390 . S
C220 H219 0.950 . S
C220 C221 1.378 . S
C221 C220 1.378 . S
C221 C222 1.409 . S
C222 C218 1.387 . S
C222 C221 1.409 . S
C222 H224 0.951 . S
C223 C218 1.491 . S
C223 C225 1.382 . S
C223 C227 1.404 . S
H224 C222 0.951 . S
C225 C223 1.382 . S
C225 C226 1.390 . S
C225 H230 0.949 . S
C226 C225 1.390 . S
C226 C231 1.399 . S
C227 C223 1.404 . S
C227 H228 0.950 . S
C227 C229 1.375 . S
H228 C227 0.950 . S
C229 C227 1.375 . S
C229 C231 1.382 . S
C229 H233 0.950 . S
H230 C225 0.949 . S
C231 C226 1.399 . S
C231 C229 1.382 . S
C231 H232 0.952 . S
H232 C231 0.952 . S
H233 C229 0.950 . S
H234 C252 0.951 . S
H235 C254 0.951 . S
H236 C256 0.950 . S
H237 C257 0.950 . S
H238 C259 0.950 . S
H239 C262 0.950 . S
H240 C263 0.950 . S
H241 C265 0.950 . S
H242 C266 0.950 . S
H243 C267 0.951 . S
H244 C269 0.951 . S
H245 C271 0.950 . S
H246 C272 0.950 . S
H247 C274 0.950 . S
H248 C277 0.950 . S
H249 C278 0.950 . S
H250 C280 0.950 . S
H251 C281 0.950 . S
C252 H234 0.951 . S
C252 C253 1.366 . S
C252 C254 1.388 . S
C253 C252 1.366 . S
C253 C257 1.385 . S
C254 H235 0.951 . S
C254 C252 1.388 . S
C254 C255 1.366 . S
C255 C254 1.366 . S
C255 C256 1.414 . S
C255 C258 1.499 . S
C256 H236 0.950 . S
C256 C255 1.414 . S
C256 C257 1.374 . S
C257 H237 0.950 . S
C257 C253 1.385 . S
C257 C256 1.374 . S
C258 C255 1.499 . S
C258 C259 1.373 . S
C258 C260 1.389 . S
C259 H238 0.950 . S
C259 C258 1.373 . S
C259 C275 1.377 . S
C260 C258 1.389 . S
C260 C261 1.524 . S
C260 C274 1.377 . S
C261 C260 1.524 . S
C261 C262 1.397 . S
C261 C266 1.363 . S
C262 H239 0.950 . S
C262 C261 1.397 . S
C262 C263 1.334 . S
C263 H240 0.950 . S
C263 C262 1.334 . S
C263 C264 1.287 . S
C264 C263 1.287 . S
C264 C265 1.524 . S
C264 H283 0.913 . S
C265 H241 0.950 . S
C265 C264 1.524 . S
C265 C266 1.415 . S
C266 H242 0.950 . S
C266 C261 1.363 . S
C266 C265 1.415 . S
C267 H243 0.951 . S
C267 C268 1.366 . S
C267 C269 1.388 . S
C268 C267 1.366 . S
C268 C272 1.385 . S
C269 H244 0.951 . S
C269 C267 1.388 . S
C269 C270 1.366 . S
C270 C269 1.366 . S
C270 C271 1.414 . S
C270 C273 1.499 . S
C271 H245 0.950 . S
C271 C270 1.414 . S
C271 C272 1.374 . S
C272 H246 0.950 . S
C272 C268 1.385 . S
C272 C271 1.374 . S
C273 C270 1.499 . S
C273 C274 1.373 . S
C273 C275 1.389 . S
C274 H247 0.950 . S
C274 C260 1.377 . S
C274 C273 1.373 . S
C275 C259 1.377 . S
C275 C273 1.389 . S
C275 C276 1.524 . S
C276 C275 1.524 . S
C276 C277 1.397 . S
C276 C281 1.363 . S
C277 H248 0.950 . S
C277 C276 1.397 . S
C277 C278 1.334 . S
C278 H249 0.950 . S
C278 C277 1.334 . S
C278 C279 1.287 . S
C279 C278 1.287 . S
C279 C280 1.524 . S
C279 H282 0.999 . S
C280 H250 0.950 . S
C280 C279 1.524 . S
C280 C281 1.415 . S
C281 H251 0.950 . S
C281 C276 1.363 . S
C281 C280 1.415 . S
H282 C279 0.999 . S
H283 C264 0.913 . S
H284 C302 0.951 . S
H285 C304 0.951 . S
H286 C306 0.950 . S
H287 C307 0.950 . S
H288 C309 0.950 . S
H289 C312 0.950 . S
H290 C313 0.950 . S
H291 C315 0.950 . S
H292 C316 0.950 . S
H293 C317 0.951 . S
H294 C319 0.951 . S
H295 C321 0.950 . S
H296 C322 0.950 . S
H297 C324 0.950 . S
H298 C327 0.950 . S
H299 C328 0.950 . S
H300 C330 0.950 . S
H301 C331 0.950 . S
C302 H284 0.951 . S
C302 C303 1.366 . S
C302 C304 1.388 . S
C303 C302 1.366 . S
C303 C307 1.385 . S
C304 H285 0.951 . S
C304 C302 1.388 . S
C304 C305 1.366 . S
C305 C304 1.366 . S
C305 C306 1.414 . S
C305 C308 1.499 . S
C306 H286 0.950 . S
C306 C305 1.414 . S
C306 C307 1.374 . S
C307 H287 0.950 . S
C307 C303 1.385 . S
C307 C306 1.374 . S
C308 C305 1.499 . S
C308 C309 1.373 . S
C308 C310 1.389 . S
C309 H288 0.950 . S
C309 C308 1.373 . S
C309 C325 1.377 . S
C310 C308 1.389 . S
C310 C311 1.524 . S
C310 C324 1.377 . S
C311 C310 1.524 . S
C311 C312 1.397 . S
C311 C316 1.363 . S
C312 H289 0.950 . S
C312 C311 1.397 . S
C312 C313 1.334 . S
C313 H290 0.950 . S
C313 C312 1.334 . S
C313 C314 1.287 . S
C314 C313 1.287 . S
C314 C315 1.524 . S
C314 H333 0.913 . S
C315 H291 0.950 . S
C315 C314 1.524 . S
C315 C316 1.415 . S
C316 H292 0.950 . S
C316 C311 1.363 . S
C316 C315 1.415 . S
C317 H293 0.951 . S
C317 C318 1.366 . S
C317 C319 1.388 . S
C318 C317 1.366 . S
C318 C322 1.385 . S
C319 H294 0.951 . S
C319 C317 1.388 . S
C319 C320 1.366 . S
C320 C319 1.366 . S
C320 C321 1.414 . S
C320 C323 1.499 . S
C321 H295 0.950 . S
C321 C320 1.414 . S
C321 C322 1.374 . S
C322 H296 0.950 . S
C322 C318 1.385 . S
C322 C321 1.374 . S
C323 C320 1.499 . S
C323 C324 1.373 . S
C323 C325 1.389 . S
C324 H297 0.950 . S
C324 C310 1.377 . S
C324 C323 1.373 . S
C325 C309 1.377 . S
C325 C323 1.389 . S
C325 C326 1.524 . S
C326 C325 1.524 . S
C326 C327 1.397 . S
C326 C331 1.363 . S
C327 H298 0.950 . S
C327 C326 1.397 . S
C327 C328 1.334 . S
C328 H299 0.950 . S
C328 C327 1.334 . S
C328 C329 1.287 . S
C329 C328 1.287 . S
C329 C330 1.524 . S
C329 H332 0.999 . S
C330 H300 0.950 . S
C330 C329 1.524 . S
C330 C331 1.415 . S
C331 H301 0.950 . S
C331 C326 1.363 . S
C331 C330 1.415 . S
H332 C329 0.999 . S
H333 C314 0.913 . S
H334 C352 0.951 . S
H335 C354 0.951 . S
H336 C356 0.950 . S
H337 C357 0.950 . S
H338 C359 0.950 . S
H339 C362 0.950 . S
H340 C363 0.950 . S
H341 C365 0.950 . S
H342 C366 0.950 . S
H343 C367 0.951 . S
H344 C369 0.951 . S
H345 C371 0.950 . S
H346 C372 0.950 . S
H347 C374 0.950 . S
H348 C377 0.950 . S
H349 C378 0.950 . S
H350 C380 0.950 . S
H351 C381 0.950 . S
C352 H334 0.951 . S
C352 C353 1.366 . S
C352 C354 1.388 . S
C353 C352 1.366 . S
C353 C357 1.385 . S
C354 H335 0.951 . S
C354 C352 1.388 . S
C354 C355 1.366 . S
C355 C354 1.366 . S
C355 C356 1.414 . S
C355 C358 1.499 . S
C356 H336 0.950 . S
C356 C355 1.414 . S
C356 C357 1.374 . S
C357 H337 0.950 . S
C357 C353 1.385 . S
C357 C356 1.374 . S
C358 C355 1.499 . S
C358 C359 1.373 . S
C358 C360 1.389 . S
C359 H338 0.950 . S
C359 C358 1.373 . S
C359 C375 1.377 . S
C360 C358 1.389 . S
C360 C361 1.524 . S
C360 C374 1.377 . S
C361 C360 1.524 . S
C361 C362 1.397 . S
C361 C366 1.363 . S
C362 H339 0.950 . S
C362 C361 1.397 . S
C362 C363 1.334 . S
C363 H340 0.950 . S
C363 C362 1.334 . S
C363 C364 1.287 . S
C364 C363 1.287 . S
C364 C365 1.524 . S
C364 H383 0.913 . S
C365 H341 0.950 . S
C365 C364 1.524 . S
C365 C366 1.415 . S
C366 H342 0.950 . S
C366 C361 1.363 . S
C366 C365 1.415 . S
C367 H343 0.951 . S
C367 C368 1.366 . S
C367 C369 1.388 . S
C368 C367 1.366 . S
C368 C372 1.385 . S
C369 H344 0.951 . S
C369 C367 1.388 . S
C369 C370 1.366 . S
C370 C369 1.366 . S
C370 C371 1.414 . S
C370 C373 1.499 . S
C371 H345 0.950 . S
C371 C370 1.414 . S
C371 C372 1.374 . S
C372 H346 0.950 . S
C372 C368 1.385 . S
C372 C371 1.374 . S
C373 C370 1.499 . S
C373 C374 1.373 . S
C373 C375 1.389 . S
C374 H347 0.950 . S
C374 C360 1.377 . S
C374 C373 1.373 . S
C375 C359 1.377 . S
C375 C373 1.389 . S
C375 C376 1.524 . S
C376 C375 1.524 . S
C376 C377 1.397 . S
C376 C381 1.363 . S
C377 H348 0.950 . S
C377 C376 1.397 . S
C377 C378 1.334 . S
C378 H349 0.950 . S
C378 C377 1.334 . S
C378 C379 1.287 . S
C379 C378 1.287 . S
C379 C380 1.524 . S
C379 H382 0.999 . S
C380 H350 0.950 . S
C380 C379 1.524 . S
C380 C381 1.415 . S
C381 H351 0.950 . S
C381 C376 1.363 . S
C381 C380 1.415 . S
H382 C379 0.999 . S
H383 C364 0.913 . S
H384 C402 0.951 . S
H385 C404 0.951 . S
H386 C406 0.950 . S
H387 C407 0.950 . S
H388 C409 0.950 . S
H389 C412 0.950 . S
H390 C413 0.950 . S
H391 C415 0.950 . S
H392 C416 0.950 . S
H393 C417 0.951 . S
H394 C419 0.951 . S
H395 C421 0.950 . S
H396 C422 0.950 . S
H397 C424 0.950 . S
H398 C427 0.950 . S
H399 C428 0.950 . S
H400 C430 0.950 . S
H401 C431 0.950 . S
C402 H384 0.951 . S
C402 C403 1.366 . S
C402 C404 1.388 . S
C403 C402 1.366 . S
C403 C407 1.385 . S
C404 H385 0.951 . S
C404 C402 1.388 . S
C404 C405 1.366 . S
C405 C404 1.366 . S
C405 C406 1.414 . S
C405 C408 1.499 . S
C406 H386 0.950 . S
C406 C405 1.414 . S
C406 C407 1.374 . S
C407 H387 0.950 . S
C407 C403 1.385 . S
C407 C406 1.374 . S
C408 C405 1.499 . S
C408 C409 1.373 . S
C408 C410 1.389 . S
C409 H388 0.950 . S
C409 C408 1.373 . S
C409 C425 1.377 . S
C410 C408 1.389 . S
C410 C411 1.524 . S
C410 C424 1.377 . S
C411 C410 1.524 . S
C411 C412 1.397 . S
C411 C416 1.363 . S
C412 H389 0.950 . S
C412 C411 1.397 . S
C412 C413 1.334 . S
C413 H390 0.950 . S
C413 C412 1.334 . S
C413 C414 1.287 . S
C414 C413 1.287 . S
C414 C415 1.524 . S
C414 H433 0.913 . S
C415 H391 0.950 . S
C415 C414 1.524 . S
C415 C416 1.415 . S
C416 H392 0.950 . S
C416 C411 1.363 . S
C416 C415 1.415 . S
C417 H393 0.951 . S
C417 C418 1.366 . S
C417 C419 1.388 . S
C418 C417 1.366 . S
C418 C422 1.385 . S
C419 H394 0.951 . S
C419 C417 1.388 . S
C419 C420 1.366 . S
C420 C419 1.366 . S
C420 C421 1.414 . S
C420 C423 1.499 . S
C421 H395 0.950 . S
C421 C420 1.414 . S
C421 C422 1.374 . S
C422 H396 0.950 . S
C422 C418 1.385 . S
C422 C421 1.374 . S
C423 C420 1.499 . S
C423 C424 1.373 . S
C423 C425 1.389 . S
C424 H397 0.950 . S
C424 C410 1.377 . S
C424 C423 1.373 . S
C425 C409 1.377 . S
C425 C423 1.389 . S
C425 C426 1.524 . S
C426 C425 1.524 . S
C426 C427 1.397 . S
C426 C431 1.363 . S
C427 H398 0.950 . S
C427 C426 1.397 . S
C427 C428 1.334 . S
C428 H399 0.950 . S
C428 C427 1.334 . S
C428 C429 1.287 . S
C429 C428 1.287 . S
C429 C430 1.524 . S
C429 H432 0.999 . S
C430 H400 0.950 . S
C430 C429 1.524 . S
C430 C431 1.415 . S
C431 H401 0.950 . S
C431 C426 1.363 . S
C431 C430 1.415 . S
H432 C429 0.999 . S
H433 C414 0.913 . S
H434 C452 0.951 . S
H435 C454 0.951 . S
H436 C456 0.950 . S
H437 C457 0.950 . S
H438 C459 0.950 . S
H439 C462 0.950 . S
H440 C463 0.950 . S
H441 C465 0.950 . S
H442 C466 0.950 . S
H443 C467 0.951 . S
H444 C469 0.951 . S
H445 C471 0.950 . S
H446 C472 0.950 . S
H447 C474 0.950 . S
H448 C477 0.950 . S
H449 C478 0.950 . S
H450 C480 0.950 . S
H451 C481 0.950 . S
C452 H434 0.951 . S
C452 C453 1.366 . S
C452 C454 1.388 . S
C453 C452 1.366 . S
C453 C457 1.385 . S
C454 H435 0.951 . S
C454 C452 1.388 . S
C454 C455 1.366 . S
C455 C454 1.366 . S
C455 C456 1.414 . S
C455 C458 1.499 . S
C456 H436 0.950 . S
C456 C455 1.414 . S
C456 C457 1.374 . S
C457 H437 0.950 . S
C457 C453 1.385 . S
C457 C456 1.374 . S
C458 C455 1.499 . S
C458 C459 1.373 . S
C458 C460 1.389 . S
C459 H438 0.950 . S
C459 C458 1.373 . S
C459 C475 1.377 . S
C460 C458 1.389 . S
C460 C461 1.524 . S
C460 C474 1.377 . S
C461 C460 1.524 . S
C461 C462 1.397 . S
C461 C466 1.363 . S
C462 H439 0.950 . S
C462 C461 1.397 . S
C462 C463 1.334 . S
C463 H440 0.950 . S
C463 C462 1.334 . S
C463 C464 1.287 . S
C464 C463 1.287 . S
C464 C465 1.524 . S
C464 H483 0.913 . S
C465 H441 0.950 . S
C465 C464 1.524 . S
C465 C466 1.415 . S
C466 H442 0.950 . S
C466 C461 1.363 . S
C466 C465 1.415 . S
C467 H443 0.951 . S
C467 C468 1.366 . S
C467 C469 1.388 . S
C468 C467 1.366 . S
C468 C472 1.385 . S
C469 H444 0.951 . S
C469 C467 1.388 . S
C469 C470 1.366 . S
C470 C469 1.366 . S
C470 C471 1.414 . S
C470 C473 1.499 . S
C471 H445 0.950 . S
C471 C470 1.414 . S
C471 C472 1.374 . S
C472 H446 0.950 . S
C472 C468 1.385 . S
C472 C471 1.374 . S
C473 C470 1.499 . S
C473 C474 1.373 . S
C473 C475 1.389 . S
C474 H447 0.950 . S
C474 C460 1.377 . S
C474 C473 1.373 . S
C475 C459 1.377 . S
C475 C473 1.389 . S
C475 C476 1.524 . S
C476 C475 1.524 . S
C476 C477 1.397 . S
C476 C481 1.363 . S
C477 H448 0.950 . S
C477 C476 1.397 . S
C477 C478 1.334 . S
C478 H449 0.950 . S
C478 C477 1.334 . S
C478 C479 1.287 . S
C479 C478 1.287 . S
C479 C480 1.524 . S
C479 H482 0.999 . S
C480 H450 0.950 . S
C480 C479 1.524 . S
C480 C481 1.415 . S
C481 H451 0.950 . S
C481 C476 1.363 . S
C481 C480 1.415 . S
H482 C479 0.999 . S
H483 C464 0.913 . S
H484 C502 0.951 . S
H485 C504 0.951 . S
H486 C506 0.950 . S
H487 C507 0.950 . S
H488 C509 0.950 . S
H489 C512 0.950 . S
H490 C513 0.950 . S
H491 C515 0.950 . S
H492 C516 0.950 . S
H493 C517 0.951 . S
H494 C519 0.951 . S
H495 C521 0.950 . S
H496 C522 0.950 . S
H497 C524 0.950 . S
H498 C527 0.950 . S
H499 C528 0.950 . S
H500 C530 0.950 . S
H501 C531 0.950 . S
C502 H484 0.951 . S
C502 C503 1.366 . S
C502 C504 1.388 . S
C503 C502 1.366 . S
C503 C507 1.385 . S
C504 H485 0.951 . S
C504 C502 1.388 . S
C504 C505 1.366 . S
C505 C504 1.366 . S
C505 C506 1.414 . S
C505 C508 1.499 . S
C506 H486 0.950 . S
C506 C505 1.414 . S
C506 C507 1.374 . S
C507 H487 0.950 . S
C507 C503 1.385 . S
C507 C506 1.374 . S
C508 C505 1.499 . S
C508 C509 1.373 . S
C508 C510 1.389 . S
C509 H488 0.950 . S
C509 C508 1.373 . S
C509 C525 1.377 . S
C510 C508 1.389 . S
C510 C511 1.524 . S
C510 C524 1.377 . S
C511 C510 1.524 . S
C511 C512 1.397 . S
C511 C516 1.363 . S
C512 H489 0.950 . S
C512 C511 1.397 . S
C512 C513 1.334 . S
C513 H490 0.950 . S
C513 C512 1.334 . S
C513 C514 1.287 . S
C514 C513 1.287 . S
C514 C515 1.524 . S
C514 H533 0.913 . S
C515 H491 0.950 . S
C515 C514 1.524 . S
C515 C516 1.415 . S
C516 H492 0.950 . S
C516 C511 1.363 . S
C516 C515 1.415 . S
C517 H493 0.951 . S
C517 C518 1.366 . S
C517 C519 1.388 . S
C518 C517 1.366 . S
C518 C522 1.385 . S
C519 H494 0.951 . S
C519 C517 1.388 . S
C519 C520 1.366 . S
C520 C519 1.366 . S
C520 C521 1.414 . S
C520 C523 1.499 . S
C521 H495 0.950 . S
C521 C520 1.414 . S
C521 C522 1.374 . S
C522 H496 0.950 . S
C522 C518 1.385 . S
C522 C521 1.374 . S
C523 C520 1.499 . S
C523 C524 1.373 . S
C523 C525 1.389 . S
C524 H497 0.950 . S
C524 C510 1.377 . S
C524 C523 1.373 . S
C525 C509 1.377 . S
C525 C523 1.389 . S
C525 C526 1.524 . S
C526 C525 1.524 . S
C526 C527 1.397 . S
C526 C531 1.363 . S
C527 H498 0.950 . S
C527 C526 1.397 . S
C527 C528 1.334 . S
C528 H499 0.950 . S
C528 C527 1.334 . S
C528 C529 1.287 . S
C529 C528 1.287 . S
C529 C530 1.524 . S
C529 H532 0.999 . S
C530 H500 0.950 . S
C530 C529 1.524 . S
C530 C531 1.415 . S
C531 H501 0.950 . S
C531 C526 1.363 . S
C531 C530 1.415 . S
H532 C529 0.999 . S
H533 C514 0.913 . S
H534 C552 0.951 . S
H535 C554 0.951 . S
H536 C556 0.950 . S
H537 C557 0.950 . S
H538 C559 0.950 . S
H539 C562 0.950 . S
H540 C563 0.950 . S
H541 C565 0.950 . S
H542 C566 0.950 . S
H543 C567 0.951 . S
H544 C569 0.951 . S
H545 C571 0.950 . S
H546 C572 0.950 . S
H547 C574 0.950 . S
H548 C577 0.950 . S
H549 C578 0.950 . S
H550 C580 0.950 . S
H551 C581 0.950 . S
C552 H534 0.951 . S
C552 C553 1.366 . S
C552 C554 1.388 . S
C553 C552 1.366 . S
C553 C557 1.385 . S
C554 H535 0.951 . S
C554 C552 1.388 . S
C554 C555 1.366 . S
C555 C554 1.366 . S
C555 C556 1.414 . S
C555 C558 1.499 . S
C556 H536 0.950 . S
C556 C555 1.414 . S
C556 C557 1.374 . S
C557 H537 0.950 . S
C557 C553 1.385 . S
C557 C556 1.374 . S
C558 C555 1.499 . S
C558 C559 1.373 . S
C558 C560 1.389 . S
C559 H538 0.950 . S
C559 C558 1.373 . S
C559 C575 1.377 . S
C560 C558 1.389 . S
C560 C561 1.524 . S
C560 C574 1.377 . S
C561 C560 1.524 . S
C561 C562 1.397 . S
C561 C566 1.363 . S
C562 H539 0.950 . S
C562 C561 1.397 . S
C562 C563 1.334 . S
C563 H540 0.950 . S
C563 C562 1.334 . S
C563 C564 1.287 . S
C564 C563 1.287 . S
C564 C565 1.524 . S
C564 H583 0.913 . S
C565 H541 0.950 . S
C565 C564 1.524 . S
C565 C566 1.415 . S
C566 H542 0.950 . S
C566 C561 1.363 . S
C566 C565 1.415 . S
C567 H543 0.951 . S
C567 C568 1.366 . S
C567 C569 1.388 . S
C568 C567 1.366 . S
C568 C572 1.385 . S
C569 H544 0.951 . S
C569 C567 1.388 . S
C569 C570 1.366 . S
C570 C569 1.366 . S
C570 C571 1.414 . S
C570 C573 1.499 . S
C571 H545 0.950 . S
C571 C570 1.414 . S
C571 C572 1.374 . S
C572 H546 0.950 . S
C572 C568 1.385 . S
C572 C571 1.374 . S
C573 C570 1.499 . S
C573 C574 1.373 . S
C573 C575 1.389 . S
C574 H547 0.950 . S
C574 C560 1.377 . S
C574 C573 1.373 . S
C575 C559 1.377 . S
C575 C573 1.389 . S
C575 C576 1.524 . S
C576 C575 1.524 . S
C576 C577 1.397 . S
C576 C581 1.363 . S
C577 H548 0.950 . S
C577 C576 1.397 . S
C577 C578 1.334 . S
C578 H549 0.950 . S
C578 C577 1.334 . S
C578 C579 1.287 . S
C579 C578 1.287 . S
C579 C580 1.524 . S
C579 H582 0.999 . S
C580 H550 0.950 . S
C580 C579 1.524 . S
C580 C581 1.415 . S
C581 H551 0.950 . S
C581 C576 1.363 . S
C581 C580 1.415 . S
H582 C579 0.999 . S
H583 C564 0.913 . S
H584 C602 0.951 . S
H585 C604 0.951 . S
H586 C606 0.950 . S
H587 C607 0.950 . S
H588 C609 0.950 . S
H589 C612 0.950 . S
H590 C613 0.950 . S
H591 C615 0.950 . S
H592 C616 0.950 . S
H593 C617 0.951 . S
H594 C619 0.951 . S
H595 C621 0.950 . S
H596 C622 0.950 . S
H597 C624 0.950 . S
H598 C627 0.950 . S
H599 C628 0.950 . S
H600 C630 0.950 . S
H601 C631 0.950 . S
C602 H584 0.951 . S
C602 C603 1.366 . S
C602 C604 1.388 . S
C603 C602 1.366 . S
C603 C607 1.385 . S
C604 H585 0.951 . S
C604 C602 1.388 . S
C604 C605 1.366 . S
C605 C604 1.366 . S
C605 C606 1.414 . S
C605 C608 1.499 . S
C606 H586 0.950 . S
C606 C605 1.414 . S
C606 C607 1.374 . S
C607 H587 0.950 . S
C607 C603 1.385 . S
C607 C606 1.374 . S
C608 C605 1.499 . S
C608 C609 1.373 . S
C608 C610 1.389 . S
C609 H588 0.950 . S
C609 C608 1.373 . S
C609 C625 1.377 . S
C610 C608 1.389 . S
C610 C611 1.524 . S
C610 C624 1.377 . S
C611 C610 1.524 . S
C611 C612 1.397 . S
C611 C616 1.363 . S
C612 H589 0.950 . S
C612 C611 1.397 . S
C612 C613 1.334 . S
C613 H590 0.950 . S
C613 C612 1.334 . S
C613 C614 1.287 . S
C614 C613 1.287 . S
C614 C615 1.524 . S
C614 H633 0.913 . S
C615 H591 0.950 . S
C615 C614 1.524 . S
C615 C616 1.415 . S
C616 H592 0.950 . S
C616 C611 1.363 . S
C616 C615 1.415 . S
C617 H593 0.951 . S
C617 C618 1.366 . S
C617 C619 1.388 . S
C618 C617 1.366 . S
C618 C622 1.385 . S
C619 H594 0.951 . S
C619 C617 1.388 . S
C619 C620 1.366 . S
C620 C619 1.366 . S
C620 C621 1.414 . S
C620 C623 1.499 . S
C621 H595 0.950 . S
C621 C620 1.414 . S
C621 C622 1.374 . S
C622 H596 0.950 . S
C622 C618 1.385 . S
C622 C621 1.374 . S
C623 C620 1.499 . S
C623 C624 1.373 . S
C623 C625 1.389 . S
C624 H597 0.950 . S
C624 C610 1.377 . S
C624 C623 1.373 . S
C625 C609 1.377 . S
C625 C623 1.389 . S
C625 C626 1.524 . S
C626 C625 1.524 . S
C626 C627 1.397 . S
C626 C631 1.363 . S
C627 H598 0.950 . S
C627 C626 1.397 . S
C627 C628 1.334 . S
C628 H599 0.950 . S
C628 C627 1.334 . S
C628 C629 1.287 . S
C629 C628 1.287 . S
C629 C630 1.524 . S
C629 H632 0.999 . S
C630 H600 0.950 . S
C630 C629 1.524 . S
C630 C631 1.415 . S
C631 H601 0.950 . S
C631 C626 1.363 . S
C631 C630 1.415 . S
H632 C629 0.999 . S
H633 C614 0.913 . S
H634 C652 0.951 . S
H635 C654 0.951 . S
H636 C656 0.950 . S
H637 C657 0.950 . S
H638 C659 0.950 . S
H639 C662 0.950 . S
H640 C663 0.950 . S
H641 C665 0.950 . S
H642 C666 0.950 . S
H643 C667 0.951 . S
H644 C669 0.951 . S
H645 C671 0.950 . S
H646 C672 0.950 . S
H647 C674 0.950 . S
H648 C677 0.950 . S
H649 C678 0.950 . S
H650 C680 0.950 . S
H651 C681 0.950 . S
C652 H634 0.951 . S
C652 C653 1.366 . S
C652 C654 1.388 . S
C653 C652 1.366 . S
C653 C657 1.385 . S
C654 H635 0.951 . S
C654 C652 1.388 . S
C654 C655 1.366 . S
C655 C654 1.366 . S
C655 C656 1.414 . S
C655 C658 1.499 . S
C656 H636 0.950 . S
C656 C655 1.414 . S
C656 C657 1.374 . S
C657 H637 0.950 . S
C657 C653 1.385 . S
C657 C656 1.374 . S
C658 C655 1.499 . S
C658 C659 1.373 . S
C658 C660 1.389 . S
C659 H638 0.950 . S
C659 C658 1.373 . S
C659 C675 1.377 . S
C660 C658 1.389 . S
C660 C661 1.524 . S
C660 C674 1.377 . S
C661 C660 1.524 . S
C661 C662 1.397 . S
C661 C666 1.363 . S
C662 H639 0.950 . S
C662 C661 1.397 . S
C662 C663 1.334 . S
C663 H640 0.950 . S
C663 C662 1.334 . S
C663 C664 1.287 . S
C664 C663 1.287 . S
C664 C665 1.524 . S
C664 H683 0.913 . S
C665 H641 0.950 . S
C665 C664 1.524 . S
C665 C666 1.415 . S
C666 H642 0.950 . S
C666 C661 1.363 . S
C666 C665 1.415 . S
C667 H643 0.951 . S
C667 C668 1.366 . S
C667 C669 1.388 . S
C668 C667 1.366 . S
C668 C672 1.385 . S
C669 H644 0.951 . S
C669 C667 1.388 . S
C669 C670 1.366 . S
C670 C669 1.366 . S
C670 C671 1.414 . S
C670 C673 1.499 . S
C671 H645 0.950 . S
C671 C670 1.414 . S
C671 C672 1.374 . S
C672 H646 0.950 . S
C672 C668 1.385 . S
C672 C671 1.374 . S
C673 C670 1.499 . S
C673 C674 1.373 . S
C673 C675 1.389 . S
C674 H647 0.950 . S
C674 C660 1.377 . S
C674 C673 1.373 . S
C675 C659 1.377 . S
C675 C673 1.389 . S
C675 C676 1.524 . S
C676 C675 1.524 . S
C676 C677 1.397 . S
C676 C681 1.363 . S
C677 H648 0.950 . S
C677 C676 1.397 . S
C677 C678 1.334 . S
C678 H649 0.950 . S
C678 C677 1.334 . S
C678 C679 1.287 . S
C679 C678 1.287 . S
C679 C680 1.524 . S
C679 H682 0.999 . S
C680 H650 0.950 . S
C680 C679 1.524 . S
C680 C681 1.415 . S
C681 H651 0.950 . S
C681 C676 1.363 . S
C681 C680 1.415 . S
H682 C679 0.999 . S
H683 C664 0.913 . S
H684 C702 0.951 . S
H685 C704 0.951 . S
H686 C706 0.950 . S
H687 C707 0.950 . S
H688 C709 0.950 . S
H689 C712 0.950 . S
H690 C713 0.950 . S
H691 C715 0.950 . S
H692 C716 0.950 . S
H693 C717 0.951 . S
H694 C719 0.951 . S
H695 C721 0.950 . S
H696 C722 0.950 . S
H697 C724 0.950 . S
H698 C727 0.950 . S
H699 C728 0.950 . S
H700 C730 0.950 . S
H701 C731 0.950 . S
C702 H684 0.951 . S
C702 C703 1.366 . S
C702 C704 1.388 . S
C703 C702 1.366 . S
C703 C707 1.385 . S
C704 H685 0.951 . S
C704 C702 1.388 . S
C704 C705 1.366 . S
C705 C704 1.366 . S
C705 C706 1.414 . S
C705 C708 1.499 . S
C706 H686 0.950 . S
C706 C705 1.414 . S
C706 C707 1.374 . S
C707 H687 0.950 . S
C707 C703 1.385 . S
C707 C706 1.374 . S
C708 C705 1.499 . S
C708 C709 1.373 . S
C708 C710 1.389 . S
C709 H688 0.950 . S
C709 C708 1.373 . S
C709 C725 1.377 . S
C710 C708 1.389 . S
C710 C711 1.524 . S
C710 C724 1.377 . S
C711 C710 1.524 . S
C711 C712 1.397 . S
C711 C716 1.363 . S
C712 H689 0.950 . S
C712 C711 1.397 . S
C712 C713 1.334 . S
C713 H690 0.950 . S
C713 C712 1.334 . S
C713 C714 1.287 . S
C714 C713 1.287 . S
C714 C715 1.524 . S
C714 H733 0.913 . S
C715 H691 0.950 . S
C715 C714 1.524 . S
C715 C716 1.415 . S
C716 H692 0.950 . S
C716 C711 1.363 . S
C716 C715 1.415 . S
C717 H693 0.951 . S
C717 C718 1.366 . S
C717 C719 1.388 . S
C718 C717 1.366 . S
C718 C722 1.385 . S
C719 H694 0.951 . S
C719 C717 1.388 . S
C719 C720 1.366 . S
C720 C719 1.366 . S
C720 C721 1.414 . S
C720 C723 1.499 . S
C721 H695 0.950 . S
C721 C720 1.414 . S
C721 C722 1.374 . S
C722 H696 0.950 . S
C722 C718 1.385 . S
C722 C721 1.374 . S
C723 C720 1.499 . S
C723 C724 1.373 . S
C723 C725 1.389 . S
C724 H697 0.950 . S
C724 C710 1.377 . S
C724 C723 1.373 . S
C725 C709 1.377 . S
C725 C723 1.389 . S
C725 C726 1.524 . S
C726 C725 1.524 . S
C726 C727 1.397 . S
C726 C731 1.363 . S
C727 H698 0.950 . S
C727 C726 1.397 . S
C727 C728 1.334 . S
C728 H699 0.950 . S
C728 C727 1.334 . S
C728 C729 1.287 . S
C729 C728 1.287 . S
C729 C730 1.524 . S
C729 H732 0.999 . S
C730 H700 0.950 . S
C730 C729 1.524 . S
C730 C731 1.415 . S
C731 H701 0.950 . S
C731 C726 1.363 . S
C731 C730 1.415 . S
H732 C729 0.999 . S
H733 C714 0.913 . S
H734 C752 0.951 . S
H735 C754 0.951 . S
H736 C756 0.950 . S
H737 C757 0.950 . S
H738 C759 0.950 . S
H739 C762 0.950 . S
H740 C763 0.950 . S
H741 C765 0.950 . S
H742 C766 0.950 . S
H743 C767 0.951 . S
H744 C769 0.951 . S
H745 C771 0.950 . S
H746 C772 0.950 . S
H747 C774 0.950 . S
H748 C777 0.950 . S
H749 C778 0.950 . S
H750 C780 0.950 . S
H751 C781 0.950 . S
C752 H734 0.951 . S
C752 C753 1.366 . S
C752 C754 1.388 . S
C753 C752 1.366 . S
C753 C757 1.385 . S
C754 H735 0.951 . S
C754 C752 1.388 . S
C754 C755 1.366 . S
C755 C754 1.366 . S
C755 C756 1.414 . S
C755 C758 1.499 . S
C756 H736 0.950 . S
C756 C755 1.414 . S
C756 C757 1.374 . S
C757 H737 0.950 . S
C757 C753 1.385 . S
C757 C756 1.374 . S
C758 C755 1.499 . S
C758 C759 1.373 . S
C758 C760 1.389 . S
C759 H738 0.950 . S
C759 C758 1.373 . S
C759 C775 1.377 . S
C760 C758 1.389 . S
C760 C761 1.524 . S
C760 C774 1.377 . S
C761 C760 1.524 . S
C761 C762 1.397 . S
C761 C766 1.363 . S
C762 H739 0.950 . S
C762 C761 1.397 . S
C762 C763 1.334 . S
C763 H740 0.950 . S
C763 C762 1.334 . S
C763 C764 1.287 . S
C764 C763 1.287 . S
C764 C765 1.524 . S
C764 H783 0.913 . S
C765 H741 0.950 . S
C765 C764 1.524 . S
C765 C766 1.415 . S
C766 H742 0.950 . S
C766 C761 1.363 . S
C766 C765 1.415 . S
C767 H743 0.951 . S
C767 C768 1.366 . S
C767 C769 1.388 . S
C768 C767 1.366 . S
C768 C772 1.385 . S
C769 H744 0.951 . S
C769 C767 1.388 . S
C769 C770 1.366 . S
C770 C769 1.366 . S
C770 C771 1.414 . S
C770 C773 1.499 . S
C771 H745 0.950 . S
C771 C770 1.414 . S
C771 C772 1.374 . S
C772 H746 0.950 . S
C772 C768 1.385 . S
C772 C771 1.374 . S
C773 C770 1.499 . S
C773 C774 1.373 . S
C773 C775 1.389 . S
C774 H747 0.950 . S
C774 C760 1.377 . S
C774 C773 1.373 . S
C775 C759 1.377 . S
C775 C773 1.389 . S
C775 C776 1.524 . S
C776 C775 1.524 . S
C776 C777 1.397 . S
C776 C781 1.363 . S
C777 H748 0.950 . S
C777 C776 1.397 . S
C777 C778 1.334 . S
C778 H749 0.950 . S
C778 C777 1.334 . S
C778 C779 1.287 . S
C779 C778 1.287 . S
C779 C780 1.524 . S
C779 H782 0.999 . S
C780 H750 0.950 . S
C780 C779 1.524 . S
C780 C781 1.415 . S
C781 H751 0.950 . S
C781 C776 1.363 . S
C781 C780 1.415 . S
H782 C779 0.999 . S
H783 C764 0.913 . S
H784 C802 0.951 . S
H785 C804 0.951 . S
H786 C806 0.950 . S
H787 C807 0.950 . S
H788 C809 0.950 . S
H789 C812 0.950 . S
H790 C813 0.950 . S
H791 C815 0.950 . S
H792 C816 0.950 . S
H793 C817 0.951 . S
H794 C819 0.951 . S
H795 C821 0.950 . S
H796 C822 0.950 . S
H797 C824 0.950 . S
H798 C827 0.950 . S
H799 C828 0.950 . S
H800 C830 0.950 . S
H801 C831 0.950 . S
C802 H784 0.951 . S
C802 C803 1.366 . S
C802 C804 1.388 . S
C803 C802 1.366 . S
C803 C807 1.385 . S
C804 H785 0.951 . S
C804 C802 1.388 . S
C804 C805 1.366 . S
C805 C804 1.366 . S
C805 C806 1.414 . S
C805 C808 1.499 . S
C806 H786 0.950 . S
C806 C805 1.414 . S
C806 C807 1.374 . S
C807 H787 0.950 . S
C807 C803 1.385 . S
C807 C806 1.374 . S
C808 C805 1.499 . S
C808 C809 1.373 . S
C808 C810 1.389 . S
C809 H788 0.950 . S
C809 C808 1.373 . S
C809 C825 1.377 . S
C810 C808 1.389 . S
C810 C811 1.524 . S
C810 C824 1.377 . S
C811 C810 1.524 . S
C811 C812 1.397 . S
C811 C816 1.363 . S
C812 H789 0.950 . S
C812 C811 1.397 . S
C812 C813 1.334 . S
C813 H790 0.950 . S
C813 C812 1.334 . S
C813 C814 1.287 . S
C814 C813 1.287 . S
C814 C815 1.524 . S
C814 H833 0.913 . S
C815 H791 0.950 . S
C815 C814 1.524 . S
C815 C816 1.415 . S
C816 H792 0.950 . S
C816 C811 1.363 . S
C816 C815 1.415 . S
C817 H793 0.951 . S
C817 C818 1.366 . S
C817 C819 1.388 . S
C818 C817 1.366 . S
C818 C822 1.385 . S
C819 H794 0.951 . S
C819 C817 1.388 . S
C819 C820 1.366 . S
C820 C819 1.366 . S
C820 C821 1.414 . S
C820 C823 1.499 . S
C821 H795 0.950 . S
C821 C820 1.414 . S
C821 C822 1.374 . S
C822 H796 0.950 . S
C822 C818 1.385 . S
C822 C821 1.374 . S
C823 C820 1.499 . S
C823 C824 1.373 . S
C823 C825 1.389 . S
C824 H797 0.950 . S
C824 C810 1.377 . S
C824 C823 1.373 . S
C825 C809 1.377 . S
C825 C823 1.389 . S
C825 C826 1.524 . S
C826 C825 1.524 . S
C826 C827 1.397 . S
C826 C831 1.363 . S
C827 H798 0.950 . S
C827 C826 1.397 . S
C827 C828 1.334 . S
C828 H799 0.950 . S
C828 C827 1.334 . S
C828 C829 1.287 . S
C829 C828 1.287 . S
C829 C830 1.524 . S
C829 H832 0.999 . S
C830 H800 0.950 . S
C830 C829 1.524 . S
C830 C831 1.415 . S
C831 H801 0.950 . S
C831 C826 1.363 . S
C831 C830 1.415 . S
H832 C829 0.999 . S
H833 C814 0.913 . S
H834 C852 0.951 . S
H835 C854 0.951 . S
H836 C856 0.950 . S
H837 C857 0.950 . S
H838 C859 0.950 . S
H839 C862 0.950 . S
H840 C863 0.950 . S
H841 C865 0.950 . S
H842 C866 0.950 . S
H843 C867 0.951 . S
H844 C869 0.951 . S
H845 C871 0.950 . S
H846 C872 0.950 . S
H847 C874 0.950 1_556 S
H848 C877 0.950 . S
H849 C878 0.950 . S
H850 C880 0.950 . S
H851 C881 0.950 1_554 S
C852 H834 0.951 . S
C852 C853 1.366 . S
C852 C854 1.388 . S
C853 C852 1.366 . S
C853 C857 1.385 . S
C854 H835 0.951 . S
C854 C852 1.388 . S
C854 C855 1.366 . S
C855 C854 1.366 . S
C855 C856 1.414 . S
C855 C858 1.499 . S
C856 H836 0.950 . S
C856 C855 1.414 . S
C856 C857 1.374 . S
C857 H837 0.950 . S
C857 C853 1.385 . S
C857 C856 1.374 . S
C858 C855 1.499 . S
C858 C859 1.373 . S
C858 C860 1.389 . S
C859 H838 0.950 . S
C859 C858 1.373 . S
C859 C875 1.333 1_554 S
C860 C858 1.389 . S
C860 C861 1.524 . S
C860 C874 1.377 . S
C861 C860 1.524 . S
C861 C862 1.397 . S
C861 C866 1.363 . S
C862 H839 0.950 . S
C862 C861 1.397 . S
C862 C863 1.334 . S
C863 H840 0.950 . S
C863 C862 1.334 . S
C863 C864 1.287 . S
C864 C863 1.287 . S
C864 C865 1.524 . S
C864 H883 0.913 . S
C865 H841 0.950 . S
C865 C864 1.524 . S
C865 C866 1.415 . S
C866 H842 0.950 . S
C866 C861 1.363 . S
C866 C865 1.415 . S
C867 H843 0.951 . S
C867 C868 1.366 . S
C867 C869 1.388 . S
C868 C867 1.366 . S
C868 C872 1.385 . S
C869 H844 0.951 . S
C869 C867 1.388 . S
C869 C870 1.366 . S
C870 C869 1.366 . S
C870 C871 1.414 . S
C870 C873 1.499 . S
C871 H845 0.950 . S
C871 C870 1.414 . S
C871 C872 1.374 . S
C872 H846 0.950 . S
C872 C868 1.385 . S
C872 C871 1.374 . S
C873 C870 1.499 . S
C873 C874 1.373 1_556 S
C873 C875 1.406 . S
C874 H847 0.950 1_554 S
C874 C860 1.377 . S
C874 C873 1.373 1_554 S
C875 C859 1.333 1_556 S
C875 C873 1.406 . S
C875 C876 1.550 . S
C876 C875 1.550 . S
C876 C877 1.397 1_455 S
C876 C881 1.363 . S
C877 H848 0.950 . S
C877 C876 1.397 1_655 S
C877 C878 1.334 . S
C878 H849 0.950 . S
C878 C877 1.334 . S
C878 C879 1.287 . S
C879 C878 1.287 . S
C879 C880 1.524 1_655 S
C879 H882 0.999 . S
C880 H850 0.950 . S
C880 C879 1.524 1_455 S
C880 C881 1.415 . S
C881 H851 0.950 1_556 S
C881 C876 1.363 . S
C881 C880 1.415 . S
H882 C879 0.999 . S
H883 C864 0.913 . S
H884 C902 0.951 . S
H885 C904 0.951 . S
H886 C906 0.950 . S
H887 C907 0.950 . S
H888 C909 0.950 . S
H889 C912 0.950 . S
H890 C913 0.950 . S
H891 C915 0.950 . S
H892 C916 0.950 . S
H893 C917 0.951 . S
H894 C919 0.951 . S
H895 C921 0.950 . S
H896 C922 0.950 . S
H897 C924 0.950 . S
H898 C927 0.950 . S
H899 C928 0.950 . S
H900 C930 0.950 . S
H901 C931 0.950 . S
C902 H884 0.951 . S
C902 C903 1.366 . S
C902 C904 1.388 . S
C903 C902 1.366 . S
C903 C907 1.385 . S
C904 H885 0.951 . S
C904 C902 1.388 . S
C904 C905 1.366 . S
C905 C904 1.366 . S
C905 C906 1.414 . S
C905 C908 1.499 . S
C906 H886 0.950 . S
C906 C905 1.414 . S
C906 C907 1.374 . S
C907 H887 0.950 . S
C907 C903 1.385 . S
C907 C906 1.374 . S
C908 C905 1.499 . S
C908 C909 1.373 . S
C908 C910 1.389 . S
C909 H888 0.950 . S
C909 C908 1.373 . S
C909 C925 1.377 . S
C910 C908 1.389 . S
C910 C911 1.524 . S
C910 C924 1.377 . S
C911 C910 1.524 . S
C911 C912 1.397 . S
C911 C916 1.363 . S
C912 H889 0.950 . S
C912 C911 1.397 . S
C912 C913 1.334 . S
C913 H890 0.950 . S
C913 C912 1.334 . S
C913 C914 1.287 . S
C914 C913 1.287 . S
C914 C915 1.524 . S
C914 H933 0.913 . S
C915 H891 0.950 . S
C915 C914 1.524 . S
C915 C916 1.415 . S
C916 H892 0.950 . S
C916 C911 1.363 . S
C916 C915 1.415 . S
C917 H893 0.951 . S
C917 C918 1.366 . S
C917 C919 1.388 . S
C918 C917 1.366 . S
C918 C922 1.385 . S
C919 H894 0.951 . S
C919 C917 1.388 . S
C919 C920 1.366 . S
C920 C919 1.366 . S
C920 C921 1.414 . S
C920 C923 1.499 . S
C921 H895 0.950 . S
C921 C920 1.414 . S
C921 C922 1.374 . S
C922 H896 0.950 . S
C922 C918 1.385 . S
C922 C921 1.374 . S
C923 C920 1.499 . S
C923 C924 1.373 . S
C923 C925 1.389 . S
C924 H897 0.950 . S
C924 C910 1.377 . S
C924 C923 1.373 . S
C925 C909 1.377 . S
C925 C923 1.389 . S
C925 C926 1.524 . S
C926 C925 1.524 . S
C926 C927 1.397 . S
C926 C931 1.363 . S
C927 H898 0.950 . S
C927 C926 1.397 . S
C927 C928 1.334 . S
C928 H899 0.950 . S
C928 C927 1.334 . S
C928 C929 1.287 . S
C929 C928 1.287 . S
C929 C930 1.524 . S
C929 H932 0.999 . S
C930 H900 0.950 . S
C930 C929 1.524 . S
C930 C931 1.415 . S
C931 H901 0.950 . S
C931 C926 1.363 . S
C931 C930 1.415 . S
H932 C929 0.999 . S
H933 C914 0.913 . S
H934 C952 0.951 . S
H935 C954 0.951 . S
H936 C956 0.950 . S
H937 C957 0.950 . S
H938 C959 0.950 . S
H939 C962 0.950 . S
H940 C963 0.950 . S
H941 C965 0.950 . S
H942 C966 0.950 . S
H943 C967 0.951 . S
H944 C969 0.951 . S
H945 C971 0.950 . S
H946 C972 0.950 . S
H947 C974 0.950 . S
H948 C977 0.950 . S
H949 C978 0.950 . S
H950 C980 0.950 . S
H951 C981 0.950 . S
C952 H934 0.951 . S
C952 C953 1.366 . S
C952 C954 1.388 . S
C953 C952 1.366 . S
C953 C957 1.385 . S
C954 H935 0.951 . S
C954 C952 1.388 . S
C954 C955 1.366 . S
C955 C954 1.366 . S
C955 C956 1.414 . S
C955 C958 1.499 . S
C956 H936 0.950 . S
C956 C955 1.414 . S
C956 C957 1.374 . S
C957 H937 0.950 . S
C957 C953 1.385 . S
C957 C956 1.374 . S
C958 C955 1.499 . S
C958 C959 1.373 . S
C958 C960 1.389 . S
C959 H938 0.950 . S
C959 C958 1.373 . S
C959 C975 1.377 . S
C960 C958 1.389 . S
C960 C961 1.524 . S
C960 C974 1.377 . S
C961 C960 1.524 . S
C961 C962 1.397 . S
C961 C966 1.363 . S
C962 H939 0.950 . S
C962 C961 1.397 . S
C962 C963 1.334 . S
C963 H940 0.950 . S
C963 C962 1.334 . S
C963 C964 1.287 . S
C964 C963 1.287 . S
C964 C965 1.524 . S
C964 H983 0.913 . S
C965 H941 0.950 . S
C965 C964 1.524 . S
C965 C966 1.415 . S
C966 H942 0.950 . S
C966 C961 1.363 . S
C966 C965 1.415 . S
C967 H943 0.951 . S
C967 C968 1.366 . S
C967 C969 1.388 . S
C968 C967 1.366 . S
C968 C972 1.385 . S
C969 H944 0.951 . S
C969 C967 1.388 . S
C969 C970 1.366 . S
C970 C969 1.366 . S
C970 C971 1.414 . S
C970 C973 1.499 . S
C971 H945 0.950 . S
C971 C970 1.414 . S
C971 C972 1.374 . S
C972 H946 0.950 . S
C972 C968 1.385 . S
C972 C971 1.374 . S
C973 C970 1.499 . S
C973 C974 1.373 . S
C973 C975 1.389 . S
C974 H947 0.950 . S
C974 C960 1.377 . S
C974 C973 1.373 . S
C975 C959 1.377 . S
C975 C973 1.389 . S
C975 C976 1.524 . S
C976 C975 1.524 . S
C976 C977 1.397 . S
C976 C981 1.363 . S
C977 H948 0.950 . S
C977 C976 1.397 . S
C977 C978 1.334 . S
C978 H949 0.950 . S
C978 C977 1.334 . S
C978 C979 1.287 . S
C979 C978 1.287 . S
C979 C980 1.524 . S
C979 H982 0.999 . S
C980 H950 0.950 . S
C980 C979 1.524 . S
C980 C981 1.415 . S
C981 H951 0.950 . S
C981 C976 1.363 . S
C981 C980 1.415 . S
H982 C979 0.999 . S
H983 C964 0.913 . S
H984 C1002 0.951 . S
H985 C1004 0.951 . S
H986 C1006 0.950 . S
H987 C1007 0.950 . S
H988 C1009 0.950 . S
H989 C1012 0.950 1_545 S
H990 C1013 0.950 . S
H991 C1015 0.950 . S
H992 C1016 0.950 . S
H993 C1017 0.951 . S
H994 C1019 0.951 . S
H995 C1021 0.950 . S
H996 C1022 0.950 . S
H997 C1024 0.950 . S
H998 C1027 0.950 . S
H999 C1028 0.950 . S
H1000 C1030 0.950 . S
H1001 C1031 0.950 . S
C1002 H984 0.951 . S
C1002 C1003 1.366 . S
C1002 C1004 1.388 . S
C1003 C1002 1.366 . S
C1003 C1007 1.385 . S
C1004 H985 0.951 . S
C1004 C1002 1.388 . S
C1004 C1005 1.366 . S
C1005 C1004 1.366 . S
C1005 C1006 1.414 . S
C1005 C1008 1.499 . S
C1006 H986 0.950 . S
C1006 C1005 1.414 . S
C1006 C1007 1.374 . S
C1007 H987 0.950 . S
C1007 C1003 1.385 . S
C1007 C1006 1.374 . S
C1008 C1005 1.499 . S
C1008 C1009 1.373 . S
C1008 C1010 1.389 . S
C1009 H988 0.950 . S
C1009 C1008 1.373 . S
C1009 C1025 1.377 . S
C1010 C1008 1.389 . S
C1010 C1011 1.524 1_545 S
C1010 C1024 1.377 . S
C1011 C1010 1.524 1_565 S
C1011 C1012 1.397 . S
C1011 C1016 1.363 . S
C1012 H989 0.950 1_565 S
C1012 C1011 1.397 . S
C1012 C1013 1.334 . S
C1013 H990 0.950 . S
C1013 C1012 1.334 . S
C1013 C1014 1.287 . S
C1014 C1013 1.287 . S
C1014 C1015 1.524 . S
C1014 H1033 0.913 . S
C1015 H991 0.950 . S
C1015 C1014 1.524 . S
C1015 C1016 1.415 . S
C1016 H992 0.950 . S
C1016 C1011 1.363 . S
C1016 C1015 1.415 . S
C1017 H993 0.951 . S
C1017 C1018 1.366 . S
C1017 C1019 1.388 . S
C1018 C1017 1.366 . S
C1018 C1022 1.385 . S
C1019 H994 0.951 . S
C1019 C1017 1.388 . S
C1019 C1020 1.366 . S
C1020 C1019 1.366 . S
C1020 C1021 1.414 . S
C1020 C1023 1.499 . S
C1021 H995 0.950 . S
C1021 C1020 1.414 . S
C1021 C1022 1.374 . S
C1022 H996 0.950 . S
C1022 C1018 1.385 . S
C1022 C1021 1.374 . S
C1023 C1020 1.499 . S
C1023 C1024 1.373 . S
C1023 C1025 1.389 . S
C1024 H997 0.950 . S
C1024 C1010 1.377 . S
C1024 C1023 1.373 . S
C1025 C1009 1.377 . S
C1025 C1023 1.389 . S
C1025 C1026 1.524 . S
C1026 C1025 1.524 . S
C1026 C1027 1.397 . S
C1026 C1031 1.363 . S
C1027 H998 0.950 . S
C1027 C1026 1.397 . S
C1027 C1028 1.334 . S
C1028 H999 0.950 . S
C1028 C1027 1.334 . S
C1028 C1029 1.287 . S
C1029 C1028 1.287 . S
C1029 C1030 1.524 . S
C1029 H1032 0.999 . S
C1030 H1000 0.950 . S
C1030 C1029 1.524 . S
C1030 C1031 1.415 . S
C1031 H1001 0.950 . S
C1031 C1026 1.363 . S
C1031 C1030 1.415 . S
H1032 C1029 0.999 . S
H1033 C1014 0.913 . S
H1034 C1052 0.951 . S
H1035 C1054 0.951 . S
H1036 C1056 0.950 . S
H1037 C1057 0.950 . S
H1038 C1059 0.950 . S
H1039 C1062 0.950 . S
H1040 C1063 0.950 . S
H1041 C1065 0.950 . S
H1042 C1066 0.952 1_554 S
H1043 C1067 0.951 . S
H1044 C1069 0.951 . S
H1045 C1071 0.950 . S
H1046 C1072 0.950 . S
H1047 C1074 0.950 . S
H1048 C1077 0.950 . S
H1049 C1078 0.950 . S
H1050 C1080 0.950 . S
H1051 C1081 0.950 . S
C1052 H1034 0.951 . S
C1052 C1053 1.366 . S
C1052 C1054 1.388 . S
C1053 C1052 1.366 . S
C1053 C1057 1.385 . S
C1054 H1035 0.951 . S
C1054 C1052 1.388 . S
C1054 C1055 1.366 . S
C1055 C1054 1.366 . S
C1055 C1056 1.414 . S
C1055 C1058 1.499 . S
C1056 H1036 0.950 . S
C1056 C1055 1.414 . S
C1056 C1057 1.374 . S
C1057 H1037 0.950 . S
C1057 C1053 1.385 . S
C1057 C1056 1.374 . S
C1058 C1055 1.499 . S
C1058 C1059 1.373 . S
C1058 C1060 1.389 . S
C1059 H1038 0.950 . S
C1059 C1058 1.373 . S
C1059 C1075 1.377 . S
C1060 C1058 1.389 . S
C1060 C1061 1.524 . S
C1060 C1074 1.377 1_556 S
C1061 C1060 1.524 . S
C1061 C1062 1.397 . S
C1061 C1066 1.363 . S
C1062 H1039 0.950 . S
C1062 C1061 1.397 . S
C1062 C1063 1.334 . S
C1063 H1040 0.950 . S
C1063 C1062 1.334 . S
C1063 C1064 1.287 . S
C1064 C1063 1.287 . S
C1064 C1065 1.524 . S
C1064 H1083 0.913 . S
C1065 H1041 0.950 . S
C1065 C1064 1.524 . S
C1065 C1066 1.415 . S
C1066 H1042 0.952 1_556 S
C1066 C1061 1.363 . S
C1066 C1065 1.415 . S
C1067 H1043 0.951 . S
C1067 C1068 1.366 . S
C1067 C1069 1.388 . S
C1068 C1067 1.366 . S
C1068 C1072 1.385 . S
C1069 H1044 0.951 . S
C1069 C1067 1.388 . S
C1069 C1070 1.366 . S
C1070 C1069 1.366 . S
C1070 C1071 1.414 . S
C1070 C1073 1.499 . S
C1071 H1045 0.950 . S
C1071 C1070 1.414 . S
C1071 C1072 1.374 . S
C1072 H1046 0.950 . S
C1072 C1068 1.385 . S
C1072 C1071 1.374 . S
C1073 C1070 1.499 . S
C1073 C1074 1.373 . S
C1073 C1075 1.389 1_554 S
C1074 H1047 0.950 . S
C1074 C1060 1.377 1_554 S
C1074 C1073 1.373 . S
C1075 C1059 1.377 . S
C1075 C1073 1.389 1_556 S
C1075 C1076 1.524 . S
C1076 C1075 1.524 . S
C1076 C1077 1.397 1_556 S
C1076 C1081 1.363 . S
C1077 H1048 0.950 . S
C1077 C1076 1.397 1_554 S
C1077 C1078 1.334 . S
C1078 H1049 0.950 . S
C1078 C1077 1.334 . S
C1078 C1079 1.303 . S
C1079 C1078 1.303 . S
C1079 C1080 1.496 1_554 S
C1079 H1082 1.017 . S
C1080 H1050 0.950 . S
C1080 C1079 1.496 1_556 S
C1080 C1081 1.415 . S
C1081 H1051 0.950 . S
C1081 C1076 1.363 . S
C1081 C1080 1.415 . S
H1082 C1079 1.017 . S
H1083 C1064 0.913 . S
H1084 C1102 0.951 . S
H1085 C1104 0.951 . S
H1086 C1106 0.950 . S
H1087 C1107 0.950 . S
H1088 C1109 0.950 1_655 S
H1089 C1112 0.950 . S
H1090 C1113 0.950 . S
H1091 C1115 0.950 . S
H1092 C1116 0.950 . S
H1093 C1117 0.951 1_655 S
H1094 C1119 0.951 1_655 S
H1095 C1121 0.950 . S
H1096 C1122 0.950 . S
H1097 C1124 0.950 . S
H1098 C1127 0.955 . S
H1099 C1128 0.950 . S
H1100 C1130 0.950 . S
H1101 C1131 0.950 . S
C1102 H1084 0.951 . S
C1102 C1103 1.366 . S
C1102 C1104 1.388 . S
C1103 C1102 1.366 . S
C1103 C1107 1.385 . S
C1104 H1085 0.951 . S
C1104 C1102 1.388 . S
C1104 C1105 1.366 . S
C1105 C1104 1.366 . S
C1105 C1106 1.414 . S
C1105 C1108 1.499 . S
C1106 H1086 0.950 . S
C1106 C1105 1.414 . S
C1106 C1107 1.374 . S
C1107 H1087 0.950 . S
C1107 C1103 1.385 . S
C1107 C1106 1.374 . S
C1108 C1105 1.499 . S
C1108 C1109 1.373 . S
C1108 C1110 1.389 . S
C1109 H1088 0.950 1_455 S
C1109 C1108 1.373 . S
C1109 C1125 1.377 . S
C1110 C1108 1.389 . S
C1110 C1111 1.524 . S
C1110 C1124 1.377 . S
C1111 C1110 1.524 . S
C1111 C1112 1.397 . S
C1111 C1116 1.363 . S
C1112 H1089 0.950 . S
C1112 C1111 1.397 . S
C1112 C1113 1.334 . S
C1113 H1090 0.950 . S
C1113 C1112 1.334 . S
C1113 C1114 1.287 . S
C1114 C1113 1.287 . S
C1114 C1115 1.524 . S
C1114 H1133 0.913 . S
C1115 H1091 0.950 . S
C1115 C1114 1.524 . S
C1115 C1116 1.415 . S
C1116 H1092 0.950 . S
C1116 C1111 1.363 . S
C1116 C1115 1.415 . S
C1117 H1093 0.951 1_455 S
C1117 C1118 1.366 . S
C1117 C1119 1.388 . S
C1118 C1117 1.366 . S
C1118 C1122 1.385 . S
C1119 H1094 0.951 1_455 S
C1119 C1117 1.388 . S
C1119 C1120 1.366 . S
C1120 C1119 1.366 . S
C1120 C1121 1.414 . S
C1120 C1123 1.499 . S
C1121 H1095 0.950 . S
C1121 C1120 1.414 . S
C1121 C1122 1.374 . S
C1122 H1096 0.950 . S
C1122 C1118 1.385 . S
C1122 C1121 1.374 . S
C1123 C1120 1.499 . S
C1123 C1124 1.373 . S
C1123 C1125 1.389 . S
C1124 H1097 0.950 . S
C1124 C1110 1.377 . S
C1124 C1123 1.373 . S
C1125 C1109 1.377 . S
C1125 C1123 1.389 . S
C1125 C1126 1.524 1_455 S
C1126 C1125 1.524 1_655 S
C1126 C1127 1.397 . S
C1126 C1131 1.363 . S
C1127 H1098 0.955 . S
C1127 C1126 1.397 . S
C1127 C1128 1.334 . S
C1128 H1099 0.950 . S
C1128 C1127 1.334 . S
C1128 C1129 1.287 . S
C1129 C1128 1.287 . S
C1129 C1130 1.524 . S
C1129 H1132 0.999 . S
C1130 H1100 0.950 . S
C1130 C1129 1.524 . S
C1130 C1131 1.415 . S
C1131 H1101 0.950 . S
C1131 C1126 1.363 . S
C1131 C1130 1.415 . S
H1132 C1129 0.999 . S
H1133 C1114 0.913 . S
C253 C9 0.585 . S
C268 C226 0.634 . S
C303 C49 0.394 . S
C318 C188 0.513 . S
C353 C89 0.322 . S
C368 C207 0.465 . S
C403 C26 0.182 . S
C418 C221 0.257 . S
C468 C183 0.228 . S
C453 C66 0.201 . S
C518 C202 0.213 . S
C503 C106 0.255 . S
C553 C43 3.084 1_565 S
C568 C150 2.993 . S
C603 C83 2.978 . S
C618 C164 2.933 . S
C653 C22 3.030 . S
C668 C126 2.982 1_565 S
C718 C145 2.976 . S
C703 C62 3.023 . S
C768 C169 3.022 . S
C753 C102 3.114 . S
C803 C3 3.079 . S
C818 C131 2.991 . S
C868 C160 1.709 . S
C853 C15 1.703 . S
C903 C55 1.741 . S
C918 C122 1.737 . S
C953 C95 1.724 . S
C968 C141 1.731 . S
C1018 C198 1.382 . S
C1003 C42 1.349 . S
C1068 C217 1.372 . S
C1053 C82 1.352 . S
C1103 C2 1.317 . S
C1118 C179 1.343 . S
