# Generated by pormake.
# Topology nom, (4,4)-cn, num edge types: 1
# Building blocks:
#     Node 0, Type 0, BuildingBlock: NAWXER_clean_linker_0, # of connection points: 4
#     Node 1, Type 0, BuildingBlock: NAWXER_clean_linker_0, # of connection points: 4
#     Node 2, Type 0, BuildingBlock: NAWXER_clean_linker_0, # of connection points: 4
#     Node 3, Type 0, BuildingBlock: NAWXER_clean_linker_0, # of connection points: 4
#     Node 4, Type 0, BuildingBlock: NAWXER_clean_linker_0, # of connection points: 4
#     Node 5, Type 0, BuildingBlock: NAWXER_clean_linker_0, # of connection points: 4
#     Node 6, Type 1, BuildingBlock: UXUYUI_clean_sbu_0, # of connection points: 4
#     Node 7, Type 1, BuildingBlock: UXUYUI_clean_sbu_0, # of connection points: 4
#     Node 8, Type 1, BuildingBlock: UXUYUI_clean_sbu_0, # of connection points: 4
#     Node 9, Type 1, BuildingBlock: UXUYUI_clean_sbu_0, # of connection points: 4
#     Node 10, Type 1, BuildingBlock: UXUYUI_clean_sbu_0, # of connection points: 4
#     Node 11, Type 1, BuildingBlock: UXUYUI_clean_sbu_0, # of connection points: 4
#     Edge 12, Type (0, 1), BuildingBlock: XUDNAN_clean_linker_2, # of connection points: 2
#     Edge 13, Type (0, 1), BuildingBlock: XUDNAN_clean_linker_2, # of connection points: 2
#     Edge 14, Type (0, 1), BuildingBlock: XUDNAN_clean_linker_2, # of connection points: 2
#     Edge 15, Type (0, 1), BuildingBlock: XUDNAN_clean_linker_2, # of connection points: 2
#     Edge 16, Type (0, 1), BuildingBlock: XUDNAN_clean_linker_2, # of connection points: 2
#     Edge 17, Type (0, 1), BuildingBlock: XUDNAN_clean_linker_2, # of connection points: 2
#     Edge 18, Type (0, 1), BuildingBlock: XUDNAN_clean_linker_2, # of connection points: 2
#     Edge 19, Type (0, 1), BuildingBlock: XUDNAN_clean_linker_2, # of connection points: 2
#     Edge 20, Type (0, 1), BuildingBlock: XUDNAN_clean_linker_2, # of connection points: 2
#     Edge 21, Type (0, 1), BuildingBlock: XUDNAN_clean_linker_2, # of connection points: 2
#     Edge 22, Type (0, 1), BuildingBlock: XUDNAN_clean_linker_2, # of connection points: 2
#     Edge 23, Type (0, 1), BuildingBlock: XUDNAN_clean_linker_2, # of connection points: 2
#     Edge 24, Type (0, 1), BuildingBlock: XUDNAN_clean_linker_2, # of connection points: 2
#     Edge 25, Type (0, 1), BuildingBlock: XUDNAN_clean_linker_2, # of connection points: 2
#     Edge 26, Type (0, 1), BuildingBlock: XUDNAN_clean_linker_2, # of connection points: 2
#     Edge 27, Type (0, 1), BuildingBlock: XUDNAN_clean_linker_2, # of connection points: 2
#     Edge 28, Type (0, 1), BuildingBlock: XUDNAN_clean_linker_2, # of connection points: 2
#     Edge 29, Type (0, 1), BuildingBlock: XUDNAN_clean_linker_2, # of connection points: 2
#     Edge 30, Type (0, 1), BuildingBlock: XUDNAN_clean_linker_2, # of connection points: 2
#     Edge 31, Type (0, 1), BuildingBlock: XUDNAN_clean_linker_2, # of connection points: 2
#     Edge 32, Type (0, 1), BuildingBlock: XUDNAN_clean_linker_2, # of connection points: 2
#     Edge 33, Type (0, 1), BuildingBlock: XUDNAN_clean_linker_2, # of connection points: 2
#     Edge 34, Type (0, 1), BuildingBlock: XUDNAN_clean_linker_2, # of connection points: 2
#     Edge 35, Type (0, 1), BuildingBlock: XUDNAN_clean_linker_2, # of connection points: 2
# Relax obj value: 0.041
# Max RMSD: 0.144
# Mean RMSD: 0.123
data_MOF--net-nom--node1-UXUYUI_clean_sbu_0--node2-NAWXER_clean_linker_0--edge1-XUDNAN_clean_linker_2
_symmetry_space_group_name_H-M    P1
_symmetry_Int_Tables_number       1
_symmetry_cell_setting            triclinic
loop_
_symmetry_equiv_pos_as_xyz
'x, y, z'
_cell_length_a     62.164367
_cell_length_b     62.154388
_cell_length_c     69.039165
_cell_angle_alpha  89.9777
_cell_angle_beta   90.011208
_cell_angle_gamma 120.01008
loop_
_atom_site_label
_atom_site_type_symbol
_atom_site_fract_x
_atom_site_fract_y
_atom_site_fract_z
_atom_type_partial_charge
C0 C 0.93071 0.50967 0.33967 0.0
C1 C 0.92209 0.4898 0.35284 0.0
C2 C 0.9554 0.52179 0.33341 0.0
C3 C 0.97192 0.51423 0.34015 0.0
C4 C 0.93873 0.48244 0.35971 0.0
C5 C 0.96346 0.49467 0.35353 0.0
C6 C 0.99827 0.52737 0.33404 0.0
C7 C 0.95725 0.48957 0.27847 0.0
C8 C 0.96081 0.50602 0.26318 0.0
C9 C 0.97093 0.49835 0.29565 0.0
C10 C 0.98829 0.52375 0.29787 0.0
C11 C 0.97742 0.53155 0.26586 0.0
C12 C 0.99114 0.54026 0.28293 0.0
C13 C 0.00569 0.53291 0.31449 0.0
C14 C 0.11546 0.57182 0.317 0.0
C15 C 0.12355 0.59139 0.30357 0.0
C16 C 0.09108 0.55991 0.32396 0.0
C17 C 0.0744 0.56754 0.31779 0.0
C18 C 0.10674 0.59887 0.29736 0.0
C19 C 0.08239 0.58696 0.30432 0.0
C20 C 0.04819 0.55442 0.32428 0.0
C21 C 0.09603 0.59056 0.37567 0.0
C22 C 0.09462 0.57391 0.39006 0.0
C23 C 0.07817 0.58272 0.36103 0.0
C24 C 0.05884 0.55788 0.36019 0.0
C25 C 0.07451 0.54942 0.38985 0.0
C26 C 0.05677 0.54149 0.37504 0.0
C27 C 0.04085 0.54892 0.34389 0.0
H28 H 0.91831 0.5157 0.33407 0.0
H29 H 0.96164 0.53727 0.32347 0.0
H30 H 0.93273 0.46743 0.37008 0.0
H31 H 0.97595 0.48874 0.35911 0.0
H32 H 0.9448 0.46978 0.27682 0.0
H33 H 0.96879 0.48515 0.30679 0.0
H34 H 0.98025 0.54482 0.25457 0.0
H35 H 0.00444 0.55991 0.2843 0.0
H36 H 0.12799 0.56572 0.32217 0.0
H37 H 0.08519 0.54454 0.33396 0.0
H38 H 0.11226 0.61359 0.28679 0.0
H39 H 0.06973 0.59292 0.29916 0.0
H40 H 0.11102 0.60969 0.37572 0.0
H41 H 0.07967 0.59603 0.35022 0.0
H42 H 0.07295 0.5362 0.40077 0.0
H43 H 0.04184 0.52233 0.37486 0.0
N44 N 0.01614 0.53546 0.34799 0.0
N45 N 0.03033 0.54631 0.31044 0.0
C46 C 0.44755 0.93321 0.51727 0.0
C47 C 0.45669 0.92602 0.53315 0.0
C48 C 0.46219 0.95628 0.5084 0.0
C49 C 0.48646 0.97249 0.51498 0.0
C50 C 0.48103 0.94216 0.53962 0.0
C51 C 0.49571 0.96518 0.53067 0.0
C52 C 0.50124 0.99795 0.50691 0.0
C53 C 0.49261 0.94728 0.45814 0.0
C54 C 0.47991 0.94854 0.44174 0.0
C55 C 0.49997 0.96511 0.47276 0.0
C56 C 0.4943 0.98432 0.47153 0.0
C57 C 0.47494 0.9682 0.44018 0.0
C58 C 0.4821 0.98593 0.45493 0.0
C59 C 0.50236 0.00349 0.48695 0.0
C60 C 0.56229 0.1164 0.48384 0.0
C61 C 0.54776 0.11925 0.46961 0.0
C62 C 0.55449 0.09307 0.49216 0.0
C63 C 0.53163 0.07236 0.4868 0.0
C64 C 0.52505 0.09863 0.46421 0.0
C65 C 0.51705 0.07551 0.47276 0.0
C66 C 0.523 0.04693 0.49439 0.0
C67 C 0.53702 0.08665 0.55495 0.0
C68 C 0.55915 0.08907 0.56261 0.0
C69 C 0.52614 0.07223 0.53835 0.0
C70 C 0.53723 0.06007 0.52922 0.0
C71 C 0.57073 0.07781 0.5527 0.0
C72 C 0.5597 0.06319 0.53637 0.0
C73 C 0.52414 0.04132 0.51407 0.0
H74 H 0.42873 0.92141 0.51217 0.0
H75 H 0.45419 0.96173 0.4968 0.0
H76 H 0.48868 0.93707 0.55171 0.0
H77 H 0.51427 0.97741 0.53615 0.0
H78 H 0.49717 0.93266 0.45955 0.0
H79 H 0.51033 0.96397 0.48494 0.0
H80 H 0.46513 0.96961 0.42771 0.0
H81 H 0.47784 1.00076 0.45347 0.0
H82 H 0.5801 0.13202 0.48797 0.0
H83 H 0.56684 0.09123 0.50217 0.0
H84 H 0.51351 0.10039 0.45329 0.0
H85 H 0.49942 0.05994 0.46824 0.0
H86 H 0.52749 0.09488 0.56226 0.0
H87 H 0.50856 0.06967 0.53316 0.0
H88 H 0.58808 0.07975 0.55783 0.0
H89 H 0.56843 0.05381 0.52954 0.0
N90 N 0.51284 0.01711 0.51958 0.0
N91 N 0.51252 0.0277 0.48158 0.0
C92 C 0.56233 0.49831 0.60581 0.0
C93 C 0.54613 0.48903 0.5899 0.0
C94 C 0.55429 0.50314 0.62337 0.0
C95 C 0.52969 0.49816 0.6255 0.0
C96 C 0.5215 0.48375 0.5921 0.0
C97 C 0.51337 0.48824 0.60969 0.0
C98 C 0.52151 0.5056 0.64326 0.0
C99 C 0.53869 0.44827 0.66267 0.0
C100 C 0.5591 0.45619 0.67515 0.0
C101 C 0.52883 0.4636 0.65875 0.0
C102 C 0.53944 0.48746 0.66691 0.0
C103 C 0.56908 0.47961 0.68406 0.0
C104 C 0.55928 0.49513 0.67997 0.0
C105 C 0.52897 0.50369 0.66223 0.0
C106 C 0.48074 0.54778 0.71252 0.0
C107 C 0.50187 0.56582 0.72246 0.0
C108 C 0.48318 0.5347 0.69696 0.0
C109 C 0.5068 0.53949 0.69102 0.0
C110 C 0.5254 0.5701 0.71674 0.0
C111 C 0.5278 0.55698 0.70127 0.0
C112 C 0.51014 0.52641 0.67438 0.0
C113 C 0.47195 0.56581 0.64438 0.0
C114 C 0.44927 0.54807 0.63599 0.0
C115 C 0.48829 0.55855 0.65203 0.0
C116 C 0.48198 0.53348 0.65146 0.0
C117 C 0.44258 0.52288 0.63656 0.0
C118 C 0.45883 0.51572 0.64406 0.0
C119 C 0.50016 0.5255 0.65583 0.0
H120 H 0.58151 0.50286 0.60442 0.0
H121 H 0.56761 0.51161 0.635 0.0
H122 H 0.50856 0.4764 0.5801 0.0
H123 H 0.49437 0.48434 0.61084 0.0
H124 H 0.53016 0.43006 0.65601 0.0
H125 H 0.51281 0.4567 0.64931 0.0
H126 H 0.58475 0.48611 0.69383 0.0
H127 H 0.56747 0.51327 0.68673 0.0
H128 H 0.46236 0.54405 0.71657 0.0
H129 H 0.46661 0.52081 0.68964 0.0
H130 H 0.542 0.58353 0.72431 0.0
H131 H 0.54619 0.56079 0.69711 0.0
H132 H 0.4776 0.58535 0.64411 0.0
H133 H 0.50624 0.57255 0.65749 0.0
H134 H 0.42502 0.50871 0.63062 0.0
H135 H 0.45364 0.49629 0.64351 0.0
N136 N 0.50672 0.51569 0.64099 0.0
N137 N 0.52381 0.515 0.67698 0.0
C138 C 0.93737 0.44061 0.82299 0.0
C139 C 0.92721 0.44536 0.80649 0.0
C140 C 0.96023 0.45876 0.83031 0.0
C141 C 0.97345 0.48211 0.82131 0.0
C142 C 0.94008 0.4689 0.79772 0.0
C143 C 0.96319 0.48704 0.80494 0.0
C144 C 0.99902 0.50001 0.82779 0.0
C145 C 0.95044 0.50041 0.87518 0.0
C146 C 0.95338 0.4924 0.89354 0.0
C147 C 0.96711 0.50425 0.86022 0.0
C148 C 0.9869 0.49975 0.86311 0.0
C149 C 0.97321 0.48792 0.89644 0.0
C150 C 0.98983 0.49165 0.88141 0.0
C151 C 0.00547 0.5051 0.84757 0.0
C152 C 0.11867 0.55866 0.84497 0.0
C153 C 0.12199 0.54231 0.85706 0.0
C154 C 0.09472 0.55329 0.83964 0.0
C155 C 0.0738 0.53142 0.84621 0.0
C156 C 0.10093 0.52129 0.8645 0.0
C157 C 0.07713 0.51596 0.85918 0.0
C158 C 0.04835 0.52339 0.8392 0.0
C159 C 0.09448 0.52824 0.78696 0.0
C160 C 0.09683 0.54687 0.77408 0.0
C161 C 0.07646 0.51944 0.80155 0.0
C162 C 0.06056 0.52922 0.80363 0.0
C163 C 0.08036 0.5561 0.77593 0.0
C164 C 0.06232 0.54724 0.79049 0.0
C165 C 0.04196 0.52077 0.81934 0.0
H166 H 0.92778 0.42266 0.83008 0.0
H167 H 0.96799 0.45418 0.84263 0.0
H168 H 0.93269 0.47295 0.78489 0.0
H169 H 0.97322 0.50479 0.79761 0.0
H170 H 0.93527 0.50383 0.87235 0.0
H171 H 0.96475 0.51125 0.84649 0.0
H172 H 0.97627 0.4821 0.91046 0.0
H173 H 0.00508 0.48831 0.88413 0.0
H174 H 0.13455 0.57505 0.83906 0.0
H175 H 0.09261 0.56586 0.83 0.0
H176 H 0.10286 0.50864 0.87419 0.0
H177 H 0.06129 0.49914 0.86464 0.0
H178 H 0.10647 0.52032 0.78572 0.0
H179 H 0.07504 0.50512 0.8113 0.0
H180 H 0.08175 0.57059 0.76641 0.0
H181 H 0.05008 0.55488 0.79179 0.0
N182 N 0.01752 0.50877 0.81439 0.0
N183 N 0.02986 0.51589 0.85253 0.0
C184 C 0.51918 0.93694 0.99186 0.0
C185 C 0.49976 0.92388 0.97859 0.0
C186 C 0.52776 0.96192 0.99576 0.0
C187 C 0.51703 0.97444 0.9866 0.0
C188 C 0.48992 0.93677 0.96861 0.0
C189 C 0.49856 0.96194 0.97255 0.0
C190 C 0.52472 1.00024 0.99242 0.0
C191 C 0.47685 0.95089 0.03977 0.0
C192 C 0.49006 0.95108 0.05639 0.0
C193 C 0.48825 0.96906 0.0255 0.0
C194 C 0.51311 0.98792 0.0275 0.0
C195 C 0.51483 0.97038 0.05857 0.0
C196 C 0.52617 0.98875 0.04432 0.0
C197 C 0.52522 0.00677 0.01206 0.0
C198 C 0.56158 0.11656 0.0104 0.0
C199 C 0.5809 0.12485 0.0241 0.0
C200 C 0.54982 0.09205 0.00365 0.0
C201 C 0.55735 0.07549 0.01033 0.0
C202 C 0.58794 0.108 0.03104 0.0
C203 C 0.5762 0.08357 0.02429 0.0
C204 C 0.54551 0.04955 0.00332 0.0
C205 C 0.58313 0.10106 0.95361 0.0
C206 C 0.56691 0.09796 0.93831 0.0
C207 C 0.5761 0.08283 0.96791 0.0
C208 C 0.55238 0.0615 0.96754 0.0
C209 C 0.5438 0.07595 0.9373 0.0
C210 C 0.53661 0.05791 0.9518 0.0
C211 C 0.54364 0.04297 0.98347 0.0
H212 H 0.52765 0.92776 0.9994 0.0
H213 H 0.54252 0.97138 0.00626 0.0
H214 H 0.47497 0.92721 0.95828 0.0
H215 H 0.4902 0.97135 0.9652 0.0
H216 H 0.45758 0.93678 0.03779 0.0
H217 H 0.47759 0.96842 0.01288 0.0
H218 H 0.52565 0.97105 0.07108 0.0
H219 H 0.54533 0.00324 0.04619 0.0
H220 H 0.55578 0.1291 0.00471 0.0
H221 H 0.53495 0.08607 0.99316 0.0
H222 H 0.60241 0.11364 0.04185 0.0
H223 H 0.58207 0.071 0.02983 0.0
H224 H 0.60126 0.11764 0.95451 0.0
H225 H 0.58906 0.08562 0.97944 0.0
H226 H 0.53095 0.07308 0.92566 0.0
H227 H 0.51837 0.04146 0.95103 0.0
N228 N 0.53344 0.01848 0.97878 0.0
N229 N 0.53605 0.03117 0.01682 0.0
C230 C 0.50422 0.59788 0.17823 0.0
C231 C 0.48842 0.58913 0.19442 0.0
C232 C 0.51244 0.58307 0.16939 0.0
C233 C 0.50476 0.55903 0.17637 0.0
C234 C 0.48023 0.56486 0.20108 0.0
C235 C 0.48839 0.55001 0.19219 0.0
C236 C 0.51621 0.54468 0.16892 0.0
C237 C 0.47278 0.54668 0.11814 0.0
C238 C 0.48581 0.5572 0.10085 0.0
C239 C 0.48458 0.54297 0.13394 0.0
C240 C 0.50992 0.55022 0.13308 0.0
C241 C 0.51123 0.56468 0.10003 0.0
C242 C 0.52311 0.56115 0.11595 0.0
C243 C 0.5219 0.54407 0.14916 0.0
C244 C 0.58152 0.4911 0.15005 0.0
C245 C 0.60397 0.51004 0.14226 0.0
C246 C 0.56235 0.49582 0.15479 0.0
C247 C 0.56542 0.51956 0.15182 0.0
C248 C 0.60648 0.53343 0.1386 0.0
C249 C 0.58734 0.53807 0.14323 0.0
C250 C 0.5465 0.5259 0.15799 0.0
C251 C 0.57312 0.50465 0.21225 0.0
C252 C 0.5533 0.48458 0.22192 0.0
C253 C 0.56851 0.51765 0.19778 0.0
C254 C 0.54398 0.5107 0.19269 0.0
C255 C 0.52884 0.47818 0.21708 0.0
C256 C 0.52427 0.49117 0.2027 0.0
C257 C 0.53825 0.5237 0.17733 0.0
H258 H 0.51121 0.61663 0.17295 0.0
H259 H 0.52571 0.5909 0.15765 0.0
H260 H 0.46782 0.55747 0.21338 0.0
H261 H 0.48233 0.53164 0.19795 0.0
H262 H 0.45328 0.54096 0.11943 0.0
H263 H 0.47357 0.53368 0.14661 0.0
H264 H 0.5218 0.57252 0.08689 0.0
H265 H 0.54256 0.5666 0.11474 0.0
H266 H 0.57907 0.47289 0.15301 0.0
H267 H 0.54537 0.48112 0.16108 0.0
H268 H 0.62337 0.54824 0.13228 0.0
H269 H 0.58998 0.55644 0.14063 0.0
H270 H 0.59217 0.51003 0.21566 0.0
H271 H 0.58404 0.53304 0.19054 0.0
H272 H 0.51316 0.46318 0.22451 0.0
H273 H 0.50521 0.48572 0.19921 0.0
N274 N 0.52385 0.53364 0.1821 0.0
N275 N 0.53759 0.53552 0.14457 0.0
Li276 Li 0.63594 0.41224 0.42582 0.0
Li277 Li 0.63047 0.37343 0.41385 0.0
Li278 Li 0.6687 0.41164 0.40773 0.0
Li279 Li 0.63111 0.4038 0.39155 0.0
C280 C 0.64862 0.38544 0.45122 0.0
N281 N 0.63545 0.36443 0.48767 0.0
C282 C 0.6243 0.37591 0.45791 0.0
C283 C 0.66625 0.38431 0.46308 0.0
C284 C 0.61801 0.36536 0.47638 0.0
C285 C 0.65922 0.3736 0.48146 0.0
C286 C 0.58458 0.36778 0.40412 0.0
C287 C 0.56227 0.33374 0.38191 0.0
N288 N 0.54054 0.332 0.38769 0.0
C289 C 0.56203 0.36561 0.40988 0.0
C290 C 0.58472 0.35168 0.39005 0.0
C291 C 0.53997 0.34742 0.40139 0.0
C292 C 0.60644 0.42883 0.4428 0.0
N293 N 0.62735 0.42759 0.44594 0.0
C294 C 0.63271 0.44649 0.47708 0.0
C295 C 0.64062 0.43624 0.46261 0.0
C296 C 0.61099 0.44783 0.47431 0.0
C297 C 0.59785 0.43882 0.45685 0.0
H298 H 0.59629 0.42179 0.42941 0.0
H299 H 0.65721 0.43502 0.46476 0.0
C300 C 0.6314 0.32925 0.41143 0.0
N301 N 0.61798 0.33904 0.41897 0.0
C302 C 0.62389 0.30426 0.41435 0.0
C303 C 0.58927 0.29999 0.43332 0.0
C304 C 0.5972 0.32502 0.42972 0.0
C305 C 0.60262 0.28935 0.42544 0.0
H306 H 0.648 0.34093 0.40317 0.0
H307 H 0.58678 0.33323 0.43548 0.0
C308 C 0.67245 0.45778 0.41207 0.0
N309 N 0.70568 0.50369 0.42741 0.0
C310 C 0.6748 0.47941 0.40387 0.0
C311 C 0.68706 0.4595 0.42805 0.0
C312 C 0.69169 0.50245 0.41184 0.0
C313 C 0.70373 0.48288 0.4356 0.0
C314 C 0.66099 0.38968 0.37168 0.0
C315 C 0.67105 0.41323 0.36326 0.0
C316 C 0.66354 0.37117 0.36228 0.0
C317 C 0.68359 0.41789 0.34561 0.0
C318 C 0.67622 0.37656 0.34464 0.0
N319 N 0.6859 0.39961 0.33674 0.0
C320 C 0.71172 0.40937 0.41257 0.0
C321 C 0.71809 0.44363 0.39329 0.0
C322 C 0.73579 0.41429 0.40876 0.0
N323 N 0.70326 0.42371 0.40459 0.0
C324 C 0.74227 0.44909 0.38891 0.0
C325 C 0.75123 0.43396 0.39633 0.0
H326 H 0.69941 0.39353 0.42137 0.0
H327 H 0.7108 0.45461 0.38698 0.0
C328 C 0.61491 0.42942 0.36743 0.0
N329 N 0.61756 0.40901 0.36832 0.0
C330 C 0.60581 0.43464 0.35063 0.0
C331 C 0.6022 0.39767 0.33599 0.0
C332 C 0.61134 0.39315 0.35307 0.0
C333 C 0.59934 0.41867 0.33457 0.0
H334 H 0.61994 0.44167 0.37981 0.0
H335 H 0.61373 0.37711 0.35406 0.0
O336 O 0.65536 0.39591 0.43321 0.0
O337 O 0.60627 0.38553 0.4124 0.0
O338 O 0.65592 0.43515 0.40436 0.0
O339 O 0.64868 0.3846 0.38901 0.0
H340 H 0.6104 0.37665 0.449 0.0
H341 H 0.68517 0.39165 0.45813 0.0
H342 H 0.59925 0.35792 0.48173 0.0
H343 H 0.67268 0.3726 0.49079 0.0
H344 H 0.56212 0.32118 0.37099 0.0
H345 H 0.56158 0.37785 0.42082 0.0
H346 H 0.6019 0.35291 0.38545 0.0
H347 H 0.52238 0.34556 0.40571 0.0
H348 H 0.64357 0.45342 0.49021 0.0
H349 H 0.5808 0.43905 0.45416 0.0
H350 H 0.63476 0.29672 0.40819 0.0
H351 H 0.57266 0.28896 0.44183 0.0
H352 H 0.66367 0.47839 0.39147 0.0
H353 H 0.68563 0.44304 0.43458 0.0
H354 H 0.69368 0.51934 0.40565 0.0
H355 H 0.71512 0.48448 0.44797 0.0
H356 H 0.66922 0.42779 0.37023 0.0
H357 H 0.65578 0.3528 0.36853 0.0
H358 H 0.69148 0.43604 0.33896 0.0
H359 H 0.67834 0.3624 0.33722 0.0
H360 H 0.74201 0.40244 0.41514 0.0
H361 H 0.75335 0.46429 0.37913 0.0
H362 H 0.60359 0.45084 0.35033 0.0
H363 H 0.59779 0.38502 0.32392 0.0
Li364 Li 0.2467 0.63667 0.59983 0.0
Li365 Li 0.27833 0.63143 0.58271 0.0
Li366 Li 0.27819 0.67212 0.58206 0.0
Li367 Li 0.24713 0.63662 0.56344 0.0
C368 C 0.28589 0.65443 0.6237 0.0
N369 N 0.28997 0.65286 0.66347 0.0
C370 C 0.28948 0.63607 0.63225 0.0
C371 C 0.28472 0.67219 0.63536 0.0
C372 C 0.29142 0.63555 0.65239 0.0
C373 C 0.28671 0.67102 0.65544 0.0
C374 C 0.23322 0.58562 0.57524 0.0
C375 C 0.22944 0.5575 0.54965 0.0
N376 N 0.21668 0.53796 0.56185 0.0
C377 C 0.2199 0.56524 0.58748 0.0
C378 C 0.23792 0.58171 0.55614 0.0
C379 C 0.21177 0.5413 0.58046 0.0
C380 C 0.21395 0.63589 0.62982 0.0
N381 N 0.22717 0.62552 0.62286 0.0
C382 C 0.21646 0.59894 0.65048 0.0
C383 C 0.22823 0.60709 0.63262 0.0
C384 C 0.20314 0.60963 0.65831 0.0
C385 C 0.20158 0.62805 0.64762 0.0
H386 H 0.21332 0.65046 0.62175 0.0
H387 H 0.23879 0.59913 0.62671 0.0
C388 C 0.32428 0.63507 0.58885 0.0
N389 N 0.30019 0.61821 0.58475 0.0
C390 C 0.34164 0.62733 0.59171 0.0
C391 C 0.3092 0.58508 0.5857 0.0
C392 C 0.29241 0.59357 0.58325 0.0
C393 C 0.33413 0.60204 0.59007 0.0
H394 H 0.3299 0.65453 0.59014 0.0
H395 H 0.2732 0.58036 0.58038 0.0
C396 C 0.23913 0.67907 0.58128 0.0
N397 N 0.23561 0.72165 0.58057 0.0
C398 C 0.23046 0.68522 0.56469 0.0
C399 C 0.24566 0.69438 0.59759 0.0
C400 C 0.22889 0.70688 0.5646 0.0
C401 C 0.24386 0.71588 0.59692 0.0
C402 C 0.29403 0.6549 0.54306 0.0
C403 C 0.30257 0.6759 0.53127 0.0
C404 C 0.29679 0.63499 0.53691 0.0
C405 C 0.31302 0.67631 0.51326 0.0
C406 C 0.30737 0.63611 0.51882 0.0
N407 N 0.31516 0.65656 0.50745 0.0
C408 C 0.31904 0.71803 0.59361 0.0
C409 C 0.29715 0.72049 0.56639 0.0
C410 C 0.33661 0.74327 0.59199 0.0
N411 N 0.29987 0.70719 0.58085 0.0
C412 C 0.31421 0.74579 0.56429 0.0
C413 C 0.33448 0.75748 0.57705 0.0
H414 H 0.32108 0.70691 0.60472 0.0
H415 H 0.28204 0.71134 0.55619 0.0
C416 C 0.20685 0.6065 0.53734 0.0
N417 N 0.22829 0.62848 0.53986 0.0
C418 C 0.19427 0.60097 0.5196 0.0
C419 C 0.22526 0.64135 0.50783 0.0
C420 C 0.23728 0.64598 0.52569 0.0
C421 C 0.20365 0.61842 0.50443 0.0
H422 H 0.19962 0.59311 0.549 0.0
H423 H 0.25369 0.66372 0.52833 0.0
O424 O 0.28345 0.65496 0.60404 0.0
O425 O 0.24136 0.60918 0.58194 0.0
O426 O 0.24108 0.6581 0.58156 0.0
O427 O 0.28398 0.65431 0.56085 0.0
H428 H 0.29035 0.62212 0.62348 0.0
H429 H 0.28227 0.68671 0.62899 0.0
H430 H 0.29398 0.62131 0.6592 0.0
H431 H 0.2857 0.68457 0.66465 0.0
H432 H 0.23296 0.55424 0.53491 0.0
H433 H 0.21585 0.56784 0.60224 0.0
H434 H 0.24776 0.59716 0.54636 0.0
H435 H 0.20151 0.52537 0.58979 0.0
H436 H 0.21783 0.58444 0.65812 0.0
H437 H 0.19153 0.63678 0.6532 0.0
H438 H 0.36074 0.64098 0.59498 0.0
H439 H 0.30263 0.56537 0.58458 0.0
H440 H 0.22505 0.67345 0.55202 0.0
H441 H 0.25221 0.68978 0.61057 0.0
H442 H 0.22234 0.71194 0.55182 0.0
H443 H 0.24903 0.72799 0.6094 0.0
H444 H 0.30097 0.69165 0.53588 0.0
H445 H 0.29104 0.61889 0.54602 0.0
H446 H 0.31948 0.69235 0.50393 0.0
H447 H 0.30949 0.62077 0.51386 0.0
H448 H 0.35213 0.75134 0.60197 0.0
H449 H 0.31161 0.75601 0.55269 0.0
H450 H 0.17768 0.58306 0.5177 0.0
H451 H 0.23278 0.65573 0.49686 0.0
Li452 Li 0.6715 0.2808 0.75189 0.0
Li453 Li 0.63447 0.25339 0.76725 0.0
Li454 Li 0.63894 0.24788 0.73244 0.0
Li455 Li 0.63442 0.28447 0.74582 0.0
C456 C 0.67715 0.24126 0.7558 0.0
N457 N 0.71838 0.23564 0.75879 0.0
C458 C 0.69031 0.24667 0.77322 0.0
C459 C 0.68476 0.2327 0.73997 0.0
C460 C 0.71118 0.24381 0.77442 0.0
C461 C 0.70569 0.23003 0.74176 0.0
C462 C 0.64967 0.29404 0.78888 0.0
C463 C 0.62952 0.30552 0.81329 0.0
N464 N 0.64237 0.30123 0.82726 0.0
C465 C 0.66283 0.28994 0.80345 0.0
C466 C 0.63298 0.30202 0.7938 0.0
C467 C 0.6588 0.29359 0.82278 0.0
C468 C 0.71544 0.31919 0.76847 0.0
N469 N 0.70696 0.30094 0.75487 0.0
C470 C 0.74854 0.31124 0.74714 0.0
C471 C 0.72297 0.2971 0.74398 0.0
C472 C 0.75777 0.32971 0.76152 0.0
C473 C 0.74086 0.33383 0.77207 0.0
H474 H 0.70246 0.32226 0.77671 0.0
H475 H 0.71593 0.28292 0.73294 0.0
C476 C 0.62647 0.21621 0.79427 0.0
N477 N 0.62052 0.23411 0.79058 0.0
C478 C 0.61894 0.2026 0.81148 0.0
C479 C 0.5985 0.22541 0.82065 0.0
C480 C 0.60615 0.23837 0.80312 0.0
C481 C 0.60521 0.2075 0.82511 0.0
H482 H 0.63747 0.21274 0.78399 0.0
H483 H 0.60098 0.25213 0.79974 0.0
C484 C 0.67903 0.3014 0.71719 0.0
N485 N 0.72214 0.33698 0.69954 0.0
C486 C 0.68887 0.3265 0.72175 0.0
C487 C 0.69103 0.29438 0.70361 0.0
C488 C 0.71072 0.34421 0.71269 0.0
C489 C 0.71282 0.31265 0.69484 0.0
C490 C 0.58828 0.23386 0.75515 0.0
C491 C 0.57868 0.20826 0.75693 0.0
C492 C 0.57547 0.24483 0.76322 0.0
C493 C 0.55643 0.19404 0.76697 0.0
C494 C 0.55325 0.22994 0.7731 0.0
N495 N 0.54428 0.20508 0.77478 0.0
C496 C 0.62155 0.20095 0.71536 0.0
C497 C 0.6317 0.23356 0.69296 0.0
C498 C 0.61458 0.18376 0.70029 0.0
N499 N 0.63 0.2253 0.71144 0.0
C500 C 0.62512 0.21704 0.67742 0.0
C501 C 0.61646 0.19172 0.68095 0.0
H502 H 0.62024 0.19491 0.73023 0.0
H503 H 0.63825 0.25302 0.6903 0.0
C504 C 0.63335 0.32985 0.7448 0.0
N505 N 0.62252 0.30599 0.7384 0.0
C506 C 0.62655 0.34628 0.7368 0.0
C507 C 0.59728 0.31304 0.71617 0.0
C508 C 0.60454 0.29728 0.72461 0.0
C509 C 0.60873 0.33804 0.72194 0.0
H510 H 0.64795 0.33638 0.75554 0.0
H511 H 0.59648 0.27827 0.71969 0.0
O512 O 0.65671 0.24399 0.75434 0.0
O513 O 0.65338 0.29061 0.76988 0.0
O514 O 0.65795 0.28378 0.7262 0.0
O515 O 0.61026 0.24818 0.74572 0.0
H516 H 0.68454 0.25313 0.78565 0.0
H517 H 0.67478 0.22843 0.72638 0.0
H518 H 0.72165 0.2481 0.78776 0.0
H519 H 0.7119 0.22358 0.7296 0.0
H520 H 0.61656 0.31155 0.81733 0.0
H521 H 0.6759 0.28389 0.79988 0.0
H522 H 0.62256 0.30517 0.78271 0.0
H523 H 0.66873 0.29033 0.83422 0.0
H524 H 0.76095 0.30772 0.73844 0.0
H525 H 0.74713 0.34776 0.78336 0.0
H526 H 0.62455 0.18898 0.81437 0.0
H527 H 0.58758 0.22947 0.83066 0.0
H528 H 0.6799 0.3322 0.73235 0.0
H529 H 0.68381 0.27499 0.70009 0.0
H530 H 0.71863 0.36369 0.71615 0.0
H531 H 0.72239 0.30749 0.68438 0.0
H532 H 0.58846 0.19955 0.75082 0.0
H533 H 0.58275 0.26465 0.76202 0.0
H534 H 0.54884 0.17422 0.76858 0.0
H535 H 0.54318 0.23818 0.77951 0.0
H536 H 0.60758 0.1644 0.7038 0.0
H537 H 0.62716 0.22413 0.6628 0.0
H538 H 0.63596 0.36547 0.74152 0.0
H539 H 0.58327 0.30589 0.70491 0.0
Li540 Li 0.41097 0.63253 0.92612 0.0
Li541 Li 0.41816 0.67248 0.91389 0.0
Li542 Li 0.38131 0.63276 0.90366 0.0
Li543 Li 0.42191 0.64311 0.89147 0.0
C544 C 0.38261 0.64369 0.94854 0.0
N545 N 0.3684 0.6346 0.98697 0.0
C546 C 0.39667 0.66113 0.96274 0.0
C547 C 0.36106 0.62184 0.95385 0.0
C548 C 0.38926 0.65613 0.9821 0.0
C549 C 0.35425 0.61753 0.97336 0.0
C550 C 0.46554 0.67779 0.90939 0.0
C551 C 0.49269 0.71318 0.88972 0.0
N552 N 0.51269 0.71321 0.89774 0.0
C553 C 0.48634 0.67816 0.91744 0.0
C554 C 0.46869 0.69544 0.89543 0.0
C555 C 0.51004 0.69622 0.91136 0.0
C556 C 0.40761 0.59323 0.95001 0.0
N557 N 0.41679 0.61813 0.94859 0.0
C558 C 0.43572 0.62456 0.97984 0.0
C559 C 0.43098 0.63383 0.96292 0.0
C560 C 0.4261 0.59884 0.98193 0.0
C561 C 0.41203 0.58315 0.96662 0.0
H562 H 0.39706 0.58117 0.93821 0.0
H563 H 0.43856 0.65363 0.96122 0.0
C564 C 0.41947 0.71905 0.91534 0.0
N565 N 0.43037 0.70604 0.92164 0.0
C566 C 0.427 0.74272 0.92277 0.0
C567 C 0.45693 0.73915 0.94284 0.0
C568 C 0.44899 0.71572 0.93492 0.0
C569 C 0.44562 0.7528 0.93701 0.0
H570 H 0.40438 0.71071 0.90505 0.0
H571 H 0.4571 0.70484 0.93989 0.0
C572 C 0.37807 0.58761 0.89897 0.0
N573 N 0.33994 0.54022 0.89063 0.0
C574 C 0.37745 0.57662 0.88115 0.0
C575 C 0.35941 0.57437 0.9126 0.0
C576 C 0.358 0.55267 0.8772 0.0
C577 C 0.34026 0.55048 0.90809 0.0
C578 C 0.39337 0.6603 0.86959 0.0
C579 C 0.38828 0.64064 0.85709 0.0
C580 C 0.38716 0.67814 0.86405 0.0
C581 C 0.37702 0.63912 0.83924 0.0
C582 C 0.37592 0.67598 0.84608 0.0
N583 N 0.37112 0.65668 0.83414 0.0
C584 C 0.33208 0.62414 0.90746 0.0
C585 C 0.33742 0.60218 0.88163 0.0
C586 C 0.3068 0.61358 0.90309 0.0
N587 N 0.34676 0.61806 0.8969 0.0
C588 C 0.31233 0.59111 0.87685 0.0
C589 C 0.2966 0.59656 0.88774 0.0
H590 H 0.33999 0.63711 0.91935 0.0
H591 H 0.34935 0.59799 0.87309 0.0
C592 C 0.44338 0.62028 0.86983 0.0
N593 N 0.43992 0.6402 0.87016 0.0
C594 C 0.45414 0.61581 0.8537 0.0
C595 C 0.45871 0.65314 0.83894 0.0
C596 C 0.44771 0.6568 0.85532 0.0
C597 C 0.46165 0.63217 0.83785 0.0
H598 H 0.43718 0.6075 0.88193 0.0
H599 H 0.44475 0.67251 0.85594 0.0
O600 O 0.38975 0.64812 0.92953 0.0
O601 O 0.44225 0.66016 0.91519 0.0
O602 O 0.39686 0.61115 0.90305 0.0
O603 O 0.40435 0.66213 0.88718 0.0
H604 H 0.41328 0.67821 0.95891 0.0
H605 H 0.3496 0.60842 0.94303 0.0
H606 H 0.40011 0.66937 0.99326 0.0
H607 H 0.33767 0.60064 0.97767 0.0
H608 H 0.49541 0.72694 0.87892 0.0
H609 H 0.48417 0.66462 0.92828 0.0
H610 H 0.45282 0.69547 0.88906 0.0
H611 H 0.52631 0.69674 0.91746 0.0
H612 H 0.44651 0.63741 0.99124 0.0
H613 H 0.40474 0.56329 0.96732 0.0
H614 H 0.41765 0.75256 0.91806 0.0
H615 H 0.47149 0.74634 0.95367 0.0
H616 H 0.39164 0.58654 0.87037 0.0
H617 H 0.35972 0.58245 0.9265 0.0
H618 H 0.35721 0.54402 0.86342 0.0
H619 H 0.32565 0.54009 0.91849 0.0
H620 H 0.39269 0.62652 0.86119 0.0
H621 H 0.39097 0.69351 0.87351 0.0
H622 H 0.37291 0.62394 0.82947 0.0
H623 H 0.37101 0.68966 0.84161 0.0
H624 H 0.29528 0.61826 0.91187 0.0
H625 H 0.30534 0.57847 0.86466 0.0
H626 H 0.45642 0.59964 0.85359 0.0
H627 H 0.46407 0.66613 0.82701 0.0
Li628 Li 0.76642 0.41704 0.08544 0.0
Li629 Li 0.79655 0.40487 0.09879 0.0
Li630 Li 0.79389 0.4128 0.06305 0.0
Li631 Li 0.76145 0.37696 0.07815 0.0
C632 C 0.80856 0.45944 0.09083 0.0
N633 N 0.81736 0.5056 0.10278 0.0
C634 C 0.81978 0.46901 0.10874 0.0
C635 C 0.8021 0.47351 0.07891 0.0
C636 C 0.82402 0.49235 0.11454 0.0
C637 C 0.8066 0.49675 0.08523 0.0
C638 C 0.7429 0.37046 0.11336 0.0
C639 C 0.7297 0.33401 0.13312 0.0
N640 N 0.70564 0.32802 0.13054 0.0
C641 C 0.71809 0.36408 0.111 0.0
C642 C 0.74884 0.35543 0.12456 0.0
C643 C 0.69949 0.34248 0.11976 0.0
C644 C 0.7318 0.43404 0.08085 0.0
N645 N 0.74902 0.43367 0.09278 0.0
C646 C 0.74067 0.45567 0.11725 0.0
C647 C 0.75341 0.44388 0.11077 0.0
C648 C 0.72288 0.45652 0.10523 0.0
C649 C 0.71842 0.44543 0.08683 0.0
H650 H 0.72827 0.42525 0.0668 0.0
H651 H 0.76672 0.44269 0.12013 0.0
C652 C 0.84162 0.41477 0.11598 0.0
N653 N 0.81848 0.41073 0.11983 0.0
C654 C 0.85967 0.42344 0.13049 0.0
C655 C 0.82957 0.42319 0.15278 0.0
C656 C 0.81197 0.41415 0.13788 0.0
C657 C 0.85404 0.42862 0.14906 0.0
H658 H 0.84631 0.41212 0.10142 0.0
H659 H 0.79353 0.41125 0.1404 0.0
C660 C 0.75683 0.40267 0.04088 0.0
N661 N 0.75681 0.40914 1.00127 0.0
C662 C 0.75339 0.38359 0.02829 0.0
C663 C 0.7601 0.42497 0.03332 0.0
C664 C 0.75345 0.38723 0.00831 0.0
C665 C 0.7601 0.42791 0.01326 0.0
C666 C 0.79566 0.36288 0.07524 0.0
C667 C 0.78797 0.34855 0.05835 0.0
C668 C 0.80219 0.35401 0.09152 0.0
C669 C 0.78692 0.32557 0.05805 0.0
C670 C 0.80095 0.33096 0.09062 0.0
N671 N 0.79339 0.31733 0.07405 0.0
C672 C 0.82788 0.45151 0.03831 0.0
C673 C 0.81465 0.41096 0.02667 0.0
C674 C 0.84267 0.46195 0.02191 0.0
N675 N 0.81411 0.42643 0.04034 0.0
C676 C 0.82907 0.42058 0.00998 0.0
C677 C 0.84335 0.44643 0.0074 0.0
H678 H 0.82755 0.46347 0.04948 0.0
H679 H 0.80369 0.39112 0.02858 0.0
C680 C 0.71547 0.34061 0.06394 0.0
N681 N 0.73512 0.34308 0.07441 0.0
C682 C 0.69526 0.31718 0.06006 0.0
C683 C 0.71518 0.29894 0.07844 0.0
C684 C 0.73501 0.32284 0.08208 0.0
C685 C 0.69501 0.29591 0.06718 0.0
H686 H 0.71545 0.35692 0.05857 0.0
H687 H 0.75017 0.32513 0.09112 0.0
O688 O 0.80385 0.4364 0.08504 0.0
O689 O 0.76129 0.39111 0.10445 0.0
O690 O 0.75738 0.39966 0.06049 0.0
O691 O 0.79713 0.38559 0.07578 0.0
H692 H 0.82518 0.45858 0.11808 0.0
H693 H 0.79341 0.46643 0.06502 0.0
H694 H 0.8326 0.49992 0.12839 0.0
H695 H 0.80149 0.50772 0.07621 0.0
H696 H 0.73398 0.32209 0.14175 0.0
H697 H 0.71326 0.37555 0.10229 0.0
H698 H 0.76799 0.36012 0.12644 0.0
H699 H 0.68018 0.33718 0.11795 0.0
H700 H 0.74434 0.4636 0.13166 0.0
H701 H 0.70487 0.44573 0.07713 0.0
H702 H 0.87807 0.42679 0.127 0.0
H703 H 0.82436 0.42716 0.16672 0.0
H704 H 0.75107 0.36629 0.03384 0.0
H705 H 0.76274 0.43992 0.04281 0.0
H706 H 0.75096 0.37268 0.99841 0.0
H707 H 0.76273 0.44513 0.00721 0.0
H708 H 0.78244 0.35485 0.04572 0.0
H709 H 0.80798 0.36468 0.10477 0.0
H710 H 0.78086 0.31424 0.04511 0.0
H711 H 0.8059 0.32386 0.10312 0.0
H712 H 0.85371 0.48198 0.02075 0.0
H713 H 0.82875 0.40786 0.99912 0.0
H714 H 0.68015 0.31574 0.05129 0.0
H715 H 0.71548 0.28305 0.08457 0.0
Li716 Li 0.41162 0.79952 0.26663 0.0
Li717 Li 0.37699 0.76617 0.25037 0.0
Li718 Li 0.41726 0.76898 0.2483 0.0
Li719 Li 0.40848 0.79872 0.2298 0.0
C720 C 0.40081 0.76097 0.29044 0.0
N721 N 0.40926 0.75695 0.32922 0.0
C722 C 0.3815 0.75333 0.30386 0.0
C723 C 0.42432 0.76626 0.29672 0.0
C724 C 0.38617 0.75149 0.32341 0.0
C725 C 0.42825 0.7642 0.31639 0.0
C726 C 0.36542 0.80287 0.24745 0.0
C727 C 0.33646 0.80788 0.22735 0.0
N728 N 0.3222 0.8048 0.2432 0.0
C729 C 0.35051 0.79984 0.26354 0.0
C730 C 0.35837 0.80696 0.2292 0.0
C731 C 0.32871 0.80082 0.26109 0.0
C732 C 0.44485 0.83841 0.29252 0.0
N733 N 0.42116 0.81975 0.28941 0.0
C734 C 0.40881 0.82568 0.3208 0.0
C735 C 0.40314 0.81371 0.30292 0.0
C736 C 0.43321 0.84446 0.32471 0.0
C737 C 0.45131 0.85123 0.31019 0.0
H738 H 0.45882 0.84303 0.28147 0.0
H739 H 0.38444 0.79902 0.30004 0.0
C740 C 0.33911 0.72116 0.26381 0.0
N741 N 0.34261 0.74098 0.25306 0.0
C742 C 0.31528 0.70138 0.26722 0.0
C743 C 0.29877 0.72226 0.24797 0.0
C744 C 0.32305 0.74159 0.24476 0.0
C745 C 0.2947 0.70187 0.25942 0.0
H746 H 0.35493 0.72062 0.26972 0.0
H747 H 0.32615 0.75684 0.2355 0.0
C748 C 0.46181 0.81208 0.24386 0.0
N749 N 0.51027 0.82339 0.23755 0.0
C750 C 0.47177 0.8174 0.22516 0.0
C751 C 0.47664 0.81293 0.25939 0.0
C752 C 0.49627 0.82297 0.22226 0.0
C753 C 0.50105 0.81856 0.25589 0.0
C754 C 0.37394 0.74352 0.21783 0.0
C755 C 0.36764 0.71901 0.22176 0.0
C756 C 0.35932 0.74834 0.20515 0.0
C757 C 0.34659 0.69961 0.21302 0.0
C758 C 0.33845 0.72843 0.19668 0.0
N759 N 0.33255 0.70468 0.20077 0.0
C760 C 0.42408 0.72912 0.25858 0.0
C761 C 0.44797 0.75191 0.23147 0.0
C762 C 0.43198 0.71184 0.2564 0.0
N763 N 0.43223 0.74875 0.24628 0.0
C764 C 0.45641 0.73508 0.22877 0.0
C765 C 0.44823 0.71456 0.24124 0.0
H766 H 0.41066 0.72631 0.26967 0.0
H767 H 0.45332 0.76699 0.22135 0.0
C768 C 0.41987 0.84047 0.20533 0.0
N769 N 0.416 0.81694 0.20623 0.0
C770 C 0.42547 0.85308 0.18759 0.0
C771 C 0.42353 0.81718 0.17229 0.0
C772 C 0.41778 0.80525 0.19021 0.0
C773 C 0.4273 0.84139 0.17071 0.0
H774 H 0.4184 0.84934 0.21834 0.0
H775 H 0.41498 0.78667 0.19142 0.0
O776 O 0.3967 0.7633 0.27126 0.0
O777 O 0.38703 0.80235 0.24959 0.0
O778 O 0.43784 0.80657 0.24697 0.0
O779 O 0.39395 0.76272 0.22675 0.0
H780 H 0.36319 0.74924 0.29928 0.0
H781 H 0.43933 0.77178 0.2865 0.0
H782 H 0.37145 0.74581 0.33397 0.0
H783 H 0.44639 0.76832 0.32144 0.0
H784 H 0.33076 0.81096 0.21331 0.0
H785 H 0.35557 0.79656 0.27775 0.0
H786 H 0.36953 0.80919 0.21656 0.0
H787 H 0.31694 0.79839 0.27341 0.0
H788 H 0.39428 0.82017 0.33154 0.0
H789 H 0.47034 0.86566 0.31271 0.0
H790 H 0.31298 0.68604 0.27616 0.0
H791 H 0.28338 0.72308 0.24138 0.0
H792 H 0.46067 0.81704 0.21299 0.0
H793 H 0.46947 0.80944 0.27401 0.0
H794 H 0.50414 0.82694 0.20784 0.0
H795 H 0.51269 0.81917 0.26778 0.0
H796 H 0.37872 0.71502 0.23164 0.0
H797 H 0.36389 0.76723 0.20207 0.0
H798 H 0.34138 0.68053 0.21601 0.0
H799 H 0.32687 0.73185 0.18692 0.0
H800 H 0.42465 0.69599 0.26605 0.0
H801 H 0.46894 0.73794 0.21689 0.0
H802 H 0.42798 0.87161 0.18709 0.0
H803 H 0.42532 0.80759 0.15984 0.0
H804 H 0.15502 0.64121 0.29712 0.0
H805 H 0.15019 0.56928 0.29227 0.0
H806 H 0.19292 0.58961 0.27932 0.0
H807 H 0.19025 0.66752 0.25302 0.0
H808 H 0.20866 0.69812 0.26326 0.0
H809 H 0.17754 0.67789 0.2719 0.0
H810 H 0.19416 0.68238 0.30697 0.0
H811 H 0.22529 0.70267 0.29845 0.0
H812 H 0.2183 0.67516 0.31204 0.0
H813 H 0.23637 0.61776 0.26752 0.0
H814 H 0.27791 0.65196 0.25825 0.0
H815 H 0.25419 0.70544 0.27032 0.0
C816 C 0.16283 0.62969 0.29314 0.0
C817 C 0.14925 0.60364 0.29575 0.0
C818 C 0.16034 0.58929 0.29066 0.0
C819 C 0.18453 0.60064 0.28315 0.0
C820 C 0.19736 0.62634 0.28076 0.0
C821 C 0.18692 0.6407 0.28561 0.0
C822 C 0.2049 0.66802 0.28203 0.0
C823 C 0.19472 0.67849 0.26663 0.0
C824 C 0.21102 0.68293 0.301 0.0
C825 C 0.22713 0.66679 0.27451 0.0
C826 C 0.22237 0.64257 0.27384 0.0
C827 C 0.2403 0.63679 0.26792 0.0
C828 C 0.26384 0.65632 0.26276 0.0
C829 C 0.26923 0.68131 0.26355 0.0
C830 C 0.25048 0.6865 0.26929 0.0
H831 H 0.56158 0.16467 0.48585 0.0
H832 H 0.55344 0.12768 0.43086 0.0
H833 H 0.56704 0.16732 0.41362 0.0
H834 H 0.53787 0.20363 0.46932 0.0
H835 H 0.5589 0.23006 0.48372 0.0
H836 H 0.54973 0.19911 0.49187 0.0
H837 H 0.59595 0.21088 0.49418 0.0
H838 H 0.60526 0.2419 0.48612 0.0
H839 H 0.61573 0.22359 0.47326 0.0
H840 H 0.58188 0.21075 0.40242 0.0
H841 H 0.5952 0.25514 0.39777 0.0
H842 H 0.59159 0.26376 0.45981 0.0
C843 C 0.56292 0.16508 0.47019 0.0
C844 C 0.55663 0.14328 0.45961 0.0
C845 C 0.55817 0.14427 0.43915 0.0
C846 C 0.56592 0.16666 0.42927 0.0
C847 C 0.57179 0.18781 0.44008 0.0
C848 C 0.57024 0.18724 0.46007 0.0
C849 C 0.57671 0.21248 0.4681 0.0
C850 C 0.55447 0.21123 0.47889 0.0
C851 C 0.59979 0.22282 0.48119 0.0
C852 C 0.5822 0.2273 0.4495 0.0
C853 C 0.57945 0.21274 0.43353 0.0
C854 C 0.584 0.22233 0.41479 0.0
C855 C 0.5916 0.24752 0.41229 0.0
C856 C 0.59428 0.26273 0.42841 0.0
C857 C 0.5894 0.25242 0.44724 0.0
H858 H 0.43496 0.58189 0.64694 0.0
H859 H 0.42747 0.53109 0.60085 0.0
H860 H 0.39879 0.54089 0.58358 0.0
H861 H 0.3722 0.56756 0.64722 0.0
H862 H 0.37892 0.59893 0.65151 0.0
H863 H 0.40011 0.58915 0.65992 0.0
H864 H 0.436 0.62526 0.641 0.0
H865 H 0.41491 0.6352 0.63256 0.0
H866 H 0.43259 0.62847 0.6154 0.0
H867 H 0.36908 0.55378 0.57223 0.0
H868 H 0.3407 0.57025 0.56697 0.0
H869 H 0.36767 0.61361 0.61973 0.0
C870 C 0.42755 0.57314 0.63309 0.0
C871 C 0.43325 0.55552 0.62535 0.0
C872 C 0.42301 0.54429 0.60724 0.0
C873 C 0.40684 0.54986 0.59724 0.0
C874 C 0.40119 0.56689 0.60541 0.0
C875 C 0.41131 0.57853 0.62283 0.0
C876 C 0.40142 0.59552 0.6286 0.0
C877 C 0.38732 0.58729 0.64796 0.0
C878 C 0.42249 0.62273 0.62943 0.0
C879 C 0.38392 0.59125 0.61184 0.0
C880 C 0.38418 0.5747 0.59863 0.0
C881 C 0.36886 0.56694 0.58237 0.0
C882 C 0.35272 0.57627 0.57956 0.0
C883 C 0.35208 0.59322 0.5929 0.0
C884 C 0.36808 0.60095 0.60915 0.0
H885 H 0.88568 0.44734 0.79558 0.0
H886 H 0.91606 0.39798 0.79856 0.0
H887 H 0.87675 0.36364 0.78571 0.0
H888 H 0.82496 0.40303 0.81123 0.0
H889 H 0.8092 0.41383 0.79549 0.0
H890 H 0.8403 0.43506 0.8036 0.0
H891 H 0.85485 0.44607 0.76798 0.0
H892 H 0.82375 0.4249 0.75975 0.0
H893 H 0.84935 0.42158 0.75124 0.0
H894 H 0.83393 0.33439 0.77371 0.0
H895 H 0.78969 0.31161 0.7644 0.0
H896 H 0.78667 0.37967 0.76938 0.0
C897 C 0.88411 0.42937 0.79326 0.0
C898 C 0.90385 0.42525 0.79803 0.0
C899 C 0.90105 0.40142 0.79511 0.0
C900 C 0.87887 0.38187 0.78773 0.0
C901 C 0.85964 0.38643 0.78337 0.0
C902 C 0.86196 0.40954 0.78605 0.0
C903 C 0.83797 0.40907 0.78112 0.0
C904 C 0.82749 0.41563 0.79892 0.0
C905 C 0.84171 0.42644 0.764 0.0
C906 C 0.82177 0.38204 0.77547 0.0
C907 C 0.83472 0.36939 0.77669 0.0
C908 C 0.82362 0.34413 0.77255 0.0
C909 C 0.79852 0.33137 0.76717 0.0
C910 C 0.78473 0.34385 0.76608 0.0
C911 C 0.79666 0.36958 0.77018 0.0
H912 H 0.48677 0.89708 0.94445 0.0
H913 H 0.48943 0.8893 0.00678 0.0
H914 H 0.47489 0.84472 0.00279 0.0
H915 H 0.43075 0.83655 0.93636 0.0
H916 H 0.44192 0.83128 0.91377 0.0
H917 H 0.45161 0.86253 0.92147 0.0
H918 H 0.49768 0.87396 0.91853 0.0
H919 H 0.48814 0.84275 0.91091 0.0
H920 H 0.50836 0.85591 0.93153 0.0
H921 H 0.46231 0.80183 0.99226 0.0
H922 H 0.45081 0.76235 0.97574 0.0
H923 H 0.45522 0.79697 0.92015 0.0
C924 C 0.48394 0.8859 0.95725 0.0
C925 C 0.48948 0.89674 0.97592 0.0
C926 C 0.48575 0.88152 0.99231 0.0
C927 C 0.47734 0.85614 0.99022 0.0
C928 C 0.47252 0.84613 0.97164 0.0
C929 C 0.47548 0.86041 0.95543 0.0
C930 C 0.46947 0.84497 0.9371 0.0
C931 C 0.4471 0.84376 0.92656 0.0
C932 C 0.49227 0.855 0.92373 0.0
C933 C 0.463 0.81992 0.94557 0.0
C934 C 0.46489 0.82108 0.96553 0.0
C935 C 0.46064 0.80063 0.97665 0.0
C936 C 0.45429 0.77835 0.96712 0.0
C937 C 0.45221 0.77663 0.94668 0.0
C938 C 0.45646 0.7977 0.93581 0.0
H939 H 0.60319 0.47006 0.12437 0.0
H940 H 0.65257 0.54075 0.15182 0.0
H941 H 0.68827 0.53482 0.14516 0.0
H942 H 0.6342 0.4376 0.14173 0.0
H943 H 0.62938 0.42041 0.11958 0.0
H944 H 0.60762 0.43007 0.12671 0.0
H945 H 0.61399 0.45245 0.09375 0.0
H946 H 0.63586 0.44296 0.08656 0.0
H947 H 0.6449 0.47541 0.0863 0.0
H948 H 0.71853 0.52134 0.13571 0.0
H949 H 0.74159 0.50122 0.12368 0.0
H950 H 0.67278 0.43935 0.10217 0.0
C951 C 0.62149 0.48417 0.12909 0.0
C952 C 0.62515 0.50592 0.13854 0.0
C953 C 0.64942 0.5241 0.14434 0.0
C954 C 0.66978 0.52085 0.14071 0.0
C955 C 0.66559 0.49934 0.13123 0.0
C956 C 0.64209 0.4813 0.12548 0.0
C957 C 0.64282 0.46006 0.11531 0.0
C958 C 0.6276 0.43559 0.1265 0.0
C959 C 0.63386 0.45759 0.09423 0.0
C960 C 0.67038 0.46901 0.11626 0.0
C961 C 0.68315 0.49166 0.12557 0.0
C962 C 0.70875 0.50358 0.1284 0.0
C963 C 0.72166 0.49198 0.1216 0.0
C964 C 0.70898 0.46876 0.112 0.0
C965 C 0.68301 0.45724 0.10926 0.0
H966 H 0.42493 0.88029 0.51728 0.0
H967 H 0.45147 0.91823 0.57233 0.0
H968 H 0.42342 0.87927 0.58958 0.0
H969 H 0.36127 0.84257 0.53111 0.0
H970 H 0.35664 0.81573 0.51766 0.0
H971 H 0.37932 0.84641 0.50962 0.0
H972 H 0.41347 0.8341 0.51041 0.0
H973 H 0.39086 0.80334 0.51837 0.0
H974 H 0.41862 0.82167 0.5324 0.0
H975 H 0.39143 0.83649 0.60083 0.0
H976 H 0.35882 0.79268 0.60525 0.0
H977 H 0.35376 0.78256 0.54284 0.0
C978 C 0.42481 0.88041 0.53296 0.0
C979 C 0.44045 0.90231 0.54346 0.0
C980 C 0.43992 0.90161 0.56398 0.0
C981 C 0.42393 0.87962 0.57391 0.0
C982 C 0.40865 0.85843 0.56312 0.0
C983 C 0.40905 0.8586 0.54311 0.0
C984 C 0.39074 0.83331 0.53496 0.0
C985 C 0.37081 0.83459 0.52261 0.0
C986 C 0.40423 0.82247 0.52335 0.0
C987 C 0.37982 0.81895 0.55352 0.0
C988 C 0.39039 0.83376 0.56961 0.0
C989 C 0.38314 0.82466 0.58834 0.0
C990 C 0.36467 0.7997 0.59071 0.0
C991 C 0.35368 0.78408 0.57442 0.0
C992 C 0.36147 0.79401 0.55561 0.0
H993 H 0.57189 0.44384 0.70994 0.0
H994 H 0.56998 0.43135 0.64797 0.0
H995 H 0.58413 0.40117 0.65329 0.0
H996 H 0.62711 0.43805 0.72006 0.0
H997 H 0.61489 0.42224 0.74275 0.0
H998 H 0.60635 0.44429 0.73405 0.0
H999 H 0.55983 0.41068 0.73651 0.0
H1000 H 0.56822 0.3885 0.74509 0.0
H1001 H 0.54873 0.38155 0.72401 0.0
H1002 H 0.59562 0.37057 0.66515 0.0
H1003 H 0.60523 0.34199 0.68291 0.0
H1004 H 0.60005 0.37395 0.7374 0.0
C1005 C 0.57495 0.4351 0.6975 0.0
C1006 C 0.56979 0.43986 0.67854 0.0
C1007 C 0.57359 0.42777 0.66262 0.0
C1008 C 0.58173 0.41069 0.66549 0.0
C1009 C 0.5861 0.40597 0.68436 0.0
C1010 C 0.58304 0.41789 0.70011 0.0
C1011 C 0.58806 0.40854 0.71892 0.0
C1012 C 0.61044 0.42954 0.72957 0.0
C1013 C 0.56482 0.39661 0.73189 0.0
C1014 C 0.59403 0.38925 0.71125 0.0
C1015 C 0.59285 0.38819 0.69126 0.0
C1016 C 0.59675 0.3713 0.6808 0.0
C1017 C 0.60198 0.35501 0.69103 0.0
C1018 C 0.60326 0.35566 0.71153 0.0
C1019 C 0.59941 0.37318 0.72172 0.0
H1020 H 0.16463 0.58586 0.86692 0.0
H1021 H 0.13623 0.5074 0.85611 0.0
H1022 H 0.17747 0.51281 0.86327 0.0
H1023 H 0.22523 0.60755 0.84559 0.0
H1024 H 0.24139 0.63167 0.86332 0.0
H1025 H 0.20955 0.62174 0.85738 0.0
H1026 H 0.19756 0.61237 0.8936 0.0
H1027 H 0.22935 0.62217 0.89964 0.0
H1028 H 0.2049 0.59166 0.90654 0.0
H1029 H 0.22138 0.52636 0.87133 0.0
H1030 H 0.26585 0.54745 0.87985 0.0
H1031 H 0.2665 0.61734 0.88545 0.0
C1032 C 0.16717 0.56989 0.86597 0.0
C1033 C 0.14714 0.54615 0.86112 0.0
C1034 C 0.15117 0.52566 0.86013 0.0
C1035 C 0.17456 0.52856 0.86406 0.0
C1036 C 0.19381 0.55209 0.86898 0.0
C1037 C 0.19046 0.57243 0.86995 0.0
C1038 C 0.21439 0.59564 0.87565 0.0
C1039 C 0.22315 0.61531 0.85952 0.0
C1040 C 0.21136 0.60607 0.89501 0.0
C1041 C 0.23164 0.5851 0.8777 0.0
C1042 C 0.21933 0.55995 0.87373 0.0
C1043 C 0.23127 0.54606 0.87443 0.0
C1044 C 0.25654 0.55823 0.8792 0.0
C1045 C 0.26965 0.58404 0.88324 0.0
C1046 C 0.25692 0.59756 0.8826 0.0
H1047 H 0.63084 0.15554 0.03028 0.0
H1048 H 0.55994 0.15309 0.03399 0.0
H1049 H 0.58129 0.19628 0.04614 0.0
H1050 H 0.65746 0.19131 0.07377 0.0
H1051 H 0.68825 0.20879 0.06367 0.0
H1052 H 0.66739 0.17771 0.05526 0.0
H1053 H 0.67271 0.19387 0.01998 0.0
H1054 H 0.69365 0.22497 0.02827 0.0
H1055 H 0.66653 0.21861 0.01439 0.0
H1056 H 0.61043 0.23974 0.05788 0.0
H1057 H 0.64533 0.28069 0.0675 0.0
H1058 H 0.69709 0.25453 0.05625 0.0
C1059 C 0.61975 0.16399 0.03382 0.0
C1060 C 0.59369 0.15091 0.03121 0.0
C1061 C 0.57994 0.16283 0.03567 0.0
C1062 C 0.59188 0.18728 0.04271 0.0
C1063 C 0.61756 0.19956 0.0452 0.0
C1064 C 0.63134 0.18834 0.04084 0.0
C1065 C 0.65876 0.20572 0.04452 0.0
C1066 C 0.66853 0.19525 0.06024 0.0
C1067 C 0.67379 0.21111 0.02567 0.0
C1068 C 0.65827 0.22851 0.05163 0.0
C1069 C 0.63433 0.22456 0.05194 0.0
C1070 C 0.62925 0.24305 0.05768 0.0
C1071 C 0.6492 0.26626 0.06303 0.0
C1072 C 0.67393 0.27082 0.0626 0.0
C1073 C 0.67838 0.25153 0.05698 0.0
H1074 H 0.47516 0.62184 0.17927 0.0
H1075 H 0.48749 0.59465 0.23368 0.0
H1076 H 0.47872 0.6238 0.25153 0.0
H1077 H 0.50387 0.68585 0.19304 0.0
H1078 H 0.48182 0.69149 0.18035 0.0
H1079 H 0.48833 0.66796 0.17178 0.0
H1080 H 0.4415 0.63507 0.17358 0.0
H1081 H 0.43483 0.65853 0.18202 0.0
H1082 H 0.42496 0.63065 0.19602 0.0
H1083 H 0.46996 0.65679 0.26344 0.0
H1084 H 0.45999 0.69012 0.26866 0.0
H1085 H 0.45289 0.69551 0.20652 0.0
C1086 C 0.47602 0.62203 0.19494 0.0
C1087 C 0.4819 0.60587 0.20508 0.0
C1088 C 0.48263 0.60655 0.2256 0.0
C1089 C 0.47787 0.62318 0.23587 0.0
C1090 C 0.47236 0.63899 0.22542 0.0
C1091 C 0.47126 0.63847 0.20543 0.0
C1092 C 0.46489 0.65743 0.19771 0.0
C1093 C 0.48599 0.67683 0.18497 0.0
C1094 C 0.44007 0.64465 0.18669 0.0
C1095 C 0.46274 0.66879 0.2165 0.0
C1096 C 0.46716 0.65792 0.23231 0.0
C1097 C 0.46631 0.66535 0.25118 0.0
C1098 C 0.46053 0.68423 0.254 0.0
C1099 C 0.45559 0.69545 0.23803 0.0
C1100 C 0.45689 0.68761 0.21904 0.0
H1101 H 0.89396 0.51048 0.36399 0.0
H1102 H 0.89089 0.43968 0.35644 0.0
H1103 H 0.84715 0.41783 0.36726 0.0
H1104 H 0.85592 0.49368 0.4069 0.0
H1105 H 0.84076 0.51082 0.40007 0.0
H1106 H 0.87188 0.52092 0.39185 0.0
H1107 H 0.85779 0.51921 0.35627 0.0
H1108 H 0.82663 0.50912 0.36439 0.0
H1109 H 0.83218 0.4908 0.34701 0.0
H1110 H 0.80363 0.4037 0.37799 0.0
H1111 H 0.76328 0.39804 0.38845 0.0
H1112 H 0.79485 0.47815 0.38997 0.0
C1113 C 0.88403 0.49038 0.3645 0.0
C1114 C 0.89582 0.47676 0.35938 0.0
C1115 C 0.8823 0.45048 0.3605 0.0
C1116 C 0.85744 0.43791 0.36653 0.0
C1117 C 0.8464 0.4519 0.37148 0.0
C1118 C 0.85924 0.47754 0.37059 0.0
C1119 C 0.84301 0.48812 0.37677 0.0
C1120 C 0.85352 0.50434 0.39498 0.0
C1121 C 0.83971 0.50267 0.36011 0.0
C1122 C 0.81897 0.4644 0.38115 0.0
C1123 C 0.82135 0.44374 0.37798 0.0
C1124 C 0.8016 0.41974 0.3807 0.0
C1125 C 0.77877 0.41675 0.38682 0.0
C1126 C 0.77584 0.43764 0.39029 0.0
C1127 C 0.79634 0.46177 0.38738 0.0
H1128 H 0.08978 0.56644 0.42953 0.0
H1129 H 0.14459 0.59951 0.38373 0.0
H1130 H 0.17824 0.61342 0.40789 0.0
H1131 H 0.12288 0.61456 0.46449 0.0
H1132 H 0.11372 0.59372 0.4849 0.0
H1133 H 0.09388 0.58556 0.46396 0.0
H1134 H 0.09435 0.54426 0.46079 0.0
H1135 H 0.11424 0.55233 0.48172 0.0
H1136 H 0.12367 0.54502 0.45913 0.0
H1137 H 0.20586 0.62368 0.43679 0.0
H1138 H 0.22591 0.63118 0.46876 0.0
H1139 H 0.15333 0.5929 0.49624 0.0
C1140 C 0.10888 0.57643 0.42462 0.0
C1141 C 0.11462 0.58194 0.40477 0.0
C1142 C 0.13981 0.59533 0.39889 0.0
C1143 C 0.15903 0.60317 0.41248 0.0
C1144 C 0.15278 0.59757 0.43193 0.0
C1145 C 0.12834 0.58461 0.43804 0.0
C1146 C 0.12679 0.58176 0.4599 0.0
C1147 C 0.11353 0.59468 0.46883 0.0
C1148 C 0.11401 0.5542 0.46572 0.0
C1149 C 0.15416 0.59517 0.46509 0.0
C1150 C 0.16878 0.60399 0.44871 0.0
C1151 C 0.1946 0.617 0.44974 0.0
C1152 C 0.20582 0.62133 0.46802 0.0
C1153 C 0.19127 0.61287 0.48512 0.0
C1154 C 0.16505 0.59945 0.48351 0.0
H1155 H 0.56096 0.13153 0.57712 0.0
H1156 H 0.57991 0.07488 0.59126 0.0
H1157 H 0.59725 0.09546 0.62239 0.0
H1158 H 0.61431 0.18316 0.59906 0.0
H1159 H 0.59727 0.19738 0.60832 0.0
H1160 H 0.5868 0.17866 0.58671 0.0
H1161 H 0.54366 0.15089 0.60239 0.0
H1162 H 0.55396 0.16958 0.62401 0.0
H1163 H 0.54167 0.13651 0.62551 0.0
H1164 H 0.61285 0.122 0.65184 0.0
H1165 H 0.62458 0.1523 0.67836 0.0
H1166 H 0.59332 0.19049 0.64641 0.0
C1167 C 0.56864 0.12337 0.58678 0.0
C1168 C 0.56938 0.10174 0.58149 0.0
C1169 C 0.5797 0.09178 0.59463 0.0
C1170 C 0.58944 0.10322 0.61247 0.0
C1171 C 0.58858 0.12454 0.61715 0.0
C1172 C 0.57834 0.13448 0.60478 0.0
C1173 C 0.57938 0.15734 0.6136 0.0
C1174 C 0.5954 0.18051 0.60118 0.0
C1175 C 0.5531 0.15333 0.61655 0.0
C1176 C 0.59182 0.15862 0.63281 0.0
C1177 C 0.59703 0.13956 0.63449 0.0
C1178 C 0.60869 0.13691 0.65079 0.0
C1179 C 0.61511 0.15415 0.66586 0.0
C1180 C 0.60972 0.17375 0.66466 0.0
C1181 C 0.59795 0.17593 0.6478 0.0
H1182 H 0.46776 0.54878 0.75218 0.0
H1183 H 0.53076 0.61572 0.72931 0.0
H1184 H 0.52765 0.63989 0.75644 0.0
H1185 H 0.43292 0.57768 0.76839 0.0
H1186 H 0.42141 0.55874 0.78985 0.0
H1187 H 0.4286 0.54675 0.76859 0.0
H1188 H 0.45834 0.53778 0.78886 0.0
H1189 H 0.45134 0.54986 0.81016 0.0
H1190 H 0.4831 0.56262 0.80241 0.0
H1191 H 0.51756 0.65688 0.78597 0.0
H1192 H 0.50133 0.66532 0.81596 0.0
H1193 H 0.44478 0.5874 0.81944 0.0
C1194 C 0.48077 0.56856 0.75278 0.0
C1195 C 0.49956 0.58034 0.73863 0.0
C1196 C 0.51642 0.60622 0.74011 0.0
C1197 C 0.51473 0.62014 0.75541 0.0
C1198 C 0.49609 0.60793 0.76916 0.0
C1199 C 0.4794 0.58273 0.76801 0.0
C1200 C 0.46123 0.57411 0.78476 0.0
C1201 C 0.43446 0.56371 0.77746 0.0
C1202 C 0.46366 0.55496 0.79729 0.0
C1203 C 0.47031 0.59839 0.7955 0.0
C1204 C 0.49039 0.61769 0.78624 0.0
C1205 C 0.50182 0.64192 0.79335 0.0
C1206 C 0.49242 0.64655 0.81034 0.0
C1207 C 0.47184 0.62704 0.82008 0.0
C1208 C 0.46076 0.60266 0.8125 0.0
H1209 H 0.93417 0.4559 0.92157 0.0
H1210 H 0.93393 0.5223 0.90228 0.0
H1211 H 0.90536 0.51739 0.92888 0.0
H1212 H 0.87024 0.42138 0.93611 0.0
H1213 H 0.87622 0.40786 0.95707 0.0
H1214 H 0.89636 0.41629 0.93628 0.0
H1215 H 0.9344 0.44386 0.95796 0.0
H1216 H 0.9144 0.43545 0.97882 0.0
H1217 H 0.93423 0.46773 0.97269 0.0
H1218 H 0.87686 0.50537 0.95762 0.0
H1219 H 0.85076 0.48727 0.98664 0.0
H1220 H 0.87103 0.42979 0.98807 0.0
C1221 C 0.92828 0.46953 0.92299 0.0
C1222 C 0.93622 0.4894 0.90969 0.0
C1223 C 0.92778 0.50664 0.91202 0.0
C1224 C 0.91167 0.50412 0.92717 0.0
C1225 C 0.90419 0.48431 0.93997 0.0
C1226 C 0.91226 0.46735 0.93808 0.0
C1227 C 0.90161 0.44787 0.95391 0.0
C1228 C 0.88513 0.42181 0.94532 0.0
C1229 C 0.9224 0.4488 0.9666 0.0
C1230 C 0.88631 0.45656 0.96499 0.0
C1231 C 0.88802 0.47758 0.95669 0.0
C1232 C 0.87547 0.48897 0.96431 0.0
C1233 C 0.86081 0.47864 0.98089 0.0
C1234 C 0.85886 0.45714 0.98974 0.0
C1235 C 0.87184 0.44604 0.98157 0.0
H1236 H 0.49534 0.95489 0.09623 0.0
H1237 H 0.4577 0.90152 0.05005 0.0
H1238 H 0.43666 0.86835 0.07426 0.0
H1239 H 0.50629 0.91355 0.12613 0.0
H1240 H 0.50163 0.9255 0.14856 0.0
H1241 H 0.51319 0.94534 0.1276 0.0
H1242 H 0.47706 0.95464 0.13039 0.0
H1243 H 0.46528 0.93468 0.15128 0.0
H1244 H 0.44546 0.92923 0.13063 0.0
H1245 H 0.41919 0.84101 0.1033 0.0
H1246 H 0.40823 0.82071 0.13525 0.0
H1247 H 0.45932 0.89103 0.16264 0.0
C1248 C 0.48286 0.93621 0.09115 0.0
C1249 C 0.47801 0.93099 0.07115 0.0
C1250 C 0.46133 0.90623 0.06525 0.0
C1251 C 0.44937 0.88717 0.0789 0.0
C1252 C 0.45441 0.89303 0.09844 0.0
C1253 C 0.4709 0.91687 0.10459 0.0
C1254 C 0.47343 0.91798 0.12647 0.0
C1255 C 0.50023 0.92607 0.13254 0.0
C1256 C 0.46479 0.93515 0.1352 0.0
C1257 C 0.45576 0.89103 0.13163 0.0
C1258 C 0.44489 0.87703 0.11523 0.0
C1259 C 0.42776 0.85173 0.11625 0.0
C1260 C 0.42179 0.84033 0.13449 0.0
C1261 C 0.43307 0.85413 0.15155 0.0
C1262 C 0.45016 0.87992 0.14998 0.0
H1263 H 0.58798 0.50232 0.25131 0.0
H1264 H 0.52871 0.43412 0.22657 0.0
H1265 H 0.5344 0.40995 0.25237 0.0
H1266 H 0.62727 0.47694 0.26592 0.0
H1267 H 0.63726 0.49485 0.28795 0.0
H1268 H 0.62903 0.50675 0.26717 0.0
H1269 H 0.59702 0.51163 0.28796 0.0
H1270 H 0.60503 0.49959 0.30876 0.0
H1271 H 0.57321 0.48507 0.30075 0.0
H1272 H 0.54552 0.39324 0.28133 0.0
H1273 H 0.56175 0.38502 0.31133 0.0
H1274 H 0.61456 0.46389 0.31697 0.0
C1275 C 0.57644 0.48228 0.25117 0.0
C1276 C 0.55782 0.47013 0.23694 0.0
C1277 C 0.54286 0.44388 0.23745 0.0
C1278 C 0.54603 0.42997 0.25199 0.0
C1279 C 0.5643 0.44253 0.26593 0.0
C1280 C 0.57933 0.46808 0.26562 0.0
C1281 C 0.59725 0.47699 0.28257 0.0
C1282 C 0.62431 0.48962 0.27547 0.0
C1283 C 0.59285 0.49434 0.29579 0.0
C1284 C 0.58979 0.45248 0.29251 0.0
C1285 C 0.5708 0.43285 0.28263 0.0
C1286 C 0.56054 0.40844 0.28911 0.0
C1287 C 0.56998 0.40395 0.30613 0.0
C1288 C 0.58953 0.42376 0.31652 0.0
C1289 C 0.59947 0.44834 0.30951 0.0
H1290 H 0.48433 0.95499 0.40219 0.0
H1291 H 0.45675 0.89833 0.44692 0.0
H1292 H 0.44298 0.86578 0.42183 0.0
H1293 H 0.43526 0.92124 0.3679 0.0
H1294 H 0.45535 0.9322 0.34704 0.0
H1295 H 0.46332 0.9511 0.36851 0.0
H1296 H 0.50597 0.95316 0.36979 0.0
H1297 H 0.4981 0.93418 0.34835 0.0
H1298 H 0.50707 0.92473 0.37015 0.0
H1299 H 0.43097 0.83941 0.39213 0.0
H1300 H 0.4222 0.82071 0.35946 0.0
H1301 H 0.45837 0.89425 0.33375 0.0
C1302 C 0.47529 0.93572 0.40667 0.0
C1303 C 0.47162 0.92916 0.4265 0.0
C1304 C 0.45997 0.90376 0.43182 0.0
C1305 C 0.45201 0.88516 0.41768 0.0
C1306 C 0.45598 0.89224 0.39828 0.0
C1307 C 0.46742 0.91689 0.39273 0.0
C1308 C 0.46944 0.9194 0.37085 0.0
C1309 C 0.45498 0.93171 0.36313 0.0
C1310 C 0.49677 0.93371 0.36441 0.0
C1311 C 0.45713 0.89229 0.36499 0.0
C1312 C 0.44947 0.87697 0.38107 0.0
C1313 C 0.43697 0.8512 0.37943 0.0
C1314 C 0.43201 0.84076 0.36085 0.0
C1315 C 0.43964 0.85606 0.34416 0.0
C1316 C 0.45259 0.88217 0.34629 0.0
H1317 H 0.57308 0.46608 0.58145 0.0
H1318 H 0.53954 0.50565 0.55513 0.0
H1319 H 0.55423 0.50109 0.52299 0.0
H1320 H 0.62763 0.49088 0.55037 0.0
H1321 H 0.62763 0.46191 0.54911 0.0
H1322 H 0.61546 0.46919 0.57024 0.0
H1323 H 0.57368 0.4281 0.56611 0.0
H1324 H 0.58574 0.42067 0.54503 0.0
H1325 H 0.55732 0.42167 0.54338 0.0
H1326 H 0.57213 0.4921 0.49383 0.0
H1327 H 0.5902 0.47728 0.46907 0.0
H1328 H 0.6108 0.44194 0.51395 0.0
C1329 C 0.56905 0.47395 0.56891 0.0
C1330 C 0.55518 0.48621 0.57072 0.0
C1331 C 0.54995 0.49599 0.554 0.0
C1332 C 0.55835 0.49364 0.53572 0.0
C1333 C 0.57187 0.48137 0.5344 0.0
C1334 C 0.57709 0.47154 0.55049 0.0
C1335 C 0.59105 0.45828 0.54488 0.0
C1336 C 0.61698 0.47082 0.55421 0.0
C1337 C 0.57604 0.43054 0.55016 0.0
C1338 C 0.59273 0.46208 0.52312 0.0
C1339 C 0.58173 0.47565 0.51743 0.0
C1340 C 0.58071 0.48137 0.49808 0.0
C1341 C 0.59089 0.47271 0.48411 0.0
C1342 C 0.60178 0.45825 0.48948 0.0
C1343 C 0.60289 0.45316 0.50933 0.0
H1344 H 0.09365 0.55991 0.73643 0.0
H1345 H 0.1449 0.5568 0.77758 0.0
H1346 H 0.17767 0.57314 0.75262 0.0
H1347 H 0.11452 0.54189 0.69464 0.0
H1348 H 0.11111 0.56274 0.67845 0.0
H1349 H 0.09164 0.55089 0.69957 0.0
H1350 H 0.10604 0.59587 0.71079 0.0
H1351 H 0.12558 0.60787 0.6897 0.0
H1352 H 0.13876 0.61762 0.71353 0.0
H1353 H 0.20466 0.58905 0.72315 0.0
H1354 H 0.22416 0.60371 0.69108 0.0
H1355 H 0.15592 0.59777 0.66929 0.0
C1356 C 0.11183 0.5629 0.74029 0.0
C1357 C 0.1166 0.55691 0.759 0.0
C1358 C 0.1406 0.5608 0.76329 0.0
C1359 C 0.15942 0.57027 0.74925 0.0
C1360 C 0.15405 0.57592 0.731 0.0
C1361 C 0.13088 0.57246 0.72648 0.0
C1362 C 0.12995 0.57987 0.70571 0.0
C1363 C 0.11066 0.55751 0.6939 0.0
C1364 C 0.12478 0.6016 0.70489 0.0
C1365 C 0.15618 0.5879 0.69921 0.0
C1366 C 0.16975 0.58545 0.71404 0.0
C1367 C 0.19424 0.5911 0.71145 0.0
C1368 C 0.20511 0.5993 0.69317 0.0
C1369 C 0.19154 0.60184 0.67772 0.0
C1370 C 0.16682 0.59626 0.68089 0.0
H1371 H 0.56408 0.09393 0.89863 0.0
H1372 H 0.58497 0.14722 0.94545 0.0
H1373 H 0.59556 0.18079 0.92163 0.0
H1374 H 0.61303 0.13426 0.86624 0.0
H1375 H 0.59417 0.12265 0.84476 0.0
H1376 H 0.58747 0.10274 0.86552 0.0
H1377 H 0.54232 0.09463 0.86605 0.0
H1378 H 0.54892 0.11459 0.84532 0.0
H1379 H 0.53702 0.12059 0.86722 0.0
H1380 H 0.60332 0.2084 0.89275 0.0
H1381 H 0.61084 0.22876 0.86073 0.0
H1382 H 0.58616 0.15778 0.83262 0.0
C1383 C 0.57077 0.11266 0.90383 0.0
C1384 C 0.57369 0.11803 0.92386 0.0
C1385 C 0.58279 0.14279 0.93015 0.0
C1386 C 0.5887 0.16192 0.91674 0.0
C1387 C 0.58558 0.15601 0.89709 0.0
C1388 C 0.57705 0.13204 0.89062 0.0
C1389 C 0.57626 0.13085 0.86869 0.0
C1390 C 0.59378 0.12211 0.86085 0.0
C1391 C 0.54954 0.11418 0.8614 0.0
C1392 C 0.58569 0.1579 0.86384 0.0
C1393 C 0.5907 0.17205 0.88043 0.0
C1394 C 0.59947 0.19752 0.87965 0.0
C1395 C 0.60353 0.20889 0.86142 0.0
C1396 C 0.59906 0.19485 0.84422 0.0
C1397 C 0.58988 0.16899 0.84553 0.0
H1398 H 0.50297 0.59508 0.07382 0.0
H1399 H 0.43877 0.52382 0.08839 0.0
H1400 H 0.41654 0.52708 0.06003 0.0
H1401 H 0.46956 0.62449 0.05651 0.0
H1402 H 0.49089 0.64064 0.03699 0.0
H1403 H 0.50177 0.63306 0.0587 0.0
H1404 H 0.51874 0.60981 0.03827 0.0
H1405 H 0.50798 0.6174 0.01649 0.0
H1406 H 0.49815 0.58545 0.02203 0.0
H1407 H 0.40105 0.538 0.03021 0.0
H1408 H 0.39368 0.55554 1.00061 0.0
H1409 H 0.46864 0.61862 0.00428 0.0
C1410 C 0.4843 0.58006 0.071 0.0
C1411 C 0.47259 0.5593 0.08355 0.0
C1412 C 0.44802 0.54019 0.07933 0.0
C1413 C 0.43526 0.54176 0.06314 0.0
C1414 C 0.44731 0.56248 0.05117 0.0
C1415 C 0.47131 0.58125 0.05483 0.0
C1416 C 0.48006 0.60137 0.03949 0.0
C1417 C 0.48591 0.62637 0.04846 0.0
C1418 C 0.50256 0.60363 0.02841 0.0
C1419 C 0.45721 0.59097 0.02668 0.0
C1420 C 0.43853 0.56855 0.03372 0.0
C1421 C 0.4156 0.55546 0.02448 0.0
C1422 C 0.41166 0.56552 0.00757 0.0
C1423 C 0.43059 0.58843 0.99995 0.0
C1424 C 0.45365 0.60123 0.00975 0.0
H1425 H 0.91267 0.46876 0.25553 0.0
H1426 H 0.98164 0.52171 0.2274 0.0
H1427 H 0.96204 0.50694 0.19552 0.0
H1428 H 0.89578 0.41883 0.22069 0.0
H1429 H 0.86304 0.40845 0.22174 0.0
H1430 H 0.88244 0.423 0.24256 0.0
H1431 H 0.86806 0.45558 0.24327 0.0
H1432 H 0.84865 0.44115 0.22245 0.0
H1433 H 0.87163 0.47373 0.22188 0.0
H1434 H 0.93511 0.48764 0.16679 0.0
H1435 H 0.90233 0.46481 0.14274 0.0
H1436 H 0.85095 0.42249 0.18896 0.0
C1437 C 0.9237 0.47711 0.24267 0.0
C1438 C 0.94865 0.49663 0.24403 0.0
C1439 C 0.96235 0.50714 0.2268 0.0
C1440 C 0.95146 0.49873 0.20858 0.0
C1441 C 0.92686 0.47964 0.20776 0.0
C1442 C 0.91311 0.46887 0.22429 0.0
C1443 C 0.88689 0.44878 0.21921 0.0
C1444 C 0.88174 0.42325 0.22648 0.0
C1445 C 0.86768 0.45521 0.22718 0.0
C1446 C 0.88806 0.45016 0.19726 0.0
C1447 C 0.91133 0.46806 0.19102 0.0
C1448 C 0.91688 0.47334 0.17147 0.0
C1449 C 0.89811 0.46004 0.15788 0.0
C1450 C 0.87401 0.4415 0.16381 0.0
C1451 C 0.86908 0.43652 0.18385 0.0
loop_
_geom_bond_atom_site_label_1
_geom_bond_atom_site_label_2
_geom_bond_distance
_geom_bond_site_symmetry_2
_ccdc_geom_bond_type
C0 C1 1.384 . S
C0 C2 1.384 . S
C0 H28 0.931 . S
C1 C0 1.384 . S
C1 C4 1.382 . S
C2 C0 1.384 . S
C2 C3 1.381 . S
C2 H29 0.930 . S
C3 C2 1.381 . S
C3 C5 1.381 . S
C3 C6 1.487 . S
C4 C1 1.382 . S
C4 C5 1.387 . S
C4 H30 0.930 . S
C5 C3 1.381 . S
C5 C4 1.387 . S
C5 H31 0.931 . S
C6 C3 1.487 . S
C6 C13 1.399 1_655 S
C6 N44 1.343 1_655 S
C7 C8 1.384 . S
C7 C9 1.384 . S
C7 H32 0.931 . S
C8 C7 1.384 . S
C8 C11 1.382 . S
C9 C7 1.384 . S
C9 C10 1.381 . S
C9 H33 0.930 . S
C10 C9 1.381 . S
C10 C12 1.381 . S
C10 C13 1.487 1_655 S
C11 C8 1.382 . S
C11 C12 1.387 . S
C11 H34 0.930 . S
C12 C10 1.381 . S
C12 C11 1.387 . S
C12 H35 0.931 1_655 S
C13 C6 1.399 1_455 S
C13 C10 1.487 1_455 S
C13 N45 1.343 . S
C14 C15 1.384 . S
C14 C16 1.384 . S
C14 H36 0.931 . S
C15 C14 1.384 . S
C15 C18 1.382 . S
C16 C14 1.384 . S
C16 C17 1.381 . S
C16 H37 0.930 . S
C17 C16 1.381 . S
C17 C19 1.381 . S
C17 C20 1.487 . S
C18 C15 1.382 . S
C18 C19 1.387 . S
C18 H38 0.930 . S
C19 C17 1.381 . S
C19 C18 1.387 . S
C19 H39 0.931 . S
C20 C17 1.487 . S
C20 C27 1.399 . S
C20 N45 1.343 . S
C21 C22 1.384 . S
C21 C23 1.384 . S
C21 H40 0.931 . S
C22 C21 1.384 . S
C22 C25 1.382 . S
C23 C21 1.384 . S
C23 C24 1.381 . S
C23 H41 0.930 . S
C24 C23 1.381 . S
C24 C26 1.381 . S
C24 C27 1.487 . S
C25 C22 1.382 . S
C25 C26 1.387 . S
C25 H42 0.930 . S
C26 C24 1.381 . S
C26 C25 1.387 . S
C26 H43 0.931 . S
C27 C20 1.399 . S
C27 C24 1.487 . S
C27 N44 1.343 . S
H28 C0 0.931 . S
H29 C2 0.930 . S
H30 C4 0.930 . S
H31 C5 0.931 . S
H32 C7 0.931 . S
H33 C9 0.930 . S
H34 C11 0.930 . S
H35 C12 0.931 1_455 S
H36 C14 0.931 . S
H37 C16 0.930 . S
H38 C18 0.930 . S
H39 C19 0.931 . S
H40 C21 0.931 . S
H41 C23 0.930 . S
H42 C25 0.930 . S
H43 C26 0.931 . S
N44 C6 1.343 1_455 S
N44 C27 1.343 . S
N45 C13 1.343 . S
N45 C20 1.343 . S
C46 C47 1.384 . S
C46 C48 1.384 . S
C46 H74 0.931 . S
C47 C46 1.384 . S
C47 C50 1.382 . S
C48 C46 1.384 . S
C48 C49 1.381 . S
C48 H75 0.930 . S
C49 C48 1.381 . S
C49 C51 1.381 . S
C49 C52 1.487 . S
C50 C47 1.382 . S
C50 C51 1.387 . S
C50 H76 0.930 . S
C51 C49 1.381 . S
C51 C50 1.387 . S
C51 H77 0.931 . S
C52 C49 1.487 . S
C52 C59 1.399 1_565 S
C52 N90 1.343 1_565 S
C53 C54 1.384 . S
C53 C55 1.384 . S
C53 H78 0.931 . S
C54 C53 1.384 . S
C54 C57 1.382 . S
C55 C53 1.384 . S
C55 C56 1.381 . S
C55 H79 0.930 . S
C56 C55 1.381 . S
C56 C58 1.381 . S
C56 C59 1.487 1_565 S
C57 C54 1.382 . S
C57 C58 1.387 . S
C57 H80 0.930 . S
C58 C56 1.381 . S
C58 C57 1.387 . S
C58 H81 0.931 1_565 S
C59 C52 1.399 1_545 S
C59 C56 1.487 1_545 S
C59 N91 1.343 . S
C60 C61 1.384 . S
C60 C62 1.384 . S
C60 H82 0.931 . S
C61 C60 1.384 . S
C61 C64 1.382 . S
C62 C60 1.384 . S
C62 C63 1.381 . S
C62 H83 0.930 . S
C63 C62 1.381 . S
C63 C65 1.381 . S
C63 C66 1.487 . S
C64 C61 1.382 . S
C64 C65 1.387 . S
C64 H84 0.930 . S
C65 C63 1.381 . S
C65 C64 1.387 . S
C65 H85 0.931 . S
C66 C63 1.487 . S
C66 C73 1.399 . S
C66 N91 1.343 . S
C67 C68 1.384 . S
C67 C69 1.384 . S
C67 H86 0.931 . S
C68 C67 1.384 . S
C68 C71 1.382 . S
C69 C67 1.384 . S
C69 C70 1.381 . S
C69 H87 0.930 . S
C70 C69 1.381 . S
C70 C72 1.381 . S
C70 C73 1.487 . S
C71 C68 1.382 . S
C71 C72 1.387 . S
C71 H88 0.930 . S
C72 C70 1.381 . S
C72 C71 1.387 . S
C72 H89 0.931 . S
C73 C66 1.399 . S
C73 C70 1.487 . S
C73 N90 1.343 . S
H74 C46 0.931 . S
H75 C48 0.930 . S
H76 C50 0.930 . S
H77 C51 0.931 . S
H78 C53 0.931 . S
H79 C55 0.930 . S
H80 C57 0.930 . S
H81 C58 0.931 1_545 S
H82 C60 0.931 . S
H83 C62 0.930 . S
H84 C64 0.930 . S
H85 C65 0.931 . S
H86 C67 0.931 . S
H87 C69 0.930 . S
H88 C71 0.930 . S
H89 C72 0.931 . S
N90 C52 1.343 1_545 S
N90 C73 1.343 . S
N91 C59 1.343 . S
N91 C66 1.343 . S
C92 C93 1.384 . S
C92 C94 1.384 . S
C92 H120 0.931 . S
C93 C92 1.384 . S
C93 C96 1.382 . S
C94 C92 1.384 . S
C94 C95 1.381 . S
C94 H121 0.930 . S
C95 C94 1.381 . S
C95 C97 1.381 . S
C95 C98 1.487 . S
C96 C93 1.382 . S
C96 C97 1.387 . S
C96 H122 0.930 . S
C97 C95 1.381 . S
C97 C96 1.387 . S
C97 H123 0.931 . S
C98 C95 1.487 . S
C98 C105 1.399 . S
C98 N136 1.343 . S
C99 C100 1.384 . S
C99 C101 1.384 . S
C99 H124 0.931 . S
C100 C99 1.384 . S
C100 C103 1.382 . S
C101 C99 1.384 . S
C101 C102 1.381 . S
C101 H125 0.930 . S
C102 C101 1.381 . S
C102 C104 1.381 . S
C102 C105 1.487 . S
C103 C100 1.382 . S
C103 C104 1.387 . S
C103 H126 0.930 . S
C104 C102 1.381 . S
C104 C103 1.387 . S
C104 H127 0.931 . S
C105 C98 1.399 . S
C105 C102 1.487 . S
C105 N137 1.343 . S
C106 C107 1.384 . S
C106 C108 1.384 . S
C106 H128 0.931 . S
C107 C106 1.384 . S
C107 C110 1.382 . S
C108 C106 1.384 . S
C108 C109 1.381 . S
C108 H129 0.930 . S
C109 C108 1.381 . S
C109 C111 1.381 . S
C109 C112 1.487 . S
C110 C107 1.382 . S
C110 C111 1.387 . S
C110 H130 0.930 . S
C111 C109 1.381 . S
C111 C110 1.387 . S
C111 H131 0.931 . S
C112 C109 1.487 . S
C112 C119 1.399 . S
C112 N137 1.343 . S
C113 C114 1.384 . S
C113 C115 1.384 . S
C113 H132 0.931 . S
C114 C113 1.384 . S
C114 C117 1.382 . S
C115 C113 1.384 . S
C115 C116 1.381 . S
C115 H133 0.930 . S
C116 C115 1.381 . S
C116 C118 1.381 . S
C116 C119 1.487 . S
C117 C114 1.382 . S
C117 C118 1.387 . S
C117 H134 0.930 . S
C118 C116 1.381 . S
C118 C117 1.387 . S
C118 H135 0.931 . S
C119 C112 1.399 . S
C119 C116 1.487 . S
C119 N136 1.343 . S
H120 C92 0.931 . S
H121 C94 0.930 . S
H122 C96 0.930 . S
H123 C97 0.931 . S
H124 C99 0.931 . S
H125 C101 0.930 . S
H126 C103 0.930 . S
H127 C104 0.931 . S
H128 C106 0.931 . S
H129 C108 0.930 . S
H130 C110 0.930 . S
H131 C111 0.931 . S
H132 C113 0.931 . S
H133 C115 0.930 . S
H134 C117 0.930 . S
H135 C118 0.931 . S
N136 C98 1.343 . S
N136 C119 1.343 . S
N137 C105 1.343 . S
N137 C112 1.343 . S
C138 C139 1.384 . S
C138 C140 1.384 . S
C138 H166 0.931 . S
C139 C138 1.384 . S
C139 C142 1.382 . S
C140 C138 1.384 . S
C140 C141 1.381 . S
C140 H167 0.930 . S
C141 C140 1.381 . S
C141 C143 1.381 . S
C141 C144 1.487 . S
C142 C139 1.382 . S
C142 C143 1.387 . S
C142 H168 0.930 . S
C143 C141 1.381 . S
C143 C142 1.387 . S
C143 H169 0.931 . S
C144 C141 1.487 . S
C144 C151 1.399 1_655 S
C144 N182 1.343 1_655 S
C145 C146 1.384 . S
C145 C147 1.384 . S
C145 H170 0.931 . S
C146 C145 1.384 . S
C146 C149 1.382 . S
C147 C145 1.384 . S
C147 C148 1.381 . S
C147 H171 0.930 . S
C148 C147 1.381 . S
C148 C150 1.381 . S
C148 C151 1.487 1_655 S
C149 C146 1.382 . S
C149 C150 1.387 . S
C149 H172 0.930 . S
C150 C148 1.381 . S
C150 C149 1.387 . S
C150 H173 0.931 1_655 S
C151 C144 1.399 1_455 S
C151 C148 1.487 1_455 S
C151 N183 1.343 . S
C152 C153 1.384 . S
C152 C154 1.384 . S
C152 H174 0.931 . S
C153 C152 1.384 . S
C153 C156 1.382 . S
C154 C152 1.384 . S
C154 C155 1.381 . S
C154 H175 0.930 . S
C155 C154 1.381 . S
C155 C157 1.381 . S
C155 C158 1.487 . S
C156 C153 1.382 . S
C156 C157 1.387 . S
C156 H176 0.930 . S
C157 C155 1.381 . S
C157 C156 1.387 . S
C157 H177 0.931 . S
C158 C155 1.487 . S
C158 C165 1.399 . S
C158 N183 1.343 . S
C159 C160 1.384 . S
C159 C161 1.384 . S
C159 H178 0.931 . S
C160 C159 1.384 . S
C160 C163 1.382 . S
C161 C159 1.384 . S
C161 C162 1.381 . S
C161 H179 0.930 . S
C162 C161 1.381 . S
C162 C164 1.381 . S
C162 C165 1.487 . S
C163 C160 1.382 . S
C163 C164 1.387 . S
C163 H180 0.930 . S
C164 C162 1.381 . S
C164 C163 1.387 . S
C164 H181 0.931 . S
C165 C158 1.399 . S
C165 C162 1.487 . S
C165 N182 1.343 . S
H166 C138 0.931 . S
H167 C140 0.930 . S
H168 C142 0.930 . S
H169 C143 0.931 . S
H170 C145 0.931 . S
H171 C147 0.930 . S
H172 C149 0.930 . S
H173 C150 0.931 1_455 S
H174 C152 0.931 . S
H175 C154 0.930 . S
H176 C156 0.930 . S
H177 C157 0.931 . S
H178 C159 0.931 . S
H179 C161 0.930 . S
H180 C163 0.930 . S
H181 C164 0.931 . S
N182 C144 1.343 1_455 S
N182 C165 1.343 . S
N183 C151 1.343 . S
N183 C158 1.343 . S
C184 C185 1.384 . S
C184 C186 1.384 . S
C184 H212 0.931 . S
C185 C184 1.384 . S
C185 C188 1.382 . S
C186 C184 1.384 . S
C186 C187 1.381 . S
C186 H213 0.930 1_556 S
C187 C186 1.381 . S
C187 C189 1.381 . S
C187 C190 1.487 . S
C188 C185 1.382 . S
C188 C189 1.387 . S
C188 H214 0.930 . S
C189 C187 1.381 . S
C189 C188 1.387 . S
C189 H215 0.931 . S
C190 C187 1.487 . S
C190 C197 1.399 1_566 S
C190 N228 1.343 1_565 S
C191 C192 1.384 . S
C191 C193 1.384 . S
C191 H216 0.931 . S
C192 C191 1.384 . S
C192 C195 1.382 . S
C193 C191 1.384 . S
C193 C194 1.381 . S
C193 H217 0.930 . S
C194 C193 1.381 . S
C194 C196 1.381 . S
C194 C197 1.487 1_565 S
C195 C192 1.382 . S
C195 C196 1.387 . S
C195 H218 0.930 . S
C196 C194 1.381 . S
C196 C195 1.387 . S
C196 H219 0.931 1_565 S
C197 C190 1.399 1_544 S
C197 C194 1.487 1_545 S
C197 N229 1.343 . S
C198 C199 1.384 . S
C198 C200 1.384 1_554 S
C198 H220 0.938 . S
C199 C198 1.384 . S
C199 C202 1.382 . S
C200 C198 1.384 1_556 S
C200 C201 1.381 1_556 S
C200 H221 0.930 . S
C201 C200 1.381 1_554 S
C201 C203 1.381 . S
C201 C204 1.474 1_554 S
C202 C199 1.382 . S
C202 C203 1.387 . S
C202 H222 0.930 . S
C203 C201 1.381 . S
C203 C202 1.387 . S
C203 H223 0.931 . S
C204 C201 1.474 1_556 S
C204 C211 1.445 . S
C204 N229 1.307 1_556 S
C205 C206 1.384 . S
C205 C207 1.384 . S
C205 H224 0.931 . S
C206 C205 1.384 . S
C206 C209 1.382 . S
C207 C205 1.384 . S
C207 C208 1.381 . S
C207 H225 0.930 . S
C208 C207 1.381 . S
C208 C210 1.381 . S
C208 C211 1.487 . S
C209 C206 1.382 . S
C209 C210 1.387 . S
C209 H226 0.930 . S
C210 C208 1.381 . S
C210 C209 1.387 . S
C210 H227 0.931 . S
C211 C204 1.445 . S
C211 C208 1.487 . S
C211 N228 1.343 . S
H212 C184 0.931 . S
H213 C186 0.930 1_554 S
H214 C188 0.930 . S
H215 C189 0.931 . S
H216 C191 0.931 . S
H217 C193 0.930 . S
H218 C195 0.930 . S
H219 C196 0.931 1_545 S
H220 C198 0.938 . S
H221 C200 0.930 . S
H222 C202 0.930 . S
H223 C203 0.931 . S
H224 C205 0.931 . S
H225 C207 0.930 . S
H226 C209 0.930 . S
H227 C210 0.931 . S
N228 C190 1.343 1_545 S
N228 C211 1.343 . S
N229 C197 1.343 . S
N229 C204 1.307 1_554 S
C230 C231 1.384 . S
C230 C232 1.384 . S
C230 H258 0.931 . S
C231 C230 1.384 . S
C231 C234 1.382 . S
C232 C230 1.384 . S
C232 C233 1.381 . S
C232 H259 0.930 . S
C233 C232 1.381 . S
C233 C235 1.381 . S
C233 C236 1.487 . S
C234 C231 1.382 . S
C234 C235 1.387 . S
C234 H260 0.930 . S
C235 C233 1.381 . S
C235 C234 1.387 . S
C235 H261 0.931 . S
C236 C233 1.487 . S
C236 C243 1.399 . S
C236 N274 1.343 . S
C237 C238 1.384 . S
C237 C239 1.384 . S
C237 H262 0.931 . S
C238 C237 1.384 . S
C238 C241 1.382 . S
C239 C237 1.384 . S
C239 C240 1.381 . S
C239 H263 0.930 . S
C240 C239 1.381 . S
C240 C242 1.381 . S
C240 C243 1.487 . S
C241 C238 1.382 . S
C241 C242 1.387 . S
C241 H264 0.930 . S
C242 C240 1.381 . S
C242 C241 1.387 . S
C242 H265 0.931 . S
C243 C236 1.399 . S
C243 C240 1.487 . S
C243 N275 1.343 . S
C244 C245 1.384 . S
C244 C246 1.384 . S
C244 H266 0.931 . S
C245 C244 1.384 . S
C245 C248 1.382 . S
C246 C244 1.384 . S
C246 C247 1.381 . S
C246 H267 0.930 . S
C247 C246 1.381 . S
C247 C249 1.381 . S
C247 C250 1.487 . S
C248 C245 1.382 . S
C248 C249 1.387 . S
C248 H268 0.930 . S
C249 C247 1.381 . S
C249 C248 1.387 . S
C249 H269 0.931 . S
C250 C247 1.487 . S
C250 C257 1.399 . S
C250 N275 1.343 . S
C251 C252 1.384 . S
C251 C253 1.384 . S
C251 H270 0.931 . S
C252 C251 1.384 . S
C252 C255 1.382 . S
C253 C251 1.384 . S
C253 C254 1.381 . S
C253 H271 0.930 . S
C254 C253 1.381 . S
C254 C256 1.381 . S
C254 C257 1.487 . S
C255 C252 1.382 . S
C255 C256 1.387 . S
C255 H272 0.930 . S
C256 C254 1.381 . S
C256 C255 1.387 . S
C256 H273 0.931 . S
C257 C250 1.399 . S
C257 C254 1.487 . S
C257 N274 1.343 . S
H258 C230 0.931 . S
H259 C232 0.930 . S
H260 C234 0.930 . S
H261 C235 0.931 . S
H262 C237 0.931 . S
H263 C239 0.930 . S
H264 C241 0.930 . S
H265 C242 0.931 . S
H266 C244 0.931 . S
H267 C246 0.930 . S
H268 C248 0.930 . S
H269 C249 0.931 . S
H270 C251 0.931 . S
H271 C253 0.930 . S
H272 C255 0.930 . S
H273 C256 0.931 . S
N274 C236 1.343 . S
N274 C257 1.343 . S
N275 C243 1.343 . S
N275 C250 1.343 . S
Li276 N293 1.990 . S
Li276 O336 1.956 . S
Li276 O337 1.970 . S
Li276 O338 1.961 . S
Li277 N301 1.990 . S
Li277 O336 1.970 . S
Li277 O337 1.956 . S
Li277 O339 1.961 . S
Li278 N323 1.990 . S
Li278 O336 1.961 . S
Li278 O338 1.956 . S
Li278 O339 1.970 . S
Li279 N329 1.990 . S
Li279 O337 1.961 . S
Li279 O338 1.970 . S
Li279 O339 1.956 . S
C280 C282 1.348 . S
C280 C283 1.356 . S
C280 O336 1.325 . S
N281 C284 1.314 . S
N281 C285 1.279 . S
C282 C280 1.348 . S
C282 C284 1.353 . S
C282 H340 0.929 . S
C283 C280 1.356 . S
C283 C285 1.358 . S
C283 H341 0.930 . S
C284 N281 1.314 . S
C284 C282 1.353 . S
C284 H342 0.930 . S
C285 N281 1.279 . S
C285 C283 1.358 . S
C285 H343 0.930 . S
C286 C289 1.348 . S
C286 C290 1.356 . S
C286 O337 1.325 . S
C287 N288 1.279 . S
C287 C290 1.358 . S
C287 H344 0.930 . S
N288 C287 1.279 . S
N288 C291 1.314 . S
C289 C286 1.348 . S
C289 C291 1.353 . S
C289 H345 0.929 . S
C290 C286 1.356 . S
C290 C287 1.358 . S
C290 H346 0.930 . S
C291 N288 1.314 . S
C291 C289 1.353 . S
C291 H347 0.930 . S
C292 N293 1.314 . S
C292 C297 1.353 . S
C292 H298 0.930 . S
N293 Li276 1.990 . S
N293 C292 1.314 . S
N293 C295 1.279 . S
C294 C295 1.358 . S
C294 C296 1.356 . S
C294 H348 0.930 . S
C295 N293 1.279 . S
C295 C294 1.358 . S
C295 H299 0.930 . S
C296 C294 1.356 . S
C296 C297 1.348 . S
C297 C292 1.353 . S
C297 C296 1.348 . S
C297 H349 0.929 . S
H298 C292 0.930 . S
H299 C295 0.930 . S
C300 N301 1.314 . S
C300 C302 1.353 . S
C300 H306 0.930 . S
N301 Li277 1.990 . S
N301 C300 1.314 . S
N301 C304 1.279 . S
C302 C300 1.353 . S
C302 C305 1.348 . S
C302 H350 0.929 . S
C303 C304 1.358 . S
C303 C305 1.356 . S
C303 H351 0.930 . S
C304 N301 1.279 . S
C304 C303 1.358 . S
C304 H307 0.930 . S
C305 C302 1.348 . S
C305 C303 1.356 . S
H306 C300 0.930 . S
H307 C304 0.930 . S
C308 C310 1.348 . S
C308 C311 1.356 . S
C308 O338 1.325 . S
N309 C312 1.314 . S
N309 C313 1.279 . S
C310 C308 1.348 . S
C310 C312 1.353 . S
C310 H352 0.929 . S
C311 C308 1.356 . S
C311 C313 1.358 . S
C311 H353 0.930 . S
C312 N309 1.314 . S
C312 C310 1.353 . S
C312 H354 0.930 . S
C313 N309 1.279 . S
C313 C311 1.358 . S
C313 H355 0.930 . S
C314 C315 1.348 . S
C314 C316 1.356 . S
C314 O339 1.325 . S
C315 C314 1.348 . S
C315 C317 1.353 . S
C315 H356 0.929 . S
C316 C314 1.356 . S
C316 C318 1.358 . S
C316 H357 0.930 . S
C317 C315 1.353 . S
C317 N319 1.314 . S
C317 H358 0.930 . S
C318 C316 1.358 . S
C318 N319 1.279 . S
C318 H359 0.930 . S
N319 C317 1.314 . S
N319 C318 1.279 . S
C320 C322 1.353 . S
C320 N323 1.314 . S
C320 H326 0.930 . S
C321 N323 1.279 . S
C321 C324 1.358 . S
C321 H327 0.930 . S
C322 C320 1.353 . S
C322 C325 1.348 . S
C322 H360 0.929 . S
N323 Li278 1.990 . S
N323 C320 1.314 . S
N323 C321 1.279 . S
C324 C321 1.358 . S
C324 C325 1.356 . S
C324 H361 0.930 . S
C325 C322 1.348 . S
C325 C324 1.356 . S
H326 C320 0.930 . S
H327 C321 0.930 . S
C328 N329 1.314 . S
C328 C330 1.353 . S
C328 H334 0.930 . S
N329 Li279 1.990 . S
N329 C328 1.314 . S
N329 C332 1.279 . S
C330 C328 1.353 . S
C330 C333 1.348 . S
C330 H362 0.929 . S
C331 C332 1.358 . S
C331 C333 1.356 . S
C331 H363 0.930 . S
C332 N329 1.279 . S
C332 C331 1.358 . S
C332 H335 0.930 . S
C333 C330 1.348 . S
C333 C331 1.356 . S
H334 C328 0.930 . S
H335 C332 0.930 . S
O336 Li276 1.956 . S
O336 Li277 1.970 . S
O336 Li278 1.961 . S
O336 C280 1.325 . S
O337 Li276 1.970 . S
O337 Li277 1.956 . S
O337 Li279 1.961 . S
O337 C286 1.325 . S
O338 Li276 1.961 . S
O338 Li278 1.956 . S
O338 Li279 1.970 . S
O338 C308 1.325 . S
O339 Li277 1.961 . S
O339 Li278 1.970 . S
O339 Li279 1.956 . S
O339 C314 1.325 . S
H340 C282 0.929 . S
H341 C283 0.930 . S
H342 C284 0.930 . S
H343 C285 0.930 . S
H344 C287 0.930 . S
H345 C289 0.929 . S
H346 C290 0.930 . S
H347 C291 0.930 . S
H348 C294 0.930 . S
H349 C297 0.929 . S
H350 C302 0.929 . S
H351 C303 0.930 . S
H352 C310 0.929 . S
H353 C311 0.930 . S
H354 C312 0.930 . S
H355 C313 0.930 . S
H356 C315 0.929 . S
H357 C316 0.930 . S
H358 C317 0.930 . S
H359 C318 0.930 . S
H360 C322 0.929 . S
H361 C324 0.930 . S
H362 C330 0.929 . S
H363 C331 0.930 . S
Li364 N381 1.990 . S
Li364 O424 1.956 . S
Li364 O425 1.970 . S
Li364 O426 1.961 . S
Li365 N389 1.990 . S
Li365 O424 1.970 . S
Li365 O425 1.956 . S
Li365 O427 1.961 . S
Li366 N411 1.990 . S
Li366 O424 1.961 . S
Li366 O426 1.956 . S
Li366 O427 1.970 . S
Li367 N417 1.990 . S
Li367 O425 1.961 . S
Li367 O426 1.970 . S
Li367 O427 1.956 . S
C368 C370 1.348 . S
C368 C371 1.356 . S
C368 O424 1.325 . S
N369 C372 1.314 . S
N369 C373 1.279 . S
C370 C368 1.348 . S
C370 C372 1.353 . S
C370 H428 0.929 . S
C371 C368 1.356 . S
C371 C373 1.358 . S
C371 H429 0.930 . S
C372 N369 1.314 . S
C372 C370 1.353 . S
C372 H430 0.930 . S
C373 N369 1.279 . S
C373 C371 1.358 . S
C373 H431 0.930 . S
C374 C377 1.348 . S
C374 C378 1.356 . S
C374 O425 1.325 . S
C375 N376 1.279 . S
C375 C378 1.358 . S
C375 H432 0.930 . S
N376 C375 1.279 . S
N376 C379 1.314 . S
C377 C374 1.348 . S
C377 C379 1.353 . S
C377 H433 0.929 . S
C378 C374 1.356 . S
C378 C375 1.358 . S
C378 H434 0.930 . S
C379 N376 1.314 . S
C379 C377 1.353 . S
C379 H435 0.930 . S
C380 N381 1.314 . S
C380 C385 1.353 . S
C380 H386 0.930 . S
N381 Li364 1.990 . S
N381 C380 1.314 . S
N381 C383 1.279 . S
C382 C383 1.358 . S
C382 C384 1.356 . S
C382 H436 0.930 . S
C383 N381 1.279 . S
C383 C382 1.358 . S
C383 H387 0.930 . S
C384 C382 1.356 . S
C384 C385 1.348 . S
C385 C380 1.353 . S
C385 C384 1.348 . S
C385 H437 0.929 . S
H386 C380 0.930 . S
H387 C383 0.930 . S
C388 N389 1.314 . S
C388 C390 1.353 . S
C388 H394 0.930 . S
N389 Li365 1.990 . S
N389 C388 1.314 . S
N389 C392 1.279 . S
C390 C388 1.353 . S
C390 C393 1.348 . S
C390 H438 0.929 . S
C391 C392 1.358 . S
C391 C393 1.356 . S
C391 H439 0.930 . S
C392 N389 1.279 . S
C392 C391 1.358 . S
C392 H395 0.930 . S
C393 C390 1.348 . S
C393 C391 1.356 . S
H394 C388 0.930 . S
H395 C392 0.930 . S
C396 C398 1.348 . S
C396 C399 1.356 . S
C396 O426 1.325 . S
N397 C400 1.314 . S
N397 C401 1.279 . S
C398 C396 1.348 . S
C398 C400 1.353 . S
C398 H440 0.929 . S
C399 C396 1.356 . S
C399 C401 1.358 . S
C399 H441 0.930 . S
C400 N397 1.314 . S
C400 C398 1.353 . S
C400 H442 0.930 . S
C401 N397 1.279 . S
C401 C399 1.358 . S
C401 H443 0.930 . S
C402 C403 1.348 . S
C402 C404 1.356 . S
C402 O427 1.325 . S
C403 C402 1.348 . S
C403 C405 1.353 . S
C403 H444 0.929 . S
C404 C402 1.356 . S
C404 C406 1.358 . S
C404 H445 0.930 . S
C405 C403 1.353 . S
C405 N407 1.314 . S
C405 H446 0.930 . S
C406 C404 1.358 . S
C406 N407 1.279 . S
C406 H447 0.930 . S
N407 C405 1.314 . S
N407 C406 1.279 . S
C408 C410 1.353 . S
C408 N411 1.314 . S
C408 H414 0.930 . S
C409 N411 1.279 . S
C409 C412 1.358 . S
C409 H415 0.930 . S
C410 C408 1.353 . S
C410 C413 1.348 . S
C410 H448 0.929 . S
N411 Li366 1.990 . S
N411 C408 1.314 . S
N411 C409 1.279 . S
C412 C409 1.358 . S
C412 C413 1.356 . S
C412 H449 0.930 . S
C413 C410 1.348 . S
C413 C412 1.356 . S
H414 C408 0.930 . S
H415 C409 0.930 . S
C416 N417 1.314 . S
C416 C418 1.353 . S
C416 H422 0.930 . S
N417 Li367 1.990 . S
N417 C416 1.314 . S
N417 C420 1.279 . S
C418 C416 1.353 . S
C418 C421 1.348 . S
C418 H450 0.929 . S
C419 C420 1.358 . S
C419 C421 1.356 . S
C419 H451 0.930 . S
C420 N417 1.279 . S
C420 C419 1.358 . S
C420 H423 0.930 . S
C421 C418 1.348 . S
C421 C419 1.356 . S
H422 C416 0.930 . S
H423 C420 0.930 . S
O424 Li364 1.956 . S
O424 Li365 1.970 . S
O424 Li366 1.961 . S
O424 C368 1.325 . S
O425 Li364 1.970 . S
O425 Li365 1.956 . S
O425 Li367 1.961 . S
O425 C374 1.325 . S
O426 Li364 1.961 . S
O426 Li366 1.956 . S
O426 Li367 1.970 . S
O426 C396 1.325 . S
O427 Li365 1.961 . S
O427 Li366 1.970 . S
O427 Li367 1.956 . S
O427 C402 1.325 . S
H428 C370 0.929 . S
H429 C371 0.930 . S
H430 C372 0.930 . S
H431 C373 0.930 . S
H432 C375 0.930 . S
H433 C377 0.929 . S
H434 C378 0.930 . S
H435 C379 0.930 . S
H436 C382 0.930 . S
H437 C385 0.929 . S
H438 C390 0.929 . S
H439 C391 0.930 . S
H440 C398 0.929 . S
H441 C399 0.930 . S
H442 C400 0.930 . S
H443 C401 0.930 . S
H444 C403 0.929 . S
H445 C404 0.930 . S
H446 C405 0.930 . S
H447 C406 0.930 . S
H448 C410 0.929 . S
H449 C412 0.930 . S
H450 C418 0.929 . S
H451 C419 0.930 . S
Li452 N469 1.990 . S
Li452 O512 1.956 . S
Li452 O513 1.970 . S
Li452 O514 1.961 . S
Li453 N477 1.990 . S
Li453 O512 1.970 . S
Li453 O513 1.956 . S
Li453 O515 1.961 . S
Li454 N499 1.990 . S
Li454 O512 1.961 . S
Li454 O514 1.956 . S
Li454 O515 1.970 . S
Li455 N505 1.990 . S
Li455 O513 1.961 . S
Li455 O514 1.970 . S
Li455 O515 1.956 . S
C456 C458 1.348 . S
C456 C459 1.356 . S
C456 O512 1.325 . S
N457 C460 1.314 . S
N457 C461 1.279 . S
C458 C456 1.348 . S
C458 C460 1.353 . S
C458 H516 0.929 . S
C459 C456 1.356 . S
C459 C461 1.358 . S
C459 H517 0.930 . S
C460 N457 1.314 . S
C460 C458 1.353 . S
C460 H518 0.930 . S
C461 N457 1.279 . S
C461 C459 1.358 . S
C461 H519 0.930 . S
C462 C465 1.348 . S
C462 C466 1.356 . S
C462 O513 1.325 . S
C463 N464 1.279 . S
C463 C466 1.358 . S
C463 H520 0.930 . S
N464 C463 1.279 . S
N464 C467 1.314 . S
C465 C462 1.348 . S
C465 C467 1.353 . S
C465 H521 0.929 . S
C466 C462 1.356 . S
C466 C463 1.358 . S
C466 H522 0.930 . S
C467 N464 1.314 . S
C467 C465 1.353 . S
C467 H523 0.930 . S
C468 N469 1.314 . S
C468 C473 1.353 . S
C468 H474 0.930 . S
N469 Li452 1.990 . S
N469 C468 1.314 . S
N469 C471 1.279 . S
C470 C471 1.358 . S
C470 C472 1.356 . S
C470 H524 0.930 . S
C471 N469 1.279 . S
C471 C470 1.358 . S
C471 H475 0.930 . S
C472 C470 1.356 . S
C472 C473 1.348 . S
C473 C468 1.353 . S
C473 C472 1.348 . S
C473 H525 0.929 . S
H474 C468 0.930 . S
H475 C471 0.930 . S
C476 N477 1.314 . S
C476 C478 1.353 . S
C476 H482 0.930 . S
N477 Li453 1.990 . S
N477 C476 1.314 . S
N477 C480 1.279 . S
C478 C476 1.353 . S
C478 C481 1.348 . S
C478 H526 0.929 . S
C479 C480 1.358 . S
C479 C481 1.356 . S
C479 H527 0.930 . S
C480 N477 1.279 . S
C480 C479 1.358 . S
C480 H483 0.930 . S
C481 C478 1.348 . S
C481 C479 1.356 . S
H482 C476 0.930 . S
H483 C480 0.930 . S
C484 C486 1.348 . S
C484 C487 1.356 . S
C484 O514 1.325 . S
N485 C488 1.314 . S
N485 C489 1.279 . S
C486 C484 1.348 . S
C486 C488 1.353 . S
C486 H528 0.929 . S
C487 C484 1.356 . S
C487 C489 1.358 . S
C487 H529 0.930 . S
C488 N485 1.314 . S
C488 C486 1.353 . S
C488 H530 0.930 . S
C489 N485 1.279 . S
C489 C487 1.358 . S
C489 H531 0.930 . S
C490 C491 1.348 . S
C490 C492 1.356 . S
C490 O515 1.325 . S
C491 C490 1.348 . S
C491 C493 1.353 . S
C491 H532 0.929 . S
C492 C490 1.356 . S
C492 C494 1.358 . S
C492 H533 0.930 . S
C493 C491 1.353 . S
C493 N495 1.314 . S
C493 H534 0.930 . S
C494 C492 1.358 . S
C494 N495 1.279 . S
C494 H535 0.930 . S
N495 C493 1.314 . S
N495 C494 1.279 . S
C496 C498 1.353 . S
C496 N499 1.314 . S
C496 H502 0.930 . S
C497 N499 1.279 . S
C497 C500 1.358 . S
C497 H503 0.930 . S
C498 C496 1.353 . S
C498 C501 1.348 . S
C498 H536 0.929 . S
N499 Li454 1.990 . S
N499 C496 1.314 . S
N499 C497 1.279 . S
C500 C497 1.358 . S
C500 C501 1.356 . S
C500 H537 0.930 . S
C501 C498 1.348 . S
C501 C500 1.356 . S
H502 C496 0.930 . S
H503 C497 0.930 . S
C504 N505 1.314 . S
C504 C506 1.353 . S
C504 H510 0.930 . S
N505 Li455 1.990 . S
N505 C504 1.314 . S
N505 C508 1.279 . S
C506 C504 1.353 . S
C506 C509 1.348 . S
C506 H538 0.929 . S
C507 C508 1.358 . S
C507 C509 1.356 . S
C507 H539 0.930 . S
C508 N505 1.279 . S
C508 C507 1.358 . S
C508 H511 0.930 . S
C509 C506 1.348 . S
C509 C507 1.356 . S
H510 C504 0.930 . S
H511 C508 0.930 . S
O512 Li452 1.956 . S
O512 Li453 1.970 . S
O512 Li454 1.961 . S
O512 C456 1.325 . S
O513 Li452 1.970 . S
O513 Li453 1.956 . S
O513 Li455 1.961 . S
O513 C462 1.325 . S
O514 Li452 1.961 . S
O514 Li454 1.956 . S
O514 Li455 1.970 . S
O514 C484 1.325 . S
O515 Li453 1.961 . S
O515 Li454 1.970 . S
O515 Li455 1.956 . S
O515 C490 1.325 . S
H516 C458 0.929 . S
H517 C459 0.930 . S
H518 C460 0.930 . S
H519 C461 0.930 . S
H520 C463 0.930 . S
H521 C465 0.929 . S
H522 C466 0.930 . S
H523 C467 0.930 . S
H524 C470 0.930 . S
H525 C473 0.929 . S
H526 C478 0.929 . S
H527 C479 0.930 . S
H528 C486 0.929 . S
H529 C487 0.930 . S
H530 C488 0.930 . S
H531 C489 0.930 . S
H532 C491 0.929 . S
H533 C492 0.930 . S
H534 C493 0.930 . S
H535 C494 0.930 . S
H536 C498 0.929 . S
H537 C500 0.930 . S
H538 C506 0.929 . S
H539 C507 0.930 . S
Li540 N557 1.990 . S
Li540 O600 1.956 . S
Li540 O601 1.970 . S
Li540 O602 1.961 . S
Li541 N565 1.990 . S
Li541 O600 1.970 . S
Li541 O601 1.956 . S
Li541 O603 1.961 . S
Li542 N587 1.990 . S
Li542 O600 1.961 . S
Li542 O602 1.956 . S
Li542 O603 1.970 . S
Li543 N593 1.990 . S
Li543 O601 1.961 . S
Li543 O602 1.970 . S
Li543 O603 1.956 . S
C544 C546 1.348 . S
C544 C547 1.356 . S
C544 O600 1.325 . S
N545 C548 1.314 . S
N545 C549 1.279 . S
C546 C544 1.348 . S
C546 C548 1.353 . S
C546 H604 0.929 . S
C547 C544 1.356 . S
C547 C549 1.358 . S
C547 H605 0.930 . S
C548 N545 1.314 . S
C548 C546 1.353 . S
C548 H606 0.930 . S
C549 N545 1.279 . S
C549 C547 1.358 . S
C549 H607 0.930 . S
C550 C553 1.348 . S
C550 C554 1.356 . S
C550 O601 1.325 . S
C551 N552 1.279 . S
C551 C554 1.358 . S
C551 H608 0.930 . S
N552 C551 1.279 . S
N552 C555 1.314 . S
C553 C550 1.348 . S
C553 C555 1.353 . S
C553 H609 0.929 . S
C554 C550 1.356 . S
C554 C551 1.358 . S
C554 H610 0.930 . S
C555 N552 1.314 . S
C555 C553 1.353 . S
C555 H611 0.930 . S
C556 N557 1.314 . S
C556 C561 1.353 . S
C556 H562 0.930 . S
N557 Li540 1.990 . S
N557 C556 1.314 . S
N557 C559 1.279 . S
C558 C559 1.358 . S
C558 C560 1.356 . S
C558 H612 0.933 . S
C559 N557 1.279 . S
C559 C558 1.358 . S
C559 H563 0.930 . S
C560 C558 1.356 . S
C560 C561 1.348 . S
C561 C556 1.353 . S
C561 C560 1.348 . S
C561 H613 0.929 . S
H562 C556 0.930 . S
H563 C559 0.930 . S
C564 N565 1.314 . S
C564 C566 1.353 . S
C564 H570 0.930 . S
N565 Li541 1.990 . S
N565 C564 1.314 . S
N565 C568 1.279 . S
C566 C564 1.353 . S
C566 C569 1.348 . S
C566 H614 0.929 . S
C567 C568 1.358 . S
C567 C569 1.356 . S
C567 H615 0.930 . S
C568 N565 1.279 . S
C568 C567 1.358 . S
C568 H571 0.930 . S
C569 C566 1.348 . S
C569 C567 1.356 . S
H570 C564 0.930 . S
H571 C568 0.930 . S
C572 C574 1.348 . S
C572 C575 1.356 . S
C572 O602 1.325 . S
N573 C576 1.314 . S
N573 C577 1.279 . S
C574 C572 1.348 . S
C574 C576 1.353 . S
C574 H616 0.929 . S
C575 C572 1.356 . S
C575 C577 1.358 . S
C575 H617 0.930 . S
C576 N573 1.314 . S
C576 C574 1.353 . S
C576 H618 0.930 . S
C577 N573 1.279 . S
C577 C575 1.358 . S
C577 H619 0.930 . S
C578 C579 1.348 . S
C578 C580 1.356 . S
C578 O603 1.325 . S
C579 C578 1.348 . S
C579 C581 1.353 . S
C579 H620 0.929 . S
C580 C578 1.356 . S
C580 C582 1.358 . S
C580 H621 0.930 . S
C581 C579 1.353 . S
C581 N583 1.314 . S
C581 H622 0.930 . S
C582 C580 1.358 . S
C582 N583 1.279 . S
C582 H623 0.930 . S
N583 C581 1.314 . S
N583 C582 1.279 . S
C584 C586 1.353 . S
C584 N587 1.314 . S
C584 H590 0.930 . S
C585 N587 1.279 . S
C585 C588 1.358 . S
C585 H591 0.930 . S
C586 C584 1.353 . S
C586 C589 1.348 . S
C586 H624 0.929 . S
N587 Li542 1.990 . S
N587 C584 1.314 . S
N587 C585 1.279 . S
C588 C585 1.358 . S
C588 C589 1.356 . S
C588 H625 0.930 . S
C589 C586 1.348 . S
C589 C588 1.356 . S
H590 C584 0.930 . S
H591 C585 0.930 . S
C592 N593 1.314 . S
C592 C594 1.353 . S
C592 H598 0.930 . S
N593 Li543 1.990 . S
N593 C592 1.314 . S
N593 C596 1.279 . S
C594 C592 1.353 . S
C594 C597 1.348 . S
C594 H626 0.929 . S
C595 C596 1.358 . S
C595 C597 1.356 . S
C595 H627 0.930 . S
C596 N593 1.279 . S
C596 C595 1.358 . S
C596 H599 0.930 . S
C597 C594 1.348 . S
C597 C595 1.356 . S
H598 C592 0.930 . S
H599 C596 0.930 . S
O600 Li540 1.956 . S
O600 Li541 1.970 . S
O600 Li542 1.961 . S
O600 C544 1.325 . S
O601 Li540 1.970 . S
O601 Li541 1.956 . S
O601 Li543 1.961 . S
O601 C550 1.325 . S
O602 Li540 1.961 . S
O602 Li542 1.956 . S
O602 Li543 1.970 . S
O602 C572 1.325 . S
O603 Li541 1.961 . S
O603 Li542 1.970 . S
O603 Li543 1.956 . S
O603 C578 1.325 . S
H604 C546 0.929 . S
H605 C547 0.930 . S
H606 C548 0.930 . S
H607 C549 0.930 . S
H608 C551 0.930 . S
H609 C553 0.929 . S
H610 C554 0.930 . S
H611 C555 0.930 . S
H612 C558 0.933 . S
H613 C561 0.929 . S
H614 C566 0.929 . S
H615 C567 0.930 . S
H616 C574 0.929 . S
H617 C575 0.930 . S
H618 C576 0.930 . S
H619 C577 0.930 . S
H620 C579 0.929 . S
H621 C580 0.930 . S
H622 C581 0.930 . S
H623 C582 0.930 . S
H624 C586 0.929 . S
H625 C588 0.930 . S
H626 C594 0.929 . S
H627 C595 0.930 . S
Li628 N645 1.990 . S
Li628 O688 1.956 . S
Li628 O689 1.970 . S
Li628 O690 1.961 . S
Li629 N653 1.990 . S
Li629 O688 1.970 . S
Li629 O689 1.956 . S
Li629 O691 1.961 . S
Li630 N675 1.990 . S
Li630 O688 1.961 . S
Li630 O690 1.956 . S
Li630 O691 1.970 . S
Li631 N681 1.990 . S
Li631 O689 1.961 . S
Li631 O690 1.970 . S
Li631 O691 1.956 . S
C632 C634 1.348 . S
C632 C635 1.356 . S
C632 O688 1.325 . S
N633 C636 1.314 . S
N633 C637 1.279 . S
C634 C632 1.348 . S
C634 C636 1.353 . S
C634 H692 0.929 . S
C635 C632 1.356 . S
C635 C637 1.358 . S
C635 H693 0.930 . S
C636 N633 1.314 . S
C636 C634 1.353 . S
C636 H694 0.930 . S
C637 N633 1.279 . S
C637 C635 1.358 . S
C637 H695 0.930 . S
C638 C641 1.348 . S
C638 C642 1.356 . S
C638 O689 1.325 . S
C639 N640 1.279 . S
C639 C642 1.358 . S
C639 H696 0.930 . S
N640 C639 1.279 . S
N640 C643 1.314 . S
C641 C638 1.348 . S
C641 C643 1.353 . S
C641 H697 0.929 . S
C642 C638 1.356 . S
C642 C639 1.358 . S
C642 H698 0.930 . S
C643 N640 1.314 . S
C643 C641 1.353 . S
C643 H699 0.930 . S
C644 N645 1.314 . S
C644 C649 1.353 . S
C644 H650 0.930 . S
N645 Li628 1.990 . S
N645 C644 1.314 . S
N645 C647 1.279 . S
C646 C647 1.358 . S
C646 C648 1.356 . S
C646 H700 0.930 . S
C647 N645 1.279 . S
C647 C646 1.358 . S
C647 H651 0.930 . S
C648 C646 1.356 . S
C648 C649 1.348 . S
C649 C644 1.353 . S
C649 C648 1.348 . S
C649 H701 0.929 . S
H650 C644 0.930 . S
H651 C647 0.930 . S
C652 N653 1.314 . S
C652 C654 1.353 . S
C652 H658 0.930 . S
N653 Li629 1.990 . S
N653 C652 1.314 . S
N653 C656 1.279 . S
C654 C652 1.353 . S
C654 C657 1.348 . S
C654 H702 0.929 . S
C655 C656 1.358 . S
C655 C657 1.356 . S
C655 H703 0.930 . S
C656 N653 1.279 . S
C656 C655 1.358 . S
C656 H659 0.930 . S
C657 C654 1.348 . S
C657 C655 1.356 . S
H658 C652 0.930 . S
H659 C656 0.930 . S
C660 C662 1.348 . S
C660 C663 1.356 . S
C660 O690 1.325 . S
N661 C664 1.314 . S
N661 C665 1.279 . S
C662 C660 1.348 . S
C662 C664 1.353 . S
C662 H704 0.929 . S
C663 C660 1.356 . S
C663 C665 1.358 . S
C663 H705 0.930 . S
C664 N661 1.314 . S
C664 C662 1.353 . S
C664 H706 0.930 . S
C665 N661 1.279 . S
C665 C663 1.358 . S
C665 H707 0.930 . S
C666 C667 1.348 . S
C666 C668 1.356 . S
C666 O691 1.325 . S
C667 C666 1.348 . S
C667 C669 1.353 . S
C667 H708 0.929 . S
C668 C666 1.356 . S
C668 C670 1.358 . S
C668 H709 0.930 . S
C669 C667 1.353 . S
C669 N671 1.314 . S
C669 H710 0.930 . S
C670 C668 1.358 . S
C670 N671 1.279 . S
C670 H711 0.930 . S
N671 C669 1.314 . S
N671 C670 1.279 . S
C672 C674 1.353 . S
C672 N675 1.314 . S
C672 H678 0.930 . S
C673 N675 1.279 . S
C673 C676 1.358 . S
C673 H679 0.930 . S
C674 C672 1.353 . S
C674 C677 1.348 . S
C674 H712 0.929 . S
N675 Li630 1.990 . S
N675 C672 1.314 . S
N675 C673 1.279 . S
C676 C673 1.358 . S
C676 C677 1.356 . S
C676 H713 0.930 1_554 S
C677 C674 1.348 . S
C677 C676 1.356 . S
H678 C672 0.930 . S
H679 C673 0.930 . S
C680 N681 1.314 . S
C680 C682 1.353 . S
C680 H686 0.930 . S
N681 Li631 1.990 . S
N681 C680 1.314 . S
N681 C684 1.279 . S
C682 C680 1.353 . S
C682 C685 1.348 . S
C682 H714 0.929 . S
C683 C684 1.358 . S
C683 C685 1.356 . S
C683 H715 0.930 . S
C684 N681 1.279 . S
C684 C683 1.358 . S
C684 H687 0.930 . S
C685 C682 1.348 . S
C685 C683 1.356 . S
H686 C680 0.930 . S
H687 C684 0.930 . S
O688 Li628 1.956 . S
O688 Li629 1.970 . S
O688 Li630 1.961 . S
O688 C632 1.325 . S
O689 Li628 1.970 . S
O689 Li629 1.956 . S
O689 Li631 1.961 . S
O689 C638 1.325 . S
O690 Li628 1.961 . S
O690 Li630 1.956 . S
O690 Li631 1.970 . S
O690 C660 1.325 . S
O691 Li629 1.961 . S
O691 Li630 1.970 . S
O691 Li631 1.956 . S
O691 C666 1.325 . S
H692 C634 0.929 . S
H693 C635 0.930 . S
H694 C636 0.930 . S
H695 C637 0.930 . S
H696 C639 0.930 . S
H697 C641 0.929 . S
H698 C642 0.930 . S
H699 C643 0.930 . S
H700 C646 0.930 . S
H701 C649 0.929 . S
H702 C654 0.929 . S
H703 C655 0.930 . S
H704 C662 0.929 . S
H705 C663 0.930 . S
H706 C664 0.930 . S
H707 C665 0.930 . S
H708 C667 0.929 . S
H709 C668 0.930 . S
H710 C669 0.930 . S
H711 C670 0.930 . S
H712 C674 0.929 . S
H713 C676 0.930 1_556 S
H714 C682 0.929 . S
H715 C683 0.930 . S
Li716 N733 1.990 . S
Li716 O776 1.956 . S
Li716 O777 1.970 . S
Li716 O778 1.961 . S
Li717 N741 1.990 . S
Li717 O776 1.970 . S
Li717 O777 1.956 . S
Li717 O779 1.961 . S
Li718 N763 1.990 . S
Li718 O776 1.961 . S
Li718 O778 1.956 . S
Li718 O779 1.970 . S
Li719 N769 1.990 . S
Li719 O777 1.961 . S
Li719 O778 1.970 . S
Li719 O779 1.956 . S
C720 C722 1.348 . S
C720 C723 1.356 . S
C720 O776 1.325 . S
N721 C724 1.314 . S
N721 C725 1.279 . S
C722 C720 1.348 . S
C722 C724 1.353 . S
C722 H780 0.929 . S
C723 C720 1.356 . S
C723 C725 1.358 . S
C723 H781 0.930 . S
C724 N721 1.314 . S
C724 C722 1.353 . S
C724 H782 0.930 . S
C725 N721 1.279 . S
C725 C723 1.358 . S
C725 H783 0.930 . S
C726 C729 1.348 . S
C726 C730 1.356 . S
C726 O777 1.325 . S
C727 N728 1.279 . S
C727 C730 1.358 . S
C727 H784 0.930 . S
N728 C727 1.279 . S
N728 C731 1.314 . S
C729 C726 1.348 . S
C729 C731 1.353 . S
C729 H785 0.929 . S
C730 C726 1.356 . S
C730 C727 1.358 . S
C730 H786 0.930 . S
C731 N728 1.314 . S
C731 C729 1.353 . S
C731 H787 0.930 . S
C732 N733 1.314 . S
C732 C737 1.353 . S
C732 H738 0.930 . S
N733 Li716 1.990 . S
N733 C732 1.314 . S
N733 C735 1.279 . S
C734 C735 1.358 . S
C734 C736 1.356 . S
C734 H788 0.930 . S
C735 N733 1.279 . S
C735 C734 1.358 . S
C735 H739 0.930 . S
C736 C734 1.356 . S
C736 C737 1.348 . S
C737 C732 1.353 . S
C737 C736 1.348 . S
C737 H789 0.929 . S
H738 C732 0.930 . S
H739 C735 0.930 . S
C740 N741 1.314 . S
C740 C742 1.353 . S
C740 H746 0.930 . S
N741 Li717 1.990 . S
N741 C740 1.314 . S
N741 C744 1.279 . S
C742 C740 1.353 . S
C742 C745 1.348 . S
C742 H790 0.929 . S
C743 C744 1.358 . S
C743 C745 1.356 . S
C743 H791 0.930 . S
C744 N741 1.279 . S
C744 C743 1.358 . S
C744 H747 0.930 . S
C745 C742 1.348 . S
C745 C743 1.356 . S
H746 C740 0.930 . S
H747 C744 0.930 . S
C748 C750 1.348 . S
C748 C751 1.356 . S
C748 O778 1.325 . S
N749 C752 1.314 . S
N749 C753 1.279 . S
C750 C748 1.348 . S
C750 C752 1.353 . S
C750 H792 0.929 . S
C751 C748 1.356 . S
C751 C753 1.358 . S
C751 H793 0.930 . S
C752 N749 1.314 . S
C752 C750 1.353 . S
C752 H794 0.930 . S
C753 N749 1.279 . S
C753 C751 1.358 . S
C753 H795 0.930 . S
C754 C755 1.348 . S
C754 C756 1.356 . S
C754 O779 1.325 . S
C755 C754 1.348 . S
C755 C757 1.353 . S
C755 H796 0.929 . S
C756 C754 1.356 . S
C756 C758 1.358 . S
C756 H797 0.930 . S
C757 C755 1.353 . S
C757 N759 1.314 . S
C757 H798 0.930 . S
C758 C756 1.358 . S
C758 N759 1.279 . S
C758 H799 0.930 . S
N759 C757 1.314 . S
N759 C758 1.279 . S
C760 C762 1.353 . S
C760 N763 1.314 . S
C760 H766 0.930 . S
C761 N763 1.279 . S
C761 C764 1.358 . S
C761 H767 0.930 . S
C762 C760 1.353 . S
C762 C765 1.348 . S
C762 H800 0.929 . S
N763 Li718 1.990 . S
N763 C760 1.314 . S
N763 C761 1.279 . S
C764 C761 1.358 . S
C764 C765 1.356 . S
C764 H801 0.930 . S
C765 C762 1.348 . S
C765 C764 1.356 . S
H766 C760 0.930 . S
H767 C761 0.930 . S
C768 N769 1.314 . S
C768 C770 1.353 . S
C768 H774 0.930 . S
N769 Li719 1.990 . S
N769 C768 1.314 . S
N769 C772 1.279 . S
C770 C768 1.353 . S
C770 C773 1.348 . S
C770 H802 0.929 . S
C771 C772 1.358 . S
C771 C773 1.356 . S
C771 H803 0.930 . S
C772 N769 1.279 . S
C772 C771 1.358 . S
C772 H775 0.930 . S
C773 C770 1.348 . S
C773 C771 1.356 . S
H774 C768 0.930 . S
H775 C772 0.930 . S
O776 Li716 1.956 . S
O776 Li717 1.970 . S
O776 Li718 1.961 . S
O776 C720 1.325 . S
O777 Li716 1.970 . S
O777 Li717 1.956 . S
O777 Li719 1.961 . S
O777 C726 1.325 . S
O778 Li716 1.961 . S
O778 Li718 1.956 . S
O778 Li719 1.970 . S
O778 C748 1.325 . S
O779 Li717 1.961 . S
O779 Li718 1.970 . S
O779 Li719 1.956 . S
O779 C754 1.325 . S
H780 C722 0.929 . S
H781 C723 0.930 . S
H782 C724 0.930 . S
H783 C725 0.930 . S
H784 C727 0.930 . S
H785 C729 0.929 . S
H786 C730 0.930 . S
H787 C731 0.930 . S
H788 C734 0.930 . S
H789 C737 0.929 . S
H790 C742 0.929 . S
H791 C743 0.930 . S
H792 C750 0.929 . S
H793 C751 0.930 . S
H794 C752 0.930 . S
H795 C753 0.930 . S
H796 C755 0.929 . S
H797 C756 0.930 . S
H798 C757 0.930 . S
H799 C758 0.930 . S
H800 C762 0.929 . S
H801 C764 0.930 . S
H802 C770 0.929 . S
H803 C771 0.930 . S
H804 C816 0.930 . S
H805 C818 0.930 . S
H806 C819 0.930 . S
H807 C823 0.959 . S
H808 C823 0.959 . S
H809 C823 0.961 . S
H810 C824 0.960 . S
H811 C824 0.961 . S
H812 C824 0.959 . S
H813 C827 0.929 . S
H814 C828 0.931 . S
H815 C830 0.930 . S
C816 H804 0.930 . S
C816 C817 1.399 . S
C816 C821 1.399 . S
C817 C816 1.399 . S
C817 C818 1.376 . S
C818 H805 0.930 . S
C818 C817 1.376 . S
C818 C819 1.388 . S
C819 H806 0.930 . S
C819 C818 1.388 . S
C819 C820 1.390 . S
C820 C819 1.390 . S
C820 C821 1.394 . S
C820 C826 1.465 . S
C821 C816 1.399 . S
C821 C820 1.394 . S
C821 C822 1.516 . S
C822 C821 1.516 . S
C822 C823 1.502 . S
C822 C824 1.561 . S
C822 C825 1.526 . S
C823 H807 0.959 . S
C823 H808 0.959 . S
C823 H809 0.961 . S
C823 C822 1.502 . S
C824 H810 0.960 . S
C824 H811 0.961 . S
C824 H812 0.959 . S
C824 C822 1.561 . S
C825 C822 1.526 . S
C825 C826 1.396 . S
C825 C830 1.390 . S
C826 C820 1.465 . S
C826 C825 1.396 . S
C826 C827 1.399 . S
C827 H813 0.929 . S
C827 C826 1.399 . S
C827 C828 1.385 . S
C828 H814 0.931 . S
C828 C827 1.385 . S
C828 C829 1.389 . S
C829 C828 1.389 . S
C829 C830 1.387 . S
C830 H815 0.930 . S
C830 C825 1.390 . S
C830 C829 1.387 . S
H831 C843 0.930 . S
H832 C845 0.930 . S
H833 C846 0.930 . S
H834 C850 0.959 . S
H835 C850 0.959 . S
H836 C850 0.961 . S
H837 C851 0.960 . S
H838 C851 0.961 . S
H839 C851 0.959 . S
H840 C854 0.929 . S
H841 C855 0.931 . S
H842 C857 0.930 . S
C843 H831 0.930 . S
C843 C844 1.399 . S
C843 C848 1.399 . S
C844 C843 1.399 . S
C844 C845 1.376 . S
C845 H832 0.930 . S
C845 C844 1.376 . S
C845 C846 1.388 . S
C846 H833 0.930 . S
C846 C845 1.388 . S
C846 C847 1.390 . S
C847 C846 1.390 . S
C847 C848 1.394 . S
C847 C853 1.465 . S
C848 C843 1.399 . S
C848 C847 1.394 . S
C848 C849 1.516 . S
C849 C848 1.516 . S
C849 C850 1.502 . S
C849 C851 1.561 . S
C849 C852 1.526 . S
C850 H834 0.959 . S
C850 H835 0.959 . S
C850 H836 0.961 . S
C850 C849 1.502 . S
C851 H837 0.960 . S
C851 H838 0.961 . S
C851 H839 0.959 . S
C851 C849 1.561 . S
C852 C849 1.526 . S
C852 C853 1.396 . S
C852 C857 1.390 . S
C853 C847 1.465 . S
C853 C852 1.396 . S
C853 C854 1.399 . S
C854 H840 0.929 . S
C854 C853 1.399 . S
C854 C855 1.385 . S
C855 H841 0.931 . S
C855 C854 1.385 . S
C855 C856 1.389 . S
C856 C855 1.389 . S
C856 C857 1.387 . S
C857 H842 0.930 . S
C857 C852 1.390 . S
C857 C856 1.387 . S
H858 C870 0.930 . S
H859 C872 0.930 . S
H860 C873 0.930 . S
H861 C877 0.959 . S
H862 C877 0.959 . S
H863 C877 0.961 . S
H864 C878 0.960 . S
H865 C878 0.961 . S
H866 C878 0.959 . S
H867 C881 0.929 . S
H868 C882 0.931 . S
H869 C884 0.930 . S
C870 H858 0.930 . S
C870 C871 1.399 . S
C870 C875 1.399 . S
C871 C870 1.399 . S
C871 C872 1.376 . S
C872 H859 0.930 . S
C872 C871 1.376 . S
C872 C873 1.388 . S
C873 H860 0.930 . S
C873 C872 1.388 . S
C873 C874 1.390 . S
C874 C873 1.390 . S
C874 C875 1.394 . S
C874 C880 1.465 . S
C875 C870 1.399 . S
C875 C874 1.394 . S
C875 C876 1.516 . S
C876 C875 1.516 . S
C876 C877 1.502 . S
C876 C878 1.561 . S
C876 C879 1.526 . S
C877 H861 0.959 . S
C877 H862 0.959 . S
C877 H863 0.961 . S
C877 C876 1.502 . S
C878 H864 0.960 . S
C878 H865 0.961 . S
C878 H866 0.959 . S
C878 C876 1.561 . S
C879 C876 1.526 . S
C879 C880 1.396 . S
C879 C884 1.390 . S
C880 C874 1.465 . S
C880 C879 1.396 . S
C880 C881 1.399 . S
C881 H867 0.929 . S
C881 C880 1.399 . S
C881 C882 1.385 . S
C882 H868 0.931 . S
C882 C881 1.385 . S
C882 C883 1.389 . S
C883 C882 1.389 . S
C883 C884 1.387 . S
C884 H869 0.930 . S
C884 C879 1.390 . S
C884 C883 1.387 . S
H885 C897 0.930 . S
H886 C899 0.930 . S
H887 C900 0.930 . S
H888 C904 0.959 . S
H889 C904 0.959 . S
H890 C904 0.961 . S
H891 C905 0.960 . S
H892 C905 0.961 . S
H893 C905 0.959 . S
H894 C908 0.929 . S
H895 C909 0.931 . S
H896 C911 0.930 . S
C897 H885 0.930 . S
C897 C898 1.399 . S
C897 C902 1.399 . S
C898 C897 1.399 . S
C898 C899 1.376 . S
C899 H886 0.930 . S
C899 C898 1.376 . S
C899 C900 1.388 . S
C900 H887 0.930 . S
C900 C899 1.388 . S
C900 C901 1.390 . S
C901 C900 1.390 . S
C901 C902 1.394 . S
C901 C907 1.465 . S
C902 C897 1.399 . S
C902 C901 1.394 . S
C902 C903 1.516 . S
C903 C902 1.516 . S
C903 C904 1.502 . S
C903 C905 1.561 . S
C903 C906 1.526 . S
C904 H888 0.959 . S
C904 H889 0.959 . S
C904 H890 0.961 . S
C904 C903 1.502 . S
C905 H891 0.960 . S
C905 H892 0.961 . S
C905 H893 0.959 . S
C905 C903 1.561 . S
C906 C903 1.526 . S
C906 C907 1.396 . S
C906 C911 1.390 . S
C907 C901 1.465 . S
C907 C906 1.396 . S
C907 C908 1.399 . S
C908 H894 0.929 . S
C908 C907 1.399 . S
C908 C909 1.385 . S
C909 H895 0.931 . S
C909 C908 1.385 . S
C909 C910 1.389 . S
C910 C909 1.389 . S
C910 C911 1.387 . S
C911 H896 0.930 . S
C911 C906 1.390 . S
C911 C910 1.387 . S
H912 C924 0.930 . S
H913 C926 0.930 . S
H914 C927 0.930 . S
H915 C931 0.959 . S
H916 C931 0.959 . S
H917 C931 0.961 . S
H918 C932 0.960 . S
H919 C932 0.961 . S
H920 C932 0.959 . S
H921 C935 0.929 . S
H922 C936 0.931 . S
H923 C938 0.930 . S
C924 H912 0.930 . S
C924 C925 1.399 . S
C924 C929 1.399 . S
C925 C924 1.399 . S
C925 C926 1.376 . S
C926 H913 0.930 . S
C926 C925 1.376 . S
C926 C927 1.388 . S
C927 H914 0.930 . S
C927 C926 1.388 . S
C927 C928 1.390 . S
C928 C927 1.390 . S
C928 C929 1.394 . S
C928 C934 1.465 . S
C929 C924 1.399 . S
C929 C928 1.394 . S
C929 C930 1.516 . S
C930 C929 1.516 . S
C930 C931 1.502 . S
C930 C932 1.561 . S
C930 C933 1.526 . S
C931 H915 0.959 . S
C931 H916 0.959 . S
C931 H917 0.961 . S
C931 C930 1.502 . S
C932 H918 0.960 . S
C932 H919 0.961 . S
C932 H920 0.959 . S
C932 C930 1.561 . S
C933 C930 1.526 . S
C933 C934 1.396 . S
C933 C938 1.390 . S
C934 C928 1.465 . S
C934 C933 1.396 . S
C934 C935 1.399 . S
C935 H921 0.929 . S
C935 C934 1.399 . S
C935 C936 1.385 . S
C936 H922 0.931 . S
C936 C935 1.385 . S
C936 C937 1.389 . S
C937 C936 1.389 . S
C937 C938 1.387 . S
C938 H923 0.930 . S
C938 C933 1.390 . S
C938 C937 1.387 . S
H939 C951 0.930 . S
H940 C953 0.930 . S
H941 C954 0.930 . S
H942 C958 0.959 . S
H943 C958 0.959 . S
H944 C958 0.961 . S
H945 C959 0.960 . S
H946 C959 0.961 . S
H947 C959 0.959 . S
H948 C962 0.929 . S
H949 C963 0.931 . S
H950 C965 0.930 . S
C951 H939 0.930 . S
C951 C952 1.399 . S
C951 C956 1.399 . S
C952 C951 1.399 . S
C952 C953 1.376 . S
C953 H940 0.930 . S
C953 C952 1.376 . S
C953 C954 1.388 . S
C954 H941 0.930 . S
C954 C953 1.388 . S
C954 C955 1.390 . S
C955 C954 1.390 . S
C955 C956 1.394 . S
C955 C961 1.465 . S
C956 C951 1.399 . S
C956 C955 1.394 . S
C956 C957 1.516 . S
C957 C956 1.516 . S
C957 C958 1.502 . S
C957 C959 1.561 . S
C957 C960 1.526 . S
C958 H942 0.959 . S
C958 H943 0.959 . S
C958 H944 0.961 . S
C958 C957 1.502 . S
C959 H945 0.960 . S
C959 H946 0.961 . S
C959 H947 0.959 . S
C959 C957 1.561 . S
C960 C957 1.526 . S
C960 C961 1.396 . S
C960 C965 1.390 . S
C961 C955 1.465 . S
C961 C960 1.396 . S
C961 C962 1.399 . S
C962 H948 0.929 . S
C962 C961 1.399 . S
C962 C963 1.385 . S
C963 H949 0.931 . S
C963 C962 1.385 . S
C963 C964 1.389 . S
C964 C963 1.389 . S
C964 C965 1.387 . S
C965 H950 0.930 . S
C965 C960 1.390 . S
C965 C964 1.387 . S
H966 C978 0.930 . S
H967 C980 0.930 . S
H968 C981 0.930 . S
H969 C985 0.959 . S
H970 C985 0.959 . S
H971 C985 0.961 . S
H972 C986 0.960 . S
H973 C986 0.961 . S
H974 C986 0.959 . S
H975 C989 0.929 . S
H976 C990 0.931 . S
H977 C992 0.930 . S
C978 H966 0.930 . S
C978 C979 1.399 . S
C978 C983 1.399 . S
C979 C978 1.399 . S
C979 C980 1.376 . S
C980 H967 0.930 . S
C980 C979 1.376 . S
C980 C981 1.388 . S
C981 H968 0.930 . S
C981 C980 1.388 . S
C981 C982 1.390 . S
C982 C981 1.390 . S
C982 C983 1.394 . S
C982 C988 1.465 . S
C983 C978 1.399 . S
C983 C982 1.394 . S
C983 C984 1.516 . S
C984 C983 1.516 . S
C984 C985 1.502 . S
C984 C986 1.561 . S
C984 C987 1.526 . S
C985 H969 0.959 . S
C985 H970 0.959 . S
C985 H971 0.961 . S
C985 C984 1.502 . S
C986 H972 0.960 . S
C986 H973 0.961 . S
C986 H974 0.959 . S
C986 C984 1.561 . S
C987 C984 1.526 . S
C987 C988 1.396 . S
C987 C992 1.390 . S
C988 C982 1.465 . S
C988 C987 1.396 . S
C988 C989 1.399 . S
C989 H975 0.929 . S
C989 C988 1.399 . S
C989 C990 1.385 . S
C990 H976 0.931 . S
C990 C989 1.385 . S
C990 C991 1.389 . S
C991 C990 1.389 . S
C991 C992 1.387 . S
C992 H977 0.930 . S
C992 C987 1.390 . S
C992 C991 1.387 . S
H993 C1005 0.930 . S
H994 C1007 0.930 . S
H995 C1008 0.930 . S
H996 C1012 0.959 . S
H997 C1012 0.959 . S
H998 C1012 0.961 . S
H999 C1013 0.960 . S
H1000 C1013 0.961 . S
H1001 C1013 0.959 . S
H1002 C1016 0.929 . S
H1003 C1017 0.931 . S
H1004 C1019 0.930 . S
C1005 H993 0.930 . S
C1005 C1006 1.399 . S
C1005 C1010 1.399 . S
C1006 C1005 1.399 . S
C1006 C1007 1.376 . S
C1007 H994 0.930 . S
C1007 C1006 1.376 . S
C1007 C1008 1.388 . S
C1008 H995 0.930 . S
C1008 C1007 1.388 . S
C1008 C1009 1.390 . S
C1009 C1008 1.390 . S
C1009 C1010 1.394 . S
C1009 C1015 1.465 . S
C1010 C1005 1.399 . S
C1010 C1009 1.394 . S
C1010 C1011 1.516 . S
C1011 C1010 1.516 . S
C1011 C1012 1.502 . S
C1011 C1013 1.561 . S
C1011 C1014 1.526 . S
C1012 H996 0.959 . S
C1012 H997 0.959 . S
C1012 H998 0.961 . S
C1012 C1011 1.502 . S
C1013 H999 0.960 . S
C1013 H1000 0.961 . S
C1013 H1001 0.959 . S
C1013 C1011 1.561 . S
C1014 C1011 1.526 . S
C1014 C1015 1.396 . S
C1014 C1019 1.390 . S
C1015 C1009 1.465 . S
C1015 C1014 1.396 . S
C1015 C1016 1.399 . S
C1016 H1002 0.929 . S
C1016 C1015 1.399 . S
C1016 C1017 1.385 . S
C1017 H1003 0.931 . S
C1017 C1016 1.385 . S
C1017 C1018 1.389 . S
C1018 C1017 1.389 . S
C1018 C1019 1.387 . S
C1019 H1004 0.930 . S
C1019 C1014 1.390 . S
C1019 C1018 1.387 . S
H1020 C1032 0.930 . S
H1021 C1034 0.930 . S
H1022 C1035 0.930 . S
H1023 C1039 0.959 . S
H1024 C1039 0.959 . S
H1025 C1039 0.961 . S
H1026 C1040 0.960 . S
H1027 C1040 0.961 . S
H1028 C1040 0.959 . S
H1029 C1043 0.929 . S
H1030 C1044 0.931 . S
H1031 C1046 0.930 . S
C1032 H1020 0.930 . S
C1032 C1033 1.399 . S
C1032 C1037 1.399 . S
C1033 C1032 1.399 . S
C1033 C1034 1.376 . S
C1034 H1021 0.930 . S
C1034 C1033 1.376 . S
C1034 C1035 1.388 . S
C1035 H1022 0.930 . S
C1035 C1034 1.388 . S
C1035 C1036 1.390 . S
C1036 C1035 1.390 . S
C1036 C1037 1.394 . S
C1036 C1042 1.465 . S
C1037 C1032 1.399 . S
C1037 C1036 1.394 . S
C1037 C1038 1.516 . S
C1038 C1037 1.516 . S
C1038 C1039 1.502 . S
C1038 C1040 1.561 . S
C1038 C1041 1.526 . S
C1039 H1023 0.959 . S
C1039 H1024 0.959 . S
C1039 H1025 0.961 . S
C1039 C1038 1.502 . S
C1040 H1026 0.960 . S
C1040 H1027 0.961 . S
C1040 H1028 0.959 . S
C1040 C1038 1.561 . S
C1041 C1038 1.526 . S
C1041 C1042 1.396 . S
C1041 C1046 1.390 . S
C1042 C1036 1.465 . S
C1042 C1041 1.396 . S
C1042 C1043 1.399 . S
C1043 H1029 0.929 . S
C1043 C1042 1.399 . S
C1043 C1044 1.385 . S
C1044 H1030 0.931 . S
C1044 C1043 1.385 . S
C1044 C1045 1.389 . S
C1045 C1044 1.389 . S
C1045 C1046 1.387 . S
C1046 H1031 0.930 . S
C1046 C1041 1.390 . S
C1046 C1045 1.387 . S
H1047 C1059 0.930 . S
H1048 C1061 0.930 . S
H1049 C1062 0.930 . S
H1050 C1066 0.959 . S
H1051 C1066 0.959 . S
H1052 C1066 0.961 . S
H1053 C1067 0.960 1_556 S
H1054 C1067 0.961 . S
H1055 C1067 0.959 . S
H1056 C1070 0.929 . S
H1057 C1071 0.931 . S
H1058 C1073 0.930 . S
C1059 H1047 0.930 . S
C1059 C1060 1.399 . S
C1059 C1064 1.399 . S
C1060 C1059 1.399 . S
C1060 C1061 1.376 . S
C1061 H1048 0.930 . S
C1061 C1060 1.376 . S
C1061 C1062 1.388 . S
C1062 H1049 0.930 . S
C1062 C1061 1.388 . S
C1062 C1063 1.390 . S
C1063 C1062 1.390 . S
C1063 C1064 1.394 . S
C1063 C1069 1.465 . S
C1064 C1059 1.399 . S
C1064 C1063 1.394 . S
C1064 C1065 1.516 . S
C1065 C1064 1.516 . S
C1065 C1066 1.502 . S
C1065 C1067 1.561 . S
C1065 C1068 1.526 . S
C1066 H1050 0.959 . S
C1066 H1051 0.959 . S
C1066 H1052 0.961 . S
C1066 C1065 1.502 . S
C1067 H1053 0.960 1_554 S
C1067 H1054 0.961 . S
C1067 H1055 0.959 . S
C1067 C1065 1.561 . S
C1068 C1065 1.526 . S
C1068 C1069 1.396 . S
C1068 C1073 1.390 . S
C1069 C1063 1.465 . S
C1069 C1068 1.396 . S
C1069 C1070 1.399 . S
C1070 H1056 0.929 . S
C1070 C1069 1.399 . S
C1070 C1071 1.385 . S
C1071 H1057 0.931 . S
C1071 C1070 1.385 . S
C1071 C1072 1.389 . S
C1072 C1071 1.389 . S
C1072 C1073 1.387 . S
C1073 H1058 0.930 . S
C1073 C1068 1.390 . S
C1073 C1072 1.387 . S
H1074 C1086 0.930 . S
H1075 C1088 0.930 . S
H1076 C1089 0.930 . S
H1077 C1093 0.959 . S
H1078 C1093 0.959 . S
H1079 C1093 0.961 . S
H1080 C1094 0.960 . S
H1081 C1094 0.961 . S
H1082 C1094 0.959 . S
H1083 C1097 0.929 . S
H1084 C1098 0.931 . S
H1085 C1100 0.930 . S
C1086 H1074 0.930 . S
C1086 C1087 1.399 . S
C1086 C1091 1.399 . S
C1087 C1086 1.399 . S
C1087 C1088 1.376 . S
C1088 H1075 0.930 . S
C1088 C1087 1.376 . S
C1088 C1089 1.388 . S
C1089 H1076 0.930 . S
C1089 C1088 1.388 . S
C1089 C1090 1.390 . S
C1090 C1089 1.390 . S
C1090 C1091 1.394 . S
C1090 C1096 1.465 . S
C1091 C1086 1.399 . S
C1091 C1090 1.394 . S
C1091 C1092 1.516 . S
C1092 C1091 1.516 . S
C1092 C1093 1.502 . S
C1092 C1094 1.561 . S
C1092 C1095 1.526 . S
C1093 H1077 0.959 . S
C1093 H1078 0.959 . S
C1093 H1079 0.961 . S
C1093 C1092 1.502 . S
C1094 H1080 0.960 . S
C1094 H1081 0.961 . S
C1094 H1082 0.959 . S
C1094 C1092 1.561 . S
C1095 C1092 1.526 . S
C1095 C1096 1.396 . S
C1095 C1100 1.390 . S
C1096 C1090 1.465 . S
C1096 C1095 1.396 . S
C1096 C1097 1.399 . S
C1097 H1083 0.929 . S
C1097 C1096 1.399 . S
C1097 C1098 1.385 . S
C1098 H1084 0.931 . S
C1098 C1097 1.385 . S
C1098 C1099 1.389 . S
C1099 C1098 1.389 . S
C1099 C1100 1.387 . S
C1100 H1085 0.930 . S
C1100 C1095 1.390 . S
C1100 C1099 1.387 . S
H1101 C1113 0.930 . S
H1102 C1115 0.930 . S
H1103 C1116 0.930 . S
H1104 C1120 0.959 . S
H1105 C1120 0.959 . S
H1106 C1120 0.961 . S
H1107 C1121 0.960 . S
H1108 C1121 0.961 . S
H1109 C1121 0.959 . S
H1110 C1124 0.929 . S
H1111 C1125 0.931 . S
H1112 C1127 0.930 . S
C1113 H1101 0.930 . S
C1113 C1114 1.399 . S
C1113 C1118 1.399 . S
C1114 C1113 1.399 . S
C1114 C1115 1.376 . S
C1115 H1102 0.930 . S
C1115 C1114 1.376 . S
C1115 C1116 1.388 . S
C1116 H1103 0.930 . S
C1116 C1115 1.388 . S
C1116 C1117 1.390 . S
C1117 C1116 1.390 . S
C1117 C1118 1.394 . S
C1117 C1123 1.465 . S
C1118 C1113 1.399 . S
C1118 C1117 1.394 . S
C1118 C1119 1.516 . S
C1119 C1118 1.516 . S
C1119 C1120 1.502 . S
C1119 C1121 1.561 . S
C1119 C1122 1.526 . S
C1120 H1104 0.959 . S
C1120 H1105 0.959 . S
C1120 H1106 0.961 . S
C1120 C1119 1.502 . S
C1121 H1107 0.960 . S
C1121 H1108 0.961 . S
C1121 H1109 0.959 . S
C1121 C1119 1.561 . S
C1122 C1119 1.526 . S
C1122 C1123 1.396 . S
C1122 C1127 1.390 . S
C1123 C1117 1.465 . S
C1123 C1122 1.396 . S
C1123 C1124 1.399 . S
C1124 H1110 0.929 . S
C1124 C1123 1.399 . S
C1124 C1125 1.385 . S
C1125 H1111 0.931 . S
C1125 C1124 1.385 . S
C1125 C1126 1.389 . S
C1126 C1125 1.389 . S
C1126 C1127 1.387 . S
C1127 H1112 0.930 . S
C1127 C1122 1.390 . S
C1127 C1126 1.387 . S
H1128 C1140 0.930 . S
H1129 C1142 0.930 . S
H1130 C1143 0.930 . S
H1131 C1147 0.959 . S
H1132 C1147 0.959 . S
H1133 C1147 0.961 . S
H1134 C1148 0.960 . S
H1135 C1148 0.961 . S
H1136 C1148 0.959 . S
H1137 C1151 0.929 . S
H1138 C1152 0.931 . S
H1139 C1154 0.930 . S
C1140 H1128 0.930 . S
C1140 C1141 1.399 . S
C1140 C1145 1.399 . S
C1141 C1140 1.399 . S
C1141 C1142 1.376 . S
C1142 H1129 0.930 . S
C1142 C1141 1.376 . S
C1142 C1143 1.388 . S
C1143 H1130 0.930 . S
C1143 C1142 1.388 . S
C1143 C1144 1.390 . S
C1144 C1143 1.390 . S
C1144 C1145 1.394 . S
C1144 C1150 1.465 . S
C1145 C1140 1.399 . S
C1145 C1144 1.394 . S
C1145 C1146 1.516 . S
C1146 C1145 1.516 . S
C1146 C1147 1.502 . S
C1146 C1148 1.561 . S
C1146 C1149 1.526 . S
C1147 H1131 0.959 . S
C1147 H1132 0.959 . S
C1147 H1133 0.961 . S
C1147 C1146 1.502 . S
C1148 H1134 0.960 . S
C1148 H1135 0.961 . S
C1148 H1136 0.959 . S
C1148 C1146 1.561 . S
C1149 C1146 1.526 . S
C1149 C1150 1.396 . S
C1149 C1154 1.390 . S
C1150 C1144 1.465 . S
C1150 C1149 1.396 . S
C1150 C1151 1.399 . S
C1151 H1137 0.929 . S
C1151 C1150 1.399 . S
C1151 C1152 1.385 . S
C1152 H1138 0.931 . S
C1152 C1151 1.385 . S
C1152 C1153 1.389 . S
C1153 C1152 1.389 . S
C1153 C1154 1.387 . S
C1154 H1139 0.930 . S
C1154 C1149 1.390 . S
C1154 C1153 1.387 . S
H1155 C1167 0.930 . S
H1156 C1169 0.930 . S
H1157 C1170 0.930 . S
H1158 C1174 0.959 . S
H1159 C1174 0.959 . S
H1160 C1174 0.961 . S
H1161 C1175 0.960 . S
H1162 C1175 0.961 . S
H1163 C1175 0.959 . S
H1164 C1178 0.929 . S
H1165 C1179 0.931 . S
H1166 C1181 0.930 . S
C1167 H1155 0.930 . S
C1167 C1168 1.399 . S
C1167 C1172 1.399 . S
C1168 C1167 1.399 . S
C1168 C1169 1.376 . S
C1169 H1156 0.930 . S
C1169 C1168 1.376 . S
C1169 C1170 1.388 . S
C1170 H1157 0.930 . S
C1170 C1169 1.388 . S
C1170 C1171 1.390 . S
C1171 C1170 1.390 . S
C1171 C1172 1.394 . S
C1171 C1177 1.465 . S
C1172 C1167 1.399 . S
C1172 C1171 1.394 . S
C1172 C1173 1.516 . S
C1173 C1172 1.516 . S
C1173 C1174 1.502 . S
C1173 C1175 1.561 . S
C1173 C1176 1.526 . S
C1174 H1158 0.959 . S
C1174 H1159 0.959 . S
C1174 H1160 0.961 . S
C1174 C1173 1.502 . S
C1175 H1161 0.960 . S
C1175 H1162 0.961 . S
C1175 H1163 0.959 . S
C1175 C1173 1.561 . S
C1176 C1173 1.526 . S
C1176 C1177 1.396 . S
C1176 C1181 1.390 . S
C1177 C1171 1.465 . S
C1177 C1176 1.396 . S
C1177 C1178 1.399 . S
C1178 H1164 0.929 . S
C1178 C1177 1.399 . S
C1178 C1179 1.385 . S
C1179 H1165 0.931 . S
C1179 C1178 1.385 . S
C1179 C1180 1.389 . S
C1180 C1179 1.389 . S
C1180 C1181 1.387 . S
C1181 H1166 0.930 . S
C1181 C1176 1.390 . S
C1181 C1180 1.387 . S
H1182 C1194 0.930 . S
H1183 C1196 0.930 . S
H1184 C1197 0.930 . S
H1185 C1201 0.959 . S
H1186 C1201 0.959 . S
H1187 C1201 0.961 . S
H1188 C1202 0.960 . S
H1189 C1202 0.961 . S
H1190 C1202 0.959 . S
H1191 C1205 0.929 . S
H1192 C1206 0.931 . S
H1193 C1208 0.930 . S
C1194 H1182 0.930 . S
C1194 C1195 1.399 . S
C1194 C1199 1.399 . S
C1195 C1194 1.399 . S
C1195 C1196 1.376 . S
C1196 H1183 0.930 . S
C1196 C1195 1.376 . S
C1196 C1197 1.388 . S
C1197 H1184 0.930 . S
C1197 C1196 1.388 . S
C1197 C1198 1.390 . S
C1198 C1197 1.390 . S
C1198 C1199 1.394 . S
C1198 C1204 1.465 . S
C1199 C1194 1.399 . S
C1199 C1198 1.394 . S
C1199 C1200 1.516 . S
C1200 C1199 1.516 . S
C1200 C1201 1.502 . S
C1200 C1202 1.561 . S
C1200 C1203 1.526 . S
C1201 H1185 0.959 . S
C1201 H1186 0.959 . S
C1201 H1187 0.961 . S
C1201 C1200 1.502 . S
C1202 H1188 0.960 . S
C1202 H1189 0.961 . S
C1202 H1190 0.959 . S
C1202 C1200 1.561 . S
C1203 C1200 1.526 . S
C1203 C1204 1.396 . S
C1203 C1208 1.390 . S
C1204 C1198 1.465 . S
C1204 C1203 1.396 . S
C1204 C1205 1.399 . S
C1205 H1191 0.929 . S
C1205 C1204 1.399 . S
C1205 C1206 1.385 . S
C1206 H1192 0.931 . S
C1206 C1205 1.385 . S
C1206 C1207 1.389 . S
C1207 C1206 1.389 . S
C1207 C1208 1.387 . S
C1208 H1193 0.930 . S
C1208 C1203 1.390 . S
C1208 C1207 1.387 . S
H1209 C1221 0.930 . S
H1210 C1223 0.930 . S
H1211 C1224 0.930 . S
H1212 C1228 0.959 . S
H1213 C1228 0.959 . S
H1214 C1228 0.961 . S
H1215 C1229 0.960 . S
H1216 C1229 0.961 . S
H1217 C1229 0.959 . S
H1218 C1232 0.929 . S
H1219 C1233 0.931 1_554 S
H1220 C1235 0.930 . S
C1221 H1209 0.930 . S
C1221 C1222 1.399 . S
C1221 C1226 1.399 . S
C1222 C1221 1.399 . S
C1222 C1223 1.376 . S
C1223 H1210 0.930 . S
C1223 C1222 1.376 . S
C1223 C1224 1.388 . S
C1224 H1211 0.930 . S
C1224 C1223 1.388 . S
C1224 C1225 1.390 . S
C1225 C1224 1.390 . S
C1225 C1226 1.394 . S
C1225 C1231 1.465 . S
C1226 C1221 1.399 . S
C1226 C1225 1.394 . S
C1226 C1227 1.516 . S
C1227 C1226 1.516 . S
C1227 C1228 1.502 . S
C1227 C1229 1.561 . S
C1227 C1230 1.526 . S
C1228 H1212 0.959 . S
C1228 H1213 0.959 . S
C1228 H1214 0.961 . S
C1228 C1227 1.502 . S
C1229 H1215 0.960 . S
C1229 H1216 0.961 . S
C1229 H1217 0.959 . S
C1229 C1227 1.561 . S
C1230 C1227 1.526 . S
C1230 C1231 1.396 . S
C1230 C1235 1.390 . S
C1231 C1225 1.465 . S
C1231 C1230 1.396 . S
C1231 C1232 1.399 . S
C1232 H1218 0.929 . S
C1232 C1231 1.399 . S
C1232 C1233 1.385 . S
C1233 H1219 0.931 1_556 S
C1233 C1232 1.385 . S
C1233 C1234 1.389 . S
C1234 C1233 1.389 . S
C1234 C1235 1.387 . S
C1235 H1220 0.930 . S
C1235 C1230 1.390 . S
C1235 C1234 1.387 . S
H1236 C1248 0.930 . S
H1237 C1250 0.930 . S
H1238 C1251 0.930 . S
H1239 C1255 0.959 . S
H1240 C1255 0.959 . S
H1241 C1255 0.961 . S
H1242 C1256 0.960 . S
H1243 C1256 0.961 . S
H1244 C1256 0.959 . S
H1245 C1259 0.929 . S
H1246 C1260 0.931 . S
H1247 C1262 0.930 . S
C1248 H1236 0.930 . S
C1248 C1249 1.399 . S
C1248 C1253 1.399 . S
C1249 C1248 1.399 . S
C1249 C1250 1.376 . S
C1250 H1237 0.930 . S
C1250 C1249 1.376 . S
C1250 C1251 1.388 . S
C1251 H1238 0.930 . S
C1251 C1250 1.388 . S
C1251 C1252 1.390 . S
C1252 C1251 1.390 . S
C1252 C1253 1.394 . S
C1252 C1258 1.465 . S
C1253 C1248 1.399 . S
C1253 C1252 1.394 . S
C1253 C1254 1.516 . S
C1254 C1253 1.516 . S
C1254 C1255 1.502 . S
C1254 C1256 1.561 . S
C1254 C1257 1.526 . S
C1255 H1239 0.959 . S
C1255 H1240 0.959 . S
C1255 H1241 0.961 . S
C1255 C1254 1.502 . S
C1256 H1242 0.960 . S
C1256 H1243 0.961 . S
C1256 H1244 0.959 . S
C1256 C1254 1.561 . S
C1257 C1254 1.526 . S
C1257 C1258 1.396 . S
C1257 C1262 1.390 . S
C1258 C1252 1.465 . S
C1258 C1257 1.396 . S
C1258 C1259 1.399 . S
C1259 H1245 0.929 . S
C1259 C1258 1.399 . S
C1259 C1260 1.385 . S
C1260 H1246 0.931 . S
C1260 C1259 1.385 . S
C1260 C1261 1.389 . S
C1261 C1260 1.389 . S
C1261 C1262 1.387 . S
C1262 H1247 0.930 . S
C1262 C1257 1.390 . S
C1262 C1261 1.387 . S
H1263 C1275 0.930 . S
H1264 C1277 0.930 . S
H1265 C1278 0.930 . S
H1266 C1282 0.959 . S
H1267 C1282 0.959 . S
H1268 C1282 0.961 . S
H1269 C1283 0.960 . S
H1270 C1283 0.961 . S
H1271 C1283 0.959 . S
H1272 C1286 0.929 . S
H1273 C1287 0.931 . S
H1274 C1289 0.930 . S
C1275 H1263 0.930 . S
C1275 C1276 1.399 . S
C1275 C1280 1.399 . S
C1276 C1275 1.399 . S
C1276 C1277 1.376 . S
C1277 H1264 0.930 . S
C1277 C1276 1.376 . S
C1277 C1278 1.388 . S
C1278 H1265 0.930 . S
C1278 C1277 1.388 . S
C1278 C1279 1.390 . S
C1279 C1278 1.390 . S
C1279 C1280 1.394 . S
C1279 C1285 1.465 . S
C1280 C1275 1.399 . S
C1280 C1279 1.394 . S
C1280 C1281 1.516 . S
C1281 C1280 1.516 . S
C1281 C1282 1.502 . S
C1281 C1283 1.561 . S
C1281 C1284 1.526 . S
C1282 H1266 0.959 . S
C1282 H1267 0.959 . S
C1282 H1268 0.961 . S
C1282 C1281 1.502 . S
C1283 H1269 0.960 . S
C1283 H1270 0.961 . S
C1283 H1271 0.959 . S
C1283 C1281 1.561 . S
C1284 C1281 1.526 . S
C1284 C1285 1.396 . S
C1284 C1289 1.390 . S
C1285 C1279 1.465 . S
C1285 C1284 1.396 . S
C1285 C1286 1.399 . S
C1286 H1272 0.929 . S
C1286 C1285 1.399 . S
C1286 C1287 1.385 . S
C1287 H1273 0.931 . S
C1287 C1286 1.385 . S
C1287 C1288 1.389 . S
C1288 C1287 1.389 . S
C1288 C1289 1.387 . S
C1289 H1274 0.930 . S
C1289 C1284 1.390 . S
C1289 C1288 1.387 . S
H1290 C1302 0.930 . S
H1291 C1304 0.930 . S
H1292 C1305 0.930 . S
H1293 C1309 0.959 . S
H1294 C1309 0.959 . S
H1295 C1309 0.961 . S
H1296 C1310 0.960 . S
H1297 C1310 0.961 . S
H1298 C1310 0.959 . S
H1299 C1313 0.929 . S
H1300 C1314 0.931 . S
H1301 C1316 0.930 . S
C1302 H1290 0.930 . S
C1302 C1303 1.399 . S
C1302 C1307 1.399 . S
C1303 C1302 1.399 . S
C1303 C1304 1.376 . S
C1304 H1291 0.930 . S
C1304 C1303 1.376 . S
C1304 C1305 1.388 . S
C1305 H1292 0.930 . S
C1305 C1304 1.388 . S
C1305 C1306 1.390 . S
C1306 C1305 1.390 . S
C1306 C1307 1.394 . S
C1306 C1312 1.465 . S
C1307 C1302 1.399 . S
C1307 C1306 1.394 . S
C1307 C1308 1.516 . S
C1308 C1307 1.516 . S
C1308 C1309 1.502 . S
C1308 C1310 1.561 . S
C1308 C1311 1.526 . S
C1309 H1293 0.959 . S
C1309 H1294 0.959 . S
C1309 H1295 0.961 . S
C1309 C1308 1.502 . S
C1310 H1296 0.960 . S
C1310 H1297 0.961 . S
C1310 H1298 0.959 . S
C1310 C1308 1.561 . S
C1311 C1308 1.526 . S
C1311 C1312 1.396 . S
C1311 C1316 1.390 . S
C1312 C1306 1.465 . S
C1312 C1311 1.396 . S
C1312 C1313 1.399 . S
C1313 H1299 0.929 . S
C1313 C1312 1.399 . S
C1313 C1314 1.385 . S
C1314 H1300 0.931 . S
C1314 C1313 1.385 . S
C1314 C1315 1.389 . S
C1315 C1314 1.389 . S
C1315 C1316 1.387 . S
C1316 H1301 0.930 . S
C1316 C1311 1.390 . S
C1316 C1315 1.387 . S
H1317 C1329 0.930 . S
H1318 C1331 0.930 . S
H1319 C1332 0.930 . S
H1320 C1336 0.959 . S
H1321 C1336 0.959 . S
H1322 C1336 0.961 . S
H1323 C1337 0.960 . S
H1324 C1337 0.961 . S
H1325 C1337 0.959 . S
H1326 C1340 0.929 . S
H1327 C1341 0.931 . S
H1328 C1343 0.930 . S
C1329 H1317 0.930 . S
C1329 C1330 1.399 . S
C1329 C1334 1.399 . S
C1330 C1329 1.399 . S
C1330 C1331 1.376 . S
C1331 H1318 0.930 . S
C1331 C1330 1.376 . S
C1331 C1332 1.388 . S
C1332 H1319 0.930 . S
C1332 C1331 1.388 . S
C1332 C1333 1.390 . S
C1333 C1332 1.390 . S
C1333 C1334 1.394 . S
C1333 C1339 1.465 . S
C1334 C1329 1.399 . S
C1334 C1333 1.394 . S
C1334 C1335 1.516 . S
C1335 C1334 1.516 . S
C1335 C1336 1.502 . S
C1335 C1337 1.561 . S
C1335 C1338 1.526 . S
C1336 H1320 0.959 . S
C1336 H1321 0.959 . S
C1336 H1322 0.961 . S
C1336 C1335 1.502 . S
C1337 H1323 0.960 . S
C1337 H1324 0.961 . S
C1337 H1325 0.959 . S
C1337 C1335 1.561 . S
C1338 C1335 1.526 . S
C1338 C1339 1.396 . S
C1338 C1343 1.390 . S
C1339 C1333 1.465 . S
C1339 C1338 1.396 . S
C1339 C1340 1.399 . S
C1340 H1326 0.929 . S
C1340 C1339 1.399 . S
C1340 C1341 1.385 . S
C1341 H1327 0.931 . S
C1341 C1340 1.385 . S
C1341 C1342 1.389 . S
C1342 C1341 1.389 . S
C1342 C1343 1.387 . S
C1343 H1328 0.930 . S
C1343 C1338 1.390 . S
C1343 C1342 1.387 . S
H1344 C1356 0.930 . S
H1345 C1358 0.930 . S
H1346 C1359 0.930 . S
H1347 C1363 0.959 . S
H1348 C1363 0.959 . S
H1349 C1363 0.961 . S
H1350 C1364 0.960 . S
H1351 C1364 0.961 . S
H1352 C1364 0.959 . S
H1353 C1367 0.929 . S
H1354 C1368 0.931 . S
H1355 C1370 0.930 . S
C1356 H1344 0.930 . S
C1356 C1357 1.399 . S
C1356 C1361 1.399 . S
C1357 C1356 1.399 . S
C1357 C1358 1.376 . S
C1358 H1345 0.930 . S
C1358 C1357 1.376 . S
C1358 C1359 1.388 . S
C1359 H1346 0.930 . S
C1359 C1358 1.388 . S
C1359 C1360 1.390 . S
C1360 C1359 1.390 . S
C1360 C1361 1.394 . S
C1360 C1366 1.465 . S
C1361 C1356 1.399 . S
C1361 C1360 1.394 . S
C1361 C1362 1.516 . S
C1362 C1361 1.516 . S
C1362 C1363 1.502 . S
C1362 C1364 1.561 . S
C1362 C1365 1.526 . S
C1363 H1347 0.959 . S
C1363 H1348 0.959 . S
C1363 H1349 0.961 . S
C1363 C1362 1.502 . S
C1364 H1350 0.960 . S
C1364 H1351 0.961 . S
C1364 H1352 0.959 . S
C1364 C1362 1.561 . S
C1365 C1362 1.526 . S
C1365 C1366 1.396 . S
C1365 C1370 1.390 . S
C1366 C1360 1.465 . S
C1366 C1365 1.396 . S
C1366 C1367 1.399 . S
C1367 H1353 0.929 . S
C1367 C1366 1.399 . S
C1367 C1368 1.385 . S
C1368 H1354 0.931 . S
C1368 C1367 1.385 . S
C1368 C1369 1.389 . S
C1369 C1368 1.389 . S
C1369 C1370 1.387 . S
C1370 H1355 0.930 . S
C1370 C1365 1.390 . S
C1370 C1369 1.387 . S
H1371 C1383 0.930 . S
H1372 C1385 0.930 . S
H1373 C1386 0.930 . S
H1374 C1390 0.959 . S
H1375 C1390 0.959 . S
H1376 C1390 0.961 . S
H1377 C1391 0.960 . S
H1378 C1391 0.961 . S
H1379 C1391 0.959 . S
H1380 C1394 0.929 . S
H1381 C1395 0.931 . S
H1382 C1397 0.930 . S
C1383 H1371 0.930 . S
C1383 C1384 1.399 . S
C1383 C1388 1.399 . S
C1384 C1383 1.399 . S
C1384 C1385 1.376 . S
C1385 H1372 0.930 . S
C1385 C1384 1.376 . S
C1385 C1386 1.388 . S
C1386 H1373 0.930 . S
C1386 C1385 1.388 . S
C1386 C1387 1.390 . S
C1387 C1386 1.390 . S
C1387 C1388 1.394 . S
C1387 C1393 1.465 . S
C1388 C1383 1.399 . S
C1388 C1387 1.394 . S
C1388 C1389 1.516 . S
C1389 C1388 1.516 . S
C1389 C1390 1.502 . S
C1389 C1391 1.561 . S
C1389 C1392 1.526 . S
C1390 H1374 0.959 . S
C1390 H1375 0.959 . S
C1390 H1376 0.961 . S
C1390 C1389 1.502 . S
C1391 H1377 0.960 . S
C1391 H1378 0.961 . S
C1391 H1379 0.959 . S
C1391 C1389 1.561 . S
C1392 C1389 1.526 . S
C1392 C1393 1.396 . S
C1392 C1397 1.390 . S
C1393 C1387 1.465 . S
C1393 C1392 1.396 . S
C1393 C1394 1.399 . S
C1394 H1380 0.929 . S
C1394 C1393 1.399 . S
C1394 C1395 1.385 . S
C1395 H1381 0.931 . S
C1395 C1394 1.385 . S
C1395 C1396 1.389 . S
C1396 C1395 1.389 . S
C1396 C1397 1.387 . S
C1397 H1382 0.930 . S
C1397 C1392 1.390 . S
C1397 C1396 1.387 . S
H1398 C1410 0.930 . S
H1399 C1412 0.930 . S
H1400 C1413 0.930 . S
H1401 C1417 0.959 . S
H1402 C1417 0.959 . S
H1403 C1417 0.961 . S
H1404 C1418 0.960 . S
H1405 C1418 0.961 . S
H1406 C1418 0.959 . S
H1407 C1421 0.929 . S
H1408 C1422 0.901 1_556 S
H1409 C1424 0.930 . S
C1410 H1398 0.930 . S
C1410 C1411 1.399 . S
C1410 C1415 1.399 . S
C1411 C1410 1.399 . S
C1411 C1412 1.376 . S
C1412 H1399 0.930 . S
C1412 C1411 1.376 . S
C1412 C1413 1.388 . S
C1413 H1400 0.930 . S
C1413 C1412 1.388 . S
C1413 C1414 1.390 . S
C1414 C1413 1.390 . S
C1414 C1415 1.394 . S
C1414 C1420 1.465 . S
C1415 C1410 1.399 . S
C1415 C1414 1.394 . S
C1415 C1416 1.516 . S
C1416 C1415 1.516 . S
C1416 C1417 1.502 . S
C1416 C1418 1.561 . S
C1416 C1419 1.526 . S
C1417 H1401 0.959 . S
C1417 H1402 0.959 . S
C1417 H1403 0.961 . S
C1417 C1416 1.502 . S
C1418 H1404 0.960 . S
C1418 H1405 0.961 . S
C1418 H1406 0.959 . S
C1418 C1416 1.561 . S
C1419 C1416 1.526 . S
C1419 C1420 1.396 . S
C1419 C1424 1.390 . S
C1420 C1414 1.465 . S
C1420 C1419 1.396 . S
C1420 C1421 1.399 . S
C1421 H1407 0.929 . S
C1421 C1420 1.399 . S
C1421 C1422 1.413 . S
C1422 H1408 0.901 1_554 S
C1422 C1421 1.413 . S
C1422 C1423 1.392 . S
C1423 C1422 1.392 . S
C1423 C1424 1.387 . S
C1424 H1409 0.930 . S
C1424 C1419 1.390 . S
C1424 C1423 1.387 . S
H1425 C1437 0.930 . S
H1426 C1439 0.930 . S
H1427 C1440 0.930 . S
H1428 C1444 0.959 . S
H1429 C1444 0.959 . S
H1430 C1444 0.961 . S
H1431 C1445 0.960 . S
H1432 C1445 0.961 . S
H1433 C1445 0.959 . S
H1434 C1448 0.929 . S
H1435 C1449 0.931 . S
H1436 C1451 0.930 . S
C1437 H1425 0.930 . S
C1437 C1438 1.399 . S
C1437 C1442 1.399 . S
C1438 C1437 1.399 . S
C1438 C1439 1.376 . S
C1439 H1426 0.930 . S
C1439 C1438 1.376 . S
C1439 C1440 1.388 . S
C1440 H1427 0.930 . S
C1440 C1439 1.388 . S
C1440 C1441 1.390 . S
C1441 C1440 1.390 . S
C1441 C1442 1.394 . S
C1441 C1447 1.465 . S
C1442 C1437 1.399 . S
C1442 C1441 1.394 . S
C1442 C1443 1.516 . S
C1443 C1442 1.516 . S
C1443 C1444 1.502 . S
C1443 C1445 1.561 . S
C1443 C1446 1.526 . S
C1444 H1428 0.959 . S
C1444 H1429 0.959 . S
C1444 H1430 0.961 . S
C1444 C1443 1.502 . S
C1445 H1431 0.960 . S
C1445 H1432 0.961 . S
C1445 H1433 0.959 . S
C1445 C1443 1.561 . S
C1446 C1443 1.526 . S
C1446 C1447 1.396 . S
C1446 C1451 1.390 . S
C1447 C1441 1.465 . S
C1447 C1446 1.396 . S
C1447 C1448 1.399 . S
C1448 H1434 0.929 . S
C1448 C1447 1.399 . S
C1448 C1449 1.385 . S
C1449 H1435 0.931 . S
C1449 C1448 1.385 . S
C1449 C1450 1.389 . S
C1450 C1449 1.389 . S
C1450 C1451 1.387 . S
C1451 H1436 0.930 . S
C1451 C1446 1.390 . S
C1451 C1450 1.387 . S
C829 C745 1.637 . S
C817 C15 1.652 . S
C844 C61 1.641 . S
C856 C305 1.651 . S
C871 C114 1.605 . S
C883 C393 1.671 . S
C898 C139 1.610 . S
C910 C472 1.664 . S
C937 C569 1.651 . S
C925 C185 1.616 . S
C952 C245 1.598 . S
C964 C648 1.672 . S
C979 C47 1.657 . S
C991 C413 1.650 . S
C1006 C100 1.616 . S
C1018 C509 1.650 . S
C1033 C153 1.596 . S
C1045 C589 1.672 . S
C1072 C685 1.631 . S
C1060 C199 1.654 . S
C1099 C765 1.635 . S
C1087 C231 1.666 . S
C1126 C325 1.625 . S
C1114 C1 1.648 . S
C1141 C22 1.442 . S
C1153 C421 1.461 . S
C1168 C68 1.467 . S
C1180 C501 1.453 . S
C1207 C597 1.469 . S
C1195 C107 1.446 . S
C1222 C146 1.467 . S
C1234 C677 1.460 1_556 S
C1261 C773 1.464 . S
C1249 C192 1.449 . S
C1288 C333 1.469 . S
C1276 C252 1.446 . S
C1315 C736 1.461 . S
C1303 C54 1.448 . S
C1330 C93 1.468 . S
C1342 C296 1.455 . S
C1369 C384 1.465 . S
C1357 C160 1.442 . S
C1384 C206 1.446 . S
C1396 C481 1.452 . S
C1411 C238 1.466 . S
C1423 C560 1.464 1_554 S
C1438 C8 1.466 . S
C1450 C657 1.446 . S
