# Generated by pormake.
# Topology rtl, (3,6)-cn, num edge types: 1
# Building blocks:
#     Node 0, Type 0, BuildingBlock: CUQRIR_clean_linker_1, # of connection points: 3
#     Node 1, Type 0, BuildingBlock: CUQRIR_clean_linker_1, # of connection points: 3
#     Node 2, Type 0, BuildingBlock: CUQRIR_clean_linker_1, # of connection points: 3
#     Node 3, Type 0, BuildingBlock: CUQRIR_clean_linker_1, # of connection points: 3
#     Node 4, Type 1, BuildingBlock: KUMBOL_clean_sbu_1, # of connection points: 6
#     Node 5, Type 1, BuildingBlock: KUMBOL_clean_sbu_1, # of connection points: 6
#     Edge 6, Type (0, 1), BuildingBlock: AJUNOK_clean_linker_0, # of connection points: 2
#     Edge 7, Type (0, 1), BuildingBlock: AJUNOK_clean_linker_0, # of connection points: 2
#     Edge 8, Type (0, 1), BuildingBlock: AJUNOK_clean_linker_0, # of connection points: 2
#     Edge 9, Type (0, 1), BuildingBlock: AJUNOK_clean_linker_0, # of connection points: 2
#     Edge 10, Type (0, 1), BuildingBlock: AJUNOK_clean_linker_0, # of connection points: 2
#     Edge 11, Type (0, 1), BuildingBlock: AJUNOK_clean_linker_0, # of connection points: 2
#     Edge 12, Type (0, 1), BuildingBlock: AJUNOK_clean_linker_0, # of connection points: 2
#     Edge 13, Type (0, 1), BuildingBlock: AJUNOK_clean_linker_0, # of connection points: 2
#     Edge 14, Type (0, 1), BuildingBlock: AJUNOK_clean_linker_0, # of connection points: 2
#     Edge 15, Type (0, 1), BuildingBlock: AJUNOK_clean_linker_0, # of connection points: 2
#     Edge 16, Type (0, 1), BuildingBlock: AJUNOK_clean_linker_0, # of connection points: 2
#     Edge 17, Type (0, 1), BuildingBlock: AJUNOK_clean_linker_0, # of connection points: 2
# Relax obj value: 0.067
# Max RMSD: 0.251
# Mean RMSD: 0.190
data_MOF--net-rtl--node1-KUMBOL_clean_sbu_1--node2-CUQRIR_clean_linker_1--edge1-AJUNOK_clean_linker_0
_symmetry_space_group_name_H-M    P1
_symmetry_Int_Tables_number       1
_symmetry_cell_setting            triclinic
loop_
_symmetry_equiv_pos_as_xyz
'x, y, z'
_cell_length_a     23.674333
_cell_length_b     24.543652
_cell_length_c     18.449331
_cell_angle_alpha  70.912916
_cell_angle_beta   98.007139
_cell_angle_gamma 91.767941
loop_
_atom_site_label
_atom_site_type_symbol
_atom_site_fract_x
_atom_site_fract_y
_atom_site_fract_z
_atom_type_partial_charge
C0 C 0.23802 0.78876 0.9879 0.0
N1 N 0.19446 0.81295 1.00733 0.0
N2 N 0.26801 0.75113 0.05132 0.0
C3 C 0.25124 0.80229 0.90647 0.0
C4 C 0.24107 0.7537 0.1105 0.0
N5 N 0.19645 0.79159 0.08379 0.0
C6 C 0.25474 0.71557 0.19337 0.0
H7 H 0.2254 0.77413 0.87888 0.0
H8 H 0.29708 0.79458 0.90587 0.0
H9 H 0.23983 0.84774 0.87172 0.0
H10 H 0.28284 0.73914 0.22595 0.0
H11 H 0.27686 0.67523 0.19765 0.0
H12 H 0.21522 0.70459 0.22081 0.0
C13 C 0.73898 0.7294 0.77044 0.0
N14 N 0.69526 0.6965 0.75345 0.0
N15 N 0.7643 0.7563 0.70673 0.0
C16 C 0.75698 0.73476 0.84915 0.0
C17 C 0.73442 0.73892 0.65056 0.0
N18 N 0.69261 0.70271 0.67877 0.0
C19 C 0.74662 0.75713 0.56806 0.0
H20 H 0.71875 0.7402 0.87482 0.0
H21 H 0.78611 0.77135 0.84677 0.0
H22 H 0.77942 0.69451 0.88757 0.0
H23 H 0.76343 0.80157 0.55024 0.0
H24 H 0.70802 0.75507 0.52751 0.0
H25 H 0.77952 0.72753 0.56371 0.0
C26 C 0.76471 0.19031 0.2137 0.0
N27 N 0.80933 0.1611 0.20445 0.0
N28 N 0.75205 0.23875 0.15229 0.0
C29 C 0.73473 0.17225 0.28449 0.0
C30 C 0.79062 0.23803 0.10492 0.0
N31 N 0.82444 0.19015 0.13545 0.0
C32 C 0.80241 0.28876 0.03645 0.0
H33 H 0.73477 0.12469 0.31051 0.0
H34 H 0.68997 0.18849 0.27017 0.0
H35 H 0.7575 0.19004 0.32818 0.0
H36 H 0.79438 0.32982 0.0466 0.0
H37 H 0.77392 0.28824 0.98371 0.0
H38 H 0.84723 0.28737 1.02566 0.0
C39 C 0.29814 0.26857 0.44238 0.0
N40 N 0.3364 0.30893 0.45052 0.0
N41 N 0.26964 0.24956 0.50469 0.0
C42 C 0.29053 0.2464 0.3749 0.0
C43 C 0.29216 0.28002 0.55096 0.0
N44 N 0.33247 0.3163 0.51771 0.0
C45 C 0.27487 0.27391 0.62868 0.0
H46 H 0.26125 0.27611 0.3271 0.0
H47 H 0.27229 0.20256 0.39066 0.0
H48 H 0.33205 0.24555 0.35378 0.0
H49 H 0.29972 0.23781 0.67338 0.0
H50 H 0.22888 0.26387 0.62901 0.0
H51 H 0.28355 0.31337 0.64473 0.0
C52 C 0.99264 0.18941 0.55771 0.0
C53 C 0.90447 0.21873 0.47074 0.0
C54 C 0.93898 0.1761 0.52894 0.0
C55 C 0.92708 0.27333 0.43693 0.0
C56 C 1.01373 0.24565 0.52873 0.0
C57 C 0.98176 0.28676 0.46584 0.0
N58 N 0.02146 0.14912 0.6197 0.0
C59 C 0.06815 0.16427 0.66117 0.0
C60 C 0.06476 0.25967 0.56646 0.0
C61 C 0.09129 0.21921 0.63418 0.0
Gd62 Gd 0.05933 0.95749 0.54379 0.0
Gd63 Gd 0.98403 0.05507 0.65323 0.0
N64 N 0.9183 0.12333 0.56389 0.0
C65 C 0.84744 0.20615 0.45134 0.0
C66 C 0.86128 0.11292 0.55074 0.0
C67 C 0.8254 0.15345 0.4928 0.0
H68 H 0.84427 0.07206 0.58275 0.0
H69 H 0.78084 0.14407 0.48033 0.0
H70 H 0.15727 0.0492 0.45407 0.0
H71 H 0.08933 0.13297 0.71301 0.0
H72 H 0.26057 0.06551 0.47647 0.0
H73 H 0.81953 0.23783 0.4071 0.0
H74 H 0.90165 0.30628 0.39099 0.0
H75 H 0.04146 0.81773 0.62789 0.0
H76 H 0.08259 0.30228 0.54582 0.0
H77 H 0.12965 0.23017 0.66545 0.0
H78 H 0.33132 0.897 0.68597 0.0
H79 H 0.99773 0.32985 0.44173 0.0
H80 H 0.20012 0.7422 0.75912 0.0
H81 H 0.09773 0.73233 0.71564 0.0
N82 N 0.11099 0.8747 0.6238 0.0
C83 C 0.16759 0.88037 0.64342 0.0
C84 C 0.08612 0.82203 0.64669 0.0
C85 C 0.17556 0.77966 0.72101 0.0
C86 C 0.11784 0.77383 0.69632 0.0
C87 C 0.20146 0.83318 0.69334 0.0
H88 H 0.28708 0.80474 0.74955 0.0
N89 N 0.15871 0.97373 0.55309 0.0
C90 C 0.19228 0.93202 0.60737 0.0
C91 C 0.27629 0.98814 0.5749 0.0
C92 C 0.25192 0.93817 0.62031 0.0
C93 C 0.18311 0.01918 0.50288 0.0
C94 C 0.24185 0.02814 0.51457 0.0
O95 O 0.93632 0.03713 0.54796 0.0
O96 O 1.0113 0.04064 0.48291 0.0
O97 O 0.09239 0.93725 0.45109 0.0
O98 O 1.003 0.92681 0.46211 0.0
O99 O 0.93693 0.97334 0.65373 0.0
O100 O 0.98069 0.91546 0.59684 0.0
O101 O 0.0579 0.92172 0.67393 0.0
O102 O 0.06563 0.00465 0.70489 0.0
O103 O 0.97165 0.00906 0.77296 0.0
O104 O 0.94306 0.09682 0.71971 0.0
O105 O 0.07516 0.05341 0.51754 0.0
O106 O 0.07759 0.06292 0.63688 0.0
C107 C 0.95646 0.04312 0.48322 0.0
C108 C 0.94059 0.92613 0.6345 0.0
C109 C 0.04461 0.86748 0.40343 0.0
C110 C 0.07021 0.81919 0.3151 0.0
C111 C 0.02212 0.76675 0.42542 0.0
C112 C 0.02094 0.81612 0.44701 0.0
C113 C 0.04668 0.76808 0.36024 0.0
C114 C 0.06927 0.86875 0.33763 0.0
C115 C 0.0437 0.92038 0.42474 0.0
C116 C 0.28552 0.89284 0.67451 0.0
C117 C 0.26034 0.84027 0.71068 0.0
H118 H 0.3219 0.99465 0.58309 0.0
C119 C 0.06726 0.94829 0.72587 0.0
C120 C 0.09586 0.07748 0.56931 0.0
C121 C 0.977 0.06879 0.85161 0.0
C122 C 0.96392 0.10728 0.95529 0.0
C123 C 0.05864 0.10188 0.91951 0.0
C124 C 0.03574 0.07801 0.86307 0.0
C125 C 0.02307 0.11758 0.96405 0.0
C126 C 0.94184 0.08078 0.90001 0.0
C127 C 0.95102 0.05379 0.78356 0.0
H128 H 1.00423 0.72712 0.45964 0.0
H129 H 1.00161 0.81409 0.49766 0.0
H130 H 0.04825 0.72872 0.34608 0.0
H131 H 0.08743 0.90845 0.30372 0.0
H132 H 0.10393 0.1099 0.92717 0.0
H133 H 0.06357 0.06795 0.82724 0.0
H134 H 0.0421 0.13882 1.00427 0.0
H135 H 0.89726 0.06996 0.89304 0.0
C136 C 0.69377 0.564 0.16202 0.0
C137 C 0.69232 0.66143 0.07114 0.0
C138 C 0.66324 0.61234 0.1119 0.0
C139 C 0.75221 0.66108 0.08096 0.0
C140 C 0.75395 0.56377 0.17257 0.0
C141 C 0.78293 0.6124 0.13148 0.0
N142 N 0.66477 0.51741 0.20095 0.0
C143 C 0.69305 0.47021 0.25327 0.0
C144 C 0.78329 0.5147 0.22446 0.0
C145 C 0.75266 0.46788 0.26543 0.0
Gd146 Gd 0.45848 0.46702 1.0237 0.0
Gd147 Gd 0.56517 0.52384 0.17349 0.0
N148 N 0.60515 0.61089 0.10179 0.0
C149 C 0.66037 0.70945 1.02147 0.0
C150 C 0.5739 0.65813 0.05404 0.0
C151 C 0.60096 0.7078 1.01307 0.0
H152 H 0.52814 0.65788 0.04619 0.0
H153 H 0.57591 0.74478 0.97482 0.0
H154 H 0.51951 0.33389 0.11961 0.0
H155 H 0.66926 0.43533 0.2875 0.0
H156 H 0.49415 0.2417 0.20964 0.0
H157 H 0.68113 0.74809 0.98965 0.0
H158 H 0.7752 0.6983 0.04978 0.0
H159 H 0.33531 0.53648 0.94038 0.0
H160 H 0.8295 0.51287 0.23413 0.0
H161 H 0.77493 0.43026 0.3069 0.0
H162 H 0.29367 0.26072 0.21034 0.0
H163 H 0.82914 0.6129 0.13864 0.0
H164 H 0.19967 0.43674 0.04691 0.0
H165 H 0.23297 0.52578 0.9548 0.0
N166 N 0.36007 0.45755 0.02834 0.0
C167 C 0.34246 0.40708 0.07623 0.0
C168 C 0.32143 0.49901 0.98329 0.0
C169 C 0.24472 0.44195 0.04191 0.0
C170 C 0.26336 0.49236 0.99015 0.0
C171 C 0.28425 0.39811 0.0848 0.0
H172 H 0.22277 0.3379 0.14218 0.0
N173 N 0.43842 0.37359 0.10495 0.0
C174 C 0.38271 0.36387 0.11568 0.0
C175 C 0.40649 0.26682 0.20056 0.0
C176 C 0.36544 0.31045 0.16439 0.0
C177 C 0.47744 0.32944 0.13524 0.0
C178 C 0.46255 0.27607 0.18483 0.0
O179 O 0.59112 0.54015 0.05474 0.0
O180 O 0.50797 0.54694 0.96995 0.0
O181 O 0.46803 0.41106 0.95631 0.0
O182 O 0.41582 0.48821 0.90534 0.0
O183 O 0.48183 0.57301 0.12331 0.0
O184 O 0.43414 0.55818 1.01187 0.0
O185 O 0.43264 0.46531 0.13794 0.0
O186 O 0.51749 0.44136 0.21571 0.0
O187 O 0.51883 0.55659 0.24432 0.0
O188 O 0.60532 0.5252 0.28657 0.0
O189 O 0.55113 0.43681 0.05356 0.0
O190 O 0.58007 0.43188 0.18027 0.0
C191 C 0.56261 0.5565 0.9845 0.0
C192 C 0.44148 0.58591 0.06306 0.0
C193 C 0.46236 0.45582 0.82176 0.0
C194 C 0.45783 0.44287 0.69572 0.0
C195 C 0.53838 0.49134 0.74335 0.0
C196 C 0.51464 0.48387 0.81127 0.0
C197 C 0.51043 0.47039 0.68601 0.0
C198 C 0.43395 0.43597 0.76364 0.0
C199 C 0.43782 0.44435 0.89403 0.0
C200 C 0.30768 0.30171 0.17396 0.0
C201 C 0.26725 0.34552 0.1347 0.0
H202 H 0.39497 0.22525 0.23852 0.0
C203 C 0.46167 0.44235 0.20683 0.0
C204 C 0.58522 0.41619 0.11956 0.0
C205 C 0.57605 0.60371 0.31931 0.0
C206 C 0.5958 0.65129 0.4171 0.0
C207 C 0.59506 0.70618 0.28071 0.0
C208 C 0.5826 0.65643 0.26153 0.0
C209 C 0.60164 0.70376 0.35786 0.0
C210 C 0.58281 0.6011 0.39734 0.0
C211 C 0.56241 0.55174 0.29781 0.0
H212 H 0.57884 0.51275 0.73556 0.0
H213 H 0.53729 0.49918 0.85584 0.0
H214 H 0.52973 0.47564 0.63427 0.0
H215 H 0.39394 0.41356 0.77224 0.0
H216 H 0.59996 0.74668 0.23566 0.0
H217 H 0.57758 0.6593 0.20145 0.0
H218 H 0.61265 0.74285 0.37141 0.0
H219 H 0.57798 0.56039 0.44221 0.0
C220 C 0.2323 0.15916 0.58798 0.0
C221 C 0.22591 0.20665 0.51935 0.0
C222 C 0.18957 0.11779 0.60427 0.0
C223 C 0.13986 0.12177 0.55134 0.0
H224 H 0.27071 0.15397 0.62913 0.0
H225 H 0.1959 0.08186 0.65786 0.0
S226 S 0.10086 0.23943 0.36611 0.0
N227 N 0.16421 0.25731 0.40099 0.0
N228 N 0.08553 0.17739 0.42916 0.0
C229 C 0.13299 0.16876 0.48248 0.0
C230 C 0.17567 0.21177 0.46702 0.0
C231 C 0.30563 0.678 1.00467 0.0
C232 C 0.31296 0.71225 0.05299 0.0
C233 C 0.34877 0.64022 1.00485 0.0
C234 C 0.40006 0.63277 0.05596 0.0
H235 H 0.26595 0.68013 0.96673 0.0
H236 H 0.34107 0.61633 0.96512 0.0
S237 S 0.44226 0.71851 0.18777 0.0
N238 N 0.37729 0.74211 0.14645 0.0
N239 N 0.4572 0.66818 0.15168 0.0
C240 C 0.40845 0.66853 0.10306 0.0
C241 C 0.36506 0.70852 0.10078 0.0
C242 C 0.86135 0.78381 0.67622 0.0
C243 C 0.80997 0.79699 0.69716 0.0
C244 C 0.90339 0.82564 0.65627 0.0
C245 C 0.89547 0.88233 0.65631 0.0
H246 H 0.86839 0.74109 0.6738 0.0
H247 H 0.94213 0.81334 0.64029 0.0
S248 S 0.76586 0.93824 0.70384 0.0
N249 N 0.75204 0.8699 0.71474 0.0
N250 N 0.83042 0.94897 0.67815 0.0
C251 C 0.84382 0.89564 0.67769 0.0
C252 C 0.80125 0.85289 0.69784 0.0
C253 C 0.70763 0.30653 0.20219 0.0
C254 C 0.71053 0.2832 0.14274 0.0
C255 C 0.66626 0.34822 0.19489 0.0
C256 C 0.62823 0.37099 0.12614 0.0
H257 H 0.73727 0.29205 0.25515 0.0
H258 H 0.66392 0.36184 0.2442 0.0
S259 S 0.61689 0.32139 0.95439 0.0
N260 N 0.6692 0.28172 1.01563 0.0
N261 N 0.5955 0.36469 0.99764 0.0
C262 C 0.63117 0.34805 0.06573 0.0
C263 C 0.67156 0.30345 0.07488 0.0
C264 C 0.18432 0.83518 0.18332 0.0
C265 C 0.16043 0.80751 0.13077 0.0
C266 C 0.15384 0.84138 0.24035 0.0
C267 C 0.09843 0.8195 0.24741 0.0
H268 H 0.2279 0.84987 0.18221 0.0
H269 H 0.17494 0.86083 0.2816 0.0
S270 S 1.01557 0.74708 0.11978 0.0
N271 N 0.07774 0.7603 0.087 0.0
N272 N 0.01943 0.77306 0.19237 0.0
C273 C 0.0732 0.79409 0.19264 0.0
C274 C 0.10442 0.78783 0.13474 0.0
C275 C 0.6855 0.61391 0.87038 0.0
C276 C 0.66025 0.65937 0.80677 0.0
C277 C 0.65319 0.58019 0.92657 0.0
C278 C 0.59418 0.59023 0.9207 0.0
H279 H 0.73077 0.60497 0.87712 0.0
H280 H 0.67476 0.54622 0.97539 0.0
S281 S 0.50846 0.70571 0.7661 0.0
N282 N 0.57367 0.71422 0.74226 0.0
N283 N 0.51209 0.64953 0.84613 0.0
C284 C 0.56824 0.63497 0.85641 0.0
C285 C 0.6015 0.66989 0.79987 0.0
C286 C 0.8947 0.1564 0.29811 0.0
C287 C 0.84877 0.12811 0.26949 0.0
C288 C 0.93058 0.12778 0.36618 0.0
C289 C 0.91982 0.07086 0.40998 0.0
H290 H 0.9024 0.20125 0.26755 0.0
H291 H 0.96578 0.15093 0.38607 0.0
S292 S 0.80414 0.9784 0.36176 0.0
N293 N 0.79483 0.04001 0.28941 0.0
N294 N 0.86016 0.98707 0.42113 0.0
C295 C 0.8737 0.04221 0.38289 0.0
C296 C 0.83843 0.07075 0.31179 0.0
C297 C 0.42336 0.3395 0.58271 0.0
C298 C 0.36652 0.35441 0.54994 0.0
C299 C 0.4543 0.37092 0.62591 0.0
C300 C 0.42884 0.41767 0.63807 0.0
H301 H 0.44283 0.30164 0.5781 0.0
H302 H 0.49715 0.35659 0.65359 0.0
S303 S 0.28305 0.47706 0.55671 0.0
N304 N 0.2878 0.42154 0.52578 0.0
N305 N 0.3452 0.48006 0.60856 0.0
C306 C 0.373 0.43467 0.60196 0.0
C307 C 0.34199 0.40317 0.55728 0.0
C308 C 0.60751 0.70668 0.58595 0.0
C309 C 0.65447 0.67501 0.6347 0.0
C310 C 0.58385 0.69411 0.51948 0.0
C311 C 0.60726 0.65015 0.49878 0.0
H312 H 0.59327 0.74537 0.59445 0.0
H313 H 0.55062 0.7225 0.48021 0.0
S314 S 0.72524 0.54977 0.61424 0.0
N315 N 0.71877 0.59366 0.66414 0.0
N316 N 0.67543 0.57022 0.53808 0.0
C317 C 0.65026 0.61429 0.5516 0.0
C318 C 0.67374 0.62685 0.61984 0.0
C319 C 0.91415 0.14618 0.12138 0.0
C320 C 0.85799 0.16659 0.0923 0.0
C321 C 0.94696 0.12537 0.07795 0.0
C322 C 0.92602 0.12605 1.00207 0.0
H323 H 0.93386 0.14718 0.17715 0.0
H324 H 0.98946 0.10905 0.10438 0.0
S325 S 0.78003 0.17436 0.90014 0.0
N326 N 0.78074 0.18124 0.9862 0.0
N327 N 0.84446 0.15079 0.89987 0.0
C328 C 0.86957 0.14656 0.97243 0.0
C329 C 0.83531 0.16479 1.01847 0.0
C330 C 0.42633 0.33262 0.39427 0.0
C331 C 0.36841 0.34437 0.39219 0.0
C332 C 0.45693 0.3655 0.33509 0.0
C333 C 0.43025 0.41086 0.27191 0.0
H334 H 0.44759 0.29716 0.44112 0.0
H335 H 0.50125 0.3543 0.33783 0.0
S336 S 0.27947 0.45992 0.24381 0.0
N337 N 0.28591 0.40468 0.32504 0.0
N338 N 0.34276 0.46727 0.21401 0.0
C339 C 0.37239 0.4235 0.27072 0.0
C340 C 0.34159 0.38998 0.33082 0.0
C341 C 0.15654 0.9079 0.92396 0.0
C342 C 0.15013 0.84795 0.95229 0.0
C343 C 0.12687 0.94095 0.85231 0.0
C344 C 0.09028 0.91476 0.80665 0.0
H345 H 0.18814 0.92844 0.95434 0.0
H346 H 0.13567 0.98656 0.83044 0.0
S347 S 0.05279 0.76015 0.86208 0.0
N348 N 0.10123 0.7645 0.93351 0.0
N349 N 0.04304 0.82655 0.80106 0.0
C350 C 0.07996 0.85556 0.83791 0.0
C351 C 0.11051 0.82214 0.91024 0.0
loop_
_geom_bond_atom_site_label_1
_geom_bond_atom_site_label_2
_geom_bond_distance
_geom_bond_site_symmetry_2
_ccdc_geom_bond_type
C0 N1 1.317 . S
C0 N2 1.348 1_556 S
C0 C3 1.485 . S
N1 C0 1.317 . S
N1 N5 1.370 1_556 S
N2 C0 1.348 1_554 S
N2 C4 1.346 . S
C3 C0 1.485 . S
C3 H7 0.960 . S
C3 H8 0.961 . S
C3 H9 0.960 . S
C4 N2 1.346 . S
C4 N5 1.307 . S
C4 C6 1.486 . S
N5 N1 1.370 1_554 S
N5 C4 1.307 . S
C6 C4 1.486 . S
C6 H10 0.960 . S
C6 H11 0.960 . S
C6 H12 0.959 . S
H7 C3 0.960 . S
H8 C3 0.961 . S
H9 C3 0.960 . S
H10 C6 0.960 . S
H11 C6 0.960 . S
H12 C6 0.959 . S
C13 N14 1.317 . S
C13 N15 1.348 . S
C13 C16 1.485 . S
N14 C13 1.317 . S
N14 N18 1.370 . S
N15 C13 1.348 . S
N15 C17 1.346 . S
C16 C13 1.485 . S
C16 H20 0.960 . S
C16 H21 0.961 . S
C16 H22 0.960 . S
C17 N15 1.346 . S
C17 N18 1.307 . S
C17 C19 1.486 . S
N18 N14 1.370 . S
N18 C17 1.307 . S
C19 C17 1.486 . S
C19 H23 0.960 . S
C19 H24 0.960 . S
C19 H25 0.959 . S
H20 C16 0.960 . S
H21 C16 0.961 . S
H22 C16 0.960 . S
H23 C19 0.960 . S
H24 C19 0.960 . S
H25 C19 0.959 . S
C26 N27 1.317 . S
C26 N28 1.348 . S
C26 C29 1.485 . S
N27 C26 1.317 . S
N27 N31 1.370 . S
N28 C26 1.348 . S
N28 C30 1.346 . S
C29 C26 1.485 . S
C29 H33 0.960 . S
C29 H34 0.961 . S
C29 H35 0.960 . S
C30 N28 1.346 . S
C30 N31 1.307 . S
C30 C32 1.486 1_554 S
N31 N27 1.370 . S
N31 C30 1.307 . S
C32 C30 1.486 1_556 S
C32 H36 0.960 . S
C32 H37 0.960 . S
C32 H38 0.959 . S
H33 C29 0.960 . S
H34 C29 0.961 . S
H35 C29 0.960 . S
H36 C32 0.960 . S
H37 C32 0.960 . S
H38 C32 0.959 . S
C39 N40 1.317 . S
C39 N41 1.348 . S
C39 C42 1.485 . S
N40 C39 1.317 . S
N40 N44 1.370 . S
N41 C39 1.348 . S
N41 C43 1.346 . S
C42 C39 1.485 . S
C42 H46 0.960 . S
C42 H47 0.961 . S
C42 H48 0.960 . S
C43 N41 1.346 . S
C43 N44 1.307 . S
C43 C45 1.486 . S
N44 N40 1.370 . S
N44 C43 1.307 . S
C45 C43 1.486 . S
C45 H49 0.960 . S
C45 H50 0.960 . S
C45 H51 0.959 . S
H46 C42 0.960 . S
H47 C42 0.961 . S
H48 C42 0.960 . S
H49 C45 0.960 . S
H50 C45 0.960 . S
H51 C45 0.959 . S
C52 C54 1.422 . S
C52 C56 1.415 . S
C52 N58 1.369 . S
C53 C54 1.421 . S
C53 C55 1.417 . S
C53 C65 1.422 . S
C54 C52 1.422 . S
C54 C53 1.421 . S
C54 N64 1.359 . S
C55 C53 1.417 . S
C55 C57 1.329 . S
C55 H74 0.930 . S
C56 C52 1.415 . S
C56 C57 1.437 . S
C56 C60 1.413 . S
C57 C55 1.329 . S
C57 C56 1.437 . S
C57 H79 0.929 . S
N58 C52 1.369 . S
N58 C59 1.338 1_655 S
N58 Gd63 2.622 . S
C59 N58 1.338 1_455 S
C59 C61 1.378 . S
C59 H71 0.929 . S
C60 C56 1.413 . S
C60 C61 1.348 1_655 S
C60 H76 0.931 . S
C61 C59 1.378 . S
C61 C60 1.348 1_455 S
C61 H77 0.930 . S
Gd62 N82 2.622 . S
Gd62 N89 2.570 . S
Gd62 O96 2.353 1_465 S
Gd62 O97 2.468 . S
Gd62 O98 2.427 . S
Gd62 O100 2.388 1_455 S
Gd62 O101 2.386 . S
Gd62 O105 2.307 1_565 S
Gd62 C115 2.805 . S
Gd63 N58 2.622 . S
Gd63 N64 2.570 . S
Gd63 O95 2.386 . S
Gd63 O99 2.307 1_545 S
Gd63 O102 2.353 1_655 S
Gd63 O103 2.468 . S
Gd63 O104 2.427 . S
Gd63 O106 2.388 1_655 S
Gd63 C127 2.805 . S
N64 C54 1.359 . S
N64 Gd63 2.570 . S
N64 C66 1.343 . S
C65 C53 1.422 . S
C65 C67 1.321 . S
C65 H73 0.931 . S
C66 N64 1.343 . S
C66 C67 1.390 . S
C66 H68 0.931 . S
C67 C65 1.321 . S
C67 C66 1.390 . S
C67 H69 0.930 . S
H68 C66 0.931 . S
H69 C67 0.930 . S
H70 C93 0.931 . S
H71 C59 0.929 . S
H72 C94 0.930 . S
H73 C65 0.931 . S
H74 C55 0.930 . S
H75 C84 0.929 1_655 S
H76 C60 0.931 . S
H77 C61 0.930 . S
H78 C116 0.930 . S
H79 C57 0.929 . S
H80 C85 0.931 . S
H81 C86 0.930 1_655 S
N82 Gd62 2.622 . S
N82 C83 1.369 . S
N82 C84 1.338 . S
C83 N82 1.369 . S
C83 C87 1.415 . S
C83 C90 1.422 . S
C84 H75 0.929 1_455 S
C84 N82 1.338 . S
C84 C86 1.378 . S
C85 H80 0.931 . S
C85 C86 1.348 . S
C85 C87 1.413 . S
C86 H81 0.930 1_455 S
C86 C84 1.378 . S
C86 C85 1.348 . S
C87 C83 1.415 . S
C87 C85 1.413 . S
C87 C117 1.437 . S
H88 C117 0.929 . S
N89 Gd62 2.570 . S
N89 C90 1.359 . S
N89 C93 1.343 . S
C90 C83 1.422 . S
C90 N89 1.359 . S
C90 C92 1.421 . S
C91 C92 1.422 . S
C91 C94 1.321 . S
C91 H118 0.931 . S
C92 C90 1.421 . S
C92 C91 1.422 . S
C92 C116 1.417 . S
C93 H70 0.931 . S
C93 N89 1.343 . S
C93 C94 1.390 . S
C94 H72 0.930 . S
C94 C91 1.321 . S
C94 C93 1.390 . S
O95 Gd63 2.386 . S
O95 C107 1.265 . S
O96 Gd62 2.353 1_645 S
O96 C107 1.242 . S
O97 Gd62 2.468 . S
O97 C115 1.263 . S
O98 Gd62 2.427 . S
O98 C115 1.252 . S
O99 Gd63 2.307 1_565 S
O99 C108 1.261 . S
O100 Gd62 2.388 1_655 S
O100 C108 1.252 . S
O101 Gd62 2.386 . S
O101 C119 1.265 . S
O102 Gd63 2.353 1_455 S
O102 C119 1.242 1_545 S
O103 Gd63 2.468 . S
O103 C127 1.263 . S
O104 Gd63 2.427 . S
O104 C127 1.252 . S
O105 Gd62 2.307 1_545 S
O105 C120 1.261 . S
O106 Gd63 2.388 1_455 S
O106 C120 1.252 . S
C107 O95 1.265 . S
C107 O96 1.242 . S
C108 O99 1.261 . S
C108 O100 1.252 . S
C109 C112 1.394 . S
C109 C114 1.370 . S
C109 C115 1.500 . S
C110 C113 1.383 . S
C110 C114 1.395 . S
C111 C112 1.396 . S
C111 C113 1.365 . S
C111 H128 0.929 . S
C112 C109 1.394 . S
C112 C111 1.396 . S
C112 H129 0.930 . S
C113 C110 1.383 . S
C113 C111 1.365 . S
C113 H130 0.931 . S
C114 C109 1.370 . S
C114 C110 1.395 . S
C114 H131 0.930 . S
C115 Gd62 2.805 . S
C115 O97 1.263 . S
C115 O98 1.252 . S
C115 C109 1.500 . S
C116 H78 0.930 . S
C116 C92 1.417 . S
C116 C117 1.329 . S
C117 C87 1.437 . S
C117 H88 0.929 . S
C117 C116 1.329 . S
H118 C91 0.931 . S
C119 O101 1.265 . S
C119 O102 1.242 1_565 S
C120 O105 1.261 . S
C120 O106 1.252 . S
C121 C124 1.394 . S
C121 C126 1.370 . S
C121 C127 1.500 . S
C122 C125 1.383 . S
C122 C126 1.395 . S
C123 C124 1.396 . S
C123 C125 1.365 . S
C123 H132 0.929 . S
C124 C121 1.394 . S
C124 C123 1.396 . S
C124 H133 0.930 . S
C125 C122 1.383 . S
C125 C123 1.365 . S
C125 H134 0.931 . S
C126 C121 1.370 . S
C126 C122 1.395 . S
C126 H135 0.930 . S
C127 Gd63 2.805 . S
C127 O103 1.263 . S
C127 O104 1.252 . S
C127 C121 1.500 . S
H128 C111 0.929 . S
H129 C112 0.930 . S
H130 C113 0.931 . S
H131 C114 0.930 . S
H132 C123 0.929 . S
H133 C124 0.930 . S
H134 C125 0.931 . S
H135 C126 0.930 . S
C136 C138 1.422 . S
C136 C140 1.415 . S
C136 N142 1.369 . S
C137 C138 1.421 . S
C137 C139 1.417 . S
C137 C149 1.422 . S
C138 C136 1.422 . S
C138 C137 1.421 . S
C138 N148 1.359 . S
C139 C137 1.417 . S
C139 C141 1.329 . S
C139 H158 0.930 . S
C140 C136 1.415 . S
C140 C141 1.437 . S
C140 C144 1.413 . S
C141 C139 1.329 . S
C141 C140 1.437 . S
C141 H163 0.929 . S
N142 C136 1.369 . S
N142 C143 1.338 . S
N142 Gd147 2.622 . S
C143 N142 1.338 . S
C143 C145 1.378 . S
C143 H155 0.929 . S
C144 C140 1.413 . S
C144 C145 1.348 . S
C144 H160 0.931 . S
C145 C143 1.378 . S
C145 C144 1.348 . S
C145 H161 0.930 . S
Gd146 N166 2.622 . S
Gd146 N173 2.570 . S
Gd146 O180 2.353 1_554 S
Gd146 O181 2.468 1_554 S
Gd146 O182 2.427 1_554 S
Gd146 O184 2.388 . S
Gd146 O185 2.386 . S
Gd146 O189 2.307 . S
Gd146 C199 2.805 1_554 S
Gd147 N142 2.622 . S
Gd147 N148 2.570 . S
Gd147 O179 2.386 . S
Gd147 O183 2.307 . S
Gd147 O186 2.353 . S
Gd147 O187 2.468 . S
Gd147 O188 2.427 . S
Gd147 O190 2.388 . S
Gd147 C211 2.805 . S
N148 C138 1.359 . S
N148 Gd147 2.570 . S
N148 C150 1.343 . S
C149 C137 1.422 . S
C149 C151 1.321 . S
C149 H157 0.931 . S
C150 N148 1.343 . S
C150 C151 1.390 . S
C150 H152 0.931 . S
C151 C149 1.321 . S
C151 C150 1.390 . S
C151 H153 0.930 . S
H152 C150 0.931 . S
H153 C151 0.930 . S
H154 C177 0.931 . S
H155 C143 0.929 . S
H156 C178 0.930 . S
H157 C149 0.931 . S
H158 C139 0.930 . S
H159 C168 0.929 . S
H160 C144 0.931 . S
H161 C145 0.930 . S
H162 C200 0.930 . S
H163 C141 0.929 . S
H164 C169 0.931 . S
H165 C170 0.930 . S
N166 Gd146 2.622 . S
N166 C167 1.369 . S
N166 C168 1.338 1_554 S
C167 N166 1.369 . S
C167 C171 1.415 . S
C167 C174 1.422 . S
C168 H159 0.929 . S
C168 N166 1.338 1_556 S
C168 C170 1.378 . S
C169 H164 0.931 . S
C169 C170 1.348 1_554 S
C169 C171 1.413 . S
C170 H165 0.930 . S
C170 C168 1.378 . S
C170 C169 1.348 1_556 S
C171 C167 1.415 . S
C171 C169 1.413 . S
C171 C201 1.437 . S
H172 C201 0.929 . S
N173 Gd146 2.570 . S
N173 C174 1.359 . S
N173 C177 1.343 . S
C174 C167 1.422 . S
C174 N173 1.359 . S
C174 C176 1.421 . S
C175 C176 1.422 . S
C175 C178 1.321 . S
C175 H202 0.931 . S
C176 C174 1.421 . S
C176 C175 1.422 . S
C176 C200 1.417 . S
C177 H154 0.931 . S
C177 N173 1.343 . S
C177 C178 1.390 . S
C178 H156 0.930 . S
C178 C175 1.321 . S
C178 C177 1.390 . S
O179 Gd147 2.386 . S
O179 C191 1.265 1_554 S
O180 Gd146 2.353 1_556 S
O180 C191 1.242 . S
O181 Gd146 2.468 1_556 S
O181 C199 1.263 . S
O182 Gd146 2.427 1_556 S
O182 C199 1.252 . S
O183 Gd147 2.307 . S
O183 C192 1.261 . S
O184 Gd146 2.388 . S
O184 C192 1.252 . S
O185 Gd146 2.386 . S
O185 C203 1.265 . S
O186 Gd147 2.353 . S
O186 C203 1.242 . S
O187 Gd147 2.468 . S
O187 C211 1.263 . S
O188 Gd147 2.427 . S
O188 C211 1.252 . S
O189 Gd146 2.307 . S
O189 C204 1.261 . S
O190 Gd147 2.388 . S
O190 C204 1.252 . S
C191 O179 1.265 1_556 S
C191 O180 1.242 . S
C192 O183 1.261 . S
C192 O184 1.252 . S
C193 C196 1.394 . S
C193 C198 1.370 . S
C193 C199 1.500 . S
C194 C197 1.383 . S
C194 C198 1.395 . S
C195 C196 1.396 . S
C195 C197 1.365 . S
C195 H212 0.929 . S
C196 C193 1.394 . S
C196 C195 1.396 . S
C196 H213 0.930 . S
C197 C194 1.383 . S
C197 C195 1.365 . S
C197 H214 0.931 . S
C198 C193 1.370 . S
C198 C194 1.395 . S
C198 H215 0.930 . S
C199 Gd146 2.805 1_556 S
C199 O181 1.263 . S
C199 O182 1.252 . S
C199 C193 1.500 . S
C200 H162 0.930 . S
C200 C176 1.417 . S
C200 C201 1.329 . S
C201 C171 1.437 . S
C201 H172 0.929 . S
C201 C200 1.329 . S
H202 C175 0.931 . S
C203 O185 1.265 . S
C203 O186 1.242 . S
C204 O189 1.261 . S
C204 O190 1.252 . S
C205 C208 1.394 . S
C205 C210 1.370 . S
C205 C211 1.500 . S
C206 C209 1.383 . S
C206 C210 1.395 . S
C207 C208 1.396 . S
C207 C209 1.365 . S
C207 H216 0.929 . S
C208 C205 1.394 . S
C208 C207 1.396 . S
C208 H217 0.930 . S
C209 C206 1.383 . S
C209 C207 1.365 . S
C209 H218 0.931 . S
C210 C205 1.370 . S
C210 C206 1.395 . S
C210 H219 0.930 . S
C211 Gd147 2.805 . S
C211 O187 1.263 . S
C211 O188 1.252 . S
C211 C205 1.500 . S
H212 C195 0.929 . S
H213 C196 0.930 . S
H214 C197 0.931 . S
H215 C198 0.930 . S
H216 C207 0.929 . S
H217 C208 0.930 . S
H218 C209 0.931 . S
H219 C210 0.930 . S
C220 C221 1.369 . S
C220 C222 1.419 . S
C220 H224 0.930 . S
C221 C220 1.369 . S
C221 C230 1.429 . S
C222 C220 1.419 . S
C222 C223 1.363 . S
C222 H225 0.929 . S
C223 C222 1.363 . S
C223 C229 1.428 . S
H224 C220 0.930 . S
H225 C222 0.929 . S
S226 N227 1.613 . S
S226 N228 1.610 . S
N227 S226 1.613 . S
N227 C230 1.350 . S
N228 S226 1.610 . S
N228 C229 1.351 . S
C229 C223 1.428 . S
C229 N228 1.351 . S
C229 C230 1.434 . S
C230 C221 1.429 . S
C230 N227 1.350 . S
C230 C229 1.434 . S
C231 C232 1.369 1_556 S
C231 C233 1.419 . S
C231 H235 0.930 . S
C232 C231 1.369 1_554 S
C232 C241 1.429 . S
C233 C231 1.419 . S
C233 C234 1.363 1_556 S
C233 H236 0.929 . S
C234 C233 1.363 1_554 S
C234 C240 1.428 . S
H235 C231 0.930 . S
H236 C233 0.929 . S
S237 N238 1.613 . S
S237 N239 1.610 . S
N238 S237 1.613 . S
N238 C241 1.350 . S
N239 S237 1.610 . S
N239 C240 1.351 . S
C240 C234 1.428 . S
C240 N239 1.351 . S
C240 C241 1.434 . S
C241 C232 1.429 . S
C241 N238 1.350 . S
C241 C240 1.434 . S
C242 C243 1.369 . S
C242 C244 1.419 . S
C242 H246 0.930 . S
C243 C242 1.369 . S
C243 C252 1.429 . S
C244 C242 1.419 . S
C244 C245 1.363 . S
C244 H247 0.929 . S
C245 C244 1.363 . S
C245 C251 1.428 . S
H246 C242 0.930 . S
H247 C244 0.929 . S
S248 N249 1.613 . S
S248 N250 1.610 . S
N249 S248 1.613 . S
N249 C252 1.350 . S
N250 S248 1.610 . S
N250 C251 1.351 . S
C251 C245 1.428 . S
C251 N250 1.351 . S
C251 C252 1.434 . S
C252 C243 1.429 . S
C252 N249 1.350 . S
C252 C251 1.434 . S
C253 C254 1.369 . S
C253 C255 1.419 . S
C253 H257 0.930 . S
C254 C253 1.369 . S
C254 C263 1.429 . S
C255 C253 1.419 . S
C255 C256 1.363 . S
C255 H258 0.929 . S
C256 C255 1.363 . S
C256 C262 1.428 . S
H257 C253 0.930 . S
H258 C255 0.929 . S
S259 N260 1.613 1_556 S
S259 N261 1.610 1_556 S
N260 S259 1.613 1_554 S
N260 C263 1.350 . S
N261 S259 1.610 1_554 S
N261 C262 1.351 . S
C262 C256 1.428 . S
C262 N261 1.351 . S
C262 C263 1.434 . S
C263 C254 1.429 . S
C263 N260 1.350 . S
C263 C262 1.434 . S
C264 C265 1.369 . S
C264 C266 1.419 . S
C264 H268 0.930 . S
C265 C264 1.369 . S
C265 C274 1.429 . S
C266 C264 1.419 . S
C266 C267 1.363 . S
C266 H269 0.929 . S
C267 C266 1.363 . S
C267 C273 1.428 . S
H268 C264 0.930 . S
H269 C266 0.929 . S
S270 N271 1.613 . S
S270 N272 1.610 . S
N271 S270 1.613 . S
N271 C274 1.350 . S
N272 S270 1.610 . S
N272 C273 1.351 . S
C273 C267 1.428 . S
C273 N272 1.351 . S
C273 C274 1.434 . S
C274 C265 1.429 . S
C274 N271 1.350 . S
C274 C273 1.434 . S
C275 C276 1.369 . S
C275 C277 1.419 . S
C275 H279 0.930 . S
C276 C275 1.369 . S
C276 C285 1.429 . S
C277 C275 1.419 . S
C277 C278 1.363 . S
C277 H280 0.929 . S
C278 C277 1.363 . S
C278 C284 1.428 . S
H279 C275 0.930 . S
H280 C277 0.929 . S
S281 N282 1.613 . S
S281 N283 1.610 . S
N282 S281 1.613 . S
N282 C285 1.350 . S
N283 S281 1.610 . S
N283 C284 1.351 . S
C284 C278 1.428 . S
C284 N283 1.351 . S
C284 C285 1.434 . S
C285 C276 1.429 . S
C285 N282 1.350 . S
C285 C284 1.434 . S
C286 C287 1.369 . S
C286 C288 1.419 . S
C286 H290 0.930 . S
C287 C286 1.369 . S
C287 C296 1.429 . S
C288 C286 1.419 . S
C288 C289 1.363 . S
C288 H291 0.929 . S
C289 C288 1.363 . S
C289 C295 1.428 . S
H290 C286 0.930 . S
H291 C288 0.929 . S
S292 N293 1.613 . S
S292 N294 1.610 . S
N293 S292 1.613 . S
N293 C296 1.350 . S
N294 S292 1.610 . S
N294 C295 1.351 . S
C295 C289 1.428 . S
C295 N294 1.351 . S
C295 C296 1.434 . S
C296 C287 1.429 . S
C296 N293 1.350 . S
C296 C295 1.434 . S
C297 C298 1.369 . S
C297 C299 1.419 . S
C297 H301 0.930 . S
C298 C297 1.369 . S
C298 C307 1.429 . S
C299 C297 1.419 . S
C299 C300 1.363 . S
C299 H302 0.929 . S
C300 C299 1.363 . S
C300 C306 1.428 . S
H301 C297 0.930 . S
H302 C299 0.929 . S
S303 N304 1.613 . S
S303 N305 1.610 . S
N304 S303 1.613 . S
N304 C307 1.350 . S
N305 S303 1.610 . S
N305 C306 1.351 . S
C306 C300 1.428 . S
C306 N305 1.351 . S
C306 C307 1.434 . S
C307 C298 1.429 . S
C307 N304 1.350 . S
C307 C306 1.434 . S
C308 C309 1.369 . S
C308 C310 1.419 . S
C308 H312 0.930 . S
C309 C308 1.369 . S
C309 C318 1.429 . S
C310 C308 1.419 . S
C310 C311 1.363 . S
C310 H313 0.929 . S
C311 C310 1.363 . S
C311 C317 1.428 . S
H312 C308 0.930 . S
H313 C310 0.929 . S
S314 N315 1.613 . S
S314 N316 1.610 . S
N315 S314 1.613 . S
N315 C318 1.350 . S
N316 S314 1.610 . S
N316 C317 1.351 . S
C317 C311 1.428 . S
C317 N316 1.351 . S
C317 C318 1.434 . S
C318 C309 1.429 . S
C318 N315 1.350 . S
C318 C317 1.434 . S
C319 C320 1.369 . S
C319 C321 1.419 . S
C319 H323 0.930 . S
C320 C319 1.369 . S
C320 C329 1.429 1_554 S
C321 C319 1.419 . S
C321 C322 1.363 1_554 S
C321 H324 0.929 . S
C322 C321 1.363 1_556 S
C322 C328 1.428 . S
H323 C319 0.930 . S
H324 C321 0.929 . S
S325 N326 1.613 . S
S325 N327 1.610 . S
N326 S325 1.613 . S
N326 C329 1.350 . S
N327 S325 1.610 . S
N327 C328 1.351 . S
C328 C322 1.428 . S
C328 N327 1.351 . S
C328 C329 1.434 . S
C329 C320 1.429 1_556 S
C329 N326 1.350 . S
C329 C328 1.434 . S
C330 C331 1.369 . S
C330 C332 1.419 . S
C330 H334 0.930 . S
C331 C330 1.369 . S
C331 C340 1.429 . S
C332 C330 1.419 . S
C332 C333 1.363 . S
C332 H335 0.929 . S
C333 C332 1.363 . S
C333 C339 1.428 . S
H334 C330 0.930 . S
H335 C332 0.929 . S
S336 N337 1.613 . S
S336 N338 1.610 . S
N337 S336 1.613 . S
N337 C340 1.350 . S
N338 S336 1.610 . S
N338 C339 1.351 . S
C339 C333 1.428 . S
C339 N338 1.351 . S
C339 C340 1.434 . S
C340 C331 1.429 . S
C340 N337 1.350 . S
C340 C339 1.434 . S
C341 C342 1.369 . S
C341 C343 1.419 . S
C341 H345 0.930 . S
C342 C341 1.369 . S
C342 C351 1.429 . S
C343 C341 1.419 . S
C343 C344 1.363 . S
C343 H346 0.929 1_565 S
C344 C343 1.363 . S
C344 C350 1.428 . S
H345 C341 0.930 . S
H346 C343 0.929 1_545 S
S347 N348 1.613 . S
S347 N349 1.610 . S
N348 S347 1.613 . S
N348 C351 1.350 . S
N349 S347 1.610 . S
N349 C350 1.351 . S
C350 C344 1.428 . S
C350 N349 1.351 . S
C350 C351 1.434 . S
C351 C342 1.429 . S
C351 N348 1.350 . S
C351 C350 1.434 . S
C223 C120 1.638 . S
C221 N41 1.669 . S
C232 N2 1.612 . S
C234 C192 1.604 . S
C243 N15 1.666 . S
C245 C108 1.639 . S
C254 N28 1.604 . S
C256 C204 1.604 . S
C267 C110 1.370 . S
C265 N5 1.592 . S
C278 C191 1.655 . S
C276 N14 1.649 . S
C287 N27 1.566 . S
C289 C107 1.609 . S
C298 N44 1.575 . S
C300 C194 1.400 . S
C311 C206 1.401 . S
C309 N18 1.577 . S
C322 C122 1.374 . S
C320 N31 1.590 . S
C333 C203 1.653 . S
C331 N40 1.656 . S
C342 N1 1.586 . S
C344 C119 1.609 . S
