# Generated by pormake.
# Topology cml, (3,6)-cn, num edge types: 1
# Building blocks:
#     Node 0, Type 0, BuildingBlock: PAMTOO_clean_linker_0, # of connection points: 3
#     Node 1, Type 0, BuildingBlock: PAMTOO_clean_linker_0, # of connection points: 3
#     Node 2, Type 0, BuildingBlock: PAMTOO_clean_linker_0, # of connection points: 3
#     Node 3, Type 0, BuildingBlock: PAMTOO_clean_linker_0, # of connection points: 3
#     Node 4, Type 0, BuildingBlock: PAMTOO_clean_linker_0, # of connection points: 3
#     Node 5, Type 0, BuildingBlock: PAMTOO_clean_linker_0, # of connection points: 3
#     Node 6, Type 0, BuildingBlock: PAMTOO_clean_linker_0, # of connection points: 3
#     Node 7, Type 0, BuildingBlock: PAMTOO_clean_linker_0, # of connection points: 3
#     Node 8, Type 1, BuildingBlock: IZENUY_clean_sbu_0, # of connection points: 6
#     Node 9, Type 1, BuildingBlock: IZENUY_clean_sbu_0, # of connection points: 6
#     Node 10, Type 1, BuildingBlock: IZENUY_clean_sbu_0, # of connection points: 6
#     Node 11, Type 1, BuildingBlock: IZENUY_clean_sbu_0, # of connection points: 6
#     Edge 12, Type (0, 1), BuildingBlock: ZUJKAS_clean_linker_0, # of connection points: 2
#     Edge 13, Type (0, 1), BuildingBlock: ZUJKAS_clean_linker_0, # of connection points: 2
#     Edge 14, Type (0, 1), BuildingBlock: ZUJKAS_clean_linker_0, # of connection points: 2
#     Edge 15, Type (0, 1), BuildingBlock: ZUJKAS_clean_linker_0, # of connection points: 2
#     Edge 16, Type (0, 1), BuildingBlock: ZUJKAS_clean_linker_0, # of connection points: 2
#     Edge 17, Type (0, 1), BuildingBlock: ZUJKAS_clean_linker_0, # of connection points: 2
#     Edge 18, Type (0, 1), BuildingBlock: ZUJKAS_clean_linker_0, # of connection points: 2
#     Edge 19, Type (0, 1), BuildingBlock: ZUJKAS_clean_linker_0, # of connection points: 2
#     Edge 20, Type (0, 1), BuildingBlock: ZUJKAS_clean_linker_0, # of connection points: 2
#     Edge 21, Type (0, 1), BuildingBlock: ZUJKAS_clean_linker_0, # of connection points: 2
#     Edge 22, Type (0, 1), BuildingBlock: ZUJKAS_clean_linker_0, # of connection points: 2
#     Edge 23, Type (0, 1), BuildingBlock: ZUJKAS_clean_linker_0, # of connection points: 2
#     Edge 24, Type (0, 1), BuildingBlock: ZUJKAS_clean_linker_0, # of connection points: 2
#     Edge 25, Type (0, 1), BuildingBlock: ZUJKAS_clean_linker_0, # of connection points: 2
#     Edge 26, Type (0, 1), BuildingBlock: ZUJKAS_clean_linker_0, # of connection points: 2
#     Edge 27, Type (0, 1), BuildingBlock: ZUJKAS_clean_linker_0, # of connection points: 2
#     Edge 28, Type (0, 1), BuildingBlock: ZUJKAS_clean_linker_0, # of connection points: 2
#     Edge 29, Type (0, 1), BuildingBlock: ZUJKAS_clean_linker_0, # of connection points: 2
#     Edge 30, Type (0, 1), BuildingBlock: ZUJKAS_clean_linker_0, # of connection points: 2
#     Edge 31, Type (0, 1), BuildingBlock: ZUJKAS_clean_linker_0, # of connection points: 2
#     Edge 32, Type (0, 1), BuildingBlock: ZUJKAS_clean_linker_0, # of connection points: 2
#     Edge 33, Type (0, 1), BuildingBlock: ZUJKAS_clean_linker_0, # of connection points: 2
#     Edge 34, Type (0, 1), BuildingBlock: ZUJKAS_clean_linker_0, # of connection points: 2
#     Edge 35, Type (0, 1), BuildingBlock: ZUJKAS_clean_linker_0, # of connection points: 2
# Relax obj value: 0.004
# Max RMSD: 0.072
# Mean RMSD: 0.054
data_MOF--net-cml--node1-IZENUY_clean_sbu_0--node2-PAMTOO_clean_linker_0--edge1-ZUJKAS_clean_linker_0
_symmetry_space_group_name_H-M    P1
_symmetry_Int_Tables_number       1
_symmetry_cell_setting            triclinic
loop_
_symmetry_equiv_pos_as_xyz
'x, y, z'
_cell_length_a     48.038044
_cell_length_b     53.911534
_cell_length_c     46.664418
_cell_angle_alpha  89.98903
_cell_angle_beta   88.660003
_cell_angle_gamma 90.011928
loop_
_atom_site_label
_atom_site_type_symbol
_atom_site_fract_x
_atom_site_fract_y
_atom_site_fract_z
_atom_type_partial_charge
H0 H 0.33396 0.41442 0.03186 0.0
H1 H 0.28148 0.39431 0.96197 0.0
H2 H 0.28114 0.35008 0.03845 0.0
H3 H 0.2813 0.32169 0.98561 0.0
C4 C 0.26867 0.33407 0.97193 0.0
O5 O 0.26064 0.35486 0.98727 0.0
H6 H 0.28193 0.33967 0.95314 0.0
C7 C 0.31818 0.40253 0.02292 0.0
C8 C 0.30848 0.38202 0.03884 0.0
C9 C 0.30864 0.40733 0.99521 0.0
C10 C 0.28923 0.391 0.98325 0.0
C11 C 0.27947 0.37037 0.99884 0.0
C12 C 0.28901 0.36596 0.02656 0.0
H13 H 0.669 0.59522 0.52078 0.0
H14 H 0.72511 0.65677 0.53156 0.0
H15 H 0.72741 0.61514 0.45337 0.0
H16 H 0.78238 0.62749 0.47411 0.0
C17 C 0.77749 0.64508 0.48565 0.0
O18 O 0.75003 0.65138 0.48176 0.0
H19 H 0.78126 0.64206 0.50885 0.0
C20 C 0.68527 0.60735 0.51249 0.0
C21 C 0.69646 0.60309 0.48484 0.0
C22 C 0.69519 0.62672 0.52968 0.0
C23 C 0.7172 0.64151 0.51902 0.0
C24 C 0.72894 0.63703 0.49177 0.0
C25 C 0.71851 0.618 0.47466 0.0
H26 H 0.67519 0.41847 0.03193 0.0
H27 H 0.72731 0.35345 0.03077 0.0
H28 H 0.72956 0.40341 0.95929 0.0
H29 H 0.73268 0.3517 0.94194 0.0
C30 C 0.74076 0.34344 0.96196 0.0
O31 O 0.74917 0.36209 0.98004 0.0
H32 H 0.72358 0.33248 0.97224 0.0
C33 C 0.69088 0.40703 0.02137 0.0
C34 C 0.7013 0.41381 0.99408 0.0
C35 C 0.70006 0.3853 0.03489 0.0
C36 C 0.72023 0.37047 0.02096 0.0
C37 C 0.73061 0.37699 0.99372 0.0
C38 C 0.7213 0.39863 0.98039 0.0
H39 H 0.33862 0.60162 0.53125 0.0
H40 H 0.28506 0.61995 0.46168 0.0
H41 H 0.28613 0.66631 0.53641 0.0
H42 H 0.2314 0.65621 0.51455 0.0
C43 C 0.2361 0.65616 0.49108 0.0
O44 O 0.26425 0.65989 0.48614 0.0
H45 H 0.23003 0.63767 0.48263 0.0
C46 C 0.32281 0.61341 0.52219 0.0
C47 C 0.31345 0.63439 0.53752 0.0
C48 C 0.3128 0.60789 0.49486 0.0
C49 C 0.2932 0.62389 0.48265 0.0
C50 C 0.28357 0.64486 0.49773 0.0
C51 C 0.29386 0.65016 0.52495 0.0
H52 H 0.84416 0.90905 0.02418 0.0
H53 H 0.7868 0.88983 0.95815 0.0
H54 H 0.78608 0.84913 0.03731 0.0
H55 H 0.78048 0.81814 0.98848 0.0
C56 C 0.77011 0.83079 0.97322 0.0
O57 O 0.7638 0.85298 0.98673 0.0
H58 H 0.78472 0.83441 0.95481 0.0
C59 C 0.82758 0.89741 0.01632 0.0
C60 C 0.81668 0.87849 0.03396 0.0
C61 C 0.81696 0.90187 0.989 0.0
C62 C 0.79501 0.88701 0.97934 0.0
C63 C 0.78404 0.86794 0.9967 0.0
C64 C 0.79456 0.86399 0.02414 0.0
H65 H 0.17436 0.09467 0.52812 0.0
H66 H 0.23338 0.15434 0.53522 0.0
H67 H 0.22799 0.11413 0.45629 0.0
H68 H 0.28505 0.12626 0.4711 0.0
C69 C 0.28115 0.1431 0.48439 0.0
O70 O 0.25352 0.14976 0.48303 0.0
H71 H 0.28653 0.13858 0.50689 0.0
C72 C 0.19076 0.10608 0.51873 0.0
C73 C 0.19958 0.10197 0.49019 0.0
C74 C 0.20268 0.12495 0.5352 0.0
C75 C 0.22382 0.13974 0.52288 0.0
C76 C 0.23307 0.13554 0.49463 0.0
C77 C 0.22094 0.11682 0.4783 0.0
H78 H 0.1783 0.92103 0.03276 0.0
H79 H 0.23062 0.85616 0.03294 0.0
H80 H 0.22952 0.90293 0.95874 0.0
H81 H 0.23093 0.8505 0.94425 0.0
C82 C 0.24021 0.843 0.96409 0.0
O83 O 0.24966 0.8623 0.98063 0.0
H84 H 0.2237 0.83243 0.97597 0.0
C85 C 0.19395 0.90942 0.0224 0.0
C86 C 0.20303 0.91499 0.99426 0.0
C87 C 0.2037 0.88827 0.03668 0.0
C88 C 0.22282 0.87259 0.02244 0.0
C89 C 0.2319 0.87789 0.99439 0.0
C90 C 0.22221 0.89908 0.98043 0.0
H91 H 0.84069 0.10462 0.53041 0.0
H92 H 0.7856 0.12094 0.46149 0.0
H93 H 0.78425 0.16654 0.53702 0.0
H94 H 0.72998 0.15489 0.51481 0.0
C95 C 0.73475 0.15524 0.49135 0.0
O96 O 0.76275 0.15981 0.48656 0.0
H97 H 0.72935 0.13671 0.48255 0.0
C98 C 0.8244 0.11596 0.52145 0.0
C99 C 0.81355 0.13602 0.53735 0.0
C100 C 0.8146 0.1103 0.4941 0.0
C101 C 0.79342 0.12498 0.48258 0.0
C102 C 0.78267 0.14535 0.49801 0.0
C103 C 0.79287 0.15091 0.52522 0.0
Fe104 Fe 0.00468 0.83782 0.32789 0.0
Fe105 Fe 1.00374 0.86837 0.38362 0.0
O106 O 0.00424 0.86692 0.34563 0.0
Fe107 Fe 0.0043 0.89461 0.32524 0.0
O108 O 0.97177 0.88637 0.30865 0.0
O109 O 0.98437 0.8484 0.29727 0.0
O110 O 0.972 0.82882 0.34498 0.0
C111 C 0.96736 0.8283 0.37169 0.0
C112 C 0.0414 0.86357 0.29375 0.0
O113 O 0.98279 0.84011 0.38864 0.0
C114 C 0.04068 0.90723 0.36688 0.0
O115 O 0.02502 0.82188 0.35521 0.0
O116 O 0.03621 0.85118 0.38556 0.0
O117 O 0.02497 0.88188 0.29523 0.0
O118 O 0.03747 0.8448 0.30946 0.0
C119 C 0.96771 0.90623 0.37198 0.0
O120 O 0.02467 0.89688 0.38527 0.0
O121 O 0.03678 0.90461 0.34042 0.0
C122 C 0.04062 0.83012 0.37455 0.0
O123 O 0.97121 0.8858 0.38463 0.0
O124 O 0.98382 0.91265 0.35146 0.0
C125 C 0.96822 0.86678 0.29439 0.0
Fe126 Fe 1.00345 0.14568 0.88365 0.0
Fe127 Fe 1.00394 0.11926 0.8254 0.0
O128 O 1.00401 0.14703 0.84564 0.0
Fe129 Fe 0.00471 0.17613 0.8279 0.0
O130 O 0.03705 0.18464 0.84452 0.0
O131 O 0.02447 0.17396 0.88837 0.0
O132 O 0.03581 0.12833 0.88396 0.0
C133 C 0.03975 0.108 0.87111 0.0
C134 C 0.96721 0.1839 0.87485 0.0
O135 O 0.0239 0.10127 0.85125 0.0
C136 C 0.9685 0.15102 0.79411 0.0
O137 O 0.98241 0.1171 0.88596 0.0
O138 O 0.97102 0.1096 0.84149 0.0
O139 O 0.98372 0.1922 0.85556 0.0
O140 O 0.97106 0.16286 0.8859 0.0
C141 C 0.04149 0.14657 0.79387 0.0
O142 O 0.98404 0.13212 0.79577 0.0
O143 O 0.97242 0.16969 0.80981 0.0
C144 C 0.96677 0.10667 0.86804 0.0
O145 O 0.03686 0.12696 0.80791 0.0
O146 O 0.02584 0.16532 0.79706 0.0
C147 C 0.04087 0.18527 0.87114 0.0
Fe148 Fe 0.50455 0.33722 0.32696 0.0
Fe149 Fe 0.5046 0.36896 0.38174 0.0
O150 O 0.50462 0.36671 0.3438 0.0
Fe151 Fe 0.50485 0.39393 0.32252 0.0
O152 O 0.47215 0.38561 0.30637 0.0
O153 O 0.48417 0.34727 0.29614 0.0
O154 O 0.47187 0.329 0.34452 0.0
C155 C 0.46748 0.32906 0.37127 0.0
C156 C 0.54149 0.36183 0.29193 0.0
O157 O 0.48324 0.34102 0.38776 0.0
C158 C 0.54184 0.40708 0.36347 0.0
O159 O 0.52483 0.32163 0.3546 0.0
O160 O 0.53686 0.35148 0.3838 0.0
O161 O 0.52525 0.38032 0.29278 0.0
O162 O 0.53733 0.3435 0.30826 0.0
C163 C 0.4688 0.40683 0.36934 0.0
O164 O 0.52594 0.39726 0.38235 0.0
O165 O 0.53753 0.40403 0.33716 0.0
C166 C 0.54082 0.33012 0.37343 0.0
O167 O 0.47239 0.38676 0.38269 0.0
O168 O 0.48461 0.41268 0.34833 0.0
C169 C 0.4682 0.36572 0.29283 0.0
Fe170 Fe 0.5029 0.64593 0.88452 0.0
Fe171 Fe 0.50335 0.61893 0.82656 0.0
O172 O 0.50356 0.64694 0.84647 0.0
Fe173 Fe 0.5045 0.67594 0.82843 0.0
O174 O 0.53676 0.68456 0.84519 0.0
O175 O 0.52396 0.67415 0.88904 0.0
O176 O 0.53516 0.62847 0.88514 0.0
C177 C 0.53911 0.60805 0.87247 0.0
C178 C 0.46682 0.68418 0.87516 0.0
O179 O 0.52334 0.6012 0.85259 0.0
C180 C 0.46827 0.65063 0.79469 0.0
O181 O 0.48176 0.6175 0.88717 0.0
O182 O 0.47043 0.60938 0.84284 0.0
O183 O 0.48334 0.69225 0.85576 0.0
O184 O 0.47059 0.66323 0.88647 0.0
C185 C 0.54108 0.64587 0.79472 0.0
O186 O 0.48344 0.63155 0.79685 0.0
O187 O 0.47235 0.66948 0.81006 0.0
C188 C 0.46616 0.60683 0.86943 0.0
O189 O 0.53621 0.62633 0.80879 0.0
O190 O 0.52583 0.66487 0.7979 0.0
C191 C 0.54043 0.68536 0.87182 0.0
H192 H 0.23318 0.30514 0.00424 0.0
H193 H 0.1935 0.28038 0.98805 0.0
H194 H 0.20749 0.30726 0.90186 0.0
H195 H 0.24713 0.33188 0.91795 0.0
H196 H 0.14407 0.29524 0.9592 0.0
H197 H 0.20934 0.23089 0.89341 0.0
H198 H 0.22373 0.251 0.92023 0.0
H199 H 0.21477 0.26323 0.88583 0.0
C200 C 0.22765 0.30574 0.98187 0.0
C201 C 0.2434 0.32004 0.96224 0.0
C202 C 0.20504 0.29166 0.97266 0.0
C203 C 0.19789 0.29162 0.94366 0.0
C204 C 0.21301 0.30661 0.92422 0.0
H205 H 0.07738 0.21483 0.84076 0.0
H206 H 0.11451 0.24084 0.85928 0.0
C207 C 0.23555 0.32073 0.93343 0.0
C208 C 0.17481 0.27572 0.93362 0.0
H209 H 0.16049 0.22722 0.88923 0.0
C210 C 0.14763 0.28028 0.944 0.0
C211 C 0.17953 0.25622 0.91381 0.0
C212 C 0.20843 0.24982 0.9028 0.0
C213 C 0.12492 0.26625 0.93455 0.0
C214 C 0.12963 0.24679 0.91463 0.0
C215 C 0.15687 0.24215 0.90444 0.0
C216 C 0.10663 0.23119 0.90374 0.0
C217 C 0.09601 0.27285 0.94536 0.0
C218 C 0.08999 0.21684 0.92253 0.0
C219 C 0.06861 0.20196 0.91201 0.0
C220 C 0.06358 0.20098 0.88243 0.0
C221 C 0.08054 0.21517 0.86366 0.0
C222 C 0.10183 0.23006 0.87421 0.0
H223 H 0.09513 0.29197 0.95422 0.0
H224 H 0.08069 0.27131 0.928 0.0
H225 H 0.08971 0.25982 0.96275 0.0
H226 H 0.09371 0.21693 0.94532 0.0
H227 H 0.05614 0.19114 0.92707 0.0
H228 H 0.80529 0.68079 0.51558 0.0
H229 H 0.83545 0.71387 0.4963 0.0
H230 H 0.82062 0.68837 0.41037 0.0
H231 H 0.79037 0.65532 0.42964 0.0
H232 H 0.88428 0.70703 0.46131 0.0
H233 H 0.80467 0.76368 0.40686 0.0
H234 H 0.79575 0.74085 0.43389 0.0
H235 H 0.80455 0.73125 0.39795 0.0
C236 C 0.80852 0.68231 0.4926 0.0
C237 C 0.79591 0.66542 0.47403 0.0
C238 C 0.82563 0.70118 0.48163 0.0
C239 C 0.83002 0.70367 0.45193 0.0
C240 C 0.81716 0.68697 0.43333 0.0
H241 H 0.93335 0.79689 0.34236 0.0
H242 H 0.89963 0.76728 0.36243 0.0
C243 C 0.80011 0.66805 0.44431 0.0
C244 C 0.84906 0.72304 0.44047 0.0
H245 H 0.852 0.77443 0.39773 0.0
C246 C 0.87724 0.72188 0.44756 0.0
C247 C 0.83973 0.74227 0.42245 0.0
C248 C 0.80949 0.74482 0.41497 0.0
C249 C 0.89654 0.73917 0.43662 0.0
C250 C 0.88724 0.75844 0.41861 0.0
C251 C 0.85902 0.75965 0.41158 0.0
C252 C 0.90664 0.77729 0.40656 0.0
C253 C 0.92684 0.73628 0.44382 0.0
C254 C 0.92124 0.79314 0.42472 0.0
C255 C 0.9406 0.81003 0.41337 0.0
C256 C 0.94559 0.81149 0.38358 0.0
C257 C 0.93017 0.79616 0.36539 0.0
C258 C 0.91085 0.77924 0.37681 0.0
H259 H 0.9315 0.71731 0.45168 0.0
H260 H 0.94051 0.74024 0.42485 0.0
H261 H 0.93206 0.74962 0.46098 0.0
H262 H 0.91782 0.79228 0.44773 0.0
H263 H 0.95187 0.82172 0.42799 0.0
H264 H 0.75512 0.29995 0.98814 0.0
H265 H 0.79469 0.27267 0.9763 0.0
H266 H 0.82066 0.32268 0.90861 0.0
H267 H 0.78122 0.35002 0.92055 0.0
H268 H 0.80602 0.2494 0.92279 0.0
H269 H 0.89206 0.31178 0.95409 0.0
H270 H 0.85638 0.3167 0.96576 0.0
H271 H 0.86769 0.32562 0.93024 0.0
C272 C 0.76933 0.30504 0.97075 0.0
C273 C 0.76502 0.32679 0.9549 0.0
C274 C 0.79188 0.28953 0.96406 0.0
C275 C 0.81068 0.29578 0.94175 0.0
C276 C 0.8066 0.31771 0.92617 0.0
H277 H 0.95224 0.22969 0.85539 0.0
H278 H 0.91404 0.25587 0.87287 0.0
C279 C 0.78403 0.33318 0.93282 0.0
C280 C 0.83395 0.27889 0.93398 0.0
H281 H 0.90477 0.27577 0.92737 0.0
C282 C 0.82764 0.25504 0.92401 0.0
C283 C 0.86208 0.28638 0.9356 0.0
C284 C 0.87006 0.31143 0.94724 0.0
C285 C 0.84873 0.23869 0.91474 0.0
C286 C 0.87686 0.24629 0.91601 0.0
C287 C 0.88317 0.27002 0.92639 0.0
C288 C 0.90004 0.23021 0.90581 0.0
C289 C 0.84066 0.21377 0.90276 0.0
C290 C 0.90501 0.20718 0.91875 0.0
C291 C 0.92682 0.19207 0.90874 0.0
C292 C 0.9442 0.19985 0.88576 0.0
C293 C 0.93931 0.2231 0.87312 0.0
C294 C 0.91749 0.23812 0.88309 0.0
H295 H 0.81838 0.2132 0.89691 0.0
H296 H 0.85362 0.20912 0.88349 0.0
H297 H 0.84406 0.19925 0.91917 0.0
H298 H 0.89211 0.20094 0.93668 0.0
H299 H 0.93007 0.17434 0.91906 0.0
H300 H 0.20795 0.65409 0.44059 0.0
H301 H 0.1776 0.68574 0.42007 0.0
H302 H 0.19616 0.73519 0.48971 0.0
H303 H 0.22672 0.70356 0.51016 0.0
H304 H 0.13025 0.70556 0.44808 0.0
H305 H 0.20577 0.77991 0.4188 0.0
H306 H 0.21639 0.7484 0.42586 0.0
H307 H 0.2076 0.76888 0.45505 0.0
C308 C 0.20577 0.67183 0.4513 0.0
C309 C 0.2194 0.67635 0.4771 0.0
C310 C 0.18845 0.68988 0.4396 0.0
C311 C 0.18471 0.7129 0.45324 0.0
C312 C 0.19903 0.71773 0.47856 0.0
H313 H 0.07457 0.83852 0.42029 0.0
H314 H 0.10962 0.8105 0.43975 0.0
C315 C 0.21634 0.69965 0.4903 0.0
C316 C 0.16436 0.73107 0.44202 0.0
H317 H 0.15785 0.7897 0.41504 0.0
C318 C 0.13631 0.72393 0.44074 0.0
C319 C 0.17223 0.75511 0.43273 0.0
C320 C 0.20216 0.76356 0.43291 0.0
C321 C 0.1159 0.74017 0.43062 0.0
C322 C 0.1238 0.76409 0.42087 0.0
C323 C 0.15181 0.77137 0.42245 0.0
C324 C 0.1033 0.78153 0.40848 0.0
C325 C 0.08594 0.73169 0.431 0.0
C326 C 0.08852 0.77482 0.38408 0.0
C327 C 0.06843 0.79069 0.373 0.0
C328 C 0.06278 0.8138 0.38592 0.0
C329 C 0.07823 0.82082 0.40988 0.0
C330 C 0.09832 0.80484 0.42102 0.0
H331 H 0.08232 0.71624 0.44641 0.0
H332 H 0.07161 0.74716 0.43675 0.0
H333 H 0.08064 0.72489 0.40935 0.0
H334 H 0.09247 0.7572 0.3736 0.0
H335 H 0.05724 0.78475 0.35433 0.0
H336 H 0.71732 0.82943 0.9983 0.0
H337 H 0.67677 0.80569 0.9825 0.0
H338 H 0.72485 0.77812 0.91015 0.0
H339 H 0.76526 0.80196 0.92562 0.0
H340 H 0.65014 0.80689 0.92409 0.0
H341 H 0.69347 0.7155 0.95572 0.0
H342 H 0.70552 0.74446 0.9705 0.0
H343 H 0.71638 0.73533 0.93499 0.0
C344 C 0.71905 0.81866 0.97875 0.0
C345 C 0.74424 0.81804 0.96275 0.0
C346 C 0.69595 0.80504 0.96984 0.0
C347 C 0.69789 0.79013 0.94521 0.0
C348 C 0.72298 0.78947 0.92926 0.0
H349 H 0.57528 0.71692 0.842 0.0
H350 H 0.61236 0.74287 0.86088 0.0
C351 C 0.74596 0.8032 0.93801 0.0
C352 C 0.67388 0.7749 0.93629 0.0
H353 H 0.65217 0.71494 0.92896 0.0
C354 C 0.65047 0.7868 0.92525 0.0
C355 C 0.67433 0.74872 0.93811 0.0
C356 C 0.69864 0.73514 0.95066 0.0
C357 C 0.62774 0.7731 0.91528 0.0
C358 C 0.62857 0.74688 0.91627 0.0
C359 C 0.65168 0.73503 0.92803 0.0
C360 C 0.60578 0.73136 0.90493 0.0
C361 C 0.60294 0.78677 0.90387 0.0
C362 C 0.5901 0.71592 0.92335 0.0
C363 C 0.56884 0.70104 0.91265 0.0
C364 C 0.56302 0.70112 0.88321 0.0
C365 C 0.57906 0.71644 0.86478 0.0
C366 C 0.60019 0.73141 0.87555 0.0
H367 H 0.60269 0.80653 0.91064 0.0
H368 H 0.60378 0.7862 0.8801 0.0
H369 H 0.5832 0.77786 0.91126 0.0
H370 H 0.59423 0.71548 0.94607 0.0
H371 H 0.55704 0.6894 0.92745 0.0
H372 H 0.30774 0.17877 0.51539 0.0
H373 H 0.33684 0.21303 0.49716 0.0
H374 H 0.32285 0.1891 0.41046 0.0
H375 H 0.29365 0.15491 0.42867 0.0
H376 H 0.38579 0.2082 0.4625 0.0
H377 H 0.30506 0.2639 0.40868 0.0
H378 H 0.29658 0.24026 0.43489 0.0
H379 H 0.30587 0.23172 0.3987 0.0
C380 C 0.31095 0.18089 0.49246 0.0
C381 C 0.29896 0.16408 0.47336 0.0
C382 C 0.32744 0.20043 0.4821 0.0
C383 C 0.33176 0.20369 0.45249 0.0
C384 C 0.31943 0.18711 0.43337 0.0
H385 H 0.43299 0.29748 0.34288 0.0
H386 H 0.39948 0.26814 0.36376 0.0
C387 C 0.303 0.16753 0.44374 0.0
C388 C 0.35029 0.22368 0.44163 0.0
H389 H 0.35224 0.2753 0.39923 0.0
C390 C 0.37846 0.22301 0.44887 0.0
C391 C 0.34059 0.24288 0.42379 0.0
C392 C 0.31033 0.24496 0.41621 0.0
C393 C 0.39742 0.24068 0.4381 0.0
C394 C 0.38777 0.25981 0.42009 0.0
C395 C 0.35953 0.26062 0.41307 0.0
C396 C 0.40691 0.27868 0.40764 0.0
C397 C 0.42776 0.23823 0.44533 0.0
C398 C 0.42167 0.29476 0.4254 0.0
C399 C 0.44096 0.3115 0.41357 0.0
C400 C 0.44568 0.31257 0.38372 0.0
C401 C 0.43004 0.29706 0.36596 0.0
C402 C 0.41082 0.28029 0.37783 0.0
H403 H 0.43273 0.2194 0.45343 0.0
H404 H 0.44136 0.24217 0.4263 0.0
H405 H 0.43279 0.25181 0.4623 0.0
H406 H 0.4185 0.29417 0.44845 0.0
H407 H 0.45242 0.32334 0.42786 0.0
H408 H 0.27847 0.84833 0.92029 0.0
H409 H 0.3175 0.82074 0.90745 0.0
H410 H 0.29532 0.77299 0.97857 0.0
H411 H 0.25622 0.8005 0.99134 0.0
H412 H 0.36301 0.80568 0.94234 0.0
H413 H 0.29815 0.72597 0.90817 0.0
H414 H 0.28437 0.75698 0.91201 0.0
H415 H 0.29006 0.73828 0.94318 0.0
C416 C 0.28191 0.83184 0.933 0.0
C417 C 0.26409 0.82612 0.95634 0.0
C418 C 0.30417 0.81619 0.92575 0.0
C419 C 0.30893 0.79463 0.94176 0.0
C420 C 0.2916 0.78926 0.96559 0.0
H421 H 0.42983 0.67514 0.91964 0.0
H422 H 0.39229 0.70216 0.93738 0.0
C423 C 0.26938 0.80495 0.97288 0.0
C424 C 0.33218 0.77788 0.93359 0.0
H425 H 0.34679 0.71976 0.90843 0.0
C426 C 0.35952 0.78689 0.93492 0.0
C427 C 0.32748 0.75337 0.92409 0.0
C428 C 0.29845 0.74303 0.92151 0.0
C429 C 0.38237 0.77195 0.92707 0.0
C430 C 0.37766 0.74757 0.91706 0.0
C431 C 0.35032 0.73846 0.91611 0.0
C432 C 0.40073 0.73145 0.90667 0.0
C433 C 0.41136 0.78231 0.92996 0.0
C434 C 0.41765 0.73882 0.88329 0.0
C435 C 0.43914 0.7235 0.87315 0.0
C436 C 0.444 0.70036 0.88606 0.0
C437 C 0.42675 0.69287 0.90927 0.0
C438 C 0.40529 0.70827 0.91944 0.0
H439 H 0.41175 0.79794 0.94546 0.0
H440 H 0.42609 0.76779 0.93704 0.0
H441 H 0.41883 0.78944 0.90883 0.0
H442 H 0.41405 0.75635 0.87265 0.0
H443 H 0.45181 0.72976 0.85506 0.0
H444 H 0.72377 0.20215 0.51118 0.0
H445 H 0.69284 0.23353 0.49066 0.0
H446 H 0.67663 0.18462 0.41986 0.0
H447 H 0.70736 0.15326 0.44039 0.0
H448 H 0.69323 0.25724 0.43533 0.0
H449 H 0.59851 0.2 0.45463 0.0
H450 H 0.63113 0.19353 0.47156 0.0
H451 H 0.62607 0.18464 0.43493 0.0
C452 C 0.71364 0.19823 0.49118 0.0
C453 C 0.71746 0.17516 0.47763 0.0
C454 C 0.69606 0.21612 0.47947 0.0
C455 C 0.682 0.21121 0.45403 0.0
C456 C 0.6868 0.18859 0.43982 0.0
H457 H 0.55648 0.2841 0.35445 0.0
H458 H 0.59178 0.25671 0.37392 0.0
C459 C 0.70441 0.17074 0.45148 0.0
C460 C 0.66176 0.22941 0.44271 0.0
H461 H 0.59303 0.23667 0.42748 0.0
C462 C 0.67129 0.25283 0.4337 0.0
C463 C 0.63314 0.22363 0.4407 0.0
C464 C 0.62146 0.19918 0.45118 0.0
C465 C 0.65308 0.27038 0.42198 0.0
C466 C 0.62446 0.26451 0.41975 0.0
C467 C 0.61495 0.24116 0.42908 0.0
C468 C 0.60399 0.282 0.40735 0.0
C469 C 0.66478 0.29475 0.41131 0.0
C470 C 0.59897 0.30541 0.41967 0.0
C471 C 0.57877 0.32124 0.40849 0.0
C472 C 0.56295 0.31386 0.38494 0.0
C473 C 0.56814 0.29042 0.37264 0.0
C474 C 0.58837 0.2747 0.38375 0.0
H475 H 0.68769 0.29378 0.40758 0.0
H476 H 0.65492 0.30047 0.39107 0.0
H477 H 0.66052 0.30931 0.42763 0.0
H478 H 0.61031 0.31127 0.43828 0.0
H479 H 0.57527 0.3391 0.41859 0.0
H480 H 0.32479 0.40987 0.93834 0.0
H481 H 0.34769 0.44477 0.91348 0.0
H482 H 0.34109 0.48855 0.99058 0.0
H483 H 0.31771 0.45416 0.01538 0.0
H484 H 0.32869 0.50177 0.91143 0.0
H485 H 0.42822 0.47956 0.96458 0.0
H486 H 0.40144 0.45659 0.95925 0.0
H487 H 0.39696 0.47966 0.98665 0.0
C488 C 0.32767 0.4271 0.94982 0.0
C489 C 0.3197 0.42912 0.97895 0.0
C490 C 0.34084 0.44696 0.93561 0.0
C491 C 0.34625 0.46907 0.95033 0.0
C492 C 0.33726 0.47153 0.97897 0.0
H493 H 0.44887 0.5985 0.92483 0.0
H494 H 0.41787 0.56583 0.94281 0.0
C495 C 0.32407 0.4518 0.99312 0.0
C496 C 0.36284 0.48913 0.93659 0.0
H497 H 0.42686 0.51645 0.93758 0.0
C498 C 0.35021 0.50497 0.91691 0.0
C499 C 0.39082 0.49319 0.94396 0.0
C500 C 0.40537 0.47633 0.96464 0.0
C501 C 0.36474 0.5253 0.90493 0.0
C502 C 0.39275 0.52949 0.91249 0.0
C503 C 0.40538 0.51332 0.93188 0.0
C504 C 0.40943 0.55064 0.90098 0.0
C505 C 0.3497 0.54253 0.88506 0.0
C506 C 0.41482 0.55318 0.87141 0.0
C507 C 0.43243 0.572 0.86101 0.0
C508 C 0.44533 0.58845 0.88003 0.0
C509 C 0.43941 0.58614 0.90957 0.0
C510 C 0.42168 0.56744 0.91991 0.0
H511 H 0.32673 0.54075 0.88762 0.0
H512 H 0.3556 0.56214 0.8889 0.0
H513 H 0.35546 0.53781 0.86255 0.0
H514 H 0.40612 0.54014 0.85642 0.0
H515 H 0.43664 0.57312 0.83815 0.0
H516 H 0.72456 0.56877 0.45178 0.0
H517 H 0.70452 0.53475 0.42397 0.0
H518 H 0.62197 0.55825 0.45019 0.0
H519 H 0.64169 0.59245 0.47727 0.0
H520 H 0.67142 0.49635 0.44539 0.0
H521 H 0.61503 0.54974 0.36382 0.0
H522 H 0.64186 0.56335 0.38529 0.0
H523 H 0.60689 0.56018 0.39954 0.0
C524 C 0.70213 0.56689 0.45116 0.0
C525 C 0.68468 0.58322 0.46675 0.0
C526 C 0.69075 0.54743 0.43541 0.0
C527 C 0.66177 0.54421 0.43472 0.0
C528 C 0.64436 0.56068 0.44997 0.0
H529 H 0.55442 0.42109 0.41796 0.0
H530 H 0.58761 0.45264 0.43245 0.0
C531 C 0.65568 0.58004 0.46572 0.0
C532 C 0.64948 0.5228 0.41969 0.0
H533 H 0.59946 0.50778 0.37199 0.0
C534 C 0.65604 0.49878 0.42897 0.0
C535 C 0.62976 0.52599 0.39797 0.0
C536 C 0.62318 0.55121 0.38585 0.0
C537 C 0.64214 0.47795 0.4183 0.0
C538 C 0.62087 0.48134 0.39821 0.0
C539 C 0.61554 0.50522 0.38767 0.0
C540 C 0.60256 0.46075 0.38934 0.0
C541 C 0.65009 0.45256 0.42896 0.0
C542 C 0.59966 0.45503 0.36023 0.0
C543 C 0.58046 0.4371 0.35181 0.0
C544 C 0.56365 0.42472 0.37237 0.0
C545 C 0.56704 0.43019 0.40155 0.0
C546 C 0.58619 0.44811 0.40991 0.0
H547 H 0.67192 0.45226 0.43632 0.0
H548 H 0.63633 0.44752 0.44749 0.0
H549 H 0.64774 0.43828 0.41204 0.0
H550 H 0.61197 0.46469 0.344 0.0
H551 H 0.57843 0.43333 0.32915 0.0
H552 H 0.68501 0.41772 0.93856 0.0
H553 H 0.66223 0.45306 0.91592 0.0
H554 H 0.66836 0.49495 0.99423 0.0
H555 H 0.69158 0.45985 0.01687 0.0
H556 H 0.61117 0.47345 0.9379 0.0
H557 H 0.69516 0.54426 0.93111 0.0
H558 H 0.7022 0.51155 0.93534 0.0
H559 H 0.69027 0.52965 0.9655 0.0
C560 C 0.6821 0.43465 0.95074 0.0
C561 C 0.69005 0.43601 0.9795 0.0
C562 C 0.66897 0.45476 0.93783 0.0
C563 C 0.66387 0.47666 0.95333 0.0
C564 C 0.6725 0.47835 0.98177 0.0
H565 H 0.56831 0.61047 0.92233 0.0
H566 H 0.59965 0.57897 0.94142 0.0
C567 C 0.6855 0.45821 0.99474 0.0
C568 C 0.64731 0.49684 0.94061 0.0
H569 H 0.64946 0.55776 0.92057 0.0
C570 C 0.61957 0.49184 0.9339 0.0
C571 C 0.6583 0.52085 0.93579 0.0
C572 C 0.68818 0.52697 0.94207 0.0
C573 C 0.60233 0.51031 0.92283 0.0
C574 C 0.61336 0.53429 0.91767 0.0
C575 C 0.64111 0.53934 0.92447 0.0
C576 C 0.59626 0.55425 0.90514 0.0
C577 C 0.57224 0.50412 0.91747 0.0
C578 C 0.58471 0.55112 0.87806 0.0
C579 C 0.56669 0.56892 0.86722 0.0
C580 C 0.56011 0.59039 0.8831 0.0
C581 C 0.57283 0.59409 0.90962 0.0
C582 C 0.59075 0.57613 0.92056 0.0
H583 H 0.56528 0.48749 0.92977 0.0
H584 H 0.55838 0.51989 0.92334 0.0
H585 H 0.56977 0.50007 0.89436 0.0
H586 H 0.58926 0.53465 0.8655 0.0
H587 H 0.55761 0.56566 0.84653 0.0
H588 H 0.33008 0.60421 0.43856 0.0
H589 H 0.35193 0.56837 0.41468 0.0
H590 H 0.34229 0.52573 0.49245 0.0
H591 H 0.32006 0.5612 0.51622 0.0
H592 H 0.40126 0.54564 0.43302 0.0
H593 H 0.31459 0.47767 0.43115 0.0
H594 H 0.30896 0.51047 0.4367 0.0
H595 H 0.32022 0.49124 0.46568 0.0
C596 C 0.33207 0.58702 0.45035 0.0
C597 C 0.32342 0.58557 0.4793 0.0
C598 C 0.34468 0.56661 0.43674 0.0
C599 C 0.3485 0.54428 0.45169 0.0
C600 C 0.33916 0.54259 0.48033 0.0
H601 H 0.43922 0.40677 0.42063 0.0
H602 H 0.40908 0.43982 0.4399 0.0
C603 C 0.3267 0.56298 0.49397 0.0
C604 C 0.36425 0.52344 0.4382 0.0
H605 H 0.36005 0.46207 0.42035 0.0
C606 C 0.39218 0.52743 0.42998 0.0
C607 C 0.35246 0.49962 0.43458 0.0
C608 C 0.32234 0.49445 0.44225 0.0
C609 C 0.40881 0.50816 0.41877 0.0
C610 C 0.39702 0.48432 0.41504 0.0
C611 C 0.36906 0.48032 0.4232 0.0
C612 C 0.41351 0.46345 0.40258 0.0
C613 C 0.4391 0.51335 0.41182 0.0
C614 C 0.42528 0.46539 0.37488 0.0
C615 C 0.44257 0.44666 0.3639 0.0
C616 C 0.44829 0.4254 0.38026 0.0
C617 C 0.43537 0.42292 0.4075 0.0
C618 C 0.41814 0.44179 0.41855 0.0
H619 H 0.44659 0.53016 0.42308 0.0
H620 H 0.4524 0.4974 0.41776 0.0
H621 H 0.44177 0.51658 0.38843 0.0
H622 H 0.42145 0.48162 0.36187 0.0
H623 H 0.45182 0.44907 0.34268 0.0
H624 H 0.78954 0.93701 0.9578 0.0
H625 H 0.81002 0.97235 0.93159 0.0
H626 H 0.89213 0.94804 0.95432 0.0
H627 H 0.87196 0.91258 0.97983 0.0
H628 H 0.84228 0.00993 0.95477 0.0
H629 H 0.90138 0.96111 0.86862 0.0
H630 H 0.87427 0.94618 0.88983 0.0
H631 H 0.90879 0.9493 0.90358 0.0
C632 C 0.81197 0.93896 0.95668 0.0
C633 C 0.82913 0.92205 0.97094 0.0
C634 C 0.82363 0.95922 0.94187 0.0
C635 C 0.85262 0.96269 0.94074 0.0
C636 C 0.86976 0.94552 0.95446 0.0
H637 H 0.95575 0.09139 0.92314 0.0
H638 H 0.92485 0.05792 0.93909 0.0
C639 C 0.85816 0.92539 0.96928 0.0
C640 C 0.86511 0.98499 0.92687 0.0
H641 H 0.9151 1.0031 0.87805 0.0
C642 C 0.85792 0.00849 0.9377 0.0
C643 C 0.88525 0.98314 0.90437 0.0
C644 C 0.89269 0.95859 0.89071 0.0
C645 C 0.87128 0.03007 0.92755 0.0
C646 C 0.89268 0.02803 0.90632 0.0
C647 C 0.89892 1.00465 0.89455 0.0
C648 C 0.90971 0.04967 0.89682 0.0
C649 C 0.86243 0.05482 0.93976 0.0
C650 C 0.91174 0.05606 0.86769 0.0
C651 C 0.92958 0.07511 0.85843 0.0
C652 C 0.94595 0.08805 0.87812 0.0
C653 C 0.9434 0.08193 0.90738 0.0
C654 C 0.92558 0.06287 0.91659 0.0
H655 H 0.84075 0.05415 0.94859 0.0
H656 H 0.87632 0.05982 0.95753 0.0
H657 H 0.86384 0.06965 0.92327 0.0
H658 H 0.89979 0.04606 0.85204 0.0
H659 H 0.93097 0.07931 0.83574 0.0
H660 H 0.14419 0.0912 0.48764 0.0
H661 H 0.12227 0.05716 0.46208 0.0
H662 H 0.20237 0.03476 0.42736 0.0
H663 H 0.22468 0.06841 0.45372 0.0
H664 H 0.1218 0.04629 0.40366 0.0
H665 H 0.17222 0.97132 0.4659 0.0
H666 H 0.17244 1.00333 0.47721 0.0
H667 H 0.19539 0.99316 0.44865 0.0
C668 C 0.1572 0.07893 0.47475 0.0
C669 C 0.18622 0.08229 0.47301 0.0
C670 C 0.14461 0.05961 0.45997 0.0
C671 C 0.16075 0.04324 0.44318 0.0
C672 C 0.18962 0.04696 0.44061 0.0
H673 H 0.07735 0.93461 0.33383 0.0
H674 H 0.10946 0.96668 0.35 0.0
C675 C 0.20228 0.06632 0.45544 0.0
C676 C 0.14708 0.02211 0.42892 0.0
H677 H 0.14137 0.95899 0.43011 0.0
C678 C 0.12624 0.02717 0.40918 0.0
C679 C 0.15279 0.99724 0.43646 0.0
C680 C 0.17426 0.9908 0.45837 0.0
C681 C 0.11047 0.00804 0.39722 0.0
C682 C 0.11607 0.98318 0.40488 0.0
C683 C 0.13732 0.97807 0.42415 0.0
C684 C 0.09855 0.96242 0.39498 0.0
C685 C 0.08715 0.01468 0.3775 0.0
C686 C 0.0826 0.9488 0.41501 0.0
C687 C 0.06438 0.9304 0.40592 0.0
C688 C 0.06178 0.92523 0.37655 0.0
C689 C 0.07863 0.93828 0.35658 0.0
C690 C 0.09691 0.95668 0.36575 0.0
H691 H 0.08198 0.03476 0.37844 0.0
H692 H 0.0935 0.01012 0.3551 0.0
H693 H 0.06808 1.00388 0.38302 0.0
H694 H 0.08367 0.9529 0.43769 0.0
H695 H 0.05188 0.92064 0.4219 0.0
H696 H 0.19356 0.96172 0.01525 0.0
H697 H 0.16945 0.99592 0.99181 0.0
H698 H 0.16196 0.95163 0.91545 0.0
H699 H 0.18541 0.91712 0.93895 0.0
H700 H 0.181 0.02194 0.9387 0.0
H701 H 0.08085 0.97021 0.93876 0.0
H702 H 0.10978 0.96088 0.96028 0.0
H703 H 0.11004 0.95427 0.92254 0.0
C704 C 0.18681 0.95928 0.99345 0.0
C705 C 0.19115 0.93662 0.97905 0.0
C706 C 0.17322 0.97888 0.98005 0.0
C707 C 0.16361 0.97614 0.95209 0.0
C708 C 0.16892 0.95396 0.9372 0.0
H709 H 0.05627 0.06447 0.84624 0.0
H710 H 0.08855 0.03379 0.86479 0.0
C711 C 0.18254 0.93436 0.95057 0.0
C712 C 0.14688 0.99605 0.93903 0.0
H713 H 0.08176 0.00908 0.91558 0.0
C714 C 0.1593 0.0192 0.93361 0.0
C715 C 0.11857 0.99236 0.93256 0.0
C716 C 0.10386 0.96818 0.93902 0.0
C717 C 0.14422 0.0387 0.92137 0.0
C718 C 0.11587 0.03501 0.91496 0.0
C719 C 0.10352 0.01184 0.92042 0.0
C720 C 0.09839 0.05484 0.9027 0.0
C721 C 0.15888 0.06288 0.91493 0.0
C722 C 0.09334 0.077 0.91776 0.0
C723 C 0.07491 0.09469 0.90715 0.0
C724 C 0.06095 0.09037 0.88145 0.0
C725 C 0.06652 0.06835 0.86618 0.0
C726 C 0.085 0.05078 0.87672 0.0
H727 H 0.18185 0.06052 0.91373 0.0
H728 H 0.15189 0.0709 0.89439 0.0
H729 H 0.15392 0.07633 0.9323 0.0
H730 H 0.10299 0.08029 0.93815 0.0
H731 H 0.07103 0.11139 0.9195 0.0
H732 H 0.86957 0.10029 0.48479 0.0
H733 H 0.89038 0.06347 0.46257 0.0
H734 H 0.80846 0.0348 0.44598 0.0
H735 H 0.78751 0.07207 0.46777 0.0
H736 H 0.8852 0.01628 0.4802 0.0
H737 H 0.84723 0.02456 0.36913 0.0
H738 H 0.84484 0.04972 0.39455 0.0
H739 H 0.82025 0.02459 0.39642 0.0
C740 C 0.856 0.08625 0.47613 0.0
C741 C 0.82692 0.08902 0.47801 0.0
C742 C 0.8679 0.06519 0.46347 0.0
C743 C 0.85104 0.04636 0.45244 0.0
C744 C 0.82194 0.04926 0.45381 0.0
H745 H 0.92935 0.90079 0.4165 0.0
H746 H 0.89767 0.9325 0.43624 0.0
C747 C 0.80998 0.07053 0.46629 0.0
C748 C 0.86424 0.02338 0.44076 0.0
H749 H 0.87248 0.98832 0.38016 0.0
C750 C 0.88232 0.0101 0.45836 0.0
C751 C 0.86056 0.01537 0.41222 0.0
C752 C 0.84238 0.02938 0.39185 0.0
C753 C 0.89737 0.98948 0.44805 0.0
C754 C 0.89369 0.98142 0.41952 0.0
C755 C 0.8751 0.99434 0.40211 0.0
C756 C 0.91092 0.96123 0.40648 0.0
C757 C 0.91803 0.97728 0.46745 0.0
C758 C 0.92805 0.96646 0.3825 0.0
C759 C 0.94583 0.94837 0.37099 0.0
C760 C 0.94704 0.92453 0.38324 0.0
C761 C 0.92917 0.919 0.40671 0.0
C762 C 0.91117 0.93717 0.41813 0.0
H763 H 0.92295 0.98915 0.48612 0.0
H764 H 0.90913 0.95963 0.47577 0.0
H765 H 0.93775 0.97297 0.45558 0.0
H766 H 0.92822 0.98483 0.37306 0.0
H767 H 0.95912 0.95335 0.35282 0.0
H768 H 0.31668 0.41575 0.08151 0.0
H769 H 0.33974 0.40914 0.12704 0.0
H770 H 0.34778 0.3312 0.10789 0.0
H771 H 0.32531 0.33778 0.06184 0.0
H772 H 0.32744 0.37761 0.1744 0.0
H773 H 0.42848 0.35407 0.12038 0.0
H774 H 0.40013 0.36815 0.10158 0.0
H775 H 0.39918 0.33566 0.11006 0.0
C776 C 0.32333 0.39718 0.08698 0.0
C777 C 0.3195 0.37734 0.06788 0.0
C778 C 0.33634 0.39342 0.11309 0.0
C779 C 0.34587 0.36977 0.12062 0.0
C780 C 0.34097 0.34968 0.10225 0.0
H781 H 0.45393 0.32612 0.25957 0.0
H782 H 0.4219 0.32555 0.21967 0.0
C783 C 0.32789 0.35343 0.07609 0.0
C784 C 0.362 0.36657 0.1471 0.0
H785 H 0.427 0.35311 0.17078 0.0
C786 C 0.34917 0.37213 0.17367 0.0
C787 C 0.39035 0.35946 0.14605 0.0
C788 C 0.40552 0.35417 0.11802 0.0
C789 C 0.36397 0.37077 0.19926 0.0
C790 C 0.39248 0.36414 0.19814 0.0
C791 C 0.40513 0.35815 0.17161 0.0
C792 C 0.40997 0.36408 0.22398 0.0
C793 C 0.34888 0.37625 0.22726 0.0
C794 C 0.41384 0.38592 0.2398 0.0
C795 C 0.43211 0.38632 0.26271 0.0
C796 C 0.44713 0.36493 0.27007 0.0
C797 C 0.44279 0.34296 0.25449 0.0
C798 C 0.42447 0.34258 0.23165 0.0
H799 H 0.32604 0.37366 0.2255 0.0
H800 H 0.35645 0.36417 0.24472 0.0
H801 H 0.35267 0.39584 0.2333 0.0
H802 H 0.40336 0.40289 0.2339 0.0
H803 H 0.435 0.40358 0.27415 0.0
H804 H 0.72067 0.64148 0.57916 0.0
H805 H 0.69892 0.64842 0.62638 0.0
H806 H 0.61906 0.6282 0.59299 0.0
H807 H 0.64011 0.62306 0.54549 0.0
H808 H 0.61392 0.66702 0.62617 0.0
H809 H 0.67567 0.5959 0.68263 0.0
H810 H 0.69645 0.61978 0.666 0.0
H811 H 0.67666 0.59904 0.64416 0.0
C812 C 0.69841 0.63884 0.58176 0.0
C813 C 0.68224 0.63141 0.55848 0.0
C814 C 0.68608 0.64243 0.60891 0.0
C815 C 0.65746 0.63824 0.61343 0.0
C816 C 0.64123 0.63133 0.59013 0.0
H817 H 0.56219 0.60553 0.76627 0.0
H818 H 0.59271 0.60549 0.72364 0.0
C819 C 0.65341 0.62811 0.56298 0.0
C820 C 0.644 0.64121 0.64219 0.0
H821 H 0.64433 0.61974 0.71106 0.0
C822 C 0.62062 0.65673 0.64476 0.0
C823 C 0.6526 0.62757 0.66636 0.0
C824 C 0.67654 0.60946 0.66469 0.0
C825 C 0.60517 0.65856 0.67053 0.0
C826 C 0.61401 0.64525 0.69485 0.0
C827 C 0.63775 0.63012 0.69248 0.0
C828 C 0.59776 0.6454 0.7223 0.0
C829 C 0.57878 0.6738 0.67093 0.0
C830 C 0.59119 0.66776 0.73631 0.0
C831 C 0.57329 0.66787 0.76035 0.0
C832 C 0.56227 0.64554 0.77126 0.0
C833 C 0.57032 0.62304 0.75833 0.0
C834 C 0.58778 0.62299 0.73397 0.0
H835 H 0.57109 0.67705 0.64897 0.0
H836 H 0.562 0.66458 0.68376 0.0
H837 H 0.58299 0.69217 0.68064 0.0
H838 H 0.59937 0.6852 0.72826 0.0
H839 H 0.56779 0.68545 0.77018 0.0
H840 H 0.72706 0.36794 0.08197 0.0
H841 H 0.7064 0.35693 0.1289 0.0
H842 H 0.62494 0.37527 0.09823 0.0
H843 H 0.64524 0.38571 0.05135 0.0
H844 H 0.67627 0.38835 0.16539 0.0
H845 H 0.61229 0.30749 0.13557 0.0
H846 H 0.6402 0.31927 0.11279 0.0
H847 H 0.60641 0.33371 0.11282 0.0
C848 C 0.7047 0.36925 0.08517 0.0
C849 C 0.68776 0.37778 0.06304 0.0
C850 C 0.69297 0.36303 0.11195 0.0
C851 C 0.66411 0.36493 0.11687 0.0
C852 C 0.64718 0.37319 0.09472 0.0
H853 H 0.55815 0.39909 0.25605 0.0
H854 H 0.59221 0.39712 0.21667 0.0
C855 C 0.65886 0.37947 0.06806 0.0
C856 C 0.6516 0.36001 0.14561 0.0
H857 H 0.59843 0.32871 0.1792 0.0
C858 C 0.65962 0.37497 0.16859 0.0
C859 C 0.63023 0.34226 0.14989 0.0
C860 C 0.62197 0.32459 0.12651 0.0
C861 C 0.64548 0.37384 0.19521 0.0
C862 C 0.62254 0.35758 0.19871 0.0
C863 C 0.61582 0.34138 0.17637 0.0
C864 C 0.60356 0.35886 0.22412 0.0
C865 C 0.65476 0.39053 0.21911 0.0
C866 C 0.59832 0.33785 0.24118 0.0
C867 C 0.57863 0.33885 0.26376 0.0
C868 C 0.56362 0.36082 0.26933 0.0
C869 C 0.56927 0.38187 0.25236 0.0
C870 C 0.58895 0.38086 0.22997 0.0
H871 H 0.67717 0.39537 0.21654 0.0
H872 H 0.64265 0.40804 0.21862 0.0
H873 H 0.65126 0.38168 0.24038 0.0
H874 H 0.60924 0.32063 0.23682 0.0
H875 H 0.57477 0.32231 0.27641 0.0
H876 H 0.323 0.60127 0.58054 0.0
H877 H 0.34611 0.60883 0.6258 0.0
H878 H 0.35195 0.68672 0.60581 0.0
H879 H 0.32935 0.67927 0.55992 0.0
H880 H 0.40356 0.63577 0.62507 0.0
H881 H 0.31954 0.67795 0.69356 0.0
H882 H 0.31166 0.6567 0.6649 0.0
H883 H 0.32376 0.68734 0.65659 0.0
C884 C 0.32913 0.62005 0.58572 0.0
C885 C 0.32461 0.63963 0.56642 0.0
C886 C 0.34214 0.62434 0.61169 0.0
C887 C 0.35062 0.64831 0.6191 0.0
C888 C 0.34528 0.66812 0.60052 0.0
H889 H 0.44273 0.69164 0.77193 0.0
H890 H 0.41363 0.69302 0.72939 0.0
C891 C 0.33232 0.66383 0.57437 0.0
C892 C 0.36714 0.65196 0.64515 0.0
H893 H 0.36277 0.67069 0.71504 0.0
C894 C 0.39474 0.64355 0.64471 0.0
C895 C 0.35559 0.66238 0.67052 0.0
C896 C 0.32598 0.67163 0.67174 0.0
C897 C 0.41104 0.64483 0.6692 0.0
C898 C 0.39913 0.65414 0.69508 0.0
C899 C 0.37177 0.66337 0.69526 0.0
C900 C 0.41456 0.65337 0.72227 0.0
C901 C 0.44092 0.63622 0.66707 0.0
C902 C 0.42385 0.63057 0.73294 0.0
C903 C 0.44054 0.62973 0.75699 0.0
C904 C 0.44805 0.65167 0.77118 0.0
C905 C 0.43742 0.67441 0.76144 0.0
C906 C 0.42082 0.67524 0.73713 0.0
H907 H 0.44911 0.63693 0.64462 0.0
H908 H 0.45453 0.6477 0.68067 0.0
H909 H 0.44215 0.61669 0.67445 0.0
H910 H 0.41865 0.6134 0.72226 0.0
H911 H 0.44799 0.61186 0.76417 0.0
H912 H 0.8716 0.874 0.04576 0.0
H913 H 0.89273 0.87015 0.09265 0.0
H914 H 0.81112 0.86969 0.13328 0.0
H915 H 0.7898 0.87308 0.0861 0.0
H916 H 0.88893 0.90323 0.13569 0.0
H917 H 0.84837 0.81202 0.17295 0.0
H918 H 0.84618 0.82213 0.1362 0.0
H919 H 0.82199 0.83375 0.16293 0.0
C920 C 0.85815 0.87285 0.06468 0.0
C921 C 0.82907 0.87393 0.06233 0.0
C922 C 0.87024 0.87063 0.09145 0.0
C923 C 0.85355 0.86949 0.11651 0.0
C924 C 0.82442 0.87005 0.11423 0.0
H925 H 0.92898 0.902 0.282 0.0
H926 H 0.89814 0.90283 0.24098 0.0
C927 C 0.81226 0.87205 0.08731 0.0
C928 C 0.86699 0.86921 0.14487 0.0
H929 H 0.87416 0.83537 0.20618 0.0
C930 C 0.88563 0.88842 0.15114 0.0
C931 C 0.8628 0.8498 0.16493 0.0
C932 C 0.84395 0.82812 0.1589 0.0
C933 C 0.90056 0.88858 0.17662 0.0
C934 C 0.89617 0.86933 0.19685 0.0
C935 C 0.87727 0.85025 0.19078 0.0
C936 C 0.91251 0.86781 0.22343 0.0
C937 C 0.92171 0.90886 0.18106 0.0
C938 C 0.92987 0.84733 0.22794 0.0
C939 C 0.94727 0.84666 0.2515 0.0
C940 C 0.94774 0.86652 0.27106 0.0
C941 C 0.92942 0.88655 0.26718 0.0
C942 C 0.91185 0.8871 0.24367 0.0
H943 H 0.92734 0.91852 0.1607 0.0
H944 H 0.91285 0.92284 0.19616 0.0
H945 H 0.94101 0.9013 0.19036 0.0
H946 H 0.93064 0.83218 0.21268 0.0
H947 H 0.96096 0.83087 0.25386 0.0
H948 H 0.18924 0.16935 0.56016 0.0
H949 H 0.1677 0.17617 0.60766 0.0
H950 H 0.17035 0.09753 0.62427 0.0
H951 H 0.19224 0.09062 0.5771 0.0
H952 H 0.11602 0.15444 0.62434 0.0
H953 H 0.19958 0.1284 0.69876 0.0
H954 H 0.20651 0.13633 0.66164 0.0
H955 H 0.19346 0.10609 0.67102 0.0
C956 C 0.1858 0.1536 0.57422 0.0
C957 C 0.19232 0.12944 0.56493 0.0
C958 C 0.17343 0.15751 0.60125 0.0
C959 C 0.16773 0.13738 0.61954 0.0
C960 C 0.17501 0.11335 0.61067 0.0
H961 H 0.07189 0.10717 0.7732 0.0
H962 H 0.10408 0.10677 0.73184 0.0
C963 C 0.18723 0.10941 0.58362 0.0
C964 C 0.15175 0.14112 0.64667 0.0
H965 H 0.15363 0.13185 0.71897 0.0
C966 C 0.12432 0.14983 0.6451 0.0
C967 C 0.16263 0.13485 0.6736 0.0
C968 C 0.19225 0.12609 0.67651 0.0
C969 C 0.1071 0.15167 0.66967 0.0
C970 C 0.11787 0.14518 0.69664 0.0
C971 C 0.14547 0.13685 0.69828 0.0
C972 C 0.10035 0.14604 0.72315 0.0
C973 C 0.07718 0.15956 0.66635 0.0
C974 C 0.08826 0.16839 0.73247 0.0
C975 C 0.06967 0.16867 0.75593 0.0
C976 C 0.06309 0.14661 0.77072 0.0
C977 C 0.07637 0.12446 0.76221 0.0
C978 C 0.09481 0.12419 0.7386 0.0
H979 H 0.07045 0.15786 0.64382 0.0
H980 H 0.06299 0.14827 0.68022 0.0
H981 H 0.07492 0.17928 0.6728 0.0
H982 H 0.09278 0.18556 0.72124 0.0
H983 H 0.06012 0.18611 0.76217 0.0
H984 H 0.1944 0.91992 0.08166 0.0
H985 H 0.17111 0.91068 0.12762 0.0
H986 H 0.1649 0.83367 0.10393 0.0
H987 H 0.18766 0.84276 0.05752 0.0
H988 H 0.11237 0.87988 0.12486 0.0
H989 H 0.19709 0.84402 0.19325 0.0
H990 H 0.20427 0.86715 0.16602 0.0
H991 H 0.19595 0.83609 0.15568 0.0
C992 C 0.18825 0.90098 0.08626 0.0
C993 C 0.19268 0.88211 0.06584 0.0
C994 C 0.17516 0.89573 0.11258 0.0
C995 C 0.1665 0.87152 0.11906 0.0
C996 C 0.17176 0.85242 0.09931 0.0
H997 H 0.06996 0.82344 0.27147 0.0
H998 H 0.10148 0.82318 0.22923 0.0
C999 C 0.18483 0.85766 0.07289 0.0
C1000 C 0.14938 0.86691 0.14516 0.0
H1001 H 0.15267 0.84932 0.21527 0.0
C1002 C 0.12108 0.87302 0.14459 0.0
C1003 C 0.16088 0.8577 0.17059 0.0
C1004 C 0.19123 0.85079 0.17173 0.0
C1005 C 0.10396 0.87073 0.16915 0.0
C1006 C 0.11568 0.86266 0.19509 0.0
C1007 C 0.14383 0.85566 0.19539 0.0
C1008 C 0.09916 0.86279 0.22224 0.0
C1009 C 0.07347 0.87711 0.16714 0.0
C1010 C 0.08833 0.88523 0.23278 0.0
C1011 C 0.07031 0.88543 0.25661 0.0
C1012 C 0.06296 0.8632 0.2706 0.0
C1013 C 0.07513 0.84085 0.26105 0.0
C1014 C 0.09311 0.84066 0.23696 0.0
H1015 H 0.0663 0.87594 0.14471 0.0
H1016 H 0.06042 0.86458 0.18075 0.0
H1017 H 0.0701 0.89642 0.17468 0.0
H1018 H 0.09328 0.90257 0.22208 0.0
H1019 H 0.06169 0.90301 0.26371 0.0
H1020 H 0.82786 0.18094 0.56075 0.0
H1021 H 0.85041 0.18813 0.60679 0.0
H1022 H 0.84635 0.10987 0.6252 0.0
H1023 H 0.82349 0.10256 0.57974 0.0
H1024 H 0.8321 0.16721 0.67002 0.0
H1025 H 0.93292 0.13595 0.62112 0.0
H1026 H 0.90536 0.14892 0.60008 0.0
H1027 H 0.90249 0.11782 0.61348 0.0
C1028 C 0.83126 0.16536 0.57489 0.0
C1029 C 0.82423 0.14113 0.56644 0.0
C1030 C 0.84417 0.16949 0.60111 0.0
C1031 C 0.85016 0.14948 0.61918 0.0
C1032 C 0.84201 0.1255 0.61141 0.0
H1033 H 0.95024 0.11277 0.76134 0.0
H1034 H 0.91987 0.11473 0.72028 0.0
C1035 C 0.82913 0.12136 0.58535 0.0
C1036 C 0.86681 0.15302 0.64513 0.0
H1037 H 0.9312 0.14136 0.6713 0.0
C1038 C 0.85385 0.16187 0.67037 0.0
C1039 C 0.89511 0.14596 0.64535 0.0
C1040 C 0.91 0.13675 0.61857 0.0
C1041 C 0.86832 0.16293 0.69624 0.0
C1042 C 0.89651 0.15527 0.69659 0.0
C1043 C 0.90957 0.14713 0.67105 0.0
C1044 C 0.9127 0.15428 0.7233 0.0
C1045 C 0.85305 0.17125 0.72316 0.0
C1046 C 0.9185 0.17584 0.73897 0.0
C1047 C 0.93583 0.17477 0.7627 0.0
C1048 C 0.94794 0.15214 0.7709 0.0
C1049 C 0.94147 0.13054 0.75554 0.0
C1050 C 0.92408 0.13161 0.73203 0.0
H1051 H 0.83012 0.17116 0.72059 0.0
H1052 H 0.85823 0.15914 0.74154 0.0
H1053 H 0.8595 0.19045 0.72841 0.0
H1054 H 0.91036 0.19361 0.73233 0.0
H1055 H 0.94048 0.19177 0.77398 0.0
loop_
_geom_bond_atom_site_label_1
_geom_bond_atom_site_label_2
_geom_bond_distance
_geom_bond_site_symmetry_2
_ccdc_geom_bond_type
H0 C7 0.929 . S
H1 C10 0.930 . S
H2 C12 0.929 . S
H3 C4 0.969 . S
C4 H3 0.969 . S
C4 O5 1.550 1_556 S
C4 H6 0.973 . S
O5 C4 1.550 1_554 S
O5 C11 1.412 . S
H6 C4 0.973 . S
C7 H0 0.929 . S
C7 C8 1.400 . S
C7 C9 1.341 1_554 S
C8 C7 1.400 . S
C8 C12 1.377 . S
C9 C7 1.341 1_556 S
C9 C10 1.382 . S
C10 H1 0.930 . S
C10 C9 1.382 . S
C10 C11 1.383 1_556 S
C11 O5 1.412 . S
C11 C10 1.383 1_554 S
C11 C12 1.394 . S
C12 H2 0.929 . S
C12 C8 1.377 . S
C12 C11 1.394 . S
H13 C20 0.929 . S
H14 C23 0.930 . S
H15 C25 0.929 . S
H16 C17 0.969 . S
C17 H16 0.969 . S
C17 O18 1.550 . S
C17 H19 0.973 . S
O18 C17 1.550 . S
O18 C24 1.412 . S
H19 C17 0.973 . S
C20 H13 0.929 . S
C20 C21 1.400 . S
C20 C22 1.364 . S
C21 C20 1.400 . S
C21 C25 1.377 . S
C22 C20 1.364 . S
C22 C23 1.374 . S
C23 H14 0.930 . S
C23 C22 1.374 . S
C23 C24 1.383 . S
C24 O18 1.412 . S
C24 C23 1.383 . S
C24 C25 1.394 . S
C25 H15 0.929 . S
C25 C21 1.377 . S
C25 C24 1.394 . S
H26 C33 0.929 . S
H27 C36 0.930 . S
H28 C38 0.929 . S
H29 C30 0.969 . S
C30 H29 0.969 . S
C30 O31 1.550 . S
C30 H32 0.973 1_556 S
O31 C30 1.550 . S
O31 C37 1.412 . S
H32 C30 0.973 1_554 S
C33 H26 0.929 . S
C33 C34 1.400 1_554 S
C33 C35 1.364 . S
C34 C33 1.400 1_556 S
C34 C38 1.377 . S
C35 C33 1.364 . S
C35 C36 1.374 . S
C36 H27 0.930 . S
C36 C35 1.374 . S
C36 C37 1.383 1_554 S
C37 O31 1.412 . S
C37 C36 1.383 1_556 S
C37 C38 1.394 . S
C38 H28 0.929 . S
C38 C34 1.377 . S
C38 C37 1.394 . S
H39 C46 0.929 . S
H40 C49 0.930 . S
H41 C51 0.929 . S
H42 C43 0.969 . S
C43 H42 0.969 . S
C43 O44 1.550 . S
C43 H45 0.973 . S
O44 C43 1.550 . S
O44 C50 1.412 . S
H45 C43 0.973 . S
C46 H39 0.929 . S
C46 C47 1.400 . S
C46 C48 1.364 . S
C47 C46 1.400 . S
C47 C51 1.377 . S
C48 C46 1.364 . S
C48 C49 1.374 . S
C49 H40 0.930 . S
C49 C48 1.374 . S
C49 C50 1.383 . S
C50 O44 1.412 . S
C50 C49 1.383 . S
C50 C51 1.394 . S
C51 H41 0.929 . S
C51 C47 1.377 . S
C51 C50 1.394 . S
H52 C59 0.929 . S
H53 C62 0.930 . S
H54 C64 0.929 . S
H55 C56 0.969 . S
C56 H55 0.969 . S
C56 O57 1.550 1_556 S
C56 H58 0.973 . S
O57 C56 1.550 1_554 S
O57 C63 1.412 . S
H58 C56 0.973 . S
C59 H52 0.929 . S
C59 C60 1.400 . S
C59 C61 1.341 1_554 S
C60 C59 1.400 . S
C60 C64 1.377 . S
C61 C59 1.341 1_556 S
C61 C62 1.382 . S
C62 H53 0.930 . S
C62 C61 1.382 . S
C62 C63 1.383 1_556 S
C63 O57 1.412 . S
C63 C62 1.383 1_554 S
C63 C64 1.394 . S
C64 H54 0.929 . S
C64 C60 1.377 . S
C64 C63 1.394 . S
H65 C72 0.929 . S
H66 C75 0.930 . S
H67 C77 0.929 . S
H68 C69 0.969 . S
C69 H68 0.969 . S
C69 O70 1.550 . S
C69 H71 0.973 . S
O70 C69 1.550 . S
O70 C76 1.412 . S
H71 C69 0.973 . S
C72 H65 0.929 . S
C72 C73 1.400 . S
C72 C74 1.364 . S
C73 C72 1.400 . S
C73 C77 1.377 . S
C74 C72 1.364 . S
C74 C75 1.374 . S
C75 H66 0.930 . S
C75 C74 1.374 . S
C75 C76 1.383 . S
C76 O70 1.412 . S
C76 C75 1.383 . S
C76 C77 1.394 . S
C77 H67 0.929 . S
C77 C73 1.377 . S
C77 C76 1.394 . S
H78 C85 0.929 . S
H79 C88 0.930 . S
H80 C90 0.929 . S
H81 C82 0.969 . S
C82 H81 0.969 . S
C82 O83 1.550 . S
C82 H84 0.973 1_556 S
O83 C82 1.550 . S
O83 C89 1.412 . S
H84 C82 0.973 1_554 S
C85 H78 0.929 . S
C85 C86 1.400 1_554 S
C85 C87 1.364 . S
C86 C85 1.400 1_556 S
C86 C90 1.377 . S
C87 C85 1.364 . S
C87 C88 1.374 . S
C88 H79 0.930 . S
C88 C87 1.374 . S
C88 C89 1.383 1_554 S
C89 O83 1.412 . S
C89 C88 1.383 1_556 S
C89 C90 1.394 . S
C90 H80 0.929 . S
C90 C86 1.377 . S
C90 C89 1.394 . S
H91 C98 0.929 . S
H92 C101 0.930 . S
H93 C103 0.929 . S
H94 C95 0.969 . S
C95 H94 0.969 . S
C95 O96 1.550 . S
C95 H97 0.973 . S
O96 C95 1.550 . S
O96 C102 1.412 . S
H97 C95 0.973 . S
C98 H91 0.929 . S
C98 C99 1.400 . S
C98 C100 1.364 . S
C99 C98 1.400 . S
C99 C103 1.377 . S
C100 C98 1.364 . S
C100 C101 1.374 . S
C101 H92 0.930 . S
C101 C100 1.374 . S
C101 C102 1.383 . S
C102 O96 1.412 . S
C102 C101 1.383 . S
C102 C103 1.394 . S
C103 H93 0.929 . S
C103 C99 1.377 . S
C103 C102 1.394 . S
Fe104 O106 1.918 . S
Fe104 O109 1.997 1_455 S
Fe104 O110 2.002 1_455 S
Fe104 O115 1.976 . S
Fe104 O118 1.996 . S
Fe105 O106 1.918 . S
Fe105 O113 1.997 1_455 S
Fe105 O116 1.996 . S
Fe105 O120 1.976 . S
Fe105 O123 2.002 1_455 S
O106 Fe104 1.918 . S
O106 Fe105 1.918 . S
O106 Fe107 1.918 . S
Fe107 O106 1.918 . S
Fe107 O108 2.002 1_455 S
Fe107 O117 1.976 . S
Fe107 O121 1.996 . S
Fe107 O124 1.997 1_455 S
O108 Fe107 2.002 1_655 S
O108 C125 1.295 . S
O109 Fe104 1.997 1_655 S
O109 C125 1.235 . S
O110 Fe104 2.002 1_655 S
O110 C111 1.295 . S
C111 O110 1.295 . S
C111 O113 1.235 . S
C112 O117 1.287 . S
C112 O118 1.255 . S
O113 Fe105 1.997 1_655 S
O113 C111 1.235 . S
C114 O120 1.287 . S
C114 O121 1.255 . S
O115 Fe104 1.976 . S
O115 C122 1.287 . S
O116 Fe105 1.996 . S
O116 C122 1.255 . S
O117 Fe107 1.976 . S
O117 C112 1.287 . S
O118 Fe104 1.996 . S
O118 C112 1.255 . S
C119 O123 1.295 . S
C119 O124 1.235 . S
O120 Fe105 1.976 . S
O120 C114 1.287 . S
O121 Fe107 1.996 . S
O121 C114 1.255 . S
C122 O115 1.287 . S
C122 O116 1.255 . S
O123 Fe105 2.002 1_655 S
O123 C119 1.295 . S
O124 Fe107 1.997 1_655 S
O124 C119 1.235 . S
C125 O108 1.295 . S
C125 O109 1.235 . S
Fe126 O128 1.918 . S
Fe126 O131 1.997 1_655 S
Fe126 O132 2.002 1_655 S
Fe126 O137 1.976 . S
Fe126 O140 1.996 . S
Fe127 O128 1.919 . S
Fe127 O135 1.974 1_655 S
Fe127 O138 2.018 . S
Fe127 O142 1.999 . S
Fe127 O145 1.980 1_655 S
O128 Fe126 1.918 . S
O128 Fe127 1.919 . S
O128 Fe129 1.919 . S
Fe129 O128 1.919 . S
Fe129 O130 1.982 1_655 S
Fe129 O139 1.996 . S
Fe129 O143 2.016 . S
Fe129 O146 1.977 1_655 S
O130 Fe129 1.982 1_455 S
O130 C147 1.295 . S
O131 Fe126 1.997 1_455 S
O131 C147 1.235 . S
O132 Fe126 2.002 1_455 S
O132 C133 1.295 . S
C133 O132 1.295 . S
C133 O135 1.235 . S
C134 O139 1.287 . S
C134 O140 1.255 . S
O135 Fe127 1.974 1_455 S
O135 C133 1.235 . S
C136 O142 1.287 . S
C136 O143 1.255 . S
O137 Fe126 1.976 . S
O137 C144 1.287 . S
O138 Fe127 2.018 . S
O138 C144 1.255 . S
O139 Fe129 1.996 . S
O139 C134 1.287 . S
O140 Fe126 1.996 . S
O140 C134 1.255 . S
C141 O145 1.295 . S
C141 O146 1.235 . S
O142 Fe127 1.999 . S
O142 C136 1.287 . S
O143 Fe129 2.016 . S
O143 C136 1.255 . S
C144 O137 1.287 . S
C144 O138 1.255 . S
O145 Fe127 1.980 1_455 S
O145 C141 1.295 . S
O146 Fe129 1.977 1_455 S
O146 C141 1.235 . S
C147 O130 1.295 . S
C147 O131 1.235 . S
Fe148 O150 1.918 . S
Fe148 O153 1.997 . S
Fe148 O154 2.002 . S
Fe148 O159 1.976 . S
Fe148 O162 1.996 . S
Fe149 O150 1.918 . S
Fe149 O157 1.997 . S
Fe149 O160 1.996 . S
Fe149 O164 1.976 . S
Fe149 O167 2.002 . S
O150 Fe148 1.918 . S
O150 Fe149 1.918 . S
O150 Fe151 1.918 . S
Fe151 O150 1.918 . S
Fe151 O152 2.002 . S
Fe151 O161 1.976 . S
Fe151 O165 1.996 . S
Fe151 O168 1.997 . S
O152 Fe151 2.002 . S
O152 C169 1.295 . S
O153 Fe148 1.997 . S
O153 C169 1.235 . S
O154 Fe148 2.002 . S
O154 C155 1.295 . S
C155 O154 1.295 . S
C155 O157 1.235 . S
C156 O161 1.287 . S
C156 O162 1.255 . S
O157 Fe149 1.997 . S
O157 C155 1.235 . S
C158 O164 1.287 . S
C158 O165 1.255 . S
O159 Fe148 1.976 . S
O159 C166 1.287 . S
O160 Fe149 1.996 . S
O160 C166 1.255 . S
O161 Fe151 1.976 . S
O161 C156 1.287 . S
O162 Fe148 1.996 . S
O162 C156 1.255 . S
C163 O167 1.295 . S
C163 O168 1.235 . S
O164 Fe149 1.976 . S
O164 C158 1.287 . S
O165 Fe151 1.996 . S
O165 C158 1.255 . S
C166 O159 1.287 . S
C166 O160 1.255 . S
O167 Fe149 2.002 . S
O167 C163 1.295 . S
O168 Fe151 1.997 . S
O168 C163 1.235 . S
C169 O152 1.295 . S
C169 O153 1.235 . S
Fe170 O172 1.918 . S
Fe170 O175 1.997 . S
Fe170 O176 2.002 . S
Fe170 O181 1.976 . S
Fe170 O184 1.996 . S
Fe171 O172 1.918 . S
Fe171 O179 1.997 . S
Fe171 O182 1.996 . S
Fe171 O186 1.976 . S
Fe171 O189 2.002 . S
O172 Fe170 1.918 . S
O172 Fe171 1.918 . S
O172 Fe173 1.918 . S
Fe173 O172 1.918 . S
Fe173 O174 2.002 . S
Fe173 O183 1.976 . S
Fe173 O187 1.996 . S
Fe173 O190 1.997 . S
O174 Fe173 2.002 . S
O174 C191 1.295 . S
O175 Fe170 1.997 . S
O175 C191 1.235 . S
O176 Fe170 2.002 . S
O176 C177 1.295 . S
C177 O176 1.295 . S
C177 O179 1.235 . S
C178 O183 1.287 . S
C178 O184 1.255 . S
O179 Fe171 1.997 . S
O179 C177 1.235 . S
C180 O186 1.287 . S
C180 O187 1.255 . S
O181 Fe170 1.976 . S
O181 C188 1.287 . S
O182 Fe171 1.996 . S
O182 C188 1.255 . S
O183 Fe173 1.976 . S
O183 C178 1.287 . S
O184 Fe170 1.996 . S
O184 C178 1.255 . S
C185 O189 1.295 . S
C185 O190 1.235 . S
O186 Fe171 1.976 . S
O186 C180 1.287 . S
O187 Fe173 1.996 . S
O187 C180 1.255 . S
C188 O181 1.287 . S
C188 O182 1.255 . S
O189 Fe171 2.002 . S
O189 C185 1.295 . S
O190 Fe173 1.997 . S
O190 C185 1.235 . S
C191 O174 1.295 . S
C191 O175 1.235 . S
H192 C200 0.929 1_554 S
H193 C202 0.930 . S
H194 C204 0.930 . S
H195 C207 0.929 . S
H196 C210 0.930 . S
H197 C212 0.960 . S
H198 C212 0.960 . S
H199 C212 0.960 . S
C200 H192 0.929 1_556 S
C200 C201 1.377 . S
C200 C202 1.384 . S
C201 C200 1.377 . S
C201 C207 1.390 . S
C202 H193 0.930 . S
C202 C200 1.384 . S
C202 C203 1.372 . S
C203 C202 1.372 . S
C203 C204 1.400 . S
C203 C208 1.490 . S
C204 H194 0.930 . S
C204 C203 1.400 . S
C204 C207 1.386 . S
H205 C221 0.930 . S
H206 C222 0.931 . S
C207 H195 0.929 . S
C207 C201 1.390 . S
C207 C204 1.386 . S
C208 C203 1.490 . S
C208 C210 1.395 . S
C208 C211 1.403 . S
H209 C215 0.930 . S
C210 H196 0.930 . S
C210 C208 1.395 . S
C210 C213 1.403 . S
C211 C208 1.403 . S
C211 C212 1.524 . S
C211 C215 1.400 . S
C212 H197 0.960 . S
C212 H198 0.960 . S
C212 H199 0.960 . S
C212 C211 1.524 . S
C213 C210 1.403 . S
C213 C214 1.392 . S
C213 C217 1.495 . S
C214 C213 1.392 . S
C214 C215 1.385 . S
C214 C216 1.478 . S
C215 H209 0.930 . S
C215 C211 1.400 . S
C215 C214 1.385 . S
C216 C214 1.478 . S
C216 C218 1.381 . S
C216 C222 1.383 . S
C217 C213 1.495 . S
C217 H223 0.959 . S
C217 H224 0.961 . S
C217 H225 0.960 . S
C218 C216 1.381 . S
C218 C219 1.394 . S
C218 H226 0.930 . S
C219 C218 1.394 . S
C219 C220 1.383 . S
C219 H227 0.929 . S
C220 C219 1.383 . S
C220 C221 1.377 . S
C221 H205 0.930 . S
C221 C220 1.377 . S
C221 C222 1.379 . S
C222 H206 0.931 . S
C222 C216 1.383 . S
C222 C221 1.379 . S
H223 C217 0.959 . S
H224 C217 0.961 . S
H225 C217 0.960 . S
H226 C218 0.930 . S
H227 C219 0.929 . S
H228 C236 0.929 . S
H229 C238 0.930 . S
H230 C240 0.930 . S
H231 C243 0.929 . S
H232 C246 0.930 . S
H233 C248 0.960 . S
H234 C248 0.960 . S
H235 C248 0.960 . S
C236 H228 0.929 . S
C236 C237 1.377 . S
C236 C238 1.384 . S
C237 C236 1.377 . S
C237 C243 1.390 . S
C238 H229 0.930 . S
C238 C236 1.384 . S
C238 C239 1.372 . S
C239 C238 1.372 . S
C239 C240 1.400 . S
C239 C244 1.490 . S
C240 H230 0.930 . S
C240 C239 1.400 . S
C240 C243 1.386 . S
H241 C257 0.930 . S
H242 C258 0.931 . S
C243 H231 0.929 . S
C243 C237 1.390 . S
C243 C240 1.386 . S
C244 C239 1.490 . S
C244 C246 1.395 . S
C244 C247 1.403 . S
H245 C251 0.930 . S
C246 H232 0.930 . S
C246 C244 1.395 . S
C246 C249 1.403 . S
C247 C244 1.403 . S
C247 C248 1.524 . S
C247 C251 1.400 . S
C248 H233 0.960 . S
C248 H234 0.960 . S
C248 H235 0.960 . S
C248 C247 1.524 . S
C249 C246 1.403 . S
C249 C250 1.392 . S
C249 C253 1.495 . S
C250 C249 1.392 . S
C250 C251 1.385 . S
C250 C252 1.478 . S
C251 H245 0.930 . S
C251 C247 1.400 . S
C251 C250 1.385 . S
C252 C250 1.478 . S
C252 C254 1.381 . S
C252 C258 1.383 . S
C253 C249 1.495 . S
C253 H259 0.959 . S
C253 H260 0.961 . S
C253 H261 0.960 . S
C254 C252 1.381 . S
C254 C255 1.394 . S
C254 H262 0.930 . S
C255 C254 1.394 . S
C255 C256 1.383 . S
C255 H263 0.929 . S
C256 C255 1.383 . S
C256 C257 1.377 . S
C257 H241 0.930 . S
C257 C256 1.377 . S
C257 C258 1.379 . S
C258 H242 0.931 . S
C258 C252 1.383 . S
C258 C257 1.379 . S
H259 C253 0.959 . S
H260 C253 0.961 . S
H261 C253 0.960 . S
H262 C254 0.930 . S
H263 C255 0.929 . S
H264 C272 0.929 . S
H265 C274 0.930 . S
H266 C276 0.930 . S
H267 C279 0.929 . S
H268 C282 0.930 . S
H269 C284 0.960 . S
H270 C284 0.960 . S
H271 C284 0.960 . S
C272 H264 0.929 . S
C272 C273 1.377 . S
C272 C274 1.384 . S
C273 C272 1.377 . S
C273 C279 1.390 . S
C274 H265 0.930 . S
C274 C272 1.384 . S
C274 C275 1.372 . S
C275 C274 1.372 . S
C275 C276 1.400 . S
C275 C280 1.490 . S
C276 H266 0.930 . S
C276 C275 1.400 . S
C276 C279 1.386 . S
H277 C293 0.930 . S
H278 C294 0.931 . S
C279 H267 0.929 . S
C279 C273 1.390 . S
C279 C276 1.386 . S
C280 C275 1.490 . S
C280 C282 1.395 . S
C280 C283 1.403 . S
H281 C287 0.930 . S
C282 H268 0.930 . S
C282 C280 1.395 . S
C282 C285 1.403 . S
C283 C280 1.403 . S
C283 C284 1.524 . S
C283 C287 1.400 . S
C284 H269 0.960 . S
C284 H270 0.960 . S
C284 H271 0.960 . S
C284 C283 1.524 . S
C285 C282 1.403 . S
C285 C286 1.392 . S
C285 C289 1.495 . S
C286 C285 1.392 . S
C286 C287 1.385 . S
C286 C288 1.478 . S
C287 H281 0.930 . S
C287 C283 1.400 . S
C287 C286 1.385 . S
C288 C286 1.478 . S
C288 C290 1.381 . S
C288 C294 1.383 . S
C289 C285 1.495 . S
C289 H295 0.959 . S
C289 H296 0.961 . S
C289 H297 0.960 . S
C290 C288 1.381 . S
C290 C291 1.394 . S
C290 H298 0.930 . S
C291 C290 1.394 . S
C291 C292 1.383 . S
C291 H299 0.929 . S
C292 C291 1.383 . S
C292 C293 1.377 . S
C293 H277 0.930 . S
C293 C292 1.377 . S
C293 C294 1.379 . S
C294 H278 0.931 . S
C294 C288 1.383 . S
C294 C293 1.379 . S
H295 C289 0.959 . S
H296 C289 0.961 . S
H297 C289 0.960 . S
H298 C290 0.930 . S
H299 C291 0.929 . S
H300 C308 0.929 . S
H301 C310 0.930 . S
H302 C312 0.930 . S
H303 C315 0.929 . S
H304 C318 0.930 . S
H305 C320 0.960 . S
H306 C320 0.960 . S
H307 C320 0.960 . S
C308 H300 0.929 . S
C308 C309 1.377 . S
C308 C310 1.384 . S
C309 C308 1.377 . S
C309 C315 1.390 . S
C310 H301 0.930 . S
C310 C308 1.384 . S
C310 C311 1.372 . S
C311 C310 1.372 . S
C311 C312 1.400 . S
C311 C316 1.490 . S
C312 H302 0.930 . S
C312 C311 1.400 . S
C312 C315 1.386 . S
H313 C329 0.930 . S
H314 C330 0.931 . S
C315 H303 0.929 . S
C315 C309 1.390 . S
C315 C312 1.386 . S
C316 C311 1.490 . S
C316 C318 1.395 . S
C316 C319 1.403 . S
H317 C323 0.930 . S
C318 H304 0.930 . S
C318 C316 1.395 . S
C318 C321 1.403 . S
C319 C316 1.403 . S
C319 C320 1.524 . S
C319 C323 1.400 . S
C320 H305 0.960 . S
C320 H306 0.960 . S
C320 H307 0.960 . S
C320 C319 1.524 . S
C321 C318 1.403 . S
C321 C322 1.392 . S
C321 C325 1.495 . S
C322 C321 1.392 . S
C322 C323 1.385 . S
C322 C324 1.478 . S
C323 H317 0.930 . S
C323 C319 1.400 . S
C323 C322 1.385 . S
C324 C322 1.478 . S
C324 C326 1.381 . S
C324 C330 1.383 . S
C325 C321 1.495 . S
C325 H331 0.959 . S
C325 H332 0.961 . S
C325 H333 0.960 . S
C326 C324 1.381 . S
C326 C327 1.394 . S
C326 H334 0.930 . S
C327 C326 1.394 . S
C327 C328 1.383 . S
C327 H335 0.929 . S
C328 C327 1.383 . S
C328 C329 1.377 . S
C329 H313 0.930 . S
C329 C328 1.377 . S
C329 C330 1.379 . S
C330 H314 0.931 . S
C330 C324 1.383 . S
C330 C329 1.379 . S
H331 C325 0.959 . S
H332 C325 0.961 . S
H333 C325 0.960 . S
H334 C326 0.930 . S
H335 C327 0.929 . S
H336 C344 0.929 . S
H337 C346 0.930 . S
H338 C348 0.930 . S
H339 C351 0.929 . S
H340 C354 0.930 . S
H341 C356 0.960 . S
H342 C356 0.960 . S
H343 C356 0.960 . S
C344 H336 0.929 . S
C344 C345 1.377 . S
C344 C346 1.384 . S
C345 C344 1.377 . S
C345 C351 1.390 . S
C346 H337 0.930 . S
C346 C344 1.384 . S
C346 C347 1.372 . S
C347 C346 1.372 . S
C347 C348 1.400 . S
C347 C352 1.490 . S
C348 H338 0.930 . S
C348 C347 1.400 . S
C348 C351 1.386 . S
H349 C365 0.930 . S
H350 C366 0.931 . S
C351 H339 0.929 . S
C351 C345 1.390 . S
C351 C348 1.386 . S
C352 C347 1.490 . S
C352 C354 1.395 . S
C352 C355 1.403 . S
H353 C359 0.930 . S
C354 H340 0.930 . S
C354 C352 1.395 . S
C354 C357 1.403 . S
C355 C352 1.403 . S
C355 C356 1.524 . S
C355 C359 1.400 . S
C356 H341 0.960 . S
C356 H342 0.960 . S
C356 H343 0.960 . S
C356 C355 1.524 . S
C357 C354 1.403 . S
C357 C358 1.392 . S
C357 C361 1.495 . S
C358 C357 1.392 . S
C358 C359 1.385 . S
C358 C360 1.478 . S
C359 H353 0.930 . S
C359 C355 1.400 . S
C359 C358 1.385 . S
C360 C358 1.478 . S
C360 C362 1.381 . S
C360 C366 1.383 . S
C361 C357 1.495 . S
C361 H367 0.959 . S
C361 H368 0.961 . S
C361 H369 0.960 . S
C362 C360 1.381 . S
C362 C363 1.394 . S
C362 H370 0.930 . S
C363 C362 1.394 . S
C363 C364 1.383 . S
C363 H371 0.929 . S
C364 C363 1.383 . S
C364 C365 1.377 . S
C365 H349 0.930 . S
C365 C364 1.377 . S
C365 C366 1.379 . S
C366 H350 0.931 . S
C366 C360 1.383 . S
C366 C365 1.379 . S
H367 C361 0.959 . S
H368 C361 0.961 . S
H369 C361 0.960 . S
H370 C362 0.930 . S
H371 C363 0.929 . S
H372 C380 0.929 . S
H373 C382 0.930 . S
H374 C384 0.930 . S
H375 C387 0.929 . S
H376 C390 0.930 . S
H377 C392 0.960 . S
H378 C392 0.960 . S
H379 C392 0.960 . S
C380 H372 0.929 . S
C380 C381 1.377 . S
C380 C382 1.384 . S
C381 C380 1.377 . S
C381 C387 1.390 . S
C382 H373 0.930 . S
C382 C380 1.384 . S
C382 C383 1.372 . S
C383 C382 1.372 . S
C383 C384 1.400 . S
C383 C388 1.490 . S
C384 H374 0.930 . S
C384 C383 1.400 . S
C384 C387 1.386 . S
H385 C401 0.930 . S
H386 C402 0.931 . S
C387 H375 0.929 . S
C387 C381 1.390 . S
C387 C384 1.386 . S
C388 C383 1.490 . S
C388 C390 1.395 . S
C388 C391 1.403 . S
H389 C395 0.930 . S
C390 H376 0.930 . S
C390 C388 1.395 . S
C390 C393 1.403 . S
C391 C388 1.403 . S
C391 C392 1.524 . S
C391 C395 1.400 . S
C392 H377 0.960 . S
C392 H378 0.960 . S
C392 H379 0.960 . S
C392 C391 1.524 . S
C393 C390 1.403 . S
C393 C394 1.392 . S
C393 C397 1.495 . S
C394 C393 1.392 . S
C394 C395 1.385 . S
C394 C396 1.478 . S
C395 H389 0.930 . S
C395 C391 1.400 . S
C395 C394 1.385 . S
C396 C394 1.478 . S
C396 C398 1.381 . S
C396 C402 1.383 . S
C397 C393 1.495 . S
C397 H403 0.959 . S
C397 H404 0.961 . S
C397 H405 0.960 . S
C398 C396 1.381 . S
C398 C399 1.394 . S
C398 H406 0.930 . S
C399 C398 1.394 . S
C399 C400 1.383 . S
C399 H407 0.929 . S
C400 C399 1.383 . S
C400 C401 1.377 . S
C401 H385 0.930 . S
C401 C400 1.377 . S
C401 C402 1.379 . S
C402 H386 0.931 . S
C402 C396 1.383 . S
C402 C401 1.379 . S
H403 C397 0.959 . S
H404 C397 0.961 . S
H405 C397 0.960 . S
H406 C398 0.930 . S
H407 C399 0.929 . S
H408 C416 0.929 . S
H409 C418 0.930 . S
H410 C420 0.930 . S
H411 C423 0.934 . S
H412 C426 0.930 . S
H413 C428 0.960 . S
H414 C428 0.960 . S
H415 C428 0.960 . S
C416 H408 0.929 . S
C416 C417 1.377 . S
C416 C418 1.384 . S
C417 C416 1.377 . S
C417 C423 1.390 . S
C418 H409 0.930 . S
C418 C416 1.384 . S
C418 C419 1.372 . S
C419 C418 1.372 . S
C419 C420 1.400 . S
C419 C424 1.490 . S
C420 H410 0.930 . S
C420 C419 1.400 . S
C420 C423 1.386 . S
H421 C437 0.930 . S
H422 C438 0.931 . S
C423 H411 0.934 . S
C423 C417 1.390 . S
C423 C420 1.386 . S
C424 C419 1.490 . S
C424 C426 1.395 . S
C424 C427 1.403 . S
H425 C431 0.930 . S
C426 H412 0.930 . S
C426 C424 1.395 . S
C426 C429 1.403 . S
C427 C424 1.403 . S
C427 C428 1.524 . S
C427 C431 1.400 . S
C428 H413 0.960 . S
C428 H414 0.960 . S
C428 H415 0.960 . S
C428 C427 1.524 . S
C429 C426 1.403 . S
C429 C430 1.392 . S
C429 C433 1.495 . S
C430 C429 1.392 . S
C430 C431 1.385 . S
C430 C432 1.478 . S
C431 H425 0.930 . S
C431 C427 1.400 . S
C431 C430 1.385 . S
C432 C430 1.478 . S
C432 C434 1.381 . S
C432 C438 1.383 . S
C433 C429 1.495 . S
C433 H439 0.959 . S
C433 H440 0.961 . S
C433 H441 0.960 . S
C434 C432 1.381 . S
C434 C435 1.394 . S
C434 H442 0.930 . S
C435 C434 1.394 . S
C435 C436 1.383 . S
C435 H443 0.929 . S
C436 C435 1.383 . S
C436 C437 1.377 . S
C437 H421 0.930 . S
C437 C436 1.377 . S
C437 C438 1.379 . S
C438 H422 0.931 . S
C438 C432 1.383 . S
C438 C437 1.379 . S
H439 C433 0.959 . S
H440 C433 0.961 . S
H441 C433 0.960 . S
H442 C434 0.930 . S
H443 C435 0.929 . S
H444 C452 0.929 . S
H445 C454 0.930 . S
H446 C456 0.930 . S
H447 C459 0.929 . S
H448 C462 0.930 . S
H449 C464 0.960 . S
H450 C464 0.960 . S
H451 C464 0.960 . S
C452 H444 0.929 . S
C452 C453 1.377 . S
C452 C454 1.384 . S
C453 C452 1.377 . S
C453 C459 1.390 . S
C454 H445 0.930 . S
C454 C452 1.384 . S
C454 C455 1.372 . S
C455 C454 1.372 . S
C455 C456 1.400 . S
C455 C460 1.490 . S
C456 H446 0.930 . S
C456 C455 1.400 . S
C456 C459 1.386 . S
H457 C473 0.930 . S
H458 C474 0.931 . S
C459 H447 0.929 . S
C459 C453 1.390 . S
C459 C456 1.386 . S
C460 C455 1.490 . S
C460 C462 1.395 . S
C460 C463 1.403 . S
H461 C467 0.930 . S
C462 H448 0.930 . S
C462 C460 1.395 . S
C462 C465 1.403 . S
C463 C460 1.403 . S
C463 C464 1.524 . S
C463 C467 1.400 . S
C464 H449 0.960 . S
C464 H450 0.960 . S
C464 H451 0.960 . S
C464 C463 1.524 . S
C465 C462 1.403 . S
C465 C466 1.392 . S
C465 C469 1.495 . S
C466 C465 1.392 . S
C466 C467 1.385 . S
C466 C468 1.478 . S
C467 H461 0.930 . S
C467 C463 1.400 . S
C467 C466 1.385 . S
C468 C466 1.478 . S
C468 C470 1.381 . S
C468 C474 1.383 . S
C469 C465 1.495 . S
C469 H475 0.959 . S
C469 H476 0.961 . S
C469 H477 0.960 . S
C470 C468 1.381 . S
C470 C471 1.394 . S
C470 H478 0.930 . S
C471 C470 1.394 . S
C471 C472 1.383 . S
C471 H479 0.929 . S
C472 C471 1.383 . S
C472 C473 1.377 . S
C473 H457 0.930 . S
C473 C472 1.377 . S
C473 C474 1.379 . S
C474 H458 0.931 . S
C474 C468 1.383 . S
C474 C473 1.379 . S
H475 C469 0.959 . S
H476 C469 0.961 . S
H477 C469 0.960 . S
H478 C470 0.930 . S
H479 C471 0.929 . S
H480 C488 0.929 . S
H481 C490 0.930 . S
H482 C492 0.930 . S
H483 C495 0.929 1_554 S
H484 C498 0.930 . S
H485 C500 0.960 . S
H486 C500 0.960 . S
H487 C500 0.960 . S
C488 H480 0.929 . S
C488 C489 1.377 . S
C488 C490 1.384 . S
C489 C488 1.377 . S
C489 C495 1.390 . S
C490 H481 0.930 . S
C490 C488 1.384 . S
C490 C491 1.372 . S
C491 C490 1.372 . S
C491 C492 1.400 . S
C491 C496 1.490 . S
C492 H482 0.930 . S
C492 C491 1.400 . S
C492 C495 1.386 . S
H493 C509 0.930 . S
H494 C510 0.931 . S
C495 H483 0.929 1_556 S
C495 C489 1.390 . S
C495 C492 1.386 . S
C496 C491 1.490 . S
C496 C498 1.395 . S
C496 C499 1.403 . S
H497 C503 0.930 . S
C498 H484 0.930 . S
C498 C496 1.395 . S
C498 C501 1.403 . S
C499 C496 1.403 . S
C499 C500 1.524 . S
C499 C503 1.400 . S
C500 H485 0.960 . S
C500 H486 0.960 . S
C500 H487 0.960 . S
C500 C499 1.524 . S
C501 C498 1.403 . S
C501 C502 1.392 . S
C501 C505 1.495 . S
C502 C501 1.392 . S
C502 C503 1.385 . S
C502 C504 1.478 . S
C503 H497 0.930 . S
C503 C499 1.400 . S
C503 C502 1.385 . S
C504 C502 1.478 . S
C504 C506 1.381 . S
C504 C510 1.383 . S
C505 C501 1.495 . S
C505 H511 0.959 . S
C505 H512 0.961 . S
C505 H513 0.960 . S
C506 C504 1.381 . S
C506 C507 1.394 . S
C506 H514 0.930 . S
C507 C506 1.394 . S
C507 C508 1.383 . S
C507 H515 0.929 . S
C508 C507 1.383 . S
C508 C509 1.377 . S
C509 H493 0.930 . S
C509 C508 1.377 . S
C509 C510 1.379 . S
C510 H494 0.931 . S
C510 C504 1.383 . S
C510 C509 1.379 . S
H511 C505 0.959 . S
H512 C505 0.961 . S
H513 C505 0.960 . S
H514 C506 0.930 . S
H515 C507 0.929 . S
H516 C524 0.929 . S
H517 C526 0.930 . S
H518 C528 0.930 . S
H519 C531 0.929 . S
H520 C534 0.930 . S
H521 C536 0.960 . S
H522 C536 0.960 . S
H523 C536 0.960 . S
C524 H516 0.929 . S
C524 C525 1.377 . S
C524 C526 1.384 . S
C525 C524 1.377 . S
C525 C531 1.390 . S
C526 H517 0.930 . S
C526 C524 1.384 . S
C526 C527 1.372 . S
C527 C526 1.372 . S
C527 C528 1.400 . S
C527 C532 1.490 . S
C528 H518 0.930 . S
C528 C527 1.400 . S
C528 C531 1.386 . S
H529 C545 0.930 . S
H530 C546 0.931 . S
C531 H519 0.929 . S
C531 C525 1.390 . S
C531 C528 1.386 . S
C532 C527 1.490 . S
C532 C534 1.395 . S
C532 C535 1.403 . S
H533 C539 0.930 . S
C534 H520 0.930 . S
C534 C532 1.395 . S
C534 C537 1.403 . S
C535 C532 1.403 . S
C535 C536 1.524 . S
C535 C539 1.400 . S
C536 H521 0.960 . S
C536 H522 0.960 . S
C536 H523 0.960 . S
C536 C535 1.524 . S
C537 C534 1.403 . S
C537 C538 1.392 . S
C537 C541 1.495 . S
C538 C537 1.392 . S
C538 C539 1.385 . S
C538 C540 1.478 . S
C539 H533 0.930 . S
C539 C535 1.400 . S
C539 C538 1.385 . S
C540 C538 1.478 . S
C540 C542 1.381 . S
C540 C546 1.383 . S
C541 C537 1.495 . S
C541 H547 0.959 . S
C541 H548 0.961 . S
C541 H549 0.960 . S
C542 C540 1.381 . S
C542 C543 1.394 . S
C542 H550 0.930 . S
C543 C542 1.394 . S
C543 C544 1.383 . S
C543 H551 0.929 . S
C544 C543 1.383 . S
C544 C545 1.377 . S
C545 H529 0.930 . S
C545 C544 1.377 . S
C545 C546 1.379 . S
C546 H530 0.931 . S
C546 C540 1.383 . S
C546 C545 1.379 . S
H547 C541 0.959 . S
H548 C541 0.961 . S
H549 C541 0.960 . S
H550 C542 0.930 . S
H551 C543 0.929 . S
H552 C560 0.929 . S
H553 C562 0.930 . S
H554 C564 0.930 . S
H555 C567 0.929 . S
H556 C570 0.930 . S
H557 C572 0.960 . S
H558 C572 0.960 . S
H559 C572 0.960 . S
C560 H552 0.929 . S
C560 C561 1.377 . S
C560 C562 1.384 . S
C561 C560 1.377 . S
C561 C567 1.390 . S
C562 H553 0.930 . S
C562 C560 1.384 . S
C562 C563 1.372 . S
C563 C562 1.372 . S
C563 C564 1.400 . S
C563 C568 1.490 . S
C564 H554 0.930 . S
C564 C563 1.400 . S
C564 C567 1.386 . S
H565 C581 0.930 . S
H566 C582 0.931 . S
C567 H555 0.929 . S
C567 C561 1.390 . S
C567 C564 1.386 . S
C568 C563 1.490 . S
C568 C570 1.395 . S
C568 C571 1.403 . S
H569 C575 0.930 . S
C570 H556 0.930 . S
C570 C568 1.395 . S
C570 C573 1.403 . S
C571 C568 1.403 . S
C571 C572 1.524 . S
C571 C575 1.400 . S
C572 H557 0.960 . S
C572 H558 0.960 . S
C572 H559 0.960 . S
C572 C571 1.524 . S
C573 C570 1.403 . S
C573 C574 1.392 . S
C573 C577 1.495 . S
C574 C573 1.392 . S
C574 C575 1.385 . S
C574 C576 1.478 . S
C575 H569 0.930 . S
C575 C571 1.400 . S
C575 C574 1.385 . S
C576 C574 1.478 . S
C576 C578 1.381 . S
C576 C582 1.383 . S
C577 C573 1.495 . S
C577 H583 0.959 . S
C577 H584 0.961 . S
C577 H585 0.960 . S
C578 C576 1.381 . S
C578 C579 1.394 . S
C578 H586 0.930 . S
C579 C578 1.394 . S
C579 C580 1.383 . S
C579 H587 0.929 . S
C580 C579 1.383 . S
C580 C581 1.377 . S
C581 H565 0.930 . S
C581 C580 1.377 . S
C581 C582 1.379 . S
C582 H566 0.931 . S
C582 C576 1.383 . S
C582 C581 1.379 . S
H583 C577 0.959 . S
H584 C577 0.961 . S
H585 C577 0.960 . S
H586 C578 0.930 . S
H587 C579 0.929 . S
H588 C596 0.929 . S
H589 C598 0.930 . S
H590 C600 0.930 . S
H591 C603 0.929 . S
H592 C606 0.930 . S
H593 C608 0.960 . S
H594 C608 0.960 . S
H595 C608 0.960 . S
C596 H588 0.929 . S
C596 C597 1.377 . S
C596 C598 1.384 . S
C597 C596 1.377 . S
C597 C603 1.390 . S
C598 H589 0.930 . S
C598 C596 1.384 . S
C598 C599 1.372 . S
C599 C598 1.372 . S
C599 C600 1.400 . S
C599 C604 1.490 . S
C600 H590 0.930 . S
C600 C599 1.400 . S
C600 C603 1.386 . S
H601 C617 0.930 . S
H602 C618 0.931 . S
C603 H591 0.929 . S
C603 C597 1.390 . S
C603 C600 1.386 . S
C604 C599 1.490 . S
C604 C606 1.395 . S
C604 C607 1.403 . S
H605 C611 0.930 . S
C606 H592 0.930 . S
C606 C604 1.395 . S
C606 C609 1.403 . S
C607 C604 1.403 . S
C607 C608 1.524 . S
C607 C611 1.400 . S
C608 H593 0.960 . S
C608 H594 0.960 . S
C608 H595 0.960 . S
C608 C607 1.524 . S
C609 C606 1.403 . S
C609 C610 1.392 . S
C609 C613 1.495 . S
C610 C609 1.392 . S
C610 C611 1.385 . S
C610 C612 1.478 . S
C611 H605 0.930 . S
C611 C607 1.400 . S
C611 C610 1.385 . S
C612 C610 1.478 . S
C612 C614 1.381 . S
C612 C618 1.383 . S
C613 C609 1.495 . S
C613 H619 0.959 . S
C613 H620 0.961 . S
C613 H621 0.960 . S
C614 C612 1.381 . S
C614 C615 1.394 . S
C614 H622 0.930 . S
C615 C614 1.394 . S
C615 C616 1.383 . S
C615 H623 0.929 . S
C616 C615 1.383 . S
C616 C617 1.377 . S
C617 H601 0.930 . S
C617 C616 1.377 . S
C617 C618 1.379 . S
C618 H602 0.931 . S
C618 C612 1.383 . S
C618 C617 1.379 . S
H619 C613 0.959 . S
H620 C613 0.961 . S
H621 C613 0.960 . S
H622 C614 0.930 . S
H623 C615 0.929 . S
H624 C632 0.929 . S
H625 C634 0.930 . S
H626 C636 0.930 . S
H627 C639 0.929 1_554 S
H628 C642 0.930 . S
H629 C644 0.960 . S
H630 C644 0.960 . S
H631 C644 0.960 . S
C632 H624 0.929 . S
C632 C633 1.377 . S
C632 C634 1.384 . S
C633 C632 1.377 . S
C633 C639 1.390 . S
C634 H625 0.930 . S
C634 C632 1.384 . S
C634 C635 1.372 . S
C635 C634 1.372 . S
C635 C636 1.400 . S
C635 C640 1.490 . S
C636 H626 0.930 . S
C636 C635 1.400 . S
C636 C639 1.386 . S
H637 C653 0.930 . S
H638 C654 0.931 . S
C639 H627 0.929 1_556 S
C639 C633 1.390 . S
C639 C636 1.386 . S
C640 C635 1.490 . S
C640 C642 1.395 1_565 S
C640 C643 1.403 . S
H641 C647 0.930 . S
C642 H628 0.930 . S
C642 C640 1.395 1_545 S
C642 C645 1.403 . S
C643 C640 1.403 . S
C643 C644 1.524 . S
C643 C647 1.400 . S
C644 H629 0.960 . S
C644 H630 0.960 . S
C644 H631 0.960 . S
C644 C643 1.524 . S
C645 C642 1.403 . S
C645 C646 1.392 . S
C645 C649 1.495 . S
C646 C645 1.392 . S
C646 C647 1.385 1_545 S
C646 C648 1.478 . S
C647 H641 0.930 . S
C647 C643 1.400 . S
C647 C646 1.385 1_565 S
C648 C646 1.478 . S
C648 C650 1.381 . S
C648 C654 1.383 . S
C649 C645 1.495 . S
C649 H655 0.959 . S
C649 H656 0.961 . S
C649 H657 0.960 . S
C650 C648 1.381 . S
C650 C651 1.394 . S
C650 H658 0.930 . S
C651 C650 1.394 . S
C651 C652 1.383 . S
C651 H659 0.929 . S
C652 C651 1.383 . S
C652 C653 1.377 . S
C653 H637 0.930 . S
C653 C652 1.377 . S
C653 C654 1.379 . S
C654 H638 0.931 . S
C654 C648 1.383 . S
C654 C653 1.379 . S
H655 C649 0.959 . S
H656 C649 0.961 . S
H657 C649 0.960 . S
H658 C650 0.930 . S
H659 C651 0.929 . S
H660 C668 0.929 . S
H661 C670 0.930 . S
H662 C672 0.930 . S
H663 C675 0.929 . S
H664 C678 0.930 . S
H665 C680 0.960 . S
H666 C680 0.960 . S
H667 C680 0.960 . S
C668 H660 0.929 . S
C668 C669 1.377 . S
C668 C670 1.384 . S
C669 C668 1.377 . S
C669 C675 1.390 . S
C670 H661 0.930 . S
C670 C668 1.384 . S
C670 C671 1.372 . S
C671 C670 1.372 . S
C671 C672 1.400 . S
C671 C676 1.490 . S
C672 H662 0.930 . S
C672 C671 1.400 . S
C672 C675 1.386 . S
H673 C689 0.930 . S
H674 C690 0.931 . S
C675 H663 0.929 . S
C675 C669 1.390 . S
C675 C672 1.386 . S
C676 C671 1.490 . S
C676 C678 1.395 . S
C676 C679 1.403 1_545 S
H677 C683 0.930 . S
C678 H664 0.930 . S
C678 C676 1.395 . S
C678 C681 1.403 . S
C679 C676 1.403 1_565 S
C679 C680 1.524 . S
C679 C683 1.400 . S
C680 H665 0.960 . S
C680 H666 0.960 . S
C680 H667 0.960 . S
C680 C679 1.524 . S
C681 C678 1.403 . S
C681 C682 1.392 1_545 S
C681 C685 1.495 . S
C682 C681 1.392 1_565 S
C682 C683 1.385 . S
C682 C684 1.478 . S
C683 H677 0.930 . S
C683 C679 1.400 . S
C683 C682 1.385 . S
C684 C682 1.478 . S
C684 C686 1.381 . S
C684 C690 1.383 . S
C685 C681 1.495 . S
C685 H691 0.959 . S
C685 H692 0.961 . S
C685 H693 0.960 . S
C686 C684 1.381 . S
C686 C687 1.394 . S
C686 H694 0.930 . S
C687 C686 1.394 . S
C687 C688 1.383 . S
C687 H695 0.929 . S
C688 C687 1.383 . S
C688 C689 1.377 . S
C689 H673 0.930 . S
C689 C688 1.377 . S
C689 C690 1.379 . S
C690 H674 0.931 . S
C690 C684 1.383 . S
C690 C689 1.379 . S
H691 C685 0.959 . S
H692 C685 0.961 . S
H693 C685 0.960 . S
H694 C686 0.930 . S
H695 C687 0.929 . S
H696 C704 0.929 1_554 S
H697 C706 0.930 . S
H698 C708 0.930 . S
H699 C711 0.929 . S
H700 C714 0.930 . S
H701 C716 0.960 . S
H702 C716 0.960 . S
H703 C716 0.960 . S
C704 H696 0.929 1_556 S
C704 C705 1.377 . S
C704 C706 1.384 . S
C705 C704 1.377 . S
C705 C711 1.390 . S
C706 H697 0.930 . S
C706 C704 1.384 . S
C706 C707 1.372 . S
C707 C706 1.372 . S
C707 C708 1.400 . S
C707 C712 1.490 . S
C708 H698 0.930 . S
C708 C707 1.400 . S
C708 C711 1.386 . S
H709 C725 0.930 . S
H710 C726 0.931 . S
C711 H699 0.929 . S
C711 C705 1.390 . S
C711 C708 1.386 . S
C712 C707 1.490 . S
C712 C714 1.395 1_565 S
C712 C715 1.403 . S
H713 C719 0.937 . S
C714 H700 0.930 . S
C714 C712 1.395 1_545 S
C714 C717 1.403 . S
C715 C712 1.403 . S
C715 C716 1.524 . S
C715 C719 1.426 . S
C716 H701 0.960 . S
C716 H702 0.960 . S
C716 H703 0.960 . S
C716 C715 1.524 . S
C717 C714 1.403 . S
C717 C718 1.392 . S
C717 C721 1.495 . S
C718 C717 1.392 . S
C718 C719 1.354 1_545 S
C718 C720 1.478 . S
C719 H713 0.937 . S
C719 C715 1.426 . S
C719 C718 1.354 1_565 S
C720 C718 1.478 . S
C720 C722 1.381 . S
C720 C726 1.383 . S
C721 C717 1.495 . S
C721 H727 0.959 . S
C721 H728 0.961 . S
C721 H729 0.960 . S
C722 C720 1.381 . S
C722 C723 1.394 . S
C722 H730 0.930 . S
C723 C722 1.394 . S
C723 C724 1.383 . S
C723 H731 0.929 . S
C724 C723 1.383 . S
C724 C725 1.377 . S
C725 H709 0.930 . S
C725 C724 1.377 . S
C725 C726 1.379 . S
C726 H710 0.931 . S
C726 C720 1.383 . S
C726 C725 1.379 . S
H727 C721 0.959 . S
H728 C721 0.961 . S
H729 C721 0.960 . S
H730 C722 0.930 . S
H731 C723 0.929 . S
H732 C740 0.929 . S
H733 C742 0.930 . S
H734 C744 0.930 . S
H735 C747 0.929 . S
H736 C750 0.930 . S
H737 C752 0.960 . S
H738 C752 0.960 . S
H739 C752 0.960 . S
C740 H732 0.929 . S
C740 C741 1.377 . S
C740 C742 1.384 . S
C741 C740 1.377 . S
C741 C747 1.390 . S
C742 H733 0.930 . S
C742 C740 1.384 . S
C742 C743 1.372 . S
C743 C742 1.372 . S
C743 C744 1.400 . S
C743 C748 1.490 . S
C744 H734 0.930 . S
C744 C743 1.400 . S
C744 C747 1.386 . S
H745 C761 0.930 . S
H746 C762 0.931 . S
C747 H735 0.929 . S
C747 C741 1.390 . S
C747 C744 1.386 . S
C748 C743 1.490 . S
C748 C750 1.395 . S
C748 C751 1.403 . S
H749 C755 0.930 . S
C750 H736 0.930 . S
C750 C748 1.395 . S
C750 C753 1.403 1_545 S
C751 C748 1.403 . S
C751 C752 1.524 . S
C751 C755 1.400 1_545 S
C752 H737 0.960 . S
C752 H738 0.960 . S
C752 H739 0.960 . S
C752 C751 1.524 . S
C753 C750 1.403 1_565 S
C753 C754 1.392 . S
C753 C757 1.495 . S
C754 C753 1.392 . S
C754 C755 1.385 . S
C754 C756 1.478 . S
C755 H749 0.930 . S
C755 C751 1.400 1_565 S
C755 C754 1.385 . S
C756 C754 1.478 . S
C756 C758 1.381 . S
C756 C762 1.383 . S
C757 C753 1.495 . S
C757 H763 0.959 . S
C757 H764 0.961 . S
C757 H765 0.960 . S
C758 C756 1.381 . S
C758 C759 1.394 . S
C758 H766 0.930 . S
C759 C758 1.394 . S
C759 C760 1.383 . S
C759 H767 0.929 . S
C760 C759 1.383 . S
C760 C761 1.377 . S
C761 H745 0.930 . S
C761 C760 1.377 . S
C761 C762 1.379 . S
C762 H746 0.931 . S
C762 C756 1.383 . S
C762 C761 1.379 . S
H763 C757 0.959 . S
H764 C757 0.961 . S
H765 C757 0.960 . S
H766 C758 0.930 . S
H767 C759 0.929 . S
H768 C776 0.929 . S
H769 C778 0.930 . S
H770 C780 0.930 . S
H771 C783 0.929 . S
H772 C786 0.930 . S
H773 C788 0.960 . S
H774 C788 0.960 . S
H775 C788 0.960 . S
C776 H768 0.929 . S
C776 C777 1.377 . S
C776 C778 1.384 . S
C777 C776 1.377 . S
C777 C783 1.390 . S
C778 H769 0.930 . S
C778 C776 1.384 . S
C778 C779 1.372 . S
C779 C778 1.372 . S
C779 C780 1.400 . S
C779 C784 1.490 . S
C780 H770 0.930 . S
C780 C779 1.400 . S
C780 C783 1.386 . S
H781 C797 0.930 . S
H782 C798 0.931 . S
C783 H771 0.929 . S
C783 C777 1.390 . S
C783 C780 1.386 . S
C784 C779 1.490 . S
C784 C786 1.395 . S
C784 C787 1.403 . S
H785 C791 0.930 . S
C786 H772 0.930 . S
C786 C784 1.395 . S
C786 C789 1.403 . S
C787 C784 1.403 . S
C787 C788 1.524 . S
C787 C791 1.400 . S
C788 H773 0.960 . S
C788 H774 0.960 . S
C788 H775 0.960 . S
C788 C787 1.524 . S
C789 C786 1.403 . S
C789 C790 1.392 . S
C789 C793 1.495 . S
C790 C789 1.392 . S
C790 C791 1.385 . S
C790 C792 1.478 . S
C791 H785 0.930 . S
C791 C787 1.400 . S
C791 C790 1.385 . S
C792 C790 1.478 . S
C792 C794 1.381 . S
C792 C798 1.383 . S
C793 C789 1.495 . S
C793 H799 0.959 . S
C793 H800 0.961 . S
C793 H801 0.960 . S
C794 C792 1.381 . S
C794 C795 1.394 . S
C794 H802 0.930 . S
C795 C794 1.394 . S
C795 C796 1.383 . S
C795 H803 0.929 . S
C796 C795 1.383 . S
C796 C797 1.377 . S
C797 H781 0.930 . S
C797 C796 1.377 . S
C797 C798 1.379 . S
C798 H782 0.931 . S
C798 C792 1.383 . S
C798 C797 1.379 . S
H799 C793 0.959 . S
H800 C793 0.961 . S
H801 C793 0.960 . S
H802 C794 0.930 . S
H803 C795 0.929 . S
H804 C812 0.929 . S
H805 C814 0.930 . S
H806 C816 0.930 . S
H807 C819 0.929 . S
H808 C822 0.930 . S
H809 C824 0.960 . S
H810 C824 0.960 . S
H811 C824 0.960 . S
C812 H804 0.929 . S
C812 C813 1.377 . S
C812 C814 1.384 . S
C813 C812 1.377 . S
C813 C819 1.390 . S
C814 H805 0.930 . S
C814 C812 1.384 . S
C814 C815 1.372 . S
C815 C814 1.372 . S
C815 C816 1.400 . S
C815 C820 1.490 . S
C816 H806 0.930 . S
C816 C815 1.400 . S
C816 C819 1.386 . S
H817 C833 0.930 . S
H818 C834 0.931 . S
C819 H807 0.929 . S
C819 C813 1.390 . S
C819 C816 1.386 . S
C820 C815 1.490 . S
C820 C822 1.395 . S
C820 C823 1.403 . S
H821 C827 0.930 . S
C822 H808 0.930 . S
C822 C820 1.395 . S
C822 C825 1.403 . S
C823 C820 1.403 . S
C823 C824 1.524 . S
C823 C827 1.400 . S
C824 H809 0.960 . S
C824 H810 0.960 . S
C824 H811 0.960 . S
C824 C823 1.524 . S
C825 C822 1.403 . S
C825 C826 1.392 . S
C825 C829 1.495 . S
C826 C825 1.392 . S
C826 C827 1.385 . S
C826 C828 1.478 . S
C827 H821 0.930 . S
C827 C823 1.400 . S
C827 C826 1.385 . S
C828 C826 1.478 . S
C828 C830 1.381 . S
C828 C834 1.383 . S
C829 C825 1.495 . S
C829 H835 0.959 . S
C829 H836 0.961 . S
C829 H837 0.960 . S
C830 C828 1.381 . S
C830 C831 1.394 . S
C830 H838 0.930 . S
C831 C830 1.394 . S
C831 C832 1.383 . S
C831 H839 0.929 . S
C832 C831 1.383 . S
C832 C833 1.377 . S
C833 H817 0.930 . S
C833 C832 1.377 . S
C833 C834 1.379 . S
C834 H818 0.931 . S
C834 C828 1.383 . S
C834 C833 1.379 . S
H835 C829 0.959 . S
H836 C829 0.961 . S
H837 C829 0.960 . S
H838 C830 0.930 . S
H839 C831 0.929 . S
H840 C848 0.929 . S
H841 C850 0.930 . S
H842 C852 0.930 . S
H843 C855 0.929 . S
H844 C858 0.930 . S
H845 C860 0.960 . S
H846 C860 0.960 . S
H847 C860 0.960 . S
C848 H840 0.929 . S
C848 C849 1.377 . S
C848 C850 1.384 . S
C849 C848 1.377 . S
C849 C855 1.390 . S
C850 H841 0.930 . S
C850 C848 1.384 . S
C850 C851 1.372 . S
C851 C850 1.372 . S
C851 C852 1.400 . S
C851 C856 1.490 . S
C852 H842 0.930 . S
C852 C851 1.400 . S
C852 C855 1.386 . S
H853 C869 0.930 . S
H854 C870 0.931 . S
C855 H843 0.929 . S
C855 C849 1.390 . S
C855 C852 1.386 . S
C856 C851 1.490 . S
C856 C858 1.395 . S
C856 C859 1.403 . S
H857 C863 0.930 . S
C858 H844 0.930 . S
C858 C856 1.395 . S
C858 C861 1.403 . S
C859 C856 1.403 . S
C859 C860 1.524 . S
C859 C863 1.400 . S
C860 H845 0.960 . S
C860 H846 0.960 . S
C860 H847 0.960 . S
C860 C859 1.524 . S
C861 C858 1.403 . S
C861 C862 1.392 . S
C861 C865 1.495 . S
C862 C861 1.392 . S
C862 C863 1.385 . S
C862 C864 1.478 . S
C863 H857 0.930 . S
C863 C859 1.400 . S
C863 C862 1.385 . S
C864 C862 1.478 . S
C864 C866 1.381 . S
C864 C870 1.383 . S
C865 C861 1.495 . S
C865 H871 0.959 . S
C865 H872 0.961 . S
C865 H873 0.960 . S
C866 C864 1.381 . S
C866 C867 1.394 . S
C866 H874 0.930 . S
C867 C866 1.394 . S
C867 C868 1.383 . S
C867 H875 0.929 . S
C868 C867 1.383 . S
C868 C869 1.377 . S
C869 H853 0.930 . S
C869 C868 1.377 . S
C869 C870 1.379 . S
C870 H854 0.931 . S
C870 C864 1.383 . S
C870 C869 1.379 . S
H871 C865 0.959 . S
H872 C865 0.961 . S
H873 C865 0.960 . S
H874 C866 0.930 . S
H875 C867 0.929 . S
H876 C884 0.929 . S
H877 C886 0.930 . S
H878 C888 0.930 . S
H879 C891 0.929 . S
H880 C894 0.930 . S
H881 C896 0.960 . S
H882 C896 0.960 . S
H883 C896 0.960 . S
C884 H876 0.929 . S
C884 C885 1.377 . S
C884 C886 1.384 . S
C885 C884 1.377 . S
C885 C891 1.390 . S
C886 H877 0.930 . S
C886 C884 1.384 . S
C886 C887 1.372 . S
C887 C886 1.372 . S
C887 C888 1.400 . S
C887 C892 1.490 . S
C888 H878 0.930 . S
C888 C887 1.400 . S
C888 C891 1.386 . S
H889 C905 0.930 . S
H890 C906 0.931 . S
C891 H879 0.929 . S
C891 C885 1.390 . S
C891 C888 1.386 . S
C892 C887 1.490 . S
C892 C894 1.395 . S
C892 C895 1.403 . S
H893 C899 0.930 . S
C894 H880 0.930 . S
C894 C892 1.395 . S
C894 C897 1.403 . S
C895 C892 1.403 . S
C895 C896 1.524 . S
C895 C899 1.400 . S
C896 H881 0.960 . S
C896 H882 0.960 . S
C896 H883 0.960 . S
C896 C895 1.524 . S
C897 C894 1.403 . S
C897 C898 1.392 . S
C897 C901 1.495 . S
C898 C897 1.392 . S
C898 C899 1.385 . S
C898 C900 1.478 . S
C899 H893 0.930 . S
C899 C895 1.400 . S
C899 C898 1.385 . S
C900 C898 1.478 . S
C900 C902 1.381 . S
C900 C906 1.383 . S
C901 C897 1.495 . S
C901 H907 0.959 . S
C901 H908 0.961 . S
C901 H909 0.960 . S
C902 C900 1.381 . S
C902 C903 1.394 . S
C902 H910 0.930 . S
C903 C902 1.394 . S
C903 C904 1.383 . S
C903 H911 0.929 . S
C904 C903 1.383 . S
C904 C905 1.377 . S
C905 H889 0.930 . S
C905 C904 1.377 . S
C905 C906 1.379 . S
C906 H890 0.931 . S
C906 C900 1.383 . S
C906 C905 1.379 . S
H907 C901 0.959 . S
H908 C901 0.961 . S
H909 C901 0.960 . S
H910 C902 0.930 . S
H911 C903 0.929 . S
H912 C920 0.929 . S
H913 C922 0.930 . S
H914 C924 0.930 . S
H915 C927 0.929 . S
H916 C930 0.930 . S
H917 C932 0.960 . S
H918 C932 0.960 . S
H919 C932 0.960 . S
C920 H912 0.929 . S
C920 C921 1.377 . S
C920 C922 1.384 . S
C921 C920 1.377 . S
C921 C927 1.390 . S
C922 H913 0.930 . S
C922 C920 1.384 . S
C922 C923 1.372 . S
C923 C922 1.372 . S
C923 C924 1.400 . S
C923 C928 1.490 . S
C924 H914 0.930 . S
C924 C923 1.400 . S
C924 C927 1.386 . S
H925 C941 0.930 . S
H926 C942 0.931 . S
C927 H915 0.929 . S
C927 C921 1.390 . S
C927 C924 1.386 . S
C928 C923 1.490 . S
C928 C930 1.395 . S
C928 C931 1.403 . S
H929 C935 0.930 . S
C930 H916 0.930 . S
C930 C928 1.395 . S
C930 C933 1.403 . S
C931 C928 1.403 . S
C931 C932 1.524 . S
C931 C935 1.400 . S
C932 H917 0.960 . S
C932 H918 0.960 . S
C932 H919 0.960 . S
C932 C931 1.524 . S
C933 C930 1.403 . S
C933 C934 1.392 . S
C933 C937 1.495 . S
C934 C933 1.392 . S
C934 C935 1.385 . S
C934 C936 1.478 . S
C935 H929 0.930 . S
C935 C931 1.400 . S
C935 C934 1.385 . S
C936 C934 1.478 . S
C936 C938 1.381 . S
C936 C942 1.383 . S
C937 C933 1.495 . S
C937 H943 0.959 . S
C937 H944 0.961 . S
C937 H945 0.960 . S
C938 C936 1.381 . S
C938 C939 1.394 . S
C938 H946 0.930 . S
C939 C938 1.394 . S
C939 C940 1.383 . S
C939 H947 0.929 . S
C940 C939 1.383 . S
C940 C941 1.377 . S
C941 H925 0.930 . S
C941 C940 1.377 . S
C941 C942 1.379 . S
C942 H926 0.931 . S
C942 C936 1.383 . S
C942 C941 1.379 . S
H943 C937 0.959 . S
H944 C937 0.961 . S
H945 C937 0.960 . S
H946 C938 0.930 . S
H947 C939 0.929 . S
H948 C956 0.929 . S
H949 C958 0.930 . S
H950 C960 0.930 . S
H951 C963 0.929 . S
H952 C966 0.930 . S
H953 C968 0.960 . S
H954 C968 0.960 . S
H955 C968 0.960 . S
C956 H948 0.929 . S
C956 C957 1.377 . S
C956 C958 1.384 . S
C957 C956 1.377 . S
C957 C963 1.390 . S
C958 H949 0.930 . S
C958 C956 1.384 . S
C958 C959 1.372 . S
C959 C958 1.372 . S
C959 C960 1.400 . S
C959 C964 1.490 . S
C960 H950 0.930 . S
C960 C959 1.400 . S
C960 C963 1.386 . S
H961 C977 0.930 . S
H962 C978 0.931 . S
C963 H951 0.929 . S
C963 C957 1.390 . S
C963 C960 1.386 . S
C964 C959 1.490 . S
C964 C966 1.395 . S
C964 C967 1.403 . S
H965 C971 0.930 . S
C966 H952 0.930 . S
C966 C964 1.395 . S
C966 C969 1.403 . S
C967 C964 1.403 . S
C967 C968 1.524 . S
C967 C971 1.400 . S
C968 H953 0.960 . S
C968 H954 0.960 . S
C968 H955 0.960 . S
C968 C967 1.524 . S
C969 C966 1.403 . S
C969 C970 1.392 . S
C969 C973 1.495 . S
C970 C969 1.392 . S
C970 C971 1.385 . S
C970 C972 1.478 . S
C971 H965 0.930 . S
C971 C967 1.400 . S
C971 C970 1.385 . S
C972 C970 1.478 . S
C972 C974 1.381 . S
C972 C978 1.383 . S
C973 C969 1.495 . S
C973 H979 0.959 . S
C973 H980 0.961 . S
C973 H981 0.960 . S
C974 C972 1.381 . S
C974 C975 1.394 . S
C974 H982 0.930 . S
C975 C974 1.394 . S
C975 C976 1.383 . S
C975 H983 0.929 . S
C976 C975 1.383 . S
C976 C977 1.377 . S
C977 H961 0.930 . S
C977 C976 1.377 . S
C977 C978 1.379 . S
C978 H962 0.931 . S
C978 C972 1.383 . S
C978 C977 1.379 . S
H979 C973 0.959 . S
H980 C973 0.961 . S
H981 C973 0.960 . S
H982 C974 0.930 . S
H983 C975 0.929 . S
H984 C992 0.929 . S
H985 C994 0.930 . S
H986 C996 0.930 . S
H987 C999 0.929 . S
H988 C1002 0.930 . S
H989 C1004 0.960 . S
H990 C1004 0.960 . S
H991 C1004 0.960 . S
C992 H984 0.929 . S
C992 C993 1.377 . S
C992 C994 1.384 . S
C993 C992 1.377 . S
C993 C999 1.390 . S
C994 H985 0.930 . S
C994 C992 1.384 . S
C994 C995 1.372 . S
C995 C994 1.372 . S
C995 C996 1.400 . S
C995 C1000 1.490 . S
C996 H986 0.930 . S
C996 C995 1.400 . S
C996 C999 1.386 . S
H997 C1013 0.930 . S
H998 C1014 0.931 . S
C999 H987 0.929 . S
C999 C993 1.390 . S
C999 C996 1.386 . S
C1000 C995 1.490 . S
C1000 C1002 1.395 . S
C1000 C1003 1.403 . S
H1001 C1007 0.930 . S
C1002 H988 0.930 . S
C1002 C1000 1.395 . S
C1002 C1005 1.403 . S
C1003 C1000 1.403 . S
C1003 C1004 1.524 . S
C1003 C1007 1.400 . S
C1004 H989 0.960 . S
C1004 H990 0.960 . S
C1004 H991 0.960 . S
C1004 C1003 1.524 . S
C1005 C1002 1.403 . S
C1005 C1006 1.392 . S
C1005 C1009 1.495 . S
C1006 C1005 1.392 . S
C1006 C1007 1.385 . S
C1006 C1008 1.478 . S
C1007 H1001 0.930 . S
C1007 C1003 1.400 . S
C1007 C1006 1.385 . S
C1008 C1006 1.478 . S
C1008 C1010 1.381 . S
C1008 C1014 1.383 . S
C1009 C1005 1.495 . S
C1009 H1015 0.959 . S
C1009 H1016 0.961 . S
C1009 H1017 0.960 . S
C1010 C1008 1.381 . S
C1010 C1011 1.394 . S
C1010 H1018 0.930 . S
C1011 C1010 1.394 . S
C1011 C1012 1.383 . S
C1011 H1019 0.929 . S
C1012 C1011 1.383 . S
C1012 C1013 1.377 . S
C1013 H997 0.930 . S
C1013 C1012 1.377 . S
C1013 C1014 1.379 . S
C1014 H998 0.931 . S
C1014 C1008 1.383 . S
C1014 C1013 1.379 . S
H1015 C1009 0.959 . S
H1016 C1009 0.961 . S
H1017 C1009 0.960 . S
H1018 C1010 0.930 . S
H1019 C1011 0.929 . S
H1020 C1028 0.929 . S
H1021 C1030 0.930 . S
H1022 C1032 0.930 . S
H1023 C1035 0.929 . S
H1024 C1038 0.930 . S
H1025 C1040 0.960 . S
H1026 C1040 0.960 . S
H1027 C1040 0.960 . S
C1028 H1020 0.929 . S
C1028 C1029 1.377 . S
C1028 C1030 1.384 . S
C1029 C1028 1.377 . S
C1029 C1035 1.390 . S
C1030 H1021 0.930 . S
C1030 C1028 1.384 . S
C1030 C1031 1.372 . S
C1031 C1030 1.372 . S
C1031 C1032 1.400 . S
C1031 C1036 1.490 . S
C1032 H1022 0.930 . S
C1032 C1031 1.400 . S
C1032 C1035 1.386 . S
H1033 C1049 0.930 . S
H1034 C1050 0.931 . S
C1035 H1023 0.929 . S
C1035 C1029 1.390 . S
C1035 C1032 1.386 . S
C1036 C1031 1.490 . S
C1036 C1038 1.395 . S
C1036 C1039 1.403 . S
H1037 C1043 0.930 . S
C1038 H1024 0.930 . S
C1038 C1036 1.395 . S
C1038 C1041 1.403 . S
C1039 C1036 1.403 . S
C1039 C1040 1.524 . S
C1039 C1043 1.400 . S
C1040 H1025 0.960 . S
C1040 H1026 0.960 . S
C1040 H1027 0.960 . S
C1040 C1039 1.524 . S
C1041 C1038 1.403 . S
C1041 C1042 1.392 . S
C1041 C1045 1.495 . S
C1042 C1041 1.392 . S
C1042 C1043 1.385 . S
C1042 C1044 1.478 . S
C1043 H1037 0.930 . S
C1043 C1039 1.400 . S
C1043 C1042 1.385 . S
C1044 C1042 1.478 . S
C1044 C1046 1.381 . S
C1044 C1050 1.383 . S
C1045 C1041 1.495 . S
C1045 H1051 0.959 . S
C1045 H1052 0.961 . S
C1045 H1053 0.960 . S
C1046 C1044 1.381 . S
C1046 C1047 1.394 . S
C1046 H1054 0.930 . S
C1047 C1046 1.394 . S
C1047 C1048 1.383 . S
C1047 H1055 0.929 . S
C1048 C1047 1.383 . S
C1048 C1049 1.377 . S
C1049 H1033 0.930 . S
C1049 C1048 1.377 . S
C1049 C1050 1.379 . S
C1050 H1034 0.931 . S
C1050 C1044 1.383 . S
C1050 C1049 1.379 . S
H1051 C1045 0.959 . S
H1052 C1045 0.961 . S
H1053 C1045 0.960 . S
H1054 C1046 0.930 . S
H1055 C1047 0.929 . S
C201 C4 1.565 . S
C220 C147 1.609 . S
C256 C111 1.458 . S
C237 C17 1.450 . S
C292 C134 1.474 . S
C273 C30 1.397 . S
C328 C122 1.612 . S
C309 C43 1.586 . S
C364 C191 1.614 . S
C345 C56 1.568 . S
C400 C155 1.457 . S
C381 C69 1.450 . S
C417 C82 1.401 . S
C436 C178 1.460 . S
C472 C166 1.624 . S
C453 C95 1.591 . S
C489 C9 1.560 . S
C508 C188 1.577 . S
C544 C158 1.436 . S
C525 C21 1.427 . S
C561 C34 1.457 . S
C580 C177 1.443 . S
C597 C48 1.584 . S
C616 C163 1.585 . S
C652 C144 1.577 . S
C633 C61 1.563 . S
C669 C73 1.427 . S
C688 C114 1.428 . S
C724 C133 1.467 . S
C705 C86 1.454 . S
C760 C119 1.591 . S
C741 C100 1.580 . S
C796 C169 1.537 . S
C777 C8 1.526 . S
C832 C185 1.526 . S
C813 C22 1.523 . S
C849 C35 1.477 . S
C868 C156 1.501 . S
C904 C180 1.491 . S
C885 C47 1.491 . S
C940 C125 1.517 . S
C921 C60 1.527 . S
C957 C74 1.522 . S
C976 C141 1.519 . S
C993 C87 1.478 . S
C1012 C112 1.495 . S
C1029 C99 1.487 . S
C1048 C136 1.497 . S
