# Generated by pormake.
# Topology sqc, (4,8)-cn, num edge types: 1
# Building blocks:
#     Node 0, Type 0, BuildingBlock: MUDLON_clean_linker_0, # of connection points: 4
#     Node 1, Type 0, BuildingBlock: MUDLON_clean_linker_0, # of connection points: 4
#     Node 2, Type 0, BuildingBlock: MUDLON_clean_linker_0, # of connection points: 4
#     Node 3, Type 0, BuildingBlock: MUDLON_clean_linker_0, # of connection points: 4
#     Node 4, Type 0, BuildingBlock: MUDLON_clean_linker_0, # of connection points: 4
#     Node 5, Type 0, BuildingBlock: MUDLON_clean_linker_0, # of connection points: 4
#     Node 6, Type 0, BuildingBlock: MUDLON_clean_linker_0, # of connection points: 4
#     Node 7, Type 0, BuildingBlock: MUDLON_clean_linker_0, # of connection points: 4
#     Node 8, Type 1, BuildingBlock: TAGTUT_clean_sbu_3, # of connection points: 8
#     Node 9, Type 1, BuildingBlock: TAGTUT_clean_sbu_3, # of connection points: 8
#     Node 10, Type 1, BuildingBlock: TAGTUT_clean_sbu_3, # of connection points: 8
#     Node 11, Type 1, BuildingBlock: TAGTUT_clean_sbu_3, # of connection points: 8
#     Edge 12, Type (0, 1), BuildingBlock: EZIPEK_clean_linker_0, # of connection points: 2
#     Edge 13, Type (0, 1), BuildingBlock: EZIPEK_clean_linker_0, # of connection points: 2
#     Edge 14, Type (0, 1), BuildingBlock: EZIPEK_clean_linker_0, # of connection points: 2
#     Edge 15, Type (0, 1), BuildingBlock: EZIPEK_clean_linker_0, # of connection points: 2
#     Edge 16, Type (0, 1), BuildingBlock: EZIPEK_clean_linker_0, # of connection points: 2
#     Edge 17, Type (0, 1), BuildingBlock: EZIPEK_clean_linker_0, # of connection points: 2
#     Edge 18, Type (0, 1), BuildingBlock: EZIPEK_clean_linker_0, # of connection points: 2
#     Edge 19, Type (0, 1), BuildingBlock: EZIPEK_clean_linker_0, # of connection points: 2
#     Edge 20, Type (0, 1), BuildingBlock: EZIPEK_clean_linker_0, # of connection points: 2
#     Edge 21, Type (0, 1), BuildingBlock: EZIPEK_clean_linker_0, # of connection points: 2
#     Edge 22, Type (0, 1), BuildingBlock: EZIPEK_clean_linker_0, # of connection points: 2
#     Edge 23, Type (0, 1), BuildingBlock: EZIPEK_clean_linker_0, # of connection points: 2
#     Edge 24, Type (0, 1), BuildingBlock: EZIPEK_clean_linker_0, # of connection points: 2
#     Edge 25, Type (0, 1), BuildingBlock: EZIPEK_clean_linker_0, # of connection points: 2
#     Edge 26, Type (0, 1), BuildingBlock: EZIPEK_clean_linker_0, # of connection points: 2
#     Edge 27, Type (0, 1), BuildingBlock: EZIPEK_clean_linker_0, # of connection points: 2
#     Edge 28, Type (0, 1), BuildingBlock: EZIPEK_clean_linker_0, # of connection points: 2
#     Edge 29, Type (0, 1), BuildingBlock: EZIPEK_clean_linker_0, # of connection points: 2
#     Edge 30, Type (0, 1), BuildingBlock: EZIPEK_clean_linker_0, # of connection points: 2
#     Edge 31, Type (0, 1), BuildingBlock: EZIPEK_clean_linker_0, # of connection points: 2
#     Edge 32, Type (0, 1), BuildingBlock: EZIPEK_clean_linker_0, # of connection points: 2
#     Edge 33, Type (0, 1), BuildingBlock: EZIPEK_clean_linker_0, # of connection points: 2
#     Edge 34, Type (0, 1), BuildingBlock: EZIPEK_clean_linker_0, # of connection points: 2
#     Edge 35, Type (0, 1), BuildingBlock: EZIPEK_clean_linker_0, # of connection points: 2
#     Edge 36, Type (0, 1), BuildingBlock: EZIPEK_clean_linker_0, # of connection points: 2
#     Edge 37, Type (0, 1), BuildingBlock: EZIPEK_clean_linker_0, # of connection points: 2
#     Edge 38, Type (0, 1), BuildingBlock: EZIPEK_clean_linker_0, # of connection points: 2
#     Edge 39, Type (0, 1), BuildingBlock: EZIPEK_clean_linker_0, # of connection points: 2
#     Edge 40, Type (0, 1), BuildingBlock: EZIPEK_clean_linker_0, # of connection points: 2
#     Edge 41, Type (0, 1), BuildingBlock: EZIPEK_clean_linker_0, # of connection points: 2
#     Edge 42, Type (0, 1), BuildingBlock: EZIPEK_clean_linker_0, # of connection points: 2
#     Edge 43, Type (0, 1), BuildingBlock: EZIPEK_clean_linker_0, # of connection points: 2
# Relax obj value: 0.178
# Max RMSD: 0.281
# Mean RMSD: 0.215
data_MOF--net-sqc--node1-TAGTUT_clean_sbu_3--node2-MUDLON_clean_linker_0--edge1-EZIPEK_clean_linker_0
_symmetry_space_group_name_H-M    P1
_symmetry_Int_Tables_number       1
_symmetry_cell_setting            triclinic
loop_
_symmetry_equiv_pos_as_xyz
'x, y, z'
_cell_length_a     25.768117
_cell_length_b     25.760585
_cell_length_c     72.762146
_cell_angle_alpha  90.921486
_cell_angle_beta   89.974814
_cell_angle_gamma 89.931191
loop_
_atom_site_label
_atom_site_type_symbol
_atom_site_fract_x
_atom_site_fract_y
_atom_site_fract_z
_atom_type_partial_charge
H0 H 0.76832 0.91167 0.55697 0.0
N1 N 0.84623 0.94454 0.53628 0.0
H2 H 0.71249 0.96394 0.57757 0.0
H3 H 0.85481 0.04886 0.54318 0.0
H4 H 0.80013 0.10076 0.56423 0.0
H5 H 0.81153 0.01689 0.51205 0.0
H6 H 0.75886 0.99956 0.48443 0.0
H7 H 0.81963 0.85268 0.52225 0.0
H8 H 0.76765 0.83527 0.49451 0.0
H9 H 0.91125 0.93015 0.56412 0.0
H10 H 0.90812 0.97906 0.50768 0.0
H11 H 0.00525 0.93941 0.56453 0.0
H12 H 0.00206 0.98478 0.50758 0.0
H13 H 0.29529 0.94182 0.56491 0.0
H14 H 0.34612 0.00336 0.58372 0.0
H15 H 0.28992 0.12986 0.55111 0.0
H16 H 0.23908 0.06829 0.5323 0.0
H17 H 0.27054 0.01622 0.50654 0.0
H18 H 0.32489 0.98181 0.48147 0.0
H19 H 0.31623 0.82891 0.50458 0.0
H20 H 0.26345 0.86404 0.53014 0.0
H21 H 0.17392 0.90044 0.55462 0.0
H22 H 0.07935 0.89831 0.55438 0.0
H23 H 0.07782 0.02681 0.51679 0.0
N24 N 0.23618 0.96251 0.53615 0.0
H25 H 0.17277 0.02569 0.51622 0.0
C26 C 0.81634 0.97612 0.54894 0.0
C27 C 0.77544 0.95292 0.55854 0.0
C28 C 0.74335 0.98265 0.57005 0.0
C29 C 0.75234 0.03599 0.57232 0.0
C30 C 0.79273 0.05956 0.56256 0.0
C31 C 0.82426 0.02995 0.55078 0.0
C32 C 0.8198 0.93575 0.51907 0.0
C33 C 0.80221 0.97719 0.50828 0.0
C34 C 0.77187 0.96743 0.49268 0.0
C35 C 0.75911 0.91624 0.48765 0.0
C36 C 0.77686 0.87503 0.49834 0.0
C37 C 0.80693 0.8848 0.51394 0.0
C38 C 0.90188 0.95347 0.53596 0.0
C39 C 0.93079 0.94275 0.55179 0.0
C40 C 0.98484 0.9475 0.5519 0.0
C41 C 0.01199 0.96202 0.53598 0.0
C42 C 0.98292 0.97396 0.52019 0.0
C43 C 0.9286 0.97019 0.5202 0.0
C44 C 0.26311 0.00034 0.54736 0.0
C45 C 0.29378 0.98282 0.56188 0.0
C46 C 0.32295 0.01776 0.57247 0.0
C47 C 0.32212 0.07094 0.56863 0.0
C48 C 0.29138 0.08885 0.55412 0.0
C49 C 0.26208 0.05372 0.54351 0.0
C50 C 0.26334 0.94258 0.52027 0.0
C51 C 0.2803 0.97539 0.50626 0.0
C52 C 0.31143 0.95579 0.492 0.0
C53 C 0.32516 0.90295 0.49133 0.0
C54 C 0.3066 0.86986 0.50498 0.0
C55 C 0.27627 0.88971 0.51941 0.0
C56 C 0.18031 0.96358 0.53571 0.0
C57 C 0.15297 0.92808 0.54635 0.0
C58 C 0.09875 0.9274 0.54631 0.0
C59 C 0.07022 0.96296 0.53578 0.0
C60 C 0.09801 0.99854 0.52499 0.0
C61 C 0.15251 0.99853 0.52483 0.0
H62 H 0.43155 0.44144 0.81347 0.0
N63 N 0.39426 0.51089 0.79031 0.0
H64 H 0.38215 0.38473 0.83401 0.0
H65 H 0.2883 0.50171 0.7918 0.0
H66 H 0.23906 0.44586 0.81252 0.0
H67 H 0.33881 0.45513 0.76454 0.0
H68 H 0.37256 0.41905 0.73551 0.0
H69 H 0.48836 0.52308 0.77621 0.0
H70 H 0.52165 0.48841 0.7468 0.0
H71 H 0.42515 0.58323 0.81427 0.0
H72 H 0.32859 0.55968 0.76651 0.0
H73 H 0.40895 0.67691 0.81315 0.0
H74 H 0.31295 0.65335 0.76511 0.0
H75 H 0.39364 0.95842 0.81049 0.0
H76 H 0.33703 0.01239 0.83009 0.0
H77 H 0.20318 0.95665 0.80021 0.0
H78 H 0.26027 0.9023 0.78053 0.0
H79 H 0.30987 0.89321 0.75129 0.0
H80 H 0.3327 0.93798 0.72276 0.0
H81 H 0.46838 0.00214 0.74943 0.0
H82 H 0.44793 0.95368 0.7772 0.0
H83 H 0.34021 0.83892 0.813 0.0
H84 H 0.33739 0.7449 0.81558 0.0
H85 H 0.37587 0.72824 0.75812 0.0
N86 N 0.36592 0.89489 0.78332 0.0
H87 H 0.38006 0.82135 0.7554 0.0
C88 C 0.36377 0.47639 0.80139 0.0
C89 C 0.38954 0.44217 0.81309 0.0
C90 C 0.36149 0.40978 0.82469 0.0
C91 C 0.30708 0.41143 0.8248 0.0
C92 C 0.28108 0.44418 0.81261 0.0
C93 C 0.30917 0.47631 0.80091 0.0
C94 C 0.41174 0.4906 0.77279 0.0
C95 C 0.37878 0.46244 0.76087 0.0
C96 C 0.39778 0.44239 0.74421 0.0
C97 C 0.44954 0.45106 0.73911 0.0
C98 C 0.4816 0.48141 0.75055 0.0
C99 C 0.46285 0.50071 0.76731 0.0
C100 C 0.37876 0.56468 0.79041 0.0
C101 C 0.39987 0.59829 0.80373 0.0
C102 C 0.39045 0.65163 0.80309 0.0
C103 C 0.35996 0.67233 0.78896 0.0
C104 C 0.337 0.63839 0.77603 0.0
C105 C 0.34589 0.58491 0.77683 0.0
C106 C 0.33108 0.92638 0.79424 0.0
C107 C 0.35215 0.95811 0.80812 0.0
C108 C 0.32002 0.98894 0.81916 0.0
C109 C 0.26619 0.98862 0.81644 0.0
C110 C 0.24477 0.95761 0.80233 0.0
C111 C 0.27715 0.92661 0.79121 0.0
C112 C 0.37826 0.91907 0.76614 0.0
C113 C 0.34502 0.91611 0.75081 0.0
C114 C 0.35786 0.94182 0.73463 0.0
C115 C 0.40219 0.97353 0.73398 0.0
C116 C 0.43423 0.97764 0.74955 0.0
C117 C 0.42271 0.95007 0.76534 0.0
C118 C 0.35758 0.83899 0.78378 0.0
C119 C 0.34646 0.81548 0.80072 0.0
C120 C 0.34531 0.76151 0.80228 0.0
C121 C 0.35563 0.72935 0.78699 0.0
C122 C 0.36635 0.75218 0.77003 0.0
C123 C 0.36828 0.80614 0.76849 0.0
H124 H 0.91562 0.08304 0.06539 0.0
N125 N 0.83797 0.07055 0.042 0.0
H126 H 0.95692 0.0169 0.08438 0.0
H127 H 0.81823 0.96501 0.04067 0.0
H128 H 0.8579 0.89957 0.06021 0.0
H129 H 0.86765 0.00987 0.01263 0.0
H130 H 0.90749 0.04069 0.98407 0.0
H131 H 0.85876 0.16757 0.03315 0.0
H132 H 0.89784 0.1985 0.0045 0.0
H133 H 0.77953 0.13036 0.06353 0.0
H134 H 0.77149 0.01461 0.02026 0.0
H135 H 0.68508 0.13792 0.06343 0.0
H136 H 0.67731 0.01794 0.02113 0.0
H137 H 0.37076 0.10899 0.06566 0.0
H138 H 0.32961 0.04974 0.08744 0.0
H139 H 0.43746 0.92906 0.0715 0.0
H140 H 0.47747 0.9876 0.04926 0.0
H141 H 0.42601 0.00723 0.01993 0.0
H142 H 0.37755 0.01225 0.99096 0.0
H143 H 0.36505 0.17828 0.99812 0.0
H144 H 0.41311 0.17326 0.02723 0.0
H145 H 0.51406 0.10592 0.07123 0.0
H146 H 0.60819 0.09918 0.07154 0.0
H147 H 0.60709 0.06723 0.01298 0.0
N148 N 0.44968 0.08879 0.04316 0.0
H149 H 0.51385 0.06957 0.01298 0.0
C150 C 0.86337 0.02953 0.05183 0.0
C151 C 0.90336 0.04297 0.06399 0.0
C152 C 0.9268 0.00533 0.07477 0.0
C153 C 0.91033 0.95346 0.07367 0.0
C154 C 0.87117 0.9394 0.06118 0.0
C155 C 0.8483 0.97704 0.05012 0.0
C156 C 0.86128 0.08662 0.02509 0.0
C157 C 0.87415 0.05101 0.01096 0.0
C158 C 0.89634 0.06856 0.99466 0.0
C159 C 0.90528 0.12178 0.99227 0.0
C160 C 0.89094 0.15735 0.00614 0.0
C161 C 0.86921 0.13977 0.02245 0.0
C162 C 0.78227 0.07139 0.04222 0.0
C163 C 0.75709 0.10578 0.05431 0.0
C164 C 0.70311 0.10967 0.05429 0.0
C165 C 0.67316 0.07833 0.04234 0.0
C166 C 0.69881 0.0434 0.03032 0.0
C167 C 0.75283 0.04063 0.03003 0.0
C168 C 0.42713 0.05295 0.05595 0.0
C169 C 0.38545 0.06979 0.06688 0.0
C170 C 0.36223 0.0362 0.07928 0.0
C171 C 0.38077 0.98534 0.08103 0.0
C172 C 0.42294 0.96835 0.07032 0.0
C173 C 0.44558 0.00168 0.05766 0.0
C174 C 0.4224 0.09008 0.02586 0.0
C175 C 0.41274 0.04467 0.01533 0.0
C176 C 0.3857 0.04752 0.99873 0.0
C177 C 0.36826 0.09564 0.99245 0.0
C178 C 0.37871 0.14092 0.00275 0.0
C179 C 0.40568 0.13808 0.01933 0.0
C180 C 0.5059 0.08734 0.0423 0.0
C181 C 0.53417 0.09702 0.05848 0.0
C182 C 0.58817 0.09367 0.05858 0.0
C183 C 0.61558 0.08226 0.04229 0.0
C184 C 0.58745 0.07449 0.02592 0.0
C185 C 0.5334 0.07639 0.02592 0.0
H186 H 0.32919 0.55334 0.28711 0.0
N187 N 0.37848 0.4832 0.26431 0.0
H188 H 0.36737 0.59869 0.31367 0.0
H189 H 0.4733 0.47135 0.27807 0.0
H190 H 0.51116 0.51603 0.30509 0.0
H191 H 0.42024 0.54151 0.23833 0.0
H192 H 0.37498 0.59741 0.21632 0.0
H193 H 0.27276 0.50025 0.26214 0.0
H194 H 0.22816 0.55416 0.23997 0.0
H195 H 0.30268 0.45764 0.28903 0.0
H196 H 0.40603 0.39478 0.24777 0.0
H197 H 0.26751 0.37153 0.29424 0.0
H198 H 0.37366 0.30752 0.2537 0.0
H199 H 0.21876 0.06684 0.31877 0.0
H200 H 0.27232 0.02077 0.34127 0.0
H201 H 0.41059 0.08348 0.31674 0.0
H202 H 0.35738 0.12882 0.29414 0.0
H203 H 0.32329 0.07424 0.26867 0.0
H204 H 0.30543 0.01113 0.24399 0.0
H205 H 0.14125 0.02613 0.25421 0.0
H206 H 0.15913 0.08938 0.2792 0.0
H207 H 0.25608 0.20494 0.3137 0.0
H208 H 0.28584 0.29245 0.30745 0.0
H209 H 0.30417 0.2506 0.25004 0.0
N210 N 0.25145 0.12335 0.29074 0.0
H211 H 0.27755 0.16306 0.2564 0.0
C212 C 0.39891 0.50959 0.28037 0.0
C213 C 0.36895 0.54501 0.29081 0.0
C214 C 0.39057 0.57068 0.30602 0.0
C215 C 0.44201 0.56075 0.31119 0.0
C216 C 0.47141 0.52414 0.30122 0.0
C217 C 0.44998 0.49896 0.28585 0.0
C218 C 0.35028 0.51559 0.25167 0.0
C219 C 0.37831 0.54419 0.23876 0.0
C220 C 0.35263 0.57611 0.2263 0.0
C221 C 0.29825 0.57937 0.22643 0.0
C222 C 0.27014 0.5518 0.23958 0.0
C223 C 0.29581 0.52054 0.25218 0.0
C224 C 0.35671 0.4327 0.26779 0.0
C225 C 0.31791 0.4252 0.28109 0.0
C226 C 0.2982 0.3756 0.28421 0.0
C227 C 0.31762 0.33212 0.27443 0.0
C228 C 0.35679 0.33993 0.26124 0.0
C229 C 0.37576 0.38972 0.25791 0.0
C230 C 0.28385 0.10117 0.30481 0.0
C231 C 0.26054 0.0712 0.31844 0.0
C232 C 0.29095 0.04516 0.33124 0.0
C233 C 0.3452 0.04896 0.3306 0.0
C234 C 0.36871 0.08042 0.31744 0.0
C235 C 0.33833 0.10611 0.30455 0.0
C236 C 0.24231 0.0867 0.27582 0.0
C237 C 0.28347 0.06373 0.26581 0.0
C238 C 0.27336 0.0277 0.25174 0.0
C239 C 0.22214 0.01386 0.24745 0.0
C240 C 0.18104 0.0362 0.25747 0.0
C241 C 0.19116 0.07237 0.27157 0.0
C242 C 0.26574 0.17603 0.28586 0.0
C243 C 0.26677 0.21451 0.29976 0.0
C244 C 0.28339 0.26488 0.2961 0.0
C245 C 0.29807 0.27882 0.27823 0.0
C246 C 0.29475 0.24107 0.26408 0.0
C247 C 0.27907 0.19037 0.26781 0.0
H248 H 0.91679 0.9768 0.3161 0.0
N249 N 0.88168 0.0292 0.28746 0.0
H250 H 0.86669 0.92195 0.33713 0.0
H251 H 0.77683 0.00735 0.2855 0.0
H252 H 0.72777 0.95282 0.30621 0.0
H253 H 0.83235 0.96473 0.26264 0.0
H254 H 0.87232 0.91825 0.23692 0.0
H255 H 0.97985 0.03474 0.27622 0.0
H256 H 0.01984 0.98888 0.24975 0.0
H257 H 0.91167 0.11642 0.30419 0.0
H258 H 0.80798 0.05808 0.26231 0.0
H259 H 0.88255 0.2048 0.29832 0.0
H260 H 0.77495 0.14491 0.25752 0.0
H261 H 0.8275 0.44887 0.28415 0.0
H262 H 0.80071 0.51018 0.30839 0.0
H263 H 0.64008 0.47822 0.2962 0.0
H264 H 0.66697 0.41703 0.27157 0.0
H265 H 0.736 0.44907 0.23249 0.0
H266 H 0.7935 0.49267 0.21061 0.0
H267 H 0.92705 0.43078 0.23848 0.0
H268 H 0.86977 0.38824 0.26058 0.0
H269 H 0.79436 0.35448 0.29511 0.0
H270 H 0.81875 0.26612 0.30163 0.0
H271 H 0.79189 0.22282 0.24472 0.0
N272 N 0.76341 0.39274 0.26123 0.0
H273 H 0.76318 0.31074 0.23864 0.0
C274 C 0.85087 0.99708 0.29937 0.0
C275 C 0.87559 0.97151 0.31384 0.0
C276 C 0.84729 0.93984 0.32564 0.0
C277 C 0.79381 0.93299 0.32299 0.0
C278 C 0.76919 0.95721 0.30827 0.0
C279 C 0.79733 0.98905 0.29657 0.0
C280 C 0.90345 0.00267 0.27165 0.0
C281 C 0.87328 0.97025 0.26017 0.0
C282 C 0.89603 0.94377 0.2454 0.0
C283 C 0.94902 0.9498 0.24163 0.0
C284 C 0.97896 0.98349 0.25262 0.0
C285 C 0.95626 0.00949 0.26762 0.0
C286 C 0.86168 0.08048 0.28397 0.0
C287 C 0.88184 0.12268 0.29399 0.0
C288 C 0.86462 0.17319 0.29069 0.0
C289 C 0.82588 0.18262 0.27748 0.0
C290 C 0.80538 0.13987 0.26758 0.0
C291 C 0.82366 0.08962 0.27055 0.0
C292 C 0.74904 0.42832 0.27596 0.0
C293 C 0.78653 0.45527 0.28648 0.0
C294 C 0.7713 0.49032 0.3003 0.0
C295 C 0.71849 0.499 0.30391 0.0
C296 C 0.68101 0.47231 0.29346 0.0
C297 C 0.69628 0.4373 0.27956 0.0
C298 C 0.7984 0.41545 0.24809 0.0
C299 C 0.77764 0.44468 0.23378 0.0
C300 C 0.8103 0.46927 0.22133 0.0
C301 C 0.86435 0.46474 0.22298 0.0
C302 C 0.88539 0.43446 0.237 0.0
C303 C 0.85271 0.41034 0.24959 0.0
C304 C 0.77657 0.33996 0.26619 0.0
C305 C 0.79288 0.32627 0.28398 0.0
C306 C 0.80762 0.27521 0.28771 0.0
C307 C 0.80784 0.23669 0.27374 0.0
C308 C 0.79136 0.25059 0.25603 0.0
C309 C 0.77528 0.30119 0.25244 0.0
H310 H 0.77887 0.06106 0.81281 0.0
N311 N 0.79669 0.00115 0.78352 0.0
H312 H 0.8428 0.09677 0.83466 0.0
H313 H 0.90262 0.98506 0.78273 0.0
H314 H 0.96581 0.01963 0.80472 0.0
H315 H 0.86481 0.05273 0.76096 0.0
H316 H 0.84145 0.10413 0.73407 0.0
H317 H 0.7028 0.02137 0.77081 0.0
H318 H 0.67972 0.07104 0.7435 0.0
H319 H 0.73994 0.92986 0.8001 0.0
H320 H 0.85553 0.94885 0.758 0.0
H321 H 0.74348 0.83574 0.79561 0.0
H322 H 0.86304 0.85518 0.75445 0.0
H323 H 0.79552 0.57229 0.79774 0.0
H324 H 0.82925 0.52536 0.82425 0.0
H325 H 0.98524 0.56808 0.8093 0.0
H326 H 0.95143 0.61457 0.78253 0.0
H327 H 0.895 0.55799 0.7457 0.0
H328 H 0.84985 0.49706 0.72489 0.0
H329 H 0.70345 0.5405 0.74945 0.0
H330 H 0.7488 0.60198 0.77022 0.0
H331 H 0.81297 0.67408 0.80104 0.0
H332 H 0.79477 0.76596 0.80243 0.0
H333 H 0.82977 0.77731 0.74445 0.0
N334 N 0.85351 0.61941 0.77128 0.0
H335 H 0.85252 0.68545 0.74359 0.0
C336 C 0.83554 0.02032 0.79618 0.0
C337 C 0.81958 0.05178 0.811 0.0
C338 C 0.85587 0.07187 0.82344 0.0
C339 C 0.90878 0.06063 0.82123 0.0
C340 C 0.92502 0.02845 0.80661 0.0
C341 C 0.88875 0.00873 0.79407 0.0
C342 C 0.78523 0.03331 0.768 0.0
C343 C 0.82429 0.05711 0.75749 0.0
C344 C 0.81108 0.08645 0.74213 0.0
C345 C 0.75894 0.09092 0.73679 0.0
C346 C 0.72016 0.06786 0.74742 0.0
C347 C 0.73323 0.03951 0.7629 0.0
C348 C 0.79805 0.94614 0.77969 0.0
C349 C 0.76632 0.91348 0.78996 0.0
C350 C 0.76887 0.85966 0.78747 0.0
C351 C 0.80419 0.83727 0.77486 0.0
C352 C 0.83486 0.87051 0.76415 0.0
C353 C 0.83127 0.92435 0.76635 0.0
C354 C 0.87131 0.59627 0.78803 0.0
C355 C 0.83689 0.57191 0.8002 0.0
C356 C 0.85601 0.54556 0.81539 0.0
C357 C 0.90958 0.54344 0.81862 0.0
C358 C 0.94374 0.56965 0.80698 0.0
C359 C 0.92461 0.59587 0.79177 0.0
C360 C 0.82526 0.58453 0.75932 0.0
C361 C 0.85322 0.55427 0.74659 0.0
C362 C 0.82762 0.51946 0.73488 0.0
C363 C 0.77357 0.51421 0.73582 0.0
C364 C 0.74529 0.54388 0.74871 0.0
C365 C 0.77102 0.57898 0.76043 0.0
C366 C 0.83527 0.6725 0.77218 0.0
C367 C 0.8169 0.69589 0.78856 0.0
C368 C 0.80574 0.74895 0.78929 0.0
C369 C 0.81124 0.77979 0.7736 0.0
C370 C 0.8265 0.7555 0.75699 0.0
C371 C 0.83895 0.70274 0.75638 0.0
H372 H 0.29438 0.47343 0.02627 0.0
N373 N 0.35433 0.55468 0.01473 0.0
H374 H 0.24206 0.4161 0.00653 0.0
H375 H 0.35857 0.5457 0.97826 0.0
H376 H 0.30945 0.48529 0.95849 0.0
H377 H 0.37658 0.54178 0.05144 0.0
H378 H 0.32394 0.57264 0.07748 0.0
H379 H 0.26469 0.6056 0.01387 0.0
H380 H 0.21021 0.63295 0.03992 0.0
H381 H 0.41972 0.63224 0.00906 0.0
H382 H 0.41429 0.47129 0.02395 0.0
H383 H 0.51448 0.63007 0.00982 0.0
H384 H 0.50956 0.46786 0.0241 0.0
H385 H 0.80914 0.57635 0.98796 0.0
H386 H 0.86156 0.51688 0.96886 0.0
H387 H 0.79494 0.38613 0.9966 0.0
H388 H 0.74258 0.44601 0.01587 0.0
H389 H 0.77736 0.4955 0.04343 0.0
H390 H 0.82988 0.52783 0.06933 0.0
H391 H 0.82266 0.68258 0.04773 0.0
H392 H 0.77027 0.65 0.02169 0.0
H393 H 0.67845 0.59728 0.99148 0.0
H394 H 0.58369 0.59552 0.99193 0.0
H395 H 0.58788 0.49699 0.03945 0.0
N396 N 0.74348 0.55222 0.01443 0.0
H397 H 0.68296 0.49764 0.03839 0.0
C398 C 0.32985 0.5146 0.00368 0.0
C399 C 0.29799 0.4764 0.01151 0.0
C400 C 0.26812 0.44365 0.00026 0.0
C401 C 0.27161 0.44668 0.98105 0.0
C402 C 0.30587 0.48259 0.97328 0.0
C403 C 0.33417 0.51667 0.98451 0.0
C404 C 0.32518 0.57261 0.0306 0.0
C405 C 0.34089 0.56242 0.04873 0.0
C406 C 0.31055 0.57947 0.06361 0.0
C407 C 0.26327 0.60524 0.06062 0.0
C408 C 0.24668 0.61345 0.04253 0.0
C409 C 0.27783 0.5982 0.02772 0.0
C410 C 0.41013 0.55201 0.01624 0.0
C411 C 0.43922 0.59639 0.01247 0.0
C412 C 0.49339 0.59483 0.01276 0.0
C413 C 0.51993 0.54853 0.01673 0.0
C414 C 0.49056 0.50422 0.02105 0.0
C415 C 0.43611 0.50596 0.02085 0.0
C416 C 0.77175 0.51562 0.00312 0.0
C417 C 0.80582 0.53488 0.98989 0.0
C418 C 0.83588 0.50109 0.97915 0.0
C419 C 0.83242 0.44728 0.98149 0.0
C420 C 0.79843 0.42762 0.99477 0.0
C421 C 0.76835 0.46167 0.00562 0.0
C422 C 0.76983 0.5706 0.03069 0.0
C423 C 0.78652 0.53642 0.04435 0.0
C424 C 0.81666 0.55477 0.05904 0.0
C425 C 0.83038 0.60744 0.06028 0.0
C426 C 0.81264 0.64178 0.0469 0.0
C427 C 0.78265 0.62336 0.03219 0.0
C428 C 0.68772 0.54818 0.01494 0.0
C429 C 0.65879 0.57513 0.00191 0.0
C430 C 0.60462 0.57438 0.00233 0.0
C431 C 0.57787 0.54677 0.01592 0.0
C432 C 0.60705 0.51852 0.02875 0.0
C433 C 0.66151 0.5191 0.02824 0.0
H434 H 0.37981 0.46279 0.52487 0.0
N435 N 0.32877 0.55304 0.53494 0.0
H436 H 0.42257 0.4025 0.54554 0.0
H437 H 0.34212 0.56335 0.57096 0.0
H438 H 0.38759 0.50388 0.59163 0.0
H439 H 0.34134 0.50789 0.50078 0.0
H440 H 0.3864 0.54561 0.47457 0.0
H441 H 0.37467 0.64511 0.5334 0.0
H442 H 0.41881 0.68358 0.50686 0.0
H443 H 0.24842 0.61698 0.53807 0.0
H444 H 0.28847 0.45881 0.52372 0.0
H445 H 0.157 0.59779 0.53192 0.0
H446 H 0.19797 0.43869 0.51862 0.0
H447 H 0.89742 0.52823 0.53435 0.0
H448 H 0.84978 0.5057 0.56227 0.0
H449 H 0.90278 0.34742 0.5568 0.0
H450 H 0.95067 0.36989 0.52876 0.0
H451 H 0.89895 0.42236 0.48604 0.0
H452 H 0.85124 0.46984 0.46231 0.0
H453 H 0.90665 0.61484 0.48526 0.0
H454 H 0.95334 0.56771 0.50912 0.0
H455 H 0.99494 0.53038 0.53902 0.0
H456 H 0.08549 0.55209 0.54409 0.0
H457 H 0.12892 0.45286 0.49807 0.0
N458 N 0.95663 0.46185 0.51303 0.0
H459 H 0.0379 0.42893 0.49379 0.0
C460 C 0.35754 0.51794 0.54639 0.0
C461 C 0.38077 0.47222 0.53938 0.0
C462 C 0.40504 0.43751 0.55119 0.0
C463 C 0.40809 0.44869 0.5701 0.0
C464 C 0.38538 0.49445 0.57709 0.0
C465 C 0.35999 0.52851 0.56533 0.0
C466 C 0.35565 0.57339 0.51924 0.0
C467 C 0.35856 0.54592 0.50239 0.0
C468 C 0.3837 0.56766 0.48734 0.0
C469 C 0.40576 0.61729 0.48883 0.0
C470 C 0.4019 0.64523 0.50549 0.0
C471 C 0.37722 0.62324 0.5206 0.0
C472 C 0.27533 0.53949 0.53166 0.0
C473 C 0.23739 0.57804 0.53383 0.0
C474 C 0.18526 0.56687 0.5304 0.0
C475 C 0.17007 0.51659 0.52484 0.0
C476 C 0.20827 0.47801 0.52262 0.0
C477 C 0.26036 0.4894 0.52581 0.0
C478 C 0.9272 0.45033 0.52932 0.0
C479 C 0.89881 0.48866 0.53905 0.0
C480 C 0.87203 0.47602 0.55507 0.0
C481 C 0.87328 0.42509 0.56155 0.0
C482 C 0.90184 0.387 0.55199 0.0
C483 C 0.92869 0.39965 0.53602 0.0
C484 C 0.92969 0.49124 0.49929 0.0
C485 C 0.90083 0.46434 0.4859 0.0
C486 C 0.87399 0.49129 0.47238 0.0
C487 C 0.87587 0.54566 0.47205 0.0
C488 C 0.90518 0.57281 0.48529 0.0
C489 C 0.93166 0.54587 0.4989 0.0
C490 C 0.00973 0.47694 0.51619 0.0
C491 C 0.0238 0.51271 0.53014 0.0
C492 C 0.07577 0.52573 0.53288 0.0
C493 C 0.11462 0.50403 0.52156 0.0
C494 C 0.10017 0.46941 0.50732 0.0
C495 C 0.04826 0.45589 0.50475 0.0
C496 C 0.1598 0.67447 0.17499 0.0
C497 C 0.97356 0.59878 0.17404 0.0
C498 C 0.95983 0.67218 0.12154 0.0
Mg499 Mg 0.2081 0.77671 0.15669 0.0
Mg500 Mg 0.13829 0.87824 0.14541 0.0
O501 O 0.14599 0.80658 0.14394 0.0
Mg502 Mg 0.09075 0.75731 0.15202 0.0
O503 O 0.0414 0.7027 0.16021 0.0
Mg504 Mg 0.06806 0.64094 0.14595 0.0
Mg505 Mg 0.96979 0.71276 0.16083 0.0
C506 C 0.03276 0.84636 0.12604 0.0
O507 O 0.05457 0.81104 0.17471 0.0
O508 O 0.25904 0.83246 0.1393 0.0
O509 O 0.97103 0.78428 0.17679 0.0
O510 O 0.20536 0.83935 0.18051 0.0
O511 O 0.2076 0.89905 0.1312 0.0
O512 O 0.14608 0.89967 0.17362 0.0
O513 O 0.12032 0.69955 0.13001 0.0
O514 O 0.20515 0.71761 0.1328 0.0
C515 C 0.16776 0.69237 0.1252 0.0
C516 C 0.25116 0.87525 0.1309 0.0
O517 O 0.03461 0.79904 0.13162 0.0
O518 O 0.0144 0.59003 0.1643 0.0
O519 O 0.06591 0.88119 0.13077 0.0
O520 O 0.00142 0.64622 0.12441 0.0
O521 O 0.95095 0.64299 0.17487 0.0
O522 O 0.9426 0.70575 0.13311 0.0
O523 O 0.15103 0.72233 0.1715 0.0
O524 O 0.13289 0.63811 0.16751 0.0
C525 C 0.17928 0.88044 0.18459 0.0
C526 C 0.00822 0.81501 0.18132 0.0
C527 C 0.66564 0.82515 0.42336 0.0
C528 C 0.7412 0.64006 0.41911 0.0
C529 C 0.66595 0.63305 0.36582 0.0
Mg530 Mg 0.55754 0.87366 0.40406 0.0
Mg531 Mg 0.46206 0.79618 0.39075 0.0
O532 O 0.53303 0.81153 0.38997 0.0
Mg533 Mg 0.58502 0.75998 0.39827 0.0
O534 O 0.63955 0.71092 0.40639 0.0
Mg535 Mg 0.70018 0.73783 0.39241 0.0
Mg536 Mg 0.62753 0.63939 0.40547 0.0
C537 C 0.50383 0.69481 0.37094 0.0
O538 O 0.5312 0.72347 0.41992 0.0
O539 O 0.49759 0.92081 0.38693 0.0
O540 O 0.55593 0.63946 0.42106 0.0
O541 O 0.49475 0.86425 0.42706 0.0
O542 O 0.43666 0.86429 0.37689 0.0
O543 O 0.43754 0.8028 0.41871 0.0
O544 O 0.64313 0.79487 0.37804 0.0
O545 O 0.61653 0.87733 0.38079 0.0
C546 C 0.64782 0.84329 0.37406 0.0
C547 C 0.45638 0.90986 0.37769 0.0
O548 O 0.55014 0.70316 0.37678 0.0
O549 O 0.75039 0.68099 0.40977 0.0
O550 O 0.46469 0.72275 0.37572 0.0
O551 O 0.69263 0.67419 0.36912 0.0
O552 O 0.69673 0.61814 0.41959 0.0
O553 O 0.63398 0.61477 0.37743 0.0
O554 O 0.61746 0.81941 0.4189 0.0
O555 O 0.70108 0.79698 0.41585 0.0
C556 C 0.45467 0.83631 0.43028 0.0
C557 C 0.5264 0.67727 0.42606 0.0
C558 C 0.65504 0.17294 0.67339 0.0
C559 C 0.46807 0.10846 0.67562 0.0
C560 C 0.45143 0.17522 0.62179 0.0
Mg561 Mg 0.70836 0.27359 0.65174 0.0
Mg562 Mg 0.63789 0.37492 0.6415 0.0
O563 O 0.64583 0.30306 0.63963 0.0
Mg564 Mg 0.59083 0.25666 0.6491 0.0
O565 O 0.53899 0.20644 0.65865 0.0
Mg566 Mg 0.56038 0.14156 0.64513 0.0
Mg567 Mg 0.46822 0.22079 0.66061 0.0
C568 C 0.53111 0.3435 0.62337 0.0
O569 O 0.55939 0.31679 0.67048 0.0
O570 O 0.75601 0.3264 0.63228 0.0
O571 O 0.47496 0.29599 0.67444 0.0
O572 O 0.71208 0.33836 0.67457 0.0
O573 O 0.70377 0.39312 0.62484 0.0
O574 O 0.65144 0.39835 0.6693 0.0
O575 O 0.61779 0.19331 0.62874 0.0
O576 O 0.70211 0.21316 0.62885 0.0
C577 C 0.6646 0.18446 0.62332 0.0
C578 C 0.74653 0.36806 0.62338 0.0
O579 O 0.53519 0.29569 0.62812 0.0
O580 O 0.50401 0.09642 0.66407 0.0
O581 O 0.56264 0.3791 0.62877 0.0
O582 O 0.49315 0.14881 0.62394 0.0
O583 O 0.44968 0.15459 0.67709 0.0
O584 O 0.4367 0.20986 0.63344 0.0
O585 O 0.65127 0.2212 0.66891 0.0
O586 O 0.62321 0.13905 0.66702 0.0
C587 C 0.68777 0.38001 0.67915 0.0
C588 C 0.51447 0.32504 0.67771 0.0
C589 C 0.17148 0.3171 0.92683 0.0
C590 C 0.23801 0.12944 0.92935 0.0
C591 C 0.17538 0.1148 0.87362 0.0
Mg592 Mg 0.07334 0.36582 0.90414 0.0
Mg593 Mg 0.97484 0.29349 0.89031 0.0
O594 O 0.04671 0.30284 0.89085 0.0
Mg595 Mg 0.09312 0.24949 0.9014 0.0
O596 O 0.14333 0.19963 0.91186 0.0
Mg597 Mg 0.20795 0.22232 0.89906 0.0
Mg598 Mg 0.1287 0.12841 0.91155 0.0
C599 C 0.01197 0.18529 0.874 0.0
O600 O 0.03371 0.21915 0.92232 0.0
O601 O 0.02237 0.41328 0.88407 0.0
O602 O 0.05417 0.13427 0.92517 0.0
O603 O 0.00477 0.36656 0.9252 0.0
O604 O 0.9584 0.36018 0.87406 0.0
O605 O 0.94541 0.30686 0.9174 0.0
O606 O 0.15648 0.27617 0.88141 0.0
O607 O 0.13964 0.36145 0.88313 0.0
C608 C 0.16639 0.32311 0.87684 0.0
C609 C 0.98229 0.40374 0.87407 0.0
O610 O 0.05815 0.19077 0.88041 0.0
O611 O 0.25047 0.16892 0.91971 0.0
O612 O 0.97493 0.21737 0.87737 0.0
O613 O 0.20346 0.15456 0.87744 0.0
O614 O 0.19405 0.10659 0.92794 0.0
O615 O 0.13857 0.10024 0.88404 0.0
O616 O 0.12383 0.31078 0.92204 0.0
O617 O 0.20763 0.28784 0.92039 0.0
C618 C 0.96237 0.34221 0.92827 0.0
C619 C 0.02559 0.17389 0.9289 0.0
C620 C 0.33805 0.88354 0.45776 0.0
C621 C 0.35772 0.8823 0.47594 0.0
C622 C 0.43821 0.84225 0.46435 0.0
C623 C 0.42114 0.85032 0.44613 0.0
N624 N 0.35843 0.8877 0.42541 0.0
N625 N 0.42972 0.86724 0.49646 0.0
C626 C 0.37197 0.87332 0.44279 0.0
C627 C 0.40867 0.86325 0.47926 0.0
N628 N 0.28654 0.89302 0.45479 0.0
N629 N 0.48178 0.8134 0.4674 0.0
H630 H 0.40979 0.88324 0.50767 0.0
H631 H 0.46846 0.85888 0.49925 0.0
H632 H 0.50361 0.79699 0.4567 0.0
H633 H 0.49336 0.80173 0.48041 0.0
H634 H 0.26914 0.88915 0.44192 0.0
H635 H 0.26008 0.89952 0.46544 0.0
H636 H 0.32563 0.90989 0.42261 0.0
H637 H 0.38231 0.88195 0.41399 0.0
C638 C 0.38148 0.0401 0.70979 0.0
C639 C 0.41596 0.00282 0.71718 0.0
C640 C 0.48542 0.03514 0.69759 0.0
C641 C 0.44964 0.06878 0.68878 0.0
N642 N 0.3597 0.09011 0.68308 0.0
N643 N 0.4956 0.95425 0.71353 0.0
C644 C 0.39635 0.06706 0.69377 0.0
C645 C 0.46618 0.99669 0.70948 0.0
N646 N 0.336 0.05227 0.7185 0.0
N647 N 0.53781 0.04208 0.69597 0.0
H648 H 0.48199 0.92437 0.72176 0.0
H649 H 0.53087 0.94624 0.70704 0.0
H650 H 0.55458 0.07296 0.68909 0.0
H651 H 0.56462 0.02088 0.70353 0.0
H652 H 0.3123 0.08285 0.71445 0.0
H653 H 0.32461 0.03576 0.73084 0.0
H654 H 0.31999 0.08615 0.68542 0.0
H655 H 0.36873 0.10773 0.6707 0.0
C656 C 0.28096 0.1066 0.97843 0.0
C657 C 0.33486 0.09866 0.97596 0.0
C658 C 0.32378 0.10168 0.94251 0.0
C659 C 0.27121 0.11631 0.94519 0.0
N660 N 0.20244 0.14306 0.96607 0.0
N661 N 0.40944 0.09293 0.95602 0.0
C662 C 0.25032 0.12125 0.96324 0.0
C663 C 0.35688 0.0971 0.95807 0.0
N664 N 0.25887 0.0996 0.99531 0.0
N665 N 0.34157 0.09091 0.92517 0.0
H666 H 0.43462 0.08856 0.96712 0.0
H667 H 0.4284 0.09728 0.9435 0.0
H668 H 0.31805 0.09352 0.91355 0.0
H669 H 0.37806 0.07521 0.92243 0.0
H670 H 0.21889 0.09935 0.99744 0.0
H671 H 0.28016 0.08898 0.00686 0.0
H672 H 0.18816 0.15288 0.97907 0.0
H673 H 0.1789 0.15656 0.95554 0.0
C674 C 0.20095 0.92518 0.2344 0.0
C675 C 0.2117 0.97853 0.23158 0.0
C676 C 0.21094 0.96382 0.1983 0.0
C677 C 0.19365 0.91217 0.201 0.0
N678 N 0.16977 0.8435 0.2214 0.0
N679 N 0.21962 0.05068 0.21103 0.0
C680 C 0.18831 0.89258 0.21901 0.0
C681 C 0.21462 0.99842 0.21357 0.0
N682 N 0.20381 0.90569 0.25174 0.0
N683 N 0.22636 0.97911 0.18122 0.0
H684 H 0.22291 0.07748 0.22187 0.0
H685 H 0.21597 0.06793 0.19824 0.0
H686 H 0.22653 0.95427 0.16976 0.0
H687 H 0.24435 0.01454 0.1788 0.0
H688 H 0.20175 0.8663 0.2546 0.0
H689 H 0.21196 0.92877 0.26329 0.0
H690 H 0.16055 0.82828 0.23414 0.0
H691 H 0.16052 0.81876 0.21041 0.0
C692 C 0.40113 0.12573 0.57567 0.0
C693 C 0.35127 0.1075 0.58078 0.0
C694 C 0.36497 0.13839 0.61232 0.0
C695 C 0.41457 0.15791 0.60725 0.0
N696 N 0.47449 0.1812 0.5834 0.0
N697 N 0.28005 0.10974 0.60218 0.0
C698 C 0.43094 0.15511 0.58864 0.0
C699 C 0.33129 0.11859 0.59851 0.0
N700 N 0.42075 0.11318 0.55873 0.0
N701 N 0.35137 0.13463 0.63043 0.0
H702 H 0.25437 0.09487 0.59234 0.0
H703 H 0.26203 0.12202 0.61432 0.0
H704 H 0.37513 0.14639 0.64127 0.0
H705 H 0.31841 0.11502 0.63483 0.0
H706 H 0.45904 0.12016 0.55493 0.0
H707 H 0.39943 0.09288 0.54878 0.0
H708 H 0.48619 0.18448 0.56977 0.0
H709 H 0.49626 0.20377 0.5926 0.0
C710 C 0.21713 0.06934 0.82589 0.0
C711 C 0.23293 0.01781 0.82964 0.0
C712 C 0.20835 0.02907 0.86188 0.0
C713 C 0.19113 0.08029 0.85815 0.0
N714 N 0.16876 0.14551 0.83616 0.0
N715 N 0.23108 0.94415 0.84957 0.0
C716 C 0.19224 0.09932 0.83996 0.0
C717 C 0.22406 0.99619 0.8471 0.0
N718 N 0.22767 0.09012 0.80914 0.0
N719 N 0.21352 0.01296 0.87962 0.0
H720 H 0.2431 0.919 0.83901 0.0
H721 H 0.22014 0.9252 0.8615 0.0
H722 H 0.20461 0.03615 0.89106 0.0
H723 H 0.2315 0.97826 0.88311 0.0
H724 H 0.22263 0.12924 0.80622 0.0
H725 H 0.24422 0.06856 0.79838 0.0
H726 H 0.16397 0.15941 0.82291 0.0
H727 H 0.15 0.16793 0.84622 0.0
C728 C 0.36392 0.95384 0.11293 0.0
C729 C 0.35427 0.94967 0.09374 0.0
C730 C 0.28292 0.88914 0.09906 0.0
C731 C 0.29114 0.89494 0.11828 0.0
N732 N 0.3435 0.92429 0.14373 0.0
N733 N 0.31203 0.90699 0.06808 0.0
C734 C 0.33329 0.92438 0.12529 0.0
C735 C 0.31628 0.91496 0.08666 0.0
N736 N 0.40136 0.98722 0.11926 0.0
N737 N 0.24175 0.86046 0.09276 0.0
H738 H 0.33398 0.92712 0.05851 0.0
H739 H 0.28925 0.87814 0.06202 0.0
H740 H 0.21834 0.83867 0.10141 0.0
H741 H 0.22912 0.85969 0.07919 0.0
H742 H 0.40713 0.99668 0.13305 0.0
H743 H 0.42611 0.00724 0.11051 0.0
H744 H 0.37589 0.94148 0.14977 0.0
H745 H 0.32089 0.90388 0.15306 0.0
C746 C 0.38155 0.02849 0.36172 0.0
C747 C 0.37745 0.01624 0.34269 0.0
C748 C 0.43488 0.94153 0.34653 0.0
C749 C 0.43324 0.94965 0.36583 0.0
N750 N 0.40192 0.9978 0.39226 0.0
N751 N 0.39391 0.95707 0.31724 0.0
C752 C 0.4061 0.9926 0.3736 0.0
C753 C 0.40265 0.97181 0.33512 0.0
N754 N 0.36279 0.0748 0.36834 0.0
N755 N 0.46822 0.90557 0.33908 0.0
H756 H 0.37018 0.97782 0.30837 0.0
H757 H 0.40651 0.9218 0.31163 0.0
H758 H 0.49301 0.88306 0.34703 0.0
H759 H 0.47504 0.90166 0.32501 0.0
H760 H 0.36909 0.08833 0.38171 0.0
H761 H 0.34449 0.1018 0.35999 0.0
H762 H 0.37771 0.0248 0.39875 0.0
H763 H 0.42009 0.97266 0.40134 0.0
C764 C 0.6794 0.09696 0.58082 0.0
C765 C 0.72269 0.06672 0.58615 0.0
C766 C 0.7226 0.10789 0.61657 0.0
C767 C 0.67882 0.13877 0.6115 0.0
N768 N 0.61059 0.15678 0.5896 0.0
N769 N 0.77683 0.03307 0.61016 0.0
C770 C 0.65515 0.13091 0.59396 0.0
C771 C 0.74121 0.06874 0.60439 0.0
N772 N 0.66302 0.09477 0.56295 0.0
N773 N 0.74866 0.11751 0.63265 0.0
H774 H 0.79336 0.005 0.60149 0.0
H775 H 0.78664 0.02822 0.62392 0.0
H776 H 0.73546 0.14235 0.64304 0.0
H777 H 0.78533 0.10253 0.63544 0.0
H778 H 0.63607 0.1202 0.55739 0.0
H779 H 0.67858 0.06878 0.55327 0.0
H780 H 0.58834 0.14816 0.57802 0.0
H781 H 0.5936 0.18504 0.598 0.0
C782 C 0.74489 0.93601 0.35254 0.0
C783 C 0.76177 0.90693 0.33703 0.0
C784 C 0.7039 0.8355 0.34532 0.0
C785 C 0.6901 0.86264 0.36185 0.0
N786 N 0.70701 0.93582 0.38269 0.0
N787 N 0.7658 0.82573 0.32032 0.0
C788 C 0.71353 0.91191 0.36592 0.0
C789 C 0.74423 0.85542 0.33404 0.0
N790 N 0.75702 0.98762 0.35418 0.0
N791 N 0.67586 0.79338 0.33945 0.0
H792 H 0.79469 0.83969 0.31164 0.0
H793 H 0.75846 0.78616 0.31865 0.0
H794 H 0.64321 0.77974 0.34626 0.0
H795 H 0.68122 0.77546 0.32666 0.0
H796 H 0.73958 0.0126 0.36375 0.0
H797 H 0.78127 0.00681 0.34505 0.0
H798 H 0.72874 0.96786 0.387 0.0
H799 H 0.68429 0.92145 0.39324 0.0
C800 C 0.96811 0.87706 0.08088 0.0
C801 C 0.93206 0.91556 0.08678 0.0
C802 C 0.95638 0.9023 0.11875 0.0
C803 C 0.99189 0.86301 0.1131 0.0
N804 N 0.02523 0.80615 0.08918 0.0
N805 N 0.87999 0.95228 0.1112 0.0
C806 C 0.99498 0.84752 0.09429 0.0
C807 C 0.92206 0.92363 0.10572 0.0
N808 N 0.97925 0.87122 0.06259 0.0
N809 N 0.95776 0.92195 0.13628 0.0
H810 H 0.85384 0.96813 0.10188 0.0
H811 H 0.8682 0.95559 0.12488 0.0
H812 H 0.98342 0.90851 0.14618 0.0
H813 H 0.93678 0.95462 0.14052 0.0
H814 H 0.00951 0.84833 0.05752 0.0
H815 H 0.96026 0.89199 0.05241 0.0
H816 H 0.0253 0.78995 0.07598 0.0
H817 H 0.04756 0.7854 0.09847 0.0
C818 C 0.9508 0.06659 0.8522 0.0
C819 C 0.94699 0.08475 0.83394 0.0
C820 C 0.00587 0.15641 0.8415 0.0
C821 C 0.00118 0.14402 0.86029 0.0
N822 N 0.97376 0.08629 0.88396 0.0
N823 N 0.97015 0.14696 0.81085 0.0
C824 C 0.97568 0.09819 0.86575 0.0
C825 C 0.97531 0.12903 0.82835 0.0
N826 N 0.93061 0.01922 0.85643 0.0
N827 N 0.03887 0.19508 0.83637 0.0
H828 H 0.94831 0.12795 0.80075 0.0
H829 H 0.98476 0.18244 0.80659 0.0
H830 H 0.06104 0.2162 0.84586 0.0
H831 H 0.04797 0.20295 0.82275 0.0
H832 H 0.93536 0.00171 0.86911 0.0
H833 H 0.9124 0.99537 0.84667 0.0
H834 H 0.95074 0.05701 0.88932 0.0
H835 H 0.99465 0.10721 0.89388 0.0
C836 C 0.67838 0.88716 0.47142 0.0
C837 C 0.73032 0.90456 0.47045 0.0
C838 C 0.73154 0.88545 0.43747 0.0
C839 C 0.68278 0.85936 0.43898 0.0
N840 N 0.61473 0.82772 0.45907 0.0
N841 N 0.80869 0.91675 0.45299 0.0
C842 C 0.65679 0.85895 0.45631 0.0
C843 C 0.75726 0.90362 0.45354 0.0
N844 N 0.65002 0.89679 0.48697 0.0
N845 N 0.75416 0.89219 0.42068 0.0
H846 H 0.82904 0.9312 0.46434 0.0
H847 H 0.8324 0.90974 0.44162 0.0
H848 H 0.74002 0.87586 0.40856 0.0
H849 H 0.78534 0.91711 0.41858 0.0
H850 H 0.61031 0.88957 0.48784 0.0
H851 H 0.66522 0.91688 0.49832 0.0
H852 H 0.59859 0.82185 0.472 0.0
H853 H 0.59902 0.80306 0.44911 0.0
C854 C 0.00339 0.87581 0.22933 0.0
C855 C 0.97212 0.92013 0.22602 0.0
C856 C 0.96296 0.89443 0.19376 0.0
C857 C 0.99789 0.85268 0.19647 0.0
N858 N 0.05224 0.80287 0.21667 0.0
N859 N 0.93283 0.97846 0.20455 0.0
C860 C 0.01914 0.8437 0.21419 0.0
C861 C 0.95561 0.93169 0.20801 0.0
N862 N 0.01531 0.86283 0.247 0.0
N863 N 0.93404 0.89679 0.17808 0.0
H864 H 0.92725 0.0069 0.21474 0.0
H865 H 0.92446 0.99091 0.19132 0.0
H866 H 0.93591 0.86862 0.16768 0.0
H867 H 0.90422 0.92357 0.17626 0.0
H868 H 0.0331 0.82825 0.25066 0.0
H869 H 0.00453 0.88535 0.2584 0.0
H870 H 0.07229 0.79614 0.2288 0.0
H871 H 0.06132 0.77604 0.2063 0.0
C872 C 0.98694 0.15398 0.97794 0.0
C873 C 0.93399 0.13999 0.97597 0.0
C874 C 0.93856 0.15478 0.94277 0.0
C875 C 0.99113 0.16946 0.94493 0.0
N876 N 0.06181 0.19594 0.96467 0.0
N877 N 0.85631 0.13575 0.95756 0.0
C878 C 0.01405 0.17338 0.96259 0.0
C879 C 0.90875 0.14307 0.95866 0.0
N880 N 0.01211 0.14613 0.99422 0.0
N881 N 0.91778 0.15101 0.92553 0.0
H882 H 0.8336 0.12688 0.96896 0.0
H883 H 0.83469 0.14203 0.94573 0.0
H884 H 0.93802 0.16244 0.91385 0.0
H885 H 0.88161 0.13485 0.92269 0.0
H886 H 0.05211 0.14979 0.9958 0.0
H887 H 0.99389 0.1316 0.00585 0.0
H888 H 0.0782 0.20486 0.97741 0.0
H889 H 0.08314 0.21031 0.95368 0.0
C890 C 0.71778 0.16577 0.72097 0.0
C891 C 0.74363 0.11751 0.71965 0.0
C892 C 0.71816 0.10852 0.68727 0.0
C893 C 0.68935 0.15605 0.68881 0.0
N894 N 0.64891 0.21895 0.70927 0.0
N895 N 0.77845 0.04782 0.70103 0.0
C896 C 0.68658 0.18254 0.70612 0.0
C897 C 0.74713 0.09061 0.70259 0.0
N898 N 0.72296 0.19556 0.73657 0.0
N899 N 0.7142 0.07775 0.67183 0.0
H900 H 0.79786 0.0317 0.71212 0.0
H901 H 0.78895 0.03057 0.68854 0.0
H902 H 0.69321 0.08748 0.66023 0.0
H903 H 0.72805 0.03987 0.67085 0.0
H904 H 0.70954 0.23365 0.73767 0.0
H905 H 0.74545 0.18396 0.74771 0.0
H906 H 0.64135 0.23531 0.72217 0.0
H907 H 0.62041 0.22757 0.69968 0.0
C908 C 0.90922 0.38903 0.97451 0.0
C909 C 0.86195 0.4123 0.96884 0.0
C910 C 0.88026 0.38825 0.93686 0.0
C911 C 0.92663 0.36315 0.94251 0.0
N912 N 0.98039 0.33048 0.96677 0.0
N913 N 0.79604 0.42208 0.9457 0.0
C914 C 0.93963 0.36064 0.9614 0.0
C915 C 0.84538 0.4078 0.95035 0.0
N916 N 0.92596 0.39586 0.9922 0.0
N917 N 0.87098 0.39652 0.91862 0.0
H918 H 0.76936 0.43654 0.95529 0.0
H919 H 0.77998 0.41474 0.93278 0.0
H920 H 0.89593 0.3843 0.90813 0.0
H921 H 0.84093 0.41993 0.91393 0.0
H922 H 0.96267 0.38487 0.99668 0.0
H923 H 0.90414 0.41546 0.0022 0.0
H924 H 0.9889 0.32288 0.98045 0.0
H925 H 0.00319 0.30939 0.95742 0.0
C926 C 0.90233 0.48029 0.19173 0.0
C927 C 0.89866 0.49454 0.21062 0.0
C928 C 0.95717 0.56769 0.20561 0.0
C929 C 0.95395 0.55837 0.18641 0.0
N930 N 0.92145 0.50801 0.16072 0.0
N931 N 0.91761 0.55537 0.23535 0.0
C932 C 0.9265 0.51486 0.1793 0.0
C933 C 0.9252 0.53891 0.21759 0.0
N934 N 0.8833 0.43347 0.18578 0.0
N935 N 0.9913 0.60384 0.21238 0.0
H936 H 0.89393 0.53596 0.2446 0.0
H937 H 0.93124 0.59075 0.24051 0.0
H938 H 0.01571 0.62526 0.20393 0.0
H939 H 0.99914 0.60882 0.22634 0.0
H940 H 0.88907 0.41865 0.17254 0.0
H941 H 0.86556 0.40729 0.19459 0.0
H942 H 0.89687 0.48058 0.15469 0.0
H943 H 0.93947 0.53208 0.15126 0.0
C944 C 0.85924 0.57348 0.43961 0.0
C945 C 0.8445 0.57419 0.45843 0.0
C946 C 0.76976 0.62887 0.45135 0.0
C947 C 0.78032 0.62196 0.43234 0.0
N948 N 0.83248 0.58525 0.40793 0.0
N949 N 0.78201 0.59648 0.48204 0.0
C950 C 0.82464 0.59396 0.4263 0.0
C951 C 0.79892 0.60056 0.4643 0.0
N952 N 0.90664 0.55412 0.43456 0.0
N953 N 0.73231 0.66329 0.45702 0.0
H954 H 0.80187 0.57565 0.49201 0.0
H955 H 0.74595 0.60992 0.48652 0.0
H956 H 0.71043 0.68521 0.44789 0.0
H957 H 0.72645 0.67391 0.47073 0.0
H958 H 0.92178 0.55701 0.42135 0.0
H959 H 0.93286 0.53893 0.44399 0.0
H960 H 0.86072 0.56014 0.4027 0.0
H961 H 0.80842 0.60075 0.39787 0.0
C962 C 0.73715 0.42738 0.72611 0.0
C963 C 0.74691 0.48027 0.72218 0.0
C964 C 0.72347 0.4652 0.69004 0.0
C965 C 0.7087 0.41351 0.69418 0.0
N966 N 0.6977 0.34592 0.71638 0.0
N967 N 0.74011 0.55219 0.70153 0.0
C968 C 0.71455 0.39464 0.71231 0.0
C969 C 0.73687 0.50001 0.70451 0.0
N970 N 0.75084 0.40828 0.74285 0.0
N971 N 0.72856 0.48009 0.67215 0.0
H972 H 0.75074 0.579 0.71174 0.0
H973 H 0.72763 0.56931 0.68943 0.0
H974 H 0.72287 0.45498 0.66095 0.0
H975 H 0.74438 0.51556 0.66839 0.0
H976 H 0.75038 0.36897 0.74594 0.0
H977 H 0.76571 0.43167 0.75343 0.0
H978 H 0.69546 0.33183 0.72968 0.0
H979 H 0.68257 0.32049 0.7065 0.0
C980 C 0.91636 0.63874 0.07264 0.0
C981 C 0.86335 0.6265 0.07571 0.0
C982 C 0.87524 0.64002 0.10879 0.0
C983 C 0.92677 0.65747 0.10561 0.0
N984 N 0.99463 0.67982 0.08434 0.0
N985 N 0.78961 0.62533 0.09611 0.0
C986 C 0.9469 0.65863 0.08746 0.0
C987 C 0.84196 0.63024 0.09361 0.0
N988 N 0.93798 0.62957 0.05573 0.0
N989 N 0.85896 0.62952 0.12624 0.0
H990 H 0.76387 0.61809 0.08531 0.0
H991 H 0.77127 0.63327 0.10861 0.0
H992 H 0.88269 0.63341 0.13778 0.0
H993 H 0.82375 0.6115 0.12908 0.0
H994 H 0.97762 0.63224 0.05314 0.0
H995 H 0.91686 0.61518 0.04454 0.0
H996 H 0.00914 0.68691 0.07126 0.0
H997 H 0.01821 0.69429 0.09487 0.0
C998 C 0.71013 0.5159 0.33773 0.0
C999 C 0.7029 0.53347 0.31955 0.0
C1000 C 0.66754 0.61593 0.33159 0.0
C1001 C 0.67929 0.59993 0.34967 0.0
N1002 N 0.72188 0.53942 0.36975 0.0
N1003 N 0.68075 0.60211 0.2988 0.0
C1004 C 0.70334 0.55118 0.35269 0.0
C1005 C 0.68314 0.58407 0.31635 0.0
N1006 N 0.72214 0.46501 0.34074 0.0
N1007 N 0.64034 0.6608 0.32906 0.0
H1008 H 0.69134 0.57962 0.28735 0.0
H1009 H 0.67186 0.64037 0.29565 0.0
H1010 H 0.62879 0.68488 0.33997 0.0
H1011 H 0.62601 0.67229 0.31638 0.0
H1012 H 0.72223 0.44868 0.35374 0.0
H1013 H 0.72726 0.43775 0.33013 0.0
H1014 H 0.74485 0.50702 0.37229 0.0
H1015 H 0.71881 0.56452 0.38109 0.0
C1016 C 0.86043 0.41962 0.59575 0.0
C1017 C 0.84153 0.41058 0.57764 0.0
C1018 C 0.76422 0.36828 0.58984 0.0
C1019 C 0.7808 0.38134 0.60793 0.0
N1020 N 0.8411 0.42364 0.62847 0.0
N1021 N 0.77239 0.38391 0.55725 0.0
C1022 C 0.82806 0.40809 0.61102 0.0
C1023 C 0.79254 0.38701 0.57463 0.0
N1024 N 0.90965 0.43814 0.59828 0.0
N1025 N 0.72221 0.33651 0.58721 0.0
H1026 H 0.79222 0.39658 0.54566 0.0
H1027 H 0.73433 0.3728 0.55444 0.0
H1028 H 0.70026 0.32178 0.59798 0.0
H1029 H 0.71171 0.32094 0.57445 0.0
H1030 H 0.9278 0.44063 0.61104 0.0
H1031 H 0.93393 0.44782 0.58738 0.0
H1032 H 0.87222 0.44802 0.63151 0.0
H1033 H 0.81855 0.4148 0.63992 0.0
C1034 C 0.95164 0.46044 0.82781 0.0
C1035 C 0.93022 0.50922 0.83304 0.0
C1036 C 0.94235 0.48902 0.86558 0.0
C1037 C 0.96675 0.44181 0.86021 0.0
N1038 N 0.00518 0.38763 0.83648 0.0
N1039 N 0.91209 0.57408 0.85642 0.0
C1040 C 0.97454 0.42902 0.84139 0.0
C1041 C 0.92762 0.52481 0.85182 0.0
N1042 N 0.9483 0.44318 0.80997 0.0
N1043 N 0.93159 0.49866 0.88371 0.0
H1044 H 0.90064 0.60101 0.84665 0.0
H1045 H 0.91431 0.5896 0.86969 0.0
H1046 H 0.94248 0.4735 0.89413 0.0
H1047 H 0.90883 0.52962 0.88834 0.0
H1048 H 0.95782 0.40549 0.8058 0.0
H1049 H 0.93173 0.46491 0.79951 0.0
H1050 H 0.01682 0.3798 0.82301 0.0
H1051 H 0.02322 0.36386 0.84605 0.0
C1052 C 0.22318 0.68018 0.07809 0.0
C1053 C 0.23219 0.6259 0.07639 0.0
C1054 C 0.18917 0.6128 0.10612 0.0
C1055 C 0.17956 0.66681 0.10738 0.0
N1056 N 0.17079 0.74817 0.09193 0.0
N1057 N 0.21214 0.5393 0.08644 0.0
C1058 C 0.1909 0.69915 0.09241 0.0
C1059 C 0.21157 0.59167 0.08971 0.0
N1060 N 0.24826 0.71414 0.0669 0.0
N1061 N 0.17801 0.58211 0.12072 0.0
H1062 H 0.227 0.52274 0.07437 0.0
H1063 H 0.19372 0.51273 0.09487 0.0
H1064 H 0.15871 0.59628 0.13237 0.0
H1065 H 0.18977 0.54353 0.12158 0.0
H1066 H 0.24678 0.75428 0.0689 0.0
H1067 H 0.27492 0.7025 0.05687 0.0
H1068 H 0.17326 0.7714 0.08037 0.0
H1069 H 0.14694 0.76323 0.10233 0.0
C1070 C 0.27643 0.40037 0.85725 0.0
C1071 C 0.27715 0.38227 0.83873 0.0
C1072 C 0.21011 0.3179 0.84577 0.0
C1073 C 0.21016 0.33553 0.86438 0.0
N1074 N 0.25324 0.38288 0.88876 0.0
N1075 N 0.25447 0.31643 0.81629 0.0
C1076 C 0.24674 0.37324 0.87039 0.0
C1077 C 0.24721 0.33845 0.83331 0.0
N1078 N 0.30171 0.44518 0.86212 0.0
N1079 N 0.17269 0.28425 0.83968 0.0
H1080 H 0.28113 0.33089 0.80687 0.0
H1081 H 0.23764 0.28141 0.81216 0.0
H1082 H 0.14488 0.26827 0.84829 0.0
H1083 H 0.16694 0.2748 0.82586 0.0
H1084 H 0.29736 0.46349 0.87489 0.0
H1085 H 0.32372 0.4667 0.85294 0.0
H1086 H 0.28278 0.40614 0.89413 0.0
H1087 H 0.23233 0.36328 0.89874 0.0
C1088 C 0.49234 0.40933 0.58024 0.0
C1089 C 0.43782 0.41416 0.58248 0.0
C1090 C 0.44217 0.36281 0.61065 0.0
C1091 C 0.49639 0.35785 0.60811 0.0
N1092 N 0.56981 0.36085 0.58766 0.0
N1093 N 0.35914 0.38525 0.5971 0.0
C1094 C 0.52022 0.37582 0.59187 0.0
C1095 C 0.4121 0.38754 0.59685 0.0
N1096 N 0.51817 0.43929 0.56788 0.0
N1097 N 0.41992 0.34583 0.62649 0.0
H1098 H 0.33619 0.40238 0.58705 0.0
H1099 H 0.33822 0.3627 0.60624 0.0
H1100 H 0.44084 0.32586 0.63641 0.0
H1101 H 0.38164 0.35371 0.63018 0.0
H1102 H 0.5585 0.4412 0.56717 0.0
H1103 H 0.49982 0.46621 0.55953 0.0
H1104 H 0.58761 0.36891 0.57516 0.0
H1105 H 0.59103 0.33559 0.59586 0.0
C1106 C 0.49367 0.63644 0.32293 0.0
C1107 C 0.46531 0.59065 0.32669 0.0
C1108 C 0.47382 0.60753 0.35985 0.0
C1109 C 0.496 0.65639 0.35596 0.0
N1110 N 0.52495 0.71978 0.33417 0.0
N1111 N 0.42751 0.53166 0.34829 0.0
C1112 C 0.50606 0.67124 0.3376 0.0
C1113 C 0.45553 0.57564 0.34506 0.0
N1114 N 0.50855 0.64665 0.3053 0.0
N1115 N 0.47092 0.59167 0.37766 0.0
H1116 H 0.41571 0.50624 0.3378 0.0
H1117 H 0.41384 0.5214 0.36118 0.0
H1118 H 0.484 0.61452 0.38869 0.0
H1119 H 0.4594 0.55468 0.38148 0.0
H1120 H 0.53409 0.67622 0.30188 0.0
H1121 H 0.49845 0.62315 0.29407 0.0
H1122 H 0.52708 0.73556 0.32112 0.0
H1123 H 0.53611 0.7459 0.34453 0.0
C1124 C 0.20435 0.43656 0.95618 0.0
C1125 C 0.23878 0.41322 0.96889 0.0
C1126 C 0.2111 0.32767 0.95773 0.0
C1127 C 0.18579 0.35106 0.94266 0.0
N1128 N 0.1634 0.42877 0.92639 0.0
N1129 N 0.2805 0.3354 0.97986 0.0
C1130 C 0.18312 0.40586 0.94164 0.0
C1131 C 0.24331 0.35835 0.96934 0.0
N1132 N 0.19141 0.48779 0.95814 0.0
N1133 N 0.20438 0.27597 0.96089 0.0
H1134 H 0.30686 0.35633 0.98791 0.0
H1135 H 0.28858 0.29577 0.97915 0.0
H1136 H 0.1799 0.25277 0.95282 0.0
H1137 H 0.21842 0.25779 0.97258 0.0
H1138 H 0.16304 0.5055 0.95018 0.0
H1139 H 0.20501 0.51105 0.96897 0.0
H1140 H 0.16579 0.46853 0.92411 0.0
H1141 H 0.14881 0.40745 0.91531 0.0
C1142 C 0.50701 0.38255 0.72528 0.0
C1143 C 0.47161 0.42396 0.72273 0.0
C1144 C 0.47184 0.40682 0.68945 0.0
C1145 C 0.50807 0.36611 0.69208 0.0
N1146 N 0.57187 0.32651 0.71165 0.0
N1147 N 0.42842 0.48289 0.70238 0.0
C1148 C 0.5297 0.35793 0.70971 0.0
C1149 C 0.45653 0.43849 0.70476 0.0
N1150 N 0.51667 0.36449 0.74253 0.0
N1151 N 0.45163 0.41452 0.67235 0.0
H1152 H 0.41687 0.50681 0.71335 0.0
H1153 H 0.42007 0.49823 0.68957 0.0
H1154 H 0.46519 0.39452 0.66072 0.0
H1155 H 0.42052 0.43919 0.66979 0.0
H1156 H 0.53725 0.33047 0.74498 0.0
H1157 H 0.49999 0.38039 0.75441 0.0
H1158 H 0.59187 0.32271 0.72399 0.0
H1159 H 0.59063 0.30925 0.70051 0.0
C1160 C 0.40958 0.65478 0.45709 0.0
C1161 C 0.43571 0.63849 0.47321 0.0
C1162 C 0.51908 0.66116 0.45947 0.0
C1163 C 0.49378 0.66928 0.44245 0.0
N1164 N 0.4156 0.67304 0.42447 0.0
N1165 N 0.51591 0.62005 0.48905 0.0
C1166 C 0.43906 0.66642 0.4411 0.0
C1167 C 0.49063 0.64044 0.47429 0.0
N1168 N 0.3568 0.66001 0.45724 0.0
N1169 N 0.5702 0.67429 0.46155 0.0
H1170 H 0.49675 0.60383 0.50019 0.0
H1171 H 0.556 0.61507 0.48953 0.0
H1172 H 0.59228 0.69026 0.45103 0.0
H1173 H 0.58922 0.67433 0.47418 0.0
H1174 H 0.33581 0.67636 0.44657 0.0
H1175 H 0.33428 0.65194 0.46877 0.0
H1176 H 0.3764 0.66591 0.42209 0.0
H1177 H 0.43621 0.68287 0.41268 0.0
C1178 C 0.24085 0.65441 0.21823 0.0
C1179 C 0.26992 0.61021 0.21252 0.0
C1180 C 0.23911 0.62159 0.18102 0.0
C1181 C 0.20277 0.65915 0.18741 0.0
N1182 N 0.16549 0.70807 0.21278 0.0
N1183 N 0.29238 0.54773 0.18867 0.0
C1184 C 0.20314 0.67542 0.20616 0.0
C1185 C 0.26842 0.593 0.1939 0.0
N1186 N 0.24947 0.67636 0.23517 0.0
N1187 N 0.24601 0.6137 0.16258 0.0
H1188 H 0.31361 0.52491 0.19767 0.0
H1189 H 0.28743 0.53045 0.17575 0.0
H1190 H 0.22609 0.63516 0.15282 0.0
H1191 H 0.27526 0.59026 0.15704 0.0
H1192 H 0.23305 0.71153 0.23942 0.0
H1193 H 0.27706 0.66196 0.24428 0.0
H1194 H 0.16035 0.71641 0.22671 0.0
H1195 H 0.13671 0.72375 0.20451 0.0
loop_
_geom_bond_atom_site_label_1
_geom_bond_atom_site_label_2
_geom_bond_distance
_geom_bond_site_symmetry_2
_ccdc_geom_bond_type
H0 C27 0.929 1_565 S
N1 C26 1.433 1_565 S
N1 C32 1.435 . S
N1 C38 1.423 . S
H2 C28 0.930 . S
H3 C31 0.931 . S
H4 C30 0.929 . S
H5 C33 0.930 1_545 S
H6 C34 0.931 1_545 S
H7 C37 0.929 . S
H8 C36 0.931 . S
H9 C39 0.929 . S
H10 C43 0.932 . S
H11 C40 0.931 . S
H12 C42 0.929 . S
H13 C45 0.929 1_565 S
H14 C46 0.930 . S
H15 C48 0.929 . S
H16 C49 0.931 . S
H17 C51 0.930 1_545 S
H18 C52 0.932 . S
H19 C54 0.931 . S
H20 C55 0.929 . S
H21 C57 0.929 . S
H22 C58 0.931 . S
H23 C60 0.929 . S
N24 C44 1.433 1_565 S
N24 C50 1.435 . S
N24 C56 1.423 . S
H25 C61 0.932 . S
C26 N1 1.433 1_545 S
C26 C27 1.363 . S
C26 C31 1.370 . S
C27 H0 0.929 1_545 S
C27 C26 1.363 . S
C27 C28 1.385 . S
C28 H2 0.930 . S
C28 C27 1.385 . S
C28 C29 1.357 . S
C29 C28 1.357 . S
C29 C30 1.406 . S
C30 H4 0.929 . S
C30 C29 1.406 . S
C30 C31 1.391 . S
C31 H3 0.931 . S
C31 C26 1.370 . S
C31 C30 1.391 . S
C32 N1 1.435 . S
C32 C33 1.358 . S
C32 C37 1.371 . S
C33 H5 0.930 1_565 S
C33 C32 1.358 . S
C33 C34 1.405 . S
C34 H6 0.931 1_565 S
C34 C33 1.405 . S
C34 C35 1.383 . S
C35 C34 1.383 . S
C35 C36 1.393 . S
C36 H8 0.931 . S
C36 C35 1.393 . S
C36 C37 1.382 . S
C37 H7 0.929 . S
C37 C32 1.371 . S
C37 C36 1.382 . S
C38 N1 1.423 . S
C38 C39 1.362 . S
C38 C43 1.388 . S
C39 H9 0.929 . S
C39 C38 1.362 . S
C39 C40 1.376 . S
C40 H11 0.931 . S
C40 C39 1.376 . S
C40 C41 1.396 1_655 S
C41 C40 1.396 1_455 S
C41 C42 1.348 1_455 S
C41 C59 1.472 . S
C42 H12 0.929 . S
C42 C41 1.348 1_655 S
C42 C43 1.443 . S
C43 H10 0.932 . S
C43 C38 1.388 . S
C43 C42 1.443 . S
C44 N24 1.433 1_545 S
C44 C45 1.363 . S
C44 C49 1.370 . S
C45 H13 0.929 1_545 S
C45 C44 1.363 . S
C45 C46 1.385 . S
C46 H14 0.930 . S
C46 C45 1.385 . S
C46 C47 1.357 . S
C47 C46 1.357 . S
C47 C48 1.406 . S
C48 H15 0.929 . S
C48 C47 1.406 . S
C48 C49 1.391 . S
C49 H16 0.931 . S
C49 C44 1.370 . S
C49 C48 1.391 . S
C50 N24 1.435 . S
C50 C51 1.358 . S
C50 C55 1.371 . S
C51 H17 0.930 1_565 S
C51 C50 1.358 . S
C51 C52 1.405 . S
C52 H18 0.932 . S
C52 C51 1.405 . S
C52 C53 1.383 . S
C53 C52 1.383 . S
C53 C54 1.393 . S
C54 H19 0.931 . S
C54 C53 1.393 . S
C54 C55 1.382 . S
C55 H20 0.929 . S
C55 C50 1.371 . S
C55 C54 1.382 . S
C56 N24 1.423 . S
C56 C57 1.362 . S
C56 C61 1.388 . S
C57 H21 0.929 . S
C57 C56 1.362 . S
C57 C58 1.376 . S
C58 H22 0.931 . S
C58 C57 1.376 . S
C58 C59 1.396 . S
C59 C41 1.472 . S
C59 C58 1.396 . S
C59 C60 1.348 . S
C60 H23 0.929 . S
C60 C59 1.348 . S
C60 C61 1.443 . S
C61 H25 0.932 . S
C61 C56 1.388 . S
C61 C60 1.443 . S
H62 C89 0.929 . S
N63 C88 1.433 . S
N63 C94 1.435 . S
N63 C100 1.423 . S
H64 C90 0.930 . S
H65 C93 0.931 . S
H66 C92 0.929 . S
H67 C95 0.930 . S
H68 C96 0.932 . S
H69 C99 0.929 . S
H70 C98 0.931 . S
H71 C101 0.929 . S
H72 C105 0.932 . S
H73 C102 0.931 . S
H74 C104 0.929 . S
H75 C107 0.929 . S
H76 C108 0.930 1_545 S
H77 C110 0.929 . S
H78 C111 0.931 . S
H79 C113 0.930 . S
H80 C114 0.932 1_545 S
H81 C116 0.931 . S
H82 C117 0.929 . S
H83 C119 0.929 . S
H84 C120 0.931 . S
H85 C122 0.929 . S
N86 C106 1.433 . S
N86 C112 1.435 . S
N86 C118 1.423 . S
H87 C123 0.932 . S
C88 N63 1.433 . S
C88 C89 1.363 . S
C88 C93 1.370 . S
C89 H62 0.929 . S
C89 C88 1.363 . S
C89 C90 1.385 . S
C90 H64 0.930 . S
C90 C89 1.385 . S
C90 C91 1.357 . S
C91 C90 1.357 . S
C91 C92 1.406 . S
C92 H66 0.929 . S
C92 C91 1.406 . S
C92 C93 1.391 . S
C93 H65 0.931 . S
C93 C88 1.370 . S
C93 C92 1.391 . S
C94 N63 1.435 . S
C94 C95 1.358 . S
C94 C99 1.371 . S
C95 H67 0.930 . S
C95 C94 1.358 . S
C95 C96 1.405 . S
C96 H68 0.932 . S
C96 C95 1.405 . S
C96 C97 1.383 . S
C97 C96 1.383 . S
C97 C98 1.393 . S
C98 H70 0.931 . S
C98 C97 1.393 . S
C98 C99 1.382 . S
C99 H69 0.929 . S
C99 C94 1.371 . S
C99 C98 1.382 . S
C100 N63 1.423 . S
C100 C101 1.362 . S
C100 C105 1.388 . S
C101 H71 0.929 . S
C101 C100 1.362 . S
C101 C102 1.376 . S
C102 H73 0.931 . S
C102 C101 1.376 . S
C102 C103 1.396 . S
C103 C102 1.396 . S
C103 C104 1.348 . S
C103 C121 1.472 . S
C104 H74 0.929 . S
C104 C103 1.348 . S
C104 C105 1.443 . S
C105 H72 0.932 . S
C105 C100 1.388 . S
C105 C104 1.443 . S
C106 N86 1.433 . S
C106 C107 1.363 . S
C106 C111 1.370 . S
C107 H75 0.929 . S
C107 C106 1.363 . S
C107 C108 1.385 . S
C108 H76 0.930 1_565 S
C108 C107 1.385 . S
C108 C109 1.357 . S
C109 C108 1.357 . S
C109 C110 1.406 . S
C110 H77 0.929 . S
C110 C109 1.406 . S
C110 C111 1.391 . S
C111 H78 0.931 . S
C111 C106 1.370 . S
C111 C110 1.391 . S
C112 N86 1.435 . S
C112 C113 1.358 . S
C112 C117 1.371 . S
C113 H79 0.930 . S
C113 C112 1.358 . S
C113 C114 1.405 . S
C114 H80 0.932 1_565 S
C114 C113 1.405 . S
C114 C115 1.383 . S
C115 C114 1.383 . S
C115 C116 1.393 . S
C116 H81 0.931 . S
C116 C115 1.393 . S
C116 C117 1.382 . S
C117 H82 0.929 . S
C117 C112 1.371 . S
C117 C116 1.382 . S
C118 N86 1.423 . S
C118 C119 1.362 . S
C118 C123 1.388 . S
C119 H83 0.929 . S
C119 C118 1.362 . S
C119 C120 1.376 . S
C120 H84 0.931 . S
C120 C119 1.376 . S
C120 C121 1.396 . S
C121 C103 1.472 . S
C121 C120 1.396 . S
C121 C122 1.348 . S
C122 H85 0.929 . S
C122 C121 1.348 . S
C122 C123 1.443 . S
C123 H87 0.932 . S
C123 C118 1.388 . S
C123 C122 1.443 . S
H124 C151 0.929 . S
N125 C150 1.418 1_545 S
N125 C156 1.435 . S
N125 C162 1.423 . S
H126 C152 0.930 . S
H127 C155 0.931 . S
H128 C154 0.929 . S
H129 C157 0.930 1_565 S
H130 C158 0.932 . S
H131 C161 0.929 . S
H132 C160 0.931 . S
H133 C163 0.929 . S
H134 C167 0.932 . S
H135 C164 0.931 . S
H136 C166 0.929 . S
H137 C169 0.929 . S
H138 C170 0.930 . S
H139 C172 0.929 . S
H140 C173 0.931 . S
H141 C175 0.930 1_565 S
H142 C176 0.932 . S
H143 C178 0.931 . S
H144 C179 0.929 . S
H145 C181 0.929 . S
H146 C182 0.931 . S
H147 C184 0.929 . S
N148 C168 1.418 1_545 S
N148 C174 1.435 . S
N148 C180 1.423 . S
H149 C185 0.932 . S
C150 N125 1.418 1_565 S
C150 C151 1.360 1_565 S
C150 C155 1.389 . S
C151 H124 0.929 . S
C151 C150 1.360 1_545 S
C151 C152 1.385 1_545 S
C152 H126 0.930 . S
C152 C151 1.385 1_565 S
C152 C153 1.357 . S
C153 C152 1.357 . S
C153 C154 1.406 . S
C154 H128 0.929 . S
C154 C153 1.406 . S
C154 C155 1.391 . S
C155 H127 0.931 . S
C155 C150 1.389 . S
C155 C154 1.391 . S
C156 N125 1.435 . S
C156 C157 1.358 . S
C156 C161 1.371 . S
C157 H129 0.930 1_545 S
C157 C156 1.358 . S
C157 C158 1.405 1_554 S
C158 H130 0.932 . S
C158 C157 1.405 1_556 S
C158 C159 1.383 . S
C159 C158 1.383 . S
C159 C160 1.393 . S
C160 H132 0.931 . S
C160 C159 1.393 . S
C160 C161 1.382 1_556 S
C161 H131 0.929 . S
C161 C156 1.371 . S
C161 C160 1.382 1_554 S
C162 N125 1.423 . S
C162 C163 1.362 . S
C162 C167 1.388 . S
C163 H133 0.929 . S
C163 C162 1.362 . S
C163 C164 1.376 . S
C164 H135 0.931 . S
C164 C163 1.376 . S
C164 C165 1.396 . S
C165 C164 1.396 . S
C165 C166 1.348 . S
C165 C183 1.472 . S
C166 H136 0.929 . S
C166 C165 1.348 . S
C166 C167 1.443 . S
C167 H134 0.932 . S
C167 C162 1.388 . S
C167 C166 1.443 . S
C168 N148 1.418 1_565 S
C168 C169 1.360 1_565 S
C168 C173 1.389 . S
C169 H137 0.929 . S
C169 C168 1.360 1_545 S
C169 C170 1.385 1_545 S
C170 H138 0.930 . S
C170 C169 1.385 1_565 S
C170 C171 1.357 . S
C171 C170 1.357 . S
C171 C172 1.406 . S
C172 H139 0.929 . S
C172 C171 1.406 . S
C172 C173 1.391 . S
C173 H140 0.931 . S
C173 C168 1.389 . S
C173 C172 1.391 . S
C174 N148 1.435 . S
C174 C175 1.358 . S
C174 C179 1.371 . S
C175 H141 0.930 1_545 S
C175 C174 1.358 . S
C175 C176 1.405 1_554 S
C176 H142 0.932 . S
C176 C175 1.405 1_556 S
C176 C177 1.383 . S
C177 C176 1.383 . S
C177 C178 1.393 . S
C178 H143 0.931 . S
C178 C177 1.393 . S
C178 C179 1.382 1_556 S
C179 H144 0.929 . S
C179 C174 1.371 . S
C179 C178 1.382 1_554 S
C180 N148 1.423 . S
C180 C181 1.362 . S
C180 C185 1.388 . S
C181 H145 0.929 . S
C181 C180 1.362 . S
C181 C182 1.376 . S
C182 H146 0.931 . S
C182 C181 1.376 . S
C182 C183 1.396 . S
C183 C165 1.472 . S
C183 C182 1.396 . S
C183 C184 1.348 . S
C184 H147 0.929 . S
C184 C183 1.348 . S
C184 C185 1.443 . S
C185 H149 0.932 . S
C185 C180 1.388 . S
C185 C184 1.443 . S
H186 C213 0.929 . S
N187 C212 1.433 . S
N187 C218 1.435 . S
N187 C224 1.423 . S
H188 C214 0.930 . S
H189 C217 0.931 . S
H190 C216 0.929 . S
H191 C219 0.930 . S
H192 C220 0.932 . S
H193 C223 0.929 . S
H194 C222 0.931 . S
H195 C225 0.929 . S
H196 C229 0.932 . S
H197 C226 0.931 . S
H198 C228 0.929 . S
H199 C231 0.929 . S
H200 C232 0.930 . S
H201 C234 0.929 . S
H202 C235 0.931 . S
H203 C237 0.930 . S
H204 C238 0.932 1_565 S
H205 C240 0.931 . S
H206 C241 0.929 . S
H207 C243 0.929 . S
H208 C244 0.931 . S
H209 C246 0.929 . S
N210 C230 1.433 . S
N210 C236 1.435 . S
N210 C242 1.423 . S
H211 C247 0.932 . S
C212 N187 1.433 . S
C212 C213 1.363 . S
C212 C217 1.370 . S
C213 H186 0.929 . S
C213 C212 1.363 . S
C213 C214 1.385 . S
C214 H188 0.930 . S
C214 C213 1.385 . S
C214 C215 1.357 . S
C215 C214 1.357 . S
C215 C216 1.406 . S
C216 H190 0.929 . S
C216 C215 1.406 . S
C216 C217 1.391 . S
C217 H189 0.931 . S
C217 C212 1.370 . S
C217 C216 1.391 . S
C218 N187 1.435 . S
C218 C219 1.358 . S
C218 C223 1.371 . S
C219 H191 0.930 . S
C219 C218 1.358 . S
C219 C220 1.405 . S
C220 H192 0.932 . S
C220 C219 1.405 . S
C220 C221 1.383 . S
C221 C220 1.383 . S
C221 C222 1.393 . S
C222 H194 0.931 . S
C222 C221 1.393 . S
C222 C223 1.382 . S
C223 H193 0.929 . S
C223 C218 1.371 . S
C223 C222 1.382 . S
C224 N187 1.423 . S
C224 C225 1.362 . S
C224 C229 1.388 . S
C225 H195 0.929 . S
C225 C224 1.362 . S
C225 C226 1.376 . S
C226 H197 0.931 . S
C226 C225 1.376 . S
C226 C227 1.396 . S
C227 C226 1.396 . S
C227 C228 1.348 . S
C227 C245 1.472 . S
C228 H198 0.929 . S
C228 C227 1.348 . S
C228 C229 1.443 . S
C229 H196 0.932 . S
C229 C224 1.388 . S
C229 C228 1.443 . S
C230 N210 1.433 . S
C230 C231 1.363 . S
C230 C235 1.370 . S
C231 H199 0.929 . S
C231 C230 1.363 . S
C231 C232 1.385 . S
C232 H200 0.930 . S
C232 C231 1.385 . S
C232 C233 1.357 . S
C233 C232 1.357 . S
C233 C234 1.406 . S
C234 H201 0.929 . S
C234 C233 1.406 . S
C234 C235 1.391 . S
C235 H202 0.931 . S
C235 C230 1.370 . S
C235 C234 1.391 . S
C236 N210 1.435 . S
C236 C237 1.358 . S
C236 C241 1.371 . S
C237 H203 0.930 . S
C237 C236 1.358 . S
C237 C238 1.405 . S
C238 H204 0.932 1_545 S
C238 C237 1.405 . S
C238 C239 1.383 . S
C239 C238 1.383 . S
C239 C240 1.393 . S
C240 H205 0.931 . S
C240 C239 1.393 . S
C240 C241 1.382 . S
C241 H206 0.929 . S
C241 C236 1.371 . S
C241 C240 1.382 . S
C242 N210 1.423 . S
C242 C243 1.362 . S
C242 C247 1.388 . S
C243 H207 0.929 . S
C243 C242 1.362 . S
C243 C244 1.376 . S
C244 H208 0.931 . S
C244 C243 1.376 . S
C244 C245 1.396 . S
C245 C227 1.472 . S
C245 C244 1.396 . S
C245 C246 1.348 . S
C246 H209 0.929 . S
C246 C245 1.348 . S
C246 C247 1.443 . S
C247 H211 0.932 . S
C247 C242 1.388 . S
C247 C246 1.443 . S
H248 C275 0.929 . S
N249 C274 1.435 . S
N249 C280 1.437 . S
N249 C286 1.418 1_565 S
H250 C276 0.930 . S
H251 C279 0.931 . S
H252 C278 0.929 1_545 S
H253 C281 0.930 . S
H254 C282 0.932 . S
H255 C285 0.929 . S
H256 C284 0.931 . S
H257 C287 0.929 . S
H258 C291 0.932 . S
H259 C288 0.931 . S
H260 C290 0.929 . S
H261 C293 0.929 . S
H262 C294 0.930 . S
H263 C296 0.929 . S
H264 C297 0.931 . S
H265 C299 0.930 . S
H266 C300 0.932 . S
H267 C302 0.931 . S
H268 C303 0.929 . S
H269 C305 0.929 . S
H270 C306 0.931 . S
H271 C308 0.929 . S
N272 C292 1.433 . S
N272 C298 1.435 . S
N272 C304 1.423 . S
H273 C309 0.932 . S
C274 N249 1.435 . S
C274 C275 1.363 . S
C274 C279 1.370 1_565 S
C275 H248 0.929 . S
C275 C274 1.363 . S
C275 C276 1.385 . S
C276 H250 0.930 . S
C276 C275 1.385 . S
C276 C277 1.357 . S
C277 C276 1.357 . S
C277 C278 1.406 . S
C278 H252 0.929 1_565 S
C278 C277 1.406 . S
C278 C279 1.391 1_565 S
C279 H251 0.931 . S
C279 C274 1.370 1_545 S
C279 C278 1.391 1_545 S
C280 N249 1.437 . S
C280 C281 1.358 . S
C280 C285 1.371 . S
C281 H253 0.930 . S
C281 C280 1.358 . S
C281 C282 1.405 . S
C282 H254 0.932 . S
C282 C281 1.405 . S
C282 C283 1.383 . S
C283 C282 1.383 . S
C283 C284 1.393 . S
C284 H256 0.931 . S
C284 C283 1.393 . S
C284 C285 1.382 . S
C285 H255 0.929 . S
C285 C280 1.371 . S
C285 C284 1.382 . S
C286 N249 1.418 1_545 S
C286 C287 1.362 . S
C286 C291 1.388 . S
C287 H257 0.929 . S
C287 C286 1.362 . S
C287 C288 1.376 . S
C288 H259 0.931 . S
C288 C287 1.376 . S
C288 C289 1.396 . S
C289 C288 1.396 . S
C289 C290 1.348 . S
C289 C307 1.472 . S
C290 H260 0.929 . S
C290 C289 1.348 . S
C290 C291 1.443 . S
C291 H258 0.932 . S
C291 C286 1.388 . S
C291 C290 1.443 . S
C292 N272 1.433 . S
C292 C293 1.363 . S
C292 C297 1.370 . S
C293 H261 0.929 . S
C293 C292 1.363 . S
C293 C294 1.385 . S
C294 H262 0.930 . S
C294 C293 1.385 . S
C294 C295 1.357 . S
C295 C294 1.357 . S
C295 C296 1.406 . S
C296 H263 0.929 . S
C296 C295 1.406 . S
C296 C297 1.391 . S
C297 H264 0.931 . S
C297 C292 1.370 . S
C297 C296 1.391 . S
C298 N272 1.435 . S
C298 C299 1.358 . S
C298 C303 1.371 . S
C299 H265 0.930 . S
C299 C298 1.358 . S
C299 C300 1.405 . S
C300 H266 0.932 . S
C300 C299 1.405 . S
C300 C301 1.383 . S
C301 C300 1.383 . S
C301 C302 1.393 . S
C302 H267 0.931 . S
C302 C301 1.393 . S
C302 C303 1.382 . S
C303 H268 0.929 . S
C303 C298 1.371 . S
C303 C302 1.382 . S
C304 N272 1.423 . S
C304 C305 1.362 . S
C304 C309 1.388 . S
C305 H269 0.929 . S
C305 C304 1.362 . S
C305 C306 1.376 . S
C306 H270 0.931 . S
C306 C305 1.376 . S
C306 C307 1.396 . S
C307 C289 1.472 . S
C307 C306 1.396 . S
C307 C308 1.348 . S
C308 H271 0.929 . S
C308 C307 1.348 . S
C308 C309 1.443 . S
C309 H273 0.932 . S
C309 C304 1.388 . S
C309 C308 1.443 . S
H310 C337 0.929 . S
N311 C336 1.433 . S
N311 C342 1.435 . S
N311 C348 1.423 1_545 S
H312 C338 0.930 . S
H313 C341 0.931 1_565 S
H314 C340 0.929 . S
H315 C343 0.930 . S
H316 C344 0.932 . S
H317 C347 0.929 . S
H318 C346 0.931 . S
H319 C349 0.929 . S
H320 C353 0.932 . S
H321 C350 0.931 . S
H322 C352 0.929 . S
H323 C355 0.929 . S
H324 C356 0.930 . S
H325 C358 0.929 . S
H326 C359 0.931 . S
H327 C361 0.930 . S
H328 C362 0.932 . S
H329 C364 0.931 . S
H330 C365 0.929 . S
H331 C367 0.929 . S
H332 C368 0.931 . S
H333 C370 0.929 . S
N334 C354 1.433 . S
N334 C360 1.435 . S
N334 C366 1.423 . S
H335 C371 0.932 . S
C336 N311 1.433 . S
C336 C337 1.363 . S
C336 C341 1.370 . S
C337 H310 0.929 . S
C337 C336 1.363 . S
C337 C338 1.385 . S
C338 H312 0.930 . S
C338 C337 1.385 . S
C338 C339 1.357 . S
C339 C338 1.357 . S
C339 C340 1.406 . S
C340 H314 0.929 . S
C340 C339 1.406 . S
C340 C341 1.391 . S
C341 H313 0.931 1_545 S
C341 C336 1.370 . S
C341 C340 1.391 . S
C342 N311 1.435 . S
C342 C343 1.358 . S
C342 C347 1.371 . S
C343 H315 0.930 . S
C343 C342 1.358 . S
C343 C344 1.405 . S
C344 H316 0.932 . S
C344 C343 1.405 . S
C344 C345 1.383 . S
C345 C344 1.383 . S
C345 C346 1.393 . S
C346 H318 0.931 . S
C346 C345 1.393 . S
C346 C347 1.382 . S
C347 H317 0.929 . S
C347 C342 1.371 . S
C347 C346 1.382 . S
C348 N311 1.423 1_565 S
C348 C349 1.362 . S
C348 C353 1.388 . S
C349 H319 0.929 . S
C349 C348 1.362 . S
C349 C350 1.376 . S
C350 H321 0.931 . S
C350 C349 1.376 . S
C350 C351 1.396 . S
C351 C350 1.396 . S
C351 C352 1.348 . S
C351 C369 1.472 . S
C352 H322 0.929 . S
C352 C351 1.348 . S
C352 C353 1.443 . S
C353 H320 0.932 . S
C353 C348 1.388 . S
C353 C352 1.443 . S
C354 N334 1.433 . S
C354 C355 1.363 . S
C354 C359 1.370 . S
C355 H323 0.929 . S
C355 C354 1.363 . S
C355 C356 1.385 . S
C356 H324 0.930 . S
C356 C355 1.385 . S
C356 C357 1.357 . S
C357 C356 1.357 . S
C357 C358 1.406 . S
C358 H325 0.929 . S
C358 C357 1.406 . S
C358 C359 1.391 . S
C359 H326 0.931 . S
C359 C354 1.370 . S
C359 C358 1.391 . S
C360 N334 1.435 . S
C360 C361 1.358 . S
C360 C365 1.371 . S
C361 H327 0.930 . S
C361 C360 1.358 . S
C361 C362 1.405 . S
C362 H328 0.932 . S
C362 C361 1.405 . S
C362 C363 1.383 . S
C363 C362 1.383 . S
C363 C364 1.393 . S
C364 H329 0.931 . S
C364 C363 1.393 . S
C364 C365 1.382 . S
C365 H330 0.929 . S
C365 C360 1.371 . S
C365 C364 1.382 . S
C366 N334 1.423 . S
C366 C367 1.362 . S
C366 C371 1.388 . S
C367 H331 0.929 . S
C367 C366 1.362 . S
C367 C368 1.376 . S
C368 H332 0.931 . S
C368 C367 1.376 . S
C368 C369 1.396 . S
C369 C351 1.472 . S
C369 C368 1.396 . S
C369 C370 1.348 . S
C370 H333 0.929 . S
C370 C369 1.348 . S
C370 C371 1.443 . S
C371 H335 0.932 . S
C371 C366 1.388 . S
C371 C370 1.443 . S
H372 C399 0.935 . S
N373 C398 1.433 . S
N373 C404 1.435 . S
N373 C410 1.423 . S
H374 C400 0.930 . S
H375 C403 0.947 . S
H376 C402 0.929 . S
H377 C405 0.930 . S
H378 C406 0.932 . S
H379 C409 0.929 . S
H380 C408 0.931 . S
H381 C411 0.929 1_556 S
H382 C415 0.932 . S
H383 C412 0.931 1_556 S
H384 C414 0.929 . S
H385 C417 0.937 . S
H386 C418 0.930 . S
H387 C420 0.929 . S
H388 C421 0.945 . S
H389 C423 0.930 . S
H390 C424 0.932 . S
H391 C426 0.931 . S
H392 C427 0.929 . S
H393 C429 0.929 1_556 S
H394 C430 0.931 1_556 S
H395 C432 0.929 . S
N396 C416 1.433 . S
N396 C422 1.435 . S
N396 C428 1.423 . S
H397 C433 0.932 . S
C398 N373 1.433 . S
C398 C399 1.363 1_554 S
C398 C403 1.378 . S
C399 H372 0.935 . S
C399 C398 1.363 1_556 S
C399 C400 1.385 . S
C400 H374 0.930 . S
C400 C399 1.385 . S
C400 C401 1.357 . S
C401 C400 1.357 . S
C401 C402 1.406 . S
C402 H376 0.929 . S
C402 C401 1.406 . S
C402 C403 1.368 1_556 S
C403 H375 0.947 . S
C403 C398 1.378 . S
C403 C402 1.368 1_554 S
C404 N373 1.435 . S
C404 C405 1.358 . S
C404 C409 1.371 . S
C405 H377 0.930 . S
C405 C404 1.358 . S
C405 C406 1.405 . S
C406 H378 0.932 . S
C406 C405 1.405 . S
C406 C407 1.383 . S
C407 C406 1.383 . S
C407 C408 1.393 . S
C408 H380 0.931 . S
C408 C407 1.393 . S
C408 C409 1.382 . S
C409 H379 0.929 . S
C409 C404 1.371 . S
C409 C408 1.382 . S
C410 N373 1.423 . S
C410 C411 1.362 . S
C410 C415 1.388 . S
C411 H381 0.929 1_554 S
C411 C410 1.362 . S
C411 C412 1.376 . S
C412 H383 0.931 1_554 S
C412 C411 1.376 . S
C412 C413 1.396 . S
C413 C412 1.396 . S
C413 C414 1.348 . S
C413 C431 1.472 . S
C414 H384 0.929 . S
C414 C413 1.348 . S
C414 C415 1.443 . S
C415 H382 0.932 . S
C415 C410 1.388 . S
C415 C414 1.443 . S
C416 N396 1.433 . S
C416 C417 1.363 1_554 S
C416 C421 1.377 . S
C417 H385 0.937 . S
C417 C416 1.363 1_556 S
C417 C418 1.385 . S
C418 H386 0.930 . S
C418 C417 1.385 . S
C418 C419 1.357 . S
C419 C418 1.357 . S
C419 C420 1.406 . S
C420 H387 0.929 . S
C420 C419 1.406 . S
C420 C421 1.372 1_556 S
C421 H388 0.945 . S
C421 C416 1.377 . S
C421 C420 1.372 1_554 S
C422 N396 1.435 . S
C422 C423 1.358 . S
C422 C427 1.371 . S
C423 H389 0.930 . S
C423 C422 1.358 . S
C423 C424 1.405 . S
C424 H390 0.932 . S
C424 C423 1.405 . S
C424 C425 1.383 . S
C425 C424 1.383 . S
C425 C426 1.393 . S
C426 H391 0.931 . S
C426 C425 1.393 . S
C426 C427 1.382 . S
C427 H392 0.929 . S
C427 C422 1.371 . S
C427 C426 1.382 . S
C428 N396 1.423 . S
C428 C429 1.362 . S
C428 C433 1.388 . S
C429 H393 0.929 1_554 S
C429 C428 1.362 . S
C429 C430 1.376 . S
C430 H394 0.931 1_554 S
C430 C429 1.376 . S
C430 C431 1.396 . S
C431 C413 1.472 . S
C431 C430 1.396 . S
C431 C432 1.348 . S
C432 H395 0.929 . S
C432 C431 1.348 . S
C432 C433 1.443 . S
C433 H397 0.932 . S
C433 C428 1.388 . S
C433 C432 1.443 . S
H434 C461 0.929 . S
N435 C460 1.433 . S
N435 C466 1.435 . S
N435 C472 1.423 . S
H436 C462 0.930 . S
H437 C465 0.931 . S
H438 C464 0.929 . S
H439 C467 0.930 . S
H440 C468 0.932 . S
H441 C471 0.929 . S
H442 C470 0.931 . S
H443 C473 0.929 . S
H444 C477 0.932 . S
H445 C474 0.931 . S
H446 C476 0.929 . S
H447 C479 0.929 . S
H448 C480 0.930 . S
H449 C482 0.929 . S
H450 C483 0.931 1_455 S
H451 C485 0.930 . S
H452 C486 0.932 . S
H453 C488 0.931 . S
H454 C489 0.929 . S
H455 C491 0.929 . S
H456 C492 0.931 . S
H457 C494 0.929 . S
N458 C478 1.433 . S
N458 C484 1.435 . S
N458 C490 1.423 1_655 S
H459 C495 0.932 . S
C460 N435 1.433 . S
C460 C461 1.363 . S
C460 C465 1.370 . S
C461 H434 0.929 . S
C461 C460 1.363 . S
C461 C462 1.385 . S
C462 H436 0.930 . S
C462 C461 1.385 . S
C462 C463 1.357 . S
C463 C462 1.357 . S
C463 C464 1.406 . S
C464 H438 0.929 . S
C464 C463 1.406 . S
C464 C465 1.391 . S
C465 H437 0.931 . S
C465 C460 1.370 . S
C465 C464 1.391 . S
C466 N435 1.435 . S
C466 C467 1.358 . S
C466 C471 1.371 . S
C467 H439 0.930 . S
C467 C466 1.358 . S
C467 C468 1.405 . S
C468 H440 0.932 . S
C468 C467 1.405 . S
C468 C469 1.383 . S
C469 C468 1.383 . S
C469 C470 1.393 . S
C470 H442 0.931 . S
C470 C469 1.393 . S
C470 C471 1.382 . S
C471 H441 0.929 . S
C471 C466 1.371 . S
C471 C470 1.382 . S
C472 N435 1.423 . S
C472 C473 1.362 . S
C472 C477 1.388 . S
C473 H443 0.929 . S
C473 C472 1.362 . S
C473 C474 1.376 . S
C474 H445 0.931 . S
C474 C473 1.376 . S
C474 C475 1.396 . S
C475 C474 1.396 . S
C475 C476 1.348 . S
C475 C493 1.472 . S
C476 H446 0.929 . S
C476 C475 1.348 . S
C476 C477 1.443 . S
C477 H444 0.932 . S
C477 C472 1.388 . S
C477 C476 1.443 . S
C478 N458 1.433 . S
C478 C479 1.363 . S
C478 C483 1.370 . S
C479 H447 0.929 . S
C479 C478 1.363 . S
C479 C480 1.385 . S
C480 H448 0.930 . S
C480 C479 1.385 . S
C480 C481 1.357 . S
C481 C480 1.357 . S
C481 C482 1.406 . S
C482 H449 0.929 . S
C482 C481 1.406 . S
C482 C483 1.391 . S
C483 H450 0.931 1_655 S
C483 C478 1.370 . S
C483 C482 1.391 . S
C484 N458 1.435 . S
C484 C485 1.358 . S
C484 C489 1.371 . S
C485 H451 0.930 . S
C485 C484 1.358 . S
C485 C486 1.405 . S
C486 H452 0.932 . S
C486 C485 1.405 . S
C486 C487 1.383 . S
C487 C486 1.383 . S
C487 C488 1.393 . S
C488 H453 0.931 . S
C488 C487 1.393 . S
C488 C489 1.382 . S
C489 H454 0.929 . S
C489 C484 1.371 . S
C489 C488 1.382 . S
C490 N458 1.423 1_455 S
C490 C491 1.362 . S
C490 C495 1.388 . S
C491 H455 0.929 . S
C491 C490 1.362 . S
C491 C492 1.376 . S
C492 H456 0.931 . S
C492 C491 1.376 . S
C492 C493 1.396 . S
C493 C475 1.472 . S
C493 C492 1.396 . S
C493 C494 1.348 . S
C494 H457 0.929 . S
C494 C493 1.348 . S
C494 C495 1.443 . S
C495 H459 0.932 . S
C495 C490 1.388 . S
C495 C494 1.443 . S
C496 O523 1.312 . S
C496 O524 1.208 . S
C497 O518 1.331 1_655 S
C497 O521 1.244 . S
C498 O520 1.264 1_655 S
C498 O522 1.273 . S
Mg499 O501 1.936 . S
Mg499 O508 2.081 . S
Mg499 O510 2.023 . S
Mg499 O514 2.031 . S
Mg499 O523 2.291 . S
Mg500 O501 1.963 . S
Mg500 O511 1.942 . S
Mg500 O512 1.955 . S
Mg500 O519 1.986 . S
O501 Mg499 1.936 . S
O501 Mg500 1.963 . S
O501 Mg502 1.915 . S
Mg502 O501 1.915 . S
Mg502 O503 1.915 . S
Mg502 O507 2.013 . S
Mg502 O513 2.114 . S
Mg502 O517 2.013 . S
Mg502 O523 2.114 . S
O503 Mg502 1.915 . S
O503 Mg504 1.936 . S
O503 Mg505 1.963 1_455 S
Mg504 O503 1.936 . S
Mg504 O513 2.291 . S
Mg504 O518 2.081 . S
Mg504 O520 2.023 . S
Mg504 O524 2.031 . S
Mg505 O503 1.963 1_655 S
Mg505 O509 1.986 . S
Mg505 O521 1.942 . S
Mg505 O522 1.955 . S
C506 O517 1.191 . S
C506 O519 1.307 . S
O507 Mg502 2.013 . S
O507 C526 1.191 . S
O508 Mg499 2.081 . S
O508 C516 1.331 . S
O509 Mg505 1.986 . S
O509 C526 1.307 1_655 S
O510 Mg499 2.023 . S
O510 C525 1.264 . S
O511 Mg500 1.942 . S
O511 C516 1.244 . S
O512 Mg500 1.955 . S
O512 C525 1.273 . S
O513 Mg502 2.114 . S
O513 Mg504 2.291 . S
O513 C515 1.312 . S
O514 Mg499 2.031 . S
O514 C515 1.208 . S
C515 O513 1.312 . S
C515 O514 1.208 . S
C516 O508 1.331 . S
C516 O511 1.244 . S
O517 Mg502 2.013 . S
O517 C506 1.191 . S
O518 C497 1.331 1_455 S
O518 Mg504 2.081 . S
O519 Mg500 1.986 . S
O519 C506 1.307 . S
O520 C498 1.264 1_455 S
O520 Mg504 2.023 . S
O521 C497 1.244 . S
O521 Mg505 1.942 . S
O522 C498 1.273 . S
O522 Mg505 1.955 . S
O523 C496 1.312 . S
O523 Mg499 2.291 . S
O523 Mg502 2.114 . S
O524 C496 1.208 . S
O524 Mg504 2.031 . S
C525 O510 1.264 . S
C525 O512 1.273 . S
C526 O507 1.191 . S
C526 O509 1.307 1_455 S
C527 O554 1.312 . S
C527 O555 1.208 . S
C528 O549 1.331 . S
C528 O552 1.244 . S
C529 O551 1.264 . S
C529 O553 1.273 . S
Mg530 O532 1.936 . S
Mg530 O539 2.081 . S
Mg530 O541 2.023 . S
Mg530 O545 2.031 . S
Mg530 O554 2.291 . S
Mg531 O532 1.963 . S
Mg531 O542 1.942 . S
Mg531 O543 1.955 . S
Mg531 O550 1.986 . S
O532 Mg530 1.936 . S
O532 Mg531 1.963 . S
O532 Mg533 1.915 . S
Mg533 O532 1.915 . S
Mg533 O534 1.915 . S
Mg533 O538 2.013 . S
Mg533 O544 2.114 . S
Mg533 O548 2.013 . S
Mg533 O554 2.114 . S
O534 Mg533 1.915 . S
O534 Mg535 1.936 . S
O534 Mg536 1.963 . S
Mg535 O534 1.936 . S
Mg535 O544 2.291 . S
Mg535 O549 2.081 . S
Mg535 O551 2.023 . S
Mg535 O555 2.031 . S
Mg536 O534 1.963 . S
Mg536 O540 1.986 . S
Mg536 O552 1.942 . S
Mg536 O553 1.955 . S
C537 O548 1.191 . S
C537 O550 1.307 . S
O538 Mg533 2.013 . S
O538 C557 1.191 . S
O539 Mg530 2.081 . S
O539 C547 1.331 . S
O540 Mg536 1.986 . S
O540 C557 1.307 . S
O541 Mg530 2.023 . S
O541 C556 1.264 . S
O542 Mg531 1.942 . S
O542 C547 1.244 . S
O543 Mg531 1.955 . S
O543 C556 1.273 . S
O544 Mg533 2.114 . S
O544 Mg535 2.291 . S
O544 C546 1.312 . S
O545 Mg530 2.031 . S
O545 C546 1.208 . S
C546 O544 1.312 . S
C546 O545 1.208 . S
C547 O539 1.331 . S
C547 O542 1.244 . S
O548 Mg533 2.013 . S
O548 C537 1.191 . S
O549 C528 1.331 . S
O549 Mg535 2.081 . S
O550 Mg531 1.986 . S
O550 C537 1.307 . S
O551 C529 1.264 . S
O551 Mg535 2.023 . S
O552 C528 1.244 . S
O552 Mg536 1.942 . S
O553 C529 1.273 . S
O553 Mg536 1.955 . S
O554 C527 1.312 . S
O554 Mg530 2.291 . S
O554 Mg533 2.114 . S
O555 C527 1.208 . S
O555 Mg535 2.031 . S
C556 O541 1.264 . S
C556 O543 1.273 . S
C557 O538 1.191 . S
C557 O540 1.307 . S
C558 O585 1.312 . S
C558 O586 1.208 . S
C559 O580 1.331 . S
C559 O583 1.244 . S
C560 O582 1.264 . S
C560 O584 1.273 . S
Mg561 O563 1.936 . S
Mg561 O570 2.081 . S
Mg561 O572 2.023 . S
Mg561 O576 2.031 . S
Mg561 O585 2.291 . S
Mg562 O563 1.963 . S
Mg562 O573 1.942 . S
Mg562 O574 1.955 . S
Mg562 O581 1.986 . S
O563 Mg561 1.936 . S
O563 Mg562 1.963 . S
O563 Mg564 1.915 . S
Mg564 O563 1.915 . S
Mg564 O565 1.915 . S
Mg564 O569 2.013 . S
Mg564 O575 2.114 . S
Mg564 O579 2.013 . S
Mg564 O585 2.114 . S
O565 Mg564 1.915 . S
O565 Mg566 1.936 . S
O565 Mg567 1.963 . S
Mg566 O565 1.936 . S
Mg566 O575 2.291 . S
Mg566 O580 2.081 . S
Mg566 O582 2.023 . S
Mg566 O586 2.031 . S
Mg567 O565 1.963 . S
Mg567 O571 1.986 . S
Mg567 O583 1.942 . S
Mg567 O584 1.955 . S
C568 O579 1.191 . S
C568 O581 1.307 . S
O569 Mg564 2.013 . S
O569 C588 1.191 . S
O570 Mg561 2.081 . S
O570 C578 1.331 . S
O571 Mg567 1.986 . S
O571 C588 1.307 . S
O572 Mg561 2.023 . S
O572 C587 1.264 . S
O573 Mg562 1.942 . S
O573 C578 1.244 . S
O574 Mg562 1.955 . S
O574 C587 1.273 . S
O575 Mg564 2.114 . S
O575 Mg566 2.291 . S
O575 C577 1.312 . S
O576 Mg561 2.031 . S
O576 C577 1.208 . S
C577 O575 1.312 . S
C577 O576 1.208 . S
C578 O570 1.331 . S
C578 O573 1.244 . S
O579 Mg564 2.013 . S
O579 C568 1.191 . S
O580 C559 1.331 . S
O580 Mg566 2.081 . S
O581 Mg562 1.986 . S
O581 C568 1.307 . S
O582 C560 1.264 . S
O582 Mg566 2.023 . S
O583 C559 1.244 . S
O583 Mg567 1.942 . S
O584 C560 1.273 . S
O584 Mg567 1.955 . S
O585 C558 1.312 . S
O585 Mg561 2.291 . S
O585 Mg564 2.114 . S
O586 C558 1.208 . S
O586 Mg566 2.031 . S
C587 O572 1.264 . S
C587 O574 1.273 . S
C588 O569 1.191 . S
C588 O571 1.307 . S
C589 O616 1.312 . S
C589 O617 1.208 . S
C590 O611 1.331 . S
C590 O614 1.244 . S
C591 O613 1.264 . S
C591 O615 1.273 . S
Mg592 O594 1.936 . S
Mg592 O601 2.081 . S
Mg592 O603 2.023 . S
Mg592 O607 2.031 . S
Mg592 O616 2.291 . S
Mg593 O594 1.963 1_655 S
Mg593 O604 1.942 . S
Mg593 O605 1.955 . S
Mg593 O612 1.986 . S
O594 Mg592 1.936 . S
O594 Mg593 1.963 1_455 S
O594 Mg595 1.915 . S
Mg595 O594 1.915 . S
Mg595 O596 1.915 . S
Mg595 O600 2.013 . S
Mg595 O606 2.114 . S
Mg595 O610 2.013 . S
Mg595 O616 2.114 . S
O596 Mg595 1.915 . S
O596 Mg597 1.936 . S
O596 Mg598 1.963 . S
Mg597 O596 1.936 . S
Mg597 O606 2.291 . S
Mg597 O611 2.081 . S
Mg597 O613 2.023 . S
Mg597 O617 2.031 . S
Mg598 O596 1.963 . S
Mg598 O602 1.986 . S
Mg598 O614 1.942 . S
Mg598 O615 1.955 . S
C599 O610 1.191 . S
C599 O612 1.307 1_455 S
O600 Mg595 2.013 . S
O600 C619 1.191 . S
O601 Mg592 2.081 . S
O601 C609 1.331 1_455 S
O602 Mg598 1.986 . S
O602 C619 1.307 . S
O603 Mg592 2.023 . S
O603 C618 1.264 1_455 S
O604 Mg593 1.942 . S
O604 C609 1.244 . S
O605 Mg593 1.955 . S
O605 C618 1.273 . S
O606 Mg595 2.114 . S
O606 Mg597 2.291 . S
O606 C608 1.312 . S
O607 Mg592 2.031 . S
O607 C608 1.208 . S
C608 O606 1.312 . S
C608 O607 1.208 . S
C609 O601 1.331 1_655 S
C609 O604 1.244 . S
O610 Mg595 2.013 . S
O610 C599 1.191 . S
O611 C590 1.331 . S
O611 Mg597 2.081 . S
O612 Mg593 1.986 . S
O612 C599 1.307 1_655 S
O613 C591 1.264 . S
O613 Mg597 2.023 . S
O614 C590 1.244 . S
O614 Mg598 1.942 . S
O615 C591 1.273 . S
O615 Mg598 1.955 . S
O616 C589 1.312 . S
O616 Mg592 2.291 . S
O616 Mg595 2.114 . S
O617 C589 1.208 . S
O617 Mg597 2.031 . S
C618 O603 1.264 1_655 S
C618 O605 1.273 . S
C619 O600 1.191 . S
C619 O602 1.307 . S
C620 C621 1.363 . S
C620 C626 1.379 . S
C620 N628 1.356 . S
C621 C620 1.363 . S
C621 C627 1.363 . S
C622 C623 1.363 . S
C622 C627 1.379 . S
C622 N629 1.356 . S
C623 C622 1.363 . S
C623 C626 1.363 . S
N624 C626 1.356 . S
N624 H636 0.984 . S
N624 H637 0.985 . S
N625 C627 1.356 . S
N625 H630 0.984 . S
N625 H631 0.985 . S
C626 C620 1.379 . S
C626 C623 1.363 . S
C626 N624 1.356 . S
C627 C621 1.363 . S
C627 C622 1.379 . S
C627 N625 1.356 . S
N628 C620 1.356 . S
N628 H634 0.984 . S
N628 H635 0.984 . S
N629 C622 1.356 . S
N629 H632 0.984 . S
N629 H633 0.985 . S
H630 N625 0.984 . S
H631 N625 0.985 . S
H632 N629 0.984 . S
H633 N629 0.985 . S
H634 N628 0.984 . S
H635 N628 0.984 . S
H636 N624 0.984 . S
H637 N624 0.985 . S
C638 C639 1.363 . S
C638 C644 1.379 . S
C638 N646 1.356 . S
C639 C638 1.363 . S
C639 C645 1.363 . S
C640 C641 1.363 . S
C640 C645 1.379 . S
C640 N647 1.356 . S
C641 C640 1.363 . S
C641 C644 1.363 . S
N642 C644 1.356 . S
N642 H654 0.984 . S
N642 H655 0.985 . S
N643 C645 1.356 1_565 S
N643 H648 0.984 . S
N643 H649 0.985 . S
C644 C638 1.379 . S
C644 C641 1.363 . S
C644 N642 1.356 . S
C645 C639 1.363 . S
C645 C640 1.379 . S
C645 N643 1.356 1_545 S
N646 C638 1.356 . S
N646 H652 0.984 . S
N646 H653 0.984 . S
N647 C640 1.356 . S
N647 H650 0.984 . S
N647 H651 0.985 . S
H648 N643 0.984 . S
H649 N643 0.985 . S
H650 N647 0.984 . S
H651 N647 0.985 . S
H652 N646 0.984 . S
H653 N646 0.984 . S
H654 N642 0.984 . S
H655 N642 0.985 . S
C656 C657 1.363 . S
C656 C662 1.379 . S
C656 N664 1.356 . S
C657 C656 1.363 . S
C657 C663 1.363 . S
C658 C659 1.363 . S
C658 C663 1.379 . S
C658 N665 1.356 . S
C659 C658 1.363 . S
C659 C662 1.363 . S
N660 C662 1.356 . S
N660 H672 0.984 . S
N660 H673 0.985 . S
N661 C663 1.356 . S
N661 H666 0.984 . S
N661 H667 0.985 . S
C662 C656 1.379 . S
C662 C659 1.363 . S
C662 N660 1.356 . S
C663 C657 1.363 . S
C663 C658 1.379 . S
C663 N661 1.356 . S
N664 C656 1.356 . S
N664 H670 0.984 1_556 S
N664 H671 0.984 1_556 S
N665 C658 1.356 . S
N665 H668 0.984 . S
N665 H669 0.985 . S
H666 N661 0.984 . S
H667 N661 0.985 . S
H668 N665 0.984 . S
H669 N665 0.985 . S
H670 N664 0.984 1_554 S
H671 N664 0.984 1_554 S
H672 N660 0.984 . S
H673 N660 0.985 . S
C674 C675 1.363 . S
C674 C680 1.379 . S
C674 N682 1.356 . S
C675 C674 1.363 . S
C675 C681 1.363 . S
C676 C677 1.363 . S
C676 C681 1.379 . S
C676 N683 1.356 . S
C677 C676 1.363 . S
C677 C680 1.363 . S
N678 C680 1.356 . S
N678 H690 0.984 . S
N678 H691 0.985 . S
N679 C681 1.356 1_545 S
N679 H684 0.984 . S
N679 H685 0.985 . S
C680 C674 1.379 . S
C680 C677 1.363 . S
C680 N678 1.356 . S
C681 C675 1.363 . S
C681 C676 1.379 . S
C681 N679 1.356 1_565 S
N682 C674 1.356 . S
N682 H688 0.984 . S
N682 H689 0.984 . S
N683 C676 1.356 . S
N683 H686 0.984 . S
N683 H687 0.985 . S
H684 N679 0.984 . S
H685 N679 0.985 . S
H686 N683 0.984 . S
H687 N683 0.985 . S
H688 N682 0.984 . S
H689 N682 0.984 . S
H690 N678 0.984 . S
H691 N678 0.985 . S
C692 C693 1.363 . S
C692 C698 1.379 . S
C692 N700 1.356 . S
C693 C692 1.363 . S
C693 C699 1.363 . S
C694 C695 1.363 . S
C694 C699 1.379 . S
C694 N701 1.356 . S
C695 C694 1.363 . S
C695 C698 1.363 . S
N696 C698 1.356 . S
N696 H708 0.984 . S
N696 H709 0.985 . S
N697 C699 1.356 . S
N697 H702 0.984 . S
N697 H703 0.985 . S
C698 C692 1.379 . S
C698 C695 1.363 . S
C698 N696 1.356 . S
C699 C693 1.363 . S
C699 C694 1.379 . S
C699 N697 1.356 . S
N700 C692 1.356 . S
N700 H706 0.984 . S
N700 H707 0.984 . S
N701 C694 1.356 . S
N701 H704 0.984 . S
N701 H705 0.985 . S
H702 N697 0.984 . S
H703 N697 0.985 . S
H704 N701 0.984 . S
H705 N701 0.985 . S
H706 N700 0.984 . S
H707 N700 0.984 . S
H708 N696 0.984 . S
H709 N696 0.985 . S
C710 C711 1.363 1_545 S
C710 C716 1.379 . S
C710 N718 1.356 . S
C711 C710 1.363 1_565 S
C711 C717 1.363 . S
C712 C713 1.363 . S
C712 C717 1.379 1_545 S
C712 N719 1.356 . S
C713 C712 1.363 . S
C713 C716 1.363 . S
N714 C716 1.356 . S
N714 H726 0.984 . S
N714 H727 0.985 . S
N715 C717 1.356 . S
N715 H720 0.984 . S
N715 H721 0.985 . S
C716 C710 1.379 . S
C716 C713 1.363 . S
C716 N714 1.356 . S
C717 C711 1.363 . S
C717 C712 1.379 1_565 S
C717 N715 1.356 . S
N718 C710 1.356 . S
N718 H724 0.984 . S
N718 H725 0.984 1_545 S
N719 C712 1.356 . S
N719 H722 0.984 . S
N719 H723 0.985 . S
H720 N715 0.984 . S
H721 N715 0.985 . S
H722 N719 0.984 . S
H723 N719 0.985 . S
H724 N718 0.984 . S
H725 N718 0.984 1_565 S
H726 N714 0.984 . S
H727 N714 0.985 . S
C728 C729 1.363 . S
C728 C734 1.379 . S
C728 N736 1.356 . S
C729 C728 1.363 . S
C729 C735 1.363 . S
C730 C731 1.363 . S
C730 C735 1.379 . S
C730 N737 1.356 . S
C731 C730 1.363 . S
C731 C734 1.363 . S
N732 C734 1.356 . S
N732 H744 0.984 . S
N732 H745 0.985 . S
N733 C735 1.356 . S
N733 H738 0.984 . S
N733 H739 0.985 . S
C734 C728 1.379 . S
C734 C731 1.363 . S
C734 N732 1.356 . S
C735 C729 1.363 . S
C735 C730 1.379 . S
C735 N733 1.356 . S
N736 C728 1.356 . S
N736 H742 0.984 . S
N736 H743 0.984 . S
N737 C730 1.356 . S
N737 H740 0.984 . S
N737 H741 0.985 . S
H738 N733 0.984 . S
H739 N733 0.985 . S
H740 N737 0.984 . S
H741 N737 0.985 . S
H742 N736 0.984 . S
H743 N736 0.984 . S
H744 N732 0.984 . S
H745 N732 0.985 . S
C746 C747 1.363 . S
C746 C752 1.379 1_545 S
C746 N754 1.356 . S
C747 C746 1.363 . S
C747 C753 1.363 1_545 S
C748 C749 1.363 . S
C748 C753 1.379 . S
C748 N755 1.356 . S
C749 C748 1.363 . S
C749 C752 1.363 . S
N750 C752 1.356 . S
N750 H762 0.984 . S
N750 H763 0.985 . S
N751 C753 1.356 . S
N751 H756 0.984 1_565 S
N751 H757 0.985 . S
C752 C746 1.379 1_565 S
C752 C749 1.363 . S
C752 N750 1.356 . S
C753 C747 1.363 1_565 S
C753 C748 1.379 . S
C753 N751 1.356 . S
N754 C746 1.356 . S
N754 H760 0.984 . S
N754 H761 0.984 . S
N755 C748 1.356 . S
N755 H758 0.984 . S
N755 H759 0.985 . S
H756 N751 0.984 1_545 S
H757 N751 0.985 . S
H758 N755 0.984 . S
H759 N755 0.985 . S
H760 N754 0.984 . S
H761 N754 0.984 . S
H762 N750 0.984 . S
H763 N750 0.985 . S
C764 C765 1.363 . S
C764 C770 1.379 . S
C764 N772 1.356 . S
C765 C764 1.363 . S
C765 C771 1.363 . S
C766 C767 1.363 . S
C766 C771 1.379 . S
C766 N773 1.356 . S
C767 C766 1.363 . S
C767 C770 1.363 . S
N768 C770 1.356 . S
N768 H780 0.984 . S
N768 H781 0.985 . S
N769 C771 1.356 . S
N769 H774 0.984 . S
N769 H775 0.985 . S
C770 C764 1.379 . S
C770 C767 1.363 . S
C770 N768 1.356 . S
C771 C765 1.363 . S
C771 C766 1.379 . S
C771 N769 1.356 . S
N772 C764 1.356 . S
N772 H778 0.984 . S
N772 H779 0.984 . S
N773 C766 1.356 . S
N773 H776 0.984 . S
N773 H777 0.985 . S
H774 N769 0.984 . S
H775 N769 0.985 . S
H776 N773 0.984 . S
H777 N773 0.985 . S
H778 N772 0.984 . S
H779 N772 0.984 . S
H780 N768 0.984 . S
H781 N768 0.985 . S
C782 C783 1.363 . S
C782 C788 1.379 . S
C782 N790 1.356 . S
C783 C782 1.363 . S
C783 C789 1.363 . S
C784 C785 1.363 . S
C784 C789 1.379 . S
C784 N791 1.356 . S
C785 C784 1.363 . S
C785 C788 1.363 . S
N786 C788 1.356 . S
N786 H798 0.984 . S
N786 H799 0.985 . S
N787 C789 1.356 . S
N787 H792 0.984 . S
N787 H793 0.985 . S
C788 C782 1.379 . S
C788 C785 1.363 . S
C788 N786 1.356 . S
C789 C783 1.363 . S
C789 C784 1.379 . S
C789 N787 1.356 . S
N790 C782 1.356 . S
N790 H796 0.984 1_565 S
N790 H797 0.984 . S
N791 C784 1.356 . S
N791 H794 0.984 . S
N791 H795 0.985 . S
H792 N787 0.984 . S
H793 N787 0.985 . S
H794 N791 0.984 . S
H795 N791 0.985 . S
H796 N790 0.984 1_545 S
H797 N790 0.984 . S
H798 N786 0.984 . S
H799 N786 0.985 . S
C800 C801 1.363 . S
C800 C806 1.379 . S
C800 N808 1.356 . S
C801 C800 1.363 . S
C801 C807 1.363 . S
C802 C803 1.363 . S
C802 C807 1.379 1_455 S
C802 N809 1.356 . S
C803 C802 1.363 . S
C803 C806 1.363 1_455 S
N804 C806 1.356 . S
N804 H816 0.984 . S
N804 H817 0.985 1_655 S
N805 C807 1.356 . S
N805 H810 0.984 . S
N805 H811 0.985 1_565 S
C806 C800 1.379 . S
C806 C803 1.363 1_655 S
C806 N804 1.356 . S
C807 C801 1.363 . S
C807 C802 1.379 1_655 S
C807 N805 1.356 . S
N808 C800 1.356 . S
N808 H814 0.984 . S
N808 H815 0.984 . S
N809 C802 1.356 . S
N809 H812 0.984 . S
N809 H813 0.985 . S
H810 N805 0.984 . S
H811 N805 0.985 1_545 S
H812 N809 0.984 . S
H813 N809 0.985 . S
H814 N808 0.984 . S
H815 N808 0.984 . S
H816 N804 0.984 . S
H817 N804 0.985 1_455 S
C818 C819 1.363 . S
C818 C824 1.379 . S
C818 N826 1.356 . S
C819 C818 1.363 . S
C819 C825 1.363 . S
C820 C821 1.363 . S
C820 C825 1.379 1_455 S
C820 N827 1.356 . S
C821 C820 1.363 . S
C821 C824 1.363 1_455 S
N822 C824 1.356 . S
N822 H834 0.984 . S
N822 H835 0.985 . S
N823 C825 1.356 1_455 S
N823 H828 0.984 1_455 S
N823 H829 0.985 . S
C824 C818 1.379 . S
C824 C821 1.363 1_655 S
C824 N822 1.356 . S
C825 C819 1.363 . S
C825 C820 1.379 1_655 S
C825 N823 1.356 1_655 S
N826 C818 1.356 . S
N826 H832 0.984 . S
N826 H833 0.984 . S
N827 C820 1.356 . S
N827 H830 0.984 . S
N827 H831 0.985 . S
H828 N823 0.984 1_655 S
H829 N823 0.985 . S
H830 N827 0.984 . S
H831 N827 0.985 . S
H832 N826 0.984 . S
H833 N826 0.984 . S
H834 N822 0.984 . S
H835 N822 0.985 . S
C836 C837 1.363 . S
C836 C842 1.379 . S
C836 N844 1.356 . S
C837 C836 1.363 . S
C837 C843 1.363 . S
C838 C839 1.363 . S
C838 C843 1.379 . S
C838 N845 1.356 . S
C839 C838 1.363 . S
C839 C842 1.363 . S
N840 C842 1.356 . S
N840 H852 0.984 . S
N840 H853 0.985 . S
N841 C843 1.356 . S
N841 H846 0.984 . S
N841 H847 0.985 . S
C842 C836 1.379 . S
C842 C839 1.363 . S
C842 N840 1.356 . S
C843 C837 1.363 . S
C843 C838 1.379 . S
C843 N841 1.356 . S
N844 C836 1.356 . S
N844 H850 0.984 . S
N844 H851 0.984 . S
N845 C838 1.356 . S
N845 H848 0.984 . S
N845 H849 0.985 . S
H846 N841 0.984 . S
H847 N841 0.985 . S
H848 N845 0.984 . S
H849 N845 0.985 . S
H850 N844 0.984 . S
H851 N844 0.984 . S
H852 N840 0.984 . S
H853 N840 0.985 . S
C854 C855 1.363 . S
C854 C860 1.379 1_655 S
C854 N862 1.356 . S
C855 C854 1.363 . S
C855 C861 1.363 . S
C856 C857 1.363 . S
C856 C861 1.379 . S
C856 N863 1.356 . S
C857 C856 1.363 . S
C857 C860 1.363 1_655 S
N858 C860 1.356 . S
N858 H870 0.984 . S
N858 H871 0.985 . S
N859 C861 1.356 . S
N859 H864 0.984 . S
N859 H865 0.985 . S
C860 C854 1.379 1_455 S
C860 C857 1.363 1_455 S
C860 N858 1.356 . S
C861 C855 1.363 . S
C861 C856 1.379 . S
C861 N859 1.356 . S
N862 C854 1.356 . S
N862 H868 0.984 1_655 S
N862 H869 0.984 . S
N863 C856 1.356 . S
N863 H866 0.984 . S
N863 H867 0.985 . S
H864 N859 0.984 . S
H865 N859 0.985 . S
H866 N863 0.984 . S
H867 N863 0.985 . S
H868 N862 0.984 1_455 S
H869 N862 0.984 . S
H870 N858 0.984 . S
H871 N858 0.985 . S
C872 C873 1.363 1_455 S
C872 C878 1.379 . S
C872 N880 1.356 . S
C873 C872 1.363 1_655 S
C873 C879 1.363 . S
C874 C875 1.363 1_655 S
C874 C879 1.379 . S
C874 N881 1.356 . S
C875 C874 1.363 1_455 S
C875 C878 1.363 . S
N876 C878 1.356 . S
N876 H888 0.984 . S
N876 H889 0.985 . S
N877 C879 1.356 . S
N877 H882 0.984 . S
N877 H883 0.985 . S
C878 C872 1.379 . S
C878 C875 1.363 . S
C878 N876 1.356 . S
C879 C873 1.363 . S
C879 C874 1.379 . S
C879 N877 1.356 . S
N880 C872 1.356 . S
N880 H886 0.984 . S
N880 H887 0.984 . S
N881 C874 1.356 . S
N881 H884 0.984 . S
N881 H885 0.985 . S
H882 N877 0.984 . S
H883 N877 0.985 . S
H884 N881 0.984 . S
H885 N881 0.985 . S
H886 N880 0.984 . S
H887 N880 0.984 . S
H888 N876 0.984 . S
H889 N876 0.985 . S
C890 C891 1.363 . S
C890 C896 1.379 . S
C890 N898 1.356 . S
C891 C890 1.363 . S
C891 C897 1.363 . S
C892 C893 1.363 . S
C892 C897 1.379 . S
C892 N899 1.356 . S
C893 C892 1.363 . S
C893 C896 1.363 . S
N894 C896 1.356 . S
N894 H906 0.984 . S
N894 H907 0.985 . S
N895 C897 1.356 . S
N895 H900 0.984 . S
N895 H901 0.985 . S
C896 C890 1.379 . S
C896 C893 1.363 . S
C896 N894 1.356 . S
C897 C891 1.363 . S
C897 C892 1.379 . S
C897 N895 1.356 . S
N898 C890 1.356 . S
N898 H904 0.984 . S
N898 H905 0.984 . S
N899 C892 1.356 . S
N899 H902 0.984 . S
N899 H903 0.985 . S
H900 N895 0.984 . S
H901 N895 0.985 . S
H902 N899 0.984 . S
H903 N899 0.985 . S
H904 N898 0.984 . S
H905 N898 0.984 . S
H906 N894 0.984 . S
H907 N894 0.985 . S
C908 C909 1.363 . S
C908 C914 1.379 . S
C908 N916 1.356 . S
C909 C908 1.363 . S
C909 C915 1.363 . S
C910 C911 1.363 . S
C910 C915 1.379 . S
C910 N917 1.356 . S
C911 C910 1.363 . S
C911 C914 1.363 . S
N912 C914 1.356 . S
N912 H924 0.984 . S
N912 H925 0.985 . S
N913 C915 1.356 . S
N913 H918 0.984 . S
N913 H919 0.985 . S
C914 C908 1.379 . S
C914 C911 1.363 . S
C914 N912 1.356 . S
C915 C909 1.363 . S
C915 C910 1.379 . S
C915 N913 1.356 . S
N916 C908 1.356 . S
N916 H922 0.984 . S
N916 H923 0.984 . S
N917 C910 1.356 . S
N917 H920 0.984 . S
N917 H921 0.985 . S
H918 N913 0.984 . S
H919 N913 0.985 . S
H920 N917 0.984 . S
H921 N917 0.985 . S
H922 N916 0.984 . S
H923 N916 0.984 . S
H924 N912 0.984 . S
H925 N912 0.985 . S
C926 C927 1.363 . S
C926 C932 1.379 . S
C926 N934 1.356 . S
C927 C926 1.363 . S
C927 C933 1.363 . S
C928 C929 1.363 . S
C928 C933 1.379 . S
C928 N935 1.356 . S
C929 C928 1.363 . S
C929 C932 1.363 . S
N930 C932 1.356 . S
N930 H942 0.984 . S
N930 H943 0.985 . S
N931 C933 1.356 . S
N931 H936 0.984 . S
N931 H937 0.985 . S
C932 C926 1.379 . S
C932 C929 1.363 . S
C932 N930 1.356 . S
C933 C927 1.363 . S
C933 C928 1.379 . S
C933 N931 1.356 . S
N934 C926 1.356 . S
N934 H940 0.984 . S
N934 H941 0.984 . S
N935 C928 1.356 . S
N935 H938 0.984 . S
N935 H939 0.985 . S
H936 N931 0.984 . S
H937 N931 0.985 . S
H938 N935 0.984 . S
H939 N935 0.985 . S
H940 N934 0.984 . S
H941 N934 0.984 . S
H942 N930 0.984 . S
H943 N930 0.985 . S
C944 C945 1.363 . S
C944 C950 1.379 . S
C944 N952 1.356 . S
C945 C944 1.363 . S
C945 C951 1.363 . S
C946 C947 1.363 . S
C946 C951 1.379 . S
C946 N953 1.356 . S
C947 C946 1.363 . S
C947 C950 1.363 . S
N948 C950 1.356 . S
N948 H960 0.984 . S
N948 H961 0.985 . S
N949 C951 1.356 . S
N949 H954 0.984 . S
N949 H955 0.985 . S
C950 C944 1.379 . S
C950 C947 1.363 . S
C950 N948 1.356 . S
C951 C945 1.363 . S
C951 C946 1.379 . S
C951 N949 1.356 . S
N952 C944 1.356 . S
N952 H958 0.984 . S
N952 H959 0.984 . S
N953 C946 1.356 . S
N953 H956 0.984 . S
N953 H957 0.985 . S
H954 N949 0.984 . S
H955 N949 0.985 . S
H956 N953 0.984 . S
H957 N953 0.985 . S
H958 N952 0.984 . S
H959 N952 0.984 . S
H960 N948 0.984 . S
H961 N948 0.985 . S
C962 C963 1.363 . S
C962 C968 1.379 . S
C962 N970 1.356 . S
C963 C962 1.363 . S
C963 C969 1.363 . S
C964 C965 1.363 . S
C964 C969 1.379 . S
C964 N971 1.356 . S
C965 C964 1.363 . S
C965 C968 1.363 . S
N966 C968 1.356 . S
N966 H978 0.984 . S
N966 H979 0.985 . S
N967 C969 1.356 . S
N967 H972 0.984 . S
N967 H973 0.985 . S
C968 C962 1.379 . S
C968 C965 1.363 . S
C968 N966 1.356 . S
C969 C963 1.363 . S
C969 C964 1.379 . S
C969 N967 1.356 . S
N970 C962 1.356 . S
N970 H976 0.984 . S
N970 H977 0.984 . S
N971 C964 1.356 . S
N971 H974 0.984 . S
N971 H975 0.985 . S
H972 N967 0.984 . S
H973 N967 0.985 . S
H974 N971 0.984 . S
H975 N971 0.985 . S
H976 N970 0.984 . S
H977 N970 0.984 . S
H978 N966 0.984 . S
H979 N966 0.985 . S
C980 C981 1.363 . S
C980 C986 1.379 . S
C980 N988 1.356 . S
C981 C980 1.363 . S
C981 C987 1.363 . S
C982 C983 1.363 . S
C982 C987 1.379 . S
C982 N989 1.356 . S
C983 C982 1.363 . S
C983 C986 1.363 . S
N984 C986 1.356 . S
N984 H996 0.984 . S
N984 H997 0.985 . S
N985 C987 1.356 . S
N985 H990 0.984 . S
N985 H991 0.985 . S
C986 C980 1.379 . S
C986 C983 1.363 . S
C986 N984 1.356 . S
C987 C981 1.363 . S
C987 C982 1.379 . S
C987 N985 1.356 . S
N988 C980 1.356 . S
N988 H994 0.984 . S
N988 H995 0.984 . S
N989 C982 1.356 . S
N989 H992 0.984 . S
N989 H993 0.985 . S
H990 N985 0.984 . S
H991 N985 0.985 . S
H992 N989 0.984 . S
H993 N989 0.985 . S
H994 N988 0.984 . S
H995 N988 0.984 . S
H996 N984 0.984 . S
H997 N984 0.985 . S
C998 C999 1.363 . S
C998 C1004 1.379 . S
C998 N1006 1.356 . S
C999 C998 1.363 . S
C999 C1005 1.363 . S
C1000 C1001 1.363 . S
C1000 C1005 1.379 . S
C1000 N1007 1.356 . S
C1001 C1000 1.363 . S
C1001 C1004 1.363 . S
N1002 C1004 1.356 . S
N1002 H1014 0.984 . S
N1002 H1015 0.985 . S
N1003 C1005 1.356 . S
N1003 H1008 0.984 . S
N1003 H1009 0.985 . S
C1004 C998 1.379 . S
C1004 C1001 1.363 . S
C1004 N1002 1.356 . S
C1005 C999 1.363 . S
C1005 C1000 1.379 . S
C1005 N1003 1.356 . S
N1006 C998 1.356 . S
N1006 H1012 0.984 . S
N1006 H1013 0.984 . S
N1007 C1000 1.356 . S
N1007 H1010 0.984 . S
N1007 H1011 0.985 . S
H1008 N1003 0.984 . S
H1009 N1003 0.985 . S
H1010 N1007 0.984 . S
H1011 N1007 0.985 . S
H1012 N1006 0.984 . S
H1013 N1006 0.984 . S
H1014 N1002 0.984 . S
H1015 N1002 0.985 . S
C1016 C1017 1.363 . S
C1016 C1022 1.379 . S
C1016 N1024 1.356 . S
C1017 C1016 1.363 . S
C1017 C1023 1.363 . S
C1018 C1019 1.363 . S
C1018 C1023 1.379 . S
C1018 N1025 1.356 . S
C1019 C1018 1.363 . S
C1019 C1022 1.363 . S
N1020 C1022 1.356 . S
N1020 H1032 0.984 . S
N1020 H1033 0.985 . S
N1021 C1023 1.356 . S
N1021 H1026 0.984 . S
N1021 H1027 0.985 . S
C1022 C1016 1.379 . S
C1022 C1019 1.363 . S
C1022 N1020 1.356 . S
C1023 C1017 1.363 . S
C1023 C1018 1.379 . S
C1023 N1021 1.356 . S
N1024 C1016 1.356 . S
N1024 H1030 0.984 . S
N1024 H1031 0.984 . S
N1025 C1018 1.356 . S
N1025 H1028 0.984 . S
N1025 H1029 0.985 . S
H1026 N1021 0.984 . S
H1027 N1021 0.985 . S
H1028 N1025 0.984 . S
H1029 N1025 0.985 . S
H1030 N1024 0.984 . S
H1031 N1024 0.984 . S
H1032 N1020 0.984 . S
H1033 N1020 0.985 . S
C1034 C1035 1.363 . S
C1034 C1040 1.379 . S
C1034 N1042 1.356 . S
C1035 C1034 1.363 . S
C1035 C1041 1.363 . S
C1036 C1037 1.363 . S
C1036 C1041 1.379 . S
C1036 N1043 1.356 1_655 S
C1037 C1036 1.363 . S
C1037 C1040 1.363 . S
N1038 C1040 1.356 . S
N1038 H1050 0.984 . S
N1038 H1051 0.985 . S
N1039 C1041 1.356 . S
N1039 H1044 0.984 . S
N1039 H1045 0.985 1_655 S
C1040 C1034 1.379 . S
C1040 C1037 1.363 . S
C1040 N1038 1.356 . S
C1041 C1035 1.363 . S
C1041 C1036 1.379 . S
C1041 N1039 1.356 . S
N1042 C1034 1.356 . S
N1042 H1048 0.984 . S
N1042 H1049 0.984 . S
N1043 C1036 1.356 1_455 S
N1043 H1046 0.984 . S
N1043 H1047 0.985 . S
H1044 N1039 0.984 . S
H1045 N1039 0.985 1_455 S
H1046 N1043 0.984 . S
H1047 N1043 0.985 . S
H1048 N1042 0.984 . S
H1049 N1042 0.984 . S
H1050 N1038 0.984 . S
H1051 N1038 0.985 . S
C1052 C1053 1.363 . S
C1052 C1058 1.379 . S
C1052 N1060 1.356 . S
C1053 C1052 1.363 . S
C1053 C1059 1.363 . S
C1054 C1055 1.363 . S
C1054 C1059 1.379 . S
C1054 N1061 1.356 . S
C1055 C1054 1.363 . S
C1055 C1058 1.363 . S
N1056 C1058 1.356 . S
N1056 H1068 0.984 . S
N1056 H1069 0.985 . S
N1057 C1059 1.356 . S
N1057 H1062 0.984 . S
N1057 H1063 0.985 . S
C1058 C1052 1.379 . S
C1058 C1055 1.363 . S
C1058 N1056 1.356 . S
C1059 C1053 1.363 . S
C1059 C1054 1.379 . S
C1059 N1057 1.356 . S
N1060 C1052 1.356 . S
N1060 H1066 0.984 . S
N1060 H1067 0.984 . S
N1061 C1054 1.356 . S
N1061 H1064 0.984 . S
N1061 H1065 0.985 . S
H1062 N1057 0.984 . S
H1063 N1057 0.985 . S
H1064 N1061 0.984 . S
H1065 N1061 0.985 . S
H1066 N1060 0.984 . S
H1067 N1060 0.984 . S
H1068 N1056 0.984 . S
H1069 N1056 0.985 . S
C1070 C1071 1.363 . S
C1070 C1076 1.379 . S
C1070 N1078 1.356 . S
C1071 C1070 1.363 . S
C1071 C1077 1.363 . S
C1072 C1073 1.363 . S
C1072 C1077 1.379 . S
C1072 N1079 1.356 . S
C1073 C1072 1.363 . S
C1073 C1076 1.363 . S
N1074 C1076 1.356 . S
N1074 H1086 0.984 . S
N1074 H1087 0.985 . S
N1075 C1077 1.356 . S
N1075 H1080 0.984 . S
N1075 H1081 0.985 . S
C1076 C1070 1.379 . S
C1076 C1073 1.363 . S
C1076 N1074 1.356 . S
C1077 C1071 1.363 . S
C1077 C1072 1.379 . S
C1077 N1075 1.356 . S
N1078 C1070 1.356 . S
N1078 H1084 0.984 . S
N1078 H1085 0.984 . S
N1079 C1072 1.356 . S
N1079 H1082 0.984 . S
N1079 H1083 0.985 . S
H1080 N1075 0.984 . S
H1081 N1075 0.985 . S
H1082 N1079 0.984 . S
H1083 N1079 0.985 . S
H1084 N1078 0.984 . S
H1085 N1078 0.984 . S
H1086 N1074 0.984 . S
H1087 N1074 0.985 . S
C1088 C1089 1.363 . S
C1088 C1094 1.379 . S
C1088 N1096 1.356 . S
C1089 C1088 1.363 . S
C1089 C1095 1.363 . S
C1090 C1091 1.363 . S
C1090 C1095 1.379 . S
C1090 N1097 1.356 . S
C1091 C1090 1.363 . S
C1091 C1094 1.363 . S
N1092 C1094 1.356 . S
N1092 H1104 0.984 . S
N1092 H1105 0.985 . S
N1093 C1095 1.356 . S
N1093 H1098 0.984 . S
N1093 H1099 0.985 . S
C1094 C1088 1.379 . S
C1094 C1091 1.363 . S
C1094 N1092 1.356 . S
C1095 C1089 1.363 . S
C1095 C1090 1.379 . S
C1095 N1093 1.356 . S
N1096 C1088 1.356 . S
N1096 H1102 0.984 . S
N1096 H1103 0.984 . S
N1097 C1090 1.356 . S
N1097 H1100 0.984 . S
N1097 H1101 0.985 . S
H1098 N1093 0.984 . S
H1099 N1093 0.985 . S
H1100 N1097 0.984 . S
H1101 N1097 0.985 . S
H1102 N1096 0.984 . S
H1103 N1096 0.984 . S
H1104 N1092 0.984 . S
H1105 N1092 0.985 . S
C1106 C1107 1.363 . S
C1106 C1112 1.379 . S
C1106 N1114 1.356 . S
C1107 C1106 1.363 . S
C1107 C1113 1.363 . S
C1108 C1109 1.363 . S
C1108 C1113 1.379 . S
C1108 N1115 1.356 . S
C1109 C1108 1.363 . S
C1109 C1112 1.363 . S
N1110 C1112 1.356 . S
N1110 H1122 0.984 . S
N1110 H1123 0.985 . S
N1111 C1113 1.356 . S
N1111 H1116 0.984 . S
N1111 H1117 0.985 . S
C1112 C1106 1.379 . S
C1112 C1109 1.363 . S
C1112 N1110 1.356 . S
C1113 C1107 1.363 . S
C1113 C1108 1.379 . S
C1113 N1111 1.356 . S
N1114 C1106 1.356 . S
N1114 H1120 0.984 . S
N1114 H1121 0.984 . S
N1115 C1108 1.356 . S
N1115 H1118 0.984 . S
N1115 H1119 0.985 . S
H1116 N1111 0.984 . S
H1117 N1111 0.985 . S
H1118 N1115 0.984 . S
H1119 N1115 0.985 . S
H1120 N1114 0.984 . S
H1121 N1114 0.984 . S
H1122 N1110 0.984 . S
H1123 N1110 0.985 . S
C1124 C1125 1.363 . S
C1124 C1130 1.379 . S
C1124 N1132 1.356 . S
C1125 C1124 1.363 . S
C1125 C1131 1.363 . S
C1126 C1127 1.363 . S
C1126 C1131 1.379 . S
C1126 N1133 1.356 . S
C1127 C1126 1.363 . S
C1127 C1130 1.363 . S
N1128 C1130 1.356 . S
N1128 H1140 0.984 . S
N1128 H1141 0.985 . S
N1129 C1131 1.356 . S
N1129 H1134 0.984 . S
N1129 H1135 0.985 . S
C1130 C1124 1.379 . S
C1130 C1127 1.363 . S
C1130 N1128 1.356 . S
C1131 C1125 1.363 . S
C1131 C1126 1.379 . S
C1131 N1129 1.356 . S
N1132 C1124 1.356 . S
N1132 H1138 0.984 . S
N1132 H1139 0.984 . S
N1133 C1126 1.356 . S
N1133 H1136 0.984 . S
N1133 H1137 0.985 . S
H1134 N1129 0.984 . S
H1135 N1129 0.985 . S
H1136 N1133 0.984 . S
H1137 N1133 0.985 . S
H1138 N1132 0.984 . S
H1139 N1132 0.984 . S
H1140 N1128 0.984 . S
H1141 N1128 0.985 . S
C1142 C1143 1.363 . S
C1142 C1148 1.379 . S
C1142 N1150 1.356 . S
C1143 C1142 1.363 . S
C1143 C1149 1.363 . S
C1144 C1145 1.363 . S
C1144 C1149 1.379 . S
C1144 N1151 1.356 . S
C1145 C1144 1.363 . S
C1145 C1148 1.363 . S
N1146 C1148 1.356 . S
N1146 H1158 0.984 . S
N1146 H1159 0.985 . S
N1147 C1149 1.356 . S
N1147 H1152 0.984 . S
N1147 H1153 0.985 . S
C1148 C1142 1.379 . S
C1148 C1145 1.363 . S
C1148 N1146 1.356 . S
C1149 C1143 1.363 . S
C1149 C1144 1.379 . S
C1149 N1147 1.356 . S
N1150 C1142 1.356 . S
N1150 H1156 0.984 . S
N1150 H1157 0.984 . S
N1151 C1144 1.356 . S
N1151 H1154 0.984 . S
N1151 H1155 0.985 . S
H1152 N1147 0.984 . S
H1153 N1147 0.985 . S
H1154 N1151 0.984 . S
H1155 N1151 0.985 . S
H1156 N1150 0.984 . S
H1157 N1150 0.984 . S
H1158 N1146 0.984 . S
H1159 N1146 0.985 . S
C1160 C1161 1.363 . S
C1160 C1166 1.379 . S
C1160 N1168 1.356 . S
C1161 C1160 1.363 . S
C1161 C1167 1.363 . S
C1162 C1163 1.363 . S
C1162 C1167 1.379 . S
C1162 N1169 1.356 . S
C1163 C1162 1.363 . S
C1163 C1166 1.363 . S
N1164 C1166 1.356 . S
N1164 H1176 0.984 . S
N1164 H1177 0.985 . S
N1165 C1167 1.356 . S
N1165 H1170 0.984 . S
N1165 H1171 0.985 . S
C1166 C1160 1.379 . S
C1166 C1163 1.363 . S
C1166 N1164 1.356 . S
C1167 C1161 1.363 . S
C1167 C1162 1.379 . S
C1167 N1165 1.356 . S
N1168 C1160 1.356 . S
N1168 H1174 0.984 . S
N1168 H1175 0.984 . S
N1169 C1162 1.356 . S
N1169 H1172 0.984 . S
N1169 H1173 0.985 . S
H1170 N1165 0.984 . S
H1171 N1165 0.985 . S
H1172 N1169 0.984 . S
H1173 N1169 0.985 . S
H1174 N1168 0.984 . S
H1175 N1168 0.984 . S
H1176 N1164 0.984 . S
H1177 N1164 0.985 . S
C1178 C1179 1.363 . S
C1178 C1184 1.379 . S
C1178 N1186 1.356 . S
C1179 C1178 1.363 . S
C1179 C1185 1.363 . S
C1180 C1181 1.363 . S
C1180 C1185 1.379 . S
C1180 N1187 1.356 . S
C1181 C1180 1.363 . S
C1181 C1184 1.363 . S
N1182 C1184 1.356 . S
N1182 H1194 0.984 . S
N1182 H1195 0.985 . S
N1183 C1185 1.356 . S
N1183 H1188 0.984 . S
N1183 H1189 0.985 . S
C1184 C1178 1.379 . S
C1184 C1181 1.363 . S
C1184 N1182 1.356 . S
C1185 C1179 1.363 . S
C1185 C1180 1.379 . S
C1185 N1183 1.356 . S
N1186 C1178 1.356 . S
N1186 H1192 0.984 . S
N1186 H1193 0.984 . S
N1187 C1180 1.356 . S
N1187 H1190 0.984 . S
N1187 H1191 0.985 . S
H1188 N1183 0.984 . S
H1189 N1183 0.985 . S
H1190 N1187 0.984 . S
H1191 N1187 0.985 . S
H1192 N1186 0.984 . S
H1193 N1186 0.984 . S
H1194 N1182 0.984 . S
H1195 N1182 0.985 . S
C623 C556 1.733 . S
C621 C53 1.749 . S
C639 C115 1.704 1_545 S
C641 C559 1.700 . S
C657 C177 1.676 . S
C659 C590 1.673 . S
C677 C525 1.728 . S
C675 C239 1.747 1_565 S
C695 C560 1.947 . S
C693 C47 1.884 . S
C713 C591 1.899 . S
C711 C109 1.832 . S
C731 C516 1.848 . S
C729 C171 1.767 . S
C749 C547 1.873 . S
C747 C233 1.791 . S
C765 C29 1.521 . S
C767 C577 1.467 . S
C783 C277 1.512 . S
C785 C546 1.463 . S
C801 C153 1.450 . S
C803 C506 1.444 . S
C821 C599 1.468 . S
C819 C339 1.461 . S
C839 C527 1.523 . S
C837 C35 1.535 . S
C855 C283 1.509 . S
C857 C526 1.479 1_655 S
C873 C159 1.505 . S
C875 C619 1.481 . S
C893 C558 1.504 . S
C891 C345 1.514 . S
C909 C419 1.828 . S
C911 C618 1.897 . S
C927 C301 1.698 . S
C929 C497 1.692 . S
C945 C487 1.654 . S
C947 C528 1.649 . S
C963 C363 1.716 . S
C965 C587 1.697 . S
C983 C498 1.796 . S
C981 C425 1.813 . S
C999 C295 1.859 . S
C1001 C529 1.930 . S
C1017 C481 1.783 . S
C1019 C578 1.868 . S
C1037 C609 1.881 . S
C1035 C357 1.795 . S
C1053 C407 1.596 . S
C1055 C515 1.588 . S
C1071 C91 1.500 . S
C1073 C608 1.445 . S
C1089 C463 1.459 . S
C1091 C568 1.460 . S
C1109 C537 1.458 . S
C1107 C215 1.456 . S
C1127 C589 1.417 . S
C1125 C401 1.470 . S
C1145 C588 1.489 . S
C1143 C97 1.517 . S
C1163 C557 1.458 . S
C1161 C469 1.486 . S
C1181 C496 1.529 . S
C1179 C221 1.536 . S
