# Generated by pormake.
# Topology nom, (4,4)-cn, num edge types: 1
# Building blocks:
#     Node 0, Type 0, BuildingBlock: MIFKUJ_clean_linker_1, # of connection points: 4
#     Node 1, Type 0, BuildingBlock: MIFKUJ_clean_linker_1, # of connection points: 4
#     Node 2, Type 0, BuildingBlock: MIFKUJ_clean_linker_1, # of connection points: 4
#     Node 3, Type 0, BuildingBlock: MIFKUJ_clean_linker_1, # of connection points: 4
#     Node 4, Type 0, BuildingBlock: MIFKUJ_clean_linker_1, # of connection points: 4
#     Node 5, Type 0, BuildingBlock: MIFKUJ_clean_linker_1, # of connection points: 4
#     Node 6, Type 1, BuildingBlock: CEKHIL_clean_sbu_0, # of connection points: 4
#     Node 7, Type 1, BuildingBlock: CEKHIL_clean_sbu_0, # of connection points: 4
#     Node 8, Type 1, BuildingBlock: CEKHIL_clean_sbu_0, # of connection points: 4
#     Node 9, Type 1, BuildingBlock: CEKHIL_clean_sbu_0, # of connection points: 4
#     Node 10, Type 1, BuildingBlock: CEKHIL_clean_sbu_0, # of connection points: 4
#     Node 11, Type 1, BuildingBlock: CEKHIL_clean_sbu_0, # of connection points: 4
#     Edge 12, Type (0, 1), BuildingBlock: TEMPAE_clean_linker_10, # of connection points: 2
#     Edge 13, Type (0, 1), BuildingBlock: TEMPAE_clean_linker_10, # of connection points: 2
#     Edge 14, Type (0, 1), BuildingBlock: TEMPAE_clean_linker_10, # of connection points: 2
#     Edge 15, Type (0, 1), BuildingBlock: TEMPAE_clean_linker_10, # of connection points: 2
#     Edge 16, Type (0, 1), BuildingBlock: TEMPAE_clean_linker_10, # of connection points: 2
#     Edge 17, Type (0, 1), BuildingBlock: TEMPAE_clean_linker_10, # of connection points: 2
#     Edge 18, Type (0, 1), BuildingBlock: TEMPAE_clean_linker_10, # of connection points: 2
#     Edge 19, Type (0, 1), BuildingBlock: TEMPAE_clean_linker_10, # of connection points: 2
#     Edge 20, Type (0, 1), BuildingBlock: TEMPAE_clean_linker_10, # of connection points: 2
#     Edge 21, Type (0, 1), BuildingBlock: TEMPAE_clean_linker_10, # of connection points: 2
#     Edge 22, Type (0, 1), BuildingBlock: TEMPAE_clean_linker_10, # of connection points: 2
#     Edge 23, Type (0, 1), BuildingBlock: TEMPAE_clean_linker_10, # of connection points: 2
#     Edge 24, Type (0, 1), BuildingBlock: TEMPAE_clean_linker_10, # of connection points: 2
#     Edge 25, Type (0, 1), BuildingBlock: TEMPAE_clean_linker_10, # of connection points: 2
#     Edge 26, Type (0, 1), BuildingBlock: TEMPAE_clean_linker_10, # of connection points: 2
#     Edge 27, Type (0, 1), BuildingBlock: TEMPAE_clean_linker_10, # of connection points: 2
#     Edge 28, Type (0, 1), BuildingBlock: TEMPAE_clean_linker_10, # of connection points: 2
#     Edge 29, Type (0, 1), BuildingBlock: TEMPAE_clean_linker_10, # of connection points: 2
#     Edge 30, Type (0, 1), BuildingBlock: TEMPAE_clean_linker_10, # of connection points: 2
#     Edge 31, Type (0, 1), BuildingBlock: TEMPAE_clean_linker_10, # of connection points: 2
#     Edge 32, Type (0, 1), BuildingBlock: TEMPAE_clean_linker_10, # of connection points: 2
#     Edge 33, Type (0, 1), BuildingBlock: TEMPAE_clean_linker_10, # of connection points: 2
#     Edge 34, Type (0, 1), BuildingBlock: TEMPAE_clean_linker_10, # of connection points: 2
#     Edge 35, Type (0, 1), BuildingBlock: TEMPAE_clean_linker_10, # of connection points: 2
# Relax obj value: 0.002
# Max RMSD: 0.100
# Mean RMSD: 0.066
data_MOF--net-nom--node1-CEKHIL_clean_sbu_0--node2-MIFKUJ_clean_linker_1--edge1-TEMPAE_clean_linker_10
_symmetry_space_group_name_H-M    P1
_symmetry_Int_Tables_number       1
_symmetry_cell_setting            triclinic
loop_
_symmetry_equiv_pos_as_xyz
'x, y, z'
_cell_length_a     54.226113
_cell_length_b     53.628189
_cell_length_c     56.960065
_cell_angle_alpha  89.975723
_cell_angle_beta   90.019784
_cell_angle_gamma 121.09432
loop_
_atom_site_label
_atom_site_type_symbol
_atom_site_fract_x
_atom_site_fract_y
_atom_site_fract_z
_atom_type_partial_charge
H0 H 0.98475 0.48487 0.28289 0.0
H1 H 0.95151 0.4663 0.24962 0.0
H2 H 0.92023 0.52326 0.26799 0.0
H3 H 0.95388 0.54214 0.30107 0.0
H4 H 0.02878 0.5384 0.29311 0.0
H5 H 0.93726 0.46908 0.33232 0.0
H6 H 0.88608 0.4499 0.34048 0.0
H7 H 0.90654 0.53493 0.3643 0.0
H8 H 0.95768 0.55393 0.35632 0.0
H9 H 0.04705 0.59109 0.3833 0.0
H10 H 0.08121 0.60553 0.41613 0.0
H11 H 0.0939 0.53425 0.40019 0.0
H12 H 0.06028 0.52031 0.36708 0.0
H13 H 0.99442 0.53411 0.37464 0.0
H14 H 0.08081 0.60454 0.33782 0.0
H15 H 0.13182 0.63085 0.32786 0.0
H16 H 0.12252 0.55184 0.299 0.0
H17 H 0.07103 0.52587 0.30839 0.0
C18 C 0.97157 0.5146 0.2947 0.0
C19 C 0.97087 0.4935 0.27968 0.0
C20 C 0.95192 0.48297 0.26065 0.0
C21 C 0.93324 0.49331 0.25622 0.0
C22 C 0.93412 0.51463 0.27114 0.0
C23 C 0.95328 0.52536 0.29008 0.0
C24 C 0.99162 0.52539 0.31503 0.0
C25 C 0.02113 0.53697 0.31094 0.0
C26 C 0.98197 0.52482 0.33824 0.0
C27 C 0.95116 0.51291 0.34369 0.0
C28 C 0.93068 0.48352 0.33936 0.0
C29 C 0.90155 0.47261 0.34407 0.0
C30 C 0.89243 0.491 0.35293 0.0
C31 C 0.913 0.52039 0.35728 0.0
C32 C 0.94216 0.53118 0.35289 0.0
C33 C 0.05121 0.55468 0.37284 0.0
C34 C 0.05719 0.5786 0.38693 0.0
C35 C 0.07676 0.5869 0.40552 0.0
C36 C 0.09012 0.57097 0.41059 0.0
C37 C 0.08378 0.54678 0.39666 0.0
C38 C 0.06467 0.53886 0.37779 0.0
C39 C 0.03126 0.54631 0.35265 0.0
C40 C 1.00191 0.53527 0.35679 0.0
C41 C 0.04107 0.54793 0.32943 0.0
C42 C 0.07223 0.56324 0.32397 0.0
C43 C 0.08983 0.59284 0.32952 0.0
C44 C 0.11907 0.60782 0.32391 0.0
C45 C 0.13143 0.59347 0.31273 0.0
C46 C 0.1137 0.56367 0.30734 0.0
C47 C 0.08431 0.54875 0.31278 0.0
H48 H 0.41598 0.94921 0.51682 0.0
H49 H 0.38615 0.89736 0.52641 0.0
H50 H 0.4528 0.88333 0.50029 0.0
H51 H 0.48259 0.93533 0.49068 0.0
H52 H 0.47383 0.99044 0.53308 0.0
H53 H 0.42102 0.94973 0.45862 0.0
H54 H 0.4051 0.91436 0.42642 0.0
H55 H 0.49355 0.94087 0.41213 0.0
H56 H 0.50938 0.9764 0.44427 0.0
H57 H 0.54853 0.07159 0.46147 0.0
H58 H 0.56999 0.12313 0.45178 0.0
H59 H 0.49898 0.12338 0.48615 0.0
H60 H 0.47847 0.07227 0.4966 0.0
H61 H 0.49553 0.02366 0.45028 0.0
H62 H 0.5484 0.07524 0.51589 0.0
H63 H 0.56677 0.10984 0.54791 0.0
H64 H 0.48503 0.05994 0.58382 0.0
H65 H 0.46567 0.02749 0.55018 0.0
C66 C 0.4514 0.946 0.50303 0.0
C67 C 0.42416 0.93495 0.51321 0.0
C68 C 0.40709 0.90536 0.5185 0.0
C69 C 0.41716 0.88638 0.51398 0.0
C70 C 0.4446 0.89755 0.50401 0.0
C71 C 0.46156 0.92713 0.49847 0.0
C72 C 0.4689 0.97726 0.49694 0.0
C73 C 0.47834 0.99792 0.51503 0.0
C74 C 0.47592 0.98663 0.47343 0.0
C75 C 0.46635 0.9656 0.45378 0.0
C76 C 0.43695 0.94793 0.44851 0.0
C77 C 0.42792 0.92784 0.43012 0.0
C78 C 0.44812 0.9249 0.41684 0.0
C79 C 0.47755 0.94256 0.42222 0.0
C80 C 0.4866 0.96294 0.44042 0.0
C81 C 0.51206 0.06822 0.47988 0.0
C82 C 0.53764 0.08283 0.46686 0.0
C83 C 0.54979 0.11227 0.46127 0.0
C84 C 0.53629 0.12755 0.46821 0.0
C85 C 0.51035 0.11259 0.48093 0.0
C86 C 0.49844 0.08328 0.48678 0.0
C87 C 0.49951 0.03724 0.48643 0.0
C88 C 0.49118 0.01652 0.46843 0.0
C89 C 0.49401 0.02794 0.51017 0.0
C90 C 0.50533 0.04896 0.53015 0.0
C91 C 0.53403 0.07222 0.53025 0.0
C92 C 0.54481 0.09174 0.54902 0.0
C93 C 0.5276 0.08783 0.56881 0.0
C94 C 0.49893 0.06423 0.56883 0.0
C95 C 0.48788 0.04525 0.54966 0.0
H96 H 0.50544 0.53941 0.69946 0.0
H97 H 0.49086 0.55946 0.73159 0.0
H98 H 0.4035 0.48696 0.72575 0.0
H99 H 0.41819 0.46719 0.69324 0.0
H100 H 0.49071 0.47327 0.69826 0.0
H101 H 0.47793 0.54873 0.6551 0.0
H102 H 0.44609 0.56731 0.64579 0.0
H103 H 0.3798 0.48111 0.62411 0.0
H104 H 0.41174 0.46274 0.63337 0.0
H105 H 0.46712 0.43987 0.5985 0.0
H106 H 0.48894 0.42826 0.56606 0.0
H107 H 0.57137 0.47408 0.60111 0.0
H108 H 0.54949 0.48589 0.6335 0.0
H109 H 0.4728 0.48646 0.61505 0.0
H110 H 0.48417 0.41287 0.64419 0.0
H111 H 0.50377 0.38291 0.65538 0.0
H112 H 0.55507 0.44552 0.70909 0.0
H113 H 0.53763 0.4769 0.69603 0.0
C114 C 0.46287 0.50188 0.69411 0.0
C115 C 0.48315 0.52789 0.7051 0.0
C116 C 0.47478 0.53937 0.7233 0.0
C117 C 0.44606 0.52475 0.73105 0.0
C118 C 0.42578 0.49854 0.72012 0.0
C119 C 0.4341 0.48729 0.70162 0.0
C120 C 0.47204 0.49024 0.67469 0.0
C121 C 0.48737 0.47646 0.67999 0.0
C122 C 0.46571 0.49271 0.65112 0.0
C123 C 0.44711 0.5044 0.6449 0.0
C124 C 0.45657 0.53392 0.64827 0.0
C125 C 0.43844 0.54449 0.64289 0.0
C126 C 0.41048 0.52561 0.63428 0.0
C127 C 0.40114 0.49607 0.63091 0.0
C128 C 0.41939 0.48561 0.63603 0.0
C129 C 0.50656 0.46358 0.61858 0.0
C130 C 0.48993 0.44762 0.59916 0.0
C131 C 0.50245 0.44104 0.58059 0.0
C132 C 0.5319 0.45029 0.58101 0.0
C133 C 0.54858 0.46637 0.6004 0.0
C134 C 0.53607 0.4731 0.61892 0.0
C135 C 0.49318 0.47059 0.63832 0.0
C136 C 0.47669 0.4833 0.63318 0.0
C137 C 0.49729 0.46568 0.66213 0.0
C138 C 0.50978 0.4476 0.66887 0.0
C139 C 0.50029 0.42065 0.65792 0.0
C140 C 0.5111 0.40311 0.66475 0.0
C141 C 0.53097 0.41151 0.68333 0.0
C142 C 0.54024 0.43841 0.69444 0.0
C143 C 0.52996 0.45631 0.68717 0.0
H144 H 0.03351 0.52374 0.78131 0.0
H145 H 0.06687 0.54269 0.74818 0.0
H146 H 0.10266 0.49047 0.76921 0.0
H147 H 0.06879 0.47107 0.80215 0.0
H148 H 0.99158 0.46952 0.79229 0.0
H149 H 0.08268 0.54349 0.83136 0.0
H150 H 0.13388 0.5634 0.84012 0.0
H151 H 0.11392 0.47942 0.86635 0.0
H152 H 0.0628 0.45973 0.85778 0.0
H153 H 0.97763 0.42725 0.88719 0.0
H154 H 0.94359 0.41423 0.91988 0.0
H155 H 0.92228 0.47706 0.89561 0.0
H156 H 0.95579 0.48953 0.86256 0.0
H157 H 0.02588 0.48089 0.87456 0.0
H158 H 0.9368 0.40967 0.84585 0.0
H159 H 0.88595 0.38293 0.83629 0.0
H160 H 0.90018 0.44948 0.78586 0.0
H161 H 0.9506 0.47771 0.79752 0.0
C162 C 0.04885 0.49627 0.79444 0.0
C163 C 0.04838 0.51618 0.77872 0.0
C164 C 0.06741 0.52695 0.75976 0.0
C165 C 0.08739 0.51807 0.75611 0.0
C166 C 0.08772 0.49794 0.77174 0.0
C167 C 0.06844 0.48693 0.79061 0.0
C168 C 0.02866 0.48539 0.81469 0.0
C169 C 0.99904 0.47247 0.81032 0.0
C170 C 0.0383 0.48771 0.83812 0.0
C171 C 0.06907 0.50016 0.84389 0.0
C172 C 0.08938 0.52946 0.83907 0.0
C173 C 0.11852 0.54078 0.84412 0.0
C174 C 0.12777 0.52287 0.85382 0.0
C175 C 0.10735 0.49358 0.85868 0.0
C176 C 0.0782 0.4824 0.85395 0.0
C177 C 0.9691 0.45923 0.87243 0.0
C178 C 0.96567 0.43825 0.88894 0.0
C179 C 0.94618 0.43074 0.90747 0.0
C180 C 0.93036 0.44463 0.91011 0.0
C181 C 0.93429 0.46611 0.8939 0.0
C182 C 0.95333 0.47318 0.87507 0.0
C183 C 0.98885 0.46631 0.8522 0.0
C184 C 0.01831 0.47823 0.85657 0.0
C185 C 0.97888 0.46235 0.82873 0.0
C186 C 0.94762 0.44617 0.82289 0.0
C187 C 0.92888 0.41906 0.83332 0.0
C188 C 0.89973 0.40337 0.82737 0.0
C189 C 0.88869 0.4138 0.81013 0.0
C190 C 0.90759 0.44087 0.79953 0.0
C191 C 0.93663 0.45695 0.80597 0.0
H192 H 0.6038 0.06718 0.02007 0.0
H193 H 0.63317 0.1193 0.02876 0.0
H194 H 0.56629 0.13185 1.00085 0.0
H195 H 0.53698 0.07955 0.99201 0.0
H196 H 0.54566 0.02557 0.03571 0.0
H197 H 0.59959 0.0727 0.96427 0.0
H198 H 0.61353 0.10757 0.93201 0.0
H199 H 0.52484 0.06505 0.90945 0.0
H200 H 0.51089 0.03051 0.94203 0.0
H201 H 0.47918 0.94609 0.95738 0.0
H202 H 0.45928 0.89535 0.9465 0.0
H203 H 0.51337 0.88802 0.99856 0.0
H204 H 0.53535 0.93944 0.00738 0.0
H205 H 0.52696 0.99123 0.95314 0.0
H206 H 0.47023 0.94493 0.02 0.0
H207 H 0.45006 0.911 0.05291 0.0
H208 H 0.53438 0.95118 0.08481 0.0
H209 H 0.55448 0.98516 0.05177 0.0
C210 C 0.56832 0.06963 0.00537 0.0
C211 C 0.59544 0.08115 0.01592 0.0
C212 C 0.61225 0.11089 0.02068 0.0
C213 C 0.60203 0.12953 0.01532 0.0
C214 C 0.5746 0.11788 0.00517 0.0
C215 C 0.55791 0.08813 1.00011 0.0
C216 C 0.55146 0.03833 0.99937 0.0
C217 C 0.5417 0.01793 0.01768 0.0
C218 C 0.54524 0.0286 0.97585 0.0
C219 C 0.55411 0.04924 0.95581 0.0
C220 C 0.58308 0.07107 0.95256 0.0
C221 C 0.59103 0.091 0.93412 0.0
C222 C 0.57024 0.08917 0.9183 0.0
C223 C 0.54134 0.06692 0.9213 0.0
C224 C 0.53337 0.04718 0.93988 0.0
C225 C 0.50853 0.94669 0.98348 0.0
C226 C 0.48699 0.93363 0.96627 0.0
C227 C 0.47527 0.90435 0.96032 0.0
C228 C 0.48443 0.88721 0.97174 0.0
C229 C 0.50595 0.9004 0.98905 0.0
C230 C 0.51821 0.92985 0.9945 0.0
C231 C 0.52145 0.97804 0.98952 0.0
C232 C 0.53053 0.99858 0.97123 0.0
C233 C 0.52614 0.9879 0.01312 0.0
C234 C 0.51393 0.96744 0.03328 0.0
C235 C 0.48444 0.9463 0.03397 0.0
C236 C 0.47295 0.92685 0.05278 0.0
C237 C 0.49065 0.92828 0.07141 0.0
C238 C 0.52014 0.94967 0.07081 0.0
C239 C 0.53165 0.96908 0.05195 0.0
H240 H 0.51456 0.47406 0.19786 0.0
H241 H 0.52876 0.45425 0.23046 0.0
H242 H 0.61424 0.53058 0.22913 0.0
H243 H 0.59994 0.55012 0.19617 0.0
H244 H 0.5287 0.54259 0.19782 0.0
H245 H 0.54166 0.46592 0.15582 0.0
H246 H 0.57369 0.44744 0.147 0.0
H247 H 0.64026 0.53379 0.12584 0.0
H248 H 0.60817 0.55207 0.13471 0.0
H249 H 0.55344 0.57399 0.09788 0.0
H250 H 0.5324 0.58594 0.06501 0.0
H251 H 0.44951 0.54132 0.09939 0.0
H252 H 0.47058 0.52909 0.13217 0.0
H253 H 0.54712 0.52751 0.11525 0.0
H254 H 0.53577 0.60188 0.14236 0.0
H255 H 0.51543 0.63163 0.15181 0.0
H256 H 0.46387 0.57053 0.20634 0.0
H257 H 0.48192 0.53916 0.19485 0.0
C258 C 0.55622 0.51349 0.19475 0.0
C259 C 0.53635 0.48647 0.2046 0.0
C260 C 0.54452 0.47514 0.22307 0.0
C261 C 0.57261 0.49088 0.23223 0.0
C262 C 0.59244 0.51811 0.22243 0.0
C263 C 0.58435 0.52925 0.20368 0.0
C264 C 0.54735 0.52492 0.17497 0.0
C265 C 0.53216 0.53901 0.17969 0.0
C266 C 0.55382 0.52192 0.15158 0.0
C267 C 0.57264 0.51033 0.14593 0.0
C268 C 0.56315 0.4808 0.14928 0.0
C269 C 0.58139 0.47029 0.14415 0.0
C270 C 0.60947 0.48923 0.13578 0.0
C271 C 0.61884 0.51879 0.13248 0.0
C272 C 0.60052 0.5292 0.13738 0.0
C273 C 0.51369 0.55084 0.11764 0.0
C274 C 0.53068 0.56653 0.09828 0.0
C275 C 0.51862 0.57332 0.07948 0.0
C276 C 0.48929 0.56457 0.07963 0.0
C277 C 0.47223 0.54864 0.09891 0.0
C278 C 0.48427 0.54166 0.11765 0.0
C279 C 0.52669 0.54399 0.13779 0.0
C280 C 0.54306 0.53102 0.13323 0.0
C281 C 0.52248 0.54949 0.16141 0.0
C282 C 0.50997 0.56777 0.16745 0.0
C283 C 0.51944 0.59437 0.15588 0.0
C284 C 0.50818 0.61181 0.16173 0.0
C285 C 0.48797 0.60378 0.18 0.0
C286 C 0.47889 0.57734 0.19185 0.0
C287 C 0.48955 0.55946 0.18551 0.0
Co288 Co 0.63738 0.38284 0.40633 0.0
O289 O 0.66405 0.38268 0.38406 0.0
O290 O 0.67442 0.41832 0.40916 0.0
C291 C 0.62022 0.33714 0.41953 0.0
O292 O 0.61643 0.39047 0.43264 0.0
Co293 Co 0.57151 0.34067 0.40219 0.0
O294 O 0.5709 0.35283 0.43489 0.0
C295 C 0.60053 0.39202 0.37102 0.0
C296 C 0.68308 0.4078 0.3927 0.0
C297 C 0.59189 0.37631 0.44314 0.0
O298 O 0.62442 0.40116 0.38207 0.0
O299 O 0.57747 0.36781 0.3756 0.0
O300 O 0.64423 0.35861 0.42766 0.0
O301 O 0.60861 0.34351 0.40255 0.0
Co302 Co 0.26483 0.63387 0.58385 0.0
O303 O 0.29315 0.63407 0.60432 0.0
O304 O 0.26499 0.59806 0.5802 0.0
C305 C 0.29351 0.67926 0.56966 0.0
O306 O 0.23424 0.62649 0.55938 0.0
Co307 Co 0.24373 0.67702 0.59173 0.0
O308 O 0.22293 0.66132 0.5617 0.0
C309 C 0.22432 0.62703 0.62364 0.0
C310 C 0.28558 0.60871 0.5957 0.0
C311 C 0.22079 0.63892 0.5519 0.0
O312 O 0.23506 0.61615 0.60972 0.0
O313 O 0.22783 0.65232 0.62061 0.0
O314 O 0.29455 0.65748 0.56087 0.0
O315 O 0.27721 0.67337 0.58787 0.0
Co316 Co 0.63625 0.26529 0.74385 0.0
O317 O 0.63619 0.29316 0.72262 0.0
O318 O 0.60183 0.26707 0.74852 0.0
C319 C 0.68208 0.29402 0.7559 0.0
O320 O 0.62929 0.23539 0.76928 0.0
Co321 Co 0.67662 0.24122 0.7363 0.0
O322 O 0.66526 0.22622 0.76868 0.0
C323 C 0.62427 0.21884 0.70735 0.0
C324 C 0.61186 0.28677 0.7321 0.0
C325 C 0.64289 0.22381 0.77823 0.0
O326 O 0.6164 0.23394 0.71925 0.0
O327 O 0.64802 0.21967 0.71065 0.0
O328 O 0.66153 0.29623 0.76541 0.0
O329 O 0.67477 0.2763 0.73834 0.0
Co330 Co 0.38356 0.63328 0.90618 0.0
O331 O 0.35606 0.63346 0.88491 0.0
O332 O 0.34663 0.5978 0.90973 0.0
C333 C 0.40115 0.67898 0.91939 0.0
O334 O 0.4055 0.62562 0.93155 0.0
Co335 Co 0.44907 0.67535 0.90068 0.0
O336 O 0.45099 0.66335 0.93319 0.0
C337 C 0.41911 0.62384 0.86979 0.0
C338 C 0.3374 0.6083 0.8937 0.0
C339 C 0.4303 0.63979 0.94163 0.0
O340 O 0.39547 0.61492 0.88114 0.0
O341 O 0.4424 0.6479 0.87418 0.0
O342 O 0.37777 0.65747 0.92834 0.0
O343 O 0.41203 0.67265 0.90184 0.0
Co344 Co 0.75565 0.3823 0.08343 0.0
O345 O 0.72744 0.38182 0.10419 0.0
O346 O 0.75545 0.41813 0.08024 0.0
C347 C 0.72687 0.33708 0.069 0.0
O348 O 0.78611 0.39003 0.05875 0.0
Co349 Co 0.77678 0.33902 0.09053 0.0
O350 O 0.79808 0.35564 0.06083 0.0
C351 C 0.79593 0.38833 0.12308 0.0
C352 C 0.73494 0.40727 0.09581 0.0
C353 C 0.79991 0.378 0.05121 0.0
O354 O 0.78554 0.39965 0.10924 0.0
O355 O 0.79219 0.36298 0.11979 0.0
O356 O 0.72579 0.35895 0.06045 0.0
O357 O 0.74332 0.34278 0.08708 0.0
Co358 Co 0.38132 0.74761 0.24283 0.0
O359 O 0.381 0.72075 0.22018 0.0
O360 O 0.41681 0.74748 0.24478 0.0
C361 C 0.33666 0.71712 0.25686 0.0
O362 O 0.38933 0.77675 0.26909 0.0
Co363 Co 0.33843 0.7694 0.24055 0.0
O364 O 0.35085 0.78168 0.27345 0.0
C365 C 0.38773 0.79317 0.20753 0.0
C366 C 0.40617 0.72786 0.22834 0.0
C367 C 0.3749 0.78571 0.28054 0.0
O368 O 0.39813 0.77966 0.2186 0.0
O369 O 0.36341 0.79034 0.21267 0.0
O370 O 0.3584 0.71551 0.26442 0.0
O371 O 0.34219 0.73542 0.24001 0.0
C372 C 0.18298 0.6318 0.32084 0.0
C373 C 0.16247 0.60992 0.30608 0.0
C374 C 0.21191 0.64904 0.31398 0.0
C375 C 0.22069 0.64399 0.292 0.0
C376 C 0.20037 0.62128 0.27738 0.0
C377 C 0.17149 0.60467 0.28451 0.0
C378 C 0.23291 0.67316 0.32999 0.0
C379 C 0.20898 0.61502 0.25391 0.0
C380 C 0.28613 0.7057 0.26162 0.0
C381 C 0.30741 0.6991 0.26673 0.0
C382 C 0.25796 0.68824 0.27014 0.0
C383 C 0.25081 0.66331 0.28377 0.0
C384 C 0.27227 0.65664 0.28913 0.0
C385 C 0.30042 0.67479 0.28069 0.0
C386 C 0.2358 0.69635 0.26437 0.0
C387 C 0.26536 0.63003 0.30334 0.0
H388 H 0.17639 0.63566 0.33774 0.0
H389 H 0.15582 0.58812 0.27283 0.0
H390 H 0.2515 0.67057 0.3339 0.0
H391 H 0.24149 0.69449 0.3211 0.0
H392 H 0.22285 0.67367 0.34684 0.0
H393 H 0.1911 0.5953 0.24541 0.0
H394 H 0.21587 0.63385 0.24198 0.0
H395 H 0.22759 0.61196 0.25606 0.0
H396 H 0.29147 0.72456 0.25093 0.0
H397 H 0.3168 0.66954 0.28459 0.0
H398 H 0.22607 0.6986 0.28077 0.0
H399 H 0.21815 0.67882 0.25384 0.0
H400 H 0.24513 0.71707 0.25436 0.0
H401 H 0.25626 0.63064 0.32061 0.0
H402 H 0.28461 0.62819 0.30633 0.0
H403 H 0.24877 0.61014 0.29413 0.0
C404 C 0.56247 0.16954 0.44026 0.0
C405 C 0.54902 0.15887 0.46207 0.0
C406 C 0.57437 0.19891 0.43417 0.0
C407 C 0.57232 0.21805 0.45006 0.0
C408 C 0.55875 0.20751 0.47206 0.0
C409 C 0.54751 0.17814 0.47788 0.0
C410 C 0.58897 0.20943 0.41063 0.0
C411 C 0.55591 0.22721 0.48937 0.0
C412 C 0.62415 0.29924 0.44181 0.0
C413 C 0.60746 0.30714 0.42855 0.0
C414 C 0.6129 0.27035 0.44915 0.0
C415 C 0.58412 0.24903 0.44345 0.0
C416 C 0.5669 0.25712 0.43071 0.0
C417 C 0.57887 0.28605 0.42322 0.0
C418 C 0.63206 0.26247 0.46241 0.0
C419 C 0.53595 0.23514 0.4247 0.0
H420 H 0.56336 0.15483 0.42773 0.0
H421 H 0.53766 0.17032 0.49494 0.0
H422 H 0.57735 0.21739 0.3999 0.0
H423 H 0.6113 0.228 0.41308 0.0
H424 H 0.58979 0.19205 0.40068 0.0
H425 H 0.54442 0.21553 0.50562 0.0
H426 H 0.57754 0.24557 0.49426 0.0
H427 H 0.54404 0.23672 0.48117 0.0
H428 H 0.64631 0.31548 0.44589 0.0
H429 H 0.56584 0.29213 0.4131 0.0
H430 H 0.63479 0.2465 0.45211 0.0
H431 H 0.62194 0.25196 0.47935 0.0
H432 H 0.65369 0.28176 0.46601 0.0
H433 H 0.53501 0.2182 0.41293 0.0
H434 H 0.52499 0.24529 0.41589 0.0
H435 H 0.52381 0.22398 0.44086 0.0
C436 C 0.3626 0.52187 0.63719 0.0
C437 C 0.39102 0.53662 0.62886 0.0
C438 C 0.34398 0.53212 0.63228 0.0
C439 C 0.35392 0.55749 0.61844 0.0
C440 C 0.38253 0.57229 0.6098 0.0
C441 C 0.4008 0.5618 0.61526 0.0
C442 C 0.31382 0.51604 0.64217 0.0
C443 C 0.39383 0.59922 0.59475 0.0
C444 C 0.29986 0.57185 0.58816 0.0
C445 C 0.30099 0.59369 0.60244 0.0
C446 C 0.31671 0.55955 0.59331 0.0
C447 C 0.33468 0.56901 0.61342 0.0
C448 C 0.33505 0.5903 0.62834 0.0
C449 C 0.3184 0.60255 0.62256 0.0
C450 C 0.31599 0.53715 0.57683 0.0
C451 C 0.35352 0.6006 0.65016 0.0
H452 H 0.3551 0.50255 0.6479 0.0
H453 H 0.42268 0.57306 0.60861 0.0
H454 H 0.31052 0.53078 0.65366 0.0
H455 H 0.29785 0.50898 0.62773 0.0
H456 H 0.30937 0.49658 0.65252 0.0
H457 H 0.4163 0.60765 0.58881 0.0
H458 H 0.37992 0.59438 0.57907 0.0
H459 H 0.3932 0.61664 0.60474 0.0
H460 H 0.28657 0.56506 0.57252 0.0
H461 H 0.31922 0.61932 0.63374 0.0
H462 H 0.31049 0.51703 0.58661 0.0
H463 H 0.33764 0.54564 0.56902 0.0
H464 H 0.30017 0.53141 0.56239 0.0
H465 H 0.34891 0.58174 0.66136 0.0
H466 H 0.34997 0.61591 0.66069 0.0
H467 H 0.3766 0.61173 0.64521 0.0
C468 C 0.84268 0.40969 0.79595 0.0
C469 C 0.85785 0.39614 0.80284 0.0
C470 C 0.81396 0.39327 0.78836 0.0
C471 C 0.7997 0.3625 0.78831 0.0
C472 C 0.81456 0.34862 0.79571 0.0
C473 C 0.84352 0.36557 0.80248 0.0
C474 C 0.79898 0.40886 0.78013 0.0
C475 C 0.79991 0.31583 0.79634 0.0
C476 C 0.71787 0.3202 0.78776 0.0
C477 C 0.71202 0.31103 0.76435 0.0
C478 C 0.74634 0.33662 0.79593 0.0
C479 C 0.7694 0.34478 0.78006 0.0
C480 C 0.76352 0.33582 0.75631 0.0
C481 C 0.73485 0.31862 0.74882 0.0
C482 C 0.75175 0.34498 0.82154 0.0
C483 C 0.7875 0.34474 0.73872 0.0
H484 H 0.85318 0.43319 0.79654 0.0
H485 H 0.855 0.35471 0.8072 0.0
H486 H 0.79118 0.40227 0.76186 0.0
H487 H 0.77986 0.40263 0.79124 0.0
H488 H 0.81332 0.43292 0.78068 0.0
H489 H 0.8139 0.30842 0.80399 0.0
H490 H 0.77981 0.30645 0.80682 0.0
H491 H 0.79378 0.30691 0.77831 0.0
H492 H 0.70015 0.31413 0.79979 0.0
H493 H 0.73029 0.31172 0.73065 0.0
H494 H 0.76414 0.36903 0.82332 0.0
H495 H 0.76495 0.33679 0.82944 0.0
H496 H 0.73145 0.33617 0.83171 0.0
H497 H 0.80133 0.36883 0.7382 0.0
H498 H 0.77925 0.33676 0.72074 0.0
H499 H 0.80135 0.33612 0.7441 0.0
C500 C 0.489 0.84316 0.96609 0.0
C501 C 0.47196 0.85592 0.96538 0.0
C502 C 0.47763 0.81386 0.96 0.0
C503 C 0.44878 0.79707 0.95219 0.0
C504 C 0.43143 0.80968 0.95134 0.0
C505 C 0.44306 0.83875 0.95831 0.0
C506 C 0.49662 0.80098 0.96165 0.0
C507 C 0.40072 0.79263 0.94265 0.0
C508 C 0.42988 0.73249 0.91286 0.0
C509 C 0.41402 0.70903 0.92812 0.0
C510 C 0.44107 0.76125 0.92043 0.0
C511 C 0.43708 0.76664 0.94404 0.0
C512 C 0.42172 0.743 0.95971 0.0
C513 C 0.40994 0.71438 0.95144 0.0
C514 C 0.45664 0.78582 0.90302 0.0
C515 C 0.41783 0.74794 0.98519 0.0
H516 H 0.51147 0.85614 0.97103 0.0
H517 H 0.42938 0.84797 0.95817 0.0
H518 H 0.48573 0.78052 0.97202 0.0
H519 H 0.50056 0.79538 0.94385 0.0
H520 H 0.51774 0.81617 0.96993 0.0
H521 H 0.3902 0.80575 0.94277 0.0
H522 H 0.40021 0.78495 0.92447 0.0
H523 H 0.38788 0.77306 0.95373 0.0
H524 H 0.43283 0.72832 0.89476 0.0
H525 H 0.39783 0.69619 0.96328 0.0
H526 H 0.47904 0.80089 0.90899 0.0
H527 H 0.44581 0.79857 0.90192 0.0
H528 H 0.45736 0.77787 0.88518 0.0
H529 H 0.43913 0.76249 0.99343 0.0
H530 H 0.4065 0.72728 0.99531 0.0
H531 H 0.40532 0.75895 0.98658 0.0
C532 C 0.65746 0.49315 0.13852 0.0
C533 C 0.62895 0.47823 0.13038 0.0
C534 C 0.67617 0.48307 0.13346 0.0
C535 C 0.66623 0.45767 0.11968 0.0
C536 C 0.6375 0.44264 0.11128 0.0
C537 C 0.61915 0.45299 0.11687 0.0
C538 C 0.70647 0.49941 0.14306 0.0
C539 C 0.62617 0.41564 0.09633 0.0
C540 C 0.7202 0.44385 0.08867 0.0
C541 C 0.7195 0.42214 0.10286 0.0
C542 C 0.70325 0.45593 0.09408 0.0
C543 C 0.68561 0.44641 0.11438 0.0
C544 C 0.6857 0.42529 0.12923 0.0
C545 C 0.70245 0.41323 0.12318 0.0
C546 C 0.70345 0.47816 0.07767 0.0
C547 C 0.66762 0.41494 0.15125 0.0
H548 H 0.66499 0.51252 0.14917 0.0
H549 H 0.59722 0.4416 0.11035 0.0
H550 H 0.71014 0.48481 0.15442 0.0
H551 H 0.72224 0.50661 0.12847 0.0
H552 H 0.71088 0.51881 0.15346 0.0
H553 H 0.60355 0.40695 0.09068 0.0
H554 H 0.63981 0.42054 0.08047 0.0
H555 H 0.62723 0.39842 0.10625 0.0
H556 H 0.73322 0.45067 0.07287 0.0
H557 H 0.70196 0.39656 0.13429 0.0
H558 H 0.70892 0.49825 0.08746 0.0
H559 H 0.68165 0.46945 0.0701 0.0
H560 H 0.71907 0.48399 0.06307 0.0
H561 H 0.67222 0.43379 0.16245 0.0
H562 H 0.67154 0.39981 0.16168 0.0
H563 H 0.64445 0.40357 0.14655 0.0
C564 C 0.41077 0.84147 0.53315 0.0
C565 C 0.39914 0.85512 0.52009 0.0
C566 C 0.3935 0.81236 0.5403 0.0
C567 C 0.364 0.79649 0.53397 0.0
C568 C 0.35237 0.80994 0.52018 0.0
C569 C 0.37005 0.83919 0.51355 0.0
C570 C 0.40661 0.79886 0.55521 0.0
C571 C 0.32115 0.79358 0.51277 0.0
C572 C 0.32502 0.714 0.53851 0.0
C573 C 0.31054 0.70902 0.55997 0.0
C574 C 0.34212 0.74234 0.52959 0.0
C575 C 0.34507 0.76621 0.54262 0.0
C576 C 0.33029 0.76125 0.5642 0.0
C577 C 0.31304 0.73268 0.57253 0.0
C578 C 0.35723 0.74677 0.50634 0.0
C579 C 0.33311 0.78616 0.5787 0.0
H580 H 0.43321 0.85385 0.53838 0.0
H581 H 0.36113 0.84966 0.50322 0.0
H582 H 0.39579 0.79268 0.57257 0.0
H583 H 0.40322 0.77866 0.54682 0.0
H584 H 0.43007 0.81387 0.55801 0.0
H585 H 0.31588 0.80668 0.50095 0.0
H586 H 0.3159 0.77316 0.50362 0.0
H587 H 0.30711 0.78737 0.52849 0.0
H588 H 0.32303 0.69574 0.52869 0.0
H589 H 0.30194 0.72893 0.58916 0.0
H590 H 0.38089 0.75999 0.50891 0.0
H591 H 0.35132 0.759 0.49416 0.0
H592 H 0.35178 0.72584 0.49794 0.0
H593 H 0.356 0.80109 0.58355 0.0
H594 H 0.32007 0.77859 0.59504 0.0
H595 H 0.32617 0.79896 0.56828 0.0
C596 C 0.52366 0.36168 0.69019 0.0
C597 C 0.54165 0.39214 0.69121 0.0
C598 C 0.53365 0.34321 0.69684 0.0
C599 C 0.56205 0.35538 0.70547 0.0
C600 C 0.5801 0.38599 0.70717 0.0
C601 C 0.56987 0.40398 0.6997 0.0
C602 C 0.51394 0.31068 0.69429 0.0
C603 C 0.61037 0.39981 0.7167 0.0
C604 C 0.58095 0.30752 0.74118 0.0
C605 C 0.59713 0.30224 0.72495 0.0
C606 C 0.56931 0.32476 0.7351 0.0
C607 C 0.57324 0.33615 0.71204 0.0
C608 C 0.58861 0.32985 0.69535 0.0
C609 C 0.60077 0.31335 0.70213 0.0
C610 C 0.55371 0.33164 0.75355 0.0
C611 C 0.59256 0.34084 0.6704 0.0
H612 H 0.50162 0.3521 0.68426 0.0
H613 H 0.58423 0.42738 0.70023 0.0
H614 H 0.52401 0.30188 0.68259 0.0
H615 H 0.51063 0.29992 0.7116 0.0
H616 H 0.49258 0.30469 0.68696 0.0
H617 H 0.62092 0.42381 0.71847 0.0
H618 H 0.61012 0.39048 0.73415 0.0
H619 H 0.62365 0.395 0.70488 0.0
H620 H 0.5784 0.29916 0.75891 0.0
H621 H 0.61315 0.30911 0.68952 0.0
H622 H 0.53173 0.32495 0.74743 0.0
H623 H 0.56529 0.3555 0.75658 0.0
H624 H 0.55199 0.32062 0.77051 0.0
H625 H 0.57137 0.33447 0.66254 0.0
H626 H 0.60328 0.33228 0.65918 0.0
H627 H 0.60575 0.36497 0.67023 0.0
C628 C 0.17439 0.56037 0.87192 0.0
C629 C 0.15864 0.53465 0.85895 0.0
C630 C 0.20347 0.57141 0.87739 0.0
C631 C 0.21721 0.55661 0.86932 0.0
C632 C 0.20146 0.5308 0.85595 0.0
C633 C 0.17226 0.51999 0.85109 0.0
C634 C 0.21943 0.59879 0.89195 0.0
C635 C 0.21549 0.51474 0.84666 0.0
C636 C 0.29881 0.6018 0.86604 0.0
C637 C 0.30681 0.5933 0.88657 0.0
C638 C 0.26974 0.58938 0.85985 0.0
C639 C 0.24813 0.56834 0.87477 0.0
C640 C 0.25609 0.55928 0.89531 0.0
C641 C 0.28539 0.5717 0.90086 0.0
C642 C 0.26214 0.59922 0.83758 0.0
C643 C 0.23365 0.53716 0.91181 0.0
H644 H 0.16377 0.57156 0.87817 0.0
H645 H 0.16012 0.50023 0.84086 0.0
H646 H 0.22816 0.5944 0.90802 0.0
H647 H 0.238 0.61593 0.88191 0.0
H648 H 0.20546 0.60734 0.89725 0.0
H649 H 0.20034 0.4952 0.83627 0.0
H650 H 0.23411 0.52943 0.83538 0.0
H651 H 0.22391 0.50779 0.86143 0.0
H652 H 0.31532 0.61838 0.85486 0.0
H653 H 0.29147 0.56518 0.91681 0.0
H654 H 0.2503 0.61039 0.84195 0.0
H655 H 0.2477 0.58012 0.82651 0.0
H656 H 0.2815 0.61436 0.82714 0.0
H657 H 0.2204 0.54567 0.91899 0.0
H658 H 0.24338 0.53183 0.9267 0.0
H659 H 0.21891 0.51679 0.9022 0.0
C660 C 0.6489 0.17681 0.01376 0.0
C661 C 0.61995 0.161 0.02067 0.0
C662 C 0.66665 0.2062 0.01991 0.0
C663 C 0.65524 0.21991 0.03361 0.0
C664 C 0.62582 0.20419 0.0402 0.0
C665 C 0.60845 0.17493 0.03349 0.0
C666 C 0.69777 0.22239 0.01221 0.0
C667 C 0.61296 0.21797 0.05503 0.0
C668 C 0.70693 0.28362 0.07188 0.0
C669 C 0.70955 0.30735 0.05933 0.0
C670 C 0.68937 0.25507 0.06364 0.0
C671 C 0.67441 0.25018 0.04215 0.0
C672 C 0.67748 0.27412 0.02912 0.0
C673 C 0.69489 0.30246 0.03796 0.0
C674 C 0.68643 0.23008 0.07814 0.0
C675 C 0.66222 0.26976 0.00597 0.0
H676 H 0.65768 0.16608 0.0036 0.0
H677 H 0.5861 0.16262 0.03896 0.0
H678 H 0.70306 0.24289 0.00315 0.0
H679 H 0.712 0.22845 0.0278 0.0
H680 H 0.70273 0.20921 1.00023 0.0
H681 H 0.58947 0.20315 0.05785 0.0
H682 H 0.62378 0.22409 0.0724 0.0
H683 H 0.61656 0.23824 0.04661 0.0
H684 H 0.71817 0.28729 0.08843 0.0
H685 H 0.69697 0.32078 0.02816 0.0
H686 H 0.6932 0.21717 0.0677 0.0
H687 H 0.66354 0.21528 0.08306 0.0
H688 H 0.69955 0.2376 0.09444 0.0
H689 H 0.66788 0.25738 0.99374 0.0
H690 H 0.66777 0.29073 0.99756 0.0
H691 H 0.63857 0.25671 0.00865 0.0
C692 C 0.44853 0.61116 0.19531 0.0
C693 C 0.47676 0.62306 0.18682 0.0
C694 C 0.43798 0.62907 0.20219 0.0
C695 C 0.45566 0.65966 0.19979 0.0
C696 C 0.48393 0.67186 0.19087 0.0
C697 C 0.4943 0.65351 0.18492 0.0
C698 C 0.40789 0.61524 0.21211 0.0
C699 C 0.50322 0.70433 0.18752 0.0
C700 C 0.41625 0.70114 0.19767 0.0
C701 C 0.42086 0.71266 0.2204 0.0
C702 C 0.42834 0.68471 0.19044 0.0
C703 C 0.44453 0.67884 0.20664 0.0
C704 C 0.4494 0.69063 0.22959 0.0
C705 C 0.43788 0.70783 0.23607 0.0
C706 C 0.42346 0.67333 0.16559 0.0
C707 C 0.46583 0.68418 0.24758 0.0
H708 H 0.43446 0.58776 0.19647 0.0
H709 H 0.51634 0.66321 0.17895 0.0
H710 H 0.40851 0.62466 0.2296 0.0
H711 H 0.39432 0.61993 0.20054 0.0
H712 H 0.39744 0.59125 0.21397 0.0
H713 H 0.52412 0.71026 0.17927 0.0
H714 H 0.49229 0.71268 0.17633 0.0
H715 H 0.50759 0.71556 0.2047 0.0
H716 H 0.40317 0.70498 0.18551 0.0
H717 H 0.44115 0.71645 0.25376 0.0
H718 H 0.41029 0.64921 0.16569 0.0
H719 H 0.44435 0.6796 0.15719 0.0
H720 H 0.41229 0.68171 0.15469 0.0
H721 H 0.45461 0.66035 0.25073 0.0
H722 H 0.46798 0.69527 0.26458 0.0
H723 H 0.48767 0.6911 0.24094 0.0
C724 C 0.8481 0.49412 0.34925 0.0
C725 C 0.86154 0.47955 0.35779 0.0
C726 C 0.8189 0.4836 0.35386 0.0
C727 C 0.80294 0.4582 0.36767 0.0
C728 C 0.81648 0.44347 0.37639 0.0
C729 C 0.84557 0.4542 0.37117 0.0
C730 C 0.80509 0.49958 0.34388 0.0
C731 C 0.80032 0.41654 0.39144 0.0
C732 C 0.73521 0.44462 0.39905 0.0
C733 C 0.71355 0.4226 0.38519 0.0
C734 C 0.76442 0.45676 0.39334 0.0
C735 C 0.77209 0.44695 0.37309 0.0
C736 C 0.75024 0.42552 0.35855 0.0
C737 C 0.72124 0.41342 0.36488 0.0
C738 C 0.78709 0.47935 0.40942 0.0
C739 C 0.75752 0.41485 0.3366 0.0
H740 H 0.8604 0.51358 0.3387 0.0
H741 H 0.85603 0.44308 0.37795 0.0
H742 H 0.78635 0.48461 0.33282 0.0
H743 H 0.79689 0.50721 0.35832 0.0
H744 H 0.82033 0.51866 0.3331 0.0
H745 H 0.81409 0.40789 0.39709 0.0
H746 H 0.79177 0.42153 0.4073 0.0
H747 H 0.78161 0.39926 0.38161 0.0
H748 H 0.72939 0.45169 0.41482 0.0
H749 H 0.70457 0.39651 0.35403 0.0
H750 H 0.80194 0.4993 0.39938 0.0
H751 H 0.8002 0.47088 0.41702 0.0
H752 H 0.77759 0.48537 0.42402 0.0
H753 H 0.7721 0.43354 0.32522 0.0
H754 H 0.73804 0.3996 0.32634 0.0
H755 H 0.76909 0.40351 0.34137 0.0
C756 C 0.13408 0.60794 0.43217 0.0
C757 C 0.11045 0.57947 0.43052 0.0
C758 C 0.1531 0.61653 0.45129 0.0
C759 C 0.1479 0.59633 0.46947 0.0
C760 C 0.12421 0.56742 0.4677 0.0
C761 C 0.10593 0.55924 0.44809 0.0
C762 C 0.17846 0.64736 0.45225 0.0
C763 C 0.11758 0.54542 0.48691 0.0
C764 C 0.20792 0.61323 0.51305 0.0
C765 C 0.20167 0.62675 0.53121 0.0
C766 C 0.19063 0.60318 0.49278 0.0
C767 C 0.16614 0.60605 0.49099 0.0
C768 C 0.15931 0.61891 0.50962 0.0
C769 C 0.17736 0.62943 0.52934 0.0
C770 C 0.19896 0.59018 0.47306 0.0
C771 C 0.13302 0.62173 0.50868 0.0
H772 H 0.1377 0.62346 0.41841 0.0
H773 H 0.08755 0.53725 0.44682 0.0
H774 H 0.1758 0.65911 0.46713 0.0
H775 H 0.19864 0.64731 0.45534 0.0
H776 H 0.18083 0.65959 0.43583 0.0
H777 H 0.09907 0.52352 0.48241 0.0
H778 H 0.13664 0.5435 0.49045 0.0
H779 H 0.1125 0.55286 0.5034 0.0
H780 H 0.22682 0.61131 0.51438 0.0
H781 H 0.17228 0.63962 0.54345 0.0
H782 H 0.2033 0.60341 0.45691 0.0
H783 H 0.18095 0.56789 0.46903 0.0
H784 H 0.2184 0.58912 0.47731 0.0
H785 H 0.13502 0.63618 0.49393 0.0
H786 H 0.12988 0.63079 0.52518 0.0
H787 H 0.11348 0.60014 0.5054 0.0
C788 C 0.56905 0.12047 0.59541 0.0
C789 C 0.5398 0.10778 0.58951 0.0
C790 C 0.58097 0.13931 0.61466 0.0
C791 C 0.56307 0.14479 0.62909 0.0
C792 C 0.5335 0.13186 0.62358 0.0
C793 C 0.52234 0.11396 0.60365 0.0
C794 C 0.61278 0.15316 0.61964 0.0
C795 C 0.51357 0.13658 0.63893 0.0
C796 C 0.59363 0.16962 0.69026 0.0
C797 C 0.60533 0.19969 0.68865 0.0
C798 C 0.57816 0.15123 0.67146 0.0
C799 C 0.57539 0.16347 0.65029 0.0
C800 C 0.58665 0.19388 0.64886 0.0
C801 C 0.60118 0.21163 0.66827 0.0
C802 C 0.56571 0.11886 0.67396 0.0
C803 C 0.5849 0.20788 0.62643 0.0
H804 H 0.58277 0.11544 0.58521 0.0
H805 H 0.49988 0.10487 0.5992 0.0
H806 H 0.62296 0.17711 0.62129 0.0
H807 H 0.61595 0.14496 0.63657 0.0
H808 H 0.62415 0.14851 0.60567 0.0
H809 H 0.49101 0.12458 0.63245 0.0
H810 H 0.51392 0.12931 0.65711 0.0
H811 H 0.52104 0.16009 0.6398 0.0
H812 H 0.59694 0.16056 0.70613 0.0
H813 H 0.6106 0.23501 0.6671 0.0
H814 H 0.57791 0.11203 0.66275 0.0
H815 H 0.54298 0.10671 0.66795 0.0
H816 H 0.56659 0.11252 0.69238 0.0
H817 H 0.59811 0.20558 0.61269 0.0
H818 H 0.59278 0.2314 0.62874 0.0
H819 H 0.56243 0.19678 0.61989 0.0
C820 C 0.42341 0.5195 0.77042 0.0
C821 C 0.43764 0.53677 0.7508 0.0
C822 C 0.41775 0.53145 0.79017 0.0
C823 C 0.42609 0.56122 0.79005 0.0
C824 C 0.43933 0.57837 0.76982 0.0
C825 C 0.4452 0.566 0.75053 0.0
C826 C 0.40405 0.51259 0.81153 0.0
C827 C 0.44809 0.61004 0.76881 0.0
C828 C 0.39606 0.5907 0.83541 0.0
C829 C 0.41968 0.60575 0.85051 0.0
C830 C 0.39759 0.5757 0.81576 0.0
C831 C 0.42305 0.57511 0.81159 0.0
C832 C 0.44644 0.5892 0.82745 0.0
C833 C 0.44462 0.60471 0.8465 0.0
C834 C 0.37247 0.56151 0.79897 0.0
C835 C 0.47367 0.58846 0.824 0.0
H836 H 0.41776 0.49694 0.77068 0.0
H837 H 0.45595 0.57927 0.73524 0.0
H838 H 0.41969 0.52075 0.82626 0.0
H839 H 0.38513 0.51377 0.81726 0.0
H840 H 0.39705 0.48944 0.80824 0.0
H841 H 0.45574 0.6196 0.75108 0.0
H842 H 0.42968 0.61254 0.77377 0.0
H843 H 0.46563 0.62273 0.78161 0.0
H844 H 0.37683 0.59167 0.83843 0.0
H845 H 0.4628 0.6161 0.85832 0.0
H846 H 0.36566 0.53835 0.79617 0.0
H847 H 0.37913 0.57251 0.78164 0.0
H848 H 0.3537 0.5626 0.80535 0.0
H849 H 0.46842 0.56566 0.82186 0.0
H850 H 0.48886 0.59844 0.83895 0.0
H851 H 0.48473 0.60039 0.80774 0.0
C852 C 0.88758 0.40764 0.93274 0.0
C853 C 0.9098 0.43661 0.92979 0.0
C854 C 0.86858 0.39939 0.95183 0.0
C855 C 0.87241 0.42053 0.96869 0.0
C856 C 0.89461 0.44995 0.96556 0.0
C857 C 0.91286 0.4577 0.94595 0.0
C858 C 0.84479 0.36794 0.95422 0.0
C859 C 0.8998 0.473 0.98338 0.0
C860 C 0.8114 0.40189 0.01166 0.0
C861 C 0.81905 0.39058 0.03062 0.0
C862 C 0.82861 0.41191 0.99136 0.0
C863 C 0.85445 0.41137 0.99037 0.0
C864 C 0.86273 0.40096 0.00987 0.0
C865 C 0.84471 0.39029 0.02959 0.0
C866 C 0.8187 0.42214 0.9707 0.0
C867 C 0.89048 0.40075 0.00981 0.0
H868 H 0.88511 0.39142 0.92006 0.0
H869 H 0.93017 0.48009 0.94366 0.0
H870 H 0.84877 0.35816 0.96985 0.0
H871 H 0.82381 0.36647 0.95691 0.0
H872 H 0.84313 0.35482 0.93856 0.0
H873 H 0.91703 0.49509 0.97779 0.0
H874 H 0.87975 0.47328 0.98644 0.0
H875 H 0.9061 0.46782 1.00041 0.0
H876 H 0.79143 0.40193 0.01239 0.0
H877 H 0.8508 0.38181 0.04434 0.0
H878 H 0.8149 0.40783 0.95537 0.0
H879 H 0.83564 0.44451 0.96558 0.0
H880 H 0.79854 0.42201 0.97452 0.0
H881 H 0.88955 0.3856 0.9961 0.0
H882 H 0.89478 0.39392 0.02699 0.0
H883 H 0.90886 0.42274 0.00548 0.0
C884 C 0.48588 0.918 0.11469 0.0
C885 C 0.47817 0.90784 0.09158 0.0
C886 C 0.47294 0.89927 0.13392 0.0
C887 C 0.45178 0.86968 0.12996 0.0
C888 C 0.44455 0.8591 0.10667 0.0
C889 C 0.45782 0.8783 0.08778 0.0
C890 C 0.4812 0.9114 0.15848 0.0
C891 C 0.42222 0.82766 0.10171 0.0
C892 C 0.43012 0.81513 0.17999 0.0
C893 C 0.40456 0.81298 0.18789 0.0
C894 C 0.44583 0.83356 0.1612 0.0
C895 C 0.43578 0.85028 0.15009 0.0
C896 C 0.41014 0.84835 0.15806 0.0
C897 C 0.39486 0.82976 0.17679 0.0
C898 C 0.47307 0.83503 0.15314 0.0
C899 C 0.39873 0.86588 0.14671 0.0
H900 H 0.50139 0.94084 0.11777 0.0
H901 H 0.45213 0.8702 0.06997 0.0
H902 H 0.46246 0.91047 0.16722 0.0
H903 H 0.48726 0.89802 0.16908 0.0
H904 H 0.49944 0.93433 0.1586 0.0
H905 H 0.42035 0.82247 0.08268 0.0
H906 H 0.42763 0.81304 0.1112 0.0
H907 H 0.40089 0.82283 0.1082 0.0
H908 H 0.43782 0.80227 0.18836 0.0
H909 H 0.37523 0.82841 0.18272 0.0
H910 H 0.4915 0.85776 0.15428 0.0
H911 H 0.47095 0.82832 0.13447 0.0
H912 H 0.47812 0.82083 0.16375 0.0
H913 H 0.41515 0.88945 0.14769 0.0
H914 H 0.37864 0.86214 0.15516 0.0
H915 H 0.39429 0.86012 0.12785 0.0
C916 C 0.5748 0.45018 0.25146 0.0
C917 C 0.58082 0.47891 0.25219 0.0
C918 C 0.58062 0.43782 0.27081 0.0
C919 C 0.59226 0.45444 0.29154 0.0
C920 C 0.59902 0.48372 0.29217 0.0
C921 C 0.59342 0.4957 0.27238 0.0
C922 C 0.57357 0.4067 0.26927 0.0
C923 C 0.61101 0.50199 0.31405 0.0
C924 C 0.5738 0.40949 0.34725 0.0
C925 C 0.59943 0.40995 0.35179 0.0
C926 C 0.57162 0.42485 0.32823 0.0
C927 C 0.59542 0.44044 0.31298 0.0
C928 C 0.62154 0.44136 0.31768 0.0
C929 C 0.62336 0.42639 0.33725 0.0
C930 C 0.5436 0.42389 0.32419 0.0
C931 C 0.64718 0.45723 0.30155 0.0
H932 H 0.56534 0.4373 0.23575 0.0
H933 H 0.59788 0.51786 0.27301 0.0
H934 H 0.59251 0.40527 0.27454 0.0
H935 H 0.55582 0.3929 0.28159 0.0
H936 H 0.56691 0.39759 0.2513 0.0
H937 H 0.61677 0.52488 0.31122 0.0
H938 H 0.59482 0.49247 0.32835 0.0
H939 H 0.63043 0.50197 0.32013 0.0
H940 H 0.55535 0.39703 0.35861 0.0
H941 H 0.64315 0.4266 0.34064 0.0
H942 H 0.53367 0.41229 0.30754 0.0
H943 H 0.54762 0.4463 0.32246 0.0
H944 H 0.52795 0.41267 0.33866 0.0
H945 H 0.64163 0.44686 0.28396 0.0
H946 H 0.66633 0.45706 0.30826 0.0
H947 H 0.65293 0.48015 0.29923 0.0
C948 C 0.44816 0.88404 0.39555 0.0
C949 C 0.43849 0.9037 0.39725 0.0
C950 C 0.4388 0.86359 0.37723 0.0
C951 C 0.41979 0.86322 0.35998 0.0
C952 C 0.41028 0.88331 0.3615 0.0
C953 C 0.41953 0.90311 0.38024 0.0
C954 C 0.44893 0.84214 0.37649 0.0
C955 C 0.39046 0.88402 0.34323 0.0
C956 C 0.41477 0.82932 0.30023 0.0
C957 C 0.38774 0.80376 0.3016 0.0
C958 C 0.42572 0.84875 0.31924 0.0
C959 C 0.40964 0.84183 0.34034 0.0
C960 C 0.38295 0.81522 0.34213 0.0
C961 C 0.37202 0.79677 0.32252 0.0
C962 C 0.4538 0.87728 0.31636 0.0
C963 C 0.36561 0.80658 0.36454 0.0
H964 H 0.46263 0.88433 0.40882 0.0
H965 H 0.41229 0.9185 0.38141 0.0
H966 H 0.4301 0.81957 0.37694 0.0
H967 H 0.46058 0.84459 0.35984 0.0
H968 H 0.4634 0.84506 0.3914 0.0
H969 H 0.38587 0.90166 0.34652 0.0
H970 H 0.40021 0.88723 0.32553 0.0
H971 H 0.36975 0.86291 0.34299 0.0
H972 H 0.42668 0.83478 0.28386 0.0
H973 H 0.3511 0.7769 0.32348 0.0
H974 H 0.46902 0.88005 0.33055 0.0
H975 H 0.44987 0.89559 0.31782 0.0
H976 H 0.46417 0.87889 0.29916 0.0
H977 H 0.37939 0.8085 0.37968 0.0
H978 H 0.34689 0.78393 0.36384 0.0
H979 H 0.35755 0.82151 0.36785 0.0
C980 C 0.5381 0.44519 0.53803 0.0
C981 C 0.54495 0.4428 0.56134 0.0
C982 C 0.54862 0.43634 0.5193 0.0
C983 C 0.56636 0.4247 0.52397 0.0
C984 C 0.5742 0.42319 0.54742 0.0
C985 C 0.56342 0.43229 0.56583 0.0
C986 C 0.53992 0.43854 0.49455 0.0
C987 C 0.59301 0.41087 0.55313 0.0
C988 C 0.56217 0.37106 0.47846 0.0
C989 C 0.58698 0.38831 0.46496 0.0
C990 C 0.55577 0.38244 0.49811 0.0
C991 C 0.57455 0.4119 0.50447 0.0
C992 C 0.60011 0.42924 0.49143 0.0
C993 C 0.60608 0.41721 0.47185 0.0
C994 C 0.52841 0.36311 0.51166 0.0
C995 C 0.62066 0.46073 0.49769 0.0
H996 H 0.52426 0.45378 0.53443 0.0
H997 H 0.56865 0.43021 0.58382 0.0
H998 H 0.55925 0.45025 0.4832 0.0
H999 H 0.52623 0.41638 0.48712 0.0
H1000 H 0.52777 0.45001 0.49375 0.0
H1001 H 0.59934 0.41371 0.57193 0.0
H1002 H 0.5813 0.38727 0.54895 0.0
H1003 H 0.6128 0.42147 0.54222 0.0
H1004 H 0.54739 0.34861 0.47349 0.0
H1005 H 0.6253 0.43073 0.46157 0.0
H1006 H 0.51371 0.37167 0.51013 0.0
H1007 H 0.53332 0.36314 0.53057 0.0
H1008 H 0.51693 0.34027 0.50524 0.0
H1009 H 0.60994 0.47341 0.495 0.0
H1010 H 0.6406 0.47065 0.48692 0.0
H1011 H 0.6267 0.46272 0.5165 0.0
C1012 C 0.13742 0.54082 0.73982 0.0
C1013 C 0.10805 0.53029 0.73625 0.0
C1014 C 0.15749 0.5547 0.72163 0.0
C1015 C 0.1479 0.55796 0.69934 0.0
C1016 C 0.11813 0.54628 0.69539 0.0
C1017 C 0.09859 0.53269 0.71391 0.0
C1018 C 0.18907 0.56701 0.72658 0.0
C1019 C 0.10699 0.54907 0.67184 0.0
C1020 C 0.19772 0.6223 0.66085 0.0
C1021 C 0.20624 0.6094 0.64375 0.0
C1022 C 0.17937 0.60591 0.67931 0.0
C1023 C 0.16907 0.57574 0.68074 0.0
C1024 C 0.17804 0.56262 0.66391 0.0
C1025 C 0.19661 0.57963 0.64563 0.0
C1026 C 0.17049 0.62081 0.697 0.0
C1027 C 0.16744 0.5305 0.66486 0.0
H1028 H 0.14486 0.5392 0.7571 0.0
H1029 H 0.07585 0.52418 0.71098 0.0
H1030 H 0.19867 0.55976 0.71299 0.0
H1031 H 0.20066 0.59114 0.72585 0.0
H1032 H 0.19275 0.56042 0.74411 0.0
H1033 H 0.08308 0.53682 0.6711 0.0
H1034 H 0.11499 0.57235 0.66814 0.0
H1035 H 0.11515 0.54101 0.65769 0.0
H1036 H 0.20519 0.64531 0.65975 0.0
H1037 H 0.20304 0.56942 0.63254 0.0
H1038 H 0.17545 0.61692 0.71505 0.0
H1039 H 0.14689 0.61153 0.69601 0.0
H1040 H 0.18148 0.64468 0.69404 0.0
H1041 H 0.17184 0.52461 0.68238 0.0
H1042 H 0.17768 0.52393 0.65126 0.0
H1043 H 0.14377 0.51775 0.66223 0.0
C1044 C 0.59783 0.13995 0.90216 0.0
C1045 C 0.57882 0.11007 0.89848 0.0
C1046 C 0.60713 0.15976 0.88338 0.0
C1047 C 0.59742 0.1494 0.86034 0.0
C1048 C 0.5777 0.11934 0.85662 0.0
C1049 C 0.56856 0.10006 0.87575 0.0
C1050 C 0.62791 0.19167 0.88811 0.0
C1051 C 0.56704 0.10737 0.83231 0.0
C1052 C 0.60682 0.20181 0.81115 0.0
C1053 C 0.63166 0.20584 0.79988 0.0
C1054 C 0.59562 0.18387 0.83109 0.0
C1055 C 0.60951 0.16955 0.83991 0.0
C1056 C 0.63478 0.17387 0.82885 0.0
C1057 C 0.64555 0.19196 0.80907 0.0
C1058 C 0.56873 0.17993 0.84254 0.0
C1059 C 0.65023 0.15897 0.83766 0.0
H1060 H 0.60548 0.14783 0.91976 0.0
H1061 H 0.55406 0.07696 0.87279 0.0
H1062 H 0.64888 0.19858 0.87959 0.0
H1063 H 0.61966 0.20498 0.88042 0.0
H1064 H 0.63166 0.19651 0.90718 0.0
H1065 H 0.55047 0.08378 0.83256 0.0
H1066 H 0.55775 0.11927 0.82375 0.0
H1067 H 0.58537 0.11063 0.82131 0.0
H1068 H 0.59593 0.21246 0.80429 0.0
H1069 H 0.66478 0.19489 0.80063 0.0
H1070 H 0.57275 0.18566 0.86144 0.0
H1071 H 0.55123 0.15676 0.84147 0.0
H1072 H 0.56117 0.19352 0.83416 0.0
H1073 H 0.6565 0.16476 0.85631 0.0
H1074 H 0.66989 0.16499 0.8273 0.0
H1075 H 0.63561 0.135 0.83684 0.0
C1076 C 0.48355 0.5698 0.03658 0.0
C1077 C 0.47681 0.57254 0.05984 0.0
C1078 C 0.47348 0.57898 0.01774 0.0
C1079 C 0.45636 0.59136 0.02226 0.0
C1080 C 0.44872 0.59335 0.04565 0.0
C1081 C 0.45899 0.58385 0.06418 0.0
C1082 C 0.4819 0.57623 0.99304 0.0
C1083 C 0.4306 0.6065 0.05119 0.0
C1084 C 0.46095 0.6448 0.97627 0.0
C1085 C 0.43572 0.62774 0.96319 0.0
C1086 C 0.46745 0.63341 0.99588 0.0
C1087 C 0.44836 0.60415 0.0026 0.0
C1088 C 0.42249 0.58697 0.98989 0.0
C1089 C 0.41641 0.599 0.97038 0.0
C1090 C 0.49515 0.65255 0.00909 0.0
C1091 C 0.40162 0.55567 0.99652 0.0
H1092 H 0.49693 0.56063 0.03312 0.0
H1093 H 0.45388 0.58621 0.08213 0.0
H1094 H 0.46248 0.56467 0.98178 0.0
H1095 H 0.49588 0.59822 0.9854 0.0
H1096 H 0.49366 0.56434 0.99239 0.0
H1097 H 0.42461 0.60432 0.07006 0.0
H1098 H 0.44268 0.62998 0.04658 0.0
H1099 H 0.41062 0.59598 0.04051 0.0
H1100 H 0.4759 0.66711 0.97106 0.0
H1101 H 0.39686 0.58563 0.96042 0.0
H1102 H 0.50939 0.64345 0.00764 0.0
H1103 H 0.49059 0.65306 0.02801 0.0
H1104 H 0.50697 0.67524 0.00233 0.0
H1105 H 0.41205 0.54267 0.99418 0.0
H1106 H 0.38169 0.54576 0.98574 0.0
H1107 H 0.39561 0.55415 0.0153 0.0
C1108 C 0.88372 0.47305 0.23941 0.0
C1109 C 0.91267 0.48148 0.23627 0.0
C1110 C 0.86364 0.45983 0.22114 0.0
C1111 C 0.87279 0.45508 0.19919 0.0
C1112 C 0.90221 0.46456 0.19566 0.0
C1113 C 0.92176 0.47756 0.21426 0.0
C1114 C 0.83244 0.44986 0.22563 0.0
C1115 C 0.91288 0.4601 0.17247 0.0
C1116 C 0.82061 0.39162 0.16103 0.0
C1117 C 0.81393 0.40546 0.14336 0.0
C1118 C 0.83905 0.40746 0.1796 0.0
C1119 C 0.85137 0.438 0.18055 0.0
C1120 C 0.8442 0.45209 0.16315 0.0
C1121 C 0.82545 0.43563 0.14479 0.0
C1122 C 0.8459 0.39153 0.19793 0.0
C1123 C 0.85701 0.48464 0.16355 0.0
H1124 H 0.87655 0.47585 0.25644 0.0
H1125 H 0.9442 0.48446 0.21165 0.0
H1126 H 0.82411 0.45798 0.21165 0.0
H1127 H 0.81934 0.42572 0.22521 0.0
H1128 H 0.82925 0.4574 0.2429 0.0
H1129 H 0.9367 0.47069 0.17202 0.0
H1130 H 0.90324 0.43646 0.16918 0.0
H1131 H 0.90606 0.46895 0.15792 0.0
H1132 H 0.81161 0.36829 0.16027 0.0
H1133 H 0.82045 0.44653 0.13123 0.0
H1134 H 0.8413 0.39648 0.21574 0.0
H1135 H 0.86917 0.39902 0.19728 0.0
H1136 H 0.83336 0.36755 0.19535 0.0
H1137 H 0.85317 0.49154 0.18085 0.0
H1138 H 0.84792 0.49206 0.1496 0.0
H1139 H 0.88067 0.49582 0.16109 0.0
loop_
_geom_bond_atom_site_label_1
_geom_bond_atom_site_label_2
_geom_bond_distance
_geom_bond_site_symmetry_2
_ccdc_geom_bond_type
H0 C19 0.949 . S
H1 C20 0.950 . S
H2 C22 0.950 . S
H3 C23 0.950 . S
H4 C25 0.950 . S
H5 C28 0.950 . S
H6 C29 0.950 . S
H7 C31 0.951 . S
H8 C32 0.949 . S
H9 C34 0.949 . S
H10 C35 0.950 . S
H11 C37 0.950 . S
H12 C38 0.950 . S
H13 C40 0.944 1_655 S
H14 C43 0.950 . S
H15 C44 0.950 . S
H16 C46 0.951 . S
H17 C47 0.949 . S
C18 C19 1.376 . S
C18 C23 1.386 . S
C18 C24 1.483 . S
C19 H0 0.949 . S
C19 C18 1.376 . S
C19 C20 1.397 . S
C20 H1 0.950 . S
C20 C19 1.397 . S
C20 C21 1.391 . S
C21 C20 1.391 . S
C21 C22 1.405 . S
C22 H2 0.950 . S
C22 C21 1.405 . S
C22 C23 1.367 . S
C23 H3 0.950 . S
C23 C18 1.386 . S
C23 C22 1.367 . S
C24 C18 1.483 . S
C24 C25 1.382 1_655 S
C24 C26 1.403 . S
C25 H4 0.950 . S
C25 C24 1.382 1_455 S
C25 C41 1.411 . S
C26 C24 1.403 . S
C26 C27 1.489 . S
C26 C40 1.400 1_655 S
C27 C26 1.489 . S
C27 C28 1.383 . S
C27 C32 1.382 . S
C28 H5 0.950 . S
C28 C27 1.383 . S
C28 C29 1.395 . S
C29 H6 0.950 . S
C29 C28 1.395 . S
C29 C30 1.288 . S
C30 C29 1.288 . S
C30 C31 1.392 . S
C31 H7 0.951 . S
C31 C30 1.392 . S
C31 C32 1.392 . S
C32 H8 0.949 . S
C32 C27 1.382 . S
C32 C31 1.392 . S
C33 C34 1.376 . S
C33 C38 1.386 . S
C33 C39 1.483 . S
C34 H9 0.949 . S
C34 C33 1.376 . S
C34 C35 1.397 . S
C35 H10 0.950 . S
C35 C34 1.397 . S
C35 C36 1.391 . S
C36 C35 1.391 . S
C36 C37 1.405 . S
C37 H11 0.950 . S
C37 C36 1.405 . S
C37 C38 1.367 . S
C38 H12 0.950 . S
C38 C33 1.386 . S
C38 C37 1.367 . S
C39 C33 1.483 . S
C39 C40 1.399 . S
C39 C41 1.403 . S
C40 H13 0.944 1_455 S
C40 C26 1.400 1_455 S
C40 C39 1.399 . S
C41 C25 1.411 . S
C41 C39 1.403 . S
C41 C42 1.489 . S
C42 C41 1.489 . S
C42 C43 1.383 . S
C42 C47 1.382 . S
C43 H14 0.950 . S
C43 C42 1.383 . S
C43 C44 1.395 . S
C44 H15 0.950 . S
C44 C43 1.395 . S
C44 C45 1.288 . S
C45 C44 1.288 . S
C45 C46 1.392 . S
C46 H16 0.951 . S
C46 C45 1.392 . S
C46 C47 1.392 . S
C47 H17 0.949 . S
C47 C42 1.382 . S
C47 C46 1.392 . S
H48 C67 0.949 . S
H49 C68 0.950 . S
H50 C70 0.950 . S
H51 C71 0.950 . S
H52 C73 0.950 . S
H53 C76 0.950 . S
H54 C77 0.950 . S
H55 C79 0.951 . S
H56 C80 0.949 . S
H57 C82 0.949 . S
H58 C83 0.950 . S
H59 C85 0.950 . S
H60 C86 0.950 . S
H61 C88 0.950 . S
H62 C91 0.950 . S
H63 C92 0.950 . S
H64 C94 0.951 . S
H65 C95 0.949 . S
C66 C67 1.376 . S
C66 C71 1.386 . S
C66 C72 1.483 . S
C67 H48 0.949 . S
C67 C66 1.376 . S
C67 C68 1.397 . S
C68 H49 0.950 . S
C68 C67 1.397 . S
C68 C69 1.391 . S
C69 C68 1.391 . S
C69 C70 1.405 . S
C70 H50 0.950 . S
C70 C69 1.405 . S
C70 C71 1.367 . S
C71 H51 0.950 . S
C71 C66 1.386 . S
C71 C70 1.367 . S
C72 C66 1.483 . S
C72 C73 1.382 . S
C72 C74 1.403 . S
C73 H52 0.950 . S
C73 C72 1.382 . S
C73 C89 1.411 1_565 S
C74 C72 1.403 . S
C74 C75 1.489 . S
C74 C88 1.411 1_565 S
C75 C74 1.489 . S
C75 C76 1.383 . S
C75 C80 1.382 . S
C76 H53 0.950 . S
C76 C75 1.383 . S
C76 C77 1.395 . S
C77 H54 0.950 . S
C77 C76 1.395 . S
C77 C78 1.288 . S
C78 C77 1.288 . S
C78 C79 1.392 . S
C79 H55 0.951 . S
C79 C78 1.392 . S
C79 C80 1.392 . S
C80 H56 0.949 . S
C80 C75 1.382 . S
C80 C79 1.392 . S
C81 C82 1.376 . S
C81 C86 1.386 . S
C81 C87 1.483 . S
C82 H57 0.949 . S
C82 C81 1.376 . S
C82 C83 1.397 . S
C83 H58 0.950 . S
C83 C82 1.397 . S
C83 C84 1.391 . S
C84 C83 1.391 . S
C84 C85 1.405 . S
C85 H59 0.950 . S
C85 C84 1.405 . S
C85 C86 1.367 . S
C86 H60 0.950 . S
C86 C81 1.386 . S
C86 C85 1.367 . S
C87 C81 1.483 . S
C87 C88 1.382 . S
C87 C89 1.403 . S
C88 H61 0.950 . S
C88 C74 1.411 1_545 S
C88 C87 1.382 . S
C89 C73 1.411 1_545 S
C89 C87 1.403 . S
C89 C90 1.489 . S
C90 C89 1.489 . S
C90 C91 1.383 . S
C90 C95 1.382 . S
C91 H62 0.950 . S
C91 C90 1.383 . S
C91 C92 1.395 . S
C92 H63 0.950 . S
C92 C91 1.395 . S
C92 C93 1.288 . S
C93 C92 1.288 . S
C93 C94 1.392 . S
C94 H64 0.951 . S
C94 C93 1.392 . S
C94 C95 1.392 . S
C95 H65 0.949 . S
C95 C90 1.382 . S
C95 C94 1.392 . S
H96 C115 0.949 . S
H97 C116 0.950 . S
H98 C118 0.950 . S
H99 C119 0.950 . S
H100 C121 0.950 . S
H101 C124 0.950 . S
H102 C125 0.950 . S
H103 C127 0.951 . S
H104 C128 0.949 . S
H105 C130 0.949 . S
H106 C131 0.950 . S
H107 C133 0.950 . S
H108 C134 0.950 . S
H109 C136 0.950 . S
H110 C139 0.950 . S
H111 C140 0.950 . S
H112 C142 0.951 . S
H113 C143 0.949 . S
C114 C115 1.376 . S
C114 C119 1.386 . S
C114 C120 1.483 . S
C115 H96 0.949 . S
C115 C114 1.376 . S
C115 C116 1.397 . S
C116 H97 0.950 . S
C116 C115 1.397 . S
C116 C117 1.391 . S
C117 C116 1.391 . S
C117 C118 1.405 . S
C118 H98 0.950 . S
C118 C117 1.405 . S
C118 C119 1.367 . S
C119 H99 0.950 . S
C119 C114 1.386 . S
C119 C118 1.367 . S
C120 C114 1.483 . S
C120 C121 1.382 . S
C120 C122 1.403 . S
C121 H100 0.950 . S
C121 C120 1.382 . S
C121 C137 1.411 . S
C122 C120 1.403 . S
C122 C123 1.489 . S
C122 C136 1.411 . S
C123 C122 1.489 . S
C123 C124 1.383 . S
C123 C128 1.382 . S
C124 H101 0.950 . S
C124 C123 1.383 . S
C124 C125 1.395 . S
C125 H102 0.950 . S
C125 C124 1.395 . S
C125 C126 1.288 . S
C126 C125 1.288 . S
C126 C127 1.392 . S
C127 H103 0.951 . S
C127 C126 1.392 . S
C127 C128 1.392 . S
C128 H104 0.949 . S
C128 C123 1.382 . S
C128 C127 1.392 . S
C129 C130 1.376 . S
C129 C134 1.386 . S
C129 C135 1.483 . S
C130 H105 0.949 . S
C130 C129 1.376 . S
C130 C131 1.397 . S
C131 H106 0.950 . S
C131 C130 1.397 . S
C131 C132 1.391 . S
C132 C131 1.391 . S
C132 C133 1.405 . S
C133 H107 0.950 . S
C133 C132 1.405 . S
C133 C134 1.367 . S
C134 H108 0.950 . S
C134 C129 1.386 . S
C134 C133 1.367 . S
C135 C129 1.483 . S
C135 C136 1.382 . S
C135 C137 1.403 . S
C136 H109 0.950 . S
C136 C122 1.411 . S
C136 C135 1.382 . S
C137 C121 1.411 . S
C137 C135 1.403 . S
C137 C138 1.489 . S
C138 C137 1.489 . S
C138 C139 1.383 . S
C138 C143 1.382 . S
C139 H110 0.950 . S
C139 C138 1.383 . S
C139 C140 1.395 . S
C140 H111 0.950 . S
C140 C139 1.395 . S
C140 C141 1.288 . S
C141 C140 1.288 . S
C141 C142 1.392 . S
C142 H112 0.951 . S
C142 C141 1.392 . S
C142 C143 1.392 . S
C143 H113 0.949 . S
C143 C138 1.382 . S
C143 C142 1.392 . S
H144 C163 0.949 . S
H145 C164 0.950 . S
H146 C166 0.950 . S
H147 C167 0.950 . S
H148 C169 0.950 . S
H149 C172 0.950 . S
H150 C173 0.950 . S
H151 C175 0.951 . S
H152 C176 0.949 . S
H153 C178 0.949 . S
H154 C179 0.950 . S
H155 C181 0.950 . S
H156 C182 0.950 . S
H157 C184 0.950 . S
H158 C187 0.950 . S
H159 C188 0.950 . S
H160 C190 0.951 . S
H161 C191 0.949 . S
C162 C163 1.376 . S
C162 C167 1.386 . S
C162 C168 1.483 . S
C163 H144 0.949 . S
C163 C162 1.376 . S
C163 C164 1.397 . S
C164 H145 0.950 . S
C164 C163 1.397 . S
C164 C165 1.391 . S
C165 C164 1.391 . S
C165 C166 1.405 . S
C166 H146 0.950 . S
C166 C165 1.405 . S
C166 C167 1.367 . S
C167 H147 0.950 . S
C167 C162 1.386 . S
C167 C166 1.367 . S
C168 C162 1.483 . S
C168 C169 1.382 1_455 S
C168 C170 1.403 . S
C169 H148 0.950 . S
C169 C168 1.382 1_655 S
C169 C185 1.411 . S
C170 C168 1.403 . S
C170 C171 1.489 . S
C170 C184 1.411 . S
C171 C170 1.489 . S
C171 C172 1.383 . S
C171 C176 1.382 . S
C172 H149 0.950 . S
C172 C171 1.383 . S
C172 C173 1.395 . S
C173 H150 0.950 . S
C173 C172 1.395 . S
C173 C174 1.288 . S
C174 C173 1.288 . S
C174 C175 1.392 . S
C175 H151 0.951 . S
C175 C174 1.392 . S
C175 C176 1.392 . S
C176 H152 0.949 . S
C176 C171 1.382 . S
C176 C175 1.392 . S
C177 C178 1.376 . S
C177 C182 1.386 . S
C177 C183 1.483 . S
C178 H153 0.949 . S
C178 C177 1.376 . S
C178 C179 1.397 . S
C179 H154 0.950 . S
C179 C178 1.397 . S
C179 C180 1.391 . S
C180 C179 1.391 . S
C180 C181 1.405 . S
C181 H155 0.950 . S
C181 C180 1.405 . S
C181 C182 1.367 . S
C182 H156 0.950 . S
C182 C177 1.386 . S
C182 C181 1.367 . S
C183 C177 1.483 . S
C183 C184 1.382 1_655 S
C183 C185 1.403 . S
C184 H157 0.950 . S
C184 C170 1.411 . S
C184 C183 1.382 1_455 S
C185 C169 1.411 . S
C185 C183 1.403 . S
C185 C186 1.489 . S
C186 C185 1.489 . S
C186 C187 1.383 . S
C186 C191 1.382 . S
C187 H158 0.950 . S
C187 C186 1.383 . S
C187 C188 1.395 . S
C188 H159 0.950 . S
C188 C187 1.395 . S
C188 C189 1.288 . S
C189 C188 1.288 . S
C189 C190 1.392 . S
C190 H160 0.951 . S
C190 C189 1.392 . S
C190 C191 1.392 . S
C191 H161 0.949 . S
C191 C186 1.382 . S
C191 C190 1.392 . S
H192 C211 0.949 . S
H193 C212 0.950 . S
H194 C214 0.950 . S
H195 C215 0.953 1_556 S
H196 C217 0.950 . S
H197 C220 0.950 . S
H198 C221 0.950 . S
H199 C223 0.951 . S
H200 C224 0.949 . S
H201 C226 0.949 . S
H202 C227 0.950 . S
H203 C229 0.950 . S
H204 C230 0.950 . S
H205 C232 0.950 . S
H206 C235 0.950 . S
H207 C236 0.950 . S
H208 C238 0.951 . S
H209 C239 0.949 . S
C210 C211 1.376 . S
C210 C215 1.385 . S
C210 C216 1.471 1_554 S
C211 H192 0.949 . S
C211 C210 1.376 . S
C211 C212 1.397 . S
C212 H193 0.950 . S
C212 C211 1.397 . S
C212 C213 1.391 . S
C213 C212 1.391 . S
C213 C214 1.405 . S
C214 H194 0.950 . S
C214 C213 1.405 . S
C214 C215 1.366 . S
C215 H195 0.953 1_554 S
C215 C210 1.385 . S
C215 C214 1.366 . S
C216 C210 1.471 1_556 S
C216 C217 1.345 1_556 S
C216 C218 1.450 . S
C217 H196 0.950 . S
C217 C216 1.345 1_554 S
C217 C233 1.411 1_545 S
C218 C216 1.450 . S
C218 C219 1.489 . S
C218 C232 1.411 1_545 S
C219 C218 1.489 . S
C219 C220 1.383 . S
C219 C224 1.382 . S
C220 H197 0.950 . S
C220 C219 1.383 . S
C220 C221 1.395 . S
C221 H198 0.950 . S
C221 C220 1.395 . S
C221 C222 1.288 . S
C222 C221 1.288 . S
C222 C223 1.392 . S
C223 H199 0.951 . S
C223 C222 1.392 . S
C223 C224 1.392 . S
C224 H200 0.949 . S
C224 C219 1.382 . S
C224 C223 1.392 . S
C225 C226 1.376 . S
C225 C230 1.386 . S
C225 C231 1.483 . S
C226 H201 0.949 . S
C226 C225 1.376 . S
C226 C227 1.397 . S
C227 H202 0.950 . S
C227 C226 1.397 . S
C227 C228 1.391 . S
C228 C227 1.391 . S
C228 C229 1.405 . S
C229 H203 0.950 . S
C229 C228 1.405 . S
C229 C230 1.367 . S
C230 H204 0.950 . S
C230 C225 1.386 . S
C230 C229 1.367 . S
C231 C225 1.483 . S
C231 C232 1.382 . S
C231 C233 1.403 1_556 S
C232 H205 0.950 . S
C232 C218 1.411 1_565 S
C232 C231 1.382 . S
C233 C217 1.411 1_565 S
C233 C231 1.403 1_554 S
C233 C234 1.489 . S
C234 C233 1.489 . S
C234 C235 1.383 . S
C234 C239 1.382 . S
C235 H206 0.950 . S
C235 C234 1.383 . S
C235 C236 1.395 . S
C236 H207 0.950 . S
C236 C235 1.395 . S
C236 C237 1.288 . S
C237 C236 1.288 . S
C237 C238 1.392 . S
C238 H208 0.951 . S
C238 C237 1.392 . S
C238 C239 1.392 . S
C239 H209 0.949 . S
C239 C234 1.382 . S
C239 C238 1.392 . S
H240 C259 0.949 . S
H241 C260 0.950 . S
H242 C262 0.950 . S
H243 C263 0.950 . S
H244 C265 0.950 . S
H245 C268 0.950 . S
H246 C269 0.950 . S
H247 C271 0.951 . S
H248 C272 0.949 . S
H249 C274 0.949 . S
H250 C275 0.950 . S
H251 C277 0.950 . S
H252 C278 0.950 . S
H253 C280 0.950 . S
H254 C283 0.950 . S
H255 C284 0.950 . S
H256 C286 0.951 . S
H257 C287 0.949 . S
C258 C259 1.376 . S
C258 C263 1.386 . S
C258 C264 1.483 . S
C259 H240 0.949 . S
C259 C258 1.376 . S
C259 C260 1.397 . S
C260 H241 0.950 . S
C260 C259 1.397 . S
C260 C261 1.391 . S
C261 C260 1.391 . S
C261 C262 1.405 . S
C262 H242 0.950 . S
C262 C261 1.405 . S
C262 C263 1.367 . S
C263 H243 0.950 . S
C263 C258 1.386 . S
C263 C262 1.367 . S
C264 C258 1.483 . S
C264 C265 1.382 . S
C264 C266 1.403 . S
C265 H244 0.950 . S
C265 C264 1.382 . S
C265 C281 1.411 . S
C266 C264 1.403 . S
C266 C267 1.489 . S
C266 C280 1.411 . S
C267 C266 1.489 . S
C267 C268 1.383 . S
C267 C272 1.382 . S
C268 H245 0.950 . S
C268 C267 1.383 . S
C268 C269 1.395 . S
C269 H246 0.950 . S
C269 C268 1.395 . S
C269 C270 1.288 . S
C270 C269 1.288 . S
C270 C271 1.392 . S
C271 H247 0.951 . S
C271 C270 1.392 . S
C271 C272 1.392 . S
C272 H248 0.949 . S
C272 C267 1.382 . S
C272 C271 1.392 . S
C273 C274 1.376 . S
C273 C278 1.386 . S
C273 C279 1.483 . S
C274 H249 0.949 . S
C274 C273 1.376 . S
C274 C275 1.397 . S
C275 H250 0.950 . S
C275 C274 1.397 . S
C275 C276 1.391 . S
C276 C275 1.391 . S
C276 C277 1.405 . S
C277 H251 0.950 . S
C277 C276 1.405 . S
C277 C278 1.367 . S
C278 H252 0.950 . S
C278 C273 1.386 . S
C278 C277 1.367 . S
C279 C273 1.483 . S
C279 C280 1.382 . S
C279 C281 1.403 . S
C280 H253 0.950 . S
C280 C266 1.411 . S
C280 C279 1.382 . S
C281 C265 1.411 . S
C281 C279 1.403 . S
C281 C282 1.489 . S
C282 C281 1.489 . S
C282 C283 1.383 . S
C282 C287 1.382 . S
C283 H254 0.950 . S
C283 C282 1.383 . S
C283 C284 1.395 . S
C284 H255 0.950 . S
C284 C283 1.395 . S
C284 C285 1.288 . S
C285 C284 1.288 . S
C285 C286 1.392 . S
C286 H256 0.951 . S
C286 C285 1.392 . S
C286 C287 1.392 . S
C287 H257 0.949 . S
C287 C282 1.382 . S
C287 C286 1.392 . S
Co288 O289 2.216 . S
Co288 O290 2.091 . S
Co288 O292 2.004 . S
Co288 O298 2.021 . S
Co288 O300 2.137 . S
Co288 O301 2.244 . S
O289 Co288 2.216 . S
O289 C296 1.247 . S
O290 Co288 2.091 . S
O290 C296 1.261 . S
C291 O300 1.247 . S
C291 O301 1.272 . S
O292 Co288 2.004 . S
O292 C297 1.259 . S
Co293 O294 2.061 . S
Co293 O299 2.052 . S
Co293 O301 2.135 . S
O294 Co293 2.061 . S
O294 C297 1.235 . S
C295 O298 1.238 . S
C295 O299 1.241 . S
C296 O289 1.247 . S
C296 O290 1.261 . S
C297 O292 1.259 . S
C297 O294 1.235 . S
O298 Co288 2.021 . S
O298 C295 1.238 . S
O299 Co293 2.052 . S
O299 C295 1.241 . S
O300 Co288 2.137 . S
O300 C291 1.247 . S
O301 Co288 2.244 . S
O301 C291 1.272 . S
O301 Co293 2.135 . S
Co302 O303 2.216 . S
Co302 O304 2.091 . S
Co302 O306 2.004 . S
Co302 O312 2.021 . S
Co302 O314 2.137 . S
Co302 O315 2.244 . S
O303 Co302 2.216 . S
O303 C310 1.247 . S
O304 Co302 2.091 . S
O304 C310 1.261 . S
C305 O314 1.247 . S
C305 O315 1.272 . S
O306 Co302 2.004 . S
O306 C311 1.259 . S
Co307 O308 2.061 . S
Co307 O313 2.052 . S
Co307 O315 2.135 . S
O308 Co307 2.061 . S
O308 C311 1.235 . S
C309 O312 1.238 . S
C309 O313 1.241 . S
C310 O303 1.247 . S
C310 O304 1.261 . S
C311 O306 1.259 . S
C311 O308 1.235 . S
O312 Co302 2.021 . S
O312 C309 1.238 . S
O313 Co307 2.052 . S
O313 C309 1.241 . S
O314 Co302 2.137 . S
O314 C305 1.247 . S
O315 Co302 2.244 . S
O315 C305 1.272 . S
O315 Co307 2.135 . S
Co316 O317 2.216 . S
Co316 O318 2.091 . S
Co316 O320 2.004 . S
Co316 O326 2.021 . S
Co316 O328 2.137 . S
Co316 O329 2.244 . S
O317 Co316 2.216 . S
O317 C324 1.247 . S
O318 Co316 2.091 . S
O318 C324 1.261 . S
C319 O328 1.247 . S
C319 O329 1.272 . S
O320 Co316 2.004 . S
O320 C325 1.259 . S
Co321 O322 2.061 . S
Co321 O327 2.052 . S
Co321 O329 2.135 . S
O322 Co321 2.061 . S
O322 C325 1.235 . S
C323 O326 1.238 . S
C323 O327 1.241 . S
C324 O317 1.247 . S
C324 O318 1.261 . S
C325 O320 1.259 . S
C325 O322 1.235 . S
O326 Co316 2.021 . S
O326 C323 1.238 . S
O327 Co321 2.052 . S
O327 C323 1.241 . S
O328 Co316 2.137 . S
O328 C319 1.247 . S
O329 Co316 2.244 . S
O329 C319 1.272 . S
O329 Co321 2.135 . S
Co330 O331 2.216 . S
Co330 O332 2.091 . S
Co330 O334 2.004 . S
Co330 O340 2.021 . S
Co330 O342 2.137 . S
Co330 O343 2.244 . S
O331 Co330 2.216 . S
O331 C338 1.247 . S
O332 Co330 2.091 . S
O332 C338 1.261 . S
C333 O342 1.247 . S
C333 O343 1.272 . S
O334 Co330 2.004 . S
O334 C339 1.259 . S
Co335 O336 2.061 . S
Co335 O341 2.052 . S
Co335 O343 2.135 . S
O336 Co335 2.061 . S
O336 C339 1.235 . S
C337 O340 1.238 . S
C337 O341 1.241 . S
C338 O331 1.247 . S
C338 O332 1.261 . S
C339 O334 1.259 . S
C339 O336 1.235 . S
O340 Co330 2.021 . S
O340 C337 1.238 . S
O341 Co335 2.052 . S
O341 C337 1.241 . S
O342 Co330 2.137 . S
O342 C333 1.247 . S
O343 Co330 2.244 . S
O343 C333 1.272 . S
O343 Co335 2.135 . S
Co344 O345 2.216 . S
Co344 O346 2.091 . S
Co344 O348 2.004 . S
Co344 O354 2.021 . S
Co344 O356 2.137 . S
Co344 O357 2.244 . S
O345 Co344 2.216 . S
O345 C352 1.247 . S
O346 Co344 2.091 . S
O346 C352 1.261 . S
C347 O356 1.247 . S
C347 O357 1.272 . S
O348 Co344 2.004 . S
O348 C353 1.259 . S
Co349 O350 2.061 . S
Co349 O355 2.052 . S
Co349 O357 2.135 . S
O350 Co349 2.061 . S
O350 C353 1.235 . S
C351 O354 1.238 . S
C351 O355 1.241 . S
C352 O345 1.247 . S
C352 O346 1.261 . S
C353 O348 1.259 . S
C353 O350 1.235 . S
O354 Co344 2.021 . S
O354 C351 1.238 . S
O355 Co349 2.052 . S
O355 C351 1.241 . S
O356 Co344 2.137 . S
O356 C347 1.247 . S
O357 Co344 2.244 . S
O357 C347 1.272 . S
O357 Co349 2.135 . S
Co358 O359 2.216 . S
Co358 O360 2.091 . S
Co358 O362 2.004 . S
Co358 O368 2.021 . S
Co358 O370 2.137 . S
Co358 O371 2.244 . S
O359 Co358 2.216 . S
O359 C366 1.247 . S
O360 Co358 2.091 . S
O360 C366 1.261 . S
C361 O370 1.247 . S
C361 O371 1.272 . S
O362 Co358 2.004 . S
O362 C367 1.259 . S
Co363 O364 2.061 . S
Co363 O369 2.052 . S
Co363 O371 2.135 . S
O364 Co363 2.061 . S
O364 C367 1.235 . S
C365 O368 1.238 . S
C365 O369 1.241 . S
C366 O359 1.247 . S
C366 O360 1.261 . S
C367 O362 1.259 . S
C367 O364 1.235 . S
O368 Co358 2.021 . S
O368 C365 1.238 . S
O369 Co363 2.052 . S
O369 C365 1.241 . S
O370 Co358 2.137 . S
O370 C361 1.247 . S
O371 Co358 2.244 . S
O371 C361 1.272 . S
O371 Co363 2.135 . S
C372 C373 1.391 . S
C372 C374 1.394 . S
C372 H388 0.931 . S
C373 C372 1.391 . S
C373 C377 1.376 . S
C374 C372 1.394 . S
C374 C375 1.369 . S
C374 C378 1.531 . S
C375 C374 1.369 . S
C375 C376 1.410 . S
C375 C383 1.503 . S
C376 C375 1.410 . S
C376 C377 1.392 . S
C376 C379 1.511 . S
C377 C373 1.376 . S
C377 C376 1.392 . S
C377 H389 0.929 . S
C378 C374 1.531 . S
C378 H390 0.960 . S
C378 H391 0.962 . S
C378 H392 0.960 . S
C379 C376 1.511 . S
C379 H393 0.961 . S
C379 H394 0.961 . S
C379 H395 0.961 . S
C380 C381 1.370 . S
C380 C382 1.363 . S
C380 H396 0.931 . S
C381 C380 1.370 . S
C381 C385 1.408 . S
C382 C380 1.363 . S
C382 C383 1.370 . S
C382 C386 1.524 . S
C383 C375 1.503 . S
C383 C382 1.370 . S
C383 C384 1.403 . S
C384 C383 1.403 . S
C384 C385 1.404 . S
C384 C387 1.539 . S
C385 C381 1.408 . S
C385 C384 1.404 . S
C385 H397 0.930 . S
C386 C382 1.524 . S
C386 H398 0.956 . S
C386 H399 0.961 . S
C386 H400 0.961 . S
C387 C384 1.539 . S
C387 H401 0.958 . S
C387 H402 0.961 . S
C387 H403 0.960 . S
H388 C372 0.931 . S
H389 C377 0.929 . S
H390 C378 0.960 . S
H391 C378 0.962 . S
H392 C378 0.960 . S
H393 C379 0.961 . S
H394 C379 0.961 . S
H395 C379 0.961 . S
H396 C380 0.931 . S
H397 C385 0.930 . S
H398 C386 0.956 . S
H399 C386 0.961 . S
H400 C386 0.961 . S
H401 C387 0.958 . S
H402 C387 0.961 . S
H403 C387 0.960 . S
C404 C405 1.391 . S
C404 C406 1.394 . S
C404 H420 0.931 . S
C405 C404 1.391 . S
C405 C409 1.376 . S
C406 C404 1.394 . S
C406 C407 1.369 . S
C406 C410 1.531 . S
C407 C406 1.369 . S
C407 C408 1.410 . S
C407 C415 1.503 . S
C408 C407 1.410 . S
C408 C409 1.392 . S
C408 C411 1.511 . S
C409 C405 1.376 . S
C409 C408 1.392 . S
C409 H421 0.929 . S
C410 C406 1.531 . S
C410 H422 0.960 . S
C410 H423 0.962 . S
C410 H424 0.960 . S
C411 C408 1.511 . S
C411 H425 0.961 . S
C411 H426 0.961 . S
C411 H427 0.961 . S
C412 C413 1.370 . S
C412 C414 1.363 . S
C412 H428 0.931 . S
C413 C412 1.370 . S
C413 C417 1.408 . S
C414 C412 1.363 . S
C414 C415 1.370 . S
C414 C418 1.524 . S
C415 C407 1.503 . S
C415 C414 1.370 . S
C415 C416 1.403 . S
C416 C415 1.403 . S
C416 C417 1.404 . S
C416 C419 1.539 . S
C417 C413 1.408 . S
C417 C416 1.404 . S
C417 H429 0.930 . S
C418 C414 1.524 . S
C418 H430 0.956 . S
C418 H431 0.961 . S
C418 H432 0.961 . S
C419 C416 1.539 . S
C419 H433 0.958 . S
C419 H434 0.961 . S
C419 H435 0.960 . S
H420 C404 0.931 . S
H421 C409 0.929 . S
H422 C410 0.960 . S
H423 C410 0.962 . S
H424 C410 0.960 . S
H425 C411 0.961 . S
H426 C411 0.961 . S
H427 C411 0.961 . S
H428 C412 0.931 . S
H429 C417 0.930 . S
H430 C418 0.956 . S
H431 C418 0.961 . S
H432 C418 0.961 . S
H433 C419 0.958 . S
H434 C419 0.961 . S
H435 C419 0.960 . S
C436 C437 1.391 . S
C436 C438 1.394 . S
C436 H452 0.931 . S
C437 C436 1.391 . S
C437 C441 1.376 . S
C438 C436 1.394 . S
C438 C439 1.369 . S
C438 C442 1.531 . S
C439 C438 1.369 . S
C439 C440 1.410 . S
C439 C447 1.503 . S
C440 C439 1.410 . S
C440 C441 1.392 . S
C440 C443 1.511 . S
C441 C437 1.376 . S
C441 C440 1.392 . S
C441 H453 0.929 . S
C442 C438 1.531 . S
C442 H454 0.960 . S
C442 H455 0.962 . S
C442 H456 0.960 . S
C443 C440 1.511 . S
C443 H457 0.961 . S
C443 H458 0.961 . S
C443 H459 0.961 . S
C444 C445 1.370 . S
C444 C446 1.363 . S
C444 H460 0.931 . S
C445 C444 1.370 . S
C445 C449 1.408 . S
C446 C444 1.363 . S
C446 C447 1.370 . S
C446 C450 1.524 . S
C447 C439 1.503 . S
C447 C446 1.370 . S
C447 C448 1.403 . S
C448 C447 1.403 . S
C448 C449 1.404 . S
C448 C451 1.539 . S
C449 C445 1.408 . S
C449 C448 1.404 . S
C449 H461 0.930 . S
C450 C446 1.524 . S
C450 H462 0.956 . S
C450 H463 0.961 . S
C450 H464 0.961 . S
C451 C448 1.539 . S
C451 H465 0.958 . S
C451 H466 0.961 . S
C451 H467 0.960 . S
H452 C436 0.931 . S
H453 C441 0.929 . S
H454 C442 0.960 . S
H455 C442 0.962 . S
H456 C442 0.960 . S
H457 C443 0.961 . S
H458 C443 0.961 . S
H459 C443 0.961 . S
H460 C444 0.931 . S
H461 C449 0.930 . S
H462 C450 0.956 . S
H463 C450 0.961 . S
H464 C450 0.961 . S
H465 C451 0.958 . S
H466 C451 0.961 . S
H467 C451 0.960 . S
C468 C469 1.391 . S
C468 C470 1.394 . S
C468 H484 0.931 . S
C469 C468 1.391 . S
C469 C473 1.376 . S
C470 C468 1.394 . S
C470 C471 1.369 . S
C470 C474 1.531 . S
C471 C470 1.369 . S
C471 C472 1.410 . S
C471 C479 1.503 . S
C472 C471 1.410 . S
C472 C473 1.392 . S
C472 C475 1.511 . S
C473 C469 1.376 . S
C473 C472 1.392 . S
C473 H485 0.929 . S
C474 C470 1.531 . S
C474 H486 0.960 . S
C474 H487 0.962 . S
C474 H488 0.960 . S
C475 C472 1.511 . S
C475 H489 0.961 . S
C475 H490 0.961 . S
C475 H491 0.961 . S
C476 C477 1.370 . S
C476 C478 1.363 . S
C476 H492 0.931 . S
C477 C476 1.370 . S
C477 C481 1.408 . S
C478 C476 1.363 . S
C478 C479 1.370 . S
C478 C482 1.524 . S
C479 C471 1.503 . S
C479 C478 1.370 . S
C479 C480 1.403 . S
C480 C479 1.403 . S
C480 C481 1.404 . S
C480 C483 1.539 . S
C481 C477 1.408 . S
C481 C480 1.404 . S
C481 H493 0.930 . S
C482 C478 1.524 . S
C482 H494 0.956 . S
C482 H495 0.961 . S
C482 H496 0.961 . S
C483 C480 1.539 . S
C483 H497 0.958 . S
C483 H498 0.961 . S
C483 H499 0.960 . S
H484 C468 0.931 . S
H485 C473 0.929 . S
H486 C474 0.960 . S
H487 C474 0.962 . S
H488 C474 0.960 . S
H489 C475 0.961 . S
H490 C475 0.961 . S
H491 C475 0.961 . S
H492 C476 0.931 . S
H493 C481 0.930 . S
H494 C482 0.956 . S
H495 C482 0.961 . S
H496 C482 0.961 . S
H497 C483 0.958 . S
H498 C483 0.961 . S
H499 C483 0.960 . S
C500 C501 1.391 . S
C500 C502 1.394 . S
C500 H516 0.931 . S
C501 C500 1.391 . S
C501 C505 1.376 . S
C502 C500 1.394 . S
C502 C503 1.369 . S
C502 C506 1.531 . S
C503 C502 1.369 . S
C503 C504 1.410 . S
C503 C511 1.503 . S
C504 C503 1.410 . S
C504 C505 1.392 . S
C504 C507 1.511 . S
C505 C501 1.376 . S
C505 C504 1.392 . S
C505 H517 0.929 . S
C506 C502 1.531 . S
C506 H518 0.960 . S
C506 H519 0.962 . S
C506 H520 0.960 . S
C507 C504 1.511 . S
C507 H521 0.961 . S
C507 H522 0.961 . S
C507 H523 0.961 . S
C508 C509 1.370 . S
C508 C510 1.363 . S
C508 H524 0.931 . S
C509 C508 1.370 . S
C509 C513 1.408 . S
C510 C508 1.363 . S
C510 C511 1.370 . S
C510 C514 1.524 . S
C511 C503 1.503 . S
C511 C510 1.370 . S
C511 C512 1.403 . S
C512 C511 1.403 . S
C512 C513 1.404 . S
C512 C515 1.539 . S
C513 C509 1.408 . S
C513 C512 1.404 . S
C513 H525 0.930 . S
C514 C510 1.524 . S
C514 H526 0.956 . S
C514 H527 0.961 . S
C514 H528 0.961 . S
C515 C512 1.539 . S
C515 H529 0.958 . S
C515 H530 0.961 . S
C515 H531 0.960 . S
H516 C500 0.931 . S
H517 C505 0.929 . S
H518 C506 0.960 . S
H519 C506 0.962 . S
H520 C506 0.960 . S
H521 C507 0.961 . S
H522 C507 0.961 . S
H523 C507 0.961 . S
H524 C508 0.931 . S
H525 C513 0.930 . S
H526 C514 0.956 . S
H527 C514 0.961 . S
H528 C514 0.961 . S
H529 C515 0.958 . S
H530 C515 0.961 . S
H531 C515 0.960 . S
C532 C533 1.391 . S
C532 C534 1.394 . S
C532 H548 0.931 . S
C533 C532 1.391 . S
C533 C537 1.376 . S
C534 C532 1.394 . S
C534 C535 1.369 . S
C534 C538 1.531 . S
C535 C534 1.369 . S
C535 C536 1.410 . S
C535 C543 1.503 . S
C536 C535 1.410 . S
C536 C537 1.392 . S
C536 C539 1.511 . S
C537 C533 1.376 . S
C537 C536 1.392 . S
C537 H549 0.929 . S
C538 C534 1.531 . S
C538 H550 0.960 . S
C538 H551 0.962 . S
C538 H552 0.960 . S
C539 C536 1.511 . S
C539 H553 0.961 . S
C539 H554 0.961 . S
C539 H555 0.961 . S
C540 C541 1.370 . S
C540 C542 1.363 . S
C540 H556 0.931 . S
C541 C540 1.370 . S
C541 C545 1.408 . S
C542 C540 1.363 . S
C542 C543 1.370 . S
C542 C546 1.524 . S
C543 C535 1.503 . S
C543 C542 1.370 . S
C543 C544 1.403 . S
C544 C543 1.403 . S
C544 C545 1.404 . S
C544 C547 1.539 . S
C545 C541 1.408 . S
C545 C544 1.404 . S
C545 H557 0.930 . S
C546 C542 1.524 . S
C546 H558 0.956 . S
C546 H559 0.961 . S
C546 H560 0.961 . S
C547 C544 1.539 . S
C547 H561 0.958 . S
C547 H562 0.961 . S
C547 H563 0.960 . S
H548 C532 0.931 . S
H549 C537 0.929 . S
H550 C538 0.960 . S
H551 C538 0.962 . S
H552 C538 0.960 . S
H553 C539 0.961 . S
H554 C539 0.961 . S
H555 C539 0.961 . S
H556 C540 0.931 . S
H557 C545 0.930 . S
H558 C546 0.956 . S
H559 C546 0.961 . S
H560 C546 0.961 . S
H561 C547 0.958 . S
H562 C547 0.961 . S
H563 C547 0.960 . S
C564 C565 1.391 . S
C564 C566 1.394 . S
C564 H580 0.931 . S
C565 C564 1.391 . S
C565 C569 1.376 . S
C566 C564 1.394 . S
C566 C567 1.369 . S
C566 C570 1.531 . S
C567 C566 1.369 . S
C567 C568 1.410 . S
C567 C575 1.503 . S
C568 C567 1.410 . S
C568 C569 1.392 . S
C568 C571 1.511 . S
C569 C565 1.376 . S
C569 C568 1.392 . S
C569 H581 0.929 . S
C570 C566 1.531 . S
C570 H582 0.960 . S
C570 H583 0.962 . S
C570 H584 0.960 . S
C571 C568 1.511 . S
C571 H585 0.961 . S
C571 H586 0.961 . S
C571 H587 0.961 . S
C572 C573 1.370 . S
C572 C574 1.363 . S
C572 H588 0.931 . S
C573 C572 1.370 . S
C573 C577 1.408 . S
C574 C572 1.363 . S
C574 C575 1.370 . S
C574 C578 1.524 . S
C575 C567 1.503 . S
C575 C574 1.370 . S
C575 C576 1.403 . S
C576 C575 1.403 . S
C576 C577 1.404 . S
C576 C579 1.539 . S
C577 C573 1.408 . S
C577 C576 1.404 . S
C577 H589 0.930 . S
C578 C574 1.524 . S
C578 H590 0.956 . S
C578 H591 0.961 . S
C578 H592 0.961 . S
C579 C576 1.539 . S
C579 H593 0.958 . S
C579 H594 0.961 . S
C579 H595 0.960 . S
H580 C564 0.931 . S
H581 C569 0.929 . S
H582 C570 0.960 . S
H583 C570 0.962 . S
H584 C570 0.960 . S
H585 C571 0.961 . S
H586 C571 0.961 . S
H587 C571 0.961 . S
H588 C572 0.931 . S
H589 C577 0.930 . S
H590 C578 0.956 . S
H591 C578 0.961 . S
H592 C578 0.961 . S
H593 C579 0.958 . S
H594 C579 0.961 . S
H595 C579 0.960 . S
C596 C597 1.391 . S
C596 C598 1.394 . S
C596 H612 0.931 . S
C597 C596 1.391 . S
C597 C601 1.376 . S
C598 C596 1.394 . S
C598 C599 1.369 . S
C598 C602 1.531 . S
C599 C598 1.369 . S
C599 C600 1.410 . S
C599 C607 1.503 . S
C600 C599 1.410 . S
C600 C601 1.392 . S
C600 C603 1.511 . S
C601 C597 1.376 . S
C601 C600 1.392 . S
C601 H613 0.929 . S
C602 C598 1.531 . S
C602 H614 0.960 . S
C602 H615 0.962 . S
C602 H616 0.960 . S
C603 C600 1.511 . S
C603 H617 0.961 . S
C603 H618 0.961 . S
C603 H619 0.961 . S
C604 C605 1.370 . S
C604 C606 1.363 . S
C604 H620 0.931 . S
C605 C604 1.370 . S
C605 C609 1.408 . S
C606 C604 1.363 . S
C606 C607 1.370 . S
C606 C610 1.524 . S
C607 C599 1.503 . S
C607 C606 1.370 . S
C607 C608 1.403 . S
C608 C607 1.403 . S
C608 C609 1.404 . S
C608 C611 1.539 . S
C609 C605 1.408 . S
C609 C608 1.404 . S
C609 H621 0.930 . S
C610 C606 1.524 . S
C610 H622 0.956 . S
C610 H623 0.961 . S
C610 H624 0.961 . S
C611 C608 1.539 . S
C611 H625 0.958 . S
C611 H626 0.961 . S
C611 H627 0.960 . S
H612 C596 0.931 . S
H613 C601 0.929 . S
H614 C602 0.960 . S
H615 C602 0.962 . S
H616 C602 0.960 . S
H617 C603 0.961 . S
H618 C603 0.961 . S
H619 C603 0.961 . S
H620 C604 0.931 . S
H621 C609 0.930 . S
H622 C610 0.956 . S
H623 C610 0.961 . S
H624 C610 0.961 . S
H625 C611 0.958 . S
H626 C611 0.961 . S
H627 C611 0.960 . S
C628 C629 1.391 . S
C628 C630 1.394 . S
C628 H644 0.931 . S
C629 C628 1.391 . S
C629 C633 1.376 . S
C630 C628 1.394 . S
C630 C631 1.369 . S
C630 C634 1.531 . S
C631 C630 1.369 . S
C631 C632 1.410 . S
C631 C639 1.503 . S
C632 C631 1.410 . S
C632 C633 1.392 . S
C632 C635 1.511 . S
C633 C629 1.376 . S
C633 C632 1.392 . S
C633 H645 0.929 . S
C634 C630 1.531 . S
C634 H646 0.960 . S
C634 H647 0.962 . S
C634 H648 0.960 . S
C635 C632 1.511 . S
C635 H649 0.961 . S
C635 H650 0.961 . S
C635 H651 0.961 . S
C636 C637 1.370 . S
C636 C638 1.363 . S
C636 H652 0.931 . S
C637 C636 1.370 . S
C637 C641 1.408 . S
C638 C636 1.363 . S
C638 C639 1.370 . S
C638 C642 1.524 . S
C639 C631 1.503 . S
C639 C638 1.370 . S
C639 C640 1.403 . S
C640 C639 1.403 . S
C640 C641 1.404 . S
C640 C643 1.539 . S
C641 C637 1.408 . S
C641 C640 1.404 . S
C641 H653 0.930 . S
C642 C638 1.524 . S
C642 H654 0.956 . S
C642 H655 0.961 . S
C642 H656 0.961 . S
C643 C640 1.539 . S
C643 H657 0.958 . S
C643 H658 0.961 . S
C643 H659 0.960 . S
H644 C628 0.931 . S
H645 C633 0.929 . S
H646 C634 0.960 . S
H647 C634 0.962 . S
H648 C634 0.960 . S
H649 C635 0.961 . S
H650 C635 0.961 . S
H651 C635 0.961 . S
H652 C636 0.931 . S
H653 C641 0.930 . S
H654 C642 0.956 . S
H655 C642 0.961 . S
H656 C642 0.961 . S
H657 C643 0.958 . S
H658 C643 0.961 . S
H659 C643 0.960 . S
C660 C661 1.391 . S
C660 C662 1.394 . S
C660 H676 0.931 . S
C661 C660 1.391 . S
C661 C665 1.376 . S
C662 C660 1.394 . S
C662 C663 1.369 . S
C662 C666 1.531 . S
C663 C662 1.369 . S
C663 C664 1.410 . S
C663 C671 1.503 . S
C664 C663 1.410 . S
C664 C665 1.392 . S
C664 C667 1.511 . S
C665 C661 1.376 . S
C665 C664 1.392 . S
C665 H677 0.929 . S
C666 C662 1.531 . S
C666 H678 0.960 . S
C666 H679 0.962 . S
C666 H680 0.960 . S
C667 C664 1.511 . S
C667 H681 0.961 . S
C667 H682 0.961 . S
C667 H683 0.961 . S
C668 C669 1.370 . S
C668 C670 1.363 . S
C668 H684 0.931 . S
C669 C668 1.370 . S
C669 C673 1.408 . S
C670 C668 1.363 . S
C670 C671 1.370 . S
C670 C674 1.524 . S
C671 C663 1.503 . S
C671 C670 1.370 . S
C671 C672 1.403 . S
C672 C671 1.403 . S
C672 C673 1.404 . S
C672 C675 1.539 1_554 S
C673 C669 1.408 . S
C673 C672 1.404 . S
C673 H685 0.930 . S
C674 C670 1.524 . S
C674 H686 0.956 . S
C674 H687 0.961 . S
C674 H688 0.961 . S
C675 C672 1.539 1_556 S
C675 H689 0.958 . S
C675 H690 0.961 . S
C675 H691 0.960 . S
H676 C660 0.931 . S
H677 C665 0.929 . S
H678 C666 0.960 . S
H679 C666 0.962 . S
H680 C666 0.960 . S
H681 C667 0.961 . S
H682 C667 0.961 . S
H683 C667 0.961 . S
H684 C668 0.931 . S
H685 C673 0.930 . S
H686 C674 0.956 . S
H687 C674 0.961 . S
H688 C674 0.961 . S
H689 C675 0.958 . S
H690 C675 0.961 . S
H691 C675 0.960 . S
C692 C693 1.391 . S
C692 C694 1.394 . S
C692 H708 0.931 . S
C693 C692 1.391 . S
C693 C697 1.376 . S
C694 C692 1.394 . S
C694 C695 1.369 . S
C694 C698 1.531 . S
C695 C694 1.369 . S
C695 C696 1.410 . S
C695 C703 1.503 . S
C696 C695 1.410 . S
C696 C697 1.392 . S
C696 C699 1.511 . S
C697 C693 1.376 . S
C697 C696 1.392 . S
C697 H709 0.929 . S
C698 C694 1.531 . S
C698 H710 0.960 . S
C698 H711 0.962 . S
C698 H712 0.960 . S
C699 C696 1.511 . S
C699 H713 0.961 . S
C699 H714 0.961 . S
C699 H715 0.961 . S
C700 C701 1.370 . S
C700 C702 1.363 . S
C700 H716 0.931 . S
C701 C700 1.370 . S
C701 C705 1.408 . S
C702 C700 1.363 . S
C702 C703 1.370 . S
C702 C706 1.524 . S
C703 C695 1.503 . S
C703 C702 1.370 . S
C703 C704 1.403 . S
C704 C703 1.403 . S
C704 C705 1.404 . S
C704 C707 1.539 . S
C705 C701 1.408 . S
C705 C704 1.404 . S
C705 H717 0.930 . S
C706 C702 1.524 . S
C706 H718 0.956 . S
C706 H719 0.961 . S
C706 H720 0.961 . S
C707 C704 1.539 . S
C707 H721 0.958 . S
C707 H722 0.961 . S
C707 H723 0.960 . S
H708 C692 0.931 . S
H709 C697 0.929 . S
H710 C698 0.960 . S
H711 C698 0.962 . S
H712 C698 0.960 . S
H713 C699 0.961 . S
H714 C699 0.961 . S
H715 C699 0.961 . S
H716 C700 0.931 . S
H717 C705 0.930 . S
H718 C706 0.956 . S
H719 C706 0.961 . S
H720 C706 0.961 . S
H721 C707 0.958 . S
H722 C707 0.961 . S
H723 C707 0.960 . S
C724 C725 1.391 . S
C724 C726 1.394 . S
C724 H740 0.931 . S
C725 C724 1.391 . S
C725 C729 1.376 . S
C726 C724 1.394 . S
C726 C727 1.369 . S
C726 C730 1.531 . S
C727 C726 1.369 . S
C727 C728 1.410 . S
C727 C735 1.503 . S
C728 C727 1.410 . S
C728 C729 1.392 . S
C728 C731 1.511 . S
C729 C725 1.376 . S
C729 C728 1.392 . S
C729 H741 0.929 . S
C730 C726 1.531 . S
C730 H742 0.960 . S
C730 H743 0.962 . S
C730 H744 0.960 . S
C731 C728 1.511 . S
C731 H745 0.961 . S
C731 H746 0.961 . S
C731 H747 0.961 . S
C732 C733 1.370 . S
C732 C734 1.363 . S
C732 H748 0.931 . S
C733 C732 1.370 . S
C733 C737 1.408 . S
C734 C732 1.363 . S
C734 C735 1.370 . S
C734 C738 1.524 . S
C735 C727 1.503 . S
C735 C734 1.370 . S
C735 C736 1.403 . S
C736 C735 1.403 . S
C736 C737 1.404 . S
C736 C739 1.539 . S
C737 C733 1.408 . S
C737 C736 1.404 . S
C737 H749 0.930 . S
C738 C734 1.524 . S
C738 H750 0.956 . S
C738 H751 0.961 . S
C738 H752 0.961 . S
C739 C736 1.539 . S
C739 H753 0.958 . S
C739 H754 0.961 . S
C739 H755 0.960 . S
H740 C724 0.931 . S
H741 C729 0.929 . S
H742 C730 0.960 . S
H743 C730 0.962 . S
H744 C730 0.960 . S
H745 C731 0.961 . S
H746 C731 0.961 . S
H747 C731 0.961 . S
H748 C732 0.931 . S
H749 C737 0.930 . S
H750 C738 0.956 . S
H751 C738 0.961 . S
H752 C738 0.961 . S
H753 C739 0.958 . S
H754 C739 0.961 . S
H755 C739 0.960 . S
C756 C757 1.391 . S
C756 C758 1.394 . S
C756 H772 0.931 . S
C757 C756 1.391 . S
C757 C761 1.376 . S
C758 C756 1.394 . S
C758 C759 1.369 . S
C758 C762 1.531 . S
C759 C758 1.369 . S
C759 C760 1.410 . S
C759 C767 1.503 . S
C760 C759 1.410 . S
C760 C761 1.392 . S
C760 C763 1.511 . S
C761 C757 1.376 . S
C761 C760 1.392 . S
C761 H773 0.929 . S
C762 C758 1.531 . S
C762 H774 0.960 . S
C762 H775 0.962 . S
C762 H776 0.960 . S
C763 C760 1.511 . S
C763 H777 0.961 . S
C763 H778 0.961 . S
C763 H779 0.961 . S
C764 C765 1.370 . S
C764 C766 1.363 . S
C764 H780 0.931 . S
C765 C764 1.370 . S
C765 C769 1.408 . S
C766 C764 1.363 . S
C766 C767 1.370 . S
C766 C770 1.524 . S
C767 C759 1.503 . S
C767 C766 1.370 . S
C767 C768 1.403 . S
C768 C767 1.403 . S
C768 C769 1.404 . S
C768 C771 1.539 . S
C769 C765 1.408 . S
C769 C768 1.404 . S
C769 H781 0.930 . S
C770 C766 1.524 . S
C770 H782 0.956 . S
C770 H783 0.961 . S
C770 H784 0.961 . S
C771 C768 1.539 . S
C771 H785 0.958 . S
C771 H786 0.961 . S
C771 H787 0.960 . S
H772 C756 0.931 . S
H773 C761 0.929 . S
H774 C762 0.960 . S
H775 C762 0.962 . S
H776 C762 0.960 . S
H777 C763 0.961 . S
H778 C763 0.961 . S
H779 C763 0.961 . S
H780 C764 0.931 . S
H781 C769 0.930 . S
H782 C770 0.956 . S
H783 C770 0.961 . S
H784 C770 0.961 . S
H785 C771 0.958 . S
H786 C771 0.961 . S
H787 C771 0.960 . S
C788 C789 1.391 . S
C788 C790 1.394 . S
C788 H804 0.931 . S
C789 C788 1.391 . S
C789 C793 1.376 . S
C790 C788 1.394 . S
C790 C791 1.369 . S
C790 C794 1.531 . S
C791 C790 1.369 . S
C791 C792 1.410 . S
C791 C799 1.503 . S
C792 C791 1.410 . S
C792 C793 1.392 . S
C792 C795 1.511 . S
C793 C789 1.376 . S
C793 C792 1.392 . S
C793 H805 0.929 . S
C794 C790 1.531 . S
C794 H806 0.960 . S
C794 H807 0.962 . S
C794 H808 0.960 . S
C795 C792 1.511 . S
C795 H809 0.961 . S
C795 H810 0.961 . S
C795 H811 0.961 . S
C796 C797 1.370 . S
C796 C798 1.363 . S
C796 H812 0.931 . S
C797 C796 1.370 . S
C797 C801 1.408 . S
C798 C796 1.363 . S
C798 C799 1.370 . S
C798 C802 1.524 . S
C799 C791 1.503 . S
C799 C798 1.370 . S
C799 C800 1.403 . S
C800 C799 1.403 . S
C800 C801 1.404 . S
C800 C803 1.539 . S
C801 C797 1.408 . S
C801 C800 1.404 . S
C801 H813 0.930 . S
C802 C798 1.524 . S
C802 H814 0.956 . S
C802 H815 0.961 . S
C802 H816 0.961 . S
C803 C800 1.539 . S
C803 H817 0.958 . S
C803 H818 0.961 . S
C803 H819 0.960 . S
H804 C788 0.931 . S
H805 C793 0.929 . S
H806 C794 0.960 . S
H807 C794 0.962 . S
H808 C794 0.960 . S
H809 C795 0.961 . S
H810 C795 0.961 . S
H811 C795 0.961 . S
H812 C796 0.931 . S
H813 C801 0.930 . S
H814 C802 0.956 . S
H815 C802 0.961 . S
H816 C802 0.961 . S
H817 C803 0.958 . S
H818 C803 0.961 . S
H819 C803 0.960 . S
C820 C821 1.391 . S
C820 C822 1.394 . S
C820 H836 0.931 . S
C821 C820 1.391 . S
C821 C825 1.376 . S
C822 C820 1.394 . S
C822 C823 1.369 . S
C822 C826 1.531 . S
C823 C822 1.369 . S
C823 C824 1.410 . S
C823 C831 1.503 . S
C824 C823 1.410 . S
C824 C825 1.392 . S
C824 C827 1.511 . S
C825 C821 1.376 . S
C825 C824 1.392 . S
C825 H837 0.929 . S
C826 C822 1.531 . S
C826 H838 0.960 . S
C826 H839 0.962 . S
C826 H840 0.960 . S
C827 C824 1.511 . S
C827 H841 0.961 . S
C827 H842 0.961 . S
C827 H843 0.961 . S
C828 C829 1.370 . S
C828 C830 1.363 . S
C828 H844 0.931 . S
C829 C828 1.370 . S
C829 C833 1.408 . S
C830 C828 1.363 . S
C830 C831 1.370 . S
C830 C834 1.524 . S
C831 C823 1.503 . S
C831 C830 1.370 . S
C831 C832 1.403 . S
C832 C831 1.403 . S
C832 C833 1.404 . S
C832 C835 1.539 . S
C833 C829 1.408 . S
C833 C832 1.404 . S
C833 H845 0.930 . S
C834 C830 1.524 . S
C834 H846 0.956 . S
C834 H847 0.961 . S
C834 H848 0.961 . S
C835 C832 1.539 . S
C835 H849 0.958 . S
C835 H850 0.961 . S
C835 H851 0.960 . S
H836 C820 0.931 . S
H837 C825 0.929 . S
H838 C826 0.960 . S
H839 C826 0.962 . S
H840 C826 0.960 . S
H841 C827 0.961 . S
H842 C827 0.961 . S
H843 C827 0.961 . S
H844 C828 0.931 . S
H845 C833 0.930 . S
H846 C834 0.956 . S
H847 C834 0.961 . S
H848 C834 0.961 . S
H849 C835 0.958 . S
H850 C835 0.961 . S
H851 C835 0.960 . S
C852 C853 1.391 . S
C852 C854 1.394 . S
C852 H868 0.931 . S
C853 C852 1.391 . S
C853 C857 1.376 . S
C854 C852 1.394 . S
C854 C855 1.369 . S
C854 C858 1.531 . S
C855 C854 1.369 . S
C855 C856 1.410 . S
C855 C863 1.503 . S
C856 C855 1.410 . S
C856 C857 1.392 . S
C856 C859 1.511 . S
C857 C853 1.376 . S
C857 C856 1.392 . S
C857 H869 0.929 . S
C858 C854 1.531 . S
C858 H870 0.960 . S
C858 H871 0.962 . S
C858 H872 0.960 . S
C859 C856 1.511 . S
C859 H873 0.961 . S
C859 H874 0.961 . S
C859 H875 0.961 . S
C860 C861 1.370 1_556 S
C860 C862 1.363 . S
C860 H876 0.931 . S
C861 C860 1.370 1_554 S
C861 C865 1.408 . S
C862 C860 1.363 . S
C862 C863 1.370 . S
C862 C866 1.524 . S
C863 C855 1.503 . S
C863 C862 1.370 . S
C863 C864 1.403 1_556 S
C864 C863 1.403 1_554 S
C864 C865 1.404 . S
C864 C867 1.539 . S
C865 C861 1.408 . S
C865 C864 1.404 . S
C865 H877 0.930 . S
C866 C862 1.524 . S
C866 H878 0.956 . S
C866 H879 0.961 . S
C866 H880 0.961 . S
C867 C864 1.539 . S
C867 H881 0.958 . S
C867 H882 0.961 . S
C867 H883 0.960 1_554 S
H868 C852 0.931 . S
H869 C857 0.929 . S
H870 C858 0.960 . S
H871 C858 0.962 . S
H872 C858 0.960 . S
H873 C859 0.961 . S
H874 C859 0.961 . S
H875 C859 0.961 . S
H876 C860 0.931 . S
H877 C865 0.930 . S
H878 C866 0.956 . S
H879 C866 0.961 . S
H880 C866 0.961 . S
H881 C867 0.958 . S
H882 C867 0.961 . S
H883 C867 0.960 1_556 S
C884 C885 1.391 . S
C884 C886 1.394 . S
C884 H900 0.931 . S
C885 C884 1.391 . S
C885 C889 1.376 . S
C886 C884 1.394 . S
C886 C887 1.369 . S
C886 C890 1.531 . S
C887 C886 1.369 . S
C887 C888 1.410 . S
C887 C895 1.503 . S
C888 C887 1.410 . S
C888 C889 1.392 . S
C888 C891 1.511 . S
C889 C885 1.376 . S
C889 C888 1.392 . S
C889 H901 0.929 . S
C890 C886 1.531 . S
C890 H902 0.960 . S
C890 H903 0.962 . S
C890 H904 0.960 . S
C891 C888 1.511 . S
C891 H905 0.961 . S
C891 H906 0.961 . S
C891 H907 0.961 . S
C892 C893 1.370 . S
C892 C894 1.363 . S
C892 H908 0.931 . S
C893 C892 1.370 . S
C893 C897 1.408 . S
C894 C892 1.363 . S
C894 C895 1.370 . S
C894 C898 1.524 . S
C895 C887 1.503 . S
C895 C894 1.370 . S
C895 C896 1.403 . S
C896 C895 1.403 . S
C896 C897 1.404 . S
C896 C899 1.539 . S
C897 C893 1.408 . S
C897 C896 1.404 . S
C897 H909 0.930 . S
C898 C894 1.524 . S
C898 H910 0.956 . S
C898 H911 0.961 . S
C898 H912 0.961 . S
C899 C896 1.539 . S
C899 H913 0.958 . S
C899 H914 0.961 . S
C899 H915 0.960 . S
H900 C884 0.931 . S
H901 C889 0.929 . S
H902 C890 0.960 . S
H903 C890 0.962 . S
H904 C890 0.960 . S
H905 C891 0.961 . S
H906 C891 0.961 . S
H907 C891 0.961 . S
H908 C892 0.931 . S
H909 C897 0.930 . S
H910 C898 0.956 . S
H911 C898 0.961 . S
H912 C898 0.961 . S
H913 C899 0.958 . S
H914 C899 0.961 . S
H915 C899 0.960 . S
C916 C917 1.391 . S
C916 C918 1.394 . S
C916 H932 0.931 . S
C917 C916 1.391 . S
C917 C921 1.376 . S
C918 C916 1.394 . S
C918 C919 1.369 . S
C918 C922 1.531 . S
C919 C918 1.369 . S
C919 C920 1.410 . S
C919 C927 1.503 . S
C920 C919 1.410 . S
C920 C921 1.392 . S
C920 C923 1.511 . S
C921 C917 1.376 . S
C921 C920 1.392 . S
C921 H933 0.929 . S
C922 C918 1.531 . S
C922 H934 0.960 . S
C922 H935 0.962 . S
C922 H936 0.960 . S
C923 C920 1.511 . S
C923 H937 0.961 . S
C923 H938 0.961 . S
C923 H939 0.961 . S
C924 C925 1.370 . S
C924 C926 1.363 . S
C924 H940 0.931 . S
C925 C924 1.370 . S
C925 C929 1.408 . S
C926 C924 1.363 . S
C926 C927 1.370 . S
C926 C930 1.524 . S
C927 C919 1.503 . S
C927 C926 1.370 . S
C927 C928 1.403 . S
C928 C927 1.403 . S
C928 C929 1.404 . S
C928 C931 1.539 . S
C929 C925 1.408 . S
C929 C928 1.404 . S
C929 H941 0.930 . S
C930 C926 1.524 . S
C930 H942 0.956 . S
C930 H943 0.961 . S
C930 H944 0.961 . S
C931 C928 1.539 . S
C931 H945 0.958 . S
C931 H946 0.961 . S
C931 H947 0.960 . S
H932 C916 0.931 . S
H933 C921 0.929 . S
H934 C922 0.960 . S
H935 C922 0.962 . S
H936 C922 0.960 . S
H937 C923 0.961 . S
H938 C923 0.961 . S
H939 C923 0.961 . S
H940 C924 0.931 . S
H941 C929 0.930 . S
H942 C930 0.956 . S
H943 C930 0.961 . S
H944 C930 0.961 . S
H945 C931 0.958 . S
H946 C931 0.961 . S
H947 C931 0.960 . S
C948 C949 1.391 . S
C948 C950 1.394 . S
C948 H964 0.931 . S
C949 C948 1.391 . S
C949 C953 1.376 . S
C950 C948 1.394 . S
C950 C951 1.369 . S
C950 C954 1.531 . S
C951 C950 1.369 . S
C951 C952 1.410 . S
C951 C959 1.503 . S
C952 C951 1.410 . S
C952 C953 1.392 . S
C952 C955 1.511 . S
C953 C949 1.376 . S
C953 C952 1.392 . S
C953 H965 0.929 . S
C954 C950 1.531 . S
C954 H966 0.960 . S
C954 H967 0.962 . S
C954 H968 0.960 . S
C955 C952 1.511 . S
C955 H969 0.961 . S
C955 H970 0.961 . S
C955 H971 0.961 . S
C956 C957 1.370 . S
C956 C958 1.363 . S
C956 H972 0.931 . S
C957 C956 1.370 . S
C957 C961 1.408 . S
C958 C956 1.363 . S
C958 C959 1.370 . S
C958 C962 1.524 . S
C959 C951 1.503 . S
C959 C958 1.370 . S
C959 C960 1.403 . S
C960 C959 1.403 . S
C960 C961 1.404 . S
C960 C963 1.539 . S
C961 C957 1.408 . S
C961 C960 1.404 . S
C961 H973 0.930 . S
C962 C958 1.524 . S
C962 H974 0.956 . S
C962 H975 0.961 . S
C962 H976 0.961 . S
C963 C960 1.539 . S
C963 H977 0.958 . S
C963 H978 0.961 . S
C963 H979 0.960 . S
H964 C948 0.931 . S
H965 C953 0.929 . S
H966 C954 0.960 . S
H967 C954 0.962 . S
H968 C954 0.960 . S
H969 C955 0.961 . S
H970 C955 0.961 . S
H971 C955 0.961 . S
H972 C956 0.931 . S
H973 C961 0.930 . S
H974 C962 0.956 . S
H975 C962 0.961 . S
H976 C962 0.961 . S
H977 C963 0.958 . S
H978 C963 0.961 . S
H979 C963 0.960 . S
C980 C981 1.391 . S
C980 C982 1.394 . S
C980 H996 0.931 . S
C981 C980 1.391 . S
C981 C985 1.376 . S
C982 C980 1.394 . S
C982 C983 1.369 . S
C982 C986 1.531 . S
C983 C982 1.369 . S
C983 C984 1.410 . S
C983 C991 1.503 . S
C984 C983 1.410 . S
C984 C985 1.392 . S
C984 C987 1.511 . S
C985 C981 1.376 . S
C985 C984 1.392 . S
C985 H997 0.929 . S
C986 C982 1.531 . S
C986 H998 0.960 . S
C986 H999 0.962 . S
C986 H1000 0.960 . S
C987 C984 1.511 . S
C987 H1001 0.961 . S
C987 H1002 0.961 . S
C987 H1003 0.961 . S
C988 C989 1.370 . S
C988 C990 1.363 . S
C988 H1004 0.931 . S
C989 C988 1.370 . S
C989 C993 1.408 . S
C990 C988 1.363 . S
C990 C991 1.370 . S
C990 C994 1.524 . S
C991 C983 1.503 . S
C991 C990 1.370 . S
C991 C992 1.403 . S
C992 C991 1.403 . S
C992 C993 1.404 . S
C992 C995 1.539 . S
C993 C989 1.408 . S
C993 C992 1.404 . S
C993 H1005 0.930 . S
C994 C990 1.524 . S
C994 H1006 0.956 . S
C994 H1007 0.961 . S
C994 H1008 0.961 . S
C995 C992 1.539 . S
C995 H1009 0.958 . S
C995 H1010 0.961 . S
C995 H1011 0.960 . S
H996 C980 0.931 . S
H997 C985 0.929 . S
H998 C986 0.960 . S
H999 C986 0.962 . S
H1000 C986 0.960 . S
H1001 C987 0.961 . S
H1002 C987 0.961 . S
H1003 C987 0.961 . S
H1004 C988 0.931 . S
H1005 C993 0.930 . S
H1006 C994 0.956 . S
H1007 C994 0.961 . S
H1008 C994 0.961 . S
H1009 C995 0.958 . S
H1010 C995 0.961 . S
H1011 C995 0.960 . S
C1012 C1013 1.391 . S
C1012 C1014 1.394 . S
C1012 H1028 0.931 . S
C1013 C1012 1.391 . S
C1013 C1017 1.376 . S
C1014 C1012 1.394 . S
C1014 C1015 1.369 . S
C1014 C1018 1.531 . S
C1015 C1014 1.369 . S
C1015 C1016 1.410 . S
C1015 C1023 1.503 . S
C1016 C1015 1.410 . S
C1016 C1017 1.392 . S
C1016 C1019 1.511 . S
C1017 C1013 1.376 . S
C1017 C1016 1.392 . S
C1017 H1029 0.929 . S
C1018 C1014 1.531 . S
C1018 H1030 0.960 . S
C1018 H1031 0.962 . S
C1018 H1032 0.960 . S
C1019 C1016 1.511 . S
C1019 H1033 0.961 . S
C1019 H1034 0.961 . S
C1019 H1035 0.961 . S
C1020 C1021 1.370 . S
C1020 C1022 1.363 . S
C1020 H1036 0.931 . S
C1021 C1020 1.370 . S
C1021 C1025 1.408 . S
C1022 C1020 1.363 . S
C1022 C1023 1.370 . S
C1022 C1026 1.524 . S
C1023 C1015 1.503 . S
C1023 C1022 1.370 . S
C1023 C1024 1.403 . S
C1024 C1023 1.403 . S
C1024 C1025 1.404 . S
C1024 C1027 1.539 . S
C1025 C1021 1.408 . S
C1025 C1024 1.404 . S
C1025 H1037 0.930 . S
C1026 C1022 1.524 . S
C1026 H1038 0.956 . S
C1026 H1039 0.961 . S
C1026 H1040 0.961 . S
C1027 C1024 1.539 . S
C1027 H1041 0.958 . S
C1027 H1042 0.961 . S
C1027 H1043 0.960 . S
H1028 C1012 0.931 . S
H1029 C1017 0.929 . S
H1030 C1018 0.960 . S
H1031 C1018 0.962 . S
H1032 C1018 0.960 . S
H1033 C1019 0.961 . S
H1034 C1019 0.961 . S
H1035 C1019 0.961 . S
H1036 C1020 0.931 . S
H1037 C1025 0.930 . S
H1038 C1026 0.956 . S
H1039 C1026 0.961 . S
H1040 C1026 0.961 . S
H1041 C1027 0.958 . S
H1042 C1027 0.961 . S
H1043 C1027 0.960 . S
C1044 C1045 1.391 . S
C1044 C1046 1.394 . S
C1044 H1060 0.931 . S
C1045 C1044 1.391 . S
C1045 C1049 1.376 . S
C1046 C1044 1.394 . S
C1046 C1047 1.369 . S
C1046 C1050 1.531 . S
C1047 C1046 1.369 . S
C1047 C1048 1.410 . S
C1047 C1055 1.503 . S
C1048 C1047 1.410 . S
C1048 C1049 1.392 . S
C1048 C1051 1.511 . S
C1049 C1045 1.376 . S
C1049 C1048 1.392 . S
C1049 H1061 0.929 . S
C1050 C1046 1.531 . S
C1050 H1062 0.960 . S
C1050 H1063 0.962 . S
C1050 H1064 0.960 . S
C1051 C1048 1.511 . S
C1051 H1065 0.961 . S
C1051 H1066 0.961 . S
C1051 H1067 0.961 . S
C1052 C1053 1.370 . S
C1052 C1054 1.363 . S
C1052 H1068 0.931 . S
C1053 C1052 1.370 . S
C1053 C1057 1.408 . S
C1054 C1052 1.363 . S
C1054 C1055 1.370 . S
C1054 C1058 1.524 . S
C1055 C1047 1.503 . S
C1055 C1054 1.370 . S
C1055 C1056 1.403 . S
C1056 C1055 1.403 . S
C1056 C1057 1.404 . S
C1056 C1059 1.539 . S
C1057 C1053 1.408 . S
C1057 C1056 1.404 . S
C1057 H1069 0.930 . S
C1058 C1054 1.524 . S
C1058 H1070 0.956 . S
C1058 H1071 0.961 . S
C1058 H1072 0.961 . S
C1059 C1056 1.539 . S
C1059 H1073 0.958 . S
C1059 H1074 0.961 . S
C1059 H1075 0.960 . S
H1060 C1044 0.931 . S
H1061 C1049 0.929 . S
H1062 C1050 0.960 . S
H1063 C1050 0.962 . S
H1064 C1050 0.960 . S
H1065 C1051 0.961 . S
H1066 C1051 0.961 . S
H1067 C1051 0.961 . S
H1068 C1052 0.931 . S
H1069 C1057 0.930 . S
H1070 C1058 0.956 . S
H1071 C1058 0.961 . S
H1072 C1058 0.961 . S
H1073 C1059 0.958 . S
H1074 C1059 0.961 . S
H1075 C1059 0.960 . S
C1076 C1077 1.391 . S
C1076 C1078 1.394 . S
C1076 H1092 0.931 . S
C1077 C1076 1.391 . S
C1077 C1081 1.376 . S
C1078 C1076 1.394 . S
C1078 C1079 1.369 . S
C1078 C1082 1.515 1_554 S
C1079 C1078 1.369 . S
C1079 C1080 1.410 . S
C1079 C1087 1.503 . S
C1080 C1079 1.410 . S
C1080 C1081 1.392 . S
C1080 C1083 1.511 . S
C1081 C1077 1.376 . S
C1081 C1080 1.392 . S
C1081 H1093 0.929 . S
C1082 C1078 1.515 1_556 S
C1082 H1094 0.975 . S
C1082 H1095 0.962 . S
C1082 H1096 0.962 . S
C1083 C1080 1.511 . S
C1083 H1097 0.961 . S
C1083 H1098 0.961 . S
C1083 H1099 0.961 . S
C1084 C1085 1.370 . S
C1084 C1086 1.363 1_556 S
C1084 H1100 0.931 . S
C1085 C1084 1.370 . S
C1085 C1089 1.408 . S
C1086 C1084 1.363 1_554 S
C1086 C1087 1.370 . S
C1086 C1090 1.524 . S
C1087 C1079 1.503 . S
C1087 C1086 1.370 . S
C1087 C1088 1.403 1_554 S
C1088 C1087 1.403 1_556 S
C1088 C1089 1.404 . S
C1088 C1091 1.539 . S
C1089 C1085 1.408 . S
C1089 C1088 1.404 . S
C1089 H1101 0.930 . S
C1090 C1086 1.524 . S
C1090 H1102 0.956 . S
C1090 H1103 0.961 . S
C1090 H1104 0.961 . S
C1091 C1088 1.539 . S
C1091 H1105 0.958 . S
C1091 H1106 0.961 . S
C1091 H1107 0.960 1_556 S
H1092 C1076 0.931 . S
H1093 C1081 0.929 . S
H1094 C1082 0.975 . S
H1095 C1082 0.962 . S
H1096 C1082 0.962 . S
H1097 C1083 0.961 . S
H1098 C1083 0.961 . S
H1099 C1083 0.961 . S
H1100 C1084 0.931 . S
H1101 C1089 0.930 . S
H1102 C1090 0.956 . S
H1103 C1090 0.961 . S
H1104 C1090 0.961 . S
H1105 C1091 0.958 . S
H1106 C1091 0.961 . S
H1107 C1091 0.960 1_554 S
C1108 C1109 1.391 . S
C1108 C1110 1.394 . S
C1108 H1124 0.931 . S
C1109 C1108 1.391 . S
C1109 C1113 1.376 . S
C1110 C1108 1.394 . S
C1110 C1111 1.369 . S
C1110 C1114 1.531 . S
C1111 C1110 1.369 . S
C1111 C1112 1.410 . S
C1111 C1119 1.503 . S
C1112 C1111 1.410 . S
C1112 C1113 1.392 . S
C1112 C1115 1.511 . S
C1113 C1109 1.376 . S
C1113 C1112 1.392 . S
C1113 H1125 0.929 . S
C1114 C1110 1.531 . S
C1114 H1126 0.960 . S
C1114 H1127 0.962 . S
C1114 H1128 0.960 . S
C1115 C1112 1.511 . S
C1115 H1129 0.961 . S
C1115 H1130 0.961 . S
C1115 H1131 0.961 . S
C1116 C1117 1.370 . S
C1116 C1118 1.363 . S
C1116 H1132 0.931 . S
C1117 C1116 1.370 . S
C1117 C1121 1.408 . S
C1118 C1116 1.363 . S
C1118 C1119 1.370 . S
C1118 C1122 1.524 . S
C1119 C1111 1.503 . S
C1119 C1118 1.370 . S
C1119 C1120 1.403 . S
C1120 C1119 1.403 . S
C1120 C1121 1.404 . S
C1120 C1123 1.539 . S
C1121 C1117 1.408 . S
C1121 C1120 1.404 . S
C1121 H1133 0.930 . S
C1122 C1118 1.524 . S
C1122 H1134 0.956 . S
C1122 H1135 0.961 . S
C1122 H1136 0.961 . S
C1123 C1120 1.539 . S
C1123 H1137 0.958 . S
C1123 H1138 0.961 . S
C1123 H1139 0.960 . S
H1124 C1108 0.931 . S
H1125 C1113 0.929 . S
H1126 C1114 0.960 . S
H1127 C1114 0.962 . S
H1128 C1114 0.960 . S
H1129 C1115 0.961 . S
H1130 C1115 0.961 . S
H1131 C1115 0.961 . S
H1132 C1116 0.931 . S
H1133 C1121 0.930 . S
H1134 C1122 0.956 . S
H1135 C1122 0.961 . S
H1136 C1122 0.961 . S
H1137 C1123 0.958 . S
H1138 C1123 0.961 . S
H1139 C1123 0.960 . S
C381 C361 1.611 . S
C373 C45 1.620 . S
C405 C84 1.602 . S
C413 C291 1.617 . S
C437 C126 1.614 . S
C445 C310 1.635 . S
C469 C189 1.620 . S
C477 C319 1.613 . S
C509 C333 1.611 . S
C501 C228 1.602 . S
C533 C270 1.591 . S
C541 C352 1.639 . S
C565 C69 1.574 . S
C573 C305 1.594 . S
C597 C141 1.610 . S
C605 C324 1.617 . S
C629 C174 1.557 . S
C637 C338 1.612 . S
C669 C347 1.590 . S
C661 C213 1.568 . S
C701 C366 1.612 . S
C693 C285 1.613 . S
C733 C296 1.611 . S
C725 C30 1.596 . S
C757 C36 1.502 . S
C765 C311 1.488 . S
C789 C93 1.495 . S
C797 C323 1.485 . S
C829 C337 1.475 . S
C821 C117 1.505 . S
C853 C180 1.504 . S
C861 C353 1.493 . S
C893 C365 1.470 . S
C885 C237 1.497 . S
C925 C295 1.483 . S
C917 C261 1.494 . S
C957 C367 1.497 . S
C949 C78 1.498 . S
C981 C132 1.519 . S
C989 C297 1.512 . S
C1021 C309 1.495 . S
C1013 C165 1.509 . S
C1045 C222 1.509 . S
C1053 C325 1.492 . S
C1077 C276 1.518 . S
C1085 C339 1.512 . S
C1109 C21 1.513 . S
C1117 C351 1.485 . S
