# Generated by pormake.
# Topology pyr, (3,6)-cn, num edge types: 1
# Building blocks:
#     Node 0, Type 0, BuildingBlock: CUQRIR_clean_linker_1, # of connection points: 3
#     Node 1, Type 0, BuildingBlock: CUQRIR_clean_linker_1, # of connection points: 3
#     Node 2, Type 0, BuildingBlock: CUQRIR_clean_linker_1, # of connection points: 3
#     Node 3, Type 0, BuildingBlock: CUQRIR_clean_linker_1, # of connection points: 3
#     Node 4, Type 0, BuildingBlock: CUQRIR_clean_linker_1, # of connection points: 3
#     Node 5, Type 0, BuildingBlock: CUQRIR_clean_linker_1, # of connection points: 3
#     Node 6, Type 0, BuildingBlock: CUQRIR_clean_linker_1, # of connection points: 3
#     Node 7, Type 0, BuildingBlock: CUQRIR_clean_linker_1, # of connection points: 3
#     Node 8, Type 1, BuildingBlock: BETDAH_clean_sbu_0, # of connection points: 6
#     Node 9, Type 1, BuildingBlock: BETDAH_clean_sbu_0, # of connection points: 6
#     Node 10, Type 1, BuildingBlock: BETDAH_clean_sbu_0, # of connection points: 6
#     Node 11, Type 1, BuildingBlock: BETDAH_clean_sbu_0, # of connection points: 6
#     Edge 12, Type (0, 1), BuildingBlock: CIFDUS_clean_linker_0, # of connection points: 2
#     Edge 13, Type (0, 1), BuildingBlock: CIFDUS_clean_linker_0, # of connection points: 2
#     Edge 14, Type (0, 1), BuildingBlock: CIFDUS_clean_linker_0, # of connection points: 2
#     Edge 15, Type (0, 1), BuildingBlock: CIFDUS_clean_linker_0, # of connection points: 2
#     Edge 16, Type (0, 1), BuildingBlock: CIFDUS_clean_linker_0, # of connection points: 2
#     Edge 17, Type (0, 1), BuildingBlock: CIFDUS_clean_linker_0, # of connection points: 2
#     Edge 18, Type (0, 1), BuildingBlock: CIFDUS_clean_linker_0, # of connection points: 2
#     Edge 19, Type (0, 1), BuildingBlock: CIFDUS_clean_linker_0, # of connection points: 2
#     Edge 20, Type (0, 1), BuildingBlock: CIFDUS_clean_linker_0, # of connection points: 2
#     Edge 21, Type (0, 1), BuildingBlock: CIFDUS_clean_linker_0, # of connection points: 2
#     Edge 22, Type (0, 1), BuildingBlock: CIFDUS_clean_linker_0, # of connection points: 2
#     Edge 23, Type (0, 1), BuildingBlock: CIFDUS_clean_linker_0, # of connection points: 2
#     Edge 24, Type (0, 1), BuildingBlock: CIFDUS_clean_linker_0, # of connection points: 2
#     Edge 25, Type (0, 1), BuildingBlock: CIFDUS_clean_linker_0, # of connection points: 2
#     Edge 26, Type (0, 1), BuildingBlock: CIFDUS_clean_linker_0, # of connection points: 2
#     Edge 27, Type (0, 1), BuildingBlock: CIFDUS_clean_linker_0, # of connection points: 2
#     Edge 28, Type (0, 1), BuildingBlock: CIFDUS_clean_linker_0, # of connection points: 2
#     Edge 29, Type (0, 1), BuildingBlock: CIFDUS_clean_linker_0, # of connection points: 2
#     Edge 30, Type (0, 1), BuildingBlock: CIFDUS_clean_linker_0, # of connection points: 2
#     Edge 31, Type (0, 1), BuildingBlock: CIFDUS_clean_linker_0, # of connection points: 2
#     Edge 32, Type (0, 1), BuildingBlock: CIFDUS_clean_linker_0, # of connection points: 2
#     Edge 33, Type (0, 1), BuildingBlock: CIFDUS_clean_linker_0, # of connection points: 2
#     Edge 34, Type (0, 1), BuildingBlock: CIFDUS_clean_linker_0, # of connection points: 2
#     Edge 35, Type (0, 1), BuildingBlock: CIFDUS_clean_linker_0, # of connection points: 2
# Relax obj value: 0.239
# Max RMSD: 0.265
# Mean RMSD: 0.172
data_MOF--net-pyr--node1-BETDAH_clean_sbu_0--node2-CUQRIR_clean_linker_1--edge1-CIFDUS_clean_linker_0
_symmetry_space_group_name_H-M    P1
_symmetry_Int_Tables_number       1
_symmetry_cell_setting            triclinic
loop_
_symmetry_equiv_pos_as_xyz
'x, y, z'
_cell_length_a     30.834161
_cell_length_b     31.539451
_cell_length_c     28.140207
_cell_angle_alpha  90.203731
_cell_angle_beta   88.789758
_cell_angle_gamma 107.75234
loop_
_atom_site_label
_atom_site_type_symbol
_atom_site_fract_x
_atom_site_fract_y
_atom_site_fract_z
_atom_type_partial_charge
C0 C 0.4101 0.46087 0.24374 0.0
N1 N 0.43212 0.43061 0.25256 0.0
N2 N 0.41842 0.47669 0.19868 0.0
C3 C 0.37267 0.46771 0.27547 0.0
C4 C 0.44774 0.45596 0.18077 0.0
N5 N 0.45697 0.42886 0.21377 0.0
C6 C 0.4624 0.45786 0.12944 0.0
H7 H 0.34273 0.43731 0.27506 0.0
H8 H 0.36197 0.4965 0.26393 0.0
H9 H 0.38442 0.47362 0.31255 0.0
H10 H 0.46437 0.49071 0.11389 0.0
H11 H 0.43679 0.43176 0.10963 0.0
H12 H 0.49586 0.4517 0.12552 0.0
C13 C 0.1528 0.88278 0.70246 0.0
N14 N 0.15524 0.91736 0.73187 0.0
N15 N 0.16763 0.85161 0.72387 0.0
C16 C 0.14124 0.88142 0.65069 0.0
C17 C 0.17655 0.86755 0.76866 0.0
N18 N 0.16963 0.90774 0.77341 0.0
C19 C 0.20241 0.84908 0.80389 0.0
H20 H 0.12583 0.84641 0.63925 0.0
H21 H 0.1728 0.89581 0.62908 0.0
H22 H 0.11738 0.90082 0.64402 0.0
H23 H 0.23813 0.87113 0.80509 0.0
H24 H 0.2024 0.81494 0.79449 0.0
H25 H 0.18696 0.84807 0.83995 0.0
C26 C 0.63734 0.44706 0.89214 0.0
N27 N 0.66308 0.44625 0.93066 0.0
N28 N 0.65325 0.48633 0.86818 0.0
C29 C 0.59454 0.41074 0.87998 0.0
C30 C 0.68972 0.50938 0.89377 0.0
N31 N 0.69543 0.48554 0.93212 0.0
C32 C 0.72176 0.5541 0.87933 0.0
H33 H 0.57021 0.42451 0.86178 0.0
H34 H 0.57765 0.39235 0.91222 0.0
H35 H 0.60358 0.38677 0.85576 0.0
H36 H 0.72179 0.55888 0.84028 0.0
H37 H 0.75698 0.55755 0.89044 0.0
H38 H 0.71057 0.58069 0.89684 0.0
C39 C 0.84314 0.75671 0.37806 0.0
N40 N 0.88753 0.78137 0.3693 0.0
N41 N 0.82246 0.77715 0.40971 0.0
C42 C 0.81827 0.71449 0.3526 0.0
C43 C 0.8552 0.81551 0.41964 0.0
N44 N 0.89458 0.81885 0.39501 0.0
C45 C 0.84931 0.84896 0.45575 0.0
H46 H 0.83093 0.71503 0.31534 0.0
H47 H 0.7811 0.70967 0.35247 0.0
H48 H 0.82378 0.6857 0.37126 0.0
H49 H 0.88058 0.86252 0.47665 0.0
H50 H 0.82046 0.83404 0.48079 0.0
H51 H 0.84264 0.87707 0.43683 0.0
C52 C 0.61974 0.84207 0.9603 0.0
N53 N 0.65427 0.83138 0.93788 0.0
N54 N 0.61161 0.87747 0.93936 0.0
C55 C 0.59668 0.82113 1.00579 0.0
C56 C 0.64087 0.88611 0.90149 0.0
N57 N 0.66721 0.85879 0.90093 0.0
C58 C 0.65113 0.92789 0.87194 0.0
H59 H 0.59923 0.787 1.01003 0.0
H60 H 0.56034 0.81999 1.00595 0.0
H61 H 0.6128 0.84164 1.03649 0.0
H62 H 0.67715 0.95509 0.88999 0.0
H63 H 0.62005 0.93813 0.86782 0.0
H64 H 0.66475 0.92282 0.83629 0.0
C65 C 0.84852 0.33766 0.56925 0.0
N66 N 0.8689 0.32185 0.53331 0.0
N67 N 0.82515 0.36399 0.55196 0.0
C68 C 0.84926 0.32556 0.62067 0.0
C69 C 0.83145 0.36287 0.50422 0.0
N70 N 0.85834 0.33743 0.49287 0.0
C71 C 0.80547 0.38039 0.46822 0.0
H72 H 0.82199 0.29379 0.6277 0.0
H73 H 0.84293 0.35167 0.64388 0.0
H74 H 0.88241 0.32073 0.62924 0.0
H75 H 0.78786 0.35337 0.44356 0.0
H76 H 0.82991 0.40686 0.44674 0.0
H77 H 0.77978 0.39419 0.48467 0.0
C78 C 0.35805 0.7751 0.29372 0.0
N79 N 0.39651 0.80674 0.3077 0.0
N80 N 0.33939 0.78901 0.256 0.0
C81 C 0.33736 0.73101 0.31842 0.0
C82 C 0.36771 0.83059 0.24734 0.0
N83 N 0.40258 0.84175 0.27855 0.0
C84 C 0.36259 0.86008 0.20701 0.0
H85 H 0.3529 0.70636 0.30331 0.0
H86 H 0.30004 0.71851 0.31325 0.0
H87 H 0.34404 0.73386 0.35707 0.0
H88 H 0.36692 0.8943 0.22021 0.0
H89 H 0.32957 0.84764 0.18916 0.0
H90 H 0.38955 0.86201 0.17967 0.0
C91 C 0.1395 0.44537 0.79411 0.0
N92 N 0.16887 0.44072 0.75874 0.0
N93 N 0.1515 0.48788 0.81137 0.0
C94 C 0.09944 0.40788 0.8122 0.0
C95 C 0.18923 0.50887 0.78468 0.0
N96 N 0.19964 0.48076 0.75265 0.0
C97 C 0.21602 0.55724 0.7897 0.0
H98 H 0.07908 0.39051 0.78189 0.0
H99 H 0.07726 0.41903 0.83745 0.0
H100 H 0.11203 0.38347 0.83134 0.0
H101 H 0.24228 0.56041 0.81697 0.0
H102 H 0.19356 0.5771 0.80123 0.0
H103 H 0.23353 0.57113 0.75583 0.0
Ho104 Ho 0.08567 0.1504 0.53009 0.0
Ho105 Ho 0.0359 0.09561 0.61474 0.0
C106 C 0.09602 0.20133 0.62883 0.0
C107 C 0.12044 0.19351 0.45431 0.0
C108 C 0.16743 0.22227 0.44441 0.0
C109 C 0.17798 0.26887 0.44599 0.0
C110 C 0.2226 0.29599 0.43735 0.0
C111 C 0.25725 0.27692 0.42664 0.0
C112 C 0.24702 0.23045 0.42644 0.0
C113 C 0.20261 0.20338 0.4352 0.0
C114 C 0.13649 0.11625 0.58637 0.0
C115 C 1.02198 1.04811 0.513 0.0
C116 C 1.01061 1.05054 0.69245 0.0
C117 C 0.97007 1.01529 0.70872 0.0
C118 C 0.92869 1.00746 0.68529 0.0
C119 C 0.88942 0.97605 0.70319 0.0
C120 C 0.89104 0.95188 0.74467 0.0
C121 C 0.9332 0.9583 0.76652 0.0
C122 C 0.97242 0.98987 0.74868 0.0
C123 C 0.98333 0.13164 0.56239 0.0
O124 O 0.0959 0.20646 0.58226 0.0
O125 O 0.08085 0.16074 0.64834 0.0
O126 O 0.11533 0.15109 0.46 0.0
O127 O 0.09651 0.20857 0.48531 0.0
O128 O 0.15337 0.15328 0.56354 0.0
O129 O 0.09656 0.09806 0.57395 0.0
O130 O 1.0231 1.04108 0.55929 0.0
O131 O 0.03657 0.08924 0.49538 0.0
O132 O 1.00498 0.08939 0.68492 0.0
O133 O 0.03482 1.03927 0.65891 0.0
O134 O 0.96848 0.09344 0.58394 0.0
O135 O 1.02452 0.14931 0.57218 0.0
H136 H 0.15163 0.28433 0.45321 0.0
H137 H 0.22957 0.33179 0.43667 0.0
H138 H 0.2732 0.21507 0.41785 0.0
H139 H 0.1959 0.16763 0.43409 0.0
H140 H 0.92648 1.02658 0.65403 0.0
H141 H 0.85745 0.97226 0.68582 0.0
H142 H 0.93563 0.93971 0.79811 0.0
H143 H 1.00435 0.99517 0.7667 0.0
Ho144 Ho 0.581 0.15225 0.1334 0.0
Ho145 Ho 0.49043 0.13984 0.09602 0.0
C146 C 0.51819 0.20385 0.18019 0.0
C147 C 0.66715 0.16926 0.14913 0.0
C148 C 0.69903 0.18383 0.18854 0.0
C149 C 0.70999 0.22745 0.20625 0.0
C150 C 0.73974 0.24048 0.24393 0.0
C151 C 0.75911 0.21023 0.26469 0.0
C152 C 0.74904 0.16695 0.24627 0.0
C153 C 0.71946 0.15397 0.2083 0.0
C154 C 0.51578 0.08489 0.17993 0.0
C155 C 0.54804 0.08398 1.04582 0.0
C156 C 0.40721 0.12256 0.06935 0.0
C157 C 0.36863 0.08956 1.04797 0.0
C158 C 0.36965 1.04644 1.03713 0.0
C159 C 0.33439 1.01788 1.01116 0.0
C160 C 0.29826 1.03248 0.99587 0.0
C161 C 0.2966 1.07496 1.00833 0.0
C162 C 0.33153 0.10327 1.03445 0.0
C163 C 0.5542 0.21753 0.06695 0.0
O164 O 0.56088 0.20898 0.16742 0.0
O165 O 0.48744 0.16643 0.16901 0.0
O166 O 0.63782 0.12956 0.15284 0.0
O167 O 0.64908 0.19834 0.13211 0.0
O168 O 0.54803 0.11545 0.20058 0.0
O169 O 0.51861 0.09388 0.13593 0.0
O170 O 0.50692 0.08805 1.05102 0.0
O171 O 0.58279 0.10879 0.07024 0.0
O172 O 0.44257 0.13966 1.04134 0.0
O173 O 0.41818 0.11478 0.11242 0.0
O174 O 0.513 0.21396 0.08003 0.0
O175 O 0.55951 0.17949 0.06908 0.0
H176 H 0.69513 0.25141 0.19159 0.0
H177 H 0.74628 0.27384 0.25793 0.0
H178 H 0.76366 0.14307 0.26155 0.0
H179 H 0.71209 0.12036 0.19477 0.0
H180 H 0.39837 1.03563 1.04709 0.0
H181 H 0.33639 0.98535 1.00101 0.0
H182 H 0.26927 0.08685 0.99614 0.0
H183 H 0.33052 0.13662 1.04239 0.0
Ho184 Ho 0.50803 0.59364 0.55797 0.0
Ho185 Ho 0.51113 0.67248 0.61089 0.0
C186 C 0.55053 0.60367 0.66424 0.0
C187 C 0.52863 0.52754 0.52018 0.0
C188 C 0.56561 0.51021 0.53423 0.0
C189 C 0.59889 0.53554 0.56487 0.0
C190 C 0.63445 0.52031 0.57904 0.0
C191 C 0.63772 0.47938 0.56252 0.0
C192 C 0.6037 0.45334 0.53266 0.0
C193 C 0.56777 0.46869 0.51863 0.0
C194 C 0.42393 0.5912 0.59263 0.0
C195 C 0.48024 0.67106 0.50466 0.0
C196 C 0.49369 0.72913 0.66847 0.0
C197 C 0.45638 0.7485 0.66593 0.0
C198 C 0.41779 0.72671 0.63956 0.0
C199 C 0.38189 0.74457 0.63655 0.0
C200 C 0.3842 0.78468 0.65951 0.0
C201 C 0.42329 0.80692 0.68514 0.0
C202 C 0.45923 0.78885 0.68836 0.0
C203 C 0.58515 0.68405 0.55202 0.0
O204 O 0.53398 0.57669 0.62846 0.0
O205 O 0.54942 0.64516 0.66369 0.0
O206 O 0.49605 0.52252 0.55204 0.0
O207 O 0.542 0.56774 0.50212 0.0
O208 O 0.43193 0.57876 0.55023 0.0
O209 O 0.46125 0.60468 0.61409 0.0
O210 O 0.47041 0.68173 0.54811 0.0
O211 O 0.50102 0.64017 0.49892 0.0
O212 O 0.52409 0.74072 0.63419 0.0
O213 O 0.48088 0.68637 0.67663 0.0
O214 O 0.56446 0.71362 0.55926 0.0
O215 O 0.56667 0.65038 0.57783 0.0
H216 H 0.59769 0.56751 0.57755 0.0
H217 H 0.65975 0.54087 0.60246 0.0
H218 H 0.60567 0.42185 0.51892 0.0
H219 H 0.54217 0.44854 0.49524 0.0
H220 H 0.41527 0.69565 0.62157 0.0
H221 H 0.35231 0.72703 0.61631 0.0
H222 H 0.42558 0.83771 0.70358 0.0
H223 H 0.48896 0.80612 0.7085 0.0
Ho224 Ho 1.02237 0.59234 0.12027 0.0
Ho225 Ho 1.0143 0.66718 0.06785 0.0
C226 C 0.10478 0.68411 0.12303 0.0
C227 C 0.05224 0.52993 0.15327 0.0
C228 C 0.09675 0.52159 0.15099 0.0
C229 C 0.13308 0.54872 0.12331 0.0
C230 C 0.17497 0.53993 0.12078 0.0
C231 C 0.18097 0.50341 0.14528 0.0
C232 C 0.14439 0.47638 0.1729 0.0
C233 C 0.10276 0.48547 0.1758 0.0
C234 C 0.97761 0.64059 0.17315 0.0
C235 C 0.92907 0.57607 0.06827 0.0
C236 C 0.98915 0.72955 1.02806 0.0
C237 C 0.94556 0.73351 1.01177 0.0
C238 C 0.91141 0.69656 0.99427 0.0
C239 C 0.86929 0.70074 0.98142 0.0
C240 C 0.86063 0.7418 0.98635 0.0
C241 C 0.89512 0.77869 1.00343 0.0
C242 C 0.93717 0.77454 1.016 0.0
C243 C 0.06254 0.62018 1.01949 0.0
O244 O 0.09419 0.64036 0.12082 0.0
O245 O 0.07554 0.70405 0.10882 0.0
O246 O 0.05016 0.56423 0.1782 0.0
O247 O 0.03164 0.52734 0.11291 0.0
O248 O 0.96732 0.59744 0.17216 0.0
O249 O 1.01209 0.65631 0.1459 0.0
O250 O 0.94211 0.61995 1.06501 0.0
O251 O 0.95675 0.5556 0.08549 0.0
O252 O 1.00611 0.70241 1.00446 0.0
O253 O 0.99219 0.72587 0.07392 0.0
O254 O 0.07451 0.66325 1.02206 0.0
O255 O 1.0257 0.60415 1.04288 0.0
H256 H 0.12897 0.5764 0.10327 0.0
H257 H 0.20234 0.56115 0.09898 0.0
H258 H 0.14811 0.44835 0.19272 0.0
H259 H 0.07515 0.46414 0.19726 0.0
H260 H 0.91709 0.66443 0.99102 0.0
H261 H 0.84323 0.67175 0.9686 0.0
H262 H 0.88963 0.8109 1.00691 0.0
H263 H 0.96304 0.80334 1.02952 0.0
H264 H 0.42659 0.42936 0.34844 0.0
H265 H 0.3855 0.34908 0.22372 0.0
H266 H 0.33759 0.28869 0.27096 0.0
H267 H 0.29416 0.2653 0.34341 0.0
H268 H 0.31728 0.3519 0.46507 0.0
H269 H 0.38339 0.40392 0.42408 0.0
C270 C 0.408 0.39803 0.33226 0.0
C271 C 0.41191 0.39271 0.28289 0.0
C272 C 0.37553 0.36536 0.35914 0.0
C273 C 0.38647 0.35267 0.26181 0.0
C274 C 0.35755 0.3186 0.28878 0.0
C275 C 0.31455 0.29491 0.3615 0.0
C276 C 0.30139 0.30483 0.40703 0.0
C277 C 0.35023 0.32543 0.3369 0.0
C278 C 0.32711 0.34382 0.42982 0.0
C279 C 0.36471 0.37345 0.40639 0.0
H280 H 0.15098 0.90313 0.86697 0.0
H281 H 0.2395 0.98219 0.75857 0.0
H282 H 0.28469 1.03076 0.81878 0.0
H283 H 0.30378 1.04599 0.90238 0.0
H284 H 0.22205 0.9619 1.01182 0.0
H285 H 0.16997 0.9189 0.95164 0.0
C286 C 0.1798 0.93149 0.85693 0.0
C287 C 0.19132 0.93996 0.80863 0.0
C288 C 0.20739 0.95741 0.89196 0.0
C289 C 0.22899 0.97623 0.79548 0.0
C290 C 0.25534 1.00342 0.82992 0.0
C291 C 0.27435 1.01833 0.91279 0.0
C292 C 0.26635 1.00665 0.96084 0.0
C293 C 0.24553 0.99362 0.87818 0.0
C294 C 0.22853 0.97094 0.97466 0.0
C295 C 0.19888 0.94664 0.94039 0.0
H296 H 0.63328 0.56353 0.85832 0.0
H297 H 0.63053 0.44303 0.78457 0.0
H298 H 0.59819 0.46791 0.71486 0.0
H299 H 0.57051 0.5245 0.67458 0.0
H300 H 0.57635 0.64623 0.74852 0.0
H301 H 0.608 0.62077 0.81754 0.0
C302 C 0.62599 0.54294 0.82681 0.0
C303 C 0.6343 0.50136 0.82682 0.0
C304 C 0.60789 0.5578 0.78663 0.0
C305 C 0.62401 0.47485 0.78579 0.0
C306 C 0.60569 0.48923 0.74582 0.0
C307 C 0.5787 0.54551 0.70575 0.0
C308 C 0.57074 0.5874 0.70592 0.0
C309 C 0.59736 0.53069 0.74576 0.0
C310 C 0.58196 0.61398 0.74687 0.0
C311 C 0.60009 0.59938 0.78664 0.0
H312 H 0.90669 0.70357 0.36755 0.0
H313 H 0.93514 0.82805 0.29307 0.0
H314 H 0.96853 0.7972 0.22592 0.0
H315 H 0.98229 0.7308 0.18433 0.0
H316 H 0.94339 0.60481 0.25852 0.0
H317 H 0.9207 0.6394 0.32809 0.0
C318 C 0.92085 0.72427 0.33691 0.0
C319 C 0.91831 0.76834 0.33587 0.0
C320 C 0.93718 0.70528 0.29729 0.0
C321 C 0.9371 0.79444 0.29563 0.0
C322 C 0.9555 0.77635 0.25672 0.0
C323 C 0.96903 0.71099 0.21579 0.0
C324 C 0.9647 0.66472 0.2154 0.0
C325 C 0.95453 0.7312 0.25637 0.0
C326 C 0.94709 0.64005 0.2569 0.0
C327 C 0.93418 0.65997 0.29717 0.0
H328 H 0.43226 0.35942 0.15497 0.0
H329 H 0.53163 0.42321 0.25809 0.0
H330 H 0.56294 0.36005 0.25558 0.0
H331 H 0.55747 0.28311 0.22741 0.0
H332 H 0.44325 0.21471 0.14093 0.0
H333 H 0.42129 0.28177 0.13475 0.0
C334 C 0.46117 0.35958 0.17632 0.0
C335 C 0.48008 0.3958 0.20618 0.0
C336 C 0.47539 0.32145 0.1786 0.0
C337 C 0.51698 0.3956 0.23448 0.0
C338 C 0.53437 0.35931 0.23347 0.0
C339 C 0.52751 0.2829 0.20782 0.0
C340 C 0.50244 0.24381 0.18446 0.0
C341 C 0.51302 0.32135 0.20652 0.0
C342 C 0.46333 0.24404 0.15953 0.0
C343 C 0.45082 0.28262 0.15543 0.0
H344 H 0.20764 0.96827 0.66388 0.0
H345 H 0.10375 0.96444 0.76968 0.0
H346 H 0.09757 1.03556 0.74007 0.0
H347 H 0.11365 0.09167 0.67623 0.0
H348 H 0.21064 0.0899 0.5647 0.0
H349 H 0.22969 1.02926 0.60509 0.0
C350 C 0.18352 0.9831 0.68003 0.0
C351 C 0.15473 0.96085 0.71743 0.0
C352 C 0.17966 1.02307 0.66208 0.0
C353 C 0.12526 0.98094 0.7401 0.0
C354 C 0.12192 1.02141 0.72325 0.0
C355 C 0.13944 1.07828 0.66142 0.0
C356 C 0.16021 0.09413 0.6175 0.0
C357 C 0.14773 1.04179 0.68317 0.0
C358 C 0.19461 1.07809 0.59879 0.0
C359 C 0.2048 1.043 0.62143 0.0
H360 H 0.75988 0.44873 0.95965 0.0
H361 H 0.70865 0.55958 0.98437 0.0
H362 H 0.77602 0.59747 1.03004 0.0
H363 H 0.85313 0.60241 1.05649 0.0
H364 H 0.90355 0.49017 1.03594 0.0
H365 H 0.83338 0.44958 0.99591 0.0
C366 C 0.76299 0.48053 0.97631 0.0
C367 C 0.72949 0.50155 0.96823 0.0
C368 C 0.80216 0.50224 1.0028 0.0
C369 C 0.73414 0.54296 0.98979 0.0
C370 C 0.7728 0.56473 1.01571 0.0
C371 C 0.84858 0.56885 1.0438 0.0
C372 C 0.88397 0.54966 1.04903 0.0
C373 C 0.80771 0.54532 1.02132 0.0
C374 C 0.87705 0.5059 1.03261 0.0
C375 C 0.83685 0.48262 1.00948 0.0
H376 H 0.78079 0.70245 0.46028 0.0
H377 H 0.7601 0.82028 0.4013 0.0
H378 H 0.68414 0.80128 0.43892 0.0
H379 H 0.6249 0.75299 0.49191 0.0
H380 H 0.64554 0.6356 0.55247 0.0
H381 H 0.71942 0.65199 0.51103 0.0
C382 C 0.7592 0.72345 0.45526 0.0
C383 C 0.77593 0.76277 0.4281 0.0
C384 C 0.71557 0.71244 0.47758 0.0
C385 C 0.74789 0.78999 0.42212 0.0
C386 C 0.70455 0.77915 0.44374 0.0
C387 C 0.64547 0.7309 0.4959 0.0
C388 C 0.62944 0.69296 0.52531 0.0
C389 C 0.68824 0.74082 0.47215 0.0
C390 C 0.65663 0.66469 0.5298 0.0
C391 C 0.69913 0.67421 0.50623 0.0
H392 H 0.34476 0.42428 0.15775 0.0
H393 H 0.41755 0.56104 0.18629 0.0
H394 H 0.35021 0.58311 0.16631 0.0
H395 H 0.26708 0.56103 0.15352 0.0
H396 H 0.19366 0.42258 0.13082 0.0
H397 H 0.26431 0.40331 0.13583 0.0
C398 C 0.34615 0.45906 0.15748 0.0
C399 C 0.38589 0.49121 0.17256 0.0
C400 C 0.30671 0.47084 0.14845 0.0
C401 C 0.38743 0.53609 0.17376 0.0
C402 C 0.34873 0.54845 0.16312 0.0
C403 C 0.26677 0.52681 0.14869 0.0
C404 C 0.22502 0.49318 0.14252 0.0
C405 C 0.30758 0.51582 0.1524 0.0
C406 C 0.22515 0.44894 0.13657 0.0
C407 C 0.26558 0.43791 0.13917 0.0
H408 H 0.67576 0.36547 0.92642 0.0
H409 H 0.62094 0.44919 1.01445 0.0
H410 H 0.58332 0.38562 0.06645 0.0
H411 H 0.5595 0.30426 0.08169 0.0
H412 H 0.61767 0.22088 0.99623 0.0
H413 H 0.66069 0.28573 0.94871 0.0
C414 C 0.65682 0.36987 0.95797 0.0
C415 C 0.65159 0.41206 0.96712 0.0
C416 C 0.63524 0.33294 0.98759 0.0
C417 C 0.62614 0.41729 1.00742 0.0
C418 C 0.6042 0.38078 1.03671 0.0
C419 C 0.5821 0.30044 1.05303 0.0
C420 C 0.58491 0.2576 1.04214 0.0
C421 C 0.60744 0.33815 1.0264 0.0
C422 C 0.61476 0.25332 1.00531 0.0
C423 C 0.63928 0.29046 0.97802 0.0
H424 H 0.91441 0.9033 0.36413 0.0
H425 H 0.96367 0.81704 0.45113 0.0
H426 H 1.00879 0.88129 0.49667 0.0
H427 H 1.02458 0.9612 0.51979 0.0
H428 H 0.97593 1.0474 0.43096 0.0
H429 H 0.94004 0.9847 0.37902 0.0
C430 C 0.93713 0.89891 0.39127 0.0
C431 C 0.93614 0.85504 0.4033 0.0
C432 C 0.96155 0.93615 0.41862 0.0
C433 C 0.96466 0.85014 0.43991 0.0
C434 C 0.98951 0.88698 0.46691 0.0
C435 C 1.00639 0.96636 0.48888 0.0
C436 C 1.00248 1.00931 0.48008 0.0
C437 C 0.98655 0.92996 0.45807 0.0
C438 C 0.97941 1.01508 0.43913 0.0
C439 C 0.95889 0.97906 0.40918 0.0
H440 H 0.24481 0.89216 0.67871 0.0
H441 H 0.1554 0.76316 0.71858 0.0
H442 H 0.21467 0.72901 0.69563 0.0
H443 H 0.29548 0.73883 0.67615 0.0
H444 H 0.38558 0.86972 0.64158 0.0
H445 H 0.32232 0.90077 0.65035 0.0
C446 C 0.23798 0.85636 0.68055 0.0
C447 C 0.19622 0.82983 0.69971 0.0
C448 C 0.27255 0.83782 0.6693 0.0
C449 C 0.18741 0.78371 0.70333 0.0
C450 C 0.22137 0.76452 0.69076 0.0
C451 C 0.30093 0.77396 0.66951 0.0
C452 C 0.34503 0.80219 0.65881 0.0
C453 C 0.26464 0.7916 0.67552 0.0
C454 C 0.35197 0.84766 0.65064 0.0
C455 C 0.31588 0.86531 0.65544 0.0
H456 H 0.69058 0.84532 0.81112 0.0
H457 H 0.7437 0.90233 0.94482 0.0
H458 H 0.81998 0.93205 0.90905 0.0
H459 H 0.86899 0.94832 0.83826 0.0
H460 H 0.81653 0.89392 0.70279 0.0
H461 H 0.74235 0.85672 0.74033 0.0
C462 C 0.7193 0.86364 0.83214 0.0
C463 C 0.71235 0.87153 0.88029 0.0
C464 C 0.76271 0.88143 0.81094 0.0
C465 C 0.74907 0.89562 0.90775 0.0
C466 C 0.79236 0.91275 0.88727 0.0
C467 C 0.84177 0.92738 0.81707 0.0
C468 C 0.84823 0.924 0.76781 0.0
C469 C 0.79933 0.90668 0.83869 0.0
C470 C 0.81221 0.89745 0.74074 0.0
C471 C 0.76985 0.87615 0.76217 0.0
H472 H 0.82012 0.2519 0.47351 0.0
H473 H 0.89424 0.37782 0.41059 0.0
H474 H 0.87531 0.34667 0.33083 0.0
H475 H 0.82692 0.287 0.28119 0.0
H476 H 0.75073 0.16199 0.34609 0.0
H477 H 0.78281 0.18853 0.42307 0.0
C478 C 0.83394 0.27173 0.44222 0.0
C479 C 0.85865 0.31679 0.44736 0.0
C480 C 0.82204 0.25382 0.3971 0.0
C481 C 0.87525 0.34294 0.40689 0.0
C482 C 0.86412 0.32522 0.36158 0.0
C483 C 0.81806 0.26539 0.31211 0.0
C484 C 0.78601 0.22293 0.30824 0.0
C485 C 0.8358 0.28126 0.35647 0.0
C486 C 0.77536 0.1948 0.3482 0.0
C487 C 0.79338 0.21007 0.3923 0.0
H488 H 0.44552 0.74977 0.3055 0.0
H489 H 0.40585 0.84188 0.39622 0.0
H490 H 0.42891 0.80843 0.4663 0.0
H491 H 0.45214 0.74668 0.50258 0.0
H492 H 0.48815 0.65248 0.41036 0.0
H493 H 0.47407 0.69203 0.34083 0.0
C494 C 0.44389 0.76375 0.3405 0.0
C495 C 0.42527 0.79943 0.34519 0.0
C496 C 0.45493 0.74257 0.38078 0.0
C497 C 0.42161 0.81584 0.39112 0.0
C498 C 0.43379 0.79582 0.43138 0.0
C499 C 0.45696 0.73473 0.4673 0.0
C500 C 0.47077 0.69588 0.46227 0.0
C501 C 0.44901 0.75809 0.42684 0.0
C502 C 0.47725 0.68171 0.41589 0.0
C503 C 0.4694 0.70458 0.37585 0.0
H504 H 0.18799 0.53676 0.88921 0.0
H505 H 0.06277 0.48563 0.81388 0.0
H506 H 1.02302 0.51781 0.87349 0.0
H507 H 1.02388 0.56304 0.94663 0.0
H508 H 0.15129 0.62231 1.01575 0.0
H509 H 0.18981 0.58522 0.95975 0.0
C510 C 0.15203 0.53272 0.88577 0.0
C511 C 0.1283 0.50745 0.84739 0.0
C512 C 0.12962 0.55311 0.91945 0.0
C513 C 0.08171 0.50335 0.84362 0.0
C514 C 0.05899 0.52221 0.87764 0.0
C515 C 0.06 0.56746 0.94965 0.0
C516 C 0.08449 0.59509 0.98604 0.0
C517 C 0.08247 0.54726 0.91581 0.0
C518 C 0.13151 0.60116 0.98851 0.0
C519 C 0.15361 0.57992 0.95629 0.0
H520 H 0.5439 0.91325 0.92429 0.0
H521 H 0.65951 0.92192 1.01119 0.0
H522 H 0.65116 0.98819 1.05029 0.0
H523 H 0.61273 1.04443 1.05834 0.0
H524 H 0.49534 1.03689 0.97417 0.0
H525 H 0.50285 0.96987 0.93468 0.0
C526 C 0.56647 0.92946 0.9524 0.0
C527 C 0.60158 0.91251 0.96583 0.0
C528 C 0.56177 0.96809 0.97432 0.0
C529 C 0.63153 0.93396 1.00148 0.0
C530 C 0.62714 0.97207 1.0233 0.0
C531 C 0.58908 1.02858 1.03088 0.0
C532 C 0.55407 1.04604 1.01853 0.0
C533 C 0.59279 0.98969 1.00961 0.0
C534 C 0.52296 1.02432 0.98384 0.0
C535 C 0.52708 0.98589 0.96151 0.0
H536 H 0.84002 0.23713 0.56303 0.0
H537 H 0.95621 0.33961 0.50737 0.0
H538 H 1.00193 0.28808 0.50756 0.0
H539 H 1.00878 0.2145 0.52583 0.0
H540 H 0.89142 0.1104 0.57815 0.0
H541 H 0.84542 0.1613 0.57576 0.0
C542 C 0.87549 0.24788 0.55154 0.0
C543 C 0.89556 0.2919 0.53631 0.0
C544 C 0.90078 0.21767 0.55033 0.0
C545 C 0.9409 0.30581 0.51994 0.0
C546 C 0.96669 0.27639 0.51974 0.0
C547 C 0.97295 0.20282 0.536 0.0
C548 C 0.95353 0.15901 0.55242 0.0
C549 C 0.94697 0.23228 0.53495 0.0
C550 C 0.90707 0.14405 0.5653 0.0
C551 C 0.88088 0.17322 0.56439 0.0
H552 H 0.2649 0.81378 0.23927 0.0
H553 H 0.32422 0.70831 0.21544 0.0
H554 H 0.25674 0.66576 0.17187 0.0
H555 H 0.18067 0.65904 0.14013 0.0
H556 H 0.12483 0.76812 0.15863 0.0
H557 H 0.19152 0.80938 0.20304 0.0
C558 C 0.26321 0.78179 0.22381 0.0
C559 C 0.29956 0.76432 0.23012 0.0
C560 C 0.22508 0.7584 0.1974 0.0
C561 C 0.29657 0.72232 0.21103 0.0
C562 C 0.25814 0.69818 0.18594 0.0
C563 C 0.18328 0.69199 0.15355 0.0
C564 C 0.14764 0.71037 0.14595 0.0
C565 C 0.22218 0.71595 0.17874 0.0
C566 C 0.15175 0.7532 0.16353 0.0
C567 C 0.18982 0.77678 0.18928 0.0
H568 H 0.21735 0.52291 0.66738 0.0
H569 H 0.27738 0.46574 0.77673 0.0
H570 H 0.35289 0.49649 0.73863 0.0
H571 H 0.40283 0.54296 0.67564 0.0
H572 H 0.34215 0.59623 0.5632 0.0
H573 H 0.26656 0.56448 0.60065 0.0
C574 C 0.24688 0.51626 0.68196 0.0
C575 C 0.24164 0.49124 0.72439 0.0
C576 C 0.29036 0.53431 0.65969 0.0
C577 C 0.2804 0.48391 0.74363 0.0
C578 C 0.32365 0.50203 0.7221 0.0
C579 C 0.37305 0.54779 0.65952 0.0
C580 C 0.37836 0.57274 0.61699 0.0
C581 C 0.32928 0.52796 0.6805 0.0
C582 C 0.33918 0.57767 0.59606 0.0
C583 C 0.29586 0.5593 0.61743 0.0
H584 H 0.68665 0.77087 0.89513 0.0
H585 H 0.69005 0.84389 1.02527 0.0
H586 H 0.75103 0.81753 1.05427 0.0
H587 H 0.80981 0.78178 1.03854 0.0
H588 H 0.81135 0.71279 0.9063 0.0
H589 H 0.74223 0.72915 0.8821 0.0
C590 C 0.70004 0.77973 0.93034 0.0
C591 C 0.68302 0.80817 0.95857 0.0
C592 C 0.73668 0.76599 0.9459 0.0
C593 C 0.70115 0.82052 1.00375 0.0
C594 C 0.73673 0.80619 1.01994 0.0
C595 C 0.79482 0.77011 1.00454 0.0
C596 C 0.81593 0.74676 0.97393 0.0
C597 C 0.75567 0.78013 0.99071 0.0
C598 C 0.79568 0.73092 0.93043 0.0
C599 C 0.75632 0.74044 0.91651 0.0
H600 H 0.4658 0.87588 0.2109 0.0
H601 H 0.41182 0.90736 0.34359 0.0
H602 H 0.4454 0.98729 0.32694 0.0
H603 H 0.48041 1.04871 0.268 0.0
H604 H 0.52208 1.01336 0.12996 0.0
H605 H 0.50208 0.93565 0.15408 0.0
C606 C 0.46291 0.90034 0.23695 0.0
C607 C 0.4369 0.88527 0.27891 0.0
C608 C 0.47849 0.94608 0.22485 0.0
C609 C 0.43267 0.91759 0.31177 0.0
C610 C 0.45089 0.96349 0.30149 0.0
C611 C 0.48518 1.02396 0.24335 0.0
C612 C 0.5024 1.03731 0.19685 0.0
C613 C 0.47215 0.97824 0.25711 0.0
C614 C 0.50833 1.00446 0.16556 0.0
C615 C 0.49722 0.95978 0.17951 0.0
H616 H 0.15851 0.35468 0.78546 0.0
H617 H 0.16524 0.43784 0.66287 0.0
H618 H 0.1454 0.37194 0.61165 0.0
H619 H 0.12082 0.28986 0.60201 0.0
H620 H 0.10967 0.20623 0.72551 0.0
H621 H 0.135 0.27242 0.77571 0.0
C622 C 0.15531 0.35844 0.74761 0.0
C623 C 0.16314 0.40167 0.72832 0.0
C624 C 0.14237 0.31991 0.71839 0.0
C625 C 0.16012 0.40546 0.6788 0.0
C626 C 0.14817 0.36753 0.64952 0.0
C627 C 0.12406 0.28588 0.63989 0.0
C628 C 0.11297 0.24238 0.65957 0.0
C629 C 0.13841 0.32444 0.66892 0.0
C630 C 0.11758 0.23871 0.70895 0.0
C631 C 0.13223 0.2768 0.73784 0.0
H632 H 0.82869 0.44819 0.56502 0.0
H633 H 0.7448 0.31327 0.58748 0.0
H634 H 0.67746 0.33829 0.59972 0.0
H635 H 0.64132 0.39729 0.58847 0.0
H636 H 0.72598 0.53175 0.55984 0.0
H637 H 0.79414 0.50873 0.56608 0.0
C638 C 0.79588 0.42482 0.57474 0.0
C639 C 0.79113 0.37927 0.57551 0.0
C640 C 0.75738 0.43934 0.57927 0.0
C641 C 0.74878 0.34859 0.58729 0.0
C642 C 0.71035 0.36285 0.59344 0.0
C643 C 0.67474 0.42153 0.58418 0.0
C644 C 0.67856 0.46596 0.57306 0.0
C645 C 0.71393 0.4079 0.5869 0.0
C646 C 0.72206 0.49733 0.56851 0.0
C647 C 0.76113 0.48419 0.57187 0.0
loop_
_geom_bond_atom_site_label_1
_geom_bond_atom_site_label_2
_geom_bond_distance
_geom_bond_site_symmetry_2
_ccdc_geom_bond_type
C0 N1 1.317 . S
C0 N2 1.348 . S
C0 C3 1.485 . S
N1 C0 1.317 . S
N1 N5 1.370 . S
N2 C0 1.348 . S
N2 C4 1.346 . S
C3 C0 1.485 . S
C3 H7 0.960 . S
C3 H8 0.961 . S
C3 H9 0.960 . S
C4 N2 1.346 . S
C4 N5 1.307 . S
C4 C6 1.486 . S
N5 N1 1.370 . S
N5 C4 1.307 . S
C6 C4 1.486 . S
C6 H10 0.960 . S
C6 H11 0.960 . S
C6 H12 0.959 . S
H7 C3 0.960 . S
H8 C3 0.961 . S
H9 C3 0.960 . S
H10 C6 0.960 . S
H11 C6 0.960 . S
H12 C6 0.959 . S
C13 N14 1.317 . S
C13 N15 1.348 . S
C13 C16 1.485 . S
N14 C13 1.317 . S
N14 N18 1.370 . S
N15 C13 1.348 . S
N15 C17 1.346 . S
C16 C13 1.485 . S
C16 H20 0.960 . S
C16 H21 0.961 . S
C16 H22 0.960 . S
C17 N15 1.346 . S
C17 N18 1.307 . S
C17 C19 1.486 . S
N18 N14 1.370 . S
N18 C17 1.307 . S
C19 C17 1.486 . S
C19 H23 0.960 . S
C19 H24 0.960 . S
C19 H25 0.959 . S
H20 C16 0.960 . S
H21 C16 0.961 . S
H22 C16 0.960 . S
H23 C19 0.960 . S
H24 C19 0.960 . S
H25 C19 0.959 . S
C26 N27 1.317 . S
C26 N28 1.348 . S
C26 C29 1.485 . S
N27 C26 1.317 . S
N27 N31 1.370 . S
N28 C26 1.348 . S
N28 C30 1.346 . S
C29 C26 1.485 . S
C29 H33 0.960 . S
C29 H34 0.961 . S
C29 H35 0.960 . S
C30 N28 1.346 . S
C30 N31 1.307 . S
C30 C32 1.486 . S
N31 N27 1.370 . S
N31 C30 1.307 . S
C32 C30 1.486 . S
C32 H36 0.960 . S
C32 H37 0.960 . S
C32 H38 0.959 . S
H33 C29 0.960 . S
H34 C29 0.961 . S
H35 C29 0.960 . S
H36 C32 0.960 . S
H37 C32 0.960 . S
H38 C32 0.959 . S
C39 N40 1.317 . S
C39 N41 1.348 . S
C39 C42 1.485 . S
N40 C39 1.317 . S
N40 N44 1.370 . S
N41 C39 1.348 . S
N41 C43 1.346 . S
C42 C39 1.485 . S
C42 H46 0.960 . S
C42 H47 0.961 . S
C42 H48 0.960 . S
C43 N41 1.346 . S
C43 N44 1.307 . S
C43 C45 1.486 . S
N44 N40 1.370 . S
N44 C43 1.307 . S
C45 C43 1.486 . S
C45 H49 0.960 . S
C45 H50 0.960 . S
C45 H51 0.959 . S
H46 C42 0.960 . S
H47 C42 0.961 . S
H48 C42 0.960 . S
H49 C45 0.960 . S
H50 C45 0.960 . S
H51 C45 0.959 . S
C52 N53 1.317 . S
C52 N54 1.348 . S
C52 C55 1.485 . S
N53 C52 1.317 . S
N53 N57 1.370 . S
N54 C52 1.348 . S
N54 C56 1.346 . S
C55 C52 1.485 . S
C55 H59 0.960 . S
C55 H60 0.961 . S
C55 H61 0.960 . S
C56 N54 1.346 . S
C56 N57 1.307 . S
C56 C58 1.486 . S
N57 N53 1.370 . S
N57 C56 1.307 . S
C58 C56 1.486 . S
C58 H62 0.960 . S
C58 H63 0.960 . S
C58 H64 0.959 . S
H59 C55 0.960 . S
H60 C55 0.961 . S
H61 C55 0.960 . S
H62 C58 0.960 . S
H63 C58 0.960 . S
H64 C58 0.959 . S
C65 N66 1.317 . S
C65 N67 1.348 . S
C65 C68 1.485 . S
N66 C65 1.317 . S
N66 N70 1.370 . S
N67 C65 1.348 . S
N67 C69 1.346 . S
C68 C65 1.485 . S
C68 H72 0.960 . S
C68 H73 0.961 . S
C68 H74 0.960 . S
C69 N67 1.346 . S
C69 N70 1.307 . S
C69 C71 1.486 . S
N70 N66 1.370 . S
N70 C69 1.307 . S
C71 C69 1.486 . S
C71 H75 0.960 . S
C71 H76 0.960 . S
C71 H77 0.959 . S
H72 C68 0.960 . S
H73 C68 0.961 . S
H74 C68 0.960 . S
H75 C71 0.960 . S
H76 C71 0.960 . S
H77 C71 0.959 . S
C78 N79 1.317 . S
C78 N80 1.348 . S
C78 C81 1.485 . S
N79 C78 1.317 . S
N79 N83 1.370 . S
N80 C78 1.348 . S
N80 C82 1.346 . S
C81 C78 1.485 . S
C81 H85 0.960 . S
C81 H86 0.961 . S
C81 H87 0.960 . S
C82 N80 1.346 . S
C82 N83 1.307 . S
C82 C84 1.486 . S
N83 N79 1.370 . S
N83 C82 1.307 . S
C84 C82 1.486 . S
C84 H88 0.960 . S
C84 H89 0.960 . S
C84 H90 0.959 . S
H85 C81 0.960 . S
H86 C81 0.961 . S
H87 C81 0.960 . S
H88 C84 0.960 . S
H89 C84 0.960 . S
H90 C84 0.959 . S
C91 N92 1.317 . S
C91 N93 1.348 . S
C91 C94 1.485 . S
N92 C91 1.317 . S
N92 N96 1.370 . S
N93 C91 1.348 . S
N93 C95 1.346 . S
C94 C91 1.485 . S
C94 H98 0.960 . S
C94 H99 0.961 . S
C94 H100 0.960 . S
C95 N93 1.346 . S
C95 N96 1.307 . S
C95 C97 1.486 . S
N96 N92 1.370 . S
N96 C95 1.307 . S
C97 C95 1.486 . S
C97 H101 0.960 . S
C97 H102 0.960 . S
C97 H103 0.959 . S
H98 C94 0.960 . S
H99 C94 0.961 . S
H100 C94 0.960 . S
H101 C97 0.960 . S
H102 C97 0.960 . S
H103 C97 0.959 . S
Ho104 C107 2.811 . S
Ho104 O124 2.322 . S
Ho104 O126 2.378 . S
Ho104 O127 2.524 . S
Ho104 O128 2.381 . S
Ho104 O129 2.669 . S
Ho104 O131 2.346 1_545 S
Ho104 O135 2.305 . S
Ho105 C116 2.811 1_545 S
Ho105 O125 2.346 1_655 S
Ho105 O129 2.305 1_655 S
Ho105 O130 2.322 1_545 S
Ho105 O132 2.378 1_545 S
Ho105 O133 2.524 1_545 S
Ho105 O134 2.381 . S
Ho105 O135 2.669 1_655 S
C106 O124 1.259 . S
C106 O125 1.268 . S
C107 Ho104 2.811 . S
C107 C108 1.488 . S
C107 O126 1.215 . S
C107 O127 1.289 . S
C108 C107 1.488 . S
C108 C109 1.348 . S
C108 C113 1.413 . S
C109 C108 1.348 . S
C109 C110 1.442 . S
C109 H136 0.930 . S
C110 C109 1.442 . S
C110 C111 1.381 . S
C110 H137 0.931 . S
C111 C110 1.381 . S
C111 C112 1.321 . S
C112 C111 1.321 . S
C112 C113 1.403 . S
C112 H138 0.934 . S
C113 C108 1.413 . S
C113 C112 1.403 . S
C113 H139 0.930 . S
C114 O128 1.275 1_565 S
C114 O129 1.256 1_565 S
C115 O130 1.259 . S
C115 O131 1.268 1_655 S
C116 Ho105 2.811 1_565 S
C116 C117 1.488 . S
C116 O132 1.215 . S
C116 O133 1.289 . S
C117 C116 1.488 . S
C117 C118 1.348 . S
C117 C122 1.413 . S
C118 C117 1.348 . S
C118 C119 1.442 . S
C118 H140 0.930 . S
C119 C118 1.442 . S
C119 C120 1.381 . S
C119 H141 0.931 . S
C120 C119 1.381 . S
C120 C121 1.321 . S
C121 C120 1.321 . S
C121 C122 1.403 . S
C121 H142 0.934 . S
C122 C117 1.413 . S
C122 C121 1.403 . S
C122 H143 0.930 . S
C123 O134 1.275 . S
C123 O135 1.256 1_655 S
O124 Ho104 2.322 . S
O124 C106 1.259 . S
O125 Ho105 2.346 1_455 S
O125 C106 1.268 . S
O126 Ho104 2.378 . S
O126 C107 1.215 . S
O127 Ho104 2.524 . S
O127 C107 1.289 . S
O128 Ho104 2.381 . S
O128 C114 1.275 1_545 S
O129 Ho104 2.669 . S
O129 Ho105 2.305 1_455 S
O129 C114 1.256 1_545 S
O130 Ho105 2.322 1_565 S
O130 C115 1.259 . S
O131 Ho104 2.346 1_565 S
O131 C115 1.268 1_455 S
O132 Ho105 2.378 1_565 S
O132 C116 1.215 . S
O133 Ho105 2.524 1_565 S
O133 C116 1.289 . S
O134 Ho105 2.381 . S
O134 C123 1.275 . S
O135 Ho104 2.305 . S
O135 Ho105 2.669 1_455 S
O135 C123 1.256 1_455 S
H136 C109 0.930 . S
H137 C110 0.931 . S
H138 C112 0.934 . S
H139 C113 0.930 . S
H140 C118 0.930 . S
H141 C119 0.931 . S
H142 C121 0.934 . S
H143 C122 0.930 . S
Ho144 C147 2.811 . S
Ho144 O164 2.322 . S
Ho144 O166 2.378 . S
Ho144 O167 2.524 . S
Ho144 O168 2.381 1_545 S
Ho144 O169 2.669 . S
Ho144 O171 2.346 . S
Ho144 O175 2.305 . S
Ho145 C156 2.811 1_554 S
Ho145 O165 2.346 . S
Ho145 O169 2.305 . S
Ho145 O170 2.322 1_554 S
Ho145 O172 2.378 1_554 S
Ho145 O173 2.524 1_544 S
Ho145 O174 2.381 1_554 S
Ho145 O175 2.669 . S
C146 O164 1.259 . S
C146 O165 1.268 . S
C147 Ho144 2.811 . S
C147 C148 1.488 . S
C147 O166 1.215 . S
C147 O167 1.289 . S
C148 C147 1.488 . S
C148 C149 1.348 . S
C148 C153 1.413 . S
C149 C148 1.348 . S
C149 C150 1.442 . S
C149 H176 0.930 . S
C150 C149 1.442 . S
C150 C151 1.381 . S
C150 H177 0.931 . S
C151 C150 1.381 . S
C151 C152 1.321 . S
C152 C151 1.321 . S
C152 C153 1.403 . S
C152 H178 0.934 . S
C153 C148 1.413 . S
C153 C152 1.403 . S
C153 H179 0.930 . S
C154 O168 1.275 . S
C154 O169 1.256 1_565 S
C155 O170 1.253 1_554 S
C155 O171 1.281 . S
C156 Ho145 2.811 1_556 S
C156 C157 1.488 1_545 S
C156 O172 1.215 . S
C156 O173 1.289 1_545 S
C157 C156 1.488 1_565 S
C157 C158 1.348 . S
C157 C162 1.413 1_565 S
C158 C157 1.348 . S
C158 C159 1.442 . S
C158 H180 0.930 . S
C159 C158 1.442 . S
C159 C160 1.381 . S
C159 H181 0.931 . S
C160 C159 1.381 . S
C160 C161 1.321 . S
C161 C160 1.321 . S
C161 C162 1.403 1_565 S
C161 H182 0.934 . S
C162 C157 1.413 1_545 S
C162 C161 1.403 1_545 S
C162 H183 0.930 . S
C163 O174 1.275 1_554 S
C163 O175 1.256 . S
O164 Ho144 2.322 . S
O164 C146 1.259 . S
O165 Ho145 2.346 . S
O165 C146 1.268 . S
O166 Ho144 2.378 . S
O166 C147 1.215 . S
O167 Ho144 2.524 . S
O167 C147 1.289 . S
O168 Ho144 2.381 1_565 S
O168 C154 1.275 . S
O169 Ho144 2.669 . S
O169 Ho145 2.305 . S
O169 C154 1.256 1_545 S
O170 Ho145 2.322 1_556 S
O170 C155 1.253 1_556 S
O171 Ho144 2.346 . S
O171 C155 1.281 . S
O172 Ho145 2.378 1_556 S
O172 C156 1.215 . S
O173 Ho145 2.524 1_566 S
O173 C156 1.289 1_565 S
O174 Ho145 2.381 1_556 S
O174 C163 1.275 1_556 S
O175 Ho144 2.305 . S
O175 Ho145 2.669 . S
O175 C163 1.256 . S
H176 C149 0.930 . S
H177 C150 0.931 . S
H178 C152 0.934 . S
H179 C153 0.930 . S
H180 C158 0.930 . S
H181 C159 0.931 . S
H182 C161 0.934 . S
H183 C162 0.930 . S
Ho184 C187 2.811 . S
Ho184 O204 2.322 . S
Ho184 O206 2.378 . S
Ho184 O207 2.524 . S
Ho184 O208 2.381 . S
Ho184 O209 2.669 . S
Ho184 O211 2.346 . S
Ho184 O215 2.305 . S
Ho185 C196 2.811 . S
Ho185 O205 2.346 . S
Ho185 O209 2.305 . S
Ho185 O210 2.322 . S
Ho185 O212 2.378 . S
Ho185 O213 2.524 . S
Ho185 O214 2.381 . S
Ho185 O215 2.669 . S
C186 O204 1.259 . S
C186 O205 1.268 . S
C187 Ho184 2.811 . S
C187 C188 1.488 . S
C187 O206 1.215 . S
C187 O207 1.289 . S
C188 C187 1.488 . S
C188 C189 1.348 . S
C188 C193 1.413 . S
C189 C188 1.348 . S
C189 C190 1.442 . S
C189 H216 0.930 . S
C190 C189 1.442 . S
C190 C191 1.381 . S
C190 H217 0.931 . S
C191 C190 1.381 . S
C191 C192 1.321 . S
C192 C191 1.321 . S
C192 C193 1.403 . S
C192 H218 0.934 . S
C193 C188 1.413 . S
C193 C192 1.403 . S
C193 H219 0.930 . S
C194 O208 1.275 . S
C194 O209 1.256 . S
C195 O210 1.259 . S
C195 O211 1.268 . S
C196 Ho185 2.811 . S
C196 C197 1.488 . S
C196 O212 1.215 . S
C196 O213 1.289 . S
C197 C196 1.488 . S
C197 C198 1.348 . S
C197 C202 1.413 . S
C198 C197 1.348 . S
C198 C199 1.442 . S
C198 H220 0.930 . S
C199 C198 1.442 . S
C199 C200 1.381 . S
C199 H221 0.931 . S
C200 C199 1.381 . S
C200 C201 1.321 . S
C201 C200 1.321 . S
C201 C202 1.403 . S
C201 H222 0.934 . S
C202 C197 1.413 . S
C202 C201 1.403 . S
C202 H223 0.930 . S
C203 O214 1.275 . S
C203 O215 1.256 . S
O204 Ho184 2.322 . S
O204 C186 1.259 . S
O205 Ho185 2.346 . S
O205 C186 1.268 . S
O206 Ho184 2.378 . S
O206 C187 1.215 . S
O207 Ho184 2.524 . S
O207 C187 1.289 . S
O208 Ho184 2.381 . S
O208 C194 1.275 . S
O209 Ho184 2.669 . S
O209 Ho185 2.305 . S
O209 C194 1.256 . S
O210 Ho185 2.322 . S
O210 C195 1.259 . S
O211 Ho184 2.346 . S
O211 C195 1.268 . S
O212 Ho185 2.378 . S
O212 C196 1.215 . S
O213 Ho185 2.524 . S
O213 C196 1.289 . S
O214 Ho185 2.381 . S
O214 C203 1.275 . S
O215 Ho184 2.305 . S
O215 Ho185 2.669 . S
O215 C203 1.256 . S
H216 C189 0.930 . S
H217 C190 0.931 . S
H218 C192 0.934 . S
H219 C193 0.930 . S
H220 C198 0.930 . S
H221 C199 0.931 . S
H222 C201 0.934 . S
H223 C202 0.930 . S
Ho224 C227 2.811 . S
Ho224 O244 2.322 . S
Ho224 O246 2.378 . S
Ho224 O247 2.524 . S
Ho224 O248 2.381 1_455 S
Ho224 O249 2.669 1_455 S
Ho224 O251 2.346 1_455 S
Ho224 O255 2.305 1_554 S
Ho225 C236 2.811 . S
Ho225 O245 2.346 1_656 S
Ho225 O249 2.305 1_556 S
Ho225 O250 2.322 . S
Ho225 O252 2.378 . S
Ho225 O253 2.524 . S
Ho225 O254 2.381 1_655 S
Ho225 O255 2.669 1_655 S
C226 O244 1.259 . S
C226 O245 1.268 . S
C227 Ho224 2.811 . S
C227 C228 1.488 . S
C227 O246 1.215 . S
C227 O247 1.289 . S
C228 C227 1.488 . S
C228 C229 1.348 . S
C228 C233 1.413 . S
C229 C228 1.348 . S
C229 C230 1.442 . S
C229 H256 0.930 . S
C230 C229 1.442 . S
C230 C231 1.381 . S
C230 H257 0.931 . S
C231 C230 1.381 . S
C231 C232 1.321 . S
C232 C231 1.321 . S
C232 C233 1.403 . S
C232 H258 0.934 . S
C233 C228 1.413 . S
C233 C232 1.403 . S
C233 H259 0.930 . S
C234 O248 1.275 . S
C234 O249 1.256 . S
C235 O250 1.259 . S
C235 O251 1.268 1_556 S
C236 Ho225 2.811 . S
C236 C237 1.488 . S
C236 O252 1.215 . S
C236 O253 1.289 . S
C237 C236 1.488 . S
C237 C238 1.348 . S
C237 C242 1.413 . S
C238 C237 1.348 . S
C238 C239 1.442 . S
C238 H260 0.930 . S
C239 C238 1.442 . S
C239 C240 1.381 . S
C239 H261 0.931 . S
C240 C239 1.381 . S
C240 C241 1.321 . S
C241 C240 1.321 . S
C241 C242 1.403 . S
C241 H262 0.934 . S
C242 C237 1.413 . S
C242 C241 1.403 . S
C242 H263 0.930 . S
C243 O254 1.275 . S
C243 O255 1.256 . S
O244 Ho224 2.322 . S
O244 C226 1.259 . S
O245 Ho225 2.346 1_454 S
O245 C226 1.268 . S
O246 Ho224 2.378 . S
O246 C227 1.215 . S
O247 Ho224 2.524 . S
O247 C227 1.289 . S
O248 Ho224 2.381 1_655 S
O248 C234 1.275 . S
O249 Ho224 2.669 1_655 S
O249 Ho225 2.305 1_554 S
O249 C234 1.256 . S
O250 Ho225 2.322 . S
O250 C235 1.259 . S
O251 Ho224 2.346 1_655 S
O251 C235 1.268 1_554 S
O252 Ho225 2.378 . S
O252 C236 1.215 . S
O253 Ho225 2.524 . S
O253 C236 1.289 . S
O254 Ho225 2.381 1_455 S
O254 C243 1.275 . S
O255 Ho224 2.305 1_556 S
O255 Ho225 2.669 1_455 S
O255 C243 1.256 . S
H256 C229 0.930 . S
H257 C230 0.931 . S
H258 C232 0.934 . S
H259 C233 0.930 . S
H260 C238 0.930 . S
H261 C239 0.931 . S
H262 C241 0.934 . S
H263 C242 0.930 . S
H264 C270 0.930 . S
H265 C273 0.930 . S
H266 C274 0.930 . S
H267 C275 0.930 . S
H268 C278 0.930 . S
H269 C279 0.930 . S
C270 H264 0.930 . S
C270 C271 1.355 . S
C270 C272 1.415 . S
C271 C270 1.355 . S
C271 C273 1.419 . S
C272 C270 1.415 . S
C272 C277 1.425 . S
C272 C279 1.409 . S
C273 H265 0.930 . S
C273 C271 1.419 . S
C273 C274 1.362 . S
C274 H266 0.930 . S
C274 C273 1.362 . S
C274 C277 1.409 . S
C275 H267 0.930 . S
C275 C276 1.355 . S
C275 C277 1.415 . S
C276 C275 1.355 . S
C276 C278 1.419 . S
C277 C272 1.425 . S
C277 C274 1.409 . S
C277 C275 1.415 . S
C278 H268 0.930 . S
C278 C276 1.419 . S
C278 C279 1.362 . S
C279 H269 0.930 . S
C279 C272 1.409 . S
C279 C278 1.362 . S
H280 C286 0.930 . S
H281 C289 0.930 . S
H282 C290 0.930 . S
H283 C291 0.930 . S
H284 C294 0.930 . S
H285 C295 0.930 . S
C286 H280 0.930 . S
C286 C287 1.355 . S
C286 C288 1.415 . S
C287 C286 1.355 . S
C287 C289 1.419 . S
C288 C286 1.415 . S
C288 C293 1.425 . S
C288 C295 1.409 . S
C289 H281 0.930 . S
C289 C287 1.419 . S
C289 C290 1.362 . S
C290 H282 0.930 . S
C290 C289 1.362 . S
C290 C293 1.409 . S
C291 H283 0.930 . S
C291 C292 1.355 . S
C291 C293 1.415 . S
C292 C291 1.355 . S
C292 C294 1.419 . S
C293 C288 1.425 . S
C293 C290 1.409 . S
C293 C291 1.415 . S
C294 H284 0.930 . S
C294 C292 1.419 . S
C294 C295 1.362 . S
C295 H285 0.930 . S
C295 C288 1.409 . S
C295 C294 1.362 . S
H296 C302 0.930 . S
H297 C305 0.930 . S
H298 C306 0.930 . S
H299 C307 0.930 . S
H300 C310 0.930 . S
H301 C311 0.930 . S
C302 H296 0.930 . S
C302 C303 1.355 . S
C302 C304 1.415 . S
C303 C302 1.355 . S
C303 C305 1.419 . S
C304 C302 1.415 . S
C304 C309 1.425 . S
C304 C311 1.409 . S
C305 H297 0.930 . S
C305 C303 1.419 . S
C305 C306 1.362 . S
C306 H298 0.930 . S
C306 C305 1.362 . S
C306 C309 1.409 . S
C307 H299 0.930 . S
C307 C308 1.355 . S
C307 C309 1.415 . S
C308 C307 1.355 . S
C308 C310 1.419 . S
C309 C304 1.425 . S
C309 C306 1.409 . S
C309 C307 1.415 . S
C310 H300 0.930 . S
C310 C308 1.419 . S
C310 C311 1.362 . S
C311 H301 0.930 . S
C311 C304 1.409 . S
C311 C310 1.362 . S
H312 C318 0.930 . S
H313 C321 0.930 . S
H314 C322 0.930 . S
H315 C323 0.930 . S
H316 C326 0.930 . S
H317 C327 0.930 . S
C318 H312 0.930 . S
C318 C319 1.355 . S
C318 C320 1.415 . S
C319 C318 1.355 . S
C319 C321 1.419 . S
C320 C318 1.415 . S
C320 C325 1.425 . S
C320 C327 1.409 . S
C321 H313 0.930 . S
C321 C319 1.419 . S
C321 C322 1.362 . S
C322 H314 0.930 . S
C322 C321 1.362 . S
C322 C325 1.409 . S
C323 H315 0.930 . S
C323 C324 1.355 . S
C323 C325 1.415 . S
C324 C323 1.355 . S
C324 C326 1.419 . S
C325 C320 1.425 . S
C325 C322 1.409 . S
C325 C323 1.415 . S
C326 H316 0.930 . S
C326 C324 1.419 . S
C326 C327 1.362 . S
C327 H317 0.930 . S
C327 C320 1.409 . S
C327 C326 1.362 . S
H328 C334 0.930 . S
H329 C337 0.930 . S
H330 C338 0.930 . S
H331 C339 0.930 . S
H332 C342 0.930 . S
H333 C343 0.930 . S
C334 H328 0.930 . S
C334 C335 1.355 . S
C334 C336 1.415 . S
C335 C334 1.355 . S
C335 C337 1.419 . S
C336 C334 1.415 . S
C336 C341 1.425 . S
C336 C343 1.409 . S
C337 H329 0.930 . S
C337 C335 1.419 . S
C337 C338 1.362 . S
C338 H330 0.930 . S
C338 C337 1.362 . S
C338 C341 1.409 . S
C339 H331 0.930 . S
C339 C340 1.355 . S
C339 C341 1.415 . S
C340 C339 1.355 . S
C340 C342 1.419 . S
C341 C336 1.425 . S
C341 C338 1.409 . S
C341 C339 1.415 . S
C342 H332 0.930 . S
C342 C340 1.419 . S
C342 C343 1.362 . S
C343 H333 0.930 . S
C343 C336 1.409 . S
C343 C342 1.362 . S
H344 C350 0.930 . S
H345 C353 0.930 . S
H346 C354 0.930 . S
H347 C355 0.930 . S
H348 C358 0.930 1_545 S
H349 C359 0.930 . S
C350 H344 0.930 . S
C350 C351 1.355 . S
C350 C352 1.415 . S
C351 C350 1.355 . S
C351 C353 1.419 . S
C352 C350 1.415 . S
C352 C357 1.425 . S
C352 C359 1.409 . S
C353 H345 0.930 . S
C353 C351 1.419 . S
C353 C354 1.362 . S
C354 H346 0.930 . S
C354 C353 1.362 . S
C354 C357 1.409 . S
C355 H347 0.930 . S
C355 C356 1.355 . S
C355 C357 1.415 . S
C356 C355 1.355 . S
C356 C358 1.419 . S
C357 C352 1.425 . S
C357 C354 1.409 . S
C357 C355 1.415 . S
C358 H348 0.930 1_565 S
C358 C356 1.419 . S
C358 C359 1.362 . S
C359 H349 0.930 . S
C359 C352 1.409 . S
C359 C358 1.362 . S
H360 C366 0.930 . S
H361 C369 0.930 . S
H362 C370 0.930 . S
H363 C371 0.930 . S
H364 C374 0.930 . S
H365 C375 0.930 . S
C366 H360 0.930 . S
C366 C367 1.355 . S
C366 C368 1.415 . S
C367 C366 1.355 . S
C367 C369 1.419 . S
C368 C366 1.415 . S
C368 C373 1.425 . S
C368 C375 1.409 . S
C369 H361 0.930 . S
C369 C367 1.419 . S
C369 C370 1.362 . S
C370 H362 0.930 . S
C370 C369 1.362 . S
C370 C373 1.409 . S
C371 H363 0.930 . S
C371 C372 1.355 . S
C371 C373 1.415 . S
C372 C371 1.355 . S
C372 C374 1.419 . S
C373 C368 1.425 . S
C373 C370 1.409 . S
C373 C371 1.415 . S
C374 H364 0.930 . S
C374 C372 1.419 . S
C374 C375 1.362 . S
C375 H365 0.930 . S
C375 C368 1.409 . S
C375 C374 1.362 . S
H376 C382 0.930 . S
H377 C385 0.930 . S
H378 C386 0.930 . S
H379 C387 0.930 . S
H380 C390 0.930 . S
H381 C391 0.930 . S
C382 H376 0.930 . S
C382 C383 1.355 . S
C382 C384 1.415 . S
C383 C382 1.355 . S
C383 C385 1.419 . S
C384 C382 1.415 . S
C384 C389 1.425 . S
C384 C391 1.409 . S
C385 H377 0.930 . S
C385 C383 1.419 . S
C385 C386 1.362 . S
C386 H378 0.930 . S
C386 C385 1.362 . S
C386 C389 1.409 . S
C387 H379 0.930 . S
C387 C388 1.355 . S
C387 C389 1.415 . S
C388 C387 1.355 . S
C388 C390 1.419 . S
C389 C384 1.425 . S
C389 C386 1.409 . S
C389 C387 1.415 . S
C390 H380 0.930 . S
C390 C388 1.419 . S
C390 C391 1.362 . S
C391 H381 0.930 . S
C391 C384 1.409 . S
C391 C390 1.362 . S
H392 C398 0.930 . S
H393 C401 0.930 . S
H394 C402 0.930 . S
H395 C403 0.930 . S
H396 C406 0.930 . S
H397 C407 0.930 . S
C398 H392 0.930 . S
C398 C399 1.355 . S
C398 C400 1.415 . S
C399 C398 1.355 . S
C399 C401 1.419 . S
C400 C398 1.415 . S
C400 C405 1.425 . S
C400 C407 1.409 . S
C401 H393 0.930 . S
C401 C399 1.419 . S
C401 C402 1.362 . S
C402 H394 0.930 . S
C402 C401 1.362 . S
C402 C405 1.409 . S
C403 H395 0.930 . S
C403 C404 1.355 . S
C403 C405 1.415 . S
C404 C403 1.355 . S
C404 C406 1.419 . S
C405 C400 1.425 . S
C405 C402 1.409 . S
C405 C403 1.415 . S
C406 H396 0.930 . S
C406 C404 1.419 . S
C406 C407 1.362 . S
C407 H397 0.930 . S
C407 C400 1.409 . S
C407 C406 1.362 . S
H408 C414 0.930 . S
H409 C417 0.930 . S
H410 C418 0.930 . S
H411 C419 0.930 . S
H412 C422 0.930 . S
H413 C423 0.930 . S
C414 H408 0.930 . S
C414 C415 1.355 . S
C414 C416 1.415 . S
C415 C414 1.355 . S
C415 C417 1.419 . S
C416 C414 1.415 . S
C416 C421 1.425 . S
C416 C423 1.409 . S
C417 H409 0.930 . S
C417 C415 1.419 . S
C417 C418 1.362 . S
C418 H410 0.930 . S
C418 C417 1.362 . S
C418 C421 1.409 . S
C419 H411 0.930 . S
C419 C420 1.355 . S
C419 C421 1.415 . S
C420 C419 1.355 . S
C420 C422 1.419 . S
C421 C416 1.425 . S
C421 C418 1.409 . S
C421 C419 1.415 . S
C422 H412 0.930 . S
C422 C420 1.419 . S
C422 C423 1.362 . S
C423 H413 0.930 . S
C423 C416 1.409 . S
C423 C422 1.362 . S
H424 C430 0.930 . S
H425 C433 0.930 . S
H426 C434 0.930 . S
H427 C435 0.930 . S
H428 C438 0.930 . S
H429 C439 0.930 . S
C430 H424 0.930 . S
C430 C431 1.355 . S
C430 C432 1.415 . S
C431 C430 1.355 . S
C431 C433 1.419 . S
C432 C430 1.415 . S
C432 C437 1.425 . S
C432 C439 1.409 . S
C433 H425 0.930 . S
C433 C431 1.419 . S
C433 C434 1.362 . S
C434 H426 0.930 . S
C434 C433 1.362 . S
C434 C437 1.409 . S
C435 H427 0.930 . S
C435 C436 1.355 . S
C435 C437 1.415 . S
C436 C435 1.355 . S
C436 C438 1.419 . S
C437 C432 1.425 . S
C437 C434 1.409 . S
C437 C435 1.415 . S
C438 H428 0.930 . S
C438 C436 1.419 . S
C438 C439 1.362 . S
C439 H429 0.930 . S
C439 C432 1.409 . S
C439 C438 1.362 . S
H440 C446 0.930 . S
H441 C449 0.930 . S
H442 C450 0.930 . S
H443 C451 0.930 . S
H444 C454 0.930 . S
H445 C455 0.930 . S
C446 H440 0.930 . S
C446 C447 1.355 . S
C446 C448 1.415 . S
C447 C446 1.355 . S
C447 C449 1.419 . S
C448 C446 1.415 . S
C448 C453 1.425 . S
C448 C455 1.409 . S
C449 H441 0.930 . S
C449 C447 1.419 . S
C449 C450 1.362 . S
C450 H442 0.930 . S
C450 C449 1.362 . S
C450 C453 1.409 . S
C451 H443 0.930 . S
C451 C452 1.355 . S
C451 C453 1.415 . S
C452 C451 1.355 . S
C452 C454 1.419 . S
C453 C448 1.425 . S
C453 C450 1.409 . S
C453 C451 1.415 . S
C454 H444 0.930 . S
C454 C452 1.419 . S
C454 C455 1.362 . S
C455 H445 0.930 . S
C455 C448 1.409 . S
C455 C454 1.362 . S
H456 C462 0.930 . S
H457 C465 0.930 . S
H458 C466 0.930 . S
H459 C467 0.930 . S
H460 C470 0.930 . S
H461 C471 0.930 . S
C462 H456 0.930 . S
C462 C463 1.355 . S
C462 C464 1.415 . S
C463 C462 1.355 . S
C463 C465 1.419 . S
C464 C462 1.415 . S
C464 C469 1.425 . S
C464 C471 1.409 . S
C465 H457 0.930 . S
C465 C463 1.419 . S
C465 C466 1.362 . S
C466 H458 0.930 . S
C466 C465 1.362 . S
C466 C469 1.409 . S
C467 H459 0.930 . S
C467 C468 1.355 . S
C467 C469 1.415 . S
C468 C467 1.355 . S
C468 C470 1.419 . S
C469 C464 1.425 . S
C469 C466 1.409 . S
C469 C467 1.415 . S
C470 H460 0.930 . S
C470 C468 1.419 . S
C470 C471 1.362 . S
C471 H461 0.930 . S
C471 C464 1.409 . S
C471 C470 1.362 . S
H472 C478 0.930 . S
H473 C481 0.930 . S
H474 C482 0.930 . S
H475 C483 0.930 . S
H476 C486 0.930 . S
H477 C487 0.930 . S
C478 H472 0.930 . S
C478 C479 1.355 . S
C478 C480 1.415 . S
C479 C478 1.355 . S
C479 C481 1.419 . S
C480 C478 1.415 . S
C480 C485 1.425 . S
C480 C487 1.409 . S
C481 H473 0.930 . S
C481 C479 1.419 . S
C481 C482 1.362 . S
C482 H474 0.930 . S
C482 C481 1.362 . S
C482 C485 1.409 . S
C483 H475 0.930 . S
C483 C484 1.355 . S
C483 C485 1.415 . S
C484 C483 1.355 . S
C484 C486 1.419 . S
C485 C480 1.425 . S
C485 C482 1.409 . S
C485 C483 1.415 . S
C486 H476 0.930 . S
C486 C484 1.419 . S
C486 C487 1.362 . S
C487 H477 0.930 . S
C487 C480 1.409 . S
C487 C486 1.362 . S
H488 C494 0.930 . S
H489 C497 0.930 . S
H490 C498 0.930 . S
H491 C499 0.930 . S
H492 C502 0.930 . S
H493 C503 0.930 . S
C494 H488 0.930 . S
C494 C495 1.355 . S
C494 C496 1.415 . S
C495 C494 1.355 . S
C495 C497 1.419 . S
C496 C494 1.415 . S
C496 C501 1.425 . S
C496 C503 1.409 . S
C497 H489 0.930 . S
C497 C495 1.419 . S
C497 C498 1.362 . S
C498 H490 0.930 . S
C498 C497 1.362 . S
C498 C501 1.409 . S
C499 H491 0.930 . S
C499 C500 1.355 . S
C499 C501 1.415 . S
C500 C499 1.355 . S
C500 C502 1.419 . S
C501 C496 1.425 . S
C501 C498 1.409 . S
C501 C499 1.415 . S
C502 H492 0.930 . S
C502 C500 1.419 . S
C502 C503 1.362 . S
C503 H493 0.930 . S
C503 C496 1.409 . S
C503 C502 1.362 . S
H504 C510 0.930 . S
H505 C513 0.930 . S
H506 C514 0.930 . S
H507 C515 0.930 . S
H508 C518 0.930 . S
H509 C519 0.930 . S
C510 H504 0.930 . S
C510 C511 1.355 . S
C510 C512 1.415 . S
C511 C510 1.355 . S
C511 C513 1.419 . S
C512 C510 1.415 . S
C512 C517 1.425 . S
C512 C519 1.409 . S
C513 H505 0.930 . S
C513 C511 1.419 . S
C513 C514 1.362 . S
C514 H506 0.930 . S
C514 C513 1.362 . S
C514 C517 1.409 . S
C515 H507 0.930 . S
C515 C516 1.355 . S
C515 C517 1.415 . S
C516 C515 1.355 . S
C516 C518 1.419 . S
C517 C512 1.425 . S
C517 C514 1.409 . S
C517 C515 1.415 . S
C518 H508 0.930 . S
C518 C516 1.419 . S
C518 C519 1.362 . S
C519 H509 0.930 . S
C519 C512 1.409 . S
C519 C518 1.362 . S
H520 C526 0.930 . S
H521 C529 0.930 . S
H522 C530 0.930 . S
H523 C531 0.930 . S
H524 C534 0.930 . S
H525 C535 0.930 . S
C526 H520 0.930 . S
C526 C527 1.355 . S
C526 C528 1.415 . S
C527 C526 1.355 . S
C527 C529 1.419 . S
C528 C526 1.415 . S
C528 C533 1.425 . S
C528 C535 1.409 . S
C529 H521 0.930 . S
C529 C527 1.419 . S
C529 C530 1.362 . S
C530 H522 0.930 . S
C530 C529 1.362 . S
C530 C533 1.409 . S
C531 H523 0.930 . S
C531 C532 1.355 . S
C531 C533 1.415 . S
C532 C531 1.355 . S
C532 C534 1.419 . S
C533 C528 1.425 . S
C533 C530 1.409 . S
C533 C531 1.415 . S
C534 H524 0.930 . S
C534 C532 1.419 . S
C534 C535 1.362 . S
C535 H525 0.930 . S
C535 C528 1.409 . S
C535 C534 1.362 . S
H536 C542 0.930 . S
H537 C545 0.930 . S
H538 C546 0.930 . S
H539 C547 0.930 . S
H540 C550 0.930 . S
H541 C551 0.930 . S
C542 H536 0.930 . S
C542 C543 1.355 . S
C542 C544 1.415 . S
C543 C542 1.355 . S
C543 C545 1.419 . S
C544 C542 1.415 . S
C544 C549 1.425 . S
C544 C551 1.409 . S
C545 H537 0.930 . S
C545 C543 1.419 . S
C545 C546 1.362 . S
C546 H538 0.930 . S
C546 C545 1.362 . S
C546 C549 1.409 . S
C547 H539 0.930 . S
C547 C548 1.355 . S
C547 C549 1.415 . S
C548 C547 1.355 . S
C548 C550 1.419 . S
C549 C544 1.425 . S
C549 C546 1.409 . S
C549 C547 1.415 . S
C550 H540 0.930 . S
C550 C548 1.419 . S
C550 C551 1.362 . S
C551 H541 0.930 . S
C551 C544 1.409 . S
C551 C550 1.362 . S
H552 C558 0.930 . S
H553 C561 0.930 . S
H554 C562 0.930 . S
H555 C563 0.930 . S
H556 C566 0.930 . S
H557 C567 0.930 . S
C558 H552 0.930 . S
C558 C559 1.355 . S
C558 C560 1.415 . S
C559 C558 1.355 . S
C559 C561 1.419 . S
C560 C558 1.415 . S
C560 C565 1.425 . S
C560 C567 1.409 . S
C561 H553 0.930 . S
C561 C559 1.419 . S
C561 C562 1.362 . S
C562 H554 0.930 . S
C562 C561 1.362 . S
C562 C565 1.409 . S
C563 H555 0.930 . S
C563 C564 1.355 . S
C563 C565 1.415 . S
C564 C563 1.355 . S
C564 C566 1.419 . S
C565 C560 1.425 . S
C565 C562 1.409 . S
C565 C563 1.415 . S
C566 H556 0.930 . S
C566 C564 1.419 . S
C566 C567 1.362 . S
C567 H557 0.930 . S
C567 C560 1.409 . S
C567 C566 1.362 . S
H568 C574 0.930 . S
H569 C577 0.930 . S
H570 C578 0.930 . S
H571 C579 0.930 . S
H572 C582 0.930 . S
H573 C583 0.930 . S
C574 H568 0.930 . S
C574 C575 1.355 . S
C574 C576 1.415 . S
C575 C574 1.355 . S
C575 C577 1.419 . S
C576 C574 1.415 . S
C576 C581 1.425 . S
C576 C583 1.409 . S
C577 H569 0.930 . S
C577 C575 1.419 . S
C577 C578 1.362 . S
C578 H570 0.930 . S
C578 C577 1.362 . S
C578 C581 1.409 . S
C579 H571 0.930 . S
C579 C580 1.355 . S
C579 C581 1.415 . S
C580 C579 1.355 . S
C580 C582 1.419 . S
C581 C576 1.425 . S
C581 C578 1.409 . S
C581 C579 1.415 . S
C582 H572 0.930 . S
C582 C580 1.419 . S
C582 C583 1.362 . S
C583 H573 0.930 . S
C583 C576 1.409 . S
C583 C582 1.362 . S
H584 C590 0.930 . S
H585 C593 0.930 . S
H586 C594 0.930 . S
H587 C595 0.930 . S
H588 C598 0.930 . S
H589 C599 0.930 . S
C590 H584 0.930 . S
C590 C591 1.355 . S
C590 C592 1.415 . S
C591 C590 1.355 . S
C591 C593 1.419 . S
C592 C590 1.415 . S
C592 C597 1.425 . S
C592 C599 1.409 . S
C593 H585 0.930 . S
C593 C591 1.419 . S
C593 C594 1.362 . S
C594 H586 0.930 . S
C594 C593 1.362 . S
C594 C597 1.409 . S
C595 H587 0.930 . S
C595 C596 1.355 . S
C595 C597 1.415 . S
C596 C595 1.355 . S
C596 C598 1.419 . S
C597 C592 1.425 . S
C597 C594 1.409 . S
C597 C595 1.415 . S
C598 H588 0.930 . S
C598 C596 1.419 . S
C598 C599 1.362 . S
C599 H589 0.930 . S
C599 C592 1.409 . S
C599 C598 1.362 . S
H600 C606 0.930 . S
H601 C609 0.930 . S
H602 C610 0.930 . S
H603 C611 0.930 . S
H604 C614 0.930 . S
H605 C615 0.930 . S
C606 H600 0.930 . S
C606 C607 1.355 . S
C606 C608 1.415 . S
C607 C606 1.355 . S
C607 C609 1.419 . S
C608 C606 1.415 . S
C608 C613 1.425 . S
C608 C615 1.409 . S
C609 H601 0.930 . S
C609 C607 1.419 . S
C609 C610 1.362 . S
C610 H602 0.930 . S
C610 C609 1.362 . S
C610 C613 1.409 . S
C611 H603 0.930 . S
C611 C612 1.355 . S
C611 C613 1.415 . S
C612 C611 1.355 . S
C612 C614 1.419 . S
C613 C608 1.425 . S
C613 C610 1.409 . S
C613 C611 1.415 . S
C614 H604 0.930 . S
C614 C612 1.419 . S
C614 C615 1.362 . S
C615 H605 0.930 . S
C615 C608 1.409 . S
C615 C614 1.362 . S
H616 C622 0.930 . S
H617 C625 0.930 . S
H618 C626 0.930 . S
H619 C627 0.930 . S
H620 C630 0.930 . S
H621 C631 0.930 . S
C622 H616 0.930 . S
C622 C623 1.355 . S
C622 C624 1.415 . S
C623 C622 1.355 . S
C623 C625 1.419 . S
C624 C622 1.415 . S
C624 C629 1.425 . S
C624 C631 1.409 . S
C625 H617 0.930 . S
C625 C623 1.419 . S
C625 C626 1.362 . S
C626 H618 0.930 . S
C626 C625 1.362 . S
C626 C629 1.409 . S
C627 H619 0.930 . S
C627 C628 1.355 . S
C627 C629 1.415 . S
C628 C627 1.355 . S
C628 C630 1.419 . S
C629 C624 1.425 . S
C629 C626 1.409 . S
C629 C627 1.415 . S
C630 H620 0.930 . S
C630 C628 1.419 . S
C630 C631 1.362 . S
C631 H621 0.930 . S
C631 C624 1.409 . S
C631 C630 1.362 . S
H632 C638 0.930 . S
H633 C641 0.930 . S
H634 C642 0.930 . S
H635 C643 0.930 . S
H636 C646 0.930 . S
H637 C647 0.930 . S
C638 H632 0.930 . S
C638 C639 1.355 . S
C638 C640 1.415 . S
C639 C638 1.355 . S
C639 C641 1.419 . S
C640 C638 1.415 . S
C640 C645 1.425 . S
C640 C647 1.409 . S
C641 H633 0.930 . S
C641 C639 1.419 . S
C641 C642 1.362 . S
C642 H634 0.930 . S
C642 C641 1.362 . S
C642 C645 1.409 . S
C643 H635 0.930 . S
C643 C644 1.355 . S
C643 C645 1.415 . S
C644 C643 1.355 . S
C644 C646 1.419 . S
C645 C640 1.425 . S
C645 C642 1.409 . S
C645 C643 1.415 . S
C646 H636 0.930 . S
C646 C644 1.419 . S
C646 C647 1.362 . S
C647 H637 0.930 . S
C647 C640 1.409 . S
C647 C646 1.362 . S
C271 N1 0.990 . S
C276 C111 1.000 . S
C287 N18 1.118 . S
C292 C160 1.158 . S
C308 C186 2.116 . S
C303 N28 2.177 . S
C319 N40 2.637 . S
C324 C234 2.618 . S
C340 C146 2.331 . S
C335 N5 2.291 . S
C356 C114 0.556 . S
C351 N14 0.647 . S
C372 C235 2.013 . S
C367 N31 2.039 . S
C388 C203 1.481 . S
C383 N41 1.501 . S
C399 N2 1.354 . S
C404 C231 1.368 . S
C420 C163 2.482 1_556 S
C415 N27 2.509 . S
C431 N44 2.411 . S
C436 C115 2.452 . S
C447 N15 0.849 . S
C452 C200 0.829 . S
C468 C120 1.498 . S
C463 N57 1.509 . S
C479 N70 0.907 . S
C484 C151 0.966 . S
C495 N79 2.308 . S
C500 C195 2.338 . S
C511 N93 2.439 . S
C516 C243 2.413 . S
C527 N54 1.858 . S
C532 C155 2.006 1_566 S
C548 C123 1.359 . S
C543 N66 1.474 . S
C564 C226 1.513 . S
C559 N80 1.560 . S
C580 C194 1.757 . S
C575 N96 1.748 . S
C591 N53 1.454 . S
C596 C240 1.498 . S
C612 C154 2.195 . S
C607 N83 2.190 . S
C628 C106 2.632 . S
C623 N92 2.624 . S
C639 N67 0.969 . S
C644 C191 0.979 . S
