# Generated by pormake.
# Topology nom, (4,4)-cn, num edge types: 1
# Building blocks:
#     Node 0, Type 0, BuildingBlock: AZAVOO_clean_linker_0, # of connection points: 4
#     Node 1, Type 0, BuildingBlock: AZAVOO_clean_linker_0, # of connection points: 4
#     Node 2, Type 0, BuildingBlock: AZAVOO_clean_linker_0, # of connection points: 4
#     Node 3, Type 0, BuildingBlock: AZAVOO_clean_linker_0, # of connection points: 4
#     Node 4, Type 0, BuildingBlock: AZAVOO_clean_linker_0, # of connection points: 4
#     Node 5, Type 0, BuildingBlock: AZAVOO_clean_linker_0, # of connection points: 4
#     Node 6, Type 1, BuildingBlock: UXUYUI_clean_sbu_0, # of connection points: 4
#     Node 7, Type 1, BuildingBlock: UXUYUI_clean_sbu_0, # of connection points: 4
#     Node 8, Type 1, BuildingBlock: UXUYUI_clean_sbu_0, # of connection points: 4
#     Node 9, Type 1, BuildingBlock: UXUYUI_clean_sbu_0, # of connection points: 4
#     Node 10, Type 1, BuildingBlock: UXUYUI_clean_sbu_0, # of connection points: 4
#     Node 11, Type 1, BuildingBlock: UXUYUI_clean_sbu_0, # of connection points: 4
#     Edge 12, Type (0, 1), BuildingBlock: XUDNAN_clean_linker_2, # of connection points: 2
#     Edge 13, Type (0, 1), BuildingBlock: XUDNAN_clean_linker_2, # of connection points: 2
#     Edge 14, Type (0, 1), BuildingBlock: XUDNAN_clean_linker_2, # of connection points: 2
#     Edge 15, Type (0, 1), BuildingBlock: XUDNAN_clean_linker_2, # of connection points: 2
#     Edge 16, Type (0, 1), BuildingBlock: XUDNAN_clean_linker_2, # of connection points: 2
#     Edge 17, Type (0, 1), BuildingBlock: XUDNAN_clean_linker_2, # of connection points: 2
#     Edge 18, Type (0, 1), BuildingBlock: XUDNAN_clean_linker_2, # of connection points: 2
#     Edge 19, Type (0, 1), BuildingBlock: XUDNAN_clean_linker_2, # of connection points: 2
#     Edge 20, Type (0, 1), BuildingBlock: XUDNAN_clean_linker_2, # of connection points: 2
#     Edge 21, Type (0, 1), BuildingBlock: XUDNAN_clean_linker_2, # of connection points: 2
#     Edge 22, Type (0, 1), BuildingBlock: XUDNAN_clean_linker_2, # of connection points: 2
#     Edge 23, Type (0, 1), BuildingBlock: XUDNAN_clean_linker_2, # of connection points: 2
#     Edge 24, Type (0, 1), BuildingBlock: XUDNAN_clean_linker_2, # of connection points: 2
#     Edge 25, Type (0, 1), BuildingBlock: XUDNAN_clean_linker_2, # of connection points: 2
#     Edge 26, Type (0, 1), BuildingBlock: XUDNAN_clean_linker_2, # of connection points: 2
#     Edge 27, Type (0, 1), BuildingBlock: XUDNAN_clean_linker_2, # of connection points: 2
#     Edge 28, Type (0, 1), BuildingBlock: XUDNAN_clean_linker_2, # of connection points: 2
#     Edge 29, Type (0, 1), BuildingBlock: XUDNAN_clean_linker_2, # of connection points: 2
#     Edge 30, Type (0, 1), BuildingBlock: XUDNAN_clean_linker_2, # of connection points: 2
#     Edge 31, Type (0, 1), BuildingBlock: XUDNAN_clean_linker_2, # of connection points: 2
#     Edge 32, Type (0, 1), BuildingBlock: XUDNAN_clean_linker_2, # of connection points: 2
#     Edge 33, Type (0, 1), BuildingBlock: XUDNAN_clean_linker_2, # of connection points: 2
#     Edge 34, Type (0, 1), BuildingBlock: XUDNAN_clean_linker_2, # of connection points: 2
#     Edge 35, Type (0, 1), BuildingBlock: XUDNAN_clean_linker_2, # of connection points: 2
# Relax obj value: 0.171
# Max RMSD: 0.224
# Mean RMSD: 0.184
data_MOF--net-nom--node1-UXUYUI_clean_sbu_0--node2-AZAVOO_clean_linker_0--edge1-XUDNAN_clean_linker_2
_symmetry_space_group_name_H-M    P1
_symmetry_Int_Tables_number       1
_symmetry_cell_setting            triclinic
loop_
_symmetry_equiv_pos_as_xyz
'x, y, z'
_cell_length_a     57.611898
_cell_length_b     58.574994
_cell_length_c     72.211783
_cell_angle_alpha  89.965656
_cell_angle_beta   89.897317
_cell_angle_gamma 121.32687
loop_
_atom_site_label
_atom_site_type_symbol
_atom_site_fract_x
_atom_site_fract_y
_atom_site_fract_z
_atom_type_partial_charge
H0 H 0.07314 0.5046 0.20034 0.0
H1 H 0.1939 0.61823 0.39769 0.0
H2 H 0.00687 0.47102 0.29034 0.0
H3 H 0.97762 0.45921 0.26315 0.0
H4 H 0.97662 0.53208 0.26939 0.0
H5 H 0.00652 0.54402 0.29631 0.0
H6 H 0.06332 0.49183 0.28087 0.0
H7 H 0.06804 0.49051 0.24725 0.0
H8 H 0.06588 0.56295 0.24192 0.0
H9 H 0.06139 0.56408 0.27559 0.0
H10 H 0.10912 0.51712 0.30008 0.0
H11 H 0.15528 0.54008 0.28728 0.0
H12 H 0.16134 0.61611 0.29607 0.0
H13 H 0.1148 0.59283 0.30753 0.0
H14 H 0.10032 0.51562 0.34777 0.0
H15 H 0.13796 0.53371 0.36988 0.0
H16 H 0.14627 0.61127 0.36548 0.0
H17 H 0.10836 0.59279 0.34364 0.0
H18 H 0.04786 0.49956 0.36733 0.0
H19 H 0.06593 0.5151 0.39841 0.0
H20 H 0.07063 0.58984 0.38726 0.0
H21 H 0.05393 0.5747 0.35603 0.0
H22 H 0.9841 0.47068 0.32878 0.0
H23 H 0.93725 0.4578 0.33644 0.0
H24 H 0.96476 0.53981 0.34983 0.0
H25 H 0.01113 0.55284 0.34113 0.0
O26 O 0.07154 0.50564 0.21363 0.0
O27 O 0.0702 0.54283 0.21164 0.0
O28 O 0.17446 0.57049 0.39033 0.0
O29 O 0.17954 0.61075 0.38855 0.0
C30 C 0.03204 0.51871 0.30826 0.0
C31 C 0.05829 0.52833 0.30089 0.0
C32 C 0.08103 0.53991 0.31264 0.0
C33 C 0.07759 0.54133 0.33181 0.0
C34 C 0.05144 0.53219 0.33927 0.0
C35 C 0.02856 0.52104 0.32745 0.0
C36 C 0.00885 0.50839 0.29522 0.0
C37 C -0.00036 0.48401 0.28614 0.0
C38 C 0.98291 0.4773 0.27062 0.0
C39 C 0.97511 0.4949 0.26396 0.0
C40 C 0.98268 0.51834 0.274 0.0
C41 C -0.00054 0.52504 0.28951 0.0
C42 C 0.06216 0.52811 0.28059 0.0
C43 C 0.06411 0.50749 0.2724 0.0
C44 C 0.0667 0.50675 0.2532 0.0
C45 C 0.06732 0.52662 0.24189 0.0
C46 C 0.06548 0.54735 0.25022 0.0
C47 C 0.06296 0.54808 0.26943 0.0
C48 C 0.10875 0.55338 0.30469 0.0
C49 C 0.12041 0.53871 0.29895 0.0
C50 C 0.14685 0.55191 0.29182 0.0
C51 C 0.16213 0.58001 0.29059 0.0
C52 C 0.15012 0.59448 0.29638 0.0
C53 C 0.12362 0.58126 0.30317 0.0
C54 C 0.10166 0.55291 0.34417 0.0
C55 C 0.11045 0.53655 0.35152 0.0
C56 C 0.13188 0.54692 0.36418 0.0
C57 C 0.14502 0.57392 0.36954 0.0
C58 C 0.13654 0.59038 0.36172 0.0
C59 C 0.11496 0.57992 0.3492 0.0
C60 C 0.04936 0.53588 0.3594 0.0
C61 C 0.05132 0.51867 0.37197 0.0
C62 C 0.06184 0.52768 0.38972 0.0
C63 C 0.0703 0.55395 0.39511 0.0
C64 C 0.06473 0.56967 0.38337 0.0
C65 C 0.05457 0.5608 0.3656 0.0
C66 C 0.00118 0.51265 0.33475 0.0
C67 C 0.98007 0.48579 0.33364 0.0
C68 C 0.95342 0.47848 0.33796 0.0
C69 C 0.94764 0.49785 0.34382 0.0
C70 C 0.96889 0.52451 0.34561 0.0
C71 C 0.9954 0.53191 0.34085 0.0
C72 C 0.06978 0.52563 0.22148 0.0
C73 C 0.16724 0.58485 0.3834 0.0
H74 H 0.57236 0.05312 0.37227 0.0
H75 H 0.58026 0.19148 0.55189 0.0
H76 H 0.54659 0.99524 0.47497 0.0
H77 H 0.54022 0.96097 0.45276 0.0
H78 H 0.46256 0.94969 0.43722 0.0
H79 H 0.46892 0.98384 0.45988 0.0
H80 H 0.57438 0.05426 0.4533 0.0
H81 H 0.58161 0.05629 0.41976 0.0
H82 H 0.49815 0.03405 0.41107 0.0
H83 H 0.49131 0.03228 0.44464 0.0
H84 H 0.59071 0.10463 0.48373 0.0
H85 H 0.6087 0.15164 0.47579 0.0
H86 H 0.53099 0.13061 0.45274 0.0
H87 H 0.51276 0.08377 0.46136 0.0
H88 H 0.58007 0.08277 0.52392 0.0
H89 H 0.6004 0.12371 0.54238 0.0
H90 H 0.53841 0.13863 0.52315 0.0
H91 H 0.51797 0.09737 0.50505 0.0
H92 H 0.54551 0.01562 0.53087 0.0
H93 H 0.55661 0.0225 0.56371 0.0
H94 H 0.51276 0.06379 0.56886 0.0
H95 H 0.49977 0.05463 0.53637 0.0
H96 H 0.51804 0.97134 0.50565 0.0
H97 H 0.48717 0.92932 0.5219 0.0
H98 H 0.43053 0.95573 0.53044 0.0
H99 H 0.46117 0.9973 0.51407 0.0
O100 O 0.56916 0.0525 0.38548 0.0
O101 O 0.52606 0.0409 0.38178 0.0
O102 O 0.60351 0.16614 0.55469 0.0
O103 O 0.57251 0.17508 0.54483 0.0
C104 C 0.51463 0.01554 0.4803 0.0
C105 C 0.52782 0.0409 0.47163 0.0
C106 C 0.53764 0.06423 0.48234 0.0
C107 C 0.53537 0.06231 0.50186 0.0
C108 C 0.52186 0.03691 0.51055 0.0
C109 C 0.51044 0.01349 0.49966 0.0
C110 C 0.50808 0.99174 0.46915 0.0
C111 C 0.52785 0.98481 0.46715 0.0
C112 C 0.52421 0.96531 0.45445 0.0
C113 C 0.50091 0.95272 0.44327 0.0
C114 C 0.48075 0.9592 0.44563 0.0
C115 C 0.48423 0.97847 0.45861 0.0
C116 C 0.53233 0.04306 0.45132 0.0
C117 C 0.55776 0.04998 0.4441 0.0
C118 C 0.5618 0.05106 0.42496 0.0
C119 C 0.54043 0.04525 0.41273 0.0
C120 C 0.51502 0.03858 0.42009 0.0
C121 C 0.51104 0.03755 0.43923 0.0
C122 C 0.55034 0.09088 0.47332 0.0
C123 C 0.57776 0.11008 0.47658 0.0
C124 C 0.58797 0.13684 0.47209 0.0
C125 C 0.5711 0.14461 0.46382 0.0
C126 C 0.54438 0.12501 0.45904 0.0
C127 C 0.534 0.0983 0.46388 0.0
C128 C 0.54752 0.08709 0.51319 0.0
C129 C 0.57083 0.09484 0.52381 0.0
C130 C 0.58244 0.11826 0.53429 0.0
C131 C 0.57104 0.13447 0.53422 0.0
C132 C 0.5477 0.12662 0.52352 0.0
C133 C 0.536 0.1031 0.51315 0.0
C134 C 0.52232 0.03513 0.5311 0.0
C135 C 0.53734 0.02516 0.53927 0.0
C136 C 0.54407 0.02955 0.55801 0.0
C137 C 0.53644 0.04456 0.56887 0.0
C138 C 0.51911 0.0522 0.56104 0.0
C139 C 0.5118 0.04717 0.54237 0.0
C140 C 0.49171 0.98726 0.50849 0.0
C141 C 0.49874 0.96779 0.51071 0.0
C142 C 0.48117 0.94389 0.52006 0.0
C143 C 0.45653 0.93934 0.52754 0.0
C144 C 0.44953 0.95881 0.52507 0.0
C145 C 0.46692 0.98248 0.51563 0.0
C146 C 0.54468 0.04607 0.3924 0.0
C147 C 0.5834 0.15948 0.54522 0.0
H148 H 0.53464 0.52001 0.78257 0.0
H149 H 0.57634 0.41173 0.59336 0.0
H150 H 0.53683 0.56514 0.67942 0.0
H151 H 0.52811 0.58658 0.70514 0.0
H152 H 0.44812 0.51623 0.712 0.0
H153 H 0.45751 0.49467 0.68645 0.0
H154 H 0.55391 0.53758 0.70284 0.0
H155 H 0.553 0.5374 0.73673 0.0
H156 H 0.47946 0.45937 0.73596 0.0
H157 H 0.4805 0.45999 0.70205 0.0
H158 H 0.57175 0.50022 0.6908 0.0
H159 H 0.58269 0.47065 0.70784 0.0
H160 H 0.50944 0.40187 0.68698 0.0
H161 H 0.49837 0.43144 0.67044 0.0
H162 H 0.58116 0.51185 0.64085 0.0
H163 H 0.60436 0.49416 0.62279 0.0
H164 H 0.52856 0.41857 0.61777 0.0
H165 H 0.50561 0.43666 0.63565 0.0
H166 H 0.55455 0.54133 0.62013 0.0
H167 H 0.56994 0.53718 0.58942 0.0
H168 H 0.50013 0.45724 0.58484 0.0
H169 H 0.48488 0.46154 0.61554 0.0
H170 H 0.51015 0.56159 0.64707 0.0
H171 H 0.47496 0.57038 0.63678 0.0
H172 H 0.42365 0.4872 0.62182 0.0
H173 H 0.45798 0.47837 0.63313 0.0
O174 O 0.53469 0.51963 0.76916 0.0
O175 O 0.49781 0.47887 0.76803 0.0
O176 O 0.60637 0.45812 0.60416 0.0
O177 O 0.56781 0.41904 0.60086 0.0
C178 C 0.50674 0.51319 0.67004 0.0
C179 C 0.51734 0.49944 0.67951 0.0
C180 C 0.52688 0.48537 0.66947 0.0
C181 C 0.52785 0.4868 0.65001 0.0
C182 C 0.51656 0.49992 0.6405 0.0
C183 C 0.50481 0.51211 0.65051 0.0
C184 C 0.49778 0.52845 0.68111 0.0
C185 C 0.51702 0.55482 0.686 0.0
C186 C 0.51198 0.56701 0.70075 0.0
C187 C 0.48756 0.55296 0.71082 0.0
C188 C 0.46733 0.52738 0.70473 0.0
C189 C 0.47246 0.51516 0.69 0.0
C190 C 0.51726 0.49883 0.70006 0.0
C191 C 0.53764 0.52049 0.71004 0.0
C192 C 0.53706 0.52032 0.72939 0.0
C193 C 0.51614 0.49837 0.73906 0.0
C194 C 0.49585 0.47658 0.72895 0.0
C195 C 0.49642 0.47684 0.7096 0.0
C196 C 0.53443 0.46791 0.67926 0.0
C197 C 0.55815 0.47877 0.68993 0.0
C198 C 0.56429 0.46191 0.69966 0.0
C199 C 0.54695 0.43401 0.69862 0.0
C200 C 0.52334 0.42328 0.6878 0.0
C201 C 0.51703 0.44011 0.67834 0.0
C202 C 0.54179 0.47548 0.63959 0.0
C203 C 0.56968 0.49144 0.6359 0.0
C204 C 0.58285 0.48128 0.62559 0.0
C205 C 0.56832 0.45491 0.61887 0.0
C206 C 0.54037 0.43892 0.62278 0.0
C207 C 0.52722 0.44916 0.63302 0.0
C208 C 0.51872 0.50168 0.62007 0.0
C209 C 0.54176 0.52353 0.61205 0.0
C210 C 0.55059 0.52108 0.59453 0.0
C211 C 0.53646 0.4967 0.58498 0.0
C212 C 0.51149 0.47615 0.59204 0.0
C213 C 0.50261 0.47867 0.60949 0.0
C214 C 0.48656 0.51926 0.64106 0.0
C215 C 0.49138 0.54535 0.64144 0.0
C216 C 0.47133 0.55037 0.63541 0.0
C217 C 0.44625 0.52938 0.62878 0.0
C218 C 0.44241 0.50371 0.62726 0.0
C219 C 0.46223 0.49869 0.63347 0.0
C220 C 0.51557 0.49826 0.75961 0.0
C221 C 0.58209 0.44421 0.60757 0.0
H222 H 0.05092 0.55499 0.94789 0.0
H223 H 0.17936 0.56288 0.75883 0.0
H224 H 0.99218 0.54176 0.85472 0.0
H225 H 0.95813 0.5269 0.87937 0.0
H226 H 0.9385 0.44563 0.87156 0.0
H227 H 0.97271 0.46075 0.84683 0.0
H228 H 0.05633 0.56832 0.86737 0.0
H229 H 0.05809 0.57092 0.90123 0.0
H230 H 0.0199 0.48498 0.90425 0.0
H231 H 0.01873 0.48275 0.87042 0.0
H232 H 0.10496 0.58289 0.83583 0.0
H233 H 0.15059 0.5931 0.84436 0.0
H234 H 0.11688 0.51136 0.86219 0.0
H235 H 0.07158 0.50123 0.85334 0.0
H236 H 0.08358 0.57986 0.79668 0.0
H237 H 0.1236 0.59631 0.77675 0.0
H238 H 0.12581 0.52513 0.78884 0.0
H239 H 0.08551 0.50875 0.80849 0.0
H240 H 0.02883 0.55694 0.78452 0.0
H241 H 0.03919 0.56317 0.75126 0.0
H242 H 0.04251 0.49122 0.75052 0.0
H243 H 0.03284 0.4855 0.78382 0.0
H244 H 0.96748 0.52175 0.81364 0.0
H245 H 0.92256 0.49334 0.79956 0.0
H246 H 0.94303 0.43349 0.78779 0.0
H247 H 0.98719 0.46149 0.80239 0.0
O248 O 0.05039 0.55355 0.93453 0.0
O249 O 0.03011 0.50926 0.9353 0.0
O250 O 0.16201 0.59347 0.76134 0.0
O251 O 0.16355 0.55688 0.76665 0.0
C252 C 0.00939 0.5123 0.83732 0.0
C253 C 0.0351 0.5238 0.84596 0.0
C254 C 0.05873 0.53341 0.83508 0.0
C255 C 0.05687 0.53286 0.81558 0.0
C256 C 0.03121 0.52118 0.80698 0.0
C257 C 0.00738 0.51002 0.81784 0.0
C258 C 0.98482 0.50231 0.84902 0.0
C259 C 0.97992 0.52064 0.85795 0.0
C260 C 0.9605 0.51212 0.87202 0.0
C261 C 0.94584 0.48514 0.87746 0.0
C262 C 0.94971 0.46657 0.86773 0.0
C263 C 0.96898 0.4751 0.85352 0.0
C264 C 0.0372 0.52535 0.86647 0.0
C265 C 0.04853 0.55012 0.87539 0.0
C266 C 0.04942 0.55152 0.89472 0.0
C267 C 0.039 0.52814 0.90545 0.0
C268 C 0.02801 0.50336 0.89642 0.0
C269 C 0.02724 0.50202 0.8771 0.0
C270 C 0.08506 0.5413 0.84388 0.0
C271 C 0.10742 0.5674 0.84197 0.0
C272 C 0.13338 0.57313 0.84675 0.0
C273 C 0.1372 0.55293 0.85376 0.0
C274 C 0.11447 0.52734 0.85695 0.0
C275 C 0.0886 0.52154 0.85195 0.0
C276 C 0.0817 0.54315 0.80399 0.0
C277 C 0.09275 0.56787 0.79498 0.0
C278 C 0.11561 0.57721 0.78364 0.0
C279 C 0.12791 0.56202 0.7812 0.0
C280 C 0.11684 0.53732 0.7904 0.0
C281 C 0.09389 0.52794 0.80166 0.0
C282 C 0.02989 0.52067 0.78649 0.0
C283 C 0.03086 0.54205 0.77703 0.0
C284 C 0.03699 0.5457 0.75813 0.0
C285 C 0.04172 0.52772 0.74843 0.0
C286 C 0.03868 0.50521 0.75766 0.0
C287 C 0.03304 0.50184 0.77662 0.0
C288 C 0.98054 0.49368 0.80892 0.0
C289 C 0.96215 0.5025 0.80799 0.0
C290 C 0.93664 0.48633 0.79985 0.0
C291 C 0.92923 0.46113 0.79258 0.0
C292 C 0.94793 0.45259 0.79347 0.0
C293 C 0.97327 0.46867 0.80164 0.0
C294 C 0.03953 0.52964 0.92598 0.0
C295 C 0.15217 0.57183 0.76913 0.0
H296 H 0.48699 0.97444 0.87446 0.0
H297 H 0.43514 0.8539 0.08249 0.0
H298 H 0.51033 0.04234 0.97289 0.0
H299 H 0.52709 0.06804 0.94405 0.0
H300 H 0.58258 0.03992 0.93707 0.0
H301 H 0.56575 0.01438 0.96588 0.0
H302 H 0.47583 0.99088 0.95307 0.0
H303 H 0.47506 0.98643 0.91935 0.0
H304 H 0.52492 0.95137 0.92376 0.0
H305 H 0.52586 0.95634 0.95746 0.0
H306 H 0.44389 0.93062 0.96814 0.0
H307 H 0.42756 0.8877 0.9524 0.0
H308 H 0.48846 0.87909 0.98094 0.0
H309 H 0.50478 0.92179 0.99623 0.0
H310 H 0.4363 0.93235 0.01489 0.0
H311 H 0.41085 0.89608 0.03715 0.0
H312 H 0.4861 0.90458 0.05615 0.0
H313 H 0.51121 0.94048 0.03366 0.0
H314 H 0.47131 0.98582 0.04072 0.0
H315 H 0.47237 0.98355 0.07459 0.0
H316 H 0.55342 0.99697 0.07164 0.0
H317 H 0.55194 0.99844 0.03788 0.0
H318 H 0.52032 0.04987 0.01908 0.0
H319 H 0.55728 0.09109 0.0333 0.0
H320 H 0.61414 0.06661 0.01973 0.0
H321 H 0.57751 0.02605 0.00509 0.0
O322 O 0.48712 0.97553 0.88785 0.0
O323 O 0.51186 0.95663 0.89089 0.0
O324 O 0.40659 0.86498 0.06359 0.0
O325 O 0.44463 0.86793 0.07338 0.0
C326 C 0.52083 0.00461 0.9848 0.0
C327 C 0.50297 0.97857 0.97799 0.0
C328 C 0.48885 0.95702 0.99045 0.0
C329 C 0.49099 0.96185 0.0097 0.0
C330 C 0.5086 0.98802 0.01651 0.0
C331 C 0.52425 0.00919 0.00402 0.0
C332 C 0.53678 0.02647 0.97138 0.0
C333 C 0.52692 0.0427 0.96554 0.0
C334 C 0.5364 0.05721 0.94903 0.0
C335 C 0.55574 0.05551 0.93818 0.0
C336 C 0.56734 0.04122 0.94503 0.0
C337 C 0.55801 0.0269 0.96156 0.0
C338 C 0.50079 0.97383 0.95767 0.0
C339 C 0.48642 0.98209 0.94672 0.0
C340 C 0.48606 0.97957 0.92747 0.0
C341 C 0.49997 0.96859 0.91885 0.0
C342 C 0.51399 0.95991 0.92995 0.0
C343 C 0.51445 0.96258 0.94919 0.0
C344 C 0.47544 0.92924 0.98338 0.0
C345 C 0.45328 0.91913 0.97122 0.0
C346 C 0.4441 0.89477 0.9622 0.0
C347 C 0.45674 0.88008 0.96546 0.0
C348 C 0.47801 0.88971 0.97836 0.0
C349 C 0.48734 0.91409 0.98715 0.0
C350 C 0.47559 0.9392 0.02278 0.0
C351 C 0.44721 0.92624 0.02381 0.0
C352 C 0.43275 0.9056 0.03658 0.0
C353 C 0.44647 0.89752 0.0485 0.0
C354 C 0.47491 0.91035 0.04723 0.0
C355 C 0.48931 0.93092 0.03444 0.0
C356 C 0.51161 0.9925 0.03683 0.0
C357 C 0.48956 0.989 0.04743 0.0
C358 C 0.49015 0.9876 0.06672 0.0
C359 C 0.51297 0.99007 0.07569 0.0
C360 C 0.53574 0.9954 0.0651 0.0
C361 C 0.53498 0.99639 0.04581 0.0
C362 C 0.54638 0.03515 0.01106 0.0
C363 C 0.54085 0.0537 0.01894 0.0
C364 C 0.56183 0.07705 0.02704 0.0
C365 C 0.58831 0.08167 0.02767 0.0
C366 C 0.5938 0.06326 0.01949 0.0
C367 C 0.57302 0.04031 0.01106 0.0
C368 C 0.50004 0.96648 0.89837 0.0
C369 C 0.43127 0.87583 0.06224 0.0
H370 H 0.47972 0.44487 0.04496 0.0
H371 H 0.63576 0.44707 0.21672 0.0
H372 H 0.47371 0.48832 0.13622 0.0
H373 H 0.45426 0.50431 0.11315 0.0
H374 H 0.52605 0.58318 0.11609 0.0
H375 H 0.54593 0.56689 0.13865 0.0
H376 H 0.49654 0.44989 0.12509 0.0
H377 H 0.48451 0.43972 0.09239 0.0
H378 H 0.54103 0.52253 0.07844 0.0
H379 H 0.5532 0.53232 0.11112 0.0
H380 H 0.53429 0.43584 0.15222 0.0
H381 H 0.55765 0.41686 0.13545 0.0
H382 H 0.60823 0.49261 0.10792 0.0
H383 H 0.58562 0.51155 0.12499 0.0
H384 H 0.52554 0.45105 0.1943 0.0
H385 H 0.54673 0.43141 0.21243 0.0
H386 H 0.62402 0.48579 0.18644 0.0
H387 H 0.60263 0.50546 0.16858 0.0
H388 H 0.50407 0.48858 0.20531 0.0
H389 H 0.511 0.49149 0.23899 0.0
H390 H 0.59764 0.54146 0.23047 0.0
H391 H 0.5906 0.53811 0.19688 0.0
H392 H 0.48897 0.52851 0.17603 0.0
H393 H 0.49162 0.56985 0.18609 0.0
H394 H 0.57905 0.60877 0.18954 0.0
H395 H 0.57628 0.56817 0.17861 0.0
O396 O 0.48506 0.44924 0.05778 0.0
O397 O 0.51471 0.49195 0.05132 0.0
O398 O 0.58673 0.42719 0.22285 0.0
O399 O 0.62686 0.45445 0.20971 0.0
C400 C 0.52499 0.51517 0.14965 0.0
C401 C 0.53185 0.49808 0.1405 0.0
C402 C 0.54547 0.48755 0.15022 0.0
C403 C 0.54966 0.49179 0.16948 0.0
C404 C 0.54269 0.50878 0.17856 0.0
C405 C 0.53201 0.52184 0.16842 0.0
C406 C 0.51121 0.52644 0.13908 0.0
C407 C 0.48496 0.5092 0.13221 0.0
C408 C 0.47394 0.51827 0.11905 0.0
C409 C 0.48879 0.54486 0.1129 0.0
C410 C 0.51421 0.56263 0.12078 0.0
C411 C 0.52549 0.5534 0.13369 0.0
C412 C 0.52554 0.49187 0.1205 0.0
C413 C 0.50641 0.46576 0.11493 0.0
C414 C 0.49952 0.46004 0.09625 0.0
C415 C 0.5117 0.48035 0.08281 0.0
C416 C 0.53119 0.50644 0.08843 0.0
C417 C 0.53812 0.5121 0.1071 0.0
C418 C 0.55818 0.47503 0.13974 0.0
C419 C 0.5504 0.44825 0.14255 0.0
C420 C 0.56368 0.43748 0.13299 0.0
C421 C 0.58449 0.45324 0.12028 0.0
C422 C 0.59192 0.47989 0.11738 0.0
C423 C 0.57904 0.49072 0.12712 0.0
C424 C 0.56253 0.47955 0.18008 0.0
C425 C 0.54704 0.45865 0.19254 0.0
C426 C 0.55919 0.44748 0.20287 0.0
C427 C 0.58708 0.45701 0.20086 0.0
C428 C 0.6025 0.47795 0.18831 0.0
C429 C 0.59034 0.48917 0.17804 0.0
C430 C 0.54685 0.51309 0.19876 0.0
C431 C 0.52448 0.50045 0.21077 0.0
C432 C 0.52845 0.50207 0.22991 0.0
C433 C 0.55482 0.51676 0.23723 0.0
C434 C 0.5771 0.5303 0.22515 0.0
C435 C 0.57315 0.52832 0.20603 0.0
C436 C 0.53242 0.5453 0.17661 0.0
C437 C 0.50861 0.54596 0.1791 0.0
C438 C 0.51019 0.56954 0.18493 0.0
C439 C 0.5356 0.59273 0.18843 0.0
C440 C 0.55921 0.59151 0.1866 0.0
C441 C 0.55764 0.56816 0.18062 0.0
C442 C 0.50401 0.47431 0.06302 0.0
C443 C 0.6001 0.44525 0.21183 0.0
Li444 Li 0.66078 0.45691 0.4288 0.0
Li445 Li 0.64631 0.41395 0.41617 0.0
Li446 Li 0.68909 0.45273 0.40651 0.0
Li447 Li 0.64556 0.4481 0.3978 0.0
C448 C 0.6758 0.42535 0.44866 0.0
N449 N 0.6687 0.40257 0.48334 0.0
C450 C 0.65191 0.41714 0.45866 0.0
C451 C 0.69608 0.42196 0.45632 0.0
C452 C 0.64871 0.4057 0.47617 0.0
C453 C 0.6921 0.4104 0.47386 0.0
C454 C 0.59763 0.41249 0.41528 0.0
C455 C 0.56464 0.3777 0.39536 0.0
N456 N 0.5443 0.3767 0.4056 0.0
C457 C 0.5764 0.41112 0.4256 0.0
C458 C 0.59174 0.39564 0.40003 0.0
C459 C 0.54957 0.39289 0.42049 0.0
C460 C 0.6378 0.47922 0.44991 0.0
N461 N 0.65871 0.47477 0.45006 0.0
C462 C 0.66668 0.48581 0.48212 0.0
C463 C 0.67406 0.47923 0.46544 0.0
C464 C 0.64376 0.48837 0.48268 0.0
C465 C 0.63005 0.4863 0.46617 0.0
H466 H 0.62602 0.4755 0.43742 0.0
H467 H 0.69076 0.47578 0.4651 0.0
C468 C 0.64124 0.36389 0.41346 0.0
N469 N 0.63002 0.37694 0.42146 0.0
C470 C 0.63305 0.3379 0.41895 0.0
C471 C 0.60166 0.33918 0.44059 0.0
C472 C 0.61004 0.36492 0.43442 0.0
C473 C 0.6136 0.32563 0.43305 0.0
H474 H 0.65737 0.37414 0.40339 0.0
H475 H 0.6015 0.37575 0.44061 0.0
C476 C 0.69464 0.50429 0.41567 0.0
N477 N 0.72523 0.55216 0.4342 0.0
C478 C 0.68755 0.52374 0.41477 0.0
C479 C 0.71731 0.5092 0.42596 0.0
C480 C 0.70328 0.54782 0.42424 0.0
C481 C 0.73251 0.53352 0.43523 0.0
C482 C 0.66863 0.428 0.37261 0.0
C483 C 0.67921 0.4528 0.36389 0.0
C484 C 0.66745 0.40676 0.36295 0.0
C485 C 0.68843 0.45592 0.34563 0.0
C486 C 0.67689 0.41069 0.3447 0.0
N487 N 0.68711 0.43498 0.33649 0.0
C488 C 0.73493 0.44825 0.40432 0.0
C489 C 0.73775 0.48301 0.3857 0.0
C490 C 0.75948 0.45278 0.39714 0.0
N491 N 0.72449 0.46308 0.39834 0.0
C492 C 0.76202 0.48776 0.3778 0.0
C493 C 0.77288 0.47231 0.38343 0.0
H494 H 0.72372 0.43233 0.41422 0.0
H495 H 0.72899 0.49455 0.38126 0.0
C496 C 0.62127 0.47518 0.38518 0.0
N497 N 0.62622 0.45577 0.38015 0.0
C498 C 0.60945 0.4843 0.3727 0.0
C499 C 0.60646 0.45204 0.35045 0.0
C500 C 0.61823 0.44345 0.36344 0.0
C501 C 0.60256 0.47321 0.35487 0.0
H502 H 0.62697 0.48387 0.39884 0.0
H503 H 0.62162 0.42747 0.35997 0.0
O504 O 0.67947 0.43653 0.43144 0.0
O505 O 0.62394 0.43032 0.42021 0.0
O506 O 0.67918 0.48031 0.40689 0.0
O507 O 0.65976 0.42445 0.39057 0.0
H508 H 0.63602 0.41968 0.45305 0.0
H509 H 0.71472 0.42822 0.44879 0.0
H510 H 0.63034 0.39931 0.48405 0.0
H511 H 0.70764 0.40765 0.47994 0.0
H512 H 0.55979 0.36456 0.3836 0.0
H513 H 0.58064 0.42401 0.43745 0.0
H514 H 0.60781 0.39631 0.39187 0.0
H515 H 0.53294 0.39162 0.42836 0.0
H516 H 0.67774 0.48735 0.49464 0.0
H517 H 0.61214 0.4879 0.46612 0.0
H518 H 0.64285 0.32807 0.41298 0.0
H519 H 0.58655 0.33022 0.45149 0.0
H520 H 0.67014 0.52035 0.40685 0.0
H521 H 0.72291 0.49424 0.42698 0.0
H522 H 0.69801 0.56305 0.42368 0.0
H523 H 0.75003 0.53754 0.44332 0.0
H524 H 0.68026 0.46947 0.37112 0.0
H525 H 0.65934 0.38743 0.36949 0.0
H526 H 0.69666 0.47501 0.33873 0.0
H527 H 0.67611 0.39442 0.33707 0.0
H528 H 0.76731 0.4404 0.40162 0.0
H529 H 0.77197 0.50298 0.36722 0.0
H530 H 0.60617 0.50017 0.37685 0.0
H531 H 0.60155 0.44294 0.33686 0.0
Li532 Li 0.22691 0.62841 0.59379 0.0
Li533 Li 0.26706 0.62544 0.58173 0.0
Li534 Li 0.26556 0.6656 0.57821 0.0
Li535 Li 0.23521 0.62738 0.56062 0.0
C536 C 0.28562 0.66951 0.61122 0.0
N537 N 0.32639 0.71415 0.62898 0.0
C538 C 0.31261 0.67614 0.60965 0.0
C539 C 0.2793 0.6854 0.62197 0.0
C540 C 0.33294 0.69884 0.6187 0.0
C541 C 0.30023 0.70794 0.63079 0.0
C542 C 0.21379 0.57712 0.56871 0.0
C543 C 0.21409 0.54763 0.54557 0.0
N544 N 0.18645 0.53344 0.54565 0.0
C545 C 0.18541 0.56223 0.56862 0.0
C546 C 0.2283 0.56978 0.55715 0.0
C547 C 0.17195 0.54021 0.55683 0.0
C548 C 0.17325 0.60473 0.60642 0.0
N549 N 0.19938 0.61571 0.61212 0.0
C550 C 0.18516 0.60576 0.6437 0.0
C551 C 0.20574 0.61666 0.63033 0.0
C552 C 0.15786 0.59363 0.63819 0.0
C553 C 0.15204 0.59345 0.61929 0.0
H554 H 0.1689 0.60444 0.59183 0.0
H555 H 0.22675 0.62545 0.63441 0.0
C556 C 0.30794 0.6124 0.57569 0.0
N557 N 0.28844 0.61043 0.58736 0.0
C558 C 0.32313 0.60086 0.58049 0.0
C559 C 0.29794 0.58581 0.60923 0.0
C560 C 0.28332 0.59762 0.60389 0.0
C561 C 0.31804 0.58715 0.59742 0.0
H562 H 0.31155 0.62275 0.56262 0.0
H563 H 0.2678 0.5966 0.61293 0.0
C564 C 0.21571 0.66683 0.57633 0.0
N565 N 0.19354 0.69847 0.58092 0.0
C566 C 0.20779 0.67556 0.5609 0.0
C567 C 0.21203 0.67391 0.5941 0.0
C568 C 0.19673 0.69163 0.56351 0.0
C569 C 0.20087 0.68999 0.59612 0.0
C570 C 0.284 0.66209 0.54311 0.0
C571 C 0.2716 0.6759 0.53712 0.0
C572 C 0.30514 0.66345 0.53267 0.0
C573 C 0.28048 0.69078 0.52075 0.0
C574 C 0.31346 0.67854 0.51638 0.0
N575 N 0.30105 0.69178 0.5108 0.0
C576 C 0.31603 0.71236 0.5725 0.0
C577 C 0.28197 0.72166 0.58068 0.0
C578 C 0.33509 0.73955 0.57035 0.0
N579 N 0.28992 0.70387 0.57732 0.0
C580 C 0.3004 0.74907 0.57876 0.0
C581 C 0.3273 0.75832 0.57332 0.0
H582 H 0.32203 0.69791 0.57015 0.0
H583 H 0.26136 0.71478 0.58466 0.0
C584 C 0.18966 0.60955 0.53804 0.0
N585 N 0.21562 0.61487 0.53796 0.0
C586 C 0.17477 0.60284 0.52162 0.0
C587 C 0.21346 0.60677 0.50542 0.0
C588 C 0.22741 0.61285 0.52222 0.0
C589 C 0.18698 0.60211 0.50501 0.0
H590 H 0.18081 0.61124 0.5508 0.0
H591 H 0.2479 0.61672 0.52258 0.0
O592 O 0.26556 0.64782 0.60202 0.0
O593 O 0.22737 0.59925 0.57966 0.0
O594 O 0.22605 0.65062 0.57399 0.0
O595 O 0.27577 0.64743 0.55914 0.0
H596 H 0.31783 0.66409 0.60132 0.0
H597 H 0.25851 0.68047 0.62339 0.0
H598 H 0.35395 0.70433 0.6175 0.0
H599 H 0.29567 0.72053 0.63906 0.0
H600 H 0.22504 0.54178 0.53648 0.0
H601 H 0.1739 0.56774 0.57743 0.0
H602 H 0.25029 0.58127 0.55695 0.0
H603 H 0.14998 0.52855 0.55655 0.0
H604 H 0.1905 0.60609 0.65811 0.0
H605 H 0.13131 0.58461 0.61449 0.0
H606 H 0.33828 0.60219 0.57091 0.0
H607 H 0.29365 0.57585 0.62253 0.0
H608 H 0.21008 0.66991 0.54706 0.0
H609 H 0.21796 0.66732 0.60619 0.0
H610 H 0.1906 0.69861 0.5517 0.0
H611 H 0.19807 0.69575 0.60979 0.0
H612 H 0.25535 0.67524 0.54501 0.0
H613 H 0.31503 0.65295 0.53711 0.0
H614 H 0.27104 0.70154 0.51598 0.0
H615 H 0.32978 0.67974 0.50816 0.0
H616 H 0.35572 0.7458 0.56644 0.0
H617 H 0.29344 0.76283 0.58107 0.0
H618 H 0.15443 0.59952 0.52176 0.0
H619 H 0.22341 0.60621 0.49283 0.0
Li620 Li 0.65936 0.24367 0.75079 0.0
Li621 Li 0.62175 0.20812 0.76805 0.0
Li622 Li 0.62439 0.20603 0.73298 0.0
Li623 Li 0.61518 0.23912 0.74883 0.0
C624 C 0.67038 0.20367 0.75745 0.0
N625 N 0.71452 0.20024 0.76801 0.0
C626 C 0.68199 0.21268 0.7749 0.0
C627 C 0.68117 0.19292 0.74534 0.0
C628 C 0.70432 0.21079 0.77999 0.0
C629 C 0.7035 0.19135 0.75095 0.0
C630 C 0.63856 0.25518 0.7883 0.0
C631 C 0.61563 0.26054 0.81437 0.0
N632 N 0.63925 0.27208 0.82411 0.0
C633 C 0.66267 0.26727 0.7985 0.0
C634 C 0.61488 0.25194 0.79623 0.0
C635 C 0.66257 0.2756 0.81661 0.0
C636 C 0.69902 0.29572 0.75642 0.0
N637 N 0.6965 0.27189 0.75231 0.0
C638 C 0.74478 0.29262 0.75042 0.0
C639 C 0.71869 0.26994 0.74911 0.0
C640 C 0.74785 0.31745 0.75469 0.0
C641 C 0.72456 0.31883 0.75763 0.0
H642 H 0.68101 0.29673 0.75867 0.0
H643 H 0.71627 0.251 0.74531 0.0
C644 C 0.58911 0.16049 0.78756 0.0
N645 N 0.61032 0.18598 0.78959 0.0
C646 C 0.58049 0.14261 0.80242 0.0
C647 C 0.61549 0.17763 0.82128 0.0
C648 C 0.62351 0.19475 0.80604 0.0
C649 C 0.59387 0.1511 0.81953 0.0
H650 H 0.57912 0.15394 0.77429 0.0
H651 H 0.64069 0.21481 0.8073 0.0
C652 C 0.66052 0.26615 0.71879 0.0
N653 N 0.70304 0.31041 0.70163 0.0
C654 C 0.66029 0.28983 0.71733 0.0
C655 C 0.68228 0.26493 0.71137 0.0
C656 C 0.68199 0.31199 0.70863 0.0
C657 C 0.70362 0.28754 0.7028 0.0
C658 C 0.56611 0.19089 0.75033 0.0
C659 C 0.54996 0.18205 0.73444 0.0
C660 C 0.5546 0.19121 0.76729 0.0
C661 C 0.52254 0.174 0.73577 0.0
C662 C 0.52711 0.18302 0.76805 0.0
N663 N 0.51178 0.17468 0.7524 0.0
C664 C 0.59322 0.15721 0.71388 0.0
C665 C 0.63194 0.19038 0.69757 0.0
C666 C 0.58647 0.13924 0.69922 0.0
N667 N 0.6156 0.18222 0.71276 0.0
C668 C 0.62615 0.17302 0.68272 0.0
C669 C 0.60318 0.14707 0.68344 0.0
H670 H 0.58066 0.15121 0.72619 0.0
H671 H 0.64948 0.21035 0.69697 0.0
C672 C 0.61326 0.28418 0.7562 0.0
N673 N 0.59907 0.26033 0.74733 0.0
C674 C 0.6054 0.30292 0.75479 0.0
C675 C 0.56821 0.27225 0.73516 0.0
C676 C 0.57691 0.25404 0.7369 0.0
C677 C 0.58272 0.2972 0.74405 0.0
H678 H 0.63142 0.28914 0.76381 0.0
H679 H 0.56645 0.23533 0.7295 0.0
O680 O 0.64862 0.20543 0.75215 0.0
O681 O 0.63833 0.24705 0.77051 0.0
O682 O 0.63973 0.24444 0.72765 0.0
O683 O 0.59296 0.19882 0.74929 0.0
H684 H 0.67413 0.22143 0.78428 0.0
H685 H 0.6724 0.18593 0.73176 0.0
H686 H 0.7136 0.21779 0.79342 0.0
H687 H 0.7121 0.1831 0.74173 0.0
H688 H 0.59744 0.25812 0.8207 0.0
H689 H 0.68118 0.26991 0.79258 0.0
H690 H 0.59619 0.24306 0.78841 0.0
H691 H 0.68103 0.28483 0.82471 0.0
H692 H 0.76232 0.29086 0.74787 0.0
H693 H 0.72606 0.33753 0.76113 0.0
H694 H 0.56362 0.12235 0.80053 0.0
H695 H 0.62666 0.18485 0.83412 0.0
H696 H 0.64357 0.29113 0.72288 0.0
H697 H 0.68314 0.24699 0.71275 0.0
H698 H 0.68212 0.33047 0.70746 0.0
H699 H 0.72074 0.28696 0.69722 0.0
H700 H 0.55858 0.18166 0.7212 0.0
H701 H 0.56673 0.19757 0.77976 0.0
H702 H 0.50981 0.16725 0.72358 0.0
H703 H 0.51794 0.18323 0.78108 0.0
H704 H 0.56867 0.11935 0.70033 0.0
H705 H 0.63933 0.17996 0.67069 0.0
H706 H 0.61769 0.32212 0.76146 0.0
H707 H 0.55059 0.26699 0.72674 0.0
Li708 Li 0.42775 0.59937 0.93063 0.0
Li709 Li 0.4349 0.63622 0.91113 0.0
Li710 Li 0.394 0.59307 0.90679 0.0
Li711 Li 0.43731 0.60104 0.89642 0.0
C712 C 0.40362 0.6352 0.93809 0.0
N713 N 0.40259 0.67716 0.95476 0.0
C714 C 0.41967 0.64774 0.95366 0.0
C715 C 0.38707 0.64406 0.931 0.0
C716 C 0.41881 0.66887 0.9619 0.0
C717 C 0.38685 0.6653 0.93962 0.0
C718 C 0.48483 0.64689 0.92319 0.0
C719 C 0.52833 0.68714 0.918 0.0
N720 N 0.53195 0.69066 0.93661 0.0
C721 C 0.48907 0.65093 0.94228 0.0
C722 C 0.50472 0.66511 0.91095 0.0
C723 C 0.513 0.67315 0.94879 0.0
C724 C 0.45104 0.58316 0.95869 0.0
N725 N 0.43119 0.58833 0.95461 0.0
C726 C 0.41757 0.58327 0.9863 0.0
C727 C 0.41405 0.58766 0.96785 0.0
C728 C 0.43872 0.57921 0.99111 0.0
C729 C 0.45516 0.57844 0.97703 0.0
H730 H 0.46435 0.58384 0.94784 0.0
H731 H 0.39818 0.59144 0.96416 0.0
C732 C 0.43173 0.67973 0.89912 0.0
N733 N 0.44593 0.67332 0.91087 0.0
C734 C 0.43347 0.70432 0.90056 0.0
C735 C 0.46559 0.71596 0.92551 0.0
C736 C 0.46311 0.6911 0.92365 0.0
C737 C 0.44992 0.72244 0.9143 0.0
H738 H 0.41751 0.66501 0.88948 0.0
H739 H 0.47345 0.68548 0.93332 0.0
C740 C 0.3873 0.54562 0.91444 0.0
N741 N 0.34094 0.49617 0.92003 0.0
C742 C 0.38103 0.5245 0.90241 0.0
C743 C 0.37006 0.54156 0.92936 0.0
C744 C 0.35749 0.49965 0.90547 0.0
C745 C 0.34669 0.51643 0.93193 0.0
C746 C 0.42784 0.62775 0.87054 0.0
C747 C 0.41261 0.61448 0.85484 0.0
C748 C 0.45396 0.65011 0.8684 0.0
C749 C 0.42397 0.62352 0.83728 0.0
C750 C 0.4646 0.65856 0.85061 0.0
N751 N 0.44953 0.64516 0.83555 0.0
C752 C 0.33933 0.57821 0.91162 0.0
C753 C 0.34939 0.56366 0.88375 0.0
C754 C 0.31374 0.57115 0.90495 0.0
N755 N 0.3569 0.57554 0.9006 0.0
C756 C 0.32403 0.55632 0.87652 0.0
C757 C 0.30639 0.56123 0.88684 0.0
H758 H 0.34577 0.58731 0.92511 0.0
H759 H 0.36369 0.56124 0.87556 0.0
C760 C 0.47898 0.60852 0.87136 0.0
N761 N 0.45245 0.59256 0.87625 0.0
C762 C 0.48757 0.60667 0.85362 0.0
C763 C 0.44186 0.57058 0.84698 0.0
C764 C 0.4341 0.57338 0.8647 0.0
C765 C 0.46865 0.58803 0.84104 0.0
H766 H 0.49301 0.62384 0.88072 0.0
H767 H 0.41294 0.56183 0.86868 0.0
O768 O 0.4047 0.6149 0.92953 0.0
O769 O 0.46175 0.62491 0.91656 0.0
O770 O 0.40996 0.57026 0.91152 0.0
O771 O 0.41758 0.61847 0.8879 0.0
H772 H 0.43304 0.6416 0.95913 0.0
H773 H 0.375 0.63507 0.91872 0.0
H774 H 0.43124 0.67883 0.97388 0.0
H775 H 0.37432 0.6725 0.93418 0.0
H776 H 0.5438 0.70141 0.90866 0.0
H777 H 0.47397 0.63737 0.95203 0.0
H778 H 0.50204 0.66241 0.89616 0.0
H779 H 0.51642 0.67654 0.96352 0.0
H780 H 0.40421 0.58356 0.99675 0.0
H781 H 0.47174 0.57544 0.98025 0.0
H782 H 0.42072 0.7083 0.89182 0.0
H783 H 0.47873 0.72947 0.93617 0.0
H784 H 0.39425 0.52716 0.89091 0.0
H785 H 0.37443 0.55776 0.93866 0.0
H786 H 0.35239 0.48313 0.89627 0.0
H787 H 0.33309 0.51307 0.94335 0.0
H788 H 0.39235 0.59721 0.85615 0.0
H789 H 0.46597 0.6607 0.88035 0.0
H790 H 0.4125 0.61326 0.82503 0.0
H791 H 0.48487 0.67571 0.84879 0.0
H792 H 0.30073 0.57524 0.91337 0.0
H793 H 0.31884 0.54816 0.86265 0.0
H794 H 0.50844 0.62039 0.84951 0.0
H795 H 0.42658 0.55629 0.83757 0.0
Li796 Li 0.78667 0.38761 0.07708 0.0
Li797 Li 0.82608 0.38931 0.09305 0.0
Li798 Li 0.82328 0.39181 0.05826 0.0
Li799 Li 0.79422 0.35102 0.07452 0.0
C800 C 0.8226 0.43854 0.08145 0.0
N801 N 0.81519 0.48028 0.09012 0.0
C802 C 0.82966 0.45031 0.09897 0.0
C803 C 0.8119 0.4481 0.0683 0.0
C804 C 0.82575 0.47138 0.10309 0.0
C805 C 0.80825 0.46918 0.07296 0.0
C806 C 0.76901 0.34261 0.10657 0.0
C807 C 0.75931 0.30438 0.12512 0.0
N808 N 0.73228 0.29505 0.12371 0.0
C809 C 0.74116 0.33275 0.10539 0.0
C810 C 0.77823 0.32843 0.11659 0.0
C811 C 0.7229 0.30863 0.11412 0.0
C812 C 0.74056 0.38827 0.06563 0.0
N813 N 0.75886 0.39555 0.07958 0.0
C814 C 0.73589 0.41237 0.09725 0.0
C815 C 0.75674 0.40704 0.09532 0.0
C816 C 0.71686 0.40542 0.08293 0.0
C817 C 0.71934 0.39308 0.067 0.0
H818 H 0.74222 0.3784 0.05352 0.0
H819 H 0.77128 0.41208 0.10636 0.0
C820 C 0.8756 0.42051 0.11194 0.0
N821 N 0.84855 0.40302 0.11423 0.0
C822 C 0.89206 0.43324 0.12727 0.0
C823 C 0.8526 0.40908 0.14703 0.0
C824 C 0.83688 0.39693 0.13131 0.0
C825 C 0.88049 0.42785 0.14509 0.0
H826 H 0.88421 0.4251 0.09814 0.0
H827 H 0.81521 0.38331 0.13267 0.0
C828 C 0.78201 0.36489 0.03615 0.0
N829 N 0.78 0.36108 0.99798 0.0
C830 C 0.78174 0.34344 0.02743 0.0
C831 C 0.78119 0.38436 0.02545 0.0
C832 C 0.78067 0.34186 0.00812 0.0
C833 C 0.78025 0.38212 0.00617 0.0
C834 C 0.84226 0.35224 0.07579 0.0
C835 C 0.84313 0.33786 0.06063 0.0
C836 C 0.84957 0.34797 0.09333 0.0
C837 C 0.85122 0.31937 0.06329 0.0
C838 C 0.85753 0.32929 0.09542 0.0
N839 N 0.85819 0.3155 0.08048 0.0
C840 C 0.85096 0.43353 0.03215 0.0
C841 C 0.84708 0.39272 0.02343 0.0
C842 C 0.8616 0.44457 0.0148 0.0
N843 N 0.8433 0.40782 0.03596 0.0
C844 C 0.85765 0.40294 0.0059 0.0
C845 C 0.86448 0.42901 0.00125 0.0
H846 H 0.84806 0.44525 0.04239 0.0
H847 H 0.84064 0.37229 0.02669 0.0
C848 C 0.74675 0.30495 0.06686 0.0
N849 N 0.77218 0.31283 0.07284 0.0
C850 C 0.72732 0.27798 0.06479 0.0
C851 C 0.76038 0.26728 0.07519 0.0
C852 C 0.7791 0.29461 0.07744 0.0
C853 C 0.73408 0.25863 0.06862 0.0
H854 H 0.74144 0.31975 0.06384 0.0
H855 H 0.79894 0.30105 0.08294 0.0
O856 O 0.82595 0.41765 0.07723 0.0
O857 O 0.78715 0.36576 0.09767 0.0
O858 O 0.78362 0.36712 0.05503 0.0
O859 O 0.83503 0.3709 0.0734 0.0
H860 H 0.83794 0.4432 0.10934 0.0
H861 H 0.80602 0.43904 0.05474 0.0
H862 H 0.83105 0.48062 0.11662 0.0
H863 H 0.7998 0.47663 0.06297 0.0
H864 H 0.76613 0.29309 0.13281 0.0
H865 H 0.73372 0.34346 0.09762 0.0
H866 H 0.79972 0.33577 0.11757 0.0
H867 H 0.70127 0.30065 0.11323 0.0
H868 H 0.73489 0.42209 0.10972 0.0
H869 H 0.7048 0.38684 0.05581 0.0
H870 H 0.91353 0.44739 0.12519 0.0
H871 H 0.84281 0.40462 0.16048 0.0
H872 H 0.78278 0.3284 0.03544 0.0
H873 H 0.7817 0.40125 0.03195 0.0
H874 H 0.78057 0.32544 0.00119 0.0
H875 H 0.77983 0.39715 0.99772 0.0
H876 H 0.83731 0.34067 0.04701 0.0
H877 H 0.84909 0.3589 0.10523 0.0
H878 H 0.85186 0.30803 0.0517 0.0
H879 H 0.86318 0.32576 0.10892 0.0
H880 H 0.8671 0.46494 0.01192 0.0
H881 H 0.8593 0.39015 0.99584 0.0
H882 H 0.70712 0.27246 0.06035 0.0
H883 H 0.76662 0.25319 0.07836 0.0
Li884 Li 0.47544 0.82219 0.26882 0.0
Li885 Li 0.43607 0.78756 0.25004 0.0
Li886 Li 0.48164 0.79585 0.24531 0.0
Li887 Li 0.47154 0.82909 0.23529 0.0
C888 C 0.46785 0.7676 0.2759 0.0
N889 N 0.48687 0.73649 0.28993 0.0
C890 C 0.45155 0.73975 0.27528 0.0
C891 C 0.49373 0.77965 0.28376 0.0
C892 C 0.46156 0.72436 0.28242 0.0
C893 C 0.503 0.76356 0.29076 0.0
C894 C 0.42706 0.83132 0.25364 0.0
C895 C 0.39593 0.83644 0.23436 0.0
N896 N 0.38702 0.84349 0.24952 0.0
C897 C 0.41774 0.83877 0.26901 0.0
C898 C 0.4162 0.83027 0.23616 0.0
C899 C 0.39742 0.84478 0.26665 0.0
C900 C 0.49772 0.86484 0.2948 0.0
N901 N 0.4839 0.83785 0.29268 0.0
C902 C 0.47778 0.83134 0.32538 0.0
C903 C 0.47394 0.8211 0.30748 0.0
C904 C 0.49174 0.85912 0.32808 0.0
C905 C 0.50187 0.87598 0.31251 0.0
H906 H 0.50511 0.87765 0.28272 0.0
H907 H 0.4625 0.79972 0.30537 0.0
C908 C 0.39471 0.73572 0.24418 0.0
N909 N 0.39942 0.75937 0.25099 0.0
C910 C 0.36924 0.71261 0.24617 0.0
C911 C 0.35355 0.73884 0.26154 0.0
C912 C 0.37948 0.76146 0.25939 0.0
C913 C 0.34842 0.71395 0.25522 0.0
H914 H 0.41108 0.73469 0.23771 0.0
H915 H 0.38388 0.78039 0.26501 0.0
C916 C 0.52697 0.84673 0.23823 0.0
N917 N 0.57218 0.86971 0.21547 0.0
C918 C 0.52475 0.8386 0.2198 0.0
C919 C 0.55217 0.86655 0.2451 0.0
C920 C 0.54783 0.85046 0.20851 0.0
C921 C 0.5748 0.87792 0.23337 0.0
C922 C 0.44381 0.78134 0.21004 0.0
C923 C 0.45795 0.77532 0.19711 0.0
C924 C 0.41796 0.77638 0.20567 0.0
C925 C 0.44605 0.76463 0.17997 0.0
C926 C 0.40675 0.76565 0.18839 0.0
N927 N 0.42092 0.76007 0.176 0.0
C928 C 0.47992 0.75088 0.23289 0.0
C929 C 0.52495 0.78478 0.24046 0.0
C930 C 0.48857 0.73361 0.22775 0.0
N931 N 0.49803 0.77591 0.23898 0.0
C932 C 0.53458 0.76811 0.23535 0.0
C933 C 0.51623 0.74214 0.22889 0.0
H934 H 0.45863 0.74438 0.23198 0.0
H935 H 0.53888 0.80466 0.24561 0.0
C936 C 0.4867 0.88083 0.22316 0.0
N937 N 0.47847 0.85571 0.21722 0.0
C938 C 0.49221 0.90101 0.21038 0.0
C939 C 0.4805 0.86899 0.1857 0.0
C940 C 0.47545 0.84957 0.1989 0.0
C941 C 0.48898 0.89511 0.19137 0.0
H942 H 0.48901 0.88515 0.23783 0.0
H943 H 0.46939 0.8297 0.19442 0.0
O944 O 0.45885 0.78306 0.26842 0.0
O945 O 0.44693 0.8254 0.25578 0.0
O946 O 0.50469 0.83544 0.2496 0.0
O947 O 0.45517 0.79175 0.22692 0.0
H948 H 0.43149 0.73012 0.26921 0.0
H949 H 0.50666 0.80121 0.28421 0.0
H950 H 0.44925 0.70278 0.28194 0.0
H951 H 0.52305 0.7726 0.29678 0.0
H952 H 0.38733 0.83569 0.22091 0.0
H953 H 0.42607 0.8398 0.28263 0.0
H954 H 0.42347 0.82497 0.22409 0.0
H955 H 0.38994 0.85049 0.27843 0.0
H956 H 0.46922 0.81763 0.33696 0.0
H957 H 0.51285 0.89751 0.314 0.0
H958 H 0.36599 0.69382 0.241 0.0
H959 H 0.33807 0.74058 0.2688 0.0
H960 H 0.50546 0.82331 0.21427 0.0
H961 H 0.5542 0.87305 0.25935 0.0
H962 H 0.54639 0.84434 0.19422 0.0
H963 H 0.59444 0.89327 0.2385 0.0
H964 H 0.47796 0.77896 0.20021 0.0
H965 H 0.40651 0.78053 0.21555 0.0
H966 H 0.45681 0.75996 0.16982 0.0
H967 H 0.38676 0.76171 0.18485 0.0
H968 H 0.47377 0.71395 0.22258 0.0
H969 H 0.55605 0.77535 0.23659 0.0
H970 H 0.49865 0.9209 0.21531 0.0
H971 H 0.47828 0.86373 0.17116 0.0
H972 H 0.18845 0.62624 0.26994 0.0
H973 H 0.20099 0.56693 0.29653 0.0
H974 H 0.24929 0.5928 0.2875 0.0
H975 H 0.2375 0.64449 0.23213 0.0
H976 H 0.24853 0.67943 0.2335 0.0
H977 H 0.21417 0.65438 0.23973 0.0
H978 H 0.22078 0.67653 0.2719 0.0
H979 H 0.25512 0.70156 0.26582 0.0
H980 H 0.24854 0.68159 0.28637 0.0
H981 H 0.29686 0.62677 0.27782 0.0
H982 H 0.34044 0.66708 0.26913 0.0
H983 H 0.29726 0.7054 0.25066 0.0
C984 C 0.20123 0.61854 0.27385 0.0
C985 C 0.19074 0.5944 0.2839 0.0
C986 C 0.20828 0.58503 0.2885 0.0
C987 C 0.23583 0.59967 0.28352 0.0
C988 C 0.24555 0.62367 0.27401 0.0
C989 C 0.2288 0.63306 0.26925 0.0
C990 C 0.24465 0.66046 0.26039 0.0
C991 C 0.23568 0.65963 0.24024 0.0
C992 C 0.24212 0.68125 0.27181 0.0
C993 C 0.27308 0.6653 0.26131 0.0
C994 C 0.27311 0.64365 0.26892 0.0
C995 C 0.29707 0.64373 0.27167 0.0
C996 C 0.32168 0.66665 0.26664 0.0
C997 C 0.32213 0.68925 0.25917 0.0
C998 C 0.29746 0.68841 0.25637 0.0
H999 H 0.57142 0.17214 0.43291 0.0
H1000 H 0.59046 0.18107 0.49151 0.0
H1001 H 0.6028 0.22825 0.49005 0.0
H1002 H 0.62687 0.23834 0.41957 0.0
H1003 H 0.60726 0.24276 0.40207 0.0
H1004 H 0.59993 0.2097 0.40775 0.0
H1005 H 0.54985 0.19494 0.41458 0.0
H1006 H 0.55707 0.228 0.40905 0.0
H1007 H 0.54254 0.21331 0.43123 0.0
H1008 H 0.61055 0.27334 0.48267 0.0
H1009 H 0.61786 0.31538 0.46912 0.0
H1010 H 0.59649 0.27834 0.4149 0.0
C1011 C 0.57838 0.18418 0.44535 0.0
C1012 C 0.58018 0.1732 0.46231 0.0
C1013 C 0.58933 0.18936 0.47837 0.0
C1014 C 0.59618 0.21605 0.47769 0.0
C1015 C 0.59405 0.2263 0.4608 0.0
C1016 C 0.58577 0.21104 0.44485 0.0
C1017 C 0.58584 0.22719 0.42842 0.0
C1018 C 0.60619 0.22964 0.41358 0.0
C1019 C 0.55711 0.21514 0.42035 0.0
C1020 C 0.59521 0.25381 0.43767 0.0
C1021 C 0.59953 0.25273 0.45639 0.0
C1022 C 0.60744 0.27452 0.46801 0.0
C1023 C 0.61138 0.2982 0.46024 0.0
C1024 C 0.60771 0.29994 0.44104 0.0
C1025 C 0.59954 0.27746 0.42962 0.0
H1026 H 0.44772 0.57233 0.61144 0.0
H1027 H 0.39283 0.49598 0.63775 0.0
H1028 H 0.35438 0.50201 0.63163 0.0
H1029 H 0.41542 0.60631 0.62952 0.0
H1030 H 0.42061 0.62558 0.60879 0.0
H1031 H 0.44399 0.615 0.6146 0.0
H1032 H 0.43575 0.59209 0.58259 0.0
H1033 H 0.41228 0.60253 0.57671 0.0
H1034 H 0.40157 0.56766 0.57566 0.0
H1035 H 0.32192 0.51611 0.62325 0.0
H1036 H 0.29725 0.538 0.61341 0.0
H1037 H 0.37277 0.60604 0.5933 0.0
C1038 C 0.42763 0.55691 0.61594 0.0
C1039 C 0.42332 0.53348 0.62484 0.0
C1040 C 0.39664 0.51379 0.63048 0.0
C1041 C 0.37464 0.51709 0.62719 0.0
C1042 C 0.37954 0.54027 0.61831 0.0
C1043 C 0.40532 0.55991 0.61278 0.0
C1044 C 0.4049 0.58311 0.6038 0.0
C1045 C 0.42226 0.60903 0.61484 0.0
C1046 C 0.41417 0.58654 0.58348 0.0
C1047 C 0.37488 0.57342 0.60525 0.0
C1048 C 0.36069 0.54863 0.61364 0.0
C1049 C 0.33279 0.53557 0.61671 0.0
C1050 C 0.31899 0.54825 0.61117 0.0
C1051 C 0.33306 0.57381 0.60268 0.0
C1052 C 0.36139 0.58641 0.59959 0.0
H1053 H 0.89601 0.40701 0.79698 0.0
H1054 H 0.90088 0.47537 0.76957 0.0
H1055 H 0.85562 0.44568 0.75576 0.0
H1056 H 0.86293 0.36006 0.75946 0.0
H1057 H 0.84216 0.33246 0.77476 0.0
H1058 H 0.87503 0.35907 0.78228 0.0
H1059 H 0.85294 0.36687 0.81099 0.0
H1060 H 0.82005 0.34022 0.80361 0.0
H1061 H 0.82565 0.37306 0.80778 0.0
H1062 H 0.80944 0.40858 0.74553 0.0
H1063 H 0.76531 0.36696 0.7402 0.0
H1064 H 0.79146 0.32299 0.77377 0.0
C1065 C 0.88775 0.41574 0.78788 0.0
C1066 C 0.90202 0.44352 0.7843 0.0
C1067 C 0.8902 0.45419 0.77265 0.0
C1068 C 0.86462 0.43746 0.76463 0.0
C1069 C 0.85122 0.41015 0.76838 0.0
C1070 C 0.86237 0.39938 0.77974 0.0
C1071 C 0.84359 0.36949 0.78192 0.0
C1072 C 0.85672 0.35438 0.77413 0.0
C1073 C 0.83505 0.36198 0.80228 0.0
C1074 C 0.81998 0.36511 0.77011 0.0
C1075 C 0.82479 0.38879 0.76238 0.0
C1076 C 0.80551 0.3899 0.75144 0.0
C1077 C 0.78052 0.36623 0.74854 0.0
C1078 C 0.77508 0.34182 0.75653 0.0
C1079 C 0.79525 0.34129 0.76724 0.0
H1080 H 0.44977 0.83289 0.97806 0.0
H1081 H 0.44905 0.87352 0.92801 0.0
H1082 H 0.44445 0.83611 0.90921 0.0
H1083 H 0.49081 0.81066 0.96109 0.0
H1084 H 0.47364 0.77887 0.97286 0.0
H1085 H 0.47304 0.80686 0.98252 0.0
H1086 H 0.42036 0.77941 0.98292 0.0
H1087 H 0.42078 0.75114 0.97351 0.0
H1088 H 0.40214 0.76387 0.9619 0.0
H1089 H 0.44521 0.79663 0.89584 0.0
H1090 H 0.44838 0.75691 0.88911 0.0
H1091 H 0.44839 0.74255 0.9481 0.0
C1092 C 0.44812 0.83367 0.96316 0.0
C1093 C 0.44963 0.85599 0.95447 0.0
C1094 C 0.44747 0.85636 0.93495 0.0
C1095 C 0.44504 0.83531 0.92416 0.0
C1096 C 0.44459 0.81401 0.93315 0.0
C1097 C 0.44569 0.81289 0.95224 0.0
C1098 C 0.44638 0.78862 0.9585 0.0
C1099 C 0.47252 0.79676 0.96938 0.0
C1100 C 0.42089 0.76963 0.96988 0.0
C1101 C 0.44628 0.77665 0.93996 0.0
C1102 C 0.44507 0.79143 0.92549 0.0
C1103 C 0.44579 0.7847 0.90707 0.0
C1104 C 0.4476 0.76214 0.90339 0.0
C1105 C 0.4488 0.74673 0.91807 0.0
C1106 C 0.44798 0.75414 0.93655 0.0
H1107 H 0.60781 0.42712 0.13536 0.0
H1108 H 0.5959 0.45671 0.08337 0.0
H1109 H 0.62616 0.44464 0.06764 0.0
H1110 H 0.67676 0.45228 0.12963 0.0
H1111 H 0.67701 0.42443 0.14003 0.0
H1112 H 0.65166 0.43197 0.14682 0.0
H1113 H 0.61342 0.38389 0.13834 0.0
H1114 H 0.63868 0.37605 0.13174 0.0
H1115 H 0.61272 0.37109 0.11552 0.0
H1116 H 0.661 0.43377 0.05833 0.0
H1117 H 0.69738 0.42362 0.05573 0.0
H1118 H 0.68637 0.40048 0.11372 0.0
C1119 C 0.61097 0.43028 0.12056 0.0
C1120 C 0.59947 0.44265 0.1105 0.0
C1121 C 0.60459 0.44723 0.09127 0.0
C1122 C 0.62165 0.44038 0.08223 0.0
C1123 C 0.63333 0.42893 0.09264 0.0
C1124 C 0.62807 0.42369 0.11134 0.0
C1125 C 0.64476 0.41302 0.11956 0.0
C1126 C 0.66366 0.43154 0.13491 0.0
C1127 C 0.62629 0.3843 0.12671 0.0
C1128 C 0.6607 0.41373 0.10265 0.0
C1129 C 0.65361 0.42273 0.08724 0.0
C1130 C 0.66642 0.42626 0.07021 0.0
C1131 C 0.68701 0.42036 0.06887 0.0
C1132 C 0.69464 0.41108 0.08449 0.0
C1133 C 0.68114 0.40766 0.10155 0.0
H1134 H 0.44009 0.88751 0.51848 0.0
H1135 H 0.43138 0.93551 0.56048 0.0
H1136 H 0.39877 0.89449 0.57744 0.0
H1137 H 0.37092 0.83553 0.51766 0.0
H1138 H 0.3777 0.80902 0.51442 0.0
H1139 H 0.40163 0.84217 0.50615 0.0
H1140 H 0.43984 0.84252 0.52527 0.0
H1141 H 0.41602 0.80931 0.53358 0.0
H1142 H 0.43521 0.83599 0.54981 0.0
H1143 H 0.36569 0.84837 0.58912 0.0
H1144 H 0.33441 0.80011 0.59477 0.0
H1145 H 0.36429 0.78206 0.54505 0.0
C1146 C 0.43164 0.88936 0.5314 0.0
C1147 C 0.43822 0.91466 0.53817 0.0
C1148 C 0.4264 0.91629 0.55496 0.0
C1149 C 0.40799 0.89313 0.56475 0.0
C1150 C 0.40163 0.86848 0.55757 0.0
C1151 C 0.41312 0.86642 0.54132 0.0
C1152 C 0.40196 0.83744 0.53625 0.0
C1153 C 0.38717 0.83065 0.51751 0.0
C1154 C 0.42461 0.83094 0.53623 0.0
C1155 C 0.38224 0.82357 0.5521 0.0
C1156 C 0.38245 0.84185 0.56429 0.0
C1157 C 0.36541 0.83385 0.57972 0.0
C1158 C 0.3476 0.80641 0.58274 0.0
C1159 C 0.34691 0.7873 0.57038 0.0
C1160 C 0.36463 0.79613 0.55493 0.0
H1161 H 0.54611 0.38983 0.68548 0.0
H1162 H 0.56162 0.43754 0.73498 0.0
H1163 H 0.57035 0.4064 0.75248 0.0
H1164 H 0.5122 0.32528 0.70768 0.0
H1165 H 0.52733 0.3118 0.69281 0.0
H1166 H 0.52181 0.33752 0.68431 0.0
H1167 H 0.57286 0.36705 0.67581 0.0
H1168 H 0.57848 0.34134 0.68413 0.0
H1169 H 0.59814 0.37472 0.69333 0.0
H1170 H 0.5767 0.36971 0.76454 0.0
H1171 H 0.58387 0.3322 0.76984 0.0
H1172 H 0.56581 0.30954 0.71203 0.0
C1173 C 0.5512 0.3936 0.70003 0.0
C1174 C 0.55311 0.41596 0.70895 0.0
C1175 C 0.56024 0.42057 0.72791 0.0
C1176 C 0.56503 0.40292 0.73796 0.0
C1177 C 0.56275 0.38091 0.72878 0.0
C1178 C 0.55627 0.37635 0.7102 0.0
C1179 C 0.55609 0.35181 0.70344 0.0
C1180 C 0.52766 0.33034 0.69666 0.0
C1181 C 0.57768 0.35918 0.68829 0.0
C1182 C 0.56349 0.34324 0.72113 0.0
C1183 C 0.56702 0.36015 0.73562 0.0
C1184 C 0.57413 0.3564 0.75328 0.0
C1185 C 0.57826 0.3351 0.75613 0.0
C1186 C 0.57553 0.31794 0.74135 0.0
C1187 C 0.56767 0.32198 0.7237 0.0
H1188 H 0.15743 0.53889 0.88312 0.0
H1189 H 0.17883 0.57665 0.82897 0.0
H1190 H 0.22379 0.58114 0.83112 0.0
H1191 H 0.22397 0.5797 0.90362 0.0
H1192 H 0.22166 0.55256 0.91695 0.0
H1193 H 0.19128 0.55258 0.91116 0.0
H1194 H 0.17125 0.50591 0.89607 0.0
H1195 H 0.20171 0.50588 0.90162 0.0
H1196 H 0.19003 0.50124 0.87801 0.0
H1197 H 0.26553 0.58036 0.83863 0.0
H1198 H 0.30357 0.57838 0.85232 0.0
H1199 H 0.2553 0.54112 0.9017 0.0
C1200 C 0.17168 0.54821 0.87178 0.0
C1201 C 0.16483 0.55759 0.85593 0.0
C1202 C 0.18392 0.56975 0.84136 0.0
C1203 C 0.20936 0.57214 0.84237 0.0
C1204 C 0.21535 0.56236 0.85807 0.0
C1205 C 0.19723 0.55092 0.87261 0.0
C1206 C 0.20898 0.54247 0.88803 0.0
C1207 C 0.21163 0.55775 0.906 0.0
C1208 C 0.19197 0.51207 0.89111 0.0
C1209 C 0.23653 0.55097 0.87986 0.0
C1210 C 0.23964 0.56214 0.8625 0.0
C1211 C 0.26335 0.5716 0.8522 0.0
C1212 C 0.28474 0.57014 0.86003 0.0
C1213 C 0.28231 0.55941 0.87802 0.0
C1214 C 0.25773 0.54944 0.88793 0.0
H1215 H 0.60826 0.13394 0.019 0.0
H1216 H 0.61792 0.08238 0.05716 0.0
H1217 H 0.65598 0.12209 0.07245 0.0
H1218 H 0.6793 0.18065 0.01293 0.0
H1219 H 0.67567 0.20935 0.01124 0.0
H1220 H 0.64824 0.17698 0.00418 0.0
H1221 H 0.61564 0.18124 0.02674 0.0
H1222 H 0.64298 0.21366 0.03386 0.0
H1223 H 0.62444 0.18789 0.0509 0.0
H1224 H 0.69275 0.16765 0.08356 0.0
H1225 H 0.72667 0.21531 0.08887 0.0
H1226 H 0.69513 0.23635 0.04145 0.0
C1227 C 0.61826 0.13116 0.03071 0.0
C1228 C 0.61023 0.10536 0.03711 0.0
C1229 C 0.62394 0.10217 0.0522 0.0
C1230 C 0.64545 0.12453 0.06094 0.0
C1231 C 0.65311 0.14981 0.05422 0.0
C1232 C 0.64006 0.15322 0.03936 0.0
C1233 C 0.65307 0.1824 0.03425 0.0
C1234 C 0.66477 0.18765 0.01448 0.0
C1235 C 0.63282 0.19185 0.03658 0.0
C1236 C 0.67539 0.19488 0.04859 0.0
C1237 C 0.67497 0.17584 0.06008 0.0
C1238 C 0.69342 0.18275 0.07455 0.0
C1239 C 0.71279 0.2099 0.07735 0.0
C1240 C 0.71375 0.22979 0.06559 0.0
C1241 C 0.6948 0.2219 0.05096 0.0
H1242 H 0.50248 0.60109 0.21148 0.0
H1243 H 0.57357 0.64271 0.17597 0.0
H1244 H 0.5781 0.68566 0.18412 0.0
H1245 H 0.47468 0.64137 0.19951 0.0
H1246 H 0.46202 0.64074 0.22247 0.0
H1247 H 0.46521 0.61332 0.21462 0.0
H1248 H 0.49532 0.61935 0.24303 0.0
H1249 H 0.49235 0.6469 0.25091 0.0
H1250 H 0.52546 0.65144 0.24726 0.0
H1251 H 0.57441 0.72409 0.19544 0.0
H1252 H 0.5611 0.75494 0.20792 0.0
H1253 H 0.4922 0.68841 0.2357 0.0
C1254 C 0.51894 0.61921 0.20537 0.0
C1255 C 0.53785 0.61848 0.19326 0.0
C1256 C 0.55918 0.64274 0.18562 0.0
C1257 C 0.56187 0.66727 0.19009 0.0
C1258 C 0.54304 0.66728 0.20216 0.0
C1259 C 0.5219 0.64391 0.20962 0.0
C1260 C 0.50388 0.64942 0.22174 0.0
C1261 C 0.47473 0.63538 0.21412 0.0
C1262 C 0.50429 0.6413 0.24193 0.0
C1263 C 0.51804 0.67948 0.21973 0.0
C1264 C 0.54072 0.68943 0.20851 0.0
C1265 C 0.55677 0.71657 0.20433 0.0
C1266 C 0.54917 0.73397 0.21158 0.0
C1267 C 0.52564 0.7241 0.22277 0.0
C1268 C 0.51018 0.69653 0.22706 0.0
H1269 H 0.92529 0.50461 0.37522 0.0
H1270 H 0.90664 0.47564 0.31876 0.0
H1271 H 0.85986 0.4666 0.32259 0.0
H1272 H 0.85931 0.45519 0.3943 0.0
H1273 H 0.85882 0.47824 0.41059 0.0
H1274 H 0.89074 0.48247 0.40328 0.0
H1275 H 0.90709 0.5309 0.39284 0.0
H1276 H 0.87514 0.52674 0.39998 0.0
H1277 H 0.88699 0.53668 0.37655 0.0
H1278 H 0.8163 0.46341 0.33199 0.0
H1279 H 0.77685 0.46135 0.34752 0.0
H1280 H 0.82271 0.48929 0.39853 0.0
C1281 C 0.91121 0.49622 0.36375 0.0
C1282 C 0.91931 0.49077 0.3467 0.0
C1283 C 0.90054 0.47971 0.33195 0.0
C1284 C 0.87408 0.47468 0.33398 0.0
C1285 C 0.86672 0.48049 0.35092 0.0
C1286 C 0.88456 0.49059 0.36566 0.0
C1287 C 0.87128 0.49437 0.38255 0.0
C1288 C 0.86996 0.4765 0.39863 0.0
C1289 C 0.886 0.52393 0.38831 0.0
C1290 C 0.84329 0.48511 0.37494 0.0
C1291 C 0.84119 0.47749 0.3566 0.0
C1292 C 0.81759 0.46907 0.34638 0.0
C1293 C 0.79542 0.46808 0.35524 0.0
C1294 C 0.79697 0.47511 0.37411 0.0
C1295 C 0.82116 0.48372 0.38408 0.0
H1296 H 0.06731 0.53335 0.43018 0.0
H1297 H 0.11693 0.60269 0.39543 0.0
H1298 H 0.15176 0.62209 0.41968 0.0
H1299 H 0.08451 0.57055 0.47397 0.0
H1300 H 0.08479 0.54443 0.48698 0.0
H1301 H 0.06309 0.53615 0.46705 0.0
H1302 H 0.08494 0.51116 0.45272 0.0
H1303 H 0.10691 0.51959 0.4725 0.0
H1304 H 0.12126 0.52861 0.44955 0.0
H1305 H 0.18291 0.63248 0.44624 0.0
H1306 H 0.20641 0.63584 0.47562 0.0
H1307 H 0.13632 0.56143 0.49439 0.0
C1308 C 0.08537 0.55274 0.42781 0.0
C1309 C 0.08928 0.56653 0.4109 0.0
C1310 C 0.11322 0.59188 0.40832 0.0
C1311 C 0.13328 0.60302 0.42197 0.0
C1312 C 0.12904 0.58876 0.43829 0.0
C1313 C 0.10553 0.56443 0.44147 0.0
C1314 C 0.10618 0.5535 0.4604 0.0
C1315 C 0.08328 0.55102 0.47283 0.0
C1316 C 0.10474 0.52662 0.45868 0.0
C1317 C 0.13386 0.57535 0.46717 0.0
C1318 C 0.14676 0.59534 0.45407 0.0
C1319 C 0.17293 0.61714 0.45672 0.0
C1320 C 0.18617 0.61878 0.47335 0.0
C1321 C 0.1731 0.59893 0.48716 0.0
C1322 C 0.14661 0.57694 0.48403 0.0
H1323 H 0.51417 0.05368 0.60001 0.0
H1324 H 0.58858 0.06099 0.57915 0.0
H1325 H 0.61192 0.08327 0.6079 0.0
H1326 H 0.54554 0.11765 0.61869 0.0
H1327 H 0.52374 0.1088 0.6387 0.0
H1328 H 0.51124 0.08934 0.61786 0.0
H1329 H 0.49894 0.04644 0.63621 0.0
H1330 H 0.51133 0.06578 0.65718 0.0
H1331 H 0.52471 0.04548 0.64973 0.0
H1332 H 0.62901 0.10945 0.63689 0.0
H1333 H 0.63841 0.13751 0.66464 0.0
H1334 H 0.55386 0.11519 0.66653 0.0
C1335 C 0.53525 0.05957 0.60157 0.0
C1336 C 0.54927 0.05507 0.58728 0.0
C1337 C 0.57696 0.06331 0.58998 0.0
C1338 C 0.59057 0.07624 0.60627 0.0
C1339 C 0.57633 0.0809 0.61981 0.0
C1340 C 0.54927 0.07275 0.61771 0.0
C1341 C 0.53943 0.08235 0.6337 0.0
C1342 C 0.52941 0.10062 0.62682 0.0
C1343 C 0.51729 0.05859 0.64487 0.0
C1344 C 0.56543 0.09784 0.64477 0.0
C1345 C 0.58637 0.09646 0.6366 0.0
C1346 C 0.61272 0.11042 0.64357 0.0
C1347 C 0.6179 0.12645 0.65924 0.0
C1348 C 0.59686 0.12847 0.66773 0.0
C1349 C 0.57022 0.11364 0.66052 0.0
H1350 H 0.46607 0.52497 0.74296 0.0
H1351 H 0.50389 0.6049 0.7197 0.0
H1352 H 0.50452 0.62284 0.7508 0.0
H1353 H 0.42258 0.53292 0.77592 0.0
H1354 H 0.42606 0.51273 0.79324 0.0
H1355 H 0.42803 0.50648 0.76904 0.0
H1356 H 0.47482 0.51167 0.77468 0.0
H1357 H 0.47355 0.51863 0.79881 0.0
H1358 H 0.50191 0.54209 0.78473 0.0
H1359 H 0.50289 0.63215 0.78473 0.0
H1360 H 0.49518 0.63164 0.81848 0.0
H1361 H 0.45724 0.5454 0.81902 0.0
C1362 C 0.47383 0.54616 0.74424 0.0
C1363 C 0.48483 0.56352 0.72884 0.0
C1364 C 0.49552 0.59125 0.73132 0.0
C1365 C 0.49593 0.60161 0.74891 0.0
C1366 C 0.48543 0.58396 0.76383 0.0
C1367 C 0.47421 0.55678 0.76161 0.0
C1368 C 0.46432 0.54206 0.77985 0.0
C1369 C 0.43341 0.52239 0.77949 0.0
C1370 C 0.47958 0.52779 0.78481 0.0
C1371 C 0.47189 0.56523 0.79274 0.0
C1372 C 0.4842 0.58926 0.78326 0.0
C1373 C 0.49321 0.61346 0.79229 0.0
C1374 C 0.489 0.613 0.81145 0.0
C1375 C 0.47578 0.5885 0.8213 0.0
C1376 C 0.46737 0.56439 0.8118 0.0
H1377 H 0.94537 0.45442 0.90609 0.0
H1378 H 0.90836 0.4985 0.88714 0.0
H1379 H 0.88283 0.48827 0.91663 0.0
H1380 H 0.88629 0.40192 0.93091 0.0
H1381 H 0.90658 0.40049 0.94934 0.0
H1382 H 0.92054 0.41001 0.92633 0.0
H1383 H 0.96104 0.45401 0.93929 0.0
H1384 H 0.94712 0.44474 0.9623 0.0
H1385 H 0.95449 0.47615 0.95253 0.0
H1386 H 0.86283 0.47467 0.9486 0.0
H1387 H 0.8489 0.45791 0.98052 0.0
H1388 H 0.89974 0.42338 0.9787 0.0
C1389 C 0.93141 0.46139 0.90797 0.0
C1390 C 0.92858 0.47702 0.89429 0.0
C1391 C 0.91075 0.48647 0.89748 0.0
C1392 C 0.89618 0.48073 0.91414 0.0
C1393 C 0.89975 0.46559 0.92746 0.0
C1394 C 0.91685 0.45597 0.92454 0.0
C1395 C 0.91792 0.44109 0.94135 0.0
C1396 C 0.90718 0.41163 0.9367 0.0
C1397 C 0.94686 0.45482 0.94934 0.0
C1398 C 0.89877 0.44386 0.95422 0.0
C1399 C 0.8885 0.45805 0.94595 0.0
C1400 C 0.87072 0.46352 0.95522 0.0
C1401 C 0.86311 0.45411 0.9734 0.0
C1402 C 0.87332 0.43943 0.98215 0.0
C1403 C 0.89139 0.43431 0.97235 0.0
H1404 H 0.47265 0.94662 0.09357 0.0
H1405 H 0.5514 0.01816 0.10232 0.0
H1406 H 0.55155 0.00386 0.1346 0.0
H1407 H 0.44534 0.94104 0.14125 0.0
H1408 H 0.42863 0.90511 0.14098 0.0
H1409 H 0.43301 0.92312 0.11974 0.0
H1410 H 0.45731 0.90077 0.1051 0.0
H1411 H 0.45328 0.88285 0.12624 0.0
H1412 H 0.48666 0.90377 0.11638 0.0
H1413 H 0.54487 0.97945 0.16484 0.0
H1414 H 0.53284 0.94636 0.18997 0.0
H1415 H 0.45883 0.89065 0.16088 0.0
C1416 C 0.48948 0.95973 0.10249 0.0
C1417 C 0.51181 0.9837 0.09563 0.0
C1418 C 0.53401 -0.00017 0.10744 0.0
C1419 C 0.5342 0.99191 0.12577 0.0
C1420 C 0.51206 0.96782 0.132 0.0
C1421 C 0.49008 0.95201 0.1207 0.0
C1422 C 0.47011 0.92582 0.12999 0.0
C1423 C 0.44265 0.92366 0.13318 0.0
C1424 C 0.46667 0.9019 0.11876 0.0
C1425 C 0.48465 0.92896 0.14808 0.0
C1426 C 0.50856 0.95348 0.14915 0.0
C1427 C 0.52601 0.96033 0.16425 0.0
C1428 C 0.51899 0.94147 0.17848 0.0
C1429 C 0.49492 0.91598 0.17736 0.0
C1430 C 0.47741 0.90995 0.16208 0.0
H1431 H 0.53549 0.47276 0.25912 0.0
H1432 H 0.58584 0.5592 0.25999 0.0
H1433 H 0.59849 0.55745 0.29246 0.0
H1434 H 0.5136 0.4631 0.30904 0.0
H1435 H 0.51572 0.43356 0.31094 0.0
H1436 H 0.5067 0.44191 0.28916 0.0
H1437 H 0.54622 0.44053 0.27312 0.0
H1438 H 0.55552 0.43243 0.2948 0.0
H1439 H 0.5803 0.46122 0.28184 0.0
H1440 H 0.61028 0.54608 0.32287 0.0
H1441 H 0.62157 0.52617 0.34873 0.0
H1442 H 0.56352 0.44683 0.32816 0.0
C1443 C 0.54838 0.49132 0.26642 0.0
C1444 C 0.55944 0.51614 0.25727 0.0
C1445 C 0.57708 0.54003 0.2669 0.0
C1446 C 0.58422 0.53921 0.28533 0.0
C1447 C 0.57352 0.51434 0.29384 0.0
C1448 C 0.55589 0.49081 0.28472 0.0
C1449 C 0.54984 0.46663 0.29615 0.0
C1450 C 0.51967 0.45034 0.30165 0.0
C1451 C 0.5585 0.4492 0.28586 0.0
C1452 C 0.56768 0.48023 0.31279 0.0
C1453 C 0.58073 0.50772 0.31135 0.0
C1454 C 0.59976 0.52458 0.32436 0.0
C1455 C 0.60595 0.51304 0.33905 0.0
C1456 C 0.5933 0.4849 0.34056 0.0
C1457 C 0.57353 0.46838 0.3274 0.0
H1458 H 0.48786 0.95294 0.40687 0.0
H1459 H 0.50993 0.91142 0.44619 0.0
H1460 H 0.51005 0.88295 0.42096 0.0
H1461 H 0.44348 0.89527 0.3782 0.0
H1462 H 0.45435 0.91421 0.35695 0.0
H1463 H 0.45478 0.93033 0.3783 0.0
H1464 H 0.50583 0.96542 0.37325 0.0
H1465 H 0.50564 0.94926 0.352 0.0
H1466 H 0.52949 0.95437 0.37001 0.0
H1467 H 0.50884 0.85985 0.39141 0.0
H1468 H 0.5057 0.84309 0.35958 0.0
H1469 H 0.48476 0.89994 0.33943 0.0
C1470 C 0.4922 0.9375 0.4102 0.0
C1471 C 0.49869 0.93418 0.42847 0.0
C1472 C 0.50493 0.91424 0.43226 0.0
C1473 C 0.50502 0.898 0.41804 0.0
C1474 C 0.49896 0.90206 0.40012 0.0
C1475 C 0.49259 0.92126 0.39615 0.0
C1476 C 0.48762 0.92207 0.37563 0.0
C1477 C 0.45831 0.91504 0.37207 0.0
C1478 C 0.50838 0.9494 0.36724 0.0
C1479 C 0.49219 0.90032 0.36868 0.0
C1480 C 0.49865 0.889 0.38303 0.0
C1481 C 0.50369 0.86847 0.38006 0.0
C1482 C 0.50179 0.85905 0.36195 0.0
C1483 C 0.49497 0.87019 0.34703 0.0
C1484 C 0.49032 0.89124 0.3505 0.0
H1485 H 0.5621 0.5262 0.55358 0.0
H1486 H 0.54295 0.45423 0.58356 0.0
H1487 H 0.57138 0.44663 0.56198 0.0
H1488 H 0.55937 0.49833 0.50789 0.0
H1489 H 0.58656 0.52945 0.49863 0.0
H1490 H 0.56521 0.52964 0.51681 0.0
H1491 H 0.60796 0.55927 0.53672 0.0
H1492 H 0.6294 0.55877 0.51872 0.0
H1493 H 0.63096 0.54791 0.5418 0.0
H1494 H 0.60339 0.44789 0.53852 0.0
H1495 H 0.63103 0.45334 0.51087 0.0
H1496 H 0.62704 0.52239 0.49416 0.0
C1497 C 0.56374 0.50874 0.55542 0.0
C1498 C 0.55044 0.49081 0.57025 0.0
C1499 C 0.5529 0.46811 0.57224 0.0
C1500 C 0.56916 0.46374 0.56015 0.0
C1501 C 0.58244 0.48201 0.54591 0.0
C1502 C 0.57942 0.50368 0.54314 0.0
C1503 C 0.59485 0.51934 0.52607 0.0
C1504 C 0.57533 0.51916 0.51148 0.0
C1505 C 0.61711 0.54802 0.53114 0.0
C1506 C 0.60704 0.50309 0.51977 0.0
C1507 C 0.60002 0.48198 0.53168 0.0
C1508 C 0.60897 0.46426 0.52902 0.0
C1509 C 0.62486 0.46767 0.5134 0.0
C1510 C 0.63126 0.48838 0.50054 0.0
C1511 C 0.6225 0.5065 0.50389 0.0
H1512 H 0.08606 0.57385 0.73643 0.0
H1513 H 0.02337 0.49511 0.71802 0.0
H1514 H 0.04485 0.50453 0.68695 0.0
H1515 H 0.09525 0.60952 0.69257 0.0
H1516 H 0.13153 0.63015 0.6955 0.0
H1517 H 0.10958 0.61808 0.7155 0.0
H1518 H 0.13637 0.59713 0.72814 0.0
H1519 H 0.15826 0.60879 0.70814 0.0
H1520 H 0.13997 0.57377 0.71403 0.0
H1521 H 0.07447 0.5219 0.65851 0.0
H1522 H 0.11076 0.54502 0.63511 0.0
H1523 H 0.15478 0.61201 0.67257 0.0
C1524 C 0.0765 0.55889 0.72568 0.0
C1525 C 0.05283 0.53395 0.7294 0.0
C1526 C 0.04137 0.51442 0.71528 0.0
C1527 C 0.05339 0.51963 0.69765 0.0
C1528 C 0.07695 0.54435 0.69449 0.0
C1529 C 0.08841 0.56364 0.70812 0.0
C1530 C 0.1148 0.58778 0.70164 0.0
C1531 C 0.11265 0.61287 0.70128 0.0
C1532 C 0.13876 0.5921 0.7137 0.0
C1533 C 0.1166 0.57898 0.68227 0.0
C1534 C 0.09443 0.55401 0.67833 0.0
C1535 C 0.09181 0.54154 0.66139 0.0
C1536 C 0.11247 0.55488 0.64816 0.0
C1537 C 0.13555 0.58034 0.652 0.0
C1538 C 0.13747 0.5925 0.66927 0.0
H1539 H 0.56732 0.10475 0.92562 0.0
H1540 H 0.556 0.02907 0.9073 0.0
H1541 H 0.56353 0.04491 0.87493 0.0
H1542 H 0.53369 0.11434 0.88695 0.0
H1543 H 0.55701 0.14996 0.88578 0.0
H1544 H 0.55072 0.13272 0.90758 0.0
H1545 H 0.6023 0.1516 0.91139 0.0
H1546 H 0.60876 0.16896 0.88963 0.0
H1547 H 0.62057 0.14622 0.89331 0.0
H1548 H 0.57181 0.06863 0.84462 0.0
H1549 H 0.58245 0.0996 0.81837 0.0
H1550 H 0.58842 0.15996 0.85622 0.0
C1551 C 0.56648 0.09159 0.91477 0.0
C1552 C 0.56141 0.06583 0.91895 0.0
C1553 C 0.56043 0.0491 0.90441 0.0
C1554 C 0.56444 0.05782 0.88599 0.0
C1555 C 0.56945 0.08334 0.88232 0.0
C1556 C 0.57062 0.10005 0.89627 0.0
C1557 C 0.57669 0.12666 0.88854 0.0
C1558 C 0.55312 0.13118 0.89245 0.0
C1559 C 0.60369 0.14972 0.89617 0.0
C1560 C 0.57885 0.1223 0.86809 0.0
C1561 C 0.5744 0.0971 0.8648 0.0
C1562 C 0.57529 0.08841 0.84701 0.0
C1563 C 0.58117 0.10607 0.83218 0.0
C1564 C 0.58621 0.13215 0.83524 0.0
C1565 C 0.58487 0.14023 0.85346 0.0
H1566 H 0.47604 0.52196 0.07893 0.0
H1567 H 0.4811 0.58709 0.11078 0.0
H1568 H 0.46695 0.60203 0.08315 0.0
H1569 H 0.50416 0.55928 0.03765 0.0
H1570 H 0.48294 0.5319 0.02239 0.0
H1571 H 0.49138 0.52534 0.04497 0.0
H1572 H 0.44023 0.49467 0.05265 0.0
H1573 H 0.43157 0.5011 0.03008 0.0
H1574 H 0.41796 0.50758 0.05054 0.0
H1575 H 0.45294 0.60993 0.05204 0.0
H1576 H 0.44232 0.61195 0.01917 0.0
H1577 H 0.44837 0.5426 0.00739 0.0
C1578 C 0.47367 0.53908 0.08011 0.0
C1579 C 0.47914 0.55323 0.09691 0.0
C1580 C 0.47672 0.576 0.09796 0.0
C1581 C 0.46868 0.58452 0.0824 0.0
C1582 C 0.46353 0.57018 0.06596 0.0
C1583 C 0.46609 0.54805 0.06469 0.0
C1584 C 0.46094 0.53708 0.04518 0.0
C1585 C 0.48637 0.5385 0.03707 0.0
C1586 C 0.4362 0.50841 0.04459 0.0
C1587 C 0.45508 0.55653 0.03562 0.0
C1588 C 0.45642 0.57529 0.0479 0.0
C1589 C 0.45177 0.59532 0.04231 0.0
C1590 C 0.44565 0.59623 0.02367 0.0
C1591 C 0.44448 0.57738 0.01083 0.0
C1592 C 0.44928 0.55732 0.01692 0.0
H1593 H 0.93391 0.44743 0.24948 0.0
H1594 H 0.98695 0.53168 0.23665 0.0
H1595 H 0.9678 0.5238 0.20519 0.0
H1596 H 0.93972 0.4231 0.20574 0.0
H1597 H 0.90483 0.39594 0.20494 0.0
H1598 H 0.92135 0.40834 0.22693 0.0
H1599 H 0.88334 0.41686 0.23712 0.0
H1600 H 0.8666 0.40432 0.21519 0.0
H1601 H 0.87553 0.43721 0.2228 0.0
H1602 H 0.94492 0.50656 0.17465 0.0
H1603 H 0.91801 0.48132 0.14741 0.0
H1604 H 0.88023 0.4081 0.17974 0.0
C1605 C 0.94134 0.46424 0.24009 0.0
C1606 C 0.96174 0.49023 0.24562 0.0
C1607 C 0.97091 0.51171 0.2329 0.0
C1608 C 0.96033 0.5074 0.21493 0.0
C1609 C 0.94053 0.48151 0.20987 0.0
C1610 C 0.93096 0.46031 0.22209 0.0
C1611 C 0.90999 0.43437 0.21297 0.0
C1612 C 0.91956 0.41426 0.21263 0.0
C1613 C 0.88222 0.4225 0.22259 0.0
C1614 C 0.9095 0.44429 0.19368 0.0
C1615 C 0.9273 0.47154 0.1922 0.0
C1616 C 0.93085 0.48521 0.17565 0.0
C1617 C 0.91564 0.47067 0.16021 0.0
C1618 C 0.89708 0.44274 0.16143 0.0
C1619 C 0.89406 0.42947 0.17843 0.0
loop_
_geom_bond_atom_site_label_1
_geom_bond_atom_site_label_2
_geom_bond_distance
_geom_bond_site_symmetry_2
_ccdc_geom_bond_type
H0 O26 0.856 . S
H1 O29 0.854 . S
H2 C37 0.930 . S
H3 C38 0.930 . S
H4 C40 0.930 . S
H5 C41 0.946 1_455 S
H6 C43 0.931 . S
H7 C44 0.930 . S
H8 C46 0.930 . S
H9 C47 0.929 . S
H10 C49 0.930 . S
H11 C50 0.931 . S
H12 C52 0.930 . S
H13 C53 0.929 . S
H14 C55 0.931 . S
H15 C56 0.930 . S
H16 C58 0.930 . S
H17 C59 0.932 . S
H18 C61 0.930 . S
H19 C62 0.929 . S
H20 C64 0.931 . S
H21 C65 0.930 . S
H22 C67 0.929 . S
H23 C68 0.931 . S
H24 C70 0.930 . S
H25 C71 0.929 . S
O26 H0 0.856 . S
O26 C72 1.300 . S
O27 C72 1.209 . S
O28 C73 1.199 . S
O29 H1 0.854 . S
O29 C73 1.297 . S
C30 C31 1.404 . S
C30 C35 1.397 . S
C30 C36 1.492 . S
C31 C30 1.404 . S
C31 C32 1.396 . S
C31 C42 1.492 . S
C32 C31 1.396 . S
C32 C33 1.397 . S
C32 C48 1.509 . S
C33 C32 1.397 . S
C33 C34 1.412 . S
C33 C54 1.485 . S
C34 C33 1.412 . S
C34 C35 1.388 . S
C34 C60 1.490 . S
C35 C30 1.397 . S
C35 C34 1.388 . S
C35 C66 1.519 . S
C36 C30 1.492 . S
C36 C37 1.363 . S
C36 C41 1.390 1_455 S
C37 H2 0.930 . S
C37 C36 1.363 . S
C37 C38 1.372 1_455 S
C38 H3 0.930 . S
C38 C37 1.372 1_655 S
C38 C39 1.383 . S
C39 C38 1.383 . S
C39 C40 1.395 . S
C40 H4 0.930 . S
C40 C39 1.395 . S
C40 C41 1.362 . S
C41 H5 0.946 1_655 S
C41 C36 1.390 1_655 S
C41 C40 1.362 . S
C42 C31 1.492 . S
C42 C43 1.377 . S
C42 C47 1.397 . S
C43 H6 0.931 . S
C43 C42 1.377 . S
C43 C44 1.376 . S
C44 H7 0.930 . S
C44 C43 1.376 . S
C44 C45 1.376 . S
C45 C44 1.376 . S
C45 C46 1.378 . S
C45 C72 1.486 . S
C46 H8 0.930 . S
C46 C45 1.378 . S
C46 C47 1.376 . S
C47 H9 0.929 . S
C47 C42 1.397 . S
C47 C46 1.376 . S
C48 C32 1.509 . S
C48 C49 1.391 . S
C48 C53 1.386 . S
C49 H10 0.930 . S
C49 C48 1.391 . S
C49 C50 1.375 . S
C50 H11 0.931 . S
C50 C49 1.375 . S
C50 C51 1.375 . S
C51 C50 1.375 . S
C51 C52 1.361 . S
C52 H12 0.930 . S
C52 C51 1.361 . S
C52 C53 1.399 . S
C53 H13 0.929 . S
C53 C48 1.386 . S
C53 C52 1.399 . S
C54 C33 1.485 . S
C54 C55 1.394 . S
C54 C59 1.360 . S
C55 H14 0.931 . S
C55 C54 1.394 . S
C55 C56 1.372 . S
C56 H15 0.930 . S
C56 C55 1.372 . S
C56 C57 1.397 . S
C57 C56 1.397 . S
C57 C58 1.390 . S
C57 C73 1.476 . S
C58 H16 0.930 . S
C58 C57 1.390 . S
C58 C59 1.366 . S
C59 H17 0.932 . S
C59 C54 1.360 . S
C59 C58 1.366 . S
C60 C34 1.490 . S
C60 C61 1.380 . S
C60 C65 1.386 . S
C61 H18 0.930 . S
C61 C60 1.380 . S
C61 C62 1.381 . S
C62 H19 0.929 . S
C62 C61 1.381 . S
C62 C63 1.371 . S
C63 C62 1.371 . S
C63 C64 1.380 . S
C64 H20 0.931 . S
C64 C63 1.380 . S
C64 C65 1.387 . S
C65 H21 0.930 . S
C65 C60 1.386 . S
C65 C64 1.387 . S
C66 C35 1.519 . S
C66 C67 1.377 1_455 S
C66 C71 1.361 . S
C67 H22 0.929 . S
C67 C66 1.377 1_655 S
C67 C68 1.386 . S
C68 H23 0.931 . S
C68 C67 1.386 . S
C68 C69 1.363 . S
C69 C68 1.363 . S
C69 C70 1.385 . S
C70 H24 0.930 . S
C70 C69 1.385 . S
C70 C71 1.396 1_655 S
C71 H25 0.929 . S
C71 C66 1.361 . S
C71 C70 1.396 1_455 S
C72 O26 1.300 . S
C72 O27 1.209 . S
C72 C45 1.486 . S
C73 O28 1.199 . S
C73 O29 1.297 . S
C73 C57 1.476 . S
H74 O100 0.856 . S
H75 O103 0.854 . S
H76 C111 0.930 . S
H77 C112 0.930 . S
H78 C114 0.930 . S
H79 C115 0.902 1_545 S
H80 C117 0.931 . S
H81 C118 0.930 . S
H82 C120 0.930 . S
H83 C121 0.929 . S
H84 C123 0.930 . S
H85 C124 0.931 . S
H86 C126 0.930 . S
H87 C127 0.929 . S
H88 C129 0.931 . S
H89 C130 0.930 . S
H90 C132 0.930 . S
H91 C133 0.932 . S
H92 C135 0.930 . S
H93 C136 0.929 . S
H94 C138 0.931 . S
H95 C139 0.930 . S
H96 C141 0.929 1_545 S
H97 C142 0.931 . S
H98 C144 0.930 . S
H99 C145 0.929 . S
O100 H74 0.856 . S
O100 C146 1.300 . S
O101 C146 1.209 . S
O102 C147 1.199 . S
O103 H75 0.854 . S
O103 C147 1.297 . S
C104 C105 1.404 . S
C104 C109 1.397 . S
C104 C110 1.492 . S
C105 C104 1.404 . S
C105 C106 1.396 . S
C105 C116 1.492 . S
C106 C105 1.396 . S
C106 C107 1.397 . S
C106 C122 1.509 . S
C107 C106 1.397 . S
C107 C108 1.412 . S
C107 C128 1.485 . S
C108 C107 1.412 . S
C108 C109 1.388 . S
C108 C134 1.490 . S
C109 C104 1.397 . S
C109 C108 1.388 . S
C109 C140 1.519 . S
C110 C104 1.492 . S
C110 C111 1.363 . S
C110 C115 1.381 1_545 S
C111 H76 0.930 . S
C111 C110 1.363 . S
C111 C112 1.372 1_545 S
C112 H77 0.930 . S
C112 C111 1.372 1_565 S
C112 C113 1.383 . S
C113 C112 1.383 . S
C113 C114 1.395 . S
C114 H78 0.930 . S
C114 C113 1.395 . S
C114 C115 1.391 . S
C115 H79 0.902 1_565 S
C115 C110 1.381 1_565 S
C115 C114 1.391 . S
C116 C105 1.492 . S
C116 C117 1.377 . S
C116 C121 1.397 . S
C117 H80 0.931 . S
C117 C116 1.377 . S
C117 C118 1.376 . S
C118 H81 0.930 . S
C118 C117 1.376 . S
C118 C119 1.376 . S
C119 C118 1.376 . S
C119 C120 1.378 . S
C119 C146 1.486 . S
C120 H82 0.930 . S
C120 C119 1.378 . S
C120 C121 1.376 . S
C121 H83 0.929 . S
C121 C116 1.397 . S
C121 C120 1.376 . S
C122 C106 1.509 . S
C122 C123 1.391 . S
C122 C127 1.386 . S
C123 H84 0.930 . S
C123 C122 1.391 . S
C123 C124 1.375 . S
C124 H85 0.931 . S
C124 C123 1.375 . S
C124 C125 1.375 . S
C125 C124 1.375 . S
C125 C126 1.361 . S
C126 H86 0.930 . S
C126 C125 1.361 . S
C126 C127 1.399 . S
C127 H87 0.929 . S
C127 C122 1.386 . S
C127 C126 1.399 . S
C128 C107 1.485 . S
C128 C129 1.394 . S
C128 C133 1.360 . S
C129 H88 0.931 . S
C129 C128 1.394 . S
C129 C130 1.372 . S
C130 H89 0.930 . S
C130 C129 1.372 . S
C130 C131 1.397 . S
C131 C130 1.397 . S
C131 C132 1.390 . S
C131 C147 1.476 . S
C132 H90 0.930 . S
C132 C131 1.390 . S
C132 C133 1.366 . S
C133 H91 0.932 . S
C133 C128 1.360 . S
C133 C132 1.366 . S
C134 C108 1.490 . S
C134 C135 1.380 . S
C134 C139 1.386 . S
C135 H92 0.930 . S
C135 C134 1.380 . S
C135 C136 1.381 . S
C136 H93 0.929 . S
C136 C135 1.381 . S
C136 C137 1.371 . S
C137 C136 1.371 . S
C137 C138 1.380 . S
C138 H94 0.931 . S
C138 C137 1.380 . S
C138 C139 1.387 . S
C139 H95 0.930 . S
C139 C134 1.386 . S
C139 C138 1.387 . S
C140 C109 1.519 . S
C140 C141 1.377 1_545 S
C140 C145 1.361 . S
C141 H96 0.929 1_565 S
C141 C140 1.377 1_565 S
C141 C142 1.386 . S
C142 H97 0.931 . S
C142 C141 1.386 . S
C142 C143 1.363 . S
C143 C142 1.363 . S
C143 C144 1.385 . S
C144 H98 0.930 . S
C144 C143 1.385 . S
C144 C145 1.396 1_565 S
C145 H99 0.929 . S
C145 C140 1.361 . S
C145 C144 1.396 1_545 S
C146 O100 1.300 . S
C146 O101 1.209 . S
C146 C119 1.486 . S
C147 O102 1.199 . S
C147 O103 1.297 . S
C147 C131 1.476 . S
H148 O174 0.856 . S
H149 O177 0.854 . S
H150 C185 0.930 . S
H151 C186 0.930 . S
H152 C188 0.930 . S
H153 C189 0.930 . S
H154 C191 0.931 . S
H155 C192 0.930 . S
H156 C194 0.930 . S
H157 C195 0.929 . S
H158 C197 0.930 . S
H159 C198 0.931 . S
H160 C200 0.930 . S
H161 C201 0.929 . S
H162 C203 0.931 . S
H163 C204 0.930 . S
H164 C206 0.930 . S
H165 C207 0.932 . S
H166 C209 0.930 . S
H167 C210 0.929 . S
H168 C212 0.931 . S
H169 C213 0.930 . S
H170 C215 0.929 . S
H171 C216 0.931 . S
H172 C218 0.930 . S
H173 C219 0.929 . S
O174 H148 0.856 . S
O174 C220 1.300 . S
O175 C220 1.209 . S
O176 C221 1.199 . S
O177 H149 0.854 . S
O177 C221 1.297 . S
C178 C179 1.404 . S
C178 C183 1.397 . S
C178 C184 1.492 . S
C179 C178 1.404 . S
C179 C180 1.396 . S
C179 C190 1.492 . S
C180 C179 1.396 . S
C180 C181 1.397 . S
C180 C196 1.509 . S
C181 C180 1.397 . S
C181 C182 1.412 . S
C181 C202 1.485 . S
C182 C181 1.412 . S
C182 C183 1.388 . S
C182 C208 1.490 . S
C183 C178 1.397 . S
C183 C182 1.388 . S
C183 C214 1.519 . S
C184 C178 1.492 . S
C184 C185 1.363 . S
C184 C189 1.390 . S
C185 H150 0.930 . S
C185 C184 1.363 . S
C185 C186 1.372 . S
C186 H151 0.930 . S
C186 C185 1.372 . S
C186 C187 1.383 . S
C187 C186 1.383 . S
C187 C188 1.395 . S
C188 H152 0.930 . S
C188 C187 1.395 . S
C188 C189 1.362 . S
C189 H153 0.930 . S
C189 C184 1.390 . S
C189 C188 1.362 . S
C190 C179 1.492 . S
C190 C191 1.377 . S
C190 C195 1.397 . S
C191 H154 0.931 . S
C191 C190 1.377 . S
C191 C192 1.376 . S
C192 H155 0.930 . S
C192 C191 1.376 . S
C192 C193 1.376 . S
C193 C192 1.376 . S
C193 C194 1.378 . S
C193 C220 1.486 . S
C194 H156 0.930 . S
C194 C193 1.378 . S
C194 C195 1.376 . S
C195 H157 0.929 . S
C195 C190 1.397 . S
C195 C194 1.376 . S
C196 C180 1.509 . S
C196 C197 1.391 . S
C196 C201 1.386 . S
C197 H158 0.930 . S
C197 C196 1.391 . S
C197 C198 1.375 . S
C198 H159 0.931 . S
C198 C197 1.375 . S
C198 C199 1.375 . S
C199 C198 1.375 . S
C199 C200 1.361 . S
C200 H160 0.930 . S
C200 C199 1.361 . S
C200 C201 1.399 . S
C201 H161 0.929 . S
C201 C196 1.386 . S
C201 C200 1.399 . S
C202 C181 1.485 . S
C202 C203 1.394 . S
C202 C207 1.360 . S
C203 H162 0.931 . S
C203 C202 1.394 . S
C203 C204 1.372 . S
C204 H163 0.930 . S
C204 C203 1.372 . S
C204 C205 1.397 . S
C205 C204 1.397 . S
C205 C206 1.390 . S
C205 C221 1.476 . S
C206 H164 0.930 . S
C206 C205 1.390 . S
C206 C207 1.366 . S
C207 H165 0.932 . S
C207 C202 1.360 . S
C207 C206 1.366 . S
C208 C182 1.490 . S
C208 C209 1.380 . S
C208 C213 1.386 . S
C209 H166 0.930 . S
C209 C208 1.380 . S
C209 C210 1.381 . S
C210 H167 0.929 . S
C210 C209 1.381 . S
C210 C211 1.371 . S
C211 C210 1.371 . S
C211 C212 1.380 . S
C212 H168 0.931 . S
C212 C211 1.380 . S
C212 C213 1.387 . S
C213 H169 0.930 . S
C213 C208 1.386 . S
C213 C212 1.387 . S
C214 C183 1.519 . S
C214 C215 1.377 . S
C214 C219 1.361 . S
C215 H170 0.929 . S
C215 C214 1.377 . S
C215 C216 1.386 . S
C216 H171 0.931 . S
C216 C215 1.386 . S
C216 C217 1.363 . S
C217 C216 1.363 . S
C217 C218 1.385 . S
C218 H172 0.930 . S
C218 C217 1.385 . S
C218 C219 1.396 . S
C219 H173 0.929 . S
C219 C214 1.361 . S
C219 C218 1.396 . S
C220 O174 1.300 . S
C220 O175 1.209 . S
C220 C193 1.486 . S
C221 O176 1.199 . S
C221 O177 1.297 . S
C221 C205 1.476 . S
H222 O248 0.856 . S
H223 O251 0.854 . S
H224 C259 0.930 1_455 S
H225 C260 0.930 . S
H226 C262 0.930 . S
H227 C263 0.930 . S
H228 C265 0.931 . S
H229 C266 0.930 . S
H230 C268 0.930 . S
H231 C269 0.929 . S
H232 C271 0.930 . S
H233 C272 0.931 . S
H234 C274 0.930 . S
H235 C275 0.929 . S
H236 C277 0.931 . S
H237 C278 0.930 . S
H238 C280 0.930 . S
H239 C281 0.932 . S
H240 C283 0.930 . S
H241 C284 0.929 . S
H242 C286 0.931 . S
H243 C287 0.930 . S
H244 C289 0.929 . S
H245 C290 0.931 . S
H246 C292 0.930 . S
H247 C293 0.929 1_455 S
O248 H222 0.856 . S
O248 C294 1.300 . S
O249 C294 1.209 . S
O250 C295 1.199 . S
O251 H223 0.854 . S
O251 C295 1.297 . S
C252 C253 1.404 . S
C252 C257 1.397 . S
C252 C258 1.492 . S
C253 C252 1.404 . S
C253 C254 1.396 . S
C253 C264 1.492 . S
C254 C253 1.396 . S
C254 C255 1.397 . S
C254 C270 1.509 . S
C255 C254 1.397 . S
C255 C256 1.412 . S
C255 C276 1.485 . S
C256 C255 1.412 . S
C256 C257 1.388 . S
C256 C282 1.490 . S
C257 C252 1.397 . S
C257 C256 1.388 . S
C257 C288 1.519 1_455 S
C258 C252 1.492 . S
C258 C259 1.365 1_455 S
C258 C263 1.390 1_455 S
C259 H224 0.930 1_655 S
C259 C258 1.365 1_655 S
C259 C260 1.370 . S
C260 H225 0.930 . S
C260 C259 1.370 . S
C260 C261 1.383 . S
C261 C260 1.383 . S
C261 C262 1.395 . S
C262 H226 0.930 . S
C262 C261 1.395 . S
C262 C263 1.362 . S
C263 H227 0.930 . S
C263 C258 1.390 1_655 S
C263 C262 1.362 . S
C264 C253 1.492 . S
C264 C265 1.377 . S
C264 C269 1.397 . S
C265 H228 0.931 . S
C265 C264 1.377 . S
C265 C266 1.376 . S
C266 H229 0.930 . S
C266 C265 1.376 . S
C266 C267 1.376 . S
C267 C266 1.376 . S
C267 C268 1.378 . S
C267 C294 1.486 . S
C268 H230 0.930 . S
C268 C267 1.378 . S
C268 C269 1.376 . S
C269 H231 0.929 . S
C269 C264 1.397 . S
C269 C268 1.376 . S
C270 C254 1.509 . S
C270 C271 1.391 . S
C270 C275 1.386 . S
C271 H232 0.930 . S
C271 C270 1.391 . S
C271 C272 1.375 . S
C272 H233 0.931 . S
C272 C271 1.375 . S
C272 C273 1.375 . S
C273 C272 1.375 . S
C273 C274 1.361 . S
C274 H234 0.930 . S
C274 C273 1.361 . S
C274 C275 1.399 . S
C275 H235 0.929 . S
C275 C270 1.386 . S
C275 C274 1.399 . S
C276 C255 1.485 . S
C276 C277 1.394 . S
C276 C281 1.360 . S
C277 H236 0.931 . S
C277 C276 1.394 . S
C277 C278 1.372 . S
C278 H237 0.930 . S
C278 C277 1.372 . S
C278 C279 1.397 . S
C279 C278 1.397 . S
C279 C280 1.390 . S
C279 C295 1.476 . S
C280 H238 0.930 . S
C280 C279 1.390 . S
C280 C281 1.366 . S
C281 H239 0.932 . S
C281 C276 1.360 . S
C281 C280 1.366 . S
C282 C256 1.490 . S
C282 C283 1.380 . S
C282 C287 1.386 . S
C283 H240 0.930 . S
C283 C282 1.380 . S
C283 C284 1.381 . S
C284 H241 0.929 . S
C284 C283 1.381 . S
C284 C285 1.371 . S
C285 C284 1.371 . S
C285 C286 1.380 . S
C286 H242 0.931 . S
C286 C285 1.380 . S
C286 C287 1.387 . S
C287 H243 0.930 . S
C287 C282 1.386 . S
C287 C286 1.387 . S
C288 C257 1.519 1_655 S
C288 C289 1.377 . S
C288 C293 1.361 . S
C289 H244 0.929 . S
C289 C288 1.377 . S
C289 C290 1.386 . S
C290 H245 0.931 . S
C290 C289 1.386 . S
C290 C291 1.363 . S
C291 C290 1.363 . S
C291 C292 1.385 . S
C292 H246 0.930 . S
C292 C291 1.385 . S
C292 C293 1.396 . S
C293 H247 0.929 1_655 S
C293 C288 1.361 . S
C293 C292 1.396 . S
C294 O248 1.300 . S
C294 O249 1.209 . S
C294 C267 1.486 . S
C295 O250 1.199 . S
C295 O251 1.297 . S
C295 C279 1.476 . S
H296 O322 0.856 . S
H297 O325 0.854 . S
H298 C333 0.930 . S
H299 C334 0.930 . S
H300 C336 0.930 . S
H301 C337 0.930 . S
H302 C339 0.931 . S
H303 C340 0.930 . S
H304 C342 0.930 . S
H305 C343 0.929 . S
H306 C345 0.930 . S
H307 C346 0.931 . S
H308 C348 0.930 . S
H309 C349 0.929 . S
H310 C351 0.931 . S
H311 C352 0.930 . S
H312 C354 0.930 . S
H313 C355 0.932 . S
H314 C357 0.930 . S
H315 C358 0.929 . S
H316 C360 0.931 . S
H317 C361 0.930 . S
H318 C363 0.929 1_556 S
H319 C364 0.931 . S
H320 C366 0.930 . S
H321 C367 0.929 . S
O322 H296 0.856 . S
O322 C368 1.300 . S
O323 C368 1.209 . S
O324 C369 1.199 . S
O325 H297 0.854 . S
O325 C369 1.297 . S
C326 C327 1.404 . S
C326 C331 1.397 . S
C326 C332 1.492 1_565 S
C327 C326 1.404 . S
C327 C328 1.396 . S
C327 C338 1.492 . S
C328 C327 1.396 . S
C328 C329 1.460 . S
C328 C344 1.509 . S
C329 C328 1.460 . S
C329 C330 1.389 1_556 S
C329 C350 1.448 1_556 S
C330 C329 1.389 1_554 S
C330 C331 1.388 1_554 S
C330 C356 1.490 . S
C331 C326 1.397 . S
C331 C330 1.388 1_556 S
C331 C362 1.519 1_566 S
C332 C326 1.492 1_545 S
C332 C333 1.363 . S
C332 C337 1.390 . S
C333 H298 0.930 . S
C333 C332 1.363 . S
C333 C334 1.372 . S
C334 H299 0.930 . S
C334 C333 1.372 . S
C334 C335 1.383 . S
C335 C334 1.383 . S
C335 C336 1.395 . S
C336 H300 0.930 . S
C336 C335 1.395 . S
C336 C337 1.362 . S
C337 H301 0.930 . S
C337 C332 1.390 . S
C337 C336 1.362 . S
C338 C327 1.492 . S
C338 C339 1.377 . S
C338 C343 1.397 . S
C339 H302 0.931 . S
C339 C338 1.377 . S
C339 C340 1.376 . S
C340 H303 0.930 . S
C340 C339 1.376 . S
C340 C341 1.376 . S
C341 C340 1.376 . S
C341 C342 1.378 . S
C341 C368 1.486 . S
C342 H304 0.930 . S
C342 C341 1.378 . S
C342 C343 1.376 . S
C343 H305 0.929 . S
C343 C338 1.397 . S
C343 C342 1.376 . S
C344 C328 1.509 . S
C344 C345 1.391 . S
C344 C349 1.386 . S
C345 H306 0.930 . S
C345 C344 1.391 . S
C345 C346 1.375 . S
C346 H307 0.931 . S
C346 C345 1.375 . S
C346 C347 1.375 . S
C347 C346 1.375 . S
C347 C348 1.361 . S
C348 H308 0.930 . S
C348 C347 1.361 . S
C348 C349 1.399 . S
C349 H309 0.929 . S
C349 C344 1.386 . S
C349 C348 1.399 . S
C350 C329 1.448 1_554 S
C350 C351 1.394 . S
C350 C355 1.360 . S
C351 H310 0.931 . S
C351 C350 1.394 . S
C351 C352 1.372 . S
C352 H311 0.930 . S
C352 C351 1.372 . S
C352 C353 1.397 . S
C353 C352 1.397 . S
C353 C354 1.390 . S
C353 C369 1.476 . S
C354 H312 0.930 . S
C354 C353 1.390 . S
C354 C355 1.366 . S
C355 H313 0.932 . S
C355 C350 1.360 . S
C355 C354 1.366 . S
C356 C330 1.490 . S
C356 C357 1.380 . S
C356 C361 1.386 . S
C357 H314 0.930 . S
C357 C356 1.380 . S
C357 C358 1.381 . S
C358 H315 0.929 . S
C358 C357 1.381 . S
C358 C359 1.371 . S
C359 C358 1.371 . S
C359 C360 1.380 . S
C360 H316 0.931 . S
C360 C359 1.380 . S
C360 C361 1.387 . S
C361 H317 0.930 . S
C361 C356 1.386 . S
C361 C360 1.387 . S
C362 C331 1.519 1_544 S
C362 C363 1.377 . S
C362 C367 1.361 . S
C363 H318 0.929 1_554 S
C363 C362 1.377 . S
C363 C364 1.386 . S
C364 H319 0.931 . S
C364 C363 1.386 . S
C364 C365 1.363 . S
C365 C364 1.363 . S
C365 C366 1.385 . S
C366 H320 0.930 . S
C366 C365 1.385 . S
C366 C367 1.396 . S
C367 H321 0.929 . S
C367 C362 1.361 . S
C367 C366 1.396 . S
C368 O322 1.300 . S
C368 O323 1.209 . S
C368 C341 1.486 . S
C369 O324 1.199 . S
C369 O325 1.297 . S
C369 C353 1.476 . S
H370 O396 0.856 . S
H371 O399 0.854 . S
H372 C407 0.930 . S
H373 C408 0.930 . S
H374 C410 0.930 . S
H375 C411 0.930 . S
H376 C413 0.931 . S
H377 C414 0.930 . S
H378 C416 0.930 . S
H379 C417 0.929 . S
H380 C419 0.930 . S
H381 C420 0.931 . S
H382 C422 0.930 . S
H383 C423 0.929 . S
H384 C425 0.931 . S
H385 C426 0.930 . S
H386 C428 0.930 . S
H387 C429 0.932 . S
H388 C431 0.930 . S
H389 C432 0.929 . S
H390 C434 0.931 . S
H391 C435 0.930 . S
H392 C437 0.929 . S
H393 C438 0.931 . S
H394 C440 0.930 . S
H395 C441 0.929 . S
O396 H370 0.856 . S
O396 C442 1.300 . S
O397 C442 1.209 . S
O398 C443 1.199 . S
O399 H371 0.854 . S
O399 C443 1.297 . S
C400 C401 1.404 . S
C400 C405 1.397 . S
C400 C406 1.492 . S
C401 C400 1.404 . S
C401 C402 1.396 . S
C401 C412 1.492 . S
C402 C401 1.396 . S
C402 C403 1.397 . S
C402 C418 1.509 . S
C403 C402 1.397 . S
C403 C404 1.412 . S
C403 C424 1.485 . S
C404 C403 1.412 . S
C404 C405 1.388 . S
C404 C430 1.490 . S
C405 C400 1.397 . S
C405 C404 1.388 . S
C405 C436 1.519 . S
C406 C400 1.492 . S
C406 C407 1.363 . S
C406 C411 1.390 . S
C407 H372 0.930 . S
C407 C406 1.363 . S
C407 C408 1.372 . S
C408 H373 0.930 . S
C408 C407 1.372 . S
C408 C409 1.383 . S
C409 C408 1.383 . S
C409 C410 1.395 . S
C410 H374 0.930 . S
C410 C409 1.395 . S
C410 C411 1.362 . S
C411 H375 0.930 . S
C411 C406 1.390 . S
C411 C410 1.362 . S
C412 C401 1.492 . S
C412 C413 1.377 . S
C412 C417 1.397 . S
C413 H376 0.931 . S
C413 C412 1.377 . S
C413 C414 1.376 . S
C414 H377 0.930 . S
C414 C413 1.376 . S
C414 C415 1.376 . S
C415 C414 1.376 . S
C415 C416 1.378 . S
C415 C442 1.486 . S
C416 H378 0.930 . S
C416 C415 1.378 . S
C416 C417 1.376 . S
C417 H379 0.929 . S
C417 C412 1.397 . S
C417 C416 1.376 . S
C418 C402 1.509 . S
C418 C419 1.391 . S
C418 C423 1.386 . S
C419 H380 0.930 . S
C419 C418 1.391 . S
C419 C420 1.375 . S
C420 H381 0.931 . S
C420 C419 1.375 . S
C420 C421 1.375 . S
C421 C420 1.375 . S
C421 C422 1.361 . S
C422 H382 0.930 . S
C422 C421 1.361 . S
C422 C423 1.399 . S
C423 H383 0.929 . S
C423 C418 1.386 . S
C423 C422 1.399 . S
C424 C403 1.485 . S
C424 C425 1.394 . S
C424 C429 1.360 . S
C425 H384 0.931 . S
C425 C424 1.394 . S
C425 C426 1.372 . S
C426 H385 0.930 . S
C426 C425 1.372 . S
C426 C427 1.397 . S
C427 C426 1.397 . S
C427 C428 1.390 . S
C427 C443 1.476 . S
C428 H386 0.930 . S
C428 C427 1.390 . S
C428 C429 1.366 . S
C429 H387 0.932 . S
C429 C424 1.360 . S
C429 C428 1.366 . S
C430 C404 1.490 . S
C430 C431 1.380 . S
C430 C435 1.386 . S
C431 H388 0.930 . S
C431 C430 1.380 . S
C431 C432 1.381 . S
C432 H389 0.929 . S
C432 C431 1.381 . S
C432 C433 1.371 . S
C433 C432 1.371 . S
C433 C434 1.380 . S
C434 H390 0.931 . S
C434 C433 1.380 . S
C434 C435 1.387 . S
C435 H391 0.930 . S
C435 C430 1.386 . S
C435 C434 1.387 . S
C436 C405 1.519 . S
C436 C437 1.377 . S
C436 C441 1.361 . S
C437 H392 0.929 . S
C437 C436 1.377 . S
C437 C438 1.386 . S
C438 H393 0.931 . S
C438 C437 1.386 . S
C438 C439 1.363 . S
C439 C438 1.363 . S
C439 C440 1.385 . S
C440 H394 0.930 . S
C440 C439 1.385 . S
C440 C441 1.396 . S
C441 H395 0.929 . S
C441 C436 1.361 . S
C441 C440 1.396 . S
C442 O396 1.300 . S
C442 O397 1.209 . S
C442 C415 1.486 . S
C443 O398 1.199 . S
C443 O399 1.297 . S
C443 C427 1.476 . S
Li444 N461 1.990 . S
Li444 O504 1.956 . S
Li444 O505 1.970 . S
Li444 O506 1.961 . S
Li445 N469 1.990 . S
Li445 O504 1.970 . S
Li445 O505 1.956 . S
Li445 O507 1.961 . S
Li446 N491 1.990 . S
Li446 O504 1.961 . S
Li446 O506 1.956 . S
Li446 O507 1.970 . S
Li447 N497 1.990 . S
Li447 O505 1.961 . S
Li447 O506 1.970 . S
Li447 O507 1.956 . S
C448 C450 1.348 . S
C448 C451 1.356 . S
C448 O504 1.325 . S
N449 C452 1.314 . S
N449 C453 1.279 . S
C450 C448 1.348 . S
C450 C452 1.353 . S
C450 H508 0.929 . S
C451 C448 1.356 . S
C451 C453 1.358 . S
C451 H509 0.930 . S
C452 N449 1.314 . S
C452 C450 1.353 . S
C452 H510 0.930 . S
C453 N449 1.279 . S
C453 C451 1.358 . S
C453 H511 0.930 . S
C454 C457 1.348 . S
C454 C458 1.356 . S
C454 O505 1.325 . S
C455 N456 1.279 . S
C455 C458 1.358 . S
C455 H512 0.930 . S
N456 C455 1.279 . S
N456 C459 1.314 . S
C457 C454 1.348 . S
C457 C459 1.353 . S
C457 H513 0.929 . S
C458 C454 1.356 . S
C458 C455 1.358 . S
C458 H514 0.930 . S
C459 N456 1.314 . S
C459 C457 1.353 . S
C459 H515 0.930 . S
C460 N461 1.314 . S
C460 C465 1.353 . S
C460 H466 0.930 . S
N461 Li444 1.990 . S
N461 C460 1.314 . S
N461 C463 1.279 . S
C462 C463 1.358 . S
C462 C464 1.356 . S
C462 H516 0.930 . S
C463 N461 1.279 . S
C463 C462 1.358 . S
C463 H467 0.930 . S
C464 C462 1.356 . S
C464 C465 1.348 . S
C465 C460 1.353 . S
C465 C464 1.348 . S
C465 H517 0.929 . S
H466 C460 0.930 . S
H467 C463 0.930 . S
C468 N469 1.314 . S
C468 C470 1.353 . S
C468 H474 0.930 . S
N469 Li445 1.990 . S
N469 C468 1.314 . S
N469 C472 1.279 . S
C470 C468 1.353 . S
C470 C473 1.348 . S
C470 H518 0.929 . S
C471 C472 1.358 . S
C471 C473 1.356 . S
C471 H519 0.930 . S
C472 N469 1.279 . S
C472 C471 1.358 . S
C472 H475 0.930 . S
C473 C470 1.348 . S
C473 C471 1.356 . S
H474 C468 0.930 . S
H475 C472 0.930 . S
C476 C478 1.348 . S
C476 C479 1.356 . S
C476 O506 1.325 . S
N477 C480 1.314 . S
N477 C481 1.279 . S
C478 C476 1.348 . S
C478 C480 1.353 . S
C478 H520 0.929 . S
C479 C476 1.356 . S
C479 C481 1.358 . S
C479 H521 0.930 . S
C480 N477 1.314 . S
C480 C478 1.353 . S
C480 H522 0.930 . S
C481 N477 1.279 . S
C481 C479 1.358 . S
C481 H523 0.930 . S
C482 C483 1.348 . S
C482 C484 1.356 . S
C482 O507 1.325 . S
C483 C482 1.348 . S
C483 C485 1.353 . S
C483 H524 0.929 . S
C484 C482 1.356 . S
C484 C486 1.358 . S
C484 H525 0.930 . S
C485 C483 1.353 . S
C485 N487 1.314 . S
C485 H526 0.930 . S
C486 C484 1.358 . S
C486 N487 1.279 . S
C486 H527 0.930 . S
N487 C485 1.314 . S
N487 C486 1.279 . S
C488 C490 1.353 . S
C488 N491 1.314 . S
C488 H494 0.930 . S
C489 N491 1.279 . S
C489 C492 1.358 . S
C489 H495 0.930 . S
C490 C488 1.353 . S
C490 C493 1.348 . S
C490 H528 0.929 . S
N491 Li446 1.990 . S
N491 C488 1.314 . S
N491 C489 1.279 . S
C492 C489 1.358 . S
C492 C493 1.356 . S
C492 H529 0.930 . S
C493 C490 1.348 . S
C493 C492 1.356 . S
H494 C488 0.930 . S
H495 C489 0.930 . S
C496 N497 1.314 . S
C496 C498 1.353 . S
C496 H502 0.930 . S
N497 Li447 1.990 . S
N497 C496 1.314 . S
N497 C500 1.279 . S
C498 C496 1.353 . S
C498 C501 1.348 . S
C498 H530 0.929 . S
C499 C500 1.358 . S
C499 C501 1.356 . S
C499 H531 0.930 . S
C500 N497 1.279 . S
C500 C499 1.358 . S
C500 H503 0.930 . S
C501 C498 1.348 . S
C501 C499 1.356 . S
H502 C496 0.930 . S
H503 C500 0.930 . S
O504 Li444 1.956 . S
O504 Li445 1.970 . S
O504 Li446 1.961 . S
O504 C448 1.325 . S
O505 Li444 1.970 . S
O505 Li445 1.956 . S
O505 Li447 1.961 . S
O505 C454 1.325 . S
O506 Li444 1.961 . S
O506 Li446 1.956 . S
O506 Li447 1.970 . S
O506 C476 1.325 . S
O507 Li445 1.961 . S
O507 Li446 1.970 . S
O507 Li447 1.956 . S
O507 C482 1.325 . S
H508 C450 0.929 . S
H509 C451 0.930 . S
H510 C452 0.930 . S
H511 C453 0.930 . S
H512 C455 0.930 . S
H513 C457 0.929 . S
H514 C458 0.930 . S
H515 C459 0.930 . S
H516 C462 0.930 . S
H517 C465 0.929 . S
H518 C470 0.929 . S
H519 C471 0.930 . S
H520 C478 0.929 . S
H521 C479 0.930 . S
H522 C480 0.930 . S
H523 C481 0.930 . S
H524 C483 0.929 . S
H525 C484 0.930 . S
H526 C485 0.930 . S
H527 C486 0.930 . S
H528 C490 0.929 . S
H529 C492 0.930 . S
H530 C498 0.929 . S
H531 C499 0.930 . S
Li532 N549 1.990 . S
Li532 O592 1.956 . S
Li532 O593 1.970 . S
Li532 O594 1.961 . S
Li533 N557 1.990 . S
Li533 O592 1.970 . S
Li533 O593 1.956 . S
Li533 O595 1.961 . S
Li534 N579 1.990 . S
Li534 O592 1.961 . S
Li534 O594 1.956 . S
Li534 O595 1.970 . S
Li535 N585 1.990 . S
Li535 O593 1.961 . S
Li535 O594 1.970 . S
Li535 O595 1.956 . S
C536 C538 1.348 . S
C536 C539 1.356 . S
C536 O592 1.325 . S
N537 C540 1.314 . S
N537 C541 1.279 . S
C538 C536 1.348 . S
C538 C540 1.353 . S
C538 H596 0.929 . S
C539 C536 1.356 . S
C539 C541 1.358 . S
C539 H597 0.930 . S
C540 N537 1.314 . S
C540 C538 1.353 . S
C540 H598 0.930 . S
C541 N537 1.279 . S
C541 C539 1.358 . S
C541 H599 0.930 . S
C542 C545 1.348 . S
C542 C546 1.356 . S
C542 O593 1.325 . S
C543 N544 1.279 . S
C543 C546 1.358 . S
C543 H600 0.930 . S
N544 C543 1.279 . S
N544 C547 1.314 . S
C545 C542 1.348 . S
C545 C547 1.353 . S
C545 H601 0.929 . S
C546 C542 1.356 . S
C546 C543 1.358 . S
C546 H602 0.930 . S
C547 N544 1.314 . S
C547 C545 1.353 . S
C547 H603 0.930 . S
C548 N549 1.314 . S
C548 C553 1.353 . S
C548 H554 0.930 . S
N549 Li532 1.990 . S
N549 C548 1.314 . S
N549 C551 1.279 . S
C550 C551 1.358 . S
C550 C552 1.356 . S
C550 H604 0.930 . S
C551 N549 1.279 . S
C551 C550 1.358 . S
C551 H555 0.930 . S
C552 C550 1.356 . S
C552 C553 1.348 . S
C553 C548 1.353 . S
C553 C552 1.348 . S
C553 H605 0.929 . S
H554 C548 0.930 . S
H555 C551 0.930 . S
C556 N557 1.314 . S
C556 C558 1.353 . S
C556 H562 0.930 . S
N557 Li533 1.990 . S
N557 C556 1.314 . S
N557 C560 1.279 . S
C558 C556 1.353 . S
C558 C561 1.348 . S
C558 H606 0.929 . S
C559 C560 1.358 . S
C559 C561 1.356 . S
C559 H607 0.930 . S
C560 N557 1.279 . S
C560 C559 1.358 . S
C560 H563 0.930 . S
C561 C558 1.348 . S
C561 C559 1.356 . S
H562 C556 0.930 . S
H563 C560 0.930 . S
C564 C566 1.348 . S
C564 C567 1.356 . S
C564 O594 1.325 . S
N565 C568 1.314 . S
N565 C569 1.279 . S
C566 C564 1.348 . S
C566 C568 1.353 . S
C566 H608 0.929 . S
C567 C564 1.356 . S
C567 C569 1.358 . S
C567 H609 0.930 . S
C568 N565 1.314 . S
C568 C566 1.353 . S
C568 H610 0.930 . S
C569 N565 1.279 . S
C569 C567 1.358 . S
C569 H611 0.930 . S
C570 C571 1.348 . S
C570 C572 1.356 . S
C570 O595 1.325 . S
C571 C570 1.348 . S
C571 C573 1.353 . S
C571 H612 0.929 . S
C572 C570 1.356 . S
C572 C574 1.358 . S
C572 H613 0.930 . S
C573 C571 1.353 . S
C573 N575 1.314 . S
C573 H614 0.930 . S
C574 C572 1.358 . S
C574 N575 1.279 . S
C574 H615 0.930 . S
N575 C573 1.314 . S
N575 C574 1.279 . S
C576 C578 1.353 . S
C576 N579 1.314 . S
C576 H582 0.930 . S
C577 N579 1.279 . S
C577 C580 1.358 . S
C577 H583 0.930 . S
C578 C576 1.353 . S
C578 C581 1.348 . S
C578 H616 0.929 . S
N579 Li534 1.990 . S
N579 C576 1.314 . S
N579 C577 1.279 . S
C580 C577 1.358 . S
C580 C581 1.356 . S
C580 H617 0.930 . S
C581 C578 1.348 . S
C581 C580 1.356 . S
H582 C576 0.930 . S
H583 C577 0.930 . S
C584 N585 1.314 . S
C584 C586 1.353 . S
C584 H590 0.930 . S
N585 Li535 1.990 . S
N585 C584 1.314 . S
N585 C588 1.279 . S
C586 C584 1.353 . S
C586 C589 1.348 . S
C586 H618 0.929 . S
C587 C588 1.358 . S
C587 C589 1.356 . S
C587 H619 0.930 . S
C588 N585 1.279 . S
C588 C587 1.358 . S
C588 H591 0.930 . S
C589 C586 1.348 . S
C589 C587 1.356 . S
H590 C584 0.930 . S
H591 C588 0.930 . S
O592 Li532 1.956 . S
O592 Li533 1.970 . S
O592 Li534 1.961 . S
O592 C536 1.325 . S
O593 Li532 1.970 . S
O593 Li533 1.956 . S
O593 Li535 1.961 . S
O593 C542 1.325 . S
O594 Li532 1.961 . S
O594 Li534 1.956 . S
O594 Li535 1.970 . S
O594 C564 1.325 . S
O595 Li533 1.961 . S
O595 Li534 1.970 . S
O595 Li535 1.956 . S
O595 C570 1.325 . S
H596 C538 0.929 . S
H597 C539 0.930 . S
H598 C540 0.930 . S
H599 C541 0.930 . S
H600 C543 0.930 . S
H601 C545 0.929 . S
H602 C546 0.930 . S
H603 C547 0.930 . S
H604 C550 0.930 . S
H605 C553 0.929 . S
H606 C558 0.929 . S
H607 C559 0.930 . S
H608 C566 0.929 . S
H609 C567 0.930 . S
H610 C568 0.930 . S
H611 C569 0.930 . S
H612 C571 0.929 . S
H613 C572 0.930 . S
H614 C573 0.930 . S
H615 C574 0.930 . S
H616 C578 0.929 . S
H617 C580 0.930 . S
H618 C586 0.929 . S
H619 C587 0.930 . S
Li620 N637 1.990 . S
Li620 O680 1.956 . S
Li620 O681 1.970 . S
Li620 O682 1.961 . S
Li621 N645 1.990 . S
Li621 O680 1.970 . S
Li621 O681 1.956 . S
Li621 O683 1.961 . S
Li622 N667 1.990 . S
Li622 O680 1.961 . S
Li622 O682 1.956 . S
Li622 O683 1.970 . S
Li623 N673 1.990 . S
Li623 O681 1.961 . S
Li623 O682 1.970 . S
Li623 O683 1.956 . S
C624 C626 1.348 . S
C624 C627 1.356 . S
C624 O680 1.325 . S
N625 C628 1.314 . S
N625 C629 1.279 . S
C626 C624 1.348 . S
C626 C628 1.353 . S
C626 H684 0.929 . S
C627 C624 1.356 . S
C627 C629 1.358 . S
C627 H685 0.930 . S
C628 N625 1.314 . S
C628 C626 1.353 . S
C628 H686 0.930 . S
C629 N625 1.279 . S
C629 C627 1.358 . S
C629 H687 0.930 . S
C630 C633 1.348 . S
C630 C634 1.356 . S
C630 O681 1.325 . S
C631 N632 1.279 . S
C631 C634 1.358 . S
C631 H688 0.930 . S
N632 C631 1.279 . S
N632 C635 1.314 . S
C633 C630 1.348 . S
C633 C635 1.353 . S
C633 H689 0.929 . S
C634 C630 1.356 . S
C634 C631 1.358 . S
C634 H690 0.930 . S
C635 N632 1.314 . S
C635 C633 1.353 . S
C635 H691 0.930 . S
C636 N637 1.314 . S
C636 C641 1.353 . S
C636 H642 0.930 . S
N637 Li620 1.990 . S
N637 C636 1.314 . S
N637 C639 1.279 . S
C638 C639 1.358 . S
C638 C640 1.356 . S
C638 H692 0.930 . S
C639 N637 1.279 . S
C639 C638 1.358 . S
C639 H643 0.930 . S
C640 C638 1.356 . S
C640 C641 1.348 . S
C641 C636 1.353 . S
C641 C640 1.348 . S
C641 H693 0.929 . S
H642 C636 0.930 . S
H643 C639 0.930 . S
C644 N645 1.314 . S
C644 C646 1.353 . S
C644 H650 0.930 . S
N645 Li621 1.990 . S
N645 C644 1.314 . S
N645 C648 1.279 . S
C646 C644 1.353 . S
C646 C649 1.348 . S
C646 H694 0.929 . S
C647 C648 1.358 . S
C647 C649 1.356 . S
C647 H695 0.930 . S
C648 N645 1.279 . S
C648 C647 1.358 . S
C648 H651 0.930 . S
C649 C646 1.348 . S
C649 C647 1.356 . S
H650 C644 0.930 . S
H651 C648 0.930 . S
C652 C654 1.348 . S
C652 C655 1.356 . S
C652 O682 1.325 . S
N653 C656 1.314 . S
N653 C657 1.279 . S
C654 C652 1.348 . S
C654 C656 1.353 . S
C654 H696 0.929 . S
C655 C652 1.356 . S
C655 C657 1.358 . S
C655 H697 0.930 . S
C656 N653 1.314 . S
C656 C654 1.353 . S
C656 H698 0.930 . S
C657 N653 1.279 . S
C657 C655 1.358 . S
C657 H699 0.930 . S
C658 C659 1.348 . S
C658 C660 1.356 . S
C658 O683 1.325 . S
C659 C658 1.348 . S
C659 C661 1.353 . S
C659 H700 0.929 . S
C660 C658 1.356 . S
C660 C662 1.358 . S
C660 H701 0.930 . S
C661 C659 1.353 . S
C661 N663 1.314 . S
C661 H702 0.930 . S
C662 C660 1.358 . S
C662 N663 1.279 . S
C662 H703 0.930 . S
N663 C661 1.314 . S
N663 C662 1.279 . S
C664 C666 1.353 . S
C664 N667 1.314 . S
C664 H670 0.930 . S
C665 N667 1.279 . S
C665 C668 1.358 . S
C665 H671 0.930 . S
C666 C664 1.353 . S
C666 C669 1.348 . S
C666 H704 0.929 . S
N667 Li622 1.990 . S
N667 C664 1.314 . S
N667 C665 1.279 . S
C668 C665 1.358 . S
C668 C669 1.356 . S
C668 H705 0.930 . S
C669 C666 1.348 . S
C669 C668 1.356 . S
H670 C664 0.930 . S
H671 C665 0.930 . S
C672 N673 1.314 . S
C672 C674 1.353 . S
C672 H678 0.930 . S
N673 Li623 1.990 . S
N673 C672 1.314 . S
N673 C676 1.279 . S
C674 C672 1.353 . S
C674 C677 1.348 . S
C674 H706 0.929 . S
C675 C676 1.358 . S
C675 C677 1.356 . S
C675 H707 0.930 . S
C676 N673 1.279 . S
C676 C675 1.358 . S
C676 H679 0.930 . S
C677 C674 1.348 . S
C677 C675 1.356 . S
H678 C672 0.930 . S
H679 C676 0.930 . S
O680 Li620 1.956 . S
O680 Li621 1.970 . S
O680 Li622 1.961 . S
O680 C624 1.325 . S
O681 Li620 1.970 . S
O681 Li621 1.956 . S
O681 Li623 1.961 . S
O681 C630 1.325 . S
O682 Li620 1.961 . S
O682 Li622 1.956 . S
O682 Li623 1.970 . S
O682 C652 1.325 . S
O683 Li621 1.961 . S
O683 Li622 1.970 . S
O683 Li623 1.956 . S
O683 C658 1.325 . S
H684 C626 0.929 . S
H685 C627 0.930 . S
H686 C628 0.930 . S
H687 C629 0.930 . S
H688 C631 0.930 . S
H689 C633 0.929 . S
H690 C634 0.930 . S
H691 C635 0.930 . S
H692 C638 0.930 . S
H693 C641 0.929 . S
H694 C646 0.929 . S
H695 C647 0.930 . S
H696 C654 0.929 . S
H697 C655 0.930 . S
H698 C656 0.930 . S
H699 C657 0.930 . S
H700 C659 0.929 . S
H701 C660 0.930 . S
H702 C661 0.930 . S
H703 C662 0.930 . S
H704 C666 0.929 . S
H705 C668 0.930 . S
H706 C674 0.929 . S
H707 C675 0.930 . S
Li708 N725 1.990 . S
Li708 O768 1.956 . S
Li708 O769 1.970 . S
Li708 O770 1.961 . S
Li709 N733 1.990 . S
Li709 O768 1.970 . S
Li709 O769 1.956 . S
Li709 O771 1.961 . S
Li710 N755 1.990 . S
Li710 O768 1.961 . S
Li710 O770 1.956 . S
Li710 O771 1.970 . S
Li711 N761 1.990 . S
Li711 O769 1.961 . S
Li711 O770 1.970 . S
Li711 O771 1.956 . S
C712 C714 1.348 . S
C712 C715 1.356 . S
C712 O768 1.325 . S
N713 C716 1.314 . S
N713 C717 1.279 . S
C714 C712 1.348 . S
C714 C716 1.353 . S
C714 H772 0.929 . S
C715 C712 1.356 . S
C715 C717 1.358 . S
C715 H773 0.930 . S
C716 N713 1.314 . S
C716 C714 1.353 . S
C716 H774 0.930 . S
C717 N713 1.279 . S
C717 C715 1.358 . S
C717 H775 0.930 . S
C718 C721 1.348 . S
C718 C722 1.356 . S
C718 O769 1.325 . S
C719 N720 1.279 . S
C719 C722 1.358 . S
C719 H776 0.930 . S
N720 C719 1.279 . S
N720 C723 1.314 . S
C721 C718 1.348 . S
C721 C723 1.353 . S
C721 H777 0.929 . S
C722 C718 1.356 . S
C722 C719 1.358 . S
C722 H778 0.930 . S
C723 N720 1.314 . S
C723 C721 1.353 . S
C723 H779 0.930 . S
C724 N725 1.314 . S
C724 C729 1.353 . S
C724 H730 0.930 . S
N725 Li708 1.990 . S
N725 C724 1.314 . S
N725 C727 1.279 . S
C726 C727 1.358 . S
C726 C728 1.356 . S
C726 H780 0.930 . S
C727 N725 1.279 . S
C727 C726 1.358 . S
C727 H731 0.930 . S
C728 C726 1.356 . S
C728 C729 1.348 . S
C729 C724 1.353 . S
C729 C728 1.348 . S
C729 H781 0.929 . S
H730 C724 0.930 . S
H731 C727 0.930 . S
C732 N733 1.314 . S
C732 C734 1.353 . S
C732 H738 0.930 . S
N733 Li709 1.990 . S
N733 C732 1.314 . S
N733 C736 1.279 . S
C734 C732 1.353 . S
C734 C737 1.348 . S
C734 H782 0.929 . S
C735 C736 1.358 . S
C735 C737 1.356 . S
C735 H783 0.930 . S
C736 N733 1.279 . S
C736 C735 1.358 . S
C736 H739 0.930 . S
C737 C734 1.348 . S
C737 C735 1.356 . S
H738 C732 0.930 . S
H739 C736 0.930 . S
C740 C742 1.348 . S
C740 C743 1.356 . S
C740 O770 1.325 . S
N741 C744 1.314 . S
N741 C745 1.279 . S
C742 C740 1.348 . S
C742 C744 1.353 . S
C742 H784 0.929 . S
C743 C740 1.356 . S
C743 C745 1.358 . S
C743 H785 0.930 . S
C744 N741 1.314 . S
C744 C742 1.353 . S
C744 H786 0.930 . S
C745 N741 1.279 . S
C745 C743 1.358 . S
C745 H787 0.930 . S
C746 C747 1.348 . S
C746 C748 1.356 . S
C746 O771 1.325 . S
C747 C746 1.348 . S
C747 C749 1.353 . S
C747 H788 0.929 . S
C748 C746 1.356 . S
C748 C750 1.358 . S
C748 H789 0.930 . S
C749 C747 1.353 . S
C749 N751 1.314 . S
C749 H790 0.930 . S
C750 C748 1.358 . S
C750 N751 1.279 . S
C750 H791 0.930 . S
N751 C749 1.314 . S
N751 C750 1.279 . S
C752 C754 1.353 . S
C752 N755 1.314 . S
C752 H758 0.930 . S
C753 N755 1.279 . S
C753 C756 1.358 . S
C753 H759 0.930 . S
C754 C752 1.353 . S
C754 C757 1.348 . S
C754 H792 0.929 . S
N755 Li710 1.990 . S
N755 C752 1.314 . S
N755 C753 1.279 . S
C756 C753 1.358 . S
C756 C757 1.356 . S
C756 H793 0.930 . S
C757 C754 1.348 . S
C757 C756 1.356 . S
H758 C752 0.930 . S
H759 C753 0.930 . S
C760 N761 1.314 . S
C760 C762 1.353 . S
C760 H766 0.930 . S
N761 Li711 1.990 . S
N761 C760 1.314 . S
N761 C764 1.279 . S
C762 C760 1.353 . S
C762 C765 1.348 . S
C762 H794 0.929 . S
C763 C764 1.358 . S
C763 C765 1.356 . S
C763 H795 0.930 . S
C764 N761 1.279 . S
C764 C763 1.358 . S
C764 H767 0.930 . S
C765 C762 1.348 . S
C765 C763 1.356 . S
H766 C760 0.930 . S
H767 C764 0.930 . S
O768 Li708 1.956 . S
O768 Li709 1.970 . S
O768 Li710 1.961 . S
O768 C712 1.325 . S
O769 Li708 1.970 . S
O769 Li709 1.956 . S
O769 Li711 1.961 . S
O769 C718 1.325 . S
O770 Li708 1.961 . S
O770 Li710 1.956 . S
O770 Li711 1.970 . S
O770 C740 1.325 . S
O771 Li709 1.961 . S
O771 Li710 1.970 . S
O771 Li711 1.956 . S
O771 C746 1.325 . S
H772 C714 0.929 . S
H773 C715 0.930 . S
H774 C716 0.930 . S
H775 C717 0.930 . S
H776 C719 0.930 . S
H777 C721 0.929 . S
H778 C722 0.930 . S
H779 C723 0.930 . S
H780 C726 0.930 . S
H781 C729 0.929 . S
H782 C734 0.929 . S
H783 C735 0.930 . S
H784 C742 0.929 . S
H785 C743 0.930 . S
H786 C744 0.930 . S
H787 C745 0.930 . S
H788 C747 0.929 . S
H789 C748 0.930 . S
H790 C749 0.930 . S
H791 C750 0.930 . S
H792 C754 0.929 . S
H793 C756 0.930 . S
H794 C762 0.929 . S
H795 C763 0.930 . S
Li796 N813 1.990 . S
Li796 O856 1.956 . S
Li796 O857 1.970 . S
Li796 O858 1.961 . S
Li797 N821 1.990 . S
Li797 O856 1.970 . S
Li797 O857 1.956 . S
Li797 O859 1.961 . S
Li798 N843 1.990 . S
Li798 O856 1.961 . S
Li798 O858 1.956 . S
Li798 O859 1.970 . S
Li799 N849 1.990 . S
Li799 O857 1.961 . S
Li799 O858 1.970 . S
Li799 O859 1.956 . S
C800 C802 1.348 . S
C800 C803 1.356 . S
C800 O856 1.325 . S
N801 C804 1.314 . S
N801 C805 1.279 . S
C802 C800 1.348 . S
C802 C804 1.353 . S
C802 H860 0.929 . S
C803 C800 1.356 . S
C803 C805 1.358 . S
C803 H861 0.930 . S
C804 N801 1.314 . S
C804 C802 1.353 . S
C804 H862 0.930 . S
C805 N801 1.279 . S
C805 C803 1.358 . S
C805 H863 0.930 . S
C806 C809 1.348 . S
C806 C810 1.356 . S
C806 O857 1.325 . S
C807 N808 1.279 . S
C807 C810 1.358 . S
C807 H864 0.930 . S
N808 C807 1.279 . S
N808 C811 1.314 . S
C809 C806 1.348 . S
C809 C811 1.353 . S
C809 H865 0.929 . S
C810 C806 1.356 . S
C810 C807 1.358 . S
C810 H866 0.930 . S
C811 N808 1.314 . S
C811 C809 1.353 . S
C811 H867 0.930 . S
C812 N813 1.314 . S
C812 C817 1.353 . S
C812 H818 0.930 . S
N813 Li796 1.990 . S
N813 C812 1.314 . S
N813 C815 1.279 . S
C814 C815 1.358 . S
C814 C816 1.356 . S
C814 H868 0.930 . S
C815 N813 1.279 . S
C815 C814 1.358 . S
C815 H819 0.930 . S
C816 C814 1.356 . S
C816 C817 1.348 . S
C817 C812 1.353 . S
C817 C816 1.348 . S
C817 H869 0.929 . S
H818 C812 0.930 . S
H819 C815 0.930 . S
C820 N821 1.314 . S
C820 C822 1.353 . S
C820 H826 0.930 . S
N821 Li797 1.990 . S
N821 C820 1.314 . S
N821 C824 1.279 . S
C822 C820 1.353 . S
C822 C825 1.348 . S
C822 H870 0.929 . S
C823 C824 1.358 . S
C823 C825 1.356 . S
C823 H871 0.930 . S
C824 N821 1.279 . S
C824 C823 1.358 . S
C824 H827 0.930 . S
C825 C822 1.348 . S
C825 C823 1.356 . S
H826 C820 0.930 . S
H827 C824 0.930 . S
C828 C830 1.348 . S
C828 C831 1.356 . S
C828 O858 1.325 . S
N829 C832 1.314 . S
N829 C833 1.279 . S
C830 C828 1.348 . S
C830 C832 1.353 . S
C830 H872 0.929 . S
C831 C828 1.356 . S
C831 C833 1.358 . S
C831 H873 0.930 . S
C832 N829 1.314 . S
C832 C830 1.353 . S
C832 H874 0.930 . S
C833 N829 1.279 . S
C833 C831 1.358 . S
C833 H875 0.930 . S
C834 C835 1.348 . S
C834 C836 1.356 . S
C834 O859 1.325 . S
C835 C834 1.348 . S
C835 C837 1.353 . S
C835 H876 0.929 . S
C836 C834 1.356 . S
C836 C838 1.358 . S
C836 H877 0.930 . S
C837 C835 1.353 . S
C837 N839 1.314 . S
C837 H878 0.930 . S
C838 C836 1.358 . S
C838 N839 1.279 . S
C838 H879 0.930 . S
N839 C837 1.314 . S
N839 C838 1.279 . S
C840 C842 1.353 . S
C840 N843 1.314 . S
C840 H846 0.930 . S
C841 N843 1.279 . S
C841 C844 1.358 . S
C841 H847 0.930 . S
C842 C840 1.353 . S
C842 C845 1.348 . S
C842 H880 0.929 . S
N843 Li798 1.990 . S
N843 C840 1.314 . S
N843 C841 1.279 . S
C844 C841 1.358 . S
C844 C845 1.356 . S
C844 H881 0.930 1_554 S
C845 C842 1.348 . S
C845 C844 1.356 . S
H846 C840 0.930 . S
H847 C841 0.930 . S
C848 N849 1.314 . S
C848 C850 1.353 . S
C848 H854 0.930 . S
N849 Li799 1.990 . S
N849 C848 1.314 . S
N849 C852 1.279 . S
C850 C848 1.353 . S
C850 C853 1.348 . S
C850 H882 0.929 . S
C851 C852 1.358 . S
C851 C853 1.356 . S
C851 H883 0.930 . S
C852 N849 1.279 . S
C852 C851 1.358 . S
C852 H855 0.930 . S
C853 C850 1.348 . S
C853 C851 1.356 . S
H854 C848 0.930 . S
H855 C852 0.930 . S
O856 Li796 1.956 . S
O856 Li797 1.970 . S
O856 Li798 1.961 . S
O856 C800 1.325 . S
O857 Li796 1.970 . S
O857 Li797 1.956 . S
O857 Li799 1.961 . S
O857 C806 1.325 . S
O858 Li796 1.961 . S
O858 Li798 1.956 . S
O858 Li799 1.970 . S
O858 C828 1.325 . S
O859 Li797 1.961 . S
O859 Li798 1.970 . S
O859 Li799 1.956 . S
O859 C834 1.325 . S
H860 C802 0.929 . S
H861 C803 0.930 . S
H862 C804 0.930 . S
H863 C805 0.930 . S
H864 C807 0.930 . S
H865 C809 0.929 . S
H866 C810 0.930 . S
H867 C811 0.930 . S
H868 C814 0.930 . S
H869 C817 0.929 . S
H870 C822 0.929 . S
H871 C823 0.930 . S
H872 C830 0.929 . S
H873 C831 0.930 . S
H874 C832 0.930 . S
H875 C833 0.930 . S
H876 C835 0.929 . S
H877 C836 0.930 . S
H878 C837 0.930 . S
H879 C838 0.930 . S
H880 C842 0.929 . S
H881 C844 0.930 1_556 S
H882 C850 0.929 . S
H883 C851 0.930 . S
Li884 N901 1.990 . S
Li884 O944 1.956 . S
Li884 O945 1.970 . S
Li884 O946 1.961 . S
Li885 N909 1.990 . S
Li885 O944 1.970 . S
Li885 O945 1.956 . S
Li885 O947 1.961 . S
Li886 N931 1.990 . S
Li886 O944 1.961 . S
Li886 O946 1.956 . S
Li886 O947 1.970 . S
Li887 N937 1.990 . S
Li887 O945 1.961 . S
Li887 O946 1.970 . S
Li887 O947 1.956 . S
C888 C890 1.348 . S
C888 C891 1.356 . S
C888 O944 1.325 . S
N889 C892 1.314 . S
N889 C893 1.279 . S
C890 C888 1.348 . S
C890 C892 1.353 . S
C890 H948 0.929 . S
C891 C888 1.356 . S
C891 C893 1.358 . S
C891 H949 0.930 . S
C892 N889 1.314 . S
C892 C890 1.353 . S
C892 H950 0.930 . S
C893 N889 1.279 . S
C893 C891 1.358 . S
C893 H951 0.930 . S
C894 C897 1.348 . S
C894 C898 1.356 . S
C894 O945 1.325 . S
C895 N896 1.279 . S
C895 C898 1.358 . S
C895 H952 0.930 . S
N896 C895 1.279 . S
N896 C899 1.314 . S
C897 C894 1.348 . S
C897 C899 1.353 . S
C897 H953 0.929 . S
C898 C894 1.356 . S
C898 C895 1.358 . S
C898 H954 0.930 . S
C899 N896 1.314 . S
C899 C897 1.353 . S
C899 H955 0.930 . S
C900 N901 1.314 . S
C900 C905 1.353 . S
C900 H906 0.930 . S
N901 Li884 1.990 . S
N901 C900 1.314 . S
N901 C903 1.279 . S
C902 C903 1.358 . S
C902 C904 1.356 . S
C902 H956 0.930 . S
C903 N901 1.279 . S
C903 C902 1.358 . S
C903 H907 0.930 . S
C904 C902 1.356 . S
C904 C905 1.348 . S
C905 C900 1.353 . S
C905 C904 1.348 . S
C905 H957 0.929 . S
H906 C900 0.930 . S
H907 C903 0.930 . S
C908 N909 1.314 . S
C908 C910 1.353 . S
C908 H914 0.930 . S
N909 Li885 1.990 . S
N909 C908 1.314 . S
N909 C912 1.279 . S
C910 C908 1.353 . S
C910 C913 1.348 . S
C910 H958 0.929 . S
C911 C912 1.358 . S
C911 C913 1.356 . S
C911 H959 0.930 . S
C912 N909 1.279 . S
C912 C911 1.358 . S
C912 H915 0.930 . S
C913 C910 1.348 . S
C913 C911 1.356 . S
H914 C908 0.930 . S
H915 C912 0.930 . S
C916 C918 1.348 . S
C916 C919 1.356 . S
C916 O946 1.325 . S
N917 C920 1.314 . S
N917 C921 1.279 . S
C918 C916 1.348 . S
C918 C920 1.353 . S
C918 H960 0.929 . S
C919 C916 1.356 . S
C919 C921 1.358 . S
C919 H961 0.930 . S
C920 N917 1.314 . S
C920 C918 1.353 . S
C920 H962 0.930 . S
C921 N917 1.279 . S
C921 C919 1.358 . S
C921 H963 0.930 . S
C922 C923 1.348 . S
C922 C924 1.356 . S
C922 O947 1.325 . S
C923 C922 1.348 . S
C923 C925 1.353 . S
C923 H964 0.929 . S
C924 C922 1.356 . S
C924 C926 1.358 . S
C924 H965 0.930 . S
C925 C923 1.353 . S
C925 N927 1.314 . S
C925 H966 0.930 . S
C926 C924 1.358 . S
C926 N927 1.279 . S
C926 H967 0.930 . S
N927 C925 1.314 . S
N927 C926 1.279 . S
C928 C930 1.353 . S
C928 N931 1.314 . S
C928 H934 0.930 . S
C929 N931 1.279 . S
C929 C932 1.358 . S
C929 H935 0.930 . S
C930 C928 1.353 . S
C930 C933 1.348 . S
C930 H968 0.929 . S
N931 Li886 1.990 . S
N931 C928 1.314 . S
N931 C929 1.279 . S
C932 C929 1.358 . S
C932 C933 1.356 . S
C932 H969 0.930 . S
C933 C930 1.348 . S
C933 C932 1.356 . S
H934 C928 0.930 . S
H935 C929 0.930 . S
C936 N937 1.314 . S
C936 C938 1.353 . S
C936 H942 0.930 . S
N937 Li887 1.990 . S
N937 C936 1.314 . S
N937 C940 1.279 . S
C938 C936 1.353 . S
C938 C941 1.348 . S
C938 H970 0.929 . S
C939 C940 1.358 . S
C939 C941 1.356 . S
C939 H971 0.930 . S
C940 N937 1.279 . S
C940 C939 1.358 . S
C940 H943 0.930 . S
C941 C938 1.348 . S
C941 C939 1.356 . S
H942 C936 0.930 . S
H943 C940 0.930 . S
O944 Li884 1.956 . S
O944 Li885 1.970 . S
O944 Li886 1.961 . S
O944 C888 1.325 . S
O945 Li884 1.970 . S
O945 Li885 1.956 . S
O945 Li887 1.961 . S
O945 C894 1.325 . S
O946 Li884 1.961 . S
O946 Li886 1.956 . S
O946 Li887 1.970 . S
O946 C916 1.325 . S
O947 Li885 1.961 . S
O947 Li886 1.970 . S
O947 Li887 1.956 . S
O947 C922 1.325 . S
H948 C890 0.929 . S
H949 C891 0.930 . S
H950 C892 0.930 . S
H951 C893 0.930 . S
H952 C895 0.930 . S
H953 C897 0.929 . S
H954 C898 0.930 . S
H955 C899 0.930 . S
H956 C902 0.930 . S
H957 C905 0.929 . S
H958 C910 0.929 . S
H959 C911 0.930 . S
H960 C918 0.929 . S
H961 C919 0.930 . S
H962 C920 0.930 . S
H963 C921 0.930 . S
H964 C923 0.929 . S
H965 C924 0.930 . S
H966 C925 0.930 . S
H967 C926 0.930 . S
H968 C930 0.929 . S
H969 C932 0.930 . S
H970 C938 0.929 . S
H971 C939 0.930 . S
H972 C984 0.930 . S
H973 C986 0.930 . S
H974 C987 0.930 . S
H975 C991 0.959 . S
H976 C991 0.959 . S
H977 C991 0.961 . S
H978 C992 0.960 . S
H979 C992 0.961 . S
H980 C992 0.959 . S
H981 C995 0.929 . S
H982 C996 0.931 . S
H983 C998 0.930 . S
C984 H972 0.930 . S
C984 C985 1.399 . S
C984 C989 1.399 . S
C985 C984 1.399 . S
C985 C986 1.376 . S
C986 H973 0.930 . S
C986 C985 1.376 . S
C986 C987 1.388 . S
C987 H974 0.930 . S
C987 C986 1.388 . S
C987 C988 1.390 . S
C988 C987 1.390 . S
C988 C989 1.394 . S
C988 C994 1.465 . S
C989 C984 1.399 . S
C989 C988 1.394 . S
C989 C990 1.516 . S
C990 C989 1.516 . S
C990 C991 1.502 . S
C990 C992 1.561 . S
C990 C993 1.526 . S
C991 H975 0.959 . S
C991 H976 0.959 . S
C991 H977 0.961 . S
C991 C990 1.502 . S
C992 H978 0.960 . S
C992 H979 0.961 . S
C992 H980 0.959 . S
C992 C990 1.561 . S
C993 C990 1.526 . S
C993 C994 1.396 . S
C993 C998 1.390 . S
C994 C988 1.465 . S
C994 C993 1.396 . S
C994 C995 1.399 . S
C995 H981 0.929 . S
C995 C994 1.399 . S
C995 C996 1.385 . S
C996 H982 0.931 . S
C996 C995 1.385 . S
C996 C997 1.389 . S
C997 C996 1.389 . S
C997 C998 1.387 . S
C998 H983 0.930 . S
C998 C993 1.390 . S
C998 C997 1.387 . S
H999 C1011 0.930 . S
H1000 C1013 0.930 . S
H1001 C1014 0.930 . S
H1002 C1018 0.959 . S
H1003 C1018 0.959 . S
H1004 C1018 0.961 . S
H1005 C1019 0.960 . S
H1006 C1019 0.961 . S
H1007 C1019 0.959 . S
H1008 C1022 0.929 . S
H1009 C1023 0.931 . S
H1010 C1025 0.930 . S
C1011 H999 0.930 . S
C1011 C1012 1.399 . S
C1011 C1016 1.399 . S
C1012 C1011 1.399 . S
C1012 C1013 1.376 . S
C1013 H1000 0.930 . S
C1013 C1012 1.376 . S
C1013 C1014 1.388 . S
C1014 H1001 0.930 . S
C1014 C1013 1.388 . S
C1014 C1015 1.390 . S
C1015 C1014 1.390 . S
C1015 C1016 1.394 . S
C1015 C1021 1.465 . S
C1016 C1011 1.399 . S
C1016 C1015 1.394 . S
C1016 C1017 1.516 . S
C1017 C1016 1.516 . S
C1017 C1018 1.502 . S
C1017 C1019 1.561 . S
C1017 C1020 1.526 . S
C1018 H1002 0.959 . S
C1018 H1003 0.959 . S
C1018 H1004 0.961 . S
C1018 C1017 1.502 . S
C1019 H1005 0.960 . S
C1019 H1006 0.961 . S
C1019 H1007 0.959 . S
C1019 C1017 1.561 . S
C1020 C1017 1.526 . S
C1020 C1021 1.396 . S
C1020 C1025 1.390 . S
C1021 C1015 1.465 . S
C1021 C1020 1.396 . S
C1021 C1022 1.399 . S
C1022 H1008 0.929 . S
C1022 C1021 1.399 . S
C1022 C1023 1.385 . S
C1023 H1009 0.931 . S
C1023 C1022 1.385 . S
C1023 C1024 1.389 . S
C1024 C1023 1.389 . S
C1024 C1025 1.387 . S
C1025 H1010 0.930 . S
C1025 C1020 1.390 . S
C1025 C1024 1.387 . S
H1026 C1038 0.930 . S
H1027 C1040 0.930 . S
H1028 C1041 0.930 . S
H1029 C1045 0.959 . S
H1030 C1045 0.959 . S
H1031 C1045 0.961 . S
H1032 C1046 0.960 . S
H1033 C1046 0.961 . S
H1034 C1046 0.959 . S
H1035 C1049 0.929 . S
H1036 C1050 0.931 . S
H1037 C1052 0.930 . S
C1038 H1026 0.930 . S
C1038 C1039 1.399 . S
C1038 C1043 1.399 . S
C1039 C1038 1.399 . S
C1039 C1040 1.376 . S
C1040 H1027 0.930 . S
C1040 C1039 1.376 . S
C1040 C1041 1.388 . S
C1041 H1028 0.930 . S
C1041 C1040 1.388 . S
C1041 C1042 1.390 . S
C1042 C1041 1.390 . S
C1042 C1043 1.394 . S
C1042 C1048 1.465 . S
C1043 C1038 1.399 . S
C1043 C1042 1.394 . S
C1043 C1044 1.516 . S
C1044 C1043 1.516 . S
C1044 C1045 1.502 . S
C1044 C1046 1.561 . S
C1044 C1047 1.526 . S
C1045 H1029 0.959 . S
C1045 H1030 0.959 . S
C1045 H1031 0.961 . S
C1045 C1044 1.502 . S
C1046 H1032 0.960 . S
C1046 H1033 0.961 . S
C1046 H1034 0.959 . S
C1046 C1044 1.561 . S
C1047 C1044 1.526 . S
C1047 C1048 1.396 . S
C1047 C1052 1.390 . S
C1048 C1042 1.465 . S
C1048 C1047 1.396 . S
C1048 C1049 1.399 . S
C1049 H1035 0.929 . S
C1049 C1048 1.399 . S
C1049 C1050 1.385 . S
C1050 H1036 0.931 . S
C1050 C1049 1.385 . S
C1050 C1051 1.389 . S
C1051 C1050 1.389 . S
C1051 C1052 1.387 . S
C1052 H1037 0.930 . S
C1052 C1047 1.390 . S
C1052 C1051 1.387 . S
H1053 C1065 0.930 . S
H1054 C1067 0.930 . S
H1055 C1068 0.930 . S
H1056 C1072 0.959 . S
H1057 C1072 0.959 . S
H1058 C1072 0.961 . S
H1059 C1073 0.960 . S
H1060 C1073 0.961 . S
H1061 C1073 0.959 . S
H1062 C1076 0.929 . S
H1063 C1077 0.931 . S
H1064 C1079 0.930 . S
C1065 H1053 0.930 . S
C1065 C1066 1.399 . S
C1065 C1070 1.399 . S
C1066 C1065 1.399 . S
C1066 C1067 1.376 . S
C1067 H1054 0.930 . S
C1067 C1066 1.376 . S
C1067 C1068 1.388 . S
C1068 H1055 0.930 . S
C1068 C1067 1.388 . S
C1068 C1069 1.390 . S
C1069 C1068 1.390 . S
C1069 C1070 1.394 . S
C1069 C1075 1.465 . S
C1070 C1065 1.399 . S
C1070 C1069 1.394 . S
C1070 C1071 1.516 . S
C1071 C1070 1.516 . S
C1071 C1072 1.502 . S
C1071 C1073 1.561 . S
C1071 C1074 1.526 . S
C1072 H1056 0.959 . S
C1072 H1057 0.959 . S
C1072 H1058 0.961 . S
C1072 C1071 1.502 . S
C1073 H1059 0.960 . S
C1073 H1060 0.961 . S
C1073 H1061 0.959 . S
C1073 C1071 1.561 . S
C1074 C1071 1.526 . S
C1074 C1075 1.396 . S
C1074 C1079 1.390 . S
C1075 C1069 1.465 . S
C1075 C1074 1.396 . S
C1075 C1076 1.399 . S
C1076 H1062 0.929 . S
C1076 C1075 1.399 . S
C1076 C1077 1.385 . S
C1077 H1063 0.931 . S
C1077 C1076 1.385 . S
C1077 C1078 1.389 . S
C1078 C1077 1.389 . S
C1078 C1079 1.387 . S
C1079 H1064 0.930 . S
C1079 C1074 1.390 . S
C1079 C1078 1.387 . S
H1080 C1092 0.930 . S
H1081 C1094 0.930 . S
H1082 C1095 0.930 . S
H1083 C1099 0.959 . S
H1084 C1099 0.959 . S
H1085 C1099 0.961 . S
H1086 C1100 0.960 . S
H1087 C1100 0.961 . S
H1088 C1100 0.959 . S
H1089 C1103 0.929 . S
H1090 C1104 0.931 . S
H1091 C1106 0.930 . S
C1092 H1080 0.930 . S
C1092 C1093 1.399 . S
C1092 C1097 1.399 . S
C1093 C1092 1.399 . S
C1093 C1094 1.376 . S
C1094 H1081 0.930 . S
C1094 C1093 1.376 . S
C1094 C1095 1.388 . S
C1095 H1082 0.930 . S
C1095 C1094 1.388 . S
C1095 C1096 1.390 . S
C1096 C1095 1.390 . S
C1096 C1097 1.394 . S
C1096 C1102 1.465 . S
C1097 C1092 1.399 . S
C1097 C1096 1.394 . S
C1097 C1098 1.516 . S
C1098 C1097 1.516 . S
C1098 C1099 1.502 . S
C1098 C1100 1.561 . S
C1098 C1101 1.526 . S
C1099 H1083 0.959 . S
C1099 H1084 0.959 . S
C1099 H1085 0.961 . S
C1099 C1098 1.502 . S
C1100 H1086 0.960 . S
C1100 H1087 0.961 . S
C1100 H1088 0.959 . S
C1100 C1098 1.561 . S
C1101 C1098 1.526 . S
C1101 C1102 1.396 . S
C1101 C1106 1.390 . S
C1102 C1096 1.465 . S
C1102 C1101 1.396 . S
C1102 C1103 1.399 . S
C1103 H1089 0.929 . S
C1103 C1102 1.399 . S
C1103 C1104 1.385 . S
C1104 H1090 0.931 . S
C1104 C1103 1.385 . S
C1104 C1105 1.389 . S
C1105 C1104 1.389 . S
C1105 C1106 1.387 . S
C1106 H1091 0.930 . S
C1106 C1101 1.390 . S
C1106 C1105 1.387 . S
H1107 C1119 0.930 . S
H1108 C1121 0.930 . S
H1109 C1122 0.930 . S
H1110 C1126 0.959 . S
H1111 C1126 0.959 . S
H1112 C1126 0.961 . S
H1113 C1127 0.960 . S
H1114 C1127 0.961 . S
H1115 C1127 0.959 . S
H1116 C1130 0.929 . S
H1117 C1131 0.931 . S
H1118 C1133 0.930 . S
C1119 H1107 0.930 . S
C1119 C1120 1.399 . S
C1119 C1124 1.399 . S
C1120 C1119 1.399 . S
C1120 C1121 1.376 . S
C1121 H1108 0.930 . S
C1121 C1120 1.376 . S
C1121 C1122 1.388 . S
C1122 H1109 0.930 . S
C1122 C1121 1.388 . S
C1122 C1123 1.390 . S
C1123 C1122 1.390 . S
C1123 C1124 1.394 . S
C1123 C1129 1.465 . S
C1124 C1119 1.399 . S
C1124 C1123 1.394 . S
C1124 C1125 1.516 . S
C1125 C1124 1.516 . S
C1125 C1126 1.502 . S
C1125 C1127 1.561 . S
C1125 C1128 1.526 . S
C1126 H1110 0.959 . S
C1126 H1111 0.959 . S
C1126 H1112 0.961 . S
C1126 C1125 1.502 . S
C1127 H1113 0.960 . S
C1127 H1114 0.961 . S
C1127 H1115 0.959 . S
C1127 C1125 1.561 . S
C1128 C1125 1.526 . S
C1128 C1129 1.396 . S
C1128 C1133 1.390 . S
C1129 C1123 1.465 . S
C1129 C1128 1.396 . S
C1129 C1130 1.399 . S
C1130 H1116 0.929 . S
C1130 C1129 1.399 . S
C1130 C1131 1.385 . S
C1131 H1117 0.931 . S
C1131 C1130 1.385 . S
C1131 C1132 1.389 . S
C1132 C1131 1.389 . S
C1132 C1133 1.387 . S
C1133 H1118 0.930 . S
C1133 C1128 1.390 . S
C1133 C1132 1.387 . S
H1134 C1146 0.930 . S
H1135 C1148 0.930 . S
H1136 C1149 0.930 . S
H1137 C1153 0.959 . S
H1138 C1153 0.959 . S
H1139 C1153 0.961 . S
H1140 C1154 0.960 . S
H1141 C1154 0.961 . S
H1142 C1154 0.959 . S
H1143 C1157 0.929 . S
H1144 C1158 0.931 . S
H1145 C1160 0.930 . S
C1146 H1134 0.930 . S
C1146 C1147 1.399 . S
C1146 C1151 1.399 . S
C1147 C1146 1.399 . S
C1147 C1148 1.376 . S
C1148 H1135 0.930 . S
C1148 C1147 1.376 . S
C1148 C1149 1.388 . S
C1149 H1136 0.930 . S
C1149 C1148 1.388 . S
C1149 C1150 1.390 . S
C1150 C1149 1.390 . S
C1150 C1151 1.394 . S
C1150 C1156 1.465 . S
C1151 C1146 1.399 . S
C1151 C1150 1.394 . S
C1151 C1152 1.516 . S
C1152 C1151 1.516 . S
C1152 C1153 1.502 . S
C1152 C1154 1.561 . S
C1152 C1155 1.526 . S
C1153 H1137 0.959 . S
C1153 H1138 0.959 . S
C1153 H1139 0.961 . S
C1153 C1152 1.502 . S
C1154 H1140 0.960 . S
C1154 H1141 0.961 . S
C1154 H1142 0.959 . S
C1154 C1152 1.561 . S
C1155 C1152 1.526 . S
C1155 C1156 1.396 . S
C1155 C1160 1.390 . S
C1156 C1150 1.465 . S
C1156 C1155 1.396 . S
C1156 C1157 1.399 . S
C1157 H1143 0.929 . S
C1157 C1156 1.399 . S
C1157 C1158 1.385 . S
C1158 H1144 0.931 . S
C1158 C1157 1.385 . S
C1158 C1159 1.389 . S
C1159 C1158 1.389 . S
C1159 C1160 1.387 . S
C1160 H1145 0.930 . S
C1160 C1155 1.390 . S
C1160 C1159 1.387 . S
H1161 C1173 0.930 . S
H1162 C1175 0.930 . S
H1163 C1176 0.930 . S
H1164 C1180 0.959 . S
H1165 C1180 0.959 . S
H1166 C1180 0.961 . S
H1167 C1181 0.960 . S
H1168 C1181 0.961 . S
H1169 C1181 0.959 . S
H1170 C1184 0.929 . S
H1171 C1185 0.931 . S
H1172 C1187 0.930 . S
C1173 H1161 0.930 . S
C1173 C1174 1.399 . S
C1173 C1178 1.399 . S
C1174 C1173 1.399 . S
C1174 C1175 1.376 . S
C1175 H1162 0.930 . S
C1175 C1174 1.376 . S
C1175 C1176 1.388 . S
C1176 H1163 0.930 . S
C1176 C1175 1.388 . S
C1176 C1177 1.390 . S
C1177 C1176 1.390 . S
C1177 C1178 1.394 . S
C1177 C1183 1.465 . S
C1178 C1173 1.399 . S
C1178 C1177 1.394 . S
C1178 C1179 1.516 . S
C1179 C1178 1.516 . S
C1179 C1180 1.502 . S
C1179 C1181 1.561 . S
C1179 C1182 1.526 . S
C1180 H1164 0.959 . S
C1180 H1165 0.959 . S
C1180 H1166 0.961 . S
C1180 C1179 1.502 . S
C1181 H1167 0.960 . S
C1181 H1168 0.961 . S
C1181 H1169 0.959 . S
C1181 C1179 1.561 . S
C1182 C1179 1.526 . S
C1182 C1183 1.396 . S
C1182 C1187 1.390 . S
C1183 C1177 1.465 . S
C1183 C1182 1.396 . S
C1183 C1184 1.399 . S
C1184 H1170 0.929 . S
C1184 C1183 1.399 . S
C1184 C1185 1.385 . S
C1185 H1171 0.931 . S
C1185 C1184 1.385 . S
C1185 C1186 1.389 . S
C1186 C1185 1.389 . S
C1186 C1187 1.387 . S
C1187 H1172 0.930 . S
C1187 C1182 1.390 . S
C1187 C1186 1.387 . S
H1188 C1200 0.930 . S
H1189 C1202 0.930 . S
H1190 C1203 0.930 . S
H1191 C1207 0.959 . S
H1192 C1207 0.959 . S
H1193 C1207 0.961 . S
H1194 C1208 0.960 . S
H1195 C1208 0.961 . S
H1196 C1208 0.959 . S
H1197 C1211 0.929 . S
H1198 C1212 0.931 . S
H1199 C1214 0.930 . S
C1200 H1188 0.930 . S
C1200 C1201 1.399 . S
C1200 C1205 1.399 . S
C1201 C1200 1.399 . S
C1201 C1202 1.376 . S
C1202 H1189 0.930 . S
C1202 C1201 1.376 . S
C1202 C1203 1.388 . S
C1203 H1190 0.930 . S
C1203 C1202 1.388 . S
C1203 C1204 1.390 . S
C1204 C1203 1.390 . S
C1204 C1205 1.394 . S
C1204 C1210 1.465 . S
C1205 C1200 1.399 . S
C1205 C1204 1.394 . S
C1205 C1206 1.516 . S
C1206 C1205 1.516 . S
C1206 C1207 1.502 . S
C1206 C1208 1.561 . S
C1206 C1209 1.526 . S
C1207 H1191 0.959 . S
C1207 H1192 0.959 . S
C1207 H1193 0.961 . S
C1207 C1206 1.502 . S
C1208 H1194 0.960 . S
C1208 H1195 0.961 . S
C1208 H1196 0.959 . S
C1208 C1206 1.561 . S
C1209 C1206 1.526 . S
C1209 C1210 1.396 . S
C1209 C1214 1.390 . S
C1210 C1204 1.465 . S
C1210 C1209 1.396 . S
C1210 C1211 1.399 . S
C1211 H1197 0.929 . S
C1211 C1210 1.399 . S
C1211 C1212 1.385 . S
C1212 H1198 0.931 . S
C1212 C1211 1.385 . S
C1212 C1213 1.389 . S
C1213 C1212 1.389 . S
C1213 C1214 1.387 . S
C1214 H1199 0.930 . S
C1214 C1209 1.390 . S
C1214 C1213 1.387 . S
H1215 C1227 0.930 . S
H1216 C1229 0.930 . S
H1217 C1230 0.930 . S
H1218 C1234 0.959 . S
H1219 C1234 0.959 . S
H1220 C1234 0.961 . S
H1221 C1235 0.960 . S
H1222 C1235 0.961 . S
H1223 C1235 0.959 . S
H1224 C1238 0.929 . S
H1225 C1239 0.931 . S
H1226 C1241 0.930 . S
C1227 H1215 0.930 . S
C1227 C1228 1.399 . S
C1227 C1232 1.399 . S
C1228 C1227 1.399 . S
C1228 C1229 1.376 . S
C1229 H1216 0.930 . S
C1229 C1228 1.376 . S
C1229 C1230 1.388 . S
C1230 H1217 0.930 . S
C1230 C1229 1.388 . S
C1230 C1231 1.390 . S
C1231 C1230 1.390 . S
C1231 C1232 1.394 . S
C1231 C1237 1.465 . S
C1232 C1227 1.399 . S
C1232 C1231 1.394 . S
C1232 C1233 1.516 . S
C1233 C1232 1.516 . S
C1233 C1234 1.502 . S
C1233 C1235 1.561 . S
C1233 C1236 1.526 . S
C1234 H1218 0.959 . S
C1234 H1219 0.959 . S
C1234 H1220 0.961 . S
C1234 C1233 1.502 . S
C1235 H1221 0.960 . S
C1235 H1222 0.961 . S
C1235 H1223 0.959 . S
C1235 C1233 1.561 . S
C1236 C1233 1.526 . S
C1236 C1237 1.396 . S
C1236 C1241 1.390 . S
C1237 C1231 1.465 . S
C1237 C1236 1.396 . S
C1237 C1238 1.399 . S
C1238 H1224 0.929 . S
C1238 C1237 1.399 . S
C1238 C1239 1.385 . S
C1239 H1225 0.931 . S
C1239 C1238 1.385 . S
C1239 C1240 1.389 . S
C1240 C1239 1.389 . S
C1240 C1241 1.387 . S
C1241 H1226 0.930 . S
C1241 C1236 1.390 . S
C1241 C1240 1.387 . S
H1242 C1254 0.930 . S
H1243 C1256 0.930 . S
H1244 C1257 0.930 . S
H1245 C1261 0.959 . S
H1246 C1261 0.959 . S
H1247 C1261 0.961 . S
H1248 C1262 0.960 . S
H1249 C1262 0.961 . S
H1250 C1262 0.959 . S
H1251 C1265 0.929 . S
H1252 C1266 0.931 . S
H1253 C1268 0.930 . S
C1254 H1242 0.930 . S
C1254 C1255 1.399 . S
C1254 C1259 1.399 . S
C1255 C1254 1.399 . S
C1255 C1256 1.376 . S
C1256 H1243 0.930 . S
C1256 C1255 1.376 . S
C1256 C1257 1.388 . S
C1257 H1244 0.930 . S
C1257 C1256 1.388 . S
C1257 C1258 1.390 . S
C1258 C1257 1.390 . S
C1258 C1259 1.394 . S
C1258 C1264 1.465 . S
C1259 C1254 1.399 . S
C1259 C1258 1.394 . S
C1259 C1260 1.516 . S
C1260 C1259 1.516 . S
C1260 C1261 1.502 . S
C1260 C1262 1.561 . S
C1260 C1263 1.526 . S
C1261 H1245 0.959 . S
C1261 H1246 0.959 . S
C1261 H1247 0.961 . S
C1261 C1260 1.502 . S
C1262 H1248 0.960 . S
C1262 H1249 0.961 . S
C1262 H1250 0.959 . S
C1262 C1260 1.561 . S
C1263 C1260 1.526 . S
C1263 C1264 1.396 . S
C1263 C1268 1.390 . S
C1264 C1258 1.465 . S
C1264 C1263 1.396 . S
C1264 C1265 1.399 . S
C1265 H1251 0.929 . S
C1265 C1264 1.399 . S
C1265 C1266 1.385 . S
C1266 H1252 0.931 . S
C1266 C1265 1.385 . S
C1266 C1267 1.389 . S
C1267 C1266 1.389 . S
C1267 C1268 1.387 . S
C1268 H1253 0.930 . S
C1268 C1263 1.390 . S
C1268 C1267 1.387 . S
H1269 C1281 0.930 . S
H1270 C1283 0.930 . S
H1271 C1284 0.930 . S
H1272 C1288 0.959 . S
H1273 C1288 0.959 . S
H1274 C1288 0.961 . S
H1275 C1289 0.960 . S
H1276 C1289 0.961 . S
H1277 C1289 0.959 . S
H1278 C1292 0.929 . S
H1279 C1293 0.931 . S
H1280 C1295 0.930 . S
C1281 H1269 0.930 . S
C1281 C1282 1.399 . S
C1281 C1286 1.399 . S
C1282 C1281 1.399 . S
C1282 C1283 1.376 . S
C1283 H1270 0.930 . S
C1283 C1282 1.376 . S
C1283 C1284 1.388 . S
C1284 H1271 0.930 . S
C1284 C1283 1.388 . S
C1284 C1285 1.390 . S
C1285 C1284 1.390 . S
C1285 C1286 1.394 . S
C1285 C1291 1.465 . S
C1286 C1281 1.399 . S
C1286 C1285 1.394 . S
C1286 C1287 1.516 . S
C1287 C1286 1.516 . S
C1287 C1288 1.502 . S
C1287 C1289 1.561 . S
C1287 C1290 1.526 . S
C1288 H1272 0.959 . S
C1288 H1273 0.959 . S
C1288 H1274 0.961 . S
C1288 C1287 1.502 . S
C1289 H1275 0.960 . S
C1289 H1276 0.961 . S
C1289 H1277 0.959 . S
C1289 C1287 1.561 . S
C1290 C1287 1.526 . S
C1290 C1291 1.396 . S
C1290 C1295 1.390 . S
C1291 C1285 1.465 . S
C1291 C1290 1.396 . S
C1291 C1292 1.399 . S
C1292 H1278 0.929 . S
C1292 C1291 1.399 . S
C1292 C1293 1.385 . S
C1293 H1279 0.931 . S
C1293 C1292 1.385 . S
C1293 C1294 1.389 . S
C1294 C1293 1.389 . S
C1294 C1295 1.387 . S
C1295 H1280 0.930 . S
C1295 C1290 1.390 . S
C1295 C1294 1.387 . S
H1296 C1308 0.930 . S
H1297 C1310 0.930 . S
H1298 C1311 0.930 . S
H1299 C1315 0.959 . S
H1300 C1315 0.959 . S
H1301 C1315 0.961 . S
H1302 C1316 0.960 . S
H1303 C1316 0.961 . S
H1304 C1316 0.959 . S
H1305 C1319 0.929 . S
H1306 C1320 0.931 . S
H1307 C1322 0.930 . S
C1308 H1296 0.930 . S
C1308 C1309 1.399 . S
C1308 C1313 1.399 . S
C1309 C1308 1.399 . S
C1309 C1310 1.376 . S
C1310 H1297 0.930 . S
C1310 C1309 1.376 . S
C1310 C1311 1.388 . S
C1311 H1298 0.930 . S
C1311 C1310 1.388 . S
C1311 C1312 1.390 . S
C1312 C1311 1.390 . S
C1312 C1313 1.394 . S
C1312 C1318 1.465 . S
C1313 C1308 1.399 . S
C1313 C1312 1.394 . S
C1313 C1314 1.516 . S
C1314 C1313 1.516 . S
C1314 C1315 1.502 . S
C1314 C1316 1.561 . S
C1314 C1317 1.526 . S
C1315 H1299 0.959 . S
C1315 H1300 0.959 . S
C1315 H1301 0.961 . S
C1315 C1314 1.502 . S
C1316 H1302 0.960 . S
C1316 H1303 0.961 . S
C1316 H1304 0.959 . S
C1316 C1314 1.561 . S
C1317 C1314 1.526 . S
C1317 C1318 1.396 . S
C1317 C1322 1.390 . S
C1318 C1312 1.465 . S
C1318 C1317 1.396 . S
C1318 C1319 1.399 . S
C1319 H1305 0.929 . S
C1319 C1318 1.399 . S
C1319 C1320 1.385 . S
C1320 H1306 0.931 . S
C1320 C1319 1.385 . S
C1320 C1321 1.389 . S
C1321 C1320 1.389 . S
C1321 C1322 1.387 . S
C1322 H1307 0.930 . S
C1322 C1317 1.390 . S
C1322 C1321 1.387 . S
H1323 C1335 0.930 . S
H1324 C1337 0.930 . S
H1325 C1338 0.930 . S
H1326 C1342 0.959 . S
H1327 C1342 0.959 . S
H1328 C1342 0.961 . S
H1329 C1343 0.960 . S
H1330 C1343 0.961 . S
H1331 C1343 0.959 . S
H1332 C1346 0.929 . S
H1333 C1347 0.931 . S
H1334 C1349 0.930 . S
C1335 H1323 0.930 . S
C1335 C1336 1.399 . S
C1335 C1340 1.399 . S
C1336 C1335 1.399 . S
C1336 C1337 1.376 . S
C1337 H1324 0.930 . S
C1337 C1336 1.376 . S
C1337 C1338 1.388 . S
C1338 H1325 0.930 . S
C1338 C1337 1.388 . S
C1338 C1339 1.390 . S
C1339 C1338 1.390 . S
C1339 C1340 1.394 . S
C1339 C1345 1.465 . S
C1340 C1335 1.399 . S
C1340 C1339 1.394 . S
C1340 C1341 1.516 . S
C1341 C1340 1.516 . S
C1341 C1342 1.502 . S
C1341 C1343 1.561 . S
C1341 C1344 1.526 . S
C1342 H1326 0.959 . S
C1342 H1327 0.959 . S
C1342 H1328 0.961 . S
C1342 C1341 1.502 . S
C1343 H1329 0.960 . S
C1343 H1330 0.961 . S
C1343 H1331 0.959 . S
C1343 C1341 1.561 . S
C1344 C1341 1.526 . S
C1344 C1345 1.396 . S
C1344 C1349 1.390 . S
C1345 C1339 1.465 . S
C1345 C1344 1.396 . S
C1345 C1346 1.399 . S
C1346 H1332 0.929 . S
C1346 C1345 1.399 . S
C1346 C1347 1.385 . S
C1347 H1333 0.931 . S
C1347 C1346 1.385 . S
C1347 C1348 1.389 . S
C1348 C1347 1.389 . S
C1348 C1349 1.387 . S
C1349 H1334 0.930 . S
C1349 C1344 1.390 . S
C1349 C1348 1.387 . S
H1350 C1362 0.930 . S
H1351 C1364 0.930 . S
H1352 C1365 0.930 . S
H1353 C1369 0.959 . S
H1354 C1369 0.959 . S
H1355 C1369 0.961 . S
H1356 C1370 0.960 . S
H1357 C1370 0.961 . S
H1358 C1370 0.959 . S
H1359 C1373 0.929 . S
H1360 C1374 0.931 . S
H1361 C1376 0.930 . S
C1362 H1350 0.930 . S
C1362 C1363 1.399 . S
C1362 C1367 1.399 . S
C1363 C1362 1.399 . S
C1363 C1364 1.376 . S
C1364 H1351 0.930 . S
C1364 C1363 1.376 . S
C1364 C1365 1.388 . S
C1365 H1352 0.930 . S
C1365 C1364 1.388 . S
C1365 C1366 1.390 . S
C1366 C1365 1.390 . S
C1366 C1367 1.394 . S
C1366 C1372 1.465 . S
C1367 C1362 1.399 . S
C1367 C1366 1.394 . S
C1367 C1368 1.516 . S
C1368 C1367 1.516 . S
C1368 C1369 1.502 . S
C1368 C1370 1.561 . S
C1368 C1371 1.526 . S
C1369 H1353 0.959 . S
C1369 H1354 0.959 . S
C1369 H1355 0.961 . S
C1369 C1368 1.502 . S
C1370 H1356 0.960 . S
C1370 H1357 0.961 . S
C1370 H1358 0.959 . S
C1370 C1368 1.561 . S
C1371 C1368 1.526 . S
C1371 C1372 1.396 . S
C1371 C1376 1.390 . S
C1372 C1366 1.465 . S
C1372 C1371 1.396 . S
C1372 C1373 1.399 . S
C1373 H1359 0.929 . S
C1373 C1372 1.399 . S
C1373 C1374 1.385 . S
C1374 H1360 0.931 . S
C1374 C1373 1.385 . S
C1374 C1375 1.389 . S
C1375 C1374 1.389 . S
C1375 C1376 1.387 . S
C1376 H1361 0.930 . S
C1376 C1371 1.390 . S
C1376 C1375 1.387 . S
H1377 C1389 0.930 . S
H1378 C1391 0.930 . S
H1379 C1392 0.930 . S
H1380 C1396 0.959 . S
H1381 C1396 0.959 . S
H1382 C1396 0.961 . S
H1383 C1397 0.960 . S
H1384 C1397 0.961 . S
H1385 C1397 0.959 . S
H1386 C1400 0.929 . S
H1387 C1401 0.931 . S
H1388 C1403 0.930 . S
C1389 H1377 0.930 . S
C1389 C1390 1.399 . S
C1389 C1394 1.399 . S
C1390 C1389 1.399 . S
C1390 C1391 1.376 . S
C1391 H1378 0.930 . S
C1391 C1390 1.376 . S
C1391 C1392 1.388 . S
C1392 H1379 0.930 . S
C1392 C1391 1.388 . S
C1392 C1393 1.390 . S
C1393 C1392 1.390 . S
C1393 C1394 1.394 . S
C1393 C1399 1.465 . S
C1394 C1389 1.399 . S
C1394 C1393 1.394 . S
C1394 C1395 1.516 . S
C1395 C1394 1.516 . S
C1395 C1396 1.502 . S
C1395 C1397 1.561 . S
C1395 C1398 1.526 . S
C1396 H1380 0.959 . S
C1396 H1381 0.959 . S
C1396 H1382 0.961 . S
C1396 C1395 1.502 . S
C1397 H1383 0.960 . S
C1397 H1384 0.961 . S
C1397 H1385 0.959 . S
C1397 C1395 1.561 . S
C1398 C1395 1.526 . S
C1398 C1399 1.396 . S
C1398 C1403 1.390 . S
C1399 C1393 1.465 . S
C1399 C1398 1.396 . S
C1399 C1400 1.399 . S
C1400 H1386 0.929 . S
C1400 C1399 1.399 . S
C1400 C1401 1.385 . S
C1401 H1387 0.931 . S
C1401 C1400 1.385 . S
C1401 C1402 1.389 . S
C1402 C1401 1.389 . S
C1402 C1403 1.387 . S
C1403 H1388 0.930 . S
C1403 C1398 1.390 . S
C1403 C1402 1.387 . S
H1404 C1416 0.930 . S
H1405 C1418 0.930 . S
H1406 C1419 0.930 . S
H1407 C1423 0.959 . S
H1408 C1423 0.959 . S
H1409 C1423 0.961 . S
H1410 C1424 0.960 . S
H1411 C1424 0.961 . S
H1412 C1424 0.959 . S
H1413 C1427 0.929 . S
H1414 C1428 0.931 . S
H1415 C1430 0.930 . S
C1416 H1404 0.930 . S
C1416 C1417 1.399 . S
C1416 C1421 1.399 . S
C1417 C1416 1.399 . S
C1417 C1418 1.376 . S
C1418 H1405 0.930 . S
C1418 C1417 1.376 . S
C1418 C1419 1.388 . S
C1419 H1406 0.930 . S
C1419 C1418 1.388 . S
C1419 C1420 1.390 . S
C1420 C1419 1.390 . S
C1420 C1421 1.394 . S
C1420 C1426 1.465 . S
C1421 C1416 1.399 . S
C1421 C1420 1.394 . S
C1421 C1422 1.516 . S
C1422 C1421 1.516 . S
C1422 C1423 1.502 . S
C1422 C1424 1.561 . S
C1422 C1425 1.526 . S
C1423 H1407 0.959 . S
C1423 H1408 0.959 . S
C1423 H1409 0.961 . S
C1423 C1422 1.502 . S
C1424 H1410 0.960 . S
C1424 H1411 0.961 . S
C1424 H1412 0.959 . S
C1424 C1422 1.561 . S
C1425 C1422 1.526 . S
C1425 C1426 1.396 . S
C1425 C1430 1.390 . S
C1426 C1420 1.465 . S
C1426 C1425 1.396 . S
C1426 C1427 1.399 . S
C1427 H1413 0.929 . S
C1427 C1426 1.399 . S
C1427 C1428 1.385 . S
C1428 H1414 0.931 . S
C1428 C1427 1.385 . S
C1428 C1429 1.389 . S
C1429 C1428 1.389 . S
C1429 C1430 1.387 . S
C1430 H1415 0.930 . S
C1430 C1425 1.390 . S
C1430 C1429 1.387 . S
H1431 C1443 0.930 . S
H1432 C1445 0.930 . S
H1433 C1446 0.930 . S
H1434 C1450 0.959 . S
H1435 C1450 0.959 . S
H1436 C1450 0.961 . S
H1437 C1451 0.960 . S
H1438 C1451 0.961 . S
H1439 C1451 0.959 . S
H1440 C1454 0.929 . S
H1441 C1455 0.931 . S
H1442 C1457 0.930 . S
C1443 H1431 0.930 . S
C1443 C1444 1.399 . S
C1443 C1448 1.399 . S
C1444 C1443 1.399 . S
C1444 C1445 1.376 . S
C1445 H1432 0.930 . S
C1445 C1444 1.376 . S
C1445 C1446 1.388 . S
C1446 H1433 0.930 . S
C1446 C1445 1.388 . S
C1446 C1447 1.390 . S
C1447 C1446 1.390 . S
C1447 C1448 1.394 . S
C1447 C1453 1.465 . S
C1448 C1443 1.399 . S
C1448 C1447 1.394 . S
C1448 C1449 1.516 . S
C1449 C1448 1.516 . S
C1449 C1450 1.502 . S
C1449 C1451 1.561 . S
C1449 C1452 1.526 . S
C1450 H1434 0.959 . S
C1450 H1435 0.959 . S
C1450 H1436 0.961 . S
C1450 C1449 1.502 . S
C1451 H1437 0.960 . S
C1451 H1438 0.961 . S
C1451 H1439 0.959 . S
C1451 C1449 1.561 . S
C1452 C1449 1.526 . S
C1452 C1453 1.396 . S
C1452 C1457 1.390 . S
C1453 C1447 1.465 . S
C1453 C1452 1.396 . S
C1453 C1454 1.399 . S
C1454 H1440 0.929 . S
C1454 C1453 1.399 . S
C1454 C1455 1.385 . S
C1455 H1441 0.931 . S
C1455 C1454 1.385 . S
C1455 C1456 1.389 . S
C1456 C1455 1.389 . S
C1456 C1457 1.387 . S
C1457 H1442 0.930 . S
C1457 C1452 1.390 . S
C1457 C1456 1.387 . S
H1458 C1470 0.930 . S
H1459 C1472 0.930 . S
H1460 C1473 0.930 . S
H1461 C1477 0.959 . S
H1462 C1477 0.959 . S
H1463 C1477 0.961 . S
H1464 C1478 0.973 . S
H1465 C1478 0.961 . S
H1466 C1478 0.959 . S
H1467 C1481 0.929 . S
H1468 C1482 0.931 . S
H1469 C1484 0.930 . S
C1470 H1458 0.930 . S
C1470 C1471 1.399 . S
C1470 C1475 1.399 . S
C1471 C1470 1.399 . S
C1471 C1472 1.376 . S
C1472 H1459 0.930 . S
C1472 C1471 1.376 . S
C1472 C1473 1.388 . S
C1473 H1460 0.930 . S
C1473 C1472 1.388 . S
C1473 C1474 1.390 . S
C1474 C1473 1.390 . S
C1474 C1475 1.394 . S
C1474 C1480 1.465 . S
C1475 C1470 1.399 . S
C1475 C1474 1.394 . S
C1475 C1476 1.516 . S
C1476 C1475 1.516 . S
C1476 C1477 1.502 . S
C1476 C1478 1.561 . S
C1476 C1479 1.526 . S
C1477 H1461 0.959 . S
C1477 H1462 0.959 . S
C1477 H1463 0.961 . S
C1477 C1476 1.502 . S
C1478 H1464 0.973 . S
C1478 H1465 0.961 . S
C1478 H1466 0.959 . S
C1478 C1476 1.561 . S
C1479 C1476 1.526 . S
C1479 C1480 1.396 . S
C1479 C1484 1.390 . S
C1480 C1474 1.465 . S
C1480 C1479 1.396 . S
C1480 C1481 1.399 . S
C1481 H1467 0.929 . S
C1481 C1480 1.399 . S
C1481 C1482 1.385 . S
C1482 H1468 0.931 . S
C1482 C1481 1.385 . S
C1482 C1483 1.389 . S
C1483 C1482 1.389 . S
C1483 C1484 1.387 . S
C1484 H1469 0.930 . S
C1484 C1479 1.390 . S
C1484 C1483 1.387 . S
H1485 C1497 0.930 . S
H1486 C1499 0.930 . S
H1487 C1500 0.930 . S
H1488 C1504 0.959 . S
H1489 C1504 0.959 . S
H1490 C1504 0.961 . S
H1491 C1505 0.960 . S
H1492 C1505 0.961 . S
H1493 C1505 0.959 . S
H1494 C1508 0.929 . S
H1495 C1509 0.931 . S
H1496 C1511 0.930 . S
C1497 H1485 0.930 . S
C1497 C1498 1.399 . S
C1497 C1502 1.399 . S
C1498 C1497 1.399 . S
C1498 C1499 1.376 . S
C1499 H1486 0.930 . S
C1499 C1498 1.376 . S
C1499 C1500 1.388 . S
C1500 H1487 0.930 . S
C1500 C1499 1.388 . S
C1500 C1501 1.390 . S
C1501 C1500 1.390 . S
C1501 C1502 1.394 . S
C1501 C1507 1.465 . S
C1502 C1497 1.399 . S
C1502 C1501 1.394 . S
C1502 C1503 1.516 . S
C1503 C1502 1.516 . S
C1503 C1504 1.502 . S
C1503 C1505 1.561 . S
C1503 C1506 1.526 . S
C1504 H1488 0.959 . S
C1504 H1489 0.959 . S
C1504 H1490 0.961 . S
C1504 C1503 1.502 . S
C1505 H1491 0.960 . S
C1505 H1492 0.961 . S
C1505 H1493 0.959 . S
C1505 C1503 1.561 . S
C1506 C1503 1.526 . S
C1506 C1507 1.396 . S
C1506 C1511 1.390 . S
C1507 C1501 1.465 . S
C1507 C1506 1.396 . S
C1507 C1508 1.399 . S
C1508 H1494 0.929 . S
C1508 C1507 1.399 . S
C1508 C1509 1.385 . S
C1509 H1495 0.931 . S
C1509 C1508 1.385 . S
C1509 C1510 1.389 . S
C1510 C1509 1.389 . S
C1510 C1511 1.387 . S
C1511 H1496 0.930 . S
C1511 C1506 1.390 . S
C1511 C1510 1.387 . S
H1512 C1524 0.930 . S
H1513 C1526 0.930 . S
H1514 C1527 0.930 . S
H1515 C1531 0.959 . S
H1516 C1531 0.959 . S
H1517 C1531 0.961 . S
H1518 C1532 0.960 . S
H1519 C1532 0.961 . S
H1520 C1532 0.959 . S
H1521 C1535 0.929 . S
H1522 C1536 0.931 . S
H1523 C1538 0.930 . S
C1524 H1512 0.930 . S
C1524 C1525 1.399 . S
C1524 C1529 1.399 . S
C1525 C1524 1.399 . S
C1525 C1526 1.376 . S
C1526 H1513 0.930 . S
C1526 C1525 1.376 . S
C1526 C1527 1.388 . S
C1527 H1514 0.930 . S
C1527 C1526 1.388 . S
C1527 C1528 1.390 . S
C1528 C1527 1.390 . S
C1528 C1529 1.394 . S
C1528 C1534 1.465 . S
C1529 C1524 1.399 . S
C1529 C1528 1.394 . S
C1529 C1530 1.516 . S
C1530 C1529 1.516 . S
C1530 C1531 1.502 . S
C1530 C1532 1.561 . S
C1530 C1533 1.526 . S
C1531 H1515 0.959 . S
C1531 H1516 0.959 . S
C1531 H1517 0.961 . S
C1531 C1530 1.502 . S
C1532 H1518 0.960 . S
C1532 H1519 0.961 . S
C1532 H1520 0.959 . S
C1532 C1530 1.561 . S
C1533 C1530 1.526 . S
C1533 C1534 1.396 . S
C1533 C1538 1.390 . S
C1534 C1528 1.465 . S
C1534 C1533 1.396 . S
C1534 C1535 1.399 . S
C1535 H1521 0.929 . S
C1535 C1534 1.399 . S
C1535 C1536 1.385 . S
C1536 H1522 0.931 . S
C1536 C1535 1.385 . S
C1536 C1537 1.389 . S
C1537 C1536 1.389 . S
C1537 C1538 1.387 . S
C1538 H1523 0.930 . S
C1538 C1533 1.390 . S
C1538 C1537 1.387 . S
H1539 C1551 0.930 . S
H1540 C1553 0.930 . S
H1541 C1554 0.930 . S
H1542 C1558 0.959 . S
H1543 C1558 0.959 . S
H1544 C1558 0.961 . S
H1545 C1559 0.960 . S
H1546 C1559 0.961 . S
H1547 C1559 0.959 . S
H1548 C1562 0.929 . S
H1549 C1563 0.931 . S
H1550 C1565 0.930 . S
C1551 H1539 0.930 . S
C1551 C1552 1.399 . S
C1551 C1556 1.399 . S
C1552 C1551 1.399 . S
C1552 C1553 1.376 . S
C1553 H1540 0.930 . S
C1553 C1552 1.376 . S
C1553 C1554 1.388 . S
C1554 H1541 0.930 . S
C1554 C1553 1.388 . S
C1554 C1555 1.390 . S
C1555 C1554 1.390 . S
C1555 C1556 1.394 . S
C1555 C1561 1.465 . S
C1556 C1551 1.399 . S
C1556 C1555 1.394 . S
C1556 C1557 1.516 . S
C1557 C1556 1.516 . S
C1557 C1558 1.502 . S
C1557 C1559 1.561 . S
C1557 C1560 1.526 . S
C1558 H1542 0.959 . S
C1558 H1543 0.959 . S
C1558 H1544 0.961 . S
C1558 C1557 1.502 . S
C1559 H1545 0.960 . S
C1559 H1546 0.961 . S
C1559 H1547 0.959 . S
C1559 C1557 1.561 . S
C1560 C1557 1.526 . S
C1560 C1561 1.396 . S
C1560 C1565 1.390 . S
C1561 C1555 1.465 . S
C1561 C1560 1.396 . S
C1561 C1562 1.399 . S
C1562 H1548 0.929 . S
C1562 C1561 1.399 . S
C1562 C1563 1.385 . S
C1563 H1549 0.931 . S
C1563 C1562 1.385 . S
C1563 C1564 1.389 . S
C1564 C1563 1.389 . S
C1564 C1565 1.387 . S
C1565 H1550 0.930 . S
C1565 C1560 1.390 . S
C1565 C1564 1.387 . S
H1566 C1578 0.930 . S
H1567 C1580 0.930 . S
H1568 C1581 0.930 . S
H1569 C1585 0.959 . S
H1570 C1585 0.959 . S
H1571 C1585 0.961 . S
H1572 C1586 0.960 . S
H1573 C1586 0.961 . S
H1574 C1586 0.959 . S
H1575 C1589 0.929 . S
H1576 C1590 0.931 . S
H1577 C1592 0.930 . S
C1578 H1566 0.930 . S
C1578 C1579 1.399 . S
C1578 C1583 1.399 . S
C1579 C1578 1.399 . S
C1579 C1580 1.376 . S
C1580 H1567 0.930 . S
C1580 C1579 1.376 . S
C1580 C1581 1.388 . S
C1581 H1568 0.930 . S
C1581 C1580 1.388 . S
C1581 C1582 1.390 . S
C1582 C1581 1.390 . S
C1582 C1583 1.394 . S
C1582 C1588 1.465 . S
C1583 C1578 1.399 . S
C1583 C1582 1.394 . S
C1583 C1584 1.516 . S
C1584 C1583 1.516 . S
C1584 C1585 1.502 . S
C1584 C1586 1.561 . S
C1584 C1587 1.526 . S
C1585 H1569 0.959 . S
C1585 H1570 0.959 . S
C1585 H1571 0.961 . S
C1585 C1584 1.502 . S
C1586 H1572 0.960 . S
C1586 H1573 0.961 . S
C1586 H1574 0.959 . S
C1586 C1584 1.561 . S
C1587 C1584 1.526 . S
C1587 C1588 1.396 . S
C1587 C1592 1.390 . S
C1588 C1582 1.465 . S
C1588 C1587 1.396 . S
C1588 C1589 1.399 . S
C1589 H1575 0.929 . S
C1589 C1588 1.399 . S
C1589 C1590 1.385 . S
C1590 H1576 0.931 . S
C1590 C1589 1.385 . S
C1590 C1591 1.386 . S
C1591 C1590 1.386 . S
C1591 C1592 1.383 . S
C1592 H1577 0.930 . S
C1592 C1587 1.390 . S
C1592 C1591 1.383 . S
H1593 C1605 0.930 . S
H1594 C1607 0.930 . S
H1595 C1608 0.930 . S
H1596 C1612 0.959 . S
H1597 C1612 0.959 . S
H1598 C1612 0.961 . S
H1599 C1613 0.960 . S
H1600 C1613 0.961 . S
H1601 C1613 0.959 . S
H1602 C1616 0.929 . S
H1603 C1617 0.931 . S
H1604 C1619 0.930 . S
C1605 H1593 0.930 . S
C1605 C1606 1.399 . S
C1605 C1610 1.399 . S
C1606 C1605 1.399 . S
C1606 C1607 1.376 . S
C1607 H1594 0.930 . S
C1607 C1606 1.376 . S
C1607 C1608 1.388 . S
C1608 H1595 0.930 . S
C1608 C1607 1.388 . S
C1608 C1609 1.390 . S
C1609 C1608 1.390 . S
C1609 C1610 1.394 . S
C1609 C1615 1.465 . S
C1610 C1605 1.399 . S
C1610 C1609 1.394 . S
C1610 C1611 1.516 . S
C1611 C1610 1.516 . S
C1611 C1612 1.502 . S
C1611 C1613 1.561 . S
C1611 C1614 1.526 . S
C1612 H1596 0.959 . S
C1612 H1597 0.959 . S
C1612 H1598 0.961 . S
C1612 C1611 1.502 . S
C1613 H1599 0.960 . S
C1613 H1600 0.961 . S
C1613 H1601 0.959 . S
C1613 C1611 1.561 . S
C1614 C1611 1.526 . S
C1614 C1615 1.396 . S
C1614 C1619 1.390 . S
C1615 C1609 1.465 . S
C1615 C1614 1.396 . S
C1615 C1616 1.399 . S
C1616 H1602 0.929 . S
C1616 C1615 1.399 . S
C1616 C1617 1.385 . S
C1617 H1603 0.931 . S
C1617 C1616 1.385 . S
C1617 C1618 1.389 . S
C1618 C1617 1.389 . S
C1618 C1619 1.387 . S
C1619 H1604 0.930 . S
C1619 C1614 1.390 . S
C1619 C1618 1.387 . S
C997 C913 1.163 . S
C985 C51 1.160 . S
C1012 C125 1.618 . S
C1024 C473 1.638 . S
C1039 C217 2.582 . S
C1051 C561 2.615 . S
C1066 C291 1.857 . S
C1078 C640 1.812 . S
C1105 C737 0.666 . S
C1093 C347 0.771 . S
C1120 C421 0.953 . S
C1132 C816 0.959 . S
C1147 C143 2.605 . S
C1159 C581 2.621 . S
C1174 C199 1.431 . S
C1186 C677 1.392 . S
C1201 C273 0.746 . S
C1213 C757 0.647 . S
C1240 C853 1.562 . S
C1228 C365 1.527 . S
C1267 C933 2.213 . S
C1255 C439 2.201 . S
C1294 C493 2.480 . S
C1282 C69 2.510 . S
C1309 C63 1.288 . S
C1321 C589 1.405 . S
C1336 C137 1.407 . S
C1348 C669 1.480 . S
C1375 C765 1.299 . S
C1363 C187 1.237 . S
C1390 C261 1.365 . S
C1402 C845 1.412 1_556 S
C1429 C941 1.298 . S
C1417 C359 1.158 . S
C1456 C501 1.045 . S
C1444 C433 0.978 . S
C1483 C904 1.628 . S
C1471 C113 1.639 . S
C1498 C211 1.304 . S
C1510 C464 1.354 . S
C1537 C552 1.464 . S
C1525 C285 1.369 . S
C1552 C335 1.162 . S
C1564 C649 1.273 . S
C1579 C409 1.348 . S
C1591 C728 1.328 1_554 S
C1606 C39 1.730 . S
C1618 C825 1.713 . S
