# Generated by pormake.
# Topology anh, (6,3)-cn, num edge types: 1
# Building blocks:
#     Node 0, Type 0, BuildingBlock: BETDAH_clean_sbu_0, # of connection points: 6
#     Node 1, Type 0, BuildingBlock: BETDAH_clean_sbu_0, # of connection points: 6
#     Node 2, Type 0, BuildingBlock: BETDAH_clean_sbu_0, # of connection points: 6
#     Node 3, Type 1, BuildingBlock: MIDCAF_clean_linker_0, # of connection points: 3
#     Node 4, Type 1, BuildingBlock: MIDCAF_clean_linker_0, # of connection points: 3
#     Node 5, Type 1, BuildingBlock: MIDCAF_clean_linker_0, # of connection points: 3
#     Node 6, Type 1, BuildingBlock: MIDCAF_clean_linker_0, # of connection points: 3
#     Node 7, Type 1, BuildingBlock: MIDCAF_clean_linker_0, # of connection points: 3
#     Node 8, Type 1, BuildingBlock: MIDCAF_clean_linker_0, # of connection points: 3
#     Edge 9, Type (0, 1), BuildingBlock: EZIPEK_clean_linker_0, # of connection points: 2
#     Edge 10, Type (0, 1), BuildingBlock: EZIPEK_clean_linker_0, # of connection points: 2
#     Edge 11, Type (0, 1), BuildingBlock: EZIPEK_clean_linker_0, # of connection points: 2
#     Edge 12, Type (0, 1), BuildingBlock: EZIPEK_clean_linker_0, # of connection points: 2
#     Edge 13, Type (0, 1), BuildingBlock: EZIPEK_clean_linker_0, # of connection points: 2
#     Edge 14, Type (0, 1), BuildingBlock: EZIPEK_clean_linker_0, # of connection points: 2
#     Edge 15, Type (0, 1), BuildingBlock: EZIPEK_clean_linker_0, # of connection points: 2
#     Edge 16, Type (0, 1), BuildingBlock: EZIPEK_clean_linker_0, # of connection points: 2
#     Edge 17, Type (0, 1), BuildingBlock: EZIPEK_clean_linker_0, # of connection points: 2
#     Edge 18, Type (0, 1), BuildingBlock: EZIPEK_clean_linker_0, # of connection points: 2
#     Edge 19, Type (0, 1), BuildingBlock: EZIPEK_clean_linker_0, # of connection points: 2
#     Edge 20, Type (0, 1), BuildingBlock: EZIPEK_clean_linker_0, # of connection points: 2
#     Edge 21, Type (0, 1), BuildingBlock: EZIPEK_clean_linker_0, # of connection points: 2
#     Edge 22, Type (0, 1), BuildingBlock: EZIPEK_clean_linker_0, # of connection points: 2
#     Edge 23, Type (0, 1), BuildingBlock: EZIPEK_clean_linker_0, # of connection points: 2
#     Edge 24, Type (0, 1), BuildingBlock: EZIPEK_clean_linker_0, # of connection points: 2
#     Edge 25, Type (0, 1), BuildingBlock: EZIPEK_clean_linker_0, # of connection points: 2
#     Edge 26, Type (0, 1), BuildingBlock: EZIPEK_clean_linker_0, # of connection points: 2
# Relax obj value: 0.214
# Max RMSD: 0.227
# Mean RMSD: 0.166
data_MOF--net-anh--node1-BETDAH_clean_sbu_0--node2-MIDCAF_clean_linker_0--edge1-EZIPEK_clean_linker_0
_symmetry_space_group_name_H-M    P1
_symmetry_Int_Tables_number       1
_symmetry_cell_setting            triclinic
loop_
_symmetry_equiv_pos_as_xyz
'x, y, z'
_cell_length_a     30.324949
_cell_length_b     35.484342
_cell_length_c     52.051639
_cell_angle_alpha  91.981397
_cell_angle_beta   89.786862
_cell_angle_gamma 130.45413
loop_
_atom_site_label
_atom_site_type_symbol
_atom_site_fract_x
_atom_site_fract_y
_atom_site_fract_z
_atom_type_partial_charge
Ho0 Ho 0.14651 0.55757 0.14444 0.0
Ho1 Ho 0.07878 0.58994 0.1496 0.0
C2 C 0.21725 0.67619 0.14559 0.0
C3 C 0.20896 0.53413 0.13295 0.0
C4 C 0.20517 0.49211 0.139 0.0
C5 C 0.23396 0.48127 0.12369 0.0
C6 C 0.2313 0.44174 0.12936 0.0
C7 C 0.19983 0.41261 0.15041 0.0
C8 C 0.17033 0.42295 0.16563 0.0
C9 C 0.17278 0.46248 0.15986 0.0
C10 C 0.11319 0.55515 0.19329 0.0
C11 C 1.00846 0.47292 0.14918 0.0
C12 C 1.02417 0.61987 0.1637 0.0
C13 C 0.96133 0.58974 0.16763 0.0
C14 C 0.93784 0.56993 0.1918 0.0
C15 C 0.87811 0.53242 0.19426 0.0
C16 C 0.84122 0.515 0.17269 0.0
C17 C 0.86392 0.53722 0.14908 0.0
C18 C 0.92352 0.57438 0.14654 0.0
C19 C 0.07901 0.55908 0.10094 0.0
O20 O 0.22045 0.64069 0.14398 0.0
O21 O 0.16691 0.66583 0.14719 0.0
O22 O 0.16772 0.52364 0.11776 0.0
O23 O 0.22085 0.5639 0.15244 0.0
O24 O 0.1146 0.52248 0.18269 0.0
O25 O 0.13185 0.58869 0.17763 0.0
O26 O 1.00979 0.50884 0.15839 0.0
O27 O 0.0551 0.48354 0.13876 0.0
O28 O 1.04035 0.62224 0.14003 0.0
O29 O 1.05065 0.61267 0.17985 0.0
O30 O 1.03417 0.54925 0.11173 0.0
O31 O 0.12201 0.5862 0.1163 0.0
H32 H 0.25883 0.50359 0.10748 0.0
H33 H 0.2545 0.4342 0.11753 0.0
H34 H 0.14617 0.4009 0.18201 0.0
H35 H 0.14993 0.4702 0.17179 0.0
H36 H 0.96581 0.58156 0.20851 0.0
H37 H 0.86089 0.51587 0.21268 0.0
H38 H 0.83559 0.52434 0.13234 0.0
H39 H 0.94003 0.58914 0.12775 0.0
Ho40 Ho 0.6501 0.04153 0.46498 0.0
Ho41 Ho 0.57898 0.07074 0.46506 0.0
C42 C 0.51037 0.95317 0.46336 0.0
C43 C 0.70142 1.00604 0.47109 0.0
C44 C 0.68735 0.96034 0.47951 0.0
C45 C 0.6463 0.93176 0.49847 0.0
C46 C 0.63395 0.88831 0.50592 0.0
C47 C 0.66205 0.87286 0.49429 0.0
C48 C 0.70211 0.90094 0.475 0.0
C49 C 0.71476 0.94446 0.46773 0.0
C50 C 0.63485 0.06259 0.41762 0.0
C51 C 0.71704 0.15705 0.46531 0.0
C52 C 0.51556 0.09475 0.4587 0.0
C53 C 0.51941 0.13645 0.46804 0.0
C54 C 0.50609 0.15792 0.45109 0.0
C55 C 0.51407 0.20013 0.45889 0.0
C56 C 0.53509 0.22113 0.48381 0.0
C57 C 0.54778 0.1994 0.50089 0.0
C58 C 0.54033 0.15749 0.49302 0.0
C59 C 0.62075 0.07569 0.51258 0.0
O60 O 0.56146 0.96513 0.46665 0.0
O61 O 0.50604 0.98766 0.46068 0.0
O62 O 0.67627 1.00163 0.44956 0.0
O63 O 0.70251 0.03412 0.48857 0.0
O64 O 0.68381 0.07835 0.42714 0.0
O65 O 0.59669 0.03804 0.43427 0.0
O66 O 0.6676 0.14282 0.45588 0.0
O67 O 0.71861 0.12384 0.47486 0.0
O68 O 0.50494 0.06364 0.47575 0.0
O69 O 0.55623 0.1067 0.44299 0.0
O70 O 0.61705 0.1075 0.50441 0.0
O71 O 0.6004 0.0421 0.49539 0.0
H72 H 0.6241 0.9431 0.50754 0.0
H73 H 0.60289 0.86693 0.52084 0.0
H74 H 0.7241 0.88946 0.46586 0.0
H75 H 0.74611 0.96585 0.45289 0.0
H76 H 0.49056 0.14255 0.43166 0.0
H77 H 0.50429 0.21665 0.44549 0.0
H78 H 0.56433 0.21542 0.52015 0.0
H79 H 0.55178 0.14206 0.50631 0.0
Ho80 Ho 0.59719 0.56523 0.84622 0.0
Ho81 Ho 0.51795 0.4574 0.83707 0.0
C82 C 0.45554 0.50847 0.84334 0.0
C83 C 0.66895 0.66003 0.83977 0.0
C84 C 0.66244 0.697 0.83449 0.0
C85 C 0.70073 0.73492 0.81767 0.0
C86 C 0.69229 0.76741 0.81015 0.0
C87 C 0.64542 0.76275 0.81937 0.0
C88 C 0.60759 0.72537 0.8366 0.0
C89 C 0.61575 0.6925 0.84395 0.0
C90 C 0.54814 0.51339 0.88937 0.0
C91 C 0.66114 0.5156 0.84288 0.0
C92 C 0.46702 0.36375 0.8343 0.0
C93 C 0.48625 0.33458 0.83187 0.0
C94 C 0.45644 0.28986 0.84449 0.0
C95 C 0.46995 0.25917 0.83998 0.0
C96 C 0.51307 0.27251 0.82253 0.0
C97 C 0.54455 0.31818 0.81076 0.0
C98 C 0.5315 0.34905 0.81546 0.0
C99 C 0.53724 0.50803 0.79495 0.0
O100 O 0.51011 0.55059 0.83997 0.0
O101 O 0.44859 0.46708 0.84569 0.0
O102 O 0.65473 0.64081 0.86244 0.0
O103 O 0.65032 0.62679 0.82125 0.0
O104 O 0.55811 0.55417 0.88527 0.0
O105 O 0.56743 0.50401 0.87115 0.0
O106 O 0.60749 0.47473 0.83516 0.0
O107 O 0.66734 0.55585 0.84976 0.0
O108 O 0.47635 0.38945 0.81455 0.0
O109 O 0.47817 0.38826 0.85606 0.0
O110 O 0.48694 0.46844 0.80164 0.0
O111 O 0.57486 0.51879 0.81129 0.0
H112 H 0.73654 0.7387 0.80985 0.0
H113 H 0.72193 0.79584 0.79683 0.0
H114 H 0.57111 0.72104 0.84392 0.0
H115 H 0.585 0.66306 0.8566 0.0
H116 H 0.42153 0.27796 0.85724 0.0
H117 H 0.44534 0.22415 0.84933 0.0
H118 H 0.57824 0.32932 0.7974 0.0
H119 H 0.55564 0.38351 0.80562 0.0
C120 C 0.41458 0.91182 0.17645 0.0
C121 C 0.42017 0.88767 0.15652 0.0
C122 C 0.47288 0.91507 0.14334 0.0
C123 C 0.51994 0.96496 0.15091 0.0
H124 H 0.65664 0.17126 0.14875 0.0
H125 H 0.73902 0.25694 0.13713 0.0
H126 H 0.85299 0.25614 0.18579 0.0
H127 H 0.77139 0.17185 0.19777 0.0
H128 H 0.6957 0.15161 0.25942 0.0
H129 H 0.69819 0.14785 0.30634 0.0
H130 H 0.54056 0.99526 0.30166 0.0
H131 H 0.53712 0.99835 0.25504 0.0
H132 H 0.4558 0.97755 0.20031 0.0
H133 H 0.37463 0.89178 0.18692 0.0
H134 H 0.47841 0.89725 0.12793 0.0
H135 H 0.56097 0.9842 0.14146 0.0
N136 N 0.61116 0.07652 0.17225 0.0
N137 N 0.65852 0.11675 0.21222 0.0
N138 N 0.56946 0.03621 0.21101 0.0
C139 C 0.65736 0.11769 0.18612 0.0
C140 C 0.61477 0.07633 0.22482 0.0
C141 C 0.5668 0.03532 0.18496 0.0
C142 C 0.70737 0.16442 0.17406 0.0
C143 C 0.69958 0.1889 0.15634 0.0
C144 C 0.74666 0.23806 0.14982 0.0
C145 C 0.8026 0.26341 0.1606 0.0
C146 C 0.81063 0.23778 0.17717 0.0
C147 C 0.76378 0.18933 0.18394 0.0
C148 C 0.61632 0.07524 0.25332 0.0
C149 C 0.6614 0.11728 0.26833 0.0
C150 C 0.6629 0.11531 0.29513 0.0
C151 C 0.61957 0.07126 0.30732 0.0
C152 C 0.57431 0.02954 0.29252 0.0
C153 C 0.57258 0.03149 0.26584 0.0
C154 C 0.51512 0.98814 0.17191 0.0
C155 C 0.4612 0.96113 0.18402 0.0
C156 C 0.59724 0.40844 0.54969 0.0
C157 C 0.57926 0.39703 0.5238 0.0
C158 C 0.57155 0.42641 0.51074 0.0
C159 C 0.58078 0.46637 0.52369 0.0
H160 H 0.62044 0.60607 0.51461 0.0
H161 H 0.63079 0.67319 0.49474 0.0
H162 H 0.61279 0.71965 0.56874 0.0
H163 H 0.60246 0.65346 0.58877 0.0
H164 H 0.60308 0.61149 0.6383 0.0
H165 H 0.58615 0.60266 0.68354 0.0
H166 H 0.58456 0.48019 0.68116 0.0
H167 H 0.60183 0.48925 0.63596 0.0
H168 H 0.61901 0.45525 0.58279 0.0
H169 H 0.60338 0.38608 0.55999 0.0
H170 H 0.55758 0.4179 0.49071 0.0
H171 H 0.57348 0.48792 0.51333 0.0
N172 N 0.6052 0.55129 0.55229 0.0
N173 N 0.60714 0.58534 0.59218 0.0
N174 N 0.60192 0.51667 0.59065 0.0
C175 C 0.60782 0.58605 0.56612 0.0
C176 C 0.60434 0.55098 0.60461 0.0
C177 C 0.6024 0.51649 0.56455 0.0
C178 C 0.61107 0.62448 0.55334 0.0
C179 C 0.61822 0.6303 0.52663 0.0
C180 C 0.62401 0.66847 0.51522 0.0
C181 C 0.62246 0.70107 0.53037 0.0
C182 C 0.61397 0.69467 0.55682 0.0
C183 C 0.60831 0.65682 0.5682 0.0
C184 C 0.59933 0.54858 0.63293 0.0
C185 C 0.59652 0.58114 0.64728 0.0
C186 C 0.58421 0.57459 0.67344 0.0
C187 C 0.57058 0.53334 0.68577 0.0
C188 C 0.58365 0.50655 0.67208 0.0
C189 C 0.59584 0.51288 0.64595 0.0
C190 C 0.59721 0.47708 0.54993 0.0
C191 C 0.60599 0.44796 0.56266 0.0
C192 C 0.87009 0.48821 0.86888 0.0
C193 C 0.86769 0.51342 0.84897 0.0
C194 C 0.91685 0.53715 0.83244 0.0
C195 C 0.96446 0.53673 0.83613 0.0
H196 H 0.14743 0.51073 0.81797 0.0
H197 H 0.22569 0.50686 0.81051 0.0
H198 H 0.25512 0.51666 0.89188 0.0
H199 H 0.17892 0.51922 0.89943 0.0
H200 H 0.15439 0.55158 0.93929 0.0
H201 H 0.15923 0.56072 0.98621 0.0
H202 H 1.00517 0.54381 0.98524 0.0
H203 H 0.99969 0.53471 0.93823 0.0
H204 H 0.91429 0.46819 0.88876 0.0
H205 H 0.83559 0.46932 0.88261 0.0
H206 H 0.91936 0.55733 0.81656 0.0
H207 H 1.00091 0.55802 0.82349 0.0
N208 N 0.06045 0.51459 0.85402 0.0
N209 N 0.10772 0.52969 0.89392 0.0
N210 N 1.02967 0.52831 0.89264 0.0
C211 C 0.10491 0.52004 0.8682 0.0
C212 C 0.0716 0.53384 0.90625 0.0
C213 C 1.02179 0.51899 0.86679 0.0
C214 C 0.1529 0.51545 0.85964 0.0
C215 C 0.16974 0.51178 0.83452 0.0
C216 C 0.21622 0.50981 0.83018 0.0
C217 C 0.24988 0.5114 0.85049 0.0
C218 C 0.23266 0.51502 0.87518 0.0
C219 C 0.18702 0.51671 0.87946 0.0
C220 C 0.07643 0.54213 0.93478 0.0
C221 C 0.12156 0.55003 0.94892 0.0
C222 C 0.12457 0.55537 0.97579 0.0
C223 C 0.08253 0.55284 0.98918 0.0
C224 C 1.03806 0.54592 0.97524 0.0
C225 C 1.03507 0.54071 0.94833 0.0
C226 C 0.9665 0.51157 0.85642 0.0
C227 C 0.91668 0.48733 0.87234 0.0
C228 C 0.31113 0.71207 0.4398 0.0
C229 C 0.30477 0.74136 0.45527 0.0
C230 C 0.24973 0.71888 0.46533 0.0
C231 C 0.20141 0.66888 0.45872 0.0
H232 H 1.049 0.47605 0.47413 0.0
H233 H 0.96672 0.39225 0.48835 0.0
H234 H 0.88635 0.35319 0.41309 0.0
H235 H 0.96619 0.43531 0.39892 0.0
H236 H 1.03946 0.48139 0.35119 0.0
H237 H 1.04306 0.48595 0.30434 0.0
H238 H 0.19429 0.641 0.31137 0.0
H239 H 0.19164 0.63706 0.35821 0.0
H240 H 0.26925 0.64212 0.4199 0.0
H241 H 0.35283 0.7283 0.43175 0.0
H242 H 0.24356 0.74072 0.47723 0.0
H243 H 0.15891 0.65365 0.4652 0.0
N244 N 0.11072 0.5523 0.43951 0.0
N245 N 0.06892 0.51482 0.39853 0.0
N246 N 0.15699 0.59574 0.40183 0.0
C247 C 0.0664 0.51175 0.42456 0.0
C248 C 0.1136 0.55637 0.38702 0.0
C249 C 0.15642 0.59463 0.42786 0.0
C250 C 1.01523 0.46308 0.43525 0.0
C251 C 1.0135 0.44987 0.46072 0.0
C252 C 0.96646 0.40184 0.46886 0.0
C253 C 0.92023 0.36607 0.45171 0.0
C254 C 0.92129 0.37973 0.42667 0.0
C255 C 0.96762 0.4272 0.41861 0.0
C256 C 0.11532 0.55884 0.35857 0.0
C257 C 0.07358 0.51652 0.34286 0.0
C258 C 0.07553 0.51898 0.31608 0.0
C259 C 0.11905 0.56375 0.30451 0.0
C260 C 0.16056 0.60611 0.32002 0.0
C261 C 0.15887 0.60367 0.34679 0.0
C262 C 0.20736 0.6405 0.44194 0.0
C263 C 0.26322 0.66253 0.43321 0.0
C264 C 0.59529 0.16475 0.76253 0.0
C265 C 0.56558 0.14931 0.7857 0.0
C266 C 0.54941 0.10621 0.79646 0.0
C267 C 0.56198 0.07852 0.78391 0.0
H268 H 0.5947 0.97757 0.79362 0.0
H269 H 0.60114 0.91967 0.81369 0.0
H270 H 0.6329 0.88356 0.73991 0.0
H271 H 0.62633 0.94083 0.7196 0.0
H272 H 0.61403 0.98113 0.66824 0.0
H273 H 0.61824 0.98838 0.62136 0.0
H274 H 0.62687 0.11419 0.63009 0.0
H275 H 0.62259 0.1075 0.67669 0.0
H276 H 0.62909 0.1495 0.73171 0.0
H277 H 0.608 0.19779 0.75388 0.0
H278 H 0.52619 0.09358 0.8143 0.0
H279 H 0.54803 0.04493 0.79234 0.0
N280 N 0.59964 0.02838 0.75667 0.0
N281 N 0.61348 1.00531 0.71649 0.0
N282 N 0.60535 0.06655 0.71937 0.0
C283 C 0.60741 1.00009 0.74242 0.0
C284 C 0.61243 0.03843 0.7048 0.0
C285 C 0.59883 0.06192 0.7452 0.0
C286 C 0.61005 0.96421 0.7549 0.0
C287 C 0.60293 0.9573 0.78158 0.0
C288 C 0.60659 0.92418 0.79314 0.0
C289 C 0.61767 0.89738 0.77831 0.0
C290 C 0.6244 0.90387 0.75173 0.0
C291 C 0.62059 0.93677 0.74016 0.0
C292 C 0.61771 0.04357 0.67639 0.0
C293 C 0.61721 0.01057 0.66025 0.0
C294 C 0.61961 0.0146 0.63345 0.0
C295 C 0.62285 0.05181 0.62234 0.0
C296 C 0.62443 0.08527 0.63833 0.0
C297 C 0.62183 0.08121 0.66502 0.0
C298 C 0.58998 0.09304 0.76015 0.0
C299 C 0.60707 0.13687 0.74984 0.0
C300 C 0.61658 0.36757 0.11511 0.0
C301 C 0.60991 0.3644 0.14179 0.0
C302 C 0.55429 0.33636 0.15192 0.0
C303 C 0.50665 0.31678 0.13561 0.0
H304 H 0.33447 0.25928 0.13687 0.0
H305 H 0.26954 0.26371 0.16243 0.0
H306 H 0.25303 0.32996 0.09948 0.0
H307 H 0.31434 0.32344 0.07357 0.0
H308 H 0.39124 0.365 0.02986 0.0
H309 H 0.4224 0.41216 0.99108 0.0
H310 H 0.57372 0.42497 0.98894 0.0
H311 H 0.54338 0.37798 0.02812 0.0
H312 H 0.57657 0.35384 0.07845 0.0
H313 H 0.65928 0.38859 0.10702 0.0
H314 H 0.54858 0.33324 0.17251 0.0
H315 H 0.46488 0.29872 0.1441 0.0
N316 N 0.41813 0.30054 0.10337 0.0
N317 N 0.39544 0.32212 0.06679 0.0
N318 N 0.48295 0.33774 0.06937 0.0
C319 C 0.38073 0.3021 0.09027 0.0
C320 C 0.44624 0.33987 0.05613 0.0
C321 C 0.46914 0.31786 0.09294 0.0
C322 C 0.33106 0.29239 0.10342 0.0
C323 C 0.31553 0.27338 0.12823 0.0
C324 C 0.27857 0.2759 0.14288 0.0
C325 C 0.25857 0.29895 0.13313 0.0
C326 C 0.26912 0.313 0.10753 0.0
C327 C 0.30445 0.30929 0.09272 0.0
C328 C 0.46452 0.36721 0.03206 0.0
C329 C 0.43122 0.37774 0.02128 0.0
C330 C 0.44919 0.40516 -0.00075 0.0
C331 C 0.50056 0.42239 0.98743 0.0
C332 C 0.53428 0.4124 -0.00193 0.0
C333 C 0.51653 0.38517 0.02029 0.0
C334 C 0.51433 0.32492 0.10904 0.0
C335 C 0.56915 0.34777 0.09883 0.0
C336 C 0.16046 0.3251 0.14527 0.0
C337 C 0.20164 0.37333 0.15677 0.0
C338 C 0.26856 0.35891 0.16474 0.0
C339 C 0.23194 0.31422 0.14944 0.0
N340 N 0.13648 0.24661 0.133 0.0
N341 N 0.28765 0.43143 0.18322 0.0
C342 C 0.17504 0.29427 0.14272 0.0
C343 C 0.25242 0.38788 0.16895 0.0
N344 N 0.10966 0.31058 0.13531 0.0
N345 N 0.32101 0.3767 0.1742 0.0
H346 H 0.27684 0.45364 0.18692 0.0
H347 H 0.32633 0.4441 0.19195 0.0
H348 H 0.33712 0.35829 0.17209 0.0
H349 H 0.33712 0.35829 0.17209 0.0
H350 H 0.07992 0.27793 0.12438 0.0
H351 H 0.09782 0.33229 0.13769 0.0
H352 H 0.09314 0.22819 0.12869 0.0
H353 H 0.14759 0.22427 0.13118 0.0
C354 C 0.77065 0.24914 0.47313 0.0
C355 C 0.77153 0.21103 0.46449 0.0
C356 C 0.87473 0.27606 0.45372 0.0
C357 C 0.8711 0.31349 0.459 0.0
N358 N 0.81362 0.33542 0.4716 0.0
N359 N 0.82383 0.18953 0.4429 0.0
C360 C 0.81847 0.29989 0.46817 0.0
C361 C 0.82367 0.22485 0.4541 0.0
N362 N 0.72511 0.23716 0.48709 0.0
N363 N 0.92729 0.28948 0.44831 0.0
H364 H 0.78785 0.15193 0.44203 0.0
H365 H 0.85814 0.19783 0.43228 0.0
H366 H 0.96515 0.32637 0.4473 0.0
H367 H 0.93441 0.26444 0.44716 0.0
H368 H 0.72429 0.26339 0.49605 0.0
H369 H 0.69055 0.20104 0.49203 0.0
H370 H 0.77447 0.32734 0.47506 0.0
H371 H 0.84829 0.37301 0.46932 0.0
C372 C 0.67611 0.84798 0.81765 0.0
C373 C 0.63578 0.79667 0.81041 0.0
C374 C 0.57864 0.81064 0.78584 0.0
C375 C 0.62271 0.86261 0.79046 0.0
N376 N 0.71766 0.93149 0.80786 0.0
N377 N 0.55283 0.73003 0.78447 0.0
C378 C 0.67255 0.8815 0.80568 0.0
C379 C 0.58795 0.77814 0.79374 0.0
N380 N 0.71697 0.86452 0.83651 0.0
N381 N 0.52725 0.79222 0.77441 0.0
H382 H 0.55839 0.70512 0.78949 0.0
H383 H 0.52127 0.71589 0.77009 0.0
H384 H 0.51885 0.81484 0.76847 0.0
H385 H 0.49117 0.75456 0.77298 0.0
H386 H 0.74372 0.90052 0.84452 0.0
H387 H 0.72048 0.84103 0.84589 0.0
H388 H 0.75774 0.94721 0.8162 0.0
H389 H 0.71686 0.95727 0.79941 0.0
C390 C 0.75862 0.42381 0.16722 0.0
C391 C 0.77873 0.47188 0.17389 0.0
C392 C 0.68195 0.44409 0.16711 0.0
C393 C 0.66259 0.39693 0.15849 0.0
N394 N 0.67591 0.33716 0.15696 0.0
N395 N 0.75821 0.52404 0.18824 0.0
C396 C 0.69885 0.38514 0.161 0.0
C397 C 0.7396 0.48052 0.17676 0.0
N398 N 0.79726 0.41609 0.16553 0.0
N399 N 0.64689 0.45536 0.16419 0.0
H400 H 0.80069 0.55143 0.1952 0.0
H401 H 0.73067 0.53101 0.19306 0.0
H402 H 0.60401 0.42969 0.15754 0.0
H403 H 0.66114 0.49097 0.16698 0.0
H404 H 0.78686 0.38354 0.15803 0.0
H405 H 0.84091 0.44334 0.17092 0.0
H406 H 0.69869 0.32502 0.16017 0.0
H407 H 0.63202 0.30854 0.15241 0.0
C408 C 0.44298 0.86787 0.48247 0.0
C409 C 0.45634 0.8992 0.46198 0.0
C410 C 0.36529 0.82865 0.43952 0.0
C411 C 0.35498 0.79634 0.45872 0.0
N412 N 0.38743 0.78392 0.49708 0.0
N413 N 0.43489 0.90671 0.4188 0.0
C414 C 0.39483 0.81567 0.47983 0.0
C415 C 0.41848 0.87891 0.43999 0.0
N416 N 0.47496 0.88824 0.50492 0.0
N417 N 0.32383 0.81136 0.42085 0.0
H418 H 0.47407 0.94291 0.41792 0.0
H419 H 0.41249 0.89246 0.4012 0.0
H420 H 0.28503 0.77473 0.41952 0.0
H421 H 0.32556 0.83417 0.40804 0.0
H422 H 0.46391 0.86857 0.52153 0.0
H423 H 0.50994 0.92603 0.50773 0.0
H424 H 0.41838 0.79442 0.51109 0.0
H425 H 0.35179 0.74602 0.49628 0.0
C426 C 0.4857 0.19841 0.79668 0.0
C427 C 0.52322 0.2376 0.81522 0.0
C428 C 0.58303 0.21339 0.81755 0.0
C429 C 0.54833 0.17697 0.79748 0.0
N430 N 0.46767 0.13469 0.76731 0.0
N431 N 0.60769 0.28371 0.84326 0.0
C432 C 0.4996 0.16919 0.78705 0.0
C433 C 0.57176 0.24523 0.82577 0.0
N434 N 0.43652 0.18906 0.78838 0.0
N435 N 0.62649 0.21713 0.82881 0.0
H436 H 0.59888 0.30584 0.85069 0.0
H437 H 0.64736 0.29533 0.84975 0.0
H438 H 0.63685 0.19544 0.82273 0.0
H439 H 0.65028 0.23942 0.84508 0.0
H440 H 0.40372 0.15788 0.77725 0.0
H441 H 0.42644 0.21121 0.79379 0.0
H442 H 0.43628 0.13105 0.75646 0.0
H443 H 0.47419 0.11051 0.76084 0.0
C444 C 0.69556 0.83434 0.51739 0.0
C445 C 0.6516 0.8283 0.50296 0.0
C446 C 0.5877 0.73812 0.50634 0.0
C447 C 0.63325 0.74416 0.51916 0.0
N448 N 0.73382 0.79654 0.53254 0.0
N449 N 0.55968 0.77485 0.47987 0.0
C450 C 0.68825 0.79189 0.52333 0.0
C451 C 0.59866 0.78024 0.49632 0.0
N452 N 0.74327 0.88053 0.52633 0.0
N453 N 0.53358 0.69242 0.50446 0.0
H454 H 0.56621 0.80489 0.47224 0.0
H455 H 0.52314 0.74071 0.47217 0.0
H456 H 0.52434 0.66059 0.51107 0.0
H457 H 0.49702 0.68656 0.49801 0.0
H458 H 0.77364 0.88669 0.53929 0.0
H459 H 0.75 0.91262 0.52267 0.0
H460 H 0.7764 0.82993 0.53339 0.0
H461 H 0.73006 0.76619 0.53717 0.0
C462 C 0.77458 0.55851 0.83959 0.0
C463 C 0.71484 0.51551 0.84405 0.0
C464 C 0.75465 0.47034 0.84716 0.0
C465 C 0.81493 0.51444 0.84626 0.0
N466 N 0.87822 0.60351 0.84673 0.0
N467 N 0.65543 0.43177 0.85854 0.0
C468 C 0.82328 0.55913 0.84384 0.0
C469 C 0.70738 0.47196 0.84951 0.0
N470 N 0.78573 0.59908 0.82988 0.0
N471 N 0.74117 0.42548 0.84457 0.0
H472 H 0.62166 0.43161 0.86255 0.0
H473 H 0.64851 0.40098 0.8652 0.0
H474 H 0.77248 0.42205 0.8417 0.0
H475 H 0.69875 0.3922 0.84209 0.0
H476 H 0.82648 0.6294 0.82365 0.0
H477 H 0.75314 0.59999 0.8251 0.0
H478 H 0.88738 0.63735 0.84811 0.0
H479 H 0.91389 0.60621 0.85059 0.0
C480 C 0.28229 0.76259 0.12798 0.0
C481 C 0.2721 0.72966 0.14678 0.0
C482 C 0.36536 0.79883 0.16826 0.0
C483 C 0.37195 0.83276 0.15137 0.0
N484 N 0.33423 0.84776 0.11633 0.0
N485 N 0.30039 0.71822 0.18707 0.0
C486 C 0.32982 0.81478 0.13145 0.0
C487 C 0.313 0.74819 0.1674 0.0
N488 N 0.24757 0.74372 0.10634 0.0
N489 N 0.40966 0.815 0.18501 0.0
H490 H 0.26232 0.68137 0.18757 0.0
H491 H 0.32509 0.73096 0.20405 0.0
H492 H 0.44829 0.85172 0.18632 0.0
H493 H 0.4104 0.79132 0.19589 0.0
H494 H 0.25578 0.76477 0.09068 0.0
H495 H 0.21324 0.70587 0.10302 0.0
H496 H 0.3017 0.83791 0.10349 0.0
H497 H 0.36915 0.88581 0.11782 0.0
C498 C 0.49871 0.26275 0.50187 0.0
C499 C 0.54519 0.26673 0.49198 0.0
C500 C 0.61129 0.35723 0.49868 0.0
C501 C 0.56627 0.35271 0.51092 0.0
N502 N 0.46828 0.30208 0.52582 0.0
N503 N 0.64623 0.31626 0.48194 0.0
C504 C 0.5101 0.30571 0.51279 0.0
C505 C 0.60163 0.31365 0.49052 0.0
N506 N 0.44362 0.21789 0.50061 0.0
N507 N 0.66296 0.40332 0.49461 0.0
H508 H 0.64035 0.28542 0.47475 0.0
H509 H 0.68961 0.34833 0.4832 0.0
H510 H 0.6717 0.43591 0.50078 0.0
H511 H 0.69567 0.40965 0.48353 0.0
H512 H 0.40681 0.21324 0.50479 0.0
H513 H 0.43398 0.18529 0.49365 0.0
H514 H 0.42875 0.26862 0.53069 0.0
H515 H 0.47425 0.33289 0.53314 0.0
C516 C 0.35379 0.47837 0.86161 0.0
C517 C 0.40156 0.50815 0.84441 0.0
C518 C 0.35216 0.54271 0.83198 0.0
C519 C 0.3015 0.50909 0.84713 0.0
N520 N 0.25271 0.43612 0.87184 0.0
N521 N 0.43447 0.56155 0.80872 0.0
C522 C 0.30244 0.47467 0.86058 0.0
C523 C 0.39714 0.53833 0.8285 0.0
N524 N 0.35822 0.45515 0.88045 0.0
N525 N 0.35939 0.58103 0.82147 0.0
H526 H 0.46468 0.55741 0.80444 0.0
H527 H 0.43083 0.57986 0.7948 0.0
H528 H 0.32945 0.58622 0.82366 0.0
H529 H 0.39759 0.61023 0.81289 0.0
H530 H 0.32885 0.43737 0.89527 0.0
H531 H 0.39489 0.45889 0.88311 0.0
H532 H 0.24751 0.40674 0.87949 0.0
H533 H 0.2145 0.43056 0.87083 0.0
C534 C 0.92967 0.40108 0.17606 0.0
C535 C 0.95406 0.41948 0.15156 0.0
C536 C 0.8791 0.3349 0.13241 0.0
C537 C 0.85219 0.31781 0.15662 0.0
N538 N 0.84416 0.33893 0.1999 0.0
N539 N 0.94266 0.4055 0.10554 0.0
C540 C 0.87511 0.35233 0.17792 0.0
C541 C 0.92611 0.38677 0.12946 0.0
N542 N 0.96015 0.42888 0.19786 0.0
N543 N 0.86118 0.30156 0.1124 0.0
H544 H 0.97451 0.44332 0.10275 0.0
H545 H 0.92067 0.38444 0.08869 0.0
H546 H 0.82711 0.26359 0.11379 0.0
H547 H 0.88313 0.31109 0.09518 0.0
H548 H 0.94708 0.41557 0.21628 0.0
H549 H 1.00179 0.46305 0.19742 0.0
H550 H 0.85591 0.36406 0.21507 0.0
H551 H 0.80358 0.30403 0.20185 0.0
C552 C 0.07332 0.51854 0.05893 0.0
C553 C 0.08411 0.55933 0.07244 0.0
C554 C 0.10112 0.59887 0.03139 0.0
C555 C 0.08382 0.55552 0.01789 0.0
N556 N 1.04489 0.47091 0.01865 0.0
N557 N 0.10301 0.63664 0.07163 0.0
C558 C 0.06773 0.51451 0.03163 0.0
C559 C 0.09665 0.59912 0.05868 0.0
N560 N 0.06987 0.48417 0.07212 0.0
N561 N 0.12347 0.64033 0.01817 0.0
H562 H 0.10216 0.63917 0.09162 0.0
H563 H 0.1054 0.66358 0.06256 0.0
H564 H 0.12717 0.64139 -0.00177 0.0
H565 H 0.14274 0.67476 0.02704 0.0
H566 H 0.06841 0.45657 0.0633 0.0
H567 H 0.07381 0.48603 0.09204 0.0
H568 H 1.02619 0.43803 0.02774 0.0
H569 H 1.03991 0.46632 -0.00133 0.0
C570 C 0.58434 0.06222 0.37844 0.0
C571 C 0.623 0.05689 0.38917 0.0
C572 C 0.65616 0.05737 0.34586 0.0
C573 C 0.62191 0.06766 0.33558 0.0
N574 N 0.55778 0.08497 0.3418 0.0
N575 N 0.67481 0.02743 0.38168 0.0
C576 C 0.58693 0.07121 0.35178 0.0
C577 C 0.65353 0.04865 0.37249 0.0
N578 N 0.54235 0.0551 0.39316 0.0
N579 N 0.692 0.0567 0.33021 0.0
H580 H 0.66681 0.0143 0.40017 0.0
H581 H 0.6931 0.01635 0.3702 0.0
H582 H 0.69318 0.06051 0.31039 0.0
H583 H 0.72365 0.05597 0.33705 0.0
H584 H 0.50983 0.05442 0.38601 0.0
H585 H 0.53477 0.04292 0.41178 0.0
H586 H 0.53728 0.09422 0.353 0.0
H587 H 0.55811 0.09124 0.32234 0.0
C588 C 0.54411 0.48099 0.7516 0.0
C589 C 0.5488 0.5169 0.7673 0.0
C590 C 0.54231 0.55079 0.72878 0.0
C591 C 0.54886 0.52101 0.71322 0.0
N592 N 0.50559 0.43517 0.71114 0.0
N593 N 0.5553 0.58824 0.77093 0.0
C594 C 0.53559 0.47924 0.72481 0.0
C595 C 0.549 0.55265 0.75592 0.0
N596 N 0.54801 0.44851 0.76213 0.0
N597 N 0.5182 0.5687 0.71842 0.0
H598 H 0.55999 0.59034 0.79089 0.0
H599 H 0.56086 0.61783 0.76329 0.0
H600 H 0.49982 0.55763 0.69987 0.0
H601 H 0.50779 0.5871 0.72929 0.0
H602 H 0.54903 0.42414 0.75092 0.0
H603 H 0.55634 0.44965 0.78167 0.0
H604 H 0.49012 0.40233 0.71943 0.0
H605 H 0.48931 0.43049 0.69258 0.0
C606 C 0.56854 0.03028 0.55277 0.0
C607 C 0.62118 0.06812 0.54051 0.0
C608 C 0.67537 0.09062 0.58128 0.0
C609 C 0.62252 0.05516 0.59386 0.0
N610 N 0.51819 0.99471 0.59274 0.0
N611 N 0.7232 0.13925 0.54362 0.0
C612 C 0.56894 0.02561 0.57986 0.0
C613 C 0.67419 0.09969 0.55493 0.0
N614 N 0.51789 0.99921 0.53863 0.0
N615 N 0.72681 0.11486 0.59447 0.0
H616 H 0.72428 0.14673 0.52433 0.0
H617 H 0.76171 0.16689 0.55369 0.0
H618 H 0.72916 0.10944 0.61382 0.0
H619 H 0.76703 0.13721 0.58585 0.0
H620 H 0.47995 0.96675 0.54546 0.0
H621 H 0.5139 1.00447 0.51949 0.0
H622 H 0.47739 0.97655 0.58446 0.0
H623 H 0.51672 0.9894 0.61241 0.0
C624 C 0.57479 0.51984 0.93627 0.0
C625 C 0.53597 0.49135 0.91498 0.0
C626 C 0.48113 0.41705 0.94046 0.0
C627 C 0.51535 0.44645 0.96245 0.0
N628 N 0.58998 0.52703 0.98256 0.0
N629 N 0.44482 0.41483 0.89905 0.0
C630 C 0.56092 0.49829 0.96075 0.0
C631 C 0.48719 0.4405 0.9177 0.0
N632 N 0.62603 0.56656 0.93294 0.0
N633 N 0.4437 0.36646 0.94105 0.0
H634 H 0.44761 0.43062 0.88214 0.0
H635 H 0.40498 0.37961 0.90137 0.0
H636 H 0.43828 0.34763 0.95734 0.0
H637 H 0.42242 0.34329 0.92467 0.0
H638 H 0.65854 0.58696 0.94714 0.0
H639 H 0.63852 0.58335 0.91528 0.0
H640 H 0.61925 0.56563 0.98292 0.0
H641 H 0.58145 0.51233 0.00071 0.0
C642 C 0.16566 0.57388 0.23515 0.0
C643 C 0.11806 0.56362 0.22168 0.0
C644 C 0.07784 0.56346 0.26272 0.0
C645 C 0.12059 0.5662 0.27604 0.0
N646 N 0.20157 0.56811 0.27501 0.0
N647 N 1.02531 0.54353 0.22274 0.0
C648 C 0.16379 0.5701 0.2623 0.0
C649 C 0.07337 0.55741 0.23548 0.0
N650 N 0.21334 0.58844 0.22206 0.0
N651 N 1.04228 0.56773 0.2761 0.0
H652 H 1.02081 0.53943 0.20284 0.0
H653 H 0.98807 0.53216 0.23193 0.0
H654 H 1.04441 0.57232 0.29609 0.0
H655 H 1.01444 0.57132 0.26731 0.0
H656 H 0.25166 0.60116 0.23111 0.0
H657 H 0.21681 0.59269 0.20225 0.0
H658 H 0.22965 0.5651 0.26566 0.0
H659 H 0.20158 0.56526 0.29489 0.0
loop_
_geom_bond_atom_site_label_1
_geom_bond_atom_site_label_2
_geom_bond_distance
_geom_bond_site_symmetry_2
_ccdc_geom_bond_type
Ho0 C3 2.811 . S
Ho0 O20 2.322 . S
Ho0 O22 2.378 . S
Ho0 O23 2.524 . S
Ho0 O24 2.381 . S
Ho0 O25 2.669 . S
Ho0 O27 2.346 1_455 S
Ho0 O31 2.305 . S
Ho1 C12 2.811 . S
Ho1 O21 2.346 1_655 S
Ho1 O25 2.305 1_655 S
Ho1 O26 2.322 . S
Ho1 O28 2.378 . S
Ho1 O29 2.524 . S
Ho1 O30 2.381 . S
Ho1 O31 2.669 1_655 S
C2 O20 1.259 . S
C2 O21 1.268 . S
C3 Ho0 2.811 . S
C3 C4 1.488 . S
C3 O22 1.215 . S
C3 O23 1.289 . S
C4 C3 1.488 . S
C4 C5 1.348 . S
C4 C9 1.413 . S
C5 C4 1.348 . S
C5 C6 1.442 . S
C5 H32 0.930 . S
C6 C5 1.442 . S
C6 C7 1.381 . S
C6 H33 0.931 . S
C7 C6 1.381 . S
C7 C8 1.321 . S
C8 C7 1.321 . S
C8 C9 1.403 . S
C8 H34 0.934 . S
C9 C4 1.413 . S
C9 C8 1.403 . S
C9 H35 0.930 . S
C10 O24 1.275 . S
C10 O25 1.256 . S
C11 O26 1.259 . S
C11 O27 1.268 . S
C12 Ho1 2.811 . S
C12 C13 1.488 . S
C12 O28 1.215 . S
C12 O29 1.289 . S
C13 C12 1.488 . S
C13 C14 1.348 . S
C13 C18 1.413 . S
C14 C13 1.348 . S
C14 C15 1.442 . S
C14 H36 0.930 . S
C15 C14 1.442 . S
C15 C16 1.381 . S
C15 H37 0.931 . S
C16 C15 1.381 . S
C16 C17 1.321 . S
C17 C16 1.321 . S
C17 C18 1.403 . S
C17 H38 0.934 . S
C18 C13 1.413 . S
C18 C17 1.403 . S
C18 H39 0.930 . S
C19 O30 1.275 1_455 S
C19 O31 1.256 . S
O20 Ho0 2.322 . S
O20 C2 1.259 . S
O21 Ho1 2.346 1_455 S
O21 C2 1.268 . S
O22 Ho0 2.378 . S
O22 C3 1.215 . S
O23 Ho0 2.524 . S
O23 C3 1.289 . S
O24 Ho0 2.381 . S
O24 C10 1.275 . S
O25 Ho0 2.669 . S
O25 Ho1 2.305 1_455 S
O25 C10 1.256 . S
O26 Ho1 2.322 . S
O26 C11 1.259 . S
O27 Ho0 2.346 1_655 S
O27 C11 1.268 . S
O28 Ho1 2.378 . S
O28 C12 1.215 . S
O29 Ho1 2.524 . S
O29 C12 1.289 . S
O30 Ho1 2.381 . S
O30 C19 1.275 1_655 S
O31 Ho0 2.305 . S
O31 Ho1 2.669 1_455 S
O31 C19 1.256 . S
H32 C5 0.930 . S
H33 C6 0.931 . S
H34 C8 0.934 . S
H35 C9 0.930 . S
H36 C14 0.930 . S
H37 C15 0.931 . S
H38 C17 0.934 . S
H39 C18 0.930 . S
Ho40 C43 2.811 . S
Ho40 O60 2.322 . S
Ho40 O62 2.378 . S
Ho40 O63 2.524 . S
Ho40 O64 2.381 . S
Ho40 O65 2.669 1_565 S
Ho40 O67 2.346 1_565 S
Ho40 O71 2.317 . S
Ho41 C52 2.811 . S
Ho41 O61 2.346 1_545 S
Ho41 O65 2.305 . S
Ho41 O66 2.322 . S
Ho41 O68 2.378 . S
Ho41 O69 2.524 . S
Ho41 O70 2.381 . S
Ho41 O71 2.650 1_545 S
C42 O60 1.259 . S
C42 O61 1.268 . S
C43 Ho40 2.811 . S
C43 C44 1.488 . S
C43 O62 1.215 . S
C43 O63 1.289 . S
C44 C43 1.488 . S
C44 C45 1.348 . S
C44 C49 1.413 . S
C45 C44 1.348 . S
C45 C46 1.442 . S
C45 H72 0.930 . S
C46 C45 1.442 . S
C46 C47 1.381 . S
C46 H73 0.931 . S
C47 C46 1.381 . S
C47 C48 1.321 . S
C48 C47 1.321 . S
C48 C49 1.403 . S
C48 H74 0.934 . S
C49 C44 1.413 . S
C49 C48 1.403 . S
C49 H75 0.930 . S
C50 O64 1.275 1_545 S
C50 O65 1.256 . S
C51 O66 1.259 . S
C51 O67 1.268 . S
C52 Ho41 2.811 . S
C52 C53 1.488 . S
C52 O68 1.215 . S
C52 O69 1.289 . S
C53 C52 1.488 . S
C53 C54 1.348 . S
C53 C58 1.413 . S
C54 C53 1.348 . S
C54 C55 1.442 . S
C54 H76 0.930 . S
C55 C54 1.442 . S
C55 C56 1.381 . S
C55 H77 0.931 . S
C56 C55 1.381 . S
C56 C57 1.321 . S
C57 C56 1.321 . S
C57 C58 1.403 . S
C57 H78 0.934 . S
C58 C53 1.413 . S
C58 C57 1.403 . S
C58 H79 0.930 . S
C59 O70 1.275 . S
C59 O71 1.246 1_545 S
O60 Ho40 2.322 . S
O60 C42 1.259 . S
O61 Ho41 2.346 1_565 S
O61 C42 1.268 . S
O62 Ho40 2.378 . S
O62 C43 1.215 . S
O63 Ho40 2.524 . S
O63 C43 1.289 . S
O64 Ho40 2.381 . S
O64 C50 1.275 1_565 S
O65 Ho40 2.669 1_545 S
O65 Ho41 2.305 . S
O65 C50 1.256 . S
O66 Ho41 2.322 . S
O66 C51 1.259 . S
O67 Ho40 2.346 1_545 S
O67 C51 1.268 . S
O68 Ho41 2.378 . S
O68 C52 1.215 . S
O69 Ho41 2.524 . S
O69 C52 1.289 . S
O70 Ho41 2.381 . S
O70 C59 1.275 . S
O71 Ho40 2.317 . S
O71 Ho41 2.650 1_565 S
O71 C59 1.246 1_565 S
H72 C45 0.930 . S
H73 C46 0.931 . S
H74 C48 0.934 . S
H75 C49 0.930 . S
H76 C54 0.930 . S
H77 C55 0.931 . S
H78 C57 0.934 . S
H79 C58 0.930 . S
Ho80 C83 2.811 . S
Ho80 O100 2.322 . S
Ho80 O102 2.378 . S
Ho80 O103 2.524 . S
Ho80 O104 2.381 . S
Ho80 O105 2.669 . S
Ho80 O107 2.346 . S
Ho80 O111 2.305 . S
Ho81 C92 2.811 . S
Ho81 O101 2.346 . S
Ho81 O105 2.305 . S
Ho81 O106 2.322 . S
Ho81 O108 2.378 . S
Ho81 O109 2.524 . S
Ho81 O110 2.381 . S
Ho81 O111 2.669 . S
C82 O100 1.259 . S
C82 O101 1.268 . S
C83 Ho80 2.811 . S
C83 C84 1.488 . S
C83 O102 1.215 . S
C83 O103 1.289 . S
C84 C83 1.488 . S
C84 C85 1.348 . S
C84 C89 1.413 . S
C85 C84 1.348 . S
C85 C86 1.442 . S
C85 H112 0.930 . S
C86 C85 1.442 . S
C86 C87 1.381 . S
C86 H113 0.931 . S
C87 C86 1.381 . S
C87 C88 1.321 . S
C88 C87 1.321 . S
C88 C89 1.403 . S
C88 H114 0.934 . S
C89 C84 1.413 . S
C89 C88 1.403 . S
C89 H115 0.930 . S
C90 O104 1.275 . S
C90 O105 1.256 . S
C91 O106 1.259 . S
C91 O107 1.268 . S
C92 Ho81 2.811 . S
C92 C93 1.488 . S
C92 O108 1.215 . S
C92 O109 1.289 . S
C93 C92 1.488 . S
C93 C94 1.348 . S
C93 C98 1.413 . S
C94 C93 1.348 . S
C94 C95 1.442 . S
C94 H116 0.930 . S
C95 C94 1.442 . S
C95 C96 1.381 . S
C95 H117 0.931 . S
C96 C95 1.381 . S
C96 C97 1.321 . S
C97 C96 1.321 . S
C97 C98 1.403 . S
C97 H118 0.934 . S
C98 C93 1.413 . S
C98 C97 1.403 . S
C98 H119 0.930 . S
C99 O110 1.275 . S
C99 O111 1.256 . S
O100 Ho80 2.322 . S
O100 C82 1.259 . S
O101 Ho81 2.346 . S
O101 C82 1.268 . S
O102 Ho80 2.378 . S
O102 C83 1.215 . S
O103 Ho80 2.524 . S
O103 C83 1.289 . S
O104 Ho80 2.381 . S
O104 C90 1.275 . S
O105 Ho80 2.669 . S
O105 Ho81 2.305 . S
O105 C90 1.256 . S
O106 Ho81 2.322 . S
O106 C91 1.259 . S
O107 Ho80 2.346 . S
O107 C91 1.268 . S
O108 Ho81 2.378 . S
O108 C92 1.215 . S
O109 Ho81 2.524 . S
O109 C92 1.289 . S
O110 Ho81 2.381 . S
O110 C99 1.275 . S
O111 Ho80 2.305 . S
O111 Ho81 2.669 . S
O111 C99 1.256 . S
H112 C85 0.930 . S
H113 C86 0.931 . S
H114 C88 0.934 . S
H115 C89 0.930 . S
H116 C94 0.930 . S
H117 C95 0.931 . S
H118 C97 0.934 . S
H119 C98 0.930 . S
C120 C121 1.384 . S
C120 H133 0.947 . S
C120 C155 1.382 . S
C121 C120 1.384 . S
C121 C122 1.378 . S
C122 C121 1.378 . S
C122 C123 1.378 . S
C122 H134 0.952 . S
C123 C122 1.378 . S
C123 H135 0.950 . S
C123 C154 1.383 . S
H124 C143 0.947 . S
H125 C144 0.946 . S
H126 C146 0.953 . S
H127 C147 0.945 . S
H128 C149 0.952 . S
H129 C150 0.949 . S
H130 C152 0.950 . S
H131 C153 0.948 . S
H132 C155 0.951 . S
H133 C120 0.947 . S
H134 C122 0.952 . S
H135 C123 0.950 . S
N136 C139 1.382 . S
N136 C141 1.363 1_545 S
N137 C139 1.371 . S
N137 C140 1.372 . S
N138 C140 1.361 1_565 S
N138 C141 1.377 . S
C139 N136 1.382 . S
C139 N137 1.371 . S
C139 C142 1.480 . S
C140 N137 1.372 . S
C140 N138 1.361 1_545 S
C140 C148 1.457 . S
C141 N136 1.363 1_565 S
C141 N138 1.377 . S
C141 C154 1.479 . S
C142 C139 1.480 . S
C142 C143 1.383 . S
C142 C147 1.385 . S
C143 H124 0.947 . S
C143 C142 1.383 . S
C143 C144 1.388 . S
C144 H125 0.946 . S
C144 C143 1.388 . S
C144 C145 1.384 . S
C145 C144 1.384 . S
C145 C146 1.377 . S
C146 H126 0.953 . S
C146 C145 1.377 . S
C146 C147 1.369 . S
C147 H127 0.945 . S
C147 C142 1.385 . S
C147 C146 1.369 . S
C148 C140 1.457 . S
C148 C149 1.372 . S
C148 C153 1.364 1_545 S
C149 H128 0.952 . S
C149 C148 1.372 . S
C149 C150 1.389 . S
C150 H129 0.949 . S
C150 C149 1.389 . S
C150 C151 1.387 . S
C151 C150 1.387 . S
C151 C152 1.372 1_545 S
C152 H130 0.950 . S
C152 C151 1.372 1_565 S
C152 C153 1.379 . S
C153 H131 0.948 . S
C153 C148 1.364 1_565 S
C153 C152 1.379 . S
C154 C123 1.383 . S
C154 C141 1.479 . S
C154 C155 1.398 . S
C155 C120 1.382 . S
C155 H132 0.951 . S
C155 C154 1.398 . S
C156 C157 1.384 . S
C156 H169 0.947 . S
C156 C191 1.382 . S
C157 C156 1.384 . S
C157 C158 1.378 . S
C158 C157 1.378 . S
C158 C159 1.378 . S
C158 H170 0.952 . S
C159 C158 1.378 . S
C159 H171 0.950 . S
C159 C190 1.383 . S
H160 C179 0.947 . S
H161 C180 0.946 . S
H162 C182 0.953 . S
H163 C183 0.945 . S
H164 C185 0.952 . S
H165 C186 0.949 . S
H166 C188 0.950 . S
H167 C189 0.948 . S
H168 C191 0.951 . S
H169 C156 0.947 . S
H170 C158 0.952 . S
H171 C159 0.950 . S
N172 C175 1.382 . S
N172 C177 1.363 . S
N173 C175 1.371 . S
N173 C176 1.372 . S
N174 C176 1.361 . S
N174 C177 1.377 . S
C175 N172 1.382 . S
C175 N173 1.371 . S
C175 C178 1.480 . S
C176 N173 1.372 . S
C176 N174 1.361 . S
C176 C184 1.457 . S
C177 N172 1.363 . S
C177 N174 1.377 . S
C177 C190 1.479 . S
C178 C175 1.480 . S
C178 C179 1.383 . S
C178 C183 1.385 . S
C179 H160 0.947 . S
C179 C178 1.383 . S
C179 C180 1.388 . S
C180 H161 0.946 . S
C180 C179 1.388 . S
C180 C181 1.384 . S
C181 C180 1.384 . S
C181 C182 1.377 . S
C182 H162 0.953 . S
C182 C181 1.377 . S
C182 C183 1.369 . S
C183 H163 0.945 . S
C183 C178 1.385 . S
C183 C182 1.369 . S
C184 C176 1.457 . S
C184 C185 1.372 . S
C184 C189 1.364 . S
C185 H164 0.952 . S
C185 C184 1.372 . S
C185 C186 1.389 . S
C186 H165 0.949 . S
C186 C185 1.389 . S
C186 C187 1.387 . S
C187 C186 1.387 . S
C187 C188 1.372 . S
C188 H166 0.950 . S
C188 C187 1.372 . S
C188 C189 1.379 . S
C189 H167 0.948 . S
C189 C184 1.364 . S
C189 C188 1.379 . S
C190 C159 1.383 . S
C190 C177 1.479 . S
C190 C191 1.398 . S
C191 C156 1.382 . S
C191 H168 0.951 . S
C191 C190 1.398 . S
C192 C193 1.384 . S
C192 H205 0.947 . S
C192 C227 1.382 . S
C193 C192 1.384 . S
C193 C194 1.378 . S
C194 C193 1.378 . S
C194 C195 1.378 . S
C194 H206 0.952 . S
C195 C194 1.378 . S
C195 H207 0.950 . S
C195 C226 1.383 . S
H196 C215 0.947 . S
H197 C216 0.946 . S
H198 C218 0.953 . S
H199 C219 0.945 . S
H200 C221 0.952 . S
H201 C222 0.949 . S
H202 C224 0.950 1_655 S
H203 C225 0.948 1_655 S
H204 C227 0.951 . S
H205 C192 0.947 . S
H206 C194 0.952 . S
H207 C195 0.950 . S
N208 C211 1.382 . S
N208 C213 1.363 . S
N209 C211 1.371 . S
N209 C212 1.372 . S
N210 C212 1.361 . S
N210 C213 1.377 . S
C211 N208 1.382 . S
C211 N209 1.371 . S
C211 C214 1.480 . S
C212 N209 1.372 . S
C212 N210 1.361 . S
C212 C220 1.457 . S
C213 N208 1.363 . S
C213 N210 1.377 . S
C213 C226 1.479 1_455 S
C214 C211 1.480 . S
C214 C215 1.383 . S
C214 C219 1.385 . S
C215 H196 0.947 . S
C215 C214 1.383 . S
C215 C216 1.388 . S
C216 H197 0.946 . S
C216 C215 1.388 . S
C216 C217 1.384 . S
C217 C216 1.384 . S
C217 C218 1.377 . S
C218 H198 0.953 . S
C218 C217 1.377 . S
C218 C219 1.369 . S
C219 H199 0.945 . S
C219 C214 1.385 . S
C219 C218 1.369 . S
C220 C212 1.457 . S
C220 C221 1.372 . S
C220 C225 1.364 . S
C221 H200 0.952 . S
C221 C220 1.372 . S
C221 C222 1.389 . S
C222 H201 0.949 . S
C222 C221 1.389 . S
C222 C223 1.387 . S
C223 C222 1.387 . S
C223 C224 1.372 . S
C224 H202 0.950 1_455 S
C224 C223 1.372 . S
C224 C225 1.379 . S
C225 H203 0.948 1_455 S
C225 C220 1.364 . S
C225 C224 1.379 . S
C226 C195 1.383 . S
C226 C213 1.479 1_655 S
C226 C227 1.398 . S
C227 C192 1.382 . S
C227 H204 0.951 . S
C227 C226 1.398 . S
C228 C229 1.384 . S
C228 H241 0.947 . S
C228 C263 1.382 . S
C229 C228 1.384 . S
C229 C230 1.378 . S
C230 C229 1.378 . S
C230 C231 1.378 . S
C230 H242 0.952 . S
C231 C230 1.378 . S
C231 H243 0.950 . S
C231 C262 1.383 . S
H232 C251 0.947 . S
H233 C252 0.946 . S
H234 C254 0.953 . S
H235 C255 0.945 . S
H236 C257 0.952 . S
H237 C258 0.949 . S
H238 C260 0.950 . S
H239 C261 0.948 . S
H240 C263 0.951 . S
H241 C228 0.947 . S
H242 C230 0.952 . S
H243 C231 0.950 . S
N244 C247 1.382 1_455 S
N244 C249 1.363 . S
N245 C247 1.371 . S
N245 C248 1.372 1_655 S
N246 C248 1.361 . S
N246 C249 1.377 . S
C247 N244 1.382 1_655 S
C247 N245 1.371 . S
C247 C250 1.480 . S
C248 N245 1.372 1_455 S
C248 N246 1.361 . S
C248 C256 1.457 . S
C249 N244 1.363 . S
C249 N246 1.377 . S
C249 C262 1.479 . S
C250 C247 1.480 . S
C250 C251 1.383 . S
C250 C255 1.385 . S
C251 H232 0.947 . S
C251 C250 1.383 . S
C251 C252 1.388 . S
C252 H233 0.946 . S
C252 C251 1.388 . S
C252 C253 1.384 . S
C253 C252 1.384 . S
C253 C254 1.377 . S
C254 H234 0.953 . S
C254 C253 1.377 . S
C254 C255 1.369 . S
C255 H235 0.945 . S
C255 C250 1.385 . S
C255 C254 1.369 . S
C256 C248 1.457 . S
C256 C257 1.372 1_455 S
C256 C261 1.364 . S
C257 H236 0.952 . S
C257 C256 1.372 1_655 S
C257 C258 1.389 . S
C258 H237 0.949 . S
C258 C257 1.389 . S
C258 C259 1.387 1_655 S
C259 C258 1.387 1_455 S
C259 C260 1.372 . S
C260 H238 0.950 . S
C260 C259 1.372 . S
C260 C261 1.379 . S
C261 H239 0.948 . S
C261 C256 1.364 . S
C261 C260 1.379 . S
C262 C231 1.383 . S
C262 C249 1.479 . S
C262 C263 1.398 . S
C263 C228 1.382 . S
C263 H240 0.951 . S
C263 C262 1.398 . S
C264 C265 1.384 . S
C264 H277 0.947 . S
C264 C299 1.382 . S
C265 C264 1.384 . S
C265 C266 1.378 . S
C266 C265 1.378 . S
C266 C267 1.378 . S
C266 H278 0.952 . S
C267 C266 1.378 . S
C267 H279 0.950 . S
C267 C298 1.383 . S
H268 C287 0.947 . S
H269 C288 0.946 . S
H270 C290 0.953 . S
H271 C291 0.945 . S
H272 C293 0.952 . S
H273 C294 0.949 . S
H274 C296 0.950 . S
H275 C297 0.948 . S
H276 C299 0.951 . S
H277 C264 0.947 . S
H278 C266 0.952 . S
H279 C267 0.950 . S
N280 C283 1.382 1_545 S
N280 C285 1.363 . S
N281 C283 1.371 . S
N281 C284 1.372 1_565 S
N282 C284 1.361 . S
N282 C285 1.377 . S
C283 N280 1.382 1_565 S
C283 N281 1.371 . S
C283 C286 1.480 . S
C284 N281 1.372 1_545 S
C284 N282 1.361 . S
C284 C292 1.457 . S
C285 N280 1.363 . S
C285 N282 1.377 . S
C285 C298 1.479 . S
C286 C283 1.480 . S
C286 C287 1.383 . S
C286 C291 1.385 . S
C287 H268 0.947 . S
C287 C286 1.383 . S
C287 C288 1.388 . S
C288 H269 0.946 . S
C288 C287 1.388 . S
C288 C289 1.384 . S
C289 C288 1.384 . S
C289 C290 1.377 . S
C290 H270 0.953 . S
C290 C289 1.377 . S
C290 C291 1.369 . S
C291 H271 0.945 . S
C291 C286 1.385 . S
C291 C290 1.369 . S
C292 C284 1.457 . S
C292 C293 1.372 1_545 S
C292 C297 1.364 . S
C293 H272 0.952 . S
C293 C292 1.372 1_565 S
C293 C294 1.389 . S
C294 H273 0.949 . S
C294 C293 1.389 . S
C294 C295 1.387 . S
C295 C294 1.387 . S
C295 C296 1.372 1_565 S
C296 H274 0.950 . S
C296 C295 1.372 1_545 S
C296 C297 1.379 . S
C297 H275 0.948 . S
C297 C292 1.364 . S
C297 C296 1.379 . S
C298 C267 1.383 . S
C298 C285 1.479 . S
C298 C299 1.398 . S
C299 C264 1.382 . S
C299 H276 0.951 . S
C299 C298 1.398 . S
C300 C301 1.384 . S
C300 H313 0.947 . S
C300 C335 1.382 . S
C301 C300 1.384 . S
C301 C302 1.378 . S
C302 C301 1.378 . S
C302 C303 1.378 . S
C302 H314 0.952 . S
C303 C302 1.378 . S
C303 H315 0.950 . S
C303 C334 1.383 . S
H304 C323 0.947 . S
H305 C324 0.946 . S
H306 C326 0.953 . S
H307 C327 0.945 . S
H308 C329 0.952 . S
H309 C330 0.949 . S
H310 C332 0.950 . S
H311 C333 0.948 . S
H312 C335 0.951 . S
H313 C300 0.947 . S
H314 C302 0.952 . S
H315 C303 0.950 . S
N316 C319 1.382 . S
N316 C321 1.363 . S
N317 C319 1.371 . S
N317 C320 1.372 . S
N318 C320 1.361 . S
N318 C321 1.377 . S
C319 N316 1.382 . S
C319 N317 1.371 . S
C319 C322 1.480 . S
C320 N317 1.372 . S
C320 N318 1.361 . S
C320 C328 1.457 . S
C321 N316 1.363 . S
C321 N318 1.377 . S
C321 C334 1.479 . S
C322 C319 1.480 . S
C322 C323 1.383 . S
C322 C327 1.385 . S
C323 H304 0.947 . S
C323 C322 1.383 . S
C323 C324 1.388 . S
C324 H305 0.946 . S
C324 C323 1.388 . S
C324 C325 1.384 . S
C325 C324 1.384 . S
C325 C326 1.377 . S
C326 H306 0.953 . S
C326 C325 1.377 . S
C326 C327 1.369 . S
C327 H307 0.945 . S
C327 C322 1.385 . S
C327 C326 1.369 . S
C328 C320 1.457 . S
C328 C329 1.372 . S
C328 C333 1.364 . S
C329 H308 0.952 . S
C329 C328 1.372 . S
C329 C330 1.389 1_554 S
C330 H309 0.949 . S
C330 C329 1.389 1_556 S
C330 C331 1.387 . S
C331 C330 1.387 . S
C331 C332 1.372 . S
C332 H310 0.950 . S
C332 C331 1.372 . S
C332 C333 1.379 1_556 S
C333 H311 0.948 . S
C333 C328 1.364 . S
C333 C332 1.379 1_554 S
C334 C303 1.383 . S
C334 C321 1.479 . S
C334 C335 1.398 . S
C335 C300 1.382 . S
C335 H312 0.951 . S
C335 C334 1.398 . S
C336 C337 1.363 . S
C336 C342 1.379 . S
C336 N344 1.356 . S
C337 C336 1.363 . S
C337 C343 1.363 . S
C338 C339 1.363 . S
C338 C343 1.379 . S
C338 N345 1.356 . S
C339 C338 1.363 . S
C339 C342 1.363 . S
N340 C342 1.356 . S
N340 H352 0.984 . S
N340 H353 0.985 . S
N341 C343 1.356 . S
N341 H346 0.984 . S
N341 H347 0.985 . S
C342 C336 1.379 . S
C342 C339 1.363 . S
C342 N340 1.356 . S
C343 C337 1.363 . S
C343 C338 1.379 . S
C343 N341 1.356 . S
N344 C336 1.356 . S
N344 H350 0.984 . S
N344 H351 0.984 . S
N345 C338 1.356 . S
N345 H348 0.984 . S
N345 H349 0.985 . S
H346 N341 0.984 . S
H347 N341 0.985 . S
H348 N345 0.984 . S
H349 N345 0.985 . S
H350 N344 0.984 . S
H351 N344 0.984 . S
H352 N340 0.984 . S
H353 N340 0.985 . S
C354 C355 1.363 . S
C354 C360 1.379 . S
C354 N362 1.356 . S
C355 C354 1.363 . S
C355 C361 1.363 . S
C356 C357 1.363 . S
C356 C361 1.379 . S
C356 N363 1.356 . S
C357 C356 1.363 . S
C357 C360 1.363 . S
N358 C360 1.356 . S
N358 H370 0.984 . S
N358 H371 0.985 . S
N359 C361 1.356 . S
N359 H364 0.984 . S
N359 H365 0.985 . S
C360 C354 1.379 . S
C360 C357 1.363 . S
C360 N358 1.356 . S
C361 C355 1.363 . S
C361 C356 1.379 . S
C361 N359 1.356 . S
N362 C354 1.356 . S
N362 H368 0.984 . S
N362 H369 0.984 . S
N363 C356 1.356 . S
N363 H366 0.984 . S
N363 H367 0.985 . S
H364 N359 0.984 . S
H365 N359 0.985 . S
H366 N363 0.984 . S
H367 N363 0.985 . S
H368 N362 0.984 . S
H369 N362 0.984 . S
H370 N358 0.984 . S
H371 N358 0.985 . S
C372 C373 1.363 . S
C372 C378 1.379 . S
C372 N380 1.356 . S
C373 C372 1.363 . S
C373 C379 1.363 . S
C374 C375 1.363 . S
C374 C379 1.379 . S
C374 N381 1.356 . S
C375 C374 1.363 . S
C375 C378 1.363 . S
N376 C378 1.356 . S
N376 H388 0.984 . S
N376 H389 0.985 . S
N377 C379 1.356 . S
N377 H382 0.984 . S
N377 H383 0.985 . S
C378 C372 1.379 . S
C378 C375 1.363 . S
C378 N376 1.356 . S
C379 C373 1.363 . S
C379 C374 1.379 . S
C379 N377 1.356 . S
N380 C372 1.356 . S
N380 H386 0.984 . S
N380 H387 0.984 . S
N381 C374 1.356 . S
N381 H384 0.984 . S
N381 H385 0.985 . S
H382 N377 0.984 . S
H383 N377 0.985 . S
H384 N381 0.984 . S
H385 N381 0.985 . S
H386 N380 0.984 . S
H387 N380 0.984 . S
H388 N376 0.984 . S
H389 N376 0.985 . S
C390 C391 1.363 . S
C390 C396 1.379 . S
C390 N398 1.356 . S
C391 C390 1.363 . S
C391 C397 1.363 . S
C392 C393 1.363 . S
C392 C397 1.379 . S
C392 N399 1.356 . S
C393 C392 1.363 . S
C393 C396 1.363 . S
N394 C396 1.356 . S
N394 H406 0.984 . S
N394 H407 0.985 . S
N395 C397 1.356 . S
N395 H400 0.984 . S
N395 H401 0.985 . S
C396 C390 1.379 . S
C396 C393 1.363 . S
C396 N394 1.356 . S
C397 C391 1.363 . S
C397 C392 1.379 . S
C397 N395 1.356 . S
N398 C390 1.356 . S
N398 H404 0.984 . S
N398 H405 0.984 . S
N399 C392 1.356 . S
N399 H402 0.984 . S
N399 H403 0.985 . S
H400 N395 0.984 . S
H401 N395 0.985 . S
H402 N399 0.984 . S
H403 N399 0.985 . S
H404 N398 0.984 . S
H405 N398 0.984 . S
H406 N394 0.984 . S
H407 N394 0.985 . S
C408 C409 1.363 . S
C408 C414 1.379 . S
C408 N416 1.356 . S
C409 C408 1.363 . S
C409 C415 1.363 . S
C410 C411 1.363 . S
C410 C415 1.379 . S
C410 N417 1.356 . S
C411 C410 1.363 . S
C411 C414 1.363 . S
N412 C414 1.356 . S
N412 H424 0.984 . S
N412 H425 0.985 . S
N413 C415 1.356 . S
N413 H418 0.984 . S
N413 H419 0.985 . S
C414 C408 1.379 . S
C414 C411 1.363 . S
C414 N412 1.356 . S
C415 C409 1.363 . S
C415 C410 1.379 . S
C415 N413 1.356 . S
N416 C408 1.356 . S
N416 H422 0.984 . S
N416 H423 0.984 . S
N417 C410 1.356 . S
N417 H420 0.984 . S
N417 H421 0.985 . S
H418 N413 0.984 . S
H419 N413 0.985 . S
H420 N417 0.984 . S
H421 N417 0.985 . S
H422 N416 0.984 . S
H423 N416 0.984 . S
H424 N412 0.984 . S
H425 N412 0.985 . S
C426 C427 1.363 . S
C426 C432 1.379 . S
C426 N434 1.356 . S
C427 C426 1.363 . S
C427 C433 1.363 . S
C428 C429 1.363 . S
C428 C433 1.379 . S
C428 N435 1.356 . S
C429 C428 1.363 . S
C429 C432 1.363 . S
N430 C432 1.356 . S
N430 H442 0.984 . S
N430 H443 0.985 . S
N431 C433 1.356 . S
N431 H436 0.984 . S
N431 H437 0.985 . S
C432 C426 1.379 . S
C432 C429 1.363 . S
C432 N430 1.356 . S
C433 C427 1.363 . S
C433 C428 1.379 . S
C433 N431 1.356 . S
N434 C426 1.356 . S
N434 H440 0.984 . S
N434 H441 0.984 . S
N435 C428 1.356 . S
N435 H438 0.984 . S
N435 H439 0.985 . S
H436 N431 0.984 . S
H437 N431 0.985 . S
H438 N435 0.984 . S
H439 N435 0.985 . S
H440 N434 0.984 . S
H441 N434 0.984 . S
H442 N430 0.984 . S
H443 N430 0.985 . S
C444 C445 1.363 . S
C444 C450 1.379 . S
C444 N452 1.356 . S
C445 C444 1.363 . S
C445 C451 1.363 . S
C446 C447 1.363 . S
C446 C451 1.379 . S
C446 N453 1.356 . S
C447 C446 1.363 . S
C447 C450 1.363 . S
N448 C450 1.356 . S
N448 H460 0.984 . S
N448 H461 0.985 . S
N449 C451 1.356 . S
N449 H454 0.984 . S
N449 H455 0.985 . S
C450 C444 1.379 . S
C450 C447 1.363 . S
C450 N448 1.356 . S
C451 C445 1.363 . S
C451 C446 1.379 . S
C451 N449 1.356 . S
N452 C444 1.356 . S
N452 H458 0.984 . S
N452 H459 0.984 . S
N453 C446 1.356 . S
N453 H456 0.984 . S
N453 H457 0.985 . S
H454 N449 0.984 . S
H455 N449 0.985 . S
H456 N453 0.984 . S
H457 N453 0.985 . S
H458 N452 0.984 . S
H459 N452 0.984 . S
H460 N448 0.984 . S
H461 N448 0.985 . S
C462 C463 1.363 . S
C462 C468 1.379 . S
C462 N470 1.356 . S
C463 C462 1.363 . S
C463 C469 1.363 . S
C464 C465 1.363 . S
C464 C469 1.379 . S
C464 N471 1.356 . S
C465 C464 1.363 . S
C465 C468 1.363 . S
N466 C468 1.356 . S
N466 H478 0.984 . S
N466 H479 0.985 . S
N467 C469 1.356 . S
N467 H472 0.984 . S
N467 H473 0.985 . S
C468 C462 1.379 . S
C468 C465 1.363 . S
C468 N466 1.356 . S
C469 C463 1.363 . S
C469 C464 1.379 . S
C469 N467 1.356 . S
N470 C462 1.356 . S
N470 H476 0.984 . S
N470 H477 0.984 . S
N471 C464 1.356 . S
N471 H474 0.984 . S
N471 H475 0.985 . S
H472 N467 0.984 . S
H473 N467 0.985 . S
H474 N471 0.984 . S
H475 N471 0.985 . S
H476 N470 0.984 . S
H477 N470 0.984 . S
H478 N466 0.984 . S
H479 N466 0.985 . S
C480 C481 1.363 . S
C480 C486 1.379 . S
C480 N488 1.356 . S
C481 C480 1.363 . S
C481 C487 1.363 . S
C482 C483 1.363 . S
C482 C487 1.379 . S
C482 N489 1.356 . S
C483 C482 1.363 . S
C483 C486 1.363 . S
N484 C486 1.356 . S
N484 H496 0.984 . S
N484 H497 0.985 . S
N485 C487 1.356 . S
N485 H490 0.984 . S
N485 H491 0.985 . S
C486 C480 1.379 . S
C486 C483 1.363 . S
C486 N484 1.356 . S
C487 C481 1.363 . S
C487 C482 1.379 . S
C487 N485 1.356 . S
N488 C480 1.356 . S
N488 H494 0.984 . S
N488 H495 0.984 . S
N489 C482 1.356 . S
N489 H492 0.984 . S
N489 H493 0.985 . S
H490 N485 0.984 . S
H491 N485 0.985 . S
H492 N489 0.984 . S
H493 N489 0.985 . S
H494 N488 0.984 . S
H495 N488 0.984 . S
H496 N484 0.984 . S
H497 N484 0.985 . S
C498 C499 1.363 . S
C498 C504 1.379 . S
C498 N506 1.356 . S
C499 C498 1.363 . S
C499 C505 1.363 . S
C500 C501 1.363 . S
C500 C505 1.379 . S
C500 N507 1.356 . S
C501 C500 1.363 . S
C501 C504 1.363 . S
N502 C504 1.356 . S
N502 H514 0.984 . S
N502 H515 0.985 . S
N503 C505 1.356 . S
N503 H508 0.984 . S
N503 H509 0.985 . S
C504 C498 1.379 . S
C504 C501 1.363 . S
C504 N502 1.356 . S
C505 C499 1.363 . S
C505 C500 1.379 . S
C505 N503 1.356 . S
N506 C498 1.356 . S
N506 H512 0.984 . S
N506 H513 0.984 . S
N507 C500 1.356 . S
N507 H510 0.984 . S
N507 H511 0.985 . S
H508 N503 0.984 . S
H509 N503 0.985 . S
H510 N507 0.984 . S
H511 N507 0.985 . S
H512 N506 0.984 . S
H513 N506 0.984 . S
H514 N502 0.984 . S
H515 N502 0.985 . S
C516 C517 1.363 . S
C516 C522 1.379 . S
C516 N524 1.356 . S
C517 C516 1.363 . S
C517 C523 1.363 . S
C518 C519 1.363 . S
C518 C523 1.379 . S
C518 N525 1.356 . S
C519 C518 1.363 . S
C519 C522 1.363 . S
N520 C522 1.356 . S
N520 H532 0.984 . S
N520 H533 0.985 . S
N521 C523 1.356 . S
N521 H526 0.984 . S
N521 H527 0.985 . S
C522 C516 1.379 . S
C522 C519 1.363 . S
C522 N520 1.356 . S
C523 C517 1.363 . S
C523 C518 1.379 . S
C523 N521 1.356 . S
N524 C516 1.356 . S
N524 H530 0.984 . S
N524 H531 0.984 . S
N525 C518 1.356 . S
N525 H528 0.984 . S
N525 H529 0.985 . S
H526 N521 0.984 . S
H527 N521 0.985 . S
H528 N525 0.984 . S
H529 N525 0.985 . S
H530 N524 0.984 . S
H531 N524 0.984 . S
H532 N520 0.984 . S
H533 N520 0.985 . S
C534 C535 1.363 . S
C534 C540 1.379 . S
C534 N542 1.356 . S
C535 C534 1.363 . S
C535 C541 1.363 . S
C536 C537 1.363 . S
C536 C541 1.379 . S
C536 N543 1.356 . S
C537 C536 1.363 . S
C537 C540 1.363 . S
N538 C540 1.356 . S
N538 H550 0.984 . S
N538 H551 0.985 . S
N539 C541 1.356 . S
N539 H544 0.984 . S
N539 H545 0.985 . S
C540 C534 1.379 . S
C540 C537 1.363 . S
C540 N538 1.356 . S
C541 C535 1.363 . S
C541 C536 1.379 . S
C541 N539 1.356 . S
N542 C534 1.356 . S
N542 H548 0.984 . S
N542 H549 0.984 . S
N543 C536 1.356 . S
N543 H546 0.984 . S
N543 H547 0.985 . S
H544 N539 0.984 . S
H545 N539 0.985 . S
H546 N543 0.984 . S
H547 N543 0.985 . S
H548 N542 0.984 . S
H549 N542 0.984 . S
H550 N538 0.984 . S
H551 N538 0.985 . S
C552 C553 1.363 . S
C552 C558 1.379 . S
C552 N560 1.356 . S
C553 C552 1.363 . S
C553 C559 1.363 . S
C554 C555 1.363 . S
C554 C559 1.379 . S
C554 N561 1.356 . S
C555 C554 1.363 . S
C555 C558 1.363 . S
N556 C558 1.356 . S
N556 H568 0.984 . S
N556 H569 0.985 . S
N557 C559 1.356 . S
N557 H562 0.984 . S
N557 H563 0.985 . S
C558 C552 1.379 . S
C558 C555 1.363 . S
C558 N556 1.356 . S
C559 C553 1.363 . S
C559 C554 1.379 . S
C559 N557 1.356 . S
N560 C552 1.356 . S
N560 H566 0.984 . S
N560 H567 0.984 . S
N561 C554 1.356 . S
N561 H564 0.984 . S
N561 H565 0.985 . S
H562 N557 0.984 . S
H563 N557 0.985 . S
H564 N561 0.984 . S
H565 N561 0.985 . S
H566 N560 0.984 . S
H567 N560 0.984 . S
H568 N556 0.984 . S
H569 N556 0.985 . S
C570 C571 1.363 . S
C570 C576 1.379 . S
C570 N578 1.356 . S
C571 C570 1.363 . S
C571 C577 1.363 1_545 S
C572 C573 1.363 1_565 S
C572 C577 1.379 . S
C572 N579 1.356 . S
C573 C572 1.363 1_545 S
C573 C576 1.363 . S
N574 C576 1.356 . S
N574 H586 0.984 . S
N574 H587 0.985 . S
N575 C577 1.356 . S
N575 H580 0.984 . S
N575 H581 0.985 . S
C576 C570 1.379 . S
C576 C573 1.363 . S
C576 N574 1.356 . S
C577 C571 1.363 1_565 S
C577 C572 1.379 . S
C577 N575 1.356 . S
N578 C570 1.356 . S
N578 H584 0.984 . S
N578 H585 0.984 . S
N579 C572 1.356 . S
N579 H582 0.984 . S
N579 H583 0.985 . S
H580 N575 0.984 . S
H581 N575 0.985 . S
H582 N579 0.984 . S
H583 N579 0.985 . S
H584 N578 0.984 . S
H585 N578 0.984 . S
H586 N574 0.984 . S
H587 N574 0.985 . S
C588 C589 1.363 . S
C588 C594 1.379 . S
C588 N596 1.356 . S
C589 C588 1.363 . S
C589 C595 1.363 . S
C590 C591 1.363 . S
C590 C595 1.379 . S
C590 N597 1.356 . S
C591 C590 1.363 . S
C591 C594 1.363 . S
N592 C594 1.356 . S
N592 H604 0.984 . S
N592 H605 0.985 . S
N593 C595 1.356 . S
N593 H598 0.984 . S
N593 H599 0.985 . S
C594 C588 1.379 . S
C594 C591 1.363 . S
C594 N592 1.356 . S
C595 C589 1.363 . S
C595 C590 1.379 . S
C595 N593 1.356 . S
N596 C588 1.356 . S
N596 H602 0.984 . S
N596 H603 0.984 . S
N597 C590 1.356 . S
N597 H600 0.984 . S
N597 H601 0.985 . S
H598 N593 0.984 . S
H599 N593 0.985 . S
H600 N597 0.984 . S
H601 N597 0.985 . S
H602 N596 0.984 . S
H603 N596 0.984 . S
H604 N592 0.984 . S
H605 N592 0.985 . S
C606 C607 1.363 . S
C606 C612 1.379 1_545 S
C606 N614 1.356 . S
C607 C606 1.363 . S
C607 C613 1.363 1_545 S
C608 C609 1.363 . S
C608 C613 1.379 . S
C608 N615 1.356 . S
C609 C608 1.363 . S
C609 C612 1.363 . S
N610 C612 1.356 . S
N610 H622 0.975 1_565 S
N610 H623 0.985 . S
N611 C613 1.349 . S
N611 H616 0.978 1_565 S
N611 H617 0.999 . S
C612 C606 1.379 1_565 S
C612 C609 1.363 . S
C612 N610 1.356 . S
C613 C607 1.363 1_565 S
C613 C608 1.379 . S
C613 N611 1.349 . S
N614 C606 1.356 . S
N614 H620 0.984 . S
N614 H621 0.984 . S
N615 C608 1.356 . S
N615 H618 0.984 . S
N615 H619 0.985 . S
H616 N611 0.978 1_545 S
H617 N611 0.999 . S
H618 N615 0.984 . S
H619 N615 0.985 . S
H620 N614 0.984 . S
H621 N614 0.984 . S
H622 N610 0.975 1_545 S
H623 N610 0.985 . S
C624 C625 1.363 . S
C624 C630 1.379 . S
C624 N632 1.356 . S
C625 C624 1.363 . S
C625 C631 1.363 . S
C626 C627 1.363 . S
C626 C631 1.379 . S
C626 N633 1.356 . S
C627 C626 1.363 . S
C627 C630 1.363 . S
N628 C630 1.356 . S
N628 H640 0.984 . S
N628 H641 0.985 . S
N629 C631 1.356 . S
N629 H634 0.984 . S
N629 H635 0.985 . S
C630 C624 1.379 . S
C630 C627 1.363 . S
C630 N628 1.356 . S
C631 C625 1.363 . S
C631 C626 1.379 . S
C631 N629 1.356 . S
N632 C624 1.356 . S
N632 H638 0.984 . S
N632 H639 0.984 . S
N633 C626 1.356 . S
N633 H636 0.984 . S
N633 H637 0.985 . S
H634 N629 0.984 . S
H635 N629 0.985 . S
H636 N633 0.984 . S
H637 N633 0.985 . S
H638 N632 0.984 . S
H639 N632 0.984 . S
H640 N628 0.984 . S
H641 N628 0.985 . S
C642 C643 1.363 . S
C642 C648 1.379 . S
C642 N650 1.356 . S
C643 C642 1.363 . S
C643 C649 1.363 1_455 S
C644 C645 1.363 1_655 S
C644 C649 1.379 . S
C644 N651 1.356 . S
C645 C644 1.363 1_455 S
C645 C648 1.363 . S
N646 C648 1.356 . S
N646 H658 0.984 . S
N646 H659 0.985 . S
N647 C649 1.356 . S
N647 H652 0.984 . S
N647 H653 0.985 . S
C648 C642 1.379 . S
C648 C645 1.363 . S
C648 N646 1.356 . S
C649 C643 1.363 1_655 S
C649 C644 1.379 . S
C649 N647 1.356 . S
N650 C642 1.356 . S
N650 H656 0.984 . S
N650 H657 0.984 . S
N651 C644 1.356 . S
N651 H654 0.984 . S
N651 H655 0.985 . S
H652 N647 0.984 . S
H653 N647 0.985 . S
H654 N651 0.984 . S
H655 N651 0.985 . S
H656 N650 0.984 . S
H657 N650 0.984 . S
H658 N646 0.984 . S
H659 N646 0.985 . S
C337 C7 0.930 . S
C339 C325 1.012 . S
C355 C51 2.023 . S
C357 C253 1.930 . S
C373 C87 1.365 . S
C375 C289 1.384 . S
C391 C16 0.662 . S
C393 C301 0.597 . S
C411 C229 2.074 . S
C409 C42 2.166 . S
C429 C265 1.393 . S
C427 C96 1.367 . S
C445 C47 1.294 . S
C447 C181 1.323 . S
C463 C91 3.189 . S
C465 C193 3.137 . S
C481 C2 2.198 . S
C483 C121 2.123 . S
C501 C157 1.398 . S
C499 C56 1.357 . S
C519 C217 3.023 . S
C517 C82 3.120 . S
C535 C11 2.021 . S
C537 C145 1.949 . S
C555 C223 1.785 1_554 S
C553 C19 1.731 . S
C571 C50 1.334 . S
C573 C151 1.363 . S
C589 C99 1.461 . S
C591 C187 1.504 . S
C609 C295 1.477 . S
C607 C59 1.454 . S
C627 C331 1.095 . S
C625 C90 1.094 . S
C643 C10 1.327 . S
C645 C259 1.348 . S
