# Generated by pormake.
# Topology pyr, (3,6)-cn, num edge types: 1
# Building blocks:
#     Node 0, Type 0, BuildingBlock: VETTIZ_charged_linker_0, # of connection points: 3
#     Node 1, Type 0, BuildingBlock: VETTIZ_charged_linker_0, # of connection points: 3
#     Node 2, Type 0, BuildingBlock: VETTIZ_charged_linker_0, # of connection points: 3
#     Node 3, Type 0, BuildingBlock: VETTIZ_charged_linker_0, # of connection points: 3
#     Node 4, Type 0, BuildingBlock: VETTIZ_charged_linker_0, # of connection points: 3
#     Node 5, Type 0, BuildingBlock: VETTIZ_charged_linker_0, # of connection points: 3
#     Node 6, Type 0, BuildingBlock: VETTIZ_charged_linker_0, # of connection points: 3
#     Node 7, Type 0, BuildingBlock: VETTIZ_charged_linker_0, # of connection points: 3
#     Node 8, Type 1, BuildingBlock: LEVNOQ01_clean_sbu_1, # of connection points: 6
#     Node 9, Type 1, BuildingBlock: LEVNOQ01_clean_sbu_1, # of connection points: 6
#     Node 10, Type 1, BuildingBlock: LEVNOQ01_clean_sbu_1, # of connection points: 6
#     Node 11, Type 1, BuildingBlock: LEVNOQ01_clean_sbu_1, # of connection points: 6
#     Edge 12, Type (0, 1), BuildingBlock: EZIPEK_clean_linker_0, # of connection points: 2
#     Edge 13, Type (0, 1), BuildingBlock: EZIPEK_clean_linker_0, # of connection points: 2
#     Edge 14, Type (0, 1), BuildingBlock: EZIPEK_clean_linker_0, # of connection points: 2
#     Edge 15, Type (0, 1), BuildingBlock: EZIPEK_clean_linker_0, # of connection points: 2
#     Edge 16, Type (0, 1), BuildingBlock: EZIPEK_clean_linker_0, # of connection points: 2
#     Edge 17, Type (0, 1), BuildingBlock: EZIPEK_clean_linker_0, # of connection points: 2
#     Edge 18, Type (0, 1), BuildingBlock: EZIPEK_clean_linker_0, # of connection points: 2
#     Edge 19, Type (0, 1), BuildingBlock: EZIPEK_clean_linker_0, # of connection points: 2
#     Edge 20, Type (0, 1), BuildingBlock: EZIPEK_clean_linker_0, # of connection points: 2
#     Edge 21, Type (0, 1), BuildingBlock: EZIPEK_clean_linker_0, # of connection points: 2
#     Edge 22, Type (0, 1), BuildingBlock: EZIPEK_clean_linker_0, # of connection points: 2
#     Edge 23, Type (0, 1), BuildingBlock: EZIPEK_clean_linker_0, # of connection points: 2
#     Edge 24, Type (0, 1), BuildingBlock: EZIPEK_clean_linker_0, # of connection points: 2
#     Edge 25, Type (0, 1), BuildingBlock: EZIPEK_clean_linker_0, # of connection points: 2
#     Edge 26, Type (0, 1), BuildingBlock: EZIPEK_clean_linker_0, # of connection points: 2
#     Edge 27, Type (0, 1), BuildingBlock: EZIPEK_clean_linker_0, # of connection points: 2
#     Edge 28, Type (0, 1), BuildingBlock: EZIPEK_clean_linker_0, # of connection points: 2
#     Edge 29, Type (0, 1), BuildingBlock: EZIPEK_clean_linker_0, # of connection points: 2
#     Edge 30, Type (0, 1), BuildingBlock: EZIPEK_clean_linker_0, # of connection points: 2
#     Edge 31, Type (0, 1), BuildingBlock: EZIPEK_clean_linker_0, # of connection points: 2
#     Edge 32, Type (0, 1), BuildingBlock: EZIPEK_clean_linker_0, # of connection points: 2
#     Edge 33, Type (0, 1), BuildingBlock: EZIPEK_clean_linker_0, # of connection points: 2
#     Edge 34, Type (0, 1), BuildingBlock: EZIPEK_clean_linker_0, # of connection points: 2
#     Edge 35, Type (0, 1), BuildingBlock: EZIPEK_clean_linker_0, # of connection points: 2
# Relax obj value: 0.035
# Max RMSD: 0.111
# Mean RMSD: 0.047
data_MOF--net-pry--node1-LEVNOQ01_clean_sbu_1--node2-VETTIZ_charged_linker_0--edge1-EZIPEK_clean_linker_0
_symmetry_space_group_name_H-M    P1
_symmetry_Int_Tables_number       1
_symmetry_cell_setting            triclinic
loop_
_symmetry_equiv_pos_as_xyz
'x, y, z'
_cell_length_a     35.733671
_cell_length_b     34.396409
_cell_length_c     34.396021
_cell_angle_alpha  92.472396
_cell_angle_beta   91.180813
_cell_angle_gamma 93.647135
loop_
_atom_site_label
_atom_site_type_symbol
_atom_site_fract_x
_atom_site_fract_y
_atom_site_fract_z
_atom_type_partial_charge
C0 C 0.11037 0.07408 0.24817 0.0
C1 C 0.07948 0.08695 0.26869 0.0
C2 C 0.0599 0.11769 0.25391 0.0
C3 C 0.10178 0.122 0.19914 0.0
C4 C 0.12056 0.09144 0.21334 0.0
C5 C 0.15088 0.07912 0.1866 0.0
H6 H 0.27034 0.12256 0.04354 0.0
C7 C 0.12006 0.13405 0.16271 0.0
C8 C 0.14889 0.10899 0.15532 0.0
H9 H 0.26194 0.01861 0.10986 0.0
H10 H 0.20555 0.03961 0.1393 0.0
H11 H 0.24334 0.18573 0.10649 0.0
H12 H 0.17687 0.11332 0.02175 0.0
H13 H 0.16146 0.16087 0.02225 0.0
H14 H 0.20862 0.15261 0.00788 0.0
H15 H 0.24637 0.19236 0.05509 0.0
H16 H 0.21076 0.21414 0.08351 0.0
C17 C 0.18864 0.08336 0.20971 0.0
C18 C 0.14001 0.03704 0.17019 0.0
C19 C 0.07456 0.24919 0.09016 0.0
C20 C 0.08594 0.26832 0.0561 0.0
C21 C 0.12113 0.25841 0.04117 0.0
C22 C 0.14047 0.22728 0.05524 0.0
C23 C 0.12598 0.20619 0.08614 0.0
C24 C 0.09411 0.21808 0.10383 0.0
C25 C 0.08441 0.19458 0.13868 0.0
C26 C 0.11455 0.16531 0.13771 0.0
C27 C 0.13905 0.17225 0.10683 0.0
C28 C 0.08828 0.22224 0.1755 0.0
C29 C 0.04473 0.17441 0.13165 0.0
C30 C 0.25609 0.10432 0.06424 0.0
C31 C 0.27132 0.06947 0.07547 0.0
C32 C 0.25125 0.04589 0.10147 0.0
C33 C 0.21862 0.05822 0.11868 0.0
C34 C 0.2051 0.09416 0.10922 0.0
C35 C 0.22243 0.11555 0.0808 0.0
C36 C 0.20072 0.15036 0.07115 0.0
C37 C 0.16891 0.14731 0.10003 0.0
C38 C 0.1726 0.11496 0.12311 0.0
C39 C 0.22652 0.18779 0.07916 0.0
C40 C 0.18622 0.14441 0.02848 0.0
H41 H 0.05494 0.15865 0.20987 0.0
H42 H 0.12559 0.05015 0.25851 0.0
H43 H 0.10965 0.02879 0.17344 0.0
H44 H 0.14461 0.03379 0.13847 0.0
H45 H 0.1559 0.01523 0.18539 0.0
H46 H 0.19241 0.11263 0.22485 0.0
H47 H 0.18957 0.06106 0.23208 0.0
H48 H 0.21318 0.08051 0.19119 0.0
H49 H 0.05134 0.25838 0.10706 0.0
H50 H 0.13515 0.27506 0.01934 0.0
H51 H 0.16649 0.22129 0.04188 0.0
H52 H 0.11156 0.24494 0.17266 0.0
H53 H 0.06215 0.23743 0.18039 0.0
H54 H 0.09555 0.20711 0.20202 0.0
H55 H 0.04089 0.16339 0.10084 0.0
H56 H 0.03962 0.14859 0.14921 0.0
H57 H 0.0227 0.19508 0.13772 0.0
H58 H 0.03584 0.12787 0.26903 0.0
C59 C 0.071 0.13541 0.21951 0.0
C60 C 0.24775 0.89121 0.54261 0.0
C61 C 0.22781 0.9231 0.55498 0.0
C62 C 0.24418 0.95061 0.58277 0.0
C63 C 0.29857 0.9125 0.58823 0.0
C64 C 0.28311 0.88661 0.55949 0.0
C65 C 0.30792 0.85393 0.55044 0.0
H66 H 0.46725 0.76581 0.58489 0.0
C67 C 0.33424 0.89768 0.60189 0.0
C68 C 0.34022 0.86383 0.57929 0.0
H69 H 0.38076 0.7366 0.49638 0.0
H70 H 0.34614 0.78811 0.52059 0.0
H71 H 0.46989 0.86104 0.5821 0.0
H72 H 0.40762 0.77858 0.6511 0.0
H73 H 0.42036 0.82003 0.68117 0.0
H74 H 0.45648 0.79154 0.66067 0.0
H75 H 0.49174 0.83159 0.61684 0.0
H76 H 0.47299 0.87707 0.63158 0.0
C77 C 0.32019 0.85666 0.50756 0.0
C78 C 0.28617 0.81506 0.55959 0.0
C79 C 0.40078 0.96071 0.72273 0.0
C80 C 0.42977 0.94879 0.74673 0.0
C81 C 0.45019 0.91705 0.73417 0.0
C82 C 0.4407 0.89619 0.69899 0.0
C83 C 0.41026 0.90703 0.67624 0.0
C84 C 0.39102 0.93899 0.68815 0.0
C85 C 0.35742 0.94418 0.66232 0.0
C86 C 0.35943 0.90999 0.63317 0.0
C87 C 0.39076 0.88858 0.64105 0.0
C88 C 0.36347 0.98374 0.64276 0.0
C89 C 0.32195 0.94043 0.68749 0.0
C90 C 0.44246 0.77171 0.56835 0.0
C91 C 0.43082 0.74968 0.53374 0.0
C92 C 0.39428 0.75546 0.51899 0.0
C93 C 0.3731 0.7852 0.53401 0.0
C94 C 0.38726 0.80907 0.56558 0.0
C95 C 0.4209 0.80156 0.583 0.0
C96 C 0.43002 0.82842 0.61833 0.0
C97 C 0.39766 0.8551 0.61705 0.0
C98 C 0.37247 0.843 0.5864 0.0
C99 C 0.46827 0.85071 0.61227 0.0
C100 C 0.4289 0.80359 0.65487 0.0
H101 H 0.29041 0.96722 0.62078 0.0
H102 H 0.23556 0.8698 0.52119 0.0
H103 H 0.27002 0.81855 0.58671 0.0
H104 H 0.30472 0.7913 0.56502 0.0
H105 H 0.26591 0.80537 0.53565 0.0
H106 H 0.31962 0.88698 0.4976 0.0
H107 H 0.30137 0.83775 0.4876 0.0
H108 H 0.34949 0.84905 0.50344 0.0
H109 H 0.38452 0.98482 0.73204 0.0
H110 H 0.47269 0.90757 0.75235 0.0
H111 H 0.45676 0.8718 0.69139 0.0
H112 H 0.3936 0.9901 0.63639 0.0
H113 H 0.35449 0.00809 0.66192 0.0
H114 H 0.34872 0.98406 0.61423 0.0
H115 H 0.32486 0.91801 0.70955 0.0
H116 H 0.29627 0.93058 0.67064 0.0
H117 H 0.31725 0.96846 0.70333 0.0
H118 H 0.22897 0.97539 0.59245 0.0
C119 C 0.27959 0.94563 0.59931 0.0
C120 C 0.60025 0.25497 0.91029 0.0
C121 C 0.56456 0.23881 0.89844 0.0
C122 C 0.5421 0.25925 0.87331 0.0
C123 C 0.59134 0.31084 0.87196 0.0
C124 C 0.61192 0.29192 0.89872 0.0
C125 C 0.64354 0.31766 0.91706 0.0
H126 H 0.76612 0.47157 0.90223 0.0
C127 C 0.61162 0.34839 0.86574 0.0
C128 C 0.64128 0.35343 0.89311 0.0
H129 H 0.75772 0.39128 0.99519 0.0
H130 H 0.69943 0.3622 0.96716 0.0
H131 H 0.67572 0.48923 0.90034 0.0
H132 H 0.74256 0.41127 0.83442 0.0
H133 H 0.71114 0.43052 0.80161 0.0
H134 H 0.74515 0.4629 0.82813 0.0
H135 H 0.70817 0.50603 0.86464 0.0
H136 H 0.6605 0.48934 0.85141 0.0
C137 C 0.63456 0.3263 0.96051 0.0
C138 C 0.68053 0.29745 0.91089 0.0
C139 C 0.58564 0.41457 0.74118 0.0
C140 C 0.60126 0.44838 0.72513 0.0
C141 C 0.6325 0.46901 0.7433 0.0
C142 C 0.64719 0.45662 0.77843 0.0
C143 C 0.63004 0.42363 0.79525 0.0
C144 C 0.59991 0.40314 0.77646 0.0
C145 C 0.58324 0.37071 0.79958 0.0
C146 C 0.60962 0.37383 0.83475 0.0
C147 C 0.63672 0.40498 0.83221 0.0
C148 C 0.54268 0.37989 0.81049 0.0
C149 C 0.5856 0.33216 0.77513 0.0
C150 C 0.75102 0.4483 0.91681 0.0
C151 C 0.76603 0.43317 0.95052 0.0
C152 C 0.74617 0.40303 0.96914 0.0
C153 C 0.71261 0.38615 0.95272 0.0
C154 C 0.69904 0.39973 0.91755 0.0
C155 C 0.71729 0.43127 0.90093 0.0
C156 C 0.69804 0.44204 0.86399 0.0
C157 C 0.66521 0.41174 0.86143 0.0
C158 C 0.66669 0.38658 0.89231 0.0
C159 C 0.68503 0.48393 0.87 0.0
C160 C 0.72548 0.43676 0.8301 0.0
H161 H 0.53729 0.31001 0.84103 0.0
H162 H 0.6171 0.24075 0.93131 0.0
H163 H 0.68351 0.2888 0.87962 0.0
H164 H 0.70564 0.31635 0.91959 0.0
H165 H 0.68101 0.27075 0.92789 0.0
H166 H 0.60474 0.31851 0.967 0.0
H167 H 0.65201 0.30967 0.98016 0.0
H168 H 0.63856 0.35783 0.96884 0.0
H169 H 0.5608 0.3992 0.728 0.0
H170 H 0.64424 0.49561 0.73133 0.0
H171 H 0.67056 0.47378 0.79164 0.0
H172 H 0.53838 0.41161 0.8096 0.0
H173 H 0.52166 0.36432 0.79018 0.0
H174 H 0.53617 0.37239 0.84072 0.0
H175 H 0.61514 0.32779 0.76735 0.0
H176 H 0.57518 0.30621 0.79015 0.0
H177 H 0.56871 0.33265 0.74769 0.0
H178 H 0.51391 0.24791 0.86522 0.0
C179 C 0.55555 0.29518 0.85965 0.0
C180 C 0.95526 0.72624 0.4362 0.0
C181 C 0.94887 0.74554 0.47258 0.0
C182 C 0.91836 0.72997 0.49419 0.0
C183 C 0.90381 0.67819 0.44517 0.0
C184 C 0.93301 0.69285 0.42351 0.0
C185 C 0.93576 0.67041 0.38517 0.0
H186 H 0.85957 0.53452 0.25294 0.0
C187 C 0.88406 0.64533 0.42241 0.0
C188 C 0.90275 0.6405 0.38719 0.0
H189 H 0.96261 0.60619 0.2452 0.0
H190 H 0.95393 0.63464 0.30956 0.0
H191 H 0.8782 0.5114 0.34392 0.0
H192 H 0.81081 0.59463 0.29107 0.0
H193 H 0.78681 0.58036 0.33257 0.0
H194 H 0.79451 0.5445 0.29419 0.0
H195 H 0.83566 0.49823 0.31653 0.0
H196 H 0.8352 0.51072 0.36798 0.0
C197 C 0.97374 0.65101 0.38494 0.0
C198 C 0.93047 0.69881 0.35199 0.0
C199 C 0.76176 0.58348 0.47107 0.0
C200 C 0.73445 0.55715 0.45305 0.0
C201 C 0.74225 0.53783 0.41756 0.0
C202 C 0.77602 0.54633 0.39888 0.0
C203 C 0.80208 0.57479 0.41573 0.0
C204 C 0.79516 0.59226 0.45163 0.0
C205 C 0.82505 0.62341 0.46387 0.0
C206 C 0.8509 0.62184 0.42938 0.0
C207 C 0.83719 0.59339 0.40126 0.0
C208 C 0.84453 0.61095 0.50153 0.0
C209 C 0.80642 0.66291 0.468 0.0
C210 C 0.88008 0.55643 0.26528 0.0
C211 C 0.91172 0.56837 0.2442 0.0
C212 C 0.938 0.59676 0.26106 0.0
C213 C 0.93301 0.61303 0.29845 0.0
C214 C 0.90149 0.60061 0.31944 0.0
C215 C 0.87601 0.57227 0.3031 0.0
C216 C 0.84522 0.56137 0.33051 0.0
C217 C 0.85588 0.58863 0.3655 0.0
C218 C 0.88874 0.6117 0.35875 0.0
C219 C 0.84831 0.5181 0.34023 0.0
C220 C 0.80723 0.57033 0.31128 0.0
H221 H 0.87393 0.68682 0.4991 0.0
H222 H 0.97575 0.73756 0.4163 0.0
H223 H 0.90846 0.7192 0.35936 0.0
H224 H 0.92083 0.68398 0.32419 0.0
H225 H 0.95686 0.71658 0.34707 0.0
H226 H 0.98217 0.64304 0.41474 0.0
H227 H -0.00352 0.67098 0.37414 0.0
H228 H 0.97251 0.62321 0.36745 0.0
H229 H 0.75614 0.59868 0.49836 0.0
H230 H 0.72151 0.51715 0.4036 0.0
H231 H 0.7799 0.53145 0.37137 0.0
H232 H 0.84846 0.57908 0.49999 0.0
H233 H 0.82745 0.61725 0.5274 0.0
H234 H 0.87298 0.62505 0.50632 0.0
H235 H 0.78172 0.66349 0.44783 0.0
H236 H 0.8251 0.68797 0.46 0.0
H237 H 0.79653 0.66828 0.49804 0.0
H238 H 0.90926 0.74402 0.52052 0.0
C239 C 0.89657 0.69645 0.48114 0.0
C240 C 0.90649 0.7727 0.96296 0.0
C241 C 0.93587 0.75112 0.94872 0.0
C242 C 0.9544 0.7632 0.91511 0.0
C243 C 0.91168 0.81475 0.9078 0.0
C244 C 0.8949 0.8044 0.94213 0.0
C245 C 0.86316 0.82976 0.95212 0.0
H246 H 0.73186 0.947 0.88915 0.0
C247 C 0.89006 0.8454 0.89043 0.0
C248 C 0.86149 0.85428 0.91633 0.0
H249 H 0.75033 0.91205 0.00678 0.0
H250 H 0.80651 0.88096 0.98703 0.0
H251 H 0.75303 0.87668 0.84216 0.0
H252 H 0.8241 0.9764 0.88267 0.0
H253 H 0.83344 0.96623 0.83338 0.0
H254 H 0.78704 0.97819 0.84687 0.0
H255 H 0.75508 0.92111 0.81662 0.0
H256 H 0.78698 0.88343 0.8065 0.0
C257 C 0.82686 0.8034 0.95602 0.0
C258 C 0.87439 0.85493 0.98955 0.0
C259 C 0.92109 0.89523 0.7558 0.0
C260 C 0.90107 0.91726 0.72967 0.0
C261 C 0.86483 0.92767 0.73947 0.0
C262 C 0.84978 0.91891 0.77555 0.0
C263 C 0.87067 0.89854 0.80207 0.0
C264 C 0.90499 0.88554 0.79148 0.0
C265 C 0.92051 0.85976 0.82165 0.0
C266 C 0.89126 0.86225 0.85323 0.0
C267 C 0.86261 0.88573 0.84171 0.0
C268 C 0.92167 0.81792 0.80312 0.0
C269 C 0.95917 0.87783 0.83642 0.0
C270 C 0.74817 0.93299 0.91077 0.0
C271 C 0.73592 0.93088 0.9493 0.0
C272 C 0.7587 0.91331 0.97675 0.0
C273 C 0.79118 0.89525 0.96529 0.0
C274 C 0.80194 0.89601 0.92626 0.0
C275 C 0.78164 0.91645 0.9003 0.0
C276 C 0.80002 0.91862 0.86145 0.0
C277 C 0.83385 0.89478 0.86791 0.0
C278 C 0.83423 0.88058 0.90557 0.0
C279 C 0.77247 0.89927 0.82981 0.0
C280 C 0.81169 0.96205 0.85534 0.0
H281 H 0.95736 0.8024 0.86892 0.0
H282 H 0.89195 0.764 0.98881 0.0
H283 H 0.90517 0.85633 0.99556 0.0
H284 H 0.86754 0.88572 0.98701 0.0
H285 H 0.86052 0.84303 0.0155 0.0
H286 H 0.82205 0.78353 0.92977 0.0
H287 H 0.82875 0.78523 0.98183 0.0
H288 H 0.80172 0.82019 0.95909 0.0
H289 H 0.94861 0.88595 0.74863 0.0
H290 H 0.84867 0.94398 0.71958 0.0
H291 H 0.82246 0.92858 0.78146 0.0
H292 H 0.90207 0.81304 0.77757 0.0
H293 H 0.95019 0.81221 0.79295 0.0
H294 H 0.91246 0.79522 0.82332 0.0
H295 H 0.95769 0.90952 0.84366 0.0
H296 H 0.96897 0.8647 0.86324 0.0
H297 H 0.98067 0.87447 0.81385 0.0
H298 H 0.97707 0.74693 0.90374 0.0
C299 C 0.9426 0.79495 0.89469 0.0
C300 C 0.74944 0.11173 0.46007 0.0
C301 C 0.77245 0.085 0.44202 0.0
C302 C 0.76259 0.06908 0.40456 0.0
C303 C 0.70599 0.10413 0.40453 0.0
C304 C 0.71648 0.12107 0.44064 0.0
C305 C 0.68849 0.14889 0.45523 0.0
H306 H 0.52932 0.24043 0.422 0.0
C307 C 0.66878 0.1172 0.39374 0.0
C308 C 0.65822 0.14339 0.42335 0.0
H309 H 0.61266 0.2653 0.51367 0.0
H310 H 0.64518 0.20867 0.49281 0.0
H311 H 0.52152 0.14842 0.43043 0.0
H312 H 0.58615 0.21858 0.35231 0.0
H313 H 0.55872 0.18042 0.32678 0.0
H314 H 0.53588 0.2158 0.3556 0.0
H315 H 0.50269 0.15973 0.38391 0.0
H316 H 0.52946 0.11742 0.38979 0.0
C317 C 0.67388 0.13518 0.49475 0.0
C318 C 0.70782 0.19066 0.45698 0.0
C319 C 0.60419 0.06694 0.26639 0.0
C320 C 0.56765 0.06979 0.25124 0.0
C321 C 0.54104 0.08763 0.27469 0.0
C322 C 0.55151 0.10554 0.31101 0.0
C323 C 0.58873 0.10474 0.32458 0.0
C324 C 0.61377 0.08379 0.30346 0.0
C325 C 0.65048 0.0816 0.32524 0.0
C326 C 0.6439 0.10652 0.36179 0.0
C327 C 0.60813 0.1211 0.36056 0.0
C328 C 0.65522 0.03831 0.33419 0.0
C329 C 0.68211 0.10027 0.30069 0.0
C330 C 0.55402 0.2328 0.43801 0.0
C331 C 0.56858 0.25692 0.46948 0.0
C332 C 0.60094 0.24673 0.48962 0.0
C333 C 0.62002 0.21426 0.47705 0.0
C334 C 0.60668 0.19188 0.44387 0.0
C335 C 0.57356 0.20051 0.42557 0.0
C336 C 0.56389 0.17349 0.39059 0.0
C337 C 0.59803 0.14919 0.38942 0.0
C338 C 0.62293 0.16013 0.42072 0.0
C339 C 0.52744 0.14854 0.3988 0.0
C340 C 0.56087 0.19821 0.35424 0.0
H341 H 0.72334 0.06507 0.3574 0.0
H342 H 0.75661 0.12435 0.48886 0.0
H343 H 0.73085 0.19339 0.43578 0.0
H344 H 0.68856 0.21302 0.44882 0.0
H345 H 0.72023 0.19854 0.48636 0.0
H346 H 0.66827 0.10296 0.49366 0.0
H347 H 0.69483 0.14298 0.51856 0.0
H348 H 0.64706 0.14734 0.5026 0.0
H349 H 0.62498 0.05269 0.24941 0.0
H350 H 0.51259 0.08963 0.26377 0.0
H351 H 0.53053 0.12008 0.32682 0.0
H352 H 0.62769 0.02129 0.33467 0.0
H353 H 0.6724 0.02387 0.31195 0.0
H354 H 0.66786 0.03497 0.36339 0.0
H355 H 0.67314 0.12749 0.28797 0.0
H356 H 0.70786 0.10901 0.31802 0.0
H357 H 0.68935 0.0801 0.27629 0.0
H358 H 0.78013 0.04846 0.39034 0.0
C359 C 0.72953 0.0785 0.38571 0.0
C360 C 0.40159 0.61721 0.27839 0.0
C361 C 0.38875 0.58023 0.29093 0.0
C362 C 0.35477 0.5639 0.27305 0.0
C363 C 0.35983 0.61004 0.22204 0.0
C364 C 0.3886 0.63015 0.24309 0.0
C365 C 0.40448 0.66511 0.22299 0.0
H366 H 0.40256 0.77847 0.06832 0.0
C367 C 0.35501 0.62965 0.18517 0.0
C368 C 0.38112 0.6619 0.18567 0.0
H369 H 0.46861 0.79753 0.17465 0.0
H370 H 0.44129 0.73715 0.19886 0.0
H371 H 0.3247 0.74842 0.11119 0.0
H372 H 0.4138 0.69199 0.05423 0.0
H373 H 0.3737 0.66013 0.04618 0.0
H374 H 0.37489 0.70829 0.02704 0.0
H375 H 0.33422 0.75089 0.06026 0.0
H376 H 0.30474 0.71187 0.07837 0.0
C377 C 0.39735 0.70222 0.24837 0.0
C378 C 0.44641 0.65941 0.21515 0.0
C379 C 0.25184 0.58306 0.08773 0.0
C380 C 0.2407 0.59752 0.05208 0.0
C381 C 0.26428 0.62492 0.03369 0.0
C382 C 0.29733 0.64046 0.05248 0.0
C383 C 0.30627 0.6287 0.09002 0.0
C384 C 0.28483 0.599 0.10622 0.0
C385 C 0.2991 0.58997 0.1461 0.0
C386 C 0.3313 0.62072 0.15197 0.0
C387 C 0.33487 0.64359 0.11927 0.0
C388 C 0.26758 0.59593 0.17567 0.0
C389 C 0.31285 0.5482 0.14381 0.0
C390 C 0.41066 0.76959 0.09699 0.0
C391 C 0.43716 0.79229 0.12006 0.0
C392 C 0.44775 0.78024 0.15696 0.0
C393 C 0.432 0.74528 0.17069 0.0
C394 C 0.40538 0.72265 0.14724 0.0
C395 C 0.39513 0.73498 0.11109 0.0
C396 C 0.36596 0.70778 0.09048 0.0
C397 C 0.36026 0.67697 0.12036 0.0
C398 C 0.38326 0.68598 0.15343 0.0
C399 C 0.33046 0.73068 0.08441 0.0
C400 C 0.38263 0.69125 0.05236 0.0
H401 H 0.31633 0.56284 0.22498 0.0
H402 H 0.4224 0.63579 0.29465 0.0
H403 H 0.45033 0.62881 0.20497 0.0
H404 H 0.45778 0.67768 0.19199 0.0
H405 H 0.46392 0.66566 0.24204 0.0
H406 H 0.37375 0.69696 0.26849 0.0
H407 H 0.42252 0.71222 0.26647 0.0
H408 H 0.38887 0.72651 0.23075 0.0
H409 H 0.23389 0.56181 0.1021 0.0
H410 H 0.25589 0.63598 0.00603 0.0
H411 H 0.31362 0.66242 0.0379 0.0
H412 H 0.25032 0.62022 0.16739 0.0
H413 H 0.24853 0.56923 0.17696 0.0
H414 H 0.27846 0.60444 0.2053 0.0
H415 H 0.32866 0.54319 0.1167 0.0
H416 H 0.33242 0.54258 0.16782 0.0
H417 H 0.28879 0.52608 0.14357 0.0
H418 H 0.33797 0.54074 0.28556 0.0
C419 C 0.34102 0.57778 0.23811 0.0
C420 C 0.04052 0.26957 0.56612 0.0
C421 C 0.05166 0.25312 0.53045 0.0
C422 C 0.07393 0.27585 0.5057 0.0
C423 C 0.08182 0.32679 0.55649 0.0
C424 C 0.05593 0.3066 0.5786 0.0
C425 C 0.05176 0.3263 0.61809 0.0
H426 H 0.11283 0.46569 0.75236 0.0
C427 C 0.09929 0.35954 0.58101 0.0
C428 C 0.08126 0.36005 0.61683 0.0
H429 H 0.02374 0.37606 0.76103 0.0
H430 H 0.03542 0.35191 0.69739 0.0
H431 H 0.0982 0.48921 0.66114 0.0
H432 H 0.16658 0.40783 0.7165 0.0
H433 H 0.19214 0.4263 0.67768 0.0
H434 H 0.17996 0.45901 0.71718 0.0
H435 H 0.13744 0.50392 0.69307 0.0
H436 H 0.14369 0.49315 0.64199 0.0
C437 C 0.01164 0.34067 0.61989 0.0
C438 C 0.0611 0.29733 0.64979 0.0
C439 C 0.22288 0.42333 0.53989 0.0
C440 C 0.24923 0.44961 0.55914 0.0
C441 C 0.23993 0.46853 0.59441 0.0
C442 C 0.20521 0.45969 0.61143 0.0
C443 C 0.17991 0.43132 0.5931 0.0
C444 C 0.18857 0.41448 0.55741 0.0
C445 C 0.15918 0.38398 0.54273 0.0
C446 C 0.13183 0.38448 0.5759 0.0
C447 C 0.14424 0.41196 0.60555 0.0
C448 C 0.14157 0.3976 0.50444 0.0
C449 C 0.17808 0.34468 0.53853 0.0
C450 C 0.09311 0.44341 0.73978 0.0
C451 C 0.06107 0.42913 0.75982 0.0
C452 C 0.04342 0.39336 0.74454 0.0
C453 C 0.0512 0.3781 0.70745 0.0
C454 C 0.07923 0.39667 0.68583 0.0
C455 C 0.10069 0.42787 0.7026 0.0
C456 C 0.13236 0.44104 0.67697 0.0
C457 C 0.12465 0.41407 0.64109 0.0
C458 C 0.09356 0.38802 0.6467 0.0
C459 C 0.12807 0.4842 0.66783 0.0
C460 C 0.16985 0.43353 0.698 0.0
H461 H 0.10772 0.3279 0.49952 0.0
H462 H 0.02345 0.25236 0.58554 0.0
H463 H 0.08116 0.2761 0.63904 0.0
H464 H 0.07538 0.31182 0.67584 0.0
H465 H 0.03546 0.28043 0.65883 0.0
H466 H 0.00389 0.35401 0.59218 0.0
H467 H 0.99076 0.31604 0.62442 0.0
H468 H 0.00865 0.3636 0.64283 0.0
H469 H 0.22971 0.40852 0.51277 0.0
H470 H 0.26012 0.48904 0.60943 0.0
H471 H 0.19987 0.47435 0.63874 0.0
H472 H 0.14516 0.42982 0.50238 0.0
H473 H 0.15466 0.38428 0.47851 0.0
H474 H 0.11083 0.3909 0.50254 0.0
H475 H 0.19669 0.34077 0.56423 0.0
H476 H 0.15814 0.31892 0.53701 0.0
H477 H 0.19552 0.34364 0.51219 0.0
H478 H 0.08264 0.26342 0.47812 0.0
C479 C 0.0889 0.31289 0.5185 0.0
O480 O -0.00183 0.00624 0.608 0.0
Mg481 Mg 0.0359 0.0286 0.56886 0.0
O482 O 0.9713 0.97175 0.55843 0.0
Mg483 Mg -0.00349 0.99587 0.49879 0.0
O484 O 0.01929 0.05894 0.5223 0.0
O485 O 0.04594 0.0862 0.5774 0.0
O486 O 0.02016 0.01807 0.43848 0.0
O487 O 0.93716 0.0228 0.49236 0.0
Mg488 Mg 0.94865 0.95974 0.42648 0.0
O489 O 0.97601 0.93549 0.47156 0.0
O490 O 0.98554 0.99005 0.38962 0.0
O491 O 0.90284 0.98886 0.44683 0.0
O492 O 0.94489 0.89982 0.4241 0.0
C493 C 0.08297 0.97315 0.53059 0.0
C494 C 0.97445 0.97996 0.59513 0.0
C495 C 0.03334 0.08972 0.54237 0.0
C496 C 0.01289 0.0129 0.40185 0.0
C497 C 0.90588 0.01508 0.47392 0.0
C498 C 0.96442 0.90162 0.45615 0.0
O499 O 0.08328 -0.00186 0.55862 0.0
O500 O 0.05454 0.96757 0.50736 0.0
O501 O 0.44537 0.05777 0.05324 0.0
Mg502 Mg 0.49979 0.06421 0.03091 0.0
O503 O 0.43566 0.0136 0.00635 0.0
Mg504 Mg 0.50071 0.00564 0.99752 0.0
O505 O 0.51523 0.07029 0.97551 0.0
O506 O 0.49646 0.11876 0.0146 0.0
O507 O 0.56577 0.9959 0.98888 0.0
O508 O 0.48413 0.00127 0.9295 0.0
Mg509 Mg 0.50684 0.93209 0.95849 0.0
O510 O 0.4883 0.94104 0.01399 0.0
O511 O 0.56516 0.9403 0.95404 0.0
O512 O 0.47293 0.93978 0.91068 0.0
O513 O 0.49065 0.88227 0.98304 0.0
C514 C 0.53599 0.03706 0.08667 0.0
C515 C 0.42265 0.03562 0.03286 0.0
C516 C 0.51073 0.10703 0.98256 0.0
C517 C 0.58319 0.96931 0.97094 0.0
C518 C 0.47228 0.97528 0.90372 0.0
C519 C 0.48384 0.9032 0.01381 0.0
O520 O 0.54648 0.06653 0.06853 0.0
O521 O 0.5145 0.01087 0.06839 0.0
O522 O 0.4631 0.59317 0.55903 0.0
Mg523 Mg 0.46076 0.53542 0.57159 0.0
O524 O 0.48236 0.57134 0.50245 0.0
Mg525 Mg 0.49238 0.50333 0.50425 0.0
O526 O 0.50642 0.50196 0.57119 0.0
O527 O 0.48444 0.53334 0.62385 0.0
O528 O 0.50739 0.4359 0.50131 0.0
O529 O 0.55575 0.52146 0.49808 0.0
Mg530 Mg 0.5209 0.47153 0.42084 0.0
O531 O 0.48076 0.50549 0.43989 0.0
O532 O 0.5072 0.41552 0.43912 0.0
O533 O 0.57345 0.49917 0.43993 0.0
O534 O 0.48905 0.49274 0.37703 0.0
C535 C 0.40248 0.48584 0.53433 0.0
C536 C 0.47261 0.59937 0.52484 0.0
C537 C 0.50712 0.5096 0.60863 0.0
C538 C 0.50948 0.40853 0.47488 0.0
C539 C 0.58074 0.5171 0.47253 0.0
C540 C 0.47091 0.50981 0.40419 0.0
O541 O 0.40911 0.50497 0.56606 0.0
O542 O 0.42779 0.48313 0.50877 0.0
O543 O 0.04442 0.43519 0.07504 0.0
Mg544 Mg 0.03948 0.49502 0.08351 0.0
O545 O 0.02225 0.44148 0.01544 0.0
Mg546 Mg 0.00319 0.50706 0.00958 0.0
O547 O 0.98677 0.51537 0.07589 0.0
O548 O 0.01552 0.50788 0.13383 0.0
O549 O 0.98057 0.57389 0.00724 0.0
O550 O 0.94313 0.4793 0.00248 0.0
Mg551 Mg 0.98208 0.53266 0.94649 0.0
O552 O 0.021 0.49214 0.94286 0.0
O553 O -0.00245 0.59205 0.9501 0.0
O554 O 0.92569 0.51286 0.95309 0.0
O555 O 0.99275 0.51806 0.89169 0.0
C556 C 0.09016 0.54282 0.03986 0.0
C557 C 0.03581 0.42048 0.0416 0.0
C558 C 0.98665 0.51706 0.11393 0.0
C559 C 0.98513 0.60101 0.98288 0.0
C560 C 0.91797 0.48863 0.97869 0.0
C561 C 0.01649 0.49535 0.90539 0.0
O562 O 0.08656 0.53145 0.07398 0.0
O563 O 0.06412 0.53581 0.01427 0.0
C564 C 0.05568 0.0271 0.30353 0.0
C565 C 0.06672 0.06755 0.30487 0.0
C566 C 0.04592 0.07282 0.3727 0.0
C567 C 0.03683 0.03189 0.37178 0.0
N568 N 0.04626 0.96923 0.34052 0.0
N569 N 0.08224 0.12616 0.34452 0.0
C570 C 0.04605 0.0088 0.33851 0.0
C571 C 0.06498 0.08957 0.3407 0.0
N572 N 0.05221 0.00636 0.26871 0.0
N573 N 0.03474 0.09618 0.4028 0.0
H574 H 0.09724 0.1389 0.32213 0.0
H575 H 0.08497 0.14209 0.371 0.0
H576 H 0.02045 0.0855 0.42653 0.0
H577 H 0.03699 0.12653 0.40267 0.0
H578 H 0.0407 0.97773 0.2661 0.0
H579 H 0.05693 0.01881 0.24202 0.0
H580 H 0.05585 0.95135 0.3181 0.0
H581 H 0.04117 0.95496 0.36625 0.0
C582 C 0.41071 0.95911 0.81642 0.0
C583 C 0.43683 0.96679 0.78661 0.0
C584 C 0.48299 0.9952 0.83539 0.0
C585 C 0.45769 0.98498 0.86499 0.0
N586 N 0.39427 0.97117 0.88388 0.0
N587 N 0.49285 0.00205 0.76618 0.0
C588 C 0.42027 0.972 0.85532 0.0
C589 C 0.47136 0.98838 0.79565 0.0
N590 N 0.37815 0.9369 0.80829 0.0
N591 N 0.51868 0.00918 0.84537 0.0
H592 H 0.48471 -0.00254 0.73694 0.0
H593 H 0.51686 0.0206 0.77065 0.0
H594 H 0.52722 0.01599 0.87418 0.0
H595 H 0.54002 0.01286 0.82545 0.0
H596 H 0.36024 0.92679 0.82966 0.0
H597 H 0.37021 0.92586 0.78046 0.0
H598 H 0.36566 0.96513 0.87846 0.0
H599 H 0.4012 0.98062 0.91256 0.0
C600 C 0.54365 0.47745 0.7034 0.0
C601 C 0.57965 0.46564 0.69424 0.0
C602 C 0.57005 0.48352 0.62704 0.0
C603 C 0.53206 0.49027 0.63549 0.0
N604 N 0.48043 0.4779 0.67892 0.0
N605 N 0.62458 0.44948 0.64573 0.0
C606 C 0.51811 0.48245 0.67286 0.0
C607 C 0.59217 0.46609 0.65548 0.0
N608 N 0.53378 0.48399 0.74119 0.0
N609 N 0.58582 0.49553 0.59343 0.0
H610 H 0.64158 0.43695 0.66614 0.0
H611 H 0.63274 0.44539 0.61699 0.0
H612 H 0.57172 0.51072 0.57283 0.0
H613 H 0.6143 0.49403 0.58803 0.0
H614 H 0.50857 0.49577 0.74862 0.0
H615 H 0.55232 0.48169 0.76471 0.0
H616 H 0.46949 0.46973 0.70547 0.0
H617 H 0.46047 0.47704 0.65627 0.0
C618 C 0.92801 0.51168 0.20002 0.0
C619 C 0.91867 0.55111 0.2048 0.0
C620 C 0.94126 0.56436 0.13948 0.0
C621 C 0.9531 0.52593 0.13631 0.0
N622 N 0.94432 0.4596 0.15488 0.0
N623 N 0.90413 0.61042 0.17471 0.0
C624 C 0.94128 0.49837 0.16358 0.0
C625 C 0.92098 0.57588 0.1728 0.0
N626 N 0.92744 0.48792 0.23088 0.0
N627 N 0.95147 0.59035 0.11213 0.0
H628 H 0.88884 0.61909 0.19877 0.0
H629 H 0.9023 0.62848 0.1513 0.0
H630 H 0.96517 0.58216 0.08689 0.0
H631 H 0.94761 0.62007 0.11512 0.0
H632 H 0.9381 0.46041 0.22979 0.0
H633 H 0.9191 0.49658 0.25858 0.0
H634 H 0.93355 0.43764 0.17221 0.0
H635 H 0.95422 0.44966 0.1281 0.0
C636 C 0.33747 0.05311 0.09168 0.0
C637 C 0.30938 0.0585 0.0629 0.0
C638 C 0.35506 0.04534 0.01199 0.0
C639 C 0.38183 0.03674 0.0411 0.0
N640 N 0.39352 0.02075 0.10758 0.0
N641 N 0.28927 0.05086 0.99542 0.0
C642 C 0.37127 0.03675 0.08058 0.0
C643 C 0.31748 0.05189 0.02291 0.0
N644 N 0.33297 0.06567 0.12944 0.0
N645 N 0.36569 0.04935 0.97439 0.0
H646 H 0.26143 0.05472 0.00235 0.0
H647 H 0.29289 0.04249 0.96633 0.0
H648 H 0.39269 0.04494 0.96503 0.0
H649 H 0.34841 0.05999 0.95307 0.0
H650 H 0.35421 0.06558 0.15066 0.0
H651 H 0.30983 0.08032 0.13863 0.0
H652 H 0.3855 0.01698 0.13621 0.0
H653 H 0.4179 0.00723 0.10015 0.0
C654 C 0.15944 0.91358 0.56732 0.0
C655 C 0.18829 0.9261 0.54216 0.0
C656 C 0.14218 0.95409 0.49951 0.0
C657 C 0.1151 0.94821 0.52851 0.0
N658 N 0.09501 0.91853 0.58725 0.0
N659 N 0.20807 0.95481 0.48276 0.0
C660 C 0.12274 0.92603 0.56124 0.0
C661 C 0.1798 0.94462 0.50726 0.0
N662 N 0.16745 0.89002 0.59704 0.0
N663 N 0.13193 0.96939 0.46517 0.0
H664 H 0.23559 0.94729 0.48729 0.0
H665 H 0.20483 0.97177 0.45876 0.0
H666 H 0.10459 0.97671 0.45921 0.0
H667 H 0.14938 0.97201 0.44147 0.0
H668 H 0.14743 0.87746 0.61498 0.0
H669 H 0.1942 0.88057 0.6022 0.0
H670 H 0.09931 0.90699 0.61431 0.0
H671 H 0.06723 0.92484 0.58187 0.0
C672 C 0.81244 0.48164 0.98382 0.0
C673 C 0.80476 0.44533 0.96324 0.0
C674 C 0.87146 0.43313 0.96381 0.0
C675 C 0.87945 0.47135 0.97992 0.0
N676 N 0.85931 0.5321 0.00688 0.0
N677 N 0.82615 0.38786 0.92986 0.0
C678 C 0.85036 0.49556 0.99073 0.0
C679 C 0.83399 0.4211 0.9527 0.0
N680 N 0.78343 0.5024 0.99683 0.0
N681 N 0.89978 0.40859 0.95861 0.0
H682 H 0.79907 0.37791 0.92079 0.0
H683 H 0.8466 0.37154 0.91723 0.0
H684 H 0.92784 0.41689 0.9652 0.0
H685 H 0.89531 0.37905 0.95088 0.0
H686 H 0.7868 0.52765 0.01464 0.0
H687 H 0.75535 0.49297 0.99174 0.0
H688 H 0.84011 0.5533 0.01109 0.0
H689 H 0.88669 0.5417 0.01532 0.0
C690 C 0.68559 0.51605 0.4866 0.0
C691 C 0.69634 0.55154 0.46905 0.0
C692 C 0.63117 0.56982 0.46884 0.0
C693 C 0.61985 0.53217 0.48059 0.0
N694 N 0.63469 0.47129 0.50678 0.0
N695 N 0.67899 0.61468 0.44755 0.0
C696 C 0.64675 0.50601 0.49195 0.0
C697 C 0.66941 0.57934 0.4622 0.0
N698 N 0.7127 0.49227 0.4979 0.0
N699 N 0.60511 0.59631 0.46229 0.0
H700 H 0.70627 0.62443 0.44096 0.0
H701 H 0.70627 0.62443 0.44096 0.0
H702 H 0.57663 0.59061 0.46742 0.0
H703 H 0.61232 0.62426 0.45302 0.0
H704 H 0.70754 0.46645 0.51205 0.0
H705 H 0.74124 0.49959 0.49479 0.0
H706 H 0.65182 0.44884 0.51263 0.0
H707 H 0.60669 0.46508 0.51364 0.0
C708 C 0.07742 0.32497 0.00966 0.0
C709 C 0.06384 0.30125 0.03986 0.0
C710 C 0.01916 0.3505 0.05604 0.0
C711 C 0.04058 0.37804 0.03456 0.0
N712 N 0.08888 0.39053 0.98779 0.0
N713 N 0.00307 0.28196 0.06401 0.0
C714 C 0.06897 0.36491 0.0099 0.0
C715 C 0.02894 0.31099 0.05536 0.0
N716 N 0.09264 0.30812 0.97762 0.0
N717 N 0.98991 0.3621 0.07766 0.0
H718 H 0.00758 0.25268 0.05767 0.0
H719 H 0.97582 0.28698 0.0722 0.0
H720 H 0.98036 0.39012 0.07689 0.0
H721 H 0.97633 0.34428 0.09746 0.0
H722 H 0.10014 0.32355 0.95323 0.0
H723 H 0.09205 0.27784 0.97335 0.0
H724 H 0.11252 0.38295 0.97264 0.0
H725 H 0.08297 0.41975 0.98641 0.0
C726 C 0.53563 0.16938 0.89656 0.0
C727 C 0.54914 0.20396 0.91791 0.0
C728 C 0.5475 0.16919 0.97758 0.0
C729 C 0.52752 0.13711 0.95804 0.0
N730 N 0.49833 0.10807 0.89876 0.0
N731 N 0.55537 0.23892 0.98064 0.0
C732 C 0.52041 0.13731 0.91731 0.0
C733 C 0.55122 0.20457 0.95906 0.0
N734 N 0.53835 0.16662 0.85702 0.0
N735 N 0.56359 0.16578 0.01357 0.0
H736 H 0.55473 0.266 0.9682 0.0
H737 H 0.55467 0.24016 0.01097 0.0
H738 H 0.56368 0.13923 0.02716 0.0
H739 H 0.58066 0.1882 0.02737 0.0
H740 H 0.53191 0.14078 0.84063 0.0
H741 H 0.55027 0.1891 0.84102 0.0
H742 H 0.48944 0.10899 0.86979 0.0
H743 H 0.48647 0.08439 0.91311 0.0
C744 C 0.95572 0.8102 0.51297 0.0
C745 C 0.96965 0.78456 0.48422 0.0
C746 C -0.00102 0.84077 0.45293 0.0
C747 C 0.97414 0.86474 0.47302 0.0
N748 N 0.93195 0.87355 0.52617 0.0
N749 N 0.02672 0.77804 0.44972 0.0
C750 C 0.95404 0.85014 0.50493 0.0
C751 C -0.0015 0.80056 0.461 0.0
N752 N 0.94907 0.79756 0.5493 0.0
N753 N 0.02148 0.85601 0.42504 0.0
H754 H 0.02779 0.74948 0.4587 0.0
H755 H 0.05033 0.7887 0.43532 0.0
H756 H 0.02355 0.88578 0.41998 0.0
H757 H 0.03697 0.83898 0.40637 0.0
H758 H 0.94138 0.8159 0.57228 0.0
H759 H 0.95619 0.76989 0.55706 0.0
H760 H 0.91381 0.86282 0.54713 0.0
H761 H 0.9308 0.90325 0.52158 0.0
C762 C 0.43981 0.69217 0.48511 0.0
C763 C 0.45384 0.7176 0.51638 0.0
C764 C 0.49666 0.66869 0.53459 0.0
C765 C 0.4735 0.64011 0.51288 0.0
N766 N 0.42561 0.62507 0.46294 0.0
N767 N 0.51465 0.73759 0.54411 0.0
C768 C 0.44645 0.65197 0.48592 0.0
C769 C 0.48834 0.70843 0.53351 0.0
N770 N 0.4245 0.70711 0.45284 0.0
N771 N 0.52556 0.65765 0.55732 0.0
H772 H 0.5106 0.76656 0.53809 0.0
H773 H 0.54161 0.73261 0.55399 0.0
H774 H 0.53368 0.629 0.55679 0.0
H775 H 0.54037 0.67666 0.57739 0.0
H776 H 0.41662 0.69013 0.42781 0.0
H777 H 0.42439 0.7372 0.44984 0.0
H778 H 0.40281 0.6323 0.4459 0.0
H779 H 0.43013 0.5954 0.46239 0.0
C780 C 0.93038 0.90567 0.66351 0.0
C781 C 0.91822 0.93184 0.69315 0.0
C782 C 0.93161 0.98616 0.65064 0.0
C783 C 0.94959 0.96121 0.62414 0.0
N784 N 0.9709 0.89738 0.6084 0.0
N785 N 0.91609 -0.00137 0.71772 0.0
C786 C 0.95007 0.92085 0.63114 0.0
C787 C 0.92111 0.97258 0.68742 0.0
N788 N 0.92235 0.86648 0.66561 0.0
N789 N 0.92459 0.02305 0.64061 0.0
H790 H 0.91092 0.99022 0.74598 0.0
H791 H 0.9214 0.02862 0.71577 0.0
H792 H 0.9311 0.03356 0.61336 0.0
H793 H 0.90869 0.04137 0.65755 0.0
H794 H 0.92753 0.8465 0.64304 0.0
H795 H 0.90725 0.85439 0.68826 0.0
H796 H 0.97583 0.86887 0.61511 0.0
H797 H 0.98553 0.90731 0.58447 0.0
C798 C 0.54555 0.08789 0.18532 0.0
C799 C 0.5582 0.05885 0.20947 0.0
C800 C 0.55501 0.01227 0.1527 0.0
C801 C 0.53913 0.04078 0.12998 0.0
N802 N 0.50662 0.10039 0.13004 0.0
N803 N 0.56796 0.99084 0.2178 0.0
C804 C 0.5303 0.07682 0.14808 0.0
C805 C 0.56088 0.02014 0.19368 0.0
N806 N 0.54986 0.1265 0.19685 0.0
N807 N 0.56561 0.97849 0.13514 0.0
H808 H 0.57151 0.99546 0.24785 0.0
H809 H 0.56695 0.96157 0.20846 0.0
H810 H 0.56112 0.97181 0.10547 0.0
H811 H 0.58095 0.95846 0.14948 0.0
H812 H 0.54393 0.14872 0.17843 0.0
H813 H 0.56351 0.13656 0.22278 0.0
H814 H 0.49704 0.1254 0.14371 0.0
H815 H 0.49306 0.09246 0.10351 0.0
C816 C 0.39555 0.52621 0.34038 0.0
C817 C 0.40976 0.5611 0.32329 0.0
C818 C 0.45735 0.56984 0.37577 0.0
C819 C 0.44243 0.5361 0.39265 0.0
N820 N 0.39112 0.48913 0.3987 0.0
N821 N 0.47062 0.59387 0.31321 0.0
C822 C 0.40867 0.51754 0.37799 0.0
C823 C 0.44512 0.57788 0.33792 0.0
N824 N 0.37742 0.49702 0.31784 0.0
N825 N 0.48609 0.59167 0.39427 0.0
H826 H 0.46644 0.59161 0.28305 0.0
H827 H 0.49785 0.60358 0.32205 0.0
H828 H 0.49611 0.58478 0.42173 0.0
H829 H 0.49693 0.61801 0.38383 0.0
H830 H 0.36857 0.47012 0.32847 0.0
H831 H 0.37812 0.4969 0.28752 0.0
H832 H 0.36488 0.47596 0.39049 0.0
H833 H 0.40163 0.48201 0.42589 0.0
C834 C 0.06705 0.48322 0.81483 0.0
C835 C 0.04831 0.44859 0.79775 0.0
C836 C 0.01452 0.44008 0.85851 0.0
C837 C 0.03607 0.47184 0.87642 0.0
N838 N 0.08739 0.51992 0.87412 0.0
N839 N 0.98528 0.41871 0.79749 0.0
C840 C 0.06433 0.49164 0.85544 0.0
C841 C 0.01677 0.43282 0.81786 0.0
N842 N 0.08001 0.51209 0.79166 0.0
N843 N 0.98995 0.41845 0.87996 0.0
H844 H 0.98241 0.42185 0.76754 0.0
H845 H 0.96036 0.41 0.81082 0.0
H846 H 0.98757 0.42381 0.90991 0.0
H847 H 0.97504 0.39334 0.86851 0.0
H848 H 0.09126 0.53919 0.80253 0.0
H849 H 0.0734 0.51133 0.76192 0.0
H850 H 0.11043 0.5335 0.86089 0.0
H851 H 0.0853 0.52665 0.90388 0.0
C852 C 0.67169 0.91894 0.9778 0.0
C853 C 0.69831 0.94472 0.96019 0.0
C854 C 0.65003 0.99268 0.9554 0.0
C855 C 0.62461 0.96715 0.97458 0.0
N856 N 0.617 0.91449 0.01785 0.0
N857 N 0.71531 0.01074 0.94264 0.0
C858 C 0.63758 0.9332 0.99053 0.0
C859 C 0.6883 0.98317 0.95222 0.0
N860 N 0.67727 0.88013 0.97977 0.0
N861 N 0.63751 0.02507 0.93915 0.0
H862 H 0.74365 0.00521 0.94172 0.0
H863 H 0.7101 0.03992 0.9396 0.0
H864 H 0.61002 0.03315 0.94214 0.0
H865 H 0.65378 0.04251 0.92111 0.0
H866 H 0.65684 0.86006 0.98947 0.0
H867 H 0.70003 0.86716 0.96741 0.0
H868 H 0.62636 0.89081 0.03238 0.0
H869 H 0.59302 0.92612 0.02918 0.0
C870 C 0.8392 0.09369 0.46829 0.0
C871 C 0.80514 0.07037 0.46297 0.0
C872 C 0.83655 0.01302 0.48296 0.0
C873 C 0.87132 0.03545 0.48345 0.0
N874 N 0.90146 0.09896 0.49802 0.0
N875 N 0.7685 0.01187 0.47762 0.0
C876 C 0.87142 0.07651 0.48301 0.0
C877 C 0.80286 0.03125 0.47464 0.0
N878 N 0.84139 0.1315 0.45751 0.0
N879 N 0.83624 0.97412 0.48959 0.0
H880 H 0.74347 0.02499 0.47221 0.0
H881 H 0.76444 0.98416 0.48839 0.0
H882 H 0.86019 0.9612 0.49932 0.0
H883 H 0.81287 0.9547 0.48509 0.0
H884 H 0.86664 0.14834 0.45678 0.0
H885 H 0.81831 0.1452 0.44691 0.0
H886 H 0.90188 0.12925 0.50106 0.0
H887 H 0.92329 0.08683 0.51279 0.0
C888 C 0.17355 0.61299 0.05097 0.0
C889 C 0.20177 0.5886 0.03788 0.0
C890 C 0.15431 0.53853 0.01406 0.0
C891 C 0.12642 0.56173 0.0298 0.0
N892 N 0.10717 0.62398 0.05283 0.0
N893 N 0.22007 0.5336 -0.00108 0.0
C894 C 0.1354 0.60019 0.04453 0.0
C895 C 0.1924 0.55318 0.01641 0.0
N896 N 0.18329 0.64706 0.07178 0.0
N897 N 0.14445 0.50172 -0.00085 0.0
H898 H 0.24819 0.5439 0.00065 0.0
H899 H 0.21508 0.50904 0.98036 0.0
H900 H 0.11658 0.49092 0.99568 0.0
H901 H 0.16363 0.48139 0.99139 0.0
H902 H 0.16414 0.66372 0.08623 0.0
H903 H 0.21099 0.65798 0.07636 0.0
H904 H 0.11142 0.65356 0.06047 0.0
H905 H 0.07902 0.61449 0.04867 0.0
C906 C 0.29814 0.4854 0.52044 0.0
C907 C 0.28794 0.45421 0.54456 0.0
C908 C 0.35267 0.43448 0.54502 0.0
C909 C 0.36375 0.46942 0.52712 0.0
N910 N 0.34852 0.52705 0.49475 0.0
N911 N 0.30437 0.39798 0.57933 0.0
C912 C 0.33675 0.49416 0.51314 0.0
C913 C 0.31479 0.42794 0.55613 0.0
N914 N 0.27087 0.50655 0.50485 0.0
N915 N 0.37877 0.40802 0.55162 0.0
H916 H 0.27674 0.39175 0.58742 0.0
H917 H 0.32323 0.3804 0.59233 0.0
H918 H 0.4066 0.41267 0.54339 0.0
H919 H 0.37242 0.38038 0.56182 0.0
H920 H 0.27589 0.52765 0.48448 0.0
H921 H 0.24246 0.50107 0.51032 0.0
H922 H 0.33118 0.54903 0.48776 0.0
H923 H 0.37645 0.53283 0.48732 0.0
C924 C 0.92367 0.67841 0.95021 0.0
C925 C 0.94392 0.71283 0.96521 0.0
C926 C 0.98545 0.6729 0.00278 0.0
C927 C 0.96624 0.63864 0.98622 0.0
N928 N 0.91041 0.60882 0.95477 0.0
N929 N 0.98851 0.74379 0.01191 0.0
C930 C 0.93308 0.64159 0.96343 0.0
C931 C 0.973 0.71035 0.9937 0.0
N932 N 0.89652 0.68074 0.92192 0.0
N933 N 0.01618 0.66937 0.02623 0.0
H934 H 0.98002 0.77132 0.00547 0.0
H935 H 0.00779 0.74431 0.03504 0.0
H936 H 0.02362 0.64225 0.03511 0.0
H937 H 0.03432 0.69266 0.03629 0.0
H938 H 0.88424 0.65656 0.90613 0.0
H939 H 0.88777 0.70711 0.9123 0.0
H940 H 0.88417 0.60887 0.94107 0.0
H941 H 0.91628 0.58202 0.96549 0.0
C942 C 0.43456 0.86076 0.10045 0.0
C943 C 0.45524 0.82719 0.10345 0.0
C944 C 0.50179 0.85394 0.05968 0.0
C945 C 0.4769 0.88275 0.04993 0.0
N946 N 0.41997 0.91522 0.06155 0.0
N947 N 0.50841 0.79074 0.08604 0.0
C948 C 0.44377 0.88739 0.07114 0.0
C949 C 0.48934 0.82385 0.08384 0.0
N950 N 0.4058 0.86643 0.12518 0.0
N951 N 0.53727 0.85533 0.0455 0.0
H952 H 0.50071 0.76826 0.10424 0.0
H953 H 0.53056 0.78446 0.06809 0.0
H954 H 0.5471 0.87697 0.02735 0.0
H955 H 0.5579 0.83742 0.05458 0.0
H956 H 0.39142 0.89182 0.12678 0.0
H957 H 0.39869 0.84695 0.14669 0.0
H958 H 0.39342 0.9172 0.07309 0.0
H959 H 0.42584 0.93529 0.04032 0.0
C960 C 0.01677 0.19021 0.50646 0.0
C961 C 0.04909 0.21016 0.52433 0.0
C962 C 0.07607 0.1481 0.53548 0.0
C963 C 0.04105 0.12843 0.52531 0.0
N964 N 0.98436 0.12793 0.48645 0.0
N965 N 0.1094 0.20844 0.55742 0.0
C966 C 0.01311 0.14855 0.50616 0.0
C967 C 0.07907 0.18922 0.53859 0.0
N968 N 0.98908 0.21127 0.49158 0.0
N969 N 0.1067 0.127 0.54127 0.0
H970 H 0.11343 0.23872 0.56009 0.0
H971 H 0.12939 0.19429 0.573 0.0
H972 H 0.10537 0.09666 0.53733 0.0
H973 H 0.13387 0.13957 0.5454 0.0
H974 H 0.96305 0.19921 0.48155 0.0
H975 H 0.99182 0.2416 0.49051 0.0
H976 H 0.96492 0.14042 0.46874 0.0
H977 H 0.98226 0.09761 0.4844 0.0
C978 C 0.52233 0.30245 0.49831 0.0
C979 C 0.5548 0.29653 0.47615 0.0
C980 C 0.56265 0.36649 0.46635 0.0
C981 C 0.52721 0.37171 0.48311 0.0
N982 N 0.47261 0.34527 0.51474 0.0
N983 N 0.60326 0.32215 0.43453 0.0
C984 C 0.50698 0.33992 0.49953 0.0
C985 C 0.57445 0.32841 0.45922 0.0
N986 N 0.50645 0.27235 0.5182 0.0
N987 N 0.58509 0.39829 0.45711 0.0
H988 H 0.61313 0.29474 0.42833 0.0
H989 H 0.61533 0.34366 0.41748 0.0
H990 H 0.5772 0.42672 0.46177 0.0
H991 H 0.61277 0.39675 0.44857 0.0
H992 H 0.48482 0.27542 0.53767 0.0
H993 H 0.51686 0.24466 0.51724 0.0
H994 H 0.45445 0.32262 0.52352 0.0
H995 H 0.46162 0.37265 0.51697 0.0
loop_
_geom_bond_atom_site_label_1
_geom_bond_atom_site_label_2
_geom_bond_distance
_geom_bond_site_symmetry_2
_ccdc_geom_bond_type
C0 C1 1.391 . S
C0 C4 1.391 . S
C0 H42 0.948 . S
C1 C0 1.391 . S
C1 C2 1.391 . S
C2 C1 1.391 . S
C2 H58 0.947 . S
C2 C59 1.392 . S
C3 C4 1.391 . S
C3 C7 1.397 . S
C3 C59 1.419 . S
C4 C0 1.391 . S
C4 C3 1.391 . S
C4 C5 1.399 . S
C5 C4 1.399 . S
C5 C8 1.396 . S
C5 C17 1.453 . S
C5 C18 1.684 . S
H6 C30 0.948 . S
C7 C3 1.397 . S
C7 C8 1.394 . S
C7 C26 1.723 . S
C8 C5 1.396 . S
C8 C7 1.394 . S
C8 C38 1.723 . S
H9 C32 0.947 . S
H10 C33 0.948 . S
H11 C39 0.982 . S
H12 C40 0.979 . S
H13 C40 0.980 . S
H14 C40 0.983 . S
H15 C39 0.979 . S
H16 C39 0.977 . S
C17 C5 1.453 . S
C17 H46 0.982 . S
C17 H47 0.979 . S
C17 H48 0.977 . S
C18 C5 1.684 . S
C18 H43 0.979 . S
C18 H44 0.980 . S
C18 H45 0.983 . S
C19 C20 1.391 . S
C19 C24 1.391 . S
C19 H49 0.948 . S
C20 C19 1.391 . S
C20 C21 1.391 . S
C21 C20 1.391 . S
C21 C22 1.392 . S
C21 H50 0.947 . S
C22 C21 1.392 . S
C22 C23 1.419 . S
C22 H51 0.948 . S
C23 C22 1.419 . S
C23 C24 1.391 . S
C23 C27 1.397 . S
C24 C19 1.391 . S
C24 C23 1.391 . S
C24 C25 1.399 . S
C25 C24 1.399 . S
C25 C26 1.396 . S
C25 C28 1.453 . S
C25 C29 1.684 . S
C26 C7 1.723 . S
C26 C25 1.396 . S
C26 C27 1.394 . S
C27 C23 1.397 . S
C27 C26 1.394 . S
C27 C37 1.723 . S
C28 C25 1.453 . S
C28 H52 0.982 . S
C28 H53 0.979 . S
C28 H54 0.977 . S
C29 C25 1.684 . S
C29 H55 0.979 . S
C29 H56 0.980 . S
C29 H57 0.983 . S
C30 H6 0.948 . S
C30 C31 1.391 . S
C30 C35 1.391 . S
C31 C30 1.391 . S
C31 C32 1.391 . S
C32 H9 0.947 . S
C32 C31 1.391 . S
C32 C33 1.392 . S
C33 H10 0.948 . S
C33 C32 1.392 . S
C33 C34 1.419 . S
C34 C33 1.419 . S
C34 C35 1.391 . S
C34 C38 1.397 . S
C35 C30 1.391 . S
C35 C34 1.391 . S
C35 C36 1.399 . S
C36 C35 1.399 . S
C36 C37 1.396 . S
C36 C39 1.453 . S
C36 C40 1.684 . S
C37 C27 1.723 . S
C37 C36 1.396 . S
C37 C38 1.394 . S
C38 C8 1.723 . S
C38 C34 1.397 . S
C38 C37 1.394 . S
C39 H11 0.982 . S
C39 H15 0.979 . S
C39 H16 0.977 . S
C39 C36 1.453 . S
C40 H12 0.979 . S
C40 H13 0.980 . S
C40 H14 0.983 . S
C40 C36 1.684 . S
H41 C59 0.948 . S
H42 C0 0.948 . S
H43 C18 0.979 . S
H44 C18 0.980 . S
H45 C18 0.983 . S
H46 C17 0.982 . S
H47 C17 0.979 . S
H48 C17 0.977 . S
H49 C19 0.948 . S
H50 C21 0.947 . S
H51 C22 0.948 . S
H52 C28 0.982 . S
H53 C28 0.979 . S
H54 C28 0.977 . S
H55 C29 0.979 . S
H56 C29 0.980 . S
H57 C29 0.983 . S
H58 C2 0.947 . S
C59 C2 1.392 . S
C59 C3 1.419 . S
C59 H41 0.948 . S
C60 C61 1.391 . S
C60 C64 1.391 . S
C60 H102 0.948 . S
C61 C60 1.391 . S
C61 C62 1.391 . S
C62 C61 1.391 . S
C62 H118 0.947 . S
C62 C119 1.392 . S
C63 C64 1.391 . S
C63 C67 1.397 . S
C63 C119 1.419 . S
C64 C60 1.391 . S
C64 C63 1.391 . S
C64 C65 1.399 . S
C65 C64 1.399 . S
C65 C68 1.396 . S
C65 C77 1.453 . S
C65 C78 1.684 . S
H66 C90 0.948 . S
C67 C63 1.397 . S
C67 C68 1.394 . S
C67 C86 1.723 . S
C68 C65 1.396 . S
C68 C67 1.394 . S
C68 C98 1.723 . S
H69 C92 0.947 . S
H70 C93 0.948 . S
H71 C99 0.982 . S
H72 C100 0.979 . S
H73 C100 0.980 . S
H74 C100 0.983 . S
H75 C99 0.979 . S
H76 C99 0.977 . S
C77 C65 1.453 . S
C77 H106 0.982 . S
C77 H107 0.979 . S
C77 H108 0.977 . S
C78 C65 1.684 . S
C78 H103 0.979 . S
C78 H104 0.980 . S
C78 H105 0.983 . S
C79 C80 1.391 . S
C79 C84 1.391 . S
C79 H109 0.948 . S
C80 C79 1.391 . S
C80 C81 1.391 . S
C81 C80 1.391 . S
C81 C82 1.392 . S
C81 H110 0.947 . S
C82 C81 1.392 . S
C82 C83 1.419 . S
C82 H111 0.948 . S
C83 C82 1.419 . S
C83 C84 1.391 . S
C83 C87 1.397 . S
C84 C79 1.391 . S
C84 C83 1.391 . S
C84 C85 1.399 . S
C85 C84 1.399 . S
C85 C86 1.396 . S
C85 C88 1.453 . S
C85 C89 1.684 . S
C86 C67 1.723 . S
C86 C85 1.396 . S
C86 C87 1.394 . S
C87 C83 1.397 . S
C87 C86 1.394 . S
C87 C97 1.723 . S
C88 C85 1.453 . S
C88 H112 0.982 . S
C88 H113 0.979 . S
C88 H114 0.977 . S
C89 C85 1.684 . S
C89 H115 0.979 . S
C89 H116 0.980 . S
C89 H117 0.983 . S
C90 H66 0.948 . S
C90 C91 1.391 . S
C90 C95 1.391 . S
C91 C90 1.391 . S
C91 C92 1.391 . S
C92 H69 0.947 . S
C92 C91 1.391 . S
C92 C93 1.392 . S
C93 H70 0.948 . S
C93 C92 1.392 . S
C93 C94 1.419 . S
C94 C93 1.419 . S
C94 C95 1.391 . S
C94 C98 1.397 . S
C95 C90 1.391 . S
C95 C94 1.391 . S
C95 C96 1.399 . S
C96 C95 1.399 . S
C96 C97 1.396 . S
C96 C99 1.453 . S
C96 C100 1.684 . S
C97 C87 1.723 . S
C97 C96 1.396 . S
C97 C98 1.394 . S
C98 C68 1.723 . S
C98 C94 1.397 . S
C98 C97 1.394 . S
C99 H71 0.982 . S
C99 H75 0.979 . S
C99 H76 0.977 . S
C99 C96 1.453 . S
C100 H72 0.979 . S
C100 H73 0.980 . S
C100 H74 0.983 . S
C100 C96 1.684 . S
H101 C119 0.948 . S
H102 C60 0.948 . S
H103 C78 0.979 . S
H104 C78 0.980 . S
H105 C78 0.983 . S
H106 C77 0.982 . S
H107 C77 0.979 . S
H108 C77 0.977 . S
H109 C79 0.948 . S
H110 C81 0.947 . S
H111 C82 0.948 . S
H112 C88 0.982 . S
H113 C88 0.979 . S
H114 C88 0.977 . S
H115 C89 0.979 . S
H116 C89 0.980 . S
H117 C89 0.983 . S
H118 C62 0.947 . S
C119 C62 1.392 . S
C119 C63 1.419 . S
C119 H101 0.948 . S
C120 C121 1.391 . S
C120 C124 1.391 . S
C120 H162 0.948 . S
C121 C120 1.391 . S
C121 C122 1.391 . S
C122 C121 1.391 . S
C122 H178 0.947 . S
C122 C179 1.392 . S
C123 C124 1.391 . S
C123 C127 1.397 . S
C123 C179 1.419 . S
C124 C120 1.391 . S
C124 C123 1.391 . S
C124 C125 1.399 . S
C125 C124 1.399 . S
C125 C128 1.396 . S
C125 C137 1.453 . S
C125 C138 1.684 . S
H126 C150 0.948 . S
C127 C123 1.397 . S
C127 C128 1.394 . S
C127 C146 1.723 . S
C128 C125 1.396 . S
C128 C127 1.394 . S
C128 C158 1.723 . S
H129 C152 0.947 . S
H130 C153 0.948 . S
H131 C159 0.982 . S
H132 C160 0.979 . S
H133 C160 0.980 . S
H134 C160 0.983 . S
H135 C159 0.979 . S
H136 C159 0.977 . S
C137 C125 1.453 . S
C137 H166 0.982 . S
C137 H167 0.979 . S
C137 H168 0.977 . S
C138 C125 1.684 . S
C138 H163 0.979 . S
C138 H164 0.980 . S
C138 H165 0.983 . S
C139 C140 1.391 . S
C139 C144 1.391 . S
C139 H169 0.948 . S
C140 C139 1.391 . S
C140 C141 1.391 . S
C141 C140 1.391 . S
C141 C142 1.392 . S
C141 H170 0.947 . S
C142 C141 1.392 . S
C142 C143 1.419 . S
C142 H171 0.948 . S
C143 C142 1.419 . S
C143 C144 1.391 . S
C143 C147 1.397 . S
C144 C139 1.391 . S
C144 C143 1.391 . S
C144 C145 1.399 . S
C145 C144 1.399 . S
C145 C146 1.396 . S
C145 C148 1.453 . S
C145 C149 1.684 . S
C146 C127 1.723 . S
C146 C145 1.396 . S
C146 C147 1.394 . S
C147 C143 1.397 . S
C147 C146 1.394 . S
C147 C157 1.723 . S
C148 C145 1.453 . S
C148 H172 0.982 . S
C148 H173 0.979 . S
C148 H174 0.977 . S
C149 C145 1.684 . S
C149 H175 0.979 . S
C149 H176 0.980 . S
C149 H177 0.983 . S
C150 H126 0.948 . S
C150 C151 1.391 . S
C150 C155 1.391 . S
C151 C150 1.391 . S
C151 C152 1.391 . S
C152 H129 0.947 . S
C152 C151 1.391 . S
C152 C153 1.392 . S
C153 H130 0.948 . S
C153 C152 1.392 . S
C153 C154 1.419 . S
C154 C153 1.419 . S
C154 C155 1.391 . S
C154 C158 1.397 . S
C155 C150 1.391 . S
C155 C154 1.391 . S
C155 C156 1.399 . S
C156 C155 1.399 . S
C156 C157 1.396 . S
C156 C159 1.453 . S
C156 C160 1.684 . S
C157 C147 1.723 . S
C157 C156 1.396 . S
C157 C158 1.394 . S
C158 C128 1.723 . S
C158 C154 1.397 . S
C158 C157 1.394 . S
C159 H131 0.982 . S
C159 H135 0.979 . S
C159 H136 0.977 . S
C159 C156 1.453 . S
C160 H132 0.979 . S
C160 H133 0.980 . S
C160 H134 0.983 . S
C160 C156 1.684 . S
H161 C179 0.948 . S
H162 C120 0.948 . S
H163 C138 0.979 . S
H164 C138 0.980 . S
H165 C138 0.983 . S
H166 C137 0.982 . S
H167 C137 0.979 . S
H168 C137 0.977 . S
H169 C139 0.948 . S
H170 C141 0.947 . S
H171 C142 0.948 . S
H172 C148 0.982 . S
H173 C148 0.979 . S
H174 C148 0.977 . S
H175 C149 0.979 . S
H176 C149 0.980 . S
H177 C149 0.983 . S
H178 C122 0.947 . S
C179 C122 1.392 . S
C179 C123 1.419 . S
C179 H161 0.948 . S
C180 C181 1.391 . S
C180 C184 1.391 . S
C180 H222 0.948 . S
C181 C180 1.391 . S
C181 C182 1.391 . S
C182 C181 1.391 . S
C182 H238 0.947 . S
C182 C239 1.392 . S
C183 C184 1.391 . S
C183 C187 1.397 . S
C183 C239 1.419 . S
C184 C180 1.391 . S
C184 C183 1.391 . S
C184 C185 1.399 . S
C185 C184 1.399 . S
C185 C188 1.396 . S
C185 C197 1.453 . S
C185 C198 1.684 . S
H186 C210 0.948 . S
C187 C183 1.397 . S
C187 C188 1.394 . S
C187 C206 1.723 . S
C188 C185 1.396 . S
C188 C187 1.394 . S
C188 C218 1.723 . S
H189 C212 0.947 . S
H190 C213 0.948 . S
H191 C219 0.982 . S
H192 C220 0.979 . S
H193 C220 0.980 . S
H194 C220 0.983 . S
H195 C219 0.979 . S
H196 C219 0.977 . S
C197 C185 1.453 . S
C197 H226 0.982 . S
C197 H227 0.979 . S
C197 H228 0.977 . S
C198 C185 1.684 . S
C198 H223 0.979 . S
C198 H224 0.980 . S
C198 H225 0.983 . S
C199 C200 1.391 . S
C199 C204 1.391 . S
C199 H229 0.948 . S
C200 C199 1.391 . S
C200 C201 1.391 . S
C201 C200 1.391 . S
C201 C202 1.392 . S
C201 H230 0.947 . S
C202 C201 1.392 . S
C202 C203 1.419 . S
C202 H231 0.948 . S
C203 C202 1.419 . S
C203 C204 1.391 . S
C203 C207 1.397 . S
C204 C199 1.391 . S
C204 C203 1.391 . S
C204 C205 1.399 . S
C205 C204 1.399 . S
C205 C206 1.396 . S
C205 C208 1.453 . S
C205 C209 1.684 . S
C206 C187 1.723 . S
C206 C205 1.396 . S
C206 C207 1.394 . S
C207 C203 1.397 . S
C207 C206 1.394 . S
C207 C217 1.723 . S
C208 C205 1.453 . S
C208 H232 0.982 . S
C208 H233 0.979 . S
C208 H234 0.977 . S
C209 C205 1.684 . S
C209 H235 0.979 . S
C209 H236 0.980 . S
C209 H237 0.983 . S
C210 H186 0.948 . S
C210 C211 1.391 . S
C210 C215 1.391 . S
C211 C210 1.391 . S
C211 C212 1.391 . S
C212 H189 0.947 . S
C212 C211 1.391 . S
C212 C213 1.392 . S
C213 H190 0.948 . S
C213 C212 1.392 . S
C213 C214 1.419 . S
C214 C213 1.419 . S
C214 C215 1.391 . S
C214 C218 1.397 . S
C215 C210 1.391 . S
C215 C214 1.391 . S
C215 C216 1.399 . S
C216 C215 1.399 . S
C216 C217 1.396 . S
C216 C219 1.453 . S
C216 C220 1.684 . S
C217 C207 1.723 . S
C217 C216 1.396 . S
C217 C218 1.394 . S
C218 C188 1.723 . S
C218 C214 1.397 . S
C218 C217 1.394 . S
C219 H191 0.982 . S
C219 H195 0.979 . S
C219 H196 0.977 . S
C219 C216 1.453 . S
C220 H192 0.979 . S
C220 H193 0.980 . S
C220 H194 0.983 . S
C220 C216 1.684 . S
H221 C239 0.948 . S
H222 C180 0.948 . S
H223 C198 0.979 . S
H224 C198 0.980 . S
H225 C198 0.983 . S
H226 C197 0.982 . S
H227 C197 0.979 . S
H228 C197 0.977 . S
H229 C199 0.948 . S
H230 C201 0.947 . S
H231 C202 0.948 . S
H232 C208 0.982 . S
H233 C208 0.979 . S
H234 C208 0.977 . S
H235 C209 0.979 . S
H236 C209 0.980 . S
H237 C209 0.983 . S
H238 C182 0.947 . S
C239 C182 1.392 . S
C239 C183 1.419 . S
C239 H221 0.948 . S
C240 C241 1.391 . S
C240 C244 1.391 . S
C240 H282 0.948 . S
C241 C240 1.391 . S
C241 C242 1.391 . S
C242 C241 1.391 . S
C242 H298 0.947 . S
C242 C299 1.392 . S
C243 C244 1.391 . S
C243 C247 1.397 . S
C243 C299 1.419 . S
C244 C240 1.391 . S
C244 C243 1.391 . S
C244 C245 1.399 . S
C245 C244 1.399 . S
C245 C248 1.396 . S
C245 C257 1.453 . S
C245 C258 1.684 . S
H246 C270 0.948 . S
C247 C243 1.397 . S
C247 C248 1.394 . S
C247 C266 1.723 . S
C248 C245 1.396 . S
C248 C247 1.394 . S
C248 C278 1.723 . S
H249 C272 0.947 . S
H250 C273 0.948 . S
H251 C279 0.982 . S
H252 C280 0.984 . S
H253 C280 0.980 . S
H254 C280 0.983 1_545 S
H255 C279 0.979 . S
H256 C279 0.977 . S
C257 C245 1.453 . S
C257 H286 0.982 . S
C257 H287 0.979 . S
C257 H288 0.977 . S
C258 C245 1.684 . S
C258 H283 0.979 . S
C258 H284 0.980 . S
C258 H285 0.983 1_556 S
C259 C260 1.391 . S
C259 C264 1.391 . S
C259 H289 0.948 . S
C260 C259 1.391 . S
C260 C261 1.391 . S
C261 C260 1.391 . S
C261 C262 1.392 . S
C261 H290 0.947 . S
C262 C261 1.392 . S
C262 C263 1.419 . S
C262 H291 0.948 . S
C263 C262 1.419 . S
C263 C264 1.391 . S
C263 C267 1.397 . S
C264 C259 1.391 . S
C264 C263 1.391 . S
C264 C265 1.399 . S
C265 C264 1.399 . S
C265 C266 1.396 . S
C265 C268 1.453 . S
C265 C269 1.684 . S
C266 C247 1.723 . S
C266 C265 1.396 . S
C266 C267 1.394 . S
C267 C263 1.397 . S
C267 C266 1.394 . S
C267 C277 1.723 . S
C268 C265 1.453 . S
C268 H292 0.982 . S
C268 H293 0.979 . S
C268 H294 0.977 . S
C269 C265 1.684 . S
C269 H295 0.979 . S
C269 H296 0.980 . S
C269 H297 0.983 . S
C270 H246 0.948 . S
C270 C271 1.391 . S
C270 C275 1.391 . S
C271 C270 1.391 . S
C271 C272 1.391 . S
C272 H249 0.947 . S
C272 C271 1.391 . S
C272 C273 1.392 . S
C273 H250 0.948 . S
C273 C272 1.392 . S
C273 C274 1.419 . S
C274 C273 1.419 . S
C274 C275 1.391 . S
C274 C278 1.397 . S
C275 C270 1.391 . S
C275 C274 1.391 . S
C275 C276 1.399 . S
C276 C275 1.399 . S
C276 C277 1.396 . S
C276 C279 1.453 . S
C276 C280 1.684 . S
C277 C267 1.723 . S
C277 C276 1.396 . S
C277 C278 1.394 . S
C278 C248 1.723 . S
C278 C274 1.397 . S
C278 C277 1.394 . S
C279 H251 0.982 . S
C279 H255 0.979 . S
C279 H256 0.977 . S
C279 C276 1.453 . S
C280 H252 0.984 . S
C280 H253 0.980 . S
C280 H254 0.983 1_565 S
C280 C276 1.684 . S
H281 C299 0.948 . S
H282 C240 0.948 . S
H283 C258 0.979 . S
H284 C258 0.980 . S
H285 C258 0.983 1_554 S
H286 C257 0.982 . S
H287 C257 0.979 . S
H288 C257 0.977 . S
H289 C259 0.948 . S
H290 C261 0.947 . S
H291 C262 0.948 . S
H292 C268 0.982 . S
H293 C268 0.979 . S
H294 C268 0.977 . S
H295 C269 0.979 . S
H296 C269 0.980 . S
H297 C269 0.983 . S
H298 C242 0.947 . S
C299 C242 1.392 . S
C299 C243 1.419 . S
C299 H281 0.948 . S
C300 C301 1.391 . S
C300 C304 1.391 . S
C300 H342 0.948 . S
C301 C300 1.391 . S
C301 C302 1.391 . S
C302 C301 1.391 . S
C302 H358 0.947 . S
C302 C359 1.392 . S
C303 C304 1.391 . S
C303 C307 1.397 . S
C303 C359 1.419 . S
C304 C300 1.391 . S
C304 C303 1.391 . S
C304 C305 1.399 . S
C305 C304 1.399 . S
C305 C308 1.396 . S
C305 C317 1.453 . S
C305 C318 1.684 . S
H306 C330 0.948 . S
C307 C303 1.397 . S
C307 C308 1.394 . S
C307 C326 1.723 . S
C308 C305 1.396 . S
C308 C307 1.394 . S
C308 C338 1.723 . S
H309 C332 0.947 . S
H310 C333 0.948 . S
H311 C339 0.982 . S
H312 C340 0.979 . S
H313 C340 0.980 . S
H314 C340 0.983 . S
H315 C339 0.979 . S
H316 C339 0.977 . S
C317 C305 1.453 . S
C317 H346 0.982 . S
C317 H347 0.979 . S
C317 H348 0.977 . S
C318 C305 1.684 . S
C318 H343 0.979 . S
C318 H344 0.980 . S
C318 H345 0.983 . S
C319 C320 1.391 . S
C319 C324 1.391 . S
C319 H349 0.948 . S
C320 C319 1.391 . S
C320 C321 1.391 . S
C321 C320 1.391 . S
C321 C322 1.392 . S
C321 H350 0.947 . S
C322 C321 1.392 . S
C322 C323 1.419 . S
C322 H351 0.948 . S
C323 C322 1.419 . S
C323 C324 1.391 . S
C323 C327 1.397 . S
C324 C319 1.391 . S
C324 C323 1.391 . S
C324 C325 1.399 . S
C325 C324 1.399 . S
C325 C326 1.396 . S
C325 C328 1.453 . S
C325 C329 1.684 . S
C326 C307 1.723 . S
C326 C325 1.396 . S
C326 C327 1.394 . S
C327 C323 1.397 . S
C327 C326 1.394 . S
C327 C337 1.723 . S
C328 C325 1.453 . S
C328 H352 0.982 . S
C328 H353 0.979 . S
C328 H354 0.977 . S
C329 C325 1.684 . S
C329 H355 0.979 . S
C329 H356 0.980 . S
C329 H357 0.983 . S
C330 H306 0.948 . S
C330 C331 1.391 . S
C330 C335 1.391 . S
C331 C330 1.391 . S
C331 C332 1.391 . S
C332 H309 0.947 . S
C332 C331 1.391 . S
C332 C333 1.392 . S
C333 H310 0.948 . S
C333 C332 1.392 . S
C333 C334 1.419 . S
C334 C333 1.419 . S
C334 C335 1.391 . S
C334 C338 1.397 . S
C335 C330 1.391 . S
C335 C334 1.391 . S
C335 C336 1.399 . S
C336 C335 1.399 . S
C336 C337 1.396 . S
C336 C339 1.453 . S
C336 C340 1.684 . S
C337 C327 1.723 . S
C337 C336 1.396 . S
C337 C338 1.394 . S
C338 C308 1.723 . S
C338 C334 1.397 . S
C338 C337 1.394 . S
C339 H311 0.982 . S
C339 H315 0.979 . S
C339 H316 0.977 . S
C339 C336 1.453 . S
C340 H312 0.979 . S
C340 H313 0.980 . S
C340 H314 0.983 . S
C340 C336 1.684 . S
H341 C359 0.948 . S
H342 C300 0.948 . S
H343 C318 0.979 . S
H344 C318 0.980 . S
H345 C318 0.983 . S
H346 C317 0.982 . S
H347 C317 0.979 . S
H348 C317 0.977 . S
H349 C319 0.948 . S
H350 C321 0.947 . S
H351 C322 0.948 . S
H352 C328 0.982 . S
H353 C328 0.979 . S
H354 C328 0.977 . S
H355 C329 0.979 . S
H356 C329 0.980 . S
H357 C329 0.983 . S
H358 C302 0.947 . S
C359 C302 1.392 . S
C359 C303 1.419 . S
C359 H341 0.948 . S
C360 C361 1.391 . S
C360 C364 1.391 . S
C360 H402 0.948 . S
C361 C360 1.391 . S
C361 C362 1.391 . S
C362 C361 1.391 . S
C362 H418 0.947 . S
C362 C419 1.392 . S
C363 C364 1.391 . S
C363 C367 1.397 . S
C363 C419 1.419 . S
C364 C360 1.391 . S
C364 C363 1.391 . S
C364 C365 1.399 . S
C365 C364 1.399 . S
C365 C368 1.396 . S
C365 C377 1.453 . S
C365 C378 1.684 . S
H366 C390 0.948 . S
C367 C363 1.397 . S
C367 C368 1.394 . S
C367 C386 1.723 . S
C368 C365 1.396 . S
C368 C367 1.394 . S
C368 C398 1.723 . S
H369 C392 0.947 . S
H370 C393 0.948 . S
H371 C399 0.982 . S
H372 C400 0.979 . S
H373 C400 0.980 . S
H374 C400 0.983 . S
H375 C399 0.979 . S
H376 C399 0.977 . S
C377 C365 1.453 . S
C377 H406 0.982 . S
C377 H407 0.979 . S
C377 H408 0.977 . S
C378 C365 1.684 . S
C378 H403 0.979 . S
C378 H404 0.980 . S
C378 H405 0.983 . S
C379 C380 1.391 . S
C379 C384 1.391 . S
C379 H409 0.948 . S
C380 C379 1.391 . S
C380 C381 1.391 . S
C381 C380 1.391 . S
C381 C382 1.392 . S
C381 H410 0.947 . S
C382 C381 1.392 . S
C382 C383 1.419 . S
C382 H411 0.948 . S
C383 C382 1.419 . S
C383 C384 1.391 . S
C383 C387 1.397 . S
C384 C379 1.391 . S
C384 C383 1.391 . S
C384 C385 1.399 . S
C385 C384 1.399 . S
C385 C386 1.396 . S
C385 C388 1.453 . S
C385 C389 1.684 . S
C386 C367 1.723 . S
C386 C385 1.396 . S
C386 C387 1.394 . S
C387 C383 1.397 . S
C387 C386 1.394 . S
C387 C397 1.723 . S
C388 C385 1.453 . S
C388 H412 0.982 . S
C388 H413 0.979 . S
C388 H414 0.977 . S
C389 C385 1.684 . S
C389 H415 0.979 . S
C389 H416 0.980 . S
C389 H417 0.983 . S
C390 H366 0.948 . S
C390 C391 1.391 . S
C390 C395 1.391 . S
C391 C390 1.391 . S
C391 C392 1.391 . S
C392 H369 0.947 . S
C392 C391 1.391 . S
C392 C393 1.392 . S
C393 H370 0.948 . S
C393 C392 1.392 . S
C393 C394 1.419 . S
C394 C393 1.419 . S
C394 C395 1.391 . S
C394 C398 1.397 . S
C395 C390 1.391 . S
C395 C394 1.391 . S
C395 C396 1.399 . S
C396 C395 1.399 . S
C396 C397 1.396 . S
C396 C399 1.453 . S
C396 C400 1.684 . S
C397 C387 1.723 . S
C397 C396 1.396 . S
C397 C398 1.394 . S
C398 C368 1.723 . S
C398 C394 1.397 . S
C398 C397 1.394 . S
C399 H371 0.982 . S
C399 H375 0.979 . S
C399 H376 0.977 . S
C399 C396 1.453 . S
C400 H372 0.979 . S
C400 H373 0.980 . S
C400 H374 0.983 . S
C400 C396 1.684 . S
H401 C419 0.948 . S
H402 C360 0.948 . S
H403 C378 0.979 . S
H404 C378 0.980 . S
H405 C378 0.983 . S
H406 C377 0.982 . S
H407 C377 0.979 . S
H408 C377 0.977 . S
H409 C379 0.948 . S
H410 C381 0.947 . S
H411 C382 0.948 . S
H412 C388 0.982 . S
H413 C388 0.979 . S
H414 C388 0.977 . S
H415 C389 0.979 . S
H416 C389 0.980 . S
H417 C389 0.983 . S
H418 C362 0.947 . S
C419 C362 1.392 . S
C419 C363 1.419 . S
C419 H401 0.948 . S
C420 C421 1.391 . S
C420 C424 1.391 . S
C420 H462 0.948 . S
C421 C420 1.391 . S
C421 C422 1.391 . S
C422 C421 1.391 . S
C422 H478 0.947 . S
C422 C479 1.392 . S
C423 C424 1.391 . S
C423 C427 1.397 . S
C423 C479 1.419 . S
C424 C420 1.391 . S
C424 C423 1.391 . S
C424 C425 1.399 . S
C425 C424 1.399 . S
C425 C428 1.396 . S
C425 C437 1.453 . S
C425 C438 1.684 . S
H426 C450 0.948 . S
C427 C423 1.397 . S
C427 C428 1.394 . S
C427 C446 1.723 . S
C428 C425 1.396 . S
C428 C427 1.394 . S
C428 C458 1.723 . S
H429 C452 0.947 . S
H430 C453 0.948 . S
H431 C459 0.982 . S
H432 C460 0.979 . S
H433 C460 0.980 . S
H434 C460 0.983 . S
H435 C459 0.979 . S
H436 C459 0.977 . S
C437 C425 1.453 . S
C437 H466 0.982 . S
C437 H467 0.978 1_455 S
C437 H468 0.977 . S
C438 C425 1.684 . S
C438 H463 0.979 . S
C438 H464 0.980 . S
C438 H465 0.983 . S
C439 C440 1.391 . S
C439 C444 1.391 . S
C439 H469 0.948 . S
C440 C439 1.391 . S
C440 C441 1.391 . S
C441 C440 1.391 . S
C441 C442 1.392 . S
C441 H470 0.947 . S
C442 C441 1.392 . S
C442 C443 1.419 . S
C442 H471 0.948 . S
C443 C442 1.419 . S
C443 C444 1.391 . S
C443 C447 1.397 . S
C444 C439 1.391 . S
C444 C443 1.391 . S
C444 C445 1.399 . S
C445 C444 1.399 . S
C445 C446 1.396 . S
C445 C448 1.453 . S
C445 C449 1.684 . S
C446 C427 1.723 . S
C446 C445 1.396 . S
C446 C447 1.394 . S
C447 C443 1.397 . S
C447 C446 1.394 . S
C447 C457 1.723 . S
C448 C445 1.453 . S
C448 H472 0.982 . S
C448 H473 0.979 . S
C448 H474 0.977 . S
C449 C445 1.684 . S
C449 H475 0.979 . S
C449 H476 0.980 . S
C449 H477 0.983 . S
C450 H426 0.948 . S
C450 C451 1.391 . S
C450 C455 1.391 . S
C451 C450 1.391 . S
C451 C452 1.391 . S
C452 H429 0.947 . S
C452 C451 1.391 . S
C452 C453 1.392 . S
C453 H430 0.948 . S
C453 C452 1.392 . S
C453 C454 1.419 . S
C454 C453 1.419 . S
C454 C455 1.391 . S
C454 C458 1.397 . S
C455 C450 1.391 . S
C455 C454 1.391 . S
C455 C456 1.399 . S
C456 C455 1.399 . S
C456 C457 1.396 . S
C456 C459 1.453 . S
C456 C460 1.684 . S
C457 C447 1.723 . S
C457 C456 1.396 . S
C457 C458 1.394 . S
C458 C428 1.723 . S
C458 C454 1.397 . S
C458 C457 1.394 . S
C459 H431 0.982 . S
C459 H435 0.979 . S
C459 H436 0.977 . S
C459 C456 1.453 . S
C460 H432 0.979 . S
C460 H433 0.980 . S
C460 H434 0.983 . S
C460 C456 1.684 . S
H461 C479 0.948 . S
H462 C420 0.948 . S
H463 C438 0.979 . S
H464 C438 0.980 . S
H465 C438 0.983 . S
H466 C437 0.982 . S
H467 C437 0.978 1_655 S
H468 C437 0.977 . S
H469 C439 0.948 . S
H470 C441 0.947 . S
H471 C442 0.948 . S
H472 C448 0.982 . S
H473 C448 0.979 . S
H474 C448 0.977 . S
H475 C449 0.979 . S
H476 C449 0.980 . S
H477 C449 0.983 . S
H478 C422 0.947 . S
C479 C422 1.392 . S
C479 C423 1.419 . S
C479 H461 0.948 . S
O480 Mg481 1.990 . S
O480 C494 1.253 1_445 S
Mg481 O480 1.990 . S
Mg481 O484 2.180 . S
Mg481 O485 2.117 . S
Mg481 O499 2.030 1_545 S
O482 Mg483 2.072 1_665 S
O482 C494 1.260 . S
Mg483 O482 2.072 1_445 S
Mg483 O484 2.099 . S
Mg483 O486 2.079 . S
Mg483 O487 2.072 1_455 S
Mg483 O489 2.099 1_445 S
Mg483 O500 2.079 1_545 S
O484 Mg481 2.180 . S
O484 Mg483 2.099 . S
O484 C495 1.279 . S
O485 Mg481 2.117 . S
O485 C495 1.250 . S
O486 Mg483 2.079 . S
O486 C496 1.264 . S
O487 Mg483 2.072 1_655 S
O487 C497 1.260 . S
Mg488 O489 2.180 . S
Mg488 O490 2.030 1_565 S
Mg488 O491 1.990 1_565 S
Mg488 O492 2.117 . S
O489 Mg483 2.099 1_665 S
O489 Mg488 2.180 . S
O489 C498 1.279 . S
O490 Mg488 2.030 1_545 S
O490 C496 1.248 1_655 S
O491 Mg488 1.990 1_545 S
O491 C497 1.253 . S
O492 Mg488 2.117 . S
O492 C498 1.250 . S
C493 O499 1.248 . S
C493 O500 1.264 . S
C494 O480 1.253 1_665 S
C494 O482 1.260 . S
C495 O484 1.279 . S
C495 O485 1.250 . S
C496 O486 1.264 . S
C496 O490 1.248 1_455 S
C497 O487 1.260 . S
C497 O491 1.253 . S
C498 O489 1.279 . S
C498 O492 1.250 . S
O499 Mg481 2.030 1_565 S
O499 C493 1.248 . S
O500 Mg483 2.079 1_565 S
O500 C493 1.264 . S
O501 Mg502 1.990 . S
O501 C515 1.253 . S
Mg502 O501 1.990 . S
Mg502 O505 2.161 1_554 S
Mg502 O506 2.117 1_554 S
Mg502 O520 2.030 . S
O503 Mg504 2.072 . S
O503 C515 1.260 . S
Mg504 O503 2.072 . S
Mg504 O505 2.094 1_554 S
Mg504 O507 2.079 1_544 S
Mg504 O508 2.072 1_554 S
Mg504 O510 2.099 1_545 S
Mg504 O521 2.079 . S
O505 Mg502 2.161 1_556 S
O505 Mg504 2.094 1_556 S
O505 C516 1.298 . S
O506 Mg502 2.117 1_556 S
O506 C516 1.250 . S
O507 Mg504 2.079 1_566 S
O507 C517 1.264 . S
O508 Mg504 2.072 1_556 S
O508 C518 1.260 1_545 S
Mg509 O510 2.180 1_556 S
Mg509 O511 2.030 . S
Mg509 O512 1.990 . S
Mg509 O513 2.117 1_556 S
O510 Mg504 2.099 1_565 S
O510 Mg509 2.180 1_554 S
O510 C519 1.279 . S
O511 Mg509 2.030 . S
O511 C517 1.248 . S
O512 Mg509 1.990 . S
O512 C518 1.253 . S
O513 Mg509 2.117 1_554 S
O513 C519 1.250 . S
C514 O520 1.248 . S
C514 O521 1.264 . S
C515 O501 1.253 . S
C515 O503 1.260 . S
C516 O505 1.298 . S
C516 O506 1.250 . S
C517 O507 1.264 . S
C517 O511 1.248 . S
C518 O508 1.260 1_565 S
C518 O512 1.253 . S
C519 O510 1.279 . S
C519 O513 1.250 . S
O520 Mg502 2.030 . S
O520 C514 1.248 . S
O521 Mg504 2.079 . S
O521 C514 1.264 . S
O522 Mg523 1.990 . S
O522 C536 1.253 . S
Mg523 O522 1.990 . S
Mg523 O526 2.180 . S
Mg523 O527 2.117 . S
Mg523 O541 2.030 . S
O524 Mg525 2.072 . S
O524 C536 1.260 . S
Mg525 O524 2.072 . S
Mg525 O526 2.099 . S
Mg525 O528 2.079 . S
Mg525 O529 2.072 . S
Mg525 O531 2.099 . S
Mg525 O542 2.079 . S
O526 Mg523 2.180 . S
O526 Mg525 2.099 . S
O526 C537 1.279 . S
O527 Mg523 2.117 . S
O527 C537 1.250 . S
O528 Mg525 2.079 . S
O528 C538 1.264 . S
O529 Mg525 2.072 . S
O529 C539 1.260 . S
Mg530 O531 2.180 . S
Mg530 O532 2.030 . S
Mg530 O533 1.990 . S
Mg530 O534 2.117 . S
O531 Mg525 2.099 . S
O531 Mg530 2.180 . S
O531 C540 1.279 . S
O532 Mg530 2.030 . S
O532 C538 1.248 . S
O533 Mg530 1.990 . S
O533 C539 1.253 . S
O534 Mg530 2.117 . S
O534 C540 1.250 . S
C535 O541 1.248 . S
C535 O542 1.264 . S
C536 O522 1.253 . S
C536 O524 1.260 . S
C537 O526 1.279 . S
C537 O527 1.250 . S
C538 O528 1.264 . S
C538 O532 1.248 . S
C539 O529 1.260 . S
C539 O533 1.253 . S
C540 O531 1.279 . S
C540 O534 1.250 . S
O541 Mg523 2.030 . S
O541 C535 1.248 . S
O542 Mg525 2.079 . S
O542 C535 1.264 . S
O543 Mg544 1.990 . S
O543 C557 1.253 . S
Mg544 O543 1.990 . S
Mg544 O547 2.180 1_455 S
Mg544 O548 2.117 1_455 S
Mg544 O562 2.030 . S
O545 Mg546 2.072 . S
O545 C557 1.260 . S
Mg546 O545 2.072 . S
Mg546 O547 2.099 1_455 S
Mg546 O549 2.079 1_454 S
Mg546 O550 2.072 1_455 S
Mg546 O552 2.099 1_554 S
Mg546 O563 2.079 . S
O547 Mg544 2.180 1_655 S
O547 Mg546 2.099 1_655 S
O547 C558 1.279 . S
O548 Mg544 2.117 1_655 S
O548 C558 1.250 . S
O549 Mg546 2.079 1_656 S
O549 C559 1.264 . S
O550 Mg546 2.072 1_655 S
O550 C560 1.260 1_554 S
Mg551 O552 2.180 1_655 S
Mg551 O553 2.030 . S
Mg551 O554 1.990 . S
Mg551 O555 2.117 . S
O552 Mg546 2.099 1_556 S
O552 Mg551 2.180 1_455 S
O552 C561 1.279 . S
O553 Mg551 2.030 . S
O553 C559 1.248 . S
O554 Mg551 1.990 . S
O554 C560 1.253 . S
O555 Mg551 2.117 . S
O555 C561 1.250 1_655 S
C556 O562 1.248 . S
C556 O563 1.264 . S
C557 O543 1.253 . S
C557 O545 1.260 . S
C558 O547 1.279 . S
C558 O548 1.250 . S
C559 O549 1.264 . S
C559 O553 1.248 . S
C560 O550 1.260 1_556 S
C560 O554 1.253 . S
C561 O552 1.279 . S
C561 O555 1.250 1_455 S
O562 Mg544 2.030 . S
O562 C556 1.248 . S
O563 Mg546 2.079 . S
O563 C556 1.264 . S
C564 C565 1.363 . S
C564 C570 1.379 . S
C564 N572 1.356 . S
C565 C564 1.363 . S
C565 C571 1.363 . S
C566 C567 1.363 . S
C566 C571 1.379 . S
C566 N573 1.356 . S
C567 C566 1.363 . S
C567 C570 1.363 . S
N568 C570 1.356 1_565 S
N568 H580 0.984 1_455 S
N568 H581 0.985 . S
N569 C571 1.356 . S
N569 H574 0.984 . S
N569 H575 0.985 . S
C570 C564 1.379 . S
C570 C567 1.363 . S
C570 N568 1.356 1_545 S
C571 C565 1.363 . S
C571 C566 1.379 . S
C571 N569 1.356 . S
N572 C564 1.356 . S
N572 H578 0.984 1_545 S
N572 H579 0.984 . S
N573 C566 1.356 . S
N573 H576 0.984 . S
N573 H577 0.985 . S
H574 N569 0.984 . S
H575 N569 0.985 . S
H576 N573 0.984 . S
H577 N573 0.985 . S
H578 N572 0.984 1_565 S
H579 N572 0.984 . S
H580 N568 0.984 1_655 S
H581 N568 0.985 . S
C582 C583 1.363 . S
C582 C588 1.379 . S
C582 N590 1.356 . S
C583 C582 1.363 . S
C583 C589 1.363 . S
C584 C585 1.363 . S
C584 C589 1.379 . S
C584 N591 1.356 1_565 S
C585 C584 1.363 . S
C585 C588 1.363 . S
N586 C588 1.356 . S
N586 H598 0.984 . S
N586 H599 0.985 . S
N587 C589 1.356 . S
N587 H592 0.984 . S
N587 H593 0.985 1_565 S
C588 C582 1.379 . S
C588 C585 1.363 . S
C588 N586 1.356 . S
C589 C583 1.363 . S
C589 C584 1.379 . S
C589 N587 1.356 . S
N590 C582 1.356 . S
N590 H596 0.984 . S
N590 H597 0.984 . S
N591 C584 1.356 1_545 S
N591 H594 0.984 . S
N591 H595 0.985 . S
H592 N587 0.984 . S
H593 N587 0.985 1_545 S
H594 N591 0.984 . S
H595 N591 0.985 . S
H596 N590 0.984 . S
H597 N590 0.984 . S
H598 N586 0.984 . S
H599 N586 0.985 . S
C600 C601 1.363 . S
C600 C606 1.379 . S
C600 N608 1.356 . S
C601 C600 1.363 . S
C601 C607 1.363 . S
C602 C603 1.363 . S
C602 C607 1.379 . S
C602 N609 1.356 . S
C603 C602 1.363 . S
C603 C606 1.363 . S
N604 C606 1.356 . S
N604 H616 0.984 . S
N604 H617 0.985 . S
N605 C607 1.356 . S
N605 H610 0.984 . S
N605 H611 0.985 . S
C606 C600 1.379 . S
C606 C603 1.363 . S
C606 N604 1.356 . S
C607 C601 1.363 . S
C607 C602 1.379 . S
C607 N605 1.356 . S
N608 C600 1.356 . S
N608 H614 0.984 . S
N608 H615 0.984 . S
N609 C602 1.356 . S
N609 H612 0.984 . S
N609 H613 0.985 . S
H610 N605 0.984 . S
H611 N605 0.985 . S
H612 N609 0.984 . S
H613 N609 0.985 . S
H614 N608 0.984 . S
H615 N608 0.984 . S
H616 N604 0.984 . S
H617 N604 0.985 . S
C618 C619 1.363 . S
C618 C624 1.379 . S
C618 N626 1.356 . S
C619 C618 1.363 . S
C619 C625 1.363 . S
C620 C621 1.363 . S
C620 C625 1.379 . S
C620 N627 1.356 . S
C621 C620 1.363 . S
C621 C624 1.363 . S
N622 C624 1.356 . S
N622 H634 0.984 . S
N622 H635 0.985 . S
N623 C625 1.356 . S
N623 H628 0.984 . S
N623 H629 0.985 . S
C624 C618 1.379 . S
C624 C621 1.363 . S
C624 N622 1.356 . S
C625 C619 1.363 . S
C625 C620 1.379 . S
C625 N623 1.356 . S
N626 C618 1.356 . S
N626 H632 0.984 . S
N626 H633 0.984 . S
N627 C620 1.356 . S
N627 H630 0.984 . S
N627 H631 0.985 . S
H628 N623 0.984 . S
H629 N623 0.985 . S
H630 N627 0.984 . S
H631 N627 0.985 . S
H632 N626 0.984 . S
H633 N626 0.984 . S
H634 N622 0.984 . S
H635 N622 0.985 . S
C636 C637 1.363 . S
C636 C642 1.379 . S
C636 N644 1.356 . S
C637 C636 1.363 . S
C637 C643 1.363 . S
C638 C639 1.363 . S
C638 C643 1.379 . S
C638 N645 1.356 1_554 S
C639 C638 1.363 . S
C639 C642 1.363 . S
N640 C642 1.356 . S
N640 H652 0.984 . S
N640 H653 0.985 . S
N641 C643 1.356 . S
N641 H646 0.984 . S
N641 H647 0.985 1_554 S
C642 C636 1.379 . S
C642 C639 1.363 . S
C642 N640 1.356 . S
C643 C637 1.363 . S
C643 C638 1.379 . S
C643 N641 1.356 . S
N644 C636 1.356 . S
N644 H650 0.984 . S
N644 H651 0.984 . S
N645 C638 1.356 1_556 S
N645 H648 0.981 1_556 S
N645 H649 0.985 . S
H646 N641 0.984 . S
H647 N641 0.985 1_556 S
H648 N645 0.981 1_554 S
H649 N645 0.985 . S
H650 N644 0.984 . S
H651 N644 0.984 . S
H652 N640 0.984 . S
H653 N640 0.985 . S
C654 C655 1.363 . S
C654 C660 1.379 . S
C654 N662 1.356 . S
C655 C654 1.363 . S
C655 C661 1.363 . S
C656 C657 1.363 . S
C656 C661 1.379 . S
C656 N663 1.356 . S
C657 C656 1.363 . S
C657 C660 1.363 . S
N658 C660 1.356 . S
N658 H670 0.984 . S
N658 H671 0.985 . S
N659 C661 1.356 . S
N659 H664 0.984 . S
N659 H665 0.985 . S
C660 C654 1.379 . S
C660 C657 1.363 . S
C660 N658 1.356 . S
C661 C655 1.363 . S
C661 C656 1.379 . S
C661 N659 1.356 . S
N662 C654 1.356 . S
N662 H668 0.984 . S
N662 H669 0.984 . S
N663 C656 1.356 . S
N663 H666 0.984 . S
N663 H667 0.985 . S
H664 N659 0.984 . S
H665 N659 0.985 . S
H666 N663 0.984 . S
H667 N663 0.985 . S
H668 N662 0.984 . S
H669 N662 0.984 . S
H670 N658 0.984 . S
H671 N658 0.985 . S
C672 C673 1.363 . S
C672 C678 1.379 . S
C672 N680 1.356 . S
C673 C672 1.363 . S
C673 C679 1.363 . S
C674 C675 1.363 . S
C674 C679 1.379 . S
C674 N681 1.356 . S
C675 C674 1.363 . S
C675 C678 1.363 . S
N676 C678 1.356 . S
N676 H688 0.984 . S
N676 H689 0.985 . S
N677 C679 1.356 . S
N677 H682 0.984 . S
N677 H683 0.985 . S
C678 C672 1.379 . S
C678 C675 1.363 . S
C678 N676 1.356 . S
C679 C673 1.363 . S
C679 C674 1.379 . S
C679 N677 1.356 . S
N680 C672 1.356 . S
N680 H686 0.984 . S
N680 H687 0.984 . S
N681 C674 1.356 . S
N681 H684 0.984 . S
N681 H685 0.985 . S
H682 N677 0.984 . S
H683 N677 0.985 . S
H684 N681 0.984 . S
H685 N681 0.985 . S
H686 N680 0.984 . S
H687 N680 0.984 . S
H688 N676 0.984 . S
H689 N676 0.985 . S
C690 C691 1.363 . S
C690 C696 1.379 . S
C690 N698 1.356 . S
C691 C690 1.363 . S
C691 C697 1.363 . S
C692 C693 1.363 . S
C692 C697 1.379 . S
C692 N699 1.356 . S
C693 C692 1.363 . S
C693 C696 1.363 . S
N694 C696 1.356 . S
N694 H706 0.984 . S
N694 H707 0.985 . S
N695 C697 1.356 . S
N695 H700 0.984 . S
N695 H701 0.985 . S
C696 C690 1.379 . S
C696 C693 1.363 . S
C696 N694 1.356 . S
C697 C691 1.363 . S
C697 C692 1.379 . S
C697 N695 1.356 . S
N698 C690 1.356 . S
N698 H704 0.984 . S
N698 H705 0.984 . S
N699 C692 1.356 . S
N699 H702 0.984 . S
N699 H703 0.985 . S
H700 N695 0.984 . S
H701 N695 0.985 . S
H702 N699 0.984 . S
H703 N699 0.985 . S
H704 N698 0.984 . S
H705 N698 0.984 . S
H706 N694 0.984 . S
H707 N694 0.985 . S
C708 C709 1.363 . S
C708 C714 1.379 . S
C708 N716 1.356 . S
C709 C708 1.363 . S
C709 C715 1.363 . S
C710 C711 1.363 . S
C710 C715 1.379 . S
C710 N717 1.356 . S
C711 C710 1.363 . S
C711 C714 1.363 . S
N712 C714 1.356 1_556 S
N712 H724 0.984 . S
N712 H725 0.985 . S
N713 C715 1.356 . S
N713 H718 0.984 . S
N713 H719 0.985 . S
C714 C708 1.379 . S
C714 C711 1.363 . S
C714 N712 1.356 1_554 S
C715 C709 1.363 . S
C715 C710 1.379 . S
C715 N713 1.356 . S
N716 C708 1.356 . S
N716 H722 0.984 1_554 S
N716 H723 0.984 . S
N717 C710 1.356 . S
N717 H720 0.984 . S
N717 H721 0.985 1_455 S
H718 N713 0.984 . S
H719 N713 0.985 . S
H720 N717 0.984 . S
H721 N717 0.985 1_655 S
H722 N716 0.984 1_556 S
H723 N716 0.984 . S
H724 N712 0.984 . S
H725 N712 0.985 . S
C726 C727 1.363 . S
C726 C732 1.379 . S
C726 N734 1.356 . S
C727 C726 1.363 . S
C727 C733 1.363 . S
C728 C729 1.363 . S
C728 C733 1.379 . S
C728 N735 1.356 1_556 S
C729 C728 1.363 . S
C729 C732 1.363 . S
N730 C732 1.356 . S
N730 H742 0.984 . S
N730 H743 0.985 . S
N731 C733 1.356 . S
N731 H736 0.984 . S
N731 H737 0.985 1_556 S
C732 C726 1.379 . S
C732 C729 1.363 . S
C732 N730 1.356 . S
C733 C727 1.363 . S
C733 C728 1.379 . S
C733 N731 1.356 . S
N734 C726 1.356 . S
N734 H740 0.984 . S
N734 H741 0.984 . S
N735 C728 1.356 1_554 S
N735 H738 0.986 . S
N735 H739 0.985 . S
H736 N731 0.984 . S
H737 N731 0.985 1_554 S
H738 N735 0.986 . S
H739 N735 0.985 . S
H740 N734 0.984 . S
H741 N734 0.984 . S
H742 N730 0.984 . S
H743 N730 0.985 . S
C744 C745 1.363 . S
C744 C750 1.379 . S
C744 N752 1.356 . S
C745 C744 1.363 . S
C745 C751 1.363 . S
C746 C747 1.363 . S
C746 C751 1.379 . S
C746 N753 1.354 1_655 S
C747 C746 1.363 . S
C747 C750 1.363 . S
N748 C750 1.356 . S
N748 H760 0.984 . S
N748 H761 0.985 . S
N749 C751 1.356 . S
N749 H754 0.984 . S
N749 H755 0.968 1_655 S
C750 C744 1.379 . S
C750 C747 1.363 . S
C750 N748 1.356 . S
C751 C745 1.363 . S
C751 C746 1.379 . S
C751 N749 1.356 . S
N752 C744 1.356 . S
N752 H758 0.984 . S
N752 H759 0.984 . S
N753 C746 1.354 1_455 S
N753 H756 0.984 1_455 S
N753 H757 0.987 . S
H754 N749 0.984 . S
H755 N749 0.968 1_455 S
H756 N753 0.984 1_655 S
H757 N753 0.987 . S
H758 N752 0.984 . S
H759 N752 0.984 . S
H760 N748 0.984 . S
H761 N748 0.985 . S
C762 C763 1.363 . S
C762 C768 1.379 . S
C762 N770 1.356 . S
C763 C762 1.363 . S
C763 C769 1.363 . S
C764 C765 1.363 . S
C764 C769 1.379 . S
C764 N771 1.356 . S
C765 C764 1.363 . S
C765 C768 1.363 . S
N766 C768 1.356 . S
N766 H778 0.984 . S
N766 H779 0.985 . S
N767 C769 1.356 . S
N767 H772 0.984 . S
N767 H773 0.985 . S
C768 C762 1.379 . S
C768 C765 1.363 . S
C768 N766 1.356 . S
C769 C763 1.363 . S
C769 C764 1.379 . S
C769 N767 1.356 . S
N770 C762 1.356 . S
N770 H776 0.984 . S
N770 H777 0.984 . S
N771 C764 1.356 . S
N771 H774 0.984 . S
N771 H775 0.985 . S
H772 N767 0.984 . S
H773 N767 0.985 . S
H774 N771 0.984 . S
H775 N771 0.985 . S
H776 N770 0.984 . S
H777 N770 0.984 . S
H778 N766 0.984 . S
H779 N766 0.985 . S
C780 C781 1.363 . S
C780 C786 1.379 . S
C780 N788 1.356 . S
C781 C780 1.363 . S
C781 C787 1.363 . S
C782 C783 1.363 . S
C782 C787 1.379 . S
C782 N789 1.356 1_565 S
C783 C782 1.363 . S
C783 C786 1.363 . S
N784 C786 1.356 1_455 S
N784 H796 0.984 . S
N784 H797 0.985 . S
N785 C787 1.370 . S
N785 H790 0.997 . S
N785 H791 0.959 1_565 S
C786 C780 1.379 . S
C786 C783 1.363 . S
C786 N784 1.356 1_655 S
C787 C781 1.363 . S
C787 C782 1.379 . S
C787 N785 1.370 . S
N788 C780 1.356 . S
N788 H794 0.984 . S
N788 H795 0.984 . S
N789 C782 1.356 1_545 S
N789 H792 0.984 . S
N789 H793 0.985 . S
H790 N785 0.997 . S
H791 N785 0.959 1_545 S
H792 N789 0.984 . S
H793 N789 0.985 . S
H794 N788 0.984 . S
H795 N788 0.984 . S
H796 N784 0.984 . S
H797 N784 0.985 . S
C798 C799 1.363 . S
C798 C804 1.379 . S
C798 N806 1.356 . S
C799 C798 1.363 . S
C799 C805 1.363 . S
C800 C801 1.363 . S
C800 C805 1.379 . S
C800 N807 1.356 1_545 S
C801 C800 1.363 . S
C801 C804 1.363 . S
N802 C804 1.356 . S
N802 H814 0.984 . S
N802 H815 0.985 . S
N803 C805 1.356 . S
N803 H808 0.984 . S
N803 H809 0.985 1_545 S
C804 C798 1.379 . S
C804 C801 1.363 . S
C804 N802 1.356 . S
C805 C799 1.363 . S
C805 C800 1.379 . S
C805 N803 1.356 . S
N806 C798 1.356 . S
N806 H812 0.984 . S
N806 H813 0.984 . S
N807 C800 1.356 1_565 S
N807 H810 0.984 . S
N807 H811 0.985 . S
H808 N803 0.984 . S
H809 N803 0.985 1_565 S
H810 N807 0.984 . S
H811 N807 0.985 . S
H812 N806 0.984 . S
H813 N806 0.984 . S
H814 N802 0.984 . S
H815 N802 0.985 . S
C816 C817 1.363 . S
C816 C822 1.379 . S
C816 N824 1.356 . S
C817 C816 1.363 . S
C817 C823 1.363 . S
C818 C819 1.363 . S
C818 C823 1.379 . S
C818 N825 1.356 . S
C819 C818 1.363 . S
C819 C822 1.363 . S
N820 C822 1.356 . S
N820 H832 0.984 . S
N820 H833 0.985 . S
N821 C823 1.356 . S
N821 H826 0.984 . S
N821 H827 0.985 . S
C822 C816 1.379 . S
C822 C819 1.363 . S
C822 N820 1.356 . S
C823 C817 1.363 . S
C823 C818 1.379 . S
C823 N821 1.356 . S
N824 C816 1.356 . S
N824 H830 0.984 . S
N824 H831 0.984 . S
N825 C818 1.356 . S
N825 H828 0.984 . S
N825 H829 0.985 . S
H826 N821 0.984 . S
H827 N821 0.985 . S
H828 N825 0.984 . S
H829 N825 0.985 . S
H830 N824 0.984 . S
H831 N824 0.984 . S
H832 N820 0.984 . S
H833 N820 0.985 . S
C834 C835 1.363 . S
C834 C840 1.379 . S
C834 N842 1.356 . S
C835 C834 1.363 . S
C835 C841 1.363 . S
C836 C837 1.363 . S
C836 C841 1.379 . S
C836 N843 1.356 . S
C837 C836 1.363 . S
C837 C840 1.363 . S
N838 C840 1.356 . S
N838 H850 0.984 . S
N838 H851 0.985 . S
N839 C841 1.356 . S
N839 H844 0.984 . S
N839 H845 0.985 1_455 S
C840 C834 1.379 . S
C840 C837 1.363 . S
C840 N838 1.356 . S
C841 C835 1.363 . S
C841 C836 1.379 . S
C841 N839 1.356 . S
N842 C834 1.356 . S
N842 H848 0.984 . S
N842 H849 0.984 . S
N843 C836 1.356 . S
N843 H846 0.984 . S
N843 H847 0.985 1_455 S
H844 N839 0.984 . S
H845 N839 0.985 1_655 S
H846 N843 0.984 . S
H847 N843 0.985 1_655 S
H848 N842 0.984 . S
H849 N842 0.984 . S
H850 N838 0.984 . S
H851 N838 0.985 . S
C852 C853 1.363 . S
C852 C858 1.379 . S
C852 N860 1.356 . S
C853 C852 1.363 . S
C853 C859 1.363 . S
C854 C855 1.363 . S
C854 C859 1.379 . S
C854 N861 1.356 1_565 S
C855 C854 1.363 . S
C855 C858 1.363 . S
N856 C858 1.356 . S
N856 H868 0.984 1_556 S
N856 H869 0.985 . S
N857 C859 1.356 . S
N857 H862 0.984 . S
N857 H863 0.985 1_565 S
C858 C852 1.379 . S
C858 C855 1.363 . S
C858 N856 1.356 . S
C859 C853 1.363 . S
C859 C854 1.379 . S
C859 N857 1.356 . S
N860 C852 1.356 . S
N860 H866 0.972 1_556 S
N860 H867 0.984 . S
N861 C854 1.356 1_545 S
N861 H864 0.984 . S
N861 H865 0.985 . S
H862 N857 0.984 . S
H863 N857 0.985 1_545 S
H864 N861 0.984 . S
H865 N861 0.985 . S
H866 N860 0.972 1_554 S
H867 N860 0.984 . S
H868 N856 0.984 1_554 S
H869 N856 0.985 . S
C870 C871 1.363 . S
C870 C876 1.379 . S
C870 N878 1.356 . S
C871 C870 1.363 . S
C871 C877 1.363 . S
C872 C873 1.363 . S
C872 C877 1.379 . S
C872 N879 1.356 1_545 S
C873 C872 1.363 . S
C873 C876 1.363 . S
N874 C876 1.356 . S
N874 H886 0.984 . S
N874 H887 0.985 . S
N875 C877 1.356 . S
N875 H880 0.984 . S
N875 H881 0.985 1_545 S
C876 C870 1.379 . S
C876 C873 1.363 . S
C876 N874 1.356 . S
C877 C871 1.363 . S
C877 C872 1.379 . S
C877 N875 1.356 . S
N878 C870 1.356 . S
N878 H884 0.984 . S
N878 H885 0.984 . S
N879 C872 1.356 1_565 S
N879 H882 0.984 1_565 S
N879 H883 0.984 . S
H880 N875 0.984 . S
H881 N875 0.985 1_565 S
H882 N879 0.984 1_545 S
H883 N879 0.984 . S
H884 N878 0.984 . S
H885 N878 0.984 . S
H886 N874 0.984 . S
H887 N874 0.985 . S
C888 C889 1.363 . S
C888 C894 1.379 . S
C888 N896 1.356 . S
C889 C888 1.363 . S
C889 C895 1.363 . S
C890 C891 1.363 . S
C890 C895 1.379 . S
C890 N897 1.356 . S
C891 C890 1.363 . S
C891 C894 1.363 . S
N892 C894 1.356 . S
N892 H904 0.984 . S
N892 H905 0.985 . S
N893 C895 1.356 . S
N893 H898 0.984 . S
N893 H899 0.985 . S
C894 C888 1.379 . S
C894 C891 1.363 . S
C894 N892 1.356 . S
C895 C889 1.363 . S
C895 C890 1.379 . S
C895 N893 1.356 . S
N896 C888 1.356 . S
N896 H902 0.984 . S
N896 H903 0.984 . S
N897 C890 1.356 . S
N897 H900 0.984 . S
N897 H901 0.985 . S
H898 N893 0.984 . S
H899 N893 0.985 . S
H900 N897 0.984 . S
H901 N897 0.985 . S
H902 N896 0.984 . S
H903 N896 0.984 . S
H904 N892 0.984 . S
H905 N892 0.985 . S
C906 C907 1.363 . S
C906 C912 1.379 . S
C906 N914 1.356 . S
C907 C906 1.363 . S
C907 C913 1.363 . S
C908 C909 1.363 . S
C908 C913 1.379 . S
C908 N915 1.356 . S
C909 C908 1.363 . S
C909 C912 1.363 . S
N910 C912 1.356 . S
N910 H922 0.984 . S
N910 H923 0.985 . S
N911 C913 1.356 . S
N911 H916 0.984 . S
N911 H917 0.985 . S
C912 C906 1.379 . S
C912 C909 1.363 . S
C912 N910 1.356 . S
C913 C907 1.363 . S
C913 C908 1.379 . S
C913 N911 1.356 . S
N914 C906 1.356 . S
N914 H920 0.984 . S
N914 H921 0.984 . S
N915 C908 1.356 . S
N915 H918 0.984 . S
N915 H919 0.985 . S
H916 N911 0.984 . S
H917 N911 0.985 . S
H918 N915 0.984 . S
H919 N915 0.985 . S
H920 N914 0.984 . S
H921 N914 0.984 . S
H922 N910 0.984 . S
H923 N910 0.985 . S
C924 C925 1.363 . S
C924 C930 1.379 . S
C924 N932 1.356 . S
C925 C924 1.363 . S
C925 C931 1.363 . S
C926 C927 1.363 . S
C926 C931 1.379 . S
C926 N933 1.356 1_556 S
C927 C926 1.363 . S
C927 C930 1.363 . S
N928 C930 1.356 . S
N928 H940 0.984 . S
N928 H941 0.985 . S
N929 C931 1.356 1_554 S
N929 H934 0.984 1_554 S
N929 H935 0.985 . S
C930 C924 1.379 . S
C930 C927 1.363 . S
C930 N928 1.356 . S
C931 C925 1.363 . S
C931 C926 1.379 . S
C931 N929 1.356 1_556 S
N932 C924 1.356 . S
N932 H938 0.984 . S
N932 H939 0.984 . S
N933 C926 1.356 1_554 S
N933 H936 0.984 . S
N933 H937 0.985 1_655 S
H934 N929 0.984 1_556 S
H935 N929 0.985 . S
H936 N933 0.984 . S
H937 N933 0.985 1_455 S
H938 N932 0.984 . S
H939 N932 0.984 . S
H940 N928 0.984 . S
H941 N928 0.985 . S
C942 C943 1.363 . S
C942 C948 1.379 . S
C942 N950 1.356 . S
C943 C942 1.363 . S
C943 C949 1.363 . S
C944 C945 1.363 . S
C944 C949 1.379 . S
C944 N951 1.356 . S
C945 C944 1.363 . S
C945 C948 1.363 . S
N946 C948 1.356 . S
N946 H958 0.984 . S
N946 H959 0.985 . S
N947 C949 1.356 . S
N947 H952 0.984 . S
N947 H953 0.985 . S
C948 C942 1.379 . S
C948 C945 1.363 . S
C948 N946 1.356 . S
C949 C943 1.363 . S
C949 C944 1.379 . S
C949 N947 1.356 . S
N950 C942 1.356 . S
N950 H956 0.984 . S
N950 H957 0.984 . S
N951 C944 1.356 . S
N951 H954 0.984 . S
N951 H955 0.985 1_554 S
H952 N947 0.984 . S
H953 N947 0.985 . S
H954 N951 0.984 . S
H955 N951 0.985 1_556 S
H956 N950 0.984 . S
H957 N950 0.984 . S
H958 N946 0.984 . S
H959 N946 0.985 . S
C960 C961 1.363 . S
C960 C966 1.379 . S
C960 N968 1.356 . S
C961 C960 1.363 . S
C961 C967 1.363 . S
C962 C963 1.363 . S
C962 C967 1.379 . S
C962 N969 1.356 . S
C963 C962 1.363 . S
C963 C966 1.363 . S
N964 C966 1.356 1_655 S
N964 H976 0.984 . S
N964 H977 0.985 . S
N965 C967 1.356 . S
N965 H970 0.984 . S
N965 H971 0.985 . S
C966 C960 1.379 . S
C966 C963 1.363 . S
C966 N964 1.356 1_455 S
C967 C961 1.363 . S
C967 C962 1.379 . S
C967 N965 1.356 . S
N968 C960 1.356 . S
N968 H974 0.984 1_455 S
N968 H975 0.984 . S
N969 C962 1.356 . S
N969 H972 0.984 . S
N969 H973 0.985 . S
H970 N965 0.984 . S
H971 N965 0.985 . S
H972 N969 0.984 . S
H973 N969 0.985 . S
H974 N968 0.984 1_655 S
H975 N968 0.984 . S
H976 N964 0.984 . S
H977 N964 0.985 . S
C978 C979 1.363 . S
C978 C984 1.379 . S
C978 N986 1.356 . S
C979 C978 1.363 . S
C979 C985 1.363 . S
C980 C981 1.363 . S
C980 C985 1.379 . S
C980 N987 1.356 . S
C981 C980 1.363 . S
C981 C984 1.363 . S
N982 C984 1.356 . S
N982 H994 0.984 . S
N982 H995 0.985 . S
N983 C985 1.356 . S
N983 H988 0.984 . S
N983 H989 0.985 . S
C984 C978 1.379 . S
C984 C981 1.363 . S
C984 N982 1.356 . S
C985 C979 1.363 . S
C985 C980 1.379 . S
C985 N983 1.356 . S
N986 C978 1.356 . S
N986 H992 0.984 . S
N986 H993 0.984 . S
N987 C980 1.356 . S
N987 H990 0.984 . S
N987 H991 0.985 . S
H988 N983 0.984 . S
H989 N983 0.985 . S
H990 N987 0.984 . S
H991 N987 0.985 . S
H992 N986 0.984 . S
H993 N986 0.984 . S
H994 N982 0.984 . S
H995 N982 0.985 . S
C565 C1 1.571 . S
C567 C496 1.531 . S
C583 C80 1.459 . S
C585 C518 1.471 . S
C603 C537 1.209 . S
C601 C140 1.449 . S
C619 C211 1.758 . S
C621 C558 1.445 . S
C639 C515 1.734 . S
C637 C31 1.756 . S
C657 C493 1.672 . S
C655 C61 1.633 . S
C675 C560 1.360 . S
C673 C151 1.362 . S
C693 C539 1.530 . S
C691 C200 1.510 . S
C709 C20 1.705 . S
C711 C557 1.674 . S
C729 C516 1.287 . S
C727 C121 1.580 . S
C745 C181 1.626 . S
C747 C498 1.593 . S
C763 C91 1.508 . S
C765 C536 1.561 . S
C783 C494 1.530 . S
C781 C260 1.620 . S
C799 C320 1.322 . S
C801 C514 1.344 . S
C817 C361 1.532 . S
C819 C540 1.260 . S
C835 C451 1.690 . S
C837 C561 1.371 . S
C853 C271 1.709 . S
C855 C517 1.690 . S
C873 C497 1.705 . S
C871 C301 1.689 . S
C891 C556 1.265 . S
C889 C380 1.303 . S
C909 C535 1.569 . S
C907 C440 1.561 . S
C925 C241 1.547 . S
C927 C559 1.540 . S
C945 C519 1.256 . S
C943 C391 1.558 . S
C963 C495 1.451 . S
C961 C421 1.492 . S
C979 C331 1.468 . S
C981 C538 1.497 . S
