# Generated by pormake.
# Topology anh, (6,3)-cn, num edge types: 1
# Building blocks:
#     Node 0, Type 0, BuildingBlock: MIFKUJ_clean_sbu_0, # of connection points: 6
#     Node 1, Type 0, BuildingBlock: MIFKUJ_clean_sbu_0, # of connection points: 6
#     Node 2, Type 0, BuildingBlock: MIFKUJ_clean_sbu_0, # of connection points: 6
#     Node 3, Type 1, BuildingBlock: PAMTOO_clean_linker_0, # of connection points: 3
#     Node 4, Type 1, BuildingBlock: PAMTOO_clean_linker_0, # of connection points: 3
#     Node 5, Type 1, BuildingBlock: PAMTOO_clean_linker_0, # of connection points: 3
#     Node 6, Type 1, BuildingBlock: PAMTOO_clean_linker_0, # of connection points: 3
#     Node 7, Type 1, BuildingBlock: PAMTOO_clean_linker_0, # of connection points: 3
#     Node 8, Type 1, BuildingBlock: PAMTOO_clean_linker_0, # of connection points: 3
#     Edge 9, Type (0, 1), BuildingBlock: MIFKUJ_clean_linker_0, # of connection points: 2
#     Edge 10, Type (0, 1), BuildingBlock: MIFKUJ_clean_linker_0, # of connection points: 2
#     Edge 11, Type (0, 1), BuildingBlock: MIFKUJ_clean_linker_0, # of connection points: 2
#     Edge 12, Type (0, 1), BuildingBlock: MIFKUJ_clean_linker_0, # of connection points: 2
#     Edge 13, Type (0, 1), BuildingBlock: MIFKUJ_clean_linker_0, # of connection points: 2
#     Edge 14, Type (0, 1), BuildingBlock: MIFKUJ_clean_linker_0, # of connection points: 2
#     Edge 15, Type (0, 1), BuildingBlock: MIFKUJ_clean_linker_0, # of connection points: 2
#     Edge 16, Type (0, 1), BuildingBlock: MIFKUJ_clean_linker_0, # of connection points: 2
#     Edge 17, Type (0, 1), BuildingBlock: MIFKUJ_clean_linker_0, # of connection points: 2
#     Edge 18, Type (0, 1), BuildingBlock: MIFKUJ_clean_linker_0, # of connection points: 2
#     Edge 19, Type (0, 1), BuildingBlock: MIFKUJ_clean_linker_0, # of connection points: 2
#     Edge 20, Type (0, 1), BuildingBlock: MIFKUJ_clean_linker_0, # of connection points: 2
#     Edge 21, Type (0, 1), BuildingBlock: MIFKUJ_clean_linker_0, # of connection points: 2
#     Edge 22, Type (0, 1), BuildingBlock: MIFKUJ_clean_linker_0, # of connection points: 2
#     Edge 23, Type (0, 1), BuildingBlock: MIFKUJ_clean_linker_0, # of connection points: 2
#     Edge 24, Type (0, 1), BuildingBlock: MIFKUJ_clean_linker_0, # of connection points: 2
#     Edge 25, Type (0, 1), BuildingBlock: MIFKUJ_clean_linker_0, # of connection points: 2
#     Edge 26, Type (0, 1), BuildingBlock: MIFKUJ_clean_linker_0, # of connection points: 2
# Relax obj value: 0.084
# Max RMSD: 0.146
# Mean RMSD: 0.109
data_MOF--net-anh--node1-MIFKUJ_clean_sbu_0--node2-PAMTOO_clean_linker_0--edge1-MIFKUJ_clean_linker_0
_symmetry_space_group_name_H-M    P1
_symmetry_Int_Tables_number       1
_symmetry_cell_setting            triclinic
loop_
_symmetry_equiv_pos_as_xyz
'x, y, z'
_cell_length_a     40.554938
_cell_length_b     40.632998
_cell_length_c     61.17853
_cell_angle_alpha  88.699194
_cell_angle_beta   93.476385
_cell_angle_gamma 120.26898
loop_
_atom_site_label
_atom_site_type_symbol
_atom_site_fract_x
_atom_site_fract_y
_atom_site_fract_z
_atom_type_partial_charge
Zn0 Zn 0.08579 0.56258 0.16188 0.0
Zn1 Zn 0.97529 0.48608 0.16629 0.0
C2 C 0.12176 0.51588 0.16578 0.0
O3 O 0.10106 0.50223 0.18293 0.0
C4 C 0.91623 0.49615 0.14679 0.0
O5 O 0.91286 0.46768 0.13518 0.0
O6 O 0.11973 0.61903 0.16132 0.0
O7 O 0.03979 0.54641 0.14194 0.0
O8 O 0.99957 0.48546 0.13865 0.0
C9 C 0.11884 0.64211 0.14729 0.0
O10 O 0.09303 0.62924 0.13085 0.0
O11 O 0.11826 0.54011 0.15383 0.0
C12 C 0.9081 0.4254 0.18318 0.0
O13 O 0.90698 0.45428 0.19156 0.0
O14 O 0.93623 0.43169 0.17215 0.0
O15 O 0.00948 0.50625 0.19426 0.0
O16 O 0.07133 0.55011 0.19288 0.0
O17 O 0.94421 0.5123 0.1609 0.0
C18 C 0.02716 0.51557 0.13137 0.0
C19 C 0.04224 0.52842 0.20359 0.0
Zn20 Zn 0.62739 0.08116 0.4914 0.0
Zn21 Zn 0.60913 0.98477 0.49386 0.0
C22 C 0.70258 0.13883 0.50496 0.0
O23 O 0.6823 0.13952 0.52072 0.0
C24 C 0.5338 0.92878 0.47671 0.0
O25 O 0.5542 0.92882 0.46082 0.0
O26 O 0.61186 0.12075 0.49141 0.0
O27 O 0.60143 0.04832 0.46439 0.0
O28 O 0.62894 0.0132 0.4658 0.0
C29 C 0.60881 0.13814 0.4746 0.0
O30 O 0.61329 0.12835 0.45516 0.0
O31 O 0.68561 0.11366 0.48986 0.0
C32 C 0.60655 0.91782 0.50886 0.0
O33 O 0.58111 0.91866 0.52079 0.0
O34 O 0.62432 0.94474 0.49554 0.0
O35 O 0.62902 0.01251 0.52285 0.0
O36 O 0.61438 0.05829 0.52126 0.0
O37 O 0.55055 0.953 0.49227 0.0
C38 C 0.61156 0.02751 0.45499 0.0
C39 C 0.6234 0.03675 0.53215 0.0
Zn40 Zn 0.64592 0.53922 0.83644 0.0
Zn41 Zn 0.56047 0.57047 0.83349 0.0
C42 C 0.65261 0.4735 0.83813 0.0
O43 O 0.68012 0.49517 0.85258 0.0
C44 C 0.55566 0.63587 0.82509 0.0
O45 O 0.52497 0.60985 0.81406 0.0
O46 O 0.70226 0.57508 0.83429 0.0
O47 O 0.61171 0.55267 0.81996 0.0
O48 O 0.56918 0.56092 0.80224 0.0
C49 C 0.71995 0.57379 0.81818 0.0
O50 O 0.70045 0.55108 0.80153 0.0
O51 O 0.63307 0.4865 0.82841 0.0
C52 C 0.49104 0.54856 0.85408 0.0
O53 O 0.51529 0.57094 0.86964 0.0
O54 O 0.50388 0.54205 0.83728 0.0
O55 O 0.58849 0.55588 0.85797 0.0
O56 O 0.6315 0.53883 0.8673 0.0
O57 O 0.57748 0.62613 0.83545 0.0
C58 C 0.59609 0.55384 0.80178 0.0
C59 C 0.60632 0.54679 0.87262 0.0
H60 H 0.6035 0.05423 0.22659 0.0
H61 H 0.48421 0.97014 0.21648 0.0
H62 H 0.54158 0.05168 0.16639 0.0
H63 H 0.45737 0.029 0.16595 0.0
C64 C 0.451 0.00658 0.17845 0.0
O65 O 0.47666 0.99388 0.17731 0.0
H66 H 0.4534 0.01932 0.19482 0.0
C67 C 0.57756 0.04062 0.21603 0.0
C68 C 0.57685 0.05612 0.19541 0.0
C69 C 0.54426 0.00979 0.22391 0.0
C70 C 0.51025 0.99376 0.21061 0.0
C71 C 0.50955 0.00878 0.18986 0.0
C72 C 0.5427 0.03986 0.1823 0.0
H73 H 0.66753 0.61348 0.58406 0.0
H74 H 0.66256 0.50826 0.56818 0.0
H75 H 0.65986 0.58082 0.51679 0.0
H76 H 0.61352 0.50302 0.50243 0.0
C77 C 0.6204 0.49006 0.51691 0.0
O78 O 0.65636 0.51599 0.52569 0.0
H79 H 0.59824 0.48287 0.52896 0.0
C80 C 0.66671 0.59384 0.57203 0.0
C81 C 0.6641 0.60127 0.5497 0.0
C82 C 0.66673 0.56068 0.57897 0.0
C83 C 0.6636 0.53451 0.56319 0.0
C84 C 0.66147 0.54207 0.54082 0.0
C85 C 0.66252 0.57575 0.5341 0.0
H86 H 0.04113 0.57077 0.90582 0.0
H87 H 0.13346 0.54983 0.898 0.0
H88 H 0.08139 0.57403 0.84164 0.0
H89 H 0.11344 0.52175 0.82965 0.0
C90 C 0.12579 0.52412 0.84665 0.0
O91 O 0.13422 0.55864 0.85552 0.0
H92 H 0.10419 0.49978 0.85612 0.0
C93 C 0.05993 0.56781 0.89519 0.0
C94 C 0.05755 0.57363 0.87251 0.0
C95 C 0.08686 0.55882 0.90449 0.0
C96 C 0.11252 0.55673 0.89105 0.0
C97 C 0.11031 0.56213 0.86845 0.0
C98 C 0.08302 0.57059 0.85921 0.0
H99 H 0.03948 0.4597 0.43626 0.0
H100 H 0.15051 0.56033 0.44304 0.0
H101 H 0.10006 0.49243 0.49947 0.0
H102 H 0.15539 0.5823 0.51139 0.0
C103 C 0.16343 0.58805 0.49408 0.0
O104 O 0.1596 0.55518 0.48514 0.0
H105 H 0.14364 0.59609 0.48534 0.0
C106 C 0.06473 0.47867 0.44637 0.0
C107 C 0.06633 0.471 0.4688 0.0
C108 C 0.09492 0.51041 0.43676 0.0
C109 C 0.12664 0.53598 0.45014 0.0
C110 C 0.12822 0.53009 0.47275 0.0
C111 C 0.09812 0.49748 0.48211 0.0
H112 H 0.63731 1.00013 0.76759 0.0
H113 H 0.63121 0.10282 0.77103 0.0
H114 H 0.61356 0.03377 0.82808 0.0
H115 H 0.56947 0.07718 0.82975 0.0
C116 C 0.58163 0.09243 0.81437 0.0
O117 O 0.61695 0.09583 0.81241 0.0
H118 H 0.56148 0.07565 0.8004 0.0
C119 C 0.63404 0.02061 0.77689 0.0
C120 C 0.62615 0.01371 0.79908 0.0
C121 C 0.63551 0.05242 0.7664 0.0
C122 C 0.62974 0.0778 0.77862 0.0
C123 C 0.62195 0.07103 0.80079 0.0
C124 C 0.61992 0.03894 0.81097 0.0
H125 H 0.59299 0.50806 0.10417 0.0
H126 H 0.48871 0.51164 0.10479 0.0
H127 H 0.54665 0.50859 0.16542 0.0
H128 H 0.46055 0.46581 0.16847 0.0
C129 C 0.4542 0.47624 0.15271 0.0
O130 O 0.48649 0.50984 0.14743 0.0
H131 H 0.44629 0.45396 0.13995 0.0
C132 C 0.57073 0.50824 0.11306 0.0
C133 C 0.5732 0.50782 0.13599 0.0
C134 C 0.54058 0.50973 0.10154 0.0
C135 C 0.51253 0.51094 0.11335 0.0
C136 C 0.51451 0.51016 0.13633 0.0
C137 C 0.54516 0.50913 0.14768 0.0
H138 H 0.14017 0.46939 0.19 0.0
H139 H 0.19518 0.46092 0.18674 0.0
H140 H 0.22857 0.53475 0.13067 0.0
H141 H 0.17323 0.54299 0.13361 0.0
H142 H 0.23843 0.47382 0.12512 0.0
H143 H 0.27005 0.56838 0.18143 0.0
H144 H 0.25993 0.59226 0.21563 0.0
H145 H 0.26618 0.50355 0.25176 0.0
H146 H 0.2757 0.47875 0.21772 0.0
H147 H 0.43027 0.51456 0.12446 0.0
H148 H 0.37321 0.5205 0.12599 0.0
H149 H 0.34382 0.45448 0.18527 0.0
H150 H 0.4014 0.44951 0.18407 0.0
H151 H 0.33162 0.51145 0.18917 0.0
H152 H 0.29882 0.41564 0.13472 0.0
H153 H 0.30641 0.38803 0.10124 0.0
H154 H 0.29977 0.47419 0.06251 0.0
H155 H 0.29268 0.50266 0.09582 0.0
C156 C 0.15891 0.4835 0.1768 0.0
C157 C 0.15246 0.50718 0.1622 0.0
C158 C 0.19049 0.47876 0.17503 0.0
C159 C 0.21644 0.49781 0.15873 0.0
C160 C 0.20906 0.51997 0.14347 0.0
C161 C 0.17742 0.52469 0.1452 0.0
C162 C 0.25201 0.49585 0.15813 0.0
C163 C 0.25907 0.48251 0.13901 0.0
C164 C 0.27847 0.50624 0.17647 0.0
C165 C 0.27326 0.52151 0.19699 0.0
C166 C 0.26902 0.55381 0.19664 0.0
C167 C 0.2634 0.56752 0.216 0.0
C168 C 0.26234 0.54938 0.23584 0.0
C169 C 0.26697 0.51754 0.23638 0.0
C170 C 0.27249 0.50366 0.21706 0.0
C171 C 0.41188 0.50186 0.13797 0.0
C172 C 0.42062 0.48224 0.15439 0.0
C173 C 0.37908 0.5049 0.13873 0.0
C174 C 0.3539 0.48759 0.15564 0.0
C175 C 0.3628 0.46819 0.17211 0.0
C176 C 0.39571 0.46538 0.17143 0.0
C177 C 0.31816 0.48941 0.15613 0.0
C178 C 0.31106 0.50277 0.17524 0.0
C179 C 0.29146 0.47861 0.13787 0.0
C180 C 0.29562 0.46152 0.1178 0.0
C181 C 0.29928 0.42889 0.11908 0.0
C182 C 0.30345 0.41305 0.10013 0.0
C183 C 0.30369 0.42941 0.07976 0.0
C184 C 0.29965 0.46158 0.0783 0.0
C185 C 0.29553 0.47757 0.09721 0.0
H186 H 0.30691 0.4171 0.06511 0.0
H187 H 0.25806 0.56002 0.25083 0.0
H188 H 0.75213 0.15335 0.4723 0.0
H189 H 0.81733 0.20752 0.47 0.0
H190 H 0.81041 0.24789 0.53319 0.0
H191 H 0.74547 0.19433 0.53551 0.0
H192 H 0.8372 0.30477 0.50465 0.0
H193 H 0.86605 0.20708 0.5261 0.0
H194 H 0.86233 0.14483 0.52325 0.0
H195 H 0.90734 0.17372 0.45945 0.0
H196 H 0.91087 0.23596 0.4618 0.0
H197 H 0.0295 0.45873 0.50739 0.0
H198 H 0.97214 0.4003 0.51825 0.0
H199 H 0.97321 0.34362 0.45971 0.0
H200 H 0.03131 0.40053 0.44968 0.0
H201 H 0.95043 0.29449 0.48955 0.0
H202 H 0.9153 0.38761 0.46557 0.0
H203 H 0.91742 0.44931 0.4666 0.0
H204 H 0.88252 0.42851 0.53278 0.0
H205 H 0.88063 0.36686 0.53221 0.0
C206 C 0.76467 0.1735 0.48581 0.0
C207 C 0.74341 0.16939 0.50406 0.0
C208 C 0.80203 0.20448 0.48451 0.0
C209 C 0.81902 0.23187 0.50148 0.0
C210 C 0.79804 0.22733 0.51985 0.0
C211 C 0.76083 0.19649 0.52116 0.0
C212 C 0.8579 0.26614 0.49976 0.0
C213 C 0.86208 0.30247 0.50169 0.0
C214 C 0.89035 0.26339 0.49545 0.0
C215 C 0.88842 0.22605 0.49406 0.0
C216 C 0.8749 0.20005 0.5114 0.0
C217 C 0.87287 0.16479 0.50988 0.0
C218 C 0.88451 0.15529 0.49116 0.0
C219 C 0.8983 0.18109 0.47394 0.0
C220 C 0.90036 0.21638 0.47536 0.0
C221 C 0.01793 0.43353 0.49713 0.0
C222 C 0.03463 0.4347 0.47741 0.0
C223 C 0.98479 0.4002 0.50318 0.0
C224 C 0.96741 0.36759 0.4895 0.0
C225 C 0.98552 0.36823 0.47053 0.0
C226 C 0.0187 0.40111 0.46467 0.0
C227 C 0.9297 0.33325 0.49408 0.0
C228 C 0.92566 0.29685 0.4927 0.0
C229 C 0.89721 0.3359 0.4986 0.0
C230 C 0.89826 0.37287 0.49893 0.0
C231 C 0.90832 0.39633 0.48038 0.0
C232 C 0.90945 0.43126 0.48088 0.0
C233 C 0.90023 0.44288 0.49977 0.0
C234 C 0.88974 0.41952 0.51818 0.0
C235 C 0.88862 0.38458 0.51778 0.0
H236 H 0.90111 0.46993 0.50012 0.0
H237 H 0.88291 0.12798 0.49002 0.0
H238 H 0.62441 0.70048 0.83436 0.0
H239 H 0.63765 0.76626 0.83387 0.0
H240 H 0.51811 0.72601 0.81757 0.0
H241 H 0.50549 0.66068 0.81662 0.0
H242 H 0.55587 0.78265 0.79428 0.0
H243 H 0.56456 0.76084 0.87083 0.0
H244 H 0.58682 0.74173 0.90454 0.0
H245 H 0.70221 0.83023 0.89505 0.0
H246 H 0.68071 0.84955 0.8611 0.0
H247 H 0.56287 0.95584 0.81629 0.0
H248 H 0.55241 0.89257 0.82637 0.0
H249 H 0.66969 0.92957 0.81427 0.0
H250 H 0.67992 0.99253 0.80358 0.0
H251 H 0.63273 0.876 0.85368 0.0
H252 H 0.61852 0.89428 0.7751 0.0
H253 H 0.59107 0.91424 0.74421 0.0
H254 H 0.47785 0.8289 0.76049 0.0
H255 H 0.5047 0.80954 0.79214 0.0
C256 C 0.60103 0.70579 0.83075 0.0
C257 C 0.56388 0.67556 0.82563 0.0
C258 C 0.60852 0.74335 0.83062 0.0
C259 C 0.57877 0.75121 0.82609 0.0
C260 C 0.54161 0.72085 0.82112 0.0
C261 C 0.53435 0.68347 0.82067 0.0
C262 C 0.5864 0.79104 0.82572 0.0
C263 C 0.57221 0.80272 0.80749 0.0
C264 C 0.60806 0.81765 0.84278 0.0
C265 C 0.62106 0.80642 0.86332 0.0
C266 C 0.59471 0.77608 0.87586 0.0
C267 C 0.60719 0.76523 0.89502 0.0
C268 C 0.64592 0.7847 0.90191 0.0
C269 C 0.67223 0.81515 0.88969 0.0
C270 C 0.65991 0.8261 0.87049 0.0
C271 C 0.58661 0.95066 0.81639 0.0
C272 C 0.62211 0.97867 0.80913 0.0
C273 C 0.58065 0.91469 0.82215 0.0
C274 C 0.61032 0.90662 0.82102 0.0
C275 C 0.64662 0.9355 0.81537 0.0
C276 C 0.65236 0.97122 0.80917 0.0
C277 C 0.60201 0.86688 0.82244 0.0
C278 C 0.61621 0.8555 0.8407 0.0
C279 C 0.57961 0.8402 0.80569 0.0
C280 C 0.5636 0.85082 0.78616 0.0
C281 C 0.58776 0.88003 0.77224 0.0
C282 C 0.5723 0.89122 0.75457 0.0
C283 C 0.5327 0.87281 0.75035 0.0
C284 C 0.50851 0.84317 0.7638 0.0
C285 C 0.52384 0.83216 0.78165 0.0
H286 H 0.52071 0.88146 0.73666 0.0
H287 H 0.65553 0.77623 0.91674 0.0
H288 H 0.91252 0.55285 0.16829 0.0
H289 H 0.85675 0.5609 0.17001 0.0
H290 H 0.79148 0.46406 0.12673 0.0
H291 H 0.84709 0.45673 0.12435 0.0
H292 H 0.7741 0.51547 0.11613 0.0
H293 H 0.78587 0.45877 0.18413 0.0
H294 H 0.81888 0.4552 0.21853 0.0
H295 H 0.83017 0.56008 0.2408 0.0
H296 H 0.79764 0.5645 0.20638 0.0
H297 H 0.5858 0.44879 0.13479 0.0
H298 H 0.64716 0.45176 0.14232 0.0
H299 H 0.69613 0.56623 0.16749 0.0
H300 H 0.63429 0.56319 0.16001 0.0
H301 H 0.72478 0.51431 0.18866 0.0
H302 H 0.70797 0.56671 0.11937 0.0
H303 H 0.6686 0.56297 0.08611 0.0
H304 H 0.66264 0.459 0.06699 0.0
H305 H 0.70145 0.4618 0.10035 0.0
C306 C 0.88642 0.53364 0.1589 0.0
C307 C 0.88428 0.5041 0.14622 0.0
C308 C 0.85445 0.53808 0.16004 0.0
C309 C 0.8196 0.51268 0.1488 0.0
C310 C 0.81794 0.48405 0.13557 0.0
C311 C 0.84988 0.47987 0.13423 0.0
C312 C 0.78439 0.51486 0.15112 0.0
C313 C 0.76347 0.51519 0.13203 0.0
C314 C 0.77046 0.51497 0.17184 0.0
C315 C 0.78972 0.51219 0.19259 0.0
C316 C 0.79562 0.4812 0.19631 0.0
C317 C 0.81421 0.479 0.21581 0.0
C318 C 0.82671 0.50746 0.23182 0.0
C319 C 0.82053 0.5381 0.22837 0.0
C320 C 0.80201 0.54046 0.20888 0.0
C321 C 0.60922 0.47393 0.14281 0.0
C322 C 0.60553 0.50572 0.1469 0.0
C323 C 0.64423 0.47566 0.14704 0.0
C324 C 0.67618 0.50935 0.15523 0.0
C325 C 0.67169 0.53994 0.16126 0.0
C326 C 0.63645 0.53817 0.15705 0.0
C327 C 0.71477 0.51438 0.15375 0.0
C328 C 0.73607 0.51533 0.17288 0.0
C329 C 0.72894 0.51498 0.13309 0.0
C330 C 0.70747 0.51439 0.1124 0.0
C331 C 0.69821 0.54303 0.10809 0.0
C332 C 0.67598 0.54106 0.08923 0.0
C333 C 0.66308 0.51074 0.07446 0.0
C334 C 0.67264 0.48247 0.07844 0.0
C335 C 0.69482 0.48427 0.0973 0.0
H336 H 0.6457 0.50917 0.05993 0.0
H337 H 0.84111 0.50572 0.24691 0.0
H338 H 0.48932 0.90579 0.51236 0.0
H339 H 0.42639 0.84853 0.51534 0.0
H340 H 0.42482 0.82208 0.44729 0.0
H341 H 0.48757 0.87915 0.44423 0.0
H342 H 0.35501 0.80852 0.45822 0.0
H343 H 0.44846 0.77707 0.48627 0.0
H344 H 0.50381 0.78556 0.50979 0.0
H345 H 0.44229 0.77236 0.56711 0.0
H346 H 0.38669 0.76427 0.54391 0.0
H347 H 0.20667 0.6152 0.45793 0.0
H348 H 0.26939 0.67267 0.45506 0.0
H349 H 0.27307 0.69523 0.52398 0.0
H350 H 0.21072 0.63727 0.52694 0.0
H351 H 0.34209 0.71108 0.5128 0.0
H352 H 0.24807 0.74212 0.48405 0.0
H353 H 0.19343 0.73404 0.45996 0.0
H354 H 0.25679 0.74807 0.40335 0.0
H355 H 0.31166 0.75574 0.4271 0.0
C356 C 0.47533 0.88812 0.49794 0.0
C357 C 0.4936 0.89707 0.47804 0.0
C358 C 0.43944 0.85519 0.49971 0.0
C359 C 0.42099 0.83057 0.48162 0.0
C360 C 0.43843 0.84043 0.46151 0.0
C361 C 0.47439 0.87312 0.45978 0.0
C362 C 0.38419 0.79398 0.48377 0.0
C363 C 0.35232 0.78705 0.47 0.0
C364 C 0.38037 0.76608 0.49934 0.0
C365 C 0.41356 0.77047 0.51335 0.0
C366 C 0.44683 0.77625 0.5039 0.0
C367 C 0.47824 0.78096 0.51717 0.0
C368 C 0.47663 0.77964 0.53994 0.0
C369 C 0.44353 0.77345 0.54947 0.0
C370 C 0.41204 0.76876 0.53627 0.0
C371 C 0.22115 0.63206 0.47252 0.0
C372 C 0.2039 0.62137 0.4927 0.0
C373 C 0.2569 0.66516 0.47085 0.0
C374 C 0.27594 0.68879 0.48925 0.0
C375 C 0.25913 0.67762 0.50953 0.0
C376 C 0.22345 0.64444 0.51121 0.0
C377 C 0.31275 0.72558 0.48727 0.0
C378 C 0.34469 0.73255 0.50106 0.0
C379 C 0.31669 0.7535 0.47165 0.0
C380 C 0.28382 0.74914 0.45735 0.0
C381 C 0.25025 0.74322 0.46646 0.0
C382 C 0.21926 0.73875 0.45287 0.0
C383 C 0.2216 0.74044 0.43014 0.0
C384 C 0.255 0.74672 0.42096 0.0
C385 C 0.28606 0.75116 0.43447 0.0
H386 H 0.19757 0.73697 0.41964 0.0
H387 H 0.50101 0.78334 0.55018 0.0
H388 H 0.59531 0.42004 0.81094 0.0
H389 H 0.58056 0.35472 0.80429 0.0
H390 H 0.67538 0.37306 0.84855 0.0
H391 H 0.69052 0.43838 0.85516 0.0
H392 H 0.673 0.33731 0.81093 0.0
H393 H 0.58523 0.32463 0.86489 0.0
H394 H 0.53441 0.33286 0.87942 0.0
H395 H 0.45805 0.26896 0.82503 0.0
H396 H 0.50864 0.2608 0.81001 0.0
H397 H 0.63289 0.15273 0.84011 0.0
H398 H 0.64218 0.21711 0.84103 0.0
H399 H 0.54909 0.18396 0.79241 0.0
H400 H 0.54003 0.11949 0.79122 0.0
H401 H 0.5474 0.22643 0.82805 0.0
H402 H 0.63351 0.23471 0.77565 0.0
H403 H 0.68426 0.22643 0.7611 0.0
H404 H 0.7637 0.29882 0.81217 0.0
H405 H 0.71322 0.30702 0.82727 0.0
C406 C 0.61307 0.41019 0.81922 0.0
C407 C 0.64401 0.43432 0.83365 0.0
C408 C 0.60452 0.37285 0.81546 0.0
C409 C 0.62669 0.35902 0.82609 0.0
C410 C 0.65792 0.38323 0.8402 0.0
C411 C 0.66645 0.4205 0.844 0.0
C412 C 0.61744 0.31927 0.82266 0.0
C413 C 0.64567 0.31306 0.81485 0.0
C414 C 0.58132 0.28771 0.82714 0.0
C415 C 0.55085 0.29248 0.8362 0.0
C416 C 0.55771 0.31261 0.85593 0.0
C417 C 0.52893 0.31721 0.86427 0.0
C418 C 0.49306 0.30155 0.85312 0.0
C419 C 0.48587 0.28114 0.83363 0.0
C420 C 0.51457 0.2765 0.8252 0.0
C421 C 0.61457 0.1593 0.82956 0.0
C422 C 0.58629 0.13152 0.81528 0.0
C423 C 0.61987 0.19596 0.8301 0.0
C424 C 0.59664 0.20531 0.81657 0.0
C425 C 0.56742 0.17726 0.80286 0.0
C426 C 0.56237 0.14061 0.80215 0.0
C427 C 0.6033 0.24458 0.81679 0.0
C428 C 0.57459 0.25069 0.82394 0.0
C429 C 0.63898 0.2761 0.81169 0.0
C430 C 0.66944 0.27117 0.80272 0.0
C431 C 0.66169 0.24856 0.78391 0.0
C432 C 0.69043 0.24394 0.77554 0.0
C433 C 0.72716 0.26201 0.78574 0.0
C434 C 0.73522 0.2848 0.80431 0.0
C435 C 0.70656 0.28946 0.81277 0.0
H436 H 0.74938 0.25843 0.77922 0.0
H437 H 0.47081 0.30513 0.85961 0.0
H438 H 0.56469 0.85097 0.53005 0.0
H439 H 0.57724 0.79844 0.53442 0.0
H440 H 0.67748 0.85942 0.497 0.0
H441 H 0.66449 0.91195 0.49204 0.0
H442 H 0.63741 0.78418 0.48613 0.0
H443 H 0.68661 0.85843 0.55254 0.0
H444 H 0.68357 0.89193 0.5848 0.0
H445 H 0.59167 0.78696 0.60799 0.0
H446 H 0.59382 0.75292 0.57572 0.0
H447 H 0.70693 0.65883 0.52176 0.0
H448 H 0.70052 0.71463 0.51255 0.0
H449 H 0.60341 0.67136 0.55277 0.0
H450 H 0.61077 0.61676 0.56255 0.0
H451 H 0.64891 0.74245 0.56163 0.0
H452 H 0.59644 0.66856 0.49463 0.0
H453 H 0.59754 0.63454 0.46205 0.0
H454 H 0.69347 0.73735 0.4398 0.0
H455 H 0.69324 0.77188 0.47241 0.0
C456 C 0.5894 0.85326 0.52272 0.0
C457 C 0.61387 0.88578 0.51091 0.0
C458 C 0.59657 0.82322 0.52526 0.0
C459 C 0.62871 0.82538 0.51638 0.0
C460 C 0.65262 0.85732 0.50405 0.0
C461 C 0.64525 0.88731 0.50131 0.0
C462 C 0.63766 0.79461 0.52052 0.0
C463 C 0.6405 0.77533 0.50263 0.0
C464 C 0.64118 0.78285 0.54204 0.0
C465 C 0.64024 0.80318 0.56164 0.0
C466 C 0.66563 0.84253 0.56446 0.0
C467 C 0.66407 0.86161 0.58276 0.0
C468 C 0.6374 0.8416 0.59842 0.0
C469 C 0.6123 0.80243 0.59585 0.0
C470 C 0.61372 0.78322 0.57758 0.0
C471 C 0.68418 0.66137 0.52847 0.0
C472 C 0.65952 0.6339 0.54297 0.0
C473 C 0.6804 0.69305 0.52316 0.0
C474 C 0.65132 0.6971 0.53188 0.0
C475 C 0.62622 0.66904 0.54596 0.0
C476 C 0.63039 0.63787 0.55154 0.0
C477 C 0.64753 0.73107 0.52723 0.0
C478 C 0.64599 0.75125 0.54509 0.0
C479 C 0.645 0.74342 0.50568 0.0
C480 C 0.64508 0.72268 0.48607 0.0
C481 C 0.61795 0.68383 0.48287 0.0
C482 C 0.61838 0.66448 0.46439 0.0
C483 C 0.64563 0.68374 0.4489 0.0
C484 C 0.67243 0.72244 0.45183 0.0
C485 C 0.67214 0.74193 0.4703 0.0
H486 H 0.64591 0.66871 0.4346 0.0
H487 H 0.63622 0.85643 0.61256 0.0
H488 H 0.76433 0.58934 0.8558 0.0
H489 H 0.8306 0.60528 0.85965 0.0
H490 H 0.83748 0.61395 0.78936 0.0
H491 H 0.76967 0.59504 0.78545 0.0
H492 H 0.86586 0.57516 0.80146 0.0
H493 H 0.89197 0.69418 0.82771 0.0
H494 H 0.88458 0.74116 0.84844 0.0
H495 H 0.90343 0.69592 0.90895 0.0
H496 H 0.91037 0.64829 0.88863 0.0
H497 H 0.06366 0.6216 0.83839 0.0
H498 H 0.01478 0.63596 0.82347 0.0
H499 H 0.93693 0.56113 0.87061 0.0
H500 H 0.98421 0.54476 0.88476 0.0
H501 H 0.95727 0.65022 0.8629 0.0
H502 H 0.9103 0.51982 0.83111 0.0
H503 H 0.92153 0.4774 0.80836 0.0
H504 H 0.94957 0.55579 0.75494 0.0
H505 H 0.9389 0.59884 0.77752 0.0
C506 C 0.78017 0.59555 0.84117 0.0
C507 C 0.76186 0.59091 0.82032 0.0
C508 C 0.81838 0.60505 0.84338 0.0
C509 C 0.83964 0.61157 0.82482 0.0
C510 C 0.82186 0.60908 0.80396 0.0
C511 C 0.78317 0.59843 0.80172 0.0
C512 C 0.87845 0.61599 0.82732 0.0
C513 C 0.88617 0.59256 0.81453 0.0
C514 C 0.90561 0.63881 0.84419 0.0
C515 C 0.90162 0.66754 0.85659 0.0
C516 C 0.89434 0.69409 0.84544 0.0
C517 C 0.89025 0.72086 0.85713 0.0
C518 C 0.89352 0.72151 0.88 0.0
C519 C 0.90095 0.69542 0.89123 0.0
C520 C 0.90506 0.66857 0.87963 0.0
C521 C 0.03595 0.60773 0.84538 0.0
C522 C 0.02809 0.58222 0.86295 0.0
C523 C 0.00828 0.61629 0.83696 0.0
C524 C 0.97261 0.59982 0.84615 0.0
C525 C 0.96458 0.57439 0.86353 0.0
C526 C 0.99181 0.56529 0.87167 0.0
C527 C 0.94293 0.60836 0.83774 0.0
C528 C 0.93719 0.63412 0.84942 0.0
C529 C 0.91817 0.58864 0.81954 0.0
C530 C 0.92429 0.56266 0.80604 0.0
C531 C 0.9192 0.52812 0.81458 0.0
C532 C 0.92537 0.50394 0.80171 0.0
C533 C 0.93638 0.51395 0.78024 0.0
C534 C 0.94112 0.54811 0.77158 0.0
C535 C 0.93501 0.57238 0.7844 0.0
H536 H 0.94114 0.4952 0.77029 0.0
H537 H 0.89031 0.74225 0.88902 0.0
H538 H 0.17482 0.67625 0.17962 0.0
H539 H 0.22396 0.74301 0.18302 0.0
H540 H 0.17785 0.76803 0.12374 0.0
H541 H 0.12841 0.70051 0.11994 0.0
H542 H 0.25534 0.79994 0.12434 0.0
H543 H 0.16562 0.79659 0.1728 0.0
H544 H 0.12124 0.7711 0.20266 0.0
H545 H 0.2138 0.78935 0.24825 0.0
H546 H 0.25865 0.81449 0.21862 0.0
H547 H 0.39846 0.99407 0.1443 0.0
H548 H 0.33516 0.9374 0.13752 0.0
H549 H 0.35223 0.88735 0.19704 0.0
H550 H 0.4147 0.94448 0.20418 0.0
H551 H 0.28169 0.87343 0.19322 0.0
H552 H 0.36786 0.86483 0.14516 0.0
H553 H 0.41355 0.88681 0.11595 0.0
H554 H 0.32922 0.88805 0.07051 0.0
H555 H 0.28317 0.86648 0.09955 0.0
C556 C 0.17483 0.69585 0.16732 0.0
C557 C 0.14762 0.68306 0.1495 0.0
C558 C 0.20286 0.73412 0.16939 0.0
C559 C 0.20413 0.76056 0.15384 0.0
C560 C 0.1771 0.74803 0.13599 0.0
C561 C 0.14891 0.70953 0.13387 0.0
C562 C 0.23508 0.80082 0.15594 0.0
C563 C 0.26063 0.81645 0.13917 0.0
C564 C 0.24231 0.82191 0.17549 0.0
C565 C 0.21548 0.80733 0.19344 0.0
C566 C 0.17648 0.79501 0.18917 0.0
C567 C 0.15124 0.78063 0.20606 0.0
C568 C 0.16469 0.77858 0.22733 0.0
C569 C 0.20343 0.79099 0.23177 0.0
C570 C 0.22879 0.80538 0.21494 0.0
C571 C 0.38835 0.97107 0.156 0.0
C572 C 0.41127 0.97335 0.17472 0.0
C573 C 0.35238 0.9387 0.15208 0.0
C574 C 0.3392 0.90792 0.16662 0.0
C575 C 0.36177 0.91074 0.18561 0.0
C576 C 0.39745 0.94322 0.18964 0.0
C577 C 0.30259 0.87209 0.1619 0.0
C578 C 0.27596 0.85731 0.17818 0.0
C579 C 0.29461 0.85157 0.14201 0.0
C580 C 0.32227 0.86453 0.12458 0.0
C581 C 0.35918 0.87008 0.12898 0.0
C582 C 0.38511 0.88241 0.11245 0.0
C583 C 0.37433 0.88895 0.09141 0.0
C584 C 0.33756 0.88306 0.08683 0.0
C585 C 0.31153 0.87078 0.10331 0.0
H586 H 0.39445 0.89848 0.07863 0.0
H587 H 0.14509 0.7674 0.24038 0.0
H588 H 0.59162 0.17709 0.44305 0.0
H589 H 0.58904 0.23542 0.44799 0.0
H590 H 0.6161 0.2345 0.51726 0.0
H591 H 0.61728 0.17582 0.5126 0.0
H592 H 0.56441 0.25361 0.51166 0.0
H593 H 0.68456 0.29227 0.47957 0.0
H594 H 0.72552 0.2918 0.45152 0.0
H595 H 0.66888 0.3269 0.40289 0.0
H596 H 0.62727 0.32714 0.43063 0.0
H597 H 0.63614 0.44431 0.5434 0.0
H598 H 0.6313 0.38363 0.53406 0.0
H599 H 0.59559 0.39328 0.46748 0.0
H600 H 0.60127 0.45443 0.4767 0.0
H601 H 0.64673 0.3688 0.46899 0.0
H602 H 0.53025 0.33515 0.50327 0.0
H603 H 0.49213 0.33732 0.53254 0.0
H604 H 0.54499 0.29398 0.57845 0.0
H605 H 0.58381 0.29204 0.54953 0.0
C606 C 0.59668 0.1892 0.45934 0.0
C607 C 0.60473 0.17191 0.47741 0.0
C608 C 0.59542 0.22263 0.46213 0.0
C609 C 0.60298 0.2397 0.48295 0.0
C610 C 0.61013 0.22189 0.50104 0.0
C611 C 0.61083 0.18831 0.49833 0.0
C612 C 0.60428 0.27645 0.48611 0.0
C613 C 0.58265 0.27884 0.50243 0.0
C614 C 0.6274 0.30923 0.47375 0.0
C615 C 0.65254 0.30931 0.45711 0.0
C616 C 0.68068 0.29964 0.46286 0.0
C617 C 0.70403 0.29945 0.44703 0.0
C618 C 0.69973 0.3092 0.42542 0.0
C619 C 0.67214 0.31928 0.41962 0.0
C620 C 0.64868 0.31948 0.43539 0.0
C621 C 0.62761 0.43353 0.52675 0.0
C622 C 0.61922 0.45392 0.51074 0.0
C623 C 0.62461 0.39886 0.52145 0.0
C624 C 0.61255 0.38372 0.50014 0.0
C625 C 0.60487 0.40445 0.48401 0.0
C626 C 0.60805 0.43925 0.48929 0.0
C627 C 0.6075 0.34601 0.49482 0.0
C628 C 0.62827 0.34345 0.47807 0.0
C629 C 0.58391 0.31313 0.50693 0.0
C630 C 0.56011 0.31369 0.52426 0.0
C631 C 0.53389 0.32627 0.51964 0.0
C632 C 0.51214 0.32744 0.53616 0.0
C633 C 0.51618 0.31586 0.55735 0.0
C634 C 0.5419 0.30296 0.56203 0.0
C635 C 0.56374 0.30176 0.54557 0.0
H636 H 0.49935 0.31682 0.57012 0.0
H637 H 0.71783 0.30903 0.41318 0.0
H638 H 0.43755 0.52104 0.81984 0.0
H639 H 0.37282 0.5111 0.81884 0.0
H640 H 0.38742 0.54046 0.88742 0.0
H641 H 0.4525 0.55086 0.88858 0.0
H642 H 0.31367 0.47682 0.87402 0.0
H643 H 0.39928 0.60757 0.85512 0.0
H644 H 0.45049 0.65954 0.83489 0.0
H645 H 0.38552 0.6128 0.77415 0.0
H646 H 0.33379 0.56054 0.7941 0.0
H647 H 0.16944 0.52469 0.88249 0.0
H648 H 0.22907 0.52326 0.88367 0.0
H649 H 0.22149 0.51517 0.8131 0.0
H650 H 0.16253 0.51818 0.81192 0.0
H651 H 0.29115 0.56542 0.82686 0.0
H652 H 0.20181 0.43717 0.84708 0.0
H653 H 0.15082 0.38693 0.86832 0.0
H654 H 0.22294 0.42871 0.92727 0.0
H655 H 0.2742 0.47952 0.90643 0.0
C656 C 0.42681 0.52474 0.83483 0.0
C657 C 0.4502 0.53698 0.85428 0.0
C658 C 0.38989 0.5192 0.83418 0.0
C659 C 0.37564 0.52545 0.853 0.0
C660 C 0.39805 0.53557 0.87274 0.0
C661 C 0.43519 0.54156 0.87335 0.0
C662 C 0.33832 0.52376 0.8517 0.0
C663 C 0.30869 0.49632 0.86388 0.0
C664 C 0.33186 0.54882 0.83814 0.0
C665 C 0.36291 0.57997 0.82606 0.0
C666 C 0.39606 0.60822 0.83743 0.0
C667 C 0.42513 0.63778 0.82603 0.0
C668 C 0.42138 0.63936 0.80323 0.0
C669 C 0.38842 0.61149 0.79181 0.0
C670 C 0.35917 0.58197 0.80316 0.0
C671 C 0.18059 0.52263 0.86728 0.0
C672 C 0.16159 0.52168 0.84714 0.0
C673 C 0.21443 0.52144 0.86795 0.0
C674 C 0.22948 0.5185 0.84849 0.0
C675 C 0.21035 0.51733 0.82833 0.0
C676 C 0.17669 0.51895 0.82765 0.0
C677 C 0.26599 0.51824 0.84914 0.0
C678 C 0.29571 0.54551 0.83686 0.0
C679 C 0.27244 0.493 0.86266 0.0
C680 C 0.24173 0.46234 0.87521 0.0
C681 C 0.2067 0.4358 0.8646 0.0
C682 C 0.17777 0.4072 0.87656 0.0
C683 C 0.18361 0.40468 0.89914 0.0
C684 C 0.21845 0.43071 0.90979 0.0
C685 C 0.24747 0.45939 0.8979 0.0
H686 H 0.16117 0.38252 0.90838 0.0
H687 H 0.44396 0.66224 0.79443 0.0
H688 H 0.83409 0.4059 0.18656 0.0
H689 H 0.77821 0.34199 0.18597 0.0
H690 H 0.85124 0.29366 0.18205 0.0
H691 H 0.90719 0.35793 0.1813 0.0
H692 H 0.79242 0.25601 0.15619 0.0
H693 H 0.80837 0.29518 0.23107 0.0
H694 H 0.81696 0.33757 0.26179 0.0
H695 H 0.70925 0.32929 0.24303 0.0
H696 H 0.70022 0.28718 0.21203 0.0
H697 H 0.65071 0.07175 0.19586 0.0
H698 H 0.70779 0.134 0.19034 0.0
H699 H 0.63637 0.18312 0.17578 0.0
H700 H 0.57929 0.12102 0.18108 0.0
H701 H 0.69434 0.2188 0.21085 0.0
H702 H 0.67955 0.17641 0.13601 0.0
H703 H 0.67248 0.13187 0.10696 0.0
H704 H 0.78048 0.14313 0.12852 0.0
H705 H 0.78794 0.18735 0.15792 0.0
C706 C 0.83823 0.38161 0.18576 0.0
C707 C 0.8749 0.3867 0.18422 0.0
C708 C 0.80628 0.34507 0.18549 0.0
C709 C 0.81052 0.3129 0.18445 0.0
C710 C 0.84724 0.31801 0.18291 0.0
C711 C 0.87917 0.35466 0.18261 0.0
C712 C 0.77655 0.27402 0.18469 0.0
C713 C 0.7713 0.24775 0.16836 0.0
C714 C 0.74862 0.26326 0.20037 0.0
C715 C 0.75379 0.28829 0.21913 0.0
C716 C 0.78662 0.30257 0.23343 0.0
C717 C 0.79155 0.32653 0.25089 0.0
C718 C 0.76371 0.33619 0.25432 0.0
C719 C 0.73081 0.32181 0.24034 0.0
C720 C 0.72574 0.29785 0.22284 0.0
C721 C 0.64728 0.09574 0.19106 0.0
C722 C 0.61075 0.09175 0.18886 0.0
C723 C 0.67977 0.13111 0.18786 0.0
C724 C 0.67609 0.16294 0.18267 0.0
C725 C 0.63961 0.15873 0.17972 0.0
C726 C 0.60712 0.1233 0.18261 0.0
C727 C 0.71031 0.20125 0.18233 0.0
C728 C 0.7156 0.22725 0.19873 0.0
C729 C 0.73852 0.21139 0.16702 0.0
C730 C 0.73412 0.1849 0.14931 0.0
C731 C 0.70163 0.16912 0.13469 0.0
C732 C 0.69759 0.14399 0.11813 0.0
C733 C 0.72596 0.13459 0.11593 0.0
C734 C 0.75849 0.1504 0.13025 0.0
C735 C 0.76266 0.17553 0.14686 0.0
H736 H 0.72278 0.11514 0.10309 0.0
H737 H 0.7676 0.35477 0.26785 0.0
H738 H 0.98785 0.46647 0.09748 0.0
H739 H 0.00703 0.47126 0.06004 0.0
H740 H 0.11674 0.56925 0.07848 0.0
H741 H 0.09659 0.56581 0.11575 0.0
H742 H 0.09201 0.58492 0.04359 0.0
H743 H 0.10306 0.47724 0.06409 0.0
H744 H 0.08368 0.414 0.07972 0.0
H745 H 0.98889 0.36202 0.03218 0.0
H746 H 0.00735 0.425 0.01644 0.0
H747 H 0.14803 0.58894 0.93438 0.0
H748 H 0.14696 0.57846 0.97413 0.0
H749 H 0.02546 0.49972 0.96741 0.0
H750 H 0.02635 0.51026 0.92785 0.0
H751 H 0.06681 0.47548 0.99693 0.0
H752 H 0.05307 0.58623 0.98089 0.0
H753 H 0.07428 0.64991 0.96535 0.0
H754 H 0.17885 0.69614 0.00543 0.0
H755 H 0.15845 0.63254 0.02097 0.0
C756 C 0.01628 0.48868 0.09362 0.0
C757 C 0.04072 0.51582 0.1095 0.0
C758 C 0.02739 0.49126 0.07221 0.0
C759 C 0.06366 0.52027 0.06638 0.0
C760 C 0.08862 0.5466 0.0825 0.0
C761 C 0.07714 0.54459 0.1038 0.0
C762 C 0.07403 0.52506 0.04314 0.0
C763 C 0.08738 0.56107 0.03361 0.0
C764 C 0.06757 0.49397 0.02985 0.0
C765 C 0.05651 0.45593 0.03916 0.0
C766 C 0.07795 0.45236 0.05704 0.0
C767 C 0.06714 0.41655 0.06592 0.0
C768 C 0.03505 0.38402 0.05697 0.0
C769 C 0.01375 0.38724 0.03909 0.0
C770 C 0.02441 0.42299 0.03016 0.0
C771 C 0.12126 0.56907 0.94142 0.0
C772 C 0.0872 0.55068 0.92818 0.0
C773 C 0.12067 0.56314 0.96404 0.0
C774 C 0.0861 0.53842 0.97363 0.0
C775 C 0.05241 0.51883 0.96028 0.0
C776 C 0.05289 0.52511 0.93777 0.0
C777 C 0.08414 0.53495 0.9977 0.0
C778 C 0.07224 0.49927 0.00724 0.0
C779 C 0.09239 0.56636 0.01109 0.0
C780 C 0.10446 0.60459 0.00188 0.0
C781 C 0.08073 0.60991 0.98624 0.0
C782 C 0.09257 0.64599 0.97746 0.0
C783 C 0.12795 0.67703 0.98434 0.0
C784 C 0.1515 0.67206 8e-05 0.0
C785 C 0.13981 0.63602 0.00888 0.0
H786 H 0.13707 0.70494 0.97753 0.0
H787 H 0.02671 0.35633 0.06388 0.0
H788 H 0.55852 0.03469 0.42895 0.0
H789 H 0.5445 0.02204 0.38955 0.0
H790 H 0.63189 0.99157 0.38774 0.0
H791 H 0.64561 0.00333 0.42728 0.0
H792 H 0.63386 0.04759 0.35507 0.0
H793 H 0.55075 0.92189 0.38205 0.0
H794 H 0.50176 0.87516 0.40571 0.0
H795 H 0.42144 0.90717 0.37934 0.0
H796 H 0.47009 0.95418 0.35548 0.0
H797 H 0.59561 0.99341 0.24476 0.0
H798 H 0.60369 0.98602 0.28421 0.0
H799 H 0.50327 0.99345 0.29439 0.0
H800 H 0.49466 1.00004 0.25491 0.0
H801 H 0.50901 0.94522 0.32328 0.0
H802 H 0.59113 0.07219 0.29768 0.0
H803 H 0.63945 0.12051 0.27427 0.0
H804 H 0.72153 0.08975 0.29906 0.0
H805 H 0.67344 0.04074 0.32236 0.0
C806 C 0.57473 0.02526 0.42019 0.0
C807 C 0.60323 0.02009 0.43119 0.0
C808 C 0.56657 0.01789 0.39773 0.0
C809 C 0.5871 0.00576 0.38587 0.0
C810 C 0.61574 0.00084 0.39671 0.0
C811 C 0.62346 0.00752 0.41926 0.0
C812 C 0.57923 0.99933 0.36198 0.0
C813 C 0.60689 0.02479 0.34806 0.0
C814 C 0.54363 0.97021 0.35301 0.0
C815 C 0.51415 0.94177 0.36713 0.0
C816 C 0.52272 0.91915 0.3814 0.0
C817 C 0.49499 0.89256 0.39483 0.0
C818 C 0.45856 0.88834 0.39415 0.0
C819 C 0.4497 0.91052 0.37989 0.0
C820 C 0.47731 0.93705 0.36635 0.0
C821 C 0.57481 0.9926 0.25541 0.0
C822 C 0.54474 0.99766 0.24687 0.0
C823 C 0.57948 0.98846 0.2779 0.0
C824 C 0.55458 0.99008 0.29226 0.0
C825 C 0.52288 0.99225 0.28361 0.0
C826 C 0.51795 0.99596 0.26106 0.0
C827 C 0.56374 0.99348 0.31623 0.0
C828 C 0.53622 0.96771 0.33022 0.0
C829 C 0.59942 0.02265 0.32531 0.0
C830 C 0.62857 0.05252 0.31158 0.0
C831 C 0.61941 0.07556 0.29804 0.0
C832 C 0.64675 0.10307 0.28479 0.0
C833 C 0.6835 0.10813 0.28513 0.0
C834 C 0.69302 0.08575 0.29878 0.0
C835 C 0.66574 0.0581 0.31201 0.0
H836 H 0.70463 0.12944 0.27486 0.0
H837 H 0.43716 0.86781 0.40461 0.0
H838 H 0.66609 0.59077 0.78556 0.0
H839 H 0.68293 0.58375 0.74876 0.0
H840 H 0.56741 0.49246 0.73455 0.0
H841 H 0.55031 0.5001 0.77124 0.0
H842 H 0.63914 0.48778 0.71807 0.0
H843 H 0.57089 0.55858 0.71649 0.0
H844 H 0.55949 0.60811 0.73067 0.0
H845 H 0.6753 0.69369 0.71941 0.0
H846 H 0.68753 0.64443 0.70554 0.0
H847 H 0.61967 0.49508 0.60045 0.0
H848 H 0.6137 0.48705 0.64012 0.0
H849 H 0.70902 0.60118 0.6506 0.0
H850 H 0.71487 0.60935 0.61107 0.0
H851 H 0.6487 0.59204 0.67007 0.0
H852 H 0.7151 0.52331 0.66678 0.0
H853 H 0.72844 0.47455 0.6536 0.0
H854 H 0.61968 0.38603 0.67409 0.0
H855 H 0.60541 0.4343 0.68712 0.0
C856 C 0.6447 0.56851 0.77476 0.0
C857 C 0.60712 0.54571 0.78109 0.0
C858 C 0.65428 0.56454 0.75382 0.0
C859 C 0.62644 0.5374 0.7391 0.0
C860 C 0.58932 0.5132 0.74584 0.0
C861 C 0.57955 0.51774 0.76663 0.0
C862 C 0.63467 0.53832 0.71585 0.0
C863 C 0.64088 0.51023 0.70741 0.0
C864 C 0.63765 0.56812 0.70225 0.0
C865 C 0.63025 0.59781 0.71027 0.0
C866 C 0.59402 0.5879 0.71726 0.0
C867 C 0.58739 0.61592 0.7252 0.0
C868 C 0.6167 0.65401 0.72601 0.0
C869 C 0.65265 0.66416 0.71882 0.0
C870 C 0.65945 0.63621 0.71092 0.0
C871 C 0.63999 0.51801 0.61128 0.0
C872 C 0.6675 0.55297 0.60273 0.0
C873 C 0.63656 0.51341 0.63393 0.0
C874 C 0.66084 0.54359 0.64833 0.0
C875 C 0.68982 0.57762 0.6398 0.0
C876 C 0.69312 0.58227 0.61724 0.0
C877 C 0.65346 0.54148 0.67193 0.0
C878 C 0.6472 0.56947 0.68055 0.0
C879 C 0.65059 0.51159 0.68557 0.0
C880 C 0.65901 0.48246 0.67772 0.0
C881 C 0.69385 0.49346 0.66829 0.0
C882 C 0.70162 0.4659 0.66089 0.0
C883 C 0.67488 0.42722 0.66295 0.0
C884 C 0.64035 0.41601 0.67248 0.0
C885 C 0.63242 0.44346 0.67989 0.0
H886 H 0.68095 0.40593 0.65721 0.0
H887 H 0.61151 0.67567 0.73216 0.0
H888 H 0.59272 0.06634 0.55849 0.0
H889 H 0.60066 0.07321 0.59826 0.0
H890 H 0.67413 0.02472 0.59998 0.0
H891 H 0.66468 0.01601 0.56021 0.0
H892 H 0.62852 0.99594 0.63078 0.0
H893 H 0.7082 0.12388 0.60735 0.0
H894 H 0.72412 0.18218 0.58648 0.0
H895 H 0.63896 0.19332 0.61862 0.0
H896 H 0.62207 0.13472 0.63943 0.0
H897 H 0.68501 0.04219 0.74285 0.0
H898 H 0.68901 0.04422 0.70307 0.0
H899 H 0.60261 0.07648 0.69617 0.0
H900 H 0.59811 0.07412 0.7359 0.0
H901 H 0.66072 0.11633 0.66834 0.0
H902 H 0.57696 0.98443 0.68788 0.0
H903 H 0.55936 0.9246 0.70741 0.0
H904 H 0.6548 0.92238 0.68222 0.0
H905 H 0.67292 0.9823 0.66249 0.0
C906 C 0.6106 0.05716 0.56735 0.0
C907 C 0.62812 0.04067 0.55624 0.0
C908 C 0.6154 0.06142 0.59008 0.0
C909 C 0.63873 0.05032 0.60213 0.0
C910 C 0.65613 0.03367 0.59105 0.0
C911 C 0.65069 0.02867 0.56833 0.0
C912 C 0.64366 0.0546 0.62636 0.0
C913 C 0.63637 0.02255 0.63892 0.0
C914 C 0.65317 0.0891 0.6371 0.0
C915 C 0.66369 0.12472 0.62485 0.0
C916 C 0.69272 0.13864 0.60989 0.0
C917 C 0.70192 0.17175 0.59807 0.0
C918 C 0.68252 0.19141 0.6012 0.0
C919 C 0.65395 0.17805 0.6162 0.0
C920 C 0.64458 0.14491 0.62804 0.0
C921 C 0.66691 0.0498 0.73286 0.0
C922 C 0.64099 0.05766 0.74253 0.0
C923 C 0.66931 0.05103 0.71016 0.0
C924 C 0.64574 0.06001 0.69668 0.0
C925 C 0.62106 0.06951 0.7063 0.0
C926 C 0.61863 0.06827 0.72902 0.0
C927 C 0.64538 0.05766 0.67253 0.0
C928 C 0.65346 0.09 0.66005 0.0
C929 C 0.63693 0.02358 0.66181 0.0
C930 C 0.62649 0.98797 0.67392 0.0
C931 C 0.59435 0.97132 0.68666 0.0
C932 C 0.58423 0.93734 0.69771 0.0
C933 C 0.60602 0.91973 0.69614 0.0
C934 C 0.63796 0.93606 0.68345 0.0
C935 C 0.64812 0.96997 0.67229 0.0
H936 H 0.59811 0.89339 0.7047 0.0
H937 H 0.68967 0.21702 0.59202 0.0
H938 H 0.61606 0.50389 0.90431 0.0
H939 H 0.59946 0.49781 0.94251 0.0
H940 H 0.55943 0.57742 0.93178 0.0
H941 H 0.57644 0.58397 0.89343 0.0
H942 H 0.60703 0.59083 0.97093 0.0
H943 H 0.49508 0.48773 0.93413 0.0
H944 H 0.46115 0.43143 0.90977 0.0
H945 H 0.5024 0.37147 0.95109 0.0
H946 H 0.53703 0.42763 0.97555 0.0
H947 H 0.52481 0.55497 0.07413 0.0
H948 H 0.52992 0.56062 0.03433 0.0
H949 H 0.55997 0.47275 0.03456 0.0
H950 H 0.55387 0.46624 0.07407 0.0
H951 H 0.51296 0.46464 -0.00023 0.0
H952 H 0.62838 0.56453 0.03421 0.0
H953 H 0.66729 0.6197 0.05878 0.0
H954 H 0.62568 0.68442 0.0225 0.0
H955 H 0.58601 0.62935 0.99788 0.0
C956 C 0.60381 0.5202 0.91007 0.0
C957 C 0.59697 0.54399 0.89581 0.0
C958 C 0.5942 0.51655 0.93186 0.0
C959 C 0.57779 0.53679 0.93985 0.0
C960 C 0.5718 0.56134 0.92584 0.0
C961 C 0.58114 0.56476 0.90393 0.0
C962 C 0.56689 0.53204 0.96287 0.0
C963 C 0.58589 0.56346 0.97718 0.0
C964 C 0.54019 0.49602 0.97108 0.0
C965 C 0.51886 0.46199 0.95659 0.0
C966 C 0.49711 0.46262 0.93795 0.0
C967 C 0.47772 0.43072 0.92414 0.0
C968 C 0.47967 0.39792 0.92886 0.0
C969 C 0.50092 0.39691 0.94745 0.0
C970 C 0.52039 0.42874 0.96131 0.0
C971 C 0.53172 0.53635 0.0656 0.0
C972 C 0.53928 0.51043 0.07724 0.0
C973 C 0.53495 0.53981 0.04292 0.0
C974 C 0.54585 0.51746 0.03154 0.0
C975 C 0.55163 0.49034 0.043 0.0
C976 C 0.54842 0.48688 0.06561 0.0
C977 C 0.55312 0.52343 0.00791 0.0
C978 C 0.53361 0.4922 0.99349 0.0
C979 C 0.57991 0.55946 -0.00032 0.0
C980 C 0.60386 0.59268 0.01437 0.0
C981 C 0.62726 0.59042 0.03158 0.0
C982 C 0.6495 0.62168 0.0455 0.0
C983 C 0.64887 0.65551 0.04225 0.0
C984 C 0.62607 0.65817 0.02503 0.0
C985 C 0.60371 0.62694 0.01108 0.0
H986 H 0.66611 0.6797 0.05304 0.0
H987 H 0.46468 0.37327 0.91813 0.0
H988 H 0.09103 0.5888 0.22971 0.0
H989 H 0.10041 0.59004 0.26954 0.0
H990 H 0.01497 0.47057 0.27157 0.0
H991 H 0.00385 0.46995 0.23176 0.0
H992 H 0.00685 0.50349 0.30382 0.0
H993 H 0.11687 0.50708 0.27563 0.0
H994 H 0.17291 0.53217 0.25306 0.0
H995 H 0.2243 0.63969 0.28695 0.0
H996 H 0.16839 0.61539 0.30955 0.0
H997 H 0.06684 0.45579 0.40456 0.0
H998 H 0.059 0.46381 0.36535 0.0
H999 H 0.11285 0.58532 0.37462 0.0
H1000 H 0.11928 0.57755 0.41426 0.0
H1001 H 0.1382 0.55587 0.33775 0.0
H1002 H 0.02648 0.54725 0.36752 0.0
H1003 H 0.97048 0.51804 0.39019 0.0
H1004 H 0.92262 0.41396 0.35306 0.0
H1005 H 0.97868 0.44237 0.33039 0.0
C1006 C 0.07417 0.56286 0.23869 0.0
C1007 C 0.04693 0.52919 0.22769 0.0
C1008 C 0.07971 0.56351 0.26145 0.0
C1009 C 0.05915 0.53016 0.27358 0.0
C1010 C 0.03132 0.49667 0.2626 0.0
C1011 C 0.02502 0.49627 0.23987 0.0
C1012 C 0.06673 0.53004 0.29766 0.0
C1013 C 0.03558 0.51462 0.31113 0.0
C1014 C 0.10428 0.54518 0.30739 0.0
C1015 C 0.13828 0.55954 0.29413 0.0
C1016 C 0.14006 0.53613 0.2782 0.0
C1017 C 0.17179 0.5502 0.26541 0.0
C1018 C 0.20206 0.58754 0.26852 0.0
C1019 C 0.20079 0.61079 0.28453 0.0
C1020 C 0.16912 0.59688 0.29735 0.0
C1021 C 0.07667 0.48426 0.3984 0.0
C1022 C 0.09311 0.51598 0.41268 0.0
C1023 C 0.07244 0.48876 0.37595 0.0
C1024 C 0.08507 0.52507 0.36723 0.0
C1025 C 0.10294 0.55706 0.38116 0.0
C1026 C 0.10671 0.55255 0.40376 0.0
C1027 C 0.07836 0.52905 0.34357 0.0
C1028 C 0.10961 0.54507 0.33027 0.0
C1029 C 0.04092 0.51382 0.33395 0.0
C1030 C 0.00695 0.49685 0.34738 0.0
C1031 C 0.00418 0.51804 0.3643 0.0
C1032 C 0.9724 0.50164 0.37713 0.0
C1033 C 0.94306 0.46414 0.3731 0.0
C1034 C 0.94539 0.44299 0.35618 0.0
C1035 C 0.97714 0.45925 0.34332 0.0
H1036 H 0.91848 0.45149 0.38306 0.0
H1037 H 0.22652 0.59848 0.25854 0.0
loop_
_geom_bond_atom_site_label_1
_geom_bond_atom_site_label_2
_geom_bond_distance
_geom_bond_site_symmetry_2
_ccdc_geom_bond_type
Zn0 O6 1.969 . S
Zn0 O7 1.965 . S
Zn0 O11 2.024 . S
Zn0 O16 1.969 . S
Zn1 O8 1.969 . S
Zn1 O14 1.969 . S
Zn1 O15 1.965 . S
Zn1 O17 2.024 . S
C2 O3 1.229 . S
C2 O11 1.058 . S
O3 C2 1.229 . S
C4 O5 1.229 . S
C4 O17 1.058 . S
O5 C4 1.229 . S
O6 Zn0 1.969 . S
O6 C9 1.267 . S
O7 Zn0 1.965 . S
O7 C18 1.260 . S
O8 Zn1 1.969 . S
O8 C18 1.258 1_655 S
C9 O6 1.267 . S
C9 O10 1.228 . S
O10 C9 1.228 . S
O11 Zn0 2.024 . S
O11 C2 1.058 . S
C12 O13 1.228 . S
C12 O14 1.267 . S
O13 C12 1.228 . S
O14 Zn1 1.969 . S
O14 C12 1.267 . S
O15 Zn1 1.965 . S
O15 C19 1.260 1_655 S
O16 Zn0 1.969 . S
O16 C19 1.258 . S
O17 Zn1 2.024 . S
O17 C4 1.058 . S
C18 O7 1.260 . S
C18 O8 1.258 1_455 S
C19 O15 1.260 1_455 S
C19 O16 1.258 . S
Zn20 O26 1.969 . S
Zn20 O27 1.965 . S
Zn20 O31 2.024 . S
Zn20 O36 1.969 . S
Zn21 O28 1.969 . S
Zn21 O34 1.969 . S
Zn21 O35 1.965 1_565 S
Zn21 O37 2.024 . S
C22 O23 1.229 . S
C22 O31 1.058 . S
O23 C22 1.229 . S
C24 O25 1.229 . S
C24 O37 1.058 . S
O25 C24 1.229 . S
O26 Zn20 1.969 . S
O26 C29 1.267 . S
O27 Zn20 1.965 . S
O27 C38 1.260 . S
O28 Zn21 1.969 . S
O28 C38 1.258 1_565 S
C29 O26 1.267 . S
C29 O30 1.228 . S
O30 C29 1.228 . S
O31 Zn20 2.024 . S
O31 C22 1.058 . S
C32 O33 1.228 . S
C32 O34 1.267 . S
O33 C32 1.228 . S
O34 Zn21 1.969 . S
O34 C32 1.267 . S
O35 Zn21 1.965 1_545 S
O35 C39 1.260 . S
O36 Zn20 1.969 . S
O36 C39 1.258 . S
O37 Zn21 2.024 . S
O37 C24 1.058 . S
C38 O27 1.260 . S
C38 O28 1.258 1_545 S
C39 O35 1.260 . S
C39 O36 1.258 . S
Zn40 O46 1.969 . S
Zn40 O47 1.965 . S
Zn40 O51 2.024 . S
Zn40 O56 1.969 . S
Zn41 O48 1.969 . S
Zn41 O54 1.969 . S
Zn41 O55 1.965 . S
Zn41 O57 2.024 . S
C42 O43 1.229 . S
C42 O51 1.058 . S
O43 C42 1.229 . S
C44 O45 1.229 . S
C44 O57 1.058 . S
O45 C44 1.229 . S
O46 Zn40 1.969 . S
O46 C49 1.267 . S
O47 Zn40 1.965 . S
O47 C58 1.260 . S
O48 Zn41 1.969 . S
O48 C58 1.258 . S
C49 O46 1.267 . S
C49 O50 1.228 . S
O50 C49 1.228 . S
O51 Zn40 2.024 . S
O51 C42 1.058 . S
C52 O53 1.228 . S
C52 O54 1.267 . S
O53 C52 1.228 . S
O54 Zn41 1.969 . S
O54 C52 1.267 . S
O55 Zn41 1.965 . S
O55 C59 1.260 . S
O56 Zn40 1.969 . S
O56 C59 1.258 . S
O57 Zn41 2.024 . S
O57 C44 1.058 . S
C58 O47 1.260 . S
C58 O48 1.258 . S
C59 O55 1.260 . S
C59 O56 1.258 . S
H60 C67 0.929 . S
H61 C70 0.930 1_565 S
H62 C72 0.929 . S
H63 C64 0.969 . S
C64 H63 0.969 . S
C64 O65 1.550 . S
C64 H66 0.973 . S
O65 C64 1.550 . S
O65 C71 1.412 1_565 S
H66 C64 0.973 . S
C67 H60 0.929 . S
C67 C68 1.400 . S
C67 C69 1.364 . S
C68 C67 1.400 . S
C68 C72 1.377 . S
C69 C67 1.364 . S
C69 C70 1.374 . S
C70 H61 0.930 1_545 S
C70 C69 1.374 . S
C70 C71 1.383 . S
C71 O65 1.412 1_545 S
C71 C70 1.383 . S
C71 C72 1.394 . S
C72 H62 0.929 . S
C72 C68 1.377 . S
C72 C71 1.394 . S
H73 C80 0.929 . S
H74 C83 0.930 . S
H75 C85 0.929 . S
H76 C77 0.969 . S
C77 H76 0.969 . S
C77 O78 1.550 . S
C77 H79 0.973 . S
O78 C77 1.550 . S
O78 C84 1.412 . S
H79 C77 0.973 . S
C80 H73 0.929 . S
C80 C81 1.400 . S
C80 C82 1.364 . S
C81 C80 1.400 . S
C81 C85 1.377 . S
C82 C80 1.364 . S
C82 C83 1.374 . S
C83 H74 0.930 . S
C83 C82 1.374 . S
C83 C84 1.383 . S
C84 O78 1.412 . S
C84 C83 1.383 . S
C84 C85 1.394 . S
C85 H75 0.929 . S
C85 C81 1.377 . S
C85 C84 1.394 . S
H86 C93 0.929 . S
H87 C96 0.930 . S
H88 C98 0.929 . S
H89 C90 0.969 . S
C90 H89 0.969 . S
C90 O91 1.550 . S
C90 H92 0.973 . S
O91 C90 1.550 . S
O91 C97 1.412 . S
H92 C90 0.973 . S
C93 H86 0.929 . S
C93 C94 1.400 . S
C93 C95 1.364 . S
C94 C93 1.400 . S
C94 C98 1.377 . S
C95 C93 1.364 . S
C95 C96 1.374 . S
C96 H87 0.930 . S
C96 C95 1.374 . S
C96 C97 1.383 . S
C97 O91 1.412 . S
C97 C96 1.383 . S
C97 C98 1.394 . S
C98 H88 0.929 . S
C98 C94 1.377 . S
C98 C97 1.394 . S
H99 C106 0.929 . S
H100 C109 0.930 . S
H101 C111 0.929 . S
H102 C103 0.969 . S
C103 H102 0.969 . S
C103 O104 1.550 . S
C103 H105 0.973 . S
O104 C103 1.550 . S
O104 C110 1.412 . S
H105 C103 0.973 . S
C106 H99 0.929 . S
C106 C107 1.400 . S
C106 C108 1.364 . S
C107 C106 1.400 . S
C107 C111 1.377 . S
C108 C106 1.364 . S
C108 C109 1.374 . S
C109 H100 0.930 . S
C109 C108 1.374 . S
C109 C110 1.383 . S
C110 O104 1.412 . S
C110 C109 1.383 . S
C110 C111 1.394 . S
C111 H101 0.929 . S
C111 C107 1.377 . S
C111 C110 1.394 . S
H112 C119 0.929 1_565 S
H113 C122 0.930 . S
H114 C124 0.929 . S
H115 C116 0.969 . S
C116 H115 0.969 . S
C116 O117 1.550 . S
C116 H118 0.973 . S
O117 C116 1.550 . S
O117 C123 1.412 . S
H118 C116 0.973 . S
C119 H112 0.929 1_545 S
C119 C120 1.400 . S
C119 C121 1.364 . S
C120 C119 1.400 . S
C120 C124 1.377 . S
C121 C119 1.364 . S
C121 C122 1.374 . S
C122 H113 0.930 . S
C122 C121 1.374 . S
C122 C123 1.383 . S
C123 O117 1.412 . S
C123 C122 1.383 . S
C123 C124 1.394 . S
C124 H114 0.929 . S
C124 C120 1.377 . S
C124 C123 1.394 . S
H125 C132 0.929 . S
H126 C135 0.930 . S
H127 C137 0.929 . S
H128 C129 0.969 . S
C129 H128 0.969 . S
C129 O130 1.550 . S
C129 H131 0.973 . S
O130 C129 1.550 . S
O130 C136 1.412 . S
H131 C129 0.973 . S
C132 H125 0.929 . S
C132 C133 1.400 . S
C132 C134 1.364 . S
C133 C132 1.400 . S
C133 C137 1.377 . S
C134 C132 1.364 . S
C134 C135 1.374 . S
C135 H126 0.930 . S
C135 C134 1.374 . S
C135 C136 1.383 . S
C136 O130 1.412 . S
C136 C135 1.383 . S
C136 C137 1.394 . S
C137 H127 0.929 . S
C137 C133 1.377 . S
C137 C136 1.394 . S
H138 C156 0.951 . S
H139 C158 0.951 . S
H140 C160 0.950 . S
H141 C161 0.950 . S
H142 C163 0.950 . S
H143 C166 0.950 . S
H144 C167 0.950 . S
H145 C169 0.950 . S
H146 C170 0.950 . S
H147 C171 0.951 . S
H148 C173 0.951 . S
H149 C175 0.950 . S
H150 C176 0.950 . S
H151 C178 0.950 . S
H152 C181 0.950 . S
H153 C182 0.950 . S
H154 C184 0.950 . S
H155 C185 0.950 . S
C156 H138 0.951 . S
C156 C157 1.366 . S
C156 C158 1.388 . S
C157 C156 1.366 . S
C157 C161 1.385 . S
C158 H139 0.951 . S
C158 C156 1.388 . S
C158 C159 1.366 . S
C159 C158 1.366 . S
C159 C160 1.414 . S
C159 C162 1.499 . S
C160 H140 0.950 . S
C160 C159 1.414 . S
C160 C161 1.374 . S
C161 H141 0.950 . S
C161 C157 1.385 . S
C161 C160 1.374 . S
C162 C159 1.499 . S
C162 C163 1.373 . S
C162 C164 1.389 . S
C163 H142 0.950 . S
C163 C162 1.373 . S
C163 C179 1.377 . S
C164 C162 1.389 . S
C164 C165 1.524 . S
C164 C178 1.377 . S
C165 C164 1.524 . S
C165 C166 1.397 . S
C165 C170 1.363 . S
C166 H143 0.950 . S
C166 C165 1.397 . S
C166 C167 1.334 . S
C167 H144 0.950 . S
C167 C166 1.334 . S
C167 C168 1.287 . S
C168 C167 1.287 . S
C168 C169 1.524 . S
C168 H187 0.913 . S
C169 H145 0.950 . S
C169 C168 1.524 . S
C169 C170 1.415 . S
C170 H146 0.950 . S
C170 C165 1.363 . S
C170 C169 1.415 . S
C171 H147 0.951 . S
C171 C172 1.366 . S
C171 C173 1.388 . S
C172 C171 1.366 . S
C172 C176 1.385 . S
C173 H148 0.951 . S
C173 C171 1.388 . S
C173 C174 1.366 . S
C174 C173 1.366 . S
C174 C175 1.414 . S
C174 C177 1.499 . S
C175 H149 0.950 . S
C175 C174 1.414 . S
C175 C176 1.374 . S
C176 H150 0.950 . S
C176 C172 1.385 . S
C176 C175 1.374 . S
C177 C174 1.499 . S
C177 C178 1.373 . S
C177 C179 1.389 . S
C178 H151 0.950 . S
C178 C164 1.377 . S
C178 C177 1.373 . S
C179 C163 1.377 . S
C179 C177 1.389 . S
C179 C180 1.524 . S
C180 C179 1.524 . S
C180 C181 1.397 . S
C180 C185 1.363 . S
C181 H152 0.950 . S
C181 C180 1.397 . S
C181 C182 1.334 . S
C182 H153 0.950 . S
C182 C181 1.334 . S
C182 C183 1.287 . S
C183 C182 1.287 . S
C183 C184 1.524 . S
C183 H186 0.999 . S
C184 H154 0.950 . S
C184 C183 1.524 . S
C184 C185 1.415 . S
C185 H155 0.950 . S
C185 C180 1.363 . S
C185 C184 1.415 . S
H186 C183 0.999 . S
H187 C168 0.913 . S
H188 C206 0.951 . S
H189 C208 0.951 . S
H190 C210 0.950 . S
H191 C211 0.950 . S
H192 C213 0.950 . S
H193 C216 0.950 . S
H194 C217 0.950 . S
H195 C219 0.950 . S
H196 C220 0.950 . S
H197 C221 0.951 . S
H198 C223 0.951 . S
H199 C225 0.950 . S
H200 C226 0.951 . S
H201 C228 0.950 . S
H202 C231 0.950 . S
H203 C232 0.950 . S
H204 C234 0.950 . S
H205 C235 0.950 . S
C206 H188 0.951 . S
C206 C207 1.366 . S
C206 C208 1.388 . S
C207 C206 1.366 . S
C207 C211 1.385 . S
C208 H189 0.951 . S
C208 C206 1.388 . S
C208 C209 1.366 . S
C209 C208 1.366 . S
C209 C210 1.414 . S
C209 C212 1.499 . S
C210 H190 0.950 . S
C210 C209 1.414 . S
C210 C211 1.374 . S
C211 H191 0.950 . S
C211 C207 1.385 . S
C211 C210 1.374 . S
C212 C209 1.499 . S
C212 C213 1.373 . S
C212 C214 1.389 . S
C213 H192 0.950 . S
C213 C212 1.373 . S
C213 C229 1.377 . S
C214 C212 1.389 . S
C214 C215 1.524 . S
C214 C228 1.377 . S
C215 C214 1.524 . S
C215 C216 1.397 . S
C215 C220 1.363 . S
C216 H193 0.950 . S
C216 C215 1.397 . S
C216 C217 1.334 . S
C217 H194 0.950 . S
C217 C216 1.334 . S
C217 C218 1.287 . S
C218 C217 1.287 . S
C218 C219 1.524 . S
C218 H237 0.913 . S
C219 H195 0.950 . S
C219 C218 1.524 . S
C219 C220 1.415 . S
C220 H196 0.950 . S
C220 C215 1.363 . S
C220 C219 1.415 . S
C221 H197 0.951 . S
C221 C222 1.366 . S
C221 C223 1.388 1_455 S
C222 C221 1.366 . S
C222 C226 1.385 1_455 S
C223 H198 0.951 . S
C223 C221 1.388 1_655 S
C223 C224 1.366 . S
C224 C223 1.366 . S
C224 C225 1.414 . S
C224 C227 1.499 . S
C225 H199 0.950 . S
C225 C224 1.414 . S
C225 C226 1.374 . S
C226 H200 0.951 . S
C226 C222 1.385 1_655 S
C226 C225 1.374 . S
C227 C224 1.499 . S
C227 C228 1.373 . S
C227 C229 1.389 . S
C228 H201 0.950 . S
C228 C214 1.377 . S
C228 C227 1.373 . S
C229 C213 1.377 . S
C229 C227 1.389 . S
C229 C230 1.524 . S
C230 C229 1.524 . S
C230 C231 1.397 . S
C230 C235 1.363 . S
C231 H202 0.950 . S
C231 C230 1.397 . S
C231 C232 1.334 . S
C232 H203 0.950 . S
C232 C231 1.334 . S
C232 C233 1.287 . S
C233 C232 1.287 . S
C233 C234 1.524 . S
C233 H236 0.999 . S
C234 H204 0.950 . S
C234 C233 1.524 . S
C234 C235 1.415 . S
C235 H205 0.950 . S
C235 C230 1.363 . S
C235 C234 1.415 . S
H236 C233 0.999 . S
H237 C218 0.913 . S
H238 C256 0.951 . S
H239 C258 0.951 . S
H240 C260 0.950 . S
H241 C261 0.950 . S
H242 C263 0.950 . S
H243 C266 0.950 . S
H244 C267 0.950 . S
H245 C269 0.950 . S
H246 C270 0.950 . S
H247 C271 0.951 . S
H248 C273 0.951 . S
H249 C275 0.950 . S
H250 C276 0.950 . S
H251 C278 0.950 . S
H252 C281 0.950 . S
H253 C282 0.950 . S
H254 C284 0.950 . S
H255 C285 0.950 . S
C256 H238 0.951 . S
C256 C257 1.366 . S
C256 C258 1.388 . S
C257 C256 1.366 . S
C257 C261 1.385 . S
C258 H239 0.951 . S
C258 C256 1.388 . S
C258 C259 1.366 . S
C259 C258 1.366 . S
C259 C260 1.414 . S
C259 C262 1.499 . S
C260 H240 0.950 . S
C260 C259 1.414 . S
C260 C261 1.374 . S
C261 H241 0.950 . S
C261 C257 1.385 . S
C261 C260 1.374 . S
C262 C259 1.499 . S
C262 C263 1.373 . S
C262 C264 1.389 . S
C263 H242 0.950 . S
C263 C262 1.373 . S
C263 C279 1.377 . S
C264 C262 1.389 . S
C264 C265 1.524 . S
C264 C278 1.377 . S
C265 C264 1.524 . S
C265 C266 1.397 . S
C265 C270 1.363 . S
C266 H243 0.950 . S
C266 C265 1.397 . S
C266 C267 1.334 . S
C267 H244 0.950 . S
C267 C266 1.334 . S
C267 C268 1.287 . S
C268 C267 1.287 . S
C268 C269 1.524 . S
C268 H287 0.913 . S
C269 H245 0.950 . S
C269 C268 1.524 . S
C269 C270 1.415 . S
C270 H246 0.950 . S
C270 C265 1.363 . S
C270 C269 1.415 . S
C271 H247 0.951 . S
C271 C272 1.366 . S
C271 C273 1.388 . S
C272 C271 1.366 . S
C272 C276 1.385 . S
C273 H248 0.951 . S
C273 C271 1.388 . S
C273 C274 1.366 . S
C274 C273 1.366 . S
C274 C275 1.414 . S
C274 C277 1.499 . S
C275 H249 0.950 . S
C275 C274 1.414 . S
C275 C276 1.374 . S
C276 H250 0.950 . S
C276 C272 1.385 . S
C276 C275 1.374 . S
C277 C274 1.499 . S
C277 C278 1.373 . S
C277 C279 1.389 . S
C278 H251 0.950 . S
C278 C264 1.377 . S
C278 C277 1.373 . S
C279 C263 1.377 . S
C279 C277 1.389 . S
C279 C280 1.524 . S
C280 C279 1.524 . S
C280 C281 1.397 . S
C280 C285 1.363 . S
C281 H252 0.950 . S
C281 C280 1.397 . S
C281 C282 1.334 . S
C282 H253 0.950 . S
C282 C281 1.334 . S
C282 C283 1.287 . S
C283 C282 1.287 . S
C283 C284 1.524 . S
C283 H286 0.999 . S
C284 H254 0.950 . S
C284 C283 1.524 . S
C284 C285 1.415 . S
C285 H255 0.950 . S
C285 C280 1.363 . S
C285 C284 1.415 . S
H286 C283 0.999 . S
H287 C268 0.913 . S
H288 C306 0.951 . S
H289 C308 0.951 . S
H290 C310 0.950 . S
H291 C311 0.950 . S
H292 C313 0.950 . S
H293 C316 0.950 . S
H294 C317 0.950 . S
H295 C319 0.950 . S
H296 C320 0.950 . S
H297 C321 0.951 . S
H298 C323 0.951 . S
H299 C325 0.950 . S
H300 C326 0.950 . S
H301 C328 0.950 . S
H302 C331 0.950 . S
H303 C332 0.950 . S
H304 C334 0.950 . S
H305 C335 0.950 . S
C306 H288 0.951 . S
C306 C307 1.366 . S
C306 C308 1.388 . S
C307 C306 1.366 . S
C307 C311 1.385 . S
C308 H289 0.951 . S
C308 C306 1.388 . S
C308 C309 1.366 . S
C309 C308 1.366 . S
C309 C310 1.414 . S
C309 C312 1.499 . S
C310 H290 0.950 . S
C310 C309 1.414 . S
C310 C311 1.374 . S
C311 H291 0.950 . S
C311 C307 1.385 . S
C311 C310 1.374 . S
C312 C309 1.499 . S
C312 C313 1.373 . S
C312 C314 1.389 . S
C313 H292 0.950 . S
C313 C312 1.373 . S
C313 C329 1.377 . S
C314 C312 1.389 . S
C314 C315 1.524 . S
C314 C328 1.377 . S
C315 C314 1.524 . S
C315 C316 1.397 . S
C315 C320 1.363 . S
C316 H293 0.950 . S
C316 C315 1.397 . S
C316 C317 1.334 . S
C317 H294 0.950 . S
C317 C316 1.334 . S
C317 C318 1.287 . S
C318 C317 1.287 . S
C318 C319 1.524 . S
C318 H337 0.913 . S
C319 H295 0.950 . S
C319 C318 1.524 . S
C319 C320 1.415 . S
C320 H296 0.950 . S
C320 C315 1.363 . S
C320 C319 1.415 . S
C321 H297 0.951 . S
C321 C322 1.366 . S
C321 C323 1.388 . S
C322 C321 1.366 . S
C322 C326 1.385 . S
C323 H298 0.951 . S
C323 C321 1.388 . S
C323 C324 1.366 . S
C324 C323 1.366 . S
C324 C325 1.414 . S
C324 C327 1.499 . S
C325 H299 0.950 . S
C325 C324 1.414 . S
C325 C326 1.374 . S
C326 H300 0.950 . S
C326 C322 1.385 . S
C326 C325 1.374 . S
C327 C324 1.499 . S
C327 C328 1.373 . S
C327 C329 1.389 . S
C328 H301 0.950 . S
C328 C314 1.377 . S
C328 C327 1.373 . S
C329 C313 1.377 . S
C329 C327 1.389 . S
C329 C330 1.524 . S
C330 C329 1.524 . S
C330 C331 1.397 . S
C330 C335 1.363 . S
C331 H302 0.950 . S
C331 C330 1.397 . S
C331 C332 1.334 . S
C332 H303 0.950 . S
C332 C331 1.334 . S
C332 C333 1.287 . S
C333 C332 1.287 . S
C333 C334 1.524 . S
C333 H336 0.999 . S
C334 H304 0.950 . S
C334 C333 1.524 . S
C334 C335 1.415 . S
C335 H305 0.950 . S
C335 C330 1.363 . S
C335 C334 1.415 . S
H336 C333 0.999 . S
H337 C318 0.913 . S
H338 C356 0.951 . S
H339 C358 0.951 . S
H340 C360 0.950 . S
H341 C361 0.950 . S
H342 C363 0.950 . S
H343 C366 0.950 . S
H344 C367 0.950 . S
H345 C369 0.950 . S
H346 C370 0.950 . S
H347 C371 0.951 . S
H348 C373 0.951 . S
H349 C375 0.950 . S
H350 C376 0.950 . S
H351 C378 0.950 . S
H352 C381 0.950 . S
H353 C382 0.950 . S
H354 C384 0.950 . S
H355 C385 0.950 . S
C356 H338 0.951 . S
C356 C357 1.366 . S
C356 C358 1.388 . S
C357 C356 1.366 . S
C357 C361 1.385 . S
C358 H339 0.951 . S
C358 C356 1.388 . S
C358 C359 1.366 . S
C359 C358 1.366 . S
C359 C360 1.414 . S
C359 C362 1.499 . S
C360 H340 0.950 . S
C360 C359 1.414 . S
C360 C361 1.374 . S
C361 H341 0.950 . S
C361 C357 1.385 . S
C361 C360 1.374 . S
C362 C359 1.499 . S
C362 C363 1.373 . S
C362 C364 1.389 . S
C363 H342 0.950 . S
C363 C362 1.373 . S
C363 C379 1.377 . S
C364 C362 1.389 . S
C364 C365 1.524 . S
C364 C378 1.377 . S
C365 C364 1.524 . S
C365 C366 1.397 . S
C365 C370 1.363 . S
C366 H343 0.950 . S
C366 C365 1.397 . S
C366 C367 1.334 . S
C367 H344 0.950 . S
C367 C366 1.334 . S
C367 C368 1.287 . S
C368 C367 1.287 . S
C368 C369 1.524 . S
C368 H387 0.913 . S
C369 H345 0.950 . S
C369 C368 1.524 . S
C369 C370 1.415 . S
C370 H346 0.950 . S
C370 C365 1.363 . S
C370 C369 1.415 . S
C371 H347 0.951 . S
C371 C372 1.366 . S
C371 C373 1.388 . S
C372 C371 1.366 . S
C372 C376 1.385 . S
C373 H348 0.951 . S
C373 C371 1.388 . S
C373 C374 1.366 . S
C374 C373 1.366 . S
C374 C375 1.414 . S
C374 C377 1.499 . S
C375 H349 0.950 . S
C375 C374 1.414 . S
C375 C376 1.374 . S
C376 H350 0.950 . S
C376 C372 1.385 . S
C376 C375 1.374 . S
C377 C374 1.499 . S
C377 C378 1.373 . S
C377 C379 1.389 . S
C378 H351 0.950 . S
C378 C364 1.377 . S
C378 C377 1.373 . S
C379 C363 1.377 . S
C379 C377 1.389 . S
C379 C380 1.524 . S
C380 C379 1.524 . S
C380 C381 1.397 . S
C380 C385 1.363 . S
C381 H352 0.950 . S
C381 C380 1.397 . S
C381 C382 1.334 . S
C382 H353 0.950 . S
C382 C381 1.334 . S
C382 C383 1.287 . S
C383 C382 1.287 . S
C383 C384 1.524 . S
C383 H386 0.999 . S
C384 H354 0.950 . S
C384 C383 1.524 . S
C384 C385 1.415 . S
C385 H355 0.950 . S
C385 C380 1.363 . S
C385 C384 1.415 . S
H386 C383 0.999 . S
H387 C368 0.913 . S
H388 C406 0.951 . S
H389 C408 0.951 . S
H390 C410 0.950 . S
H391 C411 0.950 . S
H392 C413 0.950 . S
H393 C416 0.950 . S
H394 C417 0.950 . S
H395 C419 0.950 . S
H396 C420 0.950 . S
H397 C421 0.951 . S
H398 C423 0.951 . S
H399 C425 0.950 . S
H400 C426 0.950 . S
H401 C428 0.950 . S
H402 C431 0.950 . S
H403 C432 0.950 . S
H404 C434 0.950 . S
H405 C435 0.950 . S
C406 H388 0.951 . S
C406 C407 1.366 . S
C406 C408 1.388 . S
C407 C406 1.366 . S
C407 C411 1.385 . S
C408 H389 0.951 . S
C408 C406 1.388 . S
C408 C409 1.366 . S
C409 C408 1.366 . S
C409 C410 1.414 . S
C409 C412 1.499 . S
C410 H390 0.950 . S
C410 C409 1.414 . S
C410 C411 1.374 . S
C411 H391 0.950 . S
C411 C407 1.385 . S
C411 C410 1.374 . S
C412 C409 1.499 . S
C412 C413 1.373 . S
C412 C414 1.389 . S
C413 H392 0.950 . S
C413 C412 1.373 . S
C413 C429 1.377 . S
C414 C412 1.389 . S
C414 C415 1.524 . S
C414 C428 1.377 . S
C415 C414 1.524 . S
C415 C416 1.397 . S
C415 C420 1.363 . S
C416 H393 0.950 . S
C416 C415 1.397 . S
C416 C417 1.334 . S
C417 H394 0.950 . S
C417 C416 1.334 . S
C417 C418 1.287 . S
C418 C417 1.287 . S
C418 C419 1.524 . S
C418 H437 0.913 . S
C419 H395 0.950 . S
C419 C418 1.524 . S
C419 C420 1.415 . S
C420 H396 0.950 . S
C420 C415 1.363 . S
C420 C419 1.415 . S
C421 H397 0.951 . S
C421 C422 1.366 . S
C421 C423 1.388 . S
C422 C421 1.366 . S
C422 C426 1.385 . S
C423 H398 0.951 . S
C423 C421 1.388 . S
C423 C424 1.366 . S
C424 C423 1.366 . S
C424 C425 1.414 . S
C424 C427 1.499 . S
C425 H399 0.950 . S
C425 C424 1.414 . S
C425 C426 1.374 . S
C426 H400 0.950 . S
C426 C422 1.385 . S
C426 C425 1.374 . S
C427 C424 1.499 . S
C427 C428 1.373 . S
C427 C429 1.389 . S
C428 H401 0.950 . S
C428 C414 1.377 . S
C428 C427 1.373 . S
C429 C413 1.377 . S
C429 C427 1.389 . S
C429 C430 1.524 . S
C430 C429 1.524 . S
C430 C431 1.397 . S
C430 C435 1.363 . S
C431 H402 0.950 . S
C431 C430 1.397 . S
C431 C432 1.334 . S
C432 H403 0.950 . S
C432 C431 1.334 . S
C432 C433 1.287 . S
C433 C432 1.287 . S
C433 C434 1.524 . S
C433 H436 0.999 . S
C434 H404 0.950 . S
C434 C433 1.524 . S
C434 C435 1.415 . S
C435 H405 0.950 . S
C435 C430 1.363 . S
C435 C434 1.415 . S
H436 C433 0.999 . S
H437 C418 0.913 . S
H438 C456 0.951 . S
H439 C458 0.951 . S
H440 C460 0.950 . S
H441 C461 0.950 . S
H442 C463 0.950 . S
H443 C466 0.950 . S
H444 C467 0.950 . S
H445 C469 0.950 . S
H446 C470 0.950 . S
H447 C471 0.951 . S
H448 C473 0.951 . S
H449 C475 0.950 . S
H450 C476 0.950 . S
H451 C478 0.950 . S
H452 C481 0.950 . S
H453 C482 0.950 . S
H454 C484 0.950 . S
H455 C485 0.950 . S
C456 H438 0.951 . S
C456 C457 1.366 . S
C456 C458 1.388 . S
C457 C456 1.366 . S
C457 C461 1.385 . S
C458 H439 0.951 . S
C458 C456 1.388 . S
C458 C459 1.366 . S
C459 C458 1.366 . S
C459 C460 1.414 . S
C459 C462 1.499 . S
C460 H440 0.950 . S
C460 C459 1.414 . S
C460 C461 1.374 . S
C461 H441 0.950 . S
C461 C457 1.385 . S
C461 C460 1.374 . S
C462 C459 1.499 . S
C462 C463 1.373 . S
C462 C464 1.389 . S
C463 H442 0.950 . S
C463 C462 1.373 . S
C463 C479 1.377 . S
C464 C462 1.389 . S
C464 C465 1.524 . S
C464 C478 1.377 . S
C465 C464 1.524 . S
C465 C466 1.397 . S
C465 C470 1.363 . S
C466 H443 0.950 . S
C466 C465 1.397 . S
C466 C467 1.334 . S
C467 H444 0.950 . S
C467 C466 1.334 . S
C467 C468 1.287 . S
C468 C467 1.287 . S
C468 C469 1.524 . S
C468 H487 0.913 . S
C469 H445 0.950 . S
C469 C468 1.524 . S
C469 C470 1.415 . S
C470 H446 0.950 . S
C470 C465 1.363 . S
C470 C469 1.415 . S
C471 H447 0.951 . S
C471 C472 1.366 . S
C471 C473 1.388 . S
C472 C471 1.366 . S
C472 C476 1.385 . S
C473 H448 0.951 . S
C473 C471 1.388 . S
C473 C474 1.366 . S
C474 C473 1.366 . S
C474 C475 1.414 . S
C474 C477 1.499 . S
C475 H449 0.950 . S
C475 C474 1.414 . S
C475 C476 1.374 . S
C476 H450 0.950 . S
C476 C472 1.385 . S
C476 C475 1.374 . S
C477 C474 1.499 . S
C477 C478 1.373 . S
C477 C479 1.389 . S
C478 H451 0.950 . S
C478 C464 1.377 . S
C478 C477 1.373 . S
C479 C463 1.377 . S
C479 C477 1.389 . S
C479 C480 1.524 . S
C480 C479 1.524 . S
C480 C481 1.397 . S
C480 C485 1.363 . S
C481 H452 0.950 . S
C481 C480 1.397 . S
C481 C482 1.334 . S
C482 H453 0.950 . S
C482 C481 1.334 . S
C482 C483 1.287 . S
C483 C482 1.287 . S
C483 C484 1.524 . S
C483 H486 0.999 . S
C484 H454 0.950 . S
C484 C483 1.524 . S
C484 C485 1.415 . S
C485 H455 0.950 . S
C485 C480 1.363 . S
C485 C484 1.415 . S
H486 C483 0.999 . S
H487 C468 0.913 . S
H488 C506 0.951 . S
H489 C508 0.951 . S
H490 C510 0.950 . S
H491 C511 0.950 . S
H492 C513 0.950 . S
H493 C516 0.950 . S
H494 C517 0.950 . S
H495 C519 0.950 . S
H496 C520 0.950 . S
H497 C521 0.951 . S
H498 C523 0.951 . S
H499 C525 0.950 . S
H500 C526 0.941 1_455 S
H501 C528 0.950 . S
H502 C531 0.950 . S
H503 C532 0.950 . S
H504 C534 0.950 . S
H505 C535 0.950 . S
C506 H488 0.951 . S
C506 C507 1.366 . S
C506 C508 1.388 . S
C507 C506 1.366 . S
C507 C511 1.385 . S
C508 H489 0.951 . S
C508 C506 1.388 . S
C508 C509 1.366 . S
C509 C508 1.366 . S
C509 C510 1.414 . S
C509 C512 1.499 . S
C510 H490 0.950 . S
C510 C509 1.414 . S
C510 C511 1.374 . S
C511 H491 0.950 . S
C511 C507 1.385 . S
C511 C510 1.374 . S
C512 C509 1.499 . S
C512 C513 1.373 . S
C512 C514 1.389 . S
C513 H492 0.950 . S
C513 C512 1.373 . S
C513 C529 1.377 . S
C514 C512 1.389 . S
C514 C515 1.524 . S
C514 C528 1.377 . S
C515 C514 1.524 . S
C515 C516 1.397 . S
C515 C520 1.363 . S
C516 H493 0.950 . S
C516 C515 1.397 . S
C516 C517 1.334 . S
C517 H494 0.950 . S
C517 C516 1.334 . S
C517 C518 1.287 . S
C518 C517 1.287 . S
C518 C519 1.524 . S
C518 H537 0.913 . S
C519 H495 0.950 . S
C519 C518 1.524 . S
C519 C520 1.415 . S
C520 H496 0.950 . S
C520 C515 1.363 . S
C520 C519 1.415 . S
C521 H497 0.951 . S
C521 C522 1.366 . S
C521 C523 1.388 1_455 S
C522 C521 1.366 . S
C522 C526 1.369 1_455 S
C523 H498 0.951 . S
C523 C521 1.388 1_655 S
C523 C524 1.366 . S
C524 C523 1.366 . S
C524 C525 1.414 . S
C524 C527 1.499 . S
C525 H499 0.950 . S
C525 C524 1.414 . S
C525 C526 1.398 . S
C526 H500 0.941 1_655 S
C526 C522 1.369 1_655 S
C526 C525 1.398 . S
C527 C524 1.499 . S
C527 C528 1.373 . S
C527 C529 1.389 . S
C528 H501 0.950 . S
C528 C514 1.377 . S
C528 C527 1.373 . S
C529 C513 1.377 . S
C529 C527 1.389 . S
C529 C530 1.524 . S
C530 C529 1.524 . S
C530 C531 1.397 . S
C530 C535 1.363 . S
C531 H502 0.950 . S
C531 C530 1.397 . S
C531 C532 1.334 . S
C532 H503 0.950 . S
C532 C531 1.334 . S
C532 C533 1.287 . S
C533 C532 1.287 . S
C533 C534 1.524 . S
C533 H536 0.999 . S
C534 H504 0.950 . S
C534 C533 1.524 . S
C534 C535 1.415 . S
C535 H505 0.950 . S
C535 C530 1.363 . S
C535 C534 1.415 . S
H536 C533 0.999 . S
H537 C518 0.913 . S
H538 C556 0.951 . S
H539 C558 0.951 . S
H540 C560 0.950 . S
H541 C561 0.950 . S
H542 C563 0.950 . S
H543 C566 0.950 . S
H544 C567 0.950 . S
H545 C569 0.950 . S
H546 C570 0.950 . S
H547 C571 0.951 . S
H548 C573 0.951 . S
H549 C575 0.950 . S
H550 C576 0.950 . S
H551 C578 0.950 . S
H552 C581 0.950 . S
H553 C582 0.950 . S
H554 C584 0.950 . S
H555 C585 0.950 . S
C556 H538 0.951 . S
C556 C557 1.366 . S
C556 C558 1.388 . S
C557 C556 1.366 . S
C557 C561 1.385 . S
C558 H539 0.951 . S
C558 C556 1.388 . S
C558 C559 1.366 . S
C559 C558 1.366 . S
C559 C560 1.414 . S
C559 C562 1.499 . S
C560 H540 0.950 . S
C560 C559 1.414 . S
C560 C561 1.374 . S
C561 H541 0.950 . S
C561 C557 1.385 . S
C561 C560 1.374 . S
C562 C559 1.499 . S
C562 C563 1.373 . S
C562 C564 1.389 . S
C563 H542 0.950 . S
C563 C562 1.373 . S
C563 C579 1.377 . S
C564 C562 1.389 . S
C564 C565 1.524 . S
C564 C578 1.377 . S
C565 C564 1.524 . S
C565 C566 1.397 . S
C565 C570 1.363 . S
C566 H543 0.950 . S
C566 C565 1.397 . S
C566 C567 1.334 . S
C567 H544 0.950 . S
C567 C566 1.334 . S
C567 C568 1.287 . S
C568 C567 1.287 . S
C568 C569 1.524 . S
C568 H587 0.913 . S
C569 H545 0.950 . S
C569 C568 1.524 . S
C569 C570 1.415 . S
C570 H546 0.950 . S
C570 C565 1.363 . S
C570 C569 1.415 . S
C571 H547 0.951 . S
C571 C572 1.366 . S
C571 C573 1.388 . S
C572 C571 1.366 . S
C572 C576 1.385 . S
C573 H548 0.951 . S
C573 C571 1.388 . S
C573 C574 1.366 . S
C574 C573 1.366 . S
C574 C575 1.414 . S
C574 C577 1.499 . S
C575 H549 0.950 . S
C575 C574 1.414 . S
C575 C576 1.374 . S
C576 H550 0.950 . S
C576 C572 1.385 . S
C576 C575 1.374 . S
C577 C574 1.499 . S
C577 C578 1.373 . S
C577 C579 1.389 . S
C578 H551 0.950 . S
C578 C564 1.377 . S
C578 C577 1.373 . S
C579 C563 1.377 . S
C579 C577 1.389 . S
C579 C580 1.524 . S
C580 C579 1.524 . S
C580 C581 1.397 . S
C580 C585 1.363 . S
C581 H552 0.950 . S
C581 C580 1.397 . S
C581 C582 1.334 . S
C582 H553 0.950 . S
C582 C581 1.334 . S
C582 C583 1.287 . S
C583 C582 1.287 . S
C583 C584 1.524 . S
C583 H586 0.999 . S
C584 H554 0.950 . S
C584 C583 1.524 . S
C584 C585 1.415 . S
C585 H555 0.950 . S
C585 C580 1.363 . S
C585 C584 1.415 . S
H586 C583 0.999 . S
H587 C568 0.913 . S
H588 C606 0.951 . S
H589 C608 0.951 . S
H590 C610 0.950 . S
H591 C611 0.950 . S
H592 C613 0.950 . S
H593 C616 0.950 . S
H594 C617 0.950 . S
H595 C619 0.950 . S
H596 C620 0.950 . S
H597 C621 0.951 . S
H598 C623 0.951 . S
H599 C625 0.950 . S
H600 C626 0.950 . S
H601 C628 0.950 . S
H602 C631 0.950 . S
H603 C632 0.950 . S
H604 C634 0.950 . S
H605 C635 0.950 . S
C606 H588 0.951 . S
C606 C607 1.366 . S
C606 C608 1.388 . S
C607 C606 1.366 . S
C607 C611 1.385 . S
C608 H589 0.951 . S
C608 C606 1.388 . S
C608 C609 1.366 . S
C609 C608 1.366 . S
C609 C610 1.414 . S
C609 C612 1.499 . S
C610 H590 0.950 . S
C610 C609 1.414 . S
C610 C611 1.374 . S
C611 H591 0.950 . S
C611 C607 1.385 . S
C611 C610 1.374 . S
C612 C609 1.499 . S
C612 C613 1.373 . S
C612 C614 1.389 . S
C613 H592 0.950 . S
C613 C612 1.373 . S
C613 C629 1.377 . S
C614 C612 1.389 . S
C614 C615 1.524 . S
C614 C628 1.377 . S
C615 C614 1.524 . S
C615 C616 1.397 . S
C615 C620 1.363 . S
C616 H593 0.950 . S
C616 C615 1.397 . S
C616 C617 1.334 . S
C617 H594 0.950 . S
C617 C616 1.334 . S
C617 C618 1.287 . S
C618 C617 1.287 . S
C618 C619 1.524 . S
C618 H637 0.913 . S
C619 H595 0.950 . S
C619 C618 1.524 . S
C619 C620 1.415 . S
C620 H596 0.950 . S
C620 C615 1.363 . S
C620 C619 1.415 . S
C621 H597 0.951 . S
C621 C622 1.366 . S
C621 C623 1.388 . S
C622 C621 1.366 . S
C622 C626 1.385 . S
C623 H598 0.951 . S
C623 C621 1.388 . S
C623 C624 1.366 . S
C624 C623 1.366 . S
C624 C625 1.414 . S
C624 C627 1.499 . S
C625 H599 0.950 . S
C625 C624 1.414 . S
C625 C626 1.374 . S
C626 H600 0.950 . S
C626 C622 1.385 . S
C626 C625 1.374 . S
C627 C624 1.499 . S
C627 C628 1.373 . S
C627 C629 1.389 . S
C628 H601 0.950 . S
C628 C614 1.377 . S
C628 C627 1.373 . S
C629 C613 1.377 . S
C629 C627 1.389 . S
C629 C630 1.524 . S
C630 C629 1.524 . S
C630 C631 1.397 . S
C630 C635 1.363 . S
C631 H602 0.950 . S
C631 C630 1.397 . S
C631 C632 1.334 . S
C632 H603 0.950 . S
C632 C631 1.334 . S
C632 C633 1.287 . S
C633 C632 1.287 . S
C633 C634 1.524 . S
C633 H636 0.999 . S
C634 H604 0.950 . S
C634 C633 1.524 . S
C634 C635 1.415 . S
C635 H605 0.950 . S
C635 C630 1.363 . S
C635 C634 1.415 . S
H636 C633 0.999 . S
H637 C618 0.913 . S
H638 C656 0.951 . S
H639 C658 0.951 . S
H640 C660 0.950 . S
H641 C661 0.950 . S
H642 C663 0.950 . S
H643 C666 0.950 . S
H644 C667 0.950 . S
H645 C669 0.950 . S
H646 C670 0.950 . S
H647 C671 0.951 . S
H648 C673 0.951 . S
H649 C675 0.950 . S
H650 C676 0.950 . S
H651 C678 0.950 . S
H652 C681 0.950 . S
H653 C682 0.950 . S
H654 C684 0.950 . S
H655 C685 0.950 . S
C656 H638 0.951 . S
C656 C657 1.366 . S
C656 C658 1.388 . S
C657 C656 1.366 . S
C657 C661 1.385 . S
C658 H639 0.951 . S
C658 C656 1.388 . S
C658 C659 1.366 . S
C659 C658 1.366 . S
C659 C660 1.414 . S
C659 C662 1.499 . S
C660 H640 0.950 . S
C660 C659 1.414 . S
C660 C661 1.374 . S
C661 H641 0.950 . S
C661 C657 1.385 . S
C661 C660 1.374 . S
C662 C659 1.499 . S
C662 C663 1.373 . S
C662 C664 1.389 . S
C663 H642 0.950 . S
C663 C662 1.373 . S
C663 C679 1.377 . S
C664 C662 1.389 . S
C664 C665 1.524 . S
C664 C678 1.377 . S
C665 C664 1.524 . S
C665 C666 1.397 . S
C665 C670 1.363 . S
C666 H643 0.950 . S
C666 C665 1.397 . S
C666 C667 1.334 . S
C667 H644 0.950 . S
C667 C666 1.334 . S
C667 C668 1.287 . S
C668 C667 1.287 . S
C668 C669 1.524 . S
C668 H687 0.913 . S
C669 H645 0.950 . S
C669 C668 1.524 . S
C669 C670 1.415 . S
C670 H646 0.950 . S
C670 C665 1.363 . S
C670 C669 1.415 . S
C671 H647 0.951 . S
C671 C672 1.366 . S
C671 C673 1.388 . S
C672 C671 1.366 . S
C672 C676 1.385 . S
C673 H648 0.951 . S
C673 C671 1.388 . S
C673 C674 1.366 . S
C674 C673 1.366 . S
C674 C675 1.414 . S
C674 C677 1.499 . S
C675 H649 0.950 . S
C675 C674 1.414 . S
C675 C676 1.374 . S
C676 H650 0.950 . S
C676 C672 1.385 . S
C676 C675 1.374 . S
C677 C674 1.499 . S
C677 C678 1.373 . S
C677 C679 1.389 . S
C678 H651 0.950 . S
C678 C664 1.377 . S
C678 C677 1.373 . S
C679 C663 1.377 . S
C679 C677 1.389 . S
C679 C680 1.524 . S
C680 C679 1.524 . S
C680 C681 1.397 . S
C680 C685 1.363 . S
C681 H652 0.950 . S
C681 C680 1.397 . S
C681 C682 1.334 . S
C682 H653 0.950 . S
C682 C681 1.334 . S
C682 C683 1.287 . S
C683 C682 1.287 . S
C683 C684 1.524 . S
C683 H686 0.999 . S
C684 H654 0.950 . S
C684 C683 1.524 . S
C684 C685 1.415 . S
C685 H655 0.950 . S
C685 C680 1.363 . S
C685 C684 1.415 . S
H686 C683 0.999 . S
H687 C668 0.913 . S
H688 C706 0.951 . S
H689 C708 0.951 . S
H690 C710 0.950 . S
H691 C711 0.950 . S
H692 C713 0.950 . S
H693 C716 0.950 . S
H694 C717 0.950 . S
H695 C719 0.950 . S
H696 C720 0.950 . S
H697 C721 0.951 . S
H698 C723 0.951 . S
H699 C725 0.950 . S
H700 C726 0.950 . S
H701 C728 0.950 . S
H702 C731 0.950 . S
H703 C732 0.950 . S
H704 C734 0.950 . S
H705 C735 0.950 . S
C706 H688 0.951 . S
C706 C707 1.366 . S
C706 C708 1.388 . S
C707 C706 1.366 . S
C707 C711 1.385 . S
C708 H689 0.951 . S
C708 C706 1.388 . S
C708 C709 1.366 . S
C709 C708 1.366 . S
C709 C710 1.414 . S
C709 C712 1.499 . S
C710 H690 0.950 . S
C710 C709 1.414 . S
C710 C711 1.374 . S
C711 H691 0.950 . S
C711 C707 1.385 . S
C711 C710 1.374 . S
C712 C709 1.499 . S
C712 C713 1.373 . S
C712 C714 1.389 . S
C713 H692 0.950 . S
C713 C712 1.373 . S
C713 C729 1.377 . S
C714 C712 1.389 . S
C714 C715 1.524 . S
C714 C728 1.377 . S
C715 C714 1.524 . S
C715 C716 1.397 . S
C715 C720 1.363 . S
C716 H693 0.950 . S
C716 C715 1.397 . S
C716 C717 1.334 . S
C717 H694 0.950 . S
C717 C716 1.334 . S
C717 C718 1.287 . S
C718 C717 1.287 . S
C718 C719 1.524 . S
C718 H737 0.913 . S
C719 H695 0.950 . S
C719 C718 1.524 . S
C719 C720 1.415 . S
C720 H696 0.950 . S
C720 C715 1.363 . S
C720 C719 1.415 . S
C721 H697 0.951 . S
C721 C722 1.366 . S
C721 C723 1.388 . S
C722 C721 1.366 . S
C722 C726 1.385 . S
C723 H698 0.951 . S
C723 C721 1.388 . S
C723 C724 1.366 . S
C724 C723 1.366 . S
C724 C725 1.414 . S
C724 C727 1.499 . S
C725 H699 0.950 . S
C725 C724 1.414 . S
C725 C726 1.374 . S
C726 H700 0.950 . S
C726 C722 1.385 . S
C726 C725 1.374 . S
C727 C724 1.499 . S
C727 C728 1.373 . S
C727 C729 1.389 . S
C728 H701 0.950 . S
C728 C714 1.377 . S
C728 C727 1.373 . S
C729 C713 1.377 . S
C729 C727 1.389 . S
C729 C730 1.524 . S
C730 C729 1.524 . S
C730 C731 1.397 . S
C730 C735 1.363 . S
C731 H702 0.950 . S
C731 C730 1.397 . S
C731 C732 1.334 . S
C732 H703 0.950 . S
C732 C731 1.334 . S
C732 C733 1.287 . S
C733 C732 1.287 . S
C733 C734 1.524 . S
C733 H736 0.999 . S
C734 H704 0.950 . S
C734 C733 1.524 . S
C734 C735 1.415 . S
C735 H705 0.950 . S
C735 C730 1.363 . S
C735 C734 1.415 . S
H736 C733 0.999 . S
H737 C718 0.913 . S
H738 C756 0.951 . S
H739 C758 0.951 . S
H740 C760 0.950 . S
H741 C761 0.950 . S
H742 C763 0.950 . S
H743 C766 0.950 . S
H744 C767 0.950 . S
H745 C769 0.950 . S
H746 C770 0.950 . S
H747 C771 0.951 . S
H748 C773 0.951 . S
H749 C775 0.950 . S
H750 C776 0.950 . S
H751 C778 0.950 1_556 S
H752 C781 0.950 . S
H753 C782 0.950 . S
H754 C784 0.950 . S
H755 C785 0.950 . S
C756 H738 0.951 . S
C756 C757 1.366 1_655 S
C756 C758 1.388 . S
C757 C756 1.366 1_455 S
C757 C761 1.385 . S
C758 H739 0.951 . S
C758 C756 1.388 . S
C758 C759 1.366 1_655 S
C759 C758 1.366 1_455 S
C759 C760 1.414 . S
C759 C762 1.499 . S
C760 H740 0.950 . S
C760 C759 1.414 . S
C760 C761 1.374 . S
C761 H741 0.950 . S
C761 C757 1.385 . S
C761 C760 1.374 . S
C762 C759 1.499 . S
C762 C763 1.373 . S
C762 C764 1.389 . S
C763 H742 0.950 . S
C763 C762 1.373 . S
C763 C779 1.377 . S
C764 C762 1.389 . S
C764 C765 1.524 1_455 S
C764 C778 1.377 . S
C765 C764 1.524 1_655 S
C765 C766 1.397 1_655 S
C765 C770 1.363 . S
C766 H743 0.950 . S
C766 C765 1.397 1_455 S
C766 C767 1.334 1_455 S
C767 H744 0.950 . S
C767 C766 1.334 1_655 S
C767 C768 1.287 . S
C768 C767 1.287 . S
C768 C769 1.524 . S
C768 H787 0.913 . S
C769 H745 0.950 . S
C769 C768 1.524 . S
C769 C770 1.415 . S
C770 H746 0.950 . S
C770 C765 1.363 . S
C770 C769 1.415 . S
C771 H747 0.951 . S
C771 C772 1.366 . S
C771 C773 1.388 . S
C772 C771 1.366 . S
C772 C776 1.385 . S
C773 H748 0.951 . S
C773 C771 1.388 . S
C773 C774 1.366 . S
C774 C773 1.366 . S
C774 C775 1.414 . S
C774 C777 1.499 . S
C775 H749 0.950 . S
C775 C774 1.414 . S
C775 C776 1.374 . S
C776 H750 0.950 . S
C776 C772 1.385 . S
C776 C775 1.374 . S
C777 C774 1.499 . S
C777 C778 1.373 1_556 S
C777 C779 1.389 1_556 S
C778 H751 0.950 1_554 S
C778 C764 1.377 . S
C778 C777 1.373 1_554 S
C779 C763 1.377 . S
C779 C777 1.389 1_554 S
C779 C780 1.524 . S
C780 C779 1.524 . S
C780 C781 1.397 1_554 S
C780 C785 1.363 . S
C781 H752 0.950 . S
C781 C780 1.397 1_556 S
C781 C782 1.334 . S
C782 H753 0.950 . S
C782 C781 1.334 . S
C782 C783 1.287 . S
C783 C782 1.287 . S
C783 C784 1.524 1_556 S
C783 H786 0.999 . S
C784 H754 0.950 . S
C784 C783 1.524 1_554 S
C784 C785 1.415 . S
C785 H755 0.950 . S
C785 C780 1.363 . S
C785 C784 1.415 . S
H786 C783 0.999 . S
H787 C768 0.913 . S
H788 C806 0.951 . S
H789 C808 0.951 . S
H790 C810 0.950 . S
H791 C811 0.950 . S
H792 C813 0.950 . S
H793 C816 0.950 . S
H794 C817 0.950 . S
H795 C819 0.950 . S
H796 C820 0.950 . S
H797 C821 0.951 . S
H798 C823 0.951 . S
H799 C825 0.950 . S
H800 C826 0.950 . S
H801 C828 0.950 1_565 S
H802 C831 0.950 . S
H803 C832 0.950 . S
H804 C834 0.950 . S
H805 C835 0.950 . S
C806 H788 0.951 . S
C806 C807 1.366 . S
C806 C808 1.388 . S
C807 C806 1.366 . S
C807 C811 1.385 . S
C808 H789 0.951 . S
C808 C806 1.388 . S
C808 C809 1.366 . S
C809 C808 1.366 . S
C809 C810 1.414 . S
C809 C812 1.499 . S
C810 H790 0.950 . S
C810 C809 1.414 . S
C810 C811 1.374 . S
C811 H791 0.950 . S
C811 C807 1.385 . S
C811 C810 1.374 . S
C812 C809 1.499 . S
C812 C813 1.373 . S
C812 C814 1.389 . S
C813 H792 0.950 . S
C813 C812 1.373 . S
C813 C829 1.377 . S
C814 C812 1.389 . S
C814 C815 1.524 1_545 S
C814 C828 1.377 . S
C815 C814 1.524 1_565 S
C815 C816 1.397 . S
C815 C820 1.363 . S
C816 H793 0.950 . S
C816 C815 1.397 . S
C816 C817 1.334 . S
C817 H794 0.950 . S
C817 C816 1.334 . S
C817 C818 1.287 . S
C818 C817 1.287 . S
C818 C819 1.524 . S
C818 H837 0.913 . S
C819 H795 0.950 . S
C819 C818 1.524 . S
C819 C820 1.415 . S
C820 H796 0.950 . S
C820 C815 1.363 . S
C820 C819 1.415 . S
C821 H797 0.951 . S
C821 C822 1.366 . S
C821 C823 1.388 . S
C822 C821 1.366 . S
C822 C826 1.385 . S
C823 H798 0.951 . S
C823 C821 1.388 . S
C823 C824 1.366 . S
C824 C823 1.366 . S
C824 C825 1.414 . S
C824 C827 1.499 . S
C825 H799 0.950 . S
C825 C824 1.414 . S
C825 C826 1.374 . S
C826 H800 0.950 . S
C826 C822 1.385 . S
C826 C825 1.374 . S
C827 C824 1.499 . S
C827 C828 1.373 . S
C827 C829 1.389 . S
C828 H801 0.950 1_545 S
C828 C814 1.377 . S
C828 C827 1.373 . S
C829 C813 1.377 . S
C829 C827 1.389 . S
C829 C830 1.524 . S
C830 C829 1.524 . S
C830 C831 1.397 . S
C830 C835 1.363 . S
C831 H802 0.950 . S
C831 C830 1.397 . S
C831 C832 1.334 . S
C832 H803 0.950 . S
C832 C831 1.334 . S
C832 C833 1.287 . S
C833 C832 1.287 . S
C833 C834 1.524 . S
C833 H836 0.999 . S
C834 H804 0.950 . S
C834 C833 1.524 . S
C834 C835 1.415 . S
C835 H805 0.950 . S
C835 C830 1.363 . S
C835 C834 1.415 . S
H836 C833 0.999 . S
H837 C818 0.913 . S
H838 C856 0.951 . S
H839 C858 0.951 . S
H840 C860 0.950 . S
H841 C861 0.950 . S
H842 C863 0.950 . S
H843 C866 0.950 . S
H844 C867 0.950 . S
H845 C869 0.950 . S
H846 C870 0.950 . S
H847 C871 0.951 . S
H848 C873 0.951 . S
H849 C875 0.950 . S
H850 C876 0.950 . S
H851 C878 0.950 . S
H852 C881 0.950 . S
H853 C882 0.950 . S
H854 C884 0.950 . S
H855 C885 0.950 . S
C856 H838 0.951 . S
C856 C857 1.366 . S
C856 C858 1.388 . S
C857 C856 1.366 . S
C857 C861 1.385 . S
C858 H839 0.951 . S
C858 C856 1.388 . S
C858 C859 1.366 . S
C859 C858 1.366 . S
C859 C860 1.414 . S
C859 C862 1.499 . S
C860 H840 0.950 . S
C860 C859 1.414 . S
C860 C861 1.374 . S
C861 H841 0.950 . S
C861 C857 1.385 . S
C861 C860 1.374 . S
C862 C859 1.499 . S
C862 C863 1.373 . S
C862 C864 1.389 . S
C863 H842 0.950 . S
C863 C862 1.373 . S
C863 C879 1.377 . S
C864 C862 1.389 . S
C864 C865 1.524 . S
C864 C878 1.377 . S
C865 C864 1.524 . S
C865 C866 1.397 . S
C865 C870 1.363 . S
C866 H843 0.950 . S
C866 C865 1.397 . S
C866 C867 1.334 . S
C867 H844 0.950 . S
C867 C866 1.334 . S
C867 C868 1.287 . S
C868 C867 1.287 . S
C868 C869 1.524 . S
C868 H887 0.913 . S
C869 H845 0.950 . S
C869 C868 1.524 . S
C869 C870 1.415 . S
C870 H846 0.950 . S
C870 C865 1.363 . S
C870 C869 1.415 . S
C871 H847 0.951 . S
C871 C872 1.366 . S
C871 C873 1.388 . S
C872 C871 1.366 . S
C872 C876 1.385 . S
C873 H848 0.951 . S
C873 C871 1.388 . S
C873 C874 1.366 . S
C874 C873 1.366 . S
C874 C875 1.414 . S
C874 C877 1.499 . S
C875 H849 0.950 . S
C875 C874 1.414 . S
C875 C876 1.374 . S
C876 H850 0.950 . S
C876 C872 1.385 . S
C876 C875 1.374 . S
C877 C874 1.499 . S
C877 C878 1.373 . S
C877 C879 1.389 . S
C878 H851 0.950 . S
C878 C864 1.377 . S
C878 C877 1.373 . S
C879 C863 1.377 . S
C879 C877 1.389 . S
C879 C880 1.524 . S
C880 C879 1.524 . S
C880 C881 1.397 . S
C880 C885 1.363 . S
C881 H852 0.950 . S
C881 C880 1.397 . S
C881 C882 1.334 . S
C882 H853 0.950 . S
C882 C881 1.334 . S
C882 C883 1.287 . S
C883 C882 1.287 . S
C883 C884 1.524 . S
C883 H886 0.999 . S
C884 H854 0.950 . S
C884 C883 1.524 . S
C884 C885 1.415 . S
C885 H855 0.950 . S
C885 C880 1.363 . S
C885 C884 1.415 . S
H886 C883 0.999 . S
H887 C868 0.913 . S
H888 C906 0.951 . S
H889 C908 0.951 . S
H890 C910 0.950 . S
H891 C911 0.950 . S
H892 C913 0.950 1_565 S
H893 C916 0.950 . S
H894 C917 0.950 . S
H895 C919 0.950 . S
H896 C920 0.950 . S
H897 C921 0.951 . S
H898 C923 0.951 . S
H899 C925 0.950 . S
H900 C926 0.950 . S
H901 C928 0.950 . S
H902 C931 0.950 . S
H903 C932 0.950 . S
H904 C934 0.950 . S
H905 C935 0.950 . S
C906 H888 0.951 . S
C906 C907 1.366 . S
C906 C908 1.388 . S
C907 C906 1.366 . S
C907 C911 1.385 . S
C908 H889 0.951 . S
C908 C906 1.388 . S
C908 C909 1.366 . S
C909 C908 1.366 . S
C909 C910 1.414 . S
C909 C912 1.499 . S
C910 H890 0.950 . S
C910 C909 1.414 . S
C910 C911 1.374 . S
C911 H891 0.950 . S
C911 C907 1.385 . S
C911 C910 1.374 . S
C912 C909 1.499 . S
C912 C913 1.373 . S
C912 C914 1.389 . S
C913 H892 0.950 1_545 S
C913 C912 1.373 . S
C913 C929 1.377 . S
C914 C912 1.389 . S
C914 C915 1.524 . S
C914 C928 1.377 . S
C915 C914 1.524 . S
C915 C916 1.397 . S
C915 C920 1.363 . S
C916 H893 0.950 . S
C916 C915 1.397 . S
C916 C917 1.334 . S
C917 H894 0.950 . S
C917 C916 1.334 . S
C917 C918 1.287 . S
C918 C917 1.287 . S
C918 C919 1.524 . S
C918 H937 0.913 . S
C919 H895 0.950 . S
C919 C918 1.524 . S
C919 C920 1.415 . S
C920 H896 0.950 . S
C920 C915 1.363 . S
C920 C919 1.415 . S
C921 H897 0.951 . S
C921 C922 1.366 . S
C921 C923 1.388 . S
C922 C921 1.366 . S
C922 C926 1.385 . S
C923 H898 0.951 . S
C923 C921 1.388 . S
C923 C924 1.366 . S
C924 C923 1.366 . S
C924 C925 1.414 . S
C924 C927 1.499 . S
C925 H899 0.950 . S
C925 C924 1.414 . S
C925 C926 1.374 . S
C926 H900 0.950 . S
C926 C922 1.385 . S
C926 C925 1.374 . S
C927 C924 1.499 . S
C927 C928 1.373 . S
C927 C929 1.389 . S
C928 H901 0.950 . S
C928 C914 1.377 . S
C928 C927 1.373 . S
C929 C913 1.377 . S
C929 C927 1.389 . S
C929 C930 1.524 1_545 S
C930 C929 1.524 1_565 S
C930 C931 1.397 . S
C930 C935 1.363 . S
C931 H902 0.950 . S
C931 C930 1.397 . S
C931 C932 1.334 . S
C932 H903 0.950 . S
C932 C931 1.334 . S
C932 C933 1.287 . S
C933 C932 1.287 . S
C933 C934 1.524 . S
C933 H936 0.999 . S
C934 H904 0.950 . S
C934 C933 1.524 . S
C934 C935 1.415 . S
C935 H905 0.950 . S
C935 C930 1.363 . S
C935 C934 1.415 . S
H936 C933 0.999 . S
H937 C918 0.913 . S
H938 C956 0.951 . S
H939 C958 0.951 . S
H940 C960 0.950 . S
H941 C961 0.950 . S
H942 C963 0.950 . S
H943 C966 0.950 . S
H944 C967 0.950 . S
H945 C969 0.950 . S
H946 C970 0.950 . S
H947 C971 0.951 . S
H948 C973 0.951 . S
H949 C975 0.950 . S
H950 C976 0.950 . S
H951 C978 0.950 . S
H952 C981 0.950 . S
H953 C982 0.950 . S
H954 C984 0.950 . S
H955 C985 0.950 1_556 S
C956 H938 0.951 . S
C956 C957 1.366 . S
C956 C958 1.388 . S
C957 C956 1.366 . S
C957 C961 1.385 . S
C958 H939 0.951 . S
C958 C956 1.388 . S
C958 C959 1.366 . S
C959 C958 1.366 . S
C959 C960 1.414 . S
C959 C962 1.499 . S
C960 H940 0.950 . S
C960 C959 1.414 . S
C960 C961 1.374 . S
C961 H941 0.950 . S
C961 C957 1.385 . S
C961 C960 1.374 . S
C962 C959 1.499 . S
C962 C963 1.373 . S
C962 C964 1.389 . S
C963 H942 0.950 . S
C963 C962 1.373 . S
C963 C979 1.377 . S
C964 C962 1.389 . S
C964 C965 1.524 . S
C964 C978 1.377 . S
C965 C964 1.524 . S
C965 C966 1.397 . S
C965 C970 1.363 . S
C966 H943 0.950 . S
C966 C965 1.397 . S
C966 C967 1.334 . S
C967 H944 0.950 . S
C967 C966 1.334 . S
C967 C968 1.287 . S
C968 C967 1.287 . S
C968 C969 1.524 . S
C968 H987 0.913 . S
C969 H945 0.950 . S
C969 C968 1.524 . S
C969 C970 1.415 . S
C970 H946 0.950 . S
C970 C965 1.363 . S
C970 C969 1.415 . S
C971 H947 0.951 . S
C971 C972 1.366 . S
C971 C973 1.388 . S
C972 C971 1.366 . S
C972 C976 1.385 . S
C973 H948 0.951 . S
C973 C971 1.388 . S
C973 C974 1.366 . S
C974 C973 1.366 . S
C974 C975 1.414 . S
C974 C977 1.499 . S
C975 H949 0.950 . S
C975 C974 1.414 . S
C975 C976 1.374 . S
C976 H950 0.950 . S
C976 C972 1.385 . S
C976 C975 1.374 . S
C977 C974 1.499 . S
C977 C978 1.373 1_554 S
C977 C979 1.389 1_554 S
C978 H951 0.950 . S
C978 C964 1.377 . S
C978 C977 1.373 1_556 S
C979 C963 1.377 . S
C979 C977 1.389 1_556 S
C979 C980 1.524 1_556 S
C980 C979 1.524 1_554 S
C980 C981 1.397 . S
C980 C985 1.363 . S
C981 H952 0.950 . S
C981 C980 1.397 . S
C981 C982 1.334 . S
C982 H953 0.950 . S
C982 C981 1.334 . S
C982 C983 1.287 . S
C983 C982 1.287 . S
C983 C984 1.524 . S
C983 H986 0.999 . S
C984 H954 0.950 . S
C984 C983 1.524 . S
C984 C985 1.415 . S
C985 H955 0.950 1_554 S
C985 C980 1.363 . S
C985 C984 1.415 . S
H986 C983 0.999 . S
H987 C968 0.913 . S
H988 C1006 0.951 . S
H989 C1008 0.951 . S
H990 C1010 0.950 . S
H991 C1011 0.950 1_655 S
H992 C1013 0.950 1_655 S
H993 C1016 0.950 . S
H994 C1017 0.950 . S
H995 C1019 0.950 . S
H996 C1020 0.950 . S
H997 C1021 0.951 . S
H998 C1023 0.951 . S
H999 C1025 0.950 . S
H1000 C1026 0.950 . S
H1001 C1028 0.950 . S
H1002 C1031 0.950 . S
H1003 C1032 0.950 . S
H1004 C1034 0.950 . S
H1005 C1035 0.950 . S
C1006 H988 0.951 . S
C1006 C1007 1.366 . S
C1006 C1008 1.388 . S
C1007 C1006 1.366 . S
C1007 C1011 1.385 . S
C1008 H989 0.951 . S
C1008 C1006 1.388 . S
C1008 C1009 1.366 . S
C1009 C1008 1.366 . S
C1009 C1010 1.414 . S
C1009 C1012 1.499 . S
C1010 H990 0.950 . S
C1010 C1009 1.414 . S
C1010 C1011 1.374 . S
C1011 H991 0.950 1_455 S
C1011 C1007 1.385 . S
C1011 C1010 1.374 . S
C1012 C1009 1.499 . S
C1012 C1013 1.373 . S
C1012 C1014 1.389 . S
C1013 H992 0.950 1_455 S
C1013 C1012 1.373 . S
C1013 C1029 1.377 . S
C1014 C1012 1.389 . S
C1014 C1015 1.524 . S
C1014 C1028 1.377 . S
C1015 C1014 1.524 . S
C1015 C1016 1.397 . S
C1015 C1020 1.363 . S
C1016 H993 0.950 . S
C1016 C1015 1.397 . S
C1016 C1017 1.334 . S
C1017 H994 0.950 . S
C1017 C1016 1.334 . S
C1017 C1018 1.287 . S
C1018 C1017 1.287 . S
C1018 C1019 1.524 . S
C1018 H1037 0.913 . S
C1019 H995 0.950 . S
C1019 C1018 1.524 . S
C1019 C1020 1.415 . S
C1020 H996 0.950 . S
C1020 C1015 1.363 . S
C1020 C1019 1.415 . S
C1021 H997 0.951 . S
C1021 C1022 1.366 . S
C1021 C1023 1.388 . S
C1022 C1021 1.366 . S
C1022 C1026 1.385 . S
C1023 H998 0.951 . S
C1023 C1021 1.388 . S
C1023 C1024 1.366 . S
C1024 C1023 1.366 . S
C1024 C1025 1.414 . S
C1024 C1027 1.499 . S
C1025 H999 0.950 . S
C1025 C1024 1.414 . S
C1025 C1026 1.374 . S
C1026 H1000 0.950 . S
C1026 C1022 1.385 . S
C1026 C1025 1.374 . S
C1027 C1024 1.499 . S
C1027 C1028 1.373 . S
C1027 C1029 1.389 . S
C1028 H1001 0.950 . S
C1028 C1014 1.377 . S
C1028 C1027 1.373 . S
C1029 C1013 1.377 . S
C1029 C1027 1.389 . S
C1029 C1030 1.524 1_455 S
C1030 C1029 1.524 1_655 S
C1030 C1031 1.397 . S
C1030 C1035 1.363 . S
C1031 H1002 0.950 . S
C1031 C1030 1.397 . S
C1031 C1032 1.334 . S
C1032 H1003 0.950 . S
C1032 C1031 1.334 . S
C1032 C1033 1.287 . S
C1033 C1032 1.287 . S
C1033 C1034 1.524 . S
C1033 H1036 0.999 . S
C1034 H1004 0.950 . S
C1034 C1033 1.524 . S
C1034 C1035 1.415 . S
C1035 H1005 0.950 . S
C1035 C1030 1.363 . S
C1035 C1034 1.415 . S
H1036 C1033 0.999 . S
H1037 C1018 0.913 . S
C157 C2 1.375 . S
C172 C129 1.354 . S
C207 C22 1.229 . S
C222 C107 1.320 . S
C257 C44 1.261 . S
C272 C120 1.342 1_565 S
C307 C4 1.415 . S
C322 C133 1.491 . S
C372 C103 1.547 . S
C357 C24 1.601 . S
C422 C116 1.490 . S
C407 C42 1.531 . S
C457 C32 1.196 . S
C472 C81 1.217 . S
C507 C49 1.077 . S
C522 C94 1.095 . S
C557 C9 1.257 . S
C572 C64 1.187 . S
C622 C77 1.161 . S
C607 C29 1.222 . S
C672 C90 1.244 . S
C657 C52 1.304 . S
C707 C12 1.160 . S
C722 C68 1.191 . S
C772 C95 1.514 . S
C757 C18 1.517 . S
C807 C38 1.523 . S
C822 C69 1.557 . S
C857 C58 1.511 . S
C872 C82 1.517 . S
C922 C121 1.596 . S
C907 C39 1.575 . S
C972 C134 1.538 . S
C957 C59 1.517 . S
C1007 C19 1.536 . S
C1022 C108 1.578 . S
