# Generated by pormake.
# Topology zzz, (3,6)-cn, num edge types: 1
# Building blocks:
#     Node 0, Type 0, BuildingBlock: PAMTOO_clean_linker_0, # of connection points: 3
#     Node 1, Type 0, BuildingBlock: PAMTOO_clean_linker_0, # of connection points: 3
#     Node 2, Type 0, BuildingBlock: PAMTOO_clean_linker_0, # of connection points: 3
#     Node 3, Type 0, BuildingBlock: PAMTOO_clean_linker_0, # of connection points: 3
#     Node 4, Type 0, BuildingBlock: PAMTOO_clean_linker_0, # of connection points: 3
#     Node 5, Type 0, BuildingBlock: PAMTOO_clean_linker_0, # of connection points: 3
#     Node 6, Type 0, BuildingBlock: PAMTOO_clean_linker_0, # of connection points: 3
#     Node 7, Type 0, BuildingBlock: PAMTOO_clean_linker_0, # of connection points: 3
#     Node 8, Type 1, BuildingBlock: BETFAJ_clean_sbu_0, # of connection points: 6
#     Node 9, Type 1, BuildingBlock: BETFAJ_clean_sbu_0, # of connection points: 6
#     Node 10, Type 1, BuildingBlock: BETFAJ_clean_sbu_0, # of connection points: 6
#     Node 11, Type 1, BuildingBlock: BETFAJ_clean_sbu_0, # of connection points: 6
#     Edge 12, Type (0, 1), BuildingBlock: ZUJKAS_clean_linker_0, # of connection points: 2
#     Edge 13, Type (0, 1), BuildingBlock: ZUJKAS_clean_linker_0, # of connection points: 2
#     Edge 14, Type (0, 1), BuildingBlock: ZUJKAS_clean_linker_0, # of connection points: 2
#     Edge 15, Type (0, 1), BuildingBlock: ZUJKAS_clean_linker_0, # of connection points: 2
#     Edge 16, Type (0, 1), BuildingBlock: ZUJKAS_clean_linker_0, # of connection points: 2
#     Edge 17, Type (0, 1), BuildingBlock: ZUJKAS_clean_linker_0, # of connection points: 2
#     Edge 18, Type (0, 1), BuildingBlock: ZUJKAS_clean_linker_0, # of connection points: 2
#     Edge 19, Type (0, 1), BuildingBlock: ZUJKAS_clean_linker_0, # of connection points: 2
#     Edge 20, Type (0, 1), BuildingBlock: ZUJKAS_clean_linker_0, # of connection points: 2
#     Edge 21, Type (0, 1), BuildingBlock: ZUJKAS_clean_linker_0, # of connection points: 2
#     Edge 22, Type (0, 1), BuildingBlock: ZUJKAS_clean_linker_0, # of connection points: 2
#     Edge 23, Type (0, 1), BuildingBlock: ZUJKAS_clean_linker_0, # of connection points: 2
#     Edge 24, Type (0, 1), BuildingBlock: ZUJKAS_clean_linker_0, # of connection points: 2
#     Edge 25, Type (0, 1), BuildingBlock: ZUJKAS_clean_linker_0, # of connection points: 2
#     Edge 26, Type (0, 1), BuildingBlock: ZUJKAS_clean_linker_0, # of connection points: 2
#     Edge 27, Type (0, 1), BuildingBlock: ZUJKAS_clean_linker_0, # of connection points: 2
#     Edge 28, Type (0, 1), BuildingBlock: ZUJKAS_clean_linker_0, # of connection points: 2
#     Edge 29, Type (0, 1), BuildingBlock: ZUJKAS_clean_linker_0, # of connection points: 2
#     Edge 30, Type (0, 1), BuildingBlock: ZUJKAS_clean_linker_0, # of connection points: 2
#     Edge 31, Type (0, 1), BuildingBlock: ZUJKAS_clean_linker_0, # of connection points: 2
#     Edge 32, Type (0, 1), BuildingBlock: ZUJKAS_clean_linker_0, # of connection points: 2
#     Edge 33, Type (0, 1), BuildingBlock: ZUJKAS_clean_linker_0, # of connection points: 2
#     Edge 34, Type (0, 1), BuildingBlock: ZUJKAS_clean_linker_0, # of connection points: 2
#     Edge 35, Type (0, 1), BuildingBlock: ZUJKAS_clean_linker_0, # of connection points: 2
# Relax obj value: 0.227
# Max RMSD: 0.175
# Mean RMSD: 0.159
data_MOF--net-zzz--node1-BETFAJ_clean_sbu_0--node2-PAMTOO_clean_linker_0--edge1-ZUJKAS_clean_linker_0
_symmetry_space_group_name_H-M    P1
_symmetry_Int_Tables_number       1
_symmetry_cell_setting            triclinic
loop_
_symmetry_equiv_pos_as_xyz
'x, y, z'
_cell_length_a     68.052902
_cell_length_b     67.875296
_cell_length_c     17.154095
_cell_angle_alpha  89.868559
_cell_angle_beta   90.044654
_cell_angle_gamma 89.901582
loop_
_atom_site_label
_atom_site_type_symbol
_atom_site_fract_x
_atom_site_fract_y
_atom_site_fract_z
_atom_type_partial_charge
H0 H 0.79068 0.48748 0.21919 0.0
H1 H 0.73317 0.5019 0.13263 0.0
H2 H 0.75429 0.5286 0.34379 0.0
H3 H 0.70331 0.52877 0.32391 0.0
C4 C 0.70741 0.51969 0.27264 0.0
O5 O 0.72489 0.52689 0.24267 0.0
H6 H 0.70919 0.50421 0.29339 0.0
C7 C 0.77671 0.49492 0.22669 0.0
C8 C 0.77427 0.50774 0.29006 0.0
C9 C 0.76201 0.49249 0.16998 0.0
C10 C 0.74455 0.50332 0.17642 0.0
C11 C 0.74168 0.51616 0.23926 0.0
C12 C 0.75653 0.51845 0.29601 0.0
H13 H 0.04054 0.79194 0.31873 0.0
H14 H 0.03494 0.73892 0.18419 0.0
H15 H 0.9883 0.75677 0.33869 0.0
H16 H 0.99144 0.70924 0.32087 0.0
C17 C 1.00295 0.71084 0.27536 0.0
O18 O 1.00059 0.72909 0.24002 0.0
H19 H 0.01752 0.70977 0.30469 0.0
C20 C 0.03251 0.77858 0.30482 0.0
C21 C 0.0138 0.77587 0.33657 0.0
C22 C 0.0402 0.76551 0.24955 0.0
C23 C 0.02931 0.74888 0.22814 0.0
C24 C 1.01089 0.74528 0.26205 0.0
C25 C 1.0029 0.75904 0.31523 0.0
H26 H 0.72048 0.04021 0.27228 0.0
H27 H 0.77743 0.03755 0.16366 0.0
H28 H 0.75934 0.992 0.32325 0.0
H29 H 0.80765 0.99857 0.31203 0.0
C30 C 0.80542 1.00865 0.26161 0.0
O31 O 0.78756 1.00415 0.2272 0.0
H32 H 0.80544 0.02403 0.28403 0.0
C33 C 0.73477 0.03329 0.26574 0.0
C34 C 0.73831 0.01556 0.30497 0.0
C35 C 0.74874 0.04157 0.21519 0.0
C36 C 0.76663 0.03167 0.20373 0.0
C37 C 0.77063 1.01396 0.24315 0.0
C38 C 0.75648 1.00592 0.2944 0.0
H39 H 0.5104 0.73069 0.21742 0.0
H40 H 0.51943 0.79212 0.1684 0.0
H41 H 0.51213 0.77254 0.40556 0.0
H42 H 0.50172 0.82376 0.37355 0.0
C43 C 0.50222 0.81705 0.31461 0.0
O44 O 0.51756 0.80359 0.31265 0.0
H45 H 0.48783 0.8095 0.30617 0.0
C46 C 0.51134 0.74578 0.2378 0.0
C47 C 0.51055 0.74955 0.31811 0.0
C48 C 0.5146 0.76095 0.18361 0.0
C49 C 0.51675 0.78033 0.20973 0.0
C50 C 0.51541 0.78464 0.28928 0.0
C51 C 0.51263 0.76921 0.34387 0.0
H52 H 0.2212 0.5437 0.10531 0.0
H53 H 0.27643 0.53978 0.22719 0.0
H54 H 0.25937 0.49436 0.06632 0.0
H55 H 0.30528 0.52502 0.10649 0.0
C56 C 0.30476 0.50987 0.13151 0.0
O57 O 0.28675 0.50625 0.16608 0.0
H58 H 0.30677 0.49932 0.0827 0.0
C59 C 0.23523 0.53654 0.11527 0.0
C60 C 0.23893 0.51867 0.07755 0.0
C61 C 0.24852 0.54439 0.16972 0.0
C62 C 0.26605 0.53413 0.18498 0.0
C63 C 0.27015 0.51628 0.14718 0.0
C64 C 0.25648 0.50842 0.09378 0.0
H65 H 0.01512 0.22542 0.17495 0.0
H66 H 0.02183 0.28606 0.23986 0.0
H67 H 1.01101 0.27078 0.9999 0.0
H68 H 0.98771 0.30468 0.13658 0.0
C69 C 0.99986 0.31233 0.10536 0.0
O70 O 0.01636 0.30035 0.10026 0.0
H71 H 0.99465 0.31545 0.04516 0.0
C72 C 0.01503 0.2409 0.15905 0.0
C73 C 1.01242 0.24618 0.08073 0.0
C74 C 0.01853 0.25513 0.21652 0.0
C75 C 0.01914 0.27505 0.19566 0.0
C76 C 0.01605 0.28084 0.11815 0.0
C77 C 0.01301 0.26635 0.06009 0.0
H78 H 0.29227 0.98675 0.16179 0.0
H79 H 0.23173 0.98868 0.2343 0.0
H80 H 0.25245 0.02779 0.05418 0.0
H81 H 0.2121 0.04524 0.14421 0.0
C82 C 0.21545 0.03268 0.1837 0.0
O83 O 0.22158 0.01686 0.13896 0.0
H84 H 0.22741 0.03778 0.22323 0.0
C85 C 0.27751 0.99263 0.15557 0.0
C86 C 0.27424 1.00781 0.10185 0.0
C87 C 0.26233 0.98545 0.20319 0.0
C88 C 0.24354 0.99383 0.19719 0.0
C89 C 0.2399 1.00903 0.1436 0.0
C90 C 0.25524 0.01596 0.09523 0.0
H91 H 0.53055 0.29555 0.14443 0.0
H92 H 0.52951 0.23462 0.21417 0.0
H93 H 0.49345 0.2546 0.02306 0.0
H94 H 0.47574 0.21358 0.10892 0.0
C95 C 0.4877 0.21673 0.15118 0.0
O96 O 0.50383 0.22373 0.11039 0.0
H97 H 0.48181 0.22813 0.19165 0.0
C98 C 0.52533 0.28061 0.13595 0.0
C99 C 0.51145 0.27702 0.07748 0.0
C100 C 0.53209 0.26549 0.18515 0.0
C101 C 0.52465 0.24639 0.17597 0.0
C102 C 0.51075 0.24238 0.11778 0.0
C103 C 0.50425 0.25768 0.06777 0.0
Sm104 Sm 0.01504 1.00372 0.78714 0.0
Sm105 Sm 0.99912 0.01953 0.61453 0.0
C106 C 0.0189 0.98657 0.92384 0.0
C107 C 0.03127 0.96967 0.94501 0.0
C108 C 0.03979 0.95831 0.88569 0.0
C109 C 0.05101 0.94174 0.90407 0.0
C110 C 0.05409 0.93636 0.98218 0.0
C111 C 0.04612 0.94817 0.0417 0.0
C112 C 0.0347 0.96472 0.02314 0.0
C113 C 0.04563 1.00935 0.68149 0.0
C114 C 1.00365 0.97178 0.64302 0.0
C115 C 1.00122 0.03788 0.48037 0.0
C116 C 0.01423 0.05464 0.46484 0.0
C117 C 0.03082 0.05731 0.51244 0.0
C118 C 0.04067 0.07527 0.51344 0.0
C119 C 0.03399 0.09099 0.46731 0.0
C120 C 0.01807 0.08794 0.41615 0.0
C121 C 1.0082 0.06988 0.41518 0.0
C122 C 0.96857 1.01388 0.71985 0.0
C123 C 1.00983 0.05095 0.75728 0.0
O124 O 1.00445 0.98252 0.87579 0.0
O125 O 0.02849 1.00264 0.90497 0.0
O126 O 0.02749 1.01182 0.67178 0.0
O127 O 0.04836 1.00368 0.753 0.0
O128 O 1.00895 0.97506 0.71668 0.0
O129 O 0.99961 0.9861 0.5924 0.0
O130 O 1.00995 0.02089 0.49253 0.0
O131 O 0.98745 0.04171 0.5315 0.0
O132 O 0.98674 1.01174 0.73033 0.0
O133 O 0.96574 0.01876 0.64714 0.0
O134 O 1.00969 0.04724 0.68134 0.0
O135 O 1.00901 0.03671 0.81037 0.0
H136 H 0.03752 0.9621 0.82495 0.0
H137 H 0.05711 0.933 0.85715 0.0
H138 H 0.04815 0.94421 0.10239 0.0
H139 H 0.02833 0.97344 0.06955 0.0
H140 H 0.03541 0.04594 0.55287 0.0
H141 H 0.05297 0.07713 0.55289 0.0
H142 H 1.01244 0.09988 0.38055 0.0
H143 H 0.99518 0.06825 0.37941 0.0
Sm144 Sm 0.5164 0.02331 0.79272 0.0
Sm145 Sm 0.49913 1.00304 0.63139 0.0
C146 C 0.53439 0.03106 0.92462 0.0
C147 C 0.55158 0.0437 0.93744 0.0
C148 C 0.5644 0.04751 0.87524 0.0
C149 C 0.58077 0.0595 0.88567 0.0
C150 C 0.58455 0.06827 0.95833 0.0
C151 C 0.57128 0.06491 0.02006 0.0
C152 C 0.55493 0.05268 0.00965 0.0
C153 C 0.51175 0.05112 0.674 0.0
C154 C 0.54688 1.0092 0.64978 0.0
C155 C 0.47944 0.99686 0.50228 0.0
C156 C 0.45977 0.98792 0.49366 0.0
C157 C 0.44359 0.99598 0.53342 0.0
C158 C 0.42571 0.98608 0.53559 0.0
C159 C 0.42347 0.96792 0.49768 0.0
C160 C 0.43936 0.96015 0.45527 0.0
C161 C 0.45742 0.97004 0.45364 0.0
C162 C 0.50392 0.97544 0.75086 0.0
C163 C 0.46867 0.01559 0.77562 0.0
O164 O 0.53778 0.01496 0.88442 0.0
O165 O 0.5184 0.04037 0.90269 0.0
O166 O 0.50838 0.03289 0.67179 0.0
O167 O 0.51786 0.05532 0.74361 0.0
O168 O 0.54433 1.01396 0.72431 0.0
O169 O 0.53201 1.00608 0.60107 0.0
O170 O 0.47998 1.01411 0.53664 0.0
O171 O 0.49341 0.98489 0.52602 0.0
O172 O 0.50705 0.99369 0.75241 0.0
O173 O 0.4981 0.97096 0.68102 0.0
O174 O 0.47115 1.01115 0.70093 0.0
O175 O 0.48359 0.01906 0.82367 0.0
H176 H 0.56189 0.04101 0.81852 0.0
H177 H 0.59078 0.06133 0.83716 0.0
H178 H 0.57361 0.07161 0.07653 0.0
H179 H 0.54496 0.05019 0.05787 0.0
H180 H 0.4448 1.00976 0.56474 0.0
H181 H 0.41358 0.9927 0.56698 0.0
H182 H 0.43796 0.94623 0.42503 0.0
H183 H 0.46969 0.96346 0.42299 0.0
Sm184 Sm 0.49883 0.51967 0.76884 0.0
Sm185 Sm 0.51632 0.5065 0.62147 0.0
C186 C 0.49394 0.54031 0.89677 0.0
C187 C 0.5035 0.55925 0.91315 0.0
C188 C 0.5224 0.5629 0.88326 0.0
C189 C 0.53013 0.58189 0.8835 0.0
C190 C 0.51915 0.59757 0.91392 0.0
C191 C 0.50065 0.59376 0.94738 0.0
C192 C 0.49283 0.57472 0.94659 0.0
C193 C 0.47082 0.5099 0.65989 0.0
C194 C 0.51123 0.55282 0.63587 0.0
C195 C 0.52606 0.48662 0.4953 0.0
C196 C 0.53304 0.46612 0.48753 0.0
C197 C 0.52208 0.45048 0.51909 0.0
C198 C 0.52998 0.43155 0.52252 0.0
C199 C 0.54897 0.42778 0.49431 0.0
C200 C 0.55965 0.4432 0.45975 0.0
C201 C 0.55176 0.46225 0.45669 0.0
C202 C 0.54387 0.51662 0.73228 0.0
C203 C 0.50324 0.47284 0.75567 0.0
O204 O 0.50568 0.52506 0.89349 0.0
O205 O 0.4813 0.54079 0.83936 0.0
O206 O 0.48641 0.51939 0.64584 0.0
O207 O 0.46924 0.50596 0.73387 0.0
O208 O 0.51045 0.5485 0.71096 0.0
O209 O 0.51089 0.53856 0.58386 0.0
O210 O 0.50782 0.48902 0.51769 0.0
O211 O 0.53818 0.4986 0.53045 0.0
O212 O 0.52856 0.50663 0.74427 0.0
O213 O 0.54534 0.5213 0.65916 0.0
O214 O 0.5089 0.47669 0.68334 0.0
O215 O 0.49915 0.48721 0.8046 0.0
H216 H 0.53086 0.55125 0.85613 0.0
H217 H 0.54448 0.5844 0.85809 0.0
H218 H 0.49182 0.60565 0.97071 0.0
H219 H 0.47813 0.57226 0.96871 0.0
H220 H 0.5076 0.45291 0.54335 0.0
H221 H 0.52122 0.41983 0.54764 0.0
H222 H 0.57428 0.44064 0.43706 0.0
H223 H 0.56052 0.47408 0.43241 0.0
Sm224 Sm 0.99921 0.50209 0.76383 0.0
Sm225 Sm 0.01589 0.52279 0.60247 0.0
C226 C 0.98024 0.49452 0.89366 0.0
C227 C 0.96216 0.48292 0.90221 0.0
C228 C 0.94816 0.48805 0.95841 0.0
C229 C 0.92934 0.47978 0.95582 0.0
C230 C 0.92425 0.46642 0.89642 0.0
C231 C 0.93863 0.46062 0.84262 0.0
C232 C 0.95739 0.4688 0.8455 0.0
C233 C 1.00353 0.47475 0.64334 0.0
C234 C 0.96836 0.51541 0.62306 0.0
C235 C 0.03312 0.53103 0.46944 0.0
C236 C 0.04997 0.54404 0.45523 0.0
C237 C 0.06275 0.54846 0.51689 0.0
C238 C 0.07897 0.56056 0.50488 0.0
C239 C 0.08262 0.56885 0.43107 0.0
C240 C 0.06931 0.56496 0.36995 0.0
C241 C 0.05312 0.55259 0.38196 0.0
C242 C 1.01144 0.55033 0.72175 0.0
C243 C 0.04672 0.50923 0.74472 0.0
O244 O 0.97789 0.511 0.85475 0.0
O245 O 0.99602 0.48468 0.8728 0.0
O246 O 1.00686 0.49295 0.64216 0.0
O247 O 0.99784 0.47019 0.71315 0.0
O248 O 0.97116 0.51162 0.69808 0.0
O249 O 0.98305 0.51791 0.57313 0.0
O250 O 0.03708 0.51501 0.50967 0.0
O251 O 0.01704 0.53999 0.49236 0.0
O252 O 1.00803 0.53211 0.72379 0.0
O253 O 0.01738 0.55469 0.65204 0.0
O254 O 0.0441 0.51379 0.66996 0.0
O255 O 0.03195 0.50606 0.79369 0.0
H256 H 0.95144 0.49916 1.00173 0.0
H257 H 0.91847 0.4847 0.99756 0.0
H258 H 0.93517 0.45026 0.7967 0.0
H259 H 0.96785 0.46476 0.80091 0.0
H260 H 0.06036 0.54227 0.57436 0.0
H261 H 0.089 0.56282 0.55305 0.0
H262 H 0.0715 0.5713 0.31264 0.0
H263 H 0.04317 0.54962 0.3341 0.0
H264 H 0.21197 0.02738 0.34215 0.0
H265 H 0.18189 0.0227 0.41873 0.0
H266 H 0.14765 0.02229 0.20716 0.0
H267 H 0.1778 0.027 0.13035 0.0
H268 H 0.14906 0.04913 0.41834 0.0
H269 H 0.12718 0.97363 0.32844 0.0
H270 H 0.15179 0.98295 0.31469 0.0
H271 H 0.13234 0.99068 0.25074 0.0
C272 C 0.19805 0.02604 0.31196 0.0
C273 C 0.1972 0.02762 0.23028 0.0
C274 C 0.18086 0.02341 0.35576 0.0
C275 C 0.16247 0.02204 0.31886 0.0
C276 C 0.16166 0.02304 0.23703 0.0
H277 H 0.04398 1.00853 0.52085 0.0
H278 H 0.07133 1.01296 0.42882 0.0
C279 C 0.17886 0.02576 0.19318 0.0
C280 C 0.14415 0.02072 0.36648 0.0
H281 H 0.10527 0.99081 0.41086 0.0
C282 C 0.13949 0.03636 0.41666 0.0
C283 C 0.1315 1.0042 0.36367 0.0
C284 C 0.13593 0.9868 0.312 0.0
C285 C 0.12265 0.03593 0.4642 0.0
C286 C 0.1103 0.01914 0.46332 0.0
C287 C 0.11471 1.00366 0.41182 0.0
C288 C 0.0934 0.01699 0.51831 0.0
C289 C 0.11813 0.05361 0.51429 0.0
C290 C 0.09661 0.01755 0.59916 0.0
C291 C 0.08098 0.0153 0.65135 0.0
C292 C 0.06171 1.01241 0.62419 0.0
C293 C 0.05849 1.01147 0.54338 0.0
C294 C 0.07419 1.01375 0.49086 0.0
H295 H 0.12502 0.06719 0.49062 0.0
H296 H 0.10204 0.05608 0.51914 0.0
H297 H 0.12412 0.05112 0.57369 0.0
H298 H 0.11131 0.01948 0.62212 0.0
H299 H 0.08402 0.01579 0.71333 0.0
H300 H 0.5009 0.21365 0.30215 0.0
H301 H 0.50554 0.18368 0.3806 0.0
H302 H 0.49018 0.14811 0.18178 0.0
H303 H 0.48566 0.1781 0.10321 0.0
H304 H 0.47617 0.15587 0.41211 0.0
H305 H 0.53947 0.12016 0.26439 0.0
H306 H 0.53335 0.14582 0.24999 0.0
H307 H 0.5194 0.127 0.20176 0.0
C308 C 0.49879 0.19941 0.27503 0.0
C309 C 0.49273 0.19821 0.19683 0.0
C310 C 0.5014 0.18229 0.31987 0.0
C311 C 0.4983 0.16355 0.28725 0.0
C312 C 0.49295 0.16231 0.20821 0.0
H313 H 0.50185 0.04614 0.5179 0.0
H314 H 0.49734 0.07231 0.41917 0.0
C315 C 0.49029 0.17946 0.16339 0.0
C316 C 0.49938 0.14552 0.33749 0.0
H317 H 0.52402 0.10198 0.36506 0.0
C318 C 0.48665 0.14411 0.40164 0.0
C319 C 0.51284 0.12996 0.3235 0.0
C320 C 0.52717 0.13077 0.25658 0.0
C321 C 0.4871 0.12779 0.45239 0.0
C322 C 0.50097 0.11252 0.44003 0.0
C323 C 0.51337 0.11363 0.37466 0.0
C324 C 0.50382 0.09629 0.49812 0.0
C325 C 0.47261 0.12705 0.51888 0.0
C326 C 0.50929 0.10094 0.57474 0.0
C327 C 0.51173 0.08614 0.63065 0.0
C328 C 0.50889 0.06618 0.61174 0.0
C329 C 0.5038 0.06136 0.53462 0.0
C330 C 0.50135 0.07631 0.47814 0.0
H331 H 0.45936 0.13612 0.50633 0.0
H332 H 0.4679 0.1117 0.53118 0.0
H333 H 0.47964 0.13305 0.57214 0.0
H334 H 0.51175 0.11611 0.59144 0.0
H335 H 0.51586 0.09042 0.68921 0.0
H336 H 0.33814 0.48703 0.12274 0.0
H337 H 0.36603 0.48596 0.21314 0.0
H338 H 0.33686 0.52788 0.36219 0.0
H339 H 0.30907 0.52921 0.27104 0.0
H340 H 0.37549 0.53762 0.33466 0.0
H341 H 0.37036 0.45936 0.42568 0.0
H342 H 0.37125 0.46282 0.32194 0.0
H343 H 0.35058 0.47199 0.37619 0.0
C344 C 0.33755 0.49579 0.17539 0.0
C345 C 0.32125 0.50796 0.1905 0.0
C346 C 0.35348 0.49512 0.22719 0.0
C347 C 0.35346 0.50658 0.29533 0.0
C348 C 0.33719 0.51879 0.31038 0.0
H349 H 0.43377 0.49636 0.68906 0.0
H350 H 0.40566 0.49569 0.59997 0.0
C351 C 0.32127 0.51947 0.25852 0.0
C352 C 0.37071 0.50649 0.34909 0.0
H353 H 0.39923 0.47654 0.46336 0.0
C354 C 0.38064 0.52427 0.36296 0.0
C355 C 0.37735 0.48912 0.3868 0.0
C356 C 0.36675 0.46976 0.37765 0.0
C357 C 0.39712 0.52513 0.4125 0.0
C358 C 0.40415 0.50764 0.4483 0.0
C359 C 0.39404 0.48991 0.4353 0.0
C360 C 0.42156 0.50755 0.50133 0.0
C361 C 0.40657 0.54487 0.4273 0.0
C362 C 0.44006 0.51406 0.4754 0.0
C363 C 0.45616 0.51455 0.52647 0.0
C364 C 0.45414 0.50837 0.60435 0.0
C365 C 0.4358 0.50129 0.62952 0.0
C366 C 0.4197 0.50089 0.57858 0.0
H367 H 0.39646 0.55724 0.41315 0.0
H368 H 0.41124 0.54626 0.48907 0.0
H369 H 0.41977 0.54636 0.38984 0.0
H370 H 0.44205 0.5188 0.41562 0.0
H371 H 0.47015 0.51992 0.50514 0.0
H372 H 0.98185 0.34781 0.0833 0.0
H373 H 0.98474 0.37798 0.16043 0.0
H374 H 0.02845 0.34999 0.30539 0.0
H375 H 0.02592 0.32 0.22723 0.0
H376 H 0.97614 0.38226 0.31149 0.0
H377 H 0.05398 0.40301 0.26757 0.0
H378 H 0.04168 0.38517 0.2068 0.0
H379 H 0.05115 0.37809 0.30078 0.0
C380 C 0.99245 0.34826 0.13038 0.0
C381 C 1.00394 0.33156 0.14783 0.0
C382 C 0.99402 0.3655 0.17478 0.0
C383 C 1.00706 0.36651 0.23823 0.0
C384 C 0.01866 0.34988 0.2556 0.0
H385 H 0.99742 0.43556 0.65278 0.0
H386 H 0.99866 0.41103 0.54947 0.0
C387 C 0.01711 0.33262 0.21102 0.0
C388 C 1.00725 0.38428 0.28979 0.0
H389 H 0.03726 0.41873 0.37385 0.0
C390 C 0.98951 0.39032 0.32427 0.0
C391 C 0.02458 0.39509 0.30616 0.0
C392 C 0.04389 0.39016 0.26779 0.0
C393 C 0.98875 0.40626 0.37651 0.0
C394 C 1.00624 0.41639 0.39603 0.0
C395 C 0.02387 0.4109 0.35941 0.0
C396 C 1.00656 0.43166 0.45858 0.0
C397 C 0.96918 0.41202 0.41101 0.0
C398 C 1.01112 0.4515 0.44265 0.0
C399 C 1.01043 0.46574 0.50231 0.0
C400 C 1.00536 0.46027 0.57882 0.0
C401 C 1.0013 0.44033 0.59448 0.0
C402 C 1.00193 0.42624 0.53532 0.0
H403 H 0.95674 0.40674 0.37471 0.0
H404 H 0.96775 0.40529 0.46974 0.0
H405 H 0.96799 0.42826 0.41733 0.0
H406 H 0.01481 0.45603 0.38388 0.0
H407 H 0.01359 0.48098 0.48845 0.0
H408 H 0.80652 0.01893 0.1054 0.0
H409 H 0.83469 0.01797 0.01641 0.0
H410 H 0.87107 0.99497 0.20144 0.0
H411 H 0.84283 0.99544 0.2898 0.0
H412 H 0.86897 0.0374 0.02503 0.0
H413 H 0.88493 0.95731 0.02914 0.0
H414 H 0.86241 0.96745 0.06752 0.0
H415 H 0.88462 0.96812 0.12445 0.0
C416 C 0.82041 1.01325 0.12657 0.0
C417 C 0.82227 1.00666 0.20406 0.0
C418 C 0.83657 1.01282 0.07577 0.0
C419 C 0.85501 1.00597 0.10138 0.0
C420 C 0.85694 0.99971 0.17919 0.0
H421 H 0.97158 1.00522 0.87672 0.0
H422 H 0.94458 1.00299 0.97201 0.0
C423 C 0.84077 1.00005 0.22984 0.0
C424 C 0.87239 1.00638 0.04795 0.0
H425 H 0.90879 0.97784 0.96859 0.0
C426 C 0.87759 0.02433 0.01257 0.0
C427 C 0.88382 0.98938 0.03169 0.0
C428 C 0.87858 0.96944 0.06456 0.0
C429 C 0.89382 0.02577 0.96209 0.0
C430 C 0.90517 1.00879 0.94563 0.0
C431 C 0.90017 0.99088 0.98155 0.0
C432 C 0.92161 1.00924 0.88816 0.0
C433 C 0.89884 0.04556 0.92715 0.0
C434 C 0.91768 1.01308 0.80927 0.0
C435 C 0.93298 0.01418 0.75504 0.0
C436 C 0.95263 1.01145 0.77823 0.0
C437 C 0.9566 1.00725 0.85701 0.0
C438 C 0.94119 1.00603 0.91146 0.0
H439 H 0.89187 0.05785 0.95972 0.0
H440 H 0.91499 0.04786 0.92629 0.0
H441 H 0.89345 0.04612 0.86611 0.0
H442 H 0.90271 0.01533 0.78962 0.0
H443 H 0.9294 0.01742 0.69481 0.0
H444 H 0.53343 0.84248 0.29747 0.0
H445 H 0.53629 0.87091 0.20889 0.0
H446 H 0.47969 0.8571 0.1103 0.0
H447 H 0.47682 0.8288 0.19851 0.0
H448 H 0.53533 0.8735 0.04427 0.0
H449 H 0.47355 0.9151 0.17541 0.0
H450 H 0.48488 0.89423 0.22313 0.0
H451 H 0.46716 0.8905 0.14677 0.0
C452 C 0.52173 0.84543 0.25622 0.0
C453 C 0.50495 0.83336 0.25475 0.0
C454 C 0.52332 0.86171 0.20586 0.0
C455 C 0.50805 0.86642 0.15374 0.0
C456 C 0.49151 0.85407 0.15095 0.0
H457 H 0.50257 0.93582 0.73741 0.0
H458 H 0.50544 0.91088 0.83927 0.0
C459 C 0.48995 0.83777 0.20096 0.0
C460 C 0.50934 0.88415 0.10199 0.0
H461 H 0.48551 0.92692 0.05311 0.0
C462 C 0.52453 0.88525 0.04675 0.0
C463 C 0.49548 0.89973 0.10578 0.0
C464 C 0.47945 0.9 0.16643 0.0
C465 C 0.52571 0.90099 0.99322 0.0
C466 C 0.51123 0.91603 0.99433 0.0
C467 C 0.49655 0.91538 0.05176 0.0
C468 C 0.51025 0.93164 0.93276 0.0
C469 C 0.54239 0.90131 0.9354 0.0
C470 C 0.51168 0.95181 0.95112 0.0
C471 C 0.51009 0.96627 0.89231 0.0
C472 C 0.50675 0.96076 0.81444 0.0
C473 C 0.50526 0.94059 0.79668 0.0
C474 C 0.507 0.92625 0.85493 0.0
H475 H 0.55507 0.89238 0.95608 0.0
H476 H 0.53727 0.89498 0.87939 0.0
H477 H 0.54745 0.91661 0.92424 0.0
H478 H 0.51401 0.95636 0.01088 0.0
H479 H 0.51112 0.98169 0.90788 0.0
H480 H 0.66964 0.50849 0.29511 0.0
H481 H 0.64203 0.50886 0.20317 0.0
H482 H 0.67979 0.53319 0.02583 0.0
H483 H 0.70745 0.53259 0.11688 0.0
H484 H 0.62464 0.53983 0.12512 0.0
H485 H 0.65563 0.4864 0.91376 0.0
H486 H 0.66588 0.48986 0.00978 0.0
H487 H 0.6713 0.50708 0.93296 0.0
C488 C 0.67204 0.51385 0.23636 0.0
C489 C 0.69077 0.52038 0.21355 0.0
C490 C 0.65626 0.51409 0.18391 0.0
C491 C 0.65884 0.52078 0.10709 0.0
C492 C 0.67749 0.52756 0.08422 0.0
H493 H 0.58011 0.53267 0.70792 0.0
H494 H 0.60761 0.5346 0.79995 0.0
C495 C 0.69331 0.52731 0.13671 0.0
C496 C 0.64194 0.52088 0.05157 0.0
H497 H 0.62621 0.50266 0.87658 0.0
C498 C 0.62497 0.53165 0.07089 0.0
C499 C 0.64232 0.5102 0.98072 0.0
C500 C 0.65967 0.49758 0.95819 0.0
C501 C 0.60854 0.53226 0.02098 0.0
C502 C 0.60894 0.52159 0.95021 0.0
C503 C 0.62592 0.51088 0.93072 0.0
C504 C 0.59186 0.52117 0.89576 0.0
C505 C 0.59102 0.54461 0.04369 0.0
C506 C 0.57382 0.51298 0.91887 0.0
C507 C 0.5581 0.51179 0.86623 0.0
C508 C 0.56012 0.51875 0.78939 0.0
C509 C 0.57809 0.52718 0.7667 0.0
C510 C 0.59383 0.52827 0.8192 0.0
H511 H 0.59483 0.55563 0.08905 0.0
H512 H 0.58487 0.55246 0.99227 0.0
H513 H 0.57939 0.53488 0.06759 0.0
H514 H 0.57203 0.50711 0.97719 0.0
H515 H 0.54445 0.50517 0.88537 0.0
H516 H 0.98622 0.67452 0.29581 0.0
H517 H 0.98698 0.64601 0.20836 0.0
H518 H 0.01805 0.68051 0.03695 0.0
H519 H 0.01774 0.70888 0.12518 0.0
H520 H 0.97263 0.63923 0.06334 0.0
H521 H 0.05375 0.63337 0.05716 0.0
H522 H 0.04098 0.64911 0.12499 0.0
H523 H 0.04515 0.65713 0.02626 0.0
C524 C 0.99301 0.67608 0.23905 0.0
C525 C 1.0016 0.6941 0.21693 0.0
C526 C 0.99349 0.65974 0.18914 0.0
C527 C 1.00283 0.66091 0.11626 0.0
C528 C 1.01111 0.67902 0.09341 0.0
H529 H 0.02024 0.58899 0.71312 0.0
H530 H 0.01753 0.61414 0.81362 0.0
C531 C 1.01071 0.69535 0.14351 0.0
C532 C 1.00402 0.64319 0.06464 0.0
H533 H 0.0363 0.61414 0.96374 0.0
C534 C 0.98657 0.63363 0.04222 0.0
C535 C 0.0222 0.63565 0.03753 0.0
C536 C 0.04159 0.64421 0.06333 0.0
C537 C 0.98679 0.61737 0.99111 0.0
C538 C 1.00493 0.61032 0.96202 0.0
C539 C 0.02238 0.61955 0.98589 0.0
C540 C 1.00612 0.59449 0.90186 0.0
C541 C 0.96758 0.60829 0.96621 0.0
C542 C 1.0007 0.57485 0.91782 0.0
C543 C 1.00235 0.56024 0.85993 0.0
C544 C 1.00935 0.56508 0.78519 0.0
C545 C 0.01473 0.58472 0.76991 0.0
C546 C 0.01322 0.59918 0.82744 0.0
H547 H 0.95473 0.61725 0.98467 0.0
H548 H 0.96715 0.60655 0.90187 0.0
H549 H 0.96622 0.59342 0.99262 0.0
H550 H 0.99543 0.5708 0.97519 0.0
H551 H 0.99824 0.54523 0.87364 0.0
H552 H 0.99696 0.23008 0.30458 0.0
H553 H 1.00855 0.21145 0.41604 0.0
H554 H 0.0614 0.24658 0.42276 0.0
H555 H 0.04992 0.26491 0.30805 0.0
H556 H 0.07127 0.21111 0.40412 0.0
H557 H 0.01839 0.20748 0.64086 0.0
H558 H 1.00373 0.20565 0.55473 0.0
H559 H 0.01798 0.22771 0.57209 0.0
C560 C 1.01072 0.2343 0.33163 0.0
C561 C 0.02273 0.2486 0.29705 0.0
C562 C 0.01726 0.22384 0.39648 0.0
C563 C 0.03589 0.22759 0.42865 0.0
C564 C 0.04696 0.24344 0.39928 0.0
H565 H 0.04287 0.10939 0.60454 0.0
H566 H 0.05187 0.14396 0.62296 0.0
C567 C 0.0404 0.25391 0.33383 0.0
C568 C 0.04526 0.21192 0.47644 0.0
H569 H 0.02936 0.17369 0.58814 0.0
C570 C 0.06255 0.20333 0.44716 0.0
C571 C 0.03472 0.20192 0.53547 0.0
C572 C 0.01782 0.21141 0.578 0.0
C573 C 0.06724 0.18368 0.46397 0.0
C574 C 0.05406 0.1724 0.50926 0.0
C575 C 0.03903 0.18206 0.55034 0.0
C576 C 0.05266 0.15076 0.4997 0.0
C577 C 0.08529 0.17474 0.42728 0.0
C578 C 0.05033 0.14301 0.4243 0.0
C579 C 0.04527 0.12333 0.41359 0.0
C580 C 0.04222 0.11099 0.47809 0.0
C581 C 0.04537 0.1185 0.55358 0.0
C582 C 0.05046 0.13825 0.5643 0.0
H583 H 0.09758 0.18549 0.42756 0.0
H584 H 0.09004 0.16114 0.45818 0.0
H585 H 0.08213 0.1711 0.36548 0.0
H586 H 0.05131 0.15245 0.37348 0.0
H587 H 0.04304 0.11794 0.35485 0.0
H588 H 0.28373 0.95191 0.18481 0.0
H589 H 0.30224 0.93559 0.28655 0.0
H590 H 0.27004 0.9681 0.46107 0.0
H591 H 0.25238 0.98563 0.35789 0.0
H592 H 0.30505 0.97771 0.47073 0.0
H593 H 0.30877 0.89765 0.45511 0.0
H594 H 0.31111 0.90589 0.35658 0.0
H595 H 0.28876 0.91102 0.41005 0.0
C596 C 0.2801 0.95508 0.24499 0.0
C597 C 0.26718 0.97052 0.26344 0.0
C598 C 0.29048 0.94542 0.30369 0.0
C599 C 0.28777 0.95065 0.38217 0.0
C600 C 0.27255 0.96389 0.40101 0.0
H601 H 0.40018 0.9616 0.62499 0.0
H602 H 0.36564 0.95145 0.62462 0.0
C603 C 0.2624 0.97389 0.34194 0.0
C604 C 0.30414 0.94704 0.43794 0.0
H605 H 0.34204 0.91477 0.46584 0.0
C606 C 0.31269 0.96369 0.47274 0.0
C607 C 0.31421 0.92879 0.44193 0.0
C608 C 0.305 0.90985 0.41447 0.0
C609 C 0.332 0.96326 0.50081 0.0
C610 C 0.34297 0.94562 0.49469 0.0
C611 C 0.3337 0.92837 0.46894 0.0
C612 C 0.36463 0.94609 0.50048 0.0
C613 C 0.34115 0.98223 0.52897 0.0
C614 C 0.37571 0.9453 0.43155 0.0
C615 C 0.39539 0.95108 0.43152 0.0
C616 C 0.40422 0.9578 0.50046 0.0
C617 C 0.39358 0.95684 0.57072 0.0
C618 C 0.37393 0.95094 0.57077 0.0
H619 H 0.331 0.995 0.52359 0.0
H620 H 0.34533 0.98069 0.59122 0.0
H621 H 0.35469 0.98551 0.49526 0.0
H622 H 0.36873 0.94168 0.37663 0.0
H623 H 0.40322 0.95168 0.3766 0.0
H624 H 0.56522 0.28772 0.17738 0.0
H625 H 0.57945 0.30597 0.28447 0.0
H626 H 0.54421 0.27285 0.44777 0.0
H627 H 0.52897 0.25529 0.33911 0.0
H628 H 0.53444 0.3084 0.45531 0.0
H629 H 0.61453 0.3106 0.46431 0.0
H630 H 0.60801 0.31339 0.36394 0.0
H631 H 0.60172 0.29092 0.41505 0.0
C632 C 0.56102 0.28383 0.23636 0.0
C633 C 0.54556 0.27058 0.24987 0.0
C634 C 0.56945 0.29407 0.29811 0.0
C635 C 0.56289 0.29095 0.3748 0.0
C636 C 0.54948 0.2756 0.38917 0.0
H637 H 0.54888 0.40301 0.62011 0.0
H638 H 0.55708 0.36783 0.62106 0.0
C639 C 0.54079 0.26553 0.32701 0.0
C640 C 0.56558 0.307 0.43259 0.0
H641 H 0.59778 0.34399 0.4744 0.0
C642 C 0.54846 0.31575 0.46255 0.0
C643 C 0.58382 0.31662 0.44321 0.0
C644 C 0.60302 0.30717 0.42045 0.0
C645 C 0.54864 0.33493 0.49229 0.0
C646 C 0.56652 0.34553 0.49313 0.0
C647 C 0.58403 0.33595 0.47228 0.0
C648 C 0.56644 0.36723 0.50061 0.0
C649 C 0.52932 0.3444 0.51456 0.0
C650 C 0.57009 0.37869 0.43397 0.0
C651 C 0.56552 0.39875 0.43332 0.0
C652 C 0.55713 0.40759 0.49928 0.0
C653 C 0.55497 0.39642 0.56796 0.0
C654 C 0.55973 0.37639 0.56876 0.0
H655 H 0.51654 0.3347 0.50263 0.0
H656 H 0.52939 0.34782 0.57776 0.0
H657 H 0.52721 0.35842 0.48211 0.0
H658 H 0.57521 0.37186 0.38066 0.0
H659 H 0.56733 0.407 0.37968 0.0
H660 H 0.2284 0.57715 0.12098 0.0
H661 H 0.20729 0.59691 0.20239 0.0
H662 H 0.23493 0.57262 0.40814 0.0
H663 H 0.2545 0.55095 0.32623 0.0
H664 H 0.20074 0.56365 0.4172 0.0
H665 H 0.19544 0.64092 0.33532 0.0
H666 H 0.19483 0.6282 0.24437 0.0
H667 H 0.21641 0.6264 0.3059 0.0
C668 C 0.23031 0.57628 0.1836 0.0
C669 C 0.2424 0.56172 0.21698 0.0
C670 C 0.21847 0.58806 0.23063 0.0
C671 C 0.21913 0.58618 0.31222 0.0
C672 C 0.2338 0.57414 0.34541 0.0
H673 H 0.10199 0.5943 0.5298 0.0
H674 H 0.13617 0.60521 0.51822 0.0
C675 C 0.24515 0.56178 0.29825 0.0
C676 C 0.20152 0.59191 0.35863 0.0
H677 H 0.16222 0.62322 0.34793 0.0
C678 C 0.19281 0.57717 0.40492 0.0
C679 C 0.1909 0.60957 0.34455 0.0
C680 C 0.20011 0.62718 0.30548 0.0
C681 C 0.17314 0.57844 0.42774 0.0
C682 C 0.16178 0.59467 0.40273 0.0
C683 C 0.17092 0.61052 0.36504 0.0
C684 C 0.14019 0.59317 0.40286 0.0
C685 C 0.16402 0.56144 0.47154 0.0
C686 C 0.13109 0.5834 0.3407 0.0
C687 C 0.11182 0.57669 0.34771 0.0
C688 C 0.10125 0.57976 0.41703 0.0
C689 C 0.10987 0.59124 0.47636 0.0
C690 C 0.12929 0.59775 0.46957 0.0
H691 H 0.17526 0.55104 0.49448 0.0
H692 H 0.15511 0.56699 0.52105 0.0
H693 H 0.15405 0.55322 0.43205 0.0
H694 H 0.13943 0.57958 0.28908 0.0
H695 H 0.10584 0.5678 0.30108 0.0
H696 H 0.04255 0.77252 0.09472 0.0
H697 H 0.06336 0.79783 0.03825 0.0
H698 H 0.09773 0.79958 0.24956 0.0
H699 H 0.07646 0.77449 0.30694 0.0
H700 H 0.07623 0.83151 0.23209 0.0
H701 H 0.11398 0.81912 0.9533 0.0
H702 H 0.09 0.80831 0.94961 0.0
H703 H 0.10784 0.79909 0.01854 0.0
C704 C 0.05532 0.77734 0.12719 0.0
C705 C 0.05772 0.7719 0.20554 0.0
C706 C 0.06733 0.79186 0.09471 0.0
C707 C 0.082 0.80086 0.14002 0.0
C708 C 0.08647 0.79292 0.21363 0.0
H709 H 0.08341 0.93001 0.08918 0.0
H710 H 0.0978 0.89819 0.12729 0.0
C711 C 0.07433 0.77854 0.24638 0.0
C712 C 0.08756 0.82148 0.12175 0.0
H713 H 0.09784 0.85166 0.96797 0.0
C714 C 0.08168 0.83597 0.17531 0.0
C715 C 0.09453 0.82731 0.04772 0.0
C716 C 0.10212 0.81257 0.98947 0.0
C717 C 0.08045 0.85586 0.15402 0.0
C718 C 0.08587 0.86152 0.07754 0.0
C719 C 0.09356 0.84729 0.02641 0.0
C720 C 0.08043 0.88113 0.04605 0.0
C721 C 0.07152 0.87021 0.21126 0.0
C722 C 0.06671 0.88219 0.98507 0.0
C723 C 0.05875 0.90026 0.96262 0.0
C724 C 0.06426 0.91765 1.00106 0.0
C725 C 0.07871 0.91675 0.05955 0.0
C726 C 0.08692 0.89863 0.08124 0.0
H727 H 0.06507 0.86269 0.26283 0.0
H728 H 0.08306 0.88041 0.23246 0.0
H729 H 0.05981 0.8791 0.18289 0.0
H730 H 0.06141 0.86889 0.9573 0.0
H731 H 0.04757 0.9005 0.91761 0.0
H732 H 0.75573 0.04884 0.05989 0.0
H733 H 0.73686 0.07128 0.97762 0.0
H734 H 0.70853 0.09481 0.18268 0.0
H735 H 0.72881 0.07417 0.26439 0.0
H736 H 0.70258 0.06303 0.96463 0.0
H737 H 0.69793 0.13974 0.0523 0.0
H738 H 0.71862 0.12481 0.08204 0.0
H739 H 0.69686 0.1266 0.14247 0.0
C740 C 0.74636 0.05966 0.0876 0.0
C741 C 0.74316 0.0592 0.16852 0.0
C742 C 0.73543 0.07246 0.04033 0.0
C743 C 0.72079 0.08457 0.07312 0.0
C744 C 0.71972 0.08597 0.15477 0.0
H745 H 0.60806 0.06798 0.08775 0.0
H746 H 0.64169 0.0798 0.09744 0.0
C747 C 0.73109 0.07372 0.20192 0.0
C748 C 0.70349 0.09085 0.02577 0.0
H749 H 0.66443 0.12236 0.03863 0.0
C750 C 0.69474 0.07652 0.9779 0.0
C751 C 0.69301 0.10851 0.04097 0.0
C752 C 0.70233 0.1258 0.08161 0.0
C753 C 0.67507 0.07806 0.95504 0.0
C754 C 0.6638 0.09417 0.98145 0.0
C755 C 0.67304 0.10973 0.02042 0.0
C756 C 0.6422 0.0927 0.98213 0.0
C757 C 0.66584 0.06138 0.90992 0.0
C758 C 0.63115 0.09688 0.91524 0.0
C759 C 0.61172 0.09033 0.90975 0.0
C760 C 0.60323 0.07922 0.97061 0.0
C761 C 0.61395 0.07657 0.03996 0.0
C762 C 0.63324 0.08331 0.04565 0.0
H763 H 0.67696 0.0508 0.88767 0.0
H764 H 0.65545 0.05327 0.94815 0.0
H765 H 0.65735 0.06729 0.85976 0.0
H766 H 0.63792 0.10403 0.86557 0.0
H767 H 0.60372 0.09306 0.85621 0.0
H768 H 0.54584 0.76975 0.09036 0.0
H769 H 0.55514 0.75189 0.972 0.0
H770 H 0.49935 0.72166 0.97648 0.0
H771 H 0.49003 0.73974 0.09238 0.0
H772 H 0.56103 0.71515 0.99372 0.0
H773 H 0.50955 0.71781 0.75047 0.0
H774 H 0.51111 0.73783 0.81962 0.0
H775 H 0.49459 0.71738 0.83608 0.0
C776 C 0.53521 0.76006 0.06331 0.0
C777 C 0.51738 0.75577 0.1008 0.0
C778 C 0.54052 0.74986 0.99568 0.0
C779 C 0.52802 0.73535 0.96498 0.0
C780 C 0.50919 0.733 0.99739 0.0
H781 H 0.51963 0.62572 0.02638 0.0
H782 H 0.52907 0.66023 0.0122 0.0
C783 C 0.50391 0.74316 0.0646 0.0
C784 C 0.53604 0.71901 0.91723 0.0
H785 H 0.5174 0.683 0.80085 0.0
C786 C 0.55204 0.70853 0.94863 0.0
C787 C 0.52495 0.71037 0.85651 0.0
C788 C 0.50925 0.72166 0.81338 0.0
C789 C 0.55476 0.68855 0.93174 0.0
C790 C 0.5411 0.679 0.88292 0.0
C791 C 0.52746 0.69025 0.84057 0.0
C792 C 0.53756 0.65766 0.89094 0.0
C793 C 0.57085 0.67733 0.97293 0.0
C794 C 0.53914 0.64487 0.82728 0.0
C795 C 0.53386 0.62507 0.83558 0.0
C796 C 0.52645 0.61799 0.90699 0.0
C797 C 0.52516 0.63082 0.97067 0.0
C798 C 0.53071 0.65046 0.96274 0.0
H799 H 0.58373 0.68696 0.98413 0.0
H800 H 0.56531 0.67205 0.03012 0.0
H801 H 0.57566 0.66437 0.93838 0.0
H802 H 0.54416 0.65026 0.77125 0.0
H803 H 0.53496 0.61544 0.78554 0.0
H804 H 0.75464 0.50064 0.0158 0.0
H805 H 0.77125 0.48549 0.90489 0.0
H806 H 0.79715 0.4424 0.05986 0.0
H807 H 0.7793 0.4563 0.16811 0.0
H808 H 0.80663 0.4905 0.89885 0.0
H809 H 0.8014 0.41096 0.87334 0.0
H810 H 0.78263 0.42468 0.92428 0.0
H811 H 0.80376 0.41489 0.97579 0.0
C812 C 0.76298 0.48724 0.02521 0.0
C813 C 0.76624 0.48003 0.101 0.0
C814 C 0.77258 0.47861 0.96169 0.0
C815 C 0.78581 0.46291 0.97339 0.0
C816 C 0.78691 0.45422 0.04776 0.0
H817 H 0.8988 0.45374 0.00873 0.0
H818 H 0.8634 0.44866 0.99501 0.0
C819 C 0.77696 0.4625 0.11056 0.0
C820 C 0.80213 0.45932 0.91736 0.0
H821 H 0.83687 0.42419 0.88154 0.0
C822 C 0.81276 0.47586 0.89163 0.0
C823 C 0.81023 0.44032 0.90559 0.0
C824 C 0.79867 0.42179 0.92061 0.0
C825 C 0.83226 0.47413 0.86665 0.0
C826 C 0.84133 0.45541 0.86789 0.0
C827 C 0.82998 0.4386 0.8829 0.0
C828 C 0.86294 0.45387 0.87053 0.0
C829 C 0.84369 0.49257 0.84755 0.0
C830 C 0.87439 0.4579 0.8046 0.0
C831 C 0.8946 0.46098 0.81241 0.0
C832 C 0.90358 0.46007 0.88638 0.0
C833 C 0.89223 0.45476 0.95133 0.0
C834 C 0.87207 0.45164 0.94338 0.0
H835 H 0.83446 0.50606 0.85047 0.0
H836 H 0.85617 0.49422 0.88877 0.0
H837 H 0.84987 0.49143 0.78787 0.0
H838 H 0.86753 0.45974 0.74809 0.0
H839 H 0.90295 0.46521 0.76134 0.0
H840 H 0.98321 0.21897 0.07656 0.0
H841 H 0.9832 0.18757 0.00643 0.0
H842 H 0.03672 0.2042 0.88947 0.0
H843 H 0.03672 0.23578 0.95997 0.0
H844 H 0.98466 0.17624 0.8449 0.0
H845 H 0.05104 0.15285 0.0105 0.0
H846 H 0.03643 0.17391 0.03841 0.0
H847 H 0.05298 0.17562 0.95723 0.0
C848 C 0.99464 0.21618 0.03404 0.0
C849 C 1.00986 0.22993 0.02323 0.0
C850 C 0.99469 0.19816 0.9943 0.0
C851 C 1.01013 0.19329 0.94354 0.0
C852 C 0.02477 0.20747 0.92907 0.0
H853 H 1.01271 0.08416 0.66575 0.0
H854 H 0.01339 0.1186 0.70688 0.0
C855 C 0.02463 0.22564 0.96851 0.0
C856 C 1.01139 0.17292 0.91057 0.0
H857 H 0.03777 0.12998 0.92206 0.0
C858 C 0.99637 0.16618 0.86117 0.0
C859 C 0.02649 0.15963 0.93278 0.0
C860 C 0.04261 0.16571 0.9881 0.0
C861 C 0.99601 0.14661 0.8336 0.0
C862 C 1.01116 0.13333 0.85556 0.0
C863 C 0.02621 0.14011 0.90481 0.0
C864 C 1.0113 0.11222 0.83021 0.0
C865 C 0.97905 0.14014 0.78315 0.0
C866 C 1.01049 0.09694 0.88569 0.0
C867 C 1.01017 0.07711 0.86237 0.0
C868 C 1.0108 0.07202 0.78286 0.0
C869 C 1.01204 0.08738 0.7275 0.0
C870 C 1.01232 0.10719 0.7509 0.0
H871 H 0.96644 0.15051 0.78681 0.0
H872 H 0.98393 0.13956 0.72149 0.0
H873 H 0.97395 0.1252 0.80015 0.0
H874 H 1.00979 0.10038 0.94726 0.0
H875 H 1.00927 0.06579 0.90679 0.0
H876 H 0.28347 1.00025 0.9496 0.0
H877 H 0.31598 1.00421 0.88859 0.0
H878 H 0.33681 0.03403 0.09425 0.0
H879 H 0.30452 0.02984 0.15528 0.0
H880 H 0.34193 0.03654 0.85623 0.0
H881 H 0.37312 0.98583 0.07847 0.0
H882 H 0.34701 0.98879 0.0642 0.0
H883 H 0.36064 1.00683 0.11837 0.0
C884 C 0.29482 1.00826 0.98044 0.0
C885 C 0.29143 0.015 0.05666 0.0
C886 C 0.31345 1.01036 0.94594 0.0
C887 C 0.32902 0.01906 0.98742 0.0
C888 C 0.32519 0.02695 0.06155 0.0
H889 H 0.45592 0.02891 0.91865 0.0
H890 H 0.42212 0.0305 0.96743 0.0
C891 C 0.30666 0.02481 0.09599 0.0
C892 C 0.34949 0.01877 0.95582 0.0
H893 H 0.39573 1.00118 0.99325 0.0
C894 C 0.35369 0.02877 0.88603 0.0
C895 C 0.36489 1.00858 0.99451 0.0
C896 C 0.36123 0.99674 0.06764 0.0
C897 C 0.37288 0.02925 0.85498 0.0
C898 C 0.3883 0.0191 0.89386 0.0
C899 C 0.38404 1.00905 0.9635 0.0
C900 C 0.40888 0.01849 0.86311 0.0
C901 C 0.37653 0.04104 0.78177 0.0
C902 C 0.41289 1.01092 0.78863 0.0
C903 C 0.43221 1.01004 0.76052 0.0
C904 C 0.44813 0.01653 0.80633 0.0
C905 C 0.44411 0.02382 0.88146 0.0
C906 C 0.42474 0.02476 0.90948 0.0
H907 H 0.36496 0.05238 0.77246 0.0
H908 H 0.39104 0.04846 0.78381 0.0
H909 H 0.37636 0.031 0.73082 0.0
H910 H 0.40108 1.00541 0.75239 0.0
H911 H 0.43465 1.00401 0.70302 0.0
H912 H 0.49022 0.30824 0.12823 0.0
H913 H 0.48618 0.34021 0.06382 0.0
H914 H 0.51523 0.31759 0.85934 0.0
H915 H 0.51898 0.28537 0.9238 0.0
H916 H 0.51707 0.36302 0.02056 0.0
H917 H 0.47041 0.34881 0.76144 0.0
H918 H 0.47232 0.33159 0.8415 0.0
H919 H 0.49149 0.33298 0.76971 0.0
C920 C 0.49506 0.30988 0.06841 0.0
C921 C 0.50458 0.2942 0.0305 0.0
C922 C 0.49292 0.32823 0.03182 0.0
C923 C 0.50029 0.33144 0.95634 0.0
C924 C 0.50903 0.31549 0.91686 0.0
H925 H 0.51648 0.4395 0.68165 0.0
H926 H 0.51565 0.4054 0.72833 0.0
C927 C 0.51112 0.29702 0.95357 0.0
C928 C 0.50054 0.35189 0.92314 0.0
H929 H 0.4853 0.38039 0.76939 0.0
C930 C 0.51001 0.36679 0.9658 0.0
C931 C 0.49157 0.35691 0.85119 0.0
C932 C 0.48072 0.3418 0.80346 0.0
C933 C 0.51084 0.38638 0.93875 0.0
C934 C 0.50157 0.3915 0.86752 0.0
C935 C 0.49232 0.37657 0.82415 0.0
C936 C 0.50132 0.41227 0.83753 0.0
C937 C 0.52209 0.4013 0.98613 0.0
C938 C 0.49324 0.42761 0.88229 0.0
C939 C 0.49372 0.44718 0.85561 0.0
C940 C 0.5021 0.45192 0.78294 0.0
C941 C 0.50977 0.43646 0.73745 0.0
C942 C 0.50934 0.41689 0.76425 0.0
H943 H 0.53289 0.39411 0.02561 0.0
H944 H 0.53003 0.41183 0.9479 0.0
H945 H 0.51164 0.40976 0.02278 0.0
H946 H 0.48655 0.42447 0.9382 0.0
H947 H 0.48752 0.45859 0.89215 0.0
H948 H 0.21297 0.48956 0.11252 0.0
H949 H 0.18117 0.48379 0.04846 0.0
H950 H 0.19639 0.52574 0.8695 0.0
H951 H 0.22802 0.53165 0.93401 0.0
H952 H 0.15435 0.51727 0.02629 0.0
H953 H 0.17057 0.47868 0.74836 0.0
H954 H 0.18691 0.4777 0.83143 0.0
H955 H 0.18599 0.49937 0.7714 0.0
C956 C 0.20984 0.49685 0.05765 0.0
C957 C 0.22312 0.51069 0.02711 0.0
C958 C 0.1916 0.49373 0.02154 0.0
C959 C 0.18641 0.50422 0.9538 0.0
C960 C 0.20016 0.51721 0.92083 0.0
H961 H 0.08077 0.52256 0.67666 0.0
H962 H 0.11422 0.52088 0.72856 0.0
C963 C 0.21829 0.5205 0.9574 0.0
C964 C 0.16591 0.50353 0.9232 0.0
H965 H 0.13832 0.49134 0.76384 0.0
C966 C 0.15078 0.51142 0.96921 0.0
C967 C 0.16134 0.49621 0.84827 0.0
C968 C 0.17699 0.48736 0.7969 0.0
C969 C 0.13132 0.51261 0.94181 0.0
C970 C 0.12661 0.50508 0.867 0.0
C971 C 0.14179 0.49707 0.82117 0.0
C972 C 0.10615 0.50569 0.8349 0.0
C973 C 0.11619 0.52268 0.99233 0.0
C974 C 0.09035 0.49746 0.87641 0.0
C975 C 0.07112 0.49866 0.84736 0.0
C976 C 0.06722 0.50776 0.77513 0.0
C977 C 0.08314 0.51547 0.73251 0.0
C978 C 0.10234 0.51449 0.76212 0.0
H979 H 0.12316 0.5328 0.03497 0.0
H980 H 0.10556 0.53125 0.95666 0.0
H981 H 0.10797 0.51139 0.02585 0.0
H982 H 0.09286 0.49003 0.93145 0.0
H983 H 0.05931 0.4923 0.88138 0.0
H984 H 0.98576 0.80277 0.2964 0.0
H985 H 0.98117 0.8354 0.35552 0.0
H986 H 0.02063 0.81919 0.54177 0.0
H987 H 0.02561 0.78686 0.48151 0.0
H988 H 0.96959 0.85156 0.49613 0.0
H989 H 0.04871 0.86587 0.44572 0.0
H990 H 0.03634 0.84467 0.40607 0.0
H991 H 0.04445 0.84466 0.50597 0.0
C992 C 0.99282 0.80593 0.35158 0.0
C993 C 1.00583 0.79218 0.38496 0.0
C994 C 0.99038 0.82468 0.38495 0.0
C995 C 1.00097 0.83003 0.4521 0.0
C996 C 1.01267 0.81567 0.48895 0.0
H997 H 0.01721 0.93839 0.71665 0.0
H998 H 0.01564 0.90428 0.67097 0.0
C999 C 0.01524 0.79704 0.4553 0.0
C1000 C 1.00096 0.8509 0.48032 0.0
H1001 H 0.03135 0.88989 0.51885 0.0
C1002 C 0.98309 0.85993 0.50086 0.0
C1003 C 0.01854 0.86205 0.48563 0.0
C1004 C 0.03807 0.85392 0.45893 0.0
C1005 C 0.98242 0.87951 0.52836 0.0
C1006 C 1.00004 0.89042 0.53532 0.0
C1007 C 0.01786 0.88147 0.51427 0.0
C1008 C 1.00035 0.9112 0.56382 0.0
C1009 C 0.96291 0.88834 0.55106 0.0
C1010 C 0.99243 0.92655 0.51854 0.0
C1011 C 0.99346 0.94616 0.54412 0.0
C1012 C 1.00234 0.95089 0.61593 0.0
C1013 C 1.01016 0.93541 0.6613 0.0
C1014 C 1.00931 0.91584 0.63523 0.0
H1015 H 0.95117 0.87703 0.55526 0.0
H1016 H 0.96413 0.89606 0.60789 0.0
H1017 H 0.95846 0.89938 0.50657 0.0
H1018 H 0.98567 0.92339 0.46277 0.0
H1019 H 0.98727 0.95762 0.5075 0.0
H1020 H 0.70547 0.99796 0.25005 0.0
H1021 H 0.67434 0.99357 0.31949 0.0
H1022 H 0.70217 1.01171 0.53348 0.0
H1023 H 0.73332 0.01647 0.46322 0.0
H1024 H 0.66053 0.97244 0.44538 0.0
H1025 H 0.65895 0.05263 0.50901 0.0
H1026 H 0.67658 0.04181 0.44328 0.0
H1027 H 0.68003 0.03987 0.54696 0.0
C1028 C 0.70509 1.00032 0.31248 0.0
C1029 C 0.72187 1.00725 0.35154 0.0
C1030 C 0.68724 0.99798 0.35207 0.0
C1031 C 0.6857 1.00272 0.43152 0.0
C1032 C 0.70283 1.00835 0.47187 0.0
H1033 H 0.5815 0.01615 0.72795 0.0
H1034 H 0.61507 1.01352 0.6784 0.0
C1035 C 0.72073 1.01073 0.4321 0.0
C1036 C 0.66594 1.00304 0.46985 0.0
H1037 H 0.63254 0.03374 0.55672 0.0
C1038 C 0.65446 0.98584 0.46999 0.0
C1039 C 0.65785 0.02054 0.50164 0.0
C1040 C 0.66887 0.03982 0.49978 0.0
C1041 C 0.6353 0.98561 0.50126 0.0
C1042 C 0.62716 1.00316 0.53225 0.0
C1043 C 0.63873 0.02028 0.53314 0.0
C1044 C 0.60658 1.00422 0.56269 0.0
C1045 C 0.62403 0.9665 0.50161 0.0
C1046 C 0.59045 1.00011 0.51411 0.0
C1047 C 0.57114 1.00164 0.54224 0.0
C1048 C 0.56744 1.00741 0.61972 0.0
C1049 C 0.58365 1.01161 0.6681 0.0
C1050 C 0.60294 1.01012 0.63982 0.0
H1051 H 0.63398 0.95357 0.49658 0.0
H1052 H 0.61519 0.96495 0.55567 0.0
H1053 H 0.61384 0.96629 0.45108 0.0
H1054 H 0.59278 0.99597 0.45389 0.0
H1055 H 0.55912 0.99839 0.50296 0.0
H1056 H 0.4829 0.72056 0.31386 0.0
H1057 H 0.48325 0.68901 0.38282 0.0
H1058 H 0.5346 0.70719 0.51091 0.0
H1059 H 0.53436 0.73894 0.44108 0.0
H1060 H 0.53908 0.67036 0.44078 0.0
H1061 H 0.46913 0.6725 0.60461 0.0
H1062 H 0.46608 0.6784 0.50326 0.0
H1063 H 0.48039 0.69437 0.56458 0.0
C1064 C 0.49399 0.71805 0.35818 0.0
C1065 C 0.50852 0.73236 0.37233 0.0
C1066 C 0.49415 0.69997 0.39778 0.0
C1067 C 0.50886 0.69563 0.45274 0.0
C1068 C 0.52303 0.71016 0.4691 0.0
H1069 H 0.50771 0.58587 0.72693 0.0
H1070 H 0.50798 0.62043 0.68592 0.0
C1071 C 0.52278 0.7284 0.42975 0.0
C1072 C 0.5102 0.67542 0.48784 0.0
H1073 H 0.48374 0.64068 0.58754 0.0
C1074 C 0.52705 0.66396 0.47355 0.0
C1075 C 0.49464 0.66699 0.53139 0.0
C1076 C 0.47661 0.67875 0.55263 0.0
C1077 C 0.52845 0.64422 0.49902 0.0
C1078 C 0.51245 0.63546 0.53902 0.0
C1079 C 0.49592 0.64717 0.5559 0.0
C1080 C 0.51256 0.61424 0.5637 0.0
C1081 C 0.54715 0.63297 0.48325 0.0
C1082 C 0.51471 0.59903 0.5087 0.0
C1083 C 0.51445 0.57915 0.53192 0.0
C1084 C 0.51203 0.57394 0.61084 0.0
C1085 C 0.5098 0.58922 0.66574 0.0
C1086 C 0.50992 0.60906 0.64236 0.0
H1087 H 0.55974 0.64305 0.47291 0.0
H1088 H 0.55087 0.62302 0.53261 0.0
H1089 H 0.54519 0.62386 0.4302 0.0
H1090 H 0.5163 0.60251 0.4474 0.0
H1091 H 0.51605 0.56786 0.48785 0.0
H1092 H 0.78944 0.54209 0.35154 0.0
H1093 H 0.82061 0.54593 0.42216 0.0
H1094 H 0.82891 0.48292 0.41917 0.0
H1095 H 0.79747 0.47899 0.35333 0.0
H1096 H 0.84195 0.49641 0.55007 0.0
H1097 H 0.87244 0.54332 0.31438 0.0
H1098 H 0.85125 0.55375 0.36083 0.0
H1099 H 0.84896 0.53129 0.3059 0.0
C1100 C 0.79768 0.52905 0.3678 0.0
C1101 C 0.79107 0.51025 0.34548 0.0
C1102 C 0.81571 0.53127 0.407 0.0
C1103 C 0.82759 0.51476 0.42374 0.0
C1104 C 0.82029 0.49595 0.40623 0.0
H1105 H 0.95465 0.5108 0.47342 0.0
H1106 H 0.92042 0.51101 0.42905 0.0
C1107 C 0.80227 0.49372 0.36812 0.0
C1108 C 0.84789 0.51676 0.45663 0.0
H1109 H 0.89298 0.53734 0.42264 0.0
C1110 C 0.85308 0.50542 0.52225 0.0
C1111 C 0.86264 0.5282 0.41974 0.0
C1112 C 0.85866 0.53968 0.3459 0.0
C1113 C 0.87245 0.50496 0.55118 0.0
C1114 C 0.88709 0.5168 0.51551 0.0
C1115 C 0.88185 0.52834 0.45051 0.0
C1116 C 0.90801 0.517 0.54287 0.0
C1117 C 0.87709 0.49104 0.61751 0.0
C1118 C 0.91267 0.52063 0.62137 0.0
C1119 C 0.93222 0.52013 0.64705 0.0
C1120 C 0.9477 0.51655 0.59452 0.0
C1121 C 0.94312 0.51363 0.51544 0.0
C1122 C 0.92351 0.51375 0.49003 0.0
H1123 H 0.86629 0.47881 0.62066 0.0
H1124 H 0.89201 0.48457 0.61152 0.0
H1125 H 0.87636 0.49917 0.67347 0.0
H1126 H 0.9012 0.52387 0.66308 0.0
H1127 H 0.93519 0.52271 0.70823 0.0
loop_
_geom_bond_atom_site_label_1
_geom_bond_atom_site_label_2
_geom_bond_distance
_geom_bond_site_symmetry_2
_ccdc_geom_bond_type
H0 C7 0.929 . S
H1 C10 0.930 . S
H2 C12 0.929 . S
H3 C4 0.969 . S
C4 H3 0.969 . S
C4 O5 1.550 . S
C4 H6 0.973 . S
O5 C4 1.550 . S
O5 C11 1.412 . S
H6 C4 0.973 . S
C7 H0 0.929 . S
C7 C8 1.400 . S
C7 C9 1.364 . S
C8 C7 1.400 . S
C8 C12 1.377 . S
C9 C7 1.364 . S
C9 C10 1.374 . S
C10 H1 0.930 . S
C10 C9 1.374 . S
C10 C11 1.383 . S
C11 O5 1.412 . S
C11 C10 1.383 . S
C11 C12 1.394 . S
C12 H2 0.929 . S
C12 C8 1.377 . S
C12 C11 1.394 . S
H13 C20 0.928 . S
H14 C23 0.933 . S
H15 C25 0.928 . S
H16 C17 0.969 . S
C17 H16 0.969 . S
C17 O18 1.550 1_455 S
C17 H19 0.973 1_455 S
O18 C17 1.550 1_655 S
O18 C24 1.410 . S
H19 C17 0.973 1_655 S
C20 H13 0.928 . S
C20 C21 1.400 . S
C20 C22 1.364 . S
C21 C20 1.400 . S
C21 C25 1.377 . S
C22 C20 1.364 . S
C22 C23 1.374 . S
C23 H14 0.933 . S
C23 C22 1.374 . S
C23 C24 1.382 . S
C24 O18 1.410 . S
C24 C23 1.382 . S
C24 C25 1.394 . S
C25 H15 0.928 . S
C25 C21 1.377 . S
C25 C24 1.394 . S
H26 C33 0.928 . S
H27 C36 0.935 . S
H28 C38 0.931 . S
H29 C30 0.969 . S
C30 H29 0.969 . S
C30 O31 1.550 1_545 S
C30 H32 0.973 1_545 S
O31 C30 1.550 1_565 S
O31 C37 1.416 . S
H32 C30 0.973 1_565 S
C33 H26 0.928 . S
C33 C34 1.400 . S
C33 C35 1.364 . S
C34 C33 1.400 . S
C34 C38 1.377 . S
C35 C33 1.364 . S
C35 C36 1.374 . S
C36 H27 0.935 . S
C36 C35 1.374 . S
C36 C37 1.382 . S
C37 O31 1.416 . S
C37 C36 1.382 . S
C37 C38 1.394 . S
C38 H28 0.931 . S
C38 C34 1.377 . S
C38 C37 1.394 . S
H39 C46 0.929 . S
H40 C49 0.930 . S
H41 C51 0.929 . S
H42 C43 0.969 . S
C43 H42 0.969 . S
C43 O44 1.550 . S
C43 H45 0.973 . S
O44 C43 1.550 . S
O44 C50 1.412 . S
H45 C43 0.973 . S
C46 H39 0.929 . S
C46 C47 1.400 . S
C46 C48 1.364 . S
C47 C46 1.400 . S
C47 C51 1.377 . S
C48 C46 1.364 . S
C48 C49 1.374 . S
C49 H40 0.930 . S
C49 C48 1.374 . S
C49 C50 1.383 . S
C50 O44 1.412 . S
C50 C49 1.383 . S
C50 C51 1.394 . S
C51 H41 0.929 . S
C51 C47 1.377 . S
C51 C50 1.394 . S
H52 C59 0.929 . S
H53 C62 0.930 . S
H54 C64 0.929 . S
H55 C56 0.969 . S
C56 H55 0.969 . S
C56 O57 1.550 . S
C56 H58 0.973 . S
O57 C56 1.550 . S
O57 C63 1.412 . S
H58 C56 0.973 . S
C59 H52 0.929 . S
C59 C60 1.400 1_554 S
C59 C61 1.364 . S
C60 C59 1.400 1_556 S
C60 C64 1.377 . S
C61 C59 1.364 . S
C61 C62 1.374 . S
C62 H53 0.930 . S
C62 C61 1.374 . S
C62 C63 1.383 . S
C63 O57 1.412 . S
C63 C62 1.383 . S
C63 C64 1.394 1_554 S
C64 H54 0.929 . S
C64 C60 1.377 . S
C64 C63 1.394 1_556 S
H65 C72 0.929 . S
H66 C75 0.933 . S
H67 C77 0.929 . S
H68 C69 0.969 . S
C69 H68 0.969 . S
C69 O70 1.550 1_455 S
C69 H71 0.973 1_455 S
O70 C69 1.550 1_655 S
O70 C76 1.412 1_655 S
H71 C69 0.973 1_655 S
C72 H65 0.929 . S
C72 C73 1.400 1_554 S
C72 C74 1.364 . S
C73 C72 1.400 1_556 S
C73 C77 1.377 . S
C74 C72 1.364 . S
C74 C75 1.374 . S
C75 H66 0.933 . S
C75 C74 1.374 . S
C75 C76 1.383 . S
C76 O70 1.412 1_455 S
C76 C75 1.383 . S
C76 C77 1.394 1_554 S
C77 H67 0.929 . S
C77 C73 1.377 . S
C77 C76 1.394 1_556 S
H78 C85 0.932 . S
H79 C88 0.930 . S
H80 C90 0.932 . S
H81 C82 0.969 . S
C82 H81 0.969 . S
C82 O83 1.550 1_545 S
C82 H84 0.973 1_545 S
O83 C82 1.550 1_565 S
O83 C89 1.412 1_565 S
H84 C82 0.973 1_565 S
C85 H78 0.932 . S
C85 C86 1.400 1_554 S
C85 C87 1.364 . S
C86 C85 1.400 1_556 S
C86 C90 1.377 . S
C87 C85 1.364 . S
C87 C88 1.377 . S
C88 H79 0.930 . S
C88 C87 1.377 . S
C88 C89 1.386 . S
C89 O83 1.412 1_545 S
C89 C88 1.386 . S
C89 C90 1.394 1_554 S
C90 H80 0.932 . S
C90 C86 1.377 . S
C90 C89 1.394 1_556 S
H91 C98 0.929 . S
H92 C101 0.930 . S
H93 C103 0.929 . S
H94 C95 0.969 . S
C95 H94 0.969 . S
C95 O96 1.550 . S
C95 H97 0.973 . S
O96 C95 1.550 . S
O96 C102 1.412 . S
H97 C95 0.973 . S
C98 H91 0.929 . S
C98 C99 1.400 1_554 S
C98 C100 1.364 . S
C99 C98 1.400 1_556 S
C99 C103 1.377 . S
C100 C98 1.364 . S
C100 C101 1.374 . S
C101 H92 0.930 . S
C101 C100 1.374 . S
C101 C102 1.383 . S
C102 O96 1.412 . S
C102 C101 1.383 . S
C102 C103 1.394 1_554 S
C103 H93 0.929 . S
C103 C99 1.377 . S
C103 C102 1.394 1_556 S
Sm104 C106 2.846 . S
Sm104 O124 2.541 . S
Sm104 O125 2.450 . S
Sm104 O126 2.681 1_565 S
Sm104 O127 2.464 . S
Sm104 O128 2.396 . S
Sm104 O132 2.386 1_455 S
Sm104 O135 2.408 1_565 S
Sm105 C115 2.846 . S
Sm105 O126 2.386 1_655 S
Sm105 O129 2.408 1_545 S
Sm105 O130 2.524 1_655 S
Sm105 O131 2.450 . S
Sm105 O132 2.681 1_545 S
Sm105 O133 2.464 . S
Sm105 O134 2.396 . S
C106 Sm104 2.846 . S
C106 C107 1.506 . S
C106 O124 1.258 . S
C106 O125 1.242 . S
C107 C106 1.506 . S
C107 C108 1.358 . S
C107 C112 1.382 . S
C108 C107 1.358 . S
C108 C109 1.385 . S
C108 H136 0.930 1_455 S
C109 C108 1.385 . S
C109 C110 1.395 . S
C109 H137 0.929 1_455 S
C110 C109 1.395 . S
C110 C111 1.335 . S
C111 C110 1.335 . S
C111 C112 1.398 . S
C111 H138 0.930 . S
C112 C107 1.382 . S
C112 C111 1.398 . S
C112 H139 0.929 . S
C113 O126 1.257 1_565 S
C113 O127 1.276 . S
C114 O128 1.252 1_655 S
C114 O129 1.272 . S
C115 Sm105 2.846 . S
C115 C116 1.506 . S
C115 O130 1.216 1_655 S
C115 O131 1.242 . S
C116 C115 1.506 . S
C116 C117 1.358 . S
C116 C121 1.382 . S
C117 C116 1.358 . S
C117 C118 1.385 . S
C117 H140 0.930 1_655 S
C118 C117 1.385 . S
C118 C119 1.395 . S
C118 H141 0.929 1_655 S
C119 C118 1.395 . S
C119 C120 1.335 . S
C120 C119 1.335 . S
C120 C121 1.398 . S
C120 H142 0.930 . S
C121 C116 1.382 . S
C121 C120 1.398 . S
C121 H143 0.929 . S
C122 O132 1.271 1_545 S
C122 O133 1.251 . S
C123 O134 1.252 1_455 S
C123 O135 1.272 . S
O124 Sm104 2.541 . S
O124 C106 1.258 . S
O125 Sm104 2.450 . S
O125 C106 1.242 . S
O126 Sm104 2.681 1_545 S
O126 Sm105 2.386 1_455 S
O126 C113 1.257 1_545 S
O127 Sm104 2.464 . S
O127 C113 1.276 . S
O128 Sm104 2.396 . S
O128 C114 1.252 1_455 S
O129 Sm105 2.408 1_565 S
O129 C114 1.272 . S
O130 Sm105 2.524 1_455 S
O130 C115 1.216 1_455 S
O131 Sm105 2.450 . S
O131 C115 1.242 . S
O132 Sm104 2.386 1_655 S
O132 Sm105 2.681 1_565 S
O132 C122 1.271 1_565 S
O133 Sm105 2.464 . S
O133 C122 1.251 . S
O134 Sm105 2.396 . S
O134 C123 1.252 1_655 S
O135 Sm104 2.408 1_545 S
O135 C123 1.272 . S
H136 C108 0.930 1_655 S
H137 C109 0.929 1_655 S
H138 C111 0.930 . S
H139 C112 0.929 . S
H140 C117 0.930 1_455 S
H141 C118 0.929 1_455 S
H142 C120 0.930 . S
H143 C121 0.929 . S
Sm144 C146 2.846 . S
Sm144 O164 2.538 1_545 S
Sm144 O165 2.450 . S
Sm144 O166 2.681 . S
Sm144 O167 2.464 . S
Sm144 O168 2.396 . S
Sm144 O172 2.386 1_545 S
Sm144 O175 2.408 . S
Sm145 C155 2.846 . S
Sm145 O166 2.386 1_565 S
Sm145 O169 2.408 . S
Sm145 O170 2.532 1_565 S
Sm145 O171 2.450 . S
Sm145 O172 2.681 . S
Sm145 O173 2.464 . S
Sm145 O174 2.396 . S
C146 Sm144 2.846 . S
C146 C147 1.506 . S
C146 O164 1.251 1_545 S
C146 O165 1.242 . S
C147 C146 1.506 . S
C147 C148 1.358 . S
C147 C152 1.382 . S
C148 C147 1.358 . S
C148 C149 1.385 . S
C148 H176 0.930 1_545 S
C149 C148 1.385 . S
C149 C150 1.395 . S
C149 H177 0.929 1_545 S
C150 C149 1.395 . S
C150 C151 1.335 . S
C151 C150 1.335 . S
C151 C152 1.398 . S
C151 H178 0.930 . S
C152 C147 1.382 . S
C152 C151 1.398 . S
C152 H179 0.929 . S
C153 O166 1.271 . S
C153 O167 1.251 . S
C154 O168 1.252 1_565 S
C154 O169 1.272 . S
C155 Sm145 2.846 . S
C155 C156 1.506 . S
C155 O170 1.235 1_565 S
C155 O171 1.242 . S
C156 C155 1.506 . S
C156 C157 1.358 . S
C156 C161 1.382 . S
C157 C156 1.358 . S
C157 C158 1.385 . S
C157 H180 0.930 1_565 S
C158 C157 1.385 . S
C158 C159 1.395 . S
C158 H181 0.929 1_565 S
C159 C158 1.395 . S
C159 C160 1.335 . S
C160 C159 1.335 . S
C160 C161 1.398 . S
C160 H182 0.930 . S
C161 C156 1.382 . S
C161 C160 1.398 . S
C161 H183 0.929 . S
C162 O172 1.271 . S
C162 O173 1.251 . S
C163 O174 1.252 1_545 S
C163 O175 1.272 . S
O164 Sm144 2.538 1_565 S
O164 C146 1.251 1_565 S
O165 Sm144 2.450 . S
O165 C146 1.242 . S
O166 Sm144 2.681 . S
O166 Sm145 2.386 1_545 S
O166 C153 1.271 . S
O167 Sm144 2.464 . S
O167 C153 1.251 . S
O168 Sm144 2.396 . S
O168 C154 1.252 1_545 S
O169 Sm145 2.408 . S
O169 C154 1.272 . S
O170 Sm145 2.532 1_545 S
O170 C155 1.235 1_545 S
O171 Sm145 2.450 . S
O171 C155 1.242 . S
O172 Sm144 2.386 1_565 S
O172 Sm145 2.681 . S
O172 C162 1.271 . S
O173 Sm145 2.464 . S
O173 C162 1.251 . S
O174 Sm145 2.396 . S
O174 C163 1.252 1_565 S
O175 Sm144 2.408 . S
O175 C163 1.272 . S
H176 C148 0.930 1_565 S
H177 C149 0.929 1_565 S
H178 C151 0.930 . S
H179 C152 0.929 . S
H180 C157 0.930 1_545 S
H181 C158 0.929 1_545 S
H182 C160 0.930 . S
H183 C161 0.929 . S
Sm184 C186 2.846 . S
Sm184 O204 2.543 . S
Sm184 O205 2.450 . S
Sm184 O206 2.681 . S
Sm184 O207 2.464 . S
Sm184 O208 2.396 . S
Sm184 O212 2.386 . S
Sm184 O215 2.408 . S
Sm185 C195 2.846 . S
Sm185 O206 2.386 . S
Sm185 O209 2.408 . S
Sm185 O210 2.543 . S
Sm185 O211 2.450 . S
Sm185 O212 2.681 . S
Sm185 O213 2.464 . S
Sm185 O214 2.396 . S
C186 Sm184 2.846 . S
C186 C187 1.506 . S
C186 O204 1.261 . S
C186 O205 1.242 . S
C187 C186 1.506 . S
C187 C188 1.358 . S
C187 C192 1.382 . S
C188 C187 1.358 . S
C188 C189 1.385 . S
C188 H216 0.930 . S
C189 C188 1.385 . S
C189 C190 1.395 . S
C189 H217 0.929 . S
C190 C189 1.395 . S
C190 C191 1.335 . S
C191 C190 1.335 . S
C191 C192 1.398 . S
C191 H218 0.930 . S
C192 C187 1.382 . S
C192 C191 1.398 . S
C192 H219 0.929 . S
C193 O206 1.271 . S
C193 O207 1.251 . S
C194 O208 1.252 . S
C194 O209 1.272 . S
C195 Sm185 2.846 . S
C195 C196 1.506 . S
C195 O210 1.261 . S
C195 O211 1.242 . S
C196 C195 1.506 . S
C196 C197 1.358 . S
C196 C201 1.382 . S
C197 C196 1.358 . S
C197 C198 1.385 . S
C197 H220 0.930 . S
C198 C197 1.385 . S
C198 C199 1.395 . S
C198 H221 0.929 . S
C199 C198 1.395 . S
C199 C200 1.335 . S
C200 C199 1.335 . S
C200 C201 1.398 . S
C200 H222 0.930 . S
C201 C196 1.382 . S
C201 C200 1.398 . S
C201 H223 0.929 . S
C202 O212 1.271 . S
C202 O213 1.251 . S
C203 O214 1.252 . S
C203 O215 1.272 . S
O204 Sm184 2.543 . S
O204 C186 1.261 . S
O205 Sm184 2.450 . S
O205 C186 1.242 . S
O206 Sm184 2.681 . S
O206 Sm185 2.386 . S
O206 C193 1.271 . S
O207 Sm184 2.464 . S
O207 C193 1.251 . S
O208 Sm184 2.396 . S
O208 C194 1.252 . S
O209 Sm185 2.408 . S
O209 C194 1.272 . S
O210 Sm185 2.543 . S
O210 C195 1.261 . S
O211 Sm185 2.450 . S
O211 C195 1.242 . S
O212 Sm184 2.386 . S
O212 Sm185 2.681 . S
O212 C202 1.271 . S
O213 Sm185 2.464 . S
O213 C202 1.251 . S
O214 Sm185 2.396 . S
O214 C203 1.252 . S
O215 Sm184 2.408 . S
O215 C203 1.272 . S
H216 C188 0.930 . S
H217 C189 0.929 . S
H218 C191 0.930 . S
H219 C192 0.929 . S
H220 C197 0.930 . S
H221 C198 0.929 . S
H222 C200 0.930 . S
H223 C201 0.929 . S
Sm224 C226 2.846 . S
Sm224 O244 2.543 . S
Sm224 O245 2.450 . S
Sm224 O246 2.681 1_655 S
Sm224 O247 2.464 . S
Sm224 O248 2.396 . S
Sm224 O252 2.386 . S
Sm224 O255 2.408 1_655 S
Sm225 C235 2.846 . S
Sm225 O246 2.386 . S
Sm225 O249 2.408 1_455 S
Sm225 O250 2.543 . S
Sm225 O251 2.450 . S
Sm225 O252 2.681 1_455 S
Sm225 O253 2.464 . S
Sm225 O254 2.396 . S
C226 Sm224 2.846 . S
C226 C227 1.506 . S
C226 O244 1.261 . S
C226 O245 1.242 . S
C227 C226 1.506 . S
C227 C228 1.358 . S
C227 C232 1.382 . S
C228 C227 1.358 . S
C228 C229 1.385 . S
C228 H256 0.930 . S
C229 C228 1.385 . S
C229 C230 1.395 . S
C229 H257 0.929 . S
C230 C229 1.395 . S
C230 C231 1.335 . S
C231 C230 1.335 . S
C231 C232 1.398 . S
C231 H258 0.930 . S
C232 C227 1.382 . S
C232 C231 1.398 . S
C232 H259 0.929 . S
C233 O246 1.263 1_655 S
C233 O247 1.265 . S
C234 O248 1.252 . S
C234 O249 1.272 . S
C235 Sm225 2.846 . S
C235 C236 1.506 . S
C235 O250 1.261 . S
C235 O251 1.242 . S
C236 C235 1.506 . S
C236 C237 1.358 . S
C236 C241 1.382 . S
C237 C236 1.358 . S
C237 C238 1.385 . S
C237 H260 0.930 . S
C238 C237 1.385 . S
C238 C239 1.395 . S
C238 H261 0.929 . S
C239 C238 1.395 . S
C239 C240 1.335 . S
C240 C239 1.335 . S
C240 C241 1.398 . S
C240 H262 0.930 . S
C241 C236 1.382 . S
C241 C240 1.398 . S
C241 H263 0.929 . S
C242 O252 1.271 1_455 S
C242 O253 1.251 . S
C243 O254 1.252 . S
C243 O255 1.272 . S
O244 Sm224 2.543 . S
O244 C226 1.261 . S
O245 Sm224 2.450 . S
O245 C226 1.242 . S
O246 Sm224 2.681 1_455 S
O246 Sm225 2.386 . S
O246 C233 1.263 1_455 S
O247 Sm224 2.464 . S
O247 C233 1.265 . S
O248 Sm224 2.396 . S
O248 C234 1.252 . S
O249 Sm225 2.408 1_655 S
O249 C234 1.272 . S
O250 Sm225 2.543 . S
O250 C235 1.261 . S
O251 Sm225 2.450 . S
O251 C235 1.242 . S
O252 Sm224 2.386 . S
O252 Sm225 2.681 1_655 S
O252 C242 1.271 1_655 S
O253 Sm225 2.464 . S
O253 C242 1.251 . S
O254 Sm225 2.396 . S
O254 C243 1.252 . S
O255 Sm224 2.408 1_455 S
O255 C243 1.272 . S
H256 C228 0.930 . S
H257 C229 0.929 . S
H258 C231 0.930 . S
H259 C232 0.929 . S
H260 C237 0.930 . S
H261 C238 0.929 . S
H262 C240 0.930 . S
H263 C241 0.929 . S
H264 C272 0.929 . S
H265 C274 0.930 . S
H266 C276 0.930 . S
H267 C279 0.929 . S
H268 C282 0.930 . S
H269 C284 0.960 . S
H270 C284 0.960 . S
H271 C284 0.960 . S
C272 H264 0.929 . S
C272 C273 1.358 1_565 S
C272 C274 1.384 . S
C273 C272 1.358 1_545 S
C273 C279 1.410 . S
C274 H265 0.930 . S
C274 C272 1.384 . S
C274 C275 1.361 1_565 S
C275 C274 1.361 1_545 S
C275 C276 1.411 . S
C275 C280 1.490 . S
C276 H266 0.930 . S
C276 C275 1.411 . S
C276 C279 1.386 . S
H277 C293 0.930 . S
H278 C294 0.931 . S
C279 H267 0.929 . S
C279 C273 1.410 . S
C279 C276 1.386 . S
C280 C275 1.490 . S
C280 C282 1.423 . S
C280 C283 1.377 1_545 S
H281 C287 0.930 . S
C282 H268 0.930 . S
C282 C280 1.423 . S
C282 C285 1.403 . S
C283 C280 1.377 1_565 S
C283 C284 1.524 . S
C283 C287 1.400 . S
C284 H269 0.960 . S
C284 H270 0.960 . S
C284 H271 0.960 . S
C284 C283 1.524 . S
C285 C282 1.403 . S
C285 C286 1.392 . S
C285 C289 1.495 . S
C286 C285 1.392 . S
C286 C287 1.385 1_545 S
C286 C288 1.478 . S
C287 H281 0.930 . S
C287 C283 1.400 . S
C287 C286 1.385 1_565 S
C288 C286 1.478 . S
C288 C290 1.381 1_545 S
C288 C294 1.383 . S
C289 C285 1.495 . S
C289 H295 0.959 . S
C289 H296 0.961 . S
C289 H297 0.960 . S
C290 C288 1.381 1_565 S
C290 C291 1.394 . S
C290 H298 0.930 . S
C291 C290 1.394 . S
C291 C292 1.383 1_565 S
C291 H299 0.929 . S
C292 C291 1.383 1_545 S
C292 C293 1.377 . S
C293 H277 0.930 . S
C293 C292 1.377 . S
C293 C294 1.379 . S
C294 H278 0.931 . S
C294 C288 1.383 . S
C294 C293 1.379 . S
H295 C289 0.959 . S
H296 C289 0.961 . S
H297 C289 0.960 . S
H298 C290 0.930 . S
H299 C291 0.929 . S
H300 C308 0.929 . S
H301 C310 0.930 . S
H302 C312 0.930 . S
H303 C315 0.929 . S
H304 C318 0.930 . S
H305 C320 0.960 . S
H306 C320 0.960 . S
H307 C320 0.960 . S
C308 H300 0.929 . S
C308 C309 1.377 . S
C308 C310 1.384 . S
C309 C308 1.377 . S
C309 C315 1.390 . S
C310 H301 0.930 . S
C310 C308 1.384 . S
C310 C311 1.372 . S
C311 C310 1.372 . S
C311 C312 1.400 . S
C311 C316 1.490 . S
C312 H302 0.930 . S
C312 C311 1.400 . S
C312 C315 1.386 . S
H313 C329 0.930 . S
H314 C330 0.931 . S
C315 H303 0.929 . S
C315 C309 1.390 . S
C315 C312 1.386 . S
C316 C311 1.490 . S
C316 C318 1.395 . S
C316 C319 1.403 . S
H317 C323 0.930 . S
C318 H304 0.930 . S
C318 C316 1.395 . S
C318 C321 1.403 . S
C319 C316 1.403 . S
C319 C320 1.524 . S
C319 C323 1.400 . S
C320 H305 0.960 . S
C320 H306 0.960 . S
C320 H307 0.960 . S
C320 C319 1.524 . S
C321 C318 1.403 . S
C321 C322 1.392 . S
C321 C325 1.495 . S
C322 C321 1.392 . S
C322 C323 1.385 . S
C322 C324 1.478 . S
C323 H317 0.930 . S
C323 C319 1.400 . S
C323 C322 1.385 . S
C324 C322 1.478 . S
C324 C326 1.381 . S
C324 C330 1.383 . S
C325 C321 1.495 . S
C325 H331 0.959 . S
C325 H332 0.961 . S
C325 H333 0.960 . S
C326 C324 1.381 . S
C326 C327 1.394 . S
C326 H334 0.930 . S
C327 C326 1.394 . S
C327 C328 1.383 . S
C327 H335 0.929 . S
C328 C327 1.383 . S
C328 C329 1.377 . S
C329 H313 0.930 . S
C329 C328 1.377 . S
C329 C330 1.379 . S
C330 H314 0.931 . S
C330 C324 1.383 . S
C330 C329 1.379 . S
H331 C325 0.959 . S
H332 C325 0.961 . S
H333 C325 0.960 . S
H334 C326 0.930 . S
H335 C327 0.929 . S
H336 C344 0.929 . S
H337 C346 0.930 . S
H338 C348 0.930 . S
H339 C351 0.929 . S
H340 C354 0.930 . S
H341 C356 0.960 . S
H342 C356 0.960 . S
H343 C356 0.960 . S
C344 H336 0.929 . S
C344 C345 1.377 . S
C344 C346 1.384 . S
C345 C344 1.377 . S
C345 C351 1.390 . S
C346 H337 0.930 . S
C346 C344 1.384 . S
C346 C347 1.372 . S
C347 C346 1.372 . S
C347 C348 1.400 . S
C347 C352 1.490 . S
C348 H338 0.930 . S
C348 C347 1.400 . S
C348 C351 1.386 . S
H349 C365 0.930 . S
H350 C366 0.931 . S
C351 H339 0.929 . S
C351 C345 1.390 . S
C351 C348 1.386 . S
C352 C347 1.490 . S
C352 C354 1.395 . S
C352 C355 1.403 . S
H353 C359 0.930 . S
C354 H340 0.930 . S
C354 C352 1.395 . S
C354 C357 1.403 . S
C355 C352 1.403 . S
C355 C356 1.524 . S
C355 C359 1.400 . S
C356 H341 0.960 . S
C356 H342 0.960 . S
C356 H343 0.960 . S
C356 C355 1.524 . S
C357 C354 1.403 . S
C357 C358 1.392 . S
C357 C361 1.495 . S
C358 C357 1.392 . S
C358 C359 1.385 . S
C358 C360 1.478 . S
C359 H353 0.930 . S
C359 C355 1.400 . S
C359 C358 1.385 . S
C360 C358 1.478 . S
C360 C362 1.381 . S
C360 C366 1.383 . S
C361 C357 1.495 . S
C361 H367 0.959 . S
C361 H368 0.961 . S
C361 H369 0.960 . S
C362 C360 1.381 . S
C362 C363 1.394 . S
C362 H370 0.930 . S
C363 C362 1.394 . S
C363 C364 1.383 . S
C363 H371 0.929 . S
C364 C363 1.383 . S
C364 C365 1.377 . S
C365 H349 0.930 . S
C365 C364 1.377 . S
C365 C366 1.379 . S
C366 H350 0.931 . S
C366 C360 1.383 . S
C366 C365 1.379 . S
H367 C361 0.959 . S
H368 C361 0.961 . S
H369 C361 0.960 . S
H370 C362 0.930 . S
H371 C363 0.929 . S
H372 C380 0.929 . S
H373 C382 0.930 . S
H374 C384 0.930 . S
H375 C387 0.929 . S
H376 C390 0.930 . S
H377 C392 0.960 . S
H378 C392 0.960 . S
H379 C392 0.960 . S
C380 H372 0.929 . S
C380 C381 1.377 1_655 S
C380 C382 1.384 . S
C381 C380 1.377 1_455 S
C381 C387 1.390 . S
C382 H373 0.930 . S
C382 C380 1.384 . S
C382 C383 1.348 1_655 S
C383 C382 1.348 1_455 S
C383 C384 1.424 . S
C383 C388 1.490 . S
C384 H374 0.930 . S
C384 C383 1.424 . S
C384 C387 1.386 . S
H385 C401 0.930 . S
H386 C402 0.931 . S
C387 H375 0.929 . S
C387 C381 1.390 . S
C387 C384 1.386 . S
C388 C383 1.490 . S
C388 C390 1.397 1_455 S
C388 C391 1.401 . S
H389 C395 0.930 . S
C390 H376 0.930 . S
C390 C388 1.397 1_655 S
C390 C393 1.403 . S
C391 C388 1.401 . S
C391 C392 1.524 . S
C391 C395 1.400 . S
C392 H377 0.960 . S
C392 H378 0.960 . S
C392 H379 0.960 . S
C392 C391 1.524 . S
C393 C390 1.403 . S
C393 C394 1.392 . S
C393 C397 1.495 . S
C394 C393 1.392 . S
C394 C395 1.385 1_655 S
C394 C396 1.478 . S
C395 H389 0.930 . S
C395 C391 1.400 . S
C395 C394 1.385 1_455 S
C396 C394 1.478 . S
C396 C398 1.381 . S
C396 C402 1.383 1_655 S
C397 C393 1.495 . S
C397 H403 0.959 . S
C397 H404 0.961 . S
C397 H405 0.960 . S
C398 C396 1.381 . S
C398 C399 1.394 . S
C398 H406 0.930 . S
C399 C398 1.394 . S
C399 C400 1.348 1_655 S
C399 H407 0.929 . S
C400 C399 1.348 1_455 S
C400 C401 1.410 . S
C401 H385 0.930 . S
C401 C400 1.410 . S
C401 C402 1.379 . S
C402 H386 0.931 . S
C402 C396 1.383 1_455 S
C402 C401 1.379 . S
H403 C397 0.959 . S
H404 C397 0.961 . S
H405 C397 0.960 . S
H406 C398 0.930 . S
H407 C399 0.929 . S
H408 C416 0.929 . S
H409 C418 0.930 . S
H410 C420 0.930 . S
H411 C423 0.929 . S
H412 C426 0.930 . S
H413 C428 0.960 . S
H414 C428 0.960 . S
H415 C428 0.960 . S
C416 H408 0.929 . S
C416 C417 1.377 . S
C416 C418 1.384 . S
C417 C416 1.377 . S
C417 C423 1.390 1_565 S
C418 H409 0.930 . S
C418 C416 1.384 . S
C418 C419 1.372 . S
C419 C418 1.372 . S
C419 C420 1.400 1_565 S
C419 C424 1.493 . S
C420 H410 0.930 . S
C420 C419 1.400 1_545 S
C420 C423 1.386 . S
H421 C437 0.930 . S
H422 C438 0.931 . S
C423 H411 0.929 . S
C423 C417 1.390 1_545 S
C423 C420 1.386 . S
C424 C419 1.493 . S
C424 C426 1.358 1_565 S
C424 C427 1.440 . S
H425 C431 0.930 . S
C426 H412 0.930 . S
C426 C424 1.358 1_545 S
C426 C429 1.403 1_554 S
C427 C424 1.440 . S
C427 C428 1.524 . S
C427 C431 1.400 . S
C428 H413 0.960 . S
C428 H414 0.960 . S
C428 H415 0.960 . S
C428 C427 1.524 . S
C429 C426 1.403 1_556 S
C429 C430 1.392 . S
C429 C433 1.495 . S
C430 C429 1.392 . S
C430 C431 1.385 1_546 S
C430 C432 1.478 . S
C431 H425 0.930 . S
C431 C427 1.400 . S
C431 C430 1.385 1_564 S
C432 C430 1.478 . S
C432 C434 1.381 1_545 S
C432 C438 1.383 . S
C433 C429 1.495 . S
C433 H439 0.959 . S
C433 H440 0.961 . S
C433 H441 0.960 . S
C434 C432 1.381 1_565 S
C434 C435 1.394 . S
C434 H442 0.930 . S
C435 C434 1.394 . S
C435 C436 1.382 . S
C435 H443 0.929 . S
C436 C435 1.382 . S
C436 C437 1.379 1_565 S
C437 H421 0.930 . S
C437 C436 1.379 1_545 S
C437 C438 1.379 . S
C438 H422 0.931 . S
C438 C432 1.383 . S
C438 C437 1.379 . S
H439 C433 0.959 . S
H440 C433 0.961 . S
H441 C433 0.960 . S
H442 C434 0.930 . S
H443 C435 0.929 . S
H444 C452 0.929 . S
H445 C454 0.930 . S
H446 C456 0.930 . S
H447 C459 0.929 . S
H448 C462 0.930 . S
H449 C464 0.960 . S
H450 C464 0.960 . S
H451 C464 0.960 . S
C452 H444 0.929 . S
C452 C453 1.377 . S
C452 C454 1.384 . S
C453 C452 1.377 . S
C453 C459 1.390 . S
C454 H445 0.930 . S
C454 C452 1.384 . S
C454 C455 1.372 . S
C455 C454 1.372 . S
C455 C456 1.400 . S
C455 C460 1.490 . S
C456 H446 0.930 . S
C456 C455 1.400 . S
C456 C459 1.386 . S
H457 C473 0.930 . S
H458 C474 0.931 . S
C459 H447 0.929 . S
C459 C453 1.390 . S
C459 C456 1.386 . S
C460 C455 1.490 . S
C460 C462 1.395 . S
C460 C463 1.403 . S
H461 C467 0.930 . S
C462 H448 0.930 . S
C462 C460 1.395 . S
C462 C465 1.403 1_554 S
C463 C460 1.403 . S
C463 C464 1.524 . S
C463 C467 1.400 . S
C464 H449 0.960 . S
C464 H450 0.960 . S
C464 H451 0.960 . S
C464 C463 1.524 . S
C465 C462 1.403 1_556 S
C465 C466 1.392 . S
C465 C469 1.495 . S
C466 C465 1.392 . S
C466 C467 1.385 1_556 S
C466 C468 1.478 . S
C467 H461 0.930 . S
C467 C463 1.400 . S
C467 C466 1.385 1_554 S
C468 C466 1.478 . S
C468 C470 1.381 . S
C468 C474 1.383 . S
C469 C465 1.495 . S
C469 H475 0.959 . S
C469 H476 0.961 . S
C469 H477 0.960 . S
C470 C468 1.381 . S
C470 C471 1.394 . S
C470 H478 0.930 . S
C471 C470 1.394 . S
C471 C472 1.383 . S
C471 H479 0.929 . S
C472 C471 1.383 . S
C472 C473 1.377 . S
C473 H457 0.930 . S
C473 C472 1.377 . S
C473 C474 1.379 . S
C474 H458 0.931 . S
C474 C468 1.383 . S
C474 C473 1.379 . S
H475 C469 0.959 . S
H476 C469 0.961 . S
H477 C469 0.960 . S
H478 C470 0.930 . S
H479 C471 0.929 . S
H480 C488 0.929 . S
H481 C490 0.930 . S
H482 C492 0.930 . S
H483 C495 0.929 . S
H484 C498 0.930 . S
H485 C500 0.960 1_556 S
H486 C500 0.960 . S
H487 C500 0.960 . S
C488 H480 0.929 . S
C488 C489 1.377 . S
C488 C490 1.384 . S
C489 C488 1.377 . S
C489 C495 1.390 . S
C490 H481 0.930 . S
C490 C488 1.384 . S
C490 C491 1.372 . S
C491 C490 1.372 . S
C491 C492 1.400 . S
C491 C496 1.490 . S
C492 H482 0.930 . S
C492 C491 1.400 . S
C492 C495 1.386 . S
H493 C509 0.930 . S
H494 C510 0.931 . S
C495 H483 0.929 . S
C495 C489 1.390 . S
C495 C492 1.386 . S
C496 C491 1.490 . S
C496 C498 1.395 . S
C496 C499 1.403 . S
H497 C503 0.930 . S
C498 H484 0.930 . S
C498 C496 1.395 . S
C498 C501 1.403 . S
C499 C496 1.403 . S
C499 C500 1.524 . S
C499 C503 1.400 1_554 S
C500 H485 0.960 1_554 S
C500 H486 0.960 . S
C500 H487 0.960 . S
C500 C499 1.524 . S
C501 C498 1.403 . S
C501 C502 1.392 . S
C501 C505 1.495 . S
C502 C501 1.392 . S
C502 C503 1.385 1_554 S
C502 C504 1.478 1_554 S
C503 H497 0.930 . S
C503 C499 1.400 1_556 S
C503 C502 1.385 1_556 S
C504 C502 1.478 1_556 S
C504 C506 1.381 . S
C504 C510 1.383 . S
C505 C501 1.495 . S
C505 H511 0.959 . S
C505 H512 0.961 . S
C505 H513 0.960 . S
C506 C504 1.381 . S
C506 C507 1.394 . S
C506 H514 0.930 1_556 S
C507 C506 1.394 . S
C507 C508 1.383 . S
C507 H515 0.929 . S
C508 C507 1.383 . S
C508 C509 1.377 . S
C509 H493 0.930 . S
C509 C508 1.377 . S
C509 C510 1.379 . S
C510 H494 0.931 . S
C510 C504 1.383 . S
C510 C509 1.379 . S
H511 C505 0.959 . S
H512 C505 0.961 . S
H513 C505 0.960 . S
H514 C506 0.930 1_554 S
H515 C507 0.929 . S
H516 C524 0.929 . S
H517 C526 0.930 . S
H518 C528 0.930 . S
H519 C531 0.929 . S
H520 C534 0.930 . S
H521 C536 0.960 . S
H522 C536 0.960 . S
H523 C536 0.960 . S
C524 H516 0.929 . S
C524 C525 1.416 . S
C524 C526 1.384 . S
C525 C524 1.416 . S
C525 C531 1.352 1_655 S
C526 H517 0.930 . S
C526 C524 1.384 . S
C526 C527 1.372 . S
C527 C526 1.372 . S
C527 C528 1.400 1_655 S
C527 C532 1.490 . S
C528 H518 0.930 . S
C528 C527 1.400 1_455 S
C528 C531 1.386 . S
H529 C545 0.930 . S
H530 C546 0.931 . S
C531 H519 0.929 . S
C531 C525 1.352 1_455 S
C531 C528 1.386 . S
C532 C527 1.490 . S
C532 C534 1.395 . S
C532 C535 1.403 1_655 S
H533 C539 0.930 . S
C534 H520 0.930 . S
C534 C532 1.395 . S
C534 C537 1.403 1_554 S
C535 C532 1.403 1_455 S
C535 C536 1.524 . S
C535 C539 1.400 . S
C536 H521 0.960 . S
C536 H522 0.960 . S
C536 H523 0.960 . S
C536 C535 1.524 . S
C537 C534 1.403 1_556 S
C537 C538 1.392 . S
C537 C541 1.495 . S
C538 C537 1.392 . S
C538 C539 1.385 1_656 S
C538 C540 1.478 . S
C539 H533 0.930 . S
C539 C535 1.400 . S
C539 C538 1.385 1_454 S
C540 C538 1.478 . S
C540 C542 1.381 . S
C540 C546 1.383 1_655 S
C541 C537 1.495 . S
C541 H547 0.959 . S
C541 H548 0.961 . S
C541 H549 0.960 . S
C542 C540 1.381 . S
C542 C543 1.394 . S
C542 H550 0.930 . S
C543 C542 1.394 . S
C543 C544 1.383 . S
C543 H551 0.929 . S
C544 C543 1.383 . S
C544 C545 1.377 1_655 S
C545 H529 0.930 . S
C545 C544 1.377 1_455 S
C545 C546 1.379 . S
C546 H530 0.931 . S
C546 C540 1.383 1_455 S
C546 C545 1.379 . S
H547 C541 0.959 . S
H548 C541 0.961 . S
H549 C541 0.960 . S
H550 C542 0.930 . S
H551 C543 0.929 . S
H552 C560 0.929 . S
H553 C562 0.930 . S
H554 C564 0.930 . S
H555 C567 0.929 . S
H556 C570 0.929 1_455 S
H557 C572 0.960 . S
H558 C572 0.960 . S
H559 C572 0.960 . S
C560 H552 0.929 . S
C560 C561 1.377 1_655 S
C560 C562 1.384 . S
C561 C560 1.377 1_455 S
C561 C567 1.390 . S
C562 H553 0.930 . S
C562 C560 1.384 . S
C562 C563 1.372 . S
C563 C562 1.372 . S
C563 C564 1.400 1_655 S
C563 C568 1.490 . S
C564 H554 0.930 . S
C564 C563 1.400 1_455 S
C564 C567 1.386 . S
H565 C581 0.930 . S
H566 C582 0.931 1_455 S
C567 H555 0.929 . S
C567 C561 1.390 . S
C567 C564 1.386 . S
C568 C563 1.490 . S
C568 C570 1.395 . S
C568 C571 1.403 . S
H569 C575 0.930 . S
C570 H556 0.929 1_655 S
C570 C568 1.395 . S
C570 C573 1.403 . S
C571 C568 1.403 . S
C571 C572 1.524 . S
C571 C575 1.400 . S
C572 H557 0.960 . S
C572 H558 0.960 . S
C572 H559 0.960 . S
C572 C571 1.524 . S
C573 C570 1.403 . S
C573 C574 1.392 . S
C573 C577 1.495 . S
C574 C573 1.392 . S
C574 C575 1.385 . S
C574 C576 1.478 . S
C575 H569 0.930 . S
C575 C571 1.400 . S
C575 C574 1.385 . S
C576 C574 1.478 . S
C576 C578 1.381 . S
C576 C582 1.383 . S
C577 C573 1.495 . S
C577 H583 0.959 1_655 S
C577 H584 0.961 1_655 S
C577 H585 0.960 . S
C578 C576 1.381 . S
C578 C579 1.394 . S
C578 H586 0.930 . S
C579 C578 1.394 . S
C579 C580 1.383 . S
C579 H587 0.929 . S
C580 C579 1.383 . S
C580 C581 1.377 . S
C581 H565 0.930 . S
C581 C580 1.377 . S
C581 C582 1.379 . S
C582 H566 0.931 1_655 S
C582 C576 1.383 . S
C582 C581 1.379 . S
H583 C577 0.959 1_455 S
H584 C577 0.961 1_455 S
H585 C577 0.960 . S
H586 C578 0.930 . S
H587 C579 0.929 . S
H588 C596 0.929 . S
H589 C598 0.930 . S
H590 C600 0.930 . S
H591 C603 0.929 . S
H592 C606 0.930 1_545 S
H593 C608 0.960 . S
H594 C608 0.960 . S
H595 C608 0.960 . S
C596 H588 0.929 . S
C596 C597 1.377 1_565 S
C596 C598 1.384 . S
C597 C596 1.377 1_545 S
C597 C603 1.390 . S
C598 H589 0.930 . S
C598 C596 1.384 . S
C598 C599 1.372 . S
C599 C598 1.372 . S
C599 C600 1.400 1_565 S
C599 C604 1.490 . S
C600 H590 0.930 . S
C600 C599 1.400 1_545 S
C600 C603 1.386 . S
H601 C617 0.930 . S
H602 C618 0.931 1_545 S
C603 H591 0.929 . S
C603 C597 1.390 . S
C603 C600 1.386 . S
C604 C599 1.490 . S
C604 C606 1.395 . S
C604 C607 1.403 . S
H605 C611 0.930 . S
C606 H592 0.930 1_565 S
C606 C604 1.395 . S
C606 C609 1.403 . S
C607 C604 1.403 . S
C607 C608 1.524 . S
C607 C611 1.400 . S
C608 H593 0.960 . S
C608 H594 0.960 . S
C608 H595 0.960 . S
C608 C607 1.524 . S
C609 C606 1.403 . S
C609 C610 1.392 . S
C609 C613 1.483 1_565 S
C610 C609 1.392 . S
C610 C611 1.385 . S
C610 C612 1.478 . S
C611 H605 0.930 . S
C611 C607 1.400 . S
C611 C610 1.385 . S
C612 C610 1.478 . S
C612 C614 1.381 . S
C612 C618 1.383 . S
C613 C609 1.483 1_545 S
C613 H619 0.975 . S
C613 H620 0.990 . S
C613 H621 0.928 1_545 S
C614 C612 1.381 . S
C614 C615 1.394 . S
C614 H622 0.930 . S
C615 C614 1.394 . S
C615 C616 1.383 . S
C615 H623 0.929 . S
C616 C615 1.383 . S
C616 C617 1.377 . S
C617 H601 0.930 . S
C617 C616 1.377 . S
C617 C618 1.379 . S
C618 H602 0.931 1_565 S
C618 C612 1.383 . S
C618 C617 1.379 . S
H619 C613 0.975 . S
H620 C613 0.990 . S
H621 C613 0.928 1_565 S
H622 C614 0.930 . S
H623 C615 0.929 . S
H624 C632 0.929 . S
H625 C634 0.930 . S
H626 C636 0.930 . S
H627 C639 0.929 . S
H628 C642 0.930 . S
H629 C644 0.960 . S
H630 C644 0.960 . S
H631 C644 0.960 . S
C632 H624 0.929 . S
C632 C633 1.377 . S
C632 C634 1.384 . S
C633 C632 1.377 . S
C633 C639 1.390 . S
C634 H625 0.930 . S
C634 C632 1.384 . S
C634 C635 1.372 . S
C635 C634 1.372 . S
C635 C636 1.400 . S
C635 C640 1.490 . S
C636 H626 0.930 . S
C636 C635 1.400 . S
C636 C639 1.386 . S
H637 C653 0.930 . S
H638 C654 0.931 . S
C639 H627 0.929 . S
C639 C633 1.390 . S
C639 C636 1.386 . S
C640 C635 1.490 . S
C640 C642 1.395 . S
C640 C643 1.403 . S
H641 C647 0.930 . S
C642 H628 0.930 . S
C642 C640 1.395 . S
C642 C645 1.403 . S
C643 C640 1.403 . S
C643 C644 1.524 . S
C643 C647 1.400 . S
C644 H629 0.960 . S
C644 H630 0.960 . S
C644 H631 0.960 . S
C644 C643 1.524 . S
C645 C642 1.403 . S
C645 C646 1.392 . S
C645 C649 1.495 . S
C646 C645 1.392 . S
C646 C647 1.385 . S
C646 C648 1.478 . S
C647 H641 0.930 . S
C647 C643 1.400 . S
C647 C646 1.385 . S
C648 C646 1.478 . S
C648 C650 1.381 . S
C648 C654 1.383 . S
C649 C645 1.495 . S
C649 H655 0.959 . S
C649 H656 0.961 . S
C649 H657 0.960 . S
C650 C648 1.381 . S
C650 C651 1.394 . S
C650 H658 0.930 . S
C651 C650 1.394 . S
C651 C652 1.383 . S
C651 H659 0.929 . S
C652 C651 1.383 . S
C652 C653 1.377 . S
C653 H637 0.930 . S
C653 C652 1.377 . S
C653 C654 1.379 . S
C654 H638 0.931 . S
C654 C648 1.383 . S
C654 C653 1.379 . S
H655 C649 0.959 . S
H656 C649 0.961 . S
H657 C649 0.960 . S
H658 C650 0.930 . S
H659 C651 0.929 . S
H660 C668 0.929 . S
H661 C670 0.930 . S
H662 C672 0.930 . S
H663 C675 0.929 . S
H664 C678 0.930 . S
H665 C680 0.960 . S
H666 C680 0.960 . S
H667 C680 0.960 . S
C668 H660 0.929 . S
C668 C669 1.377 . S
C668 C670 1.384 . S
C669 C668 1.377 . S
C669 C675 1.390 . S
C670 H661 0.930 . S
C670 C668 1.384 . S
C670 C671 1.372 . S
C671 C670 1.372 . S
C671 C672 1.400 . S
C671 C676 1.490 . S
C672 H662 0.930 . S
C672 C671 1.400 . S
C672 C675 1.386 . S
H673 C689 0.930 . S
H674 C690 0.931 . S
C675 H663 0.929 . S
C675 C669 1.390 . S
C675 C672 1.386 . S
C676 C671 1.490 . S
C676 C678 1.395 . S
C676 C679 1.403 . S
H677 C683 0.930 . S
C678 H664 0.930 . S
C678 C676 1.395 . S
C678 C681 1.403 . S
C679 C676 1.403 . S
C679 C680 1.524 . S
C679 C683 1.400 . S
C680 H665 0.960 . S
C680 H666 0.960 . S
C680 H667 0.960 . S
C680 C679 1.524 . S
C681 C678 1.403 . S
C681 C682 1.392 . S
C681 C685 1.495 . S
C682 C681 1.392 . S
C682 C683 1.385 . S
C682 C684 1.478 . S
C683 H677 0.930 . S
C683 C679 1.400 . S
C683 C682 1.385 . S
C684 C682 1.478 . S
C684 C686 1.381 . S
C684 C690 1.383 . S
C685 C681 1.495 . S
C685 H691 0.959 . S
C685 H692 0.961 . S
C685 H693 0.960 . S
C686 C684 1.381 . S
C686 C687 1.394 . S
C686 H694 0.930 . S
C687 C686 1.394 . S
C687 C688 1.383 . S
C687 H695 0.929 . S
C688 C687 1.383 . S
C688 C689 1.377 . S
C689 H673 0.930 . S
C689 C688 1.377 . S
C689 C690 1.379 . S
C690 H674 0.931 . S
C690 C684 1.383 . S
C690 C689 1.379 . S
H691 C685 0.959 . S
H692 C685 0.961 . S
H693 C685 0.960 . S
H694 C686 0.930 . S
H695 C687 0.929 . S
H696 C704 0.929 . S
H697 C706 0.930 . S
H698 C708 0.930 . S
H699 C711 0.929 . S
H700 C714 0.930 . S
H701 C716 0.960 . S
H702 C716 0.960 . S
H703 C716 0.960 . S
C704 H696 0.929 . S
C704 C705 1.377 . S
C704 C706 1.384 . S
C705 C704 1.377 . S
C705 C711 1.390 1_655 S
C706 H697 0.930 . S
C706 C704 1.384 . S
C706 C707 1.372 1_655 S
C707 C706 1.372 1_455 S
C707 C708 1.400 . S
C707 C712 1.490 . S
C708 H698 0.930 . S
C708 C707 1.400 . S
C708 C711 1.386 . S
H709 C725 0.930 . S
H710 C726 0.931 1_556 S
C711 H699 0.929 . S
C711 C705 1.390 1_455 S
C711 C708 1.386 . S
C712 C707 1.490 . S
C712 C714 1.395 . S
C712 C715 1.403 . S
H713 C719 0.930 . S
C714 H700 0.930 . S
C714 C712 1.395 . S
C714 C717 1.403 . S
C715 C712 1.403 . S
C715 C716 1.524 1_455 S
C715 C719 1.400 . S
C716 H701 0.960 . S
C716 H702 0.960 . S
C716 H703 0.960 . S
C716 C715 1.524 1_655 S
C717 C714 1.403 . S
C717 C718 1.392 . S
C717 C721 1.495 . S
C718 C717 1.392 . S
C718 C719 1.385 . S
C718 C720 1.478 . S
C719 H713 0.930 . S
C719 C715 1.400 . S
C719 C718 1.385 . S
C720 C718 1.478 . S
C720 C722 1.381 . S
C720 C726 1.383 . S
C721 C717 1.495 . S
C721 H727 0.959 . S
C721 H728 0.961 . S
C721 H729 0.960 . S
C722 C720 1.381 . S
C722 C723 1.394 . S
C722 H730 0.930 . S
C723 C722 1.394 . S
C723 C724 1.383 1_554 S
C723 H731 0.929 . S
C724 C723 1.383 1_556 S
C724 C725 1.377 . S
C725 H709 0.930 . S
C725 C724 1.377 . S
C725 C726 1.379 1_556 S
C726 H710 0.931 1_554 S
C726 C720 1.383 . S
C726 C725 1.379 1_554 S
H727 C721 0.959 . S
H728 C721 0.961 . S
H729 C721 0.960 . S
H730 C722 0.930 . S
H731 C723 0.929 . S
H732 C740 0.929 . S
H733 C742 0.930 . S
H734 C744 0.930 . S
H735 C747 0.929 . S
H736 C750 0.930 . S
H737 C752 0.960 . S
H738 C752 0.960 . S
H739 C752 0.960 . S
C740 H732 0.929 . S
C740 C741 1.377 . S
C740 C742 1.384 . S
C741 C740 1.377 . S
C741 C747 1.390 1_565 S
C742 H733 0.930 . S
C742 C740 1.384 . S
C742 C743 1.372 1_565 S
C743 C742 1.372 1_545 S
C743 C744 1.400 . S
C743 C748 1.490 . S
C744 H734 0.930 . S
C744 C743 1.400 . S
C744 C747 1.386 . S
H745 C761 0.930 . S
H746 C762 0.931 . S
C747 H735 0.929 . S
C747 C741 1.390 1_545 S
C747 C744 1.386 . S
C748 C743 1.490 . S
C748 C750 1.395 1_545 S
C748 C751 1.403 . S
H749 C755 0.930 . S
C750 H736 0.930 . S
C750 C748 1.395 1_565 S
C750 C753 1.403 . S
C751 C748 1.403 . S
C751 C752 1.524 . S
C751 C755 1.400 . S
C752 H737 0.960 . S
C752 H738 0.960 . S
C752 H739 0.960 . S
C752 C751 1.524 . S
C753 C750 1.403 . S
C753 C754 1.392 1_565 S
C753 C757 1.495 . S
C754 C753 1.392 1_545 S
C754 C755 1.385 . S
C754 C756 1.478 . S
C755 H749 0.930 . S
C755 C751 1.400 . S
C755 C754 1.385 . S
C756 C754 1.478 . S
C756 C758 1.381 . S
C756 C762 1.383 . S
C757 C753 1.495 . S
C757 H763 0.959 . S
C757 H764 0.961 . S
C757 H765 0.960 . S
C758 C756 1.381 . S
C758 C759 1.394 1_554 S
C758 H766 0.930 1_545 S
C759 C758 1.394 1_556 S
C759 C760 1.383 . S
C759 H767 0.929 1_545 S
C760 C759 1.383 . S
C760 C761 1.377 1_556 S
C761 H745 0.930 . S
C761 C760 1.377 1_554 S
C761 C762 1.379 . S
C762 H746 0.931 . S
C762 C756 1.383 . S
C762 C761 1.379 . S
H763 C757 0.959 . S
H764 C757 0.961 . S
H765 C757 0.960 . S
H766 C758 0.930 1_565 S
H767 C759 0.929 1_565 S
H768 C776 0.929 . S
H769 C778 0.930 . S
H770 C780 0.930 . S
H771 C783 0.929 . S
H772 C786 0.930 . S
H773 C788 0.960 . S
H774 C788 0.960 . S
H775 C788 0.960 . S
C776 H768 0.929 . S
C776 C777 1.377 . S
C776 C778 1.384 . S
C777 C776 1.377 . S
C777 C783 1.390 . S
C778 H769 0.930 . S
C778 C776 1.384 . S
C778 C779 1.372 . S
C779 C778 1.372 . S
C779 C780 1.400 . S
C779 C784 1.490 . S
C780 H770 0.930 . S
C780 C779 1.400 . S
C780 C783 1.386 . S
H781 C797 0.930 . S
H782 C798 0.931 . S
C783 H771 0.929 . S
C783 C777 1.390 . S
C783 C780 1.386 . S
C784 C779 1.490 . S
C784 C786 1.395 . S
C784 C787 1.403 . S
H785 C791 0.930 . S
C786 H772 0.930 . S
C786 C784 1.395 . S
C786 C789 1.403 . S
C787 C784 1.403 . S
C787 C788 1.524 . S
C787 C791 1.400 . S
C788 H773 0.960 . S
C788 H774 0.960 . S
C788 H775 0.960 . S
C788 C787 1.524 . S
C789 C786 1.403 . S
C789 C790 1.392 . S
C789 C793 1.495 . S
C790 C789 1.392 . S
C790 C791 1.385 . S
C790 C792 1.478 . S
C791 H785 0.930 . S
C791 C787 1.400 . S
C791 C790 1.385 . S
C792 C790 1.478 . S
C792 C794 1.381 1_554 S
C792 C798 1.383 . S
C793 C789 1.495 . S
C793 H799 0.959 . S
C793 H800 0.961 . S
C793 H801 0.960 . S
C794 C792 1.381 1_556 S
C794 C795 1.394 . S
C794 H802 0.930 . S
C795 C794 1.394 . S
C795 C796 1.383 . S
C795 H803 0.929 . S
C796 C795 1.383 . S
C796 C797 1.377 1_556 S
C797 H781 0.930 . S
C797 C796 1.377 1_554 S
C797 C798 1.379 . S
C798 H782 0.931 . S
C798 C792 1.383 . S
C798 C797 1.379 . S
H799 C793 0.959 . S
H800 C793 0.961 . S
H801 C793 0.960 . S
H802 C794 0.930 . S
H803 C795 0.929 . S
H804 C812 0.929 . S
H805 C814 0.930 . S
H806 C816 0.930 . S
H807 C819 0.929 . S
H808 C822 0.930 . S
H809 C824 0.960 . S
H810 C824 0.960 . S
H811 C824 0.960 . S
C812 H804 0.929 . S
C812 C813 1.377 . S
C812 C814 1.384 . S
C813 C812 1.377 . S
C813 C819 1.390 . S
C814 H805 0.930 . S
C814 C812 1.384 . S
C814 C815 1.372 . S
C815 C814 1.372 . S
C815 C816 1.400 . S
C815 C820 1.490 . S
C816 H806 0.930 . S
C816 C815 1.400 . S
C816 C819 1.386 . S
H817 C833 0.930 . S
H818 C834 0.931 . S
C819 H807 0.929 . S
C819 C813 1.390 . S
C819 C816 1.386 . S
C820 C815 1.490 . S
C820 C822 1.395 . S
C820 C823 1.403 . S
H821 C827 0.930 . S
C822 H808 0.930 . S
C822 C820 1.395 . S
C822 C825 1.403 . S
C823 C820 1.403 . S
C823 C824 1.524 . S
C823 C827 1.400 . S
C824 H809 0.960 . S
C824 H810 0.960 . S
C824 H811 0.960 . S
C824 C823 1.524 . S
C825 C822 1.403 . S
C825 C826 1.392 . S
C825 C829 1.495 . S
C826 C825 1.392 . S
C826 C827 1.385 . S
C826 C828 1.478 . S
C827 H821 0.930 . S
C827 C823 1.400 . S
C827 C826 1.385 . S
C828 C826 1.478 . S
C828 C830 1.381 1_554 S
C828 C834 1.383 . S
C829 C825 1.495 . S
C829 H835 0.959 . S
C829 H836 0.961 . S
C829 H837 0.960 . S
C830 C828 1.381 1_556 S
C830 C831 1.394 . S
C830 H838 0.930 . S
C831 C830 1.394 . S
C831 C832 1.383 . S
C831 H839 0.929 . S
C832 C831 1.383 . S
C832 C833 1.377 1_556 S
C833 H817 0.930 . S
C833 C832 1.377 1_554 S
C833 C834 1.379 . S
C834 H818 0.931 . S
C834 C828 1.383 . S
C834 C833 1.379 . S
H835 C829 0.959 . S
H836 C829 0.961 . S
H837 C829 0.960 . S
H838 C830 0.930 . S
H839 C831 0.929 . S
H840 C848 0.929 . S
H841 C850 0.930 . S
H842 C852 0.930 . S
H843 C855 0.929 . S
H844 C858 0.930 . S
H845 C860 0.960 . S
H846 C860 0.960 . S
H847 C860 0.960 . S
C848 H840 0.929 . S
C848 C849 1.377 1_655 S
C848 C850 1.384 . S
C849 C848 1.377 1_455 S
C849 C855 1.390 . S
C850 H841 0.930 . S
C850 C848 1.384 . S
C850 C851 1.372 1_655 S
C851 C850 1.372 1_455 S
C851 C852 1.400 . S
C851 C856 1.490 . S
C852 H842 0.930 . S
C852 C851 1.400 . S
C852 C855 1.386 . S
H853 C869 0.930 . S
H854 C870 0.931 . S
C855 H843 0.929 . S
C855 C849 1.390 . S
C855 C852 1.386 . S
C856 C851 1.490 . S
C856 C858 1.395 1_455 S
C856 C859 1.403 . S
H857 C863 0.930 . S
C858 H844 0.930 . S
C858 C856 1.395 1_655 S
C858 C861 1.403 . S
C859 C856 1.403 . S
C859 C860 1.524 . S
C859 C863 1.400 . S
C860 H845 0.960 . S
C860 H846 0.960 . S
C860 H847 0.960 . S
C860 C859 1.524 . S
C861 C858 1.403 . S
C861 C862 1.392 1_655 S
C861 C865 1.495 . S
C862 C861 1.392 1_455 S
C862 C863 1.385 . S
C862 C864 1.478 . S
C863 H857 0.930 . S
C863 C859 1.400 . S
C863 C862 1.385 . S
C864 C862 1.478 . S
C864 C866 1.381 1_455 S
C864 C870 1.383 . S
C865 C861 1.495 . S
C865 H871 0.959 . S
C865 H872 0.961 . S
C865 H873 0.960 . S
C866 C864 1.381 1_655 S
C866 C867 1.394 . S
C866 H874 0.930 . S
C867 C866 1.394 . S
C867 C868 1.384 1_655 S
C867 H875 0.929 . S
C868 C867 1.384 1_455 S
C868 C869 1.377 . S
C869 H853 0.930 . S
C869 C868 1.377 . S
C869 C870 1.379 . S
C870 H854 0.931 . S
C870 C864 1.383 . S
C870 C869 1.379 . S
H871 C865 0.959 . S
H872 C865 0.961 . S
H873 C865 0.960 . S
H874 C866 0.930 . S
H875 C867 0.929 . S
H876 C884 0.929 . S
H877 C886 0.930 . S
H878 C888 0.930 . S
H879 C891 0.929 . S
H880 C894 0.930 . S
H881 C896 0.953 1_554 S
H882 C896 0.960 1_554 S
H883 C896 0.960 . S
C884 H876 0.929 . S
C884 C885 1.377 1_565 S
C884 C886 1.384 . S
C885 C884 1.377 1_545 S
C885 C891 1.390 . S
C886 H877 0.930 . S
C886 C884 1.384 . S
C886 C887 1.372 1_565 S
C887 C886 1.372 1_545 S
C887 C888 1.400 . S
C887 C892 1.490 . S
C888 H878 0.930 . S
C888 C887 1.400 . S
C888 C891 1.386 . S
H889 C905 0.930 . S
H890 C906 0.931 . S
C891 H879 0.929 . S
C891 C885 1.390 . S
C891 C888 1.386 . S
C892 C887 1.490 . S
C892 C894 1.395 1_545 S
C892 C895 1.403 . S
H893 C899 0.930 . S
C894 H880 0.930 . S
C894 C892 1.395 1_565 S
C894 C897 1.403 . S
C895 C892 1.403 . S
C895 C896 1.524 . S
C895 C899 1.400 . S
C896 H881 0.953 1_556 S
C896 H882 0.960 1_556 S
C896 H883 0.960 . S
C896 C895 1.524 . S
C897 C894 1.403 . S
C897 C898 1.392 1_565 S
C897 C901 1.495 . S
C898 C897 1.392 1_545 S
C898 C899 1.385 . S
C898 C900 1.478 . S
C899 H893 0.930 . S
C899 C895 1.400 . S
C899 C898 1.385 . S
C900 C898 1.478 . S
C900 C902 1.381 1_545 S
C900 C906 1.383 . S
C901 C897 1.495 . S
C901 H907 0.959 . S
C901 H908 0.961 . S
C901 H909 0.960 . S
C902 C900 1.381 1_565 S
C902 C903 1.394 . S
C902 H910 0.930 . S
C903 C902 1.394 . S
C903 C904 1.383 1_565 S
C903 H911 0.929 . S
C904 C903 1.383 1_545 S
C904 C905 1.377 . S
C905 H889 0.930 . S
C905 C904 1.377 . S
C905 C906 1.379 . S
C906 H890 0.931 . S
C906 C900 1.383 . S
C906 C905 1.379 . S
H907 C901 0.959 . S
H908 C901 0.961 . S
H909 C901 0.960 . S
H910 C902 0.930 . S
H911 C903 0.929 . S
H912 C920 0.929 . S
H913 C922 0.930 . S
H914 C924 0.930 . S
H915 C927 0.929 . S
H916 C930 0.930 . S
H917 C932 0.960 . S
H918 C932 0.960 . S
H919 C932 0.960 . S
C920 H912 0.929 . S
C920 C921 1.377 . S
C920 C922 1.384 . S
C921 C920 1.377 . S
C921 C927 1.390 . S
C922 H913 0.930 . S
C922 C920 1.384 . S
C922 C923 1.372 . S
C923 C922 1.372 . S
C923 C924 1.400 . S
C923 C928 1.490 . S
C924 H914 0.930 . S
C924 C923 1.400 . S
C924 C927 1.386 . S
H925 C941 0.930 . S
H926 C942 0.931 . S
C927 H915 0.929 . S
C927 C921 1.390 . S
C927 C924 1.386 . S
C928 C923 1.490 . S
C928 C930 1.395 . S
C928 C931 1.403 . S
H929 C935 0.930 . S
C930 H916 0.930 . S
C930 C928 1.395 . S
C930 C933 1.403 . S
C931 C928 1.403 . S
C931 C932 1.524 . S
C931 C935 1.400 . S
C932 H917 0.960 . S
C932 H918 0.960 . S
C932 H919 0.960 . S
C932 C931 1.524 . S
C933 C930 1.403 . S
C933 C934 1.392 . S
C933 C937 1.495 . S
C934 C933 1.392 . S
C934 C935 1.385 . S
C934 C936 1.478 . S
C935 H929 0.930 . S
C935 C931 1.400 . S
C935 C934 1.385 . S
C936 C934 1.478 . S
C936 C938 1.381 . S
C936 C942 1.383 . S
C937 C933 1.495 . S
C937 H943 0.959 . S
C937 H944 0.961 . S
C937 H945 0.960 . S
C938 C936 1.381 . S
C938 C939 1.394 . S
C938 H946 0.930 . S
C939 C938 1.394 . S
C939 C940 1.383 . S
C939 H947 0.929 . S
C940 C939 1.383 . S
C940 C941 1.377 . S
C941 H925 0.930 . S
C941 C940 1.377 . S
C941 C942 1.379 . S
C942 H926 0.931 . S
C942 C936 1.383 . S
C942 C941 1.379 . S
H943 C937 0.959 . S
H944 C937 0.961 . S
H945 C937 0.960 . S
H946 C938 0.930 . S
H947 C939 0.929 . S
H948 C956 0.929 . S
H949 C958 0.930 . S
H950 C960 0.930 . S
H951 C963 0.929 . S
H952 C966 0.930 . S
H953 C968 0.960 . S
H954 C968 0.960 . S
H955 C968 0.960 . S
C956 H948 0.929 . S
C956 C957 1.377 . S
C956 C958 1.384 . S
C957 C956 1.377 . S
C957 C963 1.390 . S
C958 H949 0.930 . S
C958 C956 1.384 . S
C958 C959 1.372 . S
C959 C958 1.372 . S
C959 C960 1.400 . S
C959 C964 1.490 . S
C960 H950 0.930 . S
C960 C959 1.400 . S
C960 C963 1.386 . S
H961 C977 0.930 . S
H962 C978 0.931 . S
C963 H951 0.929 . S
C963 C957 1.390 . S
C963 C960 1.386 . S
C964 C959 1.490 . S
C964 C966 1.395 . S
C964 C967 1.403 . S
H965 C971 0.930 . S
C966 H952 0.930 . S
C966 C964 1.395 . S
C966 C969 1.403 . S
C967 C964 1.403 . S
C967 C968 1.524 . S
C967 C971 1.400 . S
C968 H953 0.960 . S
C968 H954 0.960 . S
C968 H955 0.960 . S
C968 C967 1.524 . S
C969 C966 1.403 . S
C969 C970 1.392 . S
C969 C973 1.495 . S
C970 C969 1.392 . S
C970 C971 1.385 . S
C970 C972 1.478 . S
C971 H965 0.930 . S
C971 C967 1.400 . S
C971 C970 1.385 . S
C972 C970 1.478 . S
C972 C974 1.381 . S
C972 C978 1.383 . S
C973 C969 1.495 . S
C973 H979 0.959 1_556 S
C973 H980 0.961 . S
C973 H981 0.960 . S
C974 C972 1.381 . S
C974 C975 1.394 . S
C974 H982 0.930 . S
C975 C974 1.394 . S
C975 C976 1.383 . S
C975 H983 0.929 . S
C976 C975 1.383 . S
C976 C977 1.377 . S
C977 H961 0.930 . S
C977 C976 1.377 . S
C977 C978 1.379 . S
C978 H962 0.931 . S
C978 C972 1.383 . S
C978 C977 1.379 . S
H979 C973 0.959 1_554 S
H980 C973 0.961 . S
H981 C973 0.960 . S
H982 C974 0.930 . S
H983 C975 0.929 . S
H984 C992 0.931 . S
H985 C994 0.930 . S
H986 C996 0.930 . S
H987 C999 0.929 . S
H988 C1002 0.930 . S
H989 C1004 0.960 . S
H990 C1004 0.960 . S
H991 C1004 0.960 . S
C992 H984 0.931 . S
C992 C993 1.377 . S
C992 C994 1.384 . S
C993 C992 1.377 . S
C993 C999 1.390 . S
C994 H985 0.930 . S
C994 C992 1.384 . S
C994 C995 1.372 . S
C995 C994 1.372 . S
C995 C996 1.400 . S
C995 C1000 1.490 . S
C996 H986 0.930 . S
C996 C995 1.400 . S
C996 C999 1.386 . S
H997 C1013 0.930 . S
H998 C1014 0.931 . S
C999 H987 0.929 . S
C999 C993 1.390 . S
C999 C996 1.386 . S
C1000 C995 1.490 . S
C1000 C1002 1.395 . S
C1000 C1003 1.403 1_655 S
H1001 C1007 0.930 . S
C1002 H988 0.930 . S
C1002 C1000 1.395 . S
C1002 C1005 1.403 . S
C1003 C1000 1.403 1_455 S
C1003 C1004 1.524 . S
C1003 C1007 1.400 . S
C1004 H989 0.960 . S
C1004 H990 0.960 . S
C1004 H991 0.960 . S
C1004 C1003 1.524 . S
C1005 C1002 1.403 . S
C1005 C1006 1.392 . S
C1005 C1009 1.495 . S
C1006 C1005 1.392 . S
C1006 C1007 1.385 1_655 S
C1006 C1008 1.478 . S
C1007 H1001 0.930 . S
C1007 C1003 1.400 . S
C1007 C1006 1.385 1_455 S
C1008 C1006 1.478 . S
C1008 C1010 1.381 . S
C1008 C1014 1.383 . S
C1009 C1005 1.495 . S
C1009 H1015 0.959 . S
C1009 H1016 0.961 . S
C1009 H1017 0.960 . S
C1010 C1008 1.381 . S
C1010 C1011 1.394 . S
C1010 H1018 0.930 . S
C1011 C1010 1.394 . S
C1011 C1012 1.383 . S
C1011 H1019 0.929 . S
C1012 C1011 1.383 . S
C1012 C1013 1.377 . S
C1013 H997 0.930 . S
C1013 C1012 1.377 . S
C1013 C1014 1.379 . S
C1014 H998 0.931 . S
C1014 C1008 1.383 . S
C1014 C1013 1.379 . S
H1015 C1009 0.959 . S
H1016 C1009 0.961 . S
H1017 C1009 0.960 . S
H1018 C1010 0.930 . S
H1019 C1011 0.929 . S
H1020 C1028 0.929 . S
H1021 C1030 0.930 . S
H1022 C1032 0.930 . S
H1023 C1035 0.929 . S
H1024 C1038 0.930 . S
H1025 C1040 0.960 . S
H1026 C1040 0.960 . S
H1027 C1040 0.960 . S
C1028 H1020 0.929 . S
C1028 C1029 1.377 . S
C1028 C1030 1.384 . S
C1029 C1028 1.377 . S
C1029 C1035 1.390 1_565 S
C1030 H1021 0.930 . S
C1030 C1028 1.384 . S
C1030 C1031 1.372 . S
C1031 C1030 1.372 . S
C1031 C1032 1.400 1_565 S
C1031 C1036 1.490 . S
C1032 H1022 0.930 . S
C1032 C1031 1.400 1_545 S
C1032 C1035 1.386 . S
H1033 C1049 0.930 . S
H1034 C1050 0.931 . S
C1035 H1023 0.929 . S
C1035 C1029 1.390 1_545 S
C1035 C1032 1.386 . S
C1036 C1031 1.490 . S
C1036 C1038 1.395 . S
C1036 C1039 1.403 1_565 S
H1037 C1043 0.930 . S
C1038 H1024 0.930 . S
C1038 C1036 1.395 . S
C1038 C1041 1.403 . S
C1039 C1036 1.403 1_545 S
C1039 C1040 1.524 . S
C1039 C1043 1.400 . S
C1040 H1025 0.960 . S
C1040 H1026 0.960 . S
C1040 H1027 0.960 . S
C1040 C1039 1.524 . S
C1041 C1038 1.403 . S
C1041 C1042 1.392 . S
C1041 C1045 1.495 . S
C1042 C1041 1.392 . S
C1042 C1043 1.385 1_565 S
C1042 C1044 1.478 . S
C1043 H1037 0.930 . S
C1043 C1039 1.400 . S
C1043 C1042 1.385 1_545 S
C1044 C1042 1.478 . S
C1044 C1046 1.381 . S
C1044 C1050 1.383 . S
C1045 C1041 1.495 . S
C1045 H1051 0.959 . S
C1045 H1052 0.961 . S
C1045 H1053 0.960 . S
C1046 C1044 1.381 . S
C1046 C1047 1.394 . S
C1046 H1054 0.930 . S
C1047 C1046 1.394 . S
C1047 C1048 1.383 . S
C1047 H1055 0.929 . S
C1048 C1047 1.383 . S
C1048 C1049 1.377 . S
C1049 H1033 0.930 . S
C1049 C1048 1.377 . S
C1049 C1050 1.379 . S
C1050 H1034 0.931 . S
C1050 C1044 1.383 . S
C1050 C1049 1.379 . S
H1051 C1045 0.959 . S
H1052 C1045 0.961 . S
H1053 C1045 0.960 . S
H1054 C1046 0.930 . S
H1055 C1047 0.929 . S
H1056 C1064 0.929 . S
H1057 C1066 0.930 . S
H1058 C1068 0.930 . S
H1059 C1071 0.929 . S
H1060 C1074 0.930 . S
H1061 C1076 0.960 . S
H1062 C1076 0.960 . S
H1063 C1076 0.960 . S
C1064 H1056 0.929 . S
C1064 C1065 1.377 . S
C1064 C1066 1.384 . S
C1065 C1064 1.377 . S
C1065 C1071 1.390 . S
C1066 H1057 0.930 . S
C1066 C1064 1.384 . S
C1066 C1067 1.372 . S
C1067 C1066 1.372 . S
C1067 C1068 1.400 . S
C1067 C1072 1.490 . S
C1068 H1058 0.930 . S
C1068 C1067 1.400 . S
C1068 C1071 1.386 . S
H1069 C1085 0.930 . S
H1070 C1086 0.931 . S
C1071 H1059 0.929 . S
C1071 C1065 1.390 . S
C1071 C1068 1.386 . S
C1072 C1067 1.490 . S
C1072 C1074 1.395 . S
C1072 C1075 1.403 . S
H1073 C1079 0.930 . S
C1074 H1060 0.930 . S
C1074 C1072 1.395 . S
C1074 C1077 1.403 . S
C1075 C1072 1.403 . S
C1075 C1076 1.524 . S
C1075 C1079 1.400 . S
C1076 H1061 0.960 . S
C1076 H1062 0.960 . S
C1076 H1063 0.960 . S
C1076 C1075 1.524 . S
C1077 C1074 1.403 . S
C1077 C1078 1.392 . S
C1077 C1081 1.495 . S
C1078 C1077 1.392 . S
C1078 C1079 1.385 . S
C1078 C1080 1.478 . S
C1079 H1073 0.930 . S
C1079 C1075 1.400 . S
C1079 C1078 1.385 . S
C1080 C1078 1.478 . S
C1080 C1082 1.381 . S
C1080 C1086 1.383 . S
C1081 C1077 1.495 . S
C1081 H1087 0.959 . S
C1081 H1088 0.961 . S
C1081 H1089 0.960 . S
C1082 C1080 1.381 . S
C1082 C1083 1.394 . S
C1082 H1090 0.930 . S
C1083 C1082 1.394 . S
C1083 C1084 1.383 . S
C1083 H1091 0.929 . S
C1084 C1083 1.383 . S
C1084 C1085 1.377 . S
C1085 H1069 0.930 . S
C1085 C1084 1.377 . S
C1085 C1086 1.379 . S
C1086 H1070 0.931 . S
C1086 C1080 1.383 . S
C1086 C1085 1.379 . S
H1087 C1081 0.959 . S
H1088 C1081 0.961 . S
H1089 C1081 0.960 . S
H1090 C1082 0.930 . S
H1091 C1083 0.929 . S
H1092 C1100 0.929 . S
H1093 C1102 0.930 . S
H1094 C1104 0.930 . S
H1095 C1107 0.929 . S
H1096 C1110 0.930 . S
H1097 C1112 0.960 . S
H1098 C1112 0.960 . S
H1099 C1112 0.960 . S
C1100 H1092 0.929 . S
C1100 C1101 1.377 . S
C1100 C1102 1.384 . S
C1101 C1100 1.377 . S
C1101 C1107 1.390 . S
C1102 H1093 0.930 . S
C1102 C1100 1.384 . S
C1102 C1103 1.372 . S
C1103 C1102 1.372 . S
C1103 C1104 1.400 . S
C1103 C1108 1.490 . S
C1104 H1094 0.930 . S
C1104 C1103 1.400 . S
C1104 C1107 1.386 . S
H1105 C1121 0.930 . S
H1106 C1122 0.931 . S
C1107 H1095 0.929 . S
C1107 C1101 1.390 . S
C1107 C1104 1.386 . S
C1108 C1103 1.490 . S
C1108 C1110 1.395 . S
C1108 C1111 1.403 . S
H1109 C1115 0.930 . S
C1110 H1096 0.930 . S
C1110 C1108 1.395 . S
C1110 C1113 1.403 . S
C1111 C1108 1.403 . S
C1111 C1112 1.524 . S
C1111 C1115 1.400 . S
C1112 H1097 0.960 . S
C1112 H1098 0.960 . S
C1112 H1099 0.960 . S
C1112 C1111 1.524 . S
C1113 C1110 1.403 . S
C1113 C1114 1.392 . S
C1113 C1117 1.495 . S
C1114 C1113 1.392 . S
C1114 C1115 1.385 . S
C1114 C1116 1.478 . S
C1115 H1109 0.930 . S
C1115 C1111 1.400 . S
C1115 C1114 1.385 . S
C1116 C1114 1.478 . S
C1116 C1118 1.381 . S
C1116 C1122 1.383 . S
C1117 C1113 1.495 . S
C1117 H1123 0.959 . S
C1117 H1124 0.961 . S
C1117 H1125 0.960 . S
C1118 C1116 1.381 . S
C1118 C1119 1.394 . S
C1118 H1126 0.930 . S
C1119 C1118 1.394 . S
C1119 C1120 1.383 . S
C1119 H1127 0.929 . S
C1120 C1119 1.383 . S
C1120 C1121 1.377 . S
C1121 H1105 0.930 . S
C1121 C1120 1.377 . S
C1121 C1122 1.379 . S
C1122 H1106 0.931 . S
C1122 C1116 1.383 . S
C1122 C1121 1.379 . S
H1123 C1117 0.959 . S
H1124 C1117 0.961 . S
H1125 C1117 0.960 . S
H1126 C1118 0.930 . S
H1127 C1119 0.929 . S
C273 C82 1.611 . S
C292 C113 1.796 1_545 S
C328 C153 1.794 . S
C309 C95 1.610 . S
C364 C193 1.813 . S
C345 C56 1.595 . S
C400 C233 1.788 1_455 S
C381 C69 1.610 . S
C436 C122 1.791 1_565 S
C417 C30 1.602 1_565 S
C453 C43 1.611 . S
C472 C162 1.805 . S
C489 C4 1.603 . S
C508 C202 1.814 . S
C525 C17 1.606 1_655 S
C544 C242 1.800 1_655 S
C580 C119 0.310 . S
C561 C74 0.384 . S
C616 C159 0.305 . S
C597 C87 0.382 . S
C652 C199 0.273 . S
C633 C100 0.373 . S
C669 C61 0.383 . S
C688 C239 0.309 . S
C705 C22 0.404 . S
C724 C110 0.372 . S
C760 C150 0.290 . S
C741 C35 0.423 . S
C796 C190 0.264 . S
C777 C48 0.404 . S
C813 C9 0.405 . S
C832 C230 0.264 . S
C849 C73 1.858 . S
C868 C123 2.025 . S
C885 C86 1.859 . S
C904 C163 2.036 . S
C940 C203 2.047 . S
C921 C99 1.871 . S
C976 C243 2.035 . S
C957 C60 1.866 . S
C993 C21 1.863 . S
C1012 C114 2.052 . S
C1048 C154 2.053 . S
C1029 C34 1.861 . S
C1084 C194 2.051 . S
C1065 C47 1.860 . S
C1101 C8 1.868 . S
C1120 C234 2.031 . S
