# Generated by pormake.
# Topology eea, (3,6)-cn, num edge types: 1
# Building blocks:
#     Node 0, Type 0, BuildingBlock: PAMTOO_clean_linker_0, # of connection points: 3
#     Node 1, Type 0, BuildingBlock: PAMTOO_clean_linker_0, # of connection points: 3
#     Node 2, Type 0, BuildingBlock: PAMTOO_clean_linker_0, # of connection points: 3
#     Node 3, Type 0, BuildingBlock: PAMTOO_clean_linker_0, # of connection points: 3
#     Node 4, Type 0, BuildingBlock: PAMTOO_clean_linker_0, # of connection points: 3
#     Node 5, Type 0, BuildingBlock: PAMTOO_clean_linker_0, # of connection points: 3
#     Node 6, Type 0, BuildingBlock: PAMTOO_clean_linker_0, # of connection points: 3
#     Node 7, Type 0, BuildingBlock: PAMTOO_clean_linker_0, # of connection points: 3
#     Node 8, Type 0, BuildingBlock: PAMTOO_clean_linker_0, # of connection points: 3
#     Node 9, Type 0, BuildingBlock: PAMTOO_clean_linker_0, # of connection points: 3
#     Node 10, Type 0, BuildingBlock: PAMTOO_clean_linker_0, # of connection points: 3
#     Node 11, Type 0, BuildingBlock: PAMTOO_clean_linker_0, # of connection points: 3
#     Node 12, Type 0, BuildingBlock: PAMTOO_clean_linker_0, # of connection points: 3
#     Node 13, Type 0, BuildingBlock: PAMTOO_clean_linker_0, # of connection points: 3
#     Node 14, Type 0, BuildingBlock: PAMTOO_clean_linker_0, # of connection points: 3
#     Node 15, Type 0, BuildingBlock: PAMTOO_clean_linker_0, # of connection points: 3
#     Node 16, Type 0, BuildingBlock: PAMTOO_clean_linker_0, # of connection points: 3
#     Node 17, Type 0, BuildingBlock: PAMTOO_clean_linker_0, # of connection points: 3
#     Node 18, Type 1, BuildingBlock: CUKXOW_clean_sbu_0, # of connection points: 6
#     Node 19, Type 1, BuildingBlock: CUKXOW_clean_sbu_0, # of connection points: 6
#     Node 20, Type 1, BuildingBlock: CUKXOW_clean_sbu_0, # of connection points: 6
#     Node 21, Type 1, BuildingBlock: CUKXOW_clean_sbu_0, # of connection points: 6
#     Node 22, Type 1, BuildingBlock: CUKXOW_clean_sbu_0, # of connection points: 6
#     Node 23, Type 1, BuildingBlock: CUKXOW_clean_sbu_0, # of connection points: 6
#     Node 24, Type 1, BuildingBlock: CUKXOW_clean_sbu_0, # of connection points: 6
#     Node 25, Type 1, BuildingBlock: CUKXOW_clean_sbu_0, # of connection points: 6
#     Node 26, Type 1, BuildingBlock: CUKXOW_clean_sbu_0, # of connection points: 6
#     Edge 27, Type (0, 1), BuildingBlock: XUDNAN_clean_linker_2, # of connection points: 2
#     Edge 28, Type (0, 1), BuildingBlock: XUDNAN_clean_linker_2, # of connection points: 2
#     Edge 29, Type (0, 1), BuildingBlock: XUDNAN_clean_linker_2, # of connection points: 2
#     Edge 30, Type (0, 1), BuildingBlock: XUDNAN_clean_linker_2, # of connection points: 2
#     Edge 31, Type (0, 1), BuildingBlock: XUDNAN_clean_linker_2, # of connection points: 2
#     Edge 32, Type (0, 1), BuildingBlock: XUDNAN_clean_linker_2, # of connection points: 2
#     Edge 33, Type (0, 1), BuildingBlock: XUDNAN_clean_linker_2, # of connection points: 2
#     Edge 34, Type (0, 1), BuildingBlock: XUDNAN_clean_linker_2, # of connection points: 2
#     Edge 35, Type (0, 1), BuildingBlock: XUDNAN_clean_linker_2, # of connection points: 2
#     Edge 36, Type (0, 1), BuildingBlock: XUDNAN_clean_linker_2, # of connection points: 2
#     Edge 37, Type (0, 1), BuildingBlock: XUDNAN_clean_linker_2, # of connection points: 2
#     Edge 38, Type (0, 1), BuildingBlock: XUDNAN_clean_linker_2, # of connection points: 2
#     Edge 39, Type (0, 1), BuildingBlock: XUDNAN_clean_linker_2, # of connection points: 2
#     Edge 40, Type (0, 1), BuildingBlock: XUDNAN_clean_linker_2, # of connection points: 2
#     Edge 41, Type (0, 1), BuildingBlock: XUDNAN_clean_linker_2, # of connection points: 2
#     Edge 42, Type (0, 1), BuildingBlock: XUDNAN_clean_linker_2, # of connection points: 2
#     Edge 43, Type (0, 1), BuildingBlock: XUDNAN_clean_linker_2, # of connection points: 2
#     Edge 44, Type (0, 1), BuildingBlock: XUDNAN_clean_linker_2, # of connection points: 2
#     Edge 45, Type (0, 1), BuildingBlock: XUDNAN_clean_linker_2, # of connection points: 2
#     Edge 46, Type (0, 1), BuildingBlock: XUDNAN_clean_linker_2, # of connection points: 2
#     Edge 47, Type (0, 1), BuildingBlock: XUDNAN_clean_linker_2, # of connection points: 2
#     Edge 48, Type (0, 1), BuildingBlock: XUDNAN_clean_linker_2, # of connection points: 2
#     Edge 49, Type (0, 1), BuildingBlock: XUDNAN_clean_linker_2, # of connection points: 2
#     Edge 50, Type (0, 1), BuildingBlock: XUDNAN_clean_linker_2, # of connection points: 2
#     Edge 51, Type (0, 1), BuildingBlock: XUDNAN_clean_linker_2, # of connection points: 2
#     Edge 52, Type (0, 1), BuildingBlock: XUDNAN_clean_linker_2, # of connection points: 2
#     Edge 53, Type (0, 1), BuildingBlock: XUDNAN_clean_linker_2, # of connection points: 2
#     Edge 54, Type (0, 1), BuildingBlock: XUDNAN_clean_linker_2, # of connection points: 2
#     Edge 55, Type (0, 1), BuildingBlock: XUDNAN_clean_linker_2, # of connection points: 2
#     Edge 56, Type (0, 1), BuildingBlock: XUDNAN_clean_linker_2, # of connection points: 2
#     Edge 57, Type (0, 1), BuildingBlock: XUDNAN_clean_linker_2, # of connection points: 2
#     Edge 58, Type (0, 1), BuildingBlock: XUDNAN_clean_linker_2, # of connection points: 2
#     Edge 59, Type (0, 1), BuildingBlock: XUDNAN_clean_linker_2, # of connection points: 2
#     Edge 60, Type (0, 1), BuildingBlock: XUDNAN_clean_linker_2, # of connection points: 2
#     Edge 61, Type (0, 1), BuildingBlock: XUDNAN_clean_linker_2, # of connection points: 2
#     Edge 62, Type (0, 1), BuildingBlock: XUDNAN_clean_linker_2, # of connection points: 2
#     Edge 63, Type (0, 1), BuildingBlock: XUDNAN_clean_linker_2, # of connection points: 2
#     Edge 64, Type (0, 1), BuildingBlock: XUDNAN_clean_linker_2, # of connection points: 2
#     Edge 65, Type (0, 1), BuildingBlock: XUDNAN_clean_linker_2, # of connection points: 2
#     Edge 66, Type (0, 1), BuildingBlock: XUDNAN_clean_linker_2, # of connection points: 2
#     Edge 67, Type (0, 1), BuildingBlock: XUDNAN_clean_linker_2, # of connection points: 2
#     Edge 68, Type (0, 1), BuildingBlock: XUDNAN_clean_linker_2, # of connection points: 2
#     Edge 69, Type (0, 1), BuildingBlock: XUDNAN_clean_linker_2, # of connection points: 2
#     Edge 70, Type (0, 1), BuildingBlock: XUDNAN_clean_linker_2, # of connection points: 2
#     Edge 71, Type (0, 1), BuildingBlock: XUDNAN_clean_linker_2, # of connection points: 2
#     Edge 72, Type (0, 1), BuildingBlock: XUDNAN_clean_linker_2, # of connection points: 2
#     Edge 73, Type (0, 1), BuildingBlock: XUDNAN_clean_linker_2, # of connection points: 2
#     Edge 74, Type (0, 1), BuildingBlock: XUDNAN_clean_linker_2, # of connection points: 2
#     Edge 75, Type (0, 1), BuildingBlock: XUDNAN_clean_linker_2, # of connection points: 2
#     Edge 76, Type (0, 1), BuildingBlock: XUDNAN_clean_linker_2, # of connection points: 2
#     Edge 77, Type (0, 1), BuildingBlock: XUDNAN_clean_linker_2, # of connection points: 2
#     Edge 78, Type (0, 1), BuildingBlock: XUDNAN_clean_linker_2, # of connection points: 2
#     Edge 79, Type (0, 1), BuildingBlock: XUDNAN_clean_linker_2, # of connection points: 2
#     Edge 80, Type (0, 1), BuildingBlock: XUDNAN_clean_linker_2, # of connection points: 2
# Relax obj value: 0.033
# Max RMSD: 0.157
# Mean RMSD: 0.091
data_MOF--net-eea--node1-CUKXOW_clean_sbu_0--node2-PAMTOO_clean_linker_0--edge1-XUDNAN_clean_linker_2
_symmetry_space_group_name_H-M    P1
_symmetry_Int_Tables_number       1
_symmetry_cell_setting            triclinic
loop_
_symmetry_equiv_pos_as_xyz
'x, y, z'
_cell_length_a     59.793122
_cell_length_b     56.356054
_cell_length_c     49.890301
_cell_angle_alpha  93.308012
_cell_angle_beta   93.306783
_cell_angle_gamma 119.94934
loop_
_atom_site_label
_atom_site_type_symbol
_atom_site_fract_x
_atom_site_fract_y
_atom_site_fract_z
_atom_type_partial_charge
H0 H 0.25748 0.08871 0.44879 0.0
H1 H 0.2533 0.16317 0.4493 0.0
H2 H 0.21839 0.10269 0.3816 0.0
H3 H 0.24399 0.15981 0.36662 0.0
C4 C 0.24221 0.17015 0.38536 0.0
O5 O 0.22771 0.15067 0.40224 0.0
H6 H 0.26201 0.18432 0.39561 0.0
C7 C 0.25156 0.10172 0.43922 0.0
C8 C 0.23669 0.09212 0.4139 0.0
C9 C 0.25809 0.12758 0.45244 0.0
C10 C 0.24975 0.1438 0.43949 0.0
C11 C 0.23597 0.13499 0.41394 0.0
C12 C 0.22946 0.10931 0.40124 0.0
H13 H 0.93106 0.1931 0.45372 0.0
H14 H 0.86868 0.1098 0.4532 0.0
H15 H 0.91775 0.1324 0.38853 0.0
H16 H 0.86248 0.09233 0.36964 0.0
C17 C 0.85588 0.08417 0.38921 0.0
O18 O 0.87728 0.0921 0.40749 0.0
H19 H 0.84405 0.09286 0.39686 0.0
C20 C 0.92015 0.17223 0.44401 0.0
C21 C 0.92725 0.16542 0.41959 0.0
C22 C 0.89919 0.15239 0.45628 0.0
C23 C 0.88519 0.12523 0.44414 0.0
C24 C 0.89172 0.11811 0.41961 0.0
C25 C 0.91295 0.13808 0.40755 0.0
H26 H 0.83839 0.74298 0.45578 0.0
H27 H 0.91603 0.75671 0.45647 0.0
H28 H 0.88219 0.77458 0.38797 0.0
H29 H 0.92124 0.7583 0.37173 0.0
C30 C 0.92896 0.75889 0.39272 0.0
O31 O 0.92416 0.77591 0.40951 0.0
H32 H 0.91879 0.73746 0.39857 0.0
C33 C 0.8558 0.74892 0.44581 0.0
C34 C 0.85728 0.75804 0.41998 0.0
C35 C 0.87669 0.74816 0.45929 0.0
C36 C 0.89966 0.75722 0.44666 0.0
C37 C 0.90167 0.7668 0.42107 0.0
C38 C 0.88054 0.76734 0.40781 0.0
H39 H 0.08618 0.27582 0.57252 0.0
H40 H 0.14758 0.25754 0.56806 0.0
H41 H 0.10008 0.23256 0.63395 0.0
H42 H 0.15798 0.25948 0.64778 0.0
C43 C 0.1627 0.25135 0.62942 0.0
O44 O 0.14013 0.23402 0.61297 0.0
H45 H 0.17567 0.26927 0.61863 0.0
C46 C 0.09689 0.26664 0.58086 0.0
C47 C 0.09015 0.25372 0.60479 0.0
C48 C 0.11748 0.26812 0.56752 0.0
C49 C 0.13125 0.25599 0.57786 0.0
C50 C 0.12516 0.24344 0.60194 0.0
C51 C 0.10442 0.24199 0.61519 0.0
H52 H 0.76749 0.82 0.57214 0.0
H53 H 0.77251 0.89829 0.56504 0.0
H54 H 0.80987 0.88676 0.63498 0.0
H55 H 0.78373 0.91805 0.64674 0.0
C56 C 0.78572 0.92795 0.62769 0.0
O57 O 0.80026 0.92155 0.61133 0.0
H58 H 0.76602 0.91997 0.61713 0.0
C59 C 0.77472 0.84115 0.58009 0.0
C60 C 0.78986 0.85139 0.60514 0.0
C61 C 0.76838 0.85795 0.56552 0.0
C62 C 0.77746 0.88521 0.576 0.0
C63 C 0.79213 0.89545 0.60113 0.0
C64 C 0.79837 0.8786 0.61561 0.0
H65 H 0.18616 0.92909 0.57542 0.0
H66 H 0.1141 0.85237 0.57149 0.0
H67 H 0.13137 0.91662 0.63352 0.0
H68 H 0.10162 0.86438 0.65359 0.0
C69 C 0.09478 0.851 0.63416 0.0
O70 O 0.09719 0.86682 0.6132 0.0
H71 H 0.10708 0.84142 0.6321 0.0
C72 C 0.16795 0.91626 0.58361 0.0
C73 C 0.1611 0.92653 0.60616 0.0
C74 C 0.15106 0.88963 0.57102 0.0
C75 C 0.12721 0.87298 0.58106 0.0
C76 C 0.12024 0.88285 0.60358 0.0
C77 C 0.13705 0.90949 0.61598 0.0
H78 H 0.91982 0.41431 0.78376 0.0
H79 H 0.91887 0.49022 0.78414 0.0
H80 H 0.88242 0.42999 0.71597 0.0
H81 H 0.90437 0.48622 0.70075 0.0
C82 C 0.90365 0.49663 0.72003 0.0
O83 O 0.8911 0.47733 0.73779 0.0
H84 H 0.92385 0.51143 0.72889 0.0
C85 C 0.91535 0.42801 0.77333 0.0
C86 C 0.9007 0.4189 0.74786 0.0
C87 C 0.92202 0.45379 0.78652 0.0
C88 C 0.9147 0.47079 0.77377 0.0
C89 C 0.90062 0.46223 0.74836 0.0
C90 C 0.89386 0.43654 0.7354 0.0
H91 H 0.59355 0.53142 0.78365 0.0
H92 H 0.52519 0.45318 0.78975 0.0
H93 H 0.5754 0.46029 0.72913 0.0
H94 H 0.52069 0.42426 0.71031 0.0
C95 C 0.51285 0.41723 0.72982 0.0
O96 O 0.53307 0.42683 0.74998 0.0
H97 H 0.50007 0.42568 0.7347 0.0
C98 C 0.58122 0.50982 0.77657 0.0
C99 C 0.58736 0.49819 0.75437 0.0
C100 C 0.55873 0.49366 0.78926 0.0
C101 C 0.54245 0.46581 0.77994 0.0
C102 C 0.54848 0.45394 0.75826 0.0
C103 C 0.57088 0.47 0.74566 0.0
H104 H 0.50709 0.08072 0.79309 0.0
H105 H 0.57187 0.06772 0.79017 0.0
H106 H 0.55753 0.11008 0.72914 0.0
H107 H 0.57241 0.06691 0.71343 0.0
C108 C 0.58878 0.07436 0.72955 0.0
O109 O 0.58887 0.09394 0.74758 0.0
H110 H 0.58587 0.05638 0.74024 0.0
C111 C 0.52365 0.08324 0.78313 0.0
C112 C 0.53015 0.0971 0.75959 0.0
C113 C 0.53837 0.07226 0.79392 0.0
C114 C 0.5603 0.07593 0.78182 0.0
C115 C 0.56729 0.08992 0.75875 0.0
C116 C 0.55211 0.10009 0.74749 0.0
H117 H 0.74811 0.5832 0.89151 0.0
H118 H 0.82729 0.6011 0.90503 0.0
H119 H 0.77257 0.55714 0.96088 0.0
H120 H 0.82565 0.58844 0.98787 0.0
C121 C 0.83618 0.59255 0.96948 0.0
O122 O 0.81971 0.57474 0.94793 0.0
H123 H 0.84306 0.6143 0.96564 0.0
C124 C 0.76344 0.58253 0.9035 0.0
C125 C 0.75767 0.56956 0.92738 0.0
C126 C 0.78859 0.5945 0.89513 0.0
C127 C 0.80772 0.59224 0.91078 0.0
C128 C 0.8018 0.57854 0.93421 0.0
C129 C 0.77695 0.56762 0.9427 0.0
H130 H 0.42692 0.15599 0.91915 0.0
H131 H 0.44464 0.24003 0.91561 0.0
H132 H 0.46606 0.21566 0.98786 0.0
H133 H 0.44938 0.25746 0.99917 0.0
C134 C 0.45208 0.26553 0.97909 0.0
O135 O 0.46598 0.25642 0.96483 0.0
H136 H 0.43264 0.25777 0.96796 0.0
C137 C 0.43525 0.17696 0.92816 0.0
C138 C 0.44708 0.18353 0.95477 0.0
C139 C 0.43391 0.19694 0.91346 0.0
C140 C 0.44441 0.22378 0.92635 0.0
C141 C 0.45541 0.2303 0.95321 0.0
C142 C 0.45675 0.21021 0.9674 0.0
H143 H 0.85196 0.25125 0.90244 0.0
H144 H 0.77349 0.18999 0.91187 0.0
H145 H 0.81338 0.26179 0.96872 0.0
H146 H 0.76984 0.20878 0.99495 0.0
C147 C 0.7633 0.19693 0.9747 0.0
O148 O 0.76977 0.21527 0.95533 0.0
H149 H 0.77325 0.18476 0.97271 0.0
C150 C 0.83526 0.2437 0.91388 0.0
C151 C 0.83575 0.25992 0.93676 0.0
C152 C 0.81282 0.21871 0.90444 0.0
C153 C 0.79105 0.20906 0.91903 0.0
C154 C 0.79153 0.22421 0.94253 0.0
C155 C 0.8138 0.24962 0.95135 0.0
H156 H 0.58614 0.75321 0.11356 0.0
H157 H 0.58597 0.82938 0.11251 0.0
H158 H 0.54969 0.76831 0.04459 0.0
H159 H 0.58272 0.8255 0.03177 0.0
C160 C 0.57994 0.83679 0.0491 0.0
O161 O 0.56168 0.8179 0.06411 0.0
H162 H 0.5988 0.84914 0.06177 0.0
C163 C 0.57986 0.76587 0.10375 0.0
C164 C 0.56645 0.75703 0.0777 0.0
C165 C 0.58693 0.79193 0.11638 0.0
C166 C 0.57996 0.80895 0.10323 0.0
C167 C 0.56654 0.80041 0.07741 0.0
C168 C 0.55973 0.7745 0.06475 0.0
H169 H 0.27784 0.84786 0.13968 0.0
H170 H 0.20137 0.77624 0.12673 0.0
H171 H 0.25999 0.78204 0.07797 0.0
H172 H 0.2115 0.74651 0.04782 0.0
C173 C 0.19929 0.74683 0.06365 0.0
O174 O 0.21241 0.75089 0.08874 0.0
H175 H 0.19574 0.76415 0.06052 0.0
C176 C 0.26439 0.82806 0.12872 0.0
C177 C 0.27255 0.81717 0.10772 0.0
C178 C 0.23869 0.81349 0.13552 0.0
C179 C 0.22115 0.78772 0.12155 0.0
C180 C 0.22914 0.77629 0.1013 0.0
C181 C 0.25461 0.79099 0.09437 0.0
H182 H 0.17313 0.41024 0.12355 0.0
H183 H 0.25001 0.42145 0.12769 0.0
H184 H 0.22005 0.44013 0.05718 0.0
H185 H 0.25551 0.41666 0.04463 0.0
C186 C 0.26473 0.42066 0.06566 0.0
O187 O 0.25968 0.43883 0.0801 0.0
H188 H 0.25645 0.40074 0.07473 0.0
C189 C 0.19086 0.41588 0.1143 0.0
C190 C 0.19377 0.42518 0.08839 0.0
C191 C 0.21109 0.41458 0.1287 0.0
C192 C 0.23416 0.42216 0.11682 0.0
C193 C 0.23705 0.43078 0.09091 0.0
C194 C 0.21702 0.43239 0.07681 0.0
H195 H 0.42863 0.94861 0.22998 0.0
H196 H 0.49213 0.93339 0.23296 0.0
H197 H 0.44109 0.90869 0.29586 0.0
H198 H 0.49971 0.93898 0.31199 0.0
C199 C 0.50514 0.92985 0.29496 0.0
O200 O 0.48301 0.91119 0.27857 0.0
H201 H 0.51815 0.94701 0.28337 0.0
C202 C 0.43933 0.94028 0.2401 0.0
C203 C 0.4316 0.92803 0.26424 0.0
C204 C 0.46106 0.94234 0.22884 0.0
C205 C 0.47496 0.93133 0.24126 0.0
C206 C 0.46788 0.91937 0.2655 0.0
C207 C 0.4461 0.91751 0.27687 0.0
H208 H 0.10322 0.49157 0.24758 0.0
H209 H 0.11035 0.57041 0.23743 0.0
H210 H 0.14537 0.55913 0.30949 0.0
H211 H 0.1214 0.59196 0.31928 0.0
C212 C 0.12374 0.60166 0.30007 0.0
O213 O 0.13769 0.59424 0.28388 0.0
H214 H 0.10416 0.59429 0.28946 0.0
C215 C 0.11065 0.51292 0.25492 0.0
C216 C 0.12525 0.52341 0.28018 0.0
C217 C 0.10512 0.5297 0.23935 0.0
C218 C 0.11466 0.55728 0.2491 0.0
C219 C 0.12896 0.56779 0.27444 0.0
C220 C 0.13425 0.55087 0.28993 0.0
H221 H 0.51946 0.59735 0.24224 0.0
H222 H 0.44669 0.52086 0.23768 0.0
H223 H 0.46861 0.58087 0.30519 0.0
H224 H 0.44694 0.52061 0.31549 0.0
C225 C 0.43089 0.51177 0.29886 0.0
O226 O 0.43318 0.5321 0.28314 0.0
H227 H 0.43244 0.49575 0.28637 0.0
C228 C 0.50166 0.58383 0.25072 0.0
C229 C 0.4962 0.59273 0.27517 0.0
C230 C 0.48414 0.55779 0.23697 0.0
C231 C 0.4609 0.54067 0.24809 0.0
C232 C 0.45557 0.54892 0.27271 0.0
C233 C 0.47313 0.5748 0.28618 0.0
Tb234 Tb 0.5333 0.03163 0.01058 0.0
C235 C 0.52475 0.97154 0.01378 0.0
Tb236 Tb 0.47834 0.98293 0.01505 0.0
O237 O 0.53522 0.04691 0.05272 0.0
O238 O 0.51346 1.00507 0.03996 0.0
O239 O 0.53913 0.99618 0.00522 0.0
C240 C 0.43409 0.94524 0.03289 0.0
O241 O 0.50206 0.9641 0.02321 0.0
C242 C 0.49191 0.99189 0.96573 0.0
C243 C 0.48713 0.0435 0.01071 0.0
O244 O 0.44489 0.94129 0.01263 0.0
O245 O 0.4479 0.97081 0.04292 0.0
O246 O 0.47429 0.96815 0.97218 0.0
O247 O 0.49809 0.00929 0.98562 0.0
O248 O 0.4719 0.01845 0.0184 0.0
O249 O 0.51071 0.05162 0.00326 0.0
C250 C 0.57948 0.06662 0.99434 0.0
O251 O 0.57295 0.06681 0.01867 0.0
O252 O 0.55998 0.04676 0.97914 0.0
C253 C 0.51877 0.02273 0.0594 0.0
Tb254 Tb 0.99048 0.50878 0.02032 0.0
C255 C 0.05048 0.55721 0.02512 0.0
Tb256 Tb 0.03371 0.4946 0.01377 0.0
O257 O 0.98462 0.49481 0.06061 0.0
O258 O 0.02066 0.50989 0.04544 0.0
O259 O 0.02545 0.54965 0.02329 0.0
C260 C 0.06662 0.47613 0.02283 0.0
O261 O 0.05858 0.5391 0.02359 0.0
C262 C 0.01375 0.50293 0.96905 0.0
C263 C 0.97417 0.44653 0.0076 0.0
O264 O 0.05972 0.4808 0.99949 0.0
O265 O 0.05498 0.48184 0.04112 0.0
O266 O 0.03702 0.5064 0.97187 0.0
O267 O 1.00302 0.49283 0.98958 0.0
O268 O 0.99882 0.45342 0.01382 0.0
O269 O 0.96717 0.46537 0.00503 0.0
C270 C 0.96194 0.53166 0.00799 0.0
O271 O 0.98305 0.53647 0.99774 0.0
O272 O 0.95667 0.51377 0.02552 0.0
C273 C 1.00768 0.49784 0.06435 0.0
Tb274 Tb 0.49312 0.50732 0.01405 0.0
C275 C 0.51252 0.46437 0.00748 0.0
Tb276 Tb 0.55154 0.52952 0.01153 0.0
O277 O 0.48997 0.5218 0.97481 0.0
O278 O 0.5178 0.51089 0.98384 0.0
O279 O 0.49247 0.46803 0.01098 0.0
C280 C 0.59735 0.53946 0.9967 0.0
O281 O 0.53656 0.48515 0.00649 0.0
C282 C 0.53635 0.53093 0.0595 0.0
C283 C 0.53202 0.57133 0.01672 0.0
O284 O 0.5887 0.53089 0.01957 0.0
O285 O 0.58037 0.54268 0.9825 0.0
O286 O 0.55901 0.54913 0.05311 0.0
O287 O 0.52459 0.51267 0.04013 0.0
O288 O 0.54913 0.56628 0.00582 0.0
O289 O 0.51047 0.55166 0.02532 0.0
C290 C 0.44671 0.48801 0.03243 0.0
O291 O 0.46888 0.50439 0.04626 0.0
O292 O 0.45061 0.48229 0.0081 0.0
C293 C 0.50998 0.52126 0.96658 0.0
Tb294 Tb 0.20358 0.36687 0.35736 0.0
C295 C 0.18381 0.30259 0.35319 0.0
Tb296 Tb 0.14478 0.32499 0.34892 0.0
O297 O 0.20058 0.37722 0.39941 0.0
O298 O 0.17509 0.33807 0.38038 0.0
O299 O 0.20363 0.32786 0.35169 0.0
C300 C 0.0951 0.29527 0.35877 0.0
O301 O 0.15989 0.29757 0.35593 0.0
C302 C 0.16753 0.34063 0.3041 0.0
C303 C 0.16465 0.38902 0.35239 0.0
O304 O 0.10673 0.28685 0.34287 0.0
O305 O 0.11133 0.32031 0.36881 0.0
O306 O 0.14521 0.31836 0.30465 0.0
O307 O 0.17306 0.35377 0.32682 0.0
O308 O 0.14565 0.3643 0.35697 0.0
O309 O 0.18793 0.3934 0.34719 0.0
C310 C 0.25407 0.3999 0.35231 0.0
O311 O 0.24159 0.40241 0.37166 0.0
O312 O 0.23819 0.37841 0.33587 0.0
C313 C 0.17984 0.35385 0.40142 0.0
Tb314 Tb 0.6604 0.8464 0.34554 0.0
C315 C 0.72117 0.88776 0.35081 0.0
Tb316 Tb 0.69677 0.82352 0.34047 0.0
O317 O 0.6514 0.82982 0.3848 0.0
O318 O 0.68775 0.84304 0.37169 0.0
O319 O 0.69784 0.88465 0.3445 0.0
C320 C 0.72452 0.79931 0.35178 0.0
O321 O 0.72428 0.86639 0.35462 0.0
C322 C 0.68317 0.83644 0.29498 0.0
C323 C 0.63535 0.7821 0.33536 0.0
O324 O 0.73048 0.81837 0.3356 0.0
O325 O 0.70282 0.79364 0.36125 0.0
O326 O 0.70452 0.83594 0.29977 0.0
O327 O 0.66944 0.8266 0.31403 0.0
O328 O 0.65893 0.78505 0.33867 0.0
O329 O 0.63166 0.8034 0.33441 0.0
C330 C 0.62953 0.86812 0.34041 0.0
O331 O 0.63778 0.86318 0.36282 0.0
O332 O 0.63928 0.86151 0.32066 0.0
C333 C 0.67368 0.8315 0.38996 0.0
Tb334 Tb 0.15899 0.8389 0.34926 0.0
C335 C 0.18097 0.79801 0.34323 0.0
Tb336 Tb 0.21808 0.86282 0.34913 0.0
O337 O 0.1562 0.84851 0.30746 0.0
O338 O 0.18503 0.84075 0.32132 0.0
O339 O 0.16126 0.80114 0.34986 0.0
C340 C 0.26584 0.88557 0.33314 0.0
O341 O 0.20352 0.81911 0.3381 0.0
C342 C 0.2006 0.8534 0.39668 0.0
C343 C 0.19548 0.90365 0.35448 0.0
O344 O 0.25698 0.86777 0.35076 0.0
O345 O 0.24798 0.8909 0.32486 0.0
O346 O 0.22205 0.85456 0.39099 0.0
O347 O 0.19236 0.86113 0.37726 0.0
O348 O 0.2158 0.90079 0.34985 0.0
O349 O 0.17229 0.88248 0.35769 0.0
C350 C 0.11087 0.81713 0.36465 0.0
O351 O 0.11749 0.82484 0.34094 0.0
O352 O 0.13127 0.82118 0.3795 0.0
C353 C 0.17737 0.84892 0.30189 0.0
Tb354 Tb 0.86591 0.68964 0.67915 0.0
C355 C 0.8424 0.62602 0.68287 0.0
Tb356 Tb 0.8057 0.65196 0.6771 0.0
O357 O 0.87099 0.68296 0.72145 0.0
O358 O 0.83678 0.68035 0.70542 0.0
O359 O 0.86271 0.64941 0.67756 0.0
C360 C 0.75683 0.61788 0.68762 0.0
O361 O 0.81912 0.62306 0.6852 0.0
C362 C 0.82413 0.66689 0.63047 0.0
C363 C 0.82856 0.71492 0.67413 0.0
O364 O 0.76588 0.61898 0.6644 0.0
O365 O 0.77536 0.63607 0.70506 0.0
O366 O 0.80051 0.6597 0.63509 0.0
O367 O 0.83487 0.66237 0.65049 0.0
O368 O 0.80914 0.69223 0.68202 0.0
O369 O 0.85117 0.71727 0.6689 0.0
C370 C 0.91456 0.7198 0.66627 0.0
O371 O 0.90384 0.72803 0.68367 0.0
O372 O 0.89795 0.6948 0.65639 0.0
C373 C 0.84737 0.67614 0.72562 0.0
Tb374 Tb 0.32436 0.17798 0.68686 0.0
C375 C 0.38352 0.21902 0.69508 0.0
Tb376 Tb 0.3604 0.15378 0.6837 0.0
O377 O 0.33735 0.19215 0.72972 0.0
O378 O 0.33742 0.15756 0.7124 0.0
O379 O 0.36072 0.21632 0.6872 0.0
C380 C 0.39875 0.14256 0.69232 0.0
O381 O 0.38657 0.19746 0.69821 0.0
C382 C 0.34012 0.15696 0.63724 0.0
C383 C 0.30071 0.11296 0.67557 0.0
O384 O 0.39829 0.15926 0.67577 0.0
O385 O 0.37729 0.13166 0.70373 0.0
O386 O 0.34718 0.13898 0.64121 0.0
O387 O 0.34727 0.17394 0.65793 0.0
O388 O 0.32356 0.11521 0.68252 0.0
O389 O 0.29777 0.13463 0.67324 0.0
C390 C 0.28658 0.18999 0.67834 0.0
O391 O 0.28907 0.17704 0.6979 0.0
O392 O 0.30568 0.19662 0.66356 0.0
C393 C 0.34412 0.1739 0.73352 0.0
Tb394 Tb 0.81637 0.16434 0.67274 0.0
C395 C 0.83837 0.12323 0.67114 0.0
Tb396 Tb 0.87527 0.18782 0.6826 0.0
O397 O 0.82053 0.17875 0.63264 0.0
O398 O 0.84645 0.16799 0.64941 0.0
O399 O 0.81774 0.12607 0.6736 0.0
C400 C 0.92534 0.21211 0.67374 0.0
O401 O 0.86204 0.14469 0.6705 0.0
C402 C 0.85059 0.17643 0.72648 0.0
C403 C 0.85307 0.22886 0.68508 0.0
O404 O 0.91389 0.1921 0.68874 0.0
O405 O 0.90874 0.21867 0.66415 0.0
O406 O 0.8733 0.17881 0.72524 0.0
O407 O 0.84537 0.18431 0.70527 0.0
O408 O 0.87361 0.22601 0.68192 0.0
O409 O 0.82944 0.20731 0.68605 0.0
C410 C 0.76516 0.14146 0.67575 0.0
O411 O 0.77799 0.15636 0.65719 0.0
O412 O 0.7811 0.13886 0.69246 0.0
C413 C 0.84192 0.17868 0.62993 0.0
H414 H 0.30337 0.87367 0.10609 0.0
H415 H 0.30292 0.79682 0.08976 0.0
H416 H 0.34437 0.82165 0.07015 0.0
H417 H 0.32986 0.90398 0.0483 0.0
H418 H 0.35062 0.93835 0.0645 0.0
H419 H 0.32139 0.91509 0.07875 0.0
H420 H 0.34795 0.92171 0.12429 0.0
H421 H 0.37725 0.94531 0.11025 0.0
H422 H 0.37492 0.91575 0.12487 0.0
H423 H 0.38292 0.85336 0.04771 0.0
H424 H 0.4195 0.89135 0.02854 0.0
H425 H 0.39851 0.94903 0.06322 0.0
C426 C 0.31221 0.86207 0.09902 0.0
C427 C 0.29934 0.83302 0.09909 0.0
C428 C 0.31174 0.81885 0.08927 0.0
C429 C 0.3355 0.83283 0.07829 0.0
C430 C 0.34716 0.8612 0.07779 0.0
C431 C 0.33631 0.87583 0.08843 0.0
C432 C 0.35302 0.90631 0.08514 0.0
C433 C 0.33781 0.91652 0.06816 0.0
C434 C 0.36393 0.92327 0.11279 0.0
C435 C 0.37441 0.90627 0.07015 0.0
C436 C 0.3705 0.87994 0.0661 0.0
C437 C 0.38647 0.87414 0.05118 0.0
C438 C 0.40708 0.89582 0.04022 0.0
C439 C 0.41184 0.92305 0.04452 0.0
C440 C 0.39543 0.9284 0.05991 0.0
H441 H 0.16406 0.44514 0.10952 0.0
H442 H 0.17721 0.41344 0.03431 0.0
H443 H 0.14571 0.42247 0.00963 0.0
H444 H 0.09434 0.41693 0.09314 0.0
H445 H 0.09488 0.44653 0.10968 0.0
H446 H 0.11787 0.43672 0.12153 0.0
H447 H 0.15556 0.48563 0.11604 0.0
H448 H 0.13274 0.49549 0.10384 0.0
H449 H 0.15813 0.4991 0.08373 0.0
H450 H 0.11471 0.43727 0.99274 0.0
H451 H 0.0844 0.4546 0.98512 0.0
H452 H 0.08975 0.47477 0.07135 0.0
C453 C 0.15996 0.43957 0.08793 0.0
C454 C 0.17324 0.42863 0.07387 0.0
C455 C 0.16761 0.42218 0.04551 0.0
C456 C 0.14963 0.4271 0.03132 0.0
C457 C 0.13723 0.43828 0.04574 0.0
C458 C 0.14195 0.44421 0.07344 0.0
C459 C 0.12633 0.45659 0.08401 0.0
C460 C 0.10722 0.43808 0.10322 0.0
C461 C 0.14426 0.48594 0.09771 0.0
C462 C 0.1122 0.45681 0.05788 0.0
C463 C 0.11888 0.44627 0.03605 0.0
C464 C 0.10913 0.4453 0.0097 0.0
C465 C 0.09201 0.45524 0.00555 0.0
C466 C 0.08467 0.46579 0.02764 0.0
C467 C 0.09486 0.46651 0.05413 0.0
H468 H 0.54642 0.70615 0.09691 0.0
H469 H 0.57566 0.74855 0.02595 0.0
H470 H 0.56939 0.70559 1.00233 0.0
H471 H 0.57609 0.66548 0.09188 0.0
H472 H 0.54991 0.63466 0.10231 0.0
H473 H 0.5546 0.66769 0.11449 0.0
H474 H 0.50847 0.65458 0.09653 0.0
H475 H 0.50163 0.62062 0.08459 0.0
H476 H 0.49704 0.64165 0.06162 0.0
H477 H 0.56275 0.65865 0.98754 0.0
H478 H 0.55261 0.61022 0.98137 0.0
H479 H 0.52496 0.59745 0.06064 0.0
C480 C 0.55139 0.70634 0.07636 0.0
C481 C 0.56143 0.7307 0.06323 0.0
C482 C 0.56763 0.73007 0.0363 0.0
C483 C 0.56428 0.7058 0.02276 0.0
C484 C 0.55446 0.68218 0.03631 0.0
C485 C 0.54783 0.68217 0.0624 0.0
C486 C 0.53773 0.65403 0.07241 0.0
C487 C 0.5556 0.65555 0.09672 0.0
C488 C 0.50955 0.64202 0.0792 0.0
C489 C 0.53944 0.63812 0.04781 0.0
C490 C 0.54958 0.65487 0.02735 0.0
C491 C 0.55445 0.64525 0.00326 0.0
C492 C 0.54871 0.61778 0.99994 0.0
C493 C 0.53768 0.6001 0.02034 0.0
C494 C 0.5329 0.61042 0.04451 0.0
H495 H 0.85865 0.2889 0.98719 0.0
H496 H 0.863 0.29658 0.90117 0.0
H497 H 0.90014 0.34335 0.91081 0.0
H498 H 0.87293 0.35847 0.00476 0.0
H499 H 0.89171 0.3631 0.03622 0.0
H500 H 0.86614 0.32922 0.02293 0.0
H501 H 0.89878 0.31169 0.02488 0.0
H502 H 0.92449 0.34557 0.03805 0.0
H503 H 0.92779 0.32881 0.0079 0.0
H504 H 0.93589 0.38917 0.92866 0.0
H505 H 0.96757 0.43335 0.95449 0.0
H506 H 0.94033 0.39859 0.02934 0.0
C507 C 0.86741 0.30041 0.97039 0.0
C508 C 0.85814 0.28854 0.94336 0.0
C509 C 0.87015 0.30456 0.92204 0.0
C510 C 0.89122 0.33136 0.92727 0.0
C511 C 0.90003 0.34224 0.95398 0.0
C512 C 0.88848 0.32751 0.97526 0.0
C513 C 0.90136 0.34487 1.00204 0.0
C514 C 0.88187 0.34917 0.01739 0.0
C515 C 0.91384 0.33196 0.01923 0.0
C516 C 0.92183 0.37159 0.99235 0.0
C517 C 0.92068 0.36936 0.96449 0.0
C518 C 0.93709 0.39117 0.95047 0.0
C519 C 0.95502 0.4161 0.96526 0.0
C520 C 0.95643 0.41905 0.99372 0.0
C521 C 0.93975 0.39655 0.00756 0.0
H522 H 0.74364 0.58348 0.9743 0.0
H523 H 0.71258 0.53061 0.89911 0.0
H524 H 0.66798 0.51402 0.9113 0.0
H525 H 0.69302 0.53768 0.01638 0.0
H526 H 0.69259 0.56596 0.03466 0.0
H527 H 0.72205 0.57105 0.02173 0.0
H528 H 0.72481 0.61096 0.99607 0.0
H529 H 0.69535 0.60594 0.00879 0.0
H530 H 0.69773 0.60479 0.97293 0.0
H531 H 0.62733 0.50557 0.92978 0.0
H532 H 0.59253 0.50706 0.95283 0.0
H533 H 0.64925 0.56688 0.01526 0.0
C534 C 0.72737 0.56791 0.96082 0.0
C535 C 0.73131 0.55795 0.93596 0.0
C536 C 0.70976 0.53822 0.91831 0.0
C537 C 0.68446 0.52866 0.92511 0.0
C538 C 0.68114 0.53919 0.94956 0.0
C539 C 0.70194 0.55841 0.96717 0.0
C540 C 0.69288 0.56812 0.99101 0.0
C541 C 0.70059 0.56022 0.01751 0.0
C542 C 0.70331 0.5993 0.99225 0.0
C543 C 0.66376 0.5518 0.98374 0.0
C544 C 0.6575 0.53498 0.95991 0.0
C545 C 0.63201 0.51861 0.94844 0.0
C546 C 0.61244 0.51979 0.96143 0.0
C547 C 0.61846 0.53747 0.98524 0.0
C548 C 0.64432 0.55322 0.99697 0.0
H549 H 0.47015 0.15549 0.93646 0.0
H550 H 0.43179 0.1648 0.00395 0.0
H551 H 0.43615 0.12843 0.02548 0.0
H552 H 0.4428 0.08264 0.93374 0.0
H553 H 0.47201 0.08316 0.92579 0.0
H554 H 0.4658 0.1096 0.91545 0.0
H555 H 0.50947 0.14755 0.94029 0.0
H556 H 0.51654 0.12163 0.95029 0.0
H557 H 0.517 0.14615 0.97547 0.0
H558 H 0.44342 0.08895 0.03834 0.0
H559 H 0.4575 0.0546 0.0438 0.0
H560 H 0.49355 0.07444 0.96914 0.0
C561 C 0.46263 0.1498 0.95577 0.0
C562 C 0.45043 0.16268 0.96851 0.0
C563 C 0.44118 0.15509 0.99393 0.0
C564 C 0.44347 0.1344 0.00618 0.0
C565 C 0.45542 0.12187 0.9929 0.0
C566 C 0.46518 0.12966 0.96841 0.0
C567 C 0.478 0.11391 0.9586 0.0
C568 C 0.46381 0.0963 0.93181 0.0
C569 C 0.50697 0.13348 0.95602 0.0
C570 C 0.47414 0.09612 0.98142 0.0
C571 C 0.46067 0.10052 1.00084 0.0
C572 C 0.45419 0.08558 0.02336 0.0
C573 C 0.46212 0.06606 0.02626 0.0
C574 C 0.4768 0.06219 0.00705 0.0
C575 C 0.48265 0.0773 0.98433 0.0
H576 H 0.72906 0.18398 0.01368 0.0
H577 H 0.73267 0.1643 0.92935 0.0
H578 H 0.68574 0.13015 0.92463 0.0
H579 H 0.68518 0.1154 0.02727 0.0
H580 H 0.6679 0.12487 0.04995 0.0
H581 H 0.70141 0.14883 0.04626 0.0
H582 H 0.68939 0.18533 0.03369 0.0
H583 H 0.65583 0.16149 0.03739 0.0
H584 H 0.66488 0.17684 0.00619 0.0
H585 H 0.63861 0.09706 0.92954 0.0
H586 H 0.59503 0.067 0.94395 0.0
H587 H 0.62214 0.10793 0.02519 0.0
C588 C 0.71986 0.17271 0.99416 0.0
C589 C 0.73438 0.17711 0.97171 0.0
C590 C 0.72181 0.16156 0.94664 0.0
C591 C 0.69518 0.1421 0.94381 0.0
C592 C 0.6814 0.1383 0.9663 0.0
C593 C 0.6933 0.15315 0.99101 0.0
C594 C 0.67428 0.14443 0.01224 0.0
C595 C 0.6827 0.13268 0.03528 0.0
C596 C 0.6709 0.16845 0.023 0.0
C597 C 0.64988 0.1222 0.99569 0.0
C598 C 0.65436 0.11906 0.9692 0.0
C599 C 0.63486 0.09943 0.9502 0.0
C600 C 0.61019 0.08247 0.95853 0.0
C601 C 0.60526 0.08524 0.9856 0.0
C602 C 0.62536 0.10546 0.00432 0.0
H603 H 0.84233 0.55849 0.00285 0.0
H604 H 0.8804 0.61587 0.94399 0.0
H605 H 0.91705 0.60712 0.94828 0.0
H606 H 0.9008 0.57565 0.04593 0.0
H607 H 0.88928 0.5406 0.05296 0.0
H608 H 0.8665 0.55207 0.04592 0.0
H609 H 0.84244 0.5127 0.00725 0.0
H610 H 0.86519 0.50117 0.0141 0.0
H611 H 0.86027 0.50946 0.98072 0.0
H612 H 0.94865 0.5914 0.95797 0.0
H613 H 0.97379 0.56978 0.97246 0.0
H614 H 0.91553 0.52235 0.0254 0.0
C615 C 0.85861 0.56945 0.99122 0.0
C616 C 0.859 0.58834 0.97355 0.0
C617 C 0.88016 0.6018 0.95802 0.0
C618 C 0.90094 0.59689 0.96028 0.0
C619 C 0.90011 0.57831 0.97804 0.0
C620 C 0.87954 0.5648 0.99327 0.0
C621 C 0.88324 0.54537 0.01035 0.0
C622 C 0.88507 0.55394 0.04058 0.0
C623 C 0.86149 0.5154 0.00263 0.0
C624 C 0.90905 0.54997 1.00222 0.0
C625 C 0.91838 0.56909 0.98357 0.0
C626 C 0.94162 0.57651 0.97265 0.0
C627 C 0.95574 0.56411 0.98101 0.0
C628 C 0.94662 0.54451 1.0001 0.0
C629 C 0.92298 0.53739 0.01088 0.0
H630 H 0.4314 0.29959 0.98036 0.0
H631 H 0.50485 0.30142 0.98886 0.0
H632 H 0.52801 0.35219 0.99689 0.0
H633 H 0.45319 0.36127 0.94641 0.0
H634 H 0.43389 0.37233 0.96386 0.0
H635 H 0.42315 0.3362 0.95818 0.0
H636 H 0.42036 0.33205 0.00949 0.0
H637 H 0.43117 0.36818 0.01532 0.0
H638 H 0.44852 0.35418 0.03278 0.0
H639 H 0.54317 0.40262 0.00329 0.0
H640 H 0.5495 0.44931 0.00929 0.0
H641 H 0.46604 0.41505 0.99823 0.0
C642 C 0.45238 0.31075 0.98364 0.0
C643 C 0.4664 0.29664 0.98317 0.0
C644 C 0.49378 0.31185 0.98839 0.0
C645 C 0.50708 0.34067 0.99308 0.0
C646 C 0.4927 0.35397 0.99298 0.0
C647 C 0.46595 0.33953 0.98856 0.0
C648 C 0.45513 0.35883 0.99013 0.0
C649 C 0.44048 0.35705 0.96303 0.0
C650 C 0.43777 0.35296 0.01331 0.0
C651 C 0.48 0.38639 0.99602 0.0
C652 C 0.50142 0.38307 0.99748 0.0
C653 C 0.52654 0.40546 1.00228 0.0
C654 C 0.52991 0.43196 0.00563 0.0
C655 C 0.50828 0.43598 0.00433 0.0
C656 C 0.48298 0.41275 0.99955 0.0
H657 H 0.19093 0.69426 0.05282 0.0
H658 H 0.1506 0.73896 0.06797 0.0
H659 H 0.10854 0.69539 0.06008 0.0
H660 H 0.14587 0.6462 0.99972 0.0
H661 H 0.14826 0.61728 0.00983 0.0
H662 H 0.17534 0.65171 0.01777 0.0
H663 H 0.17589 0.64405 0.06846 0.0
H664 H 0.14892 0.60951 0.06063 0.0
H665 H 0.14671 0.63296 0.08498 0.0
H666 H 0.07111 0.64789 0.04801 0.0
H667 H 0.04019 0.59874 0.0357 0.0
H668 H 0.10426 0.58356 0.02926 0.0
C669 C 0.17318 0.69471 0.05466 0.0
C670 C 0.17387 0.71993 0.06067 0.0
C671 C 0.15039 0.71986 0.06314 0.0
C672 C 0.12646 0.69525 0.05869 0.0
C673 C 0.12637 0.67081 0.05213 0.0
C674 C 0.14907 0.67023 0.05042 0.0
C675 C 0.14338 0.64109 0.0429 0.0
C676 C 0.15384 0.63896 0.01595 0.0
C677 C 0.15438 0.63133 0.0656 0.0
C678 C 0.11393 0.62548 0.04023 0.0
C679 C 0.10461 0.64311 0.04564 0.0
C680 C 0.07817 0.63384 0.04394 0.0
C681 C 0.06073 0.60578 0.0368 0.0
C682 C 0.06966 0.58706 0.0315 0.0
C683 C 0.09673 0.59721 0.03322 0.0
H684 H 0.29287 0.42294 0.02295 0.0
H685 H 0.30131 0.44374 0.10937 0.0
H686 H 0.3487 0.46257 0.11042 0.0
H687 H 0.34082 0.40175 0.02313 0.0
H688 H 0.35245 0.41565 0.99188 0.0
H689 H 0.31929 0.40402 0.99793 0.0
H690 H 0.32572 0.45183 0.98923 0.0
H691 H 0.35886 0.46357 0.98309 0.0
H692 H 0.3517 0.48226 0.00843 0.0
H693 H 0.39516 0.48023 0.10179 0.0
H694 H 0.43747 0.49441 0.08433 0.0
H695 H 0.39869 0.46073 0.00367 0.0
C696 C 0.30476 0.43161 0.04204 0.0
C697 C 0.29362 0.43248 0.06603 0.0
C698 C 0.30964 0.44341 0.09074 0.0
C699 C 0.3365 0.45403 0.09152 0.0
C700 C 0.34695 0.45319 0.06746 0.0
C701 C 0.33158 0.44213 0.04319 0.0
C702 C 0.34766 0.44352 0.02028 0.0
C703 C 0.33957 0.4145 0.00756 0.0
C704 C 0.34588 0.46136 0.99901 0.0
C705 C 0.37449 0.45728 0.0354 0.0
C706 C 0.37364 0.46271 0.06259 0.0
C707 C 0.39605 0.47593 0.08057 0.0
C708 C 0.41996 0.48391 0.07048 0.0
C709 C 0.42125 0.47852 0.04272 0.0
C710 C 0.3982 0.46488 0.02503 0.0
H711 H 0.54463 0.85149 0.06777 0.0
H712 H 0.59915 0.86802 0.00792 0.0
H713 H 0.59057 0.90365 0.99189 0.0
H714 H 0.49788 0.86053 0.02532 0.0
H715 H 0.49035 0.87665 0.05284 0.0
H716 H 0.50022 0.85189 0.05921 0.0
H717 H 0.53727 0.88773 0.09419 0.0
H718 H 0.52757 0.91259 0.0878 0.0
H719 H 0.56042 0.92079 0.08414 0.0
H720 H 0.57815 0.93913 0.98403 0.0
H721 H 0.56063 0.97059 0.98302 0.0
H722 H 0.51254 0.9299 0.04645 0.0
C723 C 0.55439 0.86224 0.05097 0.0
C724 C 0.57218 0.85656 0.03861 0.0
C725 C 0.58509 0.87169 0.01723 0.0
C726 C 0.58041 0.89201 0.00808 0.0
C727 C 0.56273 0.89704 0.02053 0.0
C728 C 0.54973 0.88247 0.04135 0.0
C729 C 0.53188 0.89223 0.05133 0.0
C730 C 0.50339 0.86894 0.0469 0.0
C731 C 0.53977 0.90404 0.08113 0.0
C732 C 0.53709 0.91466 0.033 0.0
C733 C 0.55509 0.91718 0.01553 0.0
C734 C 0.56385 0.93718 0.99743 0.0
C735 C 0.55387 0.95503 0.99707 0.0
C736 C 0.53512 0.95258 0.01449 0.0
C737 C 0.5266 0.93203 0.03262 0.0
H738 H 0.96688 0.16288 0.39594 0.0
H739 H 0.93739 0.21778 0.41463 0.0
H740 H 0.97606 0.25609 0.39879 0.0
H741 H 0.03253 0.21008 0.41678 0.0
H742 H 0.04543 0.19912 0.3901 0.0
H743 H 0.01455 0.1752 0.40104 0.0
H744 H 0.99289 0.16572 0.35211 0.0
H745 H 0.02379 0.18953 0.34099 0.0
H746 H 0.9963 0.19412 0.33431 0.0
H747 H 0.01966 0.28948 0.3862 0.0
H748 H 0.06442 0.31539 0.37342 0.0
H749 H 0.0652 0.23918 0.35934 0.0
C750 C 0.96831 0.18282 0.39611 0.0
C751 C 0.94919 0.18736 0.40685 0.0
C752 C 0.95197 0.21387 0.40701 0.0
C753 C 0.97381 0.23576 0.39789 0.0
C754 C 0.99263 0.23084 0.38823 0.0
C755 C 0.99001 0.20499 0.38685 0.0
C756 C 0.01366 0.2057 0.37631 0.0
C757 C 0.02734 0.19701 0.39731 0.0
C758 C 1.00621 0.1877 0.34932 0.0
C759 C 0.03009 0.23604 0.37253 0.0
C760 C 0.01756 0.25012 0.37967 0.0
C761 C 0.02948 0.27863 0.38 0.0
C762 C 0.0549 0.29318 0.37282 0.0
C763 C 0.06796 0.27919 0.36501 0.0
C764 C 0.05533 0.25023 0.36462 0.0
H765 H 0.8554 0.79824 0.39212 0.0
H766 H 0.8068 0.71686 0.41735 0.0
H767 H 0.76775 0.71771 0.4003 0.0
H768 H 0.81639 0.82569 0.41 0.0
H769 H 0.82131 0.84536 0.38146 0.0
H770 H 0.84575 0.83775 0.3936 0.0
H771 H 0.8438 0.81528 0.34608 0.0
H772 H 0.81944 0.823 0.33373 0.0
H773 H 0.81309 0.78811 0.32984 0.0
H774 H 0.7341 0.72928 0.3857 0.0
H775 H 0.70771 0.74945 0.37048 0.0
H776 H 0.77718 0.82198 0.35159 0.0
C777 C 0.83655 0.78034 0.39343 0.0
C778 C 0.83419 0.75757 0.4063 0.0
C779 C 0.80912 0.73472 0.40797 0.0
C780 C 0.7868 0.73493 0.39822 0.0
C781 C 0.78974 0.75798 0.38644 0.0
C782 C 0.81393 0.78013 0.3836 0.0
C783 C 0.81147 0.80272 0.37098 0.0
C784 C 0.8245 0.82945 0.39016 0.0
C785 C 0.82261 0.80755 0.34352 0.0
C786 C 0.78218 0.78998 0.36771 0.0
C787 C 0.77007 0.76419 0.37688 0.0
C788 C 0.7433 0.74919 0.37793 0.0
C789 C 0.72847 0.76082 0.36934 0.0
C790 C 0.74039 0.78698 0.35949 0.0
C791 C 0.76756 0.80163 0.35845 0.0
H792 H 0.26276 0.06287 0.41112 0.0
H793 H 0.18833 0.05619 0.38908 0.0
H794 H 0.17129 0.0088 0.3689 0.0
H795 H 0.26235 0.02174 0.35159 0.0
H796 H 0.27678 1.00534 0.37006 0.0
H797 H 0.28398 0.03952 0.38177 0.0
H798 H 0.26876 0.02327 0.4283 0.0
H799 H 0.26166 0.98912 0.41677 0.0
H800 H 0.23676 0.99425 0.42991 0.0
H801 H 0.16115 0.96169 0.35343 0.0
H802 H 0.15842 0.91695 0.34354 0.0
H803 H 0.23915 0.95282 0.37477 0.0
C804 C 0.2429 0.05145 0.402 0.0
C805 C 0.22702 0.06354 0.40143 0.0
C806 C 0.20112 0.04777 0.38927 0.0
C807 C 0.19117 0.02071 0.37785 0.0
C808 C 0.20729 0.00951 0.37866 0.0
C809 C 0.23259 0.02426 0.39039 0.0
C810 C 0.24537 0.00676 0.38919 0.0
C811 C 0.26849 0.01908 0.37213 0.0
C812 C 0.25362 1.00314 0.41774 0.0
C813 C 0.22317 0.97983 0.37526 0.0
C814 C 0.20144 0.98203 0.36938 0.0
C815 C 0.17809 0.95975 0.3577 0.0
C816 C 0.17673 0.93441 0.3522 0.0
C817 C 0.1986 0.93145 0.35819 0.0
C818 C 0.22226 0.95461 0.36952 0.0
H819 H 0.54996 0.62239 0.28055 0.0
H820 H 0.4825 0.62787 0.2992 0.0
H821 H 0.51112 0.67557 0.31929 0.0
H822 H 0.59258 0.66491 0.34044 0.0
H823 H 0.62097 0.68121 0.3224 0.0
H824 H 0.59536 0.64667 0.31111 0.0
H825 H 0.59145 0.66161 0.26372 0.0
H826 H 0.61706 0.69614 0.27486 0.0
H827 H 0.58603 0.69013 0.26069 0.0
H828 H 0.54629 0.72328 0.33443 0.0
H829 H 0.58616 0.76838 0.34433 0.0
H830 H 0.63159 0.73305 0.31602 0.0
C831 C 0.54118 0.63357 0.28893 0.0
C832 C 0.51386 0.62114 0.28844 0.0
C833 C 0.50329 0.63658 0.29978 0.0
C834 C 0.51941 0.6638 0.31111 0.0
C835 C 0.54613 0.67543 0.31105 0.0
C836 C 0.55702 0.66086 0.30033 0.0
C837 C 0.58636 0.67872 0.30195 0.0
C838 C 0.59959 0.66718 0.32006 0.0
C839 C 0.59577 0.68183 0.27362 0.0
C840 C 0.59018 0.70569 0.31491 0.0
C841 C 0.56666 0.7032 0.32001 0.0
C842 C 0.56485 0.72545 0.33076 0.0
C843 C 0.58764 0.75102 0.33623 0.0
C844 C 0.61202 0.75425 0.33105 0.0
C845 C 0.6133 0.73113 0.32056 0.0
H846 H 0.39314 0.88649 0.28981 0.0
H847 H 0.41901 0.96861 0.26631 0.0
H848 H 0.37978 0.96654 0.28155 0.0
H849 H 0.32576 0.8584 0.27091 0.0
H850 H 0.31511 0.83856 0.29936 0.0
H851 H 0.3455 0.84633 0.28697 0.0
H852 H 0.3694 0.86854 0.33454 0.0
H853 H 0.33902 0.86069 0.34707 0.0
H854 H 0.36583 0.89561 0.35105 0.0
H855 H 0.3361 0.95429 0.29539 0.0
H856 H 0.29285 0.93453 0.3123 0.0
H857 H 0.29661 0.86236 0.33107 0.0
C858 C 0.39078 0.90421 0.28828 0.0
C859 C 0.40905 0.92749 0.27629 0.0
C860 C 0.40504 0.95018 0.27463 0.0
C861 C 0.38285 0.94932 0.28342 0.0
C862 C 0.36492 0.92584 0.29437 0.0
C863 C 0.36878 0.90387 0.29732 0.0
C864 C 0.34637 0.88118 0.30994 0.0
C865 C 0.33237 0.85455 0.29064 0.0
C866 C 0.35572 0.87622 0.33728 0.0
C867 C 0.32935 0.89384 0.31343 0.0
C868 C 0.3403 0.91947 0.30396 0.0
C869 C 0.32753 0.93447 0.30334 0.0
C870 C 0.30299 0.92309 0.31289 0.0
C871 C 0.29174 0.89725 0.32338 0.0
C872 C 0.30512 0.88248 0.3237 0.0
H873 H 0.15372 0.49923 0.26827 0.0
H874 H 0.108 0.50688 0.32881 0.0
H875 H 0.11426 0.4743 0.35523 0.0
H876 H 0.13186 0.42818 0.27016 0.0
H877 H 0.16306 0.43148 0.26636 0.0
H878 H 0.15527 0.45563 0.25266 0.0
H879 H 0.19626 0.49603 0.27985 0.0
H880 H 0.20416 0.47194 0.2936 0.0
H881 H 0.20092 0.49615 0.3159 0.0
H882 H 0.12219 0.43747 0.37253 0.0
H883 H 0.13489 0.40278 0.38179 0.0
H884 H 0.17887 0.42279 0.31221 0.0
C885 C 0.14524 0.49413 0.28721 0.0
C886 C 0.13034 0.50533 0.29663 0.0
C887 C 0.11954 0.49844 0.32146 0.0
C888 C 0.12296 0.47997 0.33649 0.0
C889 C 0.13763 0.46906 0.32659 0.0
C890 C 0.14896 0.47622 0.30272 0.0
C891 C 0.16402 0.46182 0.29665 0.0
C892 C 0.15287 0.44317 0.26988 0.0
C893 C 0.19306 0.48274 0.2965 0.0
C894 C 0.15904 0.44507 0.32056 0.0
C895 C 0.14355 0.44928 0.33747 0.0
C896 C 0.13476 0.43443 0.35975 0.0
C897 C 0.14199 0.4148 0.36485 0.0
C898 C 0.15827 0.41069 0.34807 0.0
C899 C 0.16702 0.42618 0.32581 0.0
H900 H 0.38508 0.46468 0.27947 0.0
H901 H 0.41899 0.53069 0.34445 0.0
H902 H 0.37742 0.50932 0.3651 0.0
H903 H 0.3207 0.45691 0.27432 0.0
H904 H 0.30419 0.42 0.26731 0.0
H905 H 0.33634 0.44089 0.25736 0.0
H906 H 0.35214 0.41305 0.28412 0.0
H907 H 0.32008 0.39217 0.29425 0.0
H908 H 0.3475 0.41021 0.31943 0.0
H909 H 0.33284 0.48002 0.37937 0.0
H910 H 0.28752 0.4458 0.38549 0.0
H911 H 0.28219 0.39866 0.31109 0.0
C912 C 0.38364 0.47458 0.29802 0.0
C913 C 0.40524 0.49908 0.31069 0.0
C914 C 0.40267 0.51175 0.33471 0.0
C915 C 0.37919 0.49976 0.34652 0.0
C916 C 0.35841 0.47526 0.33388 0.0
C917 C 0.36031 0.46289 0.31006 0.0
C918 C 0.33506 0.43654 0.30069 0.0
C919 C 0.32339 0.43873 0.2733 0.0
C920 C 0.33894 0.41151 0.29957 0.0
C921 C 0.31874 0.43589 0.3231 0.0
C922 C 0.3326 0.45845 0.34201 0.0
C923 C 0.32178 0.46233 0.36466 0.0
C924 C 0.29606 0.44276 0.368 0.0
C925 C 0.28143 0.4196 0.34881 0.0
C926 C 0.29298 0.41614 0.32611 0.0
H927 H 0.53713 0.91628 0.26843 0.0
H928 H 0.50644 0.91366 0.34552 0.0
H929 H 0.53435 0.89687 0.36493 0.0
H930 H 0.5431 0.8542 0.27294 0.0
H931 H 0.57276 0.86858 0.25688 0.0
H932 H 0.54908 0.87856 0.24852 0.0
H933 H 0.58421 0.92974 0.26082 0.0
H934 H 0.60791 0.91992 0.26951 0.0
H935 H 0.60195 0.9405 0.29386 0.0
H936 H 0.56812 0.8846 0.37708 0.0
H937 H 0.60283 0.87305 0.38036 0.0
H938 H 0.61131 0.88187 0.29513 0.0
C939 C 0.53604 0.91167 0.28926 0.0
C940 C 0.51979 0.91639 0.3056 0.0
C941 C 0.51883 0.91026 0.33276 0.0
C942 C 0.53464 0.90078 0.34393 0.0
C943 C 0.55108 0.8972 0.32759 0.0
C944 C 0.55164 0.90202 0.30072 0.0
C945 C 0.57153 0.89699 0.28783 0.0
C946 C 0.55833 0.87316 0.2652 0.0
C947 C 0.59265 0.92336 0.2774 0.0
C948 C 0.58239 0.88912 0.3118 0.0
C949 C 0.5703 0.88947 0.3345 0.0
C950 C 0.57752 0.88395 0.35937 0.0
C951 C 0.59736 0.87756 0.36106 0.0
C952 C 0.60973 0.87654 0.33802 0.0
C953 C 0.60213 0.88244 0.31306 0.0
H954 H 0.10219 0.63445 0.30723 0.0
H955 H 0.17643 0.63799 0.30969 0.0
H956 H 0.1989 0.6883 0.3218 0.0
H957 H 0.12186 0.69849 0.27896 0.0
H958 H 0.1026 0.70749 0.29909 0.0
H959 H 0.09244 0.67185 0.29039 0.0
H960 H 0.0911 0.66393 0.34107 0.0
H961 H 0.10138 0.69959 0.34992 0.0
H962 H 0.11964 0.68503 0.36425 0.0
H963 H 0.21325 0.73825 0.33216 0.0
H964 H 0.21869 0.78435 0.34164 0.0
H965 H 0.13501 0.74836 0.33439 0.0
C966 C 0.12319 0.64591 0.3101 0.0
C967 C 0.13763 0.6325 0.3067 0.0
C968 C 0.16504 0.64799 0.31144 0.0
C969 C 0.17794 0.67652 0.31846 0.0
C970 C 0.16314 0.68918 0.32119 0.0
C971 C 0.13636 0.67438 0.31733 0.0
C972 C 0.12506 0.69296 0.3219 0.0
C973 C 0.10958 0.69268 0.29604 0.0
C974 C 0.10831 0.68489 0.3457 0.0
C975 C 0.14968 0.72057 0.32869 0.0
C976 C 0.17141 0.71789 0.3281 0.0
C977 C 0.19638 0.74057 0.33285 0.0
C978 C 0.19926 0.76669 0.33818 0.0
C979 C 0.17729 0.77 0.3389 0.0
C980 C 0.15218 0.74651 0.33431 0.0
H981 H 0.80255 0.05236 0.38172 0.0
H982 H 0.87215 0.04634 0.38431 0.0
H983 H 0.8452 0.99576 0.3746 0.0
H984 H 0.76247 0.98999 0.4126 0.0
H985 H 0.73345 0.98095 0.39121 0.0
H986 H 0.75817 0.01656 0.39898 0.0
H987 H 0.76088 0.02229 0.34791 0.0
H988 H 0.73626 0.98666 0.33999 0.0
H989 H 0.76721 0.99977 0.32665 0.0
H990 H 0.8109 0.94612 0.36505 0.0
H991 H 0.77169 0.9005 0.35538 0.0
H992 H 0.72375 0.93829 0.35758 0.0
C993 C 0.81206 0.04031 0.38055 0.0
C994 C 0.83942 0.05316 0.38454 0.0
C995 C 0.85122 0.03683 0.38203 0.0
C996 C 0.83608 0.00814 0.3764 0.0
C997 C 0.80915 0.9961 0.3729 0.0
C998 C 0.79721 0.01163 0.37478 0.0
C999 C 0.76792 0.99356 0.36961 0.0
C1000 C 0.75473 0.99538 0.39459 0.0
C1001 C 0.75746 1.00102 0.34455 0.0
C1002 C 0.76525 0.9654 0.36462 0.0
C1003 C 0.78931 0.96742 0.36669 0.0
C1004 C 0.79197 0.9443 0.36333 0.0
C1005 C 0.76949 0.91842 0.35786 0.0
C1006 C 0.74453 0.91569 0.35566 0.0
C1007 C 0.74249 0.93963 0.35894 0.0
H1008 H 0.96192 0.77786 0.35247 0.0
H1009 H 0.96046 0.76179 0.43643 0.0
H1010 H 1.00688 0.77509 0.43869 0.0
H1011 H 1.00258 0.7513 0.33453 0.0
H1012 H 0.01993 0.77698 0.31207 0.0
H1013 H 0.98708 0.76743 0.31745 0.0
H1014 H 1.00174 0.81838 0.33199 0.0
H1015 H 0.03462 0.82812 0.32646 0.0
H1016 H 0.02748 0.83719 0.3588 0.0
H1017 H 0.05321 0.78866 0.43109 0.0
H1018 H 0.09601 0.80281 0.41474 0.0
H1019 H 0.06716 0.81006 0.33568 0.0
C1020 C 0.97148 0.77743 0.37139 0.0
C1021 C 0.95771 0.76893 0.39438 0.0
C1022 C 0.97079 0.76841 0.41871 0.0
C1023 C 0.99708 0.77585 0.42012 0.0
C1024 C 0.01004 0.7838 0.397 0.0
C1025 C 0.99771 0.78479 0.37313 0.0
C1026 C 0.01589 0.79365 0.35107 0.0
C1027 C 1.00576 0.77098 0.32739 0.0
C1028 C 0.02019 0.82096 0.34153 0.0
C1029 C 0.04033 0.7973 0.36615 0.0
C1030 C 0.03658 0.79154 0.39263 0.0
C1031 C 0.05634 0.79328 0.41042 0.0
C1032 C 0.08057 0.80128 0.40095 0.0
C1033 C 0.08488 0.8075 0.37398 0.0
C1034 C 0.06441 0.80537 0.3564 0.0
H1035 H 0.26314 0.22656 0.38812 0.0
H1036 H 0.19173 0.14933 0.36504 0.0
H1037 H 0.16949 0.17486 0.35283 0.0
H1038 H 0.23454 0.26323 0.41739 0.0
H1039 H 0.25656 0.29548 0.40505 0.0
H1040 H 0.26691 0.27114 0.41151 0.0
H1041 H 0.27893 0.27139 0.3624 0.0
H1042 H 0.26854 0.29568 0.35578 0.0
H1043 H 0.25478 0.26357 0.33473 0.0
H1044 H 0.15466 0.20855 0.34524 0.0
H1045 H 0.14821 0.24818 0.34134 0.0
H1046 H 0.22971 0.30398 0.3677 0.0
C1047 C 0.24282 0.21509 0.3805 0.0
C1048 C 0.22895 0.18598 0.37788 0.0
C1049 C 0.20251 0.17162 0.3675 0.0
C1050 C 0.1898 0.18594 0.36046 0.0
C1051 C 0.20392 0.21462 0.36357 0.0
C1052 C 0.22988 0.22908 0.37318 0.0
C1053 C 0.24049 0.25989 0.37467 0.0
C1054 C 0.25019 0.27321 0.4039 0.0
C1055 C 0.26196 0.27342 0.35577 0.0
C1056 C 0.21637 0.26049 0.36469 0.0
C1057 C 0.19551 0.23413 0.35844 0.0
C1058 C 0.17089 0.22929 0.34985 0.0
C1059 C 0.16742 0.25195 0.34776 0.0
C1060 C 0.18848 0.27919 0.35406 0.0
C1061 C 0.21333 0.28344 0.36237 0.0
H1062 H 0.63682 0.53886 0.77557 0.0
H1063 H 0.59017 0.49627 0.69986 0.0
H1064 H 0.62824 0.52237 0.67514 0.0
H1065 H 0.67525 0.60562 0.74988 0.0
H1066 H 0.70471 0.61372 0.76989 0.0
H1067 H 0.6737 0.59191 0.78193 0.0
H1068 H 0.68566 0.55398 0.78682 0.0
H1069 H 0.71665 0.57565 0.77472 0.0
H1070 H 0.69524 0.54161 0.75807 0.0
H1071 H 0.6712 0.55164 0.65842 0.0
H1072 H 0.71657 0.58374 0.65059 0.0
H1073 H 0.73597 0.60905 0.73652 0.0
C1074 C 0.63454 0.53525 0.75378 0.0
C1075 C 0.61043 0.51522 0.73973 0.0
C1076 C 0.60845 0.51103 0.71119 0.0
C1077 C 0.62995 0.52591 0.6969 0.0
C1078 C 0.65342 0.54514 0.71133 0.0
C1079 C 0.6559 0.55004 0.7391 0.0
C1080 C 0.68354 0.57184 0.74955 0.0
C1081 C 0.68434 0.59728 0.76364 0.0
C1082 C 0.696 0.56006 0.7684 0.0
C1083 C 0.69615 0.57825 0.72331 0.0
C1084 C 0.67834 0.56252 0.70156 0.0
C1085 C 0.6853 0.56419 0.67526 0.0
C1086 C 0.71112 0.58245 0.67102 0.0
C1087 C 0.72972 0.59892 0.6929 0.0
C1088 C 0.72209 0.59681 0.7194 0.0
H1089 H 0.47707 0.07645 0.75954 0.0
H1090 H 0.54658 0.14348 0.73253 0.0
H1091 H 0.52022 0.16077 0.7111 0.0
H1092 H 0.43281 0.06527 0.70275 0.0
H1093 H 0.40644 0.05953 0.72232 0.0
H1094 H 0.43049 0.05147 0.73485 0.0
H1095 H 0.44004 0.0831 0.77886 0.0
H1096 H 0.41588 0.0911 0.76657 0.0
H1097 H 0.4486 0.11844 0.77685 0.0
H1098 H 0.48632 0.17036 0.69143 0.0
H1099 H 0.44769 0.17394 0.67846 0.0
H1100 H 0.40071 0.10353 0.72158 0.0
C1101 C 0.48697 0.09498 0.74948 0.0
C1102 C 0.5141 0.10821 0.74754 0.0
C1103 C 0.52585 0.13228 0.73376 0.0
C1104 C 0.51104 0.14249 0.72165 0.0
C1105 C 0.48445 0.12879 0.72379 0.0
C1106 C 0.47255 0.10581 0.7377 0.0
C1107 C 0.44375 0.09557 0.7378 0.0
C1108 C 0.42741 0.06622 0.72358 0.0
C1109 C 0.43666 0.09716 0.76674 0.0
C1110 C 0.44133 0.11629 0.7216 0.0
C1111 C 0.46503 0.1351 0.7135 0.0
C1112 C 0.4677 0.15586 0.69781 0.0
C1113 C 0.44563 0.15767 0.69046 0.0
C1114 C 0.42128 0.13905 0.69905 0.0
C1115 C 0.41913 0.11807 0.71479 0.0
H1116 H 0.92503 0.38801 0.74388 0.0
H1117 H 0.85138 0.38408 0.72484 0.0
H1118 H 0.83242 0.3363 0.70482 0.0
H1119 H 0.92135 0.34609 0.68344 0.0
H1120 H 0.93559 0.3289 0.70081 0.0
H1121 H 0.94406 0.36338 0.71301 0.0
H1122 H 0.93019 0.34737 0.75996 0.0
H1123 H 0.92177 0.31289 0.74793 0.0
H1124 H 0.89801 0.31904 0.76248 0.0
H1125 H 0.82048 0.28863 0.68878 0.0
H1126 H 0.81634 0.24342 0.67726 0.0
H1127 H 0.8975 0.27713 0.7056 0.0
C1128 C 0.90494 0.37708 0.73543 0.0
C1129 C 0.88984 0.39005 0.73561 0.0
C1130 C 0.86358 0.37495 0.7244 0.0
C1131 C 0.85254 0.34768 0.7131 0.0
C1132 C 0.86793 0.33561 0.71307 0.0
C1133 C 0.89355 0.34972 0.72387 0.0
C1134 C 0.90549 0.33146 0.72159 0.0
C1135 C 0.92796 0.34316 0.70364 0.0
C1136 C 0.91438 0.32746 0.74966 0.0
C1137 C 0.88247 0.30489 0.70809 0.0
C1138 C 0.86103 0.30786 0.70341 0.0
C1139 C 0.83716 0.28607 0.69215 0.0
C1140 C 0.835 0.26044 0.68571 0.0
C1141 C 0.85659 0.25674 0.69036 0.0
C1142 C 0.88074 0.27941 0.70143 0.0
H1143 H 0.21473 0.95493 0.61508 0.0
H1144 H 0.14729 0.96321 0.62602 0.0
H1145 H 0.1758 0.01038 0.64744 0.0
H1146 H 0.25301 0.9947 0.67708 0.0
H1147 H 0.28326 0.01082 0.66209 0.0
H1148 H 0.25764 0.97705 0.64854 0.0
H1149 H 0.25878 0.99426 0.60128 0.0
H1150 H 0.28454 0.028 0.61467 0.0
H1151 H 0.25523 0.02389 0.59762 0.0
H1152 H 0.21098 0.05677 0.66599 0.0
H1153 H 0.25116 0.10063 0.67986 0.0
H1154 H 0.29673 0.06365 0.65672 0.0
C1155 C 0.20594 0.96667 0.62188 0.0
C1156 C 0.17863 0.9551 0.61906 0.0
C1157 C 0.16802 0.97124 0.62844 0.0
C1158 C 0.18408 0.99816 0.64052 0.0
C1159 C 0.21079 0.00882 0.64305 0.0
C1160 C 0.22173 0.99371 0.63393 0.0
C1161 C 0.25116 0.01058 0.63841 0.0
C1162 C 0.26189 0.9975 0.65768 0.0
C1163 C 0.26312 0.01441 0.61139 0.0
C1164 C 0.25498 0.03755 0.65139 0.0
C1165 C 0.23135 0.03593 0.65385 0.0
C1166 C 0.2296 0.05828 0.6643 0.0
C1167 C 0.25258 0.08313 0.67208 0.0
C1168 C 0.2771 0.08555 0.66949 0.0
C1169 C 0.27829 0.06229 0.65933 0.0
H1170 H 0.05101 0.21116 0.62852 0.0
H1171 H 0.08097 0.29634 0.61303 0.0
H1172 H 0.04332 0.29551 0.63144 0.0
H1173 H 0.98513 0.1882 0.6108 0.0
H1174 H 0.97294 0.1655 0.637 0.0
H1175 H 1.00318 0.17307 0.62438 0.0
H1176 H 0.02646 0.18989 0.67285 0.0
H1177 H 0.99622 0.18224 0.68564 0.0
H1178 H 0.02415 0.21632 0.69249 0.0
H1179 H 1.00036 0.2842 0.64629 0.0
H1180 H 0.95612 0.264 0.66065 0.0
H1181 H 0.95475 0.18734 0.67021 0.0
C1182 C 0.04991 0.2298 0.62957 0.0
C1183 C 0.06885 0.25371 0.61896 0.0
C1184 C 0.0665 0.27758 0.62047 0.0
C1185 C 0.04525 0.2774 0.63108 0.0
C1186 C 0.02658 0.25332 0.64058 0.0
C1187 C 0.02881 0.23005 0.64035 0.0
C1188 C 1.00544 0.20665 0.6511 0.0
C1189 C 0.99082 0.1819 0.62953 0.0
C1190 C 0.01356 0.19829 0.67707 0.0
C1191 C 0.98958 0.22028 0.65685 0.0
C1192 C 1.00214 0.24719 0.65049 0.0
C1193 C 0.99056 0.26336 0.6519 0.0
C1194 C 0.96544 0.25173 0.65999 0.0
C1195 C 0.95236 0.22439 0.66698 0.0
C1196 C 0.96469 0.20856 0.66565 0.0
H1197 H 0.81198 0.82127 0.58822 0.0
H1198 H 0.78116 0.84079 0.65728 0.0
H1199 H 0.78955 0.80945 0.68325 0.0
H1200 H 0.78704 0.75019 0.59612 0.0
H1201 H 0.81537 0.74964 0.58644 0.0
H1202 H 0.80733 0.77389 0.57344 0.0
H1203 H 0.85295 0.81403 0.59188 0.0
H1204 H 0.86106 0.78983 0.60496 0.0
H1205 H 0.86386 0.81779 0.62714 0.0
H1206 H 0.79766 0.77308 0.70019 0.0
H1207 H 0.80834 0.73676 0.70834 0.0
H1208 H 0.83749 0.74367 0.62993 0.0
C1209 C 0.80711 0.81895 0.60884 0.0
C1210 C 0.79587 0.83334 0.62082 0.0
C1211 C 0.78991 0.83004 0.64787 0.0
C1212 C 0.79454 0.81226 0.66271 0.0
C1213 C 0.80556 0.79829 0.65033 0.0
C1214 C 0.81209 0.80168 0.62413 0.0
C1215 C 0.82389 0.78434 0.61571 0.0
C1216 C 0.80742 0.76327 0.5915 0.0
C1217 C 0.85212 0.8026 0.60957 0.0
C1218 C 0.82253 0.77032 0.6411 0.0
C1219 C 0.81168 0.7785 0.66074 0.0
C1220 C 0.80663 0.76691 0.6852 0.0
C1221 C 0.81271 0.74634 0.68966 0.0
C1222 C 0.8242 0.73801 0.67001 0.0
C1223 C 0.8294 0.75034 0.64556 0.0
H1224 H 0.05838 0.84853 0.66735 0.0
H1225 H 0.06867 0.80339 0.60052 0.0
H1226 H 0.02337 0.76541 0.60091 0.0
H1227 H 0.01989 0.79081 0.70305 0.0
H1228 H 0.99899 0.80319 0.71395 0.0
H1229 H 0.03176 0.82728 0.70771 0.0
H1230 H 0.01475 0.84918 0.67382 0.0
H1231 H 0.98191 0.82521 0.68003 0.0
H1232 H 0.99111 0.82766 0.64609 0.0
H1233 H 0.978 0.73178 0.60986 0.0
H1234 H 0.93467 0.70491 0.62566 0.0
H1235 H 0.95325 0.77187 0.68663 0.0
C1236 C 0.05097 0.83065 0.65277 0.0
C1237 C 0.06694 0.82857 0.63406 0.0
C1238 C 0.05667 0.80509 0.6151 0.0
C1239 C 0.03104 0.78353 0.61519 0.0
C1240 C 0.01592 0.78593 0.63423 0.0
C1241 C 0.0254 0.80894 0.65257 0.0
C1242 C 1.00515 0.80611 0.67113 0.0
C1243 C 0.01451 0.80689 0.70071 0.0
C1244 C 0.9978 0.82836 0.66754 0.0
C1245 C 0.9829 0.77777 0.66057 0.0
C1246 C 0.98957 0.76656 0.63925 0.0
C1247 C 0.97252 0.74039 0.62644 0.0
C1248 C 0.94799 0.72526 0.63562 0.0
C1249 C 0.94068 0.73632 0.65736 0.0
C1250 C 0.95836 0.76296 0.66993 0.0
H1251 H 0.20722 0.25531 0.61138 0.0
H1252 H 0.14947 0.21399 0.66671 0.0
H1253 H 0.1741 0.19247 0.68403 0.0
H1254 H 0.2209 0.19917 0.59676 0.0
H1255 H 0.25504 0.22248 0.59531 0.0
H1256 H 0.2319 0.23294 0.58601 0.0
H1257 H 0.25652 0.27577 0.62099 0.0
H1258 H 0.27959 0.26535 0.63055 0.0
H1259 H 0.26203 0.27127 0.65577 0.0
H1260 H 0.20661 0.1785 0.69768 0.0
H1261 H 0.24355 0.17077 0.7052 0.0
H1262 H 0.28027 0.22059 0.64055 0.0
C1263 C 0.19962 0.24141 0.62687 0.0
C1264 C 0.17651 0.2363 0.63787 0.0
C1265 C 0.16714 0.21809 0.65813 0.0
C1266 C 0.18101 0.20585 0.66806 0.0
C1267 C 0.2041 0.21187 0.65732 0.0
C1268 C 0.21323 0.22898 0.63697 0.0
C1269 C 0.23898 0.23268 0.62953 0.0
C1270 C 0.23655 0.22112 0.60016 0.0
C1271 C 0.26055 0.26307 0.63452 0.0
C1272 C 0.24316 0.21539 0.64921 0.0
C1273 C 0.22275 0.20354 0.665 0.0
C1274 C 0.22255 0.18745 0.68526 0.0
C1275 C 0.24367 0.18326 0.68945 0.0
C1276 C 0.26471 0.19503 0.67344 0.0
C1277 C 0.26437 0.21123 0.653 0.0
H1278 H 0.7631 0.96024 0.63002 0.0
H1279 H 0.83743 0.9645 0.64266 0.0
H1280 H 0.85869 0.01463 0.65563 0.0
H1281 H 0.78617 0.02531 0.60227 0.0
H1282 H 0.76455 0.03349 0.61892 0.0
H1283 H 0.7553 0.99808 0.6103 0.0
H1284 H 0.74817 0.98861 0.66021 0.0
H1285 H 0.75751 0.02402 0.669 0.0
H1286 H 0.77421 0.00923 0.68627 0.0
H1287 H 0.87188 0.06414 0.66636 0.0
H1288 H 0.87632 0.10981 0.67519 0.0
H1289 H 0.79311 0.07353 0.65699 0.0
C1290 C 0.78389 0.97183 0.63529 0.0
C1291 C 0.79878 0.95869 0.63466 0.0
C1292 C 0.82581 0.97433 0.6424 0.0
C1293 C 0.838 1.00274 0.64989 0.0
C1294 C 0.82281 0.01512 0.64997 0.0
C1295 C 0.79634 1.00019 0.64299 0.0
C1296 C 0.78448 0.0185 0.64513 0.0
C1297 C 0.77188 0.01886 0.61751 0.0
C1298 C 0.76494 0.00955 0.66642 0.0
C1299 C 0.80846 0.0461 0.65426 0.0
C1300 C 0.83034 0.04364 0.65687 0.0
C1301 C 0.85488 0.0663 0.66449 0.0
C1302 C 0.85717 0.09219 0.66942 0.0
C1303 C 0.83506 0.09533 0.66687 0.0
C1304 C 0.81036 0.07183 0.65937 0.0
H1305 H 0.45996 0.38361 0.71955 0.0
H1306 H 0.53105 0.38098 0.73154 0.0
H1307 H 0.50574 0.33008 0.72466 0.0
H1308 H 0.41913 0.32293 0.75257 0.0
H1309 H 0.39116 0.31185 0.72868 0.0
H1310 H 0.41483 0.34793 0.73551 0.0
H1311 H 0.42067 0.35106 0.68451 0.0
H1312 H 0.39708 0.31498 0.67756 0.0
H1313 H 0.4291 0.3283 0.66676 0.0
H1314 H 0.47255 0.27945 0.7164 0.0
H1315 H 0.43432 0.23297 0.70606 0.0
H1316 H 0.38483 0.2687 0.6982 0.0
C1317 C 0.47013 0.37226 0.72107 0.0
C1318 C 0.49739 0.38615 0.72686 0.0
C1319 C 0.51012 0.37068 0.72783 0.0
C1320 C 0.49592 0.3418 0.72385 0.0
C1321 C 0.46902 0.32872 0.71851 0.0
C1322 C 0.45626 0.34345 0.717 0.0
C1323 C 0.4273 0.32446 0.7102 0.0
C1324 C 0.41222 0.32695 0.73311 0.0
C1325 C 0.418 0.33004 0.68315 0.0
C1326 C 0.42574 0.29673 0.7081 0.0
C1327 C 0.45001 0.29964 0.71308 0.0
C1328 C 0.45347 0.27694 0.71244 0.0
C1329 C 0.43157 0.25059 0.70656 0.0
C1330 C 0.40648 0.24707 0.70122 0.0
C1331 C 0.40368 0.27059 0.70203 0.0
H1332 H 0.6343 0.07728 0.74901 0.0
H1333 H 0.60041 0.09918 0.68267 0.0
H1334 H 0.64157 0.11796 0.66141 0.0
H1335 H 0.69878 0.13738 0.75233 0.0
H1336 H 0.71514 0.11874 0.76032 0.0
H1337 H 0.68313 0.10728 0.77036 0.0
H1338 H 0.66686 0.05913 0.74523 0.0
H1339 H 0.69878 0.07048 0.73499 0.0
H1340 H 0.67119 0.05628 0.70996 0.0
H1341 H 0.68591 0.13341 0.64701 0.0
H1342 H 0.73132 0.14668 0.64131 0.0
H1343 H 0.73691 0.11505 0.71711 0.0
C1344 C 0.63565 0.08604 0.73 0.0
C1345 C 0.61415 0.08642 0.71715 0.0
C1346 C 0.61661 0.0984 0.69255 0.0
C1347 C 0.63987 0.10909 0.68038 0.0
C1348 C 0.66056 0.10787 0.69324 0.0
C1349 C 0.65878 0.09685 0.7176 0.0
C1350 C 0.68402 0.09828 0.72724 0.0
C1351 C 0.69597 0.11651 0.75416 0.0
C1352 C 0.67996 0.06932 0.72948 0.0
C1353 C 0.70019 0.11166 0.70441 0.0
C1354 C 0.68625 0.11699 0.68501 0.0
C1355 C 0.69701 0.12935 0.66206 0.0
C1356 C 0.72279 0.13675 0.65896 0.0
C1357 C 0.73754 0.13176 0.67869 0.0
C1358 C 0.726 0.11891 0.70162 0.0
H1359 H 0.92388 0.55193 0.71511 0.0
H1360 H 0.8509 0.4749 0.71042 0.0
H1361 H 0.82714 0.49939 0.70038 0.0
H1362 H 0.90217 0.59513 0.74634 0.0
H1363 H 0.92098 0.62372 0.72735 0.0
H1364 H 0.93205 0.60012 0.7346 0.0
H1365 H 0.93405 0.59098 0.6835 0.0
H1366 H 0.92291 0.61449 0.67613 0.0
H1367 H 0.90551 0.57962 0.66037 0.0
H1368 H 0.81139 0.53272 0.69202 0.0
H1369 H 0.80494 0.57183 0.68381 0.0
H1370 H 0.88843 0.62672 0.69226 0.0
C1371 C 0.90289 0.54029 0.71215 0.0
C1372 C 0.88916 0.51165 0.71422 0.0
C1373 C 0.86173 0.49696 0.70952 0.0
C1374 C 0.8481 0.51068 0.70375 0.0
C1375 C 0.86221 0.53902 0.70228 0.0
C1376 C 0.88901 0.55363 0.70617 0.0
C1377 C 0.89957 0.58386 0.70296 0.0
C1378 C 0.91457 0.60176 0.72939 0.0
C1379 C 0.91651 0.59275 0.67933 0.0
C1380 C 0.87455 0.584 0.69672 0.0
C1381 C 0.8532 0.55798 0.69657 0.0
C1382 C 0.82798 0.55316 0.69192 0.0
C1383 C 0.82451 0.57552 0.6873 0.0
C1384 C 0.84615 0.60234 0.68713 0.0
C1385 C 0.87145 0.60646 0.69188 0.0
H1386 H 0.45949 0.92422 0.17612 0.0
H1387 H 0.48414 0.9976 0.23039 0.0
H1388 H 0.50062 0.02641 0.19261 0.0
H1389 H 0.51249 0.95233 0.13544 0.0
H1390 H 0.49304 0.9346 0.10408 0.0
H1391 H 0.48294 0.91974 0.13527 0.0
H1392 H 0.43857 0.91713 0.12535 0.0
H1393 H 0.44871 0.93182 0.09409 0.0
H1394 H 0.43795 0.94785 0.11842 0.0
H1395 H 0.51583 0.04725 0.14951 0.0
H1396 H 0.52793 0.05868 0.10337 0.0
H1397 H 0.49176 0.97166 0.07671 0.0
C1398 C 0.4684 0.94635 0.17987 0.0
C1399 C 0.47082 0.95892 0.20597 0.0
C1400 C 0.4823 0.98783 0.21039 0.0
C1401 C 0.49162 1.00426 0.18912 0.0
C1402 C 0.48897 0.99136 0.16352 0.0
C1403 C 0.47747 0.96305 0.15871 0.0
C1404 C 0.47693 0.95446 0.12921 0.0
C1405 C 0.49227 0.9394 0.12582 0.0
C1406 C 0.44888 0.93678 0.11601 0.0
C1407 C 0.49047 0.98237 0.11843 0.0
C1408 C 0.49718 1.00338 0.13851 0.0
C1409 C 0.51052 0.03099 0.13355 0.0
C1410 C 0.51734 0.0373 0.10737 0.0
C1411 C 0.51071 0.01608 0.0866 0.0
C1412 C 0.49693 0.98831 0.09221 0.0
H1413 H 0.11532 0.54716 0.18891 0.0
H1414 H 0.05594 0.48616 0.23275 0.0
H1415 H 0.02531 0.46857 0.19134 0.0
H1416 H 0.07615 0.5635 0.1492 0.0
H1417 H 0.09188 0.56641 0.1188 0.0
H1418 H 0.10977 0.57267 0.15118 0.0
H1419 H 0.12154 0.53566 0.13647 0.0
H1420 H 0.10364 0.5293 0.10398 0.0
H1421 H 0.096 0.50133 0.12436 0.0
H1422 H 0.99977 0.46174 0.14716 0.0
H1423 H 0.98188 0.46376 0.10192 0.0
H1424 H 0.05853 0.52662 0.08542 0.0
C1425 C 0.09596 0.52984 0.18956 0.0
C1426 C 0.08785 0.51793 0.21388 0.0
C1427 C 0.06246 0.49534 0.21418 0.0
C1428 C 0.04498 0.48526 0.19081 0.0
C1429 C 0.05341 0.49763 0.16718 0.0
C1430 C 0.07844 0.5191 0.16621 0.0
C1431 C 0.08235 0.52907 0.13834 0.0
C1432 C 0.0905 0.55972 0.13946 0.0
C1433 C 0.10205 0.52351 0.12501 0.0
C1434 C 0.05526 0.51086 0.12426 0.0
C1435 C 0.03891 0.49275 0.14121 0.0
C1436 C 0.01249 0.47539 0.1335 0.0
C1437 C 1.00248 0.47673 0.10787 0.0
C1438 C 0.0189 0.49507 0.09023 0.0
C1439 C 0.04568 0.512 0.09837 0.0
H1440 H 0.5087 0.58881 0.19567 0.0
H1441 H 0.4729 0.50554 0.2193 0.0
H1442 H 0.48134 0.48968 0.17605 0.0
H1443 H 0.48541 0.5697 0.12637 0.0
H1444 H 0.51415 0.5949 0.11302 0.0
H1445 H 0.50647 0.60243 0.1457 0.0
H1446 H 0.5498 0.61222 0.16957 0.0
H1447 H 0.5598 0.6075 0.13729 0.0
H1448 H 0.56061 0.5878 0.16415 0.0
H1449 H 0.4921 0.48243 0.12951 0.0
H1450 H 0.5085 0.48524 0.0847 0.0
H1451 H 0.54161 0.57375 0.09344 0.0
C1452 C 0.50294 0.5673 0.19205 0.0
C1453 C 0.48992 0.54844 0.21102 0.0
C1454 C 0.48235 0.52036 0.20498 0.0
C1455 C 0.48722 0.51114 0.1805 0.0
C1456 C 0.49998 0.53025 0.16233 0.0
C1457 C 0.50801 0.55779 0.1679 0.0
C1458 C 0.52162 0.5741 0.14498 0.0
C1459 C 0.506 0.58603 0.13179 0.0
C1460 C 0.54962 0.59674 0.15458 0.0
C1461 C 0.52088 0.55163 0.12612 0.0
C1462 C 0.50761 0.52634 0.13618 0.0
C1463 C 0.50287 0.50216 0.12162 0.0
C1464 C 0.51221 0.50394 0.09626 0.0
C1465 C 0.52668 0.52975 0.08609 0.0
C1466 C 0.53109 0.55388 0.10118 0.0
H1467 H 0.97014 0.46538 0.80951 0.0
H1468 H 0.89755 0.45923 0.828 0.0
H1469 H 0.91422 0.4731 0.87607 0.0
H1470 H 0.98214 0.44013 0.87077 0.0
H1471 H 0.01665 0.46373 0.87447 0.0
H1472 H 0.99902 0.45291 0.8414 0.0
H1473 H 0.01665 0.50391 0.83304 0.0
H1474 H 0.03414 0.51486 0.86619 0.0
H1475 H 0.01152 0.5259 0.85648 0.0
H1476 H 0.93707 0.48506 0.92158 0.0
H1477 H 0.96561 0.49583 0.96314 0.0
H1478 H 0.02589 0.4987 0.91667 0.0
C1479 C 0.95786 0.46688 0.82383 0.0
C1480 C 0.93255 0.46123 0.81525 0.0
C1481 C 0.91698 0.46355 0.83432 0.0
C1482 C 0.92628 0.47142 0.86159 0.0
C1483 C 0.95135 0.4772 0.86946 0.0
C1484 C 0.96705 0.47518 0.85129 0.0
C1485 C 0.99335 0.4829 0.86548 0.0
C1486 C 0.99806 0.45846 0.86288 0.0
C1487 C 0.01521 0.50841 0.85465 0.0
C1488 C 0.98978 0.48932 0.89442 0.0
C1489 C 0.96529 0.48571 0.89606 0.0
C1490 C 0.95652 0.48859 0.92054 0.0
C1491 C 0.97306 0.49508 0.9441 0.0
C1492 C 0.9984 0.49928 0.9432 0.0
C1493 C 1.00695 0.49652 0.91793 0.0
H1494 H 0.57701 0.49933 0.8417 0.0
H1495 H 0.5242 0.51185 0.78957 0.0
H1496 H 0.50856 0.52499 0.82971 0.0
H1497 H 0.53546 0.46725 0.88879 0.0
H1498 H 0.55838 0.48243 0.91831 0.0
H1499 H 0.5693 0.479 0.88626 0.0
H1500 H 0.60226 0.53007 0.89088 0.0
H1501 H 0.59198 0.53758 0.92198 0.0
H1502 H 0.59182 0.55504 0.8932 0.0
H1503 H 0.49649 0.53321 0.8762 0.0
H1504 H 0.48785 0.53382 0.92416 0.0
H1505 H 0.54644 0.51234 0.94491 0.0
C1506 C 0.56269 0.50562 0.83885 0.0
C1507 C 0.55212 0.50524 0.81276 0.0
C1508 C 0.53281 0.51264 0.80955 0.0
C1509 C 0.52384 0.52006 0.83219 0.0
C1510 C 0.53434 0.51981 0.85783 0.0
C1511 C 0.55338 0.5128 0.86119 0.0
C1512 C 0.56016 0.51212 0.8907 0.0
C1513 C 0.55557 0.48353 0.89634 0.0
C1514 C 0.58823 0.53498 0.8997 0.0
C1515 C 0.54103 0.51832 0.9034 0.0
C1516 C 0.52681 0.52353 0.88426 0.0
C1517 C 0.50769 0.52937 0.89134 0.0
C1518 C 0.50288 0.52963 0.91861 0.0
C1519 C 0.51676 0.52354 0.93836 0.0
C1520 C 0.53607 0.51789 0.9305 0.0
H1521 H 0.54186 0.09016 0.8471 0.0
H1522 H 0.51672 0.01699 0.79234 0.0
H1523 H 0.50277 0.98824 0.83053 0.0
H1524 H 0.56743 0.06804 0.90205 0.0
H1525 H 0.55752 0.08317 0.92823 0.0
H1526 H 0.56526 0.09822 0.89673 0.0
H1527 H 0.52011 0.09399 0.88983 0.0
H1528 H 0.51238 0.07931 0.92145 0.0
H1529 H 0.49135 0.06098 0.89105 0.0
H1530 H 0.49026 0.96746 0.87436 0.0
H1531 H 0.48126 0.95615 0.92121 0.0
H1532 H 0.51634 0.04305 0.94779 0.0
C1533 C 0.53335 0.06807 0.84331 0.0
C1534 C 0.5301 0.05555 0.81696 0.0
C1535 C 0.51921 0.02673 0.81251 0.0
C1536 C 0.51129 0.01033 0.83402 0.0
C1537 C 0.51475 0.02321 0.85987 0.0
C1538 C 0.52571 0.05144 0.86466 0.0
C1539 C 0.52766 0.06009 0.89445 0.0
C1540 C 0.55616 0.07847 0.90605 0.0
C1541 C 0.51193 0.07443 0.89946 0.0
C1542 C 0.51553 0.03228 0.9055 0.0
C1543 C 0.50827 0.01128 0.88524 0.0
C1544 C 0.49603 0.98374 0.89043 0.0
C1545 C 0.49097 0.9775 0.91704 0.0
C1546 C 0.49825 0.99871 0.93804 0.0
C1547 C 0.51083 0.02643 0.93216 0.0
H1548 H 0.12142 0.25174 0.51574 0.0
H1549 H 0.13277 0.32211 0.56754 0.0
H1550 H 0.14779 0.35114 0.52983 0.0
H1551 H 0.17608 0.28716 0.47881 0.0
H1552 H 0.15987 0.26778 0.44677 0.0
H1553 H 0.14944 0.2523 0.47762 0.0
H1554 H 0.10273 0.24168 0.46332 0.0
H1555 H 0.11308 0.25725 0.43245 0.0
H1556 H 0.09743 0.26927 0.45483 0.0
H1557 H 0.1645 0.37318 0.48801 0.0
H1558 H 0.18011 0.38662 0.44346 0.0
H1559 H 0.15509 0.3016 0.41719 0.0
C1560 C 0.12703 0.27325 0.51897 0.0
C1561 C 0.12606 0.28484 0.54444 0.0
C1562 C 0.13334 0.31296 0.54808 0.0
C1563 C 0.14187 0.32955 0.52682 0.0
C1564 C 0.14258 0.31758 0.50192 0.0
C1565 C 0.13512 0.29003 0.49773 0.0
C1566 C 0.13777 0.28247 0.46886 0.0
C1567 C 0.15694 0.2718 0.46798 0.0
C1568 C 0.11117 0.26142 0.45399 0.0
C1569 C 0.14857 0.31022 0.4578 0.0
C1570 C 0.15118 0.33016 0.47725 0.0
C1571 C 0.1622 0.35771 0.47246 0.0
C1572 C 0.17103 0.36516 0.44718 0.0
C1573 C 0.16851 0.34511 0.42697 0.0
C1574 C 0.15678 0.31723 0.4322 0.0
H1575 H 0.77928 0.87496 0.51526 0.0
H1576 H 0.7182 0.81627 0.55912 0.0
H1577 H 0.68739 0.80054 0.51783 0.0
H1578 H 0.74227 0.89474 0.47624 0.0
H1579 H 0.75781 0.89696 0.44583 0.0
H1580 H 0.77536 0.90209 0.47817 0.0
H1581 H 0.7848 0.86341 0.46309 0.0
H1582 H 0.76733 0.85826 0.43061 0.0
H1583 H 0.75822 0.82975 0.45061 0.0
H1584 H 0.66225 0.79561 0.47336 0.0
H1585 H 0.64563 0.79876 0.42778 0.0
H1586 H 0.72395 0.85776 0.41196 0.0
C1587 C 0.75951 0.85847 0.51591 0.0
C1588 C 0.75095 0.84671 0.54016 0.0
C1589 C 0.72501 0.82529 0.54055 0.0
C1590 C 0.70744 0.8163 0.51726 0.0
C1591 C 0.71633 0.82859 0.49368 0.0
C1592 C 0.7419 0.84884 0.49269 0.0
C1593 C 0.74641 0.85901 0.46497 0.0
C1594 C 0.75602 0.89003 0.4664 0.0
C1595 C 0.76531 0.85219 0.45153 0.0
C1596 C 0.71922 0.8421 0.45083 0.0
C1597 C 0.70211 0.82468 0.46771 0.0
C1598 C 0.67555 0.80872 0.45978 0.0
C1599 C 0.66627 0.81068 0.43396 0.0
C1600 C 0.68356 0.82819 0.41639 0.0
C1601 C 0.71037 0.84376 0.42484 0.0
H1602 H 0.13773 0.88969 0.51779 0.0
H1603 H 0.18187 0.8671 0.57169 0.0
H1604 H 0.19659 0.85164 0.53237 0.0
H1605 H 0.11817 0.83362 0.46356 0.0
H1606 H 0.12185 0.85548 0.43717 0.0
H1607 H 0.11297 0.86229 0.4694 0.0
H1608 H 0.1523 0.91207 0.47367 0.0
H1609 H 0.16124 0.90522 0.44153 0.0
H1610 H 0.18438 0.91733 0.47099 0.0
H1611 H 0.20857 0.8415 0.48763 0.0
H1612 H 0.21807 0.83842 0.44039 0.0
H1613 H 0.16641 0.86798 0.41533 0.0
C1614 C 0.15016 0.88106 0.52112 0.0
C1615 C 0.15858 0.8792 0.5475 0.0
C1616 C 0.17519 0.86837 0.55146 0.0
C1617 C 0.18354 0.85953 0.52931 0.0
C1618 C 0.17507 0.86174 0.50343 0.0
C1619 C 0.15875 0.87224 0.49919 0.0
C1620 C 0.15384 0.87398 0.4694 0.0
C1621 C 0.12499 0.85522 0.4593 0.0
C1622 C 0.16353 0.90393 0.46357 0.0
C1623 C 0.17027 0.86323 0.45761 0.0
C1624 C 0.18215 0.85607 0.47757 0.0
C1625 C 0.19918 0.84679 0.47179 0.0
C1626 C 0.20448 0.84513 0.44495 0.0
C1627 C 0.19285 0.85278 0.42429 0.0
C1628 C 0.17527 0.8616 0.43069 0.0
H1629 H 0.57557 0.78295 0.16882 0.0
H1630 H 0.63866 0.82605 0.1196 0.0
H1631 H 0.66991 0.84501 0.16057 0.0
H1632 H 0.60172 0.83742 0.2257 0.0
H1633 H 0.59068 0.81342 0.2509 0.0
H1634 H 0.57299 0.80407 0.2179 0.0
H1635 H 0.57741 0.76061 0.21228 0.0
H1636 H 0.59496 0.76977 0.24528 0.0
H1637 H 0.60918 0.76429 0.21639 0.0
H1638 H 0.69446 0.85662 0.206 0.0
H1639 H 0.711 0.86051 0.25355 0.0
H1640 H 0.63211 0.8118 0.27424 0.0
C1641 C 0.59597 0.79651 0.16688 0.0
C1642 C 0.60494 0.80314 0.14127 0.0
C1643 C 0.63164 0.82088 0.13919 0.0
C1644 C 0.64943 0.83176 0.16229 0.0
C1645 C 0.64011 0.82491 0.18733 0.0
C1646 C 0.61402 0.80784 0.18986 0.0
C1647 C 0.60934 0.80337 0.21922 0.0
C1648 C 0.5927 0.81528 0.229 0.0
C1649 C 0.597 0.77269 0.22354 0.0
C1650 C 0.63694 0.81991 0.2326 0.0
C1651 C 0.65433 0.83229 0.21381 0.0
C1652 C 0.68103 0.84735 0.22097 0.0
C1653 C 0.69024 0.84946 0.24798 0.0
C1654 C 0.67284 0.8367 0.2675 0.0
C1655 C 0.64582 0.82217 0.25978 0.0
H1656 H 0.25515 0.82414 0.18956 0.0
H1657 H 0.20111 0.82702 0.13003 0.0
H1658 H 0.18265 0.84163 0.16625 0.0
H1659 H 0.21057 0.79408 0.23674 0.0
H1660 H 0.23304 0.81239 0.26626 0.0
H1661 H 0.24469 0.80632 0.23564 0.0
H1662 H 0.27677 0.85867 0.23624 0.0
H1663 H 0.26518 0.86478 0.26695 0.0
H1664 H 0.26466 0.88224 0.23798 0.0
H1665 H 0.1677 0.85214 0.2089 0.0
H1666 H 0.15584 0.85548 0.25511 0.0
H1667 H 0.21827 0.84381 0.2872 0.0
C1668 C 0.23992 0.82863 0.18424 0.0
C1669 C 0.22974 0.82496 0.15709 0.0
C1670 C 0.20925 0.83005 0.15075 0.0
C1671 C 0.19875 0.83842 0.17116 0.0
C1672 C 0.20885 0.84141 0.19783 0.0
C1673 C 0.22896 0.83664 0.20447 0.0
C1674 C 0.23445 0.83864 0.23486 0.0
C1675 C 0.23043 0.81122 0.24389 0.0
C1676 C 0.26189 0.86251 0.24457 0.0
C1677 C 0.2139 0.84462 0.24417 0.0
C1678 C 0.19964 0.84661 0.22253 0.0
C1679 C 0.17889 0.85088 0.22603 0.0
C1680 C 0.17227 0.85274 0.25232 0.0
C1681 C 0.18617 0.84999 0.27467 0.0
C1682 C 0.20746 0.84627 0.2705 0.0
H1683 H 0.17199 0.36869 0.14807 0.0
H1684 H 0.24541 0.44341 0.17249 0.0
H1685 H 0.24265 0.43146 0.21948 0.0
H1686 H 0.14104 0.36903 0.20776 0.0
H1687 H 0.12475 0.33226 0.20885 0.0
H1688 H 0.13238 0.34658 0.17702 0.0
H1689 H 0.15731 0.32076 0.16785 0.0
H1690 H 0.14985 0.30647 0.19973 0.0
H1691 H 0.1831 0.3257 0.19222 0.0
H1692 H 0.23094 0.41341 0.26366 0.0
H1693 H 0.21208 0.38896 0.3029 0.0
H1694 H 0.14768 0.32345 0.25057 0.0
C1695 C 0.1874 0.38248 0.1634 0.0
C1696 C 0.20895 0.40697 0.15676 0.0
C1697 C 0.22888 0.42447 0.1772 0.0
C1698 C 0.22744 0.4179 0.20391 0.0
C1699 C 0.20607 0.39358 0.2098 0.0
C1700 C 0.18647 0.37599 0.1902 0.0
C1701 C 0.1658 0.35104 0.20217 0.0
C1702 C 0.13943 0.34966 0.19875 0.0
C1703 C 0.16391 0.32442 0.18975 0.0
C1704 C 0.17678 0.35754 0.23158 0.0
C1705 C 0.19995 0.3823 0.23541 0.0
C1706 C 0.21313 0.3937 0.26086 0.0
C1707 C 0.20237 0.37948 0.28305 0.0
C1708 C 0.17893 0.35383 0.27976 0.0
C1709 C 0.166 0.34266 0.25361 0.0
H1710 H 0.8228 0.59768 0.85831 0.0
H1711 H 0.76839 0.62522 0.87527 0.0
H1712 H 0.77626 0.64727 0.83306 0.0
H1713 H 0.86914 0.66086 0.83269 0.0
H1714 H 0.87809 0.64368 0.80756 0.0
H1715 H 0.86712 0.62859 0.83849 0.0
H1716 H 0.83139 0.58368 0.81096 0.0
H1717 H 0.84214 0.59871 0.77996 0.0
H1718 H 0.80881 0.58521 0.78655 0.0
H1719 H 0.78869 0.665 0.78809 0.0
H1720 H 0.80873 0.6816 0.74593 0.0
H1721 H 0.85828 0.647 0.76059 0.0
C1722 C 0.81271 0.60858 0.85346 0.0
C1723 C 0.79455 0.60911 0.87015 0.0
C1724 C 0.78175 0.62358 0.8626 0.0
C1725 C 0.78623 0.63643 0.83869 0.0
C1726 C 0.80397 0.6352 0.82266 0.0
C1727 C 0.81733 0.62204 0.82991 0.0
C1728 C 0.83619 0.62476 0.8096 0.0
C1729 C 0.8643 0.64041 0.82288 0.0
C1730 C 0.8292 0.5964 0.79597 0.0
C1731 C 0.83134 0.64154 0.78989 0.0
C1732 C 0.81235 0.64694 0.79757 0.0
C1733 C 0.80378 0.66118 0.78202 0.0
C1734 C 0.81517 0.67043 0.75813 0.0
C1735 C 0.83513 0.66576 0.75035 0.0
C1736 C 0.84328 0.65114 0.76641 0.0
H1737 H 0.40903 0.21997 0.88555 0.0
H1738 H 0.43191 0.15805 0.87528 0.0
H1739 H 0.41 0.14445 0.8293 0.0
H1740 H 0.34808 0.18448 0.84691 0.0
H1741 H 0.35164 0.21415 0.83144 0.0
H1742 H 0.36806 0.21844 0.86431 0.0
H1743 H 0.41212 0.25187 0.84713 0.0
H1744 H 0.39581 0.24789 0.81426 0.0
H1745 H 0.42209 0.2409 0.81774 0.0
H1746 H 0.38273 0.13513 0.78536 0.0
H1747 H 0.35766 0.13558 0.74445 0.0
H1748 H 0.35914 0.20826 0.78026 0.0
C1749 C 0.40993 0.20383 0.87372 0.0
C1750 C 0.42188 0.18978 0.88479 0.0
C1751 C 0.42211 0.16858 0.86812 0.0
C1752 C 0.40992 0.16081 0.8417 0.0
C1753 C 0.39813 0.17487 0.83174 0.0
C1754 C 0.39857 0.19635 0.84699 0.0
C1755 C 0.38559 0.20902 0.83096 0.0
C1756 C 0.36194 0.20635 0.8442 0.0
C1757 C 0.40507 0.23921 0.82731 0.0
C1758 C 0.37744 0.19099 0.80445 0.0
C1759 C 0.38455 0.17116 0.80547 0.0
C1760 C 0.37775 0.15107 0.78404 0.0
C1761 C 0.36378 0.15163 0.76075 0.0
C1762 C 0.35751 0.17259 0.75873 0.0
C1763 C 0.36419 0.19232 0.78103 0.0
H1764 H 0.84881 0.20753 0.88386 0.0
H1765 H 0.7737 0.1998 0.86391 0.0
H1766 H 0.77328 0.183 0.81709 0.0
H1767 H 0.87518 0.23344 0.82513 0.0
H1768 H 0.89263 0.21519 0.82153 0.0
H1769 H 0.88565 0.22289 0.85444 0.0
H1770 H 0.86266 0.17118 0.86202 0.0
H1771 H 0.86973 0.16331 0.82913 0.0
H1772 H 0.83675 0.14633 0.83774 0.0
H1773 H 0.7845 0.17598 0.77158 0.0
H1774 H 0.80447 0.17388 0.73058 0.0
H1775 H 0.87055 0.18132 0.77905 0.0
C1776 C 0.83204 0.20167 0.86974 0.0
C1777 C 0.81118 0.20477 0.87759 0.0
C1778 C 0.78965 0.19712 0.85852 0.0
C1779 C 0.78929 0.18768 0.83183 0.0
C1780 C 0.81043 0.18558 0.82457 0.0
C1781 C 0.83121 0.19185 0.84302 0.0
C1782 C 0.8521 0.18926 0.82945 0.0
C1783 C 0.8779 0.21684 0.83284 0.0
C1784 C 0.8555 0.16614 0.84023 0.0
C1785 C 0.84024 0.18169 0.80034 0.0
C1786 C 0.81618 0.17969 0.79809 0.0
C1787 C 0.80277 0.17629 0.77313 0.0
C1788 C 0.81416 0.17482 0.74986 0.0
C1789 C 0.83838 0.17595 0.75153 0.0
C1790 C 0.85152 0.17927 0.77717 0.0
H1791 H 0.25827 0.09663 0.49386 0.0
H1792 H 0.29187 0.18117 0.47399 0.0
H1793 H 0.31315 0.19766 0.52016 0.0
H1794 H 0.249 0.10692 0.56278 0.0
H1795 H 0.25925 0.08387 0.57453 0.0
H1796 H 0.24464 0.0783 0.54045 0.0
H1797 H 0.28478 0.07942 0.522 0.0
H1798 H 0.29929 0.08461 0.55604 0.0
H1799 H 0.31662 0.10859 0.53216 0.0
H1800 H 0.32976 0.2053 0.56943 0.0
H1801 H 0.34636 0.20304 0.61541 0.0
H1802 H 0.30703 0.11412 0.60085 0.0
C1803 C 0.27031 0.11862 0.49885 0.0
C1804 C 0.27266 0.13744 0.48001 0.0
C1805 C 0.2887 0.1661 0.48802 0.0
C1806 C 0.30112 0.17579 0.51427 0.0
C1807 C 0.29796 0.15667 0.5323 0.0
C1808 C 0.28347 0.12869 0.52475 0.0
C1809 C 0.28479 0.11249 0.54739 0.0
C1810 C 0.25781 0.09433 0.55684 0.0
C1811 C 0.29711 0.09527 0.53889 0.0
C1812 C 0.30234 0.13577 0.56876 0.0
C1813 C 0.30924 0.1611 0.55992 0.0
C1814 C 0.32473 0.1856 0.57648 0.0
C1815 C 0.33395 0.18416 0.60253 0.0
C1816 C 0.32814 0.15848 0.61132 0.0
C1817 C 0.31193 0.13403 0.59435 0.0
H1818 H 0.89515 0.13267 0.506 0.0
H1819 H 0.88538 0.19132 0.46162 0.0
H1820 H 0.87211 0.20636 0.50223 0.0
H1821 H 0.84165 0.11289 0.54527 0.0
H1822 H 0.85815 0.11082 0.57567 0.0
H1823 H 0.86725 0.10495 0.54325 0.0
H1824 H 0.91482 0.14311 0.5579 0.0
H1825 H 0.90578 0.14921 0.59032 0.0
H1826 H 0.92175 0.17717 0.56973 0.0
H1827 H 0.85713 0.21276 0.54621 0.0
H1828 H 0.84267 0.21128 0.59185 0.0
H1829 H 0.86512 0.15113 0.60928 0.0
C1830 C 0.89017 0.14865 0.50498 0.0
C1831 C 0.89111 0.16083 0.4808 0.0
C1832 C 0.88476 0.18185 0.48007 0.0
C1833 C 0.87726 0.19051 0.50298 0.0
C1834 C 0.87663 0.17825 0.52659 0.0
C1835 C 0.88311 0.15795 0.5279 0.0
C1836 C 0.88081 0.14828 0.5559 0.0
C1837 C 0.86077 0.11741 0.55495 0.0
C1838 C 0.90737 0.15484 0.56924 0.0
C1839 C 0.87137 0.16579 0.56984 0.0
C1840 C 0.8691 0.18293 0.55252 0.0
C1841 C 0.85919 0.19977 0.56012 0.0
C1842 C 0.85103 0.1988 0.586 0.0
C1843 C 0.85315 0.18141 0.60402 0.0
C1844 C 0.86385 0.16505 0.59601 0.0
H1845 H 0.83402 0.70545 0.47825 0.0
H1846 H 0.91391 0.76896 0.50271 0.0
H1847 H 0.90934 0.75418 0.54867 0.0
H1848 H 0.80897 0.71379 0.53952 0.0
H1849 H 0.7858 0.67764 0.53935 0.0
H1850 H 0.79572 0.69224 0.508 0.0
H1851 H 0.80963 0.6565 0.49552 0.0
H1852 H 0.79976 0.6418 0.52685 0.0
H1853 H 0.83238 0.65366 0.51851 0.0
H1854 H 0.89544 0.7343 0.59249 0.0
H1855 H 0.87346 0.7098 0.63061 0.0
H1856 H 0.80277 0.65905 0.57834 0.0
C1857 C 0.85058 0.71638 0.49324 0.0
C1858 C 0.87439 0.73841 0.48672 0.0
C1859 C 0.89562 0.75178 0.50697 0.0
C1860 C 0.89314 0.74367 0.53322 0.0
C1861 C 0.86931 0.72218 0.53897 0.0
C1862 C 0.8484 0.70869 0.51957 0.0
C1863 C 0.82474 0.68664 0.53117 0.0
C1864 C 0.8025 0.69297 0.5294 0.0
C1865 C 0.81613 0.65795 0.51718 0.0
C1866 C 0.83564 0.68978 0.56017 0.0
C1867 C 0.86138 0.71041 0.56417 0.0
C1868 C 0.87548 0.71767 0.58938 0.0
C1869 C 0.86303 0.70324 0.61094 0.0
C1870 C 0.83695 0.68164 0.60731 0.0
C1871 C 0.82295 0.67515 0.58161 0.0
loop_
_geom_bond_atom_site_label_1
_geom_bond_atom_site_label_2
_geom_bond_distance
_geom_bond_site_symmetry_2
_ccdc_geom_bond_type
H0 C7 0.929 . S
H1 C10 0.930 . S
H2 C12 0.929 . S
H3 C4 0.969 . S
C4 H3 0.969 . S
C4 O5 1.550 . S
C4 H6 0.973 . S
O5 C4 1.550 . S
O5 C11 1.412 . S
H6 C4 0.973 . S
C7 H0 0.929 . S
C7 C8 1.400 . S
C7 C9 1.364 . S
C8 C7 1.400 . S
C8 C12 1.377 . S
C9 C7 1.364 . S
C9 C10 1.374 . S
C10 H1 0.930 . S
C10 C9 1.374 . S
C10 C11 1.383 . S
C11 O5 1.412 . S
C11 C10 1.383 . S
C11 C12 1.394 . S
C12 H2 0.929 . S
C12 C8 1.377 . S
C12 C11 1.394 . S
H13 C20 0.929 . S
H14 C23 0.930 . S
H15 C25 0.929 . S
H16 C17 0.969 . S
C17 H16 0.969 . S
C17 O18 1.550 . S
C17 H19 0.973 . S
O18 C17 1.550 . S
O18 C24 1.412 . S
H19 C17 0.973 . S
C20 H13 0.929 . S
C20 C21 1.400 . S
C20 C22 1.364 . S
C21 C20 1.400 . S
C21 C25 1.377 . S
C22 C20 1.364 . S
C22 C23 1.374 . S
C23 H14 0.930 . S
C23 C22 1.374 . S
C23 C24 1.383 . S
C24 O18 1.412 . S
C24 C23 1.383 . S
C24 C25 1.394 . S
C25 H15 0.929 . S
C25 C21 1.377 . S
C25 C24 1.394 . S
H26 C33 0.929 . S
H27 C36 0.930 . S
H28 C38 0.929 . S
H29 C30 0.969 . S
C30 H29 0.969 . S
C30 O31 1.550 . S
C30 H32 0.973 . S
O31 C30 1.550 . S
O31 C37 1.412 . S
H32 C30 0.973 . S
C33 H26 0.929 . S
C33 C34 1.400 . S
C33 C35 1.364 . S
C34 C33 1.400 . S
C34 C38 1.377 . S
C35 C33 1.364 . S
C35 C36 1.374 . S
C36 H27 0.930 . S
C36 C35 1.374 . S
C36 C37 1.383 . S
C37 O31 1.412 . S
C37 C36 1.383 . S
C37 C38 1.394 . S
C38 H28 0.929 . S
C38 C34 1.377 . S
C38 C37 1.394 . S
H39 C46 0.929 . S
H40 C49 0.930 . S
H41 C51 0.929 . S
H42 C43 0.969 . S
C43 H42 0.969 . S
C43 O44 1.550 . S
C43 H45 0.973 . S
O44 C43 1.550 . S
O44 C50 1.412 . S
H45 C43 0.973 . S
C46 H39 0.929 . S
C46 C47 1.400 . S
C46 C48 1.364 . S
C47 C46 1.400 . S
C47 C51 1.377 . S
C48 C46 1.364 . S
C48 C49 1.374 . S
C49 H40 0.930 . S
C49 C48 1.374 . S
C49 C50 1.383 . S
C50 O44 1.412 . S
C50 C49 1.383 . S
C50 C51 1.394 . S
C51 H41 0.929 . S
C51 C47 1.377 . S
C51 C50 1.394 . S
H52 C59 0.929 . S
H53 C62 0.930 . S
H54 C64 0.929 . S
H55 C56 0.969 . S
C56 H55 0.969 . S
C56 O57 1.550 . S
C56 H58 0.973 . S
O57 C56 1.550 . S
O57 C63 1.412 . S
H58 C56 0.973 . S
C59 H52 0.929 . S
C59 C60 1.400 . S
C59 C61 1.364 . S
C60 C59 1.400 . S
C60 C64 1.377 . S
C61 C59 1.364 . S
C61 C62 1.374 . S
C62 H53 0.930 . S
C62 C61 1.374 . S
C62 C63 1.383 . S
C63 O57 1.412 . S
C63 C62 1.383 . S
C63 C64 1.394 . S
C64 H54 0.929 . S
C64 C60 1.377 . S
C64 C63 1.394 . S
H65 C72 0.929 . S
H66 C75 0.930 . S
H67 C77 0.929 . S
H68 C69 0.969 . S
C69 H68 0.969 . S
C69 O70 1.550 . S
C69 H71 0.973 . S
O70 C69 1.550 . S
O70 C76 1.412 . S
H71 C69 0.973 . S
C72 H65 0.929 . S
C72 C73 1.400 . S
C72 C74 1.364 . S
C73 C72 1.400 . S
C73 C77 1.377 . S
C74 C72 1.364 . S
C74 C75 1.374 . S
C75 H66 0.930 . S
C75 C74 1.374 . S
C75 C76 1.383 . S
C76 O70 1.412 . S
C76 C75 1.383 . S
C76 C77 1.394 . S
C77 H67 0.929 . S
C77 C73 1.377 . S
C77 C76 1.394 . S
H78 C85 0.929 . S
H79 C88 0.930 . S
H80 C90 0.929 . S
H81 C82 0.969 . S
C82 H81 0.969 . S
C82 O83 1.550 . S
C82 H84 0.973 . S
O83 C82 1.550 . S
O83 C89 1.412 . S
H84 C82 0.973 . S
C85 H78 0.929 . S
C85 C86 1.400 . S
C85 C87 1.364 . S
C86 C85 1.400 . S
C86 C90 1.377 . S
C87 C85 1.364 . S
C87 C88 1.374 . S
C88 H79 0.930 . S
C88 C87 1.374 . S
C88 C89 1.383 . S
C89 O83 1.412 . S
C89 C88 1.383 . S
C89 C90 1.394 . S
C90 H80 0.929 . S
C90 C86 1.377 . S
C90 C89 1.394 . S
H91 C98 0.929 . S
H92 C101 0.930 . S
H93 C103 0.929 . S
H94 C95 0.969 . S
C95 H94 0.969 . S
C95 O96 1.550 . S
C95 H97 0.973 . S
O96 C95 1.550 . S
O96 C102 1.412 . S
H97 C95 0.973 . S
C98 H91 0.929 . S
C98 C99 1.400 . S
C98 C100 1.364 . S
C99 C98 1.400 . S
C99 C103 1.377 . S
C100 C98 1.364 . S
C100 C101 1.374 . S
C101 H92 0.930 . S
C101 C100 1.374 . S
C101 C102 1.383 . S
C102 O96 1.412 . S
C102 C101 1.383 . S
C102 C103 1.394 . S
C103 H93 0.929 . S
C103 C99 1.377 . S
C103 C102 1.394 . S
H104 C111 0.929 . S
H105 C114 0.930 . S
H106 C116 0.929 . S
H107 C108 0.969 . S
C108 H107 0.969 . S
C108 O109 1.550 . S
C108 H110 0.973 . S
O109 C108 1.550 . S
O109 C115 1.412 . S
H110 C108 0.973 . S
C111 H104 0.929 . S
C111 C112 1.400 . S
C111 C113 1.364 . S
C112 C111 1.400 . S
C112 C116 1.377 . S
C113 C111 1.364 . S
C113 C114 1.374 . S
C114 H105 0.930 . S
C114 C113 1.374 . S
C114 C115 1.383 . S
C115 O109 1.412 . S
C115 C114 1.383 . S
C115 C116 1.394 . S
C116 H106 0.929 . S
C116 C112 1.377 . S
C116 C115 1.394 . S
H117 C124 0.929 . S
H118 C127 0.930 . S
H119 C129 0.929 . S
H120 C121 0.969 . S
C121 H120 0.969 . S
C121 O122 1.550 . S
C121 H123 0.973 . S
O122 C121 1.550 . S
O122 C128 1.412 . S
H123 C121 0.973 . S
C124 H117 0.929 . S
C124 C125 1.400 . S
C124 C126 1.364 . S
C125 C124 1.400 . S
C125 C129 1.377 . S
C126 C124 1.364 . S
C126 C127 1.374 . S
C127 H118 0.930 . S
C127 C126 1.374 . S
C127 C128 1.383 . S
C128 O122 1.412 . S
C128 C127 1.383 . S
C128 C129 1.394 . S
C129 H119 0.929 . S
C129 C125 1.377 . S
C129 C128 1.394 . S
H130 C137 0.929 . S
H131 C140 0.930 . S
H132 C142 0.929 . S
H133 C134 0.969 . S
C134 H133 0.969 . S
C134 O135 1.550 . S
C134 H136 0.973 . S
O135 C134 1.550 . S
O135 C141 1.412 . S
H136 C134 0.973 . S
C137 H130 0.929 . S
C137 C138 1.400 . S
C137 C139 1.364 . S
C138 C137 1.400 . S
C138 C142 1.377 . S
C139 C137 1.364 . S
C139 C140 1.374 . S
C140 H131 0.930 . S
C140 C139 1.374 . S
C140 C141 1.383 . S
C141 O135 1.412 . S
C141 C140 1.383 . S
C141 C142 1.394 . S
C142 H132 0.929 . S
C142 C138 1.377 . S
C142 C141 1.394 . S
H143 C150 0.929 . S
H144 C153 0.930 . S
H145 C155 0.929 . S
H146 C147 0.969 . S
C147 H146 0.969 . S
C147 O148 1.550 . S
C147 H149 0.973 . S
O148 C147 1.550 . S
O148 C154 1.412 . S
H149 C147 0.973 . S
C150 H143 0.929 . S
C150 C151 1.400 . S
C150 C152 1.364 . S
C151 C150 1.400 . S
C151 C155 1.377 . S
C152 C150 1.364 . S
C152 C153 1.374 . S
C153 H144 0.930 . S
C153 C152 1.374 . S
C153 C154 1.383 . S
C154 O148 1.412 . S
C154 C153 1.383 . S
C154 C155 1.394 . S
C155 H145 0.929 . S
C155 C151 1.377 . S
C155 C154 1.394 . S
H156 C163 0.929 . S
H157 C166 0.930 . S
H158 C168 0.929 . S
H159 C160 0.969 . S
C160 H159 0.969 . S
C160 O161 1.550 . S
C160 H162 0.973 . S
O161 C160 1.550 . S
O161 C167 1.412 . S
H162 C160 0.973 . S
C163 H156 0.929 . S
C163 C164 1.400 . S
C163 C165 1.364 . S
C164 C163 1.400 . S
C164 C168 1.377 . S
C165 C163 1.364 . S
C165 C166 1.374 . S
C166 H157 0.930 . S
C166 C165 1.374 . S
C166 C167 1.383 . S
C167 O161 1.412 . S
C167 C166 1.383 . S
C167 C168 1.394 . S
C168 H158 0.929 . S
C168 C164 1.377 . S
C168 C167 1.394 . S
H169 C176 0.929 . S
H170 C179 0.930 . S
H171 C181 0.929 . S
H172 C173 0.969 . S
C173 H172 0.969 . S
C173 O174 1.550 . S
C173 H175 0.973 . S
O174 C173 1.550 . S
O174 C180 1.412 . S
H175 C173 0.973 . S
C176 H169 0.929 . S
C176 C177 1.400 . S
C176 C178 1.364 . S
C177 C176 1.400 . S
C177 C181 1.377 . S
C178 C176 1.364 . S
C178 C179 1.374 . S
C179 H170 0.930 . S
C179 C178 1.374 . S
C179 C180 1.383 . S
C180 O174 1.412 . S
C180 C179 1.383 . S
C180 C181 1.394 . S
C181 H171 0.929 . S
C181 C177 1.377 . S
C181 C180 1.394 . S
H182 C189 0.929 . S
H183 C192 0.930 . S
H184 C194 0.929 . S
H185 C186 0.969 . S
C186 H185 0.969 . S
C186 O187 1.550 . S
C186 H188 0.973 . S
O187 C186 1.550 . S
O187 C193 1.412 . S
H188 C186 0.973 . S
C189 H182 0.929 . S
C189 C190 1.400 . S
C189 C191 1.364 . S
C190 C189 1.400 . S
C190 C194 1.377 . S
C191 C189 1.364 . S
C191 C192 1.374 . S
C192 H183 0.930 . S
C192 C191 1.374 . S
C192 C193 1.383 . S
C193 O187 1.412 . S
C193 C192 1.383 . S
C193 C194 1.394 . S
C194 H184 0.929 . S
C194 C190 1.377 . S
C194 C193 1.394 . S
H195 C202 0.929 . S
H196 C205 0.930 . S
H197 C207 0.929 . S
H198 C199 0.969 . S
C199 H198 0.969 . S
C199 O200 1.550 . S
C199 H201 0.973 . S
O200 C199 1.550 . S
O200 C206 1.412 . S
H201 C199 0.973 . S
C202 H195 0.929 . S
C202 C203 1.400 . S
C202 C204 1.364 . S
C203 C202 1.400 . S
C203 C207 1.377 . S
C204 C202 1.364 . S
C204 C205 1.374 . S
C205 H196 0.930 . S
C205 C204 1.374 . S
C205 C206 1.383 . S
C206 O200 1.412 . S
C206 C205 1.383 . S
C206 C207 1.394 . S
C207 H197 0.929 . S
C207 C203 1.377 . S
C207 C206 1.394 . S
H208 C215 0.929 . S
H209 C218 0.930 . S
H210 C220 0.929 . S
H211 C212 0.969 . S
C212 H211 0.969 . S
C212 O213 1.550 . S
C212 H214 0.973 . S
O213 C212 1.550 . S
O213 C219 1.412 . S
H214 C212 0.973 . S
C215 H208 0.929 . S
C215 C216 1.400 . S
C215 C217 1.364 . S
C216 C215 1.400 . S
C216 C220 1.377 . S
C217 C215 1.364 . S
C217 C218 1.374 . S
C218 H209 0.930 . S
C218 C217 1.374 . S
C218 C219 1.383 . S
C219 O213 1.412 . S
C219 C218 1.383 . S
C219 C220 1.394 . S
C220 H210 0.929 . S
C220 C216 1.377 . S
C220 C219 1.394 . S
H221 C228 0.929 . S
H222 C231 0.930 . S
H223 C233 0.929 . S
H224 C225 0.969 . S
C225 H224 0.969 . S
C225 O226 1.550 . S
C225 H227 0.973 . S
O226 C225 1.550 . S
O226 C232 1.412 . S
H227 C225 0.973 . S
C228 H221 0.929 . S
C228 C229 1.400 . S
C228 C230 1.364 . S
C229 C228 1.400 . S
C229 C233 1.377 . S
C230 C228 1.364 . S
C230 C231 1.374 . S
C231 H222 0.930 . S
C231 C230 1.374 . S
C231 C232 1.383 . S
C232 O226 1.412 . S
C232 C231 1.383 . S
C232 C233 1.394 . S
C233 H223 0.929 . S
C233 C229 1.377 . S
C233 C232 1.394 . S
Tb234 O237 2.453 . S
Tb234 O238 2.596 1_545 S
Tb234 O239 2.374 1_545 S
Tb234 O247 2.343 1_554 S
Tb234 O249 2.353 . S
Tb234 O251 2.427 . S
Tb234 O252 2.528 . S
C235 O239 1.251 . S
C235 O241 1.263 1_554 S
Tb236 O238 2.343 1_556 S
Tb236 O241 2.353 . S
Tb236 O244 2.427 1_556 S
Tb236 O245 2.513 1_556 S
Tb236 O246 2.453 . S
Tb236 O247 2.596 1_565 S
Tb236 O248 2.375 1_565 S
O237 Tb234 2.453 . S
O237 C253 1.245 1_545 S
O238 Tb234 2.596 1_565 S
O238 Tb236 2.343 1_554 S
O238 C253 1.259 . S
O239 Tb234 2.374 1_565 S
O239 C235 1.251 . S
C240 O244 1.275 . S
C240 O245 1.246 . S
O241 C235 1.263 1_556 S
O241 Tb236 2.353 . S
C242 O246 1.245 1_545 S
C242 O247 1.259 . S
C243 O248 1.249 1_554 S
C243 O249 1.263 . S
O244 Tb236 2.427 1_554 S
O244 C240 1.275 . S
O245 Tb236 2.513 1_554 S
O245 C240 1.246 . S
O246 Tb236 2.453 . S
O246 C242 1.245 1_565 S
O247 Tb234 2.343 1_556 S
O247 Tb236 2.596 1_545 S
O247 C242 1.259 . S
O248 Tb236 2.375 1_545 S
O248 C243 1.249 1_556 S
O249 Tb234 2.353 . S
O249 C243 1.263 . S
C250 O251 1.275 1_556 S
C250 O252 1.241 1_556 S
O251 Tb234 2.427 . S
O251 C250 1.275 1_554 S
O252 Tb234 2.528 . S
O252 C250 1.241 1_554 S
C253 O237 1.245 1_565 S
C253 O238 1.259 . S
Tb254 O257 2.453 . S
Tb254 O258 2.596 1_655 S
Tb254 O259 2.374 1_655 S
Tb254 O267 2.343 1_554 S
Tb254 O269 2.353 . S
Tb254 O271 2.427 1_554 S
Tb254 O272 2.513 1_554 S
C255 O259 1.251 . S
C255 O261 1.263 . S
Tb256 O258 2.343 1_556 S
Tb256 O261 2.353 1_556 S
Tb256 O264 2.427 1_556 S
Tb256 O265 2.513 1_556 S
Tb256 O266 2.453 . S
Tb256 O267 2.596 1_455 S
Tb256 O268 2.374 1_455 S
O257 Tb254 2.453 . S
O257 C273 1.245 1_655 S
O258 Tb254 2.596 1_455 S
O258 Tb256 2.343 1_554 S
O258 C273 1.259 . S
O259 Tb254 2.374 1_455 S
O259 C255 1.251 . S
C260 O264 1.275 . S
C260 O265 1.246 . S
O261 C255 1.263 . S
O261 Tb256 2.353 1_554 S
C262 O266 1.245 1_655 S
C262 O267 1.259 . S
C263 O268 1.250 1_554 S
C263 O269 1.263 . S
O264 Tb256 2.427 1_554 S
O264 C260 1.275 . S
O265 Tb256 2.513 1_554 S
O265 C260 1.246 . S
O266 Tb256 2.453 . S
O266 C262 1.245 1_455 S
O267 Tb254 2.343 1_556 S
O267 Tb256 2.596 1_655 S
O267 C262 1.259 . S
O268 Tb256 2.374 1_655 S
O268 C263 1.250 1_556 S
O269 Tb254 2.353 . S
O269 C263 1.263 . S
C270 O271 1.275 . S
C270 O272 1.246 . S
O271 Tb254 2.427 1_556 S
O271 C270 1.275 . S
O272 Tb254 2.513 1_556 S
O272 C270 1.246 . S
C273 O257 1.245 1_455 S
C273 O258 1.259 . S
Tb274 O277 2.453 . S
Tb274 O278 2.596 . S
Tb274 O279 2.374 1_556 S
Tb274 O287 2.343 1_556 S
Tb274 O289 2.353 1_556 S
Tb274 O291 2.427 1_556 S
Tb274 O292 2.513 1_556 S
C275 O279 1.251 . S
C275 O281 1.263 . S
Tb276 O278 2.343 1_554 S
Tb276 O281 2.353 . S
Tb276 O284 2.427 . S
Tb276 O285 2.493 1_554 S
Tb276 O286 2.453 . S
Tb276 O287 2.596 . S
Tb276 O288 2.374 . S
O277 Tb274 2.453 . S
O277 C293 1.245 . S
O278 Tb274 2.596 . S
O278 Tb276 2.343 1_556 S
O278 C293 1.259 . S
O279 Tb274 2.374 1_554 S
O279 C275 1.251 . S
C280 O284 1.275 1_556 S
C280 O285 1.251 . S
O281 C275 1.263 . S
O281 Tb276 2.353 . S
C282 O286 1.245 . S
C282 O287 1.259 . S
C283 O288 1.250 . S
C283 O289 1.263 . S
O284 Tb276 2.427 . S
O284 C280 1.275 1_554 S
O285 Tb276 2.493 1_556 S
O285 C280 1.251 . S
O286 Tb276 2.453 . S
O286 C282 1.245 . S
O287 Tb274 2.343 1_554 S
O287 Tb276 2.596 . S
O287 C282 1.259 . S
O288 Tb276 2.374 . S
O288 C283 1.250 . S
O289 Tb274 2.353 1_554 S
O289 C283 1.263 . S
C290 O291 1.275 . S
C290 O292 1.246 . S
O291 Tb274 2.427 1_554 S
O291 C290 1.275 . S
O292 Tb274 2.513 1_554 S
O292 C290 1.246 . S
C293 O277 1.245 . S
C293 O278 1.259 . S
Tb294 O297 2.453 . S
Tb294 O298 2.596 . S
Tb294 O299 2.374 . S
Tb294 O307 2.343 . S
Tb294 O309 2.353 . S
Tb294 O311 2.427 . S
Tb294 O312 2.513 . S
C295 O299 1.251 . S
C295 O301 1.263 . S
Tb296 O298 2.343 . S
Tb296 O301 2.353 . S
Tb296 O304 2.427 . S
Tb296 O305 2.513 . S
Tb296 O306 2.453 . S
Tb296 O307 2.596 . S
Tb296 O308 2.374 . S
O297 Tb294 2.453 . S
O297 C313 1.245 . S
O298 Tb294 2.596 . S
O298 Tb296 2.343 . S
O298 C313 1.259 . S
O299 Tb294 2.374 . S
O299 C295 1.251 . S
C300 O304 1.275 . S
C300 O305 1.246 . S
O301 C295 1.263 . S
O301 Tb296 2.353 . S
C302 O306 1.245 . S
C302 O307 1.259 . S
C303 O308 1.250 . S
C303 O309 1.263 . S
O304 Tb296 2.427 . S
O304 C300 1.275 . S
O305 Tb296 2.513 . S
O305 C300 1.246 . S
O306 Tb296 2.453 . S
O306 C302 1.245 . S
O307 Tb294 2.343 . S
O307 Tb296 2.596 . S
O307 C302 1.259 . S
O308 Tb296 2.374 . S
O308 C303 1.250 . S
O309 Tb294 2.353 . S
O309 C303 1.263 . S
C310 O311 1.275 . S
C310 O312 1.246 . S
O311 Tb294 2.427 . S
O311 C310 1.275 . S
O312 Tb294 2.513 . S
O312 C310 1.246 . S
C313 O297 1.245 . S
C313 O298 1.259 . S
Tb314 O317 2.453 . S
Tb314 O318 2.596 . S
Tb314 O319 2.374 . S
Tb314 O327 2.343 . S
Tb314 O329 2.353 . S
Tb314 O331 2.427 . S
Tb314 O332 2.513 . S
C315 O319 1.251 . S
C315 O321 1.263 . S
Tb316 O318 2.343 . S
Tb316 O321 2.353 . S
Tb316 O324 2.427 . S
Tb316 O325 2.513 . S
Tb316 O326 2.453 . S
Tb316 O327 2.596 . S
Tb316 O328 2.374 . S
O317 Tb314 2.453 . S
O317 C333 1.245 . S
O318 Tb314 2.596 . S
O318 Tb316 2.343 . S
O318 C333 1.259 . S
O319 Tb314 2.374 . S
O319 C315 1.251 . S
C320 O324 1.275 . S
C320 O325 1.246 . S
O321 C315 1.263 . S
O321 Tb316 2.353 . S
C322 O326 1.245 . S
C322 O327 1.259 . S
C323 O328 1.250 . S
C323 O329 1.263 . S
O324 Tb316 2.427 . S
O324 C320 1.275 . S
O325 Tb316 2.513 . S
O325 C320 1.246 . S
O326 Tb316 2.453 . S
O326 C322 1.245 . S
O327 Tb314 2.343 . S
O327 Tb316 2.596 . S
O327 C322 1.259 . S
O328 Tb316 2.374 . S
O328 C323 1.250 . S
O329 Tb314 2.353 . S
O329 C323 1.263 . S
C330 O331 1.275 . S
C330 O332 1.246 . S
O331 Tb314 2.427 . S
O331 C330 1.275 . S
O332 Tb314 2.513 . S
O332 C330 1.246 . S
C333 O317 1.245 . S
C333 O318 1.259 . S
Tb334 O337 2.453 . S
Tb334 O338 2.596 . S
Tb334 O339 2.374 . S
Tb334 O347 2.343 . S
Tb334 O349 2.353 . S
Tb334 O351 2.427 . S
Tb334 O352 2.513 . S
C335 O339 1.251 . S
C335 O341 1.263 . S
Tb336 O338 2.343 . S
Tb336 O341 2.353 . S
Tb336 O344 2.427 . S
Tb336 O345 2.513 . S
Tb336 O346 2.453 . S
Tb336 O347 2.596 . S
Tb336 O348 2.374 . S
O337 Tb334 2.453 . S
O337 C353 1.245 . S
O338 Tb334 2.596 . S
O338 Tb336 2.343 . S
O338 C353 1.259 . S
O339 Tb334 2.374 . S
O339 C335 1.251 . S
C340 O344 1.275 . S
C340 O345 1.246 . S
O341 C335 1.263 . S
O341 Tb336 2.353 . S
C342 O346 1.245 . S
C342 O347 1.259 . S
C343 O348 1.250 . S
C343 O349 1.263 . S
O344 Tb336 2.427 . S
O344 C340 1.275 . S
O345 Tb336 2.513 . S
O345 C340 1.246 . S
O346 Tb336 2.453 . S
O346 C342 1.245 . S
O347 Tb334 2.343 . S
O347 Tb336 2.596 . S
O347 C342 1.259 . S
O348 Tb336 2.374 . S
O348 C343 1.250 . S
O349 Tb334 2.353 . S
O349 C343 1.263 . S
C350 O351 1.275 . S
C350 O352 1.246 . S
O351 Tb334 2.427 . S
O351 C350 1.275 . S
O352 Tb334 2.513 . S
O352 C350 1.246 . S
C353 O337 1.245 . S
C353 O338 1.259 . S
Tb354 O357 2.453 . S
Tb354 O358 2.596 . S
Tb354 O359 2.374 . S
Tb354 O367 2.343 . S
Tb354 O369 2.353 . S
Tb354 O371 2.427 . S
Tb354 O372 2.513 . S
C355 O359 1.251 . S
C355 O361 1.263 . S
Tb356 O358 2.343 . S
Tb356 O361 2.353 . S
Tb356 O364 2.427 . S
Tb356 O365 2.513 . S
Tb356 O366 2.453 . S
Tb356 O367 2.596 . S
Tb356 O368 2.374 . S
O357 Tb354 2.453 . S
O357 C373 1.245 . S
O358 Tb354 2.596 . S
O358 Tb356 2.343 . S
O358 C373 1.259 . S
O359 Tb354 2.374 . S
O359 C355 1.251 . S
C360 O364 1.275 . S
C360 O365 1.246 . S
O361 C355 1.263 . S
O361 Tb356 2.353 . S
C362 O366 1.245 . S
C362 O367 1.259 . S
C363 O368 1.250 . S
C363 O369 1.263 . S
O364 Tb356 2.427 . S
O364 C360 1.275 . S
O365 Tb356 2.513 . S
O365 C360 1.246 . S
O366 Tb356 2.453 . S
O366 C362 1.245 . S
O367 Tb354 2.343 . S
O367 Tb356 2.596 . S
O367 C362 1.259 . S
O368 Tb356 2.374 . S
O368 C363 1.250 . S
O369 Tb354 2.353 . S
O369 C363 1.263 . S
C370 O371 1.275 . S
C370 O372 1.246 . S
O371 Tb354 2.427 . S
O371 C370 1.275 . S
O372 Tb354 2.513 . S
O372 C370 1.246 . S
C373 O357 1.245 . S
C373 O358 1.259 . S
Tb374 O377 2.453 . S
Tb374 O378 2.596 . S
Tb374 O379 2.374 . S
Tb374 O387 2.343 . S
Tb374 O389 2.353 . S
Tb374 O391 2.427 . S
Tb374 O392 2.513 . S
C375 O379 1.251 . S
C375 O381 1.263 . S
Tb376 O378 2.343 . S
Tb376 O381 2.353 . S
Tb376 O384 2.427 . S
Tb376 O385 2.513 . S
Tb376 O386 2.453 . S
Tb376 O387 2.596 . S
Tb376 O388 2.374 . S
O377 Tb374 2.453 . S
O377 C393 1.245 . S
O378 Tb374 2.596 . S
O378 Tb376 2.343 . S
O378 C393 1.259 . S
O379 Tb374 2.374 . S
O379 C375 1.251 . S
C380 O384 1.275 . S
C380 O385 1.246 . S
O381 C375 1.263 . S
O381 Tb376 2.353 . S
C382 O386 1.245 . S
C382 O387 1.259 . S
C383 O388 1.250 . S
C383 O389 1.263 . S
O384 Tb376 2.427 . S
O384 C380 1.275 . S
O385 Tb376 2.513 . S
O385 C380 1.246 . S
O386 Tb376 2.453 . S
O386 C382 1.245 . S
O387 Tb374 2.343 . S
O387 Tb376 2.596 . S
O387 C382 1.259 . S
O388 Tb376 2.374 . S
O388 C383 1.250 . S
O389 Tb374 2.353 . S
O389 C383 1.263 . S
C390 O391 1.275 . S
C390 O392 1.246 . S
O391 Tb374 2.427 . S
O391 C390 1.275 . S
O392 Tb374 2.513 . S
O392 C390 1.246 . S
C393 O377 1.245 . S
C393 O378 1.259 . S
Tb394 O397 2.453 . S
Tb394 O398 2.596 . S
Tb394 O399 2.374 . S
Tb394 O407 2.343 . S
Tb394 O409 2.353 . S
Tb394 O411 2.427 . S
Tb394 O412 2.513 . S
C395 O399 1.251 . S
C395 O401 1.263 . S
Tb396 O398 2.343 . S
Tb396 O401 2.353 . S
Tb396 O404 2.427 . S
Tb396 O405 2.513 . S
Tb396 O406 2.453 . S
Tb396 O407 2.596 . S
Tb396 O408 2.374 . S
O397 Tb394 2.453 . S
O397 C413 1.245 . S
O398 Tb394 2.596 . S
O398 Tb396 2.343 . S
O398 C413 1.259 . S
O399 Tb394 2.374 . S
O399 C395 1.251 . S
C400 O404 1.275 . S
C400 O405 1.246 . S
O401 C395 1.263 . S
O401 Tb396 2.353 . S
C402 O406 1.245 . S
C402 O407 1.259 . S
C403 O408 1.250 . S
C403 O409 1.263 . S
O404 Tb396 2.427 . S
O404 C400 1.275 . S
O405 Tb396 2.513 . S
O405 C400 1.246 . S
O406 Tb396 2.453 . S
O406 C402 1.245 . S
O407 Tb394 2.343 . S
O407 Tb396 2.596 . S
O407 C402 1.259 . S
O408 Tb396 2.374 . S
O408 C403 1.250 . S
O409 Tb394 2.353 . S
O409 C403 1.263 . S
C410 O411 1.275 . S
C410 O412 1.246 . S
O411 Tb394 2.427 . S
O411 C410 1.275 . S
O412 Tb394 2.513 . S
O412 C410 1.246 . S
C413 O397 1.245 . S
C413 O398 1.259 . S
H414 C426 0.930 . S
H415 C428 0.930 . S
H416 C429 0.930 . S
H417 C433 0.959 . S
H418 C433 0.959 . S
H419 C433 0.961 . S
H420 C434 0.960 . S
H421 C434 0.961 . S
H422 C434 0.959 . S
H423 C437 0.929 . S
H424 C438 0.931 . S
H425 C440 0.930 . S
C426 H414 0.930 . S
C426 C427 1.399 . S
C426 C431 1.399 . S
C427 C426 1.399 . S
C427 C428 1.376 . S
C428 H415 0.930 . S
C428 C427 1.376 . S
C428 C429 1.388 . S
C429 H416 0.930 . S
C429 C428 1.388 . S
C429 C430 1.390 . S
C430 C429 1.390 . S
C430 C431 1.394 . S
C430 C436 1.465 . S
C431 C426 1.399 . S
C431 C430 1.394 . S
C431 C432 1.516 . S
C432 C431 1.516 . S
C432 C433 1.502 . S
C432 C434 1.561 . S
C432 C435 1.526 . S
C433 H417 0.959 . S
C433 H418 0.959 . S
C433 H419 0.961 . S
C433 C432 1.502 . S
C434 H420 0.960 . S
C434 H421 0.961 . S
C434 H422 0.959 . S
C434 C432 1.561 . S
C435 C432 1.526 . S
C435 C436 1.396 . S
C435 C440 1.390 . S
C436 C430 1.465 . S
C436 C435 1.396 . S
C436 C437 1.399 . S
C437 H423 0.929 . S
C437 C436 1.399 . S
C437 C438 1.385 . S
C438 H424 0.931 . S
C438 C437 1.385 . S
C438 C439 1.389 . S
C439 C438 1.389 . S
C439 C440 1.387 . S
C440 H425 0.930 . S
C440 C435 1.390 . S
C440 C439 1.387 . S
H441 C453 0.930 . S
H442 C455 0.930 . S
H443 C456 0.930 . S
H444 C460 0.959 . S
H445 C460 0.959 . S
H446 C460 0.961 . S
H447 C461 0.960 . S
H448 C461 0.961 . S
H449 C461 0.959 . S
H450 C464 0.929 . S
H451 C465 0.931 . S
H452 C467 0.930 . S
C453 H441 0.930 . S
C453 C454 1.399 . S
C453 C458 1.399 . S
C454 C453 1.399 . S
C454 C455 1.376 . S
C455 H442 0.930 . S
C455 C454 1.376 . S
C455 C456 1.388 . S
C456 H443 0.930 . S
C456 C455 1.388 . S
C456 C457 1.390 . S
C457 C456 1.390 . S
C457 C458 1.394 . S
C457 C463 1.465 . S
C458 C453 1.399 . S
C458 C457 1.394 . S
C458 C459 1.516 . S
C459 C458 1.516 . S
C459 C460 1.502 . S
C459 C461 1.561 . S
C459 C462 1.526 . S
C460 H444 0.959 . S
C460 H445 0.959 . S
C460 H446 0.961 . S
C460 C459 1.502 . S
C461 H447 0.960 . S
C461 H448 0.961 . S
C461 H449 0.959 . S
C461 C459 1.561 . S
C462 C459 1.526 . S
C462 C463 1.396 . S
C462 C467 1.390 . S
C463 C457 1.465 . S
C463 C462 1.396 . S
C463 C464 1.399 . S
C464 H450 0.929 . S
C464 C463 1.399 . S
C464 C465 1.385 . S
C465 H451 0.931 . S
C465 C464 1.385 . S
C465 C466 1.389 . S
C466 C465 1.389 . S
C466 C467 1.387 . S
C467 H452 0.930 . S
C467 C462 1.390 . S
C467 C466 1.387 . S
H468 C480 0.930 . S
H469 C482 0.930 . S
H470 C483 0.930 1_556 S
H471 C487 0.959 . S
H472 C487 0.959 . S
H473 C487 0.961 . S
H474 C488 0.960 . S
H475 C488 0.961 . S
H476 C488 0.959 . S
H477 C491 0.929 1_556 S
H478 C492 0.931 1_556 S
H479 C494 0.930 . S
C480 H468 0.930 . S
C480 C481 1.399 . S
C480 C485 1.399 . S
C481 C480 1.399 . S
C481 C482 1.376 . S
C482 H469 0.930 . S
C482 C481 1.376 . S
C482 C483 1.388 . S
C483 H470 0.930 1_554 S
C483 C482 1.388 . S
C483 C484 1.390 . S
C484 C483 1.390 . S
C484 C485 1.394 . S
C484 C490 1.465 . S
C485 C480 1.399 . S
C485 C484 1.394 . S
C485 C486 1.516 . S
C486 C485 1.516 . S
C486 C487 1.502 . S
C486 C488 1.561 . S
C486 C489 1.526 . S
C487 H471 0.959 . S
C487 H472 0.959 . S
C487 H473 0.961 . S
C487 C486 1.502 . S
C488 H474 0.960 . S
C488 H475 0.961 . S
C488 H476 0.959 . S
C488 C486 1.561 . S
C489 C486 1.526 . S
C489 C490 1.396 . S
C489 C494 1.390 . S
C490 C484 1.465 . S
C490 C489 1.396 . S
C490 C491 1.399 . S
C491 H477 0.929 1_554 S
C491 C490 1.399 . S
C491 C492 1.385 . S
C492 H478 0.931 1_554 S
C492 C491 1.385 . S
C492 C493 1.389 . S
C493 C492 1.389 . S
C493 C494 1.387 . S
C494 H479 0.930 . S
C494 C489 1.390 . S
C494 C493 1.387 . S
H495 C507 0.930 . S
H496 C509 0.930 . S
H497 C510 0.930 . S
H498 C514 0.959 . S
H499 C514 0.959 . S
H500 C514 0.961 . S
H501 C515 0.960 . S
H502 C515 0.961 . S
H503 C515 0.959 . S
H504 C518 0.929 . S
H505 C519 0.931 . S
H506 C521 0.930 . S
C507 H495 0.930 . S
C507 C508 1.399 . S
C507 C512 1.399 . S
C508 C507 1.399 . S
C508 C509 1.376 . S
C509 H496 0.930 . S
C509 C508 1.376 . S
C509 C510 1.388 . S
C510 H497 0.930 . S
C510 C509 1.388 . S
C510 C511 1.390 . S
C511 C510 1.390 . S
C511 C512 1.394 . S
C511 C517 1.465 . S
C512 C507 1.399 . S
C512 C511 1.394 . S
C512 C513 1.516 1_556 S
C513 C512 1.516 1_554 S
C513 C514 1.502 . S
C513 C515 1.561 . S
C513 C516 1.526 1_554 S
C514 H498 0.959 . S
C514 H499 0.959 . S
C514 H500 0.961 . S
C514 C513 1.502 . S
C515 H501 0.960 . S
C515 H502 0.961 . S
C515 H503 0.959 . S
C515 C513 1.561 . S
C516 C513 1.526 1_556 S
C516 C517 1.396 . S
C516 C521 1.390 1_556 S
C517 C511 1.465 . S
C517 C516 1.396 . S
C517 C518 1.399 . S
C518 H504 0.929 . S
C518 C517 1.399 . S
C518 C519 1.385 . S
C519 H505 0.931 . S
C519 C518 1.385 . S
C519 C520 1.389 . S
C520 C519 1.389 . S
C520 C521 1.387 1_556 S
C521 H506 0.930 . S
C521 C516 1.390 1_554 S
C521 C520 1.387 1_554 S
H522 C534 0.930 . S
H523 C536 0.930 . S
H524 C537 0.930 . S
H525 C541 0.959 . S
H526 C541 0.959 . S
H527 C541 0.961 . S
H528 C542 0.960 . S
H529 C542 0.961 . S
H530 C542 0.959 1_556 S
H531 C545 0.929 . S
H532 C546 0.931 . S
H533 C548 0.930 1_554 S
C534 H522 0.930 . S
C534 C535 1.399 . S
C534 C539 1.399 . S
C535 C534 1.399 . S
C535 C536 1.376 . S
C536 H523 0.930 . S
C536 C535 1.376 . S
C536 C537 1.388 . S
C537 H524 0.930 . S
C537 C536 1.388 . S
C537 C538 1.390 . S
C538 C537 1.390 . S
C538 C539 1.394 . S
C538 C544 1.465 . S
C539 C534 1.399 . S
C539 C538 1.394 . S
C539 C540 1.516 . S
C540 C539 1.516 . S
C540 C541 1.502 1_556 S
C540 C542 1.561 1_556 S
C540 C543 1.526 . S
C541 H525 0.959 . S
C541 H526 0.959 . S
C541 H527 0.961 . S
C541 C540 1.502 1_554 S
C542 H528 0.960 . S
C542 H529 0.961 . S
C542 H530 0.959 1_554 S
C542 C540 1.561 1_554 S
C543 C540 1.526 . S
C543 C544 1.396 . S
C543 C548 1.390 . S
C544 C538 1.465 . S
C544 C543 1.396 . S
C544 C545 1.399 . S
C545 H531 0.929 . S
C545 C544 1.399 . S
C545 C546 1.385 . S
C546 H532 0.931 . S
C546 C545 1.385 . S
C546 C547 1.389 . S
C547 C546 1.389 . S
C547 C548 1.387 . S
C548 H533 0.930 1_556 S
C548 C543 1.390 . S
C548 C547 1.387 . S
H549 C561 0.930 . S
H550 C563 0.930 1_554 S
H551 C564 0.930 . S
H552 C568 0.959 . S
H553 C568 0.959 . S
H554 C568 0.961 . S
H555 C569 0.960 . S
H556 C569 0.961 . S
H557 C569 0.959 . S
H558 C572 0.929 . S
H559 C573 0.931 . S
H560 C575 0.930 . S
C561 H549 0.930 . S
C561 C562 1.399 . S
C561 C566 1.399 . S
C562 C561 1.399 . S
C562 C563 1.376 . S
C563 H550 0.930 1_556 S
C563 C562 1.376 . S
C563 C564 1.388 1_556 S
C564 H551 0.930 . S
C564 C563 1.388 1_554 S
C564 C565 1.390 1_554 S
C565 C564 1.390 1_556 S
C565 C566 1.394 . S
C565 C571 1.465 . S
C566 C561 1.399 . S
C566 C565 1.394 . S
C566 C567 1.516 . S
C567 C566 1.516 . S
C567 C568 1.502 . S
C567 C569 1.561 . S
C567 C570 1.526 . S
C568 H552 0.959 . S
C568 H553 0.959 . S
C568 H554 0.961 . S
C568 C567 1.502 . S
C569 H555 0.960 . S
C569 H556 0.961 . S
C569 H557 0.959 . S
C569 C567 1.561 . S
C570 C567 1.526 . S
C570 C571 1.396 . S
C570 C575 1.390 . S
C571 C565 1.465 . S
C571 C570 1.396 . S
C571 C572 1.399 1_556 S
C572 H558 0.929 . S
C572 C571 1.399 1_554 S
C572 C573 1.385 . S
C573 H559 0.931 . S
C573 C572 1.385 . S
C573 C574 1.389 . S
C574 C573 1.389 . S
C574 C575 1.387 1_554 S
C575 H560 0.930 . S
C575 C570 1.390 . S
C575 C574 1.387 1_556 S
H576 C588 0.933 1_554 S
H577 C590 0.930 . S
H578 C591 0.930 . S
H579 C595 0.959 . S
H580 C595 0.959 . S
H581 C595 0.961 . S
H582 C596 0.960 . S
H583 C596 0.961 . S
H584 C596 0.959 . S
H585 C599 0.929 . S
H586 C600 0.931 . S
H587 C602 0.930 . S
C588 H576 0.933 1_556 S
C588 C589 1.399 . S
C588 C593 1.399 . S
C589 C588 1.399 . S
C589 C590 1.376 . S
C590 H577 0.930 . S
C590 C589 1.376 . S
C590 C591 1.388 . S
C591 H578 0.930 . S
C591 C590 1.388 . S
C591 C592 1.390 . S
C592 C591 1.390 . S
C592 C593 1.394 . S
C592 C598 1.465 . S
C593 C588 1.399 . S
C593 C592 1.394 . S
C593 C594 1.516 1_556 S
C594 C593 1.516 1_554 S
C594 C595 1.502 . S
C594 C596 1.561 . S
C594 C597 1.526 1_554 S
C595 H579 0.959 . S
C595 H580 0.959 . S
C595 H581 0.961 . S
C595 C594 1.502 . S
C596 H582 0.960 . S
C596 H583 0.961 . S
C596 H584 0.959 . S
C596 C594 1.561 . S
C597 C594 1.526 1_556 S
C597 C598 1.396 . S
C597 C602 1.390 1_556 S
C598 C592 1.465 . S
C598 C597 1.396 . S
C598 C599 1.399 . S
C599 H585 0.929 . S
C599 C598 1.399 . S
C599 C600 1.385 . S
C600 H586 0.931 . S
C600 C599 1.385 . S
C600 C601 1.389 . S
C601 C600 1.389 . S
C601 C602 1.387 1_556 S
C602 H587 0.930 . S
C602 C597 1.390 1_554 S
C602 C601 1.387 1_554 S
H603 C615 0.930 . S
H604 C617 0.930 . S
H605 C618 0.930 . S
H606 C622 0.959 . S
H607 C622 0.959 . S
H608 C622 0.961 . S
H609 C623 0.960 . S
H610 C623 0.961 . S
H611 C623 0.959 . S
H612 C626 0.929 . S
H613 C627 0.931 . S
H614 C629 0.930 . S
C615 H603 0.930 . S
C615 C616 1.399 . S
C615 C620 1.399 . S
C616 C615 1.399 . S
C616 C617 1.376 . S
C617 H604 0.930 . S
C617 C616 1.376 . S
C617 C618 1.388 . S
C618 H605 0.930 . S
C618 C617 1.388 . S
C618 C619 1.390 . S
C619 C618 1.390 . S
C619 C620 1.394 . S
C619 C625 1.465 . S
C620 C615 1.399 . S
C620 C619 1.394 . S
C620 C621 1.516 . S
C621 C620 1.516 . S
C621 C622 1.502 . S
C621 C623 1.561 1_556 S
C621 C624 1.526 . S
C622 H606 0.959 . S
C622 H607 0.959 . S
C622 H608 0.961 . S
C622 C621 1.502 . S
C623 H609 0.960 . S
C623 H610 0.961 . S
C623 H611 0.959 . S
C623 C621 1.561 1_554 S
C624 C621 1.526 . S
C624 C625 1.396 . S
C624 C629 1.390 . S
C625 C619 1.465 . S
C625 C624 1.396 . S
C625 C626 1.399 . S
C626 H612 0.929 . S
C626 C625 1.399 . S
C626 C627 1.385 . S
C627 H613 0.931 . S
C627 C626 1.385 . S
C627 C628 1.389 . S
C628 C627 1.389 . S
C628 C629 1.387 . S
C629 H614 0.930 . S
C629 C624 1.390 . S
C629 C628 1.387 . S
H630 C642 0.930 . S
H631 C644 0.930 . S
H632 C645 0.930 . S
H633 C649 0.959 . S
H634 C649 0.959 . S
H635 C649 0.961 . S
H636 C650 0.960 . S
H637 C650 0.961 . S
H638 C650 0.959 . S
H639 C653 0.929 . S
H640 C654 0.931 . S
H641 C656 0.930 . S
C642 H630 0.930 . S
C642 C643 1.399 1_554 S
C642 C647 1.405 . S
C643 C642 1.399 1_556 S
C643 C644 1.376 . S
C644 H631 0.930 . S
C644 C643 1.376 . S
C644 C645 1.388 . S
C645 H632 0.930 . S
C645 C644 1.388 . S
C645 C646 1.390 . S
C646 C645 1.390 . S
C646 C647 1.358 1_556 S
C646 C652 1.465 . S
C647 C642 1.405 . S
C647 C646 1.358 1_554 S
C647 C648 1.543 . S
C648 C647 1.543 . S
C648 C649 1.502 . S
C648 C650 1.561 . S
C648 C651 1.526 . S
C649 H633 0.959 . S
C649 H634 0.959 . S
C649 H635 0.961 . S
C649 C648 1.502 . S
C650 H636 0.960 . S
C650 H637 0.961 . S
C650 H638 0.959 . S
C650 C648 1.561 . S
C651 C648 1.526 . S
C651 C652 1.396 1_554 S
C651 C656 1.390 . S
C652 C646 1.465 . S
C652 C651 1.396 1_556 S
C652 C653 1.399 . S
C653 H639 0.929 . S
C653 C652 1.399 . S
C653 C654 1.385 . S
C654 H640 0.931 . S
C654 C653 1.385 . S
C654 C655 1.389 . S
C655 C654 1.389 . S
C655 C656 1.387 1_556 S
C656 H641 0.930 . S
C656 C651 1.390 . S
C656 C655 1.387 1_554 S
H657 C669 0.930 . S
H658 C671 0.930 . S
H659 C672 0.930 1_556 S
H660 C676 0.959 . S
H661 C676 0.959 . S
H662 C676 0.961 . S
H663 C677 0.960 . S
H664 C677 0.961 . S
H665 C677 0.959 . S
H666 C680 0.911 1_556 S
H667 C681 0.903 1_556 S
H668 C683 0.930 . S
C669 H657 0.930 . S
C669 C670 1.399 . S
C669 C674 1.399 . S
C670 C669 1.399 . S
C670 C671 1.376 . S
C671 H658 0.930 . S
C671 C670 1.376 . S
C671 C672 1.388 . S
C672 H659 0.930 1_554 S
C672 C671 1.388 . S
C672 C673 1.390 . S
C673 C672 1.390 . S
C673 C674 1.394 . S
C673 C679 1.465 . S
C674 C669 1.399 . S
C674 C673 1.394 . S
C674 C675 1.516 . S
C675 C674 1.516 . S
C675 C676 1.502 . S
C675 C677 1.561 . S
C675 C678 1.526 . S
C676 H660 0.959 . S
C676 H661 0.959 . S
C676 H662 0.961 . S
C676 C675 1.502 . S
C677 H663 0.960 . S
C677 H664 0.961 . S
C677 H665 0.959 . S
C677 C675 1.561 . S
C678 C675 1.526 . S
C678 C679 1.396 . S
C678 C683 1.390 . S
C679 C673 1.465 . S
C679 C678 1.396 . S
C679 C680 1.415 . S
C680 H666 0.911 1_554 S
C680 C679 1.415 . S
C680 C681 1.384 . S
C681 H667 0.903 1_554 S
C681 C680 1.384 . S
C681 C682 1.421 . S
C682 C681 1.421 . S
C682 C683 1.387 . S
C683 H668 0.930 . S
C683 C678 1.390 . S
C683 C682 1.387 . S
H684 C696 0.930 . S
H685 C698 0.930 . S
H686 C699 0.930 . S
H687 C703 0.959 . S
H688 C703 0.959 . S
H689 C703 0.961 . S
H690 C704 0.960 . S
H691 C704 0.948 1_556 S
H692 C704 0.959 . S
H693 C707 0.929 . S
H694 C708 0.931 . S
H695 C710 0.930 . S
C696 H684 0.930 . S
C696 C697 1.399 . S
C696 C701 1.399 . S
C697 C696 1.399 . S
C697 C698 1.376 . S
C698 H685 0.930 . S
C698 C697 1.376 . S
C698 C699 1.388 . S
C699 H686 0.930 . S
C699 C698 1.388 . S
C699 C700 1.390 . S
C700 C699 1.390 . S
C700 C701 1.394 . S
C700 C706 1.465 . S
C701 C696 1.399 . S
C701 C700 1.394 . S
C701 C702 1.516 . S
C702 C701 1.516 . S
C702 C703 1.502 . S
C702 C704 1.561 . S
C702 C705 1.526 . S
C703 H687 0.959 . S
C703 H688 0.959 . S
C703 H689 0.961 . S
C703 C702 1.502 . S
C704 H690 0.960 . S
C704 H691 0.948 1_554 S
C704 H692 0.959 . S
C704 C702 1.561 . S
C705 C702 1.526 . S
C705 C706 1.396 . S
C705 C710 1.390 . S
C706 C700 1.465 . S
C706 C705 1.396 . S
C706 C707 1.399 . S
C707 H693 0.929 . S
C707 C706 1.399 . S
C707 C708 1.385 . S
C708 H694 0.931 . S
C708 C707 1.385 . S
C708 C709 1.389 . S
C709 C708 1.389 . S
C709 C710 1.387 . S
C710 H695 0.930 . S
C710 C705 1.390 . S
C710 C709 1.387 . S
H711 C723 0.930 . S
H712 C725 0.930 . S
H713 C726 0.930 1_556 S
H714 C730 0.959 . S
H715 C730 0.959 . S
H716 C730 0.961 . S
H717 C731 0.960 . S
H718 C731 0.961 . S
H719 C731 0.959 . S
H720 C734 0.929 . S
H721 C735 0.931 . S
H722 C737 0.930 . S
C723 H711 0.930 . S
C723 C724 1.399 . S
C723 C728 1.399 . S
C724 C723 1.399 . S
C724 C725 1.376 . S
C725 H712 0.930 . S
C725 C724 1.376 . S
C725 C726 1.388 . S
C726 H713 0.930 1_554 S
C726 C725 1.388 . S
C726 C727 1.390 . S
C727 C726 1.390 . S
C727 C728 1.394 . S
C727 C733 1.465 . S
C728 C723 1.399 . S
C728 C727 1.394 . S
C728 C729 1.516 . S
C729 C728 1.516 . S
C729 C730 1.502 . S
C729 C731 1.561 . S
C729 C732 1.526 . S
C730 H714 0.959 . S
C730 H715 0.959 . S
C730 H716 0.961 . S
C730 C729 1.502 . S
C731 H717 0.960 . S
C731 H718 0.961 . S
C731 H719 0.959 . S
C731 C729 1.561 . S
C732 C729 1.526 . S
C732 C733 1.396 . S
C732 C737 1.390 . S
C733 C727 1.465 . S
C733 C732 1.396 . S
C733 C734 1.399 1_554 S
C734 H720 0.929 . S
C734 C733 1.399 1_556 S
C734 C735 1.385 . S
C735 H721 0.931 . S
C735 C734 1.385 . S
C735 C736 1.389 1_556 S
C736 C735 1.389 1_554 S
C736 C737 1.387 . S
C737 H722 0.930 . S
C737 C732 1.390 . S
C737 C736 1.387 . S
H738 C750 0.930 . S
H739 C752 0.930 . S
H740 C753 0.930 . S
H741 C757 0.956 1_455 S
H742 C757 0.951 1_455 S
H743 C757 0.965 . S
H744 C758 0.960 . S
H745 C758 0.961 . S
H746 C758 0.959 . S
H747 C761 0.929 . S
H748 C762 0.931 . S
H749 C764 0.930 . S
C750 H738 0.930 . S
C750 C751 1.399 . S
C750 C755 1.399 . S
C751 C750 1.399 . S
C751 C752 1.376 . S
C752 H739 0.930 . S
C752 C751 1.376 . S
C752 C753 1.388 . S
C753 H740 0.930 . S
C753 C752 1.388 . S
C753 C754 1.390 . S
C754 C753 1.390 . S
C754 C755 1.394 . S
C754 C760 1.465 1_655 S
C755 C750 1.399 . S
C755 C754 1.394 . S
C755 C756 1.516 . S
C756 C755 1.516 . S
C756 C757 1.510 . S
C756 C758 1.561 . S
C756 C759 1.526 1_655 S
C757 H741 0.956 1_655 S
C757 H742 0.951 1_655 S
C757 H743 0.965 . S
C757 C756 1.510 . S
C758 H744 0.960 . S
C758 H745 0.961 . S
C758 H746 0.959 . S
C758 C756 1.561 . S
C759 C756 1.526 1_455 S
C759 C760 1.396 . S
C759 C764 1.390 . S
C760 C754 1.465 1_455 S
C760 C759 1.396 . S
C760 C761 1.399 . S
C761 H747 0.929 . S
C761 C760 1.399 . S
C761 C762 1.385 . S
C762 H748 0.931 . S
C762 C761 1.385 . S
C762 C763 1.389 . S
C763 C762 1.389 . S
C763 C764 1.387 . S
C764 H749 0.930 . S
C764 C759 1.390 . S
C764 C763 1.387 . S
H765 C777 0.930 . S
H766 C779 0.930 . S
H767 C780 0.930 . S
H768 C784 0.959 . S
H769 C784 0.959 . S
H770 C784 0.961 . S
H771 C785 0.960 . S
H772 C785 0.961 . S
H773 C785 0.959 . S
H774 C788 0.929 . S
H775 C789 0.931 . S
H776 C791 0.930 . S
C777 H765 0.930 . S
C777 C778 1.399 . S
C777 C782 1.399 . S
C778 C777 1.399 . S
C778 C779 1.376 . S
C779 H766 0.930 . S
C779 C778 1.376 . S
C779 C780 1.388 . S
C780 H767 0.930 . S
C780 C779 1.388 . S
C780 C781 1.390 . S
C781 C780 1.390 . S
C781 C782 1.394 . S
C781 C787 1.465 . S
C782 C777 1.399 . S
C782 C781 1.394 . S
C782 C783 1.516 . S
C783 C782 1.516 . S
C783 C784 1.502 . S
C783 C785 1.561 . S
C783 C786 1.526 . S
C784 H768 0.959 . S
C784 H769 0.959 . S
C784 H770 0.961 . S
C784 C783 1.502 . S
C785 H771 0.960 . S
C785 H772 0.961 . S
C785 H773 0.959 . S
C785 C783 1.561 . S
C786 C783 1.526 . S
C786 C787 1.396 . S
C786 C791 1.390 . S
C787 C781 1.465 . S
C787 C786 1.396 . S
C787 C788 1.399 . S
C788 H774 0.929 . S
C788 C787 1.399 . S
C788 C789 1.385 . S
C789 H775 0.931 . S
C789 C788 1.385 . S
C789 C790 1.389 . S
C790 C789 1.389 . S
C790 C791 1.387 . S
C791 H776 0.930 . S
C791 C786 1.390 . S
C791 C790 1.387 . S
H792 C804 0.930 . S
H793 C806 0.930 . S
H794 C807 0.930 . S
H795 C811 0.959 . S
H796 C811 0.959 . S
H797 C811 0.961 . S
H798 C812 0.958 . S
H799 C812 0.963 1_565 S
H800 C812 0.959 1_565 S
H801 C815 0.929 . S
H802 C816 0.931 . S
H803 C818 0.930 . S
C804 H792 0.930 . S
C804 C805 1.399 . S
C804 C809 1.399 . S
C805 C804 1.399 . S
C805 C806 1.376 . S
C806 H793 0.930 . S
C806 C805 1.376 . S
C806 C807 1.388 . S
C807 H794 0.930 . S
C807 C806 1.388 . S
C807 C808 1.390 . S
C808 C807 1.390 . S
C808 C809 1.394 . S
C808 C814 1.465 1_545 S
C809 C804 1.399 . S
C809 C808 1.394 . S
C809 C810 1.516 . S
C810 C809 1.516 . S
C810 C811 1.502 . S
C810 C812 1.561 . S
C810 C813 1.526 1_545 S
C811 H795 0.959 . S
C811 H796 0.959 . S
C811 H797 0.961 . S
C811 C810 1.502 . S
C812 H798 0.958 . S
C812 H799 0.963 1_545 S
C812 H800 0.959 1_545 S
C812 C810 1.561 . S
C813 C810 1.526 1_565 S
C813 C814 1.396 . S
C813 C818 1.390 . S
C814 C808 1.465 1_565 S
C814 C813 1.396 . S
C814 C815 1.399 . S
C815 H801 0.929 . S
C815 C814 1.399 . S
C815 C816 1.385 . S
C816 H802 0.931 . S
C816 C815 1.385 . S
C816 C817 1.389 . S
C817 C816 1.389 . S
C817 C818 1.387 . S
C818 H803 0.930 . S
C818 C813 1.390 . S
C818 C817 1.387 . S
H819 C831 0.930 . S
H820 C833 0.930 . S
H821 C834 0.930 . S
H822 C838 0.959 . S
H823 C838 0.959 . S
H824 C838 0.961 . S
H825 C839 0.960 . S
H826 C839 0.961 . S
H827 C839 0.959 . S
H828 C842 0.929 . S
H829 C843 0.931 . S
H830 C845 0.930 . S
C831 H819 0.930 . S
C831 C832 1.399 . S
C831 C836 1.399 . S
C832 C831 1.399 . S
C832 C833 1.376 . S
C833 H820 0.930 . S
C833 C832 1.376 . S
C833 C834 1.388 . S
C834 H821 0.930 . S
C834 C833 1.388 . S
C834 C835 1.390 . S
C835 C834 1.390 . S
C835 C836 1.394 . S
C835 C841 1.465 . S
C836 C831 1.399 . S
C836 C835 1.394 . S
C836 C837 1.516 . S
C837 C836 1.516 . S
C837 C838 1.502 . S
C837 C839 1.561 . S
C837 C840 1.526 . S
C838 H822 0.959 . S
C838 H823 0.959 . S
C838 H824 0.961 . S
C838 C837 1.502 . S
C839 H825 0.960 . S
C839 H826 0.961 . S
C839 H827 0.959 . S
C839 C837 1.561 . S
C840 C837 1.526 . S
C840 C841 1.396 . S
C840 C845 1.390 . S
C841 C835 1.465 . S
C841 C840 1.396 . S
C841 C842 1.399 . S
C842 H828 0.929 . S
C842 C841 1.399 . S
C842 C843 1.385 . S
C843 H829 0.931 . S
C843 C842 1.385 . S
C843 C844 1.389 . S
C844 C843 1.389 . S
C844 C845 1.387 . S
C845 H830 0.930 . S
C845 C840 1.390 . S
C845 C844 1.387 . S
H846 C858 0.930 . S
H847 C860 0.930 . S
H848 C861 0.930 . S
H849 C865 0.959 . S
H850 C865 0.959 . S
H851 C865 0.961 . S
H852 C866 0.960 . S
H853 C866 0.961 . S
H854 C866 0.959 . S
H855 C869 0.929 . S
H856 C870 0.931 . S
H857 C872 0.930 . S
C858 H846 0.930 . S
C858 C859 1.399 . S
C858 C863 1.399 . S
C859 C858 1.399 . S
C859 C860 1.376 . S
C860 H847 0.930 . S
C860 C859 1.376 . S
C860 C861 1.388 . S
C861 H848 0.930 . S
C861 C860 1.388 . S
C861 C862 1.390 . S
C862 C861 1.390 . S
C862 C863 1.394 . S
C862 C868 1.465 . S
C863 C858 1.399 . S
C863 C862 1.394 . S
C863 C864 1.516 . S
C864 C863 1.516 . S
C864 C865 1.502 . S
C864 C866 1.561 . S
C864 C867 1.526 . S
C865 H849 0.959 . S
C865 H850 0.959 . S
C865 H851 0.961 . S
C865 C864 1.502 . S
C866 H852 0.960 . S
C866 H853 0.961 . S
C866 H854 0.959 . S
C866 C864 1.561 . S
C867 C864 1.526 . S
C867 C868 1.396 . S
C867 C872 1.390 . S
C868 C862 1.465 . S
C868 C867 1.396 . S
C868 C869 1.399 . S
C869 H855 0.929 . S
C869 C868 1.399 . S
C869 C870 1.385 . S
C870 H856 0.931 . S
C870 C869 1.385 . S
C870 C871 1.389 . S
C871 C870 1.389 . S
C871 C872 1.387 . S
C872 H857 0.930 . S
C872 C867 1.390 . S
C872 C871 1.387 . S
H873 C885 0.930 . S
H874 C887 0.930 . S
H875 C888 0.930 . S
H876 C892 0.959 . S
H877 C892 0.959 . S
H878 C892 0.961 . S
H879 C893 0.960 . S
H880 C893 0.961 . S
H881 C893 0.959 . S
H882 C896 0.929 . S
H883 C897 0.931 . S
H884 C899 0.930 . S
C885 H873 0.930 . S
C885 C886 1.399 . S
C885 C890 1.399 . S
C886 C885 1.399 . S
C886 C887 1.376 . S
C887 H874 0.930 . S
C887 C886 1.376 . S
C887 C888 1.388 . S
C888 H875 0.930 . S
C888 C887 1.388 . S
C888 C889 1.390 . S
C889 C888 1.390 . S
C889 C890 1.394 . S
C889 C895 1.465 . S
C890 C885 1.399 . S
C890 C889 1.394 . S
C890 C891 1.516 . S
C891 C890 1.516 . S
C891 C892 1.502 . S
C891 C893 1.561 . S
C891 C894 1.526 . S
C892 H876 0.959 . S
C892 H877 0.959 . S
C892 H878 0.961 . S
C892 C891 1.502 . S
C893 H879 0.960 . S
C893 H880 0.961 . S
C893 H881 0.959 . S
C893 C891 1.561 . S
C894 C891 1.526 . S
C894 C895 1.396 . S
C894 C899 1.390 . S
C895 C889 1.465 . S
C895 C894 1.396 . S
C895 C896 1.399 . S
C896 H882 0.929 . S
C896 C895 1.399 . S
C896 C897 1.385 . S
C897 H883 0.931 . S
C897 C896 1.385 . S
C897 C898 1.389 . S
C898 C897 1.389 . S
C898 C899 1.387 . S
C899 H884 0.930 . S
C899 C894 1.390 . S
C899 C898 1.387 . S
H900 C912 0.930 . S
H901 C914 0.930 . S
H902 C915 0.930 . S
H903 C919 0.959 . S
H904 C919 0.959 . S
H905 C919 0.961 . S
H906 C920 0.960 . S
H907 C920 0.961 . S
H908 C920 0.959 . S
H909 C923 0.929 . S
H910 C924 0.931 . S
H911 C926 0.930 . S
C912 H900 0.930 . S
C912 C913 1.399 . S
C912 C917 1.399 . S
C913 C912 1.399 . S
C913 C914 1.376 . S
C914 H901 0.930 . S
C914 C913 1.376 . S
C914 C915 1.388 . S
C915 H902 0.930 . S
C915 C914 1.388 . S
C915 C916 1.390 . S
C916 C915 1.390 . S
C916 C917 1.394 . S
C916 C922 1.465 . S
C917 C912 1.399 . S
C917 C916 1.394 . S
C917 C918 1.516 . S
C918 C917 1.516 . S
C918 C919 1.502 . S
C918 C920 1.561 . S
C918 C921 1.526 . S
C919 H903 0.959 . S
C919 H904 0.959 . S
C919 H905 0.961 . S
C919 C918 1.502 . S
C920 H906 0.960 . S
C920 H907 0.961 . S
C920 H908 0.959 . S
C920 C918 1.561 . S
C921 C918 1.526 . S
C921 C922 1.396 . S
C921 C926 1.390 . S
C922 C916 1.465 . S
C922 C921 1.396 . S
C922 C923 1.399 . S
C923 H909 0.929 . S
C923 C922 1.399 . S
C923 C924 1.385 . S
C924 H910 0.931 . S
C924 C923 1.385 . S
C924 C925 1.389 . S
C925 C924 1.389 . S
C925 C926 1.387 . S
C926 H911 0.930 . S
C926 C921 1.390 . S
C926 C925 1.387 . S
H927 C939 0.930 . S
H928 C941 0.930 . S
H929 C942 0.930 . S
H930 C946 0.959 . S
H931 C946 0.959 . S
H932 C946 0.961 . S
H933 C947 0.960 . S
H934 C947 0.961 . S
H935 C947 0.959 . S
H936 C950 0.929 . S
H937 C951 0.931 . S
H938 C953 0.930 . S
C939 H927 0.930 . S
C939 C940 1.399 . S
C939 C944 1.399 . S
C940 C939 1.399 . S
C940 C941 1.376 . S
C941 H928 0.930 . S
C941 C940 1.376 . S
C941 C942 1.388 . S
C942 H929 0.930 . S
C942 C941 1.388 . S
C942 C943 1.390 . S
C943 C942 1.390 . S
C943 C944 1.394 . S
C943 C949 1.465 . S
C944 C939 1.399 . S
C944 C943 1.394 . S
C944 C945 1.516 . S
C945 C944 1.516 . S
C945 C946 1.502 . S
C945 C947 1.561 . S
C945 C948 1.526 . S
C946 H930 0.959 . S
C946 H931 0.959 . S
C946 H932 0.961 . S
C946 C945 1.502 . S
C947 H933 0.960 . S
C947 H934 0.961 . S
C947 H935 0.959 . S
C947 C945 1.561 . S
C948 C945 1.526 . S
C948 C949 1.396 . S
C948 C953 1.390 . S
C949 C943 1.465 . S
C949 C948 1.396 . S
C949 C950 1.399 . S
C950 H936 0.929 . S
C950 C949 1.399 . S
C950 C951 1.385 . S
C951 H937 0.931 . S
C951 C950 1.385 . S
C951 C952 1.389 . S
C952 C951 1.389 . S
C952 C953 1.387 . S
C953 H938 0.930 . S
C953 C948 1.390 . S
C953 C952 1.387 . S
H954 C966 0.930 . S
H955 C968 0.930 . S
H956 C969 0.930 . S
H957 C973 0.959 . S
H958 C973 0.959 . S
H959 C973 0.961 . S
H960 C974 0.960 . S
H961 C974 0.961 . S
H962 C974 0.959 . S
H963 C977 0.929 . S
H964 C978 0.931 . S
H965 C980 0.930 . S
C966 H954 0.930 . S
C966 C967 1.399 . S
C966 C971 1.399 . S
C967 C966 1.399 . S
C967 C968 1.376 . S
C968 H955 0.930 . S
C968 C967 1.376 . S
C968 C969 1.388 . S
C969 H956 0.930 . S
C969 C968 1.388 . S
C969 C970 1.390 . S
C970 C969 1.390 . S
C970 C971 1.394 . S
C970 C976 1.465 . S
C971 C966 1.399 . S
C971 C970 1.394 . S
C971 C972 1.516 . S
C972 C971 1.516 . S
C972 C973 1.502 . S
C972 C974 1.561 . S
C972 C975 1.526 . S
C973 H957 0.959 . S
C973 H958 0.959 . S
C973 H959 0.961 . S
C973 C972 1.502 . S
C974 H960 0.960 . S
C974 H961 0.961 . S
C974 H962 0.959 . S
C974 C972 1.561 . S
C975 C972 1.526 . S
C975 C976 1.396 . S
C975 C980 1.390 . S
C976 C970 1.465 . S
C976 C975 1.396 . S
C976 C977 1.399 . S
C977 H963 0.929 . S
C977 C976 1.399 . S
C977 C978 1.385 . S
C978 H964 0.931 . S
C978 C977 1.385 . S
C978 C979 1.389 . S
C979 C978 1.389 . S
C979 C980 1.387 . S
C980 H965 0.930 . S
C980 C975 1.390 . S
C980 C979 1.387 . S
H981 C993 0.930 . S
H982 C995 0.930 . S
H983 C996 0.930 . S
H984 C1000 0.959 . S
H985 C1000 0.959 . S
H986 C1000 0.961 . S
H987 C1001 0.960 . S
H988 C1001 0.961 . S
H989 C1001 0.959 . S
H990 C1004 0.929 . S
H991 C1005 0.931 . S
H992 C1007 0.930 . S
C993 H981 0.930 . S
C993 C994 1.399 . S
C993 C998 1.399 1_545 S
C994 C993 1.399 . S
C994 C995 1.376 . S
C995 H982 0.930 . S
C995 C994 1.376 . S
C995 C996 1.388 1_545 S
C996 H983 0.930 . S
C996 C995 1.388 1_565 S
C996 C997 1.390 . S
C997 C996 1.390 . S
C997 C998 1.394 . S
C997 C1003 1.465 . S
C998 C993 1.399 1_565 S
C998 C997 1.394 . S
C998 C999 1.516 . S
C999 C998 1.516 . S
C999 C1000 1.502 . S
C999 C1001 1.561 . S
C999 C1002 1.526 . S
C1000 H984 0.959 . S
C1000 H985 0.959 . S
C1000 H986 0.961 . S
C1000 C999 1.502 . S
C1001 H987 0.960 . S
C1001 H988 0.961 . S
C1001 H989 0.959 . S
C1001 C999 1.561 . S
C1002 C999 1.526 . S
C1002 C1003 1.396 . S
C1002 C1007 1.390 . S
C1003 C997 1.465 . S
C1003 C1002 1.396 . S
C1003 C1004 1.399 . S
C1004 H990 0.929 . S
C1004 C1003 1.399 . S
C1004 C1005 1.385 . S
C1005 H991 0.931 . S
C1005 C1004 1.385 . S
C1005 C1006 1.389 . S
C1006 C1005 1.389 . S
C1006 C1007 1.387 . S
C1007 H992 0.930 . S
C1007 C1002 1.390 . S
C1007 C1006 1.387 . S
H1008 C1020 0.930 . S
H1009 C1022 0.930 . S
H1010 C1023 0.930 . S
H1011 C1027 0.959 . S
H1012 C1027 0.959 . S
H1013 C1027 1.010 . S
H1014 C1028 0.960 . S
H1015 C1028 0.961 . S
H1016 C1028 0.959 . S
H1017 C1031 0.929 . S
H1018 C1032 0.931 . S
H1019 C1034 0.930 . S
C1020 H1008 0.930 . S
C1020 C1021 1.399 . S
C1020 C1025 1.399 1_655 S
C1021 C1020 1.399 . S
C1021 C1022 1.376 . S
C1022 H1009 0.930 . S
C1022 C1021 1.376 . S
C1022 C1023 1.388 1_655 S
C1023 H1010 0.930 . S
C1023 C1022 1.388 1_455 S
C1023 C1024 1.390 . S
C1024 C1023 1.390 . S
C1024 C1025 1.394 . S
C1024 C1030 1.465 . S
C1025 C1020 1.399 1_455 S
C1025 C1024 1.394 . S
C1025 C1026 1.516 . S
C1026 C1025 1.516 . S
C1026 C1027 1.502 . S
C1026 C1028 1.561 . S
C1026 C1029 1.526 . S
C1027 H1011 0.959 . S
C1027 H1012 0.959 . S
C1027 H1013 1.010 . S
C1027 C1026 1.502 . S
C1028 H1014 0.960 . S
C1028 H1015 0.961 . S
C1028 H1016 0.959 . S
C1028 C1026 1.561 . S
C1029 C1026 1.526 . S
C1029 C1030 1.396 . S
C1029 C1034 1.390 . S
C1030 C1024 1.465 . S
C1030 C1029 1.396 . S
C1030 C1031 1.399 . S
C1031 H1017 0.929 . S
C1031 C1030 1.399 . S
C1031 C1032 1.385 . S
C1032 H1018 0.931 . S
C1032 C1031 1.385 . S
C1032 C1033 1.389 . S
C1033 C1032 1.389 . S
C1033 C1034 1.387 . S
C1034 H1019 0.930 . S
C1034 C1029 1.390 . S
C1034 C1033 1.387 . S
H1035 C1047 0.930 . S
H1036 C1049 0.930 . S
H1037 C1050 0.930 . S
H1038 C1054 0.959 . S
H1039 C1054 0.959 . S
H1040 C1054 0.961 . S
H1041 C1055 0.960 . S
H1042 C1055 0.961 . S
H1043 C1055 0.959 . S
H1044 C1058 0.929 . S
H1045 C1059 0.931 . S
H1046 C1061 0.930 . S
C1047 H1035 0.930 . S
C1047 C1048 1.399 . S
C1047 C1052 1.399 . S
C1048 C1047 1.399 . S
C1048 C1049 1.376 . S
C1049 H1036 0.930 . S
C1049 C1048 1.376 . S
C1049 C1050 1.388 . S
C1050 H1037 0.930 . S
C1050 C1049 1.388 . S
C1050 C1051 1.390 . S
C1051 C1050 1.390 . S
C1051 C1052 1.394 . S
C1051 C1057 1.465 . S
C1052 C1047 1.399 . S
C1052 C1051 1.394 . S
C1052 C1053 1.516 . S
C1053 C1052 1.516 . S
C1053 C1054 1.502 . S
C1053 C1055 1.561 . S
C1053 C1056 1.526 . S
C1054 H1038 0.959 . S
C1054 H1039 0.959 . S
C1054 H1040 0.961 . S
C1054 C1053 1.502 . S
C1055 H1041 0.960 . S
C1055 H1042 0.961 . S
C1055 H1043 0.959 . S
C1055 C1053 1.561 . S
C1056 C1053 1.526 . S
C1056 C1057 1.396 . S
C1056 C1061 1.390 . S
C1057 C1051 1.465 . S
C1057 C1056 1.396 . S
C1057 C1058 1.399 . S
C1058 H1044 0.929 . S
C1058 C1057 1.399 . S
C1058 C1059 1.385 . S
C1059 H1045 0.931 . S
C1059 C1058 1.385 . S
C1059 C1060 1.389 . S
C1060 C1059 1.389 . S
C1060 C1061 1.387 . S
C1061 H1046 0.930 . S
C1061 C1056 1.390 . S
C1061 C1060 1.387 . S
H1062 C1074 0.930 . S
H1063 C1076 0.930 . S
H1064 C1077 0.930 . S
H1065 C1081 0.959 . S
H1066 C1081 0.959 . S
H1067 C1081 0.961 . S
H1068 C1082 0.960 . S
H1069 C1082 0.961 . S
H1070 C1082 0.959 . S
H1071 C1085 0.929 . S
H1072 C1086 0.931 . S
H1073 C1088 0.930 . S
C1074 H1062 0.930 . S
C1074 C1075 1.399 . S
C1074 C1079 1.399 . S
C1075 C1074 1.399 . S
C1075 C1076 1.376 . S
C1076 H1063 0.930 . S
C1076 C1075 1.376 . S
C1076 C1077 1.388 . S
C1077 H1064 0.930 . S
C1077 C1076 1.388 . S
C1077 C1078 1.390 . S
C1078 C1077 1.390 . S
C1078 C1079 1.394 . S
C1078 C1084 1.465 . S
C1079 C1074 1.399 . S
C1079 C1078 1.394 . S
C1079 C1080 1.516 . S
C1080 C1079 1.516 . S
C1080 C1081 1.502 . S
C1080 C1082 1.561 . S
C1080 C1083 1.526 . S
C1081 H1065 0.959 . S
C1081 H1066 0.959 . S
C1081 H1067 0.961 . S
C1081 C1080 1.502 . S
C1082 H1068 0.960 . S
C1082 H1069 0.961 . S
C1082 H1070 0.959 . S
C1082 C1080 1.561 . S
C1083 C1080 1.526 . S
C1083 C1084 1.396 . S
C1083 C1088 1.390 . S
C1084 C1078 1.465 . S
C1084 C1083 1.396 . S
C1084 C1085 1.399 . S
C1085 H1071 0.929 . S
C1085 C1084 1.399 . S
C1085 C1086 1.385 . S
C1086 H1072 0.931 . S
C1086 C1085 1.385 . S
C1086 C1087 1.389 . S
C1087 C1086 1.389 . S
C1087 C1088 1.387 . S
C1088 H1073 0.930 . S
C1088 C1083 1.390 . S
C1088 C1087 1.387 . S
H1089 C1101 0.930 . S
H1090 C1103 0.930 . S
H1091 C1104 0.930 . S
H1092 C1108 0.959 . S
H1093 C1108 0.959 . S
H1094 C1108 0.961 . S
H1095 C1109 0.960 . S
H1096 C1109 0.961 . S
H1097 C1109 0.959 . S
H1098 C1112 0.929 . S
H1099 C1113 0.931 . S
H1100 C1115 0.930 . S
C1101 H1089 0.930 . S
C1101 C1102 1.399 . S
C1101 C1106 1.399 . S
C1102 C1101 1.399 . S
C1102 C1103 1.376 . S
C1103 H1090 0.930 . S
C1103 C1102 1.376 . S
C1103 C1104 1.388 . S
C1104 H1091 0.930 . S
C1104 C1103 1.388 . S
C1104 C1105 1.390 . S
C1105 C1104 1.390 . S
C1105 C1106 1.394 . S
C1105 C1111 1.465 . S
C1106 C1101 1.399 . S
C1106 C1105 1.394 . S
C1106 C1107 1.516 . S
C1107 C1106 1.516 . S
C1107 C1108 1.502 . S
C1107 C1109 1.561 . S
C1107 C1110 1.526 . S
C1108 H1092 0.959 . S
C1108 H1093 0.959 . S
C1108 H1094 0.961 . S
C1108 C1107 1.502 . S
C1109 H1095 0.960 . S
C1109 H1096 0.961 . S
C1109 H1097 0.959 . S
C1109 C1107 1.561 . S
C1110 C1107 1.526 . S
C1110 C1111 1.396 . S
C1110 C1115 1.390 . S
C1111 C1105 1.465 . S
C1111 C1110 1.396 . S
C1111 C1112 1.399 . S
C1112 H1098 0.929 . S
C1112 C1111 1.399 . S
C1112 C1113 1.385 . S
C1113 H1099 0.931 . S
C1113 C1112 1.385 . S
C1113 C1114 1.389 . S
C1114 C1113 1.389 . S
C1114 C1115 1.387 . S
C1115 H1100 0.930 . S
C1115 C1110 1.390 . S
C1115 C1114 1.387 . S
H1116 C1128 0.930 . S
H1117 C1130 0.930 . S
H1118 C1131 0.930 . S
H1119 C1135 0.959 . S
H1120 C1135 0.959 . S
H1121 C1135 0.961 . S
H1122 C1136 0.960 . S
H1123 C1136 0.961 . S
H1124 C1136 0.959 . S
H1125 C1139 0.929 . S
H1126 C1140 0.931 . S
H1127 C1142 0.930 . S
C1128 H1116 0.930 . S
C1128 C1129 1.399 . S
C1128 C1133 1.399 . S
C1129 C1128 1.399 . S
C1129 C1130 1.376 . S
C1130 H1117 0.930 . S
C1130 C1129 1.376 . S
C1130 C1131 1.388 . S
C1131 H1118 0.930 . S
C1131 C1130 1.388 . S
C1131 C1132 1.390 . S
C1132 C1131 1.390 . S
C1132 C1133 1.394 . S
C1132 C1138 1.465 . S
C1133 C1128 1.399 . S
C1133 C1132 1.394 . S
C1133 C1134 1.516 . S
C1134 C1133 1.516 . S
C1134 C1135 1.502 . S
C1134 C1136 1.561 . S
C1134 C1137 1.526 . S
C1135 H1119 0.959 . S
C1135 H1120 0.959 . S
C1135 H1121 0.961 . S
C1135 C1134 1.502 . S
C1136 H1122 0.960 . S
C1136 H1123 0.961 . S
C1136 H1124 0.959 . S
C1136 C1134 1.561 . S
C1137 C1134 1.526 . S
C1137 C1138 1.396 . S
C1137 C1142 1.390 . S
C1138 C1132 1.465 . S
C1138 C1137 1.396 . S
C1138 C1139 1.399 . S
C1139 H1125 0.929 . S
C1139 C1138 1.399 . S
C1139 C1140 1.385 . S
C1140 H1126 0.931 . S
C1140 C1139 1.385 . S
C1140 C1141 1.389 . S
C1141 C1140 1.389 . S
C1141 C1142 1.387 . S
C1142 H1127 0.930 . S
C1142 C1137 1.390 . S
C1142 C1141 1.387 . S
H1143 C1155 0.930 . S
H1144 C1157 0.930 . S
H1145 C1158 0.930 . S
H1146 C1162 0.959 . S
H1147 C1162 0.959 . S
H1148 C1162 0.961 . S
H1149 C1163 0.960 . S
H1150 C1163 0.961 . S
H1151 C1163 0.959 . S
H1152 C1166 0.929 . S
H1153 C1167 0.931 . S
H1154 C1169 0.930 . S
C1155 H1143 0.930 . S
C1155 C1156 1.399 . S
C1155 C1160 1.399 . S
C1156 C1155 1.399 . S
C1156 C1157 1.376 . S
C1157 H1144 0.930 . S
C1157 C1156 1.376 . S
C1157 C1158 1.388 . S
C1158 H1145 0.930 . S
C1158 C1157 1.388 . S
C1158 C1159 1.390 . S
C1159 C1158 1.390 . S
C1159 C1160 1.394 . S
C1159 C1165 1.465 1_565 S
C1160 C1155 1.399 . S
C1160 C1159 1.394 . S
C1160 C1161 1.516 . S
C1161 C1160 1.516 . S
C1161 C1162 1.502 . S
C1161 C1163 1.561 . S
C1161 C1164 1.526 1_565 S
C1162 H1146 0.959 . S
C1162 H1147 0.959 . S
C1162 H1148 0.961 . S
C1162 C1161 1.502 . S
C1163 H1149 0.960 . S
C1163 H1150 0.961 . S
C1163 H1151 0.959 . S
C1163 C1161 1.561 . S
C1164 C1161 1.526 1_545 S
C1164 C1165 1.396 . S
C1164 C1169 1.390 . S
C1165 C1159 1.465 1_545 S
C1165 C1164 1.396 . S
C1165 C1166 1.399 . S
C1166 H1152 0.929 . S
C1166 C1165 1.399 . S
C1166 C1167 1.385 . S
C1167 H1153 0.931 . S
C1167 C1166 1.385 . S
C1167 C1168 1.389 . S
C1168 C1167 1.389 . S
C1168 C1169 1.387 . S
C1169 H1154 0.930 . S
C1169 C1164 1.390 . S
C1169 C1168 1.387 . S
H1170 C1182 0.930 . S
H1171 C1184 0.930 . S
H1172 C1185 0.930 . S
H1173 C1189 0.959 . S
H1174 C1189 0.959 . S
H1175 C1189 0.961 . S
H1176 C1190 0.960 . S
H1177 C1190 0.961 1_655 S
H1178 C1190 0.959 . S
H1179 C1193 0.929 1_455 S
H1180 C1194 0.931 . S
H1181 C1196 0.930 . S
C1182 H1170 0.930 . S
C1182 C1183 1.399 . S
C1182 C1187 1.399 . S
C1183 C1182 1.399 . S
C1183 C1184 1.376 . S
C1184 H1171 0.930 . S
C1184 C1183 1.376 . S
C1184 C1185 1.388 . S
C1185 H1172 0.930 . S
C1185 C1184 1.388 . S
C1185 C1186 1.390 . S
C1186 C1185 1.390 . S
C1186 C1187 1.394 . S
C1186 C1192 1.465 . S
C1187 C1182 1.399 . S
C1187 C1186 1.394 . S
C1187 C1188 1.516 1_455 S
C1188 C1187 1.516 1_655 S
C1188 C1189 1.502 . S
C1188 C1190 1.561 1_655 S
C1188 C1191 1.526 . S
C1189 H1173 0.959 . S
C1189 H1174 0.959 . S
C1189 H1175 0.961 . S
C1189 C1188 1.502 . S
C1190 H1176 0.960 . S
C1190 H1177 0.961 1_455 S
C1190 H1178 0.959 . S
C1190 C1188 1.561 1_455 S
C1191 C1188 1.526 . S
C1191 C1192 1.396 1_655 S
C1191 C1196 1.390 . S
C1192 C1186 1.465 . S
C1192 C1191 1.396 1_455 S
C1192 C1193 1.399 1_455 S
C1193 H1179 0.929 1_655 S
C1193 C1192 1.399 1_655 S
C1193 C1194 1.385 . S
C1194 H1180 0.931 . S
C1194 C1193 1.385 . S
C1194 C1195 1.389 . S
C1195 C1194 1.389 . S
C1195 C1196 1.387 . S
C1196 H1181 0.930 . S
C1196 C1191 1.390 . S
C1196 C1195 1.387 . S
H1197 C1209 0.930 . S
H1198 C1211 0.930 . S
H1199 C1212 0.930 . S
H1200 C1216 0.959 . S
H1201 C1216 0.959 . S
H1202 C1216 0.961 . S
H1203 C1217 0.960 . S
H1204 C1217 0.961 . S
H1205 C1217 0.959 . S
H1206 C1220 0.929 . S
H1207 C1221 0.931 . S
H1208 C1223 0.930 . S
C1209 H1197 0.930 . S
C1209 C1210 1.399 . S
C1209 C1214 1.399 . S
C1210 C1209 1.399 . S
C1210 C1211 1.376 . S
C1211 H1198 0.930 . S
C1211 C1210 1.376 . S
C1211 C1212 1.388 . S
C1212 H1199 0.930 . S
C1212 C1211 1.388 . S
C1212 C1213 1.390 . S
C1213 C1212 1.390 . S
C1213 C1214 1.394 . S
C1213 C1219 1.465 . S
C1214 C1209 1.399 . S
C1214 C1213 1.394 . S
C1214 C1215 1.516 . S
C1215 C1214 1.516 . S
C1215 C1216 1.502 . S
C1215 C1217 1.561 . S
C1215 C1218 1.526 . S
C1216 H1200 0.959 . S
C1216 H1201 0.959 . S
C1216 H1202 0.961 . S
C1216 C1215 1.502 . S
C1217 H1203 0.960 . S
C1217 H1204 0.961 . S
C1217 H1205 0.959 . S
C1217 C1215 1.561 . S
C1218 C1215 1.526 . S
C1218 C1219 1.396 . S
C1218 C1223 1.390 . S
C1219 C1213 1.465 . S
C1219 C1218 1.396 . S
C1219 C1220 1.399 . S
C1220 H1206 0.929 . S
C1220 C1219 1.399 . S
C1220 C1221 1.385 . S
C1221 H1207 0.931 . S
C1221 C1220 1.385 . S
C1221 C1222 1.389 . S
C1222 C1221 1.389 . S
C1222 C1223 1.387 . S
C1223 H1208 0.930 . S
C1223 C1218 1.390 . S
C1223 C1222 1.387 . S
H1224 C1236 0.930 . S
H1225 C1238 0.930 . S
H1226 C1239 0.930 1_655 S
H1227 C1243 0.959 . S
H1228 C1243 0.959 . S
H1229 C1243 0.961 1_455 S
H1230 C1244 0.969 . S
H1231 C1244 0.961 . S
H1232 C1244 0.959 . S
H1233 C1247 0.929 . S
H1234 C1248 0.931 . S
H1235 C1250 0.930 . S
C1236 H1224 0.930 . S
C1236 C1237 1.399 . S
C1236 C1241 1.399 . S
C1237 C1236 1.399 . S
C1237 C1238 1.376 . S
C1238 H1225 0.930 . S
C1238 C1237 1.376 . S
C1238 C1239 1.388 . S
C1239 H1226 0.930 1_455 S
C1239 C1238 1.388 . S
C1239 C1240 1.390 1_455 S
C1240 C1239 1.390 1_655 S
C1240 C1241 1.394 1_655 S
C1240 C1246 1.465 . S
C1241 C1236 1.399 . S
C1241 C1240 1.394 1_455 S
C1241 C1242 1.516 1_455 S
C1242 C1241 1.516 1_655 S
C1242 C1243 1.502 . S
C1242 C1244 1.561 . S
C1242 C1245 1.526 . S
C1243 H1227 0.959 . S
C1243 H1228 0.959 . S
C1243 H1229 0.961 1_655 S
C1243 C1242 1.502 . S
C1244 H1230 0.969 . S
C1244 H1231 0.961 . S
C1244 H1232 0.959 . S
C1244 C1242 1.561 . S
C1245 C1242 1.526 . S
C1245 C1246 1.396 . S
C1245 C1250 1.390 . S
C1246 C1240 1.465 . S
C1246 C1245 1.396 . S
C1246 C1247 1.399 . S
C1247 H1233 0.929 . S
C1247 C1246 1.399 . S
C1247 C1248 1.385 . S
C1248 H1234 0.931 . S
C1248 C1247 1.385 . S
C1248 C1249 1.389 . S
C1249 C1248 1.389 . S
C1249 C1250 1.387 . S
C1250 H1235 0.930 . S
C1250 C1245 1.390 . S
C1250 C1249 1.387 . S
H1251 C1263 0.930 . S
H1252 C1265 0.930 . S
H1253 C1266 0.930 . S
H1254 C1270 0.959 . S
H1255 C1270 0.959 . S
H1256 C1270 0.961 . S
H1257 C1271 0.960 . S
H1258 C1271 0.961 . S
H1259 C1271 0.959 . S
H1260 C1274 0.929 . S
H1261 C1275 0.931 . S
H1262 C1277 0.930 . S
C1263 H1251 0.930 . S
C1263 C1264 1.399 . S
C1263 C1268 1.399 . S
C1264 C1263 1.399 . S
C1264 C1265 1.376 . S
C1265 H1252 0.930 . S
C1265 C1264 1.376 . S
C1265 C1266 1.388 . S
C1266 H1253 0.930 . S
C1266 C1265 1.388 . S
C1266 C1267 1.390 . S
C1267 C1266 1.390 . S
C1267 C1268 1.394 . S
C1267 C1273 1.465 . S
C1268 C1263 1.399 . S
C1268 C1267 1.394 . S
C1268 C1269 1.516 . S
C1269 C1268 1.516 . S
C1269 C1270 1.502 . S
C1269 C1271 1.561 . S
C1269 C1272 1.526 . S
C1270 H1254 0.959 . S
C1270 H1255 0.959 . S
C1270 H1256 0.961 . S
C1270 C1269 1.502 . S
C1271 H1257 0.960 . S
C1271 H1258 0.961 . S
C1271 H1259 0.959 . S
C1271 C1269 1.561 . S
C1272 C1269 1.526 . S
C1272 C1273 1.396 . S
C1272 C1277 1.390 . S
C1273 C1267 1.465 . S
C1273 C1272 1.396 . S
C1273 C1274 1.399 . S
C1274 H1260 0.929 . S
C1274 C1273 1.399 . S
C1274 C1275 1.385 . S
C1275 H1261 0.931 . S
C1275 C1274 1.385 . S
C1275 C1276 1.389 . S
C1276 C1275 1.389 . S
C1276 C1277 1.387 . S
C1277 H1262 0.930 . S
C1277 C1272 1.390 . S
C1277 C1276 1.387 . S
H1278 C1290 0.930 . S
H1279 C1292 0.930 . S
H1280 C1293 0.930 . S
H1281 C1297 0.959 . S
H1282 C1297 0.959 . S
H1283 C1297 0.961 . S
H1284 C1298 0.960 . S
H1285 C1298 0.961 . S
H1286 C1298 0.959 . S
H1287 C1301 0.929 . S
H1288 C1302 0.931 . S
H1289 C1304 0.930 . S
C1290 H1278 0.930 . S
C1290 C1291 1.399 . S
C1290 C1295 1.399 1_565 S
C1291 C1290 1.399 . S
C1291 C1292 1.376 . S
C1292 H1279 0.930 . S
C1292 C1291 1.376 . S
C1292 C1293 1.388 1_565 S
C1293 H1280 0.930 . S
C1293 C1292 1.388 1_545 S
C1293 C1294 1.390 . S
C1294 C1293 1.390 . S
C1294 C1295 1.394 . S
C1294 C1300 1.465 . S
C1295 C1290 1.399 1_545 S
C1295 C1294 1.394 . S
C1295 C1296 1.516 . S
C1296 C1295 1.516 . S
C1296 C1297 1.502 . S
C1296 C1298 1.561 . S
C1296 C1299 1.526 . S
C1297 H1281 0.959 . S
C1297 H1282 0.959 . S
C1297 H1283 0.961 . S
C1297 C1296 1.502 . S
C1298 H1284 0.960 . S
C1298 H1285 0.961 . S
C1298 H1286 0.959 . S
C1298 C1296 1.561 . S
C1299 C1296 1.526 . S
C1299 C1300 1.396 . S
C1299 C1304 1.390 . S
C1300 C1294 1.465 . S
C1300 C1299 1.396 . S
C1300 C1301 1.399 . S
C1301 H1287 0.929 . S
C1301 C1300 1.399 . S
C1301 C1302 1.385 . S
C1302 H1288 0.931 . S
C1302 C1301 1.385 . S
C1302 C1303 1.389 . S
C1303 C1302 1.389 . S
C1303 C1304 1.387 . S
C1304 H1289 0.930 . S
C1304 C1299 1.390 . S
C1304 C1303 1.387 . S
H1305 C1317 0.930 . S
H1306 C1319 0.930 . S
H1307 C1320 0.930 . S
H1308 C1324 0.959 . S
H1309 C1324 0.959 . S
H1310 C1324 0.961 . S
H1311 C1325 0.960 . S
H1312 C1325 0.961 . S
H1313 C1325 0.959 . S
H1314 C1328 0.929 . S
H1315 C1329 0.931 . S
H1316 C1331 0.930 . S
C1317 H1305 0.930 . S
C1317 C1318 1.399 . S
C1317 C1322 1.399 . S
C1318 C1317 1.399 . S
C1318 C1319 1.376 . S
C1319 H1306 0.930 . S
C1319 C1318 1.376 . S
C1319 C1320 1.388 . S
C1320 H1307 0.930 . S
C1320 C1319 1.388 . S
C1320 C1321 1.390 . S
C1321 C1320 1.390 . S
C1321 C1322 1.394 . S
C1321 C1327 1.465 . S
C1322 C1317 1.399 . S
C1322 C1321 1.394 . S
C1322 C1323 1.516 . S
C1323 C1322 1.516 . S
C1323 C1324 1.502 . S
C1323 C1325 1.561 . S
C1323 C1326 1.526 . S
C1324 H1308 0.959 . S
C1324 H1309 0.959 . S
C1324 H1310 0.961 . S
C1324 C1323 1.502 . S
C1325 H1311 0.960 . S
C1325 H1312 0.961 . S
C1325 H1313 0.959 . S
C1325 C1323 1.561 . S
C1326 C1323 1.526 . S
C1326 C1327 1.396 . S
C1326 C1331 1.390 . S
C1327 C1321 1.465 . S
C1327 C1326 1.396 . S
C1327 C1328 1.399 . S
C1328 H1314 0.929 . S
C1328 C1327 1.399 . S
C1328 C1329 1.385 . S
C1329 H1315 0.931 . S
C1329 C1328 1.385 . S
C1329 C1330 1.389 . S
C1330 C1329 1.389 . S
C1330 C1331 1.387 . S
C1331 H1316 0.930 . S
C1331 C1326 1.390 . S
C1331 C1330 1.387 . S
H1332 C1344 0.930 . S
H1333 C1346 0.930 . S
H1334 C1347 0.930 . S
H1335 C1351 0.959 . S
H1336 C1351 0.959 . S
H1337 C1351 0.961 . S
H1338 C1352 0.960 . S
H1339 C1352 0.961 . S
H1340 C1352 0.959 . S
H1341 C1355 0.929 . S
H1342 C1356 0.931 . S
H1343 C1358 0.930 . S
C1344 H1332 0.930 . S
C1344 C1345 1.399 . S
C1344 C1349 1.399 . S
C1345 C1344 1.399 . S
C1345 C1346 1.376 . S
C1346 H1333 0.930 . S
C1346 C1345 1.376 . S
C1346 C1347 1.388 . S
C1347 H1334 0.930 . S
C1347 C1346 1.388 . S
C1347 C1348 1.390 . S
C1348 C1347 1.390 . S
C1348 C1349 1.394 . S
C1348 C1354 1.465 . S
C1349 C1344 1.399 . S
C1349 C1348 1.394 . S
C1349 C1350 1.516 . S
C1350 C1349 1.516 . S
C1350 C1351 1.502 . S
C1350 C1352 1.561 . S
C1350 C1353 1.526 . S
C1351 H1335 0.959 . S
C1351 H1336 0.959 . S
C1351 H1337 0.961 . S
C1351 C1350 1.502 . S
C1352 H1338 0.960 . S
C1352 H1339 0.961 . S
C1352 H1340 0.959 . S
C1352 C1350 1.561 . S
C1353 C1350 1.526 . S
C1353 C1354 1.396 . S
C1353 C1358 1.390 . S
C1354 C1348 1.465 . S
C1354 C1353 1.396 . S
C1354 C1355 1.399 . S
C1355 H1341 0.929 . S
C1355 C1354 1.399 . S
C1355 C1356 1.385 . S
C1356 H1342 0.931 . S
C1356 C1355 1.385 . S
C1356 C1357 1.389 . S
C1357 C1356 1.389 . S
C1357 C1358 1.387 . S
C1358 H1343 0.930 . S
C1358 C1353 1.390 . S
C1358 C1357 1.387 . S
H1359 C1371 0.930 . S
H1360 C1373 0.930 . S
H1361 C1374 0.930 . S
H1362 C1378 0.959 . S
H1363 C1378 0.959 . S
H1364 C1378 0.961 . S
H1365 C1379 0.960 . S
H1366 C1379 0.961 . S
H1367 C1379 0.959 . S
H1368 C1382 0.929 . S
H1369 C1383 0.931 . S
H1370 C1385 0.930 . S
C1371 H1359 0.930 . S
C1371 C1372 1.399 . S
C1371 C1376 1.399 . S
C1372 C1371 1.399 . S
C1372 C1373 1.376 . S
C1373 H1360 0.930 . S
C1373 C1372 1.376 . S
C1373 C1374 1.388 . S
C1374 H1361 0.930 . S
C1374 C1373 1.388 . S
C1374 C1375 1.390 . S
C1375 C1374 1.390 . S
C1375 C1376 1.394 . S
C1375 C1381 1.465 . S
C1376 C1371 1.399 . S
C1376 C1375 1.394 . S
C1376 C1377 1.516 . S
C1377 C1376 1.516 . S
C1377 C1378 1.502 . S
C1377 C1379 1.561 . S
C1377 C1380 1.526 . S
C1378 H1362 0.959 . S
C1378 H1363 0.959 . S
C1378 H1364 0.961 . S
C1378 C1377 1.502 . S
C1379 H1365 0.960 . S
C1379 H1366 0.961 . S
C1379 H1367 0.959 . S
C1379 C1377 1.561 . S
C1380 C1377 1.526 . S
C1380 C1381 1.396 . S
C1380 C1385 1.390 . S
C1381 C1375 1.465 . S
C1381 C1380 1.396 . S
C1381 C1382 1.399 . S
C1382 H1368 0.929 . S
C1382 C1381 1.399 . S
C1382 C1383 1.385 . S
C1383 H1369 0.931 . S
C1383 C1382 1.385 . S
C1383 C1384 1.389 . S
C1384 C1383 1.389 . S
C1384 C1385 1.387 . S
C1385 H1370 0.930 . S
C1385 C1380 1.390 . S
C1385 C1384 1.387 . S
H1386 C1398 0.930 . S
H1387 C1400 0.930 . S
H1388 C1401 0.930 . S
H1389 C1405 0.959 . S
H1390 C1405 0.959 . S
H1391 C1405 0.961 . S
H1392 C1406 0.960 . S
H1393 C1406 0.961 . S
H1394 C1406 0.959 . S
H1395 C1409 0.929 1_545 S
H1396 C1410 0.933 . S
H1397 C1412 0.930 . S
C1398 H1386 0.930 . S
C1398 C1399 1.399 . S
C1398 C1403 1.399 . S
C1399 C1398 1.399 . S
C1399 C1400 1.376 . S
C1400 H1387 0.930 . S
C1400 C1399 1.376 . S
C1400 C1401 1.388 . S
C1401 H1388 0.930 . S
C1401 C1400 1.388 . S
C1401 C1402 1.390 . S
C1402 C1401 1.390 . S
C1402 C1403 1.394 . S
C1402 C1408 1.465 . S
C1403 C1398 1.399 . S
C1403 C1402 1.394 . S
C1403 C1404 1.516 . S
C1404 C1403 1.516 . S
C1404 C1405 1.502 . S
C1404 C1406 1.561 . S
C1404 C1407 1.526 . S
C1405 H1389 0.959 . S
C1405 H1390 0.959 . S
C1405 H1391 0.961 . S
C1405 C1404 1.502 . S
C1406 H1392 0.960 . S
C1406 H1393 0.961 . S
C1406 H1394 0.959 . S
C1406 C1404 1.561 . S
C1407 C1404 1.526 . S
C1407 C1408 1.396 . S
C1407 C1412 1.390 . S
C1408 C1402 1.465 . S
C1408 C1407 1.396 . S
C1408 C1409 1.399 . S
C1409 H1395 0.929 1_565 S
C1409 C1408 1.399 . S
C1409 C1410 1.385 1_565 S
C1410 H1396 0.933 . S
C1410 C1409 1.385 1_545 S
C1410 C1411 1.387 1_545 S
C1411 C1410 1.387 1_565 S
C1411 C1412 1.387 . S
C1412 H1397 0.930 . S
C1412 C1407 1.390 . S
C1412 C1411 1.387 . S
H1413 C1425 0.930 . S
H1414 C1427 0.930 . S
H1415 C1428 0.930 . S
H1416 C1432 0.959 . S
H1417 C1432 0.959 . S
H1418 C1432 0.961 . S
H1419 C1433 0.960 . S
H1420 C1433 0.961 . S
H1421 C1433 0.959 . S
H1422 C1436 0.929 . S
H1423 C1437 0.931 . S
H1424 C1439 0.930 . S
C1425 H1413 0.930 . S
C1425 C1426 1.399 . S
C1425 C1430 1.399 . S
C1426 C1425 1.399 . S
C1426 C1427 1.376 . S
C1427 H1414 0.930 . S
C1427 C1426 1.376 . S
C1427 C1428 1.388 . S
C1428 H1415 0.930 . S
C1428 C1427 1.388 . S
C1428 C1429 1.390 . S
C1429 C1428 1.390 . S
C1429 C1430 1.394 . S
C1429 C1435 1.465 . S
C1430 C1425 1.399 . S
C1430 C1429 1.394 . S
C1430 C1431 1.516 . S
C1431 C1430 1.516 . S
C1431 C1432 1.502 . S
C1431 C1433 1.561 . S
C1431 C1434 1.526 . S
C1432 H1416 0.959 . S
C1432 H1417 0.959 . S
C1432 H1418 0.961 . S
C1432 C1431 1.502 . S
C1433 H1419 0.960 . S
C1433 H1420 0.961 . S
C1433 H1421 0.959 . S
C1433 C1431 1.561 . S
C1434 C1431 1.526 . S
C1434 C1435 1.396 . S
C1434 C1439 1.390 . S
C1435 C1429 1.465 . S
C1435 C1434 1.396 . S
C1435 C1436 1.399 . S
C1436 H1422 0.929 . S
C1436 C1435 1.399 . S
C1436 C1437 1.385 . S
C1437 H1423 0.931 . S
C1437 C1436 1.385 . S
C1437 C1438 1.389 . S
C1438 C1437 1.389 . S
C1438 C1439 1.387 . S
C1439 H1424 0.930 . S
C1439 C1434 1.390 . S
C1439 C1438 1.387 . S
H1440 C1452 0.930 . S
H1441 C1454 0.930 . S
H1442 C1455 0.930 . S
H1443 C1459 0.959 . S
H1444 C1459 0.959 . S
H1445 C1459 0.961 . S
H1446 C1460 0.960 . S
H1447 C1460 0.961 . S
H1448 C1460 0.959 . S
H1449 C1463 0.929 . S
H1450 C1464 0.931 . S
H1451 C1466 0.930 . S
C1452 H1440 0.930 . S
C1452 C1453 1.399 . S
C1452 C1457 1.399 . S
C1453 C1452 1.399 . S
C1453 C1454 1.376 . S
C1454 H1441 0.930 . S
C1454 C1453 1.376 . S
C1454 C1455 1.388 . S
C1455 H1442 0.930 . S
C1455 C1454 1.388 . S
C1455 C1456 1.390 . S
C1456 C1455 1.390 . S
C1456 C1457 1.394 . S
C1456 C1462 1.465 . S
C1457 C1452 1.399 . S
C1457 C1456 1.394 . S
C1457 C1458 1.516 . S
C1458 C1457 1.516 . S
C1458 C1459 1.502 . S
C1458 C1460 1.561 . S
C1458 C1461 1.526 . S
C1459 H1443 0.959 . S
C1459 H1444 0.959 . S
C1459 H1445 0.961 . S
C1459 C1458 1.502 . S
C1460 H1446 0.960 . S
C1460 H1447 0.961 . S
C1460 H1448 0.959 . S
C1460 C1458 1.561 . S
C1461 C1458 1.526 . S
C1461 C1462 1.396 . S
C1461 C1466 1.390 . S
C1462 C1456 1.465 . S
C1462 C1461 1.396 . S
C1462 C1463 1.399 . S
C1463 H1449 0.929 . S
C1463 C1462 1.399 . S
C1463 C1464 1.385 . S
C1464 H1450 0.931 . S
C1464 C1463 1.385 . S
C1464 C1465 1.389 . S
C1465 C1464 1.389 . S
C1465 C1466 1.387 . S
C1466 H1451 0.930 . S
C1466 C1461 1.390 . S
C1466 C1465 1.387 . S
H1467 C1479 0.930 . S
H1468 C1481 0.930 . S
H1469 C1482 0.930 . S
H1470 C1486 0.959 . S
H1471 C1486 0.959 . S
H1472 C1486 0.961 . S
H1473 C1487 0.960 . S
H1474 C1487 0.961 . S
H1475 C1487 0.959 . S
H1476 C1490 0.929 . S
H1477 C1491 0.931 . S
H1478 C1493 0.930 . S
C1479 H1467 0.930 . S
C1479 C1480 1.399 . S
C1479 C1484 1.399 . S
C1480 C1479 1.399 . S
C1480 C1481 1.376 . S
C1481 H1468 0.930 . S
C1481 C1480 1.376 . S
C1481 C1482 1.388 . S
C1482 H1469 0.930 . S
C1482 C1481 1.388 . S
C1482 C1483 1.390 . S
C1483 C1482 1.390 . S
C1483 C1484 1.394 . S
C1483 C1489 1.465 . S
C1484 C1479 1.399 . S
C1484 C1483 1.394 . S
C1484 C1485 1.516 . S
C1485 C1484 1.516 . S
C1485 C1486 1.502 1_655 S
C1485 C1487 1.561 . S
C1485 C1488 1.526 . S
C1486 H1470 0.959 . S
C1486 H1471 0.959 . S
C1486 H1472 0.961 . S
C1486 C1485 1.502 1_455 S
C1487 H1473 0.960 . S
C1487 H1474 0.961 . S
C1487 H1475 0.959 . S
C1487 C1485 1.561 . S
C1488 C1485 1.526 . S
C1488 C1489 1.396 . S
C1488 C1493 1.390 . S
C1489 C1483 1.465 . S
C1489 C1488 1.396 . S
C1489 C1490 1.399 . S
C1490 H1476 0.929 . S
C1490 C1489 1.399 . S
C1490 C1491 1.385 . S
C1491 H1477 0.931 . S
C1491 C1490 1.385 . S
C1491 C1492 1.389 . S
C1492 C1491 1.389 . S
C1492 C1493 1.387 . S
C1493 H1478 0.930 . S
C1493 C1488 1.390 . S
C1493 C1492 1.387 . S
H1494 C1506 0.930 . S
H1495 C1508 0.930 . S
H1496 C1509 0.930 . S
H1497 C1513 0.959 . S
H1498 C1513 0.959 . S
H1499 C1513 0.961 . S
H1500 C1514 0.960 . S
H1501 C1514 0.961 . S
H1502 C1514 0.959 . S
H1503 C1517 0.929 . S
H1504 C1518 0.931 . S
H1505 C1520 0.930 . S
C1506 H1494 0.930 . S
C1506 C1507 1.399 . S
C1506 C1511 1.399 . S
C1507 C1506 1.399 . S
C1507 C1508 1.376 . S
C1508 H1495 0.930 . S
C1508 C1507 1.376 . S
C1508 C1509 1.388 . S
C1509 H1496 0.930 . S
C1509 C1508 1.388 . S
C1509 C1510 1.390 . S
C1510 C1509 1.390 . S
C1510 C1511 1.394 . S
C1510 C1516 1.465 . S
C1511 C1506 1.399 . S
C1511 C1510 1.394 . S
C1511 C1512 1.516 . S
C1512 C1511 1.516 . S
C1512 C1513 1.502 . S
C1512 C1514 1.561 . S
C1512 C1515 1.526 . S
C1513 H1497 0.959 . S
C1513 H1498 0.959 . S
C1513 H1499 0.961 . S
C1513 C1512 1.502 . S
C1514 H1500 0.960 . S
C1514 H1501 0.961 . S
C1514 H1502 0.959 . S
C1514 C1512 1.561 . S
C1515 C1512 1.526 . S
C1515 C1516 1.396 . S
C1515 C1520 1.390 . S
C1516 C1510 1.465 . S
C1516 C1515 1.396 . S
C1516 C1517 1.399 . S
C1517 H1503 0.929 . S
C1517 C1516 1.399 . S
C1517 C1518 1.385 . S
C1518 H1504 0.931 . S
C1518 C1517 1.385 . S
C1518 C1519 1.389 . S
C1519 C1518 1.389 . S
C1519 C1520 1.387 . S
C1520 H1505 0.930 . S
C1520 C1515 1.390 . S
C1520 C1519 1.387 . S
H1521 C1533 0.930 . S
H1522 C1535 0.930 . S
H1523 C1536 0.930 . S
H1524 C1540 0.959 . S
H1525 C1540 0.959 . S
H1526 C1540 0.961 . S
H1527 C1541 0.960 . S
H1528 C1541 0.961 . S
H1529 C1541 0.959 . S
H1530 C1544 0.929 1_565 S
H1531 C1545 0.931 1_565 S
H1532 C1547 0.930 . S
C1533 H1521 0.930 . S
C1533 C1534 1.399 . S
C1533 C1538 1.399 . S
C1534 C1533 1.399 . S
C1534 C1535 1.376 . S
C1535 H1522 0.930 . S
C1535 C1534 1.376 . S
C1535 C1536 1.388 . S
C1536 H1523 0.930 . S
C1536 C1535 1.388 . S
C1536 C1537 1.390 . S
C1537 C1536 1.390 . S
C1537 C1538 1.394 . S
C1537 C1543 1.465 . S
C1538 C1533 1.399 . S
C1538 C1537 1.394 . S
C1538 C1539 1.516 . S
C1539 C1538 1.516 . S
C1539 C1540 1.502 . S
C1539 C1541 1.561 . S
C1539 C1542 1.526 . S
C1540 H1524 0.959 . S
C1540 H1525 0.959 . S
C1540 H1526 0.961 . S
C1540 C1539 1.502 . S
C1541 H1527 0.960 . S
C1541 H1528 0.961 . S
C1541 H1529 0.959 . S
C1541 C1539 1.561 . S
C1542 C1539 1.526 . S
C1542 C1543 1.396 . S
C1542 C1547 1.390 . S
C1543 C1537 1.465 . S
C1543 C1542 1.396 . S
C1543 C1544 1.399 . S
C1544 H1530 0.929 1_545 S
C1544 C1543 1.399 . S
C1544 C1545 1.385 . S
C1545 H1531 0.931 1_545 S
C1545 C1544 1.385 . S
C1545 C1546 1.389 . S
C1546 C1545 1.389 . S
C1546 C1547 1.387 . S
C1547 H1532 0.930 . S
C1547 C1542 1.390 . S
C1547 C1546 1.387 . S
H1548 C1560 0.930 . S
H1549 C1562 0.930 . S
H1550 C1563 0.930 . S
H1551 C1567 0.959 . S
H1552 C1567 0.959 . S
H1553 C1567 0.961 . S
H1554 C1568 0.960 . S
H1555 C1568 0.961 . S
H1556 C1568 0.959 . S
H1557 C1571 0.929 . S
H1558 C1572 0.931 . S
H1559 C1574 0.930 . S
C1560 H1548 0.930 . S
C1560 C1561 1.399 . S
C1560 C1565 1.399 . S
C1561 C1560 1.399 . S
C1561 C1562 1.376 . S
C1562 H1549 0.930 . S
C1562 C1561 1.376 . S
C1562 C1563 1.388 . S
C1563 H1550 0.930 . S
C1563 C1562 1.388 . S
C1563 C1564 1.390 . S
C1564 C1563 1.390 . S
C1564 C1565 1.394 . S
C1564 C1570 1.465 . S
C1565 C1560 1.399 . S
C1565 C1564 1.394 . S
C1565 C1566 1.516 . S
C1566 C1565 1.516 . S
C1566 C1567 1.502 . S
C1566 C1568 1.561 . S
C1566 C1569 1.526 . S
C1567 H1551 0.959 . S
C1567 H1552 0.959 . S
C1567 H1553 0.961 . S
C1567 C1566 1.502 . S
C1568 H1554 0.960 . S
C1568 H1555 0.961 . S
C1568 H1556 0.959 . S
C1568 C1566 1.561 . S
C1569 C1566 1.526 . S
C1569 C1570 1.396 . S
C1569 C1574 1.390 . S
C1570 C1564 1.465 . S
C1570 C1569 1.396 . S
C1570 C1571 1.399 . S
C1571 H1557 0.929 . S
C1571 C1570 1.399 . S
C1571 C1572 1.385 . S
C1572 H1558 0.931 . S
C1572 C1571 1.385 . S
C1572 C1573 1.389 . S
C1573 C1572 1.389 . S
C1573 C1574 1.387 . S
C1574 H1559 0.930 . S
C1574 C1569 1.390 . S
C1574 C1573 1.387 . S
H1575 C1587 0.930 . S
H1576 C1589 0.930 . S
H1577 C1590 0.930 . S
H1578 C1594 0.959 . S
H1579 C1594 0.959 . S
H1580 C1594 0.961 . S
H1581 C1595 0.960 . S
H1582 C1595 0.961 . S
H1583 C1595 0.959 . S
H1584 C1598 0.929 . S
H1585 C1599 0.931 . S
H1586 C1601 0.930 . S
C1587 H1575 0.930 . S
C1587 C1588 1.399 . S
C1587 C1592 1.399 . S
C1588 C1587 1.399 . S
C1588 C1589 1.376 . S
C1589 H1576 0.930 . S
C1589 C1588 1.376 . S
C1589 C1590 1.388 . S
C1590 H1577 0.930 . S
C1590 C1589 1.388 . S
C1590 C1591 1.390 . S
C1591 C1590 1.390 . S
C1591 C1592 1.394 . S
C1591 C1597 1.465 . S
C1592 C1587 1.399 . S
C1592 C1591 1.394 . S
C1592 C1593 1.516 . S
C1593 C1592 1.516 . S
C1593 C1594 1.502 . S
C1593 C1595 1.561 . S
C1593 C1596 1.526 . S
C1594 H1578 0.959 . S
C1594 H1579 0.959 . S
C1594 H1580 0.961 . S
C1594 C1593 1.502 . S
C1595 H1581 0.960 . S
C1595 H1582 0.961 . S
C1595 H1583 0.959 . S
C1595 C1593 1.561 . S
C1596 C1593 1.526 . S
C1596 C1597 1.396 . S
C1596 C1601 1.390 . S
C1597 C1591 1.465 . S
C1597 C1596 1.396 . S
C1597 C1598 1.399 . S
C1598 H1584 0.929 . S
C1598 C1597 1.399 . S
C1598 C1599 1.385 . S
C1599 H1585 0.931 . S
C1599 C1598 1.385 . S
C1599 C1600 1.389 . S
C1600 C1599 1.389 . S
C1600 C1601 1.387 . S
C1601 H1586 0.930 . S
C1601 C1596 1.390 . S
C1601 C1600 1.387 . S
H1602 C1614 0.930 . S
H1603 C1616 0.930 . S
H1604 C1617 0.930 . S
H1605 C1621 0.959 . S
H1606 C1621 0.959 . S
H1607 C1621 0.961 . S
H1608 C1622 0.960 . S
H1609 C1622 0.961 . S
H1610 C1622 0.959 . S
H1611 C1625 0.929 . S
H1612 C1626 0.931 . S
H1613 C1628 0.930 . S
C1614 H1602 0.930 . S
C1614 C1615 1.399 . S
C1614 C1619 1.399 . S
C1615 C1614 1.399 . S
C1615 C1616 1.376 . S
C1616 H1603 0.930 . S
C1616 C1615 1.376 . S
C1616 C1617 1.388 . S
C1617 H1604 0.930 . S
C1617 C1616 1.388 . S
C1617 C1618 1.390 . S
C1618 C1617 1.390 . S
C1618 C1619 1.394 . S
C1618 C1624 1.465 . S
C1619 C1614 1.399 . S
C1619 C1618 1.394 . S
C1619 C1620 1.516 . S
C1620 C1619 1.516 . S
C1620 C1621 1.502 . S
C1620 C1622 1.561 . S
C1620 C1623 1.526 . S
C1621 H1605 0.959 . S
C1621 H1606 0.959 . S
C1621 H1607 0.961 . S
C1621 C1620 1.502 . S
C1622 H1608 0.960 . S
C1622 H1609 0.961 . S
C1622 H1610 0.959 . S
C1622 C1620 1.561 . S
C1623 C1620 1.526 . S
C1623 C1624 1.396 . S
C1623 C1628 1.390 . S
C1624 C1618 1.465 . S
C1624 C1623 1.396 . S
C1624 C1625 1.399 . S
C1625 H1611 0.929 . S
C1625 C1624 1.399 . S
C1625 C1626 1.385 . S
C1626 H1612 0.931 . S
C1626 C1625 1.385 . S
C1626 C1627 1.389 . S
C1627 C1626 1.389 . S
C1627 C1628 1.387 . S
C1628 H1613 0.930 . S
C1628 C1623 1.390 . S
C1628 C1627 1.387 . S
H1629 C1641 0.930 . S
H1630 C1643 0.930 . S
H1631 C1644 0.930 . S
H1632 C1648 0.959 . S
H1633 C1648 0.959 . S
H1634 C1648 0.961 . S
H1635 C1649 0.960 . S
H1636 C1649 0.961 . S
H1637 C1649 0.959 . S
H1638 C1652 0.929 . S
H1639 C1653 0.931 . S
H1640 C1655 0.930 . S
C1641 H1629 0.930 . S
C1641 C1642 1.399 . S
C1641 C1646 1.399 . S
C1642 C1641 1.399 . S
C1642 C1643 1.376 . S
C1643 H1630 0.930 . S
C1643 C1642 1.376 . S
C1643 C1644 1.388 . S
C1644 H1631 0.930 . S
C1644 C1643 1.388 . S
C1644 C1645 1.390 . S
C1645 C1644 1.390 . S
C1645 C1646 1.394 . S
C1645 C1651 1.465 . S
C1646 C1641 1.399 . S
C1646 C1645 1.394 . S
C1646 C1647 1.516 . S
C1647 C1646 1.516 . S
C1647 C1648 1.502 . S
C1647 C1649 1.561 . S
C1647 C1650 1.526 . S
C1648 H1632 0.959 . S
C1648 H1633 0.959 . S
C1648 H1634 0.961 . S
C1648 C1647 1.502 . S
C1649 H1635 0.960 . S
C1649 H1636 0.961 . S
C1649 H1637 0.959 . S
C1649 C1647 1.561 . S
C1650 C1647 1.526 . S
C1650 C1651 1.396 . S
C1650 C1655 1.390 . S
C1651 C1645 1.465 . S
C1651 C1650 1.396 . S
C1651 C1652 1.399 . S
C1652 H1638 0.929 . S
C1652 C1651 1.399 . S
C1652 C1653 1.385 . S
C1653 H1639 0.931 . S
C1653 C1652 1.385 . S
C1653 C1654 1.389 . S
C1654 C1653 1.389 . S
C1654 C1655 1.387 . S
C1655 H1640 0.930 . S
C1655 C1650 1.390 . S
C1655 C1654 1.387 . S
H1656 C1668 0.930 . S
H1657 C1670 0.930 . S
H1658 C1671 0.930 . S
H1659 C1675 0.959 . S
H1660 C1675 0.959 . S
H1661 C1675 0.961 . S
H1662 C1676 0.960 . S
H1663 C1676 0.961 . S
H1664 C1676 0.959 . S
H1665 C1679 0.929 . S
H1666 C1680 0.931 . S
H1667 C1682 0.930 . S
C1668 H1656 0.930 . S
C1668 C1669 1.399 . S
C1668 C1673 1.399 . S
C1669 C1668 1.399 . S
C1669 C1670 1.376 . S
C1670 H1657 0.930 . S
C1670 C1669 1.376 . S
C1670 C1671 1.388 . S
C1671 H1658 0.930 . S
C1671 C1670 1.388 . S
C1671 C1672 1.390 . S
C1672 C1671 1.390 . S
C1672 C1673 1.394 . S
C1672 C1678 1.465 . S
C1673 C1668 1.399 . S
C1673 C1672 1.394 . S
C1673 C1674 1.516 . S
C1674 C1673 1.516 . S
C1674 C1675 1.502 . S
C1674 C1676 1.561 . S
C1674 C1677 1.526 . S
C1675 H1659 0.959 . S
C1675 H1660 0.959 . S
C1675 H1661 0.961 . S
C1675 C1674 1.502 . S
C1676 H1662 0.960 . S
C1676 H1663 0.961 . S
C1676 H1664 0.959 . S
C1676 C1674 1.561 . S
C1677 C1674 1.526 . S
C1677 C1678 1.396 . S
C1677 C1682 1.390 . S
C1678 C1672 1.465 . S
C1678 C1677 1.396 . S
C1678 C1679 1.399 . S
C1679 H1665 0.929 . S
C1679 C1678 1.399 . S
C1679 C1680 1.385 . S
C1680 H1666 0.931 . S
C1680 C1679 1.385 . S
C1680 C1681 1.389 . S
C1681 C1680 1.389 . S
C1681 C1682 1.387 . S
C1682 H1667 0.930 . S
C1682 C1677 1.390 . S
C1682 C1681 1.387 . S
H1683 C1695 0.930 . S
H1684 C1697 0.930 . S
H1685 C1698 0.930 . S
H1686 C1702 0.959 . S
H1687 C1702 0.959 . S
H1688 C1702 0.961 . S
H1689 C1703 0.960 . S
H1690 C1703 0.961 . S
H1691 C1703 0.959 . S
H1692 C1706 0.929 . S
H1693 C1707 0.931 . S
H1694 C1709 0.930 . S
C1695 H1683 0.930 . S
C1695 C1696 1.399 . S
C1695 C1700 1.399 . S
C1696 C1695 1.399 . S
C1696 C1697 1.376 . S
C1697 H1684 0.930 . S
C1697 C1696 1.376 . S
C1697 C1698 1.388 . S
C1698 H1685 0.930 . S
C1698 C1697 1.388 . S
C1698 C1699 1.390 . S
C1699 C1698 1.390 . S
C1699 C1700 1.394 . S
C1699 C1705 1.465 . S
C1700 C1695 1.399 . S
C1700 C1699 1.394 . S
C1700 C1701 1.516 . S
C1701 C1700 1.516 . S
C1701 C1702 1.502 . S
C1701 C1703 1.561 . S
C1701 C1704 1.526 . S
C1702 H1686 0.959 . S
C1702 H1687 0.959 . S
C1702 H1688 0.961 . S
C1702 C1701 1.502 . S
C1703 H1689 0.960 . S
C1703 H1690 0.961 . S
C1703 H1691 0.959 . S
C1703 C1701 1.561 . S
C1704 C1701 1.526 . S
C1704 C1705 1.396 . S
C1704 C1709 1.390 . S
C1705 C1699 1.465 . S
C1705 C1704 1.396 . S
C1705 C1706 1.399 . S
C1706 H1692 0.929 . S
C1706 C1705 1.399 . S
C1706 C1707 1.385 . S
C1707 H1693 0.931 . S
C1707 C1706 1.385 . S
C1707 C1708 1.389 . S
C1708 C1707 1.389 . S
C1708 C1709 1.387 . S
C1709 H1694 0.930 . S
C1709 C1704 1.390 . S
C1709 C1708 1.387 . S
H1710 C1722 0.930 . S
H1711 C1724 0.930 . S
H1712 C1725 0.930 . S
H1713 C1729 0.959 . S
H1714 C1729 0.959 . S
H1715 C1729 0.961 . S
H1716 C1730 0.960 . S
H1717 C1730 0.961 . S
H1718 C1730 0.959 . S
H1719 C1733 0.929 . S
H1720 C1734 0.931 . S
H1721 C1736 0.930 . S
C1722 H1710 0.930 . S
C1722 C1723 1.399 . S
C1722 C1727 1.399 . S
C1723 C1722 1.399 . S
C1723 C1724 1.376 . S
C1724 H1711 0.930 . S
C1724 C1723 1.376 . S
C1724 C1725 1.388 . S
C1725 H1712 0.930 . S
C1725 C1724 1.388 . S
C1725 C1726 1.390 . S
C1726 C1725 1.390 . S
C1726 C1727 1.394 . S
C1726 C1732 1.465 . S
C1727 C1722 1.399 . S
C1727 C1726 1.394 . S
C1727 C1728 1.516 . S
C1728 C1727 1.516 . S
C1728 C1729 1.502 . S
C1728 C1730 1.561 . S
C1728 C1731 1.526 . S
C1729 H1713 0.959 . S
C1729 H1714 0.959 . S
C1729 H1715 0.961 . S
C1729 C1728 1.502 . S
C1730 H1716 0.960 . S
C1730 H1717 0.961 . S
C1730 H1718 0.959 . S
C1730 C1728 1.561 . S
C1731 C1728 1.526 . S
C1731 C1732 1.396 . S
C1731 C1736 1.390 . S
C1732 C1726 1.465 . S
C1732 C1731 1.396 . S
C1732 C1733 1.399 . S
C1733 H1719 0.929 . S
C1733 C1732 1.399 . S
C1733 C1734 1.385 . S
C1734 H1720 0.931 . S
C1734 C1733 1.385 . S
C1734 C1735 1.389 . S
C1735 C1734 1.389 . S
C1735 C1736 1.387 . S
C1736 H1721 0.930 . S
C1736 C1731 1.390 . S
C1736 C1735 1.387 . S
H1737 C1749 0.930 . S
H1738 C1751 0.930 . S
H1739 C1752 0.930 . S
H1740 C1756 0.959 . S
H1741 C1756 0.959 . S
H1742 C1756 0.961 . S
H1743 C1757 0.960 . S
H1744 C1757 0.961 . S
H1745 C1757 0.959 . S
H1746 C1760 0.929 . S
H1747 C1761 0.931 . S
H1748 C1763 0.930 . S
C1749 H1737 0.930 . S
C1749 C1750 1.399 . S
C1749 C1754 1.399 . S
C1750 C1749 1.399 . S
C1750 C1751 1.376 . S
C1751 H1738 0.930 . S
C1751 C1750 1.376 . S
C1751 C1752 1.388 . S
C1752 H1739 0.930 . S
C1752 C1751 1.388 . S
C1752 C1753 1.390 . S
C1753 C1752 1.390 . S
C1753 C1754 1.394 . S
C1753 C1759 1.465 . S
C1754 C1749 1.399 . S
C1754 C1753 1.394 . S
C1754 C1755 1.516 . S
C1755 C1754 1.516 . S
C1755 C1756 1.502 . S
C1755 C1757 1.561 . S
C1755 C1758 1.526 . S
C1756 H1740 0.959 . S
C1756 H1741 0.959 . S
C1756 H1742 0.961 . S
C1756 C1755 1.502 . S
C1757 H1743 0.960 . S
C1757 H1744 0.961 . S
C1757 H1745 0.959 . S
C1757 C1755 1.561 . S
C1758 C1755 1.526 . S
C1758 C1759 1.396 . S
C1758 C1763 1.390 . S
C1759 C1753 1.465 . S
C1759 C1758 1.396 . S
C1759 C1760 1.399 . S
C1760 H1746 0.929 . S
C1760 C1759 1.399 . S
C1760 C1761 1.385 . S
C1761 H1747 0.931 . S
C1761 C1760 1.385 . S
C1761 C1762 1.389 . S
C1762 C1761 1.389 . S
C1762 C1763 1.387 . S
C1763 H1748 0.930 . S
C1763 C1758 1.390 . S
C1763 C1762 1.387 . S
H1764 C1776 0.930 . S
H1765 C1778 0.930 . S
H1766 C1779 0.930 . S
H1767 C1783 0.959 . S
H1768 C1783 0.959 . S
H1769 C1783 0.961 . S
H1770 C1784 0.960 . S
H1771 C1784 0.961 . S
H1772 C1784 0.959 . S
H1773 C1787 0.929 . S
H1774 C1788 0.931 . S
H1775 C1790 0.930 . S
C1776 H1764 0.930 . S
C1776 C1777 1.399 . S
C1776 C1781 1.399 . S
C1777 C1776 1.399 . S
C1777 C1778 1.376 . S
C1778 H1765 0.930 . S
C1778 C1777 1.376 . S
C1778 C1779 1.388 . S
C1779 H1766 0.930 . S
C1779 C1778 1.388 . S
C1779 C1780 1.390 . S
C1780 C1779 1.390 . S
C1780 C1781 1.394 . S
C1780 C1786 1.465 . S
C1781 C1776 1.399 . S
C1781 C1780 1.394 . S
C1781 C1782 1.516 . S
C1782 C1781 1.516 . S
C1782 C1783 1.502 . S
C1782 C1784 1.561 . S
C1782 C1785 1.526 . S
C1783 H1767 0.959 . S
C1783 H1768 0.959 . S
C1783 H1769 0.961 . S
C1783 C1782 1.502 . S
C1784 H1770 0.960 . S
C1784 H1771 0.961 . S
C1784 H1772 0.959 . S
C1784 C1782 1.561 . S
C1785 C1782 1.526 . S
C1785 C1786 1.396 . S
C1785 C1790 1.390 . S
C1786 C1780 1.465 . S
C1786 C1785 1.396 . S
C1786 C1787 1.399 . S
C1787 H1773 0.929 . S
C1787 C1786 1.399 . S
C1787 C1788 1.385 . S
C1788 H1774 0.931 . S
C1788 C1787 1.385 . S
C1788 C1789 1.389 . S
C1789 C1788 1.389 . S
C1789 C1790 1.387 . S
C1790 H1775 0.930 . S
C1790 C1785 1.390 . S
C1790 C1789 1.387 . S
H1791 C1803 0.930 . S
H1792 C1805 0.930 . S
H1793 C1806 0.930 . S
H1794 C1810 0.959 . S
H1795 C1810 0.959 . S
H1796 C1810 0.961 . S
H1797 C1811 0.960 . S
H1798 C1811 0.961 . S
H1799 C1811 0.959 . S
H1800 C1814 0.929 . S
H1801 C1815 0.931 . S
H1802 C1817 0.930 . S
C1803 H1791 0.930 . S
C1803 C1804 1.399 . S
C1803 C1808 1.399 . S
C1804 C1803 1.399 . S
C1804 C1805 1.376 . S
C1805 H1792 0.930 . S
C1805 C1804 1.376 . S
C1805 C1806 1.388 . S
C1806 H1793 0.930 . S
C1806 C1805 1.388 . S
C1806 C1807 1.390 . S
C1807 C1806 1.390 . S
C1807 C1808 1.394 . S
C1807 C1813 1.465 . S
C1808 C1803 1.399 . S
C1808 C1807 1.394 . S
C1808 C1809 1.516 . S
C1809 C1808 1.516 . S
C1809 C1810 1.502 . S
C1809 C1811 1.561 . S
C1809 C1812 1.526 . S
C1810 H1794 0.959 . S
C1810 H1795 0.959 . S
C1810 H1796 0.961 . S
C1810 C1809 1.502 . S
C1811 H1797 0.960 . S
C1811 H1798 0.961 . S
C1811 H1799 0.959 . S
C1811 C1809 1.561 . S
C1812 C1809 1.526 . S
C1812 C1813 1.396 . S
C1812 C1817 1.390 . S
C1813 C1807 1.465 . S
C1813 C1812 1.396 . S
C1813 C1814 1.399 . S
C1814 H1800 0.929 . S
C1814 C1813 1.399 . S
C1814 C1815 1.385 . S
C1815 H1801 0.931 . S
C1815 C1814 1.385 . S
C1815 C1816 1.389 . S
C1816 C1815 1.389 . S
C1816 C1817 1.387 . S
C1817 H1802 0.930 . S
C1817 C1812 1.390 . S
C1817 C1816 1.387 . S
H1818 C1830 0.930 . S
H1819 C1832 0.930 . S
H1820 C1833 0.930 . S
H1821 C1837 0.959 . S
H1822 C1837 0.959 . S
H1823 C1837 0.961 . S
H1824 C1838 0.960 . S
H1825 C1838 0.961 . S
H1826 C1838 0.959 . S
H1827 C1841 0.929 . S
H1828 C1842 0.931 . S
H1829 C1844 0.930 . S
C1830 H1818 0.930 . S
C1830 C1831 1.399 . S
C1830 C1835 1.399 . S
C1831 C1830 1.399 . S
C1831 C1832 1.376 . S
C1832 H1819 0.930 . S
C1832 C1831 1.376 . S
C1832 C1833 1.388 . S
C1833 H1820 0.930 . S
C1833 C1832 1.388 . S
C1833 C1834 1.390 . S
C1834 C1833 1.390 . S
C1834 C1835 1.394 . S
C1834 C1840 1.465 . S
C1835 C1830 1.399 . S
C1835 C1834 1.394 . S
C1835 C1836 1.516 . S
C1836 C1835 1.516 . S
C1836 C1837 1.502 . S
C1836 C1838 1.561 . S
C1836 C1839 1.526 . S
C1837 H1821 0.959 . S
C1837 H1822 0.959 . S
C1837 H1823 0.961 . S
C1837 C1836 1.502 . S
C1838 H1824 0.960 . S
C1838 H1825 0.961 . S
C1838 H1826 0.959 . S
C1838 C1836 1.561 . S
C1839 C1836 1.526 . S
C1839 C1840 1.396 . S
C1839 C1844 1.390 . S
C1840 C1834 1.465 . S
C1840 C1839 1.396 . S
C1840 C1841 1.399 . S
C1841 H1827 0.929 . S
C1841 C1840 1.399 . S
C1841 C1842 1.385 . S
C1842 H1828 0.931 . S
C1842 C1841 1.385 . S
C1842 C1843 1.389 . S
C1843 C1842 1.389 . S
C1843 C1844 1.387 . S
C1844 H1829 0.930 . S
C1844 C1839 1.390 . S
C1844 C1843 1.387 . S
H1845 C1857 0.930 . S
H1846 C1859 0.930 . S
H1847 C1860 0.930 . S
H1848 C1864 0.959 . S
H1849 C1864 0.959 . S
H1850 C1864 0.961 . S
H1851 C1865 0.960 . S
H1852 C1865 0.961 . S
H1853 C1865 0.959 . S
H1854 C1868 0.929 . S
H1855 C1869 0.931 . S
H1856 C1871 0.930 . S
C1857 H1845 0.930 . S
C1857 C1858 1.399 . S
C1857 C1862 1.399 . S
C1858 C1857 1.399 . S
C1858 C1859 1.376 . S
C1859 H1846 0.930 . S
C1859 C1858 1.376 . S
C1859 C1860 1.388 . S
C1860 H1847 0.930 . S
C1860 C1859 1.388 . S
C1860 C1861 1.390 . S
C1861 C1860 1.390 . S
C1861 C1862 1.394 . S
C1861 C1867 1.465 . S
C1862 C1857 1.399 . S
C1862 C1861 1.394 . S
C1862 C1863 1.516 . S
C1863 C1862 1.516 . S
C1863 C1864 1.502 . S
C1863 C1865 1.561 . S
C1863 C1866 1.526 . S
C1864 H1848 0.959 . S
C1864 H1849 0.959 . S
C1864 H1850 0.961 . S
C1864 C1863 1.502 . S
C1865 H1851 0.960 . S
C1865 H1852 0.961 . S
C1865 H1853 0.959 . S
C1865 C1863 1.561 . S
C1866 C1863 1.526 . S
C1866 C1867 1.396 . S
C1866 C1871 1.390 . S
C1867 C1861 1.465 . S
C1867 C1866 1.396 . S
C1867 C1868 1.399 . S
C1868 H1854 0.929 . S
C1868 C1867 1.399 . S
C1868 C1869 1.385 . S
C1869 H1855 0.931 . S
C1869 C1868 1.385 . S
C1869 C1870 1.389 . S
C1870 C1869 1.389 . S
C1870 C1871 1.387 . S
C1871 H1856 0.930 . S
C1871 C1866 1.390 . S
C1871 C1870 1.387 . S
C427 C177 1.544 . S
C439 C240 1.541 . S
C454 C190 1.517 . S
C466 C260 1.469 . S
C481 C164 1.520 . S
C493 C283 1.500 . S
C508 C151 1.405 . S
C520 C263 1.436 1_556 S
C547 C280 1.450 . S
C535 C125 1.440 . S
C562 C138 1.470 . S
C574 C243 1.463 . S
C601 C250 1.568 . S
C589 C147 1.513 . S
C628 C270 1.454 . S
C616 C121 1.433 . S
C643 C134 1.483 . S
C655 C275 1.576 1_556 S
C670 C173 1.401 . S
C682 C255 1.433 . S
C697 C186 1.435 . S
C709 C290 1.446 . S
C736 C235 1.516 . S
C724 C160 1.498 . S
C763 C300 1.539 . S
C751 C21 1.553 . S
C778 C34 1.507 . S
C790 C320 1.496 . S
C805 C8 1.515 . S
C817 C343 1.505 . S
C832 C229 1.416 . S
C844 C323 1.426 . S
C859 C203 1.446 . S
C871 C340 1.415 . S
C886 C216 1.474 . S
C898 C303 1.460 . S
C913 C225 1.507 . S
C925 C310 1.514 . S
C940 C199 1.426 . S
C952 C330 1.397 . S
C979 C335 1.576 . S
C967 C212 1.478 . S
C994 C17 1.396 . S
C1006 C315 1.478 . S
C1033 C350 1.443 . S
C1021 C30 1.385 . S
C1048 C4 1.472 . S
C1060 C295 1.550 . S
C1087 C360 1.514 . S
C1075 C99 1.556 . S
C1102 C112 1.501 . S
C1114 C380 1.508 . S
C1141 C403 1.522 . S
C1129 C86 1.492 . S
C1168 C383 1.427 . S
C1156 C73 1.416 . S
C1195 C400 1.421 . S
C1183 C47 1.446 . S
C1210 C60 1.471 . S
C1222 C363 1.463 . S
C1237 C69 1.498 . S
C1249 C370 1.556 . S
C1264 C43 1.392 . S
C1276 C390 1.398 . S
C1303 C395 1.577 . S
C1291 C56 1.487 . S
C1318 C95 1.399 . S
C1330 C375 1.432 . S
C1345 C108 1.383 . S
C1357 C410 1.397 . S
C1372 C82 1.518 . S
C1384 C355 1.526 . S
C1399 C204 1.348 . S
C1411 C253 1.296 . S
C1438 C273 1.592 . S
C1426 C217 1.721 . S
C1453 C230 1.528 . S
C1465 C282 1.461 . S
C1480 C87 1.656 . S
C1492 C262 1.647 . S
C1507 C100 1.590 . S
C1519 C293 1.472 . S
C1546 C242 1.271 . S
C1534 C113 1.317 . S
C1561 C48 1.361 . S
C1573 C313 1.261 . S
C1588 C61 1.720 . S
C1600 C333 1.603 . S
C1615 C74 1.524 . S
C1627 C342 1.453 . S
C1642 C165 1.652 . S
C1654 C322 1.611 . S
C1681 C353 1.477 . S
C1669 C178 1.591 . S
C1696 C191 1.320 . S
C1708 C302 1.332 . S
C1723 C126 1.350 . S
C1735 C373 1.290 . S
C1750 C139 1.695 . S
C1762 C393 1.667 . S
C1789 C402 1.506 . S
C1777 C152 1.499 . S
C1804 C9 1.682 . S
C1816 C382 1.596 . S
C1831 C22 1.580 . S
C1843 C413 1.484 . S
C1858 C35 1.343 . S
C1870 C362 1.342 . S
