# Generated by pormake.
# Topology rtl, (3,6)-cn, num edge types: 1
# Building blocks:
#     Node 0, Type 0, BuildingBlock: QEWDON_clean_linker_0, # of connection points: 3
#     Node 1, Type 0, BuildingBlock: QEWDON_clean_linker_0, # of connection points: 3
#     Node 2, Type 0, BuildingBlock: QEWDON_clean_linker_0, # of connection points: 3
#     Node 3, Type 0, BuildingBlock: QEWDON_clean_linker_0, # of connection points: 3
#     Node 4, Type 1, BuildingBlock: VOLQOD_clean_sbu_1, # of connection points: 6
#     Node 5, Type 1, BuildingBlock: VOLQOD_clean_sbu_1, # of connection points: 6
#     Edge 6, Type (0, 1), BuildingBlock: CIFDUS_clean_linker_0, # of connection points: 2
#     Edge 7, Type (0, 1), BuildingBlock: CIFDUS_clean_linker_0, # of connection points: 2
#     Edge 8, Type (0, 1), BuildingBlock: CIFDUS_clean_linker_0, # of connection points: 2
#     Edge 9, Type (0, 1), BuildingBlock: CIFDUS_clean_linker_0, # of connection points: 2
#     Edge 10, Type (0, 1), BuildingBlock: CIFDUS_clean_linker_0, # of connection points: 2
#     Edge 11, Type (0, 1), BuildingBlock: CIFDUS_clean_linker_0, # of connection points: 2
#     Edge 12, Type (0, 1), BuildingBlock: CIFDUS_clean_linker_0, # of connection points: 2
#     Edge 13, Type (0, 1), BuildingBlock: CIFDUS_clean_linker_0, # of connection points: 2
#     Edge 14, Type (0, 1), BuildingBlock: CIFDUS_clean_linker_0, # of connection points: 2
#     Edge 15, Type (0, 1), BuildingBlock: CIFDUS_clean_linker_0, # of connection points: 2
#     Edge 16, Type (0, 1), BuildingBlock: CIFDUS_clean_linker_0, # of connection points: 2
#     Edge 17, Type (0, 1), BuildingBlock: CIFDUS_clean_linker_0, # of connection points: 2
# Relax obj value: 0.048
# Max RMSD: 0.148
# Mean RMSD: 0.134
data_MOF--net-rtl--node1-VOLQOD_clean_sbu_1--node2-QEWDON_clean_linker_0--edge1-CIFDUS_clean_linker_0
_symmetry_space_group_name_H-M    P1
_symmetry_Int_Tables_number       1
_symmetry_cell_setting            triclinic
loop_
_symmetry_equiv_pos_as_xyz
'x, y, z'
_cell_length_a     34.97655
_cell_length_b     35.183852
_cell_length_c     19.116109
_cell_angle_alpha  91.401439
_cell_angle_beta   92.238117
_cell_angle_gamma 89.722506
loop_
_atom_site_label
_atom_site_type_symbol
_atom_site_fract_x
_atom_site_fract_y
_atom_site_fract_z
_atom_type_partial_charge
H0 H 0.24901 0.87896 0.09449 0.0
C1 C 0.2335 0.8784 0.04422 0.0
C2 C 0.19582 0.89187 0.03952 0.0
C3 C 0.25142 0.86453 0.98422 0.0
H4 H 0.14796 0.90487 0.97103 0.0
C5 C 0.17629 0.89225 0.9743 0.0
C6 C 0.19399 0.87954 0.91314 0.0
C7 C 0.23157 0.86491 0.91881 0.0
C8 C 0.29211 0.85328 -0.01009 0.0
H9 H 0.24591 0.85522 0.87236 0.0
C10 C 0.30348 0.81507 0.98108 0.0
C11 C 0.34195 0.80458 -0.00567 0.0
C12 C 0.31956 0.88093 0.00941 0.0
H13 H 0.31125 0.91044 0.01658 0.0
C14 C 0.35783 0.8707 0.02058 0.0
H15 H 0.28231 0.79349 0.96728 0.0
C16 C 0.36896 0.83273 0.01374 0.0
H17 H 0.39871 0.82524 0.0239 0.0
H18 H 0.37882 0.89218 0.0357 0.0
H19 H 0.73419 0.68885 0.45132 0.0
C20 C 0.71548 0.68991 0.49521 0.0
C21 C 0.67765 0.6766 0.48673 0.0
C22 C 0.73037 0.70108 0.562 0.0
H23 H 0.62505 0.66724 0.53884 0.0
C24 C 0.65429 0.6772 0.54491 0.0
C25 C 0.66914 0.68655 0.6121 0.0
C26 C 0.70714 0.69891 0.62024 0.0
C27 C 0.77165 0.70936 0.57313 0.0
H28 H 0.71909 0.70554 0.67228 0.0
C29 C 0.7895 0.73843 0.53699 0.0
C30 C 0.82894 0.74546 0.54856 0.0
C31 C 0.7935 0.68745 0.62054 0.0
H32 H 0.7804 0.66479 0.6485 0.0
C33 C 0.83247 0.69419 0.63174 0.0
H34 H 0.77281 0.7555 0.50045 0.0
C35 C 0.85011 0.72295 0.59615 0.0
H36 H 0.88033 0.72803 0.60678 0.0
H37 H 0.84905 0.67715 0.66838 0.0
H38 H 0.77771 0.19054 0.07556 0.0
C39 C 0.79637 0.18709 0.03188 0.0
C40 C 0.83414 0.17389 0.0433 0.0
C41 C 0.78186 0.19339 0.96341 0.0
H42 H 0.88549 0.15557 -0.00674 0.0
C43 C 0.85729 0.16803 0.98553 0.0
C44 C 0.84335 0.17431 0.91711 0.0
C45 C 0.80564 0.18729 0.90651 0.0
C46 C 0.74053 0.20063 0.94961 0.0
H47 H 0.79425 0.19143 0.85366 0.0
C48 C 0.72175 0.23241 0.97906 0.0
C49 C 0.68234 0.23839 0.96419 0.0
C50 C 0.71964 0.17497 0.90575 0.0
H51 H 0.73345 0.15024 0.88291 0.0
C52 C 0.68075 0.18067 0.89136 0.0
H53 H 0.73771 0.25235 0.01286 0.0
C54 C 0.66221 0.21212 0.92015 0.0
H55 H 0.6321 0.21624 0.9069 0.0
H56 H 0.66494 0.16074 0.85742 0.0
H57 H 0.34683 0.2924 0.6195 0.0
C58 C 0.35117 0.30591 0.57008 0.0
C59 C 0.36787 0.34212 0.56927 0.0
C60 C 0.34114 0.28616 0.50743 0.0
H61 H 0.38856 0.38549 0.50309 0.0
C62 C 0.37369 0.35859 0.50439 0.0
C63 C 0.36335 0.3395 0.44096 0.0
C64 C 0.34691 0.3031 0.44295 0.0
C65 C 0.32999 0.24585 0.51048 0.0
H66 H 0.33987 0.28743 0.39469 0.0
C67 C 0.29181 0.23419 0.49817 0.0
C68 C 0.2816 0.1961 0.50866 0.0
C69 C 0.35789 0.21912 0.53097 0.0
H70 H 0.38736 0.22771 0.54086 0.0
C71 C 0.34798 0.18127 0.5397 0.0
H72 H 0.27005 0.25484 0.48336 0.0
C73 C 0.31005 0.16983 0.52918 0.0
H74 H 0.30287 0.14035 0.53698 0.0
H75 H 0.36966 0.16084 0.55556 0.0
O76 O 0.92106 0.97174 0.46107 0.0
Zn77 Zn 0.95011 0.02177 0.46685 0.0
O78 O 1.00565 0.01435 0.47795 0.0
Zn79 Zn 0.02397 0.03383 0.56993 0.0
Zn80 Zn 0.01661 0.96001 0.46955 0.0
Zn81 Zn 0.03194 0.0413 0.40548 0.0
O82 O 0.0678 0.07033 0.56101 0.0
O83 O 0.07293 0.07655 0.44659 0.0
O84 O 0.93074 0.0507 0.54999 0.0
O85 O 0.98167 0.06103 0.62087 0.0
O86 O 0.04519 0.99105 0.62862 0.0
O87 O 0.04786 0.9419 0.55322 0.0
O88 O 0.04516 0.94756 0.38303 0.0
O89 O 0.9369 0.0541 0.38324 0.0
O90 O 0.05846 1.0041 0.34067 0.0
O91 O 0.99384 0.07214 0.34845 0.0
C92 C 0.9327 0.93734 0.46178 0.0
C93 C 0.08406 0.08469 0.50938 0.0
C94 C 0.05488 0.95698 0.61349 0.0
C95 C 0.946 0.06485 0.60622 0.0
C96 C 0.06064 0.96793 0.33801 0.0
C97 C 0.95738 0.07366 0.34382 0.0
O98 O 0.96826 0.92941 0.46491 0.0
O99 O 0.59237 0.47172 0.02895 0.0
Zn100 Zn 0.56673 0.52351 0.03589 0.0
O101 O 0.51064 0.51954 0.02922 0.0
Zn102 Zn 0.49026 0.5471 0.94724 0.0
Zn103 Zn 0.49646 0.46581 0.02229 0.0
Zn104 Zn 0.48895 0.54164 0.11325 0.0
O105 O 0.45459 0.59013 0.97531 0.0
O106 O 0.45777 0.58834 0.09134 0.0
O107 O 0.58566 0.55519 0.95904 0.0
O108 O 0.53345 0.57199 0.89726 0.0
O109 O 0.46195 0.5109 0.87922 0.0
O110 O 0.4675 0.45515 0.93109 0.0
O111 O 0.46299 0.45039 0.10083 0.0
O112 O 0.58475 0.54914 0.12685 0.0
O113 O 0.45542 0.50457 0.16048 0.0
O114 O 0.53064 0.55732 0.18289 0.0
C115 C 0.57911 0.438 0.02596 0.0
C116 C 0.44575 0.60374 0.03497 0.0
C117 C 0.45565 0.47521 0.87999 0.0
C118 C 0.56963 0.57285 0.90844 0.0
C119 C 0.44848 0.46929 0.15098 0.0
C120 C 0.56684 0.55994 0.18054 0.0
O121 O 0.54319 0.43198 0.0244 0.0
H122 H 0.24033 0.16194 0.60523 0.0
H123 H 0.23337 0.20093 0.39327 0.0
H124 H 0.1701 0.17155 0.37527 0.0
H125 H 0.11929 0.13031 0.41765 0.0
H126 H 0.12657 0.09292 0.63133 0.0
H127 H 0.18699 0.12633 0.65095 0.0
C128 C 0.22467 0.1643 0.55538 0.0
C129 C 0.24141 0.18317 0.5004 0.0
C130 C 0.18853 0.14744 0.54566 0.0
C131 C 0.22087 0.18654 0.43627 0.0
C132 C 0.18488 0.16957 0.42595 0.0
C133 C 0.13391 0.12977 0.46869 0.0
C134 C 0.11849 0.10873 0.52266 0.0
C135 C 0.16878 0.14924 0.47987 0.0
C136 C 0.13767 0.10875 0.58873 0.0
C137 C 0.17237 0.12777 0.60003 0.0
H138 H 0.37417 0.76499 0.09997 0.0
H139 H 0.33759 0.75451 0.8827 0.0
H140 H 0.36523 0.69023 0.876 0.0
H141 H 0.40375 0.63889 0.93087 0.0
H142 H 0.43804 0.64984 0.14998 0.0
H143 H 0.40717 0.71184 0.15715 0.0
C144 C 0.37199 0.74837 0.05141 0.0
C145 C 0.35428 0.7643 -0.00825 0.0
C146 C 0.3877 0.71165 0.04825 0.0
C147 C 0.35113 0.74261 0.92921 0.0
C148 C 0.36708 0.70603 0.92539 0.0
C149 C 0.4042 0.65473 0.98028 0.0
C150 C 0.42358 0.63975 0.03959 0.0
C151 C 0.38606 0.69051 0.98434 0.0
C152 C 0.42346 0.66054 0.10341 0.0
C153 C 0.40589 0.69614 0.10762 0.0
H154 H 0.80629 0.81958 0.53782 0.0
H155 H 0.89607 0.74139 0.48197 0.0
H156 H 0.93458 0.79395 0.44322 0.0
H157 H 0.9458 0.86223 0.43779 0.0
H158 H 0.85709 0.9414 0.4951 0.0
H159 H 0.81489 0.88843 0.51935 0.0
C160 C 0.8339 0.81406 0.51562 0.0
C161 C 0.84855 0.77672 0.51359 0.0
C162 C 0.85624 0.84461 0.49434 0.0
C163 C 0.88445 0.76996 0.48502 0.0
C164 C 0.90649 0.79998 0.46289 0.0
C165 C 0.91706 0.86799 0.45476 0.0
C166 C 0.90488 0.90578 0.46554 0.0
C167 C 0.8932 0.83748 0.46943 0.0
C168 C 0.86732 0.91262 0.48656 0.0
C169 C 0.84321 0.88231 0.5008 0.0
H170 H 0.70473 0.31277 0.96523 0.0
H171 H 0.61313 0.23992 0.02424 0.0
H172 H 0.5739 0.29535 0.05196 0.0
H173 H 0.56342 0.36407 0.04994 0.0
H174 H 0.65458 0.43778 -0.00809 0.0
H175 H 0.69623 0.3826 0.97414 0.0
C176 C 0.67651 0.30911 0.98558 0.0
C177 C 0.6617 0.27226 -0.00817 0.0
C178 C 0.65383 0.34125 0.00088 0.0
C179 C 0.62496 0.26798 0.01792 0.0
C180 C 0.60249 0.29965 0.03377 0.0
C181 C 0.59248 0.36816 0.03381 0.0
C182 C 0.60563 0.40503 0.02143 0.0
C183 C 0.61623 0.33637 0.02367 0.0
C184 C 0.6436 0.40974 0.00159 0.0
C185 C 0.66745 0.37816 -0.00875 0.0
H186 H 0.13034 0.86869 0.09493 0.0
H187 H 0.21949 0.95248 0.12039 0.0
H188 H 0.18484 0.98455 0.21418 0.0
H189 H 0.12783 0.98975 0.28601 0.0
H190 H 0.04114 0.90305 0.26617 0.0
H191 H 0.0759 0.87107 0.17278 0.0
C192 C 0.14222 0.89374 0.12175 0.0
C193 C 0.17721 0.90837 0.10129 0.0
C194 C 0.12239 0.91162 0.17588 0.0
C195 C 0.19266 0.94071 0.13605 0.0
C196 C 0.17275 0.95913 0.18915 0.0
C197 C 0.11662 0.96392 0.26092 0.0
C198 C 0.08185 0.94894 0.28192 0.0
C199 C 0.13736 0.94509 0.2089 0.0
C200 C 0.06784 0.91507 0.25039 0.0
C201 C 0.08768 0.89681 0.19715 0.0
H202 H 0.6937 0.64541 0.72269 0.0
H203 H 0.59407 0.70276 0.63624 0.0
H204 H 0.55422 0.67325 0.72209 0.0
H205 H 0.54698 0.62651 0.81448 0.0
H206 H 0.64714 0.56902 0.8995 0.0
H207 H 0.68743 0.60332 0.82157 0.0
C208 C 0.66348 0.65238 0.72401 0.0
C209 C 0.64685 0.67623 0.67327 0.0
C210 C 0.64069 0.63468 0.77236 0.0
C211 C 0.60748 0.68439 0.67477 0.0
C212 C 0.58468 0.66734 0.7235 0.0
C213 C 0.57762 0.62154 0.81605 0.0
C214 C 0.59387 0.59483 0.8622 0.0
C215 C 0.6008 0.64152 0.77116 0.0
C216 C 0.63375 0.58921 0.86427 0.0
C217 C 0.6569 0.60887 0.81977 0.0
H218 H 0.90525 0.18392 0.10303 0.0
H219 H 0.7959 0.13325 0.13912 0.0
H220 H 0.82391 0.0999 0.2395 0.0
H221 H 0.88118 0.07894 0.30746 0.0
H222 H 0.99133 0.12606 0.26385 0.0
H223 H 0.96145 0.16606 0.17492 0.0
C224 C 0.88743 0.16582 0.13323 0.0
C225 C 0.84863 0.1608 0.11295 0.0
C226 C 0.9041 0.1453 0.18857 0.0
C227 C 0.82576 0.13793 0.15368 0.0
C228 C 0.84191 0.11838 0.21054 0.0
C229 C 0.89864 0.09811 0.27883 0.0
C230 C 0.93857 0.09902 0.29187 0.0
C231 C 0.88133 0.12081 0.22687 0.0
C232 C 0.96065 0.12429 0.25445 0.0
C233 C 0.94356 0.14737 0.2037 0.0
H234 H 0.3669 0.41815 0.603 0.0
H235 H 0.40262 0.30951 0.68408 0.0
H236 H 0.43051 0.34101 0.78858 0.0
H237 H 0.44824 0.39929 0.85392 0.0
H238 H 0.41668 0.50838 0.77002 0.0
H239 H 0.38447 0.47674 0.66901 0.0
C240 C 0.38093 0.40131 0.64332 0.0
C241 C 0.38245 0.3614 0.63531 0.0
C242 C 0.39806 0.4197 0.70255 0.0
C243 C 0.40023 0.34014 0.68898 0.0
C244 C 0.41663 0.35818 0.74861 0.0
C245 C 0.43415 0.41625 0.81383 0.0
C246 C 0.43499 0.45621 0.81965 0.0
C247 C 0.41614 0.39793 0.75552 0.0
C248 C 0.41667 0.4776 0.76685 0.0
C249 C 0.39818 0.45952 0.70908 0.0
H250 H 0.63502 0.61267 0.47423 0.0
H251 H 0.68931 0.69624 0.35006 0.0
H252 H 0.66275 0.66496 0.24286 0.0
H253 H 0.62012 0.61606 0.18538 0.0
H254 H 0.56035 0.53864 0.31373 0.0
H255 H 0.59238 0.56592 0.419 0.0
C256 C 0.64055 0.62473 0.42397 0.0
C257 C 0.66338 0.65743 0.42049 0.0
C258 C 0.62405 0.60767 0.3634 0.0
C259 C 0.67168 0.67125 0.3544 0.0
C260 C 0.65633 0.65349 0.29315 0.0
C261 C 0.61456 0.60511 0.23653 0.0
C262 C 0.58822 0.57537 0.24238 0.0
C263 C 0.63198 0.62199 0.29712 0.0
C264 C 0.58056 0.56156 0.3085 0.0
C265 C 0.59882 0.57712 0.36848 0.0
H266 H 0.82028 0.13372 0.80044 0.0
H267 H 0.9196 0.18681 0.90094 0.0
H268 H 0.96032 0.158 0.81295 0.0
H269 H 0.96814 0.11429 0.71201 0.0
H270 H 0.86828 0.06242 0.61067 0.0
H271 H 0.82737 0.09452 0.69407 0.0
C272 C 0.85068 0.1398 0.80213 0.0
C273 C 0.86688 0.16225 0.85736 0.0
C274 C 0.87392 0.12298 0.7517 0.0
C275 C 0.90648 0.1693 0.85932 0.0
C276 C 0.92978 0.1528 0.80912 0.0
C277 C 0.93743 0.11008 0.70812 0.0
C278 C 0.9214 0.08566 0.65562 0.0
C279 C 0.91393 0.12887 0.756 0.0
C280 C 0.88145 0.08096 0.65068 0.0
C281 C 0.85797 0.09931 0.69837 0.0
H282 H 0.35538 0.41326 0.404 0.0
H283 H 0.39524 0.30431 0.32747 0.0
H284 H 0.42179 0.33452 0.22641 0.0
H285 H 0.44012 0.39283 0.16728 0.0
H286 H 0.40352 0.50197 0.24929 0.0
H287 H 0.36976 0.47078 0.34091 0.0
C288 C 0.36968 0.39606 0.36496 0.0
C289 C 0.37362 0.35663 0.37379 0.0
C290 C 0.386 0.41376 0.30839 0.0
C291 C 0.39152 0.33467 0.3219 0.0
C292 C 0.40709 0.35201 0.26442 0.0
C293 C 0.42436 0.40978 0.20463 0.0
C294 C 0.42476 0.44975 0.20171 0.0
C295 C 0.40548 0.39167 0.25822 0.0
C296 C 0.40411 0.47121 0.25062 0.0
C297 C 0.38472 0.4534 0.30309 0.0
H298 H 0.11823 0.87098 0.87732 0.0
H299 H 0.22554 0.9043 0.7934 0.0
H300 H 0.19174 0.92763 0.68885 0.0
H301 H 0.13105 0.94633 0.62837 0.0
H302 H 0.02396 0.9188 0.71826 0.0
H303 H 0.05807 0.88627 0.81421 0.0
C304 C 0.1343 0.88318 0.83604 0.0
C305 C 0.1744 0.88628 0.8439 0.0
C306 C 0.11457 0.89825 0.77768 0.0
C307 C 0.19476 0.90121 0.78885 0.0
C308 C 0.17538 0.91507 0.72932 0.0
C309 C 0.1154 0.93271 0.66871 0.0
C310 C 0.07531 0.93475 0.66707 0.0
C311 C 0.13526 0.91493 0.72432 0.0
C312 C 0.05493 0.91741 0.71918 0.0
C313 C 0.0744 0.89888 0.77377 0.0
loop_
_geom_bond_atom_site_label_1
_geom_bond_atom_site_label_2
_geom_bond_distance
_geom_bond_site_symmetry_2
_ccdc_geom_bond_type
H0 C1 0.949 . S
C1 H0 0.949 . S
C1 C2 1.395 . S
C1 C3 1.391 1_554 S
C2 C1 1.395 . S
C2 C5 1.390 . S
C3 C1 1.391 1_556 S
C3 C7 1.387 . S
C3 C8 1.491 . S
H4 C5 0.950 . S
C5 C2 1.390 . S
C5 H4 0.950 . S
C5 C6 1.378 1_554 S
C6 C5 1.378 1_556 S
C6 C7 1.409 . S
C7 C3 1.387 . S
C7 C6 1.409 . S
C7 H9 0.951 . S
C8 C3 1.491 . S
C8 C10 1.382 1_556 S
C8 C12 1.404 . S
H9 C7 0.951 . S
C10 C8 1.382 1_554 S
C10 C11 1.390 . S
C10 H15 0.949 . S
C11 C10 1.390 . S
C11 C16 1.399 1_554 S
C12 C8 1.404 . S
C12 H13 0.950 . S
C12 C14 1.375 . S
H13 C12 0.950 . S
C14 C12 1.375 . S
C14 C16 1.382 . S
C14 H18 0.950 . S
H15 C10 0.949 . S
C16 C11 1.399 1_556 S
C16 C14 1.382 . S
C16 H17 0.952 . S
H17 C16 0.952 . S
H18 C14 0.950 . S
H19 C20 0.949 . S
C20 H19 0.949 . S
C20 C21 1.395 . S
C20 C22 1.391 . S
C21 C20 1.395 . S
C21 C24 1.390 . S
C22 C20 1.391 . S
C22 C26 1.387 . S
C22 C27 1.491 . S
H23 C24 0.950 . S
C24 C21 1.390 . S
C24 H23 0.950 . S
C24 C25 1.378 . S
C25 C24 1.378 . S
C25 C26 1.409 . S
C26 C22 1.387 . S
C26 C25 1.409 . S
C26 H28 0.951 . S
C27 C22 1.491 . S
C27 C29 1.382 . S
C27 C31 1.404 . S
H28 C26 0.951 . S
C29 C27 1.382 . S
C29 C30 1.390 . S
C29 H34 0.949 . S
C30 C29 1.390 . S
C30 C35 1.399 . S
C31 C27 1.404 . S
C31 H32 0.950 . S
C31 C33 1.375 . S
H32 C31 0.950 . S
C33 C31 1.375 . S
C33 C35 1.382 . S
C33 H37 0.950 . S
H34 C29 0.949 . S
C35 C30 1.399 . S
C35 C33 1.382 . S
C35 H36 0.952 . S
H36 C35 0.952 . S
H37 C33 0.950 . S
H38 C39 0.949 . S
C39 H38 0.949 . S
C39 C40 1.395 . S
C39 C41 1.391 1_554 S
C40 C39 1.395 . S
C40 C43 1.390 . S
C41 C39 1.391 1_556 S
C41 C45 1.387 . S
C41 C46 1.491 . S
H42 C43 0.950 . S
C43 C40 1.390 . S
C43 H42 0.950 . S
C43 C44 1.378 1_554 S
C44 C43 1.378 1_556 S
C44 C45 1.409 . S
C45 C41 1.387 . S
C45 C44 1.409 . S
C45 H47 0.951 . S
C46 C41 1.491 . S
C46 C48 1.382 1_556 S
C46 C50 1.404 . S
H47 C45 0.951 . S
C48 C46 1.382 1_554 S
C48 C49 1.390 . S
C48 H53 0.949 . S
C49 C48 1.390 . S
C49 C54 1.399 1_554 S
C50 C46 1.404 . S
C50 H51 0.950 . S
C50 C52 1.375 . S
H51 C50 0.950 . S
C52 C50 1.375 . S
C52 C54 1.382 . S
C52 H56 0.950 . S
H53 C48 0.949 . S
C54 C49 1.399 1_556 S
C54 C52 1.382 . S
C54 H55 0.952 . S
H55 C54 0.952 . S
H56 C52 0.950 . S
H57 C58 0.949 . S
C58 H57 0.949 . S
C58 C59 1.395 . S
C58 C60 1.391 . S
C59 C58 1.395 . S
C59 C62 1.390 . S
C60 C58 1.391 . S
C60 C64 1.387 . S
C60 C65 1.491 . S
H61 C62 0.950 . S
C62 C59 1.390 . S
C62 H61 0.950 . S
C62 C63 1.378 . S
C63 C62 1.378 . S
C63 C64 1.409 . S
C64 C60 1.387 . S
C64 C63 1.409 . S
C64 H66 0.951 . S
C65 C60 1.491 . S
C65 C67 1.382 . S
C65 C69 1.404 . S
H66 C64 0.951 . S
C67 C65 1.382 . S
C67 C68 1.390 . S
C67 H72 0.949 . S
C68 C67 1.390 . S
C68 C73 1.399 . S
C69 C65 1.404 . S
C69 H70 0.950 . S
C69 C71 1.375 . S
H70 C69 0.950 . S
C71 C69 1.375 . S
C71 C73 1.382 . S
C71 H75 0.950 . S
H72 C67 0.949 . S
C73 C68 1.399 . S
C73 C71 1.382 . S
C73 H74 0.952 . S
H74 C73 0.952 . S
H75 C71 0.950 . S
O76 Zn77 1.953 1_565 S
O76 C92 1.225 . S
Zn77 O76 1.953 1_545 S
Zn77 O78 1.949 1_655 S
Zn77 O84 1.919 . S
Zn77 O89 1.924 . S
O78 Zn77 1.949 1_455 S
O78 Zn79 1.923 . S
O78 Zn80 1.950 1_545 S
O78 Zn81 1.945 . S
Zn79 O78 1.923 . S
Zn79 O82 1.933 . S
Zn79 O85 1.941 . S
Zn79 O86 1.965 1_545 S
Zn80 O78 1.950 1_565 S
Zn80 O87 1.938 . S
Zn80 O88 1.906 . S
Zn80 O98 1.953 1_455 S
Zn81 O78 1.945 . S
Zn81 O83 1.932 . S
Zn81 O90 1.977 1_545 S
Zn81 O91 1.910 1_455 S
O82 Zn79 1.933 . S
O82 C93 1.226 . S
O83 Zn81 1.932 . S
O83 C93 1.307 . S
O84 Zn77 1.919 . S
O84 C95 1.253 . S
O85 Zn79 1.941 . S
O85 C95 1.283 1_455 S
O86 Zn79 1.965 1_565 S
O86 C94 1.303 . S
O87 Zn80 1.938 . S
O87 C94 1.247 . S
O88 Zn80 1.906 . S
O88 C96 1.304 . S
O89 Zn77 1.924 . S
O89 C97 1.311 . S
O90 Zn81 1.977 1_565 S
O90 C96 1.272 . S
O91 Zn81 1.910 1_655 S
O91 C97 1.231 . S
C92 O76 1.225 . S
C92 O98 1.298 . S
C93 O82 1.226 . S
C93 O83 1.307 . S
C94 O86 1.303 . S
C94 O87 1.247 . S
C95 O84 1.253 . S
C95 O85 1.283 1_655 S
C96 O88 1.304 . S
C96 O90 1.272 . S
C97 O89 1.311 . S
C97 O91 1.231 . S
O98 Zn80 1.953 1_655 S
O98 C92 1.298 . S
O99 Zn100 1.953 . S
O99 C115 1.225 . S
Zn100 O99 1.953 . S
Zn100 O101 1.949 . S
Zn100 O107 1.919 1_554 S
Zn100 O112 1.924 . S
O101 Zn100 1.949 . S
O101 Zn102 1.923 1_554 S
O101 Zn103 1.950 . S
O101 Zn104 1.945 . S
Zn102 O101 1.923 1_556 S
Zn102 O105 1.933 . S
Zn102 O108 1.941 . S
Zn102 O109 1.965 . S
Zn103 O101 1.950 . S
Zn103 O110 1.938 1_554 S
Zn103 O111 1.906 . S
Zn103 O121 1.953 . S
Zn104 O101 1.945 . S
Zn104 O106 1.932 . S
Zn104 O113 1.977 . S
Zn104 O114 1.910 . S
O105 Zn102 1.933 . S
O105 C116 1.226 1_556 S
O106 Zn104 1.932 . S
O106 C116 1.307 . S
O107 Zn100 1.919 1_556 S
O107 C118 1.253 . S
O108 Zn102 1.941 . S
O108 C118 1.283 . S
O109 Zn102 1.965 . S
O109 C117 1.303 . S
O110 Zn103 1.938 1_556 S
O110 C117 1.247 . S
O111 Zn103 1.906 . S
O111 C119 1.304 . S
O112 Zn100 1.924 . S
O112 C120 1.311 . S
O113 Zn104 1.977 . S
O113 C119 1.272 . S
O114 Zn104 1.910 . S
O114 C120 1.231 . S
C115 O99 1.225 . S
C115 O121 1.298 . S
C116 O105 1.226 1_554 S
C116 O106 1.307 . S
C117 O109 1.303 . S
C117 O110 1.247 . S
C118 O107 1.253 . S
C118 O108 1.283 . S
C119 O111 1.304 . S
C119 O113 1.272 . S
C120 O112 1.311 . S
C120 O114 1.231 . S
O121 Zn103 1.953 . S
O121 C115 1.298 . S
H122 C128 0.930 . S
H123 C131 0.930 . S
H124 C132 0.930 . S
H125 C133 0.930 . S
H126 C136 0.930 . S
H127 C137 0.930 . S
C128 H122 0.930 . S
C128 C129 1.355 . S
C128 C130 1.415 . S
C129 C128 1.355 . S
C129 C131 1.419 . S
C130 C128 1.415 . S
C130 C135 1.425 . S
C130 C137 1.409 . S
C131 H123 0.930 . S
C131 C129 1.419 . S
C131 C132 1.362 . S
C132 H124 0.930 . S
C132 C131 1.362 . S
C132 C135 1.409 . S
C133 H125 0.930 . S
C133 C134 1.355 . S
C133 C135 1.415 . S
C134 C133 1.355 . S
C134 C136 1.419 . S
C135 C130 1.425 . S
C135 C132 1.409 . S
C135 C133 1.415 . S
C136 H126 0.930 . S
C136 C134 1.419 . S
C136 C137 1.362 . S
C137 H127 0.930 . S
C137 C130 1.409 . S
C137 C136 1.362 . S
H138 C144 0.930 . S
H139 C147 0.930 . S
H140 C148 0.930 . S
H141 C149 0.930 1_556 S
H142 C152 0.930 . S
H143 C153 0.930 . S
C144 H138 0.930 . S
C144 C145 1.355 . S
C144 C146 1.415 . S
C145 C144 1.355 . S
C145 C147 1.419 1_554 S
C146 C144 1.415 . S
C146 C151 1.425 . S
C146 C153 1.409 . S
C147 H139 0.930 . S
C147 C145 1.419 1_556 S
C147 C148 1.362 . S
C148 H140 0.930 . S
C148 C147 1.362 . S
C148 C151 1.409 1_556 S
C149 H141 0.930 1_554 S
C149 C150 1.355 . S
C149 C151 1.415 . S
C150 C149 1.355 . S
C150 C152 1.419 . S
C151 C146 1.425 . S
C151 C148 1.409 1_554 S
C151 C149 1.415 . S
C152 H142 0.930 . S
C152 C150 1.419 . S
C152 C153 1.362 . S
C153 H143 0.930 . S
C153 C146 1.409 . S
C153 C152 1.362 . S
H154 C160 0.930 . S
H155 C163 0.930 . S
H156 C164 0.930 . S
H157 C165 0.930 . S
H158 C168 0.930 . S
H159 C169 0.930 . S
C160 H154 0.930 . S
C160 C161 1.355 . S
C160 C162 1.415 . S
C161 C160 1.355 . S
C161 C163 1.419 . S
C162 C160 1.415 . S
C162 C167 1.425 . S
C162 C169 1.409 . S
C163 H155 0.930 . S
C163 C161 1.419 . S
C163 C164 1.362 . S
C164 H156 0.930 . S
C164 C163 1.362 . S
C164 C167 1.409 . S
C165 H157 0.930 . S
C165 C166 1.355 . S
C165 C167 1.415 . S
C166 C165 1.355 . S
C166 C168 1.419 . S
C167 C162 1.425 . S
C167 C164 1.409 . S
C167 C165 1.415 . S
C168 H158 0.930 . S
C168 C166 1.419 . S
C168 C169 1.362 . S
C169 H159 0.930 . S
C169 C162 1.409 . S
C169 C168 1.362 . S
H170 C176 0.930 . S
H171 C179 0.930 . S
H172 C180 0.930 . S
H173 C181 0.930 . S
H174 C184 0.930 . S
H175 C185 0.930 . S
C176 H170 0.930 . S
C176 C177 1.355 . S
C176 C178 1.415 . S
C177 C176 1.355 . S
C177 C179 1.419 1_554 S
C178 C176 1.415 . S
C178 C183 1.425 . S
C178 C185 1.409 . S
C179 H171 0.930 . S
C179 C177 1.419 1_556 S
C179 C180 1.362 . S
C180 H172 0.930 . S
C180 C179 1.362 . S
C180 C183 1.409 1_556 S
C181 H173 0.930 . S
C181 C182 1.355 1_556 S
C181 C183 1.415 1_556 S
C182 C181 1.355 1_554 S
C182 C184 1.419 . S
C183 C178 1.425 . S
C183 C180 1.409 1_554 S
C183 C181 1.415 1_554 S
C184 H174 0.930 . S
C184 C182 1.419 . S
C184 C185 1.362 . S
C185 H175 0.930 . S
C185 C178 1.409 . S
C185 C184 1.362 . S
H186 C192 0.930 . S
H187 C195 0.930 . S
H188 C196 0.930 . S
H189 C197 0.930 . S
H190 C200 0.930 . S
H191 C201 0.930 . S
C192 H186 0.930 . S
C192 C193 1.355 . S
C192 C194 1.415 . S
C193 C192 1.355 . S
C193 C195 1.419 . S
C194 C192 1.415 . S
C194 C199 1.425 . S
C194 C201 1.409 . S
C195 H187 0.930 . S
C195 C193 1.419 . S
C195 C196 1.362 . S
C196 H188 0.930 . S
C196 C195 1.362 . S
C196 C199 1.409 . S
C197 H189 0.930 . S
C197 C198 1.355 . S
C197 C199 1.415 . S
C198 C197 1.355 . S
C198 C200 1.419 . S
C199 C194 1.425 . S
C199 C196 1.409 . S
C199 C197 1.415 . S
C200 H190 0.930 . S
C200 C198 1.419 . S
C200 C201 1.362 . S
C201 H191 0.930 . S
C201 C194 1.409 . S
C201 C200 1.362 . S
H202 C208 0.930 . S
H203 C211 0.930 . S
H204 C212 0.930 . S
H205 C213 0.930 . S
H206 C216 0.930 . S
H207 C217 0.930 . S
C208 H202 0.930 . S
C208 C209 1.355 . S
C208 C210 1.415 . S
C209 C208 1.355 . S
C209 C211 1.419 . S
C210 C208 1.415 . S
C210 C215 1.425 . S
C210 C217 1.409 . S
C211 H203 0.930 . S
C211 C209 1.419 . S
C211 C212 1.362 . S
C212 H204 0.930 . S
C212 C211 1.362 . S
C212 C215 1.409 . S
C213 H205 0.930 . S
C213 C214 1.355 . S
C213 C215 1.415 . S
C214 C213 1.355 . S
C214 C216 1.419 . S
C215 C210 1.425 . S
C215 C212 1.409 . S
C215 C213 1.415 . S
C216 H206 0.930 . S
C216 C214 1.419 . S
C216 C217 1.362 . S
C217 H207 0.930 . S
C217 C210 1.409 . S
C217 C216 1.362 . S
H218 C224 0.930 . S
H219 C227 0.930 . S
H220 C228 0.930 . S
H221 C229 0.930 . S
H222 C232 0.930 . S
H223 C233 0.930 . S
C224 H218 0.930 . S
C224 C225 1.355 . S
C224 C226 1.415 . S
C225 C224 1.355 . S
C225 C227 1.419 . S
C226 C224 1.415 . S
C226 C231 1.425 . S
C226 C233 1.409 . S
C227 H219 0.930 . S
C227 C225 1.419 . S
C227 C228 1.362 . S
C228 H220 0.930 . S
C228 C227 1.362 . S
C228 C231 1.409 . S
C229 H221 0.930 . S
C229 C230 1.355 . S
C229 C231 1.415 . S
C230 C229 1.355 . S
C230 C232 1.419 . S
C231 C226 1.425 . S
C231 C228 1.409 . S
C231 C229 1.415 . S
C232 H222 0.930 . S
C232 C230 1.419 . S
C232 C233 1.362 . S
C233 H223 0.930 . S
C233 C226 1.409 . S
C233 C232 1.362 . S
H234 C240 0.930 . S
H235 C243 0.930 . S
H236 C244 0.930 . S
H237 C245 0.930 . S
H238 C248 0.930 . S
H239 C249 0.930 . S
C240 H234 0.930 . S
C240 C241 1.355 . S
C240 C242 1.415 . S
C241 C240 1.355 . S
C241 C243 1.419 . S
C242 C240 1.415 . S
C242 C247 1.425 . S
C242 C249 1.409 . S
C243 H235 0.930 . S
C243 C241 1.419 . S
C243 C244 1.362 . S
C244 H236 0.930 . S
C244 C243 1.362 . S
C244 C247 1.409 . S
C245 H237 0.930 . S
C245 C246 1.355 . S
C245 C247 1.415 . S
C246 C245 1.355 . S
C246 C248 1.419 . S
C247 C242 1.425 . S
C247 C244 1.409 . S
C247 C245 1.415 . S
C248 H238 0.930 . S
C248 C246 1.419 . S
C248 C249 1.362 . S
C249 H239 0.930 . S
C249 C242 1.409 . S
C249 C248 1.362 . S
H250 C256 0.930 . S
H251 C259 0.930 . S
H252 C260 0.930 . S
H253 C261 0.930 . S
H254 C264 0.930 . S
H255 C265 0.930 . S
C256 H250 0.930 . S
C256 C257 1.355 . S
C256 C258 1.415 . S
C257 C256 1.355 . S
C257 C259 1.419 . S
C258 C256 1.415 . S
C258 C263 1.425 . S
C258 C265 1.409 . S
C259 H251 0.930 . S
C259 C257 1.419 . S
C259 C260 1.362 . S
C260 H252 0.930 . S
C260 C259 1.362 . S
C260 C263 1.409 . S
C261 H253 0.930 . S
C261 C262 1.355 . S
C261 C263 1.415 . S
C262 C261 1.355 . S
C262 C264 1.419 . S
C263 C258 1.425 . S
C263 C260 1.409 . S
C263 C261 1.415 . S
C264 H254 0.930 . S
C264 C262 1.419 . S
C264 C265 1.362 . S
C265 H255 0.930 . S
C265 C258 1.409 . S
C265 C264 1.362 . S
H266 C272 0.930 . S
H267 C275 0.930 . S
H268 C276 0.930 . S
H269 C277 0.930 . S
H270 C280 0.930 . S
H271 C281 0.930 . S
C272 H266 0.930 . S
C272 C273 1.355 . S
C272 C274 1.415 . S
C273 C272 1.355 . S
C273 C275 1.419 . S
C274 C272 1.415 . S
C274 C279 1.425 . S
C274 C281 1.409 . S
C275 H267 0.930 . S
C275 C273 1.419 . S
C275 C276 1.362 . S
C276 H268 0.930 . S
C276 C275 1.362 . S
C276 C279 1.409 . S
C277 H269 0.930 . S
C277 C278 1.355 . S
C277 C279 1.415 . S
C278 C277 1.355 . S
C278 C280 1.419 . S
C279 C274 1.425 . S
C279 C276 1.409 . S
C279 C277 1.415 . S
C280 H270 0.930 . S
C280 C278 1.419 . S
C280 C281 1.362 . S
C281 H271 0.930 . S
C281 C274 1.409 . S
C281 C280 1.362 . S
H282 C288 0.930 . S
H283 C291 0.930 . S
H284 C292 0.930 . S
H285 C293 0.930 . S
H286 C296 0.930 . S
H287 C297 0.930 . S
C288 H282 0.930 . S
C288 C289 1.355 . S
C288 C290 1.415 . S
C289 C288 1.355 . S
C289 C291 1.419 . S
C290 C288 1.415 . S
C290 C295 1.425 . S
C290 C297 1.409 . S
C291 H283 0.930 . S
C291 C289 1.419 . S
C291 C292 1.362 . S
C292 H284 0.930 . S
C292 C291 1.362 . S
C292 C295 1.409 . S
C293 H285 0.930 . S
C293 C294 1.355 . S
C293 C295 1.415 . S
C294 C293 1.355 . S
C294 C296 1.419 . S
C295 C290 1.425 . S
C295 C292 1.409 . S
C295 C293 1.415 . S
C296 H286 0.930 . S
C296 C294 1.419 . S
C296 C297 1.362 . S
C297 H287 0.930 . S
C297 C290 1.409 . S
C297 C296 1.362 . S
H298 C304 0.930 . S
H299 C307 0.930 . S
H300 C308 0.930 . S
H301 C309 0.930 . S
H302 C312 0.930 . S
H303 C313 0.930 . S
C304 H298 0.930 . S
C304 C305 1.355 . S
C304 C306 1.415 . S
C305 C304 1.355 . S
C305 C307 1.419 . S
C306 C304 1.415 . S
C306 C311 1.425 . S
C306 C313 1.409 . S
C307 H299 0.930 . S
C307 C305 1.419 . S
C307 C308 1.362 . S
C308 H300 0.930 . S
C308 C307 1.362 . S
C308 C311 1.409 . S
C309 H301 0.930 . S
C309 C310 1.355 . S
C309 C311 1.415 . S
C310 C309 1.355 . S
C310 C312 1.419 . S
C311 C306 1.425 . S
C311 C308 1.409 . S
C311 C309 1.415 . S
C312 H302 0.930 . S
C312 C310 1.419 . S
C312 C313 1.362 . S
C313 H303 0.930 . S
C313 C306 1.409 . S
C313 C312 1.362 . S
C134 C93 1.517 . S
C129 C68 1.421 . S
C145 C11 1.381 . S
C150 C116 1.527 . S
C161 C30 1.454 . S
C166 C92 1.544 . S
C177 C49 1.371 . S
C182 C115 1.546 . S
C198 C96 1.501 . S
C193 C2 1.513 . S
C214 C118 1.538 . S
C209 C25 1.582 . S
C225 C40 1.525 . S
C230 C97 1.521 . S
C241 C59 1.536 . S
C246 C117 1.485 . S
C262 C120 1.426 . S
C257 C21 1.472 . S
C278 C95 1.437 . S
C273 C44 1.490 . S
C294 C119 1.422 . S
C289 C63 1.479 . S
C305 C6 1.491 . S
C310 C94 1.461 . S
