# Generated by pormake.
# Topology rtl, (3,6)-cn, num edge types: 1
# Building blocks:
#     Node 0, Type 0, BuildingBlock: VETTIZ_charged_linker_0, # of connection points: 3
#     Node 1, Type 0, BuildingBlock: VETTIZ_charged_linker_0, # of connection points: 3
#     Node 2, Type 0, BuildingBlock: VETTIZ_charged_linker_0, # of connection points: 3
#     Node 3, Type 0, BuildingBlock: VETTIZ_charged_linker_0, # of connection points: 3
#     Node 4, Type 1, BuildingBlock: VOLQOD_clean_sbu_1, # of connection points: 6
#     Node 5, Type 1, BuildingBlock: VOLQOD_clean_sbu_1, # of connection points: 6
#     Edge 6, Type (0, 1), BuildingBlock: FUNLAD_clean_linker_1, # of connection points: 2
#     Edge 7, Type (0, 1), BuildingBlock: FUNLAD_clean_linker_1, # of connection points: 2
#     Edge 8, Type (0, 1), BuildingBlock: FUNLAD_clean_linker_1, # of connection points: 2
#     Edge 9, Type (0, 1), BuildingBlock: FUNLAD_clean_linker_1, # of connection points: 2
#     Edge 10, Type (0, 1), BuildingBlock: FUNLAD_clean_linker_1, # of connection points: 2
#     Edge 11, Type (0, 1), BuildingBlock: FUNLAD_clean_linker_1, # of connection points: 2
#     Edge 12, Type (0, 1), BuildingBlock: FUNLAD_clean_linker_1, # of connection points: 2
#     Edge 13, Type (0, 1), BuildingBlock: FUNLAD_clean_linker_1, # of connection points: 2
#     Edge 14, Type (0, 1), BuildingBlock: FUNLAD_clean_linker_1, # of connection points: 2
#     Edge 15, Type (0, 1), BuildingBlock: FUNLAD_clean_linker_1, # of connection points: 2
#     Edge 16, Type (0, 1), BuildingBlock: FUNLAD_clean_linker_1, # of connection points: 2
#     Edge 17, Type (0, 1), BuildingBlock: FUNLAD_clean_linker_1, # of connection points: 2
# Relax obj value: 0.081
# Max RMSD: 0.157
# Mean RMSD: 0.091
data_MOF--net-rtl--node1-VOLQOD_clean_sbu_1--node2-VETTIZ_charged_linker_0--edge1-FUNLAD_clean_linker_1
_symmetry_space_group_name_H-M    P1
_symmetry_Int_Tables_number       1
_symmetry_cell_setting            triclinic
loop_
_symmetry_equiv_pos_as_xyz
'x, y, z'
_cell_length_a     45.958116
_cell_length_b     39.737058
_cell_length_c     30.044188
_cell_angle_alpha  89.925947
_cell_angle_beta   90.225405
_cell_angle_gamma 89.74957
loop_
_atom_site_label
_atom_site_type_symbol
_atom_site_fract_x
_atom_site_fract_y
_atom_site_fract_z
_atom_type_partial_charge
C0 C 0.1129 0.79285 0.8819 0.0
C1 C 0.08778 0.81336 0.87996 0.0
C2 C 0.06966 0.81542 0.91748 0.0
C3 C 0.1019 0.77846 0.95864 0.0
C4 C 0.11953 0.77568 0.92166 0.0
C5 C 0.14585 0.75384 0.93078 0.0
H6 H 0.22773 0.66688 0.08114 0.0
C7 C 0.11564 0.75966 0.99553 0.0
C8 C 0.14146 0.7451 0.97966 0.0
H9 H 0.24362 0.67931 0.94026 0.0
H10 H 0.1992 0.71123 0.93261 0.0
H11 H 0.20882 0.74063 0.09899 0.0
H12 H 0.15739 0.6527 0.07183 0.0
H13 H 0.14175 0.6743 0.11707 0.0
H14 H 0.17831 0.65825 0.12189 0.0
H15 H 0.20117 0.71016 0.14139 0.0
H16 H 0.17686 0.74501 0.13018 0.0
C17 C 0.17344 0.77531 0.92351 0.0
C18 C 0.14396 0.72236 0.90061 0.0
C19 C 0.07032 0.76589 0.14879 0.0
C20 C 0.08056 0.75708 0.1912 0.0
C21 C 0.10673 0.73875 0.19539 0.0
C22 C 0.1229 0.73009 0.15752 0.0
C23 C 0.11303 0.74046 0.11523 0.0
C24 C 0.08711 0.75804 0.11152 0.0
C25 C 0.08137 0.77008 0.06491 0.0
C26 C 0.10786 0.75632 0.04096 0.0
C27 C 0.12614 0.73869 0.07039 0.0
C28 C 0.08063 0.80922 0.06534 0.0
C29 C 0.05296 0.75337 0.04826 0.0
C30 C 0.22155 0.67634 0.04858 0.0
C31 C 0.23904 0.66994 0.01133 0.0
C32 C 0.23034 0.68296 0.96952 0.0
C33 C 0.20457 0.70183 0.96512 0.0
C34 C 0.18733 0.70793 0.00283 0.0
C35 C 0.19586 0.695 0.04361 0.0
C36 C 0.17494 0.7038 0.08013 0.0
C37 C 0.15217 0.7237 0.05451 0.0
C38 C 0.15964 0.72645 0.00929 0.0
C39 C 0.19113 0.72585 0.1148 0.0
C40 C 0.16244 0.67066 0.09916 0.0
H41 H 0.06168 0.80082 0.98383 0.0
H42 H 0.12759 0.79098 0.85396 0.0
H43 H 0.12095 0.71447 0.89584 0.0
H44 H 0.15493 0.70014 0.91523 0.0
H45 H 0.15322 0.72745 0.86719 0.0
H46 H 0.17047 0.80091 0.93778 0.0
H47 H 0.17816 0.77822 0.88747 0.0
H48 H 0.1929 0.76488 0.94018 0.0
H49 H 0.05058 0.78067 0.14492 0.0
H50 H 0.11489 0.73167 0.22797 0.0
H51 H 0.14282 0.71644 0.16273 0.0
H52 H 0.09304 0.81964 0.09404 0.0
H53 H 0.058 0.81892 0.06775 0.0
H54 H 0.09119 0.82044 0.03586 0.0
H55 H 0.0519 0.72667 0.05934 0.0
H56 H 0.05134 0.75241 0.01159 0.0
H57 H 0.03351 0.76659 0.0616 0.0
H58 H 0.05019 0.83091 0.91669 0.0
C59 C 0.07641 0.79795 0.95653 0.0
C60 C 0.59936 0.7407 0.64843 0.0
C61 C 0.57399 0.7217 0.65477 0.0
C62 C 0.55448 0.71779 0.61868 0.0
C63 C 0.58795 0.74676 0.56994 0.0
C64 C 0.60587 0.75298 0.60595 0.0
C65 C 0.63254 0.77246 0.59309 0.0
H66 H 0.7204 0.83188 0.43166 0.0
C67 C 0.60228 0.75996 0.52971 0.0
C68 C 0.62819 0.77556 0.54309 0.0
H69 H 0.73126 0.83903 0.57445 0.0
H70 H 0.68477 0.81313 0.58546 0.0
H71 H 0.69434 0.75666 0.43184 0.0
H72 H 0.65263 0.85398 0.43024 0.0
H73 H 0.63263 0.82764 0.39465 0.0
H74 H 0.67014 0.83685 0.38196 0.0
H75 H 0.6953 0.78415 0.3844 0.0
H76 H 0.66574 0.75531 0.39294 0.0
C77 C 0.65962 0.75083 0.60499 0.0
C78 C 0.63141 0.80719 0.61658 0.0
C79 C 0.56264 0.72839 0.37772 0.0
C80 C 0.57331 0.73249 0.33438 0.0
C81 C 0.59803 0.75283 0.32763 0.0
C82 C 0.61277 0.76715 0.36388 0.0
C83 C 0.60281 0.76101 0.40731 0.0
C84 C 0.57777 0.74252 0.41355 0.0
C85 C 0.57055 0.73804 0.46192 0.0
C86 C 0.59561 0.75659 0.48378 0.0
C87 C 0.61455 0.76981 0.45166 0.0
C88 C 0.57127 0.69981 0.47231 0.0
C89 C 0.54089 0.75539 0.47109 0.0
C90 C 0.71259 0.82798 0.46525 0.0
C91 C 0.72936 0.83804 0.50205 0.0
C92 C 0.71857 0.83246 0.54535 0.0
C93 C 0.6916 0.81702 0.55177 0.0
C94 C 0.67528 0.80669 0.51467 0.0
C95 C 0.68557 0.81271 0.47228 0.0
C96 C 0.66491 0.80045 0.4369 0.0
C97 C 0.64057 0.78611 0.46517 0.0
C98 C 0.64707 0.78938 0.51066 0.0
C99 C 0.68073 0.77283 0.40969 0.0
C100 C 0.65456 0.83112 0.40908 0.0
H101 H 0.54604 0.72573 0.5501 0.0
H102 H 0.61441 0.74489 0.6757 0.0
H103 H 0.60866 0.81486 0.62423 0.0
H104 H 0.63984 0.82771 0.59535 0.0
H105 H 0.64369 0.80674 0.64849 0.0
H106 H 0.65611 0.72411 0.59543 0.0
H107 H 0.66411 0.75152 0.64133 0.0
H108 H 0.67945 0.75859 0.58727 0.0
H109 H 0.54357 0.71315 0.38385 0.0
H110 H 0.60624 0.75749 0.2945 0.0
H111 H 0.6317 0.78188 0.35674 0.0
H112 H 0.5902 0.68757 0.45583 0.0
H113 H 0.55122 0.68732 0.46 0.0
H114 H 0.57384 0.69401 0.50795 0.0
H115 H 0.53687 0.7766 0.44761 0.0
H116 H 0.53996 0.76701 0.50451 0.0
H117 H 0.5226 0.73742 0.46737 0.0
H118 H 0.53402 0.70485 0.62248 0.0
C119 C 0.56138 0.73021 0.5764 0.0
C120 C 0.89067 0.23564 0.14928 0.0
C121 C 0.90786 0.20657 0.15433 0.0
C122 C 0.92053 0.19191 0.11619 0.0
C123 C 0.89893 0.23513 0.06952 0.0
C124 C 0.88656 0.24949 0.1068 0.0
C125 C 0.86847 0.28 0.09553 0.0
H126 H 0.80056 0.3746 0.93965 0.0
C127 C 0.88967 0.25498 0.0303 0.0
C128 C 0.87193 0.2814 0.04525 0.0
H129 H 0.79784 0.38521 0.08269 0.0
H130 H 0.83443 0.34194 0.09087 0.0
H131 H 0.86998 0.37166 0.93709 0.0
H132 H 0.80692 0.29174 0.93297 0.0
H133 H 0.83252 0.28704 0.88948 0.0
H134 H 0.81007 0.32403 0.89131 0.0
H135 H 0.85243 0.35985 0.88608 0.0
H136 H 0.88524 0.33909 0.90526 0.0
C137 C 0.88211 0.31105 0.11874 0.0
C138 C 0.8367 0.27259 0.10938 0.0
C139 C 0.92132 0.21797 0.87643 0.0
C140 C 0.91691 0.23132 0.83361 0.0
C141 C 0.90035 0.26099 0.8286 0.0
C142 C 0.8875 0.27656 0.86569 0.0
C143 C 0.89177 0.2626 0.90829 0.0
C144 C 0.90886 0.2341 0.91307 0.0
C145 C 0.9125 0.22376 0.96085 0.0
C146 C 0.89486 0.25078 0.98412 0.0
C147 C 0.88232 0.27316 0.95322 0.0
C148 C 0.94529 0.22577 0.97295 0.0
C149 C 0.8989 0.18837 0.96651 0.0
C150 C 0.80777 0.36727 0.97264 0.0
C151 C 0.79578 0.38244 0.01078 0.0
C152 C 0.80657 0.37348 0.05303 0.0
C153 C 0.82764 0.34821 0.0577 0.0
C154 C 0.83829 0.33191 0.01963 0.0
C155 C 0.82928 0.34236 0.97787 0.0
C156 C 0.84522 0.32407 0.94132 0.0
C157 C 0.86371 0.29946 0.9682 0.0
C158 C 0.85912 0.30392 0.01402 0.0
C159 C 0.86411 0.34984 0.91574 0.0
C160 C 0.82261 0.30576 0.9119 0.0
H161 H 0.92636 0.19365 0.0464 0.0
H162 H 0.88049 0.24732 0.17787 0.0
H163 H 0.83039 0.2467 0.09924 0.0
H164 H 0.82059 0.28938 0.0935 0.0
H165 H 0.83415 0.27444 0.14606 0.0
H166 H 0.90582 0.3074 0.12481 0.0
H167 H 0.87174 0.31597 0.15144 0.0
H168 H 0.8807 0.33405 0.09799 0.0
H169 H 0.93475 0.19581 0.88152 0.0
H170 H 0.89702 0.27183 0.79586 0.0
H171 H 0.87473 0.2988 0.85983 0.0
H172 H 0.95603 0.24666 0.95469 0.0
H173 H 0.95683 0.20208 0.96418 0.0
H174 H 0.94916 0.23143 0.00847 0.0
H175 H 0.87935 0.1855 0.94488 0.0
H176 H 0.89094 0.18359 0.00055 0.0
H177 H 0.91462 0.16827 0.95726 0.0
H178 H 0.93315 0.16893 0.11841 0.0
C179 C 0.91627 0.20613 0.074 0.0
C180 C 0.38812 0.28443 0.37063 0.0
C181 C 0.41073 0.30802 0.36752 0.0
C182 C 0.42832 0.31412 0.40525 0.0
C183 C 0.40032 0.27424 0.4482 0.0
C184 C 0.38349 0.26761 0.41106 0.0
C185 C 0.3604 0.24176 0.4204 0.0
H186 H 0.29132 0.1432 0.57092 0.0
C187 C 0.38902 0.25409 0.48556 0.0
C188 C 0.36583 0.23464 0.46948 0.0
H189 H 0.27235 0.15376 0.43055 0.0
H190 H 0.31287 0.19172 0.4223 0.0
H191 H 0.36351 0.1411 0.56171 0.0
H192 H 0.29888 0.21649 0.58899 0.0
H193 H 0.32996 0.22972 0.61785 0.0
H194 H 0.3133 0.19012 0.63227 0.0
H195 H 0.34223 0.14274 0.61167 0.0
H196 H 0.37591 0.16547 0.60689 0.0
C197 C 0.36652 0.21049 0.39114 0.0
C198 C 0.33027 0.25832 0.41224 0.0
C199 C 0.42697 0.27532 0.64171 0.0
C200 C 0.4176 0.26431 0.68378 0.0
C201 C 0.39633 0.23908 0.68643 0.0
C202 C 0.38402 0.22546 0.64777 0.0
C203 C 0.39255 0.23787 0.60598 0.0
C204 C 0.41401 0.26202 0.60343 0.0
C205 C 0.41895 0.27385 0.55652 0.0
C206 C 0.39655 0.25321 0.53141 0.0
C207 C 0.38127 0.23217 0.56054 0.0
C208 C 0.45045 0.26429 0.54316 0.0
C209 C 0.41208 0.31211 0.55456 0.0
C210 C 0.29613 0.15341 0.53831 0.0
C211 C 0.2784 0.14593 0.50164 0.0
C212 C 0.28523 0.15979 0.45968 0.0
C213 C 0.30889 0.1817 0.45489 0.0
C214 C 0.32577 0.18997 0.49241 0.0
C215 C 0.31937 0.17561 0.53312 0.0
C216 C 0.33869 0.18822 0.56981 0.0
C217 C 0.3582 0.21201 0.5443 0.0
C218 C 0.35056 0.21308 0.499 0.0
C219 C 0.35597 0.15791 0.58896 0.0
C220 C 0.31941 0.20694 0.6043 0.0
H221 H 0.43725 0.30332 0.47288 0.0
H222 H 0.37425 0.27929 0.34222 0.0
H223 H 0.33009 0.28475 0.42443 0.0
H224 H 0.31252 0.24579 0.43033 0.0
H225 H 0.32482 0.25881 0.37619 0.0
H226 H 0.39034 0.20619 0.38753 0.0
H227 H 0.3572 0.21372 0.35723 0.0
H228 H 0.35815 0.18698 0.40582 0.0
H229 H 0.44258 0.29549 0.63846 0.0
H230 H 0.3887 0.23051 0.71857 0.0
H231 H 0.36764 0.20661 0.65201 0.0
H232 H 0.45752 0.24053 0.55967 0.0
H233 H 0.46607 0.28424 0.55296 0.0
H234 H 0.45264 0.2592 0.50715 0.0
H235 H 0.39342 0.31851 0.57652 0.0
H236 H 0.40533 0.32089 0.52125 0.0
H237 H 0.43104 0.32717 0.56578 0.0
H238 H 0.4454 0.33277 0.40448 0.0
C239 C 0.42334 0.29723 0.44534 0.0
O240 O 0.93058 0.99538 0.50341 0.0
Zn241 Zn 0.96578 0.02511 0.50315 0.0
O242 O 0.00172 0.99853 0.50527 0.0
Zn243 Zn 0.02506 0.01181 0.55748 0.0
Zn244 Zn 0.99201 0.9506 0.50808 0.0
Zn245 Zn 0.02386 0.00658 0.45109 0.0
O246 O 0.06415 0.03053 0.53881 0.0
O247 O 0.06271 0.02623 0.46507 0.0
O248 O 0.96257 0.0549 0.55678 0.0
O249 O 0.0042 0.04768 0.59373 0.0
O250 O 0.03263 0.9713 0.59718 0.0
O251 O 0.00934 0.9296 0.56299 0.0
O252 O 0.00813 0.92485 0.4559 0.0
O253 O 0.96368 0.05425 0.44801 0.0
O254 O 0.03108 0.96403 0.41689 0.0
O255 O 0.00341 0.03933 0.41086 0.0
C256 C 0.92706 0.96372 0.50585 0.0
C257 C 0.0758 0.03442 0.50072 0.0
C258 C 0.02498 0.94052 0.59484 0.0
C259 C 0.97936 0.06176 0.58923 0.0
C260 C 0.02341 0.93365 0.42267 0.0
C261 C 0.98016 0.05658 0.41416 0.0
O262 O 0.9486 0.9435 0.50837 0.0
O263 O 0.5794 0.49844 0.9952 0.0
Zn264 Zn 0.54224 0.52606 0.9946 0.0
O265 O 0.5076 0.49795 0.00156 0.0
Zn266 Zn 0.4838 0.50023 0.94766 0.0
Zn267 Zn 0.52017 0.45151 0.01128 0.0
Zn268 Zn 0.48423 0.51353 0.05214 0.0
O269 O 0.44411 0.51934 0.95997 0.0
O270 O 0.44517 0.53212 0.03193 0.0
O271 O 0.54076 0.552 0.93698 0.0
O272 O 0.50175 0.53127 0.90286 0.0
O273 O 0.47941 0.4548 0.91915 0.0
O274 O 0.50619 0.42127 0.96227 0.0
O275 O 0.50444 0.43353 0.06879 0.0
O276 O 0.54501 0.55926 0.04469 0.0
O277 O 0.47703 0.47521 0.09525 0.0
O278 O 0.50526 0.55056 0.08515 0.0
C279 C 0.58426 0.46745 0.00339 0.0
C280 C 0.4322 0.53183 0.99435 0.0
C281 C 0.48998 0.42595 0.92846 0.0
C282 C 0.52364 0.55071 0.90359 0.0
C283 C 0.48708 0.4453 0.0978 0.0
C284 C 0.52899 0.56612 0.07793 0.0
O285 O 0.56367 0.44713 0.01153 0.0
H286 H 0.25295 0.10723 0.53711 0.0
C287 C 0.25263 0.12439 0.50885 0.0
H288 H 0.22592 0.14679 0.45949 0.0
H289 H 0.15287 0.00772 0.51004 0.0
H290 H 0.19267 0.97737 0.47519 0.0
H291 H 0.23649 0.00732 0.44973 0.0
H292 H 0.24094 0.06768 0.45948 0.0
C293 C 0.22789 0.12779 0.48535 0.0
C294 C 0.20117 0.10961 0.49889 0.0
C295 C 0.19872 0.07446 0.4919 0.0
C296 C 0.17303 0.05739 0.50508 0.0
C297 C 0.1715 0.02209 0.49922 0.0
C298 C 0.19426 0.00434 0.47955 0.0
C299 C 0.21897 0.02119 0.46534 0.0
C300 C 0.22129 0.05584 0.47132 0.0
H301 H 0.11361 0.05217 0.46308 0.0
C302 C 0.10501 0.04905 0.49652 0.0
H303 H 0.11265 0.05734 0.56509 0.0
H304 H 0.19974 0.17673 0.51954 0.0
H305 H 0.15985 0.20697 0.55414 0.0
H306 H 0.11473 0.17759 0.57506 0.0
H307 H 0.1093 0.11774 0.56177 0.0
C308 C 0.12105 0.05906 0.53141 0.0
C309 C 0.14951 0.07572 0.52378 0.0
C310 C 0.15232 0.11065 0.53195 0.0
C311 C 0.17819 0.12764 0.51943 0.0
C312 C 0.18045 0.16259 0.52797 0.0
C313 C 0.15773 0.18027 0.54787 0.0
C314 C 0.13234 0.16373 0.55967 0.0
C315 C 0.12952 0.12935 0.55183 0.0
H316 H 0.27536 0.64931 0.05161 0.0
C317 C 0.26653 0.65068 0.01799 0.0
H318 H 0.27239 0.63416 0.95154 0.0
H319 H 0.40864 0.61555 0.97628 0.0
H320 H 0.40688 0.66536 0.9297 0.0
H321 H 0.3601 0.6931 0.91212 0.0
H322 H 0.3148 0.67126 0.94123 0.0
C323 C 0.28045 0.63392 0.98552 0.0
C324 C 0.30837 0.61595 0.99465 0.0
C325 C 0.33459 0.62862 0.97662 0.0
C326 C 0.36152 0.61232 0.98622 0.0
C327 C 0.38748 0.62633 0.96911 0.0
C328 C 0.38682 0.65508 0.94255 0.0
C329 C 0.36049 0.67072 0.9327 0.0
C330 C 0.33463 0.65786 0.94957 0.0
H331 H 0.39323 0.54691 0.9562 0.0
C332 C 0.40335 0.54779 0.98897 0.0
H333 H 0.39941 0.56585 0.05491 0.0
H334 H 0.26185 0.5833 0.03151 0.0
H335 H 0.26368 0.53362 0.07839 0.0
H336 H 0.31051 0.50608 0.09622 0.0
H337 H 0.35582 0.52797 0.067 0.0
C338 C 0.39008 0.56495 0.02166 0.0
C339 C 0.3621 0.58295 0.01314 0.0
C340 C 0.33592 0.57035 0.03133 0.0
C341 C 0.30896 0.58661 0.02168 0.0
C342 C 0.28302 0.57259 0.03878 0.0
C343 C 0.28373 0.54392 0.0655 0.0
C344 C 0.31009 0.52838 0.07549 0.0
C345 C 0.33594 0.54123 0.05855 0.0
H346 H 0.77019 0.84516 0.46452 0.0
C347 C 0.75862 0.85246 0.49454 0.0
H348 H 0.76 0.88231 0.55276 0.0
H349 H 0.8956 0.88364 0.57545 0.0
H350 H 0.881 0.84935 0.63818 0.0
H351 H 0.83022 0.83045 0.64593 0.0
H352 H 0.79368 0.84602 0.59122 0.0
C353 C 0.77123 0.87412 0.52293 0.0
C354 C 0.80187 0.88508 0.51704 0.0
C355 C 0.82307 0.8753 0.54902 0.0
C356 C 0.85245 0.88564 0.54412 0.0
C357 C 0.87304 0.87612 0.57711 0.0
C358 C 0.86496 0.85645 0.61338 0.0
C359 C 0.83636 0.84586 0.61777 0.0
C360 C 0.81558 0.85506 0.58611 0.0
H361 H 0.87937 0.96877 0.50895 0.0
C362 C 0.89712 0.95069 0.50636 0.0
H363 H 0.90857 0.89927 0.50189 0.0
H364 H 0.76619 0.91133 0.45216 0.0
H365 H 0.78124 0.94304 0.3873 0.0
H366 H 0.83298 0.95642 0.37515 0.0
H367 H 0.86984 0.93883 0.42836 0.0
C368 C 0.89109 0.91772 0.50362 0.0
C369 C 0.86064 0.90547 0.50701 0.0
C370 C 0.83961 0.91439 0.47427 0.0
C371 C 0.81002 0.90503 0.47998 0.0
C372 C 0.78915 0.91635 0.44846 0.0
C373 C 0.79747 0.9348 0.4112 0.0
C374 C 0.82657 0.94246 0.40446 0.0
C375 C 0.84749 0.93243 0.43547 0.0
H376 H 0.76992 0.42615 0.03333 0.0
C377 C 0.77118 0.4065 0.00823 0.0
H378 H 0.74839 0.38096 0.95735 0.0
H379 H 0.64535 0.45541 0.07868 0.0
H380 H 0.66253 0.42038 0.13957 0.0
H381 H 0.70522 0.38325 0.13019 0.0
H382 H 0.73147 0.38182 0.06063 0.0
C383 C 0.74802 0.40108 0.9818 0.0
C384 C 0.72064 0.421 0.98659 0.0
C385 C 0.70443 0.41969 0.02676 0.0
C386 C 0.6785 0.43906 0.0311 0.0
C387 C 0.66415 0.4396 0.07275 0.0
C388 C 0.67392 0.41984 0.10811 0.0
C389 C 0.69804 0.3991 0.10291 0.0
C390 C 0.71313 0.39883 0.0628 0.0
H391 H 0.61687 0.42693 0.00759 0.0
C392 C 0.61417 0.45389 0.00265 0.0
H393 H 0.6356 0.49982 0.98985 0.0
H394 H 0.74676 0.42992 0.90581 0.0
H395 H 0.72809 0.46283 0.8438 0.0
H396 H 0.68132 0.4932 0.84959 0.0
H397 H 0.65308 0.49116 0.91751 0.0
C398 C 0.63784 0.473 0.99608 0.0
C399 C 0.66737 0.4573 0.99409 0.0
C400 C 0.68356 0.45869 0.95404 0.0
C401 C 0.71031 0.44069 0.95041 0.0
C402 C 0.72615 0.44275 0.91017 0.0
C403 C 0.71571 0.46159 0.87433 0.0
C404 C 0.68939 0.47871 0.87761 0.0
C405 C 0.67339 0.47734 0.91686 0.0
H406 H 0.04133 0.77168 0.22881 0.0
C407 C 0.06496 0.77041 0.23027 0.0
H408 H 0.10273 0.78771 0.26316 0.0
H409 H 0.99969 0.89826 0.31777 0.0
H410 H 0.99683 0.91089 0.23887 0.0
H411 H 0.02614 0.87882 0.18478 0.0
H412 H 0.05751 0.83334 0.20901 0.0
C413 C 0.07909 0.78759 0.2621 0.0
C414 C 0.06325 0.80902 0.29468 0.0
C415 C 0.0466 0.83716 0.27989 0.0
C416 C 0.03157 0.85743 0.31129 0.0
C417 C 0.01299 0.88342 0.29551 0.0
C418 C 0.01094 0.89075 0.25028 0.0
C419 C 0.0273 0.87257 0.21983 0.0
C420 C 0.04501 0.84617 0.23424 0.0
H421 H 0.04833 0.91651 0.36459 0.0
C422 C 0.03317 0.90839 0.39012 0.0
H423 H 0.00939 0.86754 0.41634 0.0
H424 H 0.09233 0.75651 0.33384 0.0
H425 H 0.09702 0.74578 0.41309 0.0
H426 H 0.07396 0.78355 0.46782 0.0
H427 H 0.04581 0.83203 0.44372 0.0
C428 C 0.02407 0.87628 0.39057 0.0
C429 C 0.03543 0.85161 0.35755 0.0
C430 C 0.05189 0.82343 0.37232 0.0
C431 C 0.06563 0.80198 0.3408 0.0
C432 C 0.08175 0.77385 0.35638 0.0
C433 C 0.08459 0.76737 0.40177 0.0
C434 C 0.07158 0.78862 0.43258 0.0
C435 C 0.05544 0.81638 0.41825 0.0
H436 H 0.58391 0.71219 0.72588 0.0
C437 C 0.56962 0.70503 0.69856 0.0
H438 H 0.53808 0.66957 0.67782 0.0
H439 H 0.57398 0.5549 0.80923 0.0
H440 H 0.59006 0.53219 0.73856 0.0
H441 H 0.5893 0.56718 0.67069 0.0
H442 H 0.57255 0.62503 0.67309 0.0
C443 C 0.55127 0.67921 0.70488 0.0
C444 C 0.55219 0.65882 0.74637 0.0
C445 C 0.56195 0.62494 0.74422 0.0
C446 C 0.56217 0.60467 0.78319 0.0
C447 C 0.57266 0.57116 0.78038 0.0
C448 C 0.58217 0.55787 0.74009 0.0
C449 C 0.58176 0.57757 0.70189 0.0
C450 C 0.57194 0.61075 0.70375 0.0
H451 H 0.51447 0.56916 0.83588 0.0
C452 C 0.52865 0.57235 0.86463 0.0
H453 H 0.56301 0.60076 0.89258 0.0
H454 H 0.53117 0.72246 0.76187 0.0
H455 H 0.51635 0.74539 0.83303 0.0
H456 H 0.51805 0.71054 0.90102 0.0
H457 H 0.53441 0.65245 0.89813 0.0
C458 C 0.54934 0.59608 0.86368 0.0
C459 C 0.55231 0.6182 0.82408 0.0
C460 C 0.54358 0.65239 0.82664 0.0
C461 C 0.54314 0.67266 0.78759 0.0
C462 C 0.53282 0.70621 0.79066 0.0
C463 C 0.52403 0.71963 0.83128 0.0
C464 C 0.52494 0.7 0.86955 0.0
C465 C 0.53441 0.6667 0.86742 0.0
H466 H 0.8948 0.19771 0.2243 0.0
C467 C 0.91091 0.19126 0.19925 0.0
H468 H 0.95032 0.16493 0.18765 0.0
H469 H 0.98527 0.14758 0.38864 0.0
H470 H 0.01674 0.19401 0.36826 0.0
H471 H 0.01081 0.22288 0.29601 0.0
H472 H 0.97329 0.20562 0.2438 0.0
C473 C 0.93258 0.17002 0.2104 0.0
C474 C 0.93438 0.15443 0.25529 0.0
C475 C 0.9565 0.16471 0.2852 0.0
C476 C 0.96017 0.14781 0.32656 0.0
C477 C 0.98205 0.15902 0.35629 0.0
C478 C 0.00012 0.18578 0.34514 0.0
C479 C 0.99676 0.20205 0.30447 0.0
C480 C 0.9752 0.19182 0.27476 0.0
H481 H 0.98739 0.08041 0.3491 0.0
C482 C 0.97268 0.07956 0.37736 0.0
H483 H 0.93317 0.09796 0.40412 0.0
H484 H 0.88938 0.12861 0.20579 0.0
H485 H 0.85713 0.08342 0.22736 0.0
H486 H 0.86306 0.05479 0.29976 0.0
H487 H 0.90144 0.07113 0.35092 0.0
C488 C 0.94873 0.09903 0.37703 0.0
C489 C 0.94201 0.12029 0.33751 0.0
C490 C 0.91884 0.11123 0.30874 0.0
C491 C 0.91518 0.12808 0.2673 0.0
C492 C 0.89279 0.1173 0.23814 0.0
C493 C 0.87419 0.09123 0.25001 0.0
C494 C 0.87755 0.07508 0.29074 0.0
C495 C 0.89966 0.08473 0.3198 0.0
H496 H 0.41031 0.28556 0.75049 0.0
C497 C 0.4266 0.28206 0.72473 0.0
H498 H 0.46956 0.2923 0.70453 0.0
H499 H 0.47714 0.43329 0.79784 0.0
H500 H 0.48382 0.4472 0.72012 0.0
H501 H 0.47826 0.40397 0.66192 0.0
H502 H 0.46648 0.34656 0.68116 0.0
C503 C 0.45297 0.29603 0.72972 0.0
C504 C 0.45834 0.32119 0.7654 0.0
C505 C 0.46481 0.35486 0.75334 0.0
C506 C 0.46716 0.38 0.78674 0.0
C507 C 0.4744 0.41327 0.77386 0.0
C508 C 0.4784 0.42164 0.72929 0.0
C509 C 0.47532 0.3973 0.69656 0.0
C510 C 0.46859 0.36432 0.70818 0.0
H511 H 0.49872 0.37534 0.90167 0.0
C512 C 0.48486 0.39746 0.89826 0.0
H513 H 0.45081 0.42071 0.8623 0.0
H514 H 0.4514 0.25811 0.80057 0.0
H515 H 0.44219 0.24448 0.87801 0.0
H516 H 0.44019 0.28916 0.93489 0.0
H517 H 0.44828 0.34747 0.91493 0.0
C518 C 0.46443 0.39847 0.86627 0.0
C519 C 0.46232 0.37161 0.83201 0.0
C520 C 0.45581 0.33792 0.84407 0.0
C521 C 0.45496 0.31247 0.81089 0.0
C522 C 0.4507 0.27865 0.82415 0.0
C523 C 0.44562 0.27045 0.86852 0.0
C524 C 0.44465 0.29558 0.90057 0.0
C525 C 0.4496 0.32895 0.88868 0.0
H526 H 0.53712 0.70431 0.30341 0.0
C527 C 0.55903 0.71364 0.29779 0.0
H528 H 0.59584 0.70997 0.25598 0.0
H529 H 0.56124 0.56608 0.18651 0.0
H530 H 0.60219 0.55291 0.23462 0.0
H531 H 0.62445 0.59668 0.28172 0.0
H532 H 0.60582 0.65381 0.28109 0.0
C533 C 0.57315 0.70359 0.26101 0.0
C534 C 0.56019 0.6779 0.23107 0.0
C535 C 0.57174 0.64474 0.23129 0.0
C536 C 0.55916 0.61961 0.20377 0.0
C537 C 0.57045 0.5864 0.20582 0.0
C538 C 0.59383 0.57841 0.23356 0.0
C539 C 0.60634 0.60304 0.2601 0.0
C540 C 0.59546 0.6358 0.25928 0.0
H541 H 0.5603 0.60335 0.10313 0.0
C542 C 0.53906 0.59225 0.10902 0.0
H543 H 0.50186 0.59243 0.15035 0.0
H544 H 0.53363 0.73931 0.22138 0.0
H545 H 0.49224 0.75227 0.17385 0.0
H546 H 0.47006 0.70845 0.12671 0.0
H547 H 0.48921 0.6514 0.12669 0.0
C548 C 0.52352 0.60226 0.14439 0.0
C549 C 0.5354 0.62787 0.17546 0.0
C550 C 0.52357 0.66085 0.17575 0.0
C551 C 0.53612 0.68601 0.20335 0.0
C552 C 0.52452 0.71906 0.20184 0.0
C553 C 0.50087 0.72688 0.17451 0.0
C554 C 0.4884 0.70221 0.14792 0.0
C555 C 0.49959 0.66957 0.14826 0.0
H556 H 0.93966 0.23094 0.7687 0.0
C557 C 0.93027 0.21504 0.7943 0.0
H558 H 0.92063 0.1657 0.81491 0.0
H559 H 0.96105 0.15022 0.60128 0.0
H560 H 0.92322 0.19069 0.5827 0.0
H561 H 0.89379 0.21725 0.64162 0.0
H562 H 0.90283 0.20461 0.71927 0.0
C563 C 0.93052 0.18137 0.78949 0.0
C564 C 0.94632 0.16389 0.75282 0.0
C565 C 0.9391 0.16977 0.70745 0.0
C566 C 0.95427 0.15222 0.67332 0.0
C567 C 0.94876 0.16106 0.62838 0.0
C568 C 0.92731 0.1845 0.61727 0.0
C569 C 0.91088 0.1996 0.65044 0.0
C570 C 0.91655 0.19237 0.69503 0.0
H571 H 0.94528 0.08924 0.62534 0.0
C572 C 0.96869 0.08565 0.62295 0.0
H573 H 0.00985 0.10017 0.64712 0.0
H574 H 0.96784 0.14897 0.83587 0.0
H575 H 0.0039 0.10651 0.85409 0.0
H576 H 0.02641 0.07198 0.79531 0.0
H577 H 0.01339 0.08011 0.71794 0.0
C578 C 0.98643 0.10352 0.64948 0.0
C579 C 0.97443 0.12631 0.68454 0.0
C580 C 0.98195 0.12078 0.7298 0.0
C581 C 0.96825 0.13997 0.76385 0.0
C582 C 0.97687 0.13455 0.80867 0.0
C583 C 0.99767 0.11032 0.81966 0.0
C584 C 0.01039 0.09094 0.78656 0.0
C585 C 0.0027 0.09595 0.74216 0.0
H586 H 0.39538 0.33182 0.30493 0.0
C587 C 0.41445 0.32748 0.32574 0.0
H588 H 0.45969 0.33555 0.33273 0.0
H589 H 0.43405 0.38024 0.12212 0.0
H590 H 0.41977 0.32232 0.10961 0.0
H591 H 0.41721 0.28207 0.17204 0.0
H592 H 0.42824 0.29969 0.24741 0.0
C593 C 0.44023 0.34004 0.31295 0.0
C594 C 0.44283 0.3634 0.27444 0.0
C595 C 0.43752 0.35218 0.23036 0.0
C596 C 0.44058 0.37488 0.19404 0.0
C597 C 0.43343 0.36364 0.15065 0.0
C598 C 0.42498 0.33052 0.14304 0.0
C599 C 0.42342 0.3079 0.17821 0.0
C600 C 0.42963 0.31843 0.2214 0.0
H601 H 0.49049 0.39952 0.13886 0.0
C602 C 0.4788 0.42322 0.13506 0.0
H603 H 0.44567 0.4546 0.16071 0.0
H604 H 0.45295 0.39362 0.35498 0.0
H605 H 0.46854 0.45107 0.3671 0.0
H606 H 0.47642 0.48949 0.30377 0.0
H607 H 0.4685 0.47077 0.22798 0.0
C608 C 0.45732 0.43083 0.16354 0.0
C609 C 0.45057 0.40816 0.20163 0.0
C610 C 0.45543 0.4195 0.24572 0.0
C611 C 0.45141 0.39716 0.28216 0.0
C612 C 0.45612 0.40929 0.32594 0.0
C613 C 0.46501 0.44228 0.33343 0.0
C614 C 0.46941 0.46391 0.29779 0.0
C615 C 0.46474 0.45281 0.2544 0.0
H616 H 0.06552 0.85566 0.84657 0.0
C617 C 0.08003 0.83439 0.8408 0.0
H618 H 0.10262 0.80709 0.79107 0.0
H619 H 0.99952 0.90533 0.69699 0.0
H620 H 0.96507 0.86888 0.73387 0.0
H621 H 0.98202 0.8222 0.78173 0.0
H622 H 0.03356 0.81245 0.79399 0.0
C623 C 0.0883 0.82805 0.79878 0.0
C624 C 0.07839 0.8506 0.76192 0.0
C625 C 0.04826 0.85442 0.75254 0.0
C626 C 0.03856 0.87979 0.72247 0.0
C627 C 0.00823 0.88515 0.71725 0.0
C628 C 0.98816 0.86459 0.73861 0.0
C629 C 0.99768 0.83844 0.76573 0.0
C630 C 0.02734 0.8333 0.77276 0.0
H631 H 0.02906 0.88987 0.62406 0.0
C632 C 0.03456 0.91619 0.62905 0.0
H633 H 0.05576 0.95118 0.67075 0.0
H634 H 0.13769 0.84843 0.77024 0.0
H635 H 0.17243 0.88207 0.72923 0.0
H636 H 0.15585 0.92351 0.67334 0.0
H637 H 0.10444 0.93188 0.65844 0.0
C638 C 0.04936 0.92516 0.66579 0.0
C639 C 0.05916 0.89952 0.69899 0.0
C640 C 0.08935 0.89453 0.70675 0.0
C641 C 0.09896 0.87019 0.73843 0.0
C642 C 0.1292 0.86632 0.74626 0.0
C643 C 0.14939 0.88546 0.72294 0.0
C644 C 0.14006 0.90881 0.6915 0.0
C645 C 0.11044 0.9134 0.68334 0.0
loop_
_geom_bond_atom_site_label_1
_geom_bond_atom_site_label_2
_geom_bond_distance
_geom_bond_site_symmetry_2
_ccdc_geom_bond_type
C0 C1 1.391 . S
C0 C4 1.391 . S
C0 H42 0.948 . S
C1 C0 1.391 . S
C1 C2 1.391 . S
C2 C1 1.391 . S
C2 H58 0.947 . S
C2 C59 1.392 . S
C3 C4 1.391 . S
C3 C7 1.397 . S
C3 C59 1.419 . S
C4 C0 1.391 . S
C4 C3 1.391 . S
C4 C5 1.399 . S
C5 C4 1.399 . S
C5 C8 1.396 . S
C5 C17 1.453 . S
C5 C18 1.684 . S
H6 C30 0.948 . S
C7 C3 1.397 . S
C7 C8 1.394 . S
C7 C26 1.723 1_556 S
C8 C5 1.396 . S
C8 C7 1.394 . S
C8 C38 1.723 1_556 S
H9 C32 0.947 . S
H10 C33 0.948 . S
H11 C39 0.982 . S
H12 C40 0.979 . S
H13 C40 0.980 . S
H14 C40 0.983 . S
H15 C39 0.979 . S
H16 C39 0.977 . S
C17 C5 1.453 . S
C17 H46 0.982 . S
C17 H47 0.979 . S
C17 H48 0.977 . S
C18 C5 1.684 . S
C18 H43 0.979 . S
C18 H44 0.980 . S
C18 H45 0.983 . S
C19 C20 1.391 . S
C19 C24 1.391 . S
C19 H49 0.948 . S
C20 C19 1.391 . S
C20 C21 1.391 . S
C21 C20 1.391 . S
C21 C22 1.392 . S
C21 H50 0.947 . S
C22 C21 1.392 . S
C22 C23 1.419 . S
C22 H51 0.948 . S
C23 C22 1.419 . S
C23 C24 1.391 . S
C23 C27 1.397 . S
C24 C19 1.391 . S
C24 C23 1.391 . S
C24 C25 1.399 . S
C25 C24 1.399 . S
C25 C26 1.396 . S
C25 C28 1.453 . S
C25 C29 1.684 . S
C26 C7 1.723 1_554 S
C26 C25 1.396 . S
C26 C27 1.394 . S
C27 C23 1.397 . S
C27 C26 1.394 . S
C27 C37 1.723 . S
C28 C25 1.453 . S
C28 H52 0.982 . S
C28 H53 0.979 . S
C28 H54 0.977 . S
C29 C25 1.684 . S
C29 H55 0.979 . S
C29 H56 0.980 . S
C29 H57 0.983 . S
C30 H6 0.948 . S
C30 C31 1.391 . S
C30 C35 1.391 . S
C31 C30 1.391 . S
C31 C32 1.391 1_554 S
C32 H9 0.947 . S
C32 C31 1.391 1_556 S
C32 C33 1.392 . S
C33 H10 0.948 . S
C33 C32 1.392 . S
C33 C34 1.419 . S
C34 C33 1.419 . S
C34 C35 1.391 1_556 S
C34 C38 1.397 1_556 S
C35 C30 1.391 . S
C35 C34 1.391 1_554 S
C35 C36 1.399 . S
C36 C35 1.399 . S
C36 C37 1.396 . S
C36 C39 1.453 . S
C36 C40 1.684 . S
C37 C27 1.723 . S
C37 C36 1.396 . S
C37 C38 1.394 . S
C38 C8 1.723 1_554 S
C38 C34 1.397 1_554 S
C38 C37 1.394 . S
C39 H11 0.982 . S
C39 H15 0.979 . S
C39 H16 0.977 . S
C39 C36 1.453 . S
C40 H12 0.979 . S
C40 H13 0.980 . S
C40 H14 0.983 . S
C40 C36 1.684 . S
H41 C59 0.948 . S
H42 C0 0.948 . S
H43 C18 0.979 . S
H44 C18 0.980 . S
H45 C18 0.983 . S
H46 C17 0.982 . S
H47 C17 0.979 . S
H48 C17 0.977 . S
H49 C19 0.948 . S
H50 C21 0.947 . S
H51 C22 0.948 . S
H52 C28 0.982 . S
H53 C28 0.979 . S
H54 C28 0.977 . S
H55 C29 0.979 . S
H56 C29 0.980 . S
H57 C29 0.983 . S
H58 C2 0.947 . S
C59 C2 1.392 . S
C59 C3 1.419 . S
C59 H41 0.948 . S
C60 C61 1.391 . S
C60 C64 1.391 . S
C60 H102 0.948 . S
C61 C60 1.391 . S
C61 C62 1.391 . S
C62 C61 1.391 . S
C62 H118 0.947 . S
C62 C119 1.392 . S
C63 C64 1.391 . S
C63 C67 1.397 . S
C63 C119 1.419 . S
C64 C60 1.391 . S
C64 C63 1.391 . S
C64 C65 1.399 . S
C65 C64 1.399 . S
C65 C68 1.396 . S
C65 C77 1.453 . S
C65 C78 1.684 . S
H66 C90 0.948 . S
C67 C63 1.397 . S
C67 C68 1.394 . S
C67 C86 1.723 . S
C68 C65 1.396 . S
C68 C67 1.394 . S
C68 C98 1.723 . S
H69 C92 0.947 . S
H70 C93 0.948 . S
H71 C99 0.982 . S
H72 C100 0.979 . S
H73 C100 0.980 . S
H74 C100 0.983 . S
H75 C99 0.979 . S
H76 C99 0.977 . S
C77 C65 1.453 . S
C77 H106 0.982 . S
C77 H107 0.979 . S
C77 H108 0.977 . S
C78 C65 1.684 . S
C78 H103 0.979 . S
C78 H104 0.980 . S
C78 H105 0.983 . S
C79 C80 1.391 . S
C79 C84 1.391 . S
C79 H109 0.948 . S
C80 C79 1.391 . S
C80 C81 1.391 . S
C81 C80 1.391 . S
C81 C82 1.392 . S
C81 H110 0.947 . S
C82 C81 1.392 . S
C82 C83 1.419 . S
C82 H111 0.948 . S
C83 C82 1.419 . S
C83 C84 1.391 . S
C83 C87 1.397 . S
C84 C79 1.391 . S
C84 C83 1.391 . S
C84 C85 1.399 . S
C85 C84 1.399 . S
C85 C86 1.396 . S
C85 C88 1.453 . S
C85 C89 1.684 . S
C86 C67 1.723 . S
C86 C85 1.396 . S
C86 C87 1.394 . S
C87 C83 1.397 . S
C87 C86 1.394 . S
C87 C97 1.723 . S
C88 C85 1.453 . S
C88 H112 0.982 . S
C88 H113 0.979 . S
C88 H114 0.977 . S
C89 C85 1.684 . S
C89 H115 0.979 . S
C89 H116 0.980 . S
C89 H117 0.983 . S
C90 H66 0.948 . S
C90 C91 1.391 . S
C90 C95 1.391 . S
C91 C90 1.391 . S
C91 C92 1.391 . S
C92 H69 0.947 . S
C92 C91 1.391 . S
C92 C93 1.392 . S
C93 H70 0.948 . S
C93 C92 1.392 . S
C93 C94 1.419 . S
C94 C93 1.419 . S
C94 C95 1.391 . S
C94 C98 1.397 . S
C95 C90 1.391 . S
C95 C94 1.391 . S
C95 C96 1.399 . S
C96 C95 1.399 . S
C96 C97 1.396 . S
C96 C99 1.453 . S
C96 C100 1.684 . S
C97 C87 1.723 . S
C97 C96 1.396 . S
C97 C98 1.394 . S
C98 C68 1.723 . S
C98 C94 1.397 . S
C98 C97 1.394 . S
C99 H71 0.982 . S
C99 H75 0.979 . S
C99 H76 0.977 . S
C99 C96 1.453 . S
C100 H72 0.979 . S
C100 H73 0.980 . S
C100 H74 0.983 . S
C100 C96 1.684 . S
H101 C119 0.948 . S
H102 C60 0.948 . S
H103 C78 0.979 . S
H104 C78 0.980 . S
H105 C78 0.983 . S
H106 C77 0.982 . S
H107 C77 0.979 . S
H108 C77 0.977 . S
H109 C79 0.948 . S
H110 C81 0.947 . S
H111 C82 0.948 . S
H112 C88 0.982 . S
H113 C88 0.979 . S
H114 C88 0.977 . S
H115 C89 0.979 . S
H116 C89 0.980 . S
H117 C89 0.983 . S
H118 C62 0.947 . S
C119 C62 1.392 . S
C119 C63 1.419 . S
C119 H101 0.948 . S
C120 C121 1.391 . S
C120 C124 1.391 . S
C120 H162 0.948 . S
C121 C120 1.391 . S
C121 C122 1.391 . S
C122 C121 1.391 . S
C122 H178 0.947 . S
C122 C179 1.392 . S
C123 C124 1.391 . S
C123 C127 1.397 . S
C123 C179 1.419 . S
C124 C120 1.391 . S
C124 C123 1.391 . S
C124 C125 1.399 . S
C125 C124 1.399 . S
C125 C128 1.396 . S
C125 C137 1.453 . S
C125 C138 1.684 . S
H126 C150 0.948 . S
C127 C123 1.397 . S
C127 C128 1.394 . S
C127 C146 1.723 1_554 S
C128 C125 1.396 . S
C128 C127 1.394 . S
C128 C158 1.723 . S
H129 C152 0.947 . S
H130 C153 0.948 . S
H131 C159 0.982 . S
H132 C160 0.979 . S
H133 C160 0.980 . S
H134 C160 0.983 . S
H135 C159 0.979 . S
H136 C159 0.977 . S
C137 C125 1.453 . S
C137 H166 0.982 . S
C137 H167 0.979 . S
C137 H168 0.977 . S
C138 C125 1.684 . S
C138 H163 0.979 . S
C138 H164 0.980 . S
C138 H165 0.983 . S
C139 C140 1.391 . S
C139 C144 1.391 . S
C139 H169 0.948 . S
C140 C139 1.391 . S
C140 C141 1.391 . S
C141 C140 1.391 . S
C141 C142 1.392 . S
C141 H170 0.947 . S
C142 C141 1.392 . S
C142 C143 1.419 . S
C142 H171 0.948 . S
C143 C142 1.419 . S
C143 C144 1.391 . S
C143 C147 1.397 . S
C144 C139 1.391 . S
C144 C143 1.391 . S
C144 C145 1.399 . S
C145 C144 1.399 . S
C145 C146 1.396 . S
C145 C148 1.453 . S
C145 C149 1.684 . S
C146 C127 1.723 1_556 S
C146 C145 1.396 . S
C146 C147 1.394 . S
C147 C143 1.397 . S
C147 C146 1.394 . S
C147 C157 1.723 . S
C148 C145 1.453 . S
C148 H172 0.982 . S
C148 H173 0.979 . S
C148 H174 0.977 1_556 S
C149 C145 1.684 . S
C149 H175 0.979 . S
C149 H176 0.980 1_556 S
C149 H177 0.983 . S
C150 H126 0.948 . S
C150 C151 1.391 1_556 S
C150 C155 1.391 . S
C151 C150 1.391 1_554 S
C151 C152 1.391 . S
C152 H129 0.947 . S
C152 C151 1.391 . S
C152 C153 1.392 . S
C153 H130 0.948 . S
C153 C152 1.392 . S
C153 C154 1.419 . S
C154 C153 1.419 . S
C154 C155 1.391 1_554 S
C154 C158 1.397 . S
C155 C150 1.391 . S
C155 C154 1.391 1_556 S
C155 C156 1.399 . S
C156 C155 1.399 . S
C156 C157 1.396 . S
C156 C159 1.453 . S
C156 C160 1.684 . S
C157 C147 1.723 . S
C157 C156 1.396 . S
C157 C158 1.394 1_556 S
C158 C128 1.723 . S
C158 C154 1.397 . S
C158 C157 1.394 1_554 S
C159 H131 0.982 . S
C159 H135 0.979 . S
C159 H136 0.977 . S
C159 C156 1.453 . S
C160 H132 0.979 . S
C160 H133 0.980 . S
C160 H134 0.983 . S
C160 C156 1.684 . S
H161 C179 0.948 . S
H162 C120 0.948 . S
H163 C138 0.979 . S
H164 C138 0.980 . S
H165 C138 0.983 . S
H166 C137 0.982 . S
H167 C137 0.979 . S
H168 C137 0.977 . S
H169 C139 0.948 . S
H170 C141 0.947 . S
H171 C142 0.948 . S
H172 C148 0.982 . S
H173 C148 0.979 . S
H174 C148 0.977 1_554 S
H175 C149 0.979 . S
H176 C149 0.980 1_554 S
H177 C149 0.983 . S
H178 C122 0.947 . S
C179 C122 1.392 . S
C179 C123 1.419 . S
C179 H161 0.948 . S
C180 C181 1.391 . S
C180 C184 1.391 . S
C180 H222 0.948 . S
C181 C180 1.391 . S
C181 C182 1.391 . S
C182 C181 1.391 . S
C182 H238 0.947 . S
C182 C239 1.392 . S
C183 C184 1.391 . S
C183 C187 1.397 . S
C183 C239 1.419 . S
C184 C180 1.391 . S
C184 C183 1.391 . S
C184 C185 1.399 . S
C185 C184 1.399 . S
C185 C188 1.396 . S
C185 C197 1.453 . S
C185 C198 1.684 . S
H186 C210 0.948 . S
C187 C183 1.397 . S
C187 C188 1.394 . S
C187 C206 1.723 . S
C188 C185 1.396 . S
C188 C187 1.394 . S
C188 C218 1.723 . S
H189 C212 0.947 . S
H190 C213 0.948 . S
H191 C219 0.982 . S
H192 C220 0.979 . S
H193 C220 0.980 . S
H194 C220 0.983 . S
H195 C219 0.979 . S
H196 C219 0.977 . S
C197 C185 1.453 . S
C197 H226 0.982 . S
C197 H227 0.979 . S
C197 H228 0.977 . S
C198 C185 1.684 . S
C198 H223 0.979 . S
C198 H224 0.980 . S
C198 H225 0.983 . S
C199 C200 1.391 . S
C199 C204 1.391 . S
C199 H229 0.948 . S
C200 C199 1.391 . S
C200 C201 1.391 . S
C201 C200 1.391 . S
C201 C202 1.392 . S
C201 H230 0.947 . S
C202 C201 1.392 . S
C202 C203 1.419 . S
C202 H231 0.948 . S
C203 C202 1.419 . S
C203 C204 1.391 . S
C203 C207 1.397 . S
C204 C199 1.391 . S
C204 C203 1.391 . S
C204 C205 1.399 . S
C205 C204 1.399 . S
C205 C206 1.396 . S
C205 C208 1.453 . S
C205 C209 1.684 . S
C206 C187 1.723 . S
C206 C205 1.396 . S
C206 C207 1.394 . S
C207 C203 1.397 . S
C207 C206 1.394 . S
C207 C217 1.723 . S
C208 C205 1.453 . S
C208 H232 0.982 . S
C208 H233 0.979 . S
C208 H234 0.977 . S
C209 C205 1.684 . S
C209 H235 0.979 . S
C209 H236 0.980 . S
C209 H237 0.983 . S
C210 H186 0.948 . S
C210 C211 1.391 . S
C210 C215 1.391 . S
C211 C210 1.391 . S
C211 C212 1.391 . S
C212 H189 0.947 . S
C212 C211 1.391 . S
C212 C213 1.392 . S
C213 H190 0.948 . S
C213 C212 1.392 . S
C213 C214 1.419 . S
C214 C213 1.419 . S
C214 C215 1.391 . S
C214 C218 1.397 . S
C215 C210 1.391 . S
C215 C214 1.391 . S
C215 C216 1.399 . S
C216 C215 1.399 . S
C216 C217 1.396 . S
C216 C219 1.453 . S
C216 C220 1.684 . S
C217 C207 1.723 . S
C217 C216 1.396 . S
C217 C218 1.394 . S
C218 C188 1.723 . S
C218 C214 1.397 . S
C218 C217 1.394 . S
C219 H191 0.982 . S
C219 H195 0.979 . S
C219 H196 0.977 . S
C219 C216 1.453 . S
C220 H192 0.979 . S
C220 H193 0.980 . S
C220 H194 0.983 . S
C220 C216 1.684 . S
H221 C239 0.948 . S
H222 C180 0.948 . S
H223 C198 0.979 . S
H224 C198 0.980 . S
H225 C198 0.983 . S
H226 C197 0.982 . S
H227 C197 0.979 . S
H228 C197 0.977 . S
H229 C199 0.948 . S
H230 C201 0.947 . S
H231 C202 0.948 . S
H232 C208 0.982 . S
H233 C208 0.979 . S
H234 C208 0.977 . S
H235 C209 0.979 . S
H236 C209 0.980 . S
H237 C209 0.983 . S
H238 C182 0.947 . S
C239 C182 1.392 . S
C239 C183 1.419 . S
C239 H221 0.948 . S
O240 Zn241 1.953 1_565 S
O240 C256 1.225 . S
Zn241 O240 1.953 1_545 S
Zn241 O242 1.949 1_655 S
Zn241 O248 1.919 . S
Zn241 O253 1.924 . S
O242 Zn241 1.949 1_455 S
O242 Zn243 1.923 . S
O242 Zn244 1.950 1_445 S
O242 Zn245 1.945 . S
Zn243 O242 1.923 . S
Zn243 O246 1.933 . S
Zn243 O249 1.941 . S
Zn243 O250 1.965 1_545 S
Zn244 O242 1.950 1_665 S
Zn244 O251 1.938 1_655 S
Zn244 O252 1.906 1_655 S
Zn244 O262 1.953 . S
Zn245 O242 1.945 . S
Zn245 O247 1.932 . S
Zn245 O254 1.977 1_545 S
Zn245 O255 1.910 1_455 S
O246 Zn243 1.933 . S
O246 C257 1.226 . S
O247 Zn245 1.932 . S
O247 C257 1.307 . S
O248 Zn241 1.919 . S
O248 C259 1.253 . S
O249 Zn243 1.941 . S
O249 C259 1.283 1_455 S
O250 Zn243 1.965 1_565 S
O250 C258 1.303 . S
O251 Zn244 1.938 1_455 S
O251 C258 1.247 . S
O252 Zn244 1.906 1_455 S
O252 C260 1.304 . S
O253 Zn241 1.924 . S
O253 C261 1.311 . S
O254 Zn245 1.977 1_565 S
O254 C260 1.272 . S
O255 Zn245 1.910 1_655 S
O255 C261 1.231 . S
C256 O240 1.225 . S
C256 O262 1.298 . S
C257 O246 1.226 . S
C257 O247 1.307 . S
C258 O250 1.303 . S
C258 O251 1.247 . S
C259 O248 1.253 . S
C259 O249 1.283 1_655 S
C260 O252 1.304 . S
C260 O254 1.272 . S
C261 O253 1.311 . S
C261 O255 1.231 . S
O262 Zn244 1.953 . S
O262 C256 1.298 . S
O263 Zn264 1.952 1_556 S
O263 C279 1.225 1_556 S
Zn264 O263 1.952 1_554 S
Zn264 O265 1.953 . S
Zn264 O271 1.900 1_554 S
Zn264 O276 1.944 . S
O265 Zn264 1.953 . S
O265 Zn266 1.923 1_554 S
O265 Zn267 1.950 . S
O265 Zn268 1.945 . S
Zn266 O265 1.923 1_556 S
Zn266 O269 1.933 . S
Zn266 O272 1.941 . S
Zn266 O273 1.965 . S
Zn267 O265 1.950 . S
Zn267 O274 1.938 1_554 S
Zn267 O275 1.906 . S
Zn267 O285 1.953 . S
Zn268 O265 1.945 . S
Zn268 O270 1.932 . S
Zn268 O277 1.977 . S
Zn268 O278 1.910 . S
O269 Zn266 1.933 . S
O269 C280 1.226 1_556 S
O270 Zn268 1.932 . S
O270 C280 1.307 . S
O271 Zn264 1.900 1_556 S
O271 C282 1.253 . S
O272 Zn266 1.941 . S
O272 C282 1.283 . S
O273 Zn266 1.965 . S
O273 C281 1.303 . S
O274 Zn267 1.938 1_556 S
O274 C281 1.247 . S
O275 Zn267 1.906 . S
O275 C283 1.304 . S
O276 Zn264 1.944 . S
O276 C284 1.311 . S
O277 Zn268 1.977 . S
O277 C283 1.272 . S
O278 Zn268 1.910 . S
O278 C284 1.231 . S
C279 O263 1.225 1_554 S
C279 O285 1.298 . S
C280 O269 1.226 1_554 S
C280 O270 1.307 . S
C281 O273 1.303 . S
C281 O274 1.247 . S
C282 O271 1.253 . S
C282 O272 1.283 . S
C283 O275 1.304 . S
C283 O277 1.272 . S
C284 O276 1.311 . S
C284 O278 1.231 . S
O285 Zn267 1.953 . S
O285 C279 1.298 . S
H286 C287 0.951 . S
C287 H286 0.951 . S
C287 C293 1.265 . S
H288 C293 0.950 . S
H289 C297 0.949 . S
H290 C298 0.950 . S
H291 C299 0.951 . S
H292 C300 0.951 . S
C293 C287 1.265 . S
C293 H288 0.950 . S
C293 C294 1.478 . S
C294 C293 1.478 . S
C294 C295 1.397 . S
C294 C311 1.394 . S
C295 C294 1.397 . S
C295 C296 1.438 . S
C295 C300 1.429 . S
C296 C295 1.438 . S
C296 C297 1.428 . S
C296 C309 1.394 . S
C297 H289 0.949 . S
C297 C296 1.428 . S
C297 C298 1.345 . S
C298 H290 0.950 . S
C298 C297 1.345 . S
C298 C299 1.424 . S
C299 H291 0.951 . S
C299 C298 1.424 . S
C299 C300 1.347 . S
C300 H292 0.951 . S
C300 C295 1.429 . S
C300 C299 1.347 . S
H301 C302 0.951 . S
C302 H301 0.951 . S
C302 C308 1.265 . S
H303 C308 0.950 . S
H304 C312 0.949 . S
H305 C313 0.950 . S
H306 C314 0.951 . S
H307 C315 0.951 . S
C308 C302 1.265 . S
C308 H303 0.950 . S
C308 C309 1.478 . S
C309 C296 1.394 . S
C309 C308 1.478 . S
C309 C310 1.397 . S
C310 C309 1.397 . S
C310 C311 1.438 . S
C310 C315 1.429 . S
C311 C294 1.394 . S
C311 C310 1.438 . S
C311 C312 1.428 . S
C312 H304 0.949 . S
C312 C311 1.428 . S
C312 C313 1.345 . S
C313 H305 0.950 . S
C313 C312 1.345 . S
C313 C314 1.424 . S
C314 H306 0.951 . S
C314 C313 1.424 . S
C314 C315 1.347 . S
C315 H307 0.951 . S
C315 C310 1.429 . S
C315 C314 1.347 . S
H316 C317 0.951 . S
C317 H316 0.951 . S
C317 C323 1.265 . S
H318 C323 0.950 . S
H319 C327 0.949 . S
H320 C328 0.950 . S
H321 C329 0.951 . S
H322 C330 0.951 . S
C323 C317 1.265 . S
C323 H318 0.950 . S
C323 C324 1.478 . S
C324 C323 1.478 . S
C324 C325 1.397 1_554 S
C324 C341 1.394 . S
C325 C324 1.397 1_556 S
C325 C326 1.438 . S
C325 C330 1.429 . S
C326 C325 1.438 . S
C326 C327 1.428 . S
C326 C339 1.394 1_556 S
C327 H319 0.949 . S
C327 C326 1.428 . S
C327 C328 1.345 . S
C328 H320 0.950 . S
C328 C327 1.345 . S
C328 C329 1.424 . S
C329 H321 0.951 . S
C329 C328 1.424 . S
C329 C330 1.347 . S
C330 H322 0.951 . S
C330 C325 1.429 . S
C330 C329 1.347 . S
H331 C332 0.951 . S
C332 H331 0.951 . S
C332 C338 1.265 . S
H333 C338 0.950 . S
H334 C342 0.949 . S
H335 C343 0.950 . S
H336 C344 0.951 . S
H337 C345 0.951 . S
C338 C332 1.265 . S
C338 H333 0.950 . S
C338 C339 1.478 . S
C339 C326 1.394 1_554 S
C339 C338 1.478 . S
C339 C340 1.397 . S
C340 C339 1.397 . S
C340 C341 1.438 . S
C340 C345 1.429 . S
C341 C324 1.394 . S
C341 C340 1.438 . S
C341 C342 1.428 . S
C342 H334 0.949 . S
C342 C341 1.428 . S
C342 C343 1.345 . S
C343 H335 0.950 . S
C343 C342 1.345 . S
C343 C344 1.424 . S
C344 H336 0.951 . S
C344 C343 1.424 . S
C344 C345 1.347 . S
C345 H337 0.951 . S
C345 C340 1.429 . S
C345 C344 1.347 . S
H346 C347 0.951 . S
C347 H346 0.951 . S
C347 C353 1.265 . S
H348 C353 0.950 . S
H349 C357 0.949 . S
H350 C358 0.950 . S
H351 C359 0.951 . S
H352 C360 0.951 . S
C353 C347 1.265 . S
C353 H348 0.950 . S
C353 C354 1.478 . S
C354 C353 1.478 . S
C354 C355 1.397 . S
C354 C371 1.394 . S
C355 C354 1.397 . S
C355 C356 1.438 . S
C355 C360 1.429 . S
C356 C355 1.438 . S
C356 C357 1.428 . S
C356 C369 1.394 . S
C357 H349 0.949 . S
C357 C356 1.428 . S
C357 C358 1.345 . S
C358 H350 0.950 . S
C358 C357 1.345 . S
C358 C359 1.424 . S
C359 H351 0.951 . S
C359 C358 1.424 . S
C359 C360 1.347 . S
C360 H352 0.951 . S
C360 C355 1.429 . S
C360 C359 1.347 . S
H361 C362 0.951 . S
C362 H361 0.951 . S
C362 C368 1.265 . S
H363 C368 0.950 . S
H364 C372 0.949 . S
H365 C373 0.950 . S
H366 C374 0.951 . S
H367 C375 0.951 . S
C368 C362 1.265 . S
C368 H363 0.950 . S
C368 C369 1.478 . S
C369 C356 1.394 . S
C369 C368 1.478 . S
C369 C370 1.397 . S
C370 C369 1.397 . S
C370 C371 1.438 . S
C370 C375 1.429 . S
C371 C354 1.394 . S
C371 C370 1.438 . S
C371 C372 1.428 . S
C372 H364 0.949 . S
C372 C371 1.428 . S
C372 C373 1.345 . S
C373 H365 0.950 . S
C373 C372 1.345 . S
C373 C374 1.424 . S
C374 H366 0.951 . S
C374 C373 1.424 . S
C374 C375 1.347 . S
C375 H367 0.951 . S
C375 C370 1.429 . S
C375 C374 1.347 . S
H376 C377 0.951 . S
C377 H376 0.951 . S
C377 C383 1.265 . S
H378 C383 0.950 . S
H379 C387 0.949 . S
H380 C388 0.950 . S
H381 C389 0.951 . S
H382 C390 0.951 . S
C383 C377 1.265 . S
C383 H378 0.950 . S
C383 C384 1.478 . S
C384 C383 1.478 . S
C384 C385 1.397 . S
C384 C401 1.394 1_554 S
C385 C384 1.397 . S
C385 C386 1.438 . S
C385 C390 1.429 . S
C386 C385 1.438 . S
C386 C387 1.428 . S
C386 C399 1.394 . S
C387 H379 0.949 . S
C387 C386 1.428 . S
C387 C388 1.345 . S
C388 H380 0.950 . S
C388 C387 1.345 . S
C388 C389 1.424 . S
C389 H381 0.951 . S
C389 C388 1.424 . S
C389 C390 1.347 . S
C390 H382 0.951 . S
C390 C385 1.429 . S
C390 C389 1.347 . S
H391 C392 0.951 . S
C392 H391 0.951 . S
C392 C398 1.265 . S
H393 C398 0.950 . S
H394 C402 0.949 . S
H395 C403 0.950 . S
H396 C404 0.951 . S
H397 C405 0.951 . S
C398 C392 1.265 . S
C398 H393 0.950 . S
C398 C399 1.478 . S
C399 C386 1.394 . S
C399 C398 1.478 . S
C399 C400 1.397 1_554 S
C400 C399 1.397 1_556 S
C400 C401 1.438 . S
C400 C405 1.429 . S
C401 C384 1.394 1_556 S
C401 C400 1.438 . S
C401 C402 1.428 . S
C402 H394 0.949 . S
C402 C401 1.428 . S
C402 C403 1.345 . S
C403 H395 0.950 . S
C403 C402 1.345 . S
C403 C404 1.424 . S
C404 H396 0.951 . S
C404 C403 1.424 . S
C404 C405 1.347 . S
C405 H397 0.951 . S
C405 C400 1.429 . S
C405 C404 1.347 . S
H406 C407 0.951 . S
C407 H406 0.951 . S
C407 C413 1.265 . S
H408 C413 0.950 . S
H409 C417 0.949 . S
H410 C418 0.950 . S
H411 C419 0.951 . S
H412 C420 0.951 . S
C413 C407 1.265 . S
C413 H408 0.950 . S
C413 C414 1.478 . S
C414 C413 1.478 . S
C414 C415 1.397 . S
C414 C431 1.394 . S
C415 C414 1.397 . S
C415 C416 1.438 . S
C415 C420 1.429 . S
C416 C415 1.438 . S
C416 C417 1.428 . S
C416 C429 1.394 . S
C417 H409 0.949 . S
C417 C416 1.428 . S
C417 C418 1.345 . S
C418 H410 0.950 . S
C418 C417 1.345 . S
C418 C419 1.424 . S
C419 H411 0.951 . S
C419 C418 1.424 . S
C419 C420 1.347 . S
C420 H412 0.951 . S
C420 C415 1.429 . S
C420 C419 1.347 . S
H421 C422 0.951 . S
C422 H421 0.951 . S
C422 C428 1.265 . S
H423 C428 0.950 . S
H424 C432 0.949 . S
H425 C433 0.950 1_655 S
H426 C434 0.951 . S
H427 C435 0.951 . S
C428 C422 1.265 . S
C428 H423 0.950 . S
C428 C429 1.478 . S
C429 C416 1.394 . S
C429 C428 1.478 . S
C429 C430 1.397 . S
C430 C429 1.397 . S
C430 C431 1.438 . S
C430 C435 1.429 . S
C431 C414 1.394 . S
C431 C430 1.438 . S
C431 C432 1.428 . S
C432 H424 0.949 . S
C432 C431 1.428 . S
C432 C433 1.345 . S
C433 H425 0.950 1_455 S
C433 C432 1.345 . S
C433 C434 1.424 1_455 S
C434 H426 0.951 . S
C434 C433 1.424 1_655 S
C434 C435 1.347 1_655 S
C435 H427 0.951 . S
C435 C430 1.429 . S
C435 C434 1.347 1_455 S
H436 C437 0.951 . S
C437 H436 0.951 . S
C437 C443 1.265 . S
H438 C443 0.950 . S
H439 C447 0.949 . S
H440 C448 0.950 . S
H441 C449 0.951 . S
H442 C450 0.951 . S
C443 C437 1.265 . S
C443 H438 0.950 . S
C443 C444 1.478 . S
C444 C443 1.478 . S
C444 C445 1.397 . S
C444 C461 1.394 . S
C445 C444 1.397 . S
C445 C446 1.438 . S
C445 C450 1.429 . S
C446 C445 1.438 . S
C446 C447 1.428 . S
C446 C459 1.394 . S
C447 H439 0.949 . S
C447 C446 1.428 . S
C447 C448 1.345 . S
C448 H440 0.950 . S
C448 C447 1.345 . S
C448 C449 1.424 . S
C449 H441 0.951 . S
C449 C448 1.424 . S
C449 C450 1.347 . S
C450 H442 0.951 . S
C450 C445 1.429 . S
C450 C449 1.347 . S
H451 C452 0.951 . S
C452 H451 0.951 . S
C452 C458 1.265 . S
H453 C458 0.950 . S
H454 C462 0.949 . S
H455 C463 0.950 . S
H456 C464 0.951 . S
H457 C465 0.951 . S
C458 C452 1.265 . S
C458 H453 0.950 . S
C458 C459 1.478 . S
C459 C446 1.394 . S
C459 C458 1.478 . S
C459 C460 1.397 . S
C460 C459 1.397 . S
C460 C461 1.438 . S
C460 C465 1.429 . S
C461 C444 1.394 . S
C461 C460 1.438 . S
C461 C462 1.428 . S
C462 H454 0.949 . S
C462 C461 1.428 . S
C462 C463 1.345 . S
C463 H455 0.950 . S
C463 C462 1.345 . S
C463 C464 1.424 . S
C464 H456 0.951 . S
C464 C463 1.424 . S
C464 C465 1.347 . S
C465 H457 0.951 . S
C465 C460 1.429 . S
C465 C464 1.347 . S
H466 C467 0.951 . S
C467 H466 0.951 . S
C467 C473 1.265 . S
H468 C473 0.950 . S
H469 C477 0.949 . S
H470 C478 0.950 . S
H471 C479 0.951 . S
H472 C480 0.951 . S
C473 C467 1.265 . S
C473 H468 0.950 . S
C473 C474 1.478 . S
C474 C473 1.478 . S
C474 C475 1.397 . S
C474 C491 1.394 . S
C475 C474 1.397 . S
C475 C476 1.438 . S
C475 C480 1.429 . S
C476 C475 1.438 . S
C476 C477 1.428 . S
C476 C489 1.394 . S
C477 H469 0.949 . S
C477 C476 1.428 . S
C477 C478 1.345 1_655 S
C478 H470 0.950 . S
C478 C477 1.345 1_455 S
C478 C479 1.424 . S
C479 H471 0.951 . S
C479 C478 1.424 . S
C479 C480 1.347 1_455 S
C480 H472 0.951 . S
C480 C475 1.429 . S
C480 C479 1.347 1_655 S
H481 C482 0.951 . S
C482 H481 0.951 . S
C482 C488 1.265 . S
H483 C488 0.950 . S
H484 C492 0.949 . S
H485 C493 0.950 . S
H486 C494 0.951 . S
H487 C495 0.951 . S
C488 C482 1.265 . S
C488 H483 0.950 . S
C488 C489 1.478 . S
C489 C476 1.394 . S
C489 C488 1.478 . S
C489 C490 1.397 . S
C490 C489 1.397 . S
C490 C491 1.438 . S
C490 C495 1.429 . S
C491 C474 1.394 . S
C491 C490 1.438 . S
C491 C492 1.428 . S
C492 H484 0.949 . S
C492 C491 1.428 . S
C492 C493 1.345 . S
C493 H485 0.950 . S
C493 C492 1.345 . S
C493 C494 1.424 . S
C494 H486 0.951 . S
C494 C493 1.424 . S
C494 C495 1.347 . S
C495 H487 0.951 . S
C495 C490 1.429 . S
C495 C494 1.347 . S
H496 C497 0.951 . S
C497 H496 0.951 . S
C497 C503 1.265 . S
H498 C503 0.950 . S
H499 C507 0.949 . S
H500 C508 0.950 . S
H501 C509 0.951 . S
H502 C510 0.951 . S
C503 C497 1.265 . S
C503 H498 0.950 . S
C503 C504 1.478 . S
C504 C503 1.478 . S
C504 C505 1.397 . S
C504 C521 1.394 . S
C505 C504 1.397 . S
C505 C506 1.438 . S
C505 C510 1.429 . S
C506 C505 1.438 . S
C506 C507 1.428 . S
C506 C519 1.394 . S
C507 H499 0.949 . S
C507 C506 1.428 . S
C507 C508 1.345 . S
C508 H500 0.950 . S
C508 C507 1.345 . S
C508 C509 1.424 . S
C509 H501 0.951 . S
C509 C508 1.424 . S
C509 C510 1.347 . S
C510 H502 0.951 . S
C510 C505 1.429 . S
C510 C509 1.347 . S
H511 C512 0.951 . S
C512 H511 0.951 . S
C512 C518 1.265 . S
H513 C518 0.950 . S
H514 C522 0.949 . S
H515 C523 0.950 . S
H516 C524 0.951 . S
H517 C525 0.951 . S
C518 C512 1.265 . S
C518 H513 0.950 . S
C518 C519 1.478 . S
C519 C506 1.394 . S
C519 C518 1.478 . S
C519 C520 1.397 . S
C520 C519 1.397 . S
C520 C521 1.438 . S
C520 C525 1.429 . S
C521 C504 1.394 . S
C521 C520 1.438 . S
C521 C522 1.428 . S
C522 H514 0.949 . S
C522 C521 1.428 . S
C522 C523 1.345 . S
C523 H515 0.950 . S
C523 C522 1.345 . S
C523 C524 1.424 . S
C524 H516 0.951 . S
C524 C523 1.424 . S
C524 C525 1.347 . S
C525 H517 0.951 . S
C525 C520 1.429 . S
C525 C524 1.347 . S
H526 C527 0.951 . S
C527 H526 0.951 . S
C527 C533 1.265 . S
H528 C533 0.950 . S
H529 C537 0.949 . S
H530 C538 0.950 . S
H531 C539 0.951 . S
H532 C540 0.951 . S
C533 C527 1.265 . S
C533 H528 0.950 . S
C533 C534 1.478 . S
C534 C533 1.478 . S
C534 C535 1.397 . S
C534 C551 1.394 . S
C535 C534 1.397 . S
C535 C536 1.438 . S
C535 C540 1.429 . S
C536 C535 1.438 . S
C536 C537 1.428 . S
C536 C549 1.394 . S
C537 H529 0.949 . S
C537 C536 1.428 . S
C537 C538 1.345 . S
C538 H530 0.950 . S
C538 C537 1.345 . S
C538 C539 1.424 . S
C539 H531 0.951 . S
C539 C538 1.424 . S
C539 C540 1.347 . S
C540 H532 0.951 . S
C540 C535 1.429 . S
C540 C539 1.347 . S
H541 C542 0.951 . S
C542 H541 0.951 . S
C542 C548 1.265 . S
H543 C548 0.950 . S
H544 C552 0.949 . S
H545 C553 0.950 . S
H546 C554 0.951 . S
H547 C555 0.951 . S
C548 C542 1.265 . S
C548 H543 0.950 . S
C548 C549 1.478 . S
C549 C536 1.394 . S
C549 C548 1.478 . S
C549 C550 1.397 . S
C550 C549 1.397 . S
C550 C551 1.438 . S
C550 C555 1.429 . S
C551 C534 1.394 . S
C551 C550 1.438 . S
C551 C552 1.428 . S
C552 H544 0.949 . S
C552 C551 1.428 . S
C552 C553 1.345 . S
C553 H545 0.950 . S
C553 C552 1.345 . S
C553 C554 1.424 . S
C554 H546 0.951 . S
C554 C553 1.424 . S
C554 C555 1.347 . S
C555 H547 0.951 . S
C555 C550 1.429 . S
C555 C554 1.347 . S
H556 C557 0.951 . S
C557 H556 0.951 . S
C557 C563 1.265 . S
H558 C563 0.950 . S
H559 C567 0.949 . S
H560 C568 0.950 . S
H561 C569 0.951 . S
H562 C570 0.951 . S
C563 C557 1.265 . S
C563 H558 0.950 . S
C563 C564 1.478 . S
C564 C563 1.478 . S
C564 C565 1.397 . S
C564 C581 1.394 . S
C565 C564 1.397 . S
C565 C566 1.438 . S
C565 C570 1.429 . S
C566 C565 1.438 . S
C566 C567 1.428 . S
C566 C579 1.394 . S
C567 H559 0.949 . S
C567 C566 1.428 . S
C567 C568 1.345 . S
C568 H560 0.950 . S
C568 C567 1.345 . S
C568 C569 1.424 . S
C569 H561 0.951 . S
C569 C568 1.424 . S
C569 C570 1.347 . S
C570 H562 0.951 . S
C570 C565 1.429 . S
C570 C569 1.347 . S
H571 C572 0.951 . S
C572 H571 0.951 . S
C572 C578 1.265 . S
H573 C578 0.950 1_455 S
H574 C582 0.949 . S
H575 C583 0.950 . S
H576 C584 0.951 . S
H577 C585 0.951 . S
C578 C572 1.265 . S
C578 H573 0.950 1_655 S
C578 C579 1.478 . S
C579 C566 1.394 . S
C579 C578 1.478 . S
C579 C580 1.397 . S
C580 C579 1.397 . S
C580 C581 1.438 . S
C580 C585 1.429 1_655 S
C581 C564 1.394 . S
C581 C580 1.438 . S
C581 C582 1.428 . S
C582 H574 0.949 . S
C582 C581 1.428 . S
C582 C583 1.345 1_655 S
C583 H575 0.950 . S
C583 C582 1.345 1_455 S
C583 C584 1.424 . S
C584 H576 0.951 . S
C584 C583 1.424 . S
C584 C585 1.347 . S
C585 H577 0.951 . S
C585 C580 1.429 1_455 S
C585 C584 1.347 . S
H586 C587 0.951 . S
C587 H586 0.951 . S
C587 C593 1.265 . S
H588 C593 0.950 . S
H589 C597 0.949 . S
H590 C598 0.950 . S
H591 C599 0.951 . S
H592 C600 0.951 . S
C593 C587 1.265 . S
C593 H588 0.950 . S
C593 C594 1.478 . S
C594 C593 1.478 . S
C594 C595 1.397 . S
C594 C611 1.394 . S
C595 C594 1.397 . S
C595 C596 1.438 . S
C595 C600 1.429 . S
C596 C595 1.438 . S
C596 C597 1.428 . S
C596 C609 1.394 . S
C597 H589 0.949 . S
C597 C596 1.428 . S
C597 C598 1.345 . S
C598 H590 0.950 . S
C598 C597 1.345 . S
C598 C599 1.424 . S
C599 H591 0.951 . S
C599 C598 1.424 . S
C599 C600 1.347 . S
C600 H592 0.951 . S
C600 C595 1.429 . S
C600 C599 1.347 . S
H601 C602 0.951 . S
C602 H601 0.951 . S
C602 C608 1.265 . S
H603 C608 0.950 . S
H604 C612 0.949 . S
H605 C613 0.950 . S
H606 C614 0.951 . S
H607 C615 0.951 . S
C608 C602 1.265 . S
C608 H603 0.950 . S
C608 C609 1.478 . S
C609 C596 1.394 . S
C609 C608 1.478 . S
C609 C610 1.397 . S
C610 C609 1.397 . S
C610 C611 1.438 . S
C610 C615 1.429 . S
C611 C594 1.394 . S
C611 C610 1.438 . S
C611 C612 1.428 . S
C612 H604 0.949 . S
C612 C611 1.428 . S
C612 C613 1.345 . S
C613 H605 0.950 . S
C613 C612 1.345 . S
C613 C614 1.424 . S
C614 H606 0.951 . S
C614 C613 1.424 . S
C614 C615 1.347 . S
C615 H607 0.951 . S
C615 C610 1.429 . S
C615 C614 1.347 . S
H616 C617 0.951 . S
C617 H616 0.951 . S
C617 C623 1.265 . S
H618 C623 0.950 . S
H619 C627 0.949 . S
H620 C628 0.950 . S
H621 C629 0.951 . S
H622 C630 0.946 1_455 S
C623 C617 1.265 . S
C623 H618 0.950 . S
C623 C624 1.478 . S
C624 C623 1.478 . S
C624 C625 1.397 . S
C624 C641 1.394 . S
C625 C624 1.397 . S
C625 C626 1.438 . S
C625 C630 1.429 1_455 S
C626 C625 1.438 . S
C626 C627 1.428 1_455 S
C626 C639 1.394 . S
C627 H619 0.949 . S
C627 C626 1.428 1_655 S
C627 C628 1.345 . S
C628 H620 0.950 . S
C628 C627 1.345 . S
C628 C629 1.424 . S
C629 H621 0.951 . S
C629 C628 1.424 . S
C629 C630 1.347 . S
C630 H622 0.946 1_655 S
C630 C625 1.429 1_655 S
C630 C629 1.347 . S
H631 C632 0.951 . S
C632 H631 0.951 . S
C632 C638 1.265 . S
H633 C638 0.950 . S
H634 C642 0.949 . S
H635 C643 0.950 . S
H636 C644 0.951 . S
H637 C645 0.951 . S
C638 C632 1.265 . S
C638 H633 0.950 . S
C638 C639 1.478 . S
C639 C626 1.394 . S
C639 C638 1.478 . S
C639 C640 1.397 . S
C640 C639 1.397 . S
C640 C641 1.438 . S
C640 C645 1.429 . S
C641 C624 1.394 . S
C641 C640 1.438 . S
C641 C642 1.428 . S
C642 H634 0.949 . S
C642 C641 1.428 . S
C642 C643 1.345 . S
C643 H635 0.950 . S
C643 C642 1.345 . S
C643 C644 1.424 . S
C644 H636 0.951 . S
C644 C643 1.424 . S
C644 C645 1.347 . S
C645 H637 0.951 . S
C645 C640 1.429 . S
C645 C644 1.347 . S
C302 C257 1.655 . S
C287 C211 1.606 . S
C317 C31 1.600 . S
C332 C280 1.616 . S
C347 C91 1.617 . S
C362 C256 1.637 . S
C377 C151 1.615 . S
C392 C279 1.669 . S
C422 C260 1.656 . S
C407 C20 1.688 . S
C452 C282 1.656 . S
C437 C61 1.600 . S
C467 C121 1.583 . S
C482 C261 1.588 . S
C497 C200 1.540 . S
C512 C281 1.625 . S
C542 C284 1.625 . S
C527 C80 1.695 . S
C572 C259 1.591 . S
C557 C140 1.644 . S
C602 C283 1.586 . S
C587 C181 1.501 . S
C617 C1 1.548 . S
C632 C258 1.585 . S
