# Generated by pormake.
# Topology eea, (3,6)-cn, num edge types: 1
# Building blocks:
#     Node 0, Type 0, BuildingBlock: PAMTOO_clean_linker_0, # of connection points: 3
#     Node 1, Type 0, BuildingBlock: PAMTOO_clean_linker_0, # of connection points: 3
#     Node 2, Type 0, BuildingBlock: PAMTOO_clean_linker_0, # of connection points: 3
#     Node 3, Type 0, BuildingBlock: PAMTOO_clean_linker_0, # of connection points: 3
#     Node 4, Type 0, BuildingBlock: PAMTOO_clean_linker_0, # of connection points: 3
#     Node 5, Type 0, BuildingBlock: PAMTOO_clean_linker_0, # of connection points: 3
#     Node 6, Type 0, BuildingBlock: PAMTOO_clean_linker_0, # of connection points: 3
#     Node 7, Type 0, BuildingBlock: PAMTOO_clean_linker_0, # of connection points: 3
#     Node 8, Type 0, BuildingBlock: PAMTOO_clean_linker_0, # of connection points: 3
#     Node 9, Type 0, BuildingBlock: PAMTOO_clean_linker_0, # of connection points: 3
#     Node 10, Type 0, BuildingBlock: PAMTOO_clean_linker_0, # of connection points: 3
#     Node 11, Type 0, BuildingBlock: PAMTOO_clean_linker_0, # of connection points: 3
#     Node 12, Type 0, BuildingBlock: PAMTOO_clean_linker_0, # of connection points: 3
#     Node 13, Type 0, BuildingBlock: PAMTOO_clean_linker_0, # of connection points: 3
#     Node 14, Type 0, BuildingBlock: PAMTOO_clean_linker_0, # of connection points: 3
#     Node 15, Type 0, BuildingBlock: PAMTOO_clean_linker_0, # of connection points: 3
#     Node 16, Type 0, BuildingBlock: PAMTOO_clean_linker_0, # of connection points: 3
#     Node 17, Type 0, BuildingBlock: PAMTOO_clean_linker_0, # of connection points: 3
#     Node 18, Type 1, BuildingBlock: CUWYAW_clean_sbu_0, # of connection points: 6
#     Node 19, Type 1, BuildingBlock: CUWYAW_clean_sbu_0, # of connection points: 6
#     Node 20, Type 1, BuildingBlock: CUWYAW_clean_sbu_0, # of connection points: 6
#     Node 21, Type 1, BuildingBlock: CUWYAW_clean_sbu_0, # of connection points: 6
#     Node 22, Type 1, BuildingBlock: CUWYAW_clean_sbu_0, # of connection points: 6
#     Node 23, Type 1, BuildingBlock: CUWYAW_clean_sbu_0, # of connection points: 6
#     Node 24, Type 1, BuildingBlock: CUWYAW_clean_sbu_0, # of connection points: 6
#     Node 25, Type 1, BuildingBlock: CUWYAW_clean_sbu_0, # of connection points: 6
#     Node 26, Type 1, BuildingBlock: CUWYAW_clean_sbu_0, # of connection points: 6
#     Edge 27, Type (0, 1), BuildingBlock: XIVTED_clean_linker_0, # of connection points: 2
#     Edge 28, Type (0, 1), BuildingBlock: XIVTED_clean_linker_0, # of connection points: 2
#     Edge 29, Type (0, 1), BuildingBlock: XIVTED_clean_linker_0, # of connection points: 2
#     Edge 30, Type (0, 1), BuildingBlock: XIVTED_clean_linker_0, # of connection points: 2
#     Edge 31, Type (0, 1), BuildingBlock: XIVTED_clean_linker_0, # of connection points: 2
#     Edge 32, Type (0, 1), BuildingBlock: XIVTED_clean_linker_0, # of connection points: 2
#     Edge 33, Type (0, 1), BuildingBlock: XIVTED_clean_linker_0, # of connection points: 2
#     Edge 34, Type (0, 1), BuildingBlock: XIVTED_clean_linker_0, # of connection points: 2
#     Edge 35, Type (0, 1), BuildingBlock: XIVTED_clean_linker_0, # of connection points: 2
#     Edge 36, Type (0, 1), BuildingBlock: XIVTED_clean_linker_0, # of connection points: 2
#     Edge 37, Type (0, 1), BuildingBlock: XIVTED_clean_linker_0, # of connection points: 2
#     Edge 38, Type (0, 1), BuildingBlock: XIVTED_clean_linker_0, # of connection points: 2
#     Edge 39, Type (0, 1), BuildingBlock: XIVTED_clean_linker_0, # of connection points: 2
#     Edge 40, Type (0, 1), BuildingBlock: XIVTED_clean_linker_0, # of connection points: 2
#     Edge 41, Type (0, 1), BuildingBlock: XIVTED_clean_linker_0, # of connection points: 2
#     Edge 42, Type (0, 1), BuildingBlock: XIVTED_clean_linker_0, # of connection points: 2
#     Edge 43, Type (0, 1), BuildingBlock: XIVTED_clean_linker_0, # of connection points: 2
#     Edge 44, Type (0, 1), BuildingBlock: XIVTED_clean_linker_0, # of connection points: 2
#     Edge 45, Type (0, 1), BuildingBlock: XIVTED_clean_linker_0, # of connection points: 2
#     Edge 46, Type (0, 1), BuildingBlock: XIVTED_clean_linker_0, # of connection points: 2
#     Edge 47, Type (0, 1), BuildingBlock: XIVTED_clean_linker_0, # of connection points: 2
#     Edge 48, Type (0, 1), BuildingBlock: XIVTED_clean_linker_0, # of connection points: 2
#     Edge 49, Type (0, 1), BuildingBlock: XIVTED_clean_linker_0, # of connection points: 2
#     Edge 50, Type (0, 1), BuildingBlock: XIVTED_clean_linker_0, # of connection points: 2
#     Edge 51, Type (0, 1), BuildingBlock: XIVTED_clean_linker_0, # of connection points: 2
#     Edge 52, Type (0, 1), BuildingBlock: XIVTED_clean_linker_0, # of connection points: 2
#     Edge 53, Type (0, 1), BuildingBlock: XIVTED_clean_linker_0, # of connection points: 2
#     Edge 54, Type (0, 1), BuildingBlock: XIVTED_clean_linker_0, # of connection points: 2
#     Edge 55, Type (0, 1), BuildingBlock: XIVTED_clean_linker_0, # of connection points: 2
#     Edge 56, Type (0, 1), BuildingBlock: XIVTED_clean_linker_0, # of connection points: 2
#     Edge 57, Type (0, 1), BuildingBlock: XIVTED_clean_linker_0, # of connection points: 2
#     Edge 58, Type (0, 1), BuildingBlock: XIVTED_clean_linker_0, # of connection points: 2
#     Edge 59, Type (0, 1), BuildingBlock: XIVTED_clean_linker_0, # of connection points: 2
#     Edge 60, Type (0, 1), BuildingBlock: XIVTED_clean_linker_0, # of connection points: 2
#     Edge 61, Type (0, 1), BuildingBlock: XIVTED_clean_linker_0, # of connection points: 2
#     Edge 62, Type (0, 1), BuildingBlock: XIVTED_clean_linker_0, # of connection points: 2
#     Edge 63, Type (0, 1), BuildingBlock: XIVTED_clean_linker_0, # of connection points: 2
#     Edge 64, Type (0, 1), BuildingBlock: XIVTED_clean_linker_0, # of connection points: 2
#     Edge 65, Type (0, 1), BuildingBlock: XIVTED_clean_linker_0, # of connection points: 2
#     Edge 66, Type (0, 1), BuildingBlock: XIVTED_clean_linker_0, # of connection points: 2
#     Edge 67, Type (0, 1), BuildingBlock: XIVTED_clean_linker_0, # of connection points: 2
#     Edge 68, Type (0, 1), BuildingBlock: XIVTED_clean_linker_0, # of connection points: 2
#     Edge 69, Type (0, 1), BuildingBlock: XIVTED_clean_linker_0, # of connection points: 2
#     Edge 70, Type (0, 1), BuildingBlock: XIVTED_clean_linker_0, # of connection points: 2
#     Edge 71, Type (0, 1), BuildingBlock: XIVTED_clean_linker_0, # of connection points: 2
#     Edge 72, Type (0, 1), BuildingBlock: XIVTED_clean_linker_0, # of connection points: 2
#     Edge 73, Type (0, 1), BuildingBlock: XIVTED_clean_linker_0, # of connection points: 2
#     Edge 74, Type (0, 1), BuildingBlock: XIVTED_clean_linker_0, # of connection points: 2
#     Edge 75, Type (0, 1), BuildingBlock: XIVTED_clean_linker_0, # of connection points: 2
#     Edge 76, Type (0, 1), BuildingBlock: XIVTED_clean_linker_0, # of connection points: 2
#     Edge 77, Type (0, 1), BuildingBlock: XIVTED_clean_linker_0, # of connection points: 2
#     Edge 78, Type (0, 1), BuildingBlock: XIVTED_clean_linker_0, # of connection points: 2
#     Edge 79, Type (0, 1), BuildingBlock: XIVTED_clean_linker_0, # of connection points: 2
#     Edge 80, Type (0, 1), BuildingBlock: XIVTED_clean_linker_0, # of connection points: 2
# Relax obj value: 0.057
# Max RMSD: 0.207
# Mean RMSD: 0.146
data_MOF--net-eea--node1-CUWYAW_clean_sbu_0--node2-PAMTOO_clean_linker_0--edge1-XIVTED_clean_linker_0
_symmetry_space_group_name_H-M    P1
_symmetry_Int_Tables_number       1
_symmetry_cell_setting            triclinic
loop_
_symmetry_equiv_pos_as_xyz
'x, y, z'
_cell_length_a     55.012002
_cell_length_b     54.603231
_cell_length_c     70.030655
_cell_angle_alpha  93.411294
_cell_angle_beta   93.4488
_cell_angle_gamma 119.87478
loop_
_atom_site_label
_atom_site_type_symbol
_atom_site_fract_x
_atom_site_fract_y
_atom_site_fract_z
_atom_type_partial_charge
H0 H 0.23087 0.06953 0.41936 0.0
H1 H 0.23194 0.14911 0.42271 0.0
H2 H 0.20292 0.0952 0.36959 0.0
H3 H 0.2353 0.15605 0.3645 0.0
C4 C 0.2316 0.16486 0.37803 0.0
O5 O 0.21155 0.143 0.38708 0.0
H6 H 0.25186 0.17626 0.3875 0.0
C7 C 0.22747 0.08503 0.41255 0.0
C8 C 0.21658 0.07929 0.39308 0.0
C9 C 0.23308 0.11009 0.42348 0.0
C10 C 0.22754 0.12951 0.41468 0.0
C11 C 0.21676 0.1241 0.39532 0.0
C12 C 0.21114 0.09901 0.38459 0.0
H13 H 0.93882 0.17673 0.42957 0.0
H14 H 0.86381 0.09426 0.41933 0.0
H15 H 0.91691 0.12758 0.37429 0.0
H16 H 0.8546 0.09083 0.35919 0.0
C17 C 0.84784 0.08084 0.37273 0.0
O18 O 0.87109 0.08449 0.384 0.0
H19 H 0.83768 0.09138 0.38028 0.0
C20 C 0.92475 0.15776 0.42005 0.0
C21 C 0.93097 0.15516 0.40105 0.0
C22 C 0.90069 0.13588 0.42692 0.0
C23 C 0.88262 0.11133 0.41447 0.0
C24 C 0.88837 0.10861 0.39555 0.0
C25 C 0.91243 0.13039 0.38885 0.0
H26 H 0.84274 0.77115 0.43564 0.0
H27 H 0.9222 0.77384 0.43589 0.0
H28 H 0.88273 0.78024 0.38332 0.0
H29 H 0.91153 0.74661 0.37935 0.0
C30 C 0.92854 0.75805 0.3914 0.0
O31 O 0.927 0.78083 0.39948 0.0
H32 H 0.92554 0.74301 0.40231 0.0
C33 C 0.8599 0.77274 0.42798 0.0
C34 C 0.85958 0.77575 0.40815 0.0
C35 C 0.88209 0.7716 0.43813 0.0
C36 C 0.90464 0.7742 0.42831 0.0
C37 C 0.90481 0.77753 0.40865 0.0
C38 C 0.88234 0.77812 0.39859 0.0
H39 H 0.05702 0.23249 0.57354 0.0
H40 H 0.13374 0.22946 0.57667 0.0
H41 H 0.08976 0.21785 0.62661 0.0
H42 H 0.15242 0.25128 0.6339 0.0
C43 C 0.15744 0.24158 0.62144 0.0
O44 O 0.13286 0.21886 0.61238 0.0
H45 H 0.16772 0.25804 0.61138 0.0
C46 C 0.07287 0.23023 0.58188 0.0
C47 C 0.07006 0.22491 0.60133 0.0
C48 C 0.09589 0.23228 0.57286 0.0
C49 C 0.11569 0.22777 0.58323 0.0
C50 C 0.11321 0.22244 0.60248 0.0
C51 C 0.0907 0.22124 0.61154 0.0
H52 H 0.77538 0.835 0.59514 0.0
H53 H 0.77637 0.91448 0.59684 0.0
H54 H 0.79976 0.88943 0.64833 0.0
H55 H 0.76971 0.92139 0.65579 0.0
C56 C 0.77317 0.9316 0.64217 0.0
O57 O 0.79361 0.92897 0.63332 0.0
H58 H 0.75286 0.92071 0.63273 0.0
C59 C 0.77849 0.85407 0.60321 0.0
C60 C 0.78791 0.8595 0.62297 0.0
C61 C 0.77446 0.87385 0.59357 0.0
C62 C 0.77951 0.89903 0.60395 0.0
C63 C 0.7884 0.90442 0.62363 0.0
C64 C 0.79271 0.88483 0.63309 0.0
H65 H 0.17458 0.94714 0.58863 0.0
H66 H 0.09444 0.86946 0.57891 0.0
H67 H 0.12219 0.91633 0.63481 0.0
H68 H 0.09676 0.8531 0.63324 0.0
C69 C 0.07989 0.84679 0.62124 0.0
O70 O 0.08195 0.87079 0.61423 0.0
H71 H 0.08294 0.83397 0.60969 0.0
C72 C 0.15537 0.93136 0.59391 0.0
C73 C 0.15098 0.93479 0.61322 0.0
C74 C 0.1352 0.90797 0.5813 0.0
C75 C 0.11041 0.88758 0.58835 0.0
C76 C 0.10587 0.89059 0.60762 0.0
C77 C 0.12598 0.91424 0.61996 0.0
H78 H 0.89794 0.40471 0.75317 0.0
H79 H 0.89543 0.48217 0.75608 0.0
H80 H 0.86836 0.42861 0.70298 0.0
H81 H 0.90176 0.48924 0.69761 0.0
C82 C 0.89766 0.49827 0.71087 0.0
O83 O 0.87734 0.47659 0.71988 0.0
H84 H 0.91769 0.50983 0.72058 0.0
C85 C 0.89272 0.4189 0.7462 0.0
C86 C 0.88227 0.41286 0.72658 0.0
C87 C 0.89706 0.44348 0.75706 0.0
C88 C 0.89219 0.46306 0.74797 0.0
C89 C 0.88234 0.45775 0.72843 0.0
C90 C 0.87696 0.43261 0.71788 0.0
H91 H 0.6097 0.51221 0.76319 0.0
H92 H 0.53455 0.43002 0.75149 0.0
H93 H 0.58868 0.46503 0.70722 0.0
H94 H 0.52681 0.42807 0.69106 0.0
C95 C 0.51966 0.41847 0.70466 0.0
O96 O 0.54251 0.42153 0.71611 0.0
H97 H 0.51002 0.42975 0.71195 0.0
C98 C 0.59576 0.49357 0.75336 0.0
C99 C 0.60231 0.49169 0.73436 0.0
C100 C 0.57147 0.47139 0.75983 0.0
C101 C 0.55354 0.44727 0.74697 0.0
C102 C 0.55967 0.44524 0.72807 0.0
C103 C 0.58394 0.46731 0.72179 0.0
H104 H 0.51165 0.10968 0.77319 0.0
H105 H 0.58899 0.10846 0.77041 0.0
H106 H 0.55435 0.12955 0.72184 0.0
H107 H 0.57916 0.09253 0.71242 0.0
C108 C 0.59586 0.10079 0.72475 0.0
O109 O 0.59579 0.12284 0.73537 0.0
H110 H 0.59132 0.0832 0.7338 0.0
C111 C 0.52926 0.11278 0.7654 0.0
C112 C 0.53042 0.12043 0.74653 0.0
C113 C 0.55016 0.10831 0.77418 0.0
C114 C 0.57246 0.11148 0.76383 0.0
C115 C 0.57378 0.11896 0.74498 0.0
C116 C 0.55279 0.12332 0.73632 0.0
H117 H 0.73467 0.58541 0.91175 0.0
H118 H 0.80819 0.57606 0.91392 0.0
H119 H 0.75204 0.54534 0.95761 0.0
H120 H 0.81295 0.57634 0.97197 0.0
C121 C 0.82145 0.57164 0.9591 0.0
O122 O 0.79931 0.55266 0.94593 0.0
H123 H 0.8345 0.59191 0.9528 0.0
C124 C 0.74788 0.57827 0.91863 0.0
C125 C 0.74025 0.56462 0.93549 0.0
C126 C 0.77239 0.58251 0.91062 0.0
C127 C 0.78931 0.57323 0.91984 0.0
C128 C 0.78211 0.5602 0.9368 0.0
C129 C 0.75746 0.55556 0.94447 0.0
H130 H 0.4466 0.17208 0.92616 0.0
H131 H 0.44631 0.25102 0.93158 0.0
H132 H 0.46838 0.22159 0.98127 0.0
H133 H 0.43852 0.2532 0.99067 0.0
C134 C 0.44186 0.2641 0.97735 0.0
O135 O 0.46257 0.26238 0.96821 0.0
H136 H 0.42157 0.25336 0.96789 0.0
C137 C 0.44914 0.19035 0.93499 0.0
C138 C 0.45776 0.19402 0.9548 0.0
C139 C 0.4452 0.21092 0.92634 0.0
C140 C 0.44946 0.235 0.93783 0.0
C141 C 0.45769 0.23866 0.95753 0.0
C142 C 0.4619 0.21834 0.96598 0.0
H143 H 0.83875 0.2701 0.92047 0.0
H144 H 0.75864 0.19239 0.91321 0.0
H145 H 0.78557 0.24548 0.96668 0.0
H146 H 0.75966 0.18334 0.96914 0.0
C147 C 0.74345 0.17547 0.95651 0.0
O148 O 0.74544 0.19829 0.94773 0.0
H149 H 0.74755 0.16187 0.9463 0.0
C150 C 0.81964 0.25508 0.92626 0.0
C151 C 0.81491 0.26098 0.94506 0.0
C152 C 0.79957 0.23045 0.9146 0.0
C153 C 0.7743 0.21164 0.92188 0.0
C154 C 0.76944 0.21704 0.94065 0.0
C155 C 0.78958 0.2417 0.95215 0.0
H156 H 0.5791 0.74413 0.08207 0.0
H157 H 0.57214 0.81918 0.08357 0.0
H158 H 0.53741 0.75902 0.03365 0.0
H159 H 0.56521 0.81804 0.02382 0.0
C160 C 0.56456 0.82844 0.03777 0.0
O161 O 0.54697 0.80801 0.04887 0.0
H162 H 0.5864 0.84047 0.04516 0.0
C163 C 0.57193 0.75691 0.07515 0.0
C164 C 0.5576 0.74785 0.05644 0.0
C165 C 0.57673 0.78222 0.08529 0.0
C166 C 0.56816 0.79931 0.07622 0.0
C167 C 0.55467 0.79109 0.05751 0.0
C168 C 0.54891 0.7653 0.04782 0.0
H169 H 0.27139 0.84271 0.09513 0.0
H170 H 0.19631 0.76038 0.08434 0.0
H171 H 0.25043 0.79391 0.03983 0.0
H172 H 0.18869 0.75724 0.02401 0.0
C173 C 0.18144 0.74735 0.03751 0.0
O174 O 0.2043 0.75078 0.04915 0.0
H175 H 0.17127 0.75811 0.04477 0.0
C176 C 0.25744 0.8238 0.08553 0.0
C177 C 0.26401 0.8213 0.06664 0.0
C178 C 0.23317 0.80193 0.09219 0.0
C179 C 0.21527 0.77745 0.07964 0.0
C180 C 0.22141 0.77482 0.06081 0.0
C181 C 0.24567 0.79662 0.05432 0.0
H182 H 0.17787 0.44205 0.10516 0.0
H183 H 0.25667 0.4434 0.10392 0.0
H184 H 0.22141 0.4617 0.05423 0.0
H185 H 0.24742 0.42538 0.04614 0.0
C186 C 0.2641 0.43438 0.05852 0.0
O187 O 0.26339 0.45644 0.06861 0.0
H188 H 0.25996 0.41729 0.06794 0.0
C189 C 0.19583 0.44548 0.09769 0.0
C190 C 0.19711 0.45271 0.07871 0.0
C191 C 0.21712 0.44207 0.10701 0.0
C192 C 0.23981 0.44558 0.09698 0.0
C193 C 0.2411 0.45236 0.07794 0.0
C194 C 0.21981 0.45586 0.06881 0.0
H195 H 0.3982 0.90542 0.24275 0.0
H196 H 0.47308 0.89915 0.25015 0.0
H197 H 0.42092 0.88186 0.29594 0.0
H198 H 0.48236 0.91126 0.30923 0.0
C199 C 0.48936 0.90523 0.29608 0.0
O200 O 0.46607 0.88404 0.28472 0.0
H201 H 0.50046 0.9244 0.28826 0.0
C202 C 0.41211 0.901 0.25159 0.0
C203 C 0.40572 0.89271 0.27022 0.0
C204 C 0.43673 0.90412 0.24434 0.0
C205 C 0.45437 0.89761 0.25556 0.0
C206 C 0.44843 0.88952 0.274 0.0
C207 C 0.42446 0.88736 0.28137 0.0
H208 H 0.10419 0.50312 0.26157 0.0
H209 H 0.11092 0.5852 0.26648 0.0
H210 H 0.13564 0.55688 0.31551 0.0
H211 H 0.10604 0.58852 0.32586 0.0
C212 C 0.10889 0.59931 0.3125 0.0
O213 O 0.12902 0.59719 0.30284 0.0
H214 H 0.08819 0.58851 0.30351 0.0
C215 C 0.10984 0.52264 0.27021 0.0
C216 C 0.12023 0.52678 0.28978 0.0
C217 C 0.10705 0.54381 0.26149 0.0
C218 C 0.11355 0.56887 0.27274 0.0
C219 C 0.12316 0.57305 0.29221 0.0
C220 C 0.12701 0.55243 0.30059 0.0
H221 H 0.50552 0.59788 0.25112 0.0
H222 H 0.4237 0.52271 0.24586 0.0
H223 H 0.45088 0.58171 0.29631 0.0
H224 H 0.42561 0.52086 0.30302 0.0
C225 C 0.40948 0.51131 0.29032 0.0
O226 O 0.41119 0.53261 0.27979 0.0
H227 H 0.41397 0.49677 0.28138 0.0
C228 C 0.4858 0.58495 0.25701 0.0
C229 C 0.48113 0.59366 0.27511 0.0
C230 C 0.46511 0.55976 0.24614 0.0
C231 C 0.43972 0.54247 0.25383 0.0
C232 C 0.43513 0.55016 0.27211 0.0
C233 C 0.45546 0.57583 0.28253 0.0
C234 C 0.52803 0.01987 0.06642 0.0
Eu235 Eu 0.51113 0.01711 0.03037 0.0
C236 C 0.51644 0.00678 0.08391 0.0
C237 C 0.52788 0.02294 0.10176 0.0
C238 C 0.51768 0.01105 0.11867 0.0
C239 C 0.49584 0.98265 0.11807 0.0
C240 C 0.48403 0.9666 0.10006 0.0
C241 C 0.49427 0.97858 0.08311 0.0
C242 C 0.49775 0.05365 0.01504 0.0
C243 C 0.44376 0.97092 0.02093 0.0
C244 C 0.46816 0.99747 0.95295 0.0
Eu245 Eu 0.48462 0.99981 0.98902 0.0
C246 C 0.48072 0.01106 0.93583 0.0
C247 C 0.47093 0.99511 0.91781 0.0
C248 C 0.48254 0.00742 0.90131 0.0
C249 C 0.50412 0.03599 0.90253 0.0
C250 C 0.51405 0.05191 0.92067 0.0
C251 C 0.50252 0.0395 0.93722 0.0
C252 C 0.49847 0.96347 0.00422 0.0
C253 C 0.55237 0.04519 0.99857 0.0
O254 O 0.52986 0.00368 0.0527 0.0
O255 O 0.5193 0.03641 0.05993 0.0
O256 O 0.52026 0.06161 0.02663 0.0
O257 O 0.48275 0.02695 0.01272 0.0
O258 O 0.46692 0.98095 0.03292 0.0
O259 O 0.44457 0.97819 0.00323 0.0
O260 O 0.46615 0.01349 0.9667 0.0
O261 O 0.47637 0.98054 0.95945 0.0
O262 O 0.47593 0.95539 0.99262 0.0
O263 O 0.51324 0.99019 0.00655 0.0
O264 O 0.52939 0.0356 0.98641 0.0
O265 O 0.55108 0.03778 0.01624 0.0
H266 H 0.54483 0.04482 0.10263 0.0
H267 H 0.52688 0.0242 0.13223 0.0
H268 H 0.46733 0.94463 0.0991 0.0
H269 H 0.48508 0.96576 0.06942 0.0
H270 H 0.45417 0.97311 0.9165 0.0
H271 H 0.4742 0.99472 0.88752 0.0
H272 H 0.53084 0.07388 0.92208 0.0
H273 H 0.51059 0.05213 0.95104 0.0
C274 C 0.00468 0.52516 0.06553 0.0
Eu275 Eu 0.99725 0.50288 0.03018 0.0
C276 C 0.01821 0.52633 0.08457 0.0
C277 C 0.02187 0.50392 0.08995 0.0
C278 C 0.03362 0.50516 0.10855 0.0
C279 C 0.04208 0.52893 0.12194 0.0
C280 C 0.03877 0.55148 0.11628 0.0
C281 C 0.02693 0.55014 0.09778 0.0
C282 C 0.95863 0.44891 0.01608 0.0
C283 C 0.04063 0.47968 0.02288 0.0
C284 C 0.99484 0.46344 0.95401 0.0
Eu285 Eu 0.00289 0.48556 0.98946 0.0
C286 C 0.98415 0.46562 0.9347 0.0
C287 C 0.00203 0.47306 0.91998 0.0
C288 C 0.99217 0.47391 0.90132 0.0
C289 C 0.96409 0.46706 0.89695 0.0
C290 C 0.94627 0.46003 0.91176 0.0
C291 C 0.95622 0.45941 0.93049 0.0
C292 C 0.04141 0.53973 0.00314 0.0
C293 C 0.96047 0.5104 0.99708 0.0
O294 O 0.02142 0.53818 0.05251 0.0
O295 O 0.98285 0.50079 0.0586 0.0
O296 O 0.95291 0.46502 0.02699 0.0
O297 O 0.98451 0.46137 0.01387 0.0
O298 O 0.0341 0.4954 0.03411 0.0
O299 O 0.02785 0.46916 0.00532 0.0
O300 O 0.97661 0.45206 0.96657 0.0
O301 O 0.01865 0.48529 0.96166 0.0
O302 O 0.04685 0.52373 0.99189 0.0
O303 O 0.01563 0.52716 0.00564 0.0
O304 O 0.96703 0.49519 0.98525 0.0
O305 O 0.97282 0.51964 0.01478 0.0
H306 H 0.01544 0.48541 0.07987 0.0
H307 H 0.03617 0.4876 0.11242 0.0
H308 H 0.04472 0.56991 0.1263 0.0
H309 H 0.0242 0.5676 0.09387 0.0
H310 H 0.0236 0.47778 0.92286 0.0
H311 H 0.0063 0.47905 0.89018 0.0
H312 H 0.9246 0.45491 0.90884 0.0
H313 H 0.94195 0.45374 0.94156 0.0
C314 C 0.47701 0.47876 0.94508 0.0
Eu315 Eu 0.4945 0.50398 0.98001 0.0
C316 C 0.48918 0.47914 0.92694 0.0
C317 C 0.51629 0.50094 0.92421 0.0
C318 C 0.52736 0.50108 0.9067 0.0
C319 C 0.51155 0.4793 0.89173 0.0
C320 C 0.48449 0.45742 0.89467 0.0
C321 C 0.47343 0.45739 0.91212 0.0
C322 C 0.51158 0.55914 0.99098 0.0
C323 C 0.56201 0.52936 0.98879 0.0
C324 C 0.54091 0.5514 0.05583 0.0
Eu325 Eu 0.52272 0.52552 0.02109 0.0
C326 C 0.53154 0.54803 0.07518 0.0
C327 C 0.50406 0.52741 0.07821 0.0
C328 C 0.49551 0.52488 0.09678 0.0
C329 C 0.51438 0.54285 0.11259 0.0
C330 C 0.54191 0.56338 0.10937 0.0
C331 C 0.55037 0.56592 0.09084 0.0
C332 C 0.50602 0.47049 0.01042 0.0
C333 C 0.45425 0.49848 0.01212 0.0
O334 O 0.48446 0.46823 0.95905 0.0
O335 O 0.47666 0.50177 0.95093 0.0
O336 O 0.48889 0.54248 0.97964 0.0
O337 O 0.52488 0.5466 0.99499 0.0
O338 O 0.53852 0.51114 0.97798 0.0
O339 O 0.56155 0.54238 0.00518 0.0
O340 O 0.52681 0.55753 0.04317 0.0
O341 O 0.54685 0.53251 0.04874 0.0
O342 O 0.5283 0.48722 0.02208 0.0
O343 O 0.49249 0.48277 0.00624 0.0
O344 O 0.47744 0.51508 0.02386 0.0
O345 O 0.45523 0.48802 0.99488 0.0
H346 H 0.52882 0.51783 0.93559 0.0
H347 H 0.54837 0.51805 0.90496 0.0
H348 H 0.47164 0.44054 0.88336 0.0
H349 H 0.45246 0.44041 0.914 0.0
H350 H 0.48928 0.51335 0.06623 0.0
H351 H 0.47426 0.5087 0.09878 0.0
H352 H 0.55682 0.57788 0.12113 0.0
H353 H 0.57163 0.58202 0.08871 0.0
C354 C 0.19332 0.35286 0.39861 0.0
Eu355 Eu 0.17695 0.35053 0.36253 0.0
C356 C 0.18078 0.3378 0.41528 0.0
C357 C 0.18835 0.35309 0.43349 0.0
C358 C 0.17618 0.33949 0.44949 0.0
C359 C 0.15625 0.31029 0.44756 0.0
C360 C 0.14877 0.29495 0.42926 0.0
C361 C 0.16085 0.30863 0.41322 0.0
C362 C 0.16217 0.38624 0.34738 0.0
C363 C 0.10987 0.30323 0.35325 0.0
C364 C 0.13406 0.32942 0.28514 0.0
Eu365 Eu 0.15049 0.3325 0.32133 0.0
C366 C 0.14645 0.34384 0.26822 0.0
C367 C 0.17427 0.3519 0.26488 0.0
C368 C 0.18543 0.36536 0.24857 0.0
C369 C 0.16907 0.37125 0.2355 0.0
C370 C 0.14137 0.36345 0.23907 0.0
C371 C 0.13016 0.34982 0.25527 0.0
C372 C 0.16505 0.29681 0.33678 0.0
C373 C 0.21782 0.37962 0.33076 0.0
O374 O 0.19727 0.3385 0.38472 0.0
O375 O 0.18342 0.36854 0.39228 0.0
O376 O 0.18465 0.39464 0.3591 0.0
O377 O 0.14781 0.35947 0.34485 0.0
O378 O 0.13318 0.31361 0.36514 0.0
O379 O 0.11043 0.31038 0.33553 0.0
O380 O 0.13078 0.34466 0.29873 0.0
O381 O 0.14334 0.31343 0.29186 0.0
O382 O 0.14239 0.28838 0.32523 0.0
O383 O 0.17959 0.32357 0.33896 0.0
O384 O 0.19471 0.36913 0.3186 0.0
O385 O 0.21691 0.37266 0.34852 0.0
H386 H 0.20364 0.37561 0.43534 0.0
H387 H 0.18263 0.35179 0.46344 0.0
H388 H 0.13328 0.2725 0.42731 0.0
H389 H 0.15451 0.29647 0.39922 0.0
H390 H 0.18734 0.34777 0.27483 0.0
H391 H 0.20693 0.37141 0.24628 0.0
H392 H 0.12816 0.36743 0.22914 0.0
H393 H 0.1087 0.34382 0.25764 0.0
C394 C 0.67506 0.85329 0.39739 0.0
Eu395 Eu 0.66691 0.83362 0.36134 0.0
C396 C 0.68628 0.85068 0.41635 0.0
C397 C 0.66908 0.84366 0.43145 0.0
C398 C 0.67967 0.84305 0.44994 0.0
C399 C 0.70779 0.8497 0.45373 0.0
C400 C 0.72484 0.85611 0.4385 0.0
C401 C 0.71417 0.8565 0.41995 0.0
C402 C 0.62786 0.78059 0.34572 0.0
C403 C 0.70829 0.8087 0.3519 0.0
C404 C 0.6647 0.80052 0.28368 0.0
Eu405 Eu 0.67249 0.81992 0.31981 0.0
C406 C 0.65768 0.80557 0.26413 0.0
C407 C 0.67845 0.81544 0.2513 0.0
C408 C 0.67172 0.81764 0.23217 0.0
C409 C 0.64396 0.80973 0.22536 0.0
C410 C 0.62333 0.80062 0.23836 0.0
C411 C 0.63009 0.79853 0.25755 0.0
C412 C 0.71151 0.87309 0.33526 0.0
C413 C 0.63106 0.8451 0.32964 0.0
O414 O 0.69306 0.86585 0.38489 0.0
O415 O 0.65147 0.83134 0.38953 0.0
O416 O 0.62263 0.79562 0.35803 0.0
O417 O 0.65362 0.79332 0.34313 0.0
O418 O 0.70194 0.82321 0.3644 0.0
O419 O 0.69631 0.80105 0.334 0.0
O420 O 0.64482 0.79086 0.29525 0.0
O421 O 0.68934 0.81923 0.29253 0.0
O422 O 0.71648 0.85805 0.32281 0.0
O423 O 0.68577 0.86035 0.33787 0.0
O424 O 0.63741 0.83077 0.31691 0.0
O425 O 0.6432 0.85245 0.34747 0.0
H426 H 0.64757 0.83925 0.42904 0.0
H427 H 0.66611 0.83837 0.46141 0.0
H428 H 0.74651 0.86103 0.44097 0.0
H429 H 0.72789 0.86183 0.40855 0.0
H430 H 0.69985 0.82087 0.25596 0.0
H431 H 0.68823 0.82516 0.22264 0.0
H432 H 0.60167 0.79405 0.23357 0.0
H433 H 0.61353 0.79066 0.26703 0.0
C434 C 0.14333 0.81394 0.27839 0.0
Eu435 Eu 0.16065 0.83873 0.31337 0.0
C436 C 0.1551 0.81342 0.26021 0.0
C437 C 0.18169 0.8354 0.2567 0.0
C438 C 0.19224 0.83456 0.23913 0.0
C439 C 0.17643 0.81162 0.22489 0.0
C440 C 0.14992 0.78958 0.22862 0.0
C441 C 0.13937 0.79051 0.24613 0.0
C442 C 0.17428 0.8919 0.32693 0.0
C443 C 0.2291 0.8652 0.32302 0.0
C444 C 0.20895 0.89331 0.38934 0.0
Eu445 Eu 0.19004 0.86105 0.35695 0.0
C446 C 0.20062 0.89308 0.40904 0.0
C447 C 0.19876 0.87275 0.42119 0.0
C448 C 0.1907 0.87318 0.43975 0.0
C449 C 0.18427 0.89389 0.44651 0.0
C450 C 0.18599 0.91404 0.43422 0.0
C451 C 0.19421 0.91372 0.41577 0.0
C452 C 0.16929 0.80413 0.34931 0.0
C453 C 0.12119 0.8288 0.34724 0.0
O454 O 0.15002 0.80286 0.2924 0.0
O455 O 0.14397 0.83753 0.28415 0.0
O456 O 0.15207 0.87535 0.31504 0.0
O457 O 0.18864 0.88017 0.33026 0.0
O458 O 0.20645 0.85276 0.31027 0.0
O459 O 0.22845 0.87183 0.34146 0.0
O460 O 0.19274 0.89548 0.37585 0.0
O461 O 0.21749 0.87563 0.3839 0.0
O462 O 0.18283 0.81826 0.36575 0.0
O463 O 0.1679 0.8212 0.3387 0.0
O464 O 0.14388 0.84719 0.35892 0.0
O465 O 0.12262 0.81929 0.32975 0.0
H466 H 0.1942 0.85319 0.26751 0.0
H467 H 0.21284 0.8517 0.23675 0.0
H468 H 0.13706 0.77182 0.21787 0.0
H469 H 0.11881 0.77338 0.24862 0.0
H470 H 0.20358 0.85655 0.41642 0.0
H471 H 0.18994 0.85755 0.44889 0.0
H472 H 0.18072 0.92998 0.43875 0.0
H473 H 0.19542 0.9296 0.40668 0.0
C474 C 0.86769 0.68812 0.73144 0.0
Eu475 Eu 0.84945 0.68658 0.69594 0.0
C476 C 0.85606 0.67843 0.74969 0.0
C477 C 0.8686 0.69683 0.76663 0.0
C478 C 0.85843 0.68809 0.78424 0.0
C479 C 0.83553 0.66066 0.78527 0.0
C480 C 0.82265 0.6424 0.76818 0.0
C481 C 0.83281 0.65122 0.75053 0.0
C482 C 0.83385 0.72262 0.68246 0.0
C483 C 0.78161 0.64073 0.68752 0.0
C484 C 0.80345 0.66987 0.61957 0.0
Eu485 Eu 0.82128 0.67025 0.65497 0.0
C486 C 0.81569 0.68344 0.60238 0.0
C487 C 0.84353 0.69146 0.59921 0.0
C488 C 0.85462 0.70406 0.58262 0.0
C489 C 0.83809 0.70905 0.56903 0.0
C490 C 0.81034 0.70129 0.57245 0.0
C491 C 0.79926 0.68858 0.58897 0.0
C492 C 0.83669 0.63408 0.66848 0.0
C493 C 0.88923 0.71525 0.66351 0.0
O494 O 0.86373 0.6686 0.71784 0.0
O495 O 0.86446 0.70838 0.72495 0.0
O496 O 0.8569 0.73086 0.69351 0.0
O497 O 0.81955 0.69591 0.67973 0.0
O498 O 0.80507 0.65111 0.69929 0.0
O499 O 0.78186 0.64784 0.6698 0.0
O500 O 0.8038 0.68664 0.63384 0.0
O501 O 0.81002 0.65132 0.62525 0.0
O502 O 0.81374 0.6259 0.6573 0.0
O503 O 0.85108 0.6608 0.67117 0.0
O504 O 0.86578 0.70625 0.65195 0.0
O505 O 0.88864 0.70696 0.68087 0.0
H506 H 0.88642 0.71798 0.76625 0.0
H507 H 0.86852 0.70287 0.79706 0.0
H508 H 0.80516 0.62105 0.76846 0.0
H509 H 0.8227 0.63666 0.73761 0.0
H510 H 0.85665 0.68788 0.60951 0.0
H511 H 0.87615 0.71008 0.58049 0.0
H512 H 0.79696 0.70452 0.56215 0.0
H513 H 0.77775 0.68259 0.59121 0.0
C514 C 0.34289 0.20009 0.73207 0.0
Eu515 Eu 0.33437 0.17639 0.69702 0.0
C516 C 0.35602 0.20026 0.75098 0.0
C517 C 0.361 0.17824 0.75524 0.0
C518 C 0.37295 0.17863 0.77357 0.0
C519 C 0.38029 0.20116 0.7878 0.0
C520 C 0.37549 0.22327 0.78329 0.0
C521 C 0.36344 0.22278 0.76506 0.0
C522 C 0.2952 0.12206 0.68406 0.0
C523 C 0.37645 0.15136 0.69063 0.0
C524 C 0.33023 0.13254 0.62181 0.0
Eu525 Eu 0.33912 0.15688 0.6567 0.0
C526 C 0.32126 0.13442 0.6019 0.0
C527 C 0.34021 0.14061 0.58794 0.0
C528 C 0.33183 0.1406 0.56872 0.0
C529 C 0.30416 0.13411 0.56296 0.0
C530 C 0.28534 0.12855 0.57704 0.0
C531 C 0.29379 0.1287 0.59633 0.0
C532 C 0.37846 0.21129 0.66924 0.0
C533 C 0.29805 0.18366 0.66339 0.0
O534 O 0.35997 0.21182 0.71896 0.0
O535 O 0.32003 0.17647 0.72529 0.0
O536 O 0.28981 0.1388 0.69456 0.0
O537 O 0.32098 0.13414 0.68167 0.0
O538 O 0.37068 0.16811 0.70144 0.0
O539 O 0.36317 0.14013 0.67327 0.0
O540 O 0.31129 0.12359 0.6341 0.0
O541 O 0.35481 0.15322 0.62946 0.0
O542 O 0.38327 0.19461 0.6582 0.0
O543 O 0.35278 0.1993 0.67199 0.0
O544 O 0.30401 0.16752 0.65197 0.0
O545 O 0.31061 0.19342 0.68103 0.0
H546 H 0.35555 0.16075 0.74446 0.0
H547 H 0.37664 0.16145 0.77656 0.0
H548 H 0.38055 0.24072 0.794 0.0
H549 H 0.35971 0.23992 0.76198 0.0
H550 H 0.36149 0.14506 0.59186 0.0
H551 H 0.34705 0.1455 0.55835 0.0
H552 H 0.26379 0.1232 0.57309 0.0
H553 H 0.27865 0.1238 0.60676 0.0
C554 C 0.8096 0.14845 0.61266 0.0
Eu555 Eu 0.82756 0.17314 0.64767 0.0
C556 C 0.82132 0.14885 0.59431 0.0
C557 C 0.84776 0.17128 0.59099 0.0
C558 C 0.85857 0.1711 0.57342 0.0
C559 C 0.84316 0.14837 0.55898 0.0
C560 C 0.8167 0.12595 0.56248 0.0
C561 C 0.80592 0.12622 0.57999 0.0
C562 C 0.84323 0.22729 0.66023 0.0
C563 C 0.89574 0.19963 0.6559 0.0
C564 C 0.87438 0.21734 0.7239 0.0
Eu565 Eu 0.85599 0.19265 0.68886 0.0
C566 C 0.86448 0.21542 0.74303 0.0
C567 C 0.83717 0.19465 0.74625 0.0
C568 C 0.82831 0.19333 0.76469 0.0
C569 C 0.84671 0.21271 0.78017 0.0
C570 C 0.874 0.23354 0.77672 0.0
C571 C 0.88277 0.23485 0.75833 0.0
C572 C 0.84052 0.13855 0.67639 0.0
C573 C 0.78742 0.16523 0.68047 0.0
O574 O 0.81728 0.13771 0.62638 0.0
O575 O 0.80938 0.17144 0.6188 0.0
O576 O 0.82065 0.21076 0.64871 0.0
O577 O 0.85725 0.21521 0.66359 0.0
O578 O 0.87248 0.18404 0.64411 0.0
O579 O 0.89526 0.20903 0.67362 0.0
O580 O 0.86301 0.22596 0.71096 0.0
O581 O 0.87726 0.19624 0.71703 0.0
O582 O 0.86278 0.15508 0.68813 0.0
O583 O 0.82636 0.15048 0.67302 0.0
O584 O 0.8106 0.18098 0.69239 0.0
O585 O 0.78835 0.15626 0.66275 0.0
H586 H 0.86 0.18888 0.60198 0.0
H587 H 0.87912 0.18852 0.57125 0.0
H588 H 0.80413 0.10834 0.55157 0.0
H589 H 0.78548 0.10873 0.58234 0.0
H590 H 0.82279 0.17945 0.73454 0.0
H591 H 0.80725 0.17692 0.76689 0.0
H592 H 0.88853 0.24913 0.7882 0.0
H593 H 0.90387 0.25111 0.75604 0.0
H594 H 0.31643 0.85182 0.0867 0.0
H595 H 0.39134 0.94222 0.00033 0.0
H596 H 0.27186 0.84266 0.03147 0.0
H597 H 0.43391 0.952 0.05653 0.0
H598 H 0.34719 0.90637 0.01136 0.0
H599 H 0.35945 0.88915 0.0758 0.0
C600 C 0.3156 0.85781 0.07231 0.0
C601 C 0.29037 0.8441 0.06003 0.0
C602 C 0.3662 0.91645 0.02127 0.0
C603 C 0.33989 0.88676 0.04729 0.0
C604 C 0.39143 0.93697 0.01499 0.0
C605 C 0.41647 0.95015 0.02748 0.0
C606 C 0.366 0.90903 0.04016 0.0
C607 C 0.41523 0.94241 0.04633 0.0
C608 C 0.34027 0.87906 0.06604 0.0
C609 C 0.29085 0.85243 0.04138 0.0
N610 N 0.3905 0.92236 0.05204 0.0
N611 N 0.31519 0.87321 0.03558 0.0
H612 H 0.17423 0.48206 0.09499 0.0
H613 H 0.0639 0.45171 0.0041 0.0
H614 H 0.16974 0.43474 0.042 0.0
H615 H 0.06891 0.49576 0.05881 0.0
H616 H 0.10269 0.44538 0.01698 0.0
H617 H 0.13609 0.48792 0.08113 0.0
C618 C 0.16511 0.4728 0.08041 0.0
C619 C 0.17498 0.45762 0.06971 0.0
C620 C 0.0952 0.45638 0.02612 0.0
C621 C 0.13122 0.46445 0.05358 0.0
C622 C 0.07302 0.45994 0.01881 0.0
C623 C 0.06312 0.47433 0.03036 0.0
C624 C 0.1075 0.46733 0.0451 0.0
C625 C 0.07581 0.4846 0.0493 0.0
C626 C 0.14336 0.47623 0.07246 0.0
C627 C 0.1628 0.44667 0.05073 0.0
N628 N 0.09728 0.48092 0.05602 0.0
N629 N 0.14141 0.45018 0.04327 0.0
H630 H 0.54852 0.69886 0.07199 0.0
H631 H 0.48787 0.59095 0.9812 0.0
H632 H 0.55197 0.73266 0.0172 0.0
H633 H 0.55444 0.59353 0.01868 0.0
H634 H 0.50037 0.63822 0.99624 0.0
H635 H 0.53993 0.65461 0.05503 0.0
C636 C 0.54784 0.69738 0.05648 0.0
C637 C 0.55144 0.72016 0.04618 0.0
C638 C 0.51216 0.62829 0.00107 0.0
C639 C 0.53998 0.66856 0.02675 0.0
C640 C 0.50506 0.60143 0.99259 0.0
C641 C 0.51985 0.58817 0.99898 0.0
C642 C 0.5336 0.64144 0.01635 0.0
C643 C 0.54211 0.60275 0.01365 0.0
C644 C 0.54263 0.67187 0.04685 0.0
C645 C 0.54894 0.71586 0.02593 0.0
N646 N 0.54799 0.62841 0.02212 0.0
N647 N 0.54306 0.69047 0.01687 0.0
H648 H 0.87246 0.28508 0.94839 0.0
H649 H 0.90165 0.42178 0.017 0.0
H650 H 0.80646 0.29728 0.96896 0.0
H651 H 0.96739 0.41129 0.99423 0.0
H652 H 0.86655 0.37512 0.00088 0.0
H653 H 0.90752 0.33006 0.96638 0.0
C654 C 0.86532 0.29723 0.95667 0.0
C655 C 0.8364 0.28742 0.95701 0.0
C656 C 0.88864 0.38295 0.99943 0.0
C657 C 0.87658 0.33899 0.97785 0.0
C658 C 0.90869 0.40957 0.00865 0.0
C659 C 0.93743 0.4204 0.00687 0.0
C660 C 0.89741 0.367 0.98837 0.0
C661 C 0.94541 0.40374 0.99589 0.0
C662 C 0.88538 0.32288 0.96702 0.0
C663 C 0.82847 0.30385 0.96836 0.0
N664 N 0.9255 0.3779 0.98701 0.0
N665 N 0.84843 0.32886 0.97823 0.0
H666 H 0.69659 0.5141 0.94309 0.0
H667 H 0.61401 0.57745 0.99717 0.0
H668 H 0.7251 0.60361 0.94663 0.0
H669 H 0.57147 0.49485 0.96466 0.0
H670 H 0.65824 0.58676 0.98439 0.0
H671 H 0.65342 0.50578 0.9568 0.0
C672 C 0.69371 0.53197 0.94683 0.0
C673 C 0.71419 0.55953 0.94369 0.0
C674 C 0.63914 0.56663 0.98013 0.0
C675 C 0.66536 0.5503 0.95958 0.0
C676 C 0.61403 0.56126 0.98746 0.0
C677 C 0.5891 0.53539 0.98191 0.0
C678 C 0.63932 0.54569 0.96758 0.0
C679 C 0.5902 0.51515 0.96922 0.0
C680 C 0.66914 0.52723 0.95456 0.0
C681 C 0.70958 0.58203 0.94872 0.0
N682 N 0.61492 0.52064 0.9626 0.0
N683 N 0.68567 0.57697 0.95658 0.0
H684 H 0.50202 0.20479 0.9807 0.0
H685 H 0.44997 0.04126 0.99213 0.0
H686 H 0.42668 0.13569 0.94915 0.0
H687 H 0.52994 0.11115 0.01749 0.0
H688 H 0.43982 0.07509 0.97707 0.0
H689 H 0.51124 0.17044 0.99537 0.0
C690 C 0.48729 0.18235 0.97695 0.0
C691 C 0.46346 0.17312 0.96373 0.0
C692 C 0.4596 0.083 0.9859 0.0
C693 C 0.47406 0.13353 0.98038 0.0
C694 C 0.46541 0.06371 0.99445 0.0
C695 C 0.49089 0.07346 0.00596 0.0
C696 C 0.47936 0.11222 0.98904 0.0
C697 C 0.51003 0.10274 0.00871 0.0
C698 C 0.49267 0.16272 0.98524 0.0
C699 C 0.44541 0.14375 0.95916 0.0
N700 N 0.50387 0.12106 0.00034 0.0
N701 N 0.45103 0.12499 0.96751 0.0
H702 H 0.69288 0.14777 0.93389 0.0
H703 H 0.60345 0.07235 0.02035 0.0
H704 H 0.72822 0.16263 0.99288 0.0
H705 H 0.56517 0.06346 0.96277 0.0
H706 H 0.64928 0.105 0.01021 0.0
H707 H 0.64586 0.11669 0.94383 0.0
C708 C 0.69061 0.14461 0.94895 0.0
C709 C 0.71433 0.1578 0.96261 0.0
C710 C 0.63089 0.09597 0.99977 0.0
C711 C 0.6609 0.12215 0.97408 0.0
C712 C 0.60463 0.07721 0.00554 0.0
C713 C 0.58032 0.06501 0.99239 0.0
C714 C 0.63306 0.10261 0.98065 0.0
C715 C 0.58331 0.0723 0.97342 0.0
C716 C 0.66387 0.12687 0.95462 0.0
C717 C 0.71044 0.15292 0.98192 0.0
N718 N 0.6092 0.09056 0.9681 0.0
N719 N 0.68428 0.13544 0.98706 0.0
H720 H 0.83761 0.56452 0.99519 0.0
H721 H 0.93515 0.5035 0.96038 0.0
H722 H 0.84774 0.55244 0.93542 0.0
H723 H 0.93653 0.53365 0.0191 0.0
H724 H 0.89966 0.51639 0.95064 0.0
H725 H 0.87015 0.54788 0.00399 0.0
C726 C 0.84656 0.5581 0.98392 0.0
C727 C 0.83994 0.55964 0.96457 0.0
C728 C 0.90781 0.52014 0.96564 0.0
C729 C 0.87741 0.54084 0.97447 0.0
C730 C 0.92801 0.51277 0.97121 0.0
C731 C 0.93897 0.51766 0.99057 0.0
C732 C 0.89838 0.53216 0.97958 0.0
C733 C 0.92891 0.52967 0.00399 0.0
C734 C 0.86521 0.54871 0.98892 0.0
C735 C 0.85226 0.55132 0.9505 0.0
N736 N 0.90922 0.53645 0.99824 0.0
N737 N 0.87046 0.54225 0.95572 0.0
H738 H 0.48501 0.30228 0.00362 0.0
H739 H 0.4581 0.43141 0.98779 0.0
H740 H 0.41989 0.29549 0.96251 0.0
H741 H 0.53133 0.44076 0.02107 0.0
H742 H 0.44213 0.38104 0.97953 0.0
H743 H 0.50073 0.35263 0.01159 0.0
C744 C 0.47401 0.31148 0.99636 0.0
C745 C 0.45107 0.29483 0.98253 0.0
C746 C 0.46172 0.39413 0.98861 0.0
C747 C 0.46884 0.35226 0.99144 0.0
C748 C 0.47082 0.42285 0.99331 0.0
C749 C 0.49607 0.4402 0.00509 0.0
C750 C 0.4779 0.38271 0.99589 0.0
C751 C 0.51172 0.42808 0.01194 0.0
C752 C 0.48298 0.34017 0.00084 0.0
C753 C 0.43756 0.30765 0.97337 0.0
N754 N 0.50235 0.40008 0.00728 0.0
N755 N 0.44659 0.33561 0.97802 0.0
H756 H 0.18735 0.70855 0.01486 0.0
H757 H 0.03278 0.57819 0.02424 0.0
H758 H 0.12876 0.71557 0.04972 0.0
H759 H 0.09621 0.56992 0.99594 0.0
H760 H 0.06697 0.62868 0.03332 0.0
H761 H 0.15357 0.65774 0.00716 0.0
C762 C 0.16728 0.69928 0.02083 0.0
C763 C 0.16064 0.71617 0.03275 0.0
C764 C 0.07342 0.61578 0.02518 0.0
C765 C 0.1219 0.65818 0.02414 0.0
C766 C 0.05393 0.587 0.02001 0.0
C767 C 0.06172 0.56994 0.00931 0.0
C768 C 0.10079 0.62754 0.01948 0.0
C769 C 0.08933 0.58236 0.00416 0.0
C770 C 0.14804 0.67034 0.0165 0.0
C771 C 0.13452 0.70325 0.04032 0.0
N772 N 0.10782 0.6104 0.00922 0.0
N773 N 0.11603 0.67502 0.03582 0.0
H774 H 0.31514 0.45973 0.08029 0.0
H775 H 0.4027 0.46932 0.99105 0.0
H776 H 0.27786 0.43274 0.02151 0.0
H777 H 0.44212 0.50849 0.04828 0.0
H778 H 0.35675 0.45451 0.00225 0.0
H779 H 0.36185 0.47647 0.0692 0.0
C780 C 0.31691 0.45746 0.06504 0.0
C781 C 0.29278 0.44502 0.05176 0.0
C782 C 0.37543 0.46641 0.01236 0.0
C783 C 0.34585 0.4638 0.03897 0.0
C784 C 0.40173 0.47485 0.00599 0.0
C785 C 0.42636 0.49013 0.01875 0.0
C786 C 0.37362 0.47311 0.0317 0.0
C787 C 0.42372 0.49676 0.03792 0.0
C788 C 0.34348 0.46699 0.05871 0.0
C789 C 0.296 0.44232 0.03218 0.0
N790 N 0.39779 0.4881 0.04383 0.0
N791 N 0.32205 0.45158 0.02638 0.0
H792 H 0.51535 0.81616 0.01718 0.0
H793 H 0.54777 0.97689 0.02541 0.0
H794 H 0.5891 0.88547 0.04982 0.0
H795 H 0.4701 0.90579 0.99806 0.0
H796 H 0.56323 0.94392 0.0349 0.0
H797 H 0.49822 0.84875 0.01024 0.0
C798 C 0.52783 0.83828 0.0229 0.0
C799 C 0.55365 0.84825 0.03397 0.0
C800 C 0.54275 0.93552 0.02691 0.0
C801 C 0.53442 0.88568 0.02612 0.0
C802 C 0.53392 0.95432 0.02152 0.0
C803 C 0.50768 0.944 0.01091 0.0
C804 C 0.52523 0.90623 0.02153 0.0
C805 C 0.49055 0.91461 0.00618 0.0
C806 C 0.51811 0.85686 0.01898 0.0
C807 C 0.56912 0.87703 0.04114 0.0
N808 N 0.49968 0.89677 0.01144 0.0
N809 N 0.55933 0.89479 0.03702 0.0
H810 H 0.98373 0.18589 0.42067 0.0
H811 H 0.05704 0.27452 0.33317 0.0
H812 H 0.93817 0.17608 0.36572 0.0
H813 H 0.10085 0.28426 0.38887 0.0
H814 H 0.0131 0.23908 0.34472 0.0
H815 H 0.02658 0.22269 0.40921 0.0
C816 C 0.98264 0.19163 0.40623 0.0
C817 C 0.95719 0.17786 0.39418 0.0
C818 C 0.03235 0.24905 0.35441 0.0
C819 C 0.00652 0.21991 0.38081 0.0
C820 C 0.05745 0.26932 0.34783 0.0
C821 C 0.08277 0.28241 0.36003 0.0
C822 C 0.03254 0.2418 0.37332 0.0
C823 C 0.08195 0.27475 0.37888 0.0
C824 C 0.00722 0.21257 0.39964 0.0
C825 C 0.95734 0.18588 0.37546 0.0
N826 N 0.05732 0.25497 0.3849 0.0
N827 N 0.9816 0.20635 0.36935 0.0
H828 H 0.80344 0.74702 0.41427 0.0
H829 H 0.7462 0.80323 0.33113 0.0
H830 H 0.86063 0.80658 0.37796 0.0
H831 H 0.71749 0.79596 0.38761 0.0
H832 H 0.78261 0.79267 0.34329 0.0
H833 H 0.76568 0.75299 0.39954 0.0
C834 C 0.80822 0.76141 0.40327 0.0
C835 C 0.83566 0.77683 0.39774 0.0
C836 C 0.76813 0.79322 0.35289 0.0
C837 C 0.79194 0.78265 0.38026 0.0
C838 C 0.74736 0.79905 0.34599 0.0
C839 C 0.72895 0.8005 0.35844 0.0
C840 C 0.76984 0.78802 0.37217 0.0
C841 C 0.7314 0.79518 0.3776 0.0
C842 C 0.78651 0.76456 0.39478 0.0
C843 C 0.83995 0.79415 0.38273 0.0
N844 N 0.75136 0.78897 0.38386 0.0
N845 N 0.81831 0.79663 0.37452 0.0
H846 H 0.1707 0.04324 0.36742 0.0
H847 H 0.22316 0.93156 0.34808 0.0
H848 H 0.24929 0.05444 0.39321 0.0
H849 H 0.14181 0.91683 0.32546 0.0
H850 H 0.2341 0.97789 0.36331 0.0
H851 H 0.16089 0.99834 0.35028 0.0
C852 C 0.18601 0.03639 0.36935 0.0
C853 C 0.2108 0.05259 0.38186 0.0
C854 C 0.21386 0.96458 0.355 0.0
C855 C 0.19959 1.00108 0.3624 0.0
C856 C 0.2076 0.93812 0.34633 0.0
C857 C 0.18144 0.92027 0.33568 0.0
C858 C 0.19387 0.97338 0.35289 0.0
C859 C 0.16218 0.92993 0.33365 0.0
C860 C 0.18031 0.01066 0.35966 0.0
C861 C 0.22971 0.04247 0.38395 0.0
N862 N 0.16875 0.9558 0.34222 0.0
N863 N 0.2237 0.0174 0.37437 0.0
H864 H 0.51953 0.64306 0.26072 0.0
H865 H 0.57405 0.74697 0.35452 0.0
H866 H 0.4929 0.6083 0.3146 0.0
H867 H 0.63351 0.74918 0.31623 0.0
H868 H 0.53834 0.70043 0.33808 0.0
H869 H 0.5562 0.68703 0.27865 0.0
C870 C 0.52137 0.64429 0.27626 0.0
C871 C 0.50299 0.62129 0.28601 0.0
C872 C 0.55925 0.71122 0.33335 0.0
C873 C 0.54437 0.67259 0.30654 0.0
C874 C 0.57956 0.7377 0.34263 0.0
C875 C 0.60663 0.75209 0.33651 0.0
C876 C 0.5659 0.69953 0.31754 0.0
C877 C 0.61275 0.73906 0.32115 0.0
C878 C 0.54227 0.66964 0.28644 0.0
C879 C 0.50608 0.62526 0.30628 0.0
N880 N 0.59238 0.71369 0.31195 0.0
N881 N 0.5262 0.65048 0.31586 0.0
H882 H 0.37857 0.92296 0.26291 0.0
H883 H 0.27346 0.86511 0.34271 0.0
H884 H 0.37342 0.85629 0.29591 0.0
H885 H 0.24645 0.87987 0.28762 0.0
H886 H 0.3172 0.87276 0.3301 0.0
H887 H 0.33604 0.91736 0.27585 0.0
C888 C 0.36861 0.90702 0.27272 0.0
C889 C 0.3799 0.89 0.27816 0.0
C890 C 0.3017 0.87447 0.32087 0.0
C891 C 0.33181 0.8846 0.29365 0.0
C892 C 0.27691 0.87031 0.32806 0.0
C893 C 0.25636 0.8718 0.31615 0.0
C894 C 0.30621 0.88091 0.30185 0.0
C895 C 0.26173 0.87837 0.29722 0.0
C896 C 0.34444 0.9041 0.28022 0.0
C897 C 0.36616 0.8704 0.29149 0.0
N898 N 0.28627 0.88289 0.29067 0.0
N899 N 0.34302 0.86841 0.29887 0.0
H900 H 0.11782 0.51493 0.32783 0.0
H901 H 0.11739 0.37317 0.32098 0.0
H902 H 0.13253 0.48769 0.27254 0.0
H903 H 0.1872 0.44349 0.35614 0.0
H904 H 0.10615 0.40679 0.30647 0.0
H905 H 0.12743 0.48058 0.34227 0.0
C906 C 0.12309 0.502 0.31863 0.0
C907 C 0.1245 0.50475 0.29878 0.0
C908 C 0.12387 0.41464 0.31739 0.0
C909 C 0.13394 0.46431 0.31533 0.0
C910 C 0.13044 0.39562 0.32553 0.0
C911 C 0.15374 0.40567 0.33936 0.0
C912 C 0.14003 0.44365 0.32374 0.0
C913 C 0.16927 0.4349 0.34534 0.0
C914 C 0.12826 0.4822 0.32695 0.0
C915 C 0.13052 0.48629 0.28775 0.0
N916 N 0.16202 0.45291 0.33759 0.0
N917 N 0.13481 0.46675 0.29615 0.0
H918 H 0.39425 0.50259 0.32706 0.0
H919 H 0.22986 0.3962 0.29452 0.0
H920 H 0.35896 0.48072 0.26776 0.0
H921 H 0.26888 0.40968 0.35249 0.0
H922 H 0.2759 0.42976 0.28458 0.0
H923 H 0.34737 0.47171 0.33683 0.0
C924 C 0.37651 0.49144 0.31611 0.0
C925 C 0.38037 0.49422 0.29659 0.0
C926 C 0.27434 0.42536 0.29947 0.0
C927 C 0.32665 0.45861 0.3076 0.0
C928 C 0.24805 0.40619 0.30517 0.0
C929 C 0.24545 0.39996 0.32438 0.0
C930 C 0.29819 0.43854 0.31309 0.0
C931 C 0.2698 0.41365 0.33752 0.0
C932 C 0.34977 0.47373 0.32167 0.0
C933 C 0.35673 0.47919 0.28297 0.0
N934 N 0.29507 0.43226 0.33163 0.0
N935 N 0.33085 0.46196 0.28872 0.0
H936 H 0.51115 0.90336 0.33195 0.0
H937 H 0.60418 0.83882 0.29366 0.0
H938 H 0.51385 0.88485 0.27168 0.0
H939 H 0.61 0.87053 0.35275 0.0
H940 H 0.56914 0.85272 0.28519 0.0
H941 H 0.54533 0.88834 0.33982 0.0
C942 C 0.51889 0.89596 0.32039 0.0
C943 C 0.50961 0.8951 0.30116 0.0
C944 C 0.57817 0.85665 0.29999 0.0
C945 C 0.54883 0.87804 0.30998 0.0
C946 C 0.59816 0.84871 0.30484 0.0
C947 C 0.61014 0.85357 0.32394 0.0
C948 C 0.57001 0.86933 0.31437 0.0
C949 C 0.60148 0.86643 0.33782 0.0
C950 C 0.53845 0.88747 0.32486 0.0
C951 C 0.52042 0.88558 0.28669 0.0
N952 N 0.58195 0.87378 0.33277 0.0
N953 N 0.53946 0.87735 0.29139 0.0
H954 H 0.09666 0.63361 0.29168 0.0
H955 H 0.18385 0.77081 0.36843 0.0
H956 H 0.14252 0.63481 0.34414 0.0
H957 H 0.13357 0.7689 0.31815 0.0
H958 H 0.16973 0.7213 0.35928 0.0
H959 H 0.11122 0.68362 0.30029 0.0
C960 C 0.10974 0.64448 0.30505 0.0
C961 C 0.118 0.63008 0.31744 0.0
C962 C 0.16184 0.73167 0.35016 0.0
C963 C 0.13499 0.68717 0.3273 0.0
C964 C 0.16986 0.75994 0.3554 0.0
C965 C 0.16021 0.77406 0.34382 0.0
C966 C 0.1439 0.71732 0.33322 0.0
C967 C 0.14206 0.75898 0.32716 0.0
C968 C 0.11805 0.67295 0.30996 0.0
C969 C 0.13539 0.64513 0.33439 0.0
N970 N 0.13449 0.7314 0.32232 0.0
N971 N 0.14321 0.67282 0.33886 0.0
H972 H 0.79644 0.04826 0.38647 0.0
H973 H 0.76591 0.90379 0.32743 0.0
H974 H 0.8529 0.04265 0.34873 0.0
H975 H 0.70363 0.91058 0.35827 0.0
H976 H 0.79929 0.95391 0.33726 0.0
H977 H 0.76333 0.99728 0.37837 0.0
C978 C 0.80177 0.03624 0.37643 0.0
C979 C 0.82719 0.0496 0.36802 0.0
C980 C 0.77836 0.94451 0.34192 0.0
C981 C 0.78972 0.9914 0.35888 0.0
C982 C 0.75929 0.91586 0.33634 0.0
C983 C 0.73194 0.9031 0.34197 0.0
C984 C 0.77009 0.9606 0.35331 0.0
C985 C 0.72452 0.91968 0.35358 0.0
C986 C 0.78292 0.00719 0.37183 0.0
C987 C 0.83335 0.03309 0.35533 0.0
N988 N 0.7435 0.94764 0.35885 0.0
N989 N 0.81474 0.00487 0.35112 0.0
H990 H 0.94166 0.75384 0.35446 0.0
H991 H 0.10867 0.83867 0.38325 0.0
H992 H 0.98 0.78582 0.41268 0.0
H993 H 0.06938 0.79546 0.32678 0.0
H994 H 0.06196 0.82158 0.39401 0.0
H995 H 0.98852 0.77101 0.34371 0.0
C996 C 0.96002 0.7645 0.36496 0.0
C997 C 0.95711 0.76848 0.38447 0.0
C998 C 0.06358 0.81582 0.37928 0.0
C999 C 0.01071 0.78823 0.37234 0.0
C1000 C 0.09027 0.82561 0.37309 0.0
C1001 C 0.09303 0.8185 0.35406 0.0
C1002 C 0.03943 0.79892 0.36632 0.0
C1003 C 0.06835 0.80146 0.34159 0.0
C1004 C 0.98673 0.77427 0.35885 0.0
C1005 C 0.98149 0.78242 0.39751 0.0
N1006 N 0.04263 0.79232 0.34793 0.0
N1007 N 0.0073 0.79186 0.39122 0.0
H1008 H 0.25663 0.22225 0.38917 0.0
H1009 H 0.1362 0.23913 0.33174 0.0
H1010 H 0.18378 0.15307 0.35565 0.0
H1011 H 0.21442 0.31046 0.35818 0.0
H1012 H 0.15174 0.20701 0.34262 0.0
H1013 H 0.24013 0.25463 0.38014 0.0
C1014 C 0.23708 0.2139 0.37997 0.0
C1015 C 0.22143 0.18498 0.37317 0.0
C1016 C 0.16553 0.22967 0.3461 0.0
C1017 C 0.20245 0.22179 0.36276 0.0
C1018 C 0.15665 0.24802 0.33991 0.0
C1019 C 0.1741 0.27747 0.34403 0.0
C1020 C 0.19208 0.24082 0.35656 0.0
C1021 C 0.20032 0.28786 0.35472 0.0
C1022 C 0.2277 0.23236 0.3748 0.0
C1023 C 0.19633 0.17523 0.36124 0.0
N1024 N 0.20856 0.26953 0.3606 0.0
N1025 N 0.18761 0.19358 0.35642 0.0
H1026 H 0.6549 0.52227 0.75436 0.0
H1027 H 0.72876 0.61244 0.66759 0.0
H1028 H 0.60987 0.51373 0.69944 0.0
H1029 H 0.77252 0.62178 0.72322 0.0
H1030 H 0.68481 0.57707 0.67906 0.0
H1031 H 0.69789 0.5596 0.74332 0.0
C1032 C 0.65395 0.52839 0.74002 0.0
C1033 C 0.62861 0.51479 0.72784 0.0
C1034 C 0.70403 0.58693 0.68877 0.0
C1035 C 0.67809 0.55742 0.71496 0.0
C1036 C 0.72916 0.60718 0.68223 0.0
C1037 C 0.75449 0.62012 0.69442 0.0
C1038 C 0.70418 0.57949 0.70763 0.0
C1039 C 0.75362 0.61237 0.71325 0.0
C1040 C 0.67861 0.54963 0.73367 0.0
C1041 C 0.62894 0.52334 0.70927 0.0
N1042 N 0.72895 0.59256 0.71924 0.0
N1043 N 0.65326 0.54406 0.7034 0.0
H1044 H 0.5075 0.14948 0.76342 0.0
H1045 H 0.39819 0.12154 0.67239 0.0
H1046 H 0.50313 0.10346 0.70983 0.0
H1047 H 0.40511 0.16796 0.72651 0.0
H1048 H 0.43607 0.11407 0.6855 0.0
H1049 H 0.46975 0.15617 0.74972 0.0
C1050 C 0.4985 0.14068 0.74875 0.0
C1051 C 0.50835 0.12569 0.73781 0.0
C1052 C 0.42923 0.12585 0.69447 0.0
C1053 C 0.46509 0.13349 0.72188 0.0
C1054 C 0.40755 0.13005 0.68703 0.0
C1055 C 0.39844 0.14544 0.69835 0.0
C1056 C 0.44182 0.13709 0.71336 0.0
C1057 C 0.41141 0.15603 0.7172 0.0
C1058 C 0.47699 0.14461 0.74089 0.0
C1059 C 0.49628 0.11529 0.71874 0.0
N1060 N 0.4324 0.15168 0.72406 0.0
N1061 N 0.47517 0.11929 0.71139 0.0
H1062 H 0.88456 0.40257 0.6876 0.0
H1063 H 0.88755 0.26289 0.68678 0.0
H1064 H 0.86705 0.36093 0.73989 0.0
H1065 H 0.81731 0.25759 0.652 0.0
H1066 H 0.89731 0.3088 0.70253 0.0
H1067 H 0.87542 0.35811 0.67012 0.0
C1068 C 0.87874 0.38433 0.6955 0.0
C1069 C 0.87679 0.38597 0.71546 0.0
C1070 C 0.87992 0.29752 0.69134 0.0
C1071 C 0.86771 0.33561 0.6955 0.0
C1072 C 0.87421 0.27137 0.68246 0.0
C1073 C 0.85111 0.25612 0.66848 0.0
C1074 C 0.86309 0.3089 0.68561 0.0
C1075 C 0.83508 0.26853 0.66293 0.0
C1076 C 0.8738 0.35908 0.68546 0.0
C1077 C 0.86976 0.36139 0.72473 0.0
N1078 N 0.84142 0.29434 0.67149 0.0
N1079 N 0.86583 0.33739 0.71473 0.0
H1080 H 0.20839 0.9586 0.6164 0.0
H1081 H 0.23828 0.09483 0.68579 0.0
H1082 H 0.14255 0.9692 0.63893 0.0
H1083 H 0.30355 0.08384 0.66268 0.0
H1084 H 0.20298 0.04771 0.67033 0.0
H1085 H 0.24355 0.00305 0.6349 0.0
C1086 C 0.20132 0.97026 0.62529 0.0
C1087 C 0.17244 0.96027 0.62596 0.0
C1088 C 0.22502 0.05553 0.6687 0.0
C1089 C 0.21271 0.01129 0.64729 0.0
C1090 C 0.24517 0.08241 0.67752 0.0
C1091 C 0.27383 0.09324 0.67542 0.0
C1092 C 0.23361 0.03937 0.65768 0.0
C1093 C 0.28163 0.07631 0.66458 0.0
C1094 C 0.22143 0.99563 0.6359 0.0
C1095 C 0.16456 0.97602 0.63804 0.0
N1096 N 0.26164 0.05028 0.65606 0.0
N1097 N 0.18457 1.00085 0.6481 0.0
H1098 H 0.04271 0.19251 0.63031 0.0
H1099 H 0.91041 0.2104 0.61962 0.0
H1100 H 0.04149 0.25369 0.59433 0.0
H1101 H 0.94239 0.2043 0.67582 0.0
H1102 H 0.95453 0.21903 0.60733 0.0
H1103 H 0.00231 0.18961 0.645 0.0
C1104 C 0.0343 0.20557 0.62555 0.0
C1105 C 0.04574 0.22329 0.61085 0.0
C1106 C 0.95192 0.21601 0.62237 0.0
C1107 C 0.99875 0.21909 0.62727 0.0
C1108 C 0.9268 0.211 0.62937 0.0
C1109 C 0.92291 0.20674 0.64875 0.0
C1110 C 0.97287 0.21586 0.63472 0.0
C1111 C 0.94476 0.20774 0.66081 0.0
C1112 C 0.01111 0.20372 0.63393 0.0
C1113 C 0.03316 0.23909 0.60515 0.0
N1114 N 0.96873 0.21177 0.65353 0.0
N1115 N 0.01015 0.23632 0.61318 0.0
H1116 H 0.83273 0.87181 0.64894 0.0
H1117 H 0.78462 0.70925 0.6611 0.0
H1118 H 0.7567 0.80116 0.61924 0.0
H1119 H 0.86451 0.78033 0.68541 0.0
H1120 H 0.77249 0.74235 0.64705 0.0
H1121 H 0.84299 0.83844 0.66414 0.0
C1122 C 0.81804 0.84927 0.64575 0.0
C1123 C 0.7938 0.8393 0.63279 0.0
C1124 C 0.79267 0.7507 0.65546 0.0
C1125 C 0.80563 0.80085 0.65 0.0
C1126 C 0.79961 0.73182 0.66343 0.0
C1127 C 0.82569 0.7421 0.67427 0.0
C1128 C 0.8119 0.78005 0.65849 0.0
C1129 C 0.8442 0.77152 0.67709 0.0
C1130 C 0.82402 0.8302 0.65433 0.0
C1131 C 0.77579 0.8098 0.62897 0.0
N1132 N 0.83697 0.78945 0.66924 0.0
N1133 N 0.78206 0.79162 0.63753 0.0
H1134 H 0.06653 0.83371 0.65792 0.0
H1135 H 0.90028 0.73476 0.6279 0.0
H1136 H 0.0284 0.81915 0.59972 0.0
H1137 H 0.94126 0.74141 0.68409 0.0
H1138 H 0.94624 0.76779 0.61761 0.0
H1139 H 0.02003 0.80248 0.66817 0.0
C1140 C 0.04827 0.824 0.64732 0.0
C1141 C 0.05121 0.82888 0.62795 0.0
C1142 C 0.94514 0.76199 0.63218 0.0
C1143 C 0.9979 0.79305 0.63951 0.0
C1144 C 0.91889 0.74311 0.63808 0.0
C1145 C 0.91684 0.73515 0.65689 0.0
C1146 C 0.96953 0.77315 0.64521 0.0
C1147 C 0.94174 0.74678 0.66944 0.0
C1148 C 0.02174 0.80612 0.65315 0.0
C1149 C 0.02691 0.81583 0.61479 0.0
N1150 N 0.96696 0.76517 0.66338 0.0
N1151 N 1.00125 0.79846 0.6208 0.0
H1152 H 0.17956 0.24371 0.65814 0.0
H1153 H 0.27044 0.17282 0.62701 0.0
H1154 H 0.18084 0.21753 0.5991 0.0
H1155 H 0.27764 0.21211 0.68405 0.0
H1156 H 0.23548 0.18598 0.6165 0.0
H1157 H 0.21326 0.22892 0.66803 0.0
C1158 C 0.18693 0.23474 0.64728 0.0
C1159 C 0.17751 0.23179 0.6278 0.0
C1160 C 0.2448 0.19171 0.6313 0.0
C1161 C 0.21609 0.21484 0.63893 0.0
C1162 C 0.26473 0.1842 0.63731 0.0
C1163 C 0.27709 0.19144 0.65643 0.0
C1164 C 0.23708 0.20635 0.64455 0.0
C1165 C 0.26883 0.20615 0.66915 0.0
C1166 C 0.2062 0.22634 0.6529 0.0
C1167 C 0.18768 0.22007 0.61427 0.0
N1168 N 0.24937 0.21304 0.66299 0.0
N1169 N 0.20646 0.21199 0.62008 0.0
H1170 H 0.7498 0.9621 0.62784 0.0
H1171 H 0.8676 0.10988 0.68523 0.0
H1172 H 0.81838 0.97119 0.66654 0.0
H1173 H 0.79183 0.09881 0.65459 0.0
H1174 H 0.85142 0.05977 0.67654 0.0
H1175 H 0.7662 0.0127 0.63556 0.0
C1176 C 0.76831 0.97482 0.63798 0.0
C1177 C 0.78277 0.96258 0.64666 0.0
C1178 C 0.8383 0.06824 0.67168 0.0
C1179 C 0.80173 0.02033 0.65545 0.0
C1180 C 0.84755 0.09686 0.67662 0.0
C1181 C 0.83098 0.10844 0.67064 0.0
C1182 C 0.8123 0.05101 0.66059 0.0
C1183 C 0.80523 0.09067 0.65946 0.0
C1184 C 0.77765 0.00364 0.64239 0.0
C1185 C 0.80668 0.97991 0.65961 0.0
N1186 N 0.79666 0.06279 0.65479 0.0
N1187 N 0.81544 0.00791 0.6636 0.0
H1188 H 0.46722 0.38792 0.71747 0.0
H1189 H 0.4333 0.23996 0.66194 0.0
H1190 H 0.52393 0.3786 0.68189 0.0
H1191 H 0.37131 0.25105 0.69008 0.0
H1192 H 0.46779 0.29003 0.67111 0.0
H1193 H 0.4328 0.33725 0.70957 0.0
C1194 C 0.47234 0.37515 0.70796 0.0
C1195 C 0.49825 0.38738 0.70012 0.0
C1196 C 0.44667 0.28158 0.67531 0.0
C1197 C 0.45923 0.32949 0.69118 0.0
C1198 C 0.42697 0.25297 0.67009 0.0
C1199 C 0.39941 0.24141 0.67522 0.0
C1200 C 0.43883 0.2988 0.68582 0.0
C1201 C 0.39237 0.25918 0.68584 0.0
C1202 C 0.45274 0.34627 0.70346 0.0
C1203 C 0.50406 0.36992 0.68807 0.0
N1204 N 0.41196 0.28703 0.69079 0.0
N1205 N 0.4847 0.34187 0.68395 0.0
H1206 H 0.60927 0.09996 0.68757 0.0
H1207 H 0.77561 0.17379 0.71703 0.0
H1208 H 0.64698 0.12448 0.74632 0.0
H1209 H 0.73565 0.13687 0.65956 0.0
H1210 H 0.72921 0.1587 0.72788 0.0
H1211 H 0.65596 0.11615 0.67682 0.0
C1212 C 0.62746 0.10885 0.69818 0.0
C1213 C 0.62442 0.11105 0.71783 0.0
C1214 C 0.73063 0.15389 0.7129 0.0
C1215 C 0.67785 0.12957 0.70572 0.0
C1216 C 0.75713 0.16255 0.70668 0.0
C1217 C 0.75958 0.15653 0.68735 0.0
C1218 C 0.7064 0.13928 0.69968 0.0
C1219 C 0.73484 0.1419 0.67461 0.0
C1220 C 0.65408 0.11804 0.69207 0.0
C1221 C 0.64859 0.12259 0.73103 0.0
N1222 N 0.70934 0.13383 0.68099 0.0
N1223 N 0.67433 0.13149 0.72474 0.0
H1224 H 0.85006 0.48598 0.68798 0.0
H1225 H 0.88579 0.64763 0.69003 0.0
H1226 H 0.92294 0.55591 0.72095 0.0
H1227 H 0.80811 0.5763 0.66292 0.0
H1228 H 0.90026 0.61464 0.70116 0.0
H1229 H 0.83467 0.51891 0.67819 0.0
C1230 C 0.86269 0.50829 0.69322 0.0
C1231 C 0.88764 0.51827 0.70536 0.0
C1232 C 0.88001 0.60619 0.69283 0.0
C1233 C 0.87048 0.55613 0.69413 0.0
C1234 C 0.87176 0.62502 0.6865 0.0
C1235 C 0.84572 0.61463 0.67557 0.0
C1236 C 0.86216 0.5768 0.68808 0.0
C1237 C 0.82839 0.58517 0.67129 0.0
C1238 C 0.85396 0.52708 0.68764 0.0
C1239 C 0.90347 0.54737 0.71164 0.0
N1240 N 0.83694 0.5673 0.6775 0.0
N1241 N 0.89466 0.5653 0.70593 0.0
H1242 H 0.48919 0.94275 0.23564 0.0
H1243 H 0.44154 0.94611 0.12598 0.0
H1244 H 0.40307 0.89161 0.21018 0.0
H1245 H 0.52785 0.98987 0.15162 0.0
H1246 H 0.42639 0.92626 0.15646 0.0
H1247 H 0.50305 0.96085 0.20485 0.0
C1248 C 0.47318 0.93512 0.22351 0.0
C1249 C 0.44494 0.91538 0.2255 0.0
C1250 C 0.44863 0.94021 0.15537 0.0
C1251 C 0.46069 0.9365 0.19006 0.0
C1252 C 0.45731 0.95143 0.13796 0.0
C1253 C 0.48602 0.96987 0.13625 0.0
C1254 C 0.4688 0.94746 0.17117 0.0
C1255 C 0.50546 0.97623 0.15233 0.0
C1256 C 0.48111 0.94562 0.20592 0.0
C1257 C 0.42505 0.90691 0.20934 0.0
N1258 N 0.49649 0.9651 0.16906 0.0
N1259 N 0.43331 0.91748 0.19227 0.0
H1260 H 0.065 0.49615 0.23953 0.0
H1261 H 0.08695 0.57417 0.1434 0.0
H1262 H 0.12872 0.58323 0.23572 0.0
H1263 H 0.02359 0.48661 0.14602 0.0
H1264 H 0.10358 0.57704 0.17699 0.0
H1265 H 0.05057 0.49133 0.2051 0.0
C1266 C 0.07607 0.5142 0.23144 0.0
C1267 C 0.09802 0.54019 0.24057 0.0
C1268 C 0.08611 0.55713 0.17023 0.0
C1269 C 0.08149 0.53488 0.2012 0.0
C1270 C 0.07654 0.55552 0.15105 0.0
C1271 C 0.0537 0.53017 0.14191 0.0
C1272 C 0.07272 0.53326 0.18047 0.0
C1273 C 0.04137 0.50653 0.15246 0.0
C1274 C 0.06775 0.51146 0.2118 0.0
C1275 C 0.11138 0.56294 0.22939 0.0
N1276 N 0.05091 0.5087 0.17122 0.0
N1277 N 0.10289 0.55976 0.21035 0.0
H1278 H 0.42875 0.5406 0.2131 0.0
H1279 H 0.54452 0.54666 0.14637 0.0
H1280 H 0.51276 0.56174 0.23468 0.0
H1281 H 0.46391 0.53421 0.12392 0.0
H1282 H 0.53107 0.5469 0.17892 0.0
H1283 H 0.43892 0.53237 0.18052 0.0
C1284 C 0.44921 0.54315 0.21101 0.0
C1285 C 0.47003 0.55212 0.2266 0.0
C1286 C 0.51624 0.54398 0.16688 0.0
C1287 C 0.48191 0.54301 0.18937 0.0
C1288 C 0.52397 0.54397 0.14828 0.0
C1289 C 0.50546 0.54074 0.13236 0.0
C1290 C 0.48977 0.54074 0.16969 0.0
C1291 C 0.47883 0.53665 0.13573 0.0
C1292 C 0.45506 0.53864 0.19241 0.0
C1293 C 0.49625 0.55533 0.22304 0.0
N1294 N 0.47187 0.53698 0.15403 0.0
N1295 N 0.50147 0.55091 0.20482 0.0
H1296 H 0.87545 0.40512 0.78334 0.0
H1297 H 0.98916 0.50514 0.87058 0.0
H1298 H 0.9384 0.49207 0.77846 0.0
H1299 H 0.91432 0.42596 0.87736 0.0
H1300 H 0.97207 0.50066 0.83671 0.0
H1301 H 0.89061 0.41205 0.81768 0.0
C1302 C 0.89254 0.42568 0.78952 0.0
C1303 C 0.90583 0.448 0.77803 0.0
C1304 C 0.9593 0.4844 0.84566 0.0
C1305 C 0.92327 0.45616 0.81739 0.0
C1306 C 0.96909 0.48687 0.86495 0.0
C1307 C 0.95315 0.46585 0.8768 0.0
C1308 C 0.93355 0.46055 0.83809 0.0
C1309 C 0.92717 0.44279 0.86881 0.0
C1310 C 0.90107 0.42969 0.80915 0.0
C1311 C 0.92756 0.47434 0.78684 0.0
N1312 N 0.9183 0.44064 0.84994 0.0
N1313 N 0.93577 0.47764 0.806 0.0
H1314 H 0.55146 0.42926 0.78389 0.0
H1315 H 0.54054 0.5244 0.87084 0.0
H1316 H 0.57636 0.51746 0.78175 0.0
H1317 H 0.50854 0.43432 0.86997 0.0
H1318 H 0.55727 0.52339 0.83934 0.0
H1319 H 0.53867 0.43174 0.8164 0.0
C1320 C 0.55416 0.44915 0.79023 0.0
C1321 C 0.5648 0.47312 0.77997 0.0
C1322 C 0.54665 0.50387 0.84607 0.0
C1323 C 0.55046 0.47621 0.81741 0.0
C1324 C 0.53725 0.50446 0.86411 0.0
C1325 C 0.52298 0.47937 0.87302 0.0
C1326 C 0.54186 0.47802 0.83691 0.0
C1327 C 0.51904 0.45409 0.86351 0.0
C1328 C 0.54698 0.45059 0.80886 0.0
C1329 C 0.56843 0.49849 0.78914 0.0
N1330 N 0.52838 0.45406 0.846 0.0
N1331 N 0.56116 0.49934 0.8073 0.0
H1332 H 0.55745 0.06628 0.78811 0.0
H1333 H 0.5155 0.0882 0.89275 0.0
H1334 H 0.53836 0.13148 0.80542 0.0
H1335 H 0.51844 0.01382 0.87195 0.0
H1336 H 0.53096 0.10816 0.86247 0.0
H1337 H 0.55026 0.0506 0.82041 0.0
C1338 C 0.55208 0.0775 0.79879 0.0
C1339 C 0.54825 0.10004 0.79406 0.0
C1340 C 0.52837 0.08754 0.86457 0.0
C1341 C 0.53987 0.08219 0.83093 0.0
C1342 C 0.51974 0.07622 0.8819 0.0
C1343 C 0.5155 0.04922 0.88482 0.0
C1344 C 0.53295 0.07182 0.85007 0.0
C1345 C 0.52103 0.03452 0.87017 0.0
C1346 C 0.54782 0.06845 0.81716 0.0
C1347 C 0.5411 0.11372 0.80839 0.0
N1348 N 0.52938 0.04597 0.8534 0.0
N1349 N 0.53705 0.10453 0.82615 0.0
H1350 H 0.08927 0.27364 0.55737 0.0
H1351 H 0.14755 0.25903 0.45778 0.0
H1352 H 0.11286 0.21076 0.54335 0.0
H1353 H 0.13613 0.3291 0.47628 0.0
H1354 H 0.12912 0.23735 0.48714 0.0
H1355 H 0.10032 0.29031 0.52574 0.0
C1356 C 0.0964 0.26306 0.54753 0.0
C1357 C 0.10024 0.24083 0.55305 0.0
C1358 C 0.13054 0.25741 0.48472 0.0
C1359 C 0.11335 0.26011 0.51687 0.0
C1360 C 0.1409 0.2697 0.46793 0.0
C1361 C 0.14358 0.29601 0.46468 0.0
C1362 C 0.12263 0.27145 0.49828 0.0
C1363 C 0.13485 0.30902 0.47837 0.0
C1364 C 0.10292 0.27275 0.52952 0.0
C1365 C 0.10995 0.22821 0.53978 0.0
N1366 N 0.12485 0.29665 0.49458 0.0
N1367 N 0.11627 0.2381 0.52233 0.0
H1368 H 0.73263 0.82488 0.57309 0.0
H1369 H 0.75847 0.89097 0.47214 0.0
H1370 H 0.79628 0.91087 0.56637 0.0
H1371 H 0.6838 0.8128 0.48092 0.0
H1372 H 0.77607 0.89561 0.50581 0.0
H1373 H 0.71768 0.81732 0.53852 0.0
C1374 C 0.74356 0.84209 0.56431 0.0
C1375 C 0.7656 0.8686 0.57261 0.0
C1376 C 0.75589 0.87737 0.50036 0.0
C1377 C 0.74868 0.86013 0.53314 0.0
C1378 C 0.74594 0.87458 0.4811 0.0
C1379 C 0.71959 0.8515 0.47373 0.0
C1380 C 0.73947 0.85684 0.51235 0.0
C1381 C 0.70408 0.8311 0.48608 0.0
C1382 C 0.73495 0.83782 0.54462 0.0
C1383 C 0.77893 0.89024 0.5606 0.0
N1384 N 0.71423 0.83427 0.50479 0.0
N1385 N 0.77027 0.88552 0.54149 0.0
H1386 H 0.15753 0.94988 0.55723 0.0
H1387 H 0.15113 0.84918 0.46688 0.0
H1388 H 0.12436 0.85989 0.55867 0.0
H1389 H 0.19884 0.94082 0.4715 0.0
H1390 H 0.13784 0.85176 0.49938 0.0
H1391 H 0.16882 0.94595 0.5245 0.0
C1392 C 0.1527 0.92926 0.55069 0.0
C1393 C 0.14029 0.90524 0.56086 0.0
C1394 C 0.15119 0.87126 0.49323 0.0
C1395 C 0.1529 0.90051 0.52312 0.0
C1396 C 0.15895 0.86983 0.47472 0.0
C1397 C 0.17609 0.89483 0.46633 0.0
C1398 C 0.16053 0.89787 0.50342 0.0
C1399 C 0.18518 0.92096 0.47714 0.0
C1400 C 0.15907 0.92702 0.53194 0.0
C1401 C 0.13382 0.87896 0.55138 0.0
N1402 N 0.17726 0.92177 0.49505 0.0
N1403 N 0.1403 0.8773 0.53306 0.0
H1404 H 0.62169 0.77883 0.10122 0.0
H1405 H 0.6075 0.8251 0.20885 0.0
H1406 H 0.56112 0.80345 0.11563 0.0
H1407 H 0.66261 0.79327 0.19443 0.0
H1408 H 0.59313 0.8214 0.17456 0.0
H1409 H 0.64002 0.78832 0.13512 0.0
C1410 C 0.61226 0.78626 0.11151 0.0
C1411 C 0.58967 0.79012 0.10557 0.0
C1412 C 0.6085 0.81539 0.17892 0.0
C1413 C 0.61068 0.80122 0.14444 0.0
C1414 C 0.61662 0.81737 0.1985 0.0
C1415 C 0.63626 0.80941 0.20458 0.0
C1416 C 0.62005 0.80533 0.16529 0.0
C1417 C 0.64769 0.79999 0.19046 0.0
C1418 C 0.62281 0.79179 0.13086 0.0
C1419 C 0.57868 0.80036 0.11951 0.0
N1420 N 0.63933 0.7981 0.17153 0.0
N1421 N 0.58916 0.80537 0.1383 0.0
H1422 H 0.23824 0.84875 0.11312 0.0
H1423 H 0.17421 0.76603 0.20455 0.0
H1424 H 0.21331 0.76087 0.11709 0.0
H1425 H 0.203 0.85507 0.20229 0.0
H1426 H 0.18938 0.76414 0.17272 0.0
H1427 H 0.22668 0.852 0.14601 0.0
C1428 C 0.23052 0.83019 0.12094 0.0
C1429 C 0.22665 0.80445 0.11227 0.0
C1430 C 0.1925 0.78414 0.17919 0.0
C1431 C 0.21309 0.80796 0.14988 0.0
C1432 C 0.18372 0.7852 0.19734 0.0
C1433 C 0.18717 0.8107 0.20605 0.0
C1434 C 0.20475 0.80875 0.16958 0.0
C1435 C 0.2001 0.835 0.19618 0.0
C1436 C 0.2238 0.83203 0.1397 0.0
C1437 C 0.21621 0.78101 0.12304 0.0
N1438 N 0.20827 0.83339 0.17842 0.0
N1439 N 0.20976 0.78332 0.14123 0.0
H1440 H 0.22819 0.40343 0.12301 0.0
H1441 H 0.16508 0.41453 0.22085 0.0
H1442 H 0.20174 0.4641 0.1369 0.0
H1443 H 0.19889 0.35925 0.2103 0.0
H1444 H 0.18075 0.43454 0.19069 0.0
H1445 H 0.22056 0.38884 0.15556 0.0
C1446 C 0.22112 0.41392 0.13298 0.0
C1447 C 0.21524 0.43475 0.12715 0.0
C1448 C 0.18496 0.41818 0.195 0.0
C1449 C 0.20617 0.41798 0.16428 0.0
C1450 C 0.17588 0.40666 0.21217 0.0
C1451 C 0.18048 0.38504 0.21798 0.0
C1452 C 0.19855 0.40785 0.1834 0.0
C1453 C 0.19502 0.37597 0.20636 0.0
C1454 C 0.21664 0.4055 0.15151 0.0
C1455 C 0.20595 0.44751 0.14062 0.0
N1456 N 0.20331 0.38723 0.18952 0.0
N1457 N 0.20151 0.43878 0.15847 0.0
H1458 H 0.73827 0.57417 0.87769 0.0
H1459 H 0.86782 0.6711 0.81934 0.0
H1460 H 0.82491 0.62228 0.9025 0.0
H1461 H 0.78118 0.62776 0.79439 0.0
H1462 H 0.85193 0.65447 0.85017 0.0
H1463 H 0.75289 0.59483 0.84741 0.0
C1464 C 0.76031 0.5893 0.87683 0.0
C1465 C 0.78044 0.59632 0.8926 0.0
C1466 C 0.83633 0.64866 0.838 0.0
C1467 C 0.79734 0.61974 0.85797 0.0
C1468 C 0.8454 0.65831 0.82037 0.0
C1469 C 0.82583 0.65091 0.8042 0.0
C1470 C 0.80742 0.63129 0.83956 0.0
C1471 C 0.79706 0.63373 0.80639 0.0
C1472 C 0.76866 0.60095 0.85952 0.0
C1473 C 0.80874 0.61584 0.89062 0.0
N1474 N 0.78872 0.62445 0.82373 0.0
N1475 N 0.81634 0.62673 0.87362 0.0
H1476 H 0.40626 0.16297 0.90318 0.0
H1477 H 0.42418 0.24629 0.80995 0.0
H1478 H 0.46638 0.25184 0.90153 0.0
H1479 H 0.36407 0.15715 0.81033 0.0
H1480 H 0.44163 0.24773 0.84309 0.0
H1481 H 0.39236 0.1593 0.86875 0.0
C1482 C 0.41669 0.18164 0.89555 0.0
C1483 C 0.43732 0.20782 0.9053 0.0
C1484 C 0.42471 0.22778 0.83593 0.0
C1485 C 0.42141 0.20383 0.86598 0.0
C1486 C 0.41467 0.22699 0.81702 0.0
C1487 C 0.39246 0.20162 0.80741 0.0
C1488 C 0.41242 0.20306 0.84542 0.0
C1489 C 0.38131 0.17713 0.81717 0.0
C1490 C 0.40866 0.17956 0.87593 0.0
C1491 C 0.44998 0.23136 0.89471 0.0
N1492 N 0.39126 0.1785 0.8357 0.0
N1493 N 0.44176 0.22882 0.87569 0.0
H1494 H 0.84842 0.23556 0.90329 0.0
H1495 H 0.79552 0.20288 0.79088 0.0
H1496 H 0.76386 0.21184 0.88113 0.0
H1497 H 0.8774 0.21985 0.81442 0.0
H1498 H 0.78253 0.20404 0.82362 0.0
H1499 H 0.85866 0.22841 0.8707 0.0
C1500 C 0.832 0.22886 0.89153 0.0
C1501 C 0.80532 0.22454 0.89491 0.0
C1502 C 0.80329 0.20737 0.8216 0.0
C1503 C 0.81686 0.21615 0.85746 0.0
C1504 C 0.81067 0.20656 0.80291 0.0
C1505 C 0.83771 0.21155 0.79987 0.0
C1506 C 0.82309 0.21322 0.83737 0.0
C1507 C 0.85654 0.21648 0.81603 0.0
C1508 C 0.8378 0.22463 0.87292 0.0
C1509 C 0.78468 0.21532 0.87917 0.0
N1510 N 0.84893 0.21733 0.83404 0.0
N1511 N 0.79094 0.21164 0.86109 0.0
H1512 H 0.21872 0.13261 0.45402 0.0
H1513 H 0.31765 0.11186 0.532 0.0
H1514 H 0.27362 0.10041 0.43989 0.0
H1515 H 0.26895 0.15122 0.54658 0.0
H1516 H 0.30176 0.1079 0.49818 0.0
H1517 H 0.23694 0.14013 0.48789 0.0
C1518 C 0.23476 0.12732 0.458 0.0
C1519 C 0.24453 0.1157 0.44406 0.0
C1520 C 0.2946 0.11751 0.50874 0.0
C1521 C 0.26522 0.12395 0.48286 0.0
C1522 C 0.30383 0.11996 0.5281 0.0
C1523 C 0.29476 0.13202 0.54224 0.0
C1524 C 0.27598 0.12704 0.50334 0.0
C1525 C 0.27627 0.14149 0.53624 0.0
C1526 C 0.24504 0.13148 0.47736 0.0
C1527 C 0.26508 0.10894 0.45014 0.0
N1528 N 0.26747 0.13877 0.51726 0.0
N1529 N 0.27465 0.11309 0.46905 0.0
H1530 H 0.88178 0.09494 0.45187 0.0
H1531 H 0.87019 0.1924 0.53685 0.0
H1532 H 0.90547 0.18252 0.44798 0.0
H1533 H 0.84165 0.10329 0.53842 0.0
H1534 H 0.88644 0.19038 0.50531 0.0
H1535 H 0.86972 0.09865 0.48444 0.0
C1536 C 0.88436 0.11495 0.45784 0.0
C1537 C 0.89444 0.13838 0.44708 0.0
C1538 C 0.87669 0.1713 0.51259 0.0
C1539 C 0.88092 0.1429 0.48457 0.0
C1540 C 0.86756 0.17247 0.53064 0.0
C1541 C 0.85437 0.14793 0.54025 0.0
C1542 C 0.8727 0.14541 0.5041 0.0
C1543 C 0.85127 0.12263 0.53141 0.0
C1544 C 0.87761 0.11711 0.47651 0.0
C1545 C 0.89794 0.16396 0.45577 0.0
N1546 N 0.8603 0.12202 0.51385 0.0
N1547 N 0.89107 0.1655 0.47397 0.0
H1548 H 0.86659 0.79612 0.46658 0.0
H1549 H 0.86921 0.69667 0.54524 0.0
H1550 H 0.89488 0.736 0.45675 0.0
H1551 H 0.83249 0.75006 0.55196 0.0
H1552 H 0.88452 0.7153 0.51453 0.0
H1553 H 0.85965 0.78388 0.49954 0.0
C1554 C 0.87144 0.7804 0.47139 0.0
C1555 C 0.88097 0.76679 0.4588 0.0
C1556 C 0.87327 0.72306 0.52279 0.0
C1557 C 0.87322 0.75275 0.49661 0.0
C1558 C 0.86467 0.71256 0.54037 0.0
C1559 C 0.84934 0.72166 0.55111 0.0
C1560 C 0.86659 0.74288 0.51593 0.0
C1561 C 0.84382 0.74209 0.544 0.0
C1562 C 0.86756 0.77348 0.49024 0.0
C1563 C 0.88755 0.74707 0.46596 0.0
N1564 N 0.85233 0.75191 0.52684 0.0
N1565 N 0.88331 0.74045 0.48434 0.0
loop_
_geom_bond_atom_site_label_1
_geom_bond_atom_site_label_2
_geom_bond_distance
_geom_bond_site_symmetry_2
_ccdc_geom_bond_type
H0 C7 0.929 . S
H1 C10 0.930 . S
H2 C12 0.929 . S
H3 C4 0.969 . S
C4 H3 0.969 . S
C4 O5 1.550 . S
C4 H6 0.973 . S
O5 C4 1.550 . S
O5 C11 1.412 . S
H6 C4 0.973 . S
C7 H0 0.929 . S
C7 C8 1.400 . S
C7 C9 1.364 . S
C8 C7 1.400 . S
C8 C12 1.377 . S
C9 C7 1.364 . S
C9 C10 1.374 . S
C10 H1 0.930 . S
C10 C9 1.374 . S
C10 C11 1.383 . S
C11 O5 1.412 . S
C11 C10 1.383 . S
C11 C12 1.394 . S
C12 H2 0.929 . S
C12 C8 1.377 . S
C12 C11 1.394 . S
H13 C20 0.929 . S
H14 C23 0.930 . S
H15 C25 0.929 . S
H16 C17 0.969 . S
C17 H16 0.969 . S
C17 O18 1.550 . S
C17 H19 0.973 . S
O18 C17 1.550 . S
O18 C24 1.412 . S
H19 C17 0.973 . S
C20 H13 0.929 . S
C20 C21 1.400 . S
C20 C22 1.364 . S
C21 C20 1.400 . S
C21 C25 1.377 . S
C22 C20 1.364 . S
C22 C23 1.374 . S
C23 H14 0.930 . S
C23 C22 1.374 . S
C23 C24 1.383 . S
C24 O18 1.412 . S
C24 C23 1.383 . S
C24 C25 1.394 . S
C25 H15 0.929 . S
C25 C21 1.377 . S
C25 C24 1.394 . S
H26 C33 0.929 . S
H27 C36 0.930 . S
H28 C38 0.929 . S
H29 C30 0.969 . S
C30 H29 0.969 . S
C30 O31 1.550 . S
C30 H32 0.973 . S
O31 C30 1.550 . S
O31 C37 1.412 . S
H32 C30 0.973 . S
C33 H26 0.929 . S
C33 C34 1.400 . S
C33 C35 1.364 . S
C34 C33 1.400 . S
C34 C38 1.377 . S
C35 C33 1.364 . S
C35 C36 1.374 . S
C36 H27 0.930 . S
C36 C35 1.374 . S
C36 C37 1.383 . S
C37 O31 1.412 . S
C37 C36 1.383 . S
C37 C38 1.394 . S
C38 H28 0.929 . S
C38 C34 1.377 . S
C38 C37 1.394 . S
H39 C46 0.929 . S
H40 C49 0.930 . S
H41 C51 0.929 . S
H42 C43 0.969 . S
C43 H42 0.969 . S
C43 O44 1.550 . S
C43 H45 0.973 . S
O44 C43 1.550 . S
O44 C50 1.412 . S
H45 C43 0.973 . S
C46 H39 0.929 . S
C46 C47 1.400 . S
C46 C48 1.364 . S
C47 C46 1.400 . S
C47 C51 1.377 . S
C48 C46 1.364 . S
C48 C49 1.374 . S
C49 H40 0.930 . S
C49 C48 1.374 . S
C49 C50 1.383 . S
C50 O44 1.412 . S
C50 C49 1.383 . S
C50 C51 1.394 . S
C51 H41 0.929 . S
C51 C47 1.377 . S
C51 C50 1.394 . S
H52 C59 0.929 . S
H53 C62 0.930 . S
H54 C64 0.929 . S
H55 C56 0.969 . S
C56 H55 0.969 . S
C56 O57 1.550 . S
C56 H58 0.973 . S
O57 C56 1.550 . S
O57 C63 1.412 . S
H58 C56 0.973 . S
C59 H52 0.929 . S
C59 C60 1.400 . S
C59 C61 1.364 . S
C60 C59 1.400 . S
C60 C64 1.377 . S
C61 C59 1.364 . S
C61 C62 1.374 . S
C62 H53 0.930 . S
C62 C61 1.374 . S
C62 C63 1.383 . S
C63 O57 1.412 . S
C63 C62 1.383 . S
C63 C64 1.394 . S
C64 H54 0.929 . S
C64 C60 1.377 . S
C64 C63 1.394 . S
H65 C72 0.929 . S
H66 C75 0.930 . S
H67 C77 0.929 . S
H68 C69 0.969 . S
C69 H68 0.969 . S
C69 O70 1.550 . S
C69 H71 0.973 . S
O70 C69 1.550 . S
O70 C76 1.412 . S
H71 C69 0.973 . S
C72 H65 0.929 . S
C72 C73 1.400 . S
C72 C74 1.364 . S
C73 C72 1.400 . S
C73 C77 1.377 . S
C74 C72 1.364 . S
C74 C75 1.374 . S
C75 H66 0.930 . S
C75 C74 1.374 . S
C75 C76 1.383 . S
C76 O70 1.412 . S
C76 C75 1.383 . S
C76 C77 1.394 . S
C77 H67 0.929 . S
C77 C73 1.377 . S
C77 C76 1.394 . S
H78 C85 0.929 . S
H79 C88 0.930 . S
H80 C90 0.929 . S
H81 C82 0.969 . S
C82 H81 0.969 . S
C82 O83 1.550 . S
C82 H84 0.973 . S
O83 C82 1.550 . S
O83 C89 1.412 . S
H84 C82 0.973 . S
C85 H78 0.929 . S
C85 C86 1.400 . S
C85 C87 1.364 . S
C86 C85 1.400 . S
C86 C90 1.377 . S
C87 C85 1.364 . S
C87 C88 1.374 . S
C88 H79 0.930 . S
C88 C87 1.374 . S
C88 C89 1.383 . S
C89 O83 1.412 . S
C89 C88 1.383 . S
C89 C90 1.394 . S
C90 H80 0.929 . S
C90 C86 1.377 . S
C90 C89 1.394 . S
H91 C98 0.929 . S
H92 C101 0.930 . S
H93 C103 0.929 . S
H94 C95 0.969 . S
C95 H94 0.969 . S
C95 O96 1.550 . S
C95 H97 0.973 . S
O96 C95 1.550 . S
O96 C102 1.412 . S
H97 C95 0.973 . S
C98 H91 0.929 . S
C98 C99 1.400 . S
C98 C100 1.364 . S
C99 C98 1.400 . S
C99 C103 1.377 . S
C100 C98 1.364 . S
C100 C101 1.374 . S
C101 H92 0.930 . S
C101 C100 1.374 . S
C101 C102 1.383 . S
C102 O96 1.412 . S
C102 C101 1.383 . S
C102 C103 1.394 . S
C103 H93 0.929 . S
C103 C99 1.377 . S
C103 C102 1.394 . S
H104 C111 0.929 . S
H105 C114 0.930 . S
H106 C116 0.929 . S
H107 C108 0.969 . S
C108 H107 0.969 . S
C108 O109 1.550 . S
C108 H110 0.973 . S
O109 C108 1.550 . S
O109 C115 1.412 . S
H110 C108 0.973 . S
C111 H104 0.929 . S
C111 C112 1.400 . S
C111 C113 1.364 . S
C112 C111 1.400 . S
C112 C116 1.377 . S
C113 C111 1.364 . S
C113 C114 1.374 . S
C114 H105 0.930 . S
C114 C113 1.374 . S
C114 C115 1.383 . S
C115 O109 1.412 . S
C115 C114 1.383 . S
C115 C116 1.394 . S
C116 H106 0.929 . S
C116 C112 1.377 . S
C116 C115 1.394 . S
H117 C124 0.929 . S
H118 C127 0.930 . S
H119 C129 0.929 . S
H120 C121 0.969 . S
C121 H120 0.969 . S
C121 O122 1.550 . S
C121 H123 0.973 . S
O122 C121 1.550 . S
O122 C128 1.412 . S
H123 C121 0.973 . S
C124 H117 0.929 . S
C124 C125 1.400 . S
C124 C126 1.364 . S
C125 C124 1.400 . S
C125 C129 1.377 . S
C126 C124 1.364 . S
C126 C127 1.374 . S
C127 H118 0.930 . S
C127 C126 1.374 . S
C127 C128 1.383 . S
C128 O122 1.412 . S
C128 C127 1.383 . S
C128 C129 1.394 . S
C129 H119 0.929 . S
C129 C125 1.377 . S
C129 C128 1.394 . S
H130 C137 0.929 . S
H131 C140 0.930 . S
H132 C142 0.929 . S
H133 C134 0.969 . S
C134 H133 0.969 . S
C134 O135 1.550 . S
C134 H136 0.973 . S
O135 C134 1.550 . S
O135 C141 1.412 . S
H136 C134 0.973 . S
C137 H130 0.929 . S
C137 C138 1.400 . S
C137 C139 1.364 . S
C138 C137 1.400 . S
C138 C142 1.377 . S
C139 C137 1.364 . S
C139 C140 1.374 . S
C140 H131 0.930 . S
C140 C139 1.374 . S
C140 C141 1.383 . S
C141 O135 1.412 . S
C141 C140 1.383 . S
C141 C142 1.394 . S
C142 H132 0.929 . S
C142 C138 1.377 . S
C142 C141 1.394 . S
H143 C150 0.929 . S
H144 C153 0.930 . S
H145 C155 0.929 . S
H146 C147 0.969 . S
C147 H146 0.969 . S
C147 O148 1.550 . S
C147 H149 0.973 . S
O148 C147 1.550 . S
O148 C154 1.412 . S
H149 C147 0.973 . S
C150 H143 0.929 . S
C150 C151 1.400 . S
C150 C152 1.364 . S
C151 C150 1.400 . S
C151 C155 1.377 . S
C152 C150 1.364 . S
C152 C153 1.374 . S
C153 H144 0.930 . S
C153 C152 1.374 . S
C153 C154 1.383 . S
C154 O148 1.412 . S
C154 C153 1.383 . S
C154 C155 1.394 . S
C155 H145 0.929 . S
C155 C151 1.377 . S
C155 C154 1.394 . S
H156 C163 0.929 . S
H157 C166 0.930 . S
H158 C168 0.929 . S
H159 C160 0.969 . S
C160 H159 0.969 . S
C160 O161 1.550 . S
C160 H162 0.973 . S
O161 C160 1.550 . S
O161 C167 1.412 . S
H162 C160 0.973 . S
C163 H156 0.929 . S
C163 C164 1.400 . S
C163 C165 1.364 . S
C164 C163 1.400 . S
C164 C168 1.377 . S
C165 C163 1.364 . S
C165 C166 1.374 . S
C166 H157 0.930 . S
C166 C165 1.374 . S
C166 C167 1.383 . S
C167 O161 1.412 . S
C167 C166 1.383 . S
C167 C168 1.394 . S
C168 H158 0.929 . S
C168 C164 1.377 . S
C168 C167 1.394 . S
H169 C176 0.929 . S
H170 C179 0.930 . S
H171 C181 0.929 . S
H172 C173 0.969 . S
C173 H172 0.969 . S
C173 O174 1.550 . S
C173 H175 0.973 . S
O174 C173 1.550 . S
O174 C180 1.412 . S
H175 C173 0.973 . S
C176 H169 0.929 . S
C176 C177 1.400 . S
C176 C178 1.364 . S
C177 C176 1.400 . S
C177 C181 1.377 . S
C178 C176 1.364 . S
C178 C179 1.374 . S
C179 H170 0.930 . S
C179 C178 1.374 . S
C179 C180 1.383 . S
C180 O174 1.412 . S
C180 C179 1.383 . S
C180 C181 1.394 . S
C181 H171 0.929 . S
C181 C177 1.377 . S
C181 C180 1.394 . S
H182 C189 0.929 . S
H183 C192 0.930 . S
H184 C194 0.929 . S
H185 C186 0.969 . S
C186 H185 0.969 . S
C186 O187 1.550 . S
C186 H188 0.973 . S
O187 C186 1.550 . S
O187 C193 1.412 . S
H188 C186 0.973 . S
C189 H182 0.929 . S
C189 C190 1.400 . S
C189 C191 1.364 . S
C190 C189 1.400 . S
C190 C194 1.377 . S
C191 C189 1.364 . S
C191 C192 1.374 . S
C192 H183 0.930 . S
C192 C191 1.374 . S
C192 C193 1.383 . S
C193 O187 1.412 . S
C193 C192 1.383 . S
C193 C194 1.394 . S
C194 H184 0.929 . S
C194 C190 1.377 . S
C194 C193 1.394 . S
H195 C202 0.929 . S
H196 C205 0.930 . S
H197 C207 0.929 . S
H198 C199 0.969 . S
C199 H198 0.969 . S
C199 O200 1.550 . S
C199 H201 0.973 . S
O200 C199 1.550 . S
O200 C206 1.412 . S
H201 C199 0.973 . S
C202 H195 0.929 . S
C202 C203 1.400 . S
C202 C204 1.364 . S
C203 C202 1.400 . S
C203 C207 1.377 . S
C204 C202 1.364 . S
C204 C205 1.374 . S
C205 H196 0.930 . S
C205 C204 1.374 . S
C205 C206 1.383 . S
C206 O200 1.412 . S
C206 C205 1.383 . S
C206 C207 1.394 . S
C207 H197 0.929 . S
C207 C203 1.377 . S
C207 C206 1.394 . S
H208 C215 0.929 . S
H209 C218 0.930 . S
H210 C220 0.929 . S
H211 C212 0.969 . S
C212 H211 0.969 . S
C212 O213 1.550 . S
C212 H214 0.973 . S
O213 C212 1.550 . S
O213 C219 1.412 . S
H214 C212 0.973 . S
C215 H208 0.929 . S
C215 C216 1.400 . S
C215 C217 1.364 . S
C216 C215 1.400 . S
C216 C220 1.377 . S
C217 C215 1.364 . S
C217 C218 1.374 . S
C218 H209 0.930 . S
C218 C217 1.374 . S
C218 C219 1.383 . S
C219 O213 1.412 . S
C219 C218 1.383 . S
C219 C220 1.394 . S
C220 H210 0.929 . S
C220 C216 1.377 . S
C220 C219 1.394 . S
H221 C228 0.929 . S
H222 C231 0.930 . S
H223 C233 0.929 . S
H224 C225 0.969 . S
C225 H224 0.969 . S
C225 O226 1.550 . S
C225 H227 0.973 . S
O226 C225 1.550 . S
O226 C232 1.412 . S
H227 C225 0.973 . S
C228 H221 0.929 . S
C228 C229 1.400 . S
C228 C230 1.364 . S
C229 C228 1.400 . S
C229 C233 1.377 . S
C230 C228 1.364 . S
C230 C231 1.374 . S
C231 H222 0.930 . S
C231 C230 1.374 . S
C231 C232 1.383 . S
C232 O226 1.412 . S
C232 C231 1.383 . S
C232 C233 1.394 . S
C233 H223 0.929 . S
C233 C229 1.377 . S
C233 C232 1.394 . S
C234 Eu235 2.835 . S
C234 C236 1.500 1_545 S
C234 O254 1.257 1_545 S
C234 O255 1.260 . S
Eu235 C234 2.835 . S
Eu235 O254 2.473 1_545 S
Eu235 O255 2.480 . S
Eu235 O256 2.430 . S
Eu235 O257 2.670 1_554 S
Eu235 O258 2.394 1_545 S
Eu235 O263 2.355 1_545 S
Eu235 O265 2.374 . S
C236 C234 1.500 1_565 S
C236 C237 1.377 1_565 S
C236 C241 1.377 . S
C237 C236 1.377 1_545 S
C237 C238 1.395 . S
C237 H266 0.931 . S
C238 C237 1.395 . S
C238 C239 1.383 1_545 S
C238 H267 0.932 . S
C239 C238 1.383 1_565 S
C239 C240 1.394 . S
C240 C239 1.394 . S
C240 C241 1.378 . S
C240 H268 0.931 . S
C241 C236 1.377 . S
C241 C240 1.378 . S
C241 H269 0.931 . S
C242 O256 1.259 . S
C242 O257 1.270 1_554 S
C243 O258 1.251 . S
C243 O259 1.251 1_554 S
C244 Eu245 2.835 1_545 S
C244 C246 1.500 . S
C244 O260 1.257 . S
C244 O261 1.260 1_545 S
Eu245 C244 2.835 1_565 S
Eu245 O257 2.355 1_565 S
Eu245 O259 2.374 . S
Eu245 O260 2.473 1_565 S
Eu245 O261 2.480 . S
Eu245 O262 2.430 . S
Eu245 O263 2.670 1_556 S
Eu245 O264 2.394 1_565 S
C246 C244 1.500 . S
C246 C247 1.377 . S
C246 C251 1.377 . S
C247 C246 1.377 . S
C247 C248 1.395 . S
C247 H270 0.931 1_545 S
C248 C247 1.395 . S
C248 C249 1.383 . S
C248 H271 0.896 1_545 S
C249 C248 1.383 . S
C249 C250 1.394 . S
C250 C249 1.394 . S
C250 C251 1.378 . S
C250 H272 0.931 . S
C251 C246 1.377 . S
C251 C250 1.378 . S
C251 H273 0.931 . S
C252 O262 1.259 1_554 S
C252 O263 1.270 . S
C253 O264 1.251 . S
C253 O265 1.251 1_556 S
O254 C234 1.257 1_565 S
O254 Eu235 2.473 1_565 S
O255 C234 1.260 . S
O255 Eu235 2.480 . S
O256 Eu235 2.430 . S
O256 C242 1.259 . S
O257 Eu235 2.670 1_556 S
O257 C242 1.270 1_556 S
O257 Eu245 2.355 1_545 S
O258 Eu235 2.394 1_565 S
O258 C243 1.251 . S
O259 C243 1.251 1_556 S
O259 Eu245 2.374 . S
O260 C244 1.257 . S
O260 Eu245 2.473 1_545 S
O261 C244 1.260 1_565 S
O261 Eu245 2.480 . S
O262 Eu245 2.430 . S
O262 C252 1.259 1_556 S
O263 Eu235 2.355 1_565 S
O263 Eu245 2.670 1_554 S
O263 C252 1.270 . S
O264 Eu245 2.394 1_545 S
O264 C253 1.251 . S
O265 Eu235 2.374 . S
O265 C253 1.251 1_554 S
H266 C237 0.931 . S
H267 C238 0.932 . S
H268 C240 0.931 . S
H269 C241 0.931 . S
H270 C247 0.931 1_565 S
H271 C248 0.896 1_565 S
H272 C250 0.931 . S
H273 C251 0.931 . S
C274 Eu275 2.835 1_455 S
C274 C276 1.500 . S
C274 O294 1.257 . S
C274 O295 1.260 1_455 S
Eu275 C274 2.835 1_655 S
Eu275 O294 2.473 1_655 S
Eu275 O295 2.480 . S
Eu275 O296 2.430 . S
Eu275 O297 2.670 1_554 S
Eu275 O298 2.394 1_655 S
Eu275 O303 2.355 1_655 S
Eu275 O305 2.374 . S
C276 C274 1.500 . S
C276 C277 1.377 . S
C276 C281 1.377 . S
C277 C276 1.377 . S
C277 C278 1.395 . S
C277 H306 0.931 1_455 S
C278 C277 1.395 . S
C278 C279 1.383 . S
C278 H307 0.931 . S
C279 C278 1.383 . S
C279 C280 1.394 . S
C280 C279 1.394 . S
C280 C281 1.378 . S
C280 H308 0.931 . S
C281 C276 1.377 . S
C281 C280 1.378 . S
C281 H309 0.931 . S
C282 O296 1.259 . S
C282 O297 1.270 1_554 S
C283 O298 1.251 . S
C283 O299 1.251 . S
C284 Eu285 2.835 1_655 S
C284 C286 1.500 . S
C284 O300 1.257 . S
C284 O301 1.260 1_655 S
Eu285 C284 2.835 1_455 S
Eu285 O297 2.355 1_455 S
Eu285 O299 2.374 1_556 S
Eu285 O300 2.473 1_455 S
Eu285 O301 2.480 . S
Eu285 O302 2.430 . S
Eu285 O303 2.670 1_556 S
Eu285 O304 2.394 1_455 S
C286 C284 1.500 . S
C286 C287 1.385 . S
C286 C291 1.377 . S
C287 C286 1.385 . S
C287 C288 1.404 . S
C287 H310 0.915 1_655 S
C288 C287 1.404 . S
C288 C289 1.383 . S
C288 H311 0.931 1_655 S
C289 C288 1.383 . S
C289 C290 1.394 . S
C290 C289 1.394 . S
C290 C291 1.378 . S
C290 H312 0.931 . S
C291 C286 1.377 . S
C291 C290 1.378 . S
C291 H313 0.931 . S
C292 O302 1.259 1_554 S
C292 O303 1.270 . S
C293 O304 1.251 . S
C293 O305 1.251 1_556 S
O294 C274 1.257 . S
O294 Eu275 2.473 1_455 S
O295 C274 1.260 1_655 S
O295 Eu275 2.480 . S
O296 Eu275 2.430 . S
O296 C282 1.259 . S
O297 Eu275 2.670 1_556 S
O297 C282 1.270 1_556 S
O297 Eu285 2.355 1_655 S
O298 Eu275 2.394 1_455 S
O298 C283 1.251 . S
O299 C283 1.251 . S
O299 Eu285 2.374 1_554 S
O300 C284 1.257 . S
O300 Eu285 2.473 1_655 S
O301 C284 1.260 1_455 S
O301 Eu285 2.480 . S
O302 Eu285 2.430 . S
O302 C292 1.259 1_556 S
O303 Eu275 2.355 1_455 S
O303 Eu285 2.670 1_554 S
O303 C292 1.270 . S
O304 Eu285 2.394 1_655 S
O304 C293 1.251 . S
O305 Eu275 2.374 . S
O305 C293 1.251 1_554 S
H306 C277 0.931 1_655 S
H307 C278 0.931 . S
H308 C280 0.931 . S
H309 C281 0.931 . S
H310 C287 0.915 1_455 S
H311 C288 0.931 1_455 S
H312 C290 0.931 . S
H313 C291 0.931 . S
C314 Eu315 2.835 . S
C314 C316 1.500 . S
C314 O334 1.257 . S
C314 O335 1.260 . S
Eu315 C314 2.835 . S
Eu315 O334 2.473 . S
Eu315 O335 2.480 . S
Eu315 O336 2.430 . S
Eu315 O337 2.670 1_556 S
Eu315 O338 2.394 . S
Eu315 O343 2.339 1_556 S
Eu315 O345 2.374 1_556 S
C316 C314 1.500 . S
C316 C317 1.377 . S
C316 C321 1.377 . S
C317 C316 1.377 . S
C317 C318 1.395 . S
C317 H346 0.931 . S
C318 C317 1.395 . S
C318 C319 1.383 . S
C318 H347 0.931 . S
C319 C318 1.383 . S
C319 C320 1.394 . S
C320 C319 1.394 . S
C320 C321 1.378 . S
C320 H348 0.931 . S
C321 C316 1.377 . S
C321 C320 1.378 . S
C321 H349 0.931 . S
C322 O336 1.259 1_554 S
C322 O337 1.270 . S
C323 O338 1.251 . S
C323 O339 1.251 1_556 S
C324 Eu325 2.835 . S
C324 C326 1.500 . S
C324 O340 1.257 . S
C324 O341 1.260 . S
Eu325 C324 2.835 . S
Eu325 O337 2.355 . S
Eu325 O339 2.374 . S
Eu325 O340 2.473 . S
Eu325 O341 2.480 . S
Eu325 O342 2.430 . S
Eu325 O343 2.696 . S
Eu325 O344 2.394 . S
C326 C324 1.500 . S
C326 C327 1.377 . S
C326 C331 1.377 . S
C327 C326 1.377 . S
C327 C328 1.395 . S
C327 H350 0.931 . S
C328 C327 1.395 . S
C328 C329 1.383 . S
C328 H351 0.931 . S
C329 C328 1.383 . S
C329 C330 1.394 . S
C330 C329 1.394 . S
C330 C331 1.378 . S
C330 H352 0.931 . S
C331 C326 1.377 . S
C331 C330 1.378 . S
C331 H353 0.931 . S
C332 O342 1.259 . S
C332 O343 1.284 . S
C333 O344 1.251 . S
C333 O345 1.251 . S
O334 C314 1.257 . S
O334 Eu315 2.473 . S
O335 C314 1.260 . S
O335 Eu315 2.480 . S
O336 Eu315 2.430 . S
O336 C322 1.259 1_556 S
O337 Eu315 2.670 1_554 S
O337 C322 1.270 . S
O337 Eu325 2.355 . S
O338 Eu315 2.394 . S
O338 C323 1.251 . S
O339 C323 1.251 1_554 S
O339 Eu325 2.374 . S
O340 C324 1.257 . S
O340 Eu325 2.473 . S
O341 C324 1.260 . S
O341 Eu325 2.480 . S
O342 Eu325 2.430 . S
O342 C332 1.259 . S
O343 Eu315 2.339 1_554 S
O343 Eu325 2.696 . S
O343 C332 1.284 . S
O344 Eu325 2.394 . S
O344 C333 1.251 . S
O345 Eu315 2.374 1_554 S
O345 C333 1.251 . S
H346 C317 0.931 . S
H347 C318 0.931 . S
H348 C320 0.931 . S
H349 C321 0.931 . S
H350 C327 0.931 . S
H351 C328 0.931 . S
H352 C330 0.931 . S
H353 C331 0.931 . S
C354 Eu355 2.835 . S
C354 C356 1.500 . S
C354 O374 1.257 . S
C354 O375 1.260 . S
Eu355 C354 2.835 . S
Eu355 O374 2.473 . S
Eu355 O375 2.480 . S
Eu355 O376 2.430 . S
Eu355 O377 2.670 . S
Eu355 O378 2.394 . S
Eu355 O383 2.355 . S
Eu355 O385 2.374 . S
C356 C354 1.500 . S
C356 C357 1.377 . S
C356 C361 1.377 . S
C357 C356 1.377 . S
C357 C358 1.395 . S
C357 H386 0.931 . S
C358 C357 1.395 . S
C358 C359 1.383 . S
C358 H387 0.931 . S
C359 C358 1.383 . S
C359 C360 1.394 . S
C360 C359 1.394 . S
C360 C361 1.378 . S
C360 H388 0.931 . S
C361 C356 1.377 . S
C361 C360 1.378 . S
C361 H389 0.931 . S
C362 O376 1.259 . S
C362 O377 1.270 . S
C363 O378 1.251 . S
C363 O379 1.251 . S
C364 Eu365 2.835 . S
C364 C366 1.500 . S
C364 O380 1.257 . S
C364 O381 1.260 . S
Eu365 C364 2.835 . S
Eu365 O377 2.355 . S
Eu365 O379 2.374 . S
Eu365 O380 2.473 . S
Eu365 O381 2.480 . S
Eu365 O382 2.430 . S
Eu365 O383 2.670 . S
Eu365 O384 2.394 . S
C366 C364 1.500 . S
C366 C367 1.377 . S
C366 C371 1.377 . S
C367 C366 1.377 . S
C367 C368 1.395 . S
C367 H390 0.931 . S
C368 C367 1.395 . S
C368 C369 1.383 . S
C368 H391 0.931 . S
C369 C368 1.383 . S
C369 C370 1.394 . S
C370 C369 1.394 . S
C370 C371 1.378 . S
C370 H392 0.931 . S
C371 C366 1.377 . S
C371 C370 1.378 . S
C371 H393 0.931 . S
C372 O382 1.259 . S
C372 O383 1.270 . S
C373 O384 1.251 . S
C373 O385 1.251 . S
O374 C354 1.257 . S
O374 Eu355 2.473 . S
O375 C354 1.260 . S
O375 Eu355 2.480 . S
O376 Eu355 2.430 . S
O376 C362 1.259 . S
O377 Eu355 2.670 . S
O377 C362 1.270 . S
O377 Eu365 2.355 . S
O378 Eu355 2.394 . S
O378 C363 1.251 . S
O379 C363 1.251 . S
O379 Eu365 2.374 . S
O380 C364 1.257 . S
O380 Eu365 2.473 . S
O381 C364 1.260 . S
O381 Eu365 2.480 . S
O382 Eu365 2.430 . S
O382 C372 1.259 . S
O383 Eu355 2.355 . S
O383 Eu365 2.670 . S
O383 C372 1.270 . S
O384 Eu365 2.394 . S
O384 C373 1.251 . S
O385 Eu355 2.374 . S
O385 C373 1.251 . S
H386 C357 0.931 . S
H387 C358 0.931 . S
H388 C360 0.931 . S
H389 C361 0.931 . S
H390 C367 0.931 . S
H391 C368 0.931 . S
H392 C370 0.931 . S
H393 C371 0.931 . S
C394 Eu395 2.835 . S
C394 C396 1.500 . S
C394 O414 1.257 . S
C394 O415 1.260 . S
Eu395 C394 2.835 . S
Eu395 O414 2.473 . S
Eu395 O415 2.480 . S
Eu395 O416 2.430 . S
Eu395 O417 2.670 . S
Eu395 O418 2.394 . S
Eu395 O423 2.355 . S
Eu395 O425 2.374 . S
C396 C394 1.500 . S
C396 C397 1.377 . S
C396 C401 1.377 . S
C397 C396 1.377 . S
C397 C398 1.395 . S
C397 H426 0.931 . S
C398 C397 1.395 . S
C398 C399 1.383 . S
C398 H427 0.931 . S
C399 C398 1.383 . S
C399 C400 1.394 . S
C400 C399 1.394 . S
C400 C401 1.378 . S
C400 H428 0.931 . S
C401 C396 1.377 . S
C401 C400 1.378 . S
C401 H429 0.931 . S
C402 O416 1.259 . S
C402 O417 1.270 . S
C403 O418 1.251 . S
C403 O419 1.251 . S
C404 Eu405 2.835 . S
C404 C406 1.500 . S
C404 O420 1.257 . S
C404 O421 1.260 . S
Eu405 C404 2.835 . S
Eu405 O417 2.355 . S
Eu405 O419 2.374 . S
Eu405 O420 2.473 . S
Eu405 O421 2.480 . S
Eu405 O422 2.430 . S
Eu405 O423 2.670 . S
Eu405 O424 2.394 . S
C406 C404 1.500 . S
C406 C407 1.377 . S
C406 C411 1.377 . S
C407 C406 1.377 . S
C407 C408 1.395 . S
C407 H430 0.931 . S
C408 C407 1.395 . S
C408 C409 1.383 . S
C408 H431 0.931 . S
C409 C408 1.383 . S
C409 C410 1.394 . S
C410 C409 1.394 . S
C410 C411 1.378 . S
C410 H432 0.931 . S
C411 C406 1.377 . S
C411 C410 1.378 . S
C411 H433 0.931 . S
C412 O422 1.259 . S
C412 O423 1.270 . S
C413 O424 1.251 . S
C413 O425 1.251 . S
O414 C394 1.257 . S
O414 Eu395 2.473 . S
O415 C394 1.260 . S
O415 Eu395 2.480 . S
O416 Eu395 2.430 . S
O416 C402 1.259 . S
O417 Eu395 2.670 . S
O417 C402 1.270 . S
O417 Eu405 2.355 . S
O418 Eu395 2.394 . S
O418 C403 1.251 . S
O419 C403 1.251 . S
O419 Eu405 2.374 . S
O420 C404 1.257 . S
O420 Eu405 2.473 . S
O421 C404 1.260 . S
O421 Eu405 2.480 . S
O422 Eu405 2.430 . S
O422 C412 1.259 . S
O423 Eu395 2.355 . S
O423 Eu405 2.670 . S
O423 C412 1.270 . S
O424 Eu405 2.394 . S
O424 C413 1.251 . S
O425 Eu395 2.374 . S
O425 C413 1.251 . S
H426 C397 0.931 . S
H427 C398 0.931 . S
H428 C400 0.931 . S
H429 C401 0.931 . S
H430 C407 0.931 . S
H431 C408 0.931 . S
H432 C410 0.931 . S
H433 C411 0.931 . S
C434 Eu435 2.835 . S
C434 C436 1.500 . S
C434 O454 1.257 . S
C434 O455 1.260 . S
Eu435 C434 2.835 . S
Eu435 O454 2.473 . S
Eu435 O455 2.480 . S
Eu435 O456 2.430 . S
Eu435 O457 2.670 . S
Eu435 O458 2.394 . S
Eu435 O463 2.355 . S
Eu435 O465 2.374 . S
C436 C434 1.500 . S
C436 C437 1.377 . S
C436 C441 1.377 . S
C437 C436 1.377 . S
C437 C438 1.395 . S
C437 H466 0.931 . S
C438 C437 1.395 . S
C438 C439 1.383 . S
C438 H467 0.931 . S
C439 C438 1.383 . S
C439 C440 1.394 . S
C440 C439 1.394 . S
C440 C441 1.378 . S
C440 H468 0.931 . S
C441 C436 1.377 . S
C441 C440 1.378 . S
C441 H469 0.931 . S
C442 O456 1.259 . S
C442 O457 1.270 . S
C443 O458 1.251 . S
C443 O459 1.251 . S
C444 Eu445 2.835 . S
C444 C446 1.500 . S
C444 O460 1.257 . S
C444 O461 1.260 . S
Eu445 C444 2.835 . S
Eu445 O457 2.355 . S
Eu445 O459 2.374 . S
Eu445 O460 2.473 . S
Eu445 O461 2.480 . S
Eu445 O462 2.430 . S
Eu445 O463 2.670 . S
Eu445 O464 2.394 . S
C446 C444 1.500 . S
C446 C447 1.377 . S
C446 C451 1.377 . S
C447 C446 1.377 . S
C447 C448 1.395 . S
C447 H470 0.931 . S
C448 C447 1.395 . S
C448 C449 1.383 . S
C448 H471 0.931 . S
C449 C448 1.383 . S
C449 C450 1.394 . S
C450 C449 1.394 . S
C450 C451 1.378 . S
C450 H472 0.931 . S
C451 C446 1.377 . S
C451 C450 1.378 . S
C451 H473 0.931 . S
C452 O462 1.259 . S
C452 O463 1.270 . S
C453 O464 1.251 . S
C453 O465 1.251 . S
O454 C434 1.257 . S
O454 Eu435 2.473 . S
O455 C434 1.260 . S
O455 Eu435 2.480 . S
O456 Eu435 2.430 . S
O456 C442 1.259 . S
O457 Eu435 2.670 . S
O457 C442 1.270 . S
O457 Eu445 2.355 . S
O458 Eu435 2.394 . S
O458 C443 1.251 . S
O459 C443 1.251 . S
O459 Eu445 2.374 . S
O460 C444 1.257 . S
O460 Eu445 2.473 . S
O461 C444 1.260 . S
O461 Eu445 2.480 . S
O462 Eu445 2.430 . S
O462 C452 1.259 . S
O463 Eu435 2.355 . S
O463 Eu445 2.670 . S
O463 C452 1.270 . S
O464 Eu445 2.394 . S
O464 C453 1.251 . S
O465 Eu435 2.374 . S
O465 C453 1.251 . S
H466 C437 0.931 . S
H467 C438 0.931 . S
H468 C440 0.931 . S
H469 C441 0.931 . S
H470 C447 0.931 . S
H471 C448 0.931 . S
H472 C450 0.931 . S
H473 C451 0.931 . S
C474 Eu475 2.835 . S
C474 C476 1.500 . S
C474 O494 1.257 . S
C474 O495 1.260 . S
Eu475 C474 2.835 . S
Eu475 O494 2.473 . S
Eu475 O495 2.480 . S
Eu475 O496 2.430 . S
Eu475 O497 2.670 . S
Eu475 O498 2.394 . S
Eu475 O503 2.355 . S
Eu475 O505 2.374 . S
C476 C474 1.500 . S
C476 C477 1.377 . S
C476 C481 1.377 . S
C477 C476 1.377 . S
C477 C478 1.395 . S
C477 H506 0.931 . S
C478 C477 1.395 . S
C478 C479 1.383 . S
C478 H507 0.931 . S
C479 C478 1.383 . S
C479 C480 1.394 . S
C480 C479 1.394 . S
C480 C481 1.378 . S
C480 H508 0.931 . S
C481 C476 1.377 . S
C481 C480 1.378 . S
C481 H509 0.931 . S
C482 O496 1.259 . S
C482 O497 1.270 . S
C483 O498 1.251 . S
C483 O499 1.251 . S
C484 Eu485 2.835 . S
C484 C486 1.500 . S
C484 O500 1.257 . S
C484 O501 1.260 . S
Eu485 C484 2.835 . S
Eu485 O497 2.355 . S
Eu485 O499 2.374 . S
Eu485 O500 2.473 . S
Eu485 O501 2.480 . S
Eu485 O502 2.430 . S
Eu485 O503 2.670 . S
Eu485 O504 2.394 . S
C486 C484 1.500 . S
C486 C487 1.377 . S
C486 C491 1.377 . S
C487 C486 1.377 . S
C487 C488 1.395 . S
C487 H510 0.931 . S
C488 C487 1.395 . S
C488 C489 1.383 . S
C488 H511 0.931 . S
C489 C488 1.383 . S
C489 C490 1.394 . S
C490 C489 1.394 . S
C490 C491 1.378 . S
C490 H512 0.931 . S
C491 C486 1.377 . S
C491 C490 1.378 . S
C491 H513 0.931 . S
C492 O502 1.259 . S
C492 O503 1.270 . S
C493 O504 1.251 . S
C493 O505 1.251 . S
O494 C474 1.257 . S
O494 Eu475 2.473 . S
O495 C474 1.260 . S
O495 Eu475 2.480 . S
O496 Eu475 2.430 . S
O496 C482 1.259 . S
O497 Eu475 2.670 . S
O497 C482 1.270 . S
O497 Eu485 2.355 . S
O498 Eu475 2.394 . S
O498 C483 1.251 . S
O499 C483 1.251 . S
O499 Eu485 2.374 . S
O500 C484 1.257 . S
O500 Eu485 2.473 . S
O501 C484 1.260 . S
O501 Eu485 2.480 . S
O502 Eu485 2.430 . S
O502 C492 1.259 . S
O503 Eu475 2.355 . S
O503 Eu485 2.670 . S
O503 C492 1.270 . S
O504 Eu485 2.394 . S
O504 C493 1.251 . S
O505 Eu475 2.374 . S
O505 C493 1.251 . S
H506 C477 0.931 . S
H507 C478 0.931 . S
H508 C480 0.931 . S
H509 C481 0.931 . S
H510 C487 0.931 . S
H511 C488 0.931 . S
H512 C490 0.931 . S
H513 C491 0.931 . S
C514 Eu515 2.835 . S
C514 C516 1.500 . S
C514 O534 1.257 . S
C514 O535 1.260 . S
Eu515 C514 2.835 . S
Eu515 O534 2.473 . S
Eu515 O535 2.480 . S
Eu515 O536 2.430 . S
Eu515 O537 2.670 . S
Eu515 O538 2.394 . S
Eu515 O543 2.355 . S
Eu515 O545 2.374 . S
C516 C514 1.500 . S
C516 C517 1.377 . S
C516 C521 1.377 . S
C517 C516 1.377 . S
C517 C518 1.395 . S
C517 H546 0.931 . S
C518 C517 1.395 . S
C518 C519 1.383 . S
C518 H547 0.931 . S
C519 C518 1.383 . S
C519 C520 1.394 . S
C520 C519 1.394 . S
C520 C521 1.378 . S
C520 H548 0.931 . S
C521 C516 1.377 . S
C521 C520 1.378 . S
C521 H549 0.931 . S
C522 O536 1.259 . S
C522 O537 1.270 . S
C523 O538 1.251 . S
C523 O539 1.251 . S
C524 Eu525 2.835 . S
C524 C526 1.500 . S
C524 O540 1.257 . S
C524 O541 1.260 . S
Eu525 C524 2.835 . S
Eu525 O537 2.355 . S
Eu525 O539 2.374 . S
Eu525 O540 2.473 . S
Eu525 O541 2.480 . S
Eu525 O542 2.430 . S
Eu525 O543 2.670 . S
Eu525 O544 2.394 . S
C526 C524 1.500 . S
C526 C527 1.377 . S
C526 C531 1.377 . S
C527 C526 1.377 . S
C527 C528 1.395 . S
C527 H550 0.931 . S
C528 C527 1.395 . S
C528 C529 1.383 . S
C528 H551 0.931 . S
C529 C528 1.383 . S
C529 C530 1.394 . S
C530 C529 1.394 . S
C530 C531 1.378 . S
C530 H552 0.931 . S
C531 C526 1.377 . S
C531 C530 1.378 . S
C531 H553 0.931 . S
C532 O542 1.259 . S
C532 O543 1.270 . S
C533 O544 1.251 . S
C533 O545 1.251 . S
O534 C514 1.257 . S
O534 Eu515 2.473 . S
O535 C514 1.260 . S
O535 Eu515 2.480 . S
O536 Eu515 2.430 . S
O536 C522 1.259 . S
O537 Eu515 2.670 . S
O537 C522 1.270 . S
O537 Eu525 2.355 . S
O538 Eu515 2.394 . S
O538 C523 1.251 . S
O539 C523 1.251 . S
O539 Eu525 2.374 . S
O540 C524 1.257 . S
O540 Eu525 2.473 . S
O541 C524 1.260 . S
O541 Eu525 2.480 . S
O542 Eu525 2.430 . S
O542 C532 1.259 . S
O543 Eu515 2.355 . S
O543 Eu525 2.670 . S
O543 C532 1.270 . S
O544 Eu525 2.394 . S
O544 C533 1.251 . S
O545 Eu515 2.374 . S
O545 C533 1.251 . S
H546 C517 0.931 . S
H547 C518 0.931 . S
H548 C520 0.931 . S
H549 C521 0.931 . S
H550 C527 0.931 . S
H551 C528 0.931 . S
H552 C530 0.931 . S
H553 C531 0.931 . S
C554 Eu555 2.835 . S
C554 C556 1.500 . S
C554 O574 1.257 . S
C554 O575 1.260 . S
Eu555 C554 2.835 . S
Eu555 O574 2.473 . S
Eu555 O575 2.480 . S
Eu555 O576 2.430 . S
Eu555 O577 2.670 . S
Eu555 O578 2.394 . S
Eu555 O583 2.355 . S
Eu555 O585 2.374 . S
C556 C554 1.500 . S
C556 C557 1.377 . S
C556 C561 1.377 . S
C557 C556 1.377 . S
C557 C558 1.395 . S
C557 H586 0.931 . S
C558 C557 1.395 . S
C558 C559 1.383 . S
C558 H587 0.931 . S
C559 C558 1.383 . S
C559 C560 1.394 . S
C560 C559 1.394 . S
C560 C561 1.378 . S
C560 H588 0.931 . S
C561 C556 1.377 . S
C561 C560 1.378 . S
C561 H589 0.931 . S
C562 O576 1.259 . S
C562 O577 1.270 . S
C563 O578 1.251 . S
C563 O579 1.251 . S
C564 Eu565 2.835 . S
C564 C566 1.500 . S
C564 O580 1.257 . S
C564 O581 1.260 . S
Eu565 C564 2.835 . S
Eu565 O577 2.355 . S
Eu565 O579 2.374 . S
Eu565 O580 2.473 . S
Eu565 O581 2.480 . S
Eu565 O582 2.430 . S
Eu565 O583 2.670 . S
Eu565 O584 2.394 . S
C566 C564 1.500 . S
C566 C567 1.377 . S
C566 C571 1.377 . S
C567 C566 1.377 . S
C567 C568 1.395 . S
C567 H590 0.931 . S
C568 C567 1.395 . S
C568 C569 1.383 . S
C568 H591 0.931 . S
C569 C568 1.383 . S
C569 C570 1.394 . S
C570 C569 1.394 . S
C570 C571 1.378 . S
C570 H592 0.931 . S
C571 C566 1.377 . S
C571 C570 1.378 . S
C571 H593 0.931 . S
C572 O582 1.259 . S
C572 O583 1.270 . S
C573 O584 1.251 . S
C573 O585 1.251 . S
O574 C554 1.257 . S
O574 Eu555 2.473 . S
O575 C554 1.260 . S
O575 Eu555 2.480 . S
O576 Eu555 2.430 . S
O576 C562 1.259 . S
O577 Eu555 2.670 . S
O577 C562 1.270 . S
O577 Eu565 2.355 . S
O578 Eu555 2.394 . S
O578 C563 1.251 . S
O579 C563 1.251 . S
O579 Eu565 2.374 . S
O580 C564 1.257 . S
O580 Eu565 2.473 . S
O581 C564 1.260 . S
O581 Eu565 2.480 . S
O582 Eu565 2.430 . S
O582 C572 1.259 . S
O583 Eu555 2.355 . S
O583 Eu565 2.670 . S
O583 C572 1.270 . S
O584 Eu565 2.394 . S
O584 C573 1.251 . S
O585 Eu555 2.374 . S
O585 C573 1.251 . S
H586 C557 0.931 . S
H587 C558 0.931 . S
H588 C560 0.931 . S
H589 C561 0.931 . S
H590 C567 0.931 . S
H591 C568 0.931 . S
H592 C570 0.931 . S
H593 C571 0.931 . S
H594 C600 0.930 . S
H595 C604 0.930 1_556 S
H596 C609 0.929 . S
H597 C607 0.929 . S
H598 C602 0.929 . S
H599 C608 0.929 . S
C600 H594 0.930 . S
C600 C601 1.367 . S
C600 C608 1.378 . S
C601 C600 1.367 . S
C601 C609 1.433 . S
C602 H598 0.929 . S
C602 C604 1.378 . S
C602 C606 1.350 . S
C603 C606 1.463 . S
C603 C608 1.350 . S
C603 N611 1.427 . S
C604 H595 0.930 1_554 S
C604 C602 1.378 . S
C604 C605 1.367 . S
C605 C604 1.367 . S
C605 C607 1.433 . S
C606 C602 1.350 . S
C606 C603 1.463 . S
C606 N610 1.427 . S
C607 H597 0.929 . S
C607 C605 1.433 . S
C607 N610 1.384 . S
C608 H599 0.929 . S
C608 C600 1.378 . S
C608 C603 1.350 . S
C609 H596 0.929 . S
C609 C601 1.433 . S
C609 N611 1.384 . S
N610 C606 1.427 . S
N610 C607 1.384 . S
N611 C603 1.427 . S
N611 C609 1.384 . S
H612 C618 0.930 . S
H613 C622 0.930 . S
H614 C627 0.929 . S
H615 C625 0.929 . S
H616 C620 0.929 . S
H617 C626 0.929 . S
C618 H612 0.930 . S
C618 C619 1.367 . S
C618 C626 1.378 . S
C619 C618 1.367 . S
C619 C627 1.433 . S
C620 H616 0.929 . S
C620 C622 1.378 . S
C620 C624 1.350 . S
C621 C624 1.463 . S
C621 C626 1.350 . S
C621 N629 1.427 . S
C622 H613 0.930 . S
C622 C620 1.378 . S
C622 C623 1.367 . S
C623 C622 1.367 . S
C623 C625 1.433 . S
C624 C620 1.350 . S
C624 C621 1.463 . S
C624 N628 1.427 . S
C625 H615 0.929 . S
C625 C623 1.433 . S
C625 N628 1.384 . S
C626 H617 0.929 . S
C626 C618 1.378 . S
C626 C621 1.350 . S
C627 H614 0.929 . S
C627 C619 1.433 . S
C627 N629 1.384 . S
N628 C624 1.427 . S
N628 C625 1.384 . S
N629 C621 1.427 . S
N629 C627 1.384 . S
H630 C636 0.930 . S
H631 C640 0.930 1_556 S
H632 C645 0.929 . S
H633 C643 0.929 . S
H634 C638 0.929 1_556 S
H635 C644 0.929 . S
C636 H630 0.930 . S
C636 C637 1.367 . S
C636 C644 1.378 . S
C637 C636 1.367 . S
C637 C645 1.433 . S
C638 H634 0.929 1_554 S
C638 C640 1.378 . S
C638 C642 1.350 . S
C639 C642 1.463 . S
C639 C644 1.350 . S
C639 N647 1.427 . S
C640 H631 0.930 1_554 S
C640 C638 1.378 . S
C640 C641 1.367 . S
C641 C640 1.367 . S
C641 C643 1.433 . S
C642 C638 1.350 . S
C642 C639 1.463 . S
C642 N646 1.427 . S
C643 H633 0.929 . S
C643 C641 1.433 . S
C643 N646 1.384 . S
C644 H635 0.929 . S
C644 C636 1.378 . S
C644 C639 1.350 . S
C645 H632 0.929 . S
C645 C637 1.433 . S
C645 N647 1.384 . S
N646 C642 1.427 . S
N646 C643 1.384 . S
N647 C639 1.427 . S
N647 C645 1.384 . S
H648 C654 0.930 . S
H649 C658 0.930 . S
H650 C663 0.929 . S
H651 C661 0.957 . S
H652 C656 0.929 . S
H653 C662 0.929 . S
C654 H648 0.930 . S
C654 C655 1.367 . S
C654 C662 1.378 . S
C655 C654 1.367 . S
C655 C663 1.433 . S
C656 H652 0.929 . S
C656 C658 1.378 . S
C656 C660 1.350 . S
C657 C660 1.463 . S
C657 C662 1.350 . S
C657 N665 1.427 . S
C658 H649 0.930 . S
C658 C656 1.378 . S
C658 C659 1.367 . S
C659 C658 1.367 . S
C659 C661 1.412 1_556 S
C660 C656 1.350 . S
C660 C657 1.463 . S
C660 N664 1.427 . S
C661 H651 0.957 . S
C661 C659 1.412 1_554 S
C661 N664 1.378 1_554 S
C662 H653 0.929 . S
C662 C654 1.378 . S
C662 C657 1.350 . S
C663 H650 0.929 . S
C663 C655 1.433 . S
C663 N665 1.384 . S
N664 C660 1.427 . S
N664 C661 1.378 1_556 S
N665 C657 1.427 . S
N665 C663 1.384 . S
H666 C672 0.930 . S
H667 C676 0.930 . S
H668 C681 0.929 . S
H669 C679 0.929 . S
H670 C674 0.929 . S
H671 C680 0.929 . S
C672 H666 0.930 . S
C672 C673 1.367 . S
C672 C680 1.378 . S
C673 C672 1.367 . S
C673 C681 1.433 . S
C674 H670 0.929 . S
C674 C676 1.378 . S
C674 C678 1.350 . S
C675 C678 1.463 . S
C675 C680 1.350 . S
C675 N683 1.427 . S
C676 H667 0.930 . S
C676 C674 1.378 . S
C676 C677 1.367 . S
C677 C676 1.367 . S
C677 C679 1.433 . S
C678 C674 1.350 . S
C678 C675 1.463 . S
C678 N682 1.427 . S
C679 H669 0.929 . S
C679 C677 1.433 . S
C679 N682 1.384 . S
C680 H671 0.929 . S
C680 C672 1.378 . S
C680 C675 1.350 . S
C681 H668 0.929 . S
C681 C673 1.433 . S
C681 N683 1.384 . S
N682 C678 1.427 . S
N682 C679 1.384 . S
N683 C675 1.427 . S
N683 C681 1.384 . S
H684 C690 0.930 . S
H685 C694 0.930 . S
H686 C699 0.929 1_554 S
H687 C697 0.929 . S
H688 C692 0.929 . S
H689 C698 0.929 . S
C690 H684 0.930 . S
C690 C691 1.367 . S
C690 C698 1.378 . S
C691 C690 1.367 . S
C691 C699 1.433 . S
C692 H688 0.929 . S
C692 C694 1.378 . S
C692 C696 1.350 1_554 S
C693 C696 1.463 . S
C693 C698 1.350 . S
C693 N701 1.427 . S
C694 H685 0.930 . S
C694 C692 1.378 . S
C694 C695 1.367 1_554 S
C695 C694 1.367 1_556 S
C695 C697 1.433 . S
C696 C692 1.350 1_556 S
C696 C693 1.463 . S
C696 N700 1.427 . S
C697 H687 0.929 . S
C697 C695 1.433 . S
C697 N700 1.384 . S
C698 H689 0.929 . S
C698 C690 1.378 . S
C698 C693 1.350 . S
C699 H686 0.929 1_556 S
C699 C691 1.433 . S
C699 N701 1.384 . S
N700 C696 1.427 . S
N700 C697 1.384 . S
N701 C693 1.427 . S
N701 C699 1.384 . S
H702 C708 0.930 . S
H703 C712 0.930 . S
H704 C717 0.934 . S
H705 C715 0.929 . S
H706 C710 0.960 . S
H707 C716 0.929 . S
C708 H702 0.930 . S
C708 C709 1.367 . S
C708 C716 1.378 . S
C709 C708 1.367 . S
C709 C717 1.433 . S
C710 H706 0.960 . S
C710 C712 1.392 . S
C710 C714 1.305 1_554 S
C711 C714 1.463 . S
C711 C716 1.350 . S
C711 N719 1.427 . S
C712 H703 0.930 . S
C712 C710 1.392 . S
C712 C713 1.367 1_554 S
C713 C712 1.367 1_556 S
C713 C715 1.433 . S
C714 C710 1.305 1_556 S
C714 C711 1.463 . S
C714 N718 1.427 . S
C715 H705 0.929 . S
C715 C713 1.433 . S
C715 N718 1.384 . S
C716 H707 0.929 . S
C716 C708 1.378 . S
C716 C711 1.350 . S
C717 H704 0.934 . S
C717 C709 1.433 . S
C717 N719 1.384 . S
N718 C714 1.427 . S
N718 C715 1.384 . S
N719 C711 1.427 . S
N719 C717 1.384 . S
H720 C726 0.930 . S
H721 C730 0.930 . S
H722 C735 0.929 . S
H723 C733 0.929 1_554 S
H724 C728 0.929 . S
H725 C734 0.929 . S
C726 H720 0.930 . S
C726 C727 1.367 . S
C726 C734 1.378 . S
C727 C726 1.367 . S
C727 C735 1.433 . S
C728 H724 0.929 . S
C728 C730 1.378 . S
C728 C732 1.350 . S
C729 C732 1.463 . S
C729 C734 1.350 . S
C729 N737 1.427 . S
C730 H721 0.930 . S
C730 C728 1.378 . S
C730 C731 1.367 . S
C731 C730 1.367 . S
C731 C733 1.433 . S
C732 C728 1.350 . S
C732 C729 1.463 . S
C732 N736 1.427 . S
C733 H723 0.929 1_556 S
C733 C731 1.433 . S
C733 N736 1.384 . S
C734 H725 0.929 . S
C734 C726 1.378 . S
C734 C729 1.350 . S
C735 H722 0.929 . S
C735 C727 1.433 . S
C735 N737 1.384 . S
N736 C732 1.427 . S
N736 C733 1.384 . S
N737 C729 1.427 . S
N737 C735 1.384 . S
H738 C744 0.930 . S
H739 C748 0.930 . S
H740 C753 0.929 . S
H741 C751 0.929 . S
H742 C746 0.929 . S
H743 C752 0.929 . S
C744 H738 0.930 . S
C744 C745 1.367 . S
C744 C752 1.378 . S
C745 C744 1.367 . S
C745 C753 1.433 1_556 S
C746 H742 0.929 . S
C746 C748 1.378 . S
C746 C750 1.350 1_554 S
C747 C750 1.463 . S
C747 C752 1.350 . S
C747 N755 1.427 1_556 S
C748 H739 0.930 . S
C748 C746 1.378 . S
C748 C749 1.404 . S
C749 C748 1.404 . S
C749 C751 1.395 1_554 S
C750 C746 1.350 1_556 S
C750 C747 1.463 . S
C750 N754 1.427 . S
C751 H741 0.929 . S
C751 C749 1.395 1_556 S
C751 N754 1.384 . S
C752 H743 0.929 . S
C752 C744 1.378 . S
C752 C747 1.350 . S
C753 H740 0.929 . S
C753 C745 1.433 1_554 S
C753 N755 1.384 . S
N754 C750 1.427 . S
N754 C751 1.384 . S
N755 C747 1.427 1_554 S
N755 C753 1.384 . S
H756 C762 0.930 . S
H757 C766 0.930 . S
H758 C771 0.929 . S
H759 C769 0.919 1_556 S
H760 C764 0.929 . S
H761 C770 0.929 1_556 S
C762 H756 0.930 . S
C762 C763 1.367 . S
C762 C770 1.378 . S
C763 C762 1.367 . S
C763 C771 1.433 . S
C764 H760 0.929 . S
C764 C766 1.378 . S
C764 C768 1.350 . S
C765 C768 1.463 . S
C765 C770 1.350 . S
C765 N773 1.427 . S
C766 H757 0.930 . S
C766 C764 1.378 . S
C766 C767 1.367 . S
C767 C766 1.367 . S
C767 C769 1.443 . S
C768 C764 1.350 . S
C768 C765 1.463 . S
C768 N772 1.427 . S
C769 H759 0.919 1_554 S
C769 C767 1.443 . S
C769 N772 1.384 . S
C770 H761 0.929 1_554 S
C770 C762 1.378 . S
C770 C765 1.350 . S
C771 H758 0.929 . S
C771 C763 1.433 . S
C771 N773 1.384 . S
N772 C768 1.427 . S
N772 C769 1.384 . S
N773 C765 1.427 . S
N773 C771 1.384 . S
H774 C780 0.930 . S
H775 C784 0.930 . S
H776 C789 0.929 . S
H777 C787 0.929 . S
H778 C782 0.929 . S
H779 C788 0.929 . S
C780 H774 0.930 . S
C780 C781 1.367 . S
C780 C788 1.378 . S
C781 C780 1.367 . S
C781 C789 1.433 . S
C782 H778 0.929 . S
C782 C784 1.378 . S
C782 C786 1.350 . S
C783 C786 1.463 . S
C783 C788 1.350 . S
C783 N791 1.427 . S
C784 H775 0.930 . S
C784 C782 1.378 . S
C784 C785 1.367 . S
C785 C784 1.367 . S
C785 C787 1.433 . S
C786 C782 1.350 . S
C786 C783 1.463 . S
C786 N790 1.427 . S
C787 H777 0.929 . S
C787 C785 1.433 . S
C787 N790 1.384 . S
C788 H779 0.929 . S
C788 C780 1.378 . S
C788 C783 1.350 . S
C789 H776 0.929 . S
C789 C781 1.433 . S
C789 N791 1.384 . S
N790 C786 1.427 . S
N790 C787 1.384 . S
N791 C783 1.427 . S
N791 C789 1.384 . S
H792 C798 0.930 . S
H793 C802 0.930 . S
H794 C807 0.929 . S
H795 C805 0.949 . S
H796 C800 0.929 . S
H797 C806 0.927 1_556 S
C798 H792 0.930 . S
C798 C799 1.367 . S
C798 C806 1.378 . S
C799 C798 1.367 . S
C799 C807 1.433 . S
C800 H796 0.929 . S
C800 C802 1.378 . S
C800 C804 1.350 . S
C801 C804 1.463 . S
C801 C806 1.350 . S
C801 N809 1.427 . S
C802 H793 0.930 . S
C802 C800 1.378 . S
C802 C803 1.367 . S
C803 C802 1.367 . S
C803 C805 1.418 1_554 S
C804 C800 1.350 . S
C804 C801 1.463 . S
C804 N808 1.427 . S
C805 H795 0.949 . S
C805 C803 1.418 1_556 S
C805 N808 1.379 1_556 S
C806 H797 0.927 1_554 S
C806 C798 1.378 . S
C806 C801 1.350 . S
C807 H794 0.929 . S
C807 C799 1.433 . S
C807 N809 1.384 . S
N808 C804 1.427 . S
N808 C805 1.379 1_554 S
N809 C801 1.427 . S
N809 C807 1.384 . S
H810 C816 0.930 . S
H811 C820 0.930 . S
H812 C825 0.929 . S
H813 C823 0.929 . S
H814 C818 0.929 1_655 S
H815 C824 0.929 . S
C816 H810 0.930 . S
C816 C817 1.367 . S
C816 C824 1.378 . S
C817 C816 1.367 . S
C817 C825 1.433 . S
C818 H814 0.929 1_455 S
C818 C820 1.378 . S
C818 C822 1.350 . S
C819 C822 1.463 1_655 S
C819 C824 1.350 . S
C819 N827 1.427 . S
C820 H811 0.930 . S
C820 C818 1.378 . S
C820 C821 1.367 . S
C821 C820 1.367 . S
C821 C823 1.433 . S
C822 C818 1.350 . S
C822 C819 1.463 1_455 S
C822 N826 1.427 . S
C823 H813 0.929 . S
C823 C821 1.433 . S
C823 N826 1.384 . S
C824 H815 0.929 . S
C824 C816 1.378 . S
C824 C819 1.350 . S
C825 H812 0.929 . S
C825 C817 1.433 . S
C825 N827 1.384 . S
N826 C822 1.427 . S
N826 C823 1.384 . S
N827 C819 1.427 . S
N827 C825 1.384 . S
H828 C834 0.930 . S
H829 C838 0.930 . S
H830 C843 0.929 . S
H831 C841 0.929 . S
H832 C836 0.929 . S
H833 C842 0.929 . S
C834 H828 0.930 . S
C834 C835 1.367 . S
C834 C842 1.378 . S
C835 C834 1.367 . S
C835 C843 1.433 . S
C836 H832 0.929 . S
C836 C838 1.378 . S
C836 C840 1.350 . S
C837 C840 1.463 . S
C837 C842 1.350 . S
C837 N845 1.427 . S
C838 H829 0.930 . S
C838 C836 1.378 . S
C838 C839 1.367 . S
C839 C838 1.367 . S
C839 C841 1.433 . S
C840 C836 1.350 . S
C840 C837 1.463 . S
C840 N844 1.427 . S
C841 H831 0.929 . S
C841 C839 1.433 . S
C841 N844 1.384 . S
C842 H833 0.929 . S
C842 C834 1.378 . S
C842 C837 1.350 . S
C843 H830 0.929 . S
C843 C835 1.433 . S
C843 N845 1.384 . S
N844 C840 1.427 . S
N844 C841 1.384 . S
N845 C837 1.427 . S
N845 C843 1.384 . S
H846 C852 0.930 . S
H847 C856 0.930 . S
H848 C861 0.929 . S
H849 C859 0.929 . S
H850 C854 0.929 1_545 S
H851 C860 0.929 . S
C852 H846 0.930 . S
C852 C853 1.367 . S
C852 C860 1.378 . S
C853 C852 1.367 . S
C853 C861 1.433 . S
C854 H850 0.929 1_565 S
C854 C856 1.378 . S
C854 C858 1.350 1_565 S
C855 C858 1.463 . S
C855 C860 1.350 . S
C855 N863 1.427 . S
C856 H847 0.930 . S
C856 C854 1.378 . S
C856 C857 1.367 . S
C857 C856 1.367 . S
C857 C859 1.433 . S
C858 C854 1.350 1_545 S
C858 C855 1.463 . S
C858 N862 1.427 1_545 S
C859 H849 0.929 . S
C859 C857 1.433 . S
C859 N862 1.384 . S
C860 H851 0.929 . S
C860 C852 1.378 . S
C860 C855 1.350 . S
C861 H848 0.929 . S
C861 C853 1.433 . S
C861 N863 1.384 . S
N862 C858 1.427 1_565 S
N862 C859 1.384 . S
N863 C855 1.427 . S
N863 C861 1.384 . S
H864 C870 0.930 . S
H865 C874 0.930 . S
H866 C879 0.929 . S
H867 C877 0.929 . S
H868 C872 0.929 . S
H869 C878 0.929 . S
C870 H864 0.930 . S
C870 C871 1.367 . S
C870 C878 1.378 . S
C871 C870 1.367 . S
C871 C879 1.433 . S
C872 H868 0.929 . S
C872 C874 1.378 . S
C872 C876 1.350 . S
C873 C876 1.463 . S
C873 C878 1.350 . S
C873 N881 1.427 . S
C874 H865 0.930 . S
C874 C872 1.378 . S
C874 C875 1.367 . S
C875 C874 1.367 . S
C875 C877 1.433 . S
C876 C872 1.350 . S
C876 C873 1.463 . S
C876 N880 1.427 . S
C877 H867 0.929 . S
C877 C875 1.433 . S
C877 N880 1.384 . S
C878 H869 0.929 . S
C878 C870 1.378 . S
C878 C873 1.350 . S
C879 H866 0.929 . S
C879 C871 1.433 . S
C879 N881 1.384 . S
N880 C876 1.427 . S
N880 C877 1.384 . S
N881 C873 1.427 . S
N881 C879 1.384 . S
H882 C888 0.930 . S
H883 C892 0.930 . S
H884 C897 0.929 . S
H885 C895 0.929 . S
H886 C890 0.929 . S
H887 C896 0.929 . S
C888 H882 0.930 . S
C888 C889 1.367 . S
C888 C896 1.378 . S
C889 C888 1.367 . S
C889 C897 1.433 . S
C890 H886 0.929 . S
C890 C892 1.378 . S
C890 C894 1.350 . S
C891 C894 1.463 . S
C891 C896 1.350 . S
C891 N899 1.427 . S
C892 H883 0.930 . S
C892 C890 1.378 . S
C892 C893 1.367 . S
C893 C892 1.367 . S
C893 C895 1.433 . S
C894 C890 1.350 . S
C894 C891 1.463 . S
C894 N898 1.427 . S
C895 H885 0.929 . S
C895 C893 1.433 . S
C895 N898 1.384 . S
C896 H887 0.929 . S
C896 C888 1.378 . S
C896 C891 1.350 . S
C897 H884 0.929 . S
C897 C889 1.433 . S
C897 N899 1.384 . S
N898 C894 1.427 . S
N898 C895 1.384 . S
N899 C891 1.427 . S
N899 C897 1.384 . S
H900 C906 0.930 . S
H901 C910 0.930 . S
H902 C915 0.929 . S
H903 C913 0.929 . S
H904 C908 0.929 . S
H905 C914 0.929 . S
C906 H900 0.930 . S
C906 C907 1.367 . S
C906 C914 1.378 . S
C907 C906 1.367 . S
C907 C915 1.433 . S
C908 H904 0.929 . S
C908 C910 1.378 . S
C908 C912 1.350 . S
C909 C912 1.463 . S
C909 C914 1.350 . S
C909 N917 1.427 . S
C910 H901 0.930 . S
C910 C908 1.378 . S
C910 C911 1.367 . S
C911 C910 1.367 . S
C911 C913 1.433 . S
C912 C908 1.350 . S
C912 C909 1.463 . S
C912 N916 1.427 . S
C913 H903 0.929 . S
C913 C911 1.433 . S
C913 N916 1.384 . S
C914 H905 0.929 . S
C914 C906 1.378 . S
C914 C909 1.350 . S
C915 H902 0.929 . S
C915 C907 1.433 . S
C915 N917 1.384 . S
N916 C912 1.427 . S
N916 C913 1.384 . S
N917 C909 1.427 . S
N917 C915 1.384 . S
H918 C924 0.930 . S
H919 C928 0.930 . S
H920 C933 0.929 . S
H921 C931 0.929 . S
H922 C926 0.929 . S
H923 C932 0.929 . S
C924 H918 0.930 . S
C924 C925 1.367 . S
C924 C932 1.378 . S
C925 C924 1.367 . S
C925 C933 1.433 . S
C926 H922 0.929 . S
C926 C928 1.378 . S
C926 C930 1.350 . S
C927 C930 1.463 . S
C927 C932 1.350 . S
C927 N935 1.427 . S
C928 H919 0.930 . S
C928 C926 1.378 . S
C928 C929 1.367 . S
C929 C928 1.367 . S
C929 C931 1.433 . S
C930 C926 1.350 . S
C930 C927 1.463 . S
C930 N934 1.427 . S
C931 H921 0.929 . S
C931 C929 1.433 . S
C931 N934 1.384 . S
C932 H923 0.929 . S
C932 C924 1.378 . S
C932 C927 1.350 . S
C933 H920 0.929 . S
C933 C925 1.433 . S
C933 N935 1.384 . S
N934 C930 1.427 . S
N934 C931 1.384 . S
N935 C927 1.427 . S
N935 C933 1.384 . S
H936 C942 0.930 . S
H937 C946 0.930 . S
H938 C951 0.929 . S
H939 C949 0.929 . S
H940 C944 0.929 . S
H941 C950 0.929 . S
C942 H936 0.930 . S
C942 C943 1.367 . S
C942 C950 1.378 . S
C943 C942 1.367 . S
C943 C951 1.433 . S
C944 H940 0.929 . S
C944 C946 1.378 . S
C944 C948 1.350 . S
C945 C948 1.463 . S
C945 C950 1.350 . S
C945 N953 1.427 . S
C946 H937 0.930 . S
C946 C944 1.378 . S
C946 C947 1.367 . S
C947 C946 1.367 . S
C947 C949 1.433 . S
C948 C944 1.350 . S
C948 C945 1.463 . S
C948 N952 1.427 . S
C949 H939 0.929 . S
C949 C947 1.433 . S
C949 N952 1.384 . S
C950 H941 0.929 . S
C950 C942 1.378 . S
C950 C945 1.350 . S
C951 H938 0.929 . S
C951 C943 1.433 . S
C951 N953 1.384 . S
N952 C948 1.427 . S
N952 C949 1.384 . S
N953 C945 1.427 . S
N953 C951 1.384 . S
H954 C960 0.930 . S
H955 C964 0.930 . S
H956 C969 0.929 . S
H957 C967 0.929 . S
H958 C962 0.929 . S
H959 C968 0.929 . S
C960 H954 0.930 . S
C960 C961 1.367 . S
C960 C968 1.378 . S
C961 C960 1.367 . S
C961 C969 1.433 . S
C962 H958 0.929 . S
C962 C964 1.378 . S
C962 C966 1.350 . S
C963 C966 1.463 . S
C963 C968 1.350 . S
C963 N971 1.427 . S
C964 H955 0.930 . S
C964 C962 1.378 . S
C964 C965 1.367 . S
C965 C964 1.367 . S
C965 C967 1.433 . S
C966 C962 1.350 . S
C966 C963 1.463 . S
C966 N970 1.427 . S
C967 H957 0.929 . S
C967 C965 1.433 . S
C967 N970 1.384 . S
C968 H959 0.929 . S
C968 C960 1.378 . S
C968 C963 1.350 . S
C969 H956 0.929 . S
C969 C961 1.433 . S
C969 N971 1.384 . S
N970 C966 1.427 . S
N970 C967 1.384 . S
N971 C963 1.427 . S
N971 C969 1.384 . S
H972 C978 0.930 . S
H973 C982 0.930 . S
H974 C987 0.929 . S
H975 C985 0.929 . S
H976 C980 0.929 . S
H977 C986 0.929 . S
C978 H972 0.930 . S
C978 C979 1.367 . S
C978 C986 1.378 1_545 S
C979 C978 1.367 . S
C979 C987 1.433 . S
C980 H976 0.929 . S
C980 C982 1.378 . S
C980 C984 1.350 . S
C981 C984 1.463 . S
C981 C986 1.350 . S
C981 N989 1.427 . S
C982 H973 0.930 . S
C982 C980 1.378 . S
C982 C983 1.367 . S
C983 C982 1.367 . S
C983 C985 1.433 . S
C984 C980 1.350 . S
C984 C981 1.463 . S
C984 N988 1.427 . S
C985 H975 0.929 . S
C985 C983 1.433 . S
C985 N988 1.384 . S
C986 H977 0.929 . S
C986 C978 1.378 1_565 S
C986 C981 1.350 . S
C987 H974 0.929 . S
C987 C979 1.433 . S
C987 N989 1.384 1_545 S
N988 C984 1.427 . S
N988 C985 1.384 . S
N989 C981 1.427 . S
N989 C987 1.384 1_565 S
H990 C996 0.930 . S
H991 C1000 0.930 . S
H992 C1005 0.929 . S
H993 C1003 0.929 . S
H994 C998 0.929 . S
H995 C1004 0.929 . S
C996 H990 0.930 . S
C996 C997 1.367 . S
C996 C1004 1.378 1_655 S
C997 C996 1.367 . S
C997 C1005 1.433 1_655 S
C998 H994 0.929 . S
C998 C1000 1.378 . S
C998 C1002 1.350 . S
C999 C1002 1.463 . S
C999 C1004 1.350 . S
C999 N1007 1.427 . S
C1000 H991 0.930 . S
C1000 C998 1.378 . S
C1000 C1001 1.367 . S
C1001 C1000 1.367 . S
C1001 C1003 1.433 . S
C1002 C998 1.350 . S
C1002 C999 1.463 . S
C1002 N1006 1.427 . S
C1003 H993 0.929 . S
C1003 C1001 1.433 . S
C1003 N1006 1.384 . S
C1004 H995 0.929 . S
C1004 C996 1.378 1_455 S
C1004 C999 1.350 . S
C1005 H992 0.929 . S
C1005 C997 1.433 1_455 S
C1005 N1007 1.384 . S
N1006 C1002 1.427 . S
N1006 C1003 1.384 . S
N1007 C999 1.427 . S
N1007 C1005 1.384 . S
H1008 C1014 0.930 . S
H1009 C1018 0.930 . S
H1010 C1023 0.929 . S
H1011 C1021 0.929 . S
H1012 C1016 0.929 . S
H1013 C1022 0.929 . S
C1014 H1008 0.930 . S
C1014 C1015 1.367 . S
C1014 C1022 1.378 . S
C1015 C1014 1.367 . S
C1015 C1023 1.433 . S
C1016 H1012 0.929 . S
C1016 C1018 1.378 . S
C1016 C1020 1.350 . S
C1017 C1020 1.463 . S
C1017 C1022 1.350 . S
C1017 N1025 1.427 . S
C1018 H1009 0.930 . S
C1018 C1016 1.378 . S
C1018 C1019 1.367 . S
C1019 C1018 1.367 . S
C1019 C1021 1.433 . S
C1020 C1016 1.350 . S
C1020 C1017 1.463 . S
C1020 N1024 1.427 . S
C1021 H1011 0.929 . S
C1021 C1019 1.433 . S
C1021 N1024 1.384 . S
C1022 H1013 0.929 . S
C1022 C1014 1.378 . S
C1022 C1017 1.350 . S
C1023 H1010 0.929 . S
C1023 C1015 1.433 . S
C1023 N1025 1.384 . S
N1024 C1020 1.427 . S
N1024 C1021 1.384 . S
N1025 C1017 1.427 . S
N1025 C1023 1.384 . S
H1026 C1032 0.930 . S
H1027 C1036 0.930 . S
H1028 C1041 0.929 . S
H1029 C1039 0.929 . S
H1030 C1034 0.929 . S
H1031 C1040 0.929 . S
C1032 H1026 0.930 . S
C1032 C1033 1.367 . S
C1032 C1040 1.378 . S
C1033 C1032 1.367 . S
C1033 C1041 1.433 . S
C1034 H1030 0.929 . S
C1034 C1036 1.378 . S
C1034 C1038 1.350 . S
C1035 C1038 1.463 . S
C1035 C1040 1.350 . S
C1035 N1043 1.427 . S
C1036 H1027 0.930 . S
C1036 C1034 1.378 . S
C1036 C1037 1.367 . S
C1037 C1036 1.367 . S
C1037 C1039 1.433 . S
C1038 C1034 1.350 . S
C1038 C1035 1.463 . S
C1038 N1042 1.427 . S
C1039 H1029 0.929 . S
C1039 C1037 1.433 . S
C1039 N1042 1.384 . S
C1040 H1031 0.929 . S
C1040 C1032 1.378 . S
C1040 C1035 1.350 . S
C1041 H1028 0.929 . S
C1041 C1033 1.433 . S
C1041 N1043 1.384 . S
N1042 C1038 1.427 . S
N1042 C1039 1.384 . S
N1043 C1035 1.427 . S
N1043 C1041 1.384 . S
H1044 C1050 0.930 . S
H1045 C1054 0.930 . S
H1046 C1059 0.929 . S
H1047 C1057 0.929 . S
H1048 C1052 0.929 . S
H1049 C1058 0.929 . S
C1050 H1044 0.930 . S
C1050 C1051 1.367 . S
C1050 C1058 1.378 . S
C1051 C1050 1.367 . S
C1051 C1059 1.433 . S
C1052 H1048 0.929 . S
C1052 C1054 1.378 . S
C1052 C1056 1.350 . S
C1053 C1056 1.463 . S
C1053 C1058 1.350 . S
C1053 N1061 1.427 . S
C1054 H1045 0.930 . S
C1054 C1052 1.378 . S
C1054 C1055 1.367 . S
C1055 C1054 1.367 . S
C1055 C1057 1.433 . S
C1056 C1052 1.350 . S
C1056 C1053 1.463 . S
C1056 N1060 1.427 . S
C1057 H1047 0.929 . S
C1057 C1055 1.433 . S
C1057 N1060 1.384 . S
C1058 H1049 0.929 . S
C1058 C1050 1.378 . S
C1058 C1053 1.350 . S
C1059 H1046 0.929 . S
C1059 C1051 1.433 . S
C1059 N1061 1.384 . S
N1060 C1056 1.427 . S
N1060 C1057 1.384 . S
N1061 C1053 1.427 . S
N1061 C1059 1.384 . S
H1062 C1068 0.930 . S
H1063 C1072 0.930 . S
H1064 C1077 0.929 . S
H1065 C1075 0.929 . S
H1066 C1070 0.929 . S
H1067 C1076 0.929 . S
C1068 H1062 0.930 . S
C1068 C1069 1.367 . S
C1068 C1076 1.378 . S
C1069 C1068 1.367 . S
C1069 C1077 1.433 . S
C1070 H1066 0.929 . S
C1070 C1072 1.378 . S
C1070 C1074 1.350 . S
C1071 C1074 1.463 . S
C1071 C1076 1.350 . S
C1071 N1079 1.427 . S
C1072 H1063 0.930 . S
C1072 C1070 1.378 . S
C1072 C1073 1.367 . S
C1073 C1072 1.367 . S
C1073 C1075 1.433 . S
C1074 C1070 1.350 . S
C1074 C1071 1.463 . S
C1074 N1078 1.427 . S
C1075 H1065 0.929 . S
C1075 C1073 1.433 . S
C1075 N1078 1.384 . S
C1076 H1067 0.929 . S
C1076 C1068 1.378 . S
C1076 C1071 1.350 . S
C1077 H1064 0.929 . S
C1077 C1069 1.433 . S
C1077 N1079 1.384 . S
N1078 C1074 1.427 . S
N1078 C1075 1.384 . S
N1079 C1071 1.427 . S
N1079 C1077 1.384 . S
H1080 C1086 0.930 . S
H1081 C1090 0.930 . S
H1082 C1095 0.929 . S
H1083 C1093 0.929 . S
H1084 C1088 0.929 . S
H1085 C1094 0.929 . S
C1086 H1080 0.930 . S
C1086 C1087 1.367 . S
C1086 C1094 1.378 . S
C1087 C1086 1.367 . S
C1087 C1095 1.433 . S
C1088 H1084 0.929 . S
C1088 C1090 1.378 . S
C1088 C1092 1.350 . S
C1089 C1092 1.463 1_565 S
C1089 C1094 1.350 . S
C1089 N1097 1.427 . S
C1090 H1081 0.930 . S
C1090 C1088 1.378 . S
C1090 C1091 1.367 . S
C1091 C1090 1.367 . S
C1091 C1093 1.433 . S
C1092 C1088 1.350 . S
C1092 C1089 1.463 1_545 S
C1092 N1096 1.427 . S
C1093 H1083 0.929 . S
C1093 C1091 1.433 . S
C1093 N1096 1.384 . S
C1094 H1085 0.929 . S
C1094 C1086 1.378 . S
C1094 C1089 1.350 . S
C1095 H1082 0.929 . S
C1095 C1087 1.433 . S
C1095 N1097 1.384 . S
N1096 C1092 1.427 . S
N1096 C1093 1.384 . S
N1097 C1089 1.427 . S
N1097 C1095 1.384 . S
H1098 C1104 0.930 . S
H1099 C1108 0.930 . S
H1100 C1113 0.929 . S
H1101 C1111 0.929 . S
H1102 C1106 0.929 . S
H1103 C1112 0.929 . S
C1104 H1098 0.930 . S
C1104 C1105 1.367 . S
C1104 C1112 1.378 . S
C1105 C1104 1.367 . S
C1105 C1113 1.433 . S
C1106 H1102 0.929 . S
C1106 C1108 1.378 . S
C1106 C1110 1.350 . S
C1107 C1110 1.463 1_455 S
C1107 C1112 1.350 . S
C1107 N1115 1.427 . S
C1108 H1099 0.930 . S
C1108 C1106 1.378 . S
C1108 C1109 1.367 . S
C1109 C1108 1.367 . S
C1109 C1111 1.433 . S
C1110 C1106 1.350 . S
C1110 C1107 1.463 1_655 S
C1110 N1114 1.427 . S
C1111 H1101 0.929 . S
C1111 C1109 1.433 . S
C1111 N1114 1.384 . S
C1112 H1103 0.929 . S
C1112 C1104 1.378 . S
C1112 C1107 1.350 . S
C1113 H1100 0.929 . S
C1113 C1105 1.433 . S
C1113 N1115 1.384 . S
N1114 C1110 1.427 . S
N1114 C1111 1.384 . S
N1115 C1107 1.427 . S
N1115 C1113 1.384 . S
H1116 C1122 0.930 . S
H1117 C1126 0.930 . S
H1118 C1131 0.929 . S
H1119 C1129 0.929 . S
H1120 C1124 0.929 . S
H1121 C1130 0.929 . S
C1122 H1116 0.930 . S
C1122 C1123 1.367 . S
C1122 C1130 1.378 . S
C1123 C1122 1.367 . S
C1123 C1131 1.433 . S
C1124 H1120 0.929 . S
C1124 C1126 1.378 . S
C1124 C1128 1.350 . S
C1125 C1128 1.463 . S
C1125 C1130 1.350 . S
C1125 N1133 1.427 . S
C1126 H1117 0.930 . S
C1126 C1124 1.378 . S
C1126 C1127 1.367 . S
C1127 C1126 1.367 . S
C1127 C1129 1.433 . S
C1128 C1124 1.350 . S
C1128 C1125 1.463 . S
C1128 N1132 1.427 . S
C1129 H1119 0.929 . S
C1129 C1127 1.433 . S
C1129 N1132 1.384 . S
C1130 H1121 0.929 . S
C1130 C1122 1.378 . S
C1130 C1125 1.350 . S
C1131 H1118 0.929 . S
C1131 C1123 1.433 . S
C1131 N1133 1.384 . S
N1132 C1128 1.427 . S
N1132 C1129 1.384 . S
N1133 C1125 1.427 . S
N1133 C1131 1.384 . S
H1134 C1140 0.930 . S
H1135 C1144 0.930 . S
H1136 C1149 0.929 . S
H1137 C1147 0.929 . S
H1138 C1142 0.929 . S
H1139 C1148 0.929 . S
C1140 H1134 0.930 . S
C1140 C1141 1.367 . S
C1140 C1148 1.378 1_455 S
C1141 C1140 1.367 . S
C1141 C1149 1.433 . S
C1142 H1138 0.929 . S
C1142 C1144 1.378 . S
C1142 C1146 1.350 . S
C1143 C1146 1.463 . S
C1143 C1148 1.350 . S
C1143 N1151 1.427 . S
C1144 H1135 0.930 . S
C1144 C1142 1.378 . S
C1144 C1145 1.367 . S
C1145 C1144 1.367 . S
C1145 C1147 1.433 . S
C1146 C1142 1.350 . S
C1146 C1143 1.463 . S
C1146 N1150 1.427 . S
C1147 H1137 0.929 . S
C1147 C1145 1.433 . S
C1147 N1150 1.384 . S
C1148 H1139 0.929 . S
C1148 C1140 1.378 1_655 S
C1148 C1143 1.350 . S
C1149 H1136 0.929 . S
C1149 C1141 1.433 . S
C1149 N1151 1.384 1_455 S
N1150 C1146 1.427 . S
N1150 C1147 1.384 . S
N1151 C1143 1.427 . S
N1151 C1149 1.384 1_655 S
H1152 C1158 0.930 . S
H1153 C1162 0.930 . S
H1154 C1167 0.929 . S
H1155 C1165 0.929 . S
H1156 C1160 0.929 . S
H1157 C1166 0.929 . S
C1158 H1152 0.930 . S
C1158 C1159 1.367 . S
C1158 C1166 1.378 . S
C1159 C1158 1.367 . S
C1159 C1167 1.433 . S
C1160 H1156 0.929 . S
C1160 C1162 1.378 . S
C1160 C1164 1.350 . S
C1161 C1164 1.463 . S
C1161 C1166 1.350 . S
C1161 N1169 1.427 . S
C1162 H1153 0.930 . S
C1162 C1160 1.378 . S
C1162 C1163 1.367 . S
C1163 C1162 1.367 . S
C1163 C1165 1.433 . S
C1164 C1160 1.350 . S
C1164 C1161 1.463 . S
C1164 N1168 1.427 . S
C1165 H1155 0.929 . S
C1165 C1163 1.433 . S
C1165 N1168 1.384 . S
C1166 H1157 0.929 . S
C1166 C1158 1.378 . S
C1166 C1161 1.350 . S
C1167 H1154 0.929 . S
C1167 C1159 1.433 . S
C1167 N1169 1.384 . S
N1168 C1164 1.427 . S
N1168 C1165 1.384 . S
N1169 C1161 1.427 . S
N1169 C1167 1.384 . S
H1170 C1176 0.930 . S
H1171 C1180 0.930 . S
H1172 C1185 0.929 . S
H1173 C1183 0.929 . S
H1174 C1178 0.929 . S
H1175 C1184 0.929 . S
C1176 H1170 0.930 . S
C1176 C1177 1.367 . S
C1176 C1184 1.378 1_565 S
C1177 C1176 1.367 . S
C1177 C1185 1.433 . S
C1178 H1174 0.929 . S
C1178 C1180 1.378 . S
C1178 C1182 1.350 . S
C1179 C1182 1.463 . S
C1179 C1184 1.350 . S
C1179 N1187 1.427 . S
C1180 H1171 0.930 . S
C1180 C1178 1.378 . S
C1180 C1181 1.367 . S
C1181 C1180 1.367 . S
C1181 C1183 1.433 . S
C1182 C1178 1.350 . S
C1182 C1179 1.463 . S
C1182 N1186 1.427 . S
C1183 H1173 0.929 . S
C1183 C1181 1.433 . S
C1183 N1186 1.384 . S
C1184 H1175 0.929 . S
C1184 C1176 1.378 1_545 S
C1184 C1179 1.350 . S
C1185 H1172 0.929 . S
C1185 C1177 1.433 . S
C1185 N1187 1.384 1_565 S
N1186 C1182 1.427 . S
N1186 C1183 1.384 . S
N1187 C1179 1.427 . S
N1187 C1185 1.384 1_545 S
H1188 C1194 0.930 . S
H1189 C1198 0.930 . S
H1190 C1203 0.929 . S
H1191 C1201 0.929 . S
H1192 C1196 0.929 . S
H1193 C1202 0.929 . S
C1194 H1188 0.930 . S
C1194 C1195 1.367 . S
C1194 C1202 1.378 . S
C1195 C1194 1.367 . S
C1195 C1203 1.433 . S
C1196 H1192 0.929 . S
C1196 C1198 1.378 . S
C1196 C1200 1.350 . S
C1197 C1200 1.463 . S
C1197 C1202 1.350 . S
C1197 N1205 1.427 . S
C1198 H1189 0.930 . S
C1198 C1196 1.378 . S
C1198 C1199 1.367 . S
C1199 C1198 1.367 . S
C1199 C1201 1.433 . S
C1200 C1196 1.350 . S
C1200 C1197 1.463 . S
C1200 N1204 1.427 . S
C1201 H1191 0.929 . S
C1201 C1199 1.433 . S
C1201 N1204 1.384 . S
C1202 H1193 0.929 . S
C1202 C1194 1.378 . S
C1202 C1197 1.350 . S
C1203 H1190 0.929 . S
C1203 C1195 1.433 . S
C1203 N1205 1.384 . S
N1204 C1200 1.427 . S
N1204 C1201 1.384 . S
N1205 C1197 1.427 . S
N1205 C1203 1.384 . S
H1206 C1212 0.930 . S
H1207 C1216 0.930 . S
H1208 C1221 0.929 . S
H1209 C1219 0.929 . S
H1210 C1214 0.929 . S
H1211 C1220 0.929 . S
C1212 H1206 0.930 . S
C1212 C1213 1.367 . S
C1212 C1220 1.378 . S
C1213 C1212 1.367 . S
C1213 C1221 1.433 . S
C1214 H1210 0.929 . S
C1214 C1216 1.378 . S
C1214 C1218 1.350 . S
C1215 C1218 1.463 . S
C1215 C1220 1.350 . S
C1215 N1223 1.427 . S
C1216 H1207 0.930 . S
C1216 C1214 1.378 . S
C1216 C1217 1.367 . S
C1217 C1216 1.367 . S
C1217 C1219 1.433 . S
C1218 C1214 1.350 . S
C1218 C1215 1.463 . S
C1218 N1222 1.427 . S
C1219 H1209 0.929 . S
C1219 C1217 1.433 . S
C1219 N1222 1.384 . S
C1220 H1211 0.929 . S
C1220 C1212 1.378 . S
C1220 C1215 1.350 . S
C1221 H1208 0.929 . S
C1221 C1213 1.433 . S
C1221 N1223 1.384 . S
N1222 C1218 1.427 . S
N1222 C1219 1.384 . S
N1223 C1215 1.427 . S
N1223 C1221 1.384 . S
H1224 C1230 0.930 . S
H1225 C1234 0.930 . S
H1226 C1239 0.929 . S
H1227 C1237 0.929 . S
H1228 C1232 0.929 . S
H1229 C1238 0.929 . S
C1230 H1224 0.930 . S
C1230 C1231 1.367 . S
C1230 C1238 1.378 . S
C1231 C1230 1.367 . S
C1231 C1239 1.433 . S
C1232 H1228 0.929 . S
C1232 C1234 1.378 . S
C1232 C1236 1.350 . S
C1233 C1236 1.463 . S
C1233 C1238 1.350 . S
C1233 N1241 1.427 . S
C1234 H1225 0.930 . S
C1234 C1232 1.378 . S
C1234 C1235 1.367 . S
C1235 C1234 1.367 . S
C1235 C1237 1.433 . S
C1236 C1232 1.350 . S
C1236 C1233 1.463 . S
C1236 N1240 1.427 . S
C1237 H1227 0.929 . S
C1237 C1235 1.433 . S
C1237 N1240 1.384 . S
C1238 H1229 0.929 . S
C1238 C1230 1.378 . S
C1238 C1233 1.350 . S
C1239 H1226 0.929 . S
C1239 C1231 1.433 . S
C1239 N1241 1.384 . S
N1240 C1236 1.427 . S
N1240 C1237 1.384 . S
N1241 C1233 1.427 . S
N1241 C1239 1.384 . S
H1242 C1248 0.930 . S
H1243 C1252 0.930 . S
H1244 C1257 0.929 . S
H1245 C1255 0.929 . S
H1246 C1250 0.929 . S
H1247 C1256 0.929 . S
C1248 H1242 0.930 . S
C1248 C1249 1.367 . S
C1248 C1256 1.378 . S
C1249 C1248 1.367 . S
C1249 C1257 1.433 . S
C1250 H1246 0.929 . S
C1250 C1252 1.378 . S
C1250 C1254 1.350 . S
C1251 C1254 1.463 . S
C1251 C1256 1.350 . S
C1251 N1259 1.427 . S
C1252 H1243 0.930 . S
C1252 C1250 1.378 . S
C1252 C1253 1.367 . S
C1253 C1252 1.367 . S
C1253 C1255 1.433 . S
C1254 C1250 1.350 . S
C1254 C1251 1.463 . S
C1254 N1258 1.427 . S
C1255 H1245 0.929 . S
C1255 C1253 1.433 . S
C1255 N1258 1.384 . S
C1256 H1247 0.929 . S
C1256 C1248 1.378 . S
C1256 C1251 1.350 . S
C1257 H1244 0.929 . S
C1257 C1249 1.433 . S
C1257 N1259 1.384 . S
N1258 C1254 1.427 . S
N1258 C1255 1.384 . S
N1259 C1251 1.427 . S
N1259 C1257 1.384 . S
H1260 C1266 0.930 . S
H1261 C1270 0.930 . S
H1262 C1275 0.929 . S
H1263 C1273 0.929 . S
H1264 C1268 0.929 . S
H1265 C1274 0.929 . S
C1266 H1260 0.930 . S
C1266 C1267 1.367 . S
C1266 C1274 1.378 . S
C1267 C1266 1.367 . S
C1267 C1275 1.433 . S
C1268 H1264 0.929 . S
C1268 C1270 1.378 . S
C1268 C1272 1.350 . S
C1269 C1272 1.463 . S
C1269 C1274 1.350 . S
C1269 N1277 1.427 . S
C1270 H1261 0.930 . S
C1270 C1268 1.378 . S
C1270 C1271 1.367 . S
C1271 C1270 1.367 . S
C1271 C1273 1.433 . S
C1272 C1268 1.350 . S
C1272 C1269 1.463 . S
C1272 N1276 1.427 . S
C1273 H1263 0.929 . S
C1273 C1271 1.433 . S
C1273 N1276 1.384 . S
C1274 H1265 0.929 . S
C1274 C1266 1.378 . S
C1274 C1269 1.350 . S
C1275 H1262 0.929 . S
C1275 C1267 1.433 . S
C1275 N1277 1.384 . S
N1276 C1272 1.427 . S
N1276 C1273 1.384 . S
N1277 C1269 1.427 . S
N1277 C1275 1.384 . S
H1278 C1284 0.930 . S
H1279 C1288 0.930 . S
H1280 C1293 0.929 . S
H1281 C1291 0.929 . S
H1282 C1286 0.929 . S
H1283 C1292 0.929 . S
C1284 H1278 0.930 . S
C1284 C1285 1.367 . S
C1284 C1292 1.378 . S
C1285 C1284 1.367 . S
C1285 C1293 1.433 . S
C1286 H1282 0.929 . S
C1286 C1288 1.378 . S
C1286 C1290 1.350 . S
C1287 C1290 1.463 . S
C1287 C1292 1.350 . S
C1287 N1295 1.427 . S
C1288 H1279 0.930 . S
C1288 C1286 1.378 . S
C1288 C1289 1.367 . S
C1289 C1288 1.367 . S
C1289 C1291 1.433 . S
C1290 C1286 1.350 . S
C1290 C1287 1.463 . S
C1290 N1294 1.427 . S
C1291 H1281 0.929 . S
C1291 C1289 1.433 . S
C1291 N1294 1.384 . S
C1292 H1283 0.929 . S
C1292 C1284 1.378 . S
C1292 C1287 1.350 . S
C1293 H1280 0.929 . S
C1293 C1285 1.433 . S
C1293 N1295 1.384 . S
N1294 C1290 1.427 . S
N1294 C1291 1.384 . S
N1295 C1287 1.427 . S
N1295 C1293 1.384 . S
H1296 C1302 0.930 . S
H1297 C1306 0.930 . S
H1298 C1311 0.929 . S
H1299 C1309 0.929 . S
H1300 C1304 0.929 . S
H1301 C1310 0.929 . S
C1302 H1296 0.930 . S
C1302 C1303 1.367 . S
C1302 C1310 1.378 . S
C1303 C1302 1.367 . S
C1303 C1311 1.433 . S
C1304 H1300 0.929 . S
C1304 C1306 1.378 . S
C1304 C1308 1.350 . S
C1305 C1308 1.463 . S
C1305 C1310 1.350 . S
C1305 N1313 1.427 . S
C1306 H1297 0.930 . S
C1306 C1304 1.378 . S
C1306 C1307 1.367 . S
C1307 C1306 1.367 . S
C1307 C1309 1.433 . S
C1308 C1304 1.350 . S
C1308 C1305 1.463 . S
C1308 N1312 1.427 . S
C1309 H1299 0.929 . S
C1309 C1307 1.433 . S
C1309 N1312 1.384 . S
C1310 H1301 0.929 . S
C1310 C1302 1.378 . S
C1310 C1305 1.350 . S
C1311 H1298 0.929 . S
C1311 C1303 1.433 . S
C1311 N1313 1.384 . S
N1312 C1308 1.427 . S
N1312 C1309 1.384 . S
N1313 C1305 1.427 . S
N1313 C1311 1.384 . S
H1314 C1320 0.930 . S
H1315 C1324 0.930 . S
H1316 C1329 0.929 . S
H1317 C1327 0.929 . S
H1318 C1322 0.929 . S
H1319 C1328 0.929 . S
C1320 H1314 0.930 . S
C1320 C1321 1.367 . S
C1320 C1328 1.378 . S
C1321 C1320 1.367 . S
C1321 C1329 1.433 . S
C1322 H1318 0.929 . S
C1322 C1324 1.378 . S
C1322 C1326 1.350 . S
C1323 C1326 1.463 . S
C1323 C1328 1.350 . S
C1323 N1331 1.427 . S
C1324 H1315 0.930 . S
C1324 C1322 1.378 . S
C1324 C1325 1.367 . S
C1325 C1324 1.367 . S
C1325 C1327 1.433 . S
C1326 C1322 1.350 . S
C1326 C1323 1.463 . S
C1326 N1330 1.427 . S
C1327 H1317 0.929 . S
C1327 C1325 1.433 . S
C1327 N1330 1.384 . S
C1328 H1319 0.929 . S
C1328 C1320 1.378 . S
C1328 C1323 1.350 . S
C1329 H1316 0.929 . S
C1329 C1321 1.433 . S
C1329 N1331 1.384 . S
N1330 C1326 1.427 . S
N1330 C1327 1.384 . S
N1331 C1323 1.427 . S
N1331 C1329 1.384 . S
H1332 C1338 0.930 . S
H1333 C1342 0.930 . S
H1334 C1347 0.929 . S
H1335 C1345 0.929 . S
H1336 C1340 0.929 . S
H1337 C1346 0.929 . S
C1338 H1332 0.930 . S
C1338 C1339 1.367 . S
C1338 C1346 1.378 . S
C1339 C1338 1.367 . S
C1339 C1347 1.433 . S
C1340 H1336 0.929 . S
C1340 C1342 1.378 . S
C1340 C1344 1.350 . S
C1341 C1344 1.463 . S
C1341 C1346 1.350 . S
C1341 N1349 1.427 . S
C1342 H1333 0.930 . S
C1342 C1340 1.378 . S
C1342 C1343 1.367 . S
C1343 C1342 1.367 . S
C1343 C1345 1.433 . S
C1344 C1340 1.350 . S
C1344 C1341 1.463 . S
C1344 N1348 1.427 . S
C1345 H1335 0.929 . S
C1345 C1343 1.433 . S
C1345 N1348 1.384 . S
C1346 H1337 0.929 . S
C1346 C1338 1.378 . S
C1346 C1341 1.350 . S
C1347 H1334 0.929 . S
C1347 C1339 1.433 . S
C1347 N1349 1.384 . S
N1348 C1344 1.427 . S
N1348 C1345 1.384 . S
N1349 C1341 1.427 . S
N1349 C1347 1.384 . S
H1350 C1356 0.930 . S
H1351 C1360 0.930 . S
H1352 C1365 0.929 . S
H1353 C1363 0.929 . S
H1354 C1358 0.929 . S
H1355 C1364 0.929 . S
C1356 H1350 0.930 . S
C1356 C1357 1.367 . S
C1356 C1364 1.378 . S
C1357 C1356 1.367 . S
C1357 C1365 1.433 . S
C1358 H1354 0.929 . S
C1358 C1360 1.378 . S
C1358 C1362 1.350 . S
C1359 C1362 1.463 . S
C1359 C1364 1.350 . S
C1359 N1367 1.427 . S
C1360 H1351 0.930 . S
C1360 C1358 1.378 . S
C1360 C1361 1.367 . S
C1361 C1360 1.367 . S
C1361 C1363 1.433 . S
C1362 C1358 1.350 . S
C1362 C1359 1.463 . S
C1362 N1366 1.427 . S
C1363 H1353 0.929 . S
C1363 C1361 1.433 . S
C1363 N1366 1.384 . S
C1364 H1355 0.929 . S
C1364 C1356 1.378 . S
C1364 C1359 1.350 . S
C1365 H1352 0.929 . S
C1365 C1357 1.433 . S
C1365 N1367 1.384 . S
N1366 C1362 1.427 . S
N1366 C1363 1.384 . S
N1367 C1359 1.427 . S
N1367 C1365 1.384 . S
H1368 C1374 0.930 . S
H1369 C1378 0.930 . S
H1370 C1383 0.929 . S
H1371 C1381 0.929 . S
H1372 C1376 0.929 . S
H1373 C1382 0.929 . S
C1374 H1368 0.930 . S
C1374 C1375 1.367 . S
C1374 C1382 1.378 . S
C1375 C1374 1.367 . S
C1375 C1383 1.433 . S
C1376 H1372 0.929 . S
C1376 C1378 1.378 . S
C1376 C1380 1.350 . S
C1377 C1380 1.463 . S
C1377 C1382 1.350 . S
C1377 N1385 1.427 . S
C1378 H1369 0.930 . S
C1378 C1376 1.378 . S
C1378 C1379 1.367 . S
C1379 C1378 1.367 . S
C1379 C1381 1.433 . S
C1380 C1376 1.350 . S
C1380 C1377 1.463 . S
C1380 N1384 1.427 . S
C1381 H1371 0.929 . S
C1381 C1379 1.433 . S
C1381 N1384 1.384 . S
C1382 H1373 0.929 . S
C1382 C1374 1.378 . S
C1382 C1377 1.350 . S
C1383 H1370 0.929 . S
C1383 C1375 1.433 . S
C1383 N1385 1.384 . S
N1384 C1380 1.427 . S
N1384 C1381 1.384 . S
N1385 C1377 1.427 . S
N1385 C1383 1.384 . S
H1386 C1392 0.930 . S
H1387 C1396 0.930 . S
H1388 C1401 0.929 . S
H1389 C1399 0.929 . S
H1390 C1394 0.929 . S
H1391 C1400 0.929 . S
C1392 H1386 0.930 . S
C1392 C1393 1.367 . S
C1392 C1400 1.378 . S
C1393 C1392 1.367 . S
C1393 C1401 1.433 . S
C1394 H1390 0.929 . S
C1394 C1396 1.378 . S
C1394 C1398 1.350 . S
C1395 C1398 1.463 . S
C1395 C1400 1.350 . S
C1395 N1403 1.427 . S
C1396 H1387 0.930 . S
C1396 C1394 1.378 . S
C1396 C1397 1.367 . S
C1397 C1396 1.367 . S
C1397 C1399 1.433 . S
C1398 C1394 1.350 . S
C1398 C1395 1.463 . S
C1398 N1402 1.427 . S
C1399 H1389 0.929 . S
C1399 C1397 1.433 . S
C1399 N1402 1.384 . S
C1400 H1391 0.929 . S
C1400 C1392 1.378 . S
C1400 C1395 1.350 . S
C1401 H1388 0.929 . S
C1401 C1393 1.433 . S
C1401 N1403 1.384 . S
N1402 C1398 1.427 . S
N1402 C1399 1.384 . S
N1403 C1395 1.427 . S
N1403 C1401 1.384 . S
H1404 C1410 0.930 . S
H1405 C1414 0.930 . S
H1406 C1419 0.929 . S
H1407 C1417 0.929 . S
H1408 C1412 0.929 . S
H1409 C1418 0.929 . S
C1410 H1404 0.930 . S
C1410 C1411 1.367 . S
C1410 C1418 1.378 . S
C1411 C1410 1.367 . S
C1411 C1419 1.433 . S
C1412 H1408 0.929 . S
C1412 C1414 1.378 . S
C1412 C1416 1.350 . S
C1413 C1416 1.463 . S
C1413 C1418 1.350 . S
C1413 N1421 1.427 . S
C1414 H1405 0.930 . S
C1414 C1412 1.378 . S
C1414 C1415 1.367 . S
C1415 C1414 1.367 . S
C1415 C1417 1.433 . S
C1416 C1412 1.350 . S
C1416 C1413 1.463 . S
C1416 N1420 1.427 . S
C1417 H1407 0.929 . S
C1417 C1415 1.433 . S
C1417 N1420 1.384 . S
C1418 H1409 0.929 . S
C1418 C1410 1.378 . S
C1418 C1413 1.350 . S
C1419 H1406 0.929 . S
C1419 C1411 1.433 . S
C1419 N1421 1.384 . S
N1420 C1416 1.427 . S
N1420 C1417 1.384 . S
N1421 C1413 1.427 . S
N1421 C1419 1.384 . S
H1422 C1428 0.930 . S
H1423 C1432 0.930 . S
H1424 C1437 0.929 . S
H1425 C1435 0.929 . S
H1426 C1430 0.929 . S
H1427 C1436 0.929 . S
C1428 H1422 0.930 . S
C1428 C1429 1.367 . S
C1428 C1436 1.378 . S
C1429 C1428 1.367 . S
C1429 C1437 1.433 . S
C1430 H1426 0.929 . S
C1430 C1432 1.378 . S
C1430 C1434 1.350 . S
C1431 C1434 1.463 . S
C1431 C1436 1.350 . S
C1431 N1439 1.427 . S
C1432 H1423 0.930 . S
C1432 C1430 1.378 . S
C1432 C1433 1.367 . S
C1433 C1432 1.367 . S
C1433 C1435 1.433 . S
C1434 C1430 1.350 . S
C1434 C1431 1.463 . S
C1434 N1438 1.427 . S
C1435 H1425 0.929 . S
C1435 C1433 1.433 . S
C1435 N1438 1.384 . S
C1436 H1427 0.929 . S
C1436 C1428 1.378 . S
C1436 C1431 1.350 . S
C1437 H1424 0.929 . S
C1437 C1429 1.433 . S
C1437 N1439 1.384 . S
N1438 C1434 1.427 . S
N1438 C1435 1.384 . S
N1439 C1431 1.427 . S
N1439 C1437 1.384 . S
H1440 C1446 0.930 . S
H1441 C1450 0.930 . S
H1442 C1455 0.929 . S
H1443 C1453 0.929 . S
H1444 C1448 0.929 . S
H1445 C1454 0.929 . S
C1446 H1440 0.930 . S
C1446 C1447 1.367 . S
C1446 C1454 1.378 . S
C1447 C1446 1.367 . S
C1447 C1455 1.433 . S
C1448 H1444 0.929 . S
C1448 C1450 1.378 . S
C1448 C1452 1.350 . S
C1449 C1452 1.463 . S
C1449 C1454 1.350 . S
C1449 N1457 1.427 . S
C1450 H1441 0.930 . S
C1450 C1448 1.378 . S
C1450 C1451 1.367 . S
C1451 C1450 1.367 . S
C1451 C1453 1.433 . S
C1452 C1448 1.350 . S
C1452 C1449 1.463 . S
C1452 N1456 1.427 . S
C1453 H1443 0.929 . S
C1453 C1451 1.433 . S
C1453 N1456 1.384 . S
C1454 H1445 0.929 . S
C1454 C1446 1.378 . S
C1454 C1449 1.350 . S
C1455 H1442 0.929 . S
C1455 C1447 1.433 . S
C1455 N1457 1.384 . S
N1456 C1452 1.427 . S
N1456 C1453 1.384 . S
N1457 C1449 1.427 . S
N1457 C1455 1.384 . S
H1458 C1464 0.930 . S
H1459 C1468 0.930 . S
H1460 C1473 0.929 . S
H1461 C1471 0.929 . S
H1462 C1466 0.929 . S
H1463 C1472 0.929 . S
C1464 H1458 0.930 . S
C1464 C1465 1.367 . S
C1464 C1472 1.378 . S
C1465 C1464 1.367 . S
C1465 C1473 1.433 . S
C1466 H1462 0.929 . S
C1466 C1468 1.378 . S
C1466 C1470 1.350 . S
C1467 C1470 1.463 . S
C1467 C1472 1.350 . S
C1467 N1475 1.427 . S
C1468 H1459 0.930 . S
C1468 C1466 1.378 . S
C1468 C1469 1.367 . S
C1469 C1468 1.367 . S
C1469 C1471 1.433 . S
C1470 C1466 1.350 . S
C1470 C1467 1.463 . S
C1470 N1474 1.427 . S
C1471 H1461 0.929 . S
C1471 C1469 1.433 . S
C1471 N1474 1.384 . S
C1472 H1463 0.929 . S
C1472 C1464 1.378 . S
C1472 C1467 1.350 . S
C1473 H1460 0.929 . S
C1473 C1465 1.433 . S
C1473 N1475 1.384 . S
N1474 C1470 1.427 . S
N1474 C1471 1.384 . S
N1475 C1467 1.427 . S
N1475 C1473 1.384 . S
H1476 C1482 0.930 . S
H1477 C1486 0.930 . S
H1478 C1491 0.929 . S
H1479 C1489 0.929 . S
H1480 C1484 0.929 . S
H1481 C1490 0.929 . S
C1482 H1476 0.930 . S
C1482 C1483 1.367 . S
C1482 C1490 1.378 . S
C1483 C1482 1.367 . S
C1483 C1491 1.433 . S
C1484 H1480 0.929 . S
C1484 C1486 1.378 . S
C1484 C1488 1.350 . S
C1485 C1488 1.463 . S
C1485 C1490 1.350 . S
C1485 N1493 1.427 . S
C1486 H1477 0.930 . S
C1486 C1484 1.378 . S
C1486 C1487 1.367 . S
C1487 C1486 1.367 . S
C1487 C1489 1.433 . S
C1488 C1484 1.350 . S
C1488 C1485 1.463 . S
C1488 N1492 1.427 . S
C1489 H1479 0.929 . S
C1489 C1487 1.433 . S
C1489 N1492 1.384 . S
C1490 H1481 0.929 . S
C1490 C1482 1.378 . S
C1490 C1485 1.350 . S
C1491 H1478 0.929 . S
C1491 C1483 1.433 . S
C1491 N1493 1.384 . S
N1492 C1488 1.427 . S
N1492 C1489 1.384 . S
N1493 C1485 1.427 . S
N1493 C1491 1.384 . S
H1494 C1500 0.930 . S
H1495 C1504 0.930 . S
H1496 C1509 0.929 . S
H1497 C1507 0.929 . S
H1498 C1502 0.929 . S
H1499 C1508 0.929 . S
C1500 H1494 0.930 . S
C1500 C1501 1.367 . S
C1500 C1508 1.378 . S
C1501 C1500 1.367 . S
C1501 C1509 1.433 . S
C1502 H1498 0.929 . S
C1502 C1504 1.378 . S
C1502 C1506 1.350 . S
C1503 C1506 1.463 . S
C1503 C1508 1.350 . S
C1503 N1511 1.427 . S
C1504 H1495 0.930 . S
C1504 C1502 1.378 . S
C1504 C1505 1.367 . S
C1505 C1504 1.367 . S
C1505 C1507 1.433 . S
C1506 C1502 1.350 . S
C1506 C1503 1.463 . S
C1506 N1510 1.427 . S
C1507 H1497 0.929 . S
C1507 C1505 1.433 . S
C1507 N1510 1.384 . S
C1508 H1499 0.929 . S
C1508 C1500 1.378 . S
C1508 C1503 1.350 . S
C1509 H1496 0.929 . S
C1509 C1501 1.433 . S
C1509 N1511 1.384 . S
N1510 C1506 1.427 . S
N1510 C1507 1.384 . S
N1511 C1503 1.427 . S
N1511 C1509 1.384 . S
H1512 C1518 0.930 . S
H1513 C1522 0.930 . S
H1514 C1527 0.929 . S
H1515 C1525 0.929 . S
H1516 C1520 0.929 . S
H1517 C1526 0.929 . S
C1518 H1512 0.930 . S
C1518 C1519 1.367 . S
C1518 C1526 1.378 . S
C1519 C1518 1.367 . S
C1519 C1527 1.433 . S
C1520 H1516 0.929 . S
C1520 C1522 1.378 . S
C1520 C1524 1.350 . S
C1521 C1524 1.463 . S
C1521 C1526 1.350 . S
C1521 N1529 1.427 . S
C1522 H1513 0.930 . S
C1522 C1520 1.378 . S
C1522 C1523 1.367 . S
C1523 C1522 1.367 . S
C1523 C1525 1.433 . S
C1524 C1520 1.350 . S
C1524 C1521 1.463 . S
C1524 N1528 1.427 . S
C1525 H1515 0.929 . S
C1525 C1523 1.433 . S
C1525 N1528 1.384 . S
C1526 H1517 0.929 . S
C1526 C1518 1.378 . S
C1526 C1521 1.350 . S
C1527 H1514 0.929 . S
C1527 C1519 1.433 . S
C1527 N1529 1.384 . S
N1528 C1524 1.427 . S
N1528 C1525 1.384 . S
N1529 C1521 1.427 . S
N1529 C1527 1.384 . S
H1530 C1536 0.930 . S
H1531 C1540 0.930 . S
H1532 C1545 0.929 . S
H1533 C1543 0.929 . S
H1534 C1538 0.929 . S
H1535 C1544 0.929 . S
C1536 H1530 0.930 . S
C1536 C1537 1.367 . S
C1536 C1544 1.378 . S
C1537 C1536 1.367 . S
C1537 C1545 1.433 . S
C1538 H1534 0.929 . S
C1538 C1540 1.378 . S
C1538 C1542 1.350 . S
C1539 C1542 1.463 . S
C1539 C1544 1.350 . S
C1539 N1547 1.427 . S
C1540 H1531 0.930 . S
C1540 C1538 1.378 . S
C1540 C1541 1.367 . S
C1541 C1540 1.367 . S
C1541 C1543 1.433 . S
C1542 C1538 1.350 . S
C1542 C1539 1.463 . S
C1542 N1546 1.427 . S
C1543 H1533 0.929 . S
C1543 C1541 1.433 . S
C1543 N1546 1.384 . S
C1544 H1535 0.929 . S
C1544 C1536 1.378 . S
C1544 C1539 1.350 . S
C1545 H1532 0.929 . S
C1545 C1537 1.433 . S
C1545 N1547 1.384 . S
N1546 C1542 1.427 . S
N1546 C1543 1.384 . S
N1547 C1539 1.427 . S
N1547 C1545 1.384 . S
H1548 C1554 0.930 . S
H1549 C1558 0.930 . S
H1550 C1563 0.929 . S
H1551 C1561 0.929 . S
H1552 C1556 0.929 . S
H1553 C1562 0.929 . S
C1554 H1548 0.930 . S
C1554 C1555 1.367 . S
C1554 C1562 1.378 . S
C1555 C1554 1.367 . S
C1555 C1563 1.433 . S
C1556 H1552 0.929 . S
C1556 C1558 1.378 . S
C1556 C1560 1.350 . S
C1557 C1560 1.463 . S
C1557 C1562 1.350 . S
C1557 N1565 1.427 . S
C1558 H1549 0.930 . S
C1558 C1556 1.378 . S
C1558 C1559 1.367 . S
C1559 C1558 1.367 . S
C1559 C1561 1.433 . S
C1560 C1556 1.350 . S
C1560 C1557 1.463 . S
C1560 N1564 1.427 . S
C1561 H1551 0.929 . S
C1561 C1559 1.433 . S
C1561 N1564 1.384 . S
C1562 H1553 0.929 . S
C1562 C1554 1.378 . S
C1562 C1557 1.350 . S
C1563 H1550 0.929 . S
C1563 C1555 1.433 . S
C1563 N1565 1.384 . S
N1564 C1560 1.427 . S
N1564 C1561 1.384 . S
N1565 C1557 1.427 . S
N1565 C1563 1.384 . S
C601 C177 1.655 . S
C605 C243 1.652 . S
C619 C190 1.776 . S
C623 C283 1.769 . S
C637 C164 1.589 . S
C641 C322 1.560 . S
C655 C151 1.483 . S
C659 C282 1.440 1_556 S
C677 C323 1.496 . S
C673 C125 1.501 . S
C691 C138 1.359 . S
C695 C242 1.345 1_556 S
C713 C253 1.628 . S
C709 C147 1.623 . S
C731 C293 1.642 . S
C727 C121 1.616 . S
C745 C134 1.608 . S
C749 C332 1.670 . S
C763 C173 1.479 . S
C767 C292 1.510 . S
C781 C186 1.434 . S
C785 C333 1.435 . S
C803 C252 1.480 . S
C799 C160 1.449 . S
C821 C363 1.653 . S
C817 C21 1.656 . S
C835 C34 1.778 . S
C839 C403 1.772 . S
C853 C8 1.589 . S
C857 C442 1.562 . S
C871 C229 1.476 . S
C875 C402 1.438 . S
C889 C203 1.503 . S
C893 C443 1.500 . S
C907 C216 1.366 . S
C911 C362 1.353 . S
C925 C225 1.635 . S
C929 C373 1.631 . S
C943 C199 1.610 . S
C947 C413 1.645 . S
C965 C452 1.659 . S
C961 C212 1.605 . S
C979 C17 1.462 . S
C983 C412 1.497 . S
C1001 C453 1.439 . S
C997 C30 1.445 . S
C1015 C4 1.439 . S
C1019 C372 1.475 . S
C1037 C483 1.653 . S
C1033 C99 1.656 . S
C1051 C112 1.776 . S
C1055 C523 1.769 . S
C1073 C562 1.569 . S
C1069 C86 1.599 . S
C1091 C522 1.443 . S
C1087 C73 1.484 . S
C1109 C563 1.497 . S
C1105 C47 1.502 . S
C1123 C60 1.360 . S
C1127 C482 1.350 . S
C1141 C69 1.635 . S
C1145 C493 1.627 . S
C1159 C43 1.617 . S
C1163 C533 1.639 . S
C1181 C572 1.659 . S
C1177 C56 1.606 . S
C1195 C95 1.462 . S
C1199 C532 1.497 . S
C1213 C108 1.445 . S
C1217 C573 1.439 . S
C1231 C82 1.443 . S
C1235 C492 1.476 . S
C1249 C204 1.502 . S
C1253 C239 1.493 . S
C1271 C279 1.921 . S
C1267 C217 1.922 . S
C1285 C230 1.561 . S
C1289 C329 1.576 . S
C1303 C87 1.761 . S
C1307 C289 1.778 . S
C1321 C100 1.674 . S
C1325 C319 1.678 . S
C1343 C249 1.325 . S
C1339 C113 1.319 . S
C1357 C48 1.497 . S
C1361 C359 1.486 . S
C1375 C61 1.920 . S
C1379 C399 1.918 . S
C1393 C74 1.553 . S
C1397 C449 1.572 . S
C1411 C165 1.765 . S
C1415 C409 1.781 . S
C1433 C439 1.676 . S
C1429 C178 1.675 . S
C1447 C191 1.318 . S
C1451 C369 1.324 . S
C1465 C126 1.496 . S
C1469 C479 1.486 . S
C1483 C139 1.924 . S
C1487 C519 1.923 . S
C1505 C569 1.572 . S
C1501 C152 1.554 . S
C1519 C9 1.762 . S
C1523 C529 1.778 . S
C1537 C22 1.674 . S
C1541 C559 1.677 . S
C1555 C35 1.314 . S
C1559 C489 1.325 . S
