# Generated by pormake.
# Topology dag, (6,3)-cn, num edge types: 1
# Building blocks:
#     Node 0, Type 0, BuildingBlock: OJICUG_clean_sbu_0, # of connection points: 6
#     Node 1, Type 0, BuildingBlock: OJICUG_clean_sbu_0, # of connection points: 6
#     Node 2, Type 0, BuildingBlock: OJICUG_clean_sbu_0, # of connection points: 6
#     Node 3, Type 0, BuildingBlock: OJICUG_clean_sbu_0, # of connection points: 6
#     Node 4, Type 1, BuildingBlock: BELTOD_clean_linker_0, # of connection points: 3
#     Node 5, Type 1, BuildingBlock: BELTOD_clean_linker_0, # of connection points: 3
#     Node 6, Type 1, BuildingBlock: BELTOD_clean_linker_0, # of connection points: 3
#     Node 7, Type 1, BuildingBlock: BELTOD_clean_linker_0, # of connection points: 3
#     Node 8, Type 1, BuildingBlock: BELTOD_clean_linker_0, # of connection points: 3
#     Node 9, Type 1, BuildingBlock: BELTOD_clean_linker_0, # of connection points: 3
#     Node 10, Type 1, BuildingBlock: BELTOD_clean_linker_0, # of connection points: 3
#     Node 11, Type 1, BuildingBlock: BELTOD_clean_linker_0, # of connection points: 3
#     Edge 12, Type (0, 1), BuildingBlock: MIFKUJ_clean_linker_0, # of connection points: 2
#     Edge 13, Type (0, 1), BuildingBlock: MIFKUJ_clean_linker_0, # of connection points: 2
#     Edge 14, Type (0, 1), BuildingBlock: MIFKUJ_clean_linker_0, # of connection points: 2
#     Edge 15, Type (0, 1), BuildingBlock: MIFKUJ_clean_linker_0, # of connection points: 2
#     Edge 16, Type (0, 1), BuildingBlock: MIFKUJ_clean_linker_0, # of connection points: 2
#     Edge 17, Type (0, 1), BuildingBlock: MIFKUJ_clean_linker_0, # of connection points: 2
#     Edge 18, Type (0, 1), BuildingBlock: MIFKUJ_clean_linker_0, # of connection points: 2
#     Edge 19, Type (0, 1), BuildingBlock: MIFKUJ_clean_linker_0, # of connection points: 2
#     Edge 20, Type (0, 1), BuildingBlock: MIFKUJ_clean_linker_0, # of connection points: 2
#     Edge 21, Type (0, 1), BuildingBlock: MIFKUJ_clean_linker_0, # of connection points: 2
#     Edge 22, Type (0, 1), BuildingBlock: MIFKUJ_clean_linker_0, # of connection points: 2
#     Edge 23, Type (0, 1), BuildingBlock: MIFKUJ_clean_linker_0, # of connection points: 2
#     Edge 24, Type (0, 1), BuildingBlock: MIFKUJ_clean_linker_0, # of connection points: 2
#     Edge 25, Type (0, 1), BuildingBlock: MIFKUJ_clean_linker_0, # of connection points: 2
#     Edge 26, Type (0, 1), BuildingBlock: MIFKUJ_clean_linker_0, # of connection points: 2
#     Edge 27, Type (0, 1), BuildingBlock: MIFKUJ_clean_linker_0, # of connection points: 2
#     Edge 28, Type (0, 1), BuildingBlock: MIFKUJ_clean_linker_0, # of connection points: 2
#     Edge 29, Type (0, 1), BuildingBlock: MIFKUJ_clean_linker_0, # of connection points: 2
#     Edge 30, Type (0, 1), BuildingBlock: MIFKUJ_clean_linker_0, # of connection points: 2
#     Edge 31, Type (0, 1), BuildingBlock: MIFKUJ_clean_linker_0, # of connection points: 2
#     Edge 32, Type (0, 1), BuildingBlock: MIFKUJ_clean_linker_0, # of connection points: 2
#     Edge 33, Type (0, 1), BuildingBlock: MIFKUJ_clean_linker_0, # of connection points: 2
#     Edge 34, Type (0, 1), BuildingBlock: MIFKUJ_clean_linker_0, # of connection points: 2
#     Edge 35, Type (0, 1), BuildingBlock: MIFKUJ_clean_linker_0, # of connection points: 2
# Relax obj value: 0.238
# Max RMSD: 0.191
# Mean RMSD: 0.159
data_MOF--net-dag--node1-OJICUG_clean_sbu_0--node2-BELTOD_clean_linker_0--edge1-MIFKUJ_clean_linker_0
_symmetry_space_group_name_H-M    P1
_symmetry_Int_Tables_number       1
_symmetry_cell_setting            triclinic
loop_
_symmetry_equiv_pos_as_xyz
'x, y, z'
_cell_length_a     50.703839
_cell_length_b     54.122855
_cell_length_c     52.696479
_cell_angle_alpha  94.912534
_cell_angle_beta   90.283448
_cell_angle_gamma 90.202472
loop_
_atom_site_label
_atom_site_type_symbol
_atom_site_fract_x
_atom_site_fract_y
_atom_site_fract_z
_atom_type_partial_charge
Sc0 Sc 0.12652 0.85728 0.03799 0.0
Sc1 Sc 0.13913 0.79333 0.03826 0.0
Sc2 Sc 0.1844 0.83727 0.06676 0.0
O3 O 0.15007 0.82928 0.04761 0.0
C4 C 0.18371 0.87823 0.02661 0.0
C5 C 0.12327 0.81869 0.98836 0.0
C6 C 0.20152 0.79081 0.02935 0.0
C7 C 0.08399 0.81847 0.05415 0.0
C8 C 0.14611 0.8783 0.09335 0.0
C9 C 0.16082 0.79198 0.0949 0.0
O10 O 0.15889 0.87722 0.02314 0.0
O11 O 0.13129 0.79996 0.9992 0.0
O12 O 0.20664 0.81096 0.04265 0.0
O13 O 0.09187 0.84053 0.05229 0.0
O14 O 0.16638 0.86456 0.09345 0.0
O15 O 0.14593 0.7837 0.07658 0.0
O16 O 0.13031 0.87786 0.07454 0.0
O17 O 0.09832 0.7996 0.04854 0.0
O18 O 0.17624 0.81043 0.09356 0.0
O19 O 0.1198 0.83989 0.00023 0.0
O20 O 0.19578 0.86507 0.04181 0.0
O21 O 0.17831 0.782 0.02671 0.0
Sc22 Sc 0.68013 0.65866 0.4694 0.0
Sc23 Sc 0.63551 0.70088 0.50113 0.0
Sc24 Sc 0.62218 0.63683 0.49629 0.0
O25 O 0.64604 0.66549 0.48908 0.0
C26 C 0.6403 0.62064 0.43958 0.0
C27 C 0.65629 0.70583 0.44485 0.0
C28 C 0.57976 0.67723 0.48424 0.0
C29 C 0.6982 0.70311 0.50907 0.0
C30 C 0.67944 0.6147 0.50583 0.0
C31 C 0.62031 0.67154 0.54878 0.0
O32 O 0.66179 0.63281 0.4411 0.0
O33 O 0.64154 0.71284 0.46357 0.0
O34 O 0.5874 0.65498 0.48449 0.0
O35 O 0.70286 0.6837 0.49457 0.0
O36 O 0.65453 0.61501 0.50852 0.0
O37 O 0.62804 0.69129 0.53948 0.0
O38 O 0.69169 0.62947 0.49248 0.0
O39 O 0.67507 0.71157 0.51287 0.0
O40 O 0.61693 0.65107 0.53534 0.0
O41 O 0.67178 0.68736 0.44475 0.0
O42 O 0.62417 0.62036 0.45788 0.0
O43 O 0.59443 0.69572 0.49091 0.0
Sc44 Sc 0.86366 0.2177 0.0131 0.0
Sc45 Sc 0.81762 0.17688 0.98113 0.0
Sc46 Sc 0.87549 0.15334 0.00596 0.0
O47 O 0.85226 0.18271 0.00017 0.0
C48 C 0.91866 0.19454 0.99533 0.0
C49 C 0.84038 0.22466 0.95757 0.0
C50 C 0.85617 0.13895 0.94967 0.0
C51 C 0.80198 0.21986 0.02391 0.0
C52 C 0.87964 0.18535 0.05919 0.0
C53 C 0.81758 0.13115 0.01409 0.0
O54 O 0.90318 0.21295 0.99843 0.0
O55 O 0.82727 0.20452 0.956 0.0
O56 O 0.87439 0.13997 0.96636 0.0
O57 O 0.8255 0.22665 0.0294 0.0
O58 O 0.87875 0.16461 0.04587 0.0
O59 O 0.80518 0.14852 0.00458 0.0
O60 O 0.87574 0.20603 0.04985 0.0
O61 O 0.79652 0.20304 0.00635 0.0
O62 O 0.84263 0.12985 0.0143 0.0
O63 O 0.85321 0.23268 0.97747 0.0
O64 O 0.91146 0.17251 0.99849 0.0
O65 O 0.8341 0.14975 0.95327 0.0
Sc66 Sc 0.37636 0.35331 0.55286 0.0
Sc67 Sc 0.3217 0.3306 0.58434 0.0
Sc68 Sc 0.36587 0.28881 0.55182 0.0
O69 O 0.35462 0.3242 0.56296 0.0
C70 C 0.37624 0.31743 0.50183 0.0
C71 C 0.31746 0.37392 0.54797 0.0
C72 C 0.30341 0.28504 0.54534 0.0
C73 C 0.36237 0.37096 0.61011 0.0
C74 C 0.4215 0.31433 0.56408 0.0
C75 C 0.34744 0.28472 0.60923 0.0
O76 O 0.37655 0.33894 0.51363 0.0
O77 O 0.30666 0.35782 0.56071 0.0
O78 O 0.32667 0.278 0.53957 0.0
O79 O 0.37803 0.37002 0.59129 0.0
O80 O 0.40635 0.29554 0.56299 0.0
O81 O 0.33354 0.30425 0.61024 0.0
O82 O 0.41353 0.33584 0.55983 0.0
O83 O 0.34083 0.35876 0.60978 0.0
O84 O 0.35945 0.27619 0.58922 0.0
O85 O 0.34224 0.37503 0.54463 0.0
O86 O 0.37367 0.29764 0.5131 0.0
O87 O 0.29868 0.30328 0.56152 0.0
P88 P 0.02973 0.10774 0.36045 0.0
H89 H 0.04385 0.05536 0.36246 0.0
H90 H 0.06188 0.02442 0.33054 0.0
H91 H 0.06688 0.0803 0.27685 0.0
H92 H 0.04853 0.11081 0.30852 0.0
H93 H 0.03073 0.13353 0.4114 0.0
H94 H 0.06477 0.15772 0.43556 0.0
H95 H 0.11739 0.14683 0.37133 0.0
H96 H 0.08353 0.12241 0.34756 0.0
H97 H 0.9796 0.09762 0.33514 0.0
H98 H 0.03415 0.15897 0.34569 0.0
O99 O 0.01143 0.09311 0.38078 0.0
H100 H 0.95497 0.11929 0.30409 0.0
H101 H 0.00912 0.18122 0.31519 0.0
C102 C 0.04434 0.08521 0.33767 0.0
C103 C 0.04882 0.06088 0.34379 0.0
C104 C 0.05928 0.04328 0.3256 0.0
C105 C 0.06551 0.04983 0.30105 0.0
C106 C 0.06173 0.07449 0.29536 0.0
C107 C 0.0513 0.09199 0.31351 0.0
C108 C 0.05481 0.12569 0.37794 0.0
C109 C 0.04966 0.13626 0.40261 0.0
C110 C 0.06905 0.15025 0.41631 0.0
C111 C 0.09388 0.15404 0.40544 0.0
C112 C 0.09868 0.14385 0.38044 0.0
C113 C 0.07928 0.12989 0.36679 0.0
C114 C 0.0085 0.12676 0.34291 0.0
C115 C 0.98572 0.11616 0.33142 0.0
C116 C 0.9716 0.12866 0.31369 0.0
C117 C 0.98006 0.15204 0.30706 0.0
C118 C 0.00222 0.16314 0.31964 0.0
C119 C 0.01643 0.15052 0.33729 0.0
P120 P 0.48148 0.60921 0.86421 0.0
H121 H 0.53567 0.62437 0.85305 0.0
H122 H 0.55512 0.64115 0.81565 0.0
H123 H 0.47758 0.64505 0.7819 0.0
H124 H 0.45833 0.62819 0.81922 0.0
H125 H 0.44166 0.59646 0.90045 0.0
H126 H 0.40666 0.62023 0.9229 0.0
H127 H 0.4312 0.6856 0.88741 0.0
H128 H 0.46652 0.6619 0.86566 0.0
H129 H 0.50451 0.56075 0.84987 0.0
H130 H 0.42901 0.59618 0.84357 0.0
O131 O 0.50482 0.60258 0.88498 0.0
H132 H 0.48792 0.52416 0.82404 0.0
H133 H 0.41239 0.55989 0.81766 0.0
C134 C 0.49557 0.62503 0.83884 0.0
C135 C 0.52283 0.62922 0.83779 0.0
C136 C 0.53392 0.63888 0.81645 0.0
C137 C 0.51788 0.64425 0.79579 0.0
C138 C 0.49046 0.6408 0.79739 0.0
C139 C 0.47943 0.63127 0.81873 0.0
C140 C 0.45631 0.62727 0.88101 0.0
C141 C 0.43947 0.61592 0.89755 0.0
C142 C 0.41939 0.62949 0.91024 0.0
C143 C 0.41595 0.65477 0.90675 0.0
C144 C 0.43338 0.66621 0.89064 0.0
C145 C 0.45347 0.6526 0.87797 0.0
C146 C 0.46781 0.5809 0.84917 0.0
C147 C 0.48419 0.56041 0.84343 0.0
C148 C 0.47476 0.53963 0.82848 0.0
C149 C 0.44881 0.53911 0.81887 0.0
C150 C 0.43229 0.55951 0.82516 0.0
C151 C 0.44179 0.58029 0.84001 0.0
P152 P 0.74688 0.86949 0.18852 0.0
H153 H 0.72607 0.91981 0.19689 0.0
H154 H 0.71697 0.95114 0.16749 0.0
H155 H 0.72805 0.89634 0.10386 0.0
H156 H 0.73759 0.86508 0.13356 0.0
H157 H 0.7552 0.82402 0.21259 0.0
H158 H 0.72508 0.79536 0.23074 0.0
H159 H 0.65876 0.83472 0.20215 0.0
H160 H 0.6893 0.86343 0.18367 0.0
H161 H 0.7969 0.89335 0.18118 0.0
H162 H 0.76291 0.82081 0.16325 0.0
O163 O 0.75469 0.88564 0.21595 0.0
H164 H 0.83828 0.87926 0.16192 0.0
H165 H 0.80492 0.80588 0.14554 0.0
C166 C 0.73306 0.89032 0.16732 0.0
C167 C 0.72595 0.91438 0.17664 0.0
C168 C 0.72055 0.93227 0.15977 0.0
C169 C 0.72218 0.9263 0.13332 0.0
C170 C 0.72708 0.90157 0.12413 0.0
C171 C 0.73243 0.88368 0.14105 0.0
C172 C 0.72454 0.84544 0.1962 0.0
C173 C 0.73424 0.82591 0.20927 0.0
C174 C 0.71694 0.80946 0.2196 0.0
C175 C 0.68952 0.81258 0.21757 0.0
C176 C 0.6798 0.83176 0.20379 0.0
C177 C 0.69723 0.84811 0.19317 0.0
C178 C 0.77717 0.85793 0.17448 0.0
C179 C 0.79856 0.8742 0.17352 0.0
C180 C 0.82231 0.86601 0.16261 0.0
C181 C 0.8253 0.8412 0.15264 0.0
C182 C 0.80344 0.82509 0.153 0.0
C183 C 0.77946 0.8335 0.16352 0.0
P184 P 0.78674 0.32572 0.63235 0.0
H185 H 0.82279 0.35512 0.60343 0.0
H186 H 0.82138 0.3983 0.59262 0.0
H187 H 0.7518 0.4106 0.6388 0.0
H188 H 0.7527 0.36739 0.64882 0.0
H189 H 0.82062 0.28808 0.65189 0.0
H190 H 0.83564 0.28076 0.69464 0.0
H191 H 0.7914 0.34447 0.72546 0.0
H192 H 0.7772 0.35209 0.68265 0.0
H193 H 0.75635 0.31805 0.58578 0.0
H194 H 0.74308 0.31262 0.6659 0.0
O195 O 0.80603 0.30995 0.61114 0.0
H196 H 0.70957 0.31016 0.57712 0.0
H197 H 0.69615 0.30506 0.65741 0.0
C198 C 0.78789 0.35808 0.62697 0.0
C199 C 0.8074 0.36717 0.61143 0.0
C200 C 0.80661 0.39179 0.60528 0.0
C201 C 0.78657 0.40771 0.61501 0.0
C202 C 0.76767 0.39878 0.63137 0.0
C203 C 0.7682 0.3741 0.6371 0.0
C204 C 0.79805 0.32082 0.66397 0.0
C205 C 0.81436 0.30062 0.66781 0.0
C206 C 0.82279 0.29635 0.69233 0.0
C207 C 0.81478 0.31206 0.71353 0.0
C208 C 0.79837 0.33228 0.70955 0.0
C209 C 0.7901 0.33661 0.685 0.0
C210 C 0.75326 0.31567 0.6264 0.0
C211 C 0.74344 0.31472 0.60145 0.0
C212 C 0.71666 0.31044 0.59657 0.0
C213 C 0.69915 0.30716 0.61661 0.0
C214 C 0.70921 0.3073 0.64155 0.0
C215 C 0.73606 0.31168 0.64643 0.0
P216 P 0.51217 0.38426 0.19062 0.0
H217 H 0.52056 0.43588 0.17928 0.0
H218 H 0.54094 0.47167 0.20382 0.0
H219 H 0.55691 0.42615 0.26545 0.0
H220 H 0.53596 0.39079 0.24136 0.0
H221 H 0.52035 0.3623 0.13849 0.0
H222 H 0.55743 0.34025 0.11781 0.0
H223 H 0.59837 0.34271 0.19016 0.0
H224 H 0.56173 0.36543 0.21043 0.0
H225 H 0.45945 0.39344 0.21 0.0
H226 H 0.52131 0.3405 0.21953 0.0
O227 O 0.49263 0.39404 0.16797 0.0
H228 H 0.43425 0.37637 0.24379 0.0
H229 H 0.4967 0.3239 0.25394 0.0
C230 C 0.52659 0.41073 0.20857 0.0
C231 C 0.5283 0.43366 0.19813 0.0
C232 C 0.53997 0.45404 0.21208 0.0
C233 C 0.55063 0.45151 0.23637 0.0
C234 C 0.54913 0.42846 0.24661 0.0
C235 C 0.53706 0.40829 0.2329 0.0
C236 C 0.5383 0.36571 0.17599 0.0
C237 C 0.53726 0.35801 0.14993 0.0
C238 C 0.55845 0.34526 0.13814 0.0
C239 C 0.58101 0.33985 0.15228 0.0
C240 C 0.58158 0.347 0.17857 0.0
C241 C 0.56048 0.35988 0.19026 0.0
C242 C 0.49214 0.36813 0.21204 0.0
C243 C 0.46741 0.37784 0.21905 0.0
C244 C 0.45315 0.36823 0.23858 0.0
C245 C 0.46355 0.34891 0.25176 0.0
C246 C 0.48796 0.33859 0.24402 0.0
C247 C 0.50215 0.34817 0.22435 0.0
P248 P 0.28281 0.18075 0.93129 0.0
H249 H 0.31924 0.1498 0.95808 0.0
H250 H 0.31916 0.10539 0.96445 0.0
H251 H 0.24916 0.09525 0.91775 0.0
H252 H 0.24857 0.13967 0.91233 0.0
H253 H 0.31857 0.21855 0.91452 0.0
H254 H 0.33507 0.22713 0.8727 0.0
H255 H 0.28871 0.16601 0.83794 0.0
H256 H 0.27291 0.15719 0.87975 0.0
H257 H 0.25145 0.18595 0.97708 0.0
H258 H 0.24017 0.19627 0.89751 0.0
O259 O 0.30187 0.19554 0.95367 0.0
H260 H 0.20489 0.19488 0.985 0.0
H261 H 0.19344 0.20479 0.9052 0.0
C262 C 0.28392 0.148 0.93472 0.0
C263 C 0.30392 0.13802 0.94916 0.0
C264 C 0.30393 0.11271 0.95274 0.0
C265 C 0.28429 0.09703 0.94138 0.0
C266 C 0.26472 0.10697 0.92637 0.0
C267 C 0.26438 0.13231 0.92329 0.0
C268 C 0.29477 0.18702 0.90035 0.0
C269 C 0.31211 0.20688 0.89792 0.0
C270 C 0.32141 0.21186 0.87396 0.0
C271 C 0.31332 0.19717 0.85196 0.0
C272 C 0.29578 0.17737 0.85452 0.0
C273 C 0.2866 0.17236 0.87849 0.0
C274 C 0.24933 0.19065 0.9368 0.0
C275 C 0.23901 0.19046 0.96137 0.0
C276 C 0.21235 0.19535 0.96582 0.0
C277 C 0.19544 0.20039 0.94569 0.0
C278 C 0.20601 0.20121 0.92114 0.0
C279 C 0.23275 0.19625 0.91671 0.0
P280 P 0.24405 0.61135 0.35493 0.0
H281 H 0.21927 0.5625 0.35393 0.0
H282 H 0.20778 0.53697 0.38816 0.0
H283 H 0.22163 0.59949 0.44335 0.0
H284 H 0.23336 0.62495 0.40884 0.0
H285 H 0.2586 0.65278 0.32692 0.0
H286 H 0.23331 0.68279 0.30542 0.0
H287 H 0.16088 0.65062 0.33057 0.0
H288 H 0.18671 0.62049 0.35273 0.0
H289 H 0.29628 0.59055 0.36114 0.0
H290 H 0.2575 0.66037 0.38024 0.0
O291 O 0.25194 0.59088 0.33069 0.0
H292 H 0.33738 0.60777 0.37936 0.0
H293 H 0.29885 0.67829 0.39714 0.0
C294 C 0.2278 0.59538 0.37897 0.0
C295 C 0.21913 0.57093 0.37331 0.0
C296 C 0.21235 0.55638 0.39293 0.0
C297 C 0.21417 0.56614 0.41849 0.0
C298 C 0.22041 0.5914 0.42385 0.0
C299 C 0.22708 0.60596 0.40416 0.0
C300 C 0.22456 0.63496 0.34209 0.0
C301 C 0.23732 0.65261 0.32856 0.0
C302 C 0.2228 0.66982 0.31629 0.0
C303 C 0.19511 0.66936 0.31674 0.0
C304 C 0.18222 0.65154 0.33021 0.0
C305 C 0.19691 0.63442 0.34288 0.0
C306 C 0.27414 0.62442 0.36854 0.0
C307 C 0.29676 0.60973 0.3689 0.0
C308 C 0.32029 0.6197 0.3792 0.0
C309 C 0.32166 0.64463 0.38928 0.0
C310 C 0.2986 0.65905 0.3896 0.0
C311 C 0.27498 0.64891 0.37961 0.0
P312 P 0.92536 0.87054 0.72738 0.0
H313 H 0.87607 0.8973 0.72507 0.0
H314 H 0.86369 0.93977 0.73912 0.0
H315 H 0.94565 0.95732 0.75568 0.0
H316 H 0.95789 0.91556 0.7396 0.0
H317 H 0.92281 0.82015 0.70432 0.0
H318 H 0.90593 0.80233 0.66336 0.0
H319 H 0.89649 0.87592 0.63874 0.0
H320 H 0.91377 0.89369 0.67979 0.0
H321 H 0.95073 0.88373 0.77582 0.0
H322 H 0.97065 0.84147 0.70537 0.0
O323 O 0.90425 0.85616 0.7454 0.0
H324 H 0.99205 0.87134 0.79474 0.0
H325 H 0.01168 0.82805 0.72482 0.0
C326 C 0.91775 0.90306 0.73216 0.0
C327 C 0.89139 0.91054 0.73115 0.0
C328 C 0.88434 0.9348 0.73942 0.0
C329 C 0.90353 0.95189 0.74937 0.0
C330 C 0.93024 0.94481 0.74823 0.0
C331 C 0.93729 0.92067 0.73938 0.0
C332 C 0.91932 0.85818 0.69515 0.0
C333 C 0.91787 0.83242 0.68982 0.0
C334 C 0.90832 0.82226 0.66635 0.0
C335 C 0.89975 0.83776 0.64791 0.0
C336 C 0.90278 0.86358 0.65271 0.0
C337 C 0.91265 0.87373 0.67617 0.0
C338 C 0.95772 0.86384 0.7391 0.0
C339 C 0.96425 0.8722 0.76424 0.0
C340 C 0.98786 0.86513 0.77503 0.0
C341 C 0.00508 0.84894 0.76111 0.0
C342 C 0.99874 0.84069 0.73581 0.0
C343 C 0.97527 0.84831 0.72477 0.0
H344 H 0.11009 0.91582 0.09738 0.0
H345 H 0.10029 0.94405 0.13463 0.0
H346 H 0.15899 0.90831 0.17815 0.0
H347 H 0.16903 0.87977 0.14082 0.0
H348 H 0.11119 0.91655 0.2041 0.0
H349 H 0.17352 0.96263 0.15932 0.0
H350 H 0.19258 0.98058 0.12203 0.0
H351 H 0.12273 0.02399 0.11434 0.0
H352 H 0.10307 0.00602 0.15137 0.0
H353 H 0.10201 0.01318 0.30619 0.0
H354 H 0.1187 0.983 0.27283 0.0
H355 H 0.06811 0.01403 0.21776 0.0
H356 H 0.05128 0.04401 0.25088 0.0
H357 H 0.11714 0.00763 0.19976 0.0
H358 H 0.05332 0.95919 0.24171 0.0
H359 H 0.0332 0.9407 0.2782 0.0
H360 H 0.10497 0.90154 0.2907 0.0
H361 H 0.12565 0.92009 0.25447 0.0
C362 C 0.12099 0.91389 0.11482 0.0
C363 C 0.14044 0.89555 0.11604 0.0
C364 C 0.11541 0.93013 0.13608 0.0
C365 C 0.12909 0.9284 0.15905 0.0
C366 C 0.14828 0.90997 0.16054 0.0
C367 C 0.15406 0.89377 0.13917 0.0
C368 C 0.12304 0.94589 0.18142 0.0
C369 C 0.11296 0.93647 0.2034 0.0
C370 C 0.12493 0.97185 0.18023 0.0
C371 C 0.13674 0.98282 0.15802 0.0
C372 C 0.16214 0.97586 0.14956 0.0
C373 C 0.17307 0.98607 0.12849 0.0
C374 C 0.15886 0.00338 0.11579 0.0
C375 C 0.13371 0.01057 0.12419 0.0
C376 C 0.12268 0.0004 0.14524 0.0
C377 C 0.09427 0.01339 0.28701 0.0
C378 C 0.07541 0.03107 0.28116 0.0
C379 C 0.10385 0.99618 0.26798 0.0
C380 C 0.09459 0.99623 0.24282 0.0
C381 C 0.07567 0.01376 0.237 0.0
C382 C 0.06613 0.03094 0.25595 0.0
C383 C 0.10473 0.97835 0.2223 0.0
C384 C 0.11565 0.98772 0.20064 0.0
C385 C 0.10351 0.95237 0.22378 0.0
C386 C 0.09113 0.94127 0.24559 0.0
C387 C 0.06489 0.94682 0.25239 0.0
C388 C 0.05337 0.93629 0.273 0.0
C389 C 0.06783 0.92002 0.28682 0.0
C390 C 0.09382 0.91419 0.28002 0.0
C391 C 0.10544 0.9247 0.25945 0.0
H392 H 0.05887 0.91188 0.30275 0.0
H393 H 0.16735 0.01126 0.09948 0.0
H394 H 0.59235 0.63729 0.57259 0.0
H395 H 0.57808 0.63969 0.61676 0.0
H396 H 0.61823 0.70979 0.63164 0.0
H397 H 0.63247 0.70784 0.58697 0.0
H398 H 0.62412 0.66951 0.67011 0.0
H399 H 0.56082 0.71806 0.62785 0.0
H400 H 0.53055 0.72625 0.5928 0.0
H401 H 0.48522 0.66154 0.60624 0.0
H402 H 0.51549 0.65273 0.64111 0.0
H403 H 0.55673 0.67885 0.79034 0.0
H404 H 0.5767 0.69003 0.75054 0.0
H405 H 0.52621 0.63697 0.70792 0.0
H406 H 0.50605 0.62614 0.74736 0.0
H407 H 0.52787 0.67774 0.6851 0.0
H408 H 0.59249 0.62535 0.72172 0.0
H409 H 0.62325 0.61341 0.75492 0.0
H410 H 0.66619 0.68148 0.75094 0.0
H411 H 0.63545 0.69396 0.71792 0.0
C412 C 0.59843 0.65317 0.58519 0.0
C413 C 0.61347 0.67245 0.57615 0.0
C414 C 0.59019 0.6545 0.61044 0.0
C415 C 0.59701 0.67496 0.62729 0.0
C416 C 0.6128 0.69387 0.61879 0.0
C417 C 0.6208 0.69275 0.59329 0.0
C418 C 0.58638 0.67663 0.65343 0.0
C419 C 0.60319 0.67193 0.67364 0.0
C420 C 0.55902 0.67923 0.65772 0.0
C421 C 0.54054 0.68465 0.63698 0.0
C422 C 0.54452 0.70547 0.6232 0.0
C423 C 0.52734 0.71024 0.60339 0.0
C424 C 0.506 0.6944 0.59726 0.0
C425 C 0.50176 0.67379 0.611 0.0
C426 C 0.51891 0.66891 0.63081 0.0
C427 C 0.54995 0.66964 0.77243 0.0
C428 C 0.52976 0.65171 0.77193 0.0
C429 C 0.56137 0.676 0.74973 0.0
C430 C 0.55308 0.66422 0.72622 0.0
C431 C 0.53281 0.64646 0.72577 0.0
C432 C 0.52126 0.6403 0.74834 0.0
C433 C 0.56546 0.66993 0.7019 0.0
C434 C 0.54893 0.67594 0.6819 0.0
C435 C 0.59303 0.6682 0.69779 0.0
C436 C 0.61149 0.66072 0.71762 0.0
C437 C 0.60836 0.63785 0.72809 0.0
C438 C 0.62581 0.63098 0.74683 0.0
C439 C 0.64661 0.64672 0.7551 0.0
C440 C 0.65004 0.66934 0.74457 0.0
C441 C 0.63262 0.67632 0.72583 0.0
H442 H 0.6601 0.64135 0.76961 0.0
H443 H 0.49273 0.69812 0.58191 0.0
H444 H 0.7667 0.13285 0.03141 0.0
H445 H 0.74158 0.09923 0.04854 0.0
H446 H 0.8085 0.0507 0.03703 0.0
H447 H 0.83385 0.08414 0.02035 0.0
H448 H 0.75737 0.03029 0.01881 0.0
H449 H 0.79986 0.07436 0.09315 0.0
H450 H 0.80885 0.112 0.12171 0.0
H451 H 0.72607 0.12005 0.13701 0.0
H452 H 0.71658 0.08261 0.10823 0.0
H453 H 0.75621 0.93132 0.09443 0.0
H454 H 0.76234 0.96716 0.07035 0.0
H455 H 0.69627 0.00334 0.10896 0.0
H456 H 0.69018 0.96727 0.13356 0.0
H457 H 0.73642 0.03343 0.1109 0.0
H458 H 0.69402 0.98537 0.04377 0.0
H459 H 0.68336 0.94859 0.01461 0.0
H460 H 0.76178 0.94889 0.98428 0.0
H461 H 0.77307 0.98545 0.01352 0.0
C462 C 0.77603 0.115 0.03253 0.0
C463 C 0.80229 0.11115 0.02464 0.0
C464 C 0.76167 0.09587 0.04228 0.0
C465 C 0.77323 0.07256 0.04391 0.0
C466 C 0.79926 0.06858 0.03577 0.0
C467 C 0.81375 0.08775 0.02644 0.0
C468 C 0.75867 0.05229 0.05477 0.0
C469 C 0.75275 0.03084 0.03893 0.0
C470 C 0.75173 0.05362 0.08077 0.0
C471 C 0.75749 0.0759 0.09831 0.0
C472 C 0.78356 0.08428 0.10244 0.0
C473 C 0.78875 0.10555 0.11869 0.0
C474 C 0.76803 0.11846 0.13109 0.0
C475 C 0.7421 0.11006 0.12735 0.0
C476 C 0.7368 0.08882 0.11108 0.0
C477 C 0.74241 0.94652 0.09727 0.0
C478 C 0.72263 0.94639 0.11584 0.0
C479 C 0.74595 0.96709 0.08345 0.0
C480 C 0.72958 0.9879 0.08759 0.0
C481 C 0.70911 0.98748 0.10541 0.0
C482 C 0.70566 0.96689 0.11943 0.0
C483 C 0.73585 0.01078 0.07513 0.0
C484 C 0.74028 0.03286 0.09063 0.0
C485 C 0.74107 0.01013 0.0487 0.0
C486 C 0.73442 0.98813 0.03096 0.0
C487 C 0.70906 0.97751 0.03101 0.0
C488 C 0.70289 0.9567 0.01444 0.0
C489 C 0.72189 0.94639 0.99763 0.0
C490 C 0.74708 0.9569 0.99731 0.0
C491 C 0.75336 0.9777 0.01385 0.0
H492 H 0.71708 0.93028 0.98482 0.0
H493 H 0.77208 0.13494 0.14365 0.0
H494 H 0.46248 0.34503 0.55471 0.0
H495 H 0.50919 0.33951 0.5642 0.0
H496 H 0.49134 0.27123 0.59718 0.0
H497 H 0.44442 0.27641 0.58747 0.0
H498 H 0.52656 0.30514 0.62699 0.0
H499 H 0.51704 0.26492 0.54279 0.0
H500 H 0.50288 0.26148 0.4978 0.0
H501 H 0.55164 0.32385 0.4838 0.0
H502 H 0.56579 0.32791 0.52883 0.0
H503 H 0.66365 0.27509 0.63553 0.0
H504 H 0.61603 0.2725 0.62729 0.0
H505 H 0.62217 0.33246 0.57865 0.0
H506 H 0.66957 0.33491 0.58656 0.0
H507 H 0.59185 0.29748 0.55695 0.0
H508 H 0.59844 0.34068 0.64053 0.0
H509 H 0.61175 0.34657 0.68572 0.0
H510 H 0.56815 0.28143 0.70118 0.0
H511 H 0.55488 0.27494 0.65597 0.0
C512 C 0.46842 0.32885 0.56403 0.0
C513 C 0.44974 0.3111 0.57025 0.0
C514 C 0.49512 0.3257 0.56936 0.0
C515 C 0.50365 0.3049 0.58123 0.0
C516 C 0.48508 0.28737 0.58795 0.0
C517 C 0.45835 0.29031 0.58228 0.0
C518 C 0.53207 0.3016 0.58638 0.0
C519 C 0.54087 0.30299 0.61173 0.0
C520 C 0.55063 0.29932 0.5664 0.0
C521 C 0.5423 0.29684 0.53925 0.0
C522 C 0.52458 0.27804 0.53017 0.0
C523 C 0.51658 0.27595 0.50465 0.0
C524 C 0.52631 0.29247 0.48796 0.0
C525 C 0.5441 0.31108 0.49675 0.0
C526 C 0.55214 0.31326 0.52227 0.0
C527 C 0.65477 0.28773 0.62314 0.0
C528 C 0.67035 0.30512 0.6116 0.0
C529 C 0.62758 0.28626 0.61847 0.0
C530 C 0.61547 0.30242 0.60249 0.0
C531 C 0.63106 0.3197 0.59092 0.0
C532 C 0.65818 0.32104 0.59541 0.0
C533 C 0.58658 0.30153 0.59766 0.0
C534 C 0.57762 0.29933 0.5723 0.0
C535 C 0.56792 0.30333 0.61766 0.0
C536 C 0.57595 0.30715 0.64481 0.0
C537 C 0.5919 0.32748 0.65352 0.0
C538 C 0.59939 0.33095 0.67914 0.0
C539 C 0.59088 0.31434 0.69629 0.0
C540 C 0.57478 0.29425 0.68786 0.0
C541 C 0.56726 0.29067 0.66225 0.0
H542 H 0.59668 0.31707 0.71613 0.0
H543 H 0.52009 0.29083 0.46821 0.0
H544 H 0.67197 0.59306 0.40634 0.0
H545 H 0.65829 0.56833 0.36735 0.0
H546 H 0.5785 0.59483 0.37811 0.0
H547 H 0.59185 0.61808 0.41784 0.0
H548 H 0.57583 0.54927 0.36799 0.0
H549 H 0.62233 0.61236 0.32782 0.0
H550 H 0.65966 0.63984 0.31926 0.0
H551 H 0.70797 0.57641 0.29855 0.0
H552 H 0.67104 0.54857 0.30711 0.0
H553 H 0.52885 0.49688 0.24839 0.0
H554 H 0.54623 0.53018 0.2785 0.0
H555 H 0.61657 0.4875 0.28868 0.0
H556 H 0.59908 0.45399 0.25893 0.0
H557 H 0.6234 0.5428 0.28566 0.0
H558 H 0.575 0.48076 0.32908 0.0
H559 H 0.5358 0.45499 0.33554 0.0
H560 H 0.48854 0.52051 0.34848 0.0
H561 H 0.52744 0.54665 0.34166 0.0
C562 C 0.65158 0.59363 0.4002 0.0
C563 C 0.63287 0.60714 0.41514 0.0
C564 C 0.64379 0.57971 0.37779 0.0
C565 C 0.61734 0.57983 0.36953 0.0
C566 C 0.59895 0.59421 0.38408 0.0
C567 C 0.60656 0.60748 0.40679 0.0
C568 C 0.60826 0.56346 0.34703 0.0
C569 C 0.58605 0.54836 0.3499 0.0
C570 C 0.62172 0.56171 0.32342 0.0
C571 C 0.644 0.5784 0.31835 0.0
C572 C 0.64099 0.60429 0.32164 0.0
C573 C 0.66204 0.61992 0.31675 0.0
C574 C 0.68618 0.60987 0.30849 0.0
C575 C 0.68928 0.58417 0.30499 0.0
C576 C 0.66828 0.56846 0.3098 0.0
C577 C 0.54825 0.49489 0.25665 0.0
C578 C 0.56261 0.47291 0.25156 0.0
C579 C 0.55812 0.51385 0.27379 0.0
C580 C 0.58262 0.51118 0.28574 0.0
C581 C 0.59769 0.48988 0.2795 0.0
C582 C 0.58763 0.47075 0.26271 0.0
C583 C 0.59112 0.52917 0.30688 0.0
C584 C 0.61319 0.54425 0.30376 0.0
C585 C 0.57731 0.53133 0.33015 0.0
C586 C 0.55403 0.51562 0.33456 0.0
C587 C 0.5562 0.48965 0.33307 0.0
C588 C 0.53405 0.47498 0.33684 0.0
C589 C 0.50967 0.4861 0.34234 0.0
C590 C 0.50742 0.51192 0.34417 0.0
C591 C 0.52951 0.52667 0.34036 0.0
H592 H 0.49255 0.47471 0.34526 0.0
H593 H 0.70245 0.62201 0.30473 0.0
H594 H 0.96024 0.1639 0.00149 0.0
H595 H 0.00654 0.17102 0.99213 0.0
H596 H 0.98704 0.24147 0.96459 0.0
H597 H 0.94032 0.23469 0.97428 0.0
H598 H 0.02321 0.20857 0.93252 0.0
H599 H 0.01347 0.24638 0.01749 0.0
H600 H 0.99883 0.24845 0.06216 0.0
H601 H 0.04682 0.18548 0.07505 0.0
H602 H 0.06143 0.18278 0.03032 0.0
H603 H 0.16213 0.2347 0.92733 0.0
H604 H 0.1146 0.23911 0.93475 0.0
H605 H 0.11645 0.17722 0.9812 0.0
H606 H 0.16371 0.17283 0.97398 0.0
H607 H 0.08811 0.21344 0.0036 0.0
H608 H 0.09353 0.17178 0.91909 0.0
H609 H 0.10714 0.16675 0.87408 0.0
H610 H 0.06689 0.23393 0.85997 0.0
H611 H 0.05334 0.23953 0.90502 0.0
C612 C 0.96567 0.18089 0.99333 0.0
C613 C 0.94657 0.19877 0.98869 0.0
C614 C 0.99217 0.18494 0.98807 0.0
C615 C 0.00014 0.20681 0.97784 0.0
C616 C 0.98118 0.2245 0.97255 0.0
C617 C 0.95458 0.22063 0.97818 0.0
C618 C 0.02849 0.21099 0.9732 0.0
C619 C 0.03745 0.21022 0.94802 0.0
C620 C 0.04693 0.21259 0.99348 0.0
C621 C 0.03839 0.21428 0.02048 0.0
C622 C 0.02074 0.23285 0.02979 0.0
C623 C 0.01247 0.23416 0.05514 0.0
C624 C 0.02185 0.21708 0.07143 0.0
C625 C 0.03956 0.19869 0.06241 0.0
C626 C 0.04787 0.19728 0.03707 0.0
C627 C 0.15233 0.222 0.93904 0.0
C628 C 0.16669 0.20349 0.95016 0.0
C629 C 0.1252 0.22454 0.94327 0.0
C630 C 0.11192 0.20841 0.95844 0.0
C631 C 0.12628 0.19 0.96958 0.0
C632 C 0.15333 0.18755 0.96549 0.0
C633 C 0.08306 0.2104 0.96281 0.0
C634 C 0.07396 0.21229 0.98802 0.0
C635 C 0.06454 0.20956 0.94253 0.0
C636 C 0.07272 0.20625 0.91548 0.0
C637 C 0.08779 0.1856 0.90644 0.0
C638 C 0.09545 0.18262 0.88092 0.0
C639 C 0.08797 0.20006 0.8642 0.0
C640 C 0.07274 0.22048 0.87296 0.0
C641 C 0.06505 0.22356 0.89848 0.0
H642 H 0.09391 0.19771 0.84444 0.0
H643 H 0.01542 0.21812 0.09104 0.0
H644 H 0.33199 0.42003 0.53622 0.0
H645 H 0.30409 0.45177 0.51971 0.0
H646 H 0.23717 0.40232 0.51873 0.0
H647 H 0.2649 0.37046 0.53584 0.0
H648 H 0.24875 0.42785 0.47135 0.0
H649 H 0.23311 0.44411 0.56081 0.0
H650 H 0.24613 0.45084 0.60601 0.0
H651 H 0.29084 0.51521 0.59017 0.0
H652 H 0.27843 0.50865 0.54477 0.0
H653 H 0.18006 0.52765 0.42514 0.0
H654 H 0.18681 0.49437 0.45325 0.0
H655 H 0.25604 0.53221 0.48507 0.0
H656 H 0.24913 0.56547 0.4576 0.0
H657 H 0.23322 0.50886 0.52045 0.0
H658 H 0.2588 0.48864 0.43263 0.0
H659 H 0.25099 0.48242 0.38628 0.0
H660 H 0.19328 0.42622 0.39771 0.0
H661 H 0.2005 0.43239 0.4442 0.0
C662 C 0.31136 0.41585 0.53247 0.0
C663 C 0.30063 0.39275 0.53731 0.0
C664 C 0.29544 0.43404 0.52319 0.0
C665 C 0.26861 0.42937 0.51826 0.0
C666 C 0.25784 0.40623 0.52261 0.0
C667 C 0.27368 0.38813 0.53237 0.0
C668 C 0.25228 0.44869 0.50785 0.0
C669 C 0.24464 0.44535 0.48222 0.0
C670 C 0.24762 0.47162 0.52199 0.0
C671 C 0.25495 0.47579 0.54934 0.0
C672 C 0.24588 0.4596 0.56692 0.0
C673 C 0.25313 0.4634 0.59259 0.0
C674 C 0.26934 0.48342 0.60095 0.0
C675 C 0.27829 0.49971 0.58366 0.0
C676 C 0.27112 0.49598 0.55796 0.0
C677 C 0.19631 0.52911 0.43862 0.0
C678 C 0.21418 0.54906 0.43903 0.0
C679 C 0.20018 0.51009 0.45462 0.0
C680 C 0.22228 0.51053 0.47086 0.0
C681 C 0.23886 0.53142 0.47271 0.0
C682 C 0.23483 0.55052 0.45699 0.0
C683 C 0.23021 0.48832 0.48366 0.0
C684 C 0.23647 0.49112 0.50974 0.0
C685 C 0.23416 0.46502 0.46978 0.0
C686 C 0.22991 0.46121 0.44187 0.0
C687 C 0.24431 0.47508 0.42525 0.0
C688 C 0.24 0.47156 0.39897 0.0
C689 C 0.22158 0.45399 0.38906 0.0
C690 C 0.20749 0.43987 0.40542 0.0
C691 C 0.21166 0.44338 0.43173 0.0
H692 H 0.21828 0.45128 0.3687 0.0
H693 H 0.27493 0.48633 0.62083 0.0
H694 H 0.09269 0.84877 0.96181 0.0
H695 H 0.08096 0.84361 0.91676 0.0
H696 H 0.12796 0.77729 0.90715 0.0
H697 H 0.13964 0.78204 0.95266 0.0
H698 H 0.13228 0.81868 0.86805 0.0
H699 H 0.0731 0.762 0.90573 0.0
H700 H 0.04258 0.75072 0.93921 0.0
H701 H 0.99134 0.81052 0.92325 0.0
H702 H 0.02175 0.82237 0.88991 0.0
H703 H 0.01685 0.8005 0.7653 0.0
H704 H 0.0472 0.78448 0.7963 0.0
H705 H 0.07409 0.85897 0.81842 0.0
H706 H 0.04371 0.87498 0.78766 0.0
H707 H 0.03858 0.79951 0.84671 0.0
H708 H 0.13572 0.85703 0.8437 0.0
H709 H 0.16597 0.87154 0.81162 0.0
H710 H 0.14105 0.81179 0.75791 0.0
H711 H 0.11092 0.79667 0.78978 0.0
C712 C 0.10072 0.83314 0.95018 0.0
C713 C 0.11703 0.81575 0.96084 0.0
C714 C 0.09398 0.83024 0.92446 0.0
C715 C 0.10361 0.81009 0.90882 0.0
C716 C 0.12042 0.79297 0.91907 0.0
C717 C 0.12691 0.79565 0.94502 0.0
C718 C 0.09492 0.80687 0.88201 0.0
C719 C 0.11196 0.81408 0.8631 0.0
C720 C 0.06848 0.8006 0.87582 0.0
C721 C 0.04977 0.79311 0.89538 0.0
C722 C 0.05539 0.77281 0.90944 0.0
C723 C 0.0381 0.76631 0.92838 0.0
C724 C 0.01505 0.77991 0.93338 0.0
C725 C 0.00919 0.79999 0.91935 0.0
C726 C 0.02642 0.80657 0.90039 0.0
C727 C 0.03002 0.81328 0.77609 0.0
C728 C 0.02794 0.83895 0.77429 0.0
C729 C 0.04724 0.80414 0.79381 0.0
C730 C 0.06289 0.82053 0.8096 0.0
C731 C 0.06245 0.84596 0.8062 0.0
C732 C 0.04503 0.85512 0.78874 0.0
C733 C 0.0757 0.81212 0.83262 0.0
C734 C 0.05924 0.8031 0.8511 0.0
C735 C 0.10262 0.81693 0.83837 0.0
C736 C 0.12095 0.82576 0.81916 0.0
C737 C 0.1368 0.84686 0.82512 0.0
C738 C 0.15391 0.85523 0.80694 0.0
C739 C 0.1554 0.84262 0.78273 0.0
C740 C 0.13982 0.82158 0.77665 0.0
C741 C 0.12269 0.81313 0.79476 0.0
H742 H 0.16865 0.84914 0.76868 0.0
H743 H 0.00172 0.77489 0.94809 0.0
H744 H 0.90317 0.12582 0.92723 0.0
H745 H 0.90996 0.0986 0.88817 0.0
H746 H 0.82587 0.09002 0.87878 0.0
H747 H 0.81877 0.11774 0.91729 0.0
H748 H 0.87395 0.04466 0.88407 0.0
H749 H 0.83225 0.11069 0.83807 0.0
H750 H 0.82954 0.15406 0.82727 0.0
H751 H 0.91013 0.15117 0.80255 0.0
H752 H 0.91346 0.10794 0.81381 0.0
H753 H 0.86 0.96024 0.77935 0.0
H754 H 0.85043 0.99638 0.8082 0.0
H755 H 0.9202 0.03288 0.78322 0.0
H756 H 0.92914 0.99723 0.75276 0.0
H757 H 0.88128 0.06619 0.79465 0.0
H758 H 0.92308 0.00089 0.83512 0.0
H759 H 0.92947 0.95808 0.84655 0.0
H760 H 0.85399 0.95988 0.88325 0.0
H761 H 0.84697 0.0026 0.87168 0.0
C762 C 0.88612 0.11841 0.91664 0.0
C763 C 0.86043 0.12387 0.92533 0.0
C764 C 0.89005 0.10303 0.89431 0.0
C765 C 0.86839 0.09273 0.88053 0.0
C766 C 0.84276 0.09828 0.88896 0.0
C767 C 0.83878 0.11402 0.91099 0.0
C768 C 0.87258 0.07397 0.85901 0.0
C769 C 0.8752 0.04925 0.86446 0.0
C770 C 0.87514 0.08028 0.8337 0.0
C771 C 0.87323 0.10627 0.82719 0.0
C772 C 0.84951 0.11945 0.83075 0.0
C773 C 0.84784 0.14397 0.82445 0.0
C774 C 0.86968 0.15541 0.81433 0.0
C775 C 0.89325 0.14234 0.81049 0.0
C776 C 0.89505 0.11784 0.81684 0.0
C777 C 0.8729 0.97619 0.77914 0.0
C778 C 0.89558 0.97556 0.76379 0.0
C779 C 0.86753 0.9968 0.79598 0.0
C780 C 0.88499 0.01701 0.79835 0.0
C781 C 0.90662 0.01732 0.78188 0.0
C782 C 0.91184 0.99679 0.76468 0.0
C783 C 0.88183 0.03658 0.81955 0.0
C784 C 0.87981 0.06147 0.81419 0.0
C785 C 0.88015 0.03049 0.84513 0.0
C786 C 0.8844 0.00487 0.85233 0.0
C787 C 0.90777 0.9921 0.84548 0.0
C788 C 0.91151 0.96785 0.85199 0.0
C789 C 0.89212 0.95625 0.86557 0.0
C790 C 0.86898 0.96889 0.87271 0.0
C791 C 0.86511 0.99312 0.86619 0.0
H792 H 0.89506 0.93747 0.8706 0.0
H793 H 0.86829 0.17434 0.80935 0.0
H794 H 0.37495 0.35514 0.47063 0.0
H795 H 0.38383 0.35313 0.42523 0.0
H796 H 0.39434 0.27396 0.42353 0.0
H797 H 0.38567 0.27578 0.46941 0.0
H798 H 0.43449 0.2962 0.40019 0.0
H799 H 0.34063 0.29652 0.39359 0.0
H800 H 0.29521 0.31026 0.40341 0.0
H801 H 0.31371 0.38281 0.38138 0.0
H802 H 0.35926 0.36957 0.37138 0.0
H803 H 0.45758 0.30166 0.26655 0.0
H804 H 0.43764 0.2895 0.30594 0.0
H805 H 0.41935 0.36606 0.32817 0.0
H806 H 0.43931 0.37832 0.28922 0.0
H807 H 0.37874 0.33629 0.33799 0.0
H808 H 0.47347 0.33818 0.35151 0.0
H809 H 0.51933 0.32565 0.342 0.0
H810 H 0.49952 0.24993 0.35213 0.0
H811 H 0.45342 0.26199 0.36138 0.0
C812 C 0.37892 0.3372 0.46068 0.0
C813 C 0.37972 0.31562 0.47378 0.0
C814 C 0.38378 0.33607 0.43459 0.0
C815 C 0.38944 0.31335 0.42089 0.0
C816 C 0.38987 0.29167 0.43373 0.0
C817 C 0.38487 0.29275 0.45993 0.0
C818 C 0.39684 0.31293 0.39365 0.0
C819 C 0.42202 0.30436 0.38638 0.0
C820 C 0.38077 0.32397 0.37576 0.0
C821 C 0.35341 0.33207 0.38185 0.0
C822 C 0.33507 0.31546 0.39099 0.0
C823 C 0.30929 0.32314 0.39656 0.0
C824 C 0.30162 0.3474 0.39315 0.0
C825 C 0.31969 0.36402 0.38403 0.0
C826 C 0.34546 0.35641 0.37831 0.0
C827 C 0.44927 0.31587 0.27984 0.0
C828 C 0.45001 0.34096 0.27469 0.0
C829 C 0.43785 0.30889 0.30229 0.0
C830 C 0.42714 0.3269 0.32005 0.0
C831 C 0.42731 0.35183 0.31466 0.0
C832 C 0.43867 0.3588 0.29229 0.0
C833 C 0.41665 0.32026 0.34483 0.0
C834 C 0.39092 0.32754 0.35161 0.0
C835 C 0.43226 0.30816 0.36231 0.0
C836 C 0.45995 0.30092 0.35679 0.0
C837 C 0.47885 0.31883 0.35149 0.0
C838 C 0.50489 0.31182 0.34619 0.0
C839 C 0.51232 0.287 0.34637 0.0
C840 C 0.49373 0.26914 0.35193 0.0
C841 C 0.46764 0.27605 0.35721 0.0
H842 H 0.53249 0.28161 0.34227 0.0
H843 H 0.28166 0.35331 0.39751 0.0
H844 H 0.16539 0.9201 0.00766 0.0
H845 H 0.19042 0.95124 0.98737 0.0
H846 H 0.26144 0.90838 0.99379 0.0
H847 H 0.23649 0.87749 0.01536 0.0
H848 H 0.27297 0.95322 0.00589 0.0
H849 H 0.23001 0.91403 0.93453 0.0
H850 H 0.19383 0.89467 0.90837 0.0
H851 H 0.15297 0.96422 0.91203 0.0
H852 H 0.1887 0.98394 0.93854 0.0
H853 H 0.28329 0.05653 0.90687 0.0
H854 H 0.27632 0.01319 0.91554 0.0
H855 H 0.27268 0.03574 0.99611 0.0
H856 H 0.2812 0.07859 0.98745 0.0
H857 H 0.23703 0.99295 0.93178 0.0
H858 H 0.28559 0.99212 0.0333 0.0
H859 H 0.32621 0.0076 0.05522 0.0
H860 H 0.36468 0.01097 0.9832 0.0
H861 H 0.32444 0.99516 0.96082 0.0
C862 C 0.18629 0.91713 0.00456 0.0
C863 C 0.19896 0.8963 0.01305 0.0
C864 C 0.20059 0.9349 0.99275 0.0
C865 C 0.22777 0.93196 0.98849 0.0
C866 C 0.24048 0.91103 0.99676 0.0
C867 C 0.22622 0.8934 0.00906 0.0
C868 C 0.24285 0.95163 0.97681 0.0
C869 C 0.26531 0.96175 0.98951 0.0
C870 C 0.23364 0.96212 0.95472 0.0
C871 C 0.21205 0.95045 0.93863 0.0
C872 C 0.21325 0.92518 0.92988 0.0
C873 C 0.19282 0.91414 0.91498 0.0
C874 C 0.17111 0.9282 0.90856 0.0
C875 C 0.16981 0.95335 0.917 0.0
C876 C 0.19018 0.96448 0.93193 0.0
C877 C 0.28161 0.05197 0.92643 0.0
C878 C 0.28292 0.07069 0.94654 0.0
C879 C 0.27755 0.02729 0.93139 0.0
C880 C 0.27425 0.021 0.95652 0.0
C881 C 0.27599 0.03981 0.97661 0.0
C882 C 0.28067 0.06436 0.97168 0.0
C883 C 0.2663 0.99543 0.96175 0.0
C884 C 0.24516 0.98414 0.94779 0.0
C885 C 0.2775 0.98326 0.98196 0.0
C886 C 0.30189 0.99255 0.99537 0.0
C887 C 0.30276 0.99599 0.02212 0.0
C888 C 0.32571 0.00488 0.03464 0.0
C889 C 0.34799 0.01031 0.02061 0.0
C890 C 0.34738 0.00682 0.99404 0.0
C891 C 0.32449 0.99793 0.98143 0.0
H892 H 0.36574 0.0172 0.03034 0.0
H893 H 0.1553 0.91962 0.89702 0.0
H894 H 0.55265 0.64868 0.4483 0.0
H895 H 0.50757 0.65444 0.4335 0.0
H896 H 0.5005 0.72053 0.4848 0.0
H897 H 0.54623 0.71525 0.49936 0.0
H898 H 0.45842 0.67911 0.48521 0.0
H899 H 0.50047 0.7341 0.43192 0.0
H900 H 0.53508 0.74691 0.40303 0.0
H901 H 0.51413 0.68663 0.34827 0.0
H902 H 0.47973 0.67316 0.37702 0.0
H903 H 0.32988 0.6786 0.43057 0.0
H904 H 0.37196 0.69511 0.44733 0.0
H905 H 0.41307 0.65062 0.38833 0.0
H906 H 0.37117 0.63549 0.37041 0.0
H907 H 0.43655 0.69307 0.39568 0.0
H908 H 0.40349 0.6327 0.45108 0.0
H909 H 0.37131 0.61577 0.48006 0.0
H910 H 0.37726 0.68222 0.53052 0.0
H911 H 0.40927 0.69965 0.50166 0.0
C912 C 0.54157 0.66451 0.45637 0.0
C913 C 0.55282 0.68148 0.47504 0.0
C914 C 0.51591 0.66783 0.44782 0.0
C915 C 0.50091 0.68793 0.45804 0.0
C916 C 0.51196 0.70498 0.47669 0.0
C917 C 0.53798 0.70197 0.48489 0.0
C918 C 0.47328 0.69 0.44966 0.0
C919 C 0.45337 0.68289 0.46588 0.0
C920 C 0.4671 0.69437 0.42428 0.0
C921 C 0.48757 0.70255 0.40672 0.0
C922 C 0.50337 0.72345 0.4138 0.0
C923 C 0.52295 0.73085 0.39744 0.0
C924 C 0.52683 0.71759 0.37384 0.0
C925 C 0.51112 0.6969 0.36655 0.0
C926 C 0.49155 0.68939 0.38287 0.0
C927 C 0.34783 0.6727 0.42083 0.0
C928 C 0.34708 0.65542 0.39928 0.0
C929 C 0.37192 0.68198 0.43063 0.0
C930 C 0.39574 0.67379 0.41938 0.0
C931 C 0.39498 0.65718 0.39743 0.0
C932 C 0.37096 0.64822 0.38741 0.0
C933 C 0.42162 0.68127 0.43096 0.0
C934 C 0.44127 0.69008 0.41528 0.0
C935 C 0.42768 0.67805 0.45676 0.0
C936 C 0.40847 0.66759 0.47407 0.0
C937 C 0.39777 0.64376 0.46827 0.0
C938 C 0.3796 0.63407 0.48468 0.0
C939 C 0.37217 0.64795 0.50707 0.0
C940 C 0.38297 0.67152 0.51314 0.0
C941 C 0.40113 0.68131 0.49677 0.0
H942 H 0.3581 0.64041 0.51975 0.0
H943 H 0.54195 0.72342 0.3612 0.0
H944 H 0.40909 0.39525 0.62042 0.0
H945 H 0.42156 0.42089 0.65892 0.0
H946 H 0.34528 0.40828 0.69137 0.0
H947 H 0.33246 0.38255 0.65277 0.0
H948 H 0.36114 0.4577 0.69755 0.0
H949 H 0.39617 0.37826 0.7113 0.0
H950 H 0.42093 0.34003 0.69935 0.0
H951 H 0.49242 0.38228 0.6955 0.0
H952 H 0.46789 0.42094 0.70665 0.0
H953 H 0.40091 0.51539 0.81781 0.0
H954 H 0.3845 0.4837 0.78556 0.0
H955 H 0.45915 0.48454 0.7467 0.0
H956 H 0.47567 0.51603 0.77886 0.0
H957 H 0.44103 0.4382 0.74674 0.0
H958 H 0.40591 0.51722 0.72735 0.0
H959 H 0.38146 0.55627 0.73637 0.0
H960 H 0.31097 0.51518 0.74957 0.0
H961 H 0.33512 0.47585 0.74097 0.0
C962 C 0.39488 0.3979 0.63567 0.0
C963 C 0.36976 0.38675 0.63347 0.0
C964 C 0.40211 0.4125 0.65773 0.0
C965 C 0.38444 0.41625 0.67808 0.0
C966 C 0.35922 0.40552 0.67588 0.0
C967 C 0.35198 0.39077 0.65383 0.0
C968 C 0.39244 0.43153 0.70154 0.0
C969 C 0.3783 0.45321 0.70863 0.0
C970 C 0.41513 0.42583 0.71564 0.0
C971 C 0.43012 0.40255 0.70963 0.0
C972 C 0.41714 0.37945 0.70775 0.0
C973 C 0.43115 0.35768 0.70113 0.0
C974 C 0.45826 0.3587 0.6967 0.0
C975 C 0.47142 0.38152 0.69893 0.0
C976 C 0.45746 0.40338 0.70538 0.0
C977 C 0.41384 0.50871 0.80244 0.0
C978 C 0.43954 0.51828 0.80081 0.0
C979 C 0.40446 0.49061 0.78405 0.0
C980 C 0.42048 0.482 0.76352 0.0
C981 C 0.44645 0.49087 0.76239 0.0
C982 C 0.45589 0.50884 0.78083 0.0
C983 C 0.40997 0.46462 0.74254 0.0
C984 C 0.42366 0.44253 0.7359 0.0
C985 C 0.38694 0.47 0.72873 0.0
C986 C 0.37239 0.49362 0.73382 0.0
C987 C 0.38525 0.51652 0.73237 0.0
C988 C 0.37144 0.5387 0.73738 0.0
C989 C 0.3447 0.53821 0.74362 0.0
C990 C 0.3317 0.51553 0.74479 0.0
C991 C 0.34543 0.49329 0.73984 0.0
H992 H 0.33404 0.5554 0.74748 0.0
H993 H 0.46908 0.34183 0.69153 0.0
H994 H 0.05106 0.77854 0.04382 0.0
H995 H 0.00584 0.77366 0.05942 0.0
H996 H 0.01167 0.84495 0.10237 0.0
H997 H 0.05632 0.85027 0.08647 0.0
H998 H 0.99089 0.80047 0.12887 0.0
H999 H 0.98183 0.84675 0.05213 0.0
H1000 H 0.98851 0.84953 0.00611 0.0
H1001 H 0.94499 0.78181 0.98953 0.0
H1002 H 0.93836 0.77849 0.03551 0.0
H1003 H 0.87456 0.85529 0.1699 0.0
H1004 H 0.91683 0.84317 0.15173 0.0
H1005 H 0.87795 0.79327 0.09503 0.0
H1006 H 0.83508 0.80703 0.11186 0.0
H1007 H 0.9145 0.81511 0.07292 0.0
H1008 H 0.91449 0.772 0.14664 0.0
H1009 H 0.90861 0.76444 0.19174 0.0
H1010 H 0.96918 0.81782 0.21355 0.0
H1011 H 0.97518 0.82601 0.16863 0.0
C1012 C 0.04267 0.79309 0.05665 0.0
C1013 C 0.05711 0.81484 0.06384 0.0
C1014 C 0.01693 0.79028 0.0655 0.0
C1015 C 0.00561 0.80894 0.08203 0.0
C1016 C 0.0202 0.83035 0.08966 0.0
C1017 C 0.0456 0.83341 0.08044 0.0
C1018 C 0.97825 0.80688 0.09102 0.0
C1019 C 0.97408 0.80364 0.11677 0.0
C1020 C 0.95645 0.80981 0.0748 0.0
C1021 C 0.95985 0.81223 0.04722 0.0
C1022 C 0.97384 0.83237 0.03867 0.0
C1023 C 0.97759 0.83406 0.0126 0.0
C1024 C 0.96726 0.81581 0.9949 0.0
C1025 C 0.95302 0.79591 0.00325 0.0
C1026 C 0.94924 0.79413 0.0293 0.0
C1027 C 0.8748 0.84197 0.15335 0.0
C1028 C 0.85122 0.83235 0.14228 0.0
C1029 C 0.89916 0.83464 0.14325 0.0
C1030 C 0.90074 0.81683 0.12232 0.0
C1031 C 0.8773 0.8069 0.11132 0.0
C1032 C 0.85277 0.81461 0.12115 0.0
C1033 C 0.92693 0.80985 0.11136 0.0
C1034 C 0.93101 0.81131 0.08515 0.0
C1035 C 0.94862 0.80455 0.12709 0.0
C1036 C 0.9452 0.79969 0.15421 0.0
C1037 C 0.92645 0.78225 0.16106 0.0
C1038 C 0.92311 0.77784 0.1866 0.0
C1039 C 0.9385 0.79066 0.2055 0.0
C1040 C 0.95729 0.8079 0.19889 0.0
C1041 C 0.9607 0.8124 0.17337 0.0
H1042 H 0.93588 0.78722 0.22526 0.0
H1043 H 0.97024 0.81711 0.97473 0.0
H1044 H 0.6618 0.57105 0.5217 0.0
H1045 H 0.68657 0.54093 0.5439 0.0
H1046 H 0.75614 0.58705 0.54296 0.0
H1047 H 0.7316 0.6169 0.51967 0.0
H1048 H 0.77011 0.54194 0.53332 0.0
H1049 H 0.71937 0.58298 0.59845 0.0
H1050 H 0.67989 0.60135 0.61955 0.0
H1051 H 0.64321 0.52953 0.61658 0.0
H1052 H 0.6823 0.51076 0.5951 0.0
H1053 H 0.78081 0.45135 0.64448 0.0
H1054 H 0.77101 0.49218 0.62997 0.0
H1055 H 0.7741 0.46079 0.55188 0.0
H1056 H 0.78508 0.42046 0.56636 0.0
H1057 H 0.73075 0.50616 0.60807 0.0
H1058 H 0.7867 0.50147 0.51058 0.0
H1059 H 0.82968 0.48723 0.49334 0.0
H1060 H 0.86307 0.49392 0.56865 0.0
H1061 H 0.82042 0.50855 0.58634 0.0
C1062 C 0.68236 0.57482 0.52624 0.0
C1063 C 0.69472 0.5964 0.51904 0.0
C1064 C 0.69649 0.55765 0.53909 0.0
C1065 C 0.72309 0.56197 0.54565 0.0
C1066 C 0.73561 0.58337 0.53821 0.0
C1067 C 0.72157 0.6004 0.52491 0.0
C1068 C 0.73775 0.54371 0.55975 0.0
C1069 C 0.76164 0.53423 0.54979 0.0
C1070 C 0.72731 0.53436 0.5819 0.0
C1071 C 0.70376 0.54548 0.59503 0.0
C1072 C 0.70283 0.57111 0.60216 0.0
C1073 C 0.68052 0.5816 0.6142 0.0
C1074 C 0.65905 0.56662 0.61938 0.0
C1075 C 0.65986 0.54111 0.61256 0.0
C1076 C 0.68212 0.53053 0.60049 0.0
C1077 C 0.77995 0.45343 0.62423 0.0
C1078 C 0.78382 0.4329 0.6065 0.0
C1079 C 0.77429 0.47669 0.61594 0.0
C1080 C 0.77203 0.47973 0.58979 0.0
C1081 C 0.77645 0.45923 0.57211 0.0
C1082 C 0.78261 0.43612 0.58038 0.0
C1083 C 0.76254 0.50352 0.58094 0.0
C1084 C 0.73957 0.51411 0.5919 0.0
C1085 C 0.77444 0.51452 0.56037 0.0
C1086 C 0.80027 0.50597 0.5498 0.0
C1087 C 0.80324 0.50006 0.52346 0.0
C1088 C 0.82755 0.49188 0.51361 0.0
C1089 C 0.84907 0.48962 0.52989 0.0
C1090 C 0.84636 0.4956 0.55607 0.0
C1091 C 0.82211 0.50381 0.56602 0.0
H1092 H 0.86786 0.48327 0.52223 0.0
H1093 H 0.64178 0.57478 0.62869 0.0
H1094 H 0.88336 0.1452 0.08702 0.0
H1095 H 0.8981 0.14424 0.13094 0.0
H1096 H 0.90738 0.22378 0.13739 0.0
H1097 H 0.89226 0.22503 0.0933 0.0
H1098 H 0.94458 0.15692 0.15095 0.0
H1099 H 0.89601 0.24479 0.20131 0.0
H1100 H 0.85643 0.27038 0.19631 0.0
H1101 H 0.81625 0.20767 0.15823 0.0
H1102 H 0.85512 0.18161 0.16376 0.0
H1103 H 0.00445 0.17597 0.2699 0.0
H1104 H 0.98518 0.18793 0.23034 0.0
H1105 H 0.90855 0.16412 0.25396 0.0
H1106 H 0.92747 0.1531 0.29426 0.0
H1107 H 0.90455 0.20414 0.2259 0.0
H1108 H 0.94654 0.12433 0.21921 0.0
H1109 H 0.98324 0.09528 0.22401 0.0
H1110 H 0.03097 0.13533 0.17421 0.0
H1111 H 0.99465 0.16486 0.16944 0.0
C1112 C 0.88835 0.16258 0.09774 0.0
C1113 C 0.88672 0.18521 0.08652 0.0
C1114 C 0.89686 0.16195 0.12287 0.0
C1115 C 0.9039 0.1839 0.13743 0.0
C1116 C 0.90184 0.20663 0.12655 0.0
C1117 C 0.89321 0.20729 0.10134 0.0
C1118 C 0.91415 0.18267 0.16372 0.0
C1119 C 0.93588 0.16736 0.16728 0.0
C1120 C 0.90256 0.196 0.18511 0.0
C1121 C 0.87865 0.21134 0.18264 0.0
C1122 C 0.87863 0.23644 0.19206 0.0
C1123 C 0.85628 0.25103 0.18918 0.0
C1124 C 0.83381 0.2407 0.17694 0.0
C1125 C 0.83358 0.2157 0.16775 0.0
C1126 C 0.85577 0.20101 0.17077 0.0
C1127 C 0.98334 0.17404 0.26717 0.0
C1128 C 0.96756 0.16325 0.28518 0.0
C1129 C 0.97239 0.18071 0.24439 0.0
C1130 C 0.94555 0.17644 0.239 0.0
C1131 C 0.92935 0.16743 0.25768 0.0
C1132 C 0.94026 0.1609 0.28058 0.0
C1133 C 0.9351 0.17859 0.21296 0.0
C1134 C 0.91338 0.19398 0.20946 0.0
C1135 C 0.94623 0.16484 0.1916 0.0
C1136 C 0.96799 0.14694 0.19418 0.0
C1137 C 0.96492 0.12703 0.20942 0.0
C1138 C 0.98564 0.11047 0.21212 0.0
C1139 C 0.00944 0.11349 0.19948 0.0
C1140 C 0.01254 0.13304 0.18403 0.0
C1141 C 0.99189 0.14969 0.18132 0.0
H1142 H 0.02547 0.10066 0.20159 0.0
H1143 H 0.81659 0.25205 0.17458 0.0
H1144 H 0.18784 0.8056 0.13888 0.0
H1145 H 0.18635 0.78631 0.17888 0.0
H1146 H 0.12999 0.73248 0.14656 0.0
H1147 H 0.13103 0.75189 0.10627 0.0
H1148 H 0.11764 0.74967 0.19632 0.0
H1149 H 0.19168 0.71545 0.15039 0.0
H1150 H 0.23264 0.71601 0.12543 0.0
H1151 H 0.27172 0.75738 0.18796 0.0
H1152 H 0.23085 0.75739 0.21318 0.0
H1153 H 0.15498 0.65701 0.28319 0.0
H1154 H 0.1403 0.68129 0.24861 0.0
H1155 H 0.18858 0.74273 0.27887 0.0
H1156 H 0.20291 0.71881 0.31368 0.0
H1157 H 0.20263 0.72031 0.22956 0.0
H1158 H 0.12724 0.75272 0.27595 0.0
H1159 H 0.08595 0.75033 0.30012 0.0
H1160 H 0.04916 0.70931 0.23605 0.0
H1161 H 0.09039 0.71113 0.2116 0.0
C1162 C 0.17509 0.78967 0.14015 0.0
C1163 C 0.15978 0.78014 0.11919 0.0
C1164 C 0.17423 0.7787 0.16309 0.0
C1165 C 0.15827 0.75784 0.16555 0.0
C1166 C 0.14244 0.74858 0.14498 0.0
C1167 C 0.14323 0.7596 0.12194 0.0
C1168 C 0.15926 0.74518 0.18931 0.0
C1169 C 0.13612 0.74293 0.20349 0.0
C1170 C 0.18345 0.73662 0.19866 0.0
C1171 C 0.20812 0.73662 0.18358 0.0
C1172 C 0.20894 0.72485 0.15874 0.0
C1173 C 0.23216 0.72503 0.14456 0.0
C1174 C 0.25475 0.73678 0.15508 0.0
C1175 C 0.25419 0.74832 0.17983 0.0
C1176 C 0.23101 0.74821 0.19408 0.0
C1177 C 0.16153 0.67607 0.28309 0.0
C1178 C 0.18042 0.68592 0.30082 0.0
C1179 C 0.15318 0.68988 0.26331 0.0
C1180 C 0.16362 0.71364 0.26114 0.0
C1181 C 0.18043 0.72436 0.28024 0.0
C1182 C 0.18864 0.71067 0.30003 0.0
C1183 C 0.16116 0.72531 0.23694 0.0
C1184 C 0.18412 0.72711 0.22248 0.0
C1185 C 0.13678 0.73307 0.22732 0.0
C1186 C 0.11203 0.7318 0.24204 0.0
C1187 C 0.11046 0.74294 0.26711 0.0
C1188 C 0.08703 0.74175 0.28084 0.0
C1189 C 0.06497 0.72961 0.26966 0.0
C1190 C 0.06628 0.71867 0.2447 0.0
C1191 C 0.08966 0.71979 0.23089 0.0
H1192 H 0.04685 0.72873 0.28031 0.0
H1193 H 0.27271 0.73689 0.14407 0.0
H1194 H 0.7501 0.68933 0.50852 0.0
H1195 H 0.78772 0.71292 0.52682 0.0
H1196 H 0.73572 0.77178 0.55503 0.0
H1197 H 0.69786 0.74844 0.53661 0.0
H1198 H 0.78039 0.789 0.53163 0.0
H1199 H 0.75883 0.7324 0.59477 0.0
H1200 H 0.75038 0.69117 0.60974 0.0
H1201 H 0.82813 0.66772 0.58675 0.0
H1202 H 0.83691 0.70873 0.57132 0.0
H1203 H 0.85294 0.85411 0.6306 0.0
H1204 H 0.82296 0.83194 0.60037 0.0
H1205 H 0.88109 0.77456 0.5852 0.0
H1206 H 0.91112 0.79661 0.61597 0.0
H1207 H 0.83667 0.755 0.59748 0.0
H1208 H 0.86053 0.8128 0.53856 0.0
H1209 H 0.86939 0.85375 0.52317 0.0
H1210 H 0.78883 0.87482 0.53695 0.0
H1211 H 0.77955 0.83412 0.55278 0.0
C1212 C 0.74657 0.70726 0.51865 0.0
C1213 C 0.72089 0.71695 0.52115 0.0
C1214 C 0.76813 0.7207 0.5291 0.0
C1215 C 0.76445 0.74403 0.54231 0.0
C1216 C 0.73893 0.75382 0.54481 0.0
C1217 C 0.71731 0.74037 0.53443 0.0
C1218 C 0.78719 0.75808 0.5539 0.0
C1219 C 0.79263 0.78173 0.54619 0.0
C1220 C 0.80361 0.74812 0.5722 0.0
C1221 C 0.79841 0.72353 0.58164 0.0
C1222 C 0.77404 0.71838 0.59272 0.0
C1223 C 0.76921 0.69507 0.60132 0.0
C1224 C 0.78868 0.67681 0.59913 0.0
C1225 C 0.81306 0.68186 0.5884 0.0
C1226 C 0.81797 0.70514 0.57974 0.0
C1227 C 0.85971 0.8372 0.6202 0.0
C1228 C 0.88434 0.82704 0.62567 0.0
C1229 C 0.84252 0.82451 0.60288 0.0
C1230 C 0.84978 0.8016 0.5904 0.0
C1231 C 0.87505 0.79217 0.59467 0.0
C1232 C 0.89218 0.80477 0.61219 0.0
C1233 C 0.82986 0.78625 0.57552 0.0
C1234 C 0.82482 0.76227 0.58265 0.0
C1235 C 0.81394 0.7959 0.55659 0.0
C1236 C 0.8194 0.82043 0.54703 0.0
C1237 C 0.84474 0.82622 0.5385 0.0
C1238 C 0.84983 0.84939 0.52966 0.0
C1239 C 0.8297 0.86689 0.52912 0.0
C1240 C 0.80441 0.86125 0.53738 0.0
C1241 C 0.79921 0.83811 0.54625 0.0
H1242 H 0.83368 0.88482 0.52228 0.0
H1243 H 0.7849 0.65877 0.60579 0.0
H1244 H 0.80429 0.25466 0.06511 0.0
H1245 H 0.76725 0.27474 0.08816 0.0
H1246 H 0.71256 0.23233 0.03873 0.0
H1247 H 0.74921 0.21237 0.01553 0.0
H1248 H 0.69916 0.28005 0.04372 0.0
H1249 H 0.72254 0.21813 0.09915 0.0
H1250 H 0.74974 0.19441 0.12736 0.0
H1251 H 0.76457 0.26063 0.17627 0.0
H1252 H 0.73781 0.28485 0.14813 0.0
H1253 H 0.5811 0.30177 0.11437 0.0
H1254 H 0.6193 0.28202 0.09312 0.0
H1255 H 0.67138 0.32948 0.14051 0.0
H1256 H 0.63336 0.34975 0.16146 0.0
H1257 H 0.68658 0.28019 0.13702 0.0
H1258 H 0.66155 0.3416 0.08078 0.0
H1259 H 0.63082 0.36333 0.05398 0.0
H1260 H 0.61705 0.29573 0.0069 0.0
H1261 H 0.64743 0.27351 0.03364 0.0
C1262 C 0.78439 0.24957 0.05916 0.0
C1263 C 0.77979 0.23193 0.03838 0.0
C1264 C 0.76324 0.26097 0.07245 0.0
C1265 C 0.73715 0.25492 0.06523 0.0
C1266 C 0.73253 0.2373 0.0446 0.0
C1267 C 0.75358 0.22587 0.03138 0.0
C1268 C 0.71455 0.26746 0.07856 0.0
C1269 C 0.69628 0.27984 0.06409 0.0
C1270 C 0.71107 0.26761 0.1052 0.0
C1271 C 0.72839 0.25336 0.12136 0.0
C1272 C 0.73194 0.22772 0.11569 0.0
C1273 C 0.7472 0.21416 0.13172 0.0
C1274 C 0.75885 0.22601 0.15359 0.0
C1275 C 0.75554 0.25149 0.15932 0.0
C1276 C 0.74034 0.26514 0.14333 0.0
C1277 C 0.60066 0.3082 0.12011 0.0
C1278 C 0.60413 0.32738 0.13962 0.0
C1279 C 0.62246 0.29683 0.10801 0.0
C1280 C 0.64813 0.30442 0.11515 0.0
C1281 C 0.65171 0.32331 0.13479 0.0
C1282 C 0.62994 0.33478 0.14681 0.0
C1283 C 0.67129 0.29263 0.10216 0.0
C1284 C 0.68963 0.28047 0.11668 0.0
C1285 C 0.67475 0.29248 0.07555 0.0
C1286 C 0.65658 0.30584 0.05936 0.0
C1287 C 0.65181 0.33132 0.06483 0.0
C1288 C 0.63448 0.34374 0.04963 0.0
C1289 C 0.62194 0.33091 0.02879 0.0
C1290 C 0.62675 0.30564 0.02306 0.0
C1291 C 0.64404 0.29313 0.03822 0.0
H1292 H 0.60853 0.34055 0.01704 0.0
H1293 H 0.77025 0.21542 0.16622 0.0
H1294 H 0.34261 0.30514 0.65781 0.0
H1295 H 0.34513 0.28443 0.697 0.0
H1296 H 0.36047 0.21479 0.65361 0.0
H1297 H 0.35831 0.2356 0.61394 0.0
H1298 H 0.31931 0.21314 0.68985 0.0
H1299 H 0.40864 0.23753 0.68734 0.0
H1300 H 0.44711 0.26465 0.68247 0.0
H1301 H 0.42149 0.31328 0.74615 0.0
H1302 H 0.3826 0.28667 0.75119 0.0
H1303 H 0.32789 0.16444 0.81188 0.0
H1304 H 0.34057 0.17399 0.76902 0.0
H1305 H 0.3325 0.25212 0.7914 0.0
H1306 H 0.31942 0.24278 0.83405 0.0
H1307 H 0.37707 0.24181 0.76288 0.0
H1308 H 0.28378 0.22074 0.75945 0.0
H1309 H 0.24555 0.1933 0.76441 0.0
H1310 H 0.27949 0.13793 0.71124 0.0
H1311 H 0.31812 0.16494 0.70624 0.0
C1312 C 0.34664 0.28543 0.65653 0.0
C1313 C 0.35009 0.27194 0.63279 0.0
C1314 C 0.34828 0.27367 0.67897 0.0
C1315 C 0.35318 0.24815 0.67817 0.0
C1316 C 0.35681 0.23455 0.65455 0.0
C1317 C 0.3556 0.24644 0.63198 0.0
C1318 C 0.35272 0.23584 0.70216 0.0
C1319 C 0.33238 0.21887 0.70565 0.0
C1320 C 0.36955 0.24366 0.72279 0.0
C1321 C 0.3926 0.26011 0.71957 0.0
C1322 C 0.41104 0.25413 0.70016 0.0
C1323 C 0.43297 0.26938 0.69742 0.0
C1324 C 0.43677 0.29062 0.71404 0.0
C1325 C 0.41856 0.29675 0.73336 0.0
C1326 C 0.39658 0.28158 0.73617 0.0
C1327 C 0.32874 0.18365 0.80765 0.0
C1328 C 0.32251 0.20285 0.82636 0.0
C1329 C 0.33611 0.18906 0.7832 0.0
C1330 C 0.33731 0.21374 0.77703 0.0
C1331 C 0.33182 0.23294 0.79583 0.0
C1332 C 0.32441 0.22757 0.82023 0.0
C1333 C 0.34315 0.21978 0.75076 0.0
C1334 C 0.36444 0.23562 0.7469 0.0
C1335 C 0.32721 0.2109 0.72978 0.0
C1336 C 0.30397 0.19471 0.73273 0.0
C1337 C 0.28319 0.20263 0.74899 0.0
C1338 C 0.26143 0.18717 0.75177 0.0
C1339 C 0.26013 0.16385 0.73821 0.0
C1340 C 0.28056 0.15597 0.72178 0.0
C1341 C 0.30238 0.17134 0.71896 0.0
H1342 H 0.24327 0.15191 0.74039 0.0
H1343 H 0.45384 0.30232 0.71197 0.0
H1344 H 0.613 0.72759 0.4254 0.0
H1345 H 0.60948 0.7454 0.38415 0.0
H1346 H 0.69206 0.73099 0.3706 0.0
H1347 H 0.69556 0.71269 0.41133 0.0
H1348 H 0.67433 0.77964 0.36058 0.0
H1349 H 0.65193 0.69312 0.34619 0.0
H1350 H 0.62589 0.65582 0.35304 0.0
H1351 H 0.55695 0.68917 0.32324 0.0
H1352 H 0.58214 0.72738 0.31777 0.0
H1353 H 0.69 0.76276 0.22314 0.0
H1354 H 0.6721 0.74302 0.25943 0.0
H1355 H 0.63197 0.81077 0.28453 0.0
H1356 H 0.65004 0.83071 0.24858 0.0
H1357 H 0.6237 0.73633 0.28894 0.0
H1358 H 0.65813 0.82648 0.34294 0.0
H1359 H 0.68566 0.86299 0.33593 0.0
H1360 H 0.7345 0.81799 0.28429 0.0
H1361 H 0.70761 0.78119 0.29144 0.0
C1362 C 0.63043 0.72854 0.41371 0.0
C1363 C 0.65457 0.71881 0.42147 0.0
C1364 C 0.62835 0.73855 0.39018 0.0
C1365 C 0.65049 0.73933 0.37443 0.0
C1366 C 0.67478 0.73048 0.38258 0.0
C1367 C 0.67674 0.72002 0.40576 0.0
C1368 C 0.64858 0.74892 0.34911 0.0
C1369 C 0.66296 0.77034 0.34505 0.0
C1370 C 0.634 0.73649 0.32882 0.0
C1371 C 0.61887 0.71339 0.33202 0.0
C1372 C 0.6311 0.69277 0.34158 0.0
C1373 C 0.61647 0.67142 0.34521 0.0
C1374 C 0.58976 0.67014 0.33864 0.0
C1375 C 0.5776 0.69025 0.3285 0.0
C1376 C 0.59201 0.71183 0.32529 0.0
C1377 C 0.67652 0.77312 0.23585 0.0
C1378 C 0.67187 0.79841 0.23338 0.0
C1379 C 0.66611 0.76175 0.25643 0.0
C1380 C 0.65111 0.77561 0.27481 0.0
C1381 C 0.64359 0.79984 0.27052 0.0
C1382 C 0.65393 0.8112 0.24993 0.0
C1383 C 0.64916 0.76717 0.30067 0.0
C1384 C 0.63439 0.74592 0.30475 0.0
C1385 C 0.66367 0.77944 0.32105 0.0
C1386 C 0.68068 0.80121 0.3175 0.0
C1387 C 0.67485 0.82439 0.33023 0.0
C1388 C 0.69034 0.84512 0.32623 0.0
C1389 C 0.71176 0.84283 0.30961 0.0
C1390 C 0.71788 0.81976 0.29711 0.0
C1391 C 0.70253 0.79897 0.30115 0.0
H1392 H 0.72366 0.85892 0.30646 0.0
H1393 H 0.57852 0.65353 0.34132 0.0
H1394 H 0.83151 0.20617 0.90877 0.0
H1395 H 0.83441 0.22771 0.87024 0.0
H1396 H 0.85516 0.29555 0.91488 0.0
H1397 H 0.85268 0.27386 0.95403 0.0
H1398 H 0.81363 0.2992 0.87639 0.0
H1399 H 0.9013 0.27166 0.88405 0.0
H1400 H 0.93714 0.24255 0.89174 0.0
H1401 H 0.91304 0.19543 0.82603 0.0
H1402 H 0.87647 0.22382 0.81834 0.0
H1403 H 0.82916 0.34543 0.75348 0.0
H1404 H 0.83983 0.33671 0.79719 0.0
H1405 H 0.82941 0.25844 0.77647 0.0
H1406 H 0.81822 0.26695 0.73303 0.0
H1407 H 0.87347 0.26841 0.80651 0.0
H1408 H 0.78087 0.29161 0.80544 0.0
H1409 H 0.744 0.31985 0.7983 0.0
H1410 H 0.7781 0.37524 0.85198 0.0
H1411 H 0.81538 0.34741 0.85916 0.0
C1412 C 0.83662 0.2257 0.91055 0.0
C1413 C 0.84177 0.23835 0.9345 0.0
C1414 C 0.83842 0.23793 0.88845 0.0
C1415 C 0.8452 0.26311 0.88976 0.0
C1416 C 0.85002 0.27604 0.91358 0.0
C1417 C 0.84863 0.26365 0.93584 0.0
C1418 C 0.84655 0.27555 0.86591 0.0
C1419 C 0.82718 0.29304 0.8613 0.0
C1420 C 0.86405 0.26716 0.84623 0.0
C1421 C 0.88596 0.24984 0.85073 0.0
C1422 C 0.9034 0.25494 0.87139 0.0
C1423 C 0.92386 0.23855 0.87575 0.0
C1424 C 0.92727 0.21708 0.85944 0.0
C1425 C 0.91025 0.21198 0.83872 0.0
C1426 C 0.88965 0.22823 0.83435 0.0
C1427 C 0.82905 0.32637 0.75825 0.0
C1428 C 0.82273 0.30689 0.73974 0.0
C1429 C 0.83529 0.32143 0.78319 0.0
C1430 C 0.83531 0.29695 0.79005 0.0
C1431 C 0.82969 0.27746 0.77151 0.0
C1432 C 0.82336 0.28237 0.74665 0.0
C1433 C 0.83996 0.2914 0.81674 0.0
C1434 C 0.86043 0.27513 0.82182 0.0
C1435 C 0.82348 0.30091 0.83685 0.0
C1436 C 0.80106 0.31758 0.83257 0.0
C1437 C 0.78061 0.3099 0.81554 0.0
C1438 C 0.75962 0.3258 0.81152 0.0
C1439 C 0.75876 0.34936 0.82461 0.0
C1440 C 0.77884 0.35702 0.84181 0.0
C1441 C 0.79989 0.34119 0.84586 0.0
H1442 H 0.74248 0.36165 0.82148 0.0
H1443 H 0.94315 0.20444 0.8628 0.0
H1444 H 0.3048 0.24206 0.514 0.0
H1445 H 0.26811 0.22084 0.49126 0.0
H1446 H 0.21445 0.27641 0.52375 0.0
H1447 H 0.25101 0.29762 0.54704 0.0
H1448 H 0.19334 0.23076 0.52383 0.0
H1449 H 0.23618 0.27787 0.46342 0.0
H1450 H 0.27424 0.29258 0.44002 0.0
H1451 H 0.28776 0.2186 0.40648 0.0
H1452 H 0.25011 0.20331 0.43026 0.0
H1453 H 0.08872 0.19709 0.43639 0.0
H1454 H 0.12333 0.22023 0.4608 0.0
H1455 H 0.18087 0.16649 0.43211 0.0
H1456 H 0.14641 0.14322 0.40778 0.0
H1457 H 0.19885 0.21326 0.43002 0.0
H1458 H 0.15689 0.16619 0.49236 0.0
H1459 H 0.11927 0.15182 0.51676 0.0
H1460 H 0.10369 0.22674 0.54627 0.0
H1461 H 0.14103 0.2416 0.52176 0.0
C1462 C 0.28521 0.2498 0.51641 0.0
C1463 C 0.28093 0.27168 0.53225 0.0
C1464 C 0.26425 0.23765 0.50332 0.0
C1465 C 0.23861 0.24726 0.50549 0.0
C1466 C 0.2341 0.26872 0.52175 0.0
C1467 C 0.25505 0.28084 0.535 0.0
C1468 C 0.21665 0.23508 0.49043 0.0
C1469 C 0.19436 0.22725 0.50328 0.0
C1470 C 0.21817 0.2302 0.46364 0.0
C1471 C 0.24045 0.23941 0.44881 0.0
C1472 C 0.24736 0.2647 0.45118 0.0
C1473 C 0.26887 0.27314 0.43784 0.0
C1474 C 0.28345 0.25653 0.42176 0.0
C1475 C 0.27647 0.23144 0.41896 0.0
C1476 C 0.25505 0.22287 0.43238 0.0
C1477 C 0.10871 0.1901 0.43545 0.0
C1478 C 0.11481 0.16829 0.42017 0.0
C1479 C 0.12847 0.20336 0.44937 0.0
C1480 C 0.15464 0.19496 0.44844 0.0
C1481 C 0.16082 0.17334 0.43304 0.0
C1482 C 0.14111 0.16011 0.41909 0.0
C1483 C 0.17569 0.20866 0.46345 0.0
C1484 C 0.1978 0.21684 0.45056 0.0
C1485 C 0.17393 0.21396 0.49017 0.0
C1486 C 0.15158 0.20503 0.50502 0.0
C1487 C 0.14532 0.17962 0.5039 0.0
C1488 C 0.12407 0.17139 0.51778 0.0
C1489 C 0.10906 0.18837 0.533 0.0
C1490 C 0.11531 0.21362 0.53444 0.0
C1491 C 0.13653 0.22195 0.52058 0.0
H1492 H 0.09261 0.18196 0.54373 0.0
H1493 H 0.30013 0.26309 0.41146 0.0
H1494 H 0.25257 0.80632 0.02419 0.0
H1495 H 0.28886 0.78332 0.00313 0.0
H1496 H 0.23696 0.72109 0.98424 0.0
H1497 H 0.20049 0.74387 0.00532 0.0
H1498 H 0.28464 0.7072 0.00392 0.0
H1499 H 0.25345 0.75723 0.93922 0.0
H1500 H 0.24043 0.79613 0.92151 0.0
H1501 H 0.31853 0.82545 0.93503 0.0
H1502 H 0.33192 0.78683 0.95317 0.0
H1503 H 0.3651 0.63952 0.91317 0.0
H1504 H 0.32914 0.66288 0.93435 0.0
H1505 H 0.381 0.7257 0.95025 0.0
H1506 H 0.41722 0.70235 0.92929 0.0
H1507 H 0.33354 0.73957 0.93236 0.0
H1508 H 0.36491 0.68971 0.99691 0.0
H1509 H 0.37802 0.65108 0.0151 0.0
H1510 H 0.29983 0.62171 0.00244 0.0
H1511 H 0.28635 0.66005 0.98381 0.0
C1512 C 0.24881 0.78774 0.01558 0.0
C1513 C 0.22356 0.77697 0.01644 0.0
C1514 C 0.26958 0.77467 0.00346 0.0
C1515 C 0.26553 0.75058 0.99198 0.0
C1516 C 0.24046 0.73967 0.99298 0.0
C1517 C 0.21963 0.75278 0.00495 0.0
C1518 C 0.28752 0.73669 0.97911 0.0
C1519 C 0.29512 0.71409 0.98805 0.0
C1520 C 0.30156 0.74605 0.95884 0.0
C1521 C 0.29361 0.76923 0.9478 0.0
C1522 C 0.26779 0.77205 0.93861 0.0
C1523 C 0.26036 0.79403 0.92846 0.0
C1524 C 0.27862 0.81328 0.92721 0.0
C1525 C 0.30439 0.81054 0.93604 0.0
C1526 C 0.31192 0.7886 0.94625 0.0
C1527 C 0.36897 0.6582 0.92142 0.0
C1528 C 0.39409 0.66902 0.91965 0.0
C1529 C 0.34836 0.67156 0.93346 0.0
C1530 C 0.35247 0.69594 0.94409 0.0
C1531 C 0.37741 0.70691 0.94213 0.0
C1532 C 0.39805 0.69356 0.93009 0.0
C1533 C 0.33066 0.71002 0.95714 0.0
C1534 C 0.32309 0.73267 0.94824 0.0
C1535 C 0.31667 0.70073 0.9775 0.0
C1536 C 0.3247 0.67766 0.98873 0.0
C1537 C 0.35057 0.67494 0.9978 0.0
C1538 C 0.35805 0.65311 0.00823 0.0
C1539 C 0.33978 0.63393 0.00986 0.0
C1540 C 0.31397 0.63657 0.00112 0.0
C1541 C 0.30639 0.65835 0.99065 0.0
H1542 H 0.34562 0.61705 0.01795 0.0
H1543 H 0.27282 0.83028 0.91934 0.0
loop_
_geom_bond_atom_site_label_1
_geom_bond_atom_site_label_2
_geom_bond_distance
_geom_bond_site_symmetry_2
_ccdc_geom_bond_type
Sc0 O3 2.025 . S
Sc0 O10 2.105 . S
Sc0 O13 2.105 . S
Sc0 O16 2.105 . S
Sc0 O19 2.105 . S
Sc1 O3 2.025 . S
Sc1 O11 2.105 . S
Sc1 O15 2.105 . S
Sc1 O17 2.105 . S
Sc1 O21 2.105 . S
Sc2 O3 2.025 . S
Sc2 O12 2.105 . S
Sc2 O14 2.105 . S
Sc2 O18 2.105 . S
Sc2 O20 2.105 . S
O3 Sc0 2.025 . S
O3 Sc1 2.025 . S
O3 Sc2 2.025 . S
C4 O10 1.268 . S
C4 O20 1.268 . S
C5 O11 1.268 1_556 S
C5 O19 1.268 1_556 S
C6 O12 1.268 . S
C6 O21 1.268 . S
C7 O13 1.268 . S
C7 O17 1.268 . S
C8 O14 1.268 . S
C8 O16 1.268 . S
C9 O15 1.268 . S
C9 O18 1.268 . S
O10 Sc0 2.105 . S
O10 C4 1.268 . S
O11 Sc1 2.105 . S
O11 C5 1.268 1_554 S
O12 Sc2 2.105 . S
O12 C6 1.268 . S
O13 Sc0 2.105 . S
O13 C7 1.268 . S
O14 Sc2 2.105 . S
O14 C8 1.268 . S
O15 Sc1 2.105 . S
O15 C9 1.268 . S
O16 Sc0 2.105 . S
O16 C8 1.268 . S
O17 Sc1 2.105 . S
O17 C7 1.268 . S
O18 Sc2 2.105 . S
O18 C9 1.268 . S
O19 Sc0 2.105 . S
O19 C5 1.268 1_554 S
O20 Sc2 2.105 . S
O20 C4 1.268 . S
O21 Sc1 2.105 . S
O21 C6 1.268 . S
Sc22 O25 2.025 . S
Sc22 O32 2.105 . S
Sc22 O35 2.105 . S
Sc22 O38 2.105 . S
Sc22 O41 2.105 . S
Sc23 O25 2.025 . S
Sc23 O33 2.105 . S
Sc23 O37 2.105 . S
Sc23 O39 2.105 . S
Sc23 O43 2.105 . S
Sc24 O25 2.025 . S
Sc24 O34 2.105 . S
Sc24 O36 2.105 . S
Sc24 O40 2.105 . S
Sc24 O42 2.105 . S
O25 Sc22 2.025 . S
O25 Sc23 2.025 . S
O25 Sc24 2.025 . S
C26 O32 1.268 . S
C26 O42 1.268 . S
C27 O33 1.268 . S
C27 O41 1.268 . S
C28 O34 1.268 . S
C28 O43 1.268 . S
C29 O35 1.268 . S
C29 O39 1.268 . S
C30 O36 1.268 . S
C30 O38 1.268 . S
C31 O37 1.268 . S
C31 O40 1.268 . S
O32 Sc22 2.105 . S
O32 C26 1.268 . S
O33 Sc23 2.105 . S
O33 C27 1.268 . S
O34 Sc24 2.105 . S
O34 C28 1.268 . S
O35 Sc22 2.105 . S
O35 C29 1.268 . S
O36 Sc24 2.105 . S
O36 C30 1.268 . S
O37 Sc23 2.105 . S
O37 C31 1.268 . S
O38 Sc22 2.105 . S
O38 C30 1.268 . S
O39 Sc23 2.105 . S
O39 C29 1.268 . S
O40 Sc24 2.105 . S
O40 C31 1.268 . S
O41 Sc22 2.105 . S
O41 C27 1.268 . S
O42 Sc24 2.105 . S
O42 C26 1.268 . S
O43 Sc23 2.105 . S
O43 C28 1.268 . S
Sc44 O47 2.025 . S
Sc44 O54 2.105 1_554 S
Sc44 O57 2.105 . S
Sc44 O60 2.105 . S
Sc44 O63 2.105 1_554 S
Sc45 O47 2.025 1_556 S
Sc45 O55 2.105 . S
Sc45 O59 2.105 1_556 S
Sc45 O61 2.105 1_556 S
Sc45 O65 2.105 . S
Sc46 O47 2.025 . S
Sc46 O56 2.105 1_554 S
Sc46 O58 2.105 . S
Sc46 O62 2.105 . S
Sc46 O64 2.105 1_554 S
O47 Sc44 2.025 . S
O47 Sc45 2.025 1_554 S
O47 Sc46 2.025 . S
C48 O54 1.268 . S
C48 O64 1.268 . S
C49 O55 1.268 . S
C49 O63 1.268 . S
C50 O56 1.268 . S
C50 O65 1.268 . S
C51 O57 1.268 . S
C51 O61 1.268 . S
C52 O58 1.268 . S
C52 O60 1.268 . S
C53 O59 1.268 . S
C53 O62 1.268 . S
O54 Sc44 2.105 1_556 S
O54 C48 1.268 . S
O55 Sc45 2.105 . S
O55 C49 1.268 . S
O56 Sc46 2.105 1_556 S
O56 C50 1.268 . S
O57 Sc44 2.105 . S
O57 C51 1.268 . S
O58 Sc46 2.105 . S
O58 C52 1.268 . S
O59 Sc45 2.105 1_554 S
O59 C53 1.268 . S
O60 Sc44 2.105 . S
O60 C52 1.268 . S
O61 Sc45 2.105 1_554 S
O61 C51 1.268 . S
O62 Sc46 2.105 . S
O62 C53 1.268 . S
O63 Sc44 2.105 1_556 S
O63 C49 1.268 . S
O64 Sc46 2.105 1_556 S
O64 C48 1.268 . S
O65 Sc45 2.105 . S
O65 C50 1.268 . S
Sc66 O69 2.025 . S
Sc66 O76 2.105 . S
Sc66 O79 2.105 . S
Sc66 O82 2.105 . S
Sc66 O85 2.105 . S
Sc67 O69 2.025 . S
Sc67 O77 2.105 . S
Sc67 O81 2.105 . S
Sc67 O83 2.105 . S
Sc67 O87 2.105 . S
Sc68 O69 2.025 . S
Sc68 O78 2.105 . S
Sc68 O80 2.105 . S
Sc68 O84 2.105 . S
Sc68 O86 2.105 . S
O69 Sc66 2.025 . S
O69 Sc67 2.025 . S
O69 Sc68 2.025 . S
C70 O76 1.268 . S
C70 O86 1.268 . S
C71 O77 1.268 . S
C71 O85 1.268 . S
C72 O78 1.268 . S
C72 O87 1.268 . S
C73 O79 1.268 . S
C73 O83 1.268 . S
C74 O80 1.268 . S
C74 O82 1.268 . S
C75 O81 1.268 . S
C75 O84 1.268 . S
O76 Sc66 2.105 . S
O76 C70 1.268 . S
O77 Sc67 2.105 . S
O77 C71 1.268 . S
O78 Sc68 2.105 . S
O78 C72 1.268 . S
O79 Sc66 2.105 . S
O79 C73 1.268 . S
O80 Sc68 2.105 . S
O80 C74 1.268 . S
O81 Sc67 2.105 . S
O81 C75 1.268 . S
O82 Sc66 2.105 . S
O82 C74 1.268 . S
O83 Sc67 2.105 . S
O83 C73 1.268 . S
O84 Sc68 2.105 . S
O84 C75 1.268 . S
O85 Sc66 2.105 . S
O85 C71 1.268 . S
O86 Sc68 2.105 . S
O86 C70 1.268 . S
O87 Sc67 2.105 . S
O87 C72 1.268 . S
P88 O99 1.490 . S
P88 C102 1.812 . S
P88 C108 1.803 . S
P88 C114 1.819 . S
H89 C103 0.941 . S
H90 C104 0.939 . S
H91 C106 0.940 . S
H92 C107 0.940 . S
H93 C109 0.939 . S
H94 C110 0.942 . S
H95 C112 0.940 . S
H96 C113 0.939 . S
H97 C115 0.941 1_655 S
H98 C119 0.939 . S
O99 P88 1.490 . S
H100 C116 0.939 . S
H101 C118 0.940 . S
C102 P88 1.812 . S
C102 C103 1.389 . S
C102 C107 1.391 . S
C103 H89 0.941 . S
C103 C102 1.389 . S
C103 C104 1.397 . S
C104 H90 0.939 . S
C104 C103 1.397 . S
C104 C105 1.378 . S
C105 C104 1.378 . S
C105 C106 1.378 . S
C106 H91 0.940 . S
C106 C105 1.378 . S
C106 C107 1.396 . S
C107 H92 0.940 . S
C107 C102 1.391 . S
C107 C106 1.396 . S
C108 P88 1.803 . S
C108 C109 1.378 . S
C108 C113 1.400 . S
C109 H93 0.939 . S
C109 C108 1.378 . S
C109 C110 1.361 . S
C110 H94 0.942 . S
C110 C109 1.361 . S
C110 C111 1.369 . S
C111 C110 1.369 . S
C111 C112 1.404 . S
C112 H95 0.940 . S
C112 C111 1.404 . S
C112 C113 1.389 . S
C113 H96 0.939 . S
C113 C108 1.400 . S
C113 C112 1.389 . S
C114 P88 1.819 . S
C114 C115 1.391 . S
C114 C119 1.391 . S
C115 H97 0.941 1_455 S
C115 C114 1.391 . S
C115 C116 1.396 1_455 S
C116 H100 0.939 . S
C116 C115 1.396 1_655 S
C116 C117 1.397 . S
C117 C116 1.397 . S
C117 C118 1.385 1_655 S
C118 H101 0.940 . S
C118 C117 1.385 1_455 S
C118 C119 1.388 . S
C119 H98 0.939 . S
C119 C114 1.391 . S
C119 C118 1.388 . S
P120 O131 1.490 . S
P120 C134 1.812 . S
P120 C140 1.803 . S
P120 C146 1.819 . S
H121 C135 0.941 . S
H122 C136 0.939 . S
H123 C138 0.940 . S
H124 C139 0.940 . S
H125 C141 0.939 . S
H126 C142 0.942 . S
H127 C144 0.940 . S
H128 C145 0.939 . S
H129 C147 0.941 . S
H130 C151 0.939 . S
O131 P120 1.490 . S
H132 C148 0.939 . S
H133 C150 0.940 . S
C134 P120 1.812 . S
C134 C135 1.389 . S
C134 C139 1.391 . S
C135 H121 0.941 . S
C135 C134 1.389 . S
C135 C136 1.397 . S
C136 H122 0.939 . S
C136 C135 1.397 . S
C136 C137 1.378 . S
C137 C136 1.378 . S
C137 C138 1.378 . S
C138 H123 0.940 . S
C138 C137 1.378 . S
C138 C139 1.396 . S
C139 H124 0.940 . S
C139 C134 1.391 . S
C139 C138 1.396 . S
C140 P120 1.803 . S
C140 C141 1.378 . S
C140 C145 1.400 . S
C141 H125 0.939 . S
C141 C140 1.378 . S
C141 C142 1.361 . S
C142 H126 0.942 . S
C142 C141 1.361 . S
C142 C143 1.369 . S
C143 C142 1.369 . S
C143 C144 1.404 . S
C144 H127 0.940 . S
C144 C143 1.404 . S
C144 C145 1.389 . S
C145 H128 0.939 . S
C145 C140 1.400 . S
C145 C144 1.389 . S
C146 P120 1.819 . S
C146 C147 1.391 . S
C146 C151 1.391 . S
C147 H129 0.941 . S
C147 C146 1.391 . S
C147 C148 1.396 . S
C148 H132 0.939 . S
C148 C147 1.396 . S
C148 C149 1.397 . S
C149 C148 1.397 . S
C149 C150 1.385 . S
C150 H133 0.940 . S
C150 C149 1.385 . S
C150 C151 1.388 . S
C151 H130 0.939 . S
C151 C146 1.391 . S
C151 C150 1.388 . S
P152 O163 1.490 . S
P152 C166 1.812 . S
P152 C172 1.803 . S
P152 C178 1.819 . S
H153 C167 0.941 . S
H154 C168 0.939 . S
H155 C170 0.940 . S
H156 C171 0.940 . S
H157 C173 0.939 . S
H158 C174 0.942 . S
H159 C176 0.940 . S
H160 C177 0.939 . S
H161 C179 0.941 . S
H162 C183 0.939 . S
O163 P152 1.490 . S
H164 C180 0.939 . S
H165 C182 0.940 . S
C166 P152 1.812 . S
C166 C167 1.389 . S
C166 C171 1.391 . S
C167 H153 0.941 . S
C167 C166 1.389 . S
C167 C168 1.397 . S
C168 H154 0.939 . S
C168 C167 1.397 . S
C168 C169 1.378 . S
C169 C168 1.378 . S
C169 C170 1.378 . S
C170 H155 0.940 . S
C170 C169 1.378 . S
C170 C171 1.396 . S
C171 H156 0.940 . S
C171 C166 1.391 . S
C171 C170 1.396 . S
C172 P152 1.803 . S
C172 C173 1.378 . S
C172 C177 1.400 . S
C173 H157 0.939 . S
C173 C172 1.378 . S
C173 C174 1.361 . S
C174 H158 0.942 . S
C174 C173 1.361 . S
C174 C175 1.369 . S
C175 C174 1.369 . S
C175 C176 1.404 . S
C176 H159 0.940 . S
C176 C175 1.404 . S
C176 C177 1.389 . S
C177 H160 0.939 . S
C177 C172 1.400 . S
C177 C176 1.389 . S
C178 P152 1.819 . S
C178 C179 1.391 . S
C178 C183 1.391 . S
C179 H161 0.941 . S
C179 C178 1.391 . S
C179 C180 1.396 . S
C180 H164 0.939 . S
C180 C179 1.396 . S
C180 C181 1.397 . S
C181 C180 1.397 . S
C181 C182 1.385 . S
C182 H165 0.940 . S
C182 C181 1.385 . S
C182 C183 1.388 . S
C183 H162 0.939 . S
C183 C178 1.391 . S
C183 C182 1.388 . S
P184 O195 1.490 . S
P184 C198 1.812 . S
P184 C204 1.803 . S
P184 C210 1.819 . S
H185 C199 0.941 . S
H186 C200 0.939 . S
H187 C202 0.940 . S
H188 C203 0.940 . S
H189 C205 0.939 . S
H190 C206 0.942 . S
H191 C208 0.940 . S
H192 C209 0.939 . S
H193 C211 0.941 . S
H194 C215 0.939 . S
O195 P184 1.490 . S
H196 C212 0.939 . S
H197 C214 0.940 . S
C198 P184 1.812 . S
C198 C199 1.389 . S
C198 C203 1.391 . S
C199 H185 0.941 . S
C199 C198 1.389 . S
C199 C200 1.397 . S
C200 H186 0.939 . S
C200 C199 1.397 . S
C200 C201 1.378 . S
C201 C200 1.378 . S
C201 C202 1.378 . S
C202 H187 0.940 . S
C202 C201 1.378 . S
C202 C203 1.396 . S
C203 H188 0.940 . S
C203 C198 1.391 . S
C203 C202 1.396 . S
C204 P184 1.803 . S
C204 C205 1.378 . S
C204 C209 1.400 . S
C205 H189 0.939 . S
C205 C204 1.378 . S
C205 C206 1.361 . S
C206 H190 0.942 . S
C206 C205 1.361 . S
C206 C207 1.369 . S
C207 C206 1.369 . S
C207 C208 1.404 . S
C208 H191 0.940 . S
C208 C207 1.404 . S
C208 C209 1.389 . S
C209 H192 0.939 . S
C209 C204 1.400 . S
C209 C208 1.389 . S
C210 P184 1.819 . S
C210 C211 1.391 . S
C210 C215 1.391 . S
C211 H193 0.941 . S
C211 C210 1.391 . S
C211 C212 1.396 . S
C212 H196 0.939 . S
C212 C211 1.396 . S
C212 C213 1.397 . S
C213 C212 1.397 . S
C213 C214 1.385 . S
C214 H197 0.940 . S
C214 C213 1.385 . S
C214 C215 1.388 . S
C215 H194 0.939 . S
C215 C210 1.391 . S
C215 C214 1.388 . S
P216 O227 1.490 . S
P216 C230 1.812 . S
P216 C236 1.803 . S
P216 C242 1.819 . S
H217 C231 0.941 . S
H218 C232 0.939 . S
H219 C234 0.940 . S
H220 C235 0.940 . S
H221 C237 0.939 . S
H222 C238 0.942 . S
H223 C240 0.940 . S
H224 C241 0.939 . S
H225 C243 0.941 . S
H226 C247 0.939 . S
O227 P216 1.490 . S
H228 C244 0.939 . S
H229 C246 0.940 . S
C230 P216 1.812 . S
C230 C231 1.389 . S
C230 C235 1.391 . S
C231 H217 0.941 . S
C231 C230 1.389 . S
C231 C232 1.397 . S
C232 H218 0.939 . S
C232 C231 1.397 . S
C232 C233 1.378 . S
C233 C232 1.378 . S
C233 C234 1.378 . S
C234 H219 0.940 . S
C234 C233 1.378 . S
C234 C235 1.396 . S
C235 H220 0.940 . S
C235 C230 1.391 . S
C235 C234 1.396 . S
C236 P216 1.803 . S
C236 C237 1.378 . S
C236 C241 1.400 . S
C237 H221 0.939 . S
C237 C236 1.378 . S
C237 C238 1.361 . S
C238 H222 0.942 . S
C238 C237 1.361 . S
C238 C239 1.369 . S
C239 C238 1.369 . S
C239 C240 1.404 . S
C240 H223 0.940 . S
C240 C239 1.404 . S
C240 C241 1.389 . S
C241 H224 0.939 . S
C241 C236 1.400 . S
C241 C240 1.389 . S
C242 P216 1.819 . S
C242 C243 1.391 . S
C242 C247 1.391 . S
C243 H225 0.941 . S
C243 C242 1.391 . S
C243 C244 1.396 . S
C244 H228 0.939 . S
C244 C243 1.396 . S
C244 C245 1.397 . S
C245 C244 1.397 . S
C245 C246 1.385 . S
C246 H229 0.940 . S
C246 C245 1.385 . S
C246 C247 1.388 . S
C247 H226 0.939 . S
C247 C242 1.391 . S
C247 C246 1.388 . S
P248 O259 1.490 . S
P248 C262 1.812 . S
P248 C268 1.803 . S
P248 C274 1.819 . S
H249 C263 0.941 . S
H250 C264 0.939 . S
H251 C266 0.940 . S
H252 C267 0.940 . S
H253 C269 0.939 . S
H254 C270 0.942 . S
H255 C272 0.940 . S
H256 C273 0.939 . S
H257 C275 0.941 . S
H258 C279 0.939 . S
O259 P248 1.490 . S
H260 C276 0.939 . S
H261 C278 0.940 . S
C262 P248 1.812 . S
C262 C263 1.389 . S
C262 C267 1.391 . S
C263 H249 0.941 . S
C263 C262 1.389 . S
C263 C264 1.397 . S
C264 H250 0.939 . S
C264 C263 1.397 . S
C264 C265 1.378 . S
C265 C264 1.378 . S
C265 C266 1.378 . S
C266 H251 0.940 . S
C266 C265 1.378 . S
C266 C267 1.396 . S
C267 H252 0.940 . S
C267 C262 1.391 . S
C267 C266 1.396 . S
C268 P248 1.803 . S
C268 C269 1.378 . S
C268 C273 1.400 . S
C269 H253 0.939 . S
C269 C268 1.378 . S
C269 C270 1.361 . S
C270 H254 0.942 . S
C270 C269 1.361 . S
C270 C271 1.369 . S
C271 C270 1.369 . S
C271 C272 1.404 . S
C272 H255 0.940 . S
C272 C271 1.404 . S
C272 C273 1.389 . S
C273 H256 0.939 . S
C273 C268 1.400 . S
C273 C272 1.389 . S
C274 P248 1.819 . S
C274 C275 1.391 . S
C274 C279 1.391 . S
C275 H257 0.941 . S
C275 C274 1.391 . S
C275 C276 1.396 . S
C276 H260 0.939 . S
C276 C275 1.396 . S
C276 C277 1.397 . S
C277 C276 1.397 . S
C277 C278 1.385 . S
C278 H261 0.940 . S
C278 C277 1.385 . S
C278 C279 1.388 . S
C279 H258 0.939 . S
C279 C274 1.391 . S
C279 C278 1.388 . S
P280 O291 1.490 . S
P280 C294 1.812 . S
P280 C300 1.803 . S
P280 C306 1.819 . S
H281 C295 0.941 . S
H282 C296 0.939 . S
H283 C298 0.940 . S
H284 C299 0.940 . S
H285 C301 0.939 . S
H286 C302 0.942 . S
H287 C304 0.940 . S
H288 C305 0.939 . S
H289 C307 0.941 . S
H290 C311 0.939 . S
O291 P280 1.490 . S
H292 C308 0.939 . S
H293 C310 0.940 . S
C294 P280 1.812 . S
C294 C295 1.389 . S
C294 C299 1.391 . S
C295 H281 0.941 . S
C295 C294 1.389 . S
C295 C296 1.397 . S
C296 H282 0.939 . S
C296 C295 1.397 . S
C296 C297 1.378 . S
C297 C296 1.378 . S
C297 C298 1.378 . S
C298 H283 0.940 . S
C298 C297 1.378 . S
C298 C299 1.396 . S
C299 H284 0.940 . S
C299 C294 1.391 . S
C299 C298 1.396 . S
C300 P280 1.803 . S
C300 C301 1.378 . S
C300 C305 1.400 . S
C301 H285 0.939 . S
C301 C300 1.378 . S
C301 C302 1.361 . S
C302 H286 0.942 . S
C302 C301 1.361 . S
C302 C303 1.369 . S
C303 C302 1.369 . S
C303 C304 1.404 . S
C304 H287 0.940 . S
C304 C303 1.404 . S
C304 C305 1.389 . S
C305 H288 0.939 . S
C305 C300 1.400 . S
C305 C304 1.389 . S
C306 P280 1.819 . S
C306 C307 1.391 . S
C306 C311 1.391 . S
C307 H289 0.941 . S
C307 C306 1.391 . S
C307 C308 1.396 . S
C308 H292 0.939 . S
C308 C307 1.396 . S
C308 C309 1.397 . S
C309 C308 1.397 . S
C309 C310 1.385 . S
C310 H293 0.940 . S
C310 C309 1.385 . S
C310 C311 1.388 . S
C311 H290 0.939 . S
C311 C306 1.391 . S
C311 C310 1.388 . S
P312 O323 1.490 . S
P312 C326 1.812 . S
P312 C332 1.803 . S
P312 C338 1.819 . S
H313 C327 0.941 . S
H314 C328 0.939 . S
H315 C330 0.940 . S
H316 C331 0.940 . S
H317 C333 0.939 . S
H318 C334 0.942 . S
H319 C336 0.940 . S
H320 C337 0.939 . S
H321 C339 0.941 . S
H322 C343 0.939 . S
O323 P312 1.490 . S
H324 C340 0.939 . S
H325 C342 0.940 . S
C326 P312 1.812 . S
C326 C327 1.389 . S
C326 C331 1.391 . S
C327 H313 0.941 . S
C327 C326 1.389 . S
C327 C328 1.397 . S
C328 H314 0.939 . S
C328 C327 1.397 . S
C328 C329 1.378 . S
C329 C328 1.378 . S
C329 C330 1.378 . S
C330 H315 0.940 . S
C330 C329 1.378 . S
C330 C331 1.396 . S
C331 H316 0.940 . S
C331 C326 1.391 . S
C331 C330 1.396 . S
C332 P312 1.803 . S
C332 C333 1.378 . S
C332 C337 1.400 . S
C333 H317 0.939 . S
C333 C332 1.378 . S
C333 C334 1.361 . S
C334 H318 0.942 . S
C334 C333 1.361 . S
C334 C335 1.369 . S
C335 C334 1.369 . S
C335 C336 1.404 . S
C336 H319 0.940 . S
C336 C335 1.404 . S
C336 C337 1.389 . S
C337 H320 0.939 . S
C337 C332 1.400 . S
C337 C336 1.389 . S
C338 P312 1.819 . S
C338 C339 1.391 . S
C338 C343 1.391 . S
C339 H321 0.941 . S
C339 C338 1.391 . S
C339 C340 1.396 . S
C340 H324 0.939 . S
C340 C339 1.396 . S
C340 C341 1.397 . S
C341 C340 1.397 . S
C341 C342 1.385 . S
C342 H325 0.940 . S
C342 C341 1.385 . S
C342 C343 1.388 . S
C343 H322 0.939 . S
C343 C338 1.391 . S
C343 C342 1.388 . S
H344 C362 0.951 . S
H345 C364 0.951 . S
H346 C366 0.950 . S
H347 C367 0.950 . S
H348 C369 0.950 . S
H349 C372 0.950 . S
H350 C373 0.950 . S
H351 C375 0.950 1_545 S
H352 C376 0.950 . S
H353 C377 0.949 . S
H354 C379 0.951 . S
H355 C381 0.950 . S
H356 C382 0.950 . S
H357 C384 0.950 . S
H358 C387 0.950 . S
H359 C388 0.950 . S
H360 C390 0.950 . S
H361 C391 0.950 . S
C362 H344 0.951 . S
C362 C363 1.366 . S
C362 C364 1.388 . S
C363 C362 1.366 . S
C363 C367 1.385 . S
C364 H345 0.951 . S
C364 C362 1.388 . S
C364 C365 1.366 . S
C365 C364 1.366 . S
C365 C366 1.414 . S
C365 C368 1.499 . S
C366 H346 0.950 . S
C366 C365 1.414 . S
C366 C367 1.374 . S
C367 H347 0.950 . S
C367 C363 1.385 . S
C367 C366 1.374 . S
C368 C365 1.499 . S
C368 C369 1.373 . S
C368 C370 1.389 . S
C369 H348 0.950 . S
C369 C368 1.373 . S
C369 C385 1.377 . S
C370 C368 1.389 . S
C370 C371 1.524 . S
C370 C384 1.377 . S
C371 C370 1.524 . S
C371 C372 1.397 . S
C371 C376 1.363 . S
C372 H349 0.950 . S
C372 C371 1.397 . S
C372 C373 1.334 . S
C373 H350 0.950 . S
C373 C372 1.334 . S
C373 C374 1.287 . S
C374 C373 1.287 . S
C374 C375 1.524 . S
C374 H393 0.913 . S
C375 H351 0.950 1_565 S
C375 C374 1.524 . S
C375 C376 1.415 . S
C376 H352 0.950 . S
C376 C371 1.363 . S
C376 C375 1.415 . S
C377 H353 0.949 . S
C377 C378 1.371 1_565 S
C377 C379 1.385 . S
C378 C377 1.371 1_545 S
C378 C382 1.385 . S
C379 H354 0.951 . S
C379 C377 1.385 . S
C379 C380 1.366 . S
C380 C379 1.366 . S
C380 C381 1.414 1_565 S
C380 C383 1.499 . S
C381 H355 0.950 . S
C381 C380 1.414 1_545 S
C381 C382 1.374 . S
C382 H356 0.950 . S
C382 C378 1.385 . S
C382 C381 1.374 . S
C383 C380 1.499 . S
C383 C384 1.373 . S
C383 C385 1.389 . S
C384 H357 0.950 . S
C384 C370 1.377 . S
C384 C383 1.373 . S
C385 C369 1.377 . S
C385 C383 1.389 . S
C385 C386 1.524 . S
C386 C385 1.524 . S
C386 C387 1.397 . S
C386 C391 1.363 . S
C387 H358 0.950 . S
C387 C386 1.397 . S
C387 C388 1.334 . S
C388 H359 0.950 . S
C388 C387 1.334 . S
C388 C389 1.287 . S
C389 C388 1.287 . S
C389 C390 1.524 . S
C389 H392 0.999 . S
C390 H360 0.950 . S
C390 C389 1.524 . S
C390 C391 1.415 . S
C391 H361 0.950 . S
C391 C386 1.363 . S
C391 C390 1.415 . S
H392 C389 0.999 . S
H393 C374 0.913 . S
H394 C412 0.951 . S
H395 C414 0.951 . S
H396 C416 0.950 . S
H397 C417 0.950 . S
H398 C419 0.950 . S
H399 C422 0.950 . S
H400 C423 0.950 . S
H401 C425 0.950 . S
H402 C426 0.950 . S
H403 C427 0.951 . S
H404 C429 0.951 . S
H405 C431 0.950 . S
H406 C432 0.950 . S
H407 C434 0.950 . S
H408 C437 0.950 . S
H409 C438 0.950 . S
H410 C440 0.950 . S
H411 C441 0.950 . S
C412 H394 0.951 . S
C412 C413 1.366 . S
C412 C414 1.388 . S
C413 C412 1.366 . S
C413 C417 1.385 . S
C414 H395 0.951 . S
C414 C412 1.388 . S
C414 C415 1.366 . S
C415 C414 1.366 . S
C415 C416 1.414 . S
C415 C418 1.499 . S
C416 H396 0.950 . S
C416 C415 1.414 . S
C416 C417 1.374 . S
C417 H397 0.950 . S
C417 C413 1.385 . S
C417 C416 1.374 . S
C418 C415 1.499 . S
C418 C419 1.373 . S
C418 C420 1.389 . S
C419 H398 0.950 . S
C419 C418 1.373 . S
C419 C435 1.377 . S
C420 C418 1.389 . S
C420 C421 1.524 . S
C420 C434 1.377 . S
C421 C420 1.524 . S
C421 C422 1.397 . S
C421 C426 1.363 . S
C422 H399 0.950 . S
C422 C421 1.397 . S
C422 C423 1.334 . S
C423 H400 0.950 . S
C423 C422 1.334 . S
C423 C424 1.287 . S
C424 C423 1.287 . S
C424 C425 1.524 . S
C424 H443 0.913 . S
C425 H401 0.950 . S
C425 C424 1.524 . S
C425 C426 1.415 . S
C426 H402 0.950 . S
C426 C421 1.363 . S
C426 C425 1.415 . S
C427 H403 0.951 . S
C427 C428 1.366 . S
C427 C429 1.388 . S
C428 C427 1.366 . S
C428 C432 1.385 . S
C429 H404 0.951 . S
C429 C427 1.388 . S
C429 C430 1.366 . S
C430 C429 1.366 . S
C430 C431 1.414 . S
C430 C433 1.499 . S
C431 H405 0.950 . S
C431 C430 1.414 . S
C431 C432 1.374 . S
C432 H406 0.950 . S
C432 C428 1.385 . S
C432 C431 1.374 . S
C433 C430 1.499 . S
C433 C434 1.373 . S
C433 C435 1.389 . S
C434 H407 0.950 . S
C434 C420 1.377 . S
C434 C433 1.373 . S
C435 C419 1.377 . S
C435 C433 1.389 . S
C435 C436 1.524 . S
C436 C435 1.524 . S
C436 C437 1.397 . S
C436 C441 1.363 . S
C437 H408 0.950 . S
C437 C436 1.397 . S
C437 C438 1.334 . S
C438 H409 0.950 . S
C438 C437 1.334 . S
C438 C439 1.287 . S
C439 C438 1.287 . S
C439 C440 1.524 . S
C439 H442 0.999 . S
C440 H410 0.950 . S
C440 C439 1.524 . S
C440 C441 1.415 . S
C441 H411 0.950 . S
C441 C436 1.363 . S
C441 C440 1.415 . S
H442 C439 0.999 . S
H443 C424 0.913 . S
H444 C462 0.951 . S
H445 C464 0.951 . S
H446 C466 0.950 . S
H447 C467 0.950 . S
H448 C469 0.950 . S
H449 C472 0.950 . S
H450 C473 0.950 . S
H451 C475 0.950 . S
H452 C476 0.950 . S
H453 C477 0.951 . S
H454 C479 0.951 . S
H455 C481 0.950 . S
H456 C482 0.950 . S
H457 C484 0.950 . S
H458 C487 0.950 . S
H459 C488 0.950 . S
H460 C490 0.950 1_556 S
H461 C491 0.950 . S
C462 H444 0.951 . S
C462 C463 1.366 . S
C462 C464 1.388 . S
C463 C462 1.366 . S
C463 C467 1.385 . S
C464 H445 0.951 . S
C464 C462 1.388 . S
C464 C465 1.366 . S
C465 C464 1.366 . S
C465 C466 1.414 . S
C465 C468 1.499 . S
C466 H446 0.950 . S
C466 C465 1.414 . S
C466 C467 1.374 . S
C467 H447 0.950 . S
C467 C463 1.385 . S
C467 C466 1.374 . S
C468 C465 1.499 . S
C468 C469 1.373 . S
C468 C470 1.389 . S
C469 H448 0.950 . S
C469 C468 1.373 . S
C469 C485 1.377 . S
C470 C468 1.389 . S
C470 C471 1.524 . S
C470 C484 1.377 . S
C471 C470 1.524 . S
C471 C472 1.397 . S
C471 C476 1.363 . S
C472 H449 0.950 . S
C472 C471 1.397 . S
C472 C473 1.334 . S
C473 H450 0.950 . S
C473 C472 1.334 . S
C473 C474 1.287 . S
C474 C473 1.287 . S
C474 C475 1.524 . S
C474 H493 0.913 . S
C475 H451 0.950 . S
C475 C474 1.524 . S
C475 C476 1.415 . S
C476 H452 0.950 . S
C476 C471 1.363 . S
C476 C475 1.415 . S
C477 H453 0.951 . S
C477 C478 1.366 . S
C477 C479 1.388 . S
C478 C477 1.366 . S
C478 C482 1.385 . S
C479 H454 0.951 . S
C479 C477 1.388 . S
C479 C480 1.366 . S
C480 C479 1.366 . S
C480 C481 1.414 . S
C480 C483 1.466 1_565 S
C481 H455 0.950 . S
C481 C480 1.414 . S
C481 C482 1.374 . S
C482 H456 0.950 . S
C482 C478 1.385 . S
C482 C481 1.374 . S
C483 C480 1.466 1_545 S
C483 C484 1.395 . S
C483 C485 1.401 . S
C484 H457 0.950 . S
C484 C470 1.377 . S
C484 C483 1.395 . S
C485 C469 1.377 . S
C485 C483 1.401 . S
C485 C486 1.524 1_545 S
C486 C485 1.524 1_565 S
C486 C487 1.397 . S
C486 C491 1.363 . S
C487 H458 0.950 . S
C487 C486 1.397 . S
C487 C488 1.334 . S
C488 H459 0.950 . S
C488 C487 1.334 . S
C488 C489 1.287 . S
C489 C488 1.287 . S
C489 C490 1.524 . S
C489 H492 0.999 . S
C490 H460 0.950 1_554 S
C490 C489 1.524 . S
C490 C491 1.415 . S
C491 H461 0.950 . S
C491 C486 1.363 . S
C491 C490 1.415 . S
H492 C489 0.999 . S
H493 C474 0.913 . S
H494 C512 0.951 . S
H495 C514 0.951 . S
H496 C516 0.950 . S
H497 C517 0.950 . S
H498 C519 0.950 . S
H499 C522 0.950 . S
H500 C523 0.950 . S
H501 C525 0.950 . S
H502 C526 0.950 . S
H503 C527 0.951 . S
H504 C529 0.951 . S
H505 C531 0.950 . S
H506 C532 0.950 . S
H507 C534 0.950 . S
H508 C537 0.950 . S
H509 C538 0.950 . S
H510 C540 0.950 . S
H511 C541 0.950 . S
C512 H494 0.951 . S
C512 C513 1.366 . S
C512 C514 1.388 . S
C513 C512 1.366 . S
C513 C517 1.385 . S
C514 H495 0.951 . S
C514 C512 1.388 . S
C514 C515 1.366 . S
C515 C514 1.366 . S
C515 C516 1.414 . S
C515 C518 1.499 . S
C516 H496 0.950 . S
C516 C515 1.414 . S
C516 C517 1.374 . S
C517 H497 0.950 . S
C517 C513 1.385 . S
C517 C516 1.374 . S
C518 C515 1.499 . S
C518 C519 1.373 . S
C518 C520 1.389 . S
C519 H498 0.950 . S
C519 C518 1.373 . S
C519 C535 1.377 . S
C520 C518 1.389 . S
C520 C521 1.524 . S
C520 C534 1.377 . S
C521 C520 1.524 . S
C521 C522 1.397 . S
C521 C526 1.363 . S
C522 H499 0.950 . S
C522 C521 1.397 . S
C522 C523 1.334 . S
C523 H500 0.950 . S
C523 C522 1.334 . S
C523 C524 1.287 . S
C524 C523 1.287 . S
C524 C525 1.524 . S
C524 H543 0.913 . S
C525 H501 0.950 . S
C525 C524 1.524 . S
C525 C526 1.415 . S
C526 H502 0.950 . S
C526 C521 1.363 . S
C526 C525 1.415 . S
C527 H503 0.951 . S
C527 C528 1.366 . S
C527 C529 1.388 . S
C528 C527 1.366 . S
C528 C532 1.385 . S
C529 H504 0.951 . S
C529 C527 1.388 . S
C529 C530 1.366 . S
C530 C529 1.366 . S
C530 C531 1.414 . S
C530 C533 1.499 . S
C531 H505 0.950 . S
C531 C530 1.414 . S
C531 C532 1.374 . S
C532 H506 0.950 . S
C532 C528 1.385 . S
C532 C531 1.374 . S
C533 C530 1.499 . S
C533 C534 1.373 . S
C533 C535 1.389 . S
C534 H507 0.950 . S
C534 C520 1.377 . S
C534 C533 1.373 . S
C535 C519 1.377 . S
C535 C533 1.389 . S
C535 C536 1.524 . S
C536 C535 1.524 . S
C536 C537 1.397 . S
C536 C541 1.363 . S
C537 H508 0.950 . S
C537 C536 1.397 . S
C537 C538 1.334 . S
C538 H509 0.950 . S
C538 C537 1.334 . S
C538 C539 1.287 . S
C539 C538 1.287 . S
C539 C540 1.524 . S
C539 H542 0.999 . S
C540 H510 0.950 . S
C540 C539 1.524 . S
C540 C541 1.415 . S
C541 H511 0.950 . S
C541 C536 1.363 . S
C541 C540 1.415 . S
H542 C539 0.999 . S
H543 C524 0.913 . S
H544 C562 0.951 . S
H545 C564 0.951 . S
H546 C566 0.950 . S
H547 C567 0.950 . S
H548 C569 0.950 . S
H549 C572 0.950 . S
H550 C573 0.950 . S
H551 C575 0.950 . S
H552 C576 0.950 . S
H553 C577 0.951 . S
H554 C579 0.951 . S
H555 C581 0.950 . S
H556 C582 0.950 . S
H557 C584 0.950 . S
H558 C587 0.950 . S
H559 C588 0.950 . S
H560 C590 0.950 . S
H561 C591 0.950 . S
C562 H544 0.951 . S
C562 C563 1.366 . S
C562 C564 1.388 . S
C563 C562 1.366 . S
C563 C567 1.385 . S
C564 H545 0.951 . S
C564 C562 1.388 . S
C564 C565 1.366 . S
C565 C564 1.366 . S
C565 C566 1.414 . S
C565 C568 1.499 . S
C566 H546 0.950 . S
C566 C565 1.414 . S
C566 C567 1.374 . S
C567 H547 0.950 . S
C567 C563 1.385 . S
C567 C566 1.374 . S
C568 C565 1.499 . S
C568 C569 1.373 . S
C568 C570 1.389 . S
C569 H548 0.950 . S
C569 C568 1.373 . S
C569 C585 1.377 . S
C570 C568 1.389 . S
C570 C571 1.524 . S
C570 C584 1.377 . S
C571 C570 1.524 . S
C571 C572 1.397 . S
C571 C576 1.363 . S
C572 H549 0.950 . S
C572 C571 1.397 . S
C572 C573 1.334 . S
C573 H550 0.950 . S
C573 C572 1.334 . S
C573 C574 1.287 . S
C574 C573 1.287 . S
C574 C575 1.524 . S
C574 H593 0.913 . S
C575 H551 0.950 . S
C575 C574 1.524 . S
C575 C576 1.415 . S
C576 H552 0.950 . S
C576 C571 1.363 . S
C576 C575 1.415 . S
C577 H553 0.951 . S
C577 C578 1.366 . S
C577 C579 1.388 . S
C578 C577 1.366 . S
C578 C582 1.385 . S
C579 H554 0.951 . S
C579 C577 1.388 . S
C579 C580 1.366 . S
C580 C579 1.366 . S
C580 C581 1.414 . S
C580 C583 1.499 . S
C581 H555 0.950 . S
C581 C580 1.414 . S
C581 C582 1.374 . S
C582 H556 0.950 . S
C582 C578 1.385 . S
C582 C581 1.374 . S
C583 C580 1.499 . S
C583 C584 1.373 . S
C583 C585 1.389 . S
C584 H557 0.950 . S
C584 C570 1.377 . S
C584 C583 1.373 . S
C585 C569 1.377 . S
C585 C583 1.389 . S
C585 C586 1.524 . S
C586 C585 1.524 . S
C586 C587 1.397 . S
C586 C591 1.363 . S
C587 H558 0.950 . S
C587 C586 1.397 . S
C587 C588 1.334 . S
C588 H559 0.950 . S
C588 C587 1.334 . S
C588 C589 1.287 . S
C589 C588 1.287 . S
C589 C590 1.524 . S
C589 H592 0.999 . S
C590 H560 0.950 . S
C590 C589 1.524 . S
C590 C591 1.415 . S
C591 H561 0.950 . S
C591 C586 1.363 . S
C591 C590 1.415 . S
H592 C589 0.999 . S
H593 C574 0.913 . S
H594 C612 0.951 1_554 S
H595 C614 0.947 . S
H596 C616 0.950 . S
H597 C617 0.950 . S
H598 C619 0.950 . S
H599 C622 0.950 . S
H600 C623 0.950 1_655 S
H601 C625 0.950 . S
H602 C626 0.950 . S
H603 C627 0.951 . S
H604 C629 0.951 . S
H605 C631 0.950 . S
H606 C632 0.950 . S
H607 C634 0.950 . S
H608 C637 0.950 . S
H609 C638 0.950 . S
H610 C640 0.950 . S
H611 C641 0.950 . S
C612 H594 0.951 1_556 S
C612 C613 1.366 . S
C612 C614 1.388 . S
C613 C612 1.366 . S
C613 C617 1.385 . S
C614 H595 0.947 . S
C614 C612 1.388 . S
C614 C615 1.366 . S
C615 C614 1.366 . S
C615 C616 1.414 . S
C615 C618 1.499 1_655 S
C616 H596 0.950 . S
C616 C615 1.414 . S
C616 C617 1.374 . S
C617 H597 0.950 . S
C617 C613 1.385 . S
C617 C616 1.374 . S
C618 C615 1.499 1_455 S
C618 C619 1.373 . S
C618 C620 1.389 . S
C619 H598 0.950 . S
C619 C618 1.373 . S
C619 C635 1.377 . S
C620 C618 1.389 . S
C620 C621 1.524 . S
C620 C634 1.377 . S
C621 C620 1.524 . S
C621 C622 1.397 . S
C621 C626 1.363 1_556 S
C622 H599 0.950 . S
C622 C621 1.397 . S
C622 C623 1.334 1_556 S
C623 H600 0.950 1_455 S
C623 C622 1.334 1_554 S
C623 C624 1.287 . S
C624 C623 1.287 . S
C624 C625 1.524 . S
C624 H643 0.913 . S
C625 H601 0.950 . S
C625 C624 1.524 . S
C625 C626 1.415 . S
C626 H602 0.950 . S
C626 C621 1.363 1_554 S
C626 C625 1.415 . S
C627 H603 0.951 . S
C627 C628 1.366 . S
C627 C629 1.388 . S
C628 C627 1.366 . S
C628 C632 1.385 . S
C629 H604 0.951 . S
C629 C627 1.388 . S
C629 C630 1.366 . S
C630 C629 1.366 . S
C630 C631 1.414 . S
C630 C633 1.499 . S
C631 H605 0.950 . S
C631 C630 1.414 . S
C631 C632 1.374 . S
C632 H606 0.950 . S
C632 C628 1.385 . S
C632 C631 1.374 . S
C633 C630 1.499 . S
C633 C634 1.373 . S
C633 C635 1.389 . S
C634 H607 0.950 . S
C634 C620 1.377 . S
C634 C633 1.373 . S
C635 C619 1.377 . S
C635 C633 1.389 . S
C635 C636 1.524 . S
C636 C635 1.524 . S
C636 C637 1.397 . S
C636 C641 1.363 . S
C637 H608 0.950 . S
C637 C636 1.397 . S
C637 C638 1.334 . S
C638 H609 0.950 . S
C638 C637 1.334 . S
C638 C639 1.287 . S
C639 C638 1.287 . S
C639 C640 1.524 . S
C639 H642 0.999 . S
C640 H610 0.950 . S
C640 C639 1.524 . S
C640 C641 1.415 . S
C641 H611 0.950 . S
C641 C636 1.363 . S
C641 C640 1.415 . S
H642 C639 0.999 . S
H643 C624 0.913 . S
H644 C662 0.951 . S
H645 C664 0.951 . S
H646 C666 0.950 . S
H647 C667 0.950 . S
H648 C669 0.950 . S
H649 C672 0.950 . S
H650 C673 0.950 . S
H651 C675 0.950 . S
H652 C676 0.950 . S
H653 C677 0.951 . S
H654 C679 0.951 . S
H655 C681 0.950 . S
H656 C682 0.950 . S
H657 C684 0.950 . S
H658 C687 0.950 . S
H659 C688 0.950 . S
H660 C690 0.950 . S
H661 C691 0.950 . S
C662 H644 0.951 . S
C662 C663 1.366 . S
C662 C664 1.388 . S
C663 C662 1.366 . S
C663 C667 1.385 . S
C664 H645 0.951 . S
C664 C662 1.388 . S
C664 C665 1.366 . S
C665 C664 1.366 . S
C665 C666 1.414 . S
C665 C668 1.499 . S
C666 H646 0.950 . S
C666 C665 1.414 . S
C666 C667 1.374 . S
C667 H647 0.950 . S
C667 C663 1.385 . S
C667 C666 1.374 . S
C668 C665 1.499 . S
C668 C669 1.373 . S
C668 C670 1.389 . S
C669 H648 0.950 . S
C669 C668 1.373 . S
C669 C685 1.377 . S
C670 C668 1.389 . S
C670 C671 1.524 . S
C670 C684 1.377 . S
C671 C670 1.524 . S
C671 C672 1.397 . S
C671 C676 1.363 . S
C672 H649 0.950 . S
C672 C671 1.397 . S
C672 C673 1.334 . S
C673 H650 0.950 . S
C673 C672 1.334 . S
C673 C674 1.287 . S
C674 C673 1.287 . S
C674 C675 1.524 . S
C674 H693 0.913 . S
C675 H651 0.950 . S
C675 C674 1.524 . S
C675 C676 1.415 . S
C676 H652 0.950 . S
C676 C671 1.363 . S
C676 C675 1.415 . S
C677 H653 0.951 . S
C677 C678 1.366 . S
C677 C679 1.388 . S
C678 C677 1.366 . S
C678 C682 1.385 . S
C679 H654 0.951 . S
C679 C677 1.388 . S
C679 C680 1.366 . S
C680 C679 1.366 . S
C680 C681 1.414 . S
C680 C683 1.499 . S
C681 H655 0.950 . S
C681 C680 1.414 . S
C681 C682 1.374 . S
C682 H656 0.950 . S
C682 C678 1.385 . S
C682 C681 1.374 . S
C683 C680 1.499 . S
C683 C684 1.373 . S
C683 C685 1.389 . S
C684 H657 0.950 . S
C684 C670 1.377 . S
C684 C683 1.373 . S
C685 C669 1.377 . S
C685 C683 1.389 . S
C685 C686 1.524 . S
C686 C685 1.524 . S
C686 C687 1.397 . S
C686 C691 1.363 . S
C687 H658 0.950 . S
C687 C686 1.397 . S
C687 C688 1.334 . S
C688 H659 0.950 . S
C688 C687 1.334 . S
C688 C689 1.287 . S
C689 C688 1.287 . S
C689 C690 1.524 . S
C689 H692 0.999 . S
C690 H660 0.950 . S
C690 C689 1.524 . S
C690 C691 1.415 . S
C691 H661 0.950 . S
C691 C686 1.363 . S
C691 C690 1.415 . S
H692 C689 0.999 . S
H693 C674 0.913 . S
H694 C712 0.951 . S
H695 C714 0.951 . S
H696 C716 0.950 . S
H697 C717 0.950 . S
H698 C719 0.950 . S
H699 C722 0.950 . S
H700 C723 0.950 . S
H701 C725 0.950 . S
H702 C726 0.950 1_655 S
H703 C727 0.951 . S
H704 C729 0.951 . S
H705 C731 0.950 . S
H706 C732 0.950 1_655 S
H707 C734 0.950 . S
H708 C737 0.950 . S
H709 C738 0.950 . S
H710 C740 0.950 . S
H711 C741 0.950 . S
C712 H694 0.951 . S
C712 C713 1.366 . S
C712 C714 1.388 . S
C713 C712 1.366 . S
C713 C717 1.385 . S
C714 H695 0.951 . S
C714 C712 1.388 . S
C714 C715 1.366 . S
C715 C714 1.366 . S
C715 C716 1.414 . S
C715 C718 1.499 . S
C716 H696 0.950 . S
C716 C715 1.414 . S
C716 C717 1.374 . S
C717 H697 0.950 . S
C717 C713 1.385 . S
C717 C716 1.374 . S
C718 C715 1.499 . S
C718 C719 1.373 . S
C718 C720 1.389 . S
C719 H698 0.950 . S
C719 C718 1.373 . S
C719 C735 1.377 . S
C720 C718 1.389 . S
C720 C721 1.524 . S
C720 C734 1.377 . S
C721 C720 1.524 . S
C721 C722 1.397 . S
C721 C726 1.363 . S
C722 H699 0.950 . S
C722 C721 1.397 . S
C722 C723 1.334 . S
C723 H700 0.950 . S
C723 C722 1.334 . S
C723 C724 1.321 . S
C724 C723 1.321 . S
C724 C725 1.508 1_455 S
C724 H743 0.894 1_455 S
C725 H701 0.950 . S
C725 C724 1.508 1_655 S
C725 C726 1.415 1_655 S
C726 H702 0.950 1_455 S
C726 C721 1.363 . S
C726 C725 1.415 1_455 S
C727 H703 0.951 . S
C727 C728 1.366 . S
C727 C729 1.388 . S
C728 C727 1.366 . S
C728 C732 1.385 . S
C729 H704 0.951 . S
C729 C727 1.388 . S
C729 C730 1.366 . S
C730 C729 1.366 . S
C730 C731 1.414 . S
C730 C733 1.499 . S
C731 H705 0.950 . S
C731 C730 1.414 . S
C731 C732 1.374 . S
C732 H706 0.950 1_455 S
C732 C728 1.385 . S
C732 C731 1.374 . S
C733 C730 1.499 . S
C733 C734 1.373 . S
C733 C735 1.389 . S
C734 H707 0.950 . S
C734 C720 1.377 . S
C734 C733 1.373 . S
C735 C719 1.377 . S
C735 C733 1.389 . S
C735 C736 1.524 . S
C736 C735 1.524 . S
C736 C737 1.397 . S
C736 C741 1.363 . S
C737 H708 0.950 . S
C737 C736 1.397 . S
C737 C738 1.334 . S
C738 H709 0.950 . S
C738 C737 1.334 . S
C738 C739 1.287 . S
C739 C738 1.287 . S
C739 C740 1.524 . S
C739 H742 0.999 . S
C740 H710 0.950 . S
C740 C739 1.524 . S
C740 C741 1.415 . S
C741 H711 0.950 . S
C741 C736 1.363 . S
C741 C740 1.415 . S
H742 C739 0.999 . S
H743 C724 0.894 1_655 S
H744 C762 0.951 . S
H745 C764 0.951 . S
H746 C766 0.950 . S
H747 C767 0.950 . S
H748 C769 0.950 . S
H749 C772 0.950 . S
H750 C773 0.950 . S
H751 C775 0.950 . S
H752 C776 0.950 . S
H753 C777 0.951 . S
H754 C779 0.951 . S
H755 C781 0.950 . S
H756 C782 0.950 . S
H757 C784 0.950 . S
H758 C787 0.950 . S
H759 C788 0.950 . S
H760 C790 0.950 . S
H761 C791 0.950 . S
C762 H744 0.951 . S
C762 C763 1.366 . S
C762 C764 1.388 . S
C763 C762 1.366 . S
C763 C767 1.385 . S
C764 H745 0.951 . S
C764 C762 1.388 . S
C764 C765 1.366 . S
C765 C764 1.366 . S
C765 C766 1.414 . S
C765 C768 1.499 . S
C766 H746 0.950 . S
C766 C765 1.414 . S
C766 C767 1.374 . S
C767 H747 0.950 . S
C767 C763 1.385 . S
C767 C766 1.374 . S
C768 C765 1.499 . S
C768 C769 1.373 . S
C768 C770 1.389 . S
C769 H748 0.950 . S
C769 C768 1.373 . S
C769 C785 1.377 . S
C770 C768 1.389 . S
C770 C771 1.524 . S
C770 C784 1.377 . S
C771 C770 1.524 . S
C771 C772 1.397 . S
C771 C776 1.363 . S
C772 H749 0.950 . S
C772 C771 1.397 . S
C772 C773 1.334 . S
C773 H750 0.950 . S
C773 C772 1.334 . S
C773 C774 1.287 . S
C774 C773 1.287 . S
C774 C775 1.524 . S
C774 H793 0.913 . S
C775 H751 0.950 . S
C775 C774 1.524 . S
C775 C776 1.415 . S
C776 H752 0.950 . S
C776 C771 1.363 . S
C776 C775 1.415 . S
C777 H753 0.951 . S
C777 C778 1.366 . S
C777 C779 1.388 . S
C778 C777 1.366 . S
C778 C782 1.385 . S
C779 H754 0.951 . S
C779 C777 1.388 . S
C779 C780 1.366 1_565 S
C780 C779 1.366 1_545 S
C780 C781 1.414 . S
C780 C783 1.499 . S
C781 H755 0.950 . S
C781 C780 1.414 . S
C781 C782 1.374 1_545 S
C782 H756 0.950 . S
C782 C778 1.385 . S
C782 C781 1.374 1_565 S
C783 C780 1.499 . S
C783 C784 1.373 . S
C783 C785 1.389 . S
C784 H757 0.950 . S
C784 C770 1.377 . S
C784 C783 1.373 . S
C785 C769 1.377 . S
C785 C783 1.389 . S
C785 C786 1.524 1_545 S
C786 C785 1.524 1_565 S
C786 C787 1.397 . S
C786 C791 1.363 . S
C787 H758 0.950 . S
C787 C786 1.397 . S
C787 C788 1.334 . S
C788 H759 0.950 . S
C788 C787 1.334 . S
C788 C789 1.287 . S
C789 C788 1.287 . S
C789 C790 1.524 . S
C789 H792 0.999 . S
C790 H760 0.950 . S
C790 C789 1.524 . S
C790 C791 1.415 . S
C791 H761 0.950 . S
C791 C786 1.363 . S
C791 C790 1.415 . S
H792 C789 0.999 . S
H793 C774 0.913 . S
H794 C812 0.951 . S
H795 C814 0.951 . S
H796 C816 0.950 . S
H797 C817 0.950 . S
H798 C819 0.950 . S
H799 C822 0.950 . S
H800 C823 0.950 . S
H801 C825 0.950 . S
H802 C826 0.950 . S
H803 C827 0.951 . S
H804 C829 0.951 . S
H805 C831 0.950 . S
H806 C832 0.950 . S
H807 C834 0.950 . S
H808 C837 0.950 . S
H809 C838 0.950 . S
H810 C840 0.950 . S
H811 C841 0.950 . S
C812 H794 0.951 . S
C812 C813 1.366 . S
C812 C814 1.388 . S
C813 C812 1.366 . S
C813 C817 1.385 . S
C814 H795 0.951 . S
C814 C812 1.388 . S
C814 C815 1.366 . S
C815 C814 1.366 . S
C815 C816 1.414 . S
C815 C818 1.499 . S
C816 H796 0.950 . S
C816 C815 1.414 . S
C816 C817 1.374 . S
C817 H797 0.950 . S
C817 C813 1.385 . S
C817 C816 1.374 . S
C818 C815 1.499 . S
C818 C819 1.373 . S
C818 C820 1.389 . S
C819 H798 0.950 . S
C819 C818 1.373 . S
C819 C835 1.377 . S
C820 C818 1.389 . S
C820 C821 1.524 . S
C820 C834 1.377 . S
C821 C820 1.524 . S
C821 C822 1.397 . S
C821 C826 1.363 . S
C822 H799 0.950 . S
C822 C821 1.397 . S
C822 C823 1.334 . S
C823 H800 0.950 . S
C823 C822 1.334 . S
C823 C824 1.287 . S
C824 C823 1.287 . S
C824 C825 1.524 . S
C824 H843 0.913 . S
C825 H801 0.950 . S
C825 C824 1.524 . S
C825 C826 1.415 . S
C826 H802 0.950 . S
C826 C821 1.363 . S
C826 C825 1.415 . S
C827 H803 0.951 . S
C827 C828 1.366 . S
C827 C829 1.388 . S
C828 C827 1.366 . S
C828 C832 1.385 . S
C829 H804 0.951 . S
C829 C827 1.388 . S
C829 C830 1.366 . S
C830 C829 1.366 . S
C830 C831 1.414 . S
C830 C833 1.499 . S
C831 H805 0.950 . S
C831 C830 1.414 . S
C831 C832 1.374 . S
C832 H806 0.950 . S
C832 C828 1.385 . S
C832 C831 1.374 . S
C833 C830 1.499 . S
C833 C834 1.373 . S
C833 C835 1.389 . S
C834 H807 0.950 . S
C834 C820 1.377 . S
C834 C833 1.373 . S
C835 C819 1.377 . S
C835 C833 1.389 . S
C835 C836 1.524 . S
C836 C835 1.524 . S
C836 C837 1.397 . S
C836 C841 1.363 . S
C837 H808 0.950 . S
C837 C836 1.397 . S
C837 C838 1.334 . S
C838 H809 0.950 . S
C838 C837 1.334 . S
C838 C839 1.287 . S
C839 C838 1.287 . S
C839 C840 1.524 . S
C839 H842 0.999 . S
C840 H810 0.950 . S
C840 C839 1.524 . S
C840 C841 1.415 . S
C841 H811 0.950 . S
C841 C836 1.363 . S
C841 C840 1.415 . S
H842 C839 0.999 . S
H843 C824 0.913 . S
H844 C862 0.951 . S
H845 C864 0.951 . S
H846 C866 0.950 . S
H847 C867 0.950 . S
H848 C869 0.950 . S
H849 C872 0.950 . S
H850 C873 0.950 . S
H851 C875 0.950 1_545 S
H852 C876 0.950 1_545 S
H853 C877 0.951 . S
H854 C879 0.951 . S
H855 C881 0.950 . S
H856 C882 0.950 . S
H857 C884 0.950 1_545 S
H858 C887 0.950 . S
H859 C888 0.950 . S
H860 C890 0.950 . S
H861 C891 0.950 . S
C862 H844 0.951 . S
C862 C863 1.366 . S
C862 C864 1.388 . S
C863 C862 1.366 . S
C863 C867 1.385 1_554 S
C864 H845 0.951 . S
C864 C862 1.388 . S
C864 C865 1.366 1_554 S
C865 C864 1.366 1_556 S
C865 C866 1.414 . S
C865 C868 1.499 . S
C866 H846 0.950 . S
C866 C865 1.414 . S
C866 C867 1.374 . S
C867 H847 0.950 . S
C867 C863 1.385 1_556 S
C867 C866 1.374 . S
C868 C865 1.499 . S
C868 C869 1.373 . S
C868 C870 1.389 . S
C869 H848 0.950 . S
C869 C868 1.373 . S
C869 C885 1.377 . S
C870 C868 1.389 . S
C870 C871 1.524 . S
C870 C884 1.377 . S
C871 C870 1.524 . S
C871 C872 1.397 . S
C871 C876 1.363 . S
C872 H849 0.950 . S
C872 C871 1.397 . S
C872 C873 1.334 . S
C873 H850 0.950 . S
C873 C872 1.334 . S
C873 C874 1.287 . S
C874 C873 1.287 . S
C874 C875 1.524 . S
C874 H893 0.913 . S
C875 H851 0.950 1_565 S
C875 C874 1.524 . S
C875 C876 1.415 . S
C876 H852 0.950 1_565 S
C876 C871 1.363 . S
C876 C875 1.415 . S
C877 H853 0.951 . S
C877 C878 1.366 . S
C877 C879 1.388 . S
C878 C877 1.366 . S
C878 C882 1.385 . S
C879 H854 0.951 . S
C879 C877 1.388 . S
C879 C880 1.366 . S
C880 C879 1.366 . S
C880 C881 1.414 . S
C880 C883 1.480 1_545 S
C881 H855 0.950 . S
C881 C880 1.414 . S
C881 C882 1.374 . S
C882 H856 0.950 . S
C882 C878 1.385 . S
C882 C881 1.374 . S
C883 C880 1.480 1_565 S
C883 C884 1.376 . S
C883 C885 1.407 . S
C884 H857 0.950 1_565 S
C884 C870 1.377 . S
C884 C883 1.376 . S
C885 C869 1.377 . S
C885 C883 1.407 . S
C885 C886 1.524 . S
C886 C885 1.524 . S
C886 C887 1.397 1_565 S
C886 C891 1.363 . S
C887 H858 0.950 . S
C887 C886 1.397 1_545 S
C887 C888 1.334 . S
C888 H859 0.950 . S
C888 C887 1.334 . S
C888 C889 1.287 1_545 S
C889 C888 1.287 1_565 S
C889 C890 1.524 . S
C889 H892 0.999 . S
C890 H860 0.950 . S
C890 C889 1.524 . S
C890 C891 1.415 . S
C891 H861 0.950 . S
C891 C886 1.363 . S
C891 C890 1.415 . S
H892 C889 0.999 . S
H893 C874 0.913 . S
H894 C912 0.951 . S
H895 C914 0.951 . S
H896 C916 0.950 . S
H897 C917 0.950 . S
H898 C919 0.950 . S
H899 C922 0.950 . S
H900 C923 0.950 . S
H901 C925 0.950 . S
H902 C926 0.950 . S
H903 C927 0.951 . S
H904 C929 0.951 . S
H905 C931 0.950 . S
H906 C932 0.950 . S
H907 C934 0.950 . S
H908 C937 0.950 . S
H909 C938 0.950 . S
H910 C940 0.950 . S
H911 C941 0.950 . S
C912 H894 0.951 . S
C912 C913 1.366 . S
C912 C914 1.388 . S
C913 C912 1.366 . S
C913 C917 1.385 . S
C914 H895 0.951 . S
C914 C912 1.388 . S
C914 C915 1.366 . S
C915 C914 1.366 . S
C915 C916 1.414 . S
C915 C918 1.499 . S
C916 H896 0.950 . S
C916 C915 1.414 . S
C916 C917 1.374 . S
C917 H897 0.950 . S
C917 C913 1.385 . S
C917 C916 1.374 . S
C918 C915 1.499 . S
C918 C919 1.373 . S
C918 C920 1.389 . S
C919 H898 0.950 . S
C919 C918 1.373 . S
C919 C935 1.377 . S
C920 C918 1.389 . S
C920 C921 1.524 . S
C920 C934 1.377 . S
C921 C920 1.524 . S
C921 C922 1.397 . S
C921 C926 1.363 . S
C922 H899 0.950 . S
C922 C921 1.397 . S
C922 C923 1.334 . S
C923 H900 0.950 . S
C923 C922 1.334 . S
C923 C924 1.287 . S
C924 C923 1.287 . S
C924 C925 1.524 . S
C924 H943 0.913 . S
C925 H901 0.950 . S
C925 C924 1.524 . S
C925 C926 1.415 . S
C926 H902 0.950 . S
C926 C921 1.363 . S
C926 C925 1.415 . S
C927 H903 0.951 . S
C927 C928 1.366 . S
C927 C929 1.388 . S
C928 C927 1.366 . S
C928 C932 1.385 . S
C929 H904 0.951 . S
C929 C927 1.388 . S
C929 C930 1.366 . S
C930 C929 1.366 . S
C930 C931 1.414 . S
C930 C933 1.499 . S
C931 H905 0.950 . S
C931 C930 1.414 . S
C931 C932 1.374 . S
C932 H906 0.950 . S
C932 C928 1.385 . S
C932 C931 1.374 . S
C933 C930 1.499 . S
C933 C934 1.373 . S
C933 C935 1.389 . S
C934 H907 0.950 . S
C934 C920 1.377 . S
C934 C933 1.373 . S
C935 C919 1.377 . S
C935 C933 1.389 . S
C935 C936 1.524 . S
C936 C935 1.524 . S
C936 C937 1.397 . S
C936 C941 1.363 . S
C937 H908 0.950 . S
C937 C936 1.397 . S
C937 C938 1.334 . S
C938 H909 0.950 . S
C938 C937 1.334 . S
C938 C939 1.287 . S
C939 C938 1.287 . S
C939 C940 1.524 . S
C939 H942 0.999 . S
C940 H910 0.950 . S
C940 C939 1.524 . S
C940 C941 1.415 . S
C941 H911 0.950 . S
C941 C936 1.363 . S
C941 C940 1.415 . S
H942 C939 0.999 . S
H943 C924 0.913 . S
H944 C962 0.951 . S
H945 C964 0.951 . S
H946 C966 0.950 . S
H947 C967 0.950 . S
H948 C969 0.950 . S
H949 C972 0.950 . S
H950 C973 0.950 . S
H951 C975 0.950 . S
H952 C976 0.950 . S
H953 C977 0.951 . S
H954 C979 0.951 . S
H955 C981 0.950 . S
H956 C982 0.950 . S
H957 C984 0.950 . S
H958 C987 0.950 . S
H959 C988 0.950 . S
H960 C990 0.950 . S
H961 C991 0.950 . S
C962 H944 0.951 . S
C962 C963 1.366 . S
C962 C964 1.388 . S
C963 C962 1.366 . S
C963 C967 1.385 . S
C964 H945 0.951 . S
C964 C962 1.388 . S
C964 C965 1.366 . S
C965 C964 1.366 . S
C965 C966 1.414 . S
C965 C968 1.499 . S
C966 H946 0.950 . S
C966 C965 1.414 . S
C966 C967 1.374 . S
C967 H947 0.950 . S
C967 C963 1.385 . S
C967 C966 1.374 . S
C968 C965 1.499 . S
C968 C969 1.373 . S
C968 C970 1.389 . S
C969 H948 0.950 . S
C969 C968 1.373 . S
C969 C985 1.377 . S
C970 C968 1.389 . S
C970 C971 1.524 . S
C970 C984 1.377 . S
C971 C970 1.524 . S
C971 C972 1.397 . S
C971 C976 1.363 . S
C972 H949 0.950 . S
C972 C971 1.397 . S
C972 C973 1.334 . S
C973 H950 0.950 . S
C973 C972 1.334 . S
C973 C974 1.287 . S
C974 C973 1.287 . S
C974 C975 1.524 . S
C974 H993 0.913 . S
C975 H951 0.950 . S
C975 C974 1.524 . S
C975 C976 1.415 . S
C976 H952 0.950 . S
C976 C971 1.363 . S
C976 C975 1.415 . S
C977 H953 0.951 . S
C977 C978 1.366 . S
C977 C979 1.388 . S
C978 C977 1.366 . S
C978 C982 1.385 . S
C979 H954 0.951 . S
C979 C977 1.388 . S
C979 C980 1.366 . S
C980 C979 1.366 . S
C980 C981 1.414 . S
C980 C983 1.499 . S
C981 H955 0.950 . S
C981 C980 1.414 . S
C981 C982 1.374 . S
C982 H956 0.950 . S
C982 C978 1.385 . S
C982 C981 1.374 . S
C983 C980 1.499 . S
C983 C984 1.373 . S
C983 C985 1.389 . S
C984 H957 0.950 . S
C984 C970 1.377 . S
C984 C983 1.373 . S
C985 C969 1.377 . S
C985 C983 1.389 . S
C985 C986 1.524 . S
C986 C985 1.524 . S
C986 C987 1.397 . S
C986 C991 1.363 . S
C987 H958 0.950 . S
C987 C986 1.397 . S
C987 C988 1.334 . S
C988 H959 0.950 . S
C988 C987 1.334 . S
C988 C989 1.287 . S
C989 C988 1.287 . S
C989 C990 1.524 . S
C989 H992 0.999 . S
C990 H960 0.950 . S
C990 C989 1.524 . S
C990 C991 1.415 . S
C991 H961 0.950 . S
C991 C986 1.363 . S
C991 C990 1.415 . S
H992 C989 0.999 . S
H993 C974 0.913 . S
H994 C1012 0.951 . S
H995 C1014 0.951 . S
H996 C1016 0.950 . S
H997 C1017 0.950 . S
H998 C1019 0.950 . S
H999 C1022 0.950 . S
H1000 C1023 0.950 . S
H1001 C1025 0.950 1_556 S
H1002 C1026 0.950 . S
H1003 C1027 0.951 . S
H1004 C1029 0.951 . S
H1005 C1031 0.950 . S
H1006 C1032 0.950 . S
H1007 C1034 0.950 . S
H1008 C1037 0.950 . S
H1009 C1038 0.950 . S
H1010 C1040 0.950 . S
H1011 C1041 0.950 . S
C1012 H994 0.951 . S
C1012 C1013 1.366 . S
C1012 C1014 1.388 . S
C1013 C1012 1.366 . S
C1013 C1017 1.385 . S
C1014 H995 0.951 . S
C1014 C1012 1.388 . S
C1014 C1015 1.366 . S
C1015 C1014 1.366 . S
C1015 C1016 1.414 . S
C1015 C1018 1.499 1_455 S
C1016 H996 0.950 . S
C1016 C1015 1.414 . S
C1016 C1017 1.374 . S
C1017 H997 0.950 . S
C1017 C1013 1.385 . S
C1017 C1016 1.374 . S
C1018 C1015 1.499 1_655 S
C1018 C1019 1.373 . S
C1018 C1020 1.389 . S
C1019 H998 0.950 . S
C1019 C1018 1.373 . S
C1019 C1035 1.377 . S
C1020 C1018 1.389 . S
C1020 C1021 1.524 . S
C1020 C1034 1.377 . S
C1021 C1020 1.524 . S
C1021 C1022 1.397 . S
C1021 C1026 1.363 . S
C1022 H999 0.950 . S
C1022 C1021 1.397 . S
C1022 C1023 1.334 . S
C1023 H1000 0.950 . S
C1023 C1022 1.334 . S
C1023 C1024 1.287 1_554 S
C1024 C1023 1.287 1_556 S
C1024 C1025 1.524 1_556 S
C1024 H1043 0.913 . S
C1025 H1001 0.950 1_554 S
C1025 C1024 1.524 1_554 S
C1025 C1026 1.415 . S
C1026 H1002 0.950 . S
C1026 C1021 1.363 . S
C1026 C1025 1.415 . S
C1027 H1003 0.951 . S
C1027 C1028 1.366 . S
C1027 C1029 1.388 . S
C1028 C1027 1.366 . S
C1028 C1032 1.385 . S
C1029 H1004 0.951 . S
C1029 C1027 1.388 . S
C1029 C1030 1.366 . S
C1030 C1029 1.366 . S
C1030 C1031 1.414 . S
C1030 C1033 1.499 . S
C1031 H1005 0.950 . S
C1031 C1030 1.414 . S
C1031 C1032 1.374 . S
C1032 H1006 0.950 . S
C1032 C1028 1.385 . S
C1032 C1031 1.374 . S
C1033 C1030 1.499 . S
C1033 C1034 1.373 . S
C1033 C1035 1.389 . S
C1034 H1007 0.950 . S
C1034 C1020 1.377 . S
C1034 C1033 1.373 . S
C1035 C1019 1.377 . S
C1035 C1033 1.389 . S
C1035 C1036 1.524 . S
C1036 C1035 1.524 . S
C1036 C1037 1.397 . S
C1036 C1041 1.363 . S
C1037 H1008 0.950 . S
C1037 C1036 1.397 . S
C1037 C1038 1.334 . S
C1038 H1009 0.950 . S
C1038 C1037 1.334 . S
C1038 C1039 1.287 . S
C1039 C1038 1.287 . S
C1039 C1040 1.524 . S
C1039 H1042 0.999 . S
C1040 H1010 0.950 . S
C1040 C1039 1.524 . S
C1040 C1041 1.415 . S
C1041 H1011 0.950 . S
C1041 C1036 1.363 . S
C1041 C1040 1.415 . S
H1042 C1039 0.999 . S
H1043 C1024 0.913 . S
H1044 C1062 0.951 . S
H1045 C1064 0.951 . S
H1046 C1066 0.950 . S
H1047 C1067 0.950 . S
H1048 C1069 0.950 . S
H1049 C1072 0.950 . S
H1050 C1073 0.950 . S
H1051 C1075 0.950 . S
H1052 C1076 0.950 . S
H1053 C1077 0.951 . S
H1054 C1079 0.951 . S
H1055 C1081 0.950 . S
H1056 C1082 0.950 . S
H1057 C1084 0.950 . S
H1058 C1087 0.950 . S
H1059 C1088 0.950 . S
H1060 C1090 0.950 . S
H1061 C1091 0.950 . S
C1062 H1044 0.951 . S
C1062 C1063 1.366 . S
C1062 C1064 1.388 . S
C1063 C1062 1.366 . S
C1063 C1067 1.385 . S
C1064 H1045 0.951 . S
C1064 C1062 1.388 . S
C1064 C1065 1.366 . S
C1065 C1064 1.366 . S
C1065 C1066 1.414 . S
C1065 C1068 1.499 . S
C1066 H1046 0.950 . S
C1066 C1065 1.414 . S
C1066 C1067 1.374 . S
C1067 H1047 0.950 . S
C1067 C1063 1.385 . S
C1067 C1066 1.374 . S
C1068 C1065 1.499 . S
C1068 C1069 1.373 . S
C1068 C1070 1.389 . S
C1069 H1048 0.950 . S
C1069 C1068 1.373 . S
C1069 C1085 1.377 . S
C1070 C1068 1.389 . S
C1070 C1071 1.524 . S
C1070 C1084 1.377 . S
C1071 C1070 1.524 . S
C1071 C1072 1.397 . S
C1071 C1076 1.363 . S
C1072 H1049 0.950 . S
C1072 C1071 1.397 . S
C1072 C1073 1.334 . S
C1073 H1050 0.950 . S
C1073 C1072 1.334 . S
C1073 C1074 1.287 . S
C1074 C1073 1.287 . S
C1074 C1075 1.524 . S
C1074 H1093 0.913 . S
C1075 H1051 0.950 . S
C1075 C1074 1.524 . S
C1075 C1076 1.415 . S
C1076 H1052 0.950 . S
C1076 C1071 1.363 . S
C1076 C1075 1.415 . S
C1077 H1053 0.951 . S
C1077 C1078 1.366 . S
C1077 C1079 1.388 . S
C1078 C1077 1.366 . S
C1078 C1082 1.385 . S
C1079 H1054 0.951 . S
C1079 C1077 1.388 . S
C1079 C1080 1.366 . S
C1080 C1079 1.366 . S
C1080 C1081 1.414 . S
C1080 C1083 1.499 . S
C1081 H1055 0.950 . S
C1081 C1080 1.414 . S
C1081 C1082 1.374 . S
C1082 H1056 0.950 . S
C1082 C1078 1.385 . S
C1082 C1081 1.374 . S
C1083 C1080 1.499 . S
C1083 C1084 1.373 . S
C1083 C1085 1.389 . S
C1084 H1057 0.950 . S
C1084 C1070 1.377 . S
C1084 C1083 1.373 . S
C1085 C1069 1.377 . S
C1085 C1083 1.389 . S
C1085 C1086 1.524 . S
C1086 C1085 1.524 . S
C1086 C1087 1.397 . S
C1086 C1091 1.363 . S
C1087 H1058 0.950 . S
C1087 C1086 1.397 . S
C1087 C1088 1.334 . S
C1088 H1059 0.950 . S
C1088 C1087 1.334 . S
C1088 C1089 1.287 . S
C1089 C1088 1.287 . S
C1089 C1090 1.524 . S
C1089 H1092 0.999 . S
C1090 H1060 0.950 . S
C1090 C1089 1.524 . S
C1090 C1091 1.415 . S
C1091 H1061 0.950 . S
C1091 C1086 1.363 . S
C1091 C1090 1.415 . S
H1092 C1089 0.999 . S
H1093 C1074 0.913 . S
H1094 C1112 0.951 . S
H1095 C1114 0.951 . S
H1096 C1116 0.950 . S
H1097 C1117 0.950 . S
H1098 C1119 0.950 . S
H1099 C1122 0.950 . S
H1100 C1123 0.950 . S
H1101 C1125 0.950 . S
H1102 C1126 0.950 . S
H1103 C1127 0.979 . S
H1104 C1129 0.951 . S
H1105 C1131 0.950 . S
H1106 C1132 0.950 . S
H1107 C1134 0.950 . S
H1108 C1137 0.950 . S
H1109 C1138 0.950 . S
H1110 C1140 0.950 . S
H1111 C1141 0.955 . S
C1112 H1094 0.951 . S
C1112 C1113 1.366 . S
C1112 C1114 1.388 . S
C1113 C1112 1.366 . S
C1113 C1117 1.385 . S
C1114 H1095 0.951 . S
C1114 C1112 1.388 . S
C1114 C1115 1.366 . S
C1115 C1114 1.366 . S
C1115 C1116 1.414 . S
C1115 C1118 1.499 . S
C1116 H1096 0.950 . S
C1116 C1115 1.414 . S
C1116 C1117 1.374 . S
C1117 H1097 0.950 . S
C1117 C1113 1.385 . S
C1117 C1116 1.374 . S
C1118 C1115 1.499 . S
C1118 C1119 1.373 . S
C1118 C1120 1.389 . S
C1119 H1098 0.950 . S
C1119 C1118 1.373 . S
C1119 C1135 1.377 . S
C1120 C1118 1.389 . S
C1120 C1121 1.524 . S
C1120 C1134 1.377 . S
C1121 C1120 1.524 . S
C1121 C1122 1.397 . S
C1121 C1126 1.363 . S
C1122 H1099 0.950 . S
C1122 C1121 1.397 . S
C1122 C1123 1.334 . S
C1123 H1100 0.950 . S
C1123 C1122 1.334 . S
C1123 C1124 1.287 . S
C1124 C1123 1.287 . S
C1124 C1125 1.524 . S
C1124 H1143 0.913 . S
C1125 H1101 0.950 . S
C1125 C1124 1.524 . S
C1125 C1126 1.415 . S
C1126 H1102 0.950 . S
C1126 C1121 1.363 . S
C1126 C1125 1.415 . S
C1127 H1103 0.979 . S
C1127 C1128 1.350 1_455 S
C1127 C1129 1.376 1_455 S
C1128 C1127 1.350 1_655 S
C1128 C1132 1.385 . S
C1129 H1104 0.951 . S
C1129 C1127 1.376 1_655 S
C1129 C1130 1.366 . S
C1130 C1129 1.366 . S
C1130 C1131 1.414 . S
C1130 C1133 1.499 . S
C1131 H1105 0.950 . S
C1131 C1130 1.414 . S
C1131 C1132 1.374 . S
C1132 H1106 0.950 . S
C1132 C1128 1.385 . S
C1132 C1131 1.374 . S
C1133 C1130 1.499 . S
C1133 C1134 1.373 . S
C1133 C1135 1.389 . S
C1134 H1107 0.950 . S
C1134 C1120 1.377 . S
C1134 C1133 1.373 . S
C1135 C1119 1.377 . S
C1135 C1133 1.389 . S
C1135 C1136 1.524 . S
C1136 C1135 1.524 . S
C1136 C1137 1.397 . S
C1136 C1141 1.363 . S
C1137 H1108 0.950 . S
C1137 C1136 1.397 . S
C1137 C1138 1.334 . S
C1138 H1109 0.950 . S
C1138 C1137 1.334 . S
C1138 C1139 1.287 1_655 S
C1139 C1138 1.287 1_455 S
C1139 C1140 1.524 . S
C1139 H1142 0.999 . S
C1140 H1110 0.950 . S
C1140 C1139 1.524 . S
C1140 C1141 1.415 1_455 S
C1141 H1111 0.955 . S
C1141 C1136 1.363 . S
C1141 C1140 1.415 1_655 S
H1142 C1139 0.999 . S
H1143 C1124 0.913 . S
H1144 C1162 0.951 . S
H1145 C1164 0.951 . S
H1146 C1166 0.950 . S
H1147 C1167 0.950 . S
H1148 C1169 0.950 . S
H1149 C1172 0.950 . S
H1150 C1173 0.950 . S
H1151 C1175 0.950 . S
H1152 C1176 0.950 . S
H1153 C1177 0.951 . S
H1154 C1179 0.951 . S
H1155 C1181 0.950 . S
H1156 C1182 0.950 . S
H1157 C1184 0.950 . S
H1158 C1187 0.950 . S
H1159 C1188 0.950 . S
H1160 C1190 0.950 . S
H1161 C1191 0.950 . S
C1162 H1144 0.951 . S
C1162 C1163 1.366 . S
C1162 C1164 1.388 . S
C1163 C1162 1.366 . S
C1163 C1167 1.385 . S
C1164 H1145 0.951 . S
C1164 C1162 1.388 . S
C1164 C1165 1.366 . S
C1165 C1164 1.366 . S
C1165 C1166 1.414 . S
C1165 C1168 1.499 . S
C1166 H1146 0.950 . S
C1166 C1165 1.414 . S
C1166 C1167 1.374 . S
C1167 H1147 0.950 . S
C1167 C1163 1.385 . S
C1167 C1166 1.374 . S
C1168 C1165 1.499 . S
C1168 C1169 1.373 . S
C1168 C1170 1.389 . S
C1169 H1148 0.950 . S
C1169 C1168 1.373 . S
C1169 C1185 1.377 . S
C1170 C1168 1.389 . S
C1170 C1171 1.524 . S
C1170 C1184 1.377 . S
C1171 C1170 1.524 . S
C1171 C1172 1.397 . S
C1171 C1176 1.363 . S
C1172 H1149 0.950 . S
C1172 C1171 1.397 . S
C1172 C1173 1.334 . S
C1173 H1150 0.950 . S
C1173 C1172 1.334 . S
C1173 C1174 1.287 . S
C1174 C1173 1.287 . S
C1174 C1175 1.524 . S
C1174 H1193 0.913 . S
C1175 H1151 0.950 . S
C1175 C1174 1.524 . S
C1175 C1176 1.415 . S
C1176 H1152 0.950 . S
C1176 C1171 1.363 . S
C1176 C1175 1.415 . S
C1177 H1153 0.951 . S
C1177 C1178 1.366 . S
C1177 C1179 1.388 . S
C1178 C1177 1.366 . S
C1178 C1182 1.385 . S
C1179 H1154 0.951 . S
C1179 C1177 1.388 . S
C1179 C1180 1.366 . S
C1180 C1179 1.366 . S
C1180 C1181 1.414 . S
C1180 C1183 1.499 . S
C1181 H1155 0.950 . S
C1181 C1180 1.414 . S
C1181 C1182 1.374 . S
C1182 H1156 0.950 . S
C1182 C1178 1.385 . S
C1182 C1181 1.374 . S
C1183 C1180 1.499 . S
C1183 C1184 1.373 . S
C1183 C1185 1.389 . S
C1184 H1157 0.950 . S
C1184 C1170 1.377 . S
C1184 C1183 1.373 . S
C1185 C1169 1.377 . S
C1185 C1183 1.389 . S
C1185 C1186 1.524 . S
C1186 C1185 1.524 . S
C1186 C1187 1.397 . S
C1186 C1191 1.363 . S
C1187 H1158 0.950 . S
C1187 C1186 1.397 . S
C1187 C1188 1.334 . S
C1188 H1159 0.950 . S
C1188 C1187 1.334 . S
C1188 C1189 1.287 . S
C1189 C1188 1.287 . S
C1189 C1190 1.524 . S
C1189 H1192 0.999 . S
C1190 H1160 0.950 . S
C1190 C1189 1.524 . S
C1190 C1191 1.415 . S
C1191 H1161 0.950 . S
C1191 C1186 1.363 . S
C1191 C1190 1.415 . S
H1192 C1189 0.999 . S
H1193 C1174 0.913 . S
H1194 C1212 0.951 . S
H1195 C1214 0.951 . S
H1196 C1216 0.950 . S
H1197 C1217 0.950 . S
H1198 C1219 0.950 . S
H1199 C1222 0.950 . S
H1200 C1223 0.950 . S
H1201 C1225 0.950 . S
H1202 C1226 0.950 . S
H1203 C1227 0.951 . S
H1204 C1229 0.951 . S
H1205 C1231 0.950 . S
H1206 C1232 0.950 . S
H1207 C1234 0.950 . S
H1208 C1237 0.950 . S
H1209 C1238 0.950 . S
H1210 C1240 0.950 . S
H1211 C1241 0.950 . S
C1212 H1194 0.951 . S
C1212 C1213 1.366 . S
C1212 C1214 1.388 . S
C1213 C1212 1.366 . S
C1213 C1217 1.385 . S
C1214 H1195 0.951 . S
C1214 C1212 1.388 . S
C1214 C1215 1.366 . S
C1215 C1214 1.366 . S
C1215 C1216 1.414 . S
C1215 C1218 1.499 . S
C1216 H1196 0.950 . S
C1216 C1215 1.414 . S
C1216 C1217 1.374 . S
C1217 H1197 0.950 . S
C1217 C1213 1.385 . S
C1217 C1216 1.374 . S
C1218 C1215 1.499 . S
C1218 C1219 1.373 . S
C1218 C1220 1.389 . S
C1219 H1198 0.950 . S
C1219 C1218 1.373 . S
C1219 C1235 1.377 . S
C1220 C1218 1.389 . S
C1220 C1221 1.524 . S
C1220 C1234 1.377 . S
C1221 C1220 1.524 . S
C1221 C1222 1.397 . S
C1221 C1226 1.363 . S
C1222 H1199 0.950 . S
C1222 C1221 1.397 . S
C1222 C1223 1.334 . S
C1223 H1200 0.950 . S
C1223 C1222 1.334 . S
C1223 C1224 1.287 . S
C1224 C1223 1.287 . S
C1224 C1225 1.524 . S
C1224 H1243 0.913 . S
C1225 H1201 0.950 . S
C1225 C1224 1.524 . S
C1225 C1226 1.415 . S
C1226 H1202 0.950 . S
C1226 C1221 1.363 . S
C1226 C1225 1.415 . S
C1227 H1203 0.951 . S
C1227 C1228 1.366 . S
C1227 C1229 1.388 . S
C1228 C1227 1.366 . S
C1228 C1232 1.385 . S
C1229 H1204 0.951 . S
C1229 C1227 1.388 . S
C1229 C1230 1.366 . S
C1230 C1229 1.366 . S
C1230 C1231 1.414 . S
C1230 C1233 1.499 . S
C1231 H1205 0.950 . S
C1231 C1230 1.414 . S
C1231 C1232 1.374 . S
C1232 H1206 0.950 . S
C1232 C1228 1.385 . S
C1232 C1231 1.374 . S
C1233 C1230 1.499 . S
C1233 C1234 1.373 . S
C1233 C1235 1.389 . S
C1234 H1207 0.950 . S
C1234 C1220 1.377 . S
C1234 C1233 1.373 . S
C1235 C1219 1.377 . S
C1235 C1233 1.389 . S
C1235 C1236 1.524 . S
C1236 C1235 1.524 . S
C1236 C1237 1.397 . S
C1236 C1241 1.363 . S
C1237 H1208 0.950 . S
C1237 C1236 1.397 . S
C1237 C1238 1.334 . S
C1238 H1209 0.950 . S
C1238 C1237 1.334 . S
C1238 C1239 1.287 . S
C1239 C1238 1.287 . S
C1239 C1240 1.524 . S
C1239 H1242 0.999 . S
C1240 H1210 0.950 . S
C1240 C1239 1.524 . S
C1240 C1241 1.415 . S
C1241 H1211 0.950 . S
C1241 C1236 1.363 . S
C1241 C1240 1.415 . S
H1242 C1239 0.999 . S
H1243 C1224 0.913 . S
H1244 C1262 0.951 . S
H1245 C1264 0.951 . S
H1246 C1266 0.950 . S
H1247 C1267 0.950 . S
H1248 C1269 0.950 . S
H1249 C1272 0.950 . S
H1250 C1273 0.950 . S
H1251 C1275 0.950 . S
H1252 C1276 0.950 . S
H1253 C1277 0.951 . S
H1254 C1279 0.951 . S
H1255 C1281 0.950 . S
H1256 C1282 0.950 . S
H1257 C1284 0.950 . S
H1258 C1287 0.950 . S
H1259 C1288 0.950 . S
H1260 C1290 0.950 . S
H1261 C1291 0.950 . S
C1262 H1244 0.951 . S
C1262 C1263 1.366 . S
C1262 C1264 1.388 . S
C1263 C1262 1.366 . S
C1263 C1267 1.385 . S
C1264 H1245 0.951 . S
C1264 C1262 1.388 . S
C1264 C1265 1.366 . S
C1265 C1264 1.366 . S
C1265 C1266 1.414 . S
C1265 C1268 1.499 . S
C1266 H1246 0.950 . S
C1266 C1265 1.414 . S
C1266 C1267 1.374 . S
C1267 H1247 0.950 . S
C1267 C1263 1.385 . S
C1267 C1266 1.374 . S
C1268 C1265 1.499 . S
C1268 C1269 1.373 . S
C1268 C1270 1.389 . S
C1269 H1248 0.950 . S
C1269 C1268 1.373 . S
C1269 C1285 1.377 . S
C1270 C1268 1.389 . S
C1270 C1271 1.524 . S
C1270 C1284 1.377 . S
C1271 C1270 1.524 . S
C1271 C1272 1.397 . S
C1271 C1276 1.363 . S
C1272 H1249 0.950 . S
C1272 C1271 1.397 . S
C1272 C1273 1.334 . S
C1273 H1250 0.950 . S
C1273 C1272 1.334 . S
C1273 C1274 1.287 . S
C1274 C1273 1.287 . S
C1274 C1275 1.524 . S
C1274 H1293 0.913 . S
C1275 H1251 0.950 . S
C1275 C1274 1.524 . S
C1275 C1276 1.415 . S
C1276 H1252 0.950 . S
C1276 C1271 1.363 . S
C1276 C1275 1.415 . S
C1277 H1253 0.951 . S
C1277 C1278 1.366 . S
C1277 C1279 1.388 . S
C1278 C1277 1.366 . S
C1278 C1282 1.385 . S
C1279 H1254 0.951 . S
C1279 C1277 1.388 . S
C1279 C1280 1.366 . S
C1280 C1279 1.366 . S
C1280 C1281 1.414 . S
C1280 C1283 1.499 . S
C1281 H1255 0.950 . S
C1281 C1280 1.414 . S
C1281 C1282 1.374 . S
C1282 H1256 0.950 . S
C1282 C1278 1.385 . S
C1282 C1281 1.374 . S
C1283 C1280 1.499 . S
C1283 C1284 1.373 . S
C1283 C1285 1.389 . S
C1284 H1257 0.950 . S
C1284 C1270 1.377 . S
C1284 C1283 1.373 . S
C1285 C1269 1.377 . S
C1285 C1283 1.389 . S
C1285 C1286 1.524 . S
C1286 C1285 1.524 . S
C1286 C1287 1.397 . S
C1286 C1291 1.363 . S
C1287 H1258 0.950 . S
C1287 C1286 1.397 . S
C1287 C1288 1.334 . S
C1288 H1259 0.950 . S
C1288 C1287 1.334 . S
C1288 C1289 1.287 . S
C1289 C1288 1.287 . S
C1289 C1290 1.524 . S
C1289 H1292 0.999 . S
C1290 H1260 0.950 . S
C1290 C1289 1.524 . S
C1290 C1291 1.415 . S
C1291 H1261 0.950 . S
C1291 C1286 1.363 . S
C1291 C1290 1.415 . S
H1292 C1289 0.999 . S
H1293 C1274 0.913 . S
H1294 C1312 0.951 . S
H1295 C1314 0.951 . S
H1296 C1316 0.950 . S
H1297 C1317 0.950 . S
H1298 C1319 0.950 . S
H1299 C1322 0.950 . S
H1300 C1323 0.950 . S
H1301 C1325 0.950 . S
H1302 C1326 0.950 . S
H1303 C1327 0.951 . S
H1304 C1329 0.951 . S
H1305 C1331 0.950 . S
H1306 C1332 0.950 . S
H1307 C1334 0.950 . S
H1308 C1337 0.950 . S
H1309 C1338 0.950 . S
H1310 C1340 0.950 . S
H1311 C1341 0.950 . S
C1312 H1294 0.951 . S
C1312 C1313 1.366 . S
C1312 C1314 1.388 . S
C1313 C1312 1.366 . S
C1313 C1317 1.385 . S
C1314 H1295 0.951 . S
C1314 C1312 1.388 . S
C1314 C1315 1.366 . S
C1315 C1314 1.366 . S
C1315 C1316 1.414 . S
C1315 C1318 1.499 . S
C1316 H1296 0.950 . S
C1316 C1315 1.414 . S
C1316 C1317 1.374 . S
C1317 H1297 0.950 . S
C1317 C1313 1.385 . S
C1317 C1316 1.374 . S
C1318 C1315 1.499 . S
C1318 C1319 1.373 . S
C1318 C1320 1.389 . S
C1319 H1298 0.950 . S
C1319 C1318 1.373 . S
C1319 C1335 1.377 . S
C1320 C1318 1.389 . S
C1320 C1321 1.524 . S
C1320 C1334 1.377 . S
C1321 C1320 1.524 . S
C1321 C1322 1.397 . S
C1321 C1326 1.363 . S
C1322 H1299 0.950 . S
C1322 C1321 1.397 . S
C1322 C1323 1.334 . S
C1323 H1300 0.950 . S
C1323 C1322 1.334 . S
C1323 C1324 1.287 . S
C1324 C1323 1.287 . S
C1324 C1325 1.524 . S
C1324 H1343 0.913 . S
C1325 H1301 0.950 . S
C1325 C1324 1.524 . S
C1325 C1326 1.415 . S
C1326 H1302 0.950 . S
C1326 C1321 1.363 . S
C1326 C1325 1.415 . S
C1327 H1303 0.951 . S
C1327 C1328 1.366 . S
C1327 C1329 1.388 . S
C1328 C1327 1.366 . S
C1328 C1332 1.385 . S
C1329 H1304 0.951 . S
C1329 C1327 1.388 . S
C1329 C1330 1.366 . S
C1330 C1329 1.366 . S
C1330 C1331 1.414 . S
C1330 C1333 1.499 . S
C1331 H1305 0.950 . S
C1331 C1330 1.414 . S
C1331 C1332 1.374 . S
C1332 H1306 0.950 . S
C1332 C1328 1.385 . S
C1332 C1331 1.374 . S
C1333 C1330 1.499 . S
C1333 C1334 1.373 . S
C1333 C1335 1.389 . S
C1334 H1307 0.950 . S
C1334 C1320 1.377 . S
C1334 C1333 1.373 . S
C1335 C1319 1.377 . S
C1335 C1333 1.389 . S
C1335 C1336 1.524 . S
C1336 C1335 1.524 . S
C1336 C1337 1.397 . S
C1336 C1341 1.363 . S
C1337 H1308 0.950 . S
C1337 C1336 1.397 . S
C1337 C1338 1.334 . S
C1338 H1309 0.950 . S
C1338 C1337 1.334 . S
C1338 C1339 1.287 . S
C1339 C1338 1.287 . S
C1339 C1340 1.524 . S
C1339 H1342 0.999 . S
C1340 H1310 0.950 . S
C1340 C1339 1.524 . S
C1340 C1341 1.415 . S
C1341 H1311 0.950 . S
C1341 C1336 1.363 . S
C1341 C1340 1.415 . S
H1342 C1339 0.999 . S
H1343 C1324 0.913 . S
H1344 C1362 0.951 . S
H1345 C1364 0.951 . S
H1346 C1366 0.950 . S
H1347 C1367 0.950 . S
H1348 C1369 0.950 . S
H1349 C1372 0.950 . S
H1350 C1373 0.950 . S
H1351 C1375 0.950 . S
H1352 C1376 0.950 . S
H1353 C1377 0.951 . S
H1354 C1379 0.951 . S
H1355 C1381 0.950 . S
H1356 C1382 0.950 . S
H1357 C1384 0.950 . S
H1358 C1387 0.950 . S
H1359 C1388 0.950 . S
H1360 C1390 0.950 . S
H1361 C1391 0.950 . S
C1362 H1344 0.951 . S
C1362 C1363 1.366 . S
C1362 C1364 1.388 . S
C1363 C1362 1.366 . S
C1363 C1367 1.385 . S
C1364 H1345 0.951 . S
C1364 C1362 1.388 . S
C1364 C1365 1.366 . S
C1365 C1364 1.366 . S
C1365 C1366 1.414 . S
C1365 C1368 1.499 . S
C1366 H1346 0.950 . S
C1366 C1365 1.414 . S
C1366 C1367 1.374 . S
C1367 H1347 0.950 . S
C1367 C1363 1.385 . S
C1367 C1366 1.374 . S
C1368 C1365 1.499 . S
C1368 C1369 1.373 . S
C1368 C1370 1.389 . S
C1369 H1348 0.950 . S
C1369 C1368 1.373 . S
C1369 C1385 1.377 . S
C1370 C1368 1.389 . S
C1370 C1371 1.524 . S
C1370 C1384 1.377 . S
C1371 C1370 1.524 . S
C1371 C1372 1.397 . S
C1371 C1376 1.363 . S
C1372 H1349 0.950 . S
C1372 C1371 1.397 . S
C1372 C1373 1.334 . S
C1373 H1350 0.950 . S
C1373 C1372 1.334 . S
C1373 C1374 1.287 . S
C1374 C1373 1.287 . S
C1374 C1375 1.524 . S
C1374 H1393 0.913 . S
C1375 H1351 0.950 . S
C1375 C1374 1.524 . S
C1375 C1376 1.415 . S
C1376 H1352 0.950 . S
C1376 C1371 1.363 . S
C1376 C1375 1.415 . S
C1377 H1353 0.951 . S
C1377 C1378 1.366 . S
C1377 C1379 1.388 . S
C1378 C1377 1.366 . S
C1378 C1382 1.385 . S
C1379 H1354 0.951 . S
C1379 C1377 1.388 . S
C1379 C1380 1.366 . S
C1380 C1379 1.366 . S
C1380 C1381 1.414 . S
C1380 C1383 1.499 . S
C1381 H1355 0.950 . S
C1381 C1380 1.414 . S
C1381 C1382 1.374 . S
C1382 H1356 0.950 . S
C1382 C1378 1.385 . S
C1382 C1381 1.374 . S
C1383 C1380 1.499 . S
C1383 C1384 1.373 . S
C1383 C1385 1.389 . S
C1384 H1357 0.950 . S
C1384 C1370 1.377 . S
C1384 C1383 1.373 . S
C1385 C1369 1.377 . S
C1385 C1383 1.389 . S
C1385 C1386 1.524 . S
C1386 C1385 1.524 . S
C1386 C1387 1.397 . S
C1386 C1391 1.363 . S
C1387 H1358 0.950 . S
C1387 C1386 1.397 . S
C1387 C1388 1.334 . S
C1388 H1359 0.950 . S
C1388 C1387 1.334 . S
C1388 C1389 1.287 . S
C1389 C1388 1.287 . S
C1389 C1390 1.524 . S
C1389 H1392 0.999 . S
C1390 H1360 0.950 . S
C1390 C1389 1.524 . S
C1390 C1391 1.415 . S
C1391 H1361 0.950 . S
C1391 C1386 1.363 . S
C1391 C1390 1.415 . S
H1392 C1389 0.999 . S
H1393 C1374 0.913 . S
H1394 C1412 0.951 . S
H1395 C1414 0.951 . S
H1396 C1416 0.950 . S
H1397 C1417 0.950 . S
H1398 C1419 0.950 . S
H1399 C1422 0.950 . S
H1400 C1423 0.950 . S
H1401 C1425 0.950 . S
H1402 C1426 0.950 . S
H1403 C1427 0.951 . S
H1404 C1429 0.951 . S
H1405 C1431 0.950 . S
H1406 C1432 0.950 . S
H1407 C1434 0.950 . S
H1408 C1437 0.950 . S
H1409 C1438 0.950 . S
H1410 C1440 0.950 . S
H1411 C1441 0.950 . S
C1412 H1394 0.951 . S
C1412 C1413 1.366 . S
C1412 C1414 1.388 . S
C1413 C1412 1.366 . S
C1413 C1417 1.385 . S
C1414 H1395 0.951 . S
C1414 C1412 1.388 . S
C1414 C1415 1.366 . S
C1415 C1414 1.366 . S
C1415 C1416 1.414 . S
C1415 C1418 1.499 . S
C1416 H1396 0.950 . S
C1416 C1415 1.414 . S
C1416 C1417 1.374 . S
C1417 H1397 0.950 . S
C1417 C1413 1.385 . S
C1417 C1416 1.374 . S
C1418 C1415 1.499 . S
C1418 C1419 1.373 . S
C1418 C1420 1.389 . S
C1419 H1398 0.950 . S
C1419 C1418 1.373 . S
C1419 C1435 1.377 . S
C1420 C1418 1.389 . S
C1420 C1421 1.524 . S
C1420 C1434 1.377 . S
C1421 C1420 1.524 . S
C1421 C1422 1.397 . S
C1421 C1426 1.363 . S
C1422 H1399 0.950 . S
C1422 C1421 1.397 . S
C1422 C1423 1.334 . S
C1423 H1400 0.950 . S
C1423 C1422 1.334 . S
C1423 C1424 1.287 . S
C1424 C1423 1.287 . S
C1424 C1425 1.524 . S
C1424 H1443 0.913 . S
C1425 H1401 0.950 . S
C1425 C1424 1.524 . S
C1425 C1426 1.415 . S
C1426 H1402 0.950 . S
C1426 C1421 1.363 . S
C1426 C1425 1.415 . S
C1427 H1403 0.951 . S
C1427 C1428 1.366 . S
C1427 C1429 1.388 . S
C1428 C1427 1.366 . S
C1428 C1432 1.385 . S
C1429 H1404 0.951 . S
C1429 C1427 1.388 . S
C1429 C1430 1.366 . S
C1430 C1429 1.366 . S
C1430 C1431 1.414 . S
C1430 C1433 1.499 . S
C1431 H1405 0.950 . S
C1431 C1430 1.414 . S
C1431 C1432 1.374 . S
C1432 H1406 0.950 . S
C1432 C1428 1.385 . S
C1432 C1431 1.374 . S
C1433 C1430 1.499 . S
C1433 C1434 1.373 . S
C1433 C1435 1.389 . S
C1434 H1407 0.950 . S
C1434 C1420 1.377 . S
C1434 C1433 1.373 . S
C1435 C1419 1.377 . S
C1435 C1433 1.389 . S
C1435 C1436 1.524 . S
C1436 C1435 1.524 . S
C1436 C1437 1.397 . S
C1436 C1441 1.363 . S
C1437 H1408 0.950 . S
C1437 C1436 1.397 . S
C1437 C1438 1.334 . S
C1438 H1409 0.950 . S
C1438 C1437 1.334 . S
C1438 C1439 1.287 . S
C1439 C1438 1.287 . S
C1439 C1440 1.524 . S
C1439 H1442 0.999 . S
C1440 H1410 0.950 . S
C1440 C1439 1.524 . S
C1440 C1441 1.415 . S
C1441 H1411 0.950 . S
C1441 C1436 1.363 . S
C1441 C1440 1.415 . S
H1442 C1439 0.999 . S
H1443 C1424 0.913 . S
H1444 C1462 0.951 . S
H1445 C1464 0.951 . S
H1446 C1466 0.950 . S
H1447 C1467 0.950 . S
H1448 C1469 0.950 . S
H1449 C1472 0.950 . S
H1450 C1473 0.950 . S
H1451 C1475 0.950 . S
H1452 C1476 0.950 . S
H1453 C1477 0.951 . S
H1454 C1479 0.951 . S
H1455 C1481 0.950 . S
H1456 C1482 0.950 . S
H1457 C1484 0.950 . S
H1458 C1487 0.950 . S
H1459 C1488 0.950 . S
H1460 C1490 0.950 . S
H1461 C1491 0.950 . S
C1462 H1444 0.951 . S
C1462 C1463 1.366 . S
C1462 C1464 1.388 . S
C1463 C1462 1.366 . S
C1463 C1467 1.385 . S
C1464 H1445 0.951 . S
C1464 C1462 1.388 . S
C1464 C1465 1.366 . S
C1465 C1464 1.366 . S
C1465 C1466 1.414 . S
C1465 C1468 1.499 . S
C1466 H1446 0.950 . S
C1466 C1465 1.414 . S
C1466 C1467 1.374 . S
C1467 H1447 0.950 . S
C1467 C1463 1.385 . S
C1467 C1466 1.374 . S
C1468 C1465 1.499 . S
C1468 C1469 1.373 . S
C1468 C1470 1.389 . S
C1469 H1448 0.950 . S
C1469 C1468 1.373 . S
C1469 C1485 1.377 . S
C1470 C1468 1.389 . S
C1470 C1471 1.524 . S
C1470 C1484 1.377 . S
C1471 C1470 1.524 . S
C1471 C1472 1.397 . S
C1471 C1476 1.363 . S
C1472 H1449 0.950 . S
C1472 C1471 1.397 . S
C1472 C1473 1.334 . S
C1473 H1450 0.950 . S
C1473 C1472 1.334 . S
C1473 C1474 1.287 . S
C1474 C1473 1.287 . S
C1474 C1475 1.524 . S
C1474 H1493 0.913 . S
C1475 H1451 0.950 . S
C1475 C1474 1.524 . S
C1475 C1476 1.415 . S
C1476 H1452 0.950 . S
C1476 C1471 1.363 . S
C1476 C1475 1.415 . S
C1477 H1453 0.951 . S
C1477 C1478 1.366 . S
C1477 C1479 1.388 . S
C1478 C1477 1.366 . S
C1478 C1482 1.385 . S
C1479 H1454 0.951 . S
C1479 C1477 1.388 . S
C1479 C1480 1.366 . S
C1480 C1479 1.366 . S
C1480 C1481 1.414 . S
C1480 C1483 1.499 . S
C1481 H1455 0.950 . S
C1481 C1480 1.414 . S
C1481 C1482 1.374 . S
C1482 H1456 0.950 . S
C1482 C1478 1.385 . S
C1482 C1481 1.374 . S
C1483 C1480 1.499 . S
C1483 C1484 1.373 . S
C1483 C1485 1.389 . S
C1484 H1457 0.950 . S
C1484 C1470 1.377 . S
C1484 C1483 1.373 . S
C1485 C1469 1.377 . S
C1485 C1483 1.389 . S
C1485 C1486 1.524 . S
C1486 C1485 1.524 . S
C1486 C1487 1.397 . S
C1486 C1491 1.363 . S
C1487 H1458 0.950 . S
C1487 C1486 1.397 . S
C1487 C1488 1.334 . S
C1488 H1459 0.950 . S
C1488 C1487 1.334 . S
C1488 C1489 1.287 . S
C1489 C1488 1.287 . S
C1489 C1490 1.524 . S
C1489 H1492 0.999 . S
C1490 H1460 0.950 . S
C1490 C1489 1.524 . S
C1490 C1491 1.415 . S
C1491 H1461 0.950 . S
C1491 C1486 1.363 . S
C1491 C1490 1.415 . S
H1492 C1489 0.999 . S
H1493 C1474 0.913 . S
H1494 C1512 0.951 . S
H1495 C1514 0.951 . S
H1496 C1516 0.950 . S
H1497 C1517 0.950 . S
H1498 C1519 0.950 . S
H1499 C1522 0.950 . S
H1500 C1523 0.950 . S
H1501 C1525 0.950 . S
H1502 C1526 0.950 . S
H1503 C1527 0.951 . S
H1504 C1529 0.951 . S
H1505 C1531 0.950 . S
H1506 C1532 0.950 . S
H1507 C1534 0.950 . S
H1508 C1537 0.950 . S
H1509 C1538 0.950 . S
H1510 C1540 0.950 . S
H1511 C1541 0.950 1_554 S
C1512 H1494 0.951 . S
C1512 C1513 1.366 1_556 S
C1512 C1514 1.388 . S
C1513 C1512 1.366 1_554 S
C1513 C1517 1.385 . S
C1514 H1495 0.951 . S
C1514 C1512 1.388 . S
C1514 C1515 1.366 . S
C1515 C1514 1.366 . S
C1515 C1516 1.414 . S
C1515 C1518 1.499 . S
C1516 H1496 0.950 . S
C1516 C1515 1.414 . S
C1516 C1517 1.374 1_556 S
C1517 H1497 0.950 . S
C1517 C1513 1.385 . S
C1517 C1516 1.374 1_554 S
C1518 C1515 1.499 . S
C1518 C1519 1.373 . S
C1518 C1520 1.389 . S
C1519 H1498 0.950 . S
C1519 C1518 1.373 . S
C1519 C1535 1.377 . S
C1520 C1518 1.389 . S
C1520 C1521 1.524 . S
C1520 C1534 1.377 . S
C1521 C1520 1.524 . S
C1521 C1522 1.397 . S
C1521 C1526 1.363 . S
C1522 H1499 0.950 . S
C1522 C1521 1.397 . S
C1522 C1523 1.334 . S
C1523 H1500 0.950 . S
C1523 C1522 1.334 . S
C1523 C1524 1.287 . S
C1524 C1523 1.287 . S
C1524 C1525 1.524 . S
C1524 H1543 0.913 . S
C1525 H1501 0.950 . S
C1525 C1524 1.524 . S
C1525 C1526 1.415 . S
C1526 H1502 0.950 . S
C1526 C1521 1.363 . S
C1526 C1525 1.415 . S
C1527 H1503 0.951 . S
C1527 C1528 1.366 . S
C1527 C1529 1.388 . S
C1528 C1527 1.366 . S
C1528 C1532 1.385 . S
C1529 H1504 0.951 . S
C1529 C1527 1.388 . S
C1529 C1530 1.366 . S
C1530 C1529 1.366 . S
C1530 C1531 1.414 . S
C1530 C1533 1.499 . S
C1531 H1505 0.950 . S
C1531 C1530 1.414 . S
C1531 C1532 1.374 . S
C1532 H1506 0.950 . S
C1532 C1528 1.385 . S
C1532 C1531 1.374 . S
C1533 C1530 1.499 . S
C1533 C1534 1.373 . S
C1533 C1535 1.389 . S
C1534 H1507 0.950 . S
C1534 C1520 1.377 . S
C1534 C1533 1.373 . S
C1535 C1519 1.377 . S
C1535 C1533 1.389 . S
C1535 C1536 1.524 . S
C1536 C1535 1.524 . S
C1536 C1537 1.397 . S
C1536 C1541 1.366 . S
C1537 H1508 0.950 . S
C1537 C1536 1.397 . S
C1537 C1538 1.334 . S
C1538 H1509 0.950 . S
C1538 C1537 1.334 . S
C1538 C1539 1.287 1_556 S
C1539 C1538 1.287 1_554 S
C1539 C1540 1.524 . S
C1539 H1542 0.999 . S
C1540 H1510 0.950 . S
C1540 C1539 1.524 . S
C1540 C1541 1.412 1_554 S
C1541 H1511 0.950 1_556 S
C1541 C1536 1.366 . S
C1541 C1540 1.412 1_556 S
H1542 C1539 0.999 . S
H1543 C1524 0.913 . S
C363 C8 1.419 . S
C378 C105 1.426 . S
C413 C31 1.188 . S
C428 C137 1.185 . S
C463 C53 1.524 . S
C478 C169 1.424 . S
C528 C213 1.342 . S
C513 C74 1.311 . S
C578 C233 1.373 . S
C563 C26 1.364 . S
C613 C48 1.322 . S
C628 C277 1.353 . S
C663 C71 1.494 . S
C678 C297 1.398 . S
C713 C5 1.220 . S
C728 C341 1.122 1_455 S
C763 C50 1.406 . S
C778 C329 1.319 . S
C828 C245 1.249 . S
C813 C70 1.253 . S
C878 C265 1.530 . S
C863 C4 1.536 . S
C913 C28 1.317 . S
C928 C309 1.263 . S
C978 C149 1.442 . S
C963 C73 1.434 . S
C1013 C7 1.315 . S
C1028 C181 1.256 . S
C1078 C201 1.492 . S
C1063 C30 1.503 . S
C1128 C117 1.225 . S
C1113 C52 1.226 . S
C1178 C303 1.286 . S
C1163 C9 1.386 . S
C1228 C335 1.201 . S
C1213 C29 1.274 . S
C1263 C51 1.275 . S
C1278 C239 1.285 . S
C1328 C271 1.423 . S
C1313 C75 1.425 . S
C1378 C175 1.304 . S
C1363 C27 1.409 . S
C1413 C49 1.391 . S
C1428 C207 1.389 . S
C1478 C111 1.307 . S
C1463 C72 1.295 . S
C1528 C143 1.283 . S
C1513 C6 1.266 . S
