# Generated by pormake.
# Topology pyr, (3,6)-cn, num edge types: 1
# Building blocks:
#     Node 0, Type 0, BuildingBlock: ESEHIV_clean_linker_0, # of connection points: 3
#     Node 1, Type 0, BuildingBlock: ESEHIV_clean_linker_0, # of connection points: 3
#     Node 2, Type 0, BuildingBlock: ESEHIV_clean_linker_0, # of connection points: 3
#     Node 3, Type 0, BuildingBlock: ESEHIV_clean_linker_0, # of connection points: 3
#     Node 4, Type 0, BuildingBlock: ESEHIV_clean_linker_0, # of connection points: 3
#     Node 5, Type 0, BuildingBlock: ESEHIV_clean_linker_0, # of connection points: 3
#     Node 6, Type 0, BuildingBlock: ESEHIV_clean_linker_0, # of connection points: 3
#     Node 7, Type 0, BuildingBlock: ESEHIV_clean_linker_0, # of connection points: 3
#     Node 8, Type 1, BuildingBlock: LEVNOQ01_clean_sbu_1, # of connection points: 6
#     Node 9, Type 1, BuildingBlock: LEVNOQ01_clean_sbu_1, # of connection points: 6
#     Node 10, Type 1, BuildingBlock: LEVNOQ01_clean_sbu_1, # of connection points: 6
#     Node 11, Type 1, BuildingBlock: LEVNOQ01_clean_sbu_1, # of connection points: 6
#     Edge 12, Type (0, 1), BuildingBlock: CIFDUS_clean_linker_0, # of connection points: 2
#     Edge 13, Type (0, 1), BuildingBlock: CIFDUS_clean_linker_0, # of connection points: 2
#     Edge 14, Type (0, 1), BuildingBlock: CIFDUS_clean_linker_0, # of connection points: 2
#     Edge 15, Type (0, 1), BuildingBlock: CIFDUS_clean_linker_0, # of connection points: 2
#     Edge 16, Type (0, 1), BuildingBlock: CIFDUS_clean_linker_0, # of connection points: 2
#     Edge 17, Type (0, 1), BuildingBlock: CIFDUS_clean_linker_0, # of connection points: 2
#     Edge 18, Type (0, 1), BuildingBlock: CIFDUS_clean_linker_0, # of connection points: 2
#     Edge 19, Type (0, 1), BuildingBlock: CIFDUS_clean_linker_0, # of connection points: 2
#     Edge 20, Type (0, 1), BuildingBlock: CIFDUS_clean_linker_0, # of connection points: 2
#     Edge 21, Type (0, 1), BuildingBlock: CIFDUS_clean_linker_0, # of connection points: 2
#     Edge 22, Type (0, 1), BuildingBlock: CIFDUS_clean_linker_0, # of connection points: 2
#     Edge 23, Type (0, 1), BuildingBlock: CIFDUS_clean_linker_0, # of connection points: 2
#     Edge 24, Type (0, 1), BuildingBlock: CIFDUS_clean_linker_0, # of connection points: 2
#     Edge 25, Type (0, 1), BuildingBlock: CIFDUS_clean_linker_0, # of connection points: 2
#     Edge 26, Type (0, 1), BuildingBlock: CIFDUS_clean_linker_0, # of connection points: 2
#     Edge 27, Type (0, 1), BuildingBlock: CIFDUS_clean_linker_0, # of connection points: 2
#     Edge 28, Type (0, 1), BuildingBlock: CIFDUS_clean_linker_0, # of connection points: 2
#     Edge 29, Type (0, 1), BuildingBlock: CIFDUS_clean_linker_0, # of connection points: 2
#     Edge 30, Type (0, 1), BuildingBlock: CIFDUS_clean_linker_0, # of connection points: 2
#     Edge 31, Type (0, 1), BuildingBlock: CIFDUS_clean_linker_0, # of connection points: 2
#     Edge 32, Type (0, 1), BuildingBlock: CIFDUS_clean_linker_0, # of connection points: 2
#     Edge 33, Type (0, 1), BuildingBlock: CIFDUS_clean_linker_0, # of connection points: 2
#     Edge 34, Type (0, 1), BuildingBlock: CIFDUS_clean_linker_0, # of connection points: 2
#     Edge 35, Type (0, 1), BuildingBlock: CIFDUS_clean_linker_0, # of connection points: 2
# Relax obj value: 0.035
# Max RMSD: 0.110
# Mean RMSD: 0.045
data_MOF--net-pry--node1-LEVNOQ01_clean_sbu_1--node2-ESEHIV_clean_linker_0--edge1-CIFDUS_clean_linker_0
_symmetry_space_group_name_H-M    P1
_symmetry_Int_Tables_number       1
_symmetry_cell_setting            triclinic
loop_
_symmetry_equiv_pos_as_xyz
'x, y, z'
_cell_length_a     30.996891
_cell_length_b     29.902924
_cell_length_c     29.738464
_cell_angle_alpha  92.669259
_cell_angle_beta   91.131301
_cell_angle_gamma 94.156385
loop_
_atom_site_label
_atom_site_type_symbol
_atom_site_fract_x
_atom_site_fract_y
_atom_site_fract_z
_atom_type_partial_charge
H0 H 0.10996 0.20883 0.18852 0.0
H1 H 0.20513 0.10992 0.18841 0.0
H2 H 0.21748 0.21948 0.09997 0.0
C3 C 0.13879 0.19522 0.17518 0.0
C4 C 0.16143 0.21816 0.14157 0.0
C5 C 0.15414 0.15593 0.19275 0.0
C6 C 0.19197 0.13907 0.17458 0.0
C7 C 0.21492 0.16176 0.14102 0.0
C8 C 0.19933 0.20119 0.12494 0.0
H9 H 0.30213 0.90865 0.65808 0.0
H10 H 0.39021 0.80713 0.68406 0.0
H11 H 0.29519 0.78522 0.57694 0.0
C12 C 0.31453 0.87637 0.64993 0.0
C13 C 0.29482 0.84866 0.61453 0.0
C14 C 0.34942 0.86195 0.67534 0.0
C15 C 0.36434 0.81954 0.6642 0.0
C16 C 0.34544 0.79206 0.62848 0.0
C17 C 0.3107 0.80682 0.60376 0.0
H18 H 0.70731 0.3078 0.88168 0.0
H19 H 0.71245 0.42315 0.80034 0.0
H20 H 0.63418 0.30433 0.75695 0.0
C21 C 0.69906 0.32345 0.85084 0.0
C22 C 0.67121 0.2996 0.8186 0.0
C23 C 0.71355 0.36842 0.84508 0.0
C24 C 0.70086 0.38883 0.80589 0.0
C25 C 0.67131 0.36659 0.77476 0.0
C26 C 0.65752 0.32152 0.78059 0.0
H27 H 0.79754 0.62983 0.45427 0.0
H28 H 0.91776 0.63513 0.38373 0.0
H29 H 0.82153 0.52789 0.35275 0.0
C30 C 0.81903 0.61524 0.43038 0.0
C31 C 0.80421 0.57661 0.40404 0.0
C32 C 0.86029 0.63678 0.42383 0.0
C33 C 0.88706 0.61788 0.39149 0.0
C34 C 0.87301 0.5789 0.36577 0.0
C35 C 0.83206 0.55808 0.37275 0.0
H36 H 0.82782 0.92626 0.82008 0.0
H37 H 0.92041 0.82609 0.81726 0.0
H38 H 0.84094 0.84187 0.93253 0.0
C39 C 0.84236 0.89885 0.83568 0.0
C40 C 0.82909 0.88626 0.87879 0.0
C41 C 0.87547 0.87756 0.8131 0.0
C42 C 0.89582 0.8435 0.83479 0.0
C43 C 0.88449 0.83109 0.87847 0.0
C44 C 0.85046 0.85206 0.89954 0.0
H45 H 0.57637 0.15719 0.34035 0.0
H46 H 0.67452 0.06396 0.33405 0.0
H47 H 0.66493 0.14973 0.45343 0.0
C48 C 0.60289 0.14209 0.3567 0.0
C49 C 0.61746 0.15767 0.40024 0.0
C50 C 0.62341 0.10854 0.33286 0.0
C51 C 0.65871 0.08994 0.3527 0.0
C52 C 0.67366 0.1041 0.39633 0.0
C53 C 0.65344 0.13865 0.41982 0.0
H54 H 0.31315 0.75667 0.12832 0.0
H55 H 0.27833 0.63119 0.1863 0.0
H56 H 0.39457 0.70864 0.23226 0.0
C57 C 0.31925 0.73272 0.15355 0.0
C58 C 0.357 0.73824 0.1808 0.0
C59 C 0.29116 0.69422 0.1553 0.0
C60 C 0.3 0.66127 0.18542 0.0
C61 C 0.33695 0.66643 0.21379 0.0
C62 C 0.36511 0.70534 0.21177 0.0
H63 H 0.03639 0.35984 0.67069 0.0
H64 H 0.1151 0.33733 0.5564 0.0
H65 H 0.14668 0.45111 0.64809 0.0
C66 C 0.063 0.37104 0.64997 0.0
C67 C 0.08968 0.40937 0.66379 0.0
C68 C 0.07219 0.34442 0.61193 0.0
C69 C 0.10711 0.35818 0.58539 0.0
C70 C 0.13415 0.39664 0.59806 0.0
C71 C 0.12513 0.42231 0.63729 0.0
O72 O 0.03289 0.97333 0.58917 0.0
Mg73 Mg 0.05214 0.01874 0.53898 0.0
O74 O 0.97055 0.9631 0.55349 0.0
Mg75 Mg 2e-05 0.98732 0.48454 0.0
O76 O 0.01403 0.06357 0.51227 0.0
O77 O 0.05743 0.07784 0.57347 0.0
O78 O 0.03285 0.0147 0.41663 0.0
O79 O 0.93282 0.01757 0.47049 0.0
Mg80 Mg 0.95941 0.94702 0.40154 0.0
O81 O 0.97681 0.91413 0.45774 0.0
O82 O 0.00756 0.97123 0.35893 0.0
O83 O 0.90316 0.9816 0.40977 0.0
O84 O 0.94753 0.88013 0.39411 0.0
C85 C 0.1062 0.97056 0.49959 0.0
C86 C -0.00624 0.95815 0.58859 0.0
C87 C 0.03087 0.0911 0.544 0.0
C88 C 0.03319 0.00311 0.37455 0.0
C89 C 0.90134 0.01039 0.44209 0.0
C90 C 0.9621 0.87786 0.43479 0.0
O91 O 0.11045 0.01243 0.50632 0.0
O92 O 0.06774 0.9517 0.49759 0.0
O93 O 0.4604 0.10613 0.04066 0.0
Mg94 Mg 0.52054 0.1037 0.00998 0.0
O95 O 0.44111 0.03796 0.01366 0.0
Mg96 Mg 0.50924 0.01585 0.98614 0.0
O97 O 0.52656 0.0808 0.94438 0.0
O98 O 0.52618 0.15363 0.9678 0.0
O99 O 0.57907 -0.00084 0.95513 0.0
O100 O 0.47334 0.98777 0.91938 0.0
Mg101 Mg 0.53278 0.93652 0.98104 0.0
O102 O 0.48792 0.95137 0.02749 0.0
O103 O 0.59871 0.9481 -0.00085 0.0
O104 O 0.51275 0.92973 0.9116 0.0
O105 O 0.51111 0.88259 0.01367 0.0
C106 C 0.57197 0.06925 0.07176 0.0
C107 C 0.43179 0.07398 0.03518 0.0
C108 C 0.53088 0.12339 0.93637 0.0
C109 C 0.60881 0.97594 0.97013 0.0
C110 C 0.48495 0.9542 0.8957 0.0
C111 C 0.48812 0.90921 0.03669 0.0
O112 O 0.57571 0.10532 0.05159 0.0
O113 O 0.54606 0.03704 0.0558 0.0
O114 O 0.41496 0.52655 0.57732 0.0
Mg115 Mg 0.4359 0.46114 0.57728 0.0
O116 O 0.44694 0.54113 0.51352 0.0
Mg117 Mg 0.46587 0.46894 0.49027 0.0
O118 O 0.49787 0.45327 0.55975 0.0
O119 O 0.47412 0.4529 0.63085 0.0
O120 O 0.48716 0.39466 0.47417 0.0
O121 O 0.53482 0.49834 0.47726 0.0
Mg122 Mg 0.47817 0.4413 0.40422 0.0
O123 O 0.4382 0.491 0.41993 0.0
O124 O 0.45716 0.37329 0.40918 0.0
O125 O 0.54517 0.46256 0.41224 0.0
O126 O 0.45098 0.46567 0.34943 0.0
C127 C 0.3749 0.41192 0.52546 0.0
C128 C 0.42589 0.554 0.54771 0.0
C129 C 0.5046 0.44817 0.60247 0.0
C130 C 0.47606 0.36336 0.44478 0.0
C131 C 0.55951 0.48825 0.44521 0.0
C132 C 0.43208 0.49252 0.3765 0.0
O133 O 0.39286 0.40543 0.56263 0.0
O134 O 0.39364 0.43886 0.49878 0.0
O135 O 0.08244 0.47493 0.07494 0.0
Mg136 Mg 0.04367 0.5314 0.08206 0.0
O137 O 0.03061 0.44654 0.02929 0.0
Mg138 Mg 0.00114 0.51561 0.017 0.0
O139 O 0.97996 0.52403 0.09572 0.0
O140 O 0.0336 0.53241 0.1479 0.0
O141 O 0.96742 0.59 0.01582 0.0
O142 O 0.93608 0.47445 0.01175 0.0
Mg143 Mg 0.97916 0.54146 0.95806 0.0
O144 O 0.01739 0.49375 0.93742 0.0
O145 O 0.006 0.60872 0.95942 0.0
O146 O 0.91154 0.52514 0.9703 0.0
O147 O 0.97466 0.52972 0.89171 0.0
C148 C 0.08422 0.59069 0.03593 0.0
C149 C 0.06428 0.44111 0.05317 0.0
C150 C -0.00704 0.5281 0.13783 0.0
C151 C 0.98088 0.62044 0.98958 0.0
C152 C 0.9046 0.48944 0.99101 0.0
C153 C 0.00245 0.50063 0.89723 0.0
O154 O 0.06473 0.59829 0.07162 0.0
O155 O 0.07155 0.55536 0.01248 0.0
H156 H 0.14009 0.06615 0.20732 0.0
H157 H 0.11943 0.19684 0.26711 0.0
H158 H 0.08374 0.16201 0.33057 0.0
H159 H 0.05562 0.09366 0.36849 0.0
H160 H 0.07531 0.96365 0.30673 0.0
H161 H 0.11492 -0.00125 0.24603 0.0
C162 C 0.12822 0.08715 0.23439 0.0
C163 C 0.13234 0.13423 0.23181 0.0
C164 C 0.10771 0.06686 0.27105 0.0
C165 C 0.11611 0.16056 0.26733 0.0
C166 C 0.09595 0.14063 0.30404 0.0
C167 C 0.06937 0.07314 0.34221 0.0
C168 C 0.06273 0.026 0.34245 0.0
C169 C 0.09126 0.09372 0.30626 0.0
C170 C 0.08002 -6e-05 0.30751 0.0
C171 C 0.10254 0.02001 0.27256 0.0
H172 H 0.43453 0.8729 0.7012 0.0
H173 H 0.30875 0.91247 0.7394 0.0
H174 H 0.34022 0.94928 0.80889 0.0
H175 H 0.40273 0.96367 0.86276 0.0
H176 H 0.52643 0.91759 0.82569 0.0
H177 H 0.49654 0.88963 0.75248 0.0
C178 C 0.41383 0.88945 0.72469 0.0
C179 C 0.36914 0.88927 0.71504 0.0
C180 C 0.43184 0.90918 0.76526 0.0
C181 C 0.34326 0.91215 0.74554 0.0
C182 C 0.36122 0.93292 0.78561 0.0
C183 C 0.42316 0.94813 0.8383 0.0
C184 C 0.46672 0.94257 0.84976 0.0
C185 C 0.40535 0.93078 0.79638 0.0
C186 C 0.49275 0.92197 0.81788 0.0
C187 C 0.47569 0.90595 0.77595 0.0
H188 H 0.65088 0.34389 0.68594 0.0
H189 H 0.64058 0.44819 0.78987 0.0
H190 H 0.59407 0.48738 0.74114 0.0
H191 H 0.54726 0.48602 0.67456 0.0
H192 H 0.55391 0.3821 0.5703 0.0
H193 H 0.61143 0.34913 0.61298 0.0
C194 C 0.63893 0.37554 0.69747 0.0
C195 C 0.64906 0.39291 0.74152 0.0
C196 C 0.61139 0.39783 0.66935 0.0
C197 C 0.63376 0.43423 0.75599 0.0
C198 C 0.60683 0.4566 0.72828 0.0
C199 C 0.56226 0.45685 0.66071 0.0
C200 C 0.54647 0.43605 0.61996 0.0
C201 C 0.59425 0.43789 0.68568 0.0
C202 C 0.56596 0.39858 0.60176 0.0
C203 C 0.59838 0.37952 0.62638 0.0
H204 H 0.84743 0.56074 0.2786 0.0
H205 H 0.95784 0.56193 0.3694 0.0
H206 H 0.00354 0.54192 0.30662 0.0
H207 H 0.01295 0.52951 0.22643 0.0
H208 H 0.90435 0.5321 0.13359 0.0
H209 H 0.85653 0.54434 0.19712 0.0
C210 C 0.88137 0.55584 0.28458 0.0
C211 C 0.89945 0.56272 0.32841 0.0
C212 C 0.90755 0.54524 0.24818 0.0
C213 C 0.94347 0.557 0.33586 0.0
C214 C 0.96948 0.54556 0.30006 0.0
C215 C 0.97876 0.53246 0.2198 0.0
C216 C 0.9623 0.53038 0.17522 0.0
C217 C 0.952 0.54048 0.2561 0.0
C218 C 0.91784 0.53373 0.16756 0.0
C219 C 0.89059 0.5409 0.20384 0.0
H220 H 0.23696 0.08169 0.10028 0.0
H221 H 0.29006 0.21268 0.14921 0.0
H222 H 0.36112 0.19614 0.12219 0.0
H223 H 0.4075 0.14678 0.08266 0.0
H224 H 0.35735 0.0158 0.03055 0.0
H225 H 0.28594 0.02992 0.06072 0.0
C226 C 0.2643 0.10629 0.10524 0.0
C227 C 0.25821 0.14853 0.12659 0.0
C228 C 0.30544 0.09673 0.08878 0.0
C229 C 0.29382 0.18018 0.13264 0.0
C230 C 0.33447 0.17074 0.11718 0.0
C231 C 0.38117 0.12098 0.07772 0.0
C232 C 0.38806 0.08027 0.05396 0.0
C233 C 0.34053 0.12947 0.09478 0.0
C234 C 0.35317 0.04751 0.04846 0.0
C235 C 0.31229 0.05563 0.06577 0.0
H236 H 0.28961 0.9179 0.55952 0.0
H237 H 0.21346 0.80857 0.61508 0.0
H238 H 0.14793 0.8324 0.57844 0.0
H239 H 0.11147 0.88894 0.53631 0.0
H240 H 0.18863 -0.00235 0.48025 0.0
H241 H 0.2545 0.96883 0.50991 0.0
C242 C 0.25863 0.89929 0.56324 0.0
C243 C 0.25597 0.86207 0.59033 0.0
C244 C 0.22132 0.91283 0.54158 0.0
C245 C 0.21596 0.8376 0.59455 0.0
C246 C 0.17859 0.85115 0.57355 0.0
C247 C 0.14281 0.90541 0.52937 0.0
C248 C 0.14512 0.94547 0.50624 0.0
C249 C 0.18071 0.8892 0.54754 0.0
C250 C 0.18598 0.96678 0.49803 0.0
C251 C 0.22369 0.95058 0.51535 0.0
H252 H 0.77704 0.34093 0.90077 0.0
H253 H 0.70794 0.45687 0.87113 0.0
H254 H 0.75791 0.50439 0.91965 0.0
H255 H 0.827 0.51466 0.96179 0.0
H256 H 0.89371 0.39856 0.99536 0.0
H257 H 0.83763 0.34939 0.95593 0.0
C258 C 0.77219 0.37634 0.90566 0.0
C259 C 0.73985 0.39543 0.88058 0.0
C260 C 0.8005 0.40359 0.93459 0.0
C261 C 0.73389 0.44146 0.88807 0.0
C262 C 0.76213 0.46872 0.91632 0.0
C263 C 0.82856 0.47852 0.96158 0.0
C264 C 0.86479 0.46038 0.98066 0.0
C265 C 0.79652 0.45043 0.93836 0.0
C266 C 0.86619 0.41346 0.98074 0.0
C267 C 0.83437 0.38527 0.95772 0.0
H268 H 0.7526 0.56787 0.47756 0.0
H269 H 0.75202 0.54524 0.33292 0.0
H270 H 0.67743 0.51464 0.33354 0.0
H271 H 0.61191 0.4953 0.37422 0.0
H272 H 0.60909 0.52234 0.51786 0.0
H273 H 0.68513 0.55117 0.51834 0.0
C274 C 0.73608 0.55656 0.44616 0.0
C275 C 0.75841 0.55816 0.40542 0.0
C276 C 0.69244 0.54007 0.44644 0.0
C277 C 0.73633 0.54317 0.36505 0.0
C278 C 0.69339 0.52607 0.3652 0.0
C279 C 0.62792 0.50739 0.4057 0.0
C280 C 0.60504 0.50653 0.44593 0.0
C281 C 0.67119 0.52434 0.40563 0.0
C282 C 0.62606 0.52281 0.48637 0.0
C283 C 0.66953 0.53916 0.48668 0.0
H284 H 0.08876 0.23734 0.09386 0.0
H285 H 0.20668 0.29839 0.15598 0.0
H286 H 0.18859 0.37209 0.13212 0.0
H287 H 0.13857 0.41971 0.09526 0.0
H288 H 0.02156 0.35924 0.03027 0.0
H289 H 0.04021 0.28515 0.05265 0.0
C290 C 0.11028 0.26691 0.10219 0.0
C291 C 0.1488 0.26257 0.1271 0.0
C292 C 0.10004 0.3093 0.08744 0.0
C293 C 0.17678 0.30098 0.1371 0.0
C294 C 0.16649 0.3431 0.12335 0.0
C295 C 0.1173 0.39032 0.08549 0.0
C296 C 0.07861 0.39536 0.06106 0.0
C297 C 0.12818 0.34775 0.0986 0.0
C298 C 0.05166 0.35661 0.04876 0.0
C299 C 0.06216 0.31414 0.06189 0.0
H300 H 0.58684 0.26838 0.80878 0.0
H301 H 0.71206 0.22922 0.85098 0.0
H302 H 0.67815 0.16101 0.88132 0.0
H303 H 0.61229 0.1216 0.9091 0.0
H304 H 0.4876 0.16546 0.87299 0.0
H305 H 0.52166 0.22126 0.8248 0.0
C306 C 0.60692 0.2442 0.82315 0.0
C307 C 0.65188 0.25418 0.82821 0.0
C308 C 0.58711 0.20567 0.84143 0.0
C309 C 0.67729 0.22268 0.84749 0.0
C310 C 0.65793 0.18363 0.8647 0.0
C311 C 0.59265 0.14185 0.8887 0.0
C312 C 0.54764 0.13932 0.89387 0.0
C313 C 0.61274 0.17586 0.86369 0.0
C314 C 0.52228 0.16647 0.86865 0.0
C315 C 0.54185 0.19889 0.84183 0.0
H316 H 0.94156 0.67294 0.45004 0.0
H317 H 0.80762 0.70451 0.44427 0.0
H318 H 0.82913 0.78294 0.46123 0.0
H319 H 0.88549 0.84401 0.45941 0.0
H320 H 0.0192 0.81507 0.45262 0.0
H321 H -0.00131 0.73472 0.45886 0.0
C322 C 0.91698 0.69686 0.45284 0.0
C323 C 0.87298 0.68237 0.44481 0.0
C324 C 0.92972 0.74279 0.45985 0.0
C325 C 0.84166 0.71392 0.45035 0.0
C326 C 0.85397 0.75922 0.45957 0.0
C327 C 0.91017 0.82013 0.46129 0.0
C328 C 0.95365 0.83495 0.45598 0.0
C329 C 0.89784 0.77421 0.4619 0.0
C330 C 0.98558 0.80416 0.45744 0.0
C331 C 0.97371 0.75826 0.46029 0.0
H332 H 0.37169 0.75473 0.54884 0.0
H333 H 0.35177 0.72746 0.68836 0.0
H334 H 0.37542 0.65197 0.6754 0.0
H335 H 0.401 0.59391 0.62503 0.0
H336 H 0.42413 0.61982 0.48573 0.0
H337 H 0.40031 0.69588 0.49794 0.0
C338 C 0.37253 0.73206 0.57621 0.0
C339 C 0.36004 0.74647 0.61951 0.0
C340 C 0.3868 0.68872 0.56861 0.0
C341 C 0.36154 0.71713 0.6549 0.0
C342 C 0.37495 0.67399 0.64748 0.0
C343 C 0.40086 0.61605 0.59715 0.0
C344 C 0.41393 0.60096 0.55436 0.0
C345 C 0.38759 0.65949 0.60456 0.0
C346 C 0.41411 0.6305 0.51894 0.0
C347 C 0.40039 0.67394 0.52593 0.0
H348 H 0.95768 0.88433 0.78088 0.0
H349 H 0.82559 0.9028 0.74188 0.0
H350 H 0.84942 0.92715 0.66838 0.0
H351 H 0.90869 0.9452 0.61514 0.0
H352 H 0.04003 0.92492 0.65588 0.0
H353 H 0.01534 0.89823 0.72755 0.0
C354 C 0.93381 0.8929 0.7562 0.0
C355 C 0.88976 0.89158 0.76743 0.0
C356 C 0.94765 0.90649 0.71377 0.0
C357 C 0.85978 0.90398 0.73483 0.0
C358 C 0.87337 0.91765 0.69248 0.0
C359 C 0.93177 0.93437 0.63948 0.0
C360 C 0.97628 0.93734 0.62984 0.0
C361 C 0.91734 0.9193 0.68152 0.0
C362 C 0.00566 0.92339 0.66216 0.0
C363 C 0.99159 0.90811 0.7034 0.0
H364 H 0.67059 0.10871 0.25728 0.0
H365 H 0.54265 0.07534 0.30551 0.0
H366 H 0.51689 0.05334 0.22865 0.0
H367 H 0.52962 0.0493 0.14713 0.0
H368 H 0.65537 0.0911 0.09833 0.0
H369 H 0.68369 0.10319 0.17584 0.0
C370 C 0.63722 0.09614 0.25083 0.0
C371 C 0.60846 0.09354 0.28669 0.0
C372 C 0.62247 0.08487 0.2065 0.0
C373 C 0.56517 0.07778 0.27817 0.0
C374 C 0.55054 0.06511 0.23436 0.0
C375 C 0.56346 0.05996 0.15369 0.0
C376 C 0.59073 0.0686 0.11747 0.0
C377 C 0.57874 0.06914 0.19819 0.0
C378 C 0.63414 0.08376 0.12596 0.0
C379 C 0.65015 0.09097 0.17016 0.0
H380 H 0.36181 0.66857 0.30292 0.0
H381 H 0.33866 0.57937 0.18527 0.0
H382 H 0.36144 0.51671 0.22707 0.0
H383 H 0.39291 0.48831 0.29473 0.0
H384 H 0.41679 0.57558 0.41339 0.0
H385 H 0.38788 0.63772 0.37404 0.0
C386 C 0.36161 0.63531 0.2867 0.0
C387 C 0.34866 0.6286 0.24106 0.0
C388 C 0.37468 0.59913 0.31111 0.0
C389 C 0.34813 0.58531 0.22043 0.0
C390 C 0.36129 0.54948 0.24425 0.0
C391 C 0.39126 0.52078 0.31224 0.0
C392 C 0.40728 0.52753 0.35674 0.0
C393 C 0.37521 0.55614 0.2893 0.0
C394 C 0.40446 0.56957 0.37917 0.0
C395 C 0.38834 0.60517 0.35651 0.0
H396 H 0.01253 0.42435 0.70048 0.0
H397 H 0.14992 0.44442 0.72821 0.0
H398 H 0.13596 0.47141 0.80524 0.0
H399 H 0.08353 0.48799 0.86557 0.0
H400 H 0.94713 0.45929 0.83681 0.0
H401 H 0.96207 0.43374 0.76029 0.0
C402 C 0.03964 0.43388 0.7234 0.0
C403 C 0.08217 0.43188 0.70843 0.0
C404 C 0.03153 0.44645 0.76806 0.0
C405 C 0.11673 0.44613 0.73842 0.0
C406 C 0.1088 0.46081 0.7828 0.0
C407 C 0.05743 0.47479 0.8428 0.0
C408 C 0.01435 0.47506 0.85664 0.0
C409 C 0.06625 0.46046 0.79826 0.0
C410 C 0.98055 0.45895 0.82676 0.0
C411 C 0.98898 0.44489 0.78289 0.0
H412 H 0.75735 0.92244 0.84188 0.0
H413 H 0.82003 0.90308 0.97003 0.0
H414 H 0.75913 0.93185 0.00911 0.0
H415 H 0.68549 0.95742 0.00758 0.0
H416 H 0.62519 0.98356 0.88063 0.0
H417 H 0.68858 0.95931 0.84076 0.0
C418 C 0.75847 0.9253 0.87833 0.0
C419 C 0.79334 0.90886 0.9025 0.0
C420 C 0.72372 0.94363 0.90106 0.0
C421 C 0.79327 0.9132 0.94995 0.0
C422 C 0.75853 0.93038 0.97261 0.0
C423 C 0.68668 0.95881 0.97123 0.0
C424 C 0.65061 0.97218 0.94713 0.0
C425 C 0.7232 0.94481 0.94857 0.0
C426 C 0.65264 0.97387 0.90005 0.0
C427 C 0.68873 0.95946 0.87721 0.0
H428 H 0.75105 0.14139 0.43255 0.0
H429 H 0.6777 0.01487 0.4034 0.0
H430 H 0.74142 0.97449 0.41892 0.0
H431 H 0.81959 0.97527 0.43091 0.0
H432 H 0.89453 0.10016 0.46218 0.0
H433 H 0.82879 0.14113 0.45623 0.0
C434 C 0.74891 0.105 0.43086 0.0
C435 C 0.70993 0.08111 0.41617 0.0
C436 C 0.78608 0.08178 0.4395 0.0
C437 C 0.70752 0.03393 0.41404 0.0
C438 C 0.74396 0.01082 0.42276 0.0
C439 C 0.82138 0.01142 0.43708 0.0
C440 C 0.86171 0.03483 0.44627 0.0
C441 C 0.78368 0.03441 0.43383 0.0
C442 C 0.8637 0.08152 0.45494 0.0
C443 C 0.82617 0.1049 0.45132 0.0
H444 H 0.27405 0.62538 0.09385 0.0
H445 H 0.22537 0.74834 0.14605 0.0
H446 H 0.15847 0.73226 0.10122 0.0
H447 H 0.10964 0.67648 0.0592 0.0
H448 H 0.15709 0.55201 0.00946 0.0
H449 H 0.22955 0.57633 0.03909 0.0
C450 C 0.2489 0.6488 0.09476 0.0
C451 C 0.25368 0.68728 0.12386 0.0
C452 C 0.2107 0.63927 0.06896 0.0
C453 C 0.22175 0.71818 0.12424 0.0
C454 C 0.18369 0.70905 0.09861 0.0
C455 C 0.13637 0.6556 0.0532 0.0
C456 C 0.12812 0.61232 0.03304 0.0
C457 C 0.17719 0.66884 0.07233 0.0
C458 C 0.16276 0.58552 0.02491 0.0
C459 C 0.20399 0.59904 0.04268 0.0
H460 H 0.19097 0.33688 0.57111 0.0
H461 H 0.1693 0.47779 0.57173 0.0
H462 H 0.2404 0.4937 0.53904 0.0
H463 H 0.31198 0.4684 0.51989 0.0
H464 H 0.33498 0.32851 0.52649 0.0
H465 H 0.25917 0.31071 0.54462 0.0
C466 C 0.20122 0.37094 0.56296 0.0
C467 C 0.17493 0.40616 0.57382 0.0
C468 C 0.24222 0.3798 0.54503 0.0
C469 C 0.18919 0.45023 0.56406 0.0
C470 C 0.22969 0.45926 0.5452 0.0
C471 C 0.29974 0.43385 0.52349 0.0
C472 C 0.32839 0.39956 0.52115 0.0
C473 C 0.25692 0.42445 0.53667 0.0
C474 C 0.313 0.3551 0.5274 0.0
C475 C 0.26993 0.34512 0.53837 0.0
H476 H 0.85473 0.76638 0.93681 0.0
H477 H 0.97127 0.82005 0.87515 0.0
H478 H 0.01202 0.76327 0.90883 0.0
H479 H 0.01414 0.69494 0.95079 0.0
H480 H 0.89918 0.64094 0.01415 0.0
H481 H 0.85903 0.70241 0.98673 0.0
C482 C 0.88916 0.76626 0.93123 0.0
C483 C 0.90934 0.79729 0.90222 0.0
C484 C 0.913 0.73362 0.95154 0.0
C485 C 0.95416 0.796 0.89575 0.0
C486 C 0.9778 0.76373 0.91553 0.0
C487 C 0.98052 0.69716 0.95957 0.0
C488 C 0.95978 0.66323 0.98453 0.0
C489 C 0.95746 0.7319 0.94276 0.0
C490 C 0.91619 0.66675 0.99552 0.0
C491 C 0.89304 0.70162 0.97922 0.0
H492 H 0.34644 0.82541 0.16131 0.0
H493 H 0.44372 0.73019 0.17475 0.0
H494 H 0.49536 0.77947 0.13669 0.0
H495 H 0.5084 0.84165 0.0874 0.0
H496 H 0.41091 0.93532 0.06877 0.0
H497 H 0.36362 0.89446 0.12069 0.0
C498 C 0.3792 0.81587 0.15661 0.0
C499 C 0.39085 0.77372 0.17019 0.0
C500 C 0.40831 0.84353 0.13278 0.0
C501 C 0.43374 0.76237 0.16492 0.0
C502 C 0.46322 0.79028 0.1425 0.0
C503 C 0.47699 0.85347 0.09517 0.0
C504 C 0.46253 0.89059 0.07357 0.0
C505 C 0.4501 0.82964 0.12433 0.0
C506 C 0.4224 0.90644 0.08473 0.0
C507 C 0.3954 0.88301 0.11424 0.0
H508 H 0.0479 0.29852 0.53218 0.0
H509 H 0.04911 0.28637 0.67661 0.0
H510 H 0.02566 0.20777 0.66693 0.0
H511 H 0.01874 0.14012 0.61876 0.0
H512 H 0.02442 0.14779 0.47475 0.0
H513 H 0.03085 0.23021 0.48275 0.0
C514 C 0.04251 0.27873 0.56146 0.0
C515 C 0.0505 0.29863 0.60499 0.0
C516 C 0.03076 0.23252 0.55576 0.0
C517 C 0.0426 0.2726 0.64264 0.0
C518 C 0.02963 0.22726 0.63724 0.0
C519 C 0.0203 0.15998 0.5891 0.0
C520 C 0.02192 0.13854 0.54643 0.0
C521 C 0.02555 0.20662 0.59413 0.0
C522 C 0.02322 0.16403 0.50799 0.0
C523 C 0.02738 0.21099 0.51264 0.0
H524 H 0.53109 0.16905 0.4017 0.0
H525 H 0.65431 0.23062 0.4507 0.0
H526 H 0.61931 0.29765 0.47657 0.0
H527 H 0.55554 0.34303 0.47463 0.0
H528 H 0.43487 0.28355 0.41704 0.0
H529 H 0.46684 0.21171 0.40504 0.0
C530 C 0.55039 0.19705 0.41816 0.0
C531 C 0.59551 0.19497 0.42337 0.0
C532 C 0.5304 0.23616 0.43109 0.0
C533 C 0.6196 0.2311 0.44616 0.0
C534 C 0.59962 0.26969 0.4606 0.0
C535 C 0.53603 0.31394 0.4606 0.0
C536 C 0.49285 0.31842 0.44682 0.0
C537 C 0.5553 0.27322 0.45182 0.0
C538 C 0.4681 0.28079 0.42792 0.0
C539 C 0.48645 0.23982 0.42086 0.0
loop_
_geom_bond_atom_site_label_1
_geom_bond_atom_site_label_2
_geom_bond_distance
_geom_bond_site_symmetry_2
_ccdc_geom_bond_type
H0 C3 0.931 . S
H1 C6 0.928 . S
H2 C8 0.930 . S
C3 H0 0.931 . S
C3 C4 1.413 . S
C3 C5 1.360 . S
C4 C3 1.413 . S
C4 C8 1.429 . S
C5 C3 1.360 . S
C5 C6 1.372 . S
C6 H1 0.928 . S
C6 C5 1.372 . S
C6 C7 1.404 . S
C7 C6 1.404 . S
C7 C8 1.391 . S
C8 H2 0.930 . S
C8 C4 1.429 . S
C8 C7 1.391 . S
H9 C12 0.931 . S
H10 C15 0.928 . S
H11 C17 0.930 . S
C12 H9 0.931 . S
C12 C13 1.413 . S
C12 C14 1.360 . S
C13 C12 1.413 . S
C13 C17 1.429 . S
C14 C12 1.360 . S
C14 C15 1.372 . S
C15 H10 0.928 . S
C15 C14 1.372 . S
C15 C16 1.404 . S
C16 C15 1.404 . S
C16 C17 1.391 . S
C17 H11 0.930 . S
C17 C13 1.429 . S
C17 C16 1.391 . S
H18 C21 0.931 . S
H19 C24 0.928 . S
H20 C26 0.930 . S
C21 H18 0.931 . S
C21 C22 1.413 . S
C21 C23 1.360 . S
C22 C21 1.413 . S
C22 C26 1.429 . S
C23 C21 1.360 . S
C23 C24 1.372 . S
C24 H19 0.928 . S
C24 C23 1.372 . S
C24 C25 1.404 . S
C25 C24 1.404 . S
C25 C26 1.391 . S
C26 H20 0.930 . S
C26 C22 1.429 . S
C26 C25 1.391 . S
H27 C30 0.931 . S
H28 C33 0.928 . S
H29 C35 0.930 . S
C30 H27 0.931 . S
C30 C31 1.413 . S
C30 C32 1.360 . S
C31 C30 1.413 . S
C31 C35 1.429 . S
C32 C30 1.360 . S
C32 C33 1.372 . S
C33 H28 0.928 . S
C33 C32 1.372 . S
C33 C34 1.404 . S
C34 C33 1.404 . S
C34 C35 1.391 . S
C35 H29 0.930 . S
C35 C31 1.429 . S
C35 C34 1.391 . S
H36 C39 0.931 . S
H37 C42 0.928 . S
H38 C44 0.930 . S
C39 H36 0.931 . S
C39 C40 1.413 . S
C39 C41 1.360 . S
C40 C39 1.413 . S
C40 C44 1.429 . S
C41 C39 1.360 . S
C41 C42 1.372 . S
C42 H37 0.928 . S
C42 C41 1.372 . S
C42 C43 1.404 . S
C43 C42 1.404 . S
C43 C44 1.391 . S
C44 H38 0.930 . S
C44 C40 1.429 . S
C44 C43 1.391 . S
H45 C48 0.931 . S
H46 C51 0.928 . S
H47 C53 0.930 . S
C48 H45 0.931 . S
C48 C49 1.413 . S
C48 C50 1.360 . S
C49 C48 1.413 . S
C49 C53 1.429 . S
C50 C48 1.360 . S
C50 C51 1.372 . S
C51 H46 0.928 . S
C51 C50 1.372 . S
C51 C52 1.404 . S
C52 C51 1.404 . S
C52 C53 1.391 . S
C53 H47 0.930 . S
C53 C49 1.429 . S
C53 C52 1.391 . S
H54 C57 0.931 . S
H55 C60 0.928 . S
H56 C62 0.930 . S
C57 H54 0.931 . S
C57 C58 1.413 . S
C57 C59 1.360 . S
C58 C57 1.413 . S
C58 C62 1.429 . S
C59 C57 1.360 . S
C59 C60 1.372 . S
C60 H55 0.928 . S
C60 C59 1.372 . S
C60 C61 1.404 . S
C61 C60 1.404 . S
C61 C62 1.391 . S
C62 H56 0.930 . S
C62 C58 1.429 . S
C62 C61 1.391 . S
H63 C66 0.931 . S
H64 C69 0.928 . S
H65 C71 0.930 . S
C66 H63 0.931 . S
C66 C67 1.413 . S
C66 C68 1.360 . S
C67 C66 1.413 . S
C67 C71 1.429 . S
C68 C66 1.360 . S
C68 C69 1.372 . S
C69 H64 0.928 . S
C69 C68 1.372 . S
C69 C70 1.404 . S
C70 C69 1.404 . S
C70 C71 1.391 . S
C71 H65 0.930 . S
C71 C67 1.429 . S
C71 C70 1.391 . S
O72 Mg73 1.990 . S
O72 C86 1.253 1_445 S
Mg73 O72 1.990 . S
Mg73 O76 2.180 . S
Mg73 O77 2.117 . S
Mg73 O91 2.030 1_545 S
O74 Mg75 2.072 1_665 S
O74 C86 1.260 . S
Mg75 O74 2.072 1_445 S
Mg75 O76 2.099 . S
Mg75 O78 2.079 . S
Mg75 O79 2.072 1_455 S
Mg75 O81 2.099 1_445 S
Mg75 O92 2.079 1_545 S
O76 Mg73 2.180 . S
O76 Mg75 2.099 . S
O76 C87 1.279 . S
O77 Mg73 2.117 . S
O77 C87 1.250 . S
O78 Mg75 2.079 . S
O78 C88 1.264 . S
O79 Mg75 2.072 1_655 S
O79 C89 1.260 . S
Mg80 O81 2.180 . S
Mg80 O82 2.030 1_565 S
Mg80 O83 1.990 1_565 S
Mg80 O84 2.117 . S
O81 Mg75 2.099 1_665 S
O81 Mg80 2.180 . S
O81 C90 1.279 . S
O82 Mg80 2.030 1_545 S
O82 C88 1.248 1_655 S
O83 Mg80 1.990 1_545 S
O83 C89 1.253 . S
O84 Mg80 2.117 . S
O84 C90 1.250 . S
C85 O91 1.248 . S
C85 O92 1.264 . S
C86 O72 1.253 1_665 S
C86 O74 1.260 . S
C87 O76 1.279 . S
C87 O77 1.250 . S
C88 O78 1.264 . S
C88 O82 1.248 1_455 S
C89 O79 1.260 . S
C89 O83 1.253 . S
C90 O81 1.279 . S
C90 O84 1.250 . S
O91 Mg73 2.030 1_565 S
O91 C85 1.248 . S
O92 Mg75 2.079 1_565 S
O92 C85 1.264 . S
O93 Mg94 1.990 . S
O93 C107 1.253 . S
Mg94 O93 1.990 . S
Mg94 O97 2.180 1_554 S
Mg94 O98 2.117 1_554 S
Mg94 O112 2.030 . S
O95 Mg96 2.072 . S
O95 C107 1.260 . S
Mg96 O95 2.072 . S
Mg96 O97 2.099 1_554 S
Mg96 O99 2.079 1_544 S
Mg96 O100 2.072 1_554 S
Mg96 O102 2.099 1_545 S
Mg96 O113 2.079 . S
O97 Mg94 2.180 1_556 S
O97 Mg96 2.099 1_556 S
O97 C108 1.279 . S
O98 Mg94 2.117 1_556 S
O98 C108 1.250 . S
O99 Mg96 2.079 1_566 S
O99 C109 1.264 . S
O100 Mg96 2.072 1_556 S
O100 C110 1.260 1_545 S
Mg101 O102 2.180 1_556 S
Mg101 O103 2.030 . S
Mg101 O104 1.990 . S
Mg101 O105 2.117 1_556 S
O102 Mg96 2.099 1_565 S
O102 Mg101 2.180 1_554 S
O102 C111 1.279 . S
O103 Mg101 2.030 . S
O103 C109 1.248 . S
O104 Mg101 1.990 . S
O104 C110 1.253 . S
O105 Mg101 2.117 1_554 S
O105 C111 1.250 . S
C106 O112 1.248 . S
C106 O113 1.264 . S
C107 O93 1.253 . S
C107 O95 1.260 . S
C108 O97 1.279 . S
C108 O98 1.250 . S
C109 O99 1.264 . S
C109 O103 1.248 . S
C110 O100 1.260 1_565 S
C110 O104 1.253 . S
C111 O102 1.279 . S
C111 O105 1.250 . S
O112 Mg94 2.030 . S
O112 C106 1.248 . S
O113 Mg96 2.079 . S
O113 C106 1.264 . S
O114 Mg115 1.990 . S
O114 C128 1.253 . S
Mg115 O114 1.990 . S
Mg115 O118 2.180 . S
Mg115 O119 2.117 . S
Mg115 O133 2.030 . S
O116 Mg117 2.072 . S
O116 C128 1.260 . S
Mg117 O116 2.072 . S
Mg117 O118 2.099 . S
Mg117 O120 2.079 . S
Mg117 O121 2.072 . S
Mg117 O123 2.099 . S
Mg117 O134 2.079 . S
O118 Mg115 2.180 . S
O118 Mg117 2.099 . S
O118 C129 1.279 . S
O119 Mg115 2.117 . S
O119 C129 1.250 . S
O120 Mg117 2.079 . S
O120 C130 1.264 . S
O121 Mg117 2.072 . S
O121 C131 1.260 . S
Mg122 O123 2.180 . S
Mg122 O124 2.030 . S
Mg122 O125 1.990 . S
Mg122 O126 2.117 . S
O123 Mg117 2.099 . S
O123 Mg122 2.180 . S
O123 C132 1.279 . S
O124 Mg122 2.030 . S
O124 C130 1.248 . S
O125 Mg122 1.990 . S
O125 C131 1.253 . S
O126 Mg122 2.117 . S
O126 C132 1.250 . S
C127 O133 1.248 . S
C127 O134 1.264 . S
C128 O114 1.253 . S
C128 O116 1.260 . S
C129 O118 1.279 . S
C129 O119 1.250 . S
C130 O120 1.264 . S
C130 O124 1.248 . S
C131 O121 1.260 . S
C131 O125 1.253 . S
C132 O123 1.279 . S
C132 O126 1.250 . S
O133 Mg115 2.030 . S
O133 C127 1.248 . S
O134 Mg117 2.079 . S
O134 C127 1.264 . S
O135 Mg136 1.990 . S
O135 C149 1.253 . S
Mg136 O135 1.990 . S
Mg136 O139 2.180 1_455 S
Mg136 O140 2.117 1_455 S
Mg136 O154 2.030 . S
O137 Mg138 2.072 . S
O137 C149 1.260 . S
Mg138 O137 2.072 . S
Mg138 O139 2.099 1_455 S
Mg138 O141 2.079 1_454 S
Mg138 O142 2.073 1_455 S
Mg138 O144 2.099 1_554 S
Mg138 O155 2.079 . S
O139 Mg136 2.180 1_655 S
O139 Mg138 2.099 1_655 S
O139 C150 1.279 . S
O140 Mg136 2.117 1_655 S
O140 C150 1.250 . S
O141 Mg138 2.079 1_656 S
O141 C151 1.264 . S
O142 Mg138 2.073 1_655 S
O142 C152 1.253 1_554 S
Mg143 O144 2.180 1_655 S
Mg143 O145 2.030 . S
Mg143 O146 1.990 . S
Mg143 O147 2.123 . S
O144 Mg138 2.099 1_556 S
O144 Mg143 2.180 1_455 S
O144 C153 1.279 . S
O145 Mg143 2.030 . S
O145 C151 1.248 . S
O146 Mg143 1.990 . S
O146 C152 1.253 . S
O147 Mg143 2.123 . S
O147 C153 1.245 1_655 S
C148 O154 1.248 . S
C148 O155 1.264 . S
C149 O135 1.253 . S
C149 O137 1.260 . S
C150 O139 1.279 . S
C150 O140 1.250 . S
C151 O141 1.264 . S
C151 O145 1.248 . S
C152 O142 1.253 1_556 S
C152 O146 1.253 . S
C153 O144 1.279 . S
C153 O147 1.245 1_455 S
O154 Mg136 2.030 . S
O154 C148 1.248 . S
O155 Mg138 2.079 . S
O155 C148 1.264 . S
H156 C162 0.930 . S
H157 C165 0.930 . S
H158 C166 0.930 . S
H159 C167 0.930 . S
H160 C170 0.930 1_565 S
H161 C171 0.930 . S
C162 H156 0.930 . S
C162 C163 1.355 . S
C162 C164 1.415 . S
C163 C162 1.355 . S
C163 C165 1.419 . S
C164 C162 1.415 . S
C164 C169 1.425 . S
C164 C171 1.409 . S
C165 H157 0.930 . S
C165 C163 1.419 . S
C165 C166 1.362 . S
C166 H158 0.930 . S
C166 C165 1.362 . S
C166 C169 1.409 . S
C167 H159 0.930 . S
C167 C168 1.355 . S
C167 C169 1.415 . S
C168 C167 1.355 . S
C168 C170 1.419 . S
C169 C164 1.425 . S
C169 C166 1.409 . S
C169 C167 1.415 . S
C170 H160 0.930 1_545 S
C170 C168 1.419 . S
C170 C171 1.362 . S
C171 H161 0.930 . S
C171 C164 1.409 . S
C171 C170 1.362 . S
H172 C178 0.930 . S
H173 C181 0.930 . S
H174 C182 0.930 . S
H175 C183 0.930 . S
H176 C186 0.930 . S
H177 C187 0.930 . S
C178 H172 0.930 . S
C178 C179 1.355 . S
C178 C180 1.415 . S
C179 C178 1.355 . S
C179 C181 1.419 . S
C180 C178 1.415 . S
C180 C185 1.425 . S
C180 C187 1.409 . S
C181 H173 0.930 . S
C181 C179 1.419 . S
C181 C182 1.362 . S
C182 H174 0.930 . S
C182 C181 1.362 . S
C182 C185 1.409 . S
C183 H175 0.930 . S
C183 C184 1.355 . S
C183 C185 1.415 . S
C184 C183 1.355 . S
C184 C186 1.419 . S
C185 C180 1.425 . S
C185 C182 1.409 . S
C185 C183 1.415 . S
C186 H176 0.930 . S
C186 C184 1.419 . S
C186 C187 1.362 . S
C187 H177 0.930 . S
C187 C180 1.409 . S
C187 C186 1.362 . S
H188 C194 0.930 . S
H189 C197 0.930 . S
H190 C198 0.930 . S
H191 C199 0.930 . S
H192 C202 0.930 . S
H193 C203 0.930 . S
C194 H188 0.930 . S
C194 C195 1.355 . S
C194 C196 1.415 . S
C195 C194 1.355 . S
C195 C197 1.419 . S
C196 C194 1.415 . S
C196 C201 1.425 . S
C196 C203 1.409 . S
C197 H189 0.930 . S
C197 C195 1.419 . S
C197 C198 1.362 . S
C198 H190 0.930 . S
C198 C197 1.362 . S
C198 C201 1.409 . S
C199 H191 0.930 . S
C199 C200 1.355 . S
C199 C201 1.415 . S
C200 C199 1.355 . S
C200 C202 1.419 . S
C201 C196 1.425 . S
C201 C198 1.409 . S
C201 C199 1.415 . S
C202 H192 0.930 . S
C202 C200 1.419 . S
C202 C203 1.362 . S
C203 H193 0.930 . S
C203 C196 1.409 . S
C203 C202 1.362 . S
H204 C210 0.930 . S
H205 C213 0.930 . S
H206 C214 0.930 . S
H207 C215 0.930 . S
H208 C218 0.930 . S
H209 C219 0.930 . S
C210 H204 0.930 . S
C210 C211 1.355 . S
C210 C212 1.415 . S
C211 C210 1.355 . S
C211 C213 1.419 . S
C212 C210 1.415 . S
C212 C217 1.425 . S
C212 C219 1.409 . S
C213 H205 0.930 . S
C213 C211 1.419 . S
C213 C214 1.362 . S
C214 H206 0.930 . S
C214 C213 1.362 . S
C214 C217 1.409 . S
C215 H207 0.930 . S
C215 C216 1.355 . S
C215 C217 1.415 . S
C216 C215 1.355 . S
C216 C218 1.419 . S
C217 C212 1.425 . S
C217 C214 1.409 . S
C217 C215 1.415 . S
C218 H208 0.930 . S
C218 C216 1.419 . S
C218 C219 1.362 . S
C219 H209 0.930 . S
C219 C212 1.409 . S
C219 C218 1.362 . S
H220 C226 0.930 . S
H221 C229 0.930 . S
H222 C230 0.930 . S
H223 C231 0.930 . S
H224 C234 0.930 1_565 S
H225 C235 0.930 . S
C226 H220 0.930 . S
C226 C227 1.355 . S
C226 C228 1.415 . S
C227 C226 1.355 . S
C227 C229 1.419 . S
C228 C226 1.415 . S
C228 C233 1.425 . S
C228 C235 1.409 . S
C229 H221 0.930 . S
C229 C227 1.419 . S
C229 C230 1.362 . S
C230 H222 0.930 . S
C230 C229 1.362 . S
C230 C233 1.409 . S
C231 H223 0.930 . S
C231 C232 1.355 . S
C231 C233 1.415 . S
C232 C231 1.355 . S
C232 C234 1.419 . S
C233 C228 1.425 . S
C233 C230 1.409 . S
C233 C231 1.415 . S
C234 H224 0.930 1_545 S
C234 C232 1.419 . S
C234 C235 1.362 . S
C235 H225 0.930 . S
C235 C228 1.409 . S
C235 C234 1.362 . S
H236 C242 0.930 . S
H237 C245 0.930 . S
H238 C246 0.930 . S
H239 C247 0.930 . S
H240 C250 0.930 1_545 S
H241 C251 0.930 1_545 S
C242 H236 0.930 . S
C242 C243 1.355 . S
C242 C244 1.415 . S
C243 C242 1.355 . S
C243 C245 1.419 . S
C244 C242 1.415 . S
C244 C249 1.425 . S
C244 C251 1.409 . S
C245 H237 0.930 . S
C245 C243 1.419 . S
C245 C246 1.362 . S
C246 H238 0.930 . S
C246 C245 1.362 . S
C246 C249 1.409 . S
C247 H239 0.930 . S
C247 C248 1.355 . S
C247 C249 1.415 . S
C248 C247 1.355 . S
C248 C250 1.419 . S
C249 C244 1.425 . S
C249 C246 1.409 . S
C249 C247 1.415 . S
C250 H240 0.930 1_565 S
C250 C248 1.419 . S
C250 C251 1.362 . S
C251 H241 0.930 1_565 S
C251 C244 1.409 . S
C251 C250 1.362 . S
H252 C258 0.930 . S
H253 C261 0.930 . S
H254 C262 0.927 1_554 S
H255 C263 0.930 1_554 S
H256 C266 0.930 . S
H257 C267 0.930 . S
C258 H252 0.930 . S
C258 C259 1.355 . S
C258 C260 1.415 . S
C259 C258 1.355 . S
C259 C261 1.419 . S
C260 C258 1.415 . S
C260 C265 1.425 . S
C260 C267 1.409 . S
C261 H253 0.930 . S
C261 C259 1.419 . S
C261 C262 1.362 . S
C262 H254 0.927 1_556 S
C262 C261 1.362 . S
C262 C265 1.409 . S
C263 H255 0.930 1_556 S
C263 C264 1.355 . S
C263 C265 1.415 . S
C264 C263 1.355 . S
C264 C266 1.419 . S
C265 C260 1.425 . S
C265 C262 1.409 . S
C265 C263 1.415 . S
C266 H256 0.930 . S
C266 C264 1.419 . S
C266 C267 1.362 . S
C267 H257 0.930 . S
C267 C260 1.409 . S
C267 C266 1.362 . S
H268 C274 0.930 . S
H269 C277 0.930 . S
H270 C278 0.930 . S
H271 C279 0.930 . S
H272 C282 0.930 . S
H273 C283 0.930 . S
C274 H268 0.930 . S
C274 C275 1.355 . S
C274 C276 1.415 . S
C275 C274 1.355 . S
C275 C277 1.419 . S
C276 C274 1.415 . S
C276 C281 1.425 . S
C276 C283 1.409 . S
C277 H269 0.930 . S
C277 C275 1.419 . S
C277 C278 1.362 . S
C278 H270 0.930 . S
C278 C277 1.362 . S
C278 C281 1.409 . S
C279 H271 0.930 . S
C279 C280 1.355 . S
C279 C281 1.415 . S
C280 C279 1.355 . S
C280 C282 1.419 . S
C281 C276 1.425 . S
C281 C278 1.409 . S
C281 C279 1.415 . S
C282 H272 0.930 . S
C282 C280 1.419 . S
C282 C283 1.362 . S
C283 H273 0.930 . S
C283 C276 1.409 . S
C283 C282 1.362 . S
H284 C290 0.930 . S
H285 C293 0.930 . S
H286 C294 0.930 . S
H287 C295 0.930 . S
H288 C298 0.930 1_655 S
H289 C299 0.930 1_655 S
C290 H284 0.930 . S
C290 C291 1.355 . S
C290 C292 1.415 . S
C291 C290 1.355 . S
C291 C293 1.419 . S
C292 C290 1.415 . S
C292 C297 1.425 . S
C292 C299 1.409 . S
C293 H285 0.930 . S
C293 C291 1.419 . S
C293 C294 1.362 . S
C294 H286 0.930 . S
C294 C293 1.362 . S
C294 C297 1.409 . S
C295 H287 0.930 . S
C295 C296 1.355 . S
C295 C297 1.415 . S
C296 C295 1.355 . S
C296 C298 1.419 . S
C297 C292 1.425 . S
C297 C294 1.409 . S
C297 C295 1.415 . S
C298 H288 0.930 1_455 S
C298 C296 1.419 . S
C298 C299 1.362 . S
C299 H289 0.930 1_455 S
C299 C292 1.409 . S
C299 C298 1.362 . S
H300 C306 0.930 . S
H301 C309 0.930 . S
H302 C310 0.930 . S
H303 C311 0.930 . S
H304 C314 0.930 . S
H305 C315 0.930 . S
C306 H300 0.930 . S
C306 C307 1.355 . S
C306 C308 1.415 . S
C307 C306 1.355 . S
C307 C309 1.419 . S
C308 C306 1.415 . S
C308 C313 1.425 . S
C308 C315 1.409 . S
C309 H301 0.930 . S
C309 C307 1.419 . S
C309 C310 1.362 . S
C310 H302 0.930 . S
C310 C309 1.362 . S
C310 C313 1.409 . S
C311 H303 0.930 . S
C311 C312 1.355 . S
C311 C313 1.415 . S
C312 C311 1.355 . S
C312 C314 1.419 . S
C313 C308 1.425 . S
C313 C310 1.409 . S
C313 C311 1.415 . S
C314 H304 0.930 . S
C314 C312 1.419 . S
C314 C315 1.362 . S
C315 H305 0.930 . S
C315 C308 1.409 . S
C315 C314 1.362 . S
H316 C322 0.930 . S
H317 C325 0.930 . S
H318 C326 0.930 . S
H319 C327 0.930 . S
H320 C330 0.929 1_455 S
H321 C331 0.930 1_455 S
C322 H316 0.930 . S
C322 C323 1.355 . S
C322 C324 1.415 . S
C323 C322 1.355 . S
C323 C325 1.419 . S
C324 C322 1.415 . S
C324 C329 1.425 . S
C324 C331 1.409 . S
C325 H317 0.930 . S
C325 C323 1.419 . S
C325 C326 1.362 . S
C326 H318 0.930 . S
C326 C325 1.362 . S
C326 C329 1.409 . S
C327 H319 0.930 . S
C327 C328 1.355 . S
C327 C329 1.415 . S
C328 C327 1.355 . S
C328 C330 1.420 . S
C329 C324 1.425 . S
C329 C326 1.409 . S
C329 C327 1.415 . S
C330 H320 0.929 1_655 S
C330 C328 1.420 . S
C330 C331 1.362 . S
C331 H321 0.930 1_655 S
C331 C324 1.409 . S
C331 C330 1.362 . S
H332 C338 0.930 . S
H333 C341 0.930 . S
H334 C342 0.930 . S
H335 C343 0.930 . S
H336 C346 0.930 . S
H337 C347 0.930 . S
C338 H332 0.930 . S
C338 C339 1.355 . S
C338 C340 1.415 . S
C339 C338 1.355 . S
C339 C341 1.419 . S
C340 C338 1.415 . S
C340 C345 1.425 . S
C340 C347 1.409 . S
C341 H333 0.930 . S
C341 C339 1.419 . S
C341 C342 1.362 . S
C342 H334 0.930 . S
C342 C341 1.362 . S
C342 C345 1.409 . S
C343 H335 0.930 . S
C343 C344 1.355 . S
C343 C345 1.415 . S
C344 C343 1.355 . S
C344 C346 1.419 . S
C345 C340 1.425 . S
C345 C342 1.409 . S
C345 C343 1.415 . S
C346 H336 0.930 . S
C346 C344 1.419 . S
C346 C347 1.362 . S
C347 H337 0.930 . S
C347 C340 1.409 . S
C347 C346 1.362 . S
H348 C354 0.930 . S
H349 C357 0.930 . S
H350 C358 0.930 . S
H351 C359 0.930 . S
H352 C362 0.930 . S
H353 C363 0.930 1_455 S
C354 H348 0.930 . S
C354 C355 1.355 . S
C354 C356 1.415 . S
C355 C354 1.355 . S
C355 C357 1.419 . S
C356 C354 1.415 . S
C356 C361 1.425 . S
C356 C363 1.409 . S
C357 H349 0.930 . S
C357 C355 1.419 . S
C357 C358 1.362 . S
C358 H350 0.930 . S
C358 C357 1.362 . S
C358 C361 1.409 . S
C359 H351 0.930 . S
C359 C360 1.355 . S
C359 C361 1.415 . S
C360 C359 1.355 . S
C360 C362 1.419 1_655 S
C361 C356 1.425 . S
C361 C358 1.409 . S
C361 C359 1.415 . S
C362 H352 0.930 . S
C362 C360 1.419 1_455 S
C362 C363 1.362 1_455 S
C363 H353 0.930 1_655 S
C363 C356 1.409 . S
C363 C362 1.362 1_655 S
H364 C370 0.930 . S
H365 C373 0.930 . S
H366 C374 0.930 . S
H367 C375 0.930 . S
H368 C378 0.930 . S
H369 C379 0.930 . S
C370 H364 0.930 . S
C370 C371 1.355 . S
C370 C372 1.415 . S
C371 C370 1.355 . S
C371 C373 1.419 . S
C372 C370 1.415 . S
C372 C377 1.425 . S
C372 C379 1.409 . S
C373 H365 0.930 . S
C373 C371 1.419 . S
C373 C374 1.362 . S
C374 H366 0.930 . S
C374 C373 1.362 . S
C374 C377 1.409 . S
C375 H367 0.930 . S
C375 C376 1.355 . S
C375 C377 1.415 . S
C376 C375 1.355 . S
C376 C378 1.419 . S
C377 C372 1.425 . S
C377 C374 1.409 . S
C377 C375 1.415 . S
C378 H368 0.930 . S
C378 C376 1.419 . S
C378 C379 1.362 . S
C379 H369 0.930 . S
C379 C372 1.409 . S
C379 C378 1.362 . S
H380 C386 0.930 . S
H381 C389 0.930 . S
H382 C390 0.930 . S
H383 C391 0.930 . S
H384 C394 0.930 . S
H385 C395 0.930 . S
C386 H380 0.930 . S
C386 C387 1.355 . S
C386 C388 1.415 . S
C387 C386 1.355 . S
C387 C389 1.419 . S
C388 C386 1.415 . S
C388 C393 1.425 . S
C388 C395 1.409 . S
C389 H381 0.930 . S
C389 C387 1.419 . S
C389 C390 1.362 . S
C390 H382 0.930 . S
C390 C389 1.362 . S
C390 C393 1.409 . S
C391 H383 0.930 . S
C391 C392 1.355 . S
C391 C393 1.415 . S
C392 C391 1.355 . S
C392 C394 1.419 . S
C393 C388 1.425 . S
C393 C390 1.409 . S
C393 C391 1.415 . S
C394 H384 0.930 . S
C394 C392 1.419 . S
C394 C395 1.362 . S
C395 H385 0.930 . S
C395 C388 1.409 . S
C395 C394 1.362 . S
H396 C402 0.930 . S
H397 C405 0.930 . S
H398 C406 0.930 . S
H399 C407 0.930 . S
H400 C410 0.924 1_655 S
H401 C411 0.930 . S
C402 H396 0.930 . S
C402 C403 1.355 . S
C402 C404 1.415 . S
C403 C402 1.355 . S
C403 C405 1.419 . S
C404 C402 1.415 . S
C404 C409 1.425 . S
C404 C411 1.409 . S
C405 H397 0.930 . S
C405 C403 1.419 . S
C405 C406 1.362 . S
C406 H398 0.930 . S
C406 C405 1.362 . S
C406 C409 1.409 . S
C407 H399 0.930 . S
C407 C408 1.355 . S
C407 C409 1.415 . S
C408 C407 1.355 . S
C408 C410 1.419 . S
C409 C404 1.425 . S
C409 C406 1.409 . S
C409 C407 1.415 . S
C410 H400 0.924 1_455 S
C410 C408 1.419 . S
C410 C411 1.362 . S
C411 H401 0.930 . S
C411 C404 1.409 . S
C411 C410 1.362 . S
H412 C418 0.930 . S
H413 C421 0.930 . S
H414 C422 0.930 . S
H415 C423 0.930 . S
H416 C426 0.930 . S
H417 C427 0.930 . S
C418 H412 0.930 . S
C418 C419 1.355 . S
C418 C420 1.415 . S
C419 C418 1.355 . S
C419 C421 1.419 . S
C420 C418 1.415 . S
C420 C425 1.425 . S
C420 C427 1.409 . S
C421 H413 0.930 . S
C421 C419 1.419 . S
C421 C422 1.362 . S
C422 H414 0.930 . S
C422 C421 1.362 . S
C422 C425 1.409 . S
C423 H415 0.930 . S
C423 C424 1.355 . S
C423 C425 1.415 . S
C424 C423 1.355 . S
C424 C426 1.419 . S
C425 C420 1.425 . S
C425 C422 1.409 . S
C425 C423 1.415 . S
C426 H416 0.930 . S
C426 C424 1.419 . S
C426 C427 1.362 . S
C427 H417 0.930 . S
C427 C420 1.409 . S
C427 C426 1.362 . S
H428 C434 0.930 . S
H429 C437 0.930 . S
H430 C438 0.930 . S
H431 C439 0.930 . S
H432 C442 0.930 . S
H433 C443 0.930 . S
C434 H428 0.930 . S
C434 C435 1.355 . S
C434 C436 1.415 . S
C435 C434 1.355 . S
C435 C437 1.419 . S
C436 C434 1.415 . S
C436 C441 1.425 . S
C436 C443 1.409 . S
C437 H429 0.930 . S
C437 C435 1.419 . S
C437 C438 1.362 . S
C438 H430 0.930 . S
C438 C437 1.362 . S
C438 C441 1.409 . S
C439 H431 0.930 . S
C439 C440 1.355 . S
C439 C441 1.415 . S
C440 C439 1.355 . S
C440 C442 1.419 . S
C441 C436 1.425 . S
C441 C438 1.409 . S
C441 C439 1.415 . S
C442 H432 0.930 . S
C442 C440 1.419 . S
C442 C443 1.362 . S
C443 H433 0.930 . S
C443 C436 1.409 . S
C443 C442 1.362 . S
H444 C450 0.930 . S
H445 C453 0.930 . S
H446 C454 0.930 . S
H447 C455 0.930 . S
H448 C458 0.930 1_556 S
H449 C459 0.930 . S
C450 H444 0.930 . S
C450 C451 1.355 . S
C450 C452 1.415 . S
C451 C450 1.355 . S
C451 C453 1.419 . S
C452 C450 1.415 . S
C452 C457 1.425 . S
C452 C459 1.409 . S
C453 H445 0.930 . S
C453 C451 1.419 . S
C453 C454 1.362 . S
C454 H446 0.930 . S
C454 C453 1.362 . S
C454 C457 1.409 . S
C455 H447 0.930 . S
C455 C456 1.355 . S
C455 C457 1.415 . S
C456 C455 1.355 . S
C456 C458 1.419 . S
C457 C452 1.425 . S
C457 C454 1.409 . S
C457 C455 1.415 . S
C458 H448 0.930 1_554 S
C458 C456 1.419 . S
C458 C459 1.362 . S
C459 H449 0.930 . S
C459 C452 1.409 . S
C459 C458 1.362 . S
H460 C466 0.930 . S
H461 C469 0.930 . S
H462 C470 0.930 . S
H463 C471 0.930 . S
H464 C474 0.930 . S
H465 C475 0.930 . S
C466 H460 0.930 . S
C466 C467 1.355 . S
C466 C468 1.415 . S
C467 C466 1.355 . S
C467 C469 1.419 . S
C468 C466 1.415 . S
C468 C473 1.425 . S
C468 C475 1.409 . S
C469 H461 0.930 . S
C469 C467 1.419 . S
C469 C470 1.362 . S
C470 H462 0.930 . S
C470 C469 1.362 . S
C470 C473 1.409 . S
C471 H463 0.930 . S
C471 C472 1.355 . S
C471 C473 1.415 . S
C472 C471 1.355 . S
C472 C474 1.419 . S
C473 C468 1.425 . S
C473 C470 1.409 . S
C473 C471 1.415 . S
C474 H464 0.930 . S
C474 C472 1.419 . S
C474 C475 1.362 . S
C475 H465 0.930 . S
C475 C468 1.409 . S
C475 C474 1.362 . S
H476 C482 0.930 . S
H477 C485 0.930 . S
H478 C486 0.930 1_455 S
H479 C487 0.930 1_455 S
H480 C490 0.930 . S
H481 C491 0.930 . S
C482 H476 0.930 . S
C482 C483 1.355 . S
C482 C484 1.415 . S
C483 C482 1.355 . S
C483 C485 1.419 . S
C484 C482 1.415 . S
C484 C489 1.425 . S
C484 C491 1.409 . S
C485 H477 0.930 . S
C485 C483 1.419 . S
C485 C486 1.362 . S
C486 H478 0.930 1_655 S
C486 C485 1.362 . S
C486 C489 1.409 . S
C487 H479 0.930 1_655 S
C487 C488 1.355 . S
C487 C489 1.415 . S
C488 C487 1.355 . S
C488 C490 1.419 . S
C489 C484 1.425 . S
C489 C486 1.409 . S
C489 C487 1.415 . S
C490 H480 0.930 . S
C490 C488 1.419 . S
C490 C491 1.362 . S
C491 H481 0.930 . S
C491 C484 1.409 . S
C491 C490 1.362 . S
H492 C498 0.930 . S
H493 C501 0.930 . S
H494 C502 0.930 . S
H495 C503 0.930 . S
H496 C506 0.930 . S
H497 C507 0.930 . S
C498 H492 0.930 . S
C498 C499 1.355 . S
C498 C500 1.415 . S
C499 C498 1.355 . S
C499 C501 1.419 . S
C500 C498 1.415 . S
C500 C505 1.425 . S
C500 C507 1.409 . S
C501 H493 0.930 . S
C501 C499 1.419 . S
C501 C502 1.362 . S
C502 H494 0.930 . S
C502 C501 1.362 . S
C502 C505 1.409 . S
C503 H495 0.930 . S
C503 C504 1.355 . S
C503 C505 1.415 . S
C504 C503 1.355 . S
C504 C506 1.419 . S
C505 C500 1.425 . S
C505 C502 1.409 . S
C505 C503 1.415 . S
C506 H496 0.930 . S
C506 C504 1.419 . S
C506 C507 1.362 . S
C507 H497 0.930 . S
C507 C500 1.409 . S
C507 C506 1.362 . S
H508 C514 0.930 . S
H509 C517 0.930 . S
H510 C518 0.930 . S
H511 C519 0.930 . S
H512 C522 0.930 . S
H513 C523 0.930 . S
C514 H508 0.930 . S
C514 C515 1.355 . S
C514 C516 1.415 . S
C515 C514 1.355 . S
C515 C517 1.419 . S
C516 C514 1.415 . S
C516 C521 1.425 . S
C516 C523 1.409 . S
C517 H509 0.930 . S
C517 C515 1.419 . S
C517 C518 1.362 . S
C518 H510 0.930 . S
C518 C517 1.362 . S
C518 C521 1.409 . S
C519 H511 0.930 . S
C519 C520 1.355 . S
C519 C521 1.415 . S
C520 C519 1.355 . S
C520 C522 1.419 . S
C521 C516 1.425 . S
C521 C518 1.409 . S
C521 C519 1.415 . S
C522 H512 0.930 . S
C522 C520 1.419 . S
C522 C523 1.362 . S
C523 H513 0.930 . S
C523 C516 1.409 . S
C523 C522 1.362 . S
H524 C530 0.930 . S
H525 C533 0.930 . S
H526 C534 0.930 . S
H527 C535 0.930 . S
H528 C538 0.930 . S
H529 C539 0.930 . S
C530 H524 0.930 . S
C530 C531 1.355 . S
C530 C532 1.415 . S
C531 C530 1.355 . S
C531 C533 1.419 . S
C532 C530 1.415 . S
C532 C537 1.425 . S
C532 C539 1.409 . S
C533 H525 0.930 . S
C533 C531 1.419 . S
C533 C534 1.362 . S
C534 H526 0.930 . S
C534 C533 1.362 . S
C534 C537 1.409 . S
C535 H527 0.930 . S
C535 C536 1.355 . S
C535 C537 1.415 . S
C536 C535 1.355 . S
C536 C538 1.419 . S
C537 C532 1.425 . S
C537 C534 1.409 . S
C537 C535 1.415 . S
C538 H528 0.930 . S
C538 C536 1.419 . S
C538 C539 1.362 . S
C539 H529 0.930 . S
C539 C532 1.409 . S
C539 C538 1.362 . S
C163 C5 1.549 . S
C168 C88 1.514 . S
C179 C14 1.465 . S
C184 C110 1.418 . S
C200 C129 1.282 . S
C195 C25 1.473 . S
C211 C34 1.702 . S
C216 C150 1.428 . S
C232 C107 1.654 . S
C227 C7 1.678 . S
C248 C85 1.533 . S
C243 C13 1.609 . S
C264 C152 1.271 . S
C259 C23 1.402 . S
C280 C131 1.412 . S
C275 C31 1.453 . S
C291 C4 1.638 . S
C296 C149 1.565 . S
C312 C108 1.248 . S
C307 C22 1.559 . S
C323 C32 1.577 . S
C328 C90 1.385 . S
C339 C16 1.458 . S
C344 C128 1.450 . S
C360 C86 1.505 . S
C355 C41 1.557 . S
C371 C50 1.360 . S
C376 C106 1.307 . S
C387 C61 1.499 . S
C392 C132 1.271 . S
C403 C67 1.599 . S
C408 C153 1.248 . S
C419 C40 1.646 . S
C424 C109 1.571 . S
C440 C89 1.623 . S
C435 C52 1.672 . S
C456 C148 1.292 . S
C451 C59 1.324 . S
C472 C127 1.452 . S
C467 C70 1.514 . S
C483 C43 1.511 . S
C488 C151 1.447 . S
C504 C111 1.296 . S
C499 C58 1.516 . S
C520 C87 1.324 . S
C515 C68 1.452 . S
C531 C49 1.422 . S
C536 C130 1.415 . S
