# Generated by pormake.
# Topology zzz, (3,6)-cn, num edge types: 1
# Building blocks:
#     Node 0, Type 0, BuildingBlock: INOVEN_clean_linker_0, # of connection points: 3
#     Node 1, Type 0, BuildingBlock: INOVEN_clean_linker_0, # of connection points: 3
#     Node 2, Type 0, BuildingBlock: INOVEN_clean_linker_0, # of connection points: 3
#     Node 3, Type 0, BuildingBlock: INOVEN_clean_linker_0, # of connection points: 3
#     Node 4, Type 0, BuildingBlock: INOVEN_clean_linker_0, # of connection points: 3
#     Node 5, Type 0, BuildingBlock: INOVEN_clean_linker_0, # of connection points: 3
#     Node 6, Type 0, BuildingBlock: INOVEN_clean_linker_0, # of connection points: 3
#     Node 7, Type 0, BuildingBlock: INOVEN_clean_linker_0, # of connection points: 3
#     Node 8, Type 1, BuildingBlock: JUFBIX_clean_sbu_0, # of connection points: 6
#     Node 9, Type 1, BuildingBlock: JUFBIX_clean_sbu_0, # of connection points: 6
#     Node 10, Type 1, BuildingBlock: JUFBIX_clean_sbu_0, # of connection points: 6
#     Node 11, Type 1, BuildingBlock: JUFBIX_clean_sbu_0, # of connection points: 6
#     Edge 12, Type (0, 1), BuildingBlock: OJICUG_clean_linker_0, # of connection points: 2
#     Edge 13, Type (0, 1), BuildingBlock: OJICUG_clean_linker_0, # of connection points: 2
#     Edge 14, Type (0, 1), BuildingBlock: OJICUG_clean_linker_0, # of connection points: 2
#     Edge 15, Type (0, 1), BuildingBlock: OJICUG_clean_linker_0, # of connection points: 2
#     Edge 16, Type (0, 1), BuildingBlock: OJICUG_clean_linker_0, # of connection points: 2
#     Edge 17, Type (0, 1), BuildingBlock: OJICUG_clean_linker_0, # of connection points: 2
#     Edge 18, Type (0, 1), BuildingBlock: OJICUG_clean_linker_0, # of connection points: 2
#     Edge 19, Type (0, 1), BuildingBlock: OJICUG_clean_linker_0, # of connection points: 2
#     Edge 20, Type (0, 1), BuildingBlock: OJICUG_clean_linker_0, # of connection points: 2
#     Edge 21, Type (0, 1), BuildingBlock: OJICUG_clean_linker_0, # of connection points: 2
#     Edge 22, Type (0, 1), BuildingBlock: OJICUG_clean_linker_0, # of connection points: 2
#     Edge 23, Type (0, 1), BuildingBlock: OJICUG_clean_linker_0, # of connection points: 2
#     Edge 24, Type (0, 1), BuildingBlock: OJICUG_clean_linker_0, # of connection points: 2
#     Edge 25, Type (0, 1), BuildingBlock: OJICUG_clean_linker_0, # of connection points: 2
#     Edge 26, Type (0, 1), BuildingBlock: OJICUG_clean_linker_0, # of connection points: 2
#     Edge 27, Type (0, 1), BuildingBlock: OJICUG_clean_linker_0, # of connection points: 2
#     Edge 28, Type (0, 1), BuildingBlock: OJICUG_clean_linker_0, # of connection points: 2
#     Edge 29, Type (0, 1), BuildingBlock: OJICUG_clean_linker_0, # of connection points: 2
#     Edge 30, Type (0, 1), BuildingBlock: OJICUG_clean_linker_0, # of connection points: 2
#     Edge 31, Type (0, 1), BuildingBlock: OJICUG_clean_linker_0, # of connection points: 2
#     Edge 32, Type (0, 1), BuildingBlock: OJICUG_clean_linker_0, # of connection points: 2
#     Edge 33, Type (0, 1), BuildingBlock: OJICUG_clean_linker_0, # of connection points: 2
#     Edge 34, Type (0, 1), BuildingBlock: OJICUG_clean_linker_0, # of connection points: 2
#     Edge 35, Type (0, 1), BuildingBlock: OJICUG_clean_linker_0, # of connection points: 2
# Relax obj value: 0.114
# Max RMSD: 0.174
# Mean RMSD: 0.084
data_MOF--net-zzz--node1-JUFBIX_clean_sbu_0--node2-INOVEN_clean_linker_0--edge1-OJICUG_clean_linker_0
_symmetry_space_group_name_H-M    P1
_symmetry_Int_Tables_number       1
_symmetry_cell_setting            triclinic
loop_
_symmetry_equiv_pos_as_xyz
'x, y, z'
_cell_length_a     37.656844
_cell_length_b     37.407275
_cell_length_c     13.349734
_cell_angle_alpha  78.598806
_cell_angle_beta   90.067795
_cell_angle_gamma 91.713461
loop_
_atom_site_label
_atom_site_type_symbol
_atom_site_fract_x
_atom_site_fract_y
_atom_site_fract_z
_atom_type_partial_charge
H0 H 0.82606 0.53215 0.44841 0.0
H1 H 0.93362 0.51272 0.36731 0.0
H2 H 0.85109 0.51496 0.14618 0.0
N3 N 0.79773 0.52613 0.26434 0.0
N4 N 0.78987 0.54035 0.17456 0.0
C5 C 0.84515 0.52679 0.39298 0.0
C6 C 0.88143 0.52319 0.41878 0.0
C7 C 0.83407 0.52414 0.29346 0.0
C8 C 0.85929 0.51728 0.22258 0.0
C9 C 0.89485 0.5124 0.24992 0.0
C10 C 0.9057 0.51531 0.34756 0.0
H11 H 0.03963 0.75593 0.43831 0.0
H12 H 0.06581 0.87056 0.35403 0.0
H13 H 0.08241 0.80102 0.13978 0.0
N14 N 0.05539 0.74098 0.25166 0.0
N15 N 0.04112 0.74176 0.16662 0.0
C16 C 0.05109 0.77879 0.38422 0.0
C17 C 0.05432 0.81364 0.40976 0.0
C18 C 0.06111 0.77445 0.28553 0.0
C19 C 0.07463 0.8047 0.21511 0.0
C20 C 0.07561 0.83973 0.2377 0.0
C21 C 0.06663 0.84352 0.33631 0.0
H22 H 0.79468 1.01388 0.31714 0.0
H23 H 0.68699 0.03725 0.22979 0.0
H24 H 0.76653 0.04238 -0.00262 0.0
N25 N 0.82177 0.02501 0.12739 0.0
N26 N 0.83038 0.02147 0.03951 0.0
C27 C 0.77525 0.02232 0.25795 0.0
C28 C 0.73957 0.02595 0.28454 0.0
C29 C 0.78548 0.02866 0.15388 0.0
C30 C 0.75934 0.03814 0.07749 0.0
C31 C 0.72381 0.04216 0.10474 0.0
C32 C 0.71467 0.03627 0.20793 0.0
H33 H 0.55713 0.74507 0.35225 0.0
H34 H 0.56494 0.63976 0.27211 0.0
H35 H 0.54369 0.73271 0.03846 0.0
N36 N 0.54717 0.78291 0.16128 0.0
N37 N 0.5474 0.79815 0.06896 0.0
C38 C 0.55667 0.72822 0.29491 0.0
C39 C 0.56255 0.69046 0.3237 0.0
C40 C 0.55075 0.74422 0.19113 0.0
C41 C 0.54895 0.7214 0.11803 0.0
C42 C 0.55434 0.68382 0.14772 0.0
C43 C 0.56151 0.66898 0.24949 0.0
H44 H 0.26583 0.50588 0.16871 0.0
H45 H 0.15782 0.52443 0.24801 0.0
H46 H 0.23992 0.52366 0.46968 0.0
N47 N 0.29357 0.51254 0.35303 0.0
N48 N 0.3011 0.49805 0.4428 0.0
C49 C 0.24656 0.51129 0.2236 0.0
C50 C 0.21029 0.51443 0.19741 0.0
C51 C 0.25735 0.51433 0.323 0.0
C52 C 0.23191 0.52115 0.39326 0.0
C53 C 0.19636 0.52549 0.36557 0.0
C54 C 0.18575 0.52227 0.26801 0.0
H55 H 0.0435 0.28328 0.18099 0.0
H56 H 0.99074 0.17748 0.22771 0.0
H57 H 1.00588 0.2313 0.47949 0.0
N58 N 0.033 0.29353 0.37537 0.0
N59 N 0.04084 0.2888 0.46804 0.0
C60 C 0.02888 0.26116 0.22982 0.0
C61 C 1.01772 0.2299 0.19187 0.0
C62 C 0.02269 0.26249 0.33343 0.0
C63 C 1.00769 0.23151 0.39855 0.0
C64 C 0.99748 0.20019 0.36191 0.0
C65 C 0.99937 0.20133 0.25696 0.0
H66 H 0.27627 0.02508 0.30038 0.0
H67 H 0.38374 1.00224 0.3906 0.0
H68 H 0.30347 0.99757 0.62106 0.0
N69 N 0.2485 1.01439 0.48868 0.0
N70 N 0.23917 1.01837 0.57558 0.0
C71 C 0.29555 1.01689 0.36019 0.0
C72 C 0.3313 1.01332 0.3346 0.0
C73 C 0.28497 1.01082 0.46391 0.0
C74 C 0.31092 1.00162 0.54119 0.0
C75 C 0.34658 0.99749 0.51483 0.0
C76 C 0.35601 1.00325 0.41185 0.0
H77 H 0.52545 0.29532 0.27359 0.0
H78 H 0.5241 0.40102 0.35406 0.0
H79 H 0.5391 0.30647 0.5883 0.0
N80 N 0.53306 0.25672 0.46426 0.0
N81 N 0.53107 0.24116 0.55618 0.0
C82 C 0.52701 0.31209 0.33106 0.0
C83 C 0.52352 0.3502 0.30232 0.0
C84 C 0.53184 0.29563 0.43496 0.0
C85 C 0.53485 0.31823 0.50847 0.0
C86 C 0.53193 0.3562 0.47868 0.0
C87 C 0.52592 0.37159 0.3766 0.0
Co88 Co 0.04312 0.04003 0.84964 0.0
C89 C 0.97294 1.01794 0.88861 0.0
Co90 Co 0.02466 1.00151 0.7524 0.0
C91 C 0.04357 0.10805 0.92343 0.0
C92 C 0.09059 0.07814 0.96548 0.0
N93 N 0.05921 0.07635 0.91813 0.0
N94 N 0.06395 0.12982 0.97198 0.0
C95 C 0.09353 0.11066 -0.00115 0.0
H96 H 0.01775 0.11493 0.89114 0.0
H97 H 0.11028 0.05728 0.97427 0.0
C98 C 0.09507 0.02353 0.71424 0.0
N99 N 1.00869 0.96519 0.68452 0.0
C100 C 0.02513 0.934 0.67888 0.0
C101 C 0.97728 0.96256 0.63797 0.0
N102 N 1.00529 0.91173 0.63084 0.0
C103 C 0.97515 0.92998 0.60464 0.0
C104 C 1.01164 0.07036 0.66188 0.0
O105 O 0.08827 0.04231 0.7814 0.0
O106 O 0.07046 1.00326 0.68769 0.0
O107 O 1.00929 0.038 0.64653 0.0
O108 O 0.02563 0.07673 0.74348 0.0
O109 O 0.97908 1.00036 0.81812 0.0
H110 H 0.95709 0.98291 0.6295 0.0
H111 H 0.05117 0.92787 0.71063 0.0
O112 O 0.99799 0.03715 0.9174 0.0
O113 O 0.06025 1.0022 0.95526 0.0
O114 O 0.04007 0.96553 0.85754 0.0
C115 C 0.0555 0.97006 0.93851 0.0
H116 H 0.11573 0.11897 0.0412 0.0
H117 H 0.95318 0.92104 0.56256 0.0
Co118 Co 0.52166 0.02521 0.87742 0.0
C119 C 0.53732 0.952 0.90252 0.0
Co120 Co 0.54925 1.01315 0.74204 0.0
C121 C 0.46112 0.02375 0.00986 0.0
C122 C 0.49859 0.06641 0.02549 0.0
N123 N 0.49405 0.03732 0.98074 0.0
N124 N 0.44451 0.0437 0.06866 0.0
C125 C 0.4683 0.07034 0.07968 0.0
H126 H 0.44876 1.00086 0.98339 0.0
H127 H 0.52165 0.08474 0.01486 0.0
C128 C 0.53395 0.08639 0.7173 0.0
N129 N 0.57695 1.00107 0.63872 0.0
C130 C 0.60988 1.0147 0.60973 0.0
C131 C 0.57249 0.972 0.59386 0.0
N132 N 0.62657 0.99481 0.55089 0.0
C133 C 0.60283 0.96815 0.53972 0.0
C134 C 0.47752 1.00521 0.72597 0.0
O135 O 0.52085 0.07487 0.80611 0.0
O136 O 0.54814 0.06358 0.67124 0.0
O137 O 0.50602 1.00244 0.67717 0.0
O138 O 0.47933 1.01491 0.81145 0.0
O139 O 0.55008 0.96351 0.81329 0.0
H140 H 0.54947 0.95363 0.60434 0.0
H141 H 0.62217 0.0376 0.6363 0.0
O142 O 0.523 0.97476 0.94856 0.0
O143 O 0.56473 0.03602 0.94206 0.0
O144 O 0.59156 0.02341 0.80818 0.0
C145 C 0.59326 0.03328 0.89344 0.0
H146 H 0.46405 0.09155 0.12259 0.0
H147 H 0.60714 0.94697 0.49673 0.0
Co148 Co 0.57307 0.51713 0.82171 0.0
C149 C 0.52908 0.4655 0.95499 0.0
Co150 Co 0.51486 0.52315 0.80357 0.0
C151 C 0.64338 0.52952 0.90301 0.0
C152 C 0.63601 0.47642 0.86771 0.0
N153 N 0.62071 0.50917 0.85664 0.0
N154 N 0.67137 0.51031 0.94482 0.0
C155 C 0.66695 0.47701 0.92213 0.0
H156 H 0.63809 0.55678 0.9137 0.0
H157 H 0.62395 0.45253 0.84575 0.0
C158 C 0.55872 0.57489 0.67036 0.0
N159 N 0.46728 0.53107 0.76882 0.0
C160 C 0.44478 0.51053 0.72264 0.0
C161 C 0.45195 0.56383 0.75676 0.0
N162 N 0.41693 0.52964 0.67969 0.0
C163 C 0.42119 0.56306 0.70166 0.0
C164 C 0.54262 0.56593 0.92991 0.0
O165 O 0.58516 0.55752 0.71293 0.0
O166 O 0.52745 0.56295 0.69643 0.0
O167 O 0.51332 0.55659 0.89386 0.0
O168 O 0.57076 0.55047 0.91148 0.0
O169 O 0.50273 0.48293 0.91219 0.0
H170 H 0.46396 0.58783 0.77821 0.0
H171 H 0.45017 0.48322 0.71265 0.0
O172 O 0.56041 0.47725 0.92894 0.0
O173 O 0.57457 0.48361 0.7311 0.0
O174 O 0.51714 0.48979 0.714 0.0
C175 C 0.5452 0.47425 0.69539 0.0
H176 H 0.68396 0.45419 0.94765 0.0
H177 H 0.40427 0.58586 0.67492 0.0
Co178 Co 0.04723 0.54819 0.80282 0.0
C179 C 0.10295 0.5092 0.9124 0.0
Co180 Co 0.04458 0.48797 0.81596 0.0
C181 C 0.03446 0.61381 0.88337 0.0
C182 C 0.07922 0.62008 0.78221 0.0
N183 N 0.05117 0.59742 0.81518 0.0
N184 N 0.05146 0.64492 0.89532 0.0
C185 C 0.07957 0.64904 0.83179 0.0
H186 H 1.01224 0.60171 0.93067 0.0
H187 H 0.10021 0.61422 0.73323 0.0
C188 C 0.98889 0.52703 0.70601 0.0
N189 N 0.04262 0.43906 0.80563 0.0
C190 C 0.04218 0.42563 0.71855 0.0
C191 C 0.04436 0.40952 0.88146 0.0
N192 N 0.04414 0.3889 0.73671 0.0
C193 C 0.04523 0.37873 0.83954 0.0
C194 C 1.00684 0.50686 0.96546 0.0
O195 O 1.00466 0.55566 0.72468 0.0
O196 O 1.00286 0.49612 0.73524 0.0
O197 O 1.01543 0.47846 0.93384 0.0
O198 O 0.01938 0.53783 0.9218 0.0
O199 O 0.08647 0.48056 0.89734 0.0
H200 H 0.04574 0.41039 0.9619 0.0
H201 H 0.04173 0.44268 0.643 0.0
O202 O 0.08955 0.54009 0.88015 0.0
O203 O 0.07507 0.55739 0.68198 0.0
O204 O 0.07357 0.49781 0.69963 0.0
C205 C 0.08485 0.52888 0.65309 0.0
H206 H 0.10017 0.67014 0.8269 0.0
H207 H 0.04674 0.35102 0.882 0.0
C208 C 0.17436 1.00906 0.54941 0.0
C209 C 0.20294 0.02096 0.604 0.0
H210 H 0.11776 1.00015 0.54203 0.0
C211 C 0.19562 0.03442 0.69228 0.0
H212 H 0.1792 0.99822 0.48142 0.0
C213 C 0.16063 0.03617 0.72591 0.0
C214 C 0.13192 0.02366 0.67319 0.0
H215 H 0.21723 0.0435 0.73566 0.0
H216 H 0.15617 0.04652 0.79498 0.0
C217 C 0.1392 1.01009 0.58433 0.0
C218 C 0.5241 0.18854 0.69415 0.0
C219 C 0.53192 0.20255 0.59115 0.0
H220 H 0.51824 0.14156 0.81399 0.0
C221 C 0.54061 0.17807 0.5277 0.0
H222 H 0.51746 0.20688 0.74429 0.0
C223 C 0.54154 0.14024 0.56791 0.0
C224 C 0.53333 0.12625 0.67164 0.0
H225 H 0.54696 0.18809 0.44782 0.0
H226 H 0.54847 0.12199 0.51784 0.0
C227 C 0.52452 0.15105 0.73379 0.0
C228 C 0.34357 0.47771 0.57724 0.0
C229 C 0.33487 0.50207 0.48711 0.0
H230 H 0.37737 0.4672 0.70912 0.0
C231 C 0.35591 0.53397 0.45604 0.0
H232 H 0.32719 0.45335 0.60322 0.0
C233 C 0.38363 0.54245 0.51803 0.0
C234 C 0.39121 0.51885 0.61084 0.0
H235 H 0.34932 0.55359 0.38796 0.0
H236 H 0.39852 0.56798 0.49521 0.0
C237 C 0.37191 0.48572 0.63795 0.0
C238 C 0.06119 0.30705 0.62198 0.0
C239 C 0.04657 0.31692 0.52438 0.0
H240 H 0.07262 0.32199 0.76494 0.0
C241 C 0.03298 0.35198 0.4939 0.0
H242 H 0.07141 0.27999 0.647 0.0
C243 C 0.03292 0.37611 0.56255 0.0
C244 C 0.04633 0.36549 0.66258 0.0
H245 H 0.02087 0.36 0.41956 0.0
H246 H 0.02106 0.4024 0.53865 0.0
C247 C 0.06129 0.33096 0.69003 0.0
C248 C 0.89541 0.03026 0.06189 0.0
C249 C 0.86628 1.01906 0.00818 0.0
H250 H 0.95207 0.03907 0.0656 0.0
C251 C 0.87263 1.00675 0.91751 0.0
H252 H 0.8913 0.04023 0.13168 0.0
C253 C 0.90725 1.0055 0.88053 0.0
C254 C 0.93648 1.01736 0.9324 0.0
H255 H 0.85055 0.99823 0.87478 0.0
H256 H 0.91099 0.99605 0.80972 0.0
C257 C 0.93018 0.0297 0.02378 0.0
C258 C 0.54998 0.85017 0.92832 0.0
C259 C 0.54431 0.8365 0.03263 0.0
H260 H 0.55249 0.89666 0.80616 0.0
C261 C 0.53567 0.86105 0.09595 0.0
H262 H 0.55652 0.83177 0.87827 0.0
C263 C 0.53285 0.89863 0.05436 0.0
C264 C 0.53909 0.91231 0.94933 0.0
H265 H 0.53097 0.85128 0.17685 0.0
H266 H 0.52622 0.91698 0.10444 0.0
C267 C 0.54767 0.88742 0.88727 0.0
C268 C 0.73419 0.5053 0.16476 0.0
C269 C 0.7557 0.53677 0.13198 0.0
H270 H 0.69044 0.47202 0.12872 0.0
C271 C 0.74671 0.56117 0.04218 0.0
H272 H 0.74095 0.48565 0.2326 0.0
C273 C 0.71758 0.55363 0.98351 0.0
C274 C 0.69773 0.52091 0.01227 0.0
H275 H 0.76339 0.58521 0.01487 0.0
H276 H 0.71192 0.57214 0.9125 0.0
C277 C 0.70567 0.49728 0.10475 0.0
C278 C 1.01445 0.71196 0.03804 0.0
C279 C 0.03976 0.71188 0.11538 0.0
H280 H 0.99801 0.68979 0.90776 0.0
C281 C 0.06724 0.68682 0.12508 0.0
H282 H 0.99354 0.73159 0.0282 0.0
C283 C 0.07036 0.66382 0.0545 0.0
C284 C 0.04572 0.66506 0.97475 0.0
H285 H 0.0876 0.68681 0.18243 0.0
H286 H 0.09267 0.64595 0.05968 0.0
C287 C 1.0171 0.68839 0.96905 0.0
C288 C 1.00622 0.13274 0.40753 0.0
C289 C 0.99273 0.16448 0.43392 0.0
H290 H 0.0219 0.07777 0.45948 0.0
C291 C 0.98048 0.16261 0.53451 0.0
H292 H 1.01683 0.13274 0.33228 0.0
C293 C 0.98533 0.13124 0.60885 0.0
C294 C 1.00095 0.1008 0.58263 0.0
H295 H 0.96891 0.18591 0.55736 0.0
H296 H 0.97791 0.13114 0.68732 0.0
C297 C 1.00968 0.10106 0.48088 0.0
C298 C 0.40455 0.96991 0.57384 0.0
C299 C 0.376 0.99174 0.59007 0.0
H300 H 0.45959 0.95829 0.60043 0.0
C301 C 0.37992 1.01424 0.66208 0.0
H302 H 0.4021 0.95177 0.52002 0.0
C303 C 0.41269 1.01734 0.70959 0.0
C304 C 0.4422 0.99854 0.68429 0.0
H305 H 0.35862 0.03153 0.67579 0.0
H306 H 0.4155 0.03616 0.76143 0.0
C307 C 0.43755 0.97386 0.61878 0.0
C308 C 0.56778 0.39059 0.58834 0.0
C309 C 0.53463 0.38141 0.55067 0.0
H310 H 0.59748 0.42778 0.66251 0.0
C311 C 0.50527 0.40243 0.56212 0.0
H312 H 0.59097 0.37527 0.57766 0.0
C313 C 0.50903 0.43273 0.60776 0.0
C314 C 0.54232 0.44282 0.64321 0.0
H315 H 0.47964 0.3963 0.53145 0.0
H316 H 0.48581 0.44855 0.6137 0.0
C317 C 0.5716 0.42105 0.63466 0.0
C318 C 0.16605 0.5017 0.52945 0.0
C319 C 0.16942 0.52906 0.4418 0.0
H320 H 0.13607 0.48026 0.66396 0.0
C321 C 0.1453 0.55759 0.42408 0.0
H322 H 0.18419 0.47932 0.54372 0.0
C323 C 0.11779 0.55847 0.49383 0.0
C324 C 0.11378 0.53018 0.57951 0.0
H325 H 0.1476 0.57885 0.35612 0.0
H326 H 0.09922 0.58045 0.47952 0.0
C327 C 0.1383 0.50208 0.59724 0.0
C328 C 0.06203 0.87123 0.06038 0.0
C329 C 0.07802 0.87265 0.15456 0.0
H330 H 0.04284 0.90039 0.91968 0.0
C331 C 0.09048 0.90676 0.17282 0.0
H332 H 0.05135 0.84596 0.04318 0.0
C333 C 0.08423 0.9389 0.10191 0.0
C334 C 0.06611 0.93719 0.0111 0.0
H335 H 0.10364 0.90882 0.2437 0.0
H336 H 0.09258 0.96493 0.11941 0.0
C337 C 0.05648 0.90292 0.98956 0.0
C338 C 0.69083 0.02537 0.9572 0.0
C339 C 0.69432 0.04766 0.02991 0.0
H340 H 0.65569 1.00332 0.85709 0.0
C341 C 0.66551 0.06904 0.04658 0.0
H342 H 0.71236 1.00843 0.94311 0.0
C343 C 0.63265 0.06484 0.00125 0.0
C344 C 0.62842 0.04033 0.93509 0.0
H345 H 0.66766 0.08704 0.10085 0.0
H346 H 0.61038 0.08006 0.01986 0.0
C347 C 0.65818 0.02201 0.90942 0.0
C348 C 0.58161 0.63707 0.06701 0.0
C349 C 0.55222 0.65838 0.07622 0.0
H350 H 0.60137 0.59084 0.01649 0.0
C351 C 0.51945 0.64966 0.03543 0.0
H352 H 0.60697 0.64295 0.09966 0.0
C353 C 0.51597 0.61929 0.98871 0.0
C354 C 0.54523 0.59723 0.98251 0.0
H355 H 0.49626 0.66526 0.04398 0.0
H356 H 0.49035 0.6129 0.95854 0.0
C357 C 0.57818 0.6069 0.02075 0.0
C358 C 0.92533 0.53511 0.08539 0.0
C359 C 0.92161 0.50812 0.1738 0.0
H360 H 0.95578 0.55575 0.9511 0.0
C361 C 0.94547 0.47934 0.19276 0.0
H362 H 0.9074 0.55766 0.07005 0.0
C363 C 0.97312 0.47794 0.12388 0.0
C364 C 0.97757 0.50595 0.03774 0.0
H365 H 0.9429 0.45834 0.26123 0.0
H366 H 0.99153 0.45583 0.13935 0.0
C367 C 0.95323 0.5342 0.01839 0.0
C368 C 1.00902 0.20523 0.0334 0.0
C369 C 0.03229 0.22027 0.09763 0.0
H370 H 1.00024 0.16419 0.94511 0.0
C371 C 0.06826 0.21147 0.0979 0.0
H372 H 0.98108 0.21146 0.0318 0.0
C373 C 0.07941 0.18379 0.04917 0.0
C374 C 0.05478 0.16425 -0.00094 0.0
H375 H 0.08689 0.22252 0.14666 0.0
H376 H 0.10682 0.17607 0.05795 0.0
C377 C 0.02001 0.17732 0.98537 0.0
C378 C 0.36157 0.99577 0.18887 0.0
C379 C 0.34639 0.02351 0.23045 0.0
H380 H 0.40541 0.98013 0.10731 0.0
C381 C 0.35981 0.05941 0.19955 0.0
H382 H 0.35221 0.96772 0.21332 0.0
C383 C 0.39086 0.06654 0.1405 0.0
C384 C 0.4089 0.03789 0.11057 0.0
H385 H 0.349 0.0812 0.23185 0.0
H386 H 0.40193 0.0941 0.12415 0.0
C387 C 0.39259 1.00285 0.12973 0.0
C388 C 0.49051 0.39184 0.16769 0.0
C389 C 0.52029 0.3702 0.19554 0.0
H390 H 0.46975 0.43915 0.06966 0.0
C391 C 0.5511 0.37741 0.13539 0.0
H392 H 0.46671 0.38732 0.21461 0.0
C393 C 0.5532 0.40759 0.05466 0.0
C394 C 0.52444 0.43108 0.03189 0.0
H395 H 0.57465 0.36177 0.15664 0.0
H396 H 0.57807 0.41346 0.01308 0.0
C397 C 0.49245 0.42187 0.08598 0.0
C398 C 0.1872 0.54036 0.02721 0.0
C399 C 0.19544 0.50913 0.09919 0.0
H400 H 0.1511 0.56486 0.91209 0.0
C401 C 0.17695 0.47608 0.09666 0.0
H402 H 0.2005 0.56629 0.02938 0.0
C403 C 0.14811 0.47524 0.03068 0.0
C404 C 0.13726 0.50756 0.96718 0.0
H405 H 0.18229 0.45187 0.15344 0.0
H406 H 0.13266 0.45005 0.0355 0.0
C407 C 0.15832 0.53963 0.96192 0.0
C408 C 0.06287 0.83925 0.56503 0.0
C409 C 0.03968 0.82282 0.50389 0.0
H410 H 0.07061 0.88069 0.65208 0.0
C411 C 1.00337 0.82999 0.50573 0.0
H412 H 0.0911 0.83447 0.56395 0.0
C413 C 0.99141 0.85717 0.55508 0.0
C414 C 1.01561 0.87781 0.6032 0.0
H415 H 0.98496 0.81796 0.45845 0.0
H416 H 0.96363 0.86365 0.5484 0.0
C417 C 0.05104 0.86654 0.61389 0.0
C418 C 0.70956 0.043 0.4314 0.0
C419 C 0.72469 1.01545 0.38891 0.0
H420 H 0.66576 0.05838 0.51363 0.0
C421 C 0.71127 0.97951 0.41911 0.0
H422 H 0.71891 0.07107 0.40756 0.0
C423 C 0.68023 0.97222 0.47822 0.0
C424 C 0.6622 1.00073 0.50896 0.0
H425 H 0.72204 0.95786 0.38617 0.0
H426 H 0.66916 0.94465 0.49398 0.0
C427 C 0.67854 0.03576 0.49058 0.0
C428 C 0.53571 0.66304 0.49157 0.0
C429 C 0.5663 0.6706 0.43061 0.0
H430 H 0.5093 0.6266 0.61415 0.0
C431 C 0.59637 0.64929 0.45785 0.0
H432 H 0.51195 0.67842 0.471 0.0
C433 C 0.59486 0.61914 0.53932 0.0
C434 C 0.56304 0.6095 0.59394 0.0
H435 H 0.62004 0.65411 0.41045 0.0
H436 H 0.61774 0.60208 0.55495 0.0
C437 C 0.53404 0.63277 0.57209 0.0
C438 C 0.90509 0.4962 0.58771 0.0
C439 C 0.89657 0.52779 0.51744 0.0
H440 H 0.94129 0.4712 0.70191 0.0
C441 C 0.91487 0.56078 0.52193 0.0
H442 H 0.89198 0.47031 0.58398 0.0
C443 C 0.94363 0.56133 0.58846 0.0
C444 C 0.95468 0.52877 0.65044 0.0
H445 H 0.90937 0.58528 0.46645 0.0
H446 H 0.95885 0.58657 0.58529 0.0
C447 C 0.93392 0.49664 0.6534 0.0
loop_
_geom_bond_atom_site_label_1
_geom_bond_atom_site_label_2
_geom_bond_distance
_geom_bond_site_symmetry_2
_ccdc_geom_bond_type
H0 C5 0.929 . S
H1 C10 0.931 . S
H2 C8 0.930 . S
N3 N4 1.234 . S
N3 C7 1.453 . S
N4 N3 1.234 . S
C5 H0 0.929 . S
C5 C6 1.373 . S
C5 C7 1.368 . S
C6 C5 1.373 . S
C6 C10 1.397 . S
C7 N3 1.453 . S
C7 C5 1.368 . S
C7 C8 1.373 . S
C8 H2 0.930 . S
C8 C7 1.373 . S
C8 C9 1.371 . S
C9 C8 1.371 . S
C9 C10 1.383 . S
C10 H1 0.931 . S
C10 C6 1.397 . S
C10 C9 1.383 . S
H11 C16 0.929 . S
H12 C21 0.931 . S
H13 C19 0.930 1_556 S
N14 N15 1.234 . S
N14 C18 1.453 . S
N15 N14 1.234 . S
C16 H11 0.929 . S
C16 C17 1.373 . S
C16 C18 1.368 . S
C17 C16 1.373 . S
C17 C21 1.397 . S
C18 N14 1.453 . S
C18 C16 1.368 . S
C18 C19 1.373 . S
C19 H13 0.930 1_554 S
C19 C18 1.373 . S
C19 C20 1.371 . S
C20 C19 1.371 . S
C20 C21 1.383 . S
C21 H12 0.931 . S
C21 C17 1.397 . S
C21 C20 1.383 . S
H22 C27 0.929 . S
H23 C32 0.931 . S
H24 C30 0.930 . S
N25 N26 1.218 1_544 S
N25 C29 1.453 . S
N26 N25 1.218 1_566 S
C27 H22 0.929 . S
C27 C28 1.373 . S
C27 C29 1.368 . S
C28 C27 1.373 . S
C28 C32 1.397 1_545 S
C29 N25 1.453 . S
C29 C27 1.368 . S
C29 C30 1.373 1_554 S
C30 H24 0.930 . S
C30 C29 1.373 1_556 S
C30 C31 1.373 . S
C31 C30 1.373 . S
C31 C32 1.386 1_546 S
C32 H23 0.931 . S
C32 C28 1.397 1_565 S
C32 C31 1.386 1_564 S
H33 C38 0.929 . S
H34 C43 0.931 . S
H35 C41 0.930 . S
N36 N37 1.234 . S
N36 C40 1.453 . S
N37 N36 1.234 . S
C38 H33 0.929 . S
C38 C39 1.373 . S
C38 C40 1.368 . S
C39 C38 1.373 . S
C39 C43 1.397 . S
C40 N36 1.453 . S
C40 C38 1.368 . S
C40 C41 1.373 . S
C41 H35 0.930 . S
C41 C40 1.373 . S
C41 C42 1.371 . S
C42 C41 1.371 . S
C42 C43 1.383 . S
C43 H34 0.931 . S
C43 C39 1.397 . S
C43 C42 1.383 . S
H44 C49 0.929 . S
H45 C54 0.931 . S
H46 C52 0.930 . S
N47 N48 1.234 . S
N47 C51 1.453 . S
N48 N47 1.234 . S
C49 H44 0.929 . S
C49 C50 1.373 . S
C49 C51 1.368 . S
C50 C49 1.373 . S
C50 C54 1.397 . S
C51 N47 1.453 . S
C51 C49 1.368 . S
C51 C52 1.373 . S
C52 H46 0.930 . S
C52 C51 1.373 . S
C52 C53 1.371 . S
C53 C52 1.371 . S
C53 C54 1.383 . S
C54 H45 0.931 . S
C54 C50 1.397 . S
C54 C53 1.383 . S
H55 C60 0.929 . S
H56 C65 0.931 . S
H57 C63 0.930 . S
N58 N59 1.234 . S
N58 C62 1.453 . S
N59 N58 1.234 . S
C60 H55 0.929 . S
C60 C61 1.373 . S
C60 C62 1.368 . S
C61 C60 1.373 . S
C61 C65 1.397 . S
C62 N58 1.453 . S
C62 C60 1.368 . S
C62 C63 1.373 . S
C63 H57 0.930 . S
C63 C62 1.373 . S
C63 C64 1.371 . S
C64 C63 1.371 . S
C64 C65 1.383 . S
C65 H56 0.931 . S
C65 C61 1.397 . S
C65 C64 1.383 . S
H66 C71 0.929 . S
H67 C76 0.931 . S
H68 C74 0.930 . S
N69 N70 1.231 1_545 S
N69 C73 1.453 . S
N70 N69 1.231 1_565 S
C71 H66 0.929 . S
C71 C72 1.373 . S
C71 C73 1.368 . S
C72 C71 1.373 . S
C72 C76 1.397 1_545 S
C73 N69 1.453 . S
C73 C71 1.368 . S
C73 C74 1.373 . S
C74 H68 0.930 . S
C74 C73 1.373 . S
C74 C75 1.376 . S
C75 C74 1.376 . S
C75 C76 1.375 1_545 S
C76 H67 0.931 . S
C76 C72 1.397 1_565 S
C76 C75 1.375 1_565 S
H77 C82 0.929 . S
H78 C87 0.931 . S
H79 C85 0.930 . S
N80 N81 1.234 . S
N80 C84 1.453 . S
N81 N80 1.234 . S
C82 H77 0.929 . S
C82 C83 1.373 . S
C82 C84 1.368 . S
C83 C82 1.373 . S
C83 C87 1.397 . S
C84 N80 1.453 . S
C84 C82 1.368 . S
C84 C85 1.373 . S
C85 H79 0.930 . S
C85 C84 1.373 . S
C85 C86 1.371 . S
C86 C85 1.371 . S
C86 C87 1.383 . S
C87 H78 0.931 . S
C87 C83 1.397 . S
C87 C86 1.383 . S
Co88 N93 2.057 1_556 S
Co88 O105 2.021 . S
Co88 O108 2.062 . S
Co88 O112 2.117 1_455 S
Co88 O113 2.020 1_545 S
C89 O109 1.259 1_545 S
C89 O112 1.258 . S
Co90 N99 2.057 . S
Co90 O106 2.117 . S
Co90 O107 2.020 1_565 S
Co90 O109 2.021 1_455 S
Co90 O114 2.062 . S
C91 N93 1.316 . S
C91 N94 1.347 . S
C91 H96 0.931 . S
C92 N93 1.375 . S
C92 C95 1.350 . S
C92 H97 0.930 1_455 S
N93 Co88 2.057 1_554 S
N93 C91 1.316 . S
N93 C92 1.375 . S
N94 C91 1.347 . S
N94 C95 1.373 . S
C95 C92 1.350 . S
C95 N94 1.373 . S
C95 H116 0.931 . S
H96 C91 0.931 . S
H97 C92 0.930 1_655 S
C98 O105 1.259 1_565 S
C98 O106 1.258 . S
N99 Co90 2.057 . S
N99 C100 1.316 1_455 S
N99 C101 1.375 . S
C100 N99 1.316 1_655 S
C100 N102 1.347 . S
C100 H111 0.931 . S
C101 N99 1.375 . S
C101 C103 1.350 . S
C101 H110 0.930 . S
N102 C100 1.347 . S
N102 C103 1.373 1_655 S
C103 C101 1.350 . S
C103 N102 1.373 1_455 S
C103 H117 0.931 . S
C104 O107 1.256 . S
C104 O108 1.255 . S
O105 Co88 2.021 . S
O105 C98 1.259 1_545 S
O106 Co90 2.117 . S
O106 C98 1.258 . S
O107 Co90 2.020 1_545 S
O107 C104 1.256 . S
O108 Co88 2.062 . S
O108 C104 1.255 . S
O109 C89 1.259 1_565 S
O109 Co90 2.021 1_655 S
H110 C101 0.930 . S
H111 C100 0.931 . S
O112 Co88 2.117 1_655 S
O112 C89 1.258 . S
O113 Co88 2.020 1_565 S
O113 C115 1.256 . S
O114 Co90 2.062 . S
O114 C115 1.255 . S
C115 O113 1.256 . S
C115 O114 1.255 . S
H116 C95 0.931 . S
H117 C103 0.931 . S
Co118 N123 2.057 1_546 S
Co118 O135 2.021 . S
Co118 O138 2.062 . S
Co118 O142 2.117 1_545 S
Co118 O143 2.020 . S
C119 O139 1.259 . S
C119 O142 1.258 . S
Co120 N129 2.057 1_565 S
Co120 O136 2.117 1_565 S
Co120 O137 2.020 . S
Co120 O139 2.021 . S
Co120 O144 2.062 . S
C121 N123 1.316 1_545 S
C121 N124 1.347 . S
C121 H126 0.931 . S
C122 N123 1.375 . S
C122 C125 1.350 . S
C122 H127 0.930 . S
N123 Co118 2.057 1_564 S
N123 C121 1.316 1_565 S
N123 C122 1.375 . S
N124 C121 1.347 . S
N124 C125 1.373 1_545 S
C125 C122 1.350 . S
C125 N124 1.373 1_565 S
C125 H146 0.931 . S
H126 C121 0.931 . S
H127 C122 0.930 . S
C128 O135 1.259 . S
C128 O136 1.258 . S
N129 Co120 2.057 1_545 S
N129 C130 1.316 1_545 S
N129 C131 1.375 . S
C130 N129 1.316 1_565 S
C130 N132 1.347 . S
C130 H141 0.931 . S
C131 N129 1.375 . S
C131 C133 1.350 . S
C131 H140 0.930 . S
N132 C130 1.347 . S
N132 C133 1.373 1_565 S
C133 C131 1.350 . S
C133 N132 1.373 1_545 S
C133 H147 0.931 . S
C134 O137 1.256 . S
C134 O138 1.255 1_565 S
O135 Co118 2.021 . S
O135 C128 1.259 . S
O136 Co120 2.117 1_545 S
O136 C128 1.258 . S
O137 Co120 2.020 . S
O137 C134 1.256 . S
O138 Co118 2.062 . S
O138 C134 1.255 1_545 S
O139 C119 1.259 . S
O139 Co120 2.021 . S
H140 C131 0.930 . S
H141 C130 0.931 . S
O142 Co118 2.117 1_565 S
O142 C119 1.258 . S
O143 Co118 2.020 . S
O143 C145 1.256 . S
O144 Co120 2.062 . S
O144 C145 1.255 1_565 S
C145 O143 1.256 . S
C145 O144 1.255 1_545 S
H146 C125 0.931 . S
H147 C133 0.931 . S
Co148 N153 2.057 . S
Co148 O165 2.021 . S
Co148 O168 2.062 . S
Co148 O172 2.117 . S
Co148 O173 2.020 . S
C149 O169 1.259 . S
C149 O172 1.258 . S
Co150 N159 2.057 . S
Co150 O166 2.117 . S
Co150 O167 2.020 . S
Co150 O169 2.021 . S
Co150 O174 2.062 . S
C151 N153 1.316 . S
C151 N154 1.347 . S
C151 H156 0.931 . S
C152 N153 1.375 . S
C152 C155 1.350 1_556 S
C152 H157 0.930 1_556 S
N153 Co148 2.057 . S
N153 C151 1.316 . S
N153 C152 1.375 . S
N154 C151 1.347 . S
N154 C155 1.373 1_556 S
C155 C152 1.350 1_554 S
C155 N154 1.373 1_554 S
C155 H176 0.931 . S
H156 C151 0.931 . S
H157 C152 0.930 1_554 S
C158 O165 1.259 . S
C158 O166 1.258 . S
N159 Co150 2.057 . S
N159 C160 1.316 . S
N159 C161 1.375 . S
C160 N159 1.316 . S
C160 N162 1.347 . S
C160 H171 0.931 . S
C161 N159 1.375 . S
C161 C163 1.350 . S
C161 H170 0.930 . S
N162 C160 1.347 . S
N162 C163 1.373 . S
C163 C161 1.350 . S
C163 N162 1.373 . S
C163 H177 0.931 . S
C164 O167 1.256 . S
C164 O168 1.255 . S
O165 Co148 2.021 . S
O165 C158 1.259 . S
O166 Co150 2.117 . S
O166 C158 1.258 . S
O167 Co150 2.020 . S
O167 C164 1.256 . S
O168 Co148 2.062 . S
O168 C164 1.255 . S
O169 C149 1.259 . S
O169 Co150 2.021 . S
H170 C161 0.930 . S
H171 C160 0.931 . S
O172 Co148 2.117 . S
O172 C149 1.258 . S
O173 Co148 2.020 . S
O173 C175 1.256 . S
O174 Co150 2.062 . S
O174 C175 1.255 . S
C175 O173 1.256 . S
C175 O174 1.255 . S
H176 C155 0.931 . S
H177 C163 0.931 . S
Co178 N183 2.057 . S
Co178 O195 2.021 1_455 S
Co178 O198 2.062 1_455 S
Co178 O202 2.117 . S
Co178 O203 2.020 . S
C179 O199 1.259 . S
C179 O202 1.258 . S
Co180 N189 2.057 . S
Co180 O196 2.117 1_455 S
Co180 O197 2.020 1_455 S
Co180 O199 2.021 . S
Co180 O204 2.062 . S
C181 N183 1.316 . S
C181 N184 1.347 . S
C181 H186 0.931 1_455 S
C182 N183 1.375 . S
C182 C185 1.350 . S
C182 H187 0.930 . S
N183 Co178 2.057 . S
N183 C181 1.316 . S
N183 C182 1.375 . S
N184 C181 1.347 . S
N184 C185 1.373 . S
C185 C182 1.350 . S
C185 N184 1.373 . S
C185 H206 0.931 . S
H186 C181 0.931 1_655 S
H187 C182 0.930 . S
C188 O195 1.259 . S
C188 O196 1.258 . S
N189 Co180 2.057 . S
N189 C190 1.316 . S
N189 C191 1.375 1_455 S
C190 N189 1.316 . S
C190 N192 1.347 . S
C190 H201 0.931 . S
C191 N189 1.375 1_655 S
C191 C193 1.350 1_655 S
C191 H200 0.930 . S
N192 C190 1.347 . S
N192 C193 1.373 . S
C193 C191 1.350 1_455 S
C193 N192 1.373 . S
C193 H207 0.931 1_455 S
C194 O197 1.256 . S
C194 O198 1.255 . S
O195 Co178 2.021 1_655 S
O195 C188 1.259 . S
O196 Co180 2.117 1_655 S
O196 C188 1.258 . S
O197 Co180 2.020 1_655 S
O197 C194 1.256 . S
O198 Co178 2.062 1_655 S
O198 C194 1.255 . S
O199 C179 1.259 . S
O199 Co180 2.021 . S
H200 C191 0.930 . S
H201 C190 0.931 . S
O202 Co178 2.117 . S
O202 C179 1.258 . S
O203 Co178 2.020 . S
O203 C205 1.256 . S
O204 Co180 2.062 . S
O204 C205 1.255 . S
C205 O203 1.256 . S
C205 O204 1.255 . S
H206 C185 0.931 . S
H207 C193 0.931 1_655 S
C208 C209 1.387 . S
C208 H212 0.950 . S
C208 C217 1.390 . S
C209 C208 1.387 . S
C209 C211 1.387 1_565 S
H210 C217 0.950 . S
C211 C209 1.387 1_545 S
C211 C213 1.390 . S
C211 H215 0.950 . S
H212 C208 0.950 . S
C213 C211 1.390 . S
C213 C214 1.387 1_545 S
C213 H216 0.950 . S
C214 C213 1.387 1_565 S
C214 C217 1.387 . S
H215 C211 0.950 . S
H216 C213 0.950 . S
C217 C208 1.390 . S
C217 H210 0.950 . S
C217 C214 1.387 . S
C218 C219 1.387 . S
C218 H222 0.950 . S
C218 C227 1.390 . S
C219 C218 1.387 . S
C219 C221 1.387 . S
H220 C227 0.950 . S
C221 C219 1.387 . S
C221 C223 1.390 . S
C221 H225 0.950 . S
H222 C218 0.950 . S
C223 C221 1.390 . S
C223 C224 1.387 . S
C223 H226 0.950 . S
C224 C223 1.387 . S
C224 C227 1.387 . S
H225 C221 0.950 . S
H226 C223 0.950 . S
C227 C218 1.390 . S
C227 H220 0.950 . S
C227 C224 1.387 . S
C228 C229 1.387 . S
C228 H232 0.950 . S
C228 C237 1.390 . S
C229 C228 1.387 . S
C229 C231 1.387 . S
H230 C237 0.950 . S
C231 C229 1.387 . S
C231 C233 1.390 . S
C231 H235 0.950 . S
H232 C228 0.950 . S
C233 C231 1.390 . S
C233 C234 1.387 . S
C233 H236 0.950 . S
C234 C233 1.387 . S
C234 C237 1.387 . S
H235 C231 0.950 . S
H236 C233 0.950 . S
C237 C228 1.390 . S
C237 H230 0.950 . S
C237 C234 1.387 . S
C238 C239 1.387 . S
C238 H242 0.950 . S
C238 C247 1.390 . S
C239 C238 1.387 . S
C239 C241 1.387 . S
H240 C247 0.950 . S
C241 C239 1.387 . S
C241 C243 1.390 . S
C241 H245 0.950 . S
H242 C238 0.950 . S
C243 C241 1.390 . S
C243 C244 1.387 . S
C243 H246 0.950 . S
C244 C243 1.387 . S
C244 C247 1.387 . S
H245 C241 0.950 . S
H246 C243 0.950 . S
C247 C238 1.390 . S
C247 H240 0.950 . S
C247 C244 1.387 . S
C248 C249 1.387 . S
C248 H252 0.950 . S
C248 C257 1.390 . S
C249 C248 1.387 . S
C249 C251 1.387 1_545 S
H250 C257 0.950 . S
C251 C249 1.387 1_565 S
C251 C253 1.390 . S
C251 H255 0.950 . S
H252 C248 0.950 . S
C253 C251 1.390 . S
C253 C254 1.387 1_565 S
C253 H256 0.950 . S
C254 C253 1.387 1_545 S
C254 C257 1.387 . S
H255 C251 0.950 . S
H256 C253 0.950 . S
C257 C248 1.390 . S
C257 H250 0.950 . S
C257 C254 1.387 . S
C258 C259 1.387 1_556 S
C258 H262 0.950 . S
C258 C267 1.390 . S
C259 C258 1.387 1_554 S
C259 C261 1.387 . S
H260 C267 0.950 . S
C261 C259 1.387 . S
C261 C263 1.390 1_554 S
C261 H265 0.950 . S
H262 C258 0.950 . S
C263 C261 1.390 1_556 S
C263 C264 1.387 . S
C263 H266 0.950 1_556 S
C264 C263 1.387 . S
C264 C267 1.387 . S
H265 C261 0.950 . S
H266 C263 0.950 1_554 S
C267 C258 1.390 . S
C267 H260 0.950 . S
C267 C264 1.387 . S
C268 C269 1.387 . S
C268 H272 0.950 . S
C268 C277 1.390 . S
C269 C268 1.387 . S
C269 C271 1.387 . S
H270 C277 0.950 . S
C271 C269 1.387 . S
C271 C273 1.390 1_554 S
C271 H275 0.950 . S
H272 C268 0.950 . S
C273 C271 1.390 1_556 S
C273 C274 1.387 . S
C273 H276 0.950 . S
C274 C273 1.387 . S
C274 C277 1.387 1_556 S
H275 C271 0.950 . S
H276 C273 0.950 . S
C277 C268 1.390 . S
C277 H270 0.950 . S
C277 C274 1.387 1_554 S
C278 C279 1.387 1_556 S
C278 H282 0.950 . S
C278 C287 1.390 . S
C279 C278 1.387 1_554 S
C279 C281 1.387 1_654 S
H280 C287 0.950 . S
C281 C279 1.387 1_456 S
C281 C283 1.390 . S
C281 H285 0.950 1_556 S
H282 C278 0.950 . S
C283 C281 1.390 . S
C283 C284 1.387 1_455 S
C283 H286 0.950 . S
C284 C283 1.387 1_655 S
C284 C287 1.387 . S
H285 C281 0.950 1_554 S
H286 C283 0.950 . S
C287 C278 1.390 . S
C287 H280 0.950 . S
C287 C284 1.387 . S
C288 C289 1.387 . S
C288 H292 0.950 . S
C288 C297 1.390 . S
C289 C288 1.387 . S
C289 C291 1.387 . S
H290 C297 0.950 . S
C291 C289 1.387 . S
C291 C293 1.390 . S
C291 H295 0.950 . S
H292 C288 0.950 . S
C293 C291 1.390 . S
C293 C294 1.387 . S
C293 H296 0.950 . S
C294 C293 1.387 . S
C294 C297 1.387 . S
H295 C291 0.950 . S
H296 C293 0.950 . S
C297 C288 1.390 . S
C297 H290 0.950 . S
C297 C294 1.387 . S
C298 C299 1.401 . S
C298 H302 0.950 . S
C298 C307 1.390 . S
C299 C298 1.401 . S
C299 C301 1.377 1_565 S
H300 C307 0.950 . S
C301 C299 1.377 1_545 S
C301 C303 1.390 . S
C301 H305 0.950 . S
H302 C298 0.950 . S
C303 C301 1.390 . S
C303 C304 1.387 1_545 S
C303 H306 0.950 . S
C304 C303 1.387 1_565 S
C304 C307 1.387 . S
H305 C301 0.950 . S
H306 C303 0.950 . S
C307 C298 1.390 . S
C307 H300 0.950 . S
C307 C304 1.387 . S
C308 C309 1.387 . S
C308 H312 0.950 . S
C308 C317 1.390 . S
C309 C308 1.387 . S
C309 C311 1.387 . S
H310 C317 0.950 . S
C311 C309 1.387 . S
C311 C313 1.390 . S
C311 H315 0.950 . S
H312 C308 0.950 . S
C313 C311 1.390 . S
C313 C314 1.387 . S
C313 H316 0.950 . S
C314 C313 1.387 . S
C314 C317 1.387 . S
H315 C311 0.950 . S
H316 C313 0.950 . S
C317 C308 1.390 . S
C317 H310 0.950 . S
C317 C314 1.387 . S
C318 C319 1.387 . S
C318 H322 0.950 . S
C318 C327 1.390 . S
C319 C318 1.387 . S
C319 C321 1.387 . S
H320 C327 0.950 . S
C321 C319 1.387 . S
C321 C323 1.390 . S
C321 H325 0.950 . S
H322 C318 0.950 . S
C323 C321 1.390 . S
C323 C324 1.387 . S
C323 H326 0.950 . S
C324 C323 1.387 . S
C324 C327 1.387 . S
H325 C321 0.950 . S
H326 C323 0.950 . S
C327 C318 1.390 . S
C327 H320 0.950 . S
C327 C324 1.387 . S
C328 C329 1.387 . S
C328 H332 0.950 . S
C328 C337 1.390 . S
C329 C328 1.387 . S
C329 C331 1.387 1_556 S
H330 C337 0.950 1_455 S
C331 C329 1.387 1_554 S
C331 C333 1.405 . S
C331 H335 0.950 . S
H332 C328 0.950 . S
C333 C331 1.405 . S
C333 C334 1.381 1_654 S
C333 H336 0.942 1_655 S
C334 C333 1.381 1_456 S
C334 C337 1.387 1_455 S
H335 C331 0.950 . S
H336 C333 0.942 1_455 S
C337 C328 1.390 . S
C337 H330 0.950 1_655 S
C337 C334 1.387 1_655 S
C338 C339 1.375 1_565 S
C338 H342 0.950 . S
C338 C347 1.390 . S
C339 C338 1.375 1_545 S
C339 C341 1.404 1_556 S
H340 C347 0.950 . S
C341 C339 1.404 1_554 S
C341 C343 1.390 . S
C341 H345 0.950 . S
H342 C338 0.950 . S
C343 C341 1.390 . S
C343 C344 1.387 1_554 S
C343 H346 0.950 . S
C344 C343 1.387 1_556 S
C344 C347 1.387 1_545 S
H345 C341 0.950 . S
H346 C343 0.950 . S
C347 C338 1.390 . S
C347 H340 0.950 . S
C347 C344 1.387 1_565 S
C348 C349 1.387 1_556 S
C348 H352 0.950 . S
C348 C357 1.390 . S
C349 C348 1.387 1_554 S
C349 C351 1.387 . S
H350 C357 0.950 . S
C351 C349 1.387 . S
C351 C353 1.390 . S
C351 H355 0.950 . S
H352 C348 0.950 . S
C353 C351 1.390 . S
C353 C354 1.387 1_554 S
C353 H356 0.950 . S
C354 C353 1.387 1_556 S
C354 C357 1.387 . S
H355 C351 0.950 . S
H356 C353 0.950 . S
C357 C348 1.390 . S
C357 H350 0.950 . S
C357 C354 1.387 . S
C358 C359 1.387 . S
C358 H362 0.950 . S
C358 C367 1.390 1_554 S
C359 C358 1.387 . S
C359 C361 1.387 . S
H360 C367 0.950 . S
C361 C359 1.387 . S
C361 C363 1.390 . S
C361 H365 0.950 . S
H362 C358 0.950 . S
C363 C361 1.390 . S
C363 C364 1.387 1_554 S
C363 H366 0.950 . S
C364 C363 1.387 1_556 S
C364 C367 1.387 . S
H365 C361 0.950 . S
H366 C363 0.950 . S
C367 C358 1.390 1_556 S
C367 H360 0.950 . S
C367 C364 1.387 . S
C368 C369 1.387 . S
C368 H372 0.950 . S
C368 C377 1.390 . S
C369 C368 1.387 . S
C369 C371 1.387 . S
H370 C377 0.950 . S
C371 C369 1.387 . S
C371 C373 1.390 . S
C371 H375 0.950 . S
H372 C368 0.950 . S
C373 C371 1.390 . S
C373 C374 1.387 . S
C373 H376 0.950 . S
C374 C373 1.387 . S
C374 C377 1.387 . S
H375 C371 0.950 . S
H376 C373 0.950 . S
C377 C368 1.390 . S
C377 H370 0.950 . S
C377 C374 1.387 . S
C378 C379 1.387 1_565 S
C378 H382 0.950 . S
C378 C387 1.390 . S
C379 C378 1.387 1_545 S
C379 C381 1.387 . S
H380 C387 0.950 . S
C381 C379 1.387 . S
C381 C383 1.390 . S
C381 H385 0.950 . S
H382 C378 0.950 . S
C383 C381 1.390 . S
C383 C384 1.387 . S
C383 H386 0.950 . S
C384 C383 1.387 . S
C384 C387 1.387 1_545 S
H385 C381 0.950 . S
H386 C383 0.950 . S
C387 C378 1.390 . S
C387 H380 0.950 . S
C387 C384 1.387 1_565 S
C388 C389 1.387 . S
C388 H392 0.950 . S
C388 C397 1.390 . S
C389 C388 1.387 . S
C389 C391 1.387 . S
H390 C397 0.950 . S
C391 C389 1.387 . S
C391 C393 1.390 . S
C391 H395 0.950 . S
H392 C388 0.950 . S
C393 C391 1.390 . S
C393 C394 1.387 . S
C393 H396 0.950 . S
C394 C393 1.387 . S
C394 C397 1.387 . S
H395 C391 0.950 . S
H396 C393 0.950 . S
C397 C388 1.390 . S
C397 H390 0.950 . S
C397 C394 1.387 . S
C398 C399 1.387 . S
C398 H402 0.950 . S
C398 C407 1.390 . S
C399 C398 1.387 . S
C399 C401 1.387 . S
H400 C407 0.950 . S
C401 C399 1.387 . S
C401 C403 1.390 . S
C401 H405 0.950 . S
H402 C398 0.950 . S
C403 C401 1.390 . S
C403 C404 1.387 . S
C403 H406 0.950 . S
C404 C403 1.387 . S
C404 C407 1.387 . S
H405 C401 0.950 . S
H406 C403 0.950 . S
C407 C398 1.390 . S
C407 H400 0.950 . S
C407 C404 1.387 . S
C408 C409 1.387 . S
C408 H412 0.950 1_655 S
C408 C417 1.390 1_655 S
C409 C408 1.387 . S
C409 C411 1.387 . S
H410 C417 0.950 . S
C411 C409 1.387 . S
C411 C413 1.390 . S
C411 H415 0.950 . S
H412 C408 0.950 1_455 S
C413 C411 1.390 . S
C413 C414 1.387 . S
C413 H416 0.950 . S
C414 C413 1.387 . S
C414 C417 1.387 1_655 S
H415 C411 0.950 . S
H416 C413 0.950 . S
C417 C408 1.390 1_455 S
C417 H410 0.950 . S
C417 C414 1.387 1_455 S
C418 C419 1.387 1_545 S
C418 H422 0.950 . S
C418 C427 1.390 . S
C419 C418 1.387 1_565 S
C419 C421 1.387 . S
H420 C427 0.950 . S
C421 C419 1.387 . S
C421 C423 1.390 . S
C421 H425 0.950 . S
H422 C418 0.950 . S
C423 C421 1.390 . S
C423 C424 1.387 . S
C423 H426 0.950 . S
C424 C423 1.387 . S
C424 C427 1.387 1_565 S
H425 C421 0.950 . S
H426 C423 0.950 . S
C427 C418 1.390 . S
C427 H420 0.950 . S
C427 C424 1.387 1_545 S
C428 C429 1.387 . S
C428 H432 0.950 . S
C428 C437 1.390 . S
C429 C428 1.387 . S
C429 C431 1.387 . S
H430 C437 0.950 . S
C431 C429 1.387 . S
C431 C433 1.390 . S
C431 H435 0.950 . S
H432 C428 0.950 . S
C433 C431 1.390 . S
C433 C434 1.387 . S
C433 H436 0.950 . S
C434 C433 1.387 . S
C434 C437 1.387 . S
H435 C431 0.950 . S
H436 C433 0.950 . S
C437 C428 1.390 . S
C437 H430 0.950 . S
C437 C434 1.387 . S
C438 C439 1.387 . S
C438 H442 0.950 . S
C438 C447 1.390 . S
C439 C438 1.387 . S
C439 C441 1.387 . S
H440 C447 0.950 . S
C441 C439 1.387 . S
C441 C443 1.390 . S
C441 H445 0.950 . S
H442 C438 0.950 . S
C443 C441 1.390 . S
C443 C444 1.387 . S
C443 H446 0.950 . S
C444 C443 1.387 . S
C444 C447 1.387 . S
H445 C441 0.950 . S
H446 C443 0.950 . S
C447 C438 1.390 . S
C447 H440 0.950 . S
C447 C444 1.387 . S
C209 N70 1.703 . S
C214 C98 1.715 . S
C224 C128 1.796 . S
C219 N81 1.765 . S
C234 N162 1.372 . S
C229 N48 1.381 . S
C244 N192 1.481 . S
C239 N59 1.452 . S
C254 C89 1.715 . S
C249 N26 1.706 1_545 S
C259 N37 1.777 . S
C264 C119 1.799 . S
C269 N4 1.384 . S
C274 N154 1.372 . S
C279 N15 1.470 . S
C284 N184 1.484 1_655 S
C294 C104 0.742 . S
C289 C64 0.742 . S
C304 C134 1.109 . S
C299 C75 1.041 1_565 S
C314 C175 1.367 . S
C309 C86 1.330 . S
C319 C53 0.854 . S
C324 C205 0.854 . S
C329 C20 0.740 1_556 S
C334 C115 0.738 . S
C344 C145 1.109 . S
C339 C31 1.035 . S
C354 C164 1.366 . S
C349 C42 1.321 . S
C359 C9 0.853 . S
C364 C194 0.853 . S
C369 C61 1.471 . S
C374 N94 1.483 . S
C379 C72 1.428 . S
C384 N124 1.437 . S
C394 C149 1.666 1_554 S
C389 C83 1.642 . S
C404 C179 1.592 1_554 S
C399 C50 1.564 . S
C409 C17 1.462 . S
C414 N102 1.491 . S
C424 N132 1.437 . S
C419 C28 1.437 1_565 S
C434 C158 1.666 . S
C429 C39 1.635 . S
C439 C6 1.565 . S
C444 C188 1.593 . S
