# Generated by pormake.
# Topology zzz, (3,6)-cn, num edge types: 1
# Building blocks:
#     Node 0, Type 0, BuildingBlock: KAKCAD_clean_linker_0, # of connection points: 3
#     Node 1, Type 0, BuildingBlock: KAKCAD_clean_linker_0, # of connection points: 3
#     Node 2, Type 0, BuildingBlock: KAKCAD_clean_linker_0, # of connection points: 3
#     Node 3, Type 0, BuildingBlock: KAKCAD_clean_linker_0, # of connection points: 3
#     Node 4, Type 0, BuildingBlock: KAKCAD_clean_linker_0, # of connection points: 3
#     Node 5, Type 0, BuildingBlock: KAKCAD_clean_linker_0, # of connection points: 3
#     Node 6, Type 0, BuildingBlock: KAKCAD_clean_linker_0, # of connection points: 3
#     Node 7, Type 0, BuildingBlock: KAKCAD_clean_linker_0, # of connection points: 3
#     Node 8, Type 1, BuildingBlock: CUKXOW_clean_sbu_0, # of connection points: 6
#     Node 9, Type 1, BuildingBlock: CUKXOW_clean_sbu_0, # of connection points: 6
#     Node 10, Type 1, BuildingBlock: CUKXOW_clean_sbu_0, # of connection points: 6
#     Node 11, Type 1, BuildingBlock: CUKXOW_clean_sbu_0, # of connection points: 6
#     Edge 12, Type (0, 1), BuildingBlock: ZUJKAS_clean_linker_0, # of connection points: 2
#     Edge 13, Type (0, 1), BuildingBlock: ZUJKAS_clean_linker_0, # of connection points: 2
#     Edge 14, Type (0, 1), BuildingBlock: ZUJKAS_clean_linker_0, # of connection points: 2
#     Edge 15, Type (0, 1), BuildingBlock: ZUJKAS_clean_linker_0, # of connection points: 2
#     Edge 16, Type (0, 1), BuildingBlock: ZUJKAS_clean_linker_0, # of connection points: 2
#     Edge 17, Type (0, 1), BuildingBlock: ZUJKAS_clean_linker_0, # of connection points: 2
#     Edge 18, Type (0, 1), BuildingBlock: ZUJKAS_clean_linker_0, # of connection points: 2
#     Edge 19, Type (0, 1), BuildingBlock: ZUJKAS_clean_linker_0, # of connection points: 2
#     Edge 20, Type (0, 1), BuildingBlock: ZUJKAS_clean_linker_0, # of connection points: 2
#     Edge 21, Type (0, 1), BuildingBlock: ZUJKAS_clean_linker_0, # of connection points: 2
#     Edge 22, Type (0, 1), BuildingBlock: ZUJKAS_clean_linker_0, # of connection points: 2
#     Edge 23, Type (0, 1), BuildingBlock: ZUJKAS_clean_linker_0, # of connection points: 2
#     Edge 24, Type (0, 1), BuildingBlock: ZUJKAS_clean_linker_0, # of connection points: 2
#     Edge 25, Type (0, 1), BuildingBlock: ZUJKAS_clean_linker_0, # of connection points: 2
#     Edge 26, Type (0, 1), BuildingBlock: ZUJKAS_clean_linker_0, # of connection points: 2
#     Edge 27, Type (0, 1), BuildingBlock: ZUJKAS_clean_linker_0, # of connection points: 2
#     Edge 28, Type (0, 1), BuildingBlock: ZUJKAS_clean_linker_0, # of connection points: 2
#     Edge 29, Type (0, 1), BuildingBlock: ZUJKAS_clean_linker_0, # of connection points: 2
#     Edge 30, Type (0, 1), BuildingBlock: ZUJKAS_clean_linker_0, # of connection points: 2
#     Edge 31, Type (0, 1), BuildingBlock: ZUJKAS_clean_linker_0, # of connection points: 2
#     Edge 32, Type (0, 1), BuildingBlock: ZUJKAS_clean_linker_0, # of connection points: 2
#     Edge 33, Type (0, 1), BuildingBlock: ZUJKAS_clean_linker_0, # of connection points: 2
#     Edge 34, Type (0, 1), BuildingBlock: ZUJKAS_clean_linker_0, # of connection points: 2
#     Edge 35, Type (0, 1), BuildingBlock: ZUJKAS_clean_linker_0, # of connection points: 2
# Relax obj value: 0.216
# Max RMSD: 0.231
# Mean RMSD: 0.187
data_MOF--net-zzz--node1-CUKXOW_clean_sbu_0--node2-KAKCAD_clean_linker_0--edge1-ZUJKAS_clean_linker_0
_symmetry_space_group_name_H-M    P1
_symmetry_Int_Tables_number       1
_symmetry_cell_setting            triclinic
loop_
_symmetry_equiv_pos_as_xyz
'x, y, z'
_cell_length_a     73.230891
_cell_length_b     70.988881
_cell_length_c     25.381998
_cell_angle_alpha  92.204188
_cell_angle_beta   88.543646
_cell_angle_gamma 95.364196
loop_
_atom_site_label
_atom_site_type_symbol
_atom_site_fract_x
_atom_site_fract_y
_atom_site_fract_z
_atom_type_partial_charge
C0 C 0.8025 0.44686 0.9581 0.0
C1 C 0.81633 0.43502 0.96753 0.0
C2 C 0.78737 0.44749 0.99248 0.0
C3 C 0.78562 0.43616 0.03686 0.0
C4 C 0.7988 0.42336 0.04422 0.0
C5 C 0.81402 0.42283 0.01004 0.0
C6 C 0.77116 0.43903 0.07781 0.0
C7 C 0.75357 0.44303 0.06382 0.0
C8 C 0.74059 0.44788 0.10251 0.0
C9 C 0.74517 0.44836 0.15604 0.0
C10 C 0.76271 0.44424 0.1707 0.0
C11 C 0.77552 0.43954 0.13136 0.0
C12 C 0.76875 0.4466 0.22608 0.0
C13 C 0.76657 0.46349 0.25526 0.0
C14 C 0.77926 0.43321 0.24696 0.0
C15 C 0.78868 0.43728 0.2937 0.0
C16 C 0.78779 0.45484 0.32079 0.0
C17 C 0.72265 0.45332 0.08593 0.0
C18 C 0.72202 0.46676 0.04701 0.0
C19 C 0.70616 0.44447 0.10633 0.0
C20 C 0.68934 0.44843 0.08634 0.0
C21 C 0.68877 0.46152 0.04632 0.0
C22 C 0.70527 0.47088 0.02759 0.0
C23 C 0.77602 0.46759 0.30219 0.0
H24 H 0.80369 0.45617 0.92512 0.0
H25 H 0.77756 0.4576 0.98567 0.0
H26 H 0.79769 0.41419 0.07751 0.0
H27 H 0.82442 0.41358 0.01865 0.0
H28 H 0.74998 0.44256 0.02259 0.0
H29 H 0.78936 0.43742 0.14244 0.0
H30 H 0.73532 0.45242 0.18598 0.0
H31 H 0.7586 0.4741 0.24002 0.0
H32 H 0.78104 0.42 0.22545 0.0
H33 H 0.79768 0.42715 0.30644 0.0
H34 H 0.73456 0.47387 0.03096 0.0
H35 H 0.70634 0.43403 0.13629 0.0
H36 H 0.77479 0.48111 0.32258 0.0
H37 H 0.70528 0.48089 0.99643 0.0
H38 H 0.6768 0.4411 0.10166 0.0
C39 C 0.91091 0.80224 0.9533 0.0
C40 C 0.92588 0.81489 0.96903 0.0
C41 C 0.90392 0.78779 0.98641 0.0
C42 C 0.91156 0.78613 0.03605 0.0
C43 C 0.92644 0.79887 0.0516 0.0
C44 C 0.93354 0.81304 0.01846 0.0
C45 C 0.90471 0.77091 0.07176 0.0
C46 C 0.90391 0.75188 0.05444 0.0
C47 C 0.90153 0.73734 0.09087 0.0
C48 C 0.89957 0.74208 0.145 0.0
C49 C 0.89955 0.76109 0.16227 0.0
C50 C 0.90184 0.77534 0.12538 0.0
C51 C 0.90049 0.76684 0.21871 0.0
C52 C 0.8884 0.77945 0.24038 0.0
C53 C 0.91599 0.76339 0.24694 0.0
C54 C 0.92037 0.77389 0.29334 0.0
C55 C 0.90912 0.78772 0.31253 0.0
C56 C 0.90348 0.71755 0.07242 0.0
C57 C 0.89458 0.71 0.02692 0.0
C58 C 0.91575 0.70681 0.09704 0.0
C59 C 0.91978 0.6893 0.07497 0.0
C60 C 0.91154 0.6821 0.02797 0.0
C61 C 0.89848 0.69242 0.0051 0.0
C62 C 0.89261 0.7897 0.28731 0.0
H63 H 0.9048 0.80339 0.91528 0.0
H64 H 0.89248 0.77806 0.97355 0.0
H65 H 0.93277 0.79773 0.08933 0.0
H66 H 0.94493 0.82274 0.03185 0.0
H67 H 0.9067 0.74844 0.0132 0.0
H68 H 0.90279 0.79008 0.13898 0.0
H69 H 0.89849 0.73108 0.17368 0.0
H70 H 0.87647 0.78244 0.21889 0.0
H71 H 0.92562 0.75392 0.23056 0.0
H72 H 0.93318 0.77217 0.3122 0.0
H73 H 0.88492 0.71793 0.00748 0.0
H74 H 0.923 0.7124 0.13176 0.0
H75 H 0.88381 0.8004 0.30115 0.0
H76 H 0.89157 0.68712 0.96956 0.0
H77 H 0.93008 0.68191 0.09335 0.0
C78 C 0.69571 0.99802 0.0099 0.0
C79 C 0.68377 0.01236 0.01703 0.0
C80 C 0.71006 0.99689 0.04463 0.0
C81 C 0.71266 0.00999 0.0873 0.0
C82 C 0.70096 0.02455 0.0937 0.0
C83 C 0.68668 0.02571 0.059 0.0
C84 C 0.72703 0.00811 0.12639 0.0
C85 C 0.74474 0.00415 0.11023 0.0
C86 C 0.75832 0.00223 0.14744 0.0
C87 C 0.75393 0.00425 0.20161 0.0
C88 C 0.73625 0.00837 0.21815 0.0
C89 C 0.72294 0.0102 0.18034 0.0
C90 C 0.73091 0.01019 0.27459 0.0
C91 C 0.73264 0.99536 0.30857 0.0
C92 C 0.72128 0.02549 0.29232 0.0
C93 C 0.71203 0.02514 0.34097 0.0
C94 C 0.71222 0.00945 0.37311 0.0
C95 C 0.77716 0.99893 0.12875 0.0
C96 C 0.77979 0.98638 0.08564 0.0
C97 C 0.79251 0.00952 0.15048 0.0
C98 C 0.80997 0.0084 0.12753 0.0
C99 C 0.81241 0.99667 0.08242 0.0
C100 C 0.79718 0.98531 0.06265 0.0
C101 C 0.72335 0.99498 0.35751 0.0
H102 H 0.69391 0.98763 0.97763 0.0
H103 H 0.71881 0.98545 0.03891 0.0
H104 H 0.70276 0.03498 0.12589 0.0
H105 H 0.67762 0.03681 0.06592 0.0
H106 H 0.74809 0.00313 0.06844 0.0
H107 H 0.70912 0.01276 0.19315 0.0
H108 H 0.7642 0.0027 0.23074 0.0
H109 H 0.74001 0.9834 0.29573 0.0
H110 H 0.71988 0.03717 0.26691 0.0
H111 H 0.70354 0.03648 0.35119 0.0
H112 H 0.76826 0.97782 0.06852 0.0
H113 H 0.79092 0.01935 0.18362 0.0
H114 H 0.72404 0.98285 0.38173 0.0
H115 H 0.79847 0.97622 0.02776 0.0
H116 H 0.82147 0.01712 0.14426 0.0
C117 C 0.59173 0.72171 0.31615 0.0
C118 C 0.60539 0.70983 0.32747 0.0
C119 C 0.59389 0.73359 0.27323 0.0
C120 C 0.60969 0.73371 0.24082 0.0
C121 C 0.62395 0.72307 0.25451 0.0
C122 C 0.6219 0.71138 0.29768 0.0
C123 C 0.60958 0.74122 0.18738 0.0
C124 C 0.60844 0.76051 0.17883 0.0
C125 C 0.60738 0.76675 0.12708 0.0
C126 C 0.60683 0.75344 0.08449 0.0
C127 C 0.60707 0.73405 0.09288 0.0
C128 C 0.60891 0.72818 0.14442 0.0
C129 C 0.60308 0.71968 0.0495 0.0
C130 C 0.58932 0.72202 0.0133 0.0
C131 C 0.61136 0.70257 0.04768 0.0
C132 C 0.60504 0.68764 0.01341 0.0
C133 C 0.59042 0.68956 0.97975 0.0
C134 C 0.60524 0.78681 0.11642 0.0
C135 C 0.59123 0.7962 0.14176 0.0
C136 C 0.61557 0.79573 0.07553 0.0
C137 C 0.61116 0.81308 0.05779 0.0
C138 C 0.59623 0.82184 0.0803 0.0
C139 C 0.58673 0.81357 0.1238 0.0
C140 C 0.58314 0.70718 0.97865 0.0
H141 H 0.57878 0.72082 0.33789 0.0
H142 H 0.58261 0.74147 0.26283 0.0
H143 H 0.63623 0.72292 0.22981 0.0
H144 H 0.63289 0.70281 0.30601 0.0
H145 H 0.6084 0.77054 0.2121 0.0
H146 H 0.60858 0.71322 0.15189 0.0
H147 H 0.60541 0.75814 0.04479 0.0
H148 H 0.58252 0.73493 0.01367 0.0
H149 H 0.62223 0.70041 0.07435 0.0
H150 H 0.61097 0.67429 0.01548 0.0
H151 H 0.58297 0.78955 0.17312 0.0
H152 H 0.62659 0.78888 0.05574 0.0
H153 H 0.57215 0.70929 0.95237 0.0
H154 H 0.5751 0.81989 0.14186 0.0
H155 H 0.61902 0.81929 0.02503 0.0
C156 C 0.20808 0.57163 0.38592 0.0
C157 C 0.19647 0.55535 0.39739 0.0
C158 C 0.22205 0.57074 0.34754 0.0
C159 C 0.22425 0.55367 0.31937 0.0
C160 C 0.21275 0.53739 0.33108 0.0
C161 C 0.19908 0.53818 0.37016 0.0
C162 C 0.23819 0.55282 0.27673 0.0
C163 C 0.25685 0.55544 0.28806 0.0
C164 C 0.27023 0.55334 0.24803 0.0
C165 C 0.26465 0.54931 0.19573 0.0
C166 C 0.24589 0.54685 0.1842 0.0
C167 C 0.23278 0.5484 0.22496 0.0
C168 C 0.23949 0.54247 0.13008 0.0
C169 C 0.24197 0.55619 0.09158 0.0
C170 C 0.22841 0.52563 0.11929 0.0
C171 C 0.21916 0.52294 0.07182 0.0
C172 C 0.22059 0.53718 0.03456 0.0
C173 C 0.28973 0.55361 0.26272 0.0
C174 C 0.2972 0.56717 0.29989 0.0
C175 C 0.30017 0.53885 0.24528 0.0
C176 C 0.31717 0.53693 0.26744 0.0
C177 C 0.32402 0.54975 0.30739 0.0
C178 C 0.31416 0.56526 0.32198 0.0
C179 C 0.23248 0.55363 0.04424 0.0
H180 H 0.20624 0.58502 0.40641 0.0
H181 H 0.23083 0.58344 0.33886 0.0
H182 H 0.2143 0.5241 0.30974 0.0
H183 H 0.19014 0.5255 0.37796 0.0
H184 H 0.26088 0.55813 0.32868 0.0
H185 H 0.21828 0.54634 0.21628 0.0
H186 H 0.27479 0.54772 0.16442 0.0
H187 H 0.25033 0.56937 0.09947 0.0
H188 H 0.22623 0.51495 0.14874 0.0
H189 H 0.20995 0.51023 0.06585 0.0
H190 H 0.28957 0.57885 0.31346 0.0
H191 H 0.29469 0.52809 0.21704 0.0
H192 H 0.23387 0.56479 0.01611 0.0
H193 H 0.31928 0.57561 0.3518 0.0
H194 H 0.3244 0.52478 0.25552 0.0
C195 C 0.09979 0.2012 0.43848 0.0
C196 C 0.10954 0.18518 0.42969 0.0
C197 C 0.10275 0.21662 0.40591 0.0
C198 C 0.11551 0.21641 0.36365 0.0
C199 C 0.12618 0.20098 0.35703 0.0
C200 C 0.12324 0.18553 0.38978 0.0
C201 C 0.11575 0.23097 0.32307 0.0
C202 C 0.11361 0.24989 0.33771 0.0
C203 C 0.10985 0.26292 0.29997 0.0
C204 C 0.10919 0.25702 0.24641 0.0
C205 C 0.11183 0.2382 0.23089 0.0
C206 C 0.11522 0.22538 0.26952 0.0
C207 C 0.10858 0.23087 0.17598 0.0
C208 C 0.09278 0.23484 0.14974 0.0
C209 C 0.11977 0.2177 0.1526 0.0
C210 C 0.11454 0.2076 0.10626 0.0
C211 C 0.098 0.21048 0.08217 0.0
C212 C 0.10477 0.28199 0.31768 0.0
C213 C 0.09324 0.28386 0.36234 0.0
C214 C 0.11106 0.29831 0.29041 0.0
C215 C 0.10616 0.31614 0.30817 0.0
C216 C 0.09492 0.31794 0.35354 0.0
C217 C 0.08843 0.30157 0.38008 0.0
C218 C 0.08755 0.22474 0.1033 0.0
H219 H 0.08893 0.20136 0.46823 0.0
H220 H 0.09409 0.22812 0.4117 0.0
H221 H 0.1363 0.20053 0.32523 0.0
H222 H 0.1312 0.17354 0.38253 0.0
H223 H 0.11417 0.2543 0.37904 0.0
H224 H 0.11593 0.21057 0.25824 0.0
H225 H 0.10583 0.26679 0.21714 0.0
H226 H 0.08381 0.24483 0.16685 0.0
H227 H 0.13212 0.21448 0.17169 0.0
H228 H 0.1229 0.19668 0.09132 0.0
H229 H 0.08769 0.27154 0.3834 0.0
H230 H 0.11997 0.29733 0.25591 0.0
H231 H 0.07489 0.22753 0.08519 0.0
H232 H 0.07936 0.3024 0.41432 0.0
H233 H 0.11139 0.32853 0.28696 0.0
C234 C 0.30878 0.00704 0.36602 0.0
C235 C 0.32576 0.01799 0.3626 0.0
C236 C 0.29463 0.00997 0.3322 0.0
C237 C 0.29714 0.02397 0.29435 0.0
C238 C 0.3138 0.03553 0.29269 0.0
C239 C 0.32796 0.03254 0.3263 0.0
C240 C 0.28301 0.02556 0.25419 0.0
C241 C 0.26424 0.02347 0.26759 0.0
C242 C 0.25093 0.02375 0.22871 0.0
C243 C 0.25649 0.0261 0.17575 0.0
C244 C 0.27523 0.02821 0.16209 0.0
C245 C 0.28833 0.02805 0.20128 0.0
C246 C 0.28176 0.02905 0.10683 0.0
C247 C 0.2815 0.01231 0.07558 0.0
C248 C 0.29184 0.04549 0.0895 0.0
C249 C 0.3026 0.04489 0.04338 0.0
C250 C 0.30379 0.0277 0.01445 0.0
C251 C 0.23129 0.02125 0.24419 0.0
C252 C 0.22466 0.0059 0.27471 0.0
C253 C 0.21941 0.03481 0.23205 0.0
C254 C 0.2014 0.03349 0.25228 0.0
C255 C 0.19493 0.01839 0.28409 0.0
C256 C 0.20662 0.00441 0.29418 0.0
C257 C 0.29247 0.01162 0.02975 0.0
H258 H 0.30652 0.99592 0.39414 0.0
H259 H 0.28202 0.00074 0.33434 0.0
H260 H 0.31606 0.04663 0.26451 0.0
H261 H 0.34089 0.04117 0.3223 0.0
H262 H 0.25994 0.02176 0.30845 0.0
H263 H 0.30275 0.02901 0.18992 0.0
H264 H 0.24635 0.02593 0.14533 0.0
H265 H 0.27402 0.99941 0.08889 0.0
H266 H 0.29229 0.05849 0.11342 0.0
H267 H 0.3108 0.05764 0.03206 0.0
H268 H 0.23358 0.99524 0.2844 0.0
H269 H 0.22429 0.04681 0.20876 0.0
H270 H 0.29311 0.99812 0.00877 0.0
H271 H 0.20205 0.99273 0.31898 0.0
H272 H 0.19261 0.0444 0.24379 0.0
C273 C 0.38541 0.28766 0.04016 0.0
C274 C 0.40255 0.29073 0.01399 0.0
C275 C 0.38354 0.27698 0.08541 0.0
C276 C 0.39867 0.26891 0.10494 0.0
C277 C 0.41524 0.2702 0.0757 0.0
C278 C 0.41719 0.28107 0.03072 0.0
C279 C 0.39863 0.26351 0.16069 0.0
C280 C 0.40457 0.24624 0.17546 0.0
C281 C 0.40739 0.24304 0.22894 0.0
C282 C 0.40457 0.25744 0.26715 0.0
C283 C 0.39903 0.27489 0.25273 0.0
C284 C 0.39538 0.27743 0.19965 0.0
C285 C 0.39958 0.29125 0.29137 0.0
C286 C 0.39446 0.28888 0.34473 0.0
C287 C 0.40683 0.30926 0.27561 0.0
C288 C 0.40941 0.32433 0.31221 0.0
C289 C 0.40499 0.32181 0.36576 0.0
C290 C 0.41445 0.22527 0.2454 0.0
C291 C 0.40645 0.20745 0.22767 0.0
C292 C 0.42877 0.22611 0.28147 0.0
C293 C 0.43439 0.2096 0.30131 0.0
C294 C 0.42586 0.19178 0.28563 0.0
C295 C 0.4121 0.19084 0.24766 0.0
C296 C 0.39724 0.304 0.38164 0.0
H297 H 0.37372 0.29448 0.02759 0.0
H298 H 0.37062 0.27616 0.10734 0.0
H299 H 0.42718 0.26431 0.09034 0.0
H300 H 0.43062 0.28314 0.01187 0.0
H301 H 0.4076 0.23567 0.14536 0.0
H302 H 0.39117 0.29087 0.18792 0.0
H303 H 0.40749 0.25531 0.30802 0.0
H304 H 0.38865 0.27526 0.35815 0.0
H305 H 0.41144 0.3116 0.23532 0.0
H306 H 0.4158 0.33774 0.29885 0.0
H307 H 0.39538 0.2064 0.19991 0.0
H308 H 0.43552 0.23961 0.2949 0.0
H309 H 0.39364 0.30169 0.4227 0.0
H310 H 0.40525 0.17732 0.23485 0.0
H311 H 0.44537 0.21081 0.32941 0.0
Tb312 Tb 0.992 0.99009 0.63441 0.0
C313 C 0.03343 0.00473 0.61732 0.0
Tb314 Tb 0.01005 0.02112 0.71305 0.0
O315 O 0.99537 0.00911 0.56845 0.0
O316 O 0.99347 0.01979 0.64555 0.0
O317 O 0.02069 0.99036 0.60942 0.0
C318 C 0.02633 0.05242 0.7595 0.0
O319 O 0.03133 0.01891 0.65199 0.0
C320 C 0.00506 0.98675 0.74864 0.0
C321 C 0.96825 0.00826 0.72772 0.0
O322 O 0.03284 0.03599 0.75681 0.0
O323 O 0.01064 0.05115 0.73641 0.0
O324 O 0.00708 0.00186 0.77917 0.0
O325 O 0.00837 0.99142 0.70174 0.0
O326 O 0.98146 0.02207 0.73673 0.0
O327 O 0.96998 0.994 0.69287 0.0
C328 C 0.97773 0.95751 0.59031 0.0
O329 O 0.971 0.97373 0.58702 0.0
O330 O 0.99254 0.95969 0.61771 0.0
C331 C 0.99695 0.02439 0.59858 0.0
Tb332 Tb 0.49984 0.01804 0.64363 0.0
C333 C 0.53734 0.00064 0.6305 0.0
Tb334 Tb 0.50685 0.98451 0.71364 0.0
O335 O 0.52166 0.03638 0.68148 0.0
O336 O 0.50771 0.01433 0.72195 0.0
O337 O 0.52521 0.01002 0.60659 0.0
C338 C 0.52002 0.96089 0.77947 0.0
O339 O 0.53347 0.99151 0.67476 0.0
C340 C 0.48569 0.97589 0.63253 0.0
C341 C 0.46941 0.00204 0.72677 0.0
O342 O 0.51839 0.95797 0.72895 0.0
O343 O 0.51406 0.97707 0.79312 0.0
O344 O 0.48499 0.96627 0.67518 0.0
O345 O 0.49917 0.98825 0.63537 0.0
O346 O 0.48156 0.99279 0.75098 0.0
O347 O 0.47322 0.0109 0.68209 0.0
C348 C 0.48676 0.04205 0.57882 0.0
O349 O 0.48837 0.04469 0.62942 0.0
O350 O 0.49266 0.02591 0.56447 0.0
C351 C 0.52118 0.02675 0.72405 0.0
Tb352 Tb 0.51864 0.51357 0.63649 0.0
C353 C 0.47637 0.50694 0.61439 0.0
Tb354 Tb 0.49382 0.48471 0.70454 0.0
O355 O 0.51397 0.49521 0.56559 0.0
O356 O 0.51272 0.48407 0.64036 0.0
O357 O 0.49158 0.51858 0.61064 0.0
C358 C 0.47361 0.45402 0.73798 0.0
O359 O 0.47477 0.49199 0.64485 0.0
C360 C 0.50255 0.51797 0.74991 0.0
C361 C 0.53607 0.49107 0.72688 0.0
O362 O 0.46992 0.4714 0.7477 0.0
O363 O 0.48859 0.45403 0.70966 0.0
O364 O 0.49725 0.50301 0.77625 0.0
O365 O 0.50026 0.51416 0.70155 0.0
O366 O 0.52073 0.4796 0.73164 0.0
O367 O 0.5378 0.50576 0.69537 0.0
C368 C 0.53741 0.54484 0.60138 0.0
O369 O 0.54257 0.52782 0.5953 0.0
O370 O 0.52182 0.54414 0.62687 0.0
C371 C 0.50996 0.48007 0.59241 0.0
Tb372 Tb 0.98781 0.50282 0.63674 0.0
C373 C 0.01992 0.47727 0.60821 0.0
Tb374 Tb 0.02166 0.50532 0.71009 0.0
O375 O 0.00467 0.51673 0.57424 0.0
O376 O 0.01101 0.52197 0.6532 0.0
O377 O 0.00256 0.48029 0.60036 0.0
C378 C 0.05541 0.51227 0.74815 0.0
O379 O 0.02994 0.48607 0.64638 0.0
C380 C 0.99371 0.48234 0.74131 0.0
C381 C 0.98973 0.53052 0.73753 0.0
O382 O 0.05159 0.50841 0.6991 0.0
O383 O 0.04024 0.51211 0.77577 0.0
O384 O 0.00701 0.48861 0.772 0.0
O385 O 0.99826 0.48659 0.69489 0.0
O386 O 0.00782 0.52985 0.73772 0.0
O387 O 0.97897 0.51925 0.70595 0.0
C388 C 0.95471 0.49627 0.59438 0.0
O389 O 0.96378 0.51282 0.6004 0.0
O390 O 0.96436 0.48347 0.6116 0.0
C391 C 0.01662 0.52492 0.60681 0.0
H392 H 0.1797 0.04703 0.3388 0.0
H393 H 0.15125 0.04484 0.39195 0.0
H394 H 0.14023 0.9863 0.34093 0.0
H395 H 0.1689 0.9883 0.28876 0.0
H396 H 0.11512 0.03594 0.37149 0.0
H397 H 0.14 0.98247 0.49919 0.0
H398 H 0.15479 0.99529 0.4523 0.0
H399 H 0.13966 0.97518 0.43074 0.0
C400 C 0.17106 0.03378 0.33834 0.0
C401 C 0.17656 0.01777 0.31012 0.0
C402 C 0.15485 0.03253 0.36884 0.0
C403 C 0.14387 0.01528 0.37143 0.0
C404 C 0.14879 0.99959 0.34074 0.0
H405 H 0.04494 0.97772 0.54729 0.0
H406 H 0.07147 0.98076 0.48661 0.0
C407 C 0.16509 0.00077 0.31075 0.0
C408 C 0.12765 0.01354 0.40768 0.0
H409 H 0.10897 0.98889 0.51196 0.0
C410 C 0.11378 0.02569 0.40229 0.0
C411 C 0.12602 1.00027 0.4482 0.0
C412 C 0.14099 0.9877 0.45841 0.0
C413 C 0.09816 0.02465 0.43566 0.0
C414 C 0.09645 0.01118 0.47553 0.0
C415 C 0.1103 0.99908 0.48102 0.0
C416 C 0.08046 0.00946 0.51238 0.0
C417 C 0.08349 0.03779 0.42756 0.0
C418 C 0.07698 0.02447 0.54757 0.0
C419 C 0.06193 0.02276 0.58248 0.0
C420 C 0.05008 0.00595 0.58289 0.0
C421 C 0.05378 0.99083 0.54805 0.0
C422 C 0.0689 0.99255 0.51329 0.0
H423 H 0.08468 0.04394 0.38789 0.0
H424 H 0.06958 0.03029 0.43246 0.0
H425 H 0.08489 0.04964 0.45746 0.0
H426 H 0.08593 0.03752 0.5481 0.0
H427 H 0.05944 0.03475 0.60848 0.0
H428 H 0.43176 0.1872 0.3897 0.0
H429 H 0.44188 0.15962 0.43098 0.0
H430 H 0.44136 0.12935 0.28041 0.0
H431 H 0.43129 0.15713 0.23837 0.0
H432 H 0.4255 0.10783 0.36772 0.0
H433 H 0.49437 0.14326 0.4121 0.0
H434 H 0.47593 0.15671 0.43468 0.0
H435 H 0.47948 0.15216 0.36515 0.0
C436 C 0.43393 0.17475 0.36517 0.0
C437 C 0.43102 0.17447 0.31057 0.0
C438 C 0.43967 0.15898 0.38888 0.0
C439 C 0.44271 0.1426 0.35857 0.0
C440 C 0.4392 0.14194 0.30438 0.0
H441 H 0.48119 0.03764 0.47274 0.0
H442 H 0.47014 0.0608 0.41439 0.0
C443 C 0.43341 0.15777 0.2805 0.0
C444 C 0.44981 0.12639 0.38403 0.0
H445 H 0.48529 0.11495 0.45751 0.0
C446 C 0.43868 0.10923 0.38673 0.0
C447 C 0.46705 0.12828 0.40853 0.0
C448 C 0.47999 0.14603 0.40462 0.0
C449 C 0.44398 0.09421 0.4157 0.0
C450 C 0.46089 0.09644 0.44197 0.0
C451 C 0.47227 0.11335 0.43759 0.0
C452 C 0.46668 0.08191 0.47676 0.0
C453 C 0.43116 0.07639 0.41995 0.0
C454 C 0.46849 0.08619 0.5309 0.0
C455 C 0.47481 0.07308 0.56405 0.0
C456 C 0.47957 0.05551 0.54357 0.0
C457 C 0.47762 0.05112 0.48943 0.0
C458 C 0.47122 0.06426 0.45619 0.0
H459 H 0.41737 0.0781 0.40456 0.0
H460 H 0.43701 0.0647 0.3969 0.0
H461 H 0.42962 0.07218 0.46163 0.0
H462 H 0.4651 0.09975 0.54747 0.0
H463 H 0.47616 0.07681 0.60565 0.0
H464 H 0.32839 0.55262 0.41372 0.0
H465 H 0.35471 0.5453 0.46359 0.0
H466 H 0.383 0.53067 0.3188 0.0
H467 H 0.35655 0.53793 0.26833 0.0
H468 H 0.38479 0.50426 0.3955 0.0
H469 H 0.40374 0.57671 0.47777 0.0
H470 H 0.38021 0.56846 0.49085 0.0
H471 H 0.38813 0.57201 0.42396 0.0
C472 C 0.34033 0.54817 0.39233 0.0
C473 C 0.34048 0.54608 0.33699 0.0
C474 C 0.35535 0.54396 0.42095 0.0
C475 C 0.37092 0.53775 0.39487 0.0
C476 C 0.37113 0.53553 0.33965 0.0
H477 H 0.47586 0.5335 0.53969 0.0
H478 H 0.45039 0.53987 0.48542 0.0
C479 C 0.35603 0.53967 0.31091 0.0
C480 C 0.38676 0.53315 0.42556 0.0
H481 H 0.41777 0.55172 0.51602 0.0
C482 C 0.3921 0.51465 0.42163 0.0
C483 C 0.39637 0.54678 0.45921 0.0
C484 C 0.39196 0.56715 0.4629 0.0
C485 C 0.40662 0.50932 0.45118 0.0
C486 C 0.41577 0.52279 0.48628 0.0
C487 C 0.4106 0.54136 0.48955 0.0
C488 C 0.43123 0.51822 0.51867 0.0
C489 C 0.41223 0.48945 0.4438 0.0
C490 C 0.42892 0.50395 0.55573 0.0
C491 C 0.44356 0.50015 0.58687 0.0
C492 C 0.46069 0.51076 0.58191 0.0
C493 C 0.46287 0.52509 0.54488 0.0
C494 C 0.4483 0.52877 0.51367 0.0
H495 H 0.40726 0.48263 0.40604 0.0
H496 H 0.42738 0.48937 0.44451 0.0
H497 H 0.40619 0.48076 0.47641 0.0
H498 H 0.41574 0.4959 0.56105 0.0
H499 H 0.4414 0.48904 0.61506 0.0
H500 H 0.09426 0.33146 0.4555 0.0
H501 H 0.08225 0.36056 0.48988 0.0
H502 H 0.07175 0.37604 0.33164 0.0
H503 H 0.08363 0.34672 0.29671 0.0
H504 H 0.08785 0.40678 0.40311 0.0
H505 H 0.02592 0.36624 0.48614 0.0
H506 H 0.04729 0.35803 0.5043 0.0
H507 H 0.04067 0.35627 0.43648 0.0
C508 C 0.08943 0.34106 0.42794 0.0
C509 C 0.08963 0.33666 0.37344 0.0
C510 C 0.08262 0.35769 0.44765 0.0
C511 C 0.07585 0.37024 0.41332 0.0
C512 C 0.07685 0.36644 0.35871 0.0
H513 H 0.00389 0.45452 0.5293 0.0
H514 H 0.01763 0.42999 0.47571 0.0
C515 C 0.0837 0.34974 0.33886 0.0
C516 C 0.06694 0.38681 0.43508 0.0
H517 H 0.03093 0.39865 0.51342 0.0
C518 C 0.07533 0.40508 0.42686 0.0
C519 C 0.05046 0.38449 0.46533 0.0
C520 C 0.04043 0.36522 0.47331 0.0
C521 C 0.06797 0.42112 0.4499 0.0
C522 C 0.05197 0.41871 0.48232 0.0
C523 C 0.04326 0.40047 0.48885 0.0
C524 C 0.04426 0.43476 0.51142 0.0
C525 C 0.07737 0.44047 0.43929 0.0
C526 C 0.05468 0.4456 0.54927 0.0
C527 C 0.04688 0.45964 0.58003 0.0
C528 C 0.02843 0.463 0.57386 0.0
C529 C 0.01811 0.45231 0.53526 0.0
C530 C 0.02595 0.43828 0.5045 0.0
H531 H 0.08583 0.44032 0.40235 0.0
H532 H 0.06723 0.45106 0.4363 0.0
H533 H 0.0866 0.44507 0.47227 0.0
H534 H 0.06871 0.44286 0.5561 0.0
H535 H 0.05526 0.46761 0.60925 0.0
H536 H 0.82888 0.96727 0.03358 0.0
H537 H 0.8561 0.96939 0.97535 0.0
H538 H 0.86369 0.02968 0.00669 0.0
H539 H 0.83625 0.02786 0.06369 0.0
H540 H 0.8591 0.99414 0.88332 0.0
H541 H 0.91547 0.00975 0.0259 0.0
H542 H 0.89327 0.99838 0.0447 0.0
H543 H 0.89602 0.02337 0.03457 0.0
C544 C 0.83638 0.98098 0.02834 0.0
C545 C 0.83031 0.99741 0.0532 0.0
C546 C 0.85196 0.98213 0.99528 0.0
C547 C 0.86189 0.99967 0.98706 0.0
C548 C 0.85632 0.01598 0.01321 0.0
H549 H 0.95663 0.03669 0.79258 0.0
H550 H 0.93008 0.03494 0.85322 0.0
C551 C 0.84067 0.01488 0.04599 0.0
C552 C 0.87722 0.00114 0.94804 0.0
H553 H 0.9235 0.01155 0.93531 0.0
C554 C 0.87321 0.99786 0.89455 0.0
C555 C 0.89551 0.00619 0.96304 0.0
C556 C 0.90046 0.00952 0.02018 0.0
C557 C 0.88705 0.99974 0.85535 0.0
C558 C 0.90542 0.00457 0.87032 0.0
C559 C 0.9094 0.00788 0.92393 0.0
C560 C 0.9208 0.00594 0.83115 0.0
C561 C 0.88176 0.997 0.79829 0.0
C562 C 0.92434 0.99024 0.79847 0.0
C563 C 0.93937 0.99125 0.76341 0.0
C564 C 0.95133 0.00791 0.76091 0.0
C565 C 0.94767 0.02367 0.79341 0.0
C566 C 0.93254 0.02268 0.82819 0.0
H567 H 0.86708 0.99908 0.79296 0.0
H568 H 0.89029 0.00693 0.77295 0.0
H569 H 0.88389 0.98232 0.78455 0.0
H570 H 0.91574 0.97703 0.80102 0.0
H571 H 0.94193 0.97874 0.73958 0.0
H572 H 0.59307 0.82692 0.9752 0.0
H573 H 0.58023 0.85276 0.93268 0.0
H574 H 0.57024 0.87957 0.08462 0.0
H575 H 0.58351 0.85379 0.12786 0.0
H576 H 0.54306 0.86296 0.95423 0.0
H577 H 0.59679 0.92249 0.99235 0.0
H578 H 0.60149 0.898 0.99473 0.0
H579 H 0.58857 0.90847 0.04722 0.0
C580 C 0.58855 0.83849 -0.0003 0.0
C581 C 0.58948 0.83835 0.05499 0.0
C582 C 0.58107 0.85318 0.97528 0.0
C583 C 0.57443 0.86811 0.00547 0.0
C584 C 0.57551 0.86825 0.06062 0.0
H585 H 0.52453 0.96556 0.88587 0.0
H586 H 0.53689 0.94347 0.94495 0.0
C587 C 0.58296 0.85347 0.08524 0.0
C588 C 0.56549 0.88287 0.97871 0.0
H589 H 0.57133 0.92904 0.94355 0.0
C590 C 0.54916 0.87744 0.95216 0.0
C591 C 0.57342 0.90176 0.97653 0.0
C592 C 0.59109 0.90814 0.00391 0.0
C593 C 0.5407 0.89033 0.92259 0.0
C594 C 0.54903 0.90903 0.91849 0.0
C595 C 0.56503 0.91466 0.94655 0.0
C596 C 0.5418 0.92259 0.88309 0.0
C597 C 0.52291 0.88376 0.89595 0.0
C598 C 0.54078 0.91831 0.82873 0.0
C599 C 0.5337 0.93081 0.79515 0.0
C600 C 0.52763 0.94789 0.81526 0.0
C601 C 0.52899 0.95239 0.8695 0.0
C602 C 0.53608 0.93984 0.90318 0.0
H603 H 0.51565 0.87139 0.91553 0.0
H604 H 0.51363 0.89527 0.89596 0.0
H605 H 0.52588 0.87938 0.85441 0.0
H606 H 0.54552 0.90529 0.81221 0.0
H607 H 0.53297 0.92708 0.75342 0.0
H608 H 0.67628 0.49524 0.02276 0.0
H609 H 0.64914 0.50007 0.97214 0.0
H610 H 0.63489 0.43974 0.96192 0.0
H611 H 0.66205 0.43479 0.01229 0.0
H612 H 0.63772 0.46025 0.86174 0.0
H613 H 0.59293 0.4915 0.01563 0.0
H614 H 0.61655 0.50112 0.01289 0.0
H615 H 0.61099 0.4771 0.03144 0.0
C616 C 0.66723 0.48303 0.01021 0.0
C617 C 0.67126 0.46464 0.02144 0.0
C618 C 0.65172 0.48582 0.98159 0.0
C619 C 0.64003 0.47026 0.96361 0.0
C620 C 0.64374 0.45191 0.97577 0.0
H621 H 0.53655 0.46577 0.80526 0.0
H622 H 0.56204 0.46078 0.86171 0.0
C623 C 0.65917 0.44912 0.00479 0.0
C624 C 0.62462 0.47307 0.92915 0.0
H625 H 0.58313 0.49127 0.92736 0.0
C626 C 0.62575 0.46699 0.87601 0.0
C627 C 0.60908 0.48182 0.94814 0.0
C628 C 0.60713 0.48818 0.00522 0.0
C629 C 0.61176 0.46965 0.84105 0.0
C630 C 0.59633 0.47863 0.85986 0.0
C631 C 0.59509 0.4845 0.91315 0.0
C632 C 0.58112 0.48165 0.82495 0.0
C633 C 0.61341 0.46269 0.78438 0.0
C634 C 0.58348 0.49509 0.78568 0.0
C635 C 0.56891 0.49807 0.75334 0.0
C636 C 0.55177 0.48757 0.75965 0.0
C637 C 0.54957 0.47404 0.79899 0.0
C638 C 0.56408 0.47119 0.83148 0.0
H639 H 0.62477 0.45345 0.77808 0.0
H640 H 0.6004 0.4547 0.77177 0.0
H641 H 0.61608 0.47501 0.75877 0.0
H642 H 0.59654 0.50339 0.78043 0.0
H643 H 0.57108 0.50864 0.72361 0.0
H644 H 0.92049 0.64948 0.07218 0.0
H645 H 0.93372 0.6226 0.02739 0.0
H646 H 0.92905 0.6482 0.87759 0.0
H647 H 0.91673 0.67547 0.92195 0.0
H648 H 0.92103 0.59677 0.95008 0.0
H649 H 0.98311 0.63991 0.87917 0.0
H650 H 0.96743 0.64879 0.928 0.0
H651 H 0.96225 0.64862 0.85903 0.0
C652 C 0.92237 0.64945 0.02973 0.0
C653 C 0.91768 0.66476 0.0008 0.0
C654 C 0.92981 0.63401 0.00418 0.0
C655 C 0.93272 0.63361 0.94931 0.0
C656 C 0.9273 0.64843 0.92011 0.0
H657 H 0.9543 0.53976 0.73785 0.0
H658 H 0.94065 0.56393 0.79275 0.0
C659 C 0.91998 0.6639 0.94556 0.0
C660 C 0.94171 0.6179 0.92251 0.0
H661 H 0.97797 0.60864 0.84159 0.0
C662 C 0.93355 0.59932 0.92662 0.0
C663 C 0.95825 0.62123 0.89284 0.0
C664 C 0.96839 0.64069 0.88988 0.0
C665 C 0.94117 0.58401 0.90043 0.0
C666 C 0.95716 0.58749 0.86842 0.0
C667 C 0.9656 0.60601 0.86566 0.0
C668 C 0.96524 0.57224 0.83666 0.0
C669 C 0.93213 0.56427 0.90779 0.0
C670 C 0.98376 0.56918 0.84209 0.0
C671 C 0.99171 0.55556 0.81012 0.0
C672 C 0.98128 0.54473 0.77207 0.0
C673 C 0.96271 0.54776 0.76696 0.0
C674 C 0.95482 0.56148 0.79866 0.0
H675 H 0.92394 0.56339 0.94522 0.0
H676 H 0.92265 0.56038 0.87489 0.0
H677 H 0.94243 0.55375 0.9079 0.0
H678 H 0.99209 0.57741 0.87097 0.0
H679 H 0.00603 0.55356 0.81521 0.0
H680 H 0.09879 0.18134 0.53354 0.0
H681 H 0.08264 0.1533 0.57254 0.0
H682 H 0.09046 0.12108 0.4276 0.0
H683 H 0.10616 0.14901 0.3879 0.0
H684 H 0.04999 0.13674 0.52344 0.0
H685 H 0.10053 0.08399 0.54344 0.0
H686 H 0.10722 0.10907 0.53907 0.0
H687 H 0.10122 0.09495 0.4807 0.0
C688 C 0.09737 0.16819 0.51027 0.0
C689 C 0.10362 0.16749 0.4574 0.0
C690 C 0.08824 0.15218 0.53273 0.0
C691 C 0.08546 0.13513 0.50301 0.0
C692 C 0.09277 0.13402 0.45152 0.0
H693 H 0.01969 0.02889 0.51291 0.0
H694 H 0.04088 0.05643 0.49281 0.0
C695 C 0.10179 0.15004 0.42891 0.0
C696 C 0.07264 0.11947 0.52249 0.0
H697 H 0.06893 0.07246 0.54832 0.0
C698 C 0.05413 0.12273 0.52968 0.0
C699 C 0.07811 0.10121 0.52974 0.0
C700 C 0.09788 0.09706 0.52329 0.0
C701 C 0.04075 0.10804 0.54202 0.0
C702 C 0.04617 0.08969 0.54901 0.0
C703 C 0.06479 0.08653 0.54299 0.0
C704 C 0.03268 0.0734 0.56055 0.0
C705 C 0.02089 0.11217 0.5449 0.0
C706 C 0.02083 0.07386 0.60489 0.0
C707 C 0.00837 0.05827 0.61564 0.0
C708 C 0.00802 0.0418 0.58331 0.0
C709 C 0.01962 0.04147 0.53843 0.0
C710 C 0.03188 0.05712 0.52723 0.0
H711 H 0.01867 0.12516 0.52375 0.0
H712 H 0.01183 0.10019 0.52781 0.0
H713 H 0.0167 0.1145 0.58678 0.0
H714 H 0.02136 0.08615 0.63162 0.0
H715 H 0.99914 0.059 0.64941 0.0
H716 H 0.33561 0.983 0.38467 0.0
H717 H 0.36242 0.97543 0.43195 0.0
H718 H 0.37912 0.03496 0.45596 0.0
H719 H 0.35184 0.04272 0.41072 0.0
H720 H 0.39836 0.98457 0.4039 0.0
H721 H 0.38309 0.01507 0.60308 0.0
H722 H 0.366 0.01121 0.55282 0.0
H723 H 0.38265 0.03149 0.55115 0.0
C724 C 0.34472 0.99452 0.4011 0.0
C725 C 0.3415 0.01349 0.39417 0.0
C726 C 0.36014 0.99015 0.42767 0.0
C727 C 0.37265 0.00462 0.44788 0.0
C728 C 0.36946 0.02357 0.44146 0.0
H729 H 0.48491 0.9913 0.5361 0.0
H730 H 0.45755 0.99834 0.48931 0.0
C731 C 0.35397 0.02797 0.41507 0.0
C732 C 0.38944 0.99978 0.47351 0.0
H733 H 0.41279 0.00482 0.58856 0.0
C734 C 0.40151 0.98894 0.44433 0.0
C735 C 0.39341 0.00539 0.52636 0.0
C736 C 0.38054 0.01628 0.56042 0.0
C737 C 0.41751 0.98359 0.46653 0.0
C738 C 0.42168 0.98957 0.51897 0.0
C739 C 0.40959 1.00036 0.54822 0.0
C740 C 0.4383 0.98447 0.54491 0.0
C741 C 0.42956 0.97126 0.43405 0.0
C742 C 0.43654 0.97442 0.59156 0.0
C743 C 0.45208 0.97076 0.61862 0.0
C744 C 0.46964 0.97725 0.59969 0.0
C745 C 0.47146 0.98659 0.55191 0.0
C746 C 0.45588 0.99037 0.52492 0.0
H747 H 0.42205 0.96386 0.40059 0.0
H748 H 0.44138 0.98023 0.41749 0.0
H749 H 0.43497 0.9605 0.45858 0.0
H750 H 0.42309 0.96975 0.60762 0.0
H751 H 0.4503 0.96356 0.65552 0.0
H752 H 0.4224 0.3193 0.45874 0.0
H753 H 0.4371 0.34552 0.5125 0.0
H754 H 0.41547 0.38547 0.4124 0.0
H755 H 0.40033 0.35939 0.35957 0.0
H756 H 0.46368 0.36969 0.46822 0.0
H757 H 0.40933 0.41074 0.55686 0.0
H758 H 0.40473 0.38669 0.53137 0.0
H759 H 0.40648 0.40612 0.48743 0.0
C760 C 0.42019 0.33367 0.44946 0.0
C761 C 0.41033 0.33731 0.40473 0.0
C762 C 0.42868 0.34863 0.48001 0.0
C763 C 0.42732 0.36744 0.4666 0.0
C764 C 0.41646 0.3711 0.42409 0.0
H765 H 0.48599 0.47694 0.51177 0.0
H766 H 0.46595 0.44879 0.48445 0.0
C767 C 0.40796 0.35617 0.39358 0.0
C768 C 0.43935 0.38304 0.49148 0.0
H769 H 0.4395 0.42728 0.5492 0.0
C770 C 0.4584 0.38214 0.4868 0.0
C771 C 0.43241 0.39932 0.51526 0.0
C772 C 0.41211 0.40072 0.52352 0.0
C773 C 0.47072 0.39741 0.50324 0.0
C774 C 0.46378 0.4139 0.52562 0.0
C775 C 0.44474 0.41464 0.53166 0.0
C776 C 0.47608 0.43072 0.54174 0.0
C777 C 0.49103 0.39608 0.49454 0.0
C778 C 0.48846 0.42977 0.58264 0.0
C779 C 0.49999 0.44573 0.59779 0.0
C780 C 0.49913 0.46289 0.57279 0.0
C781 C 0.48697 0.46378 0.53133 0.0
C782 C 0.47542 0.44781 0.51612 0.0
H783 H 0.49388 0.38424 0.46654 0.0
H784 H 0.49781 0.40947 0.47915 0.0
H785 H 0.49731 0.3936 0.5327 0.0
H786 H 0.48905 0.41675 0.60319 0.0
H787 H 0.50949 0.44472 0.62937 0.0
H788 H 0.16923 0.57869 0.39502 0.0
H789 H 0.1406 0.57653 0.44686 0.0
H790 H 0.15988 0.53207 0.53622 0.0
H791 H 0.18821 0.53364 0.48242 0.0
H792 H 0.12821 0.52104 0.50136 0.0
H793 H 0.12326 0.59262 0.58913 0.0
H794 H 0.12706 0.59401 0.51936 0.0
H795 H 0.14432 0.5855 0.55949 0.0
C796 C 0.16751 0.56882 0.42668 0.0
C797 C 0.18082 0.55631 0.43487 0.0
C798 C 0.1512 0.56768 0.4566 0.0
C799 C 0.14813 0.55433 0.4961 0.0
C800 C 0.16193 0.54252 0.5061 0.0
H801 H 0.04242 0.54352 0.67007 0.0
H802 H 0.07511 0.5509 0.64857 0.0
C803 C 0.17808 0.54341 0.47547 0.0
C804 C 0.12971 0.55095 0.52158 0.0
H805 H 0.09423 0.57338 0.57681 0.0
C806 C 0.12095 0.53248 0.51873 0.0
C807 C 0.12024 0.56572 0.54517 0.0
C808 C 0.12933 0.58551 0.554 0.0
C809 C 0.10275 0.52857 0.53615 0.0
C810 C 0.09278 0.54365 0.55508 0.0
C811 C 0.10178 0.56193 0.56092 0.0
C812 C 0.07289 0.54068 0.56732 0.0
C813 C 0.09435 0.5083 0.53383 0.0
C814 C 0.06076 0.53317 0.52826 0.0
C815 C 0.04223 0.52871 0.54064 0.0
C816 C 0.03552 0.53191 0.59212 0.0
C817 C 0.04739 0.54063 0.63028 0.0
C818 C 0.066 0.5449 0.61804 0.0
H819 H 0.10503 0.49819 0.5349 0.0
H820 H 0.08445 0.50546 0.56709 0.0
H821 H 0.08695 0.5055 0.49631 0.0
H822 H 0.06572 0.53032 0.48845 0.0
H823 H 0.0333 0.5222 0.51035 0.0
H824 H 0.96176 0.82441 0.94336 0.0
H825 H 0.97483 0.85267 0.89861 0.0
H826 H 0.9204 0.8687 0.87413 0.0
H827 H 0.9072 0.84041 0.9193 0.0
H828 H 0.96768 0.86714 0.79341 0.0
H829 H 0.94848 0.91308 0.96494 0.0
H830 H 0.94929 0.88785 0.9695 0.0
H831 H 0.93054 0.89687 0.93743 0.0
C832 C 0.95259 0.83386 0.9279 0.0
C833 C 0.93349 0.83037 0.93517 0.0
C834 C 0.96005 0.84991 0.90223 0.0
C835 C 0.94856 0.86281 0.88379 0.0
C836 C 0.92946 0.85893 0.88861 0.0
H837 H 0.97873 0.96203 0.7031 0.0
H838 H 0.96616 0.93142 0.73353 0.0
C839 C 0.92195 0.84275 0.91401 0.0
C840 C 0.95673 0.88087 0.86271 0.0
H841 H 0.9634 0.92825 0.89265 0.0
C842 C 0.96672 0.88053 0.81487 0.0
C843 C 0.95563 0.8982 0.89141 0.0
C844 C 0.94553 0.89916 0.94389 0.0
C845 C 0.97556 0.89721 0.79463 0.0
C846 C 0.97427 0.91459 0.82306 0.0
C847 C 0.96437 0.91487 0.87108 0.0
C848 C 0.98274 0.93275 0.80313 0.0
C849 C 0.98639 0.89603 0.74342 0.0
C850 C 0.99596 0.94392 0.83262 0.0
C851 C 0.00339 0.96143 0.81445 0.0
C852 C 0.99778 0.96794 0.76646 0.0
C853 C 0.98428 0.9569 0.7379 0.0
C854 C 0.97686 0.93946 0.75587 0.0
H855 H 0.99013 0.88144 0.73421 0.0
H856 H 0.97794 0.90015 0.71083 0.0
H857 H 0.99914 0.90582 0.74463 0.0
H858 H 0.00047 0.9391 0.8697 0.0
H859 H 0.01352 0.96988 0.83782 0.0
H860 H 0.66017 0.9828 0.98081 0.0
H861 H 0.63261 0.98437 0.92918 0.0
H862 H 0.64364 0.04503 0.92423 0.0
H863 H 0.6713 0.04358 0.97536 0.0
H864 H 0.60773 0.03255 0.95847 0.0
H865 H 0.62765 0.99556 0.77172 0.0
H866 H 0.6305 0.98301 0.83072 0.0
H867 H 0.64421 0.0049 0.81981 0.0
C868 C 0.65693 0.99643 0.96781 0.0
C869 C 0.6679 0.01308 0.98222 0.0
C870 C 0.64118 0.9973 0.9384 0.0
C871 C 0.63619 0.0148 0.92268 0.0
C872 C 0.64727 0.03139 0.9361 0.0
H873 H 0.55622 0.03987 0.7004 0.0
H874 H 0.5836 0.03652 0.75087 0.0
C875 C 0.66301 0.03054 0.96545 0.0
C876 C 0.61891 0.01602 0.89469 0.0
H877 H 0.59691 0.00321 0.78011 0.0
C878 C 0.60532 0.02614 0.91949 0.0
C879 C 0.61593 0.00771 0.84377 0.0
C880 C 0.63037 0.9973 0.81459 0.0
C881 C 0.58879 0.02824 0.89462 0.0
C882 C 0.5857 0.01972 0.84399 0.0
C883 C 0.59929 0.00957 0.81919 0.0
C884 C 0.56889 0.02202 0.81477 0.0
C885 C 0.57501 0.03999 0.9221 0.0
C886 C 0.55153 0.01506 0.83421 0.0
C887 C 0.53581 0.01714 0.80559 0.0
C888 C 0.53731 0.02595 0.75697 0.0
C889 C 0.55467 0.03311 0.73801 0.0
C890 C 0.57032 0.03108 0.76654 0.0
H891 H 0.58122 0.04905 0.95484 0.0
H892 H 0.56905 0.04919 0.89391 0.0
H893 H 0.56366 0.03044 0.93895 0.0
H894 H 0.55016 0.00784 0.87112 0.0
H895 H 0.52252 0.01185 0.82132 0.0
H896 H 0.55382 0.68037 0.96414 0.0
H897 H 0.5391 0.65164 0.92199 0.0
H898 H 0.59201 0.63148 0.88816 0.0
H899 H 0.60705 0.66055 0.92884 0.0
H900 H 0.5463 0.63487 0.81272 0.0
H901 H 0.56037 0.59037 0.98047 0.0
H902 H 0.56057 0.61582 0.98731 0.0
H903 H 0.5793 0.60544 0.95412 0.0
C904 C 0.56242 0.67009 0.94666 0.0
C905 C 0.58167 0.67282 0.94989 0.0
C906 C 0.55394 0.65361 0.92298 0.0
C907 C 0.56449 0.63945 0.9026 0.0
C908 C 0.58367 0.64223 0.90432 0.0
H909 H 0.53264 0.53931 0.71307 0.0
H910 H 0.54662 0.56925 0.74933 0.0
C911 C 0.59221 0.65881 0.92769 0.0
C912 C 0.55528 0.62155 0.88098 0.0
H913 H 0.54551 0.57486 0.90726 0.0
C914 C 0.54612 0.62172 0.83322 0.0
C915 C 0.55493 0.60457 0.90842 0.0
C916 C 0.5642 0.6039 0.96063 0.0
C917 C 0.53677 0.60518 0.81163 0.0
C918 C 0.53668 0.5881 0.83863 0.0
C919 C 0.54562 0.58801 0.8868 0.0
C920 C 0.52789 0.57005 0.81647 0.0
C921 C 0.52696 0.60612 0.76034 0.0
C922 C 0.51303 0.56028 0.84289 0.0
C923 C 0.50479 0.54321 0.82132 0.0
C924 C 0.51128 0.53581 0.77306 0.0
C925 C 0.52656 0.54529 0.74805 0.0
C926 C 0.53475 0.56228 0.76933 0.0
H927 H 0.52447 0.62087 0.75164 0.0
H928 H 0.53552 0.60058 0.72762 0.0
H929 H 0.51361 0.5973 0.76113 0.0
H930 H 0.50772 0.56595 0.87983 0.0
H931 H 0.49321 0.53594 0.84189 0.0
H932 H 0.83528 0.46742 0.93413 0.0
H933 H 0.86536 0.47095 0.89069 0.0
H934 H 0.86802 0.41053 0.89061 0.0
H935 H 0.83743 0.40672 0.93254 0.0
H936 H 0.89702 0.46001 0.93509 0.0
H937 H 0.88408 0.42445 0.73859 0.0
H938 H 0.86582 0.43205 0.78115 0.0
H939 H 0.87642 0.41105 0.79502 0.0
C940 C 0.84197 0.45478 0.92361 0.0
C941 C 0.83387 0.43676 0.9366 0.0
C942 C 0.85926 0.45686 0.89921 0.0
C943 C 0.86885 0.441 0.88724 0.0
C944 C 0.86072 0.42292 0.89895 0.0
H945 H 0.98754 0.45829 0.82167 0.0
H946 H 0.95772 0.44516 0.85726 0.0
C947 C 0.84333 0.4208 0.92334 0.0
C948 C 0.88784 0.44379 0.86578 0.0
H949 H 0.91459 0.43635 0.75624 0.0
C950 C 0.90093 0.45471 0.89616 0.0
C951 C 0.89279 0.43691 0.81491 0.0
C952 C 0.87906 0.42557 0.78017 0.0
C953 C 0.91877 0.45939 0.87656 0.0
C954 C 0.92373 0.4526 0.82558 0.0
C955 C 0.91075 0.44134 0.79554 0.0
C956 C 0.94179 0.45854 0.80114 0.0
C957 C 0.93187 0.47227 0.90965 0.0
C958 C 0.94268 0.46993 0.75709 0.0
C959 C 0.95961 0.47729 0.73678 0.0
C960 C 0.97594 0.47323 0.75964 0.0
C961 C 0.97509 0.46151 0.80311 0.0
C962 C 0.95812 0.45406 0.82346 0.0
H963 H 0.92474 0.4793 0.94305 0.0
H964 H 0.94223 0.46383 0.92621 0.0
H965 H 0.93923 0.48337 0.88533 0.0
H966 H 0.93023 0.47379 0.73978 0.0
H967 H 0.95983 0.48703 0.70534 0.0
H968 H 0.11683 0.19531 0.998 0.0
H969 H 0.10537 0.16992 0.93591 0.0
H970 H 0.05136 0.17008 0.00754 0.0
H971 H 0.06275 0.19494 0.07057 0.0
H972 H 0.06476 0.13453 0.00127 0.0
H973 H 0.07155 0.16909 0.80808 0.0
H974 H 0.09179 0.17167 0.84729 0.0
H975 H 0.07165 0.1824 0.87021 0.0
C976 C 0.10247 0.19008 0.00014 0.0
C977 C 0.09072 0.19719 0.03929 0.0
C978 C 0.09591 0.17569 0.96432 0.0
C979 C 0.07748 0.16823 0.96689 0.0
C980 C 0.06561 0.17573 0.00471 0.0
H981 H 0.0142 0.08752 0.76408 0.0
H982 H 0.02761 0.11579 0.81259 0.0
C983 C 0.07212 0.19008 0.04044 0.0
C984 C 0.07086 0.15153 0.93348 0.0
H985 H 0.0636 0.13587 0.80611 0.0
C986 C 0.0645 0.13482 0.95859 0.0
C987 C 0.07047 0.152 0.87788 0.0
C988 C 0.07658 0.16978 0.8491 0.0
C989 C 0.05776 0.11854 0.92965 0.0
C990 C 0.05763 0.1189 0.874 0.0
C991 C 0.0639 0.13562 0.84878 0.0
C992 C 0.05039 0.10217 0.84168 0.0
C993 C 0.05046 0.10121 0.95892 0.0
C994 C 0.05898 0.08529 0.84115 0.0
C995 C 0.05133 0.06914 0.8136 0.0
C996 C 0.035 0.06966 0.78611 0.0
C997 C 0.02674 0.08672 0.7853 0.0
C998 C 0.0344 0.10287 0.81277 0.0
H999 H 0.04782 0.10456 0.0014 0.0
H1000 H 0.03754 0.09466 0.9414 0.0
H1001 H 0.0607 0.09061 0.95599 0.0
H1002 H 0.07147 0.08456 0.86264 0.0
H1003 H 0.05803 0.05619 0.81451 0.0
H1004 H 0.33897 0.04414 0.01648 0.0
H1005 H 0.36411 0.03894 0.95492 0.0
H1006 H 0.32789 0.00118 0.85951 0.0
H1007 H 0.30228 0.00662 0.92077 0.0
H1008 H 0.36077 0.98614 0.88611 0.0
H1009 H 0.37491 0.05747 0.80516 0.0
H1010 H 0.37342 0.05805 0.87589 0.0
H1011 H 0.35352 0.04989 0.83833 0.0
C1012 C 0.33609 0.03518 0.98163 0.0
C1013 C 0.31848 0.02596 0.9734 0.0
C1014 C 0.35057 0.03216 0.94654 0.0
C1015 C 0.34781 0.01988 0.90234 0.0
C1016 C 0.33025 0.0108 0.89334 0.0
H1017 H 0.43915 0.01173 0.67754 0.0
H1018 H 0.4084 0.01387 0.71506 0.0
C1019 C 0.31567 0.01388 0.92844 0.0
C1020 C 0.36368 0.01569 0.86804 0.0
H1021 H 0.39933 0.03715 0.79687 0.0
C1022 C 0.36907 0.9972 0.86585 0.0
C1023 C 0.37435 0.03009 0.8412 0.0
C1024 C 0.36867 0.04995 0.83974 0.0
C1025 C 0.38539 0.99296 0.83964 0.0
C1026 C 0.39668 0.00767 0.81582 0.0
C1027 C 0.39079 0.02593 0.81577 0.0
C1028 C 0.41493 0.00468 0.79209 0.0
C1029 C 0.39043 0.97282 0.83801 0.0
C1030 C 0.42882 0.99868 0.82289 0.0
C1031 C 0.44648 0.99739 0.80152 0.0
C1032 C 0.45059 0.00235 0.7492 0.0
C1033 C 0.43654 0.00804 0.71824 0.0
C1034 C 0.41891 0.0092 0.7395 0.0
H1035 H 0.37814 0.9626 0.84338 0.0
H1036 H 0.39744 0.96925 0.80011 0.0
H1037 H 0.3999 0.97107 0.87053 0.0
H1038 H 0.42615 0.99551 0.86391 0.0
H1039 H 0.45701 0.99302 0.82638 0.0
H1040 H 0.38883 0.32527 0.01711 0.0
H1041 H 0.39739 0.3519 0.9612 0.0
H1042 H 0.43351 0.31826 0.86922 0.0
H1043 H 0.42442 0.29112 0.92383 0.0
H1044 H 0.43259 0.36853 0.95423 0.0
H1045 H 0.40817 0.34477 0.75523 0.0
H1046 H 0.39993 0.33309 0.81439 0.0
H1047 H 0.42184 0.32863 0.78549 0.0
C1048 C 0.3981 0.32321 0.9839 0.0
C1049 C 0.40587 0.30592 0.97496 0.0
C1050 C 0.40311 0.33858 0.95222 0.0
C1051 C 0.41599 0.33706 0.9108 0.0
C1052 C 0.42331 0.31967 0.90041 0.0
H1053 H 0.48057 0.41744 0.71849 0.0
H1054 H 0.46534 0.38916 0.75874 0.0
C1055 C 0.41825 0.30422 0.93205 0.0
C1056 C 0.42307 0.35422 0.88236 0.0
H1057 H 0.42844 0.37305 0.76045 0.0
C1058 C 0.43153 0.36958 0.91192 0.0
C1059 C 0.42179 0.3555 0.82713 0.0
C1060 C 0.4123 0.3397 0.79366 0.0
C1061 C 0.43905 0.38607 0.88773 0.0
C1062 C 0.43779 0.38738 0.83249 0.0
C1063 C 0.4293 0.37204 0.80283 0.0
C1064 C 0.44582 0.40434 0.80487 0.0
C1065 C 0.44878 0.40171 0.92137 0.0
C1066 C 0.43958 0.4222 0.81641 0.0
C1067 C 0.4483 0.43839 0.79362 0.0
C1068 C 0.46334 0.43693 0.75876 0.0
C1069 C 0.46908 0.41897 0.74557 0.0
C1070 C 0.46036 0.40281 0.76837 0.0
H1071 H 0.45231 0.3967 0.96044 0.0
H1072 H 0.46157 0.40769 0.90138 0.0
H1073 H 0.43968 0.41326 0.92816 0.0
H1074 H 0.42816 0.42364 0.84378 0.0
H1075 H 0.44354 0.45206 0.80413 0.0
H1076 H 0.19972 0.56417 0.00198 0.0
H1077 H 0.17445 0.55985 0.94032 0.0
H1078 H 0.18724 0.50263 0.90424 0.0
H1079 H 0.21239 0.50676 0.96677 0.0
H1080 H 0.16947 0.54951 0.83504 0.0
H1081 H 0.13541 0.49516 0.96584 0.0
H1082 H 0.15567 0.51002 0.98472 0.0
H1083 H 0.15751 0.48992 0.9402 0.0
C1084 C 0.19746 0.55083 0.97991 0.0
C1085 C 0.2079 0.53573 0.98959 0.0
C1086 C 0.18297 0.54836 0.94479 0.0
C1087 C 0.1787 0.53078 0.91863 0.0
C1088 C 0.19002 0.51616 0.92503 0.0
H1089 H 0.08819 0.51069 0.69514 0.0
H1090 H 0.11897 0.51519 0.73239 0.0
C1091 C 0.20441 0.51855 0.96056 0.0
C1092 C 0.16146 0.52735 0.88881 0.0
H1093 H 0.11984 0.50133 0.88947 0.0
C1094 C 0.15864 0.53891 0.84663 0.0
C1095 C 0.14724 0.5137 0.90464 0.0
C1096 C 0.14897 0.50159 0.9516 0.0
C1097 C 0.14189 0.53729 0.82014 0.0
C1098 C 0.12775 0.52353 0.83577 0.0
C1099 C 0.13072 0.51181 0.87741 0.0
C1100 C 0.10935 0.52163 0.81187 0.0
C1101 C 0.13925 0.55078 0.77705 0.0
C1102 C 0.09373 0.52346 0.84422 0.0
C1103 C 0.07621 0.52061 0.82325 0.0
C1104 C 0.07398 0.5159 0.76948 0.0
C1105 C 0.08958 0.51433 0.73678 0.0
C1106 C 0.10715 0.51705 0.75791 0.0
H1107 H 0.14955 0.56331 0.7787 0.0
H1108 H 0.14081 0.54337 0.73813 0.0
H1109 H 0.12531 0.55576 0.77972 0.0
H1110 H 0.09509 0.52696 0.88595 0.0
H1111 H 0.06441 0.52196 0.84926 0.0
H1112 H 0.89297 0.79881 0.40604 0.0
H1113 H 0.90381 0.82558 0.46505 0.0
H1114 H 0.95106 0.83733 0.36217 0.0
H1115 H 0.94086 0.81007 0.30562 0.0
H1116 H 0.96126 0.84257 0.45691 0.0
H1117 H 0.89816 0.87919 0.43868 0.0
H1118 H 0.89395 0.85658 0.46802 0.0
H1119 H 0.90205 0.85797 0.40053 0.0
C1120 C 0.90581 0.80699 0.39685 0.0
C1121 C 0.91618 0.80237 0.35169 0.0
C1122 C 0.91188 0.82241 0.43007 0.0
C1123 C 0.92804 0.83383 0.41744 0.0
C1124 C 0.93857 0.82881 0.37294 0.0
H1125 H 0.95637 0.95122 0.5041 0.0
H1126 H 0.94417 0.92053 0.4658 0.0
C1127 C 0.93277 0.81319 0.34067 0.0
C1128 C 0.93407 0.85123 0.4493 0.0
H1129 H 0.92079 0.89384 0.49511 0.0
C1130 C 0.95239 0.85378 0.46525 0.0
C1131 C 0.92258 0.866 0.45965 0.0
C1132 C 0.90316 0.86492 0.44039 0.0
C1133 C 0.95972 0.8708 0.48961 0.0
C1134 C 0.94813 0.88539 0.50118 0.0
C1135 C 0.92966 0.88264 0.48659 0.0
C1136 C 0.95507 0.90398 0.5257 0.0
C1137 C 0.98004 0.8732 0.49997 0.0
C1138 C 0.96497 0.905 0.57258 0.0
C1139 C 0.97247 0.92246 0.59328 0.0
C1140 C 0.96953 0.93926 0.5687 0.0
C1141 C 0.95885 0.9384 0.52349 0.0
C1142 C 0.95185 0.92089 0.5018 0.0
H1143 H 0.98766 0.86347 0.47419 0.0
H1144 H 0.98595 0.88792 0.49342 0.0
H1145 H 0.98234 0.86979 0.54144 0.0
H1146 H 0.96704 0.8923 0.59305 0.0
H1147 H 0.98039 0.92286 0.62886 0.0
H1148 H 0.69187 0.97691 0.40086 0.0
H1149 H 0.66442 0.97438 0.45734 0.0
H1150 H 0.67303 0.03391 0.49916 0.0
H1151 H 0.70113 0.03646 0.44465 0.0
H1152 H 0.65723 0.01158 0.58218 0.0
H1153 H 0.62072 0.99716 0.39362 0.0
H1154 H 0.63723 0.98079 0.40607 0.0
H1155 H 0.64478 0.00525 0.39598 0.0
C1156 C 0.68842 0.98935 0.42361 0.0
C1157 C 0.69857 0.00699 0.41734 0.0
C1158 C 0.67256 0.9879 0.45544 0.0
C1159 C 0.66643 0.00407 0.48106 0.0
C1160 C 0.67742 0.02131 0.4791 0.0
H1161 H 0.55284 0.02176 0.54999 0.0
H1162 H 0.58461 0.02329 0.51728 0.0
C1163 C 0.69341 0.02275 0.44764 0.0
C1164 C 0.64765 0.00351 0.50434 0.0
H1165 H 0.60259 0.99565 0.47173 0.0
C1166 C 0.64526 0.00807 0.5582 0.0
C1167 C 0.63207 0.99936 0.47257 0.0
C1168 C 0.63374 0.99554 0.41377 0.0
C1169 C 0.62762 0.00829 0.58136 0.0
C1170 C 0.61207 0.00353 0.54981 0.0
C1171 C 0.61452 0.99918 0.49589 0.0
C1172 C 0.59304 0.00309 0.57142 0.0
C1173 C 0.62584 0.01403 0.63902 0.0
C1174 C 0.58718 0.99105 0.61227 0.0
C1175 C 0.56906 0.99019 0.63116 0.0
C1176 C 0.55635 0.00115 0.60903 0.0
C1177 C 0.56221 0.01304 0.56771 0.0
C1178 C 0.58039 0.01399 0.54911 0.0
H1179 H 0.63845 0.02239 0.6533 0.0
H1180 H 0.61399 0.02252 0.64649 0.0
H1181 H 0.62364 0.00112 0.66255 0.0
H1182 H 0.59655 0.98213 0.62914 0.0
H1183 H 0.56502 0.98083 0.66298 0.0
H1184 H 0.615 0.67353 0.31716 0.0
H1185 H 0.60589 0.64713 0.3736 0.0
H1186 H 0.57728 0.68398 0.47882 0.0
H1187 H 0.58667 0.71078 0.423 0.0
H1188 H 0.61042 0.64175 0.4857 0.0
H1189 H 0.53764 0.64162 0.42742 0.0
H1190 H 0.55633 0.65408 0.39149 0.0
H1191 H 0.54837 0.66375 0.45337 0.0
C1192 C 0.60718 0.67624 0.353 0.0
C1193 C 0.60156 0.69437 0.36542 0.0
C1194 C 0.60189 0.66104 0.38505 0.0
C1195 C 0.59075 0.66356 0.42996 0.0
C1196 C 0.58569 0.68172 0.44384 0.0
H1197 H 0.52998 0.58081 0.62627 0.0
H1198 H 0.54437 0.61002 0.58944 0.0
C1199 C 0.59103 0.697 0.41185 0.0
C1200 C 0.58359 0.6469 0.46016 0.0
H1201 H 0.54429 0.61891 0.48732 0.0
C1202 C 0.59595 0.63677 0.48638 0.0
C1203 C 0.56473 0.64043 0.46063 0.0
C1204 C 0.55095 0.65039 0.43146 0.0
C1205 C 0.58991 0.62036 0.51356 0.0
C1206 C 0.57107 0.61374 0.51342 0.0
C1207 C 0.55872 0.62401 0.48751 0.0
C1208 C 0.56374 0.5961 0.53922 0.0
C1209 C 0.60372 0.61046 0.54274 0.0
C1210 C 0.56994 0.57853 0.52363 0.0
C1211 C 0.5618 0.56178 0.545 0.0
C1212 C 0.54716 0.56237 0.58161 0.0
C1213 C 0.54119 0.57996 0.59784 0.0
C1214 C 0.54941 0.59665 0.57688 0.0
H1215 H 0.61614 0.62012 0.55199 0.0
H1216 H 0.5977 0.60473 0.58009 0.0
H1217 H 0.6081 0.59848 0.51765 0.0
H1218 H 0.58069 0.57769 0.49376 0.0
H1219 H 0.56656 0.54837 0.53169 0.0
H1220 H 0.79887 0.4332 0.39948 0.0
H1221 H 0.8249 0.44099 0.4575 0.0
H1222 H 0.83257 0.49713 0.39683 0.0
H1223 H 0.80695 0.48939 0.3379 0.0
H1224 H 0.86047 0.45202 0.41168 0.0
H1225 H 0.83864 0.50588 0.5588 0.0
H1226 H 0.82247 0.48969 0.52303 0.0
H1227 H 0.8337 0.50994 0.49135 0.0
C1228 C 0.80591 0.4473 0.39905 0.0
C1229 C 0.80087 0.46061 0.36368 0.0
C1230 C 0.82071 0.45175 0.43243 0.0
C1231 C 0.83057 0.46966 0.43162 0.0
C1232 C 0.82493 0.48334 0.39874 0.0
H1233 H 0.93459 0.52099 0.54671 0.0
H1234 H 0.90403 0.5142 0.50906 0.0
C1235 C 0.81021 0.47888 0.36513 0.0
C1236 C 0.8481 0.47324 0.45967 0.0
H1237 H 0.87052 0.50178 0.55329 0.0
C1238 C 0.86264 0.46275 0.44308 0.0
C1239 C 0.8509 0.48743 0.49997 0.0
C1240 C 0.83558 0.49882 0.51977 0.0
C1241 C 0.88008 0.46635 0.46484 0.0
C1242 C 0.88291 0.4805 0.5054 0.0
C1243 C 0.86831 0.49092 0.52229 0.0
C1244 C 0.90103 0.48479 0.53016 0.0
C1245 C 0.89544 0.45541 0.44278 0.0
C1246 C 0.90931 0.47062 0.55531 0.0
C1247 C 0.9268 0.4744 0.57613 0.0
C1248 C 0.93618 0.49251 0.57292 0.0
C1249 C 0.92767 0.50688 0.54934 0.0
C1250 C 0.91022 0.50303 0.52804 0.0
H1251 H 0.89235 0.44918 0.40281 0.0
H1252 H 0.90855 0.46458 0.44046 0.0
H1253 H 0.89734 0.44361 0.46896 0.0
H1254 H 0.90228 0.45658 0.55859 0.0
H1255 H 0.93296 0.46315 0.59483 0.0
loop_
_geom_bond_atom_site_label_1
_geom_bond_atom_site_label_2
_geom_bond_distance
_geom_bond_site_symmetry_2
_ccdc_geom_bond_type
C0 C1 1.386 . S
C0 C2 1.397 . S
C0 H24 0.931 . S
C1 C0 1.386 . S
C1 C5 1.397 . S
C2 C0 1.397 . S
C2 C3 1.384 . S
C2 H25 0.930 . S
C3 C2 1.384 . S
C3 C4 1.377 . S
C3 C6 1.481 1_556 S
C4 C3 1.377 . S
C4 C5 1.389 . S
C4 H26 0.929 1_556 S
C5 C1 1.397 . S
C5 C4 1.389 . S
C5 H27 0.931 . S
C6 C3 1.481 1_554 S
C6 C7 1.387 . S
C6 C11 1.390 . S
C7 C6 1.387 . S
C7 C8 1.401 . S
C7 H28 0.930 1_554 S
C8 C7 1.401 . S
C8 C9 1.376 . S
C8 C17 1.511 . S
C9 C8 1.376 . S
C9 C10 1.392 . S
C9 H30 0.931 . S
C10 C9 1.392 . S
C10 C11 1.361 . S
C10 C12 1.500 . S
C11 C6 1.390 . S
C11 C10 1.361 . S
C11 H29 0.931 . S
C12 C10 1.500 . S
C12 C13 1.371 . S
C12 C14 1.365 . S
C13 C12 1.371 . S
C13 C23 1.386 . S
C13 H31 0.931 . S
C14 C12 1.365 . S
C14 C15 1.409 . S
C14 H32 0.929 . S
C15 C14 1.409 . S
C15 C16 1.380 . S
C15 H33 0.930 . S
C16 C15 1.380 . S
C16 C23 1.357 . S
C17 C8 1.511 . S
C17 C18 1.341 1_554 S
C17 C19 1.371 . S
C18 C17 1.341 1_556 S
C18 C22 1.394 . S
C18 H34 0.930 . S
C19 C17 1.371 . S
C19 C20 1.392 . S
C19 H35 0.931 . S
C20 C19 1.392 . S
C20 C21 1.331 . S
C20 H38 0.932 . S
C21 C20 1.331 . S
C21 C22 1.336 1_554 S
C22 C18 1.394 . S
C22 C21 1.336 1_556 S
C22 H37 0.929 . S
C23 C13 1.386 . S
C23 C16 1.357 . S
C23 H36 0.928 . S
H24 C0 0.931 . S
H25 C2 0.930 . S
H26 C4 0.929 1_554 S
H27 C5 0.931 . S
H28 C7 0.930 1_556 S
H29 C11 0.931 . S
H30 C9 0.931 . S
H31 C13 0.931 . S
H32 C14 0.929 . S
H33 C15 0.930 . S
H34 C18 0.930 . S
H35 C19 0.931 . S
H36 C23 0.928 . S
H37 C22 0.929 . S
H38 C20 0.932 . S
C39 C40 1.386 . S
C39 C41 1.397 . S
C39 H63 0.931 . S
C40 C39 1.386 . S
C40 C44 1.397 . S
C41 C39 1.397 . S
C41 C42 1.384 . S
C41 H64 0.930 . S
C42 C41 1.384 . S
C42 C43 1.377 . S
C42 C45 1.481 . S
C43 C42 1.377 . S
C43 C44 1.389 . S
C43 H65 0.929 . S
C44 C40 1.397 . S
C44 C43 1.389 . S
C44 H66 0.931 . S
C45 C42 1.481 . S
C45 C46 1.387 . S
C45 C50 1.390 1_556 S
C46 C45 1.387 . S
C46 C47 1.401 1_556 S
C46 H67 0.930 . S
C47 C46 1.401 1_554 S
C47 C48 1.376 . S
C47 C56 1.511 . S
C48 C47 1.376 . S
C48 C49 1.392 . S
C48 H69 0.931 . S
C49 C48 1.392 . S
C49 C50 1.361 . S
C49 C51 1.500 . S
C50 C45 1.390 1_554 S
C50 C49 1.361 . S
C50 H68 0.931 . S
C51 C49 1.500 . S
C51 C52 1.371 . S
C51 C53 1.365 . S
C52 C51 1.371 . S
C52 C62 1.386 . S
C52 H70 0.931 . S
C53 C51 1.365 . S
C53 C54 1.409 . S
C53 H71 0.929 . S
C54 C53 1.409 . S
C54 C55 1.380 . S
C54 H72 0.930 . S
C55 C54 1.380 . S
C55 C62 1.357 . S
C56 C47 1.511 . S
C56 C57 1.341 1_554 S
C56 C58 1.371 . S
C57 C56 1.341 1_556 S
C57 C61 1.394 . S
C57 H73 0.930 . S
C58 C56 1.371 . S
C58 C59 1.392 . S
C58 H74 0.931 . S
C59 C58 1.392 . S
C59 C60 1.331 1_554 S
C59 H77 0.932 . S
C60 C59 1.331 1_556 S
C60 C61 1.336 . S
C61 C57 1.394 . S
C61 C60 1.336 . S
C61 H76 0.929 . S
C62 C52 1.386 . S
C62 C55 1.357 . S
C62 H75 0.928 . S
H63 C39 0.931 . S
H64 C41 0.930 . S
H65 C43 0.929 . S
H66 C44 0.931 . S
H67 C46 0.930 . S
H68 C50 0.931 . S
H69 C48 0.931 . S
H70 C52 0.931 . S
H71 C53 0.929 . S
H72 C54 0.930 . S
H73 C57 0.930 . S
H74 C58 0.931 . S
H75 C62 0.928 . S
H76 C61 0.929 . S
H77 C59 0.932 . S
C78 C79 1.395 . S
C78 C80 1.397 . S
C78 H102 0.931 . S
C79 C78 1.395 . S
C79 C83 1.389 1_565 S
C80 C78 1.397 . S
C80 C81 1.388 1_556 S
C80 H103 0.930 . S
C81 C80 1.388 1_554 S
C81 C82 1.372 1_565 S
C81 C84 1.478 . S
C82 C81 1.372 1_545 S
C82 C83 1.389 1_554 S
C82 H104 0.929 . S
C83 C79 1.389 1_545 S
C83 C82 1.389 1_556 S
C83 H105 0.931 . S
C84 C81 1.478 . S
C84 C85 1.391 . S
C84 C89 1.390 . S
C85 C84 1.391 . S
C85 C86 1.399 . S
C85 H106 0.930 . S
C86 C85 1.399 . S
C86 C87 1.376 . S
C86 C95 1.515 . S
C87 C86 1.376 . S
C87 C88 1.388 . S
C87 H108 0.939 . S
C88 C87 1.388 . S
C88 C89 1.362 . S
C88 C90 1.499 1_565 S
C89 C84 1.390 . S
C89 C88 1.362 . S
C89 H107 0.930 . S
C90 C88 1.499 1_545 S
C90 C91 1.362 1_545 S
C90 C92 1.375 . S
C91 C90 1.362 1_565 S
C91 C101 1.386 . S
C91 H109 0.931 . S
C92 C90 1.375 . S
C92 C93 1.409 . S
C92 H110 0.929 . S
C93 C92 1.409 . S
C93 C94 1.378 . S
C93 H111 0.930 . S
C94 C93 1.378 . S
C94 C101 1.360 1_545 S
C95 C86 1.515 . S
C95 C96 1.341 . S
C95 C97 1.371 1_565 S
C96 C95 1.341 . S
C96 C100 1.394 . S
C96 H112 0.930 1_554 S
C97 C95 1.371 1_545 S
C97 C98 1.392 . S
C97 H113 0.931 . S
C98 C97 1.392 . S
C98 C99 1.322 1_545 S
C98 H116 0.932 . S
C99 C98 1.322 1_565 S
C99 C100 1.343 . S
C100 C96 1.394 . S
C100 C99 1.343 . S
C100 H115 0.929 1_554 S
C101 C91 1.386 . S
C101 C94 1.360 1_565 S
C101 H114 0.928 . S
H102 C78 0.931 . S
H103 C80 0.930 . S
H104 C82 0.929 . S
H105 C83 0.931 . S
H106 C85 0.930 . S
H107 C89 0.930 . S
H108 C87 0.939 . S
H109 C91 0.931 . S
H110 C92 0.929 . S
H111 C93 0.930 . S
H112 C96 0.930 1_556 S
H113 C97 0.931 . S
H114 C101 0.928 . S
H115 C100 0.929 1_556 S
H116 C98 0.932 . S
C117 C118 1.386 . S
C117 C119 1.397 . S
C117 H141 0.931 . S
C118 C117 1.386 . S
C118 C122 1.397 . S
C119 C117 1.397 . S
C119 C120 1.384 . S
C119 H142 0.930 . S
C120 C119 1.384 . S
C120 C121 1.377 . S
C120 C123 1.481 . S
C121 C120 1.377 . S
C121 C122 1.389 . S
C121 H143 0.929 . S
C122 C118 1.397 . S
C122 C121 1.389 . S
C122 H144 0.931 . S
C123 C120 1.481 . S
C123 C124 1.387 . S
C123 C128 1.390 . S
C124 C123 1.387 . S
C124 C125 1.401 . S
C124 H145 0.930 . S
C125 C124 1.401 . S
C125 C126 1.376 . S
C125 C134 1.511 . S
C126 C125 1.376 . S
C126 C127 1.392 . S
C126 H147 0.931 1_554 S
C127 C126 1.392 . S
C127 C128 1.361 . S
C127 C129 1.507 . S
C128 C123 1.390 . S
C128 C127 1.361 . S
C128 H146 0.931 . S
C129 C127 1.507 . S
C129 C130 1.362 1_554 S
C129 C131 1.366 . S
C130 C129 1.362 1_556 S
C130 C140 1.386 . S
C130 H148 0.931 . S
C131 C129 1.366 . S
C131 C132 1.409 1_554 S
C131 H149 0.929 . S
C132 C131 1.409 1_556 S
C132 C133 1.380 . S
C132 H150 0.930 . S
C133 C132 1.380 . S
C133 C140 1.357 . S
C134 C125 1.511 . S
C134 C135 1.341 . S
C134 C136 1.371 . S
C135 C134 1.341 . S
C135 C139 1.394 . S
C135 H151 0.930 . S
C136 C134 1.371 . S
C136 C137 1.392 1_554 S
C136 H152 0.931 1_554 S
C137 C136 1.392 1_556 S
C137 C138 1.328 1_556 S
C137 H155 0.935 . S
C138 C137 1.328 1_554 S
C138 C139 1.336 . S
C139 C135 1.394 . S
C139 C138 1.336 . S
C139 H154 0.929 . S
C140 C130 1.386 . S
C140 C133 1.357 . S
C140 H153 0.928 . S
H141 C117 0.931 . S
H142 C119 0.930 . S
H143 C121 0.929 . S
H144 C122 0.931 . S
H145 C124 0.930 . S
H146 C128 0.931 . S
H147 C126 0.931 1_556 S
H148 C130 0.931 . S
H149 C131 0.929 . S
H150 C132 0.930 . S
H151 C135 0.930 . S
H152 C136 0.931 1_556 S
H153 C140 0.928 . S
H154 C139 0.929 . S
H155 C137 0.935 . S
C156 C157 1.386 . S
C156 C158 1.397 . S
C156 H180 0.931 . S
C157 C156 1.386 . S
C157 C161 1.397 . S
C158 C156 1.397 . S
C158 C159 1.384 . S
C158 H181 0.930 . S
C159 C158 1.384 . S
C159 C160 1.377 . S
C159 C162 1.481 . S
C160 C159 1.377 . S
C160 C161 1.389 . S
C160 H182 0.929 . S
C161 C157 1.397 . S
C161 C160 1.389 . S
C161 H183 0.931 . S
C162 C159 1.481 . S
C162 C163 1.387 . S
C162 C167 1.390 . S
C163 C162 1.387 . S
C163 C164 1.401 . S
C163 H184 0.930 . S
C164 C163 1.401 . S
C164 C165 1.376 . S
C164 C173 1.511 . S
C165 C164 1.376 . S
C165 C166 1.392 . S
C165 H186 0.931 . S
C166 C165 1.392 . S
C166 C167 1.361 . S
C166 C168 1.500 . S
C167 C162 1.390 . S
C167 C166 1.361 . S
C167 H185 0.931 . S
C168 C166 1.500 . S
C168 C169 1.371 . S
C168 C170 1.365 . S
C169 C168 1.371 . S
C169 C179 1.386 . S
C169 H187 0.931 . S
C170 C168 1.365 . S
C170 C171 1.409 . S
C170 H188 0.929 . S
C171 C170 1.409 . S
C171 C172 1.380 . S
C171 H189 0.930 . S
C172 C171 1.380 . S
C172 C179 1.357 . S
C173 C164 1.511 . S
C173 C174 1.341 . S
C173 C175 1.371 . S
C174 C173 1.341 . S
C174 C178 1.394 . S
C174 H190 0.930 . S
C175 C173 1.371 . S
C175 C176 1.392 . S
C175 H191 0.931 . S
C176 C175 1.392 . S
C176 C177 1.331 . S
C176 H194 0.932 . S
C177 C176 1.331 . S
C177 C178 1.336 . S
C178 C174 1.394 . S
C178 C177 1.336 . S
C178 H193 0.929 . S
C179 C169 1.386 . S
C179 C172 1.357 . S
C179 H192 0.928 . S
H180 C156 0.931 . S
H181 C158 0.930 . S
H182 C160 0.929 . S
H183 C161 0.931 . S
H184 C163 0.930 . S
H185 C167 0.931 . S
H186 C165 0.931 . S
H187 C169 0.931 . S
H188 C170 0.929 . S
H189 C171 0.930 . S
H190 C174 0.930 . S
H191 C175 0.931 . S
H192 C179 0.928 . S
H193 C178 0.929 . S
H194 C176 0.932 . S
C195 C196 1.386 . S
C195 C197 1.397 . S
C195 H219 0.931 . S
C196 C195 1.386 . S
C196 C200 1.397 . S
C197 C195 1.397 . S
C197 C198 1.384 . S
C197 H220 0.930 . S
C198 C197 1.384 . S
C198 C199 1.377 . S
C198 C201 1.481 . S
C199 C198 1.377 . S
C199 C200 1.389 . S
C199 H221 0.929 . S
C200 C196 1.397 . S
C200 C199 1.389 . S
C200 H222 0.931 . S
C201 C198 1.481 . S
C201 C202 1.387 . S
C201 C206 1.390 . S
C202 C201 1.387 . S
C202 C203 1.401 . S
C202 H223 0.930 . S
C203 C202 1.401 . S
C203 C204 1.376 . S
C203 C212 1.511 . S
C204 C203 1.376 . S
C204 C205 1.392 . S
C204 H225 0.931 . S
C205 C204 1.392 . S
C205 C206 1.361 . S
C205 C207 1.500 . S
C206 C201 1.390 . S
C206 C205 1.361 . S
C206 H224 0.931 . S
C207 C205 1.500 . S
C207 C208 1.371 . S
C207 C209 1.365 . S
C208 C207 1.371 . S
C208 C218 1.386 . S
C208 H226 0.931 . S
C209 C207 1.365 . S
C209 C210 1.409 . S
C209 H227 0.929 . S
C210 C209 1.409 . S
C210 C211 1.380 . S
C210 H228 0.930 . S
C211 C210 1.380 . S
C211 C218 1.357 . S
C212 C203 1.511 . S
C212 C213 1.341 . S
C212 C214 1.371 . S
C213 C212 1.341 . S
C213 C217 1.394 . S
C213 H229 0.930 . S
C214 C212 1.371 . S
C214 C215 1.392 . S
C214 H230 0.931 . S
C215 C214 1.392 . S
C215 C216 1.331 . S
C215 H233 0.932 . S
C216 C215 1.331 . S
C216 C217 1.336 . S
C217 C213 1.394 . S
C217 C216 1.336 . S
C217 H232 0.929 . S
C218 C208 1.386 . S
C218 C211 1.357 . S
C218 H231 0.928 . S
H219 C195 0.931 . S
H220 C197 0.930 . S
H221 C199 0.929 . S
H222 C200 0.931 . S
H223 C202 0.930 . S
H224 C206 0.931 . S
H225 C204 0.931 . S
H226 C208 0.931 . S
H227 C209 0.929 . S
H228 C210 0.930 . S
H229 C213 0.930 . S
H230 C214 0.931 . S
H231 C218 0.928 . S
H232 C217 0.929 . S
H233 C215 0.932 . S
C234 C235 1.386 1_565 S
C234 C236 1.397 . S
C234 H258 0.931 . S
C235 C234 1.386 1_545 S
C235 C239 1.397 . S
C236 C234 1.397 . S
C236 C237 1.384 1_565 S
C236 H259 0.930 . S
C237 C236 1.384 1_545 S
C237 C238 1.377 . S
C237 C240 1.481 . S
C238 C237 1.377 . S
C238 C239 1.389 . S
C238 H260 0.929 . S
C239 C235 1.397 . S
C239 C238 1.389 . S
C239 H261 0.931 . S
C240 C237 1.481 . S
C240 C241 1.387 . S
C240 C245 1.390 . S
C241 C240 1.387 . S
C241 C242 1.401 . S
C241 H262 0.930 . S
C242 C241 1.401 . S
C242 C243 1.376 . S
C242 C251 1.511 . S
C243 C242 1.376 . S
C243 C244 1.392 . S
C243 H264 0.931 . S
C244 C243 1.392 . S
C244 C245 1.361 . S
C244 C246 1.500 . S
C245 C240 1.390 . S
C245 C244 1.361 . S
C245 H263 0.931 . S
C246 C244 1.500 . S
C246 C247 1.371 1_545 S
C246 C248 1.365 . S
C247 C246 1.371 1_565 S
C247 C257 1.386 . S
C247 H265 0.931 . S
C248 C246 1.365 . S
C248 C249 1.409 . S
C248 H266 0.929 . S
C249 C248 1.409 . S
C249 C250 1.380 . S
C249 H267 0.930 . S
C250 C249 1.380 . S
C250 C257 1.357 1_545 S
C251 C242 1.511 . S
C251 C252 1.338 1_545 S
C251 C253 1.371 . S
C252 C251 1.338 1_565 S
C252 C256 1.392 1_565 S
C252 H268 0.935 . S
C253 C251 1.371 . S
C253 C254 1.392 . S
C253 H269 0.931 . S
C254 C253 1.392 . S
C254 C255 1.331 . S
C254 H272 0.932 . S
C255 C254 1.331 . S
C255 C256 1.340 . S
C256 C252 1.392 1_545 S
C256 C255 1.340 . S
C256 H271 0.927 1_545 S
C257 C247 1.386 . S
C257 C250 1.357 1_565 S
C257 H270 0.928 . S
H258 C234 0.931 . S
H259 C236 0.930 . S
H260 C238 0.929 . S
H261 C239 0.931 . S
H262 C241 0.930 . S
H263 C245 0.931 . S
H264 C243 0.931 . S
H265 C247 0.931 . S
H266 C248 0.929 . S
H267 C249 0.930 . S
H268 C252 0.935 . S
H269 C253 0.931 . S
H270 C257 0.928 . S
H271 C256 0.927 1_565 S
H272 C254 0.932 . S
C273 C274 1.386 . S
C273 C275 1.397 . S
C273 H297 0.931 . S
C274 C273 1.386 . S
C274 C278 1.397 . S
C275 C273 1.397 . S
C275 C276 1.384 . S
C275 H298 0.930 . S
C276 C275 1.384 . S
C276 C277 1.377 . S
C276 C279 1.481 . S
C277 C276 1.377 . S
C277 C278 1.389 . S
C277 H299 0.929 . S
C278 C274 1.397 . S
C278 C277 1.389 . S
C278 H300 0.931 . S
C279 C276 1.481 . S
C279 C280 1.387 . S
C279 C284 1.390 . S
C280 C279 1.387 . S
C280 C281 1.401 . S
C280 H301 0.930 . S
C281 C280 1.401 . S
C281 C282 1.376 . S
C281 C290 1.511 . S
C282 C281 1.376 . S
C282 C283 1.392 . S
C282 H303 0.931 . S
C283 C282 1.392 . S
C283 C284 1.361 . S
C283 C285 1.500 . S
C284 C279 1.390 . S
C284 C283 1.361 . S
C284 H302 0.931 . S
C285 C283 1.500 . S
C285 C286 1.371 . S
C285 C287 1.365 . S
C286 C285 1.371 . S
C286 C296 1.386 . S
C286 H304 0.931 . S
C287 C285 1.365 . S
C287 C288 1.409 . S
C287 H305 0.929 . S
C288 C287 1.409 . S
C288 C289 1.380 . S
C288 H306 0.930 . S
C289 C288 1.380 . S
C289 C296 1.357 . S
C290 C281 1.511 . S
C290 C291 1.341 . S
C290 C292 1.371 . S
C291 C290 1.341 . S
C291 C295 1.394 . S
C291 H307 0.930 . S
C292 C290 1.371 . S
C292 C293 1.392 . S
C292 H308 0.931 . S
C293 C292 1.392 . S
C293 C294 1.331 . S
C293 H311 0.932 . S
C294 C293 1.331 . S
C294 C295 1.336 . S
C295 C291 1.394 . S
C295 C294 1.336 . S
C295 H310 0.929 . S
C296 C286 1.386 . S
C296 C289 1.357 . S
C296 H309 0.928 . S
H297 C273 0.931 . S
H298 C275 0.930 . S
H299 C277 0.929 . S
H300 C278 0.931 . S
H301 C280 0.930 . S
H302 C284 0.931 . S
H303 C282 0.931 . S
H304 C286 0.931 . S
H305 C287 0.929 . S
H306 C288 0.930 . S
H307 C291 0.930 . S
H308 C292 0.931 . S
H309 C296 0.928 . S
H310 C295 0.929 . S
H311 C293 0.932 . S
Tb312 O315 2.453 1_665 S
Tb312 O316 2.596 1_665 S
Tb312 O317 2.374 1_655 S
Tb312 O325 2.354 . S
Tb312 O327 2.353 1_565 S
Tb312 O329 2.427 . S
Tb312 O330 2.513 . S
C313 O317 1.251 . S
C313 O319 1.263 . S
Tb314 O316 2.343 . S
Tb314 O319 2.353 1_545 S
Tb314 O322 2.427 . S
Tb314 O323 2.513 . S
Tb314 O324 2.453 1_545 S
Tb314 O325 2.571 1_445 S
Tb314 O326 2.374 1_455 S
O315 Tb312 2.453 1_445 S
O315 C331 1.245 . S
O316 Tb312 2.596 1_445 S
O316 Tb314 2.343 . S
O316 C331 1.259 . S
O317 Tb312 2.374 1_455 S
O317 C313 1.251 . S
C318 O322 1.275 . S
C318 O323 1.246 . S
O319 C313 1.263 . S
O319 Tb314 2.353 1_565 S
C320 O324 1.245 1_655 S
C320 O325 1.258 . S
C321 O326 1.250 . S
C321 O327 1.263 . S
O322 Tb314 2.427 . S
O322 C318 1.275 . S
O323 Tb314 2.513 . S
O323 C318 1.246 . S
O324 Tb314 2.453 1_565 S
O324 C320 1.245 1_455 S
O325 Tb312 2.354 . S
O325 Tb314 2.571 1_665 S
O325 C320 1.258 . S
O326 Tb314 2.374 1_655 S
O326 C321 1.250 . S
O327 Tb312 2.353 1_545 S
O327 C321 1.263 . S
C328 O329 1.275 . S
C328 O330 1.246 . S
O329 Tb312 2.427 . S
O329 C328 1.275 . S
O330 Tb312 2.513 . S
O330 C328 1.246 . S
C331 O315 1.245 . S
C331 O316 1.259 . S
Tb332 O335 2.453 . S
Tb332 O336 2.593 . S
Tb332 O337 2.374 . S
Tb332 O345 2.343 . S
Tb332 O347 2.353 . S
Tb332 O349 2.427 . S
Tb332 O350 2.513 . S
C333 O337 1.251 . S
C333 O339 1.263 1_545 S
Tb334 O336 2.345 1_565 S
Tb334 O339 2.353 . S
Tb334 O342 2.427 . S
Tb334 O343 2.513 . S
Tb334 O344 2.453 . S
Tb334 O345 2.596 1_565 S
Tb334 O346 2.374 . S
O335 Tb332 2.453 . S
O335 C351 1.245 . S
O336 Tb332 2.593 . S
O336 Tb334 2.345 1_545 S
O336 C351 1.258 . S
O337 Tb332 2.374 . S
O337 C333 1.251 . S
C338 O342 1.275 . S
C338 O343 1.246 . S
O339 C333 1.263 1_565 S
O339 Tb334 2.353 . S
C340 O344 1.245 . S
C340 O345 1.259 1_565 S
C341 O346 1.250 1_545 S
C341 O347 1.263 . S
O342 Tb334 2.427 . S
O342 C338 1.275 . S
O343 Tb334 2.513 . S
O343 C338 1.246 . S
O344 Tb334 2.453 . S
O344 C340 1.245 . S
O345 Tb332 2.343 . S
O345 Tb334 2.596 1_545 S
O345 C340 1.259 1_545 S
O346 Tb334 2.374 . S
O346 C341 1.250 1_565 S
O347 Tb332 2.353 . S
O347 C341 1.263 . S
C348 O349 1.275 . S
C348 O350 1.246 . S
O349 Tb332 2.427 . S
O349 C348 1.275 . S
O350 Tb332 2.513 . S
O350 C348 1.246 . S
C351 O335 1.245 . S
C351 O336 1.258 . S
Tb352 O355 2.453 . S
Tb352 O356 2.596 . S
Tb352 O357 2.374 . S
Tb352 O365 2.343 . S
Tb352 O367 2.353 . S
Tb352 O369 2.427 . S
Tb352 O370 2.513 . S
C353 O357 1.251 . S
C353 O359 1.263 . S
Tb354 O356 2.343 . S
Tb354 O359 2.353 . S
Tb354 O362 2.427 . S
Tb354 O363 2.513 . S
Tb354 O364 2.453 . S
Tb354 O365 2.596 . S
Tb354 O366 2.374 . S
O355 Tb352 2.453 . S
O355 C371 1.245 . S
O356 Tb352 2.596 . S
O356 Tb354 2.343 . S
O356 C371 1.259 . S
O357 Tb352 2.374 . S
O357 C353 1.251 . S
C358 O362 1.275 . S
C358 O363 1.246 . S
O359 C353 1.263 . S
O359 Tb354 2.353 . S
C360 O364 1.245 . S
C360 O365 1.259 . S
C361 O366 1.250 . S
C361 O367 1.263 . S
O362 Tb354 2.427 . S
O362 C358 1.275 . S
O363 Tb354 2.513 . S
O363 C358 1.246 . S
O364 Tb354 2.453 . S
O364 C360 1.245 . S
O365 Tb352 2.343 . S
O365 Tb354 2.596 . S
O365 C360 1.259 . S
O366 Tb354 2.374 . S
O366 C361 1.250 . S
O367 Tb352 2.353 . S
O367 C361 1.263 . S
C368 O369 1.275 . S
C368 O370 1.246 . S
O369 Tb352 2.427 . S
O369 C368 1.275 . S
O370 Tb352 2.513 . S
O370 C368 1.246 . S
C371 O355 1.245 . S
C371 O356 1.259 . S
Tb372 O375 2.453 1_655 S
Tb372 O376 2.596 1_655 S
Tb372 O377 2.374 1_655 S
Tb372 O385 2.343 . S
Tb372 O387 2.353 . S
Tb372 O389 2.427 . S
Tb372 O390 2.513 . S
C373 O377 1.251 . S
C373 O379 1.263 . S
Tb374 O376 2.343 . S
Tb374 O379 2.353 . S
Tb374 O382 2.427 . S
Tb374 O383 2.513 . S
Tb374 O384 2.453 1_455 S
Tb374 O385 2.596 1_455 S
Tb374 O386 2.374 . S
O375 Tb372 2.453 1_455 S
O375 C391 1.245 . S
O376 Tb372 2.596 1_455 S
O376 Tb374 2.343 . S
O376 C391 1.259 . S
O377 Tb372 2.374 1_455 S
O377 C373 1.251 . S
C378 O382 1.275 . S
C378 O383 1.246 . S
O379 C373 1.263 . S
O379 Tb374 2.353 . S
C380 O384 1.245 . S
C380 O385 1.259 . S
C381 O386 1.250 1_655 S
C381 O387 1.263 . S
O382 Tb374 2.427 . S
O382 C378 1.275 . S
O383 Tb374 2.513 . S
O383 C378 1.246 . S
O384 Tb374 2.453 1_655 S
O384 C380 1.245 . S
O385 Tb372 2.343 . S
O385 Tb374 2.596 1_655 S
O385 C380 1.259 . S
O386 Tb374 2.374 . S
O386 C381 1.250 1_455 S
O387 Tb372 2.353 . S
O387 C381 1.263 . S
C388 O389 1.275 . S
C388 O390 1.246 . S
O389 Tb372 2.427 . S
O389 C388 1.275 . S
O390 Tb372 2.513 . S
O390 C388 1.246 . S
C391 O375 1.245 . S
C391 O376 1.259 . S
H392 C400 0.929 . S
H393 C402 0.930 . S
H394 C404 0.930 . S
H395 C407 0.929 . S
H396 C410 0.930 . S
H397 C412 0.960 . S
H398 C412 0.960 . S
H399 C412 0.960 . S
C400 H392 0.929 . S
C400 C401 1.377 . S
C400 C402 1.384 . S
C401 C400 1.377 . S
C401 C407 1.390 1_545 S
C402 H393 0.930 . S
C402 C400 1.384 . S
C402 C403 1.372 . S
C403 C402 1.372 . S
C403 C404 1.400 1_545 S
C403 C408 1.490 . S
C404 H394 0.930 . S
C404 C403 1.400 1_565 S
C404 C407 1.386 . S
H405 C421 0.930 . S
H406 C422 0.931 . S
C407 H395 0.929 . S
C407 C401 1.390 1_565 S
C407 C404 1.386 . S
C408 C403 1.490 . S
C408 C410 1.395 . S
C408 C411 1.403 1_545 S
H409 C415 0.930 . S
C410 H396 0.930 . S
C410 C408 1.395 . S
C410 C413 1.403 . S
C411 C408 1.403 1_565 S
C411 C412 1.524 . S
C411 C415 1.400 . S
C412 H397 0.960 . S
C412 H398 0.960 . S
C412 H399 0.960 . S
C412 C411 1.524 . S
C413 C410 1.403 . S
C413 C414 1.392 . S
C413 C417 1.495 . S
C414 C413 1.392 . S
C414 C415 1.385 1_545 S
C414 C416 1.478 . S
C415 H409 0.930 . S
C415 C411 1.400 . S
C415 C414 1.385 1_565 S
C416 C414 1.478 . S
C416 C418 1.381 . S
C416 C422 1.383 1_545 S
C417 C413 1.495 . S
C417 H423 0.959 . S
C417 H424 0.961 . S
C417 H425 0.960 . S
C418 C416 1.381 . S
C418 C419 1.394 . S
C418 H426 0.930 . S
C419 C418 1.394 . S
C419 C420 1.412 . S
C419 H427 0.929 . S
C420 C419 1.412 . S
C420 C421 1.349 1_545 S
C421 H405 0.930 . S
C421 C420 1.349 1_565 S
C421 C422 1.379 . S
C422 H406 0.931 . S
C422 C416 1.383 1_565 S
C422 C421 1.379 . S
H423 C417 0.959 . S
H424 C417 0.961 . S
H425 C417 0.960 . S
H426 C418 0.930 . S
H427 C419 0.929 . S
H428 C436 0.929 . S
H429 C438 0.930 . S
H430 C440 0.930 . S
H431 C443 0.929 . S
H432 C446 0.930 . S
H433 C448 0.960 . S
H434 C448 0.960 . S
H435 C448 0.960 . S
C436 H428 0.929 . S
C436 C437 1.377 . S
C436 C438 1.384 . S
C437 C436 1.377 . S
C437 C443 1.390 . S
C438 H429 0.930 . S
C438 C436 1.384 . S
C438 C439 1.372 . S
C439 C438 1.372 . S
C439 C440 1.400 . S
C439 C444 1.490 . S
C440 H430 0.930 . S
C440 C439 1.400 . S
C440 C443 1.386 . S
H441 C457 0.930 . S
H442 C458 0.931 . S
C443 H431 0.929 . S
C443 C437 1.390 . S
C443 C440 1.386 . S
C444 C439 1.490 . S
C444 C446 1.395 . S
C444 C447 1.403 . S
H445 C451 0.930 . S
C446 H432 0.930 . S
C446 C444 1.395 . S
C446 C449 1.403 . S
C447 C444 1.403 . S
C447 C448 1.524 . S
C447 C451 1.400 . S
C448 H433 0.960 . S
C448 H434 0.960 . S
C448 H435 0.960 . S
C448 C447 1.524 . S
C449 C446 1.403 . S
C449 C450 1.392 . S
C449 C453 1.495 . S
C450 C449 1.392 . S
C450 C451 1.385 . S
C450 C452 1.478 . S
C451 H445 0.930 . S
C451 C447 1.400 . S
C451 C450 1.385 . S
C452 C450 1.478 . S
C452 C454 1.381 . S
C452 C458 1.383 . S
C453 C449 1.495 . S
C453 H459 0.959 . S
C453 H460 0.961 . S
C453 H461 0.960 . S
C454 C452 1.381 . S
C454 C455 1.394 . S
C454 H462 0.930 . S
C455 C454 1.394 . S
C455 C456 1.383 . S
C455 H463 0.929 . S
C456 C455 1.383 . S
C456 C457 1.377 . S
C457 H441 0.930 . S
C457 C456 1.377 . S
C457 C458 1.379 . S
C458 H442 0.931 . S
C458 C452 1.383 . S
C458 C457 1.379 . S
H459 C453 0.959 . S
H460 C453 0.961 . S
H461 C453 0.960 . S
H462 C454 0.930 . S
H463 C455 0.929 . S
H464 C472 0.929 . S
H465 C474 0.930 . S
H466 C476 0.930 . S
H467 C479 0.929 . S
H468 C482 0.930 . S
H469 C484 0.960 . S
H470 C484 0.960 . S
H471 C484 0.960 . S
C472 H464 0.929 . S
C472 C473 1.377 . S
C472 C474 1.384 . S
C473 C472 1.377 . S
C473 C479 1.390 . S
C474 H465 0.930 . S
C474 C472 1.384 . S
C474 C475 1.372 . S
C475 C474 1.372 . S
C475 C476 1.400 . S
C475 C480 1.490 . S
C476 H466 0.930 . S
C476 C475 1.400 . S
C476 C479 1.386 . S
H477 C493 0.930 . S
H478 C494 0.931 . S
C479 H467 0.929 . S
C479 C473 1.390 . S
C479 C476 1.386 . S
C480 C475 1.490 . S
C480 C482 1.395 . S
C480 C483 1.403 . S
H481 C487 0.930 . S
C482 H468 0.930 . S
C482 C480 1.395 . S
C482 C485 1.403 . S
C483 C480 1.403 . S
C483 C484 1.524 . S
C483 C487 1.400 . S
C484 H469 0.960 . S
C484 H470 0.960 . S
C484 H471 0.960 . S
C484 C483 1.524 . S
C485 C482 1.403 . S
C485 C486 1.392 . S
C485 C489 1.495 . S
C486 C485 1.392 . S
C486 C487 1.385 . S
C486 C488 1.478 . S
C487 H481 0.930 . S
C487 C483 1.400 . S
C487 C486 1.385 . S
C488 C486 1.478 . S
C488 C490 1.381 . S
C488 C494 1.383 . S
C489 C485 1.495 . S
C489 H495 0.959 . S
C489 H496 0.961 . S
C489 H497 0.960 . S
C490 C488 1.381 . S
C490 C491 1.394 . S
C490 H498 0.930 . S
C491 C490 1.394 . S
C491 C492 1.383 . S
C491 H499 0.929 . S
C492 C491 1.383 . S
C492 C493 1.377 . S
C493 H477 0.930 . S
C493 C492 1.377 . S
C493 C494 1.379 . S
C494 H478 0.931 . S
C494 C488 1.383 . S
C494 C493 1.379 . S
H495 C489 0.959 . S
H496 C489 0.961 . S
H497 C489 0.960 . S
H498 C490 0.930 . S
H499 C491 0.929 . S
H500 C508 0.929 . S
H501 C510 0.930 . S
H502 C512 0.930 . S
H503 C515 0.929 . S
H504 C518 0.930 . S
H505 C520 0.960 . S
H506 C520 0.960 . S
H507 C520 0.960 . S
C508 H500 0.929 . S
C508 C509 1.377 . S
C508 C510 1.384 . S
C509 C508 1.377 . S
C509 C515 1.390 . S
C510 H501 0.930 . S
C510 C508 1.384 . S
C510 C511 1.372 . S
C511 C510 1.372 . S
C511 C512 1.400 . S
C511 C516 1.490 . S
C512 H502 0.930 . S
C512 C511 1.400 . S
C512 C515 1.386 . S
H513 C529 0.930 . S
H514 C530 0.931 . S
C515 H503 0.929 . S
C515 C509 1.390 . S
C515 C512 1.386 . S
C516 C511 1.490 . S
C516 C518 1.395 . S
C516 C519 1.403 . S
H517 C523 0.930 . S
C518 H504 0.930 . S
C518 C516 1.395 . S
C518 C521 1.403 . S
C519 C516 1.403 . S
C519 C520 1.524 . S
C519 C523 1.400 . S
C520 H505 0.960 . S
C520 H506 0.960 . S
C520 H507 0.960 . S
C520 C519 1.524 . S
C521 C518 1.403 . S
C521 C522 1.392 . S
C521 C525 1.495 . S
C522 C521 1.392 . S
C522 C523 1.385 . S
C522 C524 1.478 . S
C523 H517 0.930 . S
C523 C519 1.400 . S
C523 C522 1.385 . S
C524 C522 1.478 . S
C524 C526 1.381 . S
C524 C530 1.383 . S
C525 C521 1.495 . S
C525 H531 0.959 . S
C525 H532 0.961 . S
C525 H533 0.960 . S
C526 C524 1.381 . S
C526 C527 1.394 . S
C526 H534 0.930 . S
C527 C526 1.394 . S
C527 C528 1.383 . S
C527 H535 0.929 . S
C528 C527 1.383 . S
C528 C529 1.377 . S
C529 H513 0.930 . S
C529 C528 1.377 . S
C529 C530 1.379 . S
C530 H514 0.931 . S
C530 C524 1.383 . S
C530 C529 1.379 . S
H531 C525 0.959 . S
H532 C525 0.961 . S
H533 C525 0.960 . S
H534 C526 0.930 . S
H535 C527 0.929 . S
H536 C544 0.929 . S
H537 C546 0.930 . S
H538 C548 0.930 . S
H539 C551 0.926 1_554 S
H540 C554 0.930 . S
H541 C556 0.960 . S
H542 C556 0.960 1_554 S
H543 C556 0.960 . S
C544 H536 0.929 . S
C544 C545 1.369 1_565 S
C544 C546 1.384 1_554 S
C545 C544 1.369 1_545 S
C545 C551 1.391 1_554 S
C546 H537 0.930 . S
C546 C544 1.384 1_556 S
C546 C547 1.329 1_565 S
C547 C546 1.329 1_545 S
C547 C548 1.446 . S
C547 C552 1.489 . S
C548 H538 0.930 . S
C548 C547 1.446 . S
C548 C551 1.397 . S
H549 C565 0.930 . S
H550 C566 0.931 . S
C551 H539 0.926 1_556 S
C551 C545 1.391 1_556 S
C551 C548 1.397 . S
C552 C547 1.489 . S
C552 C554 1.395 1_545 S
C552 C555 1.403 . S
H553 C559 0.930 . S
C554 H540 0.930 . S
C554 C552 1.395 1_565 S
C554 C557 1.403 . S
C555 C552 1.403 . S
C555 C556 1.524 . S
C555 C559 1.400 . S
C556 H541 0.960 . S
C556 H542 0.960 1_556 S
C556 H543 0.960 . S
C556 C555 1.524 . S
C557 C554 1.403 . S
C557 C558 1.392 1_565 S
C557 C561 1.495 . S
C558 C557 1.392 1_545 S
C558 C559 1.385 . S
C558 C560 1.478 . S
C559 H553 0.930 . S
C559 C555 1.400 . S
C559 C558 1.385 . S
C560 C558 1.478 . S
C560 C562 1.381 1_545 S
C560 C566 1.383 . S
C561 C557 1.495 . S
C561 H567 0.959 . S
C561 H568 0.961 . S
C561 H569 0.960 . S
C562 C560 1.381 1_565 S
C562 C563 1.394 . S
C562 H570 0.930 . S
C563 C562 1.394 . S
C563 C564 1.383 1_565 S
C563 H571 0.929 . S
C564 C563 1.383 1_545 S
C564 C565 1.377 . S
C565 H549 0.930 . S
C565 C564 1.377 . S
C565 C566 1.379 . S
C566 H550 0.931 . S
C566 C560 1.383 . S
C566 C565 1.379 . S
H567 C561 0.959 . S
H568 C561 0.961 . S
H569 C561 0.960 . S
H570 C562 0.930 . S
H571 C563 0.929 . S
H572 C580 0.929 . S
H573 C582 0.930 . S
H574 C584 0.930 . S
H575 C587 0.929 . S
H576 C590 0.930 . S
H577 C592 0.960 . S
H578 C592 0.960 . S
H579 C592 0.960 . S
C580 H572 0.929 . S
C580 C581 1.377 1_556 S
C580 C582 1.384 . S
C581 C580 1.377 1_554 S
C581 C587 1.390 . S
C582 H573 0.930 . S
C582 C580 1.384 . S
C582 C583 1.372 . S
C583 C582 1.372 . S
C583 C584 1.399 1_556 S
C583 C588 1.490 . S
C584 H574 0.930 . S
C584 C583 1.399 1_554 S
C584 C587 1.386 . S
H585 C601 0.930 . S
H586 C602 0.931 . S
C587 H575 0.929 . S
C587 C581 1.390 . S
C587 C584 1.386 . S
C588 C583 1.490 . S
C588 C590 1.395 . S
C588 C591 1.403 . S
H589 C595 0.930 . S
C590 H576 0.930 . S
C590 C588 1.395 . S
C590 C593 1.403 . S
C591 C588 1.403 . S
C591 C592 1.524 . S
C591 C595 1.400 . S
C592 H577 0.960 . S
C592 H578 0.960 . S
C592 H579 0.960 . S
C592 C591 1.524 . S
C593 C590 1.403 . S
C593 C594 1.392 . S
C593 C597 1.495 . S
C594 C593 1.392 . S
C594 C595 1.385 . S
C594 C596 1.478 . S
C595 H589 0.930 . S
C595 C591 1.400 . S
C595 C594 1.385 . S
C596 C594 1.478 . S
C596 C598 1.381 . S
C596 C602 1.383 . S
C597 C593 1.495 . S
C597 H603 0.959 . S
C597 H604 0.961 . S
C597 H605 0.960 . S
C598 C596 1.381 . S
C598 C599 1.394 . S
C598 H606 0.930 . S
C599 C598 1.394 . S
C599 C600 1.383 . S
C599 H607 0.929 . S
C600 C599 1.383 . S
C600 C601 1.377 . S
C601 H585 0.930 . S
C601 C600 1.377 . S
C601 C602 1.379 . S
C602 H586 0.931 . S
C602 C596 1.383 . S
C602 C601 1.379 . S
H603 C597 0.959 . S
H604 C597 0.961 . S
H605 C597 0.960 . S
H606 C598 0.930 . S
H607 C599 0.929 . S
H608 C616 0.929 . S
H609 C618 0.930 . S
H610 C620 0.930 . S
H611 C623 0.929 . S
H612 C626 0.930 . S
H613 C628 0.960 . S
H614 C628 0.960 . S
H615 C628 0.960 . S
C616 H608 0.929 . S
C616 C617 1.377 . S
C616 C618 1.384 . S
C617 C616 1.377 . S
C617 C623 1.390 1_556 S
C618 H609 0.930 . S
C618 C616 1.384 . S
C618 C619 1.372 . S
C619 C618 1.372 . S
C619 C620 1.400 . S
C619 C624 1.490 . S
C620 H610 0.930 . S
C620 C619 1.400 . S
C620 C623 1.386 1_556 S
H621 C637 0.930 . S
H622 C638 0.931 . S
C623 H611 0.929 . S
C623 C617 1.390 1_554 S
C623 C620 1.386 1_554 S
C624 C619 1.490 . S
C624 C626 1.395 . S
C624 C627 1.403 . S
H625 C631 0.930 . S
C626 H612 0.930 . S
C626 C624 1.395 . S
C626 C629 1.403 . S
C627 C624 1.403 . S
C627 C628 1.524 . S
C627 C631 1.400 . S
C628 H613 0.960 . S
C628 H614 0.960 . S
C628 H615 0.960 . S
C628 C627 1.524 . S
C629 C626 1.403 . S
C629 C630 1.392 . S
C629 C633 1.495 . S
C630 C629 1.392 . S
C630 C631 1.385 . S
C630 C632 1.478 . S
C631 H625 0.930 . S
C631 C627 1.400 . S
C631 C630 1.385 . S
C632 C630 1.478 . S
C632 C634 1.381 . S
C632 C638 1.383 . S
C633 C629 1.495 . S
C633 H639 0.959 . S
C633 H640 0.961 . S
C633 H641 0.960 . S
C634 C632 1.381 . S
C634 C635 1.394 . S
C634 H642 0.930 . S
C635 C634 1.394 . S
C635 C636 1.383 . S
C635 H643 0.929 . S
C636 C635 1.383 . S
C636 C637 1.377 . S
C637 H621 0.930 . S
C637 C636 1.377 . S
C637 C638 1.379 . S
C638 H622 0.931 . S
C638 C632 1.383 . S
C638 C637 1.379 . S
H639 C633 0.959 . S
H640 C633 0.961 . S
H641 C633 0.960 . S
H642 C634 0.930 . S
H643 C635 0.929 . S
H644 C652 0.929 1_554 S
H645 C654 0.930 . S
H646 C656 0.930 . S
H647 C659 0.929 . S
H648 C662 0.930 . S
H649 C664 0.960 . S
H650 C664 0.960 . S
H651 C664 0.960 . S
C652 H644 0.929 1_556 S
C652 C653 1.377 . S
C652 C654 1.384 . S
C653 C652 1.377 . S
C653 C659 1.390 . S
C654 H645 0.930 . S
C654 C652 1.384 . S
C654 C655 1.372 . S
C655 C654 1.372 . S
C655 C656 1.400 . S
C655 C660 1.490 . S
C656 H646 0.930 . S
C656 C655 1.400 . S
C656 C659 1.386 . S
H657 C673 0.930 . S
H658 C674 0.931 . S
C659 H647 0.929 . S
C659 C653 1.390 . S
C659 C656 1.386 . S
C660 C655 1.490 . S
C660 C662 1.395 . S
C660 C663 1.403 . S
H661 C667 0.930 . S
C662 H648 0.930 . S
C662 C660 1.395 . S
C662 C665 1.403 . S
C663 C660 1.403 . S
C663 C664 1.524 . S
C663 C667 1.400 . S
C664 H649 0.960 . S
C664 H650 0.960 . S
C664 H651 0.960 . S
C664 C663 1.524 . S
C665 C662 1.403 . S
C665 C666 1.392 . S
C665 C669 1.495 . S
C666 C665 1.392 . S
C666 C667 1.385 . S
C666 C668 1.478 . S
C667 H661 0.930 . S
C667 C663 1.400 . S
C667 C666 1.385 . S
C668 C666 1.478 . S
C668 C670 1.381 . S
C668 C674 1.383 . S
C669 C665 1.495 . S
C669 H675 0.959 . S
C669 H676 0.961 . S
C669 H677 0.960 . S
C670 C668 1.381 . S
C670 C671 1.394 . S
C670 H678 0.930 . S
C671 C670 1.394 . S
C671 C672 1.383 . S
C671 H679 0.929 . S
C672 C671 1.383 . S
C672 C673 1.377 . S
C673 H657 0.930 . S
C673 C672 1.377 . S
C673 C674 1.379 . S
C674 H658 0.931 . S
C674 C668 1.383 . S
C674 C673 1.379 . S
H675 C669 0.959 . S
H676 C669 0.961 . S
H677 C669 0.960 . S
H678 C670 0.930 . S
H679 C671 0.929 . S
H680 C688 0.929 . S
H681 C690 0.930 . S
H682 C692 0.930 . S
H683 C695 0.929 . S
H684 C698 0.930 . S
H685 C700 0.960 . S
H686 C700 0.960 . S
H687 C700 0.960 . S
C688 H680 0.929 . S
C688 C689 1.377 . S
C688 C690 1.384 . S
C689 C688 1.377 . S
C689 C695 1.390 . S
C690 H681 0.930 . S
C690 C688 1.384 . S
C690 C691 1.372 . S
C691 C690 1.372 . S
C691 C692 1.400 . S
C691 C696 1.490 . S
C692 H682 0.930 . S
C692 C691 1.400 . S
C692 C695 1.386 . S
H693 C709 0.930 . S
H694 C710 0.931 . S
C695 H683 0.929 . S
C695 C689 1.390 . S
C695 C692 1.386 . S
C696 C691 1.490 . S
C696 C698 1.395 . S
C696 C699 1.403 . S
H697 C703 0.930 . S
C698 H684 0.930 . S
C698 C696 1.395 . S
C698 C701 1.403 . S
C699 C696 1.403 . S
C699 C700 1.524 . S
C699 C703 1.400 . S
C700 H685 0.960 . S
C700 H686 0.960 . S
C700 H687 0.960 . S
C700 C699 1.524 . S
C701 C698 1.403 . S
C701 C702 1.392 . S
C701 C705 1.495 . S
C702 C701 1.392 . S
C702 C703 1.385 . S
C702 C704 1.478 . S
C703 H697 0.930 . S
C703 C699 1.400 . S
C703 C702 1.385 . S
C704 C702 1.478 . S
C704 C706 1.381 . S
C704 C710 1.383 . S
C705 C701 1.495 . S
C705 H711 0.959 . S
C705 H712 0.961 . S
C705 H713 0.960 . S
C706 C704 1.381 . S
C706 C707 1.394 . S
C706 H714 0.930 . S
C707 C706 1.394 . S
C707 C708 1.383 . S
C707 H715 0.929 . S
C708 C707 1.383 . S
C708 C709 1.377 . S
C709 H693 0.930 . S
C709 C708 1.377 . S
C709 C710 1.379 . S
C710 H694 0.931 . S
C710 C704 1.383 . S
C710 C709 1.379 . S
H711 C705 0.959 . S
H712 C705 0.961 . S
H713 C705 0.960 . S
H714 C706 0.930 . S
H715 C707 0.929 . S
H716 C724 0.929 . S
H717 C726 0.930 . S
H718 C728 0.930 . S
H719 C731 0.929 . S
H720 C734 0.930 . S
H721 C736 0.960 . S
H722 C736 0.960 . S
H723 C736 0.960 . S
C724 H716 0.929 . S
C724 C725 1.377 1_565 S
C724 C726 1.384 . S
C725 C724 1.377 1_545 S
C725 C731 1.390 . S
C726 H717 0.930 . S
C726 C724 1.384 . S
C726 C727 1.372 1_565 S
C727 C726 1.372 1_545 S
C727 C728 1.400 . S
C727 C732 1.490 . S
C728 H718 0.930 . S
C728 C727 1.400 . S
C728 C731 1.386 . S
H729 C745 0.930 . S
H730 C746 0.931 . S
C731 H719 0.929 . S
C731 C725 1.390 . S
C731 C728 1.386 . S
C732 C727 1.490 . S
C732 C734 1.395 1_545 S
C732 C735 1.403 . S
H733 C739 0.930 . S
C734 H720 0.930 . S
C734 C732 1.395 1_565 S
C734 C737 1.403 . S
C735 C732 1.403 . S
C735 C736 1.524 . S
C735 C739 1.400 . S
C736 H721 0.960 . S
C736 H722 0.960 . S
C736 H723 0.960 . S
C736 C735 1.524 . S
C737 C734 1.403 . S
C737 C738 1.387 1_565 S
C737 C741 1.495 . S
C738 C737 1.387 1_545 S
C738 C739 1.392 . S
C738 C740 1.476 1_545 S
C739 H733 0.930 . S
C739 C735 1.400 . S
C739 C738 1.392 . S
C740 C738 1.476 1_565 S
C740 C742 1.381 . S
C740 C746 1.383 1_565 S
C741 C737 1.495 . S
C741 H747 0.959 . S
C741 H748 0.961 . S
C741 H749 0.960 . S
C742 C740 1.381 . S
C742 C743 1.394 . S
C742 H750 0.930 . S
C743 C742 1.394 . S
C743 C744 1.367 1_565 S
C743 H751 0.929 . S
C744 C743 1.367 1_545 S
C744 C745 1.395 . S
C745 H729 0.930 . S
C745 C744 1.395 . S
C745 C746 1.379 . S
C746 H730 0.931 . S
C746 C740 1.383 1_545 S
C746 C745 1.379 . S
H747 C741 0.959 . S
H748 C741 0.961 . S
H749 C741 0.960 . S
H750 C742 0.930 . S
H751 C743 0.929 . S
H752 C760 0.929 . S
H753 C762 0.930 . S
H754 C764 0.930 . S
H755 C767 0.929 . S
H756 C770 0.930 . S
H757 C772 0.960 . S
H758 C772 0.960 . S
H759 C772 0.960 . S
C760 H752 0.929 . S
C760 C761 1.377 . S
C760 C762 1.384 . S
C761 C760 1.377 . S
C761 C767 1.390 . S
C762 H753 0.930 . S
C762 C760 1.384 . S
C762 C763 1.372 . S
C763 C762 1.372 . S
C763 C764 1.400 . S
C763 C768 1.490 . S
C764 H754 0.930 . S
C764 C763 1.400 . S
C764 C767 1.386 . S
H765 C781 0.930 . S
H766 C782 0.931 . S
C767 H755 0.929 . S
C767 C761 1.390 . S
C767 C764 1.386 . S
C768 C763 1.490 . S
C768 C770 1.395 . S
C768 C771 1.403 . S
H769 C775 0.930 . S
C770 H756 0.930 . S
C770 C768 1.395 . S
C770 C773 1.403 . S
C771 C768 1.403 . S
C771 C772 1.524 . S
C771 C775 1.400 . S
C772 H757 0.960 . S
C772 H758 0.960 . S
C772 H759 0.960 . S
C772 C771 1.524 . S
C773 C770 1.403 . S
C773 C774 1.392 . S
C773 C777 1.495 . S
C774 C773 1.392 . S
C774 C775 1.385 . S
C774 C776 1.478 . S
C775 H769 0.930 . S
C775 C771 1.400 . S
C775 C774 1.385 . S
C776 C774 1.478 . S
C776 C778 1.381 . S
C776 C782 1.383 . S
C777 C773 1.495 . S
C777 H783 0.959 . S
C777 H784 0.961 . S
C777 H785 0.960 . S
C778 C776 1.381 . S
C778 C779 1.394 . S
C778 H786 0.930 . S
C779 C778 1.394 . S
C779 C780 1.383 . S
C779 H787 0.929 . S
C780 C779 1.383 . S
C780 C781 1.377 . S
C781 H765 0.930 . S
C781 C780 1.377 . S
C781 C782 1.379 . S
C782 H766 0.931 . S
C782 C776 1.383 . S
C782 C781 1.379 . S
H783 C777 0.959 . S
H784 C777 0.961 . S
H785 C777 0.960 . S
H786 C778 0.930 . S
H787 C779 0.929 . S
H788 C796 0.929 . S
H789 C798 0.930 . S
H790 C800 0.930 . S
H791 C803 0.929 . S
H792 C806 0.930 . S
H793 C808 0.960 . S
H794 C808 0.960 . S
H795 C808 0.960 . S
C796 H788 0.929 . S
C796 C797 1.377 . S
C796 C798 1.384 . S
C797 C796 1.377 . S
C797 C803 1.390 . S
C798 H789 0.930 . S
C798 C796 1.384 . S
C798 C799 1.372 . S
C799 C798 1.372 . S
C799 C800 1.400 . S
C799 C804 1.490 . S
C800 H790 0.930 . S
C800 C799 1.400 . S
C800 C803 1.386 . S
H801 C817 0.930 . S
H802 C818 0.931 . S
C803 H791 0.929 . S
C803 C797 1.390 . S
C803 C800 1.386 . S
C804 C799 1.490 . S
C804 C806 1.395 . S
C804 C807 1.403 . S
H805 C811 0.930 . S
C806 H792 0.930 . S
C806 C804 1.395 . S
C806 C809 1.403 . S
C807 C804 1.403 . S
C807 C808 1.524 . S
C807 C811 1.400 . S
C808 H793 0.960 . S
C808 H794 0.960 . S
C808 H795 0.960 . S
C808 C807 1.524 . S
C809 C806 1.403 . S
C809 C810 1.392 . S
C809 C813 1.495 . S
C810 C809 1.392 . S
C810 C811 1.385 . S
C810 C812 1.478 . S
C811 H805 0.930 . S
C811 C807 1.400 . S
C811 C810 1.385 . S
C812 C810 1.478 . S
C812 C814 1.381 . S
C812 C818 1.383 . S
C813 C809 1.495 . S
C813 H819 0.959 . S
C813 H820 0.961 . S
C813 H821 0.960 . S
C814 C812 1.381 . S
C814 C815 1.394 . S
C814 H822 0.930 . S
C815 C814 1.394 . S
C815 C816 1.383 . S
C815 H823 0.929 . S
C816 C815 1.383 . S
C816 C817 1.377 . S
C817 H801 0.930 . S
C817 C816 1.377 . S
C817 C818 1.379 . S
C818 H802 0.931 . S
C818 C812 1.383 . S
C818 C817 1.379 . S
H819 C813 0.959 . S
H820 C813 0.961 . S
H821 C813 0.960 . S
H822 C814 0.930 . S
H823 C815 0.929 . S
H824 C832 0.929 . S
H825 C834 0.930 . S
H826 C836 0.930 . S
H827 C839 0.929 . S
H828 C842 0.930 . S
H829 C844 0.960 . S
H830 C844 0.960 . S
H831 C844 0.960 . S
C832 H824 0.929 . S
C832 C833 1.377 . S
C832 C834 1.384 . S
C833 C832 1.377 . S
C833 C839 1.390 . S
C834 H825 0.930 . S
C834 C832 1.384 . S
C834 C835 1.372 . S
C835 C834 1.372 . S
C835 C836 1.400 . S
C835 C840 1.490 . S
C836 H826 0.930 . S
C836 C835 1.400 . S
C836 C839 1.386 . S
H837 C853 0.930 . S
H838 C854 0.931 . S
C839 H827 0.929 . S
C839 C833 1.390 . S
C839 C836 1.386 . S
C840 C835 1.490 . S
C840 C842 1.395 . S
C840 C843 1.403 . S
H841 C847 0.930 . S
C842 H828 0.930 . S
C842 C840 1.395 . S
C842 C845 1.403 . S
C843 C840 1.403 . S
C843 C844 1.524 . S
C843 C847 1.400 . S
C844 H829 0.960 . S
C844 H830 0.960 . S
C844 H831 0.960 . S
C844 C843 1.524 . S
C845 C842 1.403 . S
C845 C846 1.392 . S
C845 C849 1.495 . S
C846 C845 1.392 . S
C846 C847 1.385 . S
C846 C848 1.478 . S
C847 H841 0.930 . S
C847 C843 1.400 . S
C847 C846 1.385 . S
C848 C846 1.478 . S
C848 C850 1.381 . S
C848 C854 1.383 . S
C849 C845 1.495 . S
C849 H855 0.959 . S
C849 H856 0.961 . S
C849 H857 0.960 . S
C850 C848 1.381 . S
C850 C851 1.394 . S
C850 H858 0.930 . S
C851 C850 1.394 . S
C851 C852 1.383 . S
C851 H859 0.894 1_655 S
C852 C851 1.383 . S
C852 C853 1.377 . S
C853 H837 0.930 . S
C853 C852 1.377 . S
C853 C854 1.379 . S
C854 H838 0.931 . S
C854 C848 1.383 . S
C854 C853 1.379 . S
H855 C849 0.959 . S
H856 C849 0.961 . S
H857 C849 0.960 . S
H858 C850 0.930 . S
H859 C851 0.894 1_455 S
H860 C868 0.929 . S
H861 C870 0.930 . S
H862 C872 0.930 . S
H863 C875 0.929 . S
H864 C878 0.930 . S
H865 C880 0.960 . S
H866 C880 0.960 . S
H867 C880 0.960 . S
C868 H860 0.929 . S
C868 C869 1.391 . S
C868 C870 1.384 . S
C869 C868 1.391 . S
C869 C875 1.374 1_565 S
C870 H861 0.930 . S
C870 C868 1.384 . S
C870 C871 1.372 1_565 S
C871 C870 1.372 1_545 S
C871 C872 1.399 . S
C871 C876 1.488 . S
C872 H862 0.930 . S
C872 C871 1.399 . S
C872 C875 1.386 . S
H873 C889 0.930 . S
H874 C890 0.931 . S
C875 H863 0.929 . S
C875 C869 1.374 1_545 S
C875 C872 1.386 . S
C876 C871 1.488 . S
C876 C878 1.386 1_545 S
C876 C879 1.414 . S
H877 C883 0.930 . S
C878 H864 0.930 . S
C878 C876 1.386 1_565 S
C878 C881 1.403 . S
C879 C876 1.414 . S
C879 C880 1.524 . S
C879 C883 1.400 . S
C880 H865 0.960 . S
C880 H866 0.960 . S
C880 H867 0.960 . S
C880 C879 1.524 . S
C881 C878 1.403 . S
C881 C882 1.377 1_565 S
C881 C885 1.495 . S
C882 C881 1.377 1_545 S
C882 C883 1.398 . S
C882 C884 1.482 . S
C883 H877 0.930 . S
C883 C879 1.400 . S
C883 C882 1.398 . S
C884 C882 1.482 . S
C884 C886 1.381 1_545 S
C884 C890 1.383 . S
C885 C881 1.495 . S
C885 H891 0.959 . S
C885 H892 0.961 . S
C885 H893 0.960 . S
C886 C884 1.381 1_565 S
C886 C887 1.394 . S
C886 H894 0.930 . S
C887 C886 1.394 . S
C887 C888 1.383 1_565 S
C887 H895 0.929 . S
C888 C887 1.383 1_545 S
C888 C889 1.377 . S
C889 H873 0.930 . S
C889 C888 1.377 . S
C889 C890 1.379 . S
C890 H874 0.931 . S
C890 C884 1.383 . S
C890 C889 1.379 . S
H891 C885 0.959 . S
H892 C885 0.961 . S
H893 C885 0.960 . S
H894 C886 0.930 . S
H895 C887 0.929 . S
H896 C904 0.929 . S
H897 C906 0.930 . S
H898 C908 0.930 . S
H899 C911 0.929 . S
H900 C914 0.930 . S
H901 C916 0.960 . S
H902 C916 0.960 . S
H903 C916 0.960 . S
C904 H896 0.929 . S
C904 C905 1.377 . S
C904 C906 1.384 . S
C905 C904 1.377 . S
C905 C911 1.390 . S
C906 H897 0.930 . S
C906 C904 1.384 . S
C906 C907 1.372 . S
C907 C906 1.372 . S
C907 C908 1.400 . S
C907 C912 1.490 . S
C908 H898 0.930 . S
C908 C907 1.400 . S
C908 C911 1.386 . S
H909 C925 0.930 . S
H910 C926 0.931 . S
C911 H899 0.929 . S
C911 C905 1.390 . S
C911 C908 1.386 . S
C912 C907 1.490 . S
C912 C914 1.395 . S
C912 C915 1.403 . S
H913 C919 0.930 . S
C914 H900 0.930 . S
C914 C912 1.395 . S
C914 C917 1.403 . S
C915 C912 1.403 . S
C915 C916 1.524 . S
C915 C919 1.400 . S
C916 H901 0.960 . S
C916 H902 0.960 . S
C916 H903 0.960 . S
C916 C915 1.524 . S
C917 C914 1.403 . S
C917 C918 1.392 . S
C917 C921 1.495 . S
C918 C917 1.392 . S
C918 C919 1.385 . S
C918 C920 1.478 . S
C919 H913 0.930 . S
C919 C915 1.400 . S
C919 C918 1.385 . S
C920 C918 1.478 . S
C920 C922 1.381 . S
C920 C926 1.383 . S
C921 C917 1.495 . S
C921 H927 0.959 . S
C921 H928 0.961 . S
C921 H929 0.960 . S
C922 C920 1.381 . S
C922 C923 1.394 . S
C922 H930 0.930 . S
C923 C922 1.394 . S
C923 C924 1.383 . S
C923 H931 0.929 . S
C924 C923 1.383 . S
C924 C925 1.377 . S
C925 H909 0.930 . S
C925 C924 1.377 . S
C925 C926 1.379 . S
C926 H910 0.931 . S
C926 C920 1.383 . S
C926 C925 1.379 . S
H927 C921 0.959 . S
H928 C921 0.961 . S
H929 C921 0.960 . S
H930 C922 0.930 . S
H931 C923 0.929 . S
H932 C940 0.929 . S
H933 C942 0.930 . S
H934 C944 0.930 . S
H935 C947 0.929 . S
H936 C950 0.930 . S
H937 C952 0.960 . S
H938 C952 0.960 . S
H939 C952 0.960 . S
C940 H932 0.929 . S
C940 C941 1.377 . S
C940 C942 1.384 . S
C941 C940 1.377 . S
C941 C947 1.390 . S
C942 H933 0.930 . S
C942 C940 1.384 . S
C942 C943 1.372 . S
C943 C942 1.372 . S
C943 C944 1.400 . S
C943 C948 1.490 . S
C944 H934 0.930 . S
C944 C943 1.400 . S
C944 C947 1.386 . S
H945 C961 0.930 . S
H946 C962 0.931 . S
C947 H935 0.929 . S
C947 C941 1.390 . S
C947 C944 1.386 . S
C948 C943 1.490 . S
C948 C950 1.395 . S
C948 C951 1.403 . S
H949 C955 0.930 . S
C950 H936 0.930 . S
C950 C948 1.395 . S
C950 C953 1.403 . S
C951 C948 1.403 . S
C951 C952 1.524 . S
C951 C955 1.400 . S
C952 H937 0.960 . S
C952 H938 0.960 . S
C952 H939 0.960 . S
C952 C951 1.524 . S
C953 C950 1.403 . S
C953 C954 1.392 . S
C953 C957 1.495 . S
C954 C953 1.392 . S
C954 C955 1.385 . S
C954 C956 1.478 . S
C955 H949 0.930 . S
C955 C951 1.400 . S
C955 C954 1.385 . S
C956 C954 1.478 . S
C956 C958 1.381 . S
C956 C962 1.383 . S
C957 C953 1.495 . S
C957 H963 0.959 . S
C957 H964 0.961 . S
C957 H965 0.960 . S
C958 C956 1.381 . S
C958 C959 1.394 . S
C958 H966 0.930 . S
C959 C958 1.394 . S
C959 C960 1.383 . S
C959 H967 0.929 . S
C960 C959 1.383 . S
C960 C961 1.377 . S
C961 H945 0.930 . S
C961 C960 1.377 . S
C961 C962 1.379 . S
C962 H946 0.931 . S
C962 C956 1.383 . S
C962 C961 1.379 . S
H963 C957 0.959 . S
H964 C957 0.961 . S
H965 C957 0.960 . S
H966 C958 0.930 . S
H967 C959 0.929 . S
H968 C976 0.929 . S
H969 C978 0.930 . S
H970 C980 0.930 1_556 S
H971 C983 0.929 . S
H972 C986 0.930 1_554 S
H973 C988 0.960 . S
H974 C988 0.960 . S
H975 C988 0.960 . S
C976 H968 0.929 . S
C976 C977 1.377 . S
C976 C978 1.384 . S
C977 C976 1.377 . S
C977 C983 1.390 . S
C978 H969 0.930 . S
C978 C976 1.384 . S
C978 C979 1.370 1_554 S
C979 C978 1.370 1_556 S
C979 C980 1.400 1_556 S
C979 C984 1.492 . S
C980 H970 0.930 1_554 S
C980 C979 1.400 1_554 S
C980 C983 1.386 . S
H981 C997 0.930 . S
H982 C998 0.931 . S
C983 H971 0.929 . S
C983 C977 1.390 . S
C983 C980 1.386 . S
C984 C979 1.492 . S
C984 C986 1.395 . S
C984 C987 1.403 . S
H985 C991 0.930 . S
C986 H972 0.930 1_556 S
C986 C984 1.395 . S
C986 C989 1.403 . S
C987 C984 1.403 . S
C987 C988 1.524 . S
C987 C991 1.400 . S
C988 H973 0.960 . S
C988 H974 0.960 . S
C988 H975 0.960 . S
C988 C987 1.524 . S
C989 C986 1.403 . S
C989 C990 1.392 . S
C989 C993 1.495 1_556 S
C990 C989 1.392 . S
C990 C991 1.385 . S
C990 C992 1.478 . S
C991 H985 0.930 . S
C991 C987 1.400 . S
C991 C990 1.385 . S
C992 C990 1.478 . S
C992 C994 1.381 . S
C992 C998 1.383 . S
C993 C989 1.495 1_554 S
C993 H999 0.959 . S
C993 H1000 0.961 . S
C993 H1001 0.960 1_554 S
C994 C992 1.381 . S
C994 C995 1.394 . S
C994 H1002 0.930 . S
C995 C994 1.394 . S
C995 C996 1.383 . S
C995 H1003 0.929 . S
C996 C995 1.383 . S
C996 C997 1.377 . S
C997 H981 0.930 . S
C997 C996 1.377 . S
C997 C998 1.379 . S
C998 H982 0.931 . S
C998 C992 1.383 . S
C998 C997 1.379 . S
H999 C993 0.959 . S
H1000 C993 0.961 . S
H1001 C993 0.960 1_556 S
H1002 C994 0.930 . S
H1003 C995 0.929 . S
H1004 C1012 0.929 . S
H1005 C1014 0.930 . S
H1006 C1016 0.930 . S
H1007 C1019 0.929 . S
H1008 C1022 0.930 . S
H1009 C1024 0.960 . S
H1010 C1024 0.960 . S
H1011 C1024 0.960 . S
C1012 H1004 0.929 . S
C1012 C1013 1.377 . S
C1012 C1014 1.384 . S
C1013 C1012 1.377 . S
C1013 C1019 1.390 1_554 S
C1014 H1005 0.930 . S
C1014 C1012 1.384 . S
C1014 C1015 1.372 1_554 S
C1015 C1014 1.372 1_556 S
C1015 C1016 1.400 . S
C1015 C1020 1.490 . S
C1016 H1006 0.930 . S
C1016 C1015 1.400 . S
C1016 C1019 1.386 . S
H1017 C1033 0.930 . S
H1018 C1034 0.931 . S
C1019 H1007 0.929 . S
C1019 C1013 1.390 1_556 S
C1019 C1016 1.386 . S
C1020 C1015 1.490 . S
C1020 C1022 1.395 1_545 S
C1020 C1023 1.403 . S
H1021 C1027 0.930 . S
C1022 H1008 0.930 . S
C1022 C1020 1.395 1_565 S
C1022 C1025 1.403 . S
C1023 C1020 1.403 . S
C1023 C1024 1.524 . S
C1023 C1027 1.400 . S
C1024 H1009 0.960 . S
C1024 H1010 0.960 . S
C1024 H1011 0.960 . S
C1024 C1023 1.524 . S
C1025 C1022 1.403 . S
C1025 C1026 1.392 1_565 S
C1025 C1029 1.495 . S
C1026 C1025 1.392 1_545 S
C1026 C1027 1.385 . S
C1026 C1028 1.478 . S
C1027 H1021 0.930 . S
C1027 C1023 1.400 . S
C1027 C1026 1.385 . S
C1028 C1026 1.478 . S
C1028 C1030 1.381 . S
C1028 C1034 1.383 1_545 S
C1029 C1025 1.495 . S
C1029 H1035 0.959 . S
C1029 H1036 0.961 . S
C1029 H1037 0.960 . S
C1030 C1028 1.381 . S
C1030 C1031 1.394 . S
C1030 H1038 0.930 . S
C1031 C1030 1.394 . S
C1031 C1032 1.383 . S
C1031 H1039 0.929 . S
C1032 C1031 1.383 . S
C1032 C1033 1.376 1_545 S
C1033 H1017 0.930 . S
C1033 C1032 1.376 1_565 S
C1033 C1034 1.379 . S
C1034 H1018 0.931 . S
C1034 C1028 1.383 1_565 S
C1034 C1033 1.379 . S
H1035 C1029 0.959 . S
H1036 C1029 0.961 . S
H1037 C1029 0.960 . S
H1038 C1030 0.930 . S
H1039 C1031 0.929 . S
H1040 C1048 0.929 . S
H1041 C1050 0.930 . S
H1042 C1052 0.930 . S
H1043 C1055 0.929 . S
H1044 C1058 0.929 1_554 S
H1045 C1060 0.960 . S
H1046 C1060 0.960 . S
H1047 C1060 0.960 . S
C1048 H1040 0.929 . S
C1048 C1049 1.377 . S
C1048 C1050 1.384 . S
C1049 C1048 1.377 . S
C1049 C1055 1.390 1_554 S
C1050 H1041 0.930 . S
C1050 C1048 1.384 . S
C1050 C1051 1.372 1_554 S
C1051 C1050 1.372 1_556 S
C1051 C1052 1.400 . S
C1051 C1056 1.490 . S
C1052 H1042 0.930 . S
C1052 C1051 1.400 . S
C1052 C1055 1.386 . S
H1053 C1069 0.930 . S
H1054 C1070 0.931 . S
C1055 H1043 0.929 . S
C1055 C1049 1.390 1_556 S
C1055 C1052 1.386 . S
C1056 C1051 1.490 . S
C1056 C1058 1.395 . S
C1056 C1059 1.403 . S
H1057 C1063 0.930 . S
C1058 H1044 0.929 1_556 S
C1058 C1056 1.395 . S
C1058 C1061 1.403 . S
C1059 C1056 1.403 . S
C1059 C1060 1.524 . S
C1059 C1063 1.400 . S
C1060 H1045 0.960 . S
C1060 H1046 0.960 . S
C1060 H1047 0.960 . S
C1060 C1059 1.524 . S
C1061 C1058 1.403 . S
C1061 C1062 1.392 . S
C1061 C1065 1.495 . S
C1062 C1061 1.392 . S
C1062 C1063 1.385 . S
C1062 C1064 1.478 . S
C1063 H1057 0.930 . S
C1063 C1059 1.400 . S
C1063 C1062 1.385 . S
C1064 C1062 1.478 . S
C1064 C1066 1.381 . S
C1064 C1070 1.383 . S
C1065 C1061 1.495 . S
C1065 H1071 0.959 1_556 S
C1065 H1072 0.961 . S
C1065 H1073 0.960 . S
C1066 C1064 1.381 . S
C1066 C1067 1.394 . S
C1066 H1074 0.930 . S
C1067 C1066 1.394 . S
C1067 C1068 1.383 . S
C1067 H1075 0.929 . S
C1068 C1067 1.383 . S
C1068 C1069 1.377 . S
C1069 H1053 0.930 . S
C1069 C1068 1.377 . S
C1069 C1070 1.379 . S
C1070 H1054 0.931 . S
C1070 C1064 1.383 . S
C1070 C1069 1.379 . S
H1071 C1065 0.959 1_554 S
H1072 C1065 0.961 . S
H1073 C1065 0.960 . S
H1074 C1066 0.930 . S
H1075 C1067 0.929 . S
H1076 C1084 0.929 . S
H1077 C1086 0.930 . S
H1078 C1088 0.930 . S
H1079 C1091 0.929 . S
H1080 C1094 0.930 . S
H1081 C1096 0.960 . S
H1082 C1096 0.960 . S
H1083 C1096 0.960 . S
C1084 H1076 0.929 . S
C1084 C1085 1.377 . S
C1084 C1086 1.384 . S
C1085 C1084 1.377 . S
C1085 C1091 1.390 1_554 S
C1086 H1077 0.930 . S
C1086 C1084 1.384 . S
C1086 C1087 1.372 1_554 S
C1087 C1086 1.372 1_556 S
C1087 C1088 1.400 . S
C1087 C1092 1.490 . S
C1088 H1078 0.930 . S
C1088 C1087 1.400 . S
C1088 C1091 1.386 . S
H1089 C1105 0.930 . S
H1090 C1106 0.931 . S
C1091 H1079 0.929 . S
C1091 C1085 1.390 1_556 S
C1091 C1088 1.386 . S
C1092 C1087 1.490 . S
C1092 C1094 1.395 . S
C1092 C1095 1.403 . S
H1093 C1099 0.930 . S
C1094 H1080 0.930 . S
C1094 C1092 1.395 . S
C1094 C1097 1.403 . S
C1095 C1092 1.403 . S
C1095 C1096 1.524 . S
C1095 C1099 1.400 . S
C1096 H1081 0.960 . S
C1096 H1082 0.960 . S
C1096 H1083 0.960 . S
C1096 C1095 1.524 . S
C1097 C1094 1.403 . S
C1097 C1098 1.392 . S
C1097 C1101 1.495 . S
C1098 C1097 1.392 . S
C1098 C1099 1.385 . S
C1098 C1100 1.478 . S
C1099 H1093 0.930 . S
C1099 C1095 1.400 . S
C1099 C1098 1.385 . S
C1100 C1098 1.478 . S
C1100 C1102 1.381 . S
C1100 C1106 1.383 . S
C1101 C1097 1.495 . S
C1101 H1107 0.959 . S
C1101 H1108 0.961 . S
C1101 H1109 0.960 . S
C1102 C1100 1.381 . S
C1102 C1103 1.394 . S
C1102 H1110 0.930 . S
C1103 C1102 1.394 . S
C1103 C1104 1.383 . S
C1103 H1111 0.929 . S
C1104 C1103 1.383 . S
C1104 C1105 1.377 . S
C1105 H1089 0.930 . S
C1105 C1104 1.377 . S
C1105 C1106 1.379 . S
C1106 H1090 0.931 . S
C1106 C1100 1.383 . S
C1106 C1105 1.379 . S
H1107 C1101 0.959 . S
H1108 C1101 0.961 . S
H1109 C1101 0.960 . S
H1110 C1102 0.930 . S
H1111 C1103 0.929 . S
H1112 C1120 0.929 . S
H1113 C1122 0.930 . S
H1114 C1124 0.930 . S
H1115 C1127 0.929 . S
H1116 C1130 0.930 . S
H1117 C1132 0.960 . S
H1118 C1132 0.960 . S
H1119 C1132 0.960 . S
C1120 H1112 0.929 . S
C1120 C1121 1.377 . S
C1120 C1122 1.384 . S
C1121 C1120 1.377 . S
C1121 C1127 1.390 . S
C1122 H1113 0.930 . S
C1122 C1120 1.384 . S
C1122 C1123 1.372 . S
C1123 C1122 1.372 . S
C1123 C1124 1.400 . S
C1123 C1128 1.490 . S
C1124 H1114 0.930 . S
C1124 C1123 1.400 . S
C1124 C1127 1.386 . S
H1125 C1141 0.930 . S
H1126 C1142 0.931 . S
C1127 H1115 0.929 . S
C1127 C1121 1.390 . S
C1127 C1124 1.386 . S
C1128 C1123 1.490 . S
C1128 C1130 1.395 . S
C1128 C1131 1.403 . S
H1129 C1135 0.930 . S
C1130 H1116 0.930 . S
C1130 C1128 1.395 . S
C1130 C1133 1.403 . S
C1131 C1128 1.403 . S
C1131 C1132 1.524 . S
C1131 C1135 1.400 . S
C1132 H1117 0.960 . S
C1132 H1118 0.960 . S
C1132 H1119 0.960 . S
C1132 C1131 1.524 . S
C1133 C1130 1.403 . S
C1133 C1134 1.392 . S
C1133 C1137 1.495 . S
C1134 C1133 1.392 . S
C1134 C1135 1.385 . S
C1134 C1136 1.478 . S
C1135 H1129 0.930 . S
C1135 C1131 1.400 . S
C1135 C1134 1.385 . S
C1136 C1134 1.478 . S
C1136 C1138 1.381 . S
C1136 C1142 1.383 . S
C1137 C1133 1.495 . S
C1137 H1143 0.959 . S
C1137 H1144 0.961 . S
C1137 H1145 0.960 . S
C1138 C1136 1.381 . S
C1138 C1139 1.394 . S
C1138 H1146 0.930 . S
C1139 C1138 1.394 . S
C1139 C1140 1.383 . S
C1139 H1147 0.929 . S
C1140 C1139 1.383 . S
C1140 C1141 1.377 . S
C1141 H1125 0.930 . S
C1141 C1140 1.377 . S
C1141 C1142 1.379 . S
C1142 H1126 0.931 . S
C1142 C1136 1.383 . S
C1142 C1141 1.379 . S
H1143 C1137 0.959 . S
H1144 C1137 0.961 . S
H1145 C1137 0.960 . S
H1146 C1138 0.930 . S
H1147 C1139 0.929 . S
H1148 C1156 0.929 . S
H1149 C1158 0.930 . S
H1150 C1160 0.930 . S
H1151 C1163 0.929 . S
H1152 C1166 0.930 . S
H1153 C1168 0.960 . S
H1154 C1168 0.960 1_565 S
H1155 C1168 0.960 . S
C1156 H1148 0.929 . S
C1156 C1157 1.379 . S
C1156 C1158 1.384 . S
C1157 C1156 1.379 . S
C1157 C1163 1.388 1_565 S
C1158 H1149 0.930 . S
C1158 C1156 1.384 . S
C1158 C1159 1.405 . S
C1159 C1158 1.405 . S
C1159 C1160 1.369 1_565 S
C1159 C1164 1.490 . S
C1160 H1150 0.930 . S
C1160 C1159 1.369 1_545 S
C1160 C1163 1.386 . S
H1161 C1177 0.930 . S
H1162 C1178 0.931 . S
C1163 H1151 0.929 . S
C1163 C1157 1.388 1_545 S
C1163 C1160 1.386 . S
C1164 C1159 1.490 . S
C1164 C1166 1.404 . S
C1164 C1167 1.392 1_565 S
H1165 C1171 0.930 . S
C1166 H1152 0.930 . S
C1166 C1164 1.404 . S
C1166 C1169 1.403 . S
C1167 C1164 1.392 1_545 S
C1167 C1168 1.524 . S
C1167 C1171 1.400 . S
C1168 H1153 0.960 . S
C1168 H1154 0.960 1_545 S
C1168 H1155 0.960 . S
C1168 C1167 1.524 . S
C1169 C1166 1.403 . S
C1169 C1170 1.401 . S
C1169 C1173 1.495 . S
C1170 C1169 1.401 . S
C1170 C1171 1.379 1_565 S
C1170 C1172 1.475 1_565 S
C1171 H1165 0.930 . S
C1171 C1167 1.400 . S
C1171 C1170 1.379 1_545 S
C1172 C1170 1.475 1_545 S
C1172 C1174 1.380 1_545 S
C1172 C1178 1.384 . S
C1173 C1169 1.495 . S
C1173 H1179 0.959 . S
C1173 H1180 0.961 1_565 S
C1173 H1181 0.960 . S
C1174 C1172 1.380 1_565 S
C1174 C1175 1.394 . S
C1174 H1182 0.930 . S
C1175 C1174 1.394 . S
C1175 C1176 1.383 1_565 S
C1175 H1183 0.929 . S
C1176 C1175 1.383 1_545 S
C1176 C1177 1.377 . S
C1177 H1161 0.930 . S
C1177 C1176 1.377 . S
C1177 C1178 1.379 . S
C1178 H1162 0.931 . S
C1178 C1172 1.384 . S
C1178 C1177 1.379 . S
H1179 C1173 0.959 . S
H1180 C1173 0.961 1_545 S
H1181 C1173 0.960 . S
H1182 C1174 0.930 . S
H1183 C1175 0.929 . S
H1184 C1192 0.929 . S
H1185 C1194 0.930 . S
H1186 C1196 0.930 . S
H1187 C1199 0.929 . S
H1188 C1202 0.930 . S
H1189 C1204 0.960 . S
H1190 C1204 0.960 . S
H1191 C1204 0.960 . S
C1192 H1184 0.929 . S
C1192 C1193 1.377 . S
C1192 C1194 1.384 . S
C1193 C1192 1.377 . S
C1193 C1199 1.390 . S
C1194 H1185 0.930 . S
C1194 C1192 1.384 . S
C1194 C1195 1.372 . S
C1195 C1194 1.372 . S
C1195 C1196 1.400 . S
C1195 C1200 1.490 . S
C1196 H1186 0.930 . S
C1196 C1195 1.400 . S
C1196 C1199 1.386 . S
H1197 C1213 0.930 . S
H1198 C1214 0.931 . S
C1199 H1187 0.929 . S
C1199 C1193 1.390 . S
C1199 C1196 1.386 . S
C1200 C1195 1.490 . S
C1200 C1202 1.395 . S
C1200 C1203 1.403 . S
H1201 C1207 0.930 . S
C1202 H1188 0.930 . S
C1202 C1200 1.395 . S
C1202 C1205 1.403 . S
C1203 C1200 1.403 . S
C1203 C1204 1.524 . S
C1203 C1207 1.400 . S
C1204 H1189 0.960 . S
C1204 H1190 0.960 . S
C1204 H1191 0.960 . S
C1204 C1203 1.524 . S
C1205 C1202 1.403 . S
C1205 C1206 1.392 . S
C1205 C1209 1.495 . S
C1206 C1205 1.392 . S
C1206 C1207 1.385 . S
C1206 C1208 1.478 . S
C1207 H1201 0.930 . S
C1207 C1203 1.400 . S
C1207 C1206 1.385 . S
C1208 C1206 1.478 . S
C1208 C1210 1.381 . S
C1208 C1214 1.383 . S
C1209 C1205 1.495 . S
C1209 H1215 0.959 . S
C1209 H1216 0.961 . S
C1209 H1217 0.960 . S
C1210 C1208 1.381 . S
C1210 C1211 1.394 . S
C1210 H1218 0.930 . S
C1211 C1210 1.394 . S
C1211 C1212 1.383 . S
C1211 H1219 0.929 . S
C1212 C1211 1.383 . S
C1212 C1213 1.377 . S
C1213 H1197 0.930 . S
C1213 C1212 1.377 . S
C1213 C1214 1.379 . S
C1214 H1198 0.931 . S
C1214 C1208 1.383 . S
C1214 C1213 1.379 . S
H1215 C1209 0.959 . S
H1216 C1209 0.961 . S
H1217 C1209 0.960 . S
H1218 C1210 0.930 . S
H1219 C1211 0.929 . S
H1220 C1228 0.929 . S
H1221 C1230 0.930 . S
H1222 C1232 0.930 . S
H1223 C1235 0.929 . S
H1224 C1238 0.930 . S
H1225 C1240 0.960 . S
H1226 C1240 0.960 . S
H1227 C1240 0.960 . S
C1228 H1220 0.929 . S
C1228 C1229 1.377 . S
C1228 C1230 1.384 . S
C1229 C1228 1.377 . S
C1229 C1235 1.390 . S
C1230 H1221 0.930 . S
C1230 C1228 1.384 . S
C1230 C1231 1.372 . S
C1231 C1230 1.372 . S
C1231 C1232 1.400 . S
C1231 C1236 1.490 . S
C1232 H1222 0.930 . S
C1232 C1231 1.400 . S
C1232 C1235 1.386 . S
H1233 C1249 0.930 . S
H1234 C1250 0.931 . S
C1235 H1223 0.929 . S
C1235 C1229 1.390 . S
C1235 C1232 1.386 . S
C1236 C1231 1.490 . S
C1236 C1238 1.395 . S
C1236 C1239 1.403 . S
H1237 C1243 0.930 . S
C1238 H1224 0.930 . S
C1238 C1236 1.395 . S
C1238 C1241 1.403 . S
C1239 C1236 1.403 . S
C1239 C1240 1.524 . S
C1239 C1243 1.400 . S
C1240 H1225 0.960 . S
C1240 H1226 0.960 . S
C1240 H1227 0.960 . S
C1240 C1239 1.524 . S
C1241 C1238 1.403 . S
C1241 C1242 1.392 . S
C1241 C1245 1.495 . S
C1242 C1241 1.392 . S
C1242 C1243 1.385 . S
C1242 C1244 1.478 . S
C1243 H1237 0.930 . S
C1243 C1239 1.400 . S
C1243 C1242 1.385 . S
C1244 C1242 1.478 . S
C1244 C1246 1.381 . S
C1244 C1250 1.383 . S
C1245 C1241 1.495 . S
C1245 H1251 0.959 . S
C1245 H1252 0.961 . S
C1245 H1253 0.960 . S
C1246 C1244 1.381 . S
C1246 C1247 1.394 . S
C1246 H1254 0.930 . S
C1247 C1246 1.394 . S
C1247 C1248 1.383 . S
C1247 H1255 0.929 . S
C1248 C1247 1.383 . S
C1248 C1249 1.377 . S
C1249 H1233 0.930 . S
C1249 C1248 1.377 . S
C1249 C1250 1.379 . S
C1250 H1234 0.931 . S
C1250 C1244 1.383 . S
C1250 C1249 1.379 . S
H1251 C1245 0.959 . S
H1252 C1245 0.961 . S
H1253 C1245 0.960 . S
H1254 C1246 0.930 . S
H1255 C1247 0.929 . S
C401 C255 1.464 . S
C420 C313 1.467 1_545 S
C456 C348 2.233 . S
C437 C294 2.119 . S
C492 C353 1.352 . S
C473 C177 1.330 . S
C528 C373 1.858 . S
C509 C216 1.767 . S
C564 C321 1.491 . S
C545 C99 1.473 1_545 S
C581 C138 2.101 . S
C600 C338 2.227 . S
C617 C21 1.320 1_556 S
C636 C361 1.337 . S
C653 C60 1.786 . S
C672 C381 1.857 . S
C708 C331 1.160 . S
C689 C196 1.102 . S
C744 C340 0.374 1_545 S
C725 C235 0.426 . S
C780 C371 1.368 . S
C761 C289 1.294 . S
C797 C157 0.661 . S
C816 C391 0.645 . S
C833 C40 1.094 . S
C852 C320 1.158 . S
C888 C351 0.468 . S
C869 C79 0.425 . S
C924 C360 1.373 . S
C905 C133 1.284 . S
C941 C1 0.669 . S
C960 C380 0.656 . S
C977 C211 2.092 . S
C996 C318 2.192 . S
C1013 C250 1.602 . S
C1032 C341 1.721 . S
C1068 C358 2.326 . S
C1049 C274 2.185 . S
C1104 C378 2.018 . S
C1085 C172 1.904 . S
C1121 C55 2.087 . S
C1140 C328 2.205 . S
C1176 C333 1.725 . S
C1157 C94 1.602 1_565 S
C1212 C368 2.335 . S
C1193 C118 2.168 . S
C1229 C16 1.917 . S
C1248 C388 2.014 . S
