# Generated by pormake.
# Topology pyr, (3,6)-cn, num edge types: 1
# Building blocks:
#     Node 0, Type 0, BuildingBlock: CUQRIR_clean_linker_1, # of connection points: 3
#     Node 1, Type 0, BuildingBlock: CUQRIR_clean_linker_1, # of connection points: 3
#     Node 2, Type 0, BuildingBlock: CUQRIR_clean_linker_1, # of connection points: 3
#     Node 3, Type 0, BuildingBlock: CUQRIR_clean_linker_1, # of connection points: 3
#     Node 4, Type 0, BuildingBlock: CUQRIR_clean_linker_1, # of connection points: 3
#     Node 5, Type 0, BuildingBlock: CUQRIR_clean_linker_1, # of connection points: 3
#     Node 6, Type 0, BuildingBlock: CUQRIR_clean_linker_1, # of connection points: 3
#     Node 7, Type 0, BuildingBlock: CUQRIR_clean_linker_1, # of connection points: 3
#     Node 8, Type 1, BuildingBlock: BETFAJ_clean_sbu_0, # of connection points: 6
#     Node 9, Type 1, BuildingBlock: BETFAJ_clean_sbu_0, # of connection points: 6
#     Node 10, Type 1, BuildingBlock: BETFAJ_clean_sbu_0, # of connection points: 6
#     Node 11, Type 1, BuildingBlock: BETFAJ_clean_sbu_0, # of connection points: 6
#     Edge 12, Type (0, 1), BuildingBlock: ZUJKAS_clean_linker_0, # of connection points: 2
#     Edge 13, Type (0, 1), BuildingBlock: ZUJKAS_clean_linker_0, # of connection points: 2
#     Edge 14, Type (0, 1), BuildingBlock: ZUJKAS_clean_linker_0, # of connection points: 2
#     Edge 15, Type (0, 1), BuildingBlock: ZUJKAS_clean_linker_0, # of connection points: 2
#     Edge 16, Type (0, 1), BuildingBlock: ZUJKAS_clean_linker_0, # of connection points: 2
#     Edge 17, Type (0, 1), BuildingBlock: ZUJKAS_clean_linker_0, # of connection points: 2
#     Edge 18, Type (0, 1), BuildingBlock: ZUJKAS_clean_linker_0, # of connection points: 2
#     Edge 19, Type (0, 1), BuildingBlock: ZUJKAS_clean_linker_0, # of connection points: 2
#     Edge 20, Type (0, 1), BuildingBlock: ZUJKAS_clean_linker_0, # of connection points: 2
#     Edge 21, Type (0, 1), BuildingBlock: ZUJKAS_clean_linker_0, # of connection points: 2
#     Edge 22, Type (0, 1), BuildingBlock: ZUJKAS_clean_linker_0, # of connection points: 2
#     Edge 23, Type (0, 1), BuildingBlock: ZUJKAS_clean_linker_0, # of connection points: 2
#     Edge 24, Type (0, 1), BuildingBlock: ZUJKAS_clean_linker_0, # of connection points: 2
#     Edge 25, Type (0, 1), BuildingBlock: ZUJKAS_clean_linker_0, # of connection points: 2
#     Edge 26, Type (0, 1), BuildingBlock: ZUJKAS_clean_linker_0, # of connection points: 2
#     Edge 27, Type (0, 1), BuildingBlock: ZUJKAS_clean_linker_0, # of connection points: 2
#     Edge 28, Type (0, 1), BuildingBlock: ZUJKAS_clean_linker_0, # of connection points: 2
#     Edge 29, Type (0, 1), BuildingBlock: ZUJKAS_clean_linker_0, # of connection points: 2
#     Edge 30, Type (0, 1), BuildingBlock: ZUJKAS_clean_linker_0, # of connection points: 2
#     Edge 31, Type (0, 1), BuildingBlock: ZUJKAS_clean_linker_0, # of connection points: 2
#     Edge 32, Type (0, 1), BuildingBlock: ZUJKAS_clean_linker_0, # of connection points: 2
#     Edge 33, Type (0, 1), BuildingBlock: ZUJKAS_clean_linker_0, # of connection points: 2
#     Edge 34, Type (0, 1), BuildingBlock: ZUJKAS_clean_linker_0, # of connection points: 2
#     Edge 35, Type (0, 1), BuildingBlock: ZUJKAS_clean_linker_0, # of connection points: 2
# Relax obj value: 0.156
# Max RMSD: 0.249
# Mean RMSD: 0.165
data_MOF--net-pyr--node1-BETFAJ_clean_sbu_0--node2-CUQRIR_clean_linker_1--edge1-ZUJKAS_clean_linker_0
_symmetry_space_group_name_H-M    P1
_symmetry_Int_Tables_number       1
_symmetry_cell_setting            triclinic
loop_
_symmetry_equiv_pos_as_xyz
'x, y, z'
_cell_length_a     46.411145
_cell_length_b     48.896512
_cell_length_c     43.858992
_cell_angle_alpha  90.651815
_cell_angle_beta   89.980684
_cell_angle_gamma 103.24339
loop_
_atom_site_label
_atom_site_type_symbol
_atom_site_fract_x
_atom_site_fract_y
_atom_site_fract_z
_atom_type_partial_charge
C0 C 0.32833 0.34098 0.22741 0.0
N1 N 0.34224 0.31966 0.23041 0.0
N2 N 0.33826 0.35637 0.20249 0.0
C3 C 0.30206 0.34428 0.24623 0.0
C4 C 0.35825 0.34329 0.19004 0.0
N5 N 0.36072 0.32094 0.20703 0.0
C6 C 0.37509 0.35242 0.16126 0.0
H7 H 0.28764 0.32347 0.25154 0.0
H8 H 0.28846 0.35689 0.23452 0.0
H9 H 0.31016 0.35492 0.26809 0.0
H10 H 0.37784 0.37534 0.15798 0.0
H11 H 0.36245 0.3413 0.14154 0.0
H12 H 0.39713 0.3472 0.16181 0.0
C13 C 0.36204 0.96153 0.58692 0.0
N14 N 0.34851 0.97126 0.61066 0.0
N15 N 0.38793 0.9559 0.59594 0.0
C16 C 0.35041 0.95804 0.55478 0.0
C17 C 0.3896 0.96248 0.62607 0.0
N18 N 0.36582 0.97222 0.6349 0.0
C19 C 0.41254 0.95608 0.64746 0.0
H20 H 0.33467 0.93731 0.55234 0.0
H21 H 0.36871 0.9589 0.53826 0.0
H22 H 0.33845 0.97461 0.54937 0.0
H23 H 0.43267 0.9734 0.64642 0.0
H24 H 0.4188 0.93632 0.64056 0.0
H25 H 0.40462 0.95408 0.67136 0.0
C26 C 0.63232 0.38214 0.85436 0.0
N27 N 0.64967 0.37866 0.87844 0.0
N28 N 0.64085 0.40845 0.84287 0.0
C29 C 0.6055 0.3607 0.84358 0.0
C30 C 0.66394 0.42093 0.86096 0.0
N31 N 0.66918 0.40306 0.8827 0.0
C32 C 0.68266 0.45004 0.85613 0.0
H33 H 0.61249 0.34647 0.82668 0.0
H34 H 0.58931 0.37094 0.83248 0.0
H35 H 0.59455 0.3479 0.86286 0.0
H36 H 0.67426 0.46505 0.87092 0.0
H37 H 0.68168 0.45651 0.83207 0.0
H38 H 0.70607 0.45119 0.8624 0.0
C39 C 0.84388 0.70313 0.35365 0.0
N40 N 0.87017 0.72135 0.34777 0.0
N41 N 0.82917 0.7127 0.37677 0.0
C42 C 0.83206 0.67642 0.33586 0.0
C43 C 0.84761 0.73754 0.38479 0.0
N44 N 0.87245 0.74295 0.36729 0.0
C45 C 0.84177 0.75622 0.41052 0.0
H46 H 0.83972 0.67852 0.31185 0.0
H47 H 0.80751 0.67072 0.33618 0.0
H48 H 0.84043 0.65916 0.34627 0.0
H49 H 0.82799 0.74377 0.42845 0.0
H50 H 0.82978 0.77156 0.40137 0.0
H51 H 0.86263 0.76819 0.42105 0.0
C52 C 0.69025 0.83145 0.87575 0.0
N53 N 0.7124 0.82528 0.85892 0.0
N54 N 0.6782 0.85058 0.86142 0.0
C55 C 0.68025 0.81879 0.90612 0.0
C56 C 0.69394 0.85587 0.83526 0.0
N57 N 0.71457 0.84031 0.83365 0.0
C58 C 0.69161 0.87883 0.81342 0.0
H59 H 0.68353 0.79705 0.90739 0.0
H60 H 0.65658 0.81862 0.91004 0.0
H61 H 0.69354 0.83154 0.92447 0.0
H62 H 0.68812 0.89759 0.82606 0.0
H63 H 0.67215 0.87119 0.79838 0.0
H64 H 0.7116 0.88508 0.79899 0.0
C65 C 0.73961 0.21896 0.52948 0.0
N66 N 0.74446 0.20069 0.50775 0.0
N67 N 0.71579 0.22919 0.52214 0.0
C68 C 0.75971 0.22875 0.55621 0.0
C69 C 0.70662 0.21674 0.495 0.0
N70 N 0.72419 0.19956 0.48616 0.0
C71 C 0.68178 0.22298 0.47622 0.0
H72 H 0.76366 0.21039 0.56876 0.0
H73 H 0.75024 0.2422 0.57205 0.0
H74 H 0.78142 0.24077 0.54775 0.0
H75 H 0.68986 0.24323 0.46439 0.0
H76 H 0.66302 0.22511 0.49096 0.0
H77 H 0.67364 0.2062 0.45901 0.0
C78 C 0.34903 0.72413 0.23958 0.0
N79 N 0.37452 0.74297 0.24698 0.0
N80 N 0.33498 0.73337 0.21604 0.0
C81 C 0.33815 0.69631 0.25496 0.0
C82 C 0.3529 0.75861 0.20936 0.0
N83 N 0.37696 0.76452 0.22798 0.0
C84 C 0.3464 0.77804 0.1852 0.0
H85 H 0.35685 0.68774 0.26316 0.0
H86 H 0.32425 0.68078 0.23927 0.0
H87 H 0.3246 0.6994 0.27501 0.0
H88 H 0.32226 0.77451 0.18097 0.0
H89 H 0.35736 0.77396 0.16369 0.0
H90 H 0.35514 0.80036 0.19177 0.0
C91 C 0.13778 0.39209 0.74019 0.0
N92 N 0.15618 0.38779 0.71727 0.0
N93 N 0.14654 0.4184 0.75249 0.0
C94 C 0.11 0.37125 0.74916 0.0
C95 C 0.17108 0.42994 0.73603 0.0
N96 N 0.1769 0.41157 0.7146 0.0
C97 C 0.18994 0.459 0.74143 0.0
H98 H 0.09325 0.38208 0.75834 0.0
H99 H 0.11547 0.35744 0.76711 0.0
H100 H 0.1004 0.35789 0.72939 0.0
H101 H 0.18875 0.46559 0.7656 0.0
H102 H 0.18172 0.47396 0.7268 0.0
H103 H 0.21339 0.46018 0.73541 0.0
Sm104 Sm 0.04081 0.07596 0.50321 0.0
Sm105 Sm 0.03137 0.05031 0.56467 0.0
C106 C 0.04723 0.10653 0.45322 0.0
C107 C 0.0735 0.12384 0.43878 0.0
C108 C 0.07088 0.13841 0.41202 0.0
C109 C 0.09628 0.15289 0.39694 0.0
C110 C 0.12459 0.15276 0.40835 0.0
C111 C 0.12701 0.13861 0.4356 0.0
C112 C 0.10165 0.12433 0.45073 0.0
C113 C 0.08758 0.05521 0.52426 0.0
C114 C 0.06021 0.11698 0.564 0.0
C115 C 0.02882 1.0185 0.61351 0.0
C116 C 1.00689 0.99465 0.62559 0.0
C117 C 1.01389 0.97983 0.65058 0.0
C118 C 0.99217 0.95869 0.66378 0.0
C119 C 0.96304 0.95219 0.65223 0.0
C120 C 0.95652 0.96654 0.62642 0.0
C121 C 0.97828 0.98751 0.61317 0.0
C122 C 0.98556 0.07294 0.54594 0.0
C123 C 1.00886 1.01022 0.50337 0.0
O124 O 0.03967 0.11569 0.47947 0.0
O125 O 0.04639 0.07967 0.4532 0.0
O126 O 0.07289 0.06892 0.53958 0.0
O127 O 0.07917 0.05337 0.49608 0.0
O128 O 0.04985 0.11534 0.53571 0.0
O129 O 0.06038 0.09368 0.57902 0.0
O130 O 0.04207 1.01382 0.5883 0.0
O131 O 0.02065 0.04236 0.6134 0.0
O132 O 0.9989 0.05887 0.52909 0.0
O133 O 0.99445 0.0734 0.57394 0.0
O134 O 0.01907 1.01114 0.5317 0.0
O135 O 1.00975 1.03386 0.48875 0.0
H136 H 0.04928 0.13807 0.40246 0.0
H137 H 0.09378 0.16343 0.37585 0.0
H138 H 0.14851 0.13845 0.4451 0.0
H139 H 0.10399 0.11313 0.47144 0.0
H140 H 0.03596 0.98503 0.66031 0.0
H141 H 0.99806 0.94776 0.68332 0.0
H142 H 0.9343 0.96242 0.61715 0.0
H143 H 0.97255 0.99879 0.59379 0.0
Sm144 Sm 0.55118 0.07859 0.0816 0.0
Sm145 Sm 0.49433 0.0701 0.05194 0.0
C146 C 0.60635 0.09023 0.10207 0.0
C147 C 0.62138 0.09573 0.1318 0.0
C148 C 0.61345 0.11439 0.15307 0.0
C149 C 0.62778 0.11918 0.18125 0.0
C150 C 0.65004 0.10519 0.18882 0.0
C151 C 0.65773 0.08631 0.16765 0.0
C152 C 0.64359 0.08173 0.1393 0.0
C153 C 0.50979 1.03529 0.10839 0.0
C154 C 0.50244 0.10655 0.11299 0.0
C155 C 0.44181 0.05577 1.02489 0.0
C156 C 0.42549 0.03684 1.00145 0.0
C157 C 0.39978 0.04283 0.98932 0.0
C158 C 0.38653 1.0286 0.96336 0.0
C159 C 0.39878 1.008 0.94903 0.0
C160 C 0.42371 1.00094 0.96238 0.0
C161 C 0.43707 1.01538 0.98833 0.0
C162 C 0.53075 0.12256 0.03995 0.0
C163 C 0.54269 0.04147 1.01872 0.0
O164 O 0.59314 0.10935 0.09207 0.0
O165 O 0.591 0.06461 0.09725 0.0
O166 O 0.51308 0.03927 0.07999 0.0
O167 O 0.52785 0.05503 0.12333 0.0
O168 O 0.53084 0.11136 0.10641 0.0
O169 O 0.48362 0.08605 0.09896 0.0
O170 O 0.44772 0.04492 0.05064 0.0
O171 O 0.46385 0.07511 1.01484 0.0
O172 O 0.53875 0.09949 0.03935 0.0
O173 O 0.50328 0.1184 0.04802 0.0
O174 O 0.51477 0.04303 1.01906 0.0
O175 O 0.56159 0.05482 0.03925 0.0
H176 H 0.5961 0.12519 0.14804 0.0
H177 H 0.62111 0.13352 0.19735 0.0
H178 H 0.67491 0.07535 0.1729 0.0
H179 H 0.64994 0.06719 0.12322 0.0
H180 H 0.39078 0.05958 0.99903 0.0
H181 H 0.36773 1.03499 0.95358 0.0
H182 H 0.43347 0.98492 0.95221 0.0
H183 H 0.45704 1.0106 0.99739 0.0
Sm184 Sm 0.49819 0.54402 0.52189 0.0
Sm185 Sm 0.49895 0.5901 0.56231 0.0
C186 C 0.5114 0.50167 0.49101 0.0
C187 C 0.53096 0.48281 0.49788 0.0
C188 C 0.55595 0.49208 0.51656 0.0
C189 C 0.57375 0.47379 0.52432 0.0
C190 C 0.56694 0.44588 0.51353 0.0
C191 C 0.54193 0.4367 0.49472 0.0
C192 C 0.52406 0.45504 0.487 0.0
C193 C 0.44436 0.53849 0.55158 0.0
C194 C 0.52314 0.54098 0.59198 0.0
C195 C 0.48793 0.63273 0.5943 0.0
C196 C 0.48618 0.6615 0.5866 0.0
C197 C 0.47129 0.6667 0.56021 0.0
C198 C 0.47109 0.69412 0.55207 0.0
C199 C 0.48571 0.71694 0.57024 0.0
C200 C 0.50062 0.71169 0.59671 0.0
C201 C 0.50086 0.68417 0.60479 0.0
C202 C 0.55278 0.59546 0.53258 0.0
C203 C 0.47577 0.59488 0.49106 0.0
O204 O 0.5245 0.52793 0.4866 0.0
O205 O 0.48793 0.49885 0.50812 0.0
O206 O 0.46962 0.54606 0.56404 0.0
O207 O 0.44711 0.53483 0.52243 0.0
O208 O 0.52642 0.5345 0.56303 0.0
O209 O 0.50826 0.56007 0.59878 0.0
O210 O 0.46712 0.61234 0.58318 0.0
O211 O 0.51423 0.6275 0.59241 0.0
O212 O 0.52751 0.58776 0.52032 0.0
O213 O 0.55007 0.60074 0.56132 0.0
O214 O 0.47622 0.60421 0.51953 0.0
O215 O 0.48525 0.57202 0.48475 0.0
H216 H 0.56161 0.51342 0.52537 0.0
H217 H 0.5926 0.48139 0.53916 0.0
H218 H 0.53633 0.41541 0.48573 0.0
H219 H 0.5048 0.44752 0.47267 0.0
H220 H 0.45992 0.64957 0.54578 0.0
H221 H 0.45966 0.69746 0.53139 0.0
H222 H 0.51171 0.72881 0.61142 0.0
H223 H 0.5126 0.68059 0.62516 0.0
Sm224 Sm 1.0056 0.53716 0.06605 0.0
Sm225 Sm 0.9964 0.59551 0.03434 0.0
C226 C 0.02462 0.49086 0.07479 0.0
C227 C 0.04814 0.48281 0.09243 0.0
C228 C 0.05369 0.4561 0.08807 0.0
C229 C 0.07879 0.44957 0.10092 0.0
C230 C 0.09887 0.46978 0.11822 0.0
C231 C 0.09259 0.49627 0.12343 0.0
C232 C 0.06739 0.50272 0.11063 0.0
C233 C 0.98582 0.57234 0.1084 0.0
C234 C 0.05783 0.59561 0.0736 0.0
C235 C 0.97964 0.64289 1.02555 0.0
C236 C 0.96293 0.65616 1.00402 0.0
C237 C 0.97051 0.68541 1.00098 0.0
C238 C 0.95305 0.69889 0.98331 0.0
C239 C 0.92754 0.68334 0.96845 0.0
C240 C 0.92073 0.65385 0.97053 0.0
C241 C 0.93831 0.64036 0.98815 0.0
C242 C 0.01878 0.56216 0.9923 0.0
C243 C 0.9436 0.53631 0.02787 0.0
O244 O 0.03414 0.50863 0.05294 0.0
O245 O 1.00237 0.49664 0.09002 0.0
O246 O 0.99121 0.57611 0.08033 0.0
O247 O 0.99067 0.54789 0.11508 0.0
O248 O 0.0505 0.56781 0.07504 0.0
O249 O 0.04022 0.61059 0.06152 0.0
O250 O 0.96421 0.6219 0.04129 0.0
O251 O 1.00543 0.6391 1.01655 0.0
O252 O 1.01201 0.55724 1.02 0.0
O253 O 1.01361 0.58655 0.98596 0.0
O254 O 0.95163 0.56402 1.02429 0.0
O255 O 0.96064 0.52168 0.04155 0.0
H256 H 0.03922 0.44063 0.07374 0.0
H257 H 0.08315 0.42911 0.09615 0.0
H258 H 0.10742 0.51216 0.13693 0.0
H259 H 0.06345 0.52353 0.11406 0.0
H260 H 0.98952 0.69791 1.01297 0.0
H261 H 0.95922 0.72157 0.98172 0.0
H262 H 0.90115 0.64126 0.95958 0.0
H263 H 0.93213 0.6177 0.99015 0.0
H264 H 0.33942 0.32063 0.29158 0.0
H265 H 0.30979 0.28374 0.32315 0.0
H266 H 0.29345 0.22817 0.24471 0.0
H267 H 0.32159 0.26579 0.21294 0.0
H268 H 0.24398 0.23385 0.26765 0.0
H269 H 0.31178 0.21168 0.36336 0.0
H270 H 0.31483 0.24876 0.36068 0.0
H271 H 0.3281 0.23019 0.3299 0.0
C272 C 0.33026 0.30018 0.28148 0.0
C273 C 0.33258 0.29593 0.25 0.0
C274 C 0.31356 0.279 0.29951 0.0
C275 C 0.29949 0.25303 0.28639 0.0
C276 C 0.30416 0.24798 0.25537 0.0
H277 H 0.17315 0.13185 0.3959 0.0
H278 H 0.21661 0.15372 0.36575 0.0
C279 C 0.32045 0.26934 0.23727 0.0
C280 C 0.27586 0.23358 0.30339 0.0
H281 H 0.25866 0.20324 0.37277 0.0
C282 C 0.24741 0.22669 0.29039 0.0
C283 C 0.28021 0.22396 0.33297 0.0
C284 C 0.31049 0.2288 0.34735 0.0
C285 C 0.22301 0.21173 0.30667 0.0
C286 C 0.22696 0.20418 0.33713 0.0
C287 C 0.25559 0.20962 0.34962 0.0
C288 C 0.20141 0.19145 0.35653 0.0
C289 C 0.19318 0.20442 0.29111 0.0
C290 C 0.17884 0.20574 0.36189 0.0
C291 C 0.154 0.19329 0.37894 0.0
C292 C 0.15149 0.1665 0.39133 0.0
C293 C 0.17459 0.15262 0.38678 0.0
C294 C 0.19936 0.16501 0.36952 0.0
H295 H 0.19548 0.20359 0.26591 0.0
H296 H 0.17981 0.18386 0.29885 0.0
H297 H 0.18092 0.22084 0.29662 0.0
H298 H 0.18038 0.2265 0.35271 0.0
H299 H 0.13678 0.20466 0.38253 0.0
H300 H 0.32087 0.94109 0.66673 0.0
H301 H 0.31358 0.9436 0.72223 0.0
H302 H 0.387 1.01586 0.72784 0.0
H303 H 0.39416 1.0131 0.67252 0.0
H304 H 0.36 0.93854 0.76298 0.0
H305 H 0.32332 0.03729 0.78376 0.0
H306 H 0.3191 1.01924 0.74725 0.0
H307 H 0.35423 0.04127 0.7582 0.0
C308 C 0.33468 0.95798 0.67989 0.0
C309 C 0.35789 0.97707 0.66579 0.0
C310 C 0.33066 0.95933 0.71143 0.0
C311 C 0.34958 0.98007 0.72904 0.0
C312 C 0.37181 1.00004 0.71459 0.0
H313 H 0.43092 0.99683 0.90004 0.0
H314 H 0.41343 0.98465 0.84821 0.0
C315 C 0.37596 0.9985 0.68315 0.0
C316 C 0.34881 0.97895 0.76273 0.0
H317 H 0.34605 1.01933 0.8261 0.0
C318 C 0.35633 0.95592 0.77688 0.0
C319 C 0.3438 1.00152 0.78076 0.0
C320 C 0.33438 1.02613 0.76677 0.0
C321 C 0.36086 0.95574 0.80849 0.0
C322 C 0.35793 0.97923 0.82623 0.0
C323 C 0.3485 1.00141 0.81236 0.0
C324 C 0.3674 0.98257 0.85851 0.0
C325 C 0.36965 0.93084 0.82256 0.0
C326 C 0.34722 0.98504 0.88158 0.0
C327 C 0.3571 0.99165 0.91147 0.0
C328 C 0.38744 0.99639 0.91868 0.0
C329 C 0.40737 0.99284 0.89559 0.0
C330 C 0.39743 0.98598 0.86584 0.0
H331 H 0.36299 0.91172 0.80794 0.0
H332 H 0.39407 0.93557 0.82529 0.0
H333 H 0.35953 0.92635 0.84545 0.0
H334 H 0.32395 0.98251 0.8763 0.0
H335 H 0.34106 0.9938 0.92874 0.0
H336 H 0.62092 0.45634 0.84272 0.0
H337 H 0.60096 0.47744 0.79928 0.0
H338 H 0.61369 0.40938 0.74127 0.0
H339 H 0.63309 0.38812 0.78498 0.0
H340 H 0.62514 0.49765 0.74694 0.0
H341 H 0.53025 0.40947 0.71908 0.0
H342 H 0.55137 0.41065 0.75377 0.0
H343 H 0.56499 0.3993 0.71849 0.0
C344 C 0.61928 0.44588 0.82069 0.0
C345 C 0.62839 0.4205 0.81728 0.0
C346 C 0.60786 0.45792 0.79581 0.0
C347 C 0.60519 0.4449 0.76681 0.0
C348 C 0.61459 0.41959 0.76339 0.0
H349 H 0.54984 0.49607 0.58777 0.0
H350 H 0.57037 0.47291 0.62921 0.0
C351 C 0.62583 0.40745 0.78836 0.0
C352 C 0.59351 0.45831 0.74017 0.0
H353 H 0.54114 0.44663 0.68336 0.0
C354 C 0.60668 0.48643 0.73319 0.0
C355 C 0.5694 0.4439 0.72189 0.0
C356 C 0.55298 0.41427 0.72881 0.0
C357 C 0.59673 0.50029 0.70863 0.0
C358 C 0.57267 0.48589 0.69042 0.0
C359 C 0.55965 0.45772 0.69713 0.0
C360 C 0.56019 0.5 0.665 0.0
C361 C 0.6124 0.53022 0.70206 0.0
C362 C 0.54725 0.52281 0.67111 0.0
C363 C 0.53535 0.53599 0.64748 0.0
C364 C 0.53609 0.52682 0.61697 0.0
C365 C 0.54897 0.50388 0.61087 0.0
C366 C 0.56069 0.49053 0.63462 0.0
H367 H 0.63466 0.53592 0.71285 0.0
H368 H 0.61487 0.53369 0.67713 0.0
H369 H 0.59911 0.54461 0.71132 0.0
H370 H 0.54609 0.53031 0.6943 0.0
H371 H 0.52556 0.55347 0.65321 0.0
H372 H 0.87956 0.74276 0.2909 0.0
H373 H 0.90249 0.72207 0.2483 0.0
H374 H 0.92865 0.66466 0.31056 0.0
H375 H 0.90576 0.68535 0.35279 0.0
H376 H 0.96173 0.70982 0.23589 0.0
H377 H 0.8726 0.61342 0.24828 0.0
H378 H 0.8705 0.6466 0.26556 0.0
H379 H 0.89282 0.62535 0.28269 0.0
C380 C 0.89142 0.72662 0.29561 0.0
C381 C 0.89152 0.71622 0.32541 0.0
C382 C 0.90421 0.71448 0.27117 0.0
C383 C 0.91705 0.69137 0.27588 0.0
C384 C 0.91873 0.6822 0.30601 0.0
H385 H 0.97539 0.56328 0.16886 0.0
H386 H 0.95973 0.59338 0.20717 0.0
C387 C 0.90607 0.69436 0.33032 0.0
C388 C 0.92654 0.67537 0.24945 0.0
H389 H 0.91126 0.6107 0.21412 0.0
C390 C 0.95058 0.6882 0.23101 0.0
C391 C 0.9121 0.64711 0.24273 0.0
C392 C 0.8854 0.63228 0.26062 0.0
C393 C 0.96117 0.67332 0.20708 0.0
C394 C 0.94693 0.64485 0.20061 0.0
C395 C 0.92249 0.63235 0.21876 0.0
C396 C 0.95754 0.62707 0.17633 0.0
C397 C 0.98831 0.68804 0.18982 0.0
C398 C 0.96171 0.63544 0.14558 0.0
C399 C 0.97106 0.61809 0.12338 0.0
C400 C 0.97607 0.59168 0.13116 0.0
C401 C 0.97174 0.58337 0.16181 0.0
C402 C 0.96266 0.60068 0.18391 0.0
H403 H 1.0013 0.7064 0.20282 0.0
H404 H 1.00291 0.67353 0.1846 0.0
H405 H 0.98138 0.69586 0.16799 0.0
H406 H 0.95734 0.65524 0.13854 0.0
H407 H 0.97424 0.62531 0.10016 0.0
H408 H 0.39807 0.30414 0.24562 0.0
H409 H 0.42674 0.26842 0.23576 0.0
H410 H 0.39055 0.25611 0.14471 0.0
H411 H 0.36192 0.2916 0.15472 0.0
H412 H 0.40615 0.21202 0.21963 0.0
H413 H 0.47977 0.26897 0.13016 0.0
H414 H 0.45823 0.28612 0.15509 0.0
H415 H 0.44122 0.26621 0.12246 0.0
C416 C 0.39658 0.29388 0.22348 0.0
C417 C 0.37843 0.30092 0.20067 0.0
C418 C 0.41283 0.27355 0.21787 0.0
C419 C 0.41121 0.26003 0.1893 0.0
C420 C 0.39276 0.26684 0.16663 0.0
H421 H 0.44495 0.10425 0.12863 0.0
H422 H 0.42513 0.14143 0.15217 0.0
C423 C 0.37652 0.28714 0.17226 0.0
C424 C 0.42802 0.23814 0.18338 0.0
H425 H 0.47771 0.21986 0.13435 0.0
C426 C 0.42206 0.21383 0.20122 0.0
C427 C 0.44913 0.24076 0.1597 0.0
C428 C 0.45773 0.26704 0.14094 0.0
C429 C 0.43572 0.19152 0.1951 0.0
C430 C 0.4555 0.19346 0.17025 0.0
C431 C 0.4624 0.21829 0.15329 0.0
C432 C 0.4679 0.1695 0.16006 0.0
C433 C 0.42872 0.16604 0.21522 0.0
C434 C 0.4986 0.17279 0.15677 0.0
C435 C 0.51005 0.15157 0.14307 0.0
C436 C 0.49095 0.12677 0.13219 0.0
C437 C 0.46031 0.12303 0.13681 0.0
C438 C 0.44891 0.14424 0.15047 0.0
H439 H 0.42141 0.17136 0.23822 0.0
H440 H 0.4104 0.15003 0.20482 0.0
H441 H 0.44819 0.15663 0.21778 0.0
H442 H 0.51365 0.19217 0.16391 0.0
H443 H 0.53375 0.15516 0.13983 0.0
H444 H 0.33766 1.0209 0.62751 0.0
H445 H 0.29099 1.03589 0.62041 0.0
H446 H 0.25008 0.95355 0.58463 0.0
H447 H 0.29645 0.9386 0.59245 0.0
H448 H 0.26544 0.03688 0.5636 0.0
H449 H 0.18661 0.96989 0.64201 0.0
H450 H 0.22626 0.97506 0.64582 0.0
H451 H 0.20635 0.95025 0.6183 0.0
C452 C 0.31838 1.00598 0.61884 0.0
C453 C 0.3204 0.97883 0.61014 0.0
C454 C 0.29189 1.01448 0.61471 0.0
C455 C 0.26706 0.99576 0.60218 0.0
C456 C 0.2688 0.96819 0.59478 0.0
H457 H 0.12574 1.03042 0.49291 0.0
H458 H 0.1694 1.01639 0.51317 0.0
C459 C 0.29527 0.95976 0.59889 0.0
C460 C 0.24044 1.00575 0.59371 0.0
H461 H 0.16538 0.99192 0.60188 0.0
C462 C 0.24359 1.02728 0.57223 0.0
C463 C 0.21204 0.99329 0.60515 0.0
C464 C 0.20758 0.97103 0.62933 0.0
C465 C 0.21895 1.0361 0.56112 0.0
C466 C 0.19041 1.02269 0.57144 0.0
C467 C 0.1873 1.00184 0.59371 0.0
C468 C 0.16354 1.03017 0.55938 0.0
C469 C 0.22365 0.05969 0.53845 0.0
C470 C 0.14547 0.0418 0.57886 0.0
C471 C 0.12059 0.04973 0.56738 0.0
C472 C 0.11333 0.04598 0.53627 0.0
C473 C 0.13102 1.03371 0.51692 0.0
C474 C 0.15596 1.02581 0.52843 0.0
H475 H 0.24686 0.07227 0.53878 0.0
H476 H 0.21878 0.05073 0.51516 0.0
H477 H 0.2086 0.07392 0.54317 0.0
H478 H 0.1509 0.04516 0.60284 0.0
H479 H 0.10716 0.05898 0.58283 0.0
H480 H 0.71694 0.38027 0.88391 0.0
H481 H 0.76329 0.39876 0.91232 0.0
H482 H 0.72326 0.46 0.95653 0.0
H483 H 0.67722 0.44144 0.92813 0.0
H484 H 0.79684 0.45433 0.9074 0.0
H485 H 0.76493 0.43101 0.02775 0.0
H486 H 0.74333 0.41327 0.99606 0.0
H487 H 0.7404 0.44796 1.00745 0.0
C488 C 0.71786 0.39698 0.90055 0.0
C489 C 0.69345 0.40916 0.90427 0.0
C490 C 0.74439 0.40777 0.91652 0.0
C491 C 0.74687 0.43073 0.93683 0.0
C492 C 0.72192 0.44201 0.94151 0.0
H493 H 0.9045 0.55642 0.99191 0.0
H494 H 0.85745 0.53038 0.97019 0.0
C495 C 0.69557 0.43138 0.92537 0.0
C496 C 0.77604 0.44449 0.95103 0.0
H497 H 0.81064 0.46416 1.01946 0.0
C498 C 0.79988 0.45628 0.93191 0.0
C499 C 0.78023 0.44703 0.98303 0.0
C500 C 0.75598 0.43394 1.00483 0.0
C501 C 0.82736 0.47101 0.94382 0.0
C502 C 0.83125 0.47436 0.9758 0.0
C503 C 0.80768 0.46194 0.99496 0.0
C504 C 0.85967 0.49048 0.9897 0.0
C505 C 0.85215 0.48271 0.92201 0.0
C506 C 0.87648 0.47702 1.00856 0.0
C507 C 0.9035 0.49187 1.02104 0.0
C508 C 0.91432 0.52072 1.01529 0.0
C509 C 0.89708 0.53427 0.99688 0.0
C510 C 0.87015 0.51934 0.98424 0.0
H511 H 0.84811 0.47273 0.89905 0.0
H512 H 0.85399 0.5056 0.91951 0.0
H513 H 0.87362 0.47966 0.93079 0.0
H514 H 0.8689 0.45483 1.01328 0.0
H515 H 0.91595 0.48062 0.03515 0.0
H516 H 0.78247 0.73616 0.38775 0.0
H517 H 0.73606 0.71486 0.41361 0.0
H518 H 0.76405 0.63688 0.42014 0.0
H519 H 0.81136 0.65893 0.39636 0.0
H520 H 0.6911 0.67469 0.40159 0.0
H521 H 0.74131 0.64346 0.50606 0.0
H522 H 0.76302 0.66528 0.47764 0.0
H523 H 0.75301 0.62764 0.47263 0.0
C524 C 0.77888 0.71461 0.39516 0.0
C525 C 0.80085 0.6994 0.39033 0.0
C526 C 0.75216 0.70229 0.40975 0.0
C527 C 0.74644 0.67427 0.41971 0.0
C528 C 0.76798 0.65873 0.41378 0.0
H529 H 0.56473 0.58537 0.47251 0.0
H530 H 0.61102 0.60278 0.44457 0.0
C531 C 0.79493 0.67122 0.39965 0.0
C532 C 0.71797 0.66149 0.43596 0.0
H533 H 0.68961 0.62529 0.49981 0.0
C534 C 0.69088 0.66397 0.42314 0.0
C535 C 0.71726 0.64779 0.46443 0.0
C536 C 0.74521 0.64613 0.48116 0.0
C537 C 0.6635 0.65328 0.43767 0.0
C538 C 0.66272 0.63858 0.46553 0.0
C539 C 0.68982 0.63615 0.47836 0.0
C540 C 0.63441 0.62678 0.48253 0.0
C541 C 0.63585 0.65887 0.42344 0.0
C542 C 0.63207 0.6331 0.51371 0.0
C543 C 0.60585 0.6225 0.5299 0.0
C544 C 0.58098 0.60543 0.51538 0.0
C545 C 0.58333 0.59868 0.48433 0.0
C546 C 0.6098 0.60893 0.46823 0.0
H547 H 0.64102 0.67734 0.40819 0.0
H548 H 0.6249 0.64038 0.40941 0.0
H549 H 0.62002 0.6627 0.44108 0.0
H550 H 0.6505 0.64663 0.52557 0.0
H551 H 0.60493 0.62813 0.55377 0.0
H552 H 0.30694 0.34993 0.15053 0.0
H553 H 0.27297 0.37868 0.13445 0.0
H554 H 0.30345 0.43664 0.20883 0.0
H555 H 0.33701 0.40731 0.22512 0.0
H556 H 0.24492 0.41697 0.21032 0.0
H557 H 0.27647 0.45267 0.09335 0.0
H558 H 0.27274 0.41552 0.09684 0.0
H559 H 0.30108 0.43944 0.11817 0.0
C560 C 0.30717 0.36945 0.16253 0.0
C561 C 0.32459 0.37674 0.18878 0.0
C562 C 0.2878 0.38589 0.15341 0.0
C563 C 0.28583 0.41001 0.17025 0.0
C564 C 0.30472 0.41823 0.19539 0.0
H565 H 0.15434 0.50432 0.11703 0.0
H566 H 0.2011 0.49313 0.13206 0.0
C567 C 0.32397 0.40169 0.20457 0.0
C568 C 0.26124 0.42402 0.16437 0.0
H569 H 0.22582 0.45103 0.10788 0.0
C570 C 0.24105 0.42488 0.18805 0.0
C571 C 0.25626 0.43456 0.13542 0.0
C572 C 0.27798 0.43578 0.10961 0.0
C573 C 0.21536 0.43474 0.18318 0.0
C574 C 0.20939 0.44347 0.1537 0.0
C575 C 0.23025 0.44396 0.13039 0.0
C576 C 0.18099 0.45085 0.14625 0.0
C577 C 0.19469 0.43543 0.2096 0.0
C578 C 0.1542 0.43078 0.14929 0.0
C579 C 0.12746 0.43715 0.14095 0.0
C580 C 0.127 0.46368 0.1292 0.0
C581 C 0.15388 0.48385 0.12646 0.0
C582 C 0.18063 0.47743 0.13479 0.0
H583 H 0.20643 0.43645 0.23181 0.0
H584 H 0.1843 0.4537 0.20815 0.0
H585 H 0.17686 0.41594 0.20919 0.0
H586 H 0.15402 0.40996 0.15759 0.0
H587 H 0.10716 0.42122 0.1435 0.0
H588 H 0.64751 0.32553 0.85924 0.0
H589 H 0.63185 0.28237 0.88884 0.0
H590 H 0.62701 0.33194 0.96975 0.0
H591 H 0.64239 0.37526 0.93985 0.0
H592 H 0.6518 0.2817 0.97872 0.0
H593 H 0.54401 0.25757 0.91761 0.0
H594 H 0.57618 0.26422 0.89357 0.0
H595 H 0.56868 0.29198 0.91724 0.0
C596 C 0.64347 0.32718 0.88343 0.0
C597 C 0.64592 0.35377 0.89716 0.0
C598 C 0.63443 0.30251 0.90034 0.0
C599 C 0.62769 0.30373 0.93151 0.0
C600 C 0.63193 0.33033 0.94574 0.0
H601 H 0.51292 0.17175 0.03587 0.0
H602 H 0.53787 0.21529 1.01112 0.0
C603 C 0.6409 0.35511 0.92871 0.0
C604 C 0.61449 0.27735 0.94852 0.0
H605 H 0.55313 0.22292 0.95097 0.0
C606 C 0.63024 0.26884 0.97266 0.0
C607 C 0.58617 0.26059 0.94095 0.0
C608 C 0.56757 0.26905 0.91612 0.0
C609 C 0.61865 0.24396 0.98902 0.0
C610 C 0.59056 0.2269 0.981 0.0
C611 C 0.57473 0.23569 0.9571 0.0
C612 C 0.57652 0.20046 0.99765 0.0
C613 C 0.63632 0.23644 1.01519 0.0
C614 C 0.58978 0.17727 0.99863 0.0
C615 C 0.57541 0.1521 1.01287 0.0
C616 C 0.54738 0.14951 1.02635 0.0
C617 C 0.53444 0.17288 1.02571 0.0
C618 C 0.54871 0.19789 1.01148 0.0
H619 H 0.65369 0.25474 1.02313 0.0
H620 H 0.62171 0.22837 0.0347 0.0
H621 H 0.64739 0.21969 1.00764 0.0
H622 H 0.61094 0.17835 0.98774 0.0
H623 H 0.58598 0.13452 1.01283 0.0
H624 H 0.87548 0.79266 0.34038 0.0
H625 H 0.90331 0.83846 0.35966 0.0
H626 H 0.94668 0.79641 0.42525 0.0
H627 H 0.91948 0.75084 0.40503 0.0
H628 H 0.89759 0.85939 0.41332 0.0
H629 H 0.01573 0.85721 0.40393 0.0
H630 H 0.9871 0.83181 0.38453 0.0
H631 H 0.99515 0.82742 0.42413 0.0
C632 C 0.89227 0.79329 0.35767 0.0
C633 C 0.89604 0.76806 0.37038 0.0
C634 C 0.90782 0.81954 0.36921 0.0
C635 C 0.92754 0.82141 0.39402 0.0
C636 C 0.93245 0.79607 0.40565 0.0
H637 H 1.00874 0.9567 0.52316 0.0
H638 H 0.98939 0.91165 0.49677 0.0
C639 C 0.91705 0.76983 0.39387 0.0
C640 C 0.94032 0.84942 0.40952 0.0
H641 H 1.00433 0.89218 0.43759 0.0
C642 C 0.92102 0.86657 0.41824 0.0
C643 C 0.9709 0.85917 0.41646 0.0
C644 C 0.99344 0.84307 0.4065 0.0
C645 C 0.93113 0.89247 0.43384 0.0
C646 C 0.9616 0.90206 0.44098 0.0
C647 C 0.98096 0.885 0.43236 0.0
C648 C 0.97368 0.92977 0.45709 0.0
C649 C 0.90888 0.90912 0.44323 0.0
C650 C 0.97169 0.95533 0.44374 0.0
C651 C 0.98288 0.98121 0.45876 0.0
C652 C 0.99638 0.98242 0.48772 0.0
C653 C 0.99841 0.95679 0.50104 0.0
C654 C 0.9874 0.9309 0.48586 0.0
H655 H 0.8859 0.89604 0.4428 0.0
H656 H 0.91377 0.91819 0.46649 0.0
H657 H 0.91006 0.92671 0.42717 0.0
H658 H 0.96167 0.95532 0.42144 0.0
H659 H 0.98096 1.00033 0.44755 0.0
H660 H 0.36756 0.90507 0.57053 0.0
H661 H 0.3973 0.87289 0.55255 0.0
H662 H 0.47702 0.93688 0.5686 0.0
H663 H 0.44692 0.9692 0.58681 0.0
H664 H 0.44294 0.87326 0.50836 0.0
H665 H 0.48226 0.87412 0.62871 0.0
H666 H 0.45202 0.88962 0.61826 0.0
H667 H 0.48936 0.90703 0.60905 0.0
C668 C 0.39135 0.91251 0.56917 0.0
C669 C 0.40512 0.93941 0.57997 0.0
C670 C 0.40833 0.89417 0.559 0.0
C671 C 0.43933 0.90244 0.55962 0.0
C672 C 0.45312 0.93006 0.56829 0.0
H673 H 0.53036 0.76462 0.5731 0.0
H674 H 0.52651 0.81302 0.56391 0.0
C675 C 0.43604 0.94844 0.57857 0.0
C676 C 0.4565 0.88075 0.55526 0.0
H677 H 0.49062 0.83858 0.59655 0.0
C678 C 0.45404 0.86603 0.52738 0.0
C679 C 0.47105 0.87148 0.58012 0.0
C680 C 0.47381 0.88618 0.61082 0.0
C681 C 0.46409 0.84119 0.5243 0.0
C682 C 0.47641 0.83071 0.54992 0.0
C683 C 0.48108 0.84667 0.57698 0.0
C684 C 0.4803 0.80156 0.55091 0.0
C685 C 0.46036 0.82583 0.49404 0.0
C686 C 0.4556 0.77917 0.54669 0.0
C687 C 0.45764 0.75166 0.55217 0.0
C688 C 0.4844 0.746 0.56223 0.0
C689 C 0.50936 0.76838 0.56571 0.0
C690 C 0.50729 0.79597 0.56019 0.0
H691 H 0.46141 0.84072 0.4749 0.0
H692 H 0.47757 0.81362 0.49059 0.0
H693 H 0.43829 0.81108 0.49325 0.0
H694 H 0.4343 0.78305 0.54055 0.0
H695 H 0.43788 0.73497 0.5498 0.0
H696 H 0.77143 0.86242 0.84738 0.0
H697 H 0.81319 0.87278 0.81177 0.0
H698 H 0.75444 0.83795 0.73771 0.0
H699 H 0.71255 0.82806 0.7736 0.0
H700 H 0.83749 0.83932 0.77258 0.0
H701 H 0.79092 0.9171 0.70877 0.0
H702 H 0.77602 0.90304 0.74478 0.0
H703 H 0.76761 0.88234 0.71044 0.0
C704 C 0.76769 0.85678 0.82352 0.0
C705 C 0.73911 0.84457 0.81293 0.0
C706 C 0.7914 0.86265 0.80325 0.0
C707 C 0.78683 0.85646 0.77205 0.0
C708 C 0.75833 0.84335 0.76161 0.0
H709 H 0.91618 0.91367 0.62721 0.0
H710 H 0.87345 0.88553 0.65405 0.0
C711 C 0.73455 0.83761 0.78195 0.0
C712 C 0.81182 0.865 0.75059 0.0
H713 H 0.83718 0.91046 0.69292 0.0
C714 C 0.83734 0.85466 0.75495 0.0
C715 C 0.81153 0.88503 0.72761 0.0
C716 C 0.78519 0.89776 0.72266 0.0
C717 C 0.86286 0.86434 0.73742 0.0
C718 C 0.86286 0.88501 0.71518 0.0
C719 C 0.83699 0.8945 0.70995 0.0
C720 C 0.89013 0.89911 0.69908 0.0
C721 C 0.88977 0.85271 0.7431 0.0
C722 C 0.91365 0.9159 0.71557 0.0
C723 C 0.93786 0.93227 0.70036 0.0
C724 C 0.93901 0.9322 0.6683 0.0
C725 C 0.91583 0.91452 0.65189 0.0
C726 C 0.8915 0.89828 0.66716 0.0
H727 H 0.88379 0.83188 0.75423 0.0
H728 H 0.90159 0.85062 0.72149 0.0
H729 H 0.90521 0.8673 0.75847 0.0
H730 H 0.91268 0.91732 0.7402 0.0
H731 H 0.95497 0.94599 0.71375 0.0
H732 H 0.72889 0.22352 0.43112 0.0
H733 H 0.72392 0.19946 0.38146 0.0
H734 H 0.71546 0.11992 0.42637 0.0
H735 H 0.71946 0.1442 0.47627 0.0
H736 H 0.75561 0.16464 0.35279 0.0
H737 H 0.63926 0.10811 0.37619 0.0
H738 H 0.6587 0.13671 0.40004 0.0
H739 H 0.66692 0.10267 0.40263 0.0
C740 C 0.72584 0.2009 0.43021 0.0
C741 C 0.72372 0.18547 0.45718 0.0
C742 C 0.72329 0.18721 0.40199 0.0
C743 C 0.71878 0.15786 0.40028 0.0
C744 C 0.71831 0.14252 0.42724 0.0
H745 H 0.66077 0.06621 0.22889 0.0
H746 H 0.68215 0.07489 0.28029 0.0
C747 C 0.72071 0.15629 0.45559 0.0
C748 C 0.71294 0.1437 0.37019 0.0
H749 H 0.6573 0.1041 0.32691 0.0
C750 C 0.7343 0.15101 0.34721 0.0
C751 C 0.68512 0.12586 0.36304 0.0
C752 C 0.66103 0.11794 0.38662 0.0
C753 C 0.72807 0.14204 0.31696 0.0
C754 C 0.69972 0.12556 0.30956 0.0
C755 C 0.67902 0.11677 0.33279 0.0
C756 C 0.68978 0.12013 0.27761 0.0
C757 C 0.75152 0.15097 0.29296 0.0
C758 C 0.68701 0.1427 0.25927 0.0
C759 C 0.67468 0.13783 0.23017 0.0
C760 C 0.66493 0.11026 0.21887 0.0
C761 C 0.66837 0.08767 0.23698 0.0
C762 C 0.68049 0.09257 0.26628 0.0
H763 H 0.77407 0.15606 0.30313 0.0
H764 H 0.75035 0.13428 0.27531 0.0
H765 H 0.74796 0.1701 0.28163 0.0
H766 H 0.69355 0.1641 0.26786 0.0
H767 H 0.67247 0.15562 0.21661 0.0
H768 H 0.37094 0.75584 0.30639 0.0
H769 H 0.39265 0.73482 0.34872 0.0
H770 H 0.44102 0.69556 0.28413 0.0
H771 H 0.41988 0.71743 0.24217 0.0
H772 H 0.38264 0.68099 0.35964 0.0
H773 H 0.50385 0.71749 0.34722 0.0
H774 H 0.47826 0.73373 0.32726 0.0
H775 H 0.48664 0.70184 0.31268 0.0
C776 C 0.3875 0.744 0.30148 0.0
C777 C 0.39453 0.73911 0.27104 0.0
C778 C 0.39954 0.7315 0.32564 0.0
C779 C 0.41885 0.71357 0.32002 0.0
C780 C 0.42697 0.7098 0.28955 0.0
H781 H 0.48335 0.5898 0.42902 0.0
H782 H 0.46961 0.61834 0.38818 0.0
C783 C 0.41506 0.72251 0.26543 0.0
C784 C 0.4278 0.69667 0.34549 0.0
H785 H 0.48696 0.67748 0.37893 0.0
C786 C 0.40554 0.68056 0.36395 0.0
C787 C 0.45762 0.69561 0.35133 0.0
C788 C 0.48298 0.71331 0.33377 0.0
C789 C 0.41207 0.66332 0.38739 0.0
C790 C 0.44182 0.66212 0.39307 0.0
C791 C 0.46413 0.67817 0.37466 0.0
C792 C 0.45014 0.64456 0.41813 0.0
C793 C 0.38685 0.64593 0.40541 0.0
C794 C 0.444 0.64962 0.44883 0.0
C795 C 0.45183 0.63329 0.47227 0.0
C796 C 0.46613 0.61138 0.46581 0.0
C797 C 0.47221 0.60628 0.43502 0.0
C798 C 0.46449 0.62275 0.41156 0.0
H799 H 0.36533 0.64351 0.3934 0.0
H800 H 0.39063 0.62472 0.40993 0.0
H801 H 0.38522 0.65648 0.42767 0.0
H802 H 0.43337 0.66649 0.45478 0.0
H803 H 0.4466 0.63789 0.49549 0.0
H804 H 0.13072 0.39714 0.80875 0.0
H805 H 0.10763 0.41871 0.85028 0.0
H806 H 0.10979 0.49115 0.79448 0.0
H807 H 0.13155 0.46902 0.75266 0.0
H808 H 0.12519 0.46528 0.8841 0.0
H809 H 0.02552 0.47604 0.8209 0.0
H810 H 0.0504 0.45571 0.80617 0.0
H811 H 0.05882 0.49332 0.80192 0.0
C812 C 0.12585 0.41749 0.80523 0.0
C813 C 0.13288 0.43122 0.7772 0.0
C814 C 0.1128 0.42997 0.82912 0.0
C815 C 0.10623 0.45653 0.82571 0.0
C816 C 0.11371 0.47041 0.7978 0.0
H817 H 0.04114 0.578 0.93637 0.0
H818 H 0.06167 0.5512 0.89814 0.0
C819 C 0.1266 0.45787 0.7739 0.0
C820 C 0.09216 0.46992 0.85133 0.0
H821 H 0.03526 0.50182 0.8678 0.0
C822 C 0.10534 0.47299 0.88051 0.0
C823 C 0.06606 0.48001 0.84718 0.0
C824 C 0.04919 0.47585 0.81745 0.0
C825 C 0.09397 0.48658 0.90491 0.0
C826 C 0.06838 0.49733 0.90046 0.0
C827 C 0.05491 0.49382 0.87147 0.0
C828 C 0.05601 0.51348 0.92487 0.0
C829 C 0.11011 0.49022 0.93505 0.0
C830 C 0.04546 0.50143 0.95302 0.0
C831 C 0.03342 0.51689 0.97517 0.0
C832 C 0.03175 0.54484 0.96982 0.0
C833 C 0.04214 0.55664 0.94158 0.0
C834 C 0.05395 0.54125 0.91951 0.0
H835 H 0.13271 0.48635 0.93299 0.0
H836 H 0.11189 0.51172 0.94446 0.0
H837 H 0.09754 0.47503 0.95158 0.0
H838 H 0.046 0.47986 0.95768 0.0
H839 H 0.02487 0.50675 0.9961 0.0
H840 H 0.62734 0.85884 0.83752 0.0
H841 H 0.59739 0.89064 0.85774 0.0
H842 H 0.65719 0.91165 0.93407 0.0
H843 H 0.68713 0.88032 0.91376 0.0
H844 H 0.57796 0.89233 0.93369 0.0
H845 H 0.64652 0.98589 0.876 0.0
H846 H 0.64015 0.95103 0.85932 0.0
H847 H 0.66462 0.96008 0.8913 0.0
C848 C 0.63371 0.87009 0.85876 0.0
C849 C 0.65917 0.86703 0.87439 0.0
C850 C 0.61671 0.88811 0.87024 0.0
C851 C 0.62519 0.90332 0.89735 0.0
C852 C 0.65031 0.8999 0.9132 0.0
H853 H 0.59881 1.03431 1.01096 0.0
H854 H 0.6151 1.00085 0.97736 0.0
C855 C 0.66721 0.88192 0.90177 0.0
C856 C 0.60875 0.92376 0.90889 0.0
H857 H 0.61305 0.99424 0.91369 0.0
C858 C 0.58511 0.91457 0.92895 0.0
C859 C 0.61846 0.95265 0.90263 0.0
C860 C 0.64376 0.96322 0.88105 0.0
C861 C 0.57173 0.93385 0.94417 0.0
C862 C 0.58215 0.96294 0.93875 0.0
C863 C 0.60504 0.97193 0.91768 0.0
C864 C 0.57197 0.98446 0.9572 0.0
C865 C 0.54777 0.9231 0.96721 0.0
C866 C 0.5424 0.98681 0.95648 0.0
C867 C 0.53291 1.00597 0.97581 0.0
C868 C 0.55292 1.02311 0.99608 0.0
C869 C 0.58275 1.02137 0.9958 0.0
C870 C 0.59215 1.00228 0.97654 0.0
H871 H 0.54588 0.90058 0.97245 0.0
H872 H 0.55212 0.9355 0.98877 0.0
H873 H 0.52618 0.92539 0.95805 0.0
H874 H 0.52659 0.97357 0.94131 0.0
H875 H 0.50982 1.00688 0.97533 0.0
H876 H 0.78818 0.21074 0.4663 0.0
H877 H 0.83028 0.18801 0.46296 0.0
H878 H 0.79794 0.13889 0.54218 0.0
H879 H 0.75575 0.16137 0.54504 0.0
H880 H 0.87333 0.18874 0.50799 0.0
H881 H 0.81302 0.0799 0.48022 0.0
H882 H 0.79678 0.10984 0.47554 0.0
H883 H 0.79785 0.09455 0.51252 0.0
C884 C 0.79018 0.19492 0.48274 0.0
C885 C 0.76913 0.18765 0.50596 0.0
C886 C 0.81404 0.182 0.48085 0.0
C887 C 0.81689 0.16148 0.50203 0.0
C888 C 0.79578 0.15427 0.52526 0.0
H889 H 0.95757 0.10545 0.57983 0.0
H890 H 0.91823 0.12779 0.56376 0.0
C891 C 0.772 0.16724 0.52714 0.0
C892 C 0.84283 0.14871 0.50118 0.0
H893 H 0.86221 0.08548 0.50067 0.0
C894 C 0.871 0.16621 0.50586 0.0
C895 C 0.83976 0.11939 0.49786 0.0
C896 C 0.81025 0.09984 0.49093 0.0
C897 C 0.89596 0.15494 0.50931 0.0
C898 C 0.8925 0.12546 0.50836 0.0
C899 C 0.86469 0.10808 0.50169 0.0
C900 C 0.9168 0.11226 0.51726 0.0
C901 C 0.92573 0.17459 0.51477 0.0
C902 C 0.92856 0.09568 0.49651 0.0
C903 C 0.95113 0.08283 0.50567 0.0
C904 C 0.96179 0.08614 0.53578 0.0
C905 C 0.94975 0.10255 0.55648 0.0
C906 C 0.92743 0.11547 0.5473 0.0
H907 H 0.92628 0.19598 0.50612 0.0
H908 H 0.93025 0.17638 0.53964 0.0
H909 H 0.94368 0.16653 0.50364 0.0
H910 H 0.9204 0.09283 0.47329 0.0
H911 H 0.96011 0.07027 0.4893 0.0
H912 H 0.32552 0.72278 0.15579 0.0
H913 H 0.27851 0.701 0.1306 0.0
H914 H 0.2354 0.68974 0.21822 0.0
H915 H 0.28215 0.71278 0.24314 0.0
H916 H 0.24377 0.65008 0.1337 0.0
H917 H 0.17942 0.72604 0.17296 0.0
H918 H 0.21902 0.73244 0.17765 0.0
H919 H 0.19469 0.71046 0.20407 0.0
C920 C 0.30587 0.71594 0.16955 0.0
C921 C 0.30741 0.71966 0.20138 0.0
C922 C 0.27904 0.70335 0.1552 0.0
C923 C 0.25307 0.69413 0.17235 0.0
C924 C 0.25479 0.69729 0.20428 0.0
H925 H 0.09583 0.57333 0.10819 0.0
H926 H 0.14268 0.59738 0.13119 0.0
C927 C 0.2816 0.71011 0.2186 0.0
C928 C 0.22452 0.68064 0.15684 0.0
H929 H 0.15182 0.68362 0.15004 0.0
C930 C 0.22373 0.65755 0.1372 0.0
C931 C 0.19833 0.69055 0.16081 0.0
C932 C 0.1979 0.71641 0.17976 0.0
C933 C 0.19756 0.64383 0.12203 0.0
C934 C 0.17102 0.65289 0.12717 0.0
C935 C 0.17195 0.67636 0.14629 0.0
C936 C 0.1421 0.63826 0.11313 0.0
C937 C 0.19888 0.62011 0.10014 0.0
C938 C 0.12528 0.65324 0.09605 0.0
C939 C 0.09801 0.63953 0.08315 0.0
C940 C 0.08689 0.61047 0.08698 0.0
C941 C 0.1037 0.59562 0.10432 0.0
C942 C 0.13075 0.60936 0.11741 0.0
H943 H 0.22167 0.62182 0.09136 0.0
H944 H 0.19219 0.59983 0.11222 0.0
H945 H 0.18377 0.61972 0.08044 0.0
H946 H 0.13335 0.67557 0.09253 0.0
H947 H 0.08573 0.65172 0.07007 0.0
H948 H 0.17975 0.43248 0.65772 0.0
H949 H 0.22485 0.45122 0.62811 0.0
H950 H 0.27723 0.42555 0.69887 0.0
H951 H 0.23192 0.40585 0.72748 0.0
H952 H 0.2686 0.49296 0.64088 0.0
H953 H 0.31791 0.40082 0.62822 0.0
H954 H 0.28052 0.39765 0.64146 0.0
H955 H 0.31129 0.40774 0.66748 0.0
C956 C 0.20084 0.42982 0.66617 0.0
C957 C 0.20226 0.41686 0.69437 0.0
C958 C 0.22675 0.4409 0.64949 0.0
C959 C 0.25487 0.43961 0.66075 0.0
C960 C 0.25609 0.42617 0.68885 0.0
H961 H 0.43699 0.52628 0.61274 0.0
H962 H 0.39133 0.50279 0.63907 0.0
C963 C 0.23014 0.41481 0.70529 0.0
C964 C 0.28278 0.45411 0.64436 0.0
H965 H 0.35008 0.44563 0.61842 0.0
C966 C 0.2862 0.48238 0.63578 0.0
C967 C 0.30617 0.44069 0.63748 0.0
C968 C 0.30369 0.40998 0.64385 0.0
C969 C 0.31209 0.49746 0.62124 0.0
C970 C 0.33557 0.48418 0.61499 0.0
C971 C 0.33229 0.45599 0.62343 0.0
C972 C 0.36336 0.4991 0.59911 0.0
C973 C 0.31446 0.52774 0.61298 0.0
C974 C 0.36306 0.50502 0.56783 0.0
C975 C 0.38919 0.51824 0.55267 0.0
C976 C 0.41634 0.52617 0.56841 0.0
C977 C 0.41652 0.52066 0.59988 0.0
C978 C 0.3904 0.50709 0.61496 0.0
H979 H 0.29641 0.53628 0.62324 0.0
H980 H 0.3361 0.54089 0.62061 0.0
H981 H 0.31329 0.52944 0.58782 0.0
H982 H 0.34262 0.49901 0.55497 0.0
H983 H 0.38817 0.52205 0.52845 0.0
H984 H 0.72619 0.7827 0.82708 0.0
H985 H 0.76375 0.75652 0.84053 0.0
H986 H 0.78259 0.8052 0.92377 0.0
H987 H 0.74552 0.83156 0.91 0.0
H988 H 0.83346 0.80129 0.88682 0.0
H989 H 0.75843 0.69713 0.90938 0.0
H990 H 0.75336 0.71368 0.87398 0.0
H991 H 0.74548 0.72926 0.90933 0.0
C992 C 0.73822 0.78743 0.84836 0.0
C993 C 0.73274 0.8086 0.86787 0.0
C994 C 0.75951 0.77253 0.85605 0.0
C995 C 0.77561 0.77873 0.88332 0.0
C996 C 0.77017 0.79996 0.90276 0.0
H997 H 0.91047 0.7306 0.98725 0.0
H998 H 0.87533 0.75361 0.96286 0.0
C999 C 0.74886 0.81476 0.89511 0.0
C1000 C 0.79886 0.76381 0.89135 0.0
H1001 H 0.80961 0.7006 0.91489 0.0
C1002 C 0.82831 0.77923 0.89281 0.0
C1003 C 0.79203 0.73501 0.89881 0.0
C1004 C 0.76062 0.7177 0.89804 0.0
C1005 C 0.85114 0.7667 0.90209 0.0
C1006 C 0.84417 0.73816 0.91073 0.0
C1007 C 0.81485 0.72249 0.90828 0.0
C1008 C 0.86659 0.72476 0.92442 0.0
C1009 C 0.88249 0.78415 0.90261 0.0
C1010 C 0.87296 0.70056 0.91117 0.0
C1011 C 0.89316 0.6873 0.92509 0.0
C1012 C 0.90717 0.69795 0.9526 0.0
C1013 C 0.90066 0.72222 0.96572 0.0
C1014 C 0.88053 0.73541 0.95182 0.0
H1015 H 0.88533 0.80213 0.88675 0.0
H1016 H 0.8879 0.79281 0.92595 0.0
H1017 H 0.89852 0.7713 0.89636 0.0
H1018 H 0.86227 0.69192 0.89011 0.0
H1019 H 0.89781 0.66875 0.91431 0.0
H1020 H 0.37926 0.81261 0.2593 0.0
H1021 H 0.40509 0.85961 0.2422 0.0
H1022 H 0.44956 0.82172 0.17286 0.0
H1023 H 0.42352 0.77485 0.19001 0.0
H1024 H 0.48575 0.87323 0.20142 0.0
H1025 H 0.37686 0.88593 0.1589 0.0
H1026 H 0.37812 0.87684 0.19842 0.0
H1027 H 0.38334 0.85224 0.16941 0.0
C1028 C 0.39573 0.8144 0.2415 0.0
C1029 C 0.39996 0.79005 0.22652 0.0
C1030 C 0.41005 0.84126 0.23127 0.0
C1031 C 0.42897 0.84436 0.20582 0.0
C1032 C 0.43511 0.82003 0.19249 0.0
H1033 H 0.47736 0.98701 0.08063 0.0
H1034 H 0.45802 0.9409 0.10397 0.0
C1035 C 0.4206 0.79321 0.20259 0.0
C1036 C 0.44023 0.87256 0.19148 0.0
H1037 H 0.4175 0.92462 0.15302 0.0
C1038 C 0.47081 0.88449 0.19096 0.0
C1039 C 0.42089 0.88716 0.17718 0.0
C1040 C 0.38798 0.87491 0.17567 0.0
C1041 C 0.4824 0.91072 0.1772 0.0
C1042 C 0.46298 0.92567 0.16358 0.0
C1043 C 0.43246 0.91344 0.16359 0.0
C1044 C 0.47395 0.95402 0.14941 0.0
C1045 C 0.51549 0.922 0.17687 0.0
C1046 C 0.48875 0.97712 0.16712 0.0
C1047 C 0.4996 1.0035 0.15387 0.0
C1048 C 0.49603 1.0076 0.12247 0.0
C1049 C 0.48058 0.98465 0.10483 0.0
C1050 C 0.46953 0.95823 0.11818 0.0
H1051 H 0.52756 0.90526 0.1812 0.0
H1052 H 0.52286 0.93187 0.15466 0.0
H1053 H 0.52171 0.93829 0.19501 0.0
H1054 H 0.49198 0.97476 0.19131 0.0
H1055 H 0.51122 1.02065 0.16826 0.0
H1056 H 0.15673 0.33635 0.73851 0.0
H1057 H 0.14349 0.29136 0.7107 0.0
H1058 H 0.13338 0.3354 0.62819 0.0
H1059 H 0.14708 0.38043 0.6562 0.0
H1060 H 0.09232 0.26766 0.68409 0.0
H1061 H 0.17872 0.28104 0.5949 0.0
H1062 H 0.18153 0.30449 0.62739 0.0
H1063 H 0.15882 0.30846 0.59523 0.0
C1064 C 0.1524 0.3364 0.71426 0.0
C1065 C 0.15341 0.362 0.69948 0.0
C1066 C 0.1446 0.31062 0.69833 0.0
C1067 C 0.13758 0.30956 0.66703 0.0
C1068 C 0.13932 0.3353 0.65204 0.0
H1069 H 0.06546 0.16967 0.5395 0.0
H1070 H 0.08389 0.21567 0.56406 0.0
C1071 C 0.14726 0.36117 0.66804 0.0
C1072 C 0.12664 0.28155 0.65097 0.0
H1073 H 0.13826 0.24142 0.58938 0.0
C1074 C 0.10258 0.26197 0.66348 0.0
C1075 C 0.13962 0.27376 0.62384 0.0
C1076 C 0.16627 0.2929 0.60967 0.0
C1077 C 0.0911 0.23541 0.64972 0.0
C1078 C 0.10418 0.22754 0.62273 0.0
C1079 C 0.12808 0.24716 0.61002 0.0
C1080 C 0.0934 0.19914 0.6075 0.0
C1081 C 0.06446 0.21626 0.66392 0.0
C1082 C 0.09287 0.17409 0.62329 0.0
C1083 C 0.0823 0.14762 0.60924 0.0
C1084 C 0.07201 0.14529 0.57886 0.0
C1085 C 0.07301 0.1704 0.56292 0.0
C1086 C 0.08366 0.19688 0.57698 0.0
H1087 H 0.05211 0.22807 0.67887 0.0
H1088 H 0.0491 0.20483 0.64619 0.0
H1089 H 0.07189 0.20055 0.67815 0.0
H1090 H 0.10079 0.17496 0.64657 0.0
H1091 H 0.08215 0.12894 0.62232 0.0
H1092 H 0.74799 0.28221 0.52245 0.0
H1093 H 0.7294 0.32451 0.53299 0.0
H1094 H 0.64477 0.27228 0.5582 0.0
H1095 H 0.66388 0.23022 0.54852 0.0
H1096 H 0.68496 0.33395 0.49871 0.0
H1097 H 0.65271 0.3355 0.61996 0.0
H1098 H 0.67745 0.31457 0.60601 0.0
H1099 H 0.63798 0.302 0.60219 0.0
C1100 C 0.72587 0.28002 0.53147 0.0
C1101 C 0.70721 0.25329 0.53478 0.0
C1102 C 0.71522 0.30404 0.53735 0.0
C1103 C 0.68576 0.30157 0.5466 0.0
C1104 C 0.66775 0.27476 0.55179 0.0
H1105 H 0.54957 0.39075 0.52994 0.0
H1106 H 0.58121 0.35823 0.54065 0.0
C1107 C 0.67851 0.25077 0.54607 0.0
C1108 C 0.6724 0.32628 0.5457 0.0
H1109 H 0.62839 0.36126 0.58536 0.0
C1110 C 0.67313 0.34033 0.51787 0.0
C1111 C 0.65678 0.33439 0.57062 0.0
C1112 C 0.65641 0.32098 0.60146 0.0
C1113 C 0.65749 0.36135 0.51381 0.0
C1114 C 0.64102 0.36877 0.5384 0.0
C1115 C 0.64102 0.35541 0.56656 0.0
C1116 C 0.62228 0.38915 0.53453 0.0
C1117 C 0.65755 0.37449 0.48281 0.0
C1118 C 0.635 0.41733 0.52802 0.0
C1119 C 0.61703 0.43586 0.52157 0.0
C1120 C 0.58601 0.42651 0.52165 0.0
C1121 C 0.57338 0.39844 0.52916 0.0
C1122 C 0.59138 0.37994 0.5356 0.0
H1123 H 0.6667 0.36266 0.4649 0.0
H1124 H 0.63477 0.37558 0.47608 0.0
H1125 H 0.67136 0.39625 0.4837 0.0
H1126 H 0.65884 0.42483 0.52735 0.0
H1127 H 0.62743 0.45731 0.51572 0.0
loop_
_geom_bond_atom_site_label_1
_geom_bond_atom_site_label_2
_geom_bond_distance
_geom_bond_site_symmetry_2
_ccdc_geom_bond_type
C0 N1 1.317 . S
C0 N2 1.348 . S
C0 C3 1.485 . S
N1 C0 1.317 . S
N1 N5 1.370 . S
N2 C0 1.348 . S
N2 C4 1.346 . S
C3 C0 1.485 . S
C3 H7 0.960 . S
C3 H8 0.961 . S
C3 H9 0.960 . S
C4 N2 1.346 . S
C4 N5 1.307 . S
C4 C6 1.486 . S
N5 N1 1.370 . S
N5 C4 1.307 . S
C6 C4 1.486 . S
C6 H10 0.960 . S
C6 H11 0.960 . S
C6 H12 0.959 . S
H7 C3 0.960 . S
H8 C3 0.961 . S
H9 C3 0.960 . S
H10 C6 0.960 . S
H11 C6 0.960 . S
H12 C6 0.959 . S
C13 N14 1.317 . S
C13 N15 1.348 . S
C13 C16 1.485 . S
N14 C13 1.317 . S
N14 N18 1.370 . S
N15 C13 1.348 . S
N15 C17 1.346 . S
C16 C13 1.485 . S
C16 H20 0.960 . S
C16 H21 0.961 . S
C16 H22 0.960 . S
C17 N15 1.346 . S
C17 N18 1.307 . S
C17 C19 1.486 . S
N18 N14 1.370 . S
N18 C17 1.307 . S
C19 C17 1.486 . S
C19 H23 0.960 . S
C19 H24 0.960 . S
C19 H25 0.959 . S
H20 C16 0.960 . S
H21 C16 0.961 . S
H22 C16 0.960 . S
H23 C19 0.960 . S
H24 C19 0.960 . S
H25 C19 0.959 . S
C26 N27 1.317 . S
C26 N28 1.348 . S
C26 C29 1.485 . S
N27 C26 1.317 . S
N27 N31 1.370 . S
N28 C26 1.348 . S
N28 C30 1.346 . S
C29 C26 1.485 . S
C29 H33 0.960 . S
C29 H34 0.961 . S
C29 H35 0.960 . S
C30 N28 1.346 . S
C30 N31 1.307 . S
C30 C32 1.486 . S
N31 N27 1.370 . S
N31 C30 1.307 . S
C32 C30 1.486 . S
C32 H36 0.960 . S
C32 H37 0.960 . S
C32 H38 0.959 . S
H33 C29 0.960 . S
H34 C29 0.961 . S
H35 C29 0.960 . S
H36 C32 0.960 . S
H37 C32 0.960 . S
H38 C32 0.959 . S
C39 N40 1.317 . S
C39 N41 1.348 . S
C39 C42 1.485 . S
N40 C39 1.317 . S
N40 N44 1.370 . S
N41 C39 1.348 . S
N41 C43 1.346 . S
C42 C39 1.485 . S
C42 H46 0.960 . S
C42 H47 0.961 . S
C42 H48 0.960 . S
C43 N41 1.346 . S
C43 N44 1.307 . S
C43 C45 1.486 . S
N44 N40 1.370 . S
N44 C43 1.307 . S
C45 C43 1.486 . S
C45 H49 0.960 . S
C45 H50 0.960 . S
C45 H51 0.959 . S
H46 C42 0.960 . S
H47 C42 0.961 . S
H48 C42 0.960 . S
H49 C45 0.960 . S
H50 C45 0.960 . S
H51 C45 0.959 . S
C52 N53 1.317 . S
C52 N54 1.348 . S
C52 C55 1.485 . S
N53 C52 1.317 . S
N53 N57 1.370 . S
N54 C52 1.348 . S
N54 C56 1.346 . S
C55 C52 1.485 . S
C55 H59 0.960 . S
C55 H60 0.961 . S
C55 H61 0.960 . S
C56 N54 1.346 . S
C56 N57 1.307 . S
C56 C58 1.486 . S
N57 N53 1.370 . S
N57 C56 1.307 . S
C58 C56 1.486 . S
C58 H62 0.960 . S
C58 H63 0.960 . S
C58 H64 0.959 . S
H59 C55 0.960 . S
H60 C55 0.961 . S
H61 C55 0.960 . S
H62 C58 0.960 . S
H63 C58 0.960 . S
H64 C58 0.959 . S
C65 N66 1.317 . S
C65 N67 1.348 . S
C65 C68 1.485 . S
N66 C65 1.317 . S
N66 N70 1.370 . S
N67 C65 1.348 . S
N67 C69 1.346 . S
C68 C65 1.485 . S
C68 H72 0.960 . S
C68 H73 0.961 . S
C68 H74 0.960 . S
C69 N67 1.346 . S
C69 N70 1.307 . S
C69 C71 1.486 . S
N70 N66 1.370 . S
N70 C69 1.307 . S
C71 C69 1.486 . S
C71 H75 0.960 . S
C71 H76 0.960 . S
C71 H77 0.959 . S
H72 C68 0.960 . S
H73 C68 0.961 . S
H74 C68 0.960 . S
H75 C71 0.960 . S
H76 C71 0.960 . S
H77 C71 0.959 . S
C78 N79 1.317 . S
C78 N80 1.348 . S
C78 C81 1.485 . S
N79 C78 1.317 . S
N79 N83 1.370 . S
N80 C78 1.348 . S
N80 C82 1.346 . S
C81 C78 1.485 . S
C81 H85 0.960 . S
C81 H86 0.961 . S
C81 H87 0.960 . S
C82 N80 1.346 . S
C82 N83 1.307 . S
C82 C84 1.486 . S
N83 N79 1.370 . S
N83 C82 1.307 . S
C84 C82 1.486 . S
C84 H88 0.960 . S
C84 H89 0.960 . S
C84 H90 0.959 . S
H85 C81 0.960 . S
H86 C81 0.961 . S
H87 C81 0.960 . S
H88 C84 0.960 . S
H89 C84 0.960 . S
H90 C84 0.959 . S
C91 N92 1.317 . S
C91 N93 1.348 . S
C91 C94 1.485 . S
N92 C91 1.317 . S
N92 N96 1.370 . S
N93 C91 1.348 . S
N93 C95 1.346 . S
C94 C91 1.485 . S
C94 H98 0.960 . S
C94 H99 0.961 . S
C94 H100 0.960 . S
C95 N93 1.346 . S
C95 N96 1.307 . S
C95 C97 1.486 . S
N96 N92 1.370 . S
N96 C95 1.307 . S
C97 C95 1.486 . S
C97 H101 0.960 . S
C97 H102 0.960 . S
C97 H103 0.959 . S
H98 C94 0.960 . S
H99 C94 0.961 . S
H100 C94 0.960 . S
H101 C97 0.960 . S
H102 C97 0.960 . S
H103 C97 0.959 . S
Sm104 C106 2.846 . S
Sm104 O124 2.543 . S
Sm104 O125 2.450 . S
Sm104 O126 2.681 . S
Sm104 O127 2.464 . S
Sm104 O128 2.396 . S
Sm104 O132 2.386 . S
Sm104 O135 2.408 1_545 S
Sm105 C115 2.846 1_445 S
Sm105 O126 2.386 . S
Sm105 O129 2.408 . S
Sm105 O130 2.543 1_545 S
Sm105 O131 2.450 1_445 S
Sm105 O132 2.681 . S
Sm105 O133 2.464 1_455 S
Sm105 O134 2.396 1_445 S
C106 Sm104 2.846 . S
C106 C107 1.506 . S
C106 O124 1.261 . S
C106 O125 1.242 . S
C107 C106 1.506 . S
C107 C108 1.358 . S
C107 C112 1.382 . S
C108 C107 1.358 . S
C108 C109 1.385 . S
C108 H136 0.930 . S
C109 C108 1.385 . S
C109 C110 1.395 . S
C109 H137 0.929 . S
C110 C109 1.395 . S
C110 C111 1.335 . S
C111 C110 1.335 . S
C111 C112 1.398 . S
C111 H138 0.930 . S
C112 C107 1.382 . S
C112 C111 1.398 . S
C112 H139 0.929 . S
C113 O126 1.271 1_565 S
C113 O127 1.251 1_565 S
C114 O128 1.252 . S
C114 O129 1.272 . S
C115 Sm105 2.846 1_665 S
C115 C116 1.506 . S
C115 O130 1.261 1_655 S
C115 O131 1.242 . S
C116 C115 1.506 . S
C116 C117 1.358 . S
C116 C121 1.382 . S
C117 C116 1.358 . S
C117 C118 1.385 . S
C117 H140 0.930 . S
C118 C117 1.385 . S
C118 C119 1.395 . S
C118 H141 0.929 . S
C119 C118 1.395 . S
C119 C120 1.335 . S
C120 C119 1.335 . S
C120 C121 1.398 . S
C120 H142 0.930 . S
C121 C116 1.382 . S
C121 C120 1.398 . S
C121 H143 0.929 . S
C122 O132 1.271 1_655 S
C122 O133 1.251 . S
C123 O134 1.252 1_455 S
C123 O135 1.272 . S
O124 Sm104 2.543 . S
O124 C106 1.261 . S
O125 Sm104 2.450 . S
O125 C106 1.242 . S
O126 Sm104 2.681 . S
O126 Sm105 2.386 . S
O126 C113 1.271 1_545 S
O127 Sm104 2.464 . S
O127 C113 1.251 1_545 S
O128 Sm104 2.396 . S
O128 C114 1.252 . S
O129 Sm105 2.408 . S
O129 C114 1.272 . S
O130 Sm105 2.543 1_565 S
O130 C115 1.261 1_455 S
O131 Sm105 2.450 1_665 S
O131 C115 1.242 . S
O132 Sm104 2.386 . S
O132 Sm105 2.681 . S
O132 C122 1.271 1_455 S
O133 Sm105 2.464 1_655 S
O133 C122 1.251 . S
O134 Sm105 2.396 1_665 S
O134 C123 1.252 1_655 S
O135 Sm104 2.408 1_565 S
O135 C123 1.272 . S
H136 C108 0.930 . S
H137 C109 0.929 . S
H138 C111 0.930 . S
H139 C112 0.929 . S
H140 C117 0.930 . S
H141 C118 0.929 . S
H142 C120 0.930 . S
H143 C121 0.929 . S
Sm144 C146 2.846 . S
Sm144 O164 2.543 . S
Sm144 O165 2.450 . S
Sm144 O166 2.681 . S
Sm144 O167 2.464 1_545 S
Sm144 O168 2.396 . S
Sm144 O172 2.386 . S
Sm144 O175 2.408 . S
Sm145 C155 2.846 1_554 S
Sm145 O166 2.386 . S
Sm145 O169 2.408 . S
Sm145 O170 2.543 1_544 S
Sm145 O171 2.450 1_554 S
Sm145 O172 2.681 . S
Sm145 O173 2.464 1_554 S
Sm145 O174 2.396 1_554 S
C146 Sm144 2.846 . S
C146 C147 1.506 . S
C146 O164 1.261 . S
C146 O165 1.242 . S
C147 C146 1.506 . S
C147 C148 1.358 . S
C147 C152 1.382 . S
C148 C147 1.358 . S
C148 C149 1.385 . S
C148 H176 0.930 . S
C149 C148 1.385 . S
C149 C150 1.395 . S
C149 H177 0.929 . S
C150 C149 1.395 . S
C150 C151 1.335 . S
C151 C150 1.335 . S
C151 C152 1.398 . S
C151 H178 0.930 . S
C152 C147 1.382 . S
C152 C151 1.398 . S
C152 H179 0.929 . S
C153 O166 1.271 1_565 S
C153 O167 1.251 . S
C154 O168 1.252 . S
C154 O169 1.272 . S
C155 Sm145 2.846 1_556 S
C155 C156 1.506 1_545 S
C155 O170 1.261 1_545 S
C155 O171 1.242 . S
C156 C155 1.506 1_565 S
C156 C157 1.358 . S
C156 C161 1.382 1_565 S
C157 C156 1.358 . S
C157 C158 1.385 . S
C157 H180 0.930 . S
C158 C157 1.385 . S
C158 C159 1.395 . S
C158 H181 0.929 . S
C159 C158 1.395 . S
C159 C160 1.335 . S
C160 C159 1.335 . S
C160 C161 1.398 1_565 S
C160 H182 0.930 . S
C161 C156 1.382 1_545 S
C161 C160 1.398 1_545 S
C161 H183 0.929 . S
C162 O172 1.271 . S
C162 O173 1.251 1_554 S
C163 O174 1.252 1_554 S
C163 O175 1.272 . S
O164 Sm144 2.543 . S
O164 C146 1.261 . S
O165 Sm144 2.450 . S
O165 C146 1.242 . S
O166 Sm144 2.681 . S
O166 Sm145 2.386 . S
O166 C153 1.271 1_545 S
O167 Sm144 2.464 1_565 S
O167 C153 1.251 . S
O168 Sm144 2.396 . S
O168 C154 1.252 . S
O169 Sm145 2.408 . S
O169 C154 1.272 . S
O170 Sm145 2.543 1_566 S
O170 C155 1.261 1_565 S
O171 Sm145 2.450 1_556 S
O171 C155 1.242 . S
O172 Sm144 2.386 . S
O172 Sm145 2.681 . S
O172 C162 1.271 . S
O173 Sm145 2.464 1_556 S
O173 C162 1.251 1_556 S
O174 Sm145 2.396 1_556 S
O174 C163 1.252 1_556 S
O175 Sm144 2.408 . S
O175 C163 1.272 . S
H176 C148 0.930 . S
H177 C149 0.929 . S
H178 C151 0.930 . S
H179 C152 0.929 . S
H180 C157 0.930 . S
H181 C158 0.929 . S
H182 C160 0.930 . S
H183 C161 0.929 . S
Sm184 C186 2.846 . S
Sm184 O204 2.543 . S
Sm184 O205 2.450 . S
Sm184 O206 2.681 . S
Sm184 O207 2.464 . S
Sm184 O208 2.396 . S
Sm184 O212 2.386 . S
Sm184 O215 2.408 . S
Sm185 C195 2.846 . S
Sm185 O206 2.386 . S
Sm185 O209 2.408 . S
Sm185 O210 2.543 . S
Sm185 O211 2.450 . S
Sm185 O212 2.681 . S
Sm185 O213 2.464 . S
Sm185 O214 2.396 . S
C186 Sm184 2.846 . S
C186 C187 1.506 . S
C186 O204 1.261 . S
C186 O205 1.242 . S
C187 C186 1.506 . S
C187 C188 1.358 . S
C187 C192 1.382 . S
C188 C187 1.358 . S
C188 C189 1.385 . S
C188 H216 0.930 . S
C189 C188 1.385 . S
C189 C190 1.395 . S
C189 H217 0.929 . S
C190 C189 1.395 . S
C190 C191 1.335 . S
C191 C190 1.335 . S
C191 C192 1.398 . S
C191 H218 0.930 . S
C192 C187 1.382 . S
C192 C191 1.398 . S
C192 H219 0.929 . S
C193 O206 1.271 . S
C193 O207 1.251 . S
C194 O208 1.252 . S
C194 O209 1.272 . S
C195 Sm185 2.846 . S
C195 C196 1.506 . S
C195 O210 1.261 . S
C195 O211 1.242 . S
C196 C195 1.506 . S
C196 C197 1.358 . S
C196 C201 1.382 . S
C197 C196 1.358 . S
C197 C198 1.385 . S
C197 H220 0.930 . S
C198 C197 1.385 . S
C198 C199 1.395 . S
C198 H221 0.929 . S
C199 C198 1.395 . S
C199 C200 1.335 . S
C200 C199 1.335 . S
C200 C201 1.398 . S
C200 H222 0.930 . S
C201 C196 1.382 . S
C201 C200 1.398 . S
C201 H223 0.929 . S
C202 O212 1.271 . S
C202 O213 1.251 . S
C203 O214 1.252 . S
C203 O215 1.272 . S
O204 Sm184 2.543 . S
O204 C186 1.261 . S
O205 Sm184 2.450 . S
O205 C186 1.242 . S
O206 Sm184 2.681 . S
O206 Sm185 2.386 . S
O206 C193 1.271 . S
O207 Sm184 2.464 . S
O207 C193 1.251 . S
O208 Sm184 2.396 . S
O208 C194 1.252 . S
O209 Sm185 2.408 . S
O209 C194 1.272 . S
O210 Sm185 2.543 . S
O210 C195 1.261 . S
O211 Sm185 2.450 . S
O211 C195 1.242 . S
O212 Sm184 2.386 . S
O212 Sm185 2.681 . S
O212 C202 1.271 . S
O213 Sm185 2.464 . S
O213 C202 1.251 . S
O214 Sm185 2.396 . S
O214 C203 1.252 . S
O215 Sm184 2.408 . S
O215 C203 1.272 . S
H216 C188 0.930 . S
H217 C189 0.929 . S
H218 C191 0.930 . S
H219 C192 0.929 . S
H220 C197 0.930 . S
H221 C198 0.929 . S
H222 C200 0.930 . S
H223 C201 0.929 . S
Sm224 C226 2.846 . S
Sm224 O244 2.543 . S
Sm224 O245 2.450 . S
Sm224 O246 2.681 1_455 S
Sm224 O247 2.464 1_455 S
Sm224 O248 2.396 . S
Sm224 O252 2.386 1_554 S
Sm224 O255 2.408 1_455 S
Sm225 C235 2.846 1_455 S
Sm225 O246 2.386 1_456 S
Sm225 O249 2.408 1_556 S
Sm225 O250 2.543 1_455 S
Sm225 O251 2.450 1_455 S
Sm225 O252 2.681 . S
Sm225 O253 2.464 . S
Sm225 O254 2.396 1_455 S
C226 Sm224 2.846 . S
C226 C227 1.506 . S
C226 O244 1.261 . S
C226 O245 1.242 . S
C227 C226 1.506 . S
C227 C228 1.358 . S
C227 C232 1.382 . S
C228 C227 1.358 . S
C228 C229 1.385 . S
C228 H256 0.930 . S
C229 C228 1.385 . S
C229 C230 1.395 . S
C229 H257 0.929 . S
C230 C229 1.395 . S
C230 C231 1.335 . S
C231 C230 1.335 . S
C231 C232 1.398 . S
C231 H258 0.930 . S
C232 C227 1.382 . S
C232 C231 1.398 . S
C232 H259 0.929 . S
C233 O246 1.271 . S
C233 O247 1.251 . S
C234 O248 1.252 . S
C234 O249 1.272 . S
C235 Sm225 2.846 1_655 S
C235 C236 1.506 . S
C235 O250 1.261 . S
C235 O251 1.242 . S
C236 C235 1.506 . S
C236 C237 1.358 . S
C236 C241 1.382 . S
C237 C236 1.358 . S
C237 C238 1.385 . S
C237 H260 0.930 . S
C238 C237 1.385 . S
C238 C239 1.395 . S
C238 H261 0.929 . S
C239 C238 1.395 . S
C239 C240 1.335 . S
C240 C239 1.335 . S
C240 C241 1.398 . S
C240 H262 0.930 . S
C241 C236 1.382 . S
C241 C240 1.398 . S
C241 H263 0.929 . S
C242 O252 1.271 . S
C242 O253 1.251 . S
C243 O254 1.252 . S
C243 O255 1.272 1_556 S
O244 Sm224 2.543 . S
O244 C226 1.261 . S
O245 Sm224 2.450 . S
O245 C226 1.242 . S
O246 Sm224 2.681 1_655 S
O246 Sm225 2.386 1_654 S
O246 C233 1.271 . S
O247 Sm224 2.464 1_655 S
O247 C233 1.251 . S
O248 Sm224 2.396 . S
O248 C234 1.252 . S
O249 Sm225 2.408 1_554 S
O249 C234 1.272 . S
O250 Sm225 2.543 1_655 S
O250 C235 1.261 . S
O251 Sm225 2.450 1_655 S
O251 C235 1.242 . S
O252 Sm224 2.386 1_556 S
O252 Sm225 2.681 . S
O252 C242 1.271 . S
O253 Sm225 2.464 . S
O253 C242 1.251 . S
O254 Sm225 2.396 1_655 S
O254 C243 1.252 . S
O255 Sm224 2.408 1_655 S
O255 C243 1.272 1_554 S
H256 C228 0.930 . S
H257 C229 0.929 . S
H258 C231 0.930 . S
H259 C232 0.929 . S
H260 C237 0.930 . S
H261 C238 0.929 . S
H262 C240 0.930 . S
H263 C241 0.929 . S
H264 C272 0.929 . S
H265 C274 0.930 . S
H266 C276 0.930 . S
H267 C279 0.929 . S
H268 C282 0.930 . S
H269 C284 0.960 . S
H270 C284 0.960 . S
H271 C284 0.960 . S
C272 H264 0.929 . S
C272 C273 1.377 . S
C272 C274 1.384 . S
C273 C272 1.377 . S
C273 C279 1.390 . S
C274 H265 0.930 . S
C274 C272 1.384 . S
C274 C275 1.372 . S
C275 C274 1.372 . S
C275 C276 1.400 . S
C275 C280 1.490 . S
C276 H266 0.930 . S
C276 C275 1.400 . S
C276 C279 1.386 . S
H277 C293 0.930 . S
H278 C294 0.931 . S
C279 H267 0.929 . S
C279 C273 1.390 . S
C279 C276 1.386 . S
C280 C275 1.490 . S
C280 C282 1.395 . S
C280 C283 1.403 . S
H281 C287 0.930 . S
C282 H268 0.930 . S
C282 C280 1.395 . S
C282 C285 1.403 . S
C283 C280 1.403 . S
C283 C284 1.524 . S
C283 C287 1.400 . S
C284 H269 0.960 . S
C284 H270 0.960 . S
C284 H271 0.960 . S
C284 C283 1.524 . S
C285 C282 1.403 . S
C285 C286 1.392 . S
C285 C289 1.495 . S
C286 C285 1.392 . S
C286 C287 1.385 . S
C286 C288 1.478 . S
C287 H281 0.930 . S
C287 C283 1.400 . S
C287 C286 1.385 . S
C288 C286 1.478 . S
C288 C290 1.381 . S
C288 C294 1.383 . S
C289 C285 1.495 . S
C289 H295 0.959 . S
C289 H296 0.961 . S
C289 H297 0.960 . S
C290 C288 1.381 . S
C290 C291 1.394 . S
C290 H298 0.930 . S
C291 C290 1.394 . S
C291 C292 1.383 . S
C291 H299 0.929 . S
C292 C291 1.383 . S
C292 C293 1.377 . S
C293 H277 0.930 . S
C293 C292 1.377 . S
C293 C294 1.379 . S
C294 H278 0.931 . S
C294 C288 1.383 . S
C294 C293 1.379 . S
H295 C289 0.959 . S
H296 C289 0.961 . S
H297 C289 0.960 . S
H298 C290 0.930 . S
H299 C291 0.929 . S
H300 C308 0.929 . S
H301 C310 0.930 . S
H302 C312 0.930 . S
H303 C315 0.929 . S
H304 C318 0.930 . S
H305 C320 0.960 . S
H306 C320 0.960 . S
H307 C320 0.960 . S
C308 H300 0.929 . S
C308 C309 1.377 . S
C308 C310 1.384 . S
C309 C308 1.377 . S
C309 C315 1.390 . S
C310 H301 0.930 . S
C310 C308 1.384 . S
C310 C311 1.372 . S
C311 C310 1.372 . S
C311 C312 1.400 . S
C311 C316 1.490 . S
C312 H302 0.930 . S
C312 C311 1.400 . S
C312 C315 1.386 . S
H313 C329 0.930 . S
H314 C330 0.931 . S
C315 H303 0.929 . S
C315 C309 1.390 . S
C315 C312 1.386 . S
C316 C311 1.490 . S
C316 C318 1.395 . S
C316 C319 1.403 . S
H317 C323 0.930 . S
C318 H304 0.930 . S
C318 C316 1.395 . S
C318 C321 1.403 . S
C319 C316 1.403 . S
C319 C320 1.524 . S
C319 C323 1.400 . S
C320 H305 0.960 . S
C320 H306 0.960 . S
C320 H307 0.960 . S
C320 C319 1.524 . S
C321 C318 1.403 . S
C321 C322 1.392 . S
C321 C325 1.495 . S
C322 C321 1.392 . S
C322 C323 1.385 . S
C322 C324 1.478 . S
C323 H317 0.930 . S
C323 C319 1.400 . S
C323 C322 1.385 . S
C324 C322 1.478 . S
C324 C326 1.381 . S
C324 C330 1.383 . S
C325 C321 1.495 . S
C325 H331 0.959 . S
C325 H332 0.961 . S
C325 H333 0.960 . S
C326 C324 1.381 . S
C326 C327 1.394 . S
C326 H334 0.930 . S
C327 C326 1.394 . S
C327 C328 1.383 . S
C327 H335 0.929 . S
C328 C327 1.383 . S
C328 C329 1.377 . S
C329 H313 0.930 . S
C329 C328 1.377 . S
C329 C330 1.379 . S
C330 H314 0.931 . S
C330 C324 1.383 . S
C330 C329 1.379 . S
H331 C325 0.959 . S
H332 C325 0.961 . S
H333 C325 0.960 . S
H334 C326 0.930 . S
H335 C327 0.929 . S
H336 C344 0.929 . S
H337 C346 0.930 . S
H338 C348 0.930 . S
H339 C351 0.929 . S
H340 C354 0.930 . S
H341 C356 0.960 . S
H342 C356 0.960 . S
H343 C356 0.960 . S
C344 H336 0.929 . S
C344 C345 1.377 . S
C344 C346 1.384 . S
C345 C344 1.377 . S
C345 C351 1.390 . S
C346 H337 0.930 . S
C346 C344 1.384 . S
C346 C347 1.372 . S
C347 C346 1.372 . S
C347 C348 1.400 . S
C347 C352 1.490 . S
C348 H338 0.930 . S
C348 C347 1.400 . S
C348 C351 1.386 . S
H349 C365 0.930 . S
H350 C366 0.931 . S
C351 H339 0.929 . S
C351 C345 1.390 . S
C351 C348 1.386 . S
C352 C347 1.490 . S
C352 C354 1.395 . S
C352 C355 1.403 . S
H353 C359 0.930 . S
C354 H340 0.930 . S
C354 C352 1.395 . S
C354 C357 1.403 . S
C355 C352 1.403 . S
C355 C356 1.524 . S
C355 C359 1.400 . S
C356 H341 0.960 . S
C356 H342 0.960 . S
C356 H343 0.960 . S
C356 C355 1.524 . S
C357 C354 1.403 . S
C357 C358 1.392 . S
C357 C361 1.495 . S
C358 C357 1.392 . S
C358 C359 1.385 . S
C358 C360 1.478 . S
C359 H353 0.930 . S
C359 C355 1.400 . S
C359 C358 1.385 . S
C360 C358 1.478 . S
C360 C362 1.381 . S
C360 C366 1.383 . S
C361 C357 1.495 . S
C361 H367 0.959 . S
C361 H368 0.961 . S
C361 H369 0.960 . S
C362 C360 1.381 . S
C362 C363 1.394 . S
C362 H370 0.930 . S
C363 C362 1.394 . S
C363 C364 1.383 . S
C363 H371 0.929 . S
C364 C363 1.383 . S
C364 C365 1.377 . S
C365 H349 0.930 . S
C365 C364 1.377 . S
C365 C366 1.379 . S
C366 H350 0.931 . S
C366 C360 1.383 . S
C366 C365 1.379 . S
H367 C361 0.959 . S
H368 C361 0.961 . S
H369 C361 0.960 . S
H370 C362 0.930 . S
H371 C363 0.929 . S
H372 C380 0.929 . S
H373 C382 0.930 . S
H374 C384 0.930 . S
H375 C387 0.929 . S
H376 C390 0.930 . S
H377 C392 0.960 . S
H378 C392 0.960 . S
H379 C392 0.960 . S
C380 H372 0.929 . S
C380 C381 1.377 . S
C380 C382 1.384 . S
C381 C380 1.377 . S
C381 C387 1.390 . S
C382 H373 0.930 . S
C382 C380 1.384 . S
C382 C383 1.372 . S
C383 C382 1.372 . S
C383 C384 1.400 . S
C383 C388 1.490 . S
C384 H374 0.930 . S
C384 C383 1.400 . S
C384 C387 1.386 . S
H385 C401 0.930 . S
H386 C402 0.931 . S
C387 H375 0.929 . S
C387 C381 1.390 . S
C387 C384 1.386 . S
C388 C383 1.490 . S
C388 C390 1.395 . S
C388 C391 1.403 . S
H389 C395 0.930 . S
C390 H376 0.930 . S
C390 C388 1.395 . S
C390 C393 1.403 . S
C391 C388 1.403 . S
C391 C392 1.524 . S
C391 C395 1.400 . S
C392 H377 0.960 . S
C392 H378 0.960 . S
C392 H379 0.960 . S
C392 C391 1.524 . S
C393 C390 1.403 . S
C393 C394 1.392 . S
C393 C397 1.495 . S
C394 C393 1.392 . S
C394 C395 1.385 . S
C394 C396 1.478 . S
C395 H389 0.930 . S
C395 C391 1.400 . S
C395 C394 1.385 . S
C396 C394 1.478 . S
C396 C398 1.381 . S
C396 C402 1.383 . S
C397 C393 1.495 . S
C397 H403 0.959 . S
C397 H404 0.961 . S
C397 H405 0.960 . S
C398 C396 1.381 . S
C398 C399 1.394 . S
C398 H406 0.930 . S
C399 C398 1.394 . S
C399 C400 1.383 . S
C399 H407 0.929 . S
C400 C399 1.383 . S
C400 C401 1.377 . S
C401 H385 0.930 . S
C401 C400 1.377 . S
C401 C402 1.379 . S
C402 H386 0.931 . S
C402 C396 1.383 . S
C402 C401 1.379 . S
H403 C397 0.959 . S
H404 C397 0.961 . S
H405 C397 0.960 . S
H406 C398 0.930 . S
H407 C399 0.929 . S
H408 C416 0.929 . S
H409 C418 0.930 . S
H410 C420 0.930 . S
H411 C423 0.929 . S
H412 C426 0.930 . S
H413 C428 0.960 . S
H414 C428 0.960 . S
H415 C428 0.960 . S
C416 H408 0.929 . S
C416 C417 1.377 . S
C416 C418 1.384 . S
C417 C416 1.377 . S
C417 C423 1.390 . S
C418 H409 0.930 . S
C418 C416 1.384 . S
C418 C419 1.372 . S
C419 C418 1.372 . S
C419 C420 1.400 . S
C419 C424 1.490 . S
C420 H410 0.930 . S
C420 C419 1.400 . S
C420 C423 1.386 . S
H421 C437 0.930 . S
H422 C438 0.931 . S
C423 H411 0.929 . S
C423 C417 1.390 . S
C423 C420 1.386 . S
C424 C419 1.490 . S
C424 C426 1.395 . S
C424 C427 1.403 . S
H425 C431 0.930 . S
C426 H412 0.930 . S
C426 C424 1.395 . S
C426 C429 1.403 . S
C427 C424 1.403 . S
C427 C428 1.524 . S
C427 C431 1.400 . S
C428 H413 0.960 . S
C428 H414 0.960 . S
C428 H415 0.960 . S
C428 C427 1.524 . S
C429 C426 1.403 . S
C429 C430 1.392 . S
C429 C433 1.495 . S
C430 C429 1.392 . S
C430 C431 1.385 . S
C430 C432 1.478 . S
C431 H425 0.930 . S
C431 C427 1.400 . S
C431 C430 1.385 . S
C432 C430 1.478 . S
C432 C434 1.381 . S
C432 C438 1.383 . S
C433 C429 1.495 . S
C433 H439 0.959 . S
C433 H440 0.961 . S
C433 H441 0.960 . S
C434 C432 1.381 . S
C434 C435 1.394 . S
C434 H442 0.930 . S
C435 C434 1.394 . S
C435 C436 1.383 . S
C435 H443 0.929 . S
C436 C435 1.383 . S
C436 C437 1.377 . S
C437 H421 0.930 . S
C437 C436 1.377 . S
C437 C438 1.379 . S
C438 H422 0.931 . S
C438 C432 1.383 . S
C438 C437 1.379 . S
H439 C433 0.959 . S
H440 C433 0.961 . S
H441 C433 0.960 . S
H442 C434 0.930 . S
H443 C435 0.929 . S
H444 C452 0.929 . S
H445 C454 0.930 . S
H446 C456 0.930 . S
H447 C459 0.929 . S
H448 C462 0.930 . S
H449 C464 0.960 . S
H450 C464 0.960 . S
H451 C464 0.960 . S
C452 H444 0.929 . S
C452 C453 1.377 . S
C452 C454 1.384 . S
C453 C452 1.377 . S
C453 C459 1.390 . S
C454 H445 0.930 . S
C454 C452 1.384 . S
C454 C455 1.372 . S
C455 C454 1.372 . S
C455 C456 1.400 . S
C455 C460 1.490 . S
C456 H446 0.930 . S
C456 C455 1.400 . S
C456 C459 1.386 . S
H457 C473 0.930 . S
H458 C474 0.931 . S
C459 H447 0.929 . S
C459 C453 1.390 . S
C459 C456 1.386 . S
C460 C455 1.490 . S
C460 C462 1.395 . S
C460 C463 1.403 . S
H461 C467 0.930 . S
C462 H448 0.930 . S
C462 C460 1.395 . S
C462 C465 1.403 . S
C463 C460 1.403 . S
C463 C464 1.524 . S
C463 C467 1.400 . S
C464 H449 0.960 . S
C464 H450 0.960 . S
C464 H451 0.960 . S
C464 C463 1.524 . S
C465 C462 1.403 . S
C465 C466 1.392 . S
C465 C469 1.495 . S
C466 C465 1.392 . S
C466 C467 1.385 . S
C466 C468 1.478 . S
C467 H461 0.930 . S
C467 C463 1.400 . S
C467 C466 1.385 . S
C468 C466 1.478 . S
C468 C470 1.381 . S
C468 C474 1.383 . S
C469 C465 1.495 . S
C469 H475 0.959 . S
C469 H476 0.961 . S
C469 H477 0.960 1_565 S
C470 C468 1.381 . S
C470 C471 1.394 1_565 S
C470 H478 0.930 1_565 S
C471 C470 1.394 1_545 S
C471 C472 1.383 1_545 S
C471 H479 0.929 . S
C472 C471 1.383 1_565 S
C472 C473 1.377 . S
C473 H457 0.930 . S
C473 C472 1.377 . S
C473 C474 1.379 . S
C474 H458 0.931 . S
C474 C468 1.383 . S
C474 C473 1.379 . S
H475 C469 0.959 . S
H476 C469 0.961 . S
H477 C469 0.960 1_545 S
H478 C470 0.930 1_545 S
H479 C471 0.929 . S
H480 C488 0.929 . S
H481 C490 0.930 . S
H482 C492 0.930 . S
H483 C495 0.929 . S
H484 C498 0.930 . S
H485 C500 0.960 . S
H486 C500 0.960 . S
H487 C500 0.960 . S
C488 H480 0.929 . S
C488 C489 1.377 . S
C488 C490 1.384 . S
C489 C488 1.377 . S
C489 C495 1.390 . S
C490 H481 0.930 . S
C490 C488 1.384 . S
C490 C491 1.372 . S
C491 C490 1.372 . S
C491 C492 1.400 . S
C491 C496 1.490 . S
C492 H482 0.930 . S
C492 C491 1.400 . S
C492 C495 1.386 . S
H493 C509 0.930 . S
H494 C510 0.931 . S
C495 H483 0.929 . S
C495 C489 1.390 . S
C495 C492 1.386 . S
C496 C491 1.490 . S
C496 C498 1.395 . S
C496 C499 1.403 . S
H497 C503 0.930 . S
C498 H484 0.930 . S
C498 C496 1.395 . S
C498 C501 1.403 . S
C499 C496 1.403 . S
C499 C500 1.524 . S
C499 C503 1.400 . S
C500 H485 0.960 . S
C500 H486 0.960 . S
C500 H487 0.960 . S
C500 C499 1.524 . S
C501 C498 1.403 . S
C501 C502 1.392 . S
C501 C505 1.495 . S
C502 C501 1.392 . S
C502 C503 1.385 . S
C502 C504 1.478 . S
C503 H497 0.930 . S
C503 C499 1.400 . S
C503 C502 1.385 . S
C504 C502 1.478 . S
C504 C506 1.381 . S
C504 C510 1.383 . S
C505 C501 1.495 . S
C505 H511 0.959 . S
C505 H512 0.961 . S
C505 H513 0.960 . S
C506 C504 1.381 . S
C506 C507 1.394 . S
C506 H514 0.930 . S
C507 C506 1.394 . S
C507 C508 1.383 . S
C507 H515 0.929 . S
C508 C507 1.383 . S
C508 C509 1.377 . S
C509 H493 0.930 . S
C509 C508 1.377 . S
C509 C510 1.379 . S
C510 H494 0.931 . S
C510 C504 1.383 . S
C510 C509 1.379 . S
H511 C505 0.959 . S
H512 C505 0.961 . S
H513 C505 0.960 . S
H514 C506 0.930 . S
H515 C507 0.929 . S
H516 C524 0.929 . S
H517 C526 0.930 . S
H518 C528 0.930 . S
H519 C531 0.929 . S
H520 C534 0.930 . S
H521 C536 0.960 . S
H522 C536 0.960 . S
H523 C536 0.960 . S
C524 H516 0.929 . S
C524 C525 1.377 . S
C524 C526 1.384 . S
C525 C524 1.377 . S
C525 C531 1.390 . S
C526 H517 0.930 . S
C526 C524 1.384 . S
C526 C527 1.372 . S
C527 C526 1.372 . S
C527 C528 1.400 . S
C527 C532 1.490 . S
C528 H518 0.930 . S
C528 C527 1.400 . S
C528 C531 1.386 . S
H529 C545 0.930 . S
H530 C546 0.931 . S
C531 H519 0.929 . S
C531 C525 1.390 . S
C531 C528 1.386 . S
C532 C527 1.490 . S
C532 C534 1.395 . S
C532 C535 1.403 . S
H533 C539 0.930 . S
C534 H520 0.930 . S
C534 C532 1.395 . S
C534 C537 1.403 . S
C535 C532 1.403 . S
C535 C536 1.524 . S
C535 C539 1.400 . S
C536 H521 0.960 . S
C536 H522 0.960 . S
C536 H523 0.960 . S
C536 C535 1.524 . S
C537 C534 1.403 . S
C537 C538 1.392 . S
C537 C541 1.495 . S
C538 C537 1.392 . S
C538 C539 1.385 . S
C538 C540 1.478 . S
C539 H533 0.930 . S
C539 C535 1.400 . S
C539 C538 1.385 . S
C540 C538 1.478 . S
C540 C542 1.381 . S
C540 C546 1.383 . S
C541 C537 1.495 . S
C541 H547 0.959 . S
C541 H548 0.961 . S
C541 H549 0.960 . S
C542 C540 1.381 . S
C542 C543 1.394 . S
C542 H550 0.930 . S
C543 C542 1.394 . S
C543 C544 1.383 . S
C543 H551 0.929 . S
C544 C543 1.383 . S
C544 C545 1.377 . S
C545 H529 0.930 . S
C545 C544 1.377 . S
C545 C546 1.379 . S
C546 H530 0.931 . S
C546 C540 1.383 . S
C546 C545 1.379 . S
H547 C541 0.959 . S
H548 C541 0.961 . S
H549 C541 0.960 . S
H550 C542 0.930 . S
H551 C543 0.929 . S
H552 C560 0.929 . S
H553 C562 0.930 . S
H554 C564 0.930 . S
H555 C567 0.929 . S
H556 C570 0.930 . S
H557 C572 0.960 . S
H558 C572 0.960 . S
H559 C572 0.960 . S
C560 H552 0.929 . S
C560 C561 1.377 . S
C560 C562 1.384 . S
C561 C560 1.377 . S
C561 C567 1.390 . S
C562 H553 0.930 . S
C562 C560 1.384 . S
C562 C563 1.372 . S
C563 C562 1.372 . S
C563 C564 1.400 . S
C563 C568 1.490 . S
C564 H554 0.930 . S
C564 C563 1.400 . S
C564 C567 1.386 . S
H565 C581 0.930 . S
H566 C582 0.931 . S
C567 H555 0.929 . S
C567 C561 1.390 . S
C567 C564 1.386 . S
C568 C563 1.490 . S
C568 C570 1.395 . S
C568 C571 1.403 . S
H569 C575 0.930 . S
C570 H556 0.930 . S
C570 C568 1.395 . S
C570 C573 1.403 . S
C571 C568 1.403 . S
C571 C572 1.524 . S
C571 C575 1.400 . S
C572 H557 0.960 . S
C572 H558 0.960 . S
C572 H559 0.960 . S
C572 C571 1.524 . S
C573 C570 1.403 . S
C573 C574 1.392 . S
C573 C577 1.495 . S
C574 C573 1.392 . S
C574 C575 1.385 . S
C574 C576 1.478 . S
C575 H569 0.930 . S
C575 C571 1.400 . S
C575 C574 1.385 . S
C576 C574 1.478 . S
C576 C578 1.381 . S
C576 C582 1.383 . S
C577 C573 1.495 . S
C577 H583 0.959 . S
C577 H584 0.961 . S
C577 H585 0.960 . S
C578 C576 1.381 . S
C578 C579 1.394 . S
C578 H586 0.930 . S
C579 C578 1.394 . S
C579 C580 1.383 . S
C579 H587 0.929 . S
C580 C579 1.383 . S
C580 C581 1.377 . S
C581 H565 0.930 . S
C581 C580 1.377 . S
C581 C582 1.379 . S
C582 H566 0.931 . S
C582 C576 1.383 . S
C582 C581 1.379 . S
H583 C577 0.959 . S
H584 C577 0.961 . S
H585 C577 0.960 . S
H586 C578 0.930 . S
H587 C579 0.929 . S
H588 C596 0.929 . S
H589 C598 0.930 . S
H590 C600 0.930 . S
H591 C603 0.929 . S
H592 C606 0.930 . S
H593 C608 0.960 . S
H594 C608 0.960 . S
H595 C608 0.960 . S
C596 H588 0.929 . S
C596 C597 1.377 . S
C596 C598 1.384 . S
C597 C596 1.377 . S
C597 C603 1.390 . S
C598 H589 0.930 . S
C598 C596 1.384 . S
C598 C599 1.372 . S
C599 C598 1.372 . S
C599 C600 1.400 . S
C599 C604 1.490 . S
C600 H590 0.930 . S
C600 C599 1.400 . S
C600 C603 1.386 . S
H601 C617 0.930 1_554 S
H602 C618 0.931 . S
C603 H591 0.929 . S
C603 C597 1.390 . S
C603 C600 1.386 . S
C604 C599 1.490 . S
C604 C606 1.395 . S
C604 C607 1.403 . S
H605 C611 0.930 . S
C606 H592 0.930 . S
C606 C604 1.395 . S
C606 C609 1.403 . S
C607 C604 1.403 . S
C607 C608 1.524 . S
C607 C611 1.400 . S
C608 H593 0.960 . S
C608 H594 0.960 . S
C608 H595 0.960 . S
C608 C607 1.524 . S
C609 C606 1.403 . S
C609 C610 1.392 . S
C609 C613 1.495 . S
C610 C609 1.392 . S
C610 C611 1.385 . S
C610 C612 1.478 . S
C611 H605 0.930 . S
C611 C607 1.400 . S
C611 C610 1.385 . S
C612 C610 1.478 . S
C612 C614 1.381 . S
C612 C618 1.383 . S
C613 C609 1.495 . S
C613 H619 0.959 . S
C613 H620 0.961 1_556 S
C613 H621 0.960 . S
C614 C612 1.381 . S
C614 C615 1.394 . S
C614 H622 0.930 . S
C615 C614 1.394 . S
C615 C616 1.383 . S
C615 H623 0.929 . S
C616 C615 1.383 . S
C616 C617 1.377 . S
C617 H601 0.930 1_556 S
C617 C616 1.377 . S
C617 C618 1.379 . S
C618 H602 0.931 . S
C618 C612 1.383 . S
C618 C617 1.379 . S
H619 C613 0.959 . S
H620 C613 0.961 1_554 S
H621 C613 0.960 . S
H622 C614 0.930 . S
H623 C615 0.929 . S
H624 C632 0.929 . S
H625 C634 0.930 . S
H626 C636 0.930 . S
H627 C639 0.929 . S
H628 C642 0.930 . S
H629 C644 0.960 . S
H630 C644 0.960 . S
H631 C644 0.960 . S
C632 H624 0.929 . S
C632 C633 1.377 . S
C632 C634 1.384 . S
C633 C632 1.377 . S
C633 C639 1.390 . S
C634 H625 0.930 . S
C634 C632 1.384 . S
C634 C635 1.372 . S
C635 C634 1.372 . S
C635 C636 1.400 . S
C635 C640 1.490 . S
C636 H626 0.930 . S
C636 C635 1.400 . S
C636 C639 1.386 . S
H637 C653 0.930 . S
H638 C654 0.931 . S
C639 H627 0.929 . S
C639 C633 1.390 . S
C639 C636 1.386 . S
C640 C635 1.490 . S
C640 C642 1.395 . S
C640 C643 1.403 . S
H641 C647 0.930 . S
C642 H628 0.930 . S
C642 C640 1.395 . S
C642 C645 1.403 . S
C643 C640 1.403 . S
C643 C644 1.524 . S
C643 C647 1.400 . S
C644 H629 0.960 . S
C644 H630 0.960 . S
C644 H631 0.960 . S
C644 C643 1.524 . S
C645 C642 1.403 . S
C645 C646 1.392 . S
C645 C649 1.495 . S
C646 C645 1.392 . S
C646 C647 1.385 . S
C646 C648 1.478 . S
C647 H641 0.930 . S
C647 C643 1.400 . S
C647 C646 1.385 . S
C648 C646 1.478 . S
C648 C650 1.381 . S
C648 C654 1.383 . S
C649 C645 1.495 . S
C649 H655 0.959 . S
C649 H656 0.961 . S
C649 H657 0.960 . S
C650 C648 1.381 . S
C650 C651 1.394 . S
C650 H658 0.930 . S
C651 C650 1.394 . S
C651 C652 1.383 . S
C651 H659 0.929 . S
C652 C651 1.383 . S
C652 C653 1.377 . S
C653 H637 0.930 . S
C653 C652 1.377 . S
C653 C654 1.379 . S
C654 H638 0.931 . S
C654 C648 1.383 . S
C654 C653 1.379 . S
H655 C649 0.959 . S
H656 C649 0.961 . S
H657 C649 0.960 . S
H658 C650 0.930 . S
H659 C651 0.929 . S
H660 C668 0.929 . S
H661 C670 0.930 . S
H662 C672 0.930 . S
H663 C675 0.929 . S
H664 C678 0.930 . S
H665 C680 0.960 . S
H666 C680 0.960 . S
H667 C680 0.960 . S
C668 H660 0.929 . S
C668 C669 1.377 . S
C668 C670 1.384 . S
C669 C668 1.377 . S
C669 C675 1.390 . S
C670 H661 0.930 . S
C670 C668 1.384 . S
C670 C671 1.372 . S
C671 C670 1.372 . S
C671 C672 1.400 . S
C671 C676 1.490 . S
C672 H662 0.930 . S
C672 C671 1.400 . S
C672 C675 1.386 . S
H673 C689 0.930 . S
H674 C690 0.931 . S
C675 H663 0.929 . S
C675 C669 1.390 . S
C675 C672 1.386 . S
C676 C671 1.490 . S
C676 C678 1.395 . S
C676 C679 1.403 . S
H677 C683 0.930 . S
C678 H664 0.930 . S
C678 C676 1.395 . S
C678 C681 1.403 . S
C679 C676 1.403 . S
C679 C680 1.524 . S
C679 C683 1.400 . S
C680 H665 0.960 . S
C680 H666 0.960 . S
C680 H667 0.960 . S
C680 C679 1.524 . S
C681 C678 1.403 . S
C681 C682 1.392 . S
C681 C685 1.495 . S
C682 C681 1.392 . S
C682 C683 1.385 . S
C682 C684 1.478 . S
C683 H677 0.930 . S
C683 C679 1.400 . S
C683 C682 1.385 . S
C684 C682 1.478 . S
C684 C686 1.381 . S
C684 C690 1.383 . S
C685 C681 1.495 . S
C685 H691 0.959 . S
C685 H692 0.961 . S
C685 H693 0.960 . S
C686 C684 1.381 . S
C686 C687 1.394 . S
C686 H694 0.930 . S
C687 C686 1.394 . S
C687 C688 1.383 . S
C687 H695 0.929 . S
C688 C687 1.383 . S
C688 C689 1.377 . S
C689 H673 0.930 . S
C689 C688 1.377 . S
C689 C690 1.379 . S
C690 H674 0.931 . S
C690 C684 1.383 . S
C690 C689 1.379 . S
H691 C685 0.959 . S
H692 C685 0.961 . S
H693 C685 0.960 . S
H694 C686 0.930 . S
H695 C687 0.929 . S
H696 C704 0.929 . S
H697 C706 0.930 . S
H698 C708 0.930 . S
H699 C711 0.929 . S
H700 C714 0.930 . S
H701 C716 0.960 . S
H702 C716 0.960 . S
H703 C716 0.960 . S
C704 H696 0.929 . S
C704 C705 1.377 . S
C704 C706 1.384 . S
C705 C704 1.377 . S
C705 C711 1.390 . S
C706 H697 0.930 . S
C706 C704 1.384 . S
C706 C707 1.372 . S
C707 C706 1.372 . S
C707 C708 1.400 . S
C707 C712 1.490 . S
C708 H698 0.930 . S
C708 C707 1.400 . S
C708 C711 1.386 . S
H709 C725 0.930 . S
H710 C726 0.931 . S
C711 H699 0.929 . S
C711 C705 1.390 . S
C711 C708 1.386 . S
C712 C707 1.490 . S
C712 C714 1.395 . S
C712 C715 1.403 . S
H713 C719 0.930 . S
C714 H700 0.930 . S
C714 C712 1.395 . S
C714 C717 1.403 . S
C715 C712 1.403 . S
C715 C716 1.524 . S
C715 C719 1.400 . S
C716 H701 0.960 . S
C716 H702 0.960 . S
C716 H703 0.960 . S
C716 C715 1.524 . S
C717 C714 1.403 . S
C717 C718 1.392 . S
C717 C721 1.495 . S
C718 C717 1.392 . S
C718 C719 1.385 . S
C718 C720 1.478 . S
C719 H713 0.930 . S
C719 C715 1.400 . S
C719 C718 1.385 . S
C720 C718 1.478 . S
C720 C722 1.381 . S
C720 C726 1.383 . S
C721 C717 1.495 . S
C721 H727 0.959 . S
C721 H728 0.961 . S
C721 H729 0.960 . S
C722 C720 1.381 . S
C722 C723 1.394 . S
C722 H730 0.930 . S
C723 C722 1.394 . S
C723 C724 1.383 . S
C723 H731 0.929 . S
C724 C723 1.383 . S
C724 C725 1.377 . S
C725 H709 0.930 . S
C725 C724 1.377 . S
C725 C726 1.379 . S
C726 H710 0.931 . S
C726 C720 1.383 . S
C726 C725 1.379 . S
H727 C721 0.959 . S
H728 C721 0.961 . S
H729 C721 0.960 . S
H730 C722 0.930 . S
H731 C723 0.929 . S
H732 C740 0.929 . S
H733 C742 0.930 . S
H734 C744 0.930 . S
H735 C747 0.929 . S
H736 C750 0.930 . S
H737 C752 0.960 . S
H738 C752 0.960 . S
H739 C752 0.960 . S
C740 H732 0.929 . S
C740 C741 1.377 . S
C740 C742 1.384 . S
C741 C740 1.377 . S
C741 C747 1.390 . S
C742 H733 0.930 . S
C742 C740 1.384 . S
C742 C743 1.372 . S
C743 C742 1.372 . S
C743 C744 1.400 . S
C743 C748 1.490 . S
C744 H734 0.930 . S
C744 C743 1.400 . S
C744 C747 1.386 . S
H745 C761 0.930 . S
H746 C762 0.931 . S
C747 H735 0.929 . S
C747 C741 1.390 . S
C747 C744 1.386 . S
C748 C743 1.490 . S
C748 C750 1.395 . S
C748 C751 1.403 . S
H749 C755 0.930 . S
C750 H736 0.930 . S
C750 C748 1.395 . S
C750 C753 1.403 . S
C751 C748 1.403 . S
C751 C752 1.524 . S
C751 C755 1.400 . S
C752 H737 0.960 . S
C752 H738 0.960 . S
C752 H739 0.960 . S
C752 C751 1.524 . S
C753 C750 1.403 . S
C753 C754 1.392 . S
C753 C757 1.495 . S
C754 C753 1.392 . S
C754 C755 1.385 . S
C754 C756 1.478 . S
C755 H749 0.930 . S
C755 C751 1.400 . S
C755 C754 1.385 . S
C756 C754 1.478 . S
C756 C758 1.381 . S
C756 C762 1.383 . S
C757 C753 1.495 . S
C757 H763 0.959 . S
C757 H764 0.961 . S
C757 H765 0.960 . S
C758 C756 1.381 . S
C758 C759 1.394 . S
C758 H766 0.930 . S
C759 C758 1.394 . S
C759 C760 1.383 . S
C759 H767 0.929 . S
C760 C759 1.383 . S
C760 C761 1.377 . S
C761 H745 0.930 . S
C761 C760 1.377 . S
C761 C762 1.379 . S
C762 H746 0.931 . S
C762 C756 1.383 . S
C762 C761 1.379 . S
H763 C757 0.959 . S
H764 C757 0.961 . S
H765 C757 0.960 . S
H766 C758 0.930 . S
H767 C759 0.929 . S
H768 C776 0.929 . S
H769 C778 0.930 . S
H770 C780 0.930 . S
H771 C783 0.929 . S
H772 C786 0.930 . S
H773 C788 0.960 . S
H774 C788 0.960 . S
H775 C788 0.960 . S
C776 H768 0.929 . S
C776 C777 1.377 . S
C776 C778 1.384 . S
C777 C776 1.377 . S
C777 C783 1.390 . S
C778 H769 0.930 . S
C778 C776 1.384 . S
C778 C779 1.372 . S
C779 C778 1.372 . S
C779 C780 1.400 . S
C779 C784 1.490 . S
C780 H770 0.930 . S
C780 C779 1.400 . S
C780 C783 1.386 . S
H781 C797 0.930 . S
H782 C798 0.931 . S
C783 H771 0.929 . S
C783 C777 1.390 . S
C783 C780 1.386 . S
C784 C779 1.490 . S
C784 C786 1.395 . S
C784 C787 1.403 . S
H785 C791 0.930 . S
C786 H772 0.930 . S
C786 C784 1.395 . S
C786 C789 1.403 . S
C787 C784 1.403 . S
C787 C788 1.524 . S
C787 C791 1.400 . S
C788 H773 0.960 . S
C788 H774 0.960 . S
C788 H775 0.960 . S
C788 C787 1.524 . S
C789 C786 1.403 . S
C789 C790 1.392 . S
C789 C793 1.495 . S
C790 C789 1.392 . S
C790 C791 1.385 . S
C790 C792 1.478 . S
C791 H785 0.930 . S
C791 C787 1.400 . S
C791 C790 1.385 . S
C792 C790 1.478 . S
C792 C794 1.381 . S
C792 C798 1.383 . S
C793 C789 1.495 . S
C793 H799 0.959 . S
C793 H800 0.961 . S
C793 H801 0.960 . S
C794 C792 1.381 . S
C794 C795 1.394 . S
C794 H802 0.930 . S
C795 C794 1.394 . S
C795 C796 1.383 . S
C795 H803 0.929 . S
C796 C795 1.383 . S
C796 C797 1.377 . S
C797 H781 0.930 . S
C797 C796 1.377 . S
C797 C798 1.379 . S
C798 H782 0.931 . S
C798 C792 1.383 . S
C798 C797 1.379 . S
H799 C793 0.959 . S
H800 C793 0.961 . S
H801 C793 0.960 . S
H802 C794 0.930 . S
H803 C795 0.929 . S
H804 C812 0.929 . S
H805 C814 0.930 . S
H806 C816 0.930 . S
H807 C819 0.929 . S
H808 C822 0.930 . S
H809 C824 0.960 . S
H810 C824 0.960 . S
H811 C824 0.960 . S
C812 H804 0.929 . S
C812 C813 1.377 . S
C812 C814 1.384 . S
C813 C812 1.377 . S
C813 C819 1.390 . S
C814 H805 0.930 . S
C814 C812 1.384 . S
C814 C815 1.372 . S
C815 C814 1.372 . S
C815 C816 1.400 . S
C815 C820 1.490 . S
C816 H806 0.930 . S
C816 C815 1.400 . S
C816 C819 1.386 . S
H817 C833 0.930 . S
H818 C834 0.931 . S
C819 H807 0.929 . S
C819 C813 1.390 . S
C819 C816 1.386 . S
C820 C815 1.490 . S
C820 C822 1.395 . S
C820 C823 1.403 . S
H821 C827 0.930 . S
C822 H808 0.930 . S
C822 C820 1.395 . S
C822 C825 1.403 . S
C823 C820 1.403 . S
C823 C824 1.524 . S
C823 C827 1.400 . S
C824 H809 0.960 . S
C824 H810 0.960 . S
C824 H811 0.960 . S
C824 C823 1.524 . S
C825 C822 1.403 . S
C825 C826 1.392 . S
C825 C829 1.495 . S
C826 C825 1.392 . S
C826 C827 1.385 . S
C826 C828 1.478 . S
C827 H821 0.930 . S
C827 C823 1.400 . S
C827 C826 1.385 . S
C828 C826 1.478 . S
C828 C830 1.381 . S
C828 C834 1.383 . S
C829 C825 1.495 . S
C829 H835 0.959 . S
C829 H836 0.961 . S
C829 H837 0.960 . S
C830 C828 1.381 . S
C830 C831 1.394 . S
C830 H838 0.930 . S
C831 C830 1.394 . S
C831 C832 1.383 . S
C831 H839 0.929 . S
C832 C831 1.383 . S
C832 C833 1.377 . S
C833 H817 0.930 . S
C833 C832 1.377 . S
C833 C834 1.379 . S
C834 H818 0.931 . S
C834 C828 1.383 . S
C834 C833 1.379 . S
H835 C829 0.959 . S
H836 C829 0.961 . S
H837 C829 0.960 . S
H838 C830 0.930 . S
H839 C831 0.929 . S
H840 C848 0.929 . S
H841 C850 0.930 . S
H842 C852 0.930 . S
H843 C855 0.929 . S
H844 C858 0.930 . S
H845 C860 0.960 . S
H846 C860 0.960 . S
H847 C860 0.960 . S
C848 H840 0.929 . S
C848 C849 1.377 . S
C848 C850 1.384 . S
C849 C848 1.377 . S
C849 C855 1.390 . S
C850 H841 0.930 . S
C850 C848 1.384 . S
C850 C851 1.372 . S
C851 C850 1.372 . S
C851 C852 1.400 . S
C851 C856 1.490 . S
C852 H842 0.930 . S
C852 C851 1.400 . S
C852 C855 1.386 . S
H853 C869 0.930 1_554 S
H854 C870 0.931 . S
C855 H843 0.929 . S
C855 C849 1.390 . S
C855 C852 1.386 . S
C856 C851 1.490 . S
C856 C858 1.395 . S
C856 C859 1.403 . S
H857 C863 0.930 . S
C858 H844 0.930 . S
C858 C856 1.395 . S
C858 C861 1.403 . S
C859 C856 1.403 . S
C859 C860 1.524 . S
C859 C863 1.400 . S
C860 H845 0.960 . S
C860 H846 0.960 . S
C860 H847 0.960 . S
C860 C859 1.524 . S
C861 C858 1.403 . S
C861 C862 1.392 . S
C861 C865 1.495 . S
C862 C861 1.392 . S
C862 C863 1.385 . S
C862 C864 1.478 . S
C863 H857 0.930 . S
C863 C859 1.400 . S
C863 C862 1.385 . S
C864 C862 1.478 . S
C864 C866 1.381 . S
C864 C870 1.383 . S
C865 C861 1.495 . S
C865 H871 0.959 . S
C865 H872 0.961 . S
C865 H873 0.960 . S
C866 C864 1.381 . S
C866 C867 1.394 . S
C866 H874 0.930 . S
C867 C866 1.394 . S
C867 C868 1.383 . S
C867 H875 0.929 . S
C868 C867 1.383 . S
C868 C869 1.377 . S
C869 H853 0.930 1_556 S
C869 C868 1.377 . S
C869 C870 1.379 . S
C870 H854 0.931 . S
C870 C864 1.383 . S
C870 C869 1.379 . S
H871 C865 0.959 . S
H872 C865 0.961 . S
H873 C865 0.960 . S
H874 C866 0.930 . S
H875 C867 0.929 . S
H876 C884 0.929 . S
H877 C886 0.930 . S
H878 C888 0.930 . S
H879 C891 0.929 . S
H880 C894 0.930 . S
H881 C896 0.960 . S
H882 C896 0.960 . S
H883 C896 0.960 . S
C884 H876 0.929 . S
C884 C885 1.377 . S
C884 C886 1.384 . S
C885 C884 1.377 . S
C885 C891 1.390 . S
C886 H877 0.930 . S
C886 C884 1.384 . S
C886 C887 1.372 . S
C887 C886 1.372 . S
C887 C888 1.400 . S
C887 C892 1.490 . S
C888 H878 0.930 . S
C888 C887 1.400 . S
C888 C891 1.386 . S
H889 C905 0.930 . S
H890 C906 0.931 . S
C891 H879 0.929 . S
C891 C885 1.390 . S
C891 C888 1.386 . S
C892 C887 1.490 . S
C892 C894 1.395 . S
C892 C895 1.403 . S
H893 C899 0.930 . S
C894 H880 0.930 . S
C894 C892 1.395 . S
C894 C897 1.403 . S
C895 C892 1.403 . S
C895 C896 1.524 . S
C895 C899 1.400 . S
C896 H881 0.960 . S
C896 H882 0.960 . S
C896 H883 0.960 . S
C896 C895 1.524 . S
C897 C894 1.403 . S
C897 C898 1.392 . S
C897 C901 1.495 . S
C898 C897 1.392 . S
C898 C899 1.385 . S
C898 C900 1.478 . S
C899 H893 0.930 . S
C899 C895 1.400 . S
C899 C898 1.385 . S
C900 C898 1.478 . S
C900 C902 1.381 . S
C900 C906 1.383 . S
C901 C897 1.495 . S
C901 H907 0.959 . S
C901 H908 0.961 . S
C901 H909 0.960 . S
C902 C900 1.381 . S
C902 C903 1.394 . S
C902 H910 0.930 . S
C903 C902 1.394 . S
C903 C904 1.383 . S
C903 H911 0.929 . S
C904 C903 1.383 . S
C904 C905 1.377 . S
C905 H889 0.930 . S
C905 C904 1.377 . S
C905 C906 1.379 . S
C906 H890 0.931 . S
C906 C900 1.383 . S
C906 C905 1.379 . S
H907 C901 0.959 . S
H908 C901 0.961 . S
H909 C901 0.960 . S
H910 C902 0.930 . S
H911 C903 0.929 . S
H912 C920 0.929 . S
H913 C922 0.930 . S
H914 C924 0.930 . S
H915 C927 0.929 . S
H916 C930 0.930 . S
H917 C932 0.960 . S
H918 C932 0.960 . S
H919 C932 0.960 . S
C920 H912 0.929 . S
C920 C921 1.377 . S
C920 C922 1.384 . S
C921 C920 1.377 . S
C921 C927 1.390 . S
C922 H913 0.930 . S
C922 C920 1.384 . S
C922 C923 1.372 . S
C923 C922 1.372 . S
C923 C924 1.400 . S
C923 C928 1.490 . S
C924 H914 0.930 . S
C924 C923 1.400 . S
C924 C927 1.386 . S
H925 C941 0.930 . S
H926 C942 0.931 . S
C927 H915 0.929 . S
C927 C921 1.390 . S
C927 C924 1.386 . S
C928 C923 1.490 . S
C928 C930 1.395 . S
C928 C931 1.403 . S
H929 C935 0.930 . S
C930 H916 0.930 . S
C930 C928 1.395 . S
C930 C933 1.403 . S
C931 C928 1.403 . S
C931 C932 1.524 . S
C931 C935 1.400 . S
C932 H917 0.960 . S
C932 H918 0.960 . S
C932 H919 0.960 . S
C932 C931 1.524 . S
C933 C930 1.403 . S
C933 C934 1.392 . S
C933 C937 1.495 . S
C934 C933 1.392 . S
C934 C935 1.385 . S
C934 C936 1.478 . S
C935 H929 0.930 . S
C935 C931 1.400 . S
C935 C934 1.385 . S
C936 C934 1.478 . S
C936 C938 1.381 . S
C936 C942 1.383 . S
C937 C933 1.495 . S
C937 H943 0.959 . S
C937 H944 0.961 . S
C937 H945 0.960 . S
C938 C936 1.381 . S
C938 C939 1.394 . S
C938 H946 0.930 . S
C939 C938 1.394 . S
C939 C940 1.383 . S
C939 H947 0.929 . S
C940 C939 1.383 . S
C940 C941 1.377 . S
C941 H925 0.930 . S
C941 C940 1.377 . S
C941 C942 1.379 . S
C942 H926 0.931 . S
C942 C936 1.383 . S
C942 C941 1.379 . S
H943 C937 0.959 . S
H944 C937 0.961 . S
H945 C937 0.960 . S
H946 C938 0.930 . S
H947 C939 0.929 . S
H948 C956 0.929 . S
H949 C958 0.930 . S
H950 C960 0.930 . S
H951 C963 0.929 . S
H952 C966 0.930 . S
H953 C968 0.960 . S
H954 C968 0.960 . S
H955 C968 0.960 . S
C956 H948 0.929 . S
C956 C957 1.377 . S
C956 C958 1.384 . S
C957 C956 1.377 . S
C957 C963 1.390 . S
C958 H949 0.930 . S
C958 C956 1.384 . S
C958 C959 1.372 . S
C959 C958 1.372 . S
C959 C960 1.400 . S
C959 C964 1.490 . S
C960 H950 0.930 . S
C960 C959 1.400 . S
C960 C963 1.386 . S
H961 C977 0.930 . S
H962 C978 0.931 . S
C963 H951 0.929 . S
C963 C957 1.390 . S
C963 C960 1.386 . S
C964 C959 1.490 . S
C964 C966 1.395 . S
C964 C967 1.403 . S
H965 C971 0.930 . S
C966 H952 0.930 . S
C966 C964 1.395 . S
C966 C969 1.403 . S
C967 C964 1.403 . S
C967 C968 1.524 . S
C967 C971 1.400 . S
C968 H953 0.960 . S
C968 H954 0.960 . S
C968 H955 0.960 . S
C968 C967 1.524 . S
C969 C966 1.403 . S
C969 C970 1.392 . S
C969 C973 1.495 . S
C970 C969 1.392 . S
C970 C971 1.385 . S
C970 C972 1.478 . S
C971 H965 0.930 . S
C971 C967 1.400 . S
C971 C970 1.385 . S
C972 C970 1.478 . S
C972 C974 1.381 . S
C972 C978 1.383 . S
C973 C969 1.495 . S
C973 H979 0.959 . S
C973 H980 0.961 . S
C973 H981 0.960 . S
C974 C972 1.381 . S
C974 C975 1.394 . S
C974 H982 0.930 . S
C975 C974 1.394 . S
C975 C976 1.383 . S
C975 H983 0.929 . S
C976 C975 1.383 . S
C976 C977 1.377 . S
C977 H961 0.930 . S
C977 C976 1.377 . S
C977 C978 1.379 . S
C978 H962 0.931 . S
C978 C972 1.383 . S
C978 C977 1.379 . S
H979 C973 0.959 . S
H980 C973 0.961 . S
H981 C973 0.960 . S
H982 C974 0.930 . S
H983 C975 0.929 . S
H984 C992 0.929 . S
H985 C994 0.930 . S
H986 C996 0.930 . S
H987 C999 0.929 . S
H988 C1002 0.930 . S
H989 C1004 0.960 . S
H990 C1004 0.960 . S
H991 C1004 0.960 . S
C992 H984 0.929 . S
C992 C993 1.377 . S
C992 C994 1.384 . S
C993 C992 1.377 . S
C993 C999 1.390 . S
C994 H985 0.930 . S
C994 C992 1.384 . S
C994 C995 1.372 . S
C995 C994 1.372 . S
C995 C996 1.400 . S
C995 C1000 1.490 . S
C996 H986 0.930 . S
C996 C995 1.400 . S
C996 C999 1.386 . S
H997 C1013 0.930 . S
H998 C1014 0.931 . S
C999 H987 0.929 . S
C999 C993 1.390 . S
C999 C996 1.386 . S
C1000 C995 1.490 . S
C1000 C1002 1.395 . S
C1000 C1003 1.403 . S
H1001 C1007 0.930 . S
C1002 H988 0.930 . S
C1002 C1000 1.395 . S
C1002 C1005 1.403 . S
C1003 C1000 1.403 . S
C1003 C1004 1.524 . S
C1003 C1007 1.400 . S
C1004 H989 0.960 . S
C1004 H990 0.960 . S
C1004 H991 0.960 . S
C1004 C1003 1.524 . S
C1005 C1002 1.403 . S
C1005 C1006 1.392 . S
C1005 C1009 1.495 . S
C1006 C1005 1.392 . S
C1006 C1007 1.385 . S
C1006 C1008 1.478 . S
C1007 H1001 0.930 . S
C1007 C1003 1.400 . S
C1007 C1006 1.385 . S
C1008 C1006 1.478 . S
C1008 C1010 1.381 . S
C1008 C1014 1.383 . S
C1009 C1005 1.495 . S
C1009 H1015 0.959 . S
C1009 H1016 0.961 . S
C1009 H1017 0.960 . S
C1010 C1008 1.381 . S
C1010 C1011 1.394 . S
C1010 H1018 0.930 . S
C1011 C1010 1.394 . S
C1011 C1012 1.383 . S
C1011 H1019 0.929 . S
C1012 C1011 1.383 . S
C1012 C1013 1.377 . S
C1013 H997 0.930 . S
C1013 C1012 1.377 . S
C1013 C1014 1.379 . S
C1014 H998 0.931 . S
C1014 C1008 1.383 . S
C1014 C1013 1.379 . S
H1015 C1009 0.959 . S
H1016 C1009 0.961 . S
H1017 C1009 0.960 . S
H1018 C1010 0.930 . S
H1019 C1011 0.929 . S
H1020 C1028 0.929 . S
H1021 C1030 0.930 . S
H1022 C1032 0.930 . S
H1023 C1035 0.929 . S
H1024 C1038 0.930 . S
H1025 C1040 0.960 . S
H1026 C1040 0.960 . S
H1027 C1040 0.960 . S
C1028 H1020 0.929 . S
C1028 C1029 1.377 . S
C1028 C1030 1.384 . S
C1029 C1028 1.377 . S
C1029 C1035 1.390 . S
C1030 H1021 0.930 . S
C1030 C1028 1.384 . S
C1030 C1031 1.372 . S
C1031 C1030 1.372 . S
C1031 C1032 1.400 . S
C1031 C1036 1.490 . S
C1032 H1022 0.930 . S
C1032 C1031 1.400 . S
C1032 C1035 1.386 . S
H1033 C1049 0.930 . S
H1034 C1050 0.931 . S
C1035 H1023 0.929 . S
C1035 C1029 1.390 . S
C1035 C1032 1.386 . S
C1036 C1031 1.490 . S
C1036 C1038 1.395 . S
C1036 C1039 1.403 . S
H1037 C1043 0.930 . S
C1038 H1024 0.930 . S
C1038 C1036 1.395 . S
C1038 C1041 1.403 . S
C1039 C1036 1.403 . S
C1039 C1040 1.524 . S
C1039 C1043 1.400 . S
C1040 H1025 0.960 . S
C1040 H1026 0.960 . S
C1040 H1027 0.960 . S
C1040 C1039 1.524 . S
C1041 C1038 1.403 . S
C1041 C1042 1.392 . S
C1041 C1045 1.495 . S
C1042 C1041 1.392 . S
C1042 C1043 1.385 . S
C1042 C1044 1.478 . S
C1043 H1037 0.930 . S
C1043 C1039 1.400 . S
C1043 C1042 1.385 . S
C1044 C1042 1.478 . S
C1044 C1046 1.381 . S
C1044 C1050 1.383 . S
C1045 C1041 1.495 . S
C1045 H1051 0.959 . S
C1045 H1052 0.961 . S
C1045 H1053 0.960 . S
C1046 C1044 1.381 . S
C1046 C1047 1.394 . S
C1046 H1054 0.930 . S
C1047 C1046 1.394 . S
C1047 C1048 1.383 . S
C1047 H1055 0.929 . S
C1048 C1047 1.383 . S
C1048 C1049 1.377 . S
C1049 H1033 0.930 . S
C1049 C1048 1.377 . S
C1049 C1050 1.379 . S
C1050 H1034 0.931 . S
C1050 C1044 1.383 . S
C1050 C1049 1.379 . S
H1051 C1045 0.959 . S
H1052 C1045 0.961 . S
H1053 C1045 0.960 . S
H1054 C1046 0.930 . S
H1055 C1047 0.929 . S
H1056 C1064 0.929 . S
H1057 C1066 0.930 . S
H1058 C1068 0.930 . S
H1059 C1071 0.929 . S
H1060 C1074 0.930 . S
H1061 C1076 0.960 . S
H1062 C1076 0.960 . S
H1063 C1076 0.960 . S
C1064 H1056 0.929 . S
C1064 C1065 1.377 . S
C1064 C1066 1.384 . S
C1065 C1064 1.377 . S
C1065 C1071 1.390 . S
C1066 H1057 0.930 . S
C1066 C1064 1.384 . S
C1066 C1067 1.372 . S
C1067 C1066 1.372 . S
C1067 C1068 1.400 . S
C1067 C1072 1.490 . S
C1068 H1058 0.930 . S
C1068 C1067 1.400 . S
C1068 C1071 1.386 . S
H1069 C1085 0.930 . S
H1070 C1086 0.931 . S
C1071 H1059 0.929 . S
C1071 C1065 1.390 . S
C1071 C1068 1.386 . S
C1072 C1067 1.490 . S
C1072 C1074 1.395 . S
C1072 C1075 1.403 . S
H1073 C1079 0.930 . S
C1074 H1060 0.930 . S
C1074 C1072 1.395 . S
C1074 C1077 1.403 . S
C1075 C1072 1.403 . S
C1075 C1076 1.524 . S
C1075 C1079 1.400 . S
C1076 H1061 0.960 . S
C1076 H1062 0.960 . S
C1076 H1063 0.960 . S
C1076 C1075 1.524 . S
C1077 C1074 1.403 . S
C1077 C1078 1.392 . S
C1077 C1081 1.495 . S
C1078 C1077 1.392 . S
C1078 C1079 1.385 . S
C1078 C1080 1.478 . S
C1079 H1073 0.930 . S
C1079 C1075 1.400 . S
C1079 C1078 1.385 . S
C1080 C1078 1.478 . S
C1080 C1082 1.381 . S
C1080 C1086 1.383 . S
C1081 C1077 1.495 . S
C1081 H1087 0.959 . S
C1081 H1088 0.961 . S
C1081 H1089 0.960 . S
C1082 C1080 1.381 . S
C1082 C1083 1.394 . S
C1082 H1090 0.930 . S
C1083 C1082 1.394 . S
C1083 C1084 1.383 . S
C1083 H1091 0.929 . S
C1084 C1083 1.383 . S
C1084 C1085 1.377 . S
C1085 H1069 0.930 . S
C1085 C1084 1.377 . S
C1085 C1086 1.379 . S
C1086 H1070 0.931 . S
C1086 C1080 1.383 . S
C1086 C1085 1.379 . S
H1087 C1081 0.959 . S
H1088 C1081 0.961 . S
H1089 C1081 0.960 . S
H1090 C1082 0.930 . S
H1091 C1083 0.929 . S
H1092 C1100 0.929 . S
H1093 C1102 0.930 . S
H1094 C1104 0.930 . S
H1095 C1107 0.929 . S
H1096 C1110 0.930 . S
H1097 C1112 0.960 . S
H1098 C1112 0.960 . S
H1099 C1112 0.960 . S
C1100 H1092 0.929 . S
C1100 C1101 1.377 . S
C1100 C1102 1.384 . S
C1101 C1100 1.377 . S
C1101 C1107 1.390 . S
C1102 H1093 0.930 . S
C1102 C1100 1.384 . S
C1102 C1103 1.372 . S
C1103 C1102 1.372 . S
C1103 C1104 1.400 . S
C1103 C1108 1.490 . S
C1104 H1094 0.930 . S
C1104 C1103 1.400 . S
C1104 C1107 1.386 . S
H1105 C1121 0.930 . S
H1106 C1122 0.931 . S
C1107 H1095 0.929 . S
C1107 C1101 1.390 . S
C1107 C1104 1.386 . S
C1108 C1103 1.490 . S
C1108 C1110 1.395 . S
C1108 C1111 1.403 . S
H1109 C1115 0.930 . S
C1110 H1096 0.930 . S
C1110 C1108 1.395 . S
C1110 C1113 1.403 . S
C1111 C1108 1.403 . S
C1111 C1112 1.524 . S
C1111 C1115 1.400 . S
C1112 H1097 0.960 . S
C1112 H1098 0.960 . S
C1112 H1099 0.960 . S
C1112 C1111 1.524 . S
C1113 C1110 1.403 . S
C1113 C1114 1.392 . S
C1113 C1117 1.495 . S
C1114 C1113 1.392 . S
C1114 C1115 1.385 . S
C1114 C1116 1.478 . S
C1115 H1109 0.930 . S
C1115 C1111 1.400 . S
C1115 C1114 1.385 . S
C1116 C1114 1.478 . S
C1116 C1118 1.381 . S
C1116 C1122 1.383 . S
C1117 C1113 1.495 . S
C1117 H1123 0.959 . S
C1117 H1124 0.961 . S
C1117 H1125 0.960 . S
C1118 C1116 1.381 . S
C1118 C1119 1.394 . S
C1118 H1126 0.930 . S
C1119 C1118 1.394 . S
C1119 C1120 1.383 . S
C1119 H1127 0.929 . S
C1120 C1119 1.383 . S
C1120 C1121 1.377 . S
C1121 H1105 0.930 . S
C1121 C1120 1.377 . S
C1121 C1122 1.379 . S
C1122 H1106 0.931 . S
C1122 C1116 1.383 . S
C1122 C1121 1.379 . S
H1123 C1117 0.959 . S
H1124 C1117 0.961 . S
H1125 C1117 0.960 . S
H1126 C1118 0.930 . S
H1127 C1119 0.929 . S
C273 N1 0.950 . S
C292 C110 0.971 . S
C309 N18 1.118 . S
C328 C159 1.157 . S
C364 C194 1.975 . S
C345 N28 2.004 . S
C381 N40 2.554 . S
C400 C233 2.547 . S
C436 C154 2.607 . S
C417 N5 2.570 . S
C472 C113 0.784 . S
C453 N14 0.842 . S
C508 C243 1.988 . S
C489 N31 2.006 . S
C544 C202 1.223 . S
C525 N41 1.249 . S
C561 N2 1.381 . S
C580 C230 1.398 . S
C616 C162 2.465 1_556 S
C597 N27 2.521 . S
C633 N44 2.405 . S
C652 C123 2.429 1_655 S
C669 N15 0.523 . S
C688 C199 0.551 . S
C724 C119 1.518 . S
C705 N57 1.508 . S
C741 N70 0.842 . S
C760 C150 0.845 . S
C777 N79 2.234 . S
C796 C203 2.262 . S
C813 N93 2.306 . S
C832 C242 2.282 . S
C849 N54 1.990 . S
C868 C163 2.064 1_566 S
C904 C122 1.627 . S
C885 N66 1.704 . S
C940 C234 1.266 . S
C921 N80 1.282 . S
C976 C193 1.621 . S
C957 N96 1.621 . S
C993 N53 1.482 . S
C1012 C239 1.503 . S
C1048 C153 2.078 . S
C1029 N83 2.102 . S
C1084 C114 2.647 . S
C1065 N92 2.637 . S
C1101 N67 0.702 . S
C1120 C190 0.712 . S
