# Generated by pormake.
# Topology apo, (3,6)-cn, num edge types: 1
# Building blocks:
#     Node 0, Type 0, BuildingBlock: BELTOD_clean_linker_0, # of connection points: 3
#     Node 1, Type 0, BuildingBlock: BELTOD_clean_linker_0, # of connection points: 3
#     Node 2, Type 0, BuildingBlock: BELTOD_clean_linker_0, # of connection points: 3
#     Node 3, Type 0, BuildingBlock: BELTOD_clean_linker_0, # of connection points: 3
#     Node 4, Type 0, BuildingBlock: BELTOD_clean_linker_0, # of connection points: 3
#     Node 5, Type 0, BuildingBlock: BELTOD_clean_linker_0, # of connection points: 3
#     Node 6, Type 0, BuildingBlock: BELTOD_clean_linker_0, # of connection points: 3
#     Node 7, Type 0, BuildingBlock: BELTOD_clean_linker_0, # of connection points: 3
#     Node 8, Type 1, BuildingBlock: KUMJIN_clean_sbu_1, # of connection points: 6
#     Node 9, Type 1, BuildingBlock: KUMJIN_clean_sbu_1, # of connection points: 6
#     Node 10, Type 1, BuildingBlock: KUMJIN_clean_sbu_1, # of connection points: 6
#     Node 11, Type 1, BuildingBlock: KUMJIN_clean_sbu_1, # of connection points: 6
#     Edge 12, Type (0, 1), BuildingBlock: XIVTED_clean_linker_0, # of connection points: 2
#     Edge 13, Type (0, 1), BuildingBlock: XIVTED_clean_linker_0, # of connection points: 2
#     Edge 14, Type (0, 1), BuildingBlock: XIVTED_clean_linker_0, # of connection points: 2
#     Edge 15, Type (0, 1), BuildingBlock: XIVTED_clean_linker_0, # of connection points: 2
#     Edge 16, Type (0, 1), BuildingBlock: XIVTED_clean_linker_0, # of connection points: 2
#     Edge 17, Type (0, 1), BuildingBlock: XIVTED_clean_linker_0, # of connection points: 2
#     Edge 18, Type (0, 1), BuildingBlock: XIVTED_clean_linker_0, # of connection points: 2
#     Edge 19, Type (0, 1), BuildingBlock: XIVTED_clean_linker_0, # of connection points: 2
#     Edge 20, Type (0, 1), BuildingBlock: XIVTED_clean_linker_0, # of connection points: 2
#     Edge 21, Type (0, 1), BuildingBlock: XIVTED_clean_linker_0, # of connection points: 2
#     Edge 22, Type (0, 1), BuildingBlock: XIVTED_clean_linker_0, # of connection points: 2
#     Edge 23, Type (0, 1), BuildingBlock: XIVTED_clean_linker_0, # of connection points: 2
#     Edge 24, Type (0, 1), BuildingBlock: XIVTED_clean_linker_0, # of connection points: 2
#     Edge 25, Type (0, 1), BuildingBlock: XIVTED_clean_linker_0, # of connection points: 2
#     Edge 26, Type (0, 1), BuildingBlock: XIVTED_clean_linker_0, # of connection points: 2
#     Edge 27, Type (0, 1), BuildingBlock: XIVTED_clean_linker_0, # of connection points: 2
#     Edge 28, Type (0, 1), BuildingBlock: XIVTED_clean_linker_0, # of connection points: 2
#     Edge 29, Type (0, 1), BuildingBlock: XIVTED_clean_linker_0, # of connection points: 2
#     Edge 30, Type (0, 1), BuildingBlock: XIVTED_clean_linker_0, # of connection points: 2
#     Edge 31, Type (0, 1), BuildingBlock: XIVTED_clean_linker_0, # of connection points: 2
#     Edge 32, Type (0, 1), BuildingBlock: XIVTED_clean_linker_0, # of connection points: 2
#     Edge 33, Type (0, 1), BuildingBlock: XIVTED_clean_linker_0, # of connection points: 2
#     Edge 34, Type (0, 1), BuildingBlock: XIVTED_clean_linker_0, # of connection points: 2
#     Edge 35, Type (0, 1), BuildingBlock: XIVTED_clean_linker_0, # of connection points: 2
# Relax obj value: 0.009
# Max RMSD: 0.110
# Mean RMSD: 0.081
data_MOF--net-apo--node1-KUMJIN_clean_sbu_1--node2-BELTOD_clean_linker_0--edge1-XIVTED_clean_linker_0
_symmetry_space_group_name_H-M    P1
_symmetry_Int_Tables_number       1
_symmetry_cell_setting            triclinic
loop_
_symmetry_equiv_pos_as_xyz
'x, y, z'
_cell_length_a     27.491746
_cell_length_b     48.64491
_cell_length_c     60.429813
_cell_angle_alpha  89.651285
_cell_angle_beta   89.952085
_cell_angle_gamma 90.071673
loop_
_atom_site_label
_atom_site_type_symbol
_atom_site_fract_x
_atom_site_fract_y
_atom_site_fract_z
_atom_type_partial_charge
P0 P 0.35372 0.35399 0.40432 0.0
H1 H 0.37205 0.31241 0.43785 0.0
H2 H 0.37166 0.3136 0.47827 0.0
H3 H 0.31731 0.39692 0.47604 0.0
H4 H 0.31837 0.39565 0.4356 0.0
H5 H 0.3505 0.33314 0.3599 0.0
H6 H 0.29058 0.30684 0.33928 0.0
H7 H 0.19589 0.30598 0.39645 0.0
H8 H 0.257 0.33217 0.41722 0.0
H9 H 0.42982 0.39543 0.40345 0.0
H10 H 0.28094 0.38855 0.38175 0.0
O11 O 0.40748 0.33952 0.39907 0.0
H12 H 0.43581 0.44071 0.38599 0.0
H13 H 0.2864 0.43403 0.36441 0.0
C14 C 0.34602 0.35405 0.43381 0.0
C15 C 0.3596 0.33081 0.4461 0.0
C16 C 0.3592 0.33151 0.46918 0.0
C17 C 0.34501 0.35549 0.48033 0.0
C18 C 0.32937 0.37836 0.4679 0.0
C19 C 0.32969 0.3776 0.44479 0.0
C20 C 0.30843 0.33421 0.3901 0.0
C21 C 0.31694 0.32719 0.36804 0.0
C22 C 0.28237 0.3124 0.3562 0.0
C23 C 0.23827 0.30447 0.36617 0.0
C24 C 0.22967 0.31162 0.38838 0.0
C25 C 0.26449 0.32658 0.40024 0.0
C26 C 0.35546 0.38841 0.39335 0.0
C27 C 0.3983 0.40381 0.39506 0.0
C28 C 0.40149 0.42981 0.38525 0.0
C29 C 0.36169 0.44088 0.37363 0.0
C30 C 0.31795 0.42585 0.3729 0.0
C31 C 0.31479 0.39986 0.38281 0.0
P32 P 0.30446 0.09451 0.91105 0.0
H33 H 0.31147 0.07407 0.86617 0.0
H34 H 0.26076 0.04317 0.84428 0.0
H35 H 0.15825 0.03759 0.8984 0.0
H36 H 0.20958 0.068 0.9203 0.0
H37 H 0.38813 0.13106 0.91273 0.0
H38 H 0.41044 0.17235 0.89191 0.0
H39 H 0.27165 0.17012 0.85838 0.0
H40 H 0.24995 0.12848 0.87913 0.0
H41 H 0.32655 0.07078 0.95429 0.0
H42 H 0.22769 0.13105 0.92739 0.0
O43 O 0.35656 0.07722 0.91367 0.0
H44 H 0.29074 0.0766 0.99084 0.0
H45 H 0.19152 0.13714 0.96421 0.0
C46 C 0.26424 0.0735 0.89477 0.0
C47 C 0.27785 0.06636 0.87322 0.0
C48 C 0.2487 0.04878 0.86071 0.0
C49 C 0.20538 0.03791 0.86958 0.0
C50 C 0.19164 0.04535 0.89116 0.0
C51 C 0.22086 0.06297 0.90366 0.0
C52 C 0.31792 0.12641 0.89709 0.0
C53 C 0.36244 0.13954 0.90096 0.0
C54 C 0.37499 0.16328 0.88914 0.0
C55 C 0.34301 0.17445 0.87331 0.0
C56 C 0.29749 0.16176 0.87013 0.0
C57 C 0.28496 0.13801 0.88203 0.0
C58 C 0.28022 0.10078 0.93822 0.0
C59 C 0.2976 0.08562 0.95632 0.0
C60 C 0.27717 0.08903 0.97726 0.0
C61 C 0.23852 0.10748 0.98046 0.0
C62 C 0.22117 0.12272 0.96224 0.0
C63 C 0.24196 0.11941 0.94126 0.0
P64 P 0.85298 0.14725 0.60039 0.0
H65 H 0.88158 0.18636 0.56629 0.0
H66 H 0.88316 0.184 0.52591 0.0
H67 H 0.81371 0.1043 0.5289 0.0
H68 H 0.81158 0.10705 0.56932 0.0
H69 H 0.85225 0.17071 0.64405 0.0
H70 H 0.79213 0.19657 0.66496 0.0
H71 H 0.69433 0.19404 0.60904 0.0
H72 H 0.75546 0.16811 0.58801 0.0
H73 H 0.92322 0.10285 0.59926 0.0
H74 H 0.77963 0.11609 0.62597 0.0
O75 O 0.9076 0.16044 0.60608 0.0
H76 H 0.92645 0.05793 0.61748 0.0
H77 H 0.78256 0.07114 0.64422 0.0
C78 C 0.84706 0.14677 0.57076 0.0
C79 C 0.8663 0.1685 0.55822 0.0
C80 C 0.86763 0.16699 0.53516 0.0
C81 C 0.84938 0.14373 0.52419 0.0
C82 C 0.82812 0.12248 0.53683 0.0
C83 C 0.82693 0.12401 0.55995 0.0
C84 C 0.80866 0.16805 0.61438 0.0
C85 C 0.81807 0.17596 0.63619 0.0
C86 C 0.78339 0.19045 0.64822 0.0
C87 C 0.73832 0.19725 0.6387 0.0
C88 C 0.7289 0.18929 0.61674 0.0
C89 C 0.76375 0.17456 0.60471 0.0
C90 C 0.85177 0.113 0.61168 0.0
C91 C 0.89221 0.09594 0.60887 0.0
C92 C 0.89382 0.0702 0.61917 0.0
C93 C 0.85487 0.06111 0.63244 0.0
C94 C 0.8134 0.0778 0.63439 0.0
C95 C 0.81173 0.10349 0.62394 0.0
P96 P 0.79369 0.40465 0.08806 0.0
H97 H 0.82324 0.45295 0.11308 0.0
H98 H 0.77908 0.4843 0.13733 0.0
H99 H 0.64672 0.43869 0.12605 0.0
H100 H 0.6909 0.40771 0.10111 0.0
H101 H 0.87687 0.36761 0.08638 0.0
H102 H 0.90106 0.32803 0.10883 0.0
H103 H 0.76677 0.33394 0.14573 0.0
H104 H 0.74327 0.37373 0.12346 0.0
H105 H 0.77149 0.4381 0.04951 0.0
H106 H 0.74386 0.35504 0.07149 0.0
O107 O 0.8457 0.41984 0.08059 0.0
H108 H 0.73379 0.42789 0.01381 0.0
H109 H 0.70652 0.34458 0.03577 0.0
C110 C 0.76019 0.42822 0.1051 0.0
C111 C 0.78462 0.44983 0.11557 0.0
C112 C 0.75944 0.4677 0.12947 0.0
C113 C 0.7096 0.46384 0.13352 0.0
C114 C 0.68522 0.44196 0.12324 0.0
C115 C 0.7103 0.42441 0.10895 0.0
C116 C 0.80885 0.37408 0.10358 0.0
C117 C 0.85261 0.36037 0.09929 0.0
C118 C 0.86622 0.33758 0.11204 0.0
C119 C 0.83606 0.32795 0.12926 0.0
C120 C 0.7913 0.34117 0.13292 0.0
C121 C 0.77774 0.36394 0.12012 0.0
C122 C 0.76101 0.39726 0.06299 0.0
C123 C 0.75704 0.4177 0.04667 0.0
C124 C 0.73573 0.4118 0.02625 0.0
C125 C 0.71762 0.38535 0.02187 0.0
C126 C 0.7199 0.3652 0.03867 0.0
C127 C 0.74148 0.37111 0.05907 0.0
P128 P 0.78293 0.6045 0.58858 0.0
H129 H 0.80281 0.64617 0.55496 0.0
H130 H 0.76664 0.65555 0.51868 0.0
H131 H 0.65668 0.59396 0.53175 0.0
H132 H 0.69227 0.58519 0.56793 0.0
H133 H 0.87225 0.61522 0.61281 0.0
H134 H 0.89823 0.65237 0.63679 0.0
H135 H 0.75996 0.69293 0.62671 0.0
H136 H 0.73533 0.65603 0.60167 0.0
H137 H 0.77081 0.54519 0.586 0.0
H138 H 0.71842 0.61079 0.62732 0.0
O139 O 0.83271 0.5884 0.57962 0.0
H140 H 0.72754 0.51171 0.60896 0.0
H141 H 0.67614 0.57739 0.65075 0.0
C142 C 0.75001 0.61522 0.56426 0.0
C143 C 0.77017 0.63522 0.55019 0.0
C144 C 0.74974 0.64035 0.52937 0.0
C145 C 0.70885 0.62543 0.52221 0.0
C146 C 0.68771 0.60614 0.53679 0.0
C147 C 0.7082 0.60102 0.55756 0.0
C148 C 0.8022 0.63311 0.6052 0.0
C149 C 0.84777 0.6323 0.6155 0.0
C150 C 0.86232 0.65346 0.6295 0.0
C151 C 0.83113 0.6757 0.63392 0.0
C152 C 0.78529 0.67641 0.62349 0.0
C153 C 0.77102 0.65529 0.60922 0.0
C154 C 0.74882 0.5804 0.60523 0.0
C155 C 0.75023 0.55237 0.60011 0.0
C156 C 0.72559 0.53324 0.61331 0.0
C157 C 0.69889 0.5418 0.6319 0.0
C158 C 0.69617 0.57008 0.63652 0.0
C159 C 0.72075 0.58923 0.62322 0.0
P160 P 0.82476 0.86058 0.09968 0.0
H161 H 0.86286 0.87081 0.14347 0.0
H162 H 0.87475 0.91228 0.16504 0.0
H163 H 0.80326 0.95996 0.11394 0.0
H164 H 0.79264 0.91804 0.09212 0.0
H165 H 0.81905 0.80129 0.10531 0.0
H166 H 0.76072 0.77131 0.12346 0.0
H167 H 0.66479 0.84062 0.13347 0.0
H168 H 0.72529 0.87087 0.11604 0.0
H169 H 0.88215 0.89684 0.07206 0.0
H170 H 0.76533 0.83884 0.06279 0.0
O171 O 0.87722 0.8441 0.1038 0.0
H172 H 0.8903 0.90211 0.03211 0.0
H173 H 0.77372 0.84378 0.02249 0.0
C174 C 0.82784 0.89142 0.11603 0.0
C175 C 0.84956 0.89017 0.13694 0.0
C176 C 0.85594 0.91398 0.14936 0.0
C177 C 0.84015 0.93967 0.14127 0.0
C178 C 0.81665 0.94067 0.12055 0.0
C179 C 0.81034 0.91669 0.10808 0.0
C180 C 0.77691 0.83837 0.10969 0.0
C181 C 0.78534 0.81006 0.11126 0.0
C182 C 0.75146 0.79281 0.12152 0.0
C183 C 0.70776 0.8034 0.13015 0.0
C184 C 0.69835 0.83173 0.12748 0.0
C185 C 0.7327 0.84906 0.11733 0.0
C186 C 0.82267 0.86781 0.07042 0.0
C187 C 0.85753 0.88565 0.0614 0.0
C188 C 0.86254 0.88839 0.03852 0.0
C189 C 0.83304 0.87311 0.0241 0.0
C190 C 0.7968 0.85593 0.03317 0.0
C191 C 0.79194 0.85313 0.0562 0.0
P192 P 0.27782 0.89638 0.41674 0.0
H193 H 0.30217 0.85544 0.45002 0.0
H194 H 0.2655 0.84249 0.4855 0.0
H195 H 0.14992 0.90088 0.47429 0.0
H196 H 0.18569 0.91316 0.43851 0.0
H197 H 0.35647 0.88942 0.38511 0.0
H198 H 0.38189 0.85105 0.36186 0.0
H199 H 0.26536 0.80138 0.38871 0.0
H200 H 0.23975 0.84002 0.41179 0.0
H201 H 0.24192 0.95182 0.42472 0.0
H202 H 0.23875 0.89351 0.37129 0.0
O203 O 0.32777 0.91293 0.42494 0.0
H204 H 0.19925 0.98524 0.40167 0.0
H205 H 0.19981 0.92732 0.34757 0.0
C206 C 0.24668 0.88516 0.4415 0.0
C207 C 0.26842 0.86509 0.45498 0.0
C208 C 0.24749 0.85771 0.47524 0.0
C209 C 0.20494 0.87073 0.4826 0.0
C210 C 0.1829 0.89066 0.46901 0.0
C211 C 0.20343 0.89768 0.44854 0.0
C212 C 0.297 0.86735 0.40053 0.0
C213 C 0.33664 0.8702 0.38612 0.0
C214 C 0.35088 0.84834 0.37272 0.0
C215 C 0.32571 0.82318 0.37353 0.0
C216 C 0.28583 0.82041 0.38797 0.0
C217 C 0.27122 0.84245 0.40118 0.0
C218 C 0.24321 0.92007 0.39988 0.0
C219 C 0.23199 0.94621 0.408 0.0
C220 C 0.20814 0.96548 0.39462 0.0
C221 C 0.19614 0.95928 0.37253 0.0
C222 C 0.20744 0.93289 0.36453 0.0
C223 C 0.2303 0.91345 0.37811 0.0
P224 P 0.33554 0.64257 0.90323 0.0
H225 H 0.40857 0.62095 0.87307 0.0
H226 H 0.42451 0.57493 0.85906 0.0
H227 H 0.29788 0.5442 0.89357 0.0
H228 H 0.28238 0.59058 0.90804 0.0
H229 H 0.30626 0.6994 0.90619 0.0
H230 H 0.24465 0.72659 0.88713 0.0
H231 H 0.19222 0.65326 0.85477 0.0
H232 H 0.25506 0.62632 0.8735 0.0
H233 H 0.40386 0.62598 0.93688 0.0
H234 H 0.25339 0.65074 0.93403 0.0
O235 O 0.38552 0.66128 0.89865 0.0
H236 H 0.40016 0.62513 0.97716 0.0
H237 H 0.24912 0.64963 0.97451 0.0
C238 C 0.34452 0.60905 0.8917 0.0
C239 C 0.38421 0.60439 0.87771 0.0
C240 C 0.39347 0.57807 0.86981 0.0
C241 C 0.36278 0.55607 0.87553 0.0
C242 C 0.32212 0.56088 0.88905 0.0
C243 C 0.31327 0.58725 0.89725 0.0
C244 C 0.28562 0.66099 0.89103 0.0
C245 C 0.28119 0.68915 0.89513 0.0
C246 C 0.24563 0.70463 0.88435 0.0
C247 C 0.21358 0.69214 0.86931 0.0
C248 C 0.21683 0.66358 0.86598 0.0
C249 C 0.25263 0.64811 0.87678 0.0
C250 C 0.32931 0.63902 0.9326 0.0
C251 C 0.36983 0.63091 0.94499 0.0
C252 C 0.36749 0.63018 0.96801 0.0
C253 C 0.32438 0.63747 0.97902 0.0
C254 C 0.283 0.64429 0.96646 0.0
C255 C 0.28541 0.64495 0.94335 0.0
Eu256 Eu 0.06166 0.13486 0.22815 0.0
C257 C 0.85037 0.10576 0.25183 0.0
N258 N 0.87007 0.13133 0.25006 0.0
C259 C 0.80272 0.14659 0.22817 0.0
C260 C 0.80606 0.0995 0.24127 0.0
C261 C 0.84682 0.15184 0.23884 0.0
C262 C 0.78233 0.12028 0.22931 0.0
C263 C 0.85532 0.05901 0.26596 0.0
C264 C 0.87517 0.08567 0.26392 0.0
C265 C 0.81138 0.05266 0.25528 0.0
C266 C 0.78685 0.07282 0.24299 0.0
Eu267 Eu 0.94327 0.13834 0.26915 0.0
N268 N 0.91797 0.09225 0.27399 0.0
C269 C 0.87978 0.03962 0.27901 0.0
C270 C 0.93998 0.07398 0.28795 0.0
C271 C 0.92191 0.04726 0.29029 0.0
H272 H 0.86229 0.17225 0.2382 0.0
H273 H 0.93994 0.03275 0.30115 0.0
H274 H 0.13452 0.08571 0.24998 0.0
H275 H 0.10329 0.24076 0.2053 0.0
H276 H 0.97034 0.08008 0.298 0.0
H277 H 0.86566 0.01895 0.28102 0.0
H278 H 0.05265 0.19896 0.20846 0.0
H279 H 0.7844 0.16283 0.21914 0.0
H280 H 0.79578 0.03225 0.25662 0.0
H281 H 0.75286 0.06761 0.23497 0.0
H282 H 0.21699 0.08199 0.26568 0.0
H283 H 0.74815 0.11628 0.22101 0.0
H284 H 0.18717 0.24075 0.22017 0.0
N285 N 0.14023 0.12857 0.2433 0.0
C286 C 0.17009 0.15091 0.24258 0.0
C287 C 0.20407 0.10156 0.25944 0.0
C288 C 0.21808 0.14948 0.25074 0.0
C289 C 0.15696 0.10386 0.2509 0.0
C290 C 0.23465 0.12451 0.25952 0.0
N291 N 0.10631 0.17614 0.22585 0.0
C292 C 0.08876 0.19897 0.21535 0.0
C293 C 0.18335 0.19853 0.23168 0.0
C294 C 0.153 0.17521 0.23322 0.0
C295 C 0.16498 0.22241 0.22168 0.0
C296 C 0.11759 0.22255 0.21334 0.0
H297 H 0.27126 0.12258 0.26598 0.0
H298 H 0.28508 0.17212 0.25588 0.0
H299 H 0.25467 0.21501 0.23916 0.0
O300 O 0.05573 0.14013 0.19245 0.0
O301 O 0.06679 0.16783 0.25464 0.0
O302 O 0.00383 0.16546 0.28046 0.0
O303 O 0.11005 0.11257 0.20581 0.0
O304 O 0.99442 0.15789 0.21678 0.0
O305 O 0.9559 0.17607 0.24755 0.0
O306 O 0.91819 0.13359 0.30345 0.0
O307 O 0.93803 0.12121 0.23413 0.0
O308 O 0.0102 0.09865 0.23102 0.0
O309 O 0.89264 0.16821 0.28327 0.0
O310 O 0.01344 0.11982 0.28272 0.0
O311 O 0.04898 0.0998 0.25227 0.0
C312 C 0.04518 0.1753 0.27309 0.0
C313 C 0.07964 0.10338 0.17003 0.0
C314 C 0.08888 0.09144 0.13113 0.0
C315 C 0.05619 0.06947 0.1343 0.0
C316 C 0.0475 0.08128 0.173 0.0
C317 C 0.03581 0.06442 0.15515 0.0
C318 C 0.10041 0.10829 0.14919 0.0
C319 C 0.968 0.17697 0.22643 0.0
C320 C 0.09 0.12257 0.18799 0.0
C321 C 0.24817 0.17283 0.24962 0.0
C322 C 0.23089 0.19726 0.24008 0.0
C323 C 0.96371 0.10059 0.2267 0.0
C324 C 0.86286 0.16579 0.32131 0.0
C325 C 0.84172 0.16509 0.36061 0.0
C326 C 0.80679 0.18556 0.3566 0.0
C327 C 0.82795 0.1864 0.31779 0.0
C328 C 0.87008 0.15534 0.34291 0.0
C329 C 0.80018 0.1962 0.33535 0.0
C330 C 0.04397 0.10226 0.27379 0.0
C331 C 0.89199 0.15583 0.30245 0.0
H332 H 0.04686 0.056 0.12074 0.0
H333 H 0.03124 0.07726 0.18901 0.0
H334 H 0.01079 0.04744 0.15746 0.0
H335 H 0.12469 0.12568 0.14695 0.0
H336 H 0.78486 0.19352 0.37002 0.0
H337 H 0.82195 0.19492 0.30142 0.0
H338 H 0.89718 0.13959 0.34594 0.0
H339 H 0.77337 0.21209 0.33249 0.0
Eu340 Eu 0.45492 0.36833 0.7358 0.0
C341 C 0.67617 0.38413 0.75684 0.0
N342 N 0.6499 0.36043 0.75707 0.0
C343 C 0.71307 0.3372 0.73732 0.0
C344 C 0.7216 0.38543 0.746 0.0
C345 C 0.66807 0.33696 0.74809 0.0
C346 C 0.73983 0.36159 0.73613 0.0
C347 C 0.68246 0.43254 0.7659 0.0
C348 C 0.65675 0.40742 0.76682 0.0
C349 C 0.72761 0.43388 0.75505 0.0
C350 C 0.74717 0.4104 0.74519 0.0
Eu351 Eu 0.5751 0.36148 0.77595 0.0
N352 N 0.61242 0.40567 0.77693 0.0
C353 C 0.66199 0.45569 0.77582 0.0
C354 C 0.59307 0.42815 0.78711 0.0
C355 C 0.61726 0.45343 0.78655 0.0
H356 H 0.64823 0.31792 0.74954 0.0
H357 H 0.60141 0.47117 0.79452 0.0
H358 H 0.37345 0.41641 0.74942 0.0
H359 H 0.41638 0.26386 0.70847 0.0
H360 H 0.55931 0.42701 0.79593 0.0
H361 H 0.68056 0.47535 0.77542 0.0
H362 H 0.46414 0.30664 0.71204 0.0
H363 H 0.7272 0.31856 0.73005 0.0
H364 H 0.74772 0.45304 0.75419 0.0
H365 H 0.78203 0.41179 0.73687 0.0
H366 H 0.28946 0.41947 0.76386 0.0
H367 H 0.77461 0.36175 0.72768 0.0
H368 H 0.33401 0.26085 0.72487 0.0
N369 N 0.3737 0.37289 0.74844 0.0
C370 C 0.34589 0.34983 0.74867 0.0
C371 C 0.30517 0.39964 0.76016 0.0
C372 C 0.29695 0.35057 0.75571 0.0
C373 C 0.35318 0.39782 0.75265 0.0
C374 C 0.27719 0.37579 0.76216 0.0
N375 N 0.41083 0.32687 0.73146 0.0
C376 C 0.42879 0.30527 0.71967 0.0
C377 C 0.33582 0.30234 0.73765 0.0
C378 C 0.36484 0.32613 0.73961 0.0
C379 C 0.35515 0.2795 0.72675 0.0
C380 C 0.40162 0.28112 0.71747 0.0
H381 H 0.23971 0.37727 0.76758 0.0
H382 H 0.23111 0.32666 0.76042 0.0
H383 H 0.26531 0.28432 0.74471 0.0
O384 O 0.45856 0.36516 0.69956 0.0
O385 O 0.45921 0.33104 0.75861 0.0
O386 O 0.5014 0.34752 0.78861 0.0
O387 O 0.41839 0.39808 0.71447 0.0
O388 O 0.52317 0.34688 0.72351 0.0
O389 O 0.55682 0.32525 0.75399 0.0
O390 O 0.61108 0.36539 0.80809 0.0
O391 O 0.58126 0.38099 0.74201 0.0
O392 O 0.50858 0.40271 0.74164 0.0
O393 O 0.61025 0.3262 0.79149 0.0
O394 O 0.51391 0.38658 0.7909 0.0
O395 O 0.45274 0.39772 0.76524 0.0
C396 C 0.47135 0.32983 0.77963 0.0
C397 C 0.38567 0.37913 0.68196 0.0
C398 C 0.35193 0.37007 0.64541 0.0
C399 C 0.30552 0.36726 0.65494 0.0
C400 C 0.33882 0.37632 0.69108 0.0
C401 C 0.29911 0.37044 0.67763 0.0
C402 C 0.39201 0.37617 0.65902 0.0
C403 C 0.54703 0.32626 0.73266 0.0
C404 C 0.42777 0.38505 0.69629 0.0
C405 C 0.26862 0.32655 0.7549 0.0
C406 C 0.28805 0.30246 0.74589 0.0
C407 C 0.55341 0.40082 0.73469 0.0
C408 C 0.60642 0.32556 0.83078 0.0
C409 C 0.60746 0.32444 0.87135 0.0
C410 C 0.58119 0.29958 0.8708 0.0
C411 C 0.57994 0.30082 0.8308 0.0
C412 C 0.62003 0.33727 0.85113 0.0
C413 C 0.56745 0.288 0.8507 0.0
C414 C 0.4742 0.40001 0.7848 0.0
C415 C 0.62025 0.3392 0.80973 0.0
H416 H 0.27401 0.36296 0.64477 0.0
H417 H 0.33259 0.37883 0.70856 0.0
H418 H 0.26319 0.36842 0.68482 0.0
H419 H 0.42802 0.37824 0.65187 0.0
H420 H 0.5718 0.28875 0.88592 0.0
H421 H 0.56873 0.2913 0.81547 0.0
H422 H 0.63993 0.35652 0.85114 0.0
H423 H 0.54721 0.2689 0.85054 0.0
Eu424 Eu 0.05112 0.86624 0.7325 0.0
C425 C 0.84532 0.82573 0.75468 0.0
N426 N 0.86089 0.8521 0.75254 0.0
C427 C 0.79403 0.86249 0.72853 0.0
C428 C 0.80419 0.81637 0.74302 0.0
C429 C 0.83526 0.87075 0.74031 0.0
C430 C 0.77871 0.83511 0.7297 0.0
C431 C 0.85541 0.78066 0.7713 0.0
C432 C 0.87082 0.80813 0.76857 0.0
C433 C 0.8154 0.77094 0.75916 0.0
C434 C 0.78981 0.78877 0.74508 0.0
Eu435 Eu 0.93174 0.86427 0.7721 0.0
N436 N 0.90935 0.81818 0.7801 0.0
C437 C 0.87988 0.76397 0.78658 0.0
C438 C 0.9307 0.80263 0.79625 0.0
C439 C 0.91712 0.77517 0.79939 0.0
H440 H 0.84697 0.89193 0.73947 0.0
H441 H 0.93492 0.76278 0.81192 0.0
H442 H 0.12782 0.81906 0.7553 0.0
H443 H 0.09054 0.97312 0.71224 0.0
H444 H 0.95749 0.81145 0.8071 0.0
H445 H 0.86918 0.74275 0.78917 0.0
H446 H 0.04617 0.92876 0.7101 0.0
H447 H 0.77417 0.87721 0.71854 0.0
H448 H 0.80335 0.74982 0.76089 0.0
H449 H 0.75861 0.7811 0.73607 0.0
H450 H 0.20019 0.81859 0.77924 0.0
H451 H 0.74691 0.82872 0.72047 0.0
H452 H 0.1617 0.9775 0.73708 0.0
N453 N 0.12375 0.86272 0.75356 0.0
C454 C 0.14799 0.8867 0.75707 0.0
C455 C 0.1854 0.83796 0.77346 0.0
C456 C 0.19087 0.88733 0.76987 0.0
C457 C 0.14356 0.83835 0.76032 0.0
C458 C 0.20864 0.86262 0.77864 0.0
N459 N 0.09132 0.90897 0.73378 0.0
C460 C 0.07727 0.9307 0.72091 0.0
C461 C 0.15811 0.93518 0.74836 0.0
C462 C 0.13191 0.91038 0.7465 0.0
C463 C 0.14248 0.95808 0.73612 0.0
C464 C 0.1023 0.9557 0.72209 0.0
H465 H 0.24143 0.86223 0.78857 0.0
H466 H 0.24836 0.91324 0.78275 0.0
H467 H 0.21965 0.95515 0.76389 0.0
O468 O 0.04464 0.86695 0.69637 0.0
O469 O 0.03233 0.90219 0.75487 0.0
O470 O 0.003 0.8804 0.78552 0.0
O471 O 0.1119 0.8541 0.71155 0.0
O472 O 0.98275 0.8863 0.71904 0.0
O473 O 0.93763 0.90143 0.74921 0.0
O474 O 0.89261 0.86246 0.8037 0.0
O475 O 0.9303 0.84742 0.737 0.0
O476 O 0.00507 0.82767 0.73284 0.0
O477 O 0.8924 0.89992 0.78447 0.0
O478 O 0.00174 0.84567 0.78557 0.0
O479 O 0.04219 0.82872 0.75499 0.0
C480 C 0.02725 0.90066 0.7764 0.0
C481 C 0.09314 0.83538 0.67666 0.0
C482 C 0.10889 0.82222 0.63828 0.0
C483 C 0.10947 0.79445 0.64512 0.0
C484 C 0.09299 0.80762 0.68299 0.0
C485 C 0.10109 0.78728 0.66723 0.0
C486 C 0.10021 0.84255 0.65435 0.0
C487 C 0.9506 0.90287 0.72818 0.0
C488 C 0.08812 0.85728 0.69312 0.0
C489 C 0.21567 0.91232 0.77277 0.0
C490 C 0.1994 0.93618 0.76199 0.0
C491 C 0.95786 0.82742 0.72973 0.0
C492 C 0.89874 0.90408 0.82344 0.0
C493 C 0.90299 0.90846 0.86372 0.0
C494 C 0.93427 0.93114 0.86105 0.0
C495 C 0.93021 0.92679 0.8213 0.0
C496 C 0.88481 0.89516 0.84478 0.0
C497 C 0.94758 0.94024 0.83999 0.0
C498 C 0.03146 0.82793 0.77625 0.0
C499 C 0.88306 0.88865 0.80363 0.0
H500 H 0.11727 0.77816 0.63354 0.0
H501 H 0.08729 0.80173 0.70012 0.0
H502 H 0.10162 0.76588 0.67222 0.0
H503 H 0.09898 0.86407 0.64967 0.0
H504 H 0.94838 0.94193 0.8753 0.0
H505 H 0.94203 0.93403 0.80518 0.0
H506 H 0.86124 0.87741 0.84662 0.0
H507 H 0.97191 0.95762 0.83815 0.0
Eu508 Eu 0.43493 0.63479 0.23305 0.0
C509 C 0.64591 0.66558 0.24992 0.0
N510 N 0.62618 0.64003 0.25157 0.0
C511 C 0.69077 0.62141 0.22971 0.0
C512 C 0.688 0.67021 0.23708 0.0
C513 C 0.64856 0.61789 0.24233 0.0
C514 C 0.71033 0.64772 0.22688 0.0
C515 C 0.64122 0.71418 0.25825 0.0
C516 C 0.62271 0.68725 0.26045 0.0
C517 C 0.68265 0.71899 0.24513 0.0
C518 C 0.70607 0.69706 0.23465 0.0
Eu519 Eu 0.55414 0.63578 0.27241 0.0
N520 N 0.58204 0.68202 0.27273 0.0
C521 C 0.61766 0.7355 0.26937 0.0
C522 C 0.56096 0.70248 0.28472 0.0
C523 C 0.57781 0.72955 0.28291 0.0
H524 H 0.63394 0.5975 0.24475 0.0
H525 H 0.56031 0.74577 0.29214 0.0
H526 H 0.3587 0.68274 0.25415 0.0
H527 H 0.39672 0.52846 0.21175 0.0
H528 H 0.53177 0.69812 0.29607 0.0
H529 H 0.63062 0.75649 0.26803 0.0
H530 H 0.44416 0.57169 0.21249 0.0
H531 H 0.70815 0.60384 0.22217 0.0
H532 H 0.6971 0.73959 0.24313 0.0
H533 H 0.73812 0.70108 0.22469 0.0
H534 H 0.27917 0.68453 0.27271 0.0
H535 H 0.74279 0.65043 0.21692 0.0
H536 H 0.3172 0.5258 0.23089 0.0
N537 N 0.3584 0.63922 0.25075 0.0
C538 C 0.33114 0.61589 0.25209 0.0
C539 C 0.29368 0.66501 0.26732 0.0
C540 C 0.28436 0.61617 0.26173 0.0
C541 C 0.33944 0.66381 0.25726 0.0
C542 C 0.26625 0.64103 0.26983 0.0
N543 N 0.39316 0.59254 0.23278 0.0
C544 C 0.40992 0.57047 0.22121 0.0
C545 C 0.32014 0.56789 0.24236 0.0
C546 C 0.3487 0.59199 0.24255 0.0
C547 C 0.3381 0.54469 0.23144 0.0
C548 C 0.38299 0.54608 0.22063 0.0
H549 H 0.23048 0.6421 0.27731 0.0
H550 H 0.22056 0.59179 0.26969 0.0
H551 H 0.25192 0.54952 0.25272 0.0
O552 O 0.44443 0.63161 0.19737 0.0
O553 O 0.44567 0.59983 0.25762 0.0
O554 O 0.48277 0.62079 0.28695 0.0
O555 O 0.37943 0.65047 0.21051 0.0
O556 O 0.50243 0.61233 0.22136 0.0
O557 O 0.54164 0.59652 0.25293 0.0
O558 O 0.59103 0.64213 0.30416 0.0
O559 O 0.55558 0.65064 0.23662 0.0
O560 O 0.48304 0.67255 0.23316 0.0
O561 O 0.59647 0.60302 0.2877 0.0
O562 O 0.4869 0.65702 0.28622 0.0
O563 O 0.44388 0.67203 0.25542 0.0
C564 C 0.4548 0.60146 0.27887 0.0
C565 C 0.40708 0.66554 0.17562 0.0
C566 C 0.39548 0.67816 0.13699 0.0
C567 C 0.41363 0.70459 0.14155 0.0
C568 C 0.42534 0.69186 0.18002 0.0
C569 C 0.42854 0.71132 0.16297 0.0
C570 C 0.39221 0.65881 0.15423 0.0
C571 C 0.53144 0.59489 0.23165 0.0
C572 C 0.4041 0.6444 0.19283 0.0
C573 C 0.25648 0.59195 0.26229 0.0
C574 C 0.27429 0.56788 0.25259 0.0
C575 C 0.52949 0.67094 0.22869 0.0
C576 C 0.59214 0.60222 0.32684 0.0
C577 C 0.59485 0.59957 0.3673 0.0
C578 C 0.56691 0.57535 0.36647 0.0
C579 C 0.56409 0.57801 0.32658 0.0
C580 C 0.60774 0.61284 0.3473 0.0
C581 C 0.5518 0.56469 0.34627 0.0
C582 C 0.45411 0.673 0.27672 0.0
C583 C 0.60446 0.61654 0.30589 0.0
H584 H 0.41702 0.71985 0.12851 0.0
H585 H 0.43705 0.69728 0.19653 0.0
H586 H 0.44282 0.73161 0.16634 0.0
H587 H 0.37778 0.63844 0.15108 0.0
H588 H 0.55722 0.56437 0.38149 0.0
H589 H 0.55134 0.56934 0.31117 0.0
H590 H 0.62911 0.63157 0.34766 0.0
H591 H 0.53038 0.54601 0.34587 0.0
H592 H 0.13079 0.95132 0.33841 0.0
H593 H 0.07673 0.10934 0.31596 0.0
H594 H 0.20811 0.01567 0.37276 0.0
H595 H 0.06337 0.04842 0.26477 0.0
H596 H 0.1141 0.07455 0.34016 0.0
H597 H 0.09526 0.98606 0.31404 0.0
C598 C 0.14068 0.97262 0.34085 0.0
C599 C 0.17288 0.98033 0.35782 0.0
C600 C 0.10313 0.06888 0.3236 0.0
C601 C 0.13077 0.02033 0.33022 0.0
C602 C 0.08174 0.08864 0.30986 0.0
C603 C 0.0674 0.08172 0.28835 0.0
C604 C 0.10908 0.0419 0.31592 0.0
C605 C 0.07452 0.05463 0.28119 0.0
C606 C 0.12004 0.99246 0.32695 0.0
C607 C 0.1829 0.00854 0.36032 0.0
N608 N 0.09454 0.03562 0.29501 0.0
N609 N 0.16174 0.02748 0.34678 0.0
H610 H 0.30164 0.52172 0.85321 0.0
H611 H 0.50642 0.41039 0.82704 0.0
H612 H 0.44819 0.52796 0.8781 0.0
H613 H 0.39401 0.43376 0.78087 0.0
H614 H 0.47487 0.44435 0.85296 0.0
H615 H 0.3242 0.47906 0.8342 0.0
C616 C 0.33823 0.51377 0.85501 0.0
C617 C 0.37338 0.5284 0.86691 0.0
C618 C 0.45674 0.44153 0.83722 0.0
C619 C 0.39915 0.48 0.84549 0.0
C620 C 0.47474 0.42225 0.82231 0.0
C621 C 0.45301 0.41905 0.80138 0.0
C622 C 0.41594 0.45723 0.83145 0.0
C623 C 0.41176 0.43495 0.79659 0.0
C624 C 0.3511 0.48963 0.84412 0.0
C625 C 0.42034 0.51738 0.86877 0.0
N626 N 0.39457 0.45331 0.81146 0.0
N627 N 0.43201 0.49386 0.85803 0.0
H628 H 0.6096 0.54461 0.65252 0.0
H629 H 0.64033 0.39873 0.71299 0.0
H630 H 0.735 0.49205 0.6454 0.0
H631 H 0.51279 0.44948 0.7206 0.0
H632 H 0.67503 0.43304 0.68816 0.0
H633 H 0.5731 0.51047 0.67746 0.0
C634 C 0.62953 0.52595 0.65622 0.0
C635 C 0.67544 0.5212 0.64677 0.0
C636 C 0.63944 0.43675 0.69522 0.0
C637 C 0.6337 0.48198 0.67517 0.0
C638 C 0.61965 0.41718 0.70952 0.0
C639 C 0.57375 0.42134 0.71908 0.0
C640 C 0.61314 0.46074 0.69026 0.0
C641 C 0.54833 0.44545 0.71362 0.0
C642 C 0.60854 0.50641 0.67038 0.0
C643 C 0.69924 0.49647 0.65198 0.0
N644 N 0.56842 0.4643 0.69958 0.0
N645 N 0.67815 0.47787 0.66581 0.0
H646 H 0.83787 0.94641 0.18641 0.0
H647 H 0.91313 0.10463 0.18803 0.0
H648 H 0.86517 0.99132 0.12576 0.0
H649 H 0.96033 0.04652 0.23757 0.0
H650 H 0.8774 0.06645 0.16677 0.0
H651 H 0.86373 0.98658 0.2074 0.0
C652 C 0.84924 0.96466 0.17744 0.0
C653 C 0.8501 0.96516 0.15418 0.0
C654 C 0.89523 0.06218 0.18239 0.0
C655 C 0.87866 0.01151 0.1783 0.0
C656 C 0.91533 0.08384 0.19449 0.0
C657 C 0.93961 0.07845 0.21442 0.0
C658 C 0.89825 0.03522 0.19074 0.0
C659 C 0.94207 0.05132 0.22215 0.0
C660 C 0.86379 0.98761 0.18949 0.0
C661 C 0.86366 0.98989 0.14362 0.0
N662 N 0.92127 0.0307 0.21039 0.0
N663 N 0.8776 0.01206 0.15576 0.0
H664 H 0.89095 0.01161 0.61867 0.0
H665 H 0.89151 0.9458 0.74033 0.0
H666 H 0.82944 0.05181 0.67566 0.0
H667 H 0.95975 0.90883 0.68339 0.0
H668 H 0.86001 0.98235 0.71633 0.0
H669 H 0.90749 0.97115 0.64152 0.0
C670 C 0.88064 0.01183 0.63597 0.0
C671 C 0.85927 0.03521 0.64533 0.0
C672 C 0.88164 0.96612 0.70911 0.0
C673 C 0.87818 0.989 0.67164 0.0
C674 C 0.89964 0.94525 0.7228 0.0
C675 C 0.92877 0.92435 0.71392 0.0
C676 C 0.89281 0.96604 0.68641 0.0
C677 C 0.93791 0.92464 0.69106 0.0
C678 C 0.88999 0.98872 0.64901 0.0
C679 C 0.84582 0.03419 0.66775 0.0
N680 N 0.92023 0.94522 0.67815 0.0
N681 N 0.85596 0.01157 0.6802 0.0
H682 H 0.70739 0.51968 0.13103 0.0
H683 H 0.56503 0.54381 0.2438 0.0
H684 H 0.65256 0.45133 0.16941 0.0
H685 H 0.55761 0.60025 0.18855 0.0
H686 H 0.60864 0.51095 0.22011 0.0
H687 H 0.66428 0.5513 0.15558 0.0
C688 C 0.68632 0.51139 0.14469 0.0
C689 C 0.68324 0.48295 0.14822 0.0
C690 C 0.59722 0.53052 0.21326 0.0
C691 C 0.63444 0.51887 0.17642 0.0
C692 C 0.57261 0.54924 0.22673 0.0
C693 C 0.55747 0.57462 0.21802 0.0
C694 C 0.60764 0.53765 0.1912 0.0
C695 C 0.56815 0.58075 0.19583 0.0
C696 C 0.66164 0.52937 0.15861 0.0
C697 C 0.65537 0.47318 0.16609 0.0
N698 N 0.5929 0.5625 0.18324 0.0
N699 N 0.63222 0.49115 0.17968 0.0
H700 H 0.32853 0.45266 0.332 0.0
H701 H 0.45766 0.59995 0.3243 0.0
H702 H 0.40816 0.48837 0.38627 0.0
H703 H 0.40944 0.55339 0.26786 0.0
H704 H 0.42909 0.5628 0.34859 0.0
H705 H 0.34529 0.49367 0.30985 0.0
C706 C 0.3489 0.46931 0.3394 0.0
C707 C 0.36723 0.46698 0.361 0.0
C708 C 0.42429 0.56093 0.33087 0.0
C709 C 0.3873 0.51386 0.33554 0.0
C710 C 0.44064 0.58209 0.31699 0.0
C711 C 0.43569 0.5799 0.29394 0.0
C712 C 0.40246 0.53755 0.32164 0.0
C713 C 0.4133 0.55628 0.28545 0.0
C714 C 0.35886 0.49263 0.32666 0.0
C715 C 0.39397 0.48912 0.36957 0.0
N716 N 0.39757 0.53606 0.29927 0.0
N717 N 0.40343 0.5116 0.35678 0.0
H718 H 0.15966 0.99087 0.884 0.0
H719 H 0.05246 0.95309 0.76485 0.0
H720 H 0.18288 0.0403 0.82537 0.0
H721 H 0.05106 0.89693 0.8203 0.0
H722 H 0.09404 0.98706 0.78766 0.0
H723 H 0.11278 0.95825 0.86193 0.0
C724 C 0.15458 0.995 0.86653 0.0
C725 C 0.17539 0.01837 0.85653 0.0
C726 C 0.0847 0.96731 0.79487 0.0
C727 C 0.12216 0.98091 0.83112 0.0
C728 C 0.0613 0.94784 0.78179 0.0
C729 C 0.04949 0.92192 0.79052 0.0
C730 C 0.0957 0.961 0.81701 0.0
C731 C 0.05999 0.91659 0.81285 0.0
C732 C 0.1281 0.97625 0.85391 0.0
C733 C 0.16811 0.02241 0.83374 0.0
N734 N 0.08267 0.93594 0.82533 0.0
N735 N 0.14215 0.00388 0.82183 0.0
H736 H 0.14124 0.10967 0.99037 0.0
H737 H 0.18352 0.10462 0.12147 0.0
H738 H 0.28303 0.11006 0.02095 0.0
H739 H 0.04422 0.09081 0.09058 0.0
H740 H 0.21936 0.11247 0.08494 0.0
H741 H 0.10393 0.10899 0.02714 0.0
C742 C 0.16452 0.10998 0.00482 0.0
C743 C 0.21534 0.1097 0.00258 0.0
C744 C 0.18092 0.10779 0.08615 0.0
C745 C 0.17291 0.10858 0.0447 0.0
C746 C 0.16039 0.10342 0.107 0.0
C747 C 0.11085 0.09684 0.10907 0.0
C748 C 0.15169 0.1057 0.06718 0.0
C749 C 0.08273 0.09536 0.08973 0.0
C750 C 0.14321 0.10937 0.0258 0.0
C751 C 0.24371 0.10983 0.0219 0.0
N752 N 0.10355 0.09972 0.0696 0.0
N753 N 0.22213 0.10915 0.04213 0.0
H754 H 0.31879 0.31603 0.51058 0.0
H755 H 0.40021 0.40366 0.6161 0.0
H756 H 0.37876 0.3979 0.50574 0.0
H757 H 0.31609 0.32886 0.61987 0.0
H758 H 0.40179 0.39957 0.57563 0.0
H759 H 0.32587 0.31829 0.55079 0.0
C760 C 0.33357 0.33446 0.51798 0.0
C761 C 0.348 0.35685 0.50479 0.0
C762 C 0.38321 0.384 0.58535 0.0
C763 C 0.35608 0.35964 0.55083 0.0
C764 C 0.38264 0.38622 0.6084 0.0
C765 C 0.35765 0.36667 0.62124 0.0
C766 C 0.35899 0.36196 0.57521 0.0
C767 C 0.33518 0.34457 0.61051 0.0
C768 C 0.33745 0.33579 0.54094 0.0
C769 C 0.3665 0.38032 0.5153 0.0
N770 N 0.33626 0.34285 0.58812 0.0
N771 N 0.37005 0.38111 0.53772 0.0
H772 H 0.6363 0.35524 0.01153 0.0
H773 H 0.69248 0.35151 0.88195 0.0
H774 H 0.75546 0.3996 0.98144 0.0
H775 H 0.55593 0.32496 0.91037 0.0
H776 H 0.71712 0.36863 0.91819 0.0
H777 H 0.6077 0.34251 0.97465 0.0
C778 C 0.65641 0.36232 0.99716 0.0
C779 C 0.69837 0.37848 0.99959 0.0
C780 C 0.68168 0.35915 0.91644 0.0
C781 C 0.66586 0.364 0.9573 0.0
C782 C 0.6674 0.34949 0.89569 0.0
C783 C 0.62212 0.33648 0.89301 0.0
C784 C 0.65071 0.35559 0.93474 0.0
C785 C 0.59163 0.33421 0.91164 0.0
C786 C 0.63993 0.35519 0.97611 0.0
C787 C 0.72268 0.38734 0.98036 0.0
N788 N 0.60661 0.34345 0.93168 0.0
N789 N 0.70629 0.37982 0.96005 0.0
H790 H 0.92611 0.15791 0.49735 0.0
H791 H 0.77252 0.1415 0.3865 0.0
H792 H 0.78041 0.12494 0.49516 0.0
H793 H 0.92355 0.16524 0.38664 0.0
H794 H 0.77774 0.13119 0.42603 0.0
H795 H 0.92871 0.15751 0.45689 0.0
C796 C 0.89466 0.15056 0.48836 0.0
C797 C 0.85269 0.1418 0.49969 0.0
C798 C 0.81003 0.1383 0.41745 0.0
C799 C 0.85561 0.14105 0.45333 0.0
C800 C 0.80702 0.14412 0.39489 0.0
C801 C 0.84756 0.15436 0.38343 0.0
C802 C 0.85372 0.14321 0.42879 0.0
C803 C 0.89151 0.15733 0.39495 0.0
C804 C 0.89634 0.15013 0.46526 0.0
C805 C 0.81352 0.13187 0.48718 0.0
N806 N 0.89328 0.15218 0.41713 0.0
N807 N 0.81578 0.13203 0.46471 0.0
H808 H 0.92069 0.87194 0.00301 0.0
H809 H 0.81333 0.89468 0.88097 0.0
H810 H 0.76666 0.87643 0.98991 0.0
H811 H 0.96532 0.89986 0.89807 0.0
H812 H 0.79466 0.88252 0.91965 0.0
H813 H 0.93675 0.87681 0.96359 0.0
C814 C 0.89017 0.87407 0.99181 0.0
C815 C 0.84226 0.87428 0.99985 0.0
C816 C 0.83208 0.88617 0.91486 0.0
C817 C 0.86044 0.87966 0.95439 0.0
C818 C 0.84276 0.89295 0.8928 0.0
C819 C 0.89088 0.8986 0.88639 0.0
C820 C 0.8699 0.8848 0.93048 0.0
C821 C 0.92763 0.89616 0.90237 0.0
C822 C 0.89936 0.87671 0.96924 0.0
C823 C 0.80415 0.87626 0.98443 0.0
N824 N 0.91636 0.88957 0.92361 0.0
N825 N 0.81406 0.87911 0.96242 0.0
H826 H 0.614 0.62556 0.50789 0.0
H827 H 0.68495 0.61912 0.3794 0.0
H828 H 0.76154 0.63145 0.48381 0.0
H829 H 0.54072 0.60429 0.40503 0.0
H830 H 0.71198 0.63106 0.41682 0.0
H831 H 0.58513 0.62463 0.46971 0.0
C832 C 0.64035 0.62681 0.49459 0.0
C833 C 0.69035 0.62829 0.49915 0.0
C834 C 0.67432 0.62541 0.4142 0.0
C835 C 0.65745 0.62736 0.45525 0.0
C836 C 0.65882 0.61877 0.39282 0.0
C837 C 0.61067 0.6103 0.38914 0.0
C838 C 0.64138 0.62366 0.43197 0.0
C839 C 0.57842 0.61014 0.40718 0.0
C840 C 0.62382 0.62638 0.47276 0.0
C841 C 0.72266 0.63045 0.48116 0.0
N842 N 0.59442 0.61648 0.42778 0.0
N843 N 0.7057 0.62966 0.46003 0.0
H844 H 0.28384 0.67855 0.00357 0.0
H845 H 0.41405 0.63014 0.11526 0.0
H846 H 0.36603 0.60335 0.00993 0.0
H847 H 0.34242 0.70848 0.10725 0.0
H848 H 0.38855 0.61754 0.07803 0.0
H849 H 0.29511 0.68679 0.04301 0.0
C850 C 0.30347 0.66349 0.01334 0.0
C851 C 0.32447 0.64036 0.0034 0.0
C852 C 0.37823 0.63745 0.08442 0.0
C853 C 0.33846 0.65001 0.04844 0.0
C854 C 0.39265 0.64463 0.10571 0.0
C855 C 0.38043 0.67045 0.11434 0.0
C856 C 0.35142 0.65622 0.07163 0.0
C857 C 0.35321 0.68854 0.10111 0.0
C858 C 0.31032 0.66836 0.03582 0.0
C859 C 0.35001 0.62171 0.01685 0.0
N860 N 0.33969 0.68109 0.08038 0.0
N861 N 0.35666 0.62707 0.03865 0.0
H862 H 0.17994 0.90679 0.51515 0.0
H863 H 0.08632 0.79319 0.60046 0.0
H864 H 0.18555 0.82016 0.50064 0.0
H865 H 0.15362 0.86898 0.62171 0.0
H866 H 0.10649 0.80513 0.56226 0.0
H867 H 0.15269 0.89565 0.55286 0.0
C868 C 0.17485 0.88545 0.51985 0.0
C869 C 0.18508 0.86433 0.50485 0.0
C870 C 0.11655 0.81912 0.57537 0.0
C871 C 0.15386 0.85152 0.54772 0.0
C872 C 0.10543 0.81227 0.59727 0.0
C873 C 0.11854 0.82991 0.61466 0.0
C874 C 0.14002 0.84406 0.57065 0.0
C875 C 0.1419 0.8548 0.60908 0.0
C876 C 0.15967 0.87913 0.54135 0.0
C877 C 0.17835 0.83701 0.51179 0.0
N878 N 0.15174 0.86113 0.58759 0.0
N879 N 0.16298 0.83136 0.53273 0.0
H880 H 0.21114 0.31222 0.32306 0.0
H881 H 0.03848 0.18031 0.31788 0.0
H882 H 0.18341 0.26013 0.37979 0.0
H883 H 0.10544 0.21756 0.26058 0.0
H884 H 0.07964 0.21388 0.34135 0.0
H885 H 0.16014 0.28227 0.30062 0.0
C886 C 0.19423 0.2945 0.33082 0.0
C887 C 0.20232 0.28839 0.35326 0.0
C888 C 0.08541 0.21464 0.32363 0.0
C889 C 0.14344 0.25418 0.32766 0.0
C890 C 0.06188 0.19557 0.31021 0.0
C891 C 0.06936 0.19586 0.28721 0.0
C892 C 0.11611 0.23437 0.31395 0.0
C893 C 0.09985 0.2161 0.27819 0.0
C894 C 0.16506 0.27746 0.318 0.0
C895 C 0.17823 0.26561 0.36256 0.0
N896 N 0.12213 0.23457 0.29157 0.0
N897 N 0.15012 0.24918 0.34967 0.0
H898 H 0.32778 0.18313 0.82896 0.0
H899 H 0.47694 0.32465 0.82475 0.0
H900 H 0.39305 0.22056 0.88633 0.0
H901 H 0.41813 0.28481 0.76703 0.0
H902 H 0.44363 0.28778 0.84779 0.0
H903 H 0.3564 0.22167 0.80635 0.0
C904 C 0.34767 0.19959 0.83687 0.0
C905 C 0.35803 0.19853 0.85961 0.0
C906 C 0.4377 0.2872 0.83009 0.0
C907 C 0.39163 0.24261 0.83369 0.0
C908 C 0.4568 0.30824 0.81688 0.0
C909 C 0.45011 0.30797 0.79385 0.0
C910 C 0.41151 0.2657 0.82024 0.0
C911 C 0.42363 0.28615 0.78467 0.0
C912 C 0.36435 0.22151 0.8239 0.0
C913 C 0.38473 0.22029 0.86883 0.0
N914 N 0.40534 0.26591 0.79787 0.0
N915 N 0.40066 0.24138 0.85584 0.0
H916 H 0.71248 0.18964 0.68208 0.0
H917 H 0.55416 0.3272 0.68746 0.0
H918 H 0.68186 0.24074 0.62518 0.0
H919 H 0.58745 0.27673 0.74447 0.0
H920 H 0.59376 0.29343 0.66382 0.0
H921 H 0.66005 0.21887 0.70449 0.0
C922 C 0.69455 0.20698 0.67428 0.0
C923 C 0.70213 0.21298 0.65177 0.0
C924 C 0.59223 0.28967 0.68148 0.0
C925 C 0.6418 0.24654 0.67736 0.0
C926 C 0.56956 0.30895 0.69502 0.0
C927 C 0.56811 0.30502 0.71806 0.0
C928 C 0.61365 0.26623 0.691 0.0
C929 C 0.58836 0.28084 0.72684 0.0
C930 C 0.66446 0.22361 0.68707 0.0
C931 C 0.67706 0.23534 0.64244 0.0
N932 N 0.61061 0.26248 0.71333 0.0
N933 N 0.6484 0.25147 0.65533 0.0
H934 H 0.82598 0.32287 0.17428 0.0
H935 H 0.97185 0.18081 0.18125 0.0
H936 H 0.88298 0.28042 0.11737 0.0
H937 H 0.9154 0.22263 0.23864 0.0
H938 H 0.93746 0.21652 0.15768 0.0
H939 H 0.85552 0.28564 0.19801 0.0
C940 C 0.84427 0.30559 0.16672 0.0
C941 C 0.85204 0.30484 0.14375 0.0
C942 C 0.9325 0.21792 0.17542 0.0
C943 C 0.88663 0.26226 0.17094 0.0
C944 C 0.95224 0.19751 0.18897 0.0
C945 C 0.94673 0.19869 0.21207 0.0
C946 C 0.90699 0.23984 0.18494 0.0
C947 C 0.92065 0.22084 0.22095 0.0
C948 C 0.86144 0.28442 0.18033 0.0
C949 C 0.87673 0.2821 0.13499 0.0
N950 N 0.90184 0.24056 0.20738 0.0
N951 N 0.89318 0.26178 0.14859 0.0
H952 H 0.88565 0.67071 0.67188 0.0
H953 H 0.87677 0.82962 0.70363 0.0
H954 H 0.81165 0.73128 0.63164 0.0
H955 H 0.99014 0.77477 0.7257 0.0
H956 H 0.84236 0.79235 0.68139 0.0
H957 H 0.91458 0.70738 0.69584 0.0
C958 C 0.87561 0.69169 0.66794 0.0
C959 C 0.84659 0.69781 0.64941 0.0
C960 C 0.87473 0.7885 0.69113 0.0
C961 C 0.87878 0.73991 0.6773 0.0
C962 C 0.89416 0.80966 0.7039 0.0
C963 C 0.93624 0.80518 0.71651 0.0
C964 C 0.89738 0.76265 0.69114 0.0
C965 C 0.95778 0.77908 0.71609 0.0
C966 C 0.89197 0.7126 0.68176 0.0
C967 C 0.83358 0.72543 0.64575 0.0
N968 N 0.93801 0.75875 0.70366 0.0
N969 N 0.84981 0.74544 0.65955 0.0
H970 H 0.65114 0.81596 0.16653 0.0
H971 H 0.60384 0.66125 0.2001 0.0
H972 H 0.68714 0.74864 0.12317 0.0
H973 H 0.50633 0.72507 0.22173 0.0
H974 H 0.64245 0.69405 0.17474 0.0
H975 H 0.60317 0.78419 0.18931 0.0
C976 C 0.64855 0.79468 0.16153 0.0
C977 C 0.67401 0.78506 0.1429 0.0
C978 C 0.61236 0.70083 0.18491 0.0
C979 C 0.62022 0.7485 0.16943 0.0
C980 C 0.59053 0.6822 0.19945 0.0
C981 C 0.55184 0.69052 0.21294 0.0
C982 C 0.59601 0.72815 0.18412 0.0
C983 C 0.5359 0.71787 0.21145 0.0
C984 C 0.62134 0.77654 0.17468 0.0
C985 C 0.66954 0.75703 0.13764 0.0
N986 N 0.5584 0.73586 0.19742 0.0
N987 N 0.64384 0.73973 0.15098 0.0
H988 H 0.33714 0.76892 0.38491 0.0
H989 H 0.41715 0.72258 0.2632 0.0
H990 H 0.34895 0.8249 0.32952 0.0
H991 H 0.43946 0.67239 0.32142 0.0
H992 H 0.38233 0.75852 0.28652 0.0
H993 H 0.36504 0.73148 0.36109 0.0
C994 C 0.34528 0.77327 0.3677 0.0
C995 C 0.34098 0.80007 0.35919 0.0
C996 C 0.39471 0.73961 0.29418 0.0
C997 C 0.37288 0.75742 0.33189 0.0
C998 C 0.41431 0.71904 0.28087 0.0
C999 C 0.43113 0.69448 0.29041 0.0
C1000 C 0.39169 0.73555 0.31718 0.0
C1001 C 0.42711 0.6911 0.31342 0.0
C1002 C 0.36144 0.75195 0.35416 0.0
C1003 C 0.35237 0.80461 0.33682 0.0
N1004 N 0.40776 0.71139 0.32603 0.0
N1005 N 0.36773 0.78352 0.32394 0.0
H1006 H 0.19028 0.68717 0.8254 0.0
H1007 H 0.04662 0.82976 0.82081 0.0
H1008 H 0.15985 0.73655 0.88289 0.0
H1009 H 0.06821 0.77803 0.7639 0.0
H1010 H 0.08503 0.79481 0.84405 0.0
H1011 H 0.14151 0.71861 0.80299 0.0
C1012 C 0.17273 0.70436 0.83341 0.0
C1013 C 0.17954 0.7093 0.85607 0.0
C1014 C 0.08128 0.79102 0.8265 0.0
C1015 C 0.12448 0.74577 0.83035 0.0
C1016 C 0.05935 0.81097 0.81323 0.0
C1017 C 0.05447 0.80681 0.79039 0.0
C1018 C 0.09868 0.76673 0.81687 0.0
C1019 C 0.07174 0.78215 0.78141 0.0
C1020 C 0.14521 0.72247 0.82054 0.0
C1021 C 0.15641 0.7322 0.86542 0.0
N1022 N 0.09326 0.76307 0.79467 0.0
N1023 N 0.13024 0.74968 0.8525 0.0
loop_
_geom_bond_atom_site_label_1
_geom_bond_atom_site_label_2
_geom_bond_distance
_geom_bond_site_symmetry_2
_ccdc_geom_bond_type
P0 O11 1.490 . S
P0 C14 1.812 . S
P0 C20 1.803 . S
P0 C26 1.819 . S
H1 C15 0.941 . S
H2 C16 0.939 . S
H3 C18 0.940 . S
H4 C19 0.940 . S
H5 C21 0.939 . S
H6 C22 0.942 . S
H7 C24 0.940 . S
H8 C25 0.939 . S
H9 C27 0.941 . S
H10 C31 0.939 . S
O11 P0 1.490 . S
H12 C28 0.939 . S
H13 C30 0.940 . S
C14 P0 1.812 . S
C14 C15 1.389 . S
C14 C19 1.391 . S
C15 H1 0.941 . S
C15 C14 1.389 . S
C15 C16 1.397 . S
C16 H2 0.939 . S
C16 C15 1.397 . S
C16 C17 1.378 . S
C17 C16 1.378 . S
C17 C18 1.378 . S
C18 H3 0.940 . S
C18 C17 1.378 . S
C18 C19 1.396 . S
C19 H4 0.940 . S
C19 C14 1.391 . S
C19 C18 1.396 . S
C20 P0 1.803 . S
C20 C21 1.378 . S
C20 C25 1.400 . S
C21 H5 0.939 . S
C21 C20 1.378 . S
C21 C22 1.361 . S
C22 H6 0.942 . S
C22 C21 1.361 . S
C22 C23 1.369 . S
C23 C22 1.369 . S
C23 C24 1.404 . S
C24 H7 0.940 . S
C24 C23 1.404 . S
C24 C25 1.389 . S
C25 H8 0.939 . S
C25 C20 1.400 . S
C25 C24 1.389 . S
C26 P0 1.819 . S
C26 C27 1.391 . S
C26 C31 1.391 . S
C27 H9 0.941 . S
C27 C26 1.391 . S
C27 C28 1.396 . S
C28 H12 0.939 . S
C28 C27 1.396 . S
C28 C29 1.397 . S
C29 C28 1.397 . S
C29 C30 1.385 . S
C30 H13 0.940 . S
C30 C29 1.385 . S
C30 C31 1.388 . S
C31 H10 0.939 . S
C31 C26 1.391 . S
C31 C30 1.388 . S
P32 O43 1.490 . S
P32 C46 1.812 . S
P32 C52 1.803 . S
P32 C58 1.819 . S
H33 C47 0.941 . S
H34 C48 0.939 . S
H35 C50 0.940 . S
H36 C51 0.940 . S
H37 C53 0.939 . S
H38 C54 0.942 . S
H39 C56 0.940 . S
H40 C57 0.939 . S
H41 C59 0.941 . S
H42 C63 0.939 . S
O43 P32 1.490 . S
H44 C60 0.939 . S
H45 C62 0.940 . S
C46 P32 1.812 . S
C46 C47 1.389 . S
C46 C51 1.391 . S
C47 H33 0.941 . S
C47 C46 1.389 . S
C47 C48 1.397 . S
C48 H34 0.939 . S
C48 C47 1.397 . S
C48 C49 1.378 . S
C49 C48 1.378 . S
C49 C50 1.378 . S
C50 H35 0.940 . S
C50 C49 1.378 . S
C50 C51 1.396 . S
C51 H36 0.940 . S
C51 C46 1.391 . S
C51 C50 1.396 . S
C52 P32 1.803 . S
C52 C53 1.378 . S
C52 C57 1.400 . S
C53 H37 0.939 . S
C53 C52 1.378 . S
C53 C54 1.361 . S
C54 H38 0.942 . S
C54 C53 1.361 . S
C54 C55 1.369 . S
C55 C54 1.369 . S
C55 C56 1.404 . S
C56 H39 0.940 . S
C56 C55 1.404 . S
C56 C57 1.389 . S
C57 H40 0.939 . S
C57 C52 1.400 . S
C57 C56 1.389 . S
C58 P32 1.819 . S
C58 C59 1.391 . S
C58 C63 1.391 . S
C59 H41 0.941 . S
C59 C58 1.391 . S
C59 C60 1.396 . S
C60 H44 0.939 . S
C60 C59 1.396 . S
C60 C61 1.397 . S
C61 C60 1.397 . S
C61 C62 1.385 . S
C62 H45 0.940 . S
C62 C61 1.385 . S
C62 C63 1.388 . S
C63 H42 0.939 . S
C63 C58 1.391 . S
C63 C62 1.388 . S
P64 O75 1.490 . S
P64 C78 1.812 . S
P64 C84 1.803 . S
P64 C90 1.819 . S
H65 C79 0.941 . S
H66 C80 0.939 . S
H67 C82 0.940 . S
H68 C83 0.940 . S
H69 C85 0.939 . S
H70 C86 0.942 . S
H71 C88 0.940 . S
H72 C89 0.939 . S
H73 C91 0.941 . S
H74 C95 0.939 . S
O75 P64 1.490 . S
H76 C92 0.939 . S
H77 C94 0.940 . S
C78 P64 1.812 . S
C78 C79 1.389 . S
C78 C83 1.391 . S
C79 H65 0.941 . S
C79 C78 1.389 . S
C79 C80 1.397 . S
C80 H66 0.939 . S
C80 C79 1.397 . S
C80 C81 1.378 . S
C81 C80 1.378 . S
C81 C82 1.378 . S
C82 H67 0.940 . S
C82 C81 1.378 . S
C82 C83 1.396 . S
C83 H68 0.940 . S
C83 C78 1.391 . S
C83 C82 1.396 . S
C84 P64 1.803 . S
C84 C85 1.378 . S
C84 C89 1.400 . S
C85 H69 0.939 . S
C85 C84 1.378 . S
C85 C86 1.361 . S
C86 H70 0.942 . S
C86 C85 1.361 . S
C86 C87 1.369 . S
C87 C86 1.369 . S
C87 C88 1.404 . S
C88 H71 0.940 . S
C88 C87 1.404 . S
C88 C89 1.389 . S
C89 H72 0.939 . S
C89 C84 1.400 . S
C89 C88 1.389 . S
C90 P64 1.819 . S
C90 C91 1.391 . S
C90 C95 1.391 . S
C91 H73 0.941 . S
C91 C90 1.391 . S
C91 C92 1.396 . S
C92 H76 0.939 . S
C92 C91 1.396 . S
C92 C93 1.397 . S
C93 C92 1.397 . S
C93 C94 1.385 . S
C94 H77 0.940 . S
C94 C93 1.385 . S
C94 C95 1.388 . S
C95 H74 0.939 . S
C95 C90 1.391 . S
C95 C94 1.388 . S
P96 O107 1.490 . S
P96 C110 1.812 . S
P96 C116 1.803 . S
P96 C122 1.819 . S
H97 C111 0.941 . S
H98 C112 0.939 . S
H99 C114 0.940 . S
H100 C115 0.940 . S
H101 C117 0.939 . S
H102 C118 0.942 . S
H103 C120 0.940 . S
H104 C121 0.939 . S
H105 C123 0.941 . S
H106 C127 0.939 . S
O107 P96 1.490 . S
H108 C124 0.939 . S
H109 C126 0.940 . S
C110 P96 1.812 . S
C110 C111 1.389 . S
C110 C115 1.391 . S
C111 H97 0.941 . S
C111 C110 1.389 . S
C111 C112 1.397 . S
C112 H98 0.939 . S
C112 C111 1.397 . S
C112 C113 1.378 . S
C113 C112 1.378 . S
C113 C114 1.378 . S
C114 H99 0.940 . S
C114 C113 1.378 . S
C114 C115 1.396 . S
C115 H100 0.940 . S
C115 C110 1.391 . S
C115 C114 1.396 . S
C116 P96 1.803 . S
C116 C117 1.378 . S
C116 C121 1.400 . S
C117 H101 0.939 . S
C117 C116 1.378 . S
C117 C118 1.361 . S
C118 H102 0.942 . S
C118 C117 1.361 . S
C118 C119 1.369 . S
C119 C118 1.369 . S
C119 C120 1.404 . S
C120 H103 0.940 . S
C120 C119 1.404 . S
C120 C121 1.389 . S
C121 H104 0.939 . S
C121 C116 1.400 . S
C121 C120 1.389 . S
C122 P96 1.819 . S
C122 C123 1.391 . S
C122 C127 1.391 . S
C123 H105 0.941 . S
C123 C122 1.391 . S
C123 C124 1.396 . S
C124 H108 0.939 . S
C124 C123 1.396 . S
C124 C125 1.397 . S
C125 C124 1.397 . S
C125 C126 1.385 . S
C126 H109 0.940 . S
C126 C125 1.385 . S
C126 C127 1.388 . S
C127 H106 0.939 . S
C127 C122 1.391 . S
C127 C126 1.388 . S
P128 O139 1.490 . S
P128 C142 1.812 . S
P128 C148 1.803 . S
P128 C154 1.819 . S
H129 C143 0.941 . S
H130 C144 0.939 . S
H131 C146 0.940 . S
H132 C147 0.940 . S
H133 C149 0.939 . S
H134 C150 0.942 . S
H135 C152 0.940 . S
H136 C153 0.939 . S
H137 C155 0.941 . S
H138 C159 0.939 . S
O139 P128 1.490 . S
H140 C156 0.939 . S
H141 C158 0.940 . S
C142 P128 1.812 . S
C142 C143 1.389 . S
C142 C147 1.391 . S
C143 H129 0.941 . S
C143 C142 1.389 . S
C143 C144 1.397 . S
C144 H130 0.939 . S
C144 C143 1.397 . S
C144 C145 1.378 . S
C145 C144 1.378 . S
C145 C146 1.378 . S
C146 H131 0.940 . S
C146 C145 1.378 . S
C146 C147 1.396 . S
C147 H132 0.940 . S
C147 C142 1.391 . S
C147 C146 1.396 . S
C148 P128 1.803 . S
C148 C149 1.378 . S
C148 C153 1.400 . S
C149 H133 0.939 . S
C149 C148 1.378 . S
C149 C150 1.361 . S
C150 H134 0.942 . S
C150 C149 1.361 . S
C150 C151 1.369 . S
C151 C150 1.369 . S
C151 C152 1.404 . S
C152 H135 0.940 . S
C152 C151 1.404 . S
C152 C153 1.389 . S
C153 H136 0.939 . S
C153 C148 1.400 . S
C153 C152 1.389 . S
C154 P128 1.819 . S
C154 C155 1.391 . S
C154 C159 1.391 . S
C155 H137 0.941 . S
C155 C154 1.391 . S
C155 C156 1.396 . S
C156 H140 0.939 . S
C156 C155 1.396 . S
C156 C157 1.397 . S
C157 C156 1.397 . S
C157 C158 1.385 . S
C158 H141 0.940 . S
C158 C157 1.385 . S
C158 C159 1.388 . S
C159 H138 0.939 . S
C159 C154 1.391 . S
C159 C158 1.388 . S
P160 O171 1.490 . S
P160 C174 1.812 . S
P160 C180 1.803 . S
P160 C186 1.819 . S
H161 C175 0.941 . S
H162 C176 0.939 . S
H163 C178 0.940 . S
H164 C179 0.940 . S
H165 C181 0.939 . S
H166 C182 0.942 . S
H167 C184 0.940 . S
H168 C185 0.939 . S
H169 C187 0.941 . S
H170 C191 0.939 . S
O171 P160 1.490 . S
H172 C188 0.939 . S
H173 C190 0.940 . S
C174 P160 1.812 . S
C174 C175 1.389 . S
C174 C179 1.391 . S
C175 H161 0.941 . S
C175 C174 1.389 . S
C175 C176 1.397 . S
C176 H162 0.939 . S
C176 C175 1.397 . S
C176 C177 1.378 . S
C177 C176 1.378 . S
C177 C178 1.378 . S
C178 H163 0.940 . S
C178 C177 1.378 . S
C178 C179 1.396 . S
C179 H164 0.940 . S
C179 C174 1.391 . S
C179 C178 1.396 . S
C180 P160 1.803 . S
C180 C181 1.378 . S
C180 C185 1.400 . S
C181 H165 0.939 . S
C181 C180 1.378 . S
C181 C182 1.361 . S
C182 H166 0.942 . S
C182 C181 1.361 . S
C182 C183 1.369 . S
C183 C182 1.369 . S
C183 C184 1.404 . S
C184 H167 0.940 . S
C184 C183 1.404 . S
C184 C185 1.389 . S
C185 H168 0.939 . S
C185 C180 1.400 . S
C185 C184 1.389 . S
C186 P160 1.819 . S
C186 C187 1.391 . S
C186 C191 1.391 . S
C187 H169 0.941 . S
C187 C186 1.391 . S
C187 C188 1.396 . S
C188 H172 0.939 . S
C188 C187 1.396 . S
C188 C189 1.397 . S
C189 C188 1.397 . S
C189 C190 1.385 . S
C190 H173 0.940 . S
C190 C189 1.385 . S
C190 C191 1.388 . S
C191 H170 0.939 . S
C191 C186 1.391 . S
C191 C190 1.388 . S
P192 O203 1.490 . S
P192 C206 1.812 . S
P192 C212 1.803 . S
P192 C218 1.819 . S
H193 C207 0.941 . S
H194 C208 0.939 . S
H195 C210 0.940 . S
H196 C211 0.940 . S
H197 C213 0.939 . S
H198 C214 0.942 . S
H199 C216 0.940 . S
H200 C217 0.939 . S
H201 C219 0.941 . S
H202 C223 0.939 . S
O203 P192 1.490 . S
H204 C220 0.939 . S
H205 C222 0.940 . S
C206 P192 1.812 . S
C206 C207 1.389 . S
C206 C211 1.391 . S
C207 H193 0.941 . S
C207 C206 1.389 . S
C207 C208 1.397 . S
C208 H194 0.939 . S
C208 C207 1.397 . S
C208 C209 1.378 . S
C209 C208 1.378 . S
C209 C210 1.378 . S
C210 H195 0.940 . S
C210 C209 1.378 . S
C210 C211 1.396 . S
C211 H196 0.940 . S
C211 C206 1.391 . S
C211 C210 1.396 . S
C212 P192 1.803 . S
C212 C213 1.378 . S
C212 C217 1.400 . S
C213 H197 0.939 . S
C213 C212 1.378 . S
C213 C214 1.361 . S
C214 H198 0.942 . S
C214 C213 1.361 . S
C214 C215 1.369 . S
C215 C214 1.369 . S
C215 C216 1.404 . S
C216 H199 0.940 . S
C216 C215 1.404 . S
C216 C217 1.389 . S
C217 H200 0.939 . S
C217 C212 1.400 . S
C217 C216 1.389 . S
C218 P192 1.819 . S
C218 C219 1.391 . S
C218 C223 1.391 . S
C219 H201 0.941 . S
C219 C218 1.391 . S
C219 C220 1.396 . S
C220 H204 0.939 . S
C220 C219 1.396 . S
C220 C221 1.397 . S
C221 C220 1.397 . S
C221 C222 1.385 . S
C222 H205 0.940 . S
C222 C221 1.385 . S
C222 C223 1.388 . S
C223 H202 0.939 . S
C223 C218 1.391 . S
C223 C222 1.388 . S
P224 O235 1.490 . S
P224 C238 1.812 . S
P224 C244 1.803 . S
P224 C250 1.819 . S
H225 C239 0.941 . S
H226 C240 0.939 . S
H227 C242 0.940 . S
H228 C243 0.940 . S
H229 C245 0.939 . S
H230 C246 0.942 . S
H231 C248 0.940 . S
H232 C249 0.939 . S
H233 C251 0.941 . S
H234 C255 0.939 . S
O235 P224 1.490 . S
H236 C252 0.939 . S
H237 C254 0.940 . S
C238 P224 1.812 . S
C238 C239 1.389 . S
C238 C243 1.391 . S
C239 H225 0.941 . S
C239 C238 1.389 . S
C239 C240 1.397 . S
C240 H226 0.939 . S
C240 C239 1.397 . S
C240 C241 1.378 . S
C241 C240 1.378 . S
C241 C242 1.378 . S
C242 H227 0.940 . S
C242 C241 1.378 . S
C242 C243 1.396 . S
C243 H228 0.940 . S
C243 C238 1.391 . S
C243 C242 1.396 . S
C244 P224 1.803 . S
C244 C245 1.378 . S
C244 C249 1.400 . S
C245 H229 0.939 . S
C245 C244 1.378 . S
C245 C246 1.361 . S
C246 H230 0.942 . S
C246 C245 1.361 . S
C246 C247 1.369 . S
C247 C246 1.369 . S
C247 C248 1.404 . S
C248 H231 0.940 . S
C248 C247 1.404 . S
C248 C249 1.389 . S
C249 H232 0.939 . S
C249 C244 1.400 . S
C249 C248 1.389 . S
C250 P224 1.819 . S
C250 C251 1.391 . S
C250 C255 1.391 . S
C251 H233 0.941 . S
C251 C250 1.391 . S
C251 C252 1.396 . S
C252 H236 0.939 . S
C252 C251 1.396 . S
C252 C253 1.397 . S
C253 C252 1.397 . S
C253 C254 1.385 . S
C254 H237 0.940 . S
C254 C253 1.385 . S
C254 C255 1.388 . S
C255 H234 0.939 . S
C255 C250 1.391 . S
C255 C254 1.388 . S
Eu256 N285 2.600 . S
Eu256 N291 2.562 . S
Eu256 O300 2.462 . S
Eu256 O301 2.373 . S
Eu256 O303 2.432 . S
Eu256 O304 2.291 . S
Eu256 O308 2.335 . S
Eu256 O311 2.372 . S
Eu256 C320 2.787 . S
C257 N258 1.365 . S
C257 C260 1.405 . S
C257 C264 1.448 . S
N258 C257 1.365 . S
N258 C261 1.319 . S
N258 Eu267 2.600 . S
C259 C261 1.397 . S
C259 C262 1.367 . S
C259 H279 0.931 . S
C260 C257 1.405 . S
C260 C262 1.403 . S
C260 C266 1.439 . S
C261 N258 1.319 . S
C261 C259 1.397 . S
C261 H272 0.930 . S
C262 C259 1.367 . S
C262 C260 1.403 . S
C262 H283 0.929 . S
C263 C264 1.430 . S
C263 C265 1.387 . S
C263 C269 1.404 . S
C264 C257 1.448 . S
C264 C263 1.430 . S
C264 N268 1.351 . S
C265 C263 1.387 . S
C265 C266 1.374 . S
C265 H280 0.931 . S
C266 C260 1.439 . S
C266 C265 1.374 . S
C266 H281 0.931 . S
Eu267 N258 2.600 . S
Eu267 N268 2.562 . S
Eu267 O302 2.335 1_655 S
Eu267 O305 2.372 . S
Eu267 O306 2.462 . S
Eu267 O307 2.373 . S
Eu267 O309 2.432 . S
Eu267 O310 2.291 1_655 S
Eu267 C331 2.787 . S
N268 C264 1.351 . S
N268 Eu267 2.562 . S
N268 C270 1.325 . S
C269 C263 1.404 . S
C269 C271 1.366 . S
C269 H277 0.930 . S
C270 N268 1.325 . S
C270 C271 1.416 . S
C270 H276 0.929 . S
C271 C269 1.366 . S
C271 C270 1.416 . S
C271 H273 0.930 . S
H272 C261 0.930 . S
H273 C271 0.930 . S
H274 C289 0.930 . S
H275 C296 0.930 . S
H276 C270 0.929 . S
H277 C269 0.930 . S
H278 C292 0.929 . S
H279 C259 0.931 . S
H280 C265 0.931 . S
H281 C266 0.931 . S
H282 C287 0.931 . S
H283 C262 0.929 . S
H284 C295 0.930 . S
N285 Eu256 2.600 . S
N285 C286 1.365 . S
N285 C289 1.319 . S
C286 N285 1.365 . S
C286 C288 1.405 . S
C286 C294 1.448 . S
C287 H282 0.931 . S
C287 C289 1.397 . S
C287 C290 1.367 . S
C288 C286 1.405 . S
C288 C290 1.403 . S
C288 C321 1.439 . S
C289 H274 0.930 . S
C289 N285 1.319 . S
C289 C287 1.397 . S
C290 C287 1.367 . S
C290 C288 1.403 . S
C290 H297 0.929 . S
N291 Eu256 2.562 . S
N291 C292 1.325 . S
N291 C294 1.351 . S
C292 H278 0.929 . S
C292 N291 1.325 . S
C292 C296 1.416 . S
C293 C294 1.430 . S
C293 C295 1.404 . S
C293 C322 1.387 . S
C294 C286 1.448 . S
C294 N291 1.351 . S
C294 C293 1.430 . S
C295 H284 0.930 . S
C295 C293 1.404 . S
C295 C296 1.366 . S
C296 H275 0.930 . S
C296 C292 1.416 . S
C296 C295 1.366 . S
H297 C290 0.929 . S
H298 C321 0.931 . S
H299 C322 0.931 . S
O300 Eu256 2.462 . S
O300 C320 1.252 . S
O301 Eu256 2.373 . S
O301 C312 1.249 . S
O302 Eu267 2.335 1_455 S
O302 C312 1.264 . S
O303 Eu256 2.432 . S
O303 C320 1.268 . S
O304 Eu256 2.291 . S
O304 C319 1.255 1_455 S
O305 Eu267 2.372 . S
O305 C319 1.257 . S
O306 Eu267 2.462 . S
O306 C331 1.252 . S
O307 Eu267 2.373 . S
O307 C323 1.249 . S
O308 Eu256 2.335 . S
O308 C323 1.264 1_455 S
O309 Eu267 2.432 . S
O309 C331 1.268 . S
O310 Eu267 2.291 1_455 S
O310 C330 1.255 . S
O311 Eu256 2.372 . S
O311 C330 1.257 . S
C312 O301 1.249 . S
C312 O302 1.264 . S
C313 C316 1.382 . S
C313 C318 1.390 . S
C313 C320 1.506 . S
C314 C315 1.398 . S
C314 C318 1.392 . S
C315 C314 1.398 . S
C315 C317 1.372 . S
C315 H332 0.931 . S
C316 C313 1.382 . S
C316 C317 1.390 . S
C316 H333 0.931 . S
C317 C315 1.372 . S
C317 C316 1.390 . S
C317 H334 0.929 . S
C318 C313 1.390 . S
C318 C314 1.392 . S
C318 H335 0.930 . S
C319 O304 1.255 1_655 S
C319 O305 1.257 . S
C320 Eu256 2.787 . S
C320 O300 1.252 . S
C320 O303 1.268 . S
C320 C313 1.506 . S
C321 C288 1.439 . S
C321 H298 0.931 . S
C321 C322 1.374 . S
C322 C293 1.387 . S
C322 H299 0.931 . S
C322 C321 1.374 . S
C323 O307 1.249 . S
C323 O308 1.264 1_655 S
C324 C327 1.382 . S
C324 C328 1.390 . S
C324 C331 1.506 . S
C325 C326 1.398 . S
C325 C328 1.392 . S
C326 C325 1.398 . S
C326 C329 1.372 . S
C326 H336 0.931 . S
C327 C324 1.382 . S
C327 C329 1.390 . S
C327 H337 0.931 . S
C328 C324 1.390 . S
C328 C325 1.392 . S
C328 H338 0.930 . S
C329 C326 1.372 . S
C329 C327 1.390 . S
C329 H339 0.929 . S
C330 O310 1.255 . S
C330 O311 1.257 . S
C331 Eu267 2.787 . S
C331 O306 1.252 . S
C331 O309 1.268 . S
C331 C324 1.506 . S
H332 C315 0.931 . S
H333 C316 0.931 . S
H334 C317 0.929 . S
H335 C318 0.930 . S
H336 C326 0.931 . S
H337 C327 0.931 . S
H338 C328 0.930 . S
H339 C329 0.929 . S
Eu340 N369 2.600 . S
Eu340 N375 2.562 . S
Eu340 O384 2.462 . S
Eu340 O385 2.373 . S
Eu340 O387 2.432 . S
Eu340 O388 2.291 . S
Eu340 O392 2.335 . S
Eu340 O395 2.372 . S
Eu340 C404 2.787 . S
C341 N342 1.365 . S
C341 C344 1.405 . S
C341 C348 1.448 . S
N342 C341 1.365 . S
N342 C345 1.319 . S
N342 Eu351 2.600 . S
C343 C345 1.397 . S
C343 C346 1.367 . S
C343 H363 0.931 . S
C344 C341 1.405 . S
C344 C346 1.403 . S
C344 C350 1.439 . S
C345 N342 1.319 . S
C345 C343 1.397 . S
C345 H356 0.930 . S
C346 C343 1.367 . S
C346 C344 1.403 . S
C346 H367 0.929 . S
C347 C348 1.430 . S
C347 C349 1.387 . S
C347 C353 1.404 . S
C348 C341 1.448 . S
C348 C347 1.430 . S
C348 N352 1.351 . S
C349 C347 1.387 . S
C349 C350 1.374 . S
C349 H364 0.931 . S
C350 C344 1.439 . S
C350 C349 1.374 . S
C350 H365 0.931 . S
Eu351 N342 2.600 . S
Eu351 N352 2.562 . S
Eu351 O386 2.335 . S
Eu351 O389 2.372 . S
Eu351 O390 2.462 . S
Eu351 O391 2.373 . S
Eu351 O393 2.432 . S
Eu351 O394 2.291 . S
Eu351 C415 2.787 . S
N352 C348 1.351 . S
N352 Eu351 2.562 . S
N352 C354 1.325 . S
C353 C347 1.404 . S
C353 C355 1.366 . S
C353 H361 0.930 . S
C354 N352 1.325 . S
C354 C355 1.416 . S
C354 H360 0.929 . S
C355 C353 1.366 . S
C355 C354 1.416 . S
C355 H357 0.930 . S
H356 C345 0.930 . S
H357 C355 0.930 . S
H358 C373 0.930 . S
H359 C380 0.930 . S
H360 C354 0.929 . S
H361 C353 0.930 . S
H362 C376 0.929 . S
H363 C343 0.931 . S
H364 C349 0.931 . S
H365 C350 0.931 . S
H366 C371 0.931 . S
H367 C346 0.929 . S
H368 C379 0.930 . S
N369 Eu340 2.600 . S
N369 C370 1.365 . S
N369 C373 1.319 . S
C370 N369 1.365 . S
C370 C372 1.405 . S
C370 C378 1.448 . S
C371 H366 0.931 . S
C371 C373 1.397 . S
C371 C374 1.367 . S
C372 C370 1.405 . S
C372 C374 1.403 . S
C372 C405 1.439 . S
C373 H358 0.930 . S
C373 N369 1.319 . S
C373 C371 1.397 . S
C374 C371 1.367 . S
C374 C372 1.403 . S
C374 H381 0.929 . S
N375 Eu340 2.562 . S
N375 C376 1.325 . S
N375 C378 1.351 . S
C376 H362 0.929 . S
C376 N375 1.325 . S
C376 C380 1.416 . S
C377 C378 1.430 . S
C377 C379 1.404 . S
C377 C406 1.387 . S
C378 C370 1.448 . S
C378 N375 1.351 . S
C378 C377 1.430 . S
C379 H368 0.930 . S
C379 C377 1.404 . S
C379 C380 1.366 . S
C380 H359 0.930 . S
C380 C376 1.416 . S
C380 C379 1.366 . S
H381 C374 0.929 . S
H382 C405 0.931 . S
H383 C406 0.931 . S
O384 Eu340 2.462 . S
O384 C404 1.252 . S
O385 Eu340 2.373 . S
O385 C396 1.249 . S
O386 Eu351 2.335 . S
O386 C396 1.264 . S
O387 Eu340 2.432 . S
O387 C404 1.268 . S
O388 Eu340 2.291 . S
O388 C403 1.255 . S
O389 Eu351 2.372 . S
O389 C403 1.257 . S
O390 Eu351 2.462 . S
O390 C415 1.252 . S
O391 Eu351 2.373 . S
O391 C407 1.249 . S
O392 Eu340 2.335 . S
O392 C407 1.264 . S
O393 Eu351 2.432 . S
O393 C415 1.268 . S
O394 Eu351 2.291 . S
O394 C414 1.255 . S
O395 Eu340 2.372 . S
O395 C414 1.257 . S
C396 O385 1.249 . S
C396 O386 1.264 . S
C397 C400 1.382 . S
C397 C402 1.390 . S
C397 C404 1.506 . S
C398 C399 1.398 . S
C398 C402 1.392 . S
C399 C398 1.398 . S
C399 C401 1.372 . S
C399 H416 0.931 . S
C400 C397 1.382 . S
C400 C401 1.390 . S
C400 H417 0.931 . S
C401 C399 1.372 . S
C401 C400 1.390 . S
C401 H418 0.929 . S
C402 C397 1.390 . S
C402 C398 1.392 . S
C402 H419 0.930 . S
C403 O388 1.255 . S
C403 O389 1.257 . S
C404 Eu340 2.787 . S
C404 O384 1.252 . S
C404 O387 1.268 . S
C404 C397 1.506 . S
C405 C372 1.439 . S
C405 H382 0.931 . S
C405 C406 1.374 . S
C406 C377 1.387 . S
C406 H383 0.931 . S
C406 C405 1.374 . S
C407 O391 1.249 . S
C407 O392 1.264 . S
C408 C411 1.382 . S
C408 C412 1.390 . S
C408 C415 1.506 . S
C409 C410 1.398 . S
C409 C412 1.392 . S
C410 C409 1.398 . S
C410 C413 1.372 . S
C410 H420 0.931 . S
C411 C408 1.382 . S
C411 C413 1.390 . S
C411 H421 0.931 . S
C412 C408 1.390 . S
C412 C409 1.392 . S
C412 H422 0.930 . S
C413 C410 1.372 . S
C413 C411 1.390 . S
C413 H423 0.929 . S
C414 O394 1.255 . S
C414 O395 1.257 . S
C415 Eu351 2.787 . S
C415 O390 1.252 . S
C415 O393 1.268 . S
C415 C408 1.506 . S
H416 C399 0.931 . S
H417 C400 0.931 . S
H418 C401 0.929 . S
H419 C402 0.930 . S
H420 C410 0.931 . S
H421 C411 0.931 . S
H422 C412 0.930 . S
H423 C413 0.929 . S
Eu424 N453 2.600 . S
Eu424 N459 2.562 . S
Eu424 O468 2.462 . S
Eu424 O469 2.373 . S
Eu424 O471 2.432 . S
Eu424 O472 2.291 . S
Eu424 O476 2.335 . S
Eu424 O479 2.372 . S
Eu424 C488 2.787 . S
C425 N426 1.365 . S
C425 C428 1.405 . S
C425 C432 1.448 . S
N426 C425 1.365 . S
N426 C429 1.319 . S
N426 Eu435 2.600 . S
C427 C429 1.397 . S
C427 C430 1.367 . S
C427 H447 0.931 . S
C428 C425 1.405 . S
C428 C430 1.403 . S
C428 C434 1.439 . S
C429 N426 1.319 . S
C429 C427 1.397 . S
C429 H440 0.930 . S
C430 C427 1.367 . S
C430 C428 1.403 . S
C430 H451 0.929 . S
C431 C432 1.430 . S
C431 C433 1.387 . S
C431 C437 1.404 . S
C432 C425 1.448 . S
C432 C431 1.430 . S
C432 N436 1.351 . S
C433 C431 1.387 . S
C433 C434 1.374 . S
C433 H448 0.931 . S
C434 C428 1.439 . S
C434 C433 1.374 . S
C434 H449 0.931 . S
Eu435 N426 2.600 . S
Eu435 N436 2.562 . S
Eu435 O470 2.335 1_655 S
Eu435 O473 2.372 . S
Eu435 O474 2.462 . S
Eu435 O475 2.373 . S
Eu435 O477 2.432 . S
Eu435 O478 2.275 1_655 S
Eu435 C499 2.787 . S
N436 C432 1.351 . S
N436 Eu435 2.562 . S
N436 C438 1.325 . S
C437 C431 1.404 . S
C437 C439 1.366 . S
C437 H445 0.930 . S
C438 N436 1.325 . S
C438 C439 1.416 . S
C438 H444 0.929 . S
C439 C437 1.366 . S
C439 C438 1.416 . S
C439 H441 0.930 . S
H440 C429 0.930 . S
H441 C439 0.930 . S
H442 C457 0.930 . S
H443 C464 0.930 . S
H444 C438 0.929 . S
H445 C437 0.930 . S
H446 C460 0.929 . S
H447 C427 0.931 . S
H448 C433 0.931 . S
H449 C434 0.931 . S
H450 C455 0.931 . S
H451 C430 0.929 . S
H452 C463 0.930 . S
N453 Eu424 2.600 . S
N453 C454 1.365 . S
N453 C457 1.319 . S
C454 N453 1.365 . S
C454 C456 1.405 . S
C454 C462 1.448 . S
C455 H450 0.931 . S
C455 C457 1.397 . S
C455 C458 1.367 . S
C456 C454 1.405 . S
C456 C458 1.403 . S
C456 C489 1.439 . S
C457 H442 0.930 . S
C457 N453 1.319 . S
C457 C455 1.397 . S
C458 C455 1.367 . S
C458 C456 1.403 . S
C458 H465 0.929 . S
N459 Eu424 2.562 . S
N459 C460 1.325 . S
N459 C462 1.351 . S
C460 H446 0.929 . S
C460 N459 1.325 . S
C460 C464 1.416 . S
C461 C462 1.430 . S
C461 C463 1.404 . S
C461 C490 1.387 . S
C462 C454 1.448 . S
C462 N459 1.351 . S
C462 C461 1.430 . S
C463 H452 0.930 . S
C463 C461 1.404 . S
C463 C464 1.366 . S
C464 H443 0.930 . S
C464 C460 1.416 . S
C464 C463 1.366 . S
H465 C458 0.929 . S
H466 C489 0.931 . S
H467 C490 0.931 . S
O468 Eu424 2.462 . S
O468 C488 1.252 . S
O469 Eu424 2.373 . S
O469 C480 1.249 . S
O470 Eu435 2.335 1_455 S
O470 C480 1.264 . S
O471 Eu424 2.432 . S
O471 C488 1.268 . S
O472 Eu424 2.291 . S
O472 C487 1.255 1_455 S
O473 Eu435 2.372 . S
O473 C487 1.257 . S
O474 Eu435 2.462 . S
O474 C499 1.252 . S
O475 Eu435 2.373 . S
O475 C491 1.249 . S
O476 Eu424 2.335 . S
O476 C491 1.264 1_455 S
O477 Eu435 2.432 . S
O477 C499 1.268 . S
O478 Eu435 2.275 1_455 S
O478 C498 1.274 . S
O479 Eu424 2.372 . S
O479 C498 1.257 . S
C480 O469 1.249 . S
C480 O470 1.264 . S
C481 C484 1.382 . S
C481 C486 1.390 . S
C481 C488 1.506 . S
C482 C483 1.398 . S
C482 C486 1.392 . S
C483 C482 1.398 . S
C483 C485 1.372 . S
C483 H500 0.931 . S
C484 C481 1.382 . S
C484 C485 1.390 . S
C484 H501 0.931 . S
C485 C483 1.372 . S
C485 C484 1.390 . S
C485 H502 0.929 . S
C486 C481 1.390 . S
C486 C482 1.392 . S
C486 H503 0.930 . S
C487 O472 1.255 1_655 S
C487 O473 1.257 . S
C488 Eu424 2.787 . S
C488 O468 1.252 . S
C488 O471 1.268 . S
C488 C481 1.506 . S
C489 C456 1.439 . S
C489 H466 0.931 . S
C489 C490 1.374 . S
C490 C461 1.387 . S
C490 H467 0.931 . S
C490 C489 1.374 . S
C491 O475 1.249 . S
C491 O476 1.264 1_655 S
C492 C495 1.382 . S
C492 C496 1.390 . S
C492 C499 1.506 . S
C493 C494 1.398 . S
C493 C496 1.392 . S
C494 C493 1.398 . S
C494 C497 1.372 . S
C494 H504 0.931 . S
C495 C492 1.382 . S
C495 C497 1.390 . S
C495 H505 0.931 . S
C496 C492 1.390 . S
C496 C493 1.392 . S
C496 H506 0.930 . S
C497 C494 1.372 . S
C497 C495 1.390 . S
C497 H507 0.929 . S
C498 O478 1.274 . S
C498 O479 1.257 . S
C499 Eu435 2.787 . S
C499 O474 1.252 . S
C499 O477 1.268 . S
C499 C492 1.506 . S
H500 C483 0.931 . S
H501 C484 0.931 . S
H502 C485 0.929 . S
H503 C486 0.930 . S
H504 C494 0.931 . S
H505 C495 0.931 . S
H506 C496 0.930 . S
H507 C497 0.929 . S
Eu508 N537 2.600 . S
Eu508 N543 2.562 . S
Eu508 O552 2.462 . S
Eu508 O553 2.373 . S
Eu508 O555 2.432 . S
Eu508 O556 2.291 . S
Eu508 O560 2.335 . S
Eu508 O563 2.372 . S
Eu508 C572 2.787 . S
C509 N510 1.365 . S
C509 C512 1.405 . S
C509 C516 1.448 . S
N510 C509 1.365 . S
N510 C513 1.319 . S
N510 Eu519 2.600 . S
C511 C513 1.397 . S
C511 C514 1.367 . S
C511 H531 0.931 . S
C512 C509 1.405 . S
C512 C514 1.403 . S
C512 C518 1.439 . S
C513 N510 1.319 . S
C513 C511 1.397 . S
C513 H524 0.930 . S
C514 C511 1.367 . S
C514 C512 1.403 . S
C514 H535 0.929 . S
C515 C516 1.430 . S
C515 C517 1.387 . S
C515 C521 1.404 . S
C516 C509 1.448 . S
C516 C515 1.430 . S
C516 N520 1.351 . S
C517 C515 1.387 . S
C517 C518 1.374 . S
C517 H532 0.931 . S
C518 C512 1.439 . S
C518 C517 1.374 . S
C518 H533 0.931 . S
Eu519 N510 2.600 . S
Eu519 N520 2.562 . S
Eu519 O554 2.335 . S
Eu519 O557 2.372 . S
Eu519 O558 2.462 . S
Eu519 O559 2.373 . S
Eu519 O561 2.432 . S
Eu519 O562 2.291 . S
Eu519 C583 2.787 . S
N520 C516 1.351 . S
N520 Eu519 2.562 . S
N520 C522 1.325 . S
C521 C515 1.404 . S
C521 C523 1.366 . S
C521 H529 0.930 . S
C522 N520 1.325 . S
C522 C523 1.416 . S
C522 H528 0.929 . S
C523 C521 1.366 . S
C523 C522 1.416 . S
C523 H525 0.930 . S
H524 C513 0.930 . S
H525 C523 0.930 . S
H526 C541 0.930 . S
H527 C548 0.930 . S
H528 C522 0.929 . S
H529 C521 0.930 . S
H530 C544 0.929 . S
H531 C511 0.931 . S
H532 C517 0.931 . S
H533 C518 0.931 . S
H534 C539 0.931 . S
H535 C514 0.929 . S
H536 C547 0.930 . S
N537 Eu508 2.600 . S
N537 C538 1.365 . S
N537 C541 1.319 . S
C538 N537 1.365 . S
C538 C540 1.405 . S
C538 C546 1.448 . S
C539 H534 0.931 . S
C539 C541 1.397 . S
C539 C542 1.367 . S
C540 C538 1.405 . S
C540 C542 1.403 . S
C540 C573 1.439 . S
C541 H526 0.930 . S
C541 N537 1.319 . S
C541 C539 1.397 . S
C542 C539 1.367 . S
C542 C540 1.403 . S
C542 H549 0.929 . S
N543 Eu508 2.562 . S
N543 C544 1.325 . S
N543 C546 1.351 . S
C544 H530 0.929 . S
C544 N543 1.325 . S
C544 C548 1.416 . S
C545 C546 1.430 . S
C545 C547 1.404 . S
C545 C574 1.387 . S
C546 C538 1.448 . S
C546 N543 1.351 . S
C546 C545 1.430 . S
C547 H536 0.930 . S
C547 C545 1.404 . S
C547 C548 1.366 . S
C548 H527 0.930 . S
C548 C544 1.416 . S
C548 C547 1.366 . S
H549 C542 0.929 . S
H550 C573 0.931 . S
H551 C574 0.931 . S
O552 Eu508 2.462 . S
O552 C572 1.252 . S
O553 Eu508 2.373 . S
O553 C564 1.249 . S
O554 Eu519 2.335 . S
O554 C564 1.264 . S
O555 Eu508 2.432 . S
O555 C572 1.268 . S
O556 Eu508 2.291 . S
O556 C571 1.255 . S
O557 Eu519 2.372 . S
O557 C571 1.257 . S
O558 Eu519 2.462 . S
O558 C583 1.252 . S
O559 Eu519 2.373 . S
O559 C575 1.249 . S
O560 Eu508 2.335 . S
O560 C575 1.264 . S
O561 Eu519 2.432 . S
O561 C583 1.268 . S
O562 Eu519 2.291 . S
O562 C582 1.255 . S
O563 Eu508 2.372 . S
O563 C582 1.257 . S
C564 O553 1.249 . S
C564 O554 1.264 . S
C565 C568 1.382 . S
C565 C570 1.390 . S
C565 C572 1.506 . S
C566 C567 1.398 . S
C566 C570 1.392 . S
C567 C566 1.398 . S
C567 C569 1.372 . S
C567 H584 0.931 . S
C568 C565 1.382 . S
C568 C569 1.390 . S
C568 H585 0.931 . S
C569 C567 1.372 . S
C569 C568 1.390 . S
C569 H586 0.929 . S
C570 C565 1.390 . S
C570 C566 1.392 . S
C570 H587 0.930 . S
C571 O556 1.255 . S
C571 O557 1.257 . S
C572 Eu508 2.787 . S
C572 O552 1.252 . S
C572 O555 1.268 . S
C572 C565 1.506 . S
C573 C540 1.439 . S
C573 H550 0.931 . S
C573 C574 1.374 . S
C574 C545 1.387 . S
C574 H551 0.931 . S
C574 C573 1.374 . S
C575 O559 1.249 . S
C575 O560 1.264 . S
C576 C579 1.382 . S
C576 C580 1.390 . S
C576 C583 1.506 . S
C577 C578 1.398 . S
C577 C580 1.392 . S
C578 C577 1.398 . S
C578 C581 1.372 . S
C578 H588 0.931 . S
C579 C576 1.382 . S
C579 C581 1.390 . S
C579 H589 0.931 . S
C580 C576 1.390 . S
C580 C577 1.392 . S
C580 H590 0.930 . S
C581 C578 1.372 . S
C581 C579 1.390 . S
C581 H591 0.929 . S
C582 O562 1.255 . S
C582 O563 1.257 . S
C583 Eu519 2.787 . S
C583 O558 1.252 . S
C583 O561 1.268 . S
C583 C576 1.506 . S
H584 C567 0.931 . S
H585 C568 0.931 . S
H586 C569 0.929 . S
H587 C570 0.930 . S
H588 C578 0.931 . S
H589 C579 0.931 . S
H590 C580 0.930 . S
H591 C581 0.929 . S
H592 C598 0.930 . S
H593 C602 0.930 . S
H594 C607 0.929 1_545 S
H595 C605 0.929 . S
H596 C600 0.929 . S
H597 C606 0.929 . S
C598 H592 0.930 . S
C598 C599 1.367 . S
C598 C606 1.378 . S
C599 C598 1.367 . S
C599 C607 1.433 . S
C600 H596 0.929 . S
C600 C602 1.378 . S
C600 C604 1.350 . S
C601 C604 1.463 . S
C601 C606 1.350 1_545 S
C601 N609 1.427 . S
C602 H593 0.930 . S
C602 C600 1.378 . S
C602 C603 1.367 . S
C603 C602 1.367 . S
C603 C605 1.433 . S
C604 C600 1.350 . S
C604 C601 1.463 . S
C604 N608 1.427 . S
C605 H595 0.929 . S
C605 C603 1.433 . S
C605 N608 1.384 . S
C606 H597 0.929 . S
C606 C598 1.378 . S
C606 C601 1.350 1_565 S
C607 H594 0.929 1_565 S
C607 C599 1.433 . S
C607 N609 1.384 1_565 S
N608 C604 1.427 . S
N608 C605 1.384 . S
N609 C601 1.427 . S
N609 C607 1.384 1_545 S
H610 C616 0.930 . S
H611 C620 0.930 . S
H612 C625 0.929 . S
H613 C623 0.929 . S
H614 C618 0.929 . S
H615 C624 0.929 . S
C616 H610 0.930 . S
C616 C617 1.367 . S
C616 C624 1.378 . S
C617 C616 1.367 . S
C617 C625 1.433 . S
C618 H614 0.929 . S
C618 C620 1.378 . S
C618 C622 1.350 . S
C619 C622 1.463 . S
C619 C624 1.350 . S
C619 N627 1.427 . S
C620 H611 0.930 . S
C620 C618 1.378 . S
C620 C621 1.367 . S
C621 C620 1.367 . S
C621 C623 1.433 . S
C622 C618 1.350 . S
C622 C619 1.463 . S
C622 N626 1.427 . S
C623 H613 0.929 . S
C623 C621 1.433 . S
C623 N626 1.384 . S
C624 H615 0.929 . S
C624 C616 1.378 . S
C624 C619 1.350 . S
C625 H612 0.929 . S
C625 C617 1.433 . S
C625 N627 1.384 . S
N626 C622 1.427 . S
N626 C623 1.384 . S
N627 C619 1.427 . S
N627 C625 1.384 . S
H628 C634 0.930 . S
H629 C638 0.930 . S
H630 C643 0.929 . S
H631 C641 0.929 . S
H632 C636 0.929 . S
H633 C642 0.929 . S
C634 H628 0.930 . S
C634 C635 1.367 . S
C634 C642 1.378 . S
C635 C634 1.367 . S
C635 C643 1.433 . S
C636 H632 0.929 . S
C636 C638 1.378 . S
C636 C640 1.350 . S
C637 C640 1.463 . S
C637 C642 1.350 . S
C637 N645 1.427 . S
C638 H629 0.930 . S
C638 C636 1.378 . S
C638 C639 1.367 . S
C639 C638 1.367 . S
C639 C641 1.433 . S
C640 C636 1.350 . S
C640 C637 1.463 . S
C640 N644 1.427 . S
C641 H631 0.929 . S
C641 C639 1.433 . S
C641 N644 1.384 . S
C642 H633 0.929 . S
C642 C634 1.378 . S
C642 C637 1.350 . S
C643 H630 0.929 . S
C643 C635 1.433 . S
C643 N645 1.384 . S
N644 C640 1.427 . S
N644 C641 1.384 . S
N645 C637 1.427 . S
N645 C643 1.384 . S
H646 C652 0.930 . S
H647 C656 0.930 . S
H648 C661 0.929 . S
H649 C659 0.929 . S
H650 C654 0.929 . S
H651 C660 0.929 . S
C652 H646 0.930 . S
C652 C653 1.367 . S
C652 C660 1.378 . S
C653 C652 1.367 . S
C653 C661 1.433 1_565 S
C654 H650 0.929 . S
C654 C656 1.378 . S
C654 C658 1.350 . S
C655 C658 1.463 . S
C655 C660 1.350 1_545 S
C655 N663 1.427 . S
C656 H647 0.930 . S
C656 C654 1.378 . S
C656 C657 1.367 . S
C657 C656 1.367 . S
C657 C659 1.433 . S
C658 C654 1.350 . S
C658 C655 1.463 . S
C658 N662 1.427 . S
C659 H649 0.929 . S
C659 C657 1.433 . S
C659 N662 1.384 . S
C660 H651 0.929 . S
C660 C652 1.378 . S
C660 C655 1.350 1_565 S
C661 H648 0.929 . S
C661 C653 1.433 1_545 S
C661 N663 1.384 . S
N662 C658 1.427 . S
N662 C659 1.384 . S
N663 C655 1.427 . S
N663 C661 1.384 . S
H664 C670 0.930 . S
H665 C674 0.930 . S
H666 C679 0.929 . S
H667 C677 0.929 . S
H668 C672 0.929 . S
H669 C678 0.929 . S
C670 H664 0.930 . S
C670 C671 1.367 . S
C670 C678 1.378 1_545 S
C671 C670 1.367 . S
C671 C679 1.433 . S
C672 H668 0.929 . S
C672 C674 1.378 . S
C672 C676 1.350 . S
C673 C676 1.463 . S
C673 C678 1.350 . S
C673 N681 1.427 1_565 S
C674 H665 0.930 . S
C674 C672 1.378 . S
C674 C675 1.367 . S
C675 C674 1.367 . S
C675 C677 1.433 . S
C676 C672 1.350 . S
C676 C673 1.463 . S
C676 N680 1.427 . S
C677 H667 0.929 . S
C677 C675 1.433 . S
C677 N680 1.384 . S
C678 H669 0.929 . S
C678 C670 1.378 1_565 S
C678 C673 1.350 . S
C679 H666 0.929 . S
C679 C671 1.433 . S
C679 N681 1.384 . S
N680 C676 1.427 . S
N680 C677 1.384 . S
N681 C673 1.427 1_545 S
N681 C679 1.384 . S
H682 C688 0.930 . S
H683 C692 0.930 . S
H684 C697 0.929 . S
H685 C695 0.929 . S
H686 C690 0.929 . S
H687 C696 0.929 . S
C688 H682 0.930 . S
C688 C689 1.367 . S
C688 C696 1.378 . S
C689 C688 1.367 . S
C689 C697 1.433 . S
C690 H686 0.929 . S
C690 C692 1.378 . S
C690 C694 1.350 . S
C691 C694 1.463 . S
C691 C696 1.350 . S
C691 N699 1.427 . S
C692 H683 0.930 . S
C692 C690 1.378 . S
C692 C693 1.367 . S
C693 C692 1.367 . S
C693 C695 1.433 . S
C694 C690 1.350 . S
C694 C691 1.463 . S
C694 N698 1.427 . S
C695 H685 0.929 . S
C695 C693 1.433 . S
C695 N698 1.384 . S
C696 H687 0.929 . S
C696 C688 1.378 . S
C696 C691 1.350 . S
C697 H684 0.929 . S
C697 C689 1.433 . S
C697 N699 1.384 . S
N698 C694 1.427 . S
N698 C695 1.384 . S
N699 C691 1.427 . S
N699 C697 1.384 . S
H700 C706 0.930 . S
H701 C710 0.930 . S
H702 C715 0.929 . S
H703 C713 0.929 . S
H704 C708 0.929 . S
H705 C714 0.929 . S
C706 H700 0.930 . S
C706 C707 1.367 . S
C706 C714 1.378 . S
C707 C706 1.367 . S
C707 C715 1.433 . S
C708 H704 0.929 . S
C708 C710 1.378 . S
C708 C712 1.350 . S
C709 C712 1.463 . S
C709 C714 1.350 . S
C709 N717 1.427 . S
C710 H701 0.930 . S
C710 C708 1.378 . S
C710 C711 1.367 . S
C711 C710 1.367 . S
C711 C713 1.433 . S
C712 C708 1.350 . S
C712 C709 1.463 . S
C712 N716 1.427 . S
C713 H703 0.929 . S
C713 C711 1.433 . S
C713 N716 1.384 . S
C714 H705 0.929 . S
C714 C706 1.378 . S
C714 C709 1.350 . S
C715 H702 0.929 . S
C715 C707 1.433 . S
C715 N717 1.384 . S
N716 C712 1.427 . S
N716 C713 1.384 . S
N717 C709 1.427 . S
N717 C715 1.384 . S
H718 C724 0.930 . S
H719 C728 0.930 . S
H720 C733 0.929 . S
H721 C731 0.929 . S
H722 C726 0.929 . S
H723 C732 0.929 . S
C724 H718 0.930 . S
C724 C725 1.367 1_565 S
C724 C732 1.378 . S
C725 C724 1.367 1_545 S
C725 C733 1.433 . S
C726 H722 0.929 . S
C726 C728 1.378 . S
C726 C730 1.350 . S
C727 C730 1.463 . S
C727 C732 1.350 . S
C727 N735 1.427 1_565 S
C728 H719 0.930 . S
C728 C726 1.378 . S
C728 C729 1.367 . S
C729 C728 1.367 . S
C729 C731 1.433 . S
C730 C726 1.350 . S
C730 C727 1.463 . S
C730 N734 1.427 . S
C731 H721 0.929 . S
C731 C729 1.433 . S
C731 N734 1.384 . S
C732 H723 0.929 . S
C732 C724 1.378 . S
C732 C727 1.350 . S
C733 H720 0.929 . S
C733 C725 1.433 . S
C733 N735 1.384 . S
N734 C730 1.427 . S
N734 C731 1.384 . S
N735 C727 1.427 1_545 S
N735 C733 1.384 . S
H736 C742 0.930 1_556 S
H737 C746 0.930 . S
H738 C751 0.929 . S
H739 C749 0.929 . S
H740 C744 0.929 . S
H741 C750 0.929 . S
C742 H736 0.930 1_554 S
C742 C743 1.367 1_554 S
C742 C750 1.378 . S
C743 C742 1.367 1_556 S
C743 C751 1.433 1_556 S
C744 H740 0.929 . S
C744 C746 1.378 . S
C744 C748 1.350 . S
C745 C748 1.463 . S
C745 C750 1.350 . S
C745 N753 1.427 . S
C746 H737 0.930 . S
C746 C744 1.378 . S
C746 C747 1.367 . S
C747 C746 1.367 . S
C747 C749 1.433 . S
C748 C744 1.350 . S
C748 C745 1.463 . S
C748 N752 1.427 . S
C749 H739 0.929 . S
C749 C747 1.433 . S
C749 N752 1.384 . S
C750 H741 0.929 . S
C750 C742 1.378 . S
C750 C745 1.350 . S
C751 H738 0.929 . S
C751 C743 1.433 1_554 S
C751 N753 1.384 . S
N752 C748 1.427 . S
N752 C749 1.384 . S
N753 C745 1.427 . S
N753 C751 1.384 . S
H754 C760 0.930 . S
H755 C764 0.930 . S
H756 C769 0.929 . S
H757 C767 0.929 . S
H758 C762 0.929 . S
H759 C768 0.929 . S
C760 H754 0.930 . S
C760 C761 1.367 . S
C760 C768 1.378 . S
C761 C760 1.367 . S
C761 C769 1.433 . S
C762 H758 0.929 . S
C762 C764 1.378 . S
C762 C766 1.350 . S
C763 C766 1.463 . S
C763 C768 1.350 . S
C763 N771 1.427 . S
C764 H755 0.930 . S
C764 C762 1.378 . S
C764 C765 1.367 . S
C765 C764 1.367 . S
C765 C767 1.433 . S
C766 C762 1.350 . S
C766 C763 1.463 . S
C766 N770 1.427 . S
C767 H757 0.929 . S
C767 C765 1.433 . S
C767 N770 1.384 . S
C768 H759 0.929 . S
C768 C760 1.378 . S
C768 C763 1.350 . S
C769 H756 0.929 . S
C769 C761 1.433 . S
C769 N771 1.384 . S
N770 C766 1.427 . S
N770 C767 1.384 . S
N771 C763 1.427 . S
N771 C769 1.384 . S
H772 C778 0.930 . S
H773 C782 0.930 . S
H774 C787 0.929 . S
H775 C785 0.929 . S
H776 C780 0.929 . S
H777 C786 0.929 . S
C778 H772 0.930 . S
C778 C779 1.367 . S
C778 C786 1.378 1_554 S
C779 C778 1.367 . S
C779 C787 1.433 1_554 S
C780 H776 0.929 . S
C780 C782 1.378 . S
C780 C784 1.350 . S
C781 C784 1.463 . S
C781 C786 1.350 . S
C781 N789 1.427 . S
C782 H773 0.930 . S
C782 C780 1.378 . S
C782 C783 1.367 . S
C783 C782 1.367 . S
C783 C785 1.433 . S
C784 C780 1.350 . S
C784 C781 1.463 . S
C784 N788 1.427 . S
C785 H775 0.929 . S
C785 C783 1.433 . S
C785 N788 1.384 . S
C786 H777 0.929 . S
C786 C778 1.378 1_556 S
C786 C781 1.350 . S
C787 H774 0.929 . S
C787 C779 1.433 1_556 S
C787 N789 1.384 . S
N788 C784 1.427 . S
N788 C785 1.384 . S
N789 C781 1.427 . S
N789 C787 1.384 . S
H790 C796 0.930 . S
H791 C800 0.930 . S
H792 C805 0.929 . S
H793 C803 0.929 . S
H794 C798 0.929 . S
H795 C804 0.929 . S
C796 H790 0.930 . S
C796 C797 1.367 . S
C796 C804 1.378 . S
C797 C796 1.367 . S
C797 C805 1.433 . S
C798 H794 0.929 . S
C798 C800 1.378 . S
C798 C802 1.350 . S
C799 C802 1.463 . S
C799 C804 1.350 . S
C799 N807 1.427 . S
C800 H791 0.930 . S
C800 C798 1.378 . S
C800 C801 1.367 . S
C801 C800 1.367 . S
C801 C803 1.433 . S
C802 C798 1.350 . S
C802 C799 1.463 . S
C802 N806 1.427 . S
C803 H793 0.929 . S
C803 C801 1.433 . S
C803 N806 1.384 . S
C804 H795 0.929 . S
C804 C796 1.378 . S
C804 C799 1.350 . S
C805 H792 0.929 . S
C805 C797 1.433 . S
C805 N807 1.384 . S
N806 C802 1.427 . S
N806 C803 1.384 . S
N807 C799 1.427 . S
N807 C805 1.384 . S
H808 C814 0.930 . S
H809 C818 0.930 . S
H810 C823 0.929 . S
H811 C821 0.929 . S
H812 C816 0.929 . S
H813 C822 0.929 . S
C814 H808 0.930 . S
C814 C815 1.367 . S
C814 C822 1.378 1_554 S
C815 C814 1.367 . S
C815 C823 1.433 1_554 S
C816 H812 0.929 . S
C816 C818 1.378 . S
C816 C820 1.350 . S
C817 C820 1.463 . S
C817 C822 1.350 . S
C817 N825 1.427 . S
C818 H809 0.930 . S
C818 C816 1.378 . S
C818 C819 1.367 . S
C819 C818 1.367 . S
C819 C821 1.433 . S
C820 C816 1.350 . S
C820 C817 1.463 . S
C820 N824 1.427 . S
C821 H811 0.929 . S
C821 C819 1.433 . S
C821 N824 1.384 . S
C822 H813 0.929 . S
C822 C814 1.378 1_556 S
C822 C817 1.350 . S
C823 H810 0.929 . S
C823 C815 1.433 1_556 S
C823 N825 1.384 . S
N824 C820 1.427 . S
N824 C821 1.384 . S
N825 C817 1.427 . S
N825 C823 1.384 . S
H826 C832 0.930 . S
H827 C836 0.930 . S
H828 C841 0.929 . S
H829 C839 0.929 . S
H830 C834 0.929 . S
H831 C840 0.929 . S
C832 H826 0.930 . S
C832 C833 1.367 . S
C832 C840 1.378 . S
C833 C832 1.367 . S
C833 C841 1.433 . S
C834 H830 0.929 . S
C834 C836 1.378 . S
C834 C838 1.350 . S
C835 C838 1.463 . S
C835 C840 1.350 . S
C835 N843 1.427 . S
C836 H827 0.930 . S
C836 C834 1.378 . S
C836 C837 1.367 . S
C837 C836 1.367 . S
C837 C839 1.433 . S
C838 C834 1.350 . S
C838 C835 1.463 . S
C838 N842 1.427 . S
C839 H829 0.929 . S
C839 C837 1.433 . S
C839 N842 1.384 . S
C840 H831 0.929 . S
C840 C832 1.378 . S
C840 C835 1.350 . S
C841 H828 0.929 . S
C841 C833 1.433 . S
C841 N843 1.384 . S
N842 C838 1.427 . S
N842 C839 1.384 . S
N843 C835 1.427 . S
N843 C841 1.384 . S
H844 C850 0.930 . S
H845 C854 0.930 . S
H846 C859 0.929 1_556 S
H847 C857 0.929 . S
H848 C852 0.929 . S
H849 C858 0.929 . S
C850 H844 0.930 . S
C850 C851 1.367 1_554 S
C850 C858 1.378 . S
C851 C850 1.367 1_556 S
C851 C859 1.433 1_556 S
C852 H848 0.929 . S
C852 C854 1.378 . S
C852 C856 1.350 . S
C853 C856 1.463 . S
C853 C858 1.350 . S
C853 N861 1.427 . S
C854 H845 0.930 . S
C854 C852 1.378 . S
C854 C855 1.367 . S
C855 C854 1.367 . S
C855 C857 1.433 . S
C856 C852 1.350 . S
C856 C853 1.463 . S
C856 N860 1.427 . S
C857 H847 0.929 . S
C857 C855 1.433 . S
C857 N860 1.384 . S
C858 H849 0.929 . S
C858 C850 1.378 . S
C858 C853 1.350 . S
C859 H846 0.929 1_554 S
C859 C851 1.433 1_554 S
C859 N861 1.384 . S
N860 C856 1.427 . S
N860 C857 1.384 . S
N861 C853 1.427 . S
N861 C859 1.384 . S
H862 C868 0.930 . S
H863 C872 0.930 . S
H864 C877 0.929 . S
H865 C875 0.929 . S
H866 C870 0.929 . S
H867 C876 0.929 . S
C868 H862 0.930 . S
C868 C869 1.367 . S
C868 C876 1.378 . S
C869 C868 1.367 . S
C869 C877 1.433 . S
C870 H866 0.929 . S
C870 C872 1.378 . S
C870 C874 1.350 . S
C871 C874 1.463 . S
C871 C876 1.350 . S
C871 N879 1.427 . S
C872 H863 0.930 . S
C872 C870 1.378 . S
C872 C873 1.367 . S
C873 C872 1.367 . S
C873 C875 1.433 . S
C874 C870 1.350 . S
C874 C871 1.463 . S
C874 N878 1.427 . S
C875 H865 0.929 . S
C875 C873 1.433 . S
C875 N878 1.384 . S
C876 H867 0.929 . S
C876 C868 1.378 . S
C876 C871 1.350 . S
C877 H864 0.929 . S
C877 C869 1.433 . S
C877 N879 1.384 . S
N878 C874 1.427 . S
N878 C875 1.384 . S
N879 C871 1.427 . S
N879 C877 1.384 . S
H880 C886 0.930 . S
H881 C890 0.930 . S
H882 C895 0.929 . S
H883 C893 0.929 . S
H884 C888 0.929 . S
H885 C894 0.929 . S
C886 H880 0.930 . S
C886 C887 1.367 . S
C886 C894 1.378 . S
C887 C886 1.367 . S
C887 C895 1.433 . S
C888 H884 0.929 . S
C888 C890 1.378 . S
C888 C892 1.350 . S
C889 C892 1.463 . S
C889 C894 1.350 . S
C889 N897 1.427 . S
C890 H881 0.930 . S
C890 C888 1.378 . S
C890 C891 1.367 . S
C891 C890 1.367 . S
C891 C893 1.433 . S
C892 C888 1.350 . S
C892 C889 1.463 . S
C892 N896 1.427 . S
C893 H883 0.929 . S
C893 C891 1.433 . S
C893 N896 1.384 . S
C894 H885 0.929 . S
C894 C886 1.378 . S
C894 C889 1.350 . S
C895 H882 0.929 . S
C895 C887 1.433 . S
C895 N897 1.384 . S
N896 C892 1.427 . S
N896 C893 1.384 . S
N897 C889 1.427 . S
N897 C895 1.384 . S
H898 C904 0.930 . S
H899 C908 0.930 . S
H900 C913 0.929 . S
H901 C911 0.929 . S
H902 C906 0.929 . S
H903 C912 0.929 . S
C904 H898 0.930 . S
C904 C905 1.367 . S
C904 C912 1.378 . S
C905 C904 1.367 . S
C905 C913 1.433 . S
C906 H902 0.929 . S
C906 C908 1.378 . S
C906 C910 1.350 . S
C907 C910 1.463 . S
C907 C912 1.350 . S
C907 N915 1.427 . S
C908 H899 0.930 . S
C908 C906 1.378 . S
C908 C909 1.367 . S
C909 C908 1.367 . S
C909 C911 1.433 . S
C910 C906 1.350 . S
C910 C907 1.463 . S
C910 N914 1.427 . S
C911 H901 0.929 . S
C911 C909 1.433 . S
C911 N914 1.384 . S
C912 H903 0.929 . S
C912 C904 1.378 . S
C912 C907 1.350 . S
C913 H900 0.929 . S
C913 C905 1.433 . S
C913 N915 1.384 . S
N914 C910 1.427 . S
N914 C911 1.384 . S
N915 C907 1.427 . S
N915 C913 1.384 . S
H916 C922 0.930 . S
H917 C926 0.930 . S
H918 C931 0.929 . S
H919 C929 0.929 . S
H920 C924 0.929 . S
H921 C930 0.929 . S
C922 H916 0.930 . S
C922 C923 1.367 . S
C922 C930 1.378 . S
C923 C922 1.367 . S
C923 C931 1.433 . S
C924 H920 0.929 . S
C924 C926 1.378 . S
C924 C928 1.350 . S
C925 C928 1.463 . S
C925 C930 1.350 . S
C925 N933 1.427 . S
C926 H917 0.930 . S
C926 C924 1.378 . S
C926 C927 1.367 . S
C927 C926 1.367 . S
C927 C929 1.433 . S
C928 C924 1.350 . S
C928 C925 1.463 . S
C928 N932 1.427 . S
C929 H919 0.929 . S
C929 C927 1.433 . S
C929 N932 1.384 . S
C930 H921 0.929 . S
C930 C922 1.378 . S
C930 C925 1.350 . S
C931 H918 0.929 . S
C931 C923 1.433 . S
C931 N933 1.384 . S
N932 C928 1.427 . S
N932 C929 1.384 . S
N933 C925 1.427 . S
N933 C931 1.384 . S
H934 C940 0.930 . S
H935 C944 0.930 . S
H936 C949 0.929 . S
H937 C947 0.929 . S
H938 C942 0.929 . S
H939 C948 0.929 . S
C940 H934 0.930 . S
C940 C941 1.367 . S
C940 C948 1.378 . S
C941 C940 1.367 . S
C941 C949 1.433 . S
C942 H938 0.929 . S
C942 C944 1.378 . S
C942 C946 1.350 . S
C943 C946 1.463 . S
C943 C948 1.350 . S
C943 N951 1.427 . S
C944 H935 0.930 . S
C944 C942 1.378 . S
C944 C945 1.367 . S
C945 C944 1.367 . S
C945 C947 1.433 . S
C946 C942 1.350 . S
C946 C943 1.463 . S
C946 N950 1.427 . S
C947 H937 0.929 . S
C947 C945 1.433 . S
C947 N950 1.384 . S
C948 H939 0.929 . S
C948 C940 1.378 . S
C948 C943 1.350 . S
C949 H936 0.929 . S
C949 C941 1.433 . S
C949 N951 1.384 . S
N950 C946 1.427 . S
N950 C947 1.384 . S
N951 C943 1.427 . S
N951 C949 1.384 . S
H952 C958 0.930 . S
H953 C962 0.930 . S
H954 C967 0.929 . S
H955 C965 0.929 . S
H956 C960 0.929 . S
H957 C966 0.929 . S
C958 H952 0.930 . S
C958 C959 1.367 . S
C958 C966 1.378 . S
C959 C958 1.367 . S
C959 C967 1.433 . S
C960 H956 0.929 . S
C960 C962 1.378 . S
C960 C964 1.350 . S
C961 C964 1.463 . S
C961 C966 1.350 . S
C961 N969 1.427 . S
C962 H953 0.930 . S
C962 C960 1.378 . S
C962 C963 1.367 . S
C963 C962 1.367 . S
C963 C965 1.433 . S
C964 C960 1.350 . S
C964 C961 1.463 . S
C964 N968 1.427 . S
C965 H955 0.929 . S
C965 C963 1.433 . S
C965 N968 1.384 . S
C966 H957 0.929 . S
C966 C958 1.378 . S
C966 C961 1.350 . S
C967 H954 0.929 . S
C967 C959 1.433 . S
C967 N969 1.384 . S
N968 C964 1.427 . S
N968 C965 1.384 . S
N969 C961 1.427 . S
N969 C967 1.384 . S
H970 C976 0.930 . S
H971 C980 0.930 . S
H972 C985 0.929 . S
H973 C983 0.929 . S
H974 C978 0.929 . S
H975 C984 0.929 . S
C976 H970 0.930 . S
C976 C977 1.367 . S
C976 C984 1.378 . S
C977 C976 1.367 . S
C977 C985 1.433 . S
C978 H974 0.929 . S
C978 C980 1.378 . S
C978 C982 1.350 . S
C979 C982 1.463 . S
C979 C984 1.350 . S
C979 N987 1.427 . S
C980 H971 0.930 . S
C980 C978 1.378 . S
C980 C981 1.367 . S
C981 C980 1.367 . S
C981 C983 1.433 . S
C982 C978 1.350 . S
C982 C979 1.463 . S
C982 N986 1.427 . S
C983 H973 0.929 . S
C983 C981 1.433 . S
C983 N986 1.384 . S
C984 H975 0.929 . S
C984 C976 1.378 . S
C984 C979 1.350 . S
C985 H972 0.929 . S
C985 C977 1.433 . S
C985 N987 1.384 . S
N986 C982 1.427 . S
N986 C983 1.384 . S
N987 C979 1.427 . S
N987 C985 1.384 . S
H988 C994 0.930 . S
H989 C998 0.930 . S
H990 C1003 0.929 . S
H991 C1001 0.929 . S
H992 C996 0.929 . S
H993 C1002 0.929 . S
C994 H988 0.930 . S
C994 C995 1.367 . S
C994 C1002 1.378 . S
C995 C994 1.367 . S
C995 C1003 1.433 . S
C996 H992 0.929 . S
C996 C998 1.378 . S
C996 C1000 1.350 . S
C997 C1000 1.463 . S
C997 C1002 1.350 . S
C997 N1005 1.427 . S
C998 H989 0.930 . S
C998 C996 1.378 . S
C998 C999 1.367 . S
C999 C998 1.367 . S
C999 C1001 1.433 . S
C1000 C996 1.350 . S
C1000 C997 1.463 . S
C1000 N1004 1.427 . S
C1001 H991 0.929 . S
C1001 C999 1.433 . S
C1001 N1004 1.384 . S
C1002 H993 0.929 . S
C1002 C994 1.378 . S
C1002 C997 1.350 . S
C1003 H990 0.929 . S
C1003 C995 1.433 . S
C1003 N1005 1.384 . S
N1004 C1000 1.427 . S
N1004 C1001 1.384 . S
N1005 C997 1.427 . S
N1005 C1003 1.384 . S
H1006 C1012 0.930 . S
H1007 C1016 0.930 . S
H1008 C1021 0.929 . S
H1009 C1019 0.929 . S
H1010 C1014 0.929 . S
H1011 C1020 0.929 . S
C1012 H1006 0.930 . S
C1012 C1013 1.367 . S
C1012 C1020 1.378 . S
C1013 C1012 1.367 . S
C1013 C1021 1.433 . S
C1014 H1010 0.929 . S
C1014 C1016 1.378 . S
C1014 C1018 1.350 . S
C1015 C1018 1.463 . S
C1015 C1020 1.350 . S
C1015 N1023 1.427 . S
C1016 H1007 0.930 . S
C1016 C1014 1.378 . S
C1016 C1017 1.367 . S
C1017 C1016 1.367 . S
C1017 C1019 1.433 . S
C1018 C1014 1.350 . S
C1018 C1015 1.463 . S
C1018 N1022 1.427 . S
C1019 H1009 0.929 . S
C1019 C1017 1.433 . S
C1019 N1022 1.384 . S
C1020 H1011 0.929 . S
C1020 C1012 1.378 . S
C1020 C1015 1.350 . S
C1021 H1008 0.929 . S
C1021 C1013 1.433 . S
C1021 N1023 1.384 . S
N1022 C1018 1.427 . S
N1022 C1019 1.384 . S
N1023 C1015 1.427 . S
N1023 C1021 1.384 . S
C599 C221 1.474 . S
C603 C330 1.477 . S
C621 C414 1.478 . S
C617 C241 1.452 . S
C639 C407 1.478 . S
C635 C157 1.469 . S
C653 C177 1.434 . S
C657 C323 1.482 . S
C675 C487 1.468 . S
C671 C93 1.444 . S
C693 C571 1.473 . S
C689 C113 1.482 . S
C707 C29 1.425 . S
C711 C564 1.478 . S
C725 C49 1.480 . S
C729 C480 1.486 . S
C747 C314 1.324 . S
C743 C61 1.509 . S
C765 C398 1.329 . S
C761 C17 1.465 . S
C783 C409 1.396 . S
C779 C125 1.523 . S
C801 C325 1.394 . S
C797 C81 1.483 . S
C819 C493 1.326 . S
C815 C189 1.450 . S
C833 C145 1.509 . S
C837 C577 1.330 . S
C855 C566 1.406 . S
C851 C253 1.478 . S
C869 C209 1.522 . S
C873 C482 1.384 . S
C891 C312 1.556 . S
C887 C23 1.506 . S
C909 C396 1.569 . S
C905 C55 1.556 . S
C923 C87 1.504 . S
C927 C403 1.543 . S
C945 C319 1.554 . S
C941 C119 1.545 . S
C963 C491 1.556 . S
C959 C151 1.548 . S
C977 C183 1.509 . S
C981 C575 1.569 . S
C995 C215 1.542 . S
C999 C582 1.535 . S
C1013 C247 1.509 . S
C1017 C498 1.552 . S
