# Generated by pormake.
# Topology ssa, (4,4)-cn, num edge types: 1
# Building blocks:
#     Node 0, Type 0, BuildingBlock: KOZSID_clean_sbu_0, # of connection points: 4
#     Node 1, Type 0, BuildingBlock: KOZSID_clean_sbu_0, # of connection points: 4
#     Node 2, Type 0, BuildingBlock: KOZSID_clean_sbu_0, # of connection points: 4
#     Node 3, Type 0, BuildingBlock: KOZSID_clean_sbu_0, # of connection points: 4
#     Node 4, Type 0, BuildingBlock: KOZSID_clean_sbu_0, # of connection points: 4
#     Node 5, Type 0, BuildingBlock: KOZSID_clean_sbu_0, # of connection points: 4
#     Node 6, Type 1, BuildingBlock: MUDLON_clean_linker_0, # of connection points: 4
#     Node 7, Type 1, BuildingBlock: MUDLON_clean_linker_0, # of connection points: 4
#     Node 8, Type 1, BuildingBlock: MUDLON_clean_linker_0, # of connection points: 4
#     Node 9, Type 1, BuildingBlock: MUDLON_clean_linker_0, # of connection points: 4
#     Node 10, Type 1, BuildingBlock: MUDLON_clean_linker_0, # of connection points: 4
#     Node 11, Type 1, BuildingBlock: MUDLON_clean_linker_0, # of connection points: 4
#     Edge 12, Type (0, 1), BuildingBlock: UVAHIK_clean_linker_0, # of connection points: 2
#     Edge 13, Type (0, 1), BuildingBlock: UVAHIK_clean_linker_0, # of connection points: 2
#     Edge 14, Type (0, 1), BuildingBlock: UVAHIK_clean_linker_0, # of connection points: 2
#     Edge 15, Type (0, 1), BuildingBlock: UVAHIK_clean_linker_0, # of connection points: 2
#     Edge 16, Type (0, 1), BuildingBlock: UVAHIK_clean_linker_0, # of connection points: 2
#     Edge 17, Type (0, 1), BuildingBlock: UVAHIK_clean_linker_0, # of connection points: 2
#     Edge 18, Type (0, 1), BuildingBlock: UVAHIK_clean_linker_0, # of connection points: 2
#     Edge 19, Type (0, 1), BuildingBlock: UVAHIK_clean_linker_0, # of connection points: 2
#     Edge 20, Type (0, 1), BuildingBlock: UVAHIK_clean_linker_0, # of connection points: 2
#     Edge 21, Type (0, 1), BuildingBlock: UVAHIK_clean_linker_0, # of connection points: 2
#     Edge 22, Type (0, 1), BuildingBlock: UVAHIK_clean_linker_0, # of connection points: 2
#     Edge 23, Type (0, 1), BuildingBlock: UVAHIK_clean_linker_0, # of connection points: 2
#     Edge 24, Type (0, 1), BuildingBlock: UVAHIK_clean_linker_0, # of connection points: 2
#     Edge 25, Type (0, 1), BuildingBlock: UVAHIK_clean_linker_0, # of connection points: 2
#     Edge 26, Type (0, 1), BuildingBlock: UVAHIK_clean_linker_0, # of connection points: 2
#     Edge 27, Type (0, 1), BuildingBlock: UVAHIK_clean_linker_0, # of connection points: 2
#     Edge 28, Type (0, 1), BuildingBlock: UVAHIK_clean_linker_0, # of connection points: 2
#     Edge 29, Type (0, 1), BuildingBlock: UVAHIK_clean_linker_0, # of connection points: 2
#     Edge 30, Type (0, 1), BuildingBlock: UVAHIK_clean_linker_0, # of connection points: 2
#     Edge 31, Type (0, 1), BuildingBlock: UVAHIK_clean_linker_0, # of connection points: 2
#     Edge 32, Type (0, 1), BuildingBlock: UVAHIK_clean_linker_0, # of connection points: 2
#     Edge 33, Type (0, 1), BuildingBlock: UVAHIK_clean_linker_0, # of connection points: 2
#     Edge 34, Type (0, 1), BuildingBlock: UVAHIK_clean_linker_0, # of connection points: 2
#     Edge 35, Type (0, 1), BuildingBlock: UVAHIK_clean_linker_0, # of connection points: 2
# Relax obj value: 0.005
# Max RMSD: 0.044
# Mean RMSD: 0.024
data_MOF--net-ssa--node1-KOZSID_clean_sbu_0--node2-MUDLON_clean_linker_0--edge1-UVAHIK_clean_linker_0
_symmetry_space_group_name_H-M    P1
_symmetry_Int_Tables_number       1
_symmetry_cell_setting            triclinic
loop_
_symmetry_equiv_pos_as_xyz
'x, y, z'
_cell_length_a     89.724742
_cell_length_b     91.217656
_cell_length_c     50.955281
_cell_angle_alpha  88.001769
_cell_angle_beta   89.974409
_cell_angle_gamma 121.58757
loop_
_atom_site_label
_atom_site_type_symbol
_atom_site_fract_x
_atom_site_fract_y
_atom_site_fract_z
_atom_type_partial_charge
C0 C 0.9709 0.49647 0.04319 0.0
C1 C 0.9563 0.49236 0.05849 0.0
C2 C 0.95694 0.48394 0.0807 0.0
C3 C 0.97176 0.4833 0.07763 0.0
N4 N 0.98074 0.49093 0.0549 0.0
Co5 Co 0.00254 0.49216 0.042 0.0
N6 N 0.00345 0.47976 0.07471 0.0
C7 C 0.99246 0.47441 0.09585 0.0
C8 C 0.99668 0.46679 0.11569 0.0
C9 C 0.01135 0.4674 0.10681 0.0
C10 C 0.01517 0.47533 0.0819 0.0
N11 N 0.02395 0.49283 0.02862 0.0
C12 C 0.03338 0.48667 0.03984 0.0
C13 C 0.04704 0.48934 0.02346 0.0
C14 C 0.04631 0.49764 0.00117 0.0
C15 C 0.03228 0.49947 0.00513 0.0
N16 N 0.00201 0.50509 0.00969 0.0
C17 C 0.01382 0.51168 0.9895 0.0
C18 C 0.01027 0.52032 0.97044 0.0
C19 C 0.99527 0.51919 0.9789 0.0
C20 C 0.99047 0.50978 0.00267 0.0
N21 N 0.0174 0.51445 0.05911 0.0
C22 C 0.03917 0.54578 0.08394 0.0
C23 C 0.04386 0.54262 0.05957 0.0
C24 C 0.03286 0.52712 0.04757 0.0
C25 C 0.02324 0.53298 0.09551 0.0
C26 C 0.01271 0.51753 0.08296 0.0
N27 N 0.9878 0.46989 0.02492 0.0
C28 C 0.98096 0.4526 0.98678 0.0
C29 C 0.96845 0.43786 0.00112 0.0
C30 C 0.9654 0.43955 0.02742 0.0
C31 C 0.97513 0.45557 0.03883 0.0
C32 C 0.99036 0.46831 0.99892 0.0
H33 H 0.9723 0.45599 0.05899 0.0
H34 H 0.99972 0.47897 0.98685 0.0
H35 H 0.03727 0.52566 0.02903 0.0
H36 H 0.00086 0.50827 0.093 0.0
C37 C 0.97789 0.47613 0.09606 0.0
C38 C 0.97469 0.50543 0.01756 0.0
C39 C 0.0302 0.47857 0.06606 0.0
C40 C 0.02734 0.5084 0.98803 0.0
H41 H 0.94621 0.49512 0.05403 0.0
H42 H 0.94771 0.47889 0.09713 0.0
H43 H 0.98987 0.46137 0.13435 0.0
H44 H 0.01844 0.46257 0.11746 0.0
H45 H 0.05666 0.48583 0.02737 0.0
H46 H 0.05517 0.5021 0.9843 0.0
H47 H 0.01753 0.52641 0.9523 0.0
H48 H 0.98852 0.52452 0.96858 0.0
H49 H 0.05617 0.55191 0.04985 0.0
H50 H 0.01879 0.53482 0.11416 0.0
H51 H 0.9835 0.45207 0.96616 0.0
H52 H 0.95586 0.42851 0.03939 0.0
C53 C 0.55325 0.01699 0.5493 0.0
C54 C 0.55478 0.01364 0.57566 0.0
C55 C 0.53878 0.00032 0.58409 0.0
C56 C 0.52837 0.9964 0.56262 0.0
N57 N 0.53675 0.00633 0.54088 0.0
Co58 Co 0.52604 0.0059 0.50615 0.0
N59 N 0.5027 0.98568 0.51825 0.0
C60 C 0.49878 0.97715 0.54192 0.0
C61 C 0.48215 0.96302 0.54397 0.0
C62 C 0.47503 0.96232 0.52007 0.0
C63 C 0.48773 0.97627 0.50485 0.0
N64 N 0.51517 0.00598 0.47184 0.0
C65 C 0.49871 0.99534 0.4634 0.0
C66 C 0.49633 0.00059 0.43865 0.0
C67 C 0.51195 0.01479 0.43095 0.0
C68 C 0.52288 0.01753 0.45143 0.0
N69 N 0.54957 0.0255 0.49352 0.0
C70 C 0.55373 0.03335 0.46931 0.0
C71 C 0.5711 0.04567 0.46579 0.0
C72 C 0.57852 0.04574 0.48915 0.0
C73 C 0.56513 0.03355 0.50578 0.0
N74 N 0.53227 0.98957 0.49297 0.0
C75 C 0.54085 0.96622 0.47397 0.0
C76 C 0.5425 0.9797 0.45781 0.0
C77 C 0.53808 0.99107 0.46757 0.0
C78 C 0.53481 0.96459 0.49979 0.0
C79 C 0.53075 0.9764 0.50889 0.0
N80 N 0.51975 0.02232 0.51938 0.0
C81 C 0.52219 0.05007 0.51656 0.0
C82 C 0.51097 0.0456 0.53829 0.0
C83 C 0.5042 0.02933 0.55043 0.0
C84 C 0.50885 0.01806 0.54091 0.0
C85 C 0.52623 0.03828 0.50734 0.0
H86 H 0.50348 0.00603 0.55147 0.0
H87 H 0.53464 0.04246 0.49044 0.0
H88 H 0.53939 0.00094 0.45419 0.0
H89 H 0.5264 0.97463 0.52887 0.0
C90 C 0.51095 0.98293 0.56192 0.0
C91 C 0.56776 0.03056 0.53325 0.0
C92 C 0.48509 0.97991 0.4777 0.0
C93 C 0.54081 0.02962 0.45094 0.0
H94 H 0.56623 0.02016 0.58766 0.0
H95 H 0.53517 0.99418 0.60353 0.0
H96 H 0.476 0.95418 0.56076 0.0
H97 H 0.462 0.95253 0.5145 0.0
H98 H 0.4846 0.99459 0.42713 0.0
H99 H 0.5151 0.02197 0.41232 0.0
H100 H 0.57754 0.05381 0.44843 0.0
H101 H 0.59222 0.05402 0.49355 0.0
H102 H 0.54695 0.98133 0.43755 0.0
H103 H 0.53348 0.95442 0.51307 0.0
H104 H 0.52764 0.06254 0.50647 0.0
H105 H 0.49559 0.02542 0.56755 0.0
C106 C 0.55783 0.52589 0.9643 0.0
C107 C 0.56258 0.53566 0.94088 0.0
C108 C 0.54832 0.53619 0.93312 0.0
C109 C 0.53574 0.52677 0.95215 0.0
N110 N 0.54111 0.5203 0.9717 0.0
Co111 Co 0.52712 0.50606 0.00344 0.0
N112 N 0.50572 0.50569 0.99089 0.0
C113 C 0.50403 0.51264 0.96803 0.0
C114 C 0.48777 0.5103 0.96483 0.0
C115 C 0.4785 0.50139 0.98705 0.0
C116 C 0.48973 0.49884 0.00257 0.0
N117 N 0.5133 0.49231 0.03563 0.0
C118 C 0.4968 0.48728 0.04344 0.0
C119 C 0.49241 0.47854 0.06775 0.0
C120 C 0.50674 0.47823 0.07578 0.0
C121 C 0.519 0.48675 0.056 0.0
N122 N 0.54834 0.50589 0.01553 0.0
C123 C 0.54974 0.4981 0.03768 0.0
C124 C 0.56572 0.49968 0.0402 0.0
C125 C 0.57505 0.50885 0.01818 0.0
C126 C 0.56417 0.51235 0.0035 0.0
N127 N 0.53466 0.52755 0.02217 0.0
C128 C 0.5445 0.55762 0.04963 0.0
C129 C 0.54776 0.54512 0.0597 0.0
C130 C 0.54265 0.5303 0.04594 0.0
C131 C 0.5364 0.55483 0.02532 0.0
C132 C 0.53178 0.53994 0.01197 0.0
N133 N 0.51959 0.48458 0.98473 0.0
C134 C 0.51403 0.45561 0.98425 0.0
C135 C 0.50975 0.4544 0.95773 0.0
C136 C 0.51034 0.46854 0.94506 0.0
C137 C 0.51527 0.48336 0.95878 0.0
C138 C 0.51882 0.47065 0.99726 0.0
H139 H 0.51553 0.49367 0.94791 0.0
H140 H 0.52197 0.47072 0.0174 0.0
H141 H 0.54528 0.52123 0.05502 0.0
H142 H 0.52578 0.53872 0.9935 0.0
C143 C 0.51841 0.5226 0.95111 0.0
C144 C 0.56941 0.52168 0.97813 0.0
C145 C 0.48492 0.49071 0.02881 0.0
C146 C 0.53589 0.48963 0.05592 0.0
H147 H 0.57497 0.54152 0.93024 0.0
H148 H 0.5471 0.54231 0.91534 0.0
H149 H 0.48335 0.51498 0.94866 0.0
H150 H 0.46513 0.49758 0.9916 0.0
H151 H 0.48015 0.47308 0.07863 0.0
H152 H 0.50811 0.47257 0.09394 0.0
H153 H 0.57003 0.49469 0.05609 0.0
H154 H 0.58835 0.51249 0.01339 0.0
H155 H 0.55436 0.54673 0.07812 0.0
H156 H 0.53333 0.56392 0.01667 0.0
H157 H 0.51399 0.44511 0.99493 0.0
H158 H 0.50685 0.46818 0.92465 0.0
C159 C 0.01565 0.47968 0.54588 0.0
C160 C 0.0016 0.46877 0.53054 0.0
C161 C 0.00249 0.47816 0.50855 0.0
C162 C 0.01703 0.49414 0.51157 0.0
N163 N 0.02559 0.49555 0.53412 0.0
Co164 Co 0.04768 0.51637 0.54593 0.0
N165 N 0.04905 0.53005 0.51334 0.0
C166 C 0.03746 0.52483 0.49362 0.0
C167 C 0.04187 0.53711 0.47393 0.0
C168 C 0.05733 0.55095 0.48128 0.0
C169 C 0.06153 0.54623 0.50507 0.0
N170 N 0.06981 0.53722 0.55766 0.0
C171 C 0.0805 0.55262 0.5449 0.0
C172 C 0.09502 0.56328 0.5596 0.0
C173 C 0.09347 0.55431 0.58245 0.0
C174 C 0.07822 0.53874 0.58037 0.0
N175 N 0.04631 0.50266 0.5785 0.0
C176 C 0.05752 0.50816 0.59871 0.0
C177 C 0.05299 0.49602 0.61865 0.0
C178 C 0.03795 0.48188 0.6108 0.0
C179 C 0.03422 0.4862 0.5863 0.0
N180 N 0.06176 0.50856 0.52793 0.0
C181 C 0.08209 0.49814 0.50163 0.0
C182 C 0.08615 0.50421 0.527 0.0
C183 C 0.07579 0.50919 0.53979 0.0
C184 C 0.06768 0.4973 0.48972 0.0
C185 C 0.05785 0.50262 0.50303 0.0
N186 N 0.03353 0.52421 0.56397 0.0
C187 C 0.02728 0.53546 0.602 0.0
C188 C 0.01303 0.53478 0.58968 0.0
C189 C 0.00932 0.52883 0.56422 0.0
C190 C 0.01962 0.52368 0.55188 0.0
C191 C 0.03725 0.53015 0.58892 0.0
H192 H 0.016 0.51929 0.53256 0.0
H193 H 0.0478 0.53088 0.5995 0.0
H194 H 0.07943 0.51356 0.55919 0.0
H195 H 0.04725 0.50195 0.49264 0.0
C196 C 0.02297 0.50806 0.49356 0.0
C197 C 0.01883 0.47437 0.57155 0.0
C198 C 0.0778 0.55738 0.51851 0.0
C199 C 0.07204 0.52492 0.59863 0.0
H200 H 0.99168 0.4554 0.5348 0.0
H201 H 0.9936 0.47384 0.49229 0.0
H202 H 0.03486 0.53602 0.45611 0.0
H203 H 0.0648 0.56307 0.47017 0.0
H204 H 0.10583 0.57607 0.55419 0.0
H205 H 0.10262 0.55847 0.59837 0.0
H206 H 0.05971 0.49735 0.63687 0.0
H207 H 0.0305 0.46982 0.62204 0.0
H208 H 0.09716 0.50497 0.53703 0.0
H209 H 0.0642 0.49292 0.46991 0.0
H210 H 0.03059 0.5398 0.62186 0.0
H211 H 0.99858 0.52829 0.55366 0.0
C212 C 0.49989 0.99461 0.05015 0.0
C213 C 0.4973 0.99891 0.07489 0.0
C214 C 0.51224 0.01393 0.08051 0.0
C215 C 0.52302 0.01794 0.05896 0.0
N216 N 0.51584 0.00648 0.03975 0.0
Co217 Co 0.52709 0.00713 0.00532 0.0
N218 N 0.54945 0.02874 0.01424 0.0
C219 C 0.55273 0.03761 0.03642 0.0
C220 C 0.56938 0.05165 0.03734 0.0
C221 C 0.57723 0.05187 0.01431 0.0
C222 C 0.5648 0.03795 0.0005 0.0
N223 N 0.5384 0.00763 0.97103 0.0
C224 C 0.55468 0.01901 0.96114 0.0
C225 C 0.55701 0.01484 0.9361 0.0
C226 C 0.54182 0.00018 0.93018 0.0
C227 C 0.53106 0.99629 0.95169 0.0
N228 N 0.50466 0.9856 0.99631 0.0
C229 C 0.50114 0.97701 0.97381 0.0
C230 C 0.48474 0.96253 0.97347 0.0
C231 C 0.47733 0.9617 0.99726 0.0
C232 C 0.4897 0.97583 0.01075 0.0
N233 N 0.51843 0.02132 0.98889 0.0
C234 C 0.50615 0.04136 0.96533 0.0
C235 C 0.50462 0.02729 0.95281 0.0
C236 C 0.51083 0.01758 0.96477 0.0
C237 C 0.51399 0.0453 0.98982 0.0
C238 C 0.51992 0.03515 0.0012 0.0
N239 N 0.53572 0.99297 0.02172 0.0
C240 C 0.5385 0.96799 0.02187 0.0
C241 C 0.54744 0.97259 0.04544 0.0
C242 C 0.55052 0.98757 0.0569 0.0
C243 C 0.54444 0.9974 0.04494 0.0
C244 C 0.53297 0.97839 0.01028 0.0
H245 H 0.54684 0.00845 0.05497 0.0
H246 H 0.52648 0.97435 0.9921 0.0
H247 H 0.50937 0.00717 0.954 0.0
H248 H 0.52563 0.03876 0.01995 0.0
C249 C 0.5401 0.03208 0.05649 0.0
C250 C 0.48687 0.97902 0.03756 0.0
C251 C 0.56824 0.03403 0.97446 0.0
C252 C 0.51382 0.9824 0.95389 0.0
H253 H 0.48584 0.99184 0.08765 0.0
H254 H 0.51499 0.02097 0.09832 0.0
H255 H 0.57518 0.06056 0.05302 0.0
H256 H 0.59064 0.06119 0.00847 0.0
H257 H 0.56841 0.02173 0.92322 0.0
H258 H 0.5389 0.99329 0.91219 0.0
H259 H 0.47901 0.95344 0.958 0.0
H260 H 0.4644 0.95165 0.00408 0.0
H261 H 0.49889 0.02389 0.93359 0.0
H262 H 0.51534 0.05603 0.00037 0.0
H263 H 0.53597 0.9565 0.01227 0.0
H264 H 0.55727 0.99149 0.07534 0.0
C265 C 0.53268 0.54272 0.50671 0.0
C266 C 0.53044 0.5535 0.52267 0.0
C267 C 0.52169 0.54397 0.54478 0.0
C268 C 0.5192 0.52803 0.54119 0.0
N269 N 0.52584 0.52676 0.51811 0.0
Co270 Co 0.52567 0.50606 0.50544 0.0
N271 N 0.51266 0.49205 0.53795 0.0
C272 C 0.50686 0.49712 0.55818 0.0
C273 C 0.49828 0.48464 0.57767 0.0
C274 C 0.49863 0.47075 0.56948 0.0
C275 C 0.50746 0.47561 0.54535 0.0
N276 N 0.52578 0.48546 0.49298 0.0
C277 C 0.51964 0.46976 0.50493 0.0
C278 C 0.52266 0.45922 0.48969 0.0
C279 C 0.53112 0.46861 0.46732 0.0
C280 C 0.53277 0.48427 0.47019 0.0
N281 N 0.53845 0.52 0.47274 0.0
C282 C 0.54346 0.51463 0.45193 0.0
C283 C 0.55145 0.52686 0.43199 0.0
C284 C 0.55156 0.54092 0.44047 0.0
C285 C 0.5437 0.53647 0.46534 0.0
N286 N 0.54831 0.5139 0.5228 0.0
C287 C 0.58012 0.5241 0.54786 0.0
C288 C 0.57769 0.51918 0.52182 0.0
C289 C 0.56186 0.51426 0.50974 0.0
C290 C 0.56642 0.52399 0.56107 0.0
C291 C 0.55075 0.51884 0.54831 0.0
N292 N 0.50299 0.49815 0.48808 0.0
C293 C 0.4839 0.48526 0.45142 0.0
C294 C 0.47061 0.48631 0.46375 0.0
C295 C 0.47384 0.49352 0.48837 0.0
C296 C 0.48995 0.49924 0.50012 0.0
C297 C 0.49985 0.49128 0.46375 0.0
H298 H 0.49149 0.50442 0.519 0.0
H299 H 0.50942 0.49023 0.45313 0.0
H300 H 0.5609 0.51076 0.48983 0.0
H301 H 0.54076 0.51884 0.55957 0.0
C302 C 0.51038 0.51391 0.55888 0.0
C303 C 0.54138 0.54828 0.48095 0.0
C304 C 0.51095 0.46428 0.53063 0.0
C305 C 0.54068 0.49807 0.45179 0.0
H306 H 0.53469 0.56688 0.51877 0.0
H307 H 0.5176 0.54814 0.56146 0.0
H308 H 0.49268 0.48562 0.59586 0.0
H309 H 0.49318 0.45849 0.58019 0.0
H310 H 0.51914 0.4461 0.49431 0.0
H311 H 0.53557 0.46453 0.45094 0.0
H312 H 0.55656 0.52569 0.41345 0.0
H313 H 0.55678 0.55305 0.42949 0.0
H314 H 0.58804 0.51929 0.51067 0.0
H315 H 0.56764 0.52755 0.58137 0.0
H316 H 0.48211 0.48003 0.43211 0.0
H317 H 0.46387 0.4945 0.49874 0.0
H318 H 0.32236 0.4655 0.24936 0.0
N319 N 0.29281 0.43569 0.23506 0.0
H320 H 0.34022 0.46896 0.28717 0.0
H321 H 0.2862 0.41246 0.27365 0.0
H322 H 0.30421 0.41589 0.31199 0.0
H323 H 0.30094 0.41539 0.21103 0.0
H324 H 0.32276 0.42357 0.17586 0.0
H325 H 0.30902 0.46635 0.20619 0.0
H326 H 0.33054 0.47453 0.17067 0.0
H327 H 0.29558 0.46468 0.25563 0.0
H328 H 0.26131 0.41872 0.21414 0.0
H329 H 0.27342 0.4721 0.25576 0.0
H330 H 0.23918 0.4267 0.21276 0.0
H331 H 0.20641 0.49743 0.26068 0.0
H332 H 0.19399 0.49885 0.3026 0.0
H333 H 0.17521 0.44509 0.31948 0.0
H334 H 0.18742 0.44376 0.27757 0.0
H335 H 0.17171 0.43952 0.23718 0.0
H336 H 0.14813 0.43392 0.20741 0.0
H337 H 0.18158 0.4837 0.1684 0.0
H338 H 0.20515 0.48915 0.19827 0.0
H339 H 0.23752 0.49043 0.2325 0.0
H340 H 0.25949 0.48243 0.2293 0.0
H341 H 0.21861 0.42866 0.23866 0.0
N342 N 0.20334 0.46984 0.23964 0.0
H343 H 0.19678 0.43685 0.24002 0.0
C344 C 0.30279 0.43864 0.25865 0.0
C345 C 0.31807 0.45463 0.26303 0.0
C346 C 0.32828 0.45664 0.28481 0.0
C347 C 0.3236 0.44272 0.3026 0.0
C348 C 0.30818 0.42683 0.29853 0.0
C349 C 0.29785 0.42487 0.27678 0.0
C350 C 0.30334 0.44017 0.21131 0.0
C351 C 0.30708 0.42819 0.20184 0.0
C352 C 0.31952 0.43289 0.18169 0.0
C353 C 0.3285 0.44976 0.17058 0.0
C354 C 0.32404 0.46151 0.17909 0.0
C355 C 0.3116 0.45679 0.19927 0.0
C356 C 0.28007 0.44085 0.23519 0.0
C357 C 0.28333 0.45612 0.24644 0.0
C358 C 0.27061 0.46054 0.24619 0.0
C359 C 0.25443 0.45005 0.23421 0.0
C360 C 0.25132 0.43495 0.22259 0.0
C361 C 0.26399 0.43041 0.22319 0.0
C362 C 0.19786 0.47057 0.26589 0.0
C363 C 0.19988 0.48607 0.2737 0.0
C364 C 0.19284 0.48685 0.29768 0.0
C365 C 0.18354 0.47205 0.31432 0.0
C366 C 0.18212 0.45666 0.30694 0.0
C367 C 0.18921 0.45591 0.28295 0.0
C368 C 0.19021 0.46487 0.21999 0.0
C369 C 0.17413 0.44908 0.22193 0.0
C370 C 0.1606 0.44593 0.20497 0.0
C371 C 0.16295 0.45842 0.18569 0.0
C372 C 0.1794 0.47374 0.18286 0.0
C373 C 0.19286 0.47692 0.19991 0.0
C374 C 0.21562 0.46434 0.2369 0.0
C375 C 0.23337 0.47693 0.23365 0.0
C376 C 0.24589 0.4723 0.23208 0.0
C377 C 0.24092 0.45487 0.23414 0.0
C378 C 0.22298 0.4422 0.23681 0.0
C379 C 0.21043 0.44687 0.23795 0.0
H380 H 0.74202 0.15128 0.75876 0.0
N381 N 0.74324 0.1803 0.73973 0.0
H382 H 0.72518 0.1333 0.7968 0.0
H383 H 0.72414 0.18591 0.77289 0.0
H384 H 0.70593 0.16726 0.80969 0.0
H385 H 0.7175 0.17992 0.71404 0.0
H386 H 0.70111 0.16185 0.67796 0.0
H387 H 0.75198 0.16039 0.71268 0.0
H388 H 0.73587 0.14238 0.67587 0.0
H389 H 0.76859 0.17719 0.76588 0.0
H390 H 0.76044 0.21053 0.71369 0.0
H391 H 0.79903 0.19936 0.76928 0.0
H392 H 0.7915 0.23253 0.71542 0.0
H393 H 0.89557 0.27546 0.78855 0.0
H394 H 0.90596 0.28988 0.83008 0.0
H395 H 0.86223 0.29735 0.83274 0.0
H396 H 0.85167 0.28245 0.79224 0.0
H397 H 0.86858 0.30172 0.75444 0.0
H398 H 0.88548 0.32515 0.72258 0.0
H399 H 0.90542 0.29596 0.68806 0.0
H400 H 0.88878 0.2726 0.72105 0.0
H401 H 0.8567 0.23843 0.75907 0.0
H402 H 0.8268 0.21529 0.75049 0.0
H403 H 0.81115 0.25277 0.74346 0.0
N404 N 0.86902 0.27191 0.76056 0.0
H405 H 0.84112 0.27567 0.74999 0.0
C406 C 0.7346 0.17016 0.76336 0.0
C407 C 0.73457 0.1551 0.77026 0.0
C408 C 0.72465 0.14465 0.79187 0.0
C409 C 0.71398 0.14864 0.80645 0.0
C410 C 0.71421 0.16385 0.79949 0.0
C411 C 0.72452 0.17453 0.77832 0.0
C412 C 0.73586 0.17147 0.71593 0.0
C413 C 0.72176 0.172 0.70538 0.0
C414 C 0.71247 0.1617 0.68467 0.0
C415 C 0.71715 0.15062 0.67392 0.0
C416 C 0.7318 0.15061 0.68388 0.0
C417 C 0.74109 0.16096 0.70476 0.0
C418 C 0.76194 0.19225 0.73981 0.0
C419 C 0.77328 0.18914 0.75473 0.0
C420 C 0.79096 0.20191 0.75648 0.0
C421 C 0.79785 0.21794 0.74289 0.0
C422 C 0.78665 0.2206 0.72681 0.0
C423 C 0.76891 0.20795 0.72552 0.0
C424 C 0.87293 0.27787 0.78703 0.0
C425 C 0.88802 0.27984 0.79851 0.0
C426 C 0.89402 0.28824 0.8221 0.0
C427 C 0.88508 0.29502 0.83463 0.0
C428 C 0.86939 0.29218 0.82385 0.0
C429 C 0.86334 0.28366 0.80039 0.0
C430 C 0.87753 0.28537 0.74033 0.0
C431 C 0.87643 0.3002 0.74 0.0
C432 C 0.88606 0.31363 0.7215 0.0
C433 C 0.89688 0.31251 0.70272 0.0
C434 C 0.89744 0.29738 0.70249 0.0
C435 C 0.88787 0.28397 0.72116 0.0
C436 C 0.85116 0.25873 0.75563 0.0
C437 C 0.84676 0.24157 0.75554 0.0
C438 C 0.82962 0.22836 0.7508 0.0
C439 C 0.81639 0.23204 0.74642 0.0
C440 C 0.82093 0.24935 0.7463 0.0
C441 C 0.83814 0.26255 0.7505 0.0
H442 H 0.5707 0.83749 0.28054 0.0
N443 N 0.60437 0.84677 0.26903 0.0
H444 H 0.56133 0.84785 0.31689 0.0
H445 H 0.62308 0.86328 0.31001 0.0
H446 H 0.6138 0.87344 0.3468 0.0
H447 H 0.62424 0.87929 0.2521 0.0
H448 H 0.61867 0.89388 0.21596 0.0
H449 H 0.5783 0.83114 0.23292 0.0
H450 H 0.57319 0.84529 0.19582 0.0
H451 H 0.57529 0.81412 0.27061 0.0
H452 H 0.63159 0.84308 0.26559 0.0
H453 H 0.57495 0.78734 0.26729 0.0
H454 H 0.63161 0.81641 0.26436 0.0
H455 H 0.57537 0.71132 0.28103 0.0
H456 H 0.56776 0.69126 0.31849 0.0
H457 H 0.61977 0.72352 0.34856 0.0
H458 H 0.62753 0.74308 0.30992 0.0
H459 H 0.62756 0.72742 0.25053 0.0
H460 H 0.6201 0.70627 0.2168 0.0
H461 H 0.57289 0.70632 0.2009 0.0
H462 H 0.58027 0.7273 0.2351 0.0
H463 H 0.58145 0.74199 0.28973 0.0
H464 H 0.58011 0.76787 0.28923 0.0
H465 H 0.62647 0.79396 0.23893 0.0
N466 N 0.60796 0.73893 0.26829 0.0
H467 H 0.62849 0.76832 0.2414 0.0
C468 C 0.59766 0.84976 0.29258 0.0
C469 C 0.58006 0.84496 0.29528 0.0
C470 C 0.57472 0.85089 0.31611 0.0
C471 C 0.58689 0.86168 0.33453 0.0
C472 C 0.60419 0.86542 0.33267 0.0
C473 C 0.60949 0.85952 0.31186 0.0
C474 C 0.60186 0.85415 0.24522 0.0
C475 C 0.61323 0.87179 0.23959 0.0
C476 C 0.61004 0.88007 0.21878 0.0
C477 C 0.59543 0.87081 0.20283 0.0
C478 C 0.58439 0.85294 0.2079 0.0
C479 C 0.58745 0.84472 0.22904 0.0
C480 C 0.60353 0.83062 0.26781 0.0
C481 C 0.5876 0.81471 0.26877 0.0
C482 C 0.58746 0.79934 0.26721 0.0
C483 C 0.60326 0.79956 0.26533 0.0
C484 C 0.61914 0.8156 0.26498 0.0
C485 C 0.61922 0.8309 0.26597 0.0
C486 C 0.60218 0.72857 0.29247 0.0
C487 C 0.5851 0.71417 0.29577 0.0
C488 C 0.58071 0.70276 0.31745 0.0
C489 C 0.59321 0.70561 0.33651 0.0
C490 C 0.60993 0.72068 0.334 0.0
C491 C 0.61436 0.73198 0.3121 0.0
C492 C 0.60457 0.72897 0.24525 0.0
C493 C 0.61581 0.72315 0.23934 0.0
C494 C 0.61149 0.71104 0.22026 0.0
C495 C 0.59589 0.70464 0.20645 0.0
C496 C 0.58505 0.71117 0.21122 0.0
C497 C 0.58927 0.72315 0.23067 0.0
C498 C 0.60541 0.7533 0.26605 0.0
C499 C 0.59141 0.75325 0.27868 0.0
C500 C 0.59054 0.76813 0.27812 0.0
C501 C 0.60334 0.78325 0.26438 0.0
C502 C 0.61668 0.78284 0.25049 0.0
C503 C 0.61777 0.76811 0.25158 0.0
H504 H 0.90191 0.60231 0.8233 0.0
N505 N 0.87551 0.58615 0.79091 0.0
H506 H 0.90815 0.59012 0.8622 0.0
H507 H 0.85353 0.55413 0.81371 0.0
H508 H 0.85962 0.54176 0.85271 0.0
H509 H 0.86847 0.55516 0.77309 0.0
H510 H 0.88546 0.55092 0.74039 0.0
H511 H 0.90092 0.61016 0.75958 0.0
H512 H 0.9179 0.60602 0.72612 0.0
H513 H 0.8656 0.60561 0.81298 0.0
H514 H 0.84766 0.56355 0.76089 0.0
H515 H 0.83802 0.60452 0.80829 0.0
H516 H 0.82063 0.56313 0.75461 0.0
H517 H 0.75259 0.60342 0.79045 0.0
H518 H 0.73047 0.59496 0.82522 0.0
H519 H 0.7274 0.54624 0.8364 0.0
H520 H 0.74899 0.55457 0.80116 0.0
H521 H 0.73959 0.55162 0.75457 0.0
H522 H 0.72001 0.54436 0.71757 0.0
H523 H 0.74587 0.59829 0.69382 0.0
H524 H 0.76527 0.60545 0.73128 0.0
H525 H 0.79522 0.61106 0.77563 0.0
H526 H 0.82252 0.61144 0.7795 0.0
H527 H 0.79385 0.55608 0.77305 0.0
N528 N 0.76334 0.58419 0.76979 0.0
H529 H 0.76696 0.55615 0.76721 0.0
C530 C 0.87738 0.57915 0.81562 0.0
C531 C 0.89248 0.5892 0.82998 0.0
C532 C 0.89597 0.58221 0.85222 0.0
C533 C 0.88439 0.56494 0.86048 0.0
C534 C 0.86886 0.55505 0.84666 0.0
C535 C 0.86534 0.56211 0.82445 0.0
C536 C 0.88347 0.58307 0.76886 0.0
C537 C 0.87903 0.56635 0.7627 0.0
C538 C 0.88874 0.56392 0.74382 0.0
C539 C 0.90312 0.57814 0.73073 0.0
C540 C 0.90705 0.59481 0.73611 0.0
C541 C 0.89729 0.59721 0.755 0.0
C542 C 0.85894 0.58491 0.78714 0.0
C543 C 0.85578 0.59628 0.80028 0.0
C544 C 0.84003 0.59571 0.79733 0.0
C545 C 0.82706 0.58388 0.78074 0.0
C546 C 0.83016 0.57232 0.76776 0.0
C547 C 0.84584 0.57268 0.77114 0.0
C548 C 0.75253 0.57975 0.79316 0.0
C549 C 0.74737 0.59107 0.80082 0.0
C550 C 0.73477 0.58621 0.82076 0.0
C551 C 0.72705 0.56985 0.83354 0.0
C552 C 0.73286 0.55882 0.82668 0.0
C553 C 0.7454 0.56367 0.80661 0.0
C554 C 0.75391 0.57915 0.74567 0.0
C555 C 0.74138 0.56185 0.74105 0.0
C556 C 0.73017 0.55771 0.71983 0.0
C557 C 0.73125 0.57077 0.70292 0.0
C558 C 0.74451 0.58796 0.70673 0.0
C559 C 0.75571 0.59207 0.72792 0.0
C560 C 0.77905 0.58363 0.77156 0.0
C561 C 0.79492 0.59905 0.77493 0.0
C562 C 0.81048 0.59918 0.77741 0.0
C563 C 0.81048 0.58374 0.77702 0.0
C564 C 0.79449 0.56826 0.77325 0.0
C565 C 0.77896 0.56822 0.77026 0.0
H566 H 0.19764 0.71438 0.28967 0.0
N567 N 0.18653 0.73648 0.27731 0.0
H568 H 0.18933 0.69549 0.3291 0.0
H569 H 0.16957 0.73699 0.31954 0.0
H570 H 0.16101 0.71794 0.35905 0.0
H571 H 0.15352 0.72427 0.26517 0.0
H572 H 0.13608 0.7022 0.23406 0.0
H573 H 0.19936 0.72392 0.24107 0.0
H574 H 0.18231 0.70253 0.20897 0.0
H575 H 0.21923 0.74112 0.27173 0.0
H576 H 0.19119 0.7676 0.27377 0.0
H577 H 0.24677 0.76853 0.26596 0.0
H578 H 0.21879 0.79525 0.26964 0.0
H579 H 0.32296 0.8431 0.28293 0.0
H580 H 0.34295 0.85751 0.31853 0.0
H581 H 0.31923 0.88754 0.33071 0.0
H582 H 0.29895 0.87279 0.29506 0.0
H583 H 0.30999 0.87915 0.23391 0.0
H584 H 0.33119 0.8904 0.1973 0.0
H585 H 0.33354 0.84425 0.20228 0.0
H586 H 0.31237 0.8332 0.23912 0.0
H587 H 0.29386 0.82046 0.28677 0.0
H588 H 0.26665 0.79274 0.28888 0.0
H589 H 0.24206 0.81416 0.24149 0.0
N590 N 0.2992 0.85059 0.26297 0.0
H591 H 0.26922 0.84226 0.2409 0.0
C592 C 0.18425 0.72715 0.3018 0.0
C593 C 0.19014 0.71565 0.30505 0.0
C594 C 0.18537 0.70484 0.3276 0.0
C595 C 0.17447 0.70522 0.34703 0.0
C596 C 0.16933 0.71733 0.34428 0.0
C597 C 0.17425 0.72823 0.32187 0.0
C598 C 0.17772 0.72587 0.25545 0.0
C599 C 0.15992 0.71979 0.25254 0.0
C600 C 0.14999 0.70719 0.23464 0.0
C601 C 0.15772 0.70044 0.21896 0.0
C602 C 0.17582 0.70716 0.22102 0.0
C603 C 0.18569 0.71964 0.23923 0.0
C604 C 0.20305 0.75231 0.27274 0.0
C605 C 0.21894 0.75281 0.27072 0.0
C606 C 0.23478 0.7686 0.2678 0.0
C607 C 0.23512 0.78422 0.26733 0.0
C608 C 0.21913 0.78357 0.26934 0.0
C609 C 0.20331 0.76779 0.27186 0.0
C610 C 0.30925 0.85674 0.28648 0.0
C611 C 0.32162 0.85236 0.29371 0.0
C612 C 0.3331 0.86064 0.3141 0.0
C613 C 0.33266 0.87366 0.32734 0.0
C614 C 0.31989 0.87759 0.32074 0.0
C615 C 0.30826 0.86913 0.30056 0.0
C616 C 0.30968 0.85545 0.23922 0.0
C617 C 0.31484 0.87136 0.2267 0.0
C618 C 0.32689 0.8777 0.20575 0.0
C619 C 0.3341 0.86823 0.19693 0.0
C620 C 0.32837 0.85192 0.20883 0.0
C621 C 0.31622 0.84555 0.22979 0.0
C622 C 0.28354 0.83367 0.26406 0.0
C623 C 0.28267 0.81936 0.27701 0.0
C624 C 0.26703 0.80332 0.27792 0.0
C625 C 0.25201 0.80112 0.26549 0.0
C626 C 0.25316 0.81538 0.25186 0.0
C627 C 0.2687 0.83144 0.25132 0.0
H628 H 0.4237 0.13011 0.72128 0.0
N629 N 0.44071 0.16057 0.74269 0.0
H630 H 0.43381 0.12001 0.68581 0.0
H631 H 0.47007 0.18065 0.71175 0.0
H632 H 0.47998 0.17101 0.67512 0.0
H633 H 0.47345 0.16859 0.75709 0.0
H634 H 0.48041 0.15558 0.79391 0.0
H635 H 0.41907 0.14007 0.78131 0.0
H636 H 0.42598 0.12723 0.81882 0.0
H637 H 0.42101 0.16921 0.71564 0.0
H638 H 0.46463 0.18998 0.76799 0.0
H639 H 0.42239 0.19663 0.71417 0.0
H640 H 0.46522 0.2168 0.76832 0.0
H641 H 0.42419 0.28308 0.71999 0.0
H642 H 0.43312 0.3045 0.68381 0.0
H643 H 0.48131 0.30507 0.6744 0.0
H644 H 0.47259 0.28425 0.71102 0.0
H645 H 0.47651 0.29574 0.75665 0.0
H646 H 0.48454 0.31585 0.79182 0.0
H647 H 0.43013 0.29095 0.8158 0.0
H648 H 0.42219 0.27091 0.78021 0.0
H649 H 0.41595 0.24022 0.73823 0.0
H650 H 0.41569 0.21334 0.73842 0.0
H651 H 0.47197 0.24207 0.74625 0.0
N652 N 0.44314 0.27183 0.7426 0.0
H653 H 0.47176 0.26854 0.74819 0.0
C654 C 0.44602 0.15607 0.71907 0.0
C655 C 0.43585 0.13914 0.71093 0.0
C656 C 0.44166 0.13345 0.6905 0.0
C657 C 0.45778 0.14467 0.67744 0.0
C658 C 0.46765 0.16191 0.68494 0.0
C659 C 0.46191 0.16753 0.7057 0.0
C660 C 0.44565 0.15517 0.76639 0.0
C661 C 0.46305 0.15977 0.77066 0.0
C662 C 0.46703 0.15239 0.79187 0.0
C663 C 0.45373 0.14027 0.80922 0.0
C664 C 0.43649 0.13634 0.8056 0.0
C665 C 0.43252 0.14374 0.78436 0.0
C666 C 0.44247 0.17727 0.74206 0.0
C667 C 0.43079 0.17964 0.72698 0.0
C668 C 0.4315 0.19531 0.72644 0.0
C669 C 0.44376 0.209 0.74145 0.0
C670 C 0.45571 0.20671 0.75623 0.0
C671 C 0.45524 0.19114 0.75629 0.0
C672 C 0.4476 0.28198 0.71832 0.0
C673 C 0.4365 0.28757 0.70969 0.0
C674 C 0.44163 0.29978 0.68895 0.0
C675 C 0.45802 0.30663 0.67628 0.0
C676 C 0.46873 0.30029 0.68401 0.0
C677 C 0.46364 0.28818 0.70491 0.0
C678 C 0.44867 0.28176 0.76584 0.0
C679 C 0.46635 0.29425 0.76988 0.0
C680 C 0.47093 0.30579 0.79005 0.0
C681 C 0.45795 0.3051 0.80646 0.0
C682 C 0.44041 0.29196 0.80326 0.0
C683 C 0.43585 0.28042 0.78313 0.0
C684 C 0.44381 0.25639 0.74281 0.0
C685 C 0.42818 0.24062 0.74009 0.0
C686 C 0.42813 0.22529 0.73991 0.0
C687 C 0.44385 0.22541 0.742 0.0
C688 C 0.45955 0.24133 0.74488 0.0
C689 C 0.45951 0.25662 0.74562 0.0
C690 C 0.05877 0.48798 0.08702 0.0
C691 C 0.04304 0.47469 0.07726 0.0
C692 C 0.07118 0.48454 0.09694 0.0
C693 C 0.09935 0.476 0.10234 0.0
H694 H 0.08491 0.43501 0.14637 0.0
C695 C 0.15009 0.46145 0.14354 0.0
C696 C 0.14795 0.45632 0.17029 0.0
C697 C 0.13657 0.4615 0.12999 0.0
C698 C 0.08916 0.44653 0.13414 0.0
H699 H 0.02767 0.44751 0.06996 0.0
H700 H 0.04948 0.44137 0.08709 0.0
H701 H 0.06282 0.44 0.12777 0.0
H702 H 0.12979 0.4468 0.2036 0.0
H703 H 0.10632 0.44704 0.18011 0.0
H704 H 0.12566 0.48294 0.10954 0.0
C705 C 0.05219 0.45441 0.08745 0.0
C706 C 0.07649 0.44931 0.12325 0.0
C707 C 0.03976 0.45788 0.07758 0.0
C708 C 0.13177 0.45059 0.1829 0.0
C709 C 0.11829 0.45073 0.1694 0.0
C710 C 0.112 0.47326 0.11326 0.0
C711 C 0.06809 0.46773 0.09714 0.0
C712 C 0.08145 0.46421 0.10753 0.0
C713 C 0.12066 0.45655 0.14294 0.0
C714 C 0.10708 0.4586 0.12956 0.0
H715 H 0.06144 0.50103 0.08692 0.0
H716 H 0.08312 0.49504 0.10467 0.0
H717 H 0.10362 0.48747 0.08996 0.0
H718 H 0.16234 0.46572 0.13321 0.0
H719 H 0.13871 0.46574 0.10947 0.0
C720 C 0.59537 0.036 0.55453 0.0
C721 C 0.58491 0.04226 0.54532 0.0
C722 C 0.61149 0.04711 0.56588 0.0
C723 C 0.6464 0.09252 0.56791 0.0
H724 H 0.65533 0.08064 0.63747 0.0
C725 C 0.69778 0.14318 0.63481 0.0
C726 C 0.70586 0.13831 0.65389 0.0
C727 C 0.68507 0.13101 0.61867 0.0
C728 C 0.65332 0.08405 0.61779 0.0
H729 H 0.58293 0.06482 0.54036 0.0
H730 H 0.61131 0.08438 0.55968 0.0
H731 H 0.62904 0.06 0.61487 0.0
H732 H 0.7076 0.11688 0.66975 0.0
H733 H 0.68601 0.0958 0.64078 0.0
H734 H 0.67063 0.1165 0.57059 0.0
C735 C 0.60707 0.07093 0.55821 0.0
C736 C 0.63817 0.07222 0.60493 0.0
C737 C 0.59086 0.05978 0.5473 0.0
C738 C 0.70172 0.12114 0.65523 0.0
C739 C 0.68911 0.10897 0.63886 0.0
C740 C 0.66168 0.10426 0.58058 0.0
C741 C 0.61751 0.06469 0.5677 0.0
C742 C 0.63439 0.0765 0.58014 0.0
C743 C 0.68023 0.11363 0.6209 0.0
C744 C 0.66515 0.10036 0.60598 0.0
H745 H 0.59103 0.02253 0.55301 0.0
H746 H 0.61932 0.042 0.57298 0.0
H747 H 0.6439 0.09603 0.54861 0.0
H748 H 0.70088 0.15636 0.63288 0.0
H749 H 0.67849 0.13514 0.60529 0.0
C750 C 0.55493 0.58924 0.05121 0.0
C751 C 0.54945 0.57333 0.06445 0.0
C752 C 0.55977 0.60396 0.06526 0.0
C753 C 0.57824 0.62342 0.12686 0.0
H754 H 0.55643 0.65025 0.11624 0.0
C755 C 0.5897 0.67521 0.19846 0.0
C756 C 0.59034 0.69015 0.1889 0.0
C757 C 0.58467 0.66143 0.18227 0.0
C758 C 0.56291 0.64312 0.11917 0.0
H759 H 0.54429 0.56054 0.10311 0.0
H760 H 0.55352 0.58636 0.12737 0.0
H761 H 0.54795 0.62549 0.08929 0.0
H762 H 0.58615 0.70244 0.15507 0.0
H763 H 0.578 0.67857 0.12617 0.0
H764 H 0.5936 0.6411 0.156 0.0
C765 C 0.55401 0.58733 0.10609 0.0
C766 C 0.55795 0.62889 0.10381 0.0
C767 C 0.54886 0.57257 0.09212 0.0
C768 C 0.58572 0.69102 0.16285 0.0
C769 C 0.58097 0.6773 0.1464 0.0
C770 C 0.58342 0.63778 0.14185 0.0
C771 C 0.55954 0.60315 0.09281 0.0
C772 C 0.56539 0.61878 0.10785 0.0
C773 C 0.58046 0.66233 0.15589 0.0
C774 C 0.57561 0.64767 0.13859 0.0
H775 H 0.55585 0.59047 0.02998 0.0
H776 H 0.56412 0.61607 0.05461 0.0
H777 H 0.58434 0.61595 0.13005 0.0
H778 H 0.5929 0.67412 0.21865 0.0
H779 H 0.58394 0.64999 0.19062 0.0
C780 C 0.00973 0.55472 0.6186 0.0
C781 C 0.00205 0.54011 0.60324 0.0
C782 C 0.99936 0.55975 0.6312 0.0
C783 C 0.95563 0.55462 0.62979 0.0
H784 H 0.96578 0.56943 0.70141 0.0
C785 C 0.90759 0.56181 0.69595 0.0
C786 C 0.91467 0.57555 0.71305 0.0
C787 C 0.91854 0.55849 0.68113 0.0
C788 C 0.96291 0.56556 0.68128 0.0
H789 H 0.97739 0.51913 0.58949 0.0
H790 H 0.95933 0.52787 0.61149 0.0
H791 H 0.98434 0.56161 0.67862 0.0
H792 H 0.93887 0.59677 0.72758 0.0
H793 H 0.95794 0.59122 0.70132 0.0
H794 H 0.93409 0.55844 0.63256 0.0
C795 C 0.9734 0.53564 0.61341 0.0
C796 C 0.97355 0.56107 0.66822 0.0
C797 C 0.98376 0.53062 0.60082 0.0
C798 C 0.93297 0.58619 0.71441 0.0
C799 C 0.94391 0.58287 0.69962 0.0
C800 C 0.94498 0.55912 0.64285 0.0
C801 C 0.98107 0.55026 0.62875 0.0
C802 C 0.96999 0.55546 0.64237 0.0
C803 C 0.93683 0.56882 0.6831 0.0
C804 C 0.94845 0.56458 0.66879 0.0
H805 H 0.0238 0.56245 0.62056 0.0
H806 H 0.0057 0.57121 0.64259 0.0
H807 H 0.95269 0.5506 0.60973 0.0
H808 H 0.89355 0.55347 0.69426 0.0
H809 H 0.91266 0.54749 0.66874 0.0
C810 C 0.47166 0.95518 0.07159 0.0
C811 C 0.47084 0.9661 0.0524 0.0
C812 C 0.45658 0.943 0.08572 0.0
C813 C 0.40818 0.91959 0.08435 0.0
H814 H 0.41149 0.9139 0.15946 0.0
C815 C 0.34814 0.8859 0.15533 0.0
C816 C 0.34852 0.87608 0.1769 0.0
C817 C 0.36268 0.89509 0.13839 0.0
C818 C 0.41038 0.91511 0.13844 0.0
H819 H 0.45404 0.97316 0.03268 0.0
H820 H 0.42756 0.95198 0.05759 0.0
H821 H 0.43773 0.93371 0.13358 0.0
H822 H 0.36426 0.8677 0.19702 0.0
H823 H 0.38949 0.88345 0.16715 0.0
H824 H 0.38073 0.90116 0.08937 0.0
C825 C 0.43972 0.95257 0.06151 0.0
C826 C 0.42543 0.92649 0.1236 0.0
C827 C 0.45482 0.96474 0.0474 0.0
C828 C 0.36348 0.87503 0.18047 0.0
C829 C 0.37802 0.88423 0.16356 0.0
C830 C 0.39311 0.9082 0.09921 0.0
C831 C 0.44044 0.94158 0.08089 0.0
C832 C 0.42449 0.92897 0.09642 0.0
C833 C 0.37793 0.89467 0.14267 0.0
C834 C 0.39402 0.90592 0.12647 0.0
H835 H 0.48397 0.95608 0.07558 0.0
H836 H 0.45754 0.93462 0.10028 0.0
H837 H 0.40707 0.92101 0.06337 0.0
H838 H 0.33674 0.88681 0.15189 0.0
H839 H 0.36221 0.90308 0.12258 0.0
C840 C 0.5188 0.44565 0.55644 0.0
C841 C 0.50631 0.44733 0.54247 0.0
C842 C 0.51429 0.42986 0.5686 0.0
C843 C 0.48154 0.38314 0.56933 0.0
H844 H 0.49672 0.38407 0.64081 0.0
C845 C 0.45313 0.32247 0.63907 0.0
C846 C 0.46452 0.32139 0.65688 0.0
C847 C 0.4589 0.33726 0.62293 0.0
C848 C 0.4926 0.38356 0.62071 0.0
H849 H 0.47955 0.4342 0.52961 0.0
H850 H 0.47148 0.40642 0.55104 0.0
H851 H 0.50556 0.41099 0.61675 0.0
H852 H 0.49111 0.33493 0.67105 0.0
H853 H 0.50127 0.36037 0.64238 0.0
H854 H 0.46846 0.35565 0.57344 0.0
C855 C 0.4848 0.41719 0.55244 0.0
C856 C 0.49766 0.39901 0.60693 0.0
C857 C 0.48933 0.43303 0.54033 0.0
C858 C 0.482 0.33518 0.6574 0.0
C859 C 0.48777 0.34991 0.64121 0.0
C860 C 0.47651 0.36764 0.58312 0.0
C861 C 0.49719 0.41549 0.56694 0.0
C862 C 0.49214 0.39899 0.58113 0.0
C863 C 0.47621 0.3513 0.62421 0.0
C864 C 0.48195 0.36768 0.60901 0.0
H865 H 0.53199 0.45662 0.55815 0.0
H866 H 0.52417 0.4289 0.57935 0.0
H867 H 0.47723 0.38273 0.54937 0.0
H868 H 0.43965 0.312 0.63792 0.0
H869 H 0.44962 0.33793 0.61015 0.0
C870 C 0.56104 0.96016 0.44926 0.0
C871 C 0.54544 0.954 0.46385 0.0
C872 C 0.56524 0.94871 0.43914 0.0
C873 C 0.54543 0.90482 0.41717 0.0
H874 H 0.59274 0.91403 0.42089 0.0
C875 C 0.56584 0.86161 0.36742 0.0
C876 C 0.58208 0.8704 0.35391 0.0
C877 C 0.56107 0.87035 0.3843 0.0
C878 C 0.57949 0.91133 0.4195 0.0
H879 H 0.52202 0.93105 0.47933 0.0
H880 H 0.52931 0.91094 0.46134 0.0
H881 H 0.58497 0.93224 0.44374 0.0
H882 H 0.60593 0.8953 0.34732 0.0
H883 H 0.59763 0.91047 0.37633 0.0
H884 H 0.54007 0.88434 0.39212 0.0
C885 C 0.53828 0.92465 0.45786 0.0
C886 C 0.57505 0.92174 0.43266 0.0
C887 C 0.53418 0.93614 0.46828 0.0
C888 C 0.59349 0.88803 0.35787 0.0
C889 C 0.58872 0.89676 0.37457 0.0
C890 C 0.54991 0.89448 0.40379 0.0
C891 C 0.55385 0.93083 0.44316 0.0
C892 C 0.55807 0.91879 0.43125 0.0
C893 C 0.57241 0.88808 0.38789 0.0
C894 C 0.5671 0.89782 0.40437 0.0
H895 H 0.57002 0.97387 0.44572 0.0
H896 H 0.57724 0.95384 0.42766 0.0
H897 H 0.53227 0.90233 0.41558 0.0
H898 H 0.55681 0.84799 0.36491 0.0
H899 H 0.54849 0.86322 0.39447 0.0
C900 C 0.58719 0.51364 0.95157 0.0
C901 C 0.5862 0.52604 0.96559 0.0
C902 C 0.60288 0.51777 0.93916 0.0
C903 C 0.65061 0.54883 0.93843 0.0
H904 H 0.64836 0.53423 0.86722 0.0
C905 C 0.71159 0.57523 0.86975 0.0
C906 C 0.71207 0.56386 0.8523 0.0
C907 C 0.69671 0.57 0.88545 0.0
C908 C 0.64923 0.53818 0.88724 0.0
H909 H 0.60044 0.55223 0.97826 0.0
H910 H 0.62804 0.55963 0.9564 0.0
H911 H 0.62147 0.52628 0.89098 0.0
H912 H 0.69732 0.53789 0.83825 0.0
H913 H 0.67169 0.52864 0.86615 0.0
H914 H 0.67843 0.5608 0.9346 0.0
C915 C 0.6168 0.54669 0.95512 0.0
C916 C 0.6338 0.53364 0.90085 0.0
C917 C 0.60107 0.54254 0.96746 0.0
C918 C 0.69753 0.54695 0.85163 0.0
C919 C 0.6827 0.54171 0.86738 0.0
C920 C 0.66609 0.55333 0.92483 0.0
C921 C 0.61784 0.53438 0.94065 0.0
C922 C 0.63431 0.53895 0.92655 0.0
C923 C 0.68196 0.55326 0.88409 0.0
C924 C 0.66557 0.5481 0.89904 0.0
H925 H 0.57579 0.50081 0.95009 0.0
H926 H 0.60332 0.50795 0.92845 0.0
H927 H 0.65141 0.55294 0.95833 0.0
H928 H 0.72264 0.58829 0.871 0.0
H929 H 0.69655 0.57926 0.89799 0.0
C930 C 0.09563 0.58956 0.51277 0.0
C931 C 0.09169 0.57338 0.50471 0.0
C932 C 0.10728 0.60447 0.4979 0.0
C933 C 0.12083 0.61796 0.43024 0.0
H934 H 0.15789 0.66097 0.45729 0.0
C935 C 0.14867 0.68243 0.37312 0.0
C936 C 0.16685 0.69176 0.36844 0.0
C937 C 0.14101 0.66856 0.39134 0.0
C938 C 0.14763 0.64899 0.44955 0.0
H939 H 0.09698 0.55989 0.47559 0.0
H940 H 0.11716 0.58597 0.4492 0.0
H941 H 0.14226 0.63521 0.48681 0.0
H942 H 0.19135 0.6943 0.37975 0.0
H943 H 0.17785 0.67005 0.41229 0.0
H944 H 0.12575 0.63175 0.39327 0.0
C945 C 0.11137 0.58716 0.46704 0.0
C946 C 0.13868 0.63434 0.46637 0.0
C947 C 0.09991 0.5723 0.48208 0.0
C948 C 0.1773 0.68729 0.383 0.0
C949 C 0.16963 0.67352 0.40161 0.0
C950 C 0.12953 0.63262 0.41361 0.0
C951 C 0.1149 0.60334 0.47455 0.0
C952 C 0.12517 0.61872 0.45683 0.0
C953 C 0.15138 0.66384 0.40549 0.0
C954 C 0.1429 0.64828 0.42314 0.0
H955 H 0.08926 0.59058 0.53007 0.0
H956 H 0.10967 0.61678 0.50394 0.0
H957 H 0.11035 0.60612 0.42246 0.0
H958 H 0.14028 0.68546 0.36197 0.0
H959 H 0.12691 0.66132 0.39412 0.0
C960 C 0.48356 0.04378 0.93996 0.0
C961 C 0.49968 0.05184 0.95269 0.0
C962 C 0.47783 0.05356 0.92682 0.0
C963 C 0.48491 0.0974 0.91974 0.0
H964 H 0.46395 0.08162 0.85201 0.0
C965 C 0.47316 0.13911 0.84381 0.0
C966 C 0.45763 0.13073 0.82955 0.0
C967 C 0.47757 0.12972 0.86095 0.0
C968 C 0.46955 0.08609 0.87105 0.0
H969 H 0.52232 0.07651 0.96198 0.0
H970 H 0.51239 0.09364 0.93875 0.0
H971 H 0.47307 0.06486 0.87783 0.0
H972 H 0.43437 0.10592 0.82262 0.0
H973 H 0.44189 0.08964 0.85282 0.0
H974 H 0.48158 0.11882 0.91258 0.0
C975 C 0.50406 0.07974 0.93926 0.0
C976 C 0.47478 0.07647 0.88588 0.0
C977 C 0.50976 0.06993 0.95253 0.0
C978 C 0.44634 0.11283 0.83348 0.0
C979 C 0.45076 0.10345 0.85054 0.0
C980 C 0.47971 0.10707 0.90482 0.0
C981 C 0.48812 0.07166 0.92595 0.0
C982 C 0.48248 0.08197 0.91044 0.0
C983 C 0.46657 0.11173 0.86409 0.0
C984 C 0.47193 0.10148 0.88033 0.0
H985 H 0.47535 0.02986 0.94016 0.0
H986 H 0.46532 0.04692 0.91727 0.0
H987 H 0.49064 0.1019 0.9387 0.0
H988 H 0.48205 0.15291 0.84141 0.0
H989 H 0.48988 0.13646 0.87103 0.0
C990 C 0.44535 0.46424 0.43828 0.0
C991 C 0.4536 0.48 0.45084 0.0
C992 C 0.4297 0.45859 0.42516 0.0
C993 C 0.39282 0.46592 0.4176 0.0
H994 H 0.38831 0.4455 0.35034 0.0
C995 C 0.34356 0.45958 0.33884 0.0
C996 C 0.33549 0.44462 0.32423 0.0
C997 C 0.35632 0.4623 0.35705 0.0
C998 C 0.38923 0.45093 0.36927 0.0
H999 H 0.45186 0.50213 0.45972 0.0
H1000 H 0.4247 0.49244 0.43642 0.0
H1001 H 0.41389 0.45346 0.37661 0.0
H1002 H 0.33404 0.42053 0.31789 0.0
H1003 H 0.35624 0.42523 0.34987 0.0
H1004 H 0.36831 0.4638 0.4097 0.0
C1005 C 0.43011 0.48426 0.43713 0.0
C1006 C 0.4039 0.45549 0.38438 0.0
C1007 C 0.44571 0.48985 0.45042 0.0
C1008 C 0.33994 0.43213 0.32898 0.0
C1009 C 0.35278 0.4349 0.34708 0.0
C1010 C 0.37817 0.46144 0.40238 0.0
C1011 C 0.422 0.46863 0.42411 0.0
C1012 C 0.40595 0.46314 0.40866 0.0
C1013 C 0.36135 0.45017 0.36092 0.0
C1014 C 0.37627 0.45398 0.37798 0.0
H1015 H 0.45098 0.45624 0.43865 0.0
H1016 H 0.42364 0.44634 0.41582 0.0
H1017 H 0.39384 0.47154 0.43638 0.0
H1018 H 0.34028 0.46936 0.33576 0.0
H1019 H 0.36275 0.47424 0.3673 0.0
C1020 C 0.94096 0.40934 0.99362 0.0
C1021 C 0.95894 0.4209 0.98868 0.0
C1022 C 0.93203 0.39365 0.9811 0.0
C1023 C 0.93926 0.36339 0.94407 0.0
H1024 H 0.89442 0.34987 0.91377 0.0
C1025 C 0.91096 0.31827 0.8578 0.0
C1026 C 0.89283 0.30632 0.85735 0.0
C1027 C 0.91816 0.33013 0.87757 0.0
C1028 C 0.90678 0.35329 0.92249 0.0
H1029 H 0.98175 0.42473 0.9674 0.0
H1030 H 0.96617 0.39771 0.94515 0.0
H1031 H 0.90857 0.37471 0.94146 0.0
H1032 H 0.86818 0.29706 0.87821 0.0
H1033 H 0.8808 0.31803 0.91257 0.0
H1034 H 0.93771 0.34229 0.92436 0.0
C1035 C 0.95895 0.40062 0.95888 0.0
C1036 C 0.9149 0.36753 0.93838 0.0
C1037 C 0.96784 0.41625 0.97136 0.0
C1038 C 0.88216 0.30624 0.87769 0.0
C1039 C 0.88937 0.31822 0.8974 0.0
C1040 C 0.93118 0.34921 0.92811 0.0
C1041 C 0.94091 0.38916 0.96344 0.0
C1042 C 0.93141 0.37297 0.94891 0.0
C1043 C 0.90743 0.33045 0.89733 0.0
C1044 C 0.91502 0.34421 0.91672 0.0
H1045 H 0.93369 0.41256 0.00675 0.0
H1046 H 0.91816 0.38505 0.98521 0.0
H1047 H 0.9518 0.367 0.95233 0.0
H1048 H 0.91956 0.31899 0.84223 0.0
H1049 H 0.93208 0.33955 0.87672 0.0
C1050 C 0.9621 0.52425 0.01529 0.0
C1051 C 0.96241 0.51007 0.00629 0.0
C1052 C 0.95136 0.52931 0.00341 0.0
C1053 C 0.91338 0.51458 0.95989 0.0
H1054 H 0.93501 0.56326 0.94162 0.0
C1055 C 0.88743 0.54088 0.87916 0.0
C1056 C 0.88934 0.55704 0.88206 0.0
C1057 C 0.89415 0.53437 0.8978 0.0
C1058 C 0.9286 0.54966 0.94699 0.0
H1059 H 0.95178 0.48981 0.97848 0.0
H1060 H 0.933 0.49864 0.95746 0.0
H1061 H 0.9509 0.55333 0.96789 0.0
H1062 H 0.89881 0.57855 0.90759 0.0
H1063 H 0.91039 0.56712 0.9403 0.0
H1064 H 0.89119 0.51089 0.93852 0.0
C1065 C 0.94083 0.50576 0.97385 0.0
C1066 C 0.93775 0.54397 0.96204 0.0
C1067 C 0.9516 0.50075 0.9857 0.0
C1068 C 0.89738 0.56618 0.90463 0.0
C1069 C 0.90404 0.55964 0.92332 0.0
C1070 C 0.9042 0.52029 0.94487 0.0
C1071 C 0.94075 0.52023 0.98235 0.0
C1072 C 0.93036 0.52634 0.96832 0.0
C1073 C 0.90288 0.54385 0.91981 0.0
C1074 C 0.91182 0.53787 0.93789 0.0
H1075 H 0.97041 0.53157 0.03118 0.0
H1076 H 0.95146 0.5404 0.01057 0.0
H1077 H 0.90723 0.50094 0.96474 0.0
H1078 H 0.88152 0.53362 0.86182 0.0
H1079 H 0.89321 0.52228 0.89427 0.0
C1080 C 0.45262 0.96567 0.47262 0.0
C1081 C 0.46861 0.96788 0.46432 0.0
C1082 C 0.43726 0.95477 0.45937 0.0
C1083 C 0.42189 0.93763 0.39495 0.0
H1084 H 0.37905 0.90305 0.43141 0.0
C1085 C 0.35567 0.90222 0.34356 0.0
C1086 C 0.34652 0.88415 0.34614 0.0
C1087 C 0.36995 0.91223 0.35934 0.0
C1088 C 0.39094 0.91266 0.42103 0.0
H1089 H 0.4813 0.96064 0.4359 0.0
H1090 H 0.45446 0.94183 0.41226 0.0
H1091 H 0.40556 0.92082 0.45646 0.0
H1092 H 0.3447 0.86241 0.36787 0.0
H1093 H 0.36959 0.88002 0.39591 0.0
H1094 H 0.40731 0.92965 0.35958 0.0
C1095 C 0.45377 0.9484 0.4291 0.0
C1096 C 0.40604 0.92285 0.43533 0.0
C1097 C 0.46906 0.95907 0.44259 0.0
C1098 C 0.35156 0.87631 0.36545 0.0
C1099 C 0.36572 0.88636 0.38153 0.0
C1100 C 0.40676 0.92765 0.38073 0.0
C1101 C 0.43773 0.94618 0.43732 0.0
C1102 C 0.42167 0.93537 0.42238 0.0
C1103 C 0.37524 0.9044 0.37826 0.0
C1104 C 0.39115 0.91505 0.39361 0.0
H1105 H 0.45207 0.97251 0.48919 0.0
H1106 H 0.42509 0.95341 0.46594 0.0
H1107 H 0.43374 0.94728 0.38451 0.0
H1108 H 0.35219 0.9086 0.32865 0.0
H1109 H 0.377 0.92613 0.35656 0.0
C1110 C 0.51025 0.4398 0.91706 0.0
C1111 C 0.50477 0.43858 0.94334 0.0
C1112 C 0.50531 0.42498 0.90335 0.0
C1113 C 0.48973 0.37884 0.91196 0.0
H1114 H 0.47318 0.37657 0.84105 0.0
C1115 C 0.47761 0.3256 0.84025 0.0
C1116 C 0.4625 0.31897 0.82506 0.0
C1117 C 0.4825 0.3396 0.85609 0.0
C1118 C 0.47767 0.37696 0.86089 0.0
H1119 H 0.48977 0.42068 0.97575 0.0
H1120 H 0.48134 0.39482 0.95184 0.0
H1121 H 0.4824 0.40224 0.86585 0.0
H1122 H 0.44063 0.32178 0.81478 0.0
H1123 H 0.44907 0.34602 0.84254 0.0
H1124 H 0.4849 0.35346 0.90693 0.0
C1125 C 0.48958 0.4073 0.94196 0.0
C1126 C 0.48313 0.39173 0.87499 0.0
C1127 C 0.49444 0.42213 0.95566 0.0
C1128 C 0.45222 0.32642 0.82647 0.0
C1129 C 0.45717 0.34045 0.84213 0.0
C1130 C 0.4844 0.36408 0.89775 0.0
C1131 C 0.49486 0.40856 0.9156 0.0
C1132 C 0.48919 0.39284 0.90069 0.0
C1133 C 0.47248 0.34735 0.85685 0.0
C1134 C 0.47824 0.36296 0.87209 0.0
H1135 H 0.51852 0.45224 0.9071 0.0
H1136 H 0.50981 0.42638 0.88316 0.0
H1137 H 0.49447 0.37937 0.93167 0.0
H1138 H 0.48573 0.32007 0.83969 0.0
H1139 H 0.49442 0.34469 0.86713 0.0
C1140 C 0.08502 0.47795 0.47316 0.0
C1141 C 0.09297 0.49311 0.48722 0.0
C1142 C 0.09511 0.47391 0.45766 0.0
C1143 C 0.14075 0.48532 0.44315 0.0
H1144 H 0.12181 0.46806 0.37492 0.0
C1145 C 0.18198 0.48659 0.35437 0.0
C1146 C 0.1742 0.47239 0.33815 0.0
C1147 C 0.17244 0.48764 0.37516 0.0
C1148 C 0.12719 0.47263 0.39404 0.0
H1149 H 0.11774 0.51571 0.4967 0.0
H1150 H 0.1354 0.50888 0.46919 0.0
H1151 H 0.10446 0.47259 0.40645 0.0
H1152 H 0.15046 0.44791 0.33152 0.0
H1153 H 0.13392 0.44965 0.36794 0.0
H1154 H 0.16375 0.4858 0.43015 0.0
C1155 C 0.12139 0.49991 0.47049 0.0
C1156 C 0.11722 0.4752 0.41218 0.0
C1157 C 0.11129 0.50387 0.4862 0.0
C1158 C 0.1569 0.45896 0.34377 0.0
C1159 C 0.14735 0.46004 0.36446 0.0
C1160 C 0.1508 0.48283 0.42487 0.0
C1161 C 0.11339 0.48504 0.45564 0.0
C1162 C 0.12387 0.48164 0.43694 0.0
C1163 C 0.1549 0.47454 0.38005 0.0
C1164 C 0.14412 0.4765 0.40009 0.0
H1165 H 0.07094 0.46928 0.47394 0.0
H1166 H 0.08854 0.46214 0.447 0.0
H1167 H 0.1462 0.4901 0.46215 0.0
H1168 H 0.19535 0.49706 0.35069 0.0
H1169 H 0.17858 0.49901 0.38675 0.0
C1170 C 0.59023 0.06279 0.95383 0.0
C1171 C 0.58534 0.04582 0.96091 0.0
C1172 C 0.60602 0.07373 0.94026 0.0
C1173 C 0.63345 0.07437 0.89086 0.0
H1174 H 0.67166 0.11666 0.91781 0.0
C1175 C 0.69409 0.11862 0.82582 0.0
C1176 C 0.70187 0.13653 0.82767 0.0
C1177 C 0.6817 0.10718 0.84453 0.0
C1178 C 0.66104 0.10503 0.9098 0.0
H1179 H 0.59298 0.02693 0.9599 0.0
H1180 H 0.62037 0.04593 0.9349 0.0
H1181 H 0.64619 0.09764 0.94606 0.0
H1182 H 0.70315 0.15631 0.85181 0.0
H1183 H 0.68067 0.13646 0.8831 0.0
H1184 H 0.64737 0.082 0.85417 0.0
C1185 C 0.61211 0.05078 0.94034 0.0
C1186 C 0.64657 0.0941 0.9261 0.0
C1187 C 0.59652 0.03997 0.95448 0.0
C1188 C 0.6972 0.14264 0.84924 0.0
C1189 C 0.68447 0.13118 0.8676 0.0
C1190 C 0.64768 0.08545 0.87435 0.0
C1191 C 0.61691 0.0677 0.93311 0.0
C1192 C 0.63269 0.07876 0.91667 0.0
C1193 C 0.67633 0.11326 0.86529 0.0
C1194 C 0.66167 0.10101 0.88351 0.0
H1195 H 0.58173 0.0675 0.95854 0.0
H1196 H 0.60947 0.08672 0.93462 0.0
H1197 H 0.62273 0.06265 0.88318 0.0
H1198 H 0.69708 0.11327 0.80945 0.0
H1199 H 0.67613 0.09352 0.84236 0.0
C1200 C 0.53547 0.57058 0.46293 0.0
C1201 C 0.54757 0.56594 0.47027 0.0
C1202 C 0.54127 0.58703 0.45203 0.0
C1203 C 0.57801 0.62218 0.41444 0.0
H1204 H 0.55783 0.64894 0.43412 0.0
C1205 C 0.60213 0.68847 0.36477 0.0
C1206 C 0.58928 0.69214 0.3574 0.0
C1207 C 0.59798 0.67451 0.38191 0.0
C1208 C 0.5635 0.64157 0.42823 0.0
H1209 H 0.57503 0.57463 0.47266 0.0
H1210 H 0.58527 0.60343 0.45323 0.0
H1211 H 0.54856 0.62153 0.45748 0.0
H1212 H 0.56218 0.6845 0.36371 0.0
H1213 H 0.55476 0.65972 0.39265 0.0
H1214 H 0.59246 0.64172 0.38464 0.0
C1215 C 0.57133 0.59439 0.45583 0.0
C1216 C 0.55821 0.62591 0.44167 0.0
C1217 C 0.56553 0.578 0.46695 0.0
C1218 C 0.57234 0.68189 0.36855 0.0
C1219 C 0.56814 0.66779 0.38547 0.0
C1220 C 0.58317 0.63773 0.40087 0.0
C1221 C 0.55926 0.59903 0.44808 0.0
C1222 C 0.56536 0.61602 0.4348 0.0
C1223 C 0.58081 0.66368 0.39189 0.0
C1224 C 0.57593 0.64761 0.40748 0.0
H1225 H 0.52155 0.56139 0.46532 0.0
H1226 H 0.53167 0.59019 0.446 0.0
H1227 H 0.58354 0.61471 0.40844 0.0
H1228 H 0.61528 0.69592 0.35647 0.0
H1229 H 0.60818 0.67197 0.38685 0.0
C1230 C 0.48894 0.05255 0.55369 0.0
C1231 C 0.50648 0.05785 0.54849 0.0
C1232 C 0.48472 0.06395 0.56406 0.0
C1233 C 0.50185 0.10043 0.60567 0.0
H1234 H 0.46555 0.10682 0.57689 0.0
C1235 C 0.48262 0.14381 0.65605 0.0
C1236 C 0.46468 0.13796 0.65752 0.0
C1237 C 0.48882 0.13615 0.63951 0.0
C1238 C 0.47558 0.10505 0.5854 0.0
H1239 H 0.53334 0.07914 0.54995 0.0
H1240 H 0.52596 0.099 0.56877 0.0
H1241 H 0.47396 0.08891 0.5545 0.0
H1242 H 0.43939 0.12009 0.64127 0.0
H1243 H 0.44996 0.10613 0.61377 0.0
H1244 H 0.50295 0.11568 0.63728 0.0
C1245 C 0.51552 0.08609 0.56451 0.0
C1246 C 0.48045 0.09487 0.57245 0.0
C1247 C 0.51971 0.07479 0.55367 0.0
C1248 C 0.45323 0.12472 0.64117 0.0
C1249 C 0.45938 0.11687 0.62497 0.0
C1250 C 0.49679 0.11036 0.61888 0.0
C1251 C 0.49798 0.08075 0.56987 0.0
C1252 C 0.49353 0.09237 0.58259 0.0
C1253 C 0.47722 0.12224 0.62429 0.0
C1254 C 0.48346 0.1127 0.60908 0.0
H1255 H 0.4785 0.03959 0.54971 0.0
H1256 H 0.47112 0.05949 0.56821 0.0
H1257 H 0.51184 0.09854 0.61405 0.0
H1258 H 0.49188 0.15388 0.66842 0.0
H1259 H 0.50271 0.14096 0.63911 0.0
C1260 C 0.45251 0.47219 0.0361 0.0
C1261 C 0.46844 0.48712 0.04153 0.0
C1262 C 0.43703 0.46878 0.04844 0.0
C1263 C 0.42112 0.47974 0.10698 0.0
H1264 H 0.3777 0.46044 0.0692 0.0
C1265 C 0.35911 0.47138 0.15498 0.0
C1266 C 0.34354 0.45543 0.15209 0.0
C1267 C 0.37398 0.476 0.13972 0.0
C1268 C 0.3897 0.46572 0.08004 0.0
H1269 H 0.48103 0.5103 0.06355 0.0
H1270 H 0.45397 0.50455 0.08503 0.0
H1271 H 0.40451 0.46695 0.04614 0.0
H1272 H 0.33116 0.43218 0.12996 0.0
H1273 H 0.35723 0.44015 0.10351 0.0
H1274 H 0.40638 0.47844 0.14088 0.0
C1275 C 0.45334 0.49531 0.07158 0.0
C1276 C 0.40505 0.46943 0.06686 0.0
C1277 C 0.46879 0.49867 0.05926 0.0
C1278 C 0.343 0.44449 0.13285 0.0
C1279 C 0.35789 0.44912 0.11754 0.0
C1280 C 0.40582 0.47608 0.12012 0.0
C1281 C 0.43728 0.48028 0.06643 0.0
C1282 C 0.42094 0.47647 0.0802 0.0
C1283 C 0.37365 0.46478 0.1212 0.0
C1284 C 0.38993 0.46902 0.10682 0.0
H1285 H 0.4521 0.46314 0.02246 0.0
H1286 H 0.42493 0.457 0.04428 0.0
H1287 H 0.43305 0.48485 0.11799 0.0
H1288 H 0.36007 0.48005 0.16979 0.0
H1289 H 0.38584 0.48827 0.14274 0.0
C1290 C 0.01009 0.44447 0.58697 0.0
C1291 C 0.00582 0.45713 0.58325 0.0
C1292 C 0.99778 0.42827 0.59802 0.0
C1293 C 0.95638 0.40583 0.63756 0.0
H1294 H 0.95431 0.36471 0.61466 0.0
C1295 C 0.90228 0.338 0.6743 0.0
C1296 C 0.90824 0.3275 0.68458 0.0
C1297 C 0.91357 0.35313 0.65967 0.0
C1298 C 0.95479 0.37611 0.62126 0.0
H1299 H 0.98552 0.46297 0.58752 0.0
H1300 H 0.96372 0.43449 0.60599 0.0
H1301 H 0.97523 0.39265 0.5936 0.0
H1302 H 0.93066 0.32447 0.68666 0.0
H1303 H 0.95019 0.35068 0.66056 0.0
H1304 H 0.93579 0.38922 0.66499 0.0
C1305 C 0.97666 0.4371 0.60113 0.0
C1306 C 0.96683 0.39213 0.60932 0.0
C1307 C 0.98905 0.45335 0.5904 0.0
C1308 C 0.92554 0.3321 0.6788 0.0
C1309 C 0.93677 0.34716 0.66392 0.0
C1310 C 0.94423 0.38982 0.64925 0.0
C1311 C 0.9809 0.42437 0.60526 0.0
C1312 C 0.96784 0.40722 0.61744 0.0
C1313 C 0.931 0.358 0.65472 0.0
C1314 C 0.94338 0.37481 0.64132 0.0
H1315 H 0.02299 0.4472 0.58148 0.0
H1316 H 0.00161 0.4189 0.60125 0.0
H1317 H 0.95699 0.41717 0.64473 0.0
H1318 H 0.88894 0.33467 0.67788 0.0
H1319 H 0.90871 0.36115 0.65245 0.0
C1320 C 0.54136 0.94406 0.06332 0.0
C1321 C 0.55327 0.96171 0.05827 0.0
C1322 C 0.54665 0.93392 0.07654 0.0
C1323 C 0.58201 0.93766 0.11946 0.0
H1324 H 0.56051 0.88918 0.1058 0.0
C1325 C 0.6046 0.89461 0.16822 0.0
C1326 C 0.59119 0.87997 0.18216 0.0
C1327 C 0.60062 0.90418 0.15077 0.0
C1328 C 0.56661 0.90271 0.10974 0.0
H1329 H 0.58011 0.98254 0.06213 0.0
H1330 H 0.58964 0.96477 0.08417 0.0
H1331 H 0.55275 0.90691 0.07925 0.0
H1332 H 0.56298 0.8638 0.18789 0.0
H1333 H 0.55614 0.88014 0.15663 0.0
H1334 H 0.59612 0.93341 0.14961 0.0
C1335 C 0.57605 0.95878 0.07886 0.0
C1336 C 0.56209 0.91288 0.0947 0.0
C1337 C 0.57065 0.96897 0.06609 0.0
C1338 C 0.57368 0.87477 0.17726 0.0
C1339 C 0.56971 0.88418 0.15945 0.0
C1340 C 0.58674 0.92757 0.13413 0.0
C1341 C 0.56407 0.94114 0.0846 0.0
C1342 C 0.56956 0.93046 0.09958 0.0
C1343 C 0.58315 0.89914 0.14646 0.0
C1344 C 0.57894 0.90998 0.12961 0.0
H1345 H 0.52783 0.93822 0.05768 0.0
H1346 H 0.53694 0.9205 0.081 0.0
H1347 H 0.5878 0.95102 0.12426 0.0
H1348 H 0.61821 0.89882 0.17096 0.0
H1349 H 0.6112 0.9156 0.14074 0.0
C1350 C 0.60484 0.51964 0.55842 0.0
C1351 C 0.59677 0.52921 0.56119 0.0
C1352 C 0.62034 0.52426 0.57139 0.0
C1353 C 0.65811 0.56074 0.60223 0.0
H1354 H 0.66183 0.52539 0.64066 0.0
C1355 C 0.71029 0.57697 0.68021 0.0
C1356 C 0.71764 0.56669 0.68302 0.0
C1357 C 0.6966 0.5726 0.66302 0.0
C1358 C 0.66117 0.53539 0.62966 0.0
H1359 H 0.59881 0.55132 0.57933 0.0
H1360 H 0.62584 0.55937 0.60205 0.0
H1361 H 0.63588 0.51734 0.61501 0.0
H1362 H 0.71667 0.54396 0.66942 0.0
H1363 H 0.69282 0.53638 0.63906 0.0
H1364 H 0.68333 0.57882 0.61686 0.0
C1365 C 0.6202 0.54832 0.58978 0.0
C1366 C 0.64626 0.53077 0.61502 0.0
C1367 C 0.60464 0.54361 0.57699 0.0
C1368 C 0.71117 0.55206 0.66784 0.0
C1369 C 0.69748 0.5477 0.65052 0.0
C1370 C 0.67305 0.56535 0.61672 0.0
C1371 C 0.62819 0.53865 0.58722 0.0
C1372 C 0.64446 0.54343 0.60145 0.0
C1373 C 0.68991 0.55784 0.6481 0.0
C1374 C 0.67466 0.55277 0.63095 0.0
H1375 H 0.59901 0.50839 0.54655 0.0
H1376 H 0.62625 0.51664 0.56892 0.0
H1377 H 0.65722 0.57075 0.59161 0.0
H1378 H 0.7147 0.58812 0.692 0.0
H1379 H 0.69088 0.58052 0.66209 0.0
C1380 C 0.06115 0.57774 0.0825 0.0
C1381 C 0.05096 0.56217 0.09723 0.0
C1382 C 0.07279 0.59295 0.09483 0.0
C1383 C 0.09619 0.60874 0.15755 0.0
H1384 H 0.10474 0.65265 0.12975 0.0
C1385 C 0.15015 0.67242 0.19946 0.0
C1386 C 0.14668 0.68567 0.202 0.0
C1387 C 0.139 0.65787 0.18538 0.0
C1388 C 0.10241 0.6405 0.13798 0.0
H1389 H 0.04501 0.55062 0.13677 0.0
H1390 H 0.06455 0.57722 0.15829 0.0
H1391 H 0.08347 0.62631 0.10904 0.0
H1392 H 0.12899 0.69416 0.19062 0.0
H1393 H 0.10916 0.66851 0.16723 0.0
H1394 H 0.11447 0.6228 0.18724 0.0
C1395 C 0.06393 0.57761 0.13708 0.0
C1396 C 0.09036 0.62536 0.12582 0.0
C1397 C 0.05246 0.56234 0.12472 0.0
C1398 C 0.13197 0.68413 0.1895 0.0
C1399 C 0.12069 0.66946 0.17571 0.0
C1400 C 0.10807 0.62384 0.16989 0.0
C1401 C 0.0744 0.5931 0.12229 0.0
C1402 C 0.0871 0.60926 0.1354 0.0
C1403 C 0.12393 0.65602 0.17372 0.0
C1404 C 0.1114 0.63995 0.16026 0.0
H1405 H 0.06018 0.57824 0.06135 0.0
H1406 H 0.08073 0.60453 0.0827 0.0
H1407 H 0.09429 0.59666 0.16531 0.0
H1408 H 0.1612 0.67297 0.20902 0.0
H1409 H 0.14216 0.64798 0.18386 0.0
loop_
_geom_bond_atom_site_label_1
_geom_bond_atom_site_label_2
_geom_bond_distance
_geom_bond_site_symmetry_2
_ccdc_geom_bond_type
C0 C1 1.443 . S
C0 N4 1.376 . S
C0 C38 1.389 . S
C1 C0 1.443 . S
C1 C2 1.340 . S
C1 H41 0.951 . S
C2 C1 1.340 . S
C2 C3 1.439 . S
C2 H42 0.950 . S
C3 C2 1.439 . S
C3 N4 1.374 . S
C3 C37 1.395 . S
N4 C0 1.376 . S
N4 C3 1.374 . S
N4 Co5 2.008 1_655 S
Co5 N4 2.008 1_455 S
Co5 N6 1.976 . S
Co5 N11 2.008 . S
Co5 N16 1.995 . S
Co5 N21 2.282 . S
Co5 N27 2.282 1_455 S
N6 Co5 1.976 . S
N6 C7 1.334 1_455 S
N6 C10 1.454 . S
C7 N6 1.334 1_655 S
C7 C8 1.446 . S
C7 C37 1.391 . S
C8 C7 1.446 . S
C8 C9 1.339 1_655 S
C8 H43 0.949 . S
C9 C8 1.339 1_455 S
C9 C10 1.439 . S
C9 H44 0.950 . S
C10 N6 1.454 . S
C10 C9 1.439 . S
C10 C39 1.392 . S
N11 Co5 2.008 . S
N11 C12 1.376 . S
N11 C15 1.374 . S
C12 N11 1.376 . S
C12 C13 1.443 . S
C12 C39 1.389 . S
C13 C12 1.443 . S
C13 C14 1.340 . S
C13 H45 0.951 . S
C14 C13 1.340 . S
C14 C15 1.439 . S
C14 H46 0.950 . S
C15 N11 1.374 . S
C15 C14 1.439 . S
C15 C40 1.395 1_554 S
N16 Co5 1.995 . S
N16 C17 1.376 1_554 S
N16 C20 1.383 1_455 S
C17 N16 1.376 1_556 S
C17 C18 1.446 . S
C17 C40 1.391 . S
C18 C17 1.446 . S
C18 C19 1.339 1_455 S
C18 H47 0.949 . S
C19 C18 1.339 1_655 S
C19 C20 1.439 1_556 S
C19 H48 0.950 . S
C20 N16 1.383 1_655 S
C20 C19 1.439 1_554 S
C20 C38 1.392 . S
N21 Co5 2.282 . S
N21 C24 1.332 . S
N21 C26 1.332 . S
C22 C23 1.386 . S
C22 C25 1.388 . S
C23 C22 1.386 . S
C23 C24 1.382 . S
C23 H49 0.950 . S
C24 N21 1.332 . S
C24 C23 1.382 . S
C24 H35 0.952 . S
C25 C22 1.388 . S
C25 C26 1.382 . S
C25 H50 0.950 . S
C26 N21 1.332 . S
C26 C25 1.382 . S
C26 H36 0.948 . S
N27 Co5 2.282 1_655 S
N27 C31 1.332 . S
N27 C32 1.332 . S
C28 C29 1.379 1_556 S
C28 C32 1.382 1_556 S
C28 H51 0.950 . S
C29 C28 1.379 1_554 S
C29 C30 1.406 . S
C30 C29 1.406 . S
C30 C31 1.382 . S
C30 H52 0.950 . S
C31 N27 1.332 . S
C31 C30 1.382 . S
C31 H33 0.952 . S
C32 N27 1.332 . S
C32 C28 1.382 1_554 S
C32 H34 0.948 1_554 S
H33 C31 0.952 . S
H34 C32 0.948 1_556 S
H35 C24 0.952 . S
H36 C26 0.948 . S
C37 C3 1.395 . S
C37 C7 1.391 . S
C38 C0 1.389 . S
C38 C20 1.392 . S
C39 C10 1.392 . S
C39 C12 1.389 . S
C40 C15 1.395 1_556 S
C40 C17 1.391 . S
H41 C1 0.951 . S
H42 C2 0.950 . S
H43 C8 0.949 . S
H44 C9 0.950 . S
H45 C13 0.951 . S
H46 C14 0.950 . S
H47 C18 0.949 . S
H48 C19 0.950 . S
H49 C23 0.950 . S
H50 C25 0.950 . S
H51 C28 0.950 . S
H52 C30 0.950 . S
C53 C54 1.443 . S
C53 N57 1.376 . S
C53 C91 1.389 . S
C54 C53 1.443 . S
C54 C55 1.340 . S
C54 H94 0.951 . S
C55 C54 1.340 . S
C55 C56 1.439 1_545 S
C55 H95 0.950 1_545 S
C56 C55 1.439 1_565 S
C56 N57 1.374 1_565 S
C56 C90 1.395 . S
N57 C53 1.376 . S
N57 C56 1.374 1_545 S
N57 Co58 2.008 . S
Co58 N57 2.008 . S
Co58 N59 1.995 1_545 S
Co58 N64 2.008 . S
Co58 N69 1.995 . S
Co58 N74 2.282 1_545 S
Co58 N80 2.282 . S
N59 Co58 1.995 1_565 S
N59 C60 1.376 . S
N59 C63 1.383 . S
C60 N59 1.376 . S
C60 C61 1.446 . S
C60 C90 1.391 . S
C61 C60 1.446 . S
C61 C62 1.339 . S
C61 H96 0.949 . S
C62 C61 1.339 . S
C62 C63 1.439 . S
C62 H97 0.950 . S
C63 N59 1.383 . S
C63 C62 1.439 . S
C63 C92 1.392 . S
N64 Co58 2.008 . S
N64 C65 1.376 1_545 S
N64 C68 1.374 . S
C65 N64 1.376 1_565 S
C65 C66 1.443 . S
C65 C92 1.389 . S
C66 C65 1.443 . S
C66 C67 1.340 1_565 S
C66 H98 0.951 . S
C67 C66 1.340 1_545 S
C67 C68 1.439 . S
C67 H99 0.950 . S
C68 N64 1.374 . S
C68 C67 1.439 . S
C68 C93 1.395 . S
N69 Co58 1.995 . S
N69 C70 1.376 . S
N69 C73 1.383 . S
C70 N69 1.376 . S
C70 C71 1.446 . S
C70 C93 1.391 . S
C71 C70 1.446 . S
C71 C72 1.339 . S
C71 H100 0.949 . S
C72 C71 1.339 . S
C72 C73 1.439 . S
C72 H101 0.950 . S
C73 N69 1.383 . S
C73 C72 1.439 . S
C73 C91 1.392 . S
N74 Co58 2.282 1_565 S
N74 C77 1.332 . S
N74 C79 1.332 . S
C75 C76 1.386 . S
C75 C78 1.388 . S
C76 C75 1.386 . S
C76 C77 1.382 . S
C76 H102 0.950 . S
C77 N74 1.332 . S
C77 C76 1.382 . S
C77 H88 0.952 1_565 S
C78 C75 1.388 . S
C78 C79 1.382 . S
C78 H103 0.950 . S
C79 N74 1.332 . S
C79 C78 1.382 . S
C79 H89 0.948 . S
N80 Co58 2.282 . S
N80 C84 1.332 . S
N80 C85 1.332 . S
C81 C82 1.388 . S
C81 C85 1.382 . S
C81 H104 0.950 . S
C82 C81 1.388 . S
C82 C83 1.386 . S
C83 C82 1.386 . S
C83 C84 1.382 . S
C83 H105 0.950 . S
C84 N80 1.332 . S
C84 C83 1.382 . S
C84 H86 0.952 . S
C85 N80 1.332 . S
C85 C81 1.382 . S
C85 H87 0.948 . S
H86 C84 0.952 . S
H87 C85 0.948 . S
H88 C77 0.952 1_545 S
H89 C79 0.948 . S
C90 C56 1.395 . S
C90 C60 1.391 . S
C91 C53 1.389 . S
C91 C73 1.392 . S
C92 C63 1.392 . S
C92 C65 1.389 . S
C93 C68 1.395 . S
C93 C70 1.391 . S
H94 C54 0.951 . S
H95 C55 0.950 1_565 S
H96 C61 0.949 . S
H97 C62 0.950 . S
H98 C66 0.951 . S
H99 C67 0.950 . S
H100 C71 0.949 . S
H101 C72 0.950 . S
H102 C76 0.950 . S
H103 C78 0.950 . S
H104 C81 0.950 . S
H105 C83 0.950 . S
C106 C107 1.443 . S
C106 N110 1.376 . S
C106 C144 1.389 . S
C107 C106 1.443 . S
C107 C108 1.340 . S
C107 H147 0.951 . S
C108 C107 1.340 . S
C108 C109 1.439 . S
C108 H148 0.950 . S
C109 C108 1.439 . S
C109 N110 1.374 . S
C109 C143 1.395 . S
N110 C106 1.376 . S
N110 C109 1.374 . S
N110 Co111 2.008 1_556 S
Co111 N110 2.008 1_554 S
Co111 N112 1.995 1_554 S
Co111 N117 2.008 . S
Co111 N122 1.995 . S
Co111 N127 2.282 . S
Co111 N133 2.282 1_554 S
N112 Co111 1.995 1_556 S
N112 C113 1.376 . S
N112 C116 1.383 1_556 S
C113 N112 1.376 . S
C113 C114 1.446 . S
C113 C143 1.391 . S
C114 C113 1.446 . S
C114 C115 1.339 . S
C114 H149 0.949 . S
C115 C114 1.339 . S
C115 C116 1.439 1_556 S
C115 H150 0.950 . S
C116 N112 1.383 1_554 S
C116 C115 1.439 1_554 S
C116 C145 1.392 . S
N117 Co111 2.008 . S
N117 C118 1.376 . S
N117 C121 1.374 . S
C118 N117 1.376 . S
C118 C119 1.443 . S
C118 C145 1.389 . S
C119 C118 1.443 . S
C119 C120 1.340 . S
C119 H151 0.951 . S
C120 C119 1.340 . S
C120 C121 1.439 . S
C120 H152 0.950 . S
C121 N117 1.374 . S
C121 C120 1.439 . S
C121 C146 1.395 . S
N122 Co111 1.995 . S
N122 C123 1.376 . S
N122 C126 1.384 1_554 S
C123 N122 1.376 . S
C123 C124 1.446 . S
C123 C146 1.391 . S
C124 C123 1.446 . S
C124 C125 1.339 . S
C124 H153 0.949 . S
C125 C124 1.339 . S
C125 C126 1.440 1_554 S
C125 H154 0.950 . S
C126 N122 1.384 1_556 S
C126 C125 1.440 1_556 S
C126 C144 1.390 . S
N127 Co111 2.282 . S
N127 C130 1.332 . S
N127 C132 1.332 . S
C128 C129 1.386 . S
C128 C131 1.388 . S
C129 C128 1.386 . S
C129 C130 1.382 . S
C129 H155 0.950 . S
C130 N127 1.332 . S
C130 C129 1.382 . S
C130 H141 0.952 . S
C131 C128 1.388 . S
C131 C132 1.382 . S
C131 H156 0.950 . S
C132 N127 1.332 . S
C132 C131 1.382 . S
C132 H142 0.948 1_554 S
N133 Co111 2.282 1_556 S
N133 C137 1.332 . S
N133 C138 1.332 . S
C134 C135 1.388 . S
C134 C138 1.382 . S
C134 H157 0.950 . S
C135 C134 1.388 . S
C135 C136 1.386 . S
C136 C135 1.386 . S
C136 C137 1.382 . S
C136 H158 0.950 . S
C137 N133 1.332 . S
C137 C136 1.382 . S
C137 H139 0.952 . S
C138 N133 1.332 . S
C138 C134 1.382 . S
C138 H140 0.948 1_556 S
H139 C137 0.952 . S
H140 C138 0.948 1_554 S
H141 C130 0.952 . S
H142 C132 0.948 1_556 S
C143 C109 1.395 . S
C143 C113 1.391 . S
C144 C106 1.389 . S
C144 C126 1.390 . S
C145 C116 1.392 . S
C145 C118 1.389 . S
C146 C121 1.395 . S
C146 C123 1.391 . S
H147 C107 0.951 . S
H148 C108 0.950 . S
H149 C114 0.949 . S
H150 C115 0.950 . S
H151 C119 0.951 . S
H152 C120 0.950 . S
H153 C124 0.949 . S
H154 C125 0.950 . S
H155 C129 0.950 . S
H156 C131 0.950 . S
H157 C134 0.950 . S
H158 C136 0.950 . S
C159 C160 1.456 . S
C159 N163 1.376 . S
C159 C197 1.389 . S
C160 C159 1.456 . S
C160 C161 1.352 . S
C160 H200 0.944 1_455 S
C161 C160 1.352 . S
C161 C162 1.474 . S
C161 H201 0.909 1_455 S
C162 C161 1.474 . S
C162 N163 1.374 . S
C162 C196 1.395 . S
N163 C159 1.376 . S
N163 C162 1.374 . S
N163 Co164 2.008 . S
Co164 N163 2.008 . S
Co164 N165 1.995 . S
Co164 N170 2.008 . S
Co164 N175 1.995 . S
Co164 N180 2.282 . S
Co164 N186 2.282 . S
N165 Co164 1.995 . S
N165 C166 1.376 . S
N165 C169 1.383 . S
C166 N165 1.376 . S
C166 C167 1.446 . S
C166 C196 1.391 . S
C167 C166 1.446 . S
C167 C168 1.339 . S
C167 H202 0.949 . S
C168 C167 1.339 . S
C168 C169 1.439 . S
C168 H203 0.950 . S
C169 N165 1.383 . S
C169 C168 1.439 . S
C169 C198 1.392 . S
N170 Co164 2.008 . S
N170 C171 1.376 . S
N170 C174 1.374 . S
C171 N170 1.376 . S
C171 C172 1.443 . S
C171 C198 1.389 . S
C172 C171 1.443 . S
C172 C173 1.340 . S
C172 H204 0.951 . S
C173 C172 1.340 . S
C173 C174 1.439 . S
C173 H205 0.950 . S
C174 N170 1.374 . S
C174 C173 1.439 . S
C174 C199 1.395 . S
N175 Co164 1.995 . S
N175 C176 1.376 . S
N175 C179 1.383 . S
C176 N175 1.376 . S
C176 C177 1.446 . S
C176 C199 1.391 . S
C177 C176 1.446 . S
C177 C178 1.339 . S
C177 H206 0.949 . S
C178 C177 1.339 . S
C178 C179 1.439 . S
C178 H207 0.950 . S
C179 N175 1.383 . S
C179 C178 1.439 . S
C179 C197 1.392 . S
N180 Co164 2.282 . S
N180 C183 1.332 . S
N180 C185 1.332 . S
C181 C182 1.386 . S
C181 C184 1.388 . S
C182 C181 1.386 . S
C182 C183 1.382 . S
C182 H208 0.950 . S
C183 N180 1.332 . S
C183 C182 1.382 . S
C183 H194 0.952 . S
C184 C181 1.388 . S
C184 C185 1.382 . S
C184 H209 0.950 . S
C185 N180 1.332 . S
C185 C184 1.382 . S
C185 H195 0.948 . S
N186 Co164 2.282 . S
N186 C190 1.332 . S
N186 C191 1.332 . S
C187 C188 1.388 . S
C187 C191 1.382 . S
C187 H210 0.950 . S
C188 C187 1.388 . S
C188 C189 1.386 . S
C189 C188 1.386 . S
C189 C190 1.382 . S
C189 H211 0.950 . S
C190 N186 1.332 . S
C190 C189 1.382 . S
C190 H192 0.952 . S
C191 N186 1.332 . S
C191 C187 1.382 . S
C191 H193 0.948 . S
H192 C190 0.952 . S
H193 C191 0.948 . S
H194 C183 0.952 . S
H195 C185 0.948 . S
C196 C162 1.395 . S
C196 C166 1.391 . S
C197 C159 1.389 . S
C197 C179 1.392 . S
C198 C169 1.392 . S
C198 C171 1.389 . S
C199 C174 1.395 . S
C199 C176 1.391 . S
H200 C160 0.944 1_655 S
H201 C161 0.909 1_655 S
H202 C167 0.949 . S
H203 C168 0.950 . S
H204 C172 0.951 . S
H205 C173 0.950 . S
H206 C177 0.949 . S
H207 C178 0.950 . S
H208 C182 0.950 . S
H209 C184 0.950 . S
H210 C187 0.950 . S
H211 C189 0.950 . S
C212 C213 1.443 . S
C212 N216 1.376 1_565 S
C212 C250 1.389 . S
C213 C212 1.443 . S
C213 C214 1.340 1_565 S
C213 H253 0.951 . S
C214 C213 1.340 1_545 S
C214 C215 1.439 . S
C214 H254 0.950 . S
C215 C214 1.439 . S
C215 N216 1.374 . S
C215 C249 1.395 . S
N216 C212 1.376 1_545 S
N216 C215 1.374 . S
N216 Co217 2.008 . S
Co217 N216 2.008 . S
Co217 N218 1.995 . S
Co217 N223 2.008 1_554 S
Co217 N228 1.995 1_544 S
Co217 N233 2.282 1_554 S
Co217 N239 2.282 1_545 S
N218 Co217 1.995 . S
N218 C219 1.376 . S
N218 C222 1.383 1_554 S
C219 N218 1.376 . S
C219 C220 1.446 . S
C219 C249 1.391 . S
C220 C219 1.446 . S
C220 C221 1.339 . S
C220 H255 0.949 . S
C221 C220 1.339 . S
C221 C222 1.439 1_554 S
C221 H256 0.950 . S
C222 N218 1.383 1_556 S
C222 C221 1.439 1_556 S
C222 C251 1.392 . S
N223 Co217 2.008 1_556 S
N223 C224 1.376 . S
N223 C227 1.374 1_545 S
C224 N223 1.376 . S
C224 C225 1.443 . S
C224 C251 1.389 . S
C225 C224 1.443 . S
C225 C226 1.340 . S
C225 H257 0.951 . S
C226 C225 1.340 . S
C226 C227 1.439 1_545 S
C226 H258 0.962 . S
C227 N223 1.374 1_565 S
C227 C226 1.439 1_565 S
C227 C252 1.395 . S
N228 Co217 1.995 1_566 S
N228 C229 1.376 . S
N228 C232 1.383 1_556 S
C229 N228 1.376 . S
C229 C230 1.446 . S
C229 C252 1.391 . S
C230 C229 1.446 . S
C230 C231 1.339 . S
C230 H259 0.949 . S
C231 C230 1.339 . S
C231 C232 1.439 1_556 S
C231 H260 0.950 1_556 S
C232 N228 1.383 1_554 S
C232 C231 1.439 1_554 S
C232 C250 1.392 . S
N233 Co217 2.282 1_556 S
N233 C236 1.332 . S
N233 C238 1.332 . S
C234 C235 1.386 . S
C234 C237 1.388 . S
C235 C234 1.386 . S
C235 C236 1.382 . S
C235 H261 0.950 . S
C236 N233 1.332 . S
C236 C235 1.382 . S
C236 H247 0.952 . S
C237 C234 1.388 . S
C237 C238 1.382 . S
C237 H262 0.950 . S
C238 N233 1.332 . S
C238 C237 1.382 . S
C238 H248 0.948 1_556 S
N239 Co217 2.282 1_565 S
N239 C243 1.332 . S
N239 C244 1.332 . S
C240 C241 1.388 . S
C240 C244 1.382 . S
C240 H263 0.950 . S
C241 C240 1.388 . S
C241 C242 1.386 . S
C242 C241 1.386 . S
C242 C243 1.382 . S
C242 H264 0.950 . S
C243 N239 1.332 . S
C243 C242 1.382 . S
C243 H245 0.952 1_565 S
C244 N239 1.332 . S
C244 C240 1.382 . S
C244 H246 0.951 . S
H245 C243 0.952 1_545 S
H246 C244 0.951 . S
H247 C236 0.952 . S
H248 C238 0.948 1_554 S
C249 C215 1.395 . S
C249 C219 1.391 . S
C250 C212 1.389 . S
C250 C232 1.392 . S
C251 C222 1.392 . S
C251 C224 1.389 . S
C252 C227 1.395 . S
C252 C229 1.391 . S
H253 C213 0.951 . S
H254 C214 0.950 . S
H255 C220 0.949 . S
H256 C221 0.950 . S
H257 C225 0.951 . S
H258 C226 0.962 . S
H259 C230 0.949 . S
H260 C231 0.950 1_554 S
H261 C235 0.950 . S
H262 C237 0.950 . S
H263 C240 0.950 . S
H264 C242 0.950 . S
C265 C266 1.443 . S
C265 N269 1.376 . S
C265 C303 1.389 . S
C266 C265 1.443 . S
C266 C267 1.340 . S
C266 H306 0.951 . S
C267 C266 1.340 . S
C267 C268 1.439 . S
C267 H307 0.950 . S
C268 C267 1.439 . S
C268 N269 1.374 . S
C268 C302 1.395 . S
N269 C265 1.376 . S
N269 C268 1.374 . S
N269 Co270 2.008 . S
Co270 N269 2.008 . S
Co270 N271 1.995 . S
Co270 N276 2.008 . S
Co270 N281 1.995 . S
Co270 N286 2.282 . S
Co270 N292 2.282 . S
N271 Co270 1.995 . S
N271 C272 1.376 . S
N271 C275 1.383 . S
C272 N271 1.376 . S
C272 C273 1.446 . S
C272 C302 1.391 . S
C273 C272 1.446 . S
C273 C274 1.339 . S
C273 H308 0.949 . S
C274 C273 1.339 . S
C274 C275 1.439 . S
C274 H309 0.950 . S
C275 N271 1.383 . S
C275 C274 1.439 . S
C275 C304 1.392 . S
N276 Co270 2.008 . S
N276 C277 1.376 . S
N276 C280 1.374 . S
C277 N276 1.376 . S
C277 C278 1.443 . S
C277 C304 1.389 . S
C278 C277 1.443 . S
C278 C279 1.340 . S
C278 H310 0.951 . S
C279 C278 1.340 . S
C279 C280 1.439 . S
C279 H311 0.950 . S
C280 N276 1.374 . S
C280 C279 1.439 . S
C280 C305 1.395 . S
N281 Co270 1.995 . S
N281 C282 1.376 . S
N281 C285 1.383 . S
C282 N281 1.376 . S
C282 C283 1.446 . S
C282 C305 1.391 . S
C283 C282 1.446 . S
C283 C284 1.339 . S
C283 H312 0.949 . S
C284 C283 1.339 . S
C284 C285 1.439 . S
C284 H313 0.950 . S
C285 N281 1.383 . S
C285 C284 1.439 . S
C285 C303 1.392 . S
N286 Co270 2.282 . S
N286 C289 1.332 . S
N286 C291 1.332 . S
C287 C288 1.386 . S
C287 C290 1.388 . S
C288 C287 1.386 . S
C288 C289 1.382 . S
C288 H314 0.950 . S
C289 N286 1.332 . S
C289 C288 1.382 . S
C289 H300 0.952 . S
C290 C287 1.388 . S
C290 C291 1.382 . S
C290 H315 0.950 . S
C291 N286 1.332 . S
C291 C290 1.382 . S
C291 H301 0.948 . S
N292 Co270 2.282 . S
N292 C296 1.332 . S
N292 C297 1.332 . S
C293 C294 1.388 . S
C293 C297 1.382 . S
C293 H316 0.950 . S
C294 C293 1.388 . S
C294 C295 1.386 . S
C295 C294 1.386 . S
C295 C296 1.382 . S
C295 H317 0.950 . S
C296 N292 1.332 . S
C296 C295 1.382 . S
C296 H298 0.952 . S
C297 N292 1.332 . S
C297 C293 1.382 . S
C297 H299 0.948 . S
H298 C296 0.952 . S
H299 C297 0.948 . S
H300 C289 0.952 . S
H301 C291 0.948 . S
C302 C268 1.395 . S
C302 C272 1.391 . S
C303 C265 1.389 . S
C303 C285 1.392 . S
C304 C275 1.392 . S
C304 C277 1.389 . S
C305 C280 1.395 . S
C305 C282 1.391 . S
H306 C266 0.951 . S
H307 C267 0.950 . S
H308 C273 0.949 . S
H309 C274 0.950 . S
H310 C278 0.951 . S
H311 C279 0.950 . S
H312 C283 0.949 . S
H313 C284 0.950 . S
H314 C288 0.950 . S
H315 C290 0.950 . S
H316 C293 0.950 . S
H317 C295 0.950 . S
H318 C345 0.929 . S
N319 C344 1.433 . S
N319 C350 1.435 . S
N319 C356 1.423 . S
H320 C346 0.930 . S
H321 C349 0.931 . S
H322 C348 0.929 . S
H323 C351 0.930 . S
H324 C352 0.932 . S
H325 C355 0.929 . S
H326 C354 0.931 . S
H327 C357 0.929 . S
H328 C361 0.932 . S
H329 C358 0.931 . S
H330 C360 0.929 . S
H331 C363 0.929 . S
H332 C364 0.930 . S
H333 C366 0.929 . S
H334 C367 0.931 . S
H335 C369 0.930 . S
H336 C370 0.932 . S
H337 C372 0.931 . S
H338 C373 0.929 . S
H339 C375 0.929 . S
H340 C376 0.931 . S
H341 C378 0.929 . S
N342 C362 1.433 . S
N342 C368 1.435 . S
N342 C374 1.423 . S
H343 C379 0.932 . S
C344 N319 1.433 . S
C344 C345 1.363 . S
C344 C349 1.370 . S
C345 H318 0.929 . S
C345 C344 1.363 . S
C345 C346 1.385 . S
C346 H320 0.930 . S
C346 C345 1.385 . S
C346 C347 1.357 . S
C347 C346 1.357 . S
C347 C348 1.406 . S
C348 H322 0.929 . S
C348 C347 1.406 . S
C348 C349 1.391 . S
C349 H321 0.931 . S
C349 C344 1.370 . S
C349 C348 1.391 . S
C350 N319 1.435 . S
C350 C351 1.358 . S
C350 C355 1.371 . S
C351 H323 0.930 . S
C351 C350 1.358 . S
C351 C352 1.405 . S
C352 H324 0.932 . S
C352 C351 1.405 . S
C352 C353 1.383 . S
C353 C352 1.383 . S
C353 C354 1.393 . S
C354 H326 0.931 . S
C354 C353 1.393 . S
C354 C355 1.382 . S
C355 H325 0.929 . S
C355 C350 1.371 . S
C355 C354 1.382 . S
C356 N319 1.423 . S
C356 C357 1.362 . S
C356 C361 1.388 . S
C357 H327 0.929 . S
C357 C356 1.362 . S
C357 C358 1.376 . S
C358 H329 0.931 . S
C358 C357 1.376 . S
C358 C359 1.396 . S
C359 C358 1.396 . S
C359 C360 1.348 . S
C359 C377 1.472 . S
C360 H330 0.929 . S
C360 C359 1.348 . S
C360 C361 1.443 . S
C361 H328 0.932 . S
C361 C356 1.388 . S
C361 C360 1.443 . S
C362 N342 1.433 . S
C362 C363 1.363 . S
C362 C367 1.370 . S
C363 H331 0.929 . S
C363 C362 1.363 . S
C363 C364 1.385 . S
C364 H332 0.930 . S
C364 C363 1.385 . S
C364 C365 1.357 . S
C365 C364 1.357 . S
C365 C366 1.406 . S
C366 H333 0.929 . S
C366 C365 1.406 . S
C366 C367 1.391 . S
C367 H334 0.931 . S
C367 C362 1.370 . S
C367 C366 1.391 . S
C368 N342 1.435 . S
C368 C369 1.358 . S
C368 C373 1.371 . S
C369 H335 0.930 . S
C369 C368 1.358 . S
C369 C370 1.405 . S
C370 H336 0.932 . S
C370 C369 1.405 . S
C370 C371 1.383 . S
C371 C370 1.383 . S
C371 C372 1.393 . S
C372 H337 0.931 . S
C372 C371 1.393 . S
C372 C373 1.382 . S
C373 H338 0.929 . S
C373 C368 1.371 . S
C373 C372 1.382 . S
C374 N342 1.423 . S
C374 C375 1.362 . S
C374 C379 1.388 . S
C375 H339 0.929 . S
C375 C374 1.362 . S
C375 C376 1.376 . S
C376 H340 0.931 . S
C376 C375 1.376 . S
C376 C377 1.396 . S
C377 C359 1.472 . S
C377 C376 1.396 . S
C377 C378 1.348 . S
C378 H341 0.929 . S
C378 C377 1.348 . S
C378 C379 1.443 . S
C379 H343 0.932 . S
C379 C374 1.388 . S
C379 C378 1.443 . S
H380 C407 0.929 . S
N381 C406 1.433 . S
N381 C412 1.435 . S
N381 C418 1.423 . S
H382 C408 0.930 . S
H383 C411 0.931 . S
H384 C410 0.929 . S
H385 C413 0.930 . S
H386 C414 0.932 . S
H387 C417 0.929 . S
H388 C416 0.931 . S
H389 C419 0.929 . S
H390 C423 0.932 . S
H391 C420 0.931 . S
H392 C422 0.929 . S
H393 C425 0.929 . S
H394 C426 0.930 . S
H395 C428 0.929 . S
H396 C429 0.931 . S
H397 C431 0.930 . S
H398 C432 0.932 . S
H399 C434 0.931 . S
H400 C435 0.929 . S
H401 C437 0.929 . S
H402 C438 0.931 . S
H403 C440 0.929 . S
N404 C424 1.433 . S
N404 C430 1.435 . S
N404 C436 1.423 . S
H405 C441 0.932 . S
C406 N381 1.433 . S
C406 C407 1.363 . S
C406 C411 1.370 . S
C407 H380 0.929 . S
C407 C406 1.363 . S
C407 C408 1.385 . S
C408 H382 0.930 . S
C408 C407 1.385 . S
C408 C409 1.357 . S
C409 C408 1.357 . S
C409 C410 1.406 . S
C410 H384 0.929 . S
C410 C409 1.406 . S
C410 C411 1.391 . S
C411 H383 0.931 . S
C411 C406 1.370 . S
C411 C410 1.391 . S
C412 N381 1.435 . S
C412 C413 1.358 . S
C412 C417 1.371 . S
C413 H385 0.930 . S
C413 C412 1.358 . S
C413 C414 1.405 . S
C414 H386 0.932 . S
C414 C413 1.405 . S
C414 C415 1.383 . S
C415 C414 1.383 . S
C415 C416 1.393 . S
C416 H388 0.931 . S
C416 C415 1.393 . S
C416 C417 1.382 . S
C417 H387 0.929 . S
C417 C412 1.371 . S
C417 C416 1.382 . S
C418 N381 1.423 . S
C418 C419 1.362 . S
C418 C423 1.388 . S
C419 H389 0.929 . S
C419 C418 1.362 . S
C419 C420 1.376 . S
C420 H391 0.931 . S
C420 C419 1.376 . S
C420 C421 1.396 . S
C421 C420 1.396 . S
C421 C422 1.348 . S
C421 C439 1.472 . S
C422 H392 0.929 . S
C422 C421 1.348 . S
C422 C423 1.443 . S
C423 H390 0.932 . S
C423 C418 1.388 . S
C423 C422 1.443 . S
C424 N404 1.433 . S
C424 C425 1.363 . S
C424 C429 1.370 . S
C425 H393 0.929 . S
C425 C424 1.363 . S
C425 C426 1.385 . S
C426 H394 0.930 . S
C426 C425 1.385 . S
C426 C427 1.357 . S
C427 C426 1.357 . S
C427 C428 1.406 . S
C428 H395 0.929 . S
C428 C427 1.406 . S
C428 C429 1.391 . S
C429 H396 0.931 . S
C429 C424 1.370 . S
C429 C428 1.391 . S
C430 N404 1.435 . S
C430 C431 1.358 . S
C430 C435 1.371 . S
C431 H397 0.930 . S
C431 C430 1.358 . S
C431 C432 1.405 . S
C432 H398 0.932 . S
C432 C431 1.405 . S
C432 C433 1.383 . S
C433 C432 1.383 . S
C433 C434 1.393 . S
C434 H399 0.931 . S
C434 C433 1.393 . S
C434 C435 1.382 . S
C435 H400 0.929 . S
C435 C430 1.371 . S
C435 C434 1.382 . S
C436 N404 1.423 . S
C436 C437 1.362 . S
C436 C441 1.388 . S
C437 H401 0.929 . S
C437 C436 1.362 . S
C437 C438 1.376 . S
C438 H402 0.931 . S
C438 C437 1.376 . S
C438 C439 1.396 . S
C439 C421 1.472 . S
C439 C438 1.396 . S
C439 C440 1.348 . S
C440 H403 0.929 . S
C440 C439 1.348 . S
C440 C441 1.443 . S
C441 H405 0.932 . S
C441 C436 1.388 . S
C441 C440 1.443 . S
H442 C469 0.929 . S
N443 C468 1.433 . S
N443 C474 1.435 . S
N443 C480 1.423 . S
H444 C470 0.930 . S
H445 C473 0.931 . S
H446 C472 0.929 . S
H447 C475 0.930 . S
H448 C476 0.932 . S
H449 C479 0.929 . S
H450 C478 0.931 . S
H451 C481 0.929 . S
H452 C485 0.932 . S
H453 C482 0.931 . S
H454 C484 0.929 . S
H455 C487 0.929 . S
H456 C488 0.930 . S
H457 C490 0.929 . S
H458 C491 0.931 . S
H459 C493 0.930 . S
H460 C494 0.932 . S
H461 C496 0.931 . S
H462 C497 0.929 . S
H463 C499 0.929 . S
H464 C500 0.931 . S
H465 C502 0.929 . S
N466 C486 1.433 . S
N466 C492 1.435 . S
N466 C498 1.423 . S
H467 C503 0.932 . S
C468 N443 1.433 . S
C468 C469 1.363 . S
C468 C473 1.370 . S
C469 H442 0.929 . S
C469 C468 1.363 . S
C469 C470 1.385 . S
C470 H444 0.930 . S
C470 C469 1.385 . S
C470 C471 1.357 . S
C471 C470 1.357 . S
C471 C472 1.406 . S
C472 H446 0.929 . S
C472 C471 1.406 . S
C472 C473 1.391 . S
C473 H445 0.931 . S
C473 C468 1.370 . S
C473 C472 1.391 . S
C474 N443 1.435 . S
C474 C475 1.358 . S
C474 C479 1.371 . S
C475 H447 0.930 . S
C475 C474 1.358 . S
C475 C476 1.405 . S
C476 H448 0.932 . S
C476 C475 1.405 . S
C476 C477 1.383 . S
C477 C476 1.383 . S
C477 C478 1.393 . S
C478 H450 0.931 . S
C478 C477 1.393 . S
C478 C479 1.382 . S
C479 H449 0.929 . S
C479 C474 1.371 . S
C479 C478 1.382 . S
C480 N443 1.423 . S
C480 C481 1.362 . S
C480 C485 1.388 . S
C481 H451 0.929 . S
C481 C480 1.362 . S
C481 C482 1.376 . S
C482 H453 0.931 . S
C482 C481 1.376 . S
C482 C483 1.396 . S
C483 C482 1.396 . S
C483 C484 1.348 . S
C483 C501 1.472 . S
C484 H454 0.929 . S
C484 C483 1.348 . S
C484 C485 1.443 . S
C485 H452 0.932 . S
C485 C480 1.388 . S
C485 C484 1.443 . S
C486 N466 1.433 . S
C486 C487 1.363 . S
C486 C491 1.370 . S
C487 H455 0.929 . S
C487 C486 1.363 . S
C487 C488 1.385 . S
C488 H456 0.930 . S
C488 C487 1.385 . S
C488 C489 1.357 . S
C489 C488 1.357 . S
C489 C490 1.406 . S
C490 H457 0.929 . S
C490 C489 1.406 . S
C490 C491 1.391 . S
C491 H458 0.931 . S
C491 C486 1.370 . S
C491 C490 1.391 . S
C492 N466 1.435 . S
C492 C493 1.358 . S
C492 C497 1.371 . S
C493 H459 0.930 . S
C493 C492 1.358 . S
C493 C494 1.405 . S
C494 H460 0.932 . S
C494 C493 1.405 . S
C494 C495 1.383 . S
C495 C494 1.383 . S
C495 C496 1.393 . S
C496 H461 0.931 . S
C496 C495 1.393 . S
C496 C497 1.382 . S
C497 H462 0.929 . S
C497 C492 1.371 . S
C497 C496 1.382 . S
C498 N466 1.423 . S
C498 C499 1.362 . S
C498 C503 1.388 . S
C499 H463 0.929 . S
C499 C498 1.362 . S
C499 C500 1.376 . S
C500 H464 0.931 . S
C500 C499 1.376 . S
C500 C501 1.396 . S
C501 C483 1.472 . S
C501 C500 1.396 . S
C501 C502 1.348 . S
C502 H465 0.929 . S
C502 C501 1.348 . S
C502 C503 1.443 . S
C503 H467 0.932 . S
C503 C498 1.388 . S
C503 C502 1.443 . S
H504 C531 0.929 . S
N505 C530 1.433 . S
N505 C536 1.435 . S
N505 C542 1.423 . S
H506 C532 0.930 . S
H507 C535 0.931 . S
H508 C534 0.929 . S
H509 C537 0.930 . S
H510 C538 0.932 . S
H511 C541 0.929 . S
H512 C540 0.931 . S
H513 C543 0.929 . S
H514 C547 0.932 . S
H515 C544 0.931 . S
H516 C546 0.929 . S
H517 C549 0.929 . S
H518 C550 0.930 . S
H519 C552 0.929 . S
H520 C553 0.931 . S
H521 C555 0.930 . S
H522 C556 0.932 . S
H523 C558 0.931 . S
H524 C559 0.929 . S
H525 C561 0.929 . S
H526 C562 0.931 . S
H527 C564 0.929 . S
N528 C548 1.433 . S
N528 C554 1.435 . S
N528 C560 1.423 . S
H529 C565 0.932 . S
C530 N505 1.433 . S
C530 C531 1.363 . S
C530 C535 1.370 . S
C531 H504 0.929 . S
C531 C530 1.363 . S
C531 C532 1.385 . S
C532 H506 0.930 . S
C532 C531 1.385 . S
C532 C533 1.357 . S
C533 C532 1.357 . S
C533 C534 1.406 . S
C534 H508 0.929 . S
C534 C533 1.406 . S
C534 C535 1.391 . S
C535 H507 0.931 . S
C535 C530 1.370 . S
C535 C534 1.391 . S
C536 N505 1.435 . S
C536 C537 1.358 . S
C536 C541 1.371 . S
C537 H509 0.930 . S
C537 C536 1.358 . S
C537 C538 1.405 . S
C538 H510 0.932 . S
C538 C537 1.405 . S
C538 C539 1.383 . S
C539 C538 1.383 . S
C539 C540 1.393 . S
C540 H512 0.931 . S
C540 C539 1.393 . S
C540 C541 1.382 . S
C541 H511 0.929 . S
C541 C536 1.371 . S
C541 C540 1.382 . S
C542 N505 1.423 . S
C542 C543 1.362 . S
C542 C547 1.388 . S
C543 H513 0.929 . S
C543 C542 1.362 . S
C543 C544 1.376 . S
C544 H515 0.931 . S
C544 C543 1.376 . S
C544 C545 1.396 . S
C545 C544 1.396 . S
C545 C546 1.348 . S
C545 C563 1.472 . S
C546 H516 0.929 . S
C546 C545 1.348 . S
C546 C547 1.443 . S
C547 H514 0.932 . S
C547 C542 1.388 . S
C547 C546 1.443 . S
C548 N528 1.433 . S
C548 C549 1.363 . S
C548 C553 1.370 . S
C549 H517 0.929 . S
C549 C548 1.363 . S
C549 C550 1.385 . S
C550 H518 0.930 . S
C550 C549 1.385 . S
C550 C551 1.357 . S
C551 C550 1.357 . S
C551 C552 1.406 . S
C552 H519 0.929 . S
C552 C551 1.406 . S
C552 C553 1.391 . S
C553 H520 0.931 . S
C553 C548 1.370 . S
C553 C552 1.391 . S
C554 N528 1.435 . S
C554 C555 1.358 . S
C554 C559 1.371 . S
C555 H521 0.930 . S
C555 C554 1.358 . S
C555 C556 1.405 . S
C556 H522 0.932 . S
C556 C555 1.405 . S
C556 C557 1.383 . S
C557 C556 1.383 . S
C557 C558 1.393 . S
C558 H523 0.931 . S
C558 C557 1.393 . S
C558 C559 1.382 . S
C559 H524 0.929 . S
C559 C554 1.371 . S
C559 C558 1.382 . S
C560 N528 1.423 . S
C560 C561 1.362 . S
C560 C565 1.388 . S
C561 H525 0.929 . S
C561 C560 1.362 . S
C561 C562 1.376 . S
C562 H526 0.931 . S
C562 C561 1.376 . S
C562 C563 1.396 . S
C563 C545 1.472 . S
C563 C562 1.396 . S
C563 C564 1.348 . S
C564 H527 0.929 . S
C564 C563 1.348 . S
C564 C565 1.443 . S
C565 H529 0.932 . S
C565 C560 1.388 . S
C565 C564 1.443 . S
H566 C593 0.929 . S
N567 C592 1.433 . S
N567 C598 1.435 . S
N567 C604 1.423 . S
H568 C594 0.930 . S
H569 C597 0.931 . S
H570 C596 0.929 . S
H571 C599 0.930 . S
H572 C600 0.932 . S
H573 C603 0.929 . S
H574 C602 0.931 . S
H575 C605 0.929 . S
H576 C609 0.932 . S
H577 C606 0.931 . S
H578 C608 0.929 . S
H579 C611 0.929 . S
H580 C612 0.930 . S
H581 C614 0.929 . S
H582 C615 0.931 . S
H583 C617 0.930 . S
H584 C618 0.932 . S
H585 C620 0.931 . S
H586 C621 0.929 . S
H587 C623 0.929 . S
H588 C624 0.931 . S
H589 C626 0.929 . S
N590 C610 1.433 . S
N590 C616 1.435 . S
N590 C622 1.423 . S
H591 C627 0.932 . S
C592 N567 1.433 . S
C592 C593 1.363 . S
C592 C597 1.370 . S
C593 H566 0.929 . S
C593 C592 1.363 . S
C593 C594 1.385 . S
C594 H568 0.930 . S
C594 C593 1.385 . S
C594 C595 1.357 . S
C595 C594 1.357 . S
C595 C596 1.406 . S
C596 H570 0.929 . S
C596 C595 1.406 . S
C596 C597 1.391 . S
C597 H569 0.931 . S
C597 C592 1.370 . S
C597 C596 1.391 . S
C598 N567 1.435 . S
C598 C599 1.358 . S
C598 C603 1.371 . S
C599 H571 0.930 . S
C599 C598 1.358 . S
C599 C600 1.405 . S
C600 H572 0.932 . S
C600 C599 1.405 . S
C600 C601 1.383 . S
C601 C600 1.383 . S
C601 C602 1.393 . S
C602 H574 0.931 . S
C602 C601 1.393 . S
C602 C603 1.382 . S
C603 H573 0.929 . S
C603 C598 1.371 . S
C603 C602 1.382 . S
C604 N567 1.423 . S
C604 C605 1.362 . S
C604 C609 1.388 . S
C605 H575 0.929 . S
C605 C604 1.362 . S
C605 C606 1.376 . S
C606 H577 0.931 . S
C606 C605 1.376 . S
C606 C607 1.396 . S
C607 C606 1.396 . S
C607 C608 1.348 . S
C607 C625 1.472 . S
C608 H578 0.929 . S
C608 C607 1.348 . S
C608 C609 1.443 . S
C609 H576 0.932 . S
C609 C604 1.388 . S
C609 C608 1.443 . S
C610 N590 1.433 . S
C610 C611 1.363 . S
C610 C615 1.370 . S
C611 H579 0.929 . S
C611 C610 1.363 . S
C611 C612 1.385 . S
C612 H580 0.930 . S
C612 C611 1.385 . S
C612 C613 1.357 . S
C613 C612 1.357 . S
C613 C614 1.406 . S
C614 H581 0.929 . S
C614 C613 1.406 . S
C614 C615 1.391 . S
C615 H582 0.931 . S
C615 C610 1.370 . S
C615 C614 1.391 . S
C616 N590 1.435 . S
C616 C617 1.358 . S
C616 C621 1.371 . S
C617 H583 0.930 . S
C617 C616 1.358 . S
C617 C618 1.405 . S
C618 H584 0.932 . S
C618 C617 1.405 . S
C618 C619 1.383 . S
C619 C618 1.383 . S
C619 C620 1.393 . S
C620 H585 0.931 . S
C620 C619 1.393 . S
C620 C621 1.382 . S
C621 H586 0.929 . S
C621 C616 1.371 . S
C621 C620 1.382 . S
C622 N590 1.423 . S
C622 C623 1.362 . S
C622 C627 1.388 . S
C623 H587 0.929 . S
C623 C622 1.362 . S
C623 C624 1.376 . S
C624 H588 0.931 . S
C624 C623 1.376 . S
C624 C625 1.396 . S
C625 C607 1.472 . S
C625 C624 1.396 . S
C625 C626 1.348 . S
C626 H589 0.929 . S
C626 C625 1.348 . S
C626 C627 1.443 . S
C627 H591 0.932 . S
C627 C622 1.388 . S
C627 C626 1.443 . S
H628 C655 0.929 . S
N629 C654 1.433 . S
N629 C660 1.435 . S
N629 C666 1.423 . S
H630 C656 0.930 . S
H631 C659 0.931 . S
H632 C658 0.929 . S
H633 C661 0.930 . S
H634 C662 0.932 . S
H635 C665 0.929 . S
H636 C664 0.931 . S
H637 C667 0.929 . S
H638 C671 0.932 . S
H639 C668 0.931 . S
H640 C670 0.929 . S
H641 C673 0.929 . S
H642 C674 0.930 . S
H643 C676 0.929 . S
H644 C677 0.931 . S
H645 C679 0.930 . S
H646 C680 0.932 . S
H647 C682 0.931 . S
H648 C683 0.929 . S
H649 C685 0.929 . S
H650 C686 0.931 . S
H651 C688 0.929 . S
N652 C672 1.433 . S
N652 C678 1.435 . S
N652 C684 1.423 . S
H653 C689 0.932 . S
C654 N629 1.433 . S
C654 C655 1.363 . S
C654 C659 1.370 . S
C655 H628 0.929 . S
C655 C654 1.363 . S
C655 C656 1.385 . S
C656 H630 0.930 . S
C656 C655 1.385 . S
C656 C657 1.357 . S
C657 C656 1.357 . S
C657 C658 1.406 . S
C658 H632 0.929 . S
C658 C657 1.406 . S
C658 C659 1.391 . S
C659 H631 0.931 . S
C659 C654 1.370 . S
C659 C658 1.391 . S
C660 N629 1.435 . S
C660 C661 1.358 . S
C660 C665 1.371 . S
C661 H633 0.930 . S
C661 C660 1.358 . S
C661 C662 1.405 . S
C662 H634 0.932 . S
C662 C661 1.405 . S
C662 C663 1.383 . S
C663 C662 1.383 . S
C663 C664 1.393 . S
C664 H636 0.931 . S
C664 C663 1.393 . S
C664 C665 1.382 . S
C665 H635 0.929 . S
C665 C660 1.371 . S
C665 C664 1.382 . S
C666 N629 1.423 . S
C666 C667 1.362 . S
C666 C671 1.388 . S
C667 H637 0.929 . S
C667 C666 1.362 . S
C667 C668 1.376 . S
C668 H639 0.931 . S
C668 C667 1.376 . S
C668 C669 1.396 . S
C669 C668 1.396 . S
C669 C670 1.348 . S
C669 C687 1.472 . S
C670 H640 0.929 . S
C670 C669 1.348 . S
C670 C671 1.443 . S
C671 H638 0.932 . S
C671 C666 1.388 . S
C671 C670 1.443 . S
C672 N652 1.433 . S
C672 C673 1.363 . S
C672 C677 1.370 . S
C673 H641 0.929 . S
C673 C672 1.363 . S
C673 C674 1.385 . S
C674 H642 0.930 . S
C674 C673 1.385 . S
C674 C675 1.357 . S
C675 C674 1.357 . S
C675 C676 1.406 . S
C676 H643 0.929 . S
C676 C675 1.406 . S
C676 C677 1.391 . S
C677 H644 0.931 . S
C677 C672 1.370 . S
C677 C676 1.391 . S
C678 N652 1.435 . S
C678 C679 1.358 . S
C678 C683 1.371 . S
C679 H645 0.930 . S
C679 C678 1.358 . S
C679 C680 1.405 . S
C680 H646 0.932 . S
C680 C679 1.405 . S
C680 C681 1.383 . S
C681 C680 1.383 . S
C681 C682 1.393 . S
C682 H647 0.931 . S
C682 C681 1.393 . S
C682 C683 1.382 . S
C683 H648 0.929 . S
C683 C678 1.371 . S
C683 C682 1.382 . S
C684 N652 1.423 . S
C684 C685 1.362 . S
C684 C689 1.388 . S
C685 H649 0.929 . S
C685 C684 1.362 . S
C685 C686 1.376 . S
C686 H650 0.931 . S
C686 C685 1.376 . S
C686 C687 1.396 . S
C687 C669 1.472 . S
C687 C686 1.396 . S
C687 C688 1.348 . S
C688 H651 0.929 . S
C688 C687 1.348 . S
C688 C689 1.443 . S
C689 H653 0.932 . S
C689 C684 1.388 . S
C689 C688 1.443 . S
C690 C691 1.349 . S
C690 C692 1.327 . S
C690 H715 0.950 . S
C691 C690 1.349 . S
C691 C707 1.349 . S
C692 C690 1.327 . S
C692 C711 1.429 . S
C692 H716 0.950 . S
C693 C710 1.574 . S
C693 C712 1.368 . S
C693 H717 0.949 . S
H694 C698 0.949 . S
C695 C696 1.349 . S
C695 C697 1.327 . S
C695 H718 0.950 . S
C696 C695 1.349 . S
C696 C708 1.349 . S
C697 C695 1.327 . S
C697 C713 1.429 . S
C697 H719 0.950 . S
C698 H694 0.949 . S
C698 C706 1.574 . S
C698 C714 1.368 . S
H699 C707 0.950 . S
H700 C705 0.950 . S
H701 C706 0.949 . S
H702 C708 0.950 . S
H703 C709 0.950 . S
H704 C710 0.949 . S
C705 H700 0.950 . S
C705 C707 1.327 . S
C705 C711 1.429 . S
C706 C698 1.574 . S
C706 H701 0.949 . S
C706 C712 1.368 . S
C707 C691 1.349 . S
C707 H699 0.950 . S
C707 C705 1.327 . S
C708 C696 1.349 . S
C708 H702 0.950 . S
C708 C709 1.327 . S
C709 H703 0.950 . S
C709 C708 1.327 . S
C709 C713 1.429 . S
C710 C693 1.574 . S
C710 H704 0.949 . S
C710 C714 1.368 . S
C711 C692 1.429 . S
C711 C705 1.429 . S
C711 C712 1.523 . S
C712 C693 1.368 . S
C712 C706 1.368 . S
C712 C711 1.523 . S
C713 C697 1.429 . S
C713 C709 1.429 . S
C713 C714 1.523 . S
C714 C698 1.368 . S
C714 C710 1.368 . S
C714 C713 1.523 . S
H715 C690 0.950 . S
H716 C692 0.950 . S
H717 C693 0.949 . S
H718 C695 0.950 . S
H719 C697 0.950 . S
C720 C721 1.349 . S
C720 C722 1.327 . S
C720 H745 0.950 . S
C721 C720 1.349 . S
C721 C737 1.349 . S
C722 C720 1.327 . S
C722 C741 1.429 . S
C722 H746 0.950 . S
C723 C740 1.574 . S
C723 C742 1.368 . S
C723 H747 0.949 . S
H724 C728 0.949 . S
C725 C726 1.349 . S
C725 C727 1.327 . S
C725 H748 0.950 . S
C726 C725 1.349 . S
C726 C738 1.349 . S
C727 C725 1.327 . S
C727 C743 1.429 . S
C727 H749 0.950 . S
C728 H724 0.949 . S
C728 C736 1.574 . S
C728 C744 1.368 . S
H729 C737 0.950 . S
H730 C735 0.950 . S
H731 C736 0.949 . S
H732 C738 0.950 . S
H733 C739 0.950 . S
H734 C740 0.949 . S
C735 H730 0.950 . S
C735 C737 1.327 . S
C735 C741 1.429 . S
C736 C728 1.574 . S
C736 H731 0.949 . S
C736 C742 1.368 . S
C737 C721 1.349 . S
C737 H729 0.950 . S
C737 C735 1.327 . S
C738 C726 1.349 . S
C738 H732 0.950 . S
C738 C739 1.327 . S
C739 H733 0.950 . S
C739 C738 1.327 . S
C739 C743 1.429 . S
C740 C723 1.574 . S
C740 H734 0.949 . S
C740 C744 1.368 . S
C741 C722 1.429 . S
C741 C735 1.429 . S
C741 C742 1.523 . S
C742 C723 1.368 . S
C742 C736 1.368 . S
C742 C741 1.523 . S
C743 C727 1.429 . S
C743 C739 1.429 . S
C743 C744 1.523 . S
C744 C728 1.368 . S
C744 C740 1.368 . S
C744 C743 1.523 . S
H745 C720 0.950 . S
H746 C722 0.950 . S
H747 C723 0.949 . S
H748 C725 0.950 . S
H749 C727 0.950 . S
C750 C751 1.349 . S
C750 C752 1.327 . S
C750 H775 0.950 . S
C751 C750 1.349 . S
C751 C767 1.349 . S
C752 C750 1.327 . S
C752 C771 1.429 . S
C752 H776 0.950 . S
C753 C770 1.574 . S
C753 C772 1.368 . S
C753 H777 0.949 . S
H754 C758 0.949 . S
C755 C756 1.349 . S
C755 C757 1.327 . S
C755 H778 0.950 . S
C756 C755 1.349 . S
C756 C768 1.349 . S
C757 C755 1.327 . S
C757 C773 1.429 . S
C757 H779 0.950 . S
C758 H754 0.949 . S
C758 C766 1.574 . S
C758 C774 1.368 . S
H759 C767 0.950 . S
H760 C765 0.950 . S
H761 C766 0.949 . S
H762 C768 0.950 . S
H763 C769 0.950 . S
H764 C770 0.949 . S
C765 H760 0.950 . S
C765 C767 1.327 . S
C765 C771 1.429 . S
C766 C758 1.574 . S
C766 H761 0.949 . S
C766 C772 1.368 . S
C767 C751 1.349 . S
C767 H759 0.950 . S
C767 C765 1.327 . S
C768 C756 1.349 . S
C768 H762 0.950 . S
C768 C769 1.327 . S
C769 H763 0.950 . S
C769 C768 1.327 . S
C769 C773 1.429 . S
C770 C753 1.574 . S
C770 H764 0.949 . S
C770 C774 1.368 . S
C771 C752 1.429 . S
C771 C765 1.429 . S
C771 C772 1.523 . S
C772 C753 1.368 . S
C772 C766 1.368 . S
C772 C771 1.523 . S
C773 C757 1.429 . S
C773 C769 1.429 . S
C773 C774 1.523 . S
C774 C758 1.368 . S
C774 C770 1.368 . S
C774 C773 1.523 . S
H775 C750 0.950 . S
H776 C752 0.950 . S
H777 C753 0.949 . S
H778 C755 0.950 . S
H779 C757 0.950 . S
C780 C781 1.349 . S
C780 C782 1.327 . S
C780 H805 0.950 1_655 S
C781 C780 1.349 . S
C781 C797 1.349 . S
C782 C780 1.327 . S
C782 C801 1.429 . S
C782 H806 0.950 . S
C783 C800 1.574 . S
C783 C802 1.368 . S
C783 H807 0.949 . S
H784 C788 0.949 . S
C785 C786 1.349 . S
C785 C787 1.327 . S
C785 H808 0.950 . S
C786 C785 1.349 . S
C786 C798 1.349 . S
C787 C785 1.327 . S
C787 C803 1.429 . S
C787 H809 0.950 . S
C788 H784 0.949 . S
C788 C796 1.574 . S
C788 C804 1.368 . S
H789 C797 0.950 . S
H790 C795 0.950 . S
H791 C796 0.949 . S
H792 C798 0.950 . S
H793 C799 0.950 . S
H794 C800 0.949 . S
C795 H790 0.950 . S
C795 C797 1.327 . S
C795 C801 1.429 . S
C796 C788 1.574 . S
C796 H791 0.949 . S
C796 C802 1.368 . S
C797 C781 1.349 . S
C797 H789 0.950 . S
C797 C795 1.327 . S
C798 C786 1.349 . S
C798 H792 0.950 . S
C798 C799 1.327 . S
C799 H793 0.950 . S
C799 C798 1.327 . S
C799 C803 1.429 . S
C800 C783 1.574 . S
C800 H794 0.949 . S
C800 C804 1.368 . S
C801 C782 1.429 . S
C801 C795 1.429 . S
C801 C802 1.523 . S
C802 C783 1.368 . S
C802 C796 1.368 . S
C802 C801 1.523 . S
C803 C787 1.429 . S
C803 C799 1.429 . S
C803 C804 1.523 . S
C804 C788 1.368 . S
C804 C800 1.368 . S
C804 C803 1.523 . S
H805 C780 0.950 1_455 S
H806 C782 0.950 . S
H807 C783 0.949 . S
H808 C785 0.950 . S
H809 C787 0.950 . S
C810 C811 1.349 . S
C810 C812 1.327 . S
C810 H835 0.950 . S
C811 C810 1.349 . S
C811 C827 1.349 . S
C812 C810 1.327 . S
C812 C831 1.429 . S
C812 H836 0.950 . S
C813 C830 1.574 . S
C813 C832 1.368 . S
C813 H837 0.949 . S
H814 C818 0.949 . S
C815 C816 1.349 . S
C815 C817 1.327 . S
C815 H838 0.950 . S
C816 C815 1.349 . S
C816 C828 1.349 . S
C817 C815 1.327 . S
C817 C833 1.429 . S
C817 H839 0.950 . S
C818 H814 0.949 . S
C818 C826 1.574 . S
C818 C834 1.368 . S
H819 C827 0.950 . S
H820 C825 0.950 . S
H821 C826 0.949 . S
H822 C828 0.950 . S
H823 C829 0.950 . S
H824 C830 0.949 . S
C825 H820 0.950 . S
C825 C827 1.327 . S
C825 C831 1.429 . S
C826 C818 1.574 . S
C826 H821 0.949 . S
C826 C832 1.368 . S
C827 C811 1.349 . S
C827 H819 0.950 . S
C827 C825 1.327 . S
C828 C816 1.349 . S
C828 H822 0.950 . S
C828 C829 1.327 . S
C829 H823 0.950 . S
C829 C828 1.327 . S
C829 C833 1.429 . S
C830 C813 1.574 . S
C830 H824 0.949 . S
C830 C834 1.368 . S
C831 C812 1.429 . S
C831 C825 1.429 . S
C831 C832 1.523 . S
C832 C813 1.368 . S
C832 C826 1.368 . S
C832 C831 1.523 . S
C833 C817 1.429 . S
C833 C829 1.429 . S
C833 C834 1.523 . S
C834 C818 1.368 . S
C834 C830 1.368 . S
C834 C833 1.523 . S
H835 C810 0.950 . S
H836 C812 0.950 . S
H837 C813 0.949 . S
H838 C815 0.950 . S
H839 C817 0.950 . S
C840 C841 1.349 . S
C840 C842 1.327 . S
C840 H865 0.950 . S
C841 C840 1.349 . S
C841 C857 1.349 . S
C842 C840 1.327 . S
C842 C861 1.429 . S
C842 H866 0.950 . S
C843 C860 1.574 . S
C843 C862 1.368 . S
C843 H867 0.949 . S
H844 C848 0.949 . S
C845 C846 1.349 . S
C845 C847 1.327 . S
C845 H868 0.950 . S
C846 C845 1.349 . S
C846 C858 1.349 . S
C847 C845 1.327 . S
C847 C863 1.429 . S
C847 H869 0.950 . S
C848 H844 0.949 . S
C848 C856 1.574 . S
C848 C864 1.368 . S
H849 C857 0.950 . S
H850 C855 0.950 . S
H851 C856 0.949 . S
H852 C858 0.950 . S
H853 C859 0.950 . S
H854 C860 0.949 . S
C855 H850 0.950 . S
C855 C857 1.327 . S
C855 C861 1.429 . S
C856 C848 1.574 . S
C856 H851 0.949 . S
C856 C862 1.368 . S
C857 C841 1.349 . S
C857 H849 0.950 . S
C857 C855 1.327 . S
C858 C846 1.349 . S
C858 H852 0.950 . S
C858 C859 1.327 . S
C859 H853 0.950 . S
C859 C858 1.327 . S
C859 C863 1.429 . S
C860 C843 1.574 . S
C860 H854 0.949 . S
C860 C864 1.368 . S
C861 C842 1.429 . S
C861 C855 1.429 . S
C861 C862 1.523 . S
C862 C843 1.368 . S
C862 C856 1.368 . S
C862 C861 1.523 . S
C863 C847 1.429 . S
C863 C859 1.429 . S
C863 C864 1.523 . S
C864 C848 1.368 . S
C864 C860 1.368 . S
C864 C863 1.523 . S
H865 C840 0.950 . S
H866 C842 0.950 . S
H867 C843 0.949 . S
H868 C845 0.950 . S
H869 C847 0.950 . S
C870 C871 1.349 . S
C870 C872 1.327 . S
C870 H895 0.950 . S
C871 C870 1.349 . S
C871 C887 1.349 . S
C872 C870 1.327 . S
C872 C891 1.429 . S
C872 H896 0.950 . S
C873 C890 1.574 . S
C873 C892 1.368 . S
C873 H897 0.949 . S
H874 C878 0.949 . S
C875 C876 1.349 . S
C875 C877 1.327 . S
C875 H898 0.950 . S
C876 C875 1.349 . S
C876 C888 1.349 . S
C877 C875 1.327 . S
C877 C893 1.429 . S
C877 H899 0.950 . S
C878 H874 0.949 . S
C878 C886 1.574 . S
C878 C894 1.368 . S
H879 C887 0.950 . S
H880 C885 0.950 . S
H881 C886 0.949 . S
H882 C888 0.950 . S
H883 C889 0.950 . S
H884 C890 0.949 . S
C885 H880 0.950 . S
C885 C887 1.327 . S
C885 C891 1.429 . S
C886 C878 1.574 . S
C886 H881 0.949 . S
C886 C892 1.368 . S
C887 C871 1.349 . S
C887 H879 0.950 . S
C887 C885 1.327 . S
C888 C876 1.349 . S
C888 H882 0.950 . S
C888 C889 1.327 . S
C889 H883 0.950 . S
C889 C888 1.327 . S
C889 C893 1.429 . S
C890 C873 1.574 . S
C890 H884 0.949 . S
C890 C894 1.368 . S
C891 C872 1.429 . S
C891 C885 1.429 . S
C891 C892 1.523 . S
C892 C873 1.368 . S
C892 C886 1.368 . S
C892 C891 1.523 . S
C893 C877 1.429 . S
C893 C889 1.429 . S
C893 C894 1.523 . S
C894 C878 1.368 . S
C894 C890 1.368 . S
C894 C893 1.523 . S
H895 C870 0.950 . S
H896 C872 0.950 . S
H897 C873 0.949 . S
H898 C875 0.950 . S
H899 C877 0.950 . S
C900 C901 1.349 . S
C900 C902 1.327 . S
C900 H925 0.950 . S
C901 C900 1.349 . S
C901 C917 1.349 . S
C902 C900 1.327 . S
C902 C921 1.429 . S
C902 H926 0.950 . S
C903 C920 1.574 . S
C903 C922 1.368 . S
C903 H927 0.949 . S
H904 C908 0.949 . S
C905 C906 1.349 . S
C905 C907 1.327 . S
C905 H928 0.950 . S
C906 C905 1.349 . S
C906 C918 1.349 . S
C907 C905 1.327 . S
C907 C923 1.429 . S
C907 H929 0.950 . S
C908 H904 0.949 . S
C908 C916 1.574 . S
C908 C924 1.368 . S
H909 C917 0.950 . S
H910 C915 0.950 . S
H911 C916 0.949 . S
H912 C918 0.950 . S
H913 C919 0.950 . S
H914 C920 0.949 . S
C915 H910 0.950 . S
C915 C917 1.327 . S
C915 C921 1.429 . S
C916 C908 1.574 . S
C916 H911 0.949 . S
C916 C922 1.368 . S
C917 C901 1.349 . S
C917 H909 0.950 . S
C917 C915 1.327 . S
C918 C906 1.349 . S
C918 H912 0.950 . S
C918 C919 1.327 . S
C919 H913 0.950 . S
C919 C918 1.327 . S
C919 C923 1.429 . S
C920 C903 1.574 . S
C920 H914 0.949 . S
C920 C924 1.368 . S
C921 C902 1.429 . S
C921 C915 1.429 . S
C921 C922 1.523 . S
C922 C903 1.368 . S
C922 C916 1.368 . S
C922 C921 1.523 . S
C923 C907 1.429 . S
C923 C919 1.429 . S
C923 C924 1.523 . S
C924 C908 1.368 . S
C924 C920 1.368 . S
C924 C923 1.523 . S
H925 C900 0.950 . S
H926 C902 0.950 . S
H927 C903 0.949 . S
H928 C905 0.950 . S
H929 C907 0.950 . S
C930 C931 1.349 . S
C930 C932 1.327 . S
C930 H955 0.950 . S
C931 C930 1.349 . S
C931 C947 1.349 . S
C932 C930 1.327 . S
C932 C951 1.429 . S
C932 H956 0.950 . S
C933 C950 1.574 . S
C933 C952 1.368 . S
C933 H957 0.949 . S
H934 C938 0.949 . S
C935 C936 1.349 . S
C935 C937 1.327 . S
C935 H958 0.950 . S
C936 C935 1.349 . S
C936 C948 1.349 . S
C937 C935 1.327 . S
C937 C953 1.429 . S
C937 H959 0.950 . S
C938 H934 0.949 . S
C938 C946 1.574 . S
C938 C954 1.368 . S
H939 C947 0.950 . S
H940 C945 0.950 . S
H941 C946 0.949 . S
H942 C948 0.950 . S
H943 C949 0.950 . S
H944 C950 0.949 . S
C945 H940 0.950 . S
C945 C947 1.327 . S
C945 C951 1.429 . S
C946 C938 1.574 . S
C946 H941 0.949 . S
C946 C952 1.368 . S
C947 C931 1.349 . S
C947 H939 0.950 . S
C947 C945 1.327 . S
C948 C936 1.349 . S
C948 H942 0.950 . S
C948 C949 1.327 . S
C949 H943 0.950 . S
C949 C948 1.327 . S
C949 C953 1.429 . S
C950 C933 1.574 . S
C950 H944 0.949 . S
C950 C954 1.368 . S
C951 C932 1.429 . S
C951 C945 1.429 . S
C951 C952 1.523 . S
C952 C933 1.368 . S
C952 C946 1.368 . S
C952 C951 1.523 . S
C953 C937 1.429 . S
C953 C949 1.429 . S
C953 C954 1.523 . S
C954 C938 1.368 . S
C954 C950 1.368 . S
C954 C953 1.523 . S
H955 C930 0.950 . S
H956 C932 0.950 . S
H957 C933 0.949 . S
H958 C935 0.950 . S
H959 C937 0.950 . S
C960 C961 1.349 . S
C960 C962 1.327 . S
C960 H985 0.950 . S
C961 C960 1.349 . S
C961 C977 1.349 . S
C962 C960 1.327 . S
C962 C981 1.429 . S
C962 H986 0.950 . S
C963 C980 1.574 . S
C963 C982 1.368 . S
C963 H987 0.949 . S
H964 C968 0.949 . S
C965 C966 1.349 . S
C965 C967 1.327 . S
C965 H988 0.950 . S
C966 C965 1.349 . S
C966 C978 1.349 . S
C967 C965 1.327 . S
C967 C983 1.429 . S
C967 H989 0.950 . S
C968 H964 0.949 . S
C968 C976 1.574 . S
C968 C984 1.368 . S
H969 C977 0.950 . S
H970 C975 0.950 . S
H971 C976 0.949 . S
H972 C978 0.950 . S
H973 C979 0.950 . S
H974 C980 0.949 . S
C975 H970 0.950 . S
C975 C977 1.327 . S
C975 C981 1.429 . S
C976 C968 1.574 . S
C976 H971 0.949 . S
C976 C982 1.368 . S
C977 C961 1.349 . S
C977 H969 0.950 . S
C977 C975 1.327 . S
C978 C966 1.349 . S
C978 H972 0.950 . S
C978 C979 1.327 . S
C979 H973 0.950 . S
C979 C978 1.327 . S
C979 C983 1.429 . S
C980 C963 1.574 . S
C980 H974 0.949 . S
C980 C984 1.368 . S
C981 C962 1.429 . S
C981 C975 1.429 . S
C981 C982 1.523 . S
C982 C963 1.368 . S
C982 C976 1.368 . S
C982 C981 1.523 . S
C983 C967 1.429 . S
C983 C979 1.429 . S
C983 C984 1.523 . S
C984 C968 1.368 . S
C984 C980 1.368 . S
C984 C983 1.523 . S
H985 C960 0.950 . S
H986 C962 0.950 . S
H987 C963 0.949 . S
H988 C965 0.950 . S
H989 C967 0.950 . S
C990 C991 1.349 . S
C990 C992 1.327 . S
C990 H1015 0.950 . S
C991 C990 1.349 . S
C991 C1007 1.349 . S
C992 C990 1.327 . S
C992 C1011 1.429 . S
C992 H1016 0.950 . S
C993 C1010 1.574 . S
C993 C1012 1.368 . S
C993 H1017 0.949 . S
H994 C998 0.949 . S
C995 C996 1.349 . S
C995 C997 1.327 . S
C995 H1018 0.950 . S
C996 C995 1.349 . S
C996 C1008 1.349 . S
C997 C995 1.327 . S
C997 C1013 1.429 . S
C997 H1019 0.950 . S
C998 H994 0.949 . S
C998 C1006 1.574 . S
C998 C1014 1.368 . S
H999 C1007 0.950 . S
H1000 C1005 0.950 . S
H1001 C1006 0.949 . S
H1002 C1008 0.950 . S
H1003 C1009 0.950 . S
H1004 C1010 0.949 . S
C1005 H1000 0.950 . S
C1005 C1007 1.327 . S
C1005 C1011 1.429 . S
C1006 C998 1.574 . S
C1006 H1001 0.949 . S
C1006 C1012 1.368 . S
C1007 C991 1.349 . S
C1007 H999 0.950 . S
C1007 C1005 1.327 . S
C1008 C996 1.349 . S
C1008 H1002 0.950 . S
C1008 C1009 1.327 . S
C1009 H1003 0.950 . S
C1009 C1008 1.327 . S
C1009 C1013 1.429 . S
C1010 C993 1.574 . S
C1010 H1004 0.949 . S
C1010 C1014 1.368 . S
C1011 C992 1.429 . S
C1011 C1005 1.429 . S
C1011 C1012 1.523 . S
C1012 C993 1.368 . S
C1012 C1006 1.368 . S
C1012 C1011 1.523 . S
C1013 C997 1.429 . S
C1013 C1009 1.429 . S
C1013 C1014 1.523 . S
C1014 C998 1.368 . S
C1014 C1010 1.368 . S
C1014 C1013 1.523 . S
H1015 C990 0.950 . S
H1016 C992 0.950 . S
H1017 C993 0.949 . S
H1018 C995 0.950 . S
H1019 C997 0.950 . S
C1020 C1021 1.349 . S
C1020 C1022 1.327 . S
C1020 H1045 0.950 1_556 S
C1021 C1020 1.349 . S
C1021 C1037 1.349 . S
C1022 C1020 1.327 . S
C1022 C1041 1.429 . S
C1022 H1046 0.950 . S
C1023 C1040 1.574 . S
C1023 C1042 1.368 . S
C1023 H1047 0.949 . S
H1024 C1028 0.949 . S
C1025 C1026 1.349 . S
C1025 C1027 1.327 . S
C1025 H1048 0.950 . S
C1026 C1025 1.349 . S
C1026 C1038 1.349 . S
C1027 C1025 1.327 . S
C1027 C1043 1.429 . S
C1027 H1049 0.950 . S
C1028 H1024 0.949 . S
C1028 C1036 1.574 . S
C1028 C1044 1.368 . S
H1029 C1037 0.950 . S
H1030 C1035 0.950 . S
H1031 C1036 0.949 . S
H1032 C1038 0.950 . S
H1033 C1039 0.950 . S
H1034 C1040 0.949 . S
C1035 H1030 0.950 . S
C1035 C1037 1.327 . S
C1035 C1041 1.429 . S
C1036 C1028 1.574 . S
C1036 H1031 0.949 . S
C1036 C1042 1.368 . S
C1037 C1021 1.349 . S
C1037 H1029 0.950 . S
C1037 C1035 1.327 . S
C1038 C1026 1.349 . S
C1038 H1032 0.950 . S
C1038 C1039 1.327 . S
C1039 H1033 0.950 . S
C1039 C1038 1.327 . S
C1039 C1043 1.429 . S
C1040 C1023 1.574 . S
C1040 H1034 0.949 . S
C1040 C1044 1.368 . S
C1041 C1022 1.429 . S
C1041 C1035 1.429 . S
C1041 C1042 1.523 . S
C1042 C1023 1.368 . S
C1042 C1036 1.368 . S
C1042 C1041 1.523 . S
C1043 C1027 1.429 . S
C1043 C1039 1.429 . S
C1043 C1044 1.523 . S
C1044 C1028 1.368 . S
C1044 C1040 1.368 . S
C1044 C1043 1.523 . S
H1045 C1020 0.950 1_554 S
H1046 C1022 0.950 . S
H1047 C1023 0.949 . S
H1048 C1025 0.950 . S
H1049 C1027 0.950 . S
C1050 C1051 1.342 1_556 S
C1050 C1052 1.327 . S
C1050 H1075 0.950 1_556 S
C1051 C1050 1.342 1_554 S
C1051 C1067 1.335 1_554 S
C1052 C1050 1.327 . S
C1052 C1071 1.429 . S
C1052 H1076 0.950 . S
C1053 C1070 1.574 . S
C1053 C1072 1.368 . S
C1053 H1077 0.949 . S
H1054 C1058 0.949 . S
C1055 C1056 1.349 . S
C1055 C1057 1.327 . S
C1055 H1078 0.950 . S
C1056 C1055 1.349 . S
C1056 C1068 1.349 . S
C1057 C1055 1.327 . S
C1057 C1073 1.429 . S
C1057 H1079 0.950 . S
C1058 H1054 0.949 . S
C1058 C1066 1.574 . S
C1058 C1074 1.368 . S
H1059 C1067 0.950 . S
H1060 C1065 0.950 . S
H1061 C1066 0.949 . S
H1062 C1068 0.950 . S
H1063 C1069 0.950 . S
H1064 C1070 0.949 . S
C1065 H1060 0.950 . S
C1065 C1067 1.327 . S
C1065 C1071 1.429 . S
C1066 C1058 1.574 . S
C1066 H1061 0.949 . S
C1066 C1072 1.368 . S
C1067 C1051 1.335 1_556 S
C1067 H1059 0.950 . S
C1067 C1065 1.327 . S
C1068 C1056 1.349 . S
C1068 H1062 0.950 . S
C1068 C1069 1.327 . S
C1069 H1063 0.950 . S
C1069 C1068 1.327 . S
C1069 C1073 1.429 . S
C1070 C1053 1.574 . S
C1070 H1064 0.949 . S
C1070 C1074 1.368 . S
C1071 C1052 1.429 . S
C1071 C1065 1.429 . S
C1071 C1072 1.523 . S
C1072 C1053 1.368 . S
C1072 C1066 1.368 . S
C1072 C1071 1.523 . S
C1073 C1057 1.429 . S
C1073 C1069 1.429 . S
C1073 C1074 1.523 . S
C1074 C1058 1.368 . S
C1074 C1070 1.368 . S
C1074 C1073 1.523 . S
H1075 C1050 0.950 1_554 S
H1076 C1052 0.950 . S
H1077 C1053 0.949 . S
H1078 C1055 0.950 . S
H1079 C1057 0.950 . S
C1080 C1081 1.349 . S
C1080 C1082 1.327 . S
C1080 H1105 0.950 . S
C1081 C1080 1.349 . S
C1081 C1097 1.349 . S
C1082 C1080 1.327 . S
C1082 C1101 1.429 . S
C1082 H1106 0.950 . S
C1083 C1100 1.574 . S
C1083 C1102 1.368 . S
C1083 H1107 0.949 . S
H1084 C1088 0.949 . S
C1085 C1086 1.349 . S
C1085 C1087 1.327 . S
C1085 H1108 0.950 . S
C1086 C1085 1.349 . S
C1086 C1098 1.349 . S
C1087 C1085 1.327 . S
C1087 C1103 1.429 . S
C1087 H1109 0.950 . S
C1088 H1084 0.949 . S
C1088 C1096 1.574 . S
C1088 C1104 1.368 . S
H1089 C1097 0.950 . S
H1090 C1095 0.950 . S
H1091 C1096 0.949 . S
H1092 C1098 0.950 . S
H1093 C1099 0.950 . S
H1094 C1100 0.949 . S
C1095 H1090 0.950 . S
C1095 C1097 1.327 . S
C1095 C1101 1.429 . S
C1096 C1088 1.574 . S
C1096 H1091 0.949 . S
C1096 C1102 1.368 . S
C1097 C1081 1.349 . S
C1097 H1089 0.950 . S
C1097 C1095 1.327 . S
C1098 C1086 1.349 . S
C1098 H1092 0.950 . S
C1098 C1099 1.327 . S
C1099 H1093 0.950 . S
C1099 C1098 1.327 . S
C1099 C1103 1.429 . S
C1100 C1083 1.574 . S
C1100 H1094 0.949 . S
C1100 C1104 1.368 . S
C1101 C1082 1.429 . S
C1101 C1095 1.429 . S
C1101 C1102 1.523 . S
C1102 C1083 1.368 . S
C1102 C1096 1.368 . S
C1102 C1101 1.523 . S
C1103 C1087 1.429 . S
C1103 C1099 1.429 . S
C1103 C1104 1.523 . S
C1104 C1088 1.368 . S
C1104 C1100 1.368 . S
C1104 C1103 1.523 . S
H1105 C1080 0.950 . S
H1106 C1082 0.950 . S
H1107 C1083 0.949 . S
H1108 C1085 0.950 . S
H1109 C1087 0.950 . S
C1110 C1111 1.349 . S
C1110 C1112 1.327 . S
C1110 H1135 0.950 . S
C1111 C1110 1.349 . S
C1111 C1127 1.349 . S
C1112 C1110 1.327 . S
C1112 C1131 1.429 . S
C1112 H1136 0.950 . S
C1113 C1130 1.574 . S
C1113 C1132 1.368 . S
C1113 H1137 0.949 . S
H1114 C1118 0.949 . S
C1115 C1116 1.349 . S
C1115 C1117 1.327 . S
C1115 H1138 0.950 . S
C1116 C1115 1.349 . S
C1116 C1128 1.349 . S
C1117 C1115 1.327 . S
C1117 C1133 1.429 . S
C1117 H1139 0.950 . S
C1118 H1114 0.949 . S
C1118 C1126 1.574 . S
C1118 C1134 1.368 . S
H1119 C1127 0.950 . S
H1120 C1125 0.950 . S
H1121 C1126 0.949 . S
H1122 C1128 0.950 . S
H1123 C1129 0.950 . S
H1124 C1130 0.949 . S
C1125 H1120 0.950 . S
C1125 C1127 1.327 . S
C1125 C1131 1.429 . S
C1126 C1118 1.574 . S
C1126 H1121 0.949 . S
C1126 C1132 1.368 . S
C1127 C1111 1.349 . S
C1127 H1119 0.950 . S
C1127 C1125 1.327 . S
C1128 C1116 1.349 . S
C1128 H1122 0.950 . S
C1128 C1129 1.327 . S
C1129 H1123 0.950 . S
C1129 C1128 1.327 . S
C1129 C1133 1.429 . S
C1130 C1113 1.574 . S
C1130 H1124 0.949 . S
C1130 C1134 1.368 . S
C1131 C1112 1.429 . S
C1131 C1125 1.429 . S
C1131 C1132 1.523 . S
C1132 C1113 1.368 . S
C1132 C1126 1.368 . S
C1132 C1131 1.523 . S
C1133 C1117 1.429 . S
C1133 C1129 1.429 . S
C1133 C1134 1.523 . S
C1134 C1118 1.368 . S
C1134 C1130 1.368 . S
C1134 C1133 1.523 . S
H1135 C1110 0.950 . S
H1136 C1112 0.950 . S
H1137 C1113 0.949 . S
H1138 C1115 0.950 . S
H1139 C1117 0.950 . S
C1140 C1141 1.349 . S
C1140 C1142 1.327 . S
C1140 H1165 0.950 . S
C1141 C1140 1.349 . S
C1141 C1157 1.349 . S
C1142 C1140 1.327 . S
C1142 C1161 1.429 . S
C1142 H1166 0.950 . S
C1143 C1160 1.574 . S
C1143 C1162 1.368 . S
C1143 H1167 0.949 . S
H1144 C1148 0.949 . S
C1145 C1146 1.349 . S
C1145 C1147 1.327 . S
C1145 H1168 0.950 . S
C1146 C1145 1.349 . S
C1146 C1158 1.349 . S
C1147 C1145 1.327 . S
C1147 C1163 1.429 . S
C1147 H1169 0.950 . S
C1148 H1144 0.949 . S
C1148 C1156 1.574 . S
C1148 C1164 1.368 . S
H1149 C1157 0.950 . S
H1150 C1155 0.950 . S
H1151 C1156 0.949 . S
H1152 C1158 0.950 . S
H1153 C1159 0.950 . S
H1154 C1160 0.949 . S
C1155 H1150 0.950 . S
C1155 C1157 1.327 . S
C1155 C1161 1.429 . S
C1156 C1148 1.574 . S
C1156 H1151 0.949 . S
C1156 C1162 1.368 . S
C1157 C1141 1.349 . S
C1157 H1149 0.950 . S
C1157 C1155 1.327 . S
C1158 C1146 1.349 . S
C1158 H1152 0.950 . S
C1158 C1159 1.327 . S
C1159 H1153 0.950 . S
C1159 C1158 1.327 . S
C1159 C1163 1.429 . S
C1160 C1143 1.574 . S
C1160 H1154 0.949 . S
C1160 C1164 1.368 . S
C1161 C1142 1.429 . S
C1161 C1155 1.429 . S
C1161 C1162 1.523 . S
C1162 C1143 1.368 . S
C1162 C1156 1.368 . S
C1162 C1161 1.523 . S
C1163 C1147 1.429 . S
C1163 C1159 1.429 . S
C1163 C1164 1.523 . S
C1164 C1148 1.368 . S
C1164 C1160 1.368 . S
C1164 C1163 1.523 . S
H1165 C1140 0.950 . S
H1166 C1142 0.950 . S
H1167 C1143 0.949 . S
H1168 C1145 0.950 . S
H1169 C1147 0.950 . S
C1170 C1171 1.349 . S
C1170 C1172 1.327 . S
C1170 H1195 0.950 . S
C1171 C1170 1.349 . S
C1171 C1187 1.349 . S
C1172 C1170 1.327 . S
C1172 C1191 1.429 . S
C1172 H1196 0.950 . S
C1173 C1190 1.574 . S
C1173 C1192 1.368 . S
C1173 H1197 0.949 . S
H1174 C1178 0.949 . S
C1175 C1176 1.349 . S
C1175 C1177 1.327 . S
C1175 H1198 0.950 . S
C1176 C1175 1.349 . S
C1176 C1188 1.349 . S
C1177 C1175 1.327 . S
C1177 C1193 1.429 . S
C1177 H1199 0.950 . S
C1178 H1174 0.949 . S
C1178 C1186 1.574 . S
C1178 C1194 1.368 . S
H1179 C1187 0.950 . S
H1180 C1185 0.950 . S
H1181 C1186 0.949 . S
H1182 C1188 0.950 . S
H1183 C1189 0.950 . S
H1184 C1190 0.949 . S
C1185 H1180 0.950 . S
C1185 C1187 1.327 . S
C1185 C1191 1.429 . S
C1186 C1178 1.574 . S
C1186 H1181 0.949 . S
C1186 C1192 1.368 . S
C1187 C1171 1.349 . S
C1187 H1179 0.950 . S
C1187 C1185 1.327 . S
C1188 C1176 1.349 . S
C1188 H1182 0.950 . S
C1188 C1189 1.327 . S
C1189 H1183 0.950 . S
C1189 C1188 1.327 . S
C1189 C1193 1.429 . S
C1190 C1173 1.574 . S
C1190 H1184 0.949 . S
C1190 C1194 1.368 . S
C1191 C1172 1.429 . S
C1191 C1185 1.429 . S
C1191 C1192 1.523 . S
C1192 C1173 1.368 . S
C1192 C1186 1.368 . S
C1192 C1191 1.523 . S
C1193 C1177 1.429 . S
C1193 C1189 1.429 . S
C1193 C1194 1.523 . S
C1194 C1178 1.368 . S
C1194 C1190 1.368 . S
C1194 C1193 1.523 . S
H1195 C1170 0.950 . S
H1196 C1172 0.950 . S
H1197 C1173 0.949 . S
H1198 C1175 0.950 . S
H1199 C1177 0.950 . S
C1200 C1201 1.349 . S
C1200 C1202 1.327 . S
C1200 H1225 0.950 . S
C1201 C1200 1.349 . S
C1201 C1217 1.349 . S
C1202 C1200 1.327 . S
C1202 C1221 1.429 . S
C1202 H1226 0.950 . S
C1203 C1220 1.574 . S
C1203 C1222 1.368 . S
C1203 H1227 0.949 . S
H1204 C1208 0.949 . S
C1205 C1206 1.349 . S
C1205 C1207 1.327 . S
C1205 H1228 0.950 . S
C1206 C1205 1.349 . S
C1206 C1218 1.349 . S
C1207 C1205 1.327 . S
C1207 C1223 1.429 . S
C1207 H1229 0.950 . S
C1208 H1204 0.949 . S
C1208 C1216 1.574 . S
C1208 C1224 1.368 . S
H1209 C1217 0.950 . S
H1210 C1215 0.950 . S
H1211 C1216 0.949 . S
H1212 C1218 0.950 . S
H1213 C1219 0.950 . S
H1214 C1220 0.949 . S
C1215 H1210 0.950 . S
C1215 C1217 1.327 . S
C1215 C1221 1.429 . S
C1216 C1208 1.574 . S
C1216 H1211 0.949 . S
C1216 C1222 1.368 . S
C1217 C1201 1.349 . S
C1217 H1209 0.950 . S
C1217 C1215 1.327 . S
C1218 C1206 1.349 . S
C1218 H1212 0.950 . S
C1218 C1219 1.327 . S
C1219 H1213 0.950 . S
C1219 C1218 1.327 . S
C1219 C1223 1.429 . S
C1220 C1203 1.574 . S
C1220 H1214 0.949 . S
C1220 C1224 1.368 . S
C1221 C1202 1.429 . S
C1221 C1215 1.429 . S
C1221 C1222 1.523 . S
C1222 C1203 1.368 . S
C1222 C1216 1.368 . S
C1222 C1221 1.523 . S
C1223 C1207 1.429 . S
C1223 C1219 1.429 . S
C1223 C1224 1.523 . S
C1224 C1208 1.368 . S
C1224 C1220 1.368 . S
C1224 C1223 1.523 . S
H1225 C1200 0.950 . S
H1226 C1202 0.950 . S
H1227 C1203 0.949 . S
H1228 C1205 0.950 . S
H1229 C1207 0.950 . S
C1230 C1231 1.349 . S
C1230 C1232 1.327 . S
C1230 H1255 0.950 . S
C1231 C1230 1.349 . S
C1231 C1247 1.349 . S
C1232 C1230 1.327 . S
C1232 C1251 1.429 . S
C1232 H1256 0.950 . S
C1233 C1250 1.574 . S
C1233 C1252 1.368 . S
C1233 H1257 0.949 . S
H1234 C1238 0.949 . S
C1235 C1236 1.349 . S
C1235 C1237 1.327 . S
C1235 H1258 0.950 . S
C1236 C1235 1.349 . S
C1236 C1248 1.349 . S
C1237 C1235 1.327 . S
C1237 C1253 1.429 . S
C1237 H1259 0.950 . S
C1238 H1234 0.949 . S
C1238 C1246 1.574 . S
C1238 C1254 1.368 . S
H1239 C1247 0.950 . S
H1240 C1245 0.950 . S
H1241 C1246 0.949 . S
H1242 C1248 0.950 . S
H1243 C1249 0.950 . S
H1244 C1250 0.949 . S
C1245 H1240 0.950 . S
C1245 C1247 1.327 . S
C1245 C1251 1.429 . S
C1246 C1238 1.574 . S
C1246 H1241 0.949 . S
C1246 C1252 1.368 . S
C1247 C1231 1.349 . S
C1247 H1239 0.950 . S
C1247 C1245 1.327 . S
C1248 C1236 1.349 . S
C1248 H1242 0.950 . S
C1248 C1249 1.327 . S
C1249 H1243 0.950 . S
C1249 C1248 1.327 . S
C1249 C1253 1.429 . S
C1250 C1233 1.574 . S
C1250 H1244 0.949 . S
C1250 C1254 1.368 . S
C1251 C1232 1.429 . S
C1251 C1245 1.429 . S
C1251 C1252 1.523 . S
C1252 C1233 1.368 . S
C1252 C1246 1.368 . S
C1252 C1251 1.523 . S
C1253 C1237 1.429 . S
C1253 C1249 1.429 . S
C1253 C1254 1.523 . S
C1254 C1238 1.368 . S
C1254 C1250 1.368 . S
C1254 C1253 1.523 . S
H1255 C1230 0.950 . S
H1256 C1232 0.950 . S
H1257 C1233 0.949 . S
H1258 C1235 0.950 . S
H1259 C1237 0.950 . S
C1260 C1261 1.349 . S
C1260 C1262 1.327 . S
C1260 H1285 0.950 . S
C1261 C1260 1.349 . S
C1261 C1277 1.349 . S
C1262 C1260 1.327 . S
C1262 C1281 1.429 . S
C1262 H1286 0.950 . S
C1263 C1280 1.574 . S
C1263 C1282 1.368 . S
C1263 H1287 0.949 . S
H1264 C1268 0.949 . S
C1265 C1266 1.349 . S
C1265 C1267 1.327 . S
C1265 H1288 0.950 . S
C1266 C1265 1.349 . S
C1266 C1278 1.349 . S
C1267 C1265 1.327 . S
C1267 C1283 1.429 . S
C1267 H1289 0.950 . S
C1268 H1264 0.949 . S
C1268 C1276 1.574 . S
C1268 C1284 1.368 . S
H1269 C1277 0.950 . S
H1270 C1275 0.950 . S
H1271 C1276 0.949 . S
H1272 C1278 0.950 . S
H1273 C1279 0.950 . S
H1274 C1280 0.949 . S
C1275 H1270 0.950 . S
C1275 C1277 1.327 . S
C1275 C1281 1.429 . S
C1276 C1268 1.574 . S
C1276 H1271 0.949 . S
C1276 C1282 1.368 . S
C1277 C1261 1.349 . S
C1277 H1269 0.950 . S
C1277 C1275 1.327 . S
C1278 C1266 1.349 . S
C1278 H1272 0.950 . S
C1278 C1279 1.327 . S
C1279 H1273 0.950 . S
C1279 C1278 1.327 . S
C1279 C1283 1.429 . S
C1280 C1263 1.574 . S
C1280 H1274 0.949 . S
C1280 C1284 1.368 . S
C1281 C1262 1.429 . S
C1281 C1275 1.429 . S
C1281 C1282 1.523 . S
C1282 C1263 1.368 . S
C1282 C1276 1.368 . S
C1282 C1281 1.523 . S
C1283 C1267 1.429 . S
C1283 C1279 1.429 . S
C1283 C1284 1.523 . S
C1284 C1268 1.368 . S
C1284 C1280 1.368 . S
C1284 C1283 1.523 . S
H1285 C1260 0.950 . S
H1286 C1262 0.950 . S
H1287 C1263 0.949 . S
H1288 C1265 0.950 . S
H1289 C1267 0.950 . S
C1290 C1291 1.349 . S
C1290 C1292 1.327 1_455 S
C1290 H1315 0.950 . S
C1291 C1290 1.349 . S
C1291 C1307 1.349 1_455 S
C1292 C1290 1.327 1_655 S
C1292 C1311 1.429 . S
C1292 H1316 0.950 . S
C1293 C1310 1.574 . S
C1293 C1312 1.368 . S
C1293 H1317 0.949 . S
H1294 C1298 0.949 . S
C1295 C1296 1.349 . S
C1295 C1297 1.327 . S
C1295 H1318 0.950 . S
C1296 C1295 1.349 . S
C1296 C1308 1.349 . S
C1297 C1295 1.327 . S
C1297 C1313 1.429 . S
C1297 H1319 0.950 . S
C1298 H1294 0.949 . S
C1298 C1306 1.574 . S
C1298 C1314 1.368 . S
H1299 C1307 0.950 . S
H1300 C1305 0.950 . S
H1301 C1306 0.949 . S
H1302 C1308 0.950 . S
H1303 C1309 0.950 . S
H1304 C1310 0.949 . S
C1305 H1300 0.950 . S
C1305 C1307 1.327 . S
C1305 C1311 1.429 . S
C1306 C1298 1.574 . S
C1306 H1301 0.949 . S
C1306 C1312 1.368 . S
C1307 C1291 1.349 1_655 S
C1307 H1299 0.950 . S
C1307 C1305 1.327 . S
C1308 C1296 1.349 . S
C1308 H1302 0.950 . S
C1308 C1309 1.327 . S
C1309 H1303 0.950 . S
C1309 C1308 1.327 . S
C1309 C1313 1.429 . S
C1310 C1293 1.574 . S
C1310 H1304 0.949 . S
C1310 C1314 1.368 . S
C1311 C1292 1.429 . S
C1311 C1305 1.429 . S
C1311 C1312 1.523 . S
C1312 C1293 1.368 . S
C1312 C1306 1.368 . S
C1312 C1311 1.523 . S
C1313 C1297 1.429 . S
C1313 C1309 1.429 . S
C1313 C1314 1.523 . S
C1314 C1298 1.368 . S
C1314 C1310 1.368 . S
C1314 C1313 1.523 . S
H1315 C1290 0.950 . S
H1316 C1292 0.950 . S
H1317 C1293 0.949 . S
H1318 C1295 0.950 . S
H1319 C1297 0.950 . S
C1320 C1321 1.349 . S
C1320 C1322 1.327 . S
C1320 H1345 0.950 . S
C1321 C1320 1.349 . S
C1321 C1337 1.349 . S
C1322 C1320 1.327 . S
C1322 C1341 1.429 . S
C1322 H1346 0.950 . S
C1323 C1340 1.574 . S
C1323 C1342 1.368 . S
C1323 H1347 0.949 . S
H1324 C1328 0.949 . S
C1325 C1326 1.349 . S
C1325 C1327 1.327 . S
C1325 H1348 0.950 . S
C1326 C1325 1.349 . S
C1326 C1338 1.349 . S
C1327 C1325 1.327 . S
C1327 C1343 1.429 . S
C1327 H1349 0.950 . S
C1328 H1324 0.949 . S
C1328 C1336 1.574 . S
C1328 C1344 1.368 . S
H1329 C1337 0.950 . S
H1330 C1335 0.950 . S
H1331 C1336 0.949 . S
H1332 C1338 0.950 . S
H1333 C1339 0.950 . S
H1334 C1340 0.949 . S
C1335 H1330 0.950 . S
C1335 C1337 1.327 . S
C1335 C1341 1.429 . S
C1336 C1328 1.574 . S
C1336 H1331 0.949 . S
C1336 C1342 1.368 . S
C1337 C1321 1.349 . S
C1337 H1329 0.950 . S
C1337 C1335 1.327 . S
C1338 C1326 1.349 . S
C1338 H1332 0.950 . S
C1338 C1339 1.327 . S
C1339 H1333 0.950 . S
C1339 C1338 1.327 . S
C1339 C1343 1.429 . S
C1340 C1323 1.574 . S
C1340 H1334 0.949 . S
C1340 C1344 1.368 . S
C1341 C1322 1.429 . S
C1341 C1335 1.429 . S
C1341 C1342 1.523 . S
C1342 C1323 1.368 . S
C1342 C1336 1.368 . S
C1342 C1341 1.523 . S
C1343 C1327 1.429 . S
C1343 C1339 1.429 . S
C1343 C1344 1.523 . S
C1344 C1328 1.368 . S
C1344 C1340 1.368 . S
C1344 C1343 1.523 . S
H1345 C1320 0.950 . S
H1346 C1322 0.950 . S
H1347 C1323 0.949 . S
H1348 C1325 0.950 . S
H1349 C1327 0.950 . S
C1350 C1351 1.349 . S
C1350 C1352 1.327 . S
C1350 H1375 0.950 . S
C1351 C1350 1.349 . S
C1351 C1367 1.349 . S
C1352 C1350 1.327 . S
C1352 C1371 1.429 . S
C1352 H1376 0.950 . S
C1353 C1370 1.574 . S
C1353 C1372 1.368 . S
C1353 H1377 0.949 . S
H1354 C1358 0.949 . S
C1355 C1356 1.349 . S
C1355 C1357 1.327 . S
C1355 H1378 0.950 . S
C1356 C1355 1.349 . S
C1356 C1368 1.349 . S
C1357 C1355 1.327 . S
C1357 C1373 1.429 . S
C1357 H1379 0.950 . S
C1358 H1354 0.949 . S
C1358 C1366 1.574 . S
C1358 C1374 1.368 . S
H1359 C1367 0.950 . S
H1360 C1365 0.950 . S
H1361 C1366 0.949 . S
H1362 C1368 0.950 . S
H1363 C1369 0.950 . S
H1364 C1370 0.949 . S
C1365 H1360 0.950 . S
C1365 C1367 1.327 . S
C1365 C1371 1.429 . S
C1366 C1358 1.574 . S
C1366 H1361 0.949 . S
C1366 C1372 1.368 . S
C1367 C1351 1.349 . S
C1367 H1359 0.950 . S
C1367 C1365 1.327 . S
C1368 C1356 1.349 . S
C1368 H1362 0.950 . S
C1368 C1369 1.327 . S
C1369 H1363 0.950 . S
C1369 C1368 1.327 . S
C1369 C1373 1.429 . S
C1370 C1353 1.574 . S
C1370 H1364 0.949 . S
C1370 C1374 1.368 . S
C1371 C1352 1.429 . S
C1371 C1365 1.429 . S
C1371 C1372 1.523 . S
C1372 C1353 1.368 . S
C1372 C1366 1.368 . S
C1372 C1371 1.523 . S
C1373 C1357 1.429 . S
C1373 C1369 1.429 . S
C1373 C1374 1.523 . S
C1374 C1358 1.368 . S
C1374 C1370 1.368 . S
C1374 C1373 1.523 . S
H1375 C1350 0.950 . S
H1376 C1352 0.950 . S
H1377 C1353 0.949 . S
H1378 C1355 0.950 . S
H1379 C1357 0.950 . S
C1380 C1381 1.349 . S
C1380 C1382 1.327 . S
C1380 H1405 0.950 . S
C1381 C1380 1.349 . S
C1381 C1397 1.349 . S
C1382 C1380 1.327 . S
C1382 C1401 1.429 . S
C1382 H1406 0.950 . S
C1383 C1400 1.574 . S
C1383 C1402 1.368 . S
C1383 H1407 0.949 . S
H1384 C1388 0.949 . S
C1385 C1386 1.349 . S
C1385 C1387 1.327 . S
C1385 H1408 0.950 . S
C1386 C1385 1.349 . S
C1386 C1398 1.349 . S
C1387 C1385 1.327 . S
C1387 C1403 1.429 . S
C1387 H1409 0.950 . S
C1388 H1384 0.949 . S
C1388 C1396 1.574 . S
C1388 C1404 1.368 . S
H1389 C1397 0.950 . S
H1390 C1395 0.950 . S
H1391 C1396 0.949 . S
H1392 C1398 0.950 . S
H1393 C1399 0.950 . S
H1394 C1400 0.949 . S
C1395 H1390 0.950 . S
C1395 C1397 1.327 . S
C1395 C1401 1.429 . S
C1396 C1388 1.574 . S
C1396 H1391 0.949 . S
C1396 C1402 1.368 . S
C1397 C1381 1.349 . S
C1397 H1389 0.950 . S
C1397 C1395 1.327 . S
C1398 C1386 1.349 . S
C1398 H1392 0.950 . S
C1398 C1399 1.327 . S
C1399 H1393 0.950 . S
C1399 C1398 1.327 . S
C1399 C1403 1.429 . S
C1400 C1383 1.574 . S
C1400 H1394 0.949 . S
C1400 C1404 1.368 . S
C1401 C1382 1.429 . S
C1401 C1395 1.429 . S
C1401 C1402 1.523 . S
C1402 C1383 1.368 . S
C1402 C1396 1.368 . S
C1402 C1401 1.523 . S
C1403 C1387 1.429 . S
C1403 C1399 1.429 . S
C1403 C1404 1.523 . S
C1404 C1388 1.368 . S
C1404 C1400 1.368 . S
C1404 C1403 1.523 . S
H1405 C1380 0.950 . S
H1406 C1382 0.950 . S
H1407 C1383 0.949 . S
H1408 C1385 0.950 . S
H1409 C1387 0.950 . S
C691 C39 1.744 . S
C696 C371 1.662 . S
C721 C91 1.751 . S
C726 C415 1.701 . S
C756 C495 1.412 . S
C751 C128 1.460 . S
C786 C539 1.476 . S
C781 C188 1.512 1_655 S
C816 C619 1.607 . S
C811 C250 1.668 . S
C846 C675 1.763 . S
C841 C304 1.913 . S
C871 C75 1.874 . S
C876 C471 1.670 . S
C901 C144 1.753 . S
C906 C551 1.627 . S
C936 C595 1.680 . S
C931 C198 1.837 . S
C966 C663 1.442 . S
C961 C234 1.470 . S
C991 C294 1.514 . S
C996 C347 1.402 . S
C1026 C427 1.607 . S
C1021 C29 1.669 1_556 S
C1056 C533 1.782 . S
C1051 C38 1.921 . S
C1081 C92 1.720 . S
C1086 C613 1.575 . S
C1116 C681 1.470 . S
C1111 C135 1.495 . S
C1141 C181 1.670 . S
C1146 C365 1.559 . S
C1171 C251 1.599 . S
C1176 C409 1.517 . S
C1201 C303 1.942 . S
C1206 C489 1.738 . S
C1231 C82 1.845 . S
C1236 C657 1.689 . S
C1266 C353 1.690 . S
C1261 C145 1.781 . S
C1291 C197 1.670 . S
C1296 C433 1.616 . S
C1321 C241 1.434 . S
C1326 C477 1.384 . S
C1351 C287 1.582 . S
C1356 C557 1.548 . S
C1381 C22 1.541 . S
C1386 C601 1.484 . S
