# Generated by pormake.
# Topology zzz, (3,6)-cn, num edge types: 1
# Building blocks:
#     Node 0, Type 0, BuildingBlock: VETTIZ_charged_linker_0, # of connection points: 3
#     Node 1, Type 0, BuildingBlock: VETTIZ_charged_linker_0, # of connection points: 3
#     Node 2, Type 0, BuildingBlock: VETTIZ_charged_linker_0, # of connection points: 3
#     Node 3, Type 0, BuildingBlock: VETTIZ_charged_linker_0, # of connection points: 3
#     Node 4, Type 0, BuildingBlock: VETTIZ_charged_linker_0, # of connection points: 3
#     Node 5, Type 0, BuildingBlock: VETTIZ_charged_linker_0, # of connection points: 3
#     Node 6, Type 0, BuildingBlock: VETTIZ_charged_linker_0, # of connection points: 3
#     Node 7, Type 0, BuildingBlock: VETTIZ_charged_linker_0, # of connection points: 3
#     Node 8, Type 1, BuildingBlock: INOVEN_clean_sbu_0, # of connection points: 6
#     Node 9, Type 1, BuildingBlock: INOVEN_clean_sbu_0, # of connection points: 6
#     Node 10, Type 1, BuildingBlock: INOVEN_clean_sbu_0, # of connection points: 6
#     Node 11, Type 1, BuildingBlock: INOVEN_clean_sbu_0, # of connection points: 6
#     Edge 12, Type (0, 1), BuildingBlock: ZUJKAS_clean_linker_0, # of connection points: 2
#     Edge 13, Type (0, 1), BuildingBlock: ZUJKAS_clean_linker_0, # of connection points: 2
#     Edge 14, Type (0, 1), BuildingBlock: ZUJKAS_clean_linker_0, # of connection points: 2
#     Edge 15, Type (0, 1), BuildingBlock: ZUJKAS_clean_linker_0, # of connection points: 2
#     Edge 16, Type (0, 1), BuildingBlock: ZUJKAS_clean_linker_0, # of connection points: 2
#     Edge 17, Type (0, 1), BuildingBlock: ZUJKAS_clean_linker_0, # of connection points: 2
#     Edge 18, Type (0, 1), BuildingBlock: ZUJKAS_clean_linker_0, # of connection points: 2
#     Edge 19, Type (0, 1), BuildingBlock: ZUJKAS_clean_linker_0, # of connection points: 2
#     Edge 20, Type (0, 1), BuildingBlock: ZUJKAS_clean_linker_0, # of connection points: 2
#     Edge 21, Type (0, 1), BuildingBlock: ZUJKAS_clean_linker_0, # of connection points: 2
#     Edge 22, Type (0, 1), BuildingBlock: ZUJKAS_clean_linker_0, # of connection points: 2
#     Edge 23, Type (0, 1), BuildingBlock: ZUJKAS_clean_linker_0, # of connection points: 2
#     Edge 24, Type (0, 1), BuildingBlock: ZUJKAS_clean_linker_0, # of connection points: 2
#     Edge 25, Type (0, 1), BuildingBlock: ZUJKAS_clean_linker_0, # of connection points: 2
#     Edge 26, Type (0, 1), BuildingBlock: ZUJKAS_clean_linker_0, # of connection points: 2
#     Edge 27, Type (0, 1), BuildingBlock: ZUJKAS_clean_linker_0, # of connection points: 2
#     Edge 28, Type (0, 1), BuildingBlock: ZUJKAS_clean_linker_0, # of connection points: 2
#     Edge 29, Type (0, 1), BuildingBlock: ZUJKAS_clean_linker_0, # of connection points: 2
#     Edge 30, Type (0, 1), BuildingBlock: ZUJKAS_clean_linker_0, # of connection points: 2
#     Edge 31, Type (0, 1), BuildingBlock: ZUJKAS_clean_linker_0, # of connection points: 2
#     Edge 32, Type (0, 1), BuildingBlock: ZUJKAS_clean_linker_0, # of connection points: 2
#     Edge 33, Type (0, 1), BuildingBlock: ZUJKAS_clean_linker_0, # of connection points: 2
#     Edge 34, Type (0, 1), BuildingBlock: ZUJKAS_clean_linker_0, # of connection points: 2
#     Edge 35, Type (0, 1), BuildingBlock: ZUJKAS_clean_linker_0, # of connection points: 2
# Relax obj value: 0.406
# Max RMSD: 0.275
# Mean RMSD: 0.252
data_MOF--net-zzz--node1-INOVEN_clean_sbu_0--node2-VETTIZ_charged_linker_0--edge1-ZUJKAS_clean_linker_0
_symmetry_space_group_name_H-M    P1
_symmetry_Int_Tables_number       1
_symmetry_cell_setting            triclinic
loop_
_symmetry_equiv_pos_as_xyz
'x, y, z'
_cell_length_a     73.744255
_cell_length_b     73.845232
_cell_length_c     22.63871
_cell_angle_alpha  89.838232
_cell_angle_beta   90.040979
_cell_angle_gamma 90.479837
loop_
_atom_site_label
_atom_site_type_symbol
_atom_site_fract_x
_atom_site_fract_y
_atom_site_fract_z
_atom_type_partial_charge
C0 C 0.79088 0.5319 0.30361 0.0
C1 C 0.81008 0.53217 0.29764 0.0
C2 C 0.8175 0.53151 0.24039 0.0
C3 C 0.78768 0.5332 0.19658 0.0
C4 C 0.77986 0.53232 0.25201 0.0
C5 C 0.75919 0.53224 0.24727 0.0
H6 H 0.68657 0.55278 0.06983 0.0
C7 C 0.7734 0.53614 0.15217 0.0
C8 C 0.75644 0.53531 0.18058 0.0
H9 H 0.68414 0.51588 0.21726 0.0
H10 H 0.71718 0.51908 0.23056 0.0
H11 H 0.72244 0.58029 0.10506 0.0
H12 H 0.71137 0.53002 0.01755 0.0
H13 H 0.73099 0.53794 0.98313 0.0
H14 H 0.71054 0.55111 0.97845 0.0
H15 H 0.71092 0.57813 0.03549 0.0
H16 H 0.73531 0.58006 0.0395 0.0
C17 C 0.75125 0.54793 0.28335 0.0
C18 C 0.75185 0.51365 0.26864 0.0
C19 C 0.79134 0.55112 0.94065 0.0
C20 C 0.78165 0.55822 0.89248 0.0
C21 C 0.76374 0.564 0.90059 0.0
C22 C 0.75521 0.56175 0.95547 0.0
C23 C 0.76474 0.55362 1.00242 0.0
C24 C 0.7827 0.54913 0.99522 0.0
C25 C 0.79115 0.54231 0.05149 0.0
C26 C 0.77479 0.54202 0.09247 0.0
C27 C 0.75942 0.54831 0.06296 0.0
C28 C 0.80598 0.55616 0.07106 0.0
C29 C 0.79828 0.52294 0.04046 0.0
C30 C 0.69285 0.5463 0.10762 0.0
C31 C 0.68264 0.53487 0.14422 0.0
C32 C 0.69164 0.52533 0.18979 0.0
C33 C 0.71063 0.52733 0.19809 0.0
C34 C 0.72067 0.53858 0.15975 0.0
C35 C 0.71167 0.54713 0.11382 0.0
C36 C 0.72423 0.55312 0.06561 0.0
C37 C 0.74226 0.54722 0.09047 0.0
C38 C 0.74047 0.53974 0.14747 0.0
C39 C 0.72317 0.57399 0.06054 0.0
C40 C 0.71908 0.54271 0.00803 0.0
H41 H 0.81318 0.53164 0.14844 0.0
H42 H 0.78471 0.53189 0.34697 0.0
H43 H 0.75005 0.5041 0.23119 0.0
H44 H 0.73882 0.51494 0.29252 0.0
H45 H 0.76119 0.5072 0.30087 0.0
H46 H 0.75722 0.56109 0.26897 0.0
H47 H 0.75408 0.54607 0.33119 0.0
H48 H 0.73632 0.54857 0.27737 0.0
H49 H 0.80539 0.5472 0.93584 0.0
H50 H 0.75623 0.5698 0.86412 0.0
H51 H 0.74142 0.56611 0.95889 0.0
H52 H 0.80446 0.56017 0.11792 0.0
H53 H 0.80528 0.56911 0.04592 0.0
H54 H 0.81982 0.55074 0.06436 0.0
H55 H 0.80043 0.51524 0.08176 0.0
H56 H 0.81118 0.52333 0.01518 0.0
H57 H 0.78826 0.51488 0.01453 0.0
H58 H 0.83205 0.53091 0.23414 0.0
C59 C 0.80651 0.532 0.19036 0.0
C60 C 0.95075 0.77798 0.95128 0.0
C61 C 0.9489 0.79666 0.94155 0.0
C62 C 0.94467 0.80794 0.98973 0.0
C63 C 0.94926 0.78292 0.05686 0.0
C64 C 0.95082 0.77136 0.00938 0.0
C65 C 0.95438 0.7522 0.02852 0.0
H66 H 1.00353 0.69873 0.18261 0.0
C67 C 0.95467 0.77306 0.11062 0.0
C68 C 0.9567 0.75486 0.09529 0.0
H69 H 0.95956 0.68353 0.06534 0.0
H70 H 0.94605 0.71328 0.07979 0.0
H71 H 0.01096 0.74323 0.15298 0.0
H72 H 0.96929 0.72116 0.26917 0.0
H73 H 0.98153 0.73937 0.30088 0.0
H74 H 0.99295 0.71845 0.2859 0.0
H75 H 0.01673 0.72934 0.21562 0.0
H76 H 0.01096 0.75269 0.22536 0.0
C77 C 0.972 0.74544 0.99915 0.0
C78 C 0.93774 0.74041 0.01138 0.0
C79 C 0.97675 0.81072 0.28304 0.0
C80 C 0.98786 0.80751 0.33225 0.0
C81 C 0.99547 0.79008 0.33893 0.0
C82 C 0.99157 0.7761 0.29803 0.0
C83 C 0.98003 0.77957 0.24973 0.0
C84 C 0.97312 0.79682 0.24278 0.0
C85 C 0.96216 0.79889 0.18746 0.0
C86 C 0.96248 0.77969 0.16386 0.0
C87 C 0.97297 0.76823 0.20021 0.0
C88 C 0.972 0.81279 0.1463 0.0
C89 C 0.94267 0.80441 0.20467 0.0
C90 C 0.9914 0.70206 0.15811 0.0
C91 C 0.98322 0.68924 0.11953 0.0
C92 C 0.96658 0.69345 0.09235 0.0
C93 C 0.95923 0.71068 0.09779 0.0
C94 C 0.96895 0.7239 0.12838 0.0
C95 C 0.98341 0.71935 0.16352 0.0
C96 C 0.98764 0.7347 0.20642 0.0
C97 C 0.97474 0.74955 0.1845 0.0
C98 C 0.96491 0.74293 0.13599 0.0
C99 C 1.0077 0.74033 0.20004 0.0
C100 C 0.98271 0.72815 0.26919 0.0
H101 H 0.94198 0.81028 0.08275 0.0
H102 H 0.95342 0.769 0.91464 0.0
H103 H 0.93016 0.74622 0.9734 0.0
H104 H 0.92804 0.73911 0.04876 0.0
H105 H 0.94182 0.72676 0.99635 0.0
H106 H 0.98364 0.75447 0.0104 0.0
H107 H 0.9706 0.74502 0.95034 0.0
H108 H 0.97538 0.73153 0.01349 0.0
H109 H 0.97122 0.82404 0.27496 0.0
H110 H 1.00425 0.78722 0.37608 0.0
H111 H 0.99781 0.76319 0.30493 0.0
H112 H 0.98487 0.81808 0.16556 0.0
H113 H 0.9635 0.82483 0.13745 0.0
H114 H 0.97601 0.80667 0.10361 0.0
H115 H 0.9378 0.79634 0.24318 0.0
H116 H 0.93279 0.80186 0.16882 0.0
H117 H 0.94216 0.81896 0.21689 0.0
H118 H 0.94292 0.82237 0.98349 0.0
C119 C 0.94467 0.80107 0.04741 0.0
C120 C 0.8274 0.99506 0.18358 0.0
C121 C 0.83926 0.98898 0.13864 0.0
C122 C 0.83385 0.97445 0.10266 0.0
C123 C 0.80427 0.97422 0.14788 0.0
C124 C 0.8099 0.98707 0.18818 0.0
C125 C 0.79515 0.99036 0.23394 0.0
H126 H 0.70675 0.97217 0.31575 0.0
C127 C 0.78518 0.96969 0.15866 0.0
C128 C 0.77961 0.97835 0.21087 0.0
H129 H 0.74482 1.00519 0.41321 0.0
H130 H 0.76803 0.9996 0.33823 0.0
H131 H 0.71298 0.98873 0.20485 0.0
H132 H 0.73354 0.93991 0.27688 0.0
H133 H 0.72768 0.93538 0.20278 0.0
H134 H 0.7107 0.94386 0.25264 0.0
H135 H 0.70268 0.96758 0.18625 0.0
H136 H 0.72021 0.97766 0.14086 0.0
C137 C 0.79015 0.01058 0.23318 0.0
C138 C 0.80213 0.98383 0.29449 0.0
C139 C 0.74732 0.9492 0.98499 0.0
C140 C 0.72833 0.94844 0.97823 0.0
C141 C 0.7176 0.9461 0.02949 0.0
C142 C 0.72531 0.94725 0.08572 0.0
C143 C 0.74381 0.95137 0.09116 0.0
C144 C 0.75473 0.95113 0.04177 0.0
C145 C 0.77419 0.95546 0.05658 0.0
C146 C 0.77245 0.9607 0.12172 0.0
C147 C 0.75461 0.95836 0.14117 0.0
C148 C 0.78053 0.97159 0.01757 0.0
C149 C 0.78549 0.93802 0.04749 0.0
C150 C 0.72019 0.97788 0.3222 0.0
C151 C 0.724 0.98871 0.37141 0.0
C152 C 0.74152 0.9966 0.37599 0.0
C153 C 0.755 0.99325 0.33269 0.0
C154 C 0.75085 0.9821 0.28389 0.0
C155 C 0.7335 0.97489 0.27956 0.0
C156 C 0.7304 0.96472 0.2235 0.0
C157 C 0.74906 0.96577 0.19594 0.0
C158 C 0.76126 0.97598 0.23085 0.0
C159 C 0.71582 0.97504 0.18689 0.0
C160 C 0.72518 0.94492 0.23938 0.0
H161 H 0.81319 0.95592 0.07913 0.0
H162 H 0.83154 1.00578 0.21335 0.0
H163 H 0.80819 0.97014 0.29062 0.0
H164 H 0.79122 0.98262 0.32753 0.0
H165 H 0.81273 0.99321 0.31176 0.0
H166 H 0.78737 0.01515 0.18722 0.0
H167 H 0.80143 0.01899 0.25109 0.0
H168 H 0.77784 0.01334 0.25917 0.0
H169 H 0.75608 0.9499 0.94676 0.0
H170 H 0.70298 0.94511 0.02705 0.0
H171 H 0.71632 0.94614 0.12267 0.0
H172 H 0.77104 0.98314 0.02191 0.0
H173 H 0.7811 0.96766 0.97032 0.0
H174 H 0.79414 0.97667 0.02917 0.0
H175 H 0.77702 0.92616 0.0343 0.0
H176 H 0.79246 0.93387 0.08883 0.0
H177 H 0.79578 0.93987 0.01211 0.0
H178 H 0.84292 0.96925 0.0692 0.0
C179 C 0.81657 0.96691 0.10771 0.0
C180 C 0.5169 0.73788 0.32393 0.0
C181 C 0.51801 0.71871 0.32158 0.0
C182 C 0.51879 0.71029 0.26608 0.0
C183 C 0.518 0.73935 0.21638 0.0
C184 C 0.51708 0.748 0.27041 0.0
C185 C 0.51668 0.76851 0.26222 0.0
H186 H 0.52142 0.83916 0.06185 0.0
C187 C 0.51863 0.75313 0.16896 0.0
C188 C 0.51809 0.77048 0.19491 0.0
H189 H 0.51369 0.84508 0.24929 0.0
H190 H 0.51482 0.81196 0.26168 0.0
H191 H 0.55122 0.80953 0.06749 0.0
H192 H 0.49354 0.80934 0.0462 0.0
H193 H 0.50097 0.792 0.99992 0.0
H194 H 0.50877 0.81488 0.98705 0.0
H195 H 0.54046 0.81496 0.99872 0.0
H196 H 0.54689 0.79206 0.01703 0.0
C197 C 0.53317 0.77698 0.2939 0.0
C198 C 0.49844 0.77554 0.28563 0.0
C199 C 0.52113 0.73252 0.95452 0.0
C200 C 0.52311 0.74203 0.90094 0.0
C201 C 0.5252 0.76092 0.90167 0.0
C202 C 0.52482 0.77033 0.95514 0.0
C203 C 0.52252 0.76072 0.00855 0.0
C204 C 0.52103 0.74212 0.00771 0.0
C205 C 0.51976 0.73415 0.0689 0.0
C206 C 0.51999 0.75119 0.10663 0.0
C207 C 0.52143 0.76655 0.07083 0.0
C208 C 0.53677 0.72227 0.07937 0.0
C209 C 0.50143 0.72384 0.07376 0.0
C210 C 0.52007 0.8334 0.10578 0.0
C211 C 0.5175 0.84458 0.15436 0.0
C212 C 0.51572 0.83659 0.21098 0.0
C213 C 0.51632 0.81745 0.21797 0.0
C214 C 0.51865 0.80636 0.16779 0.0
C215 C 0.52046 0.8147 0.11317 0.0
C216 C 0.52212 0.80173 0.06348 0.0
C217 C 0.52098 0.78398 0.09609 0.0
C218 C 0.51912 0.78629 0.15766 0.0
C219 C 0.54105 0.8047 0.03462 0.0
C220 C 0.50565 0.80459 0.02152 0.0
H221 H 0.5193 0.71292 0.1736 0.0
H222 H 0.51628 0.74474 0.36607 0.0
H223 H 0.487 0.76738 0.26744 0.0
H224 H 0.49598 0.78971 0.27258 0.0
H225 H 0.49791 0.7746 0.3346 0.0
H226 H 0.54584 0.77006 0.28042 0.0
H227 H 0.53177 0.77566 0.34259 0.0
H228 H 0.53494 0.79146 0.28302 0.0
H229 H 0.51996 0.71788 0.95502 0.0
H230 H 0.52686 0.7684 0.86075 0.0
H231 H 0.52623 0.78476 0.95247 0.0
H232 H 0.54811 0.72609 0.04928 0.0
H233 H 0.5337 0.7077 0.07189 0.0
H234 H 0.54249 0.72399 0.12427 0.0
H235 H 0.49042 0.73164 0.05202 0.0
H236 H 0.49688 0.72186 0.11978 0.0
H237 H 0.50215 0.71043 0.05181 0.0
H238 H 0.51947 0.69566 0.26303 0.0
C239 C 0.51871 0.72039 0.21396 0.0
C240 C 0.32694 0.49123 0.16893 0.0
C241 C 0.34071 0.48226 0.20161 0.0
C242 C 0.33862 0.46361 0.21373 0.0
C243 C 0.30838 0.46416 0.17466 0.0
C244 C 0.31095 0.48149 0.15394 0.0
C245 C 0.29539 0.48666 0.11288 0.0
H246 H 0.21032 0.46219 0.0118 0.0
C247 C 0.29041 0.45777 0.15846 0.0
C248 C 0.28271 0.47009 0.11858 0.0
H249 H 0.24122 0.50904 0.9553 0.0
H250 H 0.26593 0.50035 0.02128 0.0
H251 H 0.24352 0.43316 0.01262 0.0
H252 H 0.21251 0.46429 0.12666 0.0
H253 H 0.22596 0.45392 0.18129 0.0
H254 H 0.21113 0.4405 0.13489 0.0
H255 H 0.22055 0.43011 0.03759 0.0
H256 H 0.23927 0.42003 0.07664 0.0
C257 C 0.30303 0.48869 0.04981 0.0
C258 C 0.28649 0.50406 0.1359 0.0
C259 C 0.2555 0.42276 0.31177 0.0
C260 C 0.2374 0.41662 0.31215 0.0
C261 C 0.22846 0.4138 0.25779 0.0
C262 C 0.23644 0.41961 0.20491 0.0
C263 C 0.25322 0.4286 0.20686 0.0
C264 C 0.26321 0.42861 0.25836 0.0
C265 C 0.28159 0.43721 0.24989 0.0
C266 C 0.27976 0.44428 0.18635 0.0
C267 C 0.26262 0.44017 0.16339 0.0
C268 C 0.29607 0.42233 0.25774 0.0
C269 C 0.28424 0.45281 0.2946 0.0
C270 C 0.22252 0.47046 0.01204 0.0
C271 C 0.22382 0.48609 0.97691 0.0
C272 C 0.23979 0.49681 0.98144 0.0
C273 C 0.2542 0.49168 0.01933 0.0
C274 C 0.25262 0.47574 0.05339 0.0
C275 C 0.23678 0.46564 0.0495 0.0
C276 C 0.2365 0.44963 0.09023 0.0
C277 C 0.2552 0.45114 0.11784 0.0
C278 C 0.26482 0.46645 0.09641 0.0
C279 C 0.23476 0.43224 0.05255 0.0
C280 C 0.22081 0.45209 0.13561 0.0
H281 H 0.32198 0.44005 0.20432 0.0
H282 H 0.32867 0.50521 0.15543 0.0
H283 H 0.28275 0.50246 0.18322 0.0
H284 H 0.27397 0.50734 0.11157 0.0
H285 H 0.29597 0.51577 0.13197 0.0
H286 H 0.31186 0.47703 0.03884 0.0
H287 H 0.31129 0.50129 0.04575 0.0
H288 H 0.2923 0.4889 0.01592 0.0
H289 H 0.26286 0.42437 0.35285 0.0
H290 H 0.21464 0.40875 0.25652 0.0
H291 H 0.22893 0.41777 0.16483 0.0
H292 H 0.29137 0.41137 0.288 0.0
H293 H 0.30857 0.42773 0.27875 0.0
H294 H 0.29946 0.41593 0.21481 0.0
H295 H 0.27329 0.46297 0.28987 0.0
H296 H 0.29743 0.45981 0.28808 0.0
H297 H 0.28415 0.44763 0.34069 0.0
H298 H 0.34921 0.45611 0.23595 0.0
C299 C 0.32268 0.45447 0.1989 0.0
C300 C 0.99963 0.24651 0.39523 0.0
C301 C 0.98739 0.23189 0.39916 0.0
C302 C 0.98026 0.22435 0.34681 0.0
C303 C 0.9988 0.2447 0.28824 0.0
C304 C 1.00496 0.25285 0.33938 0.0
C305 C 0.01799 0.26818 0.32705 0.0
H306 H 0.02334 0.33685 0.14922 0.0
C307 C 1.00762 0.25374 0.23769 0.0
C308 C 0.01848 0.26788 0.25956 0.0
H309 H 0.04429 0.3319 0.3271 0.0
H310 H 0.0446 0.29918 0.31717 0.0
H311 H 0.05027 0.29301 0.09193 0.0
H312 H 0.99397 0.30092 0.14305 0.0
H313 H 0.99997 0.29256 0.07108 0.0
H314 H 1.00371 0.31604 0.0887 0.0
H315 H 0.04052 0.31455 0.07315 0.0
H316 H 0.03226 0.29478 0.03761 0.0
C317 C 0.03662 0.26317 0.3536 0.0
C318 C 0.01006 0.28592 0.35291 0.0
C319 C 1.00293 0.22614 0.03489 0.0
C320 C 0.01448 0.22797 0.98591 0.0
C321 C 0.02661 0.24291 0.9839 0.0
C322 C 0.02701 0.25582 0.02995 0.0
C323 C 0.01505 0.25389 0.07783 0.0
C324 C 1.00403 0.23864 0.08118 0.0
C325 C 0.9973 0.23526 0.14303 0.0
C326 C 1.0067 0.2505 0.17612 0.0
C327 C 0.0157 0.26222 0.13702 0.0
C328 C 1.00395 0.21634 0.16346 0.0
C329 C 0.97643 0.23745 0.14306 0.0
C330 C 0.02799 0.32866 0.18585 0.0
C331 C 0.033 0.3368 0.24016 0.0
C332 C 0.03971 0.32586 0.28606 0.0
C333 C 0.03941 0.30705 0.28121 0.0
C334 C 0.03191 0.29917 0.2308 0.0
C335 C 0.02814 0.30953 0.18162 0.0
C336 C 0.02321 0.29749 0.12948 0.0
C337 C 0.02353 0.27862 0.15837 0.0
C338 C 0.02651 0.28042 0.2194 0.0
C339 C 0.03743 0.29996 0.08035 0.0
C340 C 1.00408 0.30204 0.10678 0.0
H341 H 0.98018 0.22417 0.25339 0.0
H342 H 1.00536 0.25255 0.43468 0.0
H343 H 1.00284 0.29387 0.31857 0.0
H344 H 0.02062 0.29456 0.37358 0.0
H345 H 1.00013 0.28327 0.38885 0.0
H346 H 0.03977 0.24869 0.34521 0.0
H347 H 0.03674 0.26535 0.40215 0.0
H348 H 0.04787 0.27101 0.33359 0.0
H349 H 0.99447 0.21417 0.03988 0.0
H350 H 0.03625 0.24416 0.94805 0.0
H351 H 0.03762 0.26591 0.03013 0.0
H352 H 0.01782 0.21367 0.1464 0.0
H353 H 0.99485 0.20541 0.147 0.0
H354 H 1.00521 0.21497 0.21174 0.0
H355 H 0.97212 0.24784 0.11033 0.0
H356 H 0.97119 0.24236 0.18583 0.0
H357 H 0.96949 0.22454 0.13146 0.0
H358 H 0.9705 0.21332 0.34867 0.0
C359 C 0.98587 0.23069 0.29149 0.0
C360 C 0.28704 0.03815 1.0039 0.0
C361 C 0.30369 0.04623 0.98596 0.0
C362 C 0.30941 0.06236 0.01336 0.0
C363 C 0.28345 0.06156 0.07829 0.0
C364 C 0.2769 0.04636 0.0497 0.0
C365 C 0.25843 0.04082 0.07422 0.0
H366 H 0.19319 0.05693 0.28495 0.0
C367 C 0.27108 0.06614 0.1269 0.0
C368 C 0.25599 0.05438 0.12477 0.0
H369 H 0.18936 0.01778 0.1444 0.0
H370 H 0.21976 0.02637 0.1106 0.0
H371 H 0.23117 0.04624 0.32115 0.0
H372 H 0.21195 0.08993 0.21347 0.0
H373 H 0.22797 0.09872 0.26404 0.0
H374 H 0.2079 0.08757 0.29138 0.0
H375 H 0.22466 0.06734 0.35318 0.0
H376 H 0.24765 0.0633 0.32925 0.0
C377 C 0.25939 0.02116 0.09699 0.0
C378 C 0.2442 0.04349 0.02507 0.0
C379 C 0.29484 0.10827 0.28476 0.0
C380 C 0.28933 0.11115 0.34331 0.0
C381 C 0.27156 0.1062 0.35997 0.0
C382 C 0.26007 0.09713 0.32011 0.0
C383 C 0.26664 0.0925 0.26374 0.0
C384 C 0.28359 0.09852 0.24653 0.0
C385 C 0.28932 0.09082 0.18823 0.0
C386 C 0.27326 0.07859 0.17404 0.0
C387 C 0.25996 0.07982 0.2178 0.0
C388 C 0.30703 0.07993 0.19856 0.0
C389 C 0.29113 0.10673 0.14355 0.0
C390 C 0.19868 0.05042 0.24611 0.0
C391 C 0.18868 0.03706 0.21641 0.0
C392 C 0.19673 0.02832 0.16762 0.0
C393 C 0.21428 0.03341 0.14786 0.0
C394 C 0.22392 0.04722 0.17762 0.0
C395 C 0.21602 0.05519 0.22647 0.0
C396 C 0.22819 0.06867 0.25606 0.0
C397 C 0.24423 0.06874 0.21459 0.0
C398 C 0.24202 0.05603 0.16854 0.0
C399 C 0.23315 0.06117 0.31822 0.0
C400 C 0.21856 0.08724 0.25677 0.0
H401 H 0.3049 0.0821 0.07808 0.0
H402 H 0.2821 0.02594 0.98277 0.0
H403 H 0.24622 0.05681 1.00286 0.0
H404 H 0.23021 0.0435 0.04211 0.0
H405 H 0.24534 0.03275 0.99102 0.0
H406 H 0.27142 0.01943 0.12607 0.0
H407 H 0.26057 0.01152 0.05963 0.0
H408 H 0.24741 0.01731 0.12346 0.0
H409 H 0.30856 0.11149 0.27095 0.0
H410 H 0.26702 0.10828 0.40492 0.0
H411 H 0.2469 0.09322 0.33588 0.0
H412 H 0.30659 0.07275 0.24184 0.0
H413 H 0.31911 0.089 0.19877 0.0
H414 H 0.30927 0.06912 0.16604 0.0
H415 H 0.28297 0.11863 0.15712 0.0
H416 H 0.28584 0.10314 0.09921 0.0
H417 H 0.30543 0.1114 0.1394 0.0
H418 H 0.32209 0.06884 1.00085 0.0
C419 C 0.29941 0.07005 0.05872 0.0
C420 C 0.4925 0.28873 0.01694 0.0
C421 C 0.48838 0.30742 0.01231 0.0
C422 C 0.47796 0.31549 0.05674 0.0
C423 C 0.47709 0.28743 0.11199 0.0
C424 C 0.48657 0.2789 0.06753 0.0
C425 C 0.4896 0.25904 0.08284 0.0
H426 H 0.4744 0.19071 0.28592 0.0
C427 C 0.47349 0.27435 0.15994 0.0
C428 C 0.48024 0.25733 0.14315 0.0
H429 H 0.50539 0.18575 0.12555 0.0
H430 H 0.49912 0.21749 0.10107 0.0
H431 H 0.49315 0.22239 0.32415 0.0
H432 H 0.44177 0.21677 0.23913 0.0
H433 H 0.43907 0.2327 0.29624 0.0
H434 H 0.44675 0.21019 0.31379 0.0
H435 H 0.4728 0.22029 0.36651 0.0
H436 H 0.48202 0.24211 0.34558 0.0
C437 C 0.51018 0.2558 0.0875 0.0
C438 C 0.48029 0.24717 0.03569 0.0
C439 C 0.45474 0.29805 0.35979 0.0
C440 C 0.45331 0.2895 0.41531 0.0
C441 C 0.45126 0.27054 0.41744 0.0
C442 C 0.45274 0.26019 0.36589 0.0
C443 C 0.45669 0.26889 0.31194 0.0
C444 C 0.4566 0.28752 0.30896 0.0
C445 C 0.46106 0.29446 0.24809 0.0
C446 C 0.46572 0.2769 0.21665 0.0
C447 C 0.46317 0.26209 0.25433 0.0
C448 C 0.47771 0.30739 0.25295 0.0
C449 C 0.44375 0.30337 0.22231 0.0
C450 C 0.47947 0.19623 0.24463 0.0
C451 C 0.48995 0.18561 0.20702 0.0
C452 C 0.49706 0.19365 0.15506 0.0
C453 C 0.49346 0.21204 0.14108 0.0
C454 C 0.48309 0.22257 0.18036 0.0
C455 C 0.47655 0.21442 0.23136 0.0
C456 C 0.46784 0.22744 0.27256 0.0
C457 C 0.4692 0.24474 0.23719 0.0
C458 C 0.478 0.24215 0.18248 0.0
C459 C 0.47936 0.22811 0.33031 0.0
C460 C 0.44782 0.2215 0.28149 0.0
H461 H 0.46461 0.31284 0.13822 0.0
H462 H 0.50038 0.28213 0.98302 0.0
H463 H 0.46601 0.25146 0.02916 0.0
H464 H 0.47987 0.23275 0.04839 0.0
H465 H 0.48743 0.24841 0.99264 0.0
H466 H 0.51675 0.26657 0.11458 0.0
H467 H 0.51657 0.256 0.04306 0.0
H468 H 0.51338 0.24284 0.10921 0.0
H469 H 0.45631 0.31259 0.3563 0.0
H470 H 0.44967 0.26363 0.45943 0.0
H471 H 0.45179 0.24578 0.37072 0.0
H472 H 0.48809 0.3016 0.28311 0.0
H473 H 0.47371 0.32078 0.27072 0.0
H474 H 0.48476 0.3097 0.21071 0.0
H475 H 0.43129 0.29937 0.24703 0.0
H476 H 0.44108 0.29905 0.17618 0.0
H477 H 0.4447 0.31838 0.22378 0.0
H478 H 0.47445 0.32969 0.05376 0.0
C479 C 0.47222 0.30564 0.10589 0.0
Gd480 Gd 0.02544 0.00959 0.71734 0.0
Gd481 Gd 0.99843 0.01984 0.63482 0.0
C482 C 0.00921 0.97932 0.62443 0.0
C483 C 0.04428 0.99215 0.79467 0.0
C484 C 0.05072 0.97336 0.7939 0.0
C485 C 0.05677 0.96557 0.74095 0.0
C486 C 0.0474 0.96221 0.84292 0.0
C487 C 0.05239 0.93549 0.78256 0.0
C488 C 0.04821 0.94341 0.83735 0.0
C489 C 0.05776 0.94678 0.73553 0.0
C490 C 0.04033 0.02208 0.61545 0.0
C491 C 0.01523 0.05075 0.72244 0.0
C492 C 0.97791 0.03788 0.56489 0.0
C493 C 0.96837 0.05462 0.5801 0.0
C494 C 0.96195 0.05715 0.63799 0.0
C495 C 0.96844 0.0692 0.54058 0.0
C496 C 0.95715 0.08907 0.618 0.0
C497 C 0.9629 0.08628 0.55932 0.0
C498 C 0.95629 0.07419 0.65664 0.0
C499 C 0.98388 1.00782 0.73822 0.0
O500 O 0.01722 0.98242 0.67587 0.0
O501 O 1.0024 0.99277 0.59367 0.0
O502 O 0.05154 1.00328 0.75626 0.0
O503 O 0.02665 0.99366 0.79764 0.0
O504 O 0.04582 0.02647 0.66794 0.0
O505 O 0.02679 0.01148 0.61893 0.0
O506 O 1.00744 0.04712 0.67131 0.0
O507 O 0.02185 0.03749 0.75475 0.0
O508 O 0.97235 0.02324 0.59219 0.0
O509 O 0.99558 0.03944 0.56397 0.0
O510 O 0.97815 1.00328 0.68635 0.0
O511 O 0.99734 0.0184 0.73325 0.0
H512 H 0.05937 0.97388 0.70229 0.0
H513 H 0.04263 0.96796 0.88401 0.0
H514 H 0.04385 0.93516 0.8744 0.0
H515 H 0.06132 0.94109 0.69309 0.0
H516 H 0.96211 0.04617 0.66981 0.0
H517 H 0.9737 0.0676 0.49625 0.0
H518 H 0.96412 0.09748 0.52859 0.0
H519 H 0.95181 0.07581 0.70184 0.0
Gd520 Gd 0.51937 0.0263 0.72944 0.0
Gd521 Gd 0.50511 1.00268 0.62432 0.0
C522 C 0.54865 0.00841 0.64197 0.0
C523 C 0.53128 0.04135 0.82407 0.0
C524 C 0.54996 0.04738 0.83673 0.0
C525 C 0.55973 0.05771 0.79504 0.0
C526 C 0.55932 0.03919 0.88341 0.0
C527 C 0.58816 0.04819 0.83936 0.0
C528 C 0.57823 0.03946 0.88453 0.0
C529 C 0.57866 0.05824 0.79671 0.0
C530 C 0.51677 0.04318 0.62353 0.0
C531 C 0.47599 0.01812 0.71857 0.0
C532 C 0.49115 0.99601 0.52284 0.0
C533 C 0.47561 1.00512 0.49426 0.0
C534 C 0.45774 1.00048 0.51041 0.0
C535 C 0.47851 0.02036 0.45795 0.0
C536 C 0.4465 0.02778 0.46338 0.0
C537 C 0.46409 0.03162 0.44292 0.0
C538 C 0.44335 0.01173 0.49525 0.0
C539 C 0.51295 0.98086 0.71863 0.0
O540 O 0.54562 0.01466 0.6959 0.0
O541 O 0.53521 1.00447 0.60499 0.0
O542 O 0.52236 0.05037 0.78355 0.0
O543 O 0.52958 0.02377 0.81839 0.0
O544 O 0.5298 0.0459 0.66098 0.0
O545 O 0.50538 0.03199 0.6446 0.0
O546 O 0.47872 0.01098 0.66581 0.0
O547 O 0.48952 0.02411 0.75207 0.0
O548 O 0.4873 0.98636 0.57001 0.0
O549 O 0.50591 1.0059 0.52923 0.0
O550 O 0.50745 0.97479 0.6678 0.0
O551 O 0.51457 0.99777 0.71423 0.0
H552 H 0.55289 0.06422 0.75845 0.0
H553 H 0.55208 0.03108 0.91582 0.0
H554 H 0.58491 0.03142 0.91799 0.0
H555 H 0.58582 0.06556 0.76227 0.0
H556 H 0.45495 0.98875 0.53787 0.0
H557 H 0.49207 0.0242 0.44408 0.0
H558 H 0.46678 0.04367 0.41706 0.0
H559 H 0.42992 0.00839 0.51158 0.0
Gd560 Gd 0.49953 0.52057 0.72717 0.0
Gd561 Gd 0.52 0.50757 0.62596 0.0
C562 C 0.51311 0.55079 0.63718 0.0
C563 C 0.48965 0.53174 0.82922 0.0
C564 C 0.49301 0.55042 0.85018 0.0
C565 C 0.48046 0.56398 0.83595 0.0
C566 C 0.51068 0.55562 0.86703 0.0
C567 C 0.50472 0.58636 0.83518 0.0
C568 C 0.51656 0.57344 0.85878 0.0
C569 C 0.48631 0.58182 0.82803 0.0
C570 C 0.47888 0.51736 0.62892 0.0
C571 C 0.50486 0.47691 0.71232 0.0
C572 C 0.53432 0.49622 0.52964 0.0
C573 C 0.53973 0.47743 0.51682 0.0
C574 C 0.55232 0.46851 0.55325 0.0
C575 C 0.5294 0.46721 0.4768 0.0
C576 C 0.5413 0.4393 0.51863 0.0
C577 C 0.53006 0.44834 0.47796 0.0
C578 C 0.55316 0.44963 0.5539 0.0
C579 C 0.53984 0.51116 0.72636 0.0
O580 O 0.50923 0.54771 0.69326 0.0
O581 O 0.51592 0.5371 0.60083 0.0
O582 O 0.47831 0.53027 0.78493 0.0
O583 O 0.50416 0.5219 0.82162 0.0
O584 O 0.47725 0.53013 0.66759 0.0
O585 O 0.49072 0.5061 0.64551 0.0
O586 O 0.51125 0.48014 0.65891 0.0
O587 O 0.5003 0.4904 0.74755 0.0
O588 O 0.5437 0.50478 0.57008 0.0
O589 O 0.51683 0.49848 0.53568 0.0
O590 O 0.54079 0.49744 0.69111 0.0
O591 O 0.52856 0.52246 0.70671 0.0
H592 H 0.46664 0.56048 0.82394 0.0
H593 H 0.52056 0.54561 0.88011 0.0
H594 H 0.5307 0.57678 0.86655 0.0
H595 H 0.4768 0.59156 0.81053 0.0
H596 H 0.56062 0.47598 0.58446 0.0
H597 H 0.51959 0.47373 0.44833 0.0
H598 H 0.52062 0.44093 0.45026 0.0
H599 H 0.56234 0.44314 0.58456 0.0
Gd600 Gd 1.00503 0.50582 0.71783 0.0
Gd601 Gd 0.02055 0.52823 0.61011 0.0
C602 C 0.97742 0.52476 0.61836 0.0
C603 C 0.98418 0.49568 0.80242 0.0
C604 C 0.96511 0.50132 0.80973 0.0
C605 C 0.95113 0.49064 0.78533 0.0
C606 C 0.96121 0.51911 0.82735 0.0
C607 C 0.93155 0.51688 0.78134 0.0
C608 C 0.94463 0.52687 0.81275 0.0
C609 C 0.93446 0.49837 0.77118 0.0
C610 C 0.0176 0.48593 0.62681 0.0
C611 C 0.04739 0.51189 0.71324 0.0
C612 C 0.03934 0.53334 0.51611 0.0
C613 C 0.05523 0.52252 0.50002 0.0
C614 C 0.07071 0.53054 0.4748 0.0
C615 C 0.05608 0.5046 0.52021 0.0
C616 C 0.08776 0.5029 0.49313 0.0
C617 C 0.07201 0.49482 0.51623 0.0
C618 C 0.0869 0.52075 0.47114 0.0
C619 C 0.01384 0.5508 0.70238 0.0
O620 O 0.9799 0.51599 0.66919 0.0
O621 O 0.99113 0.53091 0.58586 0.0
O622 O 0.98724 0.48552 0.75618 0.0
O623 O 0.99653 0.50842 0.80903 0.0
O624 O 0.01899 0.48108 0.68191 0.0
O625 O 0.00911 0.50068 0.62307 0.0
O626 O 0.04492 0.51585 0.65661 0.0
O627 O 0.03357 0.50942 0.74967 0.0
O628 O 0.0417 0.54303 0.56379 0.0
O629 O 0.02368 0.52475 0.51551 0.0
O630 O 0.01937 0.55639 0.65095 0.0
O631 O 0.0115 0.53393 0.69953 0.0
H632 H 0.95362 0.4768 0.77204 0.0
H633 H 0.97143 0.52756 0.84803 0.0
H634 H 0.94242 0.54098 0.8233 0.0
H635 H 0.92452 0.49026 0.74769 0.0
H636 H 0.07048 0.54454 0.46039 0.0
H637 H 0.04464 0.49841 0.54195 0.0
H638 H 0.07206 0.48101 0.53249 0.0
H639 H 0.09886 0.52736 0.45327 0.0
H640 H 0.17431 1.00367 0.24539 0.0
H641 H 0.14587 0.99759 0.2991 0.0
H642 H 0.13338 0.05452 0.29391 0.0
H643 H 0.16142 0.06052 0.23989 0.0
H644 H 0.13814 0.01079 0.40818 0.0
H645 H 0.08447 0.03276 0.25432 0.0
H646 H 0.10737 0.02843 0.23028 0.0
H647 H 0.10167 0.04987 0.26285 0.0
C648 C 0.16518 0.01476 0.25412 0.0
C649 C 0.17009 0.03256 0.23835 0.0
C650 C 0.14899 0.01131 0.28518 0.0
C651 C 0.1373 0.02557 0.30021 0.0
C652 C 0.14186 0.04321 0.28195 0.0
H653 H 0.07167 0.04153 0.60635 0.0
H654 H 0.09407 0.0409 0.52692 0.0
C655 C 0.158 0.04665 0.25134 0.0
C656 C 0.12145 0.02254 0.34032 0.0
H657 H 0.07645 0.0323 0.35795 0.0
C658 C 0.1246 0.01523 0.39671 0.0
C659 C 0.10366 0.02814 0.32557 0.0
C660 C 0.09903 0.03506 0.26471 0.0
C661 C 0.11079 0.01423 0.43948 0.0
C662 C 0.09333 0.02098 0.42605 0.0
C663 C 0.08988 0.02739 0.36869 0.0
C664 C 0.07889 0.02224 0.47203 0.0
C665 C 0.11508 1.00612 0.49907 0.0
C666 C 0.06245 0.01257 0.46668 0.0
C667 C 0.04949 0.01299 0.51221 0.0
C668 C 0.05271 0.02317 0.5637 0.0
C669 C 0.06881 0.03344 0.56755 0.0
C670 C 0.08171 0.033 0.52227 0.0
H671 H 0.12699 0.99703 0.49687 0.0
H672 H 0.11834 0.01717 0.53056 0.0
H673 H 0.10333 0.99833 0.51672 0.0
H674 H 0.05988 1.00429 0.42811 0.0
H675 H 0.03722 1.00493 0.50788 0.0
H676 H 0.46589 0.15899 0.23697 0.0
H677 H 0.47203 0.13178 0.2954 0.0
H678 H 0.52941 0.14281 0.28373 0.0
H679 H 0.52325 0.17028 0.22558 0.0
H680 H 0.49294 0.09999 0.284 0.0
H681 H 0.51902 0.14479 0.4622 0.0
H682 H 0.50696 0.15342 0.3989 0.0
H683 H 0.53035 0.14711 0.39233 0.0
C684 C 0.47985 0.15531 0.24536 0.0
C685 C 0.49409 0.16679 0.22665 0.0
C686 C 0.48335 0.13978 0.27901 0.0
C687 C 0.50116 0.13541 0.29521 0.0
C688 C 0.51552 0.14606 0.27272 0.0
H689 H 0.54253 0.06327 0.56807 0.0
H690 H 0.53898 0.08396 0.4846 0.0
C691 C 0.51202 0.16162 0.23874 0.0
C692 C 0.50439 0.12073 0.33958 0.0
H693 H 0.51932 0.11348 0.48068 0.0
C694 C 0.49882 0.1029 0.3269 0.0
C695 C 0.51184 0.12451 0.39594 0.0
C696 C 0.51726 0.1435 0.41365 0.0
C697 C 0.50079 0.08877 0.36847 0.0
C698 C 0.50815 0.09258 0.42503 0.0
C699 C 0.51374 0.11043 0.43747 0.0
C700 C 0.51035 0.07847 0.47224 0.0
C701 C 0.4951 0.06989 0.35079 0.0
C702 C 0.49552 0.06816 0.49325 0.0
C703 C 0.49759 0.05607 0.54094 0.0
C704 C 0.51448 0.05429 0.56915 0.0
C705 C 0.52932 0.06435 0.54741 0.0
C706 C 0.5273 0.07623 0.49962 0.0
H707 H 0.49622 0.06798 0.30227 0.0
H708 H 0.50334 0.0594 0.3732 0.0
H709 H 0.48067 0.06783 0.36295 0.0
H710 H 0.48221 0.06988 0.47401 0.0
H711 H 0.48587 0.04863 0.55703 0.0
H712 H 0.34185 0.51237 0.27177 0.0
H713 H 0.36718 0.52194 0.33528 0.0
H714 H 0.40112 0.48147 0.25573 0.0
H715 H 0.37614 0.47237 0.19138 0.0
H716 H 0.3815 0.50047 0.41734 0.0
H717 H 0.43714 0.52188 0.26874 0.0
H718 H 0.41405 0.51936 0.24331 0.0
H719 H 0.42852 0.49991 0.2496 0.0
C720 C 0.35497 0.50612 0.26604 0.0
C721 C 0.35699 0.49166 0.22642 0.0
C722 C 0.3694 0.51143 0.30288 0.0
C723 C 0.3862 0.5025 0.30047 0.0
C724 C 0.38854 0.48888 0.258 0.0
H725 H 0.47772 0.49027 0.545 0.0
H726 H 0.45566 0.48685 0.46379 0.0
C727 C 0.37417 0.48362 0.22122 0.0
C728 C 0.4004 0.50572 0.3467 0.0
H729 H 0.44575 0.51391 0.36795 0.0
C730 C 0.39549 0.50364 0.40637 0.0
C731 C 0.41877 0.50967 0.33282 0.0
C732 C 0.4249 0.51301 0.27015 0.0
C733 C 0.40837 0.50503 0.45205 0.0
C734 C 0.42674 0.50872 0.43811 0.0
C735 C 0.43171 0.5109 0.37862 0.0
C736 C 0.44072 0.51106 0.48521 0.0
C737 C 0.40231 0.50219 0.51507 0.0
C738 C 0.43985 0.52591 0.52353 0.0
C739 C 0.4524 0.52791 0.56947 0.0
C740 C 0.46614 0.51507 0.57845 0.0
C741 C 0.46726 0.50033 0.53939 0.0
C742 C 0.45469 0.4984 0.49296 0.0
H743 H 0.38869 0.49568 0.51761 0.0
H744 H 0.41214 0.49367 0.53952 0.0
H745 H 0.40162 0.51549 0.53757 0.0
H746 H 0.42936 0.53596 0.51807 0.0
H747 H 0.45121 0.53949 0.5984 0.0
H748 H 1.00533 0.34907 0.30508 0.0
H749 H 1.00319 0.3783 0.35398 0.0
H750 H 0.05087 0.39696 0.26076 0.0
H751 H 0.05341 0.36706 0.21355 0.0
H752 H 0.05477 0.40432 0.37083 0.0
H753 H 0.98619 0.42715 0.31421 0.0
H754 H 0.98461 0.4048 0.34457 0.0
H755 H 0.9967 0.40855 0.27621 0.0
C756 C 0.01493 0.35966 0.2933 0.0
C757 C 0.02928 0.35598 0.25452 0.0
C758 C 0.0137 0.37645 0.32127 0.0
C759 C 0.02664 0.39015 0.31053 0.0
C760 C 0.0406 0.38674 0.26959 0.0
H761 H 1.00795 0.49061 0.5108 0.0
H762 H 0.01206 0.46947 0.42879 0.0
C763 C 0.04195 0.36975 0.24197 0.0
C764 C 0.02659 0.40702 0.34719 0.0
H765 H 0.99821 0.43826 0.40782 0.0
C766 C 0.04246 0.41194 0.37796 0.0
C767 C 0.01073 0.41739 0.35602 0.0
C768 C 0.9937 0.4143 0.32036 0.0
C769 C 0.04261 0.42612 0.41943 0.0
C770 C 0.02626 0.43526 0.43252 0.0
C771 C 0.01069 0.43107 0.39921 0.0
C772 C 0.02481 0.44867 0.48176 0.0
C773 C 0.06037 0.43117 0.44846 0.0
C774 C 0.03048 0.44415 0.53927 0.0
C775 C 0.02844 0.45638 0.58596 0.0
C776 C 0.02034 0.4733 0.57662 0.0
C777 C 0.01441 0.47776 0.51935 0.0
C778 C 0.01671 0.46563 0.47242 0.0
H779 H 0.07202 0.42814 0.41908 0.0
H780 H 0.06092 0.44576 0.46018 0.0
H781 H 0.06205 0.42303 0.48934 0.0
H782 H 0.03617 0.43098 0.54849 0.0
H783 H 0.03297 0.45246 0.62965 0.0
H784 H 0.87279 0.97959 0.17861 0.0
H785 H 0.90161 0.98608 0.12831 0.0
H786 H 0.87384 0.02183 0.00811 0.0
H787 H 0.84536 0.01585 0.05985 0.0
H788 H 0.90824 0.9762 0.02169 0.0
H789 H 0.91946 0.05004 0.02514 0.0
H790 H 0.90323 0.03903 0.07318 0.0
H791 H 0.89712 0.04497 0.99847 0.0
C792 C 0.87311 0.98963 0.14364 0.0
C793 C 0.85695 0.99765 0.12429 0.0
C794 C 0.88954 0.99315 0.11421 0.0
C795 C 0.89012 1.0046 0.06434 0.0
C796 C 0.87408 0.01339 0.04726 0.0
H797 H 0.95183 0.98962 0.74829 0.0
H798 H 0.93099 0.98891 0.83186 0.0
C799 C 0.85773 0.01002 0.07707 0.0
C800 C 0.90658 1.00531 0.02543 0.0
H801 H 0.93353 0.03394 0.94397 0.0
C802 C 0.91393 0.98888 1.00567 0.0
C803 C 0.91435 0.02176 1.00456 0.0
C804 C 0.90824 0.03992 0.02702 0.0
C805 C 0.92807 0.98843 0.964 0.0
C806 C 0.93485 1.00484 0.9397 0.0
C807 C 0.92819 0.0213 0.9616 0.0
C808 C 0.94803 1.00512 0.88936 0.0
C809 C 0.93555 0.97027 0.94634 0.0
C810 C 0.96451 0.01483 0.89276 0.0
C811 C 0.97649 0.01539 0.84439 0.0
C812 C 0.97214 1.00635 0.79152 0.0
C813 C 0.9557 0.99661 0.78844 0.0
C814 C 0.94377 0.99611 0.83649 0.0
H815 H 0.93373 0.96011 0.98218 0.0
H816 H 0.9281 0.96524 0.90698 0.0
H817 H 0.9502 0.97123 0.9353 0.0
H818 H 0.9681 0.02201 0.93281 0.0
H819 H 0.98899 0.02311 0.84804 0.0
H820 H 0.54482 0.8696 0.15519 0.0
H821 H 0.5454 0.89772 0.09718 0.0
H822 H 0.48863 0.89047 0.05702 0.0
H823 H 0.48803 0.86277 0.11621 0.0
H824 H 0.54065 0.89786 0.98289 0.0
H825 H 0.48971 0.94416 0.07501 0.0
H826 H 0.49799 0.92489 0.11585 0.0
H827 H 0.48002 0.92217 0.06254 0.0
C828 C 0.53225 0.87464 0.13692 0.0
C829 C 0.51625 0.86428 0.14178 0.0
C830 C 0.53262 0.89057 0.10286 0.0
C831 C 0.51703 0.89644 0.07263 0.0
C832 C 0.50075 0.88668 0.08084 0.0
H833 H 0.51182 0.94415 0.72581 0.0
H834 H 0.51398 0.92502 0.81371 0.0
C835 C 0.50037 0.87084 0.11514 0.0
C836 C 0.51832 0.91096 0.02625 0.0
H837 H 0.49722 0.94865 0.97185 0.0
C838 C 0.5313 0.90911 0.98121 0.0
C839 C 0.50632 0.92586 0.02368 0.0
C840 C 0.49287 0.9295 0.07225 0.0
C841 C 0.53212 0.92115 0.93291 0.0
C842 C 0.51933 0.9353 0.92828 0.0
C843 C 0.50688 0.93769 0.9746 0.0
C844 C 0.51821 0.94719 0.87468 0.0
C845 C 0.54675 0.91853 0.88723 0.0
C846 C 0.51937 0.96617 0.87923 0.0
C847 C 0.51801 0.9772 0.82866 0.0
C848 C 0.51538 0.9695 0.77252 0.0
C849 C 0.51408 0.95054 0.76822 0.0
C850 C 0.51541 0.93955 0.81857 0.0
H851 H 0.55864 0.91141 0.90619 0.0
H852 H 0.54131 0.91009 0.85072 0.0
H853 H 0.55142 0.93168 0.86853 0.0
H854 H 0.52133 0.97247 0.92194 0.0
H855 H 0.51865 0.99172 0.83371 0.0
H856 H 0.6679 0.50271 0.10795 0.0
H857 H 0.64035 0.4989 0.04807 0.0
H858 H 0.62723 0.55501 0.07578 0.0
H859 H 0.65497 0.55894 0.13418 0.0
H860 H 0.60318 0.50406 0.05794 0.0
H861 H 0.63266 0.55314 0.89792 0.0
H862 H 0.64552 0.54406 0.95879 0.0
H863 H 0.62979 0.56218 0.97076 0.0
C864 C 0.65877 0.51404 0.10309 0.0
C865 C 0.66355 0.5311 0.12606 0.0
C866 C 0.6431 0.51191 0.0683 0.0
C867 C 0.63193 0.5268 0.0558 0.0
C868 C 0.63584 0.54342 0.08328 0.0
H869 H 0.54433 0.54158 0.79504 0.0
H870 H 0.56517 0.54564 0.87905 0.0
C871 C 0.65156 0.5456 0.1175 0.0
C872 C 0.61712 0.52532 0.01068 0.0
H873 H 0.60317 0.54225 0.87725 0.0
C874 C 0.60318 0.51244 0.01852 0.0
C875 C 0.61706 0.53618 0.95883 0.0
C876 C 0.63213 0.54955 0.94559 0.0
C877 C 0.5892 0.51025 0.97646 0.0
C878 C 0.58923 0.52104 0.92458 0.0
C879 C 0.60303 0.53406 0.9171 0.0
C880 C 0.57573 0.51838 0.87591 0.0
C881 C 0.57441 0.49648 0.98821 0.0
C882 C 0.57475 0.5018 0.84576 0.0
C883 C 0.56293 0.49951 0.79784 0.0
C884 C 0.5518 0.51375 0.77867 0.0
C885 C 0.55265 0.53033 0.80899 0.0
C886 C 0.56458 0.53266 0.85692 0.0
H887 H 0.57332 0.4932 0.03601 0.0
H888 H 0.56107 0.50141 0.97234 0.0
H889 H 0.57757 0.48379 0.96435 0.0
H890 H 0.58344 0.49071 0.85848 0.0
H891 H 0.56265 0.48658 0.77535 0.0
H892 H 0.01255 0.68498 0.04907 0.0
H893 H 0.01953 0.65788 0.99135 0.0
H894 H 0.97943 0.62756 0.08984 0.0
H895 H 0.97196 0.65489 0.1458 0.0
H896 H 0.03009 0.62316 1.00559 0.0
H897 H 0.95885 0.62407 0.92614 0.0
H898 H 0.96836 0.64202 0.97048 0.0
H899 H 0.9609 0.6212 1.00453 0.0
C900 C 1.00577 0.67234 0.05994 0.0
C901 C 0.99184 0.67198 0.10221 0.0
C902 C 0.00962 0.65687 0.02651 0.0
C903 C 0.99961 0.64076 0.03481 0.0
C904 C 0.98697 0.63993 0.08123 0.0
H905 H 0.99766 0.54297 0.80914 0.0
H906 H 0.99441 0.56322 0.89474 0.0
C907 C 0.98293 0.65546 0.11404 0.0
C908 C 1.00132 0.62555 0.9917 0.0
H909 H 0.97734 0.60077 0.88992 0.0
C910 C 0.01852 0.61821 0.98066 0.0
C911 C 0.98625 0.61909 0.95847 0.0
C912 C 0.96758 0.62709 0.96495 0.0
C913 C 0.02105 0.60479 0.93738 0.0
C914 C 1.00604 0.59852 0.90406 0.0
C915 C 0.9888 0.60548 0.91592 0.0
C916 C 1.0082 0.58591 0.85336 0.0
C917 C 0.03981 0.5975 0.927 0.0
C918 C 0.01672 0.59199 0.80151 0.0
C919 C 0.01832 0.58054 0.75269 0.0
C920 C 0.01156 0.56268 0.75465 0.0
C921 C 1.00303 0.55657 0.80655 0.0
C922 C 1.0012 0.56814 0.85537 0.0
H923 H 0.04916 0.60078 0.96404 0.0
H924 H 0.03933 0.58258 0.92104 0.0
H925 H 0.04545 0.60358 0.88598 0.0
H926 H 0.02199 0.6057 0.79861 0.0
H927 H 0.02498 0.58568 0.71337 0.0
H928 H 0.98623 0.19613 0.42497 0.0
H929 H 0.97854 0.18175 0.51833 0.0
H930 H 0.97158 0.23407 0.59913 0.0
H931 H 0.979 0.24879 0.50408 0.0
H932 H 0.99699 0.18946 0.63718 0.0
H933 H 0.92292 0.20215 0.62815 0.0
H934 H 0.93525 0.20342 0.5595 0.0
H935 H 0.93963 0.21983 0.61618 0.0
C936 C 0.9829 0.20464 0.46225 0.0
C937 C 0.98297 0.22357 0.457 0.0
C938 C 0.9787 0.19642 0.51576 0.0
C939 C 0.97454 0.20688 0.56545 0.0
C940 C 0.97477 0.22582 0.56112 0.0
H941 H 0.96609 0.10385 0.72596 0.0
H942 H 0.96606 0.13589 0.75221 0.0
C943 C 0.97905 0.23415 0.50704 0.0
C944 C 0.96948 0.19713 0.62002 0.0
H945 H 0.93219 0.17312 0.66264 0.0
C946 C 0.98284 0.18624 0.64557 0.0
C947 C 0.95107 0.19345 0.63217 0.0
C948 C 0.9363 0.20536 0.60801 0.0
C949 C 0.97824 0.16961 0.67183 0.0
C950 C 0.95974 0.16422 0.67362 0.0
C951 C 0.94638 0.17703 0.65973 0.0
C952 C 0.95466 0.14477 0.6689 0.0
C953 C 0.99337 0.15701 0.68897 0.0
C954 C 0.9466 0.13889 0.61595 0.0
C955 C 0.94601 0.12058 0.60171 0.0
C956 C 0.95377 0.10773 0.63958 0.0
C957 C 0.96013 0.11339 0.69537 0.0
C958 C 0.96034 0.13179 0.71024 0.0
H959 H 1.00697 0.16337 0.68347 0.0
H960 H 0.99183 0.15302 0.73592 0.0
H961 H 0.99286 0.14459 0.66149 0.0
H962 H 0.94194 0.14855 0.5833 0.0
H963 H 0.94043 0.11663 0.55934 0.0
H964 H 0.31632 0.13695 0.34221 0.0
H965 H 0.34653 0.1316 0.3831 0.0
H966 H 0.32549 0.08631 0.48288 0.0
H967 H 0.29541 0.0916 0.44275 0.0
H968 H 0.35849 0.10308 0.5315 0.0
H969 H 0.36187 0.08471 0.29294 0.0
H970 H 0.35681 0.1079 0.30963 0.0
H971 H 0.34083 0.09035 0.32859 0.0
C972 C 0.31795 0.12653 0.37554 0.0
C973 C 0.30367 0.11436 0.38798 0.0
C974 C 0.33523 0.12344 0.39867 0.0
C975 C 0.33828 0.10819 0.43428 0.0
C976 C 0.32342 0.09805 0.45494 0.0
H977 H 0.4114 0.02125 0.4305 0.0
H978 H 0.38661 0.04304 0.42538 0.0
C979 C 0.30614 0.10117 0.43209 0.0
C980 C 0.35648 0.1 0.43725 0.0
H981 H 0.38594 0.07576 0.35286 0.0
C982 C 0.36475 0.09742 0.49242 0.0
C983 C 0.3643 0.09226 0.3861 0.0
C984 C 0.3555 0.09377 0.32595 0.0
C985 C 0.38049 0.08694 0.49792 0.0
C986 C 0.38804 0.07897 0.44691 0.0
C987 C 0.38009 0.08201 0.39167 0.0
C988 C 0.40321 0.06609 0.45026 0.0
C989 C 0.38843 0.08364 0.55838 0.0
C990 C 0.42076 0.07196 0.4649 0.0
C991 C 0.43494 0.05956 0.46761 0.0
C992 C 0.43177 0.0411 0.45575 0.0
C993 C 0.41421 0.03535 0.44021 0.0
C994 C 0.40007 0.04776 0.43724 0.0
H995 H 0.37966 0.08894 0.59417 0.0
H996 H 0.39047 0.06892 0.56566 0.0
H997 H 0.40189 0.09041 0.56145 0.0
H998 H 0.42345 0.08611 0.47435 0.0
H999 H 0.44829 0.06434 0.48049 0.0
H1000 H 0.44315 0.32398 0.44476 0.0
H1001 H 0.46131 0.34445 0.50528 0.0
H1002 H 0.49236 0.29934 0.57017 0.0
H1003 H 0.47504 0.27892 0.50693 0.0
H1004 H 0.4756 0.35077 0.61663 0.0
H1005 H 0.52824 0.3249 0.46201 0.0
H1006 H 0.50472 0.31864 0.45448 0.0
H1007 H 0.51821 0.30896 0.51256 0.0
C1008 C 0.45348 0.31833 0.47322 0.0
C1009 C 0.45814 0.29996 0.46907 0.0
C1010 C 0.46379 0.33003 0.50819 0.0
C1011 C 0.47867 0.32346 0.54022 0.0
C1012 C 0.48128 0.30472 0.54425 0.0
H1013 H 0.54271 0.42106 0.62469 0.0
H1014 H 0.53252 0.3901 0.64439 0.0
C1015 C 0.47117 0.29302 0.50845 0.0
C1016 C 0.49314 0.3364 0.55762 0.0
H1017 H 0.53412 0.35216 0.50878 0.0
C1018 C 0.48861 0.35094 0.59432 0.0
C1019 C 0.51014 0.33647 0.52836 0.0
C1020 C 0.51568 0.3215 0.48688 0.0
C1021 C 0.49983 0.36635 0.59819 0.0
C1022 C 0.51616 0.36697 0.56518 0.0
C1023 C 0.52153 0.35165 0.5335 0.0
C1024 C 0.52593 0.38423 0.55346 0.0
C1025 C 0.49335 0.38227 0.63391 0.0
C1026 C 0.52714 0.39059 0.49506 0.0
C1027 C 0.53361 0.408 0.48316 0.0
C1028 C 0.5387 0.41957 0.52955 0.0
C1029 C 0.53891 0.41261 0.58764 0.0
C1030 C 0.53277 0.39499 0.59933 0.0
H1031 H 0.47901 0.38065 0.64814 0.0
H1032 H 0.50182 0.38352 0.67424 0.0
H1033 H 0.4946 0.39505 0.60825 0.0
H1034 H 0.52219 0.3824 0.4587 0.0
H1035 H 0.53378 0.41267 0.43778 0.0
H1036 H 0.23754 0.44403 0.39091 0.0
H1037 H 0.21276 0.45202 0.45501 0.0
H1038 H 0.18706 0.40031 0.42143 0.0
H1039 H 0.21177 0.39255 0.35415 0.0
H1040 H 0.16621 0.42474 0.387 0.0
H1041 H 0.18794 0.4469 0.60676 0.0
H1042 H 0.20259 0.45786 0.55465 0.0
H1043 H 0.20251 0.43344 0.56053 0.0
C1044 C 0.22713 0.43392 0.39938 0.0
C1045 C 0.22647 0.41775 0.36682 0.0
C1046 C 0.21288 0.4385 0.43666 0.0
C1047 C 0.1979 0.42682 0.44327 0.0
C1048 C 0.19841 0.40961 0.4168 0.0
H1049 H 0.1011 0.48131 0.58103 0.0
H1050 H 0.12704 0.46099 0.57576 0.0
C1051 C 0.21253 0.40516 0.37843 0.0
C1052 C 0.18046 0.43436 0.46437 0.0
H1053 H 0.1633 0.4652 0.56108 0.0
C1054 C 0.16548 0.43313 0.42616 0.0
C1055 C 0.17918 0.44519 0.51572 0.0
C1056 C 0.19391 0.44571 0.5619 0.0
C1057 C 0.14996 0.44353 0.43511 0.0
C1058 C 0.14965 0.456 0.4823 0.0
C1059 C 0.16386 0.4561 0.5236 0.0
C1060 C 0.13495 0.46938 0.4878 0.0
C1061 C 0.13424 0.44134 0.3929 0.0
C1062 C 0.13126 0.48135 0.44101 0.0
C1063 C 0.11628 0.49276 0.44341 0.0
C1064 C 0.10488 0.49253 0.493 0.0
C1065 C 0.10935 0.4814 0.54146 0.0
C1066 C 0.12424 0.4699 0.5388 0.0
H1067 H 0.13401 0.42762 0.37285 0.0
H1068 H 0.12107 0.4436 0.41536 0.0
H1069 H 0.13565 0.45134 0.35648 0.0
H1070 H 0.13971 0.4815 0.40189 0.0
H1071 H 0.11325 0.50121 0.40555 0.0
H1072 H 0.93333 0.82388 0.87654 0.0
H1073 H 0.94957 0.84394 0.80813 0.0
H1074 H 0.99617 0.80906 0.81719 0.0
H1075 H 0.97989 0.78885 0.88323 0.0
H1076 H 0.97628 0.86051 0.85715 0.0
H1077 H 1.00379 0.82932 0.65622 0.0
H1078 H 0.98523 0.81916 0.69694 0.0
H1079 H 0.00841 0.81495 0.71817 0.0
C1080 C 0.94671 0.82008 0.86149 0.0
C1081 C 0.95543 0.80497 0.88582 0.0
C1082 C 0.95598 0.83151 0.82232 0.0
C1083 C 0.97418 0.82812 0.80774 0.0
C1084 C 0.98208 0.81188 0.82658 0.0
H1085 H 0.05746 0.90587 0.85467 0.0
H1086 H 0.04022 0.87742 0.8494 0.0
C1087 C 0.97272 0.80031 0.86488 0.0
C1088 C 0.98612 0.84318 0.78774 0.0
H1089 H 0.02277 0.8533 0.70086 0.0
C1090 C 0.98612 0.85901 0.82194 0.0
C1091 C 0.99905 0.84136 0.74194 0.0
C1092 C 0.99896 0.82532 0.70092 0.0
C1093 C 0.99922 0.87255 0.81393 0.0
C1094 C 0.01304 0.87003 0.77166 0.0
C1095 C 0.01249 0.85482 0.73469 0.0
C1096 C 0.02769 0.88361 0.76536 0.0
C1097 C 0.99833 0.88936 0.85171 0.0
C1098 C 0.02726 0.89575 0.71793 0.0
C1099 C 0.03694 0.91201 0.72115 0.0
C1100 C 0.04727 0.91631 0.77156 0.0
C1101 C 0.04939 0.90308 0.8157 0.0
C1102 C 0.03965 0.8868 0.81256 0.0
H1103 H 0.98473 0.89104 0.87199 0.0
H1104 H 0.00843 0.88835 0.8879 0.0
H1105 H 1.00156 0.90167 0.82533 0.0
H1106 H 0.01814 0.89348 0.68113 0.0
H1107 H 0.03484 0.92195 0.68695 0.0
H1108 H 0.74203 0.97164 0.89287 0.0
H1109 H 0.72406 0.98987 0.82623 0.0
H1110 H 0.67634 0.9589 0.87284 0.0
H1111 H 0.6946 0.93899 0.93361 0.0
H1112 H 0.67105 0.97403 0.77203 0.0
H1113 H 0.69948 0.02694 0.92172 0.0
H1114 H 0.71549 0.01674 0.87283 0.0
H1115 H 0.70492 1.00341 0.93029 0.0
C1116 C 0.72793 0.96793 0.88694 0.0
C1117 C 0.71959 0.95436 0.92191 0.0
C1118 C 0.71756 0.97872 0.84933 0.0
C1119 C 0.69866 0.97662 0.84798 0.0
C1120 C 0.69085 0.96126 0.87479 0.0
H1121 H 0.61387 0.04312 0.92572 0.0
H1122 H 0.64307 0.02861 0.91363 0.0
C1123 C 0.70132 0.94999 0.91045 0.0
C1124 C 0.68671 0.99158 0.82841 0.0
H1125 H 0.67445 0.0346 0.86563 0.0
C1126 C 0.67192 0.98738 0.79173 0.0
C1127 C 0.68784 0.00904 0.85442 0.0
C1128 C 0.70267 0.01432 0.89733 0.0
C1129 C 0.65746 0.99944 0.78471 0.0
C1130 C 0.6583 0.01661 0.81251 0.0
C1131 C 0.67387 0.02144 0.84447 0.0
C1132 C 0.64211 0.02829 0.81793 0.0
C1133 C 0.64081 0.99302 0.7518 0.0
C1134 C 0.63227 0.03393 0.76826 0.0
C1135 C 0.61514 0.04159 0.77512 0.0
C1136 C 0.60782 0.04431 0.83193 0.0
C1137 C 0.61873 0.04065 0.88138 0.0
C1138 C 0.63559 0.03252 0.87447 0.0
H1139 H 0.64123 0.97832 0.74169 0.0
H1140 H 0.62834 0.99573 0.77766 0.0
H1141 H 0.6399 1.00048 0.70945 0.0
H1142 H 0.63737 0.03154 0.72417 0.0
H1143 H 0.60724 0.04422 0.73574 0.0
H1144 H 0.5493 0.74271 0.81584 0.0
H1145 H 0.5527 0.72081 0.73525 0.0
H1146 H 0.50084 0.69707 0.78121 0.0
H1147 H 0.49756 0.71875 0.86072 0.0
H1148 H 0.55643 0.68748 0.77054 0.0
H1149 H 0.50176 0.68431 0.60954 0.0
H1150 H 0.50826 0.7054 0.64454 0.0
H1151 H 0.49123 0.69077 0.67742 0.0
C1152 C 0.53837 0.73323 0.80684 0.0
C1153 C 0.52333 0.73204 0.84477 0.0
C1154 C 0.54024 0.72085 0.7606 0.0
C1155 C 0.52699 0.70736 0.75159 0.0
C1156 C 0.5111 0.70755 0.78592 0.0
H1157 H 0.49027 0.6201 0.84476 0.0
H1158 H 0.50051 0.64773 0.79523 0.0
C1159 C 0.50933 0.71973 0.83225 0.0
C1160 C 0.53156 0.69026 0.72137 0.0
H1161 H 0.50599 0.65511 0.67067 0.0
C1162 C 0.54594 0.68041 0.74587 0.0
C1163 C 0.51844 0.68105 0.68703 0.0
C1164 C 0.50421 0.69109 0.6526 0.0
C1165 C 0.54506 0.66148 0.74923 0.0
C1166 C 0.52964 0.65251 0.72609 0.0
C1167 C 0.51742 0.66214 0.69057 0.0
C1168 C 0.52339 0.63521 0.75193 0.0
C1169 C 0.55916 0.65159 0.785 0.0
C1170 C 0.53307 0.61914 0.74475 0.0
C1171 C 0.52741 0.6034 0.77398 0.0
C1172 C 0.51186 0.60349 0.81016 0.0
C1173 C 0.50225 0.61963 0.81713 0.0
C1174 C 0.50799 0.63534 0.7884 0.0
H1175 H 0.57015 0.66075 0.80077 0.0
H1176 H 0.55271 0.64502 0.82396 0.0
H1177 H 0.56535 0.64083 0.75771 0.0
H1178 H 0.54485 0.61874 0.71629 0.0
H1179 H 0.5348 0.591 0.76653 0.0
H1180 H 0.78725 0.58831 0.82414 0.0
H1181 H 0.80872 0.59091 0.74155 0.0
H1182 H 0.81757 0.53322 0.7499 0.0
H1183 H 0.79626 0.53072 0.83119 0.0
H1184 H 0.84186 0.58397 0.77103 0.0
H1185 H 0.82899 0.54117 0.57949 0.0
H1186 H 0.81066 0.54955 0.62474 0.0
H1187 H 0.82161 0.5284 0.64243 0.0
C1188 C 0.79325 0.57616 0.80631 0.0
C1189 C 0.79049 0.55937 0.83426 0.0
C1190 C 0.80539 0.57762 0.75896 0.0
C1191 C 0.81472 0.56227 0.73899 0.0
C1192 C 0.81031 0.54523 0.76312 0.0
H1193 H 0.89643 0.50485 0.77782 0.0
H1194 H 0.87018 0.52081 0.73868 0.0
C1195 C 0.79835 0.54382 0.81043 0.0
C1196 C 0.83237 0.56418 0.70824 0.0
H1197 H 0.85976 0.53643 0.62901 0.0
C1198 C 0.84581 0.57421 0.73784 0.0
C1199 C 0.83759 0.55194 0.6636 0.0
C1200 C 0.82383 0.54235 0.62541 0.0
C1201 C 0.86411 0.56955 0.73327 0.0
C1202 C 0.86894 0.55485 0.69668 0.0
C1203 C 0.85592 0.54729 0.65856 0.0
C1204 C 0.88547 0.54434 0.70928 0.0
C1205 C 0.87764 0.5787 0.77378 0.0
C1206 C 0.9028 0.55212 0.70471 0.0
C1207 C 0.9178 0.54306 0.72756 0.0
C1208 C 0.91569 0.52608 0.75529 0.0
C1209 C 0.89846 0.51793 0.75697 0.0
C1210 C 0.88349 0.52699 0.73418 0.0
H1211 H 0.87127 0.58911 0.8022 0.0
H1212 H 0.88421 0.56853 0.80281 0.0
H1213 H 0.88835 0.58545 0.7471 0.0
H1214 H 0.90464 0.56543 0.68544 0.0
H1215 H 0.93105 0.54942 0.72391 0.0
H1216 H 0.04437 0.20927 0.94943 0.0
H1217 H 0.04487 0.1806 0.89531 0.0
H1218 H 0.98689 0.18318 0.87206 0.0
H1219 H 0.98632 0.21154 0.92786 0.0
H1220 H 0.9955 0.15143 0.91344 0.0
H1221 H 0.04161 0.16578 0.72624 0.0
H1222 H 0.05187 0.17121 0.79587 0.0
H1223 H 0.03224 0.1835 0.77133 0.0
C1224 C 0.03181 0.204 0.93121 0.0
C1225 C 0.01532 0.21275 0.94265 0.0
C1226 C 0.03209 0.18756 0.90013 0.0
C1227 C 0.01593 0.17966 0.87882 0.0
C1228 C 0.99956 0.18888 0.88793 0.0
H1229 H 1.00348 0.08134 0.6653 0.0
H1230 H 1.00371 0.11256 0.70152 0.0
C1231 C 0.99925 0.20516 0.91959 0.0
C1232 C 0.01577 0.16109 0.85218 0.0
H1233 H 0.03538 0.13449 0.74657 0.0
C1234 C 1.00417 0.14784 0.87668 0.0
C1235 C 0.02691 0.15625 0.80376 0.0
C1236 C 0.03872 0.16998 0.77235 0.0
C1237 C 1.00368 0.12998 0.85519 0.0
C1238 C 0.01534 0.12499 0.80858 0.0
C1239 C 0.02668 0.13823 0.78306 0.0
C1240 C 0.0158 0.10605 0.78586 0.0
C1241 C 0.99054 0.11654 0.8821 0.0
C1242 C 0.02267 0.09197 0.821 0.0
C1243 C 0.02269 0.07407 0.80032 0.0
C1244 C 0.01577 0.06983 0.74403 0.0
C1245 C 0.00899 0.08404 0.70879 0.0
C1246 C 0.00912 0.10194 0.72936 0.0
H1247 H 0.9802 0.12326 0.90997 0.0
H1248 H 0.9835 0.10869 0.84699 0.0
H1249 H 0.99811 0.10684 0.91014 0.0
H1250 H 0.028 0.09483 0.86462 0.0
H1251 H 0.02799 0.06353 0.82871 0.0
H1252 H 0.31835 0.06296 0.88999 0.0
H1253 H 0.34543 0.05405 0.83651 0.0
H1254 H 0.34511 1.0027 0.92792 0.0
H1255 H 0.31826 0.01211 0.98401 0.0
H1256 H 0.37705 0.01699 0.93655 0.0
H1257 H 0.35848 0.02318 0.70204 0.0
H1258 H 0.35346 0.04393 0.73903 0.0
H1259 H 0.34163 0.02337 0.75974 0.0
C1260 C 0.32369 0.04951 0.89733 0.0
C1261 C 0.31611 0.03823 0.94123 0.0
C1262 C 0.33921 0.04436 0.86638 0.0
C1263 C 0.34742 0.02758 0.87738 0.0
C1264 C 0.3391 0.01572 0.91833 0.0
H1265 H 0.4456 1.00118 0.67479 0.0
H1266 H 0.41471 1.00184 0.71366 0.0
C1267 C 0.32358 0.02098 0.94988 0.0
C1268 C 0.36567 0.02357 0.85153 0.0
H1269 H 0.39054 0.02664 0.72425 0.0
C1270 C 0.37988 0.01882 0.8899 0.0
C1271 C 0.36957 0.02565 0.79052 0.0
C1272 C 0.35489 0.02911 0.74551 0.0
C1273 C 0.39782 0.01684 0.86964 0.0
C1274 C 0.40195 0.02036 0.80947 0.0
C1275 C 0.38761 0.02432 0.77062 0.0
C1276 C 0.42096 0.01998 0.78596 0.0
C1277 C 0.41207 0.01079 0.91312 0.0
C1278 C 0.43493 0.03019 0.81267 0.0
C1279 C 0.45274 0.02962 0.79098 0.0
C1280 C 0.457 0.01916 0.74109 0.0
C1281 C 0.4429 0.00938 0.71332 0.0
C1282 C 0.42516 0.00975 0.73556 0.0
H1283 H 0.40595 1.00282 0.94988 0.0
H1284 H 0.42255 1.00238 0.89149 0.0
H1285 H 0.41876 0.02287 0.93271 0.0
H1286 H 0.43206 0.03872 0.85026 0.0
H1287 H 0.46315 0.0375 0.81313 0.0
H1288 H 0.51419 0.33351 0.02022 0.0
H1289 H 0.5181 0.35962 0.95467 0.0
H1290 H 0.48027 0.33588 0.83128 0.0
H1291 H 0.476 0.30984 0.89816 0.0
H1292 H 0.52828 0.36723 0.84296 0.0
H1293 H 0.45517 0.38265 0.87013 0.0
H1294 H 0.46624 0.36519 0.91228 0.0
H1295 H 0.4597 0.36112 0.83689 0.0
C1296 C 0.50721 0.33356 0.97808 0.0
C1297 C 0.49497 0.31951 0.96399 0.0
C1298 C 0.50933 0.34859 0.94074 0.0
C1299 C 0.49915 0.35007 0.88846 0.0
C1300 C 0.48797 0.33535 0.87196 0.0
H1301 H 0.51489 0.44563 0.65551 0.0
H1302 H 0.51336 0.41456 0.69296 0.0
C1303 C 0.48578 0.32028 0.90962 0.0
C1304 C 0.49933 0.36759 0.85461 0.0
H1305 H 0.47243 0.40305 0.81301 0.0
C1306 C 0.51603 0.37497 0.8359 0.0
C1307 C 0.48341 0.37796 0.84613 0.0
C1308 C 0.46512 0.37146 0.8678 0.0
C1309 C 0.51728 0.39235 0.81006 0.0
C1310 C 0.50136 0.40265 0.80148 0.0
C1311 C 0.48464 0.39517 0.81918 0.0
C1312 C 0.50184 0.4216 0.77747 0.0
C1313 C 0.53578 0.3999 0.79483 0.0
C1314 C 0.49541 0.43605 0.81167 0.0
C1315 C 0.49617 0.45391 0.79033 0.0
C1316 C 0.50326 0.4578 0.73391 0.0
C1317 C 0.50936 0.44325 0.6992 0.0
C1318 C 0.50862 0.4254 0.72072 0.0
H1319 H 0.54682 0.39207 0.81603 0.0
H1320 H 0.53776 0.39935 0.74635 0.0
H1321 H 0.53701 0.41427 0.80869 0.0
H1322 H 0.49004 0.43354 0.8555 0.0
H1323 H 0.49133 0.46468 0.81841 0.0
H1324 H 0.20255 0.46322 0.91099 0.0
H1325 H 0.17431 0.46986 0.86045 0.0
H1326 H 0.1812 0.5266 0.89988 0.0
H1327 H 0.20916 0.51981 0.95431 0.0
H1328 H 0.14799 0.51715 0.92324 0.0
H1329 H 0.1627 0.48944 0.70294 0.0
H1330 H 0.16608 0.47234 0.75797 0.0
H1331 H 0.18017 0.49244 0.75792 0.0
C1332 C 0.19816 0.47717 0.90897 0.0
C1333 C 0.20817 0.49094 0.9376 0.0
C1334 C 0.18203 0.481 0.87899 0.0
C1335 C 0.17556 0.49879 0.87513 0.0
C1336 C 0.18585 0.51273 0.9018 0.0
H1337 H 0.07926 0.52027 0.65629 0.0
H1338 H 0.11018 0.51847 0.69462 0.0
C1339 C 0.20198 0.50887 0.93252 0.0
C1340 C 0.15746 0.50247 0.84734 0.0
H1341 H 0.13098 0.4924 0.72729 0.0
C1342 C 0.14439 0.51192 0.88001 0.0
C1343 C 0.15263 0.496 0.79041 0.0
C1344 C 0.16623 0.48718 0.75012 0.0
C1345 C 0.12664 0.51448 0.85861 0.0
C1346 C 0.12143 0.50682 0.80366 0.0
C1347 C 0.13469 0.49798 0.76995 0.0
C1348 C 0.1024 0.50785 0.78028 0.0
C1349 C 0.11377 0.52565 0.89499 0.0
C1350 C 0.08752 0.50215 0.81479 0.0
C1351 C 0.06973 0.50341 0.79315 0.0
C1352 C 0.06633 0.51004 0.7359 0.0
C1353 C 0.08127 0.51518 0.70065 0.0
C1354 C 0.09904 0.51413 0.72262 0.0
H1355 H 0.12124 0.5354 0.92357 0.0
H1356 H 0.10426 0.53335 0.86659 0.0
H1357 H 0.10578 0.51656 0.92432 0.0
H1358 H 0.08965 0.49662 0.85855 0.0
H1359 H 0.05863 0.49909 0.82139 0.0
H1360 H 0.96362 0.83196 0.3754 0.0
H1361 H 0.96978 0.85927 0.43246 0.0
H1362 H 0.02618 0.84481 0.44477 0.0
H1363 H 0.02019 0.81762 0.38528 0.0
H1364 H 0.98276 0.86604 0.54162 0.0
H1365 H 0.03006 0.89513 0.37478 0.0
H1366 H 0.01628 0.87536 0.3601 0.0
H1367 H 0.03654 0.87348 0.40384 0.0
C1368 C 0.97738 0.83455 0.39007 0.0
C1369 C 0.99147 0.82268 0.37466 0.0
C1370 C 0.98086 0.85018 0.42313 0.0
C1371 C 0.99853 0.85445 0.44194 0.0
C1372 C 0.0125 0.84213 0.42955 0.0
H1373 H 0.03594 0.95393 0.62196 0.0
H1374 H 0.03443 0.92334 0.57903 0.0
C1375 C 0.00902 0.82643 0.39616 0.0
C1376 C 1.00209 0.87204 0.47283 0.0
H1377 H 0.02477 0.91255 0.45995 0.0
C1378 C 0.99204 0.87614 0.52382 0.0
C1379 C 0.01416 0.88536 0.44983 0.0
C1380 C 0.02478 0.88225 0.39388 0.0
C1381 C 0.99353 0.89312 0.55173 0.0
C1382 C 1.00526 0.90653 0.52789 0.0
C1383 C 0.01574 0.90229 0.47812 0.0
C1384 C 1.00633 0.92523 0.55269 0.0
C1385 C 0.98236 0.8966 0.60627 0.0
C1386 C 0.99124 0.9367 0.55034 0.0
C1387 C 0.99225 0.95432 0.5732 0.0
C1388 C 1.00824 0.96068 0.60021 0.0
C1389 C 0.02336 0.94924 0.60237 0.0
C1390 C 0.02251 0.93181 0.57774 0.0
H1391 H 0.97861 0.88377 0.62912 0.0
H1392 H 0.9897 0.90549 0.63788 0.0
H1393 H 0.96966 0.9035 0.59317 0.0
H1394 H 0.97869 0.93208 0.53027 0.0
H1395 H 0.98044 0.96291 0.57054 0.0
H1396 H 0.7128 0.02084 0.42135 0.0
H1397 H 0.68518 0.02584 0.47987 0.0
H1398 H 0.67341 0.96856 0.47533 0.0
H1399 H 0.70106 0.9635 0.41928 0.0
H1400 H 0.651 0.02014 0.44663 0.0
H1401 H 0.66263 0.97815 0.64458 0.0
H1402 H 0.68064 0.98386 0.5938 0.0
H1403 H 0.66564 0.965 0.57902 0.0
C1404 C 0.7046 0.00928 0.4345 0.0
C1405 C 0.70918 0.99177 0.41549 0.0
C1406 C 0.6887 0.01215 0.46752 0.0
C1407 C 0.67715 0.99757 0.48284 0.0
C1408 C 0.68214 0.98004 0.46562 0.0
H1409 H 0.56064 0.99712 0.53335 0.0
H1410 H 0.59184 0.99538 0.49763 0.0
C1411 C 0.69795 0.97718 0.43291 0.0
C1412 C 0.65917 1.00061 0.51208 0.0
H1413 H 0.63121 0.98451 0.62134 0.0
C1414 C 0.64685 0.0126 0.48557 0.0
C1415 C 0.65359 0.99094 0.56329 0.0
C1416 C 0.66641 0.97893 0.59714 0.0
C1417 C 0.62907 0.01464 0.50733 0.0
C1418 C 0.62317 1.00413 0.55624 0.0
C1419 C 0.63563 0.99257 0.58386 0.0
C1420 C 0.60411 1.00481 0.57886 0.0
C1421 C 0.61672 0.02806 0.47754 0.0
C1422 C 0.60047 0.01019 0.63717 0.0
C1423 C 0.58256 0.01114 0.658 0.0
C1424 C 0.5678 1.00656 0.62112 0.0
C1425 C 0.57155 1.00081 0.56313 0.0
C1426 C 0.58945 0.99992 0.54237 0.0
H1427 H 0.62452 0.0384 0.45216 0.0
H1428 H 0.60771 0.02076 0.44618 0.0
H1429 H 0.60808 0.03507 0.51035 0.0
H1430 H 0.61149 0.01395 0.66634 0.0
H1431 H 0.5803 0.01565 0.70285 0.0
H1432 H 0.49128 0.71191 0.4036 0.0
H1433 H 0.49001 0.68632 0.47365 0.0
H1434 H 0.54438 0.67157 0.42459 0.0
H1435 H 0.54568 0.69707 0.35565 0.0
H1436 H 0.49246 0.65066 0.43889 0.0
H1437 H 0.54717 0.66418 0.60145 0.0
H1438 H 0.53697 0.68191 0.55773 0.0
H1439 H 0.55393 0.6675 0.52618 0.0
C1440 C 0.5032 0.70364 0.40974 0.0
C1441 C 0.5187 0.70672 0.37486 0.0
C1442 C 0.50242 0.68888 0.44933 0.0
C1443 C 0.51718 0.67699 0.45527 0.0
C1444 C 0.53296 0.68067 0.4224 0.0
H1445 H 0.52368 0.56256 0.5271 0.0
H1446 H 0.52382 0.59351 0.48798 0.0
C1447 C 0.5337 0.6953 0.38282 0.0
C1448 C 0.51549 0.65965 0.48983 0.0
H1449 H 0.53637 0.6336 0.59515 0.0
C1450 C 0.50194 0.64709 0.47358 0.0
C1451 C 0.52779 0.6548 0.53534 0.0
C1452 C 0.54218 0.66785 0.55672 0.0
C1453 C 0.50085 0.62972 0.49952 0.0
C1454 C 0.51362 0.62461 0.54306 0.0
C1455 C 0.5267 0.63739 0.56128 0.0
C1456 C 0.51393 0.60582 0.56813 0.0
C1457 C 0.48617 0.61678 0.47959 0.0
C1458 C 0.50843 0.60232 0.62651 0.0
C1459 C 0.50832 0.58454 0.64915 0.0
C1460 C 0.5138 0.56983 0.61403 0.0
C1461 C 0.5194 0.57346 0.55566 0.0
C1462 C 0.51947 0.5912 0.53309 0.0
H1463 H 0.47539 0.62376 0.45412 0.0
H1464 H 0.49222 0.60627 0.45093 0.0
H1465 H 0.4799 0.60983 0.51816 0.0
H1466 H 0.50391 0.61332 0.65425 0.0
H1467 H 0.50366 0.5823 0.69393 0.0
H1468 H 0.83875 0.55527 0.30772 0.0
H1469 H 0.86375 0.55415 0.37763 0.0
H1470 H 0.83611 0.51193 0.47501 0.0
H1471 H 0.81117 0.51241 0.40239 0.0
H1472 H 0.86918 0.55943 0.49002 0.0
H1473 H 0.88293 0.48692 0.44426 0.0
H1474 H 0.86669 0.49966 0.40206 0.0
H1475 H 0.86094 0.49136 0.47452 0.0
C1476 C 0.83788 0.54576 0.34417 0.0
C1477 C 0.82306 0.53366 0.34856 0.0
C1478 C 0.85224 0.54518 0.38448 0.0
C1479 C 0.85228 0.53259 0.43104 0.0
C1480 C 0.83682 0.52138 0.43846 0.0
H1481 H 0.94664 0.50741 0.65709 0.0
H1482 H 0.91565 0.50992 0.61954 0.0
C1483 C 0.82238 0.52185 0.39745 0.0
C1484 C 0.86896 0.53099 0.46904 0.0
H1485 H 0.90305 0.50199 0.50794 0.0
C1486 C 0.87647 0.54679 0.49414 0.0
C1487 C 0.87868 0.51457 0.47493 0.0
C1488 C 0.87204 0.49718 0.44718 0.0
C1489 C 0.89345 0.54678 0.52289 0.0
C1490 C 0.90339 0.53049 0.52716 0.0
C1491 C 0.89554 0.51451 0.50464 0.0
C1492 C 0.92223 0.52977 0.55228 0.0
C1493 C 0.90057 0.56443 0.54731 0.0
C1494 C 0.93648 0.54002 0.52724 0.0
C1495 C 0.9543 0.53864 0.54892 0.0
C1496 C 0.95837 0.52696 0.59634 0.0
C1497 C 0.94405 0.51677 0.62135 0.0
C1498 C 0.92627 0.51809 0.59952 0.0
H1499 H 0.88933 0.57259 0.56579 0.0
H1500 H 0.91092 0.56245 0.58215 0.0
H1501 H 0.90682 0.57239 0.51084 0.0
H1502 H 0.93386 0.54891 0.49013 0.0
H1503 H 0.96491 0.54664 0.5282 0.0
loop_
_geom_bond_atom_site_label_1
_geom_bond_atom_site_label_2
_geom_bond_distance
_geom_bond_site_symmetry_2
_ccdc_geom_bond_type
C0 C1 1.391 . S
C0 C4 1.391 . S
C0 H42 0.948 . S
C1 C0 1.391 . S
C1 C2 1.391 . S
C2 C1 1.391 . S
C2 H58 0.947 . S
C2 C59 1.392 . S
C3 C4 1.391 . S
C3 C7 1.397 . S
C3 C59 1.419 . S
C4 C0 1.391 . S
C4 C3 1.391 . S
C4 C5 1.399 . S
C5 C4 1.399 . S
C5 C8 1.396 . S
C5 C17 1.453 . S
C5 C18 1.684 . S
H6 C30 0.948 . S
C7 C3 1.397 . S
C7 C8 1.394 . S
C7 C26 1.723 . S
C8 C5 1.396 . S
C8 C7 1.394 . S
C8 C38 1.723 . S
H9 C32 0.947 . S
H10 C33 0.948 . S
H11 C39 0.982 . S
H12 C40 0.979 . S
H13 C40 0.980 . S
H14 C40 0.983 . S
H15 C39 0.979 . S
H16 C39 0.977 . S
C17 C5 1.453 . S
C17 H46 0.982 . S
C17 H47 0.979 . S
C17 H48 0.977 . S
C18 C5 1.684 . S
C18 H43 0.979 . S
C18 H44 0.980 . S
C18 H45 0.983 . S
C19 C20 1.391 . S
C19 C24 1.391 . S
C19 H49 0.948 . S
C20 C19 1.391 . S
C20 C21 1.391 . S
C21 C20 1.391 . S
C21 C22 1.392 . S
C21 H50 0.947 . S
C22 C21 1.392 . S
C22 C23 1.419 . S
C22 H51 0.948 . S
C23 C22 1.419 . S
C23 C24 1.391 . S
C23 C27 1.397 . S
C24 C19 1.391 . S
C24 C23 1.391 . S
C24 C25 1.399 . S
C25 C24 1.399 . S
C25 C26 1.396 . S
C25 C28 1.453 . S
C25 C29 1.684 . S
C26 C7 1.723 . S
C26 C25 1.396 . S
C26 C27 1.394 . S
C27 C23 1.397 . S
C27 C26 1.394 . S
C27 C37 1.723 . S
C28 C25 1.453 . S
C28 H52 0.982 . S
C28 H53 0.979 . S
C28 H54 0.977 . S
C29 C25 1.684 . S
C29 H55 0.979 . S
C29 H56 0.980 . S
C29 H57 0.983 . S
C30 H6 0.948 . S
C30 C31 1.391 . S
C30 C35 1.391 . S
C31 C30 1.391 . S
C31 C32 1.391 . S
C32 H9 0.947 . S
C32 C31 1.391 . S
C32 C33 1.392 . S
C33 H10 0.948 . S
C33 C32 1.392 . S
C33 C34 1.419 . S
C34 C33 1.419 . S
C34 C35 1.391 . S
C34 C38 1.397 . S
C35 C30 1.391 . S
C35 C34 1.391 . S
C35 C36 1.399 . S
C36 C35 1.399 . S
C36 C37 1.396 . S
C36 C39 1.453 . S
C36 C40 1.684 . S
C37 C27 1.723 . S
C37 C36 1.396 . S
C37 C38 1.394 . S
C38 C8 1.723 . S
C38 C34 1.397 . S
C38 C37 1.394 . S
C39 H11 0.982 . S
C39 H15 0.979 . S
C39 H16 0.977 . S
C39 C36 1.453 . S
C40 H12 0.979 . S
C40 H13 0.980 . S
C40 H14 0.983 . S
C40 C36 1.684 . S
H41 C59 0.948 . S
H42 C0 0.948 . S
H43 C18 0.979 . S
H44 C18 0.980 . S
H45 C18 0.983 . S
H46 C17 0.982 . S
H47 C17 0.979 . S
H48 C17 0.977 . S
H49 C19 0.948 . S
H50 C21 0.947 . S
H51 C22 0.948 . S
H52 C28 0.982 . S
H53 C28 0.979 . S
H54 C28 0.977 . S
H55 C29 0.979 . S
H56 C29 0.980 . S
H57 C29 0.983 . S
H58 C2 0.947 . S
C59 C2 1.392 . S
C59 C3 1.419 . S
C59 H41 0.948 . S
C60 C61 1.391 . S
C60 C64 1.391 . S
C60 H102 0.948 . S
C61 C60 1.391 . S
C61 C62 1.391 . S
C62 C61 1.391 . S
C62 H118 0.947 . S
C62 C119 1.392 . S
C63 C64 1.400 . S
C63 C67 1.394 1_655 S
C63 C119 1.426 . S
C64 C60 1.391 . S
C64 C63 1.400 . S
C64 C65 1.399 . S
C65 C64 1.399 . S
C65 C68 1.388 1_655 S
C65 C77 1.453 1_655 S
C65 C78 1.684 . S
H66 C90 0.948 . S
C67 C63 1.394 1_455 S
C67 C68 1.393 . S
C67 C86 1.722 . S
C68 C65 1.388 1_455 S
C68 C67 1.393 . S
C68 C98 1.722 . S
H69 C92 0.947 . S
H70 C93 0.948 . S
H71 C99 0.982 . S
H72 C100 0.979 . S
H73 C100 0.980 . S
H74 C100 0.983 . S
H75 C99 0.979 . S
H76 C99 0.977 . S
C77 C65 1.453 1_455 S
C77 H106 0.982 . S
C77 H107 0.979 . S
C77 H108 0.977 . S
C78 C65 1.684 . S
C78 H103 0.979 . S
C78 H104 0.980 . S
C78 H105 0.983 . S
C79 C80 1.391 . S
C79 C84 1.391 . S
C79 H109 0.948 . S
C80 C79 1.391 . S
C80 C81 1.391 . S
C81 C80 1.391 . S
C81 C82 1.392 . S
C81 H110 0.947 . S
C82 C81 1.392 . S
C82 C83 1.425 . S
C82 H111 0.948 . S
C83 C82 1.425 . S
C83 C84 1.400 . S
C83 C87 1.395 1_655 S
C84 C79 1.391 . S
C84 C83 1.400 . S
C84 C85 1.399 . S
C85 C84 1.399 . S
C85 C86 1.388 1_655 S
C85 C88 1.453 1_655 S
C85 C89 1.684 . S
C86 C67 1.722 . S
C86 C85 1.388 1_455 S
C86 C87 1.393 . S
C87 C83 1.395 1_455 S
C87 C86 1.393 . S
C87 C97 1.721 . S
C88 C85 1.453 1_455 S
C88 H112 0.982 . S
C88 H113 0.979 . S
C88 H114 0.977 . S
C89 C85 1.684 . S
C89 H115 0.979 . S
C89 H116 0.980 . S
C89 H117 0.983 . S
C90 H66 0.948 . S
C90 C91 1.391 . S
C90 C95 1.391 . S
C91 C90 1.391 . S
C91 C92 1.391 . S
C92 H69 0.947 . S
C92 C91 1.391 . S
C92 C93 1.392 . S
C93 H70 0.948 . S
C93 C92 1.392 . S
C93 C94 1.425 . S
C94 C93 1.425 . S
C94 C95 1.399 . S
C94 C98 1.395 1_655 S
C95 C90 1.391 . S
C95 C94 1.399 . S
C95 C96 1.399 . S
C96 C95 1.399 . S
C96 C97 1.389 1_655 S
C96 C99 1.453 1_655 S
C96 C100 1.684 . S
C97 C87 1.721 . S
C97 C96 1.389 1_455 S
C97 C98 1.393 . S
C98 C68 1.722 . S
C98 C94 1.395 1_455 S
C98 C97 1.393 . S
C99 H71 0.982 . S
C99 H75 0.979 . S
C99 H76 0.977 . S
C99 C96 1.453 1_455 S
C100 H72 0.979 . S
C100 H73 0.980 . S
C100 H74 0.983 . S
C100 C96 1.684 . S
H101 C119 0.948 . S
H102 C60 0.948 . S
H103 C78 0.979 . S
H104 C78 0.980 . S
H105 C78 0.983 . S
H106 C77 0.982 . S
H107 C77 0.979 . S
H108 C77 0.977 . S
H109 C79 0.948 . S
H110 C81 0.947 . S
H111 C82 0.948 . S
H112 C88 0.982 . S
H113 C88 0.979 . S
H114 C88 0.977 . S
H115 C89 0.979 . S
H116 C89 0.980 . S
H117 C89 0.983 . S
H118 C62 0.947 . S
C119 C62 1.392 . S
C119 C63 1.426 . S
C119 H101 0.948 . S
C120 C121 1.391 . S
C120 C124 1.391 . S
C120 H162 0.948 . S
C121 C120 1.391 . S
C121 C122 1.391 . S
C122 C121 1.391 . S
C122 H178 0.947 . S
C122 C179 1.392 . S
C123 C124 1.391 . S
C123 C127 1.397 . S
C123 C179 1.419 . S
C124 C120 1.391 . S
C124 C123 1.391 . S
C124 C125 1.399 . S
C125 C124 1.399 . S
C125 C128 1.396 . S
C125 C137 1.439 1_565 S
C125 C138 1.684 . S
H126 C150 0.948 . S
C127 C123 1.397 . S
C127 C128 1.394 . S
C127 C146 1.723 . S
C128 C125 1.396 . S
C128 C127 1.394 . S
C128 C158 1.723 . S
H129 C152 0.947 . S
H130 C153 0.948 . S
H131 C159 0.999 . S
H132 C160 0.979 . S
H133 C160 0.980 . S
H134 C160 0.983 . S
H135 C159 0.978 1_565 S
H136 C159 0.973 1_565 S
C137 C125 1.439 1_545 S
C137 H166 0.999 . S
C137 H167 0.978 1_545 S
C137 H168 0.974 1_545 S
C138 C125 1.684 . S
C138 H163 0.979 . S
C138 H164 0.980 . S
C138 H165 0.983 . S
C139 C140 1.391 . S
C139 C144 1.391 . S
C139 H169 0.948 . S
C140 C139 1.391 . S
C140 C141 1.391 . S
C141 C140 1.391 . S
C141 C142 1.392 . S
C141 H170 0.947 . S
C142 C141 1.392 . S
C142 C143 1.419 . S
C142 H171 0.948 . S
C143 C142 1.419 . S
C143 C144 1.391 . S
C143 C147 1.397 . S
C144 C139 1.391 . S
C144 C143 1.391 . S
C144 C145 1.399 . S
C145 C144 1.399 . S
C145 C146 1.396 . S
C145 C148 1.439 1_565 S
C145 C149 1.684 . S
C146 C127 1.723 . S
C146 C145 1.396 . S
C146 C147 1.394 . S
C147 C143 1.397 . S
C147 C146 1.394 . S
C147 C157 1.723 . S
C148 C145 1.439 1_545 S
C148 H172 0.999 . S
C148 H173 0.978 1_545 S
C148 H174 0.973 1_545 S
C149 C145 1.684 . S
C149 H175 0.979 . S
C149 H176 0.980 . S
C149 H177 0.983 . S
C150 H126 0.948 . S
C150 C151 1.391 . S
C150 C155 1.391 . S
C151 C150 1.391 . S
C151 C152 1.391 . S
C152 H129 0.947 . S
C152 C151 1.391 . S
C152 C153 1.392 . S
C153 H130 0.948 . S
C153 C152 1.392 . S
C153 C154 1.419 . S
C154 C153 1.419 . S
C154 C155 1.391 . S
C154 C158 1.397 . S
C155 C150 1.391 . S
C155 C154 1.391 . S
C155 C156 1.399 . S
C156 C155 1.399 . S
C156 C157 1.396 . S
C156 C159 1.439 1_565 S
C156 C160 1.684 . S
C157 C147 1.723 . S
C157 C156 1.396 . S
C157 C158 1.394 . S
C158 C128 1.723 . S
C158 C154 1.397 . S
C158 C157 1.394 . S
C159 H131 0.999 . S
C159 H135 0.978 1_545 S
C159 H136 0.973 1_545 S
C159 C156 1.439 1_545 S
C160 H132 0.979 . S
C160 H133 0.980 . S
C160 H134 0.983 . S
C160 C156 1.684 . S
H161 C179 0.948 . S
H162 C120 0.948 . S
H163 C138 0.979 . S
H164 C138 0.980 . S
H165 C138 0.983 . S
H166 C137 0.999 . S
H167 C137 0.978 1_565 S
H168 C137 0.974 1_565 S
H169 C139 0.948 . S
H170 C141 0.947 . S
H171 C142 0.948 . S
H172 C148 0.999 . S
H173 C148 0.978 1_565 S
H174 C148 0.973 1_565 S
H175 C149 0.979 . S
H176 C149 0.980 . S
H177 C149 0.983 . S
H178 C122 0.947 . S
C179 C122 1.392 . S
C179 C123 1.419 . S
C179 H161 0.948 . S
C180 C181 1.391 . S
C180 C184 1.391 . S
C180 H222 0.948 . S
C181 C180 1.391 . S
C181 C182 1.391 . S
C182 C181 1.391 . S
C182 H238 0.947 . S
C182 C239 1.392 . S
C183 C184 1.391 . S
C183 C187 1.397 . S
C183 C239 1.419 . S
C184 C180 1.391 . S
C184 C183 1.391 . S
C184 C185 1.399 . S
C185 C184 1.399 . S
C185 C188 1.396 . S
C185 C197 1.453 . S
C185 C198 1.684 . S
H186 C210 0.948 . S
C187 C183 1.397 . S
C187 C188 1.394 . S
C187 C206 1.723 . S
C188 C185 1.396 . S
C188 C187 1.394 . S
C188 C218 1.723 . S
H189 C212 0.947 . S
H190 C213 0.948 . S
H191 C219 0.982 . S
H192 C220 0.979 . S
H193 C220 0.980 . S
H194 C220 0.983 . S
H195 C219 0.979 . S
H196 C219 0.977 . S
C197 C185 1.453 . S
C197 H226 0.982 . S
C197 H227 0.979 . S
C197 H228 0.977 . S
C198 C185 1.684 . S
C198 H223 0.979 . S
C198 H224 0.980 . S
C198 H225 0.983 . S
C199 C200 1.391 . S
C199 C204 1.391 . S
C199 H229 0.948 . S
C200 C199 1.391 . S
C200 C201 1.391 . S
C201 C200 1.391 . S
C201 C202 1.392 . S
C201 H230 0.947 . S
C202 C201 1.392 . S
C202 C203 1.419 . S
C202 H231 0.948 . S
C203 C202 1.419 . S
C203 C204 1.391 . S
C203 C207 1.397 . S
C204 C199 1.391 . S
C204 C203 1.391 . S
C204 C205 1.399 . S
C205 C204 1.399 . S
C205 C206 1.396 . S
C205 C208 1.453 . S
C205 C209 1.684 . S
C206 C187 1.723 . S
C206 C205 1.396 . S
C206 C207 1.394 . S
C207 C203 1.397 . S
C207 C206 1.394 . S
C207 C217 1.723 . S
C208 C205 1.453 . S
C208 H232 0.982 . S
C208 H233 0.979 . S
C208 H234 0.977 . S
C209 C205 1.684 . S
C209 H235 0.979 . S
C209 H236 0.980 . S
C209 H237 0.983 . S
C210 H186 0.948 . S
C210 C211 1.391 . S
C210 C215 1.391 . S
C211 C210 1.391 . S
C211 C212 1.391 . S
C212 H189 0.947 . S
C212 C211 1.391 . S
C212 C213 1.392 . S
C213 H190 0.948 . S
C213 C212 1.392 . S
C213 C214 1.419 . S
C214 C213 1.419 . S
C214 C215 1.391 . S
C214 C218 1.397 . S
C215 C210 1.391 . S
C215 C214 1.391 . S
C215 C216 1.399 . S
C216 C215 1.399 . S
C216 C217 1.396 . S
C216 C219 1.453 . S
C216 C220 1.684 . S
C217 C207 1.723 . S
C217 C216 1.396 . S
C217 C218 1.394 . S
C218 C188 1.723 . S
C218 C214 1.397 . S
C218 C217 1.394 . S
C219 H191 0.982 . S
C219 H195 0.979 . S
C219 H196 0.977 . S
C219 C216 1.453 . S
C220 H192 0.979 . S
C220 H193 0.980 . S
C220 H194 0.983 . S
C220 C216 1.684 . S
H221 C239 0.948 . S
H222 C180 0.948 . S
H223 C198 0.979 . S
H224 C198 0.980 . S
H225 C198 0.983 . S
H226 C197 0.982 . S
H227 C197 0.979 . S
H228 C197 0.977 . S
H229 C199 0.948 . S
H230 C201 0.947 . S
H231 C202 0.948 . S
H232 C208 0.982 . S
H233 C208 0.979 . S
H234 C208 0.977 . S
H235 C209 0.979 . S
H236 C209 0.980 . S
H237 C209 0.983 . S
H238 C182 0.947 . S
C239 C182 1.392 . S
C239 C183 1.419 . S
C239 H221 0.948 . S
C240 C241 1.391 . S
C240 C244 1.391 . S
C240 H282 0.948 . S
C241 C240 1.391 . S
C241 C242 1.391 . S
C242 C241 1.391 . S
C242 H298 0.947 . S
C242 C299 1.392 . S
C243 C244 1.391 . S
C243 C247 1.397 . S
C243 C299 1.419 . S
C244 C240 1.391 . S
C244 C243 1.391 . S
C244 C245 1.399 1_554 S
C245 C244 1.399 1_556 S
C245 C248 1.396 . S
C245 C257 1.453 . S
C245 C258 1.684 . S
H246 C270 0.948 . S
C247 C243 1.397 . S
C247 C248 1.394 1_554 S
C247 C266 1.723 . S
C248 C245 1.396 . S
C248 C247 1.394 1_556 S
C248 C278 1.723 . S
H249 C272 0.947 . S
H250 C273 0.948 . S
H251 C279 0.982 . S
H252 C280 0.979 . S
H253 C280 0.980 1_554 S
H254 C280 0.983 . S
H255 C279 0.979 . S
H256 C279 0.977 1_554 S
C257 C245 1.453 . S
C257 H286 0.982 . S
C257 H287 0.979 . S
C257 H288 0.977 . S
C258 C245 1.684 . S
C258 H283 0.979 . S
C258 H284 0.980 . S
C258 H285 0.983 . S
C259 C260 1.391 . S
C259 C264 1.391 . S
C259 H289 0.948 . S
C260 C259 1.391 . S
C260 C261 1.391 . S
C261 C260 1.391 . S
C261 C262 1.392 . S
C261 H290 0.947 . S
C262 C261 1.392 . S
C262 C263 1.419 . S
C262 H291 0.948 . S
C263 C262 1.419 . S
C263 C264 1.391 . S
C263 C267 1.397 . S
C264 C259 1.391 . S
C264 C263 1.391 . S
C264 C265 1.399 . S
C265 C264 1.399 . S
C265 C266 1.396 . S
C265 C268 1.453 . S
C265 C269 1.684 . S
C266 C247 1.723 . S
C266 C265 1.396 . S
C266 C267 1.394 . S
C267 C263 1.397 . S
C267 C266 1.394 . S
C267 C277 1.727 . S
C268 C265 1.453 . S
C268 H292 0.982 . S
C268 H293 0.979 . S
C268 H294 0.977 . S
C269 C265 1.684 . S
C269 H295 0.979 . S
C269 H296 0.980 . S
C269 H297 0.983 . S
C270 H246 0.948 . S
C270 C271 1.391 . S
C270 C275 1.391 . S
C271 C270 1.391 . S
C271 C272 1.391 . S
C272 H249 0.947 . S
C272 C271 1.391 . S
C272 C273 1.392 . S
C273 H250 0.948 . S
C273 C272 1.392 . S
C273 C274 1.419 . S
C274 C273 1.419 . S
C274 C275 1.391 . S
C274 C278 1.397 . S
C275 C270 1.391 . S
C275 C274 1.391 . S
C275 C276 1.399 . S
C276 C275 1.399 . S
C276 C277 1.394 1_556 S
C276 C279 1.453 . S
C276 C280 1.684 . S
C277 C267 1.727 . S
C277 C276 1.394 1_554 S
C277 C278 1.392 1_554 S
C278 C248 1.723 . S
C278 C274 1.397 . S
C278 C277 1.392 1_556 S
C279 H251 0.982 . S
C279 H255 0.979 . S
C279 H256 0.977 1_556 S
C279 C276 1.453 . S
C280 H252 0.979 . S
C280 H253 0.980 1_556 S
C280 H254 0.983 . S
C280 C276 1.684 . S
H281 C299 0.948 . S
H282 C240 0.948 . S
H283 C258 0.979 . S
H284 C258 0.980 . S
H285 C258 0.983 . S
H286 C257 0.982 . S
H287 C257 0.979 . S
H288 C257 0.977 . S
H289 C259 0.948 . S
H290 C261 0.947 . S
H291 C262 0.948 . S
H292 C268 0.982 . S
H293 C268 0.979 . S
H294 C268 0.977 . S
H295 C269 0.979 . S
H296 C269 0.980 . S
H297 C269 0.983 . S
H298 C242 0.947 . S
C299 C242 1.392 . S
C299 C243 1.419 . S
C299 H281 0.948 . S
C300 C301 1.391 . S
C300 C304 1.391 . S
C300 H342 0.948 . S
C301 C300 1.391 . S
C301 C302 1.391 . S
C302 C301 1.391 . S
C302 H358 0.947 . S
C302 C359 1.392 . S
C303 C304 1.398 . S
C303 C307 1.395 1_655 S
C303 C359 1.423 . S
C304 C300 1.391 . S
C304 C303 1.398 . S
C304 C305 1.399 . S
C305 C304 1.399 . S
C305 C308 1.396 1_655 S
C305 C317 1.453 1_655 S
C305 C318 1.684 . S
H306 C330 0.948 . S
C307 C303 1.395 1_455 S
C307 C308 1.395 . S
C307 C326 1.723 1_554 S
C308 C305 1.396 1_455 S
C308 C307 1.395 . S
C308 C338 1.723 . S
H309 C332 0.947 . S
H310 C333 0.948 . S
H311 C339 0.982 . S
H312 C340 0.979 . S
H313 C340 0.980 . S
H314 C340 0.983 . S
H315 C339 0.979 . S
H316 C339 0.977 . S
C317 C305 1.453 1_455 S
C317 H346 0.982 . S
C317 H347 0.979 . S
C317 H348 0.977 . S
C318 C305 1.684 . S
C318 H343 0.979 . S
C318 H344 0.980 . S
C318 H345 0.983 . S
C319 C320 1.391 . S
C319 C324 1.391 . S
C319 H349 0.948 . S
C320 C319 1.391 . S
C320 C321 1.391 . S
C321 C320 1.391 . S
C321 C322 1.392 . S
C321 H350 0.947 . S
C322 C321 1.392 . S
C322 C323 1.424 . S
C322 H351 0.948 . S
C323 C322 1.424 . S
C323 C324 1.397 . S
C323 C327 1.395 1_655 S
C324 C319 1.391 . S
C324 C323 1.397 . S
C324 C325 1.399 . S
C325 C324 1.399 . S
C325 C326 1.396 1_655 S
C325 C328 1.453 1_655 S
C325 C329 1.684 . S
C326 C307 1.723 1_556 S
C326 C325 1.396 1_455 S
C326 C327 1.395 . S
C327 C323 1.395 1_455 S
C327 C326 1.395 . S
C327 C337 1.723 . S
C328 C325 1.453 1_455 S
C328 H352 0.982 . S
C328 H353 0.979 . S
C328 H354 0.977 1_556 S
C329 C325 1.684 . S
C329 H355 0.979 . S
C329 H356 0.980 1_556 S
C329 H357 0.983 . S
C330 H306 0.948 . S
C330 C331 1.391 . S
C330 C335 1.391 . S
C331 C330 1.391 . S
C331 C332 1.391 . S
C332 H309 0.947 . S
C332 C331 1.391 . S
C332 C333 1.392 . S
C333 H310 0.948 . S
C333 C332 1.392 . S
C333 C334 1.424 . S
C334 C333 1.424 . S
C334 C335 1.398 . S
C334 C338 1.394 1_655 S
C335 C330 1.391 . S
C335 C334 1.398 . S
C335 C336 1.399 1_554 S
C336 C335 1.399 1_556 S
C336 C337 1.396 1_655 S
C336 C339 1.453 1_655 S
C336 C340 1.684 . S
C337 C327 1.723 . S
C337 C336 1.396 1_455 S
C337 C338 1.395 1_556 S
C338 C308 1.723 . S
C338 C334 1.394 1_455 S
C338 C337 1.395 1_554 S
C339 H311 0.982 . S
C339 H315 0.979 . S
C339 H316 0.977 . S
C339 C336 1.453 1_455 S
C340 H312 0.979 . S
C340 H313 0.980 . S
C340 H314 0.983 . S
C340 C336 1.684 . S
H341 C359 0.948 . S
H342 C300 0.948 . S
H343 C318 0.979 . S
H344 C318 0.980 . S
H345 C318 0.983 . S
H346 C317 0.982 . S
H347 C317 0.979 . S
H348 C317 0.977 . S
H349 C319 0.948 . S
H350 C321 0.947 . S
H351 C322 0.948 . S
H352 C328 0.982 . S
H353 C328 0.979 . S
H354 C328 0.977 1_554 S
H355 C329 0.979 . S
H356 C329 0.980 1_554 S
H357 C329 0.983 . S
H358 C302 0.947 . S
C359 C302 1.392 . S
C359 C303 1.423 . S
C359 H341 0.948 . S
C360 C361 1.391 . S
C360 C364 1.391 . S
C360 H402 0.948 . S
C361 C360 1.391 . S
C361 C362 1.391 . S
C362 C361 1.391 . S
C362 H418 0.947 . S
C362 C419 1.392 . S
C363 C364 1.391 . S
C363 C367 1.397 . S
C363 C419 1.419 . S
C364 C360 1.391 . S
C364 C363 1.391 . S
C364 C365 1.399 . S
C365 C364 1.399 . S
C365 C368 1.396 . S
C365 C377 1.453 . S
C365 C378 1.684 . S
H366 C390 0.948 . S
C367 C363 1.397 . S
C367 C368 1.394 . S
C367 C386 1.723 1_556 S
C368 C365 1.396 . S
C368 C367 1.394 . S
C368 C398 1.723 1_556 S
H369 C392 0.947 1_556 S
H370 C393 0.955 . S
H371 C399 0.982 . S
H372 C400 0.979 . S
H373 C400 0.980 . S
H374 C400 0.983 . S
H375 C399 0.979 . S
H376 C399 0.977 . S
C377 C365 1.453 . S
C377 H406 0.982 . S
C377 H407 0.979 . S
C377 H408 0.977 . S
C378 C365 1.684 . S
C378 H403 0.979 . S
C378 H404 0.980 . S
C378 H405 0.983 . S
C379 C380 1.391 . S
C379 C384 1.391 . S
C379 H409 0.948 . S
C380 C379 1.391 . S
C380 C381 1.391 . S
C381 C380 1.391 . S
C381 C382 1.392 . S
C381 H410 0.947 . S
C382 C381 1.392 . S
C382 C383 1.419 . S
C382 H411 0.948 . S
C383 C382 1.419 . S
C383 C384 1.391 . S
C383 C387 1.397 . S
C384 C379 1.391 . S
C384 C383 1.391 . S
C384 C385 1.399 . S
C385 C384 1.399 . S
C385 C386 1.396 . S
C385 C388 1.453 . S
C385 C389 1.684 . S
C386 C367 1.723 1_554 S
C386 C385 1.396 . S
C386 C387 1.394 . S
C387 C383 1.397 . S
C387 C386 1.394 . S
C387 C397 1.723 . S
C388 C385 1.453 . S
C388 H412 0.982 . S
C388 H413 0.979 . S
C388 H414 0.977 1_554 S
C389 C385 1.684 . S
C389 H415 0.979 . S
C389 H416 0.980 1_554 S
C389 H417 0.983 . S
C390 H366 0.948 . S
C390 C391 1.391 . S
C390 C395 1.391 . S
C391 C390 1.391 . S
C391 C392 1.391 . S
C392 H369 0.947 1_554 S
C392 C391 1.391 . S
C392 C393 1.390 1_554 S
C393 H370 0.955 . S
C393 C392 1.390 1_556 S
C393 C394 1.414 1_556 S
C394 C393 1.414 1_554 S
C394 C395 1.391 . S
C394 C398 1.397 . S
C395 C390 1.391 . S
C395 C394 1.391 . S
C395 C396 1.399 . S
C396 C395 1.399 . S
C396 C397 1.396 . S
C396 C399 1.453 . S
C396 C400 1.684 . S
C397 C387 1.723 . S
C397 C396 1.396 . S
C397 C398 1.394 . S
C398 C368 1.723 1_554 S
C398 C394 1.397 . S
C398 C397 1.394 . S
C399 H371 0.982 . S
C399 H375 0.979 . S
C399 H376 0.977 . S
C399 C396 1.453 . S
C400 H372 0.979 . S
C400 H373 0.980 . S
C400 H374 0.983 . S
C400 C396 1.684 . S
H401 C419 0.948 . S
H402 C360 0.948 . S
H403 C378 0.979 . S
H404 C378 0.980 . S
H405 C378 0.983 . S
H406 C377 0.982 . S
H407 C377 0.979 . S
H408 C377 0.977 . S
H409 C379 0.948 . S
H410 C381 0.947 . S
H411 C382 0.948 . S
H412 C388 0.982 . S
H413 C388 0.979 . S
H414 C388 0.977 1_556 S
H415 C389 0.979 . S
H416 C389 0.980 1_556 S
H417 C389 0.983 . S
H418 C362 0.947 . S
C419 C362 1.392 . S
C419 C363 1.419 . S
C419 H401 0.948 . S
C420 C421 1.391 . S
C420 C424 1.391 . S
C420 H462 0.948 . S
C421 C420 1.391 . S
C421 C422 1.391 . S
C422 C421 1.391 . S
C422 H478 0.947 . S
C422 C479 1.392 . S
C423 C424 1.391 . S
C423 C427 1.397 . S
C423 C479 1.419 . S
C424 C420 1.391 . S
C424 C423 1.391 . S
C424 C425 1.399 . S
C425 C424 1.399 . S
C425 C428 1.396 . S
C425 C437 1.453 . S
C425 C438 1.684 . S
H426 C450 0.948 . S
C427 C423 1.397 . S
C427 C428 1.394 . S
C427 C446 1.723 1_556 S
C428 C425 1.396 . S
C428 C427 1.394 . S
C428 C458 1.723 1_556 S
H429 C452 0.947 1_556 S
H430 C453 0.948 . S
H431 C459 0.982 . S
H432 C460 0.979 . S
H433 C460 0.980 . S
H434 C460 0.983 . S
H435 C459 0.979 . S
H436 C459 0.977 . S
C437 C425 1.453 . S
C437 H466 0.982 . S
C437 H467 0.979 . S
C437 H468 0.977 . S
C438 C425 1.684 . S
C438 H463 0.979 . S
C438 H464 0.980 . S
C438 H465 0.983 . S
C439 C440 1.391 . S
C439 C444 1.391 . S
C439 H469 0.948 . S
C440 C439 1.391 . S
C440 C441 1.391 . S
C441 C440 1.391 . S
C441 C442 1.392 . S
C441 H470 0.947 . S
C442 C441 1.392 . S
C442 C443 1.419 . S
C442 H471 0.948 . S
C443 C442 1.419 . S
C443 C444 1.391 . S
C443 C447 1.397 . S
C444 C439 1.391 . S
C444 C443 1.391 . S
C444 C445 1.399 . S
C445 C444 1.399 . S
C445 C446 1.396 . S
C445 C448 1.453 . S
C445 C449 1.684 . S
C446 C427 1.723 1_554 S
C446 C445 1.396 . S
C446 C447 1.394 . S
C447 C443 1.397 . S
C447 C446 1.394 . S
C447 C457 1.723 . S
C448 C445 1.453 . S
C448 H472 0.982 . S
C448 H473 0.979 . S
C448 H474 0.977 1_554 S
C449 C445 1.684 . S
C449 H475 0.979 . S
C449 H476 0.980 1_554 S
C449 H477 0.983 . S
C450 H426 0.948 . S
C450 C451 1.391 . S
C450 C455 1.391 . S
C451 C450 1.391 . S
C451 C452 1.391 . S
C452 H429 0.947 1_554 S
C452 C451 1.391 . S
C452 C453 1.392 1_554 S
C453 H430 0.948 . S
C453 C452 1.392 1_556 S
C453 C454 1.419 1_556 S
C454 C453 1.419 1_554 S
C454 C455 1.391 . S
C454 C458 1.397 . S
C455 C450 1.391 . S
C455 C454 1.391 . S
C455 C456 1.399 . S
C456 C455 1.399 . S
C456 C457 1.396 . S
C456 C459 1.453 . S
C456 C460 1.684 . S
C457 C447 1.723 . S
C457 C456 1.396 . S
C457 C458 1.394 . S
C458 C428 1.723 1_554 S
C458 C454 1.397 . S
C458 C457 1.394 . S
C459 H431 0.982 . S
C459 H435 0.979 . S
C459 H436 0.977 . S
C459 C456 1.453 . S
C460 H432 0.979 . S
C460 H433 0.980 . S
C460 H434 0.983 . S
C460 C456 1.684 . S
H461 C479 0.948 . S
H462 C420 0.948 . S
H463 C438 0.979 . S
H464 C438 0.980 . S
H465 C438 0.983 . S
H466 C437 0.982 . S
H467 C437 0.979 . S
H468 C437 0.977 . S
H469 C439 0.948 . S
H470 C441 0.947 . S
H471 C442 0.948 . S
H472 C448 0.982 . S
H473 C448 0.979 . S
H474 C448 0.977 1_556 S
H475 C449 0.979 . S
H476 C449 0.980 1_556 S
H477 C449 0.983 . S
H478 C422 0.947 . S
C479 C422 1.392 . S
C479 C423 1.419 . S
C479 H461 0.948 . S
Gd480 C483 2.818 . S
Gd480 O500 2.377 . S
Gd480 O502 2.448 . S
Gd480 O503 2.506 . S
Gd480 O504 2.435 . S
Gd480 O505 2.717 1_565 S
Gd480 O507 2.395 1_565 S
Gd480 O511 2.327 1_465 S
Gd481 C492 2.818 . S
Gd481 O501 2.395 1_545 S
Gd481 O505 2.327 1_655 S
Gd481 O506 2.377 . S
Gd481 O508 2.448 . S
Gd481 O509 2.506 . S
Gd481 O510 2.435 . S
Gd481 O511 2.717 . S
C482 O500 1.240 1_655 S
C482 O501 1.240 . S
C483 Gd480 2.818 . S
C483 C484 1.510 . S
C483 O502 1.249 . S
C483 O503 1.252 . S
C484 C483 1.510 . S
C484 C485 1.404 . S
C484 C486 1.352 . S
C485 C484 1.404 . S
C485 C489 1.389 . S
C485 H512 0.930 . S
C486 C484 1.352 . S
C486 C488 1.374 . S
C486 H513 0.931 1_455 S
C487 C488 1.359 . S
C487 C489 1.364 . S
C488 C486 1.374 . S
C488 C487 1.359 . S
C488 H514 0.931 1_455 S
C489 C485 1.389 . S
C489 C487 1.364 . S
C489 H515 0.931 . S
C490 O504 1.256 1_545 S
C490 O505 1.257 . S
C491 O506 1.240 1_455 S
C491 O507 1.240 . S
C492 Gd481 2.818 . S
C492 C493 1.510 . S
C492 O508 1.249 . S
C492 O509 1.252 . S
C493 C492 1.510 . S
C493 C494 1.404 . S
C493 C495 1.352 . S
C494 C493 1.404 . S
C494 C498 1.389 . S
C494 H516 0.930 . S
C495 C493 1.352 . S
C495 C497 1.374 . S
C495 H517 0.931 1_655 S
C496 C497 1.359 . S
C496 C498 1.364 . S
C497 C495 1.374 . S
C497 C496 1.359 . S
C497 H518 0.931 1_655 S
C498 C494 1.389 . S
C498 C496 1.364 . S
C498 H519 0.931 . S
C499 O510 1.256 . S
C499 O511 1.257 . S
O500 Gd480 2.377 . S
O500 C482 1.240 1_455 S
O501 Gd481 2.395 1_565 S
O501 C482 1.240 . S
O502 Gd480 2.448 . S
O502 C483 1.249 . S
O503 Gd480 2.506 . S
O503 C483 1.252 . S
O504 Gd480 2.435 . S
O504 C490 1.256 1_565 S
O505 Gd480 2.717 1_545 S
O505 Gd481 2.327 1_455 S
O505 C490 1.257 . S
O506 Gd481 2.377 . S
O506 C491 1.240 1_655 S
O507 Gd480 2.395 1_545 S
O507 C491 1.240 . S
O508 Gd481 2.448 . S
O508 C492 1.249 . S
O509 Gd481 2.506 . S
O509 C492 1.252 . S
O510 Gd481 2.435 . S
O510 C499 1.256 . S
O511 Gd480 2.327 1_645 S
O511 Gd481 2.717 . S
O511 C499 1.257 . S
H512 C485 0.930 . S
H513 C486 0.931 1_655 S
H514 C488 0.931 1_655 S
H515 C489 0.931 . S
H516 C494 0.930 . S
H517 C495 0.931 1_455 S
H518 C497 0.931 1_455 S
H519 C498 0.931 . S
Gd520 C523 2.818 . S
Gd520 O540 2.377 . S
Gd520 O542 2.448 . S
Gd520 O543 2.506 . S
Gd520 O544 2.435 . S
Gd520 O545 2.717 . S
Gd520 O547 2.395 . S
Gd520 O551 2.327 1_545 S
Gd521 C532 2.818 . S
Gd521 O541 2.395 . S
Gd521 O545 2.327 1_565 S
Gd521 O546 2.377 1_565 S
Gd521 O548 2.448 . S
Gd521 O549 2.506 1_565 S
Gd521 O550 2.435 . S
Gd521 O551 2.717 . S
C522 O540 1.240 1_565 S
C522 O541 1.240 . S
C523 Gd520 2.818 . S
C523 C524 1.510 . S
C523 O542 1.249 . S
C523 O543 1.252 . S
C524 C523 1.510 . S
C524 C525 1.404 . S
C524 C526 1.352 . S
C525 C524 1.404 . S
C525 C529 1.389 . S
C525 H552 0.930 . S
C526 C524 1.352 . S
C526 C528 1.374 . S
C526 H553 0.931 1_545 S
C527 C528 1.359 . S
C527 C529 1.364 . S
C528 C526 1.374 . S
C528 C527 1.359 . S
C528 H554 0.931 1_545 S
C529 C525 1.389 . S
C529 C527 1.364 . S
C529 H555 0.931 . S
C530 O544 1.256 . S
C530 O545 1.257 . S
C531 O546 1.240 . S
C531 O547 1.240 . S
C532 Gd521 2.818 . S
C532 C533 1.510 . S
C532 O548 1.249 . S
C532 O549 1.252 1_565 S
C533 C532 1.510 . S
C533 C534 1.404 . S
C533 C535 1.352 1_565 S
C534 C533 1.404 . S
C534 C538 1.389 . S
C534 H556 0.930 . S
C535 C533 1.352 1_545 S
C535 C537 1.374 . S
C535 H557 0.931 . S
C536 C537 1.359 1_565 S
C536 C538 1.364 . S
C537 C535 1.374 . S
C537 C536 1.359 1_545 S
C537 H558 0.931 . S
C538 C534 1.389 . S
C538 C536 1.364 . S
C538 H559 0.931 . S
C539 O550 1.256 . S
C539 O551 1.257 . S
O540 Gd520 2.377 . S
O540 C522 1.240 1_545 S
O541 Gd521 2.395 . S
O541 C522 1.240 . S
O542 Gd520 2.448 . S
O542 C523 1.249 . S
O543 Gd520 2.506 . S
O543 C523 1.252 . S
O544 Gd520 2.435 . S
O544 C530 1.256 . S
O545 Gd520 2.717 . S
O545 Gd521 2.327 1_545 S
O545 C530 1.257 . S
O546 Gd521 2.377 1_545 S
O546 C531 1.240 . S
O547 Gd520 2.395 . S
O547 C531 1.240 . S
O548 Gd521 2.448 . S
O548 C532 1.249 . S
O549 Gd521 2.506 1_545 S
O549 C532 1.252 1_545 S
O550 Gd521 2.435 . S
O550 C539 1.256 . S
O551 Gd520 2.327 1_565 S
O551 Gd521 2.717 . S
O551 C539 1.257 . S
H552 C525 0.930 . S
H553 C526 0.931 1_565 S
H554 C528 0.931 1_565 S
H555 C529 0.931 . S
H556 C534 0.930 . S
H557 C535 0.931 . S
H558 C537 0.931 . S
H559 C538 0.931 . S
Gd560 C563 2.818 . S
Gd560 O580 2.377 . S
Gd560 O582 2.448 . S
Gd560 O583 2.506 . S
Gd560 O584 2.435 . S
Gd560 O585 2.717 . S
Gd560 O587 2.395 . S
Gd560 O591 2.327 . S
Gd561 C572 2.818 . S
Gd561 O581 2.395 . S
Gd561 O585 2.327 . S
Gd561 O586 2.377 . S
Gd561 O588 2.448 . S
Gd561 O589 2.506 . S
Gd561 O590 2.435 . S
Gd561 O591 2.717 . S
C562 O580 1.240 . S
C562 O581 1.240 . S
C563 Gd560 2.818 . S
C563 C564 1.510 . S
C563 O582 1.249 . S
C563 O583 1.252 . S
C564 C563 1.510 . S
C564 C565 1.404 . S
C564 C566 1.352 . S
C565 C564 1.404 . S
C565 C569 1.389 . S
C565 H592 0.930 . S
C566 C564 1.352 . S
C566 C568 1.374 . S
C566 H593 0.931 . S
C567 C568 1.359 . S
C567 C569 1.364 . S
C568 C566 1.374 . S
C568 C567 1.359 . S
C568 H594 0.931 . S
C569 C565 1.389 . S
C569 C567 1.364 . S
C569 H595 0.931 . S
C570 O584 1.256 . S
C570 O585 1.257 . S
C571 O586 1.240 . S
C571 O587 1.240 . S
C572 Gd561 2.818 . S
C572 C573 1.510 . S
C572 O588 1.249 . S
C572 O589 1.252 . S
C573 C572 1.510 . S
C573 C574 1.404 . S
C573 C575 1.352 . S
C574 C573 1.404 . S
C574 C578 1.389 . S
C574 H596 0.930 . S
C575 C573 1.352 . S
C575 C577 1.374 . S
C575 H597 0.931 . S
C576 C577 1.359 . S
C576 C578 1.364 . S
C577 C575 1.374 . S
C577 C576 1.359 . S
C577 H598 0.931 . S
C578 C574 1.389 . S
C578 C576 1.364 . S
C578 H599 0.931 . S
C579 O590 1.256 . S
C579 O591 1.257 . S
O580 Gd560 2.377 . S
O580 C562 1.240 . S
O581 Gd561 2.395 . S
O581 C562 1.240 . S
O582 Gd560 2.448 . S
O582 C563 1.249 . S
O583 Gd560 2.506 . S
O583 C563 1.252 . S
O584 Gd560 2.435 . S
O584 C570 1.256 . S
O585 Gd560 2.717 . S
O585 Gd561 2.327 . S
O585 C570 1.257 . S
O586 Gd561 2.377 . S
O586 C571 1.240 . S
O587 Gd560 2.395 . S
O587 C571 1.240 . S
O588 Gd561 2.448 . S
O588 C572 1.249 . S
O589 Gd561 2.506 . S
O589 C572 1.252 . S
O590 Gd561 2.435 . S
O590 C579 1.256 . S
O591 Gd560 2.327 . S
O591 Gd561 2.717 . S
O591 C579 1.257 . S
H592 C565 0.930 . S
H593 C566 0.931 . S
H594 C568 0.931 . S
H595 C569 0.931 . S
H596 C574 0.930 . S
H597 C575 0.931 . S
H598 C577 0.931 . S
H599 C578 0.931 . S
Gd600 C603 2.818 . S
Gd600 O620 2.377 . S
Gd600 O622 2.448 . S
Gd600 O623 2.506 . S
Gd600 O624 2.435 . S
Gd600 O625 2.717 1_655 S
Gd600 O627 2.395 1_655 S
Gd600 O631 2.327 . S
Gd601 C612 2.818 . S
Gd601 O621 2.395 1_455 S
Gd601 O625 2.327 . S
Gd601 O626 2.377 . S
Gd601 O628 2.448 . S
Gd601 O629 2.506 . S
Gd601 O630 2.435 . S
Gd601 O631 2.717 1_455 S
C602 O620 1.240 . S
C602 O621 1.240 . S
C603 Gd600 2.818 . S
C603 C604 1.510 . S
C603 O622 1.249 . S
C603 O623 1.252 . S
C604 C603 1.510 . S
C604 C605 1.404 . S
C604 C606 1.352 . S
C605 C604 1.404 . S
C605 C609 1.389 . S
C605 H632 0.930 . S
C606 C604 1.352 . S
C606 C608 1.374 . S
C606 H633 0.931 . S
C607 C608 1.359 . S
C607 C609 1.364 . S
C608 C606 1.374 . S
C608 C607 1.359 . S
C608 H634 0.931 . S
C609 C605 1.389 . S
C609 C607 1.364 . S
C609 H635 0.931 . S
C610 O624 1.256 . S
C610 O625 1.257 1_655 S
C611 O626 1.240 . S
C611 O627 1.240 . S
C612 Gd601 2.818 . S
C612 C613 1.510 . S
C612 O628 1.249 . S
C612 O629 1.252 . S
C613 C612 1.510 . S
C613 C614 1.404 . S
C613 C615 1.352 . S
C614 C613 1.404 . S
C614 C618 1.389 . S
C614 H636 0.930 . S
C615 C613 1.352 . S
C615 C617 1.374 . S
C615 H637 0.931 . S
C616 C617 1.359 . S
C616 C618 1.364 . S
C617 C615 1.374 . S
C617 C616 1.359 . S
C617 H638 0.931 . S
C618 C614 1.389 . S
C618 C616 1.364 . S
C618 H639 0.931 . S
C619 O630 1.256 . S
C619 O631 1.257 1_455 S
O620 Gd600 2.377 . S
O620 C602 1.240 . S
O621 Gd601 2.395 1_655 S
O621 C602 1.240 . S
O622 Gd600 2.448 . S
O622 C603 1.249 . S
O623 Gd600 2.506 . S
O623 C603 1.252 . S
O624 Gd600 2.435 . S
O624 C610 1.256 . S
O625 Gd600 2.717 1_455 S
O625 Gd601 2.327 . S
O625 C610 1.257 1_455 S
O626 Gd601 2.377 . S
O626 C611 1.240 . S
O627 Gd600 2.395 1_455 S
O627 C611 1.240 . S
O628 Gd601 2.448 . S
O628 C612 1.249 . S
O629 Gd601 2.506 . S
O629 C612 1.252 . S
O630 Gd601 2.435 . S
O630 C619 1.256 . S
O631 Gd600 2.327 . S
O631 Gd601 2.717 1_655 S
O631 C619 1.257 1_655 S
H632 C605 0.930 . S
H633 C606 0.931 . S
H634 C608 0.931 . S
H635 C609 0.931 . S
H636 C614 0.930 . S
H637 C615 0.931 . S
H638 C617 0.931 . S
H639 C618 0.931 . S
H640 C648 0.929 . S
H641 C650 0.930 . S
H642 C652 0.930 . S
H643 C655 0.929 . S
H644 C658 0.930 1_565 S
H645 C660 0.960 . S
H646 C660 0.960 . S
H647 C660 0.960 . S
C648 H640 0.929 . S
C648 C649 1.377 . S
C648 C650 1.384 . S
C649 C648 1.377 . S
C649 C655 1.390 . S
C650 H641 0.930 . S
C650 C648 1.384 . S
C650 C651 1.372 . S
C651 C650 1.372 . S
C651 C652 1.400 . S
C651 C656 1.490 . S
C652 H642 0.930 . S
C652 C651 1.400 . S
C652 C655 1.386 . S
H653 C669 0.930 . S
H654 C670 0.931 . S
C655 H643 0.929 . S
C655 C649 1.390 . S
C655 C652 1.386 . S
C656 C651 1.490 . S
C656 C658 1.395 . S
C656 C659 1.403 . S
H657 C663 0.930 . S
C658 H644 0.930 1_545 S
C658 C656 1.395 . S
C658 C661 1.403 1_545 S
C659 C656 1.403 . S
C659 C660 1.524 . S
C659 C663 1.400 . S
C660 H645 0.960 . S
C660 H646 0.960 . S
C660 H647 0.960 . S
C660 C659 1.524 . S
C661 C658 1.403 1_565 S
C661 C662 1.392 1_565 S
C661 C665 1.495 . S
C662 C661 1.392 1_545 S
C662 C663 1.385 . S
C662 C664 1.478 . S
C663 H657 0.930 . S
C663 C659 1.400 . S
C663 C662 1.385 . S
C664 C662 1.478 . S
C664 C666 1.381 . S
C664 C670 1.383 . S
C665 C661 1.495 . S
C665 H671 0.959 . S
C665 H672 0.961 . S
C665 H673 0.960 . S
C666 C664 1.381 . S
C666 C667 1.394 . S
C666 H674 0.930 1_545 S
C667 C666 1.394 . S
C667 C668 1.383 . S
C667 H675 0.929 1_545 S
C668 C667 1.383 . S
C668 C669 1.377 . S
C669 H653 0.930 . S
C669 C668 1.377 . S
C669 C670 1.379 . S
C670 H654 0.931 . S
C670 C664 1.383 . S
C670 C669 1.379 . S
H671 C665 0.959 . S
H672 C665 0.961 . S
H673 C665 0.960 . S
H674 C666 0.930 1_565 S
H675 C667 0.929 1_565 S
H676 C684 0.929 . S
H677 C686 0.930 . S
H678 C688 0.930 . S
H679 C691 0.929 . S
H680 C694 0.930 . S
H681 C696 0.960 . S
H682 C696 0.960 . S
H683 C696 0.960 . S
C684 H676 0.929 . S
C684 C685 1.377 . S
C684 C686 1.384 . S
C685 C684 1.377 . S
C685 C691 1.390 . S
C686 H677 0.930 . S
C686 C684 1.384 . S
C686 C687 1.372 . S
C687 C686 1.372 . S
C687 C688 1.400 . S
C687 C692 1.490 . S
C688 H678 0.930 . S
C688 C687 1.400 . S
C688 C691 1.386 . S
H689 C705 0.930 . S
H690 C706 0.931 . S
C691 H679 0.929 . S
C691 C685 1.390 . S
C691 C688 1.386 . S
C692 C687 1.490 . S
C692 C694 1.395 . S
C692 C695 1.403 . S
H693 C699 0.930 . S
C694 H680 0.930 . S
C694 C692 1.395 . S
C694 C697 1.403 . S
C695 C692 1.403 . S
C695 C696 1.524 . S
C695 C699 1.400 . S
C696 H681 0.960 . S
C696 H682 0.960 . S
C696 H683 0.960 . S
C696 C695 1.524 . S
C697 C694 1.403 . S
C697 C698 1.392 . S
C697 C701 1.495 . S
C698 C697 1.392 . S
C698 C699 1.385 . S
C698 C700 1.478 . S
C699 H693 0.930 . S
C699 C695 1.400 . S
C699 C698 1.385 . S
C700 C698 1.478 . S
C700 C702 1.381 . S
C700 C706 1.383 . S
C701 C697 1.495 . S
C701 H707 0.959 . S
C701 H708 0.961 . S
C701 H709 0.960 . S
C702 C700 1.381 . S
C702 C703 1.394 . S
C702 H710 0.930 . S
C703 C702 1.394 . S
C703 C704 1.383 . S
C703 H711 0.929 . S
C704 C703 1.383 . S
C704 C705 1.377 . S
C705 H689 0.930 . S
C705 C704 1.377 . S
C705 C706 1.379 . S
C706 H690 0.931 . S
C706 C700 1.383 . S
C706 C705 1.379 . S
H707 C701 0.959 . S
H708 C701 0.961 . S
H709 C701 0.960 . S
H710 C702 0.930 . S
H711 C703 0.929 . S
H712 C720 0.929 . S
H713 C722 0.930 . S
H714 C724 0.930 . S
H715 C727 0.929 . S
H716 C730 0.930 . S
H717 C732 0.960 . S
H718 C732 0.960 . S
H719 C732 0.960 . S
C720 H712 0.929 . S
C720 C721 1.377 . S
C720 C722 1.384 . S
C721 C720 1.377 . S
C721 C727 1.390 . S
C722 H713 0.930 . S
C722 C720 1.384 . S
C722 C723 1.372 . S
C723 C722 1.372 . S
C723 C724 1.400 . S
C723 C728 1.490 . S
C724 H714 0.930 . S
C724 C723 1.400 . S
C724 C727 1.386 . S
H725 C741 0.930 . S
H726 C742 0.931 . S
C727 H715 0.929 . S
C727 C721 1.390 . S
C727 C724 1.386 . S
C728 C723 1.490 . S
C728 C730 1.395 . S
C728 C731 1.403 . S
H729 C735 0.930 . S
C730 H716 0.930 . S
C730 C728 1.395 . S
C730 C733 1.403 . S
C731 C728 1.403 . S
C731 C732 1.524 . S
C731 C735 1.400 . S
C732 H717 0.960 . S
C732 H718 0.960 . S
C732 H719 0.960 . S
C732 C731 1.524 . S
C733 C730 1.403 . S
C733 C734 1.392 . S
C733 C737 1.495 . S
C734 C733 1.392 . S
C734 C735 1.385 . S
C734 C736 1.478 . S
C735 H729 0.930 . S
C735 C731 1.400 . S
C735 C734 1.385 . S
C736 C734 1.478 . S
C736 C738 1.381 . S
C736 C742 1.383 . S
C737 C733 1.495 . S
C737 H743 0.959 . S
C737 H744 0.961 . S
C737 H745 0.960 . S
C738 C736 1.381 . S
C738 C739 1.394 . S
C738 H746 0.930 . S
C739 C738 1.394 . S
C739 C740 1.383 . S
C739 H747 0.929 . S
C740 C739 1.383 . S
C740 C741 1.377 . S
C741 H725 0.930 . S
C741 C740 1.377 . S
C741 C742 1.379 . S
C742 H726 0.931 . S
C742 C736 1.383 . S
C742 C741 1.379 . S
H743 C737 0.959 . S
H744 C737 0.961 . S
H745 C737 0.960 . S
H746 C738 0.930 . S
H747 C739 0.929 . S
H748 C756 0.929 . S
H749 C758 0.930 . S
H750 C760 0.930 . S
H751 C763 0.929 . S
H752 C766 0.930 . S
H753 C768 0.960 . S
H754 C768 0.960 . S
H755 C768 0.960 . S
C756 H748 0.929 . S
C756 C757 1.378 . S
C756 C758 1.384 . S
C757 C756 1.378 . S
C757 C763 1.389 1_655 S
C758 H749 0.930 . S
C758 C756 1.384 . S
C758 C759 1.376 . S
C759 C758 1.376 . S
C759 C760 1.396 1_655 S
C759 C764 1.490 1_655 S
C760 H750 0.930 . S
C760 C759 1.396 1_455 S
C760 C763 1.386 . S
H761 C777 0.930 . S
H762 C778 0.931 . S
C763 H751 0.929 . S
C763 C757 1.389 1_455 S
C763 C760 1.386 . S
C764 C759 1.490 1_455 S
C764 C766 1.399 . S
C764 C767 1.398 1_455 S
H765 C771 0.930 . S
C766 H752 0.930 . S
C766 C764 1.399 . S
C766 C769 1.403 . S
C767 C764 1.398 1_655 S
C767 C768 1.524 . S
C767 C771 1.400 . S
C768 H753 0.960 . S
C768 H754 0.960 . S
C768 H755 0.960 . S
C768 C767 1.524 . S
C769 C766 1.403 . S
C769 C770 1.392 . S
C769 C773 1.495 . S
C770 C769 1.392 . S
C770 C771 1.385 1_455 S
C770 C772 1.478 . S
C771 H765 0.930 . S
C771 C767 1.400 . S
C771 C770 1.385 1_655 S
C772 C770 1.478 . S
C772 C774 1.381 1_455 S
C772 C778 1.383 . S
C773 C769 1.495 . S
C773 H779 0.959 . S
C773 H780 0.961 . S
C773 H781 0.960 . S
C774 C772 1.381 1_655 S
C774 C775 1.394 . S
C774 H782 0.930 . S
C775 C774 1.394 . S
C775 C776 1.383 1_655 S
C775 H783 0.929 . S
C776 C775 1.383 1_455 S
C776 C777 1.377 . S
C777 H761 0.930 . S
C777 C776 1.377 . S
C777 C778 1.379 . S
C778 H762 0.931 . S
C778 C772 1.383 . S
C778 C777 1.379 . S
H779 C773 0.959 . S
H780 C773 0.961 . S
H781 C773 0.960 . S
H782 C774 0.930 . S
H783 C775 0.929 . S
H784 C792 0.929 . S
H785 C794 0.930 . S
H786 C796 0.930 . S
H787 C799 0.929 . S
H788 C802 0.930 . S
H789 C804 0.960 1_556 S
H790 C804 0.960 . S
H791 C804 0.960 . S
C792 H784 0.929 . S
C792 C793 1.377 . S
C792 C794 1.384 . S
C793 C792 1.377 . S
C793 C799 1.390 . S
C794 H785 0.930 . S
C794 C792 1.384 . S
C794 C795 1.372 . S
C795 C794 1.372 . S
C795 C796 1.400 . S
C795 C800 1.490 . S
C796 H786 0.930 . S
C796 C795 1.400 . S
C796 C799 1.386 . S
H797 C813 0.930 . S
H798 C814 0.931 . S
C799 H787 0.929 . S
C799 C793 1.390 . S
C799 C796 1.386 . S
C800 C795 1.490 . S
C800 C802 1.395 . S
C800 C803 1.403 1_564 S
H801 C807 0.930 . S
C802 H788 0.930 . S
C802 C800 1.395 . S
C802 C805 1.403 1_554 S
C803 C800 1.403 1_546 S
C803 C804 1.524 1_556 S
C803 C807 1.400 . S
C804 H789 0.960 1_554 S
C804 H790 0.960 . S
C804 H791 0.960 . S
C804 C803 1.524 1_554 S
C805 C802 1.403 1_556 S
C805 C806 1.392 . S
C805 C809 1.495 . S
C806 C805 1.392 . S
C806 C807 1.385 1_565 S
C806 C808 1.478 . S
C807 H801 0.930 . S
C807 C803 1.400 . S
C807 C806 1.385 1_545 S
C808 C806 1.478 . S
C808 C810 1.381 . S
C808 C814 1.383 . S
C809 C805 1.495 . S
C809 H815 0.959 . S
C809 H816 0.961 . S
C809 H817 0.960 . S
C810 C808 1.381 . S
C810 C811 1.394 . S
C810 H818 0.930 . S
C811 C810 1.394 . S
C811 C812 1.379 1_565 S
C811 H819 0.929 . S
C812 C811 1.379 1_545 S
C812 C813 1.377 . S
C813 H797 0.930 . S
C813 C812 1.377 . S
C813 C814 1.379 1_545 S
C814 H798 0.931 . S
C814 C808 1.383 . S
C814 C813 1.379 1_565 S
H815 C809 0.959 . S
H816 C809 0.961 . S
H817 C809 0.960 . S
H818 C810 0.930 . S
H819 C811 0.929 . S
H820 C828 0.929 . S
H821 C830 0.930 . S
H822 C832 0.930 . S
H823 C835 0.929 . S
H824 C838 0.930 . S
H825 C840 0.960 . S
H826 C840 0.960 . S
H827 C840 0.960 . S
C828 H820 0.929 . S
C828 C829 1.377 . S
C828 C830 1.384 . S
C829 C828 1.377 . S
C829 C835 1.390 . S
C830 H821 0.930 . S
C830 C828 1.384 . S
C830 C831 1.372 . S
C831 C830 1.372 . S
C831 C832 1.400 . S
C831 C836 1.490 . S
C832 H822 0.930 . S
C832 C831 1.400 . S
C832 C835 1.386 . S
H833 C849 0.930 . S
H834 C850 0.931 . S
C835 H823 0.929 . S
C835 C829 1.390 . S
C835 C832 1.386 . S
C836 C831 1.490 . S
C836 C838 1.395 1_554 S
C836 C839 1.403 . S
H837 C843 0.930 . S
C838 H824 0.930 . S
C838 C836 1.395 1_556 S
C838 C841 1.403 . S
C839 C836 1.403 . S
C839 C840 1.524 . S
C839 C843 1.400 1_554 S
C840 H825 0.960 . S
C840 H826 0.960 . S
C840 H827 0.960 . S
C840 C839 1.524 . S
C841 C838 1.403 . S
C841 C842 1.392 . S
C841 C845 1.495 . S
C842 C841 1.392 . S
C842 C843 1.385 . S
C842 C844 1.478 . S
C843 H837 0.930 . S
C843 C839 1.400 1_556 S
C843 C842 1.385 . S
C844 C842 1.478 . S
C844 C846 1.381 . S
C844 C850 1.383 . S
C845 C841 1.495 . S
C845 H851 0.959 . S
C845 H852 0.961 . S
C845 H853 0.960 . S
C846 C844 1.381 . S
C846 C847 1.394 . S
C846 H854 0.930 . S
C847 C846 1.394 . S
C847 C848 1.383 . S
C847 H855 0.929 . S
C848 C847 1.383 . S
C848 C849 1.377 . S
C849 H833 0.930 . S
C849 C848 1.377 . S
C849 C850 1.379 . S
C850 H834 0.931 . S
C850 C844 1.383 . S
C850 C849 1.379 . S
H851 C845 0.959 . S
H852 C845 0.961 . S
H853 C845 0.960 . S
H854 C846 0.930 . S
H855 C847 0.929 . S
H856 C864 0.929 . S
H857 C866 0.930 . S
H858 C868 0.930 . S
H859 C871 0.929 . S
H860 C874 0.930 . S
H861 C876 0.960 . S
H862 C876 0.960 . S
H863 C876 0.960 . S
C864 H856 0.929 . S
C864 C865 1.377 . S
C864 C866 1.384 . S
C865 C864 1.377 . S
C865 C871 1.390 . S
C866 H857 0.930 . S
C866 C864 1.384 . S
C866 C867 1.372 . S
C867 C866 1.372 . S
C867 C868 1.400 . S
C867 C872 1.490 . S
C868 H858 0.930 . S
C868 C867 1.400 . S
C868 C871 1.386 . S
H869 C885 0.930 . S
H870 C886 0.931 . S
C871 H859 0.929 . S
C871 C865 1.390 . S
C871 C868 1.386 . S
C872 C867 1.490 . S
C872 C874 1.395 . S
C872 C875 1.403 1_554 S
H873 C879 0.930 . S
C874 H860 0.930 . S
C874 C872 1.395 . S
C874 C877 1.403 1_554 S
C875 C872 1.403 1_556 S
C875 C876 1.524 . S
C875 C879 1.400 . S
C876 H861 0.960 . S
C876 H862 0.960 . S
C876 H863 0.960 . S
C876 C875 1.524 . S
C877 C874 1.403 1_556 S
C877 C878 1.392 . S
C877 C881 1.495 . S
C878 C877 1.392 . S
C878 C879 1.385 . S
C878 C880 1.478 . S
C879 H873 0.930 . S
C879 C875 1.400 . S
C879 C878 1.385 . S
C880 C878 1.478 . S
C880 C882 1.381 . S
C880 C886 1.383 . S
C881 C877 1.495 . S
C881 H887 0.959 1_556 S
C881 H888 0.961 . S
C881 H889 0.960 . S
C882 C880 1.381 . S
C882 C883 1.394 . S
C882 H890 0.930 . S
C883 C882 1.394 . S
C883 C884 1.383 . S
C883 H891 0.929 . S
C884 C883 1.383 . S
C884 C885 1.377 . S
C885 H869 0.930 . S
C885 C884 1.377 . S
C885 C886 1.379 . S
C886 H870 0.931 . S
C886 C880 1.383 . S
C886 C885 1.379 . S
H887 C881 0.959 1_554 S
H888 C881 0.961 . S
H889 C881 0.960 . S
H890 C882 0.930 . S
H891 C883 0.929 . S
H892 C900 0.929 . S
H893 C902 0.930 . S
H894 C904 0.930 . S
H895 C907 0.929 . S
H896 C910 0.930 . S
H897 C912 0.960 . S
H898 C912 0.960 . S
H899 C912 0.960 . S
C900 H892 0.929 . S
C900 C901 1.372 . S
C900 C902 1.384 . S
C901 C900 1.372 . S
C901 C907 1.395 1_455 S
C902 H893 0.930 . S
C902 C900 1.384 . S
C902 C903 1.413 . S
C903 C902 1.413 . S
C903 C904 1.358 1_455 S
C903 C908 1.492 . S
C904 H894 0.930 . S
C904 C903 1.358 1_655 S
C904 C907 1.386 . S
H905 C921 0.930 . S
H906 C922 0.931 . S
C907 H895 0.929 . S
C907 C901 1.395 1_655 S
C907 C904 1.386 . S
C908 C903 1.492 . S
C908 C910 1.395 . S
C908 C911 1.403 1_454 S
H909 C915 0.930 . S
C910 H896 0.930 . S
C910 C908 1.395 . S
C910 C913 1.403 1_554 S
C911 C908 1.403 1_656 S
C911 C912 1.524 . S
C911 C915 1.400 . S
C912 H897 0.960 . S
C912 H898 0.960 . S
C912 H899 0.960 . S
C912 C911 1.524 . S
C913 C910 1.403 1_556 S
C913 C914 1.392 . S
C913 C917 1.495 . S
C914 C913 1.392 . S
C914 C915 1.385 1_455 S
C914 C916 1.478 . S
C915 H909 0.930 . S
C915 C911 1.400 . S
C915 C914 1.385 1_655 S
C916 C914 1.478 . S
C916 C918 1.381 . S
C916 C922 1.383 1_455 S
C917 C913 1.495 . S
C917 H923 0.959 1_556 S
C917 H924 0.961 . S
C917 H925 0.960 . S
C918 C916 1.381 . S
C918 C919 1.394 . S
C918 H926 0.930 . S
C919 C918 1.394 . S
C919 C920 1.398 . S
C919 H927 0.929 . S
C920 C919 1.398 . S
C920 C921 1.363 1_455 S
C921 H905 0.930 . S
C921 C920 1.363 1_655 S
C921 C922 1.379 . S
C922 H906 0.931 . S
C922 C916 1.383 1_655 S
C922 C921 1.379 . S
H923 C917 0.959 1_554 S
H924 C917 0.961 . S
H925 C917 0.960 . S
H926 C918 0.930 . S
H927 C919 0.929 . S
H928 C936 0.929 . S
H929 C938 0.930 . S
H930 C940 0.930 . S
H931 C943 0.929 . S
H932 C946 0.930 . S
H933 C948 0.960 . S
H934 C948 0.960 . S
H935 C948 0.960 . S
C936 H928 0.929 . S
C936 C937 1.377 . S
C936 C938 1.384 . S
C937 C936 1.377 . S
C937 C943 1.390 1_455 S
C938 H929 0.930 . S
C938 C936 1.384 . S
C938 C939 1.372 1_455 S
C939 C938 1.372 1_655 S
C939 C940 1.400 . S
C939 C944 1.490 . S
C940 H930 0.930 . S
C940 C939 1.400 . S
C940 C943 1.386 . S
H941 C957 0.930 . S
H942 C958 0.931 . S
C943 H931 0.929 . S
C943 C937 1.390 1_655 S
C943 C940 1.386 . S
C944 C939 1.490 . S
C944 C946 1.395 1_655 S
C944 C947 1.403 . S
H945 C951 0.930 . S
C946 H932 0.930 . S
C946 C944 1.395 1_455 S
C946 C949 1.403 . S
C947 C944 1.403 . S
C947 C948 1.524 . S
C947 C951 1.400 . S
C948 H933 0.960 . S
C948 H934 0.960 . S
C948 H935 0.960 . S
C948 C947 1.524 . S
C949 C946 1.403 . S
C949 C950 1.392 1_455 S
C949 C953 1.495 . S
C950 C949 1.392 1_655 S
C950 C951 1.385 . S
C950 C952 1.478 . S
C951 H945 0.930 . S
C951 C947 1.400 . S
C951 C950 1.385 . S
C952 C950 1.478 . S
C952 C954 1.381 . S
C952 C958 1.383 . S
C953 C949 1.495 . S
C953 H959 0.959 . S
C953 H960 0.961 . S
C953 H961 0.960 . S
C954 C952 1.381 . S
C954 C955 1.394 . S
C954 H962 0.930 1_655 S
C955 C954 1.394 . S
C955 C956 1.383 . S
C955 H963 0.929 . S
C956 C955 1.383 . S
C956 C957 1.377 . S
C957 H941 0.930 . S
C957 C956 1.377 . S
C957 C958 1.379 . S
C958 H942 0.931 . S
C958 C952 1.383 . S
C958 C957 1.379 . S
H959 C953 0.959 . S
H960 C953 0.961 . S
H961 C953 0.960 . S
H962 C954 0.930 1_455 S
H963 C955 0.929 . S
H964 C972 0.929 . S
H965 C974 0.930 . S
H966 C976 0.930 1_565 S
H967 C979 0.929 . S
H968 C982 0.930 . S
H969 C984 0.960 . S
H970 C984 0.960 . S
H971 C984 1.000 . S
C972 H964 0.929 . S
C972 C973 1.377 . S
C972 C974 1.384 . S
C973 C972 1.377 . S
C973 C979 1.390 . S
C974 H965 0.930 . S
C974 C972 1.384 . S
C974 C975 1.372 . S
C975 C974 1.372 . S
C975 C976 1.400 . S
C975 C980 1.490 . S
C976 H966 0.930 1_545 S
C976 C975 1.400 . S
C976 C979 1.386 . S
H977 C993 0.930 . S
H978 C994 0.931 . S
C979 H967 0.929 . S
C979 C973 1.390 . S
C979 C976 1.386 . S
C980 C975 1.490 . S
C980 C982 1.395 . S
C980 C983 1.403 . S
H981 C987 0.919 1_565 S
C982 H968 0.930 . S
C982 C980 1.395 . S
C982 C985 1.403 . S
C983 C980 1.403 . S
C983 C984 1.524 . S
C983 C987 1.400 . S
C984 H969 0.960 . S
C984 H970 0.960 . S
C984 H971 1.000 . S
C984 C983 1.524 . S
C985 C982 1.403 . S
C985 C986 1.392 . S
C985 C989 1.495 . S
C986 C985 1.392 . S
C986 C987 1.385 . S
C986 C988 1.478 1_545 S
C987 H981 0.919 1_545 S
C987 C983 1.400 . S
C987 C986 1.385 . S
C988 C986 1.478 1_565 S
C988 C990 1.381 1_565 S
C988 C994 1.383 . S
C989 C985 1.495 . S
C989 H995 0.959 . S
C989 H996 0.961 1_545 S
C989 H997 0.960 . S
C990 C988 1.381 1_545 S
C990 C991 1.394 . S
C990 H998 0.930 . S
C991 C990 1.394 . S
C991 C992 1.383 1_545 S
C991 H999 0.929 . S
C992 C991 1.383 1_565 S
C992 C993 1.377 . S
C993 H977 0.930 . S
C993 C992 1.377 . S
C993 C994 1.379 . S
C994 H978 0.931 . S
C994 C988 1.383 . S
C994 C993 1.379 . S
H995 C989 0.959 . S
H996 C989 0.961 1_565 S
H997 C989 0.960 . S
H998 C990 0.930 . S
H999 C991 0.929 . S
H1000 C1008 0.929 . S
H1001 C1010 0.930 . S
H1002 C1012 0.930 . S
H1003 C1015 0.929 . S
H1004 C1018 0.930 . S
H1005 C1020 0.960 . S
H1006 C1020 0.960 . S
H1007 C1020 0.960 . S
C1008 H1000 0.929 . S
C1008 C1009 1.377 . S
C1008 C1010 1.384 . S
C1009 C1008 1.377 . S
C1009 C1015 1.390 . S
C1010 H1001 0.930 . S
C1010 C1008 1.384 . S
C1010 C1011 1.372 . S
C1011 C1010 1.372 . S
C1011 C1012 1.400 . S
C1011 C1016 1.490 . S
C1012 H1002 0.930 . S
C1012 C1011 1.400 . S
C1012 C1015 1.386 . S
H1013 C1029 0.930 . S
H1014 C1030 0.931 . S
C1015 H1003 0.929 . S
C1015 C1009 1.390 . S
C1015 C1012 1.386 . S
C1016 C1011 1.490 . S
C1016 C1018 1.395 . S
C1016 C1019 1.403 . S
H1017 C1023 0.930 . S
C1018 H1004 0.930 . S
C1018 C1016 1.395 . S
C1018 C1021 1.403 . S
C1019 C1016 1.403 . S
C1019 C1020 1.524 . S
C1019 C1023 1.400 . S
C1020 H1005 0.960 . S
C1020 H1006 0.960 . S
C1020 H1007 0.960 . S
C1020 C1019 1.524 . S
C1021 C1018 1.403 . S
C1021 C1022 1.392 . S
C1021 C1025 1.495 . S
C1022 C1021 1.392 . S
C1022 C1023 1.385 . S
C1022 C1024 1.478 . S
C1023 H1017 0.930 . S
C1023 C1019 1.400 . S
C1023 C1022 1.385 . S
C1024 C1022 1.478 . S
C1024 C1026 1.381 . S
C1024 C1030 1.383 . S
C1025 C1021 1.495 . S
C1025 H1031 0.959 . S
C1025 H1032 0.961 . S
C1025 H1033 0.960 . S
C1026 C1024 1.381 . S
C1026 C1027 1.394 . S
C1026 H1034 0.930 . S
C1027 C1026 1.394 . S
C1027 C1028 1.383 . S
C1027 H1035 0.929 . S
C1028 C1027 1.383 . S
C1028 C1029 1.377 . S
C1029 H1013 0.930 . S
C1029 C1028 1.377 . S
C1029 C1030 1.379 . S
C1030 H1014 0.931 . S
C1030 C1024 1.383 . S
C1030 C1029 1.379 . S
H1031 C1025 0.959 . S
H1032 C1025 0.961 . S
H1033 C1025 0.960 . S
H1034 C1026 0.930 . S
H1035 C1027 0.929 . S
H1036 C1044 0.929 . S
H1037 C1046 0.930 . S
H1038 C1048 0.930 . S
H1039 C1051 0.929 . S
H1040 C1054 0.930 . S
H1041 C1056 0.960 . S
H1042 C1056 0.960 . S
H1043 C1056 0.960 . S
C1044 H1036 0.929 . S
C1044 C1045 1.377 . S
C1044 C1046 1.384 . S
C1045 C1044 1.377 . S
C1045 C1051 1.390 . S
C1046 H1037 0.930 . S
C1046 C1044 1.384 . S
C1046 C1047 1.372 . S
C1047 C1046 1.372 . S
C1047 C1048 1.400 . S
C1047 C1052 1.490 . S
C1048 H1038 0.930 . S
C1048 C1047 1.400 . S
C1048 C1051 1.386 . S
H1049 C1065 0.930 . S
H1050 C1066 0.931 . S
C1051 H1039 0.929 . S
C1051 C1045 1.390 . S
C1051 C1048 1.386 . S
C1052 C1047 1.490 . S
C1052 C1054 1.395 . S
C1052 C1055 1.403 . S
H1053 C1059 0.930 . S
C1054 H1040 0.930 . S
C1054 C1052 1.395 . S
C1054 C1057 1.403 . S
C1055 C1052 1.403 . S
C1055 C1056 1.524 . S
C1055 C1059 1.400 . S
C1056 H1041 0.960 . S
C1056 H1042 0.960 . S
C1056 H1043 0.960 . S
C1056 C1055 1.524 . S
C1057 C1054 1.403 . S
C1057 C1058 1.392 . S
C1057 C1061 1.495 . S
C1058 C1057 1.392 . S
C1058 C1059 1.385 . S
C1058 C1060 1.478 . S
C1059 H1053 0.930 . S
C1059 C1055 1.400 . S
C1059 C1058 1.385 . S
C1060 C1058 1.478 . S
C1060 C1062 1.381 . S
C1060 C1066 1.383 . S
C1061 C1057 1.495 . S
C1061 H1067 0.959 . S
C1061 H1068 0.961 . S
C1061 H1069 0.960 . S
C1062 C1060 1.381 . S
C1062 C1063 1.394 . S
C1062 H1070 0.930 . S
C1063 C1062 1.394 . S
C1063 C1064 1.383 . S
C1063 H1071 0.929 . S
C1064 C1063 1.383 . S
C1064 C1065 1.377 . S
C1065 H1049 0.930 . S
C1065 C1064 1.377 . S
C1065 C1066 1.379 . S
C1066 H1050 0.931 . S
C1066 C1060 1.383 . S
C1066 C1065 1.379 . S
H1067 C1061 0.959 . S
H1068 C1061 0.961 . S
H1069 C1061 0.960 . S
H1070 C1062 0.930 . S
H1071 C1063 0.929 . S
H1072 C1080 0.929 . S
H1073 C1082 0.930 1_556 S
H1074 C1084 0.930 . S
H1075 C1087 0.929 . S
H1076 C1090 0.933 . S
H1077 C1092 0.960 . S
H1078 C1092 0.960 . S
H1079 C1092 0.960 1_554 S
C1080 H1072 0.929 . S
C1080 C1081 1.377 . S
C1080 C1082 1.384 . S
C1081 C1080 1.377 . S
C1081 C1087 1.390 1_655 S
C1082 H1073 0.930 1_554 S
C1082 C1080 1.384 . S
C1082 C1083 1.372 1_655 S
C1083 C1082 1.372 1_455 S
C1083 C1084 1.400 . S
C1083 C1088 1.490 1_554 S
C1084 H1074 0.930 . S
C1084 C1083 1.400 . S
C1084 C1087 1.386 . S
H1085 C1101 0.930 . S
H1086 C1102 0.931 . S
C1087 H1075 0.929 . S
C1087 C1081 1.390 1_455 S
C1087 C1084 1.386 . S
C1088 C1083 1.490 1_556 S
C1088 C1090 1.395 1_455 S
C1088 C1091 1.403 . S
H1089 C1095 0.930 . S
C1090 H1076 0.933 . S
C1090 C1088 1.395 1_655 S
C1090 C1093 1.403 . S
C1091 C1088 1.403 . S
C1091 C1092 1.524 . S
C1091 C1095 1.400 . S
C1092 H1077 0.960 . S
C1092 H1078 0.960 . S
C1092 H1079 0.960 1_556 S
C1092 C1091 1.524 . S
C1093 C1090 1.403 . S
C1093 C1094 1.392 1_655 S
C1093 C1097 1.495 . S
C1094 C1093 1.392 1_455 S
C1094 C1095 1.385 . S
C1094 C1096 1.478 . S
C1095 H1089 0.930 . S
C1095 C1091 1.400 . S
C1095 C1094 1.385 . S
C1096 C1094 1.478 . S
C1096 C1098 1.381 . S
C1096 C1102 1.383 . S
C1097 C1093 1.495 . S
C1097 H1103 0.959 . S
C1097 H1104 0.961 . S
C1097 H1105 0.960 . S
C1098 C1096 1.381 . S
C1098 C1099 1.394 . S
C1098 H1106 0.930 . S
C1099 C1098 1.394 . S
C1099 C1100 1.383 . S
C1099 H1107 0.929 . S
C1100 C1099 1.383 . S
C1100 C1101 1.377 . S
C1101 H1085 0.930 . S
C1101 C1100 1.377 . S
C1101 C1102 1.379 . S
C1102 H1086 0.931 . S
C1102 C1096 1.383 . S
C1102 C1101 1.379 . S
H1103 C1097 0.959 . S
H1104 C1097 0.961 . S
H1105 C1097 0.960 . S
H1106 C1098 0.930 . S
H1107 C1099 0.929 . S
H1108 C1116 0.929 . S
H1109 C1118 0.930 . S
H1110 C1120 0.930 . S
H1111 C1123 0.929 . S
H1112 C1126 0.930 . S
H1113 C1128 0.960 . S
H1114 C1128 0.960 . S
H1115 C1128 0.960 1_565 S
C1116 H1108 0.929 . S
C1116 C1117 1.377 1_545 S
C1116 C1118 1.384 . S
C1117 C1116 1.377 1_565 S
C1117 C1123 1.390 . S
C1118 H1109 0.930 . S
C1118 C1116 1.384 . S
C1118 C1119 1.372 1_545 S
C1119 C1118 1.372 1_565 S
C1119 C1120 1.400 . S
C1119 C1124 1.490 1_564 S
C1120 H1110 0.930 . S
C1120 C1119 1.400 . S
C1120 C1123 1.386 . S
H1121 C1137 0.930 . S
H1122 C1138 0.931 1_565 S
C1123 H1111 0.929 . S
C1123 C1117 1.390 . S
C1123 C1120 1.386 . S
C1124 C1119 1.490 1_546 S
C1124 C1126 1.395 . S
C1124 C1127 1.403 1_556 S
H1125 C1131 0.930 1_554 S
C1126 H1112 0.930 . S
C1126 C1124 1.395 . S
C1126 C1129 1.403 . S
C1127 C1124 1.403 1_554 S
C1127 C1128 1.524 . S
C1127 C1131 1.400 1_554 S
C1128 H1113 0.960 . S
C1128 H1114 0.960 . S
C1128 H1115 0.960 1_545 S
C1128 C1127 1.524 . S
C1129 C1126 1.403 . S
C1129 C1130 1.392 . S
C1129 C1133 1.495 . S
C1130 C1129 1.392 . S
C1130 C1131 1.385 . S
C1130 C1132 1.478 . S
C1131 H1125 0.930 1_556 S
C1131 C1127 1.400 1_556 S
C1131 C1130 1.385 . S
C1132 C1130 1.478 . S
C1132 C1134 1.381 . S
C1132 C1138 1.383 . S
C1133 C1129 1.495 . S
C1133 H1139 0.959 . S
C1133 H1140 0.961 . S
C1133 H1141 0.960 . S
C1134 C1132 1.381 . S
C1134 C1135 1.394 . S
C1134 H1142 0.930 . S
C1135 C1134 1.394 . S
C1135 C1136 1.383 . S
C1135 H1143 0.929 . S
C1136 C1135 1.383 . S
C1136 C1137 1.377 . S
C1137 H1121 0.930 . S
C1137 C1136 1.377 . S
C1137 C1138 1.379 . S
C1138 H1122 0.931 1_545 S
C1138 C1132 1.383 . S
C1138 C1137 1.379 . S
H1139 C1133 0.959 . S
H1140 C1133 0.961 . S
H1141 C1133 0.960 . S
H1142 C1134 0.930 . S
H1143 C1135 0.929 . S
H1144 C1152 0.929 . S
H1145 C1154 0.930 . S
H1146 C1156 0.930 . S
H1147 C1159 0.929 . S
H1148 C1162 0.930 . S
H1149 C1164 0.960 . S
H1150 C1164 0.960 . S
H1151 C1164 0.960 . S
C1152 H1144 0.929 . S
C1152 C1153 1.377 . S
C1152 C1154 1.384 . S
C1153 C1152 1.377 . S
C1153 C1159 1.390 . S
C1154 H1145 0.930 . S
C1154 C1152 1.384 . S
C1154 C1155 1.372 . S
C1155 C1154 1.372 . S
C1155 C1156 1.400 . S
C1155 C1160 1.490 . S
C1156 H1146 0.930 . S
C1156 C1155 1.400 . S
C1156 C1159 1.386 . S
H1157 C1173 0.930 . S
H1158 C1174 0.931 . S
C1159 H1147 0.929 . S
C1159 C1153 1.390 . S
C1159 C1156 1.386 . S
C1160 C1155 1.490 . S
C1160 C1162 1.395 . S
C1160 C1163 1.403 1_554 S
H1161 C1167 0.930 . S
C1162 H1148 0.930 . S
C1162 C1160 1.395 . S
C1162 C1165 1.403 1_554 S
C1163 C1160 1.403 1_556 S
C1163 C1164 1.524 . S
C1163 C1167 1.400 . S
C1164 H1149 0.960 . S
C1164 H1150 0.960 . S
C1164 H1151 0.960 . S
C1164 C1163 1.524 . S
C1165 C1162 1.403 1_556 S
C1165 C1166 1.392 . S
C1165 C1169 1.495 1_556 S
C1166 C1165 1.392 . S
C1166 C1167 1.385 . S
C1166 C1168 1.478 . S
C1167 H1161 0.930 . S
C1167 C1163 1.400 . S
C1167 C1166 1.385 . S
C1168 C1166 1.478 . S
C1168 C1170 1.381 . S
C1168 C1174 1.383 . S
C1169 C1165 1.495 1_554 S
C1169 H1175 0.959 . S
C1169 H1176 0.961 . S
C1169 H1177 0.960 1_554 S
C1170 C1168 1.381 . S
C1170 C1171 1.394 . S
C1170 H1178 0.930 . S
C1171 C1170 1.394 . S
C1171 C1172 1.383 . S
C1171 H1179 0.929 . S
C1172 C1171 1.383 . S
C1172 C1173 1.377 . S
C1173 H1157 0.930 . S
C1173 C1172 1.377 . S
C1173 C1174 1.379 . S
C1174 H1158 0.931 . S
C1174 C1168 1.383 . S
C1174 C1173 1.379 . S
H1175 C1169 0.959 . S
H1176 C1169 0.961 . S
H1177 C1169 0.960 1_556 S
H1178 C1170 0.930 . S
H1179 C1171 0.929 . S
H1180 C1188 0.929 . S
H1181 C1190 0.930 1_556 S
H1182 C1192 0.930 . S
H1183 C1195 0.929 . S
H1184 C1198 0.930 1_554 S
H1185 C1200 0.960 . S
H1186 C1200 0.960 . S
H1187 C1200 0.960 1_554 S
C1188 H1180 0.929 . S
C1188 C1189 1.377 . S
C1188 C1190 1.384 . S
C1189 C1188 1.377 . S
C1189 C1195 1.390 . S
C1190 H1181 0.930 1_554 S
C1190 C1188 1.384 . S
C1190 C1191 1.372 . S
C1191 C1190 1.372 . S
C1191 C1192 1.400 . S
C1191 C1196 1.490 1_554 S
C1192 H1182 0.930 . S
C1192 C1191 1.400 . S
C1192 C1195 1.386 . S
H1193 C1209 0.930 . S
H1194 C1210 0.931 . S
C1195 H1183 0.929 . S
C1195 C1189 1.390 . S
C1195 C1192 1.386 . S
C1196 C1191 1.490 1_556 S
C1196 C1198 1.395 . S
C1196 C1199 1.403 . S
H1197 C1203 0.930 . S
C1198 H1184 0.930 1_556 S
C1198 C1196 1.395 . S
C1198 C1201 1.403 . S
C1199 C1196 1.403 . S
C1199 C1200 1.524 . S
C1199 C1203 1.400 . S
C1200 H1185 0.960 . S
C1200 H1186 0.960 . S
C1200 H1187 0.960 1_556 S
C1200 C1199 1.524 . S
C1201 C1198 1.403 . S
C1201 C1202 1.392 . S
C1201 C1205 1.495 . S
C1202 C1201 1.392 . S
C1202 C1203 1.385 . S
C1202 C1204 1.478 . S
C1203 H1197 0.930 . S
C1203 C1199 1.400 . S
C1203 C1202 1.385 . S
C1204 C1202 1.478 . S
C1204 C1206 1.381 . S
C1204 C1210 1.383 . S
C1205 C1201 1.495 . S
C1205 H1211 0.959 . S
C1205 H1212 0.961 . S
C1205 H1213 0.960 . S
C1206 C1204 1.381 . S
C1206 C1207 1.394 . S
C1206 H1214 0.930 . S
C1207 C1206 1.394 . S
C1207 C1208 1.383 . S
C1207 H1215 0.929 . S
C1208 C1207 1.383 . S
C1208 C1209 1.377 . S
C1209 H1193 0.930 . S
C1209 C1208 1.377 . S
C1209 C1210 1.379 . S
C1210 H1194 0.931 . S
C1210 C1204 1.383 . S
C1210 C1209 1.379 . S
H1211 C1205 0.959 . S
H1212 C1205 0.961 . S
H1213 C1205 0.960 . S
H1214 C1206 0.930 . S
H1215 C1207 0.929 . S
H1216 C1224 0.929 . S
H1217 C1226 0.930 . S
H1218 C1228 0.930 . S
H1219 C1231 0.929 . S
H1220 C1234 0.930 . S
H1221 C1236 0.960 . S
H1222 C1236 0.960 1_455 S
H1223 C1236 0.960 . S
C1224 H1216 0.929 . S
C1224 C1225 1.377 . S
C1224 C1226 1.384 . S
C1225 C1224 1.377 . S
C1225 C1231 1.390 1_455 S
C1226 H1217 0.930 . S
C1226 C1224 1.384 . S
C1226 C1227 1.372 . S
C1227 C1226 1.372 . S
C1227 C1228 1.400 1_455 S
C1227 C1232 1.490 . S
C1228 H1218 0.930 . S
C1228 C1227 1.400 1_655 S
C1228 C1231 1.386 . S
H1229 C1245 0.930 . S
H1230 C1246 0.931 . S
C1231 H1219 0.929 . S
C1231 C1225 1.390 1_655 S
C1231 C1228 1.386 . S
C1232 C1227 1.490 . S
C1232 C1234 1.395 . S
C1232 C1235 1.416 . S
H1233 C1239 0.930 1_655 S
C1234 H1220 0.930 . S
C1234 C1232 1.395 . S
C1234 C1237 1.403 . S
C1235 C1232 1.416 . S
C1235 C1236 1.510 1_455 S
C1235 C1239 1.405 . S
C1236 H1221 0.960 . S
C1236 H1222 0.960 1_655 S
C1236 H1223 0.960 . S
C1236 C1235 1.510 1_655 S
C1237 C1234 1.403 . S
C1237 C1238 1.392 . S
C1237 C1241 1.495 . S
C1238 C1237 1.392 . S
C1238 C1239 1.385 . S
C1238 C1240 1.478 . S
C1239 H1233 0.930 1_455 S
C1239 C1235 1.405 . S
C1239 C1238 1.385 . S
C1240 C1238 1.478 . S
C1240 C1242 1.381 . S
C1240 C1246 1.383 1_455 S
C1241 C1237 1.495 . S
C1241 H1247 0.959 . S
C1241 H1248 0.961 . S
C1241 H1249 0.960 . S
C1242 C1240 1.381 . S
C1242 C1243 1.394 . S
C1242 H1250 0.930 . S
C1243 C1242 1.394 . S
C1243 C1244 1.383 . S
C1243 H1251 0.929 . S
C1244 C1243 1.383 . S
C1244 C1245 1.377 1_455 S
C1245 H1229 0.930 . S
C1245 C1244 1.377 1_655 S
C1245 C1246 1.379 . S
C1246 H1230 0.931 . S
C1246 C1240 1.383 1_655 S
C1246 C1245 1.379 . S
H1247 C1241 0.959 . S
H1248 C1241 0.961 . S
H1249 C1241 0.960 . S
H1250 C1242 0.930 . S
H1251 C1243 0.929 . S
H1252 C1260 0.929 . S
H1253 C1262 0.930 . S
H1254 C1264 0.930 1_565 S
H1255 C1267 0.929 1_565 S
H1256 C1270 0.930 . S
H1257 C1272 0.962 1_565 S
H1258 C1272 0.960 . S
H1259 C1272 0.960 1_565 S
C1260 H1252 0.929 . S
C1260 C1261 1.377 . S
C1260 C1262 1.384 . S
C1261 C1260 1.377 . S
C1261 C1267 1.390 . S
C1262 H1253 0.930 . S
C1262 C1260 1.384 . S
C1262 C1263 1.372 . S
C1263 C1262 1.372 . S
C1263 C1264 1.400 . S
C1263 C1268 1.490 . S
C1264 H1254 0.930 1_545 S
C1264 C1263 1.400 . S
C1264 C1267 1.386 . S
H1265 C1281 0.930 1_565 S
H1266 C1282 0.931 1_565 S
C1267 H1255 0.929 1_545 S
C1267 C1261 1.390 . S
C1267 C1264 1.386 . S
C1268 C1263 1.490 . S
C1268 C1270 1.395 . S
C1268 C1271 1.403 . S
H1269 C1275 0.930 . S
C1270 H1256 0.930 . S
C1270 C1268 1.395 . S
C1270 C1273 1.403 . S
C1271 C1268 1.403 . S
C1271 C1272 1.524 . S
C1271 C1275 1.400 . S
C1272 H1257 0.962 1_545 S
C1272 H1258 0.960 . S
C1272 H1259 0.960 1_545 S
C1272 C1271 1.524 . S
C1273 C1270 1.403 . S
C1273 C1274 1.392 . S
C1273 C1277 1.495 . S
C1274 C1273 1.392 . S
C1274 C1275 1.385 . S
C1274 C1276 1.478 . S
C1275 H1269 0.930 . S
C1275 C1271 1.400 . S
C1275 C1274 1.385 . S
C1276 C1274 1.478 . S
C1276 C1278 1.381 . S
C1276 C1282 1.383 . S
C1277 C1273 1.495 . S
C1277 H1283 0.959 . S
C1277 H1284 0.961 . S
C1277 H1285 0.960 . S
C1278 C1276 1.381 . S
C1278 C1279 1.394 . S
C1278 H1286 0.930 . S
C1279 C1278 1.394 . S
C1279 C1280 1.383 . S
C1279 H1287 0.929 . S
C1280 C1279 1.383 . S
C1280 C1281 1.377 . S
C1281 H1265 0.930 1_545 S
C1281 C1280 1.377 . S
C1281 C1282 1.379 . S
C1282 H1266 0.931 1_545 S
C1282 C1276 1.383 . S
C1282 C1281 1.379 . S
H1283 C1277 0.959 . S
H1284 C1277 0.961 . S
H1285 C1277 0.960 . S
H1286 C1278 0.930 . S
H1287 C1279 0.929 . S
H1288 C1296 0.929 . S
H1289 C1298 0.930 . S
H1290 C1300 0.930 . S
H1291 C1303 0.929 . S
H1292 C1306 0.930 . S
H1293 C1308 0.960 . S
H1294 C1308 0.960 . S
H1295 C1308 0.960 . S
C1296 H1288 0.929 . S
C1296 C1297 1.377 . S
C1296 C1298 1.384 . S
C1297 C1296 1.377 . S
C1297 C1303 1.390 . S
C1298 H1289 0.930 . S
C1298 C1296 1.384 . S
C1298 C1299 1.372 . S
C1299 C1298 1.372 . S
C1299 C1300 1.400 . S
C1299 C1304 1.490 . S
C1300 H1290 0.930 . S
C1300 C1299 1.400 . S
C1300 C1303 1.386 . S
H1301 C1317 0.930 . S
H1302 C1318 0.931 . S
C1303 H1291 0.929 . S
C1303 C1297 1.390 . S
C1303 C1300 1.386 . S
C1304 C1299 1.490 . S
C1304 C1306 1.395 . S
C1304 C1307 1.403 . S
H1305 C1311 0.930 . S
C1306 H1292 0.930 . S
C1306 C1304 1.395 . S
C1306 C1309 1.403 . S
C1307 C1304 1.403 . S
C1307 C1308 1.524 . S
C1307 C1311 1.400 . S
C1308 H1293 0.960 . S
C1308 H1294 0.960 . S
C1308 H1295 0.960 . S
C1308 C1307 1.524 . S
C1309 C1306 1.403 . S
C1309 C1310 1.392 . S
C1309 C1313 1.495 . S
C1310 C1309 1.392 . S
C1310 C1311 1.385 . S
C1310 C1312 1.478 . S
C1311 H1305 0.930 . S
C1311 C1307 1.400 . S
C1311 C1310 1.385 . S
C1312 C1310 1.478 . S
C1312 C1314 1.381 . S
C1312 C1318 1.383 . S
C1313 C1309 1.495 . S
C1313 H1319 0.959 . S
C1313 H1320 0.961 . S
C1313 H1321 0.960 . S
C1314 C1312 1.381 . S
C1314 C1315 1.394 . S
C1314 H1322 0.930 . S
C1315 C1314 1.394 . S
C1315 C1316 1.383 . S
C1315 H1323 0.929 . S
C1316 C1315 1.383 . S
C1316 C1317 1.377 . S
C1317 H1301 0.930 . S
C1317 C1316 1.377 . S
C1317 C1318 1.379 . S
C1318 H1302 0.931 . S
C1318 C1312 1.383 . S
C1318 C1317 1.379 . S
H1319 C1313 0.959 . S
H1320 C1313 0.961 . S
H1321 C1313 0.960 . S
H1322 C1314 0.930 . S
H1323 C1315 0.929 . S
H1324 C1332 0.929 . S
H1325 C1334 0.930 . S
H1326 C1336 0.930 . S
H1327 C1339 0.929 . S
H1328 C1342 0.930 . S
H1329 C1344 0.960 . S
H1330 C1344 0.960 . S
H1331 C1344 0.960 . S
C1332 H1324 0.929 . S
C1332 C1333 1.377 . S
C1332 C1334 1.384 . S
C1333 C1332 1.377 . S
C1333 C1339 1.390 . S
C1334 H1325 0.930 . S
C1334 C1332 1.384 . S
C1334 C1335 1.372 . S
C1335 C1334 1.372 . S
C1335 C1336 1.400 . S
C1335 C1340 1.490 . S
C1336 H1326 0.930 . S
C1336 C1335 1.400 . S
C1336 C1339 1.386 . S
H1337 C1353 0.930 . S
H1338 C1354 0.931 . S
C1339 H1327 0.929 . S
C1339 C1333 1.390 . S
C1339 C1336 1.386 . S
C1340 C1335 1.490 . S
C1340 C1342 1.395 . S
C1340 C1343 1.403 . S
H1341 C1347 0.930 . S
C1342 H1328 0.930 . S
C1342 C1340 1.395 . S
C1342 C1345 1.403 . S
C1343 C1340 1.403 . S
C1343 C1344 1.524 . S
C1343 C1347 1.400 . S
C1344 H1329 0.960 . S
C1344 H1330 0.960 . S
C1344 H1331 0.960 . S
C1344 C1343 1.524 . S
C1345 C1342 1.403 . S
C1345 C1346 1.392 . S
C1345 C1349 1.495 . S
C1346 C1345 1.392 . S
C1346 C1347 1.385 . S
C1346 C1348 1.478 . S
C1347 H1341 0.930 . S
C1347 C1343 1.400 . S
C1347 C1346 1.385 . S
C1348 C1346 1.478 . S
C1348 C1350 1.381 . S
C1348 C1354 1.383 . S
C1349 C1345 1.495 . S
C1349 H1355 0.959 . S
C1349 H1356 0.961 . S
C1349 H1357 0.960 . S
C1350 C1348 1.381 . S
C1350 C1351 1.394 . S
C1350 H1358 0.930 . S
C1351 C1350 1.394 . S
C1351 C1352 1.383 . S
C1351 H1359 0.929 . S
C1352 C1351 1.383 . S
C1352 C1353 1.377 . S
C1353 H1337 0.930 . S
C1353 C1352 1.377 . S
C1353 C1354 1.379 . S
C1354 H1338 0.931 . S
C1354 C1348 1.383 . S
C1354 C1353 1.379 . S
H1355 C1349 0.959 . S
H1356 C1349 0.961 . S
H1357 C1349 0.960 . S
H1358 C1350 0.930 . S
H1359 C1351 0.929 . S
H1360 C1368 0.929 . S
H1361 C1370 0.930 . S
H1362 C1372 0.930 . S
H1363 C1375 0.929 . S
H1364 C1378 0.930 . S
H1365 C1380 0.960 . S
H1366 C1380 0.960 . S
H1367 C1380 0.960 . S
C1368 H1360 0.929 . S
C1368 C1369 1.377 . S
C1368 C1370 1.384 . S
C1369 C1368 1.377 . S
C1369 C1375 1.390 1_655 S
C1370 H1361 0.930 . S
C1370 C1368 1.384 . S
C1370 C1371 1.372 . S
C1371 C1370 1.372 . S
C1371 C1372 1.400 1_655 S
C1371 C1376 1.490 . S
C1372 H1362 0.930 . S
C1372 C1371 1.400 1_455 S
C1372 C1375 1.386 . S
H1373 C1389 0.931 . S
H1374 C1390 0.951 . S
C1375 H1363 0.929 . S
C1375 C1369 1.390 1_455 S
C1375 C1372 1.386 . S
C1376 C1371 1.490 . S
C1376 C1378 1.395 . S
C1376 C1379 1.403 1_655 S
H1377 C1383 0.930 . S
C1378 H1364 0.930 . S
C1378 C1376 1.395 . S
C1378 C1381 1.403 . S
C1379 C1376 1.403 1_455 S
C1379 C1380 1.524 . S
C1379 C1383 1.400 . S
C1380 H1365 0.960 . S
C1380 H1366 0.960 . S
C1380 H1367 0.960 . S
C1380 C1379 1.524 . S
C1381 C1378 1.403 . S
C1381 C1382 1.392 . S
C1381 C1385 1.495 . S
C1382 C1381 1.392 . S
C1382 C1383 1.385 1_655 S
C1382 C1384 1.478 . S
C1383 H1377 0.930 . S
C1383 C1379 1.400 . S
C1383 C1382 1.385 1_455 S
C1384 C1382 1.478 . S
C1384 C1386 1.381 . S
C1384 C1390 1.383 . S
C1385 C1381 1.495 . S
C1385 H1391 0.959 . S
C1385 H1392 0.961 . S
C1385 H1393 0.960 . S
C1386 C1384 1.381 . S
C1386 C1387 1.394 . S
C1386 H1394 0.930 . S
C1387 C1386 1.394 . S
C1387 C1388 1.383 . S
C1387 H1395 0.929 . S
C1388 C1387 1.383 . S
C1388 C1389 1.377 . S
C1389 H1373 0.931 . S
C1389 C1388 1.377 . S
C1389 C1390 1.379 . S
C1390 H1374 0.951 . S
C1390 C1384 1.383 . S
C1390 C1389 1.379 . S
H1391 C1385 0.959 . S
H1392 C1385 0.961 . S
H1393 C1385 0.960 . S
H1394 C1386 0.930 . S
H1395 C1387 0.929 . S
H1396 C1404 0.929 . S
H1397 C1406 0.930 . S
H1398 C1408 0.930 . S
H1399 C1411 0.929 . S
H1400 C1414 0.930 . S
H1401 C1416 0.960 . S
H1402 C1416 0.960 . S
H1403 C1416 0.960 . S
C1404 H1396 0.929 . S
C1404 C1405 1.377 1_545 S
C1404 C1406 1.384 . S
C1405 C1404 1.377 1_565 S
C1405 C1411 1.390 . S
C1406 H1397 0.930 . S
C1406 C1404 1.384 . S
C1406 C1407 1.372 1_545 S
C1407 C1406 1.372 1_565 S
C1407 C1408 1.400 . S
C1407 C1412 1.490 . S
C1408 H1398 0.930 . S
C1408 C1407 1.400 . S
C1408 C1411 1.386 . S
H1409 C1425 0.930 . S
H1410 C1426 0.931 . S
C1411 H1399 0.929 . S
C1411 C1405 1.390 . S
C1411 C1408 1.386 . S
C1412 C1407 1.490 . S
C1412 C1414 1.395 . S
C1412 C1415 1.403 . S
H1413 C1419 0.930 . S
C1414 H1400 0.930 . S
C1414 C1412 1.395 . S
C1414 C1417 1.403 . S
C1415 C1412 1.403 . S
C1415 C1416 1.524 . S
C1415 C1419 1.400 . S
C1416 H1401 0.960 . S
C1416 H1402 0.960 . S
C1416 H1403 0.960 . S
C1416 C1415 1.524 . S
C1417 C1414 1.403 . S
C1417 C1418 1.392 . S
C1417 C1421 1.495 . S
C1418 C1417 1.392 . S
C1418 C1419 1.385 . S
C1418 C1420 1.478 . S
C1419 H1413 0.930 . S
C1419 C1415 1.400 . S
C1419 C1418 1.385 . S
C1420 C1418 1.478 . S
C1420 C1422 1.381 1_565 S
C1420 C1426 1.383 . S
C1421 C1417 1.495 . S
C1421 H1427 0.963 . S
C1421 H1428 0.961 . S
C1421 H1429 0.960 1_565 S
C1422 C1420 1.381 1_545 S
C1422 C1423 1.394 . S
C1422 H1430 0.930 . S
C1423 C1422 1.394 . S
C1423 C1424 1.383 1_545 S
C1423 H1431 0.929 . S
C1424 C1423 1.383 1_565 S
C1424 C1425 1.377 . S
C1425 H1409 0.930 . S
C1425 C1424 1.377 . S
C1425 C1426 1.379 . S
C1426 H1410 0.931 . S
C1426 C1420 1.383 . S
C1426 C1425 1.379 . S
H1427 C1421 0.963 . S
H1428 C1421 0.961 . S
H1429 C1421 0.960 1_545 S
H1430 C1422 0.930 . S
H1431 C1423 0.929 . S
H1432 C1440 0.929 . S
H1433 C1442 0.930 . S
H1434 C1444 0.930 . S
H1435 C1447 0.929 . S
H1436 C1450 0.930 . S
H1437 C1452 0.960 . S
H1438 C1452 0.960 . S
H1439 C1452 0.960 . S
C1440 H1432 0.929 . S
C1440 C1441 1.377 . S
C1440 C1442 1.384 . S
C1441 C1440 1.377 . S
C1441 C1447 1.390 . S
C1442 H1433 0.930 . S
C1442 C1440 1.384 . S
C1442 C1443 1.372 . S
C1443 C1442 1.372 . S
C1443 C1444 1.400 . S
C1443 C1448 1.490 . S
C1444 H1434 0.930 . S
C1444 C1443 1.400 . S
C1444 C1447 1.386 . S
H1445 C1461 0.930 . S
H1446 C1462 0.931 . S
C1447 H1435 0.929 . S
C1447 C1441 1.390 . S
C1447 C1444 1.386 . S
C1448 C1443 1.490 . S
C1448 C1450 1.395 . S
C1448 C1451 1.403 . S
H1449 C1455 0.930 . S
C1450 H1436 0.930 . S
C1450 C1448 1.395 . S
C1450 C1453 1.403 . S
C1451 C1448 1.403 . S
C1451 C1452 1.524 . S
C1451 C1455 1.400 . S
C1452 H1437 0.960 . S
C1452 H1438 0.960 . S
C1452 H1439 0.960 . S
C1452 C1451 1.524 . S
C1453 C1450 1.403 . S
C1453 C1454 1.392 . S
C1453 C1457 1.495 . S
C1454 C1453 1.392 . S
C1454 C1455 1.385 . S
C1454 C1456 1.478 . S
C1455 H1449 0.930 . S
C1455 C1451 1.400 . S
C1455 C1454 1.385 . S
C1456 C1454 1.478 . S
C1456 C1458 1.381 . S
C1456 C1462 1.383 . S
C1457 C1453 1.495 . S
C1457 H1463 0.959 . S
C1457 H1464 0.961 . S
C1457 H1465 0.960 . S
C1458 C1456 1.381 . S
C1458 C1459 1.394 . S
C1458 H1466 0.930 . S
C1459 C1458 1.394 . S
C1459 C1460 1.383 . S
C1459 H1467 0.929 . S
C1460 C1459 1.383 . S
C1460 C1461 1.377 . S
C1461 H1445 0.930 . S
C1461 C1460 1.377 . S
C1461 C1462 1.379 . S
C1462 H1446 0.931 . S
C1462 C1456 1.383 . S
C1462 C1461 1.379 . S
H1463 C1457 0.959 . S
H1464 C1457 0.961 . S
H1465 C1457 0.960 . S
H1466 C1458 0.930 . S
H1467 C1459 0.929 . S
H1468 C1476 0.929 . S
H1469 C1478 0.930 . S
H1470 C1480 0.930 . S
H1471 C1483 0.929 . S
H1472 C1486 0.930 . S
H1473 C1488 0.960 . S
H1474 C1488 0.960 . S
H1475 C1488 0.960 . S
C1476 H1468 0.929 . S
C1476 C1477 1.377 . S
C1476 C1478 1.384 . S
C1477 C1476 1.377 . S
C1477 C1483 1.390 . S
C1478 H1469 0.930 . S
C1478 C1476 1.384 . S
C1478 C1479 1.372 . S
C1479 C1478 1.372 . S
C1479 C1480 1.400 . S
C1479 C1484 1.490 . S
C1480 H1470 0.930 . S
C1480 C1479 1.400 . S
C1480 C1483 1.386 . S
H1481 C1497 0.930 . S
H1482 C1498 0.931 . S
C1483 H1471 0.929 . S
C1483 C1477 1.390 . S
C1483 C1480 1.386 . S
C1484 C1479 1.490 . S
C1484 C1486 1.395 . S
C1484 C1487 1.403 . S
H1485 C1491 0.930 . S
C1486 H1472 0.930 . S
C1486 C1484 1.395 . S
C1486 C1489 1.403 . S
C1487 C1484 1.403 . S
C1487 C1488 1.524 . S
C1487 C1491 1.400 . S
C1488 H1473 0.960 . S
C1488 H1474 0.960 . S
C1488 H1475 0.960 . S
C1488 C1487 1.524 . S
C1489 C1486 1.403 . S
C1489 C1490 1.392 . S
C1489 C1493 1.495 . S
C1490 C1489 1.392 . S
C1490 C1491 1.385 . S
C1490 C1492 1.478 . S
C1491 H1485 0.930 . S
C1491 C1487 1.400 . S
C1491 C1490 1.385 . S
C1492 C1490 1.478 . S
C1492 C1494 1.381 . S
C1492 C1498 1.383 . S
C1493 C1489 1.495 . S
C1493 H1499 0.959 . S
C1493 H1500 0.961 . S
C1493 H1501 0.960 . S
C1494 C1492 1.381 . S
C1494 C1495 1.394 . S
C1494 H1502 0.930 . S
C1495 C1494 1.394 . S
C1495 C1496 1.383 . S
C1495 H1503 0.929 . S
C1496 C1495 1.383 . S
C1496 C1497 1.377 . S
C1497 H1481 0.930 . S
C1497 C1496 1.377 . S
C1497 C1498 1.379 . S
C1498 H1482 0.931 . S
C1498 C1492 1.383 . S
C1498 C1497 1.379 . S
H1499 C1493 0.959 . S
H1500 C1493 0.961 . S
H1501 C1493 0.960 . S
H1502 C1494 0.930 . S
H1503 C1495 0.929 . S
C649 C391 1.990 . S
C668 C490 2.010 . S
C704 C530 2.006 . S
C685 C451 1.969 . S
C740 C570 2.021 . S
C721 C241 1.766 . S
C776 C610 2.010 1_455 S
C757 C331 1.753 . S
C812 C499 2.036 . S
C793 C121 1.791 . S
C829 C211 1.979 . S
C848 C539 2.016 . S
C865 C31 1.971 . S
C884 C579 2.018 . S
C901 C91 1.751 1_455 S
C920 C619 1.998 . S
C956 C496 0.235 . S
C937 C301 0.488 1_455 S
C992 C536 0.346 . S
C973 C380 0.163 . S
C1028 C576 0.214 . S
C1009 C440 0.107 . S
C1045 C260 0.517 . S
C1064 C616 0.282 . S
C1081 C61 0.454 . S
C1100 C487 0.188 . S
C1136 C527 0.345 . S
C1117 C140 0.419 . S
C1172 C567 0.245 . S
C1153 C200 0.280 . S
C1189 C20 0.337 . S
C1208 C607 0.232 . S
C1225 C320 2.664 1_455 S
C1244 C491 2.826 . S
C1261 C361 2.311 . S
C1280 C531 2.825 . S
C1316 C571 2.806 . S
C1297 C421 2.284 . S
C1352 C611 2.829 . S
C1333 C271 2.657 . S
C1369 C80 2.648 . S
C1388 C482 2.832 . S
C1424 C522 2.821 . S
C1405 C151 2.658 . S
C1460 C562 2.812 . S
C1441 C181 2.308 . S
C1477 C1 2.308 . S
C1496 C602 2.850 . S
