# Generated by pormake.
# Topology pyr, (3,6)-cn, num edge types: 1
# Building blocks:
#     Node 0, Type 0, BuildingBlock: QEWDON_clean_linker_0, # of connection points: 3
#     Node 1, Type 0, BuildingBlock: QEWDON_clean_linker_0, # of connection points: 3
#     Node 2, Type 0, BuildingBlock: QEWDON_clean_linker_0, # of connection points: 3
#     Node 3, Type 0, BuildingBlock: QEWDON_clean_linker_0, # of connection points: 3
#     Node 4, Type 0, BuildingBlock: QEWDON_clean_linker_0, # of connection points: 3
#     Node 5, Type 0, BuildingBlock: QEWDON_clean_linker_0, # of connection points: 3
#     Node 6, Type 0, BuildingBlock: QEWDON_clean_linker_0, # of connection points: 3
#     Node 7, Type 0, BuildingBlock: QEWDON_clean_linker_0, # of connection points: 3
#     Node 8, Type 1, BuildingBlock: BETDEL_clean_sbu_0, # of connection points: 6
#     Node 9, Type 1, BuildingBlock: BETDEL_clean_sbu_0, # of connection points: 6
#     Node 10, Type 1, BuildingBlock: BETDEL_clean_sbu_0, # of connection points: 6
#     Node 11, Type 1, BuildingBlock: BETDEL_clean_sbu_0, # of connection points: 6
#     Edge 12, Type (0, 1), BuildingBlock: EZIPEK_clean_linker_0, # of connection points: 2
#     Edge 13, Type (0, 1), BuildingBlock: EZIPEK_clean_linker_0, # of connection points: 2
#     Edge 14, Type (0, 1), BuildingBlock: EZIPEK_clean_linker_0, # of connection points: 2
#     Edge 15, Type (0, 1), BuildingBlock: EZIPEK_clean_linker_0, # of connection points: 2
#     Edge 16, Type (0, 1), BuildingBlock: EZIPEK_clean_linker_0, # of connection points: 2
#     Edge 17, Type (0, 1), BuildingBlock: EZIPEK_clean_linker_0, # of connection points: 2
#     Edge 18, Type (0, 1), BuildingBlock: EZIPEK_clean_linker_0, # of connection points: 2
#     Edge 19, Type (0, 1), BuildingBlock: EZIPEK_clean_linker_0, # of connection points: 2
#     Edge 20, Type (0, 1), BuildingBlock: EZIPEK_clean_linker_0, # of connection points: 2
#     Edge 21, Type (0, 1), BuildingBlock: EZIPEK_clean_linker_0, # of connection points: 2
#     Edge 22, Type (0, 1), BuildingBlock: EZIPEK_clean_linker_0, # of connection points: 2
#     Edge 23, Type (0, 1), BuildingBlock: EZIPEK_clean_linker_0, # of connection points: 2
#     Edge 24, Type (0, 1), BuildingBlock: EZIPEK_clean_linker_0, # of connection points: 2
#     Edge 25, Type (0, 1), BuildingBlock: EZIPEK_clean_linker_0, # of connection points: 2
#     Edge 26, Type (0, 1), BuildingBlock: EZIPEK_clean_linker_0, # of connection points: 2
#     Edge 27, Type (0, 1), BuildingBlock: EZIPEK_clean_linker_0, # of connection points: 2
#     Edge 28, Type (0, 1), BuildingBlock: EZIPEK_clean_linker_0, # of connection points: 2
#     Edge 29, Type (0, 1), BuildingBlock: EZIPEK_clean_linker_0, # of connection points: 2
#     Edge 30, Type (0, 1), BuildingBlock: EZIPEK_clean_linker_0, # of connection points: 2
#     Edge 31, Type (0, 1), BuildingBlock: EZIPEK_clean_linker_0, # of connection points: 2
#     Edge 32, Type (0, 1), BuildingBlock: EZIPEK_clean_linker_0, # of connection points: 2
#     Edge 33, Type (0, 1), BuildingBlock: EZIPEK_clean_linker_0, # of connection points: 2
#     Edge 34, Type (0, 1), BuildingBlock: EZIPEK_clean_linker_0, # of connection points: 2
#     Edge 35, Type (0, 1), BuildingBlock: EZIPEK_clean_linker_0, # of connection points: 2
# Relax obj value: 0.128
# Max RMSD: 0.260
# Mean RMSD: 0.187
data_MOF--net-pyr--node1-BETDEL_clean_sbu_0--node2-QEWDON_clean_linker_0--edge1-EZIPEK_clean_linker_0
_symmetry_space_group_name_H-M    P1
_symmetry_Int_Tables_number       1
_symmetry_cell_setting            triclinic
loop_
_symmetry_equiv_pos_as_xyz
'x, y, z'
_cell_length_a     26.761363
_cell_length_b     28.511665
_cell_length_c     28.123413
_cell_angle_alpha  91.621358
_cell_angle_beta   90.322705
_cell_angle_gamma 105.87927
loop_
_atom_site_label
_atom_site_type_symbol
_atom_site_fract_x
_atom_site_fract_y
_atom_site_fract_z
_atom_type_partial_charge
H0 H 0.31403 0.24328 0.14063 0.0
C1 C 0.28649 0.22971 0.16853 0.0
C2 C 0.2865 0.18609 0.1903 0.0
C3 C 0.25251 0.25665 0.18368 0.0
H4 H 0.25293 0.13613 0.24511 0.0
C5 C 0.25194 0.16909 0.22725 0.0
C6 C 0.21701 0.1952 0.24196 0.0
C7 C 0.21679 0.23849 0.21958 0.0
C8 C 0.25762 0.30579 0.16534 0.0
H9 H 0.19091 0.25936 0.23219 0.0
C10 C 0.21339 0.32018 0.15228 0.0
C11 C 0.2183 0.36812 0.1385 0.0
C12 C 0.30691 0.33954 0.1633 0.0
H13 H 0.34154 0.3295 0.17375 0.0
C14 C 0.31184 0.38708 0.14919 0.0
H15 H 0.17521 0.29439 0.15322 0.0
C16 C 0.26777 0.40148 0.13709 0.0
H17 H 0.27215 0.43863 0.1265 0.0
H18 H 0.34986 0.41297 0.14809 0.0
H19 H 0.27885 0.90407 0.78847 0.0
C20 C 0.30108 0.88065 0.77373 0.0
C21 C 0.34602 0.87695 0.79767 0.0
C22 C 0.28362 0.85263 0.73199 0.0
H23 H 0.40862 0.84259 0.79771 0.0
C24 C 0.37408 0.84563 0.77914 0.0
C25 C 0.35765 0.81807 0.73686 0.0
C26 C 0.31221 0.82169 0.7136 0.0
C27 C 0.23255 0.85126 0.71057 0.0
H28 H 0.29856 0.79965 0.68161 0.0
C29 C 0.22413 0.89155 0.68705 0.0
C30 C 0.17528 0.88824 0.66591 0.0
C31 C 0.19169 0.80841 0.71348 0.0
H32 H 0.19742 0.77713 0.73148 0.0
C33 C 0.1431 0.8056 0.69347 0.0
H34 H 0.25563 0.92454 0.68395 0.0
C35 C 0.13493 0.84516 0.66965 0.0
H36 H 0.09727 0.84198 0.65343 0.0
H37 H 0.11182 0.77242 0.69597 0.0
H38 H 0.67342 0.45293 0.93721 0.0
C39 C 0.66265 0.41516 0.94738 0.0
C40 C 0.69708 0.39873 0.97623 0.0
C41 C 0.61488 0.38333 0.93204 0.0
H42 H 0.70875 0.33823 0.01501 0.0
C43 C 0.68275 0.35059 0.99183 0.0
C44 C 0.63507 0.31834 0.97752 0.0
C45 C 0.60205 0.33459 0.9468 0.0
C46 C 0.578 0.40092 0.90154 0.0
H47 H 0.56606 0.30891 0.93483 0.0
C48 C 0.59599 0.43694 0.86729 0.0
C49 C 0.56064 0.45209 0.83807 0.0
C50 C 0.52395 0.38167 0.9067 0.0
H51 H 0.50833 0.35532 0.93352 0.0
C52 C 0.48903 0.39665 0.8778 0.0
H53 H 0.63725 0.45256 0.86235 0.0
C54 C 0.50714 0.43139 0.84355 0.0
H55 H 0.47935 0.44252 0.82148 0.0
H56 H 0.44764 0.38137 0.88213 0.0
H57 H 0.88063 0.78514 0.35999 0.0
C58 C 0.85764 0.76471 0.38805 0.0
C59 C 0.86066 0.78526 0.43421 0.0
C60 C 0.82225 0.71951 0.37736 0.0
H61 H 0.83053 0.77814 0.50394 0.0
C62 C 0.82943 0.75917 0.47019 0.0
C63 C 0.79516 0.71219 0.46138 0.0
C64 C 0.7906 0.6945 0.41343 0.0
C65 C 0.81452 0.69988 0.32765 0.0
H66 H 0.76102 0.66176 0.4027 0.0
C67 C 0.8551 0.68832 0.30229 0.0
C68 C 0.84583 0.66709 0.25604 0.0
C69 C 0.76526 0.69103 0.30596 0.0
H70 H 0.73356 0.69972 0.32479 0.0
C71 C 0.75646 0.67102 0.25981 0.0
H72 H 0.89315 0.69453 0.31879 0.0
C73 C 0.79643 0.65898 0.23498 0.0
H74 H 0.78875 0.64289 0.1994 0.0
H75 H 0.7184 0.66445 0.24338 0.0
H76 H 0.81719 0.82714 0.93908 0.0
C77 C 0.84121 0.84985 0.91297 0.0
C78 C 0.89148 0.84585 0.90428 0.0
C79 C 0.82087 0.88081 0.88573 0.0
H80 H 0.96003 0.86973 0.86138 0.0
C81 C 0.92186 0.87396 0.86927 0.0
C82 C 0.90147 0.90525 0.84246 0.0
C83 C 0.8512 0.90869 0.85089 0.0
C84 C 0.76672 0.88192 0.89072 0.0
H85 H 0.83503 0.93192 0.82912 0.0
C86 C 0.7511 0.90268 0.93177 0.0
C87 C 0.70099 0.90887 0.93388 0.0
C88 C 0.73153 0.86559 0.85263 0.0
H89 H 0.74333 0.84964 0.82064 0.0
C90 C 0.68108 0.87021 0.85545 0.0
H91 H 0.77834 0.91578 0.96106 0.0
C92 C 0.66588 0.89205 0.89579 0.0
H93 H 0.62687 0.89624 0.89721 0.0
H94 H 0.65401 0.85753 0.82606 0.0
H95 H 0.80253 0.20719 0.50466 0.0
C96 C 0.78849 0.20247 0.46812 0.0
C97 C 0.81211 0.1778 0.43498 0.0
C98 C 0.7455 0.21905 0.45498 0.0
H99 H 0.80914 0.14941 0.36264 0.0
C100 C 0.79268 0.17021 0.38794 0.0
C101 C 0.74958 0.18638 0.3745 0.0
C102 C 0.72697 0.21159 0.40782 0.0
C103 C 0.71561 0.23796 0.49167 0.0
H104 H 0.69237 0.222 0.39785 0.0
C105 C 0.69798 0.27959 0.48414 0.0
C106 C 0.66775 0.29534 0.51874 0.0
C107 C 0.70232 0.21246 0.53391 0.0
H108 H 0.71445 0.17989 0.54026 0.0
C109 C 0.67207 0.2279 0.56792 0.0
H110 H 0.70825 0.29998 0.45203 0.0
C111 C 0.65489 0.26906 0.56046 0.0
H112 H 0.63192 0.28083 0.58754 0.0
H113 H 0.66191 0.20786 0.6002 0.0
H114 H 0.43878 0.75802 0.23261 0.0
C115 C 0.40133 0.74597 0.21462 0.0
C116 C 0.38401 0.77859 0.18604 0.0
C117 C 0.3718 0.69694 0.21709 0.0
H118 H 0.32267 0.78657 0.13927 0.0
C119 C 0.33616 0.76207 0.16169 0.0
C120 C 0.30526 0.71432 0.16649 0.0
C121 C 0.32327 0.68184 0.19374 0.0
C122 C 0.39328 0.65947 0.23855 0.0
H123 H 0.29999 0.64428 0.19566 0.0
C124 C 0.4075 0.66142 0.28711 0.0
C125 C 0.42414 0.62294 0.30643 0.0
C126 C 0.3972 0.61955 0.20971 0.0
H127 H 0.38668 0.61735 0.17228 0.0
C128 C 0.41446 0.58205 0.22872 0.0
H129 H 0.40435 0.69176 0.30987 0.0
C130 C 0.42761 0.58354 0.27683 0.0
H131 H 0.44049 0.55385 0.29114 0.0
H132 H 0.41724 0.55151 0.20614 0.0
H133 H 0.25477 0.4548 0.76686 0.0
C134 C 0.2359 0.42267 0.74525 0.0
C135 C 0.25614 0.41517 0.70036 0.0
C136 C 0.19446 0.38655 0.76392 0.0
H137 H 0.24726 0.36694 0.63832 0.0
C138 C 0.232 0.37296 0.67291 0.0
C139 C 0.1898 0.33731 0.69075 0.0
C140 C 0.17169 0.3441 0.73643 0.0
C141 C 0.17818 0.38998 0.81387 0.0
H142 H 0.14008 0.31588 0.75082 0.0
C143 C 0.15704 0.42761 0.83001 0.0
C144 C 0.13858 0.42781 0.87687 0.0
C145 C 0.1818 0.35354 0.84529 0.0
H146 H 0.19805 0.32434 0.83363 0.0
C147 C 0.16427 0.35424 0.89185 0.0
H148 H 0.15345 0.45559 0.80597 0.0
C149 C 0.14235 0.39091 0.90749 0.0
H150 H 0.12761 0.39021 0.94331 0.0
H151 H 0.16703 0.32589 0.91571 0.0
Dy152 Dy 0.06902 0.08347 0.49451 0.0
C153 C 0.98336 0.01091 0.67671 0.0
C154 C 0.10407 0.12302 0.41032 0.0
Dy155 Dy 1.00674 0.05004 0.59039 0.0
O156 O 0.13227 0.12564 0.44854 0.0
O157 O 0.05592 0.09947 0.41816 0.0
O158 O 0.13214 0.04457 0.50741 0.0
O159 O 0.07466 0.04277 0.55532 0.0
C160 C 0.1137 0.02758 0.54801 0.0
C161 C 0.95778 0.09002 0.52481 0.0
O162 O 0.06115 0.12081 0.61565 0.0
O163 O 0.09523 0.15099 0.54228 0.0
O164 O 0.96067 0.041 0.65775 0.0
O165 O 0.01887 1.00293 0.649 0.0
O166 O 0.93392 0.05875 0.55578 0.0
O167 O 1.00607 0.10149 0.5337 0.0
O168 O 1.00807 0.01417 0.47135 0.0
O169 O 0.98399 0.98137 0.54579 0.0
C170 C 0.0901 0.15554 0.58919 0.0
C171 C 0.98349 0.97773 0.49871 0.0
Dy172 Dy 0.55489 0.07099 0.13826 0.0
C173 C 0.42354 0.98353 0.9741 0.0
C174 C 0.62362 0.12412 0.2048 0.0
Dy175 Dy 0.48697 0.03181 0.04684 0.0
O176 O 0.57494 0.10263 0.21191 0.0
O177 O 0.63483 0.11781 0.16047 0.0
O178 O 0.53237 1.0048 0.18334 0.0
O179 O 0.49992 1.00308 0.11539 0.0
C180 C 0.50079 0.97828 0.15186 0.0
C181 C 0.56013 0.11779 0.03796 0.0
O182 O 0.43086 0.06174 0.08793 0.0
O183 O 0.48557 0.09938 0.15123 0.0
O184 O 0.44037 0.03066 0.97967 0.0
O185 O 0.43912 0.96279 0.00971 0.0
O186 O 0.546 0.08461 1.00433 0.0
O187 O 0.5332 0.10383 0.07437 0.0
O188 O 0.60828 0.03836 0.09495 0.0
O189 O 0.54981 0.99626 0.03659 0.0
C190 C 0.44054 0.08944 0.12749 0.0
C191 C 0.5956 0.00703 0.05816 0.0
Dy192 Dy 0.54027 0.53154 0.56778 0.0
C193 C 0.4693 0.6865 0.65462 0.0
C194 C 0.58364 0.4615 0.53133 0.0
Dy195 Dy 0.51426 0.62319 0.60685 0.0
O196 O 0.53431 0.45544 0.53823 0.0
O197 O 0.60852 0.50635 0.54204 0.0
O198 O 0.48444 0.48609 0.61782 0.0
O199 O 0.468 0.54824 0.59022 0.0
C200 C 0.45335 0.51386 0.6191 0.0
C201 C 0.60584 0.64062 0.56071 0.0
O202 O 0.5465 0.59854 0.67301 0.0
O203 O 0.58026 0.53941 0.63882 0.0
O204 O 0.49897 0.69688 0.61783 0.0
O205 O 0.46532 0.6418 0.66601 0.0
O206 O 0.57871 0.67193 0.56479 0.0
O207 O 0.58621 0.60522 0.58683 0.0
O208 O 0.51066 0.55945 0.50149 0.0
O209 O 0.47164 0.61471 0.53718 0.0
C210 C 0.57383 0.56627 0.67633 0.0
C211 C 0.4822 0.59095 0.49911 0.0
Dy212 Dy 0.0142 0.53162 0.07139 0.0
C213 C 0.96378 0.69611 0.99287 0.0
C214 C 0.05806 0.45907 0.09249 0.0
Dy215 Dy 0.99737 0.62042 0.02437 0.0
O216 O 0.05383 0.49355 0.122 0.0
O217 O 0.03531 0.46242 0.05236 0.0
O218 O 0.95974 0.53755 0.12963 0.0
O219 O 1.00409 0.60154 0.09888 0.0
C220 C 0.96857 0.58479 0.1284 0.0
C221 C 0.04171 0.56537 0.9675 0.0
O222 O 0.06986 0.65528 0.06668 0.0
O223 O 0.09398 0.58375 0.0712 0.0
O224 O 0.01109 0.69301 0.98995 0.0
O225 O 0.93482 0.65829 0.01343 0.0
O226 O 0.04713 0.61137 0.96196 0.0
O227 O 1.00759 0.55117 0.99843 0.0
O228 O 0.9344 0.49665 0.04274 0.0
O229 O 0.91651 0.56911 0.02247 0.0
C230 C 0.10499 0.63175 0.07589 0.0
C231 C 0.90214 0.5212 0.02779 0.0
C232 C 0.14295 0.13473 0.28002 0.0
C233 C 0.18332 0.17893 0.2834 0.0
C234 C 0.1595 0.19159 0.36561 0.0
C235 C 0.12547 0.14377 0.36473 0.0
N236 N 0.08919 0.06683 0.32221 0.0
N237 N 0.23556 0.24611 0.33189 0.0
C238 C 0.11772 0.11459 0.32209 0.0
C239 C 0.19295 0.20673 0.32679 0.0
N240 N 0.12841 0.1123 0.23656 0.0
N241 N 0.15905 0.22297 0.40317 0.0
H242 H 0.2621 0.25787 0.30482 0.0
H243 H 0.24728 0.26432 0.36442 0.0
H244 H 0.1336 0.21362 0.43152 0.0
H245 H 0.17964 0.25973 0.4036 0.0
H246 H 0.09583 0.08264 0.23135 0.0
H247 H 0.14605 0.1262 0.20502 0.0
H248 H 0.08746 0.04259 0.29344 0.0
H249 H 0.07073 0.05004 0.35222 0.0
C250 C 0.33815 0.89087 0.88608 0.0
C251 C 0.36384 0.90568 0.84269 0.0
C252 C 0.43001 0.96943 0.88592 0.0
C253 C 0.40189 0.95758 0.92874 0.0
N254 N 0.32533 0.91184 0.96859 0.0
N255 N 0.4282 0.96465 0.79973 0.0
C256 C 0.35482 0.91958 0.92855 0.0
C257 C 0.40789 0.94676 0.84216 0.0
N258 N 0.29898 0.84848 0.88699 0.0
N259 N 0.47937 0.99993 0.88723 0.0
H260 H 0.4133 0.94881 0.76691 0.0
H261 H 0.45668 0.99767 0.79697 0.0
H262 H 0.49843 0.01572 0.91854 0.0
H263 H 0.50363 1.00555 0.85788 0.0
H264 H 0.28257 0.83285 0.91826 0.0
H265 H 0.28547 0.82675 0.85662 0.0
H266 H 0.28804 0.88819 0.96941 0.0
H267 H 0.33637 0.93222 1.0002 0.0
C268 C 0.56511 0.5353 0.80717 0.0
C269 C 0.5785 0.49042 0.802 0.0
C270 C 0.61789 0.51688 0.72568 0.0
C271 C 0.59059 0.55288 0.72427 0.0
N272 N 0.55601 0.60893 0.77052 0.0
N273 N 0.61829 0.43832 0.75497 0.0
C274 C 0.56992 0.56636 0.7674 0.0
C275 C 0.60613 0.48155 0.76135 0.0
N276 N 0.54899 0.54831 0.8504 0.0
N277 N 0.65617 0.51757 0.69371 0.0
H278 H 0.60922 0.41057 0.77942 0.0
H279 H 0.6336 0.42857 0.72337 0.0
H280 H 0.66771 0.54551 0.66952 0.0
H281 H 0.68035 0.49453 0.69553 0.0
H282 H 0.54091 0.58135 0.858 0.0
H283 H 0.54709 0.52698 0.88024 0.0
H284 H 0.53373 0.6179 0.79766 0.0
H285 H 0.56937 0.63671 0.74657 0.0
C286 C 0.89961 0.60854 0.23965 0.0
C287 C 0.88701 0.65223 0.22899 0.0
C288 C 0.93946 0.65964 0.15668 0.0
C289 C 0.94966 0.61417 0.16608 0.0
N290 N 0.9604 0.56046 0.22776 0.0
N291 N 0.90623 0.72641 0.18576 0.0
C292 C 0.9361 0.59316 0.21106 0.0
C293 C 0.91064 0.68005 0.19009 0.0
N294 N 0.8754 0.58061 0.27594 0.0
N295 N 0.95595 0.683 0.11567 0.0
H296 H 0.88549 0.74215 0.20979 0.0
H297 H 0.92668 0.75084 0.16124 0.0
H298 H 0.98282 0.67384 0.0935 0.0
H299 H 0.94261 0.71151 0.10324 0.0
H300 H 0.87876 0.54562 0.28156 0.0
H301 H 0.84894 0.59082 0.29826 0.0
H302 H 0.95497 0.54685 0.26191 0.0
H303 H 0.99136 0.55241 0.21008 0.0
C304 C 0.30909 0.1132 0.15339 0.0
C305 C 0.32527 0.15997 0.17607 0.0
C306 C 0.41593 0.16286 0.16146 0.0
C307 C 0.40047 0.1134 0.1443 0.0
N308 N 0.33092 0.03846 0.13355 0.0
N309 N 0.3944 0.22404 0.21228 0.0
C310 C 0.34662 0.08762 0.14291 0.0
C311 C 0.3788 0.1831 0.1835 0.0
N312 N 0.25816 0.09375 0.14035 0.0
N313 N 0.46501 0.19189 0.15419 0.0
H314 H 0.36834 0.23954 0.22994 0.0
H315 H 0.43307 0.23944 0.22248 0.0
H316 H 0.49304 0.18056 0.13514 0.0
H317 H 0.47591 0.2293 0.16199 0.0
H318 H 0.24533 0.06222 0.11897 0.0
H319 H 0.22948 0.11146 0.14705 0.0
H320 H 0.29268 0.01755 0.13745 0.0
H321 H 0.35635 0.01746 0.12656 0.0
C322 C 0.16895 0.92351 0.5863 0.0
C323 C 0.16631 0.92789 0.63645 0.0
C324 C 0.13891 1.00274 0.62841 0.0
C325 C 0.13369 0.99414 0.57832 0.0
N326 N 0.13796 0.94161 0.5101 0.0
N327 N 0.1436 0.96867 0.70585 0.0
C328 C 0.14767 0.95353 0.55729 0.0
C329 C 0.14988 0.96672 0.65772 0.0
N330 N 0.19219 0.89071 0.56631 0.0
N331 N 0.13624 0.04641 0.64783 0.0
H332 H 0.153 0.94393 0.72854 0.0
H333 H 0.12572 0.99267 0.72272 0.0
H334 H 0.13154 0.07472 0.62723 0.0
H335 H 0.14433 0.05647 0.68353 0.0
H336 H 0.20054 0.88952 0.53023 0.0
H337 H 0.20767 0.86771 0.58643 0.0
H338 H 0.14118 0.90905 0.49441 0.0
H339 H 0.12219 0.96183 0.48717 0.0
C340 C 0.78608 0.44918 0.95395 0.0
C341 C 0.74879 0.43214 0.98969 0.0
C342 C 0.81203 0.47438 0.05104 0.0
C343 C 0.84805 0.49366 0.01494 0.0
N344 N 0.86406 0.51008 0.93181 0.0
N345 N 0.72212 0.43698 0.07104 0.0
C346 C 0.83337 0.48453 0.9663 0.0
C347 C 0.76059 0.4471 0.038 0.0
N348 N 0.77751 0.42993 0.90858 0.0
N349 N 0.82689 0.48223 0.09779 0.0
H350 H 0.68377 0.41804 0.06259 0.0
H351 H 0.72696 0.4511 0.10583 0.0
H352 H 0.86278 0.50506 0.10874 0.0
H353 H 0.80474 0.46423 0.12553 0.0
H354 H 0.80578 0.43721 0.88243 0.0
H355 H 0.74403 0.40294 0.89819 0.0
H356 H 0.85259 0.50829 0.89619 0.0
H357 H 0.89867 0.53681 0.93931 0.0
C358 C 0.75015 0.70587 0.54353 0.0
C359 C 0.75839 0.6846 0.49905 0.0
C360 C 0.67446 0.62438 0.50555 0.0
C361 C 0.66036 0.65295 0.54276 0.0
N362 N 0.68833 0.71861 0.60169 0.0
N363 N 0.74595 0.6034 0.46665 0.0
C364 C 0.69933 0.69302 0.56327 0.0
C365 C 0.72594 0.63734 0.48863 0.0
N366 N 0.79193 0.73011 0.57088 0.0
N367 N 0.63836 0.58683 0.48375 0.0
H368 H 0.78536 0.61125 0.45842 0.0
H369 H 0.72511 0.56683 0.46203 0.0
H370 H 0.60018 0.57638 0.49458 0.0
H371 H 0.64593 0.56869 0.45305 0.0
H372 H 0.78894 0.74305 0.60547 0.0
H373 H 0.82959 0.72995 0.56148 0.0
H374 H 0.71342 0.75149 0.61416 0.0
H375 H 0.65343 0.70791 0.61995 0.0
C376 C 0.13459 0.38797 0.15898 0.0
C377 C 0.17195 0.38386 0.12464 0.0
C378 C 0.13278 0.42657 0.06733 0.0
C379 C 0.09338 0.42816 0.10067 0.0
N380 N 0.0494 0.39937 0.17318 0.0
N381 N 0.19736 0.3862 0.04247 0.0
C382 C 0.09189 0.4052 0.1449 0.0
C383 C 0.16777 0.39869 0.07751 0.0
N384 N 0.14122 0.37807 0.2055 0.0
N385 N 0.13997 0.4546 0.02793 0.0
H386 H 0.22283 0.36502 0.04863 0.0
H387 H 0.19274 0.39259 1.00665 0.0
H388 H 0.11774 0.47807 0.01964 0.0
H389 H 0.17191 0.45858 1.00585 0.0
H390 H 0.11816 0.38564 0.23279 0.0
H391 H 0.17244 0.36622 0.21763 0.0
H392 H 0.0441 0.3789 0.20378 0.0
H393 H 0.01698 0.4107 0.16336 0.0
C394 C 0.57257 0.25334 0.02303 0.0
C395 C 0.61842 0.26771 0.99583 0.0
C396 C 0.63029 0.18567 1.00353 0.0
C397 C 0.58112 0.17 0.02557 0.0
N398 N 0.49857 0.18666 0.04097 0.0
N399 N 0.68642 0.24468 0.95296 0.0
C400 C 0.55032 0.20317 0.03141 0.0
C401 C 0.64634 0.23316 0.98427 0.0
N402 N 0.55041 0.28759 0.04151 0.0
N403 N 0.66177 0.15524 1.00109 0.0
H404 H 0.69843 0.27845 0.93706 0.0
H405 H 0.70465 0.21936 0.93938 0.0
H406 H 0.6506 0.1199 0.01365 0.0
H407 H 0.70023 0.16628 0.99014 0.0
H408 H 0.51965 0.27906 0.06523 0.0
H409 H 0.56623 0.32494 0.03727 0.0
H410 H 0.4738 0.20923 0.04112 0.0
H411 H 0.47902 0.14983 0.04307 0.0
C412 C 0.94732 0.85034 0.44005 0.0
C413 C 0.89242 0.8365 0.44456 0.0
C414 C 0.89715 0.91501 0.48422 0.0
C415 C 0.95165 0.93085 0.47636 0.0
N416 N 0.02608 0.91675 0.43623 0.0
N417 N 0.81474 0.86253 0.45618 0.0
C418 C 0.97588 0.89968 0.4505 0.0
C419 C 0.86726 0.87107 0.46194 0.0
N420 N 0.9726 0.81607 0.42839 0.0
N421 N 0.87354 0.94083 0.51389 0.0
H422 H 0.79169 0.83151 0.43827 0.0
H423 H 0.79524 0.88872 0.46429 0.0
H424 H 0.89297 0.97362 0.53077 0.0
H425 H 0.83518 0.9275 0.52467 0.0
H426 H 0.01291 0.82316 0.42962 0.0
H427 H 0.95336 0.77939 0.4218 0.0
H428 H 0.04399 0.89685 0.41368 0.0
H429 H 0.04814 0.9525 0.44297 0.0
C430 C 0.43864 0.8028 0.70105 0.0
C431 C 0.38713 0.78417 0.71755 0.0
C432 C 0.38803 0.70196 0.68968 0.0
C433 C 0.44137 0.71972 0.67776 0.0
N434 N 0.52039 0.78571 0.68301 0.0
N435 N 0.31757 0.71409 0.7378 0.0
C436 C 0.46755 0.76981 0.68652 0.0
C437 C 0.3633 0.73313 0.71501 0.0
N438 N 0.45947 0.85199 0.69757 0.0
N439 N 0.35979 0.6564 0.67449 0.0
H440 H 0.29873 0.73551 0.75754 0.0
H441 H 0.30126 0.67672 0.74115 0.0
H442 H 0.37498 0.63313 0.65341 0.0
H443 H 0.31966 0.6438 0.67823 0.0
H444 H 0.49471 0.86729 0.6811 0.0
H445 H 0.43936 0.87738 0.70698 0.0
H446 H 0.54188 0.8208 0.69352 0.0
H447 H 0.54335 0.76248 0.67465 0.0
C448 C 0.92135 0.90618 0.756 0.0
C449 C 0.92942 0.9304 0.80127 0.0
C450 C 0.97325 0.00768 0.765 0.0
C451 C 0.96582 0.9833 0.71979 0.0
N452 N 0.93919 0.90879 0.67167 0.0
N453 N 0.96953 1.00082 0.85099 0.0
C454 C 0.94221 0.93227 0.71518 0.0
C455 C 0.9575 0.98023 0.8064 0.0
N456 N 0.89134 0.85887 0.75186 0.0
N457 N 0.99469 0.05709 0.76813 0.0
H458 H 0.95828 0.9814 0.88184 0.0
H459 H 0.99378 0.03573 0.85774 0.0
H460 H 1.00883 0.07791 0.73872 0.0
H461 H 0.99622 0.07806 0.79925 0.0
H462 H 0.87801 0.84099 0.71957 0.0
H463 H 0.87696 0.83785 0.78107 0.0
H464 H 0.92902 0.87101 0.66697 0.0
H465 H 0.9493 0.92683 0.63996 0.0
C466 C 0.68845 0.12188 0.32374 0.0
C467 C 0.72214 0.16981 0.32829 0.0
C468 C 0.69395 0.18826 0.24923 0.0
C469 C 0.66212 0.13958 0.24429 0.0
N470 N 0.64194 0.0566 0.27017 0.0
N471 N 0.76381 0.24642 0.29308 0.0
C472 C 0.6634 0.10533 0.27952 0.0
C473 C 0.72714 0.20236 0.29016 0.0
N474 N 0.67815 0.09282 0.36234 0.0
N475 N 0.69083 0.22133 0.21591 0.0
H476 H 0.78807 0.25774 0.32282 0.0
H477 H 0.77288 0.27006 0.26492 0.0
H478 H 0.66768 0.21177 0.18528 0.0
H479 H 0.70865 0.25859 0.21984 0.0
H480 H 0.64952 0.05963 0.36215 0.0
H481 H 0.69433 0.10393 0.39595 0.0
H482 H 0.64619 0.02965 0.29287 0.0
H483 H 0.62507 0.04278 0.23735 0.0
C484 C 0.49123 0.63511 0.37158 0.0
C485 C 0.43804 0.6225 0.35779 0.0
C486 C 0.41282 0.59479 0.43856 0.0
C487 C 0.46622 0.60393 0.45131 0.0
N488 N 0.55539 0.64574 0.43502 0.0
N489 N 0.34785 0.58827 0.37603 0.0
C490 C 0.50524 0.62759 0.41911 0.0
C491 C 0.39867 0.60245 0.39096 0.0
N492 N 0.52846 0.65278 0.33853 0.0
N493 N 0.3757 0.57989 0.47225 0.0
H494 H 0.33596 0.59486 0.34207 0.0
H495 H 0.31752 0.56777 0.39604 0.0
H496 H 0.38445 0.57358 0.50714 0.0
H497 H 0.33651 0.57731 0.46707 0.0
H498 H 0.56785 0.65635 0.34382 0.0
H499 H 0.51968 0.66183 0.30438 0.0
H500 H 0.58512 0.66747 0.41522 0.0
H501 H 0.56656 0.64313 0.47009 0.0
C502 C 0.05821 0.4517 0.89964 0.0
C503 C 0.11279 0.46511 0.89395 0.0
C504 C 0.11756 0.54835 0.92231 0.0
C505 C 0.06454 0.53282 0.93648 0.0
N506 N 0.98268 0.46986 0.93362 0.0
N507 N 0.19581 0.52431 0.9051 0.0
C508 C 0.03443 0.48445 0.92375 0.0
C509 C 0.14278 0.51298 0.90638 0.0
N510 N 0.02888 0.40825 0.88027 0.0
N511 N 0.14404 0.59668 0.92249 0.0
H512 H 0.21588 0.49971 0.89315 0.0
H513 H 0.2199 0.55665 0.91976 0.0
H514 H 0.12858 0.62481 0.93321 0.0
H515 H 0.18054 0.60947 0.90738 0.0
H516 H 0.98847 0.39814 0.87853 0.0
H517 H 0.04501 0.38367 0.86201 0.0
H518 H 0.96084 0.43351 0.9333 0.0
H519 H 0.96128 0.49422 0.94216 0.0
C520 C 0.64443 0.90497 1.0041 0.0
C521 C 0.6843 0.93295 0.97578 0.0
C522 C 0.68054 0.0069 0.02031 0.0
C523 C 0.63245 0.9806 0.03962 0.0
N524 N 0.56748 0.90325 0.04861 0.0
N525 N 0.73978 0.01151 0.95479 0.0
C526 C 0.61451 0.92904 0.03184 0.0
C527 C 0.70305 0.98414 0.98384 0.0
N528 N 0.63489 0.85536 1.0039 0.0
N529 N 0.70437 0.05349 0.03589 0.0
H530 H 0.75717 0.99641 0.9275 0.0
H531 H 0.7501 0.0495 0.9554 0.0
H532 H 0.68991 0.07128 0.06308 0.0
H533 H 0.74154 0.07253 0.02554 0.0
H534 H 0.60938 0.8333 0.02724 0.0
H535 H 0.65662 0.8369 0.98378 0.0
H536 H 0.54986 0.8669 0.03894 0.0
H537 H 0.54418 0.91891 0.06966 0.0
C538 C 0.84397 0.10467 0.45372 0.0
C539 C 0.85402 0.15601 0.45123 0.0
C540 C 0.93971 0.16613 0.48932 0.0
C541 C 0.92926 0.11442 0.49147 0.0
N542 N 0.88152 0.03695 0.45706 0.0
N543 N 0.91627 0.23502 0.45556 0.0
C544 C 0.88445 0.08454 0.46781 0.0
C545 C 0.90351 0.18658 0.46557 0.0
N546 N 0.79513 0.07491 0.44507 0.0
N547 N 0.98288 0.19597 0.51115 0.0
H548 H 0.89077 0.25091 0.43815 0.0
H549 H 0.95344 0.25842 0.46053 0.0
H550 H 0.01287 0.1835 0.52464 0.0
H551 H 0.98831 0.23325 0.51712 0.0
H552 H 0.78485 0.03763 0.45124 0.0
H553 H 0.76369 0.08803 0.4364 0.0
H554 H 0.85162 0.01409 0.43653 0.0
H555 H 0.91284 0.02282 0.46318 0.0
C556 C 0.20957 0.70611 0.16206 0.0
C557 C 0.25448 0.69737 0.14123 0.0
C558 C 0.20209 0.65289 0.07418 0.0
C559 C 0.15645 0.65824 0.09649 0.0
N560 N 0.11557 0.68345 0.16547 0.0
N561 N 0.29365 0.66438 0.07515 0.0
C562 C 0.15982 0.68378 0.14116 0.0
C563 C 0.25087 0.67157 0.09697 0.0
N564 N 0.21455 0.73599 0.20173 0.0
N565 N 0.19919 0.62934 0.03087 0.0
H566 H 0.33149 0.67719 0.0887 0.0
H567 H 0.33149 0.67719 0.0887 0.0
H568 H 0.16437 0.61574 0.01211 0.0
H569 H 0.23179 0.62425 0.01352 0.0
H570 H 0.18445 0.74879 0.21528 0.0
H571 H 0.24996 0.75112 0.21932 0.0
H572 H 0.11549 0.69616 0.20051 0.0
H573 H 0.0783 0.66675 0.15235 0.0
C574 C 0.30635 0.47151 0.63913 0.0
C575 C 0.30565 0.44851 0.68331 0.0
C576 C 0.4 0.4829 0.69014 0.0
C577 C 0.40169 0.498 0.64234 0.0
N578 N 0.35537 0.4967 0.56802 0.0
N579 N 0.35441 0.42513 0.74692 0.0
C580 C 0.35454 0.49037 0.61596 0.0
C581 C 0.35312 0.45263 0.70811 0.0
N582 N 0.26094 0.47491 0.61907 0.0
N583 N 0.44329 0.49749 0.71856 0.0
H584 H 0.32167 0.40052 0.76034 0.0
H585 H 0.38893 0.42302 0.76291 0.0
H586 H 0.47794 0.52029 0.70671 0.0
H587 H 0.44304 0.49144 0.75495 0.0
H588 H 0.25969 0.49503 0.58892 0.0
H589 H 0.2251 0.46178 0.63541 0.0
H590 H 0.32201 0.48708 0.5466 0.0
H591 H 0.38959 0.50625 0.54879 0.0
C592 C 0.89434 0.75928 0.90827 0.0
C593 C 0.90975 0.80765 0.92766 0.0
C594 C 0.96245 0.78335 0.98885 0.0
C595 C 0.94459 0.73443 0.97113 0.0
N596 N 0.89025 0.67406 0.91714 0.0
N597 N 0.95294 0.86573 0.9887 0.0
C598 C 0.90933 0.72184 0.93191 0.0
C599 C 0.94241 0.81976 0.96859 0.0
N600 N 0.86705 0.74962 0.86614 0.0
N601 N 0.99871 0.79492 0.02488 0.0
H602 H 0.93959 0.89341 0.97416 0.0
H603 H 0.9719 0.87585 0.02133 0.0
H604 H 0.01196 0.76884 0.0425 0.0
H605 H 0.01783 0.83049 0.03587 0.0
H606 H 0.86001 0.71666 0.84698 0.0
H607 H 0.85428 0.77578 0.84817 0.0
H608 H 0.85933 0.66173 0.89319 0.0
H609 H 0.90335 0.64578 0.93057 0.0
C610 C 0.46671 0.84046 0.16188 0.0
C611 C 0.4156 0.8301 0.18011 0.0
C612 C 0.41893 0.91694 0.17574 0.0
C613 C 0.4709 0.92719 0.15998 0.0
N614 N 0.54943 0.90095 0.15667 0.0
N615 N 0.34902 0.86083 0.21675 0.0
C616 C 0.49652 0.88973 0.15894 0.0
C617 C 0.39326 0.86908 0.1905 0.0
N618 N 0.48613 0.80377 0.14486 0.0
N619 N 0.39464 0.95325 0.178 0.0
H620 H 0.33093 0.8269 0.23055 0.0
H621 H 0.33336 0.88845 0.22917 0.0
H622 H 0.41381 0.98946 0.17134 0.0
H623 H 0.35502 0.94701 0.18397 0.0
H624 H 0.52143 0.81039 0.12722 0.0
H625 H 0.4648 0.7672 0.14368 0.0
H626 H 0.56991 0.875 0.16081 0.0
H627 H 0.57295 0.93656 0.15394 0.0
C628 C 0.19369 0.25719 0.65229 0.0
C629 C 0.16529 0.29169 0.66243 0.0
C630 C 0.08671 0.23513 0.62759 0.0
C631 C 0.11625 0.20283 0.61335 0.0
N632 N 0.19934 0.18582 0.60587 0.0
N633 N 0.08784 0.31791 0.65063 0.0
C634 C 0.17033 0.21489 0.62349 0.0
C635 C 0.11263 0.28192 0.64741 0.0
N636 N 0.24185 0.26343 0.67228 0.0
N637 N 0.03375 0.22081 0.62325 0.0
H638 H 0.10587 0.353 0.66403 0.0
H639 H 0.05123 0.31447 0.63574 0.0
H640 H 0.01314 0.1869 0.60886 0.0
H641 H 0.00996 0.24082 0.6377 0.0
H642 H 0.26206 0.237 0.67034 0.0
H643 H 0.2598 0.29313 0.69463 0.0
H644 H 0.23978 0.19554 0.60764 0.0
H645 H 0.18329 0.15356 0.58622 0.0
C646 C 0.60838 0.34237 0.48551 0.0
C647 C 0.65188 0.3412 0.5141 0.0
C648 C 0.65039 0.41819 0.55376 0.0
C649 C 0.6087 0.42128 0.52343 0.0
N650 N 0.55545 0.39141 0.45368 0.0
N651 N 0.72306 0.3843 0.56519 0.0
C652 C 0.58991 0.38487 0.48716 0.0
C653 C 0.67592 0.38146 0.54456 0.0
N654 N 0.58351 0.30229 0.45824 0.0
N655 N 0.66296 0.44736 0.5939 0.0
H656 H 0.74282 0.35785 0.55911 0.0
H657 H 0.74477 0.41518 0.58412 0.0
H658 H 0.64258 0.47188 0.605 0.0
H659 H 0.68949 0.44293 0.61946 0.0
H660 H 0.5481 0.29874 0.44092 0.0
H661 H 0.59672 0.27114 0.45534 0.0
H662 H 0.54409 0.36845 0.4238 0.0
H663 H 0.54191 0.42241 0.45341 0.0
loop_
_geom_bond_atom_site_label_1
_geom_bond_atom_site_label_2
_geom_bond_distance
_geom_bond_site_symmetry_2
_ccdc_geom_bond_type
H0 C1 0.949 . S
C1 H0 0.949 . S
C1 C2 1.395 . S
C1 C3 1.391 . S
C2 C1 1.395 . S
C2 C5 1.390 . S
C3 C1 1.391 . S
C3 C7 1.387 . S
C3 C8 1.491 . S
H4 C5 0.950 . S
C5 C2 1.390 . S
C5 H4 0.950 . S
C5 C6 1.378 . S
C6 C5 1.378 . S
C6 C7 1.409 . S
C7 C3 1.387 . S
C7 C6 1.409 . S
C7 H9 0.951 . S
C8 C3 1.491 . S
C8 C10 1.382 . S
C8 C12 1.404 . S
H9 C7 0.951 . S
C10 C8 1.382 . S
C10 C11 1.390 . S
C10 H15 0.949 . S
C11 C10 1.390 . S
C11 C16 1.399 . S
C12 C8 1.404 . S
C12 H13 0.950 . S
C12 C14 1.375 . S
H13 C12 0.950 . S
C14 C12 1.375 . S
C14 C16 1.382 . S
C14 H18 0.950 . S
H15 C10 0.949 . S
C16 C11 1.399 . S
C16 C14 1.382 . S
C16 H17 0.952 . S
H17 C16 0.952 . S
H18 C14 0.950 . S
H19 C20 0.949 . S
C20 H19 0.949 . S
C20 C21 1.395 . S
C20 C22 1.391 . S
C21 C20 1.395 . S
C21 C24 1.390 . S
C22 C20 1.391 . S
C22 C26 1.387 . S
C22 C27 1.491 . S
H23 C24 0.950 . S
C24 C21 1.390 . S
C24 H23 0.950 . S
C24 C25 1.378 . S
C25 C24 1.378 . S
C25 C26 1.409 . S
C26 C22 1.387 . S
C26 C25 1.409 . S
C26 H28 0.951 . S
C27 C22 1.491 . S
C27 C29 1.382 . S
C27 C31 1.404 . S
H28 C26 0.951 . S
C29 C27 1.382 . S
C29 C30 1.390 . S
C29 H34 0.949 . S
C30 C29 1.390 . S
C30 C35 1.399 . S
C31 C27 1.404 . S
C31 H32 0.950 . S
C31 C33 1.375 . S
H32 C31 0.950 . S
C33 C31 1.375 . S
C33 C35 1.382 . S
C33 H37 0.950 . S
H34 C29 0.949 . S
C35 C30 1.399 . S
C35 C33 1.382 . S
C35 H36 0.952 . S
H36 C35 0.952 . S
H37 C33 0.950 . S
H38 C39 0.949 . S
C39 H38 0.949 . S
C39 C40 1.395 . S
C39 C41 1.391 . S
C40 C39 1.395 . S
C40 C43 1.390 . S
C41 C39 1.391 . S
C41 C45 1.387 . S
C41 C46 1.491 . S
H42 C43 0.950 . S
C43 C40 1.390 . S
C43 H42 0.950 . S
C43 C44 1.378 . S
C44 C43 1.378 . S
C44 C45 1.409 . S
C45 C41 1.387 . S
C45 C44 1.409 . S
C45 H47 0.951 . S
C46 C41 1.491 . S
C46 C48 1.382 . S
C46 C50 1.404 . S
H47 C45 0.951 . S
C48 C46 1.382 . S
C48 C49 1.390 . S
C48 H53 0.949 . S
C49 C48 1.390 . S
C49 C54 1.399 . S
C50 C46 1.404 . S
C50 H51 0.950 . S
C50 C52 1.375 . S
H51 C50 0.950 . S
C52 C50 1.375 . S
C52 C54 1.382 . S
C52 H56 0.950 . S
H53 C48 0.949 . S
C54 C49 1.399 . S
C54 C52 1.382 . S
C54 H55 0.952 . S
H55 C54 0.952 . S
H56 C52 0.950 . S
H57 C58 0.949 . S
C58 H57 0.949 . S
C58 C59 1.395 . S
C58 C60 1.391 . S
C59 C58 1.395 . S
C59 C62 1.390 . S
C60 C58 1.391 . S
C60 C64 1.387 . S
C60 C65 1.491 . S
H61 C62 0.950 . S
C62 C59 1.390 . S
C62 H61 0.950 . S
C62 C63 1.378 . S
C63 C62 1.378 . S
C63 C64 1.409 . S
C64 C60 1.387 . S
C64 C63 1.409 . S
C64 H66 0.951 . S
C65 C60 1.491 . S
C65 C67 1.382 . S
C65 C69 1.404 . S
H66 C64 0.951 . S
C67 C65 1.382 . S
C67 C68 1.390 . S
C67 H72 0.949 . S
C68 C67 1.390 . S
C68 C73 1.399 . S
C69 C65 1.404 . S
C69 H70 0.950 . S
C69 C71 1.375 . S
H70 C69 0.950 . S
C71 C69 1.375 . S
C71 C73 1.382 . S
C71 H75 0.950 . S
H72 C67 0.949 . S
C73 C68 1.399 . S
C73 C71 1.382 . S
C73 H74 0.952 . S
H74 C73 0.952 . S
H75 C71 0.950 . S
H76 C77 0.949 . S
C77 H76 0.949 . S
C77 C78 1.395 . S
C77 C79 1.391 . S
C78 C77 1.395 . S
C78 C81 1.390 . S
C79 C77 1.391 . S
C79 C83 1.387 . S
C79 C84 1.491 . S
H80 C81 0.950 . S
C81 C78 1.390 . S
C81 H80 0.950 . S
C81 C82 1.378 . S
C82 C81 1.378 . S
C82 C83 1.409 . S
C83 C79 1.387 . S
C83 C82 1.409 . S
C83 H85 0.951 . S
C84 C79 1.491 . S
C84 C86 1.382 . S
C84 C88 1.404 . S
H85 C83 0.951 . S
C86 C84 1.382 . S
C86 C87 1.390 . S
C86 H91 0.949 . S
C87 C86 1.390 . S
C87 C92 1.399 . S
C88 C84 1.404 . S
C88 H89 0.950 . S
C88 C90 1.375 . S
H89 C88 0.950 . S
C90 C88 1.375 . S
C90 C92 1.382 . S
C90 H94 0.950 . S
H91 C86 0.949 . S
C92 C87 1.399 . S
C92 C90 1.382 . S
C92 H93 0.952 . S
H93 C92 0.952 . S
H94 C90 0.950 . S
H95 C96 0.949 . S
C96 H95 0.949 . S
C96 C97 1.395 . S
C96 C98 1.391 . S
C97 C96 1.395 . S
C97 C100 1.390 . S
C98 C96 1.391 . S
C98 C102 1.387 . S
C98 C103 1.491 . S
H99 C100 0.950 . S
C100 C97 1.390 . S
C100 H99 0.950 . S
C100 C101 1.378 . S
C101 C100 1.378 . S
C101 C102 1.409 . S
C102 C98 1.387 . S
C102 C101 1.409 . S
C102 H104 0.951 . S
C103 C98 1.491 . S
C103 C105 1.382 . S
C103 C107 1.404 . S
H104 C102 0.951 . S
C105 C103 1.382 . S
C105 C106 1.390 . S
C105 H110 0.949 . S
C106 C105 1.390 . S
C106 C111 1.399 . S
C107 C103 1.404 . S
C107 H108 0.950 . S
C107 C109 1.375 . S
H108 C107 0.950 . S
C109 C107 1.375 . S
C109 C111 1.382 . S
C109 H113 0.950 . S
H110 C105 0.949 . S
C111 C106 1.399 . S
C111 C109 1.382 . S
C111 H112 0.952 . S
H112 C111 0.952 . S
H113 C109 0.950 . S
H114 C115 0.949 . S
C115 H114 0.949 . S
C115 C116 1.395 . S
C115 C117 1.391 . S
C116 C115 1.395 . S
C116 C119 1.390 . S
C117 C115 1.391 . S
C117 C121 1.387 . S
C117 C122 1.491 . S
H118 C119 0.950 . S
C119 C116 1.390 . S
C119 H118 0.950 . S
C119 C120 1.378 . S
C120 C119 1.378 . S
C120 C121 1.409 . S
C121 C117 1.387 . S
C121 C120 1.409 . S
C121 H123 0.951 . S
C122 C117 1.491 . S
C122 C124 1.382 . S
C122 C126 1.404 . S
H123 C121 0.951 . S
C124 C122 1.382 . S
C124 C125 1.390 . S
C124 H129 0.949 . S
C125 C124 1.390 . S
C125 C130 1.399 . S
C126 C122 1.404 . S
C126 H127 0.950 . S
C126 C128 1.375 . S
H127 C126 0.950 . S
C128 C126 1.375 . S
C128 C130 1.382 . S
C128 H132 0.950 . S
H129 C124 0.949 . S
C130 C125 1.399 . S
C130 C128 1.382 . S
C130 H131 0.952 . S
H131 C130 0.952 . S
H132 C128 0.950 . S
H133 C134 0.949 . S
C134 H133 0.949 . S
C134 C135 1.395 . S
C134 C136 1.391 . S
C135 C134 1.395 . S
C135 C138 1.390 . S
C136 C134 1.391 . S
C136 C140 1.387 . S
C136 C141 1.491 . S
H137 C138 0.950 . S
C138 C135 1.390 . S
C138 H137 0.950 . S
C138 C139 1.378 . S
C139 C138 1.378 . S
C139 C140 1.409 . S
C140 C136 1.387 . S
C140 C139 1.409 . S
C140 H142 0.951 . S
C141 C136 1.491 . S
C141 C143 1.382 . S
C141 C145 1.404 . S
H142 C140 0.951 . S
C143 C141 1.382 . S
C143 C144 1.390 . S
C143 H148 0.949 . S
C144 C143 1.390 . S
C144 C149 1.399 . S
C145 C141 1.404 . S
C145 H146 0.950 . S
C145 C147 1.375 . S
H146 C145 0.950 . S
C147 C145 1.375 . S
C147 C149 1.382 . S
C147 H151 0.950 . S
H148 C143 0.949 . S
C149 C144 1.399 . S
C149 C147 1.382 . S
C149 H150 0.952 . S
H150 C149 0.952 . S
H151 C147 0.950 . S
Dy152 O156 2.398 . S
Dy152 O157 2.491 . S
Dy152 O158 2.403 . S
Dy152 O159 2.664 . S
Dy152 O163 2.326 . S
Dy152 O167 2.310 1_455 S
Dy152 O168 2.351 1_445 S
C153 O164 1.185 . S
C153 O165 1.355 . S
C154 O156 1.185 . S
C154 O157 1.355 . S
Dy155 O159 2.310 1_655 S
Dy155 O162 2.351 1_655 S
Dy155 O164 2.398 1_545 S
Dy155 O165 2.491 1_545 S
Dy155 O166 2.403 . S
Dy155 O167 2.664 . S
Dy155 O169 2.326 1_545 S
O156 Dy152 2.398 . S
O156 C154 1.185 . S
O157 Dy152 2.491 . S
O157 C154 1.355 . S
O158 Dy152 2.403 . S
O158 C160 1.254 . S
O159 Dy152 2.664 . S
O159 Dy155 2.310 1_455 S
O159 C160 1.268 . S
C160 O158 1.254 . S
C160 O159 1.268 . S
C161 O166 1.254 . S
C161 O167 1.268 . S
O162 Dy155 2.351 1_455 S
O162 C170 1.249 . S
O163 Dy152 2.326 . S
O163 C170 1.267 . S
O164 C153 1.185 . S
O164 Dy155 2.398 1_565 S
O165 C153 1.355 . S
O165 Dy155 2.491 1_565 S
O166 Dy155 2.403 . S
O166 C161 1.254 . S
O167 Dy152 2.310 1_655 S
O167 Dy155 2.664 . S
O167 C161 1.268 . S
O168 Dy152 2.351 1_665 S
O168 C171 1.249 . S
O169 Dy155 2.326 1_565 S
O169 C171 1.267 . S
C170 O162 1.249 . S
C170 O163 1.267 . S
C171 O168 1.249 . S
C171 O169 1.267 . S
Dy172 O176 2.398 . S
Dy172 O177 2.491 . S
Dy172 O178 2.403 1_545 S
Dy172 O179 2.664 1_545 S
Dy172 O183 2.326 . S
Dy172 O187 2.310 . S
Dy172 O188 2.351 1_545 S
C173 O184 1.185 1_565 S
C173 O185 1.355 . S
C174 O176 1.185 . S
C174 O177 1.355 . S
Dy175 O179 2.310 1_545 S
Dy175 O182 2.351 . S
Dy175 O184 2.398 1_554 S
Dy175 O185 2.491 1_544 S
Dy175 O186 2.403 . S
Dy175 O187 2.664 . S
Dy175 O189 2.326 . S
O176 Dy172 2.398 . S
O176 C174 1.185 . S
O177 Dy172 2.491 . S
O177 C174 1.355 . S
O178 Dy172 2.403 1_565 S
O178 C180 1.254 . S
O179 Dy172 2.664 1_565 S
O179 Dy175 2.310 1_565 S
O179 C180 1.268 . S
C180 O178 1.254 . S
C180 O179 1.268 . S
C181 O186 1.254 . S
C181 O187 1.268 . S
O182 Dy175 2.351 . S
O182 C190 1.249 . S
O183 Dy172 2.326 . S
O183 C190 1.267 . S
O184 C173 1.185 1_545 S
O184 Dy175 2.398 1_556 S
O185 C173 1.355 . S
O185 Dy175 2.491 1_566 S
O186 Dy175 2.403 . S
O186 C181 1.254 . S
O187 Dy172 2.310 . S
O187 Dy175 2.664 . S
O187 C181 1.268 . S
O188 Dy172 2.351 1_565 S
O188 C191 1.249 . S
O189 Dy175 2.326 . S
O189 C191 1.267 1_545 S
C190 O182 1.249 . S
C190 O183 1.267 . S
C191 O188 1.249 . S
C191 O189 1.267 1_565 S
Dy192 O196 2.398 . S
Dy192 O197 2.491 . S
Dy192 O198 2.403 . S
Dy192 O199 2.664 . S
Dy192 O203 2.326 . S
Dy192 O207 2.310 . S
Dy192 O208 2.351 . S
C193 O204 1.185 . S
C193 O205 1.355 . S
C194 O196 1.185 . S
C194 O197 1.355 . S
Dy195 O199 2.310 . S
Dy195 O202 2.351 . S
Dy195 O204 2.398 . S
Dy195 O205 2.491 . S
Dy195 O206 2.403 . S
Dy195 O207 2.664 . S
Dy195 O209 2.326 . S
O196 Dy192 2.398 . S
O196 C194 1.185 . S
O197 Dy192 2.491 . S
O197 C194 1.355 . S
O198 Dy192 2.403 . S
O198 C200 1.254 . S
O199 Dy192 2.664 . S
O199 Dy195 2.310 . S
O199 C200 1.268 . S
C200 O198 1.254 . S
C200 O199 1.268 . S
C201 O206 1.254 . S
C201 O207 1.268 . S
O202 Dy195 2.351 . S
O202 C210 1.249 . S
O203 Dy192 2.326 . S
O203 C210 1.267 . S
O204 C193 1.185 . S
O204 Dy195 2.398 . S
O205 C193 1.355 . S
O205 Dy195 2.491 . S
O206 Dy195 2.403 . S
O206 C201 1.254 . S
O207 Dy192 2.310 . S
O207 Dy195 2.664 . S
O207 C201 1.268 . S
O208 Dy192 2.351 . S
O208 C211 1.249 . S
O209 Dy195 2.326 . S
O209 C211 1.267 . S
C210 O202 1.249 . S
C210 O203 1.267 . S
C211 O208 1.249 . S
C211 O209 1.267 . S
Dy212 O216 2.398 . S
Dy212 O217 2.491 . S
Dy212 O218 2.403 1_455 S
Dy212 O219 2.664 1_455 S
Dy212 O223 2.326 . S
Dy212 O227 2.310 1_554 S
Dy212 O228 2.351 1_455 S
C213 O224 1.185 . S
C213 O225 1.355 . S
C214 O216 1.185 . S
C214 O217 1.355 . S
Dy215 O219 2.310 1_456 S
Dy215 O222 2.351 1_556 S
Dy215 O224 2.398 1_455 S
Dy215 O225 2.491 1_455 S
Dy215 O226 2.403 . S
Dy215 O227 2.664 . S
Dy215 O229 2.326 1_455 S
O216 Dy212 2.398 . S
O216 C214 1.185 . S
O217 Dy212 2.491 . S
O217 C214 1.355 . S
O218 Dy212 2.403 1_655 S
O218 C220 1.254 . S
O219 Dy212 2.664 1_655 S
O219 Dy215 2.310 1_654 S
O219 C220 1.268 . S
C220 O218 1.254 . S
C220 O219 1.268 . S
C221 O226 1.254 . S
C221 O227 1.268 . S
O222 Dy215 2.351 1_554 S
O222 C230 1.249 . S
O223 Dy212 2.326 . S
O223 C230 1.267 . S
O224 C213 1.185 . S
O224 Dy215 2.398 1_655 S
O225 C213 1.355 . S
O225 Dy215 2.491 1_655 S
O226 Dy215 2.403 . S
O226 C221 1.254 . S
O227 Dy212 2.310 1_556 S
O227 Dy215 2.664 . S
O227 C221 1.268 . S
O228 Dy212 2.351 1_655 S
O228 C231 1.249 1_554 S
O229 Dy215 2.326 1_655 S
O229 C231 1.267 . S
C230 O222 1.249 . S
C230 O223 1.267 . S
C231 O228 1.249 1_556 S
C231 O229 1.267 . S
C232 C233 1.363 . S
C232 C238 1.379 . S
C232 N240 1.356 . S
C233 C232 1.363 . S
C233 C239 1.363 . S
C234 C235 1.363 . S
C234 C239 1.379 . S
C234 N241 1.356 . S
C235 C234 1.363 . S
C235 C238 1.363 . S
N236 C238 1.356 . S
N236 H248 0.984 . S
N236 H249 0.985 . S
N237 C239 1.356 . S
N237 H242 0.984 . S
N237 H243 0.985 . S
C238 C232 1.379 . S
C238 C235 1.363 . S
C238 N236 1.356 . S
C239 C233 1.363 . S
C239 C234 1.379 . S
C239 N237 1.356 . S
N240 C232 1.356 . S
N240 H246 0.984 . S
N240 H247 0.984 . S
N241 C234 1.356 . S
N241 H244 0.984 . S
N241 H245 0.985 . S
H242 N237 0.984 . S
H243 N237 0.985 . S
H244 N241 0.984 . S
H245 N241 0.985 . S
H246 N240 0.984 . S
H247 N240 0.984 . S
H248 N236 0.984 . S
H249 N236 0.985 . S
C250 C251 1.363 . S
C250 C256 1.379 . S
C250 N258 1.356 . S
C251 C250 1.363 . S
C251 C257 1.363 . S
C252 C253 1.363 . S
C252 C257 1.379 . S
C252 N259 1.356 1_565 S
C253 C252 1.363 . S
C253 C256 1.363 . S
N254 C256 1.356 . S
N254 H266 0.984 . S
N254 H267 0.985 . S
N255 C257 1.356 . S
N255 H260 0.984 . S
N255 H261 0.985 1_565 S
C256 C250 1.379 . S
C256 C253 1.363 . S
C256 N254 1.356 . S
C257 C251 1.363 . S
C257 C252 1.379 . S
C257 N255 1.356 . S
N258 C250 1.356 . S
N258 H264 0.984 . S
N258 H265 0.984 . S
N259 C252 1.356 1_545 S
N259 H262 0.985 1_545 S
N259 H263 0.985 . S
H260 N255 0.984 . S
H261 N255 0.985 1_545 S
H262 N259 0.985 1_565 S
H263 N259 0.985 . S
H264 N258 0.984 . S
H265 N258 0.984 . S
H266 N254 0.984 . S
H267 N254 0.985 . S
C268 C269 1.363 . S
C268 C274 1.379 . S
C268 N276 1.356 . S
C269 C268 1.363 . S
C269 C275 1.363 . S
C270 C271 1.363 . S
C270 C275 1.379 . S
C270 N277 1.356 . S
C271 C270 1.363 . S
C271 C274 1.363 . S
N272 C274 1.356 . S
N272 H284 0.984 . S
N272 H285 0.985 . S
N273 C275 1.356 . S
N273 H278 0.984 . S
N273 H279 0.985 . S
C274 C268 1.379 . S
C274 C271 1.363 . S
C274 N272 1.356 . S
C275 C269 1.363 . S
C275 C270 1.379 . S
C275 N273 1.356 . S
N276 C268 1.356 . S
N276 H282 0.984 . S
N276 H283 0.984 . S
N277 C270 1.356 . S
N277 H280 0.984 . S
N277 H281 0.985 . S
H278 N273 0.984 . S
H279 N273 0.985 . S
H280 N277 0.984 . S
H281 N277 0.985 . S
H282 N276 0.984 . S
H283 N276 0.984 . S
H284 N272 0.984 . S
H285 N272 0.985 . S
C286 C287 1.363 . S
C286 C292 1.379 . S
C286 N294 1.356 . S
C287 C286 1.363 . S
C287 C293 1.363 . S
C288 C289 1.363 . S
C288 C293 1.379 . S
C288 N295 1.356 . S
C289 C288 1.363 . S
C289 C292 1.363 . S
N290 C292 1.356 . S
N290 H302 0.984 1_655 S
N290 H303 0.985 1_655 S
N291 C293 1.356 . S
N291 H296 0.984 . S
N291 H297 0.985 . S
C292 C286 1.379 . S
C292 C289 1.363 . S
C292 N290 1.356 . S
C293 C287 1.363 . S
C293 C288 1.379 . S
C293 N291 1.356 . S
N294 C286 1.356 . S
N294 H300 0.984 . S
N294 H301 0.984 . S
N295 C288 1.356 . S
N295 H298 0.984 . S
N295 H299 0.985 . S
H296 N291 0.984 . S
H297 N291 0.985 . S
H298 N295 0.984 . S
H299 N295 0.985 . S
H300 N294 0.984 . S
H301 N294 0.984 . S
H302 N290 0.984 1_455 S
H303 N290 0.985 1_455 S
C304 C305 1.363 . S
C304 C310 1.379 . S
C304 N312 1.356 . S
C305 C304 1.363 . S
C305 C311 1.363 . S
C306 C307 1.363 . S
C306 C311 1.379 . S
C306 N313 1.356 . S
C307 C306 1.363 . S
C307 C310 1.363 . S
N308 C310 1.356 . S
N308 H320 0.984 . S
N308 H321 0.985 . S
N309 C311 1.356 . S
N309 H314 0.984 . S
N309 H315 0.985 . S
C310 C304 1.379 . S
C310 C307 1.363 . S
C310 N308 1.356 . S
C311 C305 1.363 . S
C311 C306 1.379 . S
C311 N309 1.356 . S
N312 C304 1.356 . S
N312 H318 0.984 . S
N312 H319 0.984 . S
N313 C306 1.356 . S
N313 H316 0.984 . S
N313 H317 0.985 . S
H314 N309 0.984 . S
H315 N309 0.985 . S
H316 N313 0.984 . S
H317 N313 0.985 . S
H318 N312 0.984 . S
H319 N312 0.984 . S
H320 N308 0.984 . S
H321 N308 0.985 . S
C322 C323 1.363 . S
C322 C328 1.379 . S
C322 N330 1.356 . S
C323 C322 1.363 . S
C323 C329 1.363 1_565 S
C324 C325 1.363 1_545 S
C324 C329 1.379 . S
C324 N331 1.356 . S
C325 C324 1.363 1_565 S
C325 C328 1.363 . S
N326 C328 1.356 . S
N326 H338 0.984 . S
N326 H339 0.985 . S
N327 C329 1.356 . S
N327 H332 0.984 . S
N327 H333 0.985 . S
C328 C322 1.379 . S
C328 C325 1.363 . S
C328 N326 1.356 . S
C329 C323 1.363 1_545 S
C329 C324 1.379 . S
C329 N327 1.356 . S
N330 C322 1.356 . S
N330 H336 0.984 . S
N330 H337 0.984 . S
N331 C324 1.356 . S
N331 H334 0.984 . S
N331 H335 0.985 . S
H332 N327 0.984 . S
H333 N327 0.985 . S
H334 N331 0.984 . S
H335 N331 0.985 . S
H336 N330 0.984 . S
H337 N330 0.984 . S
H338 N326 0.984 . S
H339 N326 0.985 . S
C340 C341 1.363 . S
C340 C346 1.379 . S
C340 N348 1.356 . S
C341 C340 1.363 . S
C341 C347 1.363 . S
C342 C343 1.363 . S
C342 C347 1.379 . S
C342 N349 1.356 1_556 S
C343 C342 1.363 . S
C343 C346 1.363 . S
N344 C346 1.356 . S
N344 H356 0.984 . S
N344 H357 0.985 . S
N345 C347 1.356 . S
N345 H350 0.984 . S
N345 H351 0.985 1_556 S
C346 C340 1.379 . S
C346 C343 1.363 . S
C346 N344 1.356 . S
C347 C341 1.363 . S
C347 C342 1.379 . S
C347 N345 1.356 . S
N348 C340 1.356 . S
N348 H354 0.984 . S
N348 H355 0.984 . S
N349 C342 1.356 1_554 S
N349 H352 0.984 . S
N349 H353 0.985 . S
H350 N345 0.984 . S
H351 N345 0.985 1_554 S
H352 N349 0.984 . S
H353 N349 0.985 . S
H354 N348 0.984 . S
H355 N348 0.984 . S
H356 N344 0.984 . S
H357 N344 0.985 . S
C358 C359 1.363 . S
C358 C364 1.379 . S
C358 N366 1.356 . S
C359 C358 1.363 . S
C359 C365 1.363 . S
C360 C361 1.363 . S
C360 C365 1.379 . S
C360 N367 1.356 . S
C361 C360 1.363 . S
C361 C364 1.363 . S
N362 C364 1.356 . S
N362 H374 0.984 . S
N362 H375 0.985 . S
N363 C365 1.356 . S
N363 H368 0.984 . S
N363 H369 0.985 . S
C364 C358 1.379 . S
C364 C361 1.363 . S
C364 N362 1.356 . S
C365 C359 1.363 . S
C365 C360 1.379 . S
C365 N363 1.356 . S
N366 C358 1.356 . S
N366 H372 0.984 . S
N366 H373 0.984 . S
N367 C360 1.356 . S
N367 H370 0.984 . S
N367 H371 0.985 . S
H368 N363 0.984 . S
H369 N363 0.985 . S
H370 N367 0.984 . S
H371 N367 0.985 . S
H372 N366 0.984 . S
H373 N366 0.984 . S
H374 N362 0.984 . S
H375 N362 0.985 . S
C376 C377 1.363 . S
C376 C382 1.379 . S
C376 N384 1.356 . S
C377 C376 1.363 . S
C377 C383 1.363 . S
C378 C379 1.363 . S
C378 C383 1.379 . S
C378 N385 1.356 . S
C379 C378 1.363 . S
C379 C382 1.363 . S
N380 C382 1.356 . S
N380 H392 0.984 . S
N380 H393 0.985 . S
N381 C383 1.356 . S
N381 H386 0.984 . S
N381 H387 0.985 . S
C382 C376 1.379 . S
C382 C379 1.363 . S
C382 N380 1.356 . S
C383 C377 1.363 . S
C383 C378 1.379 . S
C383 N381 1.356 . S
N384 C376 1.356 . S
N384 H390 0.984 . S
N384 H391 0.984 . S
N385 C378 1.356 . S
N385 H388 0.984 . S
N385 H389 0.985 . S
H386 N381 0.984 . S
H387 N381 0.985 . S
H388 N385 0.984 . S
H389 N385 0.985 . S
H390 N384 0.984 . S
H391 N384 0.984 . S
H392 N380 0.984 . S
H393 N380 0.985 . S
C394 C395 1.363 . S
C394 C400 1.379 . S
C394 N402 1.356 . S
C395 C394 1.363 . S
C395 C401 1.363 1_556 S
C396 C397 1.363 . S
C396 C401 1.379 . S
C396 N403 1.356 . S
C397 C396 1.363 . S
C397 C400 1.363 1_554 S
N398 C400 1.356 . S
N398 H410 0.984 . S
N398 H411 0.985 1_556 S
N399 C401 1.356 . S
N399 H404 0.984 1_554 S
N399 H405 0.985 . S
C400 C394 1.379 . S
C400 C397 1.363 1_556 S
C400 N398 1.356 . S
C401 C395 1.363 1_554 S
C401 C396 1.379 . S
C401 N399 1.356 . S
N402 C394 1.356 . S
N402 H408 0.984 . S
N402 H409 0.984 . S
N403 C396 1.356 . S
N403 H406 0.984 . S
N403 H407 0.985 . S
H404 N399 0.984 1_556 S
H405 N399 0.985 . S
H406 N403 0.984 . S
H407 N403 0.985 . S
H408 N402 0.984 . S
H409 N402 0.984 . S
H410 N398 0.984 . S
H411 N398 0.985 1_554 S
C412 C413 1.363 . S
C412 C418 1.379 . S
C412 N420 1.356 . S
C413 C412 1.363 . S
C413 C419 1.363 . S
C414 C415 1.363 . S
C414 C419 1.379 . S
C414 N421 1.356 . S
C415 C414 1.363 . S
C415 C418 1.363 . S
N416 C418 1.356 1_455 S
N416 H428 0.984 . S
N416 H429 0.985 . S
N417 C419 1.356 . S
N417 H422 0.984 . S
N417 H423 0.985 . S
C418 C412 1.379 . S
C418 C415 1.363 . S
C418 N416 1.356 1_655 S
C419 C413 1.363 . S
C419 C414 1.379 . S
C419 N417 1.356 . S
N420 C412 1.356 . S
N420 H426 0.984 . S
N420 H427 0.984 . S
N421 C414 1.356 . S
N421 H424 0.984 . S
N421 H425 0.985 . S
H422 N417 0.984 . S
H423 N417 0.985 . S
H424 N421 0.984 . S
H425 N421 0.985 . S
H426 N420 0.984 . S
H427 N420 0.984 . S
H428 N416 0.984 . S
H429 N416 0.985 . S
C430 C431 1.363 . S
C430 C436 1.379 . S
C430 N438 1.356 . S
C431 C430 1.363 . S
C431 C437 1.363 . S
C432 C433 1.363 . S
C432 C437 1.379 . S
C432 N439 1.356 . S
C433 C432 1.363 . S
C433 C436 1.363 . S
N434 C436 1.356 . S
N434 H446 0.984 . S
N434 H447 0.985 . S
N435 C437 1.356 . S
N435 H440 0.984 . S
N435 H441 0.985 . S
C436 C430 1.379 . S
C436 C433 1.363 . S
C436 N434 1.356 . S
C437 C431 1.363 . S
C437 C432 1.379 . S
C437 N435 1.356 . S
N438 C430 1.356 . S
N438 H444 0.984 . S
N438 H445 0.984 . S
N439 C432 1.356 . S
N439 H442 0.984 . S
N439 H443 0.985 . S
H440 N435 0.984 . S
H441 N435 0.985 . S
H442 N439 0.984 . S
H443 N439 0.985 . S
H444 N438 0.984 . S
H445 N438 0.984 . S
H446 N434 0.984 . S
H447 N434 0.985 . S
C448 C449 1.363 . S
C448 C454 1.379 . S
C448 N456 1.356 . S
C449 C448 1.363 . S
C449 C455 1.363 . S
C450 C451 1.363 . S
C450 C455 1.379 . S
C450 N457 1.356 . S
C451 C450 1.363 . S
C451 C454 1.363 . S
N452 C454 1.356 . S
N452 H464 0.984 . S
N452 H465 0.985 . S
N453 C455 1.356 . S
N453 H458 0.984 . S
N453 H459 0.985 . S
C454 C448 1.379 . S
C454 C451 1.363 . S
C454 N452 1.356 . S
C455 C449 1.363 . S
C455 C450 1.379 . S
C455 N453 1.356 . S
N456 C448 1.356 . S
N456 H462 0.984 . S
N456 H463 0.984 . S
N457 C450 1.356 . S
N457 H460 0.984 . S
N457 H461 0.985 . S
H458 N453 0.984 . S
H459 N453 0.985 . S
H460 N457 0.984 . S
H461 N457 0.985 . S
H462 N456 0.984 . S
H463 N456 0.984 . S
H464 N452 0.984 . S
H465 N452 0.985 . S
C466 C467 1.363 . S
C466 C472 1.379 . S
C466 N474 1.356 . S
C467 C466 1.363 . S
C467 C473 1.363 . S
C468 C469 1.363 . S
C468 C473 1.379 . S
C468 N475 1.356 . S
C469 C468 1.363 . S
C469 C472 1.363 . S
N470 C472 1.356 . S
N470 H482 0.984 . S
N470 H483 0.985 . S
N471 C473 1.356 . S
N471 H476 0.984 . S
N471 H477 0.985 . S
C472 C466 1.379 . S
C472 C469 1.363 . S
C472 N470 1.356 . S
C473 C467 1.363 . S
C473 C468 1.379 . S
C473 N471 1.356 . S
N474 C466 1.356 . S
N474 H480 0.984 . S
N474 H481 0.984 . S
N475 C468 1.356 . S
N475 H478 0.984 . S
N475 H479 0.985 . S
H476 N471 0.984 . S
H477 N471 0.985 . S
H478 N475 0.984 . S
H479 N475 0.985 . S
H480 N474 0.984 . S
H481 N474 0.984 . S
H482 N470 0.984 . S
H483 N470 0.985 . S
C484 C485 1.363 . S
C484 C490 1.379 . S
C484 N492 1.356 . S
C485 C484 1.363 . S
C485 C491 1.363 . S
C486 C487 1.363 . S
C486 C491 1.379 . S
C486 N493 1.356 . S
C487 C486 1.363 . S
C487 C490 1.363 . S
N488 C490 1.356 . S
N488 H500 0.984 . S
N488 H501 0.985 . S
N489 C491 1.356 . S
N489 H494 0.984 . S
N489 H495 0.985 . S
C490 C484 1.379 . S
C490 C487 1.363 . S
C490 N488 1.356 . S
C491 C485 1.363 . S
C491 C486 1.379 . S
C491 N489 1.356 . S
N492 C484 1.356 . S
N492 H498 0.984 . S
N492 H499 0.984 . S
N493 C486 1.356 . S
N493 H496 0.984 . S
N493 H497 0.985 . S
H494 N489 0.984 . S
H495 N489 0.985 . S
H496 N493 0.984 . S
H497 N493 0.985 . S
H498 N492 0.984 . S
H499 N492 0.984 . S
H500 N488 0.984 . S
H501 N488 0.985 . S
C502 C503 1.363 . S
C502 C508 1.379 . S
C502 N510 1.356 . S
C503 C502 1.363 . S
C503 C509 1.363 . S
C504 C505 1.363 . S
C504 C509 1.379 . S
C504 N511 1.356 . S
C505 C504 1.363 . S
C505 C508 1.363 . S
N506 C508 1.356 . S
N506 H518 0.984 . S
N506 H519 0.985 . S
N507 C509 1.356 . S
N507 H512 0.984 . S
N507 H513 0.985 . S
C508 C502 1.379 . S
C508 C505 1.363 . S
C508 N506 1.356 . S
C509 C503 1.363 . S
C509 C504 1.379 . S
C509 N507 1.356 . S
N510 C502 1.356 . S
N510 H516 0.984 . S
N510 H517 0.984 . S
N511 C504 1.356 . S
N511 H514 0.984 . S
N511 H515 0.985 . S
H512 N507 0.984 . S
H513 N507 0.985 . S
H514 N511 0.984 . S
H515 N511 0.985 . S
H516 N510 0.984 . S
H517 N510 0.984 . S
H518 N506 0.984 . S
H519 N506 0.985 . S
C520 C521 1.363 . S
C520 C526 1.379 1_556 S
C520 N528 1.356 . S
C521 C520 1.363 . S
C521 C527 1.363 . S
C522 C523 1.363 1_556 S
C522 C527 1.379 . S
C522 N529 1.356 . S
C523 C522 1.363 1_554 S
C523 C526 1.363 . S
N524 C526 1.356 . S
N524 H536 0.984 . S
N524 H537 0.985 . S
N525 C527 1.356 . S
N525 H530 0.984 . S
N525 H531 0.985 . S
C526 C520 1.379 1_554 S
C526 C523 1.363 . S
C526 N524 1.356 . S
C527 C521 1.363 . S
C527 C522 1.379 . S
C527 N525 1.356 . S
N528 C520 1.356 . S
N528 H534 0.984 . S
N528 H535 0.984 . S
N529 C522 1.356 . S
N529 H532 0.984 1_565 S
N529 H533 0.985 1_565 S
H530 N525 0.984 . S
H531 N525 0.985 . S
H532 N529 0.984 1_545 S
H533 N529 0.985 1_545 S
H534 N528 0.984 . S
H535 N528 0.984 . S
H536 N524 0.984 . S
H537 N524 0.985 . S
C538 C539 1.363 . S
C538 C544 1.379 . S
C538 N546 1.356 . S
C539 C538 1.363 . S
C539 C545 1.363 . S
C540 C541 1.363 . S
C540 C545 1.379 . S
C540 N547 1.356 . S
C541 C540 1.363 . S
C541 C544 1.363 . S
N542 C544 1.356 . S
N542 H554 0.984 . S
N542 H555 0.985 . S
N543 C545 1.356 . S
N543 H548 0.984 . S
N543 H549 0.985 . S
C544 C538 1.379 . S
C544 C541 1.363 . S
C544 N542 1.356 . S
C545 C539 1.363 . S
C545 C540 1.379 . S
C545 N543 1.356 . S
N546 C538 1.356 . S
N546 H552 0.984 . S
N546 H553 0.984 . S
N547 C540 1.356 . S
N547 H550 0.984 . S
N547 H551 0.985 . S
H548 N543 0.984 . S
H549 N543 0.985 . S
H550 N547 0.984 . S
H551 N547 0.985 . S
H552 N546 0.984 . S
H553 N546 0.984 . S
H554 N542 0.984 . S
H555 N542 0.985 . S
C556 C557 1.363 . S
C556 C562 1.379 . S
C556 N564 1.356 . S
C557 C556 1.363 . S
C557 C563 1.363 . S
C558 C559 1.363 . S
C558 C563 1.379 . S
C558 N565 1.356 . S
C559 C558 1.363 . S
C559 C562 1.363 . S
N560 C562 1.356 . S
N560 H572 0.984 . S
N560 H573 0.985 . S
N561 C563 1.356 . S
N561 H566 0.984 . S
N561 H567 0.985 . S
C562 C556 1.379 . S
C562 C559 1.363 . S
C562 N560 1.356 . S
C563 C557 1.363 . S
C563 C558 1.379 . S
C563 N561 1.356 . S
N564 C556 1.356 . S
N564 H570 0.984 . S
N564 H571 0.984 . S
N565 C558 1.356 . S
N565 H568 0.984 . S
N565 H569 0.985 . S
H566 N561 0.984 . S
H567 N561 0.985 . S
H568 N565 0.984 . S
H569 N565 0.985 . S
H570 N564 0.984 . S
H571 N564 0.984 . S
H572 N560 0.984 . S
H573 N560 0.985 . S
C574 C575 1.363 . S
C574 C580 1.379 . S
C574 N582 1.356 . S
C575 C574 1.363 . S
C575 C581 1.363 . S
C576 C577 1.363 . S
C576 C581 1.379 . S
C576 N583 1.356 . S
C577 C576 1.363 . S
C577 C580 1.363 . S
N578 C580 1.356 . S
N578 H590 0.984 . S
N578 H591 0.985 . S
N579 C581 1.356 . S
N579 H584 0.984 . S
N579 H585 0.985 . S
C580 C574 1.379 . S
C580 C577 1.363 . S
C580 N578 1.356 . S
C581 C575 1.363 . S
C581 C576 1.379 . S
C581 N579 1.356 . S
N582 C574 1.356 . S
N582 H588 0.984 . S
N582 H589 0.984 . S
N583 C576 1.356 . S
N583 H586 0.984 . S
N583 H587 0.985 . S
H584 N579 0.984 . S
H585 N579 0.985 . S
H586 N583 0.984 . S
H587 N583 0.985 . S
H588 N582 0.984 . S
H589 N582 0.984 . S
H590 N578 0.984 . S
H591 N578 0.985 . S
C592 C593 1.363 . S
C592 C598 1.379 . S
C592 N600 1.356 . S
C593 C592 1.363 . S
C593 C599 1.363 . S
C594 C595 1.363 . S
C594 C599 1.379 . S
C594 N601 1.356 . S
C595 C594 1.363 . S
C595 C598 1.363 . S
N596 C598 1.356 . S
N596 H608 0.984 . S
N596 H609 0.985 . S
N597 C599 1.356 . S
N597 H602 0.984 . S
N597 H603 0.985 . S
C598 C592 1.379 . S
C598 C595 1.363 . S
C598 N596 1.356 . S
C599 C593 1.363 . S
C599 C594 1.379 . S
C599 N597 1.356 . S
N600 C592 1.356 . S
N600 H606 0.984 . S
N600 H607 0.984 . S
N601 C594 1.356 . S
N601 H604 0.984 . S
N601 H605 0.985 . S
H602 N597 0.984 . S
H603 N597 0.985 . S
H604 N601 0.984 . S
H605 N601 0.985 . S
H606 N600 0.984 . S
H607 N600 0.984 . S
H608 N596 0.984 . S
H609 N596 0.985 . S
C610 C611 1.363 . S
C610 C616 1.379 . S
C610 N618 1.356 . S
C611 C610 1.363 . S
C611 C617 1.363 . S
C612 C613 1.363 . S
C612 C617 1.379 . S
C612 N619 1.356 . S
C613 C612 1.363 . S
C613 C616 1.363 . S
N614 C616 1.356 . S
N614 H626 0.984 . S
N614 H627 0.985 . S
N615 C617 1.356 . S
N615 H620 0.984 . S
N615 H621 0.985 . S
C616 C610 1.379 . S
C616 C613 1.363 . S
C616 N614 1.356 . S
C617 C611 1.363 . S
C617 C612 1.379 . S
C617 N615 1.356 . S
N618 C610 1.356 . S
N618 H624 0.984 . S
N618 H625 0.984 . S
N619 C612 1.356 . S
N619 H622 0.984 . S
N619 H623 0.985 . S
H620 N615 0.984 . S
H621 N615 0.985 . S
H622 N619 0.984 . S
H623 N619 0.985 . S
H624 N618 0.984 . S
H625 N618 0.984 . S
H626 N614 0.984 . S
H627 N614 0.985 . S
C628 C629 1.363 . S
C628 C634 1.379 . S
C628 N636 1.356 . S
C629 C628 1.363 . S
C629 C635 1.363 . S
C630 C631 1.363 . S
C630 C635 1.379 . S
C630 N637 1.356 . S
C631 C630 1.363 . S
C631 C634 1.363 . S
N632 C634 1.356 . S
N632 H644 0.984 . S
N632 H645 0.985 . S
N633 C635 1.356 . S
N633 H638 0.984 . S
N633 H639 0.985 . S
C634 C628 1.379 . S
C634 C631 1.363 . S
C634 N632 1.356 . S
C635 C629 1.363 . S
C635 C630 1.379 . S
C635 N633 1.356 . S
N636 C628 1.356 . S
N636 H642 0.984 . S
N636 H643 0.984 . S
N637 C630 1.356 . S
N637 H640 0.984 . S
N637 H641 0.985 1_455 S
H638 N633 0.984 . S
H639 N633 0.985 . S
H640 N637 0.984 . S
H641 N637 0.985 1_655 S
H642 N636 0.984 . S
H643 N636 0.984 . S
H644 N632 0.984 . S
H645 N632 0.985 . S
C646 C647 1.363 . S
C646 C652 1.379 . S
C646 N654 1.356 . S
C647 C646 1.363 . S
C647 C653 1.363 . S
C648 C649 1.363 . S
C648 C653 1.379 . S
C648 N655 1.356 . S
C649 C648 1.363 . S
C649 C652 1.363 . S
N650 C652 1.356 . S
N650 H662 0.984 . S
N650 H663 0.985 . S
N651 C653 1.356 . S
N651 H656 0.984 . S
N651 H657 0.985 . S
C652 C646 1.379 . S
C652 C649 1.363 . S
C652 N650 1.356 . S
C653 C647 1.363 . S
C653 C648 1.379 . S
C653 N651 1.356 . S
N654 C646 1.356 . S
N654 H660 0.984 . S
N654 H661 0.984 . S
N655 C648 1.356 . S
N655 H658 0.984 . S
N655 H659 0.985 . S
H656 N651 0.984 . S
H657 N651 0.985 . S
H658 N655 0.984 . S
H659 N655 0.985 . S
H660 N654 0.984 . S
H661 N654 0.984 . S
H662 N650 0.984 . S
H663 N650 0.985 . S
C233 C6 1.592 . S
C235 C154 1.582 . S
C251 C21 1.711 . S
C253 C173 1.684 . S
C271 C210 1.347 . S
C269 C49 1.334 . S
C287 C68 1.467 . S
C289 C220 1.527 . S
C307 C190 2.396 . S
C305 C2 2.324 . S
C325 C160 1.157 1_565 S
C323 C30 1.075 . S
C343 C231 1.550 . S
C341 C40 1.593 . S
C361 C201 1.377 . S
C359 C63 1.376 . S
C377 C11 1.494 . S
C379 C214 1.657 . S
C397 C181 1.893 . S
C395 C44 1.941 . S
C413 C59 1.547 . S
C415 C171 1.549 . S
C431 C25 1.450 . S
C433 C193 1.419 . S
C451 C153 1.708 . S
C449 C82 1.709 . S
C467 C101 1.613 . S
C469 C174 1.564 . S
C485 C125 1.577 . S
C487 C211 1.655 . S
C503 C144 1.319 . S
C505 C221 1.400 . S
C521 C87 1.579 . S
C523 C191 1.701 . S
C541 C161 1.963 . S
C539 C97 2.033 . S
C559 C230 1.369 . S
C557 C120 1.425 . S
C577 C200 1.384 . S
C575 C135 1.473 . S
C593 C78 1.854 . S
C595 C213 1.934 . S
C613 C180 1.417 . S
C611 C116 1.459 . S
C631 C170 1.969 . S
C629 C139 1.959 . S
C647 C106 1.179 . S
C649 C194 1.379 . S
