# Generated by pormake.
# Topology zzz, (3,6)-cn, num edge types: 1
# Building blocks:
#     Node 0, Type 0, BuildingBlock: KAKCAD_clean_linker_0, # of connection points: 3
#     Node 1, Type 0, BuildingBlock: KAKCAD_clean_linker_0, # of connection points: 3
#     Node 2, Type 0, BuildingBlock: KAKCAD_clean_linker_0, # of connection points: 3
#     Node 3, Type 0, BuildingBlock: KAKCAD_clean_linker_0, # of connection points: 3
#     Node 4, Type 0, BuildingBlock: KAKCAD_clean_linker_0, # of connection points: 3
#     Node 5, Type 0, BuildingBlock: KAKCAD_clean_linker_0, # of connection points: 3
#     Node 6, Type 0, BuildingBlock: KAKCAD_clean_linker_0, # of connection points: 3
#     Node 7, Type 0, BuildingBlock: KAKCAD_clean_linker_0, # of connection points: 3
#     Node 8, Type 1, BuildingBlock: GEDQOX_clean_sbu_0, # of connection points: 6
#     Node 9, Type 1, BuildingBlock: GEDQOX_clean_sbu_0, # of connection points: 6
#     Node 10, Type 1, BuildingBlock: GEDQOX_clean_sbu_0, # of connection points: 6
#     Node 11, Type 1, BuildingBlock: GEDQOX_clean_sbu_0, # of connection points: 6
#     Edge 12, Type (0, 1), BuildingBlock: AJUNOK_clean_linker_0, # of connection points: 2
#     Edge 13, Type (0, 1), BuildingBlock: AJUNOK_clean_linker_0, # of connection points: 2
#     Edge 14, Type (0, 1), BuildingBlock: AJUNOK_clean_linker_0, # of connection points: 2
#     Edge 15, Type (0, 1), BuildingBlock: AJUNOK_clean_linker_0, # of connection points: 2
#     Edge 16, Type (0, 1), BuildingBlock: AJUNOK_clean_linker_0, # of connection points: 2
#     Edge 17, Type (0, 1), BuildingBlock: AJUNOK_clean_linker_0, # of connection points: 2
#     Edge 18, Type (0, 1), BuildingBlock: AJUNOK_clean_linker_0, # of connection points: 2
#     Edge 19, Type (0, 1), BuildingBlock: AJUNOK_clean_linker_0, # of connection points: 2
#     Edge 20, Type (0, 1), BuildingBlock: AJUNOK_clean_linker_0, # of connection points: 2
#     Edge 21, Type (0, 1), BuildingBlock: AJUNOK_clean_linker_0, # of connection points: 2
#     Edge 22, Type (0, 1), BuildingBlock: AJUNOK_clean_linker_0, # of connection points: 2
#     Edge 23, Type (0, 1), BuildingBlock: AJUNOK_clean_linker_0, # of connection points: 2
#     Edge 24, Type (0, 1), BuildingBlock: AJUNOK_clean_linker_0, # of connection points: 2
#     Edge 25, Type (0, 1), BuildingBlock: AJUNOK_clean_linker_0, # of connection points: 2
#     Edge 26, Type (0, 1), BuildingBlock: AJUNOK_clean_linker_0, # of connection points: 2
#     Edge 27, Type (0, 1), BuildingBlock: AJUNOK_clean_linker_0, # of connection points: 2
#     Edge 28, Type (0, 1), BuildingBlock: AJUNOK_clean_linker_0, # of connection points: 2
#     Edge 29, Type (0, 1), BuildingBlock: AJUNOK_clean_linker_0, # of connection points: 2
#     Edge 30, Type (0, 1), BuildingBlock: AJUNOK_clean_linker_0, # of connection points: 2
#     Edge 31, Type (0, 1), BuildingBlock: AJUNOK_clean_linker_0, # of connection points: 2
#     Edge 32, Type (0, 1), BuildingBlock: AJUNOK_clean_linker_0, # of connection points: 2
#     Edge 33, Type (0, 1), BuildingBlock: AJUNOK_clean_linker_0, # of connection points: 2
#     Edge 34, Type (0, 1), BuildingBlock: AJUNOK_clean_linker_0, # of connection points: 2
#     Edge 35, Type (0, 1), BuildingBlock: AJUNOK_clean_linker_0, # of connection points: 2
# Relax obj value: 0.311
# Max RMSD: 0.315
# Mean RMSD: 0.196
data_MOF--net-zzz--node1-GEDQOX_clean_sbu_0--node2-KAKCAD_clean_linker_0--edge1-AJUNOK_clean_linker_0
_symmetry_space_group_name_H-M    P1
_symmetry_Int_Tables_number       1
_symmetry_cell_setting            triclinic
loop_
_symmetry_equiv_pos_as_xyz
'x, y, z'
_cell_length_a     49.736942
_cell_length_b     46.70312
_cell_length_c     18.156911
_cell_angle_alpha  79.960068
_cell_angle_beta   90.481992
_cell_angle_gamma 104.19821
loop_
_atom_site_label
_atom_site_type_symbol
_atom_site_fract_x
_atom_site_fract_y
_atom_site_fract_z
_atom_type_partial_charge
C0 C 0.82806 0.4798 0.92448 0.0
C1 C 0.85125 0.47193 0.95921 0.0
C2 C 0.80699 0.48485 0.96724 0.0
C3 C 0.80809 0.48069 0.04579 0.0
C4 C 0.82864 0.46748 0.08026 0.0
C5 C 0.85027 0.4637 0.03757 0.0
C6 C 0.79114 0.49444 0.09023 0.0
C7 C 0.76476 0.49775 0.0681 0.0
C8 C 0.75089 0.51494 0.10342 0.0
C9 C 0.76335 0.52791 0.16384 0.0
C10 C 0.78909 0.52364 0.18861 0.0
C11 C 0.80289 0.50738 0.151 0.0
C12 C 0.80277 0.53671 0.25212 0.0
C13 C 0.80888 0.56778 0.2513 0.0
C14 C 0.81287 0.51831 0.30958 0.0
C15 C 0.82994 0.53079 0.36301 0.0
C16 C 0.83748 0.562 0.35994 0.0
C17 C 0.72364 0.51958 0.07624 0.0
C18 C 0.71831 0.52313 0.9993 0.0
C19 C 0.70259 0.52008 0.12686 0.0
C20 C 0.67684 0.52367 0.10131 0.0
C21 C 0.67138 0.52662 0.02459 0.0
C22 C 0.69243 0.52634 0.97387 0.0
C23 C 0.82623 0.58037 0.30473 0.0
H24 H 0.82728 0.48453 0.86408 0.0
H25 H 0.79126 0.49435 0.93808 0.0
H26 H 0.82936 0.46231 0.14063 0.0
H27 H 0.86737 0.45684 0.06665 0.0
H28 H 0.75504 0.48702 0.02304 0.0
H29 H 0.82361 0.50618 0.16756 0.0
H30 H 0.75323 0.54145 0.1914 0.0
H31 H 0.80144 0.58242 0.20721 0.0
H32 H 0.80839 0.49428 0.3114 0.0
H33 H 0.83836 0.51608 0.40467 0.0
H34 H 0.73413 0.52336 0.95843 0.0
H35 H 0.70576 0.51707 0.1865 0.0
H36 H 0.83143 0.60447 0.30175 0.0
H37 H 0.68875 0.52791 0.91461 0.0
H38 H 0.66106 0.52389 0.14181 0.0
C39 C 0.06492 0.855 0.11865 0.0
C40 C 0.04641 0.86255 0.06408 0.0
C41 C 0.05892 0.82652 0.16324 0.0
C42 C 0.03477 0.80494 0.15235 0.0
C43 C 0.01757 0.81154 0.09367 0.0
C44 C 0.02324 0.84018 0.05015 0.0
C45 C 0.02525 0.77748 0.2085 0.0
C46 C 0.01898 0.7492 0.18802 0.0
C47 C 0.0078 0.72327 0.24103 0.0
C48 C 0.002 0.72605 0.31533 0.0
C49 C 0.00786 0.7548 0.33543 0.0
C50 C 0.01995 0.78008 0.28203 0.0
C51 C 1.00003 0.76061 0.40892 0.0
C52 C 0.97364 0.76551 0.41876 0.0
C53 C 0.02116 0.77143 0.4562 0.0
C54 C 0.01669 0.78902 0.50777 0.0
C55 C 0.99104 0.79636 0.51281 0.0
C56 C 0.00329 0.69391 0.21606 0.0
C57 C 0.98671 0.68852 0.15444 0.0
C58 C 0.0199 0.67424 0.24249 0.0
C59 C 0.02137 0.65088 0.20467 0.0
C60 C 0.00621 0.64672 0.13979 0.0
C61 C 0.98797 0.66505 0.11711 0.0
C62 C 0.96917 0.78325 0.47013 0.0
H63 H 0.0834 0.87147 0.12898 0.0
H64 H 0.0725 0.82167 0.20814 0.0
H65 H 0.99872 0.79522 0.0849 0.0
H66 H 0.00852 0.84528 0.0087 0.0
H67 H 0.02315 0.74737 0.13069 0.0
H68 H 0.02397 0.80223 0.29697 0.0
H69 H 0.99276 0.70631 0.3563 0.0
H70 H 0.95727 0.75824 0.38138 0.0
H71 H 0.04187 0.76863 0.4484 0.0
H72 H 0.03389 0.79855 0.54022 0.0
H73 H 0.97379 0.70346 0.13286 0.0
H74 H 0.0332 0.67821 0.2891 0.0
H75 H 0.94929 0.78877 0.47154 0.0
H76 H 0.97528 0.66185 0.06903 0.0
H77 H 0.03554 0.63709 0.22391 0.0
C78 C 0.70333 0.05019 0.93798 0.0
C79 C 0.69428 0.07611 0.94312 0.0
C80 C 0.72467 0.04294 0.98189 0.0
C81 C 0.73689 0.06102 0.03312 0.0
C82 C 0.72899 0.08764 0.03603 0.0
C83 C 0.70808 0.09534 0.99068 0.0
C84 C 0.75459 0.04964 0.0906 0.0
C85 C 0.77961 0.04392 0.07081 0.0
C86 C 0.79524 0.03057 0.12539 0.0
C87 C 0.78459 0.02153 0.19988 0.0
C88 C 0.75936 0.02715 0.21978 0.0
C89 C 0.74482 0.04168 0.16508 0.0
C90 C 0.74657 0.01647 0.29592 0.0
C91 C 0.73871 0.98562 0.32529 0.0
C92 C 0.73775 0.03659 0.33338 0.0
C93 C 0.71978 0.02596 0.39612 0.0
C94 C 0.71006 0.99498 0.42211 0.0
C95 C 0.82262 0.02653 0.10352 0.0
C96 C 0.83104 1.00018 0.13175 0.0
C97 C 0.8404 0.04916 0.05229 0.0
C98 C 0.86553 0.04525 0.02806 0.0
C99 C 0.87362 0.0187 0.05469 0.0
C100 C 0.85644 0.99636 0.10773 0.0
C101 C 0.72046 0.97491 0.38789 0.0
H102 H 0.69267 0.03426 0.9042 0.0
H103 H 0.7302 0.02204 0.97985 0.0
H104 H 0.73819 0.1018 0.07557 0.0
H105 H 0.70174 0.11552 0.99569 0.0
H106 H 0.78672 0.04966 0.01258 0.0
H107 H 0.72496 0.04531 0.17975 0.0
H108 H 0.79604 0.01075 0.24251 0.0
H109 H 0.74509 0.96969 0.29683 0.0
H110 H 0.7435 0.06046 0.31147 0.0
H111 H 0.71204 0.04191 0.42126 0.0
H112 H 0.81777 0.98227 0.17102 0.0
H113 H 0.83494 0.07006 0.03095 0.0
H114 H 0.71349 0.95094 0.40747 0.0
H115 H 0.86241 0.97578 0.1294 0.0
H116 H 0.87881 0.06316 0.98872 0.0
C117 C 0.53135 0.71041 0.53026 0.0
C118 C 0.54623 0.70919 0.59631 0.0
C119 C 0.53524 0.73722 0.47867 0.0
C120 C 0.55436 0.7634 0.4914 0.0
C121 C 0.56808 0.76269 0.55946 0.0
C122 C 0.56385 0.73584 0.6119 0.0
C123 C 0.5656 0.78716 0.42586 0.0
C124 C 0.55691 0.8141 0.40761 0.0
C125 C 0.56617 0.83374 0.33908 0.0
C126 C 0.58324 0.82576 0.28906 0.0
C127 C 0.59036 0.79821 0.30468 0.0
C128 C 0.5826 0.77987 0.37465 0.0
C129 C 0.59839 0.78449 0.2432 0.0
C130 C 0.58258 0.78475 0.17858 0.0
C131 C 0.61535 0.76421 0.25712 0.0
C132 C 0.61251 0.74119 0.21559 0.0
C133 C 0.59272 0.73836 0.15994 0.0
C134 C 0.55531 0.86037 0.31114 0.0
C135 C 0.5283 0.85635 0.28432 0.0
C136 C 0.57389 0.88879 0.29288 0.0
C137 C 0.56606 0.91236 0.24613 0.0
C138 C 0.53973 0.90772 0.215 0.0
C139 C 0.52063 0.87976 0.23626 0.0
C140 C 0.57975 0.76178 0.13727 0.0
H141 H 0.51766 0.69022 0.51689 0.0
H142 H 0.52496 0.73693 0.42584 0.0
H143 H 0.58354 0.78228 0.56962 0.0
H144 H 0.57572 0.73544 0.66219 0.0
H145 H 0.54254 0.81922 0.44481 0.0
H146 H 0.58731 0.75808 0.38667 0.0
H147 H 0.58884 0.83983 0.23452 0.0
H148 H 0.56935 0.80012 0.16572 0.0
H149 H 0.62826 0.76398 0.30546 0.0
H150 H 0.6234 0.72379 0.23248 0.0
H151 H 0.51385 0.83445 0.29583 0.0
H152 H 0.59508 0.89213 0.31082 0.0
H153 H 0.56462 0.76034 0.09391 0.0
H154 H 0.50015 0.87568 0.21324 0.0
H155 H 0.5812 0.93364 0.2304 0.0
C156 C 0.20567 0.60564 0.66821 0.0
C157 C 0.19204 0.58611 0.73226 0.0
C158 C 0.22587 0.59779 0.62825 0.0
C159 C 0.23332 0.57072 0.65291 0.0
C160 C 0.2214 0.55233 0.71972 0.0
C161 C 0.20072 0.55972 0.75853 0.0
C162 C 0.25021 0.55927 0.60434 0.0
C163 C 0.2758 0.55414 0.62723 0.0
C164 C 0.29026 0.53978 0.58509 0.0
C165 C 0.27825 0.52958 0.52083 0.0
C166 C 0.25269 0.53504 0.4971 0.0
C167 C 0.23905 0.55027 0.53862 0.0
C168 C 0.23902 0.52378 0.43142 0.0
C169 C 0.2306 0.54365 0.37393 0.0
C170 C 0.23118 0.49284 0.43046 0.0
C171 C 0.21396 0.48186 0.37493 0.0
C172 C 0.20486 0.50172 0.31873 0.0
C173 C 0.31795 0.5359 0.60858 0.0
C174 C 0.33799 0.56033 0.62689 0.0
C175 C 0.32444 0.50796 0.6143 0.0
C176 C 0.35044 0.5045 0.63871 0.0
C177 C 0.37043 0.52904 0.65671 0.0
C178 C 0.36401 0.55697 0.65023 0.0
C179 C 0.21385 0.53274 0.31778 0.0
H180 H 0.19965 0.6262 0.64668 0.0
H181 H 0.23485 0.61219 0.57651 0.0
H182 H 0.22661 0.53112 0.7389 0.0
H183 H 0.19019 0.54352 0.80583 0.0
H184 H 0.28424 0.56093 0.67855 0.0
H185 H 0.2189 0.55369 0.52195 0.0
H186 H 0.28898 0.51808 0.48849 0.0
H187 H 0.23625 0.56758 0.37393 0.0
H188 H 0.23714 0.47711 0.47483 0.0
H189 H 0.20715 0.45785 0.37692 0.0
H190 H 0.33361 0.58216 0.62243 0.0
H191 H 0.30929 0.48875 0.6009 0.0
H192 H 0.2068 0.54847 0.27566 0.0
H193 H 0.37914 0.57622 0.66361 0.0
H194 H 0.35509 0.48283 0.64252 0.0
C195 C 0.98591 0.21911 0.60818 0.0
C196 C 0.00803 0.20604 0.62915 0.0
C197 C 0.99103 0.24754 0.56303 0.0
C198 C 0.01822 0.2628 0.53802 0.0
C199 C 0.0403 0.24994 0.56 0.0
C200 C 0.03526 0.22185 0.60569 0.0
C201 C 0.02356 0.29064 0.48273 0.0
C202 C 0.02288 0.31783 0.50332 0.0
C203 C 0.02903 0.34476 0.45047 0.0
C204 C 0.03653 0.34377 0.37572 0.0
C205 C 0.03699 0.31599 0.35531 0.0
C206 C 0.03057 0.28983 0.40938 0.0
C207 C 0.04428 0.31208 0.27938 0.0
C208 C 0.02335 0.29564 0.23982 0.0
C209 C 0.07209 0.31368 0.2615 0.0
C210 C 0.07862 0.29635 0.21164 0.0
C211 C 0.05742 0.27672 0.1798 0.0
C212 C 0.02784 0.37317 0.47652 0.0
C213 C 0.00768 0.37238 0.53132 0.0
C214 C 0.04798 0.40028 0.45361 0.0
C215 C 0.04878 0.42527 0.48797 0.0
C216 C 0.02981 0.42353 0.54703 0.0
C217 C 0.00893 0.39684 0.56678 0.0
C218 C 0.02983 0.2781 0.19065 0.0
H219 H 0.96479 0.20726 0.62613 0.0
H220 H 0.97377 0.25717 0.54565 0.0
H221 H 0.06136 0.26138 0.54041 0.0
H222 H 0.05259 0.21204 0.62097 0.0
H223 H 0.01826 0.31791 0.5615 0.0
H224 H 0.03125 0.26851 0.39427 0.0
H225 H 0.04146 0.36406 0.33393 0.0
H226 H 0.00172 0.29352 0.25372 0.0
H227 H 0.0886 0.32574 0.29206 0.0
H228 H 0.10017 0.29662 0.20248 0.0
H229 H 0.99125 0.35231 0.54899 0.0
H230 H 0.06373 0.40189 0.41123 0.0
H231 H 0.01296 0.26346 0.16689 0.0
H232 H 0.99386 0.39432 0.61163 0.0
H233 H 0.06449 0.44577 0.46865 0.0
C234 C 0.33759 0.97878 0.72906 0.0
C235 C 0.35305 0.99694 0.7766 0.0
C236 C 0.31731 0.98859 0.68486 0.0
C237 C 0.31194 0.0164 0.68869 0.0
C238 C 0.32579 0.0335 0.73989 0.0
C239 C 0.34631 0.02399 0.78312 0.0
C240 C 0.29629 0.03037 0.63017 0.0
C241 C 0.26887 0.03109 0.64325 0.0
C242 C 0.25505 0.04664 0.58827 0.0
C243 C 0.26908 0.06167 0.51999 0.0
C244 C 0.29677 0.06113 0.50707 0.0
C245 C 0.31006 0.04524 0.56238 0.0
C246 C 0.31233 0.07623 0.43603 0.0
C247 C 0.30205 0.06936 0.36729 0.0
C248 C 0.33951 0.09396 0.43804 0.0
C249 C 0.35694 0.10232 0.3741 0.0
C250 C 0.34756 0.09304 0.3069 0.0
C251 C 0.22616 0.04745 0.60389 0.0
C252 C 0.20617 0.02064 0.63002 0.0
C253 C 0.21881 0.07495 0.59756 0.0
C254 C 0.19203 0.07561 0.6189 0.0
C255 C 0.17217 0.04876 0.64535 0.0
C256 C 0.17935 0.02128 0.65012 0.0
C257 C 0.31957 0.07772 0.30308 0.0
H258 H 0.34231 0.95787 0.7228 0.0
H259 H 0.30697 0.97534 0.64473 0.0
H260 H 0.32224 0.05532 0.74226 0.0
H261 H 0.35832 0.03909 0.81702 0.0
H262 H 0.25851 0.02007 0.69668 0.0
H263 H 0.33138 0.04452 0.55293 0.0
H264 H 0.25857 0.07374 0.47741 0.0
H265 H 0.28117 0.05573 0.36433 0.0
H266 H 0.3478 0.09982 0.49031 0.0
H267 H 0.37836 0.11418 0.37873 0.0
H268 H 0.21138 0.99918 0.63532 0.0
H269 H 0.234 0.0959 0.57824 0.0
H270 H 0.31167 0.07083 0.25147 0.0
H271 H 0.16431 1.00034 0.67072 0.0
H272 H 0.1868 0.09701 0.61478 0.0
C273 C 0.45733 0.32024 0.07861 0.0
C274 C 0.48332 0.34102 0.07468 0.0
C275 C 0.45136 0.29414 0.13335 0.0
C276 C 0.47126 0.28809 0.18546 0.0
C277 C 0.4979 0.30762 0.17789 0.0
C278 C 0.50382 0.33386 0.12357 0.0
C279 C 0.46227 0.2676 0.25824 0.0
C280 C 0.4769 0.24647 0.29134 0.0
C281 C 0.47182 0.2332 0.36765 0.0
C282 C 0.45329 0.24254 0.41052 0.0
C283 C 0.43972 0.26465 0.37938 0.0
C284 C 0.44234 0.27458 0.30165 0.0
C285 C 0.4299 0.28276 0.4292 0.0
C286 C 0.42338 0.27115 0.50587 0.0
C287 C 0.43409 0.31399 0.4052 0.0
C288 C 0.43692 0.33312 0.45697 0.0
C289 C 0.43611 0.32158 0.53365 0.0
C290 C 0.48727 0.21177 0.4073 0.0
C291 C 0.49958 0.21694 0.47548 0.0
C292 C 0.48607 0.18417 0.38488 0.0
C293 C 0.49535 0.16155 0.43217 0.0
C294 C 0.50582 0.16618 0.50267 0.0
C295 C 0.50848 0.19437 0.52279 0.0
C296 C 0.42714 0.29049 0.55802 0.0
H297 H 0.44115 0.32486 0.04152 0.0
H298 H 0.43052 0.27974 0.13846 0.0
H299 H 0.51342 0.30408 0.21838 0.0
H300 H 0.52386 0.34953 0.12358 0.0
H301 H 0.49281 0.24141 0.25906 0.0
H302 H 0.43134 0.29087 0.27595 0.0
H303 H 0.45127 0.23393 0.47001 0.0
H304 H 0.41823 0.24723 0.52668 0.0
H305 H 0.43885 0.32452 0.34739 0.0
H306 H 0.44352 0.35709 0.43664 0.0
H307 H 0.50107 0.23809 0.49401 0.0
H308 H 0.4765 0.17945 0.33308 0.0
H309 H 0.42565 0.28113 0.61722 0.0
H310 H 0.51678 0.19868 0.57625 0.0
H311 H 0.49302 0.13996 0.41537 0.0
Nd312 Nd 0.00704 0.01843 0.79509 0.0
Nd313 Nd 0.03952 0.04935 0.91144 0.0
C314 C 0.97446 0.97915 0.7231 0.0
C315 C 0.97637 0.951 0.69937 0.0
C316 C 0.95368 0.9339 0.66704 0.0
C317 C 0.95563 0.90761 0.64239 0.0
C318 C 0.98031 0.89784 0.64994 0.0
C319 C 0.00294 0.91501 0.683 0.0
C320 C 0.00098 0.94131 0.70749 0.0
C321 C 0.06155 0.04434 0.75108 0.0
C322 C 0.03951 0.98099 0.92305 0.0
C323 C 0.07071 0.08873 0.98587 0.0
C324 C 0.06956 0.11727 0.0103 0.0
C325 C 0.07369 0.14453 0.95925 0.0
C326 C 0.07307 0.17124 0.98394 0.0
C327 C 0.06853 0.17139 0.06024 0.0
C328 C 0.064 0.14403 0.11089 0.0
C329 C 0.06472 0.11742 0.08635 0.0
C330 C 0.9844 0.02326 0.95173 0.0
C331 C 0.00906 0.0876 0.78184 0.0
O332 O 0.97207 0.97827 0.79523 0.0
O333 O 0.99184 1.00362 0.68936 0.0
O334 O 0.04085 0.04391 0.70715 0.0
O335 O 0.05329 0.03037 0.81606 0.0
O336 O 0.01886 0.9801 0.87666 0.0
O337 O 0.05438 0.00652 0.93889 0.0
O338 O 0.0744 0.08929 0.91429 0.0
O339 O 0.053 0.06428 0.01852 0.0
O340 O 0.0045 0.02306 0.99753 0.0
O341 O 0.99367 0.03799 0.88855 0.0
O342 O 0.03006 0.08773 0.8266 0.0
O343 O 0.99316 0.0622 0.76782 0.0
H344 H 0.93456 0.94109 0.6599 0.0
H345 H 0.93803 0.89537 0.61565 0.0
H346 H 0.02222 0.90814 0.68973 0.0
H347 H 0.01878 0.95426 0.7321 0.0
H348 H 0.07753 0.14533 0.90022 0.0
H349 H 0.07656 0.19188 0.94345 0.0
H350 H 0.05966 0.14311 0.16972 0.0
H351 H 0.06144 0.09686 0.1271 0.0
Nd352 Nd 0.52985 0.01372 0.80765 0.0
Nd353 Nd 0.51776 0.05707 0.89918 0.0
C354 C 0.54071 0.97066 0.74471 0.0
C355 C 0.56523 0.97064 0.70027 0.0
C356 C 0.57061 0.9437 0.68809 0.0
C357 C 0.59474 0.94416 0.64805 0.0
C358 C 0.61375 0.9716 0.61998 0.0
C359 C 0.60819 0.99843 0.63263 0.0
C360 C 0.58424 0.99795 0.67257 0.0
C361 C 0.52913 0.06882 0.7234 0.0
C362 C 0.58223 0.06206 0.85264 0.0
C363 C 0.50779 0.10081 0.96076 0.0
C364 C 0.48512 0.10197 0.01129 0.0
C365 C 0.47027 0.12407 0.99284 0.0
C366 C 0.44711 0.12362 0.0368 0.0
C367 C 0.43838 0.10096 0.09973 0.0
C368 C 0.45384 0.07947 0.11939 0.0
C369 C 0.4768 0.0798 0.07537 0.0
C370 C 0.51774 1.00181 0.98352 0.0
C371 C 0.46534 0.00803 0.85608 0.0
O372 O 0.54519 0.9726 0.81488 0.0
O373 O 0.52559 0.98848 0.7137 0.0
O374 O 0.54676 0.05352 0.71257 0.0
O375 O 0.51228 0.05468 0.77679 0.0
O376 O 0.574 0.03542 0.83394 0.0
O377 O 0.56445 0.07667 0.87112 0.0
O378 O 0.50073 0.09713 0.89285 0.0
O379 O 0.52477 0.08461 0.9885 0.0
O380 O 0.50133 0.01815 0.99667 0.0
O381 O 0.53479 0.01576 0.93037 0.0
O382 O 0.47352 0.03439 0.87645 0.0
O383 O 0.48307 0.99399 0.83436 0.0
H384 H 0.55629 0.9224 0.70992 0.0
H385 H 0.59868 0.92314 0.63964 0.0
H386 H 0.62225 0.01989 0.61075 0.0
H387 H 0.58059 0.01897 0.68196 0.0
H388 H 0.47623 0.14128 0.94346 0.0
H389 H 0.43562 0.14052 0.02061 0.0
H390 H 0.44809 0.06223 0.16876 0.0
H391 H 0.48773 0.06236 0.091 0.0
Nd392 Nd 0.50592 0.53159 0.89877 0.0
Nd393 Nd 0.53565 0.52116 0.77608 0.0
C394 C 0.48002 0.55339 0.9927 0.0
C395 C 0.49298 0.57809 0.03228 0.0
C396 C 0.48739 0.60639 0.01121 0.0
C397 C 0.50418 0.63153 0.03501 0.0
C398 C 0.52669 0.62872 0.08053 0.0
C399 C 0.53142 0.60026 0.10469 0.0
C400 C 0.51471 0.57517 0.08103 0.0
C401 C 0.55979 0.5303 0.93197 0.0
C402 C 0.53694 0.5892 0.76993 0.0
C403 C 0.56235 0.49817 0.68649 0.0
C404 C 0.55148 0.46896 0.6624 0.0
C405 C 0.5488 0.44203 0.71377 0.0
C406 C 0.53021 0.41567 0.70176 0.0
C407 C 0.51459 0.41567 0.63706 0.0
C408 C 0.51958 0.44172 0.58197 0.0
C409 C 0.53791 0.4681 0.59439 0.0
C410 C 0.48185 0.52272 0.74296 0.0
C411 C 0.50359 0.46358 0.9033 0.0
O412 O 0.479 0.56104 0.92015 0.0
O413 O 0.48786 0.52847 0.01184 0.0
O414 O 0.53863 0.51772 0.97691 0.0
O415 O 0.55262 0.54383 0.87174 0.0
O416 O 0.51569 0.57761 0.81809 0.0
O417 O 0.55244 0.57207 0.75222 0.0
O418 O 0.56778 0.49723 0.75738 0.0
O419 O 0.549 0.51857 0.66187 0.0
O420 O 0.50306 0.53543 0.69809 0.0
O421 O 0.48897 0.50902 0.80309 0.0
O422 O 0.52544 0.4753 0.85735 0.0
O423 O 0.48766 0.48079 0.91782 0.0
H424 H 0.47097 0.60931 0.97322 0.0
H425 H 0.49998 0.6533 0.01649 0.0
H426 H 0.54878 0.59757 0.13935 0.0
H427 H 0.51986 0.55381 0.09791 0.0
H428 H 0.55959 0.4418 0.76567 0.0
H429 H 0.52696 0.39584 0.74491 0.0
H430 H 0.50837 0.44202 0.53052 0.0
H431 H 0.53983 0.48836 0.55319 0.0
Nd432 Nd 0.01895 0.56378 0.77916 0.0
Nd433 Nd 0.02938 0.51073 0.89863 0.0
C434 C 0.99793 0.60484 0.69582 0.0
C435 C 0.97369 0.60189 0.64838 0.0
C436 C 0.96521 0.62724 0.61301 0.0
C437 C 0.94208 0.62392 0.56767 0.0
C438 C 0.92711 0.59518 0.55785 0.0
C439 C 0.93566 0.56993 0.59386 0.0
C440 C 0.95883 0.57327 0.63827 0.0
C441 C 0.0327 0.51779 0.72306 0.0
C442 C 0.96581 0.50757 0.85426 0.0
C443 C 0.0495 0.4658 0.96297 0.0
C444 C 0.0711 0.4644 0.01922 0.0
C445 C 0.09509 0.45567 1.0021 0.0
C446 C 0.11726 0.45801 0.05067 0.0
C447 C 0.1158 0.46908 0.11736 0.0
C448 C 0.09139 0.47671 0.13575 0.0
C449 C 0.06934 0.47454 0.08714 0.0
C450 C 0.02497 0.55691 0.97167 0.0
C451 C 0.08035 0.56967 0.83115 0.0
O452 O 0.99241 0.5961 0.76766 0.0
O453 O 0.01831 0.59511 0.67278 0.0
O454 O 0.04168 0.54593 0.69404 0.0
O455 O 0.01636 0.51467 0.77829 0.0
O456 O 0.9751 0.53456 0.81336 0.0
O457 O 0.98272 0.4921 0.88854 0.0
O458 O 0.05842 0.48161 0.89689 0.0
O459 O 0.02606 0.47022 0.98553 0.0
O460 O 0.02855 0.53138 0.00547 0.0
O461 O 0.02353 0.55661 0.90252 0.0
O462 O 0.07241 0.54045 0.85616 0.0
O463 O 0.06259 0.58588 0.80872 0.0
H464 H 0.97649 0.6495 0.62028 0.0
H465 H 0.93579 0.64371 0.54072 0.0
H466 H 0.92465 0.54756 0.58663 0.0
H467 H 0.96521 0.55345 0.66469 0.0
H468 H 0.09701 0.44788 0.95002 0.0
H469 H 0.13569 0.45159 0.0356 0.0
H470 H 0.08975 0.48548 0.18653 0.0
H471 H 0.0513 0.48175 0.10184 0.0
C472 C 0.13991 0.06258 0.7301 0.0
C473 C 0.14394 0.04915 0.66885 0.0
C474 C 0.11306 0.06109 0.75661 0.0
C475 C 0.08959 0.04683 0.72128 0.0
H476 H 0.1576 0.07357 0.75884 0.0
H477 H 0.11063 0.0711 0.80488 0.0
S478 S 0.08925 0.00828 0.55892 0.0
N479 N 0.12246 0.02105 0.57412 0.0
N480 N 0.07207 0.01886 0.62244 0.0
C481 C 0.09343 0.03376 0.65928 0.0
C482 C 0.12064 0.03477 0.6334 0.0
C483 C 0.49919 0.1332 0.62941 0.0
C484 C 0.51232 0.14134 0.5577 0.0
C485 C 0.50483 0.10987 0.68266 0.0
C486 C 0.52419 0.09408 0.66687 0.0
H487 H 0.48413 0.14473 0.64414 0.0
H488 H 0.49388 0.10417 0.73658 0.0
S489 S 0.56491 0.10748 0.48799 0.0
N490 N 0.54576 0.13212 0.47403 0.0
N491 N 0.55691 0.0888 0.57409 0.0
C492 C 0.53776 0.10234 0.59559 0.0
C493 C 0.53165 0.12577 0.54102 0.0
C494 C 0.4219 0.54526 0.6392 0.0
C495 C 0.39843 0.52613 0.67956 0.0
C496 C 0.4487 0.54368 0.66014 0.0
C497 C 0.45309 0.52318 0.72288 0.0
H498 H 0.4195 0.56152 0.59075 0.0
H499 H 0.46615 0.55891 0.62721 0.0
S500 S 0.39845 0.46851 0.84819 0.0
N501 N 0.3811 0.48615 0.7853 0.0
N502 N 0.43166 0.48342 0.82555 0.0
C503 C 0.42979 0.50397 0.76405 0.0
C504 C 0.40241 0.50534 0.74206 0.0
C505 C 0.00685 0.45454 0.61482 0.0
C506 C 0.03148 0.44877 0.58954 0.0
C507 C 0.00744 0.47629 0.65969 0.0
C508 C 0.03267 0.49384 0.67954 0.0
H509 H 0.98678 0.4422 0.59974 0.0
H510 H 0.98797 0.47985 0.67763 0.0
S511 S 0.10307 0.4883 0.63043 0.0
N512 N 0.08204 0.46236 0.59137 0.0
N513 N 0.08284 0.5046 0.67129 0.0
C514 C 0.05744 0.48902 0.65397 0.0
C515 C 0.05694 0.46625 0.60995 0.0
C516 C 0.92074 0.00969 0.07871 0.0
C517 C 0.90038 0.01508 0.02767 0.0
C518 C 0.94766 0.01084 0.05362 0.0
C519 C 0.95503 0.01737 0.9767 0.0
H520 H 0.91623 0.00604 0.13837 0.0
H521 H 0.96307 0.00789 0.09487 0.0
S522 S 0.90785 0.02834 0.82067 0.0
N523 N 0.88836 0.02368 0.8971 0.0
N524 N 0.93882 0.02573 0.84983 0.0
C525 C 0.93428 0.02073 0.92522 0.0
C526 C 0.90698 0.01966 0.95075 0.0
C527 C 0.53406 0.95998 0.17088 0.0
C528 C 0.53318 0.9312 0.15592 0.0
C529 C 0.52873 0.98262 0.11488 0.0
C530 C 0.52309 0.97753 0.04149 0.0
H531 H 0.53876 0.96494 0.22635 0.0
H532 H 0.52944 1.00442 0.1288 0.0
S533 S 0.51856 0.90632 0.97326 0.0
N534 N 0.52606 0.89892 0.06231 0.0
N535 N 0.5166 0.94167 0.95716 0.0
C536 C 0.52228 0.94899 0.02575 0.0
C537 C 0.52717 0.92578 0.08296 0.0
C538 C 0.6197 0.50869 0.0376 0.0
C539 C 0.64327 0.52835 0.99857 0.0
C540 C 0.59292 0.50959 0.01513 0.0
C541 C 0.58855 0.53002 0.95234 0.0
H542 H 0.62194 0.4922 0.08569 0.0
H543 H 0.57547 0.49394 0.04713 0.0
S544 S 0.64302 0.58689 0.83159 0.0
N545 N 0.6604 0.56952 0.89488 0.0
N546 N 0.60986 0.57059 0.85151 0.0
C547 C 0.61181 0.54971 0.91223 0.0
C548 C 0.6392 0.549 0.93558 0.0
C549 C 0.01122 0.59517 0.13069 0.0
C550 C 0.01028 0.62411 0.09469 0.0
C551 C 0.01595 0.57382 0.09006 0.0
C552 C 0.01988 0.58038 0.01159 0.0
H553 H 0.00815 0.58888 0.1909 0.0
H554 H 0.01644 0.55187 0.1207 0.0
S555 S 0.02089 0.65321 0.89027 0.0
N556 N 0.01487 0.65855 0.97555 0.0
N557 N 0.02331 0.61813 0.89951 0.0
C558 C 0.01907 0.60916 0.97467 0.0
C559 C 0.01435 0.63105 0.01607 0.0
C560 C 0.01782 0.17139 0.73975 0.0
C561 C 0.00334 0.17563 0.67384 0.0
C562 C 0.01816 0.14264 0.77622 0.0
C563 C 0.00424 0.11697 0.74775 0.0
H564 H 0.02987 0.19055 0.76168 0.0
H565 H 0.03033 0.14071 0.82576 0.0
S566 S 0.96114 0.11623 0.58005 0.0
N567 N 0.97301 0.15219 0.58407 0.0
N568 N 0.97363 0.09771 0.65277 0.0
C569 C 0.98821 0.12084 0.68431 0.0
C570 C 0.9878 0.15032 0.64722 0.0
C571 C 0.39826 0.98381 0.7619 0.0
C572 C 0.37916 0.99089 0.80837 0.0
C573 C 0.42593 0.98633 0.78162 0.0
C574 C 0.43542 0.9964 0.84786 0.0
H575 H 0.39253 0.9788 0.70702 0.0
H576 H 0.44044 0.98307 0.74157 0.0
S577 S 0.39257 0.01076 0.99657 0.0
N578 N 0.3706 1.0025 0.93023 0.0
N579 N 0.423 0.0086 0.96555 0.0
C580 C 0.41605 1.00055 0.89817 0.0
C581 C 0.38779 0.99743 0.87885 0.0
C582 C 0.4462 0.36967 0.58187 0.0
C583 C 0.45168 0.34153 0.5826 0.0
C584 C 0.46615 0.39309 0.60406 0.0
C585 C 0.49231 0.38919 0.62723 0.0
H586 H 0.42722 0.37424 0.55872 0.0
H587 H 0.46162 0.41486 0.59938 0.0
S588 S 0.51572 0.31888 0.64637 0.0
N589 N 0.48407 0.31021 0.61477 0.0
N590 N 0.52166 0.35438 0.65602 0.0
C591 C 0.49716 0.3605 0.6341 0.0
C592 C 0.47677 0.33658 0.61194 0.0
C593 C 0.14591 0.59822 0.71361 0.0
C594 C 0.16586 0.59018 0.76332 0.0
C595 C 0.11849 0.59465 0.73817 0.0
C596 C 0.11001 0.58248 0.81291 0.0
H597 H 0.15075 0.60493 0.65411 0.0
H598 H 0.10334 0.59876 0.697 0.0
S599 S 0.15491 0.56444 0.96861 0.0
N600 N 0.17608 0.57521 0.89385 0.0
N601 N 0.12393 0.56669 0.93862 0.0
C602 C 0.13003 0.57697 0.86446 0.0
C603 C 0.15815 0.58132 0.84 0.0
C604 C 0.04391 0.9004 0.95013 0.0
C605 C 0.04934 0.89409 0.02662 0.0
C606 C 0.04183 0.92902 0.9163 0.0
C607 C 0.04562 0.95248 0.95736 0.0
H608 H 0.0403 0.88282 0.91671 0.0
H609 H 0.03662 0.93262 0.85792 0.0
S610 S 0.06107 0.94824 0.15826 0.0
N611 N 0.05881 0.91403 0.14218 0.0
N612 N 0.05605 0.96817 0.0772 0.0
C613 C 0.05248 0.94704 0.03268 0.0
C614 C 0.0541 0.91774 0.06768 0.0
C615 C 0.64781 0.08714 0.95265 0.0
C616 C 0.66783 0.08013 0.90904 0.0
C617 C 0.62041 0.08404 0.93012 0.0
C618 C 0.61199 0.07336 0.8639 0.0
H619 H 0.65267 0.09283 0.00736 0.0
H620 H 0.60528 0.08757 0.96795 0.0
S621 S 0.65729 0.05832 0.72188 0.0
N622 N 0.67825 0.06752 0.78964 0.0
N623 N 0.62628 0.06017 0.7494 0.0
C624 C 0.63215 0.06883 0.81662 0.0
C625 C 0.6602 0.07261 0.83867 0.0
C626 C 0.5746 0.70658 0.0641 0.0
C627 C 0.58033 0.70881 0.13914 0.0
C628 C 0.5576 0.68035 0.04538 0.0
C629 C 0.54572 0.65556 0.10111 0.0
H630 H 0.58253 0.72561 0.01993 0.0
H631 H 0.55335 0.67961 0.98703 0.0
S632 S 0.5538 0.65015 0.30576 0.0
N633 N 0.57259 0.68396 0.26946 0.0
N634 N 0.54083 0.63471 0.2339 0.0
C635 C 0.55188 0.65717 0.17602 0.0
C636 C 0.56917 0.68378 0.19513 0.0
C637 C 0.89633 0.4588 0.93726 0.0
C638 C 0.87821 0.47758 0.91707 0.0
C639 C 0.92433 0.46773 0.91289 0.0
C640 C 0.93528 0.4957 0.86676 0.0
H641 H 0.8892 0.43768 0.97546 0.0
H642 H 0.93772 0.4532 0.93348 0.0
S643 S 0.89565 0.55139 0.78849 0.0
N644 N 0.87285 0.52438 0.84216 0.0
N645 N 0.92476 0.54041 0.79388 0.0
C646 C 0.91676 0.51344 0.84052 0.0
C647 C 0.88841 0.50456 0.86615 0.0
C648 C 0.04989 0.24456 0.07929 0.0
C649 C 0.06325 0.25202 0.14464 0.0
C650 C 0.0524 0.21908 0.05095 0.0
C651 C 0.06814 0.19981 0.08718 0.0
H652 H 0.03694 0.25821 0.05058 0.0
H653 H 0.04112 0.21387 1.00172 0.0
S654 S 0.10835 0.20986 0.25799 0.0
N655 N 0.09339 0.23813 0.24367 0.0
N656 N 0.0987 0.19107 0.18924 0.0
C657 C 0.08234 0.20756 0.15105 0.0
C658 C 0.07979 0.23343 0.17993 0.0
C659 C 0.38784 0.12321 0.22148 0.0
C660 C 0.36804 0.0959 0.24532 0.0
C661 C 0.40996 0.12504 0.17191 0.0
C662 C 0.41324 0.09951 0.14523 0.0
H663 H 0.38665 0.14311 0.24298 0.0
H664 H 0.42523 0.14626 0.15688 0.0
S665 S 0.36628 0.02309 0.18739 0.0
N666 N 0.35267 0.04306 0.23625 0.0
N667 N 0.39386 0.04663 0.1424 0.0
C668 C 0.39298 0.07239 0.16635 0.0
C669 C 0.37046 0.07055 0.21646 0.0
C670 C 0.46802 0.38806 0.02311 0.0
C671 C 0.48811 0.37123 0.02524 0.0
C672 C 0.47293 0.41755 0.98257 0.0
C673 C 0.49813 0.43157 0.94214 0.0
H674 H 0.4486 0.37872 0.05499 0.0
H675 H 0.45693 0.42957 0.98393 0.0
S676 S 0.55716 0.39682 0.92673 0.0
N677 N 0.53365 0.37036 0.97995 0.0
N678 N 0.54335 0.42585 0.9065 0.0
C679 C 0.51819 0.41475 0.94272 0.0
C680 C 0.5131 0.38467 0.98356 0.0
C681 C 0.1579 0.47176 0.2928 0.0
C682 C 0.18388 0.4903 0.26544 0.0
C683 C 0.13627 0.46407 0.24424 0.0
C684 C 0.13996 0.47428 0.16646 0.0
H685 H 0.15389 0.46425 0.35249 0.0
H686 H 0.11629 0.45059 0.2679 0.0
S687 S 0.20486 0.52141 0.06656 0.0
N688 N 0.21265 0.51731 0.15577 0.0
N689 N 0.17219 0.50254 0.06418 0.0
C690 C 0.16629 0.49165 0.13819 0.0
C691 C 0.18817 0.49981 0.18777 0.0
C692 C 0.00914 0.84801 0.54261 0.0
C693 C 0.98845 0.8208 0.55364 0.0
C694 C 0.00651 0.87243 0.57494 0.0
C695 C 0.98304 0.87083 0.61971 0.0
H696 H 0.02721 0.85085 0.50663 0.0
H697 H 0.0227 0.89307 0.56294 0.0
S698 S 0.92413 0.80386 0.6721 0.0
N699 N 0.94447 0.79314 0.61668 0.0
N700 N 0.93953 0.839 0.6776 0.0
C701 C 0.96249 0.84353 0.63289 0.0
C702 C 0.96519 0.81859 0.59987 0.0
C703 C 0.68824 0.99644 0.54459 0.0
C704 C 0.68687 0.98414 0.47887 0.0
C705 C 0.66481 0.99088 0.59221 0.0
C706 C 0.63911 0.97292 0.57573 0.0
H707 H 0.70731 0.01137 0.5578 0.0
H708 H 0.66657 1.00157 0.64102 0.0
S709 S 0.62471 0.935 0.41138 0.0
N710 N 0.65795 0.95253 0.4008 0.0
N711 N 0.61388 0.94218 0.49031 0.0
C712 C 0.63776 0.9594 0.51202 0.0
C713 C 0.66165 0.965 0.46356 0.0
C714 C 0.55377 0.65735 0.61333 0.0
C715 C 0.54534 0.67955 0.64413 0.0
C716 C 0.55213 0.62868 0.65551 0.0
C717 C 0.54141 0.62078 0.72982 0.0
H718 H 0.56155 0.66216 0.55578 0.0
H719 H 0.55839 0.61225 0.62868 0.0
S720 S 0.51748 0.67119 0.8374 0.0
N721 N 0.52702 0.69217 0.7543 0.0
N722 N 0.52313 0.63808 0.8332 0.0
C723 C 0.53332 0.64298 0.7617 0.0
C724 C 0.53553 0.67239 0.71904 0.0
C725 C 0.85617 0.56242 0.48818 0.0
C726 C 0.85859 0.57486 0.41143 0.0
C727 C 0.87795 0.5703 0.53597 0.0
C728 C 0.90296 0.59099 0.50888 0.0
H729 H 0.83762 0.54565 0.51095 0.0
H730 H 0.87555 0.55941 0.59416 0.0
S731 S 0.91967 0.6306 0.31315 0.0
N732 N 0.88781 0.60952 0.31096 0.0
N733 N 0.92868 0.62448 0.40117 0.0
C734 C 0.90524 0.60465 0.43309 0.0
C735 C 0.88306 0.59656 0.38425 0.0
loop_
_geom_bond_atom_site_label_1
_geom_bond_atom_site_label_2
_geom_bond_distance
_geom_bond_site_symmetry_2
_ccdc_geom_bond_type
C0 C1 1.386 . S
C0 C2 1.397 . S
C0 H24 0.931 . S
C1 C0 1.386 . S
C1 C5 1.397 . S
C2 C0 1.397 . S
C2 C3 1.384 . S
C2 H25 0.930 . S
C3 C2 1.384 . S
C3 C4 1.377 . S
C3 C6 1.481 . S
C4 C3 1.377 . S
C4 C5 1.389 . S
C4 H26 0.929 . S
C5 C1 1.397 . S
C5 C4 1.389 . S
C5 H27 0.931 . S
C6 C3 1.481 . S
C6 C7 1.387 . S
C6 C11 1.390 1_556 S
C7 C6 1.387 . S
C7 C8 1.401 1_556 S
C7 H28 0.930 . S
C8 C7 1.401 1_554 S
C8 C9 1.376 . S
C8 C17 1.511 1_554 S
C9 C8 1.376 . S
C9 C10 1.392 . S
C9 H30 0.931 . S
C10 C9 1.392 . S
C10 C11 1.361 . S
C10 C12 1.500 . S
C11 C6 1.390 1_554 S
C11 C10 1.361 . S
C11 H29 0.931 . S
C12 C10 1.500 . S
C12 C13 1.371 . S
C12 C14 1.365 . S
C13 C12 1.371 . S
C13 C23 1.386 . S
C13 H31 0.931 . S
C14 C12 1.365 . S
C14 C15 1.409 . S
C14 H32 0.929 . S
C15 C14 1.409 . S
C15 C16 1.380 . S
C15 H33 0.930 . S
C16 C15 1.380 . S
C16 C23 1.357 . S
C17 C8 1.511 1_556 S
C17 C18 1.341 . S
C17 C19 1.371 1_556 S
C18 C17 1.341 . S
C18 C22 1.394 . S
C18 H34 0.930 . S
C19 C17 1.371 1_554 S
C19 C20 1.392 . S
C19 H35 0.931 . S
C20 C19 1.392 . S
C20 C21 1.331 1_554 S
C20 H38 0.932 . S
C21 C20 1.331 1_556 S
C21 C22 1.336 . S
C22 C18 1.394 . S
C22 C21 1.336 . S
C22 H37 0.929 . S
C23 C13 1.386 . S
C23 C16 1.357 . S
C23 H36 0.928 . S
H24 C0 0.931 . S
H25 C2 0.930 . S
H26 C4 0.929 . S
H27 C5 0.931 . S
H28 C7 0.930 . S
H29 C11 0.931 . S
H30 C9 0.931 . S
H31 C13 0.931 . S
H32 C14 0.929 . S
H33 C15 0.930 . S
H34 C18 0.930 . S
H35 C19 0.931 . S
H36 C23 0.928 . S
H37 C22 0.929 . S
H38 C20 0.932 . S
C39 C40 1.386 . S
C39 C41 1.397 . S
C39 H63 0.931 . S
C40 C39 1.386 . S
C40 C44 1.397 . S
C41 C39 1.397 . S
C41 C42 1.384 . S
C41 H64 0.930 . S
C42 C41 1.384 . S
C42 C43 1.377 . S
C42 C45 1.475 1_556 S
C43 C42 1.377 . S
C43 C44 1.389 . S
C43 H65 0.929 . S
C44 C40 1.397 . S
C44 C43 1.389 . S
C44 H66 0.931 . S
C45 C42 1.475 1_554 S
C45 C46 1.384 1_554 S
C45 C50 1.398 . S
C46 C45 1.384 1_556 S
C46 C47 1.401 1_556 S
C46 H67 0.930 . S
C47 C46 1.401 1_554 S
C47 C48 1.376 . S
C47 C56 1.511 . S
C48 C47 1.376 . S
C48 C49 1.392 . S
C48 H69 0.931 . S
C49 C48 1.392 . S
C49 C50 1.361 . S
C49 C51 1.500 . S
C50 C45 1.398 . S
C50 C49 1.361 . S
C50 H68 0.931 . S
C51 C49 1.500 . S
C51 C52 1.371 . S
C51 C53 1.365 . S
C52 C51 1.371 . S
C52 C62 1.386 . S
C52 H70 0.931 . S
C53 C51 1.365 . S
C53 C54 1.409 . S
C53 H71 0.929 . S
C54 C53 1.409 . S
C54 C55 1.380 . S
C54 H72 0.930 . S
C55 C54 1.380 . S
C55 C62 1.357 . S
C56 C47 1.511 . S
C56 C57 1.341 1_554 S
C56 C58 1.371 . S
C57 C56 1.341 1_556 S
C57 C61 1.394 . S
C57 H73 0.930 . S
C58 C56 1.371 . S
C58 C59 1.392 . S
C58 H74 0.931 . S
C59 C58 1.392 . S
C59 C60 1.331 . S
C59 H77 0.932 . S
C60 C59 1.331 . S
C60 C61 1.336 1_554 S
C61 C57 1.394 . S
C61 C60 1.336 1_556 S
C61 H76 0.929 . S
C62 C52 1.386 . S
C62 C55 1.357 . S
C62 H75 0.928 . S
H63 C39 0.931 . S
H64 C41 0.930 . S
H65 C43 0.929 . S
H66 C44 0.931 . S
H67 C46 0.930 . S
H68 C50 0.931 . S
H69 C48 0.931 . S
H70 C52 0.931 . S
H71 C53 0.929 . S
H72 C54 0.930 . S
H73 C57 0.930 . S
H74 C58 0.931 . S
H75 C62 0.928 . S
H76 C61 0.929 . S
H77 C59 0.932 . S
C78 C79 1.386 . S
C78 C80 1.397 . S
C78 H102 0.931 . S
C79 C78 1.386 . S
C79 C83 1.397 . S
C80 C78 1.397 . S
C80 C81 1.384 . S
C80 H103 0.930 . S
C81 C80 1.384 . S
C81 C82 1.377 . S
C81 C84 1.481 . S
C82 C81 1.377 . S
C82 C83 1.389 . S
C82 H104 0.929 1_565 S
C83 C79 1.397 . S
C83 C82 1.389 . S
C83 H105 0.931 1_565 S
C84 C81 1.481 . S
C84 C85 1.387 . S
C84 C89 1.390 1_556 S
C85 C84 1.387 . S
C85 C86 1.401 . S
C85 H106 0.930 . S
C86 C85 1.401 . S
C86 C87 1.376 1_556 S
C86 C95 1.511 . S
C87 C86 1.376 1_554 S
C87 C88 1.392 . S
C87 H108 0.931 . S
C88 C87 1.392 . S
C88 C89 1.361 . S
C88 C90 1.500 . S
C89 C84 1.390 1_554 S
C89 C88 1.361 . S
C89 H107 0.931 . S
C90 C88 1.500 . S
C90 C91 1.371 . S
C90 C92 1.365 . S
C91 C90 1.371 . S
C91 C101 1.386 . S
C91 H109 0.931 . S
C92 C90 1.365 . S
C92 C93 1.409 . S
C92 H110 0.929 1_565 S
C93 C92 1.409 . S
C93 C94 1.380 . S
C93 H111 0.930 1_565 S
C94 C93 1.380 . S
C94 C101 1.357 . S
C95 C86 1.511 . S
C95 C96 1.341 . S
C95 C97 1.371 1_556 S
C96 C95 1.341 . S
C96 C100 1.394 . S
C96 H112 0.930 . S
C97 C95 1.371 1_554 S
C97 C98 1.392 1_554 S
C97 H113 0.931 . S
C98 C97 1.392 1_556 S
C98 C99 1.331 . S
C98 H116 0.932 1_556 S
C99 C98 1.331 . S
C99 C100 1.336 . S
C100 C96 1.394 . S
C100 C99 1.336 . S
C100 H115 0.929 . S
C101 C91 1.386 . S
C101 C94 1.357 . S
C101 H114 0.928 . S
H102 C78 0.931 . S
H103 C80 0.930 . S
H104 C82 0.929 1_545 S
H105 C83 0.931 1_545 S
H106 C85 0.930 . S
H107 C89 0.931 . S
H108 C87 0.931 . S
H109 C91 0.931 . S
H110 C92 0.929 1_545 S
H111 C93 0.930 1_545 S
H112 C96 0.930 . S
H113 C97 0.931 . S
H114 C101 0.928 . S
H115 C100 0.929 . S
H116 C98 0.932 1_554 S
C117 C118 1.386 . S
C117 C119 1.397 . S
C117 H141 0.931 . S
C118 C117 1.386 . S
C118 C122 1.397 . S
C119 C117 1.397 . S
C119 C120 1.384 . S
C119 H142 0.930 . S
C120 C119 1.384 . S
C120 C121 1.377 . S
C120 C123 1.481 . S
C121 C120 1.377 . S
C121 C122 1.389 . S
C121 H143 0.929 . S
C122 C118 1.397 . S
C122 C121 1.389 . S
C122 H144 0.931 . S
C123 C120 1.481 . S
C123 C124 1.387 . S
C123 C128 1.390 . S
C124 C123 1.387 . S
C124 C125 1.401 . S
C124 H145 0.930 . S
C125 C124 1.401 . S
C125 C126 1.376 . S
C125 C134 1.511 . S
C126 C125 1.376 . S
C126 C127 1.392 . S
C126 H147 0.931 . S
C127 C126 1.392 . S
C127 C128 1.361 . S
C127 C129 1.500 . S
C128 C123 1.390 . S
C128 C127 1.361 . S
C128 H146 0.931 . S
C129 C127 1.500 . S
C129 C130 1.371 . S
C129 C131 1.365 . S
C130 C129 1.371 . S
C130 C140 1.386 . S
C130 H148 0.931 . S
C131 C129 1.365 . S
C131 C132 1.409 . S
C131 H149 0.929 . S
C132 C131 1.409 . S
C132 C133 1.380 . S
C132 H150 0.930 . S
C133 C132 1.380 . S
C133 C140 1.357 . S
C134 C125 1.511 . S
C134 C135 1.341 . S
C134 C136 1.371 . S
C135 C134 1.341 . S
C135 C139 1.394 . S
C135 H151 0.930 . S
C136 C134 1.371 . S
C136 C137 1.392 . S
C136 H152 0.931 . S
C137 C136 1.392 . S
C137 C138 1.331 . S
C137 H155 0.932 . S
C138 C137 1.331 . S
C138 C139 1.336 . S
C139 C135 1.394 . S
C139 C138 1.336 . S
C139 H154 0.929 . S
C140 C130 1.386 . S
C140 C133 1.357 . S
C140 H153 0.928 . S
H141 C117 0.931 . S
H142 C119 0.930 . S
H143 C121 0.929 . S
H144 C122 0.931 . S
H145 C124 0.930 . S
H146 C128 0.931 . S
H147 C126 0.931 . S
H148 C130 0.931 . S
H149 C131 0.929 . S
H150 C132 0.930 . S
H151 C135 0.930 . S
H152 C136 0.931 . S
H153 C140 0.928 . S
H154 C139 0.929 . S
H155 C137 0.932 . S
C156 C157 1.386 . S
C156 C158 1.397 . S
C156 H180 0.931 . S
C157 C156 1.386 . S
C157 C161 1.397 . S
C158 C156 1.397 . S
C158 C159 1.384 . S
C158 H181 0.930 . S
C159 C158 1.384 . S
C159 C160 1.377 . S
C159 C162 1.481 . S
C160 C159 1.377 . S
C160 C161 1.389 . S
C160 H182 0.929 . S
C161 C157 1.397 . S
C161 C160 1.389 . S
C161 H183 0.931 . S
C162 C159 1.481 . S
C162 C163 1.387 . S
C162 C167 1.390 . S
C163 C162 1.387 . S
C163 C164 1.401 . S
C163 H184 0.930 . S
C164 C163 1.401 . S
C164 C165 1.376 . S
C164 C173 1.511 . S
C165 C164 1.376 . S
C165 C166 1.392 . S
C165 H186 0.931 . S
C166 C165 1.392 . S
C166 C167 1.361 . S
C166 C168 1.500 . S
C167 C162 1.390 . S
C167 C166 1.361 . S
C167 H185 0.931 . S
C168 C166 1.500 . S
C168 C169 1.371 . S
C168 C170 1.365 . S
C169 C168 1.371 . S
C169 C179 1.386 . S
C169 H187 0.931 . S
C170 C168 1.365 . S
C170 C171 1.409 . S
C170 H188 0.929 . S
C171 C170 1.409 . S
C171 C172 1.380 . S
C171 H189 0.930 . S
C172 C171 1.380 . S
C172 C179 1.357 . S
C173 C164 1.511 . S
C173 C174 1.341 . S
C173 C175 1.371 . S
C174 C173 1.341 . S
C174 C178 1.394 . S
C174 H190 0.930 . S
C175 C173 1.371 . S
C175 C176 1.392 . S
C175 H191 0.931 . S
C176 C175 1.392 . S
C176 C177 1.331 . S
C176 H194 0.932 . S
C177 C176 1.331 . S
C177 C178 1.336 . S
C178 C174 1.394 . S
C178 C177 1.336 . S
C178 H193 0.929 . S
C179 C169 1.386 . S
C179 C172 1.357 . S
C179 H192 0.928 . S
H180 C156 0.931 . S
H181 C158 0.930 . S
H182 C160 0.929 . S
H183 C161 0.931 . S
H184 C163 0.930 . S
H185 C167 0.931 . S
H186 C165 0.931 . S
H187 C169 0.931 . S
H188 C170 0.929 . S
H189 C171 0.930 . S
H190 C174 0.930 . S
H191 C175 0.931 . S
H192 C179 0.928 . S
H193 C178 0.929 . S
H194 C176 0.932 . S
C195 C196 1.386 . S
C195 C197 1.397 . S
C195 H219 0.931 . S
C196 C195 1.386 . S
C196 C200 1.397 . S
C197 C195 1.397 . S
C197 C198 1.384 . S
C197 H220 0.930 . S
C198 C197 1.384 . S
C198 C199 1.377 . S
C198 C201 1.481 . S
C199 C198 1.377 . S
C199 C200 1.389 . S
C199 H221 0.929 . S
C200 C196 1.397 . S
C200 C199 1.389 . S
C200 H222 0.931 . S
C201 C198 1.481 . S
C201 C202 1.387 . S
C201 C206 1.390 . S
C202 C201 1.387 . S
C202 C203 1.401 . S
C202 H223 0.930 . S
C203 C202 1.401 . S
C203 C204 1.376 . S
C203 C212 1.511 . S
C204 C203 1.376 . S
C204 C205 1.392 . S
C204 H225 0.931 . S
C205 C204 1.392 . S
C205 C206 1.361 . S
C205 C207 1.500 . S
C206 C201 1.390 . S
C206 C205 1.361 . S
C206 H224 0.931 . S
C207 C205 1.500 . S
C207 C208 1.371 . S
C207 C209 1.365 . S
C208 C207 1.371 . S
C208 C218 1.386 . S
C208 H226 0.931 . S
C209 C207 1.365 . S
C209 C210 1.409 . S
C209 H227 0.929 . S
C210 C209 1.409 . S
C210 C211 1.380 . S
C210 H228 0.930 . S
C211 C210 1.380 . S
C211 C218 1.357 . S
C212 C203 1.511 . S
C212 C213 1.341 . S
C212 C214 1.371 . S
C213 C212 1.341 . S
C213 C217 1.394 . S
C213 H229 0.930 . S
C214 C212 1.371 . S
C214 C215 1.392 . S
C214 H230 0.931 . S
C215 C214 1.392 . S
C215 C216 1.331 . S
C215 H233 0.932 . S
C216 C215 1.331 . S
C216 C217 1.336 . S
C217 C213 1.394 . S
C217 C216 1.336 . S
C217 H232 0.929 . S
C218 C208 1.386 . S
C218 C211 1.357 . S
C218 H231 0.928 . S
H219 C195 0.931 . S
H220 C197 0.930 . S
H221 C199 0.929 . S
H222 C200 0.931 . S
H223 C202 0.930 . S
H224 C206 0.931 . S
H225 C204 0.931 . S
H226 C208 0.931 . S
H227 C209 0.929 . S
H228 C210 0.930 . S
H229 C213 0.930 . S
H230 C214 0.931 . S
H231 C218 0.928 . S
H232 C217 0.929 . S
H233 C215 0.932 . S
C234 C235 1.386 . S
C234 C236 1.397 . S
C234 H258 0.931 . S
C235 C234 1.386 . S
C235 C239 1.397 . S
C236 C234 1.397 . S
C236 C237 1.384 . S
C236 H259 0.930 . S
C237 C236 1.384 . S
C237 C238 1.377 . S
C237 C240 1.481 . S
C238 C237 1.377 . S
C238 C239 1.389 . S
C238 H260 0.929 . S
C239 C235 1.397 . S
C239 C238 1.389 . S
C239 H261 0.931 . S
C240 C237 1.481 . S
C240 C241 1.387 . S
C240 C245 1.390 . S
C241 C240 1.387 . S
C241 C242 1.401 . S
C241 H262 0.930 . S
C242 C241 1.401 . S
C242 C243 1.376 . S
C242 C251 1.511 . S
C243 C242 1.376 . S
C243 C244 1.392 . S
C243 H264 0.931 . S
C244 C243 1.392 . S
C244 C245 1.361 . S
C244 C246 1.500 . S
C245 C240 1.390 . S
C245 C244 1.361 . S
C245 H263 0.931 . S
C246 C244 1.500 . S
C246 C247 1.371 . S
C246 C248 1.365 . S
C247 C246 1.371 . S
C247 C257 1.386 . S
C247 H265 0.931 . S
C248 C246 1.365 . S
C248 C249 1.409 . S
C248 H266 0.929 . S
C249 C248 1.409 . S
C249 C250 1.380 . S
C249 H267 0.930 . S
C250 C249 1.380 . S
C250 C257 1.357 . S
C251 C242 1.511 . S
C251 C252 1.341 . S
C251 C253 1.371 . S
C252 C251 1.341 . S
C252 C256 1.394 . S
C252 H268 0.930 . S
C253 C251 1.371 . S
C253 C254 1.392 . S
C253 H269 0.931 . S
C254 C253 1.392 . S
C254 C255 1.331 . S
C254 H272 0.932 . S
C255 C254 1.331 . S
C255 C256 1.336 . S
C256 C252 1.394 . S
C256 C255 1.336 . S
C256 H271 0.929 . S
C257 C247 1.386 . S
C257 C250 1.357 . S
C257 H270 0.928 . S
H258 C234 0.931 . S
H259 C236 0.930 . S
H260 C238 0.929 . S
H261 C239 0.931 . S
H262 C241 0.930 . S
H263 C245 0.931 . S
H264 C243 0.931 . S
H265 C247 0.931 . S
H266 C248 0.929 . S
H267 C249 0.930 . S
H268 C252 0.930 . S
H269 C253 0.931 . S
H270 C257 0.928 . S
H271 C256 0.929 . S
H272 C254 0.932 . S
C273 C274 1.386 1_554 S
C273 C275 1.397 . S
C273 H297 0.931 1_554 S
C274 C273 1.386 1_556 S
C274 C278 1.397 1_556 S
C275 C273 1.397 . S
C275 C276 1.384 . S
C275 H298 0.930 . S
C276 C275 1.384 . S
C276 C277 1.377 . S
C276 C279 1.481 . S
C277 C276 1.377 . S
C277 C278 1.389 . S
C277 H299 0.929 . S
C278 C274 1.397 1_554 S
C278 C277 1.389 . S
C278 H300 0.931 . S
C279 C276 1.481 . S
C279 C280 1.387 . S
C279 C284 1.390 . S
C280 C279 1.387 . S
C280 C281 1.401 . S
C280 H301 0.930 . S
C281 C280 1.401 . S
C281 C282 1.376 . S
C281 C290 1.511 . S
C282 C281 1.376 . S
C282 C283 1.392 . S
C282 H303 0.931 . S
C283 C282 1.392 . S
C283 C284 1.361 . S
C283 C285 1.500 . S
C284 C279 1.390 . S
C284 C283 1.361 . S
C284 H302 0.931 . S
C285 C283 1.500 . S
C285 C286 1.371 . S
C285 C287 1.365 . S
C286 C285 1.371 . S
C286 C296 1.386 . S
C286 H304 0.931 . S
C287 C285 1.365 . S
C287 C288 1.409 . S
C287 H305 0.929 . S
C288 C287 1.409 . S
C288 C289 1.380 . S
C288 H306 0.930 . S
C289 C288 1.380 . S
C289 C296 1.357 . S
C290 C281 1.511 . S
C290 C291 1.341 . S
C290 C292 1.371 . S
C291 C290 1.341 . S
C291 C295 1.394 . S
C291 H307 0.930 . S
C292 C290 1.371 . S
C292 C293 1.392 . S
C292 H308 0.931 . S
C293 C292 1.392 . S
C293 C294 1.331 . S
C293 H311 0.932 . S
C294 C293 1.331 . S
C294 C295 1.336 . S
C295 C291 1.394 . S
C295 C294 1.336 . S
C295 H310 0.929 . S
C296 C286 1.386 . S
C296 C289 1.357 . S
C296 H309 0.928 . S
H297 C273 0.931 1_556 S
H298 C275 0.930 . S
H299 C277 0.929 . S
H300 C278 0.931 . S
H301 C280 0.930 . S
H302 C284 0.931 . S
H303 C282 0.931 . S
H304 C286 0.931 . S
H305 C287 0.929 . S
H306 C288 0.930 . S
H307 C291 0.930 . S
H308 C292 0.931 . S
H309 C296 0.928 . S
H310 C295 0.929 . S
H311 C293 0.932 . S
Nd312 C314 2.836 1_445 S
Nd312 O332 2.500 1_445 S
Nd312 O333 2.492 1_545 S
Nd312 O334 2.487 . S
Nd312 O335 2.682 . S
Nd312 O336 2.410 1_545 S
Nd312 O341 2.414 1_455 S
Nd312 O343 2.424 . S
Nd313 C323 2.836 1_556 S
Nd313 O335 2.414 . S
Nd313 O337 2.424 1_545 S
Nd313 O338 2.500 . S
Nd313 O339 2.492 1_556 S
Nd313 O340 2.487 1_455 S
Nd313 O341 2.682 1_455 S
Nd313 O342 2.410 . S
C314 Nd312 2.836 1_665 S
C314 C315 1.498 . S
C314 O332 1.258 . S
C314 O333 1.239 1_655 S
C315 C314 1.498 . S
C315 C316 1.366 . S
C315 C320 1.407 1_655 S
C316 C315 1.366 . S
C316 C317 1.392 . S
C316 H344 0.930 . S
C317 C316 1.392 . S
C317 C318 1.398 . S
C317 H345 0.929 . S
C318 C317 1.398 . S
C318 C319 1.352 . S
C319 C318 1.352 . S
C319 C320 1.384 1_655 S
C319 H346 0.930 1_655 S
C320 C315 1.407 1_455 S
C320 C319 1.384 1_455 S
C320 H347 0.929 . S
C321 O334 1.241 . S
C321 O335 1.273 . S
C322 O336 1.251 . S
C322 O337 1.268 . S
C323 Nd313 2.836 1_554 S
C323 C324 1.498 . S
C323 O338 1.258 1_554 S
C323 O339 1.239 . S
C324 C323 1.498 . S
C324 C325 1.366 . S
C324 C329 1.407 . S
C325 C324 1.366 . S
C325 C326 1.392 . S
C325 H348 0.930 . S
C326 C325 1.392 . S
C326 C327 1.398 . S
C326 H349 0.929 . S
C327 C326 1.398 . S
C327 C328 1.352 . S
C328 C327 1.352 . S
C328 C329 1.384 . S
C328 H350 0.930 . S
C329 C324 1.407 . S
C329 C328 1.384 . S
C329 H351 0.929 . S
C330 O340 1.241 . S
C330 O341 1.273 . S
C331 O342 1.251 . S
C331 O343 1.268 . S
O332 Nd312 2.500 1_665 S
O332 C314 1.258 . S
O333 Nd312 2.492 1_565 S
O333 C314 1.239 1_455 S
O334 Nd312 2.487 . S
O334 C321 1.241 . S
O335 Nd312 2.682 . S
O335 Nd313 2.414 . S
O335 C321 1.273 . S
O336 Nd312 2.410 1_565 S
O336 C322 1.251 . S
O337 Nd313 2.424 1_565 S
O337 C322 1.268 . S
O338 Nd313 2.500 . S
O338 C323 1.258 1_556 S
O339 Nd313 2.492 1_554 S
O339 C323 1.239 . S
O340 Nd313 2.487 1_655 S
O340 C330 1.241 . S
O341 Nd312 2.414 1_655 S
O341 Nd313 2.682 1_655 S
O341 C330 1.273 . S
O342 Nd313 2.410 . S
O342 C331 1.251 . S
O343 Nd312 2.424 . S
O343 C331 1.268 . S
H344 C316 0.930 . S
H345 C317 0.929 . S
H346 C319 0.930 1_455 S
H347 C320 0.929 . S
H348 C325 0.930 . S
H349 C326 0.929 . S
H350 C328 0.930 . S
H351 C329 0.929 . S
Nd352 C354 2.836 1_545 S
Nd352 O372 2.500 1_545 S
Nd352 O373 2.492 . S
Nd352 O374 2.487 . S
Nd352 O375 2.682 . S
Nd352 O376 2.410 . S
Nd352 O381 2.414 1_545 S
Nd352 O383 2.424 . S
Nd353 C363 2.836 1_556 S
Nd353 O375 2.414 . S
Nd353 O377 2.424 . S
Nd353 O378 2.500 . S
Nd353 O379 2.492 1_556 S
Nd353 O380 2.492 1_545 S
Nd353 O381 2.682 1_545 S
Nd353 O382 2.410 . S
C354 Nd352 2.836 1_565 S
C354 C355 1.498 . S
C354 O372 1.258 . S
C354 O373 1.239 1_565 S
C355 C354 1.498 . S
C355 C356 1.366 . S
C355 C360 1.407 . S
C356 C355 1.366 . S
C356 C357 1.392 . S
C356 H384 0.930 . S
C357 C356 1.392 . S
C357 C358 1.398 . S
C357 H385 0.929 . S
C358 C357 1.398 . S
C358 C359 1.352 . S
C359 C358 1.352 . S
C359 C360 1.384 . S
C359 H386 0.930 . S
C360 C355 1.407 . S
C360 C359 1.384 . S
C360 H387 0.929 1_565 S
C361 O374 1.241 . S
C361 O375 1.273 . S
C362 O376 1.251 . S
C362 O377 1.268 . S
C363 Nd353 2.836 1_554 S
C363 C364 1.498 . S
C363 O378 1.258 1_554 S
C363 O379 1.239 . S
C364 C363 1.498 . S
C364 C365 1.366 . S
C364 C369 1.407 . S
C365 C364 1.366 . S
C365 C366 1.392 . S
C365 H388 0.930 1_554 S
C366 C365 1.392 . S
C366 C367 1.398 . S
C366 H389 0.929 . S
C367 C366 1.398 . S
C367 C368 1.352 . S
C368 C367 1.352 . S
C368 C369 1.384 . S
C368 H390 0.930 . S
C369 C364 1.407 . S
C369 C368 1.384 . S
C369 H391 0.929 . S
C370 O380 1.254 . S
C370 O381 1.273 . S
C371 O382 1.251 . S
C371 O383 1.268 . S
O372 Nd352 2.500 1_565 S
O372 C354 1.258 . S
O373 Nd352 2.492 . S
O373 C354 1.239 1_545 S
O374 Nd352 2.487 . S
O374 C361 1.241 . S
O375 Nd352 2.682 . S
O375 Nd353 2.414 . S
O375 C361 1.273 . S
O376 Nd352 2.410 . S
O376 C362 1.251 . S
O377 Nd353 2.424 . S
O377 C362 1.268 . S
O378 Nd353 2.500 . S
O378 C363 1.258 1_556 S
O379 Nd353 2.492 1_554 S
O379 C363 1.239 . S
O380 Nd353 2.492 1_565 S
O380 C370 1.254 . S
O381 Nd352 2.414 1_565 S
O381 Nd353 2.682 1_565 S
O381 C370 1.273 . S
O382 Nd353 2.410 . S
O382 C371 1.251 . S
O383 Nd352 2.424 . S
O383 C371 1.268 . S
H384 C356 0.930 . S
H385 C357 0.929 . S
H386 C359 0.930 . S
H387 C360 0.929 1_545 S
H388 C365 0.930 1_556 S
H389 C366 0.929 . S
H390 C368 0.930 . S
H391 C369 0.929 . S
Nd392 C394 2.836 . S
Nd392 O412 2.500 . S
Nd392 O413 2.492 . S
Nd392 O414 2.487 . S
Nd392 O415 2.682 . S
Nd392 O416 2.410 . S
Nd392 O421 2.414 . S
Nd392 O423 2.424 . S
Nd393 C403 2.836 . S
Nd393 O415 2.414 . S
Nd393 O417 2.424 . S
Nd393 O418 2.500 . S
Nd393 O419 2.492 . S
Nd393 O420 2.487 . S
Nd393 O421 2.682 . S
Nd393 O422 2.410 . S
C394 Nd392 2.836 . S
C394 C395 1.498 1_556 S
C394 O412 1.258 . S
C394 O413 1.239 . S
C395 C394 1.498 1_554 S
C395 C396 1.366 1_554 S
C395 C400 1.407 . S
C396 C395 1.366 1_556 S
C396 C397 1.392 . S
C396 H424 0.930 . S
C397 C396 1.392 . S
C397 C398 1.398 1_556 S
C397 H425 0.929 . S
C398 C397 1.398 1_554 S
C398 C399 1.352 . S
C399 C398 1.352 . S
C399 C400 1.384 . S
C399 H426 0.930 . S
C400 C395 1.407 . S
C400 C399 1.384 . S
C400 H427 0.929 . S
C401 O414 1.241 . S
C401 O415 1.273 . S
C402 O416 1.251 . S
C402 O417 1.268 . S
C403 Nd393 2.836 . S
C403 C404 1.498 . S
C403 O418 1.258 . S
C403 O419 1.239 . S
C404 C403 1.498 . S
C404 C405 1.366 . S
C404 C409 1.407 . S
C405 C404 1.366 . S
C405 C406 1.392 . S
C405 H428 0.930 . S
C406 C405 1.392 . S
C406 C407 1.398 . S
C406 H429 0.929 . S
C407 C406 1.398 . S
C407 C408 1.352 . S
C408 C407 1.352 . S
C408 C409 1.384 . S
C408 H430 0.930 . S
C409 C404 1.407 . S
C409 C408 1.384 . S
C409 H431 0.929 . S
C410 O420 1.241 . S
C410 O421 1.273 . S
C411 O422 1.251 . S
C411 O423 1.268 . S
O412 Nd392 2.500 . S
O412 C394 1.258 . S
O413 Nd392 2.492 . S
O413 C394 1.239 . S
O414 Nd392 2.487 . S
O414 C401 1.241 . S
O415 Nd392 2.682 . S
O415 Nd393 2.414 . S
O415 C401 1.273 . S
O416 Nd392 2.410 . S
O416 C402 1.251 . S
O417 Nd393 2.424 . S
O417 C402 1.268 . S
O418 Nd393 2.500 . S
O418 C403 1.258 . S
O419 Nd393 2.492 . S
O419 C403 1.239 . S
O420 Nd393 2.487 . S
O420 C410 1.241 . S
O421 Nd392 2.414 . S
O421 Nd393 2.682 . S
O421 C410 1.273 . S
O422 Nd393 2.410 . S
O422 C411 1.251 . S
O423 Nd392 2.424 . S
O423 C411 1.268 . S
H424 C396 0.930 . S
H425 C397 0.929 . S
H426 C399 0.930 . S
H427 C400 0.929 . S
H428 C405 0.930 . S
H429 C406 0.929 . S
H430 C408 0.930 . S
H431 C409 0.929 . S
Nd432 C434 2.836 1_455 S
Nd432 O452 2.500 1_455 S
Nd432 O453 2.492 1_455 S
Nd432 O454 2.487 . S
Nd432 O455 2.682 . S
Nd432 O456 2.410 1_455 S
Nd432 O461 2.414 . S
Nd432 O463 2.424 . S
Nd433 C443 2.836 1_556 S
Nd433 O455 2.414 . S
Nd433 O457 2.424 1_455 S
Nd433 O458 2.500 . S
Nd433 O459 2.492 1_556 S
Nd433 O460 2.487 . S
Nd433 O461 2.682 . S
Nd433 O462 2.410 . S
C434 Nd432 2.836 1_655 S
C434 C435 1.498 . S
C434 O452 1.258 . S
C434 O453 1.239 . S
C435 C434 1.498 . S
C435 C436 1.366 . S
C435 C440 1.407 . S
C436 C435 1.366 . S
C436 C437 1.392 . S
C436 H464 0.930 . S
C437 C436 1.392 . S
C437 C438 1.398 . S
C437 H465 0.929 . S
C438 C437 1.398 . S
C438 C439 1.352 . S
C439 C438 1.352 . S
C439 C440 1.384 . S
C439 H466 0.930 . S
C440 C435 1.407 . S
C440 C439 1.384 . S
C440 H467 0.929 . S
C441 O454 1.241 . S
C441 O455 1.273 . S
C442 O456 1.251 . S
C442 O457 1.268 . S
C443 Nd433 2.836 1_554 S
C443 C444 1.498 . S
C443 O458 1.258 1_554 S
C443 O459 1.239 . S
C444 C443 1.498 . S
C444 C445 1.366 . S
C444 C449 1.407 . S
C445 C444 1.366 . S
C445 C446 1.392 . S
C445 H468 0.930 . S
C446 C445 1.392 . S
C446 C447 1.398 . S
C446 H469 0.929 . S
C447 C446 1.398 . S
C447 C448 1.352 . S
C448 C447 1.352 . S
C448 C449 1.384 . S
C448 H470 0.930 . S
C449 C444 1.407 . S
C449 C448 1.384 . S
C449 H471 0.929 . S
C450 O460 1.241 . S
C450 O461 1.273 . S
C451 O462 1.251 . S
C451 O463 1.268 . S
O452 Nd432 2.500 1_655 S
O452 C434 1.258 . S
O453 Nd432 2.492 1_655 S
O453 C434 1.239 . S
O454 Nd432 2.487 . S
O454 C441 1.241 . S
O455 Nd432 2.682 . S
O455 Nd433 2.414 . S
O455 C441 1.273 . S
O456 Nd432 2.410 1_655 S
O456 C442 1.251 . S
O457 Nd433 2.424 1_655 S
O457 C442 1.268 . S
O458 Nd433 2.500 . S
O458 C443 1.258 1_556 S
O459 Nd433 2.492 1_554 S
O459 C443 1.239 . S
O460 Nd433 2.487 . S
O460 C450 1.241 . S
O461 Nd432 2.414 . S
O461 Nd433 2.682 . S
O461 C450 1.273 . S
O462 Nd433 2.410 . S
O462 C451 1.251 . S
O463 Nd432 2.424 . S
O463 C451 1.268 . S
H464 C436 0.930 . S
H465 C437 0.929 . S
H466 C439 0.930 . S
H467 C440 0.929 . S
H468 C445 0.930 . S
H469 C446 0.929 . S
H470 C448 0.930 . S
H471 C449 0.929 . S
C472 C473 1.369 . S
C472 C474 1.419 . S
C472 H476 0.930 . S
C473 C472 1.369 . S
C473 C482 1.429 . S
C474 C472 1.419 . S
C474 C475 1.363 . S
C474 H477 0.929 . S
C475 C474 1.363 . S
C475 C481 1.428 . S
H476 C472 0.930 . S
H477 C474 0.929 . S
S478 N479 1.613 . S
S478 N480 1.610 . S
N479 S478 1.613 . S
N479 C482 1.350 . S
N480 S478 1.610 . S
N480 C481 1.351 . S
C481 C475 1.428 . S
C481 N480 1.351 . S
C481 C482 1.434 . S
C482 C473 1.429 . S
C482 N479 1.350 . S
C482 C481 1.434 . S
C483 C484 1.369 . S
C483 C485 1.419 . S
C483 H487 0.930 . S
C484 C483 1.369 . S
C484 C493 1.429 . S
C485 C483 1.419 . S
C485 C486 1.363 . S
C485 H488 0.929 . S
C486 C485 1.363 . S
C486 C492 1.428 . S
H487 C483 0.930 . S
H488 C485 0.929 . S
S489 N490 1.613 . S
S489 N491 1.610 . S
N490 S489 1.613 . S
N490 C493 1.350 . S
N491 S489 1.610 . S
N491 C492 1.351 . S
C492 C486 1.428 . S
C492 N491 1.351 . S
C492 C493 1.434 . S
C493 C484 1.429 . S
C493 N490 1.350 . S
C493 C492 1.434 . S
C494 C495 1.369 . S
C494 C496 1.419 . S
C494 H498 0.930 . S
C495 C494 1.369 . S
C495 C504 1.429 . S
C496 C494 1.419 . S
C496 C497 1.363 . S
C496 H499 0.929 . S
C497 C496 1.363 . S
C497 C503 1.428 . S
H498 C494 0.930 . S
H499 C496 0.929 . S
S500 N501 1.613 . S
S500 N502 1.610 . S
N501 S500 1.613 . S
N501 C504 1.350 . S
N502 S500 1.610 . S
N502 C503 1.351 . S
C503 C497 1.428 . S
C503 N502 1.351 . S
C503 C504 1.434 . S
C504 C495 1.429 . S
C504 N501 1.350 . S
C504 C503 1.434 . S
C505 C506 1.369 . S
C505 C507 1.419 . S
C505 H509 0.930 . S
C506 C505 1.369 . S
C506 C515 1.429 . S
C507 C505 1.419 . S
C507 C508 1.363 . S
C507 H510 0.929 . S
C508 C507 1.363 . S
C508 C514 1.428 . S
H509 C505 0.930 . S
H510 C507 0.929 . S
S511 N512 1.613 . S
S511 N513 1.610 . S
N512 S511 1.613 . S
N512 C515 1.350 . S
N513 S511 1.610 . S
N513 C514 1.351 . S
C514 C508 1.428 . S
C514 N513 1.351 . S
C514 C515 1.434 . S
C515 C506 1.429 . S
C515 N512 1.350 . S
C515 C514 1.434 . S
C516 C517 1.369 . S
C516 C518 1.419 . S
C516 H520 0.930 . S
C517 C516 1.369 . S
C517 C526 1.429 1_565 S
C518 C516 1.419 . S
C518 C519 1.363 1_565 S
C518 H521 0.929 . S
C519 C518 1.363 1_545 S
C519 C525 1.428 . S
H520 C516 0.930 . S
H521 C518 0.929 . S
S522 N523 1.613 . S
S522 N524 1.610 . S
N523 S522 1.613 . S
N523 C526 1.350 . S
N524 S522 1.610 . S
N524 C525 1.351 . S
C525 C519 1.428 . S
C525 N524 1.351 . S
C525 C526 1.434 . S
C526 C517 1.429 1_545 S
C526 N523 1.350 . S
C526 C525 1.434 . S
C527 C528 1.369 . S
C527 C529 1.419 . S
C527 H531 0.930 1_565 S
C528 C527 1.369 . S
C528 C537 1.429 . S
C529 C527 1.419 . S
C529 C530 1.363 . S
C529 H532 0.929 1_565 S
C530 C529 1.363 . S
C530 C536 1.428 . S
H531 C527 0.930 1_545 S
H532 C529 0.929 1_545 S
S533 N534 1.613 . S
S533 N535 1.610 . S
N534 S533 1.613 . S
N534 C537 1.350 . S
N535 S533 1.610 . S
N535 C536 1.351 . S
C536 C530 1.428 . S
C536 N535 1.351 . S
C536 C537 1.434 . S
C537 C528 1.429 . S
C537 N534 1.350 . S
C537 C536 1.434 . S
C538 C539 1.369 . S
C538 C540 1.419 . S
C538 H542 0.930 . S
C539 C538 1.369 . S
C539 C548 1.429 . S
C540 C538 1.419 . S
C540 C541 1.363 . S
C540 H543 0.929 . S
C541 C540 1.363 . S
C541 C547 1.428 . S
H542 C538 0.930 . S
H543 C540 0.929 . S
S544 N545 1.613 . S
S544 N546 1.610 . S
N545 S544 1.613 . S
N545 C548 1.350 . S
N546 S544 1.610 . S
N546 C547 1.351 . S
C547 C541 1.428 . S
C547 N546 1.351 . S
C547 C548 1.434 . S
C548 C539 1.429 . S
C548 N545 1.350 . S
C548 C547 1.434 . S
C549 C550 1.369 . S
C549 C551 1.419 . S
C549 H553 0.930 . S
C550 C549 1.369 . S
C550 C559 1.429 . S
C551 C549 1.419 . S
C551 C552 1.363 . S
C551 H554 0.929 . S
C552 C551 1.363 . S
C552 C558 1.428 . S
H553 C549 0.930 . S
H554 C551 0.929 . S
S555 N556 1.613 . S
S555 N557 1.610 1_655 S
N556 S555 1.613 . S
N556 C559 1.350 . S
N557 S555 1.610 1_455 S
N557 C558 1.351 1_455 S
C558 C552 1.428 . S
C558 N557 1.351 1_655 S
C558 C559 1.434 . S
C559 C550 1.429 . S
C559 N556 1.350 . S
C559 C558 1.434 . S
C560 C561 1.369 . S
C560 C562 1.419 . S
C560 H564 0.930 . S
C561 C560 1.369 . S
C561 C570 1.429 . S
C562 C560 1.419 . S
C562 C563 1.363 . S
C562 H565 0.929 . S
C563 C562 1.363 . S
C563 C569 1.428 . S
H564 C560 0.930 . S
H565 C562 0.929 . S
S566 N567 1.613 . S
S566 N568 1.610 . S
N567 S566 1.613 . S
N567 C570 1.350 . S
N568 S566 1.610 . S
N568 C569 1.351 . S
C569 C563 1.428 . S
C569 N568 1.351 . S
C569 C570 1.434 . S
C570 C561 1.429 . S
C570 N567 1.350 . S
C570 C569 1.434 . S
C571 C572 1.369 . S
C571 C573 1.419 . S
C571 H575 0.930 . S
C572 C571 1.369 . S
C572 C581 1.429 . S
C573 C571 1.419 . S
C573 C574 1.363 . S
C573 H576 0.929 1_545 S
C574 C573 1.363 . S
C574 C580 1.428 . S
H575 C571 0.930 . S
H576 C573 0.929 1_565 S
S577 N578 1.613 . S
S577 N579 1.610 . S
N578 S577 1.613 . S
N578 C581 1.350 . S
N579 S577 1.610 . S
N579 C580 1.351 . S
C580 C574 1.428 . S
C580 N579 1.351 . S
C580 C581 1.434 . S
C581 C572 1.429 . S
C581 N578 1.350 . S
C581 C580 1.434 . S
C582 C583 1.369 . S
C582 C584 1.419 . S
C582 H586 0.930 . S
C583 C582 1.369 . S
C583 C592 1.429 . S
C584 C582 1.419 . S
C584 C585 1.363 . S
C584 H587 0.929 . S
C585 C584 1.363 . S
C585 C591 1.428 . S
H586 C582 0.930 . S
H587 C584 0.929 . S
S588 N589 1.613 . S
S588 N590 1.610 . S
N589 S588 1.613 . S
N589 C592 1.350 . S
N590 S588 1.610 . S
N590 C591 1.351 . S
C591 C585 1.428 . S
C591 N590 1.351 . S
C591 C592 1.434 . S
C592 C583 1.429 . S
C592 N589 1.350 . S
C592 C591 1.434 . S
C593 C594 1.369 . S
C593 C595 1.419 . S
C593 H597 0.930 . S
C594 C593 1.369 . S
C594 C603 1.429 . S
C595 C593 1.419 . S
C595 C596 1.363 . S
C595 H598 0.929 . S
C596 C595 1.363 . S
C596 C602 1.428 . S
H597 C593 0.930 . S
H598 C595 0.929 . S
S599 N600 1.613 1_554 S
S599 N601 1.610 1_554 S
N600 S599 1.613 1_556 S
N600 C603 1.350 . S
N601 S599 1.610 1_556 S
N601 C602 1.351 . S
C602 C596 1.428 . S
C602 N601 1.351 . S
C602 C603 1.434 . S
C603 C594 1.429 . S
C603 N600 1.350 . S
C603 C602 1.434 . S
C604 C605 1.369 . S
C604 C606 1.419 . S
C604 H608 0.930 . S
C605 C604 1.369 . S
C605 C614 1.429 . S
C606 C604 1.419 . S
C606 C607 1.363 . S
C606 H609 0.929 . S
C607 C606 1.363 . S
C607 C613 1.428 . S
H608 C604 0.930 . S
H609 C606 0.929 . S
S610 N611 1.613 . S
S610 N612 1.610 . S
N611 S610 1.613 . S
N611 C614 1.350 . S
N612 S610 1.610 . S
N612 C613 1.351 . S
C613 C607 1.428 . S
C613 N612 1.351 . S
C613 C614 1.434 . S
C614 C605 1.429 . S
C614 N611 1.350 . S
C614 C613 1.434 . S
C615 C616 1.369 1_545 S
C615 C617 1.419 . S
C615 H619 0.930 . S
C616 C615 1.369 1_565 S
C616 C625 1.429 . S
C617 C615 1.419 . S
C617 C618 1.363 . S
C617 H620 0.929 . S
C618 C617 1.363 . S
C618 C624 1.428 . S
H619 C615 0.930 . S
H620 C617 0.929 . S
S621 N622 1.613 . S
S621 N623 1.610 1_565 S
N622 S621 1.613 . S
N622 C625 1.350 . S
N623 S621 1.610 1_545 S
N623 C624 1.351 . S
C624 C618 1.428 . S
C624 N623 1.351 . S
C624 C625 1.434 1_545 S
C625 C616 1.429 . S
C625 N622 1.350 . S
C625 C624 1.434 1_565 S
C626 C627 1.369 . S
C626 C628 1.419 . S
C626 H630 0.930 . S
C627 C626 1.369 . S
C627 C636 1.429 . S
C628 C626 1.419 . S
C628 C629 1.363 . S
C628 H631 0.929 1_554 S
C629 C628 1.363 . S
C629 C635 1.428 . S
H630 C626 0.930 . S
H631 C628 0.929 1_556 S
S632 N633 1.613 . S
S632 N634 1.610 . S
N633 S632 1.613 . S
N633 C636 1.350 . S
N634 S632 1.610 . S
N634 C635 1.351 . S
C635 C629 1.428 . S
C635 N634 1.351 . S
C635 C636 1.434 . S
C636 C627 1.429 . S
C636 N633 1.350 . S
C636 C635 1.434 . S
C637 C638 1.369 . S
C637 C639 1.419 . S
C637 H641 0.930 . S
C638 C637 1.369 . S
C638 C647 1.429 . S
C639 C637 1.419 . S
C639 C640 1.363 . S
C639 H642 0.929 . S
C640 C639 1.363 . S
C640 C646 1.428 . S
H641 C637 0.930 . S
H642 C639 0.929 . S
S643 N644 1.613 . S
S643 N645 1.610 . S
N644 S643 1.613 . S
N644 C647 1.350 . S
N645 S643 1.610 . S
N645 C646 1.351 . S
C646 C640 1.428 . S
C646 N645 1.351 . S
C646 C647 1.434 . S
C647 C638 1.429 . S
C647 N644 1.350 . S
C647 C646 1.434 . S
C648 C649 1.369 . S
C648 C650 1.419 . S
C648 H652 0.930 . S
C649 C648 1.369 . S
C649 C658 1.429 . S
C650 C648 1.419 . S
C650 C651 1.363 . S
C650 H653 0.929 . S
C651 C650 1.363 . S
C651 C657 1.428 . S
H652 C648 0.930 . S
H653 C650 0.929 . S
S654 N655 1.613 . S
S654 N656 1.610 . S
N655 S654 1.613 . S
N655 C658 1.350 . S
N656 S654 1.610 . S
N656 C657 1.351 . S
C657 C651 1.428 . S
C657 N656 1.351 . S
C657 C658 1.434 . S
C658 C649 1.429 . S
C658 N655 1.350 . S
C658 C657 1.434 . S
C659 C660 1.369 . S
C659 C661 1.419 . S
C659 H663 0.930 . S
C660 C659 1.369 . S
C660 C669 1.429 . S
C661 C659 1.419 . S
C661 C662 1.363 . S
C661 H664 0.929 . S
C662 C661 1.363 . S
C662 C668 1.428 . S
H663 C659 0.930 . S
H664 C661 0.929 . S
S665 N666 1.613 . S
S665 N667 1.610 . S
N666 S665 1.613 . S
N666 C669 1.350 . S
N667 S665 1.610 . S
N667 C668 1.351 . S
C668 C662 1.428 . S
C668 N667 1.351 . S
C668 C669 1.434 . S
C669 C660 1.429 . S
C669 N666 1.350 . S
C669 C668 1.434 . S
C670 C671 1.369 . S
C670 C672 1.419 . S
C670 H674 0.930 . S
C671 C670 1.369 . S
C671 C680 1.429 . S
C672 C670 1.419 . S
C672 C673 1.363 . S
C672 H675 0.929 . S
C673 C672 1.363 . S
C673 C679 1.428 . S
H674 C670 0.930 . S
H675 C672 0.929 . S
S676 N677 1.613 . S
S676 N678 1.610 . S
N677 S676 1.613 . S
N677 C680 1.350 . S
N678 S676 1.610 . S
N678 C679 1.351 . S
C679 C673 1.428 . S
C679 N678 1.351 . S
C679 C680 1.434 . S
C680 C671 1.429 . S
C680 N677 1.350 . S
C680 C679 1.434 . S
C681 C682 1.369 . S
C681 C683 1.419 . S
C681 H685 0.930 . S
C682 C681 1.369 . S
C682 C691 1.429 . S
C683 C681 1.419 . S
C683 C684 1.363 . S
C683 H686 0.929 . S
C684 C683 1.363 . S
C684 C690 1.428 . S
H685 C681 0.930 . S
H686 C683 0.929 . S
S687 N688 1.613 . S
S687 N689 1.610 . S
N688 S687 1.613 . S
N688 C691 1.350 . S
N689 S687 1.610 . S
N689 C690 1.351 . S
C690 C684 1.428 . S
C690 N689 1.351 . S
C690 C691 1.434 . S
C691 C682 1.429 . S
C691 N688 1.350 . S
C691 C690 1.434 . S
C692 C693 1.369 . S
C692 C694 1.419 . S
C692 H696 0.930 . S
C693 C692 1.369 . S
C693 C702 1.429 . S
C694 C692 1.419 . S
C694 C695 1.363 . S
C694 H697 0.929 . S
C695 C694 1.363 . S
C695 C701 1.428 . S
H696 C692 0.930 . S
H697 C694 0.929 . S
S698 N699 1.613 . S
S698 N700 1.610 . S
N699 S698 1.613 . S
N699 C702 1.350 . S
N700 S698 1.610 . S
N700 C701 1.351 . S
C701 C695 1.428 . S
C701 N700 1.351 . S
C701 C702 1.434 . S
C702 C693 1.429 . S
C702 N699 1.350 . S
C702 C701 1.434 . S
C703 C704 1.369 . S
C703 C705 1.419 . S
C703 H707 0.930 1_565 S
C704 C703 1.369 . S
C704 C713 1.429 . S
C705 C703 1.419 . S
C705 C706 1.363 . S
C705 H708 0.929 1_565 S
C706 C705 1.363 . S
C706 C712 1.428 . S
H707 C703 0.930 1_545 S
H708 C705 0.929 1_545 S
S709 N710 1.613 . S
S709 N711 1.610 . S
N710 S709 1.613 . S
N710 C713 1.350 . S
N711 S709 1.610 . S
N711 C712 1.351 . S
C712 C706 1.428 . S
C712 N711 1.351 . S
C712 C713 1.434 . S
C713 C704 1.429 . S
C713 N710 1.350 . S
C713 C712 1.434 . S
C714 C715 1.369 . S
C714 C716 1.419 . S
C714 H718 0.930 . S
C715 C714 1.369 . S
C715 C724 1.429 . S
C716 C714 1.419 . S
C716 C717 1.363 . S
C716 H719 0.929 . S
C717 C716 1.363 . S
C717 C723 1.428 . S
H718 C714 0.930 . S
H719 C716 0.929 . S
S720 N721 1.613 . S
S720 N722 1.610 . S
N721 S720 1.613 . S
N721 C724 1.350 . S
N722 S720 1.610 . S
N722 C723 1.351 . S
C723 C717 1.428 . S
C723 N722 1.351 . S
C723 C724 1.434 . S
C724 C715 1.429 . S
C724 N721 1.350 . S
C724 C723 1.434 . S
C725 C726 1.369 . S
C725 C727 1.419 . S
C725 H729 0.930 . S
C726 C725 1.369 . S
C726 C735 1.429 . S
C727 C725 1.419 . S
C727 C728 1.363 . S
C727 H730 0.929 . S
C728 C727 1.363 . S
C728 C734 1.428 . S
H729 C725 0.930 . S
H730 C727 0.929 . S
S731 N732 1.613 . S
S731 N733 1.610 . S
N732 S731 1.613 . S
N732 C735 1.350 . S
N733 S731 1.610 . S
N733 C734 1.351 . S
C734 C728 1.428 . S
C734 N733 1.351 . S
C734 C735 1.434 . S
C735 C726 1.429 . S
C735 N732 1.350 . S
C735 C734 1.434 . S
C473 C255 1.333 . S
C475 C321 1.327 . S
C486 C361 2.230 . S
C484 C294 2.295 . S
C497 C410 1.565 . S
C495 C177 1.535 . S
C508 C441 2.082 . S
C506 C216 2.091 . S
C519 C330 1.326 . S
C517 C99 1.347 . S
C528 C138 2.257 . S
C530 C370 2.239 1_554 S
C539 C21 1.512 . S
C541 C401 1.562 . S
C550 C60 2.112 1_556 S
C552 C450 2.089 1_655 S
C563 C331 1.919 . S
C561 C196 1.530 . S
C574 C371 1.785 . S
C572 C235 1.498 . S
C585 C407 0.843 . S
C583 C289 0.822 . S
C594 C157 1.615 . S
C596 C451 1.897 . S
C605 C40 1.540 . S
C607 C322 1.921 1_655 S
C618 C362 1.785 . S
C616 C79 1.518 . S
C629 C398 0.833 . S
C627 C133 0.832 . S
C638 C1 1.599 . S
C640 C442 1.899 . S
C649 C211 2.026 . S
C651 C327 2.181 . S
C660 C250 1.748 . S
C662 C367 1.771 . S
C673 C411 3.153 . S
C671 C274 2.747 . S
C684 C447 1.798 . S
C682 C172 1.722 . S
C693 C55 2.029 . S
C695 C318 2.179 . S
C706 C358 1.776 . S
C704 C94 1.747 . S
C717 C402 3.152 . S
C715 C118 2.745 . S
C726 C16 1.719 . S
C728 C438 1.800 . S
