# Generated by pormake.
# Topology apo, (3,6)-cn, num edge types: 1
# Building blocks:
#     Node 0, Type 0, BuildingBlock: PAMTOO_clean_linker_0, # of connection points: 3
#     Node 1, Type 0, BuildingBlock: PAMTOO_clean_linker_0, # of connection points: 3
#     Node 2, Type 0, BuildingBlock: PAMTOO_clean_linker_0, # of connection points: 3
#     Node 3, Type 0, BuildingBlock: PAMTOO_clean_linker_0, # of connection points: 3
#     Node 4, Type 0, BuildingBlock: PAMTOO_clean_linker_0, # of connection points: 3
#     Node 5, Type 0, BuildingBlock: PAMTOO_clean_linker_0, # of connection points: 3
#     Node 6, Type 0, BuildingBlock: PAMTOO_clean_linker_0, # of connection points: 3
#     Node 7, Type 0, BuildingBlock: PAMTOO_clean_linker_0, # of connection points: 3
#     Node 8, Type 1, BuildingBlock: KUMBUR_clean_sbu_1, # of connection points: 6
#     Node 9, Type 1, BuildingBlock: KUMBUR_clean_sbu_1, # of connection points: 6
#     Node 10, Type 1, BuildingBlock: KUMBUR_clean_sbu_1, # of connection points: 6
#     Node 11, Type 1, BuildingBlock: KUMBUR_clean_sbu_1, # of connection points: 6
#     Edge 12, Type (0, 1), BuildingBlock: KIFKEQ_clean_linker_1, # of connection points: 2
#     Edge 13, Type (0, 1), BuildingBlock: KIFKEQ_clean_linker_1, # of connection points: 2
#     Edge 14, Type (0, 1), BuildingBlock: KIFKEQ_clean_linker_1, # of connection points: 2
#     Edge 15, Type (0, 1), BuildingBlock: KIFKEQ_clean_linker_1, # of connection points: 2
#     Edge 16, Type (0, 1), BuildingBlock: KIFKEQ_clean_linker_1, # of connection points: 2
#     Edge 17, Type (0, 1), BuildingBlock: KIFKEQ_clean_linker_1, # of connection points: 2
#     Edge 18, Type (0, 1), BuildingBlock: KIFKEQ_clean_linker_1, # of connection points: 2
#     Edge 19, Type (0, 1), BuildingBlock: KIFKEQ_clean_linker_1, # of connection points: 2
#     Edge 20, Type (0, 1), BuildingBlock: KIFKEQ_clean_linker_1, # of connection points: 2
#     Edge 21, Type (0, 1), BuildingBlock: KIFKEQ_clean_linker_1, # of connection points: 2
#     Edge 22, Type (0, 1), BuildingBlock: KIFKEQ_clean_linker_1, # of connection points: 2
#     Edge 23, Type (0, 1), BuildingBlock: KIFKEQ_clean_linker_1, # of connection points: 2
#     Edge 24, Type (0, 1), BuildingBlock: KIFKEQ_clean_linker_1, # of connection points: 2
#     Edge 25, Type (0, 1), BuildingBlock: KIFKEQ_clean_linker_1, # of connection points: 2
#     Edge 26, Type (0, 1), BuildingBlock: KIFKEQ_clean_linker_1, # of connection points: 2
#     Edge 27, Type (0, 1), BuildingBlock: KIFKEQ_clean_linker_1, # of connection points: 2
#     Edge 28, Type (0, 1), BuildingBlock: KIFKEQ_clean_linker_1, # of connection points: 2
#     Edge 29, Type (0, 1), BuildingBlock: KIFKEQ_clean_linker_1, # of connection points: 2
#     Edge 30, Type (0, 1), BuildingBlock: KIFKEQ_clean_linker_1, # of connection points: 2
#     Edge 31, Type (0, 1), BuildingBlock: KIFKEQ_clean_linker_1, # of connection points: 2
#     Edge 32, Type (0, 1), BuildingBlock: KIFKEQ_clean_linker_1, # of connection points: 2
#     Edge 33, Type (0, 1), BuildingBlock: KIFKEQ_clean_linker_1, # of connection points: 2
#     Edge 34, Type (0, 1), BuildingBlock: KIFKEQ_clean_linker_1, # of connection points: 2
#     Edge 35, Type (0, 1), BuildingBlock: KIFKEQ_clean_linker_1, # of connection points: 2
# Relax obj value: 0.040
# Max RMSD: 0.223
# Mean RMSD: 0.161
data_MOF--net-apo--node1-KUMBUR_clean_sbu_1--node2-PAMTOO_clean_linker_0--edge1-KIFKEQ_clean_linker_1
_symmetry_space_group_name_H-M    P1
_symmetry_Int_Tables_number       1
_symmetry_cell_setting            triclinic
loop_
_symmetry_equiv_pos_as_xyz
'x, y, z'
_cell_length_a     27.889231
_cell_length_b     42.963631
_cell_length_c     51.244165
_cell_angle_alpha  90.04945
_cell_angle_beta   90.039088
_cell_angle_gamma 90.421624
loop_
_atom_site_label
_atom_site_type_symbol
_atom_site_fract_x
_atom_site_fract_y
_atom_site_fract_z
_atom_type_partial_charge
H0 H 0.37754 0.4412 0.43421 0.0
H1 H 0.30513 0.39684 0.36971 0.0
H2 H 0.29288 0.35828 0.44665 0.0
H3 H 0.30758 0.31253 0.40426 0.0
C4 C 0.28784 0.32438 0.38825 0.0
O5 O 0.26826 0.35164 0.39754 0.0
H6 H 0.31404 0.3297 0.37246 0.0
C7 C 0.35468 0.42277 0.42665 0.0
C8 C 0.33668 0.39996 0.44378 0.0
C9 C 0.34355 0.42203 0.39989 0.0
C10 C 0.31424 0.39786 0.39025 0.0
C11 C 0.29609 0.37494 0.4071 0.0
C12 C 0.30692 0.37619 0.43383 0.0
H13 H 0.15408 0.07843 0.93448 0.0
H14 H 0.23874 0.16122 0.94847 0.0
H15 H 0.22426 0.12531 0.87079 0.0
H16 H 0.32238 0.14558 0.89154 0.0
C17 C 0.31082 0.16844 0.89956 0.0
O18 O 0.2613 0.16981 0.89951 0.0
H19 H 0.32418 0.17045 0.91994 0.0
C20 C 0.17718 0.097 0.92747 0.0
C21 C 0.18741 0.09872 0.90064 0.0
C22 C 0.19551 0.1192 0.94519 0.0
C23 C 0.22356 0.14396 0.93539 0.0
C24 C 0.23372 0.14613 0.90863 0.0
C25 C 0.21559 0.12361 0.89134 0.0
H26 H 0.86596 0.08894 0.60144 0.0
H27 H 0.79686 0.12964 0.66822 0.0
H28 H 0.79972 0.17917 0.59575 0.0
H29 H 0.81369 0.21862 0.64144 0.0
C30 C 0.79319 0.20489 0.65614 0.0
O31 O 0.77037 0.18022 0.64404 0.0
H32 H 0.81909 0.19617 0.67094 0.0
C33 C 0.84608 0.10789 0.61013 0.0
C34 C 0.83462 0.13423 0.5951 0.0
C35 C 0.83285 0.10611 0.63655 0.0
C36 C 0.8073 0.13067 0.64787 0.0
C37 C 0.79504 0.15671 0.63301 0.0
C38 C 0.80856 0.15847 0.60675 0.0
H39 H 0.67162 0.42823 0.09929 0.0
H40 H 0.73946 0.33863 0.09497 0.0
H41 H 0.74111 0.38889 0.16685 0.0
H42 H 0.83524 0.36307 0.14584 0.0
C43 C 0.82077 0.33975 0.1403 0.0
O44 O 0.77145 0.33959 0.14266 0.0
H45 H 0.83079 0.33518 0.11965 0.0
C46 C 0.6907 0.40943 0.10864 0.0
C47 C 0.70371 0.41201 0.13519 0.0
C48 C 0.70302 0.38303 0.0938 0.0
C49 C 0.72983 0.35938 0.10573 0.0
C50 C 0.74436 0.36207 0.13175 0.0
C51 C 0.73083 0.38798 0.14648 0.0
H52 H 0.65205 0.57892 0.6029 0.0
H53 H 0.73557 0.66234 0.59053 0.0
H54 H 0.7245 0.62334 0.66738 0.0
H55 H 0.71819 0.69024 0.66622 0.0
C56 C 0.74234 0.69584 0.64958 0.0
O57 O 0.76112 0.66868 0.63949 0.0
H58 H 0.72109 0.70767 0.63415 0.0
C59 C 0.6746 0.59749 0.61049 0.0
C60 C 0.68595 0.59814 0.63723 0.0
C61 C 0.69225 0.62044 0.59338 0.0
C62 C 0.72168 0.64438 0.60336 0.0
C63 C 0.73277 0.64556 0.63005 0.0
C64 C 0.71505 0.62245 0.64687 0.0
H65 H 0.87539 0.93933 0.10077 0.0
H66 H 0.80971 0.8906 0.16499 0.0
H67 H 0.78682 0.85841 0.08673 0.0
H68 H 0.70211 0.85341 0.1191 0.0
C69 C 0.71887 0.85087 0.13869 0.0
O70 O 0.76791 0.84824 0.13596 0.0
H71 H 0.71021 0.87205 0.15025 0.0
C72 C 0.853 0.92052 0.10799 0.0
C73 C 0.83218 0.8994 0.09021 0.0
C74 C 0.84515 0.9178 0.135 0.0
C75 C 0.81602 0.89335 0.14426 0.0
C76 C 0.79537 0.87194 0.12682 0.0
C77 C 0.80358 0.87491 0.09994 0.0
H78 H 0.16659 0.92649 0.43548 0.0
H79 H 0.23838 0.83817 0.44176 0.0
H80 H 0.23776 0.88652 0.36892 0.0
H81 H 0.21789 0.81974 0.36694 0.0
C82 C 0.2445 0.81169 0.38163 0.0
O83 O 0.26653 0.83692 0.39336 0.0
H84 H 0.22489 0.79783 0.3966 0.0
C85 C 0.18748 0.90799 0.42687 0.0
C86 C 0.19994 0.90969 0.40024 0.0
C87 C 0.20123 0.88238 0.44231 0.0
C88 C 0.22815 0.85851 0.43066 0.0
C89 C 0.241 0.86012 0.40432 0.0
C90 C 0.22717 0.88562 0.38924 0.0
H91 H 0.36478 0.58773 0.93746 0.0
H92 H 0.30015 0.62771 0.86878 0.0
H93 H 0.30037 0.67853 0.94037 0.0
H94 H 0.20824 0.6801 0.91284 0.0
C95 C 0.22123 0.67716 0.89246 0.0
O96 O 0.27068 0.67761 0.89216 0.0
H97 H 0.20762 0.6543 0.88519 0.0
C98 C 0.34686 0.60678 0.92778 0.0
C99 C 0.33516 0.63358 0.94226 0.0
C100 C 0.33472 0.60415 0.90112 0.0
C101 C 0.30951 0.62862 0.88928 0.0
C102 C 0.29635 0.65485 0.90365 0.0
C103 C 0.30965 0.65753 0.92987 0.0
Tb104 Tb 0.08456 0.13508 0.2466 0.0
C105 C 0.86547 0.11992 0.27923 0.0
N106 N 0.89552 0.14456 0.28295 0.0
C107 C 0.83253 0.17971 0.27142 0.0
C108 C 0.8178 0.12418 0.27093 0.0
C109 C 0.87947 0.17427 0.2798 0.0
C110 C 0.80164 0.15455 0.26678 0.0
C111 C 0.85274 0.06402 0.28046 0.0
C112 C 0.88263 0.09027 0.28397 0.0
C113 C 0.80531 0.06808 0.27194 0.0
C114 C 0.78788 0.09809 0.26718 0.0
Tb115 Tb 0.97167 0.13267 0.29564 0.0
N116 N 0.92926 0.08721 0.29129 0.0
C117 C 0.87157 0.03452 0.28552 0.0
C118 C 0.94715 0.05862 0.29738 0.0
C119 C 0.91884 0.03186 0.29424 0.0
H120 H 0.90251 0.19379 0.28441 0.0
H121 H 0.93345 1.00919 0.29862 0.0
H122 H 0.17062 0.0964 0.27649 0.0
H123 H 0.07072 0.25648 0.21835 0.0
H124 H 0.98319 0.05621 0.30453 0.0
H125 H 0.84982 0.01373 0.28301 0.0
H126 H 0.05061 0.2009 0.2161 0.0
H127 H 0.82008 0.2033 0.26878 0.0
H128 H 0.78181 0.04818 0.26902 0.0
H129 H 0.75117 0.10087 0.26072 0.0
H130 H 0.24678 0.10865 0.29912 0.0
H131 H 0.76525 0.15884 0.26037 0.0
H132 H 0.14008 0.27426 0.24469 0.0
N133 N 0.15625 0.14358 0.26695 0.0
C134 C 0.17187 0.1736 0.26785 0.0
C135 C 0.22597 0.12714 0.29047 0.0
C136 C 0.21482 0.1817 0.28075 0.0
C137 C 0.1828 0.12028 0.27772 0.0
C138 C 0.24195 0.15799 0.29211 0.0
N139 N 0.10182 0.18745 0.24475 0.0
C140 C 0.07807 0.20837 0.22949 0.0
C141 C 0.15793 0.2278 0.25759 0.0
C142 C 0.1433 0.19631 0.25678 0.0
C143 C 0.13013 0.24984 0.24457 0.0
C144 C 0.0907 0.23994 0.22989 0.0
H145 H 0.27515 0.16326 0.30223 0.0
H146 H 0.26134 0.2199 0.29239 0.0
H147 H 0.21175 0.26026 0.27191 0.0
O148 O 0.09178 0.14222 0.20606 0.0
O149 O 0.09078 0.14869 0.2879 0.0
O150 O 0.02019 0.17297 0.29652 0.0
O151 O 0.14059 0.11291 0.22658 0.0
O152 O 0.01475 0.15402 0.23409 0.0
O153 O 0.984 0.17404 0.27205 0.0
O154 O 0.98473 0.12145 0.33495 0.0
O155 O 0.96312 0.10781 0.25821 0.0
O156 O 0.03818 0.09421 0.24213 0.0
O157 O 0.92548 0.15048 0.32434 0.0
O158 O 0.03411 0.10397 0.3055 0.0
O159 O 0.08004 0.09152 0.26877 0.0
C160 C 0.06663 0.17054 0.29975 0.0
C161 C 0.12149 0.0989 0.1832 0.0
C162 C 0.12388 0.08471 0.13687 0.0
C163 C 0.11179 0.0539 0.14383 0.0
C164 C 0.10913 0.0681 0.18949 0.0
C165 C 0.10423 0.0458 0.16988 0.0
C166 C 0.12859 0.10715 0.15689 0.0
C167 C 0.98578 0.17311 0.24649 0.0
C168 C 0.12676 0.12263 0.20385 0.0
C169 C 0.22871 0.21313 0.28233 0.0
C170 C 0.20031 0.23613 0.27079 0.0
C171 C 0.99141 0.09032 0.24386 0.0
C172 C 0.96108 0.15957 0.36526 0.0
C173 C 0.95592 0.1716 0.41176 0.0
C174 C 0.98217 0.19919 0.40728 0.0
C175 C 0.9866 0.18737 0.36116 0.0
C176 C 0.9458 0.15178 0.39052 0.0
C177 C 0.99737 0.20695 0.38213 0.0
C178 C 0.06595 0.08672 0.29312 0.0
C179 C 0.9497 0.13855 0.34346 0.0
H180 H 0.10889 0.03579 0.12921 0.0
H181 H 0.10359 0.06122 0.20958 0.0
H182 H 0.09491 0.02205 0.17492 0.0
H183 H 0.13729 0.1311 0.1521 0.0
H184 H 0.99011 0.21512 0.42312 0.0
H185 H 0.99781 0.19405 0.34179 0.0
H186 H 0.92625 0.13019 0.39361 0.0
H187 H 0.01714 0.22836 0.37883 0.0
Tb188 Tb 0.45641 0.37996 0.74572 0.0
C189 C 0.63712 0.44047 0.78691 0.0
N190 N 0.62892 0.40959 0.78339 0.0
C191 C 0.70394 0.4048 0.76096 0.0
C192 C 0.67803 0.45518 0.77641 0.0
C193 C 0.6625 0.39134 0.77162 0.0
C194 C 0.7114 0.43695 0.76301 0.0
C195 C 0.61227 0.48888 0.80658 0.0
C196 C 0.60462 0.45697 0.80161 0.0
C197 C 0.65161 0.50421 0.79505 0.0
C198 C 0.6845 0.48736 0.78001 0.0
Tb199 Tb 0.55963 0.38985 0.8006 0.0
N200 N 0.5676 0.4411 0.81268 0.0
C201 C 0.5814 0.50401 0.82389 0.0
C202 C 0.54102 0.45494 0.83176 0.0
C203 C 0.5463 0.48675 0.83702 0.0
H204 H 0.65679 0.36653 0.77008 0.0
H205 H 0.52399 0.49776 0.85158 0.0
H206 H 0.37103 0.43054 0.76407 0.0
H207 H 0.43945 0.25869 0.72089 0.0
H208 H 0.51642 0.44136 0.84337 0.0
H209 H 0.58594 0.52853 0.82825 0.0
H210 H 0.47741 0.31105 0.72065 0.0
H211 H 0.72999 0.39041 0.75112 0.0
H212 H 0.65777 0.52883 0.79835 0.0
H213 H 0.71536 0.49927 0.77179 0.0
H214 H 0.29331 0.42795 0.78658 0.0
H215 H 0.74339 0.44733 0.75465 0.0
H216 H 0.36351 0.25003 0.74497 0.0
N217 N 0.38133 0.38137 0.76414 0.0
C218 C 0.35938 0.35327 0.76728 0.0
C219 C 0.31192 0.40671 0.78172 0.0
C220 C 0.31384 0.35065 0.77902 0.0
C221 C 0.35673 0.40805 0.7695 0.0
C222 C 0.29081 0.37784 0.78704 0.0
N223 N 0.4241 0.33114 0.74487 0.0
C224 C 0.44432 0.30731 0.73118 0.0
C225 C 0.35816 0.29802 0.75756 0.0
C226 C 0.38102 0.32733 0.75674 0.0
C227 C 0.37996 0.27295 0.74485 0.0
C228 C 0.42286 0.27775 0.73124 0.0
H229 H 0.25579 0.37687 0.79616 0.0
H230 H 0.25721 0.31865 0.79055 0.0
H231 H 0.29612 0.2725 0.77173 0.0
O232 O 0.47502 0.37936 0.70591 0.0
O233 O 0.47272 0.34242 0.77351 0.0
O234 O 0.49179 0.36733 0.81163 0.0
O235 O 0.40342 0.38997 0.71777 0.0
O236 O 0.52697 0.36046 0.73601 0.0
O237 O 0.56609 0.34896 0.77515 0.0
O238 O 0.5907 0.3943 0.838 0.0
O239 O 0.56883 0.40694 0.76034 0.0
O240 O 0.49491 0.4244 0.74826 0.0
O241 O 0.59714 0.35196 0.81625 0.0
O242 O 0.48665 0.40533 0.81024 0.0
O243 O 0.45412 0.42151 0.77104 0.0
C244 C 0.47117 0.34418 0.79906 0.0
C245 C 0.43161 0.41377 0.67939 0.0
C246 C 0.41944 0.43177 0.6346 0.0
C247 C 0.42836 0.46247 0.6431 0.0
C248 C 0.44043 0.44449 0.68739 0.0
C249 C 0.43892 0.46868 0.66927 0.0
C250 C 0.42133 0.40748 0.65306 0.0
C251 C 0.5595 0.34528 0.74976 0.0
C252 C 0.43282 0.38805 0.69824 0.0
C253 C 0.29194 0.32119 0.7813 0.0
C254 C 0.31402 0.29492 0.77052 0.0
C255 C 0.54175 0.42736 0.74846 0.0
C256 C 0.58765 0.34761 0.86202 0.0
C257 C 0.5884 0.34042 0.90943 0.0
C258 C 0.55678 0.31496 0.90644 0.0
C259 C 0.55589 0.32221 0.85964 0.0
C260 C 0.60374 0.35661 0.88695 0.0
C261 C 0.54063 0.30605 0.88174 0.0
C262 C 0.4577 0.42327 0.79668 0.0
C263 C 0.60329 0.36532 0.83878 0.0
H264 H 0.42649 0.48183 0.62963 0.0
H265 H 0.44818 0.44975 0.70762 0.0
H266 H 0.44563 0.49238 0.67556 0.0
H267 H 0.4153 0.3836 0.64698 0.0
H268 H 0.54492 0.30159 0.92316 0.0
H269 H 0.54277 0.31479 0.84073 0.0
H270 H 0.62754 0.37655 0.88881 0.0
H271 H 0.51625 0.28647 0.8797 0.0
Tb272 Tb 0.06418 0.88981 0.73644 0.0
C273 C 0.86196 0.85448 0.76634 0.0
N274 N 0.88401 0.88256 0.7695 0.0
C275 C 0.81614 0.90775 0.75007 0.0
C276 C 0.81728 0.85177 0.75363 0.0
C277 C 0.86006 0.90921 0.76324 0.0
C278 C 0.79513 0.87886 0.74471 0.0
C279 C 0.85981 0.79936 0.77646 0.0
C280 C 0.88276 0.82864 0.77753 0.0
C281 C 0.81648 0.79619 0.76269 0.0
C282 C 0.79534 0.82234 0.7512 0.0
Tb283 Tb 0.95774 0.88124 0.78955 0.0
N284 N 0.92542 0.83241 0.78991 0.0
C285 C 0.88105 0.77428 0.78942 0.0
C286 C 0.94512 0.80853 0.80373 0.0
C287 C 0.92357 0.77901 0.80341 0.0
H288 H 0.87404 0.93173 0.76876 0.0
H289 H 0.93977 0.75993 0.81391 0.0
H290 H 0.15777 0.86324 0.76843 0.0
H291 H 0.03812 0.99931 0.68614 0.0
H292 H 0.97778 0.81223 0.81467 0.0
H293 H 0.86457 0.75137 0.78907 0.0
H294 H 0.02563 0.94324 0.69393 0.0
H295 H 0.79808 0.92896 0.74453 0.0
H296 H 0.79863 0.77377 0.76122 0.0
H297 H 0.76131 0.81972 0.74119 0.0
H298 H 0.23196 0.8846 0.78831 0.0
H299 H 0.7608 0.87781 0.73483 0.0
H300 H 0.10221 0.02768 0.70995 0.0
N301 N 0.13415 0.90717 0.75462 0.0
C302 C 0.14504 0.93772 0.75122 0.0
C303 C 0.20759 0.89985 0.7781 0.0
C304 C 0.18668 0.951 0.76223 0.0
C305 C 0.16554 0.88783 0.76693 0.0
C306 C 0.2179 0.93167 0.77606 0.0
N307 N 0.07643 0.94085 0.72479 0.0
C308 C 0.0512 0.95579 0.70576 0.0
C309 C 0.12478 0.98701 0.73152 0.0
C310 C 0.11443 0.95536 0.73623 0.0
C311 C 0.09556 1.0033 0.71412 0.0
C312 C 0.05926 0.98741 0.70073 0.0
H313 H 0.25036 0.94094 0.78482 0.0
H314 H 0.22744 0.99373 0.76735 0.0
H315 H 0.17323 0.02532 0.74034 0.0
O316 O 0.097 0.89374 0.69948 0.0
O317 O 0.07205 0.90738 0.77666 0.0
O318 O 0.99788 0.92524 0.78818 0.0
O319 O 0.09951 0.85097 0.72089 0.0
O320 O 0.99271 0.9075 0.72588 0.0
O321 O 0.9578 0.92311 0.76473 0.0
O322 O 0.97276 0.87967 0.82979 0.0
O323 O 0.9749 0.84395 0.76166 0.0
O324 O 0.99572 0.86919 0.72413 0.0
O325 O 0.90298 0.89223 0.81614 0.0
O326 O 0.02766 0.86214 0.80059 0.0
O327 O 0.06796 0.84895 0.76226 0.0
C328 C 0.04482 0.92806 0.78815 0.0
C329 C 0.0905 0.84742 0.67501 0.0
C330 C 0.09012 0.8412 0.62745 0.0
C331 C 0.05745 0.81626 0.63023 0.0
C332 C 0.05746 0.82267 0.67711 0.0
C333 C 0.04119 0.80723 0.65485 0.0
C334 C 0.10663 0.8566 0.65013 0.0
C335 C 0.96364 0.92561 0.73926 0.0
C336 C 0.10719 0.86435 0.69851 0.0
C337 C 0.19595 0.98292 0.75876 0.0
C338 C 0.16498 1.00092 0.74346 0.0
C339 C 0.97332 0.84643 0.73619 0.0
C340 C 0.92923 0.91504 0.85535 0.0
C341 C 0.91349 0.93319 0.89966 0.0
C342 C 0.92433 0.96375 0.89164 0.0
C343 C 0.93997 0.94564 0.84771 0.0
C344 C 0.91636 0.90886 0.88133 0.0
C345 C 0.9377 0.96984 0.86585 0.0
C346 C 0.05966 0.84572 0.78755 0.0
C347 C 0.93051 0.8894 0.8364 0.0
H348 H 0.04473 0.80341 0.61338 0.0
H349 H 0.04407 0.81522 0.69594 0.0
H350 H 0.01589 0.78813 0.65668 0.0
H351 H 0.1313 0.87611 0.64848 0.0
H352 H 0.9229 0.98289 0.90538 0.0
H353 H 0.94973 0.95082 0.82774 0.0
H354 H 0.90765 0.88521 0.88712 0.0
H355 H 0.94613 0.99342 0.85988 0.0
Tb356 Tb 0.47591 0.62695 0.23551 0.0
C357 C 0.67645 0.66221 0.26751 0.0
N358 N 0.65432 0.63431 0.27135 0.0
C359 C 0.72294 0.60822 0.25363 0.0
C360 C 0.72161 0.66434 0.25527 0.0
C361 C 0.67851 0.60738 0.26628 0.0
C362 C 0.74413 0.63685 0.24756 0.0
C363 C 0.67846 0.7177 0.27617 0.0
C364 C 0.65543 0.68849 0.2778 0.0
C365 C 0.72212 0.7203 0.26268 0.0
C366 C 0.74364 0.69365 0.2522 0.0
Tb367 Tb 0.57965 0.63649 0.29021 0.0
N368 N 0.61274 0.68514 0.29017 0.0
C369 C 0.6573 0.74317 0.28863 0.0
C370 C 0.59325 0.7094 0.30366 0.0
C371 C 0.61491 0.73888 0.30281 0.0
H372 H 0.6641 0.58511 0.27222 0.0
H373 H 0.59884 0.75826 0.31297 0.0
H374 H 0.37889 0.65072 0.2659 0.0
H375 H 0.50965 0.51911 0.18406 0.0
H376 H 0.56048 0.70605 0.31458 0.0
H377 H 0.67388 0.76604 0.28788 0.0
H378 H 0.51798 0.57545 0.19243 0.0
H379 H 0.74119 0.58677 0.24899 0.0
H380 H 0.74011 0.74263 0.26082 0.0
H381 H 0.77805 0.69582 0.24254 0.0
H382 H 0.30547 0.62719 0.28491 0.0
H383 H 0.77884 0.63743 0.23809 0.0
H384 H 0.44762 0.48852 0.2075 0.0
N385 N 0.40634 0.60752 0.25266 0.0
C386 C 0.39784 0.57668 0.2492 0.0
C387 C 0.33138 0.61267 0.27509 0.0
C388 C 0.3568 0.56215 0.25972 0.0
C389 C 0.37294 0.62594 0.26439 0.0
C390 C 0.32362 0.58054 0.27311 0.0
N391 N 0.46706 0.57581 0.22325 0.0
C392 C 0.49329 0.56193 0.20405 0.0
C393 C 0.42197 0.5282 0.22937 0.0
C394 C 0.43003 0.56007 0.23441 0.0
C395 C 0.45248 0.51301 0.21192 0.0
C396 C 0.48761 0.53016 0.19871 0.0
H397 H 0.29154 0.57031 0.28149 0.0
H398 H 0.319 0.51823 0.26434 0.0
H399 H 0.37608 0.48845 0.23763 0.0
O400 O 0.44431 0.62297 0.1982 0.0
O401 O 0.46647 0.61027 0.27584 0.0
O402 O 0.54009 0.59242 0.28819 0.0
O403 O 0.4398 0.66544 0.21994 0.0
O404 O 0.54859 0.61062 0.22604 0.0
O405 O 0.58099 0.59452 0.2653 0.0
O406 O 0.5617 0.63808 0.33009 0.0
O407 O 0.56292 0.67379 0.26233 0.0
O408 O 0.54427 0.64856 0.22438 0.0
O409 O 0.63277 0.62637 0.31808 0.0
O410 O 0.50952 0.65648 0.30012 0.0
O411 O 0.46958 0.66778 0.26114 0.0
C412 C 0.49319 0.58984 0.28793 0.0
C413 C 0.44909 0.66963 0.17415 0.0
C414 C 0.44873 0.67662 0.12672 0.0
C415 C 0.48093 0.70178 0.12967 0.0
C416 C 0.48136 0.69477 0.17649 0.0
C417 C 0.49714 0.71066 0.15437 0.0
C418 C 0.43291 0.66068 0.14922 0.0
C419 C 0.57699 0.59238 0.23968 0.0
C420 C 0.43293 0.65217 0.19742 0.0
C421 C 0.34995 0.53 0.2561 0.0
C422 C 0.38256 0.51303 0.24097 0.0
C423 C 0.56478 0.6718 0.23682 0.0
C424 C 0.60436 0.60365 0.35692 0.0
C425 C 0.61478 0.5865 0.40209 0.0
C426 C 0.60614 0.55564 0.39388 0.0
C427 C 0.59569 0.5728 0.34924 0.0
C428 C 0.61367 0.61043 0.38328 0.0
C429 C 0.59651 0.54895 0.36769 0.0
C430 C 0.47679 0.67165 0.28648 0.0
C431 C 0.60373 0.62902 0.33771 0.0
H432 H 0.49321 0.71494 0.11292 0.0
H433 H 0.49447 0.70219 0.1954 0.0
H434 H 0.52195 0.73002 0.15638 0.0
H435 H 0.40865 0.64097 0.14738 0.0
H436 H 0.60748 0.53653 0.40762 0.0
H437 H 0.58855 0.56717 0.329 0.0
H438 H 0.6195 0.63443 0.38909 0.0
H439 H 0.58996 0.52514 0.36165 0.0
H440 H 0.19819 0.97172 0.41275 0.0
H441 H 0.16452 0.90743 0.3504 0.0
H442 H 0.16877 0.01467 0.38623 0.0
H443 H 0.13516 0.95038 0.32388 0.0
H444 H 0.12423 0.0399 0.27514 0.0
H445 H 0.15982 0.99771 0.30046 0.0
H446 H 0.09203 0.03278 0.37019 0.0
H447 H 0.05751 0.075 0.34529 0.0
C448 C 0.18433 0.96673 0.39343 0.0
C449 C 0.18355 0.9361 0.38377 0.0
C450 C 0.16751 0.99135 0.37821 0.0
C451 C 0.14942 0.98596 0.35295 0.0
C452 C 0.14943 0.95542 0.3431 0.0
C453 C 0.16624 0.93079 0.35833 0.0
C454 C 0.11714 0.03869 0.2959 0.0
C455 C 0.08799 0.06094 0.30811 0.0
C456 C 0.13732 0.0144 0.31038 0.0
C457 C 0.12893 0.01193 0.33739 0.0
C458 C 0.09989 0.03423 0.34953 0.0
C459 C 0.07971 0.05836 0.33512 0.0
H460 H 0.28553 0.57571 0.86077 0.0
H461 H 0.41625 0.56893 0.90597 0.0
H462 H 0.31071 0.53139 0.8344 0.0
H463 H 0.43931 0.5235 0.88054 0.0
H464 H 0.4295 0.42261 0.84754 0.0
H465 H 0.39686 0.46589 0.87276 0.0
H466 H 0.39125 0.5219 0.80303 0.0
H467 H 0.42595 0.47904 0.77785 0.0
C468 C 0.31959 0.56497 0.86514 0.0
C469 C 0.34881 0.57619 0.88562 0.0
C470 C 0.3337 0.53944 0.8501 0.0
C471 C 0.37671 0.5241 0.8556 0.0
C472 C 0.40565 0.53482 0.87618 0.0
C473 C 0.39214 0.56073 0.89085 0.0
C474 C 0.42107 0.4441 0.83755 0.0
C475 C 0.43106 0.44767 0.81084 0.0
C476 C 0.40245 0.46878 0.85198 0.0
C477 C 0.39207 0.49716 0.83981 0.0
C478 C 0.39902 0.50015 0.81278 0.0
C479 C 0.41867 0.47564 0.79841 0.0
H480 H 0.6452 0.60463 0.68561 0.0
H481 H 0.68476 0.53541 0.62857 0.0
H482 H 0.61193 0.56365 0.71358 0.0
H483 H 0.65089 0.49464 0.65622 0.0
H484 H 0.50561 0.48489 0.73839 0.0
H485 H 0.54234 0.5266 0.71256 0.0
H486 H 0.66557 0.46863 0.6985 0.0
H487 H 0.62818 0.42678 0.7237 0.0
C488 C 0.64707 0.58066 0.67914 0.0
C489 C 0.66744 0.57327 0.65484 0.0
C490 C 0.62765 0.55724 0.69503 0.0
C491 C 0.62866 0.5259 0.68709 0.0
C492 C 0.64987 0.5185 0.66302 0.0
C493 C 0.66887 0.5419 0.64706 0.0
C494 C 0.54051 0.48112 0.72971 0.0
C495 C 0.56422 0.4527 0.73315 0.0
C496 C 0.56174 0.50508 0.71515 0.0
C497 C 0.60694 0.50097 0.70352 0.0
C498 C 0.63059 0.47247 0.70704 0.0
C499 C 0.60943 0.44861 0.72168 0.0
H500 H 0.93638 0.94145 0.13394 0.0
H501 H 0.80378 0.94647 0.17717 0.0
H502 H 0.97066 0.98234 0.16116 0.0
H503 H 0.83884 0.98671 0.20522 0.0
H504 H 0.89881 0.08442 0.22666 0.0
H505 H 0.86328 0.04108 0.20242 0.0
H506 H 0.99894 0.99317 0.20455 0.0
H507 H 0.03417 0.03636 0.22885 0.0
C508 C 0.9146 0.95118 0.14937 0.0
C509 C 0.86718 0.94086 0.15322 0.0
C510 C 0.93446 0.97442 0.1652 0.0
C511 C 0.9075 0.98791 0.18538 0.0
C512 C 0.8604 0.9771 0.18965 0.0
C513 C 0.84049 0.95378 0.17378 0.0
C514 C 0.92091 0.06452 0.22209 0.0
C515 C 0.96949 0.06401 0.22936 0.0
C516 C 0.90051 0.03962 0.20827 0.0
C517 C 0.9283 0.01367 0.20136 0.0
C518 C 0.9767 0.01302 0.20907 0.0
C519 C 0.997 0.03786 0.22291 0.0
H520 H 0.81494 0.0447 0.62705 0.0
H521 H 0.88336 0.10691 0.68188 0.0
H522 H 0.84 1.00011 0.65306 0.0
H523 H 0.91117 0.06261 0.70717 0.0
H524 H 0.92919 0.98004 0.7591 0.0
H525 H 0.89168 0.02247 0.73539 0.0
H526 H 0.90606 0.97053 0.66347 0.0
H527 H 0.93979 0.92728 0.68765 0.0
C528 C 0.83567 0.0487 0.64464 0.0
C529 C 0.84724 0.0791 0.65254 0.0
C530 C 0.85037 0.0232 0.6595 0.0
C531 C 0.87791 0.02753 0.6823 0.0
C532 C 0.8892 0.05817 0.69013 0.0
C533 C 0.87363 0.08364 0.67555 0.0
C534 C 0.92344 0.97753 0.7383 0.0
C535 C 0.93797 0.9505 0.72517 0.0
C536 C 0.90253 1.00205 0.72458 0.0
C537 C 0.89632 1.00034 0.69733 0.0
C538 C 0.90961 0.97278 0.68442 0.0
C539 C 0.92958 0.94804 0.69823 0.0
H540 H 0.75204 0.44098 0.17571 0.0
H541 H 0.6203 0.44555 0.13118 0.0
H542 H 0.7254 0.48481 0.20227 0.0
H543 H 0.59581 0.49051 0.15674 0.0
H544 H 0.6088 0.53671 0.25885 0.0
H545 H 0.64392 0.49368 0.23398 0.0
H546 H 0.63768 0.54888 0.16383 0.0
H547 H 0.60474 0.59233 0.18871 0.0
C548 C 0.71745 0.45109 0.17153 0.0
C549 C 0.68848 0.43946 0.1511 0.0
C550 C 0.70248 0.47636 0.18669 0.0
C551 C 0.6588 0.49101 0.18138 0.0
C552 C 0.62997 0.47976 0.16096 0.0
C553 C 0.64433 0.45411 0.14619 0.0
C554 C 0.61595 0.53988 0.23824 0.0
C555 C 0.60335 0.5677 0.22563 0.0
C556 C 0.63586 0.51528 0.22405 0.0
C557 C 0.64285 0.51799 0.19701 0.0
C558 C 0.63209 0.54619 0.18462 0.0
C559 C 0.61324 0.57096 0.19887 0.0
H560 H 0.38492 0.4146 0.35182 0.0
H561 H 0.34602 0.48481 0.40815 0.0
H562 H 0.41968 0.45494 0.32374 0.0
H563 H 0.38145 0.52494 0.38041 0.0
H564 H 0.40667 0.59167 0.31245 0.0
H565 H 0.36801 0.55053 0.33785 0.0
H566 H 0.49019 0.49125 0.32497 0.0
H567 H 0.5282 0.53225 0.29888 0.0
C568 C 0.38351 0.43865 0.3581 0.0
C569 C 0.36287 0.44652 0.38223 0.0
C570 C 0.4038 0.46169 0.34216 0.0
C571 C 0.40343 0.49311 0.3499 0.0
C572 C 0.38198 0.50099 0.37379 0.0
C573 C 0.36207 0.47797 0.38979 0.0
C574 C 0.42492 0.5697 0.31476 0.0
C575 C 0.47016 0.56501 0.30351 0.0
C576 C 0.40304 0.54625 0.32953 0.0
C577 C 0.42602 0.51761 0.33341 0.0
C578 C 0.47132 0.51292 0.32207 0.0
C579 C 0.49327 0.53645 0.30736 0.0
H580 H 0.14553 0.10581 0.85248 0.0
H581 H 0.18784 0.03585 0.90821 0.0
H582 H 0.11282 0.06503 0.824 0.0
H583 H 0.15444 0.99534 0.88013 0.0
H584 H 0.13152 0.92797 0.81275 0.0
H585 H 0.16861 0.96997 0.83792 0.0
H586 H 0.04456 0.02734 0.82421 0.0
H587 H 0.00823 0.98552 0.79827 0.0
C588 C 0.1481 0.08174 0.85856 0.0
C589 C 0.16907 0.07409 0.88266 0.0
C590 C 0.12899 0.05842 0.84238 0.0
C591 C 0.13092 0.02693 0.84981 0.0
C592 C 0.15271 0.01931 0.87369 0.0
C593 C 0.17144 0.04257 0.88991 0.0
C594 C 0.11254 0.94972 0.81479 0.0
C595 C 0.06721 0.95357 0.80338 0.0
C596 C 0.13353 0.97368 0.82944 0.0
C597 C 0.10954 1.00203 0.83312 0.0
C598 C 0.06424 1.00594 0.82152 0.0
C599 C 0.04322 0.9819 0.80689 0.0
H600 H 0.1806 0.16546 0.98175 0.0
H601 H 0.1891 0.06541 0.97387 0.0
H602 H 0.16321 0.15931 0.02829 0.0
H603 H 0.16953 0.05955 0.01983 0.0
H604 H 0.07647 0.06225 0.09372 0.0
H605 H 0.0945 0.0719 0.04796 0.0
H606 H 0.20627 0.13659 0.07017 0.0
H607 H 0.1899 0.12602 0.11621 0.0
C608 C 0.17904 0.14221 0.98983 0.0
C609 C 0.18582 0.11594 0.97378 0.0
C610 C 0.16885 0.13874 1.01648 0.0
C611 C 0.1645 0.10895 0.02756 0.0
C612 C 0.17181 0.08278 1.01169 0.0
C613 C 0.18275 0.08621 0.98526 0.0
C614 C 0.10528 0.0783 0.08901 0.0
C615 C 0.13216 0.09295 0.10887 0.0
C616 C 0.11537 0.08395 0.06273 0.0
C617 C 0.15202 0.10479 0.05553 0.0
C618 C 0.17765 0.1205 0.0752 0.0
C619 C 0.16807 0.1145 0.10159 0.0
H620 H 0.42523 0.4088 0.46526 0.0
H621 H 0.27676 0.39424 0.48586 0.0
H622 H 0.4459 0.41428 0.51123 0.0
H623 H 0.297 0.40059 0.53196 0.0
H624 H 0.3549 0.38932 0.61453 0.0
H625 H 0.33643 0.37888 0.56887 0.0
H626 H 0.43756 0.45034 0.54567 0.0
H627 H 0.45811 0.4594 0.59111 0.0
C628 C 0.39696 0.4069 0.47968 0.0
C629 C 0.34933 0.40129 0.47195 0.0
C630 C 0.40874 0.41018 0.50606 0.0
C631 C 0.3731 0.40825 0.52543 0.0
C632 C 0.32554 0.40189 0.51769 0.0
C633 C 0.31385 0.39831 0.49125 0.0
C634 C 0.37378 0.40247 0.59969 0.0
C635 C 0.40807 0.42522 0.60664 0.0
C636 C 0.36268 0.39676 0.57345 0.0
C637 C 0.3854 0.41375 0.55344 0.0
C638 C 0.41975 0.43644 0.56043 0.0
C639 C 0.43106 0.44199 0.58661 0.0
H640 H 0.6172 0.4002 0.07206 0.0
H641 H 0.7532 0.35865 0.05254 0.0
H642 H 0.59062 0.39351 0.02716 0.0
H643 H 0.72551 0.35019 1.00807 0.0
H644 H 0.67815 0.36075 0.92414 0.0
H645 H 0.70598 0.3744 0.96779 0.0
H646 H 0.56533 0.35322 0.99868 0.0
H647 H 0.53686 0.34142 0.95495 0.0
C648 C 0.64159 0.38978 0.0582 0.0
C649 C 0.68735 0.37988 0.06606 0.0
C650 C 0.62606 0.38553 0.03246 0.0
C651 C 0.6557 0.37107 1.01392 0.0
C652 C 0.70179 0.36169 0.02167 0.0
C653 C 0.71745 0.36614 0.04735 0.0
C654 C 0.65292 0.35953 0.94017 0.0
C655 C 0.60527 0.3498 0.93595 0.0
C656 C 0.66908 0.36698 0.96531 0.0
C657 C 0.63806 0.36477 0.9869 0.0
C658 C 0.59021 0.35556 0.98257 0.0
C659 C 0.57401 0.34831 0.95746 0.0
H660 H 0.92231 0.11858 0.57526 0.0
H661 H 0.78536 0.15663 0.55288 0.0
H662 H 0.95121 0.12512 0.53072 0.0
H663 H 0.81491 0.16431 0.50856 0.0
H664 H 0.86826 0.14781 0.42574 0.0
H665 H 0.83894 0.13625 0.46953 0.0
H666 H 0.97398 0.16756 0.50195 0.0
H667 H 0.00391 0.178 0.45812 0.0
C668 C 0.89822 0.12811 0.56079 0.0
C669 C 0.85149 0.13708 0.56766 0.0
C670 C 0.915 0.13222 0.53532 0.0
C671 C 0.88548 0.14539 0.51608 0.0
C672 C 0.83847 0.15385 0.52283 0.0
C673 C 0.82169 0.14976 0.54831 0.0
C674 C 0.89193 0.15181 0.44219 0.0
C675 C 0.93844 0.16386 0.43842 0.0
C676 C 0.87492 0.14552 0.46732 0.0
C677 C 0.90403 0.15106 0.48927 0.0
C678 C 0.95076 0.16272 0.48547 0.0
C679 C 0.96774 0.16906 0.46035 0.0
H680 H 0.83564 0.95369 0.06229 0.0
H681 H 0.84724 0.85403 0.05323 0.0
H682 H 0.85456 0.96071 1.0165 0.0
H683 H 0.86313 0.86096 1.00678 0.0
H684 H 0.94582 0.88741 0.93217 0.0
H685 H 0.92388 0.87835 0.97766 0.0
H686 H 0.8246 0.95505 0.97394 0.0
H687 H 0.84786 0.96458 0.92883 0.0
C688 C 0.84209 0.9332 0.05051 0.0
C689 C 0.84042 0.90329 0.06163 0.0
C690 C 0.85223 0.93722 0.02404 0.0
C691 C 0.86041 0.91143 1.00777 0.0
C692 C 0.85772 0.88142 0.01874 0.0
C693 C 0.84793 0.87741 0.04534 0.0
C694 C 0.91912 0.90218 0.9411 0.0
C695 C 0.89882 0.92685 0.92702 0.0
C696 C 0.90633 0.89692 0.96715 0.0
C697 C 0.87255 0.91604 0.97965 0.0
C698 C 0.8515 0.94026 0.96525 0.0
C699 C 0.86469 0.94571 0.93933 0.0
H700 H 0.6042 0.61086 0.57141 0.0
H701 H 0.7528 0.62639 0.55162 0.0
H702 H 0.58451 0.60505 0.52533 0.0
H703 H 0.73362 0.61966 0.50545 0.0
H704 H 0.67821 0.62951 0.42242 0.0
H705 H 0.69507 0.64061 0.46815 0.0
H706 H 0.59374 0.56911 0.49102 0.0
H707 H 0.5747 0.55945 0.44548 0.0
C708 C 0.6327 0.61292 0.55715 0.0
C709 C 0.68008 0.61891 0.56514 0.0
C710 C 0.6215 0.60943 0.5307 0.0
C711 C 0.65749 0.61152 0.51152 0.0
C712 C 0.70479 0.61825 0.51954 0.0
C713 C 0.71589 0.62205 0.54603 0.0
C714 C 0.65891 0.61651 0.43719 0.0
C715 C 0.62505 0.59354 0.43011 0.0
C716 C 0.6691 0.62258 0.46349 0.0
C717 C 0.64591 0.60576 0.48344 0.0
C718 C 0.61191 0.58291 0.47632 0.0
C719 C 0.60149 0.57699 0.45008 0.0
H720 H 0.28518 0.65938 0.98301 0.0
H721 H 0.41983 0.61535 0.96462 0.0
H722 H 0.31246 0.668 0.02757 0.0
H723 H 0.44592 0.62226 1.00956 0.0
H724 H 0.50061 0.67463 0.08137 0.0
H725 H 0.4722 0.66281 0.03763 0.0
H726 H 0.33061 0.64381 0.06821 0.0
H727 H 0.35849 0.65743 0.11188 0.0
C728 C 0.32052 0.65138 0.98847 0.0
C729 C 0.35039 0.63687 0.97006 0.0
C730 C 0.33593 0.65593 1.01419 0.0
C731 C 0.38152 0.64593 0.02225 0.0
C732 C 0.41089 0.63072 1.004 0.0
C733 C 0.39561 0.62635 0.97825 0.0
C734 C 0.46329 0.66821 0.07879 0.0
C735 C 0.4318 0.66729 0.10021 0.0
C736 C 0.44711 0.66096 0.05368 0.0
C737 C 0.39902 0.65234 0.04927 0.0
C738 C 0.36772 0.65076 0.07077 0.0
C739 C 0.38388 0.65818 0.09591 0.0
H740 H 0.11585 0.89997 0.4645 0.0
H741 H 0.2526 0.85916 0.48364 0.0
H742 H 0.09054 0.89422 0.5096 0.0
H743 H 0.22597 0.85134 0.52832 0.0
H744 H 0.18004 0.86099 0.61238 0.0
H745 H 0.20722 0.87477 0.56869 0.0
H746 H 0.06546 0.85507 0.53848 0.0
H747 H 0.03765 0.84341 0.58224 0.0
C748 C 0.14073 0.88993 0.47831 0.0
C749 C 0.18631 0.87995 0.47024 0.0
C750 C 0.12586 0.88618 0.50419 0.0
C751 C 0.15593 0.87202 0.52272 0.0
C752 C 0.20189 0.86262 0.51477 0.0
C753 C 0.21694 0.86667 0.48895 0.0
C754 C 0.15443 0.86017 0.5965 0.0
C755 C 0.10666 0.85084 0.60094 0.0
C756 C 0.17021 0.86767 0.57132 0.0
C757 C 0.13872 0.86588 0.54986 0.0
C758 C 0.09075 0.85712 0.55443 0.0
C759 C 0.07492 0.8499 0.57959 0.0
H760 H 0.23741 0.33095 0.34277 0.0
H761 H 0.25127 0.27056 0.40948 0.0
H762 H 0.17946 0.29456 0.32323 0.0
H763 H 0.19313 0.23432 0.39024 0.0
H764 H 0.14518 0.16026 0.32956 0.0
H765 H 0.19448 0.19863 0.35246 0.0
H766 H 0.09769 0.27131 0.32856 0.0
H767 H 0.04851 0.23263 0.30531 0.0
C768 C 0.22752 0.31004 0.35333 0.0
C769 C 0.24912 0.30332 0.37743 0.0
C770 C 0.19424 0.28931 0.34227 0.0
C771 C 0.18192 0.26145 0.35512 0.0
C772 C 0.20238 0.25535 0.37968 0.0
C773 C 0.23548 0.27612 0.39075 0.0
C774 C 0.1342 0.1844 0.32947 0.0
C775 C 0.09316 0.19355 0.3157 0.0
C776 C 0.16225 0.20636 0.3427 0.0
C777 C 0.15 0.23804 0.34237 0.0
C778 C 0.10825 0.24711 0.32902 0.0
C779 C 0.07988 0.225 0.31594 0.0
H780 H 0.284 0.23012 0.89753 0.0
H781 H 0.38869 0.16612 0.86732 0.0
H782 H 0.32226 0.27267 0.87336 0.0
H783 H 0.428 0.20854 0.84392 0.0
H784 H 0.45959 0.28369 0.78437 0.0
H785 H 0.41829 0.24216 0.80767 0.0
H786 H 0.39328 0.30471 0.87229 0.0
H787 H 0.43225 0.34684 0.848 0.0
C788 C 0.31495 0.22514 0.88552 0.0
C789 C 0.33252 0.19464 0.88368 0.0
C790 C 0.33727 0.24956 0.87191 0.0
C791 C 0.37815 0.2441 0.85648 0.0
C792 C 0.39602 0.21359 0.85507 0.0
C793 C 0.37357 0.18923 0.86853 0.0
C794 C 0.44445 0.28871 0.80332 0.0
C795 C 0.44817 0.31869 0.81406 0.0
C796 C 0.42141 0.26475 0.81693 0.0
C797 C 0.40222 0.26996 0.84193 0.0
C798 C 0.40679 0.29992 0.8529 0.0
C799 C 0.42956 0.324 0.83912 0.0
H800 H 0.75882 0.26167 0.64068 0.0
H801 H 0.74473 0.19255 0.7012 0.0
H802 H 0.70067 0.29454 0.66306 0.0
H803 H 0.68553 0.22493 0.72342 0.0
H804 H 0.62801 0.30732 0.77066 0.0
H805 H 0.68262 0.27307 0.74767 0.0
H806 H 0.61673 0.29803 0.67436 0.0
H807 H 0.56284 0.33306 0.69725 0.0
C808 C 0.74305 0.25354 0.65877 0.0
C809 C 0.75665 0.2249 0.66952 0.0
C810 C 0.70947 0.27219 0.67149 0.0
C811 C 0.68855 0.26245 0.69512 0.0
C812 C 0.70155 0.23339 0.70551 0.0
C813 C 0.7352 0.2148 0.6928 0.0
C814 C 0.62501 0.30555 0.74964 0.0
C815 C 0.59112 0.32318 0.73583 0.0
C816 C 0.65619 0.28568 0.73646 0.0
C817 C 0.65416 0.28281 0.70915 0.0
C818 C 0.61974 0.30003 0.69537 0.0
C819 C 0.5886 0.31998 0.70855 0.0
H820 H 0.8017 0.27714 0.13957 0.0
H821 H 0.88937 0.3462 0.17832 0.0
H822 H 0.83913 0.23618 0.16565 0.0
H823 H 0.92786 0.30551 0.20379 0.0
H824 H 0.95658 0.23023 0.26294 0.0
H825 H 0.91339 0.26942 0.23827 0.0
H826 H 0.91459 0.20951 0.17047 0.0
H827 H 0.95598 0.1696 0.19573 0.0
C828 C 0.82886 0.28347 0.15378 0.0
C829 C 0.8423 0.31477 0.15718 0.0
C830 C 0.85061 0.26007 0.16854 0.0
C831 C 0.8865 0.26751 0.18689 0.0
C832 C 0.89978 0.29894 0.19021 0.0
C833 C 0.87792 0.32228 0.17554 0.0
C834 C 0.94679 0.22517 0.24292 0.0
C835 C 0.95896 0.19664 0.23139 0.0
C836 C 0.92261 0.24784 0.22864 0.0
C837 C 0.91052 0.24272 0.20233 0.0
C838 C 0.9227 0.21409 0.19079 0.0
C839 C 0.94675 0.19132 0.20516 0.0
H840 H 0.7394 0.75902 0.653 0.0
H841 H 0.83164 0.68147 0.67001 0.0
H842 H 0.79807 0.79466 0.67218 0.0
H843 H 0.89147 0.71713 0.68821 0.0
H844 H 0.95811 0.78529 0.74751 0.0
H845 H 0.90469 0.74879 0.7253 0.0
H846 H 0.8747 0.81855 0.66687 0.0
H847 H 0.92637 0.8555 0.69011 0.0
C848 C 0.77281 0.74971 0.66032 0.0
C849 C 0.78138 0.71756 0.65936 0.0
C850 C 0.80661 0.77014 0.67122 0.0
C851 C 0.84992 0.75893 0.68158 0.0
C852 C 0.85847 0.72666 0.6806 0.0
C853 C 0.82441 0.7062 0.66988 0.0
C854 C 0.93987 0.79279 0.72997 0.0
C855 C 0.94538 0.8234 0.72089 0.0
C856 C 0.90971 0.77174 0.71699 0.0
C857 C 0.88484 0.78068 0.69433 0.0
C858 C 0.89235 0.81099 0.68456 0.0
C859 C 0.92236 0.83209 0.69769 0.0
H860 H 0.7274 0.83593 0.19026 0.0
H861 H 0.66585 0.80243 0.11822 0.0
H862 H 0.69193 0.79168 0.21356 0.0
H863 H 0.62935 0.75853 0.14144 0.0
H864 H 0.60703 0.66839 0.18881 0.0
H865 H 0.64678 0.71043 0.16469 0.0
H866 H 0.61226 0.77468 0.2267 0.0
H867 H 0.57244 0.7328 0.25047 0.0
C868 C 0.70624 0.81901 0.17948 0.0
C869 C 0.69884 0.82271 0.15258 0.0
C870 C 0.68569 0.79381 0.19278 0.0
C871 C 0.65736 0.77169 0.17942 0.0
C872 C 0.6512 0.77497 0.15231 0.0
C873 C 0.67183 0.80019 0.13902 0.0
C874 C 0.60794 0.69155 0.19718 0.0
C875 C 0.58753 0.69724 0.22175 0.0
C876 C 0.63062 0.71563 0.18338 0.0
C877 C 0.63324 0.7459 0.19388 0.0
C878 C 0.61196 0.75154 0.21829 0.0
C879 C 0.58918 0.72755 0.23196 0.0
H880 H 0.29174 0.82425 0.33619 0.0
H881 H 0.28084 0.75545 0.39714 0.0
H882 H 0.35074 0.79213 0.31352 0.0
H883 H 0.33878 0.72285 0.37435 0.0
H884 H 0.4753 0.68443 0.33891 0.0
H885 H 0.42216 0.71958 0.36215 0.0
H886 H 0.35359 0.74385 0.28941 0.0
H887 H 0.4075 0.70945 0.26604 0.0
C888 C 0.30199 0.80216 0.34462 0.0
C889 C 0.28146 0.79206 0.36815 0.0
C890 C 0.33551 0.78369 0.33164 0.0
C891 C 0.34931 0.75478 0.34202 0.0
C892 C 0.32938 0.74509 0.36592 0.0
C893 C 0.29594 0.7636 0.37889 0.0
C894 C 0.44911 0.69738 0.32781 0.0
C895 C 0.44562 0.69391 0.30057 0.0
C896 C 0.4184 0.71741 0.34119 0.0
C897 C 0.38341 0.73446 0.32769 0.0
C898 C 0.38046 0.73138 0.30042 0.0
C899 C 0.41122 0.71142 0.28702 0.0
H900 H 0.1862 0.67378 0.8425 0.0
H901 H 0.21479 0.7388 0.90483 0.0
H902 H 0.15069 0.71542 0.81654 0.0
H903 H 0.18038 0.7808 0.87876 0.0
H904 H 0.05858 0.83516 0.84015 0.0
H905 H 0.10115 0.79548 0.86437 0.0
H906 H 0.16708 0.76348 0.79306 0.0
H907 H 0.12339 0.80285 0.76853 0.0
C908 C 0.18512 0.69711 0.8505 0.0
C909 C 0.20221 0.7031 0.8758 0.0
C910 C 0.16517 0.72101 0.8356 0.0
C911 C 0.16226 0.75142 0.84566 0.0
C912 C 0.18118 0.75753 0.87063 0.0
C913 C 0.20105 0.73361 0.88552 0.0
C914 C 0.08217 0.81976 0.82953 0.0
C915 C 0.08731 0.82218 0.80231 0.0
C916 C 0.10695 0.79711 0.84352 0.0
C917 C 0.13765 0.77631 0.83069 0.0
C918 C 0.14331 0.77893 0.8035 0.0
C919 C 0.11845 0.80163 0.78946 0.0
loop_
_geom_bond_atom_site_label_1
_geom_bond_atom_site_label_2
_geom_bond_distance
_geom_bond_site_symmetry_2
_ccdc_geom_bond_type
H0 C7 0.929 . S
H1 C10 0.930 . S
H2 C12 0.929 . S
H3 C4 0.969 . S
C4 H3 0.969 . S
C4 O5 1.550 . S
C4 H6 0.973 . S
O5 C4 1.550 . S
O5 C11 1.412 . S
H6 C4 0.973 . S
C7 H0 0.929 . S
C7 C8 1.400 . S
C7 C9 1.364 . S
C8 C7 1.400 . S
C8 C12 1.377 . S
C9 C7 1.364 . S
C9 C10 1.374 . S
C10 H1 0.930 . S
C10 C9 1.374 . S
C10 C11 1.383 . S
C11 O5 1.412 . S
C11 C10 1.383 . S
C11 C12 1.394 . S
C12 H2 0.929 . S
C12 C8 1.377 . S
C12 C11 1.394 . S
H13 C20 0.929 . S
H14 C23 0.930 . S
H15 C25 0.929 . S
H16 C17 0.969 . S
C17 H16 0.969 . S
C17 O18 1.550 . S
C17 H19 0.973 . S
O18 C17 1.550 . S
O18 C24 1.412 . S
H19 C17 0.973 . S
C20 H13 0.929 . S
C20 C21 1.400 . S
C20 C22 1.364 . S
C21 C20 1.400 . S
C21 C25 1.377 . S
C22 C20 1.364 . S
C22 C23 1.374 . S
C23 H14 0.930 . S
C23 C22 1.374 . S
C23 C24 1.383 . S
C24 O18 1.412 . S
C24 C23 1.383 . S
C24 C25 1.394 . S
C25 H15 0.929 . S
C25 C21 1.377 . S
C25 C24 1.394 . S
H26 C33 0.929 . S
H27 C36 0.930 . S
H28 C38 0.929 . S
H29 C30 0.969 . S
C30 H29 0.969 . S
C30 O31 1.550 . S
C30 H32 0.973 . S
O31 C30 1.550 . S
O31 C37 1.412 . S
H32 C30 0.973 . S
C33 H26 0.929 . S
C33 C34 1.400 . S
C33 C35 1.364 . S
C34 C33 1.400 . S
C34 C38 1.377 . S
C35 C33 1.364 . S
C35 C36 1.374 . S
C36 H27 0.930 . S
C36 C35 1.374 . S
C36 C37 1.383 . S
C37 O31 1.412 . S
C37 C36 1.383 . S
C37 C38 1.394 . S
C38 H28 0.929 . S
C38 C34 1.377 . S
C38 C37 1.394 . S
H39 C46 0.929 . S
H40 C49 0.930 . S
H41 C51 0.929 . S
H42 C43 0.969 . S
C43 H42 0.969 . S
C43 O44 1.550 . S
C43 H45 0.973 . S
O44 C43 1.550 . S
O44 C50 1.412 . S
H45 C43 0.973 . S
C46 H39 0.929 . S
C46 C47 1.400 . S
C46 C48 1.364 . S
C47 C46 1.400 . S
C47 C51 1.377 . S
C48 C46 1.364 . S
C48 C49 1.374 . S
C49 H40 0.930 . S
C49 C48 1.374 . S
C49 C50 1.383 . S
C50 O44 1.412 . S
C50 C49 1.383 . S
C50 C51 1.394 . S
C51 H41 0.929 . S
C51 C47 1.377 . S
C51 C50 1.394 . S
H52 C59 0.929 . S
H53 C62 0.930 . S
H54 C64 0.929 . S
H55 C56 0.969 . S
C56 H55 0.969 . S
C56 O57 1.550 . S
C56 H58 0.973 . S
O57 C56 1.550 . S
O57 C63 1.412 . S
H58 C56 0.973 . S
C59 H52 0.929 . S
C59 C60 1.400 . S
C59 C61 1.364 . S
C60 C59 1.400 . S
C60 C64 1.377 . S
C61 C59 1.364 . S
C61 C62 1.374 . S
C62 H53 0.930 . S
C62 C61 1.374 . S
C62 C63 1.383 . S
C63 O57 1.412 . S
C63 C62 1.383 . S
C63 C64 1.394 . S
C64 H54 0.929 . S
C64 C60 1.377 . S
C64 C63 1.394 . S
H65 C72 0.929 . S
H66 C75 0.930 . S
H67 C77 0.929 . S
H68 C69 0.969 . S
C69 H68 0.969 . S
C69 O70 1.550 . S
C69 H71 0.973 . S
O70 C69 1.550 . S
O70 C76 1.412 . S
H71 C69 0.973 . S
C72 H65 0.929 . S
C72 C73 1.400 . S
C72 C74 1.364 . S
C73 C72 1.400 . S
C73 C77 1.377 . S
C74 C72 1.364 . S
C74 C75 1.374 . S
C75 H66 0.930 . S
C75 C74 1.374 . S
C75 C76 1.383 . S
C76 O70 1.412 . S
C76 C75 1.383 . S
C76 C77 1.394 . S
C77 H67 0.929 . S
C77 C73 1.377 . S
C77 C76 1.394 . S
H78 C85 0.929 . S
H79 C88 0.930 . S
H80 C90 0.929 . S
H81 C82 0.969 . S
C82 H81 0.969 . S
C82 O83 1.550 . S
C82 H84 0.973 . S
O83 C82 1.550 . S
O83 C89 1.412 . S
H84 C82 0.973 . S
C85 H78 0.929 . S
C85 C86 1.400 . S
C85 C87 1.364 . S
C86 C85 1.400 . S
C86 C90 1.377 . S
C87 C85 1.364 . S
C87 C88 1.374 . S
C88 H79 0.930 . S
C88 C87 1.374 . S
C88 C89 1.383 . S
C89 O83 1.412 . S
C89 C88 1.383 . S
C89 C90 1.394 . S
C90 H80 0.929 . S
C90 C86 1.377 . S
C90 C89 1.394 . S
H91 C98 0.929 . S
H92 C101 0.930 . S
H93 C103 0.929 . S
H94 C95 0.969 . S
C95 H94 0.969 . S
C95 O96 1.550 . S
C95 H97 0.973 . S
O96 C95 1.550 . S
O96 C102 1.412 . S
H97 C95 0.973 . S
C98 H91 0.929 . S
C98 C99 1.400 . S
C98 C100 1.364 . S
C99 C98 1.400 . S
C99 C103 1.377 . S
C100 C98 1.364 . S
C100 C101 1.374 . S
C101 H92 0.930 . S
C101 C100 1.374 . S
C101 C102 1.383 . S
C102 O96 1.412 . S
C102 C101 1.383 . S
C102 C103 1.394 . S
C103 H93 0.929 . S
C103 C99 1.377 . S
C103 C102 1.394 . S
Tb104 N133 2.617 . S
Tb104 N139 2.572 . S
Tb104 O148 2.465 . S
Tb104 O149 2.387 . S
Tb104 O151 2.428 . S
Tb104 O152 2.308 . S
Tb104 O156 2.349 . S
Tb104 O159 2.393 . S
Tb104 C168 2.802 . S
C105 N106 1.379 . S
C105 C108 1.416 . S
C105 C112 1.424 . S
N106 C105 1.379 . S
N106 C109 1.334 . S
N106 Tb115 2.617 . S
C107 C109 1.390 . S
C107 C110 1.339 . S
C107 H127 0.930 . S
C108 C105 1.416 . S
C108 C110 1.416 . S
C108 C114 1.448 . S
C109 N106 1.334 . S
C109 C107 1.390 . S
C109 H120 0.930 . S
C110 C107 1.339 . S
C110 C108 1.416 . S
C110 H131 0.930 . S
C111 C112 1.413 . S
C111 C113 1.427 . S
C111 C117 1.419 . S
C112 C105 1.424 . S
C112 C111 1.413 . S
C112 N116 1.361 . S
C113 C111 1.427 . S
C113 C114 1.328 . S
C113 H128 0.929 . S
C114 C108 1.448 . S
C114 C113 1.328 . S
C114 H129 0.930 . S
Tb115 N106 2.617 . S
Tb115 N116 2.572 . S
Tb115 O150 2.349 1_655 S
Tb115 O153 2.393 . S
Tb115 O154 2.465 . S
Tb115 O155 2.387 . S
Tb115 O157 2.428 . S
Tb115 O158 2.308 1_655 S
Tb115 C179 2.802 . S
N116 C112 1.361 . S
N116 Tb115 2.572 . S
N116 C118 1.340 . S
C117 C111 1.419 . S
C117 C119 1.332 . S
C117 H125 0.928 1_545 S
C118 N116 1.340 . S
C118 C119 1.407 . S
C118 H124 0.930 . S
C119 C117 1.332 . S
C119 C118 1.407 . S
C119 H121 0.929 1_545 S
H120 C109 0.930 . S
H121 C119 0.929 1_565 S
H122 C137 0.930 . S
H123 C144 0.929 . S
H124 C118 0.930 . S
H125 C117 0.928 1_565 S
H126 C140 0.930 . S
H127 C107 0.930 . S
H128 C113 0.929 . S
H129 C114 0.930 . S
H130 C135 0.930 . S
H131 C110 0.930 . S
H132 C143 0.931 . S
N133 Tb104 2.617 . S
N133 C134 1.379 . S
N133 C137 1.334 . S
C134 N133 1.379 . S
C134 C136 1.416 . S
C134 C142 1.424 . S
C135 H130 0.930 . S
C135 C137 1.390 . S
C135 C138 1.339 . S
C136 C134 1.416 . S
C136 C138 1.416 . S
C136 C169 1.448 . S
C137 H122 0.930 . S
C137 N133 1.334 . S
C137 C135 1.390 . S
C138 C135 1.339 . S
C138 C136 1.416 . S
C138 H145 0.930 . S
N139 Tb104 2.572 . S
N139 C140 1.340 . S
N139 C142 1.361 . S
C140 H126 0.930 . S
C140 N139 1.340 . S
C140 C144 1.407 . S
C141 C142 1.413 . S
C141 C143 1.416 . S
C141 C170 1.427 . S
C142 C134 1.424 . S
C142 N139 1.361 . S
C142 C141 1.413 . S
C143 H132 0.931 . S
C143 C141 1.416 . S
C143 C144 1.332 . S
C144 H123 0.929 . S
C144 C140 1.407 . S
C144 C143 1.332 . S
H145 C138 0.930 . S
H146 C169 0.930 . S
H147 C170 0.929 . S
O148 Tb104 2.465 . S
O148 C168 1.264 . S
O149 Tb104 2.387 . S
O149 C160 1.264 . S
O150 Tb115 2.349 1_455 S
O150 C160 1.243 . S
O151 Tb104 2.428 . S
O151 C168 1.256 . S
O152 Tb104 2.308 . S
O152 C167 1.266 1_455 S
O153 Tb115 2.393 . S
O153 C167 1.248 . S
O154 Tb115 2.465 . S
O154 C179 1.264 . S
O155 Tb115 2.387 . S
O155 C171 1.264 . S
O156 Tb104 2.349 . S
O156 C171 1.243 1_455 S
O157 Tb115 2.428 . S
O157 C179 1.256 . S
O158 Tb115 2.308 1_455 S
O158 C178 1.266 . S
O159 Tb104 2.393 . S
O159 C178 1.248 . S
C160 O149 1.264 . S
C160 O150 1.243 . S
C161 C164 1.399 . S
C161 C166 1.383 . S
C161 C168 1.496 . S
C162 C163 1.399 . S
C162 C166 1.389 . S
C163 C162 1.399 . S
C163 C165 1.380 . S
C163 H180 0.929 . S
C164 C161 1.399 . S
C164 C165 1.392 . S
C164 H181 0.929 . S
C165 C163 1.380 . S
C165 C164 1.392 . S
C165 H182 0.929 . S
C166 C161 1.383 . S
C166 C162 1.389 . S
C166 H183 0.931 . S
C167 O152 1.266 1_655 S
C167 O153 1.248 . S
C168 Tb104 2.802 . S
C168 O148 1.264 . S
C168 O151 1.256 . S
C168 C161 1.496 . S
C169 C136 1.448 . S
C169 H146 0.930 . S
C169 C170 1.328 . S
C170 C141 1.427 . S
C170 H147 0.929 . S
C170 C169 1.328 . S
C171 O155 1.264 . S
C171 O156 1.243 1_655 S
C172 C175 1.399 . S
C172 C176 1.383 . S
C172 C179 1.496 . S
C173 C174 1.399 . S
C173 C176 1.389 . S
C174 C173 1.399 . S
C174 C177 1.380 . S
C174 H184 0.929 . S
C175 C172 1.399 . S
C175 C177 1.392 . S
C175 H185 0.929 . S
C176 C172 1.383 . S
C176 C173 1.389 . S
C176 H186 0.931 . S
C177 C174 1.380 . S
C177 C175 1.392 . S
C177 H187 0.929 . S
C178 O158 1.266 . S
C178 O159 1.248 . S
C179 Tb115 2.802 . S
C179 O154 1.264 . S
C179 O157 1.256 . S
C179 C172 1.496 . S
H180 C163 0.929 . S
H181 C164 0.929 . S
H182 C165 0.929 . S
H183 C166 0.931 . S
H184 C174 0.929 . S
H185 C175 0.929 . S
H186 C176 0.931 . S
H187 C177 0.929 . S
Tb188 N217 2.617 . S
Tb188 N223 2.572 . S
Tb188 O232 2.465 . S
Tb188 O233 2.387 . S
Tb188 O235 2.428 . S
Tb188 O236 2.308 . S
Tb188 O240 2.349 . S
Tb188 O243 2.393 . S
Tb188 C252 2.802 . S
C189 N190 1.379 . S
C189 C192 1.416 . S
C189 C196 1.424 . S
N190 C189 1.379 . S
N190 C193 1.334 . S
N190 Tb199 2.617 . S
C191 C193 1.390 . S
C191 C194 1.339 . S
C191 H211 0.930 . S
C192 C189 1.416 . S
C192 C194 1.416 . S
C192 C198 1.448 . S
C193 N190 1.334 . S
C193 C191 1.390 . S
C193 H204 0.930 . S
C194 C191 1.339 . S
C194 C192 1.416 . S
C194 H215 0.930 . S
C195 C196 1.413 . S
C195 C197 1.427 . S
C195 C201 1.416 . S
C196 C189 1.424 . S
C196 C195 1.413 . S
C196 N200 1.361 . S
C197 C195 1.427 . S
C197 C198 1.328 . S
C197 H212 0.929 . S
C198 C192 1.448 . S
C198 C197 1.328 . S
C198 H213 0.930 . S
Tb199 N190 2.617 . S
Tb199 N200 2.572 . S
Tb199 O234 2.349 . S
Tb199 O237 2.393 . S
Tb199 O238 2.465 . S
Tb199 O239 2.387 . S
Tb199 O241 2.428 . S
Tb199 O242 2.308 . S
Tb199 C263 2.802 . S
N200 C196 1.361 . S
N200 Tb199 2.572 . S
N200 C202 1.340 . S
C201 C195 1.416 . S
C201 C203 1.332 . S
C201 H209 0.931 . S
C202 N200 1.340 . S
C202 C203 1.407 . S
C202 H208 0.930 . S
C203 C201 1.332 . S
C203 C202 1.407 . S
C203 H205 0.929 . S
H204 C193 0.930 . S
H205 C203 0.929 . S
H206 C221 0.930 . S
H207 C228 0.929 . S
H208 C202 0.930 . S
H209 C201 0.931 . S
H210 C224 0.930 . S
H211 C191 0.930 . S
H212 C197 0.929 . S
H213 C198 0.930 . S
H214 C219 0.930 . S
H215 C194 0.930 . S
H216 C227 0.931 . S
N217 Tb188 2.617 . S
N217 C218 1.379 . S
N217 C221 1.334 . S
C218 N217 1.379 . S
C218 C220 1.416 . S
C218 C226 1.424 . S
C219 H214 0.930 . S
C219 C221 1.390 . S
C219 C222 1.339 . S
C220 C218 1.416 . S
C220 C222 1.416 . S
C220 C253 1.448 . S
C221 H206 0.930 . S
C221 N217 1.334 . S
C221 C219 1.390 . S
C222 C219 1.339 . S
C222 C220 1.416 . S
C222 H229 0.930 . S
N223 Tb188 2.572 . S
N223 C224 1.340 . S
N223 C226 1.361 . S
C224 H210 0.930 . S
C224 N223 1.340 . S
C224 C228 1.407 . S
C225 C226 1.413 . S
C225 C227 1.416 . S
C225 C254 1.427 . S
C226 C218 1.424 . S
C226 N223 1.361 . S
C226 C225 1.413 . S
C227 H216 0.931 . S
C227 C225 1.416 . S
C227 C228 1.332 . S
C228 H207 0.929 . S
C228 C224 1.407 . S
C228 C227 1.332 . S
H229 C222 0.930 . S
H230 C253 0.930 . S
H231 C254 0.929 . S
O232 Tb188 2.465 . S
O232 C252 1.264 . S
O233 Tb188 2.387 . S
O233 C244 1.264 . S
O234 Tb199 2.349 . S
O234 C244 1.243 . S
O235 Tb188 2.428 . S
O235 C252 1.256 . S
O236 Tb188 2.308 . S
O236 C251 1.266 . S
O237 Tb199 2.393 . S
O237 C251 1.248 . S
O238 Tb199 2.465 . S
O238 C263 1.264 . S
O239 Tb199 2.387 . S
O239 C255 1.264 . S
O240 Tb188 2.349 . S
O240 C255 1.243 . S
O241 Tb199 2.428 . S
O241 C263 1.256 . S
O242 Tb199 2.308 . S
O242 C262 1.266 . S
O243 Tb188 2.393 . S
O243 C262 1.248 . S
C244 O233 1.264 . S
C244 O234 1.243 . S
C245 C248 1.399 . S
C245 C250 1.383 . S
C245 C252 1.496 . S
C246 C247 1.399 . S
C246 C250 1.389 . S
C247 C246 1.399 . S
C247 C249 1.380 . S
C247 H264 0.929 . S
C248 C245 1.399 . S
C248 C249 1.392 . S
C248 H265 0.929 . S
C249 C247 1.380 . S
C249 C248 1.392 . S
C249 H266 0.929 . S
C250 C245 1.383 . S
C250 C246 1.389 . S
C250 H267 0.931 . S
C251 O236 1.266 . S
C251 O237 1.248 . S
C252 Tb188 2.802 . S
C252 O232 1.264 . S
C252 O235 1.256 . S
C252 C245 1.496 . S
C253 C220 1.448 . S
C253 H230 0.930 . S
C253 C254 1.328 . S
C254 C225 1.427 . S
C254 H231 0.929 . S
C254 C253 1.328 . S
C255 O239 1.264 . S
C255 O240 1.243 . S
C256 C259 1.399 . S
C256 C260 1.383 . S
C256 C263 1.496 . S
C257 C258 1.399 . S
C257 C260 1.389 . S
C258 C257 1.399 . S
C258 C261 1.380 . S
C258 H268 0.929 . S
C259 C256 1.399 . S
C259 C261 1.392 . S
C259 H269 0.929 . S
C260 C256 1.383 . S
C260 C257 1.389 . S
C260 H270 0.931 . S
C261 C258 1.380 . S
C261 C259 1.392 . S
C261 H271 0.929 . S
C262 O242 1.266 . S
C262 O243 1.248 . S
C263 Tb199 2.802 . S
C263 O238 1.264 . S
C263 O241 1.256 . S
C263 C256 1.496 . S
H264 C247 0.929 . S
H265 C248 0.929 . S
H266 C249 0.929 . S
H267 C250 0.931 . S
H268 C258 0.929 . S
H269 C259 0.929 . S
H270 C260 0.931 . S
H271 C261 0.929 . S
Tb272 N301 2.617 . S
Tb272 N307 2.572 . S
Tb272 O316 2.465 . S
Tb272 O317 2.387 . S
Tb272 O319 2.428 . S
Tb272 O320 2.308 . S
Tb272 O324 2.349 . S
Tb272 O327 2.393 . S
Tb272 C336 2.802 . S
C273 N274 1.379 . S
C273 C276 1.416 . S
C273 C280 1.424 . S
N274 C273 1.379 . S
N274 C277 1.334 . S
N274 Tb283 2.617 . S
C275 C277 1.390 . S
C275 C278 1.339 . S
C275 H295 0.930 . S
C276 C273 1.416 . S
C276 C278 1.416 . S
C276 C282 1.448 . S
C277 N274 1.334 . S
C277 C275 1.390 . S
C277 H288 0.930 . S
C278 C275 1.339 . S
C278 C276 1.416 . S
C278 H299 0.930 . S
C279 C280 1.413 . S
C279 C281 1.427 . S
C279 C285 1.416 . S
C280 C273 1.424 . S
C280 C279 1.413 . S
C280 N284 1.361 . S
C281 C279 1.427 . S
C281 C282 1.328 . S
C281 H296 0.929 . S
C282 C276 1.448 . S
C282 C281 1.328 . S
C282 H297 0.930 . S
Tb283 N274 2.617 . S
Tb283 N284 2.572 . S
Tb283 O318 2.349 1_655 S
Tb283 O321 2.393 . S
Tb283 O322 2.465 . S
Tb283 O323 2.387 . S
Tb283 O325 2.428 . S
Tb283 O326 2.308 1_655 S
Tb283 C347 2.802 . S
N284 C280 1.361 . S
N284 Tb283 2.572 . S
N284 C286 1.340 . S
C285 C279 1.416 . S
C285 C287 1.332 . S
C285 H293 0.931 . S
C286 N284 1.340 . S
C286 C287 1.407 . S
C286 H292 0.930 . S
C287 C285 1.332 . S
C287 C286 1.407 . S
C287 H289 0.929 . S
H288 C277 0.930 . S
H289 C287 0.929 . S
H290 C305 0.930 . S
H291 C312 0.929 1_545 S
H292 C286 0.930 . S
H293 C285 0.931 . S
H294 C308 0.930 . S
H295 C275 0.930 . S
H296 C281 0.929 . S
H297 C282 0.930 . S
H298 C303 0.930 . S
H299 C278 0.930 . S
H300 C311 0.929 1_545 S
N301 Tb272 2.617 . S
N301 C302 1.379 . S
N301 C305 1.334 . S
C302 N301 1.379 . S
C302 C304 1.416 . S
C302 C310 1.424 . S
C303 H298 0.930 . S
C303 C305 1.390 . S
C303 C306 1.339 . S
C304 C302 1.416 . S
C304 C306 1.416 . S
C304 C337 1.448 . S
C305 H290 0.930 . S
C305 N301 1.334 . S
C305 C303 1.390 . S
C306 C303 1.339 . S
C306 C304 1.416 . S
C306 H313 0.930 . S
N307 Tb272 2.572 . S
N307 C308 1.340 . S
N307 C310 1.361 . S
C308 H294 0.930 . S
C308 N307 1.340 . S
C308 C312 1.407 . S
C309 C310 1.413 . S
C309 C311 1.417 . S
C309 C338 1.427 . S
C310 C302 1.424 . S
C310 N307 1.361 . S
C310 C309 1.413 . S
C311 H300 0.929 1_565 S
C311 C309 1.417 . S
C311 C312 1.332 . S
C312 H291 0.929 1_565 S
C312 C308 1.407 . S
C312 C311 1.332 . S
H313 C306 0.930 . S
H314 C337 0.930 . S
H315 C338 0.929 . S
O316 Tb272 2.465 . S
O316 C336 1.264 . S
O317 Tb272 2.387 . S
O317 C328 1.264 . S
O318 Tb283 2.349 1_455 S
O318 C328 1.243 . S
O319 Tb272 2.428 . S
O319 C336 1.256 . S
O320 Tb272 2.308 . S
O320 C335 1.266 1_455 S
O321 Tb283 2.393 . S
O321 C335 1.248 . S
O322 Tb283 2.465 . S
O322 C347 1.264 . S
O323 Tb283 2.387 . S
O323 C339 1.264 . S
O324 Tb272 2.349 . S
O324 C339 1.243 1_455 S
O325 Tb283 2.428 . S
O325 C347 1.256 . S
O326 Tb283 2.308 1_455 S
O326 C346 1.266 . S
O327 Tb272 2.393 . S
O327 C346 1.248 . S
C328 O317 1.264 . S
C328 O318 1.243 . S
C329 C332 1.399 . S
C329 C334 1.383 . S
C329 C336 1.496 . S
C330 C331 1.399 . S
C330 C334 1.389 . S
C331 C330 1.399 . S
C331 C333 1.380 . S
C331 H348 0.929 . S
C332 C329 1.399 . S
C332 C333 1.392 . S
C332 H349 0.929 . S
C333 C331 1.380 . S
C333 C332 1.392 . S
C333 H350 0.929 . S
C334 C329 1.383 . S
C334 C330 1.389 . S
C334 H351 0.931 . S
C335 O320 1.266 1_655 S
C335 O321 1.248 . S
C336 Tb272 2.802 . S
C336 O316 1.264 . S
C336 O319 1.256 . S
C336 C329 1.496 . S
C337 C304 1.448 . S
C337 H314 0.930 . S
C337 C338 1.328 . S
C338 C309 1.427 . S
C338 H315 0.929 . S
C338 C337 1.328 . S
C339 O323 1.264 . S
C339 O324 1.243 1_655 S
C340 C343 1.399 . S
C340 C344 1.383 . S
C340 C347 1.496 . S
C341 C342 1.399 . S
C341 C344 1.389 . S
C342 C341 1.399 . S
C342 C345 1.380 . S
C342 H352 0.929 . S
C343 C340 1.399 . S
C343 C345 1.392 . S
C343 H353 0.929 . S
C344 C340 1.383 . S
C344 C341 1.389 . S
C344 H354 0.931 . S
C345 C342 1.380 . S
C345 C343 1.392 . S
C345 H355 0.929 . S
C346 O326 1.266 . S
C346 O327 1.248 . S
C347 Tb283 2.802 . S
C347 O322 1.264 . S
C347 O325 1.256 . S
C347 C340 1.496 . S
H348 C331 0.929 . S
H349 C332 0.929 . S
H350 C333 0.929 . S
H351 C334 0.931 . S
H352 C342 0.929 . S
H353 C343 0.929 . S
H354 C344 0.931 . S
H355 C345 0.929 . S
Tb356 N385 2.617 . S
Tb356 N391 2.572 . S
Tb356 O400 2.465 . S
Tb356 O401 2.387 . S
Tb356 O403 2.428 . S
Tb356 O404 2.308 . S
Tb356 O408 2.349 . S
Tb356 O411 2.393 . S
Tb356 C420 2.802 . S
C357 N358 1.379 . S
C357 C360 1.416 . S
C357 C364 1.424 . S
N358 C357 1.379 . S
N358 C361 1.334 . S
N358 Tb367 2.617 . S
C359 C361 1.390 . S
C359 C362 1.339 . S
C359 H379 0.930 . S
C360 C357 1.416 . S
C360 C362 1.416 . S
C360 C366 1.448 . S
C361 N358 1.334 . S
C361 C359 1.390 . S
C361 H372 0.930 . S
C362 C359 1.339 . S
C362 C360 1.416 . S
C362 H383 0.930 . S
C363 C364 1.413 . S
C363 C365 1.427 . S
C363 C369 1.416 . S
C364 C357 1.424 . S
C364 C363 1.413 . S
C364 N368 1.361 . S
C365 C363 1.427 . S
C365 C366 1.328 . S
C365 H380 0.929 . S
C366 C360 1.448 . S
C366 C365 1.328 . S
C366 H381 0.930 . S
Tb367 N358 2.617 . S
Tb367 N368 2.572 . S
Tb367 O402 2.349 . S
Tb367 O405 2.393 . S
Tb367 O406 2.465 . S
Tb367 O407 2.387 . S
Tb367 O409 2.428 . S
Tb367 O410 2.308 . S
Tb367 C431 2.802 . S
N368 C364 1.361 . S
N368 Tb367 2.572 . S
N368 C370 1.340 . S
C369 C363 1.416 . S
C369 C371 1.332 . S
C369 H377 0.931 . S
C370 N368 1.340 . S
C370 C371 1.407 . S
C370 H376 0.930 . S
C371 C369 1.332 . S
C371 C370 1.407 . S
C371 H373 0.929 . S
H372 C361 0.930 . S
H373 C371 0.929 . S
H374 C389 0.930 . S
H375 C396 0.929 . S
H376 C370 0.930 . S
H377 C369 0.931 . S
H378 C392 0.930 . S
H379 C359 0.930 . S
H380 C365 0.929 . S
H381 C366 0.930 . S
H382 C387 0.930 . S
H383 C362 0.930 . S
H384 C395 0.931 . S
N385 Tb356 2.617 . S
N385 C386 1.379 . S
N385 C389 1.334 . S
C386 N385 1.379 . S
C386 C388 1.416 . S
C386 C394 1.424 . S
C387 H382 0.930 . S
C387 C389 1.390 . S
C387 C390 1.339 . S
C388 C386 1.416 . S
C388 C390 1.416 . S
C388 C421 1.448 . S
C389 H374 0.930 . S
C389 N385 1.334 . S
C389 C387 1.390 . S
C390 C387 1.339 . S
C390 C388 1.416 . S
C390 H397 0.930 . S
N391 Tb356 2.572 . S
N391 C392 1.340 . S
N391 C394 1.361 . S
C392 H378 0.930 . S
C392 N391 1.340 . S
C392 C396 1.407 . S
C393 C394 1.413 . S
C393 C395 1.416 . S
C393 C422 1.427 . S
C394 C386 1.424 . S
C394 N391 1.361 . S
C394 C393 1.413 . S
C395 H384 0.931 . S
C395 C393 1.416 . S
C395 C396 1.332 . S
C396 H375 0.929 . S
C396 C392 1.407 . S
C396 C395 1.332 . S
H397 C390 0.930 . S
H398 C421 0.930 . S
H399 C422 0.929 . S
O400 Tb356 2.465 . S
O400 C420 1.264 . S
O401 Tb356 2.387 . S
O401 C412 1.264 . S
O402 Tb367 2.349 . S
O402 C412 1.243 . S
O403 Tb356 2.428 . S
O403 C420 1.256 . S
O404 Tb356 2.308 . S
O404 C419 1.266 . S
O405 Tb367 2.393 . S
O405 C419 1.248 . S
O406 Tb367 2.465 . S
O406 C431 1.264 . S
O407 Tb367 2.387 . S
O407 C423 1.264 . S
O408 Tb356 2.349 . S
O408 C423 1.243 . S
O409 Tb367 2.428 . S
O409 C431 1.256 . S
O410 Tb367 2.308 . S
O410 C430 1.266 . S
O411 Tb356 2.393 . S
O411 C430 1.248 . S
C412 O401 1.264 . S
C412 O402 1.243 . S
C413 C416 1.399 . S
C413 C418 1.383 . S
C413 C420 1.496 . S
C414 C415 1.399 . S
C414 C418 1.389 . S
C415 C414 1.399 . S
C415 C417 1.380 . S
C415 H432 0.929 . S
C416 C413 1.399 . S
C416 C417 1.392 . S
C416 H433 0.929 . S
C417 C415 1.380 . S
C417 C416 1.392 . S
C417 H434 0.929 . S
C418 C413 1.383 . S
C418 C414 1.389 . S
C418 H435 0.931 . S
C419 O404 1.266 . S
C419 O405 1.248 . S
C420 Tb356 2.802 . S
C420 O400 1.264 . S
C420 O403 1.256 . S
C420 C413 1.496 . S
C421 C388 1.448 . S
C421 H398 0.930 . S
C421 C422 1.328 . S
C422 C393 1.427 . S
C422 H399 0.929 . S
C422 C421 1.328 . S
C423 O407 1.264 . S
C423 O408 1.243 . S
C424 C427 1.399 . S
C424 C428 1.383 . S
C424 C431 1.496 . S
C425 C426 1.399 . S
C425 C428 1.389 . S
C426 C425 1.399 . S
C426 C429 1.380 . S
C426 H436 0.929 . S
C427 C424 1.399 . S
C427 C429 1.392 . S
C427 H437 0.929 . S
C428 C424 1.383 . S
C428 C425 1.389 . S
C428 H438 0.931 . S
C429 C426 1.380 . S
C429 C427 1.392 . S
C429 H439 0.929 . S
C430 O410 1.266 . S
C430 O411 1.248 . S
C431 Tb367 2.802 . S
C431 O406 1.264 . S
C431 O409 1.256 . S
C431 C424 1.496 . S
H432 C415 0.929 . S
H433 C416 0.929 . S
H434 C417 0.929 . S
H435 C418 0.931 . S
H436 C426 0.929 . S
H437 C427 0.929 . S
H438 C428 0.931 . S
H439 C429 0.929 . S
H440 C448 0.950 . S
H441 C453 0.950 . S
H442 C450 0.950 . S
H443 C452 0.950 . S
H444 C454 0.950 . S
H445 C456 0.950 . S
H446 C458 0.950 . S
H447 C459 0.950 . S
C448 H440 0.950 . S
C448 C449 1.386 . S
C448 C450 1.391 . S
C449 C448 1.386 . S
C449 C453 1.393 . S
C450 H442 0.950 . S
C450 C448 1.391 . S
C450 C451 1.400 . S
C451 C450 1.400 . S
C451 C452 1.398 . S
C451 C457 1.491 . S
C452 H443 0.950 . S
C452 C451 1.398 . S
C452 C453 1.391 . S
C453 H441 0.950 . S
C453 C449 1.393 . S
C453 C452 1.391 . S
C454 H444 0.950 . S
C454 C455 1.386 . S
C454 C456 1.391 1_545 S
C455 C454 1.386 . S
C455 C459 1.393 . S
C456 H445 0.950 . S
C456 C454 1.391 1_565 S
C456 C457 1.400 . S
C457 C451 1.491 . S
C457 C456 1.400 . S
C457 C458 1.398 1_565 S
C458 H446 0.950 . S
C458 C457 1.398 1_545 S
C458 C459 1.391 . S
C459 H447 0.950 . S
C459 C455 1.393 . S
C459 C458 1.391 . S
H460 C468 0.950 . S
H461 C473 0.950 . S
H462 C470 0.950 . S
H463 C472 0.950 . S
H464 C474 0.950 . S
H465 C476 0.950 . S
H466 C478 0.950 . S
H467 C479 0.950 . S
C468 H460 0.950 . S
C468 C469 1.386 . S
C468 C470 1.391 . S
C469 C468 1.386 . S
C469 C473 1.393 . S
C470 H462 0.950 . S
C470 C468 1.391 . S
C470 C471 1.400 . S
C471 C470 1.400 . S
C471 C472 1.398 . S
C471 C477 1.491 . S
C472 H463 0.950 . S
C472 C471 1.398 . S
C472 C473 1.391 . S
C473 H461 0.950 . S
C473 C469 1.393 . S
C473 C472 1.391 . S
C474 H464 0.950 . S
C474 C475 1.386 . S
C474 C476 1.391 . S
C475 C474 1.386 . S
C475 C479 1.393 . S
C476 H465 0.950 . S
C476 C474 1.391 . S
C476 C477 1.400 . S
C477 C471 1.491 . S
C477 C476 1.400 . S
C477 C478 1.398 . S
C478 H466 0.950 . S
C478 C477 1.398 . S
C478 C479 1.391 . S
C479 H467 0.950 . S
C479 C475 1.393 . S
C479 C478 1.391 . S
H480 C488 0.950 . S
H481 C493 0.950 . S
H482 C490 0.950 . S
H483 C492 0.950 . S
H484 C494 0.950 . S
H485 C496 0.950 . S
H486 C498 0.950 . S
H487 C499 0.950 . S
C488 H480 0.950 . S
C488 C489 1.386 . S
C488 C490 1.391 . S
C489 C488 1.386 . S
C489 C493 1.393 . S
C490 H482 0.950 . S
C490 C488 1.391 . S
C490 C491 1.400 . S
C491 C490 1.400 . S
C491 C492 1.398 . S
C491 C497 1.491 . S
C492 H483 0.950 . S
C492 C491 1.398 . S
C492 C493 1.391 . S
C493 H481 0.950 . S
C493 C489 1.393 . S
C493 C492 1.391 . S
C494 H484 0.950 . S
C494 C495 1.386 . S
C494 C496 1.391 . S
C495 C494 1.386 . S
C495 C499 1.393 . S
C496 H485 0.950 . S
C496 C494 1.391 . S
C496 C497 1.400 . S
C497 C491 1.491 . S
C497 C496 1.400 . S
C497 C498 1.398 . S
C498 H486 0.950 . S
C498 C497 1.398 . S
C498 C499 1.391 . S
C499 H487 0.950 . S
C499 C495 1.393 . S
C499 C498 1.391 . S
H500 C508 0.950 . S
H501 C513 0.950 . S
H502 C510 0.950 . S
H503 C512 0.950 . S
H504 C514 0.950 . S
H505 C516 0.950 . S
H506 C518 0.950 . S
H507 C519 0.950 1_455 S
C508 H500 0.950 . S
C508 C509 1.386 . S
C508 C510 1.391 . S
C509 C508 1.386 . S
C509 C513 1.393 . S
C510 H502 0.950 . S
C510 C508 1.391 . S
C510 C511 1.400 . S
C511 C510 1.400 . S
C511 C512 1.398 . S
C511 C517 1.491 . S
C512 H503 0.950 . S
C512 C511 1.398 . S
C512 C513 1.391 . S
C513 H501 0.950 . S
C513 C509 1.393 . S
C513 C512 1.391 . S
C514 H504 0.950 . S
C514 C515 1.386 . S
C514 C516 1.391 . S
C515 C514 1.386 . S
C515 C519 1.393 . S
C516 H505 0.950 . S
C516 C514 1.391 . S
C516 C517 1.400 1_545 S
C517 C511 1.491 . S
C517 C516 1.400 1_565 S
C517 C518 1.398 . S
C518 H506 0.950 . S
C518 C517 1.398 . S
C518 C519 1.391 1_565 S
C519 H507 0.950 1_655 S
C519 C515 1.393 . S
C519 C518 1.391 1_545 S
H520 C528 0.950 . S
H521 C533 0.950 . S
H522 C530 0.950 . S
H523 C532 0.950 . S
H524 C534 0.950 . S
H525 C536 0.950 . S
H526 C538 0.950 . S
H527 C539 0.950 . S
C528 H520 0.950 . S
C528 C529 1.386 . S
C528 C530 1.391 . S
C529 C528 1.386 . S
C529 C533 1.393 . S
C530 H522 0.950 . S
C530 C528 1.391 . S
C530 C531 1.400 . S
C531 C530 1.400 . S
C531 C532 1.398 . S
C531 C537 1.491 . S
C532 H523 0.950 . S
C532 C531 1.398 . S
C532 C533 1.391 . S
C533 H521 0.950 . S
C533 C529 1.393 . S
C533 C532 1.391 . S
C534 H524 0.950 . S
C534 C535 1.386 . S
C534 C536 1.391 1_565 S
C535 C534 1.386 . S
C535 C539 1.393 . S
C536 H525 0.950 . S
C536 C534 1.391 1_545 S
C536 C537 1.400 . S
C537 C531 1.491 . S
C537 C536 1.400 . S
C537 C538 1.398 1_545 S
C538 H526 0.950 . S
C538 C537 1.398 1_565 S
C538 C539 1.391 . S
C539 H527 0.950 . S
C539 C535 1.393 . S
C539 C538 1.391 . S
H540 C548 0.950 . S
H541 C553 0.950 . S
H542 C550 0.950 . S
H543 C552 0.950 . S
H544 C554 0.950 . S
H545 C556 0.950 . S
H546 C558 0.950 . S
H547 C559 0.950 . S
C548 H540 0.950 . S
C548 C549 1.386 . S
C548 C550 1.391 . S
C549 C548 1.386 . S
C549 C553 1.393 . S
C550 H542 0.950 . S
C550 C548 1.391 . S
C550 C551 1.400 . S
C551 C550 1.400 . S
C551 C552 1.398 . S
C551 C557 1.491 . S
C552 H543 0.950 . S
C552 C551 1.398 . S
C552 C553 1.391 . S
C553 H541 0.950 . S
C553 C549 1.393 . S
C553 C552 1.391 . S
C554 H544 0.950 . S
C554 C555 1.386 . S
C554 C556 1.391 . S
C555 C554 1.386 . S
C555 C559 1.393 . S
C556 H545 0.950 . S
C556 C554 1.391 . S
C556 C557 1.400 . S
C557 C551 1.491 . S
C557 C556 1.400 . S
C557 C558 1.398 . S
C558 H546 0.950 . S
C558 C557 1.398 . S
C558 C559 1.391 . S
C559 H547 0.950 . S
C559 C555 1.393 . S
C559 C558 1.391 . S
H560 C568 0.950 . S
H561 C573 0.950 . S
H562 C570 0.950 . S
H563 C572 0.950 . S
H564 C574 0.950 . S
H565 C576 0.950 . S
H566 C578 0.950 . S
H567 C579 0.950 . S
C568 H560 0.950 . S
C568 C569 1.386 . S
C568 C570 1.391 . S
C569 C568 1.386 . S
C569 C573 1.393 . S
C570 H562 0.950 . S
C570 C568 1.391 . S
C570 C571 1.400 . S
C571 C570 1.400 . S
C571 C572 1.398 . S
C571 C577 1.491 . S
C572 H563 0.950 . S
C572 C571 1.398 . S
C572 C573 1.391 . S
C573 H561 0.950 . S
C573 C569 1.393 . S
C573 C572 1.391 . S
C574 H564 0.950 . S
C574 C575 1.386 . S
C574 C576 1.391 . S
C575 C574 1.386 . S
C575 C579 1.393 . S
C576 H565 0.950 . S
C576 C574 1.391 . S
C576 C577 1.400 . S
C577 C571 1.491 . S
C577 C576 1.400 . S
C577 C578 1.398 . S
C578 H566 0.950 . S
C578 C577 1.398 . S
C578 C579 1.391 . S
C579 H567 0.950 . S
C579 C575 1.393 . S
C579 C578 1.391 . S
H580 C588 0.950 . S
H581 C593 0.950 . S
H582 C590 0.950 . S
H583 C592 0.975 . S
H584 C594 0.950 . S
H585 C596 0.950 . S
H586 C598 0.950 . S
H587 C599 0.939 1_545 S
C588 H580 0.950 . S
C588 C589 1.386 . S
C588 C590 1.391 . S
C589 C588 1.386 . S
C589 C593 1.393 . S
C590 H582 0.950 . S
C590 C588 1.391 . S
C590 C591 1.400 . S
C591 C590 1.400 . S
C591 C592 1.398 . S
C591 C597 1.491 . S
C592 H583 0.975 . S
C592 C591 1.398 . S
C592 C593 1.391 . S
C593 H581 0.950 . S
C593 C589 1.393 . S
C593 C592 1.391 . S
C594 H584 0.950 . S
C594 C595 1.386 . S
C594 C596 1.391 . S
C595 C594 1.386 . S
C595 C599 1.393 . S
C596 H585 0.950 . S
C596 C594 1.391 . S
C596 C597 1.400 1_565 S
C597 C591 1.491 . S
C597 C596 1.400 1_545 S
C597 C598 1.398 . S
C598 H586 0.950 . S
C598 C597 1.398 . S
C598 C599 1.391 1_545 S
C599 H587 0.939 1_565 S
C599 C595 1.393 . S
C599 C598 1.391 1_565 S
H600 C608 0.950 . S
H601 C613 0.950 . S
H602 C610 0.950 . S
H603 C612 0.950 1_554 S
H604 C614 0.950 . S
H605 C616 0.950 . S
H606 C618 0.950 . S
H607 C619 0.950 . S
C608 H600 0.950 . S
C608 C609 1.386 . S
C608 C610 1.391 . S
C609 C608 1.386 . S
C609 C613 1.393 . S
C610 H602 0.950 . S
C610 C608 1.391 . S
C610 C611 1.400 1_556 S
C611 C610 1.400 1_554 S
C611 C612 1.398 1_554 S
C611 C617 1.491 . S
C612 H603 0.950 1_556 S
C612 C611 1.398 1_556 S
C612 C613 1.391 . S
C613 H601 0.950 . S
C613 C609 1.393 . S
C613 C612 1.391 . S
C614 H604 0.950 . S
C614 C615 1.386 . S
C614 C616 1.391 . S
C615 C614 1.386 . S
C615 C619 1.393 . S
C616 H605 0.950 . S
C616 C614 1.391 . S
C616 C617 1.400 . S
C617 C611 1.491 . S
C617 C616 1.400 . S
C617 C618 1.398 . S
C618 H606 0.950 . S
C618 C617 1.398 . S
C618 C619 1.391 . S
C619 H607 0.950 . S
C619 C615 1.393 . S
C619 C618 1.391 . S
H620 C628 0.950 . S
H621 C633 0.950 . S
H622 C630 0.950 . S
H623 C632 0.950 . S
H624 C634 0.950 . S
H625 C636 0.950 . S
H626 C638 0.950 . S
H627 C639 0.950 . S
C628 H620 0.950 . S
C628 C629 1.386 . S
C628 C630 1.391 . S
C629 C628 1.386 . S
C629 C633 1.393 . S
C630 H622 0.950 . S
C630 C628 1.391 . S
C630 C631 1.400 . S
C631 C630 1.400 . S
C631 C632 1.398 . S
C631 C637 1.491 . S
C632 H623 0.950 . S
C632 C631 1.398 . S
C632 C633 1.391 . S
C633 H621 0.950 . S
C633 C629 1.393 . S
C633 C632 1.391 . S
C634 H624 0.950 . S
C634 C635 1.386 . S
C634 C636 1.391 . S
C635 C634 1.386 . S
C635 C639 1.393 . S
C636 H625 0.950 . S
C636 C634 1.391 . S
C636 C637 1.400 . S
C637 C631 1.491 . S
C637 C636 1.400 . S
C637 C638 1.398 . S
C638 H626 0.950 . S
C638 C637 1.398 . S
C638 C639 1.391 . S
C639 H627 0.950 . S
C639 C635 1.393 . S
C639 C638 1.391 . S
H640 C648 0.950 . S
H641 C653 0.950 . S
H642 C650 0.950 . S
H643 C652 0.950 1_556 S
H644 C654 0.950 . S
H645 C656 0.950 . S
H646 C658 0.950 . S
H647 C659 0.950 . S
C648 H640 0.950 . S
C648 C649 1.386 . S
C648 C650 1.391 . S
C649 C648 1.386 . S
C649 C653 1.393 . S
C650 H642 0.950 . S
C650 C648 1.391 . S
C650 C651 1.385 1_554 S
C651 C650 1.385 1_556 S
C651 C652 1.394 1_556 S
C651 C657 1.509 . S
C652 H643 0.950 1_554 S
C652 C651 1.394 1_554 S
C652 C653 1.391 . S
C653 H641 0.950 . S
C653 C649 1.393 . S
C653 C652 1.391 . S
C654 H644 0.950 . S
C654 C655 1.386 . S
C654 C656 1.391 . S
C655 C654 1.386 . S
C655 C659 1.393 . S
C656 H645 0.950 . S
C656 C654 1.391 . S
C656 C657 1.400 . S
C657 C651 1.509 . S
C657 C656 1.400 . S
C657 C658 1.398 . S
C658 H646 0.950 . S
C658 C657 1.398 . S
C658 C659 1.391 . S
C659 H647 0.950 . S
C659 C655 1.393 . S
C659 C658 1.391 . S
H660 C668 0.950 . S
H661 C673 0.950 . S
H662 C670 0.950 . S
H663 C672 0.950 . S
H664 C674 0.950 . S
H665 C676 0.950 . S
H666 C678 0.950 . S
H667 C679 0.950 . S
C668 H660 0.950 . S
C668 C669 1.386 . S
C668 C670 1.391 . S
C669 C668 1.386 . S
C669 C673 1.393 . S
C670 H662 0.950 . S
C670 C668 1.391 . S
C670 C671 1.400 . S
C671 C670 1.400 . S
C671 C672 1.398 . S
C671 C677 1.491 . S
C672 H663 0.950 . S
C672 C671 1.398 . S
C672 C673 1.391 . S
C673 H661 0.950 . S
C673 C669 1.393 . S
C673 C672 1.391 . S
C674 H664 0.950 . S
C674 C675 1.386 . S
C674 C676 1.391 . S
C675 C674 1.386 . S
C675 C679 1.393 . S
C676 H665 0.950 . S
C676 C674 1.391 . S
C676 C677 1.400 . S
C677 C671 1.491 . S
C677 C676 1.400 . S
C677 C678 1.398 . S
C678 H666 0.950 . S
C678 C677 1.398 . S
C678 C679 1.391 . S
C679 H667 0.950 . S
C679 C675 1.393 . S
C679 C678 1.391 . S
H680 C688 0.950 . S
H681 C693 0.950 . S
H682 C690 0.950 . S
H683 C692 0.950 . S
H684 C694 0.950 . S
H685 C696 0.950 . S
H686 C698 0.950 . S
H687 C699 0.950 . S
C688 H680 0.950 . S
C688 C689 1.386 . S
C688 C690 1.391 1_554 S
C689 C688 1.386 . S
C689 C693 1.393 . S
C690 H682 0.950 . S
C690 C688 1.391 1_556 S
C690 C691 1.400 . S
C691 C690 1.400 . S
C691 C692 1.398 1_556 S
C691 C697 1.491 . S
C692 H683 0.950 . S
C692 C691 1.398 1_554 S
C692 C693 1.391 . S
C693 H681 0.950 . S
C693 C689 1.393 . S
C693 C692 1.391 . S
C694 H684 0.950 . S
C694 C695 1.386 . S
C694 C696 1.391 . S
C695 C694 1.386 . S
C695 C699 1.393 . S
C696 H685 0.950 . S
C696 C694 1.391 . S
C696 C697 1.400 . S
C697 C691 1.491 . S
C697 C696 1.400 . S
C697 C698 1.398 . S
C698 H686 0.950 . S
C698 C697 1.398 . S
C698 C699 1.391 . S
C699 H687 0.950 . S
C699 C695 1.393 . S
C699 C698 1.391 . S
H700 C708 0.950 . S
H701 C713 0.950 . S
H702 C710 0.950 . S
H703 C712 0.950 . S
H704 C714 0.950 . S
H705 C716 0.950 . S
H706 C718 0.950 . S
H707 C719 0.950 . S
C708 H700 0.950 . S
C708 C709 1.386 . S
C708 C710 1.391 . S
C709 C708 1.386 . S
C709 C713 1.393 . S
C710 H702 0.950 . S
C710 C708 1.391 . S
C710 C711 1.400 . S
C711 C710 1.400 . S
C711 C712 1.398 . S
C711 C717 1.491 . S
C712 H703 0.950 . S
C712 C711 1.398 . S
C712 C713 1.391 . S
C713 H701 0.950 . S
C713 C709 1.393 . S
C713 C712 1.391 . S
C714 H704 0.950 . S
C714 C715 1.386 . S
C714 C716 1.391 . S
C715 C714 1.386 . S
C715 C719 1.393 . S
C716 H705 0.950 . S
C716 C714 1.391 . S
C716 C717 1.400 . S
C717 C711 1.491 . S
C717 C716 1.400 . S
C717 C718 1.398 . S
C718 H706 0.950 . S
C718 C717 1.398 . S
C718 C719 1.391 . S
C719 H707 0.950 . S
C719 C715 1.393 . S
C719 C718 1.391 . S
H720 C728 0.950 . S
H721 C733 0.950 . S
H722 C730 0.950 . S
H723 C732 0.950 . S
H724 C734 0.950 . S
H725 C736 0.950 . S
H726 C738 0.950 . S
H727 C739 0.950 . S
C728 H720 0.950 . S
C728 C729 1.386 . S
C728 C730 1.391 1_556 S
C729 C728 1.386 . S
C729 C733 1.393 . S
C730 H722 0.950 . S
C730 C728 1.391 1_554 S
C730 C731 1.400 . S
C731 C730 1.400 . S
C731 C732 1.398 1_554 S
C731 C737 1.491 . S
C732 H723 0.950 . S
C732 C731 1.398 1_556 S
C732 C733 1.391 . S
C733 H721 0.950 . S
C733 C729 1.393 . S
C733 C732 1.391 . S
C734 H724 0.950 . S
C734 C735 1.386 . S
C734 C736 1.391 . S
C735 C734 1.386 . S
C735 C739 1.393 . S
C736 H725 0.950 . S
C736 C734 1.391 . S
C736 C737 1.400 . S
C737 C731 1.491 . S
C737 C736 1.400 . S
C737 C738 1.398 . S
C738 H726 0.950 . S
C738 C737 1.398 . S
C738 C739 1.391 . S
C739 H727 0.950 . S
C739 C735 1.393 . S
C739 C738 1.391 . S
H740 C748 0.950 . S
H741 C753 0.950 . S
H742 C750 0.950 . S
H743 C752 0.950 . S
H744 C754 0.950 . S
H745 C756 0.950 . S
H746 C758 0.950 . S
H747 C759 0.950 . S
C748 H740 0.950 . S
C748 C749 1.386 . S
C748 C750 1.391 . S
C749 C748 1.386 . S
C749 C753 1.393 . S
C750 H742 0.950 . S
C750 C748 1.391 . S
C750 C751 1.400 . S
C751 C750 1.400 . S
C751 C752 1.398 . S
C751 C757 1.491 . S
C752 H743 0.950 . S
C752 C751 1.398 . S
C752 C753 1.391 . S
C753 H741 0.950 . S
C753 C749 1.393 . S
C753 C752 1.391 . S
C754 H744 0.950 . S
C754 C755 1.386 . S
C754 C756 1.391 . S
C755 C754 1.386 . S
C755 C759 1.393 . S
C756 H745 0.950 . S
C756 C754 1.391 . S
C756 C757 1.400 . S
C757 C751 1.491 . S
C757 C756 1.400 . S
C757 C758 1.398 . S
C758 H746 0.950 . S
C758 C757 1.398 . S
C758 C759 1.391 . S
C759 H747 0.950 . S
C759 C755 1.393 . S
C759 C758 1.391 . S
H760 C768 0.950 . S
H761 C773 0.950 . S
H762 C770 0.950 . S
H763 C772 0.950 . S
H764 C774 0.950 . S
H765 C776 0.950 . S
H766 C778 0.950 . S
H767 C779 0.950 . S
C768 H760 0.950 . S
C768 C769 1.386 . S
C768 C770 1.391 . S
C769 C768 1.386 . S
C769 C773 1.393 . S
C770 H762 0.950 . S
C770 C768 1.391 . S
C770 C771 1.400 . S
C771 C770 1.400 . S
C771 C772 1.398 . S
C771 C777 1.491 . S
C772 H763 0.950 . S
C772 C771 1.398 . S
C772 C773 1.391 . S
C773 H761 0.950 . S
C773 C769 1.393 . S
C773 C772 1.391 . S
C774 H764 0.950 . S
C774 C775 1.386 . S
C774 C776 1.391 . S
C775 C774 1.386 . S
C775 C779 1.393 . S
C776 H765 0.950 . S
C776 C774 1.391 . S
C776 C777 1.400 . S
C777 C771 1.491 . S
C777 C776 1.400 . S
C777 C778 1.398 . S
C778 H766 0.950 . S
C778 C777 1.398 . S
C778 C779 1.391 . S
C779 H767 0.950 . S
C779 C775 1.393 . S
C779 C778 1.391 . S
H780 C788 0.950 . S
H781 C793 0.950 . S
H782 C790 0.950 . S
H783 C792 0.950 . S
H784 C794 0.950 . S
H785 C796 0.950 . S
H786 C798 0.950 . S
H787 C799 0.950 . S
C788 H780 0.950 . S
C788 C789 1.386 . S
C788 C790 1.391 . S
C789 C788 1.386 . S
C789 C793 1.393 . S
C790 H782 0.950 . S
C790 C788 1.391 . S
C790 C791 1.400 . S
C791 C790 1.400 . S
C791 C792 1.398 . S
C791 C797 1.491 . S
C792 H783 0.950 . S
C792 C791 1.398 . S
C792 C793 1.391 . S
C793 H781 0.950 . S
C793 C789 1.393 . S
C793 C792 1.391 . S
C794 H784 0.950 . S
C794 C795 1.386 . S
C794 C796 1.391 . S
C795 C794 1.386 . S
C795 C799 1.393 . S
C796 H785 0.950 . S
C796 C794 1.391 . S
C796 C797 1.400 . S
C797 C791 1.491 . S
C797 C796 1.400 . S
C797 C798 1.398 . S
C798 H786 0.950 . S
C798 C797 1.398 . S
C798 C799 1.391 . S
C799 H787 0.950 . S
C799 C795 1.393 . S
C799 C798 1.391 . S
H800 C808 0.950 . S
H801 C813 0.950 . S
H802 C810 0.950 . S
H803 C812 0.950 . S
H804 C814 0.950 . S
H805 C816 0.950 . S
H806 C818 0.950 . S
H807 C819 0.950 . S
C808 H800 0.950 . S
C808 C809 1.386 . S
C808 C810 1.391 . S
C809 C808 1.386 . S
C809 C813 1.393 . S
C810 H802 0.950 . S
C810 C808 1.391 . S
C810 C811 1.400 . S
C811 C810 1.400 . S
C811 C812 1.398 . S
C811 C817 1.491 . S
C812 H803 0.950 . S
C812 C811 1.398 . S
C812 C813 1.391 . S
C813 H801 0.950 . S
C813 C809 1.393 . S
C813 C812 1.391 . S
C814 H804 0.950 . S
C814 C815 1.386 . S
C814 C816 1.391 . S
C815 C814 1.386 . S
C815 C819 1.393 . S
C816 H805 0.950 . S
C816 C814 1.391 . S
C816 C817 1.400 . S
C817 C811 1.491 . S
C817 C816 1.400 . S
C817 C818 1.398 . S
C818 H806 0.950 . S
C818 C817 1.398 . S
C818 C819 1.391 . S
C819 H807 0.950 . S
C819 C815 1.393 . S
C819 C818 1.391 . S
H820 C828 0.950 . S
H821 C833 0.950 . S
H822 C830 0.950 . S
H823 C832 0.950 . S
H824 C834 0.950 . S
H825 C836 0.950 . S
H826 C838 0.950 . S
H827 C839 0.950 . S
C828 H820 0.950 . S
C828 C829 1.386 . S
C828 C830 1.391 . S
C829 C828 1.386 . S
C829 C833 1.393 . S
C830 H822 0.950 . S
C830 C828 1.391 . S
C830 C831 1.400 . S
C831 C830 1.400 . S
C831 C832 1.398 . S
C831 C837 1.491 . S
C832 H823 0.950 . S
C832 C831 1.398 . S
C832 C833 1.391 . S
C833 H821 0.950 . S
C833 C829 1.393 . S
C833 C832 1.391 . S
C834 H824 0.950 . S
C834 C835 1.386 . S
C834 C836 1.391 . S
C835 C834 1.386 . S
C835 C839 1.393 . S
C836 H825 0.950 . S
C836 C834 1.391 . S
C836 C837 1.400 . S
C837 C831 1.491 . S
C837 C836 1.400 . S
C837 C838 1.398 . S
C838 H826 0.950 . S
C838 C837 1.398 . S
C838 C839 1.391 . S
C839 H827 0.950 . S
C839 C835 1.393 . S
C839 C838 1.391 . S
H840 C848 0.950 . S
H841 C853 0.950 . S
H842 C850 0.950 . S
H843 C852 0.950 . S
H844 C854 0.950 . S
H845 C856 0.950 . S
H846 C858 0.950 . S
H847 C859 0.950 . S
C848 H840 0.950 . S
C848 C849 1.386 . S
C848 C850 1.391 . S
C849 C848 1.386 . S
C849 C853 1.393 . S
C850 H842 0.950 . S
C850 C848 1.391 . S
C850 C851 1.400 . S
C851 C850 1.400 . S
C851 C852 1.398 . S
C851 C857 1.491 . S
C852 H843 0.950 . S
C852 C851 1.398 . S
C852 C853 1.391 . S
C853 H841 0.950 . S
C853 C849 1.393 . S
C853 C852 1.391 . S
C854 H844 0.950 . S
C854 C855 1.386 . S
C854 C856 1.391 . S
C855 C854 1.386 . S
C855 C859 1.393 . S
C856 H845 0.950 . S
C856 C854 1.391 . S
C856 C857 1.400 . S
C857 C851 1.491 . S
C857 C856 1.400 . S
C857 C858 1.398 . S
C858 H846 0.950 . S
C858 C857 1.398 . S
C858 C859 1.391 . S
C859 H847 0.950 . S
C859 C855 1.393 . S
C859 C858 1.391 . S
H860 C868 0.950 . S
H861 C873 0.950 . S
H862 C870 0.950 . S
H863 C872 0.950 . S
H864 C874 0.950 . S
H865 C876 0.950 . S
H866 C878 0.950 . S
H867 C879 0.950 . S
C868 H860 0.950 . S
C868 C869 1.386 . S
C868 C870 1.391 . S
C869 C868 1.386 . S
C869 C873 1.393 . S
C870 H862 0.950 . S
C870 C868 1.391 . S
C870 C871 1.400 . S
C871 C870 1.400 . S
C871 C872 1.398 . S
C871 C877 1.491 . S
C872 H863 0.950 . S
C872 C871 1.398 . S
C872 C873 1.391 . S
C873 H861 0.950 . S
C873 C869 1.393 . S
C873 C872 1.391 . S
C874 H864 0.950 . S
C874 C875 1.386 . S
C874 C876 1.391 . S
C875 C874 1.386 . S
C875 C879 1.393 . S
C876 H865 0.950 . S
C876 C874 1.391 . S
C876 C877 1.400 . S
C877 C871 1.491 . S
C877 C876 1.400 . S
C877 C878 1.398 . S
C878 H866 0.950 . S
C878 C877 1.398 . S
C878 C879 1.391 . S
C879 H867 0.950 . S
C879 C875 1.393 . S
C879 C878 1.391 . S
H880 C888 0.950 . S
H881 C893 0.950 . S
H882 C890 0.950 . S
H883 C892 0.950 . S
H884 C894 0.950 . S
H885 C896 0.950 . S
H886 C898 0.950 . S
H887 C899 0.950 . S
C888 H880 0.950 . S
C888 C889 1.386 . S
C888 C890 1.391 . S
C889 C888 1.386 . S
C889 C893 1.393 . S
C890 H882 0.950 . S
C890 C888 1.391 . S
C890 C891 1.400 . S
C891 C890 1.400 . S
C891 C892 1.398 . S
C891 C897 1.491 . S
C892 H883 0.950 . S
C892 C891 1.398 . S
C892 C893 1.391 . S
C893 H881 0.950 . S
C893 C889 1.393 . S
C893 C892 1.391 . S
C894 H884 0.950 . S
C894 C895 1.386 . S
C894 C896 1.391 . S
C895 C894 1.386 . S
C895 C899 1.393 . S
C896 H885 0.950 . S
C896 C894 1.391 . S
C896 C897 1.400 . S
C897 C891 1.491 . S
C897 C896 1.400 . S
C897 C898 1.398 . S
C898 H886 0.950 . S
C898 C897 1.398 . S
C898 C899 1.391 . S
C899 H887 0.950 . S
C899 C895 1.393 . S
C899 C898 1.391 . S
H900 C908 0.950 . S
H901 C913 0.950 . S
H902 C910 0.950 . S
H903 C912 0.950 . S
H904 C914 0.950 . S
H905 C916 0.950 . S
H906 C918 0.950 . S
H907 C919 0.950 . S
C908 H900 0.950 . S
C908 C909 1.386 . S
C908 C910 1.391 . S
C909 C908 1.386 . S
C909 C913 1.393 . S
C910 H902 0.950 . S
C910 C908 1.391 . S
C910 C911 1.400 . S
C911 C910 1.400 . S
C911 C912 1.398 . S
C911 C917 1.491 . S
C912 H903 0.950 . S
C912 C911 1.398 . S
C912 C913 1.391 . S
C913 H901 0.950 . S
C913 C909 1.393 . S
C913 C912 1.391 . S
C914 H904 0.950 . S
C914 C915 1.386 . S
C914 C916 1.391 . S
C915 C914 1.386 . S
C915 C919 1.393 . S
C916 H905 0.950 . S
C916 C914 1.391 . S
C916 C917 1.400 . S
C917 C911 1.491 . S
C917 C916 1.400 . S
C917 C918 1.398 . S
C918 H906 0.950 . S
C918 C917 1.398 . S
C918 C919 1.391 . S
C919 H907 0.950 . S
C919 C915 1.393 . S
C919 C918 1.391 . S
C449 C86 1.632 . S
C455 C178 1.621 . S
C475 C262 1.682 . S
C469 C100 1.700 . S
C495 C255 1.619 . S
C489 C60 1.621 . S
C509 C74 1.693 . S
C515 C171 1.698 . S
C535 C335 1.680 . S
C529 C35 1.697 . S
C555 C419 1.610 . S
C549 C47 1.635 . S
C569 C9 1.695 . S
C575 C412 1.694 . S
C589 C21 1.628 . S
C595 C328 1.622 . S
C615 C162 1.429 . S
C609 C22 1.579 . S
C635 C246 1.453 . S
C629 C8 1.596 . S
C655 C257 1.371 . S
C649 C48 1.587 . S
C675 C173 1.390 . S
C669 C34 1.602 . S
C695 C341 1.428 . S
C689 C73 1.592 . S
C709 C61 1.590 . S
C715 C425 1.425 . S
C735 C414 1.394 . S
C729 C99 1.603 . S
C749 C87 1.597 . S
C755 C330 1.409 . S
C775 C160 1.606 . S
C769 C4 1.502 . S
C795 C244 1.499 . S
C789 C17 1.479 . S
C809 C30 1.528 . S
C815 C251 1.573 . S
C835 C167 1.462 . S
C829 C43 1.466 . S
C855 C339 1.504 . S
C849 C56 1.445 . S
C869 C69 1.538 . S
C875 C423 1.603 . S
C889 C82 1.448 . S
C895 C430 1.461 . S
C909 C95 1.554 . S
C915 C346 1.568 . S
