# Generated by pormake.
# Topology pyr, (3,6)-cn, num edge types: 1
# Building blocks:
#     Node 0, Type 0, BuildingBlock: ESEHIV_clean_linker_0, # of connection points: 3
#     Node 1, Type 0, BuildingBlock: ESEHIV_clean_linker_0, # of connection points: 3
#     Node 2, Type 0, BuildingBlock: ESEHIV_clean_linker_0, # of connection points: 3
#     Node 3, Type 0, BuildingBlock: ESEHIV_clean_linker_0, # of connection points: 3
#     Node 4, Type 0, BuildingBlock: ESEHIV_clean_linker_0, # of connection points: 3
#     Node 5, Type 0, BuildingBlock: ESEHIV_clean_linker_0, # of connection points: 3
#     Node 6, Type 0, BuildingBlock: ESEHIV_clean_linker_0, # of connection points: 3
#     Node 7, Type 0, BuildingBlock: ESEHIV_clean_linker_0, # of connection points: 3
#     Node 8, Type 1, BuildingBlock: VOLQOD_clean_sbu_1, # of connection points: 6
#     Node 9, Type 1, BuildingBlock: VOLQOD_clean_sbu_1, # of connection points: 6
#     Node 10, Type 1, BuildingBlock: VOLQOD_clean_sbu_1, # of connection points: 6
#     Node 11, Type 1, BuildingBlock: VOLQOD_clean_sbu_1, # of connection points: 6
#     Edge 12, Type (0, 1), BuildingBlock: MIFKUJ_clean_linker_0, # of connection points: 2
#     Edge 13, Type (0, 1), BuildingBlock: MIFKUJ_clean_linker_0, # of connection points: 2
#     Edge 14, Type (0, 1), BuildingBlock: MIFKUJ_clean_linker_0, # of connection points: 2
#     Edge 15, Type (0, 1), BuildingBlock: MIFKUJ_clean_linker_0, # of connection points: 2
#     Edge 16, Type (0, 1), BuildingBlock: MIFKUJ_clean_linker_0, # of connection points: 2
#     Edge 17, Type (0, 1), BuildingBlock: MIFKUJ_clean_linker_0, # of connection points: 2
#     Edge 18, Type (0, 1), BuildingBlock: MIFKUJ_clean_linker_0, # of connection points: 2
#     Edge 19, Type (0, 1), BuildingBlock: MIFKUJ_clean_linker_0, # of connection points: 2
#     Edge 20, Type (0, 1), BuildingBlock: MIFKUJ_clean_linker_0, # of connection points: 2
#     Edge 21, Type (0, 1), BuildingBlock: MIFKUJ_clean_linker_0, # of connection points: 2
#     Edge 22, Type (0, 1), BuildingBlock: MIFKUJ_clean_linker_0, # of connection points: 2
#     Edge 23, Type (0, 1), BuildingBlock: MIFKUJ_clean_linker_0, # of connection points: 2
#     Edge 24, Type (0, 1), BuildingBlock: MIFKUJ_clean_linker_0, # of connection points: 2
#     Edge 25, Type (0, 1), BuildingBlock: MIFKUJ_clean_linker_0, # of connection points: 2
#     Edge 26, Type (0, 1), BuildingBlock: MIFKUJ_clean_linker_0, # of connection points: 2
#     Edge 27, Type (0, 1), BuildingBlock: MIFKUJ_clean_linker_0, # of connection points: 2
#     Edge 28, Type (0, 1), BuildingBlock: MIFKUJ_clean_linker_0, # of connection points: 2
#     Edge 29, Type (0, 1), BuildingBlock: MIFKUJ_clean_linker_0, # of connection points: 2
#     Edge 30, Type (0, 1), BuildingBlock: MIFKUJ_clean_linker_0, # of connection points: 2
#     Edge 31, Type (0, 1), BuildingBlock: MIFKUJ_clean_linker_0, # of connection points: 2
#     Edge 32, Type (0, 1), BuildingBlock: MIFKUJ_clean_linker_0, # of connection points: 2
#     Edge 33, Type (0, 1), BuildingBlock: MIFKUJ_clean_linker_0, # of connection points: 2
#     Edge 34, Type (0, 1), BuildingBlock: MIFKUJ_clean_linker_0, # of connection points: 2
#     Edge 35, Type (0, 1), BuildingBlock: MIFKUJ_clean_linker_0, # of connection points: 2
# Relax obj value: 0.035
# Max RMSD: 0.119
# Mean RMSD: 0.043
data_MOF--net-pry--node1-VOLQOD_clean_sbu_1--node2-ESEHIV_clean_linker_0--edge1-MIFKUJ_clean_linker_0
_symmetry_space_group_name_H-M    P1
_symmetry_Int_Tables_number       1
_symmetry_cell_setting            triclinic
loop_
_symmetry_equiv_pos_as_xyz
'x, y, z'
_cell_length_a     46.034267
_cell_length_b     46.007464
_cell_length_c     46.261636
_cell_angle_alpha  90.178967
_cell_angle_beta   90.097432
_cell_angle_gamma 90.250084
loop_
_atom_site_label
_atom_site_type_symbol
_atom_site_fract_x
_atom_site_fract_y
_atom_site_fract_z
_atom_type_partial_charge
H0 H 0.09572 0.16749 0.16296 0.0
H1 H 0.15985 0.10015 0.16364 0.0
H2 H 0.16204 0.1655 0.09742 0.0
C3 C 0.11424 0.15708 0.15294 0.0
C4 C 0.12704 0.16931 0.12817 0.0
C5 C 0.12624 0.13236 0.16593 0.0
C6 C 0.15097 0.11953 0.15379 0.0
C7 C 0.16421 0.13139 0.12915 0.0
C8 C 0.15189 0.15612 0.11634 0.0
H9 H 0.35942 0.91213 0.66195 0.0
H10 H 0.42436 0.84515 0.66484 0.0
H11 H 0.35731 0.84275 0.59991 0.0
C12 C 0.36877 0.89234 0.65336 0.0
C13 C 0.35569 0.87889 0.62939 0.0
C14 C 0.3933 0.88012 0.66668 0.0
C15 C 0.40535 0.85464 0.65488 0.0
C16 C 0.39279 0.8411 0.63052 0.0
C17 C 0.36772 0.85329 0.61819 0.0
H18 H 0.65159 0.3747 0.93284 0.0
H19 H 0.64956 0.43444 0.86185 0.0
H20 H 0.5911 0.36126 0.86309 0.0
C21 C 0.64205 0.38161 0.91258 0.0
C22 C 0.61925 0.36542 0.90014 0.0
C23 C 0.65349 0.40606 0.89845 0.0
C24 C 0.64111 0.41513 0.87227 0.0
C25 C 0.61814 0.39942 0.85952 0.0
C26 C 0.6076 0.37446 0.87354 0.0
H27 H 0.85611 0.64243 0.43257 0.0
H28 H 0.92104 0.65117 0.36636 0.0
H29 H 0.86377 0.57734 0.36631 0.0
C30 C 0.86694 0.63409 0.41355 0.0
C31 C 0.8565 0.60851 0.40037 0.0
C32 C 0.89067 0.64942 0.40184 0.0
C33 C 0.90391 0.63873 0.37658 0.0
C34 C 0.8942 0.61288 0.3635 0.0
C35 C 0.87093 0.59765 0.37593 0.0
H36 H 0.88946 0.95926 0.88746 0.0
H37 H 0.95939 0.89752 0.89091 0.0
H38 H 0.89195 0.89547 0.95495 0.0
C39 C 0.90073 0.94174 0.89829 0.0
C40 C 0.88849 0.92952 0.92324 0.0
C41 C 0.92637 0.93044 0.88639 0.0
C42 C 0.93976 0.90673 0.89998 0.0
C43 C 0.92744 0.89394 0.92461 0.0
C44 C 0.90219 0.90591 0.9366 0.0
H45 H 0.56504 0.11863 0.39098 0.0
H46 H 0.63401 0.0567 0.39144 0.0
H47 H 0.61994 0.11128 0.46597 0.0
C48 C 0.58238 0.10794 0.40267 0.0
C49 C 0.5904 0.11764 0.43039 0.0
C50 C 0.5975 0.08537 0.38913 0.0
C51 C 0.62134 0.07273 0.40303 0.0
C52 C 0.63025 0.0825 0.43052 0.0
C53 C 0.61385 0.10418 0.44445 0.0
H54 H 0.38932 0.63427 0.06632 0.0
H55 H 0.38636 0.56713 0.13048 0.0
H56 H 0.4577 0.6279 0.1294 0.0
C57 C 0.39959 0.6228 0.08403 0.0
C58 C 0.42537 0.63374 0.09623 0.0
C59 C 0.3855 0.59879 0.09637 0.0
C60 C 0.39786 0.58505 0.12043 0.0
C61 C 0.42401 0.59526 0.13248 0.0
C62 C 0.43773 0.61953 0.12007 0.0
H63 H 0.06245 0.38195 0.63566 0.0
H64 H 0.12346 0.38714 0.56524 0.0
H65 H 0.12723 0.44934 0.63449 0.0
C66 C 0.0799 0.39311 0.62451 0.0
C67 C 0.09289 0.4175 0.63756 0.0
C68 C 0.09094 0.38169 0.5985 0.0
C69 C 0.11453 0.39578 0.58514 0.0
C70 C 0.12795 0.41988 0.59823 0.0
C71 C 0.11683 0.43078 0.62425 0.0
O72 O 0.99535 0.07467 0.53806 0.0
Zn73 Zn 0.98003 0.03373 0.53727 0.0
O74 O 0.00512 0.00836 0.51445 0.0
Zn75 Zn 0.98467 0.99577 0.47954 0.0
Zn76 Zn 0.04044 0.02956 0.50406 0.0
Zn77 Zn 0.01522 0.97418 0.53706 0.0
O78 O 0.98328 0.95215 0.47659 0.0
O79 O 0.99909 0.93741 0.51945 0.0
O80 O 0.9395 0.03455 0.52092 0.0
O81 O 0.94294 0.00859 0.4805 0.0
O82 O 0.00375 0.01172 0.44367 0.0
O83 O 0.0441 0.03213 0.46083 0.0
O84 O 0.07634 0.00995 0.51967 0.0
O85 O 0.97769 0.02018 0.57859 0.0
O86 O 0.05856 0.96987 0.53973 0.0
O87 O 0.00056 0.9778 0.57775 0.0
C88 C 0.01948 0.08601 0.53068 0.0
C89 C 0.98827 0.93196 0.49466 0.0
C90 C 0.02773 0.02504 0.4397 0.0
C91 C 0.92808 0.02358 0.49827 0.0
C92 C 0.08002 0.98589 0.5327 0.0
C93 C 0.98657 0.99736 0.59131 0.0
O94 O 0.03921 0.07094 0.51859 0.0
O95 O 0.50802 0.07026 0.98679 0.0
Zn96 Zn 0.4908 0.02994 0.99127 0.0
O97 O 0.51625 0.00545 0.01491 0.0
Zn98 Zn 0.53127 0.9738 0.99106 0.0
Zn99 Zn 0.54868 0.02837 0.03001 0.0
Zn100 Zn 0.49457 0.9896 0.04755 0.0
O101 O 0.51826 0.93489 0.00636 0.0
O102 O 0.49229 0.94605 0.04525 0.0
O103 O 0.48482 0.01275 0.95134 0.0
O104 O 0.5162 0.97623 0.95047 0.0
O105 O 0.57495 0.97443 0.98947 0.0
O106 O 0.58702 0.0111 0.01849 0.0
O107 O 0.54816 0.03089 0.07342 0.0
O108 O 0.45145 0.03409 0.0098 0.0
O109 O 0.51301 0.0002 0.08566 0.0
O110 O 0.45403 0.00581 0.04855 0.0
C111 C 0.53063 0.08242 0.99734 0.0
C112 C 0.5028 0.92732 0.02788 0.0
C113 C 0.59408 0.99018 0.0019 0.0
C114 C 0.49727 0.99196 0.93806 0.0
C115 C 0.53342 0.01764 0.09258 0.0
C116 C 0.44002 0.02323 0.0324 0.0
O117 O 0.54768 0.06879 0.01416 0.0
O118 O 0.52837 0.49335 0.56226 0.0
Zn119 Zn 0.52326 0.51153 0.5233 0.0
O120 O 0.49757 0.4883 0.49875 0.0
Zn121 Zn 0.51972 0.47175 0.46671 0.0
Zn122 Zn 0.48049 0.45715 0.52194 0.0
Zn123 Zn 0.46685 0.513 0.48327 0.0
O124 O 0.50332 0.48404 0.42823 0.0
O125 O 0.46787 0.51442 0.43987 0.0
O126 O 0.563 0.51515 0.50575 0.0
O127 O 0.56121 0.48585 0.46754 0.0
O128 O 0.51913 0.42797 0.46816 0.0
O129 O 0.48902 0.41806 0.50432 0.0
O130 O 0.43713 0.46157 0.52478 0.0
O131 O 0.50718 0.55164 0.52962 0.0
O132 O 0.42746 0.49802 0.49491 0.0
O133 O 0.47 0.55382 0.49904 0.0
C134 C 0.51648 0.47189 0.57494 0.0
C135 C 0.48314 0.50141 0.42094 0.0
C136 C 0.50532 0.40975 0.4837 0.0
C137 C 0.57508 0.50334 0.48397 0.0
C138 C 0.41908 0.47818 0.51215 0.0
C139 C 0.48644 0.5656 0.51796 0.0
O140 O 0.49726 0.45642 0.5623 0.0
O141 O 0.98281 0.51128 0.06791 0.0
Zn142 Zn 0.9877 0.49556 0.02747 0.0
O143 O 0.01206 0.52147 0.0042 0.0
Zn144 Zn 0.98887 0.53712 0.97234 0.0
Zn145 Zn 0.02685 0.55307 0.02846 0.0
Zn146 Zn 0.04511 0.50008 0.98869 0.0
O147 O 0.00467 0.52421 0.93367 0.0
O148 O 0.04329 0.49794 0.94542 0.0
O149 O 0.94772 0.49117 0.01037 0.0
O150 O 0.9475 0.52253 0.97402 0.0
O151 O 0.98811 0.58096 0.9739 0.0
O152 O 0.01351 0.59176 0.01341 0.0
O153 O 0.07052 0.5536 0.03009 0.0
O154 O 0.00566 0.4558 0.03073 0.0
O155 O 0.08329 0.51852 -0.00027 0.0
O156 O 0.04578 0.45936 0.00436 0.0
C157 C 0.99464 0.53237 0.08148 0.0
C158 C 0.02627 0.50855 0.92651 0.0
C159 C 0.99852 0.59956 0.99163 0.0
C160 C 0.93459 0.50381 0.98971 0.0
C161 C 0.08996 0.53904 0.01704 0.0
C162 C 0.02886 0.44477 0.02059 0.0
O163 O 0.01245 0.5495 0.06914 0.0
H164 H 0.15542 0.11985 0.21537 0.0
H165 H 0.13591 0.09957 0.26004 0.0
H166 H 0.05006 0.09769 0.22236 0.0
H167 H 0.06953 0.11894 0.17774 0.0
H168 H 0.04693 0.11551 0.27606 0.0
H169 H 0.09176 0.035 0.22922 0.0
H170 H 0.13079 0.00841 0.20422 0.0
H171 H 0.18551 0.01702 0.27905 0.0
H172 H 0.14695 0.04404 0.30437 0.0
H173 H 0.99437 0.02477 0.39056 0.0
H174 H 0.00862 0.04073 0.34214 0.0
H175 H 0.09497 0.05979 0.37335 0.0
H176 H 0.08099 0.04405 0.42175 0.0
H177 H 0.09406 0.02969 0.32049 0.0
H178 H 0.04924 0.11359 0.36524 0.0
H179 H 0.0094 0.13951 0.38967 0.0
H180 H 0.95311 0.12241 0.31743 0.0
H181 H 0.99254 0.09602 0.29273 0.0
C182 C 0.1324 0.115 0.21661 0.0
C183 C 0.114 0.12063 0.19307 0.0
C184 C 0.12128 0.10332 0.24208 0.0
C185 C 0.09162 0.09644 0.24434 0.0
C186 C 0.07304 0.10265 0.22104 0.0
C187 C 0.08414 0.11476 0.19562 0.0
C188 C 0.08017 0.08301 0.27117 0.0
C189 C 0.0569 0.09642 0.28547 0.0
C190 C 0.09335 0.05825 0.28367 0.0
C191 C 0.11651 0.04173 0.26862 0.0
C192 C 0.11218 0.03138 0.24029 0.0
C193 C 0.13421 0.01622 0.22607 0.0
C194 C 0.16063 0.01108 0.24002 0.0
C195 C 0.16504 0.02103 0.26826 0.0
C196 C 0.14308 0.03624 0.28257 0.0
C197 C 0.01644 0.03218 0.38709 0.0
C198 C 0.03652 0.03325 0.41005 0.0
C199 C 0.0245 0.04138 0.35945 0.0
C200 C 0.05277 0.0516 0.35429 0.0
C201 C 0.07304 0.05198 0.37695 0.0
C202 C 0.06496 0.04307 0.40461 0.0
C203 C 0.06127 0.0625 0.32545 0.0
C204 C 0.08394 0.04857 0.31081 0.0
C205 C 0.04737 0.08656 0.31253 0.0
C206 C 0.02373 0.10255 0.32729 0.0
C207 C 0.0283 0.11514 0.35468 0.0
C208 C 0.00581 0.12996 0.36855 0.0
C209 C 0.97872 0.13253 0.35515 0.0
C210 C 0.97409 0.12036 0.3278 0.0
C211 C 0.99651 0.10548 0.31385 0.0
H212 H 0.96133 0.14401 0.36593 0.0
H213 H 0.17767 0.99935 0.22897 0.0
H214 H 0.36374 0.90498 0.71175 0.0
H215 H 0.38372 0.92698 0.75553 0.0
H216 H 0.47037 0.90617 0.72734 0.0
H217 H 0.45076 0.88525 0.68264 0.0
H218 H 0.45544 0.8896 0.78648 0.0
H219 H 0.45275 0.97238 0.72261 0.0
H220 H 0.42894 0.00578 0.68848 0.0
H221 H 0.36678 0.02921 0.75352 0.0
H222 H 0.38998 0.99561 0.78793 0.0
H223 H 0.52919 0.96334 0.89752 0.0
H224 H 0.51356 0.94742 0.84956 0.0
H225 H 0.42978 0.9868 0.86346 0.0
H226 H 0.44584 0.00396 0.91103 0.0
H227 H 0.44429 0.99426 0.81012 0.0
H228 H 0.4422 0.91213 0.87297 0.0
H229 H 0.46142 0.87715 0.90839 0.0
H230 H 0.52648 0.85023 0.84765 0.0
H231 H 0.50789 0.88537 0.81199 0.0
C232 C 0.3871 0.90553 0.71446 0.0
C233 C 0.40562 0.89347 0.69343 0.0
C234 C 0.39844 0.91795 0.73964 0.0
C235 C 0.42848 0.91829 0.74452 0.0
C236 C 0.44709 0.90604 0.7239 0.0
C237 C 0.4358 0.89395 0.69846 0.0
C238 C 0.44031 0.93106 0.77147 0.0
C239 C 0.45351 0.91256 0.79152 0.0
C240 C 0.4367 0.9608 0.77831 0.0
C241 C 0.42296 0.98129 0.75777 0.0
C242 C 0.43388 0.98449 0.72957 0.0
C243 C 0.42051 0.00349 0.71019 0.0
C244 C 0.39632 0.01956 0.71881 0.0
C245 C 0.38551 0.01673 0.74687 0.0
C246 C 0.39878 0.99774 0.76633 0.0
C247 C 0.50753 0.96885 0.89024 0.0
C248 C 0.48863 0.98467 0.90812 0.0
C249 C 0.49856 0.9596 0.86287 0.0
C250 C 0.47022 0.96524 0.85315 0.0
C251 C 0.4517 0.98205 0.87052 0.0
C252 C 0.46088 0.99183 0.89771 0.0
C253 C 0.45964 0.95282 0.82535 0.0
C254 C 0.4465 0.97132 0.80513 0.0
C255 C 0.4627 0.92289 0.81861 0.0
C256 C 0.47384 0.9016 0.83993 0.0
C257 C 0.46073 0.8989 0.86724 0.0
C258 C 0.4715 0.87903 0.88735 0.0
C259 C 0.49521 0.86154 0.8803 0.0
C260 C 0.50814 0.86383 0.85309 0.0
C261 C 0.49749 0.88371 0.83292 0.0
H262 H 0.50351 0.84617 0.8959 0.0
H263 H 0.386 0.03424 0.70376 0.0
H264 H 0.64729 0.4226 0.81309 0.0
H265 H 0.62735 0.43611 0.76609 0.0
H266 H 0.54234 0.40777 0.79305 0.0
H267 H 0.5615 0.39588 0.84089 0.0
H268 H 0.57811 0.38625 0.73216 0.0
H269 H 0.53322 0.46462 0.78993 0.0
H270 H 0.53667 0.50462 0.82543 0.0
H271 H 0.60094 0.54702 0.77302 0.0
H272 H 0.59816 0.507 0.73743 0.0
H273 H 0.49521 0.42884 0.61003 0.0
H274 H 0.51111 0.41671 0.65895 0.0
H275 H 0.57473 0.48578 0.65595 0.0
H276 H 0.55867 0.4984 0.60737 0.0
H277 H 0.54892 0.48652 0.70607 0.0
H278 H 0.59451 0.41493 0.64796 0.0
H279 H 0.59998 0.3753 0.61243 0.0
H280 H 0.54422 0.32061 0.66316 0.0
H281 H 0.53807 0.36009 0.69886 0.0
C282 C 0.62422 0.41983 0.80942 0.0
C283 C 0.60603 0.4082 0.83098 0.0
C284 C 0.61296 0.42731 0.78241 0.0
C285 C 0.58347 0.42293 0.77632 0.0
C286 C 0.5652 0.41127 0.79752 0.0
C287 C 0.57629 0.40429 0.82474 0.0
C288 C 0.57198 0.42996 0.74745 0.0
C289 C 0.57112 0.40798 0.72646 0.0
C290 C 0.56421 0.45859 0.73999 0.0
C291 C 0.56575 0.48268 0.76125 0.0
C292 C 0.54832 0.48231 0.78616 0.0
C293 C 0.55009 0.50502 0.80624 0.0
C294 C 0.56909 0.5283 0.80153 0.0
C295 C 0.58628 0.52896 0.77667 0.0
C296 C 0.5846 0.50628 0.75653 0.0
C297 C 0.51255 0.44149 0.61978 0.0
C298 C 0.52567 0.46458 0.60473 0.0
C299 C 0.52171 0.43443 0.64771 0.0
C300 C 0.54431 0.45016 0.661 0.0
C301 C 0.55723 0.47337 0.64614 0.0
C302 C 0.54804 0.48051 0.6183 0.0
C303 C 0.5544 0.44261 0.69049 0.0
C304 C 0.55535 0.46458 0.71164 0.0
C305 C 0.56291 0.41402 0.69788 0.0
C306 C 0.56558 0.39059 0.67593 0.0
C307 C 0.5831 0.3946 0.65136 0.0
C308 C 0.58641 0.37213 0.63124 0.0
C309 C 0.57249 0.34546 0.63557 0.0
C310 C 0.55501 0.34128 0.65988 0.0
C311 C 0.5516 0.3637 0.68006 0.0
H312 H 0.5754 0.32799 0.62016 0.0
H313 H 0.57042 0.54587 0.8171 0.0
H314 H 0.86595 0.58968 0.31672 0.0
H315 H 0.88688 0.57318 0.27121 0.0
H316 H 0.97232 0.5975 0.30129 0.0
H317 H 0.95166 0.61332 0.3475 0.0
H318 H 0.9583 0.61777 0.24514 0.0
H319 H 0.95657 0.52845 0.29886 0.0
H320 H 0.93379 0.49049 0.32886 0.0
H321 H 0.87204 0.47252 0.2614 0.0
H322 H 0.89419 0.51067 0.23115 0.0
H323 H 0.02797 0.55853 0.1228 0.0
H324 H 0.01459 0.56932 0.17276 0.0
H325 H 0.93024 0.53039 0.15842 0.0
H326 H 0.94418 0.51815 0.1089 0.0
H327 H 0.9473 0.51662 0.20906 0.0
H328 H 0.94366 0.60695 0.15721 0.0
H329 H 0.96266 0.64638 0.12647 0.0
H330 H 0.02959 0.66437 0.18885 0.0
H331 H 0.0112 0.62479 0.2198 0.0
C332 C 0.88927 0.59104 0.31397 0.0
C333 C 0.90716 0.6026 0.33591 0.0
C334 C 0.90116 0.58174 0.28786 0.0
C335 C 0.93114 0.5839 0.28307 0.0
C336 C 0.94911 0.59565 0.30469 0.0
C337 C 0.93725 0.60477 0.33098 0.0
C338 C 0.94343 0.57455 0.25507 0.0
C339 C 0.95643 0.59555 0.23738 0.0
C340 C 0.94008 0.54576 0.24478 0.0
C341 C 0.92693 0.52257 0.26282 0.0
C342 C 0.93801 0.51654 0.2905 0.0
C343 C 0.92523 0.49497 0.30754 0.0
C344 C 0.90145 0.47914 0.29707 0.0
C345 C 0.89045 0.4848 0.26949 0.0
C346 C 0.90314 0.50638 0.25238 0.0
C347 C 0.00663 0.55214 0.1304 0.0
C348 C 0.98701 0.53769 0.11197 0.0
C349 C 0.99894 0.55845 0.1589 0.0
C350 C 0.97114 0.55129 0.16921 0.0
C351 C 0.95179 0.5362 0.15098 0.0
C352 C 0.95974 0.52926 0.12268 0.0
C353 C 0.96195 0.55995 0.19876 0.0
C354 C 0.94948 0.53882 0.21679 0.0
C355 C 0.96526 0.5888 0.20917 0.0
C356 C 0.97624 0.61272 0.19067 0.0
C357 C 0.96255 0.6192 0.16428 0.0
C358 C 0.97319 0.64158 0.14683 0.0
C359 C 0.99737 0.65781 0.15566 0.0
C360 C 0.01089 0.65175 0.18201 0.0
C361 C 0.00036 0.62936 0.19953 0.0
H362 H 0.00558 0.67513 0.14212 0.0
H363 H 0.89157 0.46245 0.3103 0.0
H364 H 0.20982 0.10939 0.16008 0.0
H365 H 0.25506 0.08947 0.14176 0.0
H366 H 0.22736 0.10665 0.05434 0.0
H367 H 0.18098 0.12487 0.07245 0.0
H368 H 0.25342 0.05638 0.05609 0.0
H369 H 0.27664 0.15149 0.09044 0.0
H370 H 0.27841 0.19231 0.12507 0.0
H371 H 0.3283 0.14059 0.184 0.0
H372 H 0.32647 0.09929 0.14989 0.0
H373 H 0.39882 0.04943 0.99874 0.0
H374 H 0.35063 0.06613 0.0136 0.0
H375 H 0.36614 0.03426 0.09978 0.0
H376 H 0.41414 0.01717 0.08512 0.0
H377 H 0.34653 0.09315 0.09653 0.0
H378 H 0.32196 0.99767 0.06008 0.0
H379 H 0.32071 0.95871 0.02338 0.0
H380 H 0.27421 0.01448 0.96537 0.0
H381 H 0.27556 0.05395 0.0016 0.0
C382 C 0.213 0.10847 0.13691 0.0
C383 C 0.19165 0.1188 0.11776 0.0
C384 C 0.23914 0.09745 0.12648 0.0
C385 C 0.2449 0.09712 0.09669 0.0
C386 C 0.22349 0.10689 0.07743 0.0
C387 C 0.1971 0.11758 0.08785 0.0
C388 C 0.27334 0.08669 0.08581 0.0
C389 C 0.27377 0.06475 0.06464 0.0
C390 C 0.29995 0.09737 0.09715 0.0
C391 C 0.30119 0.1222 0.1177 0.0
C392 C 0.28781 0.14874 0.11087 0.0
C393 C 0.28885 0.17198 0.13039 0.0
C394 C 0.3034 0.16902 0.15674 0.0
C395 C 0.31701 0.14284 0.16359 0.0
C396 C 0.316 0.11951 0.14416 0.0
C397 C 0.3919 0.04579 0.02081 0.0
C398 C 0.41031 0.03199 0.04077 0.0
C399 C 0.36436 0.05527 0.02921 0.0
C400 C 0.35492 0.05135 0.05775 0.0
C401 C 0.37311 0.03744 0.07765 0.0
C402 C 0.40046 0.0276 0.06919 0.0
C403 C 0.32647 0.06271 0.06719 0.0
C404 C 0.32612 0.0849 0.088 0.0
C405 C 0.30003 0.0526 0.05519 0.0
C406 C 0.29915 0.02887 0.03343 0.0
C407 C 0.31172 0.00172 0.0394 0.0
C408 C 0.31094 0.97952 0.0187 0.0
C409 C 0.29747 0.98414 0.99203 0.0
C410 C 0.28468 0.01095 0.98603 0.0
C411 C 0.28543 0.03323 0.00664 0.0
H412 H 0.29688 0.96692 0.97604 0.0
H413 H 0.30418 0.18704 0.17183 0.0
H414 H 0.34489 0.93539 0.61494 0.0
H415 H 0.29981 0.95559 0.59547 0.0
H416 H 0.26074 0.87014 0.59633 0.0
H417 H 0.30588 0.84984 0.61532 0.0
H418 H 0.24687 0.89716 0.54822 0.0
H419 H 0.24658 0.9213 0.64934 0.0
H420 H 0.26637 0.94221 0.69444 0.0
H421 H 0.26787 0.02696 0.65584 0.0
H422 H 0.24846 0.00646 0.61034 0.0
H423 H 0.09713 0.93182 0.54964 0.0
H424 H 0.14596 0.91603 0.56273 0.0
H425 H 0.17907 0.00218 0.54613 0.0
H426 H 0.13017 0.01825 0.53275 0.0
H427 H 0.19751 0.9779 0.59951 0.0
H428 H 0.19371 0.95248 0.49896 0.0
H429 H 0.1725 0.93015 0.45521 0.0
H430 H 0.17692 0.84593 0.49468 0.0
H431 H 0.19777 0.86783 0.53886 0.0
C432 C 0.32664 0.92097 0.61097 0.0
C433 C 0.32881 0.89108 0.6167 0.0
C434 C 0.30092 0.93251 0.59988 0.0
C435 C 0.27676 0.91443 0.5948 0.0
C436 C 0.2791 0.88449 0.60003 0.0
C437 C 0.30489 0.87292 0.61085 0.0
C438 C 0.24886 0.92665 0.58446 0.0
C439 C 0.23597 0.91464 0.5596 0.0
C440 C 0.23491 0.94989 0.59894 0.0
C441 C 0.24637 0.9623 0.62634 0.0
C442 C 0.25133 0.94436 0.6504 0.0
C443 C 0.26245 0.95614 0.67604 0.0
C444 C 0.26846 0.98588 0.67798 0.0
C445 C 0.26326 0.00391 0.65429 0.0
C446 C 0.25218 0.99224 0.62858 0.0
C447 C 0.11477 0.94744 0.54869 0.0
C448 C 0.10976 0.9763 0.54012 0.0
C449 C 0.14267 0.93834 0.55608 0.0
C450 C 0.16609 0.95791 0.5552 0.0
C451 C 0.16123 0.98677 0.54686 0.0
C452 C 0.13333 0.99585 0.53913 0.0
C453 C 0.1955 0.94816 0.56354 0.0
C454 C 0.20861 0.96062 0.58803 0.0
C455 C 0.20949 0.92511 0.54892 0.0
C456 C 0.19708 0.91185 0.52233 0.0
C457 C 0.18994 0.92923 0.49841 0.0
C458 C 0.17802 0.91664 0.47351 0.0
C459 C 0.17331 0.88665 0.47219 0.0
C460 C 0.18056 0.86917 0.49574 0.0
C461 C 0.19246 0.88166 0.52071 0.0
H462 H 0.16408 0.87694 0.45289 0.0
H463 H 0.27707 0.99495 0.69784 0.0
H464 H 0.7025 0.4194 0.86861 0.0
H465 H 0.74823 0.43879 0.88776 0.0
H466 H 0.71045 0.44427 0.97282 0.0
H467 H 0.66449 0.42461 0.95377 0.0
H468 H 0.74657 0.49451 0.95464 0.0
H469 H 0.74853 0.39026 0.9638 0.0
H470 H 0.74295 0.34 0.94593 0.0
H471 H 0.80929 0.35508 0.88251 0.0
H472 H 0.8149 0.40563 0.89971 0.0
H473 H 0.90179 0.46098 0.01464 0.0
H474 H 0.85183 0.44712 0.00304 0.0
H475 H 0.84794 0.51493 0.93901 0.0
H476 H 0.89791 0.52907 0.95048 0.0
H477 H 0.8307 0.42742 0.95168 0.0
H478 H 0.77742 0.54004 0.93661 0.0
H479 H 0.78234 0.59004 0.95547 0.0
H480 H 0.81818 0.55725 0.0346 0.0
H481 H 0.8131 0.50705 0.01639 0.0
C482 C 0.70376 0.42523 0.89129 0.0
C483 C 0.68 0.42052 0.90975 0.0
C484 C 0.72989 0.43617 0.90219 0.0
C485 C 0.73264 0.44281 0.93167 0.0
C486 C 0.70863 0.43929 0.94998 0.0
C487 C 0.68254 0.42795 0.93915 0.0
C488 C 0.76121 0.45156 0.9435 0.0
C489 C 0.765 0.47991 0.95409 0.0
C490 C 0.78503 0.43228 0.94305 0.0
C491 C 0.78194 0.4018 0.93287 0.0
C492 C 0.76175 0.38293 0.94589 0.0
C493 C 0.75861 0.35438 0.93591 0.0
C494 C 0.77572 0.34437 0.91306 0.0
C495 C 0.79604 0.36288 0.90019 0.0
C496 C 0.79922 0.39148 0.91006 0.0
C497 C 0.8903 0.47311 0.99821 0.0
C498 C 0.90392 0.49612 0.98346 0.0
C499 C 0.86175 0.46511 0.99159 0.0
C500 C 0.84615 0.4801 0.97031 0.0
C501 C 0.8595 0.50329 0.95575 0.0
C502 C 0.88812 0.51124 0.96226 0.0
C503 C 0.81635 0.47064 0.96245 0.0
C504 C 0.81232 0.44209 0.95244 0.0
C505 C 0.79233 0.48972 0.96366 0.0
C506 C 0.79512 0.5198 0.975 0.0
C507 C 0.78623 0.5435 0.95808 0.0
C508 C 0.78907 0.57188 0.96865 0.0
C509 C 0.80065 0.57682 0.99618 0.0
C510 C 0.80932 0.55339 0.01324 0.0
C511 C 0.80651 0.52497 0.00278 0.0
H512 H 0.80285 0.59881 0.00431 0.0
H513 H 0.77326 0.32225 0.90536 0.0
H514 H 0.83741 0.60131 0.45638 0.0
H515 H 0.7908 0.58138 0.47217 0.0
H516 H 0.76808 0.56242 0.38353 0.0
H517 H 0.81344 0.58409 0.36747 0.0
H518 H 0.72468 0.58638 0.40806 0.0
H519 H 0.78833 0.50858 0.43381 0.0
H520 H 0.83057 0.48559 0.45709 0.0
H521 H 0.79876 0.51102 0.54058 0.0
H522 H 0.75649 0.53452 0.51776 0.0
H523 H 0.60404 0.49384 0.4333 0.0
H524 H 0.6534 0.50925 0.42101 0.0
H525 H 0.66448 0.54505 0.50658 0.0
H526 H 0.61503 0.52996 0.51908 0.0
H527 H 0.71345 0.51241 0.4851 0.0
H528 H 0.64831 0.58927 0.4565 0.0
H529 H 0.60595 0.60965 0.4311 0.0
H530 H 0.6415 0.58263 0.34963 0.0
H531 H 0.68372 0.56145 0.37461 0.0
C532 C 0.82243 0.59304 0.44023 0.0
C533 C 0.82932 0.59429 0.41063 0.0
C534 C 0.79592 0.58129 0.44934 0.0
C535 C 0.77602 0.57008 0.42907 0.0
C536 C 0.78307 0.57087 0.3996 0.0
C537 C 0.80929 0.58296 0.39047 0.0
C538 C 0.74722 0.55877 0.43821 0.0
C539 C 0.72235 0.56989 0.42462 0.0
C540 C 0.74402 0.5377 0.46025 0.0
C541 C 0.7694 0.52358 0.47404 0.0
C542 C 0.79046 0.50948 0.45712 0.0
C543 C 0.81439 0.49632 0.47023 0.0
C544 C 0.81739 0.49691 0.50029 0.0
C545 C 0.79643 0.51062 0.5173 0.0
C546 C 0.77247 0.52384 0.50428 0.0
C547 C 0.61704 0.50476 0.44961 0.0
C548 C 0.60555 0.51087 0.47711 0.0
C549 C 0.64519 0.51357 0.44253 0.0
C550 C 0.6624 0.52842 0.46286 0.0
C551 C 0.65145 0.53361 0.49064 0.0
C552 C 0.62317 0.52511 0.49766 0.0
C553 C 0.69128 0.53979 0.45463 0.0
C554 C 0.71601 0.52882 0.46849 0.0
C555 C 0.69444 0.56066 0.43249 0.0
C556 C 0.66903 0.57346 0.41747 0.0
C557 C 0.64694 0.58737 0.4332 0.0
C558 C 0.62295 0.5991 0.41887 0.0
C559 C 0.62094 0.59732 0.38877 0.0
C560 C 0.64298 0.58388 0.37295 0.0
C561 C 0.66694 0.572 0.38718 0.0
H562 H 0.60237 0.60644 0.37771 0.0
H563 H 0.83593 0.4867 0.5104 0.0
H564 H 0.15781 0.21519 0.1059 0.0
H565 H 0.13904 0.2602 0.08595 0.0
H566 H 0.05144 0.23187 0.10381 0.0
H567 H 0.07 0.1857 0.12209 0.0
H568 H 0.05274 0.25781 0.05363 0.0
H569 H 0.08771 0.28169 0.1479 0.0
H570 H 0.12274 0.28393 0.18824 0.0
H571 H 0.18144 0.33397 0.13603 0.0
H572 H 0.14693 0.33169 0.09523 0.0
H573 H 0.99474 0.40313 0.046 0.0
H574 H 0.00961 0.35487 0.06248 0.0
H575 H 0.09642 0.37087 0.03131 0.0
H576 H 0.08179 0.41893 0.0145 0.0
H577 H 0.09318 0.35138 0.08949 0.0
H578 H 0.05624 0.32622 0.99488 0.0
H579 H 0.0192 0.32465 0.95635 0.0
H580 H 0.96129 0.27796 0.01234 0.0
H581 H 0.99786 0.27962 0.05138 0.0
C582 C 0.13451 0.21816 0.10511 0.0
C583 C 0.11544 0.19669 0.11563 0.0
C584 C 0.12381 0.24419 0.09407 0.0
C585 C 0.09385 0.24971 0.09391 0.0
C586 C 0.07467 0.22818 0.10389 0.0
C587 C 0.08534 0.20191 0.11461 0.0
C588 C 0.0827 0.27805 0.08348 0.0
C589 C 0.06129 0.27826 0.0618 0.0
C590 C 0.09403 0.3048 0.09389 0.0
C591 C 0.11483 0.30629 0.11842 0.0
C592 C 0.10818 0.29299 0.14495 0.0
C593 C 0.12793 0.2943 0.16791 0.0
C594 C 0.15433 0.30903 0.16468 0.0
C595 C 0.161 0.32254 0.1385 0.0
C596 C 0.14134 0.32127 0.11545 0.0
C597 C 0.01694 0.39629 0.04244 0.0
C598 C 0.0371 0.4149 0.02898 0.0
C599 C 0.02535 0.3687 0.05179 0.0
C600 C 0.05408 0.35939 0.04806 0.0
C601 C 0.07414 0.37774 0.03437 0.0
C602 C 0.06569 0.40514 0.0247 0.0
C603 C 0.06363 0.33101 0.05949 0.0
C604 C 0.08464 0.33086 0.08144 0.0
C605 C 0.05163 0.30443 0.04964 0.0
C606 C 0.02967 0.30332 0.02615 0.0
C607 C 0.03551 0.31585 0.99907 0.0
C608 C 0.01462 0.3149 0.97712 0.0
C609 C 0.98787 0.30129 0.98192 0.0
C610 C 0.982 0.28854 0.00867 0.0
C611 C 0.00281 0.28946 0.03071 0.0
H612 H 0.97173 0.30057 0.9649 0.0
H613 H 0.16959 0.31002 0.18248 0.0
H614 H 0.56338 0.34446 0.90265 0.0
H615 H 0.54705 0.29754 0.92098 0.0
H616 H 0.6345 0.27809 0.94828 0.0
H617 H 0.65138 0.324 0.92814 0.0
H618 H 0.61342 0.23352 0.92237 0.0
H619 H 0.57791 0.29628 0.99682 0.0
H620 H 0.55139 0.33787 0.0175 0.0
H621 H 0.47128 0.30418 0.98317 0.0
H622 H 0.49739 0.26257 0.96194 0.0
H623 H 0.58045 0.11239 0.00973 0.0
H624 H 0.59341 0.16165 0.99518 0.0
H625 H 0.51053 0.17076 0.95268 0.0
H626 H 0.49722 0.12125 0.96713 0.0
H627 H 0.52812 0.22018 0.98648 0.0
H628 H 0.56602 0.15683 0.91228 0.0
H629 H 0.5939 0.11482 0.89442 0.0
H630 H 0.67175 0.1501 0.93217 0.0
H631 H 0.64423 0.19216 0.9506 0.0
C632 C 0.57921 0.33016 0.91242 0.0
C633 C 0.60875 0.33808 0.91381 0.0
C634 C 0.56973 0.30346 0.92328 0.0
C635 C 0.58946 0.28436 0.93635 0.0
C636 C 0.61884 0.29247 0.93835 0.0
C637 C 0.62841 0.31896 0.92711 0.0
C638 C 0.57985 0.25528 0.94655 0.0
C639 C 0.59503 0.23074 0.93675 0.0
C640 C 0.55543 0.25146 0.96479 0.0
C641 C 0.53966 0.27645 0.97754 0.0
C642 C 0.55467 0.29786 0.99348 0.0
C643 C 0.53971 0.32141 0.00534 0.0
C644 C 0.50968 0.32371 0.00158 0.0
C645 C 0.49455 0.3024 0.98603 0.0
C646 C 0.50941 0.27881 0.9741 0.0
C647 C 0.56483 0.12483 0.99742 0.0
C648 C 0.53783 0.11277 0.98943 0.0
C649 C 0.57233 0.15298 0.9891 0.0
C650 C 0.55301 0.16967 0.97269 0.0
C651 C 0.52572 0.15813 0.96534 0.0
C652 C 0.51823 0.12982 0.97349 0.0
C653 C 0.56187 0.19881 0.96244 0.0
C654 C 0.54652 0.2232 0.97215 0.0
C655 C 0.58637 0.20259 0.94444 0.0
C656 C 0.60301 0.17752 0.93302 0.0
C657 C 0.58904 0.15553 0.91694 0.0
C658 C 0.60479 0.13173 0.90669 0.0
C659 C 0.63456 0.12977 0.91221 0.0
C660 C 0.64867 0.15165 0.92793 0.0
C661 C 0.63303 0.17549 0.93825 0.0
H662 H 0.64671 0.11134 0.90426 0.0
H663 H 0.49814 0.34196 0.01079 0.0
H664 H 0.9465 0.67044 0.40572 0.0
H665 H 0.96255 0.71741 0.42422 0.0
H666 H 0.87446 0.73782 0.44846 0.0
H667 H 0.85782 0.6921 0.42758 0.0
H668 H 0.89564 0.78239 0.42619 0.0
H669 H 0.93008 0.71878 0.49911 0.0
H670 H 0.95551 0.67657 0.51977 0.0
H671 H 0.03666 0.70872 0.48694 0.0
H672 H 0.01167 0.75094 0.46575 0.0
H673 H 0.98049 0.88598 0.53124 0.0
H674 H 0.96337 0.83711 0.51886 0.0
H675 H 0.9617 0.86049 0.42859 0.0
H676 H 0.97771 0.90962 0.44091 0.0
H677 H 0.98239 0.79384 0.48903 0.0
H678 H 0.90694 0.82829 0.39396 0.0
H679 H 0.87703 0.87033 0.37989 0.0
H680 H 0.86934 0.89568 0.46895 0.0
H681 H 0.89886 0.8536 0.48358 0.0
C682 C 0.93042 0.685 0.41468 0.0
C683 C 0.9008 0.6773 0.41505 0.0
C684 C 0.93975 0.71174 0.42574 0.0
C685 C 0.91983 0.73108 0.43823 0.0
C686 C 0.89032 0.72329 0.43903 0.0
C687 C 0.88087 0.69684 0.4274 0.0
C688 C 0.92953 0.75995 0.44924 0.0
C689 C 0.91455 0.7848 0.44003 0.0
C690 C 0.95379 0.76325 0.46789 0.0
C691 C 0.96895 0.73791 0.48063 0.0
C692 C 0.95332 0.71675 0.49612 0.0
C693 C 0.96766 0.69284 0.50795 0.0
C694 C 0.99767 0.68994 0.50461 0.0
C695 C 0.01341 0.71099 0.48949 0.0
C696 C 0.99918 0.73493 0.47759 0.0
C697 C 0.97658 0.88066 0.50873 0.0
C698 C 0.98016 0.90175 0.48707 0.0
C699 C 0.96684 0.8527 0.50169 0.0
C700 C 0.96072 0.84526 0.47285 0.0
C701 C 0.96554 0.86593 0.45108 0.0
C702 C 0.97483 0.89398 0.45813 0.0
C703 C 0.94881 0.81611 0.46551 0.0
C704 C 0.96339 0.7913 0.47534 0.0
C705 C 0.92346 0.81275 0.44842 0.0
C706 C 0.90535 0.83792 0.43982 0.0
C707 C 0.89876 0.84276 0.41055 0.0
C708 C 0.8819 0.86662 0.40247 0.0
C709 C 0.87137 0.88571 0.4235 0.0
C710 C 0.8776 0.88094 0.45267 0.0
C711 C 0.89442 0.8571 0.46086 0.0
H712 H 0.85835 0.90418 0.4172 0.0
H713 H 0.00873 0.67141 0.51379 0.0
H714 H 0.41701 0.79502 0.65956 0.0
H715 H 0.43628 0.75006 0.639 0.0
H716 H 0.41496 0.77979 0.55334 0.0
H717 H 0.397 0.82545 0.57341 0.0
H718 H 0.39416 0.72172 0.56875 0.0
H719 H 0.48136 0.78069 0.56914 0.0
H720 H 0.51843 0.81216 0.5919 0.0
H721 H 0.54006 0.74399 0.65125 0.0
H722 H 0.50279 0.71225 0.6291 0.0
H723 H 0.457 0.60796 0.48896 0.0
H724 H 0.44417 0.65633 0.50664 0.0
H725 H 0.48765 0.63858 0.5874 0.0
H726 H 0.50176 0.59079 0.56926 0.0
H727 H 0.49739 0.69162 0.57436 0.0
H728 H 0.41137 0.6332 0.57828 0.0
H729 H 0.37309 0.60041 0.55971 0.0
H730 H 0.34725 0.66505 0.49817 0.0
H731 H 0.38565 0.6981 0.51612 0.0
C732 C 0.41693 0.79235 0.6363 0.0
C733 C 0.40533 0.81396 0.61818 0.0
C734 C 0.42778 0.76653 0.62464 0.0
C735 C 0.42698 0.7617 0.5947 0.0
C736 C 0.4156 0.78313 0.57653 0.0
C737 C 0.40516 0.80912 0.5881 0.0
C738 C 0.43724 0.7339 0.58238 0.0
C739 C 0.41678 0.71524 0.56956 0.0
C740 C 0.46656 0.72519 0.58443 0.0
C741 C 0.48908 0.74421 0.59765 0.0
C742 C 0.49383 0.7725 0.58721 0.0
C743 C 0.51492 0.79037 0.59997 0.0
C744 C 0.53153 0.78011 0.62306 0.0
C745 C 0.52715 0.75193 0.63339 0.0
C746 C 0.50607 0.73398 0.62072 0.0
C747 C 0.46401 0.61448 0.5104 0.0
C748 C 0.48022 0.59552 0.5278 0.0
C749 C 0.45652 0.64207 0.52056 0.0
C750 C 0.46433 0.6509 0.54865 0.0
C751 C 0.48128 0.63229 0.5657 0.0
C752 C 0.4893 0.60494 0.55531 0.0
C753 C 0.4543 0.6792 0.56053 0.0
C754 C 0.47475 0.69799 0.57339 0.0
C755 C 0.42478 0.68777 0.55912 0.0
C756 C 0.40158 0.668 0.54835 0.0
C757 C 0.39765 0.64034 0.56065 0.0
C758 C 0.37592 0.62172 0.55026 0.0
C759 C 0.35781 0.63061 0.52772 0.0
C760 C 0.36133 0.65818 0.51559 0.0
C761 C 0.38306 0.67688 0.52588 0.0
H762 H 0.341 0.61616 0.5197 0.0
H763 H 0.54785 0.79398 0.6329 0.0
H764 H 0.92865 0.98688 0.86717 0.0
H765 H 0.94196 0.00376 0.81878 0.0
H766 H 0.96234 0.91585 0.79371 0.0
H767 H 0.94823 0.89864 0.84141 0.0
H768 H 0.00335 0.95726 0.77466 0.0
H769 H 0.89879 0.94185 0.77665 0.0
H770 H 0.84952 0.95017 0.79572 0.0
H771 H 0.8573 0.04123 0.77701 0.0
H772 H 0.90685 0.0335 0.75824 0.0
H773 H 0.99581 0.94894 0.62398 0.0
H774 H 0.98851 0.94328 0.67579 0.0
H775 H 0.95886 0.03193 0.68179 0.0
H776 H 0.96546 0.03762 0.62963 0.0
H777 H 0.92518 0.99756 0.7128 0.0
H778 H 0.027 0.01298 0.70542 0.0
H779 H 0.07663 0.00583 0.68686 0.0
H780 H 0.07535 0.91743 0.71633 0.0
H781 H 0.02553 0.9239 0.73471 0.0
C782 C 0.936 0.97114 0.85137 0.0
C783 C 0.9373 0.94138 0.85821 0.0
C784 C 0.94372 0.98086 0.82382 0.0
C785 C 0.95299 0.961 0.80273 0.0
C786 C 0.95541 0.93152 0.8098 0.0
C787 C 0.94746 0.92176 0.83718 0.0
C788 C 0.95859 0.97039 0.77272 0.0
C789 C 0.9863 0.96597 0.76104 0.0
C790 C 0.93649 0.98258 0.75535 0.0
C791 C 0.90663 0.98716 0.76638 0.0
C792 C 0.89009 0.96369 0.77683 0.0
C793 C 0.8621 0.96829 0.78755 0.0
C794 C 0.85032 0.99623 0.78766 0.0
C795 C 0.86648 0.01961 0.77697 0.0
C796 C 0.89451 0.01513 0.76629 0.0
C797 C 0.98773 0.96727 0.63625 0.0
C798 C 0.98134 0.99378 0.62265 0.0
C799 C 0.98374 0.96405 0.66594 0.0
C800 C 0.9737 0.98737 0.68277 0.0
C801 C 0.9668 0.01371 0.66923 0.0
C802 C 0.97058 0.01691 0.63943 0.0
C803 C 0.96987 0.98382 0.71438 0.0
C804 C 0.94247 0.98932 0.72643 0.0
C805 C 0.99236 0.97287 0.73216 0.0
C806 C 0.02242 0.96888 0.72126 0.0
C807 C 0.03721 0.99195 0.70777 0.0
C808 C 0.0654 0.98803 0.6973 0.0
C809 C 0.07912 0.96118 0.70037 0.0
C810 C 0.0647 0.93821 0.71396 0.0
C811 C 0.03649 0.94201 0.72444 0.0
H812 H 0.10094 0.95819 0.69225 0.0
H813 H 0.82865 -0.00025 0.79597 0.0
H814 H 0.58024 0.0322 0.36942 0.0
H815 H 0.56759 0.01873 0.3196 0.0
H816 H 0.58739 0.10617 0.29183 0.0
H817 H 0.59835 0.11988 0.34181 0.0
H818 H 0.54168 0.09001 0.26602 0.0
H819 H 0.63429 0.04474 0.2813 0.0
H820 H 0.66983 0.01335 0.30591 0.0
H821 H 0.61522 0.93894 0.29068 0.0
H822 H 0.57917 0.96997 0.2663 0.0
H823 H 0.5637 0.06304 0.1162 0.0
H824 H 0.57311 0.07251 0.16744 0.0
H825 H 0.52754 0.99376 0.19006 0.0
H826 H 0.51759 0.98426 0.13883 0.0
H827 H 0.58401 0.00323 0.21839 0.0
H828 H 0.49265 0.05102 0.20039 0.0
H829 H 0.45987 0.08399 0.17411 0.0
H830 H 0.51662 0.15598 0.19274 0.0
H831 H 0.54997 0.12334 0.21878 0.0
C832 C 0.58177 0.04842 0.35255 0.0
C833 C 0.59017 0.077 0.3592 0.0
C834 C 0.57476 0.04072 0.32411 0.0
C835 C 0.57698 0.06129 0.30177 0.0
C836 C 0.58542 0.0899 0.3086 0.0
C837 C 0.59176 0.09773 0.33709 0.0
C838 C 0.57022 0.05332 0.27132 0.0
C839 C 0.55127 0.0712 0.2556 0.0
C840 C 0.58219 0.02845 0.25772 0.0
C841 C 0.6039 0.00973 0.27224 0.0
C842 C 0.62978 0.02172 0.28337 0.0
C843 C 0.65002 0.00399 0.29726 0.0
C844 C 0.64475 0.97418 0.29992 0.0
C845 C 0.61926 0.96204 0.28864 0.0
C846 C 0.59892 0.97968 0.27477 0.0
C847 C 0.55575 0.04767 0.13204 0.0
C848 C 0.53982 0.02294 0.12348 0.0
C849 C 0.56109 0.05315 0.16127 0.0
C850 C 0.55089 0.03387 0.1824 0.0
C851 C 0.53554 0.00886 0.17398 0.0
C852 C 0.52979 0.00356 0.14475 0.0
C853 C 0.55597 0.04016 0.21334 0.0
C854 C 0.57449 0.02195 0.22904 0.0
C855 C 0.54407 0.065 0.22679 0.0
C856 C 0.52394 0.08468 0.2113 0.0
C857 C 0.49827 0.07383 0.19867 0.0
C858 C 0.47956 0.09247 0.18386 0.0
C859 C 0.4862 0.12205 0.18169 0.0
C860 C 0.51152 0.13306 0.19441 0.0
C861 C 0.53032 0.11451 0.20921 0.0
H862 H 0.47168 0.13644 0.17022 0.0
H863 H 0.66045 0.96049 0.31068 0.0
H864 H 0.42685 0.53764 0.14725 0.0
H865 H 0.44022 0.51728 0.19427 0.0
H866 H 0.45967 0.6034 0.22613 0.0
H867 H 0.44599 0.62393 0.17955 0.0
H868 H 0.4995 0.56335 0.24479 0.0
H869 H 0.39492 0.57388 0.23912 0.0
H870 H 0.34698 0.56534 0.21668 0.0
H871 H 0.35715 0.4733 0.22765 0.0
H872 H 0.40539 0.48129 0.24976 0.0
H873 H 0.44032 0.53481 0.39724 0.0
H874 H 0.4328 0.54618 0.3463 0.0
H875 H 0.50565 0.49227 0.32327 0.0
H876 H 0.51358 0.48092 0.37428 0.0
H877 H 0.42109 0.51293 0.29879 0.0
H878 H 0.54097 0.52622 0.26686 0.0
H879 H 0.58832 0.5373 0.28956 0.0
H880 H 0.54564 0.58682 0.35573 0.0
H881 H 0.49809 0.57636 0.3332 0.0
C882 C 0.43414 0.55221 0.16424 0.0
C883 C 0.43523 0.58242 0.15969 0.0
C884 C 0.44187 0.54054 0.19101 0.0
C885 C 0.4507 0.55889 0.2137 0.0
C886 C 0.45305 0.58887 0.20884 0.0
C887 C 0.4453 0.60055 0.18214 0.0
C888 C 0.45549 0.54733 0.24314 0.0
C889 C 0.48247 0.55208 0.25652 0.0
C890 C 0.43313 0.53293 0.2585 0.0
C891 C 0.40387 0.52816 0.24582 0.0
C892 C 0.38699 0.55181 0.23659 0.0
C893 C 0.35977 0.54708 0.22394 0.0
C894 C 0.34906 0.51879 0.22066 0.0
C895 C 0.3655 0.49519 0.23015 0.0
C896 C 0.39277 0.49981 0.24276 0.0
C897 C 0.45472 0.52524 0.38139 0.0
C898 C 0.4777 0.50711 0.3899 0.0
C899 C 0.45027 0.53166 0.35225 0.0
C900 C 0.46879 0.52024 0.33106 0.0
C901 C 0.49129 0.50153 0.33934 0.0
C902 C 0.49575 0.49504 0.36851 0.0
C903 C 0.46511 0.52898 0.30049 0.0
C904 C 0.43831 0.52374 0.28691 0.0
C905 C 0.48751 0.54326 0.28507 0.0
C906 C 0.51598 0.55021 0.29852 0.0
C907 C 0.54172 0.53956 0.28619 0.0
C908 C 0.56857 0.54572 0.29903 0.0
C909 C 0.56996 0.56265 0.32412 0.0
C910 C 0.54451 0.5736 0.33635 0.0
C911 C 0.5176 0.56754 0.32358 0.0
H912 H 0.59075 0.56731 0.33405 0.0
H913 H 0.328 0.51516 0.21081 0.0
H914 H 0.03761 0.42938 0.65572 0.0
H915 H 0.02247 0.44565 0.70409 0.0
H916 H 0.11168 0.44365 0.73266 0.0
H917 H 0.12685 0.4276 0.6846 0.0
H918 H 0.07182 0.41548 0.77014 0.0
H919 H 0.08346 0.50628 0.71819 0.0
H920 H 0.0732 0.54035 0.67846 0.0
H921 H 0.98292 0.54106 0.70165 0.0
H922 H 0.9926 0.50664 0.7413 0.0
H923 H 0.07627 0.48912 0.9018 0.0
H924 H 0.0839 0.47462 0.85168 0.0
H925 H 0.99512 0.49655 0.83148 0.0
H926 H 0.98761 0.51214 0.88158 0.0
H927 H 0.02901 0.51255 0.78877 0.0
H928 H 0.01614 0.42511 0.84205 0.0
H929 H 0.02439 0.3901 0.88144 0.0
H930 H 0.11333 0.38078 0.85531 0.0
H931 H 0.10574 0.41607 0.816 0.0
C932 C 0.05389 0.43246 0.67239 0.0
C933 C 0.08338 0.42747 0.66646 0.0
C934 C 0.04527 0.44181 0.69987 0.0
C935 C 0.06602 0.44593 0.72181 0.0
C936 C 0.09539 0.44063 0.71597 0.0
C937 C 0.10403 0.43166 0.68851 0.0
C938 C 0.05737 0.4555 0.75108 0.0
C939 C 0.06265 0.43677 0.77431 0.0
C940 C 0.04447 0.48285 0.75622 0.0
C941 C 0.03869 0.50362 0.73248 0.0
C942 C 0.06138 0.51349 0.71465 0.0
C943 C 0.05568 0.53291 0.69218 0.0
C944 C 0.02741 0.54279 0.68747 0.0
C945 C 0.00479 0.53334 0.70529 0.0
C946 C 0.01038 0.51389 0.72777 0.0
C947 C 0.05838 0.491 0.88669 0.0
C948 C 0.03125 0.50153 0.89571 0.0
C949 C 0.06273 0.48256 0.85805 0.0
C950 C 0.03987 0.4838 0.83797 0.0
C951 C 0.01302 0.49522 0.84665 0.0
C952 C 0.00876 0.5041 0.87527 0.0
C953 C 0.04409 0.47277 0.80809 0.0
C954 C 0.0379 0.49113 0.7847 0.0
C955 C 0.05578 0.44484 0.80271 0.0
C956 C 0.06041 0.42341 0.8262 0.0
C957 C 0.03751 0.41574 0.84481 0.0
C958 C 0.04206 0.39583 0.86711 0.0
C959 C 0.06938 0.38327 0.87091 0.0
C960 C 0.09218 0.39054 0.85236 0.0
C961 C 0.08776 0.41047 0.83004 0.0
H962 H 0.07286 0.36786 0.8882 0.0
H963 H 0.02304 0.55783 0.67007 0.0
H964 H 0.87225 0.94556 0.97781 0.0
H965 H 0.82349 0.95931 0.99412 0.0
H966 H 0.79079 0.94674 0.90739 0.0
H967 H 0.83954 0.93427 0.89098 0.0
H968 H 0.76687 0.99192 0.92837 0.0
H969 H 0.78255 0.89515 0.96332 0.0
H970 H 0.80815 0.85645 0.98977 0.0
H971 H 0.7968 0.90321 0.06941 0.0
H972 H 0.77149 0.94242 0.04334 0.0
H973 H 0.61777 0.96146 0.95603 0.0
H974 H 0.66936 0.95417 0.94572 0.0
H975 H 0.69219 0.99845 0.02487 0.0
H976 H 0.64058 0.00645 0.03513 0.0
H977 H 0.72161 0.94077 0.01127 0.0
H978 H 0.70134 0.03637 0.97235 0.0
H979 H 0.67332 0.07098 0.94286 0.0
H980 H 0.6907 0.02041 0.86671 0.0
H981 H 0.71846 0.98527 0.89582 0.0
C982 C 0.85459 0.94599 0.96231 0.0
C983 C 0.85954 0.93901 0.93318 0.0
C984 C 0.82676 0.95367 0.97161 0.0
C985 C 0.80333 0.95366 0.95206 0.0
C986 C 0.80847 0.94704 0.92287 0.0
C987 C 0.83631 0.93992 0.9135 0.0
C988 C 0.7733 0.96001 0.96183 0.0
C989 C 0.75701 0.98056 0.9464 0.0
C990 C 0.76039 0.94549 0.98558 0.0
C991 C 0.77543 0.92187 0.00134 0.0
C992 C 0.78571 0.89728 0.98644 0.0
C993 C 0.80014 0.87524 0.00137 0.0
C994 C 0.80417 0.87741 0.03124 0.0
C995 C 0.7937 0.90159 0.04626 0.0
C996 C 0.77931 0.92372 0.03143 0.0
C997 C 0.63374 0.96952 0.97133 0.0
C998 C 0.62515 0.9846 0.99635 0.0
C999 C 0.66315 0.96539 0.96537 0.0
C1000 C 0.6844 0.97588 0.98452 0.0
C1001 C 0.67598 0.99025 0.00988 0.0
C1002 C 0.64656 0.99487 0.01562 0.0
C1003 C 0.71545 0.97227 0.97757 0.0
C1004 C 0.73178 0.95227 0.99349 0.0
C1005 C 0.7282 0.98673 0.95386 0.0
C1006 C 0.71176 0.00805 0.93632 0.0
C1007 C 0.69898 0.0325 0.94936 0.0
C1008 C 0.68319 0.05224 0.93271 0.0
C1009 C 0.68018 0.04785 0.90295 0.0
C1010 C 0.69303 0.02377 0.88977 0.0
C1011 C 0.70882 0.00395 0.90633 0.0
H1012 H 0.66793 0.06311 0.89007 0.0
H1013 H 0.81535 0.86033 0.04275 0.0
H1014 H 0.66961 0.11507 0.46134 0.0
H1015 H 0.71827 0.10163 0.47608 0.0
H1016 H 0.7057 0.01589 0.44011 0.0
H1017 H 0.65577 0.02839 0.4272 0.0
H1018 H 0.73833 0.01228 0.48662 0.0
H1019 H 0.74015 0.06988 0.40151 0.0
H1020 H 0.72881 0.11155 0.37015 0.0
H1021 H 0.77266 0.16913 0.42918 0.0
H1022 H 0.78389 0.12783 0.46114 0.0
H1023 H 0.89216 0.99061 0.46425 0.0
H1024 H 0.8402 0.99782 0.4554 0.0
H1025 H 0.84149 0.07367 0.51036 0.0
H1026 H 0.89331 0.06637 0.51981 0.0
H1027 H 0.8151 0.08009 0.4526 0.0
H1028 H 0.81259 0.01841 0.5375 0.0
H1029 H 0.82517 0.97427 0.56483 0.0
H1030 H 0.7843 0.92119 0.49984 0.0
H1031 H 0.77179 0.96503 0.47192 0.0
C1032 C 0.67661 0.09299 0.45734 0.0
C1033 C 0.65859 0.0729 0.44279 0.0
C1034 C 0.70477 0.0855 0.46542 0.0
C1035 C 0.71596 0.05806 0.45842 0.0
C1036 C 0.69764 0.03734 0.44541 0.0
C1037 C 0.66917 0.04464 0.43777 0.0
C1038 C 0.7472 0.0518 0.46323 0.0
C1039 C 0.7551 0.02694 0.47888 0.0
C1040 C 0.76918 0.07087 0.45309 0.0
C1041 C 0.76263 0.09579 0.43386 0.0
C1042 C 0.7472 0.09145 0.40791 0.0
C1043 C 0.74081 0.11501 0.39001 0.0
C1044 C 0.74995 0.14298 0.3977 0.0
C1045 C 0.76556 0.14745 0.42327 0.0
C1046 C 0.77196 0.12398 0.44128 0.0
C1047 C 0.88138 0.00883 0.47445 0.0
C1048 C 0.8968 0.02798 0.49269 0.0
C1049 C 0.85172 0.0128 0.46948 0.0
C1050 C 0.83714 0.03618 0.48234 0.0
C1051 C 0.85247 0.05547 0.50033 0.0
C1052 C 0.882 0.05123 0.50573 0.0
C1053 C 0.80601 0.04105 0.47643 0.0
C1054 C 0.79822 0.06554 0.46035 0.0
C1055 C 0.78431 0.0213 0.48556 0.0
C1056 C 0.79152 0.99498 0.50249 0.0
C1057 C 0.80649 0.99731 0.52892 0.0
C1058 C 0.81356 0.97235 0.54455 0.0
C1059 C 0.80561 0.94494 0.53404 0.0
C1060 C 0.79047 0.94244 0.50793 0.0
C1061 C 0.78336 0.96734 0.49222 0.0
H1062 H 0.81111 0.92564 0.54616 0.0
H1063 H 0.74498 0.16119 0.38381 0.0
H1064 H 0.33665 0.59551 0.12867 0.0
H1065 H 0.2875 0.58372 0.11253 0.0
H1066 H 0.31907 0.57079 0.02559 0.0
H1067 H 0.36829 0.5841 0.04164 0.0
H1068 H 0.27094 0.59866 0.0231 0.0
H1069 H 0.29971 0.51248 0.0719 0.0
H1070 H 0.32005 0.48345 0.11176 0.0
H1071 H 0.25199 0.51264 0.16802 0.0
H1072 H 0.23145 0.54217 0.12861 0.0
H1073 H 0.13694 0.5253 0.98361 0.0
H1074 H 0.18834 0.53425 0.99465 0.0
H1075 H 0.16433 0.57486 0.0752 0.0
H1076 H 0.11294 0.5666 0.06414 0.0
H1077 H 0.20946 0.5291 0.07769 0.0
H1078 H 0.1835 0.61773 0.02743 0.0
H1079 H 0.16403 0.64542 0.98622 0.0
H1080 H 0.2281 0.60768 0.93035 0.0
H1081 H 0.24769 0.57942 0.97118 0.0
C1082 C 0.33308 0.58988 0.10618 0.0
C1083 C 0.35616 0.59031 0.08642 0.0
C1084 C 0.30503 0.58303 0.09697 0.0
C1085 C 0.29962 0.57565 0.06795 0.0
C1086 C 0.32272 0.57623 0.04811 0.0
C1087 C 0.35077 0.58371 0.05725 0.0
C1088 C 0.26968 0.56814 0.0584 0.0
C1089 C 0.25774 0.58302 0.03474 0.0
C1090 C 0.25222 0.54793 0.0737 0.0
C1091 C 0.26415 0.52971 0.09733 0.0
C1092 C 0.28915 0.51281 0.09281 0.0
C1093 C 0.30071 0.49626 0.11533 0.0
C1094 C 0.28736 0.49625 0.14242 0.0
C1095 C 0.26233 0.51268 0.14702 0.0
C1096 C 0.25068 0.5293 0.12458 0.0
C1097 C 0.14261 0.53626 0.0036 0.0
C1098 C 0.12092 0.54529 0.023 0.0
C1099 C 0.17192 0.54137 0.00983 0.0
C1100 C 0.17997 0.55516 0.03572 0.0
C1101 C 0.15843 0.56415 0.05513 0.0
C1102 C 0.12913 0.55955 0.04869 0.0
C1103 C 0.21091 0.55993 0.04285 0.0
C1104 C 0.22293 0.54446 0.06597 0.0
C1105 C 0.22855 0.57917 0.02679 0.0
C1106 C 0.21682 0.5962 0.00227 0.0
C1107 C 0.19325 0.61511 0.0063 0.0
C1108 C 0.18223 0.63096 0.98302 0.0
C1109 C 0.19475 0.62824 0.95566 0.0
C1110 C 0.21838 0.60972 0.95154 0.0
C1111 C 0.22946 0.5938 0.97474 0.0
H1112 H 0.1862 0.64054 0.93767 0.0
H1113 H 0.29639 0.48348 0.15985 0.0
H1114 H 0.17799 0.42919 0.62778 0.0
H1115 H 0.2248 0.44475 0.6088 0.0
H1116 H 0.18745 0.45217 0.52348 0.0
H1117 H 0.14044 0.43555 0.54246 0.0
H1118 H 0.23675 0.42627 0.51947 0.0
H1119 H 0.20739 0.51353 0.56456 0.0
H1120 H 0.1878 0.54546 0.60266 0.0
H1121 H 0.25868 0.52291 0.65859 0.0
H1122 H 0.27848 0.4905 0.621 0.0
H1123 H 0.37348 0.49509 0.47829 0.0
H1124 H 0.32149 0.48976 0.48877 0.0
H1125 H 0.3421 0.44927 0.57013 0.0
H1126 H 0.394 0.45381 0.5596 0.0
H1127 H 0.29891 0.49886 0.5699 0.0
H1128 H 0.3229 0.40621 0.5237 0.0
H1129 H 0.34173 0.37668 0.48335 0.0
H1130 H 0.27909 0.41459 0.42601 0.0
H1131 H 0.26018 0.44468 0.46599 0.0
C1132 C 0.17963 0.43462 0.60507 0.0
C1133 C 0.15557 0.43149 0.58662 0.0
C1134 C 0.20639 0.44361 0.59423 0.0
C1135 C 0.20957 0.45026 0.56479 0.0
C1136 C 0.18548 0.44733 0.54629 0.0
C1137 C 0.15869 0.43789 0.5571 0.0
C1138 C 0.23856 0.45855 0.55339 0.0
C1139 C 0.25004 0.44263 0.53013 0.0
C1140 C 0.25607 0.47985 0.56726 0.0
C1141 C 0.24433 0.49943 0.58998 0.0
C1142 C 0.2187 0.51522 0.58505 0.0
C1143 C 0.20757 0.53343 0.60655 0.0
C1144 C 0.22196 0.53618 0.63304 0.0
C1145 C 0.24755 0.52076 0.63806 0.0
C1146 C 0.25877 0.5025 0.61664 0.0
C1147 C 0.36691 0.485 0.49838 0.0
C1148 C 0.38776 0.4748 0.51812 0.0
C1149 C 0.33728 0.48198 0.50428 0.0
C1150 C 0.32816 0.46919 0.5302 0.0
C1151 C 0.34887 0.45924 0.55004 0.0
C1152 C 0.37844 0.46172 0.54392 0.0
C1153 C 0.29699 0.46598 0.53681 0.0
C1154 C 0.28523 0.48293 0.55906 0.0
C1155 C 0.27908 0.44612 0.52167 0.0
C1156 C 0.2904 0.42796 0.49772 0.0
C1157 C 0.31336 0.40848 0.50242 0.0
C1158 C 0.32399 0.39158 0.47964 0.0
C1159 C 0.31169 0.39383 0.45211 0.0
C1160 C 0.28865 0.41292 0.44733 0.0
C1161 C 0.27796 0.42989 0.47004 0.0
H1162 H 0.31994 0.38073 0.4345 0.0
H1163 H 0.21331 0.55029 0.64966 0.0
H1164 H 0.93858 0.84603 0.89244 0.0
H1165 H 0.95227 0.79776 0.90942 0.0
H1166 H 0.95429 0.82931 0.99725 0.0
H1167 H 0.94002 0.87796 0.98035 0.0
H1168 H 0.005 0.7894 0.97316 0.0
H1169 H 0.90178 0.79623 0.98975 0.0
H1170 H 0.85166 0.80879 0.97586 0.0
H1171 H 0.85585 0.74909 0.90447 0.0
H1172 H 0.90623 0.73658 0.91764 0.0
H1173 H 0.01034 0.64474 0.02856 0.0
H1174 H -0.00048 0.69617 0.0216 0.0
H1175 H 0.96304 0.6768 0.93772 0.0
H1176 H 0.97312 0.62526 0.94476 0.0
H1177 H 0.929 0.71282 0.96591 0.0
H1178 H 0.03148 0.7076 0.94619 0.0
H1179 H 0.08266 0.69593 0.95662 0.0
H1180 H 0.08121 0.75257 0.03055 0.0
H1181 H 0.02987 0.76428 0.02077 0.0
C1182 C 0.94243 0.84285 0.91533 0.0
C1183 C 0.93843 0.8657 0.93511 0.0
C1184 C 0.95012 0.81528 0.92497 0.0
C1185 C 0.95422 0.81013 0.95451 0.0
C1186 C 0.95126 0.83305 0.97434 0.0
C1187 C 0.94305 0.86066 0.96472 0.0
C1188 C 0.95999 0.78023 0.96433 0.0
C1189 C 0.98834 0.77267 0.97226 0.0
C1190 C 0.9383 0.75852 0.9623 0.0
C1191 C 0.90788 0.76568 0.95453 0.0
C1192 C 0.89211 0.78599 0.97093 0.0
C1193 C 0.86364 0.79306 0.96322 0.0
C1194 C 0.8506 0.77979 0.93926 0.0
C1195 C 0.86599 0.75937 0.92301 0.0
C1196 C 0.8945 0.75226 0.9306 0.0
C1197 C 0.0001 0.65141 0.00857 0.0
C1198 C 0.99265 0.63086 0.98717 0.0
C1199 C 0.99401 0.68086 0.00461 0.0
C1200 C 0.98073 0.69039 0.97902 0.0
C1201 C 0.97326 0.66993 0.95766 0.0
C1202 C 0.97913 0.64047 0.96168 0.0
C1203 C 0.97426 0.72162 0.97451 0.0
C1204 C 0.9457 0.72948 0.96739 0.0
C1205 C 0.99587 0.74353 0.97707 0.0
C1206 C 0.02674 0.73655 0.98295 0.0
C1207 C 0.042 0.71738 0.96481 0.0
C1208 C 0.07106 0.71079 0.97057 0.0
C1209 C 0.08515 0.72343 0.99428 0.0
C1210 C 0.07025 0.74275 0.01223 0.0
C1211 C 0.04118 0.74939 0.00657 0.0
H1212 H 0.10765 0.7183 0.99871 0.0
H1213 H 0.82855 0.78529 0.93332 0.0
H1214 H 0.43602 0.65199 0.04084 0.0
H1215 H 0.45128 0.70087 0.0255 0.0
H1216 H 0.45514 0.72829 0.11466 0.0
H1217 H 0.44017 0.67975 0.13006 0.0
H1218 H 0.42089 0.7642 0.0768 0.0
H1219 H 0.51557 0.71836 0.08261 0.0
H1220 H 0.55164 0.681 0.06988 0.0
H1221 H 0.54567 0.7051 0.98047 0.0
H1222 H 0.50922 0.74235 0.99264 0.0
H1223 H 0.48524 0.9016 0.0779 0.0
H1224 H 0.47372 0.85049 0.08577 0.0
H1225 H 0.49367 0.83154 0.99656 0.0
H1226 H 0.50638 0.88266 0.98882 0.0
H1227 H 0.5138 0.79003 0.0289 0.0
H1228 H 0.42234 0.83684 0.02098 0.0
H1229 H 0.38477 0.87355 0.03093 0.0
H1230 H 0.38155 0.84684 0.11972 0.0
H1231 H 0.41941 0.81023 0.11041 0.0
C1232 C 0.44047 0.66842 0.05709 0.0
C1233 C 0.43712 0.6621 0.08661 0.0
C1234 C 0.44921 0.69621 0.04834 0.0
C1235 C 0.4543 0.71805 0.069 0.0
C1236 C 0.45133 0.71164 0.09844 0.0
C1237 C 0.44301 0.68388 0.10719 0.0
C1238 C 0.46138 0.74808 0.06017 0.0
C1239 C 0.44129 0.76997 0.06654 0.0
C1240 C 0.48747 0.75522 0.04576 0.0
C1241 C 0.50941 0.73289 0.03848 0.0
C1242 C 0.52173 0.7155 0.0602 0.0
C1243 C 0.5423 0.69439 0.05309 0.0
C1244 C 0.55087 0.69062 0.02437 0.0
C1245 C 0.53896 0.70801 0.0027 0.0
C1246 C 0.51837 0.72913 0.00969 0.0
C1247 C 0.48721 0.88657 0.05995 0.0
C1248 C 0.49652 0.89619 0.03269 0.0
C1249 C 0.48048 0.85736 0.06443 0.0
C1250 C 0.48218 0.83725 0.04159 0.0
C1251 C 0.49206 0.84667 0.01447 0.0
C1252 C 0.49927 0.87588 0.01008 0.0
C1253 C 0.47359 0.80649 0.0462 0.0
C1254 C 0.49326 0.78438 0.03892 0.0
C1255 C 0.4468 0.79902 0.05933 0.0
C1256 C 0.42389 0.82093 0.06503 0.0
C1257 C 0.41376 0.83892 0.04267 0.0
C1258 C 0.39239 0.8597 0.0482 0.0
C1259 C 0.38082 0.86257 0.07596 0.0
C1260 C 0.39055 0.84461 0.09824 0.0
C1261 C 0.41194 0.82381 0.09284 0.0
H1262 H 0.36428 0.87867 0.08019 0.0
H1263 H 0.56681 0.67427 0.01891 0.0
H1264 H 0.12281 0.33731 0.57542 0.0
H1265 H 0.10586 0.28957 0.56 0.0
H1266 H 0.01799 0.31282 0.58202 0.0
H1267 H 0.03464 0.36135 0.59674 0.0
H1268 H 0.0358 0.25998 0.60554 0.0
H1269 H 0.03446 0.30608 0.5132 0.0
H1270 H 0.05399 0.33537 0.47309 0.0
H1271 H 0.12279 0.27382 0.46101 0.0
H1272 H 0.10392 0.24436 0.50134 0.0
H1273 H 0.98067 0.12614 0.55082 0.0
H1274 H 0.98899 0.1779 0.55937 0.0
H1275 H 0.0779 0.16874 0.53158 0.0
H1276 H 0.06964 0.11706 0.52236 0.0
H1277 H 0.05459 0.21641 0.50915 0.0
H1278 H 0.05984 0.17322 0.60356 0.0
H1279 H 0.04239 0.14395 0.64463 0.0
H1280 H 0.96856 0.19992 0.6538 0.0
H1281 H 0.98538 0.22932 0.6125 0.0
C1282 C 0.09974 0.33272 0.57627 0.0
C1283 C 0.08005 0.35337 0.58713 0.0
C1284 C 0.09013 0.30527 0.56759 0.0
C1285 C 0.06067 0.29776 0.56967 0.0
C1286 C 0.04083 0.31827 0.58023 0.0
C1287 C 0.0504 0.34592 0.58871 0.0
C1288 C 0.05114 0.26787 0.56232 0.0
C1289 C 0.03931 0.25058 0.5843 0.0
C1290 C 0.05651 0.25551 0.53482 0.0
C1291 C 0.06788 0.27312 0.51046 0.0
C1292 C 0.05389 0.2989 0.50215 0.0
C1293 C 0.06482 0.31552 0.47934 0.0
C1294 C 0.08964 0.30649 0.46455 0.0
C1295 C 0.10356 0.28079 0.4725 0.0
C1296 C 0.09274 0.26411 0.49531 0.0
C1297 C 0.00203 0.13509 0.54654 0.0
C1298 C 0.02454 0.11739 0.53603 0.0
C1299 C 0.00675 0.1647 0.55151 0.0
C1300 C 0.03416 0.17713 0.54642 0.0
C1301 C 0.05657 0.1596 0.53564 0.0
C1302 C 0.05183 0.13003 0.53049 0.0
C1303 C 0.0396 0.20835 0.5525 0.0
C1304 C 0.05072 0.22588 0.5303 0.0
C1305 C 0.03382 0.22088 0.57988 0.0
C1306 C 0.02369 0.20326 0.60473 0.0
C1307 C 0.03975 0.17914 0.61418 0.0
C1308 C 0.03 0.16256 0.63753 0.0
C1309 C 0.00433 0.17002 0.65176 0.0
C1310 C 0.98841 0.19414 0.64272 0.0
C1311 C 0.99804 0.21078 0.61936 0.0
H1312 H 0.99682 0.15715 0.66984 0.0
H1313 H 0.09807 0.31939 0.44689 0.0
H1314 H 0.53294 0.13368 0.42778 0.0
H1315 H 0.5125 0.181 0.44061 0.0
H1316 H 0.59548 0.20828 0.47466 0.0
H1317 H 0.61649 0.1618 0.46084 0.0
H1318 H 0.54543 0.22729 0.50799 0.0
H1319 H 0.58358 0.22478 0.40984 0.0
H1320 H 0.58658 0.20402 0.36072 0.0
H1321 H 0.49551 0.2194 0.34803 0.0
H1322 H 0.4919 0.23979 0.39732 0.0
H1323 H 0.54501 0.38348 0.44848 0.0
H1324 H 0.55348 0.33152 0.44239 0.0
H1325 H 0.48234 0.3126 0.50004 0.0
H1326 H 0.47418 0.36463 0.50691 0.0
H1327 H 0.522 0.28736 0.42214 0.0
H1328 H 0.49866 0.25072 0.53777 0.0
H1329 H 0.49573 0.27152 0.5869 0.0
H1330 H 0.55983 0.33572 0.56469 0.0
H1331 H 0.56346 0.315 0.51556 0.0
C1332 C 0.54682 0.14965 0.4382 0.0
C1333 C 0.57649 0.14397 0.44292 0.0
C1334 C 0.53501 0.17655 0.44573 0.0
C1335 C 0.55257 0.19807 0.4584 0.0
C1336 C 0.58157 0.19181 0.46505 0.0
C1337 C 0.5935 0.16511 0.4572 0.0
C1338 C 0.54192 0.22816 0.4616 0.0
C1339 C 0.54003 0.24041 0.4893 0.0
C1340 C 0.53512 0.2452 0.43714 0.0
C1341 C 0.53741 0.2335 0.40734 0.0
C1342 C 0.56416 0.22353 0.39664 0.0
C1343 C 0.56597 0.21185 0.36877 0.0
C1344 C 0.54123 0.21032 0.35129 0.0
C1345 C 0.51464 0.22056 0.36161 0.0
C1346 C 0.5127 0.23218 0.38951 0.0
C1347 C 0.53104 0.36831 0.45978 0.0
C1348 C 0.5091 0.37824 0.47841 0.0
C1349 C 0.53586 0.33858 0.45619 0.0
C1350 C 0.5188 0.31818 0.47105 0.0
C1351 C 0.49612 0.32797 0.48878 0.0
C1352 C 0.49146 0.35773 0.49262 0.0
C1353 C 0.52562 0.2868 0.46861 0.0
C1354 C 0.52689 0.27423 0.44096 0.0
C1355 C 0.532 0.26956 0.49314 0.0
C1356 C 0.53107 0.2815 0.52293 0.0
C1357 C 0.51227 0.26915 0.54345 0.0
C1358 C 0.51046 0.28093 0.57127 0.0
C1359 C 0.52747 0.305 0.57886 0.0
C1360 C 0.54658 0.31714 0.55874 0.0
C1361 C 0.54853 0.30538 0.53091 0.0
H1362 H 0.5258 0.31422 0.60033 0.0
H1363 H 0.54267 0.20126 0.32972 0.0
loop_
_geom_bond_atom_site_label_1
_geom_bond_atom_site_label_2
_geom_bond_distance
_geom_bond_site_symmetry_2
_ccdc_geom_bond_type
H0 C3 0.931 . S
H1 C6 0.928 . S
H2 C8 0.930 . S
C3 H0 0.931 . S
C3 C4 1.413 . S
C3 C5 1.360 . S
C4 C3 1.413 . S
C4 C8 1.429 . S
C5 C3 1.360 . S
C5 C6 1.372 . S
C6 H1 0.928 . S
C6 C5 1.372 . S
C6 C7 1.404 . S
C7 C6 1.404 . S
C7 C8 1.391 . S
C8 H2 0.930 . S
C8 C4 1.429 . S
C8 C7 1.391 . S
H9 C12 0.931 . S
H10 C15 0.928 . S
H11 C17 0.930 . S
C12 H9 0.931 . S
C12 C13 1.413 . S
C12 C14 1.360 . S
C13 C12 1.413 . S
C13 C17 1.429 . S
C14 C12 1.360 . S
C14 C15 1.372 . S
C15 H10 0.928 . S
C15 C14 1.372 . S
C15 C16 1.404 . S
C16 C15 1.404 . S
C16 C17 1.391 . S
C17 H11 0.930 . S
C17 C13 1.429 . S
C17 C16 1.391 . S
H18 C21 0.931 . S
H19 C24 0.928 . S
H20 C26 0.930 . S
C21 H18 0.931 . S
C21 C22 1.413 . S
C21 C23 1.360 . S
C22 C21 1.413 . S
C22 C26 1.429 . S
C23 C21 1.360 . S
C23 C24 1.372 . S
C24 H19 0.928 . S
C24 C23 1.372 . S
C24 C25 1.404 . S
C25 C24 1.404 . S
C25 C26 1.391 . S
C26 H20 0.930 . S
C26 C22 1.429 . S
C26 C25 1.391 . S
H27 C30 0.931 . S
H28 C33 0.928 . S
H29 C35 0.930 . S
C30 H27 0.931 . S
C30 C31 1.413 . S
C30 C32 1.360 . S
C31 C30 1.413 . S
C31 C35 1.429 . S
C32 C30 1.360 . S
C32 C33 1.372 . S
C33 H28 0.928 . S
C33 C32 1.372 . S
C33 C34 1.404 . S
C34 C33 1.404 . S
C34 C35 1.391 . S
C35 H29 0.930 . S
C35 C31 1.429 . S
C35 C34 1.391 . S
H36 C39 0.931 . S
H37 C42 0.928 . S
H38 C44 0.930 . S
C39 H36 0.931 . S
C39 C40 1.413 . S
C39 C41 1.360 . S
C40 C39 1.413 . S
C40 C44 1.429 . S
C41 C39 1.360 . S
C41 C42 1.372 . S
C42 H37 0.928 . S
C42 C41 1.372 . S
C42 C43 1.404 . S
C43 C42 1.404 . S
C43 C44 1.391 . S
C44 H38 0.930 . S
C44 C40 1.429 . S
C44 C43 1.391 . S
H45 C48 0.931 . S
H46 C51 0.928 . S
H47 C53 0.930 . S
C48 H45 0.931 . S
C48 C49 1.413 . S
C48 C50 1.360 . S
C49 C48 1.413 . S
C49 C53 1.429 . S
C50 C48 1.360 . S
C50 C51 1.372 . S
C51 H46 0.928 . S
C51 C50 1.372 . S
C51 C52 1.404 . S
C52 C51 1.404 . S
C52 C53 1.391 . S
C53 H47 0.930 . S
C53 C49 1.429 . S
C53 C52 1.391 . S
H54 C57 0.931 . S
H55 C60 0.928 . S
H56 C62 0.930 . S
C57 H54 0.931 . S
C57 C58 1.413 . S
C57 C59 1.360 . S
C58 C57 1.413 . S
C58 C62 1.429 . S
C59 C57 1.360 . S
C59 C60 1.372 . S
C60 H55 0.928 . S
C60 C59 1.372 . S
C60 C61 1.404 . S
C61 C60 1.404 . S
C61 C62 1.391 . S
C62 H56 0.930 . S
C62 C58 1.429 . S
C62 C61 1.391 . S
H63 C66 0.931 . S
H64 C69 0.928 . S
H65 C71 0.930 . S
C66 H63 0.931 . S
C66 C67 1.413 . S
C66 C68 1.360 . S
C67 C66 1.413 . S
C67 C71 1.429 . S
C68 C66 1.360 . S
C68 C69 1.372 . S
C69 H64 0.928 . S
C69 C68 1.372 . S
C69 C70 1.404 . S
C70 C69 1.404 . S
C70 C71 1.391 . S
C71 H65 0.930 . S
C71 C67 1.429 . S
C71 C70 1.391 . S
O72 Zn73 1.953 . S
O72 C88 1.225 1_655 S
Zn73 O72 1.953 . S
Zn73 O74 1.949 1_655 S
Zn73 O80 1.919 . S
Zn73 O85 1.924 . S
O74 Zn73 1.949 1_455 S
O74 Zn75 1.923 1_445 S
O74 Zn76 1.950 . S
O74 Zn77 1.945 1_545 S
Zn75 O74 1.923 1_665 S
Zn75 O78 1.933 . S
Zn75 O81 1.941 1_565 S
Zn75 O82 1.965 1_665 S
Zn76 O74 1.950 . S
Zn76 O83 1.938 . S
Zn76 O84 1.889 1_545 S
Zn76 O94 1.953 . S
Zn77 O74 1.945 1_565 S
Zn77 O79 1.932 1_455 S
Zn77 O86 1.977 . S
Zn77 O87 1.910 1_455 S
O78 Zn75 1.933 . S
O78 C89 1.226 . S
O79 Zn77 1.932 1_655 S
O79 C89 1.307 . S
O80 Zn73 1.919 . S
O80 C91 1.253 . S
O81 Zn75 1.941 1_545 S
O81 C91 1.283 . S
O82 Zn75 1.965 1_445 S
O82 C90 1.303 . S
O83 Zn76 1.938 . S
O83 C90 1.247 . S
O84 Zn76 1.889 1_565 S
O84 C92 1.329 . S
O85 Zn73 1.924 . S
O85 C93 1.311 1_545 S
O86 Zn77 1.977 . S
O86 C92 1.272 . S
O87 Zn77 1.910 1_655 S
O87 C93 1.231 . S
C88 O72 1.225 1_455 S
C88 O94 1.298 . S
C89 O78 1.226 . S
C89 O79 1.307 . S
C90 O82 1.303 . S
C90 O83 1.247 . S
C91 O80 1.253 . S
C91 O81 1.283 . S
C92 O84 1.329 . S
C92 O86 1.272 . S
C93 O85 1.311 1_565 S
C93 O87 1.231 . S
O94 Zn76 1.953 . S
O94 C88 1.298 . S
O95 Zn96 1.953 . S
O95 C111 1.225 . S
Zn96 O95 1.953 . S
Zn96 O97 1.949 1_556 S
Zn96 O103 1.919 . S
Zn96 O108 1.924 1_556 S
O97 Zn96 1.949 1_554 S
O97 Zn98 1.923 1_545 S
O97 Zn99 1.950 . S
O97 Zn100 1.945 1_545 S
Zn98 O97 1.923 1_565 S
Zn98 O101 1.933 . S
Zn98 O104 1.941 1_554 S
Zn98 O105 1.965 1_554 S
Zn99 O97 1.950 . S
Zn99 O106 1.938 . S
Zn99 O107 1.906 . S
Zn99 O117 1.953 . S
Zn100 O97 1.945 1_565 S
Zn100 O102 1.932 . S
Zn100 O109 1.977 1_565 S
Zn100 O110 1.910 1_565 S
O101 Zn98 1.933 . S
O101 C112 1.226 . S
O102 Zn100 1.932 . S
O102 C112 1.307 . S
O103 Zn96 1.919 . S
O103 C114 1.253 1_545 S
O104 Zn98 1.941 1_556 S
O104 C114 1.283 . S
O105 Zn98 1.965 1_556 S
O105 C113 1.303 . S
O106 Zn99 1.938 . S
O106 C113 1.247 1_544 S
O107 Zn99 1.906 . S
O107 C115 1.304 . S
O108 Zn96 1.924 1_554 S
O108 C116 1.311 . S
O109 Zn100 1.977 1_545 S
O109 C115 1.272 . S
O110 Zn100 1.910 1_545 S
O110 C116 1.231 . S
C111 O95 1.225 . S
C111 O117 1.298 1_556 S
C112 O101 1.226 . S
C112 O102 1.307 . S
C113 O105 1.303 . S
C113 O106 1.247 1_566 S
C114 O103 1.253 1_565 S
C114 O104 1.283 . S
C115 O107 1.304 . S
C115 O109 1.272 . S
C116 O108 1.311 . S
C116 O110 1.231 . S
O117 Zn99 1.953 . S
O117 C111 1.298 1_554 S
O118 Zn119 1.953 . S
O118 C134 1.225 . S
Zn119 O118 1.953 . S
Zn119 O120 1.949 . S
Zn119 O126 1.919 . S
Zn119 O131 1.924 . S
O120 Zn119 1.949 . S
O120 Zn121 1.923 . S
O120 Zn122 1.950 . S
O120 Zn123 1.945 . S
Zn121 O120 1.923 . S
Zn121 O124 1.933 . S
Zn121 O127 1.941 . S
Zn121 O128 1.965 . S
Zn122 O120 1.950 . S
Zn122 O129 1.938 . S
Zn122 O130 1.906 . S
Zn122 O140 1.953 . S
Zn123 O120 1.945 . S
Zn123 O125 1.932 . S
Zn123 O132 1.977 . S
Zn123 O133 1.910 . S
O124 Zn121 1.933 . S
O124 C135 1.226 . S
O125 Zn123 1.932 . S
O125 C135 1.307 . S
O126 Zn119 1.919 . S
O126 C137 1.253 . S
O127 Zn121 1.941 . S
O127 C137 1.283 . S
O128 Zn121 1.965 . S
O128 C136 1.303 . S
O129 Zn122 1.938 . S
O129 C136 1.247 . S
O130 Zn122 1.906 . S
O130 C138 1.304 . S
O131 Zn119 1.924 . S
O131 C139 1.311 . S
O132 Zn123 1.977 . S
O132 C138 1.272 . S
O133 Zn123 1.910 . S
O133 C139 1.231 . S
C134 O118 1.225 . S
C134 O140 1.298 . S
C135 O124 1.226 . S
C135 O125 1.307 . S
C136 O128 1.303 . S
C136 O129 1.247 . S
C137 O126 1.253 . S
C137 O127 1.283 . S
C138 O130 1.304 . S
C138 O132 1.272 . S
C139 O131 1.311 . S
C139 O133 1.231 . S
O140 Zn122 1.953 . S
O140 C134 1.298 . S
O141 Zn142 1.953 . S
O141 C157 1.225 . S
Zn142 O141 1.953 . S
Zn142 O143 1.949 1_655 S
Zn142 O149 1.919 . S
Zn142 O154 1.924 . S
O143 Zn142 1.949 1_455 S
O143 Zn144 1.923 1_454 S
O143 Zn145 1.950 . S
O143 Zn146 1.945 1_554 S
Zn144 O143 1.923 1_656 S
Zn144 O147 1.933 1_655 S
Zn144 O150 1.941 . S
Zn144 O151 1.965 . S
Zn145 O143 1.950 . S
Zn145 O152 1.938 . S
Zn145 O153 1.906 . S
Zn145 O163 1.953 . S
Zn146 O143 1.945 1_556 S
Zn146 O148 1.932 . S
Zn146 O155 1.977 1_556 S
Zn146 O156 1.910 1_556 S
O147 Zn144 1.933 1_455 S
O147 C158 1.226 . S
O148 Zn146 1.932 . S
O148 C158 1.307 . S
O149 Zn142 1.919 . S
O149 C160 1.253 1_554 S
O150 Zn144 1.941 . S
O150 C160 1.283 . S
O151 Zn144 1.965 . S
O151 C159 1.303 . S
O152 Zn145 1.938 . S
O152 C159 1.247 1_454 S
O153 Zn145 1.906 . S
O153 C161 1.304 . S
O154 Zn142 1.924 . S
O154 C162 1.311 1_655 S
O155 Zn146 1.977 1_554 S
O155 C161 1.272 . S
O156 Zn146 1.910 1_554 S
O156 C162 1.231 . S
C157 O141 1.225 . S
C157 O163 1.298 1_655 S
C158 O147 1.226 . S
C158 O148 1.307 . S
C159 O151 1.303 . S
C159 O152 1.247 1_656 S
C160 O149 1.253 1_556 S
C160 O150 1.283 . S
C161 O153 1.304 . S
C161 O155 1.272 . S
C162 O154 1.311 1_455 S
C162 O156 1.231 . S
O163 Zn145 1.953 . S
O163 C157 1.298 1_455 S
H164 C182 0.951 . S
H165 C184 0.951 . S
H166 C186 0.950 . S
H167 C187 0.950 . S
H168 C189 0.950 . S
H169 C192 0.950 . S
H170 C193 0.950 . S
H171 C195 0.950 . S
H172 C196 0.950 . S
H173 C197 0.951 . S
H174 C199 0.951 . S
H175 C201 0.950 . S
H176 C202 0.950 . S
H177 C204 0.950 . S
H178 C207 0.950 . S
H179 C208 0.950 . S
H180 C210 0.950 . S
H181 C211 0.955 . S
C182 H164 0.951 . S
C182 C183 1.366 . S
C182 C184 1.388 . S
C183 C182 1.366 . S
C183 C187 1.385 . S
C184 H165 0.951 . S
C184 C182 1.388 . S
C184 C185 1.366 . S
C185 C184 1.366 . S
C185 C186 1.414 . S
C185 C188 1.499 . S
C186 H166 0.950 . S
C186 C185 1.414 . S
C186 C187 1.374 . S
C187 H167 0.950 . S
C187 C183 1.385 . S
C187 C186 1.374 . S
C188 C185 1.499 . S
C188 C189 1.373 . S
C188 C190 1.389 . S
C189 H168 0.950 . S
C189 C188 1.373 . S
C189 C205 1.377 . S
C190 C188 1.389 . S
C190 C191 1.524 . S
C190 C204 1.377 . S
C191 C190 1.524 . S
C191 C192 1.397 . S
C191 C196 1.363 . S
C192 H169 0.950 . S
C192 C191 1.397 . S
C192 C193 1.334 . S
C193 H170 0.950 . S
C193 C192 1.334 . S
C193 C194 1.287 . S
C194 C193 1.287 . S
C194 C195 1.524 . S
C194 H213 0.913 . S
C195 H171 0.950 . S
C195 C194 1.524 . S
C195 C196 1.415 . S
C196 H172 0.950 . S
C196 C191 1.363 . S
C196 C195 1.415 . S
C197 H173 0.951 . S
C197 C198 1.366 . S
C197 C199 1.388 . S
C198 C197 1.366 . S
C198 C202 1.385 . S
C199 H174 0.951 . S
C199 C197 1.388 . S
C199 C200 1.366 . S
C200 C199 1.366 . S
C200 C201 1.414 . S
C200 C203 1.499 . S
C201 H175 0.950 . S
C201 C200 1.414 . S
C201 C202 1.374 . S
C202 H176 0.950 . S
C202 C198 1.385 . S
C202 C201 1.374 . S
C203 C200 1.499 . S
C203 C204 1.373 . S
C203 C205 1.389 . S
C204 H177 0.950 . S
C204 C190 1.377 . S
C204 C203 1.373 . S
C205 C189 1.377 . S
C205 C203 1.389 . S
C205 C206 1.524 . S
C206 C205 1.524 . S
C206 C207 1.397 . S
C206 C211 1.363 1_455 S
C207 H178 0.950 . S
C207 C206 1.397 . S
C207 C208 1.334 1_455 S
C208 H179 0.950 . S
C208 C207 1.334 1_655 S
C208 C209 1.287 . S
C209 C208 1.287 . S
C209 C210 1.524 . S
C209 H212 0.999 . S
C210 H180 0.950 . S
C210 C209 1.524 . S
C210 C211 1.415 . S
C211 H181 0.955 . S
C211 C206 1.363 1_655 S
C211 C210 1.415 . S
H212 C209 0.999 . S
H213 C194 0.913 . S
H214 C232 0.951 . S
H215 C234 0.951 . S
H216 C236 0.950 . S
H217 C237 0.950 . S
H218 C239 0.950 . S
H219 C242 0.950 . S
H220 C243 0.950 . S
H221 C245 0.950 . S
H222 C246 0.950 . S
H223 C247 0.951 . S
H224 C249 0.951 . S
H225 C251 0.950 . S
H226 C252 0.950 . S
H227 C254 0.950 . S
H228 C257 0.950 . S
H229 C258 0.950 . S
H230 C260 0.950 . S
H231 C261 0.950 . S
C232 H214 0.951 . S
C232 C233 1.366 . S
C232 C234 1.388 . S
C233 C232 1.366 . S
C233 C237 1.385 . S
C234 H215 0.951 . S
C234 C232 1.388 . S
C234 C235 1.366 . S
C235 C234 1.366 . S
C235 C236 1.414 . S
C235 C238 1.499 . S
C236 H216 0.950 . S
C236 C235 1.414 . S
C236 C237 1.374 . S
C237 H217 0.950 . S
C237 C233 1.385 . S
C237 C236 1.374 . S
C238 C235 1.499 . S
C238 C239 1.373 . S
C238 C240 1.389 . S
C239 H218 0.950 . S
C239 C238 1.373 . S
C239 C255 1.377 . S
C240 C238 1.389 . S
C240 C241 1.524 . S
C240 C254 1.377 . S
C241 C240 1.524 . S
C241 C242 1.397 . S
C241 C246 1.363 . S
C242 H219 0.950 . S
C242 C241 1.397 . S
C242 C243 1.334 . S
C243 H220 0.950 . S
C243 C242 1.334 . S
C243 C244 1.287 1_565 S
C244 C243 1.287 1_545 S
C244 C245 1.524 . S
C244 H263 0.913 . S
C245 H221 0.950 . S
C245 C244 1.524 . S
C245 C246 1.415 1_545 S
C246 H222 0.950 . S
C246 C241 1.363 . S
C246 C245 1.415 1_565 S
C247 H223 0.951 . S
C247 C248 1.366 . S
C247 C249 1.388 . S
C248 C247 1.366 . S
C248 C252 1.385 . S
C249 H224 0.951 . S
C249 C247 1.388 . S
C249 C250 1.366 . S
C250 C249 1.366 . S
C250 C251 1.414 . S
C250 C253 1.499 . S
C251 H225 0.950 . S
C251 C250 1.414 . S
C251 C252 1.374 . S
C252 H226 0.950 . S
C252 C248 1.385 . S
C252 C251 1.374 . S
C253 C250 1.499 . S
C253 C254 1.373 . S
C253 C255 1.389 . S
C254 H227 0.950 . S
C254 C240 1.377 . S
C254 C253 1.373 . S
C255 C239 1.377 . S
C255 C253 1.389 . S
C255 C256 1.524 . S
C256 C255 1.524 . S
C256 C257 1.397 . S
C256 C261 1.363 . S
C257 H228 0.950 . S
C257 C256 1.397 . S
C257 C258 1.334 . S
C258 H229 0.950 . S
C258 C257 1.334 . S
C258 C259 1.287 . S
C259 C258 1.287 . S
C259 C260 1.524 . S
C259 H262 0.999 . S
C260 H230 0.950 . S
C260 C259 1.524 . S
C260 C261 1.415 . S
C261 H231 0.950 . S
C261 C256 1.363 . S
C261 C260 1.415 . S
H262 C259 0.999 . S
H263 C244 0.913 . S
H264 C282 0.951 . S
H265 C284 0.951 . S
H266 C286 0.950 . S
H267 C287 0.950 . S
H268 C289 0.950 . S
H269 C292 0.950 . S
H270 C293 0.950 . S
H271 C295 0.950 . S
H272 C296 0.950 . S
H273 C297 0.951 . S
H274 C299 0.951 . S
H275 C301 0.950 . S
H276 C302 0.950 . S
H277 C304 0.950 . S
H278 C307 0.950 . S
H279 C308 0.950 . S
H280 C310 0.950 . S
H281 C311 0.950 . S
C282 H264 0.951 . S
C282 C283 1.366 . S
C282 C284 1.388 . S
C283 C282 1.366 . S
C283 C287 1.385 . S
C284 H265 0.951 . S
C284 C282 1.388 . S
C284 C285 1.366 . S
C285 C284 1.366 . S
C285 C286 1.414 . S
C285 C288 1.499 . S
C286 H266 0.950 . S
C286 C285 1.414 . S
C286 C287 1.374 . S
C287 H267 0.950 . S
C287 C283 1.385 . S
C287 C286 1.374 . S
C288 C285 1.499 . S
C288 C289 1.373 . S
C288 C290 1.389 . S
C289 H268 0.950 . S
C289 C288 1.373 . S
C289 C305 1.377 . S
C290 C288 1.389 . S
C290 C291 1.524 . S
C290 C304 1.377 . S
C291 C290 1.524 . S
C291 C292 1.397 . S
C291 C296 1.363 . S
C292 H269 0.950 . S
C292 C291 1.397 . S
C292 C293 1.334 . S
C293 H270 0.950 . S
C293 C292 1.334 . S
C293 C294 1.287 . S
C294 C293 1.287 . S
C294 C295 1.524 . S
C294 H313 0.913 . S
C295 H271 0.950 . S
C295 C294 1.524 . S
C295 C296 1.415 . S
C296 H272 0.950 . S
C296 C291 1.363 . S
C296 C295 1.415 . S
C297 H273 0.951 . S
C297 C298 1.366 . S
C297 C299 1.388 . S
C298 C297 1.366 . S
C298 C302 1.385 . S
C299 H274 0.951 . S
C299 C297 1.388 . S
C299 C300 1.366 . S
C300 C299 1.366 . S
C300 C301 1.414 . S
C300 C303 1.499 . S
C301 H275 0.950 . S
C301 C300 1.414 . S
C301 C302 1.374 . S
C302 H276 0.950 . S
C302 C298 1.385 . S
C302 C301 1.374 . S
C303 C300 1.499 . S
C303 C304 1.373 . S
C303 C305 1.389 . S
C304 H277 0.950 . S
C304 C290 1.377 . S
C304 C303 1.373 . S
C305 C289 1.377 . S
C305 C303 1.389 . S
C305 C306 1.524 . S
C306 C305 1.524 . S
C306 C307 1.397 . S
C306 C311 1.363 . S
C307 H278 0.950 . S
C307 C306 1.397 . S
C307 C308 1.334 . S
C308 H279 0.950 . S
C308 C307 1.334 . S
C308 C309 1.287 . S
C309 C308 1.287 . S
C309 C310 1.524 . S
C309 H312 0.999 . S
C310 H280 0.950 . S
C310 C309 1.524 . S
C310 C311 1.415 . S
C311 H281 0.950 . S
C311 C306 1.363 . S
C311 C310 1.415 . S
H312 C309 0.999 . S
H313 C294 0.913 . S
H314 C332 0.951 . S
H315 C334 0.951 . S
H316 C336 0.950 . S
H317 C337 0.950 . S
H318 C339 0.950 . S
H319 C342 0.950 . S
H320 C343 0.950 . S
H321 C345 0.950 . S
H322 C346 0.950 . S
H323 C347 0.951 1_455 S
H324 C349 0.951 . S
H325 C351 0.950 . S
H326 C352 0.950 . S
H327 C354 0.950 . S
H328 C357 0.950 1_655 S
H329 C358 0.950 . S
H330 C360 0.950 . S
H331 C361 0.950 . S
C332 H314 0.951 . S
C332 C333 1.366 . S
C332 C334 1.388 . S
C333 C332 1.366 . S
C333 C337 1.385 . S
C334 H315 0.951 . S
C334 C332 1.388 . S
C334 C335 1.366 . S
C335 C334 1.366 . S
C335 C336 1.414 . S
C335 C338 1.499 . S
C336 H316 0.950 . S
C336 C335 1.414 . S
C336 C337 1.374 . S
C337 H317 0.950 . S
C337 C333 1.385 . S
C337 C336 1.374 . S
C338 C335 1.499 . S
C338 C339 1.373 . S
C338 C340 1.389 . S
C339 H318 0.950 . S
C339 C338 1.373 . S
C339 C355 1.377 . S
C340 C338 1.389 . S
C340 C341 1.524 . S
C340 C354 1.377 . S
C341 C340 1.524 . S
C341 C342 1.397 . S
C341 C346 1.363 . S
C342 H319 0.950 . S
C342 C341 1.397 . S
C342 C343 1.334 . S
C343 H320 0.950 . S
C343 C342 1.334 . S
C343 C344 1.287 . S
C344 C343 1.287 . S
C344 C345 1.524 . S
C344 H363 0.913 . S
C345 H321 0.950 . S
C345 C344 1.524 . S
C345 C346 1.415 . S
C346 H322 0.950 . S
C346 C341 1.363 . S
C346 C345 1.415 . S
C347 H323 0.951 1_655 S
C347 C348 1.366 . S
C347 C349 1.388 . S
C348 C347 1.366 . S
C348 C352 1.385 . S
C349 H324 0.951 . S
C349 C347 1.388 . S
C349 C350 1.366 . S
C350 C349 1.366 . S
C350 C351 1.414 . S
C350 C353 1.499 . S
C351 H325 0.950 . S
C351 C350 1.414 . S
C351 C352 1.374 . S
C352 H326 0.950 . S
C352 C348 1.385 . S
C352 C351 1.374 . S
C353 C350 1.499 . S
C353 C354 1.373 . S
C353 C355 1.389 . S
C354 H327 0.950 . S
C354 C340 1.377 . S
C354 C353 1.373 . S
C355 C339 1.377 . S
C355 C353 1.389 . S
C355 C356 1.524 1_655 S
C356 C355 1.524 1_455 S
C356 C357 1.397 . S
C356 C361 1.363 . S
C357 H328 0.950 1_455 S
C357 C356 1.397 . S
C357 C358 1.334 . S
C358 H329 0.950 . S
C358 C357 1.334 . S
C358 C359 1.287 . S
C359 C358 1.287 . S
C359 C360 1.524 . S
C359 H362 0.999 . S
C360 H330 0.950 . S
C360 C359 1.524 . S
C360 C361 1.415 . S
C361 H331 0.950 . S
C361 C356 1.363 . S
C361 C360 1.415 . S
H362 C359 0.999 . S
H363 C344 0.913 . S
H364 C382 0.951 . S
H365 C384 0.951 . S
H366 C386 0.950 . S
H367 C387 0.950 . S
H368 C389 0.950 . S
H369 C392 0.950 . S
H370 C393 0.950 . S
H371 C395 0.950 . S
H372 C396 0.950 . S
H373 C397 0.951 . S
H374 C399 0.951 . S
H375 C401 0.950 . S
H376 C402 0.950 . S
H377 C404 0.950 . S
H378 C407 0.950 . S
H379 C408 0.928 1_565 S
H380 C410 0.950 . S
H381 C411 0.950 . S
C382 H364 0.951 . S
C382 C383 1.366 . S
C382 C384 1.388 . S
C383 C382 1.366 . S
C383 C387 1.385 . S
C384 H365 0.951 . S
C384 C382 1.388 . S
C384 C385 1.366 . S
C385 C384 1.366 . S
C385 C386 1.414 . S
C385 C388 1.499 . S
C386 H366 0.950 . S
C386 C385 1.414 . S
C386 C387 1.374 . S
C387 H367 0.950 . S
C387 C383 1.385 . S
C387 C386 1.374 . S
C388 C385 1.499 . S
C388 C389 1.373 . S
C388 C390 1.389 . S
C389 H368 0.950 . S
C389 C388 1.373 . S
C389 C405 1.377 . S
C390 C388 1.389 . S
C390 C391 1.524 . S
C390 C404 1.377 . S
C391 C390 1.524 . S
C391 C392 1.397 . S
C391 C396 1.363 . S
C392 H369 0.950 . S
C392 C391 1.397 . S
C392 C393 1.334 . S
C393 H370 0.950 . S
C393 C392 1.334 . S
C393 C394 1.287 . S
C394 C393 1.287 . S
C394 C395 1.524 . S
C394 H413 0.913 . S
C395 H371 0.950 . S
C395 C394 1.524 . S
C395 C396 1.415 . S
C396 H372 0.950 . S
C396 C391 1.363 . S
C396 C395 1.415 . S
C397 H373 0.951 . S
C397 C398 1.366 . S
C397 C399 1.388 . S
C398 C397 1.366 . S
C398 C402 1.385 . S
C399 H374 0.951 . S
C399 C397 1.388 . S
C399 C400 1.366 . S
C400 C399 1.366 . S
C400 C401 1.414 . S
C400 C403 1.499 . S
C401 H375 0.950 . S
C401 C400 1.414 . S
C401 C402 1.374 . S
C402 H376 0.950 . S
C402 C398 1.385 . S
C402 C401 1.374 . S
C403 C400 1.499 . S
C403 C404 1.373 . S
C403 C405 1.389 . S
C404 H377 0.950 . S
C404 C390 1.377 . S
C404 C403 1.373 . S
C405 C389 1.377 . S
C405 C403 1.389 . S
C405 C406 1.524 . S
C406 C405 1.524 . S
C406 C407 1.397 . S
C406 C411 1.363 . S
C407 H378 0.950 . S
C407 C406 1.397 . S
C407 C408 1.334 . S
C408 H379 0.928 1_545 S
C408 C407 1.334 . S
C408 C409 1.287 1_554 S
C409 C408 1.287 1_556 S
C409 C410 1.524 . S
C409 H412 0.999 . S
C410 H380 0.950 . S
C410 C409 1.524 . S
C410 C411 1.415 1_556 S
C411 H381 0.950 . S
C411 C406 1.363 . S
C411 C410 1.415 1_554 S
H412 C409 0.999 . S
H413 C394 0.913 . S
H414 C432 0.951 . S
H415 C434 0.951 . S
H416 C436 0.950 . S
H417 C437 0.950 . S
H418 C439 0.950 . S
H419 C442 0.950 . S
H420 C443 0.950 . S
H421 C445 0.950 . S
H422 C446 0.950 . S
H423 C447 0.951 . S
H424 C449 0.951 . S
H425 C451 0.950 . S
H426 C452 0.950 . S
H427 C454 0.950 . S
H428 C457 0.950 . S
H429 C458 0.950 . S
H430 C460 0.950 . S
H431 C461 0.950 . S
C432 H414 0.951 . S
C432 C433 1.366 . S
C432 C434 1.388 . S
C433 C432 1.366 . S
C433 C437 1.385 . S
C434 H415 0.951 . S
C434 C432 1.388 . S
C434 C435 1.366 . S
C435 C434 1.366 . S
C435 C436 1.414 . S
C435 C438 1.499 . S
C436 H416 0.950 . S
C436 C435 1.414 . S
C436 C437 1.374 . S
C437 H417 0.950 . S
C437 C433 1.385 . S
C437 C436 1.374 . S
C438 C435 1.499 . S
C438 C439 1.373 . S
C438 C440 1.389 . S
C439 H418 0.950 . S
C439 C438 1.373 . S
C439 C455 1.377 . S
C440 C438 1.389 . S
C440 C441 1.524 . S
C440 C454 1.377 . S
C441 C440 1.524 . S
C441 C442 1.397 . S
C441 C446 1.363 . S
C442 H419 0.950 . S
C442 C441 1.397 . S
C442 C443 1.334 . S
C443 H420 0.950 . S
C443 C442 1.334 . S
C443 C444 1.287 . S
C444 C443 1.287 . S
C444 C445 1.524 . S
C444 H463 0.913 . S
C445 H421 0.950 . S
C445 C444 1.524 . S
C445 C446 1.415 . S
C446 H422 0.950 . S
C446 C441 1.363 . S
C446 C445 1.415 . S
C447 H423 0.951 . S
C447 C448 1.366 . S
C447 C449 1.388 . S
C448 C447 1.366 . S
C448 C452 1.385 . S
C449 H424 0.951 . S
C449 C447 1.388 . S
C449 C450 1.366 . S
C450 C449 1.366 . S
C450 C451 1.414 . S
C450 C453 1.499 . S
C451 H425 0.950 . S
C451 C450 1.414 . S
C451 C452 1.374 . S
C452 H426 0.950 . S
C452 C448 1.385 . S
C452 C451 1.374 . S
C453 C450 1.499 . S
C453 C454 1.373 . S
C453 C455 1.389 . S
C454 H427 0.950 . S
C454 C440 1.377 . S
C454 C453 1.373 . S
C455 C439 1.377 . S
C455 C453 1.389 . S
C455 C456 1.524 . S
C456 C455 1.524 . S
C456 C457 1.397 . S
C456 C461 1.363 . S
C457 H428 0.950 . S
C457 C456 1.397 . S
C457 C458 1.334 . S
C458 H429 0.950 . S
C458 C457 1.334 . S
C458 C459 1.287 . S
C459 C458 1.287 . S
C459 C460 1.524 . S
C459 H462 0.999 . S
C460 H430 0.950 . S
C460 C459 1.524 . S
C460 C461 1.415 . S
C461 H431 0.950 . S
C461 C456 1.363 . S
C461 C460 1.415 . S
H462 C459 0.999 . S
H463 C444 0.913 . S
H464 C482 0.951 . S
H465 C484 0.951 . S
H466 C486 0.950 . S
H467 C487 0.950 . S
H468 C489 0.950 . S
H469 C492 0.950 . S
H470 C493 0.950 . S
H471 C495 0.950 . S
H472 C496 0.950 . S
H473 C497 0.951 . S
H474 C499 0.951 . S
H475 C501 0.950 . S
H476 C502 0.950 . S
H477 C504 0.950 . S
H478 C507 0.950 . S
H479 C508 0.950 . S
H480 C510 0.950 . S
H481 C511 0.950 . S
C482 H464 0.951 . S
C482 C483 1.366 . S
C482 C484 1.388 . S
C483 C482 1.366 . S
C483 C487 1.385 . S
C484 H465 0.951 . S
C484 C482 1.388 . S
C484 C485 1.366 . S
C485 C484 1.366 . S
C485 C486 1.414 . S
C485 C488 1.499 . S
C486 H466 0.950 . S
C486 C485 1.414 . S
C486 C487 1.374 . S
C487 H467 0.950 . S
C487 C483 1.385 . S
C487 C486 1.374 . S
C488 C485 1.499 . S
C488 C489 1.373 . S
C488 C490 1.389 . S
C489 H468 0.950 . S
C489 C488 1.373 . S
C489 C505 1.377 . S
C490 C488 1.389 . S
C490 C491 1.524 . S
C490 C504 1.377 . S
C491 C490 1.524 . S
C491 C492 1.397 . S
C491 C496 1.363 . S
C492 H469 0.950 . S
C492 C491 1.397 . S
C492 C493 1.334 . S
C493 H470 0.950 . S
C493 C492 1.334 . S
C493 C494 1.287 . S
C494 C493 1.287 . S
C494 C495 1.524 . S
C494 H513 0.913 . S
C495 H471 0.950 . S
C495 C494 1.524 . S
C495 C496 1.415 . S
C496 H472 0.950 . S
C496 C491 1.363 . S
C496 C495 1.415 . S
C497 H473 0.951 . S
C497 C498 1.366 . S
C497 C499 1.388 . S
C498 C497 1.366 . S
C498 C502 1.385 . S
C499 H474 0.951 . S
C499 C497 1.388 . S
C499 C500 1.366 . S
C500 C499 1.366 . S
C500 C501 1.414 . S
C500 C503 1.499 . S
C501 H475 0.950 . S
C501 C500 1.414 . S
C501 C502 1.374 . S
C502 H476 0.950 . S
C502 C498 1.385 . S
C502 C501 1.374 . S
C503 C500 1.499 . S
C503 C504 1.373 . S
C503 C505 1.389 . S
C504 H477 0.950 . S
C504 C490 1.377 . S
C504 C503 1.373 . S
C505 C489 1.377 . S
C505 C503 1.389 . S
C505 C506 1.524 . S
C506 C505 1.524 . S
C506 C507 1.397 . S
C506 C511 1.363 . S
C507 H478 0.950 . S
C507 C506 1.397 . S
C507 C508 1.334 . S
C508 H479 0.950 . S
C508 C507 1.334 . S
C508 C509 1.287 . S
C509 C508 1.287 . S
C509 C510 1.524 . S
C509 H512 0.999 . S
C510 H480 0.950 . S
C510 C509 1.524 . S
C510 C511 1.415 . S
C511 H481 0.950 . S
C511 C506 1.363 . S
C511 C510 1.415 . S
H512 C509 0.999 . S
H513 C494 0.913 . S
H514 C532 0.951 . S
H515 C534 0.951 . S
H516 C536 0.950 . S
H517 C537 0.950 . S
H518 C539 0.950 . S
H519 C542 0.950 . S
H520 C543 0.950 . S
H521 C545 0.950 . S
H522 C546 0.950 . S
H523 C547 0.951 . S
H524 C549 0.951 . S
H525 C551 0.950 . S
H526 C552 0.950 . S
H527 C554 0.950 . S
H528 C557 0.950 . S
H529 C558 0.950 . S
H530 C560 0.950 . S
H531 C561 0.950 . S
C532 H514 0.951 . S
C532 C533 1.366 . S
C532 C534 1.388 . S
C533 C532 1.366 . S
C533 C537 1.385 . S
C534 H515 0.951 . S
C534 C532 1.388 . S
C534 C535 1.366 . S
C535 C534 1.366 . S
C535 C536 1.414 . S
C535 C538 1.499 . S
C536 H516 0.950 . S
C536 C535 1.414 . S
C536 C537 1.374 . S
C537 H517 0.950 . S
C537 C533 1.385 . S
C537 C536 1.374 . S
C538 C535 1.499 . S
C538 C539 1.373 . S
C538 C540 1.389 . S
C539 H518 0.950 . S
C539 C538 1.373 . S
C539 C555 1.377 . S
C540 C538 1.389 . S
C540 C541 1.524 . S
C540 C554 1.377 . S
C541 C540 1.524 . S
C541 C542 1.397 . S
C541 C546 1.363 . S
C542 H519 0.950 . S
C542 C541 1.397 . S
C542 C543 1.334 . S
C543 H520 0.950 . S
C543 C542 1.334 . S
C543 C544 1.287 . S
C544 C543 1.287 . S
C544 C545 1.524 . S
C544 H563 0.913 . S
C545 H521 0.950 . S
C545 C544 1.524 . S
C545 C546 1.415 . S
C546 H522 0.950 . S
C546 C541 1.363 . S
C546 C545 1.415 . S
C547 H523 0.951 . S
C547 C548 1.366 . S
C547 C549 1.388 . S
C548 C547 1.366 . S
C548 C552 1.385 . S
C549 H524 0.951 . S
C549 C547 1.388 . S
C549 C550 1.366 . S
C550 C549 1.366 . S
C550 C551 1.414 . S
C550 C553 1.499 . S
C551 H525 0.950 . S
C551 C550 1.414 . S
C551 C552 1.374 . S
C552 H526 0.950 . S
C552 C548 1.385 . S
C552 C551 1.374 . S
C553 C550 1.499 . S
C553 C554 1.373 . S
C553 C555 1.389 . S
C554 H527 0.950 . S
C554 C540 1.377 . S
C554 C553 1.373 . S
C555 C539 1.377 . S
C555 C553 1.389 . S
C555 C556 1.524 . S
C556 C555 1.524 . S
C556 C557 1.397 . S
C556 C561 1.363 . S
C557 H528 0.950 . S
C557 C556 1.397 . S
C557 C558 1.334 . S
C558 H529 0.950 . S
C558 C557 1.334 . S
C558 C559 1.287 . S
C559 C558 1.287 . S
C559 C560 1.524 . S
C559 H562 0.999 . S
C560 H530 0.950 . S
C560 C559 1.524 . S
C560 C561 1.415 . S
C561 H531 0.950 . S
C561 C556 1.363 . S
C561 C560 1.415 . S
H562 C559 0.999 . S
H563 C544 0.913 . S
H564 C582 0.951 . S
H565 C584 0.951 . S
H566 C586 0.950 . S
H567 C587 0.950 . S
H568 C589 0.950 . S
H569 C592 0.950 . S
H570 C593 0.950 . S
H571 C595 0.950 . S
H572 C596 0.950 . S
H573 C597 0.951 1_655 S
H574 C599 0.951 . S
H575 C601 0.950 . S
H576 C602 0.950 . S
H577 C604 0.950 . S
H578 C607 0.950 . S
H579 C608 0.980 . S
H580 C610 0.950 . S
H581 C611 0.950 . S
C582 H564 0.951 . S
C582 C583 1.366 . S
C582 C584 1.388 . S
C583 C582 1.366 . S
C583 C587 1.385 . S
C584 H565 0.951 . S
C584 C582 1.388 . S
C584 C585 1.366 . S
C585 C584 1.366 . S
C585 C586 1.414 . S
C585 C588 1.499 . S
C586 H566 0.950 . S
C586 C585 1.414 . S
C586 C587 1.374 . S
C587 H567 0.950 . S
C587 C583 1.385 . S
C587 C586 1.374 . S
C588 C585 1.499 . S
C588 C589 1.373 . S
C588 C590 1.389 . S
C589 H568 0.950 . S
C589 C588 1.373 . S
C589 C605 1.377 . S
C590 C588 1.389 . S
C590 C591 1.524 . S
C590 C604 1.377 . S
C591 C590 1.524 . S
C591 C592 1.397 . S
C591 C596 1.363 . S
C592 H569 0.950 . S
C592 C591 1.397 . S
C592 C593 1.334 . S
C593 H570 0.950 . S
C593 C592 1.334 . S
C593 C594 1.287 . S
C594 C593 1.287 . S
C594 C595 1.524 . S
C594 H613 0.913 . S
C595 H571 0.950 . S
C595 C594 1.524 . S
C595 C596 1.415 . S
C596 H572 0.950 . S
C596 C591 1.363 . S
C596 C595 1.415 . S
C597 H573 0.951 1_455 S
C597 C598 1.366 . S
C597 C599 1.388 . S
C598 C597 1.366 . S
C598 C602 1.385 . S
C599 H574 0.951 . S
C599 C597 1.388 . S
C599 C600 1.366 . S
C600 C599 1.366 . S
C600 C601 1.414 . S
C600 C603 1.499 . S
C601 H575 0.950 . S
C601 C600 1.414 . S
C601 C602 1.374 . S
C602 H576 0.950 . S
C602 C598 1.385 . S
C602 C601 1.374 . S
C603 C600 1.499 . S
C603 C604 1.373 . S
C603 C605 1.389 . S
C604 H577 0.950 . S
C604 C590 1.377 . S
C604 C603 1.373 . S
C605 C589 1.377 . S
C605 C603 1.389 . S
C605 C606 1.524 . S
C606 C605 1.524 . S
C606 C607 1.397 . S
C606 C611 1.363 1_455 S
C607 H578 0.950 . S
C607 C606 1.397 . S
C607 C608 1.334 1_455 S
C608 H579 0.980 . S
C608 C607 1.334 1_655 S
C608 C609 1.287 . S
C609 C608 1.287 . S
C609 C610 1.524 . S
C609 H612 0.999 . S
C610 H580 0.950 . S
C610 C609 1.524 . S
C610 C611 1.415 . S
C611 H581 0.950 . S
C611 C606 1.363 1_655 S
C611 C610 1.415 . S
H612 C609 0.999 . S
H613 C594 0.913 . S
H614 C632 0.951 . S
H615 C634 0.951 . S
H616 C636 0.950 . S
H617 C637 0.950 . S
H618 C639 0.950 . S
H619 C642 0.950 . S
H620 C643 0.950 . S
H621 C645 0.950 . S
H622 C646 0.950 . S
H623 C647 0.951 1_554 S
H624 C649 0.951 . S
H625 C651 0.950 . S
H626 C652 0.950 . S
H627 C654 0.950 . S
H628 C657 0.950 . S
H629 C658 0.950 . S
H630 C660 0.950 . S
H631 C661 0.950 . S
C632 H614 0.951 . S
C632 C633 1.366 . S
C632 C634 1.388 . S
C633 C632 1.366 . S
C633 C637 1.385 . S
C634 H615 0.951 . S
C634 C632 1.388 . S
C634 C635 1.366 . S
C635 C634 1.366 . S
C635 C636 1.414 . S
C635 C638 1.499 . S
C636 H616 0.950 . S
C636 C635 1.414 . S
C636 C637 1.374 . S
C637 H617 0.950 . S
C637 C633 1.385 . S
C637 C636 1.374 . S
C638 C635 1.499 . S
C638 C639 1.373 . S
C638 C640 1.389 . S
C639 H618 0.950 . S
C639 C638 1.373 . S
C639 C655 1.377 . S
C640 C638 1.389 . S
C640 C641 1.524 . S
C640 C654 1.377 . S
C641 C640 1.524 . S
C641 C642 1.397 . S
C641 C646 1.363 . S
C642 H619 0.950 . S
C642 C641 1.397 . S
C642 C643 1.334 . S
C643 H620 0.950 . S
C643 C642 1.334 . S
C643 C644 1.287 . S
C644 C643 1.287 . S
C644 C645 1.524 . S
C644 H663 0.913 . S
C645 H621 0.950 . S
C645 C644 1.524 . S
C645 C646 1.415 . S
C646 H622 0.950 . S
C646 C641 1.363 . S
C646 C645 1.415 . S
C647 H623 0.951 1_556 S
C647 C648 1.366 . S
C647 C649 1.388 . S
C648 C647 1.366 . S
C648 C652 1.385 . S
C649 H624 0.951 . S
C649 C647 1.388 . S
C649 C650 1.366 . S
C650 C649 1.366 . S
C650 C651 1.414 . S
C650 C653 1.499 . S
C651 H625 0.950 . S
C651 C650 1.414 . S
C651 C652 1.374 . S
C652 H626 0.950 . S
C652 C648 1.385 . S
C652 C651 1.374 . S
C653 C650 1.499 . S
C653 C654 1.373 . S
C653 C655 1.389 . S
C654 H627 0.950 . S
C654 C640 1.377 . S
C654 C653 1.373 . S
C655 C639 1.377 . S
C655 C653 1.389 . S
C655 C656 1.524 . S
C656 C655 1.524 . S
C656 C657 1.397 . S
C656 C661 1.363 . S
C657 H628 0.950 . S
C657 C656 1.397 . S
C657 C658 1.334 . S
C658 H629 0.950 . S
C658 C657 1.334 . S
C658 C659 1.287 . S
C659 C658 1.287 . S
C659 C660 1.524 . S
C659 H662 0.999 . S
C660 H630 0.950 . S
C660 C659 1.524 . S
C660 C661 1.415 . S
C661 H631 0.950 . S
C661 C656 1.363 . S
C661 C660 1.415 . S
H662 C659 0.999 . S
H663 C644 0.913 . S
H664 C682 0.951 . S
H665 C684 0.951 . S
H666 C686 0.950 . S
H667 C687 0.950 . S
H668 C689 0.950 . S
H669 C692 0.950 . S
H670 C693 0.950 . S
H671 C695 0.950 . S
H672 C696 0.950 . S
H673 C697 0.951 . S
H674 C699 0.951 . S
H675 C701 0.950 . S
H676 C702 0.950 1_455 S
H677 C704 0.950 . S
H678 C707 0.950 . S
H679 C708 0.950 . S
H680 C710 0.950 . S
H681 C711 0.950 . S
C682 H664 0.951 . S
C682 C683 1.366 . S
C682 C684 1.388 . S
C683 C682 1.366 . S
C683 C687 1.385 . S
C684 H665 0.951 . S
C684 C682 1.388 . S
C684 C685 1.366 . S
C685 C684 1.366 . S
C685 C686 1.414 . S
C685 C688 1.499 . S
C686 H666 0.950 . S
C686 C685 1.414 . S
C686 C687 1.374 . S
C687 H667 0.950 . S
C687 C683 1.385 . S
C687 C686 1.374 . S
C688 C685 1.499 . S
C688 C689 1.373 . S
C688 C690 1.389 . S
C689 H668 0.950 . S
C689 C688 1.373 . S
C689 C705 1.377 . S
C690 C688 1.389 . S
C690 C691 1.524 . S
C690 C704 1.377 . S
C691 C690 1.524 . S
C691 C692 1.397 . S
C691 C696 1.363 1_655 S
C692 H669 0.950 . S
C692 C691 1.397 . S
C692 C693 1.334 . S
C693 H670 0.950 . S
C693 C692 1.334 . S
C693 C694 1.287 1_655 S
C694 C693 1.287 1_455 S
C694 C695 1.524 . S
C694 H713 0.913 . S
C695 H671 0.950 . S
C695 C694 1.524 . S
C695 C696 1.415 . S
C696 H672 0.950 . S
C696 C691 1.363 1_455 S
C696 C695 1.415 . S
C697 H673 0.951 . S
C697 C698 1.366 . S
C697 C699 1.388 . S
C698 C697 1.366 . S
C698 C702 1.385 . S
C699 H674 0.951 . S
C699 C697 1.388 . S
C699 C700 1.366 . S
C700 C699 1.366 . S
C700 C701 1.414 . S
C700 C703 1.499 . S
C701 H675 0.950 . S
C701 C700 1.414 . S
C701 C702 1.374 . S
C702 H676 0.950 1_655 S
C702 C698 1.385 . S
C702 C701 1.374 . S
C703 C700 1.499 . S
C703 C704 1.373 . S
C703 C705 1.389 . S
C704 H677 0.950 . S
C704 C690 1.377 . S
C704 C703 1.373 . S
C705 C689 1.377 . S
C705 C703 1.389 . S
C705 C706 1.524 . S
C706 C705 1.524 . S
C706 C707 1.397 . S
C706 C711 1.363 . S
C707 H678 0.950 . S
C707 C706 1.397 . S
C707 C708 1.334 . S
C708 H679 0.950 . S
C708 C707 1.334 . S
C708 C709 1.287 . S
C709 C708 1.287 . S
C709 C710 1.524 . S
C709 H712 0.999 . S
C710 H680 0.950 . S
C710 C709 1.524 . S
C710 C711 1.415 . S
C711 H681 0.950 . S
C711 C706 1.363 . S
C711 C710 1.415 . S
H712 C709 0.999 . S
H713 C694 0.913 . S
H714 C732 0.951 . S
H715 C734 0.951 . S
H716 C736 0.950 . S
H717 C737 0.950 . S
H718 C739 0.950 . S
H719 C742 0.950 . S
H720 C743 0.950 . S
H721 C745 0.950 . S
H722 C746 0.950 . S
H723 C747 0.951 . S
H724 C749 0.951 . S
H725 C751 0.950 . S
H726 C752 0.950 . S
H727 C754 0.950 . S
H728 C757 0.950 . S
H729 C758 0.950 . S
H730 C760 0.950 . S
H731 C761 0.950 . S
C732 H714 0.951 . S
C732 C733 1.366 . S
C732 C734 1.388 . S
C733 C732 1.366 . S
C733 C737 1.385 . S
C734 H715 0.951 . S
C734 C732 1.388 . S
C734 C735 1.366 . S
C735 C734 1.366 . S
C735 C736 1.414 . S
C735 C738 1.499 . S
C736 H716 0.950 . S
C736 C735 1.414 . S
C736 C737 1.374 . S
C737 H717 0.950 . S
C737 C733 1.385 . S
C737 C736 1.374 . S
C738 C735 1.499 . S
C738 C739 1.373 . S
C738 C740 1.389 . S
C739 H718 0.950 . S
C739 C738 1.373 . S
C739 C755 1.377 . S
C740 C738 1.389 . S
C740 C741 1.524 . S
C740 C754 1.377 . S
C741 C740 1.524 . S
C741 C742 1.397 . S
C741 C746 1.363 . S
C742 H719 0.950 . S
C742 C741 1.397 . S
C742 C743 1.334 . S
C743 H720 0.950 . S
C743 C742 1.334 . S
C743 C744 1.287 . S
C744 C743 1.287 . S
C744 C745 1.524 . S
C744 H763 0.913 . S
C745 H721 0.950 . S
C745 C744 1.524 . S
C745 C746 1.415 . S
C746 H722 0.950 . S
C746 C741 1.363 . S
C746 C745 1.415 . S
C747 H723 0.951 . S
C747 C748 1.366 . S
C747 C749 1.388 . S
C748 C747 1.366 . S
C748 C752 1.385 . S
C749 H724 0.951 . S
C749 C747 1.388 . S
C749 C750 1.366 . S
C750 C749 1.366 . S
C750 C751 1.414 . S
C750 C753 1.499 . S
C751 H725 0.950 . S
C751 C750 1.414 . S
C751 C752 1.374 . S
C752 H726 0.950 . S
C752 C748 1.385 . S
C752 C751 1.374 . S
C753 C750 1.499 . S
C753 C754 1.373 . S
C753 C755 1.389 . S
C754 H727 0.950 . S
C754 C740 1.377 . S
C754 C753 1.373 . S
C755 C739 1.377 . S
C755 C753 1.389 . S
C755 C756 1.524 . S
C756 C755 1.524 . S
C756 C757 1.397 . S
C756 C761 1.363 . S
C757 H728 0.950 . S
C757 C756 1.397 . S
C757 C758 1.334 . S
C758 H729 0.950 . S
C758 C757 1.334 . S
C758 C759 1.287 . S
C759 C758 1.287 . S
C759 C760 1.524 . S
C759 H762 0.999 . S
C760 H730 0.950 . S
C760 C759 1.524 . S
C760 C761 1.415 . S
C761 H731 0.950 . S
C761 C756 1.363 . S
C761 C760 1.415 . S
H762 C759 0.999 . S
H763 C744 0.913 . S
H764 C782 0.951 . S
H765 C784 0.951 . S
H766 C786 0.950 . S
H767 C787 0.950 . S
H768 C789 0.950 . S
H769 C792 0.950 . S
H770 C793 0.950 . S
H771 C795 0.950 . S
H772 C796 0.950 . S
H773 C797 0.951 . S
H774 C799 0.951 . S
H775 C801 0.950 . S
H776 C802 0.950 . S
H777 C804 0.950 . S
H778 C807 0.950 1_545 S
H779 C808 0.950 1_545 S
H780 C810 0.950 . S
H781 C811 0.950 . S
C782 H764 0.951 . S
C782 C783 1.366 . S
C782 C784 1.388 . S
C783 C782 1.366 . S
C783 C787 1.385 . S
C784 H765 0.951 . S
C784 C782 1.388 . S
C784 C785 1.366 . S
C785 C784 1.366 . S
C785 C786 1.414 . S
C785 C788 1.499 . S
C786 H766 0.950 . S
C786 C785 1.414 . S
C786 C787 1.374 . S
C787 H767 0.950 . S
C787 C783 1.385 . S
C787 C786 1.374 . S
C788 C785 1.499 . S
C788 C789 1.373 . S
C788 C790 1.389 . S
C789 H768 0.950 . S
C789 C788 1.373 . S
C789 C805 1.377 . S
C790 C788 1.389 . S
C790 C791 1.524 . S
C790 C804 1.377 . S
C791 C790 1.524 . S
C791 C792 1.397 . S
C791 C796 1.363 1_565 S
C792 H769 0.950 . S
C792 C791 1.397 . S
C792 C793 1.334 . S
C793 H770 0.950 . S
C793 C792 1.334 . S
C793 C794 1.287 . S
C794 C793 1.287 . S
C794 C795 1.524 1_565 S
C794 H813 0.913 . S
C795 H771 0.950 . S
C795 C794 1.524 1_545 S
C795 C796 1.415 . S
C796 H772 0.950 . S
C796 C791 1.363 1_545 S
C796 C795 1.415 . S
C797 H773 0.951 . S
C797 C798 1.366 . S
C797 C799 1.388 . S
C798 C797 1.366 . S
C798 C802 1.385 1_565 S
C799 H774 0.951 . S
C799 C797 1.388 . S
C799 C800 1.366 . S
C800 C799 1.366 . S
C800 C801 1.414 1_565 S
C800 C803 1.499 . S
C801 H775 0.950 . S
C801 C800 1.414 1_545 S
C801 C802 1.374 . S
C802 H776 0.950 . S
C802 C798 1.385 1_545 S
C802 C801 1.374 . S
C803 C800 1.499 . S
C803 C804 1.373 . S
C803 C805 1.389 . S
C804 H777 0.950 . S
C804 C790 1.377 . S
C804 C803 1.373 . S
C805 C789 1.377 . S
C805 C803 1.389 . S
C805 C806 1.524 1_655 S
C806 C805 1.524 1_455 S
C806 C807 1.397 . S
C806 C811 1.363 . S
C807 H778 0.950 1_565 S
C807 C806 1.397 . S
C807 C808 1.334 . S
C808 H779 0.950 1_565 S
C808 C807 1.334 . S
C808 C809 1.287 . S
C809 C808 1.287 . S
C809 C810 1.524 . S
C809 H812 0.999 . S
C810 H780 0.950 . S
C810 C809 1.524 . S
C810 C811 1.415 . S
C811 H781 0.950 . S
C811 C806 1.363 . S
C811 C810 1.415 . S
H812 C809 0.999 . S
H813 C794 0.913 . S
H814 C832 0.951 . S
H815 C834 0.951 . S
H816 C836 0.950 . S
H817 C837 0.950 . S
H818 C839 0.950 . S
H819 C842 0.950 1_545 S
H820 C843 0.950 . S
H821 C845 0.950 . S
H822 C846 0.950 . S
H823 C847 0.951 . S
H824 C849 0.951 . S
H825 C851 0.950 1_565 S
H826 C852 0.955 . S
H827 C854 0.950 1_565 S
H828 C857 0.950 . S
H829 C858 0.950 . S
H830 C860 0.950 . S
H831 C861 0.950 . S
C832 H814 0.951 . S
C832 C833 1.366 . S
C832 C834 1.388 . S
C833 C832 1.366 . S
C833 C837 1.385 . S
C834 H815 0.951 . S
C834 C832 1.388 . S
C834 C835 1.366 . S
C835 C834 1.366 . S
C835 C836 1.414 . S
C835 C838 1.499 . S
C836 H816 0.950 . S
C836 C835 1.414 . S
C836 C837 1.374 . S
C837 H817 0.950 . S
C837 C833 1.385 . S
C837 C836 1.374 . S
C838 C835 1.499 . S
C838 C839 1.373 . S
C838 C840 1.389 . S
C839 H818 0.950 . S
C839 C838 1.373 . S
C839 C855 1.377 . S
C840 C838 1.389 . S
C840 C841 1.524 1_545 S
C840 C854 1.377 . S
C841 C840 1.524 1_565 S
C841 C842 1.397 . S
C841 C846 1.363 . S
C842 H819 0.950 1_565 S
C842 C841 1.397 . S
C842 C843 1.334 . S
C843 H820 0.950 . S
C843 C842 1.334 . S
C843 C844 1.287 . S
C844 C843 1.287 . S
C844 C845 1.524 . S
C844 H863 0.913 . S
C845 H821 0.950 . S
C845 C844 1.524 . S
C845 C846 1.415 . S
C846 H822 0.950 . S
C846 C841 1.363 . S
C846 C845 1.415 . S
C847 H823 0.951 . S
C847 C848 1.366 . S
C847 C849 1.388 . S
C848 C847 1.366 . S
C848 C852 1.381 1_545 S
C849 H824 0.951 . S
C849 C847 1.388 . S
C849 C850 1.366 . S
C850 C849 1.366 . S
C850 C851 1.414 . S
C850 C853 1.499 . S
C851 H825 0.950 1_545 S
C851 C850 1.414 . S
C851 C852 1.373 1_545 S
C852 H826 0.955 . S
C852 C848 1.381 1_565 S
C852 C851 1.373 1_565 S
C853 C850 1.499 . S
C853 C854 1.373 . S
C853 C855 1.389 . S
C854 H827 0.950 1_545 S
C854 C840 1.377 . S
C854 C853 1.373 . S
C855 C839 1.377 . S
C855 C853 1.389 . S
C855 C856 1.524 . S
C856 C855 1.524 . S
C856 C857 1.397 . S
C856 C861 1.363 . S
C857 H828 0.950 . S
C857 C856 1.397 . S
C857 C858 1.334 . S
C858 H829 0.950 . S
C858 C857 1.334 . S
C858 C859 1.287 . S
C859 C858 1.287 . S
C859 C860 1.524 . S
C859 H862 0.999 . S
C860 H830 0.950 . S
C860 C859 1.524 . S
C860 C861 1.415 . S
C861 H831 0.950 . S
C861 C856 1.363 . S
C861 C860 1.415 . S
H862 C859 0.999 . S
H863 C844 0.913 . S
H864 C882 0.951 . S
H865 C884 0.951 . S
H866 C886 0.950 . S
H867 C887 0.950 . S
H868 C889 0.950 . S
H869 C892 0.950 . S
H870 C893 0.950 . S
H871 C895 0.950 . S
H872 C896 0.950 . S
H873 C897 0.951 . S
H874 C899 0.951 . S
H875 C901 0.950 . S
H876 C902 0.950 . S
H877 C904 0.950 . S
H878 C907 0.950 . S
H879 C908 0.950 . S
H880 C910 0.950 . S
H881 C911 0.950 . S
C882 H864 0.951 . S
C882 C883 1.366 . S
C882 C884 1.388 . S
C883 C882 1.366 . S
C883 C887 1.385 . S
C884 H865 0.951 . S
C884 C882 1.388 . S
C884 C885 1.366 . S
C885 C884 1.366 . S
C885 C886 1.414 . S
C885 C888 1.499 . S
C886 H866 0.950 . S
C886 C885 1.414 . S
C886 C887 1.374 . S
C887 H867 0.950 . S
C887 C883 1.385 . S
C887 C886 1.374 . S
C888 C885 1.499 . S
C888 C889 1.373 . S
C888 C890 1.389 . S
C889 H868 0.950 . S
C889 C888 1.373 . S
C889 C905 1.377 . S
C890 C888 1.389 . S
C890 C891 1.524 . S
C890 C904 1.377 . S
C891 C890 1.524 . S
C891 C892 1.397 . S
C891 C896 1.363 . S
C892 H869 0.950 . S
C892 C891 1.397 . S
C892 C893 1.334 . S
C893 H870 0.950 . S
C893 C892 1.334 . S
C893 C894 1.287 . S
C894 C893 1.287 . S
C894 C895 1.524 . S
C894 H913 0.913 . S
C895 H871 0.950 . S
C895 C894 1.524 . S
C895 C896 1.415 . S
C896 H872 0.950 . S
C896 C891 1.363 . S
C896 C895 1.415 . S
C897 H873 0.951 . S
C897 C898 1.366 . S
C897 C899 1.388 . S
C898 C897 1.366 . S
C898 C902 1.385 . S
C899 H874 0.951 . S
C899 C897 1.388 . S
C899 C900 1.366 . S
C900 C899 1.366 . S
C900 C901 1.414 . S
C900 C903 1.499 . S
C901 H875 0.950 . S
C901 C900 1.414 . S
C901 C902 1.374 . S
C902 H876 0.950 . S
C902 C898 1.385 . S
C902 C901 1.374 . S
C903 C900 1.499 . S
C903 C904 1.373 . S
C903 C905 1.389 . S
C904 H877 0.950 . S
C904 C890 1.377 . S
C904 C903 1.373 . S
C905 C889 1.377 . S
C905 C903 1.389 . S
C905 C906 1.524 . S
C906 C905 1.524 . S
C906 C907 1.397 . S
C906 C911 1.363 . S
C907 H878 0.950 . S
C907 C906 1.397 . S
C907 C908 1.334 . S
C908 H879 0.950 . S
C908 C907 1.334 . S
C908 C909 1.287 . S
C909 C908 1.287 . S
C909 C910 1.524 . S
C909 H912 0.999 . S
C910 H880 0.950 . S
C910 C909 1.524 . S
C910 C911 1.415 . S
C911 H881 0.950 . S
C911 C906 1.363 . S
C911 C910 1.415 . S
H912 C909 0.999 . S
H913 C894 0.913 . S
H914 C932 0.951 . S
H915 C934 0.951 . S
H916 C936 0.950 . S
H917 C937 0.950 . S
H918 C939 0.950 . S
H919 C942 0.950 . S
H920 C943 0.950 . S
H921 C945 0.950 . S
H922 C946 0.950 . S
H923 C947 0.951 . S
H924 C949 0.951 . S
H925 C951 0.950 . S
H926 C952 0.950 . S
H927 C954 0.950 . S
H928 C957 0.950 . S
H929 C958 0.950 . S
H930 C960 0.950 . S
H931 C961 0.950 . S
C932 H914 0.951 . S
C932 C933 1.366 . S
C932 C934 1.388 . S
C933 C932 1.366 . S
C933 C937 1.385 . S
C934 H915 0.951 . S
C934 C932 1.388 . S
C934 C935 1.366 . S
C935 C934 1.366 . S
C935 C936 1.414 . S
C935 C938 1.499 . S
C936 H916 0.950 . S
C936 C935 1.414 . S
C936 C937 1.374 . S
C937 H917 0.950 . S
C937 C933 1.385 . S
C937 C936 1.374 . S
C938 C935 1.499 . S
C938 C939 1.373 . S
C938 C940 1.389 . S
C939 H918 0.950 . S
C939 C938 1.373 . S
C939 C955 1.377 . S
C940 C938 1.389 . S
C940 C941 1.524 . S
C940 C954 1.377 . S
C941 C940 1.524 . S
C941 C942 1.397 . S
C941 C946 1.363 1_455 S
C942 H919 0.950 . S
C942 C941 1.397 . S
C942 C943 1.334 . S
C943 H920 0.950 . S
C943 C942 1.334 . S
C943 C944 1.287 1_455 S
C944 C943 1.287 1_655 S
C944 C945 1.524 . S
C944 H963 0.913 . S
C945 H921 0.950 . S
C945 C944 1.524 . S
C945 C946 1.415 . S
C946 H922 0.950 . S
C946 C941 1.363 1_655 S
C946 C945 1.415 . S
C947 H923 0.951 . S
C947 C948 1.366 . S
C947 C949 1.388 . S
C948 C947 1.366 . S
C948 C952 1.385 . S
C949 H924 0.951 . S
C949 C947 1.388 . S
C949 C950 1.366 . S
C950 C949 1.366 . S
C950 C951 1.414 . S
C950 C953 1.499 . S
C951 H925 0.950 . S
C951 C950 1.414 . S
C951 C952 1.374 . S
C952 H926 0.950 . S
C952 C948 1.385 . S
C952 C951 1.374 . S
C953 C950 1.499 . S
C953 C954 1.373 . S
C953 C955 1.389 . S
C954 H927 0.950 . S
C954 C940 1.377 . S
C954 C953 1.373 . S
C955 C939 1.377 . S
C955 C953 1.389 . S
C955 C956 1.524 . S
C956 C955 1.524 . S
C956 C957 1.397 . S
C956 C961 1.363 . S
C957 H928 0.950 . S
C957 C956 1.397 . S
C957 C958 1.334 . S
C958 H929 0.950 . S
C958 C957 1.334 . S
C958 C959 1.287 . S
C959 C958 1.287 . S
C959 C960 1.524 . S
C959 H962 0.999 . S
C960 H930 0.950 . S
C960 C959 1.524 . S
C960 C961 1.415 . S
C961 H931 0.950 . S
C961 C956 1.363 . S
C961 C960 1.415 . S
H962 C959 0.999 . S
H963 C944 0.913 . S
H964 C982 0.951 . S
H965 C984 0.951 . S
H966 C986 0.950 . S
H967 C987 0.950 . S
H968 C989 0.950 . S
H969 C992 0.950 1_556 S
H970 C993 0.950 . S
H971 C995 0.950 . S
H972 C996 0.950 . S
H973 C997 0.951 . S
H974 C999 0.951 . S
H975 C1001 0.952 1_554 S
H976 C1002 0.950 . S
H977 C1004 0.950 1_554 S
H978 C1007 0.950 . S
H979 C1008 0.950 . S
H980 C1010 0.950 . S
H981 C1011 0.950 . S
C982 H964 0.951 . S
C982 C983 1.366 . S
C982 C984 1.388 . S
C983 C982 1.366 . S
C983 C987 1.385 . S
C984 H965 0.951 . S
C984 C982 1.388 . S
C984 C985 1.366 . S
C985 C984 1.366 . S
C985 C986 1.414 . S
C985 C988 1.499 . S
C986 H966 0.950 . S
C986 C985 1.414 . S
C986 C987 1.374 . S
C987 H967 0.950 . S
C987 C983 1.385 . S
C987 C986 1.374 . S
C988 C985 1.499 . S
C988 C989 1.373 . S
C988 C990 1.389 . S
C989 H968 0.950 . S
C989 C988 1.373 . S
C989 C1005 1.377 . S
C990 C988 1.389 . S
C990 C991 1.524 1_556 S
C990 C1004 1.377 . S
C991 C990 1.524 1_554 S
C991 C992 1.397 . S
C991 C996 1.363 . S
C992 H969 0.950 1_554 S
C992 C991 1.397 . S
C992 C993 1.334 . S
C993 H970 0.950 . S
C993 C992 1.334 . S
C993 C994 1.287 . S
C994 C993 1.287 . S
C994 C995 1.524 . S
C994 H1013 0.913 . S
C995 H971 0.950 . S
C995 C994 1.524 . S
C995 C996 1.415 . S
C996 H972 0.950 . S
C996 C991 1.363 . S
C996 C995 1.415 . S
C997 H973 0.951 . S
C997 C998 1.366 . S
C997 C999 1.388 . S
C998 C997 1.366 . S
C998 C1002 1.385 1_566 S
C999 H974 0.951 . S
C999 C997 1.388 . S
C999 C1000 1.366 . S
C1000 C999 1.366 . S
C1000 C1001 1.412 1_565 S
C1000 C1003 1.499 . S
C1001 H975 0.952 1_556 S
C1001 C1000 1.412 1_545 S
C1001 C1002 1.374 1_556 S
C1002 H976 0.950 . S
C1002 C998 1.385 1_544 S
C1002 C1001 1.374 1_554 S
C1003 C1000 1.499 . S
C1003 C1004 1.373 . S
C1003 C1005 1.389 . S
C1004 H977 0.950 1_556 S
C1004 C990 1.377 . S
C1004 C1003 1.373 . S
C1005 C989 1.377 . S
C1005 C1003 1.389 . S
C1005 C1006 1.524 . S
C1006 C1005 1.524 . S
C1006 C1007 1.397 1_565 S
C1006 C1011 1.363 . S
C1007 H978 0.950 . S
C1007 C1006 1.397 1_545 S
C1007 C1008 1.334 . S
C1008 H979 0.950 . S
C1008 C1007 1.334 . S
C1008 C1009 1.287 . S
C1009 C1008 1.287 . S
C1009 C1010 1.524 1_545 S
C1009 H1012 0.999 . S
C1010 H980 0.950 . S
C1010 C1009 1.524 1_565 S
C1010 C1011 1.415 . S
C1011 H981 0.950 . S
C1011 C1006 1.363 . S
C1011 C1010 1.415 . S
H1012 C1009 0.999 . S
H1013 C994 0.913 . S
H1014 C1032 0.951 . S
H1015 C1034 0.951 . S
H1016 C1036 0.950 . S
H1017 C1037 0.950 . S
H1018 C1039 0.950 . S
H1019 C1042 0.950 . S
H1020 C1043 0.950 . S
H1021 C1045 0.950 . S
H1022 C1046 0.950 . S
H1023 C1047 0.951 1_565 S
H1024 C1049 0.951 1_565 S
H1025 C1051 0.950 . S
H1026 C1052 0.950 . S
H1027 C1054 0.950 . S
H1028 C1057 0.950 . S
H1029 C1058 0.950 . S
H1030 C1060 0.950 . S
H1031 C1061 0.950 . S
C1032 H1014 0.951 . S
C1032 C1033 1.366 . S
C1032 C1034 1.388 . S
C1033 C1032 1.366 . S
C1033 C1037 1.385 . S
C1034 H1015 0.951 . S
C1034 C1032 1.388 . S
C1034 C1035 1.366 . S
C1035 C1034 1.366 . S
C1035 C1036 1.414 . S
C1035 C1038 1.499 . S
C1036 H1016 0.950 . S
C1036 C1035 1.414 . S
C1036 C1037 1.374 . S
C1037 H1017 0.950 . S
C1037 C1033 1.385 . S
C1037 C1036 1.374 . S
C1038 C1035 1.499 . S
C1038 C1039 1.373 . S
C1038 C1040 1.389 . S
C1039 H1018 0.950 . S
C1039 C1038 1.373 . S
C1039 C1055 1.377 . S
C1040 C1038 1.389 . S
C1040 C1041 1.524 . S
C1040 C1054 1.377 . S
C1041 C1040 1.524 . S
C1041 C1042 1.397 . S
C1041 C1046 1.363 . S
C1042 H1019 0.950 . S
C1042 C1041 1.397 . S
C1042 C1043 1.334 . S
C1043 H1020 0.950 . S
C1043 C1042 1.334 . S
C1043 C1044 1.287 . S
C1044 C1043 1.287 . S
C1044 C1045 1.524 . S
C1044 H1063 0.913 . S
C1045 H1021 0.950 . S
C1045 C1044 1.524 . S
C1045 C1046 1.415 . S
C1046 H1022 0.950 . S
C1046 C1041 1.363 . S
C1046 C1045 1.415 . S
C1047 H1023 0.951 1_545 S
C1047 C1048 1.366 . S
C1047 C1049 1.388 . S
C1048 C1047 1.366 . S
C1048 C1052 1.385 . S
C1049 H1024 0.951 1_545 S
C1049 C1047 1.388 . S
C1049 C1050 1.366 . S
C1050 C1049 1.366 . S
C1050 C1051 1.414 . S
C1050 C1053 1.499 . S
C1051 H1025 0.950 . S
C1051 C1050 1.414 . S
C1051 C1052 1.374 . S
C1052 H1026 0.950 . S
C1052 C1048 1.385 . S
C1052 C1051 1.374 . S
C1053 C1050 1.499 . S
C1053 C1054 1.373 . S
C1053 C1055 1.389 . S
C1054 H1027 0.950 . S
C1054 C1040 1.377 . S
C1054 C1053 1.373 . S
C1055 C1039 1.377 . S
C1055 C1053 1.389 . S
C1055 C1056 1.524 . S
C1056 C1055 1.524 . S
C1056 C1057 1.397 . S
C1056 C1061 1.363 1_545 S
C1057 H1028 0.950 . S
C1057 C1056 1.397 . S
C1057 C1058 1.334 . S
C1058 H1029 0.950 . S
C1058 C1057 1.334 . S
C1058 C1059 1.287 1_545 S
C1059 C1058 1.287 1_565 S
C1059 C1060 1.524 . S
C1059 H1062 0.999 . S
C1060 H1030 0.950 . S
C1060 C1059 1.524 . S
C1060 C1061 1.415 . S
C1061 H1031 0.950 . S
C1061 C1056 1.363 1_565 S
C1061 C1060 1.415 . S
H1062 C1059 0.999 . S
H1063 C1044 0.913 . S
H1064 C1082 0.951 . S
H1065 C1084 0.951 . S
H1066 C1086 0.950 . S
H1067 C1087 0.950 . S
H1068 C1089 0.950 . S
H1069 C1092 0.950 . S
H1070 C1093 0.950 . S
H1071 C1095 0.950 . S
H1072 C1096 0.950 . S
H1073 C1097 0.951 . S
H1074 C1099 0.951 1_556 S
H1075 C1101 0.950 . S
H1076 C1102 0.950 . S
H1077 C1104 0.950 . S
H1078 C1107 0.950 . S
H1079 C1108 0.950 . S
H1080 C1110 0.950 . S
H1081 C1111 0.950 . S
C1082 H1064 0.951 . S
C1082 C1083 1.366 . S
C1082 C1084 1.388 . S
C1083 C1082 1.366 . S
C1083 C1087 1.385 . S
C1084 H1065 0.951 . S
C1084 C1082 1.388 . S
C1084 C1085 1.366 . S
C1085 C1084 1.366 . S
C1085 C1086 1.414 . S
C1085 C1088 1.499 . S
C1086 H1066 0.950 . S
C1086 C1085 1.414 . S
C1086 C1087 1.374 . S
C1087 H1067 0.950 . S
C1087 C1083 1.385 . S
C1087 C1086 1.374 . S
C1088 C1085 1.499 . S
C1088 C1089 1.373 . S
C1088 C1090 1.389 . S
C1089 H1068 0.950 . S
C1089 C1088 1.373 . S
C1089 C1105 1.377 . S
C1090 C1088 1.389 . S
C1090 C1091 1.524 . S
C1090 C1104 1.377 . S
C1091 C1090 1.524 . S
C1091 C1092 1.397 . S
C1091 C1096 1.363 . S
C1092 H1069 0.950 . S
C1092 C1091 1.397 . S
C1092 C1093 1.334 . S
C1093 H1070 0.950 . S
C1093 C1092 1.334 . S
C1093 C1094 1.287 . S
C1094 C1093 1.287 . S
C1094 C1095 1.524 . S
C1094 H1113 0.913 . S
C1095 H1071 0.950 . S
C1095 C1094 1.524 . S
C1095 C1096 1.415 . S
C1096 H1072 0.950 . S
C1096 C1091 1.363 . S
C1096 C1095 1.415 . S
C1097 H1073 0.951 . S
C1097 C1098 1.366 1_556 S
C1097 C1099 1.388 1_556 S
C1098 C1097 1.366 1_554 S
C1098 C1102 1.385 . S
C1099 H1074 0.951 1_554 S
C1099 C1097 1.388 1_554 S
C1099 C1100 1.366 . S
C1100 C1099 1.366 . S
C1100 C1101 1.414 . S
C1100 C1103 1.499 . S
C1101 H1075 0.950 . S
C1101 C1100 1.414 . S
C1101 C1102 1.374 . S
C1102 H1076 0.950 . S
C1102 C1098 1.385 . S
C1102 C1101 1.374 . S
C1103 C1100 1.499 . S
C1103 C1104 1.373 . S
C1103 C1105 1.389 . S
C1104 H1077 0.950 . S
C1104 C1090 1.377 . S
C1104 C1103 1.373 . S
C1105 C1089 1.377 . S
C1105 C1103 1.389 . S
C1105 C1106 1.524 . S
C1106 C1105 1.524 . S
C1106 C1107 1.397 . S
C1106 C1111 1.363 1_554 S
C1107 H1078 0.950 . S
C1107 C1106 1.397 . S
C1107 C1108 1.334 1_554 S
C1108 H1079 0.950 . S
C1108 C1107 1.334 1_556 S
C1108 C1109 1.287 . S
C1109 C1108 1.287 . S
C1109 C1110 1.524 . S
C1109 H1112 0.999 . S
C1110 H1080 0.950 . S
C1110 C1109 1.524 . S
C1110 C1111 1.415 . S
C1111 H1081 0.950 . S
C1111 C1106 1.363 1_556 S
C1111 C1110 1.415 . S
H1112 C1109 0.999 . S
H1113 C1094 0.913 . S
H1114 C1132 0.951 . S
H1115 C1134 0.951 . S
H1116 C1136 0.950 . S
H1117 C1137 0.950 . S
H1118 C1139 0.950 . S
H1119 C1142 0.950 . S
H1120 C1143 0.950 . S
H1121 C1145 0.950 . S
H1122 C1146 0.950 . S
H1123 C1147 0.951 . S
H1124 C1149 0.951 . S
H1125 C1151 0.950 . S
H1126 C1152 0.950 . S
H1127 C1154 0.950 . S
H1128 C1157 0.950 . S
H1129 C1158 0.950 . S
H1130 C1160 0.950 . S
H1131 C1161 0.950 . S
C1132 H1114 0.951 . S
C1132 C1133 1.366 . S
C1132 C1134 1.388 . S
C1133 C1132 1.366 . S
C1133 C1137 1.385 . S
C1134 H1115 0.951 . S
C1134 C1132 1.388 . S
C1134 C1135 1.366 . S
C1135 C1134 1.366 . S
C1135 C1136 1.414 . S
C1135 C1138 1.499 . S
C1136 H1116 0.950 . S
C1136 C1135 1.414 . S
C1136 C1137 1.374 . S
C1137 H1117 0.950 . S
C1137 C1133 1.385 . S
C1137 C1136 1.374 . S
C1138 C1135 1.499 . S
C1138 C1139 1.373 . S
C1138 C1140 1.389 . S
C1139 H1118 0.950 . S
C1139 C1138 1.373 . S
C1139 C1155 1.377 . S
C1140 C1138 1.389 . S
C1140 C1141 1.524 . S
C1140 C1154 1.377 . S
C1141 C1140 1.524 . S
C1141 C1142 1.397 . S
C1141 C1146 1.363 . S
C1142 H1119 0.950 . S
C1142 C1141 1.397 . S
C1142 C1143 1.334 . S
C1143 H1120 0.950 . S
C1143 C1142 1.334 . S
C1143 C1144 1.287 . S
C1144 C1143 1.287 . S
C1144 C1145 1.524 . S
C1144 H1163 0.913 . S
C1145 H1121 0.950 . S
C1145 C1144 1.524 . S
C1145 C1146 1.415 . S
C1146 H1122 0.950 . S
C1146 C1141 1.363 . S
C1146 C1145 1.415 . S
C1147 H1123 0.951 . S
C1147 C1148 1.366 . S
C1147 C1149 1.388 . S
C1148 C1147 1.366 . S
C1148 C1152 1.385 . S
C1149 H1124 0.951 . S
C1149 C1147 1.388 . S
C1149 C1150 1.366 . S
C1150 C1149 1.366 . S
C1150 C1151 1.414 . S
C1150 C1153 1.499 . S
C1151 H1125 0.950 . S
C1151 C1150 1.414 . S
C1151 C1152 1.374 . S
C1152 H1126 0.950 . S
C1152 C1148 1.385 . S
C1152 C1151 1.374 . S
C1153 C1150 1.499 . S
C1153 C1154 1.373 . S
C1153 C1155 1.389 . S
C1154 H1127 0.950 . S
C1154 C1140 1.377 . S
C1154 C1153 1.373 . S
C1155 C1139 1.377 . S
C1155 C1153 1.389 . S
C1155 C1156 1.524 . S
C1156 C1155 1.524 . S
C1156 C1157 1.397 . S
C1156 C1161 1.363 . S
C1157 H1128 0.950 . S
C1157 C1156 1.397 . S
C1157 C1158 1.334 . S
C1158 H1129 0.950 . S
C1158 C1157 1.334 . S
C1158 C1159 1.287 . S
C1159 C1158 1.287 . S
C1159 C1160 1.524 . S
C1159 H1162 0.999 . S
C1160 H1130 0.950 . S
C1160 C1159 1.524 . S
C1160 C1161 1.415 . S
C1161 H1131 0.950 . S
C1161 C1156 1.363 . S
C1161 C1160 1.415 . S
H1162 C1159 0.999 . S
H1163 C1144 0.913 . S
H1164 C1182 0.951 . S
H1165 C1184 0.951 . S
H1166 C1186 0.950 . S
H1167 C1187 0.950 . S
H1168 C1189 0.950 . S
H1169 C1192 0.950 . S
H1170 C1193 0.950 . S
H1171 C1195 0.950 . S
H1172 C1196 0.950 . S
H1173 C1197 0.951 1_455 S
H1174 C1199 0.951 1_554 S
H1175 C1201 0.950 . S
H1176 C1202 0.950 . S
H1177 C1204 0.950 . S
H1178 C1207 0.950 . S
H1179 C1208 0.950 . S
H1180 C1210 0.950 . S
H1181 C1211 0.950 . S
C1182 H1164 0.951 . S
C1182 C1183 1.366 . S
C1182 C1184 1.388 . S
C1183 C1182 1.366 . S
C1183 C1187 1.385 . S
C1184 H1165 0.951 . S
C1184 C1182 1.388 . S
C1184 C1185 1.366 . S
C1185 C1184 1.366 . S
C1185 C1186 1.414 . S
C1185 C1188 1.499 . S
C1186 H1166 0.950 . S
C1186 C1185 1.414 . S
C1186 C1187 1.374 . S
C1187 H1167 0.950 . S
C1187 C1183 1.385 . S
C1187 C1186 1.374 . S
C1188 C1185 1.499 . S
C1188 C1189 1.373 . S
C1188 C1190 1.389 . S
C1189 H1168 0.950 . S
C1189 C1188 1.373 . S
C1189 C1205 1.377 . S
C1190 C1188 1.389 . S
C1190 C1191 1.524 . S
C1190 C1204 1.377 . S
C1191 C1190 1.524 . S
C1191 C1192 1.397 . S
C1191 C1196 1.363 . S
C1192 H1169 0.950 . S
C1192 C1191 1.397 . S
C1192 C1193 1.334 . S
C1193 H1170 0.950 . S
C1193 C1192 1.334 . S
C1193 C1194 1.287 . S
C1194 C1193 1.287 . S
C1194 C1195 1.524 . S
C1194 H1213 0.913 . S
C1195 H1171 0.950 . S
C1195 C1194 1.524 . S
C1195 C1196 1.415 . S
C1196 H1172 0.950 . S
C1196 C1191 1.363 . S
C1196 C1195 1.415 . S
C1197 H1173 0.951 1_655 S
C1197 C1198 1.366 1_554 S
C1197 C1199 1.388 1_554 S
C1198 C1197 1.366 1_556 S
C1198 C1202 1.385 . S
C1199 H1174 0.951 1_556 S
C1199 C1197 1.388 1_556 S
C1199 C1200 1.366 . S
C1200 C1199 1.366 . S
C1200 C1201 1.414 . S
C1200 C1203 1.499 . S
C1201 H1175 0.950 . S
C1201 C1200 1.414 . S
C1201 C1202 1.374 . S
C1202 H1176 0.950 . S
C1202 C1198 1.385 . S
C1202 C1201 1.374 . S
C1203 C1200 1.499 . S
C1203 C1204 1.373 . S
C1203 C1205 1.389 . S
C1204 H1177 0.950 . S
C1204 C1190 1.377 . S
C1204 C1203 1.373 . S
C1205 C1189 1.377 . S
C1205 C1203 1.389 . S
C1205 C1206 1.524 1_655 S
C1206 C1205 1.524 1_455 S
C1206 C1207 1.397 . S
C1206 C1211 1.363 . S
C1207 H1178 0.950 . S
C1207 C1206 1.397 . S
C1207 C1208 1.334 . S
C1208 H1179 0.950 . S
C1208 C1207 1.334 . S
C1208 C1209 1.287 . S
C1209 C1208 1.287 . S
C1209 C1210 1.524 . S
C1209 H1212 0.999 . S
C1210 H1180 0.950 . S
C1210 C1209 1.524 . S
C1210 C1211 1.415 . S
C1211 H1181 0.950 . S
C1211 C1206 1.363 . S
C1211 C1210 1.415 . S
H1212 C1209 0.999 . S
H1213 C1194 0.913 . S
H1214 C1232 0.951 . S
H1215 C1234 0.951 . S
H1216 C1236 0.950 . S
H1217 C1237 0.950 . S
H1218 C1239 0.950 . S
H1219 C1242 0.950 . S
H1220 C1243 0.950 . S
H1221 C1245 0.950 . S
H1222 C1246 0.950 1_556 S
H1223 C1247 0.951 . S
H1224 C1249 0.951 . S
H1225 C1251 0.950 . S
H1226 C1252 0.950 . S
H1227 C1254 0.950 . S
H1228 C1257 0.950 . S
H1229 C1258 0.950 . S
H1230 C1260 0.950 . S
H1231 C1261 0.950 . S
C1232 H1214 0.951 . S
C1232 C1233 1.366 . S
C1232 C1234 1.388 . S
C1233 C1232 1.366 . S
C1233 C1237 1.385 . S
C1234 H1215 0.951 . S
C1234 C1232 1.388 . S
C1234 C1235 1.366 . S
C1235 C1234 1.366 . S
C1235 C1236 1.414 . S
C1235 C1238 1.499 . S
C1236 H1216 0.950 . S
C1236 C1235 1.414 . S
C1236 C1237 1.374 . S
C1237 H1217 0.950 . S
C1237 C1233 1.385 . S
C1237 C1236 1.374 . S
C1238 C1235 1.499 . S
C1238 C1239 1.373 . S
C1238 C1240 1.389 . S
C1239 H1218 0.950 . S
C1239 C1238 1.373 . S
C1239 C1255 1.377 . S
C1240 C1238 1.389 . S
C1240 C1241 1.524 . S
C1240 C1254 1.377 . S
C1241 C1240 1.524 . S
C1241 C1242 1.397 . S
C1241 C1246 1.363 . S
C1242 H1219 0.950 . S
C1242 C1241 1.397 . S
C1242 C1243 1.334 . S
C1243 H1220 0.950 . S
C1243 C1242 1.334 . S
C1243 C1244 1.287 . S
C1244 C1243 1.287 . S
C1244 C1245 1.524 1_554 S
C1244 H1263 0.913 . S
C1245 H1221 0.950 . S
C1245 C1244 1.524 1_556 S
C1245 C1246 1.415 1_556 S
C1246 H1222 0.950 1_554 S
C1246 C1241 1.363 . S
C1246 C1245 1.415 1_554 S
C1247 H1223 0.951 . S
C1247 C1248 1.366 . S
C1247 C1249 1.388 . S
C1248 C1247 1.366 . S
C1248 C1252 1.385 . S
C1249 H1224 0.951 . S
C1249 C1247 1.388 . S
C1249 C1250 1.366 . S
C1250 C1249 1.366 . S
C1250 C1251 1.414 . S
C1250 C1253 1.499 . S
C1251 H1225 0.950 . S
C1251 C1250 1.414 . S
C1251 C1252 1.374 . S
C1252 H1226 0.950 . S
C1252 C1248 1.385 . S
C1252 C1251 1.374 . S
C1253 C1250 1.499 . S
C1253 C1254 1.373 . S
C1253 C1255 1.389 . S
C1254 H1227 0.950 . S
C1254 C1240 1.377 . S
C1254 C1253 1.373 . S
C1255 C1239 1.377 . S
C1255 C1253 1.389 . S
C1255 C1256 1.524 . S
C1256 C1255 1.524 . S
C1256 C1257 1.397 . S
C1256 C1261 1.363 . S
C1257 H1228 0.950 . S
C1257 C1256 1.397 . S
C1257 C1258 1.334 . S
C1258 H1229 0.950 . S
C1258 C1257 1.334 . S
C1258 C1259 1.287 . S
C1259 C1258 1.287 . S
C1259 C1260 1.524 . S
C1259 H1262 0.999 . S
C1260 H1230 0.950 . S
C1260 C1259 1.524 . S
C1260 C1261 1.415 . S
C1261 H1231 0.950 . S
C1261 C1256 1.363 . S
C1261 C1260 1.415 . S
H1262 C1259 0.999 . S
H1263 C1244 0.913 . S
H1264 C1282 0.951 . S
H1265 C1284 0.951 . S
H1266 C1286 0.950 . S
H1267 C1287 0.950 . S
H1268 C1289 0.950 . S
H1269 C1292 0.950 . S
H1270 C1293 0.950 . S
H1271 C1295 0.950 . S
H1272 C1296 0.950 . S
H1273 C1297 0.951 . S
H1274 C1299 0.951 . S
H1275 C1301 0.950 . S
H1276 C1302 0.950 . S
H1277 C1304 0.950 . S
H1278 C1307 0.950 . S
H1279 C1308 0.950 . S
H1280 C1310 0.950 . S
H1281 C1311 0.950 . S
C1282 H1264 0.951 . S
C1282 C1283 1.366 . S
C1282 C1284 1.388 . S
C1283 C1282 1.366 . S
C1283 C1287 1.385 . S
C1284 H1265 0.951 . S
C1284 C1282 1.388 . S
C1284 C1285 1.366 . S
C1285 C1284 1.366 . S
C1285 C1286 1.414 . S
C1285 C1288 1.499 . S
C1286 H1266 0.950 . S
C1286 C1285 1.414 . S
C1286 C1287 1.374 . S
C1287 H1267 0.950 . S
C1287 C1283 1.385 . S
C1287 C1286 1.374 . S
C1288 C1285 1.499 . S
C1288 C1289 1.373 . S
C1288 C1290 1.389 . S
C1289 H1268 0.950 . S
C1289 C1288 1.373 . S
C1289 C1305 1.377 . S
C1290 C1288 1.389 . S
C1290 C1291 1.524 . S
C1290 C1304 1.377 . S
C1291 C1290 1.524 . S
C1291 C1292 1.397 . S
C1291 C1296 1.363 . S
C1292 H1269 0.950 . S
C1292 C1291 1.397 . S
C1292 C1293 1.334 . S
C1293 H1270 0.950 . S
C1293 C1292 1.334 . S
C1293 C1294 1.287 . S
C1294 C1293 1.287 . S
C1294 C1295 1.524 . S
C1294 H1313 0.913 . S
C1295 H1271 0.950 . S
C1295 C1294 1.524 . S
C1295 C1296 1.415 . S
C1296 H1272 0.950 . S
C1296 C1291 1.363 . S
C1296 C1295 1.415 . S
C1297 H1273 0.951 . S
C1297 C1298 1.366 . S
C1297 C1299 1.388 . S
C1298 C1297 1.366 . S
C1298 C1302 1.385 . S
C1299 H1274 0.951 . S
C1299 C1297 1.388 . S
C1299 C1300 1.366 . S
C1300 C1299 1.366 . S
C1300 C1301 1.414 . S
C1300 C1303 1.499 . S
C1301 H1275 0.950 . S
C1301 C1300 1.414 . S
C1301 C1302 1.374 . S
C1302 H1276 0.950 . S
C1302 C1298 1.385 . S
C1302 C1301 1.374 . S
C1303 C1300 1.499 . S
C1303 C1304 1.373 . S
C1303 C1305 1.389 . S
C1304 H1277 0.950 . S
C1304 C1290 1.377 . S
C1304 C1303 1.373 . S
C1305 C1289 1.377 . S
C1305 C1303 1.389 . S
C1305 C1306 1.524 . S
C1306 C1305 1.524 . S
C1306 C1307 1.397 . S
C1306 C1311 1.363 . S
C1307 H1278 0.950 . S
C1307 C1306 1.397 . S
C1307 C1308 1.334 . S
C1308 H1279 0.950 . S
C1308 C1307 1.334 . S
C1308 C1309 1.287 . S
C1309 C1308 1.287 . S
C1309 C1310 1.524 . S
C1309 H1312 0.999 . S
C1310 H1280 0.950 . S
C1310 C1309 1.524 . S
C1310 C1311 1.415 . S
C1311 H1281 0.950 . S
C1311 C1306 1.363 . S
C1311 C1310 1.415 . S
H1312 C1309 0.999 . S
H1313 C1294 0.913 . S
H1314 C1332 0.951 . S
H1315 C1334 0.951 . S
H1316 C1336 0.950 . S
H1317 C1337 0.950 . S
H1318 C1339 0.950 . S
H1319 C1342 0.950 . S
H1320 C1343 0.950 . S
H1321 C1345 0.950 . S
H1322 C1346 0.950 . S
H1323 C1347 0.951 . S
H1324 C1349 0.951 . S
H1325 C1351 0.950 . S
H1326 C1352 0.950 . S
H1327 C1354 0.950 . S
H1328 C1357 0.950 . S
H1329 C1358 0.950 . S
H1330 C1360 0.950 . S
H1331 C1361 0.950 . S
C1332 H1314 0.951 . S
C1332 C1333 1.366 . S
C1332 C1334 1.388 . S
C1333 C1332 1.366 . S
C1333 C1337 1.385 . S
C1334 H1315 0.951 . S
C1334 C1332 1.388 . S
C1334 C1335 1.366 . S
C1335 C1334 1.366 . S
C1335 C1336 1.414 . S
C1335 C1338 1.499 . S
C1336 H1316 0.950 . S
C1336 C1335 1.414 . S
C1336 C1337 1.374 . S
C1337 H1317 0.950 . S
C1337 C1333 1.385 . S
C1337 C1336 1.374 . S
C1338 C1335 1.499 . S
C1338 C1339 1.373 . S
C1338 C1340 1.389 . S
C1339 H1318 0.950 . S
C1339 C1338 1.373 . S
C1339 C1355 1.377 . S
C1340 C1338 1.389 . S
C1340 C1341 1.524 . S
C1340 C1354 1.377 . S
C1341 C1340 1.524 . S
C1341 C1342 1.397 . S
C1341 C1346 1.363 . S
C1342 H1319 0.950 . S
C1342 C1341 1.397 . S
C1342 C1343 1.334 . S
C1343 H1320 0.950 . S
C1343 C1342 1.334 . S
C1343 C1344 1.287 . S
C1344 C1343 1.287 . S
C1344 C1345 1.524 . S
C1344 H1363 0.913 . S
C1345 H1321 0.950 . S
C1345 C1344 1.524 . S
C1345 C1346 1.415 . S
C1346 H1322 0.950 . S
C1346 C1341 1.363 . S
C1346 C1345 1.415 . S
C1347 H1323 0.951 . S
C1347 C1348 1.366 . S
C1347 C1349 1.388 . S
C1348 C1347 1.366 . S
C1348 C1352 1.385 . S
C1349 H1324 0.951 . S
C1349 C1347 1.388 . S
C1349 C1350 1.366 . S
C1350 C1349 1.366 . S
C1350 C1351 1.414 . S
C1350 C1353 1.499 . S
C1351 H1325 0.950 . S
C1351 C1350 1.414 . S
C1351 C1352 1.374 . S
C1352 H1326 0.950 . S
C1352 C1348 1.385 . S
C1352 C1351 1.374 . S
C1353 C1350 1.499 . S
C1353 C1354 1.373 . S
C1353 C1355 1.389 . S
C1354 H1327 0.950 . S
C1354 C1340 1.377 . S
C1354 C1353 1.373 . S
C1355 C1339 1.377 . S
C1355 C1353 1.389 . S
C1355 C1356 1.524 . S
C1356 C1355 1.524 . S
C1356 C1357 1.397 . S
C1356 C1361 1.363 . S
C1357 H1328 0.950 . S
C1357 C1356 1.397 . S
C1357 C1358 1.334 . S
C1358 H1329 0.950 . S
C1358 C1357 1.334 . S
C1358 C1359 1.287 . S
C1359 C1358 1.287 . S
C1359 C1360 1.524 . S
C1359 H1362 0.999 . S
C1360 H1330 0.950 . S
C1360 C1359 1.524 . S
C1360 C1361 1.415 . S
C1361 H1331 0.950 . S
C1361 C1356 1.363 . S
C1361 C1360 1.415 . S
H1362 C1359 0.999 . S
H1363 C1344 0.913 . S
C183 C5 1.589 . S
C198 C90 1.568 . S
C233 C14 1.570 . S
C248 C114 1.544 . S
C298 C134 1.370 . S
C283 C25 1.364 . S
C333 C34 1.371 . S
C348 C157 1.380 . S
C398 C116 1.648 . S
C383 C7 1.683 . S
C448 C92 1.648 . S
C433 C13 1.693 . S
C498 C160 1.524 . S
C483 C23 1.557 . S
C548 C137 1.504 . S
C533 C31 1.534 . S
C583 C4 1.377 . S
C598 C162 1.349 . S
C648 C111 1.598 . S
C633 C22 1.592 . S
C683 C32 1.590 . S
C698 C89 1.599 . S
C733 C16 1.353 . S
C748 C139 1.323 . S
C798 C93 1.553 . S
C783 C41 1.559 . S
C833 C50 1.541 . S
C848 C115 1.524 . S
C883 C61 1.682 . S
C898 C135 1.700 . S
C933 C67 1.694 . S
C948 C158 1.713 . S
C983 C40 1.474 . S
C998 C113 1.456 . S
C1048 C91 1.448 . S
C1033 C52 1.452 . S
C1098 C161 1.413 . S
C1083 C59 1.445 . S
C1148 C138 1.432 . S
C1133 C70 1.465 . S
C1183 C43 1.798 . S
C1198 C159 1.776 . S
C1248 C112 1.483 . S
C1233 C58 1.467 . S
C1298 C88 1.477 . S
C1283 C68 1.459 . S
C1333 C49 1.783 . S
C1348 C136 1.757 . S
