# Generated by pormake.
# Topology ssb, (4,4)-cn, num edge types: 1
# Building blocks:
#     Node 0, Type 0, BuildingBlock: GIZVER_clean_linker_0, # of connection points: 4
#     Node 1, Type 0, BuildingBlock: GIZVER_clean_linker_0, # of connection points: 4
#     Node 2, Type 0, BuildingBlock: GIZVER_clean_linker_0, # of connection points: 4
#     Node 3, Type 0, BuildingBlock: GIZVER_clean_linker_0, # of connection points: 4
#     Node 4, Type 0, BuildingBlock: GIZVER_clean_linker_0, # of connection points: 4
#     Node 5, Type 0, BuildingBlock: GIZVER_clean_linker_0, # of connection points: 4
#     Node 6, Type 0, BuildingBlock: GIZVER_clean_linker_0, # of connection points: 4
#     Node 7, Type 0, BuildingBlock: GIZVER_clean_linker_0, # of connection points: 4
#     Node 8, Type 1, BuildingBlock: KOZSID_clean_sbu_0, # of connection points: 4
#     Node 9, Type 1, BuildingBlock: KOZSID_clean_sbu_0, # of connection points: 4
#     Node 10, Type 1, BuildingBlock: KOZSID_clean_sbu_0, # of connection points: 4
#     Node 11, Type 1, BuildingBlock: KOZSID_clean_sbu_0, # of connection points: 4
#     Node 12, Type 1, BuildingBlock: KOZSID_clean_sbu_0, # of connection points: 4
#     Node 13, Type 1, BuildingBlock: KOZSID_clean_sbu_0, # of connection points: 4
#     Node 14, Type 1, BuildingBlock: KOZSID_clean_sbu_0, # of connection points: 4
#     Node 15, Type 1, BuildingBlock: KOZSID_clean_sbu_0, # of connection points: 4
#     Edge 16, Type (0, 1), BuildingBlock: AJUNOK_clean_linker_0, # of connection points: 2
#     Edge 17, Type (0, 1), BuildingBlock: AJUNOK_clean_linker_0, # of connection points: 2
#     Edge 18, Type (0, 1), BuildingBlock: AJUNOK_clean_linker_0, # of connection points: 2
#     Edge 19, Type (0, 1), BuildingBlock: AJUNOK_clean_linker_0, # of connection points: 2
#     Edge 20, Type (0, 1), BuildingBlock: AJUNOK_clean_linker_0, # of connection points: 2
#     Edge 21, Type (0, 1), BuildingBlock: AJUNOK_clean_linker_0, # of connection points: 2
#     Edge 22, Type (0, 1), BuildingBlock: AJUNOK_clean_linker_0, # of connection points: 2
#     Edge 23, Type (0, 1), BuildingBlock: AJUNOK_clean_linker_0, # of connection points: 2
#     Edge 24, Type (0, 1), BuildingBlock: AJUNOK_clean_linker_0, # of connection points: 2
#     Edge 25, Type (0, 1), BuildingBlock: AJUNOK_clean_linker_0, # of connection points: 2
#     Edge 26, Type (0, 1), BuildingBlock: AJUNOK_clean_linker_0, # of connection points: 2
#     Edge 27, Type (0, 1), BuildingBlock: AJUNOK_clean_linker_0, # of connection points: 2
#     Edge 28, Type (0, 1), BuildingBlock: AJUNOK_clean_linker_0, # of connection points: 2
#     Edge 29, Type (0, 1), BuildingBlock: AJUNOK_clean_linker_0, # of connection points: 2
#     Edge 30, Type (0, 1), BuildingBlock: AJUNOK_clean_linker_0, # of connection points: 2
#     Edge 31, Type (0, 1), BuildingBlock: AJUNOK_clean_linker_0, # of connection points: 2
#     Edge 32, Type (0, 1), BuildingBlock: AJUNOK_clean_linker_0, # of connection points: 2
#     Edge 33, Type (0, 1), BuildingBlock: AJUNOK_clean_linker_0, # of connection points: 2
#     Edge 34, Type (0, 1), BuildingBlock: AJUNOK_clean_linker_0, # of connection points: 2
#     Edge 35, Type (0, 1), BuildingBlock: AJUNOK_clean_linker_0, # of connection points: 2
#     Edge 36, Type (0, 1), BuildingBlock: AJUNOK_clean_linker_0, # of connection points: 2
#     Edge 37, Type (0, 1), BuildingBlock: AJUNOK_clean_linker_0, # of connection points: 2
#     Edge 38, Type (0, 1), BuildingBlock: AJUNOK_clean_linker_0, # of connection points: 2
#     Edge 39, Type (0, 1), BuildingBlock: AJUNOK_clean_linker_0, # of connection points: 2
#     Edge 40, Type (0, 1), BuildingBlock: AJUNOK_clean_linker_0, # of connection points: 2
#     Edge 41, Type (0, 1), BuildingBlock: AJUNOK_clean_linker_0, # of connection points: 2
#     Edge 42, Type (0, 1), BuildingBlock: AJUNOK_clean_linker_0, # of connection points: 2
#     Edge 43, Type (0, 1), BuildingBlock: AJUNOK_clean_linker_0, # of connection points: 2
#     Edge 44, Type (0, 1), BuildingBlock: AJUNOK_clean_linker_0, # of connection points: 2
#     Edge 45, Type (0, 1), BuildingBlock: AJUNOK_clean_linker_0, # of connection points: 2
#     Edge 46, Type (0, 1), BuildingBlock: AJUNOK_clean_linker_0, # of connection points: 2
#     Edge 47, Type (0, 1), BuildingBlock: AJUNOK_clean_linker_0, # of connection points: 2
# Relax obj value: 0.004
# Max RMSD: 0.052
# Mean RMSD: 0.026
data_MOF--net-ssb--node1-KOZSID_clean_sbu_0--node2-GIZVER_clean_linker_0--edge1-AJUNOK_clean_linker_0
_symmetry_space_group_name_H-M    P1
_symmetry_Int_Tables_number       1
_symmetry_cell_setting            triclinic
loop_
_symmetry_equiv_pos_as_xyz
'x, y, z'
_cell_length_a     42.168384
_cell_length_b     41.848198
_cell_length_c     30.989688
_cell_angle_alpha  93.654842
_cell_angle_beta   96.635773
_cell_angle_gamma 89.929483
loop_
_atom_site_label
_atom_site_type_symbol
_atom_site_fract_x
_atom_site_fract_y
_atom_site_fract_z
_atom_type_partial_charge
H0 H 0.26562 0.17961 0.2982 0.0
H1 H 0.19771 0.25644 0.30628 0.0
H2 H 0.21671 0.19525 0.41199 0.0
H3 H 0.23874 0.20289 0.23163 0.0
H4 H 0.20981 0.2333 0.23575 0.0
H5 H 0.29809 0.21801 0.24839 0.0
H6 H 0.31858 0.30415 0.18887 0.0
H7 H 0.22313 0.28619 0.21789 0.0
C8 C 0.24989 0.19399 0.31669 0.0
C9 C 0.24449 0.18519 0.35865 0.0
C10 C 0.23373 0.22044 0.29772 0.0
C11 C 0.21164 0.23743 0.32123 0.0
C12 C 0.20569 0.22856 0.3626 0.0
C13 C 0.22253 0.20293 0.38104 0.0
C14 C 0.23411 0.22603 0.24947 0.0
C15 C 0.25834 0.25054 0.23851 0.0
C16 C 0.29043 0.24122 0.23762 0.0
C17 C 0.31203 0.26064 0.21978 0.0
C18 C 0.30175 0.28975 0.20337 0.0
C19 C 0.26974 0.29923 0.2016 0.0
C20 C 0.24815 0.2798 0.22029 0.0
H21 H 0.83755 0.2621 0.2895 0.0
H22 H 0.75927 0.19505 0.28006 0.0
H23 H 0.81983 0.21106 0.40063 0.0
H24 H 0.81248 0.24177 0.21859 0.0
H25 H 0.78444 0.20959 0.21451 0.0
H26 H 0.79462 0.29807 0.22929 0.0
H27 H 0.69756 0.31523 0.17771 0.0
H28 H 0.72721 0.21971 0.20523 0.0
C29 C 0.82313 0.24565 0.30471 0.0
C30 C 0.83156 0.23906 0.34854 0.0
C31 C 0.79689 0.22996 0.27984 0.0
C32 C 0.77879 0.20801 0.29937 0.0
C33 C 0.78665 0.20165 0.34315 0.0
C34 C 0.81277 0.21742 0.36751 0.0
C35 C 0.79055 0.23342 0.23142 0.0
C36 C 0.76371 0.25646 0.22014 0.0
C37 C 0.77047 0.28933 0.21973 0.0
C38 C 0.74658 0.31068 0.20488 0.0
C39 C 0.71577 0.29901 0.19083 0.0
C40 C 0.70863 0.26632 0.1905 0.0
C41 C 0.73247 0.24511 0.20617 0.0
H42 H 0.78384 0.73366 0.3421 0.0
H43 H 0.70955 0.80427 0.34821 0.0
H44 H 0.80575 0.82772 0.40222 0.0
H45 H 0.72594 0.71862 0.34251 0.0
H46 H 0.6958 0.74796 0.3353 0.0
H47 H 0.74958 0.6932 0.27992 0.0
H48 H 0.69245 0.699 0.15646 0.0
H49 H 0.67821 0.76656 0.26282 0.0
C50 C 0.77645 0.75795 0.34997 0.0
C51 C 0.79863 0.77975 0.37289 0.0
C52 C 0.74415 0.76649 0.34058 0.0
C53 C 0.7345 0.79772 0.35361 0.0
C54 C 0.75678 0.82004 0.37539 0.0
C55 C 0.78871 0.81086 0.38447 0.0
C56 C 0.71938 0.74062 0.32524 0.0
C57 C 0.71538 0.73187 0.2765 0.0
C58 C 0.7317 0.7054 0.25908 0.0
C59 C 0.72379 0.69361 0.21548 0.0
C60 C 0.69964 0.70887 0.18934 0.0
C61 C 0.68282 0.73494 0.20606 0.0
C62 C 0.69137 0.74677 0.24941 0.0
H63 H 0.17622 0.74883 0.24534 0.0
H64 H 0.25399 0.81628 0.25087 0.0
H65 H 0.20505 0.80616 0.36327 0.0
H66 H 0.19524 0.76435 0.17876 0.0
H67 H 0.22156 0.79772 0.18055 0.0
H68 H 0.21532 0.71014 0.1755 0.0
H69 H 0.3106 0.69692 0.14215 0.0
H70 H 0.28088 0.79019 0.18779 0.0
C71 C 0.19266 0.76589 0.26379 0.0
C72 C 0.18879 0.77472 0.30749 0.0
C73 C 0.21681 0.78024 0.24336 0.0
C74 C 0.23657 0.80386 0.26692 0.0
C75 C 0.23238 0.81323 0.31012 0.0
C76 C 0.20915 0.79795 0.33045 0.0
C77 C 0.21832 0.77443 0.19498 0.0
C78 C 0.24533 0.75247 0.18447 0.0
C79 C 0.239 0.71972 0.1739 0.0
C80 C 0.26237 0.69989 0.15795 0.0
C81 C 0.29276 0.71237 0.15499 0.0
C82 C 0.29987 0.7448 0.16581 0.0
C83 C 0.27598 0.76489 0.18059 0.0
H84 H 0.31674 0.77489 0.77305 0.0
H85 H 0.24779 0.69775 0.75779 0.0
H86 H 0.30835 0.7142 0.87809 0.0
H87 H 0.29979 0.74714 0.70123 0.0
H88 H 0.26802 0.71916 0.69424 0.0
H89 H 0.29004 0.80332 0.688 0.0
H90 H 0.19716 0.82397 0.62359 0.0
H91 H 0.21154 0.7376 0.69092 0.0
C92 C 0.30422 0.75613 0.78688 0.0
C93 C 0.31464 0.7476 0.82945 0.0
C94 C 0.2798 0.73869 0.76056 0.0
C95 C 0.26526 0.71262 0.77821 0.0
C96 C 0.27504 0.70431 0.82123 0.0
C97 C 0.29946 0.72207 0.84628 0.0
C98 C 0.27588 0.74245 0.71149 0.0
C99 C 0.25303 0.76836 0.69439 0.0
C100 C 0.26488 0.79748 0.68085 0.0
C101 C 0.24484 0.81755 0.6547 0.0
C102 C 0.21271 0.80876 0.64368 0.0
C103 C 0.20046 0.78016 0.65653 0.0
C104 C 0.22052 0.76043 0.68271 0.0
H105 H 0.28928 0.2176 0.88685 0.0
H106 H 0.22176 0.29484 0.87504 0.0
H107 H 0.3219 0.31545 0.90484 0.0
H108 H 0.23165 0.20764 0.88719 0.0
H109 H 0.20407 0.2401 0.88545 0.0
H110 H 0.25118 0.18457 0.81931 0.0
H111 H 0.18968 0.19614 0.70117 0.0
H112 H 0.17795 0.25683 0.8156 0.0
C113 C 0.28427 0.243 0.88654 0.0
C114 C 0.30949 0.26527 0.89557 0.0
C115 C 0.25251 0.25355 0.87815 0.0
C116 C 0.2462 0.28651 0.87977 0.0
C117 C 0.27118 0.30876 0.88911 0.0
C118 C 0.30274 0.29812 0.89616 0.0
C119 C 0.22508 0.22999 0.87076 0.0
C120 C 0.21588 0.2219 0.82279 0.0
C121 C 0.23201 0.1973 0.80148 0.0
C122 C 0.22243 0.18808 0.75777 0.0
C123 C 0.19736 0.20401 0.7348 0.0
C124 C 0.18117 0.2289 0.75516 0.0
C125 C 0.19056 0.23789 0.79935 0.0
H126 H 0.69445 0.25293 0.80201 0.0
H127 H 0.76672 0.32679 0.81631 0.0
H128 H 0.7093 0.31293 0.91996 0.0
H129 H 0.7113 0.27931 0.73808 0.0
H130 H 0.74403 0.30623 0.74445 0.0
H131 H 0.71954 0.22013 0.73484 0.0
H132 H 0.8063 0.19114 0.68426 0.0
H133 H 0.79726 0.28753 0.73815 0.0
C134 C 0.7084 0.27127 0.82199 0.0
C135 C 0.70054 0.27996 0.864 0.0
C136 C 0.73261 0.28777 0.80452 0.0
C137 C 0.74887 0.3133 0.83007 0.0
C138 C 0.74058 0.32283 0.87191 0.0
C139 C 0.71691 0.3053 0.88868 0.0
C140 C 0.73554 0.28344 0.75596 0.0
C141 C 0.75698 0.25626 0.74206 0.0
C142 C 0.74407 0.22528 0.7303 0.0
C143 C 0.76201 0.20178 0.70953 0.0
C144 C 0.79295 0.20917 0.70119 0.0
C145 C 0.80582 0.24006 0.71054 0.0
C146 C 0.78807 0.26328 0.73222 0.0
H147 H 0.75561 0.68252 0.75947 0.0
H148 H 0.68252 0.7548 0.74946 0.0
H149 H 0.70197 0.70504 0.86673 0.0
H150 H 0.73488 0.70028 0.68886 0.0
H151 H 0.70359 0.72897 0.68349 0.0
H152 H 0.78975 0.71744 0.68888 0.0
H153 H 0.8078 0.81705 0.67402 0.0
H154 H 0.71576 0.78727 0.70286 0.0
C155 C 0.73807 0.69731 0.77409 0.0
C156 C 0.73122 0.69197 0.81615 0.0
C157 C 0.72108 0.72043 0.74997 0.0
C158 C 0.69677 0.73798 0.76848 0.0
C159 C 0.6901 0.73285 0.81102 0.0
C160 C 0.70792 0.71024 0.83474 0.0
C161 C 0.72654 0.72346 0.70304 0.0
C162 C 0.75046 0.74955 0.69852 0.0
C163 C 0.78201 0.74216 0.69035 0.0
C164 C 0.80315 0.76657 0.68224 0.0
C165 C 0.79244 0.79831 0.68278 0.0
C166 C 0.76107 0.80579 0.69005 0.0
C167 C 0.74031 0.7815 0.69852 0.0
C168 C 0.05787 0.28873 0.62349 0.0
C169 C 0.06841 0.31791 0.64387 0.0
C170 C 0.05248 0.34108 0.62116 0.0
C171 C 0.0331 0.3248 0.5885 0.0
N172 N 0.03563 0.2926 0.58893 0.0
Co173 Co 0.01134 0.25994 0.54752 0.0
N174 N 0.98858 0.29405 0.51348 0.0
C175 C 0.99352 0.326 0.51974 0.0
C176 C 0.97427 0.3435 0.49142 0.0
C177 C 0.95576 0.32142 0.46567 0.0
C178 C 0.96474 0.29164 0.47997 0.0
N179 N 0.98615 0.22725 0.50717 0.0
C180 C 0.962 0.23113 0.47505 0.0
C181 C 0.94958 0.20187 0.45704 0.0
C182 C 0.96644 0.17871 0.47846 0.0
C183 C 0.98791 0.19501 0.50842 0.0
N184 N 0.03471 0.22576 0.58073 0.0
C185 C 0.03224 0.19375 0.57154 0.0
C186 C 0.05215 0.17621 0.59887 0.0
C187 C 0.06859 0.19828 0.62709 0.0
C188 C 0.05759 0.22819 0.61539 0.0
N189 N 0.97687 0.26013 0.58636 0.0
C190 C 0.92381 0.25922 0.63398 0.0
C191 C 0.9387 0.2309 0.62149 0.0
C192 C 0.96519 0.23189 0.5984 0.0
C193 C 0.93666 0.28819 0.62397 0.0
C194 C 0.96303 0.28811 0.60014 0.0
N195 N 0.04596 0.25966 0.5084 0.0
C196 C 0.0785 0.23072 0.45955 0.0
C197 C 0.09703 0.25786 0.45654 0.0
C198 C 0.08925 0.28619 0.47911 0.0
C199 C 0.06356 0.28667 0.50419 0.0
C200 C 0.05355 0.23204 0.48563 0.0
H201 H 0.05862 0.30915 0.52009 0.0
H202 H 0.0411 0.21016 0.48714 0.0
H203 H 0.97536 0.20943 0.58978 0.0
H204 H 0.97137 0.31087 0.59232 0.0
C205 C 0.01391 0.33893 0.55524 0.0
C206 C 0.07024 0.25811 0.63763 0.0
C207 C 0.94943 0.26187 0.46132 0.0
C208 C 0.01004 0.18079 0.53819 0.0
H209 H 0.0861 0.32196 0.67191 0.0
H210 H 0.05516 0.36675 0.62724 0.0
H211 H 0.97311 0.36929 0.49054 0.0
H212 H 0.93731 0.32661 0.43983 0.0
H213 H 0.93008 0.1976 0.43142 0.0
H214 H 0.96315 0.15305 0.47321 0.0
H215 H 0.05439 0.15042 0.59842 0.0
H216 H 0.08677 0.19292 0.65318 0.0
H217 H 0.92956 0.20793 0.62889 0.0
H218 H 0.92569 0.31069 0.63299 0.0
H219 H 0.08381 0.20819 0.44274 0.0
H220 H 0.10287 0.30791 0.47732 0.0
C221 C 0.70806 0.06597 0.59106 0.0
C222 C 0.67839 0.0769 0.6005 0.0
C223 C 0.65608 0.05893 0.57411 0.0
C224 C 0.67329 0.03788 0.55046 0.0
N225 N 0.70526 0.04124 0.56016 0.0
Co226 Co 0.73879 0.01448 0.53422 0.0
N227 N 0.70599 0.98843 0.49487 0.0
C228 C 0.67422 0.99378 0.48946 0.0
C229 C 0.65757 0.97217 0.46024 0.0
C230 C 0.68002 0.95163 0.44634 0.0
C231 C 0.70919 0.96179 0.46817 0.0
N232 N 0.77226 0.98642 0.51015 0.0
C233 C 0.76927 0.95906 0.48383 0.0
C234 C 0.79882 0.94533 0.47921 0.0
C235 C 0.8212 0.9647 0.50301 0.0
C236 C 0.8042 0.98884 0.52126 0.0
N237 N 0.77174 0.04127 0.57221 0.0
C238 C 0.80375 0.03908 0.57238 0.0
C239 C 0.82054 0.06211 0.59893 0.0
C240 C 0.79795 0.08039 0.61658 0.0
C241 C 0.76845 0.0672 0.60008 0.0
N242 N 0.73682 0.98422 0.58022 0.0
C243 C 0.73593 0.9321 0.63258 0.0
C244 C 0.76437 0.94844 0.62956 0.0
C245 C 0.76421 0.97455 0.6038 0.0
C246 C 0.7075 0.94444 0.61272 0.0
C247 C 0.7085 0.97034 0.58668 0.0
N248 N 0.74086 0.04503 0.48788 0.0
C249 C 0.77209 0.07378 0.44208 0.0
C250 C 0.74664 0.0941 0.43124 0.0
C251 C 0.71767 0.08848 0.44701 0.0
C252 C 0.71516 0.06362 0.47452 0.0
C253 C 0.76877 0.04967 0.47029 0.0
H254 H 0.6923 0.06043 0.48509 0.0
H255 H 0.78949 0.03573 0.47804 0.0
H256 H 0.78672 0.98559 0.60179 0.0
H257 H 0.68625 0.97789 0.57067 0.0
C258 C 0.66039 0.01644 0.51653 0.0
C259 C 0.7381 0.0807 0.61109 0.0
C260 C 0.7391 0.94492 0.46305 0.0
C261 C 0.8174 0.01417 0.54894 0.0
H262 H 0.67341 0.09632 0.62346 0.0
H263 H 0.6304 0.0614 0.57176 0.0
H264 H 0.63199 0.97074 0.4514 0.0
H265 H 0.67539 0.93108 0.42346 0.0
H266 H 0.80379 0.92335 0.46097 0.0
H267 H 0.8468 0.96132 0.50709 0.0
H268 H 0.84619 0.06524 0.60477 0.0
H269 H 0.8028 0.10125 0.6388 0.0
H270 H 0.78699 0.94003 0.64484 0.0
H271 H 0.68474 0.93331 0.61564 0.0
H272 H 0.79495 0.07731 0.43023 0.0
H273 H 0.69718 0.10344 0.43858 0.0
C274 C 0.05363 0.78637 0.57036 0.0
C275 C 0.06528 0.81594 0.58807 0.0
C276 C 0.04649 0.83852 0.56819 0.0
C277 C 0.0245 0.82152 0.5397 0.0
N278 N 0.02768 0.78939 0.54075 0.0
Co279 Co 1.00156 0.75574 0.50363 0.0
N280 N 0.97554 0.78903 0.47205 0.0
C281 C 0.97915 0.8212 0.4777 0.0
C282 C 0.9568 0.83784 0.45254 0.0
C283 C 0.93722 0.81496 0.43027 0.0
C284 C 0.94882 0.78563 0.44334 0.0
N285 N 0.97532 0.72222 0.46634 0.0
C286 C 0.94805 0.72536 0.43902 0.0
C287 C 0.93588 0.69592 0.42185 0.0
C288 C 0.95587 0.67326 0.43957 0.0
C289 C 0.97899 0.69012 0.46651 0.0
N290 N 0.02757 0.72251 0.53556 0.0
C291 C 0.02411 0.69035 0.52938 0.0
C292 C 0.0465 0.67371 0.55455 0.0
C293 C 0.06572 0.69658 0.57768 0.0
C294 C 0.05389 0.72594 0.56522 0.0
N295 N 0.97003 0.75562 0.54683 0.0
C296 C 0.92025 0.75526 0.60061 0.0
C297 C 0.933 0.72671 0.58458 0.0
C298 C 0.9578 0.72742 0.5583 0.0
C299 C 0.93349 0.78403 0.59024 0.0
C300 C 0.95823 0.78367 0.56373 0.0
N301 N 0.03308 0.75568 0.46018 0.0
C302 C 0.07028 0.72719 0.41766 0.0
C303 C 0.08114 0.7558 0.40374 0.0
C304 C 0.06705 0.78428 0.41745 0.0
C305 C 0.04345 0.78372 0.4457 0.0
C306 C 0.04616 0.72763 0.44518 0.0
H307 H 0.03442 0.80634 0.45595 0.0
H308 H 0.03886 0.70497 0.45431 0.0
H309 H 0.96622 0.7048 0.54691 0.0
H310 H 0.96689 0.80638 0.55643 0.0
C311 C 1.00193 0.83503 0.50971 0.0
C312 C 0.06951 0.75633 0.58043 0.0
C313 C 0.93183 0.75557 0.43099 0.0
C314 C 1.00161 0.67662 0.49666 0.0
H315 H 0.08585 0.82067 0.61192 0.0
H316 H 0.04918 0.86427 0.57291 0.0
H317 H 0.95417 0.86355 0.45198 0.0
H318 H 0.91598 0.81934 0.40835 0.0
H319 H 0.91418 0.69132 0.40007 0.0
H320 H 0.95289 0.64753 0.43519 0.0
H321 H 0.04931 0.648 0.55475 0.0
H322 H 0.08663 0.69221 0.6002 0.0
H323 H 0.92368 0.70382 0.59199 0.0
H324 H 0.92407 0.80683 0.60124 0.0
H325 H 0.08044 0.70454 0.40747 0.0
H326 H 0.07492 0.80704 0.4075 0.0
C327 C 0.30038 0.95574 0.57938 0.0
C328 C 0.32954 0.94571 0.59919 0.0
C329 C 0.35159 0.96855 0.59293 0.0
C330 C 0.33475 0.99116 0.56964 0.0
N331 N 0.30351 0.98395 0.5607 0.0
Co332 Co 0.27092 0.01023 0.5273 0.0
N333 N 0.30395 0.03548 0.50282 0.0
C334 C 0.33532 0.03627 0.51737 0.0
C335 C 0.3526 0.05602 0.49504 0.0
C336 C 0.33072 0.06891 0.46493 0.0
C337 C 0.30112 0.05647 0.47072 0.0
N338 N 0.23806 0.03665 0.49455 0.0
C339 C 0.24067 0.05768 0.46337 0.0
C340 C 0.21148 0.07206 0.45156 0.0
C341 C 0.19014 0.06011 0.47654 0.0
C342 C 0.20728 0.03916 0.5022 0.0
N343 N 0.23793 0.98491 0.55156 0.0
C344 C 0.20725 0.99333 0.55301 0.0
C345 C 0.19 0.97135 0.57185 0.0
C346 C 0.21119 0.94762 0.5832 0.0
C347 C 0.24027 0.95648 0.57052 0.0
N348 N 0.27209 0.04138 0.57726 0.0
C349 C 0.26623 0.08598 0.64678 0.0
C350 C 0.26773 0.05322 0.65334 0.0
C351 C 0.27082 0.03131 0.61818 0.0
C352 C 0.26961 0.09607 0.60543 0.0
C353 C 0.27247 0.07344 0.57119 0.0
N354 N 0.26965 0.97898 0.47773 0.0
C355 C 0.23894 0.94412 0.42416 0.0
C356 C 0.2668 0.92881 0.4138 0.0
C357 C 0.29624 0.93969 0.43484 0.0
C358 C 0.29717 0.96522 0.46629 0.0
C359 C 0.24086 0.96903 0.45636 0.0
H360 H 0.3201 0.9731 0.48229 0.0
H361 H 0.21893 0.97947 0.46498 0.0
H362 H 0.27111 0.00617 0.6239 0.0
H363 H 0.27375 0.08202 0.53952 0.0
C364 C 0.34798 0.016 0.54923 0.0
C365 C 0.27001 0.9387 0.58038 0.0
C366 C 0.27078 0.06806 0.44859 0.0
C367 C 0.19462 0.01919 0.53049 0.0
H368 H 0.33441 0.92412 0.61617 0.0
H369 H 0.37708 0.96798 0.60257 0.0
H370 H 0.37811 0.06031 0.49978 0.0
H371 H 0.33582 0.08624 0.44213 0.0
H372 H 0.20628 0.09016 0.42838 0.0
H373 H 0.16507 0.06589 0.47585 0.0
H374 H 0.1648 0.97196 0.57562 0.0
H375 H 0.20593 0.9264 0.59936 0.0
H376 H 0.26563 0.04456 0.6851 0.0
H377 H 0.26844 0.12123 0.59903 0.0
H378 H 0.21572 0.93598 0.40874 0.0
H379 H 0.31822 0.92827 0.42747 0.0
C380 C 0.55603 0.79356 0.07852 0.0
C381 C 0.56857 0.82233 0.09785 0.0
C382 C 0.55166 0.84609 0.07762 0.0
C383 C 0.52978 0.83054 0.04731 0.0
N384 N 0.53153 0.79826 0.04708 0.0
Co385 Co 0.50431 0.76652 0.00777 0.0
N386 N 0.4807 0.80145 0.97636 0.0
C387 C 0.48638 0.83328 0.98287 0.0
C388 C 0.4657 0.85145 0.9573 0.0
C389 C 0.44537 0.82996 0.93332 0.0
C390 C 0.45483 0.79984 0.94579 0.0
N391 N 0.47661 0.7347 0.96928 0.0
C392 C 0.45103 0.73944 0.93966 0.0
C393 C 0.43743 0.71064 0.92183 0.0
C394 C 0.45478 0.68687 0.94118 0.0
C395 C 0.4778 0.7024 0.96969 0.0
N396 N 0.52831 0.73148 0.03857 0.0
C397 C 0.52403 0.69956 0.03005 0.0
C398 C 0.54477 0.68132 0.05531 0.0
C399 C 0.56375 0.70282 0.08127 0.0
C400 C 0.55339 0.73309 0.07035 0.0
N401 N 0.4721 0.76755 0.05009 0.0
C402 C 0.42016 0.7683 0.10034 0.0
C403 C 0.43401 0.73952 0.08688 0.0
C404 C 0.45981 0.7397 0.06236 0.0
C405 C 0.434 0.79682 0.09018 0.0
C406 C 0.45978 0.79591 0.06529 0.0
N407 N 0.53633 0.76552 0.96495 0.0
C408 C 0.56631 0.73576 0.91375 0.0
C409 C 0.58301 0.76324 0.90622 0.0
C410 C 0.57589 0.79198 0.92835 0.0
C411 C 0.55237 0.79266 0.95693 0.0
C412 C 0.54344 0.73738 0.94305 0.0
H413 H 0.54784 0.81539 0.9724 0.0
H414 H 0.53221 0.71538 0.9478 0.0
H415 H 0.46885 0.71691 0.05272 0.0
H416 H 0.46895 0.81843 0.05801 0.0
C417 C 0.50894 0.84545 0.01647 0.0
C418 C 0.56878 0.76249 0.09038 0.0
C419 C 0.4378 0.77056 0.92889 0.0
C420 C 0.50029 0.68739 0.99815 0.0
H421 H 0.58827 0.82573 0.12341 0.0
H422 H 0.55541 0.87165 0.08356 0.0
H423 H 0.46475 0.8773 0.9573 0.0
H424 H 0.42535 0.83576 0.91007 0.0
H425 H 0.41669 0.70715 0.89795 0.0
H426 H 0.45065 0.66133 0.93584 0.0
H427 H 0.54611 0.65547 0.05464 0.0
H428 H 0.58326 0.69686 0.10522 0.0
H429 H 0.42432 0.71672 0.09394 0.0
H430 H 0.42486 0.81979 0.10099 0.0
H431 H 0.57151 0.7128 0.89801 0.0
H432 H 0.58838 0.81385 0.9236 0.0
C433 C 0.21804 0.5517 0.07448 0.0
C434 C 0.18808 0.56183 0.08356 0.0
C435 C 0.16643 0.54373 0.05625 0.0
C436 C 0.18441 0.52376 0.03215 0.0
N437 N 0.21623 0.52753 0.04304 0.0
Co438 Co 0.25122 0.50544 0.0142 0.0
N439 N 0.21964 0.48166 0.97061 0.0
C440 C 0.18747 0.4838 0.96712 0.0
C441 C 0.17217 0.46316 0.93527 0.0
C442 C 0.19601 0.44634 0.91806 0.0
C443 C 0.22448 0.45776 0.94057 0.0
N444 N 0.28628 0.4837 0.98511 0.0
C445 C 0.28458 0.45976 0.95337 0.0
C446 C 0.31472 0.45022 0.94397 0.0
C447 C 0.33622 0.46852 0.97111 0.0
C448 C 0.31812 0.488 0.99558 0.0
N449 N 0.28283 0.52891 0.05813 0.0
C450 C 0.31499 0.52634 0.06219 0.0
C451 C 0.33025 0.54624 0.09494 0.0
C452 C 0.30643 0.56298 0.11227 0.0
C453 C 0.27799 0.55225 0.0889 0.0
N454 N 0.25047 0.46907 0.05346 0.0
C455 C 0.25013 0.41455 0.10385 0.0
C456 C 0.27867 0.42802 0.09448 0.0
C457 C 0.27833 0.45511 0.07004 0.0
C458 C 0.22166 0.42936 0.08839 0.0
C459 C 0.22234 0.45623 0.06322 0.0
N460 N 0.25204 0.54168 0.97473 0.0
C461 C 0.28172 0.58034 0.93959 0.0
C462 C 0.25369 0.59316 0.91911 0.0
C463 C 0.22472 0.5797 0.92715 0.0
C464 C 0.22444 0.55415 0.95459 0.0
C465 C 0.28038 0.55516 0.96718 0.0
H466 H 0.20158 0.54489 0.95906 0.0
H467 H 0.30268 0.54717 0.9823 0.0
H468 H 0.30103 0.464 0.06445 0.0
H469 H 0.19979 0.46585 0.05136 0.0
C470 C 0.17234 0.50337 0.99661 0.0
C471 C 0.24745 0.56736 0.09392 0.0
C472 C 0.25523 0.44334 0.93475 0.0
C473 C 0.33021 0.50756 0.03198 0.0
H474 H 0.18255 0.58104 0.10652 0.0
H475 H 0.14069 0.54585 0.05305 0.0
H476 H 0.14671 0.45981 0.92684 0.0
H477 H 0.19288 0.42704 0.89293 0.0
H478 H 0.32073 0.43109 0.92129 0.0
H479 H 0.36198 0.46661 0.97427 0.0
H480 H 0.35571 0.54931 0.10378 0.0
H481 H 0.3096 0.58192 0.13789 0.0
H482 H 0.30137 0.41756 0.10592 0.0
H483 H 0.19891 0.41968 0.0945 0.0
H484 H 0.30478 0.59014 0.93499 0.0
H485 H 0.2023 0.58855 0.91188 0.0
C486 C 0.45539 0.27581 0.98656 0.0
C487 C 0.44287 0.30572 0.97755 0.0
C488 C 0.46209 0.32784 1.00193 0.0
C489 C 0.48502 0.31037 0.02468 0.0
N490 N 0.482 0.27833 0.01579 0.0
Co491 Co 0.50844 0.24403 0.04483 0.0
N492 N 0.53464 0.2766 0.08375 0.0
C493 C 0.53135 0.30879 0.08511 0.0
C494 C 0.55364 0.3249 0.11418 0.0
C495 C 0.57282 0.30166 0.13174 0.0
C496 C 0.56108 0.27265 0.11212 0.0
N497 N 0.53464 0.2098 0.0743 0.0
C498 C 0.56142 0.21239 0.10316 0.0
C499 C 0.57334 0.18263 0.1137 0.0
C500 C 0.55365 0.16038 0.09014 0.0
C501 C 0.53097 0.17777 0.06662 0.0
N502 N 0.48239 0.21153 0.00553 0.0
C503 C 0.4862 0.1794 0.00378 0.0
C504 C 0.46413 0.1632 0.97444 0.0
C505 C 0.44473 0.18631 0.95687 0.0
C506 C 0.45606 0.21536 0.97675 0.0
N507 N 0.53984 0.24603 1.00155 0.0
C508 C 0.58955 0.24983 0.94809 0.0
C509 C 0.57885 0.22024 0.95936 0.0
C510 C 0.55393 0.21887 0.98553 0.0
C511 C 0.57413 0.27732 0.96263 0.0
C512 C 0.54967 0.27492 0.98912 0.0
N513 N 0.47721 0.2421 0.08833 0.0
C514 C 0.44098 0.21217 0.12626 0.0
C515 C 0.42948 0.2404 0.14536 0.0
C516 C 0.44274 0.26935 0.13587 0.0
C517 C 0.46646 0.26962 0.10799 0.0
C518 C 0.46472 0.21354 0.0982 0.0
H519 H 0.47513 0.29256 0.10212 0.0
H520 H 0.47218 0.19123 0.0843 0.0
H521 H 0.54684 0.1956 0.99299 0.0
H522 H 0.53961 0.2969 0.99994 0.0
C523 C 0.50821 0.32322 0.05693 0.0
C524 C 0.4401 0.24572 0.96864 0.0
C525 C 0.57757 0.2424 0.11858 0.0
C526 C 0.50861 0.16502 0.03316 0.0
H527 H 0.42147 0.31116 0.95665 0.0
H528 H 0.45898 0.35355 0.00412 0.0
H529 H 0.5563 0.35054 0.1207 0.0
H530 H 0.5938 0.30561 0.15512 0.0
H531 H 0.59471 0.17755 0.13494 0.0
H532 H 0.5565 0.13464 0.08864 0.0
H533 H 0.46168 0.13755 0.96784 0.0
H534 H 0.42404 0.18224 0.93302 0.0
H535 H 0.58973 0.19824 0.94817 0.0
H536 H 0.58162 0.3008 0.95475 0.0
H537 H 0.43145 0.18911 0.1325 0.0
H538 H 0.43408 0.29201 0.14859 0.0
C539 C 0.72668 0.56158 0.09948 0.0
C540 C 0.69663 0.57408 0.10437 0.0
C541 C 0.67607 0.5608 0.07068 0.0
C542 C 0.6945 0.54095 0.04716 0.0
N543 N 0.72537 0.54039 0.06421 0.0
Co544 Co 0.75985 0.51541 0.03886 0.0
N545 N 0.72839 0.48836 0.99972 0.0
C546 C 0.69733 0.49514 0.98934 0.0
C547 C 0.68128 0.47197 0.96198 0.0
C548 C 0.70364 0.44922 0.95437 0.0
C549 C 0.73227 0.45993 0.97743 0.0
N550 N 0.79406 0.49015 0.0134 0.0
C551 C 0.79244 0.46155 0.98983 0.0
C552 C 0.82216 0.4527 0.97824 0.0
C553 C 0.84306 0.47664 0.99508 0.0
C554 C 0.82499 0.49873 0.01589 0.0
N555 N 0.79135 0.54278 0.07757 0.0
C556 C 0.82267 0.5453 0.07325 0.0
C557 C 0.83859 0.56682 0.10338 0.0
C558 C 0.81582 0.57908 0.12783 0.0
C559 C 0.78713 0.56438 0.1111 0.0
N560 N 0.75956 0.4849 0.08383 0.0
C561 C 0.75979 0.43529 0.14014 0.0
C562 C 0.78836 0.44997 0.133 0.0
C563 C 0.78771 0.47476 0.10486 0.0
C564 C 0.731 0.44698 0.12004 0.0
C565 C 0.7314 0.47192 0.0923 0.0
N566 N 0.76034 0.54589 0.99365 0.0
C567 C 0.75806 0.6002 0.9726 0.0
C568 C 0.76013 0.58983 0.9292 0.0
C569 C 0.76304 0.55695 0.91885 0.0
C570 C 0.76279 0.53539 0.95144 0.0
C571 C 0.75838 0.57799 0.00418 0.0
H572 H 0.7644 0.5102 0.94236 0.0
H573 H 0.75663 0.58697 0.03706 0.0
H574 H 0.81013 0.48489 0.09894 0.0
H575 H 0.70898 0.47979 0.07635 0.0
C576 C 0.68311 0.52026 0.01167 0.0
C577 C 0.75613 0.57418 0.12493 0.0
C578 C 0.76289 0.44353 0.97506 0.0
C579 C 0.83673 0.52493 0.04336 0.0
H580 H 0.69035 0.59185 0.1288 0.0
H581 H 0.65068 0.56498 0.0643 0.0
H582 H 0.65605 0.47105 0.95041 0.0
H583 H 0.6993 0.42729 0.93409 0.0
H584 H 0.82802 0.43131 0.95933 0.0
H585 H 0.86856 0.47732 0.99352 0.0
H586 H 0.86379 0.57269 0.10741 0.0
H587 H 0.81969 0.59735 0.15426 0.0
H588 H 0.81111 0.44172 0.14803 0.0
H589 H 0.70838 0.43592 0.12388 0.0
H590 H 0.75539 0.62534 0.9821 0.0
H591 H 0.76529 0.54789 0.88584 0.0
C592 C 0.14722 0.23841 0.36394 0.0
C593 C 0.17866 0.24232 0.38446 0.0
C594 C 0.12084 0.24475 0.38699 0.0
C595 C 0.12494 0.25579 0.43117 0.0
H596 H 0.14299 0.22858 0.33057 0.0
H597 H 0.09707 0.24003 0.37054 0.0
S598 S 0.20224 0.27195 0.49897 0.0
N599 N 0.21233 0.25929 0.45087 0.0
N600 N 0.1628 0.27182 0.49389 0.0
C601 C 0.15619 0.26138 0.45138 0.0
C602 C 0.18303 0.25447 0.42812 0.0
C603 C 0.77195 0.14398 0.34332 0.0
C604 C 0.77077 0.17534 0.36228 0.0
C605 C 0.76265 0.11774 0.36495 0.0
C606 C 0.75137 0.12208 0.40585 0.0
H607 H 0.78182 0.13956 0.31274 0.0
H608 H 0.76531 0.09382 0.35031 0.0
S609 S 0.7415 0.1995 0.4677 0.0
N610 N 0.7559 0.20943 0.423 0.0
N611 N 0.73798 0.16008 0.46346 0.0
C612 C 0.74847 0.1534 0.42405 0.0
C613 C 0.75833 0.18006 0.40231 0.0
C614 C 0.85263 0.75857 0.35853 0.0
C615 C 0.83162 0.76965 0.38828 0.0
C616 C 0.8849 0.75238 0.37261 0.0
C617 C 0.89689 0.75662 0.41689 0.0
H618 H 0.84442 0.75601 0.32405 0.0
H619 H 0.90081 0.74541 0.34866 0.0
S620 S 0.85109 0.7818 0.5081 0.0
N621 N 0.82472 0.78217 0.46434 0.0
N622 N 0.88508 0.77034 0.4905 0.0
C623 C 0.87581 0.76613 0.44702 0.0
C624 C 0.84321 0.77266 0.43281 0.0
C625 C 0.2638 0.84162 0.37453 0.0
C626 C 0.24785 0.8425 0.33218 0.0
C627 C 0.27219 0.86997 0.39982 0.0
C628 C 0.26438 0.89997 0.3837 0.0
H629 H 0.26833 0.81889 0.38892 0.0
H630 H 0.28294 0.8684 0.43311 0.0
S631 S 0.22469 0.91529 0.27415 0.0
N632 N 0.22638 0.87587 0.27442 0.0
N633 N 0.24185 0.92911 0.32232 0.0
C634 C 0.24999 0.90121 0.34076 0.0
C635 C 0.24182 0.87243 0.31483 0.0
C636 C 0.15889 0.7701 0.59265 0.0
C637 C 0.16763 0.76983 0.63795 0.0
C638 C 0.12738 0.76404 0.57418 0.0
C639 C 0.10342 0.75739 0.60024 0.0
H640 H 0.17646 0.77583 0.57138 0.0
H641 H 0.12145 0.76562 0.5394 0.0
S642 S 0.11364 0.75254 0.71993 0.0
N643 N 0.14976 0.76118 0.7081 0.0
N644 N 0.09034 0.74986 0.67312 0.0
C645 C 0.11186 0.75588 0.64524 0.0
C646 C 0.14406 0.76198 0.66415 0.0
C647 C 0.26522 0.16291 0.71819 0.0
C648 C 0.23643 0.16 0.73625 0.0
C649 C 0.27576 0.13805 0.6909 0.0
C650 C 0.25788 0.10955 0.68124 0.0
H651 H 0.27881 0.18504 0.72352 0.0
H652 H 0.29741 0.14154 0.67603 0.0
S653 S 0.18134 0.09037 0.72222 0.0
N654 N 0.1908 0.12658 0.74422 0.0
N655 N 0.21048 0.07975 0.69305 0.0
C656 C 0.22974 0.106 0.7008 0.0
C657 C 0.219 0.13133 0.72825 0.0
C658 C 0.83867 0.23773 0.6481 0.0
C659 C 0.83557 0.24833 0.69155 0.0
C660 C 0.86704 0.24208 0.62977 0.0
C661 C 0.89343 0.25777 0.65371 0.0
H662 H 0.81907 0.22544 0.62809 0.0
H663 H 0.86848 0.23276 0.59661 0.0
S664 S 0.89766 0.29182 0.7676 0.0
N665 N 0.86134 0.27628 0.75752 0.0
N666 N 0.91459 0.28523 0.72235 0.0
C667 C 0.89045 0.2698 0.69645 0.0
C668 C 0.86152 0.26499 0.71549 0.0
C669 C 0.763 0.8651 0.70474 0.0
C670 C 0.74901 0.83803 0.68093 0.0
C671 C 0.75681 0.8959 0.69065 0.0
C672 C 0.73683 0.90052 0.6519 0.0
H673 H 0.77992 0.86229 0.73332 0.0
H674 H 0.76889 0.91609 0.70912 0.0
S675 S 0.69459 0.83685 0.57809 0.0
N676 N 0.71376 0.81749 0.61785 0.0
N677 N 0.7028 0.87513 0.5904 0.0
C678 C 0.72171 0.87356 0.62883 0.0
C679 C 0.7277 0.84234 0.64356 0.0
C680 C 0.83693 0.73839 0.63031 0.0
C681 C 0.83483 0.75941 0.66716 0.0
C682 C 0.86507 0.73625 0.61001 0.0
C683 C 0.89214 0.7551 0.62573 0.0
H684 H 0.81614 0.72486 0.61559 0.0
H685 H 0.86507 0.72089 0.58053 0.0
S686 S 0.90034 0.81028 0.72498 0.0
N687 N 0.86325 0.79685 0.72118 0.0
N688 N 0.91608 0.79275 0.68324 0.0
C689 C 0.8909 0.77477 0.66403 0.0
C690 C 0.86231 0.7769 0.68468 0.0
C691 C 0.26933 0.87327 0.66174 0.0
C692 C 0.25682 0.84656 0.63524 0.0
C693 C 0.27503 0.90268 0.64377 0.0
C694 C 0.2687 0.90635 0.59864 0.0
H695 H 0.27317 0.87193 0.69674 0.0
H696 H 0.28321 0.92306 0.66548 0.0
S697 S 0.23861 0.84323 0.51479 0.0
N698 N 0.24049 0.8254 0.56107 0.0
N699 N 0.25108 0.88037 0.52788 0.0
C700 C 0.25758 0.87952 0.57178 0.0
C701 C 0.25176 0.84973 0.58988 0.0
C702 C 0.15611 0.25381 0.68834 0.0
C703 C 0.15312 0.24316 0.72993 0.0
C704 C 0.12913 0.26064 0.65958 0.0
C705 C 0.09827 0.25698 0.67141 0.0
H706 H 0.17945 0.25533 0.67718 0.0
H707 H 0.13233 0.26719 0.62709 0.0
S708 S 0.07728 0.23197 0.77702 0.0
N709 N 0.11672 0.23106 0.78212 0.0
N710 N 0.06602 0.24407 0.72789 0.0
C711 C 0.0949 0.24815 0.71357 0.0
C712 C 0.12236 0.24126 0.74295 0.0
C713 C 0.75617 0.14207 0.70744 0.0
C714 C 0.74785 0.17121 0.68895 0.0
C715 C 0.75102 0.11262 0.68297 0.0
C716 C 0.7381 0.11138 0.63888 0.0
H717 H 0.76837 0.14219 0.74019 0.0
H718 H 0.75888 0.0908 0.69783 0.0
S719 S 0.71157 0.18081 0.57581 0.0
N720 N 0.7248 0.19684 0.62467 0.0
N721 N 0.71597 0.14173 0.57846 0.0
C722 C 0.72846 0.14023 0.6207 0.0
C723 C 0.73322 0.17008 0.64576 0.0
C724 C 0.86171 0.26284 0.41773 0.0
C725 C 0.86176 0.25138 0.37393 0.0
C726 C 0.89033 0.26821 0.44522 0.0
C727 C 0.91996 0.26241 0.42985 0.0
H728 H 0.83934 0.26622 0.43138 0.0
H729 H 0.88926 0.27536 0.47924 0.0
S730 S 0.93371 0.23473 0.31776 0.0
N731 N 0.89445 0.23613 0.31624 0.0
N732 N 0.94808 0.24693 0.36794 0.0
C733 C 0.92053 0.25296 0.38571 0.0
C734 C 0.89145 0.24731 0.3577 0.0
C735 C 0.73171 0.85529 0.43067 0.0
C736 C 0.74709 0.85221 0.39262 0.0
C737 C 0.7279 0.8855 0.4523 0.0
C738 C 0.73922 0.91364 0.4365 0.0
H739 H 0.72403 0.83408 0.44498 0.0
H740 H 0.71722 0.88673 0.48252 0.0
S741 S 0.77875 0.91869 0.33635 0.0
N742 N 0.77219 0.87998 0.33904 0.0
N743 N 0.76424 0.93663 0.37884 0.0
C744 C 0.7531 0.91095 0.39731 0.0
C745 C 0.75731 0.88027 0.37567 0.0
C746 C 0.12991 0.77275 0.31166 0.0
C747 C 0.16094 0.76388 0.32821 0.0
C748 C 0.10394 0.76927 0.33571 0.0
C749 C 0.10804 0.75629 0.37676 0.0
H750 H 0.12601 0.78413 0.28107 0.0
H751 H 0.08064 0.77752 0.32264 0.0
S752 S 0.18412 0.72809 0.43359 0.0
N753 N 0.19407 0.74074 0.38752 0.0
N754 N 0.14521 0.73354 0.43217 0.0
C755 C 0.13866 0.74605 0.39275 0.0
C756 C 0.16512 0.75002 0.36862 0.0
C757 C 0.25248 0.12512 0.35679 0.0
C758 C 0.25825 0.15559 0.37848 0.0
C759 C 0.2583 0.09674 0.37884 0.0
C760 C 0.27031 0.09773 0.42331 0.0
H761 H 0.24149 0.12321 0.32336 0.0
H762 H 0.25191 0.07392 0.36157 0.0
S763 S 0.29183 0.17111 0.49405 0.0
N764 N 0.2789 0.18462 0.44628 0.0
N765 N 0.28927 0.1317 0.48742 0.0
C766 C 0.2777 0.12792 0.44462 0.0
C767 C 0.27186 0.15667 0.42231 0.0
C768 C 0.6664 0.76359 0.87134 0.0
C769 C 0.66214 0.74733 0.82985 0.0
C770 C 0.64034 0.77061 0.89471 0.0
C771 C 0.60915 0.76107 0.87776 0.0
H772 H 0.69025 0.76945 0.88673 0.0
H773 H 0.64489 0.78179 0.92735 0.0
S774 S 0.58493 0.72036 0.76916 0.0
N775 N 0.62412 0.72398 0.77161 0.0
N776 N 0.57519 0.7369 0.81561 0.0
C777 C 0.6044 0.74638 0.83539 0.0
C778 C 0.63088 0.73962 0.81139 0.0
C779 C 0.28023 0.64566 0.83273 0.0
C780 C 0.26393 0.6746 0.83946 0.0
C781 C 0.276 0.61921 0.85755 0.0
C782 C 0.25512 0.62047 0.89007 0.0
H783 H 0.29766 0.644 0.80959 0.0
H784 H 0.28981 0.59782 0.85195 0.0
S785 S 0.20662 0.69075 0.9202 0.0
N786 N 0.22608 0.70293 0.88087 0.0
N787 N 0.21746 0.65325 0.92673 0.0
C788 C 0.23783 0.64896 0.89599 0.0
C789 C 0.24248 0.676 0.87104 0.0
C790 C 0.34958 0.24036 0.94893 0.0
C791 C 0.34259 0.25502 0.90935 0.0
C792 C 0.3813 0.23608 0.96699 0.0
C793 C 0.40698 0.24605 0.94582 0.0
H794 H 0.33042 0.23381 0.9672 0.0
H795 H 0.3858 0.22619 0.99858 0.0
S796 S 0.40136 0.28209 0.83914 0.0
N797 N 0.36383 0.27725 0.84808 0.0
N798 N 0.42344 0.26821 0.88137 0.0
C799 C 0.4003 0.25875 0.90493 0.0
C800 C 0.36808 0.26357 0.88691 0.0
C801 C 0.7602 0.35422 0.94231 0.0
C802 C 0.75289 0.35326 0.89655 0.0
C803 C 0.76529 0.38339 0.96742 0.0
C804 C 0.76357 0.41275 0.94779 0.0
H805 H 0.7606 0.33227 0.95908 0.0
H806 H 0.76916 0.38306 1.00257 0.0
S807 S 0.74758 0.42415 0.82974 0.0
N808 N 0.74571 0.38497 0.83296 0.0
N809 N 0.75636 0.43937 0.88019 0.0
C810 C 0.75833 0.41222 0.90215 0.0
C811 C 0.75278 0.38261 0.87653 0.0
C812 C 0.65522 0.24082 0.19446 0.0
C813 C 0.67688 0.25482 0.16985 0.0
C814 C 0.62323 0.23522 0.17708 0.0
C815 C 0.61223 0.24313 0.1345 0.0
H816 H 0.6626 0.2358 0.22799 0.0
H817 H 0.6067 0.22598 0.19758 0.0
S818 S 0.66005 0.27777 0.05584 0.0
N819 N 0.68554 0.27449 0.09997 0.0
N820 N 0.62568 0.26369 0.06744 0.0
C821 C 0.63406 0.25553 0.10897 0.0
C822 C 0.66635 0.26141 0.1266 0.0
C823 C 0.74957 0.66308 0.15644 0.0
C824 C 0.73791 0.66356 0.19731 0.0
C825 C 0.75742 0.63419 0.13457 0.0
C826 C 0.75382 0.60459 0.15262 0.0
H827 H 0.75139 0.68516 0.14042 0.0
H828 H 0.76485 0.63486 0.10232 0.0
S829 S 0.7253 0.59239 0.259 0.0
N830 N 0.72421 0.63162 0.25542 0.0
N831 N 0.73895 0.57743 0.21412 0.0
C832 C 0.74348 0.60471 0.19409 0.0
C833 C 0.7356 0.63415 0.21652 0.0
C834 C 0.35939 0.74069 0.17187 0.0
C835 C 0.33148 0.75706 0.15693 0.0
C836 C 0.38842 0.746 0.15544 0.0
C837 C 0.39081 0.76784 0.12319 0.0
H838 H 0.35836 0.72236 0.19485 0.0
H839 H 0.40889 0.73187 0.16682 0.0
S840 S 0.32533 0.81914 0.07628 0.0
N841 N 0.30856 0.79786 0.11068 0.0
N842 N 0.36305 0.8079 0.07957 0.0
C843 C 0.36358 0.78603 0.11021 0.0
C844 C 0.33396 0.78062 0.12712 0.0
C845 C 0.27068 0.32955 0.13419 0.0
C846 C 0.25963 0.32734 0.17526 0.0
C847 C 0.26658 0.35735 0.11109 0.0
C848 C 0.25072 0.38427 0.12741 0.0
H849 H 0.28358 0.3098 0.1202 0.0
H850 H 0.27647 0.35798 0.0804 0.0
S851 S 0.215 0.39063 0.23158 0.0
N852 N 0.23063 0.35438 0.23012 0.0
N853 N 0.22223 0.40644 0.18612 0.0
C854 C 0.23795 0.38197 0.16721 0.0
C855 C 0.24248 0.35359 0.19116 0.0
C856 C 0.3459 0.2263 0.17533 0.0
C857 C 0.34388 0.24904 0.2103 0.0
C858 C 0.37441 0.22197 0.15633 0.0
C859 C 0.40194 0.24026 0.17168 0.0
H860 H 0.32464 0.21361 0.16038 0.0
H861 H 0.37416 0.20587 0.12751 0.0
S862 S 0.41018 0.29888 0.26748 0.0
N863 N 0.37241 0.28736 0.26265 0.0
N864 N 0.42637 0.27854 0.22823 0.0
C865 C 0.40084 0.26102 0.20912 0.0
C866 C 0.37173 0.2656 0.22808 0.0
C867 C 0.77767 0.35021 0.16978 0.0
C868 C 0.75429 0.34419 0.19713 0.0
C869 C 0.78052 0.38041 0.15351 0.0
C870 C 0.76013 0.40567 0.16412 0.0
H871 H 0.79241 0.3309 0.15849 0.0
H872 H 0.79749 0.38337 0.13033 0.0
S873 S 0.69878 0.40349 0.24053 0.0
N874 N 0.71306 0.36672 0.23834 0.0
N875 N 0.71867 0.42374 0.20822 0.0
C876 C 0.73831 0.40056 0.19406 0.0
C877 C 0.73535 0.36977 0.21048 0.0
C878 C 0.6559 0.75358 0.13537 0.0
C879 C 0.65415 0.74697 0.1791 0.0
C880 C 0.62834 0.76018 0.10736 0.0
C881 C 0.59805 0.76032 0.12204 0.0
H882 H 0.67868 0.75268 0.12236 0.0
H883 H 0.63057 0.76402 0.0736 0.0
S884 S 0.58005 0.74513 0.23303 0.0
N885 N 0.61923 0.74157 0.23552 0.0
N886 N 0.56768 0.7542 0.18278 0.0
C887 C 0.59594 0.75484 0.16578 0.0
C888 C 0.62393 0.74817 0.19437 0.0
C889 C 0.24582 0.64343 0.16736 0.0
C890 C 0.25472 0.66679 0.14029 0.0
C891 C 0.2423 0.61117 0.15187 0.0
C892 C 0.24726 0.60166 0.10887 0.0
H893 H 0.24283 0.64993 0.20104 0.0
H894 H 0.23664 0.59346 0.17387 0.0
S895 S 0.26796 0.65392 0.02421 0.0
N896 N 0.26626 0.67845 0.06779 0.0
N897 N 0.25949 0.61795 0.03891 0.0
C898 C 0.25477 0.62494 0.08112 0.0
C899 C 0.25851 0.65754 0.09678 0.0
C900 C 0.3729 0.7613 0.8333 0.0
C901 C 0.34478 0.76101 0.8539 0.0
C902 C 0.40294 0.76658 0.85746 0.0
C903 C 0.40588 0.77185 0.90296 0.0
H904 H 0.37196 0.75524 0.79867 0.0
H905 H 0.42415 0.76474 0.84079 0.0
S906 S 0.33994 0.7772 0.97207 0.0
N907 N 0.32192 0.76978 0.92222 0.0
N908 N 0.37851 0.77902 0.96743 0.0
C909 C 0.37804 0.77369 0.92366 0.0
C910 C 0.34746 0.76845 0.89917 0.0
C911 C 0.25188 0.35315 0.93609 0.0
C912 C 0.26423 0.34295 0.89735 0.0
C913 C 0.2482 0.38577 0.94726 0.0
C914 C 0.25649 0.40907 0.9198 0.0
H915 H 0.24608 0.33582 0.95855 0.0
H916 H 0.23967 0.3929 0.97811 0.0
S917 S 0.2872 0.39443 0.81314 0.0
N918 N 0.28333 0.3583 0.83064 0.0
N919 N 0.2753 0.41984 0.85096 0.0
C920 C 0.2675 0.39912 0.8801 0.0
C921 C 0.27174 0.36592 0.86907 0.0
C922 C 0.64155 0.27805 0.86526 0.0
C923 C 0.67193 0.26662 0.88031 0.0
C924 C 0.61472 0.27136 0.88623 0.0
C925 C 0.61723 0.25264 0.92267 0.0
H926 H 0.63883 0.29368 0.83854 0.0
H927 H 0.592 0.28171 0.87466 0.0
S928 S 0.69131 0.21563 0.97303 0.0
N929 N 0.70294 0.23497 0.93269 0.0
N930 N 0.65244 0.22144 0.97134 0.0
C931 C 0.64725 0.23974 0.93658 0.0
C932 C 0.67464 0.24706 0.91567 0.0
C933 C 0.76637 0.66829 0.87579 0.0
C934 C 0.74407 0.66402 0.83865 0.0
C935 C 0.77316 0.6433 0.90339 0.0
C936 C 0.75733 0.61348 0.8952 0.0
H937 H 0.77746 0.69149 0.88458 0.0
H938 H 0.78984 0.64784 0.93244 0.0
S939 S 0.69731 0.59067 0.80099 0.0
N940 N 0.70726 0.62791 0.79362 0.0
N941 N 0.71901 0.58114 0.84612 0.0
C942 C 0.73601 0.60864 0.8569 0.0
C943 C 0.72954 0.63394 0.82854 0.0
loop_
_geom_bond_atom_site_label_1
_geom_bond_atom_site_label_2
_geom_bond_distance
_geom_bond_site_symmetry_2
_ccdc_geom_bond_type
H0 C8 0.930 . S
H1 C11 0.930 . S
H2 C13 0.930 . S
H3 C14 0.970 . S
H4 C14 0.970 . S
H5 C16 0.930 . S
H6 C18 0.930 . S
H7 C20 0.930 . S
C8 H0 0.930 . S
C8 C9 1.382 . S
C8 C10 1.426 . S
C9 C8 1.382 . S
C9 C13 1.389 . S
C10 C8 1.426 . S
C10 C11 1.375 . S
C10 C14 1.532 . S
C11 H1 0.930 . S
C11 C10 1.375 . S
C11 C12 1.416 . S
C12 C11 1.416 . S
C12 C13 1.371 . S
C13 H2 0.930 . S
C13 C9 1.389 . S
C13 C12 1.371 . S
C14 H3 0.970 . S
C14 H4 0.970 . S
C14 C10 1.532 . S
C14 C15 1.499 . S
C15 C14 1.499 . S
C15 C16 1.370 . S
C15 C20 1.415 . S
C16 H5 0.930 . S
C16 C15 1.370 . S
C16 C17 1.407 . S
C17 C16 1.407 . S
C17 C18 1.365 . S
C18 H6 0.930 . S
C18 C17 1.365 . S
C18 C19 1.393 . S
C19 C18 1.393 . S
C19 C20 1.387 . S
C20 H7 0.930 . S
C20 C15 1.415 . S
C20 C19 1.387 . S
H21 C29 0.930 . S
H22 C32 0.930 . S
H23 C34 0.930 . S
H24 C35 0.970 . S
H25 C35 0.970 . S
H26 C37 0.930 . S
H27 C39 0.930 . S
H28 C41 0.930 . S
C29 H21 0.930 . S
C29 C30 1.382 . S
C29 C31 1.426 . S
C30 C29 1.382 . S
C30 C34 1.389 . S
C31 C29 1.426 . S
C31 C32 1.375 . S
C31 C35 1.532 . S
C32 H22 0.930 . S
C32 C31 1.375 . S
C32 C33 1.416 . S
C33 C32 1.416 . S
C33 C34 1.371 . S
C34 H23 0.930 . S
C34 C30 1.389 . S
C34 C33 1.371 . S
C35 H24 0.970 . S
C35 H25 0.970 . S
C35 C31 1.532 . S
C35 C36 1.499 . S
C36 C35 1.499 . S
C36 C37 1.370 . S
C36 C41 1.415 . S
C37 H26 0.930 . S
C37 C36 1.370 . S
C37 C38 1.407 . S
C38 C37 1.407 . S
C38 C39 1.365 . S
C39 H27 0.930 . S
C39 C38 1.365 . S
C39 C40 1.393 . S
C40 C39 1.393 . S
C40 C41 1.387 . S
C41 H28 0.930 . S
C41 C36 1.415 . S
C41 C40 1.387 . S
H42 C50 0.930 . S
H43 C53 0.930 . S
H44 C55 0.930 . S
H45 C56 0.970 . S
H46 C56 0.970 . S
H47 C58 0.930 . S
H48 C60 0.930 . S
H49 C62 0.930 . S
C50 H42 0.930 . S
C50 C51 1.382 . S
C50 C52 1.426 . S
C51 C50 1.382 . S
C51 C55 1.389 . S
C52 C50 1.426 . S
C52 C53 1.375 . S
C52 C56 1.532 . S
C53 H43 0.930 . S
C53 C52 1.375 . S
C53 C54 1.416 . S
C54 C53 1.416 . S
C54 C55 1.371 . S
C55 H44 0.930 . S
C55 C51 1.389 . S
C55 C54 1.371 . S
C56 H45 0.970 . S
C56 H46 0.970 . S
C56 C52 1.532 . S
C56 C57 1.499 . S
C57 C56 1.499 . S
C57 C58 1.370 . S
C57 C62 1.415 . S
C58 H47 0.930 . S
C58 C57 1.370 . S
C58 C59 1.407 . S
C59 C58 1.407 . S
C59 C60 1.365 . S
C60 H48 0.930 . S
C60 C59 1.365 . S
C60 C61 1.393 . S
C61 C60 1.393 . S
C61 C62 1.387 . S
C62 H49 0.930 . S
C62 C57 1.415 . S
C62 C61 1.387 . S
H63 C71 0.930 . S
H64 C74 0.930 . S
H65 C76 0.930 . S
H66 C77 0.970 . S
H67 C77 0.970 . S
H68 C79 0.930 . S
H69 C81 0.930 . S
H70 C83 0.930 . S
C71 H63 0.930 . S
C71 C72 1.382 . S
C71 C73 1.426 . S
C72 C71 1.382 . S
C72 C76 1.389 . S
C73 C71 1.426 . S
C73 C74 1.375 . S
C73 C77 1.532 . S
C74 H64 0.930 . S
C74 C73 1.375 . S
C74 C75 1.416 . S
C75 C74 1.416 . S
C75 C76 1.371 . S
C76 H65 0.930 . S
C76 C72 1.389 . S
C76 C75 1.371 . S
C77 H66 0.970 . S
C77 H67 0.970 . S
C77 C73 1.532 . S
C77 C78 1.499 . S
C78 C77 1.499 . S
C78 C79 1.370 . S
C78 C83 1.415 . S
C79 H68 0.930 . S
C79 C78 1.370 . S
C79 C80 1.407 . S
C80 C79 1.407 . S
C80 C81 1.365 . S
C81 H69 0.930 . S
C81 C80 1.365 . S
C81 C82 1.393 . S
C82 C81 1.393 . S
C82 C83 1.387 . S
C83 H70 0.930 . S
C83 C78 1.415 . S
C83 C82 1.387 . S
H84 C92 0.930 . S
H85 C95 0.930 . S
H86 C97 0.930 . S
H87 C98 0.970 . S
H88 C98 0.970 . S
H89 C100 0.930 . S
H90 C102 0.930 . S
H91 C104 0.930 . S
C92 H84 0.930 . S
C92 C93 1.382 . S
C92 C94 1.426 . S
C93 C92 1.382 . S
C93 C97 1.389 . S
C94 C92 1.426 . S
C94 C95 1.375 . S
C94 C98 1.532 . S
C95 H85 0.930 . S
C95 C94 1.375 . S
C95 C96 1.416 . S
C96 C95 1.416 . S
C96 C97 1.371 . S
C97 H86 0.930 . S
C97 C93 1.389 . S
C97 C96 1.371 . S
C98 H87 0.970 . S
C98 H88 0.970 . S
C98 C94 1.532 . S
C98 C99 1.499 . S
C99 C98 1.499 . S
C99 C100 1.370 . S
C99 C104 1.415 . S
C100 H89 0.930 . S
C100 C99 1.370 . S
C100 C101 1.407 . S
C101 C100 1.407 . S
C101 C102 1.365 . S
C102 H90 0.930 . S
C102 C101 1.365 . S
C102 C103 1.393 . S
C103 C102 1.393 . S
C103 C104 1.387 . S
C104 H91 0.930 . S
C104 C99 1.415 . S
C104 C103 1.387 . S
H105 C113 0.930 . S
H106 C116 0.930 . S
H107 C118 0.930 . S
H108 C119 0.970 . S
H109 C119 0.970 . S
H110 C121 0.930 . S
H111 C123 0.930 . S
H112 C125 0.930 . S
C113 H105 0.930 . S
C113 C114 1.382 . S
C113 C115 1.426 . S
C114 C113 1.382 . S
C114 C118 1.389 . S
C115 C113 1.426 . S
C115 C116 1.375 . S
C115 C119 1.532 . S
C116 H106 0.930 . S
C116 C115 1.375 . S
C116 C117 1.416 . S
C117 C116 1.416 . S
C117 C118 1.371 . S
C118 H107 0.930 . S
C118 C114 1.389 . S
C118 C117 1.371 . S
C119 H108 0.970 . S
C119 H109 0.970 . S
C119 C115 1.532 . S
C119 C120 1.499 . S
C120 C119 1.499 . S
C120 C121 1.370 . S
C120 C125 1.415 . S
C121 H110 0.930 . S
C121 C120 1.370 . S
C121 C122 1.407 . S
C122 C121 1.407 . S
C122 C123 1.365 . S
C123 H111 0.930 . S
C123 C122 1.365 . S
C123 C124 1.393 . S
C124 C123 1.393 . S
C124 C125 1.387 . S
C125 H112 0.930 . S
C125 C120 1.415 . S
C125 C124 1.387 . S
H126 C134 0.930 . S
H127 C137 0.930 . S
H128 C139 0.930 . S
H129 C140 0.970 . S
H130 C140 0.970 . S
H131 C142 0.930 . S
H132 C144 0.930 . S
H133 C146 0.930 . S
C134 H126 0.930 . S
C134 C135 1.382 . S
C134 C136 1.426 . S
C135 C134 1.382 . S
C135 C139 1.389 . S
C136 C134 1.426 . S
C136 C137 1.375 . S
C136 C140 1.532 . S
C137 H127 0.930 . S
C137 C136 1.375 . S
C137 C138 1.416 . S
C138 C137 1.416 . S
C138 C139 1.371 . S
C139 H128 0.930 . S
C139 C135 1.389 . S
C139 C138 1.371 . S
C140 H129 0.970 . S
C140 H130 0.970 . S
C140 C136 1.532 . S
C140 C141 1.499 . S
C141 C140 1.499 . S
C141 C142 1.370 . S
C141 C146 1.415 . S
C142 H131 0.930 . S
C142 C141 1.370 . S
C142 C143 1.407 . S
C143 C142 1.407 . S
C143 C144 1.365 . S
C144 H132 0.930 . S
C144 C143 1.365 . S
C144 C145 1.393 . S
C145 C144 1.393 . S
C145 C146 1.387 . S
C146 H133 0.930 . S
C146 C141 1.415 . S
C146 C145 1.387 . S
H147 C155 0.930 . S
H148 C158 0.930 . S
H149 C160 0.930 . S
H150 C161 0.970 . S
H151 C161 0.970 . S
H152 C163 0.930 . S
H153 C165 0.930 . S
H154 C167 0.930 . S
C155 H147 0.930 . S
C155 C156 1.382 . S
C155 C157 1.426 . S
C156 C155 1.382 . S
C156 C160 1.389 . S
C157 C155 1.426 . S
C157 C158 1.375 . S
C157 C161 1.532 . S
C158 H148 0.930 . S
C158 C157 1.375 . S
C158 C159 1.416 . S
C159 C158 1.416 . S
C159 C160 1.371 . S
C160 H149 0.930 . S
C160 C156 1.389 . S
C160 C159 1.371 . S
C161 H150 0.970 . S
C161 H151 0.970 . S
C161 C157 1.532 . S
C161 C162 1.499 . S
C162 C161 1.499 . S
C162 C163 1.370 . S
C162 C167 1.415 . S
C163 H152 0.930 . S
C163 C162 1.370 . S
C163 C164 1.407 . S
C164 C163 1.407 . S
C164 C165 1.365 . S
C165 H153 0.930 . S
C165 C164 1.365 . S
C165 C166 1.393 . S
C166 C165 1.393 . S
C166 C167 1.387 . S
C167 H154 0.930 . S
C167 C162 1.415 . S
C167 C166 1.387 . S
C168 C169 1.443 . S
C168 N172 1.376 . S
C168 C206 1.389 . S
C169 C168 1.443 . S
C169 C170 1.340 . S
C169 H209 0.951 . S
C170 C169 1.340 . S
C170 C171 1.439 . S
C170 H210 0.950 . S
C171 C170 1.439 . S
C171 N172 1.374 . S
C171 C205 1.395 . S
N172 C168 1.376 . S
N172 C171 1.374 . S
N172 Co173 2.008 . S
Co173 N172 2.008 . S
Co173 N174 1.995 1_455 S
Co173 N179 2.008 1_455 S
Co173 N184 1.995 . S
Co173 N189 2.282 1_455 S
Co173 N195 2.282 . S
N174 Co173 1.995 1_655 S
N174 C175 1.376 . S
N174 C178 1.383 . S
C175 N174 1.376 . S
C175 C176 1.446 . S
C175 C205 1.391 1_655 S
C176 C175 1.446 . S
C176 C177 1.339 . S
C176 H211 0.949 . S
C177 C176 1.339 . S
C177 C178 1.439 . S
C177 H212 0.950 . S
C178 N174 1.383 . S
C178 C177 1.439 . S
C178 C207 1.392 . S
N179 Co173 2.008 1_655 S
N179 C180 1.376 . S
N179 C183 1.374 . S
C180 N179 1.376 . S
C180 C181 1.443 . S
C180 C207 1.389 . S
C181 C180 1.443 . S
C181 C182 1.340 . S
C181 H213 0.951 . S
C182 C181 1.340 . S
C182 C183 1.439 . S
C182 H214 0.950 . S
C183 N179 1.374 . S
C183 C182 1.439 . S
C183 C208 1.402 . S
N184 Co173 1.995 . S
N184 C185 1.376 . S
N184 C188 1.383 . S
C185 N184 1.376 . S
C185 C186 1.446 . S
C185 C208 1.383 1_455 S
C186 C185 1.446 . S
C186 C187 1.339 . S
C186 H215 0.949 . S
C187 C186 1.339 . S
C187 C188 1.439 . S
C187 H216 0.950 . S
C188 N184 1.383 . S
C188 C187 1.439 . S
C188 C206 1.392 . S
N189 Co173 2.282 1_655 S
N189 C192 1.332 . S
N189 C194 1.332 . S
C190 C191 1.386 . S
C190 C193 1.388 . S
C191 C190 1.386 . S
C191 C192 1.382 . S
C191 H217 0.950 . S
C192 N189 1.332 . S
C192 C191 1.382 . S
C192 H203 0.952 . S
C193 C190 1.388 . S
C193 C194 1.382 . S
C193 H218 0.950 . S
C194 N189 1.332 . S
C194 C193 1.382 . S
C194 H204 0.948 . S
N195 Co173 2.282 . S
N195 C199 1.332 . S
N195 C200 1.332 . S
C196 C197 1.388 . S
C196 C200 1.382 . S
C196 H219 0.950 . S
C197 C196 1.388 . S
C197 C198 1.386 . S
C198 C197 1.386 . S
C198 C199 1.382 . S
C198 H220 0.950 . S
C199 N195 1.332 . S
C199 C198 1.382 . S
C199 H201 0.952 . S
C200 N195 1.332 . S
C200 C196 1.382 . S
C200 H202 0.948 . S
H201 C199 0.952 . S
H202 C200 0.948 . S
H203 C192 0.952 . S
H204 C194 0.948 . S
C205 C171 1.395 . S
C205 C175 1.391 1_455 S
C206 C168 1.389 . S
C206 C188 1.392 . S
C207 C178 1.392 . S
C207 C180 1.389 . S
C208 C183 1.402 . S
C208 C185 1.383 1_655 S
H209 C169 0.951 . S
H210 C170 0.950 . S
H211 C176 0.949 . S
H212 C177 0.950 . S
H213 C181 0.951 . S
H214 C182 0.950 . S
H215 C186 0.949 . S
H216 C187 0.950 . S
H217 C191 0.950 . S
H218 C193 0.950 . S
H219 C196 0.950 . S
H220 C198 0.950 . S
C221 C222 1.443 . S
C221 N225 1.376 . S
C221 C259 1.389 . S
C222 C221 1.443 . S
C222 C223 1.340 . S
C222 H262 0.951 . S
C223 C222 1.340 . S
C223 C224 1.439 . S
C223 H263 0.950 . S
C224 C223 1.439 . S
C224 N225 1.374 . S
C224 C258 1.395 . S
N225 C221 1.376 . S
N225 C224 1.374 . S
N225 Co226 2.008 . S
Co226 N225 2.008 . S
Co226 N227 1.995 1_545 S
Co226 N232 2.008 1_545 S
Co226 N237 1.995 . S
Co226 N242 2.282 1_545 S
Co226 N248 2.282 . S
N227 Co226 1.995 1_565 S
N227 C228 1.376 . S
N227 C231 1.383 . S
C228 N227 1.376 . S
C228 C229 1.446 . S
C228 C258 1.391 1_565 S
C229 C228 1.446 . S
C229 C230 1.339 . S
C229 H264 0.949 . S
C230 C229 1.339 . S
C230 C231 1.439 . S
C230 H265 0.950 . S
C231 N227 1.383 . S
C231 C230 1.439 . S
C231 C260 1.392 . S
N232 Co226 2.008 1_565 S
N232 C233 1.376 . S
N232 C236 1.374 . S
C233 N232 1.376 . S
C233 C234 1.443 . S
C233 C260 1.389 . S
C234 C233 1.443 . S
C234 C235 1.340 . S
C234 H266 0.951 . S
C235 C234 1.340 . S
C235 C236 1.439 . S
C235 H267 0.950 . S
C236 N232 1.374 . S
C236 C235 1.439 . S
C236 C261 1.395 1_565 S
N237 Co226 1.995 . S
N237 C238 1.376 . S
N237 C241 1.383 . S
C238 N237 1.376 . S
C238 C239 1.446 . S
C238 C261 1.391 . S
C239 C238 1.446 . S
C239 C240 1.339 . S
C239 H268 0.949 . S
C240 C239 1.339 . S
C240 C241 1.439 . S
C240 H269 0.950 . S
C241 N237 1.383 . S
C241 C240 1.439 . S
C241 C259 1.392 . S
N242 Co226 2.282 1_565 S
N242 C245 1.332 . S
N242 C247 1.332 . S
C243 C244 1.386 . S
C243 C246 1.388 . S
C244 C243 1.386 . S
C244 C245 1.382 . S
C244 H270 0.950 . S
C245 N242 1.332 . S
C245 C244 1.382 . S
C245 H256 0.952 . S
C246 C243 1.388 . S
C246 C247 1.382 . S
C246 H271 0.950 . S
C247 N242 1.332 . S
C247 C246 1.382 . S
C247 H257 0.948 . S
N248 Co226 2.282 . S
N248 C252 1.332 . S
N248 C253 1.332 . S
C249 C250 1.388 . S
C249 C253 1.382 . S
C249 H272 0.950 . S
C250 C249 1.388 . S
C250 C251 1.386 . S
C251 C250 1.386 . S
C251 C252 1.382 . S
C251 H273 0.950 . S
C252 N248 1.332 . S
C252 C251 1.382 . S
C252 H254 0.952 . S
C253 N248 1.332 . S
C253 C249 1.382 . S
C253 H255 0.948 . S
H254 C252 0.952 . S
H255 C253 0.948 . S
H256 C245 0.952 . S
H257 C247 0.948 . S
C258 C224 1.395 . S
C258 C228 1.391 1_545 S
C259 C221 1.389 . S
C259 C241 1.392 . S
C260 C231 1.392 . S
C260 C233 1.389 . S
C261 C236 1.395 1_545 S
C261 C238 1.391 . S
H262 C222 0.951 . S
H263 C223 0.950 . S
H264 C229 0.949 . S
H265 C230 0.950 . S
H266 C234 0.951 . S
H267 C235 0.950 . S
H268 C239 0.949 . S
H269 C240 0.950 . S
H270 C244 0.950 . S
H271 C246 0.950 . S
H272 C249 0.950 . S
H273 C251 0.950 . S
C274 C275 1.443 . S
C274 N278 1.376 . S
C274 C312 1.389 . S
C275 C274 1.443 . S
C275 C276 1.340 . S
C275 H315 0.951 . S
C276 C275 1.340 . S
C276 C277 1.439 . S
C276 H316 0.950 . S
C277 C276 1.439 . S
C277 N278 1.374 . S
C277 C311 1.395 . S
N278 C274 1.376 . S
N278 C277 1.374 . S
N278 Co279 2.023 . S
Co279 N278 2.023 . S
Co279 N280 1.982 1_455 S
Co279 N285 1.994 1_455 S
Co279 N290 2.007 . S
Co279 N295 2.264 1_455 S
Co279 N301 2.301 . S
N280 Co279 1.982 1_655 S
N280 C281 1.376 . S
N280 C284 1.383 . S
C281 N280 1.376 . S
C281 C282 1.446 . S
C281 C311 1.391 1_655 S
C282 C281 1.446 . S
C282 C283 1.339 . S
C282 H317 0.949 . S
C283 C282 1.339 . S
C283 C284 1.439 . S
C283 H318 0.950 . S
C284 N280 1.383 . S
C284 C283 1.439 . S
C284 C313 1.392 . S
N285 Co279 1.994 1_655 S
N285 C286 1.376 . S
N285 C289 1.374 . S
C286 N285 1.376 . S
C286 C287 1.443 . S
C286 C313 1.389 . S
C287 C286 1.443 . S
C287 C288 1.340 . S
C287 H319 0.951 . S
C288 C287 1.340 . S
C288 C289 1.439 . S
C288 H320 0.950 . S
C289 N285 1.374 . S
C289 C288 1.439 . S
C289 C314 1.395 . S
N290 Co279 2.007 . S
N290 C291 1.376 . S
N290 C294 1.383 . S
C291 N290 1.376 . S
C291 C292 1.446 . S
C291 C314 1.391 1_455 S
C292 C291 1.446 . S
C292 C293 1.339 . S
C292 H321 0.949 . S
C293 C292 1.339 . S
C293 C294 1.439 . S
C293 H322 0.950 . S
C294 N290 1.383 . S
C294 C293 1.439 . S
C294 C312 1.392 . S
N295 Co279 2.264 1_655 S
N295 C298 1.332 . S
N295 C300 1.332 . S
C296 C297 1.386 . S
C296 C299 1.388 . S
C297 C296 1.386 . S
C297 C298 1.382 . S
C297 H323 0.950 . S
C298 N295 1.332 . S
C298 C297 1.382 . S
C298 H309 0.952 . S
C299 C296 1.388 . S
C299 C300 1.382 . S
C299 H324 0.950 . S
C300 N295 1.332 . S
C300 C299 1.382 . S
C300 H310 0.948 . S
N301 Co279 2.301 . S
N301 C305 1.332 . S
N301 C306 1.332 . S
C302 C303 1.388 . S
C302 C306 1.382 . S
C302 H325 0.950 . S
C303 C302 1.388 . S
C303 C304 1.386 . S
C304 C303 1.386 . S
C304 C305 1.382 . S
C304 H326 0.950 . S
C305 N301 1.332 . S
C305 C304 1.382 . S
C305 H307 0.952 . S
C306 N301 1.332 . S
C306 C302 1.382 . S
C306 H308 0.948 . S
H307 C305 0.952 . S
H308 C306 0.948 . S
H309 C298 0.952 . S
H310 C300 0.948 . S
C311 C277 1.395 . S
C311 C281 1.391 1_455 S
C312 C274 1.389 . S
C312 C294 1.392 . S
C313 C284 1.392 . S
C313 C286 1.389 . S
C314 C289 1.395 . S
C314 C291 1.391 1_655 S
H315 C275 0.951 . S
H316 C276 0.950 . S
H317 C282 0.949 . S
H318 C283 0.950 . S
H319 C287 0.951 . S
H320 C288 0.950 . S
H321 C292 0.949 . S
H322 C293 0.950 . S
H323 C297 0.950 . S
H324 C299 0.950 . S
H325 C302 0.950 . S
H326 C304 0.950 . S
C327 C328 1.443 . S
C327 N331 1.376 . S
C327 C365 1.389 . S
C328 C327 1.443 . S
C328 C329 1.340 . S
C328 H368 0.951 . S
C329 C328 1.340 . S
C329 C330 1.439 . S
C329 H369 0.950 . S
C330 C329 1.439 . S
C330 N331 1.374 . S
C330 C364 1.403 . S
N331 C327 1.376 . S
N331 C330 1.374 . S
N331 Co332 2.008 1_565 S
Co332 N331 2.008 1_545 S
Co332 N333 1.995 . S
Co332 N338 2.008 . S
Co332 N343 1.995 1_545 S
Co332 N348 2.282 . S
Co332 N354 2.282 1_545 S
N333 Co332 1.995 . S
N333 C334 1.376 . S
N333 C337 1.383 . S
C334 N333 1.376 . S
C334 C335 1.446 . S
C334 C364 1.383 1_545 S
C335 C334 1.446 . S
C335 C336 1.339 . S
C335 H370 0.949 . S
C336 C335 1.339 . S
C336 C337 1.439 . S
C336 H371 0.950 . S
C337 N333 1.383 . S
C337 C336 1.439 . S
C337 C366 1.392 . S
N338 Co332 2.008 . S
N338 C339 1.376 . S
N338 C342 1.374 . S
C339 N338 1.376 . S
C339 C340 1.443 . S
C339 C366 1.389 . S
C340 C339 1.443 . S
C340 C341 1.340 . S
C340 H372 0.951 . S
C341 C340 1.340 . S
C341 C342 1.439 . S
C341 H373 0.950 . S
C342 N338 1.374 . S
C342 C341 1.439 . S
C342 C367 1.395 . S
N343 Co332 1.995 1_565 S
N343 C344 1.376 . S
N343 C347 1.383 . S
C344 N343 1.376 . S
C344 C345 1.446 . S
C344 C367 1.391 1_565 S
C345 C344 1.446 . S
C345 C346 1.339 . S
C345 H374 0.949 . S
C346 C345 1.339 . S
C346 C347 1.439 . S
C346 H375 0.950 . S
C347 N343 1.383 . S
C347 C346 1.439 . S
C347 C365 1.392 . S
N348 Co332 2.282 . S
N348 C351 1.332 . S
N348 C353 1.332 . S
C349 C350 1.386 . S
C349 C352 1.388 . S
C350 C349 1.386 . S
C350 C351 1.382 . S
C350 H376 0.950 . S
C351 N348 1.332 . S
C351 C350 1.382 . S
C351 H362 0.952 . S
C352 C349 1.388 . S
C352 C353 1.382 . S
C352 H377 0.950 . S
C353 N348 1.332 . S
C353 C352 1.382 . S
C353 H363 0.948 . S
N354 Co332 2.282 1_565 S
N354 C358 1.332 . S
N354 C359 1.332 . S
C355 C356 1.388 . S
C355 C359 1.382 . S
C355 H378 0.950 . S
C356 C355 1.388 . S
C356 C357 1.386 . S
C357 C356 1.386 . S
C357 C358 1.382 . S
C357 H379 0.950 . S
C358 N354 1.332 . S
C358 C357 1.382 . S
C358 H360 0.952 . S
C359 N354 1.332 . S
C359 C355 1.382 . S
C359 H361 0.948 . S
H360 C358 0.952 . S
H361 C359 0.948 . S
H362 C351 0.952 . S
H363 C353 0.948 . S
C364 C330 1.403 . S
C364 C334 1.383 1_565 S
C365 C327 1.389 . S
C365 C347 1.392 . S
C366 C337 1.392 . S
C366 C339 1.389 . S
C367 C342 1.395 . S
C367 C344 1.391 1_545 S
H368 C328 0.951 . S
H369 C329 0.950 . S
H370 C335 0.949 . S
H371 C336 0.950 . S
H372 C340 0.951 . S
H373 C341 0.950 . S
H374 C345 0.949 . S
H375 C346 0.950 . S
H376 C350 0.950 . S
H377 C352 0.950 . S
H378 C355 0.950 . S
H379 C357 0.950 . S
C380 C381 1.443 . S
C380 N384 1.376 . S
C380 C418 1.389 . S
C381 C380 1.443 . S
C381 C382 1.340 . S
C381 H421 0.951 . S
C382 C381 1.340 . S
C382 C383 1.439 . S
C382 H422 0.950 . S
C383 C382 1.439 . S
C383 N384 1.374 . S
C383 C417 1.395 . S
N384 C380 1.376 . S
N384 C383 1.374 . S
N384 Co385 2.008 . S
Co385 N384 2.008 . S
Co385 N386 1.995 1_554 S
Co385 N391 2.008 1_554 S
Co385 N396 1.995 . S
Co385 N401 2.282 . S
Co385 N407 2.282 1_554 S
N386 Co385 1.995 1_556 S
N386 C387 1.376 . S
N386 C390 1.383 . S
C387 N386 1.376 . S
C387 C388 1.446 . S
C387 C417 1.391 1_556 S
C388 C387 1.446 . S
C388 C389 1.339 . S
C388 H423 0.949 . S
C389 C388 1.339 . S
C389 C390 1.439 . S
C389 H424 0.950 . S
C390 N386 1.383 . S
C390 C389 1.439 . S
C390 C419 1.392 . S
N391 Co385 2.008 1_556 S
N391 C392 1.376 . S
N391 C395 1.374 . S
C392 N391 1.376 . S
C392 C393 1.443 . S
C392 C419 1.389 . S
C393 C392 1.443 . S
C393 C394 1.340 . S
C393 H425 0.951 . S
C394 C393 1.340 . S
C394 C395 1.439 . S
C394 H426 0.950 . S
C395 N391 1.374 . S
C395 C394 1.439 . S
C395 C420 1.395 . S
N396 Co385 1.995 . S
N396 C397 1.376 . S
N396 C400 1.383 . S
C397 N396 1.376 . S
C397 C398 1.446 . S
C397 C420 1.391 1_554 S
C398 C397 1.446 . S
C398 C399 1.339 . S
C398 H427 0.949 . S
C399 C398 1.339 . S
C399 C400 1.439 . S
C399 H428 0.950 . S
C400 N396 1.383 . S
C400 C399 1.439 . S
C400 C418 1.392 . S
N401 Co385 2.282 . S
N401 C404 1.332 . S
N401 C406 1.332 . S
C402 C403 1.386 . S
C402 C405 1.388 . S
C403 C402 1.386 . S
C403 C404 1.382 . S
C403 H429 0.950 . S
C404 N401 1.332 . S
C404 C403 1.382 . S
C404 H415 0.952 . S
C405 C402 1.388 . S
C405 C406 1.382 . S
C405 H430 0.950 . S
C406 N401 1.332 . S
C406 C405 1.382 . S
C406 H416 0.948 . S
N407 Co385 2.282 1_556 S
N407 C411 1.332 . S
N407 C412 1.332 . S
C408 C409 1.388 . S
C408 C412 1.382 . S
C408 H431 0.950 . S
C409 C408 1.388 . S
C409 C410 1.386 . S
C410 C409 1.386 . S
C410 C411 1.382 . S
C410 H432 0.950 . S
C411 N407 1.332 . S
C411 C410 1.382 . S
C411 H413 0.952 . S
C412 N407 1.332 . S
C412 C408 1.382 . S
C412 H414 0.948 . S
H413 C411 0.952 . S
H414 C412 0.948 . S
H415 C404 0.952 . S
H416 C406 0.948 . S
C417 C383 1.395 . S
C417 C387 1.391 1_554 S
C418 C380 1.389 . S
C418 C400 1.392 . S
C419 C390 1.392 . S
C419 C392 1.389 . S
C420 C395 1.395 . S
C420 C397 1.391 1_556 S
H421 C381 0.951 . S
H422 C382 0.950 . S
H423 C388 0.949 . S
H424 C389 0.950 . S
H425 C393 0.951 . S
H426 C394 0.950 . S
H427 C398 0.949 . S
H428 C399 0.950 . S
H429 C403 0.950 . S
H430 C405 0.950 . S
H431 C408 0.950 . S
H432 C410 0.950 . S
C433 C434 1.443 . S
C433 N437 1.376 . S
C433 C471 1.389 . S
C434 C433 1.443 . S
C434 C435 1.340 . S
C434 H474 0.951 . S
C435 C434 1.340 . S
C435 C436 1.439 . S
C435 H475 0.950 . S
C436 C435 1.439 . S
C436 N437 1.374 . S
C436 C470 1.395 . S
N437 C433 1.376 . S
N437 C436 1.374 . S
N437 Co438 2.008 . S
Co438 N437 2.008 . S
Co438 N439 1.995 1_554 S
Co438 N444 2.008 . S
Co438 N449 1.995 . S
Co438 N454 2.282 . S
Co438 N460 2.282 1_554 S
N439 Co438 1.995 1_556 S
N439 C440 1.376 . S
N439 C443 1.383 . S
C440 N439 1.376 . S
C440 C441 1.446 . S
C440 C470 1.391 1_556 S
C441 C440 1.446 . S
C441 C442 1.339 . S
C441 H476 0.949 . S
C442 C441 1.339 . S
C442 C443 1.439 . S
C442 H477 0.950 . S
C443 N439 1.383 . S
C443 C442 1.439 . S
C443 C472 1.392 . S
N444 Co438 2.008 . S
N444 C445 1.376 1_554 S
N444 C448 1.374 . S
C445 N444 1.376 1_556 S
C445 C446 1.443 . S
C445 C472 1.389 . S
C446 C445 1.443 . S
C446 C447 1.340 1_556 S
C446 H478 0.951 . S
C447 C446 1.340 1_554 S
C447 C448 1.439 . S
C447 H479 0.950 . S
C448 N444 1.374 . S
C448 C447 1.439 . S
C448 C473 1.395 . S
N449 Co438 1.995 . S
N449 C450 1.376 . S
N449 C453 1.383 . S
C450 N449 1.376 . S
C450 C451 1.446 . S
C450 C473 1.391 . S
C451 C450 1.446 . S
C451 C452 1.339 . S
C451 H480 0.949 . S
C452 C451 1.339 . S
C452 C453 1.439 . S
C452 H481 0.950 . S
C453 N449 1.383 . S
C453 C452 1.439 . S
C453 C471 1.392 . S
N454 Co438 2.282 . S
N454 C457 1.332 . S
N454 C459 1.332 . S
C455 C456 1.386 . S
C455 C458 1.388 . S
C456 C455 1.386 . S
C456 C457 1.382 . S
C456 H482 0.950 . S
C457 N454 1.332 . S
C457 C456 1.382 . S
C457 H468 0.952 . S
C458 C455 1.388 . S
C458 C459 1.382 . S
C458 H483 0.950 . S
C459 N454 1.332 . S
C459 C458 1.382 . S
C459 H469 0.948 . S
N460 Co438 2.282 1_556 S
N460 C464 1.332 . S
N460 C465 1.332 . S
C461 C462 1.388 . S
C461 C465 1.382 . S
C461 H484 0.950 . S
C462 C461 1.388 . S
C462 C463 1.386 . S
C463 C462 1.386 . S
C463 C464 1.382 . S
C463 H485 0.950 . S
C464 N460 1.332 . S
C464 C463 1.382 . S
C464 H466 0.952 . S
C465 N460 1.332 . S
C465 C461 1.382 . S
C465 H467 0.948 . S
H466 C464 0.952 . S
H467 C465 0.948 . S
H468 C457 0.952 . S
H469 C459 0.948 . S
C470 C436 1.395 . S
C470 C440 1.391 1_554 S
C471 C433 1.389 . S
C471 C453 1.392 . S
C472 C443 1.392 . S
C472 C445 1.389 . S
C473 C448 1.395 . S
C473 C450 1.391 . S
H474 C434 0.951 . S
H475 C435 0.950 . S
H476 C441 0.949 . S
H477 C442 0.950 . S
H478 C446 0.951 . S
H479 C447 0.950 . S
H480 C451 0.949 . S
H481 C452 0.950 . S
H482 C456 0.950 . S
H483 C458 0.950 . S
H484 C461 0.950 . S
H485 C463 0.950 . S
C486 C487 1.443 . S
C486 N490 1.376 1_556 S
C486 C524 1.389 . S
C487 C486 1.443 . S
C487 C488 1.340 1_556 S
C487 H527 0.951 . S
C488 C487 1.340 1_554 S
C488 C489 1.439 . S
C488 H528 0.950 . S
C489 C488 1.439 . S
C489 N490 1.374 . S
C489 C523 1.395 . S
N490 C486 1.376 1_554 S
N490 C489 1.374 . S
N490 Co491 2.008 . S
Co491 N490 2.008 . S
Co491 N492 1.995 . S
Co491 N497 2.008 . S
Co491 N502 1.995 . S
Co491 N507 2.282 1_554 S
Co491 N513 2.282 . S
N492 Co491 1.995 . S
N492 C493 1.376 . S
N492 C496 1.383 . S
C493 N492 1.376 . S
C493 C494 1.446 . S
C493 C523 1.391 . S
C494 C493 1.446 . S
C494 C495 1.339 . S
C494 H529 0.949 . S
C495 C494 1.339 . S
C495 C496 1.439 . S
C495 H530 0.950 . S
C496 N492 1.383 . S
C496 C495 1.439 . S
C496 C525 1.392 . S
N497 Co491 2.008 . S
N497 C498 1.376 . S
N497 C501 1.374 . S
C498 N497 1.376 . S
C498 C499 1.443 . S
C498 C525 1.389 . S
C499 C498 1.443 . S
C499 C500 1.340 . S
C499 H531 0.951 . S
C500 C499 1.340 . S
C500 C501 1.439 . S
C500 H532 0.950 . S
C501 N497 1.374 . S
C501 C500 1.439 . S
C501 C526 1.395 . S
N502 Co491 1.995 . S
N502 C503 1.376 . S
N502 C506 1.383 1_554 S
C503 N502 1.376 . S
C503 C504 1.446 1_554 S
C503 C526 1.391 . S
C504 C503 1.446 1_556 S
C504 C505 1.339 . S
C504 H533 0.949 . S
C505 C504 1.339 . S
C505 C506 1.439 . S
C505 H534 0.950 . S
C506 N502 1.383 1_556 S
C506 C505 1.439 . S
C506 C524 1.392 . S
N507 Co491 2.282 1_556 S
N507 C510 1.332 . S
N507 C512 1.332 . S
C508 C509 1.386 . S
C508 C511 1.388 . S
C509 C508 1.386 . S
C509 C510 1.382 . S
C509 H535 0.950 . S
C510 N507 1.332 . S
C510 C509 1.382 . S
C510 H521 0.952 . S
C511 C508 1.388 . S
C511 C512 1.382 . S
C511 H536 0.950 . S
C512 N507 1.332 . S
C512 C511 1.382 . S
C512 H522 0.948 1_556 S
N513 Co491 2.282 . S
N513 C517 1.332 . S
N513 C518 1.332 . S
C514 C515 1.388 . S
C514 C518 1.382 . S
C514 H537 0.950 . S
C515 C514 1.388 . S
C515 C516 1.386 . S
C516 C515 1.386 . S
C516 C517 1.382 . S
C516 H538 0.950 . S
C517 N513 1.332 . S
C517 C516 1.382 . S
C517 H519 0.952 . S
C518 N513 1.332 . S
C518 C514 1.382 . S
C518 H520 0.948 . S
H519 C517 0.952 . S
H520 C518 0.948 . S
H521 C510 0.952 . S
H522 C512 0.948 1_554 S
C523 C489 1.395 . S
C523 C493 1.391 . S
C524 C486 1.389 . S
C524 C506 1.392 . S
C525 C496 1.392 . S
C525 C498 1.389 . S
C526 C501 1.395 . S
C526 C503 1.391 . S
H527 C487 0.951 . S
H528 C488 0.950 . S
H529 C494 0.949 . S
H530 C495 0.950 . S
H531 C499 0.951 . S
H532 C500 0.950 . S
H533 C504 0.949 . S
H534 C505 0.950 . S
H535 C509 0.950 . S
H536 C511 0.950 . S
H537 C514 0.950 . S
H538 C516 0.950 . S
C539 C540 1.443 . S
C539 N543 1.376 . S
C539 C577 1.389 . S
C540 C539 1.443 . S
C540 C541 1.340 . S
C540 H580 0.951 . S
C541 C540 1.340 . S
C541 C542 1.439 . S
C541 H581 0.950 . S
C542 C541 1.439 . S
C542 N543 1.374 . S
C542 C576 1.395 1_554 S
N543 C539 1.376 . S
N543 C542 1.374 . S
N543 Co544 2.008 . S
Co544 N543 2.008 . S
Co544 N545 1.995 1_554 S
Co544 N550 2.008 1_554 S
Co544 N555 1.995 . S
Co544 N560 2.282 . S
Co544 N566 2.282 1_554 S
N545 Co544 1.995 1_556 S
N545 C546 1.376 . S
N545 C549 1.383 . S
C546 N545 1.376 . S
C546 C547 1.446 . S
C546 C576 1.391 . S
C547 C546 1.446 . S
C547 C548 1.339 . S
C547 H582 0.949 . S
C548 C547 1.339 . S
C548 C549 1.439 . S
C548 H583 0.950 . S
C549 N545 1.383 . S
C549 C548 1.439 . S
C549 C578 1.392 . S
N550 Co544 2.008 1_556 S
N550 C551 1.376 . S
N550 C554 1.374 1_556 S
C551 N550 1.376 . S
C551 C552 1.443 . S
C551 C578 1.389 . S
C552 C551 1.443 . S
C552 C553 1.340 . S
C552 H584 0.951 . S
C553 C552 1.340 . S
C553 C554 1.439 1_556 S
C553 H585 0.950 . S
C554 N550 1.374 1_554 S
C554 C553 1.439 1_554 S
C554 C579 1.395 . S
N555 Co544 1.995 . S
N555 C556 1.376 . S
N555 C559 1.383 . S
C556 N555 1.376 . S
C556 C557 1.446 . S
C556 C579 1.391 . S
C557 C556 1.446 . S
C557 C558 1.339 . S
C557 H586 0.949 . S
C558 C557 1.339 . S
C558 C559 1.439 . S
C558 H587 0.950 . S
C559 N555 1.383 . S
C559 C558 1.439 . S
C559 C577 1.392 . S
N560 Co544 2.282 . S
N560 C563 1.332 . S
N560 C565 1.332 . S
C561 C562 1.386 . S
C561 C564 1.388 . S
C562 C561 1.386 . S
C562 C563 1.382 . S
C562 H588 0.950 . S
C563 N560 1.332 . S
C563 C562 1.382 . S
C563 H574 0.952 . S
C564 C561 1.388 . S
C564 C565 1.382 . S
C564 H589 0.950 . S
C565 N560 1.332 . S
C565 C564 1.382 . S
C565 H575 0.948 . S
N566 Co544 2.282 1_556 S
N566 C570 1.332 . S
N566 C571 1.332 . S
C567 C568 1.388 . S
C567 C571 1.382 . S
C567 H590 0.950 . S
C568 C567 1.388 . S
C568 C569 1.386 . S
C569 C568 1.386 . S
C569 C570 1.382 . S
C569 H591 0.950 . S
C570 N566 1.332 . S
C570 C569 1.382 . S
C570 H572 0.952 . S
C571 N566 1.332 . S
C571 C567 1.382 . S
C571 H573 0.948 . S
H572 C570 0.952 . S
H573 C571 0.948 . S
H574 C563 0.952 . S
H575 C565 0.948 . S
C576 C542 1.395 1_556 S
C576 C546 1.391 . S
C577 C539 1.389 . S
C577 C559 1.392 . S
C578 C549 1.392 . S
C578 C551 1.389 . S
C579 C554 1.395 . S
C579 C556 1.391 . S
H580 C540 0.951 . S
H581 C541 0.950 . S
H582 C547 0.949 . S
H583 C548 0.950 . S
H584 C552 0.951 . S
H585 C553 0.950 . S
H586 C557 0.949 . S
H587 C558 0.950 . S
H588 C562 0.950 . S
H589 C564 0.950 . S
H590 C567 0.950 . S
H591 C569 0.950 . S
C592 C593 1.369 . S
C592 C594 1.419 . S
C592 H596 0.930 . S
C593 C592 1.369 . S
C593 C602 1.429 . S
C594 C592 1.419 . S
C594 C595 1.363 . S
C594 H597 0.929 . S
C595 C594 1.363 . S
C595 C601 1.428 . S
H596 C592 0.930 . S
H597 C594 0.929 . S
S598 N599 1.613 . S
S598 N600 1.610 . S
N599 S598 1.613 . S
N599 C602 1.350 . S
N600 S598 1.610 . S
N600 C601 1.351 . S
C601 C595 1.428 . S
C601 N600 1.351 . S
C601 C602 1.434 . S
C602 C593 1.429 . S
C602 N599 1.350 . S
C602 C601 1.434 . S
C603 C604 1.369 . S
C603 C605 1.419 . S
C603 H607 0.930 . S
C604 C603 1.369 . S
C604 C613 1.429 . S
C605 C603 1.419 . S
C605 C606 1.363 . S
C605 H608 0.929 . S
C606 C605 1.363 . S
C606 C612 1.428 . S
H607 C603 0.930 . S
H608 C605 0.929 . S
S609 N610 1.613 . S
S609 N611 1.610 . S
N610 S609 1.613 . S
N610 C613 1.350 . S
N611 S609 1.610 . S
N611 C612 1.351 . S
C612 C606 1.428 . S
C612 N611 1.351 . S
C612 C613 1.434 . S
C613 C604 1.429 . S
C613 N610 1.350 . S
C613 C612 1.434 . S
C614 C615 1.369 . S
C614 C616 1.419 . S
C614 H618 0.930 . S
C615 C614 1.369 . S
C615 C624 1.429 . S
C616 C614 1.419 . S
C616 C617 1.363 . S
C616 H619 0.929 . S
C617 C616 1.363 . S
C617 C623 1.428 . S
H618 C614 0.930 . S
H619 C616 0.929 . S
S620 N621 1.613 . S
S620 N622 1.610 . S
N621 S620 1.613 . S
N621 C624 1.350 . S
N622 S620 1.610 . S
N622 C623 1.351 . S
C623 C617 1.428 . S
C623 N622 1.351 . S
C623 C624 1.434 . S
C624 C615 1.429 . S
C624 N621 1.350 . S
C624 C623 1.434 . S
C625 C626 1.369 . S
C625 C627 1.419 . S
C625 H629 0.930 . S
C626 C625 1.369 . S
C626 C635 1.429 . S
C627 C625 1.419 . S
C627 C628 1.363 . S
C627 H630 0.929 . S
C628 C627 1.363 . S
C628 C634 1.428 . S
H629 C625 0.930 . S
H630 C627 0.929 . S
S631 N632 1.613 . S
S631 N633 1.610 . S
N632 S631 1.613 . S
N632 C635 1.350 . S
N633 S631 1.610 . S
N633 C634 1.351 . S
C634 C628 1.428 . S
C634 N633 1.351 . S
C634 C635 1.434 . S
C635 C626 1.429 . S
C635 N632 1.350 . S
C635 C634 1.434 . S
C636 C637 1.369 . S
C636 C638 1.419 . S
C636 H640 0.930 . S
C637 C636 1.369 . S
C637 C646 1.429 . S
C638 C636 1.419 . S
C638 C639 1.363 . S
C638 H641 0.929 . S
C639 C638 1.363 . S
C639 C645 1.428 . S
H640 C636 0.930 . S
H641 C638 0.929 . S
S642 N643 1.613 . S
S642 N644 1.610 . S
N643 S642 1.613 . S
N643 C646 1.350 . S
N644 S642 1.610 . S
N644 C645 1.351 . S
C645 C639 1.428 . S
C645 N644 1.351 . S
C645 C646 1.434 . S
C646 C637 1.429 . S
C646 N643 1.350 . S
C646 C645 1.434 . S
C647 C648 1.369 . S
C647 C649 1.419 . S
C647 H651 0.930 . S
C648 C647 1.369 . S
C648 C657 1.429 . S
C649 C647 1.419 . S
C649 C650 1.363 . S
C649 H652 0.929 . S
C650 C649 1.363 . S
C650 C656 1.428 . S
H651 C647 0.930 . S
H652 C649 0.929 . S
S653 N654 1.613 . S
S653 N655 1.610 . S
N654 S653 1.613 . S
N654 C657 1.350 . S
N655 S653 1.610 . S
N655 C656 1.351 . S
C656 C650 1.428 . S
C656 N655 1.351 . S
C656 C657 1.434 . S
C657 C648 1.429 . S
C657 N654 1.350 . S
C657 C656 1.434 . S
C658 C659 1.369 . S
C658 C660 1.419 . S
C658 H662 0.930 . S
C659 C658 1.369 . S
C659 C668 1.429 . S
C660 C658 1.419 . S
C660 C661 1.363 . S
C660 H663 0.929 . S
C661 C660 1.363 . S
C661 C667 1.428 . S
H662 C658 0.930 . S
H663 C660 0.929 . S
S664 N665 1.613 . S
S664 N666 1.610 . S
N665 S664 1.613 . S
N665 C668 1.350 . S
N666 S664 1.610 . S
N666 C667 1.351 . S
C667 C661 1.428 . S
C667 N666 1.351 . S
C667 C668 1.434 . S
C668 C659 1.429 . S
C668 N665 1.350 . S
C668 C667 1.434 . S
C669 C670 1.369 . S
C669 C671 1.419 . S
C669 H673 0.930 . S
C670 C669 1.369 . S
C670 C679 1.429 . S
C671 C669 1.419 . S
C671 C672 1.363 . S
C671 H674 0.929 . S
C672 C671 1.363 . S
C672 C678 1.428 . S
H673 C669 0.930 . S
H674 C671 0.929 . S
S675 N676 1.613 . S
S675 N677 1.610 . S
N676 S675 1.613 . S
N676 C679 1.350 . S
N677 S675 1.610 . S
N677 C678 1.351 . S
C678 C672 1.428 . S
C678 N677 1.351 . S
C678 C679 1.434 . S
C679 C670 1.429 . S
C679 N676 1.350 . S
C679 C678 1.434 . S
C680 C681 1.369 . S
C680 C682 1.419 . S
C680 H684 0.930 . S
C681 C680 1.369 . S
C681 C690 1.429 . S
C682 C680 1.419 . S
C682 C683 1.363 . S
C682 H685 0.929 . S
C683 C682 1.363 . S
C683 C689 1.428 . S
H684 C680 0.930 . S
H685 C682 0.929 . S
S686 N687 1.613 . S
S686 N688 1.610 . S
N687 S686 1.613 . S
N687 C690 1.350 . S
N688 S686 1.610 . S
N688 C689 1.351 . S
C689 C683 1.428 . S
C689 N688 1.351 . S
C689 C690 1.434 . S
C690 C681 1.429 . S
C690 N687 1.350 . S
C690 C689 1.434 . S
C691 C692 1.369 . S
C691 C693 1.419 . S
C691 H695 0.930 . S
C692 C691 1.369 . S
C692 C701 1.429 . S
C693 C691 1.419 . S
C693 C694 1.363 . S
C693 H696 0.929 . S
C694 C693 1.363 . S
C694 C700 1.428 . S
H695 C691 0.930 . S
H696 C693 0.929 . S
S697 N698 1.613 . S
S697 N699 1.610 . S
N698 S697 1.613 . S
N698 C701 1.350 . S
N699 S697 1.610 . S
N699 C700 1.351 . S
C700 C694 1.428 . S
C700 N699 1.351 . S
C700 C701 1.434 . S
C701 C692 1.429 . S
C701 N698 1.350 . S
C701 C700 1.434 . S
C702 C703 1.369 . S
C702 C704 1.419 . S
C702 H706 0.930 . S
C703 C702 1.369 . S
C703 C712 1.429 . S
C704 C702 1.419 . S
C704 C705 1.363 . S
C704 H707 0.929 . S
C705 C704 1.363 . S
C705 C711 1.428 . S
H706 C702 0.930 . S
H707 C704 0.929 . S
S708 N709 1.613 . S
S708 N710 1.610 . S
N709 S708 1.613 . S
N709 C712 1.350 . S
N710 S708 1.610 . S
N710 C711 1.351 . S
C711 C705 1.428 . S
C711 N710 1.351 . S
C711 C712 1.434 . S
C712 C703 1.429 . S
C712 N709 1.350 . S
C712 C711 1.434 . S
C713 C714 1.369 . S
C713 C715 1.419 . S
C713 H717 0.930 . S
C714 C713 1.369 . S
C714 C723 1.429 . S
C715 C713 1.419 . S
C715 C716 1.363 . S
C715 H718 0.929 . S
C716 C715 1.363 . S
C716 C722 1.428 . S
H717 C713 0.930 . S
H718 C715 0.929 . S
S719 N720 1.613 . S
S719 N721 1.610 . S
N720 S719 1.613 . S
N720 C723 1.350 . S
N721 S719 1.610 . S
N721 C722 1.351 . S
C722 C716 1.428 . S
C722 N721 1.351 . S
C722 C723 1.434 . S
C723 C714 1.429 . S
C723 N720 1.350 . S
C723 C722 1.434 . S
C724 C725 1.369 . S
C724 C726 1.419 . S
C724 H728 0.930 . S
C725 C724 1.369 . S
C725 C734 1.429 . S
C726 C724 1.419 . S
C726 C727 1.363 . S
C726 H729 0.929 . S
C727 C726 1.363 . S
C727 C733 1.428 . S
H728 C724 0.930 . S
H729 C726 0.929 . S
S730 N731 1.613 . S
S730 N732 1.610 . S
N731 S730 1.613 . S
N731 C734 1.350 . S
N732 S730 1.610 . S
N732 C733 1.351 . S
C733 C727 1.428 . S
C733 N732 1.351 . S
C733 C734 1.434 . S
C734 C725 1.429 . S
C734 N731 1.350 . S
C734 C733 1.434 . S
C735 C736 1.369 . S
C735 C737 1.419 . S
C735 H739 0.930 . S
C736 C735 1.369 . S
C736 C745 1.429 . S
C737 C735 1.419 . S
C737 C738 1.363 . S
C737 H740 0.929 . S
C738 C737 1.363 . S
C738 C744 1.428 . S
H739 C735 0.930 . S
H740 C737 0.929 . S
S741 N742 1.613 . S
S741 N743 1.610 . S
N742 S741 1.613 . S
N742 C745 1.350 . S
N743 S741 1.610 . S
N743 C744 1.351 . S
C744 C738 1.428 . S
C744 N743 1.351 . S
C744 C745 1.434 . S
C745 C736 1.429 . S
C745 N742 1.350 . S
C745 C744 1.434 . S
C746 C747 1.369 . S
C746 C748 1.419 . S
C746 H750 0.930 . S
C747 C746 1.369 . S
C747 C756 1.429 . S
C748 C746 1.419 . S
C748 C749 1.363 . S
C748 H751 0.929 . S
C749 C748 1.363 . S
C749 C755 1.428 . S
H750 C746 0.930 . S
H751 C748 0.929 . S
S752 N753 1.613 . S
S752 N754 1.610 . S
N753 S752 1.613 . S
N753 C756 1.350 . S
N754 S752 1.610 . S
N754 C755 1.351 . S
C755 C749 1.428 . S
C755 N754 1.351 . S
C755 C756 1.434 . S
C756 C747 1.429 . S
C756 N753 1.350 . S
C756 C755 1.434 . S
C757 C758 1.369 . S
C757 C759 1.419 . S
C757 H761 0.930 . S
C758 C757 1.369 . S
C758 C767 1.429 . S
C759 C757 1.419 . S
C759 C760 1.363 . S
C759 H762 0.929 . S
C760 C759 1.363 . S
C760 C766 1.428 . S
H761 C757 0.930 . S
H762 C759 0.929 . S
S763 N764 1.613 . S
S763 N765 1.610 . S
N764 S763 1.613 . S
N764 C767 1.350 . S
N765 S763 1.610 . S
N765 C766 1.351 . S
C766 C760 1.428 . S
C766 N765 1.351 . S
C766 C767 1.434 . S
C767 C758 1.429 . S
C767 N764 1.350 . S
C767 C766 1.434 . S
C768 C769 1.369 . S
C768 C770 1.419 . S
C768 H772 0.930 . S
C769 C768 1.369 . S
C769 C778 1.429 . S
C770 C768 1.419 . S
C770 C771 1.363 . S
C770 H773 0.929 . S
C771 C770 1.363 . S
C771 C777 1.428 . S
H772 C768 0.930 . S
H773 C770 0.929 . S
S774 N775 1.613 . S
S774 N776 1.610 . S
N775 S774 1.613 . S
N775 C778 1.350 . S
N776 S774 1.610 . S
N776 C777 1.351 . S
C777 C771 1.428 . S
C777 N776 1.351 . S
C777 C778 1.434 . S
C778 C769 1.429 . S
C778 N775 1.350 . S
C778 C777 1.434 . S
C779 C780 1.369 . S
C779 C781 1.419 . S
C779 H783 0.930 . S
C780 C779 1.369 . S
C780 C789 1.429 . S
C781 C779 1.419 . S
C781 C782 1.363 . S
C781 H784 0.929 . S
C782 C781 1.363 . S
C782 C788 1.428 . S
H783 C779 0.930 . S
H784 C781 0.929 . S
S785 N786 1.613 . S
S785 N787 1.610 . S
N786 S785 1.613 . S
N786 C789 1.350 . S
N787 S785 1.610 . S
N787 C788 1.351 . S
C788 C782 1.428 . S
C788 N787 1.351 . S
C788 C789 1.434 . S
C789 C780 1.429 . S
C789 N786 1.350 . S
C789 C788 1.434 . S
C790 C791 1.369 . S
C790 C792 1.419 . S
C790 H794 0.930 . S
C791 C790 1.369 . S
C791 C800 1.429 . S
C792 C790 1.419 . S
C792 C793 1.363 . S
C792 H795 0.941 . S
C793 C792 1.363 . S
C793 C799 1.428 . S
H794 C790 0.930 . S
H795 C792 0.941 . S
S796 N797 1.613 . S
S796 N798 1.610 . S
N797 S796 1.613 . S
N797 C800 1.350 . S
N798 S796 1.610 . S
N798 C799 1.351 . S
C799 C793 1.428 . S
C799 N798 1.351 . S
C799 C800 1.434 . S
C800 C791 1.429 . S
C800 N797 1.350 . S
C800 C799 1.434 . S
C801 C802 1.369 . S
C801 C803 1.419 . S
C801 H805 0.930 . S
C802 C801 1.369 . S
C802 C811 1.429 . S
C803 C801 1.419 . S
C803 C804 1.363 . S
C803 H806 0.929 . S
C804 C803 1.363 . S
C804 C810 1.428 . S
H805 C801 0.930 . S
H806 C803 0.929 . S
S807 N808 1.613 . S
S807 N809 1.610 . S
N808 S807 1.613 . S
N808 C811 1.350 . S
N809 S807 1.610 . S
N809 C810 1.351 . S
C810 C804 1.428 . S
C810 N809 1.351 . S
C810 C811 1.434 . S
C811 C802 1.429 . S
C811 N808 1.350 . S
C811 C810 1.434 . S
C812 C813 1.369 . S
C812 C814 1.419 . S
C812 H816 0.930 . S
C813 C812 1.369 . S
C813 C822 1.429 . S
C814 C812 1.419 . S
C814 C815 1.363 . S
C814 H817 0.929 . S
C815 C814 1.363 . S
C815 C821 1.428 . S
H816 C812 0.930 . S
H817 C814 0.929 . S
S818 N819 1.613 . S
S818 N820 1.610 . S
N819 S818 1.613 . S
N819 C822 1.350 . S
N820 S818 1.610 . S
N820 C821 1.351 . S
C821 C815 1.428 . S
C821 N820 1.351 . S
C821 C822 1.434 . S
C822 C813 1.429 . S
C822 N819 1.350 . S
C822 C821 1.434 . S
C823 C824 1.369 . S
C823 C825 1.419 . S
C823 H827 0.930 . S
C824 C823 1.369 . S
C824 C833 1.429 . S
C825 C823 1.419 . S
C825 C826 1.363 . S
C825 H828 0.929 . S
C826 C825 1.363 . S
C826 C832 1.428 . S
H827 C823 0.930 . S
H828 C825 0.929 . S
S829 N830 1.613 . S
S829 N831 1.610 . S
N830 S829 1.613 . S
N830 C833 1.350 . S
N831 S829 1.610 . S
N831 C832 1.351 . S
C832 C826 1.428 . S
C832 N831 1.351 . S
C832 C833 1.434 . S
C833 C824 1.429 . S
C833 N830 1.350 . S
C833 C832 1.434 . S
C834 C835 1.369 . S
C834 C836 1.419 . S
C834 H838 0.930 . S
C835 C834 1.369 . S
C835 C844 1.429 . S
C836 C834 1.419 . S
C836 C837 1.363 . S
C836 H839 0.929 . S
C837 C836 1.363 . S
C837 C843 1.428 . S
H838 C834 0.930 . S
H839 C836 0.929 . S
S840 N841 1.613 . S
S840 N842 1.610 . S
N841 S840 1.613 . S
N841 C844 1.350 . S
N842 S840 1.610 . S
N842 C843 1.351 . S
C843 C837 1.428 . S
C843 N842 1.351 . S
C843 C844 1.434 . S
C844 C835 1.429 . S
C844 N841 1.350 . S
C844 C843 1.434 . S
C845 C846 1.369 . S
C845 C847 1.419 . S
C845 H849 0.930 . S
C846 C845 1.369 . S
C846 C855 1.429 . S
C847 C845 1.419 . S
C847 C848 1.363 . S
C847 H850 0.929 . S
C848 C847 1.363 . S
C848 C854 1.428 . S
H849 C845 0.930 . S
H850 C847 0.929 . S
S851 N852 1.613 . S
S851 N853 1.610 . S
N852 S851 1.613 . S
N852 C855 1.350 . S
N853 S851 1.610 . S
N853 C854 1.351 . S
C854 C848 1.428 . S
C854 N853 1.351 . S
C854 C855 1.434 . S
C855 C846 1.429 . S
C855 N852 1.350 . S
C855 C854 1.434 . S
C856 C857 1.369 . S
C856 C858 1.419 . S
C856 H860 0.930 . S
C857 C856 1.369 . S
C857 C866 1.429 . S
C858 C856 1.419 . S
C858 C859 1.363 . S
C858 H861 0.929 . S
C859 C858 1.363 . S
C859 C865 1.428 . S
H860 C856 0.930 . S
H861 C858 0.929 . S
S862 N863 1.613 . S
S862 N864 1.610 . S
N863 S862 1.613 . S
N863 C866 1.350 . S
N864 S862 1.610 . S
N864 C865 1.351 . S
C865 C859 1.428 . S
C865 N864 1.351 . S
C865 C866 1.434 . S
C866 C857 1.429 . S
C866 N863 1.350 . S
C866 C865 1.434 . S
C867 C868 1.369 . S
C867 C869 1.419 . S
C867 H871 0.930 . S
C868 C867 1.369 . S
C868 C877 1.429 . S
C869 C867 1.419 . S
C869 C870 1.363 . S
C869 H872 0.929 . S
C870 C869 1.363 . S
C870 C876 1.428 . S
H871 C867 0.930 . S
H872 C869 0.929 . S
S873 N874 1.613 . S
S873 N875 1.610 . S
N874 S873 1.613 . S
N874 C877 1.350 . S
N875 S873 1.610 . S
N875 C876 1.351 . S
C876 C870 1.428 . S
C876 N875 1.351 . S
C876 C877 1.434 . S
C877 C868 1.429 . S
C877 N874 1.350 . S
C877 C876 1.434 . S
C878 C879 1.369 . S
C878 C880 1.419 . S
C878 H882 0.930 . S
C879 C878 1.369 . S
C879 C888 1.429 . S
C880 C878 1.419 . S
C880 C881 1.363 . S
C880 H883 0.929 . S
C881 C880 1.363 . S
C881 C887 1.428 . S
H882 C878 0.930 . S
H883 C880 0.929 . S
S884 N885 1.613 . S
S884 N886 1.610 . S
N885 S884 1.613 . S
N885 C888 1.350 . S
N886 S884 1.610 . S
N886 C887 1.351 . S
C887 C881 1.428 . S
C887 N886 1.351 . S
C887 C888 1.434 . S
C888 C879 1.429 . S
C888 N885 1.350 . S
C888 C887 1.434 . S
C889 C890 1.369 . S
C889 C891 1.419 . S
C889 H893 0.930 . S
C890 C889 1.369 . S
C890 C899 1.429 . S
C891 C889 1.419 . S
C891 C892 1.363 . S
C891 H894 0.929 . S
C892 C891 1.363 . S
C892 C898 1.428 . S
H893 C889 0.930 . S
H894 C891 0.929 . S
S895 N896 1.613 . S
S895 N897 1.610 . S
N896 S895 1.613 . S
N896 C899 1.350 . S
N897 S895 1.610 . S
N897 C898 1.351 . S
C898 C892 1.428 . S
C898 N897 1.351 . S
C898 C899 1.434 . S
C899 C890 1.429 . S
C899 N896 1.350 . S
C899 C898 1.434 . S
C900 C901 1.369 . S
C900 C902 1.419 . S
C900 H904 0.930 . S
C901 C900 1.369 . S
C901 C910 1.429 . S
C902 C900 1.419 . S
C902 C903 1.363 . S
C902 H905 0.929 . S
C903 C902 1.363 . S
C903 C909 1.428 . S
H904 C900 0.930 . S
H905 C902 0.929 . S
S906 N907 1.613 . S
S906 N908 1.610 . S
N907 S906 1.613 . S
N907 C910 1.350 . S
N908 S906 1.610 . S
N908 C909 1.351 . S
C909 C903 1.428 . S
C909 N908 1.351 . S
C909 C910 1.434 . S
C910 C901 1.429 . S
C910 N907 1.350 . S
C910 C909 1.434 . S
C911 C912 1.369 . S
C911 C913 1.419 . S
C911 H915 0.930 . S
C912 C911 1.369 . S
C912 C921 1.429 . S
C913 C911 1.419 . S
C913 C914 1.363 . S
C913 H916 0.929 . S
C914 C913 1.363 . S
C914 C920 1.428 . S
H915 C911 0.930 . S
H916 C913 0.929 . S
S917 N918 1.613 . S
S917 N919 1.610 . S
N918 S917 1.613 . S
N918 C921 1.350 . S
N919 S917 1.610 . S
N919 C920 1.351 . S
C920 C914 1.428 . S
C920 N919 1.351 . S
C920 C921 1.434 . S
C921 C912 1.429 . S
C921 N918 1.350 . S
C921 C920 1.434 . S
C922 C923 1.369 . S
C922 C924 1.419 . S
C922 H926 0.930 . S
C923 C922 1.369 . S
C923 C932 1.429 . S
C924 C922 1.419 . S
C924 C925 1.363 . S
C924 H927 0.929 . S
C925 C924 1.363 . S
C925 C931 1.428 . S
H926 C922 0.930 . S
H927 C924 0.929 . S
S928 N929 1.613 . S
S928 N930 1.610 . S
N929 S928 1.613 . S
N929 C932 1.350 . S
N930 S928 1.610 . S
N930 C931 1.351 . S
C931 C925 1.428 . S
C931 N930 1.351 . S
C931 C932 1.434 . S
C932 C923 1.429 . S
C932 N929 1.350 . S
C932 C931 1.434 . S
C933 C934 1.369 . S
C933 C935 1.419 . S
C933 H937 0.930 . S
C934 C933 1.369 . S
C934 C943 1.429 . S
C935 C933 1.419 . S
C935 C936 1.363 . S
C935 H938 0.929 . S
C936 C935 1.363 . S
C936 C942 1.428 . S
H937 C933 0.930 . S
H938 C935 0.929 . S
S939 N940 1.613 . S
S939 N941 1.610 . S
N940 S939 1.613 . S
N940 C943 1.350 . S
N941 S939 1.610 . S
N941 C942 1.351 . S
C942 C936 1.428 . S
C942 N941 1.351 . S
C942 C943 1.434 . S
C943 C934 1.429 . S
C943 N940 1.350 . S
C943 C942 1.434 . S
C595 C197 1.500 . S
C593 C12 1.368 . S
C606 C250 1.309 . S
C604 C33 1.210 . S
C617 C313 1.545 . S
C615 C51 1.473 . S
C628 C356 1.293 . S
C626 C75 1.202 . S
C637 C103 1.491 . S
C639 C312 1.546 . S
C650 C349 1.331 . S
C648 C122 1.239 . S
C661 C190 1.486 . S
C659 C145 1.422 . S
C672 C243 1.253 . S
C670 C166 1.184 . S
C683 C296 1.554 . S
C681 C164 1.404 . S
C694 C365 1.835 . S
C692 C101 1.716 . S
C705 C206 1.583 . S
C703 C124 1.485 . S
C716 C259 1.763 . S
C714 C143 1.629 . S
C727 C207 1.583 . S
C725 C30 1.471 . S
C738 C260 1.817 . S
C736 C54 1.689 . S
C749 C303 1.549 . S
C747 C72 1.430 . S
C760 C366 1.782 . S
C758 C9 1.645 . S
C771 C409 1.490 . S
C769 C159 1.344 . S
C780 C96 1.563 . S
C782 C462 1.692 . S
C791 C114 1.498 . S
C793 C524 1.559 . S
C802 C138 1.566 . S
C804 C578 1.688 . S
C813 C40 1.455 . S
C815 C525 1.519 . S
C824 C59 1.633 . S
C826 C577 1.742 . S
C835 C82 1.435 . S
C837 C402 1.507 . S
C848 C455 1.635 . S
C846 C19 1.540 . S
C859 C515 1.529 . S
C857 C17 1.389 . S
C868 C38 1.274 . S
C870 C561 1.401 . S
C879 C61 1.510 . S
C881 C418 1.602 . S
C890 C80 1.286 . S
C892 C471 1.373 . S
C903 C419 1.560 . S
C901 C93 1.441 . S
C914 C472 1.428 . S
C912 C117 1.335 . S
C923 C135 1.448 . S
C925 C508 1.560 . S
C936 C568 1.351 . S
C934 C156 1.221 . S
