# Generated by pormake.
# Topology zzz, (3,6)-cn, num edge types: 1
# Building blocks:
#     Node 0, Type 0, BuildingBlock: VETTIZ_charged_linker_0, # of connection points: 3
#     Node 1, Type 0, BuildingBlock: VETTIZ_charged_linker_0, # of connection points: 3
#     Node 2, Type 0, BuildingBlock: VETTIZ_charged_linker_0, # of connection points: 3
#     Node 3, Type 0, BuildingBlock: VETTIZ_charged_linker_0, # of connection points: 3
#     Node 4, Type 0, BuildingBlock: VETTIZ_charged_linker_0, # of connection points: 3
#     Node 5, Type 0, BuildingBlock: VETTIZ_charged_linker_0, # of connection points: 3
#     Node 6, Type 0, BuildingBlock: VETTIZ_charged_linker_0, # of connection points: 3
#     Node 7, Type 0, BuildingBlock: VETTIZ_charged_linker_0, # of connection points: 3
#     Node 8, Type 1, BuildingBlock: PAMTOO_clean_sbu_0, # of connection points: 6
#     Node 9, Type 1, BuildingBlock: PAMTOO_clean_sbu_0, # of connection points: 6
#     Node 10, Type 1, BuildingBlock: PAMTOO_clean_sbu_0, # of connection points: 6
#     Node 11, Type 1, BuildingBlock: PAMTOO_clean_sbu_0, # of connection points: 6
#     Edge 12, Type (0, 1), BuildingBlock: ZUJKAS_clean_linker_0, # of connection points: 2
#     Edge 13, Type (0, 1), BuildingBlock: ZUJKAS_clean_linker_0, # of connection points: 2
#     Edge 14, Type (0, 1), BuildingBlock: ZUJKAS_clean_linker_0, # of connection points: 2
#     Edge 15, Type (0, 1), BuildingBlock: ZUJKAS_clean_linker_0, # of connection points: 2
#     Edge 16, Type (0, 1), BuildingBlock: ZUJKAS_clean_linker_0, # of connection points: 2
#     Edge 17, Type (0, 1), BuildingBlock: ZUJKAS_clean_linker_0, # of connection points: 2
#     Edge 18, Type (0, 1), BuildingBlock: ZUJKAS_clean_linker_0, # of connection points: 2
#     Edge 19, Type (0, 1), BuildingBlock: ZUJKAS_clean_linker_0, # of connection points: 2
#     Edge 20, Type (0, 1), BuildingBlock: ZUJKAS_clean_linker_0, # of connection points: 2
#     Edge 21, Type (0, 1), BuildingBlock: ZUJKAS_clean_linker_0, # of connection points: 2
#     Edge 22, Type (0, 1), BuildingBlock: ZUJKAS_clean_linker_0, # of connection points: 2
#     Edge 23, Type (0, 1), BuildingBlock: ZUJKAS_clean_linker_0, # of connection points: 2
#     Edge 24, Type (0, 1), BuildingBlock: ZUJKAS_clean_linker_0, # of connection points: 2
#     Edge 25, Type (0, 1), BuildingBlock: ZUJKAS_clean_linker_0, # of connection points: 2
#     Edge 26, Type (0, 1), BuildingBlock: ZUJKAS_clean_linker_0, # of connection points: 2
#     Edge 27, Type (0, 1), BuildingBlock: ZUJKAS_clean_linker_0, # of connection points: 2
#     Edge 28, Type (0, 1), BuildingBlock: ZUJKAS_clean_linker_0, # of connection points: 2
#     Edge 29, Type (0, 1), BuildingBlock: ZUJKAS_clean_linker_0, # of connection points: 2
#     Edge 30, Type (0, 1), BuildingBlock: ZUJKAS_clean_linker_0, # of connection points: 2
#     Edge 31, Type (0, 1), BuildingBlock: ZUJKAS_clean_linker_0, # of connection points: 2
#     Edge 32, Type (0, 1), BuildingBlock: ZUJKAS_clean_linker_0, # of connection points: 2
#     Edge 33, Type (0, 1), BuildingBlock: ZUJKAS_clean_linker_0, # of connection points: 2
#     Edge 34, Type (0, 1), BuildingBlock: ZUJKAS_clean_linker_0, # of connection points: 2
#     Edge 35, Type (0, 1), BuildingBlock: ZUJKAS_clean_linker_0, # of connection points: 2
# Relax obj value: 0.334
# Max RMSD: 0.273
# Mean RMSD: 0.219
data_MOF--net-zzz--node1-PAMTOO_clean_sbu_0--node2-VETTIZ_charged_linker_0--edge1-ZUJKAS_clean_linker_0
_symmetry_space_group_name_H-M    P1
_symmetry_Int_Tables_number       1
_symmetry_cell_setting            triclinic
loop_
_symmetry_equiv_pos_as_xyz
'x, y, z'
_cell_length_a     77.92444
_cell_length_b     69.019582
_cell_length_c     25.922415
_cell_angle_alpha  90.759645
_cell_angle_beta   82.928828
_cell_angle_gamma 85.038644
loop_
_atom_site_label
_atom_site_type_symbol
_atom_site_fract_x
_atom_site_fract_y
_atom_site_fract_z
_atom_type_partial_charge
C0 C 0.82183 0.52958 0.39795 0.0
C1 C 0.83712 0.5382 0.40703 0.0
C2 C 0.84227 0.55383 0.37637 0.0
C3 C 0.81871 0.55088 0.32507 0.0
C4 C 0.81252 0.53659 0.35723 0.0
C5 C 0.79532 0.53074 0.34243 0.0
H6 H 0.73457 0.54359 0.17044 0.0
C7 C 0.80733 0.55429 0.28423 0.0
C8 C 0.79302 0.54315 0.29466 0.0
H9 H 0.73108 0.50608 0.30222 0.0
H10 H 0.75904 0.51555 0.32394 0.0
H11 H 0.75012 0.5802 0.21926 0.0
H12 H 0.76962 0.52859 0.13177 0.0
H13 H 0.78651 0.54357 0.11775 0.0
H14 H 0.76526 0.55088 0.09971 0.0
H15 H 0.74788 0.5755 0.15221 0.0
H16 H 0.76626 0.58688 0.17062 0.0
C17 C 0.78102 0.5364 0.38795 0.0
C18 C 0.79722 0.50882 0.32859 0.0
C19 C 0.83215 0.58304 0.11591 0.0
C20 C 0.82644 0.58248 0.0664 0.0
C21 C 0.80857 0.58144 0.06374 0.0
C22 C 0.79728 0.57808 0.10832 0.0
C23 C 0.804 0.57494 0.15566 0.0
C24 C 0.82092 0.57848 0.15968 0.0
C25 C 0.82598 0.57379 0.21267 0.0
C26 C 0.80982 0.56479 0.23752 0.0
C27 C 0.79708 0.56564 0.20392 0.0
C28 C 0.82882 0.59313 0.24039 0.0
C29 C 0.84222 0.55888 0.2056 0.0
C30 C 0.73953 0.53772 0.20484 0.0
C31 C 0.73038 0.52457 0.23538 0.0
C32 C 0.7378 0.51652 0.27837 0.0
C33 C 0.75395 0.52209 0.291 0.0
C34 C 0.76287 0.53553 0.25971 0.0
C35 C 0.75553 0.54275 0.21705 0.0
C36 C 0.76706 0.55502 0.18394 0.0
C37 C 0.78205 0.55556 0.21553 0.0
C38 C 0.77987 0.54412 0.26023 0.0
C39 C 0.75738 0.57548 0.18084 0.0
C40 C 0.77237 0.54415 0.13048 0.0
H41 H 0.83786 0.57207 0.31393 0.0
H42 H 0.81726 0.51792 0.422 0.0
H43 H 0.80905 0.50507 0.30043 0.0
H44 H 0.78613 0.50429 0.31019 0.0
H45 H 0.7984 0.50008 0.36387 0.0
H46 H 0.78176 0.55165 0.40132 0.0
H47 H 0.78252 0.52677 0.42142 0.0
H48 H 0.76786 0.53565 0.37698 0.0
H49 H 0.84556 0.58496 0.11983 0.0
H50 H 0.80344 0.58136 0.02681 0.0
H51 H 0.78401 0.57668 0.10328 0.0
H52 H 0.82427 0.60616 0.21933 0.0
H53 H 0.84278 0.59426 0.24372 0.0
H54 H 0.82137 0.59467 0.27981 0.0
H55 H 0.84019 0.54662 0.17936 0.0
H56 H 0.84538 0.55233 0.2421 0.0
H57 H 0.85388 0.56579 0.18832 0.0
H58 H 0.85377 0.56083 0.38282 0.0
C59 C 0.83312 0.56026 0.33602 0.0
C60 C 0.92019 0.79883 0.12881 0.0
C61 C 0.91615 0.81856 0.14371 0.0
C62 C 0.91734 0.82427 0.19552 0.0
C63 C 0.931 0.79248 0.21124 0.0
C64 C 0.92779 0.78609 0.16298 0.0
C65 C 0.93535 0.76547 0.15089 0.0
H66 H 0.99254 0.69034 0.19706 0.0
C67 C 0.94281 0.77749 0.232 0.0
C68 C 0.94534 0.76154 0.19723 0.0
H69 H 0.95515 0.69375 0.08631 0.0
H70 H 0.94399 0.72541 0.11949 0.0
H71 H 1.00319 0.74578 0.24831 0.0
H72 H 0.96516 0.71117 0.29861 0.0
H73 H 0.97907 0.72556 0.32872 0.0
H74 H 0.98808 0.70398 0.29223 0.0
H75 H 1.00187 0.73656 0.18538 0.0
H76 H 0.009 0.72028 0.23353 0.0
C77 C 0.94763 0.76512 0.09899 0.0
C78 C 0.92011 0.7524 0.15033 0.0
C79 C 0.97296 0.79702 0.38346 0.0
C80 C 0.988 0.78974 0.40368 0.0
C81 C 0.99656 0.77183 0.38397 0.0
C82 C 0.99003 0.76134 0.34454 0.0
C83 C 0.97511 0.76919 0.32372 0.0
C84 C 0.96702 0.78688 0.34325 0.0
C85 C 0.95279 0.79457 0.31328 0.0
C86 C 0.95314 0.77837 0.27317 0.0
C87 C 0.96602 0.76327 0.27952 0.0
C88 C 0.95784 0.8141 0.28863 0.0
C89 C 0.93554 0.79629 0.35045 0.0
C90 C 0.98196 0.69801 0.18011 0.0
C91 C 0.97462 0.68935 0.13921 0.0
C92 C 0.96083 0.6998 0.11836 0.0
C93 C 0.95437 0.71831 0.13748 0.0
C94 C 0.96181 0.72683 0.17769 0.0
C95 C 0.97516 0.71672 0.19924 0.0
C96 C 0.9808 0.72835 0.24322 0.0
C97 C 0.96813 0.7466 0.24529 0.0
C98 C 0.95746 0.74567 0.20549 0.0
C99 C 0.99975 0.73295 0.22727 0.0
C100 C 0.97825 0.71669 0.29357 0.0
H101 H 0.92596 0.81676 0.26741 0.0
H102 H 0.91888 0.79385 0.08983 0.0
H103 H 0.91818 0.74831 0.10999 0.0
H104 H 0.90759 0.75977 0.1691 0.0
H105 H 0.92213 0.73898 0.17268 0.0
H106 H 0.95617 0.77724 0.09856 0.0
H107 H 0.94012 0.76677 0.06535 0.0
H108 H 0.95641 0.75168 0.09239 0.0
H109 H 0.96646 0.81107 0.39656 0.0
H110 H 1.00832 0.76606 0.39879 0.0
H111 H 0.99702 0.74779 0.33096 0.0
H112 H 0.97175 0.81634 0.28988 0.0
H113 H 0.95011 0.8268 0.30919 0.0
H114 H 0.95634 0.81465 0.24675 0.0
H115 H 0.93477 0.78349 0.37602 0.0
H116 H 0.92399 0.79652 0.32956 0.0
H117 H 0.93447 0.80954 0.37587 0.0
H118 H 0.91423 0.83926 0.20865 0.0
C119 C 0.92459 0.81127 0.22945 0.0
C120 C 0.82365 0.98933 0.12142 0.0
C121 C 0.83397 0.98796 0.07224 0.0
C122 C 0.82573 0.98805 0.02702 0.0
C123 C 0.79754 0.99216 0.07832 0.0
C124 C 0.80529 0.99108 0.1235 0.0
C125 C 0.79164 0.99174 0.17108 0.0
H126 H 0.70425 0.00475 0.26108 0.0
C127 C 0.77859 0.99521 0.09203 0.0
C128 C 0.7747 0.99476 0.14657 0.0
H129 H 0.7454 0.99177 0.35583 0.0
H130 H 0.76685 0.99102 0.27815 0.0
H131 H 0.72231 0.03551 0.19481 0.0
H132 H 0.71802 0.97462 0.17159 0.0
H133 H 0.71542 0.98534 0.11174 0.0
H134 H 0.7004 0.99292 0.16838 0.0
H135 H 0.70337 0.02663 0.17345 0.0
H136 H 0.72147 0.03271 0.12795 0.0
C137 C 0.79408 0.00906 0.20676 0.0
C138 C 0.7933 0.97199 0.19794 0.0
C139 C 0.74152 0.01128 0.94717 0.0
C140 C 0.72367 0.01654 0.94733 0.0
C141 C 0.71272 0.01715 0.99502 0.0
C142 C 0.71934 0.01257 0.04146 0.0
C143 C 0.7372 0.0075 0.04082 0.0
C144 C 0.74795 0.0069 0.99425 0.0
C145 C 0.76661 1.00164 1.00134 0.0
C146 C 0.76527 0.99943 0.06007 0.0
C147 C 0.74805 0.00278 0.08268 0.0
C148 C 0.77694 0.01902 0.98268 0.0
C149 C 0.77267 0.98206 0.97159 0.0
C150 C 0.71786 1.00191 0.26571 0.0
C151 C 0.72303 0.99861 0.31494 0.0
C152 C 0.74098 0.9944 0.31834 0.0
C153 C 0.7534 0.99395 0.27326 0.0
C154 C 0.74782 0.99744 0.22417 0.0
C155 C 0.7302 1.00127 0.22172 0.0
C156 C 0.72598 0.0046 0.16777 0.0
C157 C 0.74382 1.00174 0.13722 0.0
C158 C 0.7569 0.99768 0.16971 0.0
C159 C 0.71775 0.02586 0.16555 0.0
C160 C 0.71425 0.98871 0.15386 0.0
H161 H 0.8025 0.99036 0.99352 0.0
H162 H 0.82969 0.98897 0.15687 0.0
H163 H 0.79433 0.95982 0.16884 0.0
H164 H 0.7819 0.96985 0.22627 0.0
H165 H 0.80509 0.97056 0.2182 0.0
H166 H 0.79475 0.02261 0.18412 0.0
H167 H 0.8063 0.00648 0.22462 0.0
H168 H 0.78322 0.01178 0.23828 0.0
H169 H 0.7503 0.01053 0.91127 0.0
H170 H 0.69898 0.02155 0.99673 0.0
H171 H 0.71023 0.01334 0.07611 0.0
H172 H 0.76932 0.0331 0.99456 0.0
H173 H 0.7799 0.01874 0.93964 0.0
H174 H 0.78916 0.01965 0.99977 0.0
H175 H 0.78111 0.9723 0.9933 0.0
H176 H 0.7796 0.98447 0.93247 0.0
H177 H 0.76155 0.97351 0.96598 0.0
H178 H 0.83335 0.98699 0.98899 0.0
C179 C 0.80773 0.99011 0.02976 0.0
C180 C 0.52542 0.71399 0.29564 0.0
C181 C 0.51877 0.69671 0.31489 0.0
C182 C 0.50613 0.68841 0.28958 0.0
C183 C 0.50737 0.71354 0.22547 0.0
C184 C 0.51928 0.72235 0.25111 0.0
C185 C 0.5239 0.7412 0.22568 0.0
H186 H 0.51742 0.80077 0.01844 0.0
C187 C 0.50421 0.7249 0.17926 0.0
C188 C 0.51372 0.74133 0.17887 0.0
H189 H 0.54333 0.81179 0.15234 0.0
H190 H 0.53497 0.78113 0.1893 0.0
H191 H 0.52996 0.75629 0.00378 0.0
H192 H 0.48354 0.78709 0.0819 0.0
H193 H 0.47706 0.76718 0.04857 0.0
H194 H 0.48837 0.78535 0.0124 0.0
H195 H 0.51294 0.76648 0.96903 0.0
H196 H 0.51302 0.74212 0.99361 0.0
C197 C 0.54368 0.7399 0.20906 0.0
C198 C 0.51719 0.75817 0.26445 0.0
C199 C 0.46908 0.69666 0.04863 0.0
C200 C 0.46615 0.70187 0.99807 0.0
C201 C 0.47193 0.71937 0.9781 0.0
C202 C 0.48087 0.7313 0.00773 0.0
C203 C 0.48432 0.72551 0.05758 0.0
C204 C 0.47834 0.70851 0.07727 0.0
C205 C 0.48419 0.70391 0.12919 0.0
C206 C 0.49467 0.721 0.1376 0.0
C207 C 0.49461 0.73361 0.09578 0.0
C208 C 0.49571 0.6843 0.12309 0.0
C209 C 0.46781 0.70401 0.16989 0.0
C210 C 0.52146 0.79655 0.05554 0.0
C211 C 0.53122 0.80855 0.08216 0.0
C212 C 0.53582 0.80272 0.13103 0.0
C213 C 0.53093 0.78498 0.15239 0.0
C214 C 0.52107 0.77316 0.12501 0.0
C215 C 0.51644 0.77924 0.07757 0.0
C216 C 0.50548 0.76559 0.05406 0.0
C217 C 0.50391 0.75037 0.09536 0.0
C218 C 0.51327 0.7545 0.13682 0.0
C219 C 0.5157 0.7572 1.00224 0.0
C220 C 0.48769 0.77678 0.04843 0.0
H221 H 0.49095 0.68938 0.22772 0.0
H222 H 0.53495 0.72082 0.31497 0.0
H223 H 0.5044 0.75551 0.28604 0.0
H224 H 0.51493 0.77212 0.24504 0.0
H225 H 0.52637 0.75989 0.29345 0.0
H226 H 0.54809 0.72599 0.1874 0.0
H227 H 0.5508 0.74047 0.24356 0.0
H228 H 0.5476 0.75166 0.18298 0.0
H229 H 0.46517 0.68304 0.06442 0.0
H230 H 0.46987 0.72357 0.93906 0.0
H231 H 0.48512 0.74431 0.99008 0.0
H232 H 0.50353 0.6829 0.08408 0.0
H233 H 0.48767 0.67176 0.12726 0.0
H234 H 0.50542 0.68284 0.15069 0.0
H235 H 0.457 0.7141 0.15893 0.0
H236 H 0.47003 0.7094 0.20871 0.0
H237 H 0.46307 0.68931 0.17347 0.0
H238 H 0.50088 0.67514 0.3036 0.0
C239 C 0.50043 0.69668 0.24525 0.0
C240 C 0.30546 0.47583 0.13062 0.0
C241 C 0.3177 0.46762 0.16234 0.0
C242 C 0.31556 0.44905 0.18267 0.0
C243 C 0.2878 0.44907 0.15097 0.0
C244 C 0.29074 0.46574 0.12397 0.0
C245 C 0.27683 0.46999 0.08811 0.0
H246 H 0.19659 0.44832 0.02899 0.0
C247 C 0.27061 0.44333 0.14381 0.0
C248 C 0.26411 0.45476 0.10482 0.0
H249 H 0.22999 0.48671 0.9435 0.0
H250 H 0.2514 0.48059 0.00418 0.0
H251 H 0.22536 0.41367 0.04877 0.0
H252 H 0.20018 0.46399 0.13195 0.0
H253 H 0.20755 0.44981 0.18176 0.0
H254 H 0.19215 0.44075 0.14281 0.0
H255 H 0.20289 0.41719 0.07549 0.0
H256 H 0.21915 0.40704 0.11356 0.0
C257 C 0.28546 0.46633 0.0316 0.0
C258 C 0.26842 0.49091 0.09852 0.0
C259 C 0.23787 0.4133 0.29798 0.0
C260 C 0.21997 0.41201 0.3109 0.0
C261 C 0.20941 0.41194 0.27042 0.0
C262 C 0.21615 0.4158 0.21936 0.0
C263 C 0.23345 0.4203 0.20892 0.0
C264 C 0.24426 0.41801 0.2472 0.0
C265 C 0.26216 0.42389 0.22968 0.0
C266 C 0.25966 0.4319 0.17609 0.0
C267 C 0.24281 0.42989 0.16461 0.0
C268 C 0.27518 0.40545 0.22697 0.0
C269 C 0.26625 0.43986 0.26786 0.0
C270 C 0.20869 0.45506 0.02204 0.0
C271 C 0.2117 0.46755 0.98024 0.0
C272 C 0.22734 0.4768 0.97492 0.0
C273 C 0.23986 0.47305 0.00972 0.0
C274 C 0.23674 0.45994 0.05037 0.0
C275 C 0.22117 0.45147 0.05598 0.0
C276 C 0.21911 0.43895 0.10265 0.0
C277 C 0.23665 0.43968 0.12175 0.0
C278 C 0.24706 0.45222 0.0918 0.0
C279 C 0.21637 0.41808 0.08452 0.0
C280 C 0.20398 0.4487 0.14184 0.0
H281 H 0.29982 0.42552 0.19218 0.0
H282 H 0.3073 0.48956 0.11197 0.0
H283 H 0.26382 0.49333 0.14064 0.0
H284 H 0.25708 0.49396 0.07729 0.0
H285 H 0.2779 0.50165 0.08667 0.0
H286 H 0.2941 0.45255 0.02821 0.0
H287 H 0.29346 0.47835 0.01874 0.0
H288 H 0.27595 0.46467 0.00409 0.0
H289 H 0.24637 0.41263 0.32806 0.0
H290 H 0.19559 0.41075 0.27876 0.0
H291 H 0.20733 0.4164 0.1907 0.0
H292 H 0.26892 0.39222 0.24047 0.0
H293 H 0.28555 0.40713 0.2521 0.0
H294 H 0.28131 0.40202 0.1865 0.0
H295 H 0.25604 0.45226 0.27077 0.0
H296 H 0.2788 0.44573 0.25621 0.0
H297 H 0.26695 0.43406 0.30735 0.0
H298 H 0.325 0.44211 0.20551 0.0
C299 C 0.30083 0.43964 0.17632 0.0
C300 C 0.96983 0.25139 0.34896 0.0
C301 C 0.96981 0.23171 0.36223 0.0
C302 C 0.9787 0.21738 0.32721 0.0
C303 C 0.98779 0.24215 0.26751 0.0
C304 C 0.97923 0.25631 0.30181 0.0
C305 C 0.9813 0.27652 0.28182 0.0
H306 H 0.04229 0.32672 0.16874 0.0
C307 C 0.99624 0.25178 0.22213 0.0
C308 C 0.99287 0.27195 0.23018 0.0
H309 H 0.9954 0.34839 0.26679 0.0
H310 H 0.98222 0.31878 0.24949 0.0
H311 H 0.04468 0.27765 0.19534 0.0
H312 H 0.01642 0.29933 0.07007 0.0
H313 H 0.03845 0.28785 0.05803 0.0
H314 H 0.03478 0.31223 0.08109 0.0
H315 H 0.0556 0.29257 0.14739 0.0
H316 H 0.05018 0.26884 0.12916 0.0
C317 C 0.99013 0.28814 0.32127 0.0
C318 C 0.96316 0.28587 0.27325 0.0
C319 C 0.02688 0.21077 0.07063 0.0
C320 C 0.03007 0.21531 0.01779 0.0
C321 C 0.03015 0.23515 0.0046 0.0
C322 C 0.02642 0.25001 0.04341 0.0
C323 C 0.0231 0.245 0.09579 0.0
C324 C 0.02237 0.22565 0.10807 0.0
C325 C 0.01236 0.22316 0.16061 0.0
C326 C 1.00697 0.24416 0.17709 0.0
C327 C 0.01455 0.2568 0.14109 0.0
C328 C 0.02509 0.21332 0.19578 0.0
C329 C 0.99643 0.21168 0.15355 0.0
C330 C 0.02926 0.32492 0.18682 0.0
C331 C 0.0201 0.33946 0.22096 0.0
C332 C 1.00285 0.33716 0.24178 0.0
C333 C 0.99541 0.3199 0.2333 0.0
C334 C 1.00539 0.30474 0.20463 0.0
C335 C 0.02125 0.30786 0.1775 0.0
C336 C 0.02795 0.29088 0.14069 0.0
C337 C 0.0138 0.27694 0.15369 0.0
C338 C 1.00178 0.28463 0.19547 0.0
C339 C 0.04565 0.28198 0.15398 0.0
C340 C 0.02935 0.29786 0.08425 0.0
H341 H 0.99415 0.21081 0.25557 0.0
H342 H 0.96304 0.26266 0.37517 0.0
H343 H 0.95559 0.27513 0.25565 0.0
H344 H 0.96386 0.298 0.24598 0.0
H345 H 0.95569 0.29124 0.31074 0.0
H346 H 1.00451 0.28594 0.3129 0.0
H347 H 0.98659 0.28365 0.36189 0.0
H348 H 0.98603 0.30387 0.32193 0.0
H349 H 0.02629 0.19584 0.08256 0.0
H350 H 0.03177 0.2392 0.9642 0.0
H351 H 0.02436 0.2648 0.03154 0.0
H352 H 0.03809 0.21897 0.18803 0.0
H353 H 0.02685 0.19733 0.18853 0.0
H354 H 0.02097 0.21633 0.23763 0.0
H355 H 0.9921 0.21402 0.1146 0.0
H356 H 0.9848 0.21651 0.18097 0.0
H357 H 0.99954 0.1958 0.15737 0.0
H358 H 0.97863 0.20209 0.33612 0.0
C359 C 0.98766 0.22247 0.28017 0.0
C360 C 0.312 0.00264 0.0699 0.0
C361 C 0.33022 0.99829 0.05899 0.0
C362 C 0.33924 0.98876 0.09629 0.0
C363 C 0.31253 0.98748 0.15407 0.0
C364 C 0.30336 0.99697 0.11803 0.0
C365 C 0.28407 0.9999 0.13805 0.0
H366 H 0.21965 0.98015 0.33226 0.0
C367 C 0.30027 0.98299 0.19939 0.0
C368 C 0.28335 0.98995 0.19073 0.0
H369 H 0.21237 0.01446 0.19761 0.0
H370 H 0.24358 0.00958 0.16803 0.0
H371 H 0.24691 0.94702 0.27722 0.0
H372 H 0.25091 1.0006 0.359 0.0
H373 H 0.26759 0.98442 0.37694 0.0
H374 H 0.24533 0.97896 0.39218 0.0
H375 H 0.24183 0.94999 0.34644 0.0
H376 H 0.26354 0.94231 0.31647 0.0
C377 C 0.27385 0.98961 0.10015 0.0
C378 C 0.27878 0.02193 0.14438 0.0
C379 C 0.32446 0.94962 0.35147 0.0
C380 C 0.31671 0.94305 0.39906 0.0
C381 C 0.2985 0.94404 0.40919 0.0
C382 C 0.28814 0.95226 0.37312 0.0
C383 C 0.29611 0.95947 0.32636 0.0
C384 C 0.31397 0.95768 0.31589 0.0
C385 C 0.32025 0.96554 0.26392 0.0
C386 C 0.3032 0.97312 0.24558 0.0
C387 C 0.2892 0.96962 0.28229 0.0
C388 C 0.32961 0.94828 0.22925 0.0
C389 C 0.33172 0.98225 0.27318 0.0
C390 C 0.22466 0.98642 0.29594 0.0
C391 C 0.21352 0.99734 0.26681 0.0
C392 C 0.22072 0.00582 0.22062 0.0
C393 C 0.23879 0.00298 0.20359 0.0
C394 C 0.24977 0.99188 0.23365 0.0
C395 C 0.24245 0.98408 0.2793 0.0
C396 C 0.25557 0.97386 0.30916 0.0
C397 C 0.27211 0.97635 0.27401 0.0
C398 C 0.26897 0.98673 0.22902 0.0
C399 C 0.25181 0.95218 0.31307 0.0
C400 C 0.25485 0.98482 0.36226 0.0
H401 H 0.33844 0.97626 0.16975 0.0
H402 H 0.30478 0.01005 0.04177 0.0
H403 H 0.28839 0.02923 0.16441 0.0
H404 H 0.26614 0.02522 0.16834 0.0
H405 H 0.27819 0.02867 0.10587 0.0
H406 H 0.27956 0.97438 0.092 0.0
H407 H 0.27426 0.99726 0.06262 0.0
H408 H 0.26014 0.98884 0.11599 0.0
H409 H 0.33846 0.94865 0.34226 0.0
H410 H 0.2923 0.939 0.44567 0.0
H411 H 0.27434 0.95295 0.38349 0.0
H412 H 0.3252 0.93406 0.24259 0.0
H413 H 0.34389 0.94745 0.22966 0.0
H414 H 0.32672 0.94908 0.18851 0.0
H415 H 0.32638 0.99085 0.30908 0.0
H416 H 0.33221 0.99298 0.24193 0.0
H417 H 0.34517 0.97645 0.27789 0.0
H418 H 0.35319 0.98541 0.08878 0.0
C419 C 0.33059 0.9834 0.14341 0.0
C420 C 0.50499 0.29142 0.09887 0.0
C421 C 0.50846 0.31088 0.08881 0.0
C422 C 0.51777 0.3207 0.12239 0.0
C423 C 0.51995 0.2924 0.17581 0.0
C424 C 0.51078 0.28247 0.14321 0.0
C425 C 0.50811 0.26212 0.16246 0.0
H426 H 0.51886 0.19656 0.35517 0.0
C427 C 0.5241 0.27961 0.21844 0.0
C428 C 0.5172 0.26172 0.21158 0.0
H429 H 0.49353 0.18747 0.21903 0.0
H430 H 0.50022 0.21964 0.18849 0.0
H431 H 0.55111 0.2139 0.29632 0.0
H432 H 0.50359 0.24036 0.37971 0.0
H433 H 0.52044 0.25329 0.39775 0.0
H434 H 0.5204 0.22775 0.41111 0.0
H435 H 0.54756 0.21526 0.36601 0.0
H436 H 0.55673 0.23454 0.32834 0.0
C437 C 0.5172 0.24725 0.12072 0.0
C438 C 0.48843 0.26041 0.17497 0.0
C439 C 0.55633 0.30657 0.35776 0.0
C440 C 0.56153 0.29911 0.40416 0.0
C441 C 0.55874 0.27971 0.41652 0.0
C442 C 0.55052 0.26815 0.38379 0.0
C443 C 0.54492 0.27609 0.33831 0.0
C444 C 0.54812 0.2949 0.32576 0.0
C445 C 0.54112 0.30117 0.27667 0.0
C446 C 0.53311 0.28298 0.26155 0.0
C447 C 0.53526 0.26844 0.29782 0.0
C448 C 0.55672 0.30561 0.23665 0.0
C449 C 0.52719 0.31857 0.29061 0.0
C450 C 0.51453 0.20153 0.31904 0.0
C451 C 0.50534 0.18968 0.29011 0.0
C452 C 0.50049 0.19646 0.24232 0.0
C453 C 0.50433 0.21512 0.22482 0.0
C454 C 0.51327 0.22697 0.2552 0.0
C455 C 0.51837 0.21981 0.3011 0.0
C456 C 0.52822 0.23359 0.32832 0.0
C457 C 0.52809 0.25049 0.292 0.0
C458 C 0.51921 0.24688 0.24904 0.0
C459 C 0.54685 0.2239 0.33039 0.0
C460 C 0.5178 0.23903 0.38223 0.0
H461 H 0.53057 0.3201 0.18904 0.0
H462 H 0.49784 0.28356 0.07344 0.0
H463 H 0.48208 0.27332 0.19821 0.0
H464 H 0.48544 0.24762 0.19832 0.0
H465 H 0.48226 0.25958 0.13867 0.0
H466 H 0.53032 0.25147 0.10577 0.0
H467 H 0.5096 0.24653 0.08729 0.0
H468 H 0.51924 0.23252 0.13607 0.0
H469 H 0.55784 0.32154 0.34749 0.0
H470 H 0.56268 0.27356 0.45191 0.0
H471 H 0.54853 0.2536 0.39578 0.0
H472 H 0.56859 0.29605 0.24208 0.0
H473 H 0.55984 0.32091 0.24081 0.0
H474 H 0.55462 0.3027 0.19597 0.0
H475 H 0.52078 0.31778 0.33125 0.0
H476 H 0.51637 0.31874 0.26669 0.0
H477 H 0.53302 0.33268 0.28707 0.0
H478 H 0.52067 0.33558 0.11506 0.0
C479 C 0.52355 0.31162 0.16542 0.0
Dy480 Dy 0.01117 0.01289 0.6388 0.0
Dy481 Dy 0.03499 0.99418 0.7241 0.0
C482 C 0.05318 0.00409 0.6097 0.0
O483 O 0.01935 0.98238 0.61142 0.0
O484 O 0.02065 0.97072 0.69254 0.0
O485 O 1.00632 0.03436 0.58169 0.0
O486 O 0.98808 0.01274 0.60017 0.0
O487 O 0.00921 0.00364 0.7692 0.0
O488 O 0.9923 0.00278 0.70352 0.0
O489 O 0.04005 0.02552 0.72072 0.0
O490 O 0.01407 0.03695 0.69493 0.0
O491 O 0.04605 0.99619 0.79626 0.0
O492 O 0.04878 0.96884 0.75315 0.0
C493 C 0.01948 0.96775 0.64304 0.0
O494 O 0.03849 0.01337 0.59968 0.0
O495 O 0.0544 0.99437 0.65275 0.0
C496 C 0.97681 0.04431 0.58179 0.0
C497 C 0.95267 0.0772 0.58507 0.0
C498 C 0.9626 0.07366 0.62629 0.0
C499 C 0.97457 0.05731 0.62468 0.0
C500 C 0.96614 0.04704 0.54239 0.0
C501 C 0.9541 0.06332 0.5441 0.0
C502 C 0.99106 0.0288 0.57612 0.0
C503 C 0.99395 0.0029 0.75334 0.0
C504 C 0.02816 0.03984 0.71595 0.0
C505 C 0.03872 0.96811 0.84234 0.0
C506 C 0.01256 0.94969 0.90271 0.0
C507 C 0.01213 0.97002 0.90298 0.0
C508 C 0.02513 0.97916 0.87341 0.0
C509 C 0.03995 0.94775 0.84582 0.0
C510 C 0.02698 0.9386 0.87595 0.0
C511 C 0.04875 0.97731 0.79852 0.0
H512 H 0.96195 0.08412 0.65813 0.0
H513 H 0.98266 0.05531 0.65568 0.0
H514 H 0.96761 0.03702 0.5093 0.0
H515 H 0.94644 0.0655 0.51217 0.0
H516 H 1.00129 0.97885 0.92416 0.0
H517 H 0.02376 0.99489 0.87204 0.0
H518 H 0.05021 0.93889 0.82218 0.0
H519 H 0.02761 0.92285 0.87532 0.0
Dy520 Dy 0.52061 0.98195 0.64712 0.0
Dy521 Dy 0.52906 0.01708 0.72228 0.0
C522 C 0.51808 0.02559 0.61042 0.0
O523 O 0.54677 0.98981 0.61186 0.0
O524 O 0.55508 0.00394 0.68432 0.0
O525 O 0.51222 0.97072 0.57693 0.0
O526 O 0.52042 0.951 0.63484 0.0
O527 O 0.52495 0.99151 0.77299 0.0
O528 O 0.53535 0.96919 0.70929 0.0
O529 O 0.49999 0.01797 0.7343 0.0
O530 O 0.49683 0.98696 0.70594 0.0
O531 O 0.54167 0.02681 0.78618 0.0
O532 O 0.52671 0.04766 0.74377 0.0
C533 C 0.55885 0.9964 0.63693 0.0
O534 O 0.51003 0.00962 0.61341 0.0
O535 O 0.52934 0.02882 0.64245 0.0
C536 C 0.49749 0.94264 0.59132 0.0
C537 C 0.46707 0.92369 0.58846 0.0
C538 C 0.48205 0.91806 0.55365 0.0
C539 C 0.49718 0.92747 0.55516 0.0
C540 C 0.48271 0.94806 0.62671 0.0
C541 C 0.46763 0.93866 0.62538 0.0
C542 C 0.51318 0.95282 0.59235 0.0
C543 C 0.53143 0.97382 0.75881 0.0
C544 C 0.49047 0.00324 0.73099 0.0
C545 C 0.55332 0.05643 0.76859 0.0
C546 C 0.58659 0.07005 0.74939 0.0
C547 C 0.57991 0.06458 0.79966 0.0
C548 C 0.56344 0.05799 0.80914 0.0
C549 C 0.5594 0.06291 0.71902 0.0
C550 C 0.57581 0.06984 0.70964 0.0
C551 C 0.53808 0.04513 0.77664 0.0
H552 H 0.48201 0.90652 0.52495 0.0
H553 H 0.50855 0.92305 0.5278 0.0
H554 H 0.48276 0.95976 0.65485 0.0
H555 H 0.45624 0.9436 0.65206 0.0
H556 H 0.58778 0.06407 0.83129 0.0
H557 H 0.55908 0.05287 0.84747 0.0
H558 H 0.55186 0.06173 0.68684 0.0
H559 H 0.58031 0.07424 0.67073 0.0
Dy560 Dy 0.53632 0.51035 0.74051 0.0
Dy561 Dy 0.50687 0.49906 0.65974 0.0
C562 C 0.51343 0.47358 0.76104 0.0
O563 O 0.54627 0.4821 0.70133 0.0
O564 O 0.53369 0.48714 0.62698 0.0
O565 O 0.54249 0.51965 0.81565 0.0
O566 O 0.56293 0.51484 0.7508 0.0
O567 O 0.51335 0.52899 0.63952 0.0
O568 O 0.54 0.52901 0.66968 0.0
O569 O 0.4915 0.51852 0.72174 0.0
O570 O 0.51359 0.53219 0.7576 0.0
O571 O 0.48209 0.48953 0.64409 0.0
O572 O 0.50218 0.49362 0.58055 0.0
C573 C 0.54488 0.4774 0.65302 0.0
O574 O 0.52098 0.48773 0.78152 0.0
O575 O 0.50942 0.47401 0.71313 0.0
C576 C 0.57166 0.51293 0.83698 0.0
C577 C 0.59642 0.50738 0.90906 0.0
C578 C 0.57847 0.50923 0.92622 0.0
C579 C 0.56627 0.51205 0.89074 0.0
C580 C 0.58956 0.51038 0.81968 0.0
C581 C 0.60175 0.50758 0.85512 0.0
C582 C 0.5591 0.51943 0.80021 0.0
C583 C 0.52823 0.53645 0.64118 0.0
C584 C 0.49712 0.53145 0.75198 0.0
C585 C 0.47297 0.49491 0.55896 0.0
C586 C 0.44766 0.49913 0.48835 0.0
C587 C 0.4655 0.49883 0.47057 0.0
C588 C 0.47794 0.49671 0.50529 0.0
C589 C 0.45511 0.49587 0.57708 0.0
C590 C 0.44263 0.49807 0.54229 0.0
C591 C 0.48636 0.48907 0.59371 0.0
H592 H 0.5738 0.50938 0.96734 0.0
H593 H 0.55264 0.5143 0.90573 0.0
H594 H 0.59424 0.51122 0.77873 0.0
H595 H 0.61541 0.5059 0.84018 0.0
H596 H 0.4699 0.4999 0.42951 0.0
H597 H 0.49155 0.49577 0.48971 0.0
H598 H 0.45077 0.49418 0.61796 0.0
H599 H 0.42905 0.49806 0.5575 0.0
Dy600 Dy 0.03087 0.52172 0.65971 0.0
Dy601 Dy 0.01633 0.48685 0.73198 0.0
C602 C 0.03198 0.47849 0.61352 0.0
O603 O 1.00513 0.51866 0.632 0.0
O604 O 0.99286 0.50107 0.69982 0.0
O605 O 0.04092 0.53406 0.58701 0.0
O606 O 0.03904 0.55086 0.65874 0.0
O607 O 0.02007 0.51224 0.78286 0.0
O608 O 0.01267 0.53522 0.72626 0.0
O609 O 0.04516 0.48175 0.7317 0.0
O610 O 0.05156 0.51265 0.71002 0.0
O611 O 1.00268 0.47951 0.80546 0.0
O612 O 0.0117 0.45683 0.74771 0.0
C613 C 0.99172 0.51087 0.65677 0.0
O614 O 0.04055 0.49403 0.61514 0.0
O615 O 0.01977 0.47498 0.65081 0.0
C616 C 0.06541 0.54976 0.60268 0.0
C617 C 0.10106 0.53747 0.58928 0.0
C618 C 0.09208 0.54062 0.54581 0.0
C619 C 0.07437 0.54673 0.5525 0.0
C620 C 0.07492 0.54905 0.64557 0.0
C621 C 0.0926 0.5429 0.63888 0.0
C622 C 0.04641 0.54868 0.61082 0.0
C623 C 0.01437 0.53013 0.77393 0.0
C624 C 0.05596 0.49546 0.72824 0.0
C625 C 0.98345 0.45636 0.79394 0.0
C626 C 0.94707 0.46172 0.79832 0.0
C627 C 0.955 0.46124 0.84433 0.0
C628 C 0.97304 0.45848 0.8421 0.0
C629 C 0.9755 0.45421 0.74861 0.0
C630 C 0.95743 0.45661 0.75093 0.0
C631 C 1.00146 0.46163 0.79052 0.0
H632 H 0.09827 0.53653 0.50702 0.0
H633 H 0.06737 0.54721 0.51885 0.0
H634 H 0.06848 0.5515 0.68486 0.0
H635 H 0.09932 0.54093 0.67286 0.0
H636 H 0.94756 0.4651 0.88166 0.0
H637 H 0.9789 0.46019 0.87752 0.0
H638 H 0.9832 0.45251 0.71082 0.0
H639 H 0.95171 0.45628 0.71494 0.0
H640 H 0.19254 0.03137 0.28802 0.0
H641 H 0.16359 0.03502 0.3392 0.0
H642 H 0.16361 0.97262 0.34547 0.0
H643 H 0.19227 0.96897 0.29419 0.0
H644 H 0.13112 0.9909 0.33188 0.0
H645 H 0.15833 0.02474 0.4962 0.0
H646 H 0.16155 0.03685 0.43527 0.0
H647 H 0.17192 0.01286 0.44144 0.0
C648 C 0.18612 0.01847 0.29913 0.0
C649 C 0.19468 0.99989 0.28716 0.0
C650 C 0.16968 0.02055 0.32898 0.0
C651 C 0.16153 0.00408 0.34725 0.0
C652 C 0.16962 0.98556 0.33226 0.0
H653 H 0.08645 0.98794 0.61563 0.0
H654 H 0.11205 0.98869 0.55086 0.0
C655 C 0.186 0.98348 0.30281 0.0
C656 C 0.14514 0.00585 0.38431 0.0
H657 H 0.12847 0.02039 0.50855 0.0
C658 C 0.13049 0.99751 0.37034 0.0
C659 C 0.14438 0.01414 0.43495 0.0
C660 C 0.15989 0.02253 0.45328 0.0
C661 C 0.1152 0.99719 0.40545 0.0
C662 C 0.11439 0.00562 0.45593 0.0
C663 C 0.12901 0.01402 0.46984 0.0
C664 C 0.0987 0.00536 0.49538 0.0
C665 C 0.10022 0.98725 0.38872 0.0
C666 C 0.08263 0.01468 0.48629 0.0
C667 C 0.06794 0.01428 0.5233 0.0
C668 C 0.06892 0.00461 0.57056 0.0
C669 C 0.0851 0.99548 0.57978 0.0
C670 C 0.0998 0.99592 0.54274 0.0
H671 H 0.10433 0.97753 0.3541 0.0
H672 H 0.09421 0.97854 0.42069 0.0
H673 H 0.09017 0.99842 0.37849 0.0
H674 H 0.08146 0.02239 0.4506 0.0
H675 H 0.05578 0.02159 0.51473 0.0
H676 H 0.49043 0.18209 0.38713 0.0
H677 H 0.48971 0.15058 0.42854 0.0
H678 H 0.51053 0.12189 0.28259 0.0
H679 H 0.51169 0.1537 0.24104 0.0
H680 H 0.47515 0.11636 0.41487 0.0
H681 H 0.54722 0.10545 0.37643 0.0
H682 H 0.53532 0.1283 0.36556 0.0
H683 H 0.53602 0.10829 0.32008 0.0
C684 C 0.4946 0.16904 0.3636 0.0
C685 C 0.50134 0.17037 0.31099 0.0
C686 C 0.49414 0.15102 0.38731 0.0
C687 C 0.50043 0.13385 0.35908 0.0
C688 C 0.50595 0.13497 0.30548 0.0
H689 H 0.49762 0.02343 0.53132 0.0
H690 H 0.4927 0.04774 0.46519 0.0
C691 C 0.50642 0.15312 0.28159 0.0
C692 C 0.50244 0.11528 0.38744 0.0
H693 H 0.53316 0.08235 0.42725 0.0
C694 C 0.4878 0.10873 0.41702 0.0
C695 C 0.51899 0.10548 0.39083 0.0
C696 C 0.53533 0.11225 0.36194 0.0
C697 C 0.48931 0.0931 0.45103 0.0
C698 C 0.5059 0.08352 0.45501 0.0
C699 C 0.52044 0.08964 0.42406 0.0
C700 C 0.50877 0.06839 0.49439 0.0
C701 C 0.47327 0.08765 0.4844 0.0
C702 C 0.51971 0.07166 0.53218 0.0
C703 C 0.52266 0.05778 0.5696 0.0
C704 C 0.51474 0.04019 0.57026 0.0
C705 C 0.50383 0.03685 0.53221 0.0
C706 C 0.50094 0.05079 0.4945 0.0
H707 H 0.46222 0.09896 0.48453 0.0
H708 H 0.46929 0.07386 0.46905 0.0
H709 H 0.47589 0.08533 0.52511 0.0
H710 H 0.52592 0.0851 0.53299 0.0
H711 H 0.53114 0.06092 0.59818 0.0
H712 H 0.35231 0.45602 0.14667 0.0
H713 H 0.37452 0.46682 0.19691 0.0
H714 H 0.33784 0.51244 0.26936 0.0
H715 H 0.31552 0.50156 0.21906 0.0
H716 H 0.38946 0.50284 0.21478 0.0
H717 H 0.3503 0.47782 0.39143 0.0
H718 H 0.34611 0.47162 0.32657 0.0
H719 H 0.33941 0.49554 0.35368 0.0
C720 C 0.34918 0.46882 0.17184 0.0
C721 C 0.3322 0.47803 0.17863 0.0
C722 C 0.36186 0.4749 0.20088 0.0
C723 C 0.35779 0.49019 0.23782 0.0
C724 C 0.34124 0.50042 0.24169 0.0
H725 H 0.4152 0.51925 0.49663 0.0
H726 H 0.39362 0.51902 0.43534 0.0
C727 C 0.32855 0.4944 0.21233 0.0
C728 C 0.37037 0.49411 0.27506 0.0
H729 H 0.37687 0.48988 0.40281 0.0
C730 C 0.38667 0.50015 0.25596 0.0
C731 C 0.36679 0.49056 0.32888 0.0
C732 C 0.34978 0.48338 0.35158 0.0
C733 C 0.39941 0.50274 0.28905 0.0
C734 C 0.39601 0.49868 0.34268 0.0
C735 C 0.37957 0.49302 0.36187 0.0
C736 C 0.40946 0.49945 0.37918 0.0
C737 C 0.41633 0.51005 0.26614 0.0
C738 C 0.42556 0.48836 0.36875 0.0
C739 C 0.43793 0.48851 0.4037 0.0
C740 C 0.43451 0.49955 0.45053 0.0
C741 C 0.4183 0.5105 0.46119 0.0
C742 C 0.40595 0.51043 0.426 0.0
H743 H 0.41476 0.51846 0.2305 0.0
H744 H 0.42158 0.51943 0.29446 0.0
H745 H 0.42598 0.49745 0.25505 0.0
H746 H 0.42846 0.47923 0.33396 0.0
H747 H 0.45005 0.47952 0.39456 0.0
H748 H 0.04653 0.33825 0.28009 0.0
H749 H 0.05308 0.36477 0.33638 0.0
H750 H 0.01836 0.40475 0.26354 0.0
H751 H 0.01128 0.37805 0.20881 0.0
H752 H 0.06418 0.40192 0.33247 0.0
H753 H 0.99445 0.40388 0.41112 0.0
H754 H 1.00486 0.3853 0.3655 0.0
H755 H 0.99814 0.40902 0.34321 0.0
C756 C 0.04084 0.35286 0.27478 0.0
C757 C 0.0284 0.35616 0.24027 0.0
C758 C 0.0445 0.368 0.30715 0.0
C759 C 0.03584 0.38665 0.30523 0.0
C760 C 0.02487 0.39038 0.26664 0.0
H761 H 0.04827 0.4849 0.51561 0.0
H762 H 0.05074 0.4633 0.43856 0.0
C763 C 0.02099 0.3752 0.23494 0.0
C764 C 0.03645 0.40126 0.34764 0.0
H765 H 0.0108 0.42642 0.44708 0.0
C766 C 0.05252 0.40737 0.35743 0.0
C767 C 0.02126 0.40809 0.38092 0.0
C768 C 1.00372 0.40112 0.37513 0.0
C769 C 0.05378 0.42008 0.39959 0.0
C770 C 0.03853 0.42711 0.43226 0.0
C771 C 0.02249 0.42113 0.42198 0.0
C772 C 0.03872 0.43977 0.47921 0.0
C773 C 0.07148 0.42531 0.4098 0.0
C774 C 0.0311 0.43385 0.52772 0.0
C775 C 0.02942 0.44625 0.57139 0.0
C776 C 0.03543 0.46487 0.56785 0.0
C777 C 0.04363 0.47059 0.51972 0.0
C778 C 0.04513 0.4582 0.47567 0.0
H779 H 0.08201 0.41499 0.38975 0.0
H780 H 0.0735 0.44006 0.39508 0.0
H781 H 0.07258 0.42546 0.4521 0.0
H782 H 0.02608 0.41971 0.5316 0.0
H783 H 0.02314 0.4413 0.60786 0.0
H784 H 0.85677 0.95812 0.03133 0.0
H785 H 0.88639 0.96077 0.99001 0.0
H786 H 0.88394 0.01979 0.04896 0.0
H787 H 0.85413 0.01712 0.09005 0.0
H788 H 0.89178 0.01753 0.94426 0.0
H789 H 0.93492 0.96225 0.02966 0.0
H790 H 0.91658 0.95212 0.00789 0.0
H791 H 0.91327 0.96993 0.06037 0.0
C792 C 0.86288 0.97132 0.03762 0.0
C793 C 0.85324 0.98729 0.06479 0.0
C794 C 0.87983 0.97287 0.01373 0.0
C795 C 0.88756 0.99046 0.01637 0.0
C796 C 0.87835 0.00602 0.04649 0.0
H797 H 0.99204 0.00601 0.85961 0.0
H798 H 0.96677 0.00369 0.92445 0.0
C799 C 0.86138 0.00443 0.07062 0.0
C800 C 0.904 0.9934 0.98206 0.0
H801 H 0.94597 0.97456 0.94717 0.0
C802 C 0.90365 0.00817 0.94524 0.0
C803 C 0.91961 0.98131 0.98317 0.0
C804 C 0.9212 0.96564 0.02275 0.0
C805 C 0.91816 0.01079 0.90872 0.0
C806 C 0.9335 0.99815 0.90827 0.0
C807 C 0.93411 0.9839 0.94645 0.0
C808 C 0.94896 0.99942 0.8684 0.0
C809 C 0.91693 0.02726 0.87126 0.0
C810 C 0.94757 0.99751 0.81499 0.0
C811 C 0.96207 0.99879 0.77765 0.0
C812 C 0.97839 1.00185 0.79279 0.0
C813 C 0.97976 0.00357 0.84633 0.0
C814 C 0.96527 0.00227 0.88362 0.0
H815 H 0.90666 0.03883 0.88631 0.0
H816 H 0.92946 0.03385 0.86347 0.0
H817 H 0.91356 0.02158 0.83389 0.0
H818 H 0.93527 0.99484 0.80209 0.0
H819 H 0.9605 0.99722 0.73692 0.0
H820 H 0.54618 0.81385 0.98349 0.0
H821 H 0.54925 0.84455 0.93895 0.0
H822 H 0.52948 0.87624 0.08141 0.0
H823 H 0.52621 0.84532 0.12628 0.0
H824 H 0.51208 0.88744 0.99711 0.0
H825 H 0.58298 0.8864 0.94122 0.0
H826 H 0.57457 0.8642 0.92343 0.0
H827 H 0.57354 0.87108 0.99103 0.0
C828 C 0.54282 0.82736 0.00562 0.0
C829 C 0.53596 0.82718 0.05839 0.0
C830 C 0.54468 0.84492 0.98017 0.0
C831 C 0.53977 0.86275 0.00685 0.0
C832 C 0.53347 0.86266 0.0601 0.0
H833 H 0.52426 0.97774 0.86512 0.0
H834 H 0.52694 0.95237 0.92961 0.0
C835 C 0.53172 0.84501 0.08579 0.0
C836 C 0.53967 0.88119 0.97756 0.0
H837 H 0.56503 0.90741 0.89251 0.0
C838 C 0.5237 0.89203 0.97498 0.0
C839 C 0.55482 0.88714 0.94848 0.0
C840 C 0.57247 0.8767 0.95151 0.0
C841 C 0.52232 0.90802 0.94213 0.0
C842 C 0.53739 0.91357 0.91166 0.0
C843 C 0.55346 0.90313 0.91564 0.0
C844 C 0.53659 0.92938 0.87319 0.0
C845 C 0.50461 0.91822 0.93839 0.0
C846 C 0.54165 0.9251 0.82011 0.0
C847 C 0.54024 0.93958 0.78318 0.0
C848 C 0.53381 0.95875 0.79849 0.0
C849 C 0.52917 0.96313 0.85186 0.0
C850 C 0.5306 0.94861 0.88882 0.0
H851 H 0.49401 0.90956 0.95535 0.0
H852 H 0.5033 0.93235 0.96003 0.0
H853 H 0.50285 0.92118 0.89728 0.0
H854 H 0.54636 0.91041 0.80707 0.0
H855 H 0.54397 0.93565 0.74251 0.0
H856 H 0.72073 0.48829 0.2123 0.0
H857 H 0.69622 0.4812 0.16561 0.0
H858 H 0.67846 0.5422 0.17168 0.0
H859 H 0.70257 0.54919 0.2189 0.0
H860 H 0.65118 0.51969 0.18423 0.0
H861 H 0.6975 0.49355 0.01214 0.0
H862 H 0.6998 0.48046 0.07067 0.0
H863 H 0.70432 0.50554 0.0674 0.0
C864 C 0.71126 0.50005 0.20507 0.0
C865 C 0.71359 0.5193 0.21925 0.0
C866 C 0.6974 0.49605 0.17765 0.0
C867 C 0.68566 0.51123 0.1638 0.0
C868 C 0.68733 0.53023 0.18139 0.0
H869 H 0.62703 0.52473 0.90373 0.0
H870 H 0.64793 0.52394 0.96668 0.0
C871 C 0.70111 0.53421 0.20858 0.0
C872 C 0.67233 0.50786 0.12838 0.0
H873 H 0.66778 0.49407 0.00373 0.0
C874 C 0.65479 0.51389 0.14494 0.0
C875 C 0.67701 0.50062 0.07664 0.0
C876 C 0.69568 0.49481 0.05528 0.0
C877 C 0.64193 0.51312 0.1113 0.0
C878 C 0.64661 0.50582 0.05963 0.0
C879 C 0.66411 0.49954 0.04332 0.0
C880 C 0.63382 0.50569 0.02093 0.0
C881 C 0.62356 0.52093 0.13081 0.0
C882 C 0.61892 0.49544 0.02966 0.0
C883 C 0.60689 0.49582 0.99342 0.0
C884 C 0.60951 0.50631 0.94721 0.0
C885 C 0.62461 0.51625 0.93828 0.0
C886 C 0.63659 0.5159 0.97453 0.0
H887 H 0.62293 0.53023 0.16643 0.0
H888 H 0.61766 0.52956 0.10061 0.0
H889 H 0.61562 0.50857 0.14049 0.0
H890 H 0.61663 0.48706 0.06445 0.0
H891 H 0.59559 0.48773 1.00143 0.0
H892 H 0.00844 0.67435 0.11096 0.0
H893 H 0.01829 0.64464 0.05847 0.0
H894 H 0.96516 0.63122 0.06081 0.0
H895 H 0.95542 0.66014 0.11494 0.0
H896 H 0.98562 0.59884 0.06582 0.0
H897 H 0.01398 0.6434 0.90547 0.0
H898 H 0.02338 0.64544 0.96491 0.0
H899 H 1.00105 0.65414 0.9628 0.0
C900 C 0.99894 0.66477 0.10136 0.0
C901 C 0.98112 0.66979 0.11627 0.0
C902 C 1.00455 0.64794 0.07072 0.0
C903 C 0.99243 0.63598 0.05417 0.0
C904 C 0.97478 0.64027 0.07239 0.0
H905 H 0.99768 0.56668 0.77334 0.0
H906 H 0.9931 0.59129 0.84358 0.0
C907 C 0.96921 0.65691 0.10318 0.0
C908 C 0.99767 0.61969 0.01554 0.0
H909 H 0.01569 0.60963 0.89 0.0
C910 C 0.99232 0.60116 0.02749 0.0
C911 C 1.00615 0.62277 0.96512 0.0
C912 C 0.01135 0.64253 0.94845 0.0
C913 C 0.99484 0.58581 0.99032 0.0
C914 C 1.00345 0.58886 0.94007 0.0
C915 C 0.00915 0.60725 0.9285 0.0
C916 C 1.00599 0.57352 0.89806 0.0
C917 C 0.98754 0.56677 0.00467 0.0
C918 C 0.01481 0.55529 0.905 0.0
C919 C 0.0172 0.54107 0.86509 0.0
C920 C 0.01114 0.54491 0.81698 0.0
C921 C 1.00249 0.56323 0.8099 0.0
C922 C 0.99991 0.57734 0.85004 0.0
H923 H 0.97727 0.56857 0.03855 0.0
H924 H 0.98199 0.56037 0.97158 0.0
H925 H 0.99809 0.55633 0.01537 0.0
H926 H 0.02006 0.55212 0.94103 0.0
H927 H 0.02412 0.5272 0.87163 0.0
H928 H 0.98276 0.20636 0.4293 0.0
H929 H 0.96657 0.19012 0.49928 0.0
H930 H 0.92043 0.22748 0.48085 0.0
H931 H 0.93664 0.24321 0.40789 0.0
H932 H 0.94725 0.19764 0.59131 0.0
H933 H 0.9045 0.17586 0.44685 0.0
H934 H 0.92317 0.18875 0.42627 0.0
H935 H 0.90451 0.2011 0.46456 0.0
C936 C 0.96921 0.21128 0.44048 0.0
C937 C 0.9608 0.22558 0.41218 0.0
C938 C 0.95996 0.20214 0.48097 0.0
C939 C 0.94212 0.20719 0.49457 0.0
C940 C 0.93407 0.22295 0.47009 0.0
H941 H 0.9319 0.09943 0.66186 0.0
H942 H 0.92042 0.13355 0.65593 0.0
C943 C 0.94336 0.23205 0.42881 0.0
C944 C 0.9322 0.19374 0.5284 0.0
H945 H 0.90996 0.15418 0.51164 0.0
C946 C 0.93856 0.18843 0.5751 0.0
C947 C 0.92046 0.18205 0.5079 0.0
C948 C 0.91271 0.18711 0.45867 0.0
C949 C 0.93622 0.17007 0.59617 0.0
C950 C 0.92665 0.15715 0.57079 0.0
C951 C 0.91759 0.16401 0.53018 0.0
C952 C 0.93017 0.13577 0.57453 0.0
C953 C 0.94589 0.1638 0.64101 0.0
C954 C 0.93859 0.12542 0.53024 0.0
C955 C 0.94491 0.10606 0.53332 0.0
C956 C 0.94304 0.09652 0.58091 0.0
C957 C 0.93371 0.1065 0.62477 0.0
C958 C 0.92719 0.12598 0.6215 0.0
H959 H 0.95346 0.17539 0.65441 0.0
H960 H 0.93652 0.15996 0.67427 0.0
H961 H 0.95496 0.15073 0.62953 0.0
H962 H 0.94119 0.13265 0.4936 0.0
H963 H 0.95225 0.09899 0.49897 0.0
H964 H 0.31562 0.90928 0.45358 0.0
H965 H 0.33618 0.8968 0.51286 0.0
H966 H 0.36322 0.94863 0.49091 0.0
H967 H 0.34284 0.96108 0.43269 0.0
H968 H 0.37167 0.88917 0.48423 0.0
H969 H 0.36004 0.94236 0.64744 0.0
H970 H 0.34412 0.93921 0.60354 0.0
H971 H 0.36125 0.95487 0.58714 0.0
C972 C 0.32577 0.9181 0.46246 0.0
C973 C 0.32778 0.93605 0.43848 0.0
C974 C 0.33746 0.91098 0.49616 0.0
C975 C 0.35101 0.92195 0.50695 0.0
C976 C 0.35261 0.94013 0.48416 0.0
H977 H 0.45332 0.91658 0.49933 0.0
H978 H 0.42398 0.90875 0.49115 0.0
C979 C 0.34111 0.94713 0.45038 0.0
C980 C 0.36488 0.9139 0.53669 0.0
H981 H 0.3905 0.92943 0.62318 0.0
C982 C 0.37554 0.89753 0.5159 0.0
C983 C 0.36968 0.92442 0.57897 0.0
C984 C 0.35802 0.94106 0.60589 0.0
C985 C 0.39194 0.89298 0.53187 0.0
C986 C 0.39783 0.90537 0.56858 0.0
C987 C 0.38621 0.92014 0.59414 0.0
C988 C 0.41651 0.9058 0.57383 0.0
C989 C 0.40317 0.87563 0.50703 0.0
C990 C 0.42221 0.90673 0.62304 0.0
C991 C 0.43904 0.91144 0.62783 0.0
C992 C 0.45042 0.91537 0.58347 0.0
C993 C 0.445 0.91332 0.53417 0.0
C994 C 0.42819 0.90871 0.52944 0.0
H995 H 0.39509 0.86368 0.4992 0.0
H996 H 0.40989 0.87982 0.4691 0.0
H997 H 0.41305 0.87013 0.53194 0.0
H998 H 0.41338 0.90469 0.65784 0.0
H999 H 0.44295 0.91273 0.66633 0.0
H1000 H 0.58407 0.32703 0.38226 0.0
H1001 H 0.58825 0.35415 0.43895 0.0
H1002 H 0.55859 0.32817 0.56735 0.0
H1003 H 0.55345 0.30154 0.50995 0.0
H1004 H 0.54459 0.36264 0.55072 0.0
H1005 H 0.61446 0.36908 0.55379 0.0
H1006 H 0.6099 0.36672 0.48805 0.0
H1007 H 0.60632 0.34704 0.53207 0.0
C1008 C 0.57873 0.32688 0.42284 0.0
C1009 C 0.56811 0.31234 0.4413 0.0
C1010 C 0.58139 0.34226 0.45552 0.0
C1011 C 0.57381 0.3432 0.50757 0.0
C1012 C 0.56461 0.32772 0.52733 0.0
H1013 H 0.56466 0.45 0.70064 0.0
H1014 H 0.57433 0.41686 0.66857 0.0
C1015 C 0.56176 0.31243 0.49448 0.0
C1016 C 0.57254 0.36182 0.53754 0.0
H1017 H 0.59565 0.39956 0.56648 0.0
C1018 C 0.55583 0.37045 0.55524 0.0
C1019 C 0.58715 0.37209 0.54367 0.0
C1020 C 0.60546 0.36312 0.52884 0.0
C1021 C 0.55328 0.38943 0.57598 0.0
C1022 C 0.56777 0.40021 0.57817 0.0
C1023 C 0.58456 0.39131 0.56359 0.0
C1024 C 0.56532 0.421 0.59357 0.0
C1025 C 0.53501 0.39806 0.59399 0.0
C1026 C 0.55775 0.4344 0.561 0.0
C1027 C 0.55215 0.45329 0.57911 0.0
C1028 C 0.55407 0.45906 0.63012 0.0
C1029 C 0.56293 0.44601 0.66118 0.0
C1030 C 0.5685 0.42708 0.643 0.0
H1031 H 0.5258 0.38666 0.60054 0.0
H1032 H 0.53455 0.40676 0.63057 0.0
H1033 H 0.53055 0.4079 0.56385 0.0
H1034 H 0.55531 0.42991 0.52256 0.0
H1035 H 0.54551 0.463 0.55404 0.0
H1036 H 0.19161 0.39629 0.36349 0.0
H1037 H 0.17297 0.4117 0.43855 0.0
H1038 H 0.21084 0.45262 0.45487 0.0
H1039 H 0.22941 0.43748 0.38111 0.0
H1040 H 0.19036 0.44632 0.54968 0.0
H1041 H 0.15143 0.46297 0.38649 0.0
H1042 H 0.15504 0.43772 0.4013 0.0
H1043 H 0.17303 0.45088 0.37583 0.0
C1044 C 0.19623 0.40811 0.38431 0.0
C1045 C 0.2118 0.41593 0.36536 0.0
C1046 C 0.18559 0.41686 0.42724 0.0
C1047 C 0.19033 0.43366 0.4511 0.0
C1048 C 0.20689 0.43974 0.43683 0.0
H1049 H 0.1295 0.54033 0.51752 0.0
H1050 H 0.15311 0.51486 0.49379 0.0
C1051 C 0.21756 0.43096 0.39438 0.0
C1052 C 0.17713 0.44741 0.48141 0.0
H1053 H 0.1426 0.47959 0.46509 0.0
C1054 C 0.17973 0.45343 0.53168 0.0
C1055 C 0.16353 0.45695 0.45717 0.0
C1056 C 0.16059 0.45198 0.40213 0.0
C1057 C 0.16927 0.46907 0.55788 0.0
C1058 C 0.15594 0.47873 0.53301 0.0
C1059 C 0.153 0.47224 0.48368 0.0
C1060 C 0.14483 0.49588 0.55611 0.0
C1061 C 0.17296 0.47561 0.61085 0.0
C1062 C 0.13292 0.49402 0.60049 0.0
C1063 C 0.11951 0.50861 0.61427 0.0
C1064 C 0.11773 0.52515 0.58344 0.0
C1065 C 0.13052 0.52769 0.54166 0.0
C1066 C 0.144 0.51318 0.5282 0.0
H1067 H 0.18589 0.46945 0.61971 0.0
H1068 H 0.17235 0.49173 0.61378 0.0
H1069 H 0.16295 0.47071 0.64089 0.0
H1070 H 0.13313 0.48068 0.62203 0.0
H1071 H 0.10971 0.50612 0.64632 0.0
H1072 H 0.89571 0.85348 0.15059 0.0
H1073 H 0.90173 0.882 0.09851 0.0
H1074 H 0.9402 0.84667 0.99593 0.0
H1075 H 0.93449 0.8185 0.04728 0.0
H1076 H 0.93283 0.89439 0.09884 0.0
H1077 H 0.92306 0.88432 0.89427 0.0
H1078 H 0.91254 0.87026 0.94528 0.0
H1079 H 0.93421 0.86258 0.91497 0.0
C1080 C 0.90501 0.85167 0.11583 0.0
C1081 C 0.91483 0.83373 0.10379 0.0
C1082 C 0.90837 0.86798 0.08597 0.0
C1083 C 0.92143 0.86652 0.04327 0.0
C1084 C 0.9298 0.84817 0.02791 0.0
H1085 H 0.01172 0.91971 0.97032 0.0
H1086 H 0.9863 0.90324 0.00542 0.0
C1087 C 0.92648 0.83194 0.05766 0.0
C1088 C 0.9292 0.8841 0.02226 0.0
H1089 H 0.94885 0.90133 0.90928 0.0
C1090 C 0.93584 0.89629 0.05734 0.0
C1091 C 0.93301 0.88687 0.96824 0.0
C1092 C 0.92513 0.8754 0.9287 0.0
C1093 C 0.94759 0.90975 0.03982 0.0
C1094 C 0.953 0.91079 0.986 0.0
C1095 C 0.94501 0.90011 0.9507 0.0
C1096 C 0.96808 0.92132 0.96614 0.0
C1097 C 0.95475 0.92206 0.07921 0.0
C1098 C 0.96626 0.93665 0.93184 0.0
C1099 C 0.98069 0.94621 0.91237 0.0
C1100 C 0.99724 0.94021 0.92592 0.0
C1101 C 0.99908 0.92465 0.95962 0.0
C1102 C 0.98459 0.91535 0.97981 0.0
H1103 H 0.94554 0.9243 0.11549 0.0
H1104 H 0.967 0.91453 0.08941 0.0
H1105 H 0.95761 0.93648 0.06346 0.0
H1106 H 0.95368 0.94113 0.92004 0.0
H1107 H 0.979 0.95795 0.88563 0.0
H1108 H 0.73789 0.03759 0.86569 0.0
H1109 H 0.72379 0.04944 0.79125 0.0
H1110 H 0.67846 0.02039 0.84709 0.0
H1111 H 0.69286 0.00738 0.9185 0.0
H1112 H 0.68414 0.01833 0.7447 0.0
H1113 H 0.68838 0.09505 0.80862 0.0
H1114 H 0.70823 0.08022 0.78855 0.0
H1115 H 0.69494 0.07497 0.84754 0.0
C1116 C 0.72508 0.03335 0.86127 0.0
C1117 C 0.71632 0.0219 0.89875 0.0
C1118 C 0.71696 0.04036 0.81905 0.0
C1119 C 0.69987 0.0363 0.81431 0.0
C1120 C 0.69161 0.02389 0.84997 0.0
H1121 H 0.60717 0.0867 0.81314 0.0
H1122 H 0.63847 0.08176 0.80631 0.0
C1123 C 0.69977 0.01665 0.89135 0.0
C1124 C 0.68959 0.04583 0.77563 0.0
H1125 H 0.66707 0.08922 0.75673 0.0
C1126 C 0.68058 0.0339 0.74627 0.0
C1127 C 0.68538 0.06621 0.77665 0.0
C1128 C 0.69464 0.07994 0.80707 0.0
C1129 C 0.66565 0.04124 0.72531 0.0
C1130 C 0.66022 0.06141 0.73141 0.0
C1131 C 0.67101 0.07375 0.75315 0.0
C1132 C 0.6419 0.06898 0.72836 0.0
C1133 C 0.65498 0.02685 0.70226 0.0
C1134 C 0.63327 0.06494 0.68553 0.0
C1135 C 0.61511 0.06664 0.69063 0.0
C1136 C 0.60533 0.07335 0.73792 0.0
C1137 C 0.61418 0.08049 0.77723 0.0
C1138 C 0.63222 0.07799 0.77293 0.0
H1139 H 0.65997 0.01151 0.70741 0.0
H1140 H 0.64127 0.02874 0.72048 0.0
H1141 H 0.65536 0.02916 0.65991 0.0
H1142 H 0.64049 0.05905 0.64962 0.0
H1143 H 0.60889 0.06125 0.65889 0.0
H1144 H 0.4806 0.68813 0.9029 0.0
H1145 H 0.47307 0.66 0.85597 0.0
H1146 H 0.42841 0.65545 0.97016 0.0
H1147 H 0.43658 0.68321 0.01888 0.0
H1148 H 0.44534 0.62301 0.96155 0.0
H1149 H 0.44138 0.64414 0.76049 0.0
H1150 H 0.46127 0.65203 0.7773 0.0
H1151 H 0.44084 0.66218 0.8119 0.0
C1152 C 0.46885 0.68154 0.91702 0.0
C1153 C 0.45917 0.68779 0.96443 0.0
C1154 C 0.46442 0.66551 0.88985 0.0
C1155 C 0.44994 0.65568 0.90879 0.0
C1156 C 0.43957 0.66279 0.95451 0.0
H1157 H 0.46483 0.54524 0.72821 0.0
H1158 H 0.44653 0.57365 0.76849 0.0
C1159 C 0.44423 0.67862 0.98232 0.0
C1160 C 0.44778 0.63624 0.8862 0.0
H1161 H 0.45571 0.61068 0.77095 0.0
C1162 C 0.44697 0.62044 0.91981 0.0
C1163 C 0.44931 0.63258 0.83185 0.0
C1164 C 0.44802 0.64874 0.79358 0.0
C1165 C 0.44989 0.60123 0.90051 0.0
C1166 C 0.45428 0.59775 0.84646 0.0
C1167 C 0.45284 0.61335 0.81258 0.0
C1168 C 0.46364 0.57913 0.82577 0.0
C1169 C 0.44932 0.58488 0.93856 0.0
C1170 C 0.47924 0.57281 0.84466 0.0
C1171 C 0.48961 0.55681 0.8219 0.0
C1172 C 0.48474 0.54677 0.7793 0.0
C1173 C 0.46884 0.55263 0.76125 0.0
C1174 C 0.45842 0.56885 0.78408 0.0
H1175 H 0.43922 0.58858 0.97217 0.0
H1176 H 0.44661 0.57105 0.92004 0.0
H1177 H 0.462 0.58265 0.95395 0.0
H1178 H 0.48382 0.58078 0.87577 0.0
H1179 H 0.50174 0.55266 0.83691 0.0
H1180 H 0.82336 0.59188 0.96372 0.0
H1181 H 0.8406 0.57609 0.88663 0.0
H1182 H 0.87571 0.54784 0.98395 0.0
H1183 H 0.85845 0.56227 0.06045 0.0
H1184 H 0.89098 0.56329 0.88161 0.0
H1185 H 0.83818 0.51405 0.87416 0.0
H1186 H 0.83338 0.54011 0.87615 0.0
H1187 H 0.83963 0.52801 0.93259 0.0
C1188 C 0.83487 0.5825 0.96878 0.0
C1189 C 0.8392 0.5782 0.01894 0.0
C1190 C 0.84473 0.57359 0.92457 0.0
C1191 C 0.85923 0.56064 0.92996 0.0
C1192 C 0.86453 0.55783 0.97914 0.0
H1193 H 0.91851 0.46027 0.87214 0.0
H1194 H 0.89395 0.48504 0.88656 0.0
C1195 C 0.85463 0.56638 0.0231 0.0
C1196 C 0.86801 0.54799 0.88661 0.0
H1197 H 0.86613 0.50247 0.8357 0.0
C1198 C 0.88546 0.5503 0.86968 0.0
C1199 C 0.86067 0.53104 0.87189 0.0
C1200 C 0.84193 0.52798 0.88945 0.0
C1201 C 0.89625 0.53528 0.84242 0.0
C1202 C 0.88922 0.51763 0.83129 0.0
C1203 C 0.87141 0.51602 0.84427 0.0
C1204 C 0.90074 0.4999 0.81487 0.0
C1205 C 0.91539 0.53776 0.83023 0.0
C1206 C 0.91192 0.49927 0.76821 0.0
C1207 C 0.92618 0.48542 0.76053 0.0
C1208 C 0.92933 0.47174 0.79888 0.0
C1209 C 0.91674 0.47087 0.84239 0.0
C1210 C 0.9026 0.48493 0.85045 0.0
H1211 H 0.91901 0.55135 0.84785 0.0
H1212 H 0.92327 0.52526 0.8446 0.0
H1213 H 0.91887 0.53831 0.7875 0.0
H1214 H 0.91051 0.5105 0.73985 0.0
H1215 H 0.93558 0.48672 0.72692 0.0
H1216 H 0.01102 0.18377 0.02173 0.0
H1217 H 0.01302 0.15668 0.9607 0.0
H1218 H 0.05077 0.1842 0.85726 0.0
H1219 H 0.04992 0.21102 0.92113 0.0
H1220 H 1.00519 0.15383 0.8686 0.0
H1221 H 0.0757 0.13145 0.85953 0.0
H1222 H 0.0647 0.1494 0.90608 0.0
H1223 H 0.07073 0.1559 0.83973 0.0
C1224 C 0.02019 0.18396 0.98682 0.0
C1225 C 0.03078 0.19941 0.97748 0.0
C1226 C 0.02109 0.16847 0.95131 0.0
C1227 C 0.0323 0.16803 0.90455 0.0
C1228 C 0.04239 0.18382 0.8937 0.0
H1229 H 0.01469 0.07499 0.68457 0.0
H1230 H 0.01693 0.1072 0.72249 0.0
C1231 C 0.04172 0.1993 0.92997 0.0
C1232 C 0.03295 0.15098 0.86797 0.0
H1233 H 0.05976 0.11338 0.80762 0.0
C1234 C 0.01716 0.14504 0.85514 0.0
C1235 C 0.04852 0.13934 0.85056 0.0
C1236 C 0.06586 0.1442 0.86498 0.0
C1237 C 0.01636 0.12751 0.82769 0.0
C1238 C 0.03194 0.11592 0.80989 0.0
C1239 C 0.04781 0.12223 0.82098 0.0
C1240 C 0.03195 0.09662 0.78298 0.0
C1241 C 0.99868 0.12117 0.82091 0.0
C1242 C 0.04053 0.07994 0.802 0.0
C1243 C 0.03977 0.06158 0.77919 0.0
C1244 C 0.03016 0.05944 0.73733 0.0
C1245 C 0.02197 0.07615 0.71732 0.0
C1246 C 0.02313 0.09458 0.73929 0.0
H1247 H 0.98835 0.12855 0.84968 0.0
H1248 H 0.9955 0.12505 0.78158 0.0
H1249 H 0.99835 0.10522 0.82516 0.0
H1250 H 0.0475 0.08104 0.83546 0.0
H1251 H 0.0462 0.04898 0.79551 0.0
H1252 H 0.34413 0.03238 0.03475 0.0
H1253 H 0.36903 0.03643 0.96904 0.0
H1254 H 0.36674 0.97792 0.91151 0.0
H1255 H 0.34178 0.97406 0.97657 0.0
H1256 H 0.39967 0.01496 0.96845 0.0
H1257 H 0.37719 0.00529 0.77629 0.0
H1258 H 0.36231 0.01033 0.83496 0.0
H1259 H 0.37193 0.98597 0.8194 0.0
C1260 C 0.34841 0.02079 0.00626 0.0
C1261 C 0.34069 0.00312 0.00975 0.0
C1262 C 0.3628 0.02299 0.96914 0.0
C1263 C 0.36979 0.00755 0.9347 0.0
C1264 C 0.36145 0.99026 0.93645 0.0
H1265 H 0.46723 0.97523 0.73906 0.0
H1266 H 0.43799 0.97735 0.7868 0.0
C1267 C 0.34708 0.98807 0.97354 0.0
C1268 C 0.38693 0.00857 0.90191 0.0
H1269 H 0.40799 1.0015 0.77822 0.0
C1270 C 0.40141 0.01229 0.92673 0.0
C1271 C 0.38936 0.00487 0.84746 0.0
C1272 C 0.37434 1.00157 0.81786 0.0
C1273 C 0.4182 0.01187 0.89918 0.0
C1274 C 0.42068 0.00798 0.84482 0.0
C1275 C 0.40618 0.00446 0.81982 0.0
C1276 C 0.43826 0.00712 0.81365 0.0
C1277 C 0.43325 0.01488 0.92905 0.0
C1278 C 0.44816 0.02325 0.8117 0.0
C1279 C 0.46495 0.02208 0.78445 0.0
C1280 C 0.47227 0.00477 0.75802 0.0
C1281 C 0.46213 0.9888 0.75887 0.0
C1282 C 0.44534 0.98999 0.7862 0.0
H1283 H 0.42993 0.01257 0.97132 0.0
H1284 H 0.44479 0.00487 0.91439 0.0
H1285 H 0.43678 0.03004 0.92418 0.0
H1286 H 0.44292 0.03678 0.83149 0.0
H1287 H 0.47224 0.03474 0.78447 0.0
H1288 H 0.52202 0.30651 0.98677 0.0
H1289 H 0.5201 0.33161 0.92078 0.0
H1290 H 0.48206 0.36624 0.02639 0.0
H1291 H 0.4838 0.3411 0.0917 0.0
H1292 H 0.476 0.37009 0.9228 0.0
H1293 H 0.54448 0.38033 0.94792 0.0
H1294 H 0.54081 0.35643 0.92595 0.0
H1295 H 0.53144 0.36514 0.98975 0.0
C1296 C 0.51268 0.31907 0.99479 0.0
C1297 C 0.50292 0.32181 0.04401 0.0
C1298 C 0.51178 0.33356 0.95747 0.0
C1299 C 0.50125 0.35105 0.9691 0.0
C1300 C 0.49034 0.35295 0.01652 0.0
H1301 H 0.5185 0.46694 0.86267 0.0
H1302 H 0.5147 0.43711 0.91115 0.0
C1303 C 0.49122 0.3385 0.0537 0.0
C1304 C 0.5029 0.36822 0.93505 0.0
H1305 H 0.53132 0.40103 0.89 0.0
C1306 C 0.48812 0.37677 0.91522 0.0
C1307 C 0.51863 0.37723 0.92617 0.0
C1308 C 0.53473 0.36947 0.94887 0.0
C1309 C 0.48866 0.39402 0.8868 0.0
C1310 C 0.50447 0.40285 0.87731 0.0
C1311 C 0.51923 0.39425 0.89703 0.0
C1312 C 0.50598 0.42125 0.84813 0.0
C1313 C 0.47215 0.40297 0.8687 0.0
C1314 C 0.5024 0.42233 0.79642 0.0
C1315 C 0.50447 0.43943 0.76864 0.0
C1316 C 0.51034 0.45582 0.79173 0.0
C1317 C 0.5139 0.45469 0.84359 0.0
C1318 C 0.51176 0.4376 0.87138 0.0
H1319 H 0.46045 0.39748 0.89063 0.0
H1320 H 0.47112 0.41907 0.87302 0.0
H1321 H 0.47218 0.39916 0.82697 0.0
H1322 H 0.49832 0.40982 0.7771 0.0
H1323 H 0.50176 0.43962 0.72865 0.0
H1324 H 0.19285 0.44041 0.941 0.0
H1325 H 0.16813 0.4457 0.89199 0.0
H1326 H 0.17493 0.50696 0.88671 0.0
H1327 H 0.19967 0.50183 0.93697 0.0
H1328 H 0.13765 0.47047 0.92785 0.0
H1329 H 0.16804 0.49204 0.73421 0.0
H1330 H 0.18031 0.47917 0.7799 0.0
H1331 H 0.1739 0.50468 0.78975 0.0
C1332 C 0.18919 0.45505 0.92935 0.0
C1333 C 0.19821 0.47073 0.94372 0.0
C1334 C 0.17505 0.45802 0.901 0.0
C1335 C 0.1696 0.47671 0.88543 0.0
C1336 C 0.17898 0.49234 0.89765 0.0
H1337 H 0.07981 0.52183 0.7381 0.0
H1338 H 0.10736 0.51699 0.774 0.0
C1339 C 0.19317 0.48939 0.92638 0.0
C1340 C 0.15334 0.47979 0.86015 0.0
H1341 H 0.13737 0.49348 0.7475 0.0
C1342 C 0.13761 0.47547 0.88837 0.0
C1343 C 0.15322 0.48639 0.80869 0.0
C1344 C 0.16975 0.49073 0.77599 0.0
C1345 C 0.12181 0.47777 0.86702 0.0
C1346 C 0.12167 0.48409 0.81524 0.0
C1347 C 0.13741 0.48854 0.78703 0.0
C1348 C 0.10526 0.48657 0.79035 0.0
C1349 C 0.10533 0.47387 0.90082 0.0
C1350 C 0.09493 0.47101 0.78612 0.0
C1351 C 0.07906 0.47375 0.76549 0.0
C1352 C 0.07319 0.49209 0.74806 0.0
C1353 C 0.08384 0.50748 0.7509 0.0
C1354 C 0.09967 0.50474 0.77155 0.0
H1355 H 0.10691 0.47452 0.94281 0.0
H1356 H 0.09437 0.4845 0.89382 0.0
H1357 H 0.10187 0.45906 0.8916 0.0
H1358 H 0.09908 0.45671 0.79908 0.0
H1359 H 0.07134 0.4615 0.76355 0.0
H1360 H 0.01936 0.80502 0.3935 0.0
H1361 H 0.02704 0.83273 0.44348 0.0
H1362 H 0.97959 0.83109 0.54772 0.0
H1363 H 0.97175 0.80375 0.49709 0.0
H1364 H 0.98205 0.86604 0.50559 0.0
H1365 H 0.04379 0.8433 0.58232 0.0
H1366 H 0.04461 0.83863 0.51374 0.0
H1367 H 0.03026 0.82604 0.55868 0.0
C1368 C 0.01095 0.81009 0.42833 0.0
C1369 C 0.99503 0.80219 0.44169 0.0
C1370 C 0.01532 0.82597 0.45688 0.0
C1371 C 1.00392 0.83403 0.4996 0.0
C1372 C 0.9886 0.82518 0.515 0.0
H1373 H 0.01873 0.93379 0.6971 0.0
H1374 H 0.01526 0.90116 0.66366 0.0
C1375 C 0.98418 0.80947 0.48629 0.0
C1376 C 1.00667 0.85305 0.52379 0.0
H1377 H 0.03543 0.87755 0.58337 0.0
C1378 C 0.99368 0.86846 0.52296 0.0
C1379 C 0.02179 0.85628 0.54673 0.0
C1380 C 0.03584 0.84014 0.55096 0.0
C1381 C 0.99548 0.88699 0.54351 0.0
C1382 C 0.01086 0.89043 0.56467 0.0
C1383 C 0.02372 0.87496 0.56663 0.0
C1384 C 0.01375 0.91007 0.58455 0.0
C1385 C 0.98079 0.90271 0.54277 0.0
C1386 C 0.01434 0.92588 0.55106 0.0
C1387 C 0.01626 0.94455 0.57002 0.0
C1388 C 0.01773 0.94782 0.62293 0.0
C1389 C 0.01753 0.93185 0.65621 0.0
C1390 C 0.01561 0.91316 0.63715 0.0
H1391 H 0.96834 0.89651 0.5383 0.0
H1392 H 0.97901 0.91182 0.57898 0.0
H1393 H 0.98383 0.91225 0.50938 0.0
H1394 H 0.01324 0.9238 0.51015 0.0
H1395 H 0.01651 0.95642 0.54312 0.0
H1396 H 0.71922 0.97344 0.39709 0.0
H1397 H 0.69384 0.97249 0.46331 0.0
H1398 H 0.66991 0.02425 0.40093 0.0
H1399 H 0.69538 0.02577 0.33701 0.0
H1400 H 0.6626 0.02558 0.50214 0.0
H1401 H 0.6494 0.9527 0.43167 0.0
H1402 H 0.67001 0.95324 0.45555 0.0
H1403 H 0.66587 0.96637 0.3982 0.0
C1404 C 0.70871 0.98484 0.39833 0.0
C1405 C 0.70927 0.99949 0.36103 0.0
C1406 C 0.69404 0.98413 0.43573 0.0
C1407 C 0.67957 0.99795 0.43635 0.0
C1408 C 0.68069 0.01324 0.40124 0.0
H1409 H 0.57083 0.98748 0.53459 0.0
H1410 H 0.60041 0.9877 0.49066 0.0
C1411 C 0.6953 0.01404 0.36436 0.0
C1412 C 0.66295 0.99638 0.47155 0.0
H1413 H 0.63 0.96704 0.50113 0.0
C1414 C 0.65555 0.01271 0.50216 0.0
C1415 C 0.65347 0.97973 0.47119 0.0
C1416 C 0.65997 0.96207 0.43708 0.0
C1417 C 0.63899 0.013 0.53129 0.0
C1418 C 0.62962 0.99628 0.53133 0.0
C1419 C 0.63714 0.97984 0.50155 0.0
C1420 C 0.61159 0.99591 0.55929 0.0
C1421 C 0.63133 0.03161 0.55958 0.0
C1422 C 0.60783 1.00018 0.61295 0.0
C1423 C 0.59079 1.00031 0.63817 0.0
C1424 C 0.57709 0.99578 0.61062 0.0
C1425 C 0.58098 0.99102 0.55723 0.0
C1426 C 0.59796 0.99112 0.53196 0.0
H1427 H 0.63839 0.0443 0.54614 0.0
H1428 H 0.61744 0.03467 0.5542 0.0
H1429 H 0.63213 0.03013 0.60174 0.0
H1430 H 0.61809 0.00334 0.63556 0.0
H1431 H 0.58838 0.0039 0.67938 0.0
H1432 H 0.49943 0.68816 0.4046 0.0
H1433 H 0.5072 0.6638 0.46722 0.0
H1434 H 0.55938 0.65613 0.38767 0.0
H1435 H 0.5515 0.68059 0.32445 0.0
H1436 H 0.54392 0.62199 0.39669 0.0
H1437 H 0.53528 0.65942 0.58902 0.0
H1438 H 0.51686 0.66471 0.55471 0.0
H1439 H 0.53763 0.67244 0.52889 0.0
C1440 C 0.51274 0.68182 0.4017 0.0
C1441 C 0.52491 0.68638 0.36001 0.0
C1442 C 0.51719 0.66789 0.43759 0.0
C1443 C 0.53393 0.65819 0.43262 0.0
C1444 C 0.54642 0.66352 0.39261 0.0
H1445 H 0.55374 0.56155 0.64634 0.0
H1446 H 0.558 0.59109 0.59593 0.0
C1447 C 0.54198 0.67761 0.35678 0.0
C1448 C 0.53744 0.64079 0.46456 0.0
H1449 H 0.53268 0.62467 0.58933 0.0
C1450 C 0.54182 0.62266 0.43884 0.0
C1451 C 0.53483 0.64156 0.51963 0.0
C1452 C 0.53106 0.66062 0.54968 0.0
C1453 C 0.5426 0.60528 0.46645 0.0
C1454 C 0.53875 0.60595 0.52126 0.0
C1455 C 0.53544 0.62412 0.54727 0.0
C1456 C 0.53662 0.58794 0.55151 0.0
C1457 C 0.5471 0.58624 0.43659 0.0
C1458 C 0.52312 0.57647 0.54362 0.0
C1459 C 0.5206 0.55974 0.57237 0.0
C1460 C 0.53154 0.55399 0.60983 0.0
C1461 C 0.54514 0.56546 0.61762 0.0
C1462 C 0.54757 0.58238 0.58898 0.0
H1463 H 0.55434 0.58833 0.39768 0.0
H1464 H 0.55501 0.57582 0.45829 0.0
H1465 H 0.53494 0.57969 0.43077 0.0
H1466 H 0.51436 0.58061 0.5155 0.0
H1467 H 0.50998 0.55135 0.56519 0.0
H1468 H 0.8555 0.50268 0.4108 0.0
H1469 H 0.88023 0.49493 0.45984 0.0
H1470 H 0.8705 0.55123 0.537 0.0
H1471 H 0.84587 0.55886 0.48848 0.0
H1472 H 0.90928 0.51525 0.45139 0.0
H1473 H 0.88037 0.51673 0.6575 0.0
H1474 H 0.86757 0.51466 0.60446 0.0
H1475 H 0.87358 0.53803 0.62375 0.0
C1476 C 0.85822 0.51304 0.43984 0.0
C1477 C 0.84856 0.53126 0.44638 0.0
C1478 C 0.8725 0.50871 0.46743 0.0
C1479 C 0.87727 0.52243 0.50258 0.0
C1480 C 0.86699 0.54021 0.51108 0.0
H1481 H 0.98056 0.53747 0.58711 0.0
H1482 H 0.95306 0.53968 0.54968 0.0
C1483 C 0.85285 0.54456 0.48334 0.0
C1484 C 0.89387 0.51913 0.52624 0.0
H1485 H 0.91097 0.51957 0.64177 0.0
C1486 C 0.9096 0.51602 0.49307 0.0
C1487 C 0.89443 0.52 0.58067 0.0
C1488 C 0.87808 0.52235 0.61872 0.0
C1489 C 0.92577 0.51429 0.51256 0.0
C1490 C 0.92636 0.516 0.56684 0.0
C1491 C 0.91062 0.51853 0.60014 0.0
C1492 C 0.94314 0.51491 0.58989 0.0
C1493 C 0.94209 0.51045 0.47476 0.0
C1494 C 0.94671 0.50056 0.6259 0.0
C1495 C 0.96229 0.4995 0.6482 0.0
C1496 C 0.97482 0.51268 0.6347 0.0
C1497 C 0.97125 0.52705 0.59845 0.0
C1498 C 0.95554 0.52825 0.5767 0.0
H1499 H 0.93933 0.50436 0.43705 0.0
H1500 H 0.94802 0.52433 0.467 0.0
H1501 H 0.95171 0.50018 0.49094 0.0
H1502 H 0.93749 0.48994 0.63614 0.0
H1503 H 0.96469 0.48806 0.67523 0.0
loop_
_geom_bond_atom_site_label_1
_geom_bond_atom_site_label_2
_geom_bond_distance
_geom_bond_site_symmetry_2
_ccdc_geom_bond_type
C0 C1 1.391 . S
C0 C4 1.391 . S
C0 H42 0.948 . S
C1 C0 1.391 . S
C1 C2 1.391 . S
C2 C1 1.391 . S
C2 H58 0.947 . S
C2 C59 1.392 . S
C3 C4 1.391 . S
C3 C7 1.397 . S
C3 C59 1.419 . S
C4 C0 1.391 . S
C4 C3 1.391 . S
C4 C5 1.399 . S
C5 C4 1.399 . S
C5 C8 1.396 . S
C5 C17 1.453 . S
C5 C18 1.684 . S
H6 C30 0.948 . S
C7 C3 1.397 . S
C7 C8 1.394 . S
C7 C26 1.723 . S
C8 C5 1.396 . S
C8 C7 1.394 . S
C8 C38 1.723 . S
H9 C32 0.947 . S
H10 C33 0.948 . S
H11 C39 0.982 . S
H12 C40 0.979 . S
H13 C40 0.980 . S
H14 C40 0.983 . S
H15 C39 0.979 . S
H16 C39 0.977 . S
C17 C5 1.453 . S
C17 H46 0.982 . S
C17 H47 0.979 . S
C17 H48 0.977 . S
C18 C5 1.684 . S
C18 H43 0.979 . S
C18 H44 0.980 . S
C18 H45 0.983 . S
C19 C20 1.391 . S
C19 C24 1.391 . S
C19 H49 0.948 . S
C20 C19 1.391 . S
C20 C21 1.391 . S
C21 C20 1.391 . S
C21 C22 1.392 . S
C21 H50 0.947 . S
C22 C21 1.392 . S
C22 C23 1.419 . S
C22 H51 0.948 . S
C23 C22 1.419 . S
C23 C24 1.391 . S
C23 C27 1.397 . S
C24 C19 1.391 . S
C24 C23 1.391 . S
C24 C25 1.399 . S
C25 C24 1.399 . S
C25 C26 1.396 . S
C25 C28 1.453 . S
C25 C29 1.684 . S
C26 C7 1.723 . S
C26 C25 1.396 . S
C26 C27 1.394 . S
C27 C23 1.397 . S
C27 C26 1.394 . S
C27 C37 1.723 . S
C28 C25 1.453 . S
C28 H52 0.982 . S
C28 H53 0.979 . S
C28 H54 0.977 . S
C29 C25 1.684 . S
C29 H55 0.979 . S
C29 H56 0.980 . S
C29 H57 0.983 . S
C30 H6 0.948 . S
C30 C31 1.391 . S
C30 C35 1.391 . S
C31 C30 1.391 . S
C31 C32 1.391 . S
C32 H9 0.947 . S
C32 C31 1.391 . S
C32 C33 1.392 . S
C33 H10 0.948 . S
C33 C32 1.392 . S
C33 C34 1.419 . S
C34 C33 1.419 . S
C34 C35 1.391 . S
C34 C38 1.397 . S
C35 C30 1.391 . S
C35 C34 1.391 . S
C35 C36 1.399 . S
C36 C35 1.399 . S
C36 C37 1.396 . S
C36 C39 1.453 . S
C36 C40 1.684 . S
C37 C27 1.723 . S
C37 C36 1.396 . S
C37 C38 1.394 . S
C38 C8 1.723 . S
C38 C34 1.397 . S
C38 C37 1.394 . S
C39 H11 0.982 . S
C39 H15 0.979 . S
C39 H16 0.977 . S
C39 C36 1.453 . S
C40 H12 0.979 . S
C40 H13 0.980 . S
C40 H14 0.983 . S
C40 C36 1.684 . S
H41 C59 0.948 . S
H42 C0 0.948 . S
H43 C18 0.979 . S
H44 C18 0.980 . S
H45 C18 0.983 . S
H46 C17 0.982 . S
H47 C17 0.979 . S
H48 C17 0.977 . S
H49 C19 0.948 . S
H50 C21 0.947 . S
H51 C22 0.948 . S
H52 C28 0.982 . S
H53 C28 0.979 . S
H54 C28 0.977 . S
H55 C29 0.979 . S
H56 C29 0.980 . S
H57 C29 0.983 . S
H58 C2 0.947 . S
C59 C2 1.392 . S
C59 C3 1.419 . S
C59 H41 0.948 . S
C60 C61 1.391 . S
C60 C64 1.391 . S
C60 H102 0.948 . S
C61 C60 1.391 . S
C61 C62 1.391 . S
C62 C61 1.391 . S
C62 H118 0.947 . S
C62 C119 1.392 . S
C63 C64 1.391 . S
C63 C67 1.397 . S
C63 C119 1.419 . S
C64 C60 1.391 . S
C64 C63 1.391 . S
C64 C65 1.399 . S
C65 C64 1.399 . S
C65 C68 1.396 . S
C65 C77 1.453 . S
C65 C78 1.684 . S
H66 C90 0.948 . S
C67 C63 1.397 . S
C67 C68 1.394 . S
C67 C86 1.723 . S
C68 C65 1.396 . S
C68 C67 1.394 . S
C68 C98 1.723 . S
H69 C92 0.947 . S
H70 C93 0.948 . S
H71 C99 0.982 1_455 S
H72 C100 0.979 . S
H73 C100 0.980 . S
H74 C100 0.983 . S
H75 C99 0.979 . S
H76 C99 0.977 . S
C77 C65 1.453 . S
C77 H106 0.982 1_655 S
C77 H107 0.979 . S
C77 H108 0.977 . S
C78 C65 1.684 . S
C78 H103 0.979 . S
C78 H104 0.980 . S
C78 H105 0.983 . S
C79 C80 1.391 . S
C79 C84 1.391 . S
C79 H109 0.948 . S
C80 C79 1.391 . S
C80 C81 1.391 . S
C81 C80 1.391 . S
C81 C82 1.392 . S
C81 H110 0.947 . S
C82 C81 1.392 . S
C82 C83 1.419 . S
C82 H111 0.948 . S
C83 C82 1.419 . S
C83 C84 1.391 . S
C83 C87 1.397 . S
C84 C79 1.391 . S
C84 C83 1.391 . S
C84 C85 1.399 . S
C85 C84 1.399 . S
C85 C86 1.396 . S
C85 C88 1.453 . S
C85 C89 1.684 . S
C86 C67 1.723 . S
C86 C85 1.396 . S
C86 C87 1.394 . S
C87 C83 1.397 . S
C87 C86 1.394 . S
C87 C97 1.723 . S
C88 C85 1.453 . S
C88 H112 0.982 1_655 S
C88 H113 0.979 . S
C88 H114 0.977 . S
C89 C85 1.684 . S
C89 H115 0.979 . S
C89 H116 0.980 . S
C89 H117 0.983 . S
C90 H66 0.948 . S
C90 C91 1.391 . S
C90 C95 1.391 . S
C91 C90 1.391 . S
C91 C92 1.391 . S
C92 H69 0.947 . S
C92 C91 1.391 . S
C92 C93 1.392 . S
C93 H70 0.948 . S
C93 C92 1.392 . S
C93 C94 1.419 . S
C94 C93 1.419 . S
C94 C95 1.391 . S
C94 C98 1.397 . S
C95 C90 1.391 . S
C95 C94 1.391 . S
C95 C96 1.399 . S
C96 C95 1.399 . S
C96 C97 1.396 . S
C96 C99 1.453 . S
C96 C100 1.684 . S
C97 C87 1.723 . S
C97 C96 1.396 . S
C97 C98 1.394 . S
C98 C68 1.723 . S
C98 C94 1.397 . S
C98 C97 1.394 . S
C99 H71 0.982 1_655 S
C99 H75 0.979 . S
C99 H76 0.977 . S
C99 C96 1.453 . S
C100 H72 0.979 . S
C100 H73 0.980 . S
C100 H74 0.983 . S
C100 C96 1.684 . S
H101 C119 0.948 . S
H102 C60 0.948 . S
H103 C78 0.979 . S
H104 C78 0.980 . S
H105 C78 0.983 . S
H106 C77 0.982 1_455 S
H107 C77 0.979 . S
H108 C77 0.977 . S
H109 C79 0.948 . S
H110 C81 0.947 . S
H111 C82 0.948 . S
H112 C88 0.982 1_455 S
H113 C88 0.979 . S
H114 C88 0.977 . S
H115 C89 0.979 . S
H116 C89 0.980 . S
H117 C89 0.983 . S
H118 C62 0.947 . S
C119 C62 1.392 . S
C119 C63 1.419 . S
C119 H101 0.948 . S
C120 C121 1.391 . S
C120 C124 1.391 . S
C120 H162 0.948 . S
C121 C120 1.391 . S
C121 C122 1.391 . S
C122 C121 1.391 . S
C122 H178 0.947 . S
C122 C179 1.392 . S
C123 C124 1.391 . S
C123 C127 1.397 1_565 S
C123 C179 1.419 . S
C124 C120 1.391 . S
C124 C123 1.391 . S
C124 C125 1.399 . S
C125 C124 1.399 . S
C125 C128 1.393 1_565 S
C125 C137 1.453 1_565 S
C125 C138 1.684 . S
H126 C150 0.948 . S
C127 C123 1.397 1_545 S
C127 C128 1.393 . S
C127 C146 1.726 . S
C128 C125 1.393 1_545 S
C128 C127 1.393 . S
C128 C158 1.716 . S
H129 C152 0.947 . S
H130 C153 0.948 . S
H131 C159 0.982 . S
H132 C160 0.979 . S
H133 C160 0.980 . S
H134 C160 0.983 . S
H135 C159 0.979 . S
H136 C159 0.977 . S
C137 C125 1.453 1_545 S
C137 H166 0.982 . S
C137 H167 0.979 . S
C137 H168 0.977 . S
C138 C125 1.684 . S
C138 H163 0.979 . S
C138 H164 0.980 . S
C138 H165 0.983 . S
C139 C140 1.391 . S
C139 C144 1.391 . S
C139 H169 0.948 . S
C140 C139 1.391 . S
C140 C141 1.391 . S
C141 C140 1.391 . S
C141 C142 1.392 . S
C141 H170 0.947 . S
C142 C141 1.392 . S
C142 C143 1.419 . S
C142 H171 0.948 . S
C143 C142 1.419 . S
C143 C144 1.391 . S
C143 C147 1.397 1_565 S
C144 C139 1.391 . S
C144 C143 1.391 . S
C144 C145 1.399 . S
C145 C144 1.399 . S
C145 C146 1.388 1_565 S
C145 C148 1.453 1_565 S
C145 C149 1.684 . S
C146 C127 1.726 . S
C146 C145 1.388 1_545 S
C146 C147 1.388 . S
C147 C143 1.397 1_545 S
C147 C146 1.388 . S
C147 C157 1.723 . S
C148 C145 1.453 1_545 S
C148 H172 0.982 . S
C148 H173 0.979 . S
C148 H174 0.977 . S
C149 C145 1.684 . S
C149 H175 0.979 . S
C149 H176 0.980 . S
C149 H177 0.983 . S
C150 H126 0.948 . S
C150 C151 1.391 . S
C150 C155 1.391 . S
C151 C150 1.391 . S
C151 C152 1.391 . S
C152 H129 0.947 . S
C152 C151 1.391 . S
C152 C153 1.392 . S
C153 H130 0.948 . S
C153 C152 1.392 . S
C153 C154 1.419 . S
C154 C153 1.419 . S
C154 C155 1.391 . S
C154 C158 1.397 1_565 S
C155 C150 1.391 . S
C155 C154 1.391 . S
C155 C156 1.399 . S
C156 C155 1.399 . S
C156 C157 1.384 1_565 S
C156 C159 1.453 1_565 S
C156 C160 1.684 . S
C157 C147 1.723 . S
C157 C156 1.384 1_545 S
C157 C158 1.397 . S
C158 C128 1.716 . S
C158 C154 1.397 1_545 S
C158 C157 1.397 . S
C159 H131 0.982 . S
C159 H135 0.979 . S
C159 H136 0.977 . S
C159 C156 1.453 1_545 S
C160 H132 0.979 . S
C160 H133 0.980 . S
C160 H134 0.983 . S
C160 C156 1.684 . S
H161 C179 0.948 . S
H162 C120 0.948 . S
H163 C138 0.979 . S
H164 C138 0.980 . S
H165 C138 0.983 . S
H166 C137 0.982 . S
H167 C137 0.979 . S
H168 C137 0.977 . S
H169 C139 0.948 . S
H170 C141 0.947 . S
H171 C142 0.948 . S
H172 C148 0.982 . S
H173 C148 0.979 . S
H174 C148 0.977 . S
H175 C149 0.979 . S
H176 C149 0.980 . S
H177 C149 0.983 . S
H178 C122 0.947 . S
C179 C122 1.392 . S
C179 C123 1.419 . S
C179 H161 0.948 . S
C180 C181 1.391 . S
C180 C184 1.391 . S
C180 H222 0.948 . S
C181 C180 1.391 . S
C181 C182 1.391 . S
C182 C181 1.391 . S
C182 H238 0.947 . S
C182 C239 1.392 . S
C183 C184 1.391 . S
C183 C187 1.397 . S
C183 C239 1.419 . S
C184 C180 1.391 . S
C184 C183 1.391 . S
C184 C185 1.399 . S
C185 C184 1.399 . S
C185 C188 1.396 . S
C185 C197 1.453 . S
C185 C198 1.684 . S
H186 C210 0.948 . S
C187 C183 1.397 . S
C187 C188 1.394 . S
C187 C206 1.723 . S
C188 C185 1.396 . S
C188 C187 1.394 . S
C188 C218 1.723 . S
H189 C212 0.947 . S
H190 C213 0.948 . S
H191 C219 0.982 . S
H192 C220 0.979 . S
H193 C220 0.980 . S
H194 C220 0.983 . S
H195 C219 0.979 . S
H196 C219 0.977 . S
C197 C185 1.453 . S
C197 H226 0.982 . S
C197 H227 0.979 . S
C197 H228 0.977 . S
C198 C185 1.684 . S
C198 H223 0.979 . S
C198 H224 0.980 . S
C198 H225 0.983 . S
C199 C200 1.391 . S
C199 C204 1.391 . S
C199 H229 0.948 . S
C200 C199 1.391 . S
C200 C201 1.391 . S
C201 C200 1.391 . S
C201 C202 1.392 . S
C201 H230 0.947 . S
C202 C201 1.392 . S
C202 C203 1.419 . S
C202 H231 0.948 . S
C203 C202 1.419 . S
C203 C204 1.391 . S
C203 C207 1.397 1_556 S
C204 C199 1.391 . S
C204 C203 1.391 . S
C204 C205 1.399 1_556 S
C205 C204 1.399 1_554 S
C205 C206 1.396 . S
C205 C208 1.453 . S
C205 C209 1.684 . S
C206 C187 1.723 . S
C206 C205 1.396 . S
C206 C207 1.394 . S
C207 C203 1.397 1_554 S
C207 C206 1.394 . S
C207 C217 1.723 . S
C208 C205 1.453 . S
C208 H232 0.982 . S
C208 H233 0.979 . S
C208 H234 0.977 . S
C209 C205 1.684 . S
C209 H235 0.979 . S
C209 H236 0.980 . S
C209 H237 0.983 . S
C210 H186 0.948 . S
C210 C211 1.391 1_556 S
C210 C215 1.391 1_556 S
C211 C210 1.391 1_554 S
C211 C212 1.391 . S
C212 H189 0.947 . S
C212 C211 1.391 . S
C212 C213 1.392 . S
C213 H190 0.948 . S
C213 C212 1.392 . S
C213 C214 1.419 . S
C214 C213 1.419 . S
C214 C215 1.391 . S
C214 C218 1.397 . S
C215 C210 1.391 1_554 S
C215 C214 1.391 . S
C215 C216 1.399 1_554 S
C216 C215 1.399 1_556 S
C216 C217 1.396 1_556 S
C216 C219 1.453 . S
C216 C220 1.684 . S
C217 C207 1.723 . S
C217 C216 1.396 1_554 S
C217 C218 1.394 . S
C218 C188 1.723 . S
C218 C214 1.397 . S
C218 C217 1.394 . S
C219 H191 0.982 . S
C219 H195 0.979 . S
C219 H196 0.977 . S
C219 C216 1.453 . S
C220 H192 0.979 . S
C220 H193 0.980 . S
C220 H194 0.983 . S
C220 C216 1.684 . S
H221 C239 0.948 . S
H222 C180 0.948 . S
H223 C198 0.979 . S
H224 C198 0.980 . S
H225 C198 0.983 . S
H226 C197 0.982 . S
H227 C197 0.979 . S
H228 C197 0.977 . S
H229 C199 0.948 . S
H230 C201 0.947 . S
H231 C202 0.948 . S
H232 C208 0.982 . S
H233 C208 0.979 . S
H234 C208 0.977 . S
H235 C209 0.979 . S
H236 C209 0.980 . S
H237 C209 0.983 . S
H238 C182 0.947 . S
C239 C182 1.392 . S
C239 C183 1.419 . S
C239 H221 0.948 . S
C240 C241 1.391 . S
C240 C244 1.391 1_554 S
C240 H282 0.948 1_554 S
C241 C240 1.391 . S
C241 C242 1.391 . S
C242 C241 1.391 . S
C242 H298 0.947 . S
C242 C299 1.392 . S
C243 C244 1.391 1_554 S
C243 C247 1.397 . S
C243 C299 1.419 . S
C244 C240 1.391 1_556 S
C244 C243 1.391 1_556 S
C244 C245 1.399 . S
C245 C244 1.399 . S
C245 C248 1.396 . S
C245 C257 1.453 . S
C245 C258 1.684 . S
H246 C270 0.948 . S
C247 C243 1.397 . S
C247 C248 1.394 1_554 S
C247 C266 1.723 . S
C248 C245 1.396 . S
C248 C247 1.394 1_556 S
C248 C278 1.723 . S
H249 C272 0.947 . S
H250 C273 0.948 . S
H251 C279 0.982 . S
H252 C280 0.979 . S
H253 C280 0.980 . S
H254 C280 0.983 . S
H255 C279 0.979 . S
H256 C279 0.977 . S
C257 C245 1.453 . S
C257 H286 0.982 . S
C257 H287 0.979 . S
C257 H288 0.977 . S
C258 C245 1.684 . S
C258 H283 0.979 . S
C258 H284 0.980 . S
C258 H285 0.983 . S
C259 C260 1.391 . S
C259 C264 1.391 . S
C259 H289 0.948 . S
C260 C259 1.391 . S
C260 C261 1.391 . S
C261 C260 1.391 . S
C261 C262 1.392 . S
C261 H290 0.947 . S
C262 C261 1.392 . S
C262 C263 1.419 . S
C262 H291 0.948 . S
C263 C262 1.419 . S
C263 C264 1.391 . S
C263 C267 1.397 . S
C264 C259 1.391 . S
C264 C263 1.391 . S
C264 C265 1.399 . S
C265 C264 1.399 . S
C265 C266 1.396 . S
C265 C268 1.453 . S
C265 C269 1.684 . S
C266 C247 1.723 . S
C266 C265 1.396 . S
C266 C267 1.394 . S
C267 C263 1.397 . S
C267 C266 1.394 . S
C267 C277 1.723 1_554 S
C268 C265 1.453 . S
C268 H292 0.982 . S
C268 H293 0.979 . S
C268 H294 0.977 . S
C269 C265 1.684 . S
C269 H295 0.979 . S
C269 H296 0.980 . S
C269 H297 0.983 . S
C270 H246 0.948 . S
C270 C271 1.391 . S
C270 C275 1.391 . S
C271 C270 1.391 . S
C271 C272 1.391 . S
C272 H249 0.947 . S
C272 C271 1.391 . S
C272 C273 1.392 . S
C273 H250 0.948 . S
C273 C272 1.392 . S
C273 C274 1.419 . S
C274 C273 1.419 . S
C274 C275 1.391 . S
C274 C278 1.397 . S
C275 C270 1.391 . S
C275 C274 1.391 . S
C275 C276 1.399 . S
C276 C275 1.399 . S
C276 C277 1.396 . S
C276 C279 1.453 . S
C276 C280 1.684 . S
C277 C267 1.723 1_556 S
C277 C276 1.396 . S
C277 C278 1.394 . S
C278 C248 1.723 . S
C278 C274 1.397 . S
C278 C277 1.394 . S
C279 H251 0.982 . S
C279 H255 0.979 . S
C279 H256 0.977 . S
C279 C276 1.453 . S
C280 H252 0.979 . S
C280 H253 0.980 . S
C280 H254 0.983 . S
C280 C276 1.684 . S
H281 C299 0.948 . S
H282 C240 0.948 1_556 S
H283 C258 0.979 . S
H284 C258 0.980 . S
H285 C258 0.983 . S
H286 C257 0.982 . S
H287 C257 0.979 . S
H288 C257 0.977 . S
H289 C259 0.948 . S
H290 C261 0.947 . S
H291 C262 0.948 . S
H292 C268 0.982 . S
H293 C268 0.979 . S
H294 C268 0.977 . S
H295 C269 0.979 . S
H296 C269 0.980 . S
H297 C269 0.983 . S
H298 C242 0.947 . S
C299 C242 1.392 . S
C299 C243 1.419 . S
C299 H281 0.948 . S
C300 C301 1.391 . S
C300 C304 1.391 . S
C300 H342 0.948 . S
C301 C300 1.391 . S
C301 C302 1.391 . S
C302 C301 1.391 . S
C302 H358 0.947 . S
C302 C359 1.392 . S
C303 C304 1.391 . S
C303 C307 1.397 . S
C303 C359 1.419 . S
C304 C300 1.391 . S
C304 C303 1.391 . S
C304 C305 1.399 . S
C305 C304 1.399 . S
C305 C308 1.396 . S
C305 C317 1.453 . S
C305 C318 1.684 . S
H306 C330 0.948 . S
C307 C303 1.397 . S
C307 C308 1.394 . S
C307 C326 1.723 . S
C308 C305 1.396 . S
C308 C307 1.394 . S
C308 C338 1.723 . S
H309 C332 0.947 . S
H310 C333 0.948 . S
H311 C339 0.982 . S
H312 C340 0.938 1_655 S
H313 C340 0.980 1_556 S
H314 C340 0.983 . S
H315 C339 0.979 . S
H316 C339 0.977 1_556 S
C317 C305 1.453 . S
C317 H346 0.982 . S
C317 H347 0.979 . S
C317 H348 0.977 . S
C318 C305 1.684 . S
C318 H343 0.934 1_455 S
C318 H344 0.980 . S
C318 H345 0.983 . S
C319 C320 1.391 . S
C319 C324 1.391 . S
C319 H349 0.948 . S
C320 C319 1.391 . S
C320 C321 1.391 . S
C321 C320 1.391 . S
C321 C322 1.392 . S
C321 H350 0.947 . S
C322 C321 1.392 . S
C322 C323 1.419 . S
C322 H351 0.948 . S
C323 C322 1.419 . S
C323 C324 1.391 . S
C323 C327 1.397 1_556 S
C324 C319 1.391 . S
C324 C323 1.391 . S
C324 C325 1.399 1_556 S
C325 C324 1.399 1_554 S
C325 C326 1.396 . S
C325 C328 1.453 . S
C325 C329 1.684 . S
C326 C307 1.723 . S
C326 C325 1.396 . S
C326 C327 1.394 . S
C327 C323 1.397 1_554 S
C327 C326 1.394 . S
C327 C337 1.723 . S
C328 C325 1.453 . S
C328 H352 0.982 . S
C328 H353 0.979 . S
C328 H354 0.977 . S
C329 C325 1.684 . S
C329 H355 0.937 1_455 S
C329 H356 0.980 . S
C329 H357 0.983 . S
C330 H306 0.948 . S
C330 C331 1.391 . S
C330 C335 1.391 . S
C331 C330 1.391 . S
C331 C332 1.391 . S
C332 H309 0.947 . S
C332 C331 1.391 . S
C332 C333 1.392 . S
C333 H310 0.948 . S
C333 C332 1.392 . S
C333 C334 1.419 . S
C334 C333 1.419 . S
C334 C335 1.391 . S
C334 C338 1.397 . S
C335 C330 1.391 . S
C335 C334 1.391 . S
C335 C336 1.399 . S
C336 C335 1.399 . S
C336 C337 1.396 . S
C336 C339 1.453 . S
C336 C340 1.684 . S
C337 C327 1.723 . S
C337 C336 1.396 . S
C337 C338 1.394 . S
C338 C308 1.723 . S
C338 C334 1.397 . S
C338 C337 1.394 . S
C339 H311 0.982 . S
C339 H315 0.979 . S
C339 H316 0.977 1_554 S
C339 C336 1.453 . S
C340 H312 0.938 1_455 S
C340 H313 0.980 1_554 S
C340 H314 0.983 . S
C340 C336 1.684 . S
H341 C359 0.948 . S
H342 C300 0.948 . S
H343 C318 0.934 1_655 S
H344 C318 0.980 . S
H345 C318 0.983 . S
H346 C317 0.982 . S
H347 C317 0.979 . S
H348 C317 0.977 . S
H349 C319 0.948 . S
H350 C321 0.947 . S
H351 C322 0.948 . S
H352 C328 0.982 . S
H353 C328 0.979 . S
H354 C328 0.977 . S
H355 C329 0.937 1_655 S
H356 C329 0.980 . S
H357 C329 0.983 . S
H358 C302 0.947 . S
C359 C302 1.392 . S
C359 C303 1.419 . S
C359 H341 0.948 . S
C360 C361 1.391 . S
C360 C364 1.391 1_556 S
C360 H402 0.948 . S
C361 C360 1.391 . S
C361 C362 1.391 . S
C362 C361 1.391 . S
C362 H418 0.947 . S
C362 C419 1.392 1_556 S
C363 C364 1.391 . S
C363 C367 1.397 1_545 S
C363 C419 1.419 . S
C364 C360 1.391 1_554 S
C364 C363 1.391 . S
C364 C365 1.399 . S
C365 C364 1.399 . S
C365 C368 1.388 1_545 S
C365 C377 1.453 1_545 S
C365 C378 1.684 . S
H366 C390 0.948 . S
C367 C363 1.397 1_565 S
C367 C368 1.388 . S
C367 C386 1.724 . S
C368 C365 1.388 1_565 S
C368 C367 1.388 . S
C368 C398 1.725 . S
H369 C392 0.947 . S
H370 C393 0.948 . S
H371 C399 0.982 . S
H372 C400 0.979 . S
H373 C400 0.980 . S
H374 C400 0.983 . S
H375 C399 0.979 . S
H376 C399 0.977 . S
C377 C365 1.453 1_565 S
C377 H406 0.982 . S
C377 H407 0.979 . S
C377 H408 0.977 . S
C378 C365 1.684 . S
C378 H403 0.979 . S
C378 H404 0.980 . S
C378 H405 0.983 . S
C379 C380 1.391 . S
C379 C384 1.391 . S
C379 H409 0.948 . S
C380 C379 1.391 . S
C380 C381 1.391 . S
C381 C380 1.391 . S
C381 C382 1.392 . S
C381 H410 0.947 . S
C382 C381 1.392 . S
C382 C383 1.419 . S
C382 H411 0.948 . S
C383 C382 1.419 . S
C383 C384 1.391 . S
C383 C387 1.397 1_545 S
C384 C379 1.391 . S
C384 C383 1.391 . S
C384 C385 1.399 . S
C385 C384 1.399 . S
C385 C386 1.384 1_545 S
C385 C388 1.453 1_545 S
C385 C389 1.684 . S
C386 C367 1.724 . S
C386 C385 1.384 1_565 S
C386 C387 1.397 . S
C387 C383 1.397 1_565 S
C387 C386 1.397 . S
C387 C397 1.716 . S
C388 C385 1.453 1_565 S
C388 H412 0.982 . S
C388 H413 0.979 . S
C388 H414 0.977 . S
C389 C385 1.684 . S
C389 H415 0.979 . S
C389 H416 0.980 . S
C389 H417 0.983 . S
C390 H366 0.948 . S
C390 C391 1.391 . S
C390 C395 1.391 . S
C391 C390 1.391 . S
C391 C392 1.391 . S
C392 H369 0.947 . S
C392 C391 1.391 . S
C392 C393 1.392 . S
C393 H370 0.948 . S
C393 C392 1.392 . S
C393 C394 1.419 . S
C394 C393 1.419 . S
C394 C395 1.391 . S
C394 C398 1.397 1_545 S
C395 C390 1.391 . S
C395 C394 1.391 . S
C395 C396 1.399 . S
C396 C395 1.399 . S
C396 C397 1.392 1_545 S
C396 C399 1.453 1_545 S
C396 C400 1.684 . S
C397 C387 1.716 . S
C397 C396 1.392 1_565 S
C397 C398 1.394 . S
C398 C368 1.725 . S
C398 C394 1.397 1_565 S
C398 C397 1.394 . S
C399 H371 0.982 . S
C399 H375 0.979 . S
C399 H376 0.977 . S
C399 C396 1.453 1_565 S
C400 H372 0.979 . S
C400 H373 0.980 . S
C400 H374 0.983 . S
C400 C396 1.684 . S
H401 C419 0.948 . S
H402 C360 0.948 . S
H403 C378 0.979 . S
H404 C378 0.980 . S
H405 C378 0.983 . S
H406 C377 0.982 . S
H407 C377 0.979 . S
H408 C377 0.977 . S
H409 C379 0.948 . S
H410 C381 0.947 . S
H411 C382 0.948 . S
H412 C388 0.982 . S
H413 C388 0.979 . S
H414 C388 0.977 . S
H415 C389 0.979 . S
H416 C389 0.980 . S
H417 C389 0.983 . S
H418 C362 0.947 . S
C419 C362 1.392 1_554 S
C419 C363 1.419 . S
C419 H401 0.948 . S
C420 C421 1.391 . S
C420 C424 1.391 . S
C420 H462 0.948 . S
C421 C420 1.391 . S
C421 C422 1.391 . S
C422 C421 1.391 . S
C422 H478 0.947 . S
C422 C479 1.392 . S
C423 C424 1.391 . S
C423 C427 1.397 . S
C423 C479 1.419 . S
C424 C420 1.391 . S
C424 C423 1.391 . S
C424 C425 1.399 . S
C425 C424 1.399 . S
C425 C428 1.396 . S
C425 C437 1.453 . S
C425 C438 1.684 . S
H426 C450 0.948 . S
C427 C423 1.397 . S
C427 C428 1.394 . S
C427 C446 1.723 . S
C428 C425 1.396 . S
C428 C427 1.394 . S
C428 C458 1.723 . S
H429 C452 0.947 . S
H430 C453 0.948 . S
H431 C459 0.982 . S
H432 C460 0.979 . S
H433 C460 0.980 . S
H434 C460 0.983 . S
H435 C459 0.979 . S
H436 C459 0.977 . S
C437 C425 1.453 . S
C437 H466 0.982 . S
C437 H467 0.979 . S
C437 H468 0.977 . S
C438 C425 1.684 . S
C438 H463 0.979 . S
C438 H464 0.980 . S
C438 H465 0.983 . S
C439 C440 1.391 . S
C439 C444 1.391 . S
C439 H469 0.948 . S
C440 C439 1.391 . S
C440 C441 1.391 . S
C441 C440 1.391 . S
C441 C442 1.392 . S
C441 H470 0.947 . S
C442 C441 1.392 . S
C442 C443 1.419 . S
C442 H471 0.948 . S
C443 C442 1.419 . S
C443 C444 1.391 . S
C443 C447 1.397 . S
C444 C439 1.391 . S
C444 C443 1.391 . S
C444 C445 1.399 . S
C445 C444 1.399 . S
C445 C446 1.396 . S
C445 C448 1.453 . S
C445 C449 1.684 . S
C446 C427 1.723 . S
C446 C445 1.396 . S
C446 C447 1.394 . S
C447 C443 1.397 . S
C447 C446 1.394 . S
C447 C457 1.723 . S
C448 C445 1.453 . S
C448 H472 0.982 . S
C448 H473 0.979 . S
C448 H474 0.977 . S
C449 C445 1.684 . S
C449 H475 0.979 . S
C449 H476 0.980 . S
C449 H477 0.983 . S
C450 H426 0.948 . S
C450 C451 1.391 . S
C450 C455 1.391 . S
C451 C450 1.391 . S
C451 C452 1.391 . S
C452 H429 0.947 . S
C452 C451 1.391 . S
C452 C453 1.392 . S
C453 H430 0.948 . S
C453 C452 1.392 . S
C453 C454 1.419 . S
C454 C453 1.419 . S
C454 C455 1.391 . S
C454 C458 1.397 . S
C455 C450 1.391 . S
C455 C454 1.391 . S
C455 C456 1.399 . S
C456 C455 1.399 . S
C456 C457 1.396 . S
C456 C459 1.453 . S
C456 C460 1.684 . S
C457 C447 1.723 . S
C457 C456 1.396 . S
C457 C458 1.394 . S
C458 C428 1.723 . S
C458 C454 1.397 . S
C458 C457 1.394 . S
C459 H431 0.982 . S
C459 H435 0.979 . S
C459 H436 0.977 . S
C459 C456 1.453 . S
C460 H432 0.979 . S
C460 H433 0.980 . S
C460 H434 0.983 . S
C460 C456 1.684 . S
H461 C479 0.948 . S
H462 C420 0.948 . S
H463 C438 0.979 . S
H464 C438 0.980 . S
H465 C438 0.983 . S
H466 C437 0.982 . S
H467 C437 0.979 . S
H468 C437 0.977 . S
H469 C439 0.948 . S
H470 C441 0.947 . S
H471 C442 0.948 . S
H472 C448 0.982 . S
H473 C448 0.979 . S
H474 C448 0.977 . S
H475 C449 0.979 . S
H476 C449 0.980 . S
H477 C449 0.983 . S
H478 C422 0.947 . S
C479 C422 1.392 . S
C479 C423 1.419 . S
C479 H461 0.948 . S
Dy480 O483 2.307 1_545 S
Dy480 O485 2.395 1_655 S
Dy480 O486 2.379 . S
Dy480 O488 2.339 . S
Dy480 O490 2.298 1_655 S
Dy480 O494 2.275 1_655 S
Dy480 C502 2.738 . S
Dy481 O484 2.298 . S
Dy481 O487 2.275 1_455 S
Dy481 O489 2.307 1_565 S
Dy481 O491 2.395 . S
Dy481 O492 2.379 . S
Dy481 O495 2.339 . S
Dy481 C511 2.738 . S
C482 O494 1.254 1_565 S
C482 O495 1.257 . S
O483 Dy480 2.307 1_565 S
O483 C493 1.267 1_655 S
O484 Dy481 2.298 . S
O484 C493 1.234 . S
O485 Dy480 2.395 1_455 S
O485 C502 1.255 1_455 S
O486 Dy480 2.379 . S
O486 C502 1.249 . S
O487 Dy481 2.275 1_655 S
O487 C503 1.254 1_565 S
O488 Dy480 2.339 . S
O488 C503 1.257 . S
O489 Dy481 2.307 1_545 S
O489 C504 1.266 . S
O490 Dy480 2.298 1_455 S
O490 C504 1.236 . S
O491 Dy481 2.395 . S
O491 C511 1.255 . S
O492 Dy481 2.379 . S
O492 C511 1.249 . S
C493 O483 1.267 1_455 S
C493 O484 1.234 . S
O494 Dy480 2.275 1_455 S
O494 C482 1.254 1_545 S
O495 Dy481 2.339 . S
O495 C482 1.257 . S
C496 C499 1.344 1_655 S
C496 C500 1.328 . S
C496 C502 1.516 . S
C497 C498 1.304 1_655 S
C497 C501 1.323 . S
C498 C497 1.304 1_455 S
C498 C499 1.371 . S
C498 H512 0.930 . S
C499 C496 1.344 1_455 S
C499 C498 1.371 . S
C499 H513 0.931 . S
C500 C496 1.328 . S
C500 C501 1.433 . S
C500 H514 0.931 . S
C501 C497 1.323 . S
C501 C500 1.433 . S
C501 H515 0.933 . S
C502 Dy480 2.738 . S
C502 O485 1.255 1_655 S
C502 O486 1.249 . S
C502 C496 1.516 . S
C503 O487 1.254 1_545 S
C503 O488 1.257 . S
C504 O489 1.266 . S
C504 O490 1.236 . S
C505 C508 1.344 . S
C505 C509 1.328 . S
C505 C511 1.516 . S
C506 C507 1.304 . S
C506 C510 1.323 . S
C507 C506 1.304 . S
C507 C508 1.371 . S
C507 H516 0.930 1_455 S
C508 C505 1.344 . S
C508 C507 1.371 . S
C508 H517 0.931 1_455 S
C509 C505 1.328 . S
C509 C510 1.433 . S
C509 H518 0.931 . S
C510 C506 1.323 . S
C510 C509 1.433 . S
C510 H519 0.933 . S
C511 Dy481 2.738 . S
C511 O491 1.255 . S
C511 O492 1.249 . S
C511 C505 1.516 . S
H512 C498 0.930 . S
H513 C499 0.931 . S
H514 C500 0.931 . S
H515 C501 0.933 . S
H516 C507 0.930 1_655 S
H517 C508 0.931 1_655 S
H518 C509 0.931 . S
H519 C510 0.933 . S
Dy520 O523 2.307 . S
Dy520 O525 2.395 1_565 S
Dy520 O526 2.379 . S
Dy520 O528 2.339 . S
Dy520 O530 2.298 . S
Dy520 O534 2.275 1_565 S
Dy520 C542 2.738 . S
Dy521 O524 2.298 . S
Dy521 O527 2.275 1_545 S
Dy521 O529 2.307 . S
Dy521 O531 2.395 1_545 S
Dy521 O532 2.379 . S
Dy521 O535 2.339 . S
Dy521 C551 2.738 . S
C522 O534 1.254 . S
C522 O535 1.257 . S
O523 Dy520 2.307 . S
O523 C533 1.266 . S
O524 Dy521 2.298 . S
O524 C533 1.236 1_545 S
O525 Dy520 2.395 1_545 S
O525 C542 1.255 1_545 S
O526 Dy520 2.379 . S
O526 C542 1.249 . S
O527 Dy521 2.275 1_565 S
O527 C543 1.254 . S
O528 Dy520 2.339 . S
O528 C543 1.257 . S
O529 Dy521 2.307 . S
O529 C544 1.266 . S
O530 Dy520 2.298 . S
O530 C544 1.236 1_565 S
O531 Dy521 2.395 1_565 S
O531 C551 1.255 1_565 S
O532 Dy521 2.379 . S
O532 C551 1.249 . S
C533 O523 1.266 . S
C533 O524 1.236 1_565 S
O534 Dy520 2.275 1_545 S
O534 C522 1.254 . S
O535 Dy521 2.339 . S
O535 C522 1.257 . S
C536 C539 1.301 1_565 S
C536 C540 1.328 . S
C536 C542 1.516 . S
C537 C538 1.313 . S
C537 C541 1.323 . S
C538 C537 1.313 . S
C538 C539 1.364 1_565 S
C538 H552 0.923 1_565 S
C539 C536 1.301 1_545 S
C539 C538 1.364 1_545 S
C539 H553 0.983 . S
C540 C536 1.328 . S
C540 C541 1.433 . S
C540 H554 0.931 . S
C541 C537 1.323 . S
C541 C540 1.433 . S
C541 H555 0.933 . S
C542 Dy520 2.738 . S
C542 O525 1.255 1_565 S
C542 O526 1.249 . S
C542 C536 1.516 . S
C543 O527 1.254 . S
C543 O528 1.257 . S
C544 O529 1.266 . S
C544 O530 1.236 1_545 S
C545 C548 1.311 1_545 S
C545 C549 1.328 . S
C545 C551 1.516 . S
C546 C547 1.325 . S
C546 C550 1.323 . S
C547 C546 1.325 . S
C547 C548 1.364 1_545 S
C547 H556 0.912 1_545 S
C548 C545 1.311 1_565 S
C548 C547 1.364 1_565 S
C548 H557 0.970 . S
C549 C545 1.328 . S
C549 C550 1.433 . S
C549 H558 0.931 . S
C550 C546 1.323 . S
C550 C549 1.433 . S
C550 H559 0.933 . S
C551 Dy521 2.738 . S
C551 O531 1.255 1_545 S
C551 O532 1.249 . S
C551 C545 1.516 . S
H552 C538 0.923 1_545 S
H553 C539 0.983 . S
H554 C540 0.931 . S
H555 C541 0.933 . S
H556 C547 0.912 1_565 S
H557 C548 0.970 . S
H558 C549 0.931 . S
H559 C550 0.933 . S
Dy560 O563 2.307 . S
Dy560 O565 2.395 . S
Dy560 O566 2.379 . S
Dy560 O568 2.339 . S
Dy560 O570 2.298 . S
Dy560 O574 2.275 . S
Dy560 C582 2.738 . S
Dy561 O564 2.298 . S
Dy561 O567 2.275 . S
Dy561 O569 2.307 . S
Dy561 O571 2.395 . S
Dy561 O572 2.379 . S
Dy561 O575 2.339 . S
Dy561 C591 2.738 . S
C562 O574 1.254 . S
C562 O575 1.257 . S
O563 Dy560 2.307 . S
O563 C573 1.266 . S
O564 Dy561 2.298 . S
O564 C573 1.236 . S
O565 Dy560 2.395 . S
O565 C582 1.255 . S
O566 Dy560 2.379 . S
O566 C582 1.249 . S
O567 Dy561 2.275 . S
O567 C583 1.254 . S
O568 Dy560 2.339 . S
O568 C583 1.257 . S
O569 Dy561 2.307 . S
O569 C584 1.266 . S
O570 Dy560 2.298 . S
O570 C584 1.236 . S
O571 Dy561 2.395 . S
O571 C591 1.255 . S
O572 Dy561 2.379 . S
O572 C591 1.249 . S
C573 O563 1.266 . S
C573 O564 1.236 . S
O574 Dy560 2.275 . S
O574 C562 1.254 . S
O575 Dy561 2.339 . S
O575 C562 1.257 . S
C576 C579 1.344 . S
C576 C580 1.328 . S
C576 C582 1.516 . S
C577 C578 1.304 . S
C577 C581 1.323 . S
C578 C577 1.304 . S
C578 C579 1.371 . S
C578 H592 0.930 . S
C579 C576 1.344 . S
C579 C578 1.371 . S
C579 H593 0.931 . S
C580 C576 1.328 . S
C580 C581 1.433 . S
C580 H594 0.931 . S
C581 C577 1.323 . S
C581 C580 1.433 . S
C581 H595 0.933 . S
C582 Dy560 2.738 . S
C582 O565 1.255 . S
C582 O566 1.249 . S
C582 C576 1.516 . S
C583 O567 1.254 . S
C583 O568 1.257 . S
C584 O569 1.266 . S
C584 O570 1.236 . S
C585 C588 1.344 . S
C585 C589 1.328 . S
C585 C591 1.516 . S
C586 C587 1.304 . S
C586 C590 1.323 . S
C587 C586 1.304 . S
C587 C588 1.371 . S
C587 H596 0.930 . S
C588 C585 1.344 . S
C588 C587 1.371 . S
C588 H597 0.931 . S
C589 C585 1.328 . S
C589 C590 1.433 . S
C589 H598 0.931 . S
C590 C586 1.323 . S
C590 C589 1.433 . S
C590 H599 0.933 . S
C591 Dy561 2.738 . S
C591 O571 1.255 . S
C591 O572 1.249 . S
C591 C585 1.516 . S
H592 C578 0.930 . S
H593 C579 0.931 . S
H594 C580 0.931 . S
H595 C581 0.933 . S
H596 C587 0.930 . S
H597 C588 0.931 . S
H598 C589 0.931 . S
H599 C590 0.933 . S
Dy600 O603 2.307 1_455 S
Dy600 O605 2.395 . S
Dy600 O606 2.379 . S
Dy600 O608 2.339 . S
Dy600 O610 2.298 . S
Dy600 O614 2.275 . S
Dy600 C622 2.738 . S
Dy601 O604 2.298 . S
Dy601 O607 2.275 1_655 S
Dy601 O609 2.307 1_655 S
Dy601 O611 2.395 . S
Dy601 O612 2.379 . S
Dy601 O615 2.339 . S
Dy601 C631 2.738 . S
C602 O614 1.254 . S
C602 O615 1.257 1_455 S
O603 Dy600 2.307 1_655 S
O603 C613 1.266 . S
O604 Dy601 2.298 . S
O604 C613 1.236 . S
O605 Dy600 2.395 . S
O605 C622 1.255 . S
O606 Dy600 2.379 . S
O606 C622 1.249 . S
O607 Dy601 2.275 1_455 S
O607 C623 1.254 . S
O608 Dy600 2.339 . S
O608 C623 1.257 . S
O609 Dy601 2.307 1_455 S
O609 C624 1.266 . S
O610 Dy600 2.298 . S
O610 C624 1.236 . S
O611 Dy601 2.395 . S
O611 C631 1.255 . S
O612 Dy601 2.379 . S
O612 C631 1.249 . S
C613 O603 1.266 . S
C613 O604 1.236 . S
O614 Dy600 2.275 . S
O614 C602 1.254 . S
O615 Dy601 2.339 . S
O615 C602 1.257 1_655 S
C616 C619 1.344 . S
C616 C620 1.328 . S
C616 C622 1.516 . S
C617 C618 1.304 . S
C617 C621 1.323 . S
C618 C617 1.304 . S
C618 C619 1.371 . S
C618 H632 0.930 . S
C619 C616 1.344 . S
C619 C618 1.371 . S
C619 H633 0.931 . S
C620 C616 1.328 . S
C620 C621 1.433 . S
C620 H634 0.931 . S
C621 C617 1.323 . S
C621 C620 1.433 . S
C621 H635 0.933 . S
C622 Dy600 2.738 . S
C622 O605 1.255 . S
C622 O606 1.249 . S
C622 C616 1.516 . S
C623 O607 1.254 . S
C623 O608 1.257 . S
C624 O609 1.266 . S
C624 O610 1.236 . S
C625 C628 1.344 . S
C625 C629 1.328 . S
C625 C631 1.516 . S
C626 C627 1.304 . S
C626 C630 1.323 . S
C627 C626 1.304 . S
C627 C628 1.371 . S
C627 H636 0.930 . S
C628 C625 1.344 . S
C628 C627 1.371 . S
C628 H637 0.931 . S
C629 C625 1.328 . S
C629 C630 1.433 . S
C629 H638 0.931 . S
C630 C626 1.323 . S
C630 C629 1.433 . S
C630 H639 0.933 . S
C631 Dy601 2.738 . S
C631 O611 1.255 . S
C631 O612 1.249 . S
C631 C625 1.516 . S
H632 C618 0.930 . S
H633 C619 0.931 . S
H634 C620 0.931 . S
H635 C621 0.933 . S
H636 C627 0.930 . S
H637 C628 0.931 . S
H638 C629 0.931 . S
H639 C630 0.933 . S
H640 C648 0.929 . S
H641 C650 0.930 . S
H642 C652 0.930 . S
H643 C655 0.929 . S
H644 C658 0.930 . S
H645 C660 0.960 . S
H646 C660 0.960 1_545 S
H647 C660 0.960 . S
C648 H640 0.929 . S
C648 C649 1.390 . S
C648 C650 1.384 . S
C649 C648 1.390 . S
C649 C655 1.376 1_545 S
C650 H641 0.930 . S
C650 C648 1.384 . S
C650 C651 1.372 . S
C651 C650 1.372 . S
C651 C652 1.400 1_545 S
C651 C656 1.490 . S
C652 H642 0.930 . S
C652 C651 1.400 1_565 S
C652 C655 1.386 . S
H653 C669 0.930 . S
H654 C670 0.931 . S
C655 H643 0.929 . S
C655 C649 1.376 1_565 S
C655 C652 1.386 . S
C656 C651 1.490 . S
C656 C658 1.395 . S
C656 C659 1.403 1_545 S
H657 C663 0.930 . S
C658 H644 0.930 . S
C658 C656 1.395 . S
C658 C661 1.403 . S
C659 C656 1.403 1_565 S
C659 C660 1.524 . S
C659 C663 1.400 . S
C660 H645 0.960 . S
C660 H646 0.960 1_565 S
C660 H647 0.960 . S
C660 C659 1.524 . S
C661 C658 1.403 . S
C661 C662 1.392 . S
C661 C665 1.495 . S
C662 C661 1.392 . S
C662 C663 1.385 1_545 S
C662 C664 1.480 . S
C663 H657 0.930 . S
C663 C659 1.400 . S
C663 C662 1.385 1_565 S
C664 C662 1.480 . S
C664 C666 1.401 . S
C664 C670 1.360 1_545 S
C665 C661 1.495 . S
C665 H671 0.959 . S
C665 H672 0.961 1_545 S
C665 H673 0.960 . S
C666 C664 1.401 . S
C666 C667 1.394 . S
C666 H674 0.930 . S
C667 C666 1.394 . S
C667 C668 1.383 1_545 S
C667 H675 0.929 . S
C668 C667 1.383 1_565 S
C668 C669 1.377 . S
C669 H653 0.930 . S
C669 C668 1.377 . S
C669 C670 1.379 . S
C670 H654 0.931 . S
C670 C664 1.360 1_565 S
C670 C669 1.379 . S
H671 C665 0.959 . S
H672 C665 0.961 1_565 S
H673 C665 0.960 . S
H674 C666 0.930 . S
H675 C667 0.929 . S
H676 C684 0.929 . S
H677 C686 0.930 . S
H678 C688 0.930 . S
H679 C691 0.929 . S
H680 C694 0.930 . S
H681 C696 0.960 . S
H682 C696 0.960 . S
H683 C696 0.960 . S
C684 H676 0.929 . S
C684 C685 1.377 . S
C684 C686 1.384 . S
C685 C684 1.377 . S
C685 C691 1.390 . S
C686 H677 0.930 . S
C686 C684 1.384 . S
C686 C687 1.372 . S
C687 C686 1.372 . S
C687 C688 1.400 . S
C687 C692 1.490 . S
C688 H678 0.930 . S
C688 C687 1.400 . S
C688 C691 1.386 . S
H689 C705 0.930 . S
H690 C706 0.931 . S
C691 H679 0.929 . S
C691 C685 1.390 . S
C691 C688 1.386 . S
C692 C687 1.490 . S
C692 C694 1.395 . S
C692 C695 1.403 . S
H693 C699 0.930 . S
C694 H680 0.930 . S
C694 C692 1.395 . S
C694 C697 1.403 . S
C695 C692 1.403 . S
C695 C696 1.524 . S
C695 C699 1.400 . S
C696 H681 0.960 . S
C696 H682 0.960 . S
C696 H683 0.960 . S
C696 C695 1.524 . S
C697 C694 1.403 . S
C697 C698 1.392 . S
C697 C701 1.495 . S
C698 C697 1.392 . S
C698 C699 1.385 . S
C698 C700 1.478 . S
C699 H693 0.930 . S
C699 C695 1.400 . S
C699 C698 1.385 . S
C700 C698 1.478 . S
C700 C702 1.381 . S
C700 C706 1.383 . S
C701 C697 1.495 . S
C701 H707 0.959 . S
C701 H708 0.961 . S
C701 H709 0.960 . S
C702 C700 1.381 . S
C702 C703 1.394 . S
C702 H710 0.930 . S
C703 C702 1.394 . S
C703 C704 1.383 . S
C703 H711 0.929 . S
C704 C703 1.383 . S
C704 C705 1.377 . S
C705 H689 0.930 . S
C705 C704 1.377 . S
C705 C706 1.379 . S
C706 H690 0.931 . S
C706 C700 1.383 . S
C706 C705 1.379 . S
H707 C701 0.959 . S
H708 C701 0.961 . S
H709 C701 0.960 . S
H710 C702 0.930 . S
H711 C703 0.929 . S
H712 C720 0.929 . S
H713 C722 0.930 . S
H714 C724 0.930 . S
H715 C727 0.929 . S
H716 C730 0.930 . S
H717 C732 0.960 . S
H718 C732 0.960 . S
H719 C732 0.960 . S
C720 H712 0.929 . S
C720 C721 1.377 . S
C720 C722 1.384 . S
C721 C720 1.377 . S
C721 C727 1.390 . S
C722 H713 0.930 . S
C722 C720 1.384 . S
C722 C723 1.372 . S
C723 C722 1.372 . S
C723 C724 1.400 . S
C723 C728 1.490 . S
C724 H714 0.930 . S
C724 C723 1.400 . S
C724 C727 1.386 . S
H725 C741 0.930 . S
H726 C742 0.931 . S
C727 H715 0.929 . S
C727 C721 1.390 . S
C727 C724 1.386 . S
C728 C723 1.490 . S
C728 C730 1.395 . S
C728 C731 1.403 . S
H729 C735 0.930 . S
C730 H716 0.930 . S
C730 C728 1.395 . S
C730 C733 1.403 . S
C731 C728 1.403 . S
C731 C732 1.524 . S
C731 C735 1.400 . S
C732 H717 0.960 . S
C732 H718 0.960 . S
C732 H719 0.960 . S
C732 C731 1.524 . S
C733 C730 1.403 . S
C733 C734 1.392 . S
C733 C737 1.495 . S
C734 C733 1.392 . S
C734 C735 1.385 . S
C734 C736 1.478 . S
C735 H729 0.930 . S
C735 C731 1.400 . S
C735 C734 1.385 . S
C736 C734 1.478 . S
C736 C738 1.381 . S
C736 C742 1.383 . S
C737 C733 1.495 . S
C737 H743 0.959 . S
C737 H744 0.961 . S
C737 H745 0.960 . S
C738 C736 1.381 . S
C738 C739 1.394 . S
C738 H746 0.930 . S
C739 C738 1.394 . S
C739 C740 1.383 . S
C739 H747 0.929 . S
C740 C739 1.383 . S
C740 C741 1.377 . S
C741 H725 0.930 . S
C741 C740 1.377 . S
C741 C742 1.379 . S
C742 H726 0.931 . S
C742 C736 1.383 . S
C742 C741 1.379 . S
H743 C737 0.959 . S
H744 C737 0.961 . S
H745 C737 0.960 . S
H746 C738 0.930 . S
H747 C739 0.929 . S
H748 C756 0.929 . S
H749 C758 0.930 . S
H750 C760 0.930 . S
H751 C763 0.929 . S
H752 C766 0.930 . S
H753 C768 0.960 . S
H754 C768 0.960 . S
H755 C768 0.960 . S
C756 H748 0.929 . S
C756 C757 1.377 . S
C756 C758 1.384 . S
C757 C756 1.377 . S
C757 C763 1.390 . S
C758 H749 0.930 . S
C758 C756 1.384 . S
C758 C759 1.372 . S
C759 C758 1.372 . S
C759 C760 1.400 . S
C759 C764 1.490 . S
C760 H750 0.930 . S
C760 C759 1.400 . S
C760 C763 1.386 . S
H761 C777 0.930 . S
H762 C778 0.931 . S
C763 H751 0.929 . S
C763 C757 1.390 . S
C763 C760 1.386 . S
C764 C759 1.490 . S
C764 C766 1.395 . S
C764 C767 1.403 . S
H765 C771 0.930 1_655 S
C766 H752 0.930 . S
C766 C764 1.395 . S
C766 C769 1.403 . S
C767 C764 1.403 . S
C767 C768 1.524 1_455 S
C767 C771 1.400 . S
C768 H753 0.960 . S
C768 H754 0.960 . S
C768 H755 0.960 . S
C768 C767 1.524 1_655 S
C769 C766 1.403 . S
C769 C770 1.392 . S
C769 C773 1.495 . S
C770 C769 1.392 . S
C770 C771 1.385 . S
C770 C772 1.478 . S
C771 H765 0.930 1_455 S
C771 C767 1.400 . S
C771 C770 1.385 . S
C772 C770 1.478 . S
C772 C774 1.381 . S
C772 C778 1.383 . S
C773 C769 1.495 . S
C773 H779 0.959 . S
C773 H780 0.961 . S
C773 H781 0.960 . S
C774 C772 1.381 . S
C774 C775 1.394 . S
C774 H782 0.930 . S
C775 C774 1.394 . S
C775 C776 1.383 . S
C775 H783 0.929 . S
C776 C775 1.383 . S
C776 C777 1.377 . S
C777 H761 0.930 . S
C777 C776 1.377 . S
C777 C778 1.379 . S
C778 H762 0.931 . S
C778 C772 1.383 . S
C778 C777 1.379 . S
H779 C773 0.959 . S
H780 C773 0.961 . S
H781 C773 0.960 . S
H782 C774 0.930 . S
H783 C775 0.929 . S
H784 C792 0.929 . S
H785 C794 0.930 1_556 S
H786 C796 0.930 . S
H787 C799 0.929 . S
H788 C802 0.930 . S
H789 C804 0.960 . S
H790 C804 0.960 . S
H791 C804 0.960 . S
C792 H784 0.929 . S
C792 C793 1.380 . S
C792 C794 1.384 . S
C793 C792 1.380 . S
C793 C799 1.387 1_565 S
C794 H785 0.930 1_554 S
C794 C792 1.384 . S
C794 C795 1.385 . S
C795 C794 1.385 . S
C795 C796 1.389 1_565 S
C795 C800 1.488 1_554 S
C796 H786 0.930 . S
C796 C795 1.389 1_545 S
C796 C799 1.386 . S
H797 C813 0.930 . S
H798 C814 0.931 . S
C799 H787 0.929 . S
C799 C793 1.387 1_545 S
C799 C796 1.386 . S
C800 C795 1.488 1_556 S
C800 C802 1.396 1_565 S
C800 C803 1.402 . S
H801 C807 0.930 . S
C802 H788 0.930 . S
C802 C800 1.396 1_545 S
C802 C805 1.403 . S
C803 C800 1.402 . S
C803 C804 1.524 1_556 S
C803 C807 1.400 . S
C804 H789 0.960 . S
C804 H790 0.960 . S
C804 H791 0.960 . S
C804 C803 1.524 1_554 S
C805 C802 1.403 . S
C805 C806 1.392 . S
C805 C809 1.495 . S
C806 C805 1.392 . S
C806 C807 1.385 1_545 S
C806 C808 1.478 . S
C807 H801 0.930 . S
C807 C803 1.400 . S
C807 C806 1.385 1_565 S
C808 C806 1.478 . S
C808 C810 1.381 1_545 S
C808 C814 1.383 . S
C809 C805 1.495 . S
C809 H815 0.959 . S
C809 H816 0.961 . S
C809 H817 0.960 . S
C810 C808 1.381 1_565 S
C810 C811 1.394 . S
C810 H818 0.930 . S
C811 C810 1.394 . S
C811 C812 1.383 1_565 S
C811 H819 0.929 . S
C812 C811 1.383 1_545 S
C812 C813 1.377 . S
C813 H797 0.930 . S
C813 C812 1.377 . S
C813 C814 1.379 . S
C814 H798 0.931 . S
C814 C808 1.383 . S
C814 C813 1.379 . S
H815 C809 0.959 . S
H816 C809 0.961 . S
H817 C809 0.960 . S
H818 C810 0.930 . S
H819 C811 0.929 . S
H820 C828 0.929 . S
H821 C830 0.930 . S
H822 C832 0.930 . S
H823 C835 0.929 . S
H824 C838 0.930 . S
H825 C840 0.960 . S
H826 C840 0.960 . S
H827 C840 0.960 . S
C828 H820 0.929 . S
C828 C829 1.377 . S
C828 C830 1.384 . S
C829 C828 1.377 . S
C829 C835 1.390 1_556 S
C830 H821 0.930 . S
C830 C828 1.384 . S
C830 C831 1.372 . S
C831 C830 1.372 . S
C831 C832 1.400 . S
C831 C836 1.490 . S
C832 H822 0.930 . S
C832 C831 1.400 . S
C832 C835 1.386 1_556 S
H833 C849 0.930 . S
H834 C850 0.931 . S
C835 H823 0.929 . S
C835 C829 1.390 1_554 S
C835 C832 1.386 1_554 S
C836 C831 1.490 . S
C836 C838 1.395 . S
C836 C839 1.403 . S
H837 C843 0.930 . S
C838 H824 0.930 . S
C838 C836 1.395 . S
C838 C841 1.403 . S
C839 C836 1.403 . S
C839 C840 1.524 . S
C839 C843 1.400 . S
C840 H825 0.960 . S
C840 H826 0.960 . S
C840 H827 0.960 . S
C840 C839 1.524 . S
C841 C838 1.403 . S
C841 C842 1.392 . S
C841 C845 1.495 . S
C842 C841 1.392 . S
C842 C843 1.385 . S
C842 C844 1.478 . S
C843 H837 0.930 . S
C843 C839 1.400 . S
C843 C842 1.385 . S
C844 C842 1.478 . S
C844 C846 1.381 . S
C844 C850 1.383 . S
C845 C841 1.495 . S
C845 H851 0.959 . S
C845 H852 0.961 . S
C845 H853 0.960 . S
C846 C844 1.381 . S
C846 C847 1.394 . S
C846 H854 0.930 . S
C847 C846 1.394 . S
C847 C848 1.383 . S
C847 H855 0.929 . S
C848 C847 1.383 . S
C848 C849 1.377 . S
C849 H833 0.930 . S
C849 C848 1.377 . S
C849 C850 1.379 . S
C850 H834 0.931 . S
C850 C844 1.383 . S
C850 C849 1.379 . S
H851 C845 0.959 . S
H852 C845 0.961 . S
H853 C845 0.960 . S
H854 C846 0.930 . S
H855 C847 0.929 . S
H856 C864 0.929 . S
H857 C866 0.930 . S
H858 C868 0.930 . S
H859 C871 0.929 . S
H860 C874 0.930 . S
H861 C876 0.960 . S
H862 C876 0.960 . S
H863 C876 0.960 . S
C864 H856 0.929 . S
C864 C865 1.377 . S
C864 C866 1.384 . S
C865 C864 1.377 . S
C865 C871 1.390 . S
C866 H857 0.930 . S
C866 C864 1.384 . S
C866 C867 1.372 . S
C867 C866 1.372 . S
C867 C868 1.400 . S
C867 C872 1.490 . S
C868 H858 0.930 . S
C868 C867 1.400 . S
C868 C871 1.386 . S
H869 C885 0.930 . S
H870 C886 0.931 . S
C871 H859 0.929 . S
C871 C865 1.390 . S
C871 C868 1.386 . S
C872 C867 1.490 . S
C872 C874 1.395 . S
C872 C875 1.403 . S
H873 C879 0.930 . S
C874 H860 0.930 . S
C874 C872 1.395 . S
C874 C877 1.403 . S
C875 C872 1.403 . S
C875 C876 1.524 . S
C875 C879 1.400 . S
C876 H861 0.960 . S
C876 H862 0.960 . S
C876 H863 0.960 . S
C876 C875 1.524 . S
C877 C874 1.403 . S
C877 C878 1.392 . S
C877 C881 1.495 . S
C878 C877 1.392 . S
C878 C879 1.385 . S
C878 C880 1.478 . S
C879 H873 0.930 . S
C879 C875 1.400 . S
C879 C878 1.385 . S
C880 C878 1.478 . S
C880 C882 1.381 . S
C880 C886 1.383 1_554 S
C881 C877 1.495 . S
C881 H887 0.959 . S
C881 H888 0.961 . S
C881 H889 0.960 . S
C882 C880 1.381 . S
C882 C883 1.394 1_554 S
C882 H890 0.930 . S
C883 C882 1.394 1_556 S
C883 C884 1.383 . S
C883 H891 0.929 . S
C884 C883 1.383 . S
C884 C885 1.377 . S
C885 H869 0.930 . S
C885 C884 1.377 . S
C885 C886 1.379 . S
C886 H870 0.931 . S
C886 C880 1.383 1_556 S
C886 C885 1.379 . S
H887 C881 0.959 . S
H888 C881 0.961 . S
H889 C881 0.960 . S
H890 C882 0.930 . S
H891 C883 0.929 . S
H892 C900 0.929 . S
H893 C902 0.930 . S
H894 C904 0.930 . S
H895 C907 0.929 . S
H896 C910 0.930 . S
H897 C912 0.960 . S
H898 C912 0.930 1_454 S
H899 C912 0.960 1_554 S
C900 H892 0.929 . S
C900 C901 1.377 1_455 S
C900 C902 1.384 . S
C901 C900 1.377 1_655 S
C901 C907 1.390 . S
C902 H893 0.930 . S
C902 C900 1.384 . S
C902 C903 1.372 1_455 S
C903 C902 1.372 1_655 S
C903 C904 1.400 . S
C903 C908 1.490 . S
C904 H894 0.930 . S
C904 C903 1.400 . S
C904 C907 1.386 . S
H905 C921 0.930 . S
H906 C922 0.931 . S
C907 H895 0.929 . S
C907 C901 1.390 . S
C907 C904 1.386 . S
C908 C903 1.490 . S
C908 C910 1.395 . S
C908 C911 1.403 1_554 S
H909 C915 0.930 . S
C910 H896 0.930 . S
C910 C908 1.395 . S
C910 C913 1.403 1_554 S
C911 C908 1.403 1_556 S
C911 C912 1.524 . S
C911 C915 1.400 . S
C912 H897 0.960 . S
C912 H898 0.930 1_656 S
C912 H899 0.960 1_556 S
C912 C911 1.524 . S
C913 C910 1.403 1_556 S
C913 C914 1.392 . S
C913 C917 1.495 1_655 S
C914 C913 1.392 . S
C914 C915 1.385 . S
C914 C916 1.478 . S
C915 H909 0.930 . S
C915 C911 1.400 . S
C915 C914 1.385 . S
C916 C914 1.478 . S
C916 C918 1.381 1_655 S
C916 C922 1.383 . S
C917 C913 1.495 1_455 S
C917 H923 0.959 1_556 S
C917 H924 0.961 1_455 S
C917 H925 0.960 . S
C918 C916 1.381 1_455 S
C918 C919 1.394 . S
C918 H926 0.930 . S
C919 C918 1.394 . S
C919 C920 1.383 . S
C919 H927 0.929 . S
C920 C919 1.383 . S
C920 C921 1.377 1_455 S
C921 H905 0.930 . S
C921 C920 1.377 1_655 S
C921 C922 1.379 . S
C922 H906 0.931 . S
C922 C916 1.383 . S
C922 C921 1.379 . S
H923 C917 0.959 1_554 S
H924 C917 0.961 1_655 S
H925 C917 0.960 . S
H926 C918 0.930 . S
H927 C919 0.929 . S
H928 C936 0.929 . S
H929 C938 0.930 . S
H930 C940 0.930 . S
H931 C943 0.929 . S
H932 C946 0.930 . S
H933 C948 0.960 . S
H934 C948 0.960 . S
H935 C948 0.960 . S
C936 H928 0.929 . S
C936 C937 1.377 . S
C936 C938 1.384 . S
C937 C936 1.377 . S
C937 C943 1.390 . S
C938 H929 0.930 . S
C938 C936 1.384 . S
C938 C939 1.372 . S
C939 C938 1.372 . S
C939 C940 1.400 . S
C939 C944 1.490 . S
C940 H930 0.930 . S
C940 C939 1.400 . S
C940 C943 1.386 . S
H941 C957 0.930 . S
H942 C958 0.931 . S
C943 H931 0.929 . S
C943 C937 1.390 . S
C943 C940 1.386 . S
C944 C939 1.490 . S
C944 C946 1.395 . S
C944 C947 1.403 1_455 S
H945 C951 0.930 . S
C946 H932 0.930 . S
C946 C944 1.395 . S
C946 C949 1.403 . S
C947 C944 1.403 1_655 S
C947 C948 1.524 . S
C947 C951 1.400 . S
C948 H933 0.960 . S
C948 H934 0.960 . S
C948 H935 0.960 . S
C948 C947 1.524 . S
C949 C946 1.403 . S
C949 C950 1.392 . S
C949 C953 1.495 . S
C950 C949 1.392 . S
C950 C951 1.385 1_455 S
C950 C952 1.478 . S
C951 H945 0.930 . S
C951 C947 1.400 . S
C951 C950 1.385 1_655 S
C952 C950 1.478 . S
C952 C954 1.381 . S
C952 C958 1.383 1_455 S
C953 C949 1.495 . S
C953 H959 0.959 . S
C953 H960 0.961 . S
C953 H961 0.960 . S
C954 C952 1.381 . S
C954 C955 1.375 1_455 S
C954 H962 0.930 . S
C955 C954 1.375 1_655 S
C955 C956 1.399 . S
C955 H963 0.933 . S
C956 C955 1.399 . S
C956 C957 1.377 . S
C957 H941 0.930 . S
C957 C956 1.377 . S
C957 C958 1.379 . S
C958 H942 0.931 . S
C958 C952 1.383 1_655 S
C958 C957 1.379 . S
H959 C953 0.959 . S
H960 C953 0.961 . S
H961 C953 0.960 . S
H962 C954 0.930 . S
H963 C955 0.933 . S
H964 C972 0.929 . S
H965 C974 0.930 . S
H966 C976 0.930 . S
H967 C979 0.929 . S
H968 C982 0.939 . S
H969 C984 0.960 . S
H970 C984 0.960 . S
H971 C984 0.960 . S
C972 H964 0.929 . S
C972 C973 1.355 1_565 S
C972 C974 1.384 . S
C973 C972 1.355 1_545 S
C973 C979 1.410 . S
C974 H965 0.930 . S
C974 C972 1.384 . S
C974 C975 1.372 . S
C975 C974 1.372 . S
C975 C976 1.400 1_565 S
C975 C980 1.490 . S
C976 H966 0.930 . S
C976 C975 1.400 1_545 S
C976 C979 1.386 . S
H977 C993 0.930 1_545 S
H978 C994 0.931 1_545 S
C979 H967 0.929 . S
C979 C973 1.410 . S
C979 C976 1.386 . S
C980 C975 1.490 . S
C980 C982 1.395 . S
C980 C983 1.403 . S
H981 C987 0.930 . S
C982 H968 0.939 . S
C982 C980 1.395 . S
C982 C985 1.403 . S
C983 C980 1.403 . S
C983 C984 1.524 . S
C983 C987 1.400 . S
C984 H969 0.960 . S
C984 H970 0.960 . S
C984 H971 0.960 . S
C984 C983 1.524 . S
C985 C982 1.403 . S
C985 C986 1.392 . S
C985 C989 1.495 . S
C986 C985 1.392 . S
C986 C987 1.385 . S
C986 C988 1.478 . S
C987 H981 0.930 . S
C987 C983 1.400 . S
C987 C986 1.385 . S
C988 C986 1.478 . S
C988 C990 1.381 . S
C988 C994 1.383 . S
C989 C985 1.495 . S
C989 H995 0.959 1_565 S
C989 H996 0.961 1_565 S
C989 H997 0.960 . S
C990 C988 1.381 . S
C990 C991 1.394 . S
C990 H998 0.930 . S
C991 C990 1.394 . S
C991 C992 1.383 . S
C991 H999 0.929 . S
C992 C991 1.383 . S
C992 C993 1.377 . S
C993 H977 0.930 1_565 S
C993 C992 1.377 . S
C993 C994 1.379 . S
C994 H978 0.931 1_565 S
C994 C988 1.383 . S
C994 C993 1.379 . S
H995 C989 0.959 1_545 S
H996 C989 0.961 1_545 S
H997 C989 0.960 . S
H998 C990 0.930 . S
H999 C991 0.929 . S
H1000 C1008 0.929 . S
H1001 C1010 0.930 . S
H1002 C1012 0.930 . S
H1003 C1015 0.929 . S
H1004 C1018 0.930 . S
H1005 C1020 0.960 . S
H1006 C1020 0.960 . S
H1007 C1020 0.960 . S
C1008 H1000 0.929 . S
C1008 C1009 1.377 . S
C1008 C1010 1.384 . S
C1009 C1008 1.377 . S
C1009 C1015 1.390 . S
C1010 H1001 0.930 . S
C1010 C1008 1.384 . S
C1010 C1011 1.372 . S
C1011 C1010 1.372 . S
C1011 C1012 1.400 . S
C1011 C1016 1.490 . S
C1012 H1002 0.930 . S
C1012 C1011 1.400 . S
C1012 C1015 1.386 . S
H1013 C1029 0.930 . S
H1014 C1030 0.931 . S
C1015 H1003 0.929 . S
C1015 C1009 1.390 . S
C1015 C1012 1.386 . S
C1016 C1011 1.490 . S
C1016 C1018 1.395 . S
C1016 C1019 1.403 . S
H1017 C1023 0.930 . S
C1018 H1004 0.930 . S
C1018 C1016 1.395 . S
C1018 C1021 1.403 . S
C1019 C1016 1.403 . S
C1019 C1020 1.524 . S
C1019 C1023 1.400 . S
C1020 H1005 0.960 . S
C1020 H1006 0.960 . S
C1020 H1007 0.960 . S
C1020 C1019 1.524 . S
C1021 C1018 1.403 . S
C1021 C1022 1.392 . S
C1021 C1025 1.495 . S
C1022 C1021 1.392 . S
C1022 C1023 1.385 . S
C1022 C1024 1.478 . S
C1023 H1017 0.930 . S
C1023 C1019 1.400 . S
C1023 C1022 1.385 . S
C1024 C1022 1.478 . S
C1024 C1026 1.381 . S
C1024 C1030 1.383 . S
C1025 C1021 1.495 . S
C1025 H1031 0.959 . S
C1025 H1032 0.961 . S
C1025 H1033 0.960 . S
C1026 C1024 1.381 . S
C1026 C1027 1.394 . S
C1026 H1034 0.930 . S
C1027 C1026 1.394 . S
C1027 C1028 1.383 . S
C1027 H1035 0.929 . S
C1028 C1027 1.383 . S
C1028 C1029 1.377 . S
C1029 H1013 0.930 . S
C1029 C1028 1.377 . S
C1029 C1030 1.379 . S
C1030 H1014 0.931 . S
C1030 C1024 1.383 . S
C1030 C1029 1.379 . S
H1031 C1025 0.959 . S
H1032 C1025 0.961 . S
H1033 C1025 0.960 . S
H1034 C1026 0.930 . S
H1035 C1027 0.929 . S
H1036 C1044 0.929 . S
H1037 C1046 0.930 . S
H1038 C1048 0.930 . S
H1039 C1051 0.929 . S
H1040 C1054 0.930 . S
H1041 C1056 0.960 . S
H1042 C1056 0.960 . S
H1043 C1056 0.960 . S
C1044 H1036 0.929 . S
C1044 C1045 1.377 . S
C1044 C1046 1.384 . S
C1045 C1044 1.377 . S
C1045 C1051 1.390 . S
C1046 H1037 0.930 . S
C1046 C1044 1.384 . S
C1046 C1047 1.372 . S
C1047 C1046 1.372 . S
C1047 C1048 1.400 . S
C1047 C1052 1.490 . S
C1048 H1038 0.930 . S
C1048 C1047 1.400 . S
C1048 C1051 1.386 . S
H1049 C1065 0.930 . S
H1050 C1066 0.931 . S
C1051 H1039 0.929 . S
C1051 C1045 1.390 . S
C1051 C1048 1.386 . S
C1052 C1047 1.490 . S
C1052 C1054 1.395 . S
C1052 C1055 1.403 . S
H1053 C1059 0.930 . S
C1054 H1040 0.930 . S
C1054 C1052 1.395 . S
C1054 C1057 1.403 . S
C1055 C1052 1.403 . S
C1055 C1056 1.524 . S
C1055 C1059 1.400 . S
C1056 H1041 0.960 . S
C1056 H1042 0.960 . S
C1056 H1043 0.960 . S
C1056 C1055 1.524 . S
C1057 C1054 1.403 . S
C1057 C1058 1.392 . S
C1057 C1061 1.495 . S
C1058 C1057 1.392 . S
C1058 C1059 1.385 . S
C1058 C1060 1.478 . S
C1059 H1053 0.930 . S
C1059 C1055 1.400 . S
C1059 C1058 1.385 . S
C1060 C1058 1.478 . S
C1060 C1062 1.381 . S
C1060 C1066 1.383 . S
C1061 C1057 1.495 . S
C1061 H1067 0.959 . S
C1061 H1068 0.961 . S
C1061 H1069 0.960 . S
C1062 C1060 1.381 . S
C1062 C1063 1.394 . S
C1062 H1070 0.930 . S
C1063 C1062 1.394 . S
C1063 C1064 1.383 . S
C1063 H1071 0.929 . S
C1064 C1063 1.383 . S
C1064 C1065 1.377 . S
C1065 H1049 0.930 . S
C1065 C1064 1.377 . S
C1065 C1066 1.379 . S
C1066 H1050 0.931 . S
C1066 C1060 1.383 . S
C1066 C1065 1.379 . S
H1067 C1061 0.959 . S
H1068 C1061 0.961 . S
H1069 C1061 0.960 . S
H1070 C1062 0.930 . S
H1071 C1063 0.929 . S
H1072 C1080 0.929 . S
H1073 C1082 0.930 . S
H1074 C1084 0.930 . S
H1075 C1087 0.933 . S
H1076 C1090 0.930 . S
H1077 C1092 0.960 . S
H1078 C1092 0.960 . S
H1079 C1092 0.960 . S
C1080 H1072 0.929 . S
C1080 C1081 1.377 . S
C1080 C1082 1.384 . S
C1081 C1080 1.377 . S
C1081 C1087 1.385 1_655 S
C1082 H1073 0.930 . S
C1082 C1080 1.384 . S
C1082 C1083 1.372 . S
C1083 C1082 1.372 . S
C1083 C1084 1.400 1_655 S
C1083 C1088 1.490 . S
C1084 H1074 0.930 . S
C1084 C1083 1.400 1_455 S
C1084 C1087 1.387 . S
H1085 C1101 0.930 . S
H1086 C1102 0.931 . S
C1087 H1075 0.933 . S
C1087 C1081 1.385 1_455 S
C1087 C1084 1.387 . S
C1088 C1083 1.490 . S
C1088 C1090 1.395 . S
C1088 C1091 1.403 1_654 S
H1089 C1095 0.930 . S
C1090 H1076 0.930 . S
C1090 C1088 1.395 . S
C1090 C1093 1.403 . S
C1091 C1088 1.403 1_456 S
C1091 C1092 1.524 . S
C1091 C1095 1.400 . S
C1092 H1077 0.960 . S
C1092 H1078 0.960 . S
C1092 H1079 0.960 . S
C1092 C1091 1.524 . S
C1093 C1090 1.403 . S
C1093 C1094 1.392 1_654 S
C1093 C1097 1.495 . S
C1094 C1093 1.392 1_456 S
C1094 C1095 1.385 . S
C1094 C1096 1.478 . S
C1095 H1089 0.930 . S
C1095 C1091 1.400 . S
C1095 C1094 1.385 . S
C1096 C1094 1.478 . S
C1096 C1098 1.381 1_455 S
C1096 C1102 1.383 . S
C1097 C1093 1.495 . S
C1097 H1103 0.959 . S
C1097 H1104 0.961 . S
C1097 H1105 0.960 1_554 S
C1098 C1096 1.381 1_655 S
C1098 C1099 1.394 1_655 S
C1098 H1106 0.930 . S
C1099 C1098 1.394 1_455 S
C1099 C1100 1.383 . S
C1099 H1107 0.929 1_455 S
C1100 C1099 1.383 . S
C1100 C1101 1.377 . S
C1101 H1085 0.930 . S
C1101 C1100 1.377 . S
C1101 C1102 1.379 . S
C1102 H1086 0.931 . S
C1102 C1096 1.383 . S
C1102 C1101 1.379 . S
H1103 C1097 0.959 . S
H1104 C1097 0.961 . S
H1105 C1097 0.960 1_556 S
H1106 C1098 0.930 . S
H1107 C1099 0.929 1_655 S
H1108 C1116 0.926 1_556 S
H1109 C1118 0.930 . S
H1110 C1120 0.930 . S
H1111 C1123 0.929 . S
H1112 C1126 0.930 1_565 S
H1113 C1128 0.960 . S
H1114 C1128 0.960 . S
H1115 C1128 0.960 . S
C1116 H1108 0.926 1_554 S
C1116 C1117 1.362 1_545 S
C1116 C1118 1.384 1_554 S
C1117 C1116 1.362 1_565 S
C1117 C1123 1.404 . S
C1118 H1109 0.930 . S
C1118 C1116 1.384 1_556 S
C1118 C1119 1.372 1_556 S
C1119 C1118 1.372 1_554 S
C1119 C1120 1.400 1_545 S
C1119 C1124 1.490 1_554 S
C1120 H1110 0.930 . S
C1120 C1119 1.400 1_565 S
C1120 C1123 1.386 . S
H1121 C1137 0.930 1_565 S
H1122 C1138 0.931 1_565 S
C1123 H1111 0.929 . S
C1123 C1117 1.404 . S
C1123 C1120 1.386 . S
C1124 C1119 1.490 1_556 S
C1124 C1126 1.395 . S
C1124 C1127 1.403 1_556 S
H1125 C1131 0.930 . S
C1126 H1112 0.930 1_545 S
C1126 C1124 1.395 . S
C1126 C1129 1.403 . S
C1127 C1124 1.403 1_554 S
C1127 C1128 1.524 . S
C1127 C1131 1.400 1_554 S
C1128 H1113 0.960 . S
C1128 H1114 0.960 . S
C1128 H1115 0.960 . S
C1128 C1127 1.524 . S
C1129 C1126 1.403 . S
C1129 C1130 1.392 . S
C1129 C1133 1.482 1_545 S
C1130 C1129 1.392 . S
C1130 C1131 1.385 . S
C1130 C1132 1.478 . S
C1131 H1125 0.930 . S
C1131 C1127 1.400 1_556 S
C1131 C1130 1.385 . S
C1132 C1130 1.478 . S
C1132 C1134 1.381 . S
C1132 C1138 1.383 . S
C1133 C1129 1.482 1_565 S
C1133 H1139 0.973 . S
C1133 H1140 1.008 . S
C1133 H1141 0.916 1_565 S
C1134 C1132 1.381 . S
C1134 C1135 1.394 . S
C1134 H1142 0.930 . S
C1135 C1134 1.394 . S
C1135 C1136 1.383 . S
C1135 H1143 0.929 . S
C1136 C1135 1.383 . S
C1136 C1137 1.377 . S
C1137 H1121 0.930 1_545 S
C1137 C1136 1.377 . S
C1137 C1138 1.379 . S
C1138 H1122 0.931 1_545 S
C1138 C1132 1.383 . S
C1138 C1137 1.379 . S
H1139 C1133 0.973 . S
H1140 C1133 1.008 . S
H1141 C1133 0.916 1_545 S
H1142 C1134 0.930 . S
H1143 C1135 0.929 . S
H1144 C1152 0.929 . S
H1145 C1154 0.930 . S
H1146 C1156 0.930 . S
H1147 C1159 0.929 . S
H1148 C1162 0.930 . S
H1149 C1164 0.960 . S
H1150 C1164 0.960 . S
H1151 C1164 0.960 . S
C1152 H1144 0.929 . S
C1152 C1153 1.377 . S
C1152 C1154 1.384 . S
C1153 C1152 1.377 . S
C1153 C1159 1.390 . S
C1154 H1145 0.930 . S
C1154 C1152 1.384 . S
C1154 C1155 1.372 . S
C1155 C1154 1.372 . S
C1155 C1156 1.400 . S
C1155 C1160 1.490 . S
C1156 H1146 0.930 . S
C1156 C1155 1.400 . S
C1156 C1159 1.386 . S
H1157 C1173 0.930 . S
H1158 C1174 0.931 . S
C1159 H1147 0.929 . S
C1159 C1153 1.390 . S
C1159 C1156 1.386 . S
C1160 C1155 1.490 . S
C1160 C1162 1.395 . S
C1160 C1163 1.403 . S
H1161 C1167 0.930 . S
C1162 H1148 0.930 . S
C1162 C1160 1.395 . S
C1162 C1165 1.403 . S
C1163 C1160 1.403 . S
C1163 C1164 1.524 . S
C1163 C1167 1.400 . S
C1164 H1149 0.960 . S
C1164 H1150 0.960 . S
C1164 H1151 0.960 . S
C1164 C1163 1.524 . S
C1165 C1162 1.403 . S
C1165 C1166 1.392 . S
C1165 C1169 1.495 . S
C1166 C1165 1.392 . S
C1166 C1167 1.385 . S
C1166 C1168 1.478 . S
C1167 H1161 0.930 . S
C1167 C1163 1.400 . S
C1167 C1166 1.385 . S
C1168 C1166 1.478 . S
C1168 C1170 1.381 . S
C1168 C1174 1.383 . S
C1169 C1165 1.495 . S
C1169 H1175 0.959 . S
C1169 H1176 0.961 . S
C1169 H1177 0.960 . S
C1170 C1168 1.381 . S
C1170 C1171 1.394 . S
C1170 H1178 0.930 . S
C1171 C1170 1.394 . S
C1171 C1172 1.383 . S
C1171 H1179 0.929 . S
C1172 C1171 1.383 . S
C1172 C1173 1.377 . S
C1173 H1157 0.930 . S
C1173 C1172 1.377 . S
C1173 C1174 1.379 . S
C1174 H1158 0.931 . S
C1174 C1168 1.383 . S
C1174 C1173 1.379 . S
H1175 C1169 0.959 . S
H1176 C1169 0.961 . S
H1177 C1169 0.960 . S
H1178 C1170 0.930 . S
H1179 C1171 0.929 . S
H1180 C1188 0.929 . S
H1181 C1190 0.930 . S
H1182 C1192 0.930 . S
H1183 C1195 0.929 . S
H1184 C1198 0.930 . S
H1185 C1200 0.960 . S
H1186 C1200 0.960 . S
H1187 C1200 0.960 . S
C1188 H1180 0.929 . S
C1188 C1189 1.377 . S
C1188 C1190 1.384 . S
C1189 C1188 1.377 . S
C1189 C1195 1.390 . S
C1190 H1181 0.930 . S
C1190 C1188 1.384 . S
C1190 C1191 1.372 . S
C1191 C1190 1.372 . S
C1191 C1192 1.400 . S
C1191 C1196 1.490 . S
C1192 H1182 0.930 . S
C1192 C1191 1.400 . S
C1192 C1195 1.386 . S
H1193 C1209 0.930 . S
H1194 C1210 0.931 1_554 S
C1195 H1183 0.929 . S
C1195 C1189 1.390 . S
C1195 C1192 1.386 . S
C1196 C1191 1.490 . S
C1196 C1198 1.395 . S
C1196 C1199 1.403 . S
H1197 C1203 0.930 . S
C1198 H1184 0.930 . S
C1198 C1196 1.395 . S
C1198 C1201 1.403 . S
C1199 C1196 1.403 . S
C1199 C1200 1.524 . S
C1199 C1203 1.400 . S
C1200 H1185 0.960 . S
C1200 H1186 0.960 . S
C1200 H1187 0.960 . S
C1200 C1199 1.524 . S
C1201 C1198 1.403 . S
C1201 C1202 1.392 . S
C1201 C1205 1.495 . S
C1202 C1201 1.392 . S
C1202 C1203 1.385 . S
C1202 C1204 1.478 1_554 S
C1203 H1197 0.930 . S
C1203 C1199 1.400 . S
C1203 C1202 1.385 . S
C1204 C1202 1.478 1_556 S
C1204 C1206 1.381 . S
C1204 C1210 1.383 . S
C1205 C1201 1.495 . S
C1205 H1211 0.959 . S
C1205 H1212 0.961 . S
C1205 H1213 0.960 1_554 S
C1206 C1204 1.381 . S
C1206 C1207 1.394 . S
C1206 H1214 0.930 . S
C1207 C1206 1.394 . S
C1207 C1208 1.383 . S
C1207 H1215 0.929 . S
C1208 C1207 1.383 . S
C1208 C1209 1.377 . S
C1209 H1193 0.930 . S
C1209 C1208 1.377 . S
C1209 C1210 1.379 . S
C1210 H1194 0.931 1_556 S
C1210 C1204 1.383 . S
C1210 C1209 1.379 . S
H1211 C1205 0.959 . S
H1212 C1205 0.961 . S
H1213 C1205 0.960 1_556 S
H1214 C1206 0.930 . S
H1215 C1207 0.929 . S
H1216 C1224 0.929 . S
H1217 C1226 0.930 . S
H1218 C1228 0.930 . S
H1219 C1231 0.929 . S
H1220 C1234 0.930 1_655 S
H1221 C1236 0.960 . S
H1222 C1236 0.960 . S
H1223 C1236 0.960 . S
C1224 H1216 0.929 . S
C1224 C1225 1.377 . S
C1224 C1226 1.384 . S
C1225 C1224 1.377 . S
C1225 C1231 1.390 . S
C1226 H1217 0.930 . S
C1226 C1224 1.384 . S
C1226 C1227 1.372 . S
C1227 C1226 1.372 . S
C1227 C1228 1.400 . S
C1227 C1232 1.490 . S
C1228 H1218 0.930 . S
C1228 C1227 1.400 . S
C1228 C1231 1.386 . S
H1229 C1245 0.930 . S
H1230 C1246 0.931 . S
C1231 H1219 0.929 . S
C1231 C1225 1.390 . S
C1231 C1228 1.386 . S
C1232 C1227 1.490 . S
C1232 C1234 1.395 . S
C1232 C1235 1.403 . S
H1233 C1239 0.930 . S
C1234 H1220 0.930 1_455 S
C1234 C1232 1.395 . S
C1234 C1237 1.403 . S
C1235 C1232 1.403 . S
C1235 C1236 1.524 . S
C1235 C1239 1.400 . S
C1236 H1221 0.960 . S
C1236 H1222 0.960 . S
C1236 H1223 0.960 . S
C1236 C1235 1.524 . S
C1237 C1234 1.403 . S
C1237 C1238 1.392 . S
C1237 C1241 1.495 1_455 S
C1238 C1237 1.392 . S
C1238 C1239 1.385 . S
C1238 C1240 1.478 . S
C1239 H1233 0.930 . S
C1239 C1235 1.400 . S
C1239 C1238 1.385 . S
C1240 C1238 1.478 . S
C1240 C1242 1.381 . S
C1240 C1246 1.383 . S
C1241 C1237 1.495 1_655 S
C1241 H1247 0.959 . S
C1241 H1248 0.961 . S
C1241 H1249 0.960 . S
C1242 C1240 1.381 . S
C1242 C1243 1.394 . S
C1242 H1250 0.930 . S
C1243 C1242 1.394 . S
C1243 C1244 1.383 . S
C1243 H1251 0.929 . S
C1244 C1243 1.383 . S
C1244 C1245 1.377 . S
C1245 H1229 0.930 . S
C1245 C1244 1.377 . S
C1245 C1246 1.379 . S
C1246 H1230 0.931 . S
C1246 C1240 1.383 . S
C1246 C1245 1.379 . S
H1247 C1241 0.959 . S
H1248 C1241 0.961 . S
H1249 C1241 0.960 . S
H1250 C1242 0.930 . S
H1251 C1243 0.929 . S
H1252 C1260 0.929 . S
H1253 C1262 0.930 . S
H1254 C1264 0.930 . S
H1255 C1267 0.929 . S
H1256 C1270 0.930 . S
H1257 C1272 0.960 . S
H1258 C1272 0.960 . S
H1259 C1272 0.960 1_565 S
C1260 H1252 0.929 . S
C1260 C1261 1.377 . S
C1260 C1262 1.384 . S
C1261 C1260 1.377 . S
C1261 C1267 1.390 1_545 S
C1262 H1253 0.930 . S
C1262 C1260 1.384 . S
C1262 C1263 1.372 . S
C1263 C1262 1.372 . S
C1263 C1264 1.400 1_545 S
C1263 C1268 1.490 . S
C1264 H1254 0.930 . S
C1264 C1263 1.400 1_565 S
C1264 C1267 1.386 . S
H1265 C1281 0.930 . S
H1266 C1282 0.931 . S
C1267 H1255 0.929 . S
C1267 C1261 1.390 1_565 S
C1267 C1264 1.386 . S
C1268 C1263 1.490 . S
C1268 C1270 1.395 . S
C1268 C1271 1.403 . S
H1269 C1275 0.930 . S
C1270 H1256 0.930 . S
C1270 C1268 1.395 . S
C1270 C1273 1.403 . S
C1271 C1268 1.403 . S
C1271 C1272 1.524 . S
C1271 C1275 1.400 . S
C1272 H1257 0.960 . S
C1272 H1258 0.960 . S
C1272 H1259 0.960 1_545 S
C1272 C1271 1.524 . S
C1273 C1270 1.403 . S
C1273 C1274 1.392 . S
C1273 C1277 1.495 . S
C1274 C1273 1.392 . S
C1274 C1275 1.385 . S
C1274 C1276 1.478 . S
C1275 H1269 0.930 . S
C1275 C1271 1.400 . S
C1275 C1274 1.385 . S
C1276 C1274 1.478 . S
C1276 C1278 1.381 . S
C1276 C1282 1.383 1_545 S
C1277 C1273 1.495 . S
C1277 H1283 0.959 . S
C1277 H1284 0.961 1_545 S
C1277 H1285 0.960 . S
C1278 C1276 1.381 . S
C1278 C1279 1.394 . S
C1278 H1286 0.930 . S
C1279 C1278 1.394 . S
C1279 C1280 1.383 . S
C1279 H1287 0.929 . S
C1280 C1279 1.383 . S
C1280 C1281 1.377 1_545 S
C1281 H1265 0.930 . S
C1281 C1280 1.377 1_565 S
C1281 C1282 1.379 . S
C1282 H1266 0.931 . S
C1282 C1276 1.383 1_565 S
C1282 C1281 1.379 . S
H1283 C1277 0.959 . S
H1284 C1277 0.961 1_565 S
H1285 C1277 0.960 . S
H1286 C1278 0.930 . S
H1287 C1279 0.929 . S
H1288 C1296 0.929 1_556 S
H1289 C1298 0.930 . S
H1290 C1300 0.930 . S
H1291 C1303 0.929 . S
H1292 C1306 0.930 . S
H1293 C1308 0.960 . S
H1294 C1308 0.960 . S
H1295 C1308 0.960 . S
C1296 H1288 0.929 1_554 S
C1296 C1297 1.377 . S
C1296 C1298 1.384 1_554 S
C1297 C1296 1.377 . S
C1297 C1303 1.390 . S
C1298 H1289 0.930 . S
C1298 C1296 1.384 1_556 S
C1298 C1299 1.372 . S
C1299 C1298 1.372 . S
C1299 C1300 1.400 1_556 S
C1299 C1304 1.490 . S
C1300 H1290 0.930 . S
C1300 C1299 1.400 1_554 S
C1300 C1303 1.386 . S
H1301 C1317 0.930 . S
H1302 C1318 0.931 . S
C1303 H1291 0.929 . S
C1303 C1297 1.390 . S
C1303 C1300 1.386 . S
C1304 C1299 1.490 . S
C1304 C1306 1.395 . S
C1304 C1307 1.403 . S
H1305 C1311 0.930 . S
C1306 H1292 0.930 . S
C1306 C1304 1.395 . S
C1306 C1309 1.403 . S
C1307 C1304 1.403 . S
C1307 C1308 1.524 1_556 S
C1307 C1311 1.400 . S
C1308 H1293 0.960 . S
C1308 H1294 0.960 . S
C1308 H1295 0.960 . S
C1308 C1307 1.524 1_554 S
C1309 C1306 1.403 . S
C1309 C1310 1.392 . S
C1309 C1313 1.495 . S
C1310 C1309 1.392 . S
C1310 C1311 1.385 . S
C1310 C1312 1.478 . S
C1311 H1305 0.930 . S
C1311 C1307 1.400 . S
C1311 C1310 1.385 . S
C1312 C1310 1.478 . S
C1312 C1314 1.381 . S
C1312 C1318 1.383 . S
C1313 C1309 1.495 . S
C1313 H1319 0.959 . S
C1313 H1320 0.961 . S
C1313 H1321 0.960 . S
C1314 C1312 1.381 . S
C1314 C1315 1.394 . S
C1314 H1322 0.930 . S
C1315 C1314 1.394 . S
C1315 C1316 1.383 . S
C1315 H1323 0.929 . S
C1316 C1315 1.383 . S
C1316 C1317 1.377 . S
C1317 H1301 0.930 . S
C1317 C1316 1.377 . S
C1317 C1318 1.379 . S
C1318 H1302 0.931 . S
C1318 C1312 1.383 . S
C1318 C1317 1.379 . S
H1319 C1313 0.959 . S
H1320 C1313 0.961 . S
H1321 C1313 0.960 . S
H1322 C1314 0.930 . S
H1323 C1315 0.929 . S
H1324 C1332 0.929 . S
H1325 C1334 0.930 . S
H1326 C1336 0.930 . S
H1327 C1339 0.929 . S
H1328 C1342 0.930 . S
H1329 C1344 0.960 . S
H1330 C1344 0.960 . S
H1331 C1344 0.960 . S
C1332 H1324 0.929 . S
C1332 C1333 1.377 . S
C1332 C1334 1.384 . S
C1333 C1332 1.377 . S
C1333 C1339 1.390 . S
C1334 H1325 0.930 . S
C1334 C1332 1.384 . S
C1334 C1335 1.372 . S
C1335 C1334 1.372 . S
C1335 C1336 1.400 . S
C1335 C1340 1.490 . S
C1336 H1326 0.930 . S
C1336 C1335 1.400 . S
C1336 C1339 1.386 . S
H1337 C1353 0.930 . S
H1338 C1354 0.931 . S
C1339 H1327 0.929 . S
C1339 C1333 1.390 . S
C1339 C1336 1.386 . S
C1340 C1335 1.490 . S
C1340 C1342 1.395 . S
C1340 C1343 1.403 . S
H1341 C1347 0.930 . S
C1342 H1328 0.930 . S
C1342 C1340 1.395 . S
C1342 C1345 1.403 . S
C1343 C1340 1.403 . S
C1343 C1344 1.524 . S
C1343 C1347 1.400 . S
C1344 H1329 0.960 . S
C1344 H1330 0.960 . S
C1344 H1331 0.960 . S
C1344 C1343 1.524 . S
C1345 C1342 1.403 . S
C1345 C1346 1.392 . S
C1345 C1349 1.495 . S
C1346 C1345 1.392 . S
C1346 C1347 1.385 . S
C1346 C1348 1.478 . S
C1347 H1341 0.930 . S
C1347 C1343 1.400 . S
C1347 C1346 1.385 . S
C1348 C1346 1.478 . S
C1348 C1350 1.381 . S
C1348 C1354 1.383 . S
C1349 C1345 1.495 . S
C1349 H1355 0.959 . S
C1349 H1356 0.961 . S
C1349 H1357 0.960 . S
C1350 C1348 1.381 . S
C1350 C1351 1.394 . S
C1350 H1358 0.930 . S
C1351 C1350 1.394 . S
C1351 C1352 1.383 . S
C1351 H1359 0.929 . S
C1352 C1351 1.383 . S
C1352 C1353 1.377 . S
C1353 H1337 0.930 . S
C1353 C1352 1.377 . S
C1353 C1354 1.379 . S
C1354 H1338 0.931 . S
C1354 C1348 1.383 . S
C1354 C1353 1.379 . S
H1355 C1349 0.959 . S
H1356 C1349 0.961 . S
H1357 C1349 0.960 . S
H1358 C1350 0.930 . S
H1359 C1351 0.929 . S
H1360 C1368 0.929 . S
H1361 C1370 0.930 . S
H1362 C1372 0.930 . S
H1363 C1375 0.929 . S
H1364 C1378 0.930 . S
H1365 C1380 0.960 . S
H1366 C1380 0.960 . S
H1367 C1380 0.960 . S
C1368 H1360 0.929 . S
C1368 C1369 1.377 . S
C1368 C1370 1.384 . S
C1369 C1368 1.377 . S
C1369 C1375 1.390 . S
C1370 H1361 0.930 . S
C1370 C1368 1.384 . S
C1370 C1371 1.372 . S
C1371 C1370 1.372 . S
C1371 C1372 1.400 . S
C1371 C1376 1.490 . S
C1372 H1362 0.930 . S
C1372 C1371 1.400 . S
C1372 C1375 1.386 . S
H1373 C1389 0.930 . S
H1374 C1390 0.931 . S
C1375 H1363 0.929 . S
C1375 C1369 1.390 . S
C1375 C1372 1.386 . S
C1376 C1371 1.490 . S
C1376 C1378 1.395 . S
C1376 C1379 1.403 1_655 S
H1377 C1383 0.930 . S
C1378 H1364 0.930 . S
C1378 C1376 1.395 . S
C1378 C1381 1.403 . S
C1379 C1376 1.403 1_455 S
C1379 C1380 1.524 . S
C1379 C1383 1.400 . S
C1380 H1365 0.960 . S
C1380 H1366 0.960 . S
C1380 H1367 0.960 . S
C1380 C1379 1.524 . S
C1381 C1378 1.403 . S
C1381 C1382 1.392 . S
C1381 C1385 1.495 . S
C1382 C1381 1.392 . S
C1382 C1383 1.385 1_655 S
C1382 C1384 1.478 . S
C1383 H1377 0.930 . S
C1383 C1379 1.400 . S
C1383 C1382 1.385 1_455 S
C1384 C1382 1.478 . S
C1384 C1386 1.381 . S
C1384 C1390 1.383 . S
C1385 C1381 1.495 . S
C1385 H1391 0.959 . S
C1385 H1392 0.961 . S
C1385 H1393 0.960 . S
C1386 C1384 1.381 . S
C1386 C1387 1.410 . S
C1386 H1394 0.931 1_655 S
C1387 C1386 1.410 . S
C1387 C1388 1.391 . S
C1387 H1395 0.910 1_655 S
C1388 C1387 1.391 . S
C1388 C1389 1.377 . S
C1389 H1373 0.930 . S
C1389 C1388 1.377 . S
C1389 C1390 1.379 . S
C1390 H1374 0.931 . S
C1390 C1384 1.383 . S
C1390 C1389 1.379 . S
H1391 C1385 0.959 . S
H1392 C1385 0.961 . S
H1393 C1385 0.960 . S
H1394 C1386 0.931 1_455 S
H1395 C1387 0.910 1_455 S
H1396 C1404 0.929 . S
H1397 C1406 0.930 . S
H1398 C1408 0.930 . S
H1399 C1411 0.929 . S
H1400 C1414 0.930 . S
H1401 C1416 0.960 . S
H1402 C1416 0.960 . S
H1403 C1416 0.960 . S
C1404 H1396 0.929 . S
C1404 C1405 1.395 . S
C1404 C1406 1.384 . S
C1405 C1404 1.395 . S
C1405 C1411 1.383 1_565 S
C1406 H1397 0.930 . S
C1406 C1404 1.384 . S
C1406 C1407 1.372 . S
C1407 C1406 1.372 . S
C1407 C1408 1.400 1_565 S
C1407 C1412 1.490 . S
C1408 H1398 0.930 . S
C1408 C1407 1.400 1_545 S
C1408 C1411 1.386 . S
H1409 C1425 0.930 . S
H1410 C1426 0.931 . S
C1411 H1399 0.929 . S
C1411 C1405 1.383 1_545 S
C1411 C1408 1.386 . S
C1412 C1407 1.490 . S
C1412 C1414 1.395 1_565 S
C1412 C1415 1.403 . S
H1413 C1419 0.930 . S
C1414 H1400 0.930 . S
C1414 C1412 1.395 1_545 S
C1414 C1417 1.403 . S
C1415 C1412 1.403 . S
C1415 C1416 1.524 . S
C1415 C1419 1.400 . S
C1416 H1401 0.960 . S
C1416 H1402 0.960 . S
C1416 H1403 0.960 . S
C1416 C1415 1.524 . S
C1417 C1414 1.403 . S
C1417 C1418 1.392 1_545 S
C1417 C1421 1.495 . S
C1418 C1417 1.392 1_565 S
C1418 C1419 1.385 . S
C1418 C1420 1.478 . S
C1419 H1413 0.930 . S
C1419 C1415 1.400 . S
C1419 C1418 1.385 . S
C1420 C1418 1.478 . S
C1420 C1422 1.381 . S
C1420 C1426 1.383 1_565 S
C1421 C1417 1.495 . S
C1421 H1427 0.959 . S
C1421 H1428 0.961 . S
C1421 H1429 0.960 . S
C1422 C1420 1.381 . S
C1422 C1423 1.394 . S
C1422 H1430 0.930 . S
C1423 C1422 1.394 . S
C1423 C1424 1.383 . S
C1423 H1431 0.929 . S
C1424 C1423 1.383 . S
C1424 C1425 1.377 1_565 S
C1425 H1409 0.930 . S
C1425 C1424 1.377 1_545 S
C1425 C1426 1.379 . S
C1426 H1410 0.931 . S
C1426 C1420 1.383 1_545 S
C1426 C1425 1.379 . S
H1427 C1421 0.959 . S
H1428 C1421 0.961 . S
H1429 C1421 0.960 . S
H1430 C1422 0.930 . S
H1431 C1423 0.929 . S
H1432 C1440 0.929 . S
H1433 C1442 0.930 . S
H1434 C1444 0.930 . S
H1435 C1447 0.929 . S
H1436 C1450 0.930 . S
H1437 C1452 0.960 . S
H1438 C1452 0.960 . S
H1439 C1452 0.960 . S
C1440 H1432 0.929 . S
C1440 C1441 1.377 . S
C1440 C1442 1.384 . S
C1441 C1440 1.377 . S
C1441 C1447 1.390 . S
C1442 H1433 0.930 . S
C1442 C1440 1.384 . S
C1442 C1443 1.372 . S
C1443 C1442 1.372 . S
C1443 C1444 1.400 . S
C1443 C1448 1.490 . S
C1444 H1434 0.930 . S
C1444 C1443 1.400 . S
C1444 C1447 1.386 . S
H1445 C1461 0.930 . S
H1446 C1462 0.931 . S
C1447 H1435 0.929 . S
C1447 C1441 1.390 . S
C1447 C1444 1.386 . S
C1448 C1443 1.490 . S
C1448 C1450 1.395 . S
C1448 C1451 1.403 . S
H1449 C1455 0.930 . S
C1450 H1436 0.930 . S
C1450 C1448 1.395 . S
C1450 C1453 1.403 . S
C1451 C1448 1.403 . S
C1451 C1452 1.524 . S
C1451 C1455 1.400 . S
C1452 H1437 0.960 . S
C1452 H1438 0.960 . S
C1452 H1439 0.960 . S
C1452 C1451 1.524 . S
C1453 C1450 1.403 . S
C1453 C1454 1.392 . S
C1453 C1457 1.495 . S
C1454 C1453 1.392 . S
C1454 C1455 1.385 . S
C1454 C1456 1.478 . S
C1455 H1449 0.930 . S
C1455 C1451 1.400 . S
C1455 C1454 1.385 . S
C1456 C1454 1.478 . S
C1456 C1458 1.381 . S
C1456 C1462 1.383 . S
C1457 C1453 1.495 . S
C1457 H1463 0.959 . S
C1457 H1464 0.961 . S
C1457 H1465 0.960 . S
C1458 C1456 1.381 . S
C1458 C1459 1.394 . S
C1458 H1466 0.930 . S
C1459 C1458 1.394 . S
C1459 C1460 1.383 . S
C1459 H1467 0.929 . S
C1460 C1459 1.383 . S
C1460 C1461 1.377 . S
C1461 H1445 0.930 . S
C1461 C1460 1.377 . S
C1461 C1462 1.379 . S
C1462 H1446 0.931 . S
C1462 C1456 1.383 . S
C1462 C1461 1.379 . S
H1463 C1457 0.959 . S
H1464 C1457 0.961 . S
H1465 C1457 0.960 . S
H1466 C1458 0.930 . S
H1467 C1459 0.929 . S
H1468 C1476 0.929 . S
H1469 C1478 0.930 . S
H1470 C1480 0.930 . S
H1471 C1483 0.929 . S
H1472 C1486 0.930 . S
H1473 C1488 0.960 . S
H1474 C1488 0.960 . S
H1475 C1488 0.960 . S
C1476 H1468 0.929 . S
C1476 C1477 1.377 . S
C1476 C1478 1.384 . S
C1477 C1476 1.377 . S
C1477 C1483 1.390 . S
C1478 H1469 0.930 . S
C1478 C1476 1.384 . S
C1478 C1479 1.372 . S
C1479 C1478 1.372 . S
C1479 C1480 1.400 . S
C1479 C1484 1.490 . S
C1480 H1470 0.930 . S
C1480 C1479 1.400 . S
C1480 C1483 1.386 . S
H1481 C1497 0.930 . S
H1482 C1498 0.931 . S
C1483 H1471 0.929 . S
C1483 C1477 1.390 . S
C1483 C1480 1.386 . S
C1484 C1479 1.490 . S
C1484 C1486 1.395 . S
C1484 C1487 1.403 . S
H1485 C1491 0.930 . S
C1486 H1472 0.930 . S
C1486 C1484 1.395 . S
C1486 C1489 1.403 . S
C1487 C1484 1.403 . S
C1487 C1488 1.524 . S
C1487 C1491 1.400 . S
C1488 H1473 0.960 . S
C1488 H1474 0.960 . S
C1488 H1475 0.960 . S
C1488 C1487 1.524 . S
C1489 C1486 1.403 . S
C1489 C1490 1.392 . S
C1489 C1493 1.495 . S
C1490 C1489 1.392 . S
C1490 C1491 1.385 . S
C1490 C1492 1.478 . S
C1491 H1485 0.930 . S
C1491 C1487 1.400 . S
C1491 C1490 1.385 . S
C1492 C1490 1.478 . S
C1492 C1494 1.381 . S
C1492 C1498 1.383 . S
C1493 C1489 1.495 . S
C1493 H1499 0.959 . S
C1493 H1500 0.961 . S
C1493 H1501 0.960 . S
C1494 C1492 1.381 . S
C1494 C1495 1.394 . S
C1494 H1502 0.930 . S
C1495 C1494 1.394 . S
C1495 C1496 1.383 . S
C1495 H1503 0.929 . S
C1496 C1495 1.383 . S
C1496 C1497 1.377 . S
C1497 H1481 0.930 . S
C1497 C1496 1.377 . S
C1497 C1498 1.379 . S
C1498 H1482 0.931 . S
C1498 C1492 1.383 . S
C1498 C1497 1.379 . S
H1499 C1493 0.959 . S
H1500 C1493 0.961 . S
H1501 C1493 0.960 . S
H1502 C1494 0.930 . S
H1503 C1495 0.929 . S
C649 C391 1.847 . S
C668 C482 1.848 . S
C704 C522 2.107 . S
C685 C451 2.107 . S
C740 C586 2.283 . S
C721 C241 2.049 . S
C776 C602 1.807 . S
C757 C331 1.501 . S
C812 C503 1.847 . S
C793 C121 1.685 . S
C829 C211 2.069 1_556 S
C848 C543 2.098 . S
C865 C31 2.293 . S
C884 C577 2.273 . S
C901 C91 1.525 . S
C920 C623 1.783 . S
C956 C497 0.270 . S
C937 C301 0.501 . S
C992 C537 0.360 . S
C973 C380 0.306 . S
C1028 C573 0.608 . S
C1009 C440 0.310 . S
C1045 C260 0.503 . S
C1064 C617 0.492 . S
C1081 C61 0.410 . S
C1100 C506 0.310 . S
C1136 C546 0.321 . S
C1117 C140 0.478 . S
C1172 C584 0.643 . S
C1153 C200 0.597 . S
C1189 C20 0.468 . S
C1208 C626 0.381 . S
C1225 C320 2.564 . S
C1244 C504 2.685 . S
C1261 C361 2.017 . S
C1280 C544 2.415 . S
C1316 C562 1.744 . S
C1297 C421 1.639 . S
C1352 C624 3.034 . S
C1333 C271 2.862 . S
C1369 C80 2.577 . S
C1388 C493 2.713 1_655 S
C1424 C533 2.402 . S
C1405 C151 2.308 . S
C1460 C583 1.791 . S
C1441 C181 1.594 . S
C1477 C1 2.509 . S
C1496 C613 3.035 . S
