# Generated by pormake.
# Topology ptr, (4,4)-cn, num edge types: 1
# Building blocks:
#     Node 0, Type 0, BuildingBlock: TATPOV_clean_sbu_0, # of connection points: 4
#     Node 1, Type 0, BuildingBlock: TATPOV_clean_sbu_0, # of connection points: 4
#     Node 2, Type 0, BuildingBlock: TATPOV_clean_sbu_0, # of connection points: 4
#     Node 3, Type 0, BuildingBlock: TATPOV_clean_sbu_0, # of connection points: 4
#     Node 4, Type 0, BuildingBlock: TATPOV_clean_sbu_0, # of connection points: 4
#     Node 5, Type 0, BuildingBlock: TATPOV_clean_sbu_0, # of connection points: 4
#     Node 6, Type 0, BuildingBlock: TATPOV_clean_sbu_0, # of connection points: 4
#     Node 7, Type 0, BuildingBlock: TATPOV_clean_sbu_0, # of connection points: 4
#     Node 8, Type 0, BuildingBlock: TATPOV_clean_sbu_0, # of connection points: 4
#     Node 9, Type 0, BuildingBlock: TATPOV_clean_sbu_0, # of connection points: 4
#     Node 10, Type 0, BuildingBlock: TATPOV_clean_sbu_0, # of connection points: 4
#     Node 11, Type 0, BuildingBlock: TATPOV_clean_sbu_0, # of connection points: 4
#     Node 12, Type 0, BuildingBlock: TATPOV_clean_sbu_0, # of connection points: 4
#     Node 13, Type 0, BuildingBlock: TATPOV_clean_sbu_0, # of connection points: 4
#     Node 14, Type 0, BuildingBlock: TATPOV_clean_sbu_0, # of connection points: 4
#     Node 15, Type 0, BuildingBlock: TATPOV_clean_sbu_0, # of connection points: 4
#     Node 16, Type 0, BuildingBlock: TATPOV_clean_sbu_0, # of connection points: 4
#     Node 17, Type 0, BuildingBlock: TATPOV_clean_sbu_0, # of connection points: 4
#     Node 18, Type 1, BuildingBlock: KUFVIS_clean_linker_0, # of connection points: 4
#     Node 19, Type 1, BuildingBlock: KUFVIS_clean_linker_0, # of connection points: 4
#     Node 20, Type 1, BuildingBlock: KUFVIS_clean_linker_0, # of connection points: 4
#     Node 21, Type 1, BuildingBlock: KUFVIS_clean_linker_0, # of connection points: 4
#     Node 22, Type 1, BuildingBlock: KUFVIS_clean_linker_0, # of connection points: 4
#     Node 23, Type 1, BuildingBlock: KUFVIS_clean_linker_0, # of connection points: 4
#     Node 24, Type 1, BuildingBlock: KUFVIS_clean_linker_0, # of connection points: 4
#     Node 25, Type 1, BuildingBlock: KUFVIS_clean_linker_0, # of connection points: 4
#     Node 26, Type 1, BuildingBlock: KUFVIS_clean_linker_0, # of connection points: 4
#     Node 27, Type 1, BuildingBlock: KUFVIS_clean_linker_0, # of connection points: 4
#     Node 28, Type 1, BuildingBlock: KUFVIS_clean_linker_0, # of connection points: 4
#     Node 29, Type 1, BuildingBlock: KUFVIS_clean_linker_0, # of connection points: 4
#     Node 30, Type 1, BuildingBlock: KUFVIS_clean_linker_0, # of connection points: 4
#     Node 31, Type 1, BuildingBlock: KUFVIS_clean_linker_0, # of connection points: 4
#     Node 32, Type 1, BuildingBlock: KUFVIS_clean_linker_0, # of connection points: 4
#     Node 33, Type 1, BuildingBlock: KUFVIS_clean_linker_0, # of connection points: 4
#     Node 34, Type 1, BuildingBlock: KUFVIS_clean_linker_0, # of connection points: 4
#     Node 35, Type 1, BuildingBlock: KUFVIS_clean_linker_0, # of connection points: 4
#     Edge 36, Type (0, 1), BuildingBlock: ZUJKAS_clean_linker_0, # of connection points: 2
#     Edge 37, Type (0, 1), BuildingBlock: ZUJKAS_clean_linker_0, # of connection points: 2
#     Edge 38, Type (0, 1), BuildingBlock: ZUJKAS_clean_linker_0, # of connection points: 2
#     Edge 39, Type (0, 1), BuildingBlock: ZUJKAS_clean_linker_0, # of connection points: 2
#     Edge 40, Type (0, 1), BuildingBlock: ZUJKAS_clean_linker_0, # of connection points: 2
#     Edge 41, Type (0, 1), BuildingBlock: ZUJKAS_clean_linker_0, # of connection points: 2
#     Edge 42, Type (0, 1), BuildingBlock: ZUJKAS_clean_linker_0, # of connection points: 2
#     Edge 43, Type (0, 1), BuildingBlock: ZUJKAS_clean_linker_0, # of connection points: 2
#     Edge 44, Type (0, 1), BuildingBlock: ZUJKAS_clean_linker_0, # of connection points: 2
#     Edge 45, Type (0, 1), BuildingBlock: ZUJKAS_clean_linker_0, # of connection points: 2
#     Edge 46, Type (0, 1), BuildingBlock: ZUJKAS_clean_linker_0, # of connection points: 2
#     Edge 47, Type (0, 1), BuildingBlock: ZUJKAS_clean_linker_0, # of connection points: 2
#     Edge 48, Type (0, 1), BuildingBlock: ZUJKAS_clean_linker_0, # of connection points: 2
#     Edge 49, Type (0, 1), BuildingBlock: ZUJKAS_clean_linker_0, # of connection points: 2
#     Edge 50, Type (0, 1), BuildingBlock: ZUJKAS_clean_linker_0, # of connection points: 2
#     Edge 51, Type (0, 1), BuildingBlock: ZUJKAS_clean_linker_0, # of connection points: 2
#     Edge 52, Type (0, 1), BuildingBlock: ZUJKAS_clean_linker_0, # of connection points: 2
#     Edge 53, Type (0, 1), BuildingBlock: ZUJKAS_clean_linker_0, # of connection points: 2
#     Edge 54, Type (0, 1), BuildingBlock: ZUJKAS_clean_linker_0, # of connection points: 2
#     Edge 55, Type (0, 1), BuildingBlock: ZUJKAS_clean_linker_0, # of connection points: 2
#     Edge 56, Type (0, 1), BuildingBlock: ZUJKAS_clean_linker_0, # of connection points: 2
#     Edge 57, Type (0, 1), BuildingBlock: ZUJKAS_clean_linker_0, # of connection points: 2
#     Edge 58, Type (0, 1), BuildingBlock: ZUJKAS_clean_linker_0, # of connection points: 2
#     Edge 59, Type (0, 1), BuildingBlock: ZUJKAS_clean_linker_0, # of connection points: 2
#     Edge 60, Type (0, 1), BuildingBlock: ZUJKAS_clean_linker_0, # of connection points: 2
#     Edge 61, Type (0, 1), BuildingBlock: ZUJKAS_clean_linker_0, # of connection points: 2
#     Edge 62, Type (0, 1), BuildingBlock: ZUJKAS_clean_linker_0, # of connection points: 2
#     Edge 63, Type (0, 1), BuildingBlock: ZUJKAS_clean_linker_0, # of connection points: 2
#     Edge 64, Type (0, 1), BuildingBlock: ZUJKAS_clean_linker_0, # of connection points: 2
#     Edge 65, Type (0, 1), BuildingBlock: ZUJKAS_clean_linker_0, # of connection points: 2
#     Edge 66, Type (0, 1), BuildingBlock: ZUJKAS_clean_linker_0, # of connection points: 2
#     Edge 67, Type (0, 1), BuildingBlock: ZUJKAS_clean_linker_0, # of connection points: 2
#     Edge 68, Type (0, 1), BuildingBlock: ZUJKAS_clean_linker_0, # of connection points: 2
#     Edge 69, Type (0, 1), BuildingBlock: ZUJKAS_clean_linker_0, # of connection points: 2
#     Edge 70, Type (0, 1), BuildingBlock: ZUJKAS_clean_linker_0, # of connection points: 2
#     Edge 71, Type (0, 1), BuildingBlock: ZUJKAS_clean_linker_0, # of connection points: 2
#     Edge 72, Type (0, 1), BuildingBlock: ZUJKAS_clean_linker_0, # of connection points: 2
#     Edge 73, Type (0, 1), BuildingBlock: ZUJKAS_clean_linker_0, # of connection points: 2
#     Edge 74, Type (0, 1), BuildingBlock: ZUJKAS_clean_linker_0, # of connection points: 2
#     Edge 75, Type (0, 1), BuildingBlock: ZUJKAS_clean_linker_0, # of connection points: 2
#     Edge 76, Type (0, 1), BuildingBlock: ZUJKAS_clean_linker_0, # of connection points: 2
#     Edge 77, Type (0, 1), BuildingBlock: ZUJKAS_clean_linker_0, # of connection points: 2
#     Edge 78, Type (0, 1), BuildingBlock: ZUJKAS_clean_linker_0, # of connection points: 2
#     Edge 79, Type (0, 1), BuildingBlock: ZUJKAS_clean_linker_0, # of connection points: 2
#     Edge 80, Type (0, 1), BuildingBlock: ZUJKAS_clean_linker_0, # of connection points: 2
#     Edge 81, Type (0, 1), BuildingBlock: ZUJKAS_clean_linker_0, # of connection points: 2
#     Edge 82, Type (0, 1), BuildingBlock: ZUJKAS_clean_linker_0, # of connection points: 2
#     Edge 83, Type (0, 1), BuildingBlock: ZUJKAS_clean_linker_0, # of connection points: 2
#     Edge 84, Type (0, 1), BuildingBlock: ZUJKAS_clean_linker_0, # of connection points: 2
#     Edge 85, Type (0, 1), BuildingBlock: ZUJKAS_clean_linker_0, # of connection points: 2
#     Edge 86, Type (0, 1), BuildingBlock: ZUJKAS_clean_linker_0, # of connection points: 2
#     Edge 87, Type (0, 1), BuildingBlock: ZUJKAS_clean_linker_0, # of connection points: 2
#     Edge 88, Type (0, 1), BuildingBlock: ZUJKAS_clean_linker_0, # of connection points: 2
#     Edge 89, Type (0, 1), BuildingBlock: ZUJKAS_clean_linker_0, # of connection points: 2
#     Edge 90, Type (0, 1), BuildingBlock: ZUJKAS_clean_linker_0, # of connection points: 2
#     Edge 91, Type (0, 1), BuildingBlock: ZUJKAS_clean_linker_0, # of connection points: 2
#     Edge 92, Type (0, 1), BuildingBlock: ZUJKAS_clean_linker_0, # of connection points: 2
#     Edge 93, Type (0, 1), BuildingBlock: ZUJKAS_clean_linker_0, # of connection points: 2
#     Edge 94, Type (0, 1), BuildingBlock: ZUJKAS_clean_linker_0, # of connection points: 2
#     Edge 95, Type (0, 1), BuildingBlock: ZUJKAS_clean_linker_0, # of connection points: 2
#     Edge 96, Type (0, 1), BuildingBlock: ZUJKAS_clean_linker_0, # of connection points: 2
#     Edge 97, Type (0, 1), BuildingBlock: ZUJKAS_clean_linker_0, # of connection points: 2
#     Edge 98, Type (0, 1), BuildingBlock: ZUJKAS_clean_linker_0, # of connection points: 2
#     Edge 99, Type (0, 1), BuildingBlock: ZUJKAS_clean_linker_0, # of connection points: 2
#     Edge 100, Type (0, 1), BuildingBlock: ZUJKAS_clean_linker_0, # of connection points: 2
#     Edge 101, Type (0, 1), BuildingBlock: ZUJKAS_clean_linker_0, # of connection points: 2
#     Edge 102, Type (0, 1), BuildingBlock: ZUJKAS_clean_linker_0, # of connection points: 2
#     Edge 103, Type (0, 1), BuildingBlock: ZUJKAS_clean_linker_0, # of connection points: 2
#     Edge 104, Type (0, 1), BuildingBlock: ZUJKAS_clean_linker_0, # of connection points: 2
#     Edge 105, Type (0, 1), BuildingBlock: ZUJKAS_clean_linker_0, # of connection points: 2
#     Edge 106, Type (0, 1), BuildingBlock: ZUJKAS_clean_linker_0, # of connection points: 2
#     Edge 107, Type (0, 1), BuildingBlock: ZUJKAS_clean_linker_0, # of connection points: 2
# Relax obj value: 0.070
# Max RMSD: 0.192
# Mean RMSD: 0.120
data_MOF--net-ptr--node1-TATPOV_clean_sbu_0--node2-KUFVIS_clean_linker_0--edge1-ZUJKAS_clean_linker_0
_symmetry_space_group_name_H-M    P1
_symmetry_Int_Tables_number       1
_symmetry_cell_setting            triclinic
loop_
_symmetry_equiv_pos_as_xyz
'x, y, z'
_cell_length_a     101.36638
_cell_length_b     102.64707
_cell_length_c     61.266017
_cell_angle_alpha  89.537712
_cell_angle_beta   90.991556
_cell_angle_gamma 121.24438
loop_
_atom_site_label
_atom_site_type_symbol
_atom_site_fract_x
_atom_site_fract_y
_atom_site_fract_z
_atom_type_partial_charge
Zn0 Zn 0.97567 0.367 0.01171 0.0
Zn1 Zn 1.00194 0.36757 0.01569 0.0
O2 O 0.98472 0.34438 0.0135 0.0
O3 O 0.96293 0.34423 0.01307 0.0
O4 O 0.02147 0.36684 0.02069 0.0
O5 O 0.98023 0.37958 0.03879 0.0
O6 O 1.00194 0.37978 0.04271 0.0
C7 C 0.96997 0.33703 0.0131 0.0
C8 C 0.99641 0.38286 0.97634 0.0
O9 O 1.00549 0.38006 0.9873 0.0
O10 O 0.98281 0.37787 0.98285 0.0
C11 C 0.03061 0.36783 0.00589 0.0
O12 O 0.02769 0.36967 0.98549 0.0
C13 C 0.99268 0.3838 0.04926 0.0
Zn14 Zn 0.64532 0.6163 -0.00109 0.0
Zn15 Zn 0.6474 0.64203 0.01042 0.0
O16 O 0.67052 0.64805 0.00673 0.0
O17 O 0.66822 0.62614 -0.00162 0.0
O18 O 0.64835 0.66166 0.01881 0.0
O19 O 0.63382 0.60612 0.02619 0.0
O20 O 0.63593 0.62763 0.03643 0.0
C21 C 0.67669 0.64025 0.00223 0.0
C22 C 0.62907 0.6244 0.96902 0.0
O23 O 0.63352 0.63537 0.9825 0.0
O24 O 0.63324 0.61482 0.97181 0.0
C25 C 0.65753 0.67462 0.0104 0.0
O26 O 0.66744 0.67575 0.99585 0.0
C27 C 0.63117 0.6136 0.03992 0.0
Zn28 Zn 0.37611 0.99022 0.02207 0.0
Zn29 Zn 0.3775 0.01658 0.01796 0.0
O30 O 0.35387 1.00024 0.02049 0.0
O31 O 0.35304 0.9784 0.02193 0.0
O32 O 0.37775 0.03633 0.01285 0.0
O33 O 0.38764 0.99373 0.99417 0.0
O34 O 0.38843 0.01545 0.99039 0.0
C35 C 0.34609 0.98568 0.0215 0.0
C36 C 0.39404 0.01123 0.05644 0.0
O37 O 0.39118 0.02023 0.04569 0.0
O38 O 0.38825 0.99756 0.05027 0.0
C39 C 0.3744 0.04318 0.02693 0.0
O40 O 0.37072 0.03754 0.04673 0.0
C41 C 0.39179 0.00584 0.9835 0.0
Zn42 Zn 0.03975 0.64498 0.01458 0.0
Zn43 Zn 0.01423 0.64586 0.01021 0.0
O44 O 0.03237 0.66872 0.01153 0.0
O45 O 0.05347 0.66766 0.01334 0.0
O46 O 0.99534 0.64774 0.00517 0.0
O47 O 0.03457 0.63217 0.98753 0.0
O48 O 0.01334 0.63288 0.98366 0.0
C49 C 0.04709 0.67547 0.01248 0.0
C50 C 0.01879 0.63023 0.05007 0.0
O51 O 0.01014 0.63357 0.03902 0.0
O52 O 0.0322 0.63442 0.04349 0.0
C53 C 0.98992 0.6525 0.01958 0.0
O54 O 0.9965 0.65611 0.03903 0.0
C55 C 0.02214 0.62828 0.97719 0.0
Zn56 Zn 0.36773 0.39695 0.02411 0.0
Zn57 Zn 0.36629 0.37125 0.01377 0.0
O58 O 0.34319 0.36519 0.01688 0.0
O59 O 0.34474 0.38696 0.02371 0.0
O60 O 0.36459 0.3512 0.00604 0.0
O61 O 0.37972 0.40686 0.99696 0.0
O62 O 0.37805 0.38538 0.98766 0.0
C63 C 0.33662 0.37274 0.0204 0.0
C64 C 0.38388 0.38921 0.05522 0.0
O65 O 0.37993 0.37823 0.04194 0.0
O66 O 0.37939 0.39851 0.05187 0.0
C67 C 0.35851 0.33985 0.01896 0.0
O68 O 0.35327 0.34121 0.03774 0.0
C69 C 0.38273 0.39935 0.98376 0.0
Zn70 Zn 0.63757 0.02462 0.99575 0.0
Zn71 Zn 0.63896 0.99979 -0.00023 0.0
O72 O 0.66206 0.01788 -0.00223 0.0
O73 O 0.66041 0.03842 0.99666 0.0
O74 O 0.64049 0.9808 0.00377 0.0
O75 O 0.62541 0.01975 0.02317 0.0
O76 O 0.62716 0.9994 0.02745 0.0
C77 C 0.66858 0.0324 0.99708 0.0
C78 C 0.6215 1.00372 0.96092 0.0
O79 O 0.62518 0.99539 0.97185 0.0
O80 O 0.62618 0.01718 0.96715 0.0
C81 C 0.65172 0.97968 0.99723 0.0
O82 O 0.66301 0.99116 0.98674 0.0
C83 C 0.6224 0.00801 0.03402 0.0
Zn84 Zn 0.64319 0.70056 0.33974 0.0
Zn85 Zn 0.66967 0.70229 0.34803 0.0
O86 O 0.65329 0.67888 0.34467 0.0
O87 O 0.63114 0.67783 0.34093 0.0
O88 O 0.68948 0.70242 0.35487 0.0
O89 O 0.64571 0.71267 0.36678 0.0
O90 O 0.66733 0.71336 0.37471 0.0
C91 C 0.63859 0.67109 0.34262 0.0
C92 C 0.66567 0.71749 0.30709 0.0
O93 O 0.67446 0.71549 0.32003 0.0
O94 O 0.65146 0.71146 0.31114 0.0
C95 C 0.69597 0.69863 0.34075 0.0
O96 O 0.68988 0.69487 0.32101 0.0
C97 C 0.65726 0.7168 0.37935 0.0
Zn98 Zn 0.32233 0.9502 0.35432 0.0
Zn99 Zn 0.32152 0.97487 0.35421 0.0
O100 O 0.34505 0.98206 0.3507 0.0
O101 O 0.34465 0.9605 0.34838 0.0
O102 O 0.32162 0.99477 0.35726 0.0
O103 O 0.31521 0.94457 0.38476 0.0
O104 O 0.31056 0.96324 0.38291 0.0
C105 C 0.35216 0.97489 0.34828 0.0
C106 C 0.30221 0.95011 0.32067 0.0
O107 O 0.30755 0.96381 0.32702 0.0
O108 O 0.30654 0.94191 0.3301 0.0
C109 C 0.32986 0.00672 0.34597 0.0
O110 O 0.33873 0.00643 0.33084 0.0
C111 C 0.30956 0.95182 0.393 0.0
Zn112 Zn 0.03547 0.31577 0.36216 0.0
Zn113 Zn 0.03772 0.34217 0.35419 0.0
O114 O 0.01405 0.32625 0.3585 0.0
O115 O 0.01259 0.30437 0.36421 0.0
O116 O 0.0384 0.36227 0.34876 0.0
O117 O 0.04524 0.31694 0.33348 0.0
O118 O 0.04735 0.33901 0.32643 0.0
C119 C 1.00598 0.3119 0.36199 0.0
C120 C 0.05525 0.33829 0.39324 0.0
O121 O 0.05227 0.34676 0.38134 0.0
O122 O 0.04888 0.32423 0.38898 0.0
C123 C 0.02731 0.36256 0.33914 0.0
O124 O 0.01535 0.34969 0.33219 0.0
C125 C 0.04951 0.32827 0.32098 0.0
Zn126 Zn 0.71461 0.98573 0.33277 0.0
Zn127 Zn 0.68768 0.98351 0.33731 0.0
O128 O 0.70432 0.00684 0.33748 0.0
O129 O 0.72625 0.00844 0.32983 0.0
O130 O 0.66743 0.9833 0.33661 0.0
O131 O 0.70763 0.97242 0.30632 0.0
O132 O 0.68514 0.9705 0.30983 0.0
C133 C 0.71876 0.01487 0.33374 0.0
C134 C 0.6988 0.97044 0.3728 0.0
O135 O 0.68801 0.97228 0.3654 0.0
O136 O 0.71124 0.97569 0.36235 0.0
C137 C 0.66515 0.99268 0.34689 0.0
O138 O 0.67604 1.00265 0.36005 0.0
C139 C 0.69383 0.96698 0.29987 0.0
Zn140 Zn 0.02542 0.72801 0.33099 0.0
Zn141 Zn 0.02788 0.70396 0.33059 0.0
O142 O 1.00404 0.69533 0.33378 0.0
O143 O 1.00282 0.71607 0.33573 0.0
O144 O 0.02941 0.68495 0.32772 0.0
O145 O 0.03336 0.73439 0.30093 0.0
O146 O 0.0386 0.7161 0.30216 0.0
C147 C 0.99611 0.7017 0.33586 0.0
C148 C 0.04554 0.72857 0.36517 0.0
O149 O 0.04123 0.71526 0.35802 0.0
O150 O 0.04054 0.73634 0.35615 0.0
C151 C 0.02173 0.67298 0.33919 0.0
O152 O 0.01238 0.67271 0.35403 0.0
C153 C 0.03941 0.72756 0.29248 0.0
Zn154 Zn 0.31391 0.36101 0.33891 0.0
Zn155 Zn 0.31252 0.33491 0.34201 0.0
O156 O 0.33627 0.3516 0.34126 0.0
O157 O 0.33675 0.37327 0.34137 0.0
O158 O 0.312 0.31485 0.34587 0.0
O159 O 0.30079 0.35659 0.36516 0.0
O160 O 0.30025 0.335 0.36887 0.0
C161 C 0.34389 0.36619 0.34143 0.0
C162 C 0.29807 0.34184 0.30241 0.0
O163 O 0.30005 0.33228 0.31326 0.0
O164 O 0.30371 0.3553 0.3094 0.0
C165 C 0.32056 0.31142 0.33546 0.0
O166 O 0.33015 0.3211 0.32104 0.0
C167 C 0.29629 0.34426 0.37537 0.0
Zn168 Zn 0.29875 0.02641 0.68609 0.0
Zn169 Zn 0.3258 0.02861 0.68802 0.0
O170 O 0.30939 0.00526 0.68528 0.0
O171 O 0.28697 1.00377 0.68356 0.0
O172 O 0.34595 0.02879 0.69177 0.0
O173 O 0.302 0.03642 0.71513 0.0
O174 O 0.32531 0.03986 0.71598 0.0
C175 C 0.29468 0.99727 0.68363 0.0
C176 C 0.31888 0.04477 0.65132 0.0
O177 O 0.32827 0.04144 0.66017 0.0
O178 O 0.30561 0.03956 0.65929 0.0
C179 C 0.34973 0.0215 0.67911 0.0
O180 O 0.34067 0.01412 0.66238 0.0
C181 C 0.31504 0.04184 0.72444 0.0
Zn182 Zn 0.98582 0.28466 0.67473 0.0
Zn183 Zn 0.98697 0.31016 0.68452 0.0
O184 O 0.01022 0.31641 0.68149 0.0
O185 O 0.00865 0.29453 0.67558 0.0
O186 O 0.9881 0.33006 0.69211 0.0
O187 O 0.97357 0.27454 0.70144 0.0
O188 O 0.97513 0.29598 0.71061 0.0
C189 C 0.01678 0.30878 0.67842 0.0
C190 C 0.96992 0.29189 0.64296 0.0
O191 O 0.97346 0.30279 0.65622 0.0
O192 O 0.97463 0.28281 0.64656 0.0
C193 C 0.98896 0.33946 0.67766 0.0
O194 O 0.9894 0.33642 0.65698 0.0
C195 C 0.97045 0.28201 0.71451 0.0
Zn196 Zn 0.70756 0.65263 0.69678 0.0
Zn197 Zn 0.70768 0.67781 0.68802 0.0
O198 O 0.6843 0.66096 0.6929 0.0
O199 O 0.68479 0.64005 0.69886 0.0
O200 O 0.70666 0.69677 0.68035 0.0
O201 O 0.71739 0.65364 0.66836 0.0
O202 O 0.71765 0.67475 0.66055 0.0
C203 C 0.6772 0.64662 0.69661 0.0
C204 C 0.72618 0.67604 0.72745 0.0
O205 O 0.72248 0.68383 0.71521 0.0
O206 O 0.72073 0.66207 0.72348 0.0
C207 C 0.71107 0.70828 0.69272 0.0
O208 O 0.7169 0.70847 0.71211 0.0
C209 C 0.72069 0.66455 0.65543 0.0
Zn210 Zn 0.38112 0.31996 0.67338 0.0
Zn211 Zn 0.35323 0.31607 0.66908 0.0
O212 O 0.36864 0.33959 0.67182 0.0
O213 O 0.39177 0.34269 0.67381 0.0
O214 O 0.33278 0.3151 0.66433 0.0
O215 O 0.37832 0.30874 0.64535 0.0
O216 O 0.35496 0.30503 0.64183 0.0
C217 C 0.38328 0.34836 0.67333 0.0
C218 C 0.36061 0.30185 0.70802 0.0
O219 O 0.35075 0.30365 0.69728 0.0
O220 O 0.37438 0.30808 0.70151 0.0
C221 C 0.32764 0.32037 0.67839 0.0
O222 O 0.33535 0.32582 0.69683 0.0
C223 C 0.36563 0.30308 0.63491 0.0
Zn224 Zn 0.70129 0.06185 0.69595 0.0
Zn225 Zn 0.69929 0.03649 0.68344 0.0
O226 O 0.67624 0.03071 0.68788 0.0
O227 O 0.67863 0.05233 0.69816 0.0
O228 O 0.69725 0.01634 0.67449 0.0
O229 O 0.71149 0.07206 0.66803 0.0
O230 O 0.71029 0.05105 0.6572 0.0
C231 C 0.67011 0.03837 0.69349 0.0
C232 C 0.71848 0.05416 0.7245 0.0
O233 O 0.71385 0.04318 0.71095 0.0
O234 O 0.71418 0.06366 0.72217 0.0
C235 C 0.69528 0.00629 0.68856 0.0
O236 O 0.69443 0.00896 0.70927 0.0
C237 C 0.71422 0.06491 0.65384 0.0
Zn238 Zn 0.98181 0.69627 0.68341 0.0
Zn239 Zn 0.97787 0.66864 0.68034 0.0
O240 O 1.00173 0.68407 0.67988 0.0
O241 O 1.00481 0.70681 0.68294 0.0
O242 O 0.97628 0.64797 0.6808 0.0
O243 O 0.97069 0.69115 0.71182 0.0
O244 O 0.96606 0.66781 0.70827 0.0
C245 C 0.01059 0.69853 0.68105 0.0
C246 C 0.9637 0.67927 0.64532 0.0
O247 O 0.96597 0.66888 0.65259 0.0
O248 O 0.96945 0.69185 0.65537 0.0
C249 C 0.98614 0.6457 0.67173 0.0
O250 O 0.9973 0.65679 0.66052 0.0
C251 C 0.96437 0.67758 0.71864 0.0
H252 H 0.21241 0.33383 0.11627 0.0
H253 H 0.17491 0.33253 0.08117 0.0
H254 H 0.17865 0.33741 0.15187 0.0
H255 H 0.15422 0.32765 0.15101 0.0
H256 H 0.12099 0.33503 0.11888 0.0
H257 H 0.16008 0.34215 0.0832 0.0
C258 C 0.20186 0.33414 0.11638 0.0
C259 C 0.19599 0.33529 0.13618 0.0
C260 C 0.19442 0.3334 0.09667 0.0
C261 C 0.18063 0.33357 0.09667 0.0
C262 C 0.17434 0.33478 0.11658 0.0
C263 C 0.18244 0.33582 0.13629 0.0
C264 C 0.15944 0.33486 0.11699 0.0
C265 C 0.15072 0.33108 0.13638 0.0
C266 C 0.13705 0.33137 0.13721 0.0
C267 C 0.13149 0.33466 0.11828 0.0
C268 C 0.13956 0.33819 0.09876 0.0
C269 C 0.15372 0.33872 0.09824 0.0
H270 H 0.65414 0.87267 0.11634 0.0
H271 H 0.66499 0.84451 0.07866 0.0
H272 H 0.66195 0.84038 0.1492 0.0
H273 H 0.67915 0.83366 0.14517 0.0
H274 H 0.67345 0.79347 0.11507 0.0
H275 H 0.6572 0.81918 0.08137 0.0
C276 C 0.65649 0.86351 0.11561 0.0
C277 C 0.65806 0.85716 0.13499 0.0
C278 C 0.65874 0.85887 0.09532 0.0
C279 C 0.66279 0.84766 0.0944 0.0
C280 C 0.66399 0.84065 0.11381 0.0
C281 C 0.66148 0.84558 0.13402 0.0
C282 C 0.66766 0.82818 0.11333 0.0
C283 C 0.67502 0.82581 0.13154 0.0
C284 C 0.677 0.81323 0.13256 0.0
C285 C 0.67244 0.80348 0.1145 0.0
C286 C 0.66576 0.80584 0.09595 0.0
C287 C 0.66314 0.81801 0.09541 0.0
H288 H 0.22042 0.8979 0.11613 0.0
H289 H 0.1819 0.86501 0.07773 0.0
H290 H 0.18622 0.85642 0.14615 0.0
H291 H 0.16085 0.84466 0.14514 0.0
H292 H 0.12599 0.80641 0.10915 0.0
H293 H 0.16723 0.83919 0.07663 0.0
C294 C 0.20973 0.88695 0.11503 0.0
C295 C 0.2041 0.87774 0.13355 0.0
C296 C 0.20199 0.88225 0.09493 0.0
C297 C 0.18793 0.86825 0.09332 0.0
C298 C 0.18165 0.85881 0.11194 0.0
C299 C 0.19016 0.86366 0.13188 0.0
C300 C 0.16621 0.84415 0.11092 0.0
C301 C 0.15705 0.8385 0.12985 0.0
C302 C 0.14266 0.82488 0.12927 0.0
C303 C 0.13703 0.81706 0.10956 0.0
C304 C 0.14574 0.82225 0.09061 0.0
C305 C 0.16042 0.83563 0.09128 0.0
H306 H 0.35074 0.13662 0.91255 0.0
H307 H 0.35865 0.17739 0.9433 0.0
H308 H 0.33719 0.16451 0.87882 0.0
H309 H 0.34708 0.18877 0.87409 0.0
H310 H 0.34228 0.22283 0.90629 0.0
H311 H 0.34706 0.1906 0.94491 0.0
C312 C 0.34987 0.14673 0.91205 0.0
C313 C 0.34371 0.14973 0.89351 0.0
C314 C 0.35498 0.15649 0.93002 0.0
C315 C 0.35422 0.1698 0.9294 0.0
C316 C 0.34804 0.17325 0.91075 0.0
C317 C 0.34264 0.16283 0.89299 0.0
C318 C 0.34698 0.1874 0.90967 0.0
C319 C 0.34612 0.19355 0.8892 0.0
C320 C 0.34384 0.20593 0.8879 0.0
C321 C 0.34343 0.2129 0.90714 0.0
C322 C 0.34499 0.20764 0.92752 0.0
C323 C 0.34651 0.1948 0.92889 0.0
H324 H 0.80793 0.11009 0.90624 0.0
H325 H 0.83317 0.15277 0.94001 0.0
H326 H 0.84639 0.14767 0.87516 0.0
H327 H 0.85348 0.17187 0.87264 0.0
H328 H 0.88842 0.21135 0.90653 0.0
H329 H 0.85891 0.17089 0.94295 0.0
C330 C 0.81772 0.12168 0.90699 0.0
C331 C 0.82687 0.12796 0.8886 0.0
C332 C 0.82004 0.13045 0.92564 0.0
C333 C 0.83191 0.14591 0.92591 0.0
C334 C 0.84179 0.15246 0.90783 0.0
C335 C 0.83911 0.14319 0.88929 0.0
C336 C 0.85448 0.16899 0.9078 0.0
C337 C 0.85929 0.17715 0.88789 0.0
C338 C 0.87152 0.19236 0.88736 0.0
C339 C 0.87885 0.19963 0.90688 0.0
C340 C 0.87427 0.19203 0.92685 0.0
C341 C 0.86208 0.17673 0.9274 0.0
H342 H 0.81371 0.69603 0.90991 0.0
H343 H 0.83553 0.67503 0.94308 0.0
H344 H 0.84791 0.69142 0.8768 0.0
H345 H 0.85069 0.67097 0.87543 0.0
H346 H 0.88544 0.66546 0.90722 0.0
H347 H 0.86198 0.6826 0.94383 0.0
C348 C 0.82239 0.69285 0.91016 0.0
C349 C 0.8306 0.69449 0.89122 0.0
C350 C 0.82416 0.68598 0.92889 0.0
C351 C 0.8346 0.68081 0.9288 0.0
C352 C 0.8435 0.68282 0.91012 0.0
C353 C 0.84132 0.68971 0.89138 0.0
C354 C 0.85472 0.67741 0.90974 0.0
C355 C 0.85727 0.67194 0.89007 0.0
C356 C 0.86827 0.66756 0.8891 0.0
C357 C 0.87665 0.66846 0.90796 0.0
C358 C 0.87439 0.67375 0.92765 0.0
C359 C 0.86336 0.67814 0.92865 0.0
H360 H 0.87453 0.65734 0.44985 0.0
H361 H 0.84114 0.66297 0.41405 0.0
H362 H 0.84695 0.67052 0.48406 0.0
H363 H 0.82232 0.66197 0.4833 0.0
H364 H 0.79412 0.67641 0.452 0.0
H365 H 0.83012 0.6769 0.41571 0.0
C366 C 0.86523 0.65966 0.44971 0.0
C367 C 0.86098 0.66326 0.46925 0.0
C368 C 0.85843 0.65997 0.42981 0.0
C369 C 0.84658 0.66328 0.42953 0.0
C370 C 0.84171 0.66663 0.44919 0.0
C371 C 0.84959 0.66715 0.46885 0.0
C372 C 0.82842 0.66934 0.44955 0.0
C373 C 0.81988 0.66657 0.46891 0.0
C374 C 0.80767 0.66924 0.46989 0.0
C375 C 0.80359 0.67435 0.4513 0.0
C376 C 0.81148 0.6769 0.43179 0.0
C377 C 0.82393 0.67449 0.43085 0.0
H378 H 0.3361 0.21172 0.44539 0.0
H379 H 0.32765 0.17115 0.41313 0.0
H380 H 0.34823 0.1825 0.47824 0.0
H381 H 0.33685 0.158 0.48236 0.0
H382 H 0.34202 0.12406 0.45072 0.0
H383 H 0.33875 0.15711 0.41163 0.0
C384 C 0.33669 0.20146 0.4455 0.0
C385 C 0.34245 0.19793 0.46397 0.0
C386 C 0.33157 0.19201 0.42715 0.0
C387 C 0.33203 0.17851 0.4273 0.0
C388 C 0.33772 0.17449 0.44593 0.0
C389 C 0.34312 0.18461 0.46406 0.0
C390 C 0.33815 0.15997 0.44684 0.0
C391 C 0.33819 0.1534 0.46732 0.0
C392 C 0.34015 0.14085 0.46876 0.0
C393 C 0.34103 0.13408 0.44965 0.0
C394 C 0.34008 0.13961 0.42916 0.0
C395 C 0.33886 0.15266 0.42765 0.0
H396 H 0.8746 0.23671 0.45647 0.0
H397 H 0.84201 0.19733 0.42001 0.0
H398 H 0.84292 0.19639 0.49088 0.0
H399 H 0.81879 0.17938 0.4882 0.0
H400 H 0.79168 0.13632 0.45668 0.0
H401 H 0.82981 0.17247 0.42267 0.0
C402 C 0.86473 0.22515 0.45621 0.0
C403 C 0.85881 0.21754 0.47588 0.0
C404 C 0.85899 0.21777 0.43619 0.0
C405 C 0.84651 0.20261 0.43575 0.0
C406 C 0.83999 0.19459 0.45544 0.0
C407 C 0.84677 0.20222 0.47544 0.0
C408 C 0.82639 0.1784 0.4554 0.0
C409 C 0.81692 0.17239 0.47402 0.0
C410 C 0.80461 0.15724 0.47458 0.0
C411 C 0.80124 0.14804 0.45623 0.0
C412 C 0.81018 0.15355 0.43748 0.0
C413 C 0.82275 0.16866 0.43706 0.0
H414 H 0.02531 0.47353 0.23898 0.0
H415 H 0.01713 0.50363 0.27657 0.0
H416 H 0.02074 0.5079 0.20607 0.0
H417 H 1.00402 0.51527 0.20985 0.0
H418 H 0.00872 0.5547 0.24073 0.0
H419 H 0.02586 0.52939 0.27386 0.0
C420 C 0.02381 0.48325 0.23963 0.0
C421 C 0.02308 0.49012 0.22026 0.0
C422 C 0.02184 0.48815 0.25985 0.0
C423 C 0.01914 0.50029 0.26085 0.0
C424 C 0.01857 0.50767 0.24145 0.0
C425 C 0.02075 0.50244 0.22124 0.0
C426 C 0.01535 0.52046 0.24188 0.0
C427 C 0.00802 0.52292 0.22371 0.0
C428 C 1.00568 0.53525 0.22317 0.0
C429 C 0.01021 0.54496 0.24118 0.0
C430 C 0.0173 0.54283 0.25946 0.0
C431 C 0.01991 0.53061 0.25989 0.0
H432 H 0.4767 0.44344 0.241 0.0
H433 H 0.50425 0.48561 0.27513 0.0
H434 H 0.51275 0.48145 0.20709 0.0
H435 H 0.52051 0.50552 0.20593 0.0
H436 H 0.55725 0.54474 0.23787 0.0
H437 H 0.52929 0.50439 0.27534 0.0
C438 C 0.48645 0.45506 0.24116 0.0
C439 C 0.49417 0.46163 0.22177 0.0
C440 C 0.49025 0.46353 0.26046 0.0
C441 C 0.50198 0.47903 0.26035 0.0
C442 C 0.51047 0.4859 0.24116 0.0
C443 C 0.50645 0.47684 0.22203 0.0
C444 C 0.52317 0.50246 0.24068 0.0
C445 C 0.52707 0.51067 0.22076 0.0
C446 C 0.5394 0.52581 0.21965 0.0
C447 C 0.54765 0.53305 0.23867 0.0
C448 C 0.54393 0.52547 0.25871 0.0
C449 C 0.53172 0.51019 0.25978 0.0
H450 H 0.48401 0.02938 0.23991 0.0
H451 H 0.50628 0.00912 0.27369 0.0
H452 H 0.51604 0.0221 0.20569 0.0
H453 H 0.51884 1.00214 0.20511 0.0
H454 H 0.55151 0.9935 0.23672 0.0
H455 H 0.53128 0.01402 0.27322 0.0
C456 C 0.49249 0.02595 0.24002 0.0
C457 C 0.49969 0.02633 0.22059 0.0
C458 C 0.49497 0.02 0.25921 0.0
C459 C 0.50498 0.01433 0.25902 0.0
C460 C 0.5129 0.01505 0.2398 0.0
C461 C 0.51016 0.02123 0.22068 0.0
C462 C 0.52347 0.00882 0.23931 0.0
C463 C 0.52531 1.00277 0.21971 0.0
C464 C 0.53552 0.99741 0.21859 0.0
C465 C 0.54336 0.99733 0.23752 0.0
C466 C 0.54171 1.00306 0.25723 0.0
C467 C 0.53199 0.00906 0.25808 0.0
H468 H 0.53294 0.98526 0.77746 0.0
H469 H 0.51145 0.00695 0.74544 0.0
H470 H 0.49969 0.99062 0.81189 0.0
H471 H 0.49774 0.01122 0.81417 0.0
H472 H 0.4651 0.02054 0.78412 0.0
H473 H 0.4856 1.00111 0.74565 0.0
C474 C 0.52437 0.98858 0.77758 0.0
C475 C 0.51656 0.9872 0.79683 0.0
C476 C 0.52247 0.99549 0.75901 0.0
C477 C 0.51233 1.00101 0.75956 0.0
C478 C 0.50379 0.99926 0.77856 0.0
C479 C 0.50601 0.99219 0.79707 0.0
C480 C 0.49324 0.00545 0.77967 0.0
C481 C 0.49133 0.01098 0.79972 0.0
C482 C 0.48112 0.0163 0.80147 0.0
C483 C 0.47329 0.01679 0.78279 0.0
C484 C 0.47497 0.01154 0.76266 0.0
C485 C 0.48477 0.00565 0.76112 0.0
H486 H 0.98631 0.5371 0.7883 0.0
H487 H 0.99672 0.509 0.74976 0.0
H488 H 0.99461 0.50491 0.82037 0.0
H489 H 0.01136 0.49797 0.81625 0.0
H490 H 0.00918 0.46019 0.78378 0.0
H491 H 0.99028 0.48424 0.75173 0.0
C492 C 0.98862 0.52792 0.78734 0.0
C493 C 0.99052 0.52166 0.80658 0.0
C494 C 0.99052 0.52322 0.76688 0.0
C495 C 0.99467 0.51209 0.76564 0.0
C496 C 0.99622 0.50515 0.78488 0.0
C497 C 0.99392 0.51007 0.80527 0.0
C498 C 1.00035 0.49299 0.78399 0.0
C499 C 1.00783 0.49065 0.80206 0.0
C500 C 0.01086 0.47876 0.8022 0.0
C501 C 1.00715 0.46959 0.7837 0.0
C502 C 1.0 0.47168 0.76548 0.0
C503 C 0.99641 0.48322 0.76563 0.0
H504 H 0.53698 0.57206 0.78777 0.0
H505 H 0.51169 0.52973 0.75317 0.0
H506 H 0.4989 0.53394 0.81871 0.0
H507 H 0.49234 0.50965 0.82017 0.0
H508 H 0.45704 0.47065 0.78561 0.0
H509 H 0.48564 0.51199 0.75049 0.0
C510 C 0.52719 0.56048 0.78685 0.0
C511 C 0.5182 0.55393 0.80533 0.0
C512 C 0.52483 0.55191 0.76797 0.0
C513 C 0.51299 0.53645 0.76747 0.0
C514 C 0.50325 0.52968 0.78561 0.0
C515 C 0.50602 0.53869 0.80446 0.0
C516 C 0.49065 0.51316 0.78538 0.0
C517 C 0.48625 0.5046 0.80499 0.0
C518 C 0.47414 0.48931 0.80519 0.0
C519 C 0.46653 0.48241 0.7856 0.0
C520 C 0.47076 0.49046 0.76595 0.0
C521 C 0.48277 0.50581 0.76577 0.0
H522 H 0.67988 0.79979 0.57596 0.0
H523 H 0.69309 0.84132 0.60981 0.0
H524 H 0.67584 0.8344 0.54296 0.0
H525 H 0.69123 0.85929 0.54116 0.0
H526 H 0.6889 0.89485 0.57324 0.0
H527 H 0.68279 0.85671 0.61073 0.0
C528 C 0.68091 0.81086 0.57619 0.0
C529 C 0.67755 0.81629 0.55725 0.0
C530 C 0.68628 0.81968 0.59518 0.0
C531 C 0.68847 0.83442 0.59522 0.0
C532 C 0.68475 0.84012 0.57638 0.0
C533 C 0.67919 0.83073 0.55752 0.0
C534 C 0.68662 0.8557 0.57601 0.0
C535 C 0.68942 0.86374 0.55602 0.0
C536 C 0.69017 0.87777 0.55492 0.0
C537 C 0.68852 0.88409 0.57401 0.0
C538 C 0.68609 0.8767 0.59409 0.0
C539 C 0.68514 0.86252 0.59518 0.0
H540 H 0.13115 0.77747 0.56859 0.0
H541 H 0.17031 0.81045 0.60578 0.0
H542 H 0.16378 0.81974 0.53859 0.0
H543 H 0.1892 0.83228 0.5381 0.0
H544 H 0.22483 0.86965 0.57459 0.0
H545 H 0.18445 0.83593 0.60773 0.0
C546 C 0.14172 0.78852 0.56948 0.0
C547 C 0.14662 0.79801 0.55115 0.0
C548 C 0.14999 0.79316 0.58921 0.0
C549 C 0.16386 0.8073 0.59051 0.0
C550 C 0.16945 0.817 0.57207 0.0
C551 C 0.1604 0.81227 0.5526 0.0
C552 C 0.1847 0.83183 0.57289 0.0
C553 C 0.19334 0.83805 0.55363 0.0
C554 C 0.20769 0.8517 0.55422 0.0
C555 C 0.2138 0.85899 0.57417 0.0
C556 C 0.20556 0.85325 0.59344 0.0
C557 C 0.1909 0.83988 0.59277 0.0
H558 H 0.14784 0.36052 0.57507 0.0
H559 H 0.17193 0.34168 0.60766 0.0
H560 H 0.18055 0.35493 0.5396 0.0
H561 H 0.18464 0.33574 0.53852 0.0
H562 H 0.22003 0.33055 0.56858 0.0
H563 H 0.19743 0.34801 0.60651 0.0
C564 C 0.15663 0.3575 0.57478 0.0
C565 C 0.16377 0.35825 0.55512 0.0
C566 C 0.15966 0.35176 0.59375 0.0
C567 C 0.17016 0.34669 0.59312 0.0
C568 C 0.17803 0.34782 0.57366 0.0
C569 C 0.17471 0.35375 0.55475 0.0
C570 C 0.18934 0.3425 0.57273 0.0
C571 C 0.19151 0.33689 0.55291 0.0
C572 C 0.20256 0.33262 0.55135 0.0
C573 C 0.21126 0.33355 0.56982 0.0
C574 C 0.20939 0.33896 0.58968 0.0
C575 C 0.19842 0.3434 0.59122 0.0
H576 H 0.0194 0.39758 0.07427 0.0
H577 H 0.02643 0.41653 0.10334 0.0
H578 H 0.98253 0.41333 0.09482 0.0
H579 H 0.97531 0.39434 0.06637 0.0
H580 H 0.02917 0.44479 0.10074 0.0
H581 H 0.98423 0.40844 0.1601 0.0
H582 H 0.98876 0.40063 0.13713 0.0
H583 H 0.97618 0.40804 0.13365 0.0
C584 C 0.01116 0.40075 0.07885 0.0
C585 C 0.99675 0.39434 0.06805 0.0
C586 C 0.01522 0.41163 0.09538 0.0
C587 C 1.00491 0.41619 0.10147 0.0
C588 C 0.99053 0.40975 0.09078 0.0
H589 H 1.00237 0.48144 0.18646 0.0
H590 H 0.99939 0.46487 0.15578 0.0
C591 C 0.98646 0.3989 0.0744 0.0
C592 C 0.00924 0.42809 0.11839 0.0
H593 H 0.99675 0.43537 0.16559 0.0
C594 C 0.0222 0.4427 0.11506 0.0
C595 C 1.00014 0.42535 0.13708 0.0
C596 C 0.98665 0.40972 0.14234 0.0
C597 C 0.02596 0.45475 0.12956 0.0
C598 C 0.01655 0.45207 0.14781 0.0
C599 C 1.0038 0.43743 0.15136 0.0
C600 C 0.01986 0.46414 0.1639 0.0
C601 C 0.03973 0.47033 0.12505 0.0
C602 C 0.03258 0.46954 0.17822 0.0
C603 C 0.03428 0.47897 0.19572 0.0
C604 C 0.0233 0.48319 0.19919 0.0
C605 C 0.0111 0.47854 0.18403 0.0
C606 C 0.00933 0.46899 0.16661 0.0
H607 H 0.04415 0.4712 0.1083 0.0
H608 H 0.03672 0.47922 0.12715 0.0
H609 H 0.04913 0.47275 0.1369 0.0
H610 H 0.04073 0.4658 0.17655 0.0
H611 H 0.04378 0.48239 0.20719 0.0
H612 H 0.62074 0.6247 0.07185 0.0
H613 H 0.60407 0.6105 0.10259 0.0
H614 H 0.60334 0.57009 0.08186 0.0
H615 H 0.62005 0.58407 0.05159 0.0
H616 H 0.57429 0.58414 0.10128 0.0
H617 H 0.61545 0.57312 0.14613 0.0
H618 H 0.62143 0.58725 0.12483 0.0
H619 H 0.61301 0.56743 0.11803 0.0
C620 C 0.61717 0.61285 0.07401 0.0
C621 C 0.62183 0.60557 0.05932 0.0
C622 C 0.6076 0.60474 0.09151 0.0
C623 C 0.60265 0.5893 0.09466 0.0
C624 C 0.60728 0.58207 0.08001 0.0
H625 H 0.54517 0.51573 0.18203 0.0
H626 H 0.5589 0.53112 0.15013 0.0
C627 C 0.61681 0.59011 0.06264 0.0
C628 C 0.5923 0.58046 0.11281 0.0
H629 H 0.58903 0.55801 0.15627 0.0
C630 C 0.57754 0.57855 0.11346 0.0
C631 C 0.59658 0.57318 0.12866 0.0
C632 C 0.61253 0.57545 0.12956 0.0
C633 C 0.56678 0.56912 0.12916 0.0
C634 C 0.57096 0.56154 0.1446 0.0
C635 C 0.58579 0.56368 0.14418 0.0
C636 C 0.56038 0.55166 0.16189 0.0
C637 C 0.55091 0.56703 0.12881 0.0
C638 C 0.55633 0.55804 0.17874 0.0
C639 C 0.5485 0.54928 0.19691 0.0
C640 C 0.54462 0.53402 0.19857 0.0
C641 C 0.54787 0.52741 0.18107 0.0
C642 C 0.55579 0.5362 0.16294 0.0
H643 H 0.54839 0.57092 0.11317 0.0
H644 H 0.54193 0.55489 0.13143 0.0
H645 H 0.55015 0.57378 0.14225 0.0
H646 H 0.55994 0.56999 0.17838 0.0
H647 H 0.5461 0.55464 0.21016 0.0
H648 H 0.3958 0.99438 0.0895 0.0
H649 H 0.41651 1.00229 0.11661 0.0
H650 H 0.43896 0.04822 0.09186 0.0
H651 H 0.41805 0.04038 0.06461 0.0
H652 H 0.45765 0.03278 0.0955 0.0
H653 H 0.42776 0.03118 0.17149 0.0
H654 H 0.41702 0.01513 0.15354 0.0
H655 H 0.42155 0.03373 0.14479 0.0
C656 C 0.40497 0.00624 0.09005 0.0
C657 C 0.40527 0.01677 0.07493 0.0
C658 C 0.4168 0.01073 0.10557 0.0
C659 C 0.42924 0.02583 0.10624 0.0
C660 C 0.42941 0.03652 0.09161 0.0
H661 H 0.496 0.05059 0.21327 0.0
H662 H 0.48135 0.05338 0.18333 0.0
C663 C 0.41742 0.03206 0.07619 0.0
C664 C 0.44235 0.02997 0.12149 0.0
H665 H 0.45105 0.03098 0.17571 0.0
C666 C 0.45634 0.03266 0.11305 0.0
C667 C 0.44062 0.02984 0.14432 0.0
C668 C 0.42598 0.02744 0.15417 0.0
C669 C 0.46842 0.03454 0.12693 0.0
C670 C 0.46636 0.03361 0.14979 0.0
C671 C 0.45262 0.03164 0.15818 0.0
C672 C 0.4778 0.03371 0.16543 0.0
C673 C 0.48317 0.0373 0.11703 0.0
C674 C 0.48115 0.02204 0.16494 0.0
C675 C 0.48955 0.02043 0.18205 0.0
C676 C 0.4946 0.03038 0.20004 0.0
C677 C 0.49217 0.04269 0.19969 0.0
C678 C 0.48379 0.04429 0.18261 0.0
H679 H 0.48474 0.04217 0.10034 0.0
H680 H 0.49334 0.04515 0.12731 0.0
H681 H 0.48272 0.0263 0.11577 0.0
H682 H 0.47643 0.01357 0.15207 0.0
H683 H 0.49104 0.01072 0.18198 0.0
H684 H 0.4051 0.03161 0.95795 0.0
H685 H 0.42303 0.03759 0.92783 0.0
H686 H 0.41867 0.99374 0.9353 0.0
H687 H 0.40087 0.98766 0.96523 0.0
H688 H 0.45018 0.02005 0.93425 0.0
H689 H 0.41284 0.01836 0.86514 0.0
H690 H 0.41472 0.02964 0.88865 0.0
H691 H 0.40497 0.0093 0.891 0.0
C692 C 0.40782 0.02318 0.953 0.0
C693 C 0.40153 0.00915 0.96403 0.0
C694 C 0.41806 0.02662 0.93581 0.0
C695 C 0.42214 0.01609 0.92938 0.0
C696 C 0.41569 1.00202 0.94008 0.0
H697 H 0.47414 0.99946 0.83872 0.0
H698 H 0.46225 1.00213 0.87136 0.0
C699 C 0.40547 0.99856 0.95716 0.0
C700 C 0.43339 0.01966 0.91183 0.0
H701 H 0.43737 0.02293 0.85657 0.0
C702 C 0.44748 0.02084 0.91726 0.0
C703 C 0.42985 0.0208 0.88977 0.0
C704 C 0.41476 0.01939 0.88311 0.0
C705 C 0.458 0.02276 0.90111 0.0
C706 C 0.45415 0.02318 0.87892 0.0
C707 C 0.44031 0.0226 0.87359 0.0
C708 C 0.46362 0.02299 0.86084 0.0
C709 C 0.47309 0.02427 0.90798 0.0
C710 C 0.46851 0.0339 0.84414 0.0
C711 C 0.47525 0.03234 0.82541 0.0
C712 C 0.47716 0.0198 0.82299 0.0
C713 C 0.47306 0.00937 0.84026 0.0
C714 C 0.46625 0.01089 0.85895 0.0
H715 H 0.47656 0.02896 0.92478 0.0
H716 H 0.47174 0.01283 0.90797 0.0
H717 H 0.48249 0.03173 0.89666 0.0
H718 H 0.46658 0.04331 0.84524 0.0
H719 H 0.47838 0.0406 0.81239 0.0
H720 H 0.02626 0.4028 0.9636 0.0
H721 H 0.03463 0.42165 0.93397 0.0
H722 H 0.9871 0.40466 0.91611 0.0
H723 H 0.97868 0.38592 0.94535 0.0
H724 H 1.00731 0.41009 0.88023 0.0
H725 H 0.02919 0.45952 0.93688 0.0
H726 H 0.03622 0.44674 0.94072 0.0
H727 H 0.01635 0.44016 0.94574 0.0
C728 C 0.01762 0.40295 0.95314 0.0
C729 C 1.0018 0.39292 0.95692 0.0
C730 C 0.02242 0.4138 0.93636 0.0
C731 C 0.01146 0.41467 0.92309 0.0
C732 C 0.99573 0.40423 0.92624 0.0
H733 H 0.99959 0.47525 0.84331 0.0
H734 H 1.00331 0.46174 0.87362 0.0
C735 C 0.99095 0.39352 0.943 0.0
C736 C 0.01606 0.42661 0.90616 0.0
H737 H 0.02862 0.46437 0.89941 0.0
C738 C 0.01224 0.42201 0.88432 0.0
C739 C 0.02229 0.44211 0.91167 0.0
C740 C 0.02621 0.44753 0.93501 0.0
C741 C 0.01399 0.43238 0.8679 0.0
C742 C 0.01993 0.44785 0.87345 0.0
C743 C 0.02419 0.45255 0.89521 0.0
C744 C 0.02032 0.45881 0.85716 0.0
C745 C 0.00866 0.42652 0.84495 0.0
C746 C 0.02929 0.46239 0.83838 0.0
C747 C 0.02718 0.47012 0.82106 0.0
C748 C 0.01614 0.47447 0.82229 0.0
C749 C 0.00824 0.47213 0.84193 0.0
C750 C 0.01031 0.46434 0.85922 0.0
H751 H 1.00172 0.41388 0.84429 0.0
H752 H 1.0016 0.43101 0.83796 0.0
H753 H 0.01887 0.43046 0.83448 0.0
H754 H 0.0373 0.45848 0.83664 0.0
H755 H 0.03356 0.47193 0.8062 0.0
H756 H 0.6104 0.6364 0.96458 0.0
H757 H 0.58912 0.62862 0.93806 0.0
H758 H 0.60077 0.59825 0.90755 0.0
H759 H 0.62195 0.60595 0.93367 0.0
H760 H 0.59391 0.61569 0.87794 0.0
H761 H 0.54898 0.58549 0.94101 0.0
H762 H 0.5634 0.6052 0.94576 0.0
H763 H 0.56888 0.59116 0.94579 0.0
C764 C 0.60858 0.62827 0.95197 0.0
C765 C 0.61779 0.62171 0.95132 0.0
C766 C 0.59634 0.62375 0.93697 0.0
C767 C 0.59324 0.61268 0.9211 0.0
C768 C 0.60292 0.60675 0.91976 0.0
H769 H 0.52318 0.54417 0.8443 0.0
H770 H 0.53929 0.56036 0.87448 0.0
C771 C 0.61503 0.61117 0.93473 0.0
C772 C 0.57965 0.60665 0.9062 0.0
H773 H 0.54057 0.58213 0.90441 0.0
C774 C 0.5822 0.6086 0.88369 0.0
C775 C 0.56443 0.59727 0.91384 0.0
C776 C 0.56114 0.59451 0.9379 0.0
C777 C 0.57004 0.60091 0.86852 0.0
C778 C 0.55485 0.59119 0.87613 0.0
C779 C 0.5522 0.5897 0.89867 0.0
C780 C 0.54208 0.58115 0.86089 0.0
C781 C 0.57374 0.60252 0.84451 0.0
C782 C 0.53748 0.58732 0.844 0.0
C783 C 0.52827 0.57808 0.82671 0.0
C784 C 0.52343 0.56252 0.82619 0.0
C785 C 0.52665 0.55609 0.84431 0.0
C786 C 0.53593 0.56535 0.86152 0.0
H787 H 0.58634 0.60827 0.84168 0.0
H788 H 0.56796 0.59118 0.83646 0.0
H789 H 0.56946 0.6094 0.83655 0.0
H790 H 0.54184 0.59944 0.84344 0.0
H791 H 0.52584 0.5833 0.81302 0.0
H792 H 0.03872 0.61699 0.95952 0.0
H793 H 0.03036 0.59721 0.93184 0.0
H794 H 0.98658 0.5945 0.92568 0.0
H795 H 0.99487 0.61445 0.95349 0.0
H796 H 1.00386 0.56699 0.93468 0.0
H797 H 1.00158 0.59863 0.8619 0.0
H798 H 0.01206 0.60818 0.88657 0.0
H799 H 0.9914 0.59875 0.88558 0.0
C800 C 0.02735 0.61235 0.95216 0.0
C801 C 0.01747 0.61735 0.95876 0.0
C802 C 0.02259 0.60098 0.93638 0.0
C803 C 0.00788 0.59441 0.92668 0.0
C804 C 0.99805 0.59954 0.93282 0.0
H805 H 0.969 0.52801 0.82062 0.0
H806 H 0.97134 0.54386 0.85184 0.0
C807 C 1.00281 0.61095 0.94871 0.0
C808 C 1.00284 0.58188 0.91064 0.0
H809 H 0.99441 0.5731 0.85664 0.0
C810 C 1.00171 0.56827 0.91762 0.0
C811 C 0.99997 0.58356 0.88846 0.0
C812 C 1.00139 0.59808 0.88002 0.0
C813 C 0.9979 0.55633 0.90295 0.0
C814 C 0.99548 0.55818 0.88061 0.0
C815 C 0.99625 0.57166 0.87376 0.0
C816 C 0.99289 0.54669 0.8638 0.0
C817 C 0.99642 0.54182 0.91156 0.0
C818 C 1.004 0.54265 0.86045 0.0
C819 C 1.00262 0.53349 0.8427 0.0
C820 C 0.99021 0.5284 0.8278 0.0
C821 C 0.97871 0.53183 0.8318 0.0
C822 C 0.98006 0.5409 0.84959 0.0
H823 H 0.99364 0.54027 0.9292 0.0
H824 H 0.98733 0.5317 0.90251 0.0
H825 H 1.00757 0.54239 0.90961 0.0
H826 H 0.01418 0.54723 0.87088 0.0
H827 H 0.01177 0.53124 0.83984 0.0
H828 H 0.39377 0.42873 0.97123 0.0
H829 H 0.41107 0.44261 0.94138 0.0
H830 H 0.41147 0.40234 0.92311 0.0
H831 H 0.39395 0.38819 0.9531 0.0
H832 H 0.44114 0.4473 0.93523 0.0
H833 H 0.40099 0.41688 0.86549 0.0
H834 H 0.39428 0.41585 0.89292 0.0
H835 H 0.40313 0.40525 0.88566 0.0
C836 C 0.3974 0.42272 0.96083 0.0
C837 C 0.39242 0.4073 0.96459 0.0
C838 C 0.40735 0.43072 0.94379 0.0
C839 C 0.41251 0.42351 0.93001 0.0
C840 C 0.40747 0.40807 0.93345 0.0
H841 H 0.46786 0.46042 0.813 0.0
H842 H 0.45476 0.44435 0.84456 0.0
C843 C 0.39748 0.40001 0.95059 0.0
C844 C 0.42337 0.4324 0.91235 0.0
H845 H 0.4261 0.43659 0.85702 0.0
C846 C 0.43792 0.44492 0.9181 0.0
C847 C 0.41914 0.42922 0.89007 0.0
C848 C 0.40351 0.41615 0.88303 0.0
C849 C 0.4483 0.45445 0.90215 0.0
C850 C 0.44388 0.45156 0.87986 0.0
C851 C 0.42948 0.4388 0.87411 0.0
C852 C 0.45364 0.46191 0.8622 0.0
C853 C 0.46392 0.46747 0.90931 0.0
C854 C 0.45767 0.47724 0.86182 0.0
C855 C 0.46524 0.48648 0.84383 0.0
C856 C 0.46871 0.48048 0.82579 0.0
C857 C 0.46523 0.46532 0.82662 0.0
C858 C 0.45775 0.45613 0.84462 0.0
H859 H 0.46733 0.46531 0.92565 0.0
H860 H 0.47295 0.46948 0.89746 0.0
H861 H 0.46345 0.47801 0.91046 0.0
H862 H 0.45433 0.48188 0.87496 0.0
H863 H 0.46758 0.49805 0.84351 0.0
H864 H 0.59858 0.97407 0.95295 0.0
H865 H 0.57775 0.96517 0.9253 0.0
H866 H 0.59864 0.01077 0.89961 0.0
H867 H 0.61924 0.01972 0.9271 0.0
H868 H 0.55777 0.97855 0.92108 0.0
H869 H 0.58861 0.98248 0.8451 0.0
H870 H 0.59538 0.9807 0.87181 0.0
H871 H 0.59868 0.99882 0.86268 0.0
C872 C 0.5989 0.98209 0.94105 0.0
C873 C 0.61055 0.99759 0.94216 0.0
C874 C 0.58696 0.97702 0.9254 0.0
C875 C 0.58671 0.98731 0.9104 0.0
C876 C 0.5987 1.00261 0.9109 0.0
H877 H 0.52395 1.0012 0.83665 0.0
H878 H 0.53829 0.99769 0.86627 0.0
C879 C 0.61046 0.00771 0.92664 0.0
C880 C 0.57349 0.98257 0.89509 0.0
H881 H 0.56495 0.98216 0.84092 0.0
C882 C 0.55921 0.97904 0.90353 0.0
C883 C 0.57537 0.98314 0.87225 0.0
C884 C 0.59029 0.98636 0.86235 0.0
C885 C 0.54701 0.97686 0.88967 0.0
C886 C 0.54923 0.97837 0.86685 0.0
C887 C 0.56324 0.98107 0.85843 0.0
C888 C 0.53777 0.97837 0.85138 0.0
C889 C 0.53197 0.97323 0.89959 0.0
C890 C 0.53232 0.96843 0.83342 0.0
C891 C 0.52408 0.9704 0.81649 0.0
C892 C 0.52127 0.98246 0.81709 0.0
C893 C 0.52573 0.99169 0.83584 0.0
C894 C 0.53397 0.9897 0.85279 0.0
H895 H 0.53039 0.96784 0.9159 0.0
H896 H 0.53198 0.98396 0.90175 0.0
H897 H 0.522 0.96553 0.88888 0.0
H898 H 0.53511 0.95962 0.83198 0.0
H899 H 0.52071 0.96305 0.80231 0.0
H900 H 0.61214 0.98318 0.06131 0.0
H901 H 0.5943 0.97625 0.09191 0.0
H902 H 0.59243 0.01679 0.08095 0.0
H903 H 0.61009 0.02382 0.05072 0.0
H904 H 0.59783 0.99468 0.1306 0.0
H905 H 0.54645 0.98122 0.07993 0.0
H906 H 0.56315 0.9817 0.06898 0.0
H907 H 0.5634 0.99913 0.07336 0.0
C908 C 0.60797 0.99064 0.0655 0.0
C909 C 0.6125 1.00402 0.05346 0.0
C910 C 0.59776 0.98664 0.08292 0.0
C911 C 0.59182 0.99586 0.08833 0.0
C912 C 0.59662 0.00936 0.07671 0.0
H913 H 0.54195 0.01315 0.18032 0.0
H914 H 0.55367 0.00972 0.14801 0.0
C915 C 0.60683 0.0134 0.05949 0.0
C916 C 0.58089 0.99182 0.10645 0.0
H917 H 0.54539 0.98608 0.11787 0.0
C918 C 0.58624 0.99247 0.12789 0.0
C919 C 0.5658 0.98899 0.10276 0.0
C920 C 0.55927 0.98757 0.08 0.0
C921 C 0.57725 0.99131 0.14583 0.0
C922 C 0.56239 0.98913 0.14213 0.0
C923 C 0.55678 0.98777 0.12066 0.0
C924 C 0.55314 0.98962 0.16025 0.0
C925 C 0.58409 0.99334 0.16853 0.0
C926 C 0.54828 0.97902 0.17735 0.0
C927 C 0.54155 0.98095 0.19582 0.0
C928 C 0.53947 0.99344 0.19741 0.0
C929 C 0.54329 1.00336 0.17952 0.0
C930 C 0.55007 1.00146 0.16111 0.0
H931 H 0.59671 0.99793 0.16827 0.0
H932 H 0.58201 1.00117 0.17828 0.0
H933 H 0.57851 0.98215 0.17692 0.0
H934 H 0.5502 0.96959 0.17677 0.0
H935 H 0.53851 0.973 0.20924 0.0
H936 H 0.9888 0.60942 0.06105 0.0
H937 H 0.98019 0.59064 0.09084 0.0
H938 H 0.0274 0.60989 0.11253 0.0
H939 H 0.03604 0.62847 0.08302 0.0
H940 H 0.99095 0.5691 0.09688 0.0
H941 H 1.00333 0.60629 0.16886 0.0
H942 H 1.0008 0.61164 0.14163 0.0
H943 H 0.01889 0.61368 0.14985 0.0
C944 C 0.99728 0.60983 0.07248 0.0
C945 C 0.01309 0.62043 0.0697 0.0
C946 C 0.99236 0.59905 0.08937 0.0
C947 C 1.00316 0.59894 0.10393 0.0
C948 C 0.01886 0.60988 0.10163 0.0
H949 H 0.01578 0.53784 0.18146 0.0
H950 H 0.01128 0.55075 0.15108 0.0
C951 C 0.02378 0.62047 0.0847 0.0
C952 C 0.99844 0.58694 0.12079 0.0
H953 H 1.0016 0.5824 0.17545 0.0
C954 C 0.99296 0.5719 0.11412 0.0
C955 C 1.00095 0.59059 0.14325 0.0
C956 C 1.00618 0.6064 0.1514 0.0
C957 C 0.9908 0.5606 0.12927 0.0
C958 C 0.99437 0.56454 0.15158 0.0
C959 C 0.99896 0.57937 0.15834 0.0
C960 C 0.9946 0.55395 0.16808 0.0
C961 C 0.98496 0.54466 0.1212 0.0
C962 C 0.98649 0.55112 0.18759 0.0
C963 C 0.9891 0.5438 0.20498 0.0
C964 C 0.99994 0.53923 0.20324 0.0
C965 C 1.00721 0.54105 0.18317 0.0
C966 C 1.00463 0.54844 0.16578 0.0
H967 H 0.97807 0.54227 0.10586 0.0
H968 H 0.99496 0.54341 0.11767 0.0
H969 H 0.97776 0.53603 0.13361 0.0
H970 H 0.97871 0.55526 0.18976 0.0
H971 H 0.98329 0.54248 0.22024 0.0
H972 H 0.40434 0.37939 0.05986 0.0
H973 H 0.42515 0.3879 0.08738 0.0
H974 H 0.40938 0.41474 0.11868 0.0
H975 H 0.38875 0.40643 0.09139 0.0
H976 H 0.44848 0.42002 0.09511 0.0
H977 H 0.41549 0.39102 0.16936 0.0
H978 H 0.40787 0.38458 0.14209 0.0
H979 H 0.40761 0.40042 0.15387 0.0
C980 C 0.40512 0.38684 0.07289 0.0
C981 C 0.3949 0.39224 0.07346 0.0
C982 C 0.41706 0.39175 0.0885 0.0
C983 C 0.41874 0.40187 0.10511 0.0
C984 C 0.40818 0.40678 0.10615 0.0
H985 H 0.48849 0.47154 0.18328 0.0
H986 H 0.47245 0.45576 0.15279 0.0
C987 C 0.39641 0.40205 0.09049 0.0
C988 C 0.43205 0.40828 0.12058 0.0
H989 H 0.44083 0.4128 0.17502 0.0
C990 C 0.4469 0.41824 0.11257 0.0
C991 C 0.42997 0.40584 0.1433 0.0
C992 C 0.4144 0.39477 0.15271 0.0
C993 C 0.45959 0.42649 0.12683 0.0
C994 C 0.45729 0.42481 0.14963 0.0
C995 C 0.4426 0.41417 0.15754 0.0
C996 C 0.46952 0.43473 0.1657 0.0
C997 C 0.47526 0.43712 0.11737 0.0
C998 C 0.47353 0.42826 0.18287 0.0
C999 C 0.48272 0.43727 0.20033 0.0
C1000 C 0.48795 0.45292 0.20105 0.0
C1001 C 0.48483 0.45957 0.18309 0.0
C1002 C 0.47563 0.45054 0.16563 0.0
H1003 H 0.47614 0.43355 0.10065 0.0
H1004 H 0.47712 0.44875 0.11627 0.0
H1005 H 0.48458 0.43763 0.12781 0.0
H1006 H 0.46895 0.41609 0.18327 0.0
H1007 H 0.48505 0.43185 0.21385 0.0
H1008 H 0.68303 0.73322 0.4056 0.0
H1009 H 0.68648 0.75061 0.43537 0.0
H1010 H 0.63938 0.73926 0.42646 0.0
H1011 H 0.63594 0.72219 0.39659 0.0
H1012 H 0.65921 0.76984 0.42896 0.0
H1013 H 0.67049 0.74088 0.49728 0.0
H1014 H 0.68321 0.74561 0.47464 0.0
H1015 H 0.66297 0.73189 0.4711 0.0
C1016 C 0.67336 0.73429 0.41017 0.0
C1017 C 0.65921 0.72629 0.3987 0.0
C1018 C 0.67534 0.74421 0.42723 0.0
C1019 C 0.66314 0.74616 0.43327 0.0
C1020 C 0.64896 0.73798 0.42207 0.0
H1021 H 0.65569 0.78617 0.55247 0.0
H1022 H 0.65177 0.76977 0.52123 0.0
C1023 C 0.64701 0.72817 0.40501 0.0
C1024 C 0.66514 0.75702 0.45076 0.0
H1025 H 0.67349 0.76484 0.50503 0.0
C1026 C 0.66234 0.76875 0.44561 0.0
C1027 C 0.66905 0.7555 0.47252 0.0
C1028 C 0.67147 0.74272 0.47934 0.0
C1029 C 0.66331 0.77898 0.4616 0.0
C1030 C 0.6675 0.77763 0.48326 0.0
C1031 C 0.67034 0.76591 0.4884 0.0
C1032 C 0.66874 0.78799 0.50106 0.0
C1033 C 0.65944 0.79086 0.45524 0.0
C1034 C 0.67931 0.80377 0.49993 0.0
C1035 C 0.68145 0.8132 0.51772 0.0
C1036 C 0.67321 0.80696 0.53704 0.0
C1037 C 0.66222 0.79127 0.5378 0.0
C1038 C 0.66002 0.78189 0.52 0.0
H1039 H 0.65247 0.78777 0.43988 0.0
H1040 H 0.65297 0.79247 0.46832 0.0
H1041 H 0.67029 0.8019 0.45256 0.0
H1042 H 0.68638 0.80871 0.48566 0.0
H1043 H 0.69015 0.82521 0.51682 0.0
H1044 H 0.28309 0.95125 0.40317 0.0
H1045 H 0.26408 0.93455 0.43014 0.0
H1046 H 0.29541 0.92076 0.45351 0.0
H1047 H 0.31414 0.93699 0.42624 0.0
H1048 H 0.26777 0.89668 0.44157 0.0
H1049 H 0.25907 0.93475 0.49555 0.0
H1050 H 0.25674 0.93703 0.46692 0.0
H1051 H 0.27535 0.94185 0.47766 0.0
C1052 C 0.2861 0.94506 0.4146 0.0
C1053 C 0.30006 0.94538 0.41263 0.0
C1054 C 0.27522 0.93549 0.42998 0.0
C1055 C 0.27831 0.92638 0.44385 0.0
C1056 C 0.29273 0.92761 0.44291 0.0
H1057 H 0.23732 0.86059 0.54495 0.0
H1058 H 0.25301 0.87761 0.5155 0.0
C1059 C 0.30346 0.93696 0.42741 0.0
C1060 C 0.26611 0.91436 0.4577 0.0
H1061 H 0.24233 0.90816 0.50043 0.0
C1062 C 0.26221 0.89922 0.45442 0.0
C1063 C 0.25873 0.91764 0.4743 0.0
C1064 C 0.26275 0.9337 0.47901 0.0
C1065 C 0.2514 0.88734 0.46759 0.0
C1066 C 0.24431 0.89066 0.48446 0.0
C1067 C 0.24778 0.90568 0.48735 0.0
C1068 C 0.23428 0.87895 0.50046 0.0
C1069 C 0.24775 0.87131 0.46355 0.0
C1070 C 0.21849 0.87382 0.5014 0.0
C1071 C 0.20946 0.8639 0.51803 0.0
C1072 C 0.2162 0.85923 0.53411 0.0
C1073 C 0.23187 0.86394 0.53262 0.0
C1074 C 0.24082 0.87368 0.51588 0.0
H1075 H 0.25158 0.87009 0.44722 0.0
H1076 H 0.25375 0.8683 0.4761 0.0
H1077 H 0.23516 0.86306 0.46489 0.0
H1078 H 0.21329 0.87783 0.48965 0.0
H1079 H 0.19746 0.86059 0.51907 0.0
H1080 H 0.05786 0.32315 0.428 0.0
H1081 H 0.07909 0.33238 0.45445 0.0
H1082 H 0.10103 0.37694 0.42496 0.0
H1083 H 0.0796 0.36774 0.39826 0.0
H1084 H 0.12025 0.36322 0.4307 0.0
H1085 H 0.09088 0.36248 0.50658 0.0
H1086 H 0.08027 0.34545 0.49048 0.0
H1087 H 0.08366 0.36326 0.47972 0.0
C1088 C 0.06705 0.335 0.42732 0.0
C1089 C 0.06703 0.34472 0.41104 0.0
C1090 C 0.07917 0.34026 0.4425 0.0
C1091 C 0.09159 0.35535 0.44174 0.0
C1092 C 0.0915 0.36526 0.42586 0.0
H1093 H 0.15893 0.38187 0.5486 0.0
H1094 H 0.14394 0.3844 0.5189 0.0
C1095 C 0.07921 0.36002 0.41074 0.0
C1096 C 0.10497 0.36024 0.45681 0.0
H1097 H 0.11418 0.36211 0.51097 0.0
C1098 C 0.11906 0.36327 0.44825 0.0
C1099 C 0.10343 0.36041 0.47967 0.0
C1100 C 0.08879 0.35787 0.4897 0.0
C1101 C 0.13137 0.36565 0.46204 0.0
C1102 C 0.12945 0.36483 0.48493 0.0
C1103 C 0.11565 0.36264 0.49342 0.0
C1104 C 0.14106 0.36517 0.50049 0.0
C1105 C 0.1462 0.36878 0.45197 0.0
C1106 C 0.14489 0.35384 0.49968 0.0
C1107 C 0.1535 0.35239 0.51663 0.0
C1108 C 0.15828 0.36215 0.53482 0.0
C1109 C 0.15531 0.37412 0.53486 0.0
C1110 C 0.14675 0.37557 0.51791 0.0
H1111 H 0.14766 0.3738 0.43541 0.0
H1112 H 0.15635 0.37664 0.4623 0.0
H1113 H 0.14597 0.3579 0.45035 0.0
H1114 H 0.1404 0.34549 0.48665 0.0
H1115 H 0.15539 0.34294 0.51627 0.0
H1116 H 0.05076 0.30521 0.30158 0.0
H1117 H 0.06654 0.30676 0.27103 0.0
H1118 H 0.0833 0.3547 0.26428 0.0
H1119 H 0.06723 0.35321 0.29492 0.0
H1120 H 0.07625 0.33947 0.2245 0.0
H1121 H 0.11315 0.32574 0.27529 0.0
H1122 H 0.093 0.31176 0.27766 0.0
H1123 H 0.10027 0.33094 0.28692 0.0
C1124 C 0.05772 0.3161 0.29359 0.0
C1125 C 0.05785 0.32914 0.30086 0.0
C1126 C 0.06684 0.31697 0.27619 0.0
C1127 C 0.07643 0.33092 0.26579 0.0
C1128 C 0.07611 0.34385 0.27229 0.0
H1129 H 0.14934 0.34537 0.17635 0.0
H1130 H 0.1352 0.34567 0.20827 0.0
C1131 C 0.06689 0.34298 0.28972 0.0
C1132 C 0.08671 0.33181 0.24813 0.0
H1133 H 0.1147 0.32388 0.2366 0.0
C1134 C 0.08476 0.33619 0.22717 0.0
C1135 C 0.098 0.32779 0.25172 0.0
C1136 C 0.10137 0.32395 0.27417 0.0
C1137 C 0.09336 0.33609 0.20951 0.0
C1138 C 0.10397 0.33117 0.21285 0.0
C1139 C 0.10637 0.32738 0.23399 0.0
C1140 C 0.11261 0.32984 0.19454 0.0
C1141 C 0.09105 0.34134 0.18746 0.0
C1142 C 0.10465 0.32028 0.17674 0.0
C1143 C 0.11268 0.32008 0.15858 0.0
C1144 C 0.12886 0.3293 0.15799 0.0
C1145 C 0.13689 0.33808 0.17644 0.0
C1146 C 0.12882 0.33835 0.19458 0.0
H1147 H 0.08613 0.34877 0.18896 0.0
H1148 H 0.1021 0.34769 0.17857 0.0
H1149 H 0.08285 0.33126 0.17755 0.0
H1150 H 0.09217 0.31327 0.17664 0.0
H1151 H 0.10622 0.31307 0.14468 0.0
H1152 H 0.65386 0.71263 0.26597 0.0
H1153 H 0.66084 0.73155 0.23708 0.0
H1154 H 0.69721 0.76557 0.27835 0.0
H1155 H 0.69085 0.74629 0.30669 0.0
H1156 H 0.65749 0.75425 0.23952 0.0
H1157 H 0.71921 0.7776 0.22236 0.0
H1158 H 0.70803 0.76056 0.2383 0.0
H1159 H 0.71599 0.77907 0.25067 0.0
C1160 C 0.6637 0.72403 0.2685 0.0
C1161 C 0.67193 0.728 0.28839 0.0
C1162 C 0.66763 0.73488 0.25207 0.0
C1163 C 0.6796 0.75007 0.25538 0.0
C1164 C 0.68821 0.75391 0.27503 0.0
H1165 H 0.67059 0.81619 0.17511 0.0
H1166 H 0.67397 0.80397 0.20728 0.0
C1167 C 0.68455 0.74289 0.29128 0.0
C1168 C 0.68172 0.76198 0.23928 0.0
H1169 H 0.70811 0.7915 0.20796 0.0
C1170 C 0.66858 0.76232 0.23256 0.0
C1171 C 0.69616 0.77258 0.23013 0.0
C1172 C 0.71061 0.77236 0.23556 0.0
C1173 C 0.66931 0.77256 0.21664 0.0
C1174 C 0.68381 0.78347 0.20791 0.0
C1175 C 0.69704 0.78334 0.21488 0.0
C1176 C 0.68512 0.79402 0.19005 0.0
C1177 C 0.65436 0.77098 0.20866 0.0
C1178 C 0.69174 0.79391 0.17018 0.0
C1179 C 0.69043 0.80145 0.15195 0.0
C1180 C 0.68215 0.80901 0.15302 0.0
C1181 C 0.67691 0.8104 0.17351 0.0
C1182 C 0.67859 0.80316 0.1919 0.0
H1183 H 0.64425 0.75959 0.21254 0.0
H1184 H 0.65272 0.77964 0.21682 0.0
H1185 H 0.65443 0.77268 0.19073 0.0
H1186 H 0.69714 0.78723 0.16836 0.0
H1187 H 0.69515 0.80061 0.13667 0.0
H1188 H 0.29715 0.96414 0.28565 0.0
H1189 H 0.27898 0.95153 0.25494 0.0
H1190 H 0.26244 0.90787 0.28569 0.0
H1191 H 0.2808 0.92023 0.31563 0.0
H1192 H 0.26896 0.90666 0.24516 0.0
H1193 H 0.23315 0.933 0.24799 0.0
H1194 H 0.25339 0.9467 0.24574 0.0
H1195 H 0.24628 0.93511 0.26986 0.0
C1196 C 0.28949 0.95188 0.28588 0.0
C1197 C 0.2905 0.94317 0.30291 0.0
C1198 C 0.27905 0.94468 0.26842 0.0
C1199 C 0.26922 0.92872 0.26805 0.0
C1200 C 0.26991 0.92016 0.2855 0.0
H1201 H 0.19318 0.87666 0.17469 0.0
H1202 H 0.20844 0.88804 0.20824 0.0
C1203 C 0.28045 0.92727 0.30262 0.0
C1204 C 0.25898 0.92062 0.24897 0.0
H1205 H 0.2299 0.91796 0.21657 0.0
C1206 C 0.26036 0.9091 0.23902 0.0
C1207 C 0.24759 0.92361 0.24111 0.0
C1208 C 0.24487 0.93517 0.25185 0.0
C1209 C 0.25083 0.90061 0.22139 0.0
C1210 C 0.23992 0.90405 0.2129 0.0
C1211 C 0.23834 0.9154 0.223 0.0
C1212 C 0.23053 0.89642 0.19301 0.0
C1213 C 0.25242 0.88788 0.21229 0.0
C1214 C 0.23785 0.89723 0.1734 0.0
C1215 C 0.2292 0.89056 0.15442 0.0
C1216 C 0.213 0.88316 0.15446 0.0
C1217 C 0.20562 0.88213 0.17419 0.0
C1218 C 0.21433 0.88876 0.19329 0.0
H1219 H 0.25727 0.88348 0.2247 0.0
H1220 H 0.24114 0.87826 0.20641 0.0
H1221 H 0.26046 0.89226 0.19836 0.0
H1222 H 0.25032 0.9033 0.17264 0.0
H1223 H 0.23525 0.89143 0.13956 0.0
H1224 H 0.70951 0.957 0.27645 0.0
H1225 H 0.69905 0.93601 0.25043 0.0
H1226 H 0.65371 0.92936 0.25716 0.0
H1227 H 0.66406 0.95044 0.28357 0.0
H1228 H 0.6716 0.90393 0.26154 0.0
H1229 H 0.6642 0.93239 0.18844 0.0
H1230 H 0.6782 0.94319 0.20969 0.0
H1231 H 0.65803 0.93485 0.21472 0.0
C1232 C 0.69733 0.95123 0.27231 0.0
C1233 C 0.68761 0.95542 0.28218 0.0
C1234 C 0.69138 0.93919 0.25747 0.0
C1235 C 0.67564 0.93114 0.25199 0.0
C1236 C 0.66592 0.93549 0.26121 0.0
H1237 H 0.63592 0.86283 0.14831 0.0
H1238 H 0.6376 0.87856 0.17933 0.0
C1239 C 0.67186 0.94756 0.27622 0.0
C1240 C 0.66954 0.91795 0.23704 0.0
H1241 H 0.65954 0.90768 0.18379 0.0
C1242 C 0.66876 0.90462 0.24458 0.0
C1243 C 0.66577 0.91891 0.21505 0.0
C1244 C 0.66659 0.93308 0.20629 0.0
C1245 C 0.66464 0.89231 0.2305 0.0
C1246 C 0.66163 0.89356 0.20818 0.0
C1247 C 0.66186 0.9067 0.20088 0.0
C1248 C 0.65929 0.88195 0.19174 0.0
C1249 C 0.6636 0.87814 0.2397 0.0
C1250 C 0.67069 0.87825 0.18873 0.0
C1251 C 0.66966 0.86913 0.17116 0.0
C1252 C 0.65734 0.86377 0.15607 0.0
C1253 C 0.64556 0.86685 0.1597 0.0
C1254 C 0.64653 0.87585 0.17736 0.0
H1255 H 0.66079 0.87681 0.25733 0.0
H1256 H 0.65472 0.86776 0.23091 0.0
H1257 H 0.67493 0.87904 0.23807 0.0
H1258 H 0.68084 0.88311 0.19924 0.0
H1259 H 0.67902 0.86715 0.16855 0.0
H1260 H 0.03545 0.74379 0.26065 0.0
H1261 H 0.05399 0.75978 0.23303 0.0
H1262 H 0.08423 0.744 0.25376 0.0
H1263 H 0.06539 0.72754 0.28104 0.0
H1264 H 0.08221 0.78311 0.24285 0.0
H1265 H 0.08729 0.743 0.18838 0.0
H1266 H 0.07175 0.73672 0.20744 0.0
H1267 H 0.09047 0.74089 0.21676 0.0
C1268 C 0.04585 0.74339 0.25889 0.0
C1269 C 0.04897 0.7344 0.27296 0.0
C1270 C 0.05648 0.7526 0.24318 0.0
C1271 C 0.07053 0.75313 0.24129 0.0
C1272 C 0.07337 0.7436 0.25461 0.0
H1273 H 0.15219 0.81729 0.16651 0.0
H1274 H 0.13573 0.80077 0.19605 0.0
C1275 C 0.06258 0.73417 0.27019 0.0
C1276 C 0.08261 0.7647 0.2268 0.0
H1277 H 0.10523 0.76938 0.18318 0.0
C1278 C 0.08722 0.78007 0.22981 0.0
C1279 C 0.08924 0.76077 0.20986 0.0
C1280 C 0.08436 0.74444 0.20523 0.0
C1281 C 0.09808 0.79155 0.21618 0.0
C1282 C 0.10455 0.78759 0.19918 0.0
C1283 C 0.10027 0.77233 0.19641 0.0
C1284 C 0.11488 0.79897 0.18305 0.0
C1285 C 0.1025 0.80785 0.2198 0.0
C1286 C 0.1086 0.80366 0.16639 0.0
C1287 C 0.11791 0.81299 0.14957 0.0
C1288 C 0.13368 0.81788 0.14926 0.0
C1289 C 0.14012 0.81384 0.16659 0.0
C1290 C 0.13073 0.80433 0.18331 0.0
H1291 H 0.0982 0.80938 0.23557 0.0
H1292 H 0.11524 0.81549 0.2195 0.0
H1293 H 0.09755 0.81141 0.20638 0.0
H1294 H 0.09637 0.79957 0.16592 0.0
H1295 H 0.11269 0.81588 0.13631 0.0
H1296 H 0.27178 0.31433 0.29394 0.0
H1297 H 0.25226 0.30914 0.26535 0.0
H1298 H 0.28178 0.3541 0.23895 0.0
H1299 H 0.30107 0.3594 0.26744 0.0
H1300 H 0.23949 0.32986 0.26044 0.0
H1301 H 0.26564 0.32418 0.18501 0.0
H1302 H 0.27055 0.32045 0.21191 0.0
H1303 H 0.27863 0.33971 0.20256 0.0
C1304 C 0.27426 0.3229 0.28161 0.0
C1305 C 0.28793 0.33725 0.28283 0.0
C1306 C 0.26307 0.31998 0.26544 0.0
C1307 C 0.26563 0.33124 0.25005 0.0
C1308 C 0.27965 0.34522 0.25055 0.0
H1309 H 0.22575 0.35574 0.1472 0.0
H1310 H 0.24108 0.35355 0.17666 0.0
C1311 C 0.29066 0.34822 0.26683 0.0
C1312 C 0.25329 0.32922 0.23465 0.0
H1313 H 0.24569 0.32978 0.18034 0.0
C1314 C 0.24062 0.32954 0.24291 0.0
C1315 C 0.25492 0.32893 0.21186 0.0
C1316 C 0.2681 0.32817 0.20223 0.0
C1317 C 0.22998 0.33045 0.22889 0.0
C1318 C 0.23195 0.33073 0.20604 0.0
C1319 C 0.24425 0.32969 0.19785 0.0
C1320 C 0.222 0.33294 0.19021 0.0
C1321 C 0.21725 0.3319 0.23866 0.0
C1322 C 0.20606 0.32236 0.18845 0.0
C1323 C 0.19723 0.32377 0.17179 0.0
C1324 C 0.20427 0.33565 0.15652 0.0
C1325 C 0.22006 0.34655 0.15888 0.0
C1326 C 0.22882 0.34523 0.17559 0.0
H1327 H 0.21949 0.33508 0.25622 0.0
H1328 H 0.2158 0.34057 0.2298 0.0
H1329 H 0.20623 0.32081 0.23731 0.0
H1330 H 0.20059 0.31264 0.19928 0.0
H1331 H 0.18513 0.31509 0.17002 0.0
H1332 H 0.28331 0.31862 0.40135 0.0
H1333 H 0.26401 0.31184 0.42988 0.0
H1334 H 0.26552 0.35413 0.41898 0.0
H1335 H 0.28467 0.36102 0.39081 0.0
H1336 H 0.26692 0.33024 0.46887 0.0
H1337 H 0.21878 0.31999 0.41304 0.0
H1338 H 0.23542 0.31954 0.404 0.0
H1339 H 0.23666 0.33746 0.40816 0.0
C1340 C 0.27958 0.32649 0.40513 0.0
C1341 C 0.28551 0.34034 0.39372 0.0
C1342 C 0.26853 0.32258 0.42135 0.0
C1343 C 0.26315 0.33236 0.42615 0.0
C1344 C 0.26931 0.34629 0.41517 0.0
H1345 H 0.20944 0.3487 0.51342 0.0
H1346 H 0.22217 0.34582 0.48178 0.0
C1347 C 0.28036 0.35025 0.39916 0.0
C1348 C 0.25142 0.32845 0.44307 0.0
H1349 H 0.21582 0.32354 0.45077 0.0
C1350 C 0.25562 0.32846 0.46498 0.0
C1351 C 0.23676 0.32625 0.43783 0.0
C1352 C 0.23153 0.32567 0.41447 0.0
C1353 C 0.24585 0.32718 0.48192 0.0
C1354 C 0.23134 0.32544 0.4767 0.0
C1355 C 0.22692 0.32484 0.45473 0.0
C1356 C 0.22121 0.32547 0.49387 0.0
C1357 C 0.25156 0.32859 0.50521 0.0
C1358 C 0.21569 0.31451 0.51053 0.0
C1359 C 0.20847 0.31618 0.52861 0.0
C1360 C 0.20647 0.32871 0.53016 0.0
C1361 C 0.21075 0.33889 0.51256 0.0
C1362 C 0.2181 0.3373 0.49455 0.0
H1363 H 0.2642 0.33326 0.50619 0.0
H1364 H 0.24894 0.33607 0.51484 0.0
H1365 H 0.24568 0.31715 0.51291 0.0
H1366 H 0.21761 0.30508 0.51004 0.0
H1367 H 0.20515 0.3081 0.54191 0.0
H1368 H 0.67216 0.95206 0.39564 0.0
H1369 H 0.66884 0.93481 0.42593 0.0
H1370 H 0.7174 0.95063 0.42477 0.0
H1371 H 0.72081 0.96767 0.39469 0.0
H1372 H 0.6981 0.91863 0.42406 0.0
H1373 H 0.68306 0.94512 0.49049 0.0
H1374 H 0.67176 0.94058 0.46569 0.0
H1375 H 0.69186 0.95506 0.46549 0.0
C1376 C 0.68215 0.95202 0.40208 0.0
C1377 C 0.69674 0.96124 0.39269 0.0
C1378 C 0.68024 0.94215 0.41936 0.0
C1379 C 0.69289 0.94145 0.42759 0.0
C1380 C 0.70747 0.95093 0.4186 0.0
H1381 H 0.70988 0.90785 0.54614 0.0
H1382 H 0.70976 0.92204 0.51399 0.0
C1383 C 0.70939 0.96072 0.40142 0.0
C1384 C 0.69111 0.9306 0.44511 0.0
H1385 H 0.68389 0.9232 0.49942 0.0
C1386 C 0.69487 0.91952 0.44051 0.0
C1387 C 0.68699 0.93188 0.46656 0.0
C1388 C 0.68328 0.94385 0.47253 0.0
C1389 C 0.69492 0.90989 0.4569 0.0
C1390 C 0.69096 0.91128 0.4784 0.0
C1391 C 0.68689 0.92215 0.48289 0.0
C1392 C 0.69182 0.90224 0.4968 0.0
C1393 C 0.69978 0.89871 0.45128 0.0
C1394 C 0.68204 0.88632 0.49758 0.0
C1395 C 0.68214 0.87815 0.51597 0.0
C1396 C 0.69193 0.88581 0.53391 0.0
C1397 C 0.70214 0.90166 0.53263 0.0
C1398 C 0.70205 0.90978 0.51431 0.0
H1399 H 0.70541 0.90116 0.43513 0.0
H1400 H 0.70787 0.89888 0.46389 0.0
H1401 H 0.68945 0.88704 0.45075 0.0
H1402 H 0.67392 0.8803 0.48436 0.0
H1403 H 0.67402 0.86598 0.51663 0.0
H1404 H 0.06427 0.7587 0.37354 0.0
H1405 H 0.08278 0.77083 0.40338 0.0
H1406 H 0.07089 0.72667 0.42838 0.0
H1407 H 0.05267 0.71438 0.39769 0.0
H1408 H 0.07779 0.7698 0.44468 0.0
H1409 H 0.11694 0.74806 0.4317 0.0
H1410 H 0.10259 0.74568 0.41168 0.0
H1411 H 0.09721 0.73308 0.43479 0.0
C1412 C 0.06564 0.75152 0.38528 0.0
C1413 C 0.05695 0.73556 0.3833 0.0
C1414 C 0.07627 0.7585 0.40236 0.0
C1415 C 0.0784 0.74972 0.41808 0.0
C1416 C 0.06976 0.73373 0.41618 0.0
H1417 H 0.11519 0.78314 0.54727 0.0
H1418 H 0.09933 0.77192 0.51463 0.0
C1419 C 0.05925 0.7267 0.39875 0.0
C1420 C 0.08903 0.75748 0.43696 0.0
H1421 H 0.12002 0.76096 0.46535 0.0
C1422 C 0.08708 0.76791 0.44907 0.0
C1423 C 0.10135 0.75526 0.44254 0.0
C1424 C 0.10478 0.74504 0.42936 0.0
C1425 C 0.09691 0.77602 0.46667 0.0
C1426 C 0.10873 0.77324 0.47295 0.0
C1427 C 0.11088 0.76301 0.46066 0.0
C1428 C 0.11858 0.78041 0.49267 0.0
C1429 C 0.09466 0.7877 0.47808 0.0
C1430 C 0.13476 0.78868 0.49136 0.0
C1431 C 0.14395 0.79486 0.51021 0.0
C1432 C 0.13709 0.7928 0.53072 0.0
C1433 C 0.12088 0.78478 0.53182 0.0
C1434 C 0.11176 0.77851 0.51308 0.0
H1435 H 0.08907 0.79215 0.46706 0.0
H1436 H 0.08698 0.78228 0.49221 0.0
H1437 H 0.10579 0.79746 0.48411 0.0
H1438 H 0.14028 0.79024 0.47578 0.0
H1439 H 0.15638 0.80083 0.50882 0.0
H1440 H 0.34339 0.06228 0.74258 0.0
H1441 H 0.34882 0.08102 0.77129 0.0
H1442 H 0.30001 0.06246 0.77863 0.0
H1443 H 0.29451 0.04395 0.74993 0.0
H1444 H 0.31633 0.09366 0.77316 0.0
H1445 H 0.34352 0.07634 0.8375 0.0
H1446 H 0.3521 0.07969 0.81105 0.0
H1447 H 0.33267 0.06413 0.8148 0.0
C1448 C 0.33382 0.062 0.75063 0.0
C1449 C 0.31853 0.05164 0.74392 0.0
C1450 C 0.33694 0.07273 0.76703 0.0
C1451 C 0.3248 0.07312 0.77712 0.0
C1452 C 0.30954 0.06241 0.771 0.0
H1453 H 0.32519 0.11883 0.89431 0.0
H1454 H 0.32047 0.10092 0.86487 0.0
C1455 C 0.30643 0.05179 0.75462 0.0
C1456 C 0.32783 0.08511 0.79326 0.0
H1457 H 0.34317 0.09885 0.84387 0.0
C1458 C 0.32223 0.09483 0.78862 0.0
C1459 C 0.33544 0.08654 0.81345 0.0
C1460 C 0.34118 0.07606 0.81967 0.0
C1461 C 0.32389 0.10584 0.80369 0.0
C1462 C 0.33159 0.10734 0.82381 0.0
C1463 C 0.33732 0.09771 0.82838 0.0
C1464 C 0.33333 0.11837 0.84081 0.0
C1465 C 0.317 0.11545 0.79822 0.0
C1466 C 0.34182 0.13415 0.83692 0.0
C1467 C 0.34443 0.14443 0.85374 0.0
C1468 C 0.33875 0.13907 0.87474 0.0
C1469 C 0.32977 0.12327 0.87831 0.0
C1470 C 0.32711 0.11304 0.86154 0.0
H1471 H 0.30838 0.11045 0.78465 0.0
H1472 H 0.31134 0.1168 0.81267 0.0
H1473 H 0.32631 0.12695 0.79309 0.0
H1474 H 0.34692 0.13852 0.82115 0.0
H1475 H 0.35156 0.15655 0.85064 0.0
H1476 H 0.95807 0.29268 0.74413 0.0
H1477 H 0.94028 0.27826 0.77377 0.0
H1478 H 0.94229 0.23868 0.7566 0.0
H1479 H 0.96009 0.25289 0.72749 0.0
H1480 H 0.91112 0.25129 0.77044 0.0
H1481 H 0.95107 0.24219 0.82197 0.0
H1482 H 0.95773 0.25621 0.80045 0.0
H1483 H 0.95033 0.23648 0.79417 0.0
C1484 C 0.95488 0.28097 0.74689 0.0
C1485 C 0.96059 0.27398 0.73349 0.0
C1486 C 0.94467 0.27274 0.76374 0.0
C1487 C 0.94013 0.25746 0.76755 0.0
C1488 C 0.94588 0.25054 0.75426 0.0
H1489 H 0.87969 0.18283 0.85139 0.0
H1490 H 0.89482 0.19859 0.82053 0.0
C1491 C 0.95603 0.2587 0.73752 0.0
C1492 C 0.92899 0.24842 0.78484 0.0
H1493 H 0.92419 0.22617 0.82926 0.0
C1494 C 0.914 0.24593 0.78346 0.0
C1495 C 0.93278 0.24143 0.80179 0.0
C1496 C 0.9489 0.24432 0.80485 0.0
C1497 C 0.90256 0.2362 0.79819 0.0
C1498 C 0.90627 0.22889 0.81472 0.0
C1499 C 0.92132 0.23162 0.81633 0.0
C1500 C 0.89495 0.21873 0.83108 0.0
C1501 C 0.88649 0.23348 0.79569 0.0
C1502 C 0.8897 0.22474 0.84685 0.0
C1503 C 0.88108 0.21578 0.86442 0.0
C1504 C 0.8776 0.20066 0.86654 0.0
C1505 C 0.88207 0.19438 0.85003 0.0
C1506 C 0.89078 0.20339 0.83251 0.0
H1507 H 0.88465 0.23732 0.77952 0.0
H1508 H 0.87771 0.22121 0.79776 0.0
H1509 H 0.88465 0.23992 0.80852 0.0
H1510 H 0.89295 0.23659 0.8462 0.0
H1511 H 0.87776 0.22088 0.87693 0.0
H1512 H 0.72878 0.66207 0.76354 0.0
H1513 H 0.74983 0.67229 0.79035 0.0
H1514 H 0.7712 0.7161 0.75861 0.0
H1515 H 0.7499 0.70587 0.73152 0.0
H1516 H 0.79084 0.70315 0.76592 0.0
H1517 H 0.76119 0.70325 0.84091 0.0
H1518 H 0.75063 0.68583 0.82564 0.0
H1519 H 0.75386 0.70333 0.81383 0.0
C1520 C 0.73779 0.67397 0.76246 0.0
C1521 C 0.73768 0.68318 0.74543 0.0
C1522 C 0.7498 0.67981 0.77785 0.0
C1523 C 0.76203 0.69496 0.77654 0.0
C1524 C 0.76181 0.70438 0.75994 0.0
H1525 H 0.82715 0.71903 0.88568 0.0
H1526 H 0.81358 0.72317 0.85552 0.0
C1527 C 0.7496 0.69857 0.7446 0.0
C1528 C 0.77541 0.70032 0.79173 0.0
H1529 H 0.78415 0.70215 0.84603 0.0
C1530 C 0.78954 0.70329 0.78344 0.0
C1531 C 0.77374 0.70064 0.81453 0.0
C1532 C 0.75908 0.69824 0.82428 0.0
C1533 C 0.8017 0.70557 0.79746 0.0
C1534 C 0.79957 0.70467 0.82031 0.0
C1535 C 0.78579 0.70273 0.82852 0.0
C1536 C 0.81072 0.70435 0.83606 0.0
C1537 C 0.81657 0.70858 0.78766 0.0
C1538 C 0.81416 0.69275 0.83482 0.0
C1539 C 0.82199 0.69042 0.85201 0.0
C1540 C 0.82633 0.69952 0.87087 0.0
C1541 C 0.82387 0.7118 0.87138 0.0
C1542 C 0.81611 0.71416 0.85417 0.0
H1543 H 0.81841 0.71407 0.77139 0.0
H1544 H 0.82663 0.71597 0.79842 0.0
H1545 H 0.81601 0.69759 0.7854 0.0
H1546 H 0.80986 0.68482 0.82127 0.0
H1547 H 0.82352 0.68074 0.85128 0.0
H1548 H 0.73843 0.68967 0.62982 0.0
H1549 H 0.75384 0.69117 0.59835 0.0
H1550 H 0.73623 0.64295 0.60349 0.0
H1551 H 0.72125 0.64146 0.63507 0.0
H1552 H 0.76702 0.65881 0.60022 0.0
H1553 H 0.74109 0.67741 0.53586 0.0
H1554 H 0.74832 0.6897 0.55929 0.0
H1555 H 0.73229 0.67051 0.56208 0.0
C1556 C 0.73769 0.67937 0.624 0.0
C1557 C 0.72866 0.66547 0.63495 0.0
C1558 C 0.74647 0.68023 0.606 0.0
C1559 C 0.74612 0.66714 0.59847 0.0
C1560 C 0.73674 0.6532 0.60905 0.0
H1561 H 0.77658 0.65301 0.47533 0.0
H1562 H 0.76233 0.65239 0.50755 0.0
C1563 C 0.72815 0.65238 0.62708 0.0
C1564 C 0.75594 0.66786 0.58023 0.0
H1565 H 0.763 0.67634 0.52613 0.0
C1566 C 0.76615 0.66266 0.58401 0.0
C1567 C 0.75469 0.67275 0.55906 0.0
C1568 C 0.74342 0.67778 0.5537 0.0
C1569 C 0.77502 0.66202 0.56716 0.0
C1570 C 0.77394 0.66711 0.54606 0.0
C1571 C 0.76386 0.67248 0.54234 0.0
C1572 C 0.78274 0.66652 0.52736 0.0
C1573 C 0.78505 0.65543 0.57199 0.0
C1574 C 0.79896 0.67442 0.52792 0.0
C1575 C 0.80711 0.67459 0.5096 0.0
C1576 C 0.79917 0.6671 0.49033 0.0
C1577 C 0.78296 0.6589 0.48999 0.0
C1578 C 0.77483 0.65859 0.50834 0.0
H1579 H 0.78136 0.6483 0.58697 0.0
H1580 H 0.78481 0.64839 0.55816 0.0
H1581 H 0.79714 0.66487 0.57466 0.0
H1582 H 0.80533 0.68087 0.54225 0.0
H1583 H 0.81961 0.68119 0.51013 0.0
H1584 H 0.34619 0.05878 0.62855 0.0
H1585 H 0.35343 0.07742 0.59873 0.0
H1586 H 0.30909 0.0735 0.60225 0.0
H1587 H 0.30173 0.05502 0.63157 0.0
H1588 H 0.33559 0.07305 0.5567 0.0
H1589 H 0.34211 0.12036 0.60819 0.0
H1590 H 0.34328 0.10459 0.61921 0.0
H1591 H 0.32482 0.10224 0.61265 0.0
C1592 C 0.33798 0.06186 0.62289 0.0
C1593 C 0.3234 0.05542 0.63254 0.0
C1594 C 0.34215 0.07252 0.60593 0.0
C1595 C 0.33187 0.077 0.59861 0.0
C1596 C 0.31727 0.07039 0.60793 0.0
H1597 H 0.32008 0.1317 0.50281 0.0
H1598 H 0.31978 0.11728 0.5352 0.0
C1599 C 0.31307 0.05973 0.62465 0.0
C1600 C 0.33599 0.08832 0.58089 0.0
H1601 H 0.34012 0.1229 0.56975 0.0
C1602 C 0.33686 0.08407 0.55952 0.0
C1603 C 0.33746 0.10259 0.58469 0.0
C1604 C 0.33701 0.10782 0.60744 0.0
C1605 C 0.33847 0.09345 0.54168 0.0
C1606 C 0.33964 0.10763 0.54542 0.0
C1607 C 0.33921 0.11204 0.5669 0.0
C1608 C 0.34074 0.11775 0.52716 0.0
C1609 C 0.33817 0.08775 0.51893 0.0
C1610 C 0.35294 0.12333 0.51243 0.0
C1611 C 0.35307 0.13146 0.49397 0.0
C1612 C 0.34112 0.13437 0.49004 0.0
C1613 C 0.32944 0.12965 0.50551 0.0
C1614 C 0.32924 0.12138 0.52393 0.0
H1615 H 0.33329 0.07524 0.51863 0.0
H1616 H 0.33126 0.09046 0.50759 0.0
H1617 H 0.35012 0.09337 0.51277 0.0
H1618 H 0.36217 0.12105 0.51491 0.0
H1619 H 0.36232 0.13515 0.48241 0.0
H1620 H 0.96698 0.27611 0.60601 0.0
H1621 H 0.94638 0.26684 0.57847 0.0
H1622 H 0.92713 0.29021 0.61094 0.0
H1623 H 0.94793 0.29973 0.63865 0.0
H1624 H 0.90629 0.25687 0.60262 0.0
H1625 H 0.93717 0.28983 0.52906 0.0
H1626 H 0.94683 0.28205 0.54426 0.0
H1627 H 0.94422 0.29639 0.5565 0.0
C1628 C 0.95856 0.27956 0.60707 0.0
C1629 C 0.95906 0.28864 0.62449 0.0
C1630 C 0.94682 0.27427 0.5913 0.0
C1631 C 0.93529 0.27788 0.59268 0.0
C1632 C 0.936 0.28737 0.6096 0.0
H1633 H 0.86628 0.24615 0.48765 0.0
H1634 H 0.88286 0.26135 0.51822 0.0
C1635 C 0.94791 0.29287 0.6253 0.0
C1636 C 0.92196 0.27064 0.57734 0.0
H1637 H 0.91281 0.26701 0.52304 0.0
C1638 C 0.9076 0.25924 0.58525 0.0
C1639 C 0.92372 0.27382 0.55476 0.0
C1640 C 0.93878 0.28628 0.54559 0.0
C1641 C 0.89512 0.25041 0.57094 0.0
C1642 C 0.89715 0.25303 0.54823 0.0
C1643 C 0.9113 0.26495 0.54047 0.0
C1644 C 0.88512 0.24313 0.53201 0.0
C1645 C 0.87995 0.23822 0.58019 0.0
C1646 C 0.88059 0.22773 0.52994 0.0
C1647 C 0.87115 0.21902 0.51243 0.0
C1648 C 0.8662 0.22563 0.49664 0.0
C1649 C 0.87005 0.24081 0.49947 0.0
C1650 C 0.87949 0.24949 0.51693 0.0
H1651 H 0.87893 0.24041 0.59763 0.0
H1652 H 0.87008 0.23743 0.57083 0.0
H1653 H 0.87916 0.22705 0.57912 0.0
H1654 H 0.88504 0.22268 0.54119 0.0
H1655 H 0.86853 0.20743 0.51052 0.0
H1656 H 0.38724 0.30032 0.61303 0.0
H1657 H 0.38306 0.28224 0.58428 0.0
H1658 H 0.33415 0.26487 0.58511 0.0
H1659 H 0.33827 0.28319 0.61381 0.0
H1660 H 0.36602 0.25111 0.58704 0.0
H1661 H 0.3435 0.27147 0.52017 0.0
H1662 H 0.35292 0.2827 0.54427 0.0
H1663 H 0.33318 0.26729 0.54529 0.0
C1664 C 0.37559 0.29281 0.60694 0.0
C1665 C 0.36308 0.29323 0.61574 0.0
C1666 C 0.37322 0.28243 0.59053 0.0
C1667 C 0.35832 0.27223 0.58246 0.0
C1668 C 0.3458 0.27279 0.59084 0.0
H1669 H 0.33329 0.19032 0.50626 0.0
H1670 H 0.33738 0.20784 0.53623 0.0
C1671 C 0.34816 0.28327 0.60726 0.0
C1672 C 0.35599 0.26067 0.56592 0.0
H1673 H 0.34322 0.24863 0.51382 0.0
C1674 C 0.36102 0.25054 0.57102 0.0
C1675 C 0.34959 0.26004 0.54499 0.0
C1676 C 0.3446 0.27103 0.5382 0.0
C1677 C 0.35989 0.23986 0.55574 0.0
C1678 C 0.35331 0.2391 0.5349 0.0
C1679 C 0.34821 0.24918 0.52984 0.0
C1680 C 0.35202 0.22833 0.51774 0.0
C1681 C 0.36614 0.22978 0.56184 0.0
C1682 C 0.359 0.23398 0.4975 0.0
C1683 C 0.35663 0.22403 0.48043 0.0
C1684 C 0.3472 0.20818 0.48322 0.0
C1685 C 0.34078 0.20247 0.50378 0.0
C1686 C 0.34309 0.21247 0.52088 0.0
H1687 H 0.37423 0.23438 0.57605 0.0
H1688 H 0.35642 0.21832 0.56629 0.0
H1689 H 0.37223 0.22846 0.54792 0.0
H1690 H 0.36598 0.24615 0.49472 0.0
H1691 H 0.36176 0.22874 0.46477 0.0
H1692 H 0.73172 0.05877 0.62676 0.0
H1693 H 0.74802 0.0748 0.59677 0.0
H1694 H 0.73153 0.10554 0.60608 0.0
H1695 H 0.71571 0.08995 0.6362 0.0
H1696 H 0.74227 0.08405 0.55825 0.0
H1697 H 0.77744 0.13445 0.61075 0.0
H1698 H 0.7643 0.11583 0.62178 0.0
H1699 H 0.75728 0.12784 0.61235 0.0
C1700 C 0.73151 0.06888 0.62225 0.0
C1701 C 0.7226 0.07321 0.63401 0.0
C1702 C 0.74086 0.07806 0.6052 0.0
C1703 C 0.74135 0.09163 0.59963 0.0
C1704 C 0.73177 0.09544 0.61057 0.0
H1705 H 0.77339 0.14208 0.47898 0.0
H1706 H 0.75847 0.12663 0.51007 0.0
C1707 C 0.72263 0.08643 0.62769 0.0
C1708 C 0.75179 0.10188 0.5824 0.0
H1709 H 0.77927 0.139 0.57217 0.0
C1710 C 0.75045 0.09603 0.56133 0.0
C1711 C 0.76272 0.11747 0.58651 0.0
C1712 C 0.76566 0.12423 0.60913 0.0
C1713 C 0.75933 0.10545 0.54409 0.0
C1714 C 0.7695 0.12125 0.5479 0.0
C1715 C 0.77125 0.12697 0.56915 0.0
C1716 C 0.77849 0.13196 0.53006 0.0
C1717 C 0.75785 0.0983 0.52205 0.0
C1718 C 0.79467 0.14097 0.53155 0.0
C1719 C 0.80319 0.15011 0.51399 0.0
C1720 C 0.79566 0.15032 0.49465 0.0
C1721 C 0.77946 0.14201 0.49368 0.0
C1722 C 0.77094 0.13305 0.51131 0.0
H1723 H 0.75355 0.08593 0.52352 0.0
H1724 H 0.74944 0.09953 0.51178 0.0
H1725 H 0.76908 0.10389 0.51357 0.0
H1726 H 0.80073 0.14045 0.54595 0.0
H1727 H 0.81568 0.15632 0.51504 0.0
H1728 H 0.95789 0.6997 0.62563 0.0
H1729 H 0.93959 0.6952 0.59622 0.0
H1730 H 0.92816 0.64858 0.59131 0.0
H1731 H 0.94638 0.6529 0.62132 0.0
H1732 H 0.93824 0.68642 0.55402 0.0
H1733 H 0.88588 0.64372 0.59826 0.0
H1734 H 0.90434 0.65529 0.61181 0.0
H1735 H 0.9006 0.63906 0.59589 0.0
C1736 C 0.95155 0.68846 0.61833 0.0
C1737 C 0.95355 0.67661 0.62601 0.0
C1738 C 0.94107 0.68592 0.60146 0.0
C1739 C 0.93229 0.67149 0.59182 0.0
C1740 C 0.93457 0.65972 0.59887 0.0
H1741 H 0.86572 0.641 0.48446 0.0
H1742 H 0.88239 0.64261 0.51504 0.0
C1743 C 0.94509 0.66225 0.61587 0.0
C1744 C 0.92082 0.66902 0.57442 0.0
H1745 H 0.88224 0.6492 0.56184 0.0
C1746 C 0.926 0.67827 0.55574 0.0
C1747 C 0.90484 0.65842 0.57671 0.0
C1748 C 0.8985 0.64863 0.59681 0.0
C1749 C 0.91566 0.67721 0.53932 0.0
C1750 C 0.89969 0.66674 0.54172 0.0
C1751 C 0.89449 0.6573 0.56018 0.0
C1752 C 0.88832 0.66523 0.52486 0.0
C1753 C 0.92191 0.68718 0.51936 0.0
C1754 C 0.88574 0.67722 0.52075 0.0
C1755 C 0.87614 0.6763 0.50334 0.0
C1756 C 0.86908 0.6634 0.48974 0.0
C1757 C 0.87112 0.65113 0.49459 0.0
C1758 C 0.88061 0.65201 0.51205 0.0
H1759 H 0.93459 0.69242 0.518 0.0
H1760 H 0.91624 0.68052 0.5043 0.0
H1761 H 0.91941 0.69649 0.52032 0.0
H1762 H 0.89149 0.68746 0.53064 0.0
H1763 H 0.87484 0.68594 0.4999 0.0
H1764 H 0.96404 0.69608 0.74988 0.0
H1765 H 0.94485 0.68939 0.77812 0.0
H1766 H 0.92144 0.64236 0.75795 0.0
H1767 H 0.9408 0.64894 0.72958 0.0
H1768 H 0.90288 0.65843 0.76131 0.0
H1769 H 0.93738 0.66233 0.83518 0.0
H1770 H 0.94697 0.67747 0.81562 0.0
H1771 H 0.94162 0.65842 0.80832 0.0
C1772 C 0.95496 0.68426 0.75163 0.0
C1773 C 0.95395 0.67303 0.73751 0.0
C1774 C 0.94401 0.68047 0.76777 0.0
C1775 C 0.93177 0.66541 0.77006 0.0
C1776 C 0.93086 0.65405 0.75639 0.0
H1777 H 0.8716 0.64328 0.88147 0.0
H1778 H 0.88439 0.63987 0.85044 0.0
C1779 C 0.94196 0.65781 0.74034 0.0
C1780 C 0.91966 0.66187 0.78619 0.0
H1781 H 0.91424 0.66231 0.84086 0.0
C1782 C 0.90522 0.65902 0.77873 0.0
C1783 C 0.92278 0.66261 0.80883 0.0
C1784 C 0.93798 0.66526 0.81758 0.0
C1785 C 0.89402 0.65753 0.79342 0.0
C1786 C 0.89743 0.65903 0.81607 0.0
C1787 C 0.91164 0.66121 0.82349 0.0
C1788 C 0.88694 0.65924 0.83245 0.0
C1789 C 0.87872 0.65456 0.78461 0.0
C1790 C 0.88363 0.67095 0.83228 0.0
C1791 C 0.87629 0.67292 0.85001 0.0
C1792 C 0.8723 0.66328 0.86826 0.0
C1793 C 0.87465 0.65093 0.86767 0.0
C1794 C 0.88195 0.64897 0.84997 0.0
H1795 H 0.8762 0.64941 0.76805 0.0
H1796 H 0.86917 0.64689 0.79559 0.0
H1797 H 0.87905 0.66552 0.78342 0.0
H1798 H 0.88762 0.67918 0.81912 0.0
H1799 H 0.8748 0.68263 0.85014 0.0
H1800 H 0.33163 0.27877 0.71963 0.0
H1801 H 0.32518 0.2604 0.7496 0.0
H1802 H 0.37305 0.28371 0.76968 0.0
H1803 H 0.37959 0.3019 0.73993 0.0
H1804 H 0.34104 0.24181 0.75625 0.0
H1805 H 0.34672 0.27878 0.826 0.0
H1806 H 0.34256 0.28215 0.79843 0.0
H1807 H 0.36182 0.28727 0.8062 0.0
C1808 C 0.34072 0.28009 0.73065 0.0
C1809 C 0.35612 0.29178 0.72741 0.0
C1810 C 0.33704 0.26955 0.74764 0.0
C1811 C 0.34866 0.27074 0.76181 0.0
C1812 C 0.36392 0.28265 0.75897 0.0
H1813 H 0.36179 0.21323 0.85147 0.0
H1814 H 0.36104 0.22716 0.81915 0.0
C1815 C 0.36762 0.29303 0.74194 0.0
C1816 C 0.34516 0.25935 0.77921 0.0
H1817 H 0.34589 0.25578 0.83455 0.0
C1818 C 0.34189 0.24475 0.77339 0.0
C1819 C 0.34629 0.26326 0.8015 0.0
C1820 C 0.34942 0.27867 0.80853 0.0
C1821 C 0.34018 0.23409 0.78938 0.0
C1822 C 0.34191 0.23822 0.81167 0.0
C1823 C 0.34467 0.25265 0.81744 0.0
C1824 C 0.34112 0.22792 0.82943 0.0
C1825 C 0.3366 0.21853 0.78233 0.0
C1826 C 0.33007 0.22355 0.84574 0.0
C1827 C 0.33048 0.21564 0.86411 0.0
C1828 C 0.34205 0.21203 0.86668 0.0
C1829 C 0.35267 0.21574 0.84984 0.0
C1830 C 0.35224 0.22369 0.83138 0.0
H1831 H 0.33189 0.21584 0.76537 0.0
H1832 H 0.34736 0.21818 0.78295 0.0
H1833 H 0.32818 0.20957 0.79344 0.0
H1834 H 0.32138 0.22668 0.84457 0.0
H1835 H 0.32204 0.21277 0.87672 0.0
H1836 H 0.7393 0.04459 0.72653 0.0
H1837 H 0.76056 0.05265 0.75327 0.0
H1838 H 0.74475 0.07819 0.7882 0.0
H1839 H 0.72372 0.07031 0.7618 0.0
H1840 H 0.78383 0.08421 0.76225 0.0
H1841 H 0.75192 0.05408 0.83646 0.0
H1842 H 0.74383 0.04817 0.80928 0.0
H1843 H 0.74359 0.06363 0.82254 0.0
C1844 C 0.74019 0.05164 0.7402 0.0
C1845 C 0.72984 0.05682 0.74207 0.0
C1846 C 0.75238 0.0563 0.75536 0.0
C1847 C 0.75415 0.06592 0.77279 0.0
C1848 C 0.74348 0.0706 0.77506 0.0
H1849 H 0.82242 0.13689 0.84856 0.0
H1850 H 0.8075 0.12025 0.8181 0.0
C1851 C 0.73148 0.06612 0.75989 0.0
C1852 C 0.76767 0.07215 0.78791 0.0
H1853 H 0.77677 0.07684 0.84223 0.0
C1854 C 0.78239 0.08236 0.77973 0.0
C1855 C 0.76583 0.06958 0.81064 0.0
C1856 C 0.75046 0.05815 0.82026 0.0
C1857 C 0.79512 0.09087 0.79384 0.0
C1858 C 0.79296 0.08925 0.81669 0.0
C1859 C 0.77846 0.07822 0.82474 0.0
C1860 C 0.80495 0.09978 0.83265 0.0
C1861 C 0.81063 0.10174 0.78415 0.0
C1862 C 0.80886 0.09395 0.85079 0.0
C1863 C 0.81733 0.10345 0.8683 0.0
C1864 C 0.82201 0.11897 0.86802 0.0
C1865 C 0.81918 0.12504 0.84911 0.0
C1866 C 0.81063 0.1155 0.83165 0.0
H1867 H 0.81173 0.09776 0.76785 0.0
H1868 H 0.81184 0.11305 0.78194 0.0
H1869 H 0.82021 0.10313 0.7949 0.0
H1870 H 0.80461 0.08187 0.85196 0.0
H1871 H 0.81939 0.09849 0.88266 0.0
H1872 H 0.03864 0.36164 0.04582 0.0
H1873 H 0.06071 0.35908 0.05503 0.0
H1874 H 0.07574 0.36885 0.98832 0.0
H1875 H 0.05344 0.37112 0.97882 0.0
H1876 H 0.07711 0.34493 0.00377 0.0
H1877 H 0.10533 0.39199 0.06349 0.0
H1878 H 0.08561 0.37888 0.07041 0.0
H1879 H 0.08998 0.3896 0.04539 0.0
C1880 C 0.04667 0.36335 0.0331 0.0
C1881 C 0.04427 0.36666 0.01159 0.0
C1882 C 0.05938 0.36199 0.03844 0.0
C1883 C 0.0701 0.36408 0.02248 0.0
C1884 C 0.0677 0.3673 0.00095 0.0
H1885 H 0.15152 0.36505 0.07631 0.0
H1886 H 0.13693 0.37256 0.0522 0.0
C1887 C 0.05494 0.3686 0.99556 0.0
C1888 C 0.08339 0.36225 0.02821 0.0
H1889 H 0.11254 0.37303 0.06574 0.0
C1890 C 0.08501 0.35125 0.0171 0.0
C1891 C 0.09401 0.37074 0.0452 0.0
C1892 C 0.09376 0.38358 0.05663 0.0
C1893 C 0.0963 0.34785 0.02345 0.0
C1894 C 0.10601 0.35541 0.0417 0.0
C1895 C 0.10503 0.36709 0.05189 0.0
C1896 C 0.11599 0.35032 0.0521 0.0
C1897 C 0.09753 0.33603 0.01068 0.0
C1898 C 0.1093 0.33523 0.05945 0.0
C1899 C 0.11765 0.33094 0.07294 0.0
C1900 C 0.13283 0.34167 0.07956 0.0
C1901 C 0.13993 0.35652 0.07111 0.0
C1902 C 0.13154 0.36083 0.05753 0.0
H1903 H 0.09408 0.33586 0.99332 0.0
H1904 H 0.10943 0.33813 0.01133 0.0
H1905 H 0.08955 0.32459 0.01761 0.0
H1906 H 0.09726 0.32698 0.05606 0.0
H1907 H 0.11186 0.31949 0.07951 0.0
H1908 H 0.6778 0.70448 -5e-05 0.0
H1909 H 0.67683 0.72689 0.01066 0.0
H1910 H 0.6345 0.69798 0.04481 0.0
H1911 H 0.63562 0.67558 0.03472 0.0
H1912 H 0.65587 0.73542 0.00282 0.0
H1913 H 0.66034 0.72801 0.09185 0.0
H1914 H 0.6637 0.71728 0.0719 0.0
H1915 H 0.64431 0.71167 0.07908 0.0
C1916 C 0.66831 0.70289 0.00982 0.0
C1917 C 0.65688 0.68823 0.01667 0.0
C1918 C 0.66775 0.71572 0.01587 0.0
C1919 C 0.65574 0.71419 0.02887 0.0
C1920 C 0.6441 0.69953 0.03525 0.0
H1921 H 0.63839 0.77933 0.09168 0.0
H1922 H 0.63413 0.75682 0.07168 0.0
C1923 C 0.64473 0.6867 0.02939 0.0
C1924 C 0.65548 0.72792 0.03588 0.0
H1925 H 0.65496 0.74698 0.08101 0.0
C1926 C 0.65568 0.73795 0.01992 0.0
C1927 C 0.6553 0.7313 0.05821 0.0
C1928 C 0.65606 0.72159 0.07626 0.0
C1929 C 0.65554 0.75114 0.02569 0.0
C1930 C 0.65524 0.7544 0.04798 0.0
C1931 C 0.65496 0.74435 0.0639 0.0
C1932 C 0.65614 0.76858 0.05551 0.0
C1933 C 0.65558 0.76141 0.00792 0.0
C1934 C 0.66963 0.78281 0.05234 0.0
C1935 C 0.67201 0.79568 0.06364 0.0
C1936 C 0.6609 0.79453 0.07819 0.0
C1937 C 0.64691 0.78058 0.08006 0.0
C1938 C 0.64456 0.7677 0.06884 0.0
H1939 H 0.65191 0.75548 0.9919 0.0
H1940 H 0.64785 0.76568 0.01202 0.0
H1941 H 0.66745 0.77139 0.00628 0.0
H1942 H 0.67886 0.78373 0.04251 0.0
H1943 H 0.68307 0.8062 0.06249 0.0
H1944 H 0.32651 0.99657 0.02713 0.0
H1945 H 0.29837 0.98144 0.03167 0.0
H1946 H 0.29898 0.94011 0.02322 0.0
H1947 H 0.32679 0.95494 0.01847 0.0
H1948 H 0.27399 0.93986 0.00107 0.0
H1949 H 0.27937 0.95727 0.08824 0.0
H1950 H 0.28763 0.97227 0.0683 0.0
H1951 H 0.29581 0.96058 0.07276 0.0
C1952 C 0.32061 0.98427 0.02605 0.0
C1953 C 0.32896 0.97699 0.02269 0.0
C1954 C 0.30455 0.97564 0.02871 0.0
C1955 C 0.2966 0.95963 0.02803 0.0
C1956 C 0.30485 0.95243 0.02381 0.0
H1957 H 0.2172 0.87753 0.06304 0.0
H1958 H 0.23823 0.8976 0.04182 0.0
C1959 C 0.32081 0.96097 0.02123 0.0
C1960 C 0.27991 0.9501 0.03305 0.0
H1961 H 0.255 0.93847 0.07557 0.0
C1962 C 0.26975 0.93971 0.01726 0.0
C1963 C 0.27436 0.94991 0.05414 0.0
C1964 C 0.28481 0.9605 0.07195 0.0
C1965 C 0.25434 0.92882 0.02222 0.0
C1966 C 0.24904 0.92811 0.04366 0.0
C1967 C 0.259 0.939 0.0591 0.0
C1968 C 0.23392 0.91533 0.05138 0.0
C1969 C 0.24399 0.91807 0.00453 0.0
C1970 C 0.22409 0.91839 0.06325 0.0
C1971 C 0.21211 0.9069 0.07547 0.0
C1972 C 0.2097 0.89214 0.07593 0.0
C1973 C 0.21857 0.88872 0.06246 0.0
C1974 C 0.23064 0.90024 0.05037 0.0
H1975 H 0.24753 0.92341 0.98816 0.0
H1976 H 0.24493 0.90777 0.00465 0.0
H1977 H 0.23173 0.91447 0.00702 0.0
H1978 H 0.2264 0.92992 0.06438 0.0
H1979 H 0.20563 0.90986 0.08611 0.0
H1980 H 0.37981 0.05683 0.98682 0.0
H1981 H 0.37819 0.07897 0.97622 0.0
H1982 H 0.36641 0.08304 0.04205 0.0
H1983 H 0.36807 0.0609 0.0529 0.0
H1984 H 0.35167 0.08126 0.97953 0.0
H1985 H 0.40134 0.12696 0.02671 0.0
H1986 H 0.39933 0.10873 0.02127 0.0
H1987 H 0.38792 0.11037 0.04192 0.0
C1988 C 0.377 0.06249 -0.00086 0.0
C1989 C 0.37407 0.05705 0.02074 0.0
C1990 C 0.37607 0.07516 0.99303 0.0
C1991 C 0.37234 0.08277 0.00838 0.0
C1992 C 0.36957 0.07751 0.03001 0.0
H1993 H 0.339 0.14235 0.96646 0.0
H1994 H 0.3438 0.1257 0.98998 0.0
C1995 C 0.37044 0.06478 0.03614 0.0
C1996 C 0.37052 0.09566 0.0013 0.0
H1997 H 0.38579 0.13406 0.00684 0.0
C1998 C 0.35907 0.09278 0.98561 0.0
C1999 C 0.38024 0.11071 0.00917 0.0
C2000 C 0.393 0.11449 0.02558 0.0
C2001 C 0.35714 0.10452 0.97743 0.0
C2002 C 0.36682 0.11956 0.98532 0.0
C2003 C 0.37826 0.12248 0.00108 0.0
C2004 C 0.36585 0.13241 0.97585 0.0
C2005 C 0.34505 0.10082 0.95988 0.0
C2006 C 0.37711 0.14239 0.96117 0.0
C2007 C 0.37443 0.15197 0.94788 0.0
C2008 C 0.36052 0.15181 0.94927 0.0
C2009 C 0.34996 0.14293 0.96547 0.0
C2010 C 0.35261 0.1333 0.9787 0.0
H2011 H 0.34027 0.08919 0.9531 0.0
H2012 H 0.33541 0.10152 0.96685 0.0
H2013 H 0.34995 0.10918 0.94632 0.0
H2014 H 0.38736 0.14184 0.95865 0.0
H2015 H 0.38255 0.15844 0.93516 0.0
H2016 H 0.9792 0.31751 -0.00062 0.0
H2017 H 0.96256 0.29008 0.99192 0.0
H2018 H 0.92339 0.29105 0.01609 0.0
H2019 H 0.93973 0.31831 0.0231 0.0
H2020 H 0.94174 0.2637 0.01708 0.0
H2021 H 0.91105 0.2768 0.95283 0.0
H2022 H 0.92903 0.29128 0.96507 0.0
H2023 H 0.91119 0.2844 0.97917 0.0
C2024 C 0.96709 0.31181 0.00338 0.0
C2025 C 0.96075 0.32015 0.0115 0.0
C2026 C 0.9576 0.29615 -0.00088 0.0
C2027 C 0.94166 0.28859 0.00302 0.0
C2028 C 0.93557 0.2967 0.01249 0.0
H2029 H 0.86351 0.20255 0.95827 0.0
H2030 H 0.87959 0.22456 0.98201 0.0
C2031 C 0.94496 0.3123 0.01653 0.0
C2032 C 0.93114 0.27258 0.99576 0.0
H2033 H 0.90069 0.25087 0.96133 0.0
C2034 C 0.93275 0.26086 0.0049 0.0
C2035 C 0.91944 0.26889 0.97982 0.0
C2036 C 0.91762 0.281 0.96848 0.0
C2037 C 0.92282 0.24553 -0.00131 0.0
C2038 C 0.91109 0.24188 0.9828 0.0
C2039 C 0.9095 0.25362 0.97378 0.0
C2040 C 0.9011 0.22628 0.97368 0.0
C2041 C 0.92486 0.23338 0.00929 0.0
C2042 C 0.90774 0.21947 0.96195 0.0
C2043 C 0.89855 0.20686 0.94856 0.0
C2044 C 0.88257 0.20084 0.94665 0.0
C2045 C 0.87574 0.20678 0.95984 0.0
C2046 C 0.88495 0.21944 0.97322 0.0
H2047 H 0.93085 0.23718 0.02541 0.0
H2048 H 0.91358 0.22269 0.01154 0.0
H2049 H 0.93202 0.23086 -0.00133 0.0
H2050 H 0.92016 0.22468 0.96161 0.0
H2051 H 0.9041 0.20267 0.93817 0.0
H2052 H 0.69246 0.62554 -0.00089 0.0
H2053 H 0.71997 0.63638 0.99486 0.0
H2054 H 0.72746 0.68166 -0.00138 0.0
H2055 H 0.69953 0.67079 0.00269 0.0
H2056 H 0.7415 0.67751 0.96332 0.0
H2057 H 0.7559 0.65642 0.03777 0.0
H2058 H 0.7397 0.64135 0.02327 0.0
H2059 H 0.73825 0.65662 0.03484 0.0
C2060 C 0.69989 0.63783 -0.00073 0.0
C2061 C 0.69371 0.64729 0.0012 0.0
C2062 C 0.71571 0.64401 0.99707 0.0
C2063 C 0.72586 0.65983 0.99687 0.0
C2064 C 0.71984 0.6694 -0.00099 0.0
H2065 H 0.82138 0.70686 0.95206 0.0
H2066 H 0.79886 0.70192 0.973 0.0
C2067 C 0.70389 0.66318 0.00132 0.0
C2068 C 0.74247 0.66609 0.99235 0.0
H2069 H 0.77339 0.66305 0.00764 0.0
C2070 C 0.7486 0.67465 0.97326 0.0
C2071 C 0.75171 0.66226 0.00526 0.0
C2072 C 0.7461 0.65379 0.02654 0.0
C2073 C 0.76335 0.67875 0.96609 0.0
C2074 C 0.77236 0.67441 0.97857 0.0
C2075 C 0.76647 0.66633 -0.00192 0.0
C2076 C 0.78747 0.67739 0.97069 0.0
C2077 C 0.76886 0.68702 0.9446 0.0
C2078 C 0.78905 0.66523 0.96387 0.0
C2079 C 0.80204 0.66804 0.95219 0.0
C2080 C 0.81359 0.68305 0.94718 0.0
C2081 C 0.81264 0.69519 0.95581 0.0
C2082 C 0.79973 0.69238 0.96757 0.0
H2083 H 0.75936 0.68681 0.93498 0.0
H2084 H 0.77784 0.6991 0.94776 0.0
H2085 H 0.77405 0.6819 0.9346 0.0
H2086 H 0.77974 0.65357 0.96619 0.0
H2087 H 0.8024 0.6585 0.94545 0.0
H2088 H 0.97447 0.66082 0.04709 0.0
H2089 H 0.95293 0.6644 0.03812 0.0
H2090 H 0.95413 0.65269 0.97105 0.0
H2091 H 0.9754 0.64876 0.97996 0.0
H2092 H 0.95125 0.68413 0.01073 0.0
H2093 H 0.90892 0.62544 0.98374 0.0
H2094 H 0.92656 0.63021 -0.00189 0.0
H2095 H 0.92661 0.63326 0.9691 0.0
C2096 C 0.97008 0.65888 0.03045 0.0
C2097 C 0.97663 0.6544 0.01428 0.0
C2098 C 0.95775 0.66096 0.02535 0.0
C2099 C 0.95168 0.65856 0.00398 0.0
C2100 C 0.9583 0.65422 0.98778 0.0
H2101 H 0.90499 0.69374 0.932 0.0
H2102 H 0.92299 0.69074 0.95534 0.0
C2103 C 0.97056 0.65206 0.99288 0.0
C2104 C 0.93883 0.66113 -0.00162 0.0
H2105 H 0.90372 0.64484 0.97242 0.0
C2106 C 0.94076 0.67546 0.00262 0.0
C2107 C 0.92495 0.64975 0.98827 0.0
C2108 C 0.92155 0.63376 0.98476 0.0
C2109 C 0.92959 0.67896 0.99596 0.0
C2110 C 0.91626 0.66795 0.98433 0.0
C2111 C 0.91397 0.65337 0.98115 0.0
C2112 C 0.90528 0.67163 0.97351 0.0
C2113 C 0.93227 0.69447 0.00138 0.0
C2114 C 0.88923 0.66209 0.97608 0.0
C2115 C 0.87889 0.66381 0.96261 0.0
C2116 C 0.88445 0.67507 0.94636 0.0
C2117 C 0.90044 0.68521 0.94479 0.0
C2118 C 0.91074 0.68348 0.95815 0.0
H2119 H 0.93926 0.69904 0.01663 0.0
H2120 H 0.9388 0.70251 0.988 0.0
H2121 H 0.92122 0.69413 0.00332 0.0
H2122 H 0.88471 0.65279 0.98768 0.0
H2123 H 0.86663 0.65563 0.96375 0.0
H2124 H 0.36858 0.33321 0.98179 0.0
H2125 H 0.36563 0.30885 0.97144 0.0
H2126 H 0.3422 0.28885 0.03165 0.0
H2127 H 0.34528 0.31323 0.0423 0.0
H2128 H 0.36376 0.28074 0.02146 0.0
H2129 H 0.32513 0.27171 0.95066 0.0
H2130 H 0.34308 0.2896 0.94985 0.0
H2131 H 0.32966 0.28598 0.97124 0.0
C2132 C 0.3628 0.32365 0.99286 0.0
C2133 C 0.35707 0.32517 0.01281 0.0
C2134 C 0.36107 0.3097 0.98687 0.0
C2135 C 0.35347 0.29695 0.00061 0.0
C2136 C 0.34804 0.29851 0.02075 0.0
H2137 H 0.32077 0.20688 0.9469 0.0
H2138 H 0.32208 0.2272 0.96932 0.0
C2139 C 0.34979 0.31246 0.02677 0.0
C2140 C 0.35104 0.28196 0.99381 0.0
H2141 H 0.33509 0.25527 0.95332 0.0
C2142 C 0.3574 0.27509 0.00665 0.0
C2143 C 0.34248 0.27444 0.97471 0.0
C2144 C 0.33456 0.28071 0.96092 0.0
C2145 C 0.35587 0.26118 0.00049 0.0
C2146 C 0.34795 0.25405 0.98082 0.0
C2147 C 0.34121 0.26071 0.96837 0.0
C2148 C 0.34701 0.24008 0.97207 0.0
C2149 C 0.36268 0.25422 0.01516 0.0
C2150 C 0.36053 0.24015 0.96699 0.0
C2151 C 0.35973 0.22837 0.95453 0.0
C2152 C 0.34544 0.21641 0.94683 0.0
C2153 C 0.33188 0.21579 0.95314 0.0
C2154 C 0.33266 0.22749 0.96572 0.0
H2155 H 0.36376 0.25815 0.03231 0.0
H2156 H 0.35556 0.24158 0.01482 0.0
H2157 H 0.37442 0.25778 0.0095 0.0
H2158 H 0.37175 0.24986 0.97119 0.0
H2159 H 0.37035 0.22932 0.94928 0.0
H2160 H 0.6853 0.06321 0.00181 0.0
H2161 H 0.71279 0.08049 0.99624 0.0
H2162 H 0.71829 0.04229 0.98405 0.0
H2163 H 0.69051 0.02468 0.98972 0.0
H2164 H 0.74295 0.06856 0.01224 0.0
H2165 H 0.72979 0.08579 0.93239 0.0
H2166 H 0.71913 0.08626 0.95521 0.0
H2167 H 0.71616 0.06835 0.94601 0.0
C2168 C 0.6923 0.05838 -0.00188 0.0
C2169 C 0.68562 0.04252 0.99592 0.0
C2170 C 0.70805 0.06832 0.99498 0.0
C2171 C 0.71752 0.06268 0.98948 0.0
C2172 C 0.71113 0.04685 0.98826 0.0
H2173 H 0.81105 0.10367 0.94641 0.0
H2174 H 0.78706 0.08819 0.9661 0.0
C2175 C 0.69527 0.03681 0.99146 0.0
C2176 C 0.73379 0.0735 0.98353 0.0
H2177 H 0.75559 0.09974 0.9449 0.0
C2178 C 0.74577 0.07536 0.9975 0.0
C2179 C 0.73739 0.08242 0.96438 0.0
C2180 C 0.72498 0.08059 0.94849 0.0
C2181 C 0.76131 0.0861 0.99291 0.0
C2182 C 0.76491 0.095 0.97368 0.0
C2183 C 0.75286 0.09309 0.95979 0.0
C2184 C 0.78102 0.10555 0.96651 0.0
C2185 C 0.77368 0.08799 0.00886 0.0
C2186 C 0.78591 0.12066 0.96065 0.0
C2187 C 0.79964 0.12953 0.94923 0.0
C2188 C 0.80861 0.12336 0.94334 0.0
C2189 C 0.80436 0.10872 0.95083 0.0
C2190 C 0.79066 0.09987 0.96219 0.0
H2191 H 0.76904 0.08438 0.02556 0.0
H2192 H 0.77818 0.0807 0.00364 0.0
H2193 H 0.78344 0.09998 0.0095 0.0
H2194 H 0.77862 0.12527 0.96374 0.0
H2195 H 0.80252 0.14069 0.94343 0.0
H2196 H 0.67551 0.97501 0.98963 0.0
H2197 H 0.67721 0.95273 -0.00072 0.0
H2198 H 0.63151 0.93083 0.02594 0.0
H2199 H 0.62968 0.95304 0.01633 0.0
H2200 H 0.67488 0.941 0.04191 0.0
H2201 H 0.63 0.89753 0.98661 0.0
H2202 H 0.63841 0.91775 0.98237 0.0
H2203 H 0.62366 0.90791 0.00236 0.0
C2204 C 0.66574 0.9654 0.99735 0.0
C2205 C 0.65244 0.96584 0.00218 0.0
C2206 C 0.66675 0.95267 0.00286 0.0
C2207 C 0.65442 0.94001 0.01305 0.0
C2208 C 0.64106 0.94033 0.01769 0.0
H2209 H 0.63373 0.85998 0.08203 0.0
H2210 H 0.63368 0.87908 0.05806 0.0
C2211 C 0.64007 0.9531 0.01231 0.0
C2212 C 0.65589 0.92692 0.02018 0.0
H2213 H 0.63906 0.88831 0.01558 0.0
C2214 C 0.66721 0.9295 0.03593 0.0
C2215 C 0.64586 0.91194 0.01237 0.0
C2216 C 0.63388 0.90857 0.99484 0.0
C2217 C 0.66829 0.91742 0.04491 0.0
C2218 C 0.65801 0.90234 0.03747 0.0
C2219 C 0.647 0.89984 0.02118 0.0
C2220 C 0.65739 0.88895 0.0482 0.0
C2221 C 0.67985 0.92087 0.06315 0.0
C2222 C 0.67044 0.88746 0.04962 0.0
C2223 C 0.67047 0.87647 0.06339 0.0
C2224 C 0.65741 0.86675 0.07574 0.0
C2225 C 0.64393 0.86731 0.07261 0.0
C2226 C 0.64392 0.87827 0.05898 0.0
H2227 H 0.68452 0.93246 0.07003 0.0
H2228 H 0.67457 0.91245 0.07657 0.0
H2229 H 0.68968 0.92022 0.05679 0.0
H2230 H 0.68086 0.89533 0.04104 0.0
H2231 H 0.68103 0.87636 0.06566 0.0
H2232 H 0.03818 0.69665 0.01499 0.0
H2233 H 0.05499 0.72434 0.01961 0.0
H2234 H 0.09504 0.71998 0.01781 0.0
H2235 H 0.07853 0.69262 0.01281 0.0
H2236 H 0.07457 0.73863 0.05354 0.0
H2237 H 0.10841 0.75586 0.97787 0.0
H2238 H 0.09088 0.73755 0.98074 0.0
H2239 H 0.10896 0.74057 0.99131 0.0
C2240 C 0.05058 0.70164 0.01519 0.0
C2241 C 0.05697 0.69236 0.01353 0.0
C2242 C 0.06018 0.71747 0.01783 0.0
C2243 C 0.07633 0.72432 0.01865 0.0
C2244 C 0.08268 0.71509 0.01661 0.0
H2245 H 0.15412 0.80338 0.07319 0.0
H2246 H 0.13715 0.78067 0.05114 0.0
C2247 C 0.07315 0.69935 0.01397 0.0
C2248 C 0.08657 0.74081 0.02383 0.0
H2249 H 0.11973 0.77322 0.0084 0.0
C2250 C 0.08426 0.74627 0.04344 0.0
C2251 C 0.09929 0.7508 0.01071 0.0
C2252 C 0.10195 0.74593 0.98888 0.0
C2253 C 0.09468 0.76114 0.05081 0.0
C2254 C 0.10767 0.77095 0.03806 0.0
C2255 C 0.10978 0.76568 0.01814 0.0
C2256 C 0.11953 0.78635 0.04608 0.0
C2257 C 0.09207 0.76603 0.0727 0.0
C2258 C 0.1157 0.7975 0.04929 0.0
C2259 C 0.12542 0.81048 0.06174 0.0
C2260 C 0.13918 0.81256 0.07096 0.0
C2261 C 0.14375 0.80218 0.06586 0.0
C2262 C 0.13398 0.78915 0.05344 0.0
H2263 H 0.08315 0.75625 0.08225 0.0
H2264 H 0.10295 0.77183 0.0825 0.0
H2265 H 0.08815 0.77423 0.07015 0.0
H2266 H 0.10467 0.79562 0.04359 0.0
H2267 H 0.12154 0.8182 0.06579 0.0
H2268 H 0.31475 0.34207 0.02322 0.0
H2269 H 0.28671 0.33042 0.02703 0.0
H2270 H 0.29209 0.37488 0.02303 0.0
H2271 H 0.3198 0.38649 0.01917 0.0
H2272 H 0.27288 0.33686 0.06094 0.0
H2273 H 0.25547 0.35002 0.98177 0.0
H2274 H 0.2735 0.35065 0.98572 0.0
H2275 H 0.27175 0.36649 0.99391 0.0
C2276 C 0.3099 0.34931 0.0228 0.0
C2277 C 0.31954 0.36522 0.02097 0.0
C2278 C 0.29389 0.34265 0.02496 0.0
C2279 C 0.28725 0.35176 0.02492 0.0
C2280 C 0.29685 0.36757 0.02257 0.0
H2281 H 0.21312 0.35738 0.07107 0.0
H2282 H 0.23386 0.35915 0.04887 0.0
C2283 C 0.31276 0.37421 0.0206 0.0
C2284 C 0.27064 0.34519 0.02963 0.0
H2285 H 0.23856 0.34544 0.01204 0.0
C2286 C 0.26523 0.33837 0.05004 0.0
C2287 C 0.2607 0.34727 0.01544 0.0
C2288 C 0.2656 0.35387 0.99289 0.0
C2289 C 0.25055 0.33451 0.05727 0.0
C2290 C 0.24084 0.3372 0.04345 0.0
C2291 C 0.24597 0.34335 0.0226 0.0
C2292 C 0.22613 0.3352 0.05145 0.0
C2293 C 0.24601 0.32853 0.08023 0.0
C2294 C 0.21428 0.32097 0.05891 0.0
C2295 C 0.20242 0.31997 0.07156 0.0
C2296 C 0.2021 0.33313 0.07656 0.0
C2297 C 0.21295 0.34704 0.06702 0.0
C2298 C 0.22488 0.34806 0.05452 0.0
H2299 H 0.25597 0.32996 0.09012 0.0
H2300 H 0.24098 0.33444 0.0887 0.0
H2301 H 0.23717 0.31619 0.07958 0.0
H2302 H 0.21487 0.31085 0.05641 0.0
H2303 H 0.19434 0.30918 0.07909 0.0
H2304 H 0.71042 0.70376 0.38074 0.0
H2305 H 0.73258 0.7014 0.39066 0.0
H2306 H 0.73497 0.68914 0.32435 0.0
H2307 H 0.71288 0.69157 0.31421 0.0
H2308 H 0.73414 0.67501 0.38696 0.0
H2309 H 0.77997 0.72256 0.33868 0.0
H2310 H 0.76183 0.72109 0.34442 0.0
H2311 H 0.76281 0.70944 0.32357 0.0
C2312 C 0.71573 0.7007 0.36819 0.0
C2313 C 0.70984 0.69787 0.34666 0.0
C2314 C 0.7284 0.69934 0.3739 0.0
C2315 C 0.73556 0.69526 0.3582 0.0
C2316 C 0.72982 0.69257 0.33665 0.0
H2317 H 0.79404 0.65941 0.3976 0.0
H2318 H 0.77654 0.66408 0.3753 0.0
C2319 C 0.71712 0.69388 0.33093 0.0
C2320 C 0.74847 0.69304 0.36474 0.0
H2321 H 0.78681 0.70646 0.35714 0.0
C2322 C 0.74563 0.68184 0.38036 0.0
C2323 C 0.76349 0.70202 0.3562 0.0
C2324 C 0.76732 0.71455 0.33992 0.0
C2325 C 0.75738 0.67943 0.38779 0.0
C2326 C 0.77238 0.6883 0.37912 0.0
C2327 C 0.77525 0.69951 0.36348 0.0
C2328 C 0.78537 0.68686 0.38773 0.0
C2329 C 0.75376 0.66771 0.4054 0.0
C2330 C 0.79683 0.6985 0.40088 0.0
C2331 C 0.80691 0.69589 0.4134 0.0
C2332 C 0.80578 0.68166 0.41279 0.0
C2333 C 0.79535 0.67057 0.39799 0.0
C2334 C 0.78522 0.67317 0.3855 0.0
H2335 H 0.74249 0.66389 0.41313 0.0
H2336 H 0.75327 0.65759 0.39815 0.0
H2337 H 0.76291 0.67235 0.41829 0.0
H2338 H 0.79715 0.70914 0.40286 0.0
H2339 H 0.81465 0.70449 0.42503 0.0
H2340 H 0.31357 0.01162 0.37681 0.0
H2341 H 0.31479 0.03549 0.38528 0.0
H2342 H 0.34796 0.05825 0.33437 0.0
H2343 H 0.34667 0.03441 0.3256 0.0
H2344 H 0.34018 0.0621 0.39926 0.0
H2345 H 0.3175 0.07223 0.32206 0.0
H2346 H 0.31523 0.05402 0.32877 0.0
H2347 H 0.33325 0.0692 0.3185 0.0
C2348 C 0.32101 0.02165 0.36724 0.0
C2349 C 0.33001 0.02104 0.3505 0.0
C2350 C 0.3217 0.03531 0.37212 0.0
C2351 C 0.33131 0.04866 0.36029 0.0
C2352 C 0.3402 0.04806 0.34343 0.0
H2353 H 0.36437 0.13909 0.41231 0.0
H2354 H 0.36265 0.1178 0.39192 0.0
C2355 C 0.33952 0.03441 0.33854 0.0
C2356 C 0.33276 0.06337 0.3666 0.0
H2357 H 0.32867 0.09262 0.34779 0.0
C2358 C 0.33764 0.06874 0.38798 0.0
C2359 C 0.32933 0.07202 0.35197 0.0
C2360 C 0.3234 0.06654 0.3291 0.0
C2361 C 0.33933 0.08251 0.39507 0.0
C2362 C 0.33631 0.09138 0.38029 0.0
C2363 C 0.33121 0.08595 0.35899 0.0
C2364 C 0.33788 0.10598 0.38729 0.0
C2365 C 0.34408 0.08735 0.41851 0.0
C2366 C 0.32469 0.10697 0.39003 0.0
C2367 C 0.32571 0.11929 0.40137 0.0
C2368 C 0.33994 0.13081 0.41002 0.0
C2369 C 0.35332 0.13052 0.4054 0.0
C2370 C 0.35231 0.11826 0.39403 0.0
H2371 H 0.34268 0.07779 0.42888 0.0
H2372 H 0.35641 0.09656 0.41919 0.0
H2373 H 0.3372 0.09184 0.42555 0.0
H2374 H 0.31344 0.09763 0.38497 0.0
H2375 H 0.31519 0.11906 0.40519 0.0
H2376 H 0.98691 0.32374 0.36114 0.0
H2377 H 0.9587 0.3096 0.36498 0.0
H2378 H 0.95837 0.26751 0.36999 0.0
H2379 H 0.98621 0.28133 0.366 0.0
H2380 H 0.93446 0.26555 0.34262 0.0
H2381 H 0.93762 0.29126 0.42377 0.0
H2382 H 0.94682 0.30413 0.40139 0.0
H2383 H 0.95436 0.29275 0.41135 0.0
C2384 C 0.9808 0.31147 0.36297 0.0
C2385 C 0.98888 0.30371 0.36348 0.0
C2386 C 0.96469 0.30341 0.3652 0.0
C2387 C 0.95645 0.2875 0.36795 0.0
C2388 C 0.96446 0.27976 0.36785 0.0
H2389 H 0.87507 0.20998 0.40992 0.0
H2390 H 0.89697 0.22773 0.38767 0.0
C2391 C 0.98045 0.28774 0.36569 0.0
C2392 C 0.9396 0.27873 0.37211 0.0
H2393 H 0.9135 0.27148 0.41184 0.0
C2394 C 0.92978 0.26699 0.35758 0.0
C2395 C 0.93352 0.28063 0.3916 0.0
C2396 C 0.94357 0.29279 0.40806 0.0
C2397 C 0.91418 0.25678 0.3624 0.0
C2398 C 0.90831 0.25818 0.38246 0.0
C2399 C 0.91795 0.2704 0.39643 0.0
C2400 C 0.89286 0.24636 0.3906 0.0
C2401 C 0.90422 0.24449 0.34609 0.0
C2402 C 0.88287 0.25065 0.39903 0.0
C2403 C 0.8704 0.24051 0.41187 0.0
C2404 C 0.86768 0.22588 0.41644 0.0
C2405 C 0.87672 0.22107 0.40624 0.0
C2406 C 0.88929 0.23126 0.39354 0.0
H2407 H 0.90832 0.2482 0.32919 0.0
H2408 H 0.90491 0.23423 0.34961 0.0
H2409 H 0.89196 0.24128 0.34693 0.0
H2410 H 0.88537 0.26221 0.39704 0.0
H2411 H 0.8637 0.24454 0.41981 0.0
H2412 H 1.00436 0.36635 0.32238 0.0
H2413 H 1.00485 0.39013 0.31612 0.0
H2414 H 0.05129 0.41561 0.34212 0.0
H2415 H 0.05095 0.39179 0.34843 0.0
H2416 H 0.01055 0.414 0.34663 0.0
H2417 H 0.05396 0.43424 0.2807 0.0
H2418 H 0.04355 0.41466 0.28972 0.0
H2419 H 0.0591 0.42899 0.30611 0.0
C2420 C 0.01471 0.37699 0.3268 0.0
C2421 C 0.02766 0.37712 0.33578 0.0
C2422 C 0.01493 0.39059 0.32328 0.0
C2423 C 0.02814 0.40467 0.32847 0.0
C2424 C 0.04103 0.40489 0.33775 0.0
H2425 H 0.04635 0.49395 0.28569 0.0
H2426 H 0.04845 0.47498 0.30767 0.0
C2427 C 0.0408 0.39125 0.34139 0.0
C2428 C 0.0284 0.41904 0.32361 0.0
H2429 H 0.04419 0.44979 0.28951 0.0
C2430 C 0.018 0.42191 0.33428 0.0
C2431 C 0.03816 0.4294 0.30758 0.0
C2432 C 0.04928 0.4267 0.2952 0.0
C2433 C 0.01697 0.43476 0.32914 0.0
C2434 C 0.02633 0.44483 0.3125 0.0
C2435 C 0.03705 0.44216 0.30233 0.0
C2436 C 0.02436 0.45739 0.30391 0.0
C2437 C 1.00586 0.43738 0.34163 0.0
C2438 C 0.01002 0.45412 0.29525 0.0
C2439 C 0.00879 0.46505 0.28308 0.0
C2440 C 0.02188 0.47944 0.27919 0.0
C2441 C 0.03601 0.4831 0.28903 0.0
C2442 C 0.03723 0.47218 0.30132 0.0
H2443 H 1.004 0.43242 0.35828 0.0
H2444 H 0.01005 0.44971 0.34307 0.0
H2445 H 0.99452 0.43168 0.33296 0.0
H2446 H 0.99999 0.44274 0.29641 0.0
H2447 H 0.9979 0.4618 0.27503 0.0
H2448 H 0.60812 0.65181 0.35027 0.0
H2449 H 0.59274 0.62444 0.34398 0.0
H2450 H 0.63356 0.62453 0.325 0.0
H2451 H 0.64922 0.65212 0.33181 0.0
H2452 H 0.58958 0.6121 0.30416 0.0
H2453 H 0.6119 0.5863 0.36277 0.0
H2454 H 0.61598 0.60555 0.36567 0.0
H2455 H 0.62639 0.60134 0.34633 0.0
C2456 C 0.61393 0.64601 0.34511 0.0
C2457 C 0.62991 0.65419 0.34138 0.0
C2458 C 0.60509 0.63032 0.34156 0.0
C2459 C 0.61196 0.62236 0.33411 0.0
C2460 C 0.62803 0.63035 0.33115 0.0
H2461 H 0.5745 0.53736 0.26654 0.0
H2462 H 0.59097 0.55964 0.28941 0.0
C2463 C 0.63696 0.64613 0.33493 0.0
C2464 C 0.60192 0.60618 0.32716 0.0
H2465 H 0.59433 0.56989 0.33515 0.0
C2466 C 0.59054 0.60287 0.31113 0.0
C2467 C 0.60325 0.59414 0.33611 0.0
C2468 C 0.61494 0.59693 0.35381 0.0
C2469 C 0.58059 0.58797 0.30359 0.0
C2470 C 0.58183 0.57589 0.31258 0.0
C2471 C 0.59326 0.57914 0.32854 0.0
C2472 C 0.57199 0.5601 0.30414 0.0
C2473 C 0.56913 0.58534 0.28553 0.0
C2474 C 0.55584 0.55234 0.30597 0.0
C2475 C 0.5464 0.53953 0.29297 0.0
C2476 C 0.55301 0.53433 0.27807 0.0
C2477 C 0.56915 0.54108 0.27809 0.0
C2478 C 0.57856 0.55386 0.29107 0.0
H2479 H 0.57174 0.59615 0.27747 0.0
H2480 H 0.56899 0.57755 0.27293 0.0
H2481 H 0.5574 0.57997 0.29243 0.0
H2482 H 0.55055 0.55692 0.31612 0.0
H2483 H 0.53402 0.53466 0.29301 0.0
H2484 H 0.37003 0.96232 0.34885 0.0
H2485 H 0.39729 0.9744 0.34131 0.0
H2486 H 0.40047 0.0177 0.33315 0.0
H2487 H 0.37271 0.0055 0.34047 0.0
H2488 H 0.4132 0.01079 0.29941 0.0
H2489 H 0.43562 1.00166 0.37707 0.0
H2490 H 0.41932 0.98422 0.36723 0.0
H2491 H 0.41692 0.9998 0.3748 0.0
C2492 C 0.37646 0.97447 0.3457 0.0
C2493 C 0.36911 0.98293 0.34521 0.0
C2494 C 0.39217 0.9814 0.34163 0.0
C2495 C 0.40105 0.99702 0.33714 0.0
C2496 C 0.39386 0.00564 0.33687 0.0
H2497 H 0.49282 0.04236 0.2792 0.0
H2498 H 0.47165 0.03879 0.30217 0.0
C2499 C 0.37802 0.99867 0.34104 0.0
C2500 C 0.41737 1.00372 0.33061 0.0
H2501 H 0.45069 1.00477 0.34492 0.0
C2502 C 0.42153 0.00983 0.30955 0.0
C2503 C 0.42824 1.0024 0.34383 0.0
C2504 C 0.42484 0.9968 0.36707 0.0
C2505 C 0.43586 0.01376 0.30086 0.0
C2506 C 0.4464 0.01171 0.31369 0.0
C2507 C 0.44255 0.00624 0.33509 0.0
C2508 C 0.461 0.01433 0.30442 0.0
C2509 C 0.4393 0.01934 0.27758 0.0
C2510 C 0.46256 1.00188 0.29932 0.0
C2511 C 0.47474 1.00391 0.28635 0.0
C2512 C 0.48547 0.01843 0.27832 0.0
C2513 C 0.48468 0.03105 0.2852 0.0
C2514 C 0.47255 0.02902 0.29818 0.0
H2515 H 0.42895 0.01787 0.26875 0.0
H2516 H 0.44829 0.03164 0.27753 0.0
H2517 H 0.44382 0.01318 0.2685 0.0
H2518 H 0.45375 0.99045 0.30404 0.0
H2519 H 0.47499 0.99399 0.28108 0.0
H2520 H 0.65645 0.01102 0.36631 0.0
H2521 H 0.63432 0.01355 0.35678 0.0
H2522 H 0.61985 0.97862 0.3078 0.0
H2523 H 0.64193 0.97602 0.31714 0.0
H2524 H 0.62228 0.00615 0.29282 0.0
H2525 H 0.58746 0.9844 0.36808 0.0
H2526 H 0.60754 0.99862 0.37195 0.0
H2527 H 0.60218 0.98022 0.3614 0.0
C2528 C 0.64846 1.00372 0.35369 0.0
C2529 C 0.65101 0.99331 0.34249 0.0
C2530 C 0.63576 1.00515 0.34834 0.0
C2531 C 0.62535 0.99619 0.3317 0.0
C2532 C 0.6277 0.98561 0.32075 0.0
H2533 H 0.53903 0.97893 0.27953 0.0
H2534 H 0.55939 0.97864 0.30127 0.0
C2535 C 0.64034 0.98412 0.32615 0.0
C2536 C 0.61257 0.99848 0.32464 0.0
H2537 H 0.57851 0.99452 0.34073 0.0
C2538 C 0.61276 1.00369 0.30333 0.0
C2539 C 0.60012 0.9952 0.33836 0.0
C2540 C 0.59916 0.98919 0.36119 0.0
C2541 C 0.60081 0.00561 0.29531 0.0
C2542 C 0.58837 1.00238 0.30902 0.0
C2543 C 0.58817 0.9972 0.33037 0.0
C2544 C 0.57491 1.00307 0.30056 0.0
C2545 C 0.60132 0.01062 0.27194 0.0
C2546 C 0.57653 0.01698 0.29399 0.0
C2547 C 0.5648 0.01717 0.28178 0.0
C2548 C 0.55131 1.00345 0.276 0.0
C2549 C 0.54922 0.98966 0.28411 0.0
C2550 C 0.56088 0.98949 0.29641 0.0
H2551 H 0.61035 0.0102 0.2625 0.0
H2552 H 0.58999 1.00332 0.26362 0.0
H2553 H 0.60387 0.02251 0.27169 0.0
H2554 H 0.58725 0.02761 0.29712 0.0
H2555 H 0.5668 0.0279 0.27534 0.0
H2556 H 0.04042 0.66973 0.31059 0.0
H2557 H 0.04136 0.64678 0.30337 0.0
H2558 H 1.00675 0.62231 0.35195 0.0
H2559 H 1.00566 0.64514 0.35923 0.0
H2560 H 0.04742 0.62791 0.33269 0.0
H2561 H 0.98846 0.59656 0.29559 0.0
H2562 H 0.99899 0.61694 0.29961 0.0
H2563 H 0.98997 0.60437 0.32231 0.0
C2564 C 0.03303 0.65949 0.3198 0.0
C2565 C 0.02287 0.65928 0.33539 0.0
C2566 C 0.03362 0.64639 0.31569 0.0
C2567 C 0.02401 0.63278 0.32694 0.0
C2568 C 0.01413 0.63262 0.34286 0.0
H2569 H 1.00224 0.54059 0.29691 0.0
H2570 H 1.00522 0.56218 0.3181 0.0
C2571 C 0.01356 0.64572 0.34704 0.0
C2572 C 0.02397 0.61864 0.32151 0.0
H2573 H 1.00163 0.58337 0.29868 0.0
C2574 C 0.0374 0.61813 0.32534 0.0
C2575 C 0.01086 0.60585 0.31205 0.0
C2576 C 0.99627 0.6059 0.30695 0.0
C2577 C 0.03807 0.60518 0.31989 0.0
C2578 C 0.02508 0.59252 0.30989 0.0
C2579 C 0.01157 0.59297 0.30649 0.0
C2580 C 0.0255 0.57922 0.30105 0.0
C2581 C 0.05267 0.60517 0.32506 0.0
C2582 C 0.03628 0.58146 0.28509 0.0
C2583 C 0.03471 0.5691 0.2733 0.0
C2584 C 0.0223 0.55426 0.27713 0.0
C2585 C 0.01216 0.55185 0.2941 0.0
C2586 C 0.01375 0.56423 0.30599 0.0
H2587 H 0.05902 0.61272 0.33915 0.0
H2588 H 0.05021 0.59352 0.32879 0.0
H2589 H 0.06036 0.60958 0.31076 0.0
H2590 H 0.04519 0.59286 0.28049 0.0
H2591 H 0.04239 0.57129 0.25983 0.0
H2592 H 0.36245 0.39707 0.34199 0.0
H2593 H 0.39002 0.41234 0.33605 0.0
H2594 H 0.39225 0.37156 0.33305 0.0
H2595 H 0.36423 0.35595 0.33832 0.0
H2596 H 0.41549 0.41647 0.35693 0.0
H2597 H 0.41004 0.391 0.27498 0.0
H2598 H 0.39346 0.38741 0.29028 0.0
H2599 H 0.40351 0.37775 0.29728 0.0
C2600 C 0.36873 0.39124 0.34019 0.0
C2601 C 0.36101 0.37521 0.34031 0.0
C2602 C 0.38458 0.40006 0.33689 0.0
C2603 C 0.39322 0.39314 0.3337 0.0
C2604 C 0.38577 0.37715 0.33496 0.0
H2605 H 0.48573 0.43789 0.28042 0.0
H2606 H 0.46389 0.42081 0.30333 0.0
C2607 C 0.36976 0.36824 0.33812 0.0
C2608 C 0.40976 0.40284 0.32778 0.0
H2609 H 0.43458 0.41075 0.28585 0.0
C2610 C 0.41972 0.41512 0.34149 0.0
C2611 C 0.41528 0.40115 0.30756 0.0
C2612 C 0.40503 0.38872 0.29155 0.0
C2613 C 0.43489 0.4259 0.33532 0.0
C2614 C 0.44021 0.4244 0.31489 0.0
C2615 C 0.43048 0.41184 0.30157 0.0
C2616 C 0.45538 0.43617 0.30605 0.0
C2617 C 0.44503 0.4389 0.35056 0.0
C2618 C 0.45827 0.45078 0.30081 0.0
C2619 C 0.47084 0.46062 0.28779 0.0
C2620 C 0.48059 0.4559 0.27974 0.0
C2621 C 0.47842 0.44182 0.28656 0.0
C2622 C 0.46591 0.43203 0.29954 0.0
H2623 H 0.44095 0.43623 0.36765 0.0
H2624 H 0.45718 0.44169 0.3501 0.0
H2625 H 0.44478 0.44915 0.34537 0.0
H2626 H 0.45016 0.45412 0.30532 0.0
H2627 H 0.4721 0.47129 0.28243 0.0
H2628 H 0.30206 0.28872 0.36412 0.0
H2629 H 0.30245 0.2656 0.37299 0.0
H2630 H 0.3384 0.27813 0.32625 0.0
H2631 H 0.3382 0.30131 0.31738 0.0
H2632 H 0.29826 0.24086 0.34564 0.0
H2633 H 0.3568 0.27285 0.38397 0.0
H2634 H 0.34551 0.28152 0.37834 0.0
H2635 H 0.35526 0.27844 0.35662 0.0
C2636 C 0.31002 0.28655 0.35566 0.0
C2637 C 0.32019 0.29698 0.34015 0.0
C2638 C 0.31019 0.2733 0.36071 0.0
C2639 C 0.32058 0.27022 0.35048 0.0
C2640 C 0.33045 0.28038 0.33459 0.0
H2641 H 0.34645 0.20417 0.38904 0.0
H2642 H 0.34256 0.22134 0.36533 0.0
C2643 C 0.33027 0.29362 0.3295 0.0
C2644 C 0.32141 0.25664 0.35699 0.0
H2645 H 0.34483 0.24623 0.38234 0.0
C2646 C 0.30847 0.24201 0.35356 0.0
C2647 C 0.33476 0.25814 0.36721 0.0
C2648 C 0.34885 0.27356 0.37195 0.0
C2649 C 0.30848 0.22884 0.3602 0.0
C2650 C 0.32168 0.23035 0.37099 0.0
C2651 C 0.33474 0.245 0.37392 0.0
C2652 C 0.32184 0.2172 0.38131 0.0
C2653 C 0.29435 0.21345 0.35551 0.0
C2654 C 0.31112 0.20858 0.3975 0.0
C2655 C 0.31321 0.19863 0.41076 0.0
C2656 C 0.32613 0.19714 0.40823 0.0
C2657 C 0.33619 0.2048 0.39095 0.0
C2658 C 0.33407 0.21477 0.37761 0.0
H2659 H 0.28797 0.21386 0.34085 0.0
H2660 H 0.29741 0.20465 0.35292 0.0
H2661 H 0.28646 0.20997 0.36956 0.0
H2662 H 0.30181 0.21046 0.40113 0.0
H2663 H 0.30554 0.19316 0.42435 0.0
H2664 H 0.71331 0.03199 0.36186 0.0
H2665 H 0.73067 0.05895 0.37051 0.0
H2666 H 0.76085 0.06263 0.31885 0.0
H2667 H 0.74398 0.03546 0.31114 0.0
H2668 H 0.77712 0.07386 0.35257 0.0
H2669 H 0.7405 0.09883 0.34754 0.0
H2670 H 0.73182 0.0828 0.36556 0.0
H2671 H 0.73406 0.08004 0.3371 0.0
C2672 C 0.72344 0.03867 0.352 0.0
C2673 C 0.72733 0.03165 0.33588 0.0
C2674 C 0.73334 0.05415 0.35685 0.0
C2675 C 0.74706 0.06301 0.34519 0.0
C2676 C 0.7504 0.05612 0.32815 0.0
H2677 H 0.80299 0.15706 0.39535 0.0
H2678 H 0.79013 0.13681 0.36768 0.0
C2679 C 0.74072 0.04059 0.32369 0.0
C2680 C 0.7588 0.07875 0.35253 0.0
H2681 H 0.76292 0.11175 0.37208 0.0
C2682 C 0.77403 0.08224 0.35634 0.0
C2683 C 0.75508 0.08997 0.35704 0.0
C2684 C 0.73951 0.08776 0.35133 0.0
C2685 C 0.78524 0.09611 0.36584 0.0
C2686 C 0.78102 0.1066 0.37254 0.0
C2687 C 0.76615 0.10362 0.36733 0.0
C2688 C 0.79112 0.11965 0.38722 0.0
C2689 C 0.80142 0.09921 0.3689 0.0
C2690 C 0.79633 0.11689 0.40711 0.0
C2691 C 0.80381 0.12841 0.42263 0.0
C2692 C 0.80603 0.14293 0.41884 0.0
C2693 C 0.80159 0.14602 0.39852 0.0
C2694 C 0.79412 0.13442 0.38284 0.0
H2695 H 0.80434 0.09386 0.35563 0.0
H2696 H 0.8101 0.11161 0.36921 0.0
H2697 H 0.80222 0.0941 0.38453 0.0
H2698 H 0.79383 0.10556 0.41123 0.0
H2699 H 0.80703 0.12572 0.43822 0.0
H2700 H 0.97655 0.71236 0.33508 0.0
H2701 H 0.94928 0.69882 0.34344 0.0
H2702 H 0.94939 0.65712 0.35168 0.0
H2703 H 0.97713 0.6708 0.34363 0.0
H2704 H 0.9232 0.67391 0.32515 0.0
H2705 H 0.93409 0.66222 0.41049 0.0
H2706 H 0.94953 0.67524 0.39298 0.0
H2707 H 0.94046 0.65504 0.38902 0.0
C2708 C 0.97085 0.70028 0.33856 0.0
C2709 C 0.97914 0.69272 0.33898 0.0
C2710 C 0.95517 0.69253 0.34321 0.0
C2711 C 0.9473 0.677 0.34846 0.0
C2712 C 0.9553 0.66917 0.34801 0.0
H2713 H 0.86055 0.63562 0.41815 0.0
H2714 H 0.87949 0.63627 0.39319 0.0
C2715 C 0.97112 0.67698 0.34331 0.0
C2716 C 0.93105 0.66963 0.35577 0.0
H2717 H 0.90922 0.65661 0.40157 0.0
C2718 C 0.92004 0.66986 0.34176 0.0
C2719 C 0.92692 0.66435 0.37743 0.0
C2720 C 0.93834 0.66425 0.39347 0.0
C2721 C 0.90524 0.66554 0.34907 0.0
C2722 C 0.90141 0.66107 0.37106 0.0
C2723 C 0.91213 0.66002 0.38469 0.0
C2724 C 0.88717 0.65894 0.38114 0.0
C2725 C 0.89396 0.6661 0.3333 0.0
C2726 C 0.88457 0.67113 0.38183 0.0
C2727 C 0.87359 0.67068 0.3959 0.0
C2728 C 0.86518 0.65811 0.40967 0.0
C2729 C 0.86679 0.64538 0.40752 0.0
C2730 C 0.87769 0.64579 0.39339 0.0
H2731 H 0.89628 0.66439 0.31623 0.0
H2732 H 0.88186 0.65732 0.33721 0.0
H2733 H 0.89521 0.67748 0.33425 0.0
H2734 H 0.89192 0.68154 0.37293 0.0
H2735 H 0.87279 0.68075 0.39758 0.0
H2736 H 0.3614 0.00757 0.65477 0.0
H2737 H 0.38337 1.00465 0.66374 0.0
H2738 H 0.39156 0.03018 0.7231 0.0
H2739 H 0.36958 0.03312 0.71435 0.0
H2740 H 0.41518 0.02694 0.67219 0.0
H2741 H 0.38724 0.98968 0.74373 0.0
H2742 H 0.37657 0.99351 0.72341 0.0
H2743 H 0.38754 0.00733 0.7443 0.0
C2744 C 0.36789 0.01262 0.66971 0.0
C2745 C 0.36363 0.0205 0.68391 0.0
C2746 C 0.38047 0.01095 0.67479 0.0
C2747 C 0.38897 0.017 0.69424 0.0
C2748 C 0.385 0.0252 0.70817 0.0
H2749 H 0.47652 0.036 0.74297 0.0
H2750 H 0.45584 0.03615 0.72206 0.0
C2751 C 0.37247 0.02693 0.70308 0.0
C2752 C 0.40186 0.01458 0.70016 0.0
H2753 H 0.41401 0.99922 0.73953 0.0
C2754 C 0.41489 0.02078 0.68682 0.0
C2755 C 0.40137 0.00629 0.71901 0.0
C2756 C 0.38738 0.99868 0.73336 0.0
C2757 C 0.42769 0.01944 0.69234 0.0
C2758 C 0.4275 0.01181 0.71179 0.0
C2759 C 0.41421 1.0051 0.72464 0.0
C2760 C 0.44128 0.0116 0.72017 0.0
C2761 C 0.44131 0.02626 0.67733 0.0
C2762 C 0.44024 0.99775 0.72562 0.0
C2763 C 0.45217 0.99767 0.73748 0.0
C2764 C 0.46525 0.01144 0.74423 0.0
C2765 C 0.4667 0.02525 0.73753 0.0
C2766 C 0.45485 0.02533 0.72561 0.0
H2767 H 0.43786 0.02724 0.66036 0.0
H2768 H 0.44998 0.0379 0.68311 0.0
H2769 H 0.44686 0.01935 0.67717 0.0
H2770 H 0.42984 0.98701 0.72175 0.0
H2771 H 0.45061 0.98689 0.74289 0.0
H2772 H 0.99022 0.3615 0.65071 0.0
H2773 H 0.99119 0.38497 0.66103 0.0
H2774 H 0.98931 0.37297 0.72897 0.0
H2775 H 0.98849 0.34954 0.71884 0.0
H2776 H 0.97041 0.38945 0.68481 0.0
H2777 H 0.02759 0.41595 0.72647 0.0
H2778 H 0.02043 0.39957 0.70882 0.0
H2779 H 0.01388 0.39728 0.73646 0.0
C2780 C 0.99005 0.36385 0.66787 0.0
C2781 C 0.98939 0.35365 0.68395 0.0
C2782 C 0.99056 0.37727 0.67372 0.0
C2783 C 0.99053 0.38085 0.69577 0.0
C2784 C 0.98963 0.37059 0.71186 0.0
H2785 H 0.97334 0.44458 0.76021 0.0
H2786 H 0.97024 0.42291 0.73929 0.0
C2787 C 0.9891 0.35716 0.70603 0.0
C2788 C 0.9915 0.39532 0.70198 0.0
H2789 H 0.01318 0.42798 0.7315 0.0
C2790 C 0.97981 0.39794 0.69489 0.0
C2791 C 1.0039 0.40652 0.71482 0.0
C2792 C 0.01725 0.40481 0.72193 0.0
C2793 C 0.97994 0.41123 0.70091 0.0
C2794 C 0.992 0.42211 0.71455 0.0
C2795 C 1.0039 0.41966 0.72108 0.0
C2796 C 0.99227 0.43577 0.72326 0.0
C2797 C 0.96721 0.41351 0.6925 0.0
C2798 C 1.00547 0.45034 0.72082 0.0
C2799 C 1.0072 0.46273 0.73277 0.0
C2800 C 0.99575 0.46077 0.74729 0.0
C2801 C 0.98208 0.44647 0.74857 0.0
C2802 C 0.98036 0.43406 0.73668 0.0
H2803 H 0.96188 0.40695 0.67724 0.0
H2804 H 0.95806 0.4094 0.70493 0.0
H2805 H 0.97156 0.42574 0.68931 0.0
H2806 H 0.01485 0.45194 0.7107 0.0
H2807 H 0.01802 0.47353 0.73202 0.0
H2808 H 0.65634 0.65609 0.70139 0.0
H2809 H 0.62841 0.63978 0.70778 0.0
H2810 H 0.63183 0.59981 0.70222 0.0
H2811 H 0.65937 0.61575 0.69606 0.0
H2812 H 0.60311 0.61303 0.68214 0.0
H2813 H 0.61484 0.59813 0.76462 0.0
H2814 H 0.62913 0.61451 0.74967 0.0
H2815 H 0.6252 0.59579 0.74301 0.0
C2816 C 0.65108 0.64383 0.70133 0.0
C2817 C 0.66015 0.63726 0.69855 0.0
C2818 C 0.63515 0.63454 0.70493 0.0
C2819 C 0.62813 0.6186 0.70575 0.0
C2820 C 0.63705 0.61207 0.70195 0.0
H2821 H 0.54243 0.54179 0.75032 0.0
H2822 H 0.56659 0.55739 0.73068 0.0
C2823 C 0.65284 0.62126 0.69847 0.0
C2824 C 0.61174 0.60861 0.71187 0.0
H2825 H 0.58918 0.58352 0.75118 0.0
C2826 C 0.60001 0.60664 0.69729 0.0
C2827 C 0.60776 0.60026 0.7316 0.0
C2828 C 0.61986 0.60233 0.74825 0.0
C2829 C 0.58436 0.59621 0.70174 0.0
C2830 C 0.58042 0.5877 0.72135 0.0
C2831 C 0.5922 0.58985 0.73598 0.0
C2832 C 0.5642 0.57711 0.72795 0.0
C2833 C 0.57221 0.59415 0.68524 0.0
C2834 C 0.5545 0.58276 0.73205 0.0
C2835 C 0.54067 0.57382 0.74309 0.0
C2836 C 0.53634 0.55911 0.75039 0.0
C2837 C 0.54538 0.55299 0.74464 0.0
C2838 C 0.55925 0.56196 0.73359 0.0
H2839 H 0.57714 0.59801 0.66873 0.0
H2840 H 0.56271 0.58204 0.68425 0.0
H2841 H 0.56724 0.60106 0.69027 0.0
H2842 H 0.55816 0.59447 0.72823 0.0
H2843 H 0.53394 0.57884 0.74745 0.0
H2844 H 0.72096 0.73527 0.71405 0.0
H2845 H 0.71846 0.7567 0.7021 0.0
H2846 H 0.69511 0.73232 0.6432 0.0
H2847 H 0.69783 0.71096 0.65482 0.0
H2848 H 0.71699 0.76181 0.63493 0.0
H2849 H 0.68007 0.75957 0.70244 0.0
H2850 H 0.69794 0.76141 0.71129 0.0
H2851 H 0.68367 0.74441 0.69733 0.0
C2852 C 0.71525 0.73443 0.69857 0.0
C2853 C 0.70954 0.72132 0.68545 0.0
C2854 C 0.71374 0.74668 0.69182 0.0
C2855 C 0.70636 0.74606 0.67191 0.0
C2856 C 0.70079 0.73306 0.65868 0.0
H2857 H 0.66626 0.79476 0.61826 0.0
H2858 H 0.67264 0.77866 0.64006 0.0
C2859 C 0.70234 0.72083 0.66537 0.0
C2860 C 0.70469 0.75904 0.66454 0.0
H2861 H 0.68863 0.78012 0.67768 0.0
C2862 C 0.71086 0.76587 0.64434 0.0
C2863 C 0.69658 0.76427 0.67673 0.0
C2864 C 0.68905 0.75697 0.69806 0.0
C2865 C 0.70897 0.77759 0.63585 0.0
C2866 C 0.70099 0.78294 0.64813 0.0
C2867 C 0.69497 0.77622 0.66845 0.0
C2868 C 0.69734 0.79424 0.63897 0.0
C2869 C 0.71497 0.78365 0.61335 0.0
C2870 C 0.70905 0.80881 0.63222 0.0
C2871 C 0.70538 0.8181 0.61981 0.0
C2872 C 0.68995 0.81299 0.61416 0.0
C2873 C 0.67823 0.79904 0.62265 0.0
C2874 C 0.68188 0.78979 0.63498 0.0
H2875 H 0.71785 0.77613 0.6043 0.0
H2876 H 0.70635 0.78488 0.60357 0.0
H2877 H 0.72562 0.79505 0.61484 0.0
H2878 H 0.72105 0.81264 0.63549 0.0
H2879 H 0.71463 0.82869 0.61319 0.0
H2880 H 0.30675 0.97861 0.68166 0.0
H2881 H 0.29256 0.95105 0.67472 0.0
H2882 H 0.24976 0.95055 0.67214 0.0
H2883 H 0.26364 0.97776 0.67954 0.0
H2884 H 0.24676 0.9257 0.69404 0.0
H2885 H 0.27562 0.93365 0.61439 0.0
H2886 H 0.28826 0.94086 0.63785 0.0
H2887 H 0.27734 0.94941 0.62965 0.0
C2888 C 0.2943 0.97259 0.6798 0.0
C2889 C 0.28637 0.98046 0.68093 0.0
C2890 C 0.28622 0.95685 0.67574 0.0
C2891 C 0.27011 0.94877 0.67256 0.0
C2892 C 0.26217 0.95652 0.67451 0.0
H2893 H 0.19532 0.86862 0.61683 0.0
H2894 H 0.21122 0.89015 0.64131 0.0
C2895 C 0.27018 0.97215 0.67864 0.0
C2896 C 0.26141 0.93247 0.66596 0.0
H2897 H 0.25639 0.90884 0.62363 0.0
C2898 C 0.24897 0.92195 0.67877 0.0
C2899 C 0.26426 0.9276 0.646 0.0
C2900 C 0.277 0.93845 0.63104 0.0
C2901 C 0.23913 0.9068 0.6719 0.0
C2902 C 0.2417 0.90209 0.65161 0.0
C2903 C 0.25447 0.91245 0.63925 0.0
C2904 C 0.23074 0.88697 0.6418 0.0
C2905 C 0.22598 0.89601 0.68628 0.0
C2906 C 0.23619 0.8777 0.63453 0.0
C2907 C 0.22714 0.86546 0.62053 0.0
C2908 C 0.21247 0.86226 0.61358 0.0
C2909 C 0.20646 0.87067 0.62234 0.0
C2910 C 0.21557 0.883 0.6363 0.0
H2911 H 0.22837 0.89968 0.70364 0.0
H2912 H 0.21538 0.89588 0.68101 0.0
H2913 H 0.2237 0.88423 0.68507 0.0
H2914 H 0.24786 0.88057 0.63847 0.0
H2915 H 0.23206 0.85923 0.61374 0.0
H2916 H 0.03338 0.29483 0.67936 0.0
H2917 H 0.06079 0.30602 0.67357 0.0
H2918 H 0.06664 0.35067 0.66914 0.0
H2919 H 0.0388 0.3394 0.67465 0.0
H2920 H 0.07913 0.34433 0.63487 0.0
H2921 H 0.09894 0.33023 0.71099 0.0
H2922 H 0.08239 0.31368 0.69956 0.0
H2923 H 0.08069 0.32935 0.70886 0.0
C2924 C 0.04045 0.30708 0.67748 0.0
C2925 C 0.03383 0.31621 0.67737 0.0
C2926 C 0.05623 0.31349 0.67441 0.0
C2927 C 0.06588 0.32922 0.67133 0.0
C2928 C 0.05943 0.3385 0.67174 0.0
H2929 H 0.15821 0.37391 0.6155 0.0
H2930 H 0.13713 0.37021 0.63879 0.0
C2931 C 0.04354 0.33206 0.6749 0.0
C2932 C 0.08223 0.33546 0.6652 0.0
H2933 H 0.11447 0.33433 0.67902 0.0
C2934 C 0.087 0.34248 0.64475 0.0
C2935 C 0.09247 0.33296 0.67804 0.0
C2936 C 0.0884 0.32628 0.70068 0.0
C2937 C 0.10132 0.34624 0.63624 0.0
C2938 C 0.11128 0.34311 0.64867 0.0
C2939 C 0.1068 0.33665 0.66949 0.0
C2940 C 0.12588 0.34565 0.63948 0.0
C2941 C 0.10536 0.3528 0.6135 0.0
C2942 C 0.12712 0.33314 0.63347 0.0
C2943 C 0.13929 0.33526 0.62039 0.0
C2944 C 0.15033 0.34991 0.61317 0.0
C2945 C 0.14986 0.36251 0.62095 0.0
C2946 C 0.13776 0.3604 0.63408 0.0
H2947 H 0.09526 0.35189 0.6046 0.0
H2948 H 0.11447 0.36504 0.61454 0.0
H2949 H 0.1099 0.34691 0.60383 0.0
H2950 H 0.11807 0.32166 0.63752 0.0
H2951 H 0.13929 0.32536 0.61437 0.0
H2952 H 0.31246 0.32891 0.70597 0.0
H2953 H 0.29038 0.33171 0.69752 0.0
H2954 H 0.28971 0.31758 0.6312 0.0
H2955 H 0.3115 0.31436 0.63968 0.0
H2956 H 0.28789 0.35035 0.66974 0.0
H2957 H 0.24494 0.29116 0.64577 0.0
H2958 H 0.26293 0.29619 0.65929 0.0
H2959 H 0.26219 0.29856 0.6302 0.0
C2960 C 0.3075 0.32622 0.68964 0.0
C2961 C 0.31373 0.32132 0.67354 0.0
C2962 C 0.29487 0.32785 0.68482 0.0
C2963 C 0.28816 0.32463 0.66381 0.0
C2964 C 0.29437 0.31975 0.6477 0.0
H2965 H 0.24011 0.3588 0.59256 0.0
H2966 H 0.25854 0.356 0.61516 0.0
C2967 C 0.30692 0.318 0.65254 0.0
C2968 C 0.27521 0.3271 0.65839 0.0
H2969 H 0.23958 0.31036 0.63385 0.0
C2970 C 0.27724 0.34153 0.66217 0.0
C2971 C 0.26111 0.31554 0.64898 0.0
C2972 C 0.25758 0.29946 0.64605 0.0
C2973 C 0.26595 0.34492 0.65576 0.0
C2974 C 0.25238 0.33371 0.64479 0.0
C2975 C 0.25001 0.31905 0.64206 0.0
C2976 C 0.2412 0.33722 0.63423 0.0
C2977 C 0.26876 0.36054 0.66074 0.0
C2978 C 0.22522 0.32778 0.63753 0.0
C2979 C 0.21462 0.32938 0.62447 0.0
C2980 C 0.21986 0.34042 0.60792 0.0
C2981 C 0.23581 0.35045 0.60559 0.0
C2982 C 0.24636 0.34884 0.61853 0.0
H2983 H 0.27605 0.36537 0.6757 0.0
H2984 H 0.27504 0.36832 0.64701 0.0
H2985 H 0.25777 0.36027 0.66301 0.0
H2986 H 0.22092 0.31867 0.64942 0.0
H2987 H 0.20239 0.32128 0.6262 0.0
H2988 H 0.69299 0.98356 0.71496 0.0
H2989 H 0.69149 0.95994 0.70418 0.0
H2990 H 0.69303 0.97226 0.63642 0.0
H2991 H 0.69485 0.99608 0.64707 0.0
H2992 H 0.67029 0.93593 0.68006 0.0
H2993 H 0.72692 0.96259 0.63972 0.0
H2994 H 0.72144 0.97328 0.65662 0.0
H2995 H 0.71485 0.9691 0.62865 0.0
C2996 C 0.69307 0.9813 0.69774 0.0
C2997 C 0.69415 0.99182 0.68189 0.0
C2998 C 0.69219 0.96775 0.69161 0.0
C2999 C 0.69242 0.96439 0.6695 0.0
C3000 C 0.69322 0.97474 0.65361 0.0
H3001 H 0.66234 0.88072 0.60256 0.0
H3002 H 0.66363 0.90082 0.6252 0.0
C3003 C 0.69417 0.98834 0.65973 0.0
C3004 C 0.69156 0.94998 0.66305 0.0
H3005 H 0.70957 0.93608 0.63275 0.0
C3006 C 0.67896 0.93597 0.66988 0.0
C3007 C 0.70302 0.94995 0.65018 0.0
C3008 C 0.7174 0.96454 0.64356 0.0
C3009 C 0.6772 0.922 0.66345 0.0
C3010 C 0.68817 0.92199 0.64946 0.0
C3011 C 0.70108 0.936 0.64337 0.0
C3012 C 0.68601 0.90776 0.63952 0.0
C3013 C 0.66358 0.90741 0.67176 0.0
C3014 C 0.69796 0.90459 0.64031 0.0
C3015 C 0.6972 0.89301 0.62731 0.0
C3016 C 0.68448 0.88445 0.61328 0.0
C3017 C 0.67207 0.88689 0.61369 0.0
C3018 C 0.67284 0.89844 0.62661 0.0
H3019 H 0.65973 0.9092 0.68773 0.0
H3020 H 0.65379 0.90343 0.65999 0.0
H3021 H 0.66636 0.89831 0.67364 0.0
H3022 H 0.70828 0.91165 0.65003 0.0
H3023 H 0.70708 0.89162 0.62685 0.0
H3024 H 0.03223 0.72867 0.68604 0.0
H3025 H 0.05959 0.74162 0.67788 0.0
H3026 H 0.05513 0.69849 0.66314 0.0
H3027 H 0.02746 0.68533 0.67099 0.0
H3028 H 0.0849 0.73947 0.69322 0.0
H3029 H 0.07028 0.72251 0.60589 0.0
H3030 H 0.05596 0.72025 0.62509 0.0
H3031 H 0.0629 0.70731 0.62551 0.0
C3032 C 0.03703 0.72185 0.68128 0.0
C3033 C 0.02756 0.70595 0.67883 0.0
C3034 C 0.05274 0.7293 0.67674 0.0
C3035 C 0.05936 0.72106 0.6696 0.0
C3036 C 0.05018 0.70509 0.66831 0.0
H3037 H 0.14395 0.76433 0.59535 0.0
H3038 H 0.12454 0.74538 0.61986 0.0
C3039 C 0.03439 0.69758 0.67287 0.0
C3040 C 0.07548 0.7295 0.6617 0.0
H3041 H 0.09613 0.73947 0.61479 0.0
C3042 C 0.08744 0.73931 0.67613 0.0
C3043 C 0.07878 0.72929 0.63941 0.0
C3044 C 0.06633 0.71938 0.62297 0.0
C3045 C 0.10251 0.74923 0.66872 0.0
C3046 C 0.10561 0.74954 0.64624 0.0
C3047 C 0.0938 0.73921 0.63205 0.0
C3048 C 0.12035 0.76143 0.63637 0.0
C3049 C 0.11488 0.75942 0.685 0.0
C3050 C 0.12511 0.77692 0.6383 0.0
C3051 C 0.13641 0.78779 0.62454 0.0
C3052 C 0.14295 0.7833 0.60847 0.0
C3053 C 0.13918 0.76807 0.60782 0.0
C3054 C 0.12802 0.75723 0.62172 0.0
H3055 H 0.11246 0.75412 0.70145 0.0
H3056 H 0.12645 0.76199 0.67992 0.0
H3057 H 0.1151 0.77031 0.68635 0.0
H3058 H 0.11916 0.78044 0.64905 0.0
H3059 H 0.1389 0.7994 0.62501 0.0
H3060 H 1.00778 0.63893 0.65963 0.0
H3061 H 0.00847 0.61595 0.66809 0.0
H3062 H 0.96491 0.59681 0.70065 0.0
H3063 H 0.96411 0.61976 0.6923 0.0
H3064 H 0.00807 0.60529 0.71133 0.0
H3065 H 0.95931 0.56159 0.66099 0.0
H3066 H 0.96844 0.58178 0.65566 0.0
H3067 H 0.95476 0.57319 0.67726 0.0
C3068 C 0.99822 0.62976 0.66834 0.0
C3069 C 0.98588 0.63122 0.6753 0.0
C3070 C 0.99865 0.61663 0.67316 0.0
C3071 C 0.98666 0.60458 0.68477 0.0
C3072 C 0.97415 0.60584 0.69133 0.0
H3073 H 0.96574 0.5253 0.75548 0.0
H3074 H 0.96562 0.54426 0.73133 0.0
C3075 C 0.97376 0.61902 0.68665 0.0
C3076 C 0.98782 0.59127 0.69161 0.0
H3077 H 0.9693 0.55244 0.68874 0.0
C3078 C 0.99975 0.59374 0.70615 0.0
C3079 C 0.97693 0.57624 0.68485 0.0
C3080 C 0.9642 0.57298 0.66868 0.0
C3081 C 1.00063 0.58154 0.71503 0.0
C3082 C 0.98952 0.56641 0.70866 0.0
C3083 C 0.97789 0.564 0.69351 0.0
C3084 C 0.98873 0.55299 0.71955 0.0
C3085 C 0.01293 0.58495 0.73212 0.0
C3086 C 1.0014 0.55087 0.71998 0.0
C3087 C 1.0015 0.54 0.73393 0.0
C3088 C 0.98886 0.53101 0.74742 0.0
C3089 C 0.97564 0.53211 0.74526 0.0
C3090 C 0.97558 0.54298 0.73149 0.0
H3091 H 0.01837 0.59677 0.73851 0.0
H3092 H 0.00806 0.57693 0.74606 0.0
H3093 H 0.02213 0.58366 0.72481 0.0
H3094 H 0.01153 0.55819 0.71047 0.0
H3095 H 0.01185 0.53943 0.73537 0.0
H3096 H 0.41401 0.36978 0.67379 0.0
H3097 H 0.42635 0.39687 0.68176 0.0
H3098 H 0.38174 0.39234 0.68613 0.0
H3099 H 0.36916 0.36495 0.67846 0.0
H3100 H 0.42527 0.42125 0.66222 0.0
H3101 H 0.40162 0.409 0.74626 0.0
H3102 H 0.4008 0.39442 0.72906 0.0
H3103 H 0.38776 0.40108 0.72421 0.0
C3104 C 0.40675 0.3745 0.67626 0.0
C3105 C 0.39056 0.36511 0.67576 0.0
C3106 C 0.41386 0.39005 0.68072 0.0
C3107 C 0.40499 0.3966 0.68484 0.0
C3108 C 0.38882 0.38746 0.68333 0.0
H3109 H 0.44195 0.48302 0.75327 0.0
H3110 H 0.42487 0.46224 0.72836 0.0
C3111 C 0.38165 0.37183 0.67886 0.0
C3112 C 0.41285 0.41271 0.69223 0.0
H3113 H 0.41906 0.43443 0.7375 0.0
C3114 C 0.42376 0.4242 0.67857 0.0
C3115 C 0.41089 0.41655 0.71356 0.0
C3116 C 0.39973 0.40465 0.72925 0.0
C3117 C 0.43305 0.43932 0.6859 0.0
C3118 C 0.43157 0.443 0.70757 0.0
C3119 C 0.42017 0.43165 0.72085 0.0
C3120 C 0.44257 0.458 0.71776 0.0
C3121 C 0.44448 0.45116 0.67045 0.0
C3122 C 0.45837 0.46303 0.71935 0.0
C3123 C 0.46817 0.47506 0.73332 0.0
C3124 C 0.46229 0.48216 0.74601 0.0
C3125 C 0.44678 0.47791 0.74325 0.0
C3126 C 0.43701 0.46596 0.72918 0.0
H3127 H 0.44054 0.44812 0.6532 0.0
H3128 H 0.44634 0.46261 0.67391 0.0
H3129 H 0.45569 0.45176 0.67229 0.0
H3130 H 0.46289 0.45687 0.71119 0.0
H3131 H 0.47998 0.47788 0.73568 0.0
H3132 H 0.6469 0.00802 0.68972 0.0
H3133 H 0.61889 0.99744 0.69203 0.0
H3134 H 0.62714 0.04267 0.70139 0.0
H3135 H 0.65471 0.05323 0.69905 0.0
H3136 H 0.6033 1.00023 0.72758 0.0
H3137 H 0.59363 0.02581 0.65395 0.0
H3138 H 0.61064 0.02454 0.65782 0.0
H3139 H 0.60948 0.03971 0.67037 0.0
C3140 C 0.6427 0.01569 0.69207 0.0
C3141 C 0.6531 0.03147 0.69421 0.0
C3142 C 0.62671 0.00964 0.69334 0.0
C3143 C 0.6209 0.01931 0.69641 0.0
C3144 C 0.63128 0.03502 0.69844 0.0
H3145 H 0.54523 0.02286 0.74374 0.0
H3146 H 0.56789 0.02708 0.72373 0.0
C3147 C 0.64712 0.04102 0.69731 0.0
C3148 C 0.60416 0.01321 0.69934 0.0
H3149 H 0.57485 0.01839 0.6825 0.0
C3150 C 0.59693 1.00388 0.71743 0.0
C3151 C 0.5959 0.01806 0.68614 0.0
C3152 C 0.60277 0.02747 0.66586 0.0
C3153 C 0.58204 1.00007 0.7235 0.0
C3154 C 0.57403 0.0055 0.71085 0.0
C3155 C 0.581 0.01427 0.69219 0.0
C3156 C 0.55899 1.00314 0.71792 0.0
C3157 C 0.57537 0.99102 0.74416 0.0
C3158 C 0.5461 0.98838 0.71997 0.0
C3159 C 0.53317 0.98598 0.7313 0.0
C3160 C 0.53287 0.99831 0.74055 0.0
C3161 C 0.54508 0.01319 0.73648 0.0
C3162 C 0.55808 0.01559 0.72522 0.0
H3163 H 0.58419 0.99027 0.75421 0.0
H3164 H 0.57025 0.99619 0.75423 0.0
H3165 H 0.56609 0.97926 0.73985 0.0
H3166 H 0.54646 0.97864 0.71413 0.0
H3167 H 0.52393 0.97439 0.73441 0.0
loop_
_geom_bond_atom_site_label_1
_geom_bond_atom_site_label_2
_geom_bond_distance
_geom_bond_site_symmetry_2
_ccdc_geom_bond_type
Zn0 O3 2.031 1_554 S
Zn0 O5 2.049 . S
Zn0 O10 2.067 1_554 S
Zn1 O2 1.962 1_455 S
Zn1 O4 1.986 . S
Zn1 O6 1.996 1_455 S
Zn1 O9 1.943 1_554 S
O2 Zn1 1.962 1_655 S
O2 C7 1.254 . S
O3 Zn0 2.031 1_556 S
O3 C7 1.269 1_556 S
O4 Zn1 1.986 . S
O4 C11 1.262 . S
O5 Zn0 2.049 . S
O5 C13 1.260 . S
O6 Zn1 1.996 1_655 S
O6 C13 1.257 . S
C7 O2 1.254 . S
C7 O3 1.269 1_554 S
C8 O9 1.249 . S
C8 O10 1.270 1_455 S
O9 Zn1 1.943 1_556 S
O9 C8 1.249 . S
O10 Zn0 2.067 1_556 S
O10 C8 1.270 1_655 S
C11 O4 1.262 . S
C11 O12 1.232 . S
O12 C11 1.232 . S
C13 O5 1.260 . S
C13 O6 1.257 . S
Zn14 O17 2.031 1_554 S
Zn14 O19 2.049 . S
Zn14 O24 2.067 1_554 S
Zn15 O16 1.962 . S
Zn15 O18 1.986 . S
Zn15 O20 1.996 . S
Zn15 O23 1.943 1_554 S
O16 Zn15 1.962 . S
O16 C21 1.254 . S
O17 Zn14 2.031 1_556 S
O17 C21 1.269 1_556 S
O18 Zn15 1.986 . S
O18 C25 1.262 . S
O19 Zn14 2.049 . S
O19 C27 1.260 . S
O20 Zn15 1.996 . S
O20 C27 1.257 . S
C21 O16 1.254 . S
C21 O17 1.269 1_554 S
C22 O23 1.249 . S
C22 O24 1.270 . S
O23 Zn15 1.943 1_556 S
O23 C22 1.249 . S
O24 Zn14 2.067 1_556 S
O24 C22 1.270 . S
C25 O18 1.262 . S
C25 O26 1.232 . S
O26 C25 1.232 . S
C27 O19 1.260 . S
C27 O20 1.257 . S
Zn28 O31 2.031 . S
Zn28 O33 2.049 1_554 S
Zn28 O38 2.067 . S
Zn29 O30 1.962 1_545 S
Zn29 O32 1.986 1_554 S
Zn29 O34 1.996 1_544 S
Zn29 O37 1.943 . S
O30 Zn29 1.962 1_565 S
O30 C35 1.254 . S
O31 Zn28 2.031 . S
O31 C35 1.269 . S
O32 Zn29 1.986 1_556 S
O32 C39 1.259 . S
O33 Zn28 2.049 1_556 S
O33 C41 1.260 . S
O34 Zn29 1.996 1_566 S
O34 C41 1.257 . S
C35 O30 1.254 . S
C35 O31 1.269 . S
C36 O37 1.249 . S
C36 O38 1.270 1_545 S
O37 Zn29 1.943 . S
O37 C36 1.249 . S
O38 Zn28 2.067 . S
O38 C36 1.270 1_565 S
C39 O32 1.259 . S
C39 O40 1.237 1_556 S
O40 C39 1.237 1_554 S
C41 O33 1.260 . S
C41 O34 1.257 . S
Zn42 O45 2.031 . S
Zn42 O47 2.049 1_554 S
Zn42 O52 2.067 . S
Zn43 O44 1.962 1_655 S
Zn43 O46 1.986 1_554 S
Zn43 O48 1.996 1_654 S
Zn43 O51 1.943 . S
O44 Zn43 1.962 1_455 S
O44 C49 1.254 . S
O45 Zn42 2.031 . S
O45 C49 1.269 . S
O46 Zn43 1.986 1_556 S
O46 C53 1.239 1_556 S
O47 Zn42 2.049 1_556 S
O47 C55 1.260 . S
O48 Zn43 1.996 1_456 S
O48 C55 1.257 . S
C49 O44 1.254 . S
C49 O45 1.269 . S
C50 O51 1.249 . S
C50 O52 1.270 1_655 S
O51 Zn43 1.943 . S
O51 C50 1.249 . S
O52 Zn42 2.067 . S
O52 C50 1.270 1_455 S
C53 O46 1.239 1_554 S
C53 O54 1.265 . S
O54 C53 1.265 . S
C55 O47 1.260 . S
C55 O48 1.257 . S
Zn56 O59 2.031 . S
Zn56 O61 2.049 1_554 S
Zn56 O66 2.067 . S
Zn57 O58 1.962 . S
Zn57 O60 1.986 1_554 S
Zn57 O62 1.996 1_554 S
Zn57 O65 1.943 . S
O58 Zn57 1.962 . S
O58 C63 1.254 . S
O59 Zn56 2.031 . S
O59 C63 1.269 . S
O60 Zn57 1.986 1_556 S
O60 C67 1.262 1_556 S
O61 Zn56 2.049 1_556 S
O61 C69 1.260 . S
O62 Zn57 1.996 1_556 S
O62 C69 1.257 . S
C63 O58 1.254 . S
C63 O59 1.269 . S
C64 O65 1.249 . S
C64 O66 1.270 . S
O65 Zn57 1.943 . S
O65 C64 1.249 . S
O66 Zn56 2.067 . S
O66 C64 1.270 . S
C67 O60 1.262 1_554 S
C67 O68 1.232 . S
O68 C67 1.232 . S
C69 O61 1.260 . S
C69 O62 1.257 . S
Zn70 O73 2.011 1_554 S
Zn70 O75 2.049 . S
Zn70 O80 2.067 1_554 S
Zn71 O72 1.962 1_565 S
Zn71 O74 1.986 . S
Zn71 O76 1.996 1_565 S
Zn71 O79 1.933 1_554 S
O72 Zn71 1.962 1_545 S
O72 C77 1.254 . S
O73 Zn70 2.011 1_556 S
O73 C77 1.257 1_556 S
O74 Zn71 1.986 . S
O74 C81 1.262 . S
O75 Zn70 2.049 . S
O75 C83 1.260 . S
O76 Zn71 1.996 1_545 S
O76 C83 1.257 . S
C77 O72 1.254 . S
C77 O73 1.257 1_554 S
C78 O79 1.255 . S
C78 O80 1.270 1_565 S
O79 Zn71 1.933 1_556 S
O79 C78 1.255 . S
O80 Zn70 2.067 1_556 S
O80 C78 1.270 1_545 S
C81 O74 1.262 . S
C81 O82 1.232 . S
O82 C81 1.232 . S
C83 O75 1.260 . S
C83 O76 1.257 . S
Zn84 O87 2.031 . S
Zn84 O89 2.049 . S
Zn84 O94 2.067 . S
Zn85 O86 1.962 . S
Zn85 O88 1.986 . S
Zn85 O90 1.996 . S
Zn85 O93 1.943 . S
O86 Zn85 1.962 . S
O86 C91 1.254 . S
O87 Zn84 2.031 . S
O87 C91 1.269 . S
O88 Zn85 1.986 . S
O88 C95 1.262 . S
O89 Zn84 2.049 . S
O89 C97 1.260 . S
O90 Zn85 1.996 . S
O90 C97 1.257 . S
C91 O86 1.254 . S
C91 O87 1.269 . S
C92 O93 1.249 . S
C92 O94 1.270 . S
O93 Zn85 1.943 . S
O93 C92 1.249 . S
O94 Zn84 2.067 . S
O94 C92 1.270 . S
C95 O88 1.262 . S
C95 O96 1.232 . S
O96 C95 1.232 . S
C97 O89 1.260 . S
C97 O90 1.257 . S
Zn98 O101 2.031 . S
Zn98 O103 2.049 . S
Zn98 O108 2.067 . S
Zn99 O100 1.962 . S
Zn99 O102 1.986 1_565 S
Zn99 O104 1.996 . S
Zn99 O107 1.943 . S
O100 Zn99 1.962 . S
O100 C105 1.254 . S
O101 Zn98 2.031 . S
O101 C105 1.269 . S
O102 Zn99 1.986 1_545 S
O102 C109 1.262 . S
O103 Zn98 2.049 . S
O103 C111 1.260 . S
O104 Zn99 1.996 . S
O104 C111 1.257 . S
C105 O100 1.254 . S
C105 O101 1.269 . S
C106 O107 1.249 . S
C106 O108 1.270 . S
O107 Zn99 1.943 . S
O107 C106 1.249 . S
O108 Zn98 2.067 . S
O108 C106 1.270 . S
C109 O102 1.262 . S
C109 O110 1.232 . S
O110 C109 1.232 . S
C111 O103 1.260 . S
C111 O104 1.257 . S
Zn112 O115 2.031 . S
Zn112 O117 2.049 . S
Zn112 O122 2.067 . S
Zn113 O114 1.962 1_455 S
Zn113 O116 1.986 . S
Zn113 O118 1.996 . S
Zn113 O121 1.943 . S
O114 Zn113 1.962 1_655 S
O114 C119 1.254 . S
O115 Zn112 2.031 . S
O115 C119 1.269 1_455 S
O116 Zn113 1.986 . S
O116 C123 1.262 . S
O117 Zn112 2.049 . S
O117 C125 1.260 . S
O118 Zn113 1.996 . S
O118 C125 1.257 . S
C119 O114 1.254 . S
C119 O115 1.269 1_655 S
C120 O121 1.249 . S
C120 O122 1.270 . S
O121 Zn113 1.943 . S
O121 C120 1.249 . S
O122 Zn112 2.067 . S
O122 C120 1.270 . S
C123 O116 1.262 . S
C123 O124 1.232 . S
O124 C123 1.232 . S
C125 O117 1.260 . S
C125 O118 1.257 . S
Zn126 O129 2.031 . S
Zn126 O131 2.049 . S
Zn126 O136 2.067 . S
Zn127 O128 1.962 1_565 S
Zn127 O130 1.986 . S
Zn127 O132 1.996 . S
Zn127 O135 1.943 . S
O128 Zn127 1.962 1_545 S
O128 C133 1.254 . S
O129 Zn126 2.031 . S
O129 C133 1.269 1_565 S
O130 Zn127 1.986 . S
O130 C137 1.262 . S
O131 Zn126 2.049 . S
O131 C139 1.260 . S
O132 Zn127 1.996 . S
O132 C139 1.257 . S
C133 O128 1.254 . S
C133 O129 1.269 1_545 S
C134 O135 1.249 . S
C134 O136 1.270 . S
O135 Zn127 1.943 . S
O135 C134 1.249 . S
O136 Zn126 2.067 . S
O136 C134 1.270 . S
C137 O130 1.262 . S
C137 O138 1.232 . S
O138 C137 1.232 . S
C139 O131 1.260 . S
C139 O132 1.257 . S
Zn140 O143 2.031 . S
Zn140 O145 2.049 . S
Zn140 O150 2.067 . S
Zn141 O142 1.962 1_455 S
Zn141 O144 1.986 . S
Zn141 O146 1.996 . S
Zn141 O149 1.943 . S
O142 Zn141 1.962 1_655 S
O142 C147 1.254 . S
O143 Zn140 2.031 . S
O143 C147 1.269 1_455 S
O144 Zn141 1.986 . S
O144 C151 1.262 . S
O145 Zn140 2.049 . S
O145 C153 1.260 . S
O146 Zn141 1.996 . S
O146 C153 1.257 . S
C147 O142 1.254 . S
C147 O143 1.269 1_655 S
C148 O149 1.249 . S
C148 O150 1.270 . S
O149 Zn141 1.943 . S
O149 C148 1.249 . S
O150 Zn140 2.067 . S
O150 C148 1.270 . S
C151 O144 1.262 . S
C151 O152 1.232 . S
O152 C151 1.232 . S
C153 O145 1.260 . S
C153 O146 1.257 . S
Zn154 O157 2.031 . S
Zn154 O159 2.049 . S
Zn154 O164 2.067 . S
Zn155 O156 1.962 . S
Zn155 O158 1.986 . S
Zn155 O160 1.996 . S
Zn155 O163 1.943 . S
O156 Zn155 1.962 . S
O156 C161 1.254 . S
O157 Zn154 2.031 . S
O157 C161 1.269 . S
O158 Zn155 1.986 . S
O158 C165 1.262 . S
O159 Zn154 2.049 . S
O159 C167 1.260 . S
O160 Zn155 1.996 . S
O160 C167 1.257 . S
C161 O156 1.254 . S
C161 O157 1.269 . S
C162 O163 1.249 . S
C162 O164 1.270 . S
O163 Zn155 1.943 . S
O163 C162 1.249 . S
O164 Zn154 2.067 . S
O164 C162 1.270 . S
C165 O158 1.262 . S
C165 O166 1.232 . S
O166 C165 1.232 . S
C167 O159 1.260 . S
C167 O160 1.257 . S
Zn168 O171 2.031 . S
Zn168 O173 2.049 . S
Zn168 O178 2.067 . S
Zn169 O170 1.962 1_545 S
Zn169 O172 1.986 . S
Zn169 O174 1.996 . S
Zn169 O177 1.943 . S
O170 Zn169 1.962 1_565 S
O170 C175 1.254 . S
O171 Zn168 2.031 . S
O171 C175 1.269 1_545 S
O172 Zn169 1.986 . S
O172 C179 1.262 . S
O173 Zn168 2.049 . S
O173 C181 1.260 . S
O174 Zn169 1.996 . S
O174 C181 1.257 . S
C175 O170 1.254 . S
C175 O171 1.269 1_565 S
C176 O177 1.249 . S
C176 O178 1.270 . S
O177 Zn169 1.943 . S
O177 C176 1.249 . S
O178 Zn168 2.067 . S
O178 C176 1.270 . S
C179 O172 1.262 . S
C179 O180 1.232 . S
O180 C179 1.232 . S
C181 O173 1.260 . S
C181 O174 1.257 . S
Zn182 O185 2.031 . S
Zn182 O187 2.049 . S
Zn182 O192 2.067 . S
Zn183 O184 1.962 1_655 S
Zn183 O186 1.986 . S
Zn183 O188 1.996 . S
Zn183 O191 1.943 . S
O184 Zn183 1.962 1_455 S
O184 C189 1.254 . S
O185 Zn182 2.031 . S
O185 C189 1.269 1_655 S
O186 Zn183 1.986 . S
O186 C193 1.262 . S
O187 Zn182 2.049 . S
O187 C195 1.260 . S
O188 Zn183 1.996 . S
O188 C195 1.257 . S
C189 O184 1.254 . S
C189 O185 1.269 1_455 S
C190 O191 1.249 . S
C190 O192 1.270 . S
O191 Zn183 1.943 . S
O191 C190 1.249 . S
O192 Zn182 2.067 . S
O192 C190 1.270 . S
C193 O186 1.262 . S
C193 O194 1.232 . S
O194 C193 1.232 . S
C195 O187 1.260 . S
C195 O188 1.257 . S
Zn196 O199 2.031 . S
Zn196 O201 2.049 . S
Zn196 O206 2.067 . S
Zn197 O198 1.962 . S
Zn197 O200 1.986 . S
Zn197 O202 1.996 . S
Zn197 O205 1.943 . S
O198 Zn197 1.962 . S
O198 C203 1.254 . S
O199 Zn196 2.031 . S
O199 C203 1.269 . S
O200 Zn197 1.986 . S
O200 C207 1.262 . S
O201 Zn196 2.049 . S
O201 C209 1.260 . S
O202 Zn197 1.996 . S
O202 C209 1.257 . S
C203 O198 1.254 . S
C203 O199 1.269 . S
C204 O205 1.249 . S
C204 O206 1.270 . S
O205 Zn197 1.943 . S
O205 C204 1.249 . S
O206 Zn196 2.067 . S
O206 C204 1.270 . S
C207 O200 1.262 . S
C207 O208 1.232 . S
O208 C207 1.232 . S
C209 O201 1.260 . S
C209 O202 1.257 . S
Zn210 O213 2.031 . S
Zn210 O215 2.049 . S
Zn210 O220 2.067 . S
Zn211 O212 1.962 . S
Zn211 O214 1.986 . S
Zn211 O216 1.996 . S
Zn211 O219 1.943 . S
O212 Zn211 1.962 . S
O212 C217 1.254 . S
O213 Zn210 2.031 . S
O213 C217 1.269 . S
O214 Zn211 1.986 . S
O214 C221 1.262 . S
O215 Zn210 2.049 . S
O215 C223 1.260 . S
O216 Zn211 1.996 . S
O216 C223 1.257 . S
C217 O212 1.254 . S
C217 O213 1.269 . S
C218 O219 1.249 . S
C218 O220 1.270 . S
O219 Zn211 1.943 . S
O219 C218 1.249 . S
O220 Zn210 2.067 . S
O220 C218 1.270 . S
C221 O214 1.262 . S
C221 O222 1.232 . S
O222 C221 1.232 . S
C223 O215 1.260 . S
C223 O216 1.257 . S
Zn224 O227 2.031 . S
Zn224 O229 2.049 . S
Zn224 O234 2.067 . S
Zn225 O226 1.962 . S
Zn225 O228 1.937 1_545 S
Zn225 O230 1.996 . S
Zn225 O233 1.943 . S
O226 Zn225 1.962 . S
O226 C231 1.254 . S
O227 Zn224 2.031 . S
O227 C231 1.269 . S
O228 Zn225 1.937 1_565 S
O228 C235 1.306 . S
O229 Zn224 2.049 . S
O229 C237 1.260 . S
O230 Zn225 1.996 . S
O230 C237 1.257 . S
C231 O226 1.254 . S
C231 O227 1.269 . S
C232 O233 1.249 . S
C232 O234 1.270 . S
O233 Zn225 1.943 . S
O233 C232 1.249 . S
O234 Zn224 2.067 . S
O234 C232 1.270 . S
C235 O228 1.306 . S
C235 O236 1.232 . S
O236 C235 1.232 . S
C237 O229 1.260 . S
C237 O230 1.257 . S
Zn238 O241 2.031 . S
Zn238 O243 2.049 . S
Zn238 O248 2.067 . S
Zn239 O240 1.962 1_655 S
Zn239 O242 1.986 . S
Zn239 O244 1.996 . S
Zn239 O247 1.943 . S
O240 Zn239 1.962 1_455 S
O240 C245 1.254 . S
O241 Zn238 2.031 . S
O241 C245 1.269 1_655 S
O242 Zn239 1.986 . S
O242 C249 1.262 . S
O243 Zn238 2.049 . S
O243 C251 1.260 . S
O244 Zn239 1.996 . S
O244 C251 1.257 . S
C245 O240 1.254 . S
C245 O241 1.269 1_455 S
C246 O247 1.249 . S
C246 O248 1.270 . S
O247 Zn239 1.943 . S
O247 C246 1.249 . S
O248 Zn238 2.067 . S
O248 C246 1.270 . S
C249 O242 1.262 . S
C249 O250 1.232 . S
O250 C249 1.232 . S
C251 O243 1.260 . S
C251 O244 1.257 . S
H252 C258 0.930 . S
H253 C261 0.931 . S
H254 C263 0.931 . S
H255 C265 0.930 . S
H256 C267 0.930 . S
H257 C269 0.931 . S
C258 H252 0.930 . S
C258 C259 1.380 . S
C258 C260 1.394 . S
C259 C258 1.380 . S
C259 C263 1.382 . S
C260 C258 1.394 . S
C260 C261 1.400 . S
C261 H253 0.931 . S
C261 C260 1.400 . S
C261 C262 1.375 . S
C262 C261 1.375 . S
C262 C263 1.415 . S
C262 C264 1.501 . S
C263 H254 0.931 . S
C263 C259 1.382 . S
C263 C262 1.415 . S
C264 C262 1.501 . S
C264 C265 1.384 . S
C264 C269 1.408 . S
C265 H255 0.930 . S
C265 C264 1.384 . S
C265 C266 1.389 . S
C266 C265 1.389 . S
C266 C267 1.405 . S
C267 H256 0.930 . S
C267 C266 1.405 . S
C267 C268 1.364 . S
C268 C267 1.364 . S
C268 C269 1.400 . S
C269 H257 0.931 . S
C269 C264 1.408 . S
C269 C268 1.400 . S
H270 C276 0.930 . S
H271 C279 0.931 . S
H272 C281 0.931 . S
H273 C283 0.930 . S
H274 C285 0.930 . S
H275 C287 0.931 . S
C276 H270 0.930 . S
C276 C277 1.380 . S
C276 C278 1.394 . S
C277 C276 1.380 . S
C277 C281 1.382 . S
C278 C276 1.394 . S
C278 C279 1.400 . S
C279 H271 0.931 . S
C279 C278 1.400 . S
C279 C280 1.375 . S
C280 C279 1.375 . S
C280 C281 1.415 . S
C280 C282 1.501 . S
C281 H272 0.931 . S
C281 C277 1.382 . S
C281 C280 1.415 . S
C282 C280 1.501 . S
C282 C283 1.384 . S
C282 C287 1.408 . S
C283 H273 0.930 . S
C283 C282 1.384 . S
C283 C284 1.389 . S
C284 C283 1.389 . S
C284 C285 1.405 . S
C285 H274 0.930 . S
C285 C284 1.405 . S
C285 C286 1.364 . S
C286 C285 1.364 . S
C286 C287 1.400 . S
C287 H275 0.931 . S
C287 C282 1.408 . S
C287 C286 1.400 . S
H288 C294 0.930 . S
H289 C297 0.931 . S
H290 C299 0.931 . S
H291 C301 0.930 . S
H292 C303 0.930 . S
H293 C305 0.931 . S
C294 H288 0.930 . S
C294 C295 1.380 . S
C294 C296 1.394 . S
C295 C294 1.380 . S
C295 C299 1.382 . S
C296 C294 1.394 . S
C296 C297 1.400 . S
C297 H289 0.931 . S
C297 C296 1.400 . S
C297 C298 1.375 . S
C298 C297 1.375 . S
C298 C299 1.415 . S
C298 C300 1.501 . S
C299 H290 0.931 . S
C299 C295 1.382 . S
C299 C298 1.415 . S
C300 C298 1.501 . S
C300 C301 1.384 . S
C300 C305 1.408 . S
C301 H291 0.930 . S
C301 C300 1.384 . S
C301 C302 1.389 . S
C302 C301 1.389 . S
C302 C303 1.405 . S
C303 H292 0.930 . S
C303 C302 1.405 . S
C303 C304 1.364 . S
C304 C303 1.364 . S
C304 C305 1.400 . S
C305 H293 0.931 . S
C305 C300 1.408 . S
C305 C304 1.400 . S
H306 C312 0.930 . S
H307 C315 0.931 . S
H308 C317 0.931 . S
H309 C319 0.930 . S
H310 C321 0.930 . S
H311 C323 0.931 . S
C312 H306 0.930 . S
C312 C313 1.380 . S
C312 C314 1.394 . S
C313 C312 1.380 . S
C313 C317 1.382 . S
C314 C312 1.394 . S
C314 C315 1.400 . S
C315 H307 0.931 . S
C315 C314 1.400 . S
C315 C316 1.375 . S
C316 C315 1.375 . S
C316 C317 1.415 . S
C316 C318 1.501 . S
C317 H308 0.931 . S
C317 C313 1.382 . S
C317 C316 1.415 . S
C318 C316 1.501 . S
C318 C319 1.384 . S
C318 C323 1.408 . S
C319 H309 0.930 . S
C319 C318 1.384 . S
C319 C320 1.389 . S
C320 C319 1.389 . S
C320 C321 1.405 . S
C321 H310 0.930 . S
C321 C320 1.405 . S
C321 C322 1.364 . S
C322 C321 1.364 . S
C322 C323 1.400 . S
C323 H311 0.931 . S
C323 C318 1.408 . S
C323 C322 1.400 . S
H324 C330 0.930 . S
H325 C333 0.931 . S
H326 C335 0.931 . S
H327 C337 0.930 . S
H328 C339 0.930 . S
H329 C341 0.931 . S
C330 H324 0.930 . S
C330 C331 1.380 . S
C330 C332 1.394 . S
C331 C330 1.380 . S
C331 C335 1.382 . S
C332 C330 1.394 . S
C332 C333 1.400 . S
C333 H325 0.931 . S
C333 C332 1.400 . S
C333 C334 1.375 . S
C334 C333 1.375 . S
C334 C335 1.415 . S
C334 C336 1.501 . S
C335 H326 0.931 . S
C335 C331 1.382 . S
C335 C334 1.415 . S
C336 C334 1.501 . S
C336 C337 1.384 . S
C336 C341 1.408 . S
C337 H327 0.930 . S
C337 C336 1.384 . S
C337 C338 1.389 . S
C338 C337 1.389 . S
C338 C339 1.405 . S
C339 H328 0.930 . S
C339 C338 1.405 . S
C339 C340 1.364 . S
C340 C339 1.364 . S
C340 C341 1.400 . S
C341 H329 0.931 . S
C341 C336 1.408 . S
C341 C340 1.400 . S
H342 C348 0.930 . S
H343 C351 0.931 . S
H344 C353 0.931 . S
H345 C355 0.930 . S
H346 C357 0.930 . S
H347 C359 0.931 . S
C348 H342 0.930 . S
C348 C349 1.380 . S
C348 C350 1.394 . S
C349 C348 1.380 . S
C349 C353 1.382 . S
C350 C348 1.394 . S
C350 C351 1.400 . S
C351 H343 0.931 . S
C351 C350 1.400 . S
C351 C352 1.375 . S
C352 C351 1.375 . S
C352 C353 1.415 . S
C352 C354 1.501 . S
C353 H344 0.931 . S
C353 C349 1.382 . S
C353 C352 1.415 . S
C354 C352 1.501 . S
C354 C355 1.384 . S
C354 C359 1.408 . S
C355 H345 0.930 . S
C355 C354 1.384 . S
C355 C356 1.389 . S
C356 C355 1.389 . S
C356 C357 1.405 . S
C357 H346 0.930 . S
C357 C356 1.405 . S
C357 C358 1.364 . S
C358 C357 1.364 . S
C358 C359 1.400 . S
C359 H347 0.931 . S
C359 C354 1.408 . S
C359 C358 1.400 . S
H360 C366 0.930 . S
H361 C369 0.931 . S
H362 C371 0.931 . S
H363 C373 0.930 . S
H364 C375 0.930 . S
H365 C377 0.931 . S
C366 H360 0.930 . S
C366 C367 1.380 . S
C366 C368 1.394 . S
C367 C366 1.380 . S
C367 C371 1.382 . S
C368 C366 1.394 . S
C368 C369 1.400 . S
C369 H361 0.931 . S
C369 C368 1.400 . S
C369 C370 1.375 . S
C370 C369 1.375 . S
C370 C371 1.415 . S
C370 C372 1.501 . S
C371 H362 0.931 . S
C371 C367 1.382 . S
C371 C370 1.415 . S
C372 C370 1.501 . S
C372 C373 1.384 . S
C372 C377 1.408 . S
C373 H363 0.930 . S
C373 C372 1.384 . S
C373 C374 1.389 . S
C374 C373 1.389 . S
C374 C375 1.405 . S
C375 H364 0.930 . S
C375 C374 1.405 . S
C375 C376 1.364 . S
C376 C375 1.364 . S
C376 C377 1.400 . S
C377 H365 0.931 . S
C377 C372 1.408 . S
C377 C376 1.400 . S
H378 C384 0.930 . S
H379 C387 0.931 . S
H380 C389 0.931 . S
H381 C391 0.930 . S
H382 C393 0.930 . S
H383 C395 0.931 . S
C384 H378 0.930 . S
C384 C385 1.380 . S
C384 C386 1.394 . S
C385 C384 1.380 . S
C385 C389 1.382 . S
C386 C384 1.394 . S
C386 C387 1.400 . S
C387 H379 0.931 . S
C387 C386 1.400 . S
C387 C388 1.375 . S
C388 C387 1.375 . S
C388 C389 1.415 . S
C388 C390 1.501 . S
C389 H380 0.931 . S
C389 C385 1.382 . S
C389 C388 1.415 . S
C390 C388 1.501 . S
C390 C391 1.384 . S
C390 C395 1.408 . S
C391 H381 0.930 . S
C391 C390 1.384 . S
C391 C392 1.389 . S
C392 C391 1.389 . S
C392 C393 1.405 . S
C393 H382 0.930 . S
C393 C392 1.405 . S
C393 C394 1.364 . S
C394 C393 1.364 . S
C394 C395 1.400 . S
C395 H383 0.931 . S
C395 C390 1.408 . S
C395 C394 1.400 . S
H396 C402 0.930 . S
H397 C405 0.931 . S
H398 C407 0.931 . S
H399 C409 0.930 . S
H400 C411 0.930 . S
H401 C413 0.931 . S
C402 H396 0.930 . S
C402 C403 1.380 . S
C402 C404 1.394 . S
C403 C402 1.380 . S
C403 C407 1.382 . S
C404 C402 1.394 . S
C404 C405 1.400 . S
C405 H397 0.931 . S
C405 C404 1.400 . S
C405 C406 1.375 . S
C406 C405 1.375 . S
C406 C407 1.415 . S
C406 C408 1.501 . S
C407 H398 0.931 . S
C407 C403 1.382 . S
C407 C406 1.415 . S
C408 C406 1.501 . S
C408 C409 1.384 . S
C408 C413 1.408 . S
C409 H399 0.930 . S
C409 C408 1.384 . S
C409 C410 1.389 . S
C410 C409 1.389 . S
C410 C411 1.405 . S
C411 H400 0.930 . S
C411 C410 1.405 . S
C411 C412 1.364 . S
C412 C411 1.364 . S
C412 C413 1.400 . S
C413 H401 0.931 . S
C413 C408 1.408 . S
C413 C412 1.400 . S
H414 C420 0.967 . S
H415 C423 0.931 . S
H416 C425 0.931 . S
H417 C427 0.930 . S
H418 C429 0.896 . S
H419 C431 0.941 . S
C420 H414 0.967 . S
C420 C421 1.378 . S
C420 C422 1.394 1_655 S
C421 C420 1.378 . S
C421 C425 1.382 . S
C422 C420 1.394 1_455 S
C422 C423 1.400 . S
C423 H415 0.931 . S
C423 C422 1.400 . S
C423 C424 1.375 . S
C424 C423 1.375 . S
C424 C425 1.415 1_455 S
C424 C426 1.501 . S
C425 H416 0.931 . S
C425 C421 1.382 . S
C425 C424 1.415 1_655 S
C426 C424 1.501 . S
C426 C427 1.384 . S
C426 C431 1.421 . S
C427 H417 0.930 . S
C427 C426 1.384 . S
C427 C428 1.434 . S
C428 C427 1.434 . S
C428 C429 1.403 . S
C429 H418 0.896 . S
C429 C428 1.403 . S
C429 C430 1.379 . S
C430 C429 1.379 . S
C430 C431 1.388 . S
C431 H419 0.941 . S
C431 C426 1.421 . S
C431 C430 1.388 . S
H432 C438 0.930 . S
H433 C441 0.931 . S
H434 C443 0.931 . S
H435 C445 0.930 . S
H436 C447 0.930 . S
H437 C449 0.931 . S
C438 H432 0.930 . S
C438 C439 1.380 . S
C438 C440 1.394 . S
C439 C438 1.380 . S
C439 C443 1.382 . S
C440 C438 1.394 . S
C440 C441 1.400 . S
C441 H433 0.931 . S
C441 C440 1.400 . S
C441 C442 1.375 . S
C442 C441 1.375 . S
C442 C443 1.415 . S
C442 C444 1.501 . S
C443 H434 0.931 . S
C443 C439 1.382 . S
C443 C442 1.415 . S
C444 C442 1.501 . S
C444 C445 1.384 . S
C444 C449 1.408 . S
C445 H435 0.930 . S
C445 C444 1.384 . S
C445 C446 1.389 . S
C446 C445 1.389 . S
C446 C447 1.405 . S
C447 H436 0.930 . S
C447 C446 1.405 . S
C447 C448 1.364 . S
C448 C447 1.364 . S
C448 C449 1.400 . S
C449 H437 0.931 . S
C449 C444 1.408 . S
C449 C448 1.400 . S
H450 C456 0.973 . S
H451 C459 0.931 . S
H452 C461 0.931 . S
H453 C463 0.930 . S
H454 C465 0.930 . S
H455 C467 0.916 . S
C456 H450 0.973 . S
C456 C457 1.371 . S
C456 C458 1.365 1_545 S
C457 C456 1.371 . S
C457 C461 1.382 . S
C458 C456 1.365 1_565 S
C458 C459 1.400 . S
C459 H451 0.931 . S
C459 C458 1.400 . S
C459 C460 1.375 . S
C460 C459 1.375 . S
C460 C461 1.415 1_565 S
C460 C462 1.501 . S
C461 H452 0.931 . S
C461 C457 1.382 . S
C461 C460 1.415 1_545 S
C462 C460 1.501 . S
C462 C463 1.384 . S
C462 C467 1.393 . S
C463 H453 0.930 . S
C463 C462 1.384 . S
C463 C464 1.389 . S
C464 C463 1.389 . S
C464 C465 1.405 . S
C465 H454 0.930 . S
C465 C464 1.405 . S
C465 C466 1.391 . S
C466 C465 1.391 . S
C466 C467 1.397 . S
C467 H455 0.916 . S
C467 C462 1.393 . S
C467 C466 1.397 . S
H468 C474 0.964 . S
H469 C477 0.931 . S
H470 C479 0.923 . S
H471 C481 0.930 . S
H472 C483 0.945 . S
H473 C485 0.931 . S
C474 H468 0.964 . S
C474 C475 1.376 1_545 S
C474 C476 1.412 1_545 S
C475 C474 1.376 1_565 S
C475 C479 1.401 . S
C476 C474 1.412 1_565 S
C476 C477 1.362 . S
C477 H469 0.931 . S
C477 C476 1.362 . S
C477 C478 1.375 . S
C478 C477 1.375 . S
C478 C479 1.408 . S
C478 C480 1.501 . S
C479 H470 0.923 . S
C479 C475 1.401 . S
C479 C478 1.408 . S
C480 C478 1.501 . S
C480 C481 1.384 . S
C480 C485 1.408 1_565 S
C481 H471 0.930 . S
C481 C480 1.384 . S
C481 C482 1.389 . S
C482 C481 1.389 . S
C482 C483 1.415 . S
C483 H472 0.945 . S
C483 C482 1.415 . S
C483 C484 1.368 1_565 S
C484 C483 1.368 1_545 S
C484 C485 1.400 . S
C485 H473 0.931 . S
C485 C480 1.408 1_545 S
C485 C484 1.400 . S
H486 C492 0.971 . S
H487 C495 0.931 . S
H488 C497 0.934 . S
H489 C499 0.930 . S
H490 C501 0.930 . S
H491 C503 0.931 . S
C492 H486 0.971 . S
C492 C493 1.372 . S
C492 C494 1.370 1_655 S
C493 C492 1.372 . S
C493 C497 1.357 1_655 S
C494 C492 1.370 1_455 S
C494 C495 1.409 . S
C495 H487 0.931 . S
C495 C494 1.409 . S
C495 C496 1.375 . S
C496 C495 1.375 . S
C496 C497 1.418 . S
C496 C498 1.501 . S
C497 H488 0.934 . S
C497 C493 1.357 1_455 S
C497 C496 1.418 . S
C498 C496 1.501 . S
C498 C499 1.384 . S
C498 C503 1.408 1_455 S
C499 H489 0.930 . S
C499 C498 1.384 . S
C499 C500 1.389 . S
C500 C499 1.389 . S
C500 C501 1.405 . S
C501 H490 0.930 . S
C501 C500 1.405 . S
C501 C502 1.364 1_455 S
C502 C501 1.364 1_655 S
C502 C503 1.400 . S
C503 H491 0.931 . S
C503 C498 1.408 1_655 S
C503 C502 1.400 . S
H504 C510 0.930 . S
H505 C513 0.931 . S
H506 C515 0.931 . S
H507 C517 0.930 . S
H508 C519 0.930 . S
H509 C521 0.931 . S
C510 H504 0.930 . S
C510 C511 1.380 . S
C510 C512 1.394 . S
C511 C510 1.380 . S
C511 C515 1.382 . S
C512 C510 1.394 . S
C512 C513 1.400 . S
C513 H505 0.931 . S
C513 C512 1.400 . S
C513 C514 1.375 . S
C514 C513 1.375 . S
C514 C515 1.415 . S
C514 C516 1.501 . S
C515 H506 0.931 . S
C515 C511 1.382 . S
C515 C514 1.415 . S
C516 C514 1.501 . S
C516 C517 1.384 . S
C516 C521 1.408 . S
C517 H507 0.930 . S
C517 C516 1.384 . S
C517 C518 1.389 . S
C518 C517 1.389 . S
C518 C519 1.405 . S
C519 H508 0.930 . S
C519 C518 1.405 . S
C519 C520 1.364 . S
C520 C519 1.364 . S
C520 C521 1.400 . S
C521 H509 0.931 . S
C521 C516 1.408 . S
C521 C520 1.400 . S
H522 C528 0.930 . S
H523 C531 0.931 . S
H524 C533 0.931 . S
H525 C535 0.930 . S
H526 C537 0.930 . S
H527 C539 0.931 . S
C528 H522 0.930 . S
C528 C529 1.380 . S
C528 C530 1.394 . S
C529 C528 1.380 . S
C529 C533 1.382 . S
C530 C528 1.394 . S
C530 C531 1.400 . S
C531 H523 0.931 . S
C531 C530 1.400 . S
C531 C532 1.375 . S
C532 C531 1.375 . S
C532 C533 1.415 . S
C532 C534 1.501 . S
C533 H524 0.931 . S
C533 C529 1.382 . S
C533 C532 1.415 . S
C534 C532 1.501 . S
C534 C535 1.384 . S
C534 C539 1.408 . S
C535 H525 0.930 . S
C535 C534 1.384 . S
C535 C536 1.389 . S
C536 C535 1.389 . S
C536 C537 1.405 . S
C537 H526 0.930 . S
C537 C536 1.405 . S
C537 C538 1.364 . S
C538 C537 1.364 . S
C538 C539 1.400 . S
C539 H527 0.931 . S
C539 C534 1.408 . S
C539 C538 1.400 . S
H540 C546 0.930 . S
H541 C549 0.931 . S
H542 C551 0.931 . S
H543 C553 0.930 . S
H544 C555 0.930 . S
H545 C557 0.931 . S
C546 H540 0.930 . S
C546 C547 1.380 . S
C546 C548 1.394 . S
C547 C546 1.380 . S
C547 C551 1.382 . S
C548 C546 1.394 . S
C548 C549 1.400 . S
C549 H541 0.931 . S
C549 C548 1.400 . S
C549 C550 1.375 . S
C550 C549 1.375 . S
C550 C551 1.415 . S
C550 C552 1.501 . S
C551 H542 0.931 . S
C551 C547 1.382 . S
C551 C550 1.415 . S
C552 C550 1.501 . S
C552 C553 1.384 . S
C552 C557 1.408 . S
C553 H543 0.930 . S
C553 C552 1.384 . S
C553 C554 1.389 . S
C554 C553 1.389 . S
C554 C555 1.405 . S
C555 H544 0.930 . S
C555 C554 1.405 . S
C555 C556 1.364 . S
C556 C555 1.364 . S
C556 C557 1.400 . S
C557 H545 0.931 . S
C557 C552 1.408 . S
C557 C556 1.400 . S
H558 C564 0.930 . S
H559 C567 0.931 . S
H560 C569 0.931 . S
H561 C571 0.930 . S
H562 C573 0.930 . S
H563 C575 0.931 . S
C564 H558 0.930 . S
C564 C565 1.380 . S
C564 C566 1.394 . S
C565 C564 1.380 . S
C565 C569 1.382 . S
C566 C564 1.394 . S
C566 C567 1.400 . S
C567 H559 0.931 . S
C567 C566 1.400 . S
C567 C568 1.375 . S
C568 C567 1.375 . S
C568 C569 1.415 . S
C568 C570 1.501 . S
C569 H560 0.931 . S
C569 C565 1.382 . S
C569 C568 1.415 . S
C570 C568 1.501 . S
C570 C571 1.384 . S
C570 C575 1.408 . S
C571 H561 0.930 . S
C571 C570 1.384 . S
C571 C572 1.389 . S
C572 C571 1.389 . S
C572 C573 1.405 . S
C573 H562 0.930 . S
C573 C572 1.405 . S
C573 C574 1.364 . S
C574 C573 1.364 . S
C574 C575 1.400 . S
C575 H563 0.931 . S
C575 C570 1.408 . S
C575 C574 1.400 . S
H576 C584 0.923 1_455 S
H577 C586 0.929 . S
H578 C588 0.930 . S
H579 C591 0.929 . S
H580 C594 0.930 . S
H581 C596 0.960 . S
H582 C596 0.960 . S
H583 C596 0.960 . S
C584 H576 0.923 1_655 S
C584 C585 1.380 . S
C584 C586 1.386 1_655 S
C585 C584 1.380 . S
C585 C591 1.390 . S
C586 H577 0.929 . S
C586 C584 1.386 1_455 S
C586 C587 1.375 1_455 S
C587 C586 1.375 1_655 S
C587 C588 1.400 . S
C587 C592 1.490 . S
C588 H578 0.930 . S
C588 C587 1.400 . S
C588 C591 1.386 . S
H589 C605 0.930 . S
H590 C606 0.931 . S
C591 H579 0.929 . S
C591 C585 1.390 . S
C591 C588 1.386 . S
C592 C587 1.490 . S
C592 C594 1.395 1_655 S
C592 C595 1.403 . S
H593 C599 0.930 . S
C594 H580 0.930 . S
C594 C592 1.395 1_455 S
C594 C597 1.403 . S
C595 C592 1.403 . S
C595 C596 1.524 . S
C595 C599 1.400 . S
C596 H581 0.960 . S
C596 H582 0.960 . S
C596 H583 0.960 . S
C596 C595 1.524 . S
C597 C594 1.403 . S
C597 C598 1.315 1_455 S
C597 C601 1.495 . S
C598 C597 1.315 1_655 S
C598 C599 1.434 . S
C598 C600 1.486 . S
C599 H593 0.930 . S
C599 C595 1.400 . S
C599 C598 1.434 . S
C600 C598 1.486 . S
C600 C602 1.373 1_655 S
C600 C606 1.420 . S
C601 C597 1.495 . S
C601 H607 0.959 . S
C601 H608 0.961 . S
C601 H609 0.960 . S
C602 C600 1.373 1_455 S
C602 C603 1.408 . S
C602 H610 0.930 . S
C603 C602 1.408 . S
C603 C604 1.366 1_455 S
C603 H611 0.934 . S
C604 C603 1.366 1_655 S
C604 C605 1.377 . S
C605 H589 0.930 . S
C605 C604 1.377 . S
C605 C606 1.379 . S
C606 H590 0.931 . S
C606 C600 1.420 . S
C606 C605 1.379 . S
H607 C601 0.959 . S
H608 C601 0.961 . S
H609 C601 0.960 . S
H610 C602 0.930 . S
H611 C603 0.934 . S
H612 C620 0.929 . S
H613 C622 0.930 . S
H614 C624 0.930 . S
H615 C627 0.929 . S
H616 C630 0.930 . S
H617 C632 0.960 . S
H618 C632 0.960 . S
H619 C632 0.960 . S
C620 H612 0.929 . S
C620 C621 1.377 . S
C620 C622 1.384 . S
C621 C620 1.377 . S
C621 C627 1.390 . S
C622 H613 0.930 . S
C622 C620 1.384 . S
C622 C623 1.372 . S
C623 C622 1.372 . S
C623 C624 1.400 . S
C623 C628 1.490 . S
C624 H614 0.930 . S
C624 C623 1.400 . S
C624 C627 1.386 . S
H625 C641 0.930 . S
H626 C642 0.931 . S
C627 H615 0.929 . S
C627 C621 1.390 . S
C627 C624 1.386 . S
C628 C623 1.490 . S
C628 C630 1.395 . S
C628 C631 1.403 . S
H629 C635 0.930 . S
C630 H616 0.930 . S
C630 C628 1.395 . S
C630 C633 1.403 . S
C631 C628 1.403 . S
C631 C632 1.524 . S
C631 C635 1.400 . S
C632 H617 0.960 . S
C632 H618 0.960 . S
C632 H619 0.960 . S
C632 C631 1.524 . S
C633 C630 1.403 . S
C633 C634 1.392 . S
C633 C637 1.495 . S
C634 C633 1.392 . S
C634 C635 1.385 . S
C634 C636 1.478 . S
C635 H629 0.930 . S
C635 C631 1.400 . S
C635 C634 1.385 . S
C636 C634 1.478 . S
C636 C638 1.381 . S
C636 C642 1.383 . S
C637 C633 1.495 . S
C637 H643 0.959 . S
C637 H644 0.961 . S
C637 H645 0.960 . S
C638 C636 1.381 . S
C638 C639 1.394 . S
C638 H646 0.930 . S
C639 C638 1.394 . S
C639 C640 1.383 . S
C639 H647 0.929 . S
C640 C639 1.383 . S
C640 C641 1.377 . S
C641 H625 0.930 . S
C641 C640 1.377 . S
C641 C642 1.379 . S
C642 H626 0.931 . S
C642 C636 1.383 . S
C642 C641 1.379 . S
H643 C637 0.959 . S
H644 C637 0.961 . S
H645 C637 0.960 . S
H646 C638 0.930 . S
H647 C639 0.929 . S
H648 C656 0.934 . S
H649 C658 0.996 . S
H650 C660 0.930 . S
H651 C663 0.929 . S
H652 C666 0.930 . S
H653 C668 0.960 . S
H654 C668 0.960 . S
H655 C668 0.960 1_545 S
C656 H648 0.934 . S
C656 C657 1.368 1_565 S
C656 C658 1.357 . S
C657 C656 1.368 1_545 S
C657 C663 1.390 . S
C658 H649 0.996 . S
C658 C656 1.357 . S
C658 C659 1.341 1_565 S
C659 C658 1.341 1_545 S
C659 C660 1.400 . S
C659 C664 1.490 . S
C660 H650 0.930 . S
C660 C659 1.400 . S
C660 C663 1.386 . S
H661 C677 0.930 . S
H662 C678 0.931 . S
C663 H651 0.929 . S
C663 C657 1.390 . S
C663 C660 1.386 . S
C664 C659 1.490 . S
C664 C666 1.395 . S
C664 C667 1.403 . S
H665 C671 0.930 1_565 S
C666 H652 0.930 . S
C666 C664 1.395 . S
C666 C669 1.403 . S
C667 C664 1.403 . S
C667 C668 1.524 1_545 S
C667 C671 1.400 . S
C668 H653 0.960 . S
C668 H654 0.960 . S
C668 H655 0.960 1_565 S
C668 C667 1.524 1_565 S
C669 C666 1.403 . S
C669 C670 1.392 . S
C669 C673 1.495 . S
C670 C669 1.392 . S
C670 C671 1.385 . S
C670 C672 1.478 . S
C671 H665 0.930 1_545 S
C671 C667 1.400 . S
C671 C670 1.385 . S
C672 C670 1.478 . S
C672 C674 1.381 1_545 S
C672 C678 1.383 . S
C673 C669 1.495 . S
C673 H679 0.959 . S
C673 H680 0.961 . S
C673 H681 0.960 . S
C674 C672 1.381 1_565 S
C674 C675 1.394 . S
C674 H682 0.930 . S
C675 C674 1.394 . S
C675 C676 1.383 1_565 S
C675 H683 0.929 . S
C676 C675 1.383 1_545 S
C676 C677 1.377 . S
C677 H661 0.930 . S
C677 C676 1.377 . S
C677 C678 1.379 . S
C678 H662 0.931 . S
C678 C672 1.383 . S
C678 C677 1.379 . S
H679 C673 0.959 . S
H680 C673 0.961 . S
H681 C673 0.960 . S
H682 C674 0.930 . S
H683 C675 0.929 . S
H684 C692 0.929 . S
H685 C694 0.930 . S
H686 C696 0.930 . S
H687 C699 0.929 . S
H688 C702 0.930 . S
H689 C704 0.960 . S
H690 C704 0.960 . S
H691 C704 0.960 . S
C692 H684 0.929 . S
C692 C693 1.377 1_545 S
C692 C694 1.384 . S
C693 C692 1.377 1_565 S
C693 C699 1.390 . S
C694 H685 0.930 . S
C694 C692 1.384 . S
C694 C695 1.372 1_545 S
C695 C694 1.372 1_565 S
C695 C696 1.400 . S
C695 C700 1.490 . S
C696 H686 0.930 . S
C696 C695 1.400 . S
C696 C699 1.386 . S
H697 C713 0.930 . S
H698 C714 0.931 . S
C699 H687 0.929 . S
C699 C693 1.390 . S
C699 C696 1.386 . S
C700 C695 1.490 . S
C700 C702 1.395 1_565 S
C700 C703 1.403 . S
H701 C707 0.930 . S
C702 H688 0.930 . S
C702 C700 1.395 1_545 S
C702 C705 1.403 . S
C703 C700 1.403 . S
C703 C704 1.524 . S
C703 C707 1.400 . S
C704 H689 0.960 . S
C704 H690 0.960 . S
C704 H691 0.960 . S
C704 C703 1.524 . S
C705 C702 1.403 . S
C705 C706 1.392 1_545 S
C705 C709 1.495 . S
C706 C705 1.392 1_565 S
C706 C707 1.385 . S
C706 C708 1.478 . S
C707 H701 0.930 . S
C707 C703 1.400 . S
C707 C706 1.385 . S
C708 C706 1.478 . S
C708 C710 1.381 1_565 S
C708 C714 1.383 . S
C709 C705 1.495 . S
C709 H715 0.959 . S
C709 H716 1.000 . S
C709 H717 0.960 . S
C710 C708 1.381 1_545 S
C710 C711 1.394 . S
C710 H718 0.930 . S
C711 C710 1.394 . S
C711 C712 1.383 1_545 S
C711 H719 0.929 . S
C712 C711 1.383 1_565 S
C712 C713 1.377 . S
C713 H697 0.930 . S
C713 C712 1.377 . S
C713 C714 1.379 . S
C714 H698 0.931 . S
C714 C708 1.383 . S
C714 C713 1.379 . S
H715 C709 0.959 . S
H716 C709 1.000 . S
H717 C709 0.960 . S
H718 C710 0.930 . S
H719 C711 0.929 . S
H720 C728 0.929 . S
H721 C730 0.930 . S
H722 C732 0.930 . S
H723 C735 0.929 . S
H724 C738 0.930 . S
H725 C740 0.960 . S
H726 C740 0.960 . S
H727 C740 0.960 . S
C728 H720 0.929 . S
C728 C729 1.377 . S
C728 C730 1.384 . S
C729 C728 1.377 . S
C729 C735 1.390 1_455 S
C730 H721 0.930 . S
C730 C728 1.384 . S
C730 C731 1.372 . S
C731 C730 1.372 . S
C731 C732 1.400 1_455 S
C731 C736 1.490 . S
C732 H722 0.930 . S
C732 C731 1.400 1_655 S
C732 C735 1.386 . S
H733 C749 0.936 . S
H734 C750 0.948 1_655 S
C735 H723 0.929 . S
C735 C729 1.390 1_655 S
C735 C732 1.386 . S
C736 C731 1.490 . S
C736 C738 1.395 . S
C736 C739 1.403 1_455 S
H737 C743 0.930 . S
C738 H724 0.930 . S
C738 C736 1.395 . S
C738 C741 1.403 . S
C739 C736 1.403 1_655 S
C739 C740 1.524 . S
C739 C743 1.400 . S
C740 H725 0.960 . S
C740 H726 0.960 . S
C740 H727 0.960 . S
C740 C739 1.524 . S
C741 C738 1.403 . S
C741 C742 1.392 . S
C741 C745 1.495 . S
C742 C741 1.392 . S
C742 C743 1.385 1_455 S
C742 C744 1.478 . S
C743 H737 0.930 . S
C743 C739 1.400 . S
C743 C742 1.385 1_655 S
C744 C742 1.478 . S
C744 C746 1.381 . S
C744 C750 1.412 . S
C745 C741 1.495 . S
C745 H751 0.959 . S
C745 H752 0.961 . S
C745 H753 0.960 . S
C746 C744 1.381 . S
C746 C747 1.394 . S
C746 H754 0.930 . S
C747 C746 1.394 . S
C747 C748 1.383 . S
C747 H755 0.929 . S
C748 C747 1.383 . S
C748 C749 1.380 1_455 S
C749 H733 0.936 . S
C749 C748 1.380 1_655 S
C749 C750 1.333 1_655 S
C750 H734 0.948 1_455 S
C750 C744 1.412 . S
C750 C749 1.333 1_455 S
H751 C745 0.959 . S
H752 C745 0.961 . S
H753 C745 0.960 . S
H754 C746 0.930 . S
H755 C747 0.929 . S
H756 C764 0.929 . S
H757 C766 0.930 . S
H758 C768 0.930 . S
H759 C771 0.929 . S
H760 C774 0.930 . S
H761 C776 0.960 . S
H762 C776 0.960 . S
H763 C776 0.960 . S
C764 H756 0.929 . S
C764 C765 1.377 . S
C764 C766 1.384 . S
C765 C764 1.377 . S
C765 C771 1.390 . S
C766 H757 0.930 . S
C766 C764 1.384 . S
C766 C767 1.372 . S
C767 C766 1.372 . S
C767 C768 1.400 . S
C767 C772 1.490 . S
C768 H758 0.930 . S
C768 C767 1.400 . S
C768 C771 1.386 . S
H769 C785 0.930 . S
H770 C786 0.931 . S
C771 H759 0.929 . S
C771 C765 1.390 . S
C771 C768 1.386 . S
C772 C767 1.490 . S
C772 C774 1.395 . S
C772 C775 1.403 . S
H773 C779 0.930 . S
C774 H760 0.930 . S
C774 C772 1.395 . S
C774 C777 1.403 . S
C775 C772 1.403 . S
C775 C776 1.524 . S
C775 C779 1.400 . S
C776 H761 0.960 . S
C776 H762 0.960 . S
C776 H763 0.960 . S
C776 C775 1.524 . S
C777 C774 1.403 . S
C777 C778 1.392 . S
C777 C781 1.495 . S
C778 C777 1.392 . S
C778 C779 1.385 . S
C778 C780 1.478 . S
C779 H773 0.930 . S
C779 C775 1.400 . S
C779 C778 1.385 . S
C780 C778 1.478 . S
C780 C782 1.381 . S
C780 C786 1.383 . S
C781 C777 1.495 . S
C781 H787 0.959 . S
C781 H788 0.961 . S
C781 H789 0.960 . S
C782 C780 1.381 . S
C782 C783 1.394 . S
C782 H790 0.930 . S
C783 C782 1.394 . S
C783 C784 1.383 . S
C783 H791 0.929 . S
C784 C783 1.383 . S
C784 C785 1.377 . S
C785 H769 0.930 . S
C785 C784 1.377 . S
C785 C786 1.379 . S
C786 H770 0.931 . S
C786 C780 1.383 . S
C786 C785 1.379 . S
H787 C781 0.959 . S
H788 C781 0.961 . S
H789 C781 0.960 . S
H790 C782 0.930 . S
H791 C783 0.929 . S
H792 C800 0.929 . S
H793 C802 0.930 . S
H794 C804 0.930 . S
H795 C807 0.929 . S
H796 C810 0.930 . S
H797 C812 0.960 . S
H798 C812 0.960 1_455 S
H799 C812 0.960 . S
C800 H792 0.929 . S
C800 C801 1.377 . S
C800 C802 1.384 . S
C801 C800 1.377 . S
C801 C807 1.390 1_455 S
C802 H793 0.930 . S
C802 C800 1.384 . S
C802 C803 1.372 . S
C803 C802 1.372 . S
C803 C804 1.400 1_455 S
C803 C808 1.490 . S
C804 H794 0.930 . S
C804 C803 1.400 1_655 S
C804 C807 1.386 . S
H805 C821 0.930 . S
H806 C822 0.931 . S
C807 H795 0.929 . S
C807 C801 1.390 1_655 S
C807 C804 1.386 . S
C808 C803 1.490 . S
C808 C810 1.395 . S
C808 C811 1.403 1_455 S
H809 C815 0.930 . S
C810 H796 0.930 . S
C810 C808 1.395 . S
C810 C813 1.403 . S
C811 C808 1.403 1_655 S
C811 C812 1.524 . S
C811 C815 1.400 . S
C812 H797 0.960 . S
C812 H798 0.960 1_655 S
C812 H799 0.960 . S
C812 C811 1.524 . S
C813 C810 1.403 . S
C813 C814 1.392 . S
C813 C817 1.495 . S
C814 C813 1.392 . S
C814 C815 1.385 1_455 S
C814 C816 1.478 . S
C815 H809 0.930 . S
C815 C811 1.400 . S
C815 C814 1.385 1_655 S
C816 C814 1.478 . S
C816 C818 1.381 . S
C816 C822 1.383 1_455 S
C817 C813 1.495 . S
C817 H823 0.959 . S
C817 H824 0.961 . S
C817 H825 0.960 . S
C818 C816 1.381 . S
C818 C819 1.394 . S
C818 H826 0.930 . S
C819 C818 1.394 . S
C819 C820 1.398 . S
C819 H827 0.929 . S
C820 C819 1.398 . S
C820 C821 1.354 1_455 S
C821 H805 0.930 . S
C821 C820 1.354 1_655 S
C821 C822 1.379 . S
C822 H806 0.931 . S
C822 C816 1.383 1_655 S
C822 C821 1.379 . S
H823 C817 0.959 . S
H824 C817 0.961 . S
H825 C817 0.960 . S
H826 C818 0.930 . S
H827 C819 0.929 . S
H828 C836 0.929 . S
H829 C838 0.930 . S
H830 C840 0.930 . S
H831 C843 0.929 . S
H832 C846 0.930 . S
H833 C848 0.960 . S
H834 C848 0.960 . S
H835 C848 0.960 . S
C836 H828 0.929 . S
C836 C837 1.377 . S
C836 C838 1.384 . S
C837 C836 1.377 . S
C837 C843 1.390 . S
C838 H829 0.930 . S
C838 C836 1.384 . S
C838 C839 1.372 . S
C839 C838 1.372 . S
C839 C840 1.400 . S
C839 C844 1.490 . S
C840 H830 0.930 . S
C840 C839 1.400 . S
C840 C843 1.386 . S
H841 C857 0.930 . S
H842 C858 0.931 . S
C843 H831 0.929 . S
C843 C837 1.390 . S
C843 C840 1.386 . S
C844 C839 1.490 . S
C844 C846 1.395 . S
C844 C847 1.403 . S
H845 C851 0.930 . S
C846 H832 0.930 . S
C846 C844 1.395 . S
C846 C849 1.403 . S
C847 C844 1.403 . S
C847 C848 1.524 . S
C847 C851 1.400 . S
C848 H833 0.960 . S
C848 H834 0.960 . S
C848 H835 0.960 . S
C848 C847 1.524 . S
C849 C846 1.403 . S
C849 C850 1.392 . S
C849 C853 1.495 . S
C850 C849 1.392 . S
C850 C851 1.385 . S
C850 C852 1.478 . S
C851 H845 0.930 . S
C851 C847 1.400 . S
C851 C850 1.385 . S
C852 C850 1.478 . S
C852 C854 1.381 . S
C852 C858 1.383 . S
C853 C849 1.495 . S
C853 H859 0.959 . S
C853 H860 0.961 . S
C853 H861 0.960 . S
C854 C852 1.381 . S
C854 C855 1.394 . S
C854 H862 0.930 . S
C855 C854 1.394 . S
C855 C856 1.383 . S
C855 H863 0.929 . S
C856 C855 1.383 . S
C856 C857 1.377 . S
C857 H841 0.930 . S
C857 C856 1.377 . S
C857 C858 1.379 . S
C858 H842 0.931 . S
C858 C852 1.383 . S
C858 C857 1.379 . S
H859 C853 0.959 . S
H860 C853 0.961 . S
H861 C853 0.960 . S
H862 C854 0.930 . S
H863 C855 0.929 . S
H864 C872 0.929 . S
H865 C874 0.930 . S
H866 C876 0.930 . S
H867 C879 0.929 . S
H868 C882 0.930 . S
H869 C884 0.960 . S
H870 C884 0.960 . S
H871 C884 0.960 . S
C872 H864 0.929 . S
C872 C873 1.377 . S
C872 C874 1.384 . S
C873 C872 1.377 . S
C873 C879 1.390 1_565 S
C874 H865 0.930 . S
C874 C872 1.384 . S
C874 C875 1.372 . S
C875 C874 1.372 . S
C875 C876 1.400 1_565 S
C875 C880 1.490 . S
C876 H866 0.930 . S
C876 C875 1.400 1_545 S
C876 C879 1.386 . S
H877 C893 0.930 . S
H878 C894 0.931 . S
C879 H867 0.929 . S
C879 C873 1.390 1_545 S
C879 C876 1.386 . S
C880 C875 1.490 . S
C880 C882 1.395 . S
C880 C883 1.403 1_565 S
H881 C887 0.930 . S
C882 H868 0.930 . S
C882 C880 1.395 . S
C882 C885 1.403 . S
C883 C880 1.403 1_545 S
C883 C884 1.524 . S
C883 C887 1.400 . S
C884 H869 0.960 . S
C884 H870 0.960 . S
C884 H871 0.960 . S
C884 C883 1.524 . S
C885 C882 1.403 . S
C885 C886 1.392 . S
C885 C889 1.495 . S
C886 C885 1.392 . S
C886 C887 1.385 1_565 S
C886 C888 1.478 . S
C887 H881 0.930 . S
C887 C883 1.400 . S
C887 C886 1.385 1_545 S
C888 C886 1.478 . S
C888 C890 1.381 . S
C888 C894 1.383 1_565 S
C889 C885 1.495 . S
C889 H895 0.959 . S
C889 H896 0.961 . S
C889 H897 0.960 . S
C890 C888 1.381 . S
C890 C891 1.394 . S
C890 H898 0.930 . S
C891 C890 1.394 . S
C891 C892 1.383 . S
C891 H899 0.929 . S
C892 C891 1.383 . S
C892 C893 1.377 1_565 S
C893 H877 0.930 . S
C893 C892 1.377 1_545 S
C893 C894 1.379 . S
C894 H878 0.931 . S
C894 C888 1.383 1_545 S
C894 C893 1.379 . S
H895 C889 0.959 . S
H896 C889 0.961 . S
H897 C889 0.960 . S
H898 C890 0.930 . S
H899 C891 0.929 . S
H900 C908 0.929 . S
H901 C910 0.930 . S
H902 C912 0.930 . S
H903 C915 0.929 . S
H904 C918 0.930 . S
H905 C920 0.960 . S
H906 C920 0.960 . S
H907 C920 0.960 . S
C908 H900 0.929 . S
C908 C909 1.377 1_565 S
C908 C910 1.384 . S
C909 C908 1.377 1_545 S
C909 C915 1.390 . S
C910 H901 0.930 . S
C910 C908 1.384 . S
C910 C911 1.372 1_565 S
C911 C910 1.372 1_545 S
C911 C912 1.400 . S
C911 C916 1.490 . S
C912 H902 0.930 . S
C912 C911 1.400 . S
C912 C915 1.386 . S
H913 C929 0.930 . S
H914 C930 0.931 . S
C915 H903 0.929 . S
C915 C909 1.390 . S
C915 C912 1.386 . S
C916 C911 1.490 . S
C916 C918 1.395 1_545 S
C916 C919 1.403 . S
H917 C923 0.930 . S
C918 H904 0.930 . S
C918 C916 1.395 1_565 S
C918 C921 1.403 . S
C919 C916 1.403 . S
C919 C920 1.524 . S
C919 C923 1.400 . S
C920 H905 0.960 . S
C920 H906 0.960 . S
C920 H907 0.960 . S
C920 C919 1.524 . S
C921 C918 1.403 . S
C921 C922 1.446 . S
C921 C925 1.495 . S
C922 C921 1.446 . S
C922 C923 1.352 1_565 S
C922 C924 1.457 . S
C923 H917 0.930 . S
C923 C919 1.400 . S
C923 C922 1.352 1_545 S
C924 C922 1.457 . S
C924 C926 1.381 . S
C924 C930 1.383 1_565 S
C925 C921 1.495 . S
C925 H931 0.959 . S
C925 H932 0.961 . S
C925 H933 0.960 . S
C926 C924 1.381 . S
C926 C927 1.394 . S
C926 H934 0.930 . S
C927 C926 1.394 . S
C927 C928 1.383 . S
C927 H935 0.929 . S
C928 C927 1.383 . S
C928 C929 1.377 1_565 S
C929 H913 0.930 . S
C929 C928 1.377 1_545 S
C929 C930 1.379 . S
C930 H914 0.931 . S
C930 C924 1.383 1_545 S
C930 C929 1.379 . S
H931 C925 0.959 . S
H932 C925 0.961 . S
H933 C925 0.960 . S
H934 C926 0.930 . S
H935 C927 0.929 . S
H936 C944 0.929 . S
H937 C946 0.930 . S
H938 C948 0.930 . S
H939 C951 0.929 . S
H940 C954 0.930 . S
H941 C956 0.960 . S
H942 C956 0.960 . S
H943 C956 0.960 . S
C944 H936 0.929 . S
C944 C945 1.377 . S
C944 C946 1.384 . S
C945 C944 1.377 . S
C945 C951 1.390 1_655 S
C946 H937 0.930 . S
C946 C944 1.384 . S
C946 C947 1.372 . S
C947 C946 1.372 . S
C947 C948 1.400 1_655 S
C947 C952 1.490 . S
C948 H938 0.930 . S
C948 C947 1.400 1_455 S
C948 C951 1.386 . S
H949 C965 0.930 . S
H950 C966 0.931 . S
C951 H939 0.929 . S
C951 C945 1.390 1_455 S
C951 C948 1.386 . S
C952 C947 1.490 . S
C952 C954 1.395 . S
C952 C955 1.403 1_655 S
H953 C959 0.930 . S
C954 H940 0.930 . S
C954 C952 1.395 . S
C954 C957 1.403 . S
C955 C952 1.403 1_455 S
C955 C956 1.524 . S
C955 C959 1.400 . S
C956 H941 0.960 . S
C956 H942 0.960 . S
C956 H943 0.960 . S
C956 C955 1.524 . S
C957 C954 1.403 . S
C957 C958 1.392 . S
C957 C961 1.495 . S
C958 C957 1.392 . S
C958 C959 1.385 1_655 S
C958 C960 1.478 . S
C959 H953 0.930 . S
C959 C955 1.400 . S
C959 C958 1.385 1_455 S
C960 C958 1.478 . S
C960 C962 1.381 . S
C960 C966 1.383 1_655 S
C961 C957 1.495 . S
C961 H967 0.959 . S
C961 H968 0.961 . S
C961 H969 0.960 . S
C962 C960 1.381 . S
C962 C963 1.394 . S
C962 H970 0.930 . S
C963 C962 1.394 . S
C963 C964 1.434 . S
C963 H971 0.929 . S
C964 C963 1.434 . S
C964 C965 1.350 1_655 S
C965 H949 0.930 . S
C965 C964 1.350 1_455 S
C965 C966 1.379 . S
C966 H950 0.931 . S
C966 C960 1.383 1_455 S
C966 C965 1.379 . S
H967 C961 0.959 . S
H968 C961 0.961 . S
H969 C961 0.960 . S
H970 C962 0.930 . S
H971 C963 0.929 . S
H972 C980 0.929 . S
H973 C982 0.930 . S
H974 C984 0.930 . S
H975 C987 0.929 . S
H976 C990 0.930 . S
H977 C992 0.960 . S
H978 C992 0.960 . S
H979 C992 0.960 . S
C980 H972 0.929 . S
C980 C981 1.377 . S
C980 C982 1.384 . S
C981 C980 1.377 . S
C981 C987 1.390 . S
C982 H973 0.930 . S
C982 C980 1.384 . S
C982 C983 1.372 . S
C983 C982 1.372 . S
C983 C984 1.400 . S
C983 C988 1.490 . S
C984 H974 0.930 . S
C984 C983 1.400 . S
C984 C987 1.386 . S
H985 C1001 0.930 . S
H986 C1002 0.931 . S
C987 H975 0.929 . S
C987 C981 1.390 . S
C987 C984 1.386 . S
C988 C983 1.490 . S
C988 C990 1.395 . S
C988 C991 1.403 . S
H989 C995 0.930 . S
C990 H976 0.930 . S
C990 C988 1.395 . S
C990 C993 1.403 . S
C991 C988 1.403 . S
C991 C992 1.524 . S
C991 C995 1.400 . S
C992 H977 0.960 . S
C992 H978 0.960 . S
C992 H979 0.960 . S
C992 C991 1.524 . S
C993 C990 1.403 . S
C993 C994 1.392 . S
C993 C997 1.495 . S
C994 C993 1.392 . S
C994 C995 1.385 . S
C994 C996 1.478 . S
C995 H989 0.930 . S
C995 C991 1.400 . S
C995 C994 1.385 . S
C996 C994 1.478 . S
C996 C998 1.381 . S
C996 C1002 1.383 . S
C997 C993 1.495 . S
C997 H1003 0.959 . S
C997 H1004 0.961 . S
C997 H1005 0.960 . S
C998 C996 1.381 . S
C998 C999 1.394 . S
C998 H1006 0.930 . S
C999 C998 1.394 . S
C999 C1000 1.383 . S
C999 H1007 0.929 . S
C1000 C999 1.383 . S
C1000 C1001 1.377 . S
C1001 H985 0.930 . S
C1001 C1000 1.377 . S
C1001 C1002 1.379 . S
C1002 H986 0.931 . S
C1002 C996 1.383 . S
C1002 C1001 1.379 . S
H1003 C997 0.959 . S
H1004 C997 0.961 . S
H1005 C997 0.960 . S
H1006 C998 0.930 . S
H1007 C999 0.929 . S
H1008 C1016 0.929 . S
H1009 C1018 0.930 . S
H1010 C1020 0.930 . S
H1011 C1023 0.929 . S
H1012 C1026 0.930 . S
H1013 C1028 0.960 . S
H1014 C1028 0.960 . S
H1015 C1028 0.960 . S
C1016 H1008 0.929 . S
C1016 C1017 1.377 . S
C1016 C1018 1.384 . S
C1017 C1016 1.377 . S
C1017 C1023 1.390 . S
C1018 H1009 0.930 . S
C1018 C1016 1.384 . S
C1018 C1019 1.372 . S
C1019 C1018 1.372 . S
C1019 C1020 1.400 . S
C1019 C1024 1.490 . S
C1020 H1010 0.930 . S
C1020 C1019 1.400 . S
C1020 C1023 1.386 . S
H1021 C1037 0.930 . S
H1022 C1038 0.931 . S
C1023 H1011 0.929 . S
C1023 C1017 1.390 . S
C1023 C1020 1.386 . S
C1024 C1019 1.490 . S
C1024 C1026 1.395 . S
C1024 C1027 1.403 . S
H1025 C1031 0.930 . S
C1026 H1012 0.930 . S
C1026 C1024 1.395 . S
C1026 C1029 1.403 . S
C1027 C1024 1.403 . S
C1027 C1028 1.524 . S
C1027 C1031 1.400 . S
C1028 H1013 0.960 . S
C1028 H1014 0.960 . S
C1028 H1015 0.960 . S
C1028 C1027 1.524 . S
C1029 C1026 1.403 . S
C1029 C1030 1.392 . S
C1029 C1033 1.495 . S
C1030 C1029 1.392 . S
C1030 C1031 1.385 . S
C1030 C1032 1.478 . S
C1031 H1025 0.930 . S
C1031 C1027 1.400 . S
C1031 C1030 1.385 . S
C1032 C1030 1.478 . S
C1032 C1034 1.381 . S
C1032 C1038 1.383 . S
C1033 C1029 1.495 . S
C1033 H1039 0.959 . S
C1033 H1040 0.961 . S
C1033 H1041 0.960 . S
C1034 C1032 1.381 . S
C1034 C1035 1.394 . S
C1034 H1042 0.930 . S
C1035 C1034 1.394 . S
C1035 C1036 1.383 . S
C1035 H1043 0.929 . S
C1036 C1035 1.383 . S
C1036 C1037 1.377 . S
C1037 H1021 0.930 . S
C1037 C1036 1.377 . S
C1037 C1038 1.379 . S
C1038 H1022 0.931 . S
C1038 C1032 1.383 . S
C1038 C1037 1.379 . S
H1039 C1033 0.959 . S
H1040 C1033 0.961 . S
H1041 C1033 0.960 . S
H1042 C1034 0.930 . S
H1043 C1035 0.929 . S
H1044 C1052 0.929 . S
H1045 C1054 0.930 . S
H1046 C1056 0.930 . S
H1047 C1059 0.929 . S
H1048 C1062 0.930 . S
H1049 C1064 0.960 . S
H1050 C1064 0.960 . S
H1051 C1064 0.960 . S
C1052 H1044 0.929 . S
C1052 C1053 1.377 . S
C1052 C1054 1.384 . S
C1053 C1052 1.377 . S
C1053 C1059 1.390 . S
C1054 H1045 0.930 . S
C1054 C1052 1.384 . S
C1054 C1055 1.372 . S
C1055 C1054 1.372 . S
C1055 C1056 1.400 . S
C1055 C1060 1.490 . S
C1056 H1046 0.930 . S
C1056 C1055 1.400 . S
C1056 C1059 1.386 . S
H1057 C1073 0.930 . S
H1058 C1074 0.931 . S
C1059 H1047 0.929 . S
C1059 C1053 1.390 . S
C1059 C1056 1.386 . S
C1060 C1055 1.490 . S
C1060 C1062 1.395 . S
C1060 C1063 1.403 . S
H1061 C1067 0.930 . S
C1062 H1048 0.930 . S
C1062 C1060 1.395 . S
C1062 C1065 1.403 . S
C1063 C1060 1.403 . S
C1063 C1064 1.524 . S
C1063 C1067 1.400 . S
C1064 H1049 0.960 . S
C1064 H1050 0.960 . S
C1064 H1051 0.960 . S
C1064 C1063 1.524 . S
C1065 C1062 1.403 . S
C1065 C1066 1.392 . S
C1065 C1069 1.495 . S
C1066 C1065 1.392 . S
C1066 C1067 1.385 . S
C1066 C1068 1.478 . S
C1067 H1061 0.930 . S
C1067 C1063 1.400 . S
C1067 C1066 1.385 . S
C1068 C1066 1.478 . S
C1068 C1070 1.381 . S
C1068 C1074 1.383 . S
C1069 C1065 1.495 . S
C1069 H1075 0.959 . S
C1069 H1076 0.961 . S
C1069 H1077 0.960 . S
C1070 C1068 1.381 . S
C1070 C1071 1.394 . S
C1070 H1078 0.930 . S
C1071 C1070 1.394 . S
C1071 C1072 1.383 . S
C1071 H1079 0.929 . S
C1072 C1071 1.383 . S
C1072 C1073 1.377 . S
C1073 H1057 0.930 . S
C1073 C1072 1.377 . S
C1073 C1074 1.379 . S
C1074 H1058 0.931 . S
C1074 C1068 1.383 . S
C1074 C1073 1.379 . S
H1075 C1069 0.959 . S
H1076 C1069 0.961 . S
H1077 C1069 0.960 . S
H1078 C1070 0.930 . S
H1079 C1071 0.929 . S
H1080 C1088 0.929 . S
H1081 C1090 0.930 . S
H1082 C1092 0.930 . S
H1083 C1095 0.929 . S
H1084 C1098 0.930 . S
H1085 C1100 0.960 . S
H1086 C1100 0.960 . S
H1087 C1100 0.960 . S
C1088 H1080 0.929 . S
C1088 C1089 1.377 . S
C1088 C1090 1.384 . S
C1089 C1088 1.377 . S
C1089 C1095 1.390 . S
C1090 H1081 0.930 . S
C1090 C1088 1.384 . S
C1090 C1091 1.372 . S
C1091 C1090 1.372 . S
C1091 C1092 1.400 . S
C1091 C1096 1.490 . S
C1092 H1082 0.930 . S
C1092 C1091 1.400 . S
C1092 C1095 1.386 . S
H1093 C1109 0.930 . S
H1094 C1110 0.931 . S
C1095 H1083 0.929 . S
C1095 C1089 1.390 . S
C1095 C1092 1.386 . S
C1096 C1091 1.490 . S
C1096 C1098 1.395 . S
C1096 C1099 1.403 . S
H1097 C1103 0.930 . S
C1098 H1084 0.930 . S
C1098 C1096 1.395 . S
C1098 C1101 1.403 . S
C1099 C1096 1.403 . S
C1099 C1100 1.524 . S
C1099 C1103 1.400 . S
C1100 H1085 0.960 . S
C1100 H1086 0.960 . S
C1100 H1087 0.960 . S
C1100 C1099 1.524 . S
C1101 C1098 1.403 . S
C1101 C1102 1.392 . S
C1101 C1105 1.495 . S
C1102 C1101 1.392 . S
C1102 C1103 1.385 . S
C1102 C1104 1.478 . S
C1103 H1097 0.930 . S
C1103 C1099 1.400 . S
C1103 C1102 1.385 . S
C1104 C1102 1.478 . S
C1104 C1106 1.381 . S
C1104 C1110 1.383 . S
C1105 C1101 1.495 . S
C1105 H1111 0.959 . S
C1105 H1112 0.961 . S
C1105 H1113 0.960 . S
C1106 C1104 1.381 . S
C1106 C1107 1.394 . S
C1106 H1114 0.930 . S
C1107 C1106 1.394 . S
C1107 C1108 1.383 . S
C1107 H1115 0.929 . S
C1108 C1107 1.383 . S
C1108 C1109 1.377 . S
C1109 H1093 0.930 . S
C1109 C1108 1.377 . S
C1109 C1110 1.379 . S
C1110 H1094 0.931 . S
C1110 C1104 1.383 . S
C1110 C1109 1.379 . S
H1111 C1105 0.959 . S
H1112 C1105 0.961 . S
H1113 C1105 0.960 . S
H1114 C1106 0.930 . S
H1115 C1107 0.929 . S
H1116 C1124 0.929 . S
H1117 C1126 0.930 . S
H1118 C1128 0.930 . S
H1119 C1131 0.929 . S
H1120 C1134 0.930 . S
H1121 C1136 0.960 . S
H1122 C1136 0.960 . S
H1123 C1136 0.960 . S
C1124 H1116 0.929 . S
C1124 C1125 1.377 . S
C1124 C1126 1.384 . S
C1125 C1124 1.377 . S
C1125 C1131 1.390 . S
C1126 H1117 0.930 . S
C1126 C1124 1.384 . S
C1126 C1127 1.372 . S
C1127 C1126 1.372 . S
C1127 C1128 1.400 . S
C1127 C1132 1.490 . S
C1128 H1118 0.930 . S
C1128 C1127 1.400 . S
C1128 C1131 1.386 . S
H1129 C1145 0.930 . S
H1130 C1146 0.931 . S
C1131 H1119 0.929 . S
C1131 C1125 1.390 . S
C1131 C1128 1.386 . S
C1132 C1127 1.490 . S
C1132 C1134 1.395 . S
C1132 C1135 1.403 . S
H1133 C1139 0.930 . S
C1134 H1120 0.930 . S
C1134 C1132 1.395 . S
C1134 C1137 1.403 . S
C1135 C1132 1.403 . S
C1135 C1136 1.524 . S
C1135 C1139 1.400 . S
C1136 H1121 0.960 . S
C1136 H1122 0.960 . S
C1136 H1123 0.960 . S
C1136 C1135 1.524 . S
C1137 C1134 1.403 . S
C1137 C1138 1.392 . S
C1137 C1141 1.495 . S
C1138 C1137 1.392 . S
C1138 C1139 1.385 . S
C1138 C1140 1.478 . S
C1139 H1133 0.930 . S
C1139 C1135 1.400 . S
C1139 C1138 1.385 . S
C1140 C1138 1.478 . S
C1140 C1142 1.381 . S
C1140 C1146 1.383 . S
C1141 C1137 1.495 . S
C1141 H1147 0.959 . S
C1141 H1148 0.961 . S
C1141 H1149 0.960 . S
C1142 C1140 1.381 . S
C1142 C1143 1.394 . S
C1142 H1150 0.930 . S
C1143 C1142 1.394 . S
C1143 C1144 1.383 . S
C1143 H1151 0.929 . S
C1144 C1143 1.383 . S
C1144 C1145 1.377 . S
C1145 H1129 0.930 . S
C1145 C1144 1.377 . S
C1145 C1146 1.379 . S
C1146 H1130 0.931 . S
C1146 C1140 1.383 . S
C1146 C1145 1.379 . S
H1147 C1141 0.959 . S
H1148 C1141 0.961 . S
H1149 C1141 0.960 . S
H1150 C1142 0.930 . S
H1151 C1143 0.929 . S
H1152 C1160 0.929 . S
H1153 C1162 0.930 . S
H1154 C1164 0.930 . S
H1155 C1167 0.929 . S
H1156 C1170 0.930 . S
H1157 C1172 0.960 . S
H1158 C1172 0.960 . S
H1159 C1172 0.960 . S
C1160 H1152 0.929 . S
C1160 C1161 1.377 . S
C1160 C1162 1.384 . S
C1161 C1160 1.377 . S
C1161 C1167 1.390 . S
C1162 H1153 0.930 . S
C1162 C1160 1.384 . S
C1162 C1163 1.372 . S
C1163 C1162 1.372 . S
C1163 C1164 1.400 . S
C1163 C1168 1.490 . S
C1164 H1154 0.930 . S
C1164 C1163 1.400 . S
C1164 C1167 1.386 . S
H1165 C1181 0.930 . S
H1166 C1182 0.931 . S
C1167 H1155 0.929 . S
C1167 C1161 1.390 . S
C1167 C1164 1.386 . S
C1168 C1163 1.490 . S
C1168 C1170 1.395 . S
C1168 C1171 1.403 . S
H1169 C1175 0.930 . S
C1170 H1156 0.930 . S
C1170 C1168 1.395 . S
C1170 C1173 1.403 . S
C1171 C1168 1.403 . S
C1171 C1172 1.524 . S
C1171 C1175 1.400 . S
C1172 H1157 0.960 . S
C1172 H1158 0.960 . S
C1172 H1159 0.960 . S
C1172 C1171 1.524 . S
C1173 C1170 1.403 . S
C1173 C1174 1.392 . S
C1173 C1177 1.495 . S
C1174 C1173 1.392 . S
C1174 C1175 1.385 . S
C1174 C1176 1.478 . S
C1175 H1169 0.930 . S
C1175 C1171 1.400 . S
C1175 C1174 1.385 . S
C1176 C1174 1.478 . S
C1176 C1178 1.381 . S
C1176 C1182 1.383 . S
C1177 C1173 1.495 . S
C1177 H1183 0.959 . S
C1177 H1184 0.961 . S
C1177 H1185 0.960 . S
C1178 C1176 1.381 . S
C1178 C1179 1.394 . S
C1178 H1186 0.930 . S
C1179 C1178 1.394 . S
C1179 C1180 1.383 . S
C1179 H1187 0.929 . S
C1180 C1179 1.383 . S
C1180 C1181 1.377 . S
C1181 H1165 0.930 . S
C1181 C1180 1.377 . S
C1181 C1182 1.379 . S
C1182 H1166 0.931 . S
C1182 C1176 1.383 . S
C1182 C1181 1.379 . S
H1183 C1177 0.959 . S
H1184 C1177 0.961 . S
H1185 C1177 0.960 . S
H1186 C1178 0.930 . S
H1187 C1179 0.929 . S
H1188 C1196 0.929 . S
H1189 C1198 0.930 . S
H1190 C1200 0.930 . S
H1191 C1203 0.929 . S
H1192 C1206 0.930 . S
H1193 C1208 0.960 . S
H1194 C1208 0.960 . S
H1195 C1208 0.960 . S
C1196 H1188 0.929 . S
C1196 C1197 1.377 . S
C1196 C1198 1.384 . S
C1197 C1196 1.377 . S
C1197 C1203 1.390 . S
C1198 H1189 0.930 . S
C1198 C1196 1.384 . S
C1198 C1199 1.372 . S
C1199 C1198 1.372 . S
C1199 C1200 1.400 . S
C1199 C1204 1.490 . S
C1200 H1190 0.930 . S
C1200 C1199 1.400 . S
C1200 C1203 1.386 . S
H1201 C1217 0.930 . S
H1202 C1218 0.931 . S
C1203 H1191 0.929 . S
C1203 C1197 1.390 . S
C1203 C1200 1.386 . S
C1204 C1199 1.490 . S
C1204 C1206 1.395 . S
C1204 C1207 1.403 . S
H1205 C1211 0.930 . S
C1206 H1192 0.930 . S
C1206 C1204 1.395 . S
C1206 C1209 1.403 . S
C1207 C1204 1.403 . S
C1207 C1208 1.524 . S
C1207 C1211 1.400 . S
C1208 H1193 0.960 . S
C1208 H1194 0.960 . S
C1208 H1195 0.960 . S
C1208 C1207 1.524 . S
C1209 C1206 1.403 . S
C1209 C1210 1.392 . S
C1209 C1213 1.495 . S
C1210 C1209 1.392 . S
C1210 C1211 1.385 . S
C1210 C1212 1.478 . S
C1211 H1205 0.930 . S
C1211 C1207 1.400 . S
C1211 C1210 1.385 . S
C1212 C1210 1.478 . S
C1212 C1214 1.381 . S
C1212 C1218 1.383 . S
C1213 C1209 1.495 . S
C1213 H1219 0.959 . S
C1213 H1220 0.961 . S
C1213 H1221 0.960 . S
C1214 C1212 1.381 . S
C1214 C1215 1.394 . S
C1214 H1222 0.930 . S
C1215 C1214 1.394 . S
C1215 C1216 1.383 . S
C1215 H1223 0.929 . S
C1216 C1215 1.383 . S
C1216 C1217 1.377 . S
C1217 H1201 0.930 . S
C1217 C1216 1.377 . S
C1217 C1218 1.379 . S
C1218 H1202 0.931 . S
C1218 C1212 1.383 . S
C1218 C1217 1.379 . S
H1219 C1213 0.959 . S
H1220 C1213 0.961 . S
H1221 C1213 0.960 . S
H1222 C1214 0.930 . S
H1223 C1215 0.929 . S
H1224 C1232 0.929 . S
H1225 C1234 0.930 . S
H1226 C1236 0.930 . S
H1227 C1239 0.929 . S
H1228 C1242 0.930 . S
H1229 C1244 0.960 . S
H1230 C1244 0.960 . S
H1231 C1244 0.960 . S
C1232 H1224 0.929 . S
C1232 C1233 1.377 . S
C1232 C1234 1.384 . S
C1233 C1232 1.377 . S
C1233 C1239 1.390 . S
C1234 H1225 0.930 . S
C1234 C1232 1.384 . S
C1234 C1235 1.372 . S
C1235 C1234 1.372 . S
C1235 C1236 1.400 . S
C1235 C1240 1.490 . S
C1236 H1226 0.930 . S
C1236 C1235 1.400 . S
C1236 C1239 1.386 . S
H1237 C1253 0.930 . S
H1238 C1254 0.931 . S
C1239 H1227 0.929 . S
C1239 C1233 1.390 . S
C1239 C1236 1.386 . S
C1240 C1235 1.490 . S
C1240 C1242 1.395 . S
C1240 C1243 1.403 . S
H1241 C1247 0.930 . S
C1242 H1228 0.930 . S
C1242 C1240 1.395 . S
C1242 C1245 1.403 . S
C1243 C1240 1.403 . S
C1243 C1244 1.524 . S
C1243 C1247 1.400 . S
C1244 H1229 0.960 . S
C1244 H1230 0.960 . S
C1244 H1231 0.960 . S
C1244 C1243 1.524 . S
C1245 C1242 1.403 . S
C1245 C1246 1.392 . S
C1245 C1249 1.495 . S
C1246 C1245 1.392 . S
C1246 C1247 1.385 . S
C1246 C1248 1.478 . S
C1247 H1241 0.930 . S
C1247 C1243 1.400 . S
C1247 C1246 1.385 . S
C1248 C1246 1.478 . S
C1248 C1250 1.381 . S
C1248 C1254 1.383 . S
C1249 C1245 1.495 . S
C1249 H1255 0.959 . S
C1249 H1256 0.961 . S
C1249 H1257 0.960 . S
C1250 C1248 1.381 . S
C1250 C1251 1.394 . S
C1250 H1258 0.930 . S
C1251 C1250 1.394 . S
C1251 C1252 1.383 . S
C1251 H1259 0.929 . S
C1252 C1251 1.383 . S
C1252 C1253 1.377 . S
C1253 H1237 0.930 . S
C1253 C1252 1.377 . S
C1253 C1254 1.379 . S
C1254 H1238 0.931 . S
C1254 C1248 1.383 . S
C1254 C1253 1.379 . S
H1255 C1249 0.959 . S
H1256 C1249 0.961 . S
H1257 C1249 0.960 . S
H1258 C1250 0.930 . S
H1259 C1251 0.929 . S
H1260 C1268 0.929 . S
H1261 C1270 0.930 . S
H1262 C1272 0.930 . S
H1263 C1275 0.929 . S
H1264 C1278 0.930 . S
H1265 C1280 0.960 . S
H1266 C1280 0.960 . S
H1267 C1280 0.960 . S
C1268 H1260 0.929 . S
C1268 C1269 1.377 . S
C1268 C1270 1.384 . S
C1269 C1268 1.377 . S
C1269 C1275 1.390 . S
C1270 H1261 0.930 . S
C1270 C1268 1.384 . S
C1270 C1271 1.372 . S
C1271 C1270 1.372 . S
C1271 C1272 1.400 . S
C1271 C1276 1.490 . S
C1272 H1262 0.930 . S
C1272 C1271 1.400 . S
C1272 C1275 1.386 . S
H1273 C1289 0.930 . S
H1274 C1290 0.931 . S
C1275 H1263 0.929 . S
C1275 C1269 1.390 . S
C1275 C1272 1.386 . S
C1276 C1271 1.490 . S
C1276 C1278 1.395 . S
C1276 C1279 1.403 . S
H1277 C1283 0.930 . S
C1278 H1264 0.930 . S
C1278 C1276 1.395 . S
C1278 C1281 1.403 . S
C1279 C1276 1.403 . S
C1279 C1280 1.524 . S
C1279 C1283 1.400 . S
C1280 H1265 0.960 . S
C1280 H1266 0.960 . S
C1280 H1267 0.960 . S
C1280 C1279 1.524 . S
C1281 C1278 1.403 . S
C1281 C1282 1.392 . S
C1281 C1285 1.495 . S
C1282 C1281 1.392 . S
C1282 C1283 1.385 . S
C1282 C1284 1.478 . S
C1283 H1277 0.930 . S
C1283 C1279 1.400 . S
C1283 C1282 1.385 . S
C1284 C1282 1.478 . S
C1284 C1286 1.381 . S
C1284 C1290 1.383 . S
C1285 C1281 1.495 . S
C1285 H1291 0.959 . S
C1285 H1292 0.961 . S
C1285 H1293 0.960 . S
C1286 C1284 1.381 . S
C1286 C1287 1.394 . S
C1286 H1294 0.930 . S
C1287 C1286 1.394 . S
C1287 C1288 1.383 . S
C1287 H1295 0.929 . S
C1288 C1287 1.383 . S
C1288 C1289 1.377 . S
C1289 H1273 0.930 . S
C1289 C1288 1.377 . S
C1289 C1290 1.379 . S
C1290 H1274 0.931 . S
C1290 C1284 1.383 . S
C1290 C1289 1.379 . S
H1291 C1285 0.959 . S
H1292 C1285 0.961 . S
H1293 C1285 0.960 . S
H1294 C1286 0.930 . S
H1295 C1287 0.929 . S
H1296 C1304 0.929 . S
H1297 C1306 0.930 . S
H1298 C1308 0.930 . S
H1299 C1311 0.929 . S
H1300 C1314 0.930 . S
H1301 C1316 0.960 . S
H1302 C1316 0.960 . S
H1303 C1316 0.960 . S
C1304 H1296 0.929 . S
C1304 C1305 1.377 . S
C1304 C1306 1.384 . S
C1305 C1304 1.377 . S
C1305 C1311 1.390 . S
C1306 H1297 0.930 . S
C1306 C1304 1.384 . S
C1306 C1307 1.372 . S
C1307 C1306 1.372 . S
C1307 C1308 1.400 . S
C1307 C1312 1.490 . S
C1308 H1298 0.930 . S
C1308 C1307 1.400 . S
C1308 C1311 1.386 . S
H1309 C1325 0.930 . S
H1310 C1326 0.931 . S
C1311 H1299 0.929 . S
C1311 C1305 1.390 . S
C1311 C1308 1.386 . S
C1312 C1307 1.490 . S
C1312 C1314 1.395 . S
C1312 C1315 1.403 . S
H1313 C1319 0.930 . S
C1314 H1300 0.930 . S
C1314 C1312 1.395 . S
C1314 C1317 1.403 . S
C1315 C1312 1.403 . S
C1315 C1316 1.524 . S
C1315 C1319 1.400 . S
C1316 H1301 0.960 . S
C1316 H1302 0.960 . S
C1316 H1303 0.960 . S
C1316 C1315 1.524 . S
C1317 C1314 1.403 . S
C1317 C1318 1.392 . S
C1317 C1321 1.495 . S
C1318 C1317 1.392 . S
C1318 C1319 1.385 . S
C1318 C1320 1.478 . S
C1319 H1313 0.930 . S
C1319 C1315 1.400 . S
C1319 C1318 1.385 . S
C1320 C1318 1.478 . S
C1320 C1322 1.381 . S
C1320 C1326 1.383 . S
C1321 C1317 1.495 . S
C1321 H1327 0.959 . S
C1321 H1328 0.961 . S
C1321 H1329 0.960 . S
C1322 C1320 1.381 . S
C1322 C1323 1.394 . S
C1322 H1330 0.930 . S
C1323 C1322 1.394 . S
C1323 C1324 1.383 . S
C1323 H1331 0.929 . S
C1324 C1323 1.383 . S
C1324 C1325 1.377 . S
C1325 H1309 0.930 . S
C1325 C1324 1.377 . S
C1325 C1326 1.379 . S
C1326 H1310 0.931 . S
C1326 C1320 1.383 . S
C1326 C1325 1.379 . S
H1327 C1321 0.959 . S
H1328 C1321 0.961 . S
H1329 C1321 0.960 . S
H1330 C1322 0.930 . S
H1331 C1323 0.929 . S
H1332 C1340 0.929 . S
H1333 C1342 0.930 . S
H1334 C1344 0.930 . S
H1335 C1347 0.929 . S
H1336 C1350 0.930 . S
H1337 C1352 0.960 . S
H1338 C1352 0.960 . S
H1339 C1352 0.960 . S
C1340 H1332 0.929 . S
C1340 C1341 1.377 . S
C1340 C1342 1.384 . S
C1341 C1340 1.377 . S
C1341 C1347 1.390 . S
C1342 H1333 0.930 . S
C1342 C1340 1.384 . S
C1342 C1343 1.372 . S
C1343 C1342 1.372 . S
C1343 C1344 1.400 . S
C1343 C1348 1.490 . S
C1344 H1334 0.930 . S
C1344 C1343 1.400 . S
C1344 C1347 1.386 . S
H1345 C1361 0.930 . S
H1346 C1362 0.931 . S
C1347 H1335 0.929 . S
C1347 C1341 1.390 . S
C1347 C1344 1.386 . S
C1348 C1343 1.490 . S
C1348 C1350 1.395 . S
C1348 C1351 1.403 . S
H1349 C1355 0.930 . S
C1350 H1336 0.930 . S
C1350 C1348 1.395 . S
C1350 C1353 1.403 . S
C1351 C1348 1.403 . S
C1351 C1352 1.524 . S
C1351 C1355 1.400 . S
C1352 H1337 0.960 . S
C1352 H1338 0.960 . S
C1352 H1339 0.960 . S
C1352 C1351 1.524 . S
C1353 C1350 1.403 . S
C1353 C1354 1.392 . S
C1353 C1357 1.495 . S
C1354 C1353 1.392 . S
C1354 C1355 1.385 . S
C1354 C1356 1.478 . S
C1355 H1349 0.930 . S
C1355 C1351 1.400 . S
C1355 C1354 1.385 . S
C1356 C1354 1.478 . S
C1356 C1358 1.381 . S
C1356 C1362 1.383 . S
C1357 C1353 1.495 . S
C1357 H1363 0.959 . S
C1357 H1364 0.961 . S
C1357 H1365 0.960 . S
C1358 C1356 1.381 . S
C1358 C1359 1.394 . S
C1358 H1366 0.930 . S
C1359 C1358 1.394 . S
C1359 C1360 1.383 . S
C1359 H1367 0.929 . S
C1360 C1359 1.383 . S
C1360 C1361 1.377 . S
C1361 H1345 0.930 . S
C1361 C1360 1.377 . S
C1361 C1362 1.379 . S
C1362 H1346 0.931 . S
C1362 C1356 1.383 . S
C1362 C1361 1.379 . S
H1363 C1357 0.959 . S
H1364 C1357 0.961 . S
H1365 C1357 0.960 . S
H1366 C1358 0.930 . S
H1367 C1359 0.929 . S
H1368 C1376 0.929 . S
H1369 C1378 0.930 . S
H1370 C1380 0.930 . S
H1371 C1383 0.929 . S
H1372 C1386 0.930 . S
H1373 C1388 0.960 . S
H1374 C1388 0.960 . S
H1375 C1388 0.960 . S
C1376 H1368 0.929 . S
C1376 C1377 1.377 . S
C1376 C1378 1.384 . S
C1377 C1376 1.377 . S
C1377 C1383 1.390 . S
C1378 H1369 0.930 . S
C1378 C1376 1.384 . S
C1378 C1379 1.372 . S
C1379 C1378 1.372 . S
C1379 C1380 1.400 . S
C1379 C1384 1.490 . S
C1380 H1370 0.930 . S
C1380 C1379 1.400 . S
C1380 C1383 1.386 . S
H1381 C1397 0.930 . S
H1382 C1398 0.931 . S
C1383 H1371 0.929 . S
C1383 C1377 1.390 . S
C1383 C1380 1.386 . S
C1384 C1379 1.490 . S
C1384 C1386 1.395 . S
C1384 C1387 1.403 . S
H1385 C1391 0.930 . S
C1386 H1372 0.930 . S
C1386 C1384 1.395 . S
C1386 C1389 1.403 . S
C1387 C1384 1.403 . S
C1387 C1388 1.524 . S
C1387 C1391 1.400 . S
C1388 H1373 0.960 . S
C1388 H1374 0.960 . S
C1388 H1375 0.960 . S
C1388 C1387 1.524 . S
C1389 C1386 1.403 . S
C1389 C1390 1.392 . S
C1389 C1393 1.495 . S
C1390 C1389 1.392 . S
C1390 C1391 1.385 . S
C1390 C1392 1.478 . S
C1391 H1385 0.930 . S
C1391 C1387 1.400 . S
C1391 C1390 1.385 . S
C1392 C1390 1.478 . S
C1392 C1394 1.381 . S
C1392 C1398 1.383 . S
C1393 C1389 1.495 . S
C1393 H1399 0.959 . S
C1393 H1400 0.961 . S
C1393 H1401 0.960 . S
C1394 C1392 1.381 . S
C1394 C1395 1.394 . S
C1394 H1402 0.930 . S
C1395 C1394 1.394 . S
C1395 C1396 1.383 . S
C1395 H1403 0.929 . S
C1396 C1395 1.383 . S
C1396 C1397 1.377 . S
C1397 H1381 0.930 . S
C1397 C1396 1.377 . S
C1397 C1398 1.379 . S
C1398 H1382 0.931 . S
C1398 C1392 1.383 . S
C1398 C1397 1.379 . S
H1399 C1393 0.959 . S
H1400 C1393 0.961 . S
H1401 C1393 0.960 . S
H1402 C1394 0.930 . S
H1403 C1395 0.929 . S
H1404 C1412 0.929 . S
H1405 C1414 0.930 . S
H1406 C1416 0.930 . S
H1407 C1419 0.929 . S
H1408 C1422 0.930 . S
H1409 C1424 0.960 . S
H1410 C1424 0.960 . S
H1411 C1424 0.960 . S
C1412 H1404 0.929 . S
C1412 C1413 1.377 . S
C1412 C1414 1.384 . S
C1413 C1412 1.377 . S
C1413 C1419 1.390 . S
C1414 H1405 0.930 . S
C1414 C1412 1.384 . S
C1414 C1415 1.372 . S
C1415 C1414 1.372 . S
C1415 C1416 1.400 . S
C1415 C1420 1.490 . S
C1416 H1406 0.930 . S
C1416 C1415 1.400 . S
C1416 C1419 1.386 . S
H1417 C1433 0.930 . S
H1418 C1434 0.931 . S
C1419 H1407 0.929 . S
C1419 C1413 1.390 . S
C1419 C1416 1.386 . S
C1420 C1415 1.490 . S
C1420 C1422 1.395 . S
C1420 C1423 1.403 . S
H1421 C1427 0.930 . S
C1422 H1408 0.930 . S
C1422 C1420 1.395 . S
C1422 C1425 1.403 . S
C1423 C1420 1.403 . S
C1423 C1424 1.524 . S
C1423 C1427 1.400 . S
C1424 H1409 0.960 . S
C1424 H1410 0.960 . S
C1424 H1411 0.960 . S
C1424 C1423 1.524 . S
C1425 C1422 1.403 . S
C1425 C1426 1.392 . S
C1425 C1429 1.495 . S
C1426 C1425 1.392 . S
C1426 C1427 1.385 . S
C1426 C1428 1.478 . S
C1427 H1421 0.930 . S
C1427 C1423 1.400 . S
C1427 C1426 1.385 . S
C1428 C1426 1.478 . S
C1428 C1430 1.381 . S
C1428 C1434 1.383 . S
C1429 C1425 1.495 . S
C1429 H1435 0.959 . S
C1429 H1436 0.961 . S
C1429 H1437 0.960 . S
C1430 C1428 1.381 . S
C1430 C1431 1.394 . S
C1430 H1438 0.930 . S
C1431 C1430 1.394 . S
C1431 C1432 1.383 . S
C1431 H1439 0.929 . S
C1432 C1431 1.383 . S
C1432 C1433 1.377 . S
C1433 H1417 0.930 . S
C1433 C1432 1.377 . S
C1433 C1434 1.379 . S
C1434 H1418 0.931 . S
C1434 C1428 1.383 . S
C1434 C1433 1.379 . S
H1435 C1429 0.959 . S
H1436 C1429 0.961 . S
H1437 C1429 0.960 . S
H1438 C1430 0.930 . S
H1439 C1431 0.929 . S
H1440 C1448 0.929 . S
H1441 C1450 0.930 . S
H1442 C1452 0.930 . S
H1443 C1455 0.929 . S
H1444 C1458 0.930 . S
H1445 C1460 0.960 . S
H1446 C1460 0.960 . S
H1447 C1460 0.960 . S
C1448 H1440 0.929 . S
C1448 C1449 1.377 . S
C1448 C1450 1.384 . S
C1449 C1448 1.377 . S
C1449 C1455 1.390 . S
C1450 H1441 0.930 . S
C1450 C1448 1.384 . S
C1450 C1451 1.372 . S
C1451 C1450 1.372 . S
C1451 C1452 1.400 . S
C1451 C1456 1.490 . S
C1452 H1442 0.930 . S
C1452 C1451 1.400 . S
C1452 C1455 1.386 . S
H1453 C1469 0.930 . S
H1454 C1470 0.931 . S
C1455 H1443 0.929 . S
C1455 C1449 1.390 . S
C1455 C1452 1.386 . S
C1456 C1451 1.490 . S
C1456 C1458 1.395 . S
C1456 C1459 1.403 . S
H1457 C1463 0.930 . S
C1458 H1444 0.930 . S
C1458 C1456 1.395 . S
C1458 C1461 1.403 . S
C1459 C1456 1.403 . S
C1459 C1460 1.524 . S
C1459 C1463 1.400 . S
C1460 H1445 0.960 . S
C1460 H1446 0.960 . S
C1460 H1447 0.960 . S
C1460 C1459 1.524 . S
C1461 C1458 1.403 . S
C1461 C1462 1.392 . S
C1461 C1465 1.495 . S
C1462 C1461 1.392 . S
C1462 C1463 1.385 . S
C1462 C1464 1.478 . S
C1463 H1457 0.930 . S
C1463 C1459 1.400 . S
C1463 C1462 1.385 . S
C1464 C1462 1.478 . S
C1464 C1466 1.381 . S
C1464 C1470 1.383 . S
C1465 C1461 1.495 . S
C1465 H1471 0.959 . S
C1465 H1472 0.961 . S
C1465 H1473 0.960 . S
C1466 C1464 1.381 . S
C1466 C1467 1.394 . S
C1466 H1474 0.930 . S
C1467 C1466 1.394 . S
C1467 C1468 1.383 . S
C1467 H1475 0.929 . S
C1468 C1467 1.383 . S
C1468 C1469 1.377 . S
C1469 H1453 0.930 . S
C1469 C1468 1.377 . S
C1469 C1470 1.379 . S
C1470 H1454 0.931 . S
C1470 C1464 1.383 . S
C1470 C1469 1.379 . S
H1471 C1465 0.959 . S
H1472 C1465 0.961 . S
H1473 C1465 0.960 . S
H1474 C1466 0.930 . S
H1475 C1467 0.929 . S
H1476 C1484 0.929 . S
H1477 C1486 0.930 . S
H1478 C1488 0.930 . S
H1479 C1491 0.929 . S
H1480 C1494 0.930 . S
H1481 C1496 0.960 . S
H1482 C1496 0.960 . S
H1483 C1496 0.960 . S
C1484 H1476 0.929 . S
C1484 C1485 1.377 . S
C1484 C1486 1.384 . S
C1485 C1484 1.377 . S
C1485 C1491 1.390 . S
C1486 H1477 0.930 . S
C1486 C1484 1.384 . S
C1486 C1487 1.372 . S
C1487 C1486 1.372 . S
C1487 C1488 1.400 . S
C1487 C1492 1.490 . S
C1488 H1478 0.930 . S
C1488 C1487 1.400 . S
C1488 C1491 1.386 . S
H1489 C1505 0.930 . S
H1490 C1506 0.931 . S
C1491 H1479 0.929 . S
C1491 C1485 1.390 . S
C1491 C1488 1.386 . S
C1492 C1487 1.490 . S
C1492 C1494 1.395 . S
C1492 C1495 1.403 . S
H1493 C1499 0.930 . S
C1494 H1480 0.930 . S
C1494 C1492 1.395 . S
C1494 C1497 1.403 . S
C1495 C1492 1.403 . S
C1495 C1496 1.524 . S
C1495 C1499 1.400 . S
C1496 H1481 0.960 . S
C1496 H1482 0.960 . S
C1496 H1483 0.960 . S
C1496 C1495 1.524 . S
C1497 C1494 1.403 . S
C1497 C1498 1.392 . S
C1497 C1501 1.495 . S
C1498 C1497 1.392 . S
C1498 C1499 1.385 . S
C1498 C1500 1.478 . S
C1499 H1493 0.930 . S
C1499 C1495 1.400 . S
C1499 C1498 1.385 . S
C1500 C1498 1.478 . S
C1500 C1502 1.381 . S
C1500 C1506 1.383 . S
C1501 C1497 1.495 . S
C1501 H1507 0.959 . S
C1501 H1508 0.961 . S
C1501 H1509 0.960 . S
C1502 C1500 1.381 . S
C1502 C1503 1.394 . S
C1502 H1510 0.930 . S
C1503 C1502 1.394 . S
C1503 C1504 1.383 . S
C1503 H1511 0.929 . S
C1504 C1503 1.383 . S
C1504 C1505 1.377 . S
C1505 H1489 0.930 . S
C1505 C1504 1.377 . S
C1505 C1506 1.379 . S
C1506 H1490 0.931 . S
C1506 C1500 1.383 . S
C1506 C1505 1.379 . S
H1507 C1501 0.959 . S
H1508 C1501 0.961 . S
H1509 C1501 0.960 . S
H1510 C1502 0.930 . S
H1511 C1503 0.929 . S
H1512 C1520 0.929 . S
H1513 C1522 0.930 . S
H1514 C1524 0.930 . S
H1515 C1527 0.929 . S
H1516 C1530 0.930 . S
H1517 C1532 0.960 . S
H1518 C1532 0.960 . S
H1519 C1532 0.960 . S
C1520 H1512 0.929 . S
C1520 C1521 1.377 . S
C1520 C1522 1.384 . S
C1521 C1520 1.377 . S
C1521 C1527 1.390 . S
C1522 H1513 0.930 . S
C1522 C1520 1.384 . S
C1522 C1523 1.372 . S
C1523 C1522 1.372 . S
C1523 C1524 1.400 . S
C1523 C1528 1.490 . S
C1524 H1514 0.930 . S
C1524 C1523 1.400 . S
C1524 C1527 1.386 . S
H1525 C1541 0.930 . S
H1526 C1542 0.931 . S
C1527 H1515 0.929 . S
C1527 C1521 1.390 . S
C1527 C1524 1.386 . S
C1528 C1523 1.490 . S
C1528 C1530 1.395 . S
C1528 C1531 1.403 . S
H1529 C1535 0.930 . S
C1530 H1516 0.930 . S
C1530 C1528 1.395 . S
C1530 C1533 1.403 . S
C1531 C1528 1.403 . S
C1531 C1532 1.524 . S
C1531 C1535 1.400 . S
C1532 H1517 0.960 . S
C1532 H1518 0.960 . S
C1532 H1519 0.960 . S
C1532 C1531 1.524 . S
C1533 C1530 1.403 . S
C1533 C1534 1.392 . S
C1533 C1537 1.495 . S
C1534 C1533 1.392 . S
C1534 C1535 1.385 . S
C1534 C1536 1.478 . S
C1535 H1529 0.930 . S
C1535 C1531 1.400 . S
C1535 C1534 1.385 . S
C1536 C1534 1.478 . S
C1536 C1538 1.381 . S
C1536 C1542 1.383 . S
C1537 C1533 1.495 . S
C1537 H1543 0.959 . S
C1537 H1544 0.961 . S
C1537 H1545 0.960 . S
C1538 C1536 1.381 . S
C1538 C1539 1.394 . S
C1538 H1546 0.930 . S
C1539 C1538 1.394 . S
C1539 C1540 1.383 . S
C1539 H1547 0.929 . S
C1540 C1539 1.383 . S
C1540 C1541 1.377 . S
C1541 H1525 0.930 . S
C1541 C1540 1.377 . S
C1541 C1542 1.379 . S
C1542 H1526 0.931 . S
C1542 C1536 1.383 . S
C1542 C1541 1.379 . S
H1543 C1537 0.959 . S
H1544 C1537 0.961 . S
H1545 C1537 0.960 . S
H1546 C1538 0.930 . S
H1547 C1539 0.929 . S
H1548 C1556 0.929 . S
H1549 C1558 0.930 . S
H1550 C1560 0.930 . S
H1551 C1563 0.929 . S
H1552 C1566 0.930 . S
H1553 C1568 0.960 . S
H1554 C1568 0.960 . S
H1555 C1568 0.960 . S
C1556 H1548 0.929 . S
C1556 C1557 1.377 . S
C1556 C1558 1.384 . S
C1557 C1556 1.377 . S
C1557 C1563 1.390 . S
C1558 H1549 0.930 . S
C1558 C1556 1.384 . S
C1558 C1559 1.372 . S
C1559 C1558 1.372 . S
C1559 C1560 1.400 . S
C1559 C1564 1.490 . S
C1560 H1550 0.930 . S
C1560 C1559 1.400 . S
C1560 C1563 1.386 . S
H1561 C1577 0.930 . S
H1562 C1578 0.931 . S
C1563 H1551 0.929 . S
C1563 C1557 1.390 . S
C1563 C1560 1.386 . S
C1564 C1559 1.490 . S
C1564 C1566 1.395 . S
C1564 C1567 1.403 . S
H1565 C1571 0.930 . S
C1566 H1552 0.930 . S
C1566 C1564 1.395 . S
C1566 C1569 1.403 . S
C1567 C1564 1.403 . S
C1567 C1568 1.524 . S
C1567 C1571 1.400 . S
C1568 H1553 0.960 . S
C1568 H1554 0.960 . S
C1568 H1555 0.960 . S
C1568 C1567 1.524 . S
C1569 C1566 1.403 . S
C1569 C1570 1.392 . S
C1569 C1573 1.495 . S
C1570 C1569 1.392 . S
C1570 C1571 1.385 . S
C1570 C1572 1.478 . S
C1571 H1565 0.930 . S
C1571 C1567 1.400 . S
C1571 C1570 1.385 . S
C1572 C1570 1.478 . S
C1572 C1574 1.381 . S
C1572 C1578 1.383 . S
C1573 C1569 1.495 . S
C1573 H1579 0.959 . S
C1573 H1580 0.961 . S
C1573 H1581 0.960 . S
C1574 C1572 1.381 . S
C1574 C1575 1.394 . S
C1574 H1582 0.930 . S
C1575 C1574 1.394 . S
C1575 C1576 1.383 . S
C1575 H1583 0.929 . S
C1576 C1575 1.383 . S
C1576 C1577 1.377 . S
C1577 H1561 0.930 . S
C1577 C1576 1.377 . S
C1577 C1578 1.379 . S
C1578 H1562 0.931 . S
C1578 C1572 1.383 . S
C1578 C1577 1.379 . S
H1579 C1573 0.959 . S
H1580 C1573 0.961 . S
H1581 C1573 0.960 . S
H1582 C1574 0.930 . S
H1583 C1575 0.929 . S
H1584 C1592 0.929 . S
H1585 C1594 0.930 . S
H1586 C1596 0.930 . S
H1587 C1599 0.929 . S
H1588 C1602 0.930 . S
H1589 C1604 0.960 . S
H1590 C1604 0.960 . S
H1591 C1604 0.960 . S
C1592 H1584 0.929 . S
C1592 C1593 1.377 . S
C1592 C1594 1.384 . S
C1593 C1592 1.377 . S
C1593 C1599 1.390 . S
C1594 H1585 0.930 . S
C1594 C1592 1.384 . S
C1594 C1595 1.372 . S
C1595 C1594 1.372 . S
C1595 C1596 1.400 . S
C1595 C1600 1.490 . S
C1596 H1586 0.930 . S
C1596 C1595 1.400 . S
C1596 C1599 1.386 . S
H1597 C1613 0.930 . S
H1598 C1614 0.931 . S
C1599 H1587 0.929 . S
C1599 C1593 1.390 . S
C1599 C1596 1.386 . S
C1600 C1595 1.490 . S
C1600 C1602 1.395 . S
C1600 C1603 1.403 . S
H1601 C1607 0.930 . S
C1602 H1588 0.930 . S
C1602 C1600 1.395 . S
C1602 C1605 1.403 . S
C1603 C1600 1.403 . S
C1603 C1604 1.524 . S
C1603 C1607 1.400 . S
C1604 H1589 0.960 . S
C1604 H1590 0.960 . S
C1604 H1591 0.960 . S
C1604 C1603 1.524 . S
C1605 C1602 1.403 . S
C1605 C1606 1.392 . S
C1605 C1609 1.495 . S
C1606 C1605 1.392 . S
C1606 C1607 1.385 . S
C1606 C1608 1.478 . S
C1607 H1601 0.930 . S
C1607 C1603 1.400 . S
C1607 C1606 1.385 . S
C1608 C1606 1.478 . S
C1608 C1610 1.381 . S
C1608 C1614 1.383 . S
C1609 C1605 1.495 . S
C1609 H1615 0.959 . S
C1609 H1616 0.961 . S
C1609 H1617 0.960 . S
C1610 C1608 1.381 . S
C1610 C1611 1.394 . S
C1610 H1618 0.930 . S
C1611 C1610 1.394 . S
C1611 C1612 1.383 . S
C1611 H1619 0.929 . S
C1612 C1611 1.383 . S
C1612 C1613 1.377 . S
C1613 H1597 0.930 . S
C1613 C1612 1.377 . S
C1613 C1614 1.379 . S
C1614 H1598 0.931 . S
C1614 C1608 1.383 . S
C1614 C1613 1.379 . S
H1615 C1609 0.959 . S
H1616 C1609 0.961 . S
H1617 C1609 0.960 . S
H1618 C1610 0.930 . S
H1619 C1611 0.929 . S
H1620 C1628 0.929 . S
H1621 C1630 0.930 . S
H1622 C1632 0.930 . S
H1623 C1635 0.929 . S
H1624 C1638 0.930 . S
H1625 C1640 0.960 . S
H1626 C1640 0.960 . S
H1627 C1640 0.960 . S
C1628 H1620 0.929 . S
C1628 C1629 1.377 . S
C1628 C1630 1.384 . S
C1629 C1628 1.377 . S
C1629 C1635 1.390 . S
C1630 H1621 0.930 . S
C1630 C1628 1.384 . S
C1630 C1631 1.372 . S
C1631 C1630 1.372 . S
C1631 C1632 1.400 . S
C1631 C1636 1.490 . S
C1632 H1622 0.930 . S
C1632 C1631 1.400 . S
C1632 C1635 1.386 . S
H1633 C1649 0.930 . S
H1634 C1650 0.931 . S
C1635 H1623 0.929 . S
C1635 C1629 1.390 . S
C1635 C1632 1.386 . S
C1636 C1631 1.490 . S
C1636 C1638 1.395 . S
C1636 C1639 1.403 . S
H1637 C1643 0.930 . S
C1638 H1624 0.930 . S
C1638 C1636 1.395 . S
C1638 C1641 1.403 . S
C1639 C1636 1.403 . S
C1639 C1640 1.524 . S
C1639 C1643 1.400 . S
C1640 H1625 0.960 . S
C1640 H1626 0.960 . S
C1640 H1627 0.960 . S
C1640 C1639 1.524 . S
C1641 C1638 1.403 . S
C1641 C1642 1.392 . S
C1641 C1645 1.495 . S
C1642 C1641 1.392 . S
C1642 C1643 1.385 . S
C1642 C1644 1.478 . S
C1643 H1637 0.930 . S
C1643 C1639 1.400 . S
C1643 C1642 1.385 . S
C1644 C1642 1.478 . S
C1644 C1646 1.381 . S
C1644 C1650 1.383 . S
C1645 C1641 1.495 . S
C1645 H1651 0.959 . S
C1645 H1652 0.961 . S
C1645 H1653 0.960 . S
C1646 C1644 1.381 . S
C1646 C1647 1.394 . S
C1646 H1654 0.930 . S
C1647 C1646 1.394 . S
C1647 C1648 1.383 . S
C1647 H1655 0.929 . S
C1648 C1647 1.383 . S
C1648 C1649 1.377 . S
C1649 H1633 0.930 . S
C1649 C1648 1.377 . S
C1649 C1650 1.379 . S
C1650 H1634 0.931 . S
C1650 C1644 1.383 . S
C1650 C1649 1.379 . S
H1651 C1645 0.959 . S
H1652 C1645 0.961 . S
H1653 C1645 0.960 . S
H1654 C1646 0.930 . S
H1655 C1647 0.929 . S
H1656 C1664 0.929 . S
H1657 C1666 0.930 . S
H1658 C1668 0.930 . S
H1659 C1671 0.929 . S
H1660 C1674 0.930 . S
H1661 C1676 0.960 . S
H1662 C1676 0.960 . S
H1663 C1676 0.960 . S
C1664 H1656 0.929 . S
C1664 C1665 1.377 . S
C1664 C1666 1.384 . S
C1665 C1664 1.377 . S
C1665 C1671 1.390 . S
C1666 H1657 0.930 . S
C1666 C1664 1.384 . S
C1666 C1667 1.372 . S
C1667 C1666 1.372 . S
C1667 C1668 1.400 . S
C1667 C1672 1.490 . S
C1668 H1658 0.930 . S
C1668 C1667 1.400 . S
C1668 C1671 1.386 . S
H1669 C1685 0.930 . S
H1670 C1686 0.931 . S
C1671 H1659 0.929 . S
C1671 C1665 1.390 . S
C1671 C1668 1.386 . S
C1672 C1667 1.490 . S
C1672 C1674 1.395 . S
C1672 C1675 1.403 . S
H1673 C1679 0.930 . S
C1674 H1660 0.930 . S
C1674 C1672 1.395 . S
C1674 C1677 1.403 . S
C1675 C1672 1.403 . S
C1675 C1676 1.524 . S
C1675 C1679 1.400 . S
C1676 H1661 0.960 . S
C1676 H1662 0.960 . S
C1676 H1663 0.960 . S
C1676 C1675 1.524 . S
C1677 C1674 1.403 . S
C1677 C1678 1.392 . S
C1677 C1681 1.495 . S
C1678 C1677 1.392 . S
C1678 C1679 1.385 . S
C1678 C1680 1.478 . S
C1679 H1673 0.930 . S
C1679 C1675 1.400 . S
C1679 C1678 1.385 . S
C1680 C1678 1.478 . S
C1680 C1682 1.381 . S
C1680 C1686 1.383 . S
C1681 C1677 1.495 . S
C1681 H1687 0.959 . S
C1681 H1688 0.961 . S
C1681 H1689 0.960 . S
C1682 C1680 1.381 . S
C1682 C1683 1.394 . S
C1682 H1690 0.930 . S
C1683 C1682 1.394 . S
C1683 C1684 1.383 . S
C1683 H1691 0.929 . S
C1684 C1683 1.383 . S
C1684 C1685 1.377 . S
C1685 H1669 0.930 . S
C1685 C1684 1.377 . S
C1685 C1686 1.379 . S
C1686 H1670 0.931 . S
C1686 C1680 1.383 . S
C1686 C1685 1.379 . S
H1687 C1681 0.959 . S
H1688 C1681 0.961 . S
H1689 C1681 0.960 . S
H1690 C1682 0.930 . S
H1691 C1683 0.929 . S
H1692 C1700 0.929 . S
H1693 C1702 0.930 . S
H1694 C1704 0.930 . S
H1695 C1707 0.929 . S
H1696 C1710 0.930 . S
H1697 C1712 0.960 . S
H1698 C1712 0.960 . S
H1699 C1712 0.960 . S
C1700 H1692 0.929 . S
C1700 C1701 1.377 . S
C1700 C1702 1.384 . S
C1701 C1700 1.377 . S
C1701 C1707 1.390 . S
C1702 H1693 0.930 . S
C1702 C1700 1.384 . S
C1702 C1703 1.372 . S
C1703 C1702 1.372 . S
C1703 C1704 1.400 . S
C1703 C1708 1.490 . S
C1704 H1694 0.930 . S
C1704 C1703 1.400 . S
C1704 C1707 1.386 . S
H1705 C1721 0.930 . S
H1706 C1722 0.931 . S
C1707 H1695 0.929 . S
C1707 C1701 1.390 . S
C1707 C1704 1.386 . S
C1708 C1703 1.490 . S
C1708 C1710 1.395 . S
C1708 C1711 1.403 . S
H1709 C1715 0.930 . S
C1710 H1696 0.930 . S
C1710 C1708 1.395 . S
C1710 C1713 1.403 . S
C1711 C1708 1.403 . S
C1711 C1712 1.524 . S
C1711 C1715 1.400 . S
C1712 H1697 0.960 . S
C1712 H1698 0.960 . S
C1712 H1699 0.960 . S
C1712 C1711 1.524 . S
C1713 C1710 1.403 . S
C1713 C1714 1.392 . S
C1713 C1717 1.495 . S
C1714 C1713 1.392 . S
C1714 C1715 1.385 . S
C1714 C1716 1.478 . S
C1715 H1709 0.930 . S
C1715 C1711 1.400 . S
C1715 C1714 1.385 . S
C1716 C1714 1.478 . S
C1716 C1718 1.381 . S
C1716 C1722 1.383 . S
C1717 C1713 1.495 . S
C1717 H1723 0.959 . S
C1717 H1724 0.961 . S
C1717 H1725 0.960 . S
C1718 C1716 1.381 . S
C1718 C1719 1.394 . S
C1718 H1726 0.930 . S
C1719 C1718 1.394 . S
C1719 C1720 1.383 . S
C1719 H1727 0.929 . S
C1720 C1719 1.383 . S
C1720 C1721 1.377 . S
C1721 H1705 0.930 . S
C1721 C1720 1.377 . S
C1721 C1722 1.379 . S
C1722 H1706 0.931 . S
C1722 C1716 1.383 . S
C1722 C1721 1.379 . S
H1723 C1717 0.959 . S
H1724 C1717 0.961 . S
H1725 C1717 0.960 . S
H1726 C1718 0.930 . S
H1727 C1719 0.929 . S
H1728 C1736 0.929 . S
H1729 C1738 0.930 . S
H1730 C1740 0.930 . S
H1731 C1743 0.929 . S
H1732 C1746 0.930 . S
H1733 C1748 0.960 . S
H1734 C1748 0.960 . S
H1735 C1748 0.960 . S
C1736 H1728 0.929 . S
C1736 C1737 1.377 . S
C1736 C1738 1.384 . S
C1737 C1736 1.377 . S
C1737 C1743 1.390 . S
C1738 H1729 0.930 . S
C1738 C1736 1.384 . S
C1738 C1739 1.372 . S
C1739 C1738 1.372 . S
C1739 C1740 1.400 . S
C1739 C1744 1.490 . S
C1740 H1730 0.930 . S
C1740 C1739 1.400 . S
C1740 C1743 1.386 . S
H1741 C1757 0.930 . S
H1742 C1758 0.931 . S
C1743 H1731 0.929 . S
C1743 C1737 1.390 . S
C1743 C1740 1.386 . S
C1744 C1739 1.490 . S
C1744 C1746 1.395 . S
C1744 C1747 1.403 . S
H1745 C1751 0.930 . S
C1746 H1732 0.930 . S
C1746 C1744 1.395 . S
C1746 C1749 1.403 . S
C1747 C1744 1.403 . S
C1747 C1748 1.524 . S
C1747 C1751 1.400 . S
C1748 H1733 0.960 . S
C1748 H1734 0.960 . S
C1748 H1735 0.960 . S
C1748 C1747 1.524 . S
C1749 C1746 1.403 . S
C1749 C1750 1.392 . S
C1749 C1753 1.495 . S
C1750 C1749 1.392 . S
C1750 C1751 1.385 . S
C1750 C1752 1.478 . S
C1751 H1745 0.930 . S
C1751 C1747 1.400 . S
C1751 C1750 1.385 . S
C1752 C1750 1.478 . S
C1752 C1754 1.381 . S
C1752 C1758 1.383 . S
C1753 C1749 1.495 . S
C1753 H1759 0.959 . S
C1753 H1760 0.961 . S
C1753 H1761 0.960 . S
C1754 C1752 1.381 . S
C1754 C1755 1.394 . S
C1754 H1762 0.930 . S
C1755 C1754 1.394 . S
C1755 C1756 1.383 . S
C1755 H1763 0.929 . S
C1756 C1755 1.383 . S
C1756 C1757 1.377 . S
C1757 H1741 0.930 . S
C1757 C1756 1.377 . S
C1757 C1758 1.379 . S
C1758 H1742 0.931 . S
C1758 C1752 1.383 . S
C1758 C1757 1.379 . S
H1759 C1753 0.959 . S
H1760 C1753 0.961 . S
H1761 C1753 0.960 . S
H1762 C1754 0.930 . S
H1763 C1755 0.929 . S
H1764 C1772 0.929 . S
H1765 C1774 0.930 . S
H1766 C1776 0.930 . S
H1767 C1779 0.929 . S
H1768 C1782 0.930 . S
H1769 C1784 0.960 . S
H1770 C1784 0.960 . S
H1771 C1784 0.960 . S
C1772 H1764 0.929 . S
C1772 C1773 1.377 . S
C1772 C1774 1.384 . S
C1773 C1772 1.377 . S
C1773 C1779 1.390 . S
C1774 H1765 0.930 . S
C1774 C1772 1.384 . S
C1774 C1775 1.372 . S
C1775 C1774 1.372 . S
C1775 C1776 1.400 . S
C1775 C1780 1.490 . S
C1776 H1766 0.930 . S
C1776 C1775 1.400 . S
C1776 C1779 1.386 . S
H1777 C1793 0.930 . S
H1778 C1794 0.931 . S
C1779 H1767 0.929 . S
C1779 C1773 1.390 . S
C1779 C1776 1.386 . S
C1780 C1775 1.490 . S
C1780 C1782 1.395 . S
C1780 C1783 1.403 . S
H1781 C1787 0.930 . S
C1782 H1768 0.930 . S
C1782 C1780 1.395 . S
C1782 C1785 1.403 . S
C1783 C1780 1.403 . S
C1783 C1784 1.524 . S
C1783 C1787 1.400 . S
C1784 H1769 0.960 . S
C1784 H1770 0.960 . S
C1784 H1771 0.960 . S
C1784 C1783 1.524 . S
C1785 C1782 1.403 . S
C1785 C1786 1.392 . S
C1785 C1789 1.495 . S
C1786 C1785 1.392 . S
C1786 C1787 1.385 . S
C1786 C1788 1.478 . S
C1787 H1781 0.930 . S
C1787 C1783 1.400 . S
C1787 C1786 1.385 . S
C1788 C1786 1.478 . S
C1788 C1790 1.381 . S
C1788 C1794 1.383 . S
C1789 C1785 1.495 . S
C1789 H1795 0.959 . S
C1789 H1796 0.961 . S
C1789 H1797 0.960 . S
C1790 C1788 1.381 . S
C1790 C1791 1.394 . S
C1790 H1798 0.930 . S
C1791 C1790 1.394 . S
C1791 C1792 1.383 . S
C1791 H1799 0.929 . S
C1792 C1791 1.383 . S
C1792 C1793 1.377 . S
C1793 H1777 0.930 . S
C1793 C1792 1.377 . S
C1793 C1794 1.379 . S
C1794 H1778 0.931 . S
C1794 C1788 1.383 . S
C1794 C1793 1.379 . S
H1795 C1789 0.959 . S
H1796 C1789 0.961 . S
H1797 C1789 0.960 . S
H1798 C1790 0.930 . S
H1799 C1791 0.929 . S
H1800 C1808 0.929 . S
H1801 C1810 0.930 . S
H1802 C1812 0.930 . S
H1803 C1815 0.929 . S
H1804 C1818 0.930 . S
H1805 C1820 0.960 . S
H1806 C1820 0.960 . S
H1807 C1820 0.960 . S
C1808 H1800 0.929 . S
C1808 C1809 1.377 . S
C1808 C1810 1.384 . S
C1809 C1808 1.377 . S
C1809 C1815 1.390 . S
C1810 H1801 0.930 . S
C1810 C1808 1.384 . S
C1810 C1811 1.372 . S
C1811 C1810 1.372 . S
C1811 C1812 1.400 . S
C1811 C1816 1.490 . S
C1812 H1802 0.930 . S
C1812 C1811 1.400 . S
C1812 C1815 1.386 . S
H1813 C1829 0.930 . S
H1814 C1830 0.931 . S
C1815 H1803 0.929 . S
C1815 C1809 1.390 . S
C1815 C1812 1.386 . S
C1816 C1811 1.490 . S
C1816 C1818 1.395 . S
C1816 C1819 1.403 . S
H1817 C1823 0.930 . S
C1818 H1804 0.930 . S
C1818 C1816 1.395 . S
C1818 C1821 1.403 . S
C1819 C1816 1.403 . S
C1819 C1820 1.524 . S
C1819 C1823 1.400 . S
C1820 H1805 0.960 . S
C1820 H1806 0.960 . S
C1820 H1807 0.960 . S
C1820 C1819 1.524 . S
C1821 C1818 1.403 . S
C1821 C1822 1.392 . S
C1821 C1825 1.495 . S
C1822 C1821 1.392 . S
C1822 C1823 1.385 . S
C1822 C1824 1.478 . S
C1823 H1817 0.930 . S
C1823 C1819 1.400 . S
C1823 C1822 1.385 . S
C1824 C1822 1.478 . S
C1824 C1826 1.381 . S
C1824 C1830 1.383 . S
C1825 C1821 1.495 . S
C1825 H1831 0.959 . S
C1825 H1832 0.961 . S
C1825 H1833 0.960 . S
C1826 C1824 1.381 . S
C1826 C1827 1.394 . S
C1826 H1834 0.930 . S
C1827 C1826 1.394 . S
C1827 C1828 1.383 . S
C1827 H1835 0.929 . S
C1828 C1827 1.383 . S
C1828 C1829 1.377 . S
C1829 H1813 0.930 . S
C1829 C1828 1.377 . S
C1829 C1830 1.379 . S
C1830 H1814 0.931 . S
C1830 C1824 1.383 . S
C1830 C1829 1.379 . S
H1831 C1825 0.959 . S
H1832 C1825 0.961 . S
H1833 C1825 0.960 . S
H1834 C1826 0.930 . S
H1835 C1827 0.929 . S
H1836 C1844 0.929 . S
H1837 C1846 0.930 . S
H1838 C1848 0.930 . S
H1839 C1851 0.929 . S
H1840 C1854 0.930 . S
H1841 C1856 0.960 . S
H1842 C1856 0.960 . S
H1843 C1856 0.960 . S
C1844 H1836 0.929 . S
C1844 C1845 1.377 . S
C1844 C1846 1.384 . S
C1845 C1844 1.377 . S
C1845 C1851 1.390 . S
C1846 H1837 0.930 . S
C1846 C1844 1.384 . S
C1846 C1847 1.372 . S
C1847 C1846 1.372 . S
C1847 C1848 1.400 . S
C1847 C1852 1.490 . S
C1848 H1838 0.930 . S
C1848 C1847 1.400 . S
C1848 C1851 1.386 . S
H1849 C1865 0.930 . S
H1850 C1866 0.931 . S
C1851 H1839 0.929 . S
C1851 C1845 1.390 . S
C1851 C1848 1.386 . S
C1852 C1847 1.490 . S
C1852 C1854 1.395 . S
C1852 C1855 1.403 . S
H1853 C1859 0.930 . S
C1854 H1840 0.930 . S
C1854 C1852 1.395 . S
C1854 C1857 1.403 . S
C1855 C1852 1.403 . S
C1855 C1856 1.524 . S
C1855 C1859 1.400 . S
C1856 H1841 0.960 . S
C1856 H1842 0.960 . S
C1856 H1843 0.960 . S
C1856 C1855 1.524 . S
C1857 C1854 1.403 . S
C1857 C1858 1.392 . S
C1857 C1861 1.495 . S
C1858 C1857 1.392 . S
C1858 C1859 1.385 . S
C1858 C1860 1.478 . S
C1859 H1853 0.930 . S
C1859 C1855 1.400 . S
C1859 C1858 1.385 . S
C1860 C1858 1.478 . S
C1860 C1862 1.381 . S
C1860 C1866 1.383 . S
C1861 C1857 1.495 . S
C1861 H1867 0.959 . S
C1861 H1868 0.961 . S
C1861 H1869 0.960 . S
C1862 C1860 1.381 . S
C1862 C1863 1.394 . S
C1862 H1870 0.930 . S
C1863 C1862 1.394 . S
C1863 C1864 1.383 . S
C1863 H1871 0.929 . S
C1864 C1863 1.383 . S
C1864 C1865 1.377 . S
C1865 H1849 0.930 . S
C1865 C1864 1.377 . S
C1865 C1866 1.379 . S
C1866 H1850 0.931 . S
C1866 C1860 1.383 . S
C1866 C1865 1.379 . S
H1867 C1861 0.959 . S
H1868 C1861 0.961 . S
H1869 C1861 0.960 . S
H1870 C1862 0.930 . S
H1871 C1863 0.929 . S
H1872 C1880 0.929 . S
H1873 C1882 0.930 . S
H1874 C1884 0.930 . S
H1875 C1887 0.929 . S
H1876 C1890 0.930 . S
H1877 C1892 0.960 . S
H1878 C1892 0.960 . S
H1879 C1892 0.960 . S
C1880 H1872 0.929 . S
C1880 C1881 1.377 . S
C1880 C1882 1.384 . S
C1881 C1880 1.377 . S
C1881 C1887 1.390 . S
C1882 H1873 0.930 . S
C1882 C1880 1.384 . S
C1882 C1883 1.372 . S
C1883 C1882 1.372 . S
C1883 C1884 1.400 . S
C1883 C1888 1.490 . S
C1884 H1874 0.930 . S
C1884 C1883 1.400 . S
C1884 C1887 1.386 . S
H1885 C1901 0.930 . S
H1886 C1902 0.931 . S
C1887 H1875 0.929 . S
C1887 C1881 1.390 . S
C1887 C1884 1.386 . S
C1888 C1883 1.490 . S
C1888 C1890 1.395 . S
C1888 C1891 1.403 . S
H1889 C1895 0.930 . S
C1890 H1876 0.930 . S
C1890 C1888 1.395 . S
C1890 C1893 1.403 . S
C1891 C1888 1.403 . S
C1891 C1892 1.524 . S
C1891 C1895 1.400 . S
C1892 H1877 0.960 . S
C1892 H1878 0.960 . S
C1892 H1879 0.960 . S
C1892 C1891 1.524 . S
C1893 C1890 1.403 . S
C1893 C1894 1.392 . S
C1893 C1897 1.495 . S
C1894 C1893 1.392 . S
C1894 C1895 1.385 . S
C1894 C1896 1.478 . S
C1895 H1889 0.930 . S
C1895 C1891 1.400 . S
C1895 C1894 1.385 . S
C1896 C1894 1.478 . S
C1896 C1898 1.381 . S
C1896 C1902 1.383 . S
C1897 C1893 1.495 . S
C1897 H1903 0.959 . S
C1897 H1904 0.961 . S
C1897 H1905 0.960 . S
C1898 C1896 1.381 . S
C1898 C1899 1.394 . S
C1898 H1906 0.930 . S
C1899 C1898 1.394 . S
C1899 C1900 1.383 . S
C1899 H1907 0.929 . S
C1900 C1899 1.383 . S
C1900 C1901 1.377 . S
C1901 H1885 0.930 . S
C1901 C1900 1.377 . S
C1901 C1902 1.379 . S
C1902 H1886 0.931 . S
C1902 C1896 1.383 . S
C1902 C1901 1.379 . S
H1903 C1897 0.959 . S
H1904 C1897 0.961 . S
H1905 C1897 0.960 . S
H1906 C1898 0.930 . S
H1907 C1899 0.929 . S
H1908 C1916 0.929 . S
H1909 C1918 0.930 . S
H1910 C1920 0.930 . S
H1911 C1923 0.929 . S
H1912 C1926 0.930 . S
H1913 C1928 0.960 . S
H1914 C1928 0.960 . S
H1915 C1928 0.960 . S
C1916 H1908 0.929 . S
C1916 C1917 1.377 . S
C1916 C1918 1.384 . S
C1917 C1916 1.377 . S
C1917 C1923 1.390 . S
C1918 H1909 0.930 . S
C1918 C1916 1.384 . S
C1918 C1919 1.372 . S
C1919 C1918 1.372 . S
C1919 C1920 1.400 . S
C1919 C1924 1.490 . S
C1920 H1910 0.930 . S
C1920 C1919 1.400 . S
C1920 C1923 1.386 . S
H1921 C1937 0.930 . S
H1922 C1938 0.931 . S
C1923 H1911 0.929 . S
C1923 C1917 1.390 . S
C1923 C1920 1.386 . S
C1924 C1919 1.490 . S
C1924 C1926 1.395 . S
C1924 C1927 1.403 . S
H1925 C1931 0.930 . S
C1926 H1912 0.930 . S
C1926 C1924 1.395 . S
C1926 C1929 1.403 . S
C1927 C1924 1.403 . S
C1927 C1928 1.524 . S
C1927 C1931 1.400 . S
C1928 H1913 0.960 . S
C1928 H1914 0.960 . S
C1928 H1915 0.960 . S
C1928 C1927 1.524 . S
C1929 C1926 1.403 . S
C1929 C1930 1.392 . S
C1929 C1933 1.495 . S
C1930 C1929 1.392 . S
C1930 C1931 1.385 . S
C1930 C1932 1.478 . S
C1931 H1925 0.930 . S
C1931 C1927 1.400 . S
C1931 C1930 1.385 . S
C1932 C1930 1.478 . S
C1932 C1934 1.381 . S
C1932 C1938 1.383 . S
C1933 C1929 1.495 . S
C1933 H1939 0.959 . S
C1933 H1940 0.961 . S
C1933 H1941 0.960 . S
C1934 C1932 1.381 . S
C1934 C1935 1.394 . S
C1934 H1942 0.930 . S
C1935 C1934 1.394 . S
C1935 C1936 1.383 . S
C1935 H1943 0.929 . S
C1936 C1935 1.383 . S
C1936 C1937 1.377 . S
C1937 H1921 0.930 . S
C1937 C1936 1.377 . S
C1937 C1938 1.379 . S
C1938 H1922 0.931 . S
C1938 C1932 1.383 . S
C1938 C1937 1.379 . S
H1939 C1933 0.959 . S
H1940 C1933 0.961 . S
H1941 C1933 0.960 . S
H1942 C1934 0.930 . S
H1943 C1935 0.929 . S
H1944 C1952 0.929 . S
H1945 C1954 0.930 . S
H1946 C1956 0.930 . S
H1947 C1959 0.929 . S
H1948 C1962 0.930 . S
H1949 C1964 0.960 . S
H1950 C1964 0.960 . S
H1951 C1964 0.960 . S
C1952 H1944 0.929 . S
C1952 C1953 1.377 . S
C1952 C1954 1.384 . S
C1953 C1952 1.377 . S
C1953 C1959 1.390 . S
C1954 H1945 0.930 . S
C1954 C1952 1.384 . S
C1954 C1955 1.372 . S
C1955 C1954 1.372 . S
C1955 C1956 1.400 . S
C1955 C1960 1.490 . S
C1956 H1946 0.930 . S
C1956 C1955 1.400 . S
C1956 C1959 1.386 . S
H1957 C1973 0.930 . S
H1958 C1974 0.931 . S
C1959 H1947 0.929 . S
C1959 C1953 1.390 . S
C1959 C1956 1.386 . S
C1960 C1955 1.490 . S
C1960 C1962 1.395 . S
C1960 C1963 1.403 . S
H1961 C1967 0.930 . S
C1962 H1948 0.930 . S
C1962 C1960 1.395 . S
C1962 C1965 1.403 . S
C1963 C1960 1.403 . S
C1963 C1964 1.524 . S
C1963 C1967 1.400 . S
C1964 H1949 0.960 . S
C1964 H1950 0.960 . S
C1964 H1951 0.960 . S
C1964 C1963 1.524 . S
C1965 C1962 1.403 . S
C1965 C1966 1.392 . S
C1965 C1969 1.495 . S
C1966 C1965 1.392 . S
C1966 C1967 1.385 . S
C1966 C1968 1.478 . S
C1967 H1961 0.930 . S
C1967 C1963 1.400 . S
C1967 C1966 1.385 . S
C1968 C1966 1.478 . S
C1968 C1970 1.381 . S
C1968 C1974 1.383 . S
C1969 C1965 1.495 . S
C1969 H1975 0.959 . S
C1969 H1976 0.961 . S
C1969 H1977 0.960 . S
C1970 C1968 1.381 . S
C1970 C1971 1.394 . S
C1970 H1978 0.930 . S
C1971 C1970 1.394 . S
C1971 C1972 1.383 . S
C1971 H1979 0.929 . S
C1972 C1971 1.383 . S
C1972 C1973 1.377 . S
C1973 H1957 0.930 . S
C1973 C1972 1.377 . S
C1973 C1974 1.379 . S
C1974 H1958 0.931 . S
C1974 C1968 1.383 . S
C1974 C1973 1.379 . S
H1975 C1969 0.959 . S
H1976 C1969 0.961 . S
H1977 C1969 0.960 . S
H1978 C1970 0.930 . S
H1979 C1971 0.929 . S
H1980 C1988 0.929 . S
H1981 C1990 0.930 . S
H1982 C1992 0.930 1_554 S
H1983 C1995 0.929 . S
H1984 C1998 0.930 . S
H1985 C2000 0.960 . S
H1986 C2000 0.960 . S
H1987 C2000 0.960 1_554 S
C1988 H1980 0.929 . S
C1988 C1989 1.377 . S
C1988 C1990 1.384 . S
C1989 C1988 1.377 . S
C1989 C1995 1.390 1_556 S
C1990 H1981 0.930 . S
C1990 C1988 1.384 . S
C1990 C1991 1.372 . S
C1991 C1990 1.372 . S
C1991 C1992 1.400 . S
C1991 C1996 1.490 . S
C1992 H1982 0.930 1_556 S
C1992 C1991 1.400 . S
C1992 C1995 1.386 1_556 S
H1993 C2009 0.930 . S
H1994 C2010 0.931 . S
C1995 H1983 0.929 . S
C1995 C1989 1.390 1_554 S
C1995 C1992 1.386 1_554 S
C1996 C1991 1.490 . S
C1996 C1998 1.395 . S
C1996 C1999 1.403 . S
H1997 C2003 0.930 . S
C1998 H1984 0.930 . S
C1998 C1996 1.395 . S
C1998 C2001 1.403 . S
C1999 C1996 1.403 . S
C1999 C2000 1.524 . S
C1999 C2003 1.400 . S
C2000 H1985 0.960 . S
C2000 H1986 0.960 . S
C2000 H1987 0.960 1_556 S
C2000 C1999 1.524 . S
C2001 C1998 1.403 . S
C2001 C2002 1.392 . S
C2001 C2005 1.495 . S
C2002 C2001 1.392 . S
C2002 C2003 1.385 . S
C2002 C2004 1.478 . S
C2003 H1997 0.930 . S
C2003 C1999 1.400 . S
C2003 C2002 1.385 . S
C2004 C2002 1.478 . S
C2004 C2006 1.381 . S
C2004 C2010 1.383 . S
C2005 C2001 1.495 . S
C2005 H2011 0.959 . S
C2005 H2012 0.961 . S
C2005 H2013 0.960 . S
C2006 C2004 1.381 . S
C2006 C2007 1.394 . S
C2006 H2014 0.930 . S
C2007 C2006 1.394 . S
C2007 C2008 1.383 . S
C2007 H2015 0.929 . S
C2008 C2007 1.383 . S
C2008 C2009 1.377 . S
C2009 H1993 0.930 . S
C2009 C2008 1.377 . S
C2009 C2010 1.379 . S
C2010 H1994 0.931 . S
C2010 C2004 1.383 . S
C2010 C2009 1.379 . S
H2011 C2005 0.959 . S
H2012 C2005 0.961 . S
H2013 C2005 0.960 . S
H2014 C2006 0.930 . S
H2015 C2007 0.929 . S
H2016 C2024 0.929 . S
H2017 C2026 0.930 . S
H2018 C2028 0.930 . S
H2019 C2031 0.941 . S
H2020 C2034 0.930 . S
H2021 C2036 0.960 . S
H2022 C2036 0.960 . S
H2023 C2036 0.960 . S
C2024 H2016 0.929 . S
C2024 C2025 1.377 . S
C2024 C2026 1.384 . S
C2025 C2024 1.377 . S
C2025 C2031 1.390 . S
C2026 H2017 0.930 . S
C2026 C2024 1.384 . S
C2026 C2027 1.372 . S
C2027 C2026 1.372 . S
C2027 C2028 1.400 . S
C2027 C2032 1.490 . S
C2028 H2018 0.930 . S
C2028 C2027 1.400 . S
C2028 C2031 1.386 . S
H2029 C2045 0.930 . S
H2030 C2046 0.931 . S
C2031 H2019 0.941 . S
C2031 C2025 1.390 . S
C2031 C2028 1.386 . S
C2032 C2027 1.490 . S
C2032 C2034 1.395 . S
C2032 C2035 1.403 . S
H2033 C2039 0.930 . S
C2034 H2020 0.930 . S
C2034 C2032 1.395 . S
C2034 C2037 1.403 . S
C2035 C2032 1.403 . S
C2035 C2036 1.524 . S
C2035 C2039 1.400 . S
C2036 H2021 0.960 . S
C2036 H2022 0.960 . S
C2036 H2023 0.960 . S
C2036 C2035 1.524 . S
C2037 C2034 1.403 . S
C2037 C2038 1.392 . S
C2037 C2041 1.495 . S
C2038 C2037 1.392 . S
C2038 C2039 1.385 . S
C2038 C2040 1.478 . S
C2039 H2033 0.930 . S
C2039 C2035 1.400 . S
C2039 C2038 1.385 . S
C2040 C2038 1.478 . S
C2040 C2042 1.381 . S
C2040 C2046 1.383 . S
C2041 C2037 1.495 . S
C2041 H2047 0.959 . S
C2041 H2048 0.961 . S
C2041 H2049 0.960 . S
C2042 C2040 1.381 . S
C2042 C2043 1.394 . S
C2042 H2050 0.930 . S
C2043 C2042 1.394 . S
C2043 C2044 1.383 . S
C2043 H2051 0.929 . S
C2044 C2043 1.383 . S
C2044 C2045 1.377 . S
C2045 H2029 0.930 . S
C2045 C2044 1.377 . S
C2045 C2046 1.379 . S
C2046 H2030 0.931 . S
C2046 C2040 1.383 . S
C2046 C2045 1.379 . S
H2047 C2041 0.959 . S
H2048 C2041 0.961 . S
H2049 C2041 0.960 . S
H2050 C2042 0.930 . S
H2051 C2043 0.929 . S
H2052 C2060 0.929 . S
H2053 C2062 0.930 . S
H2054 C2064 0.930 1_554 S
H2055 C2067 0.929 . S
H2056 C2070 0.930 . S
H2057 C2072 0.960 . S
H2058 C2072 0.960 . S
H2059 C2072 0.960 1_554 S
C2060 H2052 0.929 . S
C2060 C2061 1.377 . S
C2060 C2062 1.384 . S
C2061 C2060 1.377 . S
C2061 C2067 1.390 1_556 S
C2062 H2053 0.930 . S
C2062 C2060 1.384 . S
C2062 C2063 1.372 . S
C2063 C2062 1.372 . S
C2063 C2064 1.400 . S
C2063 C2068 1.490 . S
C2064 H2054 0.930 1_556 S
C2064 C2063 1.400 . S
C2064 C2067 1.386 1_556 S
H2065 C2081 0.930 . S
H2066 C2082 0.931 . S
C2067 H2055 0.929 . S
C2067 C2061 1.390 1_554 S
C2067 C2064 1.386 1_554 S
C2068 C2063 1.490 . S
C2068 C2070 1.395 . S
C2068 C2071 1.403 . S
H2069 C2075 0.930 . S
C2070 H2056 0.930 . S
C2070 C2068 1.395 . S
C2070 C2073 1.403 . S
C2071 C2068 1.403 . S
C2071 C2072 1.524 . S
C2071 C2075 1.400 . S
C2072 H2057 0.960 . S
C2072 H2058 0.960 . S
C2072 H2059 0.960 1_556 S
C2072 C2071 1.524 . S
C2073 C2070 1.403 . S
C2073 C2074 1.392 . S
C2073 C2077 1.495 . S
C2074 C2073 1.392 . S
C2074 C2075 1.385 . S
C2074 C2076 1.478 . S
C2075 H2069 0.930 . S
C2075 C2071 1.400 . S
C2075 C2074 1.385 . S
C2076 C2074 1.478 . S
C2076 C2078 1.381 . S
C2076 C2082 1.383 . S
C2077 C2073 1.495 . S
C2077 H2083 0.959 . S
C2077 H2084 0.961 . S
C2077 H2085 0.960 . S
C2078 C2076 1.381 . S
C2078 C2079 1.394 . S
C2078 H2086 0.930 . S
C2079 C2078 1.394 . S
C2079 C2080 1.383 . S
C2079 H2087 0.929 . S
C2080 C2079 1.383 . S
C2080 C2081 1.377 . S
C2081 H2065 0.930 . S
C2081 C2080 1.377 . S
C2081 C2082 1.379 . S
C2082 H2066 0.931 . S
C2082 C2076 1.383 . S
C2082 C2081 1.379 . S
H2083 C2077 0.959 . S
H2084 C2077 0.961 . S
H2085 C2077 0.960 . S
H2086 C2078 0.930 . S
H2087 C2079 0.929 . S
H2088 C2096 0.929 . S
H2089 C2098 0.930 1_554 S
H2090 C2100 0.930 . S
H2091 C2103 0.929 . S
H2092 C2106 0.930 . S
H2093 C2108 0.960 . S
H2094 C2108 0.960 . S
H2095 C2108 0.960 . S
C2096 H2088 0.929 . S
C2096 C2097 1.377 1_554 S
C2096 C2098 1.384 1_554 S
C2097 C2096 1.377 1_556 S
C2097 C2103 1.390 . S
C2098 H2089 0.930 1_556 S
C2098 C2096 1.384 1_556 S
C2098 C2099 1.372 . S
C2099 C2098 1.372 . S
C2099 C2100 1.400 . S
C2099 C2104 1.490 . S
C2100 H2090 0.930 . S
C2100 C2099 1.400 . S
C2100 C2103 1.386 . S
H2101 C2117 0.930 . S
H2102 C2118 0.931 . S
C2103 H2091 0.929 . S
C2103 C2097 1.390 . S
C2103 C2100 1.386 . S
C2104 C2099 1.490 . S
C2104 C2106 1.395 . S
C2104 C2107 1.403 . S
H2105 C2111 0.930 . S
C2106 H2092 0.930 . S
C2106 C2104 1.395 . S
C2106 C2109 1.403 . S
C2107 C2104 1.403 . S
C2107 C2108 1.524 . S
C2107 C2111 1.400 . S
C2108 H2093 0.960 . S
C2108 H2094 0.960 . S
C2108 H2095 0.960 . S
C2108 C2107 1.524 . S
C2109 C2106 1.403 . S
C2109 C2110 1.392 . S
C2109 C2113 1.495 . S
C2110 C2109 1.392 . S
C2110 C2111 1.385 . S
C2110 C2112 1.478 . S
C2111 H2105 0.930 . S
C2111 C2107 1.400 . S
C2111 C2110 1.385 . S
C2112 C2110 1.478 . S
C2112 C2114 1.381 . S
C2112 C2118 1.383 . S
C2113 C2109 1.495 . S
C2113 H2119 0.959 1_556 S
C2113 H2120 0.961 . S
C2113 H2121 0.960 . S
C2114 C2112 1.381 . S
C2114 C2115 1.394 . S
C2114 H2122 0.930 . S
C2115 C2114 1.394 . S
C2115 C2116 1.383 . S
C2115 H2123 0.929 . S
C2116 C2115 1.383 . S
C2116 C2117 1.377 . S
C2117 H2101 0.930 . S
C2117 C2116 1.377 . S
C2117 C2118 1.379 . S
C2118 H2102 0.931 . S
C2118 C2112 1.383 . S
C2118 C2117 1.379 . S
H2119 C2113 0.959 1_554 S
H2120 C2113 0.961 . S
H2121 C2113 0.960 . S
H2122 C2114 0.930 . S
H2123 C2115 0.929 . S
H2124 C2132 0.929 1_554 S
H2125 C2134 0.930 . S
H2126 C2136 0.930 . S
H2127 C2139 0.929 . S
H2128 C2142 0.930 . S
H2129 C2144 0.960 . S
H2130 C2144 0.960 . S
H2131 C2144 0.960 . S
C2132 H2124 0.929 1_556 S
C2132 C2133 1.377 . S
C2132 C2134 1.384 . S
C2133 C2132 1.377 . S
C2133 C2139 1.390 . S
C2134 H2125 0.930 . S
C2134 C2132 1.384 . S
C2134 C2135 1.372 . S
C2135 C2134 1.372 . S
C2135 C2136 1.400 . S
C2135 C2140 1.490 . S
C2136 H2126 0.930 . S
C2136 C2135 1.400 . S
C2136 C2139 1.386 . S
H2137 C2153 0.930 . S
H2138 C2154 0.931 . S
C2139 H2127 0.929 . S
C2139 C2133 1.390 . S
C2139 C2136 1.386 . S
C2140 C2135 1.490 . S
C2140 C2142 1.395 . S
C2140 C2143 1.403 . S
H2141 C2147 0.930 . S
C2142 H2128 0.930 . S
C2142 C2140 1.395 . S
C2142 C2145 1.403 . S
C2143 C2140 1.403 . S
C2143 C2144 1.524 . S
C2143 C2147 1.400 . S
C2144 H2129 0.960 . S
C2144 H2130 0.960 . S
C2144 H2131 0.960 . S
C2144 C2143 1.524 . S
C2145 C2142 1.403 . S
C2145 C2146 1.392 . S
C2145 C2149 1.495 . S
C2146 C2145 1.392 . S
C2146 C2147 1.385 . S
C2146 C2148 1.478 . S
C2147 H2141 0.930 . S
C2147 C2143 1.400 . S
C2147 C2146 1.385 . S
C2148 C2146 1.478 . S
C2148 C2150 1.381 . S
C2148 C2154 1.383 . S
C2149 C2145 1.495 . S
C2149 H2155 0.959 1_556 S
C2149 H2156 0.961 . S
C2149 H2157 0.960 . S
C2150 C2148 1.381 . S
C2150 C2151 1.394 . S
C2150 H2158 0.930 . S
C2151 C2150 1.394 . S
C2151 C2152 1.383 . S
C2151 H2159 0.929 . S
C2152 C2151 1.383 . S
C2152 C2153 1.377 . S
C2153 H2137 0.930 . S
C2153 C2152 1.377 . S
C2153 C2154 1.379 . S
C2154 H2138 0.931 . S
C2154 C2148 1.383 . S
C2154 C2153 1.379 . S
H2155 C2149 0.959 1_554 S
H2156 C2149 0.961 . S
H2157 C2149 0.960 . S
H2158 C2150 0.930 . S
H2159 C2151 0.929 . S
H2160 C2168 0.929 . S
H2161 C2170 0.930 . S
H2162 C2172 0.930 . S
H2163 C2175 0.929 . S
H2164 C2178 0.930 . S
H2165 C2180 0.960 . S
H2166 C2180 0.960 . S
H2167 C2180 0.960 . S
C2168 H2160 0.929 . S
C2168 C2169 1.377 1_554 S
C2168 C2170 1.384 . S
C2169 C2168 1.377 1_556 S
C2169 C2175 1.390 . S
C2170 H2161 0.930 . S
C2170 C2168 1.384 . S
C2170 C2171 1.372 1_554 S
C2171 C2170 1.372 1_556 S
C2171 C2172 1.400 . S
C2171 C2176 1.490 . S
C2172 H2162 0.930 . S
C2172 C2171 1.400 . S
C2172 C2175 1.386 . S
H2173 C2189 0.930 . S
H2174 C2190 0.931 . S
C2175 H2163 0.929 . S
C2175 C2169 1.390 . S
C2175 C2172 1.386 . S
C2176 C2171 1.490 . S
C2176 C2178 1.395 . S
C2176 C2179 1.403 . S
H2177 C2183 0.930 . S
C2178 H2164 0.930 . S
C2178 C2176 1.395 . S
C2178 C2181 1.403 . S
C2179 C2176 1.403 . S
C2179 C2180 1.524 . S
C2179 C2183 1.400 . S
C2180 H2165 0.960 . S
C2180 H2166 0.960 . S
C2180 H2167 0.960 . S
C2180 C2179 1.524 . S
C2181 C2178 1.403 . S
C2181 C2182 1.392 . S
C2181 C2185 1.495 . S
C2182 C2181 1.392 . S
C2182 C2183 1.385 . S
C2182 C2184 1.478 . S
C2183 H2177 0.930 . S
C2183 C2179 1.400 . S
C2183 C2182 1.385 . S
C2184 C2182 1.478 . S
C2184 C2186 1.381 . S
C2184 C2190 1.383 . S
C2185 C2181 1.495 . S
C2185 H2191 0.959 1_556 S
C2185 H2192 0.961 . S
C2185 H2193 0.960 . S
C2186 C2184 1.381 . S
C2186 C2187 1.394 . S
C2186 H2194 0.930 . S
C2187 C2186 1.394 . S
C2187 C2188 1.383 . S
C2187 H2195 0.929 . S
C2188 C2187 1.383 . S
C2188 C2189 1.377 . S
C2189 H2173 0.930 . S
C2189 C2188 1.377 . S
C2189 C2190 1.379 . S
C2190 H2174 0.931 . S
C2190 C2184 1.383 . S
C2190 C2189 1.379 . S
H2191 C2185 0.959 1_554 S
H2192 C2185 0.961 . S
H2193 C2185 0.960 . S
H2194 C2186 0.930 . S
H2195 C2187 0.929 . S
H2196 C2204 0.929 . S
H2197 C2206 0.930 . S
H2198 C2208 0.930 . S
H2199 C2211 0.929 . S
H2200 C2214 0.930 . S
H2201 C2216 0.960 . S
H2202 C2216 0.960 . S
H2203 C2216 0.960 . S
C2204 H2196 0.929 . S
C2204 C2205 1.377 . S
C2204 C2206 1.384 . S
C2205 C2204 1.377 . S
C2205 C2211 1.390 . S
C2206 H2197 0.930 . S
C2206 C2204 1.384 . S
C2206 C2207 1.372 . S
C2207 C2206 1.372 . S
C2207 C2208 1.400 . S
C2207 C2212 1.490 . S
C2208 H2198 0.930 . S
C2208 C2207 1.400 . S
C2208 C2211 1.386 . S
H2209 C2225 0.930 . S
H2210 C2226 0.931 . S
C2211 H2199 0.929 . S
C2211 C2205 1.390 . S
C2211 C2208 1.386 . S
C2212 C2207 1.490 . S
C2212 C2214 1.395 . S
C2212 C2215 1.403 . S
H2213 C2219 0.930 . S
C2214 H2200 0.930 . S
C2214 C2212 1.395 . S
C2214 C2217 1.403 . S
C2215 C2212 1.403 . S
C2215 C2216 1.524 . S
C2215 C2219 1.400 . S
C2216 H2201 0.960 . S
C2216 H2202 0.960 . S
C2216 H2203 0.960 . S
C2216 C2215 1.524 . S
C2217 C2214 1.403 . S
C2217 C2218 1.392 . S
C2217 C2221 1.495 . S
C2218 C2217 1.392 . S
C2218 C2219 1.385 . S
C2218 C2220 1.478 . S
C2219 H2213 0.930 . S
C2219 C2215 1.400 . S
C2219 C2218 1.385 . S
C2220 C2218 1.478 . S
C2220 C2222 1.381 . S
C2220 C2226 1.383 . S
C2221 C2217 1.495 . S
C2221 H2227 0.959 . S
C2221 H2228 0.961 . S
C2221 H2229 0.960 . S
C2222 C2220 1.381 . S
C2222 C2223 1.394 . S
C2222 H2230 0.930 . S
C2223 C2222 1.394 . S
C2223 C2224 1.383 . S
C2223 H2231 0.929 . S
C2224 C2223 1.383 . S
C2224 C2225 1.377 . S
C2225 H2209 0.930 . S
C2225 C2224 1.377 . S
C2225 C2226 1.379 . S
C2226 H2210 0.931 . S
C2226 C2220 1.383 . S
C2226 C2225 1.379 . S
H2227 C2221 0.959 . S
H2228 C2221 0.961 . S
H2229 C2221 0.960 . S
H2230 C2222 0.930 . S
H2231 C2223 0.929 . S
H2232 C2240 0.929 . S
H2233 C2242 0.930 . S
H2234 C2244 0.930 . S
H2235 C2247 0.929 . S
H2236 C2250 0.930 . S
H2237 C2252 0.960 . S
H2238 C2252 0.960 . S
H2239 C2252 0.960 . S
C2240 H2232 0.929 . S
C2240 C2241 1.377 . S
C2240 C2242 1.384 . S
C2241 C2240 1.377 . S
C2241 C2247 1.390 . S
C2242 H2233 0.930 . S
C2242 C2240 1.384 . S
C2242 C2243 1.372 . S
C2243 C2242 1.372 . S
C2243 C2244 1.400 . S
C2243 C2248 1.490 . S
C2244 H2234 0.930 . S
C2244 C2243 1.400 . S
C2244 C2247 1.386 . S
H2245 C2261 0.930 . S
H2246 C2262 0.931 . S
C2247 H2235 0.929 . S
C2247 C2241 1.390 . S
C2247 C2244 1.386 . S
C2248 C2243 1.490 . S
C2248 C2250 1.395 . S
C2248 C2251 1.403 . S
H2249 C2255 0.930 . S
C2250 H2236 0.930 . S
C2250 C2248 1.395 . S
C2250 C2253 1.403 . S
C2251 C2248 1.403 . S
C2251 C2252 1.524 . S
C2251 C2255 1.400 . S
C2252 H2237 0.960 . S
C2252 H2238 0.960 . S
C2252 H2239 0.960 . S
C2252 C2251 1.524 . S
C2253 C2250 1.403 . S
C2253 C2254 1.392 . S
C2253 C2257 1.495 . S
C2254 C2253 1.392 . S
C2254 C2255 1.385 . S
C2254 C2256 1.478 . S
C2255 H2249 0.930 . S
C2255 C2251 1.400 . S
C2255 C2254 1.385 . S
C2256 C2254 1.478 . S
C2256 C2258 1.381 . S
C2256 C2262 1.383 . S
C2257 C2253 1.495 . S
C2257 H2263 0.959 . S
C2257 H2264 0.961 . S
C2257 H2265 0.960 . S
C2258 C2256 1.381 . S
C2258 C2259 1.394 . S
C2258 H2266 0.930 . S
C2259 C2258 1.394 . S
C2259 C2260 1.383 . S
C2259 H2267 0.929 . S
C2260 C2259 1.383 . S
C2260 C2261 1.377 . S
C2261 H2245 0.930 . S
C2261 C2260 1.377 . S
C2261 C2262 1.379 . S
C2262 H2246 0.931 . S
C2262 C2256 1.383 . S
C2262 C2261 1.379 . S
H2263 C2257 0.959 . S
H2264 C2257 0.961 . S
H2265 C2257 0.960 . S
H2266 C2258 0.930 . S
H2267 C2259 0.929 . S
H2268 C2276 0.929 . S
H2269 C2278 0.930 . S
H2270 C2280 0.930 . S
H2271 C2283 0.929 . S
H2272 C2286 0.930 . S
H2273 C2288 0.960 . S
H2274 C2288 0.960 . S
H2275 C2288 0.960 . S
C2276 H2268 0.929 . S
C2276 C2277 1.377 . S
C2276 C2278 1.384 . S
C2277 C2276 1.377 . S
C2277 C2283 1.390 . S
C2278 H2269 0.930 . S
C2278 C2276 1.384 . S
C2278 C2279 1.372 . S
C2279 C2278 1.372 . S
C2279 C2280 1.400 . S
C2279 C2284 1.490 . S
C2280 H2270 0.930 . S
C2280 C2279 1.400 . S
C2280 C2283 1.386 . S
H2281 C2297 0.930 . S
H2282 C2298 0.931 . S
C2283 H2271 0.929 . S
C2283 C2277 1.390 . S
C2283 C2280 1.386 . S
C2284 C2279 1.490 . S
C2284 C2286 1.395 . S
C2284 C2287 1.403 . S
H2285 C2291 0.930 . S
C2286 H2272 0.930 . S
C2286 C2284 1.395 . S
C2286 C2289 1.403 . S
C2287 C2284 1.403 . S
C2287 C2288 1.524 . S
C2287 C2291 1.400 . S
C2288 H2273 0.960 . S
C2288 H2274 0.960 . S
C2288 H2275 0.960 . S
C2288 C2287 1.524 . S
C2289 C2286 1.403 . S
C2289 C2290 1.392 . S
C2289 C2293 1.495 . S
C2290 C2289 1.392 . S
C2290 C2291 1.385 . S
C2290 C2292 1.478 . S
C2291 H2285 0.930 . S
C2291 C2287 1.400 . S
C2291 C2290 1.385 . S
C2292 C2290 1.478 . S
C2292 C2294 1.381 . S
C2292 C2298 1.383 . S
C2293 C2289 1.495 . S
C2293 H2299 0.959 . S
C2293 H2300 0.961 . S
C2293 H2301 0.960 . S
C2294 C2292 1.381 . S
C2294 C2295 1.394 . S
C2294 H2302 0.930 . S
C2295 C2294 1.394 . S
C2295 C2296 1.383 . S
C2295 H2303 0.929 . S
C2296 C2295 1.383 . S
C2296 C2297 1.377 . S
C2297 H2281 0.930 . S
C2297 C2296 1.377 . S
C2297 C2298 1.379 . S
C2298 H2282 0.931 . S
C2298 C2292 1.383 . S
C2298 C2297 1.379 . S
H2299 C2293 0.959 . S
H2300 C2293 0.961 . S
H2301 C2293 0.960 . S
H2302 C2294 0.930 . S
H2303 C2295 0.929 . S
H2304 C2312 0.929 . S
H2305 C2314 0.930 . S
H2306 C2316 0.930 . S
H2307 C2319 0.929 . S
H2308 C2322 0.930 . S
H2309 C2324 0.960 . S
H2310 C2324 0.960 . S
H2311 C2324 0.960 . S
C2312 H2304 0.929 . S
C2312 C2313 1.377 . S
C2312 C2314 1.384 . S
C2313 C2312 1.377 . S
C2313 C2319 1.390 . S
C2314 H2305 0.930 . S
C2314 C2312 1.384 . S
C2314 C2315 1.372 . S
C2315 C2314 1.372 . S
C2315 C2316 1.400 . S
C2315 C2320 1.490 . S
C2316 H2306 0.930 . S
C2316 C2315 1.400 . S
C2316 C2319 1.386 . S
H2317 C2333 0.930 . S
H2318 C2334 0.931 . S
C2319 H2307 0.929 . S
C2319 C2313 1.390 . S
C2319 C2316 1.386 . S
C2320 C2315 1.490 . S
C2320 C2322 1.395 . S
C2320 C2323 1.403 . S
H2321 C2327 0.930 . S
C2322 H2308 0.930 . S
C2322 C2320 1.395 . S
C2322 C2325 1.403 . S
C2323 C2320 1.403 . S
C2323 C2324 1.524 . S
C2323 C2327 1.400 . S
C2324 H2309 0.960 . S
C2324 H2310 0.960 . S
C2324 H2311 0.960 . S
C2324 C2323 1.524 . S
C2325 C2322 1.403 . S
C2325 C2326 1.392 . S
C2325 C2329 1.495 . S
C2326 C2325 1.392 . S
C2326 C2327 1.385 . S
C2326 C2328 1.478 . S
C2327 H2321 0.930 . S
C2327 C2323 1.400 . S
C2327 C2326 1.385 . S
C2328 C2326 1.478 . S
C2328 C2330 1.381 . S
C2328 C2334 1.383 . S
C2329 C2325 1.495 . S
C2329 H2335 0.959 . S
C2329 H2336 0.961 . S
C2329 H2337 0.960 . S
C2330 C2328 1.381 . S
C2330 C2331 1.394 . S
C2330 H2338 0.930 . S
C2331 C2330 1.394 . S
C2331 C2332 1.383 . S
C2331 H2339 0.929 . S
C2332 C2331 1.383 . S
C2332 C2333 1.377 . S
C2333 H2317 0.930 . S
C2333 C2332 1.377 . S
C2333 C2334 1.379 . S
C2334 H2318 0.931 . S
C2334 C2328 1.383 . S
C2334 C2333 1.379 . S
H2335 C2329 0.959 . S
H2336 C2329 0.961 . S
H2337 C2329 0.960 . S
H2338 C2330 0.930 . S
H2339 C2331 0.929 . S
H2340 C2348 0.929 . S
H2341 C2350 0.930 . S
H2342 C2352 0.930 . S
H2343 C2355 0.929 . S
H2344 C2358 0.930 . S
H2345 C2360 0.960 . S
H2346 C2360 0.960 . S
H2347 C2360 0.960 . S
C2348 H2340 0.929 . S
C2348 C2349 1.377 . S
C2348 C2350 1.384 . S
C2349 C2348 1.377 . S
C2349 C2355 1.390 . S
C2350 H2341 0.930 . S
C2350 C2348 1.384 . S
C2350 C2351 1.372 . S
C2351 C2350 1.372 . S
C2351 C2352 1.400 . S
C2351 C2356 1.490 . S
C2352 H2342 0.930 . S
C2352 C2351 1.400 . S
C2352 C2355 1.386 . S
H2353 C2369 0.930 . S
H2354 C2370 0.931 . S
C2355 H2343 0.929 . S
C2355 C2349 1.390 . S
C2355 C2352 1.386 . S
C2356 C2351 1.490 . S
C2356 C2358 1.395 . S
C2356 C2359 1.403 . S
H2357 C2363 0.930 . S
C2358 H2344 0.930 . S
C2358 C2356 1.395 . S
C2358 C2361 1.403 . S
C2359 C2356 1.403 . S
C2359 C2360 1.524 . S
C2359 C2363 1.400 . S
C2360 H2345 0.960 . S
C2360 H2346 0.960 . S
C2360 H2347 0.960 . S
C2360 C2359 1.524 . S
C2361 C2358 1.403 . S
C2361 C2362 1.392 . S
C2361 C2365 1.495 . S
C2362 C2361 1.392 . S
C2362 C2363 1.385 . S
C2362 C2364 1.478 . S
C2363 H2357 0.930 . S
C2363 C2359 1.400 . S
C2363 C2362 1.385 . S
C2364 C2362 1.478 . S
C2364 C2366 1.381 . S
C2364 C2370 1.383 . S
C2365 C2361 1.495 . S
C2365 H2371 0.959 . S
C2365 H2372 0.961 . S
C2365 H2373 0.960 . S
C2366 C2364 1.381 . S
C2366 C2367 1.394 . S
C2366 H2374 0.930 . S
C2367 C2366 1.394 . S
C2367 C2368 1.383 . S
C2367 H2375 0.929 . S
C2368 C2367 1.383 . S
C2368 C2369 1.377 . S
C2369 H2353 0.930 . S
C2369 C2368 1.377 . S
C2369 C2370 1.379 . S
C2370 H2354 0.931 . S
C2370 C2364 1.383 . S
C2370 C2369 1.379 . S
H2371 C2365 0.959 . S
H2372 C2365 0.961 . S
H2373 C2365 0.960 . S
H2374 C2366 0.930 . S
H2375 C2367 0.929 . S
H2376 C2384 0.929 . S
H2377 C2386 0.930 . S
H2378 C2388 0.930 . S
H2379 C2391 0.929 . S
H2380 C2394 0.930 . S
H2381 C2396 0.960 . S
H2382 C2396 0.960 . S
H2383 C2396 0.960 . S
C2384 H2376 0.929 . S
C2384 C2385 1.377 . S
C2384 C2386 1.384 . S
C2385 C2384 1.377 . S
C2385 C2391 1.390 . S
C2386 H2377 0.930 . S
C2386 C2384 1.384 . S
C2386 C2387 1.372 . S
C2387 C2386 1.372 . S
C2387 C2388 1.400 . S
C2387 C2392 1.490 . S
C2388 H2378 0.930 . S
C2388 C2387 1.400 . S
C2388 C2391 1.386 . S
H2389 C2405 0.930 . S
H2390 C2406 0.931 . S
C2391 H2379 0.929 . S
C2391 C2385 1.390 . S
C2391 C2388 1.386 . S
C2392 C2387 1.490 . S
C2392 C2394 1.395 . S
C2392 C2395 1.403 . S
H2393 C2399 0.930 . S
C2394 H2380 0.930 . S
C2394 C2392 1.395 . S
C2394 C2397 1.403 . S
C2395 C2392 1.403 . S
C2395 C2396 1.524 . S
C2395 C2399 1.400 . S
C2396 H2381 0.960 . S
C2396 H2382 0.960 . S
C2396 H2383 0.960 . S
C2396 C2395 1.524 . S
C2397 C2394 1.403 . S
C2397 C2398 1.392 . S
C2397 C2401 1.495 . S
C2398 C2397 1.392 . S
C2398 C2399 1.385 . S
C2398 C2400 1.478 . S
C2399 H2393 0.930 . S
C2399 C2395 1.400 . S
C2399 C2398 1.385 . S
C2400 C2398 1.478 . S
C2400 C2402 1.381 . S
C2400 C2406 1.383 . S
C2401 C2397 1.495 . S
C2401 H2407 0.959 . S
C2401 H2408 0.961 . S
C2401 H2409 0.960 . S
C2402 C2400 1.381 . S
C2402 C2403 1.394 . S
C2402 H2410 0.930 . S
C2403 C2402 1.394 . S
C2403 C2404 1.383 . S
C2403 H2411 0.929 . S
C2404 C2403 1.383 . S
C2404 C2405 1.377 . S
C2405 H2389 0.930 . S
C2405 C2404 1.377 . S
C2405 C2406 1.379 . S
C2406 H2390 0.931 . S
C2406 C2400 1.383 . S
C2406 C2405 1.379 . S
H2407 C2401 0.959 . S
H2408 C2401 0.961 . S
H2409 C2401 0.960 . S
H2410 C2402 0.930 . S
H2411 C2403 0.929 . S
H2412 C2420 0.929 1_655 S
H2413 C2422 0.930 1_655 S
H2414 C2424 0.930 . S
H2415 C2427 0.929 . S
H2416 C2430 0.914 1_655 S
H2417 C2432 0.960 . S
H2418 C2432 0.960 . S
H2419 C2432 0.960 . S
C2420 H2412 0.929 1_455 S
C2420 C2421 1.377 . S
C2420 C2422 1.384 . S
C2421 C2420 1.377 . S
C2421 C2427 1.390 . S
C2422 H2413 0.930 1_455 S
C2422 C2420 1.384 . S
C2422 C2423 1.372 . S
C2423 C2422 1.372 . S
C2423 C2424 1.400 . S
C2423 C2428 1.490 . S
C2424 H2414 0.930 . S
C2424 C2423 1.400 . S
C2424 C2427 1.386 . S
H2425 C2441 0.930 . S
H2426 C2442 0.931 . S
C2427 H2415 0.929 . S
C2427 C2421 1.390 . S
C2427 C2424 1.386 . S
C2428 C2423 1.490 . S
C2428 C2430 1.452 . S
C2428 C2431 1.403 . S
H2429 C2435 0.930 . S
C2430 H2416 0.914 1_455 S
C2430 C2428 1.452 . S
C2430 C2433 1.365 1_455 S
C2431 C2428 1.403 . S
C2431 C2432 1.524 . S
C2431 C2435 1.400 . S
C2432 H2417 0.960 . S
C2432 H2418 0.960 . S
C2432 H2419 0.960 . S
C2432 C2431 1.524 . S
C2433 C2430 1.365 1_655 S
C2433 C2434 1.392 1_655 S
C2433 C2437 1.495 . S
C2434 C2433 1.392 1_455 S
C2434 C2435 1.385 . S
C2434 C2436 1.478 . S
C2435 H2429 0.930 . S
C2435 C2431 1.400 . S
C2435 C2434 1.385 . S
C2436 C2434 1.478 . S
C2436 C2438 1.381 1_455 S
C2436 C2442 1.383 . S
C2437 C2433 1.495 . S
C2437 H2443 0.959 . S
C2437 H2444 0.961 . S
C2437 H2445 0.960 . S
C2438 C2436 1.381 1_655 S
C2438 C2439 1.394 . S
C2438 H2446 0.930 . S
C2439 C2438 1.394 . S
C2439 C2440 1.383 1_655 S
C2439 H2447 0.929 . S
C2440 C2439 1.383 1_455 S
C2440 C2441 1.377 . S
C2441 H2425 0.930 . S
C2441 C2440 1.377 . S
C2441 C2442 1.379 . S
C2442 H2426 0.931 . S
C2442 C2436 1.383 . S
C2442 C2441 1.379 . S
H2443 C2437 0.959 . S
H2444 C2437 0.961 . S
H2445 C2437 0.960 . S
H2446 C2438 0.930 . S
H2447 C2439 0.929 . S
H2448 C2456 0.929 . S
H2449 C2458 0.930 . S
H2450 C2460 0.930 . S
H2451 C2463 0.929 . S
H2452 C2466 0.930 . S
H2453 C2468 0.960 . S
H2454 C2468 0.960 . S
H2455 C2468 0.960 . S
C2456 H2448 0.929 . S
C2456 C2457 1.377 . S
C2456 C2458 1.384 . S
C2457 C2456 1.377 . S
C2457 C2463 1.390 . S
C2458 H2449 0.930 . S
C2458 C2456 1.384 . S
C2458 C2459 1.372 . S
C2459 C2458 1.372 . S
C2459 C2460 1.400 . S
C2459 C2464 1.490 . S
C2460 H2450 0.930 . S
C2460 C2459 1.400 . S
C2460 C2463 1.386 . S
H2461 C2477 0.930 . S
H2462 C2478 0.931 . S
C2463 H2451 0.929 . S
C2463 C2457 1.390 . S
C2463 C2460 1.386 . S
C2464 C2459 1.490 . S
C2464 C2466 1.395 . S
C2464 C2467 1.403 . S
H2465 C2471 0.930 . S
C2466 H2452 0.930 . S
C2466 C2464 1.395 . S
C2466 C2469 1.403 . S
C2467 C2464 1.403 . S
C2467 C2468 1.524 . S
C2467 C2471 1.400 . S
C2468 H2453 0.960 . S
C2468 H2454 0.960 . S
C2468 H2455 0.960 . S
C2468 C2467 1.524 . S
C2469 C2466 1.403 . S
C2469 C2470 1.392 . S
C2469 C2473 1.495 . S
C2470 C2469 1.392 . S
C2470 C2471 1.385 . S
C2470 C2472 1.478 . S
C2471 H2465 0.930 . S
C2471 C2467 1.400 . S
C2471 C2470 1.385 . S
C2472 C2470 1.478 . S
C2472 C2474 1.381 . S
C2472 C2478 1.383 . S
C2473 C2469 1.495 . S
C2473 H2479 0.959 . S
C2473 H2480 0.961 . S
C2473 H2481 0.960 . S
C2474 C2472 1.381 . S
C2474 C2475 1.394 . S
C2474 H2482 0.930 . S
C2475 C2474 1.394 . S
C2475 C2476 1.383 . S
C2475 H2483 0.929 . S
C2476 C2475 1.383 . S
C2476 C2477 1.377 . S
C2477 H2461 0.930 . S
C2477 C2476 1.377 . S
C2477 C2478 1.379 . S
C2478 H2462 0.931 . S
C2478 C2472 1.383 . S
C2478 C2477 1.379 . S
H2479 C2473 0.959 . S
H2480 C2473 0.961 . S
H2481 C2473 0.960 . S
H2482 C2474 0.930 . S
H2483 C2475 0.929 . S
H2484 C2492 0.929 . S
H2485 C2494 0.930 . S
H2486 C2496 0.930 1_545 S
H2487 C2499 0.929 1_545 S
H2488 C2502 0.930 . S
H2489 C2504 0.960 . S
H2490 C2504 0.960 . S
H2491 C2504 0.960 . S
C2492 H2484 0.929 . S
C2492 C2493 1.377 . S
C2492 C2494 1.384 . S
C2493 C2492 1.377 . S
C2493 C2499 1.390 . S
C2494 H2485 0.930 . S
C2494 C2492 1.384 . S
C2494 C2495 1.372 . S
C2495 C2494 1.372 . S
C2495 C2496 1.400 . S
C2495 C2500 1.490 . S
C2496 H2486 0.930 1_565 S
C2496 C2495 1.400 . S
C2496 C2499 1.386 . S
H2497 C2513 0.930 . S
H2498 C2514 0.931 . S
C2499 H2487 0.929 1_565 S
C2499 C2493 1.390 . S
C2499 C2496 1.386 . S
C2500 C2495 1.490 . S
C2500 C2502 1.395 . S
C2500 C2503 1.403 . S
H2501 C2507 0.930 . S
C2502 H2488 0.930 . S
C2502 C2500 1.395 . S
C2502 C2505 1.403 . S
C2503 C2500 1.403 . S
C2503 C2504 1.524 . S
C2503 C2507 1.400 . S
C2504 H2489 0.960 . S
C2504 H2490 0.960 . S
C2504 H2491 0.960 . S
C2504 C2503 1.524 . S
C2505 C2502 1.403 . S
C2505 C2506 1.392 . S
C2505 C2509 1.495 . S
C2506 C2505 1.392 . S
C2506 C2507 1.385 . S
C2506 C2508 1.478 . S
C2507 H2501 0.930 . S
C2507 C2503 1.400 . S
C2507 C2506 1.385 . S
C2508 C2506 1.478 . S
C2508 C2510 1.381 . S
C2508 C2514 1.383 1_565 S
C2509 C2505 1.495 . S
C2509 H2515 0.959 . S
C2509 H2516 0.961 1_565 S
C2509 H2517 0.960 . S
C2510 C2508 1.381 . S
C2510 C2511 1.394 . S
C2510 H2518 0.930 . S
C2511 C2510 1.394 . S
C2511 C2512 1.383 . S
C2511 H2519 0.929 . S
C2512 C2511 1.383 . S
C2512 C2513 1.377 1_565 S
C2513 H2497 0.930 . S
C2513 C2512 1.377 1_545 S
C2513 C2514 1.379 . S
C2514 H2498 0.931 . S
C2514 C2508 1.383 1_545 S
C2514 C2513 1.379 . S
H2515 C2509 0.959 . S
H2516 C2509 0.961 1_545 S
H2517 C2509 0.960 . S
H2518 C2510 0.930 . S
H2519 C2511 0.929 . S
H2520 C2528 0.899 1_545 S
H2521 C2530 0.930 . S
H2522 C2532 0.930 . S
H2523 C2535 0.929 . S
H2524 C2538 0.930 1_545 S
H2525 C2540 0.960 . S
H2526 C2540 0.960 . S
H2527 C2540 0.960 . S
C2528 H2520 0.899 1_565 S
C2528 C2529 1.459 . S
C2528 C2530 1.337 1_565 S
C2529 C2528 1.459 . S
C2529 C2535 1.390 . S
C2530 H2521 0.930 . S
C2530 C2528 1.337 1_545 S
C2530 C2531 1.372 1_545 S
C2531 C2530 1.372 1_565 S
C2531 C2532 1.400 . S
C2531 C2536 1.490 . S
C2532 H2522 0.930 . S
C2532 C2531 1.400 . S
C2532 C2535 1.386 . S
H2533 C2549 0.930 . S
H2534 C2550 0.931 . S
C2535 H2523 0.929 . S
C2535 C2529 1.390 . S
C2535 C2532 1.386 . S
C2536 C2531 1.490 . S
C2536 C2538 1.397 . S
C2536 C2539 1.403 . S
H2537 C2543 0.930 . S
C2538 H2524 0.930 1_565 S
C2538 C2536 1.397 . S
C2538 C2541 1.401 1_565 S
C2539 C2536 1.403 . S
C2539 C2540 1.524 . S
C2539 C2543 1.400 . S
C2540 H2525 0.960 . S
C2540 H2526 0.960 . S
C2540 H2527 0.960 . S
C2540 C2539 1.524 . S
C2541 C2538 1.401 1_545 S
C2541 C2542 1.392 1_545 S
C2541 C2545 1.495 . S
C2542 C2541 1.392 1_565 S
C2542 C2543 1.385 . S
C2542 C2544 1.478 . S
C2543 H2537 0.930 . S
C2543 C2539 1.400 . S
C2543 C2542 1.385 . S
C2544 C2542 1.478 . S
C2544 C2546 1.381 1_565 S
C2544 C2550 1.383 . S
C2545 C2541 1.495 . S
C2545 H2551 0.959 . S
C2545 H2552 0.961 . S
C2545 H2553 0.960 . S
C2546 C2544 1.381 1_545 S
C2546 C2547 1.394 . S
C2546 H2554 0.930 . S
C2547 C2546 1.394 . S
C2547 C2548 1.373 1_545 S
C2547 H2555 0.929 . S
C2548 C2547 1.373 1_565 S
C2548 C2549 1.401 . S
C2549 H2533 0.930 . S
C2549 C2548 1.401 . S
C2549 C2550 1.379 . S
C2550 H2534 0.931 . S
C2550 C2544 1.383 . S
C2550 C2549 1.379 . S
H2551 C2545 0.959 . S
H2552 C2545 0.961 . S
H2553 C2545 0.960 . S
H2554 C2546 0.930 . S
H2555 C2547 0.929 . S
H2556 C2564 0.929 . S
H2557 C2566 0.930 . S
H2558 C2568 0.930 . S
H2559 C2571 0.925 . S
H2560 C2574 0.930 . S
H2561 C2576 0.960 . S
H2562 C2576 0.944 1_455 S
H2563 C2576 0.960 . S
C2564 H2556 0.929 . S
C2564 C2565 1.377 . S
C2564 C2566 1.384 . S
C2565 C2564 1.377 . S
C2565 C2571 1.392 1_455 S
C2566 H2557 0.930 . S
C2566 C2564 1.384 . S
C2566 C2567 1.372 . S
C2567 C2566 1.372 . S
C2567 C2568 1.400 1_455 S
C2567 C2572 1.490 . S
C2568 H2558 0.930 . S
C2568 C2567 1.400 1_655 S
C2568 C2571 1.387 . S
H2569 C2585 0.930 . S
H2570 C2586 0.931 . S
C2571 H2559 0.925 . S
C2571 C2565 1.392 1_655 S
C2571 C2568 1.387 . S
C2572 C2567 1.490 . S
C2572 C2574 1.395 . S
C2572 C2575 1.403 . S
H2573 C2579 0.930 1_655 S
C2574 H2560 0.930 . S
C2574 C2572 1.395 . S
C2574 C2577 1.403 . S
C2575 C2572 1.403 . S
C2575 C2576 1.524 1_455 S
C2575 C2579 1.400 . S
C2576 H2561 0.960 . S
C2576 H2562 0.944 1_655 S
C2576 H2563 0.960 . S
C2576 C2575 1.524 1_655 S
C2577 C2574 1.403 . S
C2577 C2578 1.392 . S
C2577 C2581 1.495 . S
C2578 C2577 1.392 . S
C2578 C2579 1.385 . S
C2578 C2580 1.478 . S
C2579 H2573 0.930 1_455 S
C2579 C2575 1.400 . S
C2579 C2578 1.385 . S
C2580 C2578 1.478 . S
C2580 C2582 1.381 . S
C2580 C2586 1.383 1_455 S
C2581 C2577 1.495 . S
C2581 H2587 0.959 . S
C2581 H2588 0.961 . S
C2581 H2589 0.960 . S
C2582 C2580 1.381 . S
C2582 C2583 1.394 . S
C2582 H2590 0.930 . S
C2583 C2582 1.394 . S
C2583 C2584 1.410 . S
C2583 H2591 0.929 . S
C2584 C2583 1.410 . S
C2584 C2585 1.335 1_455 S
C2585 H2569 0.930 . S
C2585 C2584 1.335 1_655 S
C2585 C2586 1.379 . S
C2586 H2570 0.931 . S
C2586 C2580 1.383 1_655 S
C2586 C2585 1.379 . S
H2587 C2581 0.959 . S
H2588 C2581 0.961 . S
H2589 C2581 0.960 . S
H2590 C2582 0.930 . S
H2591 C2583 0.929 . S
H2592 C2600 0.929 . S
H2593 C2602 0.930 . S
H2594 C2604 0.930 . S
H2595 C2607 0.929 . S
H2596 C2610 0.930 . S
H2597 C2612 0.960 . S
H2598 C2612 0.960 . S
H2599 C2612 0.960 . S
C2600 H2592 0.929 . S
C2600 C2601 1.377 . S
C2600 C2602 1.384 . S
C2601 C2600 1.377 . S
C2601 C2607 1.390 . S
C2602 H2593 0.930 . S
C2602 C2600 1.384 . S
C2602 C2603 1.372 . S
C2603 C2602 1.372 . S
C2603 C2604 1.400 . S
C2603 C2608 1.490 . S
C2604 H2594 0.930 . S
C2604 C2603 1.400 . S
C2604 C2607 1.386 . S
H2605 C2621 0.930 . S
H2606 C2622 0.931 . S
C2607 H2595 0.929 . S
C2607 C2601 1.390 . S
C2607 C2604 1.386 . S
C2608 C2603 1.490 . S
C2608 C2610 1.395 . S
C2608 C2611 1.403 . S
H2609 C2615 0.930 . S
C2610 H2596 0.930 . S
C2610 C2608 1.395 . S
C2610 C2613 1.403 . S
C2611 C2608 1.403 . S
C2611 C2612 1.524 . S
C2611 C2615 1.400 . S
C2612 H2597 0.960 . S
C2612 H2598 0.960 . S
C2612 H2599 0.960 . S
C2612 C2611 1.524 . S
C2613 C2610 1.403 . S
C2613 C2614 1.392 . S
C2613 C2617 1.495 . S
C2614 C2613 1.392 . S
C2614 C2615 1.385 . S
C2614 C2616 1.478 . S
C2615 H2609 0.930 . S
C2615 C2611 1.400 . S
C2615 C2614 1.385 . S
C2616 C2614 1.478 . S
C2616 C2618 1.381 . S
C2616 C2622 1.383 . S
C2617 C2613 1.495 . S
C2617 H2623 0.959 . S
C2617 H2624 0.961 . S
C2617 H2625 0.960 . S
C2618 C2616 1.381 . S
C2618 C2619 1.394 . S
C2618 H2626 0.930 . S
C2619 C2618 1.394 . S
C2619 C2620 1.383 . S
C2619 H2627 0.929 . S
C2620 C2619 1.383 . S
C2620 C2621 1.377 . S
C2621 H2605 0.930 . S
C2621 C2620 1.377 . S
C2621 C2622 1.379 . S
C2622 H2606 0.931 . S
C2622 C2616 1.383 . S
C2622 C2621 1.379 . S
H2623 C2617 0.959 . S
H2624 C2617 0.961 . S
H2625 C2617 0.960 . S
H2626 C2618 0.930 . S
H2627 C2619 0.929 . S
H2628 C2636 0.929 . S
H2629 C2638 0.930 . S
H2630 C2640 0.930 . S
H2631 C2643 0.929 . S
H2632 C2646 0.930 . S
H2633 C2648 0.960 . S
H2634 C2648 0.960 . S
H2635 C2648 0.960 . S
C2636 H2628 0.929 . S
C2636 C2637 1.377 . S
C2636 C2638 1.384 . S
C2637 C2636 1.377 . S
C2637 C2643 1.390 . S
C2638 H2629 0.930 . S
C2638 C2636 1.384 . S
C2638 C2639 1.372 . S
C2639 C2638 1.372 . S
C2639 C2640 1.400 . S
C2639 C2644 1.490 . S
C2640 H2630 0.930 . S
C2640 C2639 1.400 . S
C2640 C2643 1.386 . S
H2641 C2657 0.930 . S
H2642 C2658 0.931 . S
C2643 H2631 0.929 . S
C2643 C2637 1.390 . S
C2643 C2640 1.386 . S
C2644 C2639 1.490 . S
C2644 C2646 1.395 . S
C2644 C2647 1.403 . S
H2645 C2651 0.930 . S
C2646 H2632 0.930 . S
C2646 C2644 1.395 . S
C2646 C2649 1.403 . S
C2647 C2644 1.403 . S
C2647 C2648 1.524 . S
C2647 C2651 1.400 . S
C2648 H2633 0.960 . S
C2648 H2634 0.960 . S
C2648 H2635 0.960 . S
C2648 C2647 1.524 . S
C2649 C2646 1.403 . S
C2649 C2650 1.392 . S
C2649 C2653 1.495 . S
C2650 C2649 1.392 . S
C2650 C2651 1.385 . S
C2650 C2652 1.478 . S
C2651 H2645 0.930 . S
C2651 C2647 1.400 . S
C2651 C2650 1.385 . S
C2652 C2650 1.478 . S
C2652 C2654 1.381 . S
C2652 C2658 1.383 . S
C2653 C2649 1.495 . S
C2653 H2659 0.959 . S
C2653 H2660 0.961 . S
C2653 H2661 0.960 . S
C2654 C2652 1.381 . S
C2654 C2655 1.394 . S
C2654 H2662 0.930 . S
C2655 C2654 1.394 . S
C2655 C2656 1.383 . S
C2655 H2663 0.929 . S
C2656 C2655 1.383 . S
C2656 C2657 1.377 . S
C2657 H2641 0.930 . S
C2657 C2656 1.377 . S
C2657 C2658 1.379 . S
C2658 H2642 0.931 . S
C2658 C2652 1.383 . S
C2658 C2657 1.379 . S
H2659 C2653 0.959 . S
H2660 C2653 0.961 . S
H2661 C2653 0.960 . S
H2662 C2654 0.930 . S
H2663 C2655 0.929 . S
H2664 C2672 0.929 . S
H2665 C2674 0.930 . S
H2666 C2676 0.930 . S
H2667 C2679 0.929 . S
H2668 C2682 0.930 . S
H2669 C2684 0.960 . S
H2670 C2684 0.960 . S
H2671 C2684 0.960 . S
C2672 H2664 0.929 . S
C2672 C2673 1.377 . S
C2672 C2674 1.384 . S
C2673 C2672 1.377 . S
C2673 C2679 1.390 . S
C2674 H2665 0.930 . S
C2674 C2672 1.384 . S
C2674 C2675 1.372 . S
C2675 C2674 1.372 . S
C2675 C2676 1.400 . S
C2675 C2680 1.490 . S
C2676 H2666 0.930 . S
C2676 C2675 1.400 . S
C2676 C2679 1.386 . S
H2677 C2693 0.930 . S
H2678 C2694 0.931 . S
C2679 H2667 0.929 . S
C2679 C2673 1.390 . S
C2679 C2676 1.386 . S
C2680 C2675 1.490 . S
C2680 C2682 1.395 . S
C2680 C2683 1.403 . S
H2681 C2687 0.930 . S
C2682 H2668 0.930 . S
C2682 C2680 1.395 . S
C2682 C2685 1.403 . S
C2683 C2680 1.403 . S
C2683 C2684 1.524 . S
C2683 C2687 1.400 . S
C2684 H2669 0.960 . S
C2684 H2670 0.960 . S
C2684 H2671 0.960 . S
C2684 C2683 1.524 . S
C2685 C2682 1.403 . S
C2685 C2686 1.392 . S
C2685 C2689 1.495 . S
C2686 C2685 1.392 . S
C2686 C2687 1.385 . S
C2686 C2688 1.478 . S
C2687 H2681 0.930 . S
C2687 C2683 1.400 . S
C2687 C2686 1.385 . S
C2688 C2686 1.478 . S
C2688 C2690 1.381 . S
C2688 C2694 1.383 . S
C2689 C2685 1.495 . S
C2689 H2695 0.959 . S
C2689 H2696 0.961 . S
C2689 H2697 0.960 . S
C2690 C2688 1.381 . S
C2690 C2691 1.394 . S
C2690 H2698 0.930 . S
C2691 C2690 1.394 . S
C2691 C2692 1.383 . S
C2691 H2699 0.929 . S
C2692 C2691 1.383 . S
C2692 C2693 1.377 . S
C2693 H2677 0.930 . S
C2693 C2692 1.377 . S
C2693 C2694 1.379 . S
C2694 H2678 0.931 . S
C2694 C2688 1.383 . S
C2694 C2693 1.379 . S
H2695 C2689 0.959 . S
H2696 C2689 0.961 . S
H2697 C2689 0.960 . S
H2698 C2690 0.930 . S
H2699 C2691 0.929 . S
H2700 C2708 0.929 . S
H2701 C2710 0.930 . S
H2702 C2712 0.930 . S
H2703 C2715 0.929 . S
H2704 C2718 0.930 . S
H2705 C2720 0.960 . S
H2706 C2720 0.960 . S
H2707 C2720 0.960 . S
C2708 H2700 0.929 . S
C2708 C2709 1.377 . S
C2708 C2710 1.384 . S
C2709 C2708 1.377 . S
C2709 C2715 1.390 . S
C2710 H2701 0.930 . S
C2710 C2708 1.384 . S
C2710 C2711 1.372 . S
C2711 C2710 1.372 . S
C2711 C2712 1.400 . S
C2711 C2716 1.490 . S
C2712 H2702 0.930 . S
C2712 C2711 1.400 . S
C2712 C2715 1.386 . S
H2713 C2729 0.930 . S
H2714 C2730 0.931 . S
C2715 H2703 0.929 . S
C2715 C2709 1.390 . S
C2715 C2712 1.386 . S
C2716 C2711 1.490 . S
C2716 C2718 1.395 . S
C2716 C2719 1.403 . S
H2717 C2723 0.930 . S
C2718 H2704 0.930 . S
C2718 C2716 1.395 . S
C2718 C2721 1.403 . S
C2719 C2716 1.403 . S
C2719 C2720 1.524 . S
C2719 C2723 1.400 . S
C2720 H2705 0.960 . S
C2720 H2706 0.960 . S
C2720 H2707 0.960 . S
C2720 C2719 1.524 . S
C2721 C2718 1.403 . S
C2721 C2722 1.392 . S
C2721 C2725 1.495 . S
C2722 C2721 1.392 . S
C2722 C2723 1.385 . S
C2722 C2724 1.478 . S
C2723 H2717 0.930 . S
C2723 C2719 1.400 . S
C2723 C2722 1.385 . S
C2724 C2722 1.478 . S
C2724 C2726 1.381 . S
C2724 C2730 1.383 . S
C2725 C2721 1.495 . S
C2725 H2731 0.959 . S
C2725 H2732 0.961 . S
C2725 H2733 0.960 . S
C2726 C2724 1.381 . S
C2726 C2727 1.394 . S
C2726 H2734 0.930 . S
C2727 C2726 1.394 . S
C2727 C2728 1.383 . S
C2727 H2735 0.929 . S
C2728 C2727 1.383 . S
C2728 C2729 1.377 . S
C2729 H2713 0.930 . S
C2729 C2728 1.377 . S
C2729 C2730 1.379 . S
C2730 H2714 0.931 . S
C2730 C2724 1.383 . S
C2730 C2729 1.379 . S
H2731 C2725 0.959 . S
H2732 C2725 0.961 . S
H2733 C2725 0.960 . S
H2734 C2726 0.930 . S
H2735 C2727 0.929 . S
H2736 C2744 0.914 1_565 S
H2737 C2746 0.930 1_565 S
H2738 C2748 0.930 . S
H2739 C2751 0.929 . S
H2740 C2754 0.930 . S
H2741 C2756 0.960 . S
H2742 C2756 0.952 1_565 S
H2743 C2756 0.960 . S
C2744 H2736 0.914 1_545 S
C2744 C2745 1.377 . S
C2744 C2746 1.384 . S
C2745 C2744 1.377 . S
C2745 C2751 1.390 . S
C2746 H2737 0.930 1_545 S
C2746 C2744 1.384 . S
C2746 C2747 1.372 . S
C2747 C2746 1.372 . S
C2747 C2748 1.400 . S
C2747 C2752 1.490 . S
C2748 H2738 0.930 . S
C2748 C2747 1.400 . S
C2748 C2751 1.386 . S
H2749 C2765 0.930 . S
H2750 C2766 0.931 . S
C2751 H2739 0.929 . S
C2751 C2745 1.390 . S
C2751 C2748 1.386 . S
C2752 C2747 1.490 . S
C2752 C2754 1.395 . S
C2752 C2755 1.403 . S
H2753 C2759 0.930 . S
C2754 H2740 0.930 . S
C2754 C2752 1.395 . S
C2754 C2757 1.403 . S
C2755 C2752 1.403 . S
C2755 C2756 1.524 . S
C2755 C2759 1.400 . S
C2756 H2741 0.960 . S
C2756 H2742 0.952 1_545 S
C2756 H2743 0.960 . S
C2756 C2755 1.524 . S
C2757 C2754 1.403 . S
C2757 C2758 1.392 . S
C2757 C2761 1.495 . S
C2758 C2757 1.392 . S
C2758 C2759 1.385 . S
C2758 C2760 1.478 . S
C2759 H2753 0.930 . S
C2759 C2755 1.400 . S
C2759 C2758 1.385 . S
C2760 C2758 1.478 . S
C2760 C2762 1.381 1_545 S
C2760 C2766 1.383 . S
C2761 C2757 1.495 . S
C2761 H2767 0.959 . S
C2761 H2768 0.961 . S
C2761 H2769 0.960 . S
C2762 C2760 1.381 1_565 S
C2762 C2763 1.394 . S
C2762 H2770 0.930 . S
C2763 C2762 1.394 . S
C2763 C2764 1.383 1_565 S
C2763 H2771 0.929 . S
C2764 C2763 1.383 1_545 S
C2764 C2765 1.377 . S
C2765 H2749 0.930 . S
C2765 C2764 1.377 . S
C2765 C2766 1.379 . S
C2766 H2750 0.931 . S
C2766 C2760 1.383 . S
C2766 C2765 1.379 . S
H2767 C2761 0.959 . S
H2768 C2761 0.961 . S
H2769 C2761 0.960 . S
H2770 C2762 0.930 . S
H2771 C2763 0.929 . S
H2772 C2780 0.929 . S
H2773 C2782 0.930 . S
H2774 C2784 0.930 . S
H2775 C2787 0.929 . S
H2776 C2790 0.930 . S
H2777 C2792 0.960 . S
H2778 C2792 0.960 . S
H2779 C2792 0.960 . S
C2780 H2772 0.929 . S
C2780 C2781 1.377 . S
C2780 C2782 1.384 . S
C2781 C2780 1.377 . S
C2781 C2787 1.390 . S
C2782 H2773 0.930 . S
C2782 C2780 1.384 . S
C2782 C2783 1.372 . S
C2783 C2782 1.372 . S
C2783 C2784 1.400 . S
C2783 C2788 1.490 . S
C2784 H2774 0.930 . S
C2784 C2783 1.400 . S
C2784 C2787 1.386 . S
H2785 C2801 0.930 . S
H2786 C2802 0.931 . S
C2787 H2775 0.929 . S
C2787 C2781 1.390 . S
C2787 C2784 1.386 . S
C2788 C2783 1.490 . S
C2788 C2790 1.395 . S
C2788 C2791 1.403 1_655 S
H2789 C2795 0.930 . S
C2790 H2776 0.930 . S
C2790 C2788 1.395 . S
C2790 C2793 1.403 . S
C2791 C2788 1.403 1_455 S
C2791 C2792 1.524 . S
C2791 C2795 1.400 . S
C2792 H2777 0.960 . S
C2792 H2778 0.960 . S
C2792 H2779 0.960 . S
C2792 C2791 1.524 . S
C2793 C2790 1.403 . S
C2793 C2794 1.392 . S
C2793 C2797 1.495 . S
C2794 C2793 1.392 . S
C2794 C2795 1.385 1_655 S
C2794 C2796 1.478 . S
C2795 H2789 0.930 . S
C2795 C2791 1.400 . S
C2795 C2794 1.385 1_455 S
C2796 C2794 1.478 . S
C2796 C2798 1.381 . S
C2796 C2802 1.383 . S
C2797 C2793 1.495 . S
C2797 H2803 0.959 . S
C2797 H2804 0.961 . S
C2797 H2805 0.960 . S
C2798 C2796 1.381 . S
C2798 C2799 1.394 . S
C2798 H2806 0.930 . S
C2799 C2798 1.394 . S
C2799 C2800 1.383 . S
C2799 H2807 0.929 . S
C2800 C2799 1.383 . S
C2800 C2801 1.377 . S
C2801 H2785 0.930 . S
C2801 C2800 1.377 . S
C2801 C2802 1.379 . S
C2802 H2786 0.931 . S
C2802 C2796 1.383 . S
C2802 C2801 1.379 . S
H2803 C2797 0.959 . S
H2804 C2797 0.961 . S
H2805 C2797 0.960 . S
H2806 C2798 0.930 . S
H2807 C2799 0.929 . S
H2808 C2816 0.929 . S
H2809 C2818 0.930 . S
H2810 C2820 0.930 . S
H2811 C2823 0.929 . S
H2812 C2826 0.930 . S
H2813 C2828 0.960 . S
H2814 C2828 0.960 . S
H2815 C2828 0.960 . S
C2816 H2808 0.929 . S
C2816 C2817 1.377 . S
C2816 C2818 1.384 . S
C2817 C2816 1.377 . S
C2817 C2823 1.390 . S
C2818 H2809 0.930 . S
C2818 C2816 1.384 . S
C2818 C2819 1.372 . S
C2819 C2818 1.372 . S
C2819 C2820 1.400 . S
C2819 C2824 1.490 . S
C2820 H2810 0.930 . S
C2820 C2819 1.400 . S
C2820 C2823 1.386 . S
H2821 C2837 0.930 . S
H2822 C2838 0.931 . S
C2823 H2811 0.929 . S
C2823 C2817 1.390 . S
C2823 C2820 1.386 . S
C2824 C2819 1.490 . S
C2824 C2826 1.395 . S
C2824 C2827 1.403 . S
H2825 C2831 0.930 . S
C2826 H2812 0.930 . S
C2826 C2824 1.395 . S
C2826 C2829 1.403 . S
C2827 C2824 1.403 . S
C2827 C2828 1.524 . S
C2827 C2831 1.400 . S
C2828 H2813 0.960 . S
C2828 H2814 0.960 . S
C2828 H2815 0.960 . S
C2828 C2827 1.524 . S
C2829 C2826 1.403 . S
C2829 C2830 1.392 . S
C2829 C2833 1.495 . S
C2830 C2829 1.392 . S
C2830 C2831 1.385 . S
C2830 C2832 1.478 . S
C2831 H2825 0.930 . S
C2831 C2827 1.400 . S
C2831 C2830 1.385 . S
C2832 C2830 1.478 . S
C2832 C2834 1.381 . S
C2832 C2838 1.383 . S
C2833 C2829 1.495 . S
C2833 H2839 0.959 . S
C2833 H2840 0.961 . S
C2833 H2841 0.960 . S
C2834 C2832 1.381 . S
C2834 C2835 1.394 . S
C2834 H2842 0.930 . S
C2835 C2834 1.394 . S
C2835 C2836 1.383 . S
C2835 H2843 0.929 . S
C2836 C2835 1.383 . S
C2836 C2837 1.377 . S
C2837 H2821 0.930 . S
C2837 C2836 1.377 . S
C2837 C2838 1.379 . S
C2838 H2822 0.931 . S
C2838 C2832 1.383 . S
C2838 C2837 1.379 . S
H2839 C2833 0.959 . S
H2840 C2833 0.961 . S
H2841 C2833 0.960 . S
H2842 C2834 0.930 . S
H2843 C2835 0.929 . S
H2844 C2852 0.929 . S
H2845 C2854 0.930 . S
H2846 C2856 0.930 . S
H2847 C2859 0.929 . S
H2848 C2862 0.930 . S
H2849 C2864 0.960 . S
H2850 C2864 0.960 . S
H2851 C2864 0.960 . S
C2852 H2844 0.929 . S
C2852 C2853 1.377 . S
C2852 C2854 1.384 . S
C2853 C2852 1.377 . S
C2853 C2859 1.390 . S
C2854 H2845 0.930 . S
C2854 C2852 1.384 . S
C2854 C2855 1.372 . S
C2855 C2854 1.372 . S
C2855 C2856 1.400 . S
C2855 C2860 1.490 . S
C2856 H2846 0.930 . S
C2856 C2855 1.400 . S
C2856 C2859 1.386 . S
H2857 C2873 0.930 . S
H2858 C2874 0.931 . S
C2859 H2847 0.929 . S
C2859 C2853 1.390 . S
C2859 C2856 1.386 . S
C2860 C2855 1.490 . S
C2860 C2862 1.395 . S
C2860 C2863 1.403 . S
H2861 C2867 0.930 . S
C2862 H2848 0.930 . S
C2862 C2860 1.395 . S
C2862 C2865 1.403 . S
C2863 C2860 1.403 . S
C2863 C2864 1.524 . S
C2863 C2867 1.400 . S
C2864 H2849 0.960 . S
C2864 H2850 0.960 . S
C2864 H2851 0.960 . S
C2864 C2863 1.524 . S
C2865 C2862 1.403 . S
C2865 C2866 1.392 . S
C2865 C2869 1.495 . S
C2866 C2865 1.392 . S
C2866 C2867 1.385 . S
C2866 C2868 1.478 . S
C2867 H2861 0.930 . S
C2867 C2863 1.400 . S
C2867 C2866 1.385 . S
C2868 C2866 1.478 . S
C2868 C2870 1.381 . S
C2868 C2874 1.383 . S
C2869 C2865 1.495 . S
C2869 H2875 0.959 . S
C2869 H2876 0.961 . S
C2869 H2877 0.960 . S
C2870 C2868 1.381 . S
C2870 C2871 1.394 . S
C2870 H2878 0.930 . S
C2871 C2870 1.394 . S
C2871 C2872 1.383 . S
C2871 H2879 0.929 . S
C2872 C2871 1.383 . S
C2872 C2873 1.377 . S
C2873 H2857 0.930 . S
C2873 C2872 1.377 . S
C2873 C2874 1.379 . S
C2874 H2858 0.931 . S
C2874 C2868 1.383 . S
C2874 C2873 1.379 . S
H2875 C2869 0.959 . S
H2876 C2869 0.961 . S
H2877 C2869 0.960 . S
H2878 C2870 0.930 . S
H2879 C2871 0.929 . S
H2880 C2888 0.929 . S
H2881 C2890 0.930 . S
H2882 C2892 0.930 . S
H2883 C2895 0.929 . S
H2884 C2898 0.930 . S
H2885 C2900 0.960 . S
H2886 C2900 0.960 . S
H2887 C2900 0.960 . S
C2888 H2880 0.929 . S
C2888 C2889 1.377 . S
C2888 C2890 1.384 . S
C2889 C2888 1.377 . S
C2889 C2895 1.390 . S
C2890 H2881 0.930 . S
C2890 C2888 1.384 . S
C2890 C2891 1.372 . S
C2891 C2890 1.372 . S
C2891 C2892 1.400 . S
C2891 C2896 1.490 . S
C2892 H2882 0.930 . S
C2892 C2891 1.400 . S
C2892 C2895 1.386 . S
H2893 C2909 0.930 . S
H2894 C2910 0.931 . S
C2895 H2883 0.929 . S
C2895 C2889 1.390 . S
C2895 C2892 1.386 . S
C2896 C2891 1.490 . S
C2896 C2898 1.395 . S
C2896 C2899 1.403 . S
H2897 C2903 0.930 . S
C2898 H2884 0.930 . S
C2898 C2896 1.395 . S
C2898 C2901 1.403 . S
C2899 C2896 1.403 . S
C2899 C2900 1.524 . S
C2899 C2903 1.400 . S
C2900 H2885 0.960 . S
C2900 H2886 0.960 . S
C2900 H2887 0.960 . S
C2900 C2899 1.524 . S
C2901 C2898 1.403 . S
C2901 C2902 1.392 . S
C2901 C2905 1.495 . S
C2902 C2901 1.392 . S
C2902 C2903 1.385 . S
C2902 C2904 1.478 . S
C2903 H2897 0.930 . S
C2903 C2899 1.400 . S
C2903 C2902 1.385 . S
C2904 C2902 1.478 . S
C2904 C2906 1.381 . S
C2904 C2910 1.383 . S
C2905 C2901 1.495 . S
C2905 H2911 0.959 . S
C2905 H2912 0.961 . S
C2905 H2913 0.960 . S
C2906 C2904 1.381 . S
C2906 C2907 1.394 . S
C2906 H2914 0.930 . S
C2907 C2906 1.394 . S
C2907 C2908 1.383 . S
C2907 H2915 0.929 . S
C2908 C2907 1.383 . S
C2908 C2909 1.377 . S
C2909 H2893 0.930 . S
C2909 C2908 1.377 . S
C2909 C2910 1.379 . S
C2910 H2894 0.931 . S
C2910 C2904 1.383 . S
C2910 C2909 1.379 . S
H2911 C2905 0.959 . S
H2912 C2905 0.961 . S
H2913 C2905 0.960 . S
H2914 C2906 0.930 . S
H2915 C2907 0.929 . S
H2916 C2924 0.929 . S
H2917 C2926 0.930 . S
H2918 C2928 0.930 . S
H2919 C2931 0.929 . S
H2920 C2934 0.930 . S
H2921 C2936 0.960 . S
H2922 C2936 0.960 . S
H2923 C2936 0.960 . S
C2924 H2916 0.929 . S
C2924 C2925 1.377 . S
C2924 C2926 1.384 . S
C2925 C2924 1.377 . S
C2925 C2931 1.390 . S
C2926 H2917 0.930 . S
C2926 C2924 1.384 . S
C2926 C2927 1.372 . S
C2927 C2926 1.372 . S
C2927 C2928 1.400 . S
C2927 C2932 1.490 . S
C2928 H2918 0.930 . S
C2928 C2927 1.400 . S
C2928 C2931 1.386 . S
H2929 C2945 0.930 . S
H2930 C2946 0.931 . S
C2931 H2919 0.929 . S
C2931 C2925 1.390 . S
C2931 C2928 1.386 . S
C2932 C2927 1.490 . S
C2932 C2934 1.395 . S
C2932 C2935 1.403 . S
H2933 C2939 0.930 . S
C2934 H2920 0.930 . S
C2934 C2932 1.395 . S
C2934 C2937 1.403 . S
C2935 C2932 1.403 . S
C2935 C2936 1.524 . S
C2935 C2939 1.400 . S
C2936 H2921 0.960 . S
C2936 H2922 0.960 . S
C2936 H2923 0.960 . S
C2936 C2935 1.524 . S
C2937 C2934 1.403 . S
C2937 C2938 1.392 . S
C2937 C2941 1.495 . S
C2938 C2937 1.392 . S
C2938 C2939 1.385 . S
C2938 C2940 1.478 . S
C2939 H2933 0.930 . S
C2939 C2935 1.400 . S
C2939 C2938 1.385 . S
C2940 C2938 1.478 . S
C2940 C2942 1.381 . S
C2940 C2946 1.383 . S
C2941 C2937 1.495 . S
C2941 H2947 0.959 . S
C2941 H2948 0.961 . S
C2941 H2949 0.960 . S
C2942 C2940 1.381 . S
C2942 C2943 1.394 . S
C2942 H2950 0.930 . S
C2943 C2942 1.394 . S
C2943 C2944 1.383 . S
C2943 H2951 0.929 . S
C2944 C2943 1.383 . S
C2944 C2945 1.377 . S
C2945 H2929 0.930 . S
C2945 C2944 1.377 . S
C2945 C2946 1.379 . S
C2946 H2930 0.931 . S
C2946 C2940 1.383 . S
C2946 C2945 1.379 . S
H2947 C2941 0.959 . S
H2948 C2941 0.961 . S
H2949 C2941 0.960 . S
H2950 C2942 0.930 . S
H2951 C2943 0.929 . S
H2952 C2960 0.929 . S
H2953 C2962 0.930 . S
H2954 C2964 0.930 . S
H2955 C2967 0.929 . S
H2956 C2970 0.930 . S
H2957 C2972 0.960 . S
H2958 C2972 0.960 . S
H2959 C2972 0.960 . S
C2960 H2952 0.929 . S
C2960 C2961 1.377 . S
C2960 C2962 1.384 . S
C2961 C2960 1.377 . S
C2961 C2967 1.390 . S
C2962 H2953 0.930 . S
C2962 C2960 1.384 . S
C2962 C2963 1.372 . S
C2963 C2962 1.372 . S
C2963 C2964 1.400 . S
C2963 C2968 1.490 . S
C2964 H2954 0.930 . S
C2964 C2963 1.400 . S
C2964 C2967 1.386 . S
H2965 C2981 0.930 . S
H2966 C2982 0.931 . S
C2967 H2955 0.929 . S
C2967 C2961 1.390 . S
C2967 C2964 1.386 . S
C2968 C2963 1.490 . S
C2968 C2970 1.395 . S
C2968 C2971 1.403 . S
H2969 C2975 0.930 . S
C2970 H2956 0.930 . S
C2970 C2968 1.395 . S
C2970 C2973 1.403 . S
C2971 C2968 1.403 . S
C2971 C2972 1.524 . S
C2971 C2975 1.400 . S
C2972 H2957 0.960 . S
C2972 H2958 0.960 . S
C2972 H2959 0.960 . S
C2972 C2971 1.524 . S
C2973 C2970 1.403 . S
C2973 C2974 1.392 . S
C2973 C2977 1.495 . S
C2974 C2973 1.392 . S
C2974 C2975 1.385 . S
C2974 C2976 1.478 . S
C2975 H2969 0.930 . S
C2975 C2971 1.400 . S
C2975 C2974 1.385 . S
C2976 C2974 1.478 . S
C2976 C2978 1.381 . S
C2976 C2982 1.383 . S
C2977 C2973 1.495 . S
C2977 H2983 0.959 . S
C2977 H2984 0.961 . S
C2977 H2985 0.960 . S
C2978 C2976 1.381 . S
C2978 C2979 1.394 . S
C2978 H2986 0.930 . S
C2979 C2978 1.394 . S
C2979 C2980 1.383 . S
C2979 H2987 0.929 . S
C2980 C2979 1.383 . S
C2980 C2981 1.377 . S
C2981 H2965 0.930 . S
C2981 C2980 1.377 . S
C2981 C2982 1.379 . S
C2982 H2966 0.931 . S
C2982 C2976 1.383 . S
C2982 C2981 1.379 . S
H2983 C2977 0.959 . S
H2984 C2977 0.961 . S
H2985 C2977 0.960 . S
H2986 C2978 0.930 . S
H2987 C2979 0.929 . S
H2988 C2996 0.929 . S
H2989 C2998 0.930 . S
H2990 C3000 0.930 . S
H2991 C3003 0.929 . S
H2992 C3006 0.930 . S
H2993 C3008 0.960 . S
H2994 C3008 0.960 . S
H2995 C3008 0.960 . S
C2996 H2988 0.929 . S
C2996 C2997 1.377 . S
C2996 C2998 1.384 . S
C2997 C2996 1.377 . S
C2997 C3003 1.390 . S
C2998 H2989 0.930 . S
C2998 C2996 1.384 . S
C2998 C2999 1.372 . S
C2999 C2998 1.372 . S
C2999 C3000 1.400 . S
C2999 C3004 1.490 . S
C3000 H2990 0.930 . S
C3000 C2999 1.400 . S
C3000 C3003 1.386 . S
H3001 C3017 0.930 . S
H3002 C3018 0.931 . S
C3003 H2991 0.929 . S
C3003 C2997 1.390 . S
C3003 C3000 1.386 . S
C3004 C2999 1.490 . S
C3004 C3006 1.395 . S
C3004 C3007 1.403 . S
H3005 C3011 0.930 . S
C3006 H2992 0.930 . S
C3006 C3004 1.395 . S
C3006 C3009 1.403 . S
C3007 C3004 1.403 . S
C3007 C3008 1.524 . S
C3007 C3011 1.400 . S
C3008 H2993 0.960 . S
C3008 H2994 0.960 . S
C3008 H2995 0.960 . S
C3008 C3007 1.524 . S
C3009 C3006 1.403 . S
C3009 C3010 1.392 . S
C3009 C3013 1.495 . S
C3010 C3009 1.392 . S
C3010 C3011 1.385 . S
C3010 C3012 1.478 . S
C3011 H3005 0.930 . S
C3011 C3007 1.400 . S
C3011 C3010 1.385 . S
C3012 C3010 1.478 . S
C3012 C3014 1.381 . S
C3012 C3018 1.383 . S
C3013 C3009 1.495 . S
C3013 H3019 0.959 . S
C3013 H3020 0.961 . S
C3013 H3021 0.960 . S
C3014 C3012 1.381 . S
C3014 C3015 1.394 . S
C3014 H3022 0.930 . S
C3015 C3014 1.394 . S
C3015 C3016 1.383 . S
C3015 H3023 0.929 . S
C3016 C3015 1.383 . S
C3016 C3017 1.377 . S
C3017 H3001 0.930 . S
C3017 C3016 1.377 . S
C3017 C3018 1.379 . S
C3018 H3002 0.931 . S
C3018 C3012 1.383 . S
C3018 C3017 1.379 . S
H3019 C3013 0.959 . S
H3020 C3013 0.961 . S
H3021 C3013 0.960 . S
H3022 C3014 0.930 . S
H3023 C3015 0.929 . S
H3024 C3032 0.929 . S
H3025 C3034 0.930 . S
H3026 C3036 0.930 . S
H3027 C3039 0.929 . S
H3028 C3042 0.930 . S
H3029 C3044 0.960 . S
H3030 C3044 0.960 . S
H3031 C3044 0.960 . S
C3032 H3024 0.929 . S
C3032 C3033 1.377 . S
C3032 C3034 1.384 . S
C3033 C3032 1.377 . S
C3033 C3039 1.390 . S
C3034 H3025 0.930 . S
C3034 C3032 1.384 . S
C3034 C3035 1.372 . S
C3035 C3034 1.372 . S
C3035 C3036 1.400 . S
C3035 C3040 1.490 . S
C3036 H3026 0.930 . S
C3036 C3035 1.400 . S
C3036 C3039 1.386 . S
H3037 C3053 0.930 . S
H3038 C3054 0.931 . S
C3039 H3027 0.929 . S
C3039 C3033 1.390 . S
C3039 C3036 1.386 . S
C3040 C3035 1.490 . S
C3040 C3042 1.395 . S
C3040 C3043 1.403 . S
H3041 C3047 0.930 . S
C3042 H3028 0.930 . S
C3042 C3040 1.395 . S
C3042 C3045 1.403 . S
C3043 C3040 1.403 . S
C3043 C3044 1.524 . S
C3043 C3047 1.400 . S
C3044 H3029 0.960 . S
C3044 H3030 0.960 . S
C3044 H3031 0.960 . S
C3044 C3043 1.524 . S
C3045 C3042 1.403 . S
C3045 C3046 1.392 . S
C3045 C3049 1.495 . S
C3046 C3045 1.392 . S
C3046 C3047 1.385 . S
C3046 C3048 1.478 . S
C3047 H3041 0.930 . S
C3047 C3043 1.400 . S
C3047 C3046 1.385 . S
C3048 C3046 1.478 . S
C3048 C3050 1.381 . S
C3048 C3054 1.383 . S
C3049 C3045 1.495 . S
C3049 H3055 0.959 . S
C3049 H3056 0.961 . S
C3049 H3057 0.960 . S
C3050 C3048 1.381 . S
C3050 C3051 1.394 . S
C3050 H3058 0.930 . S
C3051 C3050 1.394 . S
C3051 C3052 1.383 . S
C3051 H3059 0.929 . S
C3052 C3051 1.383 . S
C3052 C3053 1.377 . S
C3053 H3037 0.930 . S
C3053 C3052 1.377 . S
C3053 C3054 1.379 . S
C3054 H3038 0.931 . S
C3054 C3048 1.383 . S
C3054 C3053 1.379 . S
H3055 C3049 0.959 . S
H3056 C3049 0.961 . S
H3057 C3049 0.960 . S
H3058 C3050 0.930 . S
H3059 C3051 0.929 . S
H3060 C3068 0.929 . S
H3061 C3070 0.930 . S
H3062 C3072 0.930 . S
H3063 C3075 0.929 . S
H3064 C3078 0.930 . S
H3065 C3080 0.960 . S
H3066 C3080 0.960 . S
H3067 C3080 0.960 . S
C3068 H3060 0.929 . S
C3068 C3069 1.377 . S
C3068 C3070 1.384 . S
C3069 C3068 1.377 . S
C3069 C3075 1.390 . S
C3070 H3061 0.930 . S
C3070 C3068 1.384 . S
C3070 C3071 1.372 . S
C3071 C3070 1.372 . S
C3071 C3072 1.400 . S
C3071 C3076 1.490 . S
C3072 H3062 0.930 . S
C3072 C3071 1.400 . S
C3072 C3075 1.386 . S
H3073 C3089 0.930 . S
H3074 C3090 0.931 . S
C3075 H3063 0.929 . S
C3075 C3069 1.390 . S
C3075 C3072 1.386 . S
C3076 C3071 1.490 . S
C3076 C3078 1.395 1_655 S
C3076 C3079 1.403 . S
H3077 C3083 0.930 . S
C3078 H3064 0.930 . S
C3078 C3076 1.395 1_455 S
C3078 C3081 1.403 . S
C3079 C3076 1.403 . S
C3079 C3080 1.524 . S
C3079 C3083 1.400 . S
C3080 H3065 0.960 . S
C3080 H3066 0.960 . S
C3080 H3067 0.960 . S
C3080 C3079 1.524 . S
C3081 C3078 1.403 . S
C3081 C3082 1.392 1_455 S
C3081 C3085 1.495 . S
C3082 C3081 1.392 1_655 S
C3082 C3083 1.385 . S
C3082 C3084 1.478 . S
C3083 H3077 0.930 . S
C3083 C3079 1.400 . S
C3083 C3082 1.385 . S
C3084 C3082 1.478 . S
C3084 C3086 1.381 1_655 S
C3084 C3090 1.383 . S
C3085 C3081 1.495 . S
C3085 H3091 0.959 . S
C3085 H3092 0.961 . S
C3085 H3093 0.960 . S
C3086 C3084 1.381 1_455 S
C3086 C3087 1.394 . S
C3086 H3094 0.930 . S
C3087 C3086 1.394 . S
C3087 C3088 1.385 . S
C3087 H3095 0.929 . S
C3088 C3087 1.385 . S
C3088 C3089 1.364 1_455 S
C3089 H3073 0.930 . S
C3089 C3088 1.364 1_655 S
C3089 C3090 1.379 . S
C3090 H3074 0.931 . S
C3090 C3084 1.383 . S
C3090 C3089 1.379 . S
H3091 C3085 0.959 . S
H3092 C3085 0.961 . S
H3093 C3085 0.960 . S
H3094 C3086 0.930 . S
H3095 C3087 0.929 . S
H3096 C3104 0.929 . S
H3097 C3106 0.930 . S
H3098 C3108 0.930 . S
H3099 C3111 0.929 . S
H3100 C3114 0.930 . S
H3101 C3116 0.960 . S
H3102 C3116 0.960 . S
H3103 C3116 0.960 . S
C3104 H3096 0.929 . S
C3104 C3105 1.377 . S
C3104 C3106 1.384 . S
C3105 C3104 1.377 . S
C3105 C3111 1.390 . S
C3106 H3097 0.930 . S
C3106 C3104 1.384 . S
C3106 C3107 1.372 . S
C3107 C3106 1.372 . S
C3107 C3108 1.400 . S
C3107 C3112 1.490 . S
C3108 H3098 0.930 . S
C3108 C3107 1.400 . S
C3108 C3111 1.386 . S
H3109 C3125 0.930 . S
H3110 C3126 0.931 . S
C3111 H3099 0.929 . S
C3111 C3105 1.390 . S
C3111 C3108 1.386 . S
C3112 C3107 1.490 . S
C3112 C3114 1.395 . S
C3112 C3115 1.403 . S
H3113 C3119 0.930 . S
C3114 H3100 0.930 . S
C3114 C3112 1.395 . S
C3114 C3117 1.403 . S
C3115 C3112 1.403 . S
C3115 C3116 1.524 . S
C3115 C3119 1.400 . S
C3116 H3101 0.960 . S
C3116 H3102 0.960 . S
C3116 H3103 0.960 . S
C3116 C3115 1.524 . S
C3117 C3114 1.403 . S
C3117 C3118 1.392 . S
C3117 C3121 1.495 . S
C3118 C3117 1.392 . S
C3118 C3119 1.385 . S
C3118 C3120 1.478 . S
C3119 H3113 0.930 . S
C3119 C3115 1.400 . S
C3119 C3118 1.385 . S
C3120 C3118 1.478 . S
C3120 C3122 1.381 . S
C3120 C3126 1.383 . S
C3121 C3117 1.495 . S
C3121 H3127 0.959 . S
C3121 H3128 0.961 . S
C3121 H3129 0.960 . S
C3122 C3120 1.381 . S
C3122 C3123 1.394 . S
C3122 H3130 0.930 . S
C3123 C3122 1.394 . S
C3123 C3124 1.383 . S
C3123 H3131 0.929 . S
C3124 C3123 1.383 . S
C3124 C3125 1.377 . S
C3125 H3109 0.930 . S
C3125 C3124 1.377 . S
C3125 C3126 1.379 . S
C3126 H3110 0.931 . S
C3126 C3120 1.383 . S
C3126 C3125 1.379 . S
H3127 C3121 0.959 . S
H3128 C3121 0.961 . S
H3129 C3121 0.960 . S
H3130 C3122 0.930 . S
H3131 C3123 0.929 . S
H3132 C3140 0.929 . S
H3133 C3142 0.930 . S
H3134 C3144 0.930 . S
H3135 C3147 0.929 . S
H3136 C3150 0.930 . S
H3137 C3152 0.960 . S
H3138 C3152 0.960 . S
H3139 C3152 0.960 . S
C3140 H3132 0.929 . S
C3140 C3141 1.377 . S
C3140 C3142 1.384 . S
C3141 C3140 1.377 . S
C3141 C3147 1.390 . S
C3142 H3133 0.930 . S
C3142 C3140 1.384 . S
C3142 C3143 1.372 . S
C3143 C3142 1.372 . S
C3143 C3144 1.400 . S
C3143 C3148 1.490 . S
C3144 H3134 0.930 . S
C3144 C3143 1.400 . S
C3144 C3147 1.386 . S
H3145 C3161 0.930 . S
H3146 C3162 0.931 . S
C3147 H3135 0.929 . S
C3147 C3141 1.390 . S
C3147 C3144 1.386 . S
C3148 C3143 1.490 . S
C3148 C3150 1.395 1_545 S
C3148 C3151 1.403 . S
H3149 C3155 0.930 . S
C3150 H3136 0.930 . S
C3150 C3148 1.395 1_565 S
C3150 C3153 1.403 . S
C3151 C3148 1.403 . S
C3151 C3152 1.524 . S
C3151 C3155 1.400 . S
C3152 H3137 0.960 . S
C3152 H3138 0.960 . S
C3152 H3139 0.960 . S
C3152 C3151 1.524 . S
C3153 C3150 1.403 . S
C3153 C3154 1.392 1_565 S
C3153 C3157 1.495 . S
C3154 C3153 1.392 1_545 S
C3154 C3155 1.385 . S
C3154 C3156 1.458 . S
C3155 H3149 0.930 . S
C3155 C3151 1.400 . S
C3155 C3154 1.385 . S
C3156 C3154 1.458 . S
C3156 C3158 1.390 1_545 S
C3156 C3162 1.401 . S
C3157 C3153 1.495 . S
C3157 H3163 0.959 . S
C3157 H3164 0.961 . S
C3157 H3165 0.960 . S
C3158 C3156 1.390 1_565 S
C3158 C3159 1.394 . S
C3158 H3166 0.930 . S
C3159 C3158 1.394 . S
C3159 C3160 1.383 . S
C3159 H3167 0.929 . S
C3160 C3159 1.383 . S
C3160 C3161 1.377 1_565 S
C3161 H3145 0.930 . S
C3161 C3160 1.377 1_545 S
C3161 C3162 1.379 . S
C3162 H3146 0.931 . S
C3162 C3156 1.401 . S
C3162 C3161 1.379 . S
H3163 C3157 0.959 . S
H3164 C3157 0.961 . S
H3165 C3157 0.960 . S
H3166 C3158 0.930 . S
H3167 C3159 0.929 . S
C585 C13 1.483 . S
C604 C421 1.533 . S
C621 C27 1.371 . S
C640 C446 1.431 . S
C676 C457 1.546 . S
C657 C36 1.454 . S
C693 C41 1.463 . S
C712 C482 1.542 . S
C729 C8 1.560 . S
C748 C500 1.648 . S
C765 C22 1.449 . S
C784 C511 1.521 . S
C801 C55 1.480 . S
C820 C493 1.569 1_455 S
C856 C518 1.439 . S
C837 C69 1.363 . S
C892 C475 1.545 . S
C873 C78 1.471 . S
C909 C83 1.447 . S
C928 C464 1.492 . S
C964 C428 1.617 1_655 S
C945 C50 1.573 . S
C981 C64 1.440 . S
C1000 C439 1.525 . S
C1017 C97 1.530 . S
C1036 C529 1.619 . S
C1053 C111 1.391 . S
C1072 C554 1.474 . S
C1108 C565 1.587 . S
C1089 C120 1.509 . S
C1125 C125 1.477 . S
C1144 C266 1.539 . S
C1161 C92 1.650 . S
C1180 C284 1.692 . S
C1197 C106 1.491 . S
C1216 C295 1.534 . S
C1233 C139 1.488 . S
C1252 C277 1.573 . S
C1269 C153 1.389 . S
C1288 C302 1.447 . S
C1324 C259 1.583 . S
C1305 C162 1.502 . S
C1360 C572 1.562 . S
C1341 C167 1.482 . S
C1396 C536 1.682 . S
C1377 C134 1.611 . S
C1432 C547 1.542 . S
C1413 C148 1.469 . S
C1449 C181 1.515 . S
C1468 C313 1.598 . S
C1485 C195 1.388 . S
C1504 C338 1.443 . S
C1521 C204 1.520 . S
C1540 C349 1.583 . S
C1557 C209 1.507 . S
C1576 C374 1.597 . S
C1612 C392 1.695 . S
C1593 C176 1.654 . S
C1648 C403 1.564 . S
C1629 C190 1.493 . S
C1684 C385 1.602 . S
C1665 C223 1.520 . S
C1720 C410 1.442 . S
C1701 C237 1.383 . S
C1737 C246 1.481 . S
C1756 C367 1.550 . S
C1792 C356 1.540 . S
C1773 C251 1.469 . S
C1809 C218 1.618 . S
C1828 C320 1.693 . S
C1864 C331 1.558 . S
C1845 C232 1.478 . S
C1900 C268 1.282 . S
C1881 C11 1.345 . S
C1917 C25 1.207 . S
C1936 C286 1.196 . S
C1972 C296 1.293 . S
C1953 C35 1.326 . S
C2008 C314 1.234 . S
C1989 C39 1.322 . S
C2044 C340 1.384 . S
C2025 C7 1.438 1_556 S
C2080 C350 1.216 . S
C2061 C21 1.301 1_556 S
C2097 C53 1.372 1_556 S
C2116 C358 1.345 . S
C2133 C67 1.241 1_556 S
C2152 C322 1.208 . S
C2169 C77 1.327 1_556 S
C2188 C332 1.288 . S
C2205 C81 1.376 . S
C2224 C278 1.304 . S
C2260 C304 1.363 . S
C2241 C49 1.450 . S
C2277 C63 1.333 . S
C2296 C260 1.242 . S
C2332 C376 1.233 . S
C2313 C95 1.337 . S
C2349 C109 1.265 . S
C2368 C394 1.170 . S
C2385 C119 1.392 . S
C2404 C404 1.356 . S
C2440 C422 1.225 . S
C2421 C123 1.254 . S
C2457 C91 1.430 . S
C2476 C448 1.343 . S
C2493 C105 1.259 . S
C2512 C458 1.173 . S
C2529 C137 1.306 . S
C2548 C466 1.221 . S
C2565 C151 1.170 . S
C2584 C430 1.154 . S
C2620 C440 1.317 . S
C2601 C161 1.353 . S
C2637 C165 1.359 . S
C2656 C386 1.281 . S
C2673 C133 1.490 . S
C2692 C412 1.374 . S
C2728 C368 1.354 . S
C2709 C147 1.393 . S
C2764 C484 1.279 . S
C2745 C179 1.303 . S
C2781 C193 1.154 . S
C2800 C502 1.119 . S
C2817 C203 1.329 . S
C2836 C512 1.294 . S
C2872 C530 1.230 . S
C2853 C207 1.317 . S
C2908 C556 1.422 . S
C2889 C175 1.472 . S
C2925 C189 1.368 . S
C2944 C566 1.271 . S
C2961 C221 1.371 . S
C2980 C574 1.317 . S
C2997 C235 1.292 . S
C3016 C538 1.253 . S
C3052 C548 1.316 . S
C3033 C245 1.403 . S
C3088 C494 1.204 . S
C3069 C249 1.256 . S
C3124 C520 1.397 . S
C3105 C217 1.453 . S
C3141 C231 1.287 . S
C3160 C476 1.270 . S
