# Generated by pormake.
# Topology ssa, (4,4)-cn, num edge types: 1
# Building blocks:
#     Node 0, Type 0, BuildingBlock: ESEHIV_clean_sbu_0, # of connection points: 4
#     Node 1, Type 0, BuildingBlock: ESEHIV_clean_sbu_0, # of connection points: 4
#     Node 2, Type 0, BuildingBlock: ESEHIV_clean_sbu_0, # of connection points: 4
#     Node 3, Type 0, BuildingBlock: ESEHIV_clean_sbu_0, # of connection points: 4
#     Node 4, Type 0, BuildingBlock: ESEHIV_clean_sbu_0, # of connection points: 4
#     Node 5, Type 0, BuildingBlock: ESEHIV_clean_sbu_0, # of connection points: 4
#     Node 6, Type 1, BuildingBlock: AZAVOO_clean_linker_0, # of connection points: 4
#     Node 7, Type 1, BuildingBlock: AZAVOO_clean_linker_0, # of connection points: 4
#     Node 8, Type 1, BuildingBlock: AZAVOO_clean_linker_0, # of connection points: 4
#     Node 9, Type 1, BuildingBlock: AZAVOO_clean_linker_0, # of connection points: 4
#     Node 10, Type 1, BuildingBlock: AZAVOO_clean_linker_0, # of connection points: 4
#     Node 11, Type 1, BuildingBlock: AZAVOO_clean_linker_0, # of connection points: 4
#     Edge 12, Type (0, 1), BuildingBlock: OJICUG_clean_linker_0, # of connection points: 2
#     Edge 13, Type (0, 1), BuildingBlock: OJICUG_clean_linker_0, # of connection points: 2
#     Edge 14, Type (0, 1), BuildingBlock: OJICUG_clean_linker_0, # of connection points: 2
#     Edge 15, Type (0, 1), BuildingBlock: OJICUG_clean_linker_0, # of connection points: 2
#     Edge 16, Type (0, 1), BuildingBlock: OJICUG_clean_linker_0, # of connection points: 2
#     Edge 17, Type (0, 1), BuildingBlock: OJICUG_clean_linker_0, # of connection points: 2
#     Edge 18, Type (0, 1), BuildingBlock: OJICUG_clean_linker_0, # of connection points: 2
#     Edge 19, Type (0, 1), BuildingBlock: OJICUG_clean_linker_0, # of connection points: 2
#     Edge 20, Type (0, 1), BuildingBlock: OJICUG_clean_linker_0, # of connection points: 2
#     Edge 21, Type (0, 1), BuildingBlock: OJICUG_clean_linker_0, # of connection points: 2
#     Edge 22, Type (0, 1), BuildingBlock: OJICUG_clean_linker_0, # of connection points: 2
#     Edge 23, Type (0, 1), BuildingBlock: OJICUG_clean_linker_0, # of connection points: 2
#     Edge 24, Type (0, 1), BuildingBlock: OJICUG_clean_linker_0, # of connection points: 2
#     Edge 25, Type (0, 1), BuildingBlock: OJICUG_clean_linker_0, # of connection points: 2
#     Edge 26, Type (0, 1), BuildingBlock: OJICUG_clean_linker_0, # of connection points: 2
#     Edge 27, Type (0, 1), BuildingBlock: OJICUG_clean_linker_0, # of connection points: 2
#     Edge 28, Type (0, 1), BuildingBlock: OJICUG_clean_linker_0, # of connection points: 2
#     Edge 29, Type (0, 1), BuildingBlock: OJICUG_clean_linker_0, # of connection points: 2
#     Edge 30, Type (0, 1), BuildingBlock: OJICUG_clean_linker_0, # of connection points: 2
#     Edge 31, Type (0, 1), BuildingBlock: OJICUG_clean_linker_0, # of connection points: 2
#     Edge 32, Type (0, 1), BuildingBlock: OJICUG_clean_linker_0, # of connection points: 2
#     Edge 33, Type (0, 1), BuildingBlock: OJICUG_clean_linker_0, # of connection points: 2
#     Edge 34, Type (0, 1), BuildingBlock: OJICUG_clean_linker_0, # of connection points: 2
#     Edge 35, Type (0, 1), BuildingBlock: OJICUG_clean_linker_0, # of connection points: 2
# Relax obj value: 0.087
# Max RMSD: 0.236
# Mean RMSD: 0.157
data_MOF--net-ssa--node1-ESEHIV_clean_sbu_0--node2-AZAVOO_clean_linker_0--edge1-OJICUG_clean_linker_0
_symmetry_space_group_name_H-M    P1
_symmetry_Int_Tables_number       1
_symmetry_cell_setting            triclinic
loop_
_symmetry_equiv_pos_as_xyz
'x, y, z'
_cell_length_a     38.610472
_cell_length_b     42.303337
_cell_length_c     38.042852
_cell_angle_alpha  87.733143
_cell_angle_beta   94.428123
_cell_angle_gamma 123.21357
loop_
_atom_site_label
_atom_site_type_symbol
_atom_site_fract_x
_atom_site_fract_y
_atom_site_fract_z
_atom_type_partial_charge
Cu0 Cu 0.15512 0.57484 0.00443 0.0
N1 N 0.15642 0.55716 0.96094 0.0
N2 N 0.13466 0.51527 0.91749 0.0
C3 C 0.13596 0.52041 0.9524 0.0
C4 C 0.15519 0.55023 0.90344 0.0
C5 C 0.16876 0.57612 0.93041 0.0
O6 O 0.10286 0.5721 0.00325 0.0
C7 C 0.19067 0.5395 0.03991 0.0
O8 O 0.21143 0.55006 0.01135 0.0
H9 H 0.1191 0.49785 0.97102 0.0
H10 H 0.1838 0.60636 0.92764 0.0
N11 N 0.19922 0.62438 0.01228 0.0
N12 N 0.24189 0.67587 0.04493 0.0
C13 C 0.20338 0.64456 0.04046 0.0
C14 C 0.23628 0.64357 0.99809 0.0
C15 C 0.26279 0.67549 0.01826 0.0
C16 C 0.10037 0.59588 0.9834 0.0
O17 O 0.13344 0.62164 0.9675 0.0
H18 H 0.17981 0.63445 0.05926 0.0
H19 H 0.24441 0.6336 0.97641 0.0
O20 O 0.16213 0.54578 0.04211 0.0
H21 H 0.15803 0.55649 0.87554 0.0
H22 H 0.29546 0.69553 0.01485 0.0
Cu23 Cu 0.60352 0.02085 0.56461 0.0
N24 N 0.61179 0.98142 0.57091 0.0
N25 N 0.62568 0.93927 0.55539 0.0
C26 C 0.62617 0.97058 0.54605 0.0
C27 C 0.60998 0.92974 0.58742 0.0
C28 C 0.60151 0.95595 0.59701 0.0
O29 O 0.58429 0.01728 0.51581 0.0
C30 C 0.69098 0.07715 0.5725 0.0
O31 O 0.69663 0.05308 0.5574 0.0
H32 H 0.63539 0.98469 0.52091 0.0
H33 H 0.58787 0.95586 0.62083 0.0
N34 N 0.5652 0.01656 0.59468 0.0
N35 N 0.53895 0.03485 0.6338 0.0
C36 C 0.56966 0.04583 0.61198 0.0
C37 C 0.53029 0.98574 0.60555 0.0
C38 C 0.514 0.99691 0.62968 0.0
C39 C 0.55562 0.02139 0.50305 0.0
O40 O 0.53963 0.03409 0.52318 0.0
H41 H 0.59531 0.07464 0.60854 0.0
H42 H 0.51809 0.95715 0.59713 0.0
O43 O 0.65436 0.06881 0.57566 0.0
H44 H 0.60476 0.90551 0.60266 0.0
H45 H 0.48654 0.97825 0.64372 0.0
Cu46 Cu 0.62708 0.52414 0.09861 0.0
N47 N 0.61685 0.47645 0.09021 0.0
N48 N 0.60039 0.42681 0.05726 0.0
C49 C 0.60542 0.46094 0.05779 0.0
C50 C 0.60886 0.42046 0.09097 0.0
C51 C 0.61925 0.45131 0.11126 0.0
O52 O 0.65677 0.55346 0.05802 0.0
C53 C 0.5578 0.49938 0.13215 0.0
O54 O 0.57537 0.48396 0.15001 0.0
H55 H 0.60062 0.47458 0.035 0.0
H56 H 0.62812 0.45521 0.1392 0.0
N57 N 0.65861 0.54758 0.14073 0.0
N58 N 0.67784 0.58338 0.18909 0.0
C59 C 0.65314 0.57089 0.15914 0.0
C60 C 0.68789 0.54508 0.15986 0.0
C61 C 0.70018 0.56758 0.18962 0.0
C62 C 0.69185 0.55743 0.05665 0.0
O63 O 0.70567 0.54641 0.08386 0.0
H64 H 0.6312 0.57849 0.15072 0.0
H65 H 0.69912 0.52781 0.15298 0.0
O66 O 0.57414 0.51807 0.10443 0.0
H67 H 0.60836 0.39569 0.10019 0.0
H68 H 0.7229 0.57127 0.21041 0.0
Cu69 Cu 0.06049 0.48963 0.55015 0.0
N70 N 0.04818 0.45447 0.51569 0.0
N71 N 0.05991 0.43069 0.47026 0.0
C72 C 0.07232 0.46192 0.48901 0.0
C73 C 0.02639 0.40229 0.48571 0.0
C74 C 0.01899 0.41718 0.51374 0.0
O75 O 0.11192 0.53643 0.53752 0.0
C76 C 0.06442 0.44124 0.60401 0.0
O77 O 0.07727 0.42878 0.58039 0.0
H78 H 0.10013 0.48936 0.48486 0.0
H79 H 0.99541 0.40171 0.53238 0.0
N80 N 0.01764 0.49728 0.55096 0.0
N81 N 0.9769 0.51131 0.57516 0.0
C82 C 0.01239 0.51224 0.5789 0.0
C83 C 0.98419 0.48613 0.52858 0.0
C84 C 0.95877 0.49472 0.54358 0.0
C85 C 0.11347 0.5667 0.52927 0.0
O86 O 0.08166 0.56886 0.53467 0.0
H87 H 0.0334 0.52197 0.6023 0.0
H88 H 0.97804 0.47163 0.50384 0.0
O89 O 0.06125 0.46923 0.59675 0.0
H90 H 0.00936 0.37284 0.47801 0.0
H91 H 0.92901 0.48856 0.53252 0.0
Cu92 Cu 0.62149 0.05811 0.10066 0.0
N93 N 0.61626 0.09901 0.10386 0.0
N94 N 0.59643 0.1377 0.08495 0.0
C95 C 0.59357 0.10506 0.07947 0.0
C96 C 0.62217 0.15295 0.11418 0.0
C97 C 0.63427 0.1288 0.12596 0.0
O98 O 0.63165 0.05776 0.05126 0.0
C99 C 0.56303 0.01676 0.14839 0.0
O100 O 0.58787 0.04901 0.16511 0.0
H101 H 0.57703 0.08663 0.05697 0.0
H102 H 0.65544 0.13316 0.14838 0.0
N103 N 0.66609 0.06388 0.12893 0.0
N104 N 0.70361 0.04542 0.15949 0.0
C105 C 0.6673 0.03441 0.14151 0.0
C106 C 0.7029 0.09491 0.13944 0.0
C107 C 0.72613 0.08353 0.1587 0.0
C108 C 0.65691 0.05051 0.04023 0.0
O109 O 0.67196 0.03525 0.06181 0.0
H110 H 0.6419 0.00531 0.13729 0.0
H111 H 0.71245 0.12361 0.13304 0.0
O112 O 0.57127 0.0134 0.11744 0.0
H113 H 0.63219 0.17986 0.12577 0.0
H114 H 0.75734 0.10172 0.17042 0.0
Cu115 Cu 0.52681 0.50281 0.58292 0.0
N116 N 0.52555 0.54577 0.57477 0.0
N117 N 0.54477 0.59959 0.54618 0.0
C118 C 0.55555 0.57535 0.55756 0.0
C119 C 0.50626 0.58465 0.5571 0.0
C120 C 0.49433 0.55124 0.57451 0.0
O121 O 0.51656 0.48134 0.53585 0.0
C122 C 0.58885 0.53765 0.63506 0.0
O123 O 0.56398 0.54816 0.64274 0.0
H124 H 0.58302 0.57682 0.55049 0.0
H125 H 0.4639 0.53106 0.58349 0.0
N126 N 0.48903 0.46818 0.6142 0.0
N127 N 0.47085 0.42574 0.65762 0.0
C128 C 0.49445 0.44206 0.62991 0.0
C129 C 0.46069 0.46848 0.63245 0.0
C130 C 0.44926 0.44214 0.6592 0.0
C131 C 0.47907 0.4607 0.52335 0.0
O132 O 0.44911 0.44955 0.54452 0.0
H133 H 0.51834 0.43785 0.62305 0.0
H134 H 0.45124 0.48818 0.62846 0.0
O135 O 0.58025 0.51841 0.60701 0.0
H136 H 0.48701 0.59573 0.55114 0.0
H137 H 0.42833 0.43696 0.67925 0.0
H138 H 0.36416 0.44883 0.52071 0.0
H139 H 0.06812 0.42957 0.18838 0.0
H140 H 0.40775 0.52207 0.33436 0.0
H141 H 0.45215 0.51913 0.38173 0.0
H142 H 0.38802 0.39869 0.36584 0.0
H143 H 0.34362 0.40199 0.31837 0.0
H144 H 0.34717 0.50421 0.38135 0.0
H145 H 0.35974 0.49218 0.44296 0.0
H146 H 0.28195 0.37192 0.42277 0.0
H147 H 0.27007 0.38445 0.36106 0.0
H148 H 0.27254 0.50016 0.36098 0.0
H149 H 0.21803 0.49197 0.3964 0.0
H150 H 0.13541 0.37834 0.35588 0.0
H151 H 0.19074 0.38669 0.32081 0.0
H152 H 0.24907 0.5138 0.28403 0.0
H153 H 0.18994 0.51507 0.25774 0.0
H154 H 0.13584 0.40268 0.21588 0.0
H155 H 0.19527 0.40192 0.24223 0.0
H156 H 0.31638 0.53751 0.23582 0.0
H157 H 0.28971 0.55313 0.18199 0.0
H158 H 0.23593 0.44009 0.1427 0.0
H159 H 0.26158 0.42424 0.1972 0.0
H160 H 0.40976 0.53221 0.26979 0.0
H161 H 0.4651 0.54456 0.23266 0.0
H162 H 0.38106 0.43844 0.17872 0.0
H163 H 0.32634 0.42551 0.21689 0.0
O164 O 0.35757 0.45294 0.49659 0.0
O165 O 0.31436 0.39143 0.48576 0.0
O166 O 0.12117 0.48774 0.22084 0.0
O167 O 0.09157 0.42963 0.19948 0.0
C168 C 0.33556 0.46149 0.30649 0.0
C169 C 0.30361 0.45265 0.32876 0.0
C170 C 0.26763 0.45071 0.31496 0.0
C171 C 0.26348 0.45811 0.27906 0.0
C172 C 0.29547 0.46778 0.25671 0.0
C173 C 0.33147 0.46905 0.27022 0.0
C174 C 0.37249 0.46231 0.32258 0.0
C175 C 0.40494 0.49543 0.33953 0.0
C176 C 0.43012 0.49359 0.367 0.0
C177 C 0.42314 0.45852 0.37812 0.0
C178 C 0.39379 0.42606 0.35832 0.0
C179 C 0.36879 0.42797 0.33074 0.0
C180 C 0.30791 0.44519 0.36681 0.0
C181 C 0.33266 0.4753 0.39039 0.0
C182 C 0.33984 0.46834 0.42553 0.0
C183 C 0.32198 0.43108 0.43777 0.0
C184 C 0.2962 0.40095 0.4142 0.0
C185 C 0.28922 0.40799 0.379 0.0
C186 C 0.23553 0.44397 0.33857 0.0
C187 C 0.24286 0.47334 0.36015 0.0
C188 C 0.21157 0.46873 0.38 0.0
C189 C 0.17231 0.43466 0.37852 0.0
C190 C 0.16539 0.40483 0.35756 0.0
C191 C 0.19682 0.40954 0.33758 0.0
C192 C 0.2263 0.45776 0.26499 0.0
C193 C 0.2242 0.48939 0.26942 0.0
C194 C 0.19047 0.49006 0.2543 0.0
C195 C 0.15816 0.45897 0.23465 0.0
C196 C 0.16018 0.4271 0.2308 0.0
C197 C 0.194 0.42652 0.24586 0.0
C198 C 0.29163 0.47995 0.22021 0.0
C199 C 0.30022 0.51654 0.21503 0.0
C200 C 0.28436 0.52522 0.1846 0.0
C201 C 0.26032 0.49764 0.15848 0.0
C202 C 0.25443 0.46185 0.16244 0.0
C203 C 0.2696 0.45294 0.19328 0.0
C204 C 0.36421 0.47772 0.2464 0.0
C205 C 0.40334 0.51157 0.25008 0.0
C206 C 0.43472 0.51874 0.22867 0.0
C207 C 0.42717 0.4925 0.20277 0.0
C208 C 0.38746 0.45934 0.19816 0.0
C209 C 0.35632 0.45188 0.22002 0.0
C210 C 0.33085 0.42381 0.47481 0.0
C211 C 0.1226 0.45979 0.218 0.0
H212 H 0.88739 0.29473 0.04261 0.0
H213 H 0.65004 0.99906 0.75562 0.0
H214 H 0.90308 0.3259 0.85242 0.0
H215 H 0.96495 0.38768 0.86948 0.0
H216 H 0.04269 0.34707 0.8496 0.0
H217 H 0.98055 0.28541 0.83157 0.0
H218 H 0.83003 0.25669 0.8943 0.0
H219 H 0.84425 0.27374 0.95686 0.0
H220 H 0.94946 0.26278 0.96051 0.0
H221 H 0.93461 0.24537 0.89801 0.0
H222 H 0.75579 0.18319 0.84783 0.0
H223 H 0.7076 0.14054 0.8909 0.0
H224 H 0.80332 0.12691 0.94047 0.0
H225 H 0.85007 0.16736 0.89571 0.0
H226 H 0.76078 0.18723 0.76739 0.0
H227 H 0.69807 0.12842 0.74579 0.0
H228 H 0.74582 0.06504 0.79604 0.0
H229 H 0.80868 0.12415 0.81706 0.0
H230 H 0.83369 0.25421 0.729 0.0
H231 H 0.80508 0.22986 0.6693 0.0
H232 H 0.82534 0.13968 0.68971 0.0
H233 H 0.85552 0.16527 0.74848 0.0
H234 H 0.90756 0.32655 0.77972 0.0
H235 H 0.95456 0.37391 0.73935 0.0
H236 H 0.98086 0.29443 0.70149 0.0
H237 H 0.93741 0.24886 0.74538 0.0
O238 O 0.88226 0.28782 0.01791 0.0
O239 O 0.9361 0.28192 0.01836 0.0
O240 O 0.65159 0.0567 0.73825 0.0
O241 O 0.67451 0.02274 0.76387 0.0
C242 C 0.9001 0.26482 0.82879 0.0
C243 C 0.87252 0.23945 0.85367 0.0
C244 C 0.83615 0.20492 0.8423 0.0
C245 C 0.82783 0.19587 0.80595 0.0
C246 C 0.85572 0.22123 0.78109 0.0
C247 C 0.89159 0.25608 0.79236 0.0
C248 C 0.93749 0.30135 0.84081 0.0
C249 C 0.93346 0.33035 0.85181 0.0
C250 C 0.96866 0.36554 0.86121 0.0
C251 C 0.00832 0.37195 0.86044 0.0
C252 C 0.01233 0.34265 0.85019 0.0
C253 C 0.97707 0.30762 0.84004 0.0
C254 C 0.88126 0.24976 0.89167 0.0
C255 C 0.85604 0.25786 0.90871 0.0
C256 C 0.86428 0.26766 0.94442 0.0
C257 C 0.89801 0.26964 0.9637 0.0
C258 C 0.92326 0.26154 0.94645 0.0
C259 C 0.91491 0.25166 0.91076 0.0
C260 C 0.80656 0.17846 0.86847 0.0
C261 C 0.76609 0.17047 0.86767 0.0
C262 C 0.73869 0.14635 0.89265 0.0
C263 C 0.75132 0.13011 0.91949 0.0
C264 C 0.79194 0.13811 0.91998 0.0
C265 C 0.81905 0.16172 0.89463 0.0
C266 C 0.78932 0.15995 0.79368 0.0
C267 C 0.75768 0.16062 0.7736 0.0
C268 C 0.72187 0.12698 0.76136 0.0
C269 C 0.71695 0.092 0.76917 0.0
C270 C 0.74862 0.09147 0.78954 0.0
C271 C 0.7845 0.12516 0.80166 0.0
C272 C 0.84617 0.21119 0.74311 0.0
C273 C 0.83317 0.22995 0.72005 0.0
C274 C 0.81656 0.21582 0.68609 0.0
C275 C 0.81233 0.18248 0.67486 0.0
C276 C 0.82844 0.16558 0.69723 0.0
C277 C 0.84539 0.17994 0.73099 0.0
C278 C 0.91929 0.28425 0.76606 0.0
C279 C 0.92423 0.31964 0.7633 0.0
C280 C 0.95071 0.34659 0.73948 0.0
C281 C 0.97172 0.33838 0.71644 0.0
C282 C 0.96618 0.30251 0.71899 0.0
C283 C 0.9407 0.27599 0.74379 0.0
C284 C 0.90674 0.28014 1.00162 0.0
C285 C 0.679 0.05619 0.75611 0.0
H286 H 0.7262 0.78289 0.11131 0.0
H287 H 0.75146 0.04801 0.39444 0.0
H288 H 0.63167 0.73699 0.28018 0.0
H289 H 0.62707 0.68446 0.25143 0.0
H290 H 0.73529 0.70498 0.31525 0.0
H291 H 0.74088 0.75938 0.34238 0.0
H292 H 0.65915 0.79813 0.23762 0.0
H293 H 0.67625 0.78928 0.17975 0.0
H294 H 0.79661 0.81803 0.22434 0.0
H295 H 0.77918 0.82713 0.28203 0.0
H296 H 0.65215 0.84851 0.26294 0.0
H297 H 0.65769 0.89717 0.22276 0.0
H298 H 0.7889 0.96858 0.25227 0.0
H299 H 0.78308 0.91889 0.29229 0.0
H300 H 0.64052 0.86759 0.34251 0.0
H301 H 0.64349 0.92464 0.35828 0.0
H302 H 0.77682 0.98381 0.37629 0.0
H303 H 0.77327 0.92645 0.36067 0.0
H304 H 0.61646 0.80018 0.39324 0.0
H305 H 0.60149 0.82308 0.44452 0.0
H306 H 0.73293 0.89784 0.47107 0.0
H307 H 0.74756 0.87467 0.41993 0.0
H308 H 0.6108 0.72819 0.35363 0.0
H309 H 0.57751 0.68118 0.39979 0.0
H310 H 0.68796 0.74587 0.46933 0.0
H311 H 0.7217 0.79139 0.42222 0.0
O312 O 0.7202 0.78684 0.13437 0.0
O313 O 0.78167 0.80177 0.15859 0.0
O314 O 0.6808 0.9934 0.37838 0.0
O315 O 0.74942 0.02515 0.38784 0.0
C316 C 0.69413 0.78888 0.32427 0.0
C317 C 0.7076 0.81833 0.29916 0.0
C318 C 0.71152 0.85229 0.30775 0.0
C319 C 0.70445 0.85795 0.34199 0.0
C320 C 0.69227 0.82927 0.36757 0.0
C321 C 0.6862 0.7943 0.35857 0.0
C322 C 0.68668 0.75214 0.31327 0.0
C323 C 0.65397 0.72973 0.28839 0.0
C324 C 0.65132 0.69942 0.27208 0.0
C325 C 0.68095 0.69023 0.28071 0.0
C326 C 0.71235 0.71151 0.30732 0.0
C327 C 0.71528 0.74229 0.32332 0.0
C328 C 0.71815 0.81373 0.26384 0.0
C329 C 0.68938 0.80297 0.23472 0.0
C330 C 0.69914 0.79771 0.20175 0.0
C331 C 0.73785 0.80303 0.19739 0.0
C332 C 0.76657 0.81378 0.22675 0.0
C333 C 0.75675 0.81906 0.2597 0.0
C334 C 0.71732 0.87996 0.27996 0.0
C335 C 0.68234 0.87414 0.2599 0.0
C336 C 0.68558 0.90202 0.23707 0.0
C337 C 0.72381 0.93658 0.23425 0.0
C338 C 0.75911 0.94219 0.25396 0.0
C339 C 0.75591 0.91387 0.27655 0.0
C340 C 0.70668 0.89304 0.35041 0.0
C341 C 0.67031 0.89297 0.34978 0.0
C342 C 0.67211 0.92556 0.35882 0.0
C343 C 0.71042 0.9588 0.36858 0.0
C344 C 0.74684 0.95873 0.36891 0.0
C345 C 0.74495 0.92608 0.35991 0.0
C346 C 0.68309 0.83583 0.40285 0.0
C347 C 0.64193 0.8205 0.41086 0.0
C348 C 0.63347 0.83368 0.4401 0.0
C349 C 0.66608 0.86261 0.46153 0.0
C350 C 0.7072 0.87589 0.45477 0.0
C351 C 0.71561 0.86251 0.42576 0.0
C352 C 0.66876 0.76307 0.38448 0.0
C353 C 0.62818 0.73156 0.37849 0.0
C354 C 0.60894 0.70512 0.40518 0.0
C355 C 0.62976 0.70998 0.43856 0.0
C356 C 0.67104 0.74096 0.44395 0.0
C357 C 0.69041 0.76709 0.41708 0.0
C358 C 0.74805 0.79722 0.16236 0.0
C359 C 0.71248 0.9934 0.37852 0.0
H360 H 0.75586 0.58031 0.59322 0.0
H361 H 0.05611 0.53642 0.87861 0.0
H362 H 0.80213 0.61978 0.78567 0.0
H363 H 0.74657 0.61489 0.74591 0.0
H364 H 0.67663 0.49344 0.75606 0.0
H365 H 0.73229 0.49866 0.79619 0.0
H366 H 0.8489 0.61651 0.73047 0.0
H367 H 0.81762 0.61274 0.671 0.0
H368 H 0.74311 0.49085 0.67863 0.0
H369 H 0.77469 0.49512 0.73807 0.0
H370 H 0.92694 0.61303 0.74295 0.0
H371 H 0.95294 0.60414 0.6898 0.0
H372 H 0.87371 0.48304 0.7024 0.0
H373 H 0.84765 0.49233 0.75508 0.0
H374 H 0.96028 0.62432 0.82983 0.0
H375 H 0.02392 0.62746 0.84968 0.0
H376 H 0.95782 0.50586 0.84116 0.0
H377 H 0.89437 0.50319 0.82129 0.0
H378 H 0.91007 0.62641 0.8866 0.0
H379 H 0.96348 0.63561 0.9317 0.0
H380 H 0.91478 0.51617 0.9281 0.0
H381 H 0.86048 0.50721 0.8846 0.0
H382 H 0.81066 0.6174 0.85368 0.0
H383 H 0.77652 0.61983 0.90456 0.0
H384 H 0.75922 0.51498 0.94256 0.0
H385 H 0.7915 0.51168 0.89111 0.0
O386 O 0.76859 0.58113 0.61639 0.0
O387 O 0.73114 0.51856 0.62157 0.0
O388 O 0.06615 0.59874 0.8677 0.0
O389 O 0.03207 0.53604 0.86859 0.0
C390 C 0.81019 0.5613 0.80354 0.0
C391 C 0.83062 0.55874 0.77552 0.0
C392 C 0.86663 0.55836 0.78242 0.0
C393 C 0.88324 0.56151 0.81721 0.0
C394 C 0.86274 0.56345 0.84565 0.0
C395 C 0.82598 0.56341 0.8389 0.0
C396 C 0.77116 0.55962 0.79418 0.0
C397 C 0.77378 0.59229 0.78102 0.0
C398 C 0.74226 0.58937 0.75779 0.0
C399 C 0.70775 0.55371 0.7472 0.0
C400 C 0.70328 0.52125 0.76324 0.0
C401 C 0.7346 0.52423 0.78682 0.0
C402 C 0.81385 0.55611 0.73849 0.0
C403 C 0.82607 0.58905 0.71907 0.0
C404 C 0.80805 0.58679 0.68519 0.0
C405 C 0.77768 0.55149 0.67014 0.0
C406 C 0.76632 0.51848 0.68947 0.0
C407 C 0.78435 0.52081 0.72335 0.0
C408 C 0.88582 0.5533 0.75284 0.0
C409 C 0.91572 0.58467 0.73437 0.0
C410 C 0.93036 0.57951 0.70406 0.0
C411 C 0.91506 0.54287 0.69179 0.0
C412 C 0.88552 0.51157 0.71084 0.0
C413 C 0.87103 0.51678 0.74113 0.0
C414 C 0.92282 0.56355 0.82415 0.0
C415 C 0.95984 0.59848 0.83167 0.0
C416 C 0.99606 0.60016 0.84316 0.0
C417 C 0.99585 0.56686 0.84732 0.0
C418 C 0.95899 0.53201 0.83845 0.0
C419 C 0.9228 0.5304 0.82682 0.0
C420 C 0.88162 0.56622 0.88199 0.0
C421 C 0.90952 0.60196 0.89705 0.0
C422 C 0.94059 0.60722 0.92236 0.0
C423 C 0.94451 0.57686 0.9327 0.0
C424 C 0.91303 0.5403 0.92092 0.0
C425 C 0.88167 0.53503 0.89602 0.0
C426 C 0.80376 0.5644 0.86864 0.0
C427 C 0.79872 0.59454 0.87257 0.0
C428 C 0.77933 0.59599 0.90158 0.0
C429 C 0.76548 0.56766 0.92736 0.0
C430 C 0.76989 0.53724 0.92305 0.0
C431 C 0.78848 0.53545 0.89382 0.0
C432 C 0.7577 0.54924 0.63458 0.0
C433 C 0.03358 0.56833 0.86167 0.0
H434 H 0.34563 0.84079 0.55406 0.0
H435 H 0.14533 0.5388 0.27854 0.0
H436 H 0.34751 0.8694 0.37137 0.0
H437 H 0.39984 0.9264 0.40326 0.0
H438 H 0.49597 0.91878 0.36079 0.0
H439 H 0.44292 0.85913 0.33263 0.0
H440 H 0.28544 0.79726 0.40702 0.0
H441 H 0.29944 0.81409 0.46961 0.0
H442 H 0.4184 0.82692 0.4679 0.0
H443 H 0.40372 0.80949 0.40541 0.0
H444 H 0.22247 0.72596 0.36134 0.0
H445 H 0.1795 0.68122 0.40613 0.0
H446 H 0.28359 0.67642 0.44862 0.0
H447 H 0.32625 0.72085 0.40313 0.0
H448 H 0.22456 0.72412 0.27754 0.0
H449 H 0.16894 0.66001 0.25923 0.0
H450 H 0.23828 0.61674 0.31129 0.0
H451 H 0.29394 0.68103 0.32896 0.0
H452 H 0.28953 0.79923 0.23978 0.0
H453 H 0.27539 0.78255 0.17702 0.0
H454 H 0.32053 0.70927 0.19508 0.0
H455 H 0.33526 0.72667 0.2576 0.0
H456 H 0.35727 0.87571 0.28214 0.0
H457 H 0.40382 0.92393 0.24106 0.0
H458 H 0.45491 0.85785 0.22184 0.0
H459 H 0.40819 0.80978 0.26291 0.0
O460 O 0.34057 0.83386 0.52937 0.0
O461 O 0.40154 0.84036 0.52702 0.0
O462 O 0.13478 0.58849 0.25527 0.0
O463 O 0.16737 0.56452 0.28458 0.0
C464 C 0.35916 0.82038 0.33834 0.0
C465 C 0.33526 0.79246 0.36351 0.0
C466 C 0.30386 0.75537 0.35247 0.0
C467 C 0.29662 0.74606 0.31622 0.0
C468 C 0.32107 0.7737 0.29116 0.0
C469 C 0.35264 0.81079 0.30215 0.0
C470 C 0.39129 0.85949 0.35047 0.0
C471 C 0.37994 0.88021 0.36886 0.0
C472 C 0.41016 0.9133 0.38672 0.0
C473 C 0.45256 0.92713 0.38552 0.0
C474 C 0.46375 0.9084 0.36364 0.0
C475 C 0.43342 0.8745 0.34692 0.0
C476 C 0.34349 0.80201 0.40173 0.0
C477 C 0.31434 0.80339 0.4203 0.0
C478 C 0.3225 0.81317 0.45601 0.0
C479 C 0.36006 0.82188 0.47377 0.0
C480 C 0.38917 0.82037 0.45503 0.0
C481 C 0.38089 0.81045 0.41936 0.0
C482 C 0.2775 0.7267 0.37891 0.0
C483 C 0.23591 0.71503 0.38013 0.0
C484 C 0.21154 0.68973 0.40599 0.0
C485 C 0.22821 0.67548 0.43123 0.0
C486 C 0.26974 0.68669 0.42951 0.0
C487 C 0.29418 0.71216 0.40365 0.0
C488 C 0.26327 0.70721 0.30453 0.0
C489 C 0.2278 0.70078 0.28472 0.0
C490 C 0.19605 0.66413 0.27439 0.0
C491 C 0.19913 0.63322 0.28388 0.0
C492 C 0.23486 0.63986 0.30361 0.0
C493 C 0.26667 0.67654 0.31377 0.0
C494 C 0.3132 0.76398 0.25314 0.0
C495 C 0.29661 0.77979 0.23004 0.0
C496 C 0.28848 0.77018 0.19432 0.0
C497 C 0.29695 0.74469 0.18115 0.0
C498 C 0.31426 0.72942 0.20435 0.0
C499 C 0.32227 0.73897 0.24007 0.0
C500 C 0.37944 0.83929 0.27576 0.0
C501 C 0.37839 0.8716 0.26895 0.0
C502 C 0.40506 0.89912 0.24548 0.0
C503 C 0.43327 0.89485 0.22821 0.0
C504 C 0.4333 0.86186 0.23431 0.0
C505 C 0.40675 0.83443 0.25792 0.0
C506 C 0.36879 0.83259 0.51163 0.0
C507 C 0.16512 0.59415 0.27359 0.0
H508 H 0.52872 0.27571 0.59668 0.0
H509 H 0.49066 0.01059 0.89849 0.0
H510 H 0.57531 0.31959 0.77885 0.0
H511 H 0.56251 0.36194 0.74301 0.0
H512 H 0.44155 0.30956 0.78383 0.0
H513 H 0.45442 0.26683 0.81943 0.0
H514 H 0.57345 0.25462 0.74213 0.0
H515 H 0.56624 0.266 0.67923 0.0
H516 H 0.44035 0.2338 0.69078 0.0
H517 H 0.44778 0.22198 0.75353 0.0
H518 H 0.58439 0.19572 0.79388 0.0
H519 H 0.5879 0.15424 0.75374 0.0
H520 H 0.46185 0.1113 0.71353 0.0
H521 H 0.45799 0.15159 0.7555 0.0
H522 H 0.58955 0.19619 0.86961 0.0
H523 H 0.5908 0.14186 0.89228 0.0
H524 H 0.46019 0.06824 0.86097 0.0
H525 H 0.4593 0.12294 0.83883 0.0
H526 H 0.59866 0.2584 0.90401 0.0
H527 H 0.6113 0.2423 0.96383 0.0
H528 H 0.47951 0.16033 0.96941 0.0
H529 H 0.46781 0.17526 0.90868 0.0
H530 H 0.59238 0.32503 0.86073 0.0
H531 H 0.61017 0.36796 0.91002 0.0
H532 H 0.49068 0.28904 0.95092 0.0
H533 H 0.47324 0.24627 0.90147 0.0
O534 O 0.5307 0.27052 0.62151 0.0
O535 O 0.46632 0.25414 0.62896 0.0
O536 O 0.55806 0.0717 0.90566 0.0
O537 O 0.49104 0.03257 0.88976 0.0
C538 C 0.51888 0.25823 0.81508 0.0
C539 C 0.51623 0.23219 0.79081 0.0
C540 C 0.51934 0.20181 0.8031 0.0
C541 C 0.52329 0.19656 0.83971 0.0
C542 C 0.52611 0.22257 0.86385 0.0
C543 C 0.52447 0.25374 0.85165 0.0
C544 C 0.51566 0.28997 0.80149 0.0
C545 C 0.54653 0.31797 0.78082 0.0
C546 C 0.53902 0.34186 0.76016 0.0
C547 C 0.50073 0.33849 0.76021 0.0
C548 C 0.47128 0.31269 0.78331 0.0
C549 C 0.47867 0.28845 0.80376 0.0
C550 C 0.51112 0.23741 0.75233 0.0
C551 C 0.54423 0.24968 0.73093 0.0
C552 C 0.54007 0.25632 0.69505 0.0
C553 C 0.50274 0.2509 0.67998 0.0
C554 C 0.46952 0.23829 0.70153 0.0
C555 C 0.47367 0.23151 0.73736 0.0
C556 C 0.52091 0.17666 0.77778 0.0
C557 C 0.55739 0.17711 0.77663 0.0
C558 C 0.55946 0.15362 0.7533 0.0
C559 C 0.52525 0.12946 0.73007 0.0
C560 C 0.48865 0.12914 0.73125 0.0
C561 C 0.48648 0.15242 0.75498 0.0
C562 C 0.52425 0.1635 0.8529 0.0
C563 C 0.5612 0.16834 0.86792 0.0
C564 C 0.56184 0.13724 0.88071 0.0
C565 C 0.52554 0.10069 0.87852 0.0
C566 C 0.48866 0.09598 0.86314 0.0
C567 C 0.48806 0.12713 0.85043 0.0
C568 C 0.53246 0.2176 0.90204 0.0
C569 C 0.57254 0.23745 0.91849 0.0
C570 C 0.57959 0.22837 0.95284 0.0
C571 C 0.54648 0.19959 0.97145 0.0
C572 C 0.50588 0.18194 0.95562 0.0
C573 C 0.49901 0.19057 0.92105 0.0
C574 C 0.53149 0.28256 0.87743 0.0
C575 C 0.56964 0.31749 0.87983 0.0
C576 C 0.5798 0.3419 0.90813 0.0
C577 C 0.55203 0.33174 0.93468 0.0
C578 C 0.51305 0.29742 0.93128 0.0
C579 C 0.50284 0.27314 0.90286 0.0
C580 C 0.49865 0.25855 0.64198 0.0
C581 C 0.52604 0.06756 0.89216 0.0
C582 C 0.2278 0.50946 0.06484 0.0
C583 C 0.20435 0.52496 0.07026 0.0
H584 H 0.26352 0.48832 0.08852 0.0
C585 C 0.19767 0.52955 0.10496 0.0
H586 H 0.23344 0.50553 0.0384 0.0
C587 C 0.21559 0.52035 0.13361 0.0
C588 C 0.2399 0.50578 0.12809 0.0
H589 H 0.17997 0.5416 0.11 0.0
H590 H 0.2107 0.52486 0.16014 0.0
C591 C 0.24503 0.49961 0.09346 0.0
C592 C 0.76494 0.11502 0.59712 0.0
C593 C 0.72577 0.11001 0.59234 0.0
H594 H 0.82388 0.14287 0.6265 0.0
C595 C 0.71835 0.1337 0.6107 0.0
H596 H 0.77179 0.09747 0.58312 0.0
C597 C 0.7479 0.15932 0.63571 0.0
C598 C 0.78574 0.16208 0.64279 0.0
H599 H 0.68862 0.13083 0.60745 0.0
H600 H 0.73966 0.17486 0.65126 0.0
C601 C 0.79469 0.14087 0.62212 0.0
C602 C 0.6417 0.60334 0.22384 0.0
C603 C 0.67877 0.60785 0.21496 0.0
H604 H 0.61301 0.62419 0.2528 0.0
C605 C 0.71656 0.63778 0.23013 0.0
H606 H 0.61212 0.58013 0.21291 0.0
C607 C 0.71734 0.66392 0.25231 0.0
C608 C 0.68021 0.66023 0.26035 0.0
H609 H 0.74555 0.64194 0.22349 0.0
H610 H 0.74718 0.68783 0.2619 0.0
C611 C 0.64235 0.62885 0.24656 0.0
C612 C 0.98788 0.5512 0.62563 0.0
C613 C 0.96063 0.52202 0.60174 0.0
H614 H 0.99493 0.58048 0.67289 0.0
C615 C 0.91785 0.50158 0.60613 0.0
H616 H 0.02096 0.56773 0.62259 0.0
C617 C 0.90287 0.50898 0.63491 0.0
C618 C 0.93039 0.53712 0.65965 0.0
H619 H 0.89618 0.47884 0.58823 0.0
H620 H 0.8698 0.49229 0.63812 0.0
C621 C 0.97295 0.5587 0.65426 0.0
C622 C 0.51624 0.99273 0.19804 0.0
C623 C 0.52761 0.98526 0.16668 0.0
H624 H 0.47814 0.97042 0.24183 0.0
C625 C 0.5063 0.94772 0.15462 0.0
H626 H 0.53187 0.02129 0.20814 0.0
C627 C 0.47515 0.91827 0.17417 0.0
C628 C 0.46441 0.92585 0.20592 0.0
H629 H 0.51436 0.94102 0.1306 0.0
H630 H 0.45958 0.88955 0.16452 0.0
C631 C 0.48509 0.96352 0.21731 0.0
C632 C 0.4658 0.40057 0.7185 0.0
C633 C 0.47436 0.4012 0.68306 0.0
H634 H 0.46768 0.38035 0.77091 0.0
C635 C 0.48941 0.37937 0.67324 0.0
H636 H 0.45447 0.41719 0.72711 0.0
C637 C 0.49755 0.35893 0.69833 0.0
C638 C 0.49046 0.35941 0.73388 0.0
H639 H 0.49539 0.37838 0.64612 0.0
H640 H 0.50946 0.34267 0.68988 0.0
C641 C 0.4736 0.3797 0.74366 0.0
C642 C 0.6162 0.88008 0.53443 0.0
C643 C 0.63767 0.91973 0.53419 0.0
H644 H 0.60818 0.83069 0.51144 0.0
C645 C 0.66982 0.94019 0.51138 0.0
H646 H 0.59108 0.8636 0.55155 0.0
C647 C 0.67971 0.92154 0.48871 0.0
C648 C 0.65749 0.88187 0.48809 0.0
H649 H 0.68713 0.97076 0.51083 0.0
H650 H 0.7039 0.93821 0.47077 0.0
C651 C 0.62578 0.86129 0.51135 0.0
C652 C 0.69458 0.56842 0.9908 0.0
C653 C 0.71328 0.56668 0.02344 0.0
H654 H 0.69685 0.57043 0.9343 0.0
C655 C 0.75119 0.56919 0.02392 0.0
H656 H 0.66532 0.56643 0.98954 0.0
C657 C 0.76858 0.5708 0.99262 0.0
C658 C 0.74892 0.57056 0.96003 0.0
H659 H 0.76673 0.56825 0.04851 0.0
H660 H 0.79697 0.57122 0.99384 0.0
C661 C 0.71247 0.57058 0.95926 0.0
C662 C 0.1483 0.62997 0.50004 0.0
C663 C 0.14706 0.59666 0.50819 0.0
H664 H 0.17502 0.68094 0.46993 0.0
C665 C 0.17516 0.59083 0.49284 0.0
H666 H 0.12736 0.63558 0.51151 0.0
C667 C 0.20247 0.61693 0.46865 0.0
C668 C 0.20216 0.6493 0.45925 0.0
H669 H 0.1749 0.56539 0.49835 0.0
H670 H 0.2226 0.61094 0.45623 0.0
C671 C 0.17543 0.6559 0.47593 0.0
C672 C 0.5442 0.13057 0.03892 0.0
C673 C 0.57967 0.1541 0.06109 0.0
H674 H 0.50648 0.12612 0.99315 0.0
C675 C 0.60074 0.19343 0.05669 0.0
H676 H 0.52669 0.1002 0.04212 0.0
C677 C 0.58842 0.20863 0.02889 0.0
C678 C 0.55494 0.18475 0.0049 0.0
H679 H 0.6281 0.21235 0.0734 0.0
H680 H 0.60614 0.23898 0.0254 0.0
C681 C 0.53218 0.1456 0.01105 0.0
C682 C 0.49565 0.48282 0.46085 0.0
C683 C 0.46853 0.45585 0.48474 0.0
H684 H 0.50274 0.50487 0.40817 0.0
C685 C 0.42846 0.42722 0.472 0.0
H686 H 0.52661 0.50546 0.4699 0.0
C687 C 0.41493 0.42671 0.43674 0.0
C688 C 0.44091 0.45517 0.41331 0.0
H689 H 0.40677 0.40611 0.48972 0.0
H690 H 0.38308 0.40535 0.4285 0.0
C691 C 0.48186 0.48266 0.42555 0.0
C692 C 0.08341 0.47741 0.86913 0.0
C693 C 0.10809 0.47988 0.89934 0.0
H694 H 0.03173 0.44077 0.83331 0.0
C695 C 0.10264 0.44663 0.9142 0.0
H696 H 0.08689 0.50259 0.85728 0.0
C697 C 0.0716 0.41139 0.9002 0.0
C698 C 0.04511 0.40894 0.87155 0.0
H699 H 0.12148 0.44796 0.93742 0.0
H700 H 0.06684 0.38604 0.91292 0.0
C701 C 0.0518 0.44216 0.85558 0.0
C702 C 0.0597 0.61996 0.95275 0.0
C703 C 0.06041 0.59283 0.97479 0.0
H704 H 0.02329 0.63612 0.92217 0.0
C705 C 0.02259 0.56197 0.98588 0.0
H706 H 0.08815 0.64413 0.94361 0.0
C707 C 0.98485 0.55757 0.97381 0.0
C708 C 0.98414 0.58395 0.95042 0.0
H709 H 0.02201 0.54059 0.00292 0.0
H710 H 0.9562 0.53303 0.98215 0.0
C711 C 0.02224 0.61556 0.94069 0.0
C712 C 0.54291 0.97886 0.45344 0.0
C713 C 0.53462 0.00362 0.46857 0.0
H714 H 0.52329 0.93486 0.41666 0.0
C715 C 0.50291 0.00723 0.45271 0.0
H716 H 0.56717 0.97533 0.46488 0.0
C717 C 0.47817 0.98457 0.42376 0.0
C718 C 0.48402 0.95719 0.41066 0.0
H719 H 0.49614 0.02645 0.46349 0.0
H720 H 0.45343 0.98753 0.41265 0.0
C721 C 0.51772 0.95569 0.42523 0.0
C722 C 0.59805 0.41871 0.99282 0.0
C723 C 0.58878 0.40288 0.02674 0.0
H724 H 0.59345 0.40888 0.93736 0.0
C725 C 0.56739 0.36341 0.03012 0.0
H726 H 0.615 0.44901 0.98921 0.0
C727 C 0.55516 0.34034 1.00028 0.0
C728 C 0.56429 0.35622 0.96636 0.0
H729 H 0.55955 0.35029 0.05578 0.0
H730 H 0.53899 0.31005 0.00384 0.0
C731 C 0.58603 0.39571 0.96305 0.0
C732 C 0.08627 0.39741 0.44112 0.0
C733 C 0.0826 0.42853 0.44325 0.0
H734 H 0.11813 0.37508 0.41908 0.0
C735 C 0.10529 0.45969 0.42119 0.0
H736 H 0.06933 0.37315 0.45802 0.0
C737 C 0.1331 0.46087 0.39911 0.0
C738 C 0.1389 0.4309 0.39863 0.0
H739 H 0.10245 0.48374 0.42185 0.0
H740 H 0.15089 0.48572 0.38303 0.0
C741 C 0.11426 0.39859 0.41896 0.0
C742 C 0.70186 0.05709 0.99245 0.0
C743 C 0.67587 0.06653 0.00615 0.0
H744 H 0.74479 0.06857 0.95386 0.0
C745 C 0.67213 0.09479 0.98921 0.0
H746 H 0.70526 0.0353 0.0047 0.0
C747 C 0.69564 0.11461 0.96058 0.0
C748 C 0.72314 0.10638 0.94774 0.0
H749 H 0.65264 0.10303 0.99917 0.0
H750 H 0.69354 0.13756 0.94964 0.0
C751 C 0.72494 0.07654 0.96347 0.0
C752 C 0.54533 0.64125 0.49818 0.0
C753 C 0.56666 0.63001 0.52153 0.0
H754 H 0.54848 0.67558 0.45418 0.0
C755 C 0.60942 0.64688 0.51848 0.0
H756 H 0.51244 0.62889 0.49953 0.0
C757 C 0.62988 0.6729 0.49181 0.0
C758 C 0.60828 0.68321 0.46773 0.0
H759 H 0.62709 0.63949 0.53635 0.0
H760 H 0.66245 0.68414 0.48958 0.0
C761 C 0.56592 0.66762 0.47169 0.0
C762 C 0.5689 0.09549 0.6657 0.0
C763 C 0.53502 0.05859 0.65749 0.0
H764 H 0.59213 0.14676 0.69382 0.0
C765 C 0.49749 0.0454 0.6731 0.0
H766 H 0.59854 0.10687 0.6548 0.0
C767 C 0.49414 0.06831 0.69642 0.0
C768 C 0.52815 0.1051 0.70465 0.0
H769 H 0.47053 0.01741 0.66734 0.0
H770 H 0.46502 0.05688 0.70841 0.0
C771 C 0.56543 0.1184 0.6887 0.0
C772 C 0.49053 0.49616 0.12907 0.0
C773 C 0.5254 0.50084 0.14862 0.0
H774 H 0.43112 0.48912 0.1312 0.0
C775 C 0.52872 0.50512 0.18538 0.0
H776 H 0.48734 0.49272 0.1007 0.0
C777 C 0.49749 0.50396 0.20253 0.0
C778 C 0.46173 0.49767 0.1834 0.0
H779 H 0.55546 0.50901 0.20104 0.0
H780 H 0.5006 0.50656 0.231 0.0
C781 C 0.45851 0.494 0.14646 0.0
C782 C 0.01178 0.41809 0.64892 0.0
C783 C 0.04436 0.41778 0.63523 0.0
H784 H 0.96236 0.39264 0.68316 0.0
C785 C 0.05422 0.39225 0.64932 0.0
H786 H 0.00277 0.43689 0.63823 0.0
C787 C 0.03168 0.36734 0.67633 0.0
C788 C 0.99791 0.36658 0.68923 0.0
H789 H 0.07915 0.39133 0.63927 0.0
H790 H 0.04075 0.34857 0.68685 0.0
C791 C 0.98857 0.39259 0.67508 0.0
C792 C 0.7386 0.03031 0.2081 0.0
C793 C 0.71479 0.0207 0.17583 0.0
H794 H 0.76012 0.01086 0.25218 0.0
C795 C 0.69897 0.98506 0.16093 0.0
H796 H 0.75108 0.05759 0.22012 0.0
C797 C 0.70422 0.95854 0.17902 0.0
C798 C 0.72542 0.96707 0.21245 0.0
H799 H 0.68142 0.97726 0.13566 0.0
H800 H 0.69037 0.93081 0.16743 0.0
C801 C 0.74383 0.00363 0.22634 0.0
C802 C 0.63506 0.57037 0.68882 0.0
C803 C 0.62228 0.54391 0.66154 0.0
H804 H 0.6717 0.59401 0.73726 0.0
C805 C 0.63873 0.52136 0.66212 0.0
H806 H 0.62297 0.58819 0.68917 0.0
C807 C 0.6663 0.52441 0.69005 0.0
C808 C 0.67831 0.55034 0.71771 0.0
H809 H 0.62933 0.50058 0.64163 0.0
H810 H 0.67831 0.50651 0.68998 0.0
C811 C 0.66293 0.57371 0.71644 0.0
C812 C 0.23303 0.70527 0.09503 0.0
C813 C 0.25854 0.69883 0.07627 0.0
H814 H 0.22513 0.72472 0.14293 0.0
C815 C 0.29859 0.71119 0.09076 0.0
H816 H 0.20215 0.69624 0.0843 0.0
C817 C 0.31183 0.72753 0.12434 0.0
C818 C 0.28537 0.73206 0.14389 0.0
H819 H 0.31881 0.70634 0.07703 0.0
H820 H 0.34231 0.73565 0.13543 0.0
C821 C 0.24631 0.72178 0.12847 0.0
loop_
_geom_bond_atom_site_label_1
_geom_bond_atom_site_label_2
_geom_bond_distance
_geom_bond_site_symmetry_2
_ccdc_geom_bond_type
Cu0 N1 1.999 1_554 S
Cu0 O6 1.974 1_554 S
Cu0 N11 1.985 . S
Cu0 O20 1.959 . S
N1 Cu0 1.999 1_556 S
N1 C3 1.263 . S
N1 C5 1.389 . S
N2 C3 1.358 . S
N2 C4 1.400 . S
C3 N1 1.263 . S
C3 N2 1.358 . S
C3 H9 0.930 . S
C4 N2 1.400 . S
C4 C5 1.351 . S
C4 H21 0.930 . S
C5 N1 1.389 . S
C5 C4 1.351 . S
C5 H10 0.930 1_556 S
O6 Cu0 1.974 1_556 S
O6 C16 1.282 . S
C7 O8 1.261 . S
C7 O20 1.251 . S
O8 C7 1.261 . S
H9 C3 0.930 . S
H10 C5 0.930 1_554 S
N11 Cu0 1.985 . S
N11 C13 1.335 . S
N11 C14 1.390 . S
N12 C13 1.345 . S
N12 C15 1.336 . S
C13 N11 1.335 . S
C13 N12 1.345 . S
C13 H18 0.930 . S
C14 N11 1.390 . S
C14 C15 1.346 . S
C14 H19 0.930 . S
C15 N12 1.336 . S
C15 C14 1.346 . S
C15 H22 0.929 . S
C16 O6 1.282 . S
C16 O17 1.216 . S
O17 C16 1.216 . S
H18 C13 0.930 . S
H19 C14 0.930 . S
O20 Cu0 1.959 . S
O20 C7 1.251 . S
H21 C4 0.930 . S
H22 C15 0.929 . S
Cu23 N24 1.999 . S
Cu23 O29 1.974 . S
Cu23 N34 1.985 1_565 S
Cu23 O43 1.959 1_565 S
N24 Cu23 1.999 . S
N24 C26 1.263 . S
N24 C28 1.389 . S
N25 C26 1.358 . S
N25 C27 1.400 . S
C26 N24 1.263 . S
C26 N25 1.358 . S
C26 H32 0.930 . S
C27 N25 1.400 . S
C27 C28 1.351 . S
C27 H44 0.930 . S
C28 N24 1.389 . S
C28 C27 1.351 . S
C28 H33 0.930 . S
O29 Cu23 1.974 . S
O29 C39 1.282 . S
C30 O31 1.261 . S
C30 O43 1.251 . S
O31 C30 1.261 . S
H32 C26 0.930 . S
H33 C28 0.930 . S
N34 Cu23 1.985 1_545 S
N34 C36 1.335 . S
N34 C37 1.390 . S
N35 C36 1.345 . S
N35 C38 1.336 . S
C36 N34 1.335 . S
C36 N35 1.345 . S
C36 H41 0.930 . S
C37 N34 1.390 . S
C37 C38 1.346 . S
C37 H42 0.930 . S
C38 N35 1.336 . S
C38 C37 1.346 . S
C38 H45 0.929 . S
C39 O29 1.282 . S
C39 O40 1.216 1_565 S
O40 C39 1.216 1_545 S
H41 C36 0.930 . S
H42 C37 0.930 . S
O43 Cu23 1.959 1_545 S
O43 C30 1.251 . S
H44 C27 0.930 . S
H45 C38 0.929 . S
Cu46 N47 1.999 . S
Cu46 O52 1.974 . S
Cu46 N57 1.985 . S
Cu46 O66 1.959 . S
N47 Cu46 1.999 . S
N47 C49 1.263 . S
N47 C51 1.389 . S
N48 C49 1.358 . S
N48 C50 1.400 . S
C49 N47 1.263 . S
C49 N48 1.358 . S
C49 H55 0.930 . S
C50 N48 1.400 . S
C50 C51 1.351 . S
C50 H67 0.930 . S
C51 N47 1.389 . S
C51 C50 1.351 . S
C51 H56 0.930 . S
O52 Cu46 1.974 . S
O52 C62 1.282 . S
C53 O54 1.261 . S
C53 O66 1.251 . S
O54 C53 1.261 . S
H55 C49 0.930 . S
H56 C51 0.930 . S
N57 Cu46 1.985 . S
N57 C59 1.335 . S
N57 C60 1.390 . S
N58 C59 1.345 . S
N58 C61 1.336 . S
C59 N57 1.335 . S
C59 N58 1.345 . S
C59 H64 0.930 . S
C60 N57 1.390 . S
C60 C61 1.346 . S
C60 H65 0.930 . S
C61 N58 1.336 . S
C61 C60 1.346 . S
C61 H68 0.929 . S
C62 O52 1.282 . S
C62 O63 1.216 . S
O63 C62 1.216 . S
H64 C59 0.930 . S
H65 C60 0.930 . S
O66 Cu46 1.959 . S
O66 C53 1.251 . S
H67 C50 0.930 . S
H68 C61 0.929 . S
Cu69 N70 1.999 1_655 S
Cu69 O75 1.974 1_655 S
Cu69 N80 1.985 . S
Cu69 O89 1.959 . S
N70 Cu69 1.999 1_455 S
N70 C72 1.263 . S
N70 C74 1.389 1_455 S
N71 C72 1.358 . S
N71 C73 1.416 . S
C72 N70 1.263 . S
C72 N71 1.358 . S
C72 H78 0.930 . S
C73 N71 1.416 . S
C73 C74 1.325 1_455 S
C73 H90 0.940 1_455 S
C74 N70 1.389 1_655 S
C74 C73 1.325 1_655 S
C74 H79 0.930 . S
O75 Cu69 1.974 1_455 S
O75 C85 1.282 . S
C76 O77 1.261 1_655 S
C76 O89 1.251 . S
O77 C76 1.261 1_455 S
H78 C72 0.930 . S
H79 C74 0.930 . S
N80 Cu69 1.985 . S
N80 C82 1.335 . S
N80 C83 1.390 . S
N81 C82 1.345 . S
N81 C84 1.336 . S
C82 N80 1.335 . S
C82 N81 1.345 . S
C82 H87 0.930 . S
C83 N80 1.390 . S
C83 C84 1.346 . S
C83 H88 0.930 1_655 S
C84 N81 1.336 . S
C84 C83 1.346 . S
C84 H91 0.929 . S
C85 O75 1.282 . S
C85 O86 1.216 . S
O86 C85 1.216 . S
H87 C82 0.930 . S
H88 C83 0.930 1_455 S
O89 Cu69 1.959 . S
O89 C76 1.251 . S
H90 C73 0.940 1_655 S
H91 C84 0.929 . S
Cu92 N93 1.999 . S
Cu92 O98 1.974 . S
Cu92 N103 1.985 . S
Cu92 O112 1.959 . S
N93 Cu92 1.999 . S
N93 C95 1.263 . S
N93 C97 1.389 . S
N94 C95 1.358 . S
N94 C96 1.400 . S
C95 N93 1.263 . S
C95 N94 1.358 . S
C95 H101 0.930 . S
C96 N94 1.400 . S
C96 C97 1.351 . S
C96 H113 0.930 . S
C97 N93 1.389 . S
C97 C96 1.351 . S
C97 H102 0.930 . S
O98 Cu92 1.974 . S
O98 C108 1.282 . S
C99 O100 1.261 . S
C99 O112 1.251 . S
O100 C99 1.261 . S
H101 C95 0.930 . S
H102 C97 0.930 . S
N103 Cu92 1.985 . S
N103 C105 1.335 . S
N103 C106 1.390 . S
N104 C105 1.345 . S
N104 C107 1.336 . S
C105 N103 1.335 . S
C105 N104 1.345 . S
C105 H110 0.930 . S
C106 N103 1.390 . S
C106 C107 1.346 . S
C106 H111 0.930 . S
C107 N104 1.336 . S
C107 C106 1.346 . S
C107 H114 0.929 . S
C108 O98 1.282 . S
C108 O109 1.216 . S
O109 C108 1.216 . S
H110 C105 0.930 . S
H111 C106 0.930 . S
O112 Cu92 1.959 . S
O112 C99 1.251 . S
H113 C96 0.930 . S
H114 C107 0.929 . S
Cu115 N116 1.999 . S
Cu115 O121 1.974 . S
Cu115 N126 1.985 . S
Cu115 O135 1.959 . S
N116 Cu115 1.999 . S
N116 C118 1.263 . S
N116 C120 1.389 . S
N117 C118 1.358 . S
N117 C119 1.400 . S
C118 N116 1.263 . S
C118 N117 1.358 . S
C118 H124 0.930 . S
C119 N117 1.400 . S
C119 C120 1.351 . S
C119 H136 0.930 . S
C120 N116 1.389 . S
C120 C119 1.351 . S
C120 H125 0.930 . S
O121 Cu115 1.974 . S
O121 C131 1.282 . S
C122 O123 1.261 . S
C122 O135 1.251 . S
O123 C122 1.261 . S
H124 C118 0.930 . S
H125 C120 0.930 . S
N126 Cu115 1.985 . S
N126 C128 1.335 . S
N126 C129 1.390 . S
N127 C128 1.345 . S
N127 C130 1.336 . S
C128 N126 1.335 . S
C128 N127 1.345 . S
C128 H133 0.930 . S
C129 N126 1.390 . S
C129 C130 1.346 . S
C129 H134 0.930 . S
C130 N127 1.336 . S
C130 C129 1.346 . S
C130 H137 0.929 . S
C131 O121 1.282 . S
C131 O132 1.216 . S
O132 C131 1.216 . S
H133 C128 0.930 . S
H134 C129 0.930 . S
O135 Cu115 1.959 . S
O135 C122 1.251 . S
H136 C119 0.930 . S
H137 C130 0.929 . S
H138 O164 0.856 . S
H139 O167 0.854 . S
H140 C175 0.930 . S
H141 C176 0.930 . S
H142 C178 0.930 . S
H143 C179 0.930 . S
H144 C181 0.931 . S
H145 C182 0.930 . S
H146 C184 0.930 . S
H147 C185 0.929 . S
H148 C187 0.930 . S
H149 C188 0.931 . S
H150 C190 0.930 . S
H151 C191 0.929 . S
H152 C193 0.931 . S
H153 C194 0.930 . S
H154 C196 0.930 . S
H155 C197 0.932 . S
H156 C199 0.930 . S
H157 C200 0.929 . S
H158 C202 0.931 . S
H159 C203 0.930 . S
H160 C205 0.929 . S
H161 C206 0.931 . S
H162 C208 0.930 . S
H163 C209 0.929 . S
O164 H138 0.856 . S
O164 C210 1.300 . S
O165 C210 1.209 . S
O166 C211 1.199 . S
O167 H139 0.854 . S
O167 C211 1.297 . S
C168 C169 1.404 . S
C168 C173 1.397 . S
C168 C174 1.492 . S
C169 C168 1.404 . S
C169 C170 1.396 . S
C169 C180 1.492 . S
C170 C169 1.396 . S
C170 C171 1.397 . S
C170 C186 1.509 . S
C171 C170 1.397 . S
C171 C172 1.412 . S
C171 C192 1.485 . S
C172 C171 1.412 . S
C172 C173 1.388 . S
C172 C198 1.490 . S
C173 C168 1.397 . S
C173 C172 1.388 . S
C173 C204 1.519 . S
C174 C168 1.492 . S
C174 C175 1.363 . S
C174 C179 1.390 . S
C175 H140 0.930 . S
C175 C174 1.363 . S
C175 C176 1.372 . S
C176 H141 0.930 . S
C176 C175 1.372 . S
C176 C177 1.383 . S
C177 C176 1.383 . S
C177 C178 1.395 . S
C178 H142 0.930 . S
C178 C177 1.395 . S
C178 C179 1.362 . S
C179 H143 0.930 . S
C179 C174 1.390 . S
C179 C178 1.362 . S
C180 C169 1.492 . S
C180 C181 1.377 . S
C180 C185 1.397 . S
C181 H144 0.931 . S
C181 C180 1.377 . S
C181 C182 1.376 . S
C182 H145 0.930 . S
C182 C181 1.376 . S
C182 C183 1.376 . S
C183 C182 1.376 . S
C183 C184 1.378 . S
C183 C210 1.486 . S
C184 H146 0.930 . S
C184 C183 1.378 . S
C184 C185 1.376 . S
C185 H147 0.929 . S
C185 C180 1.397 . S
C185 C184 1.376 . S
C186 C170 1.509 . S
C186 C187 1.391 . S
C186 C191 1.386 . S
C187 H148 0.930 . S
C187 C186 1.391 . S
C187 C188 1.375 . S
C188 H149 0.931 . S
C188 C187 1.375 . S
C188 C189 1.375 . S
C189 C188 1.375 . S
C189 C190 1.361 . S
C190 H150 0.930 . S
C190 C189 1.361 . S
C190 C191 1.399 . S
C191 H151 0.929 . S
C191 C186 1.386 . S
C191 C190 1.399 . S
C192 C171 1.485 . S
C192 C193 1.394 . S
C192 C197 1.360 . S
C193 H152 0.931 . S
C193 C192 1.394 . S
C193 C194 1.372 . S
C194 H153 0.930 . S
C194 C193 1.372 . S
C194 C195 1.397 . S
C195 C194 1.397 . S
C195 C196 1.390 . S
C195 C211 1.476 . S
C196 H154 0.930 . S
C196 C195 1.390 . S
C196 C197 1.366 . S
C197 H155 0.932 . S
C197 C192 1.360 . S
C197 C196 1.366 . S
C198 C172 1.490 . S
C198 C199 1.380 . S
C198 C203 1.386 . S
C199 H156 0.930 . S
C199 C198 1.380 . S
C199 C200 1.381 . S
C200 H157 0.929 . S
C200 C199 1.381 . S
C200 C201 1.371 . S
C201 C200 1.371 . S
C201 C202 1.380 . S
C202 H158 0.931 . S
C202 C201 1.380 . S
C202 C203 1.387 . S
C203 H159 0.930 . S
C203 C198 1.386 . S
C203 C202 1.387 . S
C204 C173 1.519 . S
C204 C205 1.377 . S
C204 C209 1.361 . S
C205 H160 0.929 . S
C205 C204 1.377 . S
C205 C206 1.386 . S
C206 H161 0.931 . S
C206 C205 1.386 . S
C206 C207 1.363 . S
C207 C206 1.363 . S
C207 C208 1.385 . S
C208 H162 0.930 . S
C208 C207 1.385 . S
C208 C209 1.396 . S
C209 H163 0.929 . S
C209 C204 1.361 . S
C209 C208 1.396 . S
C210 O164 1.300 . S
C210 O165 1.209 . S
C210 C183 1.486 . S
C211 O166 1.199 . S
C211 O167 1.297 . S
C211 C195 1.476 . S
H212 O238 0.856 . S
H213 O241 0.854 . S
H214 C249 0.930 . S
H215 C250 0.930 . S
H216 C252 0.930 . S
H217 C253 0.930 . S
H218 C255 0.931 . S
H219 C256 0.930 . S
H220 C258 0.930 . S
H221 C259 0.929 . S
H222 C261 0.930 . S
H223 C262 0.931 . S
H224 C264 0.930 . S
H225 C265 0.929 . S
H226 C267 0.931 . S
H227 C268 0.930 . S
H228 C270 0.930 . S
H229 C271 0.932 . S
H230 C273 0.930 . S
H231 C274 0.929 . S
H232 C276 0.931 . S
H233 C277 0.930 . S
H234 C279 0.929 . S
H235 C280 0.931 . S
H236 C282 0.930 . S
H237 C283 0.929 . S
O238 H212 0.856 . S
O238 C284 1.300 . S
O239 C284 1.209 1_455 S
O240 C285 1.199 . S
O241 H213 0.854 . S
O241 C285 1.297 1_565 S
C242 C243 1.404 . S
C242 C247 1.397 . S
C242 C248 1.492 . S
C243 C242 1.404 . S
C243 C244 1.396 . S
C243 C254 1.492 . S
C244 C243 1.396 . S
C244 C245 1.397 . S
C244 C260 1.509 . S
C245 C244 1.397 . S
C245 C246 1.412 . S
C245 C266 1.485 . S
C246 C245 1.412 . S
C246 C247 1.388 . S
C246 C272 1.490 . S
C247 C242 1.397 . S
C247 C246 1.388 . S
C247 C278 1.519 . S
C248 C242 1.492 . S
C248 C249 1.363 . S
C248 C253 1.390 . S
C249 H214 0.930 . S
C249 C248 1.363 . S
C249 C250 1.372 . S
C250 H215 0.930 . S
C250 C249 1.372 . S
C250 C251 1.383 1_655 S
C251 C250 1.383 1_455 S
C251 C252 1.395 . S
C252 H216 0.930 . S
C252 C251 1.395 . S
C252 C253 1.362 1_455 S
C253 H217 0.930 . S
C253 C248 1.390 . S
C253 C252 1.362 1_655 S
C254 C243 1.492 . S
C254 C255 1.377 . S
C254 C259 1.397 . S
C255 H218 0.931 . S
C255 C254 1.377 . S
C255 C256 1.376 . S
C256 H219 0.930 . S
C256 C255 1.376 . S
C256 C257 1.376 . S
C257 C256 1.376 . S
C257 C258 1.378 . S
C257 C284 1.486 1_556 S
C258 H220 0.930 . S
C258 C257 1.378 . S
C258 C259 1.376 . S
C259 H221 0.929 . S
C259 C254 1.397 . S
C259 C258 1.376 . S
C260 C244 1.509 . S
C260 C261 1.391 . S
C260 C265 1.386 . S
C261 H222 0.930 . S
C261 C260 1.391 . S
C261 C262 1.375 . S
C262 H223 0.931 . S
C262 C261 1.375 . S
C262 C263 1.375 . S
C263 C262 1.375 . S
C263 C264 1.361 . S
C264 H224 0.930 . S
C264 C263 1.361 . S
C264 C265 1.399 . S
C265 H225 0.929 . S
C265 C260 1.386 . S
C265 C264 1.399 . S
C266 C245 1.485 . S
C266 C267 1.394 . S
C266 C271 1.360 . S
C267 H226 0.931 . S
C267 C266 1.394 . S
C267 C268 1.372 . S
C268 H227 0.930 . S
C268 C267 1.372 . S
C268 C269 1.397 . S
C269 C268 1.397 . S
C269 C270 1.390 . S
C269 C285 1.476 . S
C270 H228 0.930 . S
C270 C269 1.390 . S
C270 C271 1.366 . S
C271 H229 0.932 . S
C271 C266 1.360 . S
C271 C270 1.366 . S
C272 C246 1.490 . S
C272 C273 1.380 . S
C272 C277 1.386 . S
C273 H230 0.930 . S
C273 C272 1.380 . S
C273 C274 1.381 . S
C274 H231 0.929 . S
C274 C273 1.381 . S
C274 C275 1.371 . S
C275 C274 1.371 . S
C275 C276 1.380 . S
C276 H232 0.931 . S
C276 C275 1.380 . S
C276 C277 1.387 . S
C277 H233 0.930 . S
C277 C272 1.386 . S
C277 C276 1.387 . S
C278 C247 1.519 . S
C278 C279 1.377 . S
C278 C283 1.361 . S
C279 H234 0.929 . S
C279 C278 1.377 . S
C279 C280 1.386 . S
C280 H235 0.931 . S
C280 C279 1.386 . S
C280 C281 1.363 . S
C281 C280 1.363 . S
C281 C282 1.385 . S
C282 H236 0.930 . S
C282 C281 1.385 . S
C282 C283 1.396 . S
C283 H237 0.929 . S
C283 C278 1.361 . S
C283 C282 1.396 . S
C284 O238 1.300 . S
C284 O239 1.209 1_655 S
C284 C257 1.486 1_554 S
C285 O240 1.199 . S
C285 O241 1.297 1_545 S
C285 C269 1.476 . S
H286 O312 0.856 . S
H287 O315 0.854 . S
H288 C323 0.930 . S
H289 C324 0.930 . S
H290 C326 0.930 . S
H291 C327 0.930 . S
H292 C329 0.931 . S
H293 C330 0.930 . S
H294 C332 0.930 . S
H295 C333 0.929 . S
H296 C335 0.930 . S
H297 C336 0.931 . S
H298 C338 0.930 . S
H299 C339 0.929 . S
H300 C341 0.931 . S
H301 C342 0.930 . S
H302 C344 0.930 . S
H303 C345 0.932 . S
H304 C347 0.930 . S
H305 C348 0.929 . S
H306 C350 0.931 . S
H307 C351 0.930 . S
H308 C353 0.929 . S
H309 C354 0.931 . S
H310 C356 0.930 . S
H311 C357 0.929 . S
O312 H286 0.856 . S
O312 C358 1.300 . S
O313 C358 1.209 . S
O314 C359 1.199 . S
O315 H287 0.854 . S
O315 C359 1.297 . S
C316 C317 1.404 . S
C316 C321 1.397 . S
C316 C322 1.492 . S
C317 C316 1.404 . S
C317 C318 1.396 . S
C317 C328 1.492 . S
C318 C317 1.396 . S
C318 C319 1.397 . S
C318 C334 1.509 . S
C319 C318 1.397 . S
C319 C320 1.412 . S
C319 C340 1.485 . S
C320 C319 1.412 . S
C320 C321 1.388 . S
C320 C346 1.490 . S
C321 C316 1.397 . S
C321 C320 1.388 . S
C321 C352 1.519 . S
C322 C316 1.492 . S
C322 C323 1.363 . S
C322 C327 1.390 . S
C323 H288 0.930 . S
C323 C322 1.363 . S
C323 C324 1.372 . S
C324 H289 0.930 . S
C324 C323 1.372 . S
C324 C325 1.383 . S
C325 C324 1.383 . S
C325 C326 1.395 . S
C326 H290 0.930 . S
C326 C325 1.395 . S
C326 C327 1.362 . S
C327 H291 0.930 . S
C327 C322 1.390 . S
C327 C326 1.362 . S
C328 C317 1.492 . S
C328 C329 1.377 . S
C328 C333 1.397 . S
C329 H292 0.931 . S
C329 C328 1.377 . S
C329 C330 1.376 . S
C330 H293 0.930 . S
C330 C329 1.376 . S
C330 C331 1.376 . S
C331 C330 1.376 . S
C331 C332 1.378 . S
C331 C358 1.486 . S
C332 H294 0.930 . S
C332 C331 1.378 . S
C332 C333 1.376 . S
C333 H295 0.929 . S
C333 C328 1.397 . S
C333 C332 1.376 . S
C334 C318 1.509 . S
C334 C335 1.391 . S
C334 C339 1.386 . S
C335 H296 0.930 . S
C335 C334 1.391 . S
C335 C336 1.375 . S
C336 H297 0.931 . S
C336 C335 1.375 . S
C336 C337 1.375 . S
C337 C336 1.375 . S
C337 C338 1.361 . S
C338 H298 0.930 . S
C338 C337 1.361 . S
C338 C339 1.399 . S
C339 H299 0.929 . S
C339 C334 1.386 . S
C339 C338 1.399 . S
C340 C319 1.485 . S
C340 C341 1.394 . S
C340 C345 1.360 . S
C341 H300 0.931 . S
C341 C340 1.394 . S
C341 C342 1.372 . S
C342 H301 0.930 . S
C342 C341 1.372 . S
C342 C343 1.408 . S
C343 C342 1.408 . S
C343 C344 1.399 1_565 S
C343 C359 1.456 1_565 S
C344 H302 0.930 . S
C344 C343 1.399 1_545 S
C344 C345 1.366 1_545 S
C345 H303 0.932 . S
C345 C340 1.360 . S
C345 C344 1.366 1_565 S
C346 C320 1.490 . S
C346 C347 1.380 . S
C346 C351 1.386 . S
C347 H304 0.930 . S
C347 C346 1.380 . S
C347 C348 1.381 . S
C348 H305 0.929 . S
C348 C347 1.381 . S
C348 C349 1.371 . S
C349 C348 1.371 . S
C349 C350 1.380 . S
C350 H306 0.931 . S
C350 C349 1.380 . S
C350 C351 1.387 . S
C351 H307 0.930 . S
C351 C346 1.386 . S
C351 C350 1.387 . S
C352 C321 1.519 . S
C352 C353 1.377 . S
C352 C357 1.361 . S
C353 H308 0.929 . S
C353 C352 1.377 . S
C353 C354 1.386 . S
C354 H309 0.931 . S
C354 C353 1.386 . S
C354 C355 1.363 . S
C355 C354 1.363 . S
C355 C356 1.385 . S
C356 H310 0.930 . S
C356 C355 1.385 . S
C356 C357 1.396 . S
C357 H311 0.929 . S
C357 C352 1.361 . S
C357 C356 1.396 . S
C358 O312 1.300 . S
C358 O313 1.209 . S
C358 C331 1.486 . S
C359 O314 1.199 . S
C359 O315 1.297 . S
C359 C343 1.456 1_545 S
H360 O386 0.856 . S
H361 O389 0.854 . S
H362 C397 0.930 . S
H363 C398 0.930 . S
H364 C400 0.930 . S
H365 C401 0.930 . S
H366 C403 0.931 . S
H367 C404 0.930 . S
H368 C406 0.930 . S
H369 C407 0.929 . S
H370 C409 0.930 . S
H371 C410 0.931 1_455 S
H372 C412 0.930 . S
H373 C413 0.929 . S
H374 C415 0.931 . S
H375 C416 0.930 . S
H376 C418 0.930 . S
H377 C419 0.932 . S
H378 C421 0.930 . S
H379 C422 0.932 1_455 S
H380 C424 0.931 . S
H381 C425 0.930 . S
H382 C427 0.929 . S
H383 C428 0.931 . S
H384 C430 0.930 . S
H385 C431 0.929 . S
O386 H360 0.856 . S
O386 C432 1.300 . S
O387 C432 1.209 . S
O388 C433 1.199 . S
O389 H361 0.854 . S
O389 C433 1.297 . S
C390 C391 1.404 . S
C390 C395 1.397 . S
C390 C396 1.492 . S
C391 C390 1.404 . S
C391 C392 1.396 . S
C391 C402 1.492 . S
C392 C391 1.396 . S
C392 C393 1.397 . S
C392 C408 1.509 . S
C393 C392 1.397 . S
C393 C394 1.412 . S
C393 C414 1.485 . S
C394 C393 1.412 . S
C394 C395 1.388 . S
C394 C420 1.490 . S
C395 C390 1.397 . S
C395 C394 1.388 . S
C395 C426 1.519 . S
C396 C390 1.492 . S
C396 C397 1.363 . S
C396 C401 1.390 . S
C397 H362 0.930 . S
C397 C396 1.363 . S
C397 C398 1.372 . S
C398 H363 0.930 . S
C398 C397 1.372 . S
C398 C399 1.383 . S
C399 C398 1.383 . S
C399 C400 1.395 . S
C400 H364 0.930 . S
C400 C399 1.395 . S
C400 C401 1.362 . S
C401 H365 0.930 . S
C401 C396 1.390 . S
C401 C400 1.362 . S
C402 C391 1.492 . S
C402 C403 1.377 . S
C402 C407 1.397 . S
C403 H366 0.931 . S
C403 C402 1.377 . S
C403 C404 1.376 . S
C404 H367 0.930 . S
C404 C403 1.376 . S
C404 C405 1.376 . S
C405 C404 1.376 . S
C405 C406 1.378 . S
C405 C432 1.486 . S
C406 H368 0.930 . S
C406 C405 1.378 . S
C406 C407 1.376 . S
C407 H369 0.929 . S
C407 C402 1.397 . S
C407 C406 1.376 . S
C408 C392 1.509 . S
C408 C409 1.391 . S
C408 C413 1.386 . S
C409 H370 0.930 . S
C409 C408 1.391 . S
C409 C410 1.375 . S
C410 H371 0.931 1_655 S
C410 C409 1.375 . S
C410 C411 1.375 . S
C411 C410 1.375 . S
C411 C412 1.361 . S
C412 H372 0.930 . S
C412 C411 1.361 . S
C412 C413 1.399 . S
C413 H373 0.929 . S
C413 C408 1.386 . S
C413 C412 1.399 . S
C414 C393 1.485 . S
C414 C415 1.394 1_655 S
C414 C419 1.360 . S
C415 H374 0.931 . S
C415 C414 1.394 1_455 S
C415 C416 1.372 . S
C416 H375 0.930 . S
C416 C415 1.372 . S
C416 C417 1.397 . S
C417 C416 1.397 . S
C417 C418 1.390 . S
C417 C433 1.476 . S
C418 H376 0.930 . S
C418 C417 1.390 . S
C418 C419 1.366 1_455 S
C419 H377 0.932 . S
C419 C414 1.360 . S
C419 C418 1.366 1_655 S
C420 C394 1.490 . S
C420 C421 1.380 . S
C420 C425 1.386 . S
C421 H378 0.930 . S
C421 C420 1.380 . S
C421 C422 1.381 . S
C422 H379 0.932 1_655 S
C422 C421 1.381 . S
C422 C423 1.371 . S
C423 C422 1.371 . S
C423 C424 1.380 . S
C424 H380 0.931 . S
C424 C423 1.380 . S
C424 C425 1.387 . S
C425 H381 0.930 . S
C425 C420 1.386 . S
C425 C424 1.387 . S
C426 C395 1.519 . S
C426 C427 1.377 . S
C426 C431 1.361 . S
C427 H382 0.929 . S
C427 C426 1.377 . S
C427 C428 1.386 . S
C428 H383 0.931 . S
C428 C427 1.386 . S
C428 C429 1.363 . S
C429 C428 1.363 . S
C429 C430 1.385 . S
C430 H384 0.930 . S
C430 C429 1.385 . S
C430 C431 1.396 . S
C431 H385 0.929 . S
C431 C426 1.361 . S
C431 C430 1.396 . S
C432 O386 1.300 . S
C432 O387 1.209 . S
C432 C405 1.486 . S
C433 O388 1.199 . S
C433 O389 1.297 . S
C433 C417 1.476 . S
H434 O460 0.856 . S
H435 O463 0.854 . S
H436 C471 0.930 . S
H437 C472 0.930 . S
H438 C474 0.930 . S
H439 C475 0.930 . S
H440 C477 0.931 . S
H441 C478 0.930 . S
H442 C480 0.930 . S
H443 C481 0.929 . S
H444 C483 0.930 . S
H445 C484 0.931 . S
H446 C486 0.930 . S
H447 C487 0.929 . S
H448 C489 0.931 . S
H449 C490 0.930 . S
H450 C492 0.930 . S
H451 C493 0.932 . S
H452 C495 0.930 . S
H453 C496 0.929 . S
H454 C498 0.931 . S
H455 C499 0.930 . S
H456 C501 0.929 . S
H457 C502 0.931 . S
H458 C504 0.930 . S
H459 C505 0.929 . S
O460 H434 0.856 . S
O460 C506 1.300 . S
O461 C506 1.209 . S
O462 C507 1.199 . S
O463 H435 0.854 . S
O463 C507 1.297 . S
C464 C465 1.404 . S
C464 C469 1.397 . S
C464 C470 1.492 . S
C465 C464 1.404 . S
C465 C466 1.396 . S
C465 C476 1.492 . S
C466 C465 1.396 . S
C466 C467 1.397 . S
C466 C482 1.509 . S
C467 C466 1.397 . S
C467 C468 1.412 . S
C467 C488 1.485 . S
C468 C467 1.412 . S
C468 C469 1.388 . S
C468 C494 1.490 . S
C469 C464 1.397 . S
C469 C468 1.388 . S
C469 C500 1.519 . S
C470 C464 1.492 . S
C470 C471 1.363 . S
C470 C475 1.390 . S
C471 H436 0.930 . S
C471 C470 1.363 . S
C471 C472 1.372 . S
C472 H437 0.930 . S
C472 C471 1.372 . S
C472 C473 1.383 . S
C473 C472 1.383 . S
C473 C474 1.395 . S
C474 H438 0.930 . S
C474 C473 1.395 . S
C474 C475 1.362 . S
C475 H439 0.930 . S
C475 C470 1.390 . S
C475 C474 1.362 . S
C476 C465 1.492 . S
C476 C477 1.377 . S
C476 C481 1.397 . S
C477 H440 0.931 . S
C477 C476 1.377 . S
C477 C478 1.376 . S
C478 H441 0.930 . S
C478 C477 1.376 . S
C478 C479 1.376 . S
C479 C478 1.376 . S
C479 C480 1.378 . S
C479 C506 1.486 . S
C480 H442 0.930 . S
C480 C479 1.378 . S
C480 C481 1.376 . S
C481 H443 0.929 . S
C481 C476 1.397 . S
C481 C480 1.376 . S
C482 C466 1.509 . S
C482 C483 1.391 . S
C482 C487 1.386 . S
C483 H444 0.930 . S
C483 C482 1.391 . S
C483 C484 1.375 . S
C484 H445 0.931 . S
C484 C483 1.375 . S
C484 C485 1.375 . S
C485 C484 1.375 . S
C485 C486 1.361 . S
C486 H446 0.930 . S
C486 C485 1.361 . S
C486 C487 1.399 . S
C487 H447 0.929 . S
C487 C482 1.386 . S
C487 C486 1.399 . S
C488 C467 1.485 . S
C488 C489 1.394 . S
C488 C493 1.360 . S
C489 H448 0.931 . S
C489 C488 1.394 . S
C489 C490 1.372 . S
C490 H449 0.930 . S
C490 C489 1.372 . S
C490 C491 1.397 . S
C491 C490 1.397 . S
C491 C492 1.390 . S
C491 C507 1.476 . S
C492 H450 0.930 . S
C492 C491 1.390 . S
C492 C493 1.366 . S
C493 H451 0.932 . S
C493 C488 1.360 . S
C493 C492 1.366 . S
C494 C468 1.490 . S
C494 C495 1.380 . S
C494 C499 1.386 . S
C495 H452 0.930 . S
C495 C494 1.380 . S
C495 C496 1.381 . S
C496 H453 0.929 . S
C496 C495 1.381 . S
C496 C497 1.371 . S
C497 C496 1.371 . S
C497 C498 1.380 . S
C498 H454 0.931 . S
C498 C497 1.380 . S
C498 C499 1.387 . S
C499 H455 0.930 . S
C499 C494 1.386 . S
C499 C498 1.387 . S
C500 C469 1.519 . S
C500 C501 1.377 . S
C500 C505 1.361 . S
C501 H456 0.929 . S
C501 C500 1.377 . S
C501 C502 1.386 . S
C502 H457 0.931 . S
C502 C501 1.386 . S
C502 C503 1.363 . S
C503 C502 1.363 . S
C503 C504 1.385 . S
C504 H458 0.930 . S
C504 C503 1.385 . S
C504 C505 1.396 . S
C505 H459 0.929 . S
C505 C500 1.361 . S
C505 C504 1.396 . S
C506 O460 1.300 . S
C506 O461 1.209 . S
C506 C479 1.486 . S
C507 O462 1.199 . S
C507 O463 1.297 . S
C507 C491 1.476 . S
H508 O534 0.856 . S
H509 O537 0.854 . S
H510 C545 0.930 . S
H511 C546 0.930 . S
H512 C548 0.930 . S
H513 C549 0.930 . S
H514 C551 0.931 . S
H515 C552 0.930 . S
H516 C554 0.930 . S
H517 C555 0.929 . S
H518 C557 0.930 . S
H519 C558 0.931 . S
H520 C560 0.930 . S
H521 C561 0.929 . S
H522 C563 0.931 . S
H523 C564 0.930 . S
H524 C566 0.930 . S
H525 C567 0.932 . S
H526 C569 0.930 . S
H527 C570 0.929 . S
H528 C572 0.931 . S
H529 C573 0.930 . S
H530 C575 0.929 . S
H531 C576 0.931 . S
H532 C578 0.930 . S
H533 C579 0.929 . S
O534 H508 0.856 . S
O534 C580 1.300 . S
O535 C580 1.209 . S
O536 C581 1.199 . S
O537 H509 0.854 . S
O537 C581 1.297 1_565 S
C538 C539 1.404 . S
C538 C543 1.397 . S
C538 C544 1.492 . S
C539 C538 1.404 . S
C539 C540 1.396 . S
C539 C550 1.492 . S
C540 C539 1.396 . S
C540 C541 1.397 . S
C540 C556 1.509 . S
C541 C540 1.397 . S
C541 C542 1.412 . S
C541 C562 1.485 . S
C542 C541 1.412 . S
C542 C543 1.388 . S
C542 C568 1.490 . S
C543 C538 1.397 . S
C543 C542 1.388 . S
C543 C574 1.519 . S
C544 C538 1.492 . S
C544 C545 1.363 . S
C544 C549 1.390 . S
C545 H510 0.930 . S
C545 C544 1.363 . S
C545 C546 1.372 . S
C546 H511 0.930 . S
C546 C545 1.372 . S
C546 C547 1.383 . S
C547 C546 1.383 . S
C547 C548 1.395 . S
C548 H512 0.930 . S
C548 C547 1.395 . S
C548 C549 1.362 . S
C549 H513 0.930 . S
C549 C544 1.390 . S
C549 C548 1.362 . S
C550 C539 1.492 . S
C550 C551 1.377 . S
C550 C555 1.397 . S
C551 H514 0.931 . S
C551 C550 1.377 . S
C551 C552 1.376 . S
C552 H515 0.930 . S
C552 C551 1.376 . S
C552 C553 1.376 . S
C553 C552 1.376 . S
C553 C554 1.378 . S
C553 C580 1.486 . S
C554 H516 0.930 . S
C554 C553 1.378 . S
C554 C555 1.376 . S
C555 H517 0.929 . S
C555 C550 1.397 . S
C555 C554 1.376 . S
C556 C540 1.509 . S
C556 C557 1.391 . S
C556 C561 1.386 . S
C557 H518 0.930 . S
C557 C556 1.391 . S
C557 C558 1.375 . S
C558 H519 0.931 . S
C558 C557 1.375 . S
C558 C559 1.375 . S
C559 C558 1.375 . S
C559 C560 1.361 . S
C560 H520 0.930 . S
C560 C559 1.361 . S
C560 C561 1.399 . S
C561 H521 0.929 . S
C561 C556 1.386 . S
C561 C560 1.399 . S
C562 C541 1.485 . S
C562 C563 1.394 . S
C562 C567 1.360 . S
C563 H522 0.931 . S
C563 C562 1.394 . S
C563 C564 1.372 . S
C564 H523 0.930 . S
C564 C563 1.372 . S
C564 C565 1.397 . S
C565 C564 1.397 . S
C565 C566 1.390 . S
C565 C581 1.476 . S
C566 H524 0.930 . S
C566 C565 1.390 . S
C566 C567 1.366 . S
C567 H525 0.932 . S
C567 C562 1.360 . S
C567 C566 1.366 . S
C568 C542 1.490 . S
C568 C569 1.380 . S
C568 C573 1.386 . S
C569 H526 0.930 . S
C569 C568 1.380 . S
C569 C570 1.381 . S
C570 H527 0.929 . S
C570 C569 1.381 . S
C570 C571 1.371 . S
C571 C570 1.371 . S
C571 C572 1.380 . S
C572 H528 0.931 . S
C572 C571 1.380 . S
C572 C573 1.387 . S
C573 H529 0.930 . S
C573 C568 1.386 . S
C573 C572 1.387 . S
C574 C543 1.519 . S
C574 C575 1.377 . S
C574 C579 1.361 . S
C575 H530 0.929 . S
C575 C574 1.377 . S
C575 C576 1.386 . S
C576 H531 0.931 . S
C576 C575 1.386 . S
C576 C577 1.363 . S
C577 C576 1.363 . S
C577 C578 1.385 . S
C578 H532 0.930 . S
C578 C577 1.385 . S
C578 C579 1.396 . S
C579 H533 0.929 . S
C579 C574 1.361 . S
C579 C578 1.396 . S
C580 O534 1.300 . S
C580 O535 1.209 . S
C580 C553 1.486 . S
C581 O536 1.199 . S
C581 O537 1.297 1_545 S
C581 C565 1.476 . S
C582 C583 1.387 . S
C582 H586 0.950 . S
C582 C591 1.390 . S
C583 C582 1.387 . S
C583 C585 1.387 . S
H584 C591 0.950 . S
C585 C583 1.387 . S
C585 C587 1.390 . S
C585 H589 0.950 . S
H586 C582 0.950 . S
C587 C585 1.390 . S
C587 C588 1.387 . S
C587 H590 0.950 . S
C588 C587 1.387 . S
C588 C591 1.387 . S
H589 C585 0.950 . S
H590 C587 0.950 . S
C591 C582 1.390 . S
C591 H584 0.950 . S
C591 C588 1.387 . S
C592 C593 1.387 . S
C592 H596 0.950 . S
C592 C601 1.390 . S
C593 C592 1.387 . S
C593 C595 1.387 . S
H594 C601 0.950 . S
C595 C593 1.387 . S
C595 C597 1.390 . S
C595 H599 0.950 . S
H596 C592 0.950 . S
C597 C595 1.390 . S
C597 C598 1.387 . S
C597 H600 0.950 . S
C598 C597 1.387 . S
C598 C601 1.387 . S
H599 C595 0.950 . S
H600 C597 0.950 . S
C601 C592 1.390 . S
C601 H594 0.950 . S
C601 C598 1.387 . S
C602 C603 1.387 . S
C602 H606 0.950 . S
C602 C611 1.390 . S
C603 C602 1.387 . S
C603 C605 1.387 . S
H604 C611 0.950 . S
C605 C603 1.387 . S
C605 C607 1.390 . S
C605 H609 0.950 . S
H606 C602 0.950 . S
C607 C605 1.390 . S
C607 C608 1.387 . S
C607 H610 0.950 . S
C608 C607 1.387 . S
C608 C611 1.387 . S
H609 C605 0.950 . S
H610 C607 0.950 . S
C611 C602 1.390 . S
C611 H604 0.950 . S
C611 C608 1.387 . S
C612 C613 1.387 . S
C612 H616 0.950 . S
C612 C621 1.390 . S
C613 C612 1.387 . S
C613 C615 1.387 . S
H614 C621 0.950 1_455 S
C615 C613 1.387 . S
C615 C617 1.390 . S
C615 H619 0.950 . S
H616 C612 0.950 . S
C617 C615 1.390 . S
C617 C618 1.387 . S
C617 H620 0.950 . S
C618 C617 1.387 . S
C618 C621 1.387 . S
H619 C615 0.950 . S
H620 C617 0.950 . S
C621 C612 1.390 . S
C621 H614 0.950 1_655 S
C621 C618 1.387 . S
C622 C623 1.387 . S
C622 H626 0.950 1_565 S
C622 C631 1.390 . S
C623 C622 1.387 . S
C623 C625 1.387 . S
H624 C631 0.950 . S
C625 C623 1.387 . S
C625 C627 1.390 . S
C625 H629 0.950 . S
H626 C622 0.950 1_545 S
C627 C625 1.390 . S
C627 C628 1.387 . S
C627 H630 0.950 . S
C628 C627 1.387 . S
C628 C631 1.387 . S
H629 C625 0.950 . S
H630 C627 0.950 . S
C631 C622 1.390 . S
C631 H624 0.950 . S
C631 C628 1.387 . S
C632 C633 1.387 . S
C632 H636 0.950 . S
C632 C641 1.390 . S
C633 C632 1.387 . S
C633 C635 1.387 . S
H634 C641 0.950 . S
C635 C633 1.387 . S
C635 C637 1.390 . S
C635 H639 0.950 . S
H636 C632 0.950 . S
C637 C635 1.390 . S
C637 C638 1.387 . S
C637 H640 0.950 . S
C638 C637 1.387 . S
C638 C641 1.387 . S
H639 C635 0.950 . S
H640 C637 0.950 . S
C641 C632 1.390 . S
C641 H634 0.950 . S
C641 C638 1.387 . S
C642 C643 1.387 . S
C642 H646 0.950 . S
C642 C651 1.390 . S
C643 C642 1.387 . S
C643 C645 1.387 . S
H644 C651 0.950 . S
C645 C643 1.387 . S
C645 C647 1.390 . S
C645 H649 0.950 . S
H646 C642 0.950 . S
C647 C645 1.390 . S
C647 C648 1.387 . S
C647 H650 0.950 . S
C648 C647 1.387 . S
C648 C651 1.387 . S
H649 C645 0.950 . S
H650 C647 0.950 . S
C651 C642 1.390 . S
C651 H644 0.950 . S
C651 C648 1.387 . S
C652 C653 1.387 1_556 S
C652 H656 0.950 . S
C652 C661 1.390 . S
C653 C652 1.387 1_554 S
C653 C655 1.387 . S
H654 C661 0.950 . S
C655 C653 1.387 . S
C655 C657 1.410 . S
C655 H659 0.950 . S
H656 C652 0.950 . S
C657 C655 1.410 . S
C657 C658 1.366 1_554 S
C657 H660 0.952 . S
C658 C657 1.366 1_556 S
C658 C661 1.387 . S
H659 C655 0.950 . S
H660 C657 0.952 . S
C661 C652 1.390 . S
C661 H654 0.950 . S
C661 C658 1.387 . S
C662 C663 1.387 . S
C662 H666 0.950 . S
C662 C671 1.390 . S
C663 C662 1.387 . S
C663 C665 1.387 . S
H664 C671 0.950 . S
C665 C663 1.387 . S
C665 C667 1.390 . S
C665 H669 0.950 . S
H666 C662 0.950 . S
C667 C665 1.390 . S
C667 C668 1.387 . S
C667 H670 0.950 . S
C668 C667 1.387 . S
C668 C671 1.387 . S
H669 C665 0.950 . S
H670 C667 0.950 . S
C671 C662 1.390 . S
C671 H664 0.950 . S
C671 C668 1.387 . S
C672 C673 1.387 1_556 S
C672 H676 0.950 . S
C672 C681 1.390 . S
C673 C672 1.387 1_554 S
C673 C675 1.387 . S
H674 C681 0.950 . S
C675 C673 1.387 . S
C675 C677 1.390 1_554 S
C675 H679 0.950 . S
H676 C672 0.950 . S
C677 C675 1.390 1_556 S
C677 C678 1.387 . S
C677 H680 0.950 . S
C678 C677 1.387 . S
C678 C681 1.387 . S
H679 C675 0.950 . S
H680 C677 0.950 . S
C681 C672 1.390 . S
C681 H674 0.950 . S
C681 C678 1.387 . S
C682 C683 1.387 . S
C682 H686 0.950 . S
C682 C691 1.390 . S
C683 C682 1.387 . S
C683 C685 1.387 . S
H684 C691 0.950 . S
C685 C683 1.387 . S
C685 C687 1.390 . S
C685 H689 0.950 . S
H686 C682 0.950 . S
C687 C685 1.390 . S
C687 C688 1.387 . S
C687 H690 0.950 . S
C688 C687 1.387 . S
C688 C691 1.387 . S
H689 C685 0.950 . S
H690 C687 0.950 . S
C691 C682 1.390 . S
C691 H684 0.950 . S
C691 C688 1.387 . S
C692 C693 1.387 . S
C692 H696 0.950 . S
C692 C701 1.390 . S
C693 C692 1.387 . S
C693 C695 1.387 . S
H694 C701 0.950 . S
C695 C693 1.387 . S
C695 C697 1.390 . S
C695 H699 0.950 . S
H696 C692 0.950 . S
C697 C695 1.390 . S
C697 C698 1.387 . S
C697 H700 0.950 . S
C698 C697 1.387 . S
C698 C701 1.387 . S
H699 C695 0.950 . S
H700 C697 0.950 . S
C701 C692 1.390 . S
C701 H694 0.950 . S
C701 C698 1.387 . S
C702 C703 1.387 . S
C702 H706 0.950 . S
C702 C711 1.390 . S
C703 C702 1.387 . S
C703 C705 1.387 . S
H704 C711 0.950 . S
C705 C703 1.387 . S
C705 C707 1.390 . S
C705 H709 0.950 . S
H706 C702 0.950 . S
C707 C705 1.390 . S
C707 C708 1.387 . S
C707 H710 0.950 . S
C708 C707 1.387 . S
C708 C711 1.387 . S
H709 C705 0.950 . S
H710 C707 0.950 . S
C711 C702 1.390 . S
C711 H704 0.950 . S
C711 C708 1.387 . S
C712 C713 1.387 . S
C712 H716 0.950 . S
C712 C721 1.390 . S
C713 C712 1.387 . S
C713 C715 1.387 . S
H714 C721 0.950 . S
C715 C713 1.387 . S
C715 C717 1.390 . S
C715 H719 0.950 1_565 S
H716 C712 0.950 . S
C717 C715 1.390 . S
C717 C718 1.387 . S
C717 H720 0.950 1_565 S
C718 C717 1.387 . S
C718 C721 1.387 . S
H719 C715 0.950 1_545 S
H720 C717 0.950 1_545 S
C721 C712 1.390 . S
C721 H714 0.950 . S
C721 C718 1.387 . S
C722 C723 1.387 . S
C722 H726 0.950 . S
C722 C731 1.390 . S
C723 C722 1.387 . S
C723 C725 1.387 1_556 S
H724 C731 0.950 . S
C725 C723 1.387 1_554 S
C725 C727 1.390 1_554 S
C725 H729 0.950 . S
H726 C722 0.950 . S
C727 C725 1.390 1_556 S
C727 C728 1.387 . S
C727 H730 0.950 . S
C728 C727 1.387 . S
C728 C731 1.387 . S
H729 C725 0.950 . S
H730 C727 0.950 . S
C731 C722 1.390 . S
C731 H724 0.950 . S
C731 C728 1.387 . S
C732 C733 1.387 . S
C732 H736 0.950 . S
C732 C741 1.390 . S
C733 C732 1.387 . S
C733 C735 1.387 . S
H734 C741 0.950 . S
C735 C733 1.387 . S
C735 C737 1.390 . S
C735 H739 0.950 . S
H736 C732 0.950 . S
C737 C735 1.390 . S
C737 C738 1.387 . S
C737 H740 0.950 . S
C738 C737 1.387 . S
C738 C741 1.387 . S
H739 C735 0.950 . S
H740 C737 0.950 . S
C741 C732 1.390 . S
C741 H734 0.950 . S
C741 C738 1.387 . S
C742 C743 1.387 . S
C742 H746 0.950 . S
C742 C751 1.390 1_554 S
C743 C742 1.387 . S
C743 C745 1.387 . S
H744 C751 0.950 . S
C745 C743 1.387 . S
C745 C747 1.390 1_554 S
C745 H749 0.950 . S
H746 C742 0.950 . S
C747 C745 1.390 1_556 S
C747 C748 1.387 . S
C747 H750 0.950 . S
C748 C747 1.387 . S
C748 C751 1.387 . S
H749 C745 0.950 . S
H750 C747 0.950 . S
C751 C742 1.390 1_556 S
C751 H744 0.950 . S
C751 C748 1.387 . S
C752 C753 1.387 . S
C752 H756 0.950 . S
C752 C761 1.390 . S
C753 C752 1.387 . S
C753 C755 1.387 . S
H754 C761 0.950 . S
C755 C753 1.387 . S
C755 C757 1.390 . S
C755 H759 0.950 . S
H756 C752 0.950 . S
C757 C755 1.390 . S
C757 C758 1.387 . S
C757 H760 0.950 . S
C758 C757 1.387 . S
C758 C761 1.387 . S
H759 C755 0.950 . S
H760 C757 0.950 . S
C761 C752 1.390 . S
C761 H754 0.950 . S
C761 C758 1.387 . S
C762 C763 1.387 . S
C762 H766 0.950 . S
C762 C771 1.390 . S
C763 C762 1.387 . S
C763 C765 1.387 . S
H764 C771 0.950 . S
C765 C763 1.387 . S
C765 C767 1.390 . S
C765 H769 0.950 . S
H766 C762 0.950 . S
C767 C765 1.390 . S
C767 C768 1.387 . S
C767 H770 0.950 . S
C768 C767 1.387 . S
C768 C771 1.387 . S
H769 C765 0.950 . S
H770 C767 0.950 . S
C771 C762 1.390 . S
C771 H764 0.950 . S
C771 C768 1.387 . S
C772 C773 1.387 . S
C772 H776 0.950 . S
C772 C781 1.390 . S
C773 C772 1.387 . S
C773 C775 1.387 . S
H774 C781 0.950 . S
C775 C773 1.387 . S
C775 C777 1.390 . S
C775 H779 0.950 . S
H776 C772 0.950 . S
C777 C775 1.390 . S
C777 C778 1.387 . S
C777 H780 0.950 . S
C778 C777 1.387 . S
C778 C781 1.387 . S
H779 C775 0.950 . S
H780 C777 0.950 . S
C781 C772 1.390 . S
C781 H774 0.950 . S
C781 C778 1.387 . S
C782 C783 1.387 . S
C782 H786 0.950 . S
C782 C791 1.390 . S
C783 C782 1.387 . S
C783 C785 1.387 . S
H784 C791 0.950 . S
C785 C783 1.387 . S
C785 C787 1.390 1_655 S
C785 H789 0.950 1_655 S
H786 C782 0.950 . S
C787 C785 1.390 1_455 S
C787 C788 1.387 1_455 S
C787 H790 0.950 . S
C788 C787 1.387 1_655 S
C788 C791 1.387 . S
H789 C785 0.950 1_455 S
H790 C787 0.950 . S
C791 C782 1.390 . S
C791 H784 0.950 . S
C791 C788 1.387 . S
C792 C793 1.400 . S
C792 H796 0.953 . S
C792 C801 1.371 1_545 S
C793 C792 1.400 . S
C793 C795 1.387 . S
H794 C801 0.950 . S
C795 C793 1.387 . S
C795 C797 1.390 . S
C795 H799 0.950 . S
H796 C792 0.953 . S
C797 C795 1.390 . S
C797 C798 1.387 1_545 S
C797 H800 0.950 . S
C798 C797 1.387 1_565 S
C798 C801 1.387 . S
H799 C795 0.950 . S
H800 C797 0.950 . S
C801 C792 1.371 1_565 S
C801 H794 0.950 . S
C801 C798 1.387 . S
C802 C803 1.387 . S
C802 H806 0.950 . S
C802 C811 1.390 . S
C803 C802 1.387 . S
C803 C805 1.387 . S
H804 C811 0.950 . S
C805 C803 1.387 . S
C805 C807 1.390 . S
C805 H809 0.950 . S
H806 C802 0.950 . S
C807 C805 1.390 . S
C807 C808 1.387 . S
C807 H810 0.950 . S
C808 C807 1.387 . S
C808 C811 1.387 . S
H809 C805 0.950 . S
H810 C807 0.950 . S
C811 C802 1.390 . S
C811 H804 0.950 . S
C811 C808 1.387 . S
C812 C813 1.387 . S
C812 H816 0.950 . S
C812 C821 1.390 . S
C813 C812 1.387 . S
C813 C815 1.387 . S
H814 C821 0.950 . S
C815 C813 1.387 . S
C815 C817 1.390 . S
C815 H819 0.950 . S
H816 C812 0.950 . S
C817 C815 1.390 . S
C817 C818 1.387 . S
C817 H820 0.950 . S
C818 C817 1.387 . S
C818 C821 1.387 . S
H819 C815 0.950 . S
H820 C817 0.950 . S
C821 C812 1.390 . S
C821 H814 0.950 . S
C821 C818 1.387 . S
C583 C7 2.414 . S
C588 C201 2.362 . S
C593 C30 1.372 . S
C598 C275 1.328 . S
C608 C325 1.772 . S
C603 N58 1.812 . S
C618 C411 1.355 . S
C613 N81 1.226 . S
C628 C503 1.982 . S
C623 C99 1.981 1_565 S
C638 C547 1.621 . S
C633 N127 1.651 . S
C643 N25 1.379 . S
C648 C349 1.357 . S
C653 C62 2.405 . S
C658 C429 2.348 . S
C668 C485 1.505 . S
C663 C85 1.468 . S
C678 C571 1.335 . S
C673 N94 1.349 . S
C683 C131 2.559 . S
C688 C177 2.332 . S
C698 C251 1.655 . S
C693 N2 1.642 . S
C708 C423 2.301 1_455 S
C703 C16 2.573 . S
C713 C39 2.121 . S
C718 C473 1.967 . S
C728 C577 2.213 . S
C723 N48 2.216 1_556 S
C733 N71 1.358 . S
C738 C189 1.353 . S
C743 C108 2.063 . S
C748 C263 1.999 . S
C753 N117 1.991 . S
C758 C355 1.993 . S
C763 N35 1.942 . S
C768 C559 1.925 . S
C778 C207 2.066 . S
C773 C53 2.079 . S
C783 C76 2.461 . S
C788 C281 2.336 . S
C793 N104 1.785 . S
C798 C337 1.776 . S
C803 C122 1.959 . S
C808 C399 1.715 . S
C813 N12 1.851 . S
C818 C497 1.784 . S
