# Generated by pormake.
# Topology pyr, (3,6)-cn, num edge types: 1
# Building blocks:
#     Node 0, Type 0, BuildingBlock: BETDAH_clean_linker_0, # of connection points: 3
#     Node 1, Type 0, BuildingBlock: BETDAH_clean_linker_0, # of connection points: 3
#     Node 2, Type 0, BuildingBlock: BETDAH_clean_linker_0, # of connection points: 3
#     Node 3, Type 0, BuildingBlock: BETDAH_clean_linker_0, # of connection points: 3
#     Node 4, Type 0, BuildingBlock: BETDAH_clean_linker_0, # of connection points: 3
#     Node 5, Type 0, BuildingBlock: BETDAH_clean_linker_0, # of connection points: 3
#     Node 6, Type 0, BuildingBlock: BETDAH_clean_linker_0, # of connection points: 3
#     Node 7, Type 0, BuildingBlock: BETDAH_clean_linker_0, # of connection points: 3
#     Node 8, Type 1, BuildingBlock: INOVEN_clean_sbu_0, # of connection points: 6
#     Node 9, Type 1, BuildingBlock: INOVEN_clean_sbu_0, # of connection points: 6
#     Node 10, Type 1, BuildingBlock: INOVEN_clean_sbu_0, # of connection points: 6
#     Node 11, Type 1, BuildingBlock: INOVEN_clean_sbu_0, # of connection points: 6
#     Edge 12, Type (0, 1), BuildingBlock: MIFKUJ_clean_linker_0, # of connection points: 2
#     Edge 13, Type (0, 1), BuildingBlock: MIFKUJ_clean_linker_0, # of connection points: 2
#     Edge 14, Type (0, 1), BuildingBlock: MIFKUJ_clean_linker_0, # of connection points: 2
#     Edge 15, Type (0, 1), BuildingBlock: MIFKUJ_clean_linker_0, # of connection points: 2
#     Edge 16, Type (0, 1), BuildingBlock: MIFKUJ_clean_linker_0, # of connection points: 2
#     Edge 17, Type (0, 1), BuildingBlock: MIFKUJ_clean_linker_0, # of connection points: 2
#     Edge 18, Type (0, 1), BuildingBlock: MIFKUJ_clean_linker_0, # of connection points: 2
#     Edge 19, Type (0, 1), BuildingBlock: MIFKUJ_clean_linker_0, # of connection points: 2
#     Edge 20, Type (0, 1), BuildingBlock: MIFKUJ_clean_linker_0, # of connection points: 2
#     Edge 21, Type (0, 1), BuildingBlock: MIFKUJ_clean_linker_0, # of connection points: 2
#     Edge 22, Type (0, 1), BuildingBlock: MIFKUJ_clean_linker_0, # of connection points: 2
#     Edge 23, Type (0, 1), BuildingBlock: MIFKUJ_clean_linker_0, # of connection points: 2
#     Edge 24, Type (0, 1), BuildingBlock: MIFKUJ_clean_linker_0, # of connection points: 2
#     Edge 25, Type (0, 1), BuildingBlock: MIFKUJ_clean_linker_0, # of connection points: 2
#     Edge 26, Type (0, 1), BuildingBlock: MIFKUJ_clean_linker_0, # of connection points: 2
#     Edge 27, Type (0, 1), BuildingBlock: MIFKUJ_clean_linker_0, # of connection points: 2
#     Edge 28, Type (0, 1), BuildingBlock: MIFKUJ_clean_linker_0, # of connection points: 2
#     Edge 29, Type (0, 1), BuildingBlock: MIFKUJ_clean_linker_0, # of connection points: 2
#     Edge 30, Type (0, 1), BuildingBlock: MIFKUJ_clean_linker_0, # of connection points: 2
#     Edge 31, Type (0, 1), BuildingBlock: MIFKUJ_clean_linker_0, # of connection points: 2
#     Edge 32, Type (0, 1), BuildingBlock: MIFKUJ_clean_linker_0, # of connection points: 2
#     Edge 33, Type (0, 1), BuildingBlock: MIFKUJ_clean_linker_0, # of connection points: 2
#     Edge 34, Type (0, 1), BuildingBlock: MIFKUJ_clean_linker_0, # of connection points: 2
#     Edge 35, Type (0, 1), BuildingBlock: MIFKUJ_clean_linker_0, # of connection points: 2
# Relax obj value: 0.109
# Max RMSD: 0.189
# Mean RMSD: 0.141
data_MOF--net-pyr--node1-INOVEN_clean_sbu_0--node2-BETDAH_clean_linker_0--edge1-MIFKUJ_clean_linker_0
_symmetry_space_group_name_H-M    P1
_symmetry_Int_Tables_number       1
_symmetry_cell_setting            triclinic
loop_
_symmetry_equiv_pos_as_xyz
'x, y, z'
_cell_length_a     48.57143
_cell_length_b     52.030578
_cell_length_c     48.65177
_cell_angle_alpha  92.339146
_cell_angle_beta   89.350808
_cell_angle_gamma 104.69566
loop_
_atom_site_label
_atom_site_type_symbol
_atom_site_fract_x
_atom_site_fract_y
_atom_site_fract_z
_atom_type_partial_charge
H0 H 0.32479 0.24962 0.24962 0.0
H1 H 0.37713 0.31179 0.2024 0.0
H2 H 0.30738 0.32669 0.2503 0.0
C3 C 0.33006 0.26996 0.24306 0.0
C4 C 0.31357 0.28719 0.2523 0.0
C5 C 0.35293 0.27862 0.22499 0.0
C6 C 0.35956 0.30492 0.21645 0.0
C7 C 0.34314 0.32227 0.22528 0.0
C8 C 0.32018 0.31338 0.24337 0.0
N9 N 0.34985 0.34835 0.21526 0.0
C10 C 0.32914 0.36177 0.2105 0.0
H11 H 0.34838 0.88983 0.66067 0.0
H12 H 0.35217 0.97083 0.64188 0.0
H13 H 0.35185 0.91301 0.57645 0.0
C14 C 0.34877 0.90481 0.64572 0.0
C15 C 0.3495 0.89807 0.61749 0.0
C16 C 0.35026 0.93111 0.65477 0.0
C17 C 0.3515 0.95053 0.63527 0.0
C18 C 0.35209 0.94391 0.60712 0.0
C19 C 0.3515 0.91789 0.5983 0.0
N20 N 0.35229 0.96318 0.5875 0.0
C21 C 0.32813 0.97222 0.58415 0.0
H22 H 0.69708 0.36003 0.92348 0.0
H23 H 0.69046 0.41793 0.86413 0.0
H24 H 0.62268 0.34727 0.87278 0.0
C25 C 0.68541 0.36647 0.90742 0.0
C26 C 0.65856 0.35014 0.89959 0.0
C27 C 0.69747 0.391 0.89497 0.0
C28 C 0.68177 0.3993 0.87395 0.0
C29 C 0.65475 0.38322 0.86572 0.0
C30 C 0.64364 0.35906 0.8788 0.0
N31 N 0.63698 0.3901 0.84528 0.0
C32 C 0.64215 0.4103 0.82611 0.0
H33 H 0.81975 0.7314 0.42734 0.0
H34 H 0.89185 0.73091 0.37475 0.0
H35 H 0.82368 0.66053 0.38067 0.0
C36 C 0.83048 0.72153 0.41223 0.0
C37 C 0.81787 0.69477 0.40448 0.0
C38 C 0.8571 0.73523 0.40156 0.0
C39 C 0.87103 0.72134 0.38269 0.0
C40 C 0.85891 0.69455 0.37481 0.0
C41 C 0.83229 0.68152 0.38563 0.0
N42 N 0.87632 0.67915 0.36215 0.0
C43 C 0.87963 0.675 0.33388 0.0
H44 H 0.77026 0.80481 0.84509 0.0
H45 H 0.71747 0.78589 0.9167 0.0
H46 H 0.70061 0.84082 0.85932 0.0
C47 C 0.75219 0.807 0.85743 0.0
C48 C 0.73578 0.8239 0.84898 0.0
C49 C 0.74604 0.79339 0.8819 0.0
C50 C 0.7225 0.79618 0.89764 0.0
C51 C 0.70629 0.81347 0.88989 0.0
C52 C 0.71312 0.82754 0.86558 0.0
N53 N 0.68348 0.81638 0.90716 0.0
C54 C 0.67314 0.83896 0.90841 0.0
H55 H 0.81523 0.22182 0.40423 0.0
H56 H 0.8513 0.27732 0.47024 0.0
H57 H 0.79207 0.29617 0.41461 0.0
C58 C 0.81725 0.24074 0.41523 0.0
C59 C 0.80161 0.25822 0.40643 0.0
C60 C 0.83524 0.24731 0.43823 0.0
C61 C 0.83792 0.27197 0.45217 0.0
C62 C 0.82215 0.28935 0.44407 0.0
C63 C 0.80389 0.28245 0.42122 0.0
N64 N 0.82479 0.31347 0.4596 0.0
C65 C 0.80242 0.3254 0.46266 0.0
H66 H 0.33616 0.76033 0.18797 0.0
H67 H 0.34291 0.70077 0.24534 0.0
H68 H 0.40699 0.77465 0.24342 0.0
C69 C 0.34773 0.75347 0.20378 0.0
C70 C 0.37329 0.77075 0.21369 0.0
C71 C 0.33646 0.72786 0.21436 0.0
C72 C 0.35086 0.72013 0.23677 0.0
C73 C 0.37615 0.73736 0.24758 0.0
C74 C 0.38709 0.76214 0.23558 0.0
N75 N 0.39229 0.73113 0.26983 0.0
C76 C 0.38706 0.70945 0.28722 0.0
H77 H 0.19963 0.37038 0.67817 0.0
H78 H 0.18577 0.42827 0.73927 0.0
H79 H 0.12429 0.35282 0.72851 0.0
C80 C 0.18659 0.37607 0.69438 0.0
C81 C 0.16083 0.35823 0.70165 0.0
C82 C 0.19577 0.40131 0.70776 0.0
C83 C 0.17895 0.40882 0.72906 0.0
C84 C 0.15317 0.39103 0.73678 0.0
C85 C 0.14443 0.36608 0.72287 0.0
N86 N 0.13449 0.39719 0.75748 0.0
C87 C 0.13947 0.41809 0.7773 0.0
Gd88 Gd 0.02581 0.05767 0.51604 0.0
Gd89 Gd 0.01227 0.0389 0.57301 0.0
C90 C 0.05025 0.09785 0.56845 0.0
C91 C 0.03446 0.0825 0.47049 0.0
C92 C 0.05748 0.1019 0.45674 0.0
C93 C 0.06899 0.09406 0.43221 0.0
C94 C 0.0677 0.12814 0.46717 0.0
C95 C 0.09945 0.13878 0.42769 0.0
C96 C 0.08835 0.14642 0.45272 0.0
C97 C 0.08991 0.11214 0.41803 0.0
C98 C 0.06284 0.03235 0.53665 0.0
C99 C 0.9874 0.99905 0.52023 0.0
C100 C 1.00348 1.01335 0.61804 0.0
C101 C 0.97819 0.99637 0.63094 0.0
C102 C 0.95109 1.00042 0.62655 0.0
C103 C 0.9811 0.97641 0.64831 0.0
C104 C 0.93027 0.96566 0.65805 0.0
C105 C 0.95729 0.96107 0.6617 0.0
C106 C 0.92736 0.98532 0.64015 0.0
C107 C 0.97537 0.06439 0.55286 0.0
O108 O 0.04225 0.09563 0.54234 0.0
O109 O 0.0455 0.07667 0.58365 0.0
O110 O 0.03866 0.05893 0.47333 0.0
O111 O 0.0222 0.09085 0.49196 0.0
O112 O 0.05496 0.03037 0.51122 0.0
O113 O 0.05232 0.04889 0.54971 0.0
O114 O 0.99563 1.00113 0.54629 0.0
O115 O 0.99234 0.02027 0.50513 0.0
O116 O 1.00352 0.03838 0.61658 0.0
O117 O 0.01263 1.0037 0.59548 0.0
O118 O 0.98206 0.06525 0.57856 0.0
O119 O 0.98622 0.04818 0.53966 0.0
H120 H 0.06166 0.07387 0.42385 0.0
H121 H 0.05939 0.13473 0.4862 0.0
H122 H 0.09492 0.16672 0.46084 0.0
H123 H 0.09851 0.10511 0.3994 0.0
H124 H 0.94834 1.01555 0.61294 0.0
H125 H 1.00184 0.97297 0.65185 0.0
H126 H 0.96013 0.94614 0.67552 0.0
H127 H 0.90674 0.98903 0.63673 0.0
Gd128 Gd 0.54479 0.07404 0.07865 0.0
Gd129 Gd 0.48719 0.05063 0.0422 0.0
C130 C 0.48645 0.08936 0.09638 0.0
C131 C 0.59135 0.10464 0.09827 0.0
C132 C 0.60371 0.11647 0.125 0.0
C133 C 0.62062 0.10396 0.14027 0.0
C134 C 0.60017 0.14129 0.13464 0.0
C135 C 0.63054 0.14105 0.17399 0.0
C136 C 0.61334 0.15339 0.15889 0.0
C137 C 0.63382 0.11609 0.16454 0.0
C138 C 0.51079 0.02819 0.09978 0.0
C139 C 0.54542 0.03439 0.0256 0.0
C140 C 0.44024 0.02136 0.02206 0.0
C141 C 0.42787 1.01503 0.99439 0.0
C142 C 0.43144 0.03461 0.97472 0.0
C143 C 0.41354 0.98875 0.98708 0.0
C144 C 0.40731 1.00142 0.94036 0.0
C145 C 0.40337 0.98197 0.96031 0.0
C146 C 0.42111 0.0279 0.94802 0.0
C147 C 0.52117 0.0961 0.0205 0.0
O148 O 0.51449 0.09502 0.09869 0.0
O149 O 0.47165 0.07119 0.07861 0.0
O150 O 0.5877 0.07892 0.09383 0.0
O151 O 0.57044 0.11346 0.0888 0.0
O152 O 0.5347 0.04168 0.11068 0.0
O153 O 0.50679 0.0406 0.07908 0.0
O154 O 0.51726 0.02804 0.02442 0.0
O155 O 0.5604 0.05368 0.04213 0.0
O156 O 0.44293 0.04573 0.03191 0.0
O157 O 0.46241 1.01218 0.02687 0.0
O158 O 0.49742 0.08234 1.00961 0.0
O159 O 0.52513 0.0841 0.04155 0.0
H160 H 0.62401 0.08497 0.13328 0.0
H161 H 0.58765 0.1517 0.12318 0.0
H162 H 0.61075 0.17281 0.16534 0.0
H163 H 0.64674 0.10596 0.17585 0.0
H164 H 0.44257 0.05503 0.97983 0.0
H165 H 0.41076 0.97334 1.00195 0.0
H166 H 0.39323 0.96134 0.95505 0.0
H167 H 0.42414 0.04345 0.93331 0.0
Gd168 Gd 0.50364 0.53084 0.53976 0.0
Gd169 Gd 0.50685 0.57711 0.57569 0.0
C170 C 0.53238 0.533 0.60114 0.0
C171 C 0.51114 0.49095 0.50961 0.0
C172 C 0.52911 0.47224 0.50946 0.0
C173 C 0.52607 0.45277 0.48821 0.0
C174 C 0.5504 0.47463 0.52931 0.0
C175 C 0.56668 0.43917 0.50562 0.0
C176 C 0.569 0.4581 0.52749 0.0
C177 C 0.54476 0.43636 0.48625 0.0
C178 C 0.45445 0.52958 0.56752 0.0
C179 C 0.47999 0.57606 0.51392 0.0
C180 C 0.49571 0.61654 0.60351 0.0
C181 C 0.47715 0.63409 0.59815 0.0
C182 C 0.48644 0.66129 0.60509 0.0
C183 C 0.45072 0.62415 0.58503 0.0
C184 C 0.44293 0.66845 0.58629 0.0
C185 C 0.43366 0.64119 0.57931 0.0
C186 C 0.4695 0.67836 0.59915 0.0
C187 C 0.55628 0.57901 0.54827 0.0
O188 O 0.53113 0.52323 0.57537 0.0
O189 O 0.5214 0.55324 0.60746 0.0
O190 O 0.49204 0.48859 0.52907 0.0
O191 O 0.52446 0.51566 0.5056 0.0
O192 O 0.45563 0.52316 0.5416 0.0
O193 O 0.47925 0.53649 0.57737 0.0
O194 O 0.4803 0.58525 0.53976 0.0
O195 O 0.49094 0.55581 0.50777 0.0
O196 O 0.51785 0.61913 0.5874 0.0
O197 O 0.48291 0.59171 0.60776 0.0
O198 O 0.55479 0.58634 0.57394 0.0
O199 O 0.53155 0.57141 0.5382 0.0
H200 H 0.50971 0.45074 0.47272 0.0
H201 H 0.55319 0.48976 0.54567 0.0
H202 H 0.58594 0.46092 0.54248 0.0
H203 H 0.54242 0.42178 0.46932 0.0
H204 H 0.50684 0.66931 0.61502 0.0
H205 H 0.44329 0.60325 0.57911 0.0
H206 H 0.41335 0.63314 0.56922 0.0
H207 H 0.47695 0.69927 0.60504 0.0
Gd208 Gd 0.01907 0.53085 0.06506 0.0
Gd209 Gd 0.01614 0.58582 0.04335 0.0
C210 C 0.07219 0.58383 0.07803 0.0
C211 C 0.03262 0.48811 0.07861 0.0
C212 C 0.05772 0.48071 0.08894 0.0
C213 C 0.0539 0.45723 0.10318 0.0
C214 C 0.0853 0.49688 0.08522 0.0
C215 C 0.10512 0.46562 0.10948 0.0
C216 C 0.10884 0.48939 0.0954 0.0
C217 C 0.07733 0.44976 0.1134 0.0
C218 C 0.98852 0.55836 0.09582 0.0
C219 C 0.96613 0.53187 0.02612 0.0
C220 C 0.99962 0.62903 0.041 0.0
C221 C 0.97999 0.6397 0.02444 0.0
C222 C 0.9872 0.64904 0.99792 0.0
C223 C 0.95354 0.64089 0.03566 0.0
C224 C 0.94149 0.65989 0.99404 0.0
C225 C 0.93447 0.65071 0.02059 0.0
C226 C 0.96812 0.65911 0.98288 0.0
C227 C 0.03884 0.55886 1.00337 0.0
O228 O 0.0621 0.55758 0.07862 0.0
O229 O 0.05787 0.59914 0.06644 0.0
O230 O 0.02094 0.5023 0.0957 0.0
O231 O 0.03405 0.49618 0.05337 0.0
O232 O 0.98096 0.53273 0.09143 0.0
O233 O 0.012 0.56793 0.08401 0.0
O234 O 0.97371 0.55825 0.02926 0.0
O235 O 0.98196 0.51694 0.03584 0.0
O236 O 0.02328 0.62611 0.02944 0.0
O237 O 0.98747 0.60934 0.05658 0.0
O238 O 0.03466 0.58231 1.00047 0.0
O239 O 0.03053 0.55155 0.02714 0.0
H240 H 0.03272 0.44467 0.10646 0.0
H241 H 0.08864 0.51518 0.07436 0.0
H242 H 0.12994 0.50196 0.09184 0.0
H243 H 0.07364 0.43163 0.1246 0.0
H244 H 1.00749 0.64856 0.98876 0.0
H245 H 0.94756 0.63423 0.0562 0.0
H246 H 0.91435 0.65155 0.02996 0.0
H247 H 0.97406 0.66602 0.96242 0.0
H248 H 0.30231 0.30907 0.30184 0.0
H249 H 0.26393 0.29017 0.33422 0.0
H250 H 0.23173 0.22442 0.27661 0.0
H251 H 0.27008 0.24302 0.24447 0.0
H252 H 0.18888 0.24687 0.30268 0.0
H253 H 0.27237 0.21541 0.32508 0.0
H254 H 0.32269 0.22257 0.33835 0.0
H255 H 0.30804 0.266 0.41169 0.0
H256 H 0.25769 0.25941 0.39861 0.0
H257 H 0.10475 0.14037 0.37148 0.0
H258 H 0.13978 0.17088 0.34471 0.0
H259 H 0.17489 0.21435 0.41906 0.0
H260 H 0.14157 0.18214 0.4464 0.0
H261 H 0.21599 0.21094 0.38837 0.0
H262 H 0.13195 0.23812 0.37106 0.0
H263 H 0.08171 0.23336 0.35889 0.0
H264 H 0.09639 0.20264 0.27831 0.0
H265 H 0.14662 0.20685 0.29011 0.0
C266 C 0.28677 0.29078 0.29604 0.0
C267 C 0.28915 0.27736 0.27082 0.0
C268 C 0.26499 0.28001 0.3145 0.0
C269 C 0.24514 0.25588 0.30778 0.0
C270 C 0.24684 0.24308 0.28212 0.0
C271 C 0.26879 0.25361 0.26389 0.0
C272 C 0.22351 0.24292 0.32791 0.0
C273 C 0.19466 0.23892 0.32143 0.0
C274 C 0.23122 0.23349 0.35278 0.0
C275 C 0.26139 0.23719 0.36072 0.0
C276 C 0.27995 0.22667 0.34392 0.0
C277 C 0.30846 0.2306 0.35142 0.0
C278 C 0.31858 0.2448 0.37581 0.0
C279 C 0.30019 0.25505 0.39278 0.0
C280 C 0.27167 0.25122 0.38534 0.0
C281 C 0.12016 0.15607 0.38237 0.0
C282 C 0.12027 0.15848 0.4113 0.0
C283 C 0.13989 0.17398 0.36686 0.0
C284 C 0.15964 0.19543 0.37972 0.0
C285 C 0.15975 0.19811 0.40858 0.0
C286 C 0.14039 0.17977 0.4242 0.0
C287 C 0.18096 0.21414 0.36297 0.0
C288 C 0.20988 0.21926 0.37001 0.0
C289 C 0.17323 0.22506 0.33884 0.0
C290 C 0.14305 0.22267 0.33155 0.0
C291 C 0.12443 0.2302 0.3508 0.0
C292 C 0.09596 0.22762 0.34396 0.0
C293 C 0.08586 0.21767 0.31786 0.0
C294 C 0.10424 0.21034 0.29852 0.0
C295 C 0.13273 0.21287 0.30526 0.0
H296 H 0.0638 0.21568 0.31261 0.0
H297 H 0.34066 0.24782 0.38159 0.0
H298 H 0.31748 0.90598 0.69671 0.0
H299 H 0.3236 0.91687 0.74623 0.0
H300 H 0.39432 0.98339 0.7292 0.0
H301 H 0.38832 0.97267 0.67985 0.0
H302 H 0.40548 0.94858 0.76876 0.0
H303 H 0.33439 0.99541 0.74753 0.0
H304 H 0.28807 0.99834 0.72953 0.0
H305 H 0.24468 0.94212 0.78775 0.0
H306 H 0.29077 0.9385 0.80579 0.0
H307 H 0.43572 0.02017 0.89354 0.0
H308 H 0.42211 1.00698 0.84604 0.0
H309 H 0.34594 0.95151 0.87367 0.0
H310 H 0.35876 0.96559 0.92149 0.0
H311 H 0.33471 0.9763 0.82973 0.0
H312 H 0.40306 0.92961 0.85255 0.0
H313 H 0.44807 0.9234 0.87055 0.0
H314 H 0.495 0.97463 0.80984 0.0
H315 H 0.45027 0.98149 0.79171 0.0
C316 C 0.3342 0.923 0.7036 0.0
C317 C 0.35239 0.93854 0.68451 0.0
C318 C 0.33759 0.92924 0.7318 0.0
C319 C 0.35938 0.95093 0.74126 0.0
C320 C 0.37737 0.96658 0.72223 0.0
C321 C 0.37379 0.96056 0.69409 0.0
C322 C 0.36429 0.95688 0.77103 0.0
C323 C 0.39017 0.95492 0.78207 0.0
C324 C 0.34374 0.96406 0.78846 0.0
C325 C 0.31604 0.96646 0.77781 0.0
C326 C 0.31498 0.98349 0.75634 0.0
C327 C 0.28876 0.98531 0.74615 0.0
C328 C 0.26345 0.97037 0.75744 0.0
C329 C 0.2643 0.95364 0.77899 0.0
C330 C 0.29047 0.95171 0.78922 0.0
C331 C 0.4158 1.00551 0.88961 0.0
C332 C 0.39836 0.99392 0.91139 0.0
C333 C 0.40822 0.99774 0.8624 0.0
C334 C 0.38327 0.97791 0.85632 0.0
C335 C 0.36539 0.96673 0.87791 0.0
C336 C 0.37288 0.97463 0.90522 0.0
C337 C 0.37631 0.96869 0.82739 0.0
C338 C 0.35001 0.96984 0.8165 0.0
C339 C 0.39629 0.96031 0.81011 0.0
C340 C 0.4233 0.95624 0.82092 0.0
C341 C 0.42299 0.93973 0.84317 0.0
C342 C 0.44845 0.93606 0.85338 0.0
C343 C 0.47438 0.94866 0.84138 0.0
C344 C 0.47489 0.96491 0.81912 0.0
C345 C 0.44948 0.96867 0.80885 0.0
H346 H 0.49408 0.94578 0.84931 0.0
H347 H 0.24317 0.97181 0.74953 0.0
H348 H 0.64879 0.40056 0.77143 0.0
H349 H 0.63285 0.42226 0.73298 0.0
H350 H 0.60723 0.47727 0.7903 0.0
H351 H 0.62273 0.45511 0.82876 0.0
H352 H 0.56671 0.46088 0.75467 0.0
H353 H 0.66736 0.49503 0.74433 0.0
H354 H 0.71732 0.493 0.73909 0.0
H355 H 0.69635 0.44607 0.664 0.0
H356 H 0.64616 0.44752 0.66899 0.0
H357 H 0.53756 0.54779 0.65619 0.0
H358 H 0.55848 0.52843 0.69298 0.0
H359 H 0.57915 0.47157 0.63467 0.0
H360 H 0.5584 0.49116 0.5975 0.0
H361 H 0.62247 0.4887 0.67016 0.0
H362 H 0.5219 0.45461 0.68062 0.0
H363 H 0.47205 0.45711 0.68562 0.0
H364 H 0.49314 0.50419 0.76059 0.0
H365 H 0.54323 0.50231 0.75583 0.0
C366 C 0.64048 0.41776 0.77578 0.0
C367 C 0.63772 0.42648 0.80319 0.0
C368 C 0.63124 0.43021 0.75368 0.0
C369 C 0.61891 0.45185 0.75827 0.0
C370 C 0.61661 0.46078 0.7858 0.0
C371 C 0.62583 0.44827 0.80789 0.0
C372 C 0.60719 0.46423 0.73472 0.0
C373 C 0.57921 0.46732 0.73644 0.0
C374 C 0.62279 0.47211 0.71023 0.0
C375 C 0.65293 0.47116 0.70719 0.0
C376 C 0.67335 0.48409 0.72682 0.0
C377 C 0.70172 0.48308 0.72387 0.0
C378 C 0.70999 0.46935 0.70127 0.0
C379 C 0.68991 0.45666 0.68153 0.0
C380 C 0.6615 0.45759 0.68439 0.0
C381 C 0.54654 0.53117 0.651 0.0
C382 C 0.546 0.52112 0.62356 0.0
C383 C 0.55847 0.51994 0.67228 0.0
C384 C 0.57022 0.49808 0.66707 0.0
C385 C 0.57026 0.48831 0.63958 0.0
C386 C 0.55825 0.49955 0.61821 0.0
C387 C 0.58214 0.48548 0.69027 0.0
C388 C 0.61006 0.48229 0.68844 0.0
C389 C 0.56651 0.47751 0.7147 0.0
C390 C 0.53638 0.47853 0.71773 0.0
C391 C 0.51595 0.46566 0.69808 0.0
C392 C 0.48765 0.46694 0.70088 0.0
C393 C 0.47945 0.48085 0.72337 0.0
C394 C 0.49953 0.49345 0.74316 0.0
C395 C 0.52787 0.49227 0.74043 0.0
H396 H 0.45752 0.48183 0.7255 0.0
H397 H 0.73197 0.4686 0.69902 0.0
H398 H 0.92303 0.70038 0.30145 0.0
H399 H 0.93974 0.68284 0.2585 0.0
H400 H 0.8702 0.61245 0.2621 0.0
H401 H 0.85379 0.62996 0.30518 0.0
H402 H 0.91845 0.59888 0.25265 0.0
H403 H 0.87349 0.66104 0.21335 0.0
H404 H 0.86409 0.70486 0.20727 0.0
H405 H 0.95148 0.73709 0.18499 0.0
H406 H 0.9615 0.69353 0.19129 0.0
H407 H 0.93883 0.53959 0.1236 0.0
H408 H 0.91867 0.56154 0.1613 0.0
H409 H 0.98834 0.63146 0.15497 0.0
H410 H 0.00826 0.60966 0.11668 0.0
H411 H 0.94055 0.64614 0.16547 0.0
H412 H 0.98622 0.58537 0.20553 0.0
H413 H 0.99685 0.54212 0.21202 0.0
H414 H 0.90966 0.50813 0.23384 0.0
H415 H 0.89843 0.55112 0.22712 0.0
C416 C 0.91098 0.68146 0.29265 0.0
C417 C 0.88688 0.66669 0.30634 0.0
C418 C 0.92055 0.67139 0.26809 0.0
C419 C 0.90619 0.64629 0.25671 0.0
C420 C 0.8817 0.63183 0.27026 0.0
C421 C 0.87216 0.64193 0.29478 0.0
C422 C 0.91755 0.63435 0.23177 0.0
C423 C 0.9228 0.60911 0.23348 0.0
C424 C 0.92428 0.64788 0.20686 0.0
C425 C 0.91831 0.67408 0.20306 0.0
C426 C 0.89076 0.67753 0.20737 0.0
C427 C 0.88531 0.70231 0.20384 0.0
C428 C 0.90719 0.72376 0.19582 0.0
C429 C 0.93456 0.72046 0.19124 0.0
C430 C 0.94013 0.69572 0.19476 0.0
C431 C 0.94977 0.55972 0.13008 0.0
C432 C 0.97529 0.57277 0.11723 0.0
C433 C 0.93829 0.57225 0.15181 0.0
C434 C 0.9522 0.59807 0.16158 0.0
C435 C 0.97717 0.61153 0.14805 0.0
C436 C 0.9886 0.59902 0.12615 0.0
C437 C 0.9411 0.61056 0.18632 0.0
C438 C 0.93606 0.63591 0.18463 0.0
C439 C 0.93473 0.59724 0.21138 0.0
C440 C 0.94143 0.5714 0.21557 0.0
C441 C 0.96927 0.56863 0.21153 0.0
C442 C 0.97541 0.54417 0.21527 0.0
C443 C 0.95393 0.52238 0.22327 0.0
C444 C 0.92627 0.52502 0.22761 0.0
C445 C 0.92001 0.54943 0.22386 0.0
H446 H 0.95872 0.50346 0.22616 0.0
H447 H 0.90293 0.74293 0.19309 0.0
H448 H 0.37787 0.2466 0.25377 0.0
H449 H 0.40149 0.21312 0.23496 0.0
H450 H 0.38574 0.23349 0.15263 0.0
H451 H 0.36278 0.26741 0.17127 0.0
H452 H 0.36815 0.17099 0.17912 0.0
H453 H 0.44153 0.25266 0.1535 0.0
H454 H 0.47393 0.29609 0.16657 0.0
H455 H 0.51135 0.25958 0.22886 0.0
H456 H 0.47882 0.21599 0.21638 0.0
H457 H 0.43587 0.10035 0.08524 0.0
H458 H 0.41342 0.13086 0.11081 0.0
H459 H 0.47956 0.14447 0.17225 0.0
H460 H 0.50291 0.11496 0.14589 0.0
H461 H 0.47198 0.18904 0.16143 0.0
H462 H 0.40789 0.10743 0.18372 0.0
H463 H 0.37585 0.06276 0.17576 0.0
H464 H 0.32055 0.0957 0.12764 0.0
H465 H 0.35248 0.14053 0.13497 0.0
C466 C 0.37973 0.24405 0.23168 0.0
C467 C 0.36872 0.25961 0.21392 0.0
C468 C 0.39315 0.225 0.22101 0.0
C469 C 0.39533 0.22102 0.19249 0.0
C470 C 0.38435 0.23649 0.17472 0.0
C471 C 0.37142 0.25588 0.18535 0.0
C472 C 0.40838 0.20019 0.18112 0.0
C473 C 0.39079 0.17484 0.17495 0.0
C474 C 0.43799 0.2051 0.17692 0.0
C475 C 0.45753 0.23122 0.18429 0.0
C476 C 0.45644 0.25398 0.17019 0.0
C477 C 0.47488 0.27859 0.17744 0.0
C478 C 0.49461 0.28062 0.19861 0.0
C479 C 0.49601 0.258 0.21252 0.0
C480 C 0.47759 0.23335 0.20537 0.0
C481 C 0.44539 0.10953 0.10442 0.0
C482 C 0.47111 0.10524 0.11359 0.0
C483 C 0.43246 0.12692 0.11912 0.0
C484 C 0.44453 0.13978 0.14374 0.0
C485 C 0.46983 0.13488 0.15332 0.0
C486 C 0.4831 0.11793 0.1383 0.0
C487 C 0.43169 0.15953 0.15849 0.0
C488 C 0.44931 0.1848 0.16557 0.0
C489 C 0.40211 0.15426 0.16409 0.0
C490 C 0.38272 0.12733 0.15973 0.0
C491 C 0.389 0.10513 0.17128 0.0
C492 C 0.37084 0.07978 0.16691 0.0
C493 C 0.34621 0.07639 0.15116 0.0
C494 C 0.33965 0.09835 0.13982 0.0
C495 C 0.35776 0.12375 0.1441 0.0
H496 H 0.33217 0.05674 0.14779 0.0
H497 H 0.50888 0.29969 0.20418 0.0
H498 H 0.30928 1.01048 0.61175 0.0
H499 H 0.26242 0.01977 0.60668 0.0
H500 H 0.23994 0.95643 0.54447 0.0
H501 H 0.28683 0.94752 0.54931 0.0
H502 H 0.22649 1.00055 0.52889 0.0
H503 H 0.21396 0.94839 0.60995 0.0
H504 H 0.2261 0.9379 0.65656 0.0
H505 H 0.21313 1.01209 0.68852 0.0
H506 H 0.2013 0.02319 0.64201 0.0
H507 H 0.08197 0.99151 0.51466 0.0
H508 H 0.12549 0.97908 0.52663 0.0
H509 H 0.1424 0.04043 0.59119 0.0
H510 H 0.09808 0.05207 0.58004 0.0
H511 H 0.15912 0.99846 0.60674 0.0
H512 H 0.1727 0.05133 0.52657 0.0
H513 H 0.16157 0.06306 0.48009 0.0
H514 H 0.17398 0.98912 0.44674 0.0
H515 H 0.18482 0.9768 0.49309 0.0
C516 C 0.29425 0.99876 0.59694 0.0
C517 C 0.30131 0.97851 0.58072 0.0
C518 C 0.26753 1.00389 0.5942 0.0
C519 C 0.24763 0.98859 0.57538 0.0
C520 C 0.25498 0.96843 0.55909 0.0
C521 C 0.28165 0.96338 0.56181 0.0
C522 C 0.21933 0.99387 0.57207 0.0
C523 C 0.21161 0.99975 0.54584 0.0
C524 C 0.20032 0.99357 0.59439 0.0
C525 C 0.20701 0.98674 0.62244 0.0
C526 C 0.21388 0.96255 0.62688 0.0
C527 C 0.22068 0.95648 0.65329 0.0
C528 C 0.22047 0.97435 0.67548 0.0
C529 C 0.21333 0.99828 0.67131 0.0
C530 C 0.20655 1.00446 0.64494 0.0
C531 C 0.09479 1.00203 0.53167 0.0
C532 C 0.08703 0.02296 0.54619 0.0
C533 C 0.11966 0.99501 0.53843 0.0
C534 C 0.1376 1.00934 0.55929 0.0
C535 C 0.12899 0.02925 0.57489 0.0
C536 C 0.10375 0.03593 0.56847 0.0
C537 C 0.16614 1.00477 0.56344 0.0
C538 C 0.17398 0.99919 0.5898 0.0
C539 C 0.18546 1.00551 0.54128 0.0
C540 C 0.17934 1.01306 0.51332 0.0
C541 C 0.17291 0.03752 0.50934 0.0
C542 C 0.16666 0.04427 0.48302 0.0
C543 C 0.16701 0.02682 0.46049 0.0
C544 C 0.17369 1.0026 0.46422 0.0
C545 C 0.17992 0.99574 0.4905 0.0
H546 H 0.16215 0.03207 0.44013 0.0
H547 H 0.22579 0.96964 0.6959 0.0
H548 H 0.71617 0.44572 0.90422 0.0
H549 H 0.76141 0.47122 0.92464 0.0
H550 H 0.78938 0.39922 0.92876 0.0
H551 H 0.74465 0.37385 0.90824 0.0
H552 H 0.79994 0.42599 0.97628 0.0
H553 H 0.81708 0.44886 0.88167 0.0
H554 H 0.80716 0.46627 0.83747 0.0
H555 H 0.81115 0.54241 0.87706 0.0
H556 H 0.82072 0.52533 0.9216 0.0
H557 H 0.94516 0.47878 1.01145 0.0
H558 H 0.90068 0.45704 0.98793 0.0
H559 H 0.87983 0.53252 0.98379 0.0
H560 H 0.92474 0.55455 1.00681 0.0
H561 H 0.86453 0.50574 0.93722 0.0
H562 H 0.84773 0.48386 0.03135 0.0
H563 H 0.85713 0.46707 0.07606 0.0
H564 H 0.85132 0.38986 0.03823 0.0
H565 H 0.84227 0.40629 0.99321 0.0
C566 C 0.73212 0.43535 0.90902 0.0
C567 C 0.72631 0.40751 0.90469 0.0
C568 C 0.7581 0.45001 0.92084 0.0
C569 C 0.77917 0.43732 0.92849 0.0
C570 C 0.77364 0.40968 0.92346 0.0
C571 C 0.74782 0.39509 0.91168 0.0
C572 C 0.80654 0.45234 0.94249 0.0
C573 C 0.81417 0.44323 0.96745 0.0
C574 C 0.82504 0.47543 0.93175 0.0
C575 C 0.8193 0.48573 0.90502 0.0
C576 C 0.8156 0.46925 0.881 0.0
C577 C 0.81009 0.47907 0.85587 0.0
C578 C 0.80844 0.50541 0.85448 0.0
C579 C 0.81238 0.522 0.87819 0.0
C580 C 0.81786 0.51227 0.90337 0.0
C581 C 0.93119 0.49087 1.00562 0.0
C582 C 0.93877 0.51855 1.01138 0.0
C583 C 0.90549 0.4783 0.99218 0.0
C584 C 0.88622 0.49286 0.98431 0.0
C585 C 0.894 0.5206 0.98958 0.0
C586 C 0.91981 0.53323 1.00291 0.0
C587 C 0.85809 0.47916 0.97083 0.0
C588 C 0.85028 0.48853 0.94605 0.0
C589 C 0.83927 0.45636 0.98181 0.0
C590 C 0.84459 0.44637 1.00886 0.0
C591 C 0.84865 0.46335 0.03253 0.0
C592 C 0.85389 0.45389 0.05793 0.0
C593 C 0.85489 0.42743 0.05997 0.0
C594 C 0.85058 0.41036 0.03662 0.0
C595 C 0.84537 0.41972 1.01115 0.0
H596 H 0.85895 0.42015 0.07965 0.0
H597 H 0.80418 0.51298 0.83501 0.0
H598 H 0.77002 0.66276 0.37966 0.0
H599 H 0.72507 0.63994 0.40159 0.0
H600 H 0.75947 0.67076 0.48102 0.0
H601 H 0.80418 0.69373 0.45924 0.0
H602 H 0.73063 0.61584 0.48023 0.0
H603 H 0.71511 0.69916 0.45192 0.0
H604 H 0.71324 0.73285 0.41827 0.0
H605 H 0.65069 0.67513 0.3713 0.0
H606 H 0.6525 0.64097 0.40449 0.0
H607 H 0.61028 0.60033 0.56704 0.0
H608 H 0.65368 0.61626 0.54016 0.0
H609 H 0.60616 0.59169 0.46512 0.0
H610 H 0.56244 0.57595 0.49205 0.0
H611 H 0.64066 0.63997 0.46005 0.0
H612 H 0.65232 0.55745 0.48819 0.0
H613 H 0.65336 0.52215 0.5201 0.0
H614 H 0.72248 0.57485 0.56437 0.0
H615 H 0.72143 0.61071 0.53306 0.0
C616 C 0.768 0.66458 0.4018 0.0
C617 C 0.79064 0.68025 0.41765 0.0
C618 C 0.74227 0.6516 0.41431 0.0
C619 C 0.73876 0.65369 0.443 0.0
C620 C 0.76158 0.66883 0.45889 0.0
C621 C 0.78709 0.68212 0.44637 0.0
C622 C 0.71125 0.64055 0.45654 0.0
C623 C 0.71101 0.62128 0.47602 0.0
C624 C 0.68536 0.6469 0.45039 0.0
C625 C 0.68419 0.66744 0.43051 0.0
C626 C 0.70115 0.69359 0.43428 0.0
C627 C 0.70006 0.71279 0.41532 0.0
C628 C 0.68193 0.70612 0.39261 0.0
C629 C 0.66477 0.68025 0.38887 0.0
C630 C 0.66581 0.66097 0.40776 0.0
C631 C 0.60907 0.59811 0.54479 0.0
C632 C 0.58287 0.58685 0.5317 0.0
C633 C 0.63397 0.60715 0.5294 0.0
C634 C 0.63343 0.60504 0.50048 0.0
C635 C 0.60726 0.59359 0.48734 0.0
C636 C 0.58228 0.58447 0.50278 0.0
C637 C 0.66005 0.61549 0.48419 0.0
C638 C 0.66017 0.63428 0.46417 0.0
C639 C 0.68576 0.60839 0.48955 0.0
C640 C 0.68661 0.58687 0.50841 0.0
C641 C 0.66758 0.56161 0.50487 0.0
C642 C 0.66818 0.54149 0.52285 0.0
C643 C 0.68795 0.54627 0.54429 0.0
C644 C 0.70717 0.57119 0.54777 0.0
C645 C 0.70657 0.59143 0.52992 0.0
H646 H 0.68841 0.53065 0.55817 0.0
H647 H 0.68111 0.72101 0.37796 0.0
H648 H 0.27728 0.33701 0.19148 0.0
H649 H 0.24099 0.35792 0.17488 0.0
H650 H 0.29577 0.43544 0.19543 0.0
H651 H 0.33208 0.41437 0.2122 0.0
H652 H 0.23949 0.43152 0.2098 0.0
H653 H 0.29175 0.41366 0.13046 0.0
H654 H 0.31358 0.38633 0.09872 0.0
H655 H 0.23139 0.33376 0.08191 0.0
H656 H 0.20911 0.36058 0.11387 0.0
H657 H 0.1535 0.49653 0.13408 0.0
H658 H 0.19433 0.48222 0.15088 0.0
H659 H 0.15285 0.40102 0.12667 0.0
H660 H 0.11302 0.41541 0.10825 0.0
H661 H 0.20639 0.41097 0.11337 0.0
H662 H 0.15463 0.4266 0.19545 0.0
H663 H 0.1326 0.45367 0.22733 0.0
H664 H 0.21343 0.51021 0.2389 0.0
H665 H 0.23588 0.48359 0.20684 0.0
C666 C 0.28134 0.35849 0.19265 0.0
C667 C 0.30719 0.37423 0.20297 0.0
C668 C 0.26075 0.37041 0.1831 0.0
C669 C 0.26587 0.39825 0.1836 0.0
C670 C 0.29145 0.41395 0.19482 0.0
C671 C 0.31211 0.40198 0.20433 0.0
C672 C 0.24476 0.41079 0.17167 0.0
C673 C 0.23252 0.42737 0.1886 0.0
C674 C 0.23549 0.40512 0.1441 0.0
C675 C 0.2488 0.38902 0.12474 0.0
C676 C 0.27836 0.39616 0.12015 0.0
C677 C 0.29081 0.38078 0.1021 0.0
C678 C 0.27389 0.35829 0.08835 0.0
C679 C 0.24447 0.35117 0.09259 0.0
C680 C 0.23192 0.36648 0.11065 0.0
C681 C 0.15334 0.47571 0.13192 0.0
C682 C 0.12999 0.45714 0.11983 0.0
C683 C 0.1765 0.46749 0.14189 0.0
C684 C 0.1765 0.44046 0.14044 0.0
C685 C 0.15334 0.42196 0.12812 0.0
C686 C 0.1304 0.4302 0.11786 0.0
C687 C 0.20045 0.43116 0.15168 0.0
C688 C 0.21339 0.41526 0.13454 0.0
C689 C 0.21027 0.43742 0.17906 0.0
C690 C 0.19687 0.45325 0.19857 0.0
C691 C 0.16766 0.44488 0.20468 0.0
C692 C 0.15511 0.46013 0.2228 0.0
C693 C 0.17159 0.48368 0.23508 0.0
C694 C 0.20068 0.49199 0.22934 0.0
C695 C 0.21334 0.47681 0.21123 0.0
H696 H 0.16182 0.49547 0.24908 0.0
H697 H 0.28357 0.3464 0.07438 0.0
H698 H 0.62562 0.30312 0.87612 0.0
H699 H 0.60439 0.26124 0.89791 0.0
H700 H 0.64189 0.29455 0.97538 0.0
H701 H 0.66281 0.33683 0.95389 0.0
H702 H 0.64665 0.24376 0.96768 0.0
H703 H 0.57059 0.28674 0.96269 0.0
H704 H 0.5386 0.30933 0.94004 0.0
H705 H 0.50805 0.24069 0.88627 0.0
H706 H 0.54015 0.21781 0.90837 0.0
H707 H 0.56231 0.13676 0.04648 0.0
H708 H 0.58709 0.17974 0.02803 0.0
H709 H 0.54421 0.15622 0.95041 0.0
H710 H 0.51897 0.11391 0.96916 0.0
H711 H 0.54276 0.20373 0.9605 0.0
H712 H 0.61965 0.16104 0.96377 0.0
H713 H 0.65184 0.13819 0.98573 0.0
H714 H 0.68104 0.2054 0.04166 0.0
H715 H 0.64875 0.22852 0.02024 0.0
C716 C 0.62919 0.30185 0.89788 0.0
C717 C 0.64598 0.32389 0.91306 0.0
C718 C 0.61703 0.27763 0.91038 0.0
C719 C 0.6211 0.27448 0.93854 0.0
C720 C 0.63831 0.29619 0.95367 0.0
C721 C 0.65042 0.3205 0.9412 0.0
C722 C 0.60711 0.24876 0.95213 0.0
C723 C 0.62387 0.23521 0.96638 0.0
C724 C 0.57741 0.23702 0.95024 0.0
C725 C 0.55797 0.25066 0.93702 0.0
C726 C 0.5572 0.27654 0.94591 0.0
C727 C 0.53902 0.28938 0.93319 0.0
C728 C 0.52135 0.27648 0.91168 0.0
C729 C 0.52177 0.25067 0.90291 0.0
C730 C 0.53993 0.23775 0.91554 0.0
C731 C 0.55856 0.14058 0.0254 0.0
C732 C 0.53879 0.12159 1.00934 0.0
C733 C 0.57279 0.16531 1.01471 0.0
C734 C 0.568 0.1716 0.98747 0.0
C735 C 0.54848 0.15235 0.97143 0.0
C736 C 0.53409 0.12791 0.9822 0.0
C737 C 0.58231 0.19826 0.97569 0.0
C738 C 0.56557 0.21214 0.96182 0.0
C739 C 0.61203 0.21016 0.97781 0.0
C740 C 0.63158 0.19638 0.99059 0.0
C741 C 0.63281 0.17087 0.98087 0.0
C742 C 0.65109 0.15788 0.9932 0.0
C743 C 0.66842 0.1703 1.01513 0.0
C744 C 0.66757 0.19578 0.02471 0.0
C745 C 0.6493 0.20884 1.01246 0.0
H746 H 0.68255 0.16021 0.02466 0.0
H747 H 0.5073 0.28645 0.90186 0.0
H748 H 0.83145 0.77548 0.41661 0.0
H749 H 0.85336 0.81958 0.43625 0.0
H750 H 0.93626 0.80421 0.42753 0.0
H751 H 0.91431 0.75919 0.41006 0.0
H752 H 0.93647 0.82869 0.47293 0.0
H753 H 0.90879 0.84668 0.38364 0.0
H754 H 0.87667 0.8449 0.34432 0.0
H755 H 0.82363 0.88246 0.39449 0.0
H756 H 0.85524 0.88416 0.43423 0.0
H757 H 0.97919 0.98486 0.46551 0.0
H758 H 0.95801 0.94088 0.44462 0.0
H759 H 0.94034 0.90915 0.52534 0.0
H760 H 0.9627 0.95291 0.5463 0.0
H761 H 0.9097 0.90868 0.44195 0.0
H762 H 0.94027 0.84463 0.5259 0.0
H763 H 0.97838 0.84773 0.55994 0.0
H764 H 0.0362 0.90428 0.51101 0.0
H765 H 0.99857 0.90124 0.47652 0.0
C766 C 0.85434 0.7812 0.4191 0.0
C767 C 0.8709 0.76331 0.41161 0.0
C768 C 0.86697 0.80681 0.43002 0.0
C769 C 0.89668 0.81574 0.43312 0.0
C770 C 0.91332 0.79807 0.42541 0.0
C771 C 0.90066 0.77227 0.41494 0.0
C772 C 0.91031 0.84314 0.44492 0.0
C773 C 0.93055 0.84612 0.46606 0.0
C774 C 0.90331 0.86628 0.43581 0.0
C775 C 0.88424 0.86531 0.41197 0.0
C776 C 0.89017 0.85439 0.38634 0.0
C777 C 0.87207 0.85342 0.36397 0.0
C778 C 0.84809 0.8635 0.36692 0.0
C779 C 0.84219 0.87463 0.39224 0.0
C780 C 0.86021 0.87562 0.41469 0.0
C781 C 0.97076 0.96854 0.47886 0.0
C782 C 0.97284 0.97249 0.50764 0.0
C783 C 0.95855 0.94329 0.46684 0.0
C784 C 0.94783 0.92129 0.48323 0.0
C785 C 0.94905 0.92544 0.51204 0.0
C786 C 0.96171 0.95061 0.52408 0.0
C787 C 0.93559 0.89415 0.47014 0.0
C788 C 0.91559 0.89123 0.44881 0.0
C789 C 0.94362 0.87121 0.47835 0.0
C790 C 0.96649 0.8729 0.4988 0.0
C791 C 0.96115 0.85764 0.52237 0.0
C792 C 0.98266 0.8594 0.54174 0.0
C793 C 0.00966 0.87626 0.53768 0.0
C794 C 0.01525 0.8913 0.51418 0.0
C795 C 0.99383 0.88959 0.49473 0.0
H796 H 0.02627 0.87762 0.55272 0.0
H797 H 0.8341 0.86273 0.34958 0.0
H798 H 0.38461 0.88285 0.57974 0.0
H799 H 0.38788 0.83781 0.5676 0.0
H800 H 0.3177 0.80623 0.62203 0.0
H801 H 0.31477 0.85153 0.63469 0.0
H802 H 0.35896 0.78567 0.63233 0.0
H803 H 0.31196 0.79487 0.55057 0.0
H804 H 0.30085 0.81587 0.50903 0.0
H805 H 0.38298 0.81604 0.47534 0.0
H806 H 0.39479 0.79542 0.51686 0.0
H807 H 0.38664 0.66111 0.59868 0.0
H808 H 0.35844 0.69393 0.59644 0.0
H809 H 0.42993 0.74925 0.56045 0.0
H810 H 0.45818 0.71658 0.56272 0.0
H811 H 0.37556 0.75082 0.5388 0.0
H812 H 0.42396 0.7512 0.62687 0.0
H813 H 0.43396 0.72961 0.66851 0.0
H814 H 0.34517 0.71022 0.68958 0.0
H815 H 0.33463 0.73138 0.64781 0.0
C816 C 0.36949 0.86627 0.58867 0.0
C817 C 0.34951 0.87064 0.60821 0.0
C818 C 0.37125 0.8405 0.5816 0.0
C819 C 0.35276 0.81855 0.5936 0.0
C820 C 0.33213 0.82284 0.61246 0.0
C821 C 0.33055 0.84868 0.61976 0.0
C822 C 0.35735 0.79161 0.58879 0.0
C823 C 0.36172 0.77772 0.6118 0.0
C824 C 0.36123 0.78124 0.56205 0.0
C825 C 0.35431 0.79369 0.53696 0.0
C826 C 0.32774 0.79956 0.53441 0.0
C827 C 0.32131 0.81137 0.51083 0.0
C828 C 0.3412 0.81731 0.48957 0.0
C829 C 0.36757 0.81141 0.49182 0.0
C830 C 0.37414 0.79962 0.51536 0.0
C831 C 0.39605 0.68003 0.58967 0.0
C832 C 0.42465 0.68652 0.58116 0.0
C833 C 0.37996 0.69871 0.5884 0.0
C834 C 0.39224 0.724 0.57847 0.0
C835 C 0.42011 0.72979 0.56813 0.0
C836 C 0.43628 0.71126 0.56966 0.0
C837 C 0.37782 0.74569 0.58228 0.0
C838 C 0.37179 0.75852 0.55917 0.0
C839 C 0.37207 0.75501 0.60888 0.0
C840 C 0.37847 0.74255 0.63409 0.0
C841 C 0.40656 0.74215 0.64029 0.0
C842 C 0.41232 0.73002 0.66391 0.0
C843 C 0.3902 0.71847 0.68164 0.0
C844 C 0.36227 0.71911 0.6758 0.0
C845 C 0.35639 0.73116 0.65216 0.0
H846 H 0.3947 0.7091 0.69993 0.0
H847 H 0.33618 0.82645 0.47133 0.0
H848 H 0.74662 0.8036 0.79886 0.0
H849 H 0.77204 0.82855 0.76081 0.0
H850 H 0.76935 0.90216 0.80344 0.0
H851 H 0.74406 0.87722 0.84189 0.0
H852 H 0.76602 0.89983 0.74035 0.0
H853 H 0.82195 0.88449 0.81778 0.0
H854 H 0.83355 0.85477 0.85158 0.0
H855 H 0.85554 0.80582 0.78604 0.0
H856 H 0.8434 0.83494 0.75181 0.0
H857 H 0.89146 0.9856 0.68699 0.0
H858 H 0.85192 0.96133 0.71485 0.0
H859 H 0.87317 0.88765 0.69188 0.0
H860 H 0.91327 0.91205 0.66457 0.0
H861 H 0.86479 0.88954 0.74409 0.0
H862 H 0.81293 0.90501 0.66635 0.0
H863 H 0.79781 0.93115 0.63097 0.0
H864 H 0.76646 0.9768 0.69377 0.0
H865 H 0.78175 0.95117 0.72959 0.0
C866 C 0.75074 0.82508 0.79977 0.0
C867 C 0.74391 0.83855 0.82348 0.0
C868 C 0.76508 0.83927 0.77798 0.0
C869 C 0.77282 0.86713 0.77958 0.0
C870 C 0.76344 0.88063 0.8019 0.0
C871 C 0.74906 0.86639 0.82382 0.0
C872 C 0.79486 0.88167 0.76076 0.0
C873 C 0.78772 0.89793 0.74124 0.0
C874 C 0.8229 0.87852 0.76168 0.0
C875 C 0.83152 0.86175 0.78225 0.0
C876 C 0.82912 0.86731 0.81058 0.0
C877 C 0.83577 0.85057 0.82981 0.0
C878 C 0.84522 0.82838 0.82096 0.0
C879 C 0.84818 0.82299 0.79286 0.0
C880 C 0.84142 0.8396 0.77354 0.0
C881 C 0.88744 0.96418 0.68763 0.0
C882 C 0.90538 0.95067 0.67363 0.0
C883 C 0.86478 0.95031 0.70347 0.0
C884 C 0.85928 0.92259 0.70521 0.0
C885 C 0.87698 0.90903 0.69088 0.0
C886 C 0.89988 0.92296 0.67532 0.0
C887 C 0.8362 0.90793 0.72324 0.0
C888 C 0.84316 0.89159 0.74289 0.0
C889 C 0.80797 0.91087 0.72215 0.0
C890 C 0.79874 0.92633 0.70067 0.0
C891 C 0.80302 0.92077 0.67264 0.0
C892 C 0.79438 0.93546 0.6525 0.0
C893 C 0.78125 0.95567 0.66012 0.0
C894 C 0.77666 0.96117 0.6879 0.0
C895 C 0.78529 0.94654 0.70813 0.0
H896 H 0.77457 0.96702 0.6445 0.0
H897 H 0.85028 0.8154 0.83588 0.0
H898 H 0.74769 0.26459 0.39957 0.0
H899 H 0.71613 0.24968 0.35998 0.0
H900 H 0.78132 0.21941 0.31896 0.0
H901 H 0.81325 0.23521 0.35776 0.0
H902 H 0.75583 0.24309 0.28362 0.0
H903 H 0.72526 0.17888 0.3547 0.0
H904 H 0.70789 0.16522 0.40105 0.0
H905 H 0.63381 0.19417 0.38879 0.0
H906 H 0.65094 0.20828 0.34247 0.0
H907 H 0.68545 0.14421 0.18868 0.0
H908 H 0.71153 0.16806 0.22847 0.0
H909 H 0.63729 0.19368 0.25475 0.0
H910 H 0.61069 0.16912 0.21529 0.0
H911 H 0.66329 0.17763 0.29768 0.0
H912 H 0.69107 0.23675 0.22431 0.0
H913 H 0.70831 0.25015 0.17788 0.0
H914 H 0.78744 0.23119 0.19427 0.0
H915 H 0.77052 0.21731 0.24067 0.0
C916 C 0.75543 0.25515 0.38191 0.0
C917 C 0.78287 0.25081 0.38193 0.0
C918 C 0.73728 0.24642 0.35942 0.0
C919 C 0.7462 0.23304 0.33669 0.0
C920 C 0.77391 0.22956 0.33631 0.0
C921 C 0.79206 0.23837 0.35864 0.0
C922 C 0.72666 0.2218 0.31352 0.0
C923 C 0.73567 0.22867 0.28668 0.0
C924 C 0.69993 0.20361 0.31756 0.0
C925 C 0.68952 0.19489 0.34527 0.0
C926 C 0.70536 0.18248 0.36197 0.0
C927 C 0.69554 0.17463 0.38822 0.0
C928 C 0.6698 0.1789 0.39789 0.0
C929 C 0.65377 0.19092 0.38129 0.0
C930 C 0.66351 0.19883 0.35504 0.0
C931 C 0.67452 0.1546 0.2031 0.0
C932 C 0.64599 0.15478 0.19879 0.0
C933 C 0.68955 0.16848 0.22567 0.0
C934 C 0.67648 0.183 0.24432 0.0
C935 C 0.64783 0.18276 0.24049 0.0
C936 C 0.63274 0.16886 0.21786 0.0
C937 C 0.6929 0.19832 0.26778 0.0
C938 C 0.68327 0.19231 0.29463 0.0
C939 C 0.71907 0.21731 0.26377 0.0
C940 C 0.72943 0.22581 0.23592 0.0
C941 C 0.71207 0.23526 0.21795 0.0
C942 C 0.7218 0.24297 0.19165 0.0
C943 C 0.74894 0.24148 0.18311 0.0
C944 C 0.76642 0.23233 0.2009 0.0
C945 C 0.75678 0.22457 0.22722 0.0
H946 H 0.75643 0.24745 0.16274 0.0
H947 H 0.66225 0.17282 0.41822 0.0
H948 H 0.41939 0.67382 0.28589 0.0
H949 H 0.43213 0.65031 0.32454 0.0
H950 H 0.37709 0.68314 0.37788 0.0
H951 H 0.36487 0.70712 0.33913 0.0
H952 H 0.4244 0.68675 0.40433 0.0
H953 H 0.36162 0.6143 0.35479 0.0
H954 H 0.34314 0.58503 0.31443 0.0
H955 H 0.42242 0.5631 0.30664 0.0
H956 H 0.44152 0.5925 0.34675 0.0
H957 H 0.44332 0.60906 0.518 0.0
H958 H 0.42378 0.62956 0.4809 0.0
H959 H 0.47097 0.59408 0.42137 0.0
H960 H 0.48909 0.5724 0.45821 0.0
H961 H 0.42449 0.59146 0.39906 0.0
H962 H 0.48843 0.66618 0.44669 0.0
H963 H 0.50692 0.69527 0.48721 0.0
H964 H 0.42568 0.71271 0.4988 0.0
H965 H 0.40665 0.68358 0.45842 0.0
C966 C 0.40943 0.67547 0.3057 0.0
C967 C 0.39052 0.69184 0.30918 0.0
C968 C 0.4168 0.66201 0.32797 0.0
C969 C 0.40544 0.66441 0.35453 0.0
C970 C 0.38626 0.68065 0.35786 0.0
C971 C 0.37895 0.69417 0.33554 0.0
C972 C 0.41432 0.65083 0.37879 0.0
C973 C 0.424 0.6658 0.4032 0.0
C974 C 0.41453 0.62354 0.3777 0.0
C975 C 0.40308 0.60579 0.35363 0.0
C976 C 0.37518 0.60338 0.34435 0.0
C977 C 0.36459 0.58674 0.32154 0.0
C978 C 0.38162 0.57227 0.30794 0.0
C979 C 0.40927 0.57434 0.31717 0.0
C980 C 0.41997 0.59097 0.33997 0.0
C981 C 0.44952 0.60558 0.497 0.0
C982 C 0.4679 0.58896 0.49133 0.0
C983 C 0.43848 0.61761 0.47561 0.0
C984 C 0.44614 0.61413 0.44783 0.0
C985 C 0.46443 0.59737 0.44229 0.0
C986 C 0.47495 0.58492 0.46357 0.0
C987 C 0.43513 0.62745 0.4245 0.0
C988 C 0.42495 0.61242 0.40025 0.0
C989 C 0.43455 0.6547 0.42573 0.0
C990 C 0.44607 0.67255 0.44968 0.0
C991 C 0.4745 0.67617 0.45794 0.0
C992 C 0.48507 0.69266 0.48086 0.0
C993 C 0.46747 0.7058 0.49558 0.0
C994 C 0.43928 0.70252 0.48736 0.0
C995 C 0.42861 0.68607 0.46443 0.0
H996 H 0.47572 0.71858 0.51328 0.0
H997 H 0.37338 0.5594 0.29028 0.0
H998 H 0.1263 0.46583 0.77701 0.0
H999 H 0.11262 0.49044 0.81686 0.0
H1000 H 0.13 0.43267 0.87077 0.0
H1001 H 0.14344 0.40805 0.83086 0.0
H1002 H 0.0796 0.4416 0.88311 0.0
H1003 H 0.17333 0.49712 0.86893 0.0
H1004 H 0.21272 0.52476 0.8425 0.0
H1005 H 0.16116 0.5781 0.82529 0.0
H1006 H 0.12131 0.55057 0.85132 0.0
H1007 H 0.05751 0.5131 1.00729 0.0
H1008 H 0.07798 0.4898 0.97063 0.0
H1009 H 0.06773 0.54769 0.91319 0.0
H1010 H 0.04801 0.57115 0.94981 0.0
H1011 H 0.11667 0.53819 0.90412 0.0
H1012 H 0.02234 0.4821 0.91563 0.0
H1013 H 0.98228 0.45476 0.94153 0.0
H1014 H 0.03396 0.40271 0.96278 0.0
H1015 H 0.07447 0.42997 0.93731 0.0
C1016 C 0.12793 0.45885 0.79745 0.0
C1017 C 0.13649 0.43536 0.80093 0.0
C1018 C 0.11999 0.47286 0.82028 0.0
C1019 C 0.12035 0.46362 0.84709 0.0
C1020 C 0.1295 0.44035 0.85047 0.0
C1021 C 0.13749 0.42641 0.82766 0.0
C1022 C 0.10991 0.47739 0.87133 0.0
C1023 C 0.08808 0.46265 0.88792 0.0
C1024 C 0.1203 0.50501 0.87748 0.0
C1025 C 0.14424 0.52164 0.86187 0.0
C1026 C 0.17031 0.51463 0.85933 0.0
C1027 C 0.19273 0.5303 0.84446 0.0
C1028 C 0.18942 0.55313 0.83217 0.0
C1029 C 0.16368 0.56039 0.83479 0.0
C1030 C 0.14118 0.54477 0.84963 0.0
C1031 C 0.05943 0.52069 0.98682 0.0
C1032 C 0.05084 0.54385 0.98151 0.0
C1033 C 0.07115 0.50734 0.96576 0.0
C1034 C 0.07421 0.51666 0.93877 0.0
C1035 C 0.06576 0.53994 0.93365 0.0
C1036 C 0.05432 0.55333 0.95467 0.0
C1037 C 0.08618 0.50246 0.91579 0.0
C1038 C 0.10828 0.51711 0.89941 0.0
C1039 C 0.07591 0.47479 0.90972 0.0
C1040 C 0.05151 0.45823 0.92481 0.0
C1041 C 0.02521 0.46492 0.92598 0.0
C1042 C 1.00242 0.44943 0.94056 0.0
C1043 C 1.0056 0.42705 0.95386 0.0
C1044 C 0.03155 0.42007 0.95251 0.0
C1045 C 0.05442 0.43553 0.93799 0.0
H1046 H 0.98794 0.41509 0.96515 0.0
H1047 H 0.2068 0.56524 0.82066 0.0
H1048 H 0.61861 0.84161 0.90558 0.0
H1049 H 0.60004 0.87992 0.91937 0.0
H1050 H 0.68561 0.92669 0.93608 0.0
H1051 H 0.70406 0.88821 0.9225 0.0
H1052 H 0.65106 0.92891 0.97876 0.0
H1053 H 0.64775 0.93995 0.88199 0.0
H1054 H 0.63571 0.92657 0.83353 0.0
H1055 H 0.54666 0.90798 0.85339 0.0
H1056 H 0.55815 0.92081 0.90208 0.0
H1057 H 0.6031 0.04268 0.01812 0.0
H1058 H 0.62799 1.01409 0.9923 0.0
H1059 H 0.54745 0.96097 0.96876 0.0
H1060 H 0.52242 0.98964 0.99387 0.0
H1061 H 0.5836 0.96592 0.92686 0.0
H1062 H 0.58634 0.94863 0.02335 0.0
H1063 H 0.59701 0.96058 0.07236 0.0
H1064 H 0.68578 0.9892 0.05322 0.0
H1065 H 0.67557 0.97773 1.00402 0.0
C1066 C 0.63337 0.86029 0.91167 0.0
C1067 C 0.66263 0.86228 0.91295 0.0
C1068 C 0.62283 0.88215 0.91946 0.0
C1069 C 0.64147 0.90626 0.92856 0.0
C1070 C 0.67087 0.90833 0.92905 0.0
C1071 C 0.68139 0.88647 0.92123 0.0
C1072 C 0.63005 0.9284 0.9399 0.0
C1073 C 0.63679 0.9374 0.96718 0.0
C1074 C 0.61083 0.93898 0.92506 0.0
C1075 C 0.60384 0.93115 0.89577 0.0
C1076 C 0.6256 0.93278 0.87609 0.0
C1077 C 0.61887 0.92532 0.84856 0.0
C1078 C 0.59045 0.91637 0.84039 0.0
C1079 C 0.56868 0.91489 0.85974 0.0
C1080 C 0.57529 0.92227 0.88731 0.0
C1081 C 0.59066 0.02504 1.00726 0.0
C1082 C 0.56073 1.01836 1.00833 0.0
C1083 C 0.60494 1.00868 0.99255 0.0
C1084 C 0.58959 0.98515 0.97895 0.0
C1085 C 0.55975 0.979 0.9791 0.0
C1086 C 0.54547 0.99541 0.9936 0.0
C1087 C 0.60441 0.96615 0.96576 0.0
C1088 C 0.59823 0.95768 0.93822 0.0
C1089 C 0.62396 0.95583 0.98041 0.0
C1090 C 0.63015 0.96262 1.00999 0.0
C1091 C 0.6081 0.95766 0.02958 0.0
C1092 C 0.61407 0.96431 0.05739 0.0
C1093 C 0.64204 0.97572 0.06589 0.0
C1094 C 0.66412 0.98042 0.0466 0.0
C1095 C 0.65826 0.97384 0.01875 0.0
H1096 H 0.64662 0.98086 0.08743 0.0
H1097 H 0.58529 0.91063 0.81907 0.0
H1098 H 0.81528 0.19325 0.44073 0.0
H1099 H 0.83954 0.16194 0.45895 0.0
H1100 H 0.91271 0.22659 0.47878 0.0
H1101 H 0.88935 0.25782 0.45891 0.0
H1102 H 0.92998 0.18686 0.45951 0.0
H1103 H 0.86274 0.19833 0.52813 0.0
H1104 H 0.81563 0.19923 0.54697 0.0
H1105 H 0.7839 0.11613 0.52562 0.0
H1106 H 0.83075 0.11481 0.5063 0.0
H1107 H 0.9533 0.10124 0.57972 0.0
H1108 H 0.93014 0.13264 0.55965 0.0
H1109 H 0.9404 0.09953 0.47855 0.0
H1110 H 0.96346 0.06783 0.49862 0.0
H1111 H 0.88208 0.12444 0.52997 0.0
H1112 H 0.95553 0.15342 0.43436 0.0
H1113 H 1.00611 0.16196 0.42103 0.0
H1114 H 0.03072 0.17383 0.50602 0.0
H1115 H 0.98036 0.16573 0.51985 0.0
C1116 C 0.83675 0.20078 0.44845 0.0
C1117 C 0.85034 0.2281 0.44841 0.0
C1118 C 0.85043 0.18287 0.45924 0.0
C1119 C 0.87773 0.19198 0.47069 0.0
C1120 C 0.89158 0.21913 0.47017 0.0
C1121 C 0.87808 0.237 0.45906 0.0
C1122 C 0.89183 0.17328 0.48338 0.0
C1123 C 0.91945 0.17311 0.4748 0.0
C1124 C 0.87836 0.15585 0.5039 0.0
C1125 C 0.85017 0.15654 0.51552 0.0
C1126 C 0.84566 0.18029 0.52726 0.0
C1127 C 0.81901 0.18087 0.53806 0.0
C1128 C 0.79677 0.15777 0.53742 0.0
C1129 C 0.80114 0.13402 0.52605 0.0
C1130 C 0.82774 0.13334 0.5152 0.0
C1131 C 0.95045 0.10055 0.55763 0.0
C1132 C 0.96016 0.0822 0.54066 0.0
C1133 C 0.93724 0.11847 0.54622 0.0
C1134 C 0.93377 0.11849 0.51765 0.0
C1135 C 0.94318 0.09998 0.50064 0.0
C1136 C 0.95622 0.08187 0.5121 0.0
C1137 C 0.92005 0.1378 0.50574 0.0
C1138 C 0.89248 0.13802 0.51446 0.0
C1139 C 0.93396 0.15593 0.48607 0.0
C1140 C 0.96412 0.15871 0.47812 0.0
C1141 C 0.97173 0.15768 0.4502 0.0
C1142 C 1.00035 0.16253 0.44256 0.0
C1143 C 0.02156 0.16856 0.46265 0.0
C1144 C 0.01422 0.16919 0.49048 0.0
C1145 C 0.98563 0.16436 0.49824 0.0
H1146 H 0.04369 0.17299 0.45662 0.0
H1147 H 0.77616 0.15825 0.54579 0.0
H1148 H 0.31893 0.72406 0.16005 0.0
H1149 H 0.27439 0.69831 0.13974 0.0
H1150 H 0.24894 0.66249 0.21722 0.0
H1151 H 0.29297 0.6896 0.23856 0.0
H1152 H 0.24212 0.62665 0.1604 0.0
H1153 H 0.21648 0.70117 0.2085 0.0
H1154 H 0.2234 0.74895 0.22022 0.0
H1155 H 0.21589 0.76437 0.13495 0.0
H1156 H 0.20938 0.7167 0.12269 0.0
H1157 H 0.09919 0.56419 0.11875 0.0
H1158 H 0.14298 0.58614 0.14333 0.0
H1159 H 0.15313 0.65425 0.09288 0.0
H1160 H 0.10834 0.63298 0.06957 0.0
H1161 H 0.16815 0.67322 0.1388 0.0
H1162 H 0.19486 0.60273 0.08823 0.0
H1163 H 0.19247 0.55675 0.07181 0.0
H1164 H 0.20258 0.5349 0.15454 0.0
H1165 H 0.2046 0.58068 0.17153 0.0
C1166 C 0.30386 0.71116 0.1732 0.0
C1167 C 0.30982 0.70971 0.20142 0.0
C1168 C 0.27836 0.69609 0.16127 0.0
C1169 C 0.25807 0.67846 0.17684 0.0
C1170 C 0.26422 0.67591 0.20467 0.0
C1171 C 0.28962 0.69144 0.21685 0.0
C1172 C 0.23019 0.66367 0.16402 0.0
C1173 C 0.22566 0.63664 0.1561 0.0
C1174 C 0.20914 0.67685 0.15729 0.0
C1175 C 0.21273 0.70543 0.16467 0.0
C1176 C 0.21657 0.71479 0.19223 0.0
C1177 C 0.22036 0.74184 0.19898 0.0
C1178 C 0.22016 0.75969 0.17834 0.0
C1179 C 0.21608 0.75052 0.15092 0.0
C1180 C 0.21231 0.72349 0.14406 0.0
C1181 C 0.1108 0.58381 0.11278 0.0
C1182 C 0.10005 0.59669 0.09201 0.0
C1183 C 0.13618 0.59639 0.1268 0.0
C1184 C 0.15225 0.62195 0.11993 0.0
C1185 C 0.14152 0.63467 0.09896 0.0
C1186 C 0.11579 0.62237 0.08542 0.0
C1187 C 0.17961 0.63577 0.13489 0.0
C1188 C 0.18426 0.66284 0.14313 0.0
C1189 C 0.20108 0.6227 0.14127 0.0
C1190 C 0.19959 0.59508 0.13118 0.0
C1191 C 0.19634 0.58807 0.10295 0.0
C1192 C 0.19509 0.56205 0.09354 0.0
C1193 C 0.19735 0.54292 0.11211 0.0
C1194 C 0.20082 0.54974 0.14017 0.0
C1195 C 0.20202 0.57572 0.14971 0.0
H1196 H 0.19649 0.52282 0.10475 0.0
H1197 H 0.2231 0.78063 0.1836 0.0
H1198 H 0.24997 0.39752 0.71606 0.0
H1199 H 0.29396 0.42361 0.69502 0.0
H1200 H 0.24598 0.47077 0.65526 0.0
H1201 H 0.20206 0.44506 0.67689 0.0
H1202 H 0.28237 0.4474 0.61934 0.0
H1203 H 0.28754 0.49964 0.70438 0.0
H1204 H 0.28797 0.50618 0.75487 0.0
H1205 H 0.3617 0.47528 0.75966 0.0
H1206 H 0.36147 0.46818 0.70921 0.0
H1207 H 0.40046 0.53119 0.55455 0.0
H1208 H 0.35675 0.51443 0.58084 0.0
H1209 H 0.40537 0.48903 0.6434 0.0
H1210 H 0.44923 0.508 0.61819 0.0
H1211 H 0.36711 0.50259 0.66856 0.0
H1212 H 0.36189 0.44576 0.58783 0.0
H1213 H 0.36237 0.43416 0.53819 0.0
H1214 H 0.29059 0.46646 0.52587 0.0
H1215 H 0.2899 0.47853 0.57541 0.0
C1216 C 0.24901 0.41391 0.70338 0.0
C1217 C 0.22274 0.41958 0.69843 0.0
C1218 C 0.2741 0.42874 0.69128 0.0
C1219 C 0.27336 0.44923 0.67356 0.0
C1220 C 0.24714 0.45514 0.6689 0.0
C1221 C 0.22211 0.4406 0.68141 0.0
C1222 C 0.29964 0.46339 0.65872 0.0
C1223 C 0.30077 0.45984 0.63002 0.0
C1224 C 0.32408 0.47874 0.67271 0.0
C1225 C 0.32432 0.48315 0.70303 0.0
C1226 C 0.3037 0.49402 0.71621 0.0
C1227 C 0.30394 0.49788 0.74483 0.0
C1228 C 0.32481 0.49109 0.76047 0.0
C1229 C 0.34553 0.4805 0.74752 0.0
C1230 C 0.34537 0.47659 0.71892 0.0
C1231 C 0.40175 0.52227 0.57408 0.0
C1232 C 0.42821 0.52079 0.58425 0.0
C1233 C 0.37666 0.51234 0.58903 0.0
C1234 C 0.37722 0.49947 0.61391 0.0
C1235 C 0.40394 0.49866 0.62433 0.0
C1236 C 0.42912 0.50947 0.60986 0.0
C1237 C 0.35018 0.4866 0.62885 0.0
C1238 C 0.34881 0.49028 0.65765 0.0
C1239 C 0.32575 0.47062 0.61503 0.0
C1240 C 0.32604 0.4633 0.58526 0.0
C1241 C 0.34632 0.45053 0.5745 0.0
C1242 C 0.34662 0.44385 0.54639 0.0
C1243 C 0.32658 0.44964 0.52887 0.0
C1244 C 0.30613 0.46203 0.53945 0.0
C1245 C 0.30576 0.46878 0.56754 0.0
H1246 H 0.32684 0.44446 0.50712 0.0
H1247 H 0.32495 0.49409 0.78262 0.0
H1248 H 0.73139 0.74382 0.90334 0.0
H1249 H 0.7635 0.71818 0.91958 0.0
H1250 H 0.83592 0.78172 0.8987 0.0
H1251 H 0.80405 0.80722 0.88228 0.0
H1252 H 0.84505 0.73517 0.88331 0.0
H1253 H 0.81181 0.7727 0.96552 0.0
H1254 H 0.77559 0.78161 0.9979 0.0
H1255 H 0.74337 0.69787 1.00901 0.0
H1256 H 0.77918 0.68844 0.9764 0.0
H1257 H 0.95273 0.7054 0.96515 0.0
H1258 H 0.91843 0.72504 0.9429 0.0
H1259 H 0.85007 0.65857 0.96575 0.0
H1260 H 0.88426 0.63899 0.98821 0.0
H1261 H 0.8372 0.70395 0.97875 0.0
H1262 H 0.87318 0.66684 0.89847 0.0
H1263 H 0.91005 0.65863 0.8665 0.0
H1264 H 0.93791 0.74212 0.85209 0.0
H1265 H 0.90146 0.75089 0.88427 0.0
C1266 C 0.75416 0.75231 0.90233 0.0
C1267 C 0.7652 0.77751 0.89155 0.0
C1268 C 0.77248 0.73766 0.91158 0.0
C1269 C 0.80213 0.74815 0.9106 0.0
C1270 C 0.81315 0.77318 0.89956 0.0
C1271 C 0.79489 0.78772 0.89016 0.0
C1272 C 0.82181 0.73337 0.92146 0.0
C1273 C 0.84351 0.72854 0.90426 0.0
C1274 C 0.81941 0.72421 0.94859 0.0
C1275 C 0.79797 0.72986 0.9683 0.0
C1276 C 0.79686 0.75618 0.97472 0.0
C1277 C 0.77643 0.76133 0.99314 0.0
C1278 C 0.75714 0.74032 1.00545 0.0
C1279 C 0.7583 0.71412 0.99942 0.0
C1280 C 0.77866 0.70886 0.98099 0.0
C1281 C 0.93045 0.69478 0.96501 0.0
C1282 C 0.92115 0.67072 0.97849 0.0
C1283 C 0.91086 0.706 0.95229 0.0
C1284 C 0.88168 0.69318 0.9525 0.0
C1285 C 0.87246 0.66884 0.96541 0.0
C1286 C 0.892 0.65771 0.97826 0.0
C1287 C 0.86059 0.70585 0.94066 0.0
C1288 C 0.83863 0.71035 0.95771 0.0
C1289 C 0.86285 0.71478 0.91343 0.0
C1290 C 0.88473 0.70954 0.89398 0.0
C1291 C 0.88731 0.68348 0.88865 0.0
C1292 C 0.90811 0.67872 0.87046 0.0
C1293 C 0.92636 0.69985 0.85732 0.0
C1294 C 0.92379 0.72577 0.86229 0.0
C1295 C 0.90303 0.73065 0.88049 0.0
H1296 H 0.94245 0.69612 0.84324 0.0
H1297 H 0.74134 0.74434 0.0197 0.0
H1298 H 0.37016 0.78527 0.15963 0.0
H1299 H 0.38974 0.82823 0.13956 0.0
H1300 H 0.42609 0.86033 0.21791 0.0
H1301 H 0.40481 0.81798 0.23866 0.0
H1302 H 0.40865 0.89685 0.19673 0.0
H1303 H 0.46559 0.84106 0.15903 0.0
H1304 H 0.4753 0.8019 0.13443 0.0
H1305 H 0.43667 0.82059 0.06143 0.0
H1306 H 0.4264 0.8597 0.08571 0.0
H1307 H 0.51498 1.00751 0.14944 0.0
H1308 H 0.48909 0.9647 0.1669 0.0
H1309 H 0.44151 0.94644 0.0913 0.0
H1310 H 0.46735 0.98982 0.07381 0.0
H1311 H 0.4624 0.90334 0.10894 0.0
H1312 H 0.40894 0.9617 0.14768 0.0
H1313 H 0.40232 1.00168 0.17311 0.0
H1314 H 0.43809 0.97853 0.24555 0.0
H1315 H 0.44532 0.9386 0.22043 0.0
C1316 C 0.38191 0.80144 0.17289 0.0
C1317 C 0.38569 0.79754 0.20105 0.0
C1318 C 0.39365 0.82617 0.16112 0.0
C1319 C 0.41017 0.84789 0.17683 0.0
C1320 C 0.4137 0.84417 0.20499 0.0
C1321 C 0.40168 0.81955 0.21687 0.0
C1322 C 0.42351 0.87439 0.16419 0.0
C1323 C 0.42066 0.89808 0.1777 0.0
C1324 C 0.43884 0.87663 0.13891 0.0
C1325 C 0.44494 0.85313 0.12428 0.0
C1326 C 0.45897 0.8367 0.13779 0.0
C1327 C 0.46461 0.81454 0.1239 0.0
C1328 C 0.45653 0.80871 0.09641 0.0
C1329 C 0.44287 0.8251 0.08274 0.0
C1330 C 0.43715 0.84727 0.09655 0.0
C1331 C 0.49883 0.99455 0.13652 0.0
C1332 C 0.49321 1.00235 0.1102 0.0
C1333 C 0.48396 0.96995 0.14661 0.0
C1334 C 0.46308 0.95208 0.13063 0.0
C1335 C 0.45743 0.95972 0.10419 0.0
C1336 C 0.4721 0.98466 0.09421 0.0
C1337 C 0.44766 0.92552 0.14165 0.0
C1338 C 0.45021 0.90193 0.12788 0.0
C1339 C 0.4324 0.92337 0.16686 0.0
C1340 C 0.42789 0.94726 0.18209 0.0
C1341 C 0.41559 0.96523 0.16897 0.0
C1342 C 0.4117 0.98787 0.18334 0.0
C1343 C 0.41984 0.99267 0.21091 0.0
C1344 C 0.43182 0.9748 0.22418 0.0
C1345 C 0.43579 0.95214 0.2099 0.0
H1346 H 0.41681 1.01021 0.22199 0.0
H1347 H 0.46092 0.79155 0.08569 0.0
H1348 H 0.13627 0.30998 0.72382 0.0
H1349 H 0.11916 0.26666 0.6999 0.0
H1350 H 0.14562 0.30232 0.62235 0.0
H1351 H 0.16239 0.34589 0.64614 0.0
H1352 H 0.0927 0.26765 0.61847 0.0
H1353 H 0.18445 0.26564 0.65225 0.0
H1354 H 0.22184 0.26989 0.68724 0.0
H1355 H 0.16694 0.20828 0.73293 0.0
H1356 H 0.12906 0.20391 0.69838 0.0
H1357 H 0.07253 0.1445 0.54231 0.0
H1358 H 0.09343 0.1886 0.56323 0.0
H1359 H 0.07918 0.15626 0.64394 0.0
H1360 H 0.05944 0.11198 0.62309 0.0
H1361 H 0.12754 0.19029 0.64461 0.0
H1362 H 0.03506 0.193 0.61215 0.0
H1363 H 0.99734 0.18838 0.57739 0.0
H1364 H 0.05243 0.24833 0.52994 0.0
H1365 H 0.09065 0.25302 0.5642 0.0
C1366 C 0.13834 0.3087 0.70165 0.0
C1367 C 0.15082 0.33156 0.68699 0.0
C1368 C 0.12871 0.2838 0.68798 0.0
C1369 C 0.13126 0.28102 0.65925 0.0
C1370 C 0.14343 0.30383 0.6445 0.0
C1371 C 0.15325 0.32874 0.65819 0.0
C1372 C 0.12125 0.25434 0.64473 0.0
C1373 C 0.10061 0.25082 0.62394 0.0
C1374 C 0.13104 0.23212 0.65211 0.0
C1375 C 0.15383 0.23462 0.67285 0.0
C1376 C 0.18027 0.25313 0.66987 0.0
C1377 C 0.20157 0.25554 0.6896 0.0
C1378 C 0.19674 0.23941 0.71233 0.0
C1379 C 0.17063 0.22078 0.71533 0.0
C1380 C 0.14925 0.21831 0.69566 0.0
C1381 C 0.07401 0.14672 0.56452 0.0
C1382 C 0.06422 0.12459 0.58098 0.0
C1383 C 0.0858 0.17209 0.57653 0.0
C1384 C 0.08746 0.17614 0.60533 0.0
C1385 C 0.07819 0.1539 0.62172 0.0
C1386 C 0.06683 0.12848 0.60973 0.0
C1387 C 0.09863 0.20338 0.61851 0.0
C1388 C 0.11957 0.20706 0.63907 0.0
C1389 C 0.08894 0.22569 0.61101 0.0
C1390 C 0.0658 0.22321 0.59064 0.0
C1391 C 0.03918 0.20511 0.59424 0.0
C1392 C 0.01771 0.20248 0.57463 0.0
C1393 C 0.0225 0.21805 0.55148 0.0
C1394 C 0.04876 0.23629 0.54789 0.0
C1395 C 0.07032 0.23895 0.5674 0.0
H1396 H 1.00585 0.21603 0.53634 0.0
H1397 H 0.21326 0.2413 0.72759 0.0
H1398 H 0.77107 0.32203 0.50861 0.0
H1399 H 0.72921 0.33963 0.51668 0.0
H1400 H 0.73761 0.36995 0.43487 0.0
H1401 H 0.77969 0.35247 0.42696 0.0
H1402 H 0.72859 0.40645 0.47351 0.0
H1403 H 0.68717 0.31454 0.44839 0.0
H1404 H 0.67964 0.26607 0.45156 0.0
H1405 H 0.65029 0.27062 0.53477 0.0
H1406 H 0.65803 0.3192 0.53223 0.0
H1407 H 0.59468 0.43206 0.45844 0.0
H1408 H 0.63354 0.41033 0.4525 0.0
H1409 H 0.62726 0.39084 0.53805 0.0
H1410 H 0.58814 0.41263 0.54418 0.0
H1411 H 0.63472 0.34852 0.49935 0.0
H1412 H 0.67719 0.43962 0.52548 0.0
H1413 H 0.68448 0.48808 0.52329 0.0
H1414 H 0.71158 0.48489 0.43917 0.0
H1415 H 0.70425 0.43624 0.44084 0.0
C1416 C 0.76388 0.33252 0.49247 0.0
C1417 C 0.77826 0.33613 0.46727 0.0
C1418 C 0.73999 0.3424 0.497 0.0
C1419 C 0.7302 0.35584 0.47626 0.0
C1420 C 0.74486 0.3596 0.45109 0.0
C1421 C 0.76875 0.34967 0.44658 0.0
C1422 C 0.7049 0.36634 0.48099 0.0
C1423 C 0.708 0.39371 0.47879 0.0
C1424 C 0.67826 0.34979 0.48867 0.0
C1425 C 0.67345 0.32055 0.4902 0.0
C1426 C 0.67933 0.30524 0.46744 0.0
C1427 C 0.67498 0.27774 0.46911 0.0
C1428 C 0.66456 0.26528 0.49338 0.0
C1429 C 0.65839 0.2803 0.516 0.0
C1430 C 0.66273 0.30781 0.51445 0.0
C1431 C 0.60122 0.42273 0.47587 0.0
C1432 C 0.58845 0.42399 0.50177 0.0
C1433 C 0.62348 0.41048 0.47248 0.0
C1434 C 0.63325 0.39919 0.49488 0.0
C1435 C 0.6199 0.39948 0.52056 0.0
C1436 C 0.59776 0.41202 0.52405 0.0
C1437 C 0.65849 0.38847 0.4916 0.0
C1438 C 0.65537 0.36115 0.49409 0.0
C1439 C 0.68517 0.40503 0.4843 0.0
C1440 C 0.68991 0.43428 0.48321 0.0
C1441 C 0.6845 0.44922 0.50645 0.0
C1442 C 0.68868 0.47674 0.50532 0.0
C1443 C 0.69836 0.48958 0.48107 0.0
C1444 C 0.70403 0.47491 0.45794 0.0
C1445 C 0.69993 0.44737 0.45898 0.0
H1446 H 0.70155 0.51089 0.48023 0.0
H1447 H 0.66121 0.24399 0.49463 0.0
loop_
_geom_bond_atom_site_label_1
_geom_bond_atom_site_label_2
_geom_bond_distance
_geom_bond_site_symmetry_2
_ccdc_geom_bond_type
H0 C3 0.929 . S
H1 C6 0.929 . S
H2 C8 0.930 . S
C3 H0 0.929 . S
C3 C4 1.398 . S
C3 C5 1.396 . S
C4 C3 1.398 . S
C4 C8 1.407 . S
C5 C3 1.396 . S
C5 C6 1.394 . S
C6 H1 0.929 . S
C6 C5 1.394 . S
C6 C7 1.382 . S
C7 C6 1.382 . S
C7 C8 1.392 . S
C7 N9 1.420 . S
C8 H2 0.930 . S
C8 C4 1.407 . S
C8 C7 1.392 . S
N9 C7 1.420 . S
N9 C10 1.244 . S
C10 N9 1.244 . S
H11 C14 0.929 . S
H12 C17 0.929 . S
H13 C19 0.930 . S
C14 H11 0.929 . S
C14 C15 1.398 . S
C14 C16 1.396 . S
C15 C14 1.398 . S
C15 C19 1.407 . S
C16 C14 1.396 . S
C16 C17 1.394 . S
C17 H12 0.929 . S
C17 C16 1.394 . S
C17 C18 1.382 . S
C18 C17 1.382 . S
C18 C19 1.392 . S
C18 N20 1.420 . S
C19 H13 0.930 . S
C19 C15 1.407 . S
C19 C18 1.392 . S
N20 C18 1.420 . S
N20 C21 1.244 . S
C21 N20 1.244 . S
H22 C25 0.929 . S
H23 C28 0.929 . S
H24 C30 0.930 . S
C25 H22 0.929 . S
C25 C26 1.398 . S
C25 C27 1.396 . S
C26 C25 1.398 . S
C26 C30 1.407 . S
C27 C25 1.396 . S
C27 C28 1.394 . S
C28 H23 0.929 . S
C28 C27 1.394 . S
C28 C29 1.382 . S
C29 C28 1.382 . S
C29 C30 1.392 . S
C29 N31 1.420 . S
C30 H24 0.930 . S
C30 C26 1.407 . S
C30 C29 1.392 . S
N31 C29 1.420 . S
N31 C32 1.244 . S
C32 N31 1.244 . S
H33 C36 0.929 . S
H34 C39 0.929 . S
H35 C41 0.930 . S
C36 H33 0.929 . S
C36 C37 1.398 . S
C36 C38 1.396 . S
C37 C36 1.398 . S
C37 C41 1.407 . S
C38 C36 1.396 . S
C38 C39 1.394 . S
C39 H34 0.929 . S
C39 C38 1.394 . S
C39 C40 1.382 . S
C40 C39 1.382 . S
C40 C41 1.392 . S
C40 N42 1.420 . S
C41 H35 0.930 . S
C41 C37 1.407 . S
C41 C40 1.392 . S
N42 C40 1.420 . S
N42 C43 1.244 . S
C43 N42 1.244 . S
H44 C47 0.929 . S
H45 C50 0.929 . S
H46 C52 0.930 . S
C47 H44 0.929 . S
C47 C48 1.398 . S
C47 C49 1.396 . S
C48 C47 1.398 . S
C48 C52 1.407 . S
C49 C47 1.396 . S
C49 C50 1.394 . S
C50 H45 0.929 . S
C50 C49 1.394 . S
C50 C51 1.382 . S
C51 C50 1.382 . S
C51 C52 1.392 . S
C51 N53 1.420 . S
C52 H46 0.930 . S
C52 C48 1.407 . S
C52 C51 1.392 . S
N53 C51 1.420 . S
N53 C54 1.244 . S
C54 N53 1.244 . S
H55 C58 0.929 . S
H56 C61 0.929 . S
H57 C63 0.930 . S
C58 H55 0.929 . S
C58 C59 1.398 . S
C58 C60 1.396 . S
C59 C58 1.398 . S
C59 C63 1.407 . S
C60 C58 1.396 . S
C60 C61 1.394 . S
C61 H56 0.929 . S
C61 C60 1.394 . S
C61 C62 1.382 . S
C62 C61 1.382 . S
C62 C63 1.392 . S
C62 N64 1.420 . S
C63 H57 0.930 . S
C63 C59 1.407 . S
C63 C62 1.392 . S
N64 C62 1.420 . S
N64 C65 1.244 . S
C65 N64 1.244 . S
H66 C69 0.929 . S
H67 C72 0.929 . S
H68 C74 0.930 . S
C69 H66 0.929 . S
C69 C70 1.398 . S
C69 C71 1.396 . S
C70 C69 1.398 . S
C70 C74 1.407 . S
C71 C69 1.396 . S
C71 C72 1.394 . S
C72 H67 0.929 . S
C72 C71 1.394 . S
C72 C73 1.382 . S
C73 C72 1.382 . S
C73 C74 1.392 . S
C73 N75 1.420 . S
C74 H68 0.930 . S
C74 C70 1.407 . S
C74 C73 1.392 . S
N75 C73 1.420 . S
N75 C76 1.244 . S
C76 N75 1.244 . S
H77 C80 0.929 . S
H78 C83 0.929 . S
H79 C85 0.930 . S
C80 H77 0.929 . S
C80 C81 1.398 . S
C80 C82 1.396 . S
C81 C80 1.398 . S
C81 C85 1.407 . S
C82 C80 1.396 . S
C82 C83 1.394 . S
C83 H78 0.929 . S
C83 C82 1.394 . S
C83 C84 1.382 . S
C84 C83 1.382 . S
C84 C85 1.392 . S
C84 N86 1.420 . S
C85 H79 0.930 . S
C85 C81 1.407 . S
C85 C84 1.392 . S
N86 C84 1.420 . S
N86 C87 1.244 . S
C87 N86 1.244 . S
Gd88 C91 2.818 . S
Gd88 O108 2.377 . S
Gd88 O110 2.448 . S
Gd88 O111 2.506 . S
Gd88 O112 2.435 . S
Gd88 O113 2.717 . S
Gd88 O115 2.395 1_545 S
Gd88 O119 2.327 1_455 S
Gd89 C100 2.818 1_545 S
Gd89 O109 2.395 1_655 S
Gd89 O113 2.327 1_655 S
Gd89 O114 2.377 1_545 S
Gd89 O116 2.447 1_545 S
Gd89 O117 2.506 1_545 S
Gd89 O118 2.435 . S
Gd89 O119 2.717 . S
C90 O108 1.240 . S
C90 O109 1.240 . S
C91 Gd88 2.818 . S
C91 C92 1.510 . S
C91 O110 1.249 . S
C91 O111 1.252 . S
C92 C91 1.510 . S
C92 C93 1.404 . S
C92 C94 1.352 . S
C93 C92 1.404 . S
C93 C97 1.389 . S
C93 H120 0.930 . S
C94 C92 1.352 . S
C94 C96 1.374 . S
C94 H121 0.931 . S
C95 C96 1.359 . S
C95 C97 1.364 . S
C96 C94 1.374 . S
C96 C95 1.359 . S
C96 H122 0.931 . S
C97 C93 1.389 . S
C97 C95 1.364 . S
C97 H123 0.931 . S
C98 O112 1.256 . S
C98 O113 1.257 . S
C99 O114 1.240 . S
C99 O115 1.240 1_655 S
C100 Gd89 2.818 1_565 S
C100 C101 1.510 . S
C100 O116 1.252 . S
C100 O117 1.252 . S
C101 C100 1.510 . S
C101 C102 1.404 . S
C101 C103 1.352 . S
C102 C101 1.404 . S
C102 C106 1.389 . S
C102 H124 0.930 . S
C103 C101 1.352 . S
C103 C105 1.374 . S
C103 H125 0.931 . S
C104 C105 1.359 . S
C104 C106 1.364 . S
C105 C103 1.374 . S
C105 C104 1.359 . S
C105 H126 0.931 . S
C106 C102 1.389 . S
C106 C104 1.364 . S
C106 H127 0.931 . S
C107 O118 1.256 . S
C107 O119 1.257 . S
O108 Gd88 2.377 . S
O108 C90 1.240 . S
O109 Gd89 2.395 1_455 S
O109 C90 1.240 . S
O110 Gd88 2.448 . S
O110 C91 1.249 . S
O111 Gd88 2.506 . S
O111 C91 1.252 . S
O112 Gd88 2.435 . S
O112 C98 1.256 . S
O113 Gd88 2.717 . S
O113 Gd89 2.327 1_455 S
O113 C98 1.257 . S
O114 Gd89 2.377 1_565 S
O114 C99 1.240 . S
O115 Gd88 2.395 1_565 S
O115 C99 1.240 1_455 S
O116 Gd89 2.447 1_565 S
O116 C100 1.252 . S
O117 Gd89 2.506 1_565 S
O117 C100 1.252 . S
O118 Gd89 2.435 . S
O118 C107 1.256 . S
O119 Gd88 2.327 1_655 S
O119 Gd89 2.717 . S
O119 C107 1.257 . S
H120 C93 0.930 . S
H121 C94 0.931 . S
H122 C96 0.931 . S
H123 C97 0.931 . S
H124 C102 0.930 . S
H125 C103 0.931 . S
H126 C105 0.931 . S
H127 C106 0.931 . S
Gd128 C131 2.818 . S
Gd128 O148 2.377 . S
Gd128 O150 2.448 . S
Gd128 O151 2.506 . S
Gd128 O152 2.435 1_545 S
Gd128 O153 2.717 . S
Gd128 O155 2.395 . S
Gd128 O159 2.327 . S
Gd129 C140 2.818 1_544 S
Gd129 O149 2.395 . S
Gd129 O153 2.327 . S
Gd129 O154 2.377 . S
Gd129 O156 2.448 1_554 S
Gd129 O157 2.506 1_544 S
Gd129 O158 2.437 1_554 S
Gd129 O159 2.717 . S
C130 O148 1.240 . S
C130 O149 1.240 . S
C131 Gd128 2.818 . S
C131 C132 1.510 . S
C131 O150 1.249 . S
C131 O151 1.252 . S
C132 C131 1.510 . S
C132 C133 1.404 . S
C132 C134 1.352 . S
C133 C132 1.404 . S
C133 C137 1.389 . S
C133 H160 0.930 . S
C134 C132 1.352 . S
C134 C136 1.374 . S
C134 H161 0.931 . S
C135 C136 1.359 . S
C135 C137 1.364 . S
C136 C134 1.374 . S
C136 C135 1.359 . S
C136 H162 0.931 . S
C137 C133 1.389 . S
C137 C135 1.364 . S
C137 H163 0.931 . S
C138 O152 1.256 . S
C138 O153 1.257 1_565 S
C139 O154 1.240 1_565 S
C139 O155 1.240 1_565 S
C140 Gd129 2.818 1_566 S
C140 C141 1.510 . S
C140 O156 1.249 1_565 S
C140 O157 1.252 . S
C141 C140 1.510 . S
C141 C142 1.404 . S
C141 C143 1.352 . S
C142 C141 1.404 . S
C142 C146 1.389 . S
C142 H164 0.930 1_565 S
C143 C141 1.352 . S
C143 C145 1.374 . S
C143 H165 0.931 . S
C144 C145 1.359 . S
C144 C146 1.364 . S
C145 C143 1.374 . S
C145 C144 1.359 . S
C145 H166 0.931 . S
C146 C142 1.389 . S
C146 C144 1.364 . S
C146 H167 0.931 . S
C147 O158 1.258 1_554 S
C147 O159 1.257 . S
O148 Gd128 2.377 . S
O148 C130 1.240 . S
O149 Gd129 2.395 . S
O149 C130 1.240 . S
O150 Gd128 2.448 . S
O150 C131 1.249 . S
O151 Gd128 2.506 . S
O151 C131 1.252 . S
O152 Gd128 2.435 1_565 S
O152 C138 1.256 . S
O153 Gd128 2.717 . S
O153 Gd129 2.327 . S
O153 C138 1.257 1_545 S
O154 Gd129 2.377 . S
O154 C139 1.240 1_545 S
O155 Gd128 2.395 . S
O155 C139 1.240 1_545 S
O156 Gd129 2.448 1_556 S
O156 C140 1.249 1_545 S
O157 Gd129 2.506 1_566 S
O157 C140 1.252 . S
O158 Gd129 2.437 1_556 S
O158 C147 1.258 1_556 S
O159 Gd128 2.327 . S
O159 Gd129 2.717 . S
O159 C147 1.257 . S
H160 C133 0.930 . S
H161 C134 0.931 . S
H162 C136 0.931 . S
H163 C137 0.931 . S
H164 C142 0.930 1_545 S
H165 C143 0.931 . S
H166 C145 0.931 . S
H167 C146 0.931 . S
Gd168 C171 2.818 . S
Gd168 O188 2.377 . S
Gd168 O190 2.448 . S
Gd168 O191 2.506 . S
Gd168 O192 2.435 . S
Gd168 O193 2.717 . S
Gd168 O195 2.395 . S
Gd168 O199 2.327 . S
Gd169 C180 2.818 . S
Gd169 O189 2.395 . S
Gd169 O193 2.327 . S
Gd169 O194 2.377 . S
Gd169 O196 2.448 . S
Gd169 O197 2.506 . S
Gd169 O198 2.435 . S
Gd169 O199 2.717 . S
C170 O188 1.240 . S
C170 O189 1.240 . S
C171 Gd168 2.818 . S
C171 C172 1.510 . S
C171 O190 1.249 . S
C171 O191 1.252 . S
C172 C171 1.510 . S
C172 C173 1.404 . S
C172 C174 1.352 . S
C173 C172 1.404 . S
C173 C177 1.389 . S
C173 H200 0.930 . S
C174 C172 1.352 . S
C174 C176 1.374 . S
C174 H201 0.931 . S
C175 C176 1.359 . S
C175 C177 1.364 . S
C176 C174 1.374 . S
C176 C175 1.359 . S
C176 H202 0.931 . S
C177 C173 1.389 . S
C177 C175 1.364 . S
C177 H203 0.931 . S
C178 O192 1.256 . S
C178 O193 1.257 . S
C179 O194 1.240 . S
C179 O195 1.240 . S
C180 Gd169 2.818 . S
C180 C181 1.510 . S
C180 O196 1.249 . S
C180 O197 1.252 . S
C181 C180 1.510 . S
C181 C182 1.404 . S
C181 C183 1.352 . S
C182 C181 1.404 . S
C182 C186 1.389 . S
C182 H204 0.930 . S
C183 C181 1.352 . S
C183 C185 1.374 . S
C183 H205 0.931 . S
C184 C185 1.359 . S
C184 C186 1.364 . S
C185 C183 1.374 . S
C185 C184 1.359 . S
C185 H206 0.931 . S
C186 C182 1.389 . S
C186 C184 1.364 . S
C186 H207 0.931 . S
C187 O198 1.256 . S
C187 O199 1.257 . S
O188 Gd168 2.377 . S
O188 C170 1.240 . S
O189 Gd169 2.395 . S
O189 C170 1.240 . S
O190 Gd168 2.448 . S
O190 C171 1.249 . S
O191 Gd168 2.506 . S
O191 C171 1.252 . S
O192 Gd168 2.435 . S
O192 C178 1.256 . S
O193 Gd168 2.717 . S
O193 Gd169 2.327 . S
O193 C178 1.257 . S
O194 Gd169 2.377 . S
O194 C179 1.240 . S
O195 Gd168 2.395 . S
O195 C179 1.240 . S
O196 Gd169 2.448 . S
O196 C180 1.249 . S
O197 Gd169 2.506 . S
O197 C180 1.252 . S
O198 Gd169 2.435 . S
O198 C187 1.256 . S
O199 Gd168 2.327 . S
O199 Gd169 2.717 . S
O199 C187 1.257 . S
H200 C173 0.930 . S
H201 C174 0.931 . S
H202 C176 0.931 . S
H203 C177 0.931 . S
H204 C182 0.930 . S
H205 C183 0.931 . S
H206 C185 0.931 . S
H207 C186 0.931 . S
Gd208 C211 2.818 . S
Gd208 O228 2.377 . S
Gd208 O230 2.448 . S
Gd208 O231 2.506 . S
Gd208 O232 2.435 . S
Gd208 O233 2.717 . S
Gd208 O235 2.395 1_455 S
Gd208 O239 2.327 1_554 S
Gd209 C220 2.818 1_455 S
Gd209 O229 2.395 1_556 S
Gd209 O233 2.327 1_556 S
Gd209 O234 2.377 1_455 S
Gd209 O236 2.448 . S
Gd209 O237 2.506 1_455 S
Gd209 O238 2.435 . S
Gd209 O239 2.717 . S
C210 O228 1.240 . S
C210 O229 1.240 . S
C211 Gd208 2.818 . S
C211 C212 1.510 . S
C211 O230 1.249 . S
C211 O231 1.252 . S
C212 C211 1.510 . S
C212 C213 1.404 . S
C212 C214 1.352 . S
C213 C212 1.404 . S
C213 C217 1.389 . S
C213 H240 0.930 . S
C214 C212 1.352 . S
C214 C216 1.374 . S
C214 H241 0.931 . S
C215 C216 1.359 . S
C215 C217 1.364 . S
C216 C214 1.374 . S
C216 C215 1.359 . S
C216 H242 0.931 . S
C217 C213 1.389 . S
C217 C215 1.364 . S
C217 H243 0.931 . S
C218 O232 1.256 . S
C218 O233 1.257 . S
C219 O234 1.240 . S
C219 O235 1.240 1_556 S
C220 Gd209 2.818 1_655 S
C220 C221 1.510 . S
C220 O236 1.249 1_655 S
C220 O237 1.252 . S
C221 C220 1.510 . S
C221 C222 1.404 . S
C221 C223 1.352 . S
C222 C221 1.404 . S
C222 C226 1.389 . S
C222 H244 0.930 . S
C223 C221 1.352 . S
C223 C225 1.374 . S
C223 H245 0.931 . S
C224 C225 1.359 . S
C224 C226 1.364 . S
C225 C223 1.374 . S
C225 C224 1.359 . S
C225 H246 0.931 . S
C226 C222 1.389 . S
C226 C224 1.364 . S
C226 H247 0.931 . S
C227 O238 1.256 . S
C227 O239 1.257 . S
O228 Gd208 2.377 . S
O228 C210 1.240 . S
O229 Gd209 2.395 1_554 S
O229 C210 1.240 . S
O230 Gd208 2.448 . S
O230 C211 1.249 . S
O231 Gd208 2.506 . S
O231 C211 1.252 . S
O232 Gd208 2.435 . S
O232 C218 1.256 . S
O233 Gd208 2.717 . S
O233 Gd209 2.327 1_554 S
O233 C218 1.257 . S
O234 Gd209 2.377 1_655 S
O234 C219 1.240 . S
O235 Gd208 2.395 1_655 S
O235 C219 1.240 1_554 S
O236 Gd209 2.448 . S
O236 C220 1.249 1_455 S
O237 Gd209 2.506 1_655 S
O237 C220 1.252 . S
O238 Gd209 2.435 . S
O238 C227 1.256 . S
O239 Gd208 2.327 1_556 S
O239 Gd209 2.717 . S
O239 C227 1.257 . S
H240 C213 0.930 . S
H241 C214 0.931 . S
H242 C216 0.931 . S
H243 C217 0.931 . S
H244 C222 0.930 . S
H245 C223 0.931 . S
H246 C225 0.931 . S
H247 C226 0.931 . S
H248 C266 0.951 . S
H249 C268 0.951 . S
H250 C270 0.950 . S
H251 C271 0.950 . S
H252 C273 0.950 . S
H253 C276 0.950 . S
H254 C277 0.950 . S
H255 C279 0.950 . S
H256 C280 0.950 . S
H257 C281 0.951 . S
H258 C283 0.951 . S
H259 C285 0.950 . S
H260 C286 0.950 . S
H261 C288 0.950 . S
H262 C291 0.950 . S
H263 C292 0.950 . S
H264 C294 0.950 . S
H265 C295 0.950 . S
C266 H248 0.951 . S
C266 C267 1.366 . S
C266 C268 1.388 . S
C267 C266 1.366 . S
C267 C271 1.385 . S
C268 H249 0.951 . S
C268 C266 1.388 . S
C268 C269 1.366 . S
C269 C268 1.366 . S
C269 C270 1.414 . S
C269 C272 1.499 . S
C270 H250 0.950 . S
C270 C269 1.414 . S
C270 C271 1.374 . S
C271 H251 0.950 . S
C271 C267 1.385 . S
C271 C270 1.374 . S
C272 C269 1.499 . S
C272 C273 1.373 . S
C272 C274 1.389 . S
C273 H252 0.950 . S
C273 C272 1.373 . S
C273 C289 1.377 . S
C274 C272 1.389 . S
C274 C275 1.524 . S
C274 C288 1.377 . S
C275 C274 1.524 . S
C275 C276 1.397 . S
C275 C280 1.363 . S
C276 H253 0.950 . S
C276 C275 1.397 . S
C276 C277 1.334 . S
C277 H254 0.950 . S
C277 C276 1.334 . S
C277 C278 1.287 . S
C278 C277 1.287 . S
C278 C279 1.524 . S
C278 H297 0.913 . S
C279 H255 0.950 . S
C279 C278 1.524 . S
C279 C280 1.415 . S
C280 H256 0.950 . S
C280 C275 1.363 . S
C280 C279 1.415 . S
C281 H257 0.951 . S
C281 C282 1.366 . S
C281 C283 1.388 . S
C282 C281 1.366 . S
C282 C286 1.385 . S
C283 H258 0.951 . S
C283 C281 1.388 . S
C283 C284 1.366 . S
C284 C283 1.366 . S
C284 C285 1.414 . S
C284 C287 1.499 . S
C285 H259 0.950 . S
C285 C284 1.414 . S
C285 C286 1.374 . S
C286 H260 0.950 . S
C286 C282 1.385 . S
C286 C285 1.374 . S
C287 C284 1.499 . S
C287 C288 1.373 . S
C287 C289 1.389 . S
C288 H261 0.950 . S
C288 C274 1.377 . S
C288 C287 1.373 . S
C289 C273 1.377 . S
C289 C287 1.389 . S
C289 C290 1.524 . S
C290 C289 1.524 . S
C290 C291 1.397 . S
C290 C295 1.363 . S
C291 H262 0.950 . S
C291 C290 1.397 . S
C291 C292 1.334 . S
C292 H263 0.950 . S
C292 C291 1.334 . S
C292 C293 1.287 . S
C293 C292 1.287 . S
C293 C294 1.524 . S
C293 H296 0.999 . S
C294 H264 0.950 . S
C294 C293 1.524 . S
C294 C295 1.415 . S
C295 H265 0.950 . S
C295 C290 1.363 . S
C295 C294 1.415 . S
H296 C293 0.999 . S
H297 C278 0.913 . S
H298 C316 0.951 . S
H299 C318 0.951 . S
H300 C320 0.950 . S
H301 C321 0.950 . S
H302 C323 0.950 . S
H303 C326 0.950 . S
H304 C327 0.950 . S
H305 C329 0.950 . S
H306 C330 0.950 . S
H307 C331 0.951 . S
H308 C333 0.951 . S
H309 C335 0.950 . S
H310 C336 0.950 . S
H311 C338 0.950 . S
H312 C341 0.950 . S
H313 C342 0.950 . S
H314 C344 0.950 . S
H315 C345 0.950 . S
C316 H298 0.951 . S
C316 C317 1.366 . S
C316 C318 1.388 . S
C317 C316 1.366 . S
C317 C321 1.385 . S
C318 H299 0.951 . S
C318 C316 1.388 . S
C318 C319 1.366 . S
C319 C318 1.366 . S
C319 C320 1.414 . S
C319 C322 1.499 . S
C320 H300 0.950 . S
C320 C319 1.414 . S
C320 C321 1.374 . S
C321 H301 0.950 . S
C321 C317 1.385 . S
C321 C320 1.374 . S
C322 C319 1.499 . S
C322 C323 1.373 . S
C322 C324 1.389 . S
C323 H302 0.950 . S
C323 C322 1.373 . S
C323 C339 1.377 . S
C324 C322 1.389 . S
C324 C325 1.524 . S
C324 C338 1.377 . S
C325 C324 1.524 . S
C325 C326 1.397 . S
C325 C330 1.363 . S
C326 H303 0.950 . S
C326 C325 1.397 . S
C326 C327 1.334 . S
C327 H304 0.950 . S
C327 C326 1.334 . S
C327 C328 1.287 . S
C328 C327 1.287 . S
C328 C329 1.524 . S
C328 H347 0.913 . S
C329 H305 0.950 . S
C329 C328 1.524 . S
C329 C330 1.415 . S
C330 H306 0.950 . S
C330 C325 1.363 . S
C330 C329 1.415 . S
C331 H307 0.951 . S
C331 C332 1.366 . S
C331 C333 1.388 . S
C332 C331 1.366 . S
C332 C336 1.385 . S
C333 H308 0.951 . S
C333 C331 1.388 . S
C333 C334 1.366 . S
C334 C333 1.366 . S
C334 C335 1.414 . S
C334 C337 1.499 . S
C335 H309 0.950 . S
C335 C334 1.414 . S
C335 C336 1.374 . S
C336 H310 0.950 . S
C336 C332 1.385 . S
C336 C335 1.374 . S
C337 C334 1.499 . S
C337 C338 1.373 . S
C337 C339 1.389 . S
C338 H311 0.950 . S
C338 C324 1.377 . S
C338 C337 1.373 . S
C339 C323 1.377 . S
C339 C337 1.389 . S
C339 C340 1.524 . S
C340 C339 1.524 . S
C340 C341 1.397 . S
C340 C345 1.363 . S
C341 H312 0.950 . S
C341 C340 1.397 . S
C341 C342 1.334 . S
C342 H313 0.950 . S
C342 C341 1.334 . S
C342 C343 1.287 . S
C343 C342 1.287 . S
C343 C344 1.524 . S
C343 H346 0.999 . S
C344 H314 0.950 . S
C344 C343 1.524 . S
C344 C345 1.415 . S
C345 H315 0.950 . S
C345 C340 1.363 . S
C345 C344 1.415 . S
H346 C343 0.999 . S
H347 C328 0.913 . S
H348 C366 0.951 . S
H349 C368 0.951 . S
H350 C370 0.950 . S
H351 C371 0.950 . S
H352 C373 0.950 . S
H353 C376 0.950 . S
H354 C377 0.950 . S
H355 C379 0.950 . S
H356 C380 0.950 . S
H357 C381 0.951 . S
H358 C383 0.951 . S
H359 C385 0.950 . S
H360 C386 0.950 . S
H361 C388 0.950 . S
H362 C391 0.950 . S
H363 C392 0.950 . S
H364 C394 0.950 . S
H365 C395 0.950 . S
C366 H348 0.951 . S
C366 C367 1.366 . S
C366 C368 1.388 . S
C367 C366 1.366 . S
C367 C371 1.385 . S
C368 H349 0.951 . S
C368 C366 1.388 . S
C368 C369 1.366 . S
C369 C368 1.366 . S
C369 C370 1.414 . S
C369 C372 1.499 . S
C370 H350 0.950 . S
C370 C369 1.414 . S
C370 C371 1.374 . S
C371 H351 0.950 . S
C371 C367 1.385 . S
C371 C370 1.374 . S
C372 C369 1.499 . S
C372 C373 1.373 . S
C372 C374 1.389 . S
C373 H352 0.950 . S
C373 C372 1.373 . S
C373 C389 1.377 . S
C374 C372 1.389 . S
C374 C375 1.524 . S
C374 C388 1.377 . S
C375 C374 1.524 . S
C375 C376 1.397 . S
C375 C380 1.363 . S
C376 H353 0.950 . S
C376 C375 1.397 . S
C376 C377 1.334 . S
C377 H354 0.950 . S
C377 C376 1.334 . S
C377 C378 1.287 . S
C378 C377 1.287 . S
C378 C379 1.524 . S
C378 H397 0.913 . S
C379 H355 0.950 . S
C379 C378 1.524 . S
C379 C380 1.415 . S
C380 H356 0.950 . S
C380 C375 1.363 . S
C380 C379 1.415 . S
C381 H357 0.951 . S
C381 C382 1.366 . S
C381 C383 1.388 . S
C382 C381 1.366 . S
C382 C386 1.385 . S
C383 H358 0.951 . S
C383 C381 1.388 . S
C383 C384 1.366 . S
C384 C383 1.366 . S
C384 C385 1.414 . S
C384 C387 1.499 . S
C385 H359 0.950 . S
C385 C384 1.414 . S
C385 C386 1.374 . S
C386 H360 0.950 . S
C386 C382 1.385 . S
C386 C385 1.374 . S
C387 C384 1.499 . S
C387 C388 1.373 . S
C387 C389 1.389 . S
C388 H361 0.950 . S
C388 C374 1.377 . S
C388 C387 1.373 . S
C389 C373 1.377 . S
C389 C387 1.389 . S
C389 C390 1.524 . S
C390 C389 1.524 . S
C390 C391 1.397 . S
C390 C395 1.363 . S
C391 H362 0.950 . S
C391 C390 1.397 . S
C391 C392 1.334 . S
C392 H363 0.950 . S
C392 C391 1.334 . S
C392 C393 1.287 . S
C393 C392 1.287 . S
C393 C394 1.524 . S
C393 H396 0.999 . S
C394 H364 0.950 . S
C394 C393 1.524 . S
C394 C395 1.415 . S
C395 H365 0.950 . S
C395 C390 1.363 . S
C395 C394 1.415 . S
H396 C393 0.999 . S
H397 C378 0.913 . S
H398 C416 0.951 . S
H399 C418 0.951 . S
H400 C420 0.950 . S
H401 C421 0.950 . S
H402 C423 0.950 . S
H403 C426 0.950 . S
H404 C427 0.950 . S
H405 C429 0.950 . S
H406 C430 0.950 . S
H407 C431 0.951 . S
H408 C433 0.951 . S
H409 C435 0.950 . S
H410 C436 0.950 1_455 S
H411 C438 0.950 . S
H412 C441 0.950 . S
H413 C442 0.950 . S
H414 C444 0.950 . S
H415 C445 0.950 . S
C416 H398 0.951 . S
C416 C417 1.366 . S
C416 C418 1.388 . S
C417 C416 1.366 . S
C417 C421 1.385 . S
C418 H399 0.951 . S
C418 C416 1.388 . S
C418 C419 1.366 . S
C419 C418 1.366 . S
C419 C420 1.414 . S
C419 C422 1.499 . S
C420 H400 0.950 . S
C420 C419 1.414 . S
C420 C421 1.374 . S
C421 H401 0.950 . S
C421 C417 1.385 . S
C421 C420 1.374 . S
C422 C419 1.499 . S
C422 C423 1.373 . S
C422 C424 1.389 . S
C423 H402 0.950 . S
C423 C422 1.373 . S
C423 C439 1.377 . S
C424 C422 1.389 . S
C424 C425 1.524 . S
C424 C438 1.377 . S
C425 C424 1.524 . S
C425 C426 1.397 . S
C425 C430 1.363 . S
C426 H403 0.950 . S
C426 C425 1.397 . S
C426 C427 1.334 . S
C427 H404 0.950 . S
C427 C426 1.334 . S
C427 C428 1.287 . S
C428 C427 1.287 . S
C428 C429 1.524 . S
C428 H447 0.913 . S
C429 H405 0.950 . S
C429 C428 1.524 . S
C429 C430 1.415 . S
C430 H406 0.950 . S
C430 C425 1.363 . S
C430 C429 1.415 . S
C431 H407 0.951 . S
C431 C432 1.366 . S
C431 C433 1.388 . S
C432 C431 1.366 . S
C432 C436 1.385 . S
C433 H408 0.951 . S
C433 C431 1.388 . S
C433 C434 1.366 . S
C434 C433 1.366 . S
C434 C435 1.414 . S
C434 C437 1.499 . S
C435 H409 0.950 . S
C435 C434 1.414 . S
C435 C436 1.374 . S
C436 H410 0.950 1_655 S
C436 C432 1.385 . S
C436 C435 1.374 . S
C437 C434 1.499 . S
C437 C438 1.373 . S
C437 C439 1.389 . S
C438 H411 0.950 . S
C438 C424 1.377 . S
C438 C437 1.373 . S
C439 C423 1.377 . S
C439 C437 1.389 . S
C439 C440 1.524 . S
C440 C439 1.524 . S
C440 C441 1.397 . S
C440 C445 1.363 . S
C441 H412 0.950 . S
C441 C440 1.397 . S
C441 C442 1.334 . S
C442 H413 0.950 . S
C442 C441 1.334 . S
C442 C443 1.287 . S
C443 C442 1.287 . S
C443 C444 1.524 . S
C443 H446 0.999 . S
C444 H414 0.950 . S
C444 C443 1.524 . S
C444 C445 1.415 . S
C445 H415 0.950 . S
C445 C440 1.363 . S
C445 C444 1.415 . S
H446 C443 0.999 . S
H447 C428 0.913 . S
H448 C466 0.951 . S
H449 C468 0.951 . S
H450 C470 0.950 . S
H451 C471 0.950 . S
H452 C473 0.950 . S
H453 C476 0.950 . S
H454 C477 0.950 . S
H455 C479 0.950 . S
H456 C480 0.950 . S
H457 C481 0.951 . S
H458 C483 0.951 . S
H459 C485 0.950 . S
H460 C486 0.950 . S
H461 C488 0.950 . S
H462 C491 0.950 . S
H463 C492 0.950 . S
H464 C494 0.950 . S
H465 C495 0.950 . S
C466 H448 0.951 . S
C466 C467 1.366 . S
C466 C468 1.388 . S
C467 C466 1.366 . S
C467 C471 1.385 . S
C468 H449 0.951 . S
C468 C466 1.388 . S
C468 C469 1.366 . S
C469 C468 1.366 . S
C469 C470 1.414 . S
C469 C472 1.499 . S
C470 H450 0.950 . S
C470 C469 1.414 . S
C470 C471 1.374 . S
C471 H451 0.950 . S
C471 C467 1.385 . S
C471 C470 1.374 . S
C472 C469 1.499 . S
C472 C473 1.373 . S
C472 C474 1.389 . S
C473 H452 0.950 . S
C473 C472 1.373 . S
C473 C489 1.377 . S
C474 C472 1.389 . S
C474 C475 1.524 . S
C474 C488 1.377 . S
C475 C474 1.524 . S
C475 C476 1.397 . S
C475 C480 1.363 . S
C476 H453 0.950 . S
C476 C475 1.397 . S
C476 C477 1.334 . S
C477 H454 0.950 . S
C477 C476 1.334 . S
C477 C478 1.287 . S
C478 C477 1.287 . S
C478 C479 1.524 . S
C478 H497 0.913 . S
C479 H455 0.950 . S
C479 C478 1.524 . S
C479 C480 1.415 . S
C480 H456 0.950 . S
C480 C475 1.363 . S
C480 C479 1.415 . S
C481 H457 0.951 . S
C481 C482 1.366 . S
C481 C483 1.388 . S
C482 C481 1.366 . S
C482 C486 1.385 . S
C483 H458 0.951 . S
C483 C481 1.388 . S
C483 C484 1.366 . S
C484 C483 1.366 . S
C484 C485 1.414 . S
C484 C487 1.499 . S
C485 H459 0.950 . S
C485 C484 1.414 . S
C485 C486 1.374 . S
C486 H460 0.950 . S
C486 C482 1.385 . S
C486 C485 1.374 . S
C487 C484 1.499 . S
C487 C488 1.373 . S
C487 C489 1.389 . S
C488 H461 0.950 . S
C488 C474 1.377 . S
C488 C487 1.373 . S
C489 C473 1.377 . S
C489 C487 1.389 . S
C489 C490 1.524 . S
C490 C489 1.524 . S
C490 C491 1.397 . S
C490 C495 1.363 . S
C491 H462 0.950 . S
C491 C490 1.397 . S
C491 C492 1.334 . S
C492 H463 0.950 . S
C492 C491 1.334 . S
C492 C493 1.287 . S
C493 C492 1.287 . S
C493 C494 1.524 . S
C493 H496 0.999 . S
C494 H464 0.950 . S
C494 C493 1.524 . S
C494 C495 1.415 . S
C495 H465 0.950 . S
C495 C490 1.363 . S
C495 C494 1.415 . S
H496 C493 0.999 . S
H497 C478 0.913 . S
H498 C516 0.951 . S
H499 C518 0.951 . S
H500 C520 0.950 . S
H501 C521 0.950 . S
H502 C523 0.950 . S
H503 C526 0.950 . S
H504 C527 0.950 . S
H505 C529 0.950 . S
H506 C530 0.950 1_545 S
H507 C531 0.951 . S
H508 C533 0.951 . S
H509 C535 0.951 . S
H510 C536 0.950 . S
H511 C538 0.950 . S
H512 C541 0.950 . S
H513 C542 0.950 . S
H514 C544 0.950 . S
H515 C545 0.950 . S
C516 H498 0.951 . S
C516 C517 1.366 . S
C516 C518 1.388 . S
C517 C516 1.366 . S
C517 C521 1.385 . S
C518 H499 0.951 . S
C518 C516 1.388 . S
C518 C519 1.366 . S
C519 C518 1.366 . S
C519 C520 1.414 . S
C519 C522 1.499 . S
C520 H500 0.950 . S
C520 C519 1.414 . S
C520 C521 1.374 . S
C521 H501 0.950 . S
C521 C517 1.385 . S
C521 C520 1.374 . S
C522 C519 1.499 . S
C522 C523 1.373 . S
C522 C524 1.389 . S
C523 H502 0.950 . S
C523 C522 1.373 . S
C523 C539 1.377 . S
C524 C522 1.389 . S
C524 C525 1.524 . S
C524 C538 1.377 . S
C525 C524 1.524 . S
C525 C526 1.397 . S
C525 C530 1.363 . S
C526 H503 0.950 . S
C526 C525 1.397 . S
C526 C527 1.334 . S
C527 H504 0.950 . S
C527 C526 1.334 . S
C527 C528 1.287 . S
C528 C527 1.287 . S
C528 C529 1.524 1_565 S
C528 H547 0.913 . S
C529 H505 0.950 . S
C529 C528 1.524 1_545 S
C529 C530 1.415 1_545 S
C530 H506 0.950 1_565 S
C530 C525 1.363 . S
C530 C529 1.415 1_565 S
C531 H507 0.951 . S
C531 C532 1.366 1_565 S
C531 C533 1.388 . S
C532 C531 1.366 1_545 S
C532 C536 1.385 . S
C533 H508 0.951 . S
C533 C531 1.388 . S
C533 C534 1.366 . S
C534 C533 1.366 . S
C534 C535 1.413 1_565 S
C534 C537 1.499 . S
C535 H509 0.951 . S
C535 C534 1.413 1_545 S
C535 C536 1.374 . S
C536 H510 0.950 . S
C536 C532 1.385 . S
C536 C535 1.374 . S
C537 C534 1.499 . S
C537 C538 1.373 . S
C537 C539 1.389 . S
C538 H511 0.950 . S
C538 C524 1.377 . S
C538 C537 1.373 . S
C539 C523 1.377 . S
C539 C537 1.389 . S
C539 C540 1.524 . S
C540 C539 1.524 . S
C540 C541 1.397 . S
C540 C545 1.363 . S
C541 H512 0.950 . S
C541 C540 1.397 . S
C541 C542 1.334 . S
C542 H513 0.950 . S
C542 C541 1.334 . S
C542 C543 1.287 . S
C543 C542 1.287 . S
C543 C544 1.524 . S
C543 H546 0.999 . S
C544 H514 0.950 . S
C544 C543 1.524 . S
C544 C545 1.415 . S
C545 H515 0.950 . S
C545 C540 1.363 . S
C545 C544 1.415 . S
H546 C543 0.999 . S
H547 C528 0.913 . S
H548 C566 0.951 . S
H549 C568 0.951 . S
H550 C570 0.950 . S
H551 C571 0.950 . S
H552 C573 0.950 . S
H553 C576 0.950 . S
H554 C577 0.950 . S
H555 C579 0.950 . S
H556 C580 0.950 . S
H557 C581 0.951 . S
H558 C583 0.951 . S
H559 C585 0.950 . S
H560 C586 0.950 . S
H561 C588 0.950 . S
H562 C591 0.950 . S
H563 C592 0.950 . S
H564 C594 0.950 . S
H565 C595 0.950 . S
C566 H548 0.951 . S
C566 C567 1.366 . S
C566 C568 1.388 . S
C567 C566 1.366 . S
C567 C571 1.385 . S
C568 H549 0.951 . S
C568 C566 1.388 . S
C568 C569 1.366 . S
C569 C568 1.366 . S
C569 C570 1.414 . S
C569 C572 1.499 . S
C570 H550 0.950 . S
C570 C569 1.414 . S
C570 C571 1.374 . S
C571 H551 0.950 . S
C571 C567 1.385 . S
C571 C570 1.374 . S
C572 C569 1.499 . S
C572 C573 1.373 . S
C572 C574 1.389 . S
C573 H552 0.950 . S
C573 C572 1.373 . S
C573 C589 1.377 . S
C574 C572 1.389 . S
C574 C575 1.524 . S
C574 C588 1.377 . S
C575 C574 1.524 . S
C575 C576 1.397 . S
C575 C580 1.363 . S
C576 H553 0.950 . S
C576 C575 1.397 . S
C576 C577 1.334 . S
C577 H554 0.950 . S
C577 C576 1.334 . S
C577 C578 1.287 . S
C578 C577 1.287 . S
C578 C579 1.524 . S
C578 H597 0.913 . S
C579 H555 0.950 . S
C579 C578 1.524 . S
C579 C580 1.415 . S
C580 H556 0.950 . S
C580 C575 1.363 . S
C580 C579 1.415 . S
C581 H557 0.951 . S
C581 C582 1.366 . S
C581 C583 1.388 . S
C582 C581 1.366 . S
C582 C586 1.385 . S
C583 H558 0.951 . S
C583 C581 1.388 . S
C583 C584 1.366 . S
C584 C583 1.366 . S
C584 C585 1.414 . S
C584 C587 1.499 . S
C585 H559 0.950 . S
C585 C584 1.414 . S
C585 C586 1.374 . S
C586 H560 0.950 . S
C586 C582 1.385 . S
C586 C585 1.374 . S
C587 C584 1.499 . S
C587 C588 1.373 . S
C587 C589 1.389 . S
C588 H561 0.950 . S
C588 C574 1.377 . S
C588 C587 1.373 . S
C589 C573 1.377 . S
C589 C587 1.389 . S
C589 C590 1.524 . S
C590 C589 1.524 . S
C590 C591 1.397 1_556 S
C590 C595 1.363 . S
C591 H562 0.950 . S
C591 C590 1.397 1_554 S
C591 C592 1.334 . S
C592 H563 0.950 . S
C592 C591 1.334 . S
C592 C593 1.287 . S
C593 C592 1.287 . S
C593 C594 1.524 . S
C593 H596 0.999 . S
C594 H564 0.950 . S
C594 C593 1.524 . S
C594 C595 1.415 1_554 S
C595 H565 0.950 . S
C595 C590 1.363 . S
C595 C594 1.415 1_556 S
H596 C593 0.999 . S
H597 C578 0.913 . S
H598 C616 0.951 . S
H599 C618 0.951 . S
H600 C620 0.950 . S
H601 C621 0.950 . S
H602 C623 0.950 . S
H603 C626 0.950 . S
H604 C627 0.950 . S
H605 C629 0.950 . S
H606 C630 0.950 . S
H607 C631 0.951 . S
H608 C633 0.951 . S
H609 C635 0.950 . S
H610 C636 0.950 . S
H611 C638 0.950 . S
H612 C641 0.950 . S
H613 C642 0.950 . S
H614 C644 0.950 . S
H615 C645 0.950 . S
C616 H598 0.951 . S
C616 C617 1.366 . S
C616 C618 1.388 . S
C617 C616 1.366 . S
C617 C621 1.385 . S
C618 H599 0.951 . S
C618 C616 1.388 . S
C618 C619 1.366 . S
C619 C618 1.366 . S
C619 C620 1.414 . S
C619 C622 1.499 . S
C620 H600 0.950 . S
C620 C619 1.414 . S
C620 C621 1.374 . S
C621 H601 0.950 . S
C621 C617 1.385 . S
C621 C620 1.374 . S
C622 C619 1.499 . S
C622 C623 1.373 . S
C622 C624 1.389 . S
C623 H602 0.950 . S
C623 C622 1.373 . S
C623 C639 1.377 . S
C624 C622 1.389 . S
C624 C625 1.524 . S
C624 C638 1.377 . S
C625 C624 1.524 . S
C625 C626 1.397 . S
C625 C630 1.363 . S
C626 H603 0.950 . S
C626 C625 1.397 . S
C626 C627 1.334 . S
C627 H604 0.950 . S
C627 C626 1.334 . S
C627 C628 1.287 . S
C628 C627 1.287 . S
C628 C629 1.524 . S
C628 H647 0.913 . S
C629 H605 0.950 . S
C629 C628 1.524 . S
C629 C630 1.415 . S
C630 H606 0.950 . S
C630 C625 1.363 . S
C630 C629 1.415 . S
C631 H607 0.951 . S
C631 C632 1.366 . S
C631 C633 1.388 . S
C632 C631 1.366 . S
C632 C636 1.385 . S
C633 H608 0.951 . S
C633 C631 1.388 . S
C633 C634 1.366 . S
C634 C633 1.366 . S
C634 C635 1.414 . S
C634 C637 1.499 . S
C635 H609 0.950 . S
C635 C634 1.414 . S
C635 C636 1.374 . S
C636 H610 0.950 . S
C636 C632 1.385 . S
C636 C635 1.374 . S
C637 C634 1.499 . S
C637 C638 1.373 . S
C637 C639 1.389 . S
C638 H611 0.950 . S
C638 C624 1.377 . S
C638 C637 1.373 . S
C639 C623 1.377 . S
C639 C637 1.389 . S
C639 C640 1.524 . S
C640 C639 1.524 . S
C640 C641 1.397 . S
C640 C645 1.363 . S
C641 H612 0.950 . S
C641 C640 1.397 . S
C641 C642 1.334 . S
C642 H613 0.950 . S
C642 C641 1.334 . S
C642 C643 1.287 . S
C643 C642 1.287 . S
C643 C644 1.524 . S
C643 H646 0.999 . S
C644 H614 0.950 . S
C644 C643 1.524 . S
C644 C645 1.415 . S
C645 H615 0.950 . S
C645 C640 1.363 . S
C645 C644 1.415 . S
H646 C643 0.999 . S
H647 C628 0.913 . S
H648 C666 0.951 . S
H649 C668 0.951 . S
H650 C670 0.950 . S
H651 C671 0.950 . S
H652 C673 0.950 . S
H653 C676 0.950 . S
H654 C677 0.950 . S
H655 C679 0.950 . S
H656 C680 0.950 . S
H657 C681 0.951 . S
H658 C683 0.951 . S
H659 C685 0.950 . S
H660 C686 0.950 . S
H661 C688 0.950 . S
H662 C691 0.950 . S
H663 C692 0.950 . S
H664 C694 0.950 . S
H665 C695 0.950 . S
C666 H648 0.951 . S
C666 C667 1.366 . S
C666 C668 1.388 . S
C667 C666 1.366 . S
C667 C671 1.385 . S
C668 H649 0.951 . S
C668 C666 1.388 . S
C668 C669 1.366 . S
C669 C668 1.366 . S
C669 C670 1.414 . S
C669 C672 1.499 . S
C670 H650 0.950 . S
C670 C669 1.414 . S
C670 C671 1.374 . S
C671 H651 0.950 . S
C671 C667 1.385 . S
C671 C670 1.374 . S
C672 C669 1.499 . S
C672 C673 1.373 . S
C672 C674 1.389 . S
C673 H652 0.950 . S
C673 C672 1.373 . S
C673 C689 1.377 . S
C674 C672 1.389 . S
C674 C675 1.524 . S
C674 C688 1.377 . S
C675 C674 1.524 . S
C675 C676 1.397 . S
C675 C680 1.363 . S
C676 H653 0.950 . S
C676 C675 1.397 . S
C676 C677 1.334 . S
C677 H654 0.950 . S
C677 C676 1.334 . S
C677 C678 1.287 . S
C678 C677 1.287 . S
C678 C679 1.524 . S
C678 H697 0.913 . S
C679 H655 0.950 . S
C679 C678 1.524 . S
C679 C680 1.415 . S
C680 H656 0.950 . S
C680 C675 1.363 . S
C680 C679 1.415 . S
C681 H657 0.951 . S
C681 C682 1.366 . S
C681 C683 1.388 . S
C682 C681 1.366 . S
C682 C686 1.385 . S
C683 H658 0.951 . S
C683 C681 1.388 . S
C683 C684 1.366 . S
C684 C683 1.366 . S
C684 C685 1.414 . S
C684 C687 1.499 . S
C685 H659 0.950 . S
C685 C684 1.414 . S
C685 C686 1.374 . S
C686 H660 0.950 . S
C686 C682 1.385 . S
C686 C685 1.374 . S
C687 C684 1.499 . S
C687 C688 1.373 . S
C687 C689 1.389 . S
C688 H661 0.950 . S
C688 C674 1.377 . S
C688 C687 1.373 . S
C689 C673 1.377 . S
C689 C687 1.389 . S
C689 C690 1.524 . S
C690 C689 1.524 . S
C690 C691 1.397 . S
C690 C695 1.363 . S
C691 H662 0.950 . S
C691 C690 1.397 . S
C691 C692 1.334 . S
C692 H663 0.950 . S
C692 C691 1.334 . S
C692 C693 1.287 . S
C693 C692 1.287 . S
C693 C694 1.524 . S
C693 H696 0.999 . S
C694 H664 0.950 . S
C694 C693 1.524 . S
C694 C695 1.415 . S
C695 H665 0.950 . S
C695 C690 1.363 . S
C695 C694 1.415 . S
H696 C693 0.999 . S
H697 C678 0.913 . S
H698 C716 0.951 . S
H699 C718 0.951 . S
H700 C720 0.950 . S
H701 C721 0.950 . S
H702 C723 0.950 . S
H703 C726 0.950 . S
H704 C727 0.950 . S
H705 C729 0.950 . S
H706 C730 0.950 . S
H707 C731 0.951 . S
H708 C733 0.951 . S
H709 C735 0.950 . S
H710 C736 0.950 . S
H711 C738 0.950 . S
H712 C741 0.950 . S
H713 C742 0.951 . S
H714 C744 0.950 . S
H715 C745 0.950 . S
C716 H698 0.951 . S
C716 C717 1.366 . S
C716 C718 1.388 . S
C717 C716 1.366 . S
C717 C721 1.385 . S
C718 H699 0.951 . S
C718 C716 1.388 . S
C718 C719 1.366 . S
C719 C718 1.366 . S
C719 C720 1.414 . S
C719 C722 1.499 . S
C720 H700 0.950 . S
C720 C719 1.414 . S
C720 C721 1.374 . S
C721 H701 0.950 . S
C721 C717 1.385 . S
C721 C720 1.374 . S
C722 C719 1.499 . S
C722 C723 1.373 . S
C722 C724 1.389 . S
C723 H702 0.950 . S
C723 C722 1.373 . S
C723 C739 1.377 . S
C724 C722 1.389 . S
C724 C725 1.524 . S
C724 C738 1.377 . S
C725 C724 1.524 . S
C725 C726 1.397 . S
C725 C730 1.363 . S
C726 H703 0.950 . S
C726 C725 1.397 . S
C726 C727 1.334 . S
C727 H704 0.950 . S
C727 C726 1.334 . S
C727 C728 1.287 . S
C728 C727 1.287 . S
C728 C729 1.524 . S
C728 H747 0.913 . S
C729 H705 0.950 . S
C729 C728 1.524 . S
C729 C730 1.415 . S
C730 H706 0.950 . S
C730 C725 1.363 . S
C730 C729 1.415 . S
C731 H707 0.951 . S
C731 C732 1.361 1_554 S
C731 C733 1.388 . S
C732 C731 1.361 1_556 S
C732 C736 1.394 . S
C733 H708 0.951 . S
C733 C731 1.388 . S
C733 C734 1.366 1_554 S
C734 C733 1.366 1_556 S
C734 C735 1.414 . S
C734 C737 1.499 . S
C735 H709 0.950 . S
C735 C734 1.414 . S
C735 C736 1.374 . S
C736 H710 0.950 . S
C736 C732 1.394 . S
C736 C735 1.374 . S
C737 C734 1.499 . S
C737 C738 1.373 . S
C737 C739 1.389 . S
C738 H711 0.950 . S
C738 C724 1.377 . S
C738 C737 1.373 . S
C739 C723 1.377 . S
C739 C737 1.389 . S
C739 C740 1.524 . S
C740 C739 1.524 . S
C740 C741 1.397 . S
C740 C745 1.363 1_556 S
C741 H712 0.950 . S
C741 C740 1.397 . S
C741 C742 1.334 1_556 S
C742 H713 0.951 . S
C742 C741 1.334 1_554 S
C742 C743 1.287 . S
C743 C742 1.287 . S
C743 C744 1.524 . S
C743 H746 0.999 . S
C744 H714 0.950 . S
C744 C743 1.524 . S
C744 C745 1.415 . S
C745 H715 0.950 . S
C745 C740 1.363 1_554 S
C745 C744 1.415 . S
H746 C743 0.999 . S
H747 C728 0.913 . S
H748 C766 0.951 . S
H749 C768 0.951 . S
H750 C770 0.950 . S
H751 C771 0.950 . S
H752 C773 0.950 . S
H753 C776 0.950 . S
H754 C777 0.950 . S
H755 C779 0.950 . S
H756 C780 0.950 . S
H757 C781 0.986 . S
H758 C783 0.951 . S
H759 C785 0.950 . S
H760 C786 0.950 . S
H761 C788 0.950 . S
H762 C791 0.950 . S
H763 C792 0.950 . S
H764 C794 0.950 . S
H765 C795 0.950 . S
C766 H748 0.951 . S
C766 C767 1.366 . S
C766 C768 1.388 . S
C767 C766 1.366 . S
C767 C771 1.385 . S
C768 H749 0.951 . S
C768 C766 1.388 . S
C768 C769 1.366 . S
C769 C768 1.366 . S
C769 C770 1.414 . S
C769 C772 1.499 . S
C770 H750 0.950 . S
C770 C769 1.414 . S
C770 C771 1.374 . S
C771 H751 0.950 . S
C771 C767 1.385 . S
C771 C770 1.374 . S
C772 C769 1.499 . S
C772 C773 1.373 . S
C772 C774 1.389 . S
C773 H752 0.950 . S
C773 C772 1.373 . S
C773 C789 1.377 . S
C774 C772 1.389 . S
C774 C775 1.524 . S
C774 C788 1.377 . S
C775 C774 1.524 . S
C775 C776 1.397 . S
C775 C780 1.363 . S
C776 H753 0.950 . S
C776 C775 1.397 . S
C776 C777 1.334 . S
C777 H754 0.950 . S
C777 C776 1.334 . S
C777 C778 1.287 . S
C778 C777 1.287 . S
C778 C779 1.524 . S
C778 H797 0.913 . S
C779 H755 0.950 . S
C779 C778 1.524 . S
C779 C780 1.415 . S
C780 H756 0.950 . S
C780 C775 1.363 . S
C780 C779 1.415 . S
C781 H757 0.986 . S
C781 C782 1.366 . S
C781 C783 1.388 . S
C782 C781 1.366 . S
C782 C786 1.385 . S
C783 H758 0.951 . S
C783 C781 1.388 . S
C783 C784 1.366 . S
C784 C783 1.366 . S
C784 C785 1.414 . S
C784 C787 1.499 . S
C785 H759 0.950 . S
C785 C784 1.414 . S
C785 C786 1.374 . S
C786 H760 0.950 . S
C786 C782 1.385 . S
C786 C785 1.374 . S
C787 C784 1.499 . S
C787 C788 1.373 . S
C787 C789 1.389 . S
C788 H761 0.950 . S
C788 C774 1.377 . S
C788 C787 1.373 . S
C789 C773 1.377 . S
C789 C787 1.389 . S
C789 C790 1.524 . S
C790 C789 1.524 . S
C790 C791 1.397 . S
C790 C795 1.363 . S
C791 H762 0.950 . S
C791 C790 1.397 . S
C791 C792 1.334 . S
C792 H763 0.950 . S
C792 C791 1.334 . S
C792 C793 1.287 1_655 S
C793 C792 1.287 1_455 S
C793 C794 1.524 . S
C793 H796 0.999 . S
C794 H764 0.950 . S
C794 C793 1.524 . S
C794 C795 1.415 1_455 S
C795 H765 0.950 . S
C795 C790 1.363 . S
C795 C794 1.415 1_655 S
H796 C793 0.999 . S
H797 C778 0.913 . S
H798 C816 0.951 . S
H799 C818 0.951 . S
H800 C820 0.950 . S
H801 C821 0.950 . S
H802 C823 0.950 . S
H803 C826 0.950 . S
H804 C827 0.950 . S
H805 C829 0.950 . S
H806 C830 0.950 . S
H807 C831 0.951 . S
H808 C833 0.951 . S
H809 C835 0.950 . S
H810 C836 0.950 . S
H811 C838 0.950 . S
H812 C841 0.950 . S
H813 C842 0.950 . S
H814 C844 0.950 . S
H815 C845 0.950 . S
C816 H798 0.951 . S
C816 C817 1.366 . S
C816 C818 1.388 . S
C817 C816 1.366 . S
C817 C821 1.385 . S
C818 H799 0.951 . S
C818 C816 1.388 . S
C818 C819 1.366 . S
C819 C818 1.366 . S
C819 C820 1.414 . S
C819 C822 1.499 . S
C820 H800 0.950 . S
C820 C819 1.414 . S
C820 C821 1.374 . S
C821 H801 0.950 . S
C821 C817 1.385 . S
C821 C820 1.374 . S
C822 C819 1.499 . S
C822 C823 1.373 . S
C822 C824 1.389 . S
C823 H802 0.950 . S
C823 C822 1.373 . S
C823 C839 1.377 . S
C824 C822 1.389 . S
C824 C825 1.524 . S
C824 C838 1.377 . S
C825 C824 1.524 . S
C825 C826 1.397 . S
C825 C830 1.363 . S
C826 H803 0.950 . S
C826 C825 1.397 . S
C826 C827 1.334 . S
C827 H804 0.950 . S
C827 C826 1.334 . S
C827 C828 1.287 . S
C828 C827 1.287 . S
C828 C829 1.524 . S
C828 H847 0.913 . S
C829 H805 0.950 . S
C829 C828 1.524 . S
C829 C830 1.415 . S
C830 H806 0.950 . S
C830 C825 1.363 . S
C830 C829 1.415 . S
C831 H807 0.951 . S
C831 C832 1.366 . S
C831 C833 1.388 . S
C832 C831 1.366 . S
C832 C836 1.385 . S
C833 H808 0.951 . S
C833 C831 1.388 . S
C833 C834 1.366 . S
C834 C833 1.366 . S
C834 C835 1.414 . S
C834 C837 1.499 . S
C835 H809 0.950 . S
C835 C834 1.414 . S
C835 C836 1.374 . S
C836 H810 0.950 . S
C836 C832 1.385 . S
C836 C835 1.374 . S
C837 C834 1.499 . S
C837 C838 1.373 . S
C837 C839 1.389 . S
C838 H811 0.950 . S
C838 C824 1.377 . S
C838 C837 1.373 . S
C839 C823 1.377 . S
C839 C837 1.389 . S
C839 C840 1.524 . S
C840 C839 1.524 . S
C840 C841 1.397 . S
C840 C845 1.363 . S
C841 H812 0.950 . S
C841 C840 1.397 . S
C841 C842 1.334 . S
C842 H813 0.950 . S
C842 C841 1.334 . S
C842 C843 1.287 . S
C843 C842 1.287 . S
C843 C844 1.524 . S
C843 H846 0.999 . S
C844 H814 0.950 . S
C844 C843 1.524 . S
C844 C845 1.415 . S
C845 H815 0.950 . S
C845 C840 1.363 . S
C845 C844 1.415 . S
H846 C843 0.999 . S
H847 C828 0.913 . S
H848 C866 0.951 . S
H849 C868 0.951 . S
H850 C870 0.950 . S
H851 C871 0.950 . S
H852 C873 0.950 . S
H853 C876 0.950 . S
H854 C877 0.950 . S
H855 C879 0.950 . S
H856 C880 0.950 . S
H857 C881 0.951 . S
H858 C883 0.951 . S
H859 C885 0.950 . S
H860 C886 0.950 . S
H861 C888 0.950 . S
H862 C891 0.950 . S
H863 C892 0.950 . S
H864 C894 0.950 . S
H865 C895 0.950 . S
C866 H848 0.951 . S
C866 C867 1.366 . S
C866 C868 1.388 . S
C867 C866 1.366 . S
C867 C871 1.385 . S
C868 H849 0.951 . S
C868 C866 1.388 . S
C868 C869 1.366 . S
C869 C868 1.366 . S
C869 C870 1.414 . S
C869 C872 1.499 . S
C870 H850 0.950 . S
C870 C869 1.414 . S
C870 C871 1.374 . S
C871 H851 0.950 . S
C871 C867 1.385 . S
C871 C870 1.374 . S
C872 C869 1.499 . S
C872 C873 1.373 . S
C872 C874 1.389 . S
C873 H852 0.950 . S
C873 C872 1.373 . S
C873 C889 1.377 . S
C874 C872 1.389 . S
C874 C875 1.524 . S
C874 C888 1.377 . S
C875 C874 1.524 . S
C875 C876 1.397 . S
C875 C880 1.363 . S
C876 H853 0.950 . S
C876 C875 1.397 . S
C876 C877 1.334 . S
C877 H854 0.950 . S
C877 C876 1.334 . S
C877 C878 1.287 . S
C878 C877 1.287 . S
C878 C879 1.524 . S
C878 H897 0.913 . S
C879 H855 0.950 . S
C879 C878 1.524 . S
C879 C880 1.415 . S
C880 H856 0.950 . S
C880 C875 1.363 . S
C880 C879 1.415 . S
C881 H857 0.951 . S
C881 C882 1.366 . S
C881 C883 1.388 . S
C882 C881 1.366 . S
C882 C886 1.385 . S
C883 H858 0.951 . S
C883 C881 1.388 . S
C883 C884 1.366 . S
C884 C883 1.366 . S
C884 C885 1.414 . S
C884 C887 1.499 . S
C885 H859 0.950 . S
C885 C884 1.414 . S
C885 C886 1.374 . S
C886 H860 0.950 . S
C886 C882 1.385 . S
C886 C885 1.374 . S
C887 C884 1.499 . S
C887 C888 1.373 . S
C887 C889 1.389 . S
C888 H861 0.950 . S
C888 C874 1.377 . S
C888 C887 1.373 . S
C889 C873 1.377 . S
C889 C887 1.389 . S
C889 C890 1.524 . S
C890 C889 1.524 . S
C890 C891 1.397 . S
C890 C895 1.363 . S
C891 H862 0.950 . S
C891 C890 1.397 . S
C891 C892 1.334 . S
C892 H863 0.950 . S
C892 C891 1.334 . S
C892 C893 1.287 . S
C893 C892 1.287 . S
C893 C894 1.524 . S
C893 H896 0.999 . S
C894 H864 0.950 . S
C894 C893 1.524 . S
C894 C895 1.415 . S
C895 H865 0.950 . S
C895 C890 1.363 . S
C895 C894 1.415 . S
H896 C893 0.999 . S
H897 C878 0.913 . S
H898 C916 0.951 . S
H899 C918 0.951 . S
H900 C920 0.950 . S
H901 C921 0.950 . S
H902 C923 0.950 . S
H903 C926 0.950 . S
H904 C927 0.950 . S
H905 C929 0.950 . S
H906 C930 0.950 . S
H907 C931 0.951 . S
H908 C933 0.951 . S
H909 C935 0.950 . S
H910 C936 0.950 . S
H911 C938 0.950 . S
H912 C941 0.950 . S
H913 C942 0.950 . S
H914 C944 0.950 . S
H915 C945 0.950 . S
C916 H898 0.951 . S
C916 C917 1.366 . S
C916 C918 1.388 . S
C917 C916 1.366 . S
C917 C921 1.385 . S
C918 H899 0.951 . S
C918 C916 1.388 . S
C918 C919 1.366 . S
C919 C918 1.366 . S
C919 C920 1.414 . S
C919 C922 1.499 . S
C920 H900 0.950 . S
C920 C919 1.414 . S
C920 C921 1.374 . S
C921 H901 0.950 . S
C921 C917 1.385 . S
C921 C920 1.374 . S
C922 C919 1.499 . S
C922 C923 1.373 . S
C922 C924 1.389 . S
C923 H902 0.950 . S
C923 C922 1.373 . S
C923 C939 1.377 . S
C924 C922 1.389 . S
C924 C925 1.524 . S
C924 C938 1.377 . S
C925 C924 1.524 . S
C925 C926 1.397 . S
C925 C930 1.363 . S
C926 H903 0.950 . S
C926 C925 1.397 . S
C926 C927 1.334 . S
C927 H904 0.950 . S
C927 C926 1.334 . S
C927 C928 1.287 . S
C928 C927 1.287 . S
C928 C929 1.524 . S
C928 H947 0.913 . S
C929 H905 0.950 . S
C929 C928 1.524 . S
C929 C930 1.415 . S
C930 H906 0.950 . S
C930 C925 1.363 . S
C930 C929 1.415 . S
C931 H907 0.951 . S
C931 C932 1.366 . S
C931 C933 1.388 . S
C932 C931 1.366 . S
C932 C936 1.385 . S
C933 H908 0.951 . S
C933 C931 1.388 . S
C933 C934 1.366 . S
C934 C933 1.366 . S
C934 C935 1.414 . S
C934 C937 1.499 . S
C935 H909 0.950 . S
C935 C934 1.414 . S
C935 C936 1.374 . S
C936 H910 0.950 . S
C936 C932 1.385 . S
C936 C935 1.374 . S
C937 C934 1.499 . S
C937 C938 1.373 . S
C937 C939 1.389 . S
C938 H911 0.950 . S
C938 C924 1.377 . S
C938 C937 1.373 . S
C939 C923 1.377 . S
C939 C937 1.389 . S
C939 C940 1.524 . S
C940 C939 1.524 . S
C940 C941 1.397 . S
C940 C945 1.363 . S
C941 H912 0.950 . S
C941 C940 1.397 . S
C941 C942 1.334 . S
C942 H913 0.950 . S
C942 C941 1.334 . S
C942 C943 1.287 . S
C943 C942 1.287 . S
C943 C944 1.524 . S
C943 H946 0.999 . S
C944 H914 0.950 . S
C944 C943 1.524 . S
C944 C945 1.415 . S
C945 H915 0.950 . S
C945 C940 1.363 . S
C945 C944 1.415 . S
H946 C943 0.999 . S
H947 C928 0.913 . S
H948 C966 0.951 . S
H949 C968 0.951 . S
H950 C970 0.950 . S
H951 C971 0.950 . S
H952 C973 0.950 . S
H953 C976 0.950 . S
H954 C977 0.950 . S
H955 C979 0.950 . S
H956 C980 0.950 . S
H957 C981 0.951 . S
H958 C983 0.951 . S
H959 C985 0.950 . S
H960 C986 0.950 . S
H961 C988 0.950 . S
H962 C991 0.950 . S
H963 C992 0.950 . S
H964 C994 0.950 . S
H965 C995 0.950 . S
C966 H948 0.951 . S
C966 C967 1.366 . S
C966 C968 1.388 . S
C967 C966 1.366 . S
C967 C971 1.385 . S
C968 H949 0.951 . S
C968 C966 1.388 . S
C968 C969 1.366 . S
C969 C968 1.366 . S
C969 C970 1.414 . S
C969 C972 1.499 . S
C970 H950 0.950 . S
C970 C969 1.414 . S
C970 C971 1.374 . S
C971 H951 0.950 . S
C971 C967 1.385 . S
C971 C970 1.374 . S
C972 C969 1.499 . S
C972 C973 1.373 . S
C972 C974 1.389 . S
C973 H952 0.950 . S
C973 C972 1.373 . S
C973 C989 1.377 . S
C974 C972 1.389 . S
C974 C975 1.524 . S
C974 C988 1.377 . S
C975 C974 1.524 . S
C975 C976 1.397 . S
C975 C980 1.363 . S
C976 H953 0.950 . S
C976 C975 1.397 . S
C976 C977 1.334 . S
C977 H954 0.950 . S
C977 C976 1.334 . S
C977 C978 1.287 . S
C978 C977 1.287 . S
C978 C979 1.524 . S
C978 H997 0.913 . S
C979 H955 0.950 . S
C979 C978 1.524 . S
C979 C980 1.415 . S
C980 H956 0.950 . S
C980 C975 1.363 . S
C980 C979 1.415 . S
C981 H957 0.951 . S
C981 C982 1.366 . S
C981 C983 1.388 . S
C982 C981 1.366 . S
C982 C986 1.385 . S
C983 H958 0.951 . S
C983 C981 1.388 . S
C983 C984 1.366 . S
C984 C983 1.366 . S
C984 C985 1.414 . S
C984 C987 1.499 . S
C985 H959 0.950 . S
C985 C984 1.414 . S
C985 C986 1.374 . S
C986 H960 0.950 . S
C986 C982 1.385 . S
C986 C985 1.374 . S
C987 C984 1.499 . S
C987 C988 1.373 . S
C987 C989 1.389 . S
C988 H961 0.950 . S
C988 C974 1.377 . S
C988 C987 1.373 . S
C989 C973 1.377 . S
C989 C987 1.389 . S
C989 C990 1.524 . S
C990 C989 1.524 . S
C990 C991 1.397 . S
C990 C995 1.363 . S
C991 H962 0.950 . S
C991 C990 1.397 . S
C991 C992 1.334 . S
C992 H963 0.950 . S
C992 C991 1.334 . S
C992 C993 1.287 . S
C993 C992 1.287 . S
C993 C994 1.524 . S
C993 H996 0.999 . S
C994 H964 0.950 . S
C994 C993 1.524 . S
C994 C995 1.415 . S
C995 H965 0.950 . S
C995 C990 1.363 . S
C995 C994 1.415 . S
H996 C993 0.999 . S
H997 C978 0.913 . S
H998 C1016 0.951 . S
H999 C1018 0.951 . S
H1000 C1020 0.950 . S
H1001 C1021 0.950 . S
H1002 C1023 0.950 . S
H1003 C1026 0.950 . S
H1004 C1027 0.950 . S
H1005 C1029 0.950 . S
H1006 C1030 0.950 . S
H1007 C1031 0.951 . S
H1008 C1033 0.951 . S
H1009 C1035 0.950 . S
H1010 C1036 0.950 . S
H1011 C1038 0.950 . S
H1012 C1041 0.950 . S
H1013 C1042 0.950 . S
H1014 C1044 0.950 . S
H1015 C1045 0.950 . S
C1016 H998 0.951 . S
C1016 C1017 1.366 . S
C1016 C1018 1.388 . S
C1017 C1016 1.366 . S
C1017 C1021 1.385 . S
C1018 H999 0.951 . S
C1018 C1016 1.388 . S
C1018 C1019 1.366 . S
C1019 C1018 1.366 . S
C1019 C1020 1.414 . S
C1019 C1022 1.499 . S
C1020 H1000 0.950 . S
C1020 C1019 1.414 . S
C1020 C1021 1.374 . S
C1021 H1001 0.950 . S
C1021 C1017 1.385 . S
C1021 C1020 1.374 . S
C1022 C1019 1.499 . S
C1022 C1023 1.373 . S
C1022 C1024 1.389 . S
C1023 H1002 0.950 . S
C1023 C1022 1.373 . S
C1023 C1039 1.377 . S
C1024 C1022 1.389 . S
C1024 C1025 1.524 . S
C1024 C1038 1.377 . S
C1025 C1024 1.524 . S
C1025 C1026 1.397 . S
C1025 C1030 1.363 . S
C1026 H1003 0.950 . S
C1026 C1025 1.397 . S
C1026 C1027 1.334 . S
C1027 H1004 0.950 . S
C1027 C1026 1.334 . S
C1027 C1028 1.287 . S
C1028 C1027 1.287 . S
C1028 C1029 1.524 . S
C1028 H1047 0.913 . S
C1029 H1005 0.950 . S
C1029 C1028 1.524 . S
C1029 C1030 1.415 . S
C1030 H1006 0.950 . S
C1030 C1025 1.363 . S
C1030 C1029 1.415 . S
C1031 H1007 0.951 . S
C1031 C1032 1.366 . S
C1031 C1033 1.388 . S
C1032 C1031 1.366 . S
C1032 C1036 1.385 . S
C1033 H1008 0.951 . S
C1033 C1031 1.388 . S
C1033 C1034 1.366 . S
C1034 C1033 1.366 . S
C1034 C1035 1.414 . S
C1034 C1037 1.499 . S
C1035 H1009 0.950 . S
C1035 C1034 1.414 . S
C1035 C1036 1.374 . S
C1036 H1010 0.950 . S
C1036 C1032 1.385 . S
C1036 C1035 1.374 . S
C1037 C1034 1.499 . S
C1037 C1038 1.373 . S
C1037 C1039 1.389 . S
C1038 H1011 0.950 . S
C1038 C1024 1.377 . S
C1038 C1037 1.373 . S
C1039 C1023 1.377 . S
C1039 C1037 1.389 . S
C1039 C1040 1.524 . S
C1040 C1039 1.524 . S
C1040 C1041 1.397 . S
C1040 C1045 1.363 . S
C1041 H1012 0.950 . S
C1041 C1040 1.397 . S
C1041 C1042 1.334 . S
C1042 H1013 0.950 . S
C1042 C1041 1.334 . S
C1042 C1043 1.287 . S
C1043 C1042 1.287 . S
C1043 C1044 1.524 . S
C1043 H1046 0.999 . S
C1044 H1014 0.950 . S
C1044 C1043 1.524 . S
C1044 C1045 1.415 . S
C1045 H1015 0.950 . S
C1045 C1040 1.363 . S
C1045 C1044 1.415 . S
H1046 C1043 0.999 . S
H1047 C1028 0.913 . S
H1048 C1066 0.951 . S
H1049 C1068 0.951 . S
H1050 C1070 0.950 . S
H1051 C1071 0.950 . S
H1052 C1073 0.950 . S
H1053 C1076 0.950 . S
H1054 C1077 0.950 . S
H1055 C1079 0.950 . S
H1056 C1080 0.950 . S
H1057 C1081 0.951 . S
H1058 C1083 0.951 . S
H1059 C1085 0.950 . S
H1060 C1086 0.950 . S
H1061 C1088 0.950 . S
H1062 C1091 0.950 . S
H1063 C1092 0.950 . S
H1064 C1094 0.950 . S
H1065 C1095 0.950 . S
C1066 H1048 0.951 . S
C1066 C1067 1.366 . S
C1066 C1068 1.388 . S
C1067 C1066 1.366 . S
C1067 C1071 1.385 . S
C1068 H1049 0.951 . S
C1068 C1066 1.388 . S
C1068 C1069 1.366 . S
C1069 C1068 1.366 . S
C1069 C1070 1.414 . S
C1069 C1072 1.499 . S
C1070 H1050 0.950 . S
C1070 C1069 1.414 . S
C1070 C1071 1.374 . S
C1071 H1051 0.950 . S
C1071 C1067 1.385 . S
C1071 C1070 1.374 . S
C1072 C1069 1.499 . S
C1072 C1073 1.373 . S
C1072 C1074 1.389 . S
C1073 H1052 0.950 . S
C1073 C1072 1.373 . S
C1073 C1089 1.377 . S
C1074 C1072 1.389 . S
C1074 C1075 1.524 . S
C1074 C1088 1.377 . S
C1075 C1074 1.524 . S
C1075 C1076 1.397 . S
C1075 C1080 1.363 . S
C1076 H1053 0.950 . S
C1076 C1075 1.397 . S
C1076 C1077 1.334 . S
C1077 H1054 0.950 . S
C1077 C1076 1.334 . S
C1077 C1078 1.287 . S
C1078 C1077 1.287 . S
C1078 C1079 1.524 . S
C1078 H1097 0.913 . S
C1079 H1055 0.950 . S
C1079 C1078 1.524 . S
C1079 C1080 1.415 . S
C1080 H1056 0.950 . S
C1080 C1075 1.363 . S
C1080 C1079 1.415 . S
C1081 H1057 0.951 . S
C1081 C1082 1.366 . S
C1081 C1083 1.388 . S
C1082 C1081 1.366 . S
C1082 C1086 1.385 . S
C1083 H1058 0.951 . S
C1083 C1081 1.388 . S
C1083 C1084 1.366 . S
C1084 C1083 1.366 . S
C1084 C1085 1.414 . S
C1084 C1087 1.499 . S
C1085 H1059 0.950 . S
C1085 C1084 1.414 . S
C1085 C1086 1.374 . S
C1086 H1060 0.950 . S
C1086 C1082 1.385 . S
C1086 C1085 1.374 . S
C1087 C1084 1.499 . S
C1087 C1088 1.373 . S
C1087 C1089 1.389 . S
C1088 H1061 0.950 . S
C1088 C1074 1.377 . S
C1088 C1087 1.373 . S
C1089 C1073 1.377 . S
C1089 C1087 1.389 . S
C1089 C1090 1.524 . S
C1090 C1089 1.524 . S
C1090 C1091 1.397 . S
C1090 C1095 1.363 . S
C1091 H1062 0.950 . S
C1091 C1090 1.397 . S
C1091 C1092 1.334 1_556 S
C1092 H1063 0.950 . S
C1092 C1091 1.334 1_554 S
C1092 C1093 1.287 . S
C1093 C1092 1.287 . S
C1093 C1094 1.524 1_554 S
C1093 H1096 0.999 . S
C1094 H1064 0.950 . S
C1094 C1093 1.524 1_556 S
C1094 C1095 1.415 . S
C1095 H1065 0.950 . S
C1095 C1090 1.363 . S
C1095 C1094 1.415 . S
H1096 C1093 0.999 . S
H1097 C1078 0.913 . S
H1098 C1116 0.951 . S
H1099 C1118 0.951 . S
H1100 C1120 0.950 . S
H1101 C1121 0.950 . S
H1102 C1123 0.950 . S
H1103 C1126 0.950 . S
H1104 C1127 0.950 . S
H1105 C1129 0.950 . S
H1106 C1130 0.950 . S
H1107 C1131 0.951 . S
H1108 C1133 0.951 . S
H1109 C1135 0.950 . S
H1110 C1136 0.950 . S
H1111 C1138 0.950 . S
H1112 C1141 0.950 . S
H1113 C1142 0.950 . S
H1114 C1144 0.950 . S
H1115 C1145 0.950 . S
C1116 H1098 0.951 . S
C1116 C1117 1.366 . S
C1116 C1118 1.388 . S
C1117 C1116 1.366 . S
C1117 C1121 1.385 . S
C1118 H1099 0.951 . S
C1118 C1116 1.388 . S
C1118 C1119 1.366 . S
C1119 C1118 1.366 . S
C1119 C1120 1.414 . S
C1119 C1122 1.499 . S
C1120 H1100 0.950 . S
C1120 C1119 1.414 . S
C1120 C1121 1.374 . S
C1121 H1101 0.950 . S
C1121 C1117 1.385 . S
C1121 C1120 1.374 . S
C1122 C1119 1.499 . S
C1122 C1123 1.373 . S
C1122 C1124 1.389 . S
C1123 H1102 0.950 . S
C1123 C1122 1.373 . S
C1123 C1139 1.377 . S
C1124 C1122 1.389 . S
C1124 C1125 1.524 . S
C1124 C1138 1.377 . S
C1125 C1124 1.524 . S
C1125 C1126 1.397 . S
C1125 C1130 1.363 . S
C1126 H1103 0.950 . S
C1126 C1125 1.397 . S
C1126 C1127 1.334 . S
C1127 H1104 0.950 . S
C1127 C1126 1.334 . S
C1127 C1128 1.287 . S
C1128 C1127 1.287 . S
C1128 C1129 1.524 . S
C1128 H1147 0.913 . S
C1129 H1105 0.950 . S
C1129 C1128 1.524 . S
C1129 C1130 1.415 . S
C1130 H1106 0.950 . S
C1130 C1125 1.363 . S
C1130 C1129 1.415 . S
C1131 H1107 0.951 . S
C1131 C1132 1.366 . S
C1131 C1133 1.388 . S
C1132 C1131 1.366 . S
C1132 C1136 1.385 . S
C1133 H1108 0.951 . S
C1133 C1131 1.388 . S
C1133 C1134 1.366 . S
C1134 C1133 1.366 . S
C1134 C1135 1.414 . S
C1134 C1137 1.499 . S
C1135 H1109 0.950 . S
C1135 C1134 1.414 . S
C1135 C1136 1.374 . S
C1136 H1110 0.950 . S
C1136 C1132 1.385 . S
C1136 C1135 1.374 . S
C1137 C1134 1.499 . S
C1137 C1138 1.373 . S
C1137 C1139 1.389 . S
C1138 H1111 0.950 . S
C1138 C1124 1.377 . S
C1138 C1137 1.373 . S
C1139 C1123 1.377 . S
C1139 C1137 1.389 . S
C1139 C1140 1.524 . S
C1140 C1139 1.524 . S
C1140 C1141 1.397 . S
C1140 C1145 1.363 . S
C1141 H1112 0.950 . S
C1141 C1140 1.397 . S
C1141 C1142 1.334 . S
C1142 H1113 0.950 . S
C1142 C1141 1.334 . S
C1142 C1143 1.287 . S
C1143 C1142 1.287 . S
C1143 C1144 1.524 . S
C1143 H1146 0.999 . S
C1144 H1114 0.950 . S
C1144 C1143 1.524 . S
C1144 C1145 1.415 . S
C1145 H1115 0.950 . S
C1145 C1140 1.363 . S
C1145 C1144 1.415 . S
H1146 C1143 0.999 . S
H1147 C1128 0.913 . S
H1148 C1166 0.951 . S
H1149 C1168 0.951 . S
H1150 C1170 0.950 . S
H1151 C1171 0.950 . S
H1152 C1173 0.950 . S
H1153 C1176 0.950 . S
H1154 C1177 0.950 . S
H1155 C1179 0.950 . S
H1156 C1180 0.950 . S
H1157 C1181 0.951 . S
H1158 C1183 0.951 . S
H1159 C1185 0.950 . S
H1160 C1186 0.950 . S
H1161 C1188 0.950 . S
H1162 C1191 0.950 . S
H1163 C1192 0.950 . S
H1164 C1194 0.950 . S
H1165 C1195 0.950 . S
C1166 H1148 0.951 . S
C1166 C1167 1.366 . S
C1166 C1168 1.388 . S
C1167 C1166 1.366 . S
C1167 C1171 1.385 . S
C1168 H1149 0.951 . S
C1168 C1166 1.388 . S
C1168 C1169 1.366 . S
C1169 C1168 1.366 . S
C1169 C1170 1.414 . S
C1169 C1172 1.499 . S
C1170 H1150 0.950 . S
C1170 C1169 1.414 . S
C1170 C1171 1.374 . S
C1171 H1151 0.950 . S
C1171 C1167 1.385 . S
C1171 C1170 1.374 . S
C1172 C1169 1.499 . S
C1172 C1173 1.373 . S
C1172 C1174 1.389 . S
C1173 H1152 0.950 . S
C1173 C1172 1.373 . S
C1173 C1189 1.377 . S
C1174 C1172 1.389 . S
C1174 C1175 1.524 . S
C1174 C1188 1.377 . S
C1175 C1174 1.524 . S
C1175 C1176 1.397 . S
C1175 C1180 1.363 . S
C1176 H1153 0.950 . S
C1176 C1175 1.397 . S
C1176 C1177 1.334 . S
C1177 H1154 0.950 . S
C1177 C1176 1.334 . S
C1177 C1178 1.287 . S
C1178 C1177 1.287 . S
C1178 C1179 1.524 . S
C1178 H1197 0.913 . S
C1179 H1155 0.950 . S
C1179 C1178 1.524 . S
C1179 C1180 1.415 . S
C1180 H1156 0.950 . S
C1180 C1175 1.363 . S
C1180 C1179 1.415 . S
C1181 H1157 0.951 . S
C1181 C1182 1.366 . S
C1181 C1183 1.388 . S
C1182 C1181 1.366 . S
C1182 C1186 1.385 . S
C1183 H1158 0.951 . S
C1183 C1181 1.388 . S
C1183 C1184 1.366 . S
C1184 C1183 1.366 . S
C1184 C1185 1.414 . S
C1184 C1187 1.499 . S
C1185 H1159 0.950 . S
C1185 C1184 1.414 . S
C1185 C1186 1.374 . S
C1186 H1160 0.950 . S
C1186 C1182 1.385 . S
C1186 C1185 1.374 . S
C1187 C1184 1.499 . S
C1187 C1188 1.373 . S
C1187 C1189 1.389 . S
C1188 H1161 0.950 . S
C1188 C1174 1.377 . S
C1188 C1187 1.373 . S
C1189 C1173 1.377 . S
C1189 C1187 1.389 . S
C1189 C1190 1.524 . S
C1190 C1189 1.524 . S
C1190 C1191 1.397 . S
C1190 C1195 1.363 . S
C1191 H1162 0.950 . S
C1191 C1190 1.397 . S
C1191 C1192 1.334 . S
C1192 H1163 0.950 . S
C1192 C1191 1.334 . S
C1192 C1193 1.287 . S
C1193 C1192 1.287 . S
C1193 C1194 1.524 . S
C1193 H1196 0.999 . S
C1194 H1164 0.950 . S
C1194 C1193 1.524 . S
C1194 C1195 1.415 . S
C1195 H1165 0.950 . S
C1195 C1190 1.363 . S
C1195 C1194 1.415 . S
H1196 C1193 0.999 . S
H1197 C1178 0.913 . S
H1198 C1216 0.951 . S
H1199 C1218 0.951 . S
H1200 C1220 0.950 . S
H1201 C1221 0.950 . S
H1202 C1223 0.950 . S
H1203 C1226 0.950 . S
H1204 C1227 0.950 . S
H1205 C1229 0.950 . S
H1206 C1230 0.950 . S
H1207 C1231 0.951 . S
H1208 C1233 0.951 . S
H1209 C1235 0.950 . S
H1210 C1236 0.950 . S
H1211 C1238 0.950 . S
H1212 C1241 0.950 . S
H1213 C1242 0.950 . S
H1214 C1244 0.950 . S
H1215 C1245 0.950 . S
C1216 H1198 0.951 . S
C1216 C1217 1.366 . S
C1216 C1218 1.388 . S
C1217 C1216 1.366 . S
C1217 C1221 1.385 . S
C1218 H1199 0.951 . S
C1218 C1216 1.388 . S
C1218 C1219 1.366 . S
C1219 C1218 1.366 . S
C1219 C1220 1.414 . S
C1219 C1222 1.499 . S
C1220 H1200 0.950 . S
C1220 C1219 1.414 . S
C1220 C1221 1.374 . S
C1221 H1201 0.950 . S
C1221 C1217 1.385 . S
C1221 C1220 1.374 . S
C1222 C1219 1.499 . S
C1222 C1223 1.373 . S
C1222 C1224 1.389 . S
C1223 H1202 0.950 . S
C1223 C1222 1.373 . S
C1223 C1239 1.377 . S
C1224 C1222 1.389 . S
C1224 C1225 1.524 . S
C1224 C1238 1.377 . S
C1225 C1224 1.524 . S
C1225 C1226 1.397 . S
C1225 C1230 1.363 . S
C1226 H1203 0.950 . S
C1226 C1225 1.397 . S
C1226 C1227 1.334 . S
C1227 H1204 0.950 . S
C1227 C1226 1.334 . S
C1227 C1228 1.287 . S
C1228 C1227 1.287 . S
C1228 C1229 1.524 . S
C1228 H1247 0.913 . S
C1229 H1205 0.950 . S
C1229 C1228 1.524 . S
C1229 C1230 1.415 . S
C1230 H1206 0.950 . S
C1230 C1225 1.363 . S
C1230 C1229 1.415 . S
C1231 H1207 0.951 . S
C1231 C1232 1.366 . S
C1231 C1233 1.388 . S
C1232 C1231 1.366 . S
C1232 C1236 1.385 . S
C1233 H1208 0.951 . S
C1233 C1231 1.388 . S
C1233 C1234 1.366 . S
C1234 C1233 1.366 . S
C1234 C1235 1.414 . S
C1234 C1237 1.499 . S
C1235 H1209 0.950 . S
C1235 C1234 1.414 . S
C1235 C1236 1.374 . S
C1236 H1210 0.950 . S
C1236 C1232 1.385 . S
C1236 C1235 1.374 . S
C1237 C1234 1.499 . S
C1237 C1238 1.373 . S
C1237 C1239 1.389 . S
C1238 H1211 0.950 . S
C1238 C1224 1.377 . S
C1238 C1237 1.373 . S
C1239 C1223 1.377 . S
C1239 C1237 1.389 . S
C1239 C1240 1.524 . S
C1240 C1239 1.524 . S
C1240 C1241 1.397 . S
C1240 C1245 1.363 . S
C1241 H1212 0.950 . S
C1241 C1240 1.397 . S
C1241 C1242 1.334 . S
C1242 H1213 0.950 . S
C1242 C1241 1.334 . S
C1242 C1243 1.287 . S
C1243 C1242 1.287 . S
C1243 C1244 1.524 . S
C1243 H1246 0.999 . S
C1244 H1214 0.950 . S
C1244 C1243 1.524 . S
C1244 C1245 1.415 . S
C1245 H1215 0.950 . S
C1245 C1240 1.363 . S
C1245 C1244 1.415 . S
H1246 C1243 0.999 . S
H1247 C1228 0.913 . S
H1248 C1266 0.951 . S
H1249 C1268 0.951 . S
H1250 C1270 0.950 . S
H1251 C1271 0.950 . S
H1252 C1273 0.950 . S
H1253 C1276 0.950 . S
H1254 C1277 0.950 . S
H1255 C1279 0.950 . S
H1256 C1280 0.950 . S
H1257 C1281 0.951 . S
H1258 C1283 0.951 . S
H1259 C1285 0.950 . S
H1260 C1286 0.950 . S
H1261 C1288 0.950 . S
H1262 C1291 0.950 . S
H1263 C1292 0.950 . S
H1264 C1294 0.950 . S
H1265 C1295 0.950 . S
C1266 H1248 0.951 . S
C1266 C1267 1.366 . S
C1266 C1268 1.388 . S
C1267 C1266 1.366 . S
C1267 C1271 1.385 . S
C1268 H1249 0.951 . S
C1268 C1266 1.388 . S
C1268 C1269 1.366 . S
C1269 C1268 1.366 . S
C1269 C1270 1.414 . S
C1269 C1272 1.499 . S
C1270 H1250 0.950 . S
C1270 C1269 1.414 . S
C1270 C1271 1.374 . S
C1271 H1251 0.950 . S
C1271 C1267 1.385 . S
C1271 C1270 1.374 . S
C1272 C1269 1.499 . S
C1272 C1273 1.373 . S
C1272 C1274 1.389 . S
C1273 H1252 0.950 . S
C1273 C1272 1.373 . S
C1273 C1289 1.377 . S
C1274 C1272 1.389 . S
C1274 C1275 1.524 . S
C1274 C1288 1.377 . S
C1275 C1274 1.524 . S
C1275 C1276 1.397 . S
C1275 C1280 1.363 . S
C1276 H1253 0.950 . S
C1276 C1275 1.397 . S
C1276 C1277 1.334 . S
C1277 H1254 0.950 . S
C1277 C1276 1.334 . S
C1277 C1278 1.287 . S
C1278 C1277 1.287 . S
C1278 C1279 1.524 . S
C1278 H1297 0.913 . S
C1279 H1255 0.950 . S
C1279 C1278 1.524 . S
C1279 C1280 1.415 . S
C1280 H1256 0.950 . S
C1280 C1275 1.363 . S
C1280 C1279 1.415 . S
C1281 H1257 0.951 . S
C1281 C1282 1.366 . S
C1281 C1283 1.388 . S
C1282 C1281 1.366 . S
C1282 C1286 1.385 . S
C1283 H1258 0.951 . S
C1283 C1281 1.388 . S
C1283 C1284 1.366 . S
C1284 C1283 1.366 . S
C1284 C1285 1.414 . S
C1284 C1287 1.499 . S
C1285 H1259 0.950 . S
C1285 C1284 1.414 . S
C1285 C1286 1.374 . S
C1286 H1260 0.950 . S
C1286 C1282 1.385 . S
C1286 C1285 1.374 . S
C1287 C1284 1.499 . S
C1287 C1288 1.373 . S
C1287 C1289 1.389 . S
C1288 H1261 0.950 . S
C1288 C1274 1.377 . S
C1288 C1287 1.373 . S
C1289 C1273 1.377 . S
C1289 C1287 1.389 . S
C1289 C1290 1.524 . S
C1290 C1289 1.524 . S
C1290 C1291 1.397 . S
C1290 C1295 1.363 . S
C1291 H1262 0.950 . S
C1291 C1290 1.397 . S
C1291 C1292 1.334 . S
C1292 H1263 0.950 . S
C1292 C1291 1.334 . S
C1292 C1293 1.287 . S
C1293 C1292 1.287 . S
C1293 C1294 1.524 . S
C1293 H1296 0.999 . S
C1294 H1264 0.950 . S
C1294 C1293 1.524 . S
C1294 C1295 1.415 . S
C1295 H1265 0.950 . S
C1295 C1290 1.363 . S
C1295 C1294 1.415 . S
H1296 C1293 0.999 . S
H1297 C1278 0.913 . S
H1298 C1316 0.951 . S
H1299 C1318 0.951 . S
H1300 C1320 0.950 . S
H1301 C1321 0.950 . S
H1302 C1323 0.950 . S
H1303 C1326 0.950 . S
H1304 C1327 0.950 . S
H1305 C1329 0.950 . S
H1306 C1330 0.950 . S
H1307 C1331 0.951 . S
H1308 C1333 0.951 . S
H1309 C1335 0.950 . S
H1310 C1336 0.950 . S
H1311 C1338 0.950 . S
H1312 C1341 0.950 . S
H1313 C1342 0.950 . S
H1314 C1344 0.950 . S
H1315 C1345 0.950 . S
C1316 H1298 0.951 . S
C1316 C1317 1.366 . S
C1316 C1318 1.388 . S
C1317 C1316 1.366 . S
C1317 C1321 1.385 . S
C1318 H1299 0.951 . S
C1318 C1316 1.388 . S
C1318 C1319 1.366 . S
C1319 C1318 1.366 . S
C1319 C1320 1.414 . S
C1319 C1322 1.499 . S
C1320 H1300 0.950 . S
C1320 C1319 1.414 . S
C1320 C1321 1.374 . S
C1321 H1301 0.950 . S
C1321 C1317 1.385 . S
C1321 C1320 1.374 . S
C1322 C1319 1.499 . S
C1322 C1323 1.373 . S
C1322 C1324 1.389 . S
C1323 H1302 0.950 . S
C1323 C1322 1.373 . S
C1323 C1339 1.377 . S
C1324 C1322 1.389 . S
C1324 C1325 1.524 . S
C1324 C1338 1.377 . S
C1325 C1324 1.524 . S
C1325 C1326 1.397 . S
C1325 C1330 1.363 . S
C1326 H1303 0.950 . S
C1326 C1325 1.397 . S
C1326 C1327 1.334 . S
C1327 H1304 0.950 . S
C1327 C1326 1.334 . S
C1327 C1328 1.287 . S
C1328 C1327 1.287 . S
C1328 C1329 1.524 . S
C1328 H1347 0.913 . S
C1329 H1305 0.950 . S
C1329 C1328 1.524 . S
C1329 C1330 1.415 . S
C1330 H1306 0.950 . S
C1330 C1325 1.363 . S
C1330 C1329 1.415 . S
C1331 H1307 0.951 . S
C1331 C1332 1.366 . S
C1331 C1333 1.388 . S
C1332 C1331 1.366 . S
C1332 C1336 1.385 . S
C1333 H1308 0.951 . S
C1333 C1331 1.388 . S
C1333 C1334 1.366 . S
C1334 C1333 1.366 . S
C1334 C1335 1.414 . S
C1334 C1337 1.499 . S
C1335 H1309 0.950 . S
C1335 C1334 1.414 . S
C1335 C1336 1.374 . S
C1336 H1310 0.950 . S
C1336 C1332 1.385 . S
C1336 C1335 1.374 . S
C1337 C1334 1.499 . S
C1337 C1338 1.373 . S
C1337 C1339 1.389 . S
C1338 H1311 0.950 . S
C1338 C1324 1.377 . S
C1338 C1337 1.373 . S
C1339 C1323 1.377 . S
C1339 C1337 1.389 . S
C1339 C1340 1.524 . S
C1340 C1339 1.524 . S
C1340 C1341 1.397 . S
C1340 C1345 1.363 . S
C1341 H1312 0.950 . S
C1341 C1340 1.397 . S
C1341 C1342 1.334 . S
C1342 H1313 0.950 . S
C1342 C1341 1.334 . S
C1342 C1343 1.287 . S
C1343 C1342 1.287 . S
C1343 C1344 1.524 . S
C1343 H1346 0.999 . S
C1344 H1314 0.950 . S
C1344 C1343 1.524 . S
C1344 C1345 1.415 . S
C1345 H1315 0.950 . S
C1345 C1340 1.363 . S
C1345 C1344 1.415 . S
H1346 C1343 0.999 . S
H1347 C1328 0.913 . S
H1348 C1366 0.951 . S
H1349 C1368 0.951 . S
H1350 C1370 0.950 . S
H1351 C1371 0.950 . S
H1352 C1373 0.950 . S
H1353 C1376 0.950 . S
H1354 C1377 0.950 . S
H1355 C1379 0.950 . S
H1356 C1380 0.950 . S
H1357 C1381 0.951 . S
H1358 C1383 0.951 . S
H1359 C1385 0.950 . S
H1360 C1386 0.950 . S
H1361 C1388 0.950 . S
H1362 C1391 0.950 . S
H1363 C1392 0.950 . S
H1364 C1394 0.950 . S
H1365 C1395 0.950 . S
C1366 H1348 0.951 . S
C1366 C1367 1.366 . S
C1366 C1368 1.388 . S
C1367 C1366 1.366 . S
C1367 C1371 1.385 . S
C1368 H1349 0.951 . S
C1368 C1366 1.388 . S
C1368 C1369 1.366 . S
C1369 C1368 1.366 . S
C1369 C1370 1.414 . S
C1369 C1372 1.499 . S
C1370 H1350 0.950 . S
C1370 C1369 1.414 . S
C1370 C1371 1.374 . S
C1371 H1351 0.950 . S
C1371 C1367 1.385 . S
C1371 C1370 1.374 . S
C1372 C1369 1.499 . S
C1372 C1373 1.373 . S
C1372 C1374 1.389 . S
C1373 H1352 0.950 . S
C1373 C1372 1.373 . S
C1373 C1389 1.377 . S
C1374 C1372 1.389 . S
C1374 C1375 1.524 . S
C1374 C1388 1.377 . S
C1375 C1374 1.524 . S
C1375 C1376 1.397 . S
C1375 C1380 1.363 . S
C1376 H1353 0.950 . S
C1376 C1375 1.397 . S
C1376 C1377 1.334 . S
C1377 H1354 0.950 . S
C1377 C1376 1.334 . S
C1377 C1378 1.287 . S
C1378 C1377 1.287 . S
C1378 C1379 1.524 . S
C1378 H1397 0.913 . S
C1379 H1355 0.950 . S
C1379 C1378 1.524 . S
C1379 C1380 1.415 . S
C1380 H1356 0.950 . S
C1380 C1375 1.363 . S
C1380 C1379 1.415 . S
C1381 H1357 0.951 . S
C1381 C1382 1.366 . S
C1381 C1383 1.388 . S
C1382 C1381 1.366 . S
C1382 C1386 1.385 . S
C1383 H1358 0.951 . S
C1383 C1381 1.388 . S
C1383 C1384 1.366 . S
C1384 C1383 1.366 . S
C1384 C1385 1.414 . S
C1384 C1387 1.499 . S
C1385 H1359 0.950 . S
C1385 C1384 1.414 . S
C1385 C1386 1.374 . S
C1386 H1360 0.950 . S
C1386 C1382 1.385 . S
C1386 C1385 1.374 . S
C1387 C1384 1.499 . S
C1387 C1388 1.373 . S
C1387 C1389 1.389 . S
C1388 H1361 0.950 . S
C1388 C1374 1.377 . S
C1388 C1387 1.373 . S
C1389 C1373 1.377 . S
C1389 C1387 1.389 . S
C1389 C1390 1.524 . S
C1390 C1389 1.524 . S
C1390 C1391 1.397 . S
C1390 C1395 1.363 . S
C1391 H1362 0.950 . S
C1391 C1390 1.397 . S
C1391 C1392 1.334 . S
C1392 H1363 0.950 . S
C1392 C1391 1.334 . S
C1392 C1393 1.287 . S
C1393 C1392 1.287 . S
C1393 C1394 1.524 . S
C1393 H1396 0.999 . S
C1394 H1364 0.950 . S
C1394 C1393 1.524 . S
C1394 C1395 1.415 . S
C1395 H1365 0.950 . S
C1395 C1390 1.363 . S
C1395 C1394 1.415 . S
H1396 C1393 0.999 . S
H1397 C1378 0.913 . S
H1398 C1416 0.951 . S
H1399 C1418 0.951 . S
H1400 C1420 0.950 . S
H1401 C1421 0.950 . S
H1402 C1423 0.950 . S
H1403 C1426 0.950 . S
H1404 C1427 0.950 . S
H1405 C1429 0.950 . S
H1406 C1430 0.950 . S
H1407 C1431 0.951 . S
H1408 C1433 0.951 . S
H1409 C1435 0.950 . S
H1410 C1436 0.950 . S
H1411 C1438 0.950 . S
H1412 C1441 0.950 . S
H1413 C1442 0.950 . S
H1414 C1444 0.950 . S
H1415 C1445 0.950 . S
C1416 H1398 0.951 . S
C1416 C1417 1.366 . S
C1416 C1418 1.388 . S
C1417 C1416 1.366 . S
C1417 C1421 1.385 . S
C1418 H1399 0.951 . S
C1418 C1416 1.388 . S
C1418 C1419 1.366 . S
C1419 C1418 1.366 . S
C1419 C1420 1.414 . S
C1419 C1422 1.499 . S
C1420 H1400 0.950 . S
C1420 C1419 1.414 . S
C1420 C1421 1.374 . S
C1421 H1401 0.950 . S
C1421 C1417 1.385 . S
C1421 C1420 1.374 . S
C1422 C1419 1.499 . S
C1422 C1423 1.373 . S
C1422 C1424 1.389 . S
C1423 H1402 0.950 . S
C1423 C1422 1.373 . S
C1423 C1439 1.377 . S
C1424 C1422 1.389 . S
C1424 C1425 1.524 . S
C1424 C1438 1.377 . S
C1425 C1424 1.524 . S
C1425 C1426 1.397 . S
C1425 C1430 1.363 . S
C1426 H1403 0.950 . S
C1426 C1425 1.397 . S
C1426 C1427 1.334 . S
C1427 H1404 0.950 . S
C1427 C1426 1.334 . S
C1427 C1428 1.287 . S
C1428 C1427 1.287 . S
C1428 C1429 1.524 . S
C1428 H1447 0.913 . S
C1429 H1405 0.950 . S
C1429 C1428 1.524 . S
C1429 C1430 1.415 . S
C1430 H1406 0.950 . S
C1430 C1425 1.363 . S
C1430 C1429 1.415 . S
C1431 H1407 0.951 . S
C1431 C1432 1.366 . S
C1431 C1433 1.388 . S
C1432 C1431 1.366 . S
C1432 C1436 1.385 . S
C1433 H1408 0.951 . S
C1433 C1431 1.388 . S
C1433 C1434 1.366 . S
C1434 C1433 1.366 . S
C1434 C1435 1.414 . S
C1434 C1437 1.499 . S
C1435 H1409 0.950 . S
C1435 C1434 1.414 . S
C1435 C1436 1.374 . S
C1436 H1410 0.950 . S
C1436 C1432 1.385 . S
C1436 C1435 1.374 . S
C1437 C1434 1.499 . S
C1437 C1438 1.373 . S
C1437 C1439 1.389 . S
C1438 H1411 0.950 . S
C1438 C1424 1.377 . S
C1438 C1437 1.373 . S
C1439 C1423 1.377 . S
C1439 C1437 1.389 . S
C1439 C1440 1.524 . S
C1440 C1439 1.524 . S
C1440 C1441 1.397 . S
C1440 C1445 1.363 . S
C1441 H1412 0.950 . S
C1441 C1440 1.397 . S
C1441 C1442 1.334 . S
C1442 H1413 0.950 . S
C1442 C1441 1.334 . S
C1442 C1443 1.287 . S
C1443 C1442 1.287 . S
C1443 C1444 1.524 . S
C1443 H1446 0.999 . S
C1444 H1414 0.950 . S
C1444 C1443 1.524 . S
C1444 C1445 1.415 . S
C1445 H1415 0.950 . S
C1445 C1440 1.363 . S
C1445 C1444 1.415 . S
H1446 C1443 0.999 . S
H1447 C1428 0.913 . S
C267 C4 1.130 . S
C282 C95 1.153 . S
C317 C16 1.293 . S
C332 C144 1.302 . S
C382 C170 1.913 . S
C367 C32 1.926 . S
C417 C43 2.162 . S
C432 C218 2.113 1_655 S
C482 C130 2.825 . S
C467 C5 2.741 . S
C532 C98 0.545 . S
C517 C21 0.531 . S
C582 C219 1.791 . S
C567 C27 1.817 . S
C632 C187 1.394 . S
C617 C37 1.405 . S
C667 C10 1.544 . S
C682 C215 1.561 . S
C732 C147 2.513 1_556 S
C717 C26 2.591 . S
C767 C38 2.034 . S
C782 C99 2.033 . S
C817 C15 0.945 . S
C832 C184 0.946 . S
C882 C104 1.369 . S
C867 C48 1.350 . S
C917 C59 1.033 . S
C932 C135 1.033 . S
C967 C76 2.380 . S
C982 C179 2.353 . S
C1017 C87 1.966 . S
C1032 C227 1.941 . S
C1067 C54 1.992 . S
C1082 C139 2.050 1_556 S
C1132 C107 1.576 . S
C1117 C60 1.618 . S
C1182 C210 1.665 . S
C1167 C71 1.679 . S
C1232 C178 1.368 . S
C1217 C82 1.409 . S
C1267 C49 1.829 . S
C1282 C224 1.897 . S
C1332 C138 1.913 . S
C1317 C70 1.976 . S
C1382 C90 2.543 . S
C1367 C81 2.552 . S
C1417 C65 0.790 . S
C1432 C175 0.789 . S
