# Generated by pormake.
# Topology zzz, (3,6)-cn, num edge types: 1
# Building blocks:
#     Node 0, Type 0, BuildingBlock: PAMTOO_clean_linker_0, # of connection points: 3
#     Node 1, Type 0, BuildingBlock: PAMTOO_clean_linker_0, # of connection points: 3
#     Node 2, Type 0, BuildingBlock: PAMTOO_clean_linker_0, # of connection points: 3
#     Node 3, Type 0, BuildingBlock: PAMTOO_clean_linker_0, # of connection points: 3
#     Node 4, Type 0, BuildingBlock: PAMTOO_clean_linker_0, # of connection points: 3
#     Node 5, Type 0, BuildingBlock: PAMTOO_clean_linker_0, # of connection points: 3
#     Node 6, Type 0, BuildingBlock: PAMTOO_clean_linker_0, # of connection points: 3
#     Node 7, Type 0, BuildingBlock: PAMTOO_clean_linker_0, # of connection points: 3
#     Node 8, Type 1, BuildingBlock: KUMBOL_clean_sbu_0, # of connection points: 6
#     Node 9, Type 1, BuildingBlock: KUMBOL_clean_sbu_0, # of connection points: 6
#     Node 10, Type 1, BuildingBlock: KUMBOL_clean_sbu_0, # of connection points: 6
#     Node 11, Type 1, BuildingBlock: KUMBOL_clean_sbu_0, # of connection points: 6
#     Edge 12, Type (0, 1), BuildingBlock: ZUJKAS_clean_linker_0, # of connection points: 2
#     Edge 13, Type (0, 1), BuildingBlock: ZUJKAS_clean_linker_0, # of connection points: 2
#     Edge 14, Type (0, 1), BuildingBlock: ZUJKAS_clean_linker_0, # of connection points: 2
#     Edge 15, Type (0, 1), BuildingBlock: ZUJKAS_clean_linker_0, # of connection points: 2
#     Edge 16, Type (0, 1), BuildingBlock: ZUJKAS_clean_linker_0, # of connection points: 2
#     Edge 17, Type (0, 1), BuildingBlock: ZUJKAS_clean_linker_0, # of connection points: 2
#     Edge 18, Type (0, 1), BuildingBlock: ZUJKAS_clean_linker_0, # of connection points: 2
#     Edge 19, Type (0, 1), BuildingBlock: ZUJKAS_clean_linker_0, # of connection points: 2
#     Edge 20, Type (0, 1), BuildingBlock: ZUJKAS_clean_linker_0, # of connection points: 2
#     Edge 21, Type (0, 1), BuildingBlock: ZUJKAS_clean_linker_0, # of connection points: 2
#     Edge 22, Type (0, 1), BuildingBlock: ZUJKAS_clean_linker_0, # of connection points: 2
#     Edge 23, Type (0, 1), BuildingBlock: ZUJKAS_clean_linker_0, # of connection points: 2
#     Edge 24, Type (0, 1), BuildingBlock: ZUJKAS_clean_linker_0, # of connection points: 2
#     Edge 25, Type (0, 1), BuildingBlock: ZUJKAS_clean_linker_0, # of connection points: 2
#     Edge 26, Type (0, 1), BuildingBlock: ZUJKAS_clean_linker_0, # of connection points: 2
#     Edge 27, Type (0, 1), BuildingBlock: ZUJKAS_clean_linker_0, # of connection points: 2
#     Edge 28, Type (0, 1), BuildingBlock: ZUJKAS_clean_linker_0, # of connection points: 2
#     Edge 29, Type (0, 1), BuildingBlock: ZUJKAS_clean_linker_0, # of connection points: 2
#     Edge 30, Type (0, 1), BuildingBlock: ZUJKAS_clean_linker_0, # of connection points: 2
#     Edge 31, Type (0, 1), BuildingBlock: ZUJKAS_clean_linker_0, # of connection points: 2
#     Edge 32, Type (0, 1), BuildingBlock: ZUJKAS_clean_linker_0, # of connection points: 2
#     Edge 33, Type (0, 1), BuildingBlock: ZUJKAS_clean_linker_0, # of connection points: 2
#     Edge 34, Type (0, 1), BuildingBlock: ZUJKAS_clean_linker_0, # of connection points: 2
#     Edge 35, Type (0, 1), BuildingBlock: ZUJKAS_clean_linker_0, # of connection points: 2
# Relax obj value: 0.144
# Max RMSD: 0.151
# Mean RMSD: 0.111
data_MOF--net-zzz--node1-KUMBOL_clean_sbu_0--node2-PAMTOO_clean_linker_0--edge1-ZUJKAS_clean_linker_0
_symmetry_space_group_name_H-M    P1
_symmetry_Int_Tables_number       1
_symmetry_cell_setting            triclinic
loop_
_symmetry_equiv_pos_as_xyz
'x, y, z'
_cell_length_a     65.149664
_cell_length_b     65.06859
_cell_length_c     19.014117
_cell_angle_alpha  91.075694
_cell_angle_beta   90.086979
_cell_angle_gamma 89.973267
loop_
_atom_site_label
_atom_site_type_symbol
_atom_site_fract_x
_atom_site_fract_y
_atom_site_fract_z
_atom_type_partial_charge
H0 H 0.81389 0.54896 0.11167 0.0
H1 H 0.75171 0.54991 0.03838 0.0
H2 H 0.76437 0.53494 0.25365 0.0
H3 H 0.72097 0.51428 0.18931 0.0
C4 C 0.72455 0.52229 0.13971 0.0
O5 O 0.73506 0.54025 0.15711 0.0
H6 H 0.7343 0.51174 0.10723 0.0
C7 C 0.79772 0.54672 0.12227 0.0
C8 C 0.79128 0.54131 0.19014 0.0
C9 C 0.78364 0.54958 0.06739 0.0
C10 C 0.76264 0.54782 0.08061 0.0
C11 C 0.75561 0.54244 0.14724 0.0
C12 C 0.7699 0.53926 0.20234 0.0
H13 H 0.97098 0.82625 0.15101 0.0
H14 H 0.97658 0.76782 0.04419 0.0
H15 H 1.01023 0.77945 0.23606 0.0
H16 H 0.03178 0.74584 0.12375 0.0
C17 C 0.01749 0.74566 0.09174 0.0
O18 O 1.00122 0.75143 0.13498 0.0
H19 H 0.01968 0.75698 0.04916 0.0
C20 C 0.97698 0.81068 0.14957 0.0
C21 C 0.99077 0.80453 0.20199 0.0
C22 C 0.97207 0.79772 0.09226 0.0
C23 C 0.98031 0.77786 0.08847 0.0
C24 C 0.99393 0.77106 0.14007 0.0
C25 C 0.99951 0.78456 0.1965 0.0
H26 H 0.72006 0.97694 0.16038 0.0
H27 H 0.78048 0.97978 0.07063 0.0
H28 H 0.76837 1.00913 0.27114 0.0
H29 H 0.80787 0.02964 0.18227 0.0
C30 C 0.80479 0.01754 0.14158 0.0
O31 O 0.79706 1.00034 0.17445 0.0
H32 H 0.79326 0.0241 0.10489 0.0
C33 C 0.73606 0.98142 0.16473 0.0
C34 C 0.74248 0.99311 0.22346 0.0
C35 C 0.74949 0.97686 0.109 0.0
C36 C 0.76999 0.98325 0.11341 0.0
C37 C 0.77696 0.99473 0.17167 0.0
C38 C 0.76309 1.0 0.22647 0.0
H39 H 0.55183 0.72563 0.14931 0.0
H40 H 0.55189 0.78556 0.05825 0.0
H41 H 0.54212 0.77937 0.28081 0.0
H42 H 0.52045 0.82068 0.21243 0.0
C43 C 0.52797 0.81676 0.16149 0.0
O44 O 0.54574 0.8058 0.17558 0.0
H45 H 0.51696 0.80724 0.13004 0.0
C46 C 0.5504 0.74218 0.1553 0.0
C47 C 0.547 0.75081 0.22243 0.0
C48 C 0.55192 0.75453 0.0958 0.0
C49 C 0.55061 0.77592 0.10381 0.0
C50 C 0.54689 0.78497 0.16998 0.0
C51 C 0.54485 0.77238 0.22953 0.0
H52 H 0.22846 0.48086 0.09984 0.0
H53 H 0.28613 0.49501 0.19827 0.0
H54 H 0.27507 0.51331 0.98506 0.0
H55 H 0.32666 0.5075 0.0278 0.0
C56 C 0.32001 0.50231 0.07822 0.0
O57 O 0.30208 0.51326 0.09105 0.0
H58 H 0.31678 0.48558 0.07096 0.0
C59 C 0.24386 0.48706 0.0958 0.0
C60 C 0.25001 0.49681 0.03389 0.0
C61 C 0.25677 0.48635 0.15465 0.0
C62 C 0.27629 0.49516 0.15224 0.0
C63 C 0.28314 0.50451 0.09095 0.0
C64 C 0.26992 0.50559 0.0318 0.0
H65 H 0.05882 0.22938 0.10653 0.0
H66 H 0.04646 0.28814 0.20437 0.0
H67 H 0.02504 0.27537 0.99397 0.0
H68 H 0.03344 0.32753 0.03508 0.0
C69 C 0.0381 0.32145 0.08696 0.0
O70 O 0.02712 0.30355 0.09881 0.0
H71 H 0.05487 0.31823 0.0832 0.0
C72 C 0.05289 0.24491 0.10291 0.0
C73 C 0.04215 0.25064 0.04222 0.0
C74 C 0.0543 0.25823 0.16159 0.0
C75 C 0.04576 0.27794 0.15869 0.0
C76 C 0.03575 0.28448 0.09808 0.0
C77 C 0.03358 0.27068 0.03985 0.0
H78 H 0.32353 0.07151 0.07343 0.0
H79 H 0.26598 0.06774 0.18294 0.0
H80 H 0.27352 0.0369 0.9822 0.0
H81 H 0.25251 0.0251 0.16575 0.0
C82 C 0.24127 0.02853 0.12339 0.0
O83 O 0.24729 0.04574 0.0866 0.0
H84 H 0.24104 0.01516 0.08616 0.0
C85 C 0.30765 0.0665 0.07497 0.0
C86 C 0.30003 0.05404 0.01995 0.0
C87 C 0.29566 0.07125 0.1343 0.0
C88 C 0.27535 0.0642 0.13725 0.0
C89 C 0.26717 0.05201 0.08247 0.0
C90 C 0.27966 0.04661 0.02404 0.0
H91 H 0.48947 0.31581 0.10188 0.0
H92 H 0.49457 0.25458 0.17906 0.0
H93 H 0.50469 0.26565 0.95956 0.0
H94 H 0.48738 0.21667 0.99492 0.0
C95 C 0.48716 0.22265 0.05004 0.0
O96 O 0.50251 0.23725 0.05797 0.0
H97 H 0.4717 0.2296 0.0585 0.0
C98 C 0.49256 0.29967 0.09152 0.0
C99 C 0.49786 0.29291 0.02319 0.0
C100 C 0.49189 0.28618 0.14813 0.0
C101 C 0.49476 0.26514 0.13565 0.0
C102 C 0.49878 0.25764 0.06753 0.0
C103 C 0.50051 0.27151 0.01124 0.0
Gd104 Gd 1.00569 0.02792 0.56581 0.0
Gd105 Gd 0.04122 0.02008 0.71296 0.0
C106 C 0.05837 0.07681 0.84869 0.0
C107 C 0.09427 0.08164 0.81947 0.0
C108 C 0.07491 0.05326 0.76686 0.0
C109 C 0.05753 0.05965 0.80207 0.0
C110 C 0.09368 0.06379 0.77692 0.0
C111 C 0.07664 0.08811 0.85553 0.0
C112 C 0.04102 0.08177 0.8886 0.0
C113 C 0.02362 0.06943 0.8829 0.0
N114 N 0.04013 0.04837 0.79408 0.0
C115 C 0.02352 0.05263 0.83597 0.0
H116 H 1.00975 0.04366 0.83271 0.0
C117 C 0.09166 0.02645 0.70493 0.0
N118 N 0.07391 0.03567 0.72787 0.0
C119 C 0.11055 0.03645 0.71207 0.0
C120 C 0.11151 0.05547 0.74695 0.0
H121 H 0.0911 1.01142 0.67996 0.0
H122 H 0.07748 0.10148 0.89028 0.0
H123 H 0.03454 1.00162 0.43755 0.0
H124 H 0.04105 0.09475 0.92511 0.0
H125 H 1.0102 0.07291 0.9144 0.0
H126 H 0.10847 0.09007 0.82711 0.0
H127 H 0.95773 0.04136 0.61088 0.0
H128 H 0.99621 0.95609 0.34422 0.0
H129 H 0.02977 0.9733 0.3554 0.0
H130 H 0.93016 0.96935 0.44288 0.0
H131 H 0.12438 0.02936 0.69146 0.0
H132 H 0.12619 0.06308 0.75339 0.0
H133 H 0.95934 0.95448 0.3781 0.0
H134 H 0.92243 0.02854 0.59395 0.0
N135 N 1.00377 1.00111 0.47862 0.0
C136 C 0.99807 0.96877 0.38143 0.0
C137 C 0.01701 0.97846 0.38758 0.0
C138 C 0.9816 0.97593 0.42186 0.0
C139 C 0.98483 0.99245 0.47007 0.0
C140 C 0.01957 0.99478 0.4356 0.0
N141 N 0.97148 0.01722 0.55008 0.0
C142 C 0.9683 1.00069 0.50696 0.0
C143 C 0.93517 0.02048 0.56954 0.0
C144 C 0.93175 1.00272 0.52907 0.0
C145 C 0.95519 0.02771 0.57886 0.0
C146 C 0.94831 0.99281 0.49615 0.0
H147 H 0.9162 0.99713 0.52191 0.0
O148 O 0.98715 0.04485 0.49139 0.0
O149 O 0.02394 0.0434 0.65181 0.0
O150 O 1.00812 0.01695 0.75139 0.0
O151 O 0.98715 1.01331 0.65252 0.0
O152 O 0.99361 0.05218 0.64197 0.0
O153 O 0.01826 0.05434 0.51232 0.0
O154 O 0.06221 0.99893 0.7625 0.0
O155 O 0.0222 1.00498 0.62919 0.0
O156 O 0.03805 0.02575 0.52222 0.0
O157 O 0.06007 0.02977 0.61869 0.0
O158 O 0.05036 0.99188 0.6474 0.0
O159 O 0.03216 1.00422 0.80747 0.0
C160 C 1.01058 0.05605 0.67453 0.0
C161 C 0.94535 0.97576 0.45107 0.0
C162 C 0.96196 0.96732 0.41411 0.0
C163 C 1.00043 0.05968 0.48773 0.0
C164 C 0.99326 0.08046 0.5088 0.0
C165 C 0.97299 0.08377 0.53171 0.0
C166 C 1.00739 0.0967 0.51331 0.0
C167 C 1.00172 0.11591 0.54253 0.0
C168 C 0.96719 0.10277 0.56043 0.0
C169 C 0.98143 0.1187 0.56633 0.0
C170 C 0.99014 1.0128 0.72136 0.0
C171 C 0.03376 0.99024 0.61087 0.0
C172 C 0.04886 0.99321 0.80874 0.0
C173 C 0.04656 0.97093 0.81535 0.0
C174 C 0.0627 0.95979 0.84503 0.0
C175 C 0.02897 0.96057 0.79048 0.0
C176 C 0.0273 0.93914 0.79694 0.0
C177 C 0.0613 0.93853 0.85058 0.0
C178 C 0.04373 0.92826 0.8272 0.0
C179 C 0.05649 0.02874 0.55008 0.0
H180 H 0.96168 0.0716 0.52902 0.0
H181 H 0.02285 0.09425 0.49393 0.0
H182 H 0.95163 0.10509 0.57881 0.0
H183 H 0.97647 0.13317 0.58953 0.0
H184 H 0.07642 0.96756 0.86378 0.0
H185 H 0.01663 0.96916 0.76642 0.0
H186 H 0.07376 0.93001 0.87396 0.0
H187 H 0.04282 0.91185 0.8349 0.0
Gd188 Gd 0.51778 1.00067 0.54881 0.0
Gd189 Gd 0.52142 0.04256 0.68015 0.0
C190 C 0.46676 0.06768 0.8067 0.0
C191 C 0.46206 0.10139 0.75637 0.0
C192 C 0.48978 0.0791 0.71565 0.0
C193 C 0.48354 0.06401 0.76112 0.0
C194 C 0.47947 0.09818 0.71417 0.0
C195 C 0.45573 0.08617 0.80262 0.0
C196 C 0.46196 0.05297 0.85665 0.0
C197 C 0.47418 0.03552 0.86196 0.0
N198 N 0.49461 0.04631 0.76395 0.0
C199 C 0.4907 0.03263 0.81606 0.0
H200 H 0.50024 0.0195 0.82406 0.0
C201 C 0.51536 0.09126 0.63885 0.0
N202 N 0.50678 0.07566 0.67625 0.0
C203 C 0.50565 0.11037 0.63541 0.0
C204 C 0.48741 0.11374 0.67226 0.0
H205 H 0.52938 0.08868 0.60969 0.0
H206 H 0.44265 0.08909 0.83652 0.0
H207 H 0.54247 0.02399 0.41548 0.0
H208 H 0.44935 0.05528 0.89301 0.0
H209 H 0.47104 0.02437 0.90206 0.0
H210 H 0.4538 0.11583 0.7553 0.0
H211 H 0.5088 0.95557 0.62481 0.0
H212 H 0.59314 0.98653 0.35218 0.0
H213 H 0.57249 0.01814 0.34032 0.0
H214 H 0.58521 0.92608 0.48943 0.0
H215 H 0.51218 0.12245 0.6041 0.0
H216 H 0.47993 0.12858 0.66969 0.0
H217 H 0.59796 0.95235 0.40896 0.0
H218 H 0.52535 0.92154 0.6352 0.0
N219 N 0.546 0.99625 0.47204 0.0
C220 C 0.57986 0.98898 0.38553 0.0
C221 C 0.56823 1.00682 0.37863 0.0
C222 C 0.57391 0.97429 0.43422 0.0
C223 C 0.55656 0.97832 0.47672 0.0
C224 C 0.55112 1.01009 0.42179 0.0
N225 N 0.53215 0.96759 0.55913 0.0
C226 C 0.54945 0.96356 0.52189 0.0
C227 C 0.53234 0.93324 0.60334 0.0
C228 C 0.55081 0.92926 0.56848 0.0
C229 C 0.52299 0.95246 0.59717 0.0
C230 C 0.5594 0.94436 0.52608 0.0
H231 H 0.55801 0.91434 0.5732 0.0
O232 O 0.49641 0.97774 0.5097 0.0
O233 O 0.50056 0.02183 0.62095 0.0
O234 O 0.52078 1.01087 0.73118 0.0
O235 O 0.53499 0.98975 0.64442 0.0
O236 O 0.49045 0.99198 0.61715 0.0
O237 O 0.50306 1.00457 0.44738 0.0
O238 O 0.53904 0.06624 0.7348 0.0
O239 O 0.5386 0.02246 0.6046 0.0
O240 O 0.51575 0.0318 0.49493 0.0
O241 O 0.50503 0.05445 0.58376 0.0
O242 O 0.54637 0.05306 0.6052 0.0
O243 O 0.5447 0.03436 0.75692 0.0
C244 C 0.48698 1.00995 0.64384 0.0
C245 C 0.57722 0.94065 0.48638 0.0
C246 C 0.58447 0.9556 0.44053 0.0
C247 C 0.49129 0.98853 0.45552 0.0
C248 C 0.46914 0.99148 0.44695 0.0
C249 C 0.45732 0.97504 0.42098 0.0
C250 C 0.45949 1.00982 0.4692 0.0
C251 C 0.43804 1.01185 0.46428 0.0
C252 C 0.43606 0.97684 0.41675 0.0
C253 C 0.42646 0.99508 0.43793 0.0
C254 C 0.52978 0.99343 0.71063 0.0
C255 C 0.55092 0.03525 0.57897 0.0
C256 C 0.55185 0.05304 0.76068 0.0
C257 C 0.57369 0.05572 0.74146 0.0
C258 C 0.58025 0.07359 0.70744 0.0
C259 C 0.5877 0.03954 0.75049 0.0
C260 C 0.60783 0.04088 0.72436 0.0
C261 C 0.60016 0.07495 0.68112 0.0
C262 C 0.61384 0.05868 0.68898 0.0
C263 C 0.50796 0.0497 0.51649 0.0
H264 H 0.46455 0.96073 0.40465 0.0
H265 H 0.46862 0.02241 0.49042 0.0
H266 H 0.42699 0.96412 0.39637 0.0
H267 H 0.40999 0.99622 0.4315 0.0
H268 H 0.56986 0.08633 0.69934 0.0
H269 H 0.58289 0.0259 0.77785 0.0
H270 H 0.60494 0.0886 0.65393 0.0
H271 H 0.62913 0.06004 0.66727 0.0
Gd272 Gd 0.5019 0.52679 0.67752 0.0
Gd273 Gd 0.54069 0.51475 0.54365 0.0
C274 C 0.60984 0.51572 0.58425 0.0
C275 C 0.62094 0.54438 0.51363 0.0
C276 C 0.58487 0.5348 0.51737 0.0
C277 C 0.58933 0.51941 0.56407 0.0
C278 C 0.60067 0.54721 0.49046 0.0
C279 C 0.62553 0.5286 0.56025 0.0
C280 C 0.61408 0.49871 0.62573 0.0
C281 C 0.59809 0.48595 0.64638 0.0
N282 N 0.57383 0.50719 0.58612 0.0
C283 C 0.57802 0.49029 0.62537 0.0
H284 H 0.56597 0.48013 0.64162 0.0
C285 C 0.56057 0.5499 0.44166 0.0
N286 N 0.56524 0.53683 0.49491 0.0
C287 C 0.57565 0.56269 0.41388 0.0
C288 C 0.59575 0.56155 0.43912 0.0
H289 H 0.54502 0.55088 0.42217 0.0
H290 H 0.64132 0.52616 0.57599 0.0
H291 H 0.47717 0.56257 0.57906 0.0
H292 H 0.62968 0.49503 0.64078 0.0
H293 H 0.60124 0.47267 0.67806 0.0
H294 H 0.63326 0.55387 0.49406 0.0
H295 H 0.49549 0.4922 0.80293 0.0
H296 H 0.41391 0.54665 0.56624 0.0
H297 H 0.44273 0.56935 0.53491 0.0
H298 H 0.4079 0.49004 0.72207 0.0
H299 H 0.57176 0.57341 0.37312 0.0
H300 H 0.60744 0.57138 0.41723 0.0
H301 H 0.40111 0.51686 0.63548 0.0
H302 H 0.46793 0.4707 0.85171 0.0
N303 N 0.46878 0.53579 0.63546 0.0
C304 C 0.42914 0.54357 0.58643 0.0
C305 C 0.44535 0.55644 0.56884 0.0
C306 C 0.4327 0.52723 0.6315 0.0
C307 C 0.45288 0.52381 0.65588 0.0
C308 C 0.46506 0.55248 0.59459 0.0
N309 N 0.47604 0.50655 0.72835 0.0
C310 C 0.45665 0.5087 0.70396 0.0
C311 C 0.46453 0.48127 0.81 0.0
C312 C 0.44468 0.48257 0.7828 0.0
C313 C 0.48008 0.49355 0.78243 0.0
C314 C 0.44045 0.49661 0.72982 0.0
H315 H 0.43265 0.47303 0.80411 0.0
O316 O 0.5006 0.53309 0.7898 0.0
O317 O 0.53535 0.52427 0.65435 0.0
O318 O 0.53185 0.48591 0.60385 0.0
O319 O 0.49996 0.49249 0.65513 0.0
O320 O 0.52563 0.51156 0.74658 0.0
O321 O 0.50218 0.55832 0.7179 0.0
O322 O 0.53969 0.5085 0.43128 0.0
O323 O 0.50731 0.51618 0.56785 0.0
O324 O 0.51037 0.55493 0.61269 0.0
O325 O 0.54341 0.54865 0.57134 0.0
O326 O 0.51617 0.52791 0.47277 0.0
O327 O 0.54863 0.48444 0.50297 0.0
C328 C 0.54153 0.51556 0.70925 0.0
C329 C 0.42051 0.49932 0.70347 0.0
C330 C 0.41664 0.51459 0.65424 0.0
C331 C 0.505 0.55242 0.78239 0.0
C332 C 0.52397 0.55973 0.81791 0.0
C333 C 0.53406 0.54731 0.86705 0.0
C334 C 0.53314 0.57832 0.79836 0.0
C335 C 0.55236 0.58425 0.8259 0.0
C336 C 0.55321 0.55297 0.89383 0.0
C337 C 0.56243 0.57119 0.873 0.0
C338 C 0.51483 0.4797 0.63552 0.0
C339 C 0.50064 0.52401 0.51204 0.0
C340 C 0.54361 0.48902 0.43862 0.0
C341 C 0.52988 0.47476 0.40034 0.0
C342 C 0.52891 0.47576 0.32691 0.0
C343 C 0.51798 0.46009 0.43549 0.0
C344 C 0.50584 0.44584 0.39728 0.0
C345 C 0.51656 0.46213 0.28871 0.0
C346 C 0.50533 0.44714 0.32324 0.0
C347 C 0.52809 0.56138 0.58634 0.0
H348 H 0.52747 0.5329 0.88344 0.0
H349 H 0.52517 0.58824 0.7622 0.0
H350 H 0.56103 0.54309 0.9304 0.0
H351 H 0.5774 0.57509 0.89412 0.0
H352 H 0.53787 0.48703 0.29903 0.0
H353 H 0.5184 0.45967 0.49229 0.0
H354 H 0.51606 0.46285 0.2319 0.0
H355 H 0.49683 0.43618 0.29117 0.0
Gd356 Gd 1.01301 0.50972 0.68774 0.0
Gd357 Gd 0.02777 0.54467 0.54858 0.0
C358 C 0.03326 0.61464 0.57826 0.0
C359 C 1.00701 0.62701 0.49871 0.0
C360 C 1.0131 0.59032 0.50983 0.0
C361 C 0.02808 0.59418 0.55953 0.0
C362 C 1.00267 0.60668 0.47762 0.0
C363 C 0.02232 0.63099 0.54889 0.0
C364 C 0.04971 0.61808 0.6242 0.0
C365 C 0.06053 0.6014 0.65014 0.0
N366 N 0.03836 0.57799 0.58658 0.0
C367 C 0.05478 0.58143 0.63024 0.0
H368 H 0.0634 0.56901 0.65183 0.0
C369 C 0.99675 0.56611 0.43467 0.0
N370 N 1.00958 0.57056 0.4899 0.0
C371 C 0.98595 0.58176 0.40131 0.0
C372 C 0.98871 0.60213 0.42356 0.0
H373 H 0.99441 0.55035 0.41759 0.0
H374 H 0.02593 0.64677 0.56336 0.0
H375 H 0.97871 0.48228 0.59078 0.0
H376 H 0.05441 0.63354 0.63893 0.0
H377 H 0.07337 0.60389 0.6855 0.0
H378 H 0.99903 0.63977 0.4751 0.0
H379 H 0.04677 0.5078 0.82026 0.0
H380 H 0.99493 0.41882 0.59948 0.0
H381 H 0.97246 0.44641 0.55537 0.0
H382 H 0.0502 0.41813 0.76593 0.0
H383 H 0.97547 0.57808 0.3587 0.0
H384 H 0.98039 0.61425 0.39752 0.0
H385 H 0.02417 0.40844 0.67737 0.0
H386 H 0.06839 0.48215 0.87933 0.0
N387 N 1.00492 0.47557 0.65367 0.0
C388 C 0.99779 0.43464 0.61536 0.0
C389 C 0.98505 0.45015 0.59055 0.0
C390 C 1.01367 0.43967 0.66209 0.0
C391 C 0.01674 0.46051 0.68103 0.0
C392 C 0.98867 0.47059 0.61105 0.0
N393 N 0.03306 0.48598 0.74989 0.0
C394 C 0.03128 0.4659 0.73083 0.0
C395 C 0.05803 0.47736 0.8376 0.0
C396 C 0.05702 0.45672 0.8164 0.0
C397 C 0.0457 0.49184 0.80418 0.0
C398 C 0.04332 0.45071 0.76309 0.0
H399 H 0.06657 0.44553 0.84237 0.0
O400 O 1.00483 0.51503 0.79714 0.0
O401 O 0.01622 0.54257 0.65738 0.0
O402 O 0.05521 0.53581 0.61826 0.0
O403 O 0.04672 0.50442 0.66692 0.0
O404 O 0.0277 0.53496 0.75425 0.0
O405 O 0.98152 0.5056 0.7218 0.0
O406 O 0.03482 0.54228 0.43732 0.0
O407 O 0.02365 0.512 0.57773 0.0
O408 O 0.98542 0.51733 0.6185 0.0
O409 O 0.99322 0.54808 0.56364 0.0
O410 O 1.01231 0.52012 0.48115 0.0
O411 O 0.05949 0.54333 0.51348 0.0
C412 C 0.02438 0.54997 0.71264 0.0
C413 C 0.04097 0.43002 0.74225 0.0
C414 C 0.02616 0.42451 0.69181 0.0
C415 C 0.98526 0.5144 0.78279 0.0
C416 C 0.97348 0.53336 0.79918 0.0
C417 C 0.98204 0.54906 0.84185 0.0
C418 C 0.95448 0.53682 0.76626 0.0
C419 C 0.94426 0.55575 0.77453 0.0
C420 C 0.97207 0.56793 0.84989 0.0
C421 C 0.95335 0.57133 0.81634 0.0
C422 C 0.06039 0.51853 0.65026 0.0
C423 C 0.01529 0.50492 0.52228 0.0
C424 C 0.05408 0.53832 0.4493 0.0
C425 C 0.06179 0.51839 0.42115 0.0
C426 C 0.0505 0.50729 0.36999 0.0
C427 C 0.07968 0.50957 0.44901 0.0
C428 C 0.0864 0.49002 0.42592 0.0
C429 C 0.05678 0.48771 0.34811 0.0
C430 C 0.07461 0.47912 0.37558 0.0
C431 C 0.97984 0.53394 0.58366 0.0
H432 H 0.9967 0.547 0.86773 0.0
H433 H 0.94778 0.52485 0.73322 0.0
H434 H 0.97889 0.57998 0.88225 0.0
H435 H 0.94572 0.58594 0.82501 0.0
H436 H 0.03657 0.51353 0.34771 0.0
H437 H 0.08833 0.51791 0.48902 0.0
H438 H 0.04789 0.47922 0.30921 0.0
H439 H 0.07948 0.46423 0.35548 0.0
H440 H 0.22456 0.06312 0.1896 0.0
H441 H 0.19217 0.06579 0.2552 0.0
H442 H 0.17926 1.00212 0.20627 0.0
H443 H 0.21121 0.99964 0.13913 0.0
H444 H 0.14489 0.02425 0.19617 0.0
H445 H 0.18303 0.04438 0.449 0.0
H446 H 0.18821 0.06226 0.38058 0.0
H447 H 0.19723 0.03618 0.37217 0.0
C448 C 0.21461 0.04982 0.19177 0.0
C449 C 0.22029 0.03128 0.15772 0.0
C450 C 0.19618 0.05126 0.23016 0.0
C451 C 0.18324 0.03406 0.23698 0.0
C452 C 0.18881 0.01566 0.20204 0.0
H453 H 0.09395 1.0103 0.56249 0.0
H454 H 0.1237 1.01285 0.4855 0.0
C455 C 0.20711 1.01426 0.16339 0.0
C456 C 0.16417 0.03489 0.28136 0.0
H457 H 0.14677 0.04449 0.44872 0.0
C458 C 0.14532 0.02875 0.25136 0.0
C459 C 0.1646 0.04045 0.35386 0.0
C460 C 0.18436 0.046 0.39111 0.0
C461 C 0.12711 0.02793 0.2914 0.0
C462 C 0.12748 0.03386 0.36357 0.0
C463 C 0.1463 0.04011 0.39342 0.0
C464 C 0.10893 0.03257 0.41024 0.0
C465 C 0.10782 0.01995 0.25642 0.0
C466 C 0.09046 0.04281 0.39452 0.0
C467 C 0.07332 0.0414 0.43927 0.0
C468 C 0.0744 0.0301 0.50155 0.0
C469 C 0.09282 0.01983 0.51686 0.0
C470 C 0.10983 0.0211 0.47211 0.0
H471 H 0.11128 1.01093 0.20767 0.0
H472 H 0.09895 1.01008 0.29242 0.0
H473 H 0.09801 0.03313 0.2417 0.0
H474 H 0.08932 0.05211 0.34807 0.0
H475 H 0.05935 0.04947 0.42585 0.0
H476 H 0.50967 0.18721 0.03056 0.0
H477 H 0.51253 0.15772 0.10885 0.0
H478 H 0.47487 0.18936 0.26255 0.0
H479 H 0.47185 0.21876 0.18395 0.0
H480 H 0.52755 0.15433 0.24521 0.0
H481 H 0.44471 0.13466 0.23743 0.0
H482 H 0.45622 0.15217 0.17646 0.0
H483 H 0.45004 0.16071 0.26438 0.0
C484 C 0.50205 0.18785 0.08114 0.0
C485 C 0.49023 0.20512 0.10063 0.0
C486 C 0.50367 0.17099 0.12587 0.0
C487 C 0.49351 0.17102 0.19108 0.0
C488 C 0.4824 0.18866 0.21182 0.0
H489 H 0.48299 0.08344 0.53153 0.0
H490 H 0.47959 0.11244 0.45225 0.0
C491 C 0.4808 0.20553 0.16713 0.0
C492 C 0.49465 0.15267 0.2373 0.0
H493 H 0.46534 0.11624 0.31744 0.0
C494 C 0.51395 0.14596 0.2607 0.0
C495 C 0.47692 0.14168 0.25785 0.0
C496 C 0.4558 0.14751 0.23232 0.0
C497 C 0.51598 0.12892 0.30493 0.0
C498 C 0.49825 0.11787 0.32526 0.0
C499 C 0.47895 0.1246 0.30191 0.0
C500 C 0.49944 0.09955 0.37161 0.0
C501 C 0.53709 0.12328 0.33107 0.0
C502 C 0.51113 0.08218 0.35206 0.0
C503 C 0.51324 0.0656 0.39772 0.0
C504 C 0.50368 0.06596 0.46405 0.0
C505 C 0.49105 0.08285 0.48176 0.0
C506 C 0.48897 0.09943 0.43618 0.0
H507 H 0.54802 0.1363 0.32686 0.0
H508 H 0.53657 0.11845 0.38674 0.0
H509 H 0.54314 0.11028 0.2987 0.0
H510 H 0.51888 0.08155 0.30173 0.0
H511 H 0.52288 0.05282 0.38175 0.0
H512 H 0.3297 0.47658 0.18701 0.0
H513 H 0.35745 0.48022 0.27398 0.0
H514 H 0.37362 0.53884 0.18767 0.0
H515 H 0.34576 0.53526 0.10122 0.0
H516 H 0.3985 0.48277 0.24894 0.0
H517 H 0.37389 0.55264 0.39599 0.0
H518 H 0.35685 0.53852 0.33783 0.0
H519 H 0.37498 0.55652 0.3029 0.0
C520 C 0.339 0.49038 0.18737 0.0
C521 C 0.33562 0.5056 0.13702 0.0
C522 C 0.35492 0.49243 0.23699 0.0
C523 C 0.36766 0.50989 0.23819 0.0
C524 C 0.36386 0.52539 0.18911 0.0
H525 H 0.48344 0.54812 0.41396 0.0
H526 H 0.45029 0.54389 0.35454 0.0
C527 C 0.34798 0.52331 0.1394 0.0
C528 C 0.38565 0.51131 0.28748 0.0
H529 H 0.40899 0.5425 0.41084 0.0
C530 C 0.40062 0.4957 0.285 0.0
C531 C 0.38855 0.52813 0.33495 0.0
C532 C 0.37262 0.5448 0.34374 0.0
C533 C 0.41864 0.49688 0.32613 0.0
C534 C 0.4218 0.51402 0.37188 0.0
C535 C 0.40664 0.52938 0.37574 0.0
C536 C 0.44137 0.51698 0.41211 0.0
C537 C 0.4346 0.48019 0.31822 0.0
C538 C 0.44738 0.50346 0.46538 0.0
C539 C 0.46637 0.50597 0.49993 0.0
C540 C 0.47962 0.52212 0.48208 0.0
C541 C 0.47347 0.53566 0.42929 0.0
C542 C 0.4545 0.53327 0.39534 0.0
H543 H 0.43149 0.46987 0.27222 0.0
H544 H 0.45013 0.48697 0.31227 0.0
H545 H 0.43473 0.47074 0.36621 0.0
H546 H 0.43747 0.49088 0.47983 0.0
H547 H 0.47085 0.49507 0.53949 0.0
H548 H 1.00813 0.35138 0.0933 0.0
H549 H 1.00462 0.38004 0.17839 0.0
H550 H 0.05606 0.35688 0.29583 0.0
H551 H 0.05971 0.32836 0.21015 0.0
H552 H 0.99775 0.38231 0.32105 0.0
H553 H 0.07416 0.41567 0.26333 0.0
H554 H 0.06271 0.39581 0.20862 0.0
H555 H 0.07477 0.38939 0.29045 0.0
C556 C 0.01859 0.35234 0.13758 0.0
C557 C 0.03438 0.33774 0.14437 0.0
C558 C 0.01661 0.36877 0.18624 0.0
C559 C 0.03039 0.37109 0.24298 0.0
C560 C 0.04556 0.35591 0.25168 0.0
H561 H 0.04312 0.47411 0.55348 0.0
H562 H 0.04679 0.44047 0.49295 0.0
C563 C 0.04753 0.33946 0.20302 0.0
C564 C 0.02885 0.38939 0.2923 0.0
H565 H 0.05492 0.43192 0.35351 0.0
C566 C 1.0103 0.3931 0.32813 0.0
C567 C 0.0452 0.40358 0.3024 0.0
C568 C 0.06529 0.40109 0.2638 0.0
C569 C 1.00764 0.41042 0.37305 0.0
C570 C 0.0238 0.42487 0.38181 0.0
C571 C 0.04251 0.42093 0.34731 0.0
C572 C 0.02109 0.44477 0.42227 0.0
C573 C 0.98749 0.41293 0.41122 0.0
C574 C 1.00558 0.4586 0.40296 0.0
C575 C 1.00343 0.47766 0.4377 0.0
C576 C 0.01666 0.48353 0.49299 0.0
C577 C 0.03229 0.46981 0.51252 0.0
C578 C 0.03449 0.45064 0.47743 0.0
H579 H 0.97979 0.39788 0.41834 0.0
H580 H 0.98966 0.42039 0.46361 0.0
H581 H 0.9771 0.42268 0.37976 0.0
H582 H 0.9954 0.4549 0.35949 0.0
H583 H 0.99153 0.48805 0.42036 0.0
H584 H 0.84503 0.02233 0.18413 0.0
H585 H 0.87638 0.01814 0.11366 0.0
H586 H 0.84004 0.99707 0.9369 0.0
H587 H 0.80866 1.0016 1.00705 0.0
H588 H 0.89469 0.98534 0.0427 0.0
H589 H 0.8713 0.04469 0.85276 0.0
H590 H 0.85808 0.04112 0.93491 0.0
H591 H 0.85318 0.02412 0.86113 0.0
C592 C 0.84377 0.01666 0.13038 0.0
C593 C 0.82434 1.01259 0.10082 0.0
C594 C 0.86171 1.01427 0.09005 0.0
C595 C 0.86067 1.00775 0.01915 0.0
C596 C 0.84132 1.00264 0.99074 0.0
H597 H 0.95235 0.99734 0.68302 0.0
H598 H 0.92143 0.99485 0.75507 0.0
C599 C 0.82338 1.00505 0.03106 0.0
C600 C 0.87971 1.00681 0.97479 0.0
H601 H 0.90175 0.02633 0.8268 0.0
C602 C 0.89622 0.99433 0.99555 0.0
C603 C 0.88187 0.01852 0.91306 0.0
C604 C 0.86527 0.03302 0.88931 0.0
C605 C 0.91454 0.99305 0.95606 0.0
C606 C 0.91671 1.00485 0.89459 0.0
C607 C 0.90017 0.01721 0.87365 0.0
C608 C 0.93606 1.00501 0.85182 0.0
C609 C 0.93126 0.97871 0.97986 0.0
C610 C 0.95484 1.01132 0.88176 0.0
C611 C 0.97258 1.01298 0.84025 0.0
C612 C 0.97198 1.00867 0.76735 0.0
C613 C 0.95334 1.00153 0.7382 0.0
C614 C 0.93561 0.99992 0.77964 0.0
H615 H 0.92516 0.9666 0.01454 0.0
H616 H 0.93903 0.97119 0.93422 0.0
H617 H 0.9429 0.98763 0.0102 0.0
H618 H 0.95568 0.01559 0.937 0.0
H619 H 0.9866 0.0182 0.86526 0.0
H620 H 0.55416 0.82222 0.04837 0.0
H621 H 0.55799 0.85273 0.9756 0.0
H622 H 0.51384 0.88499 0.10534 0.0
H623 H 0.51027 0.8547 0.17859 0.0
H624 H 0.52954 0.87188 0.89647 0.0
H625 H 0.55856 0.92756 0.09619 0.0
H626 H 0.55787 0.90027 0.11112 0.0
H627 H 0.53509 0.91563 0.12284 0.0
C628 C 0.54563 0.83596 0.06231 0.0
C629 C 0.53234 0.83617 0.12062 0.0
C630 C 0.54774 0.8534 0.02038 0.0
C631 C 0.53655 0.87145 0.03554 0.0
C632 C 0.52317 0.87159 0.09351 0.0
H633 H 0.50839 0.98603 0.83222 0.0
H634 H 0.51177 0.95684 0.91033 0.0
C635 C 0.52109 0.8542 0.13539 0.0
C636 C 0.53789 0.88969 0.9887 0.0
H637 H 0.54581 0.94174 0.98935 0.0
C638 C 0.53335 0.8871 0.91672 0.0
C639 C 0.54284 0.90965 0.01471 0.0
C640 C 0.54907 0.91345 0.09029 0.0
C641 C 0.53294 0.9039 0.87091 0.0
C642 C 0.53743 0.9239 0.89735 0.0
C643 C 0.54229 0.92646 0.969 0.0
C644 C 0.53649 0.94239 0.85191 0.0
C645 C 0.52699 0.90021 0.79498 0.0
C646 C 0.54963 0.94442 0.79387 0.0
C647 C 0.5479 0.96135 0.74952 0.0
C648 C 0.53299 0.97666 0.76205 0.0
C649 C 0.52029 0.97488 0.82142 0.0
C650 C 0.52209 0.95801 0.86595 0.0
H651 H 0.51974 0.88491 0.78645 0.0
H652 H 0.51618 0.91224 0.77705 0.0
H653 H 0.54093 0.90088 0.76164 0.0
H654 H 0.56113 0.93281 0.78246 0.0
H655 H 0.55809 0.96228 0.7047 0.0
H656 H 0.71486 0.55373 0.04673 0.0
H657 H 0.68404 0.5569 0.9732 0.0
H658 H 0.65973 0.50147 0.06166 0.0
H659 H 0.69023 0.49849 0.13571 0.0
H660 H 0.66924 0.53178 0.87161 0.0
H661 H 0.61041 0.53813 0.07921 0.0
H662 H 0.63745 0.54093 0.09779 0.0
H663 H 0.62603 0.51575 0.09049 0.0
C664 C 0.70277 0.54247 0.05161 0.0
C665 C 0.7048 0.52615 0.09884 0.0
C666 C 0.68514 0.54424 0.0092 0.0
C667 C 0.66917 0.52971 0.01271 0.0
C668 C 0.67136 0.51332 0.05929 0.0
H669 H 0.55791 0.49144 0.80868 0.0
H670 H 0.58931 0.49681 0.87698 0.0
C671 C 0.68889 0.51158 0.10164 0.0
C672 C 0.65077 0.53082 0.9652 0.0
H673 H 0.59832 0.52785 0.96442 0.0
C674 C 0.65371 0.53121 0.89197 0.0
C675 C 0.63041 0.53031 0.99125 0.0
C676 C 0.62586 0.53149 0.06901 0.0
C677 C 0.63706 0.52984 0.84444 0.0
C678 C 0.61675 0.52816 0.87051 0.0
C679 C 0.6138 0.52875 0.94384 0.0
C680 C 0.59842 0.52447 0.82374 0.0
C681 C 0.64154 0.52917 0.76676 0.0
C682 C 0.59294 0.53801 0.76974 0.0
C683 C 0.57497 0.53473 0.72971 0.0
C684 C 0.56205 0.51792 0.74312 0.0
C685 C 0.56766 0.50438 0.79653 0.0
C686 C 0.5856 0.50753 0.83592 0.0
H687 H 0.65792 0.52568 0.75559 0.0
H688 H 0.6319 0.51739 0.74022 0.0
H689 H 0.63789 0.54431 0.74394 0.0
H690 H 0.60211 0.55152 0.76014 0.0
H691 H 0.57077 0.54578 0.69028 0.0
H692 H 0.98852 0.7337 0.99283 0.0
H693 H 0.98594 0.70081 0.92742 0.0
H694 H 0.03764 0.67763 0.04349 0.0
H695 H 0.03987 0.71016 0.10963 0.0
H696 H 1.01262 0.68256 0.83954 0.0
H697 H 0.99956 0.62974 0.0586 0.0
H698 H 0.99744 0.65726 0.06953 0.0
H699 H 0.02218 0.64491 0.07302 0.0
C700 C 0.999 0.72138 1.00546 0.0
C701 C 0.0142 0.72451 0.05728 0.0
C702 C 0.99763 0.7026 0.96763 0.0
C703 C 1.01138 0.68638 0.98082 0.0
C704 C 0.02644 0.68949 0.03316 0.0
H705 H 0.04723 0.56753 0.8159 0.0
H706 H 0.04261 0.60086 0.87497 0.0
C707 C 0.02777 0.70821 0.071 0.0
C708 C 1.01081 0.66671 0.93765 0.0
H709 H 1.01119 0.61426 0.95044 0.0
C710 C 1.01207 0.66763 0.86385 0.0
C711 C 1.00989 0.64707 0.96861 0.0
C712 C 1.00696 0.64465 0.04672 0.0
C713 C 1.01352 0.64969 0.82095 0.0
C714 C 1.01356 0.63005 0.85225 0.0
C715 C 1.01151 0.62917 0.92587 0.0
C716 C 0.01687 0.61027 0.81106 0.0
C717 C 0.01588 0.65205 0.74272 0.0
C718 C 1.00418 0.60418 0.7541 0.0
C719 C 1.00705 0.58503 0.71928 0.0
C720 C 0.02257 0.57148 0.74101 0.0
C721 C 0.03527 0.57767 0.79738 0.0
C722 C 0.03254 0.59675 0.83154 0.0
H723 H 0.02089 0.66779 0.72897 0.0
H724 H 0.0272 0.6409 0.72151 0.0
H725 H 1.00092 0.64904 0.71658 0.0
H726 H 0.99162 0.61389 0.7379 0.0
H727 H 0.99666 0.58052 0.67724 0.0
H728 H 0.09162 0.24107 0.19247 0.0
H729 H 0.1001 0.22154 0.29809 0.0
H730 H 0.04047 0.23629 0.3843 0.0
H731 H 0.03275 0.25681 0.28212 0.0
H732 H 0.0667 0.23148 0.48796 0.0
H733 H 0.07633 0.16586 0.29672 0.0
H734 H 0.09478 0.18623 0.29401 0.0
H735 H 0.06865 0.19083 0.26755 0.0
C736 C 0.0807 0.24058 0.23531 0.0
C737 C 0.06147 0.25017 0.22929 0.0
C738 C 0.08545 0.22932 0.29524 0.0
C739 C 0.07064 0.2268 0.34811 0.0
C740 C 0.05217 0.2379 0.34435 0.0
H741 H 0.99401 0.15671 0.52215 0.0
H742 H 0.0188 0.18396 0.50616 0.0
C743 C 0.0477 0.24959 0.28574 0.0
C744 C 0.07227 0.21041 0.40111 0.0
H745 H 0.06674 0.1584 0.40982 0.0
C746 C 0.06736 0.21545 0.4714 0.0
C747 C 0.07351 0.18939 0.38011 0.0
C748 C 0.07851 0.18264 0.30559 0.0
C749 C 0.06084 0.20032 0.51796 0.0
C750 C 0.05961 0.17974 0.49382 0.0
C751 C 0.06755 0.17432 0.42763 0.0
C752 C 0.04539 0.16495 0.52584 0.0
C753 C 0.05355 0.20663 0.59037 0.0
C754 C 0.05208 0.1453 0.54418 0.0
C755 C 0.03781 0.12959 0.55438 0.0
C756 C 0.01667 0.13319 0.54452 0.0
C757 C 1.01007 0.1533 0.53081 0.0
C758 C 0.02428 0.16901 0.52201 0.0
H759 H 0.06188 0.2205 0.60998 0.0
H760 H 0.03697 0.21048 0.58796 0.0
H761 H 0.05564 0.19401 0.62828 0.0
H762 H 0.06833 0.14183 0.54666 0.0
H763 H 0.04345 0.11443 0.56682 0.0
H764 H 0.31768 0.10706 0.14117 0.0
H765 H 0.34258 0.11657 0.23303 0.0
H766 H 0.3223 0.06549 0.35647 0.0
H767 H 0.29692 0.05656 0.2666 0.0
H768 H 0.3386 0.09771 0.44035 0.0
H769 H 0.39013 0.07694 0.21535 0.0
H770 H 0.37408 0.09913 0.20634 0.0
H771 H 0.36274 0.07396 0.20884 0.0
C772 C 0.31801 0.09844 0.18936 0.0
C773 C 0.30568 0.08089 0.19652 0.0
C774 C 0.33226 0.10383 0.24163 0.0
C775 C 0.33474 0.09134 0.30047 0.0
C776 C 0.32073 0.07531 0.31136 0.0
H777 H 0.40093 0.01842 0.52813 0.0
H778 H 0.37901 0.04792 0.51013 0.0
C779 C 0.30623 0.07017 0.25987 0.0
C780 C 0.35404 0.09167 0.34196 0.0
H781 H 0.40339 0.075 0.32696 0.0
C782 C 0.35298 0.0933 0.41566 0.0
C783 C 0.37293 0.08624 0.30977 0.0
C784 C 0.37517 0.08384 0.23087 0.0
C785 C 0.36975 0.08779 0.45801 0.0
C786 C 0.38779 0.08004 0.42569 0.0
C787 C 0.38958 0.08079 0.35217 0.0
C788 C 0.40264 0.06666 0.46291 0.0
C789 C 0.36757 0.08939 0.53682 0.0
C790 C 0.42369 0.06757 0.44681 0.0
C791 C 0.43612 0.05022 0.45446 0.0
C792 C 0.42768 0.03182 0.47922 0.0
C793 C 0.40764 0.03214 0.50637 0.0
C794 C 0.39514 0.0493 0.49747 0.0
H795 H 0.35921 0.10368 0.55194 0.0
H796 H 0.3583 0.07626 0.55547 0.0
H797 H 0.38269 0.08934 0.56385 0.0
H798 H 0.42995 0.08086 0.42083 0.0
H799 H 0.45161 0.05065 0.434 0.0
H800 H 0.51461 0.31709 0.20294 0.0
H801 H 0.51063 0.33463 0.31523 0.0
H802 H 0.46258 0.29238 0.37197 0.0
H803 H 0.46621 0.27487 0.25628 0.0
H804 H 0.45038 0.32999 0.40085 0.0
H805 H 0.52679 0.32592 0.51284 0.0
H806 H 0.53119 0.33174 0.42261 0.0
H807 H 0.51863 0.30792 0.4448 0.0
C808 C 0.50333 0.31135 0.23949 0.0
C809 C 0.49054 0.29482 0.22062 0.0
C810 C 0.5013 0.32116 0.30451 0.0
C811 C 0.48667 0.31454 0.35331 0.0
C812 C 0.47419 0.29757 0.33567 0.0
H813 H 0.51727 0.42581 0.51818 0.0
H814 H 0.50448 0.39328 0.5597 0.0
C815 C 0.47626 0.28761 0.26981 0.0
C816 C 0.4831 0.32759 0.41705 0.0
H817 H 0.51223 0.36241 0.50608 0.0
C818 C 0.46374 0.33672 0.42635 0.0
C819 C 0.49988 0.33554 0.45599 0.0
C820 C 0.52019 0.32448 0.45908 0.0
C821 C 0.46189 0.35591 0.46092 0.0
C822 C 0.47996 0.3666 0.48143 0.0
C823 C 0.49832 0.35526 0.48627 0.0
C824 C 0.48155 0.38952 0.47757 0.0
C825 C 0.44078 0.36495 0.47108 0.0
C826 C 0.47157 0.39975 0.4225 0.0
C827 C 0.47793 0.41918 0.40197 0.0
C828 C 0.49528 0.42848 0.43287 0.0
C829 C 0.50389 0.41932 0.49265 0.0
C830 C 0.49673 0.40033 0.51586 0.0
H831 H 0.43062 0.35342 0.49565 0.0
H832 H 0.44103 0.37903 0.50497 0.0
H833 H 0.43394 0.3685 0.41918 0.0
H834 H 0.46011 0.39214 0.39025 0.0
H835 H 0.47017 0.42611 0.35797 0.0
H836 H 0.25365 0.44647 0.19502 0.0
H837 H 0.23231 0.43377 0.29157 0.0
H838 H 0.21841 0.49639 0.35394 0.0
H839 H 0.24054 0.50888 0.26053 0.0
H840 H 0.21761 0.47135 0.4669 0.0
H841 H 0.17266 0.43643 0.24438 0.0
H842 H 0.19804 0.42675 0.25932 0.0
H843 H 0.19456 0.4525 0.22854 0.0
C844 C 0.2466 0.45738 0.23135 0.0
C845 C 0.24849 0.47858 0.22087 0.0
C846 C 0.23432 0.45016 0.28598 0.0
C847 C 0.22328 0.46412 0.32871 0.0
C848 C 0.22673 0.4853 0.3217 0.0
H849 H 0.1217 0.51164 0.45042 0.0
H850 H 0.15608 0.49805 0.45994 0.0
C851 C 0.23929 0.49247 0.26824 0.0
C852 C 0.20554 0.45751 0.37155 0.0
H853 H 0.1556 0.44343 0.34798 0.0
C854 C 0.20419 0.46464 0.44167 0.0
C855 C 0.18806 0.44843 0.33914 0.0
C856 C 0.18823 0.44065 0.26372 0.0
C857 C 0.18528 0.46521 0.47703 0.0
C858 C 0.16743 0.45851 0.44119 0.0
C859 C 0.16932 0.44873 0.37515 0.0
C860 C 0.14674 0.46611 0.46077 0.0
C861 C 0.18435 0.47439 0.55036 0.0
C862 C 0.12983 0.45275 0.46051 0.0
C863 C 0.10989 0.46057 0.45509 0.0
C864 C 0.10662 0.48185 0.44878 0.0
C865 C 0.12349 0.4952 0.45575 0.0
C866 C 0.14332 0.4874 0.46172 0.0
H867 H 0.1984 0.47048 0.58049 0.0
H868 H 0.18363 0.49139 0.54726 0.0
H869 H 0.17067 0.46895 0.57943 0.0
H870 H 0.13212 0.43626 0.45931 0.0
H871 H 0.09718 0.44988 0.45171 0.0
H872 H 0.98606 0.8001 0.95917 0.0
H873 H 0.97465 0.82462 0.87224 0.0
H874 H 0.92183 0.83952 1.00013 0.0
H875 H 0.93409 0.8158 0.0899 0.0
H876 H 0.94312 0.83846 0.79091 0.0
H877 H 0.95431 0.89103 0.02391 0.0
H878 H 0.96002 0.86408 0.0292 0.0
H879 H 0.93378 0.87275 0.02679 0.0
C880 C 0.97161 0.80804 0.96754 0.0
C881 C 0.96117 0.80648 0.03162 0.0
C882 C 0.96503 0.82204 0.91768 0.0
C883 C 0.94778 0.83449 0.93086 0.0
C884 C 0.93558 0.8306 0.99003 0.0
H885 H 0.98757 0.95236 0.81625 0.0
H886 H 0.95717 0.93058 0.81957 0.0
C887 C 0.94249 0.81698 0.04101 0.0
C888 C 0.9459 0.85394 0.89175 0.0
H889 H 0.95925 0.90419 0.91447 0.0
C890 C 0.94599 0.85302 0.81779 0.0
C891 C 0.94916 0.87314 0.92656 0.0
C892 C 0.94941 0.87544 1.00586 0.0
C893 C 0.95191 0.87009 0.77842 0.0
C894 C 0.95807 0.88833 0.81411 0.0
C895 C 0.95484 0.89013 0.88693 0.0
C896 C 0.97281 0.90302 0.78307 0.0
C897 C 0.9529 0.86793 0.69944 0.0
C898 C 0.99138 0.89526 0.75612 0.0
C899 C 1.00872 0.90774 0.75336 0.0
C900 C 1.00797 0.92814 0.77866 0.0
C901 C 0.98879 0.93665 0.79688 0.0
C902 C 0.97131 0.92418 0.79875 0.0
H903 H 0.93935 0.85928 0.67934 0.0
H904 H 0.9535 0.88309 0.67365 0.0
H905 H 0.96675 0.85893 0.6844 0.0
H906 H 0.99323 0.87902 0.74443 0.0
H907 H 0.02312 0.90089 0.73677 0.0
H908 H 0.72594 0.94238 0.08972 0.0
H909 H 0.70377 0.93497 0.98824 0.0
H910 H 0.73031 0.98643 0.88065 0.0
H911 H 0.75296 0.99302 0.97969 0.0
H912 H 0.67585 0.95995 0.96425 0.0
H913 H 0.71614 0.95357 0.71343 0.0
H914 H 0.72937 0.94939 0.79551 0.0
H915 H 0.72765 0.97485 0.75927 0.0
C916 C 0.72764 0.95141 0.04279 0.0
C917 C 0.74099 0.96836 0.04247 0.0
C918 C 0.715 0.94718 0.98481 0.0
C919 C 0.71525 0.96009 0.92632 0.0
C920 C 0.73006 0.97579 0.92372 0.0
H921 H 0.64805 0.04472 0.76113 0.0
H922 H 0.67209 0.01754 0.79027 0.0
C923 C 0.74297 0.97973 0.98094 0.0
C924 C 0.69732 0.96088 0.87796 0.0
H925 H 0.68531 0.97757 0.71395 0.0
C926 C 0.67778 0.96283 0.90867 0.0
C927 C 0.69951 0.96436 0.80508 0.0
C928 C 0.71934 0.96016 0.76664 0.0
C929 C 0.66124 0.97101 0.87127 0.0
C930 C 0.6644 0.9774 0.80157 0.0
C931 C 0.68308 0.97298 0.76798 0.0
C932 C 0.6506 0.99276 0.77055 0.0
C933 C 0.64121 0.97497 0.909 0.0
C934 C 0.63067 0.98772 0.74844 0.0
C935 C 0.61682 1.0033 0.7313 0.0
C936 C 0.62275 0.0241 0.73647 0.0
C937 C 0.64302 0.0289 0.75595 0.0
C938 C 0.65681 1.01338 0.77247 0.0
H939 H 0.64128 0.96903 0.96339 0.0
H940 H 0.63806 0.99175 0.91157 0.0
H941 H 0.62845 0.96751 0.87945 0.0
H942 H 0.62565 0.97185 0.74669 0.0
H943 H 0.60141 0.99911 0.71512 0.0
H944 H 0.57973 0.76391 0.99281 0.0
H945 H 0.58606 0.74447 0.8827 0.0
H946 H 0.53623 0.70357 0.9328 0.0
H947 H 0.5297 0.72302 0.04059 0.0
H948 H 0.59875 0.70631 0.87687 0.0
H949 H 0.52752 0.70705 0.72609 0.0
H950 H 0.53303 0.72659 0.79237 0.0
H951 H 0.52014 0.70306 0.81537 0.0
C952 C 0.56982 0.7511 0.97892 0.0
C953 C 0.55437 0.74477 0.02536 0.0
C954 C 0.57341 0.74006 0.9161 0.0
C955 C 0.56136 0.7228 0.89851 0.0
C956 C 0.54534 0.71719 0.94364 0.0
H957 H 0.5716 0.61051 0.91699 0.0
H958 H 0.58095 0.64586 0.89864 0.0
C959 C 0.54183 0.72809 1.00609 0.0
C960 C 0.56733 0.70822 0.8412 0.0
H961 H 0.54313 0.67155 0.7421 0.0
C962 C 0.58686 0.69917 0.84476 0.0
C963 C 0.55241 0.69934 0.7959 0.0
C964 C 0.53221 0.70977 0.78169 0.0
C965 C 0.59035 0.67954 0.81557 0.0
C966 C 0.57374 0.66868 0.7846 0.0
C967 C 0.55568 0.67943 0.7687 0.0
C968 C 0.57246 0.64597 0.78829 0.0
C969 C 0.61117 0.66981 0.82461 0.0
C970 C 0.56444 0.63398 0.7325 0.0
C971 C 0.55889 0.61348 0.74322 0.0
C972 C 0.56108 0.60474 0.81009 0.0
C973 C 0.57007 0.61651 0.8645 0.0
C974 C 0.57561 0.63684 0.8538 0.0
H975 H 0.62343 0.68125 0.81483 0.0
H976 H 0.61295 0.66474 0.8797 0.0
H977 H 0.61334 0.65639 0.78843 0.0
H978 H 0.56162 0.64073 0.68173 0.0
H979 H 0.55224 0.60471 0.69994 0.0
H980 H 0.81245 0.52796 0.99534 0.0
H981 H 0.82865 0.53677 0.88445 0.0
H982 H 0.78822 0.58892 0.8657 0.0
H983 H 0.77189 0.58012 0.978 0.0
H984 H 0.81413 0.54593 0.73865 0.0
H985 H 0.84746 0.61294 0.88661 0.0
H986 H 0.83517 0.59268 0.93435 0.0
H987 H 0.82009 0.6094 0.88084 0.0
C988 C 0.80682 0.54114 0.96713 0.0
C989 C 0.79125 0.55361 0.99568 0.0
C990 C 0.81589 0.54602 0.90339 0.0
C991 C 0.80967 0.56353 0.86707 0.0
C992 C 0.79322 0.57535 0.89308 0.0
H993 H 0.92781 0.59031 0.71473 0.0
H994 H 0.89133 0.59706 0.69422 0.0
C995 C 0.78397 0.57035 0.95705 0.0
C996 C 0.82298 0.57062 0.80951 0.0
H997 H 0.86759 0.59741 0.79949 0.0
C998 C 0.82544 0.55778 0.74995 0.0
C999 C 0.83735 0.5865 0.82279 0.0
C1000 C 0.83502 0.60127 0.88443 0.0
C1001 C 0.8435 0.55841 0.70987 0.0
C1002 C 0.85957 0.57165 0.73187 0.0
C1003 C 0.85552 0.58684 0.78349 0.0
C1004 C 0.88144 0.5663 0.71928 0.0
C1005 C 0.84589 0.54366 0.64835 0.0
C1006 C 0.88818 0.54653 0.73691 0.0
C1007 C 0.90888 0.54273 0.74939 0.0
C1008 C 0.92335 0.55864 0.74499 0.0
C1009 C 0.91693 0.57787 0.72039 0.0
C1010 C 0.89611 0.58169 0.70787 0.0
H1011 H 0.83156 0.54324 0.61661 0.0
H1012 H 0.85889 0.54793 0.61387 0.0
H1013 H 0.84847 0.52791 0.66799 0.0
H1014 H 0.8773 0.53447 0.74822 0.0
H1015 H 0.91319 0.52777 0.76865 0.0
H1016 H 1.00586 0.23307 0.99942 0.0
H1017 H 1.00139 0.20138 0.92872 0.0
H1018 H 0.06651 0.19967 0.88869 0.0
H1019 H 0.07103 0.23069 0.96219 0.0
H1020 H 1.00703 0.18817 0.80013 0.0
H1021 H 0.0608 0.14396 0.96443 0.0
H1022 H 0.05294 0.16972 0.98806 0.0
H1023 H 0.07313 0.16541 0.92471 0.0
C1024 C 0.01914 0.22614 0.97427 0.0
C1025 C 0.03878 0.2345 0.9861 0.0
C1026 C 0.01662 0.20787 0.93419 0.0
C1027 C 0.03367 0.19749 0.9047 0.0
C1028 C 0.05312 0.2067 0.91272 0.0
H1029 H 0.04594 0.07954 0.66802 0.0
H1030 H 0.05173 0.11417 0.71871 0.0
C1031 C 0.05568 0.22472 0.95376 0.0
C1032 C 0.03112 0.17699 0.86701 0.0
H1033 H 0.04892 0.12733 0.86017 0.0
C1034 C 0.01618 0.17489 0.8138 0.0
C1035 C 0.04291 0.15936 0.88412 0.0
C1036 C 0.05818 0.15963 0.94391 0.0
C1037 C 1.01283 0.15603 0.77752 0.0
C1038 C 0.02469 0.13849 0.79437 0.0
C1039 C 0.03983 0.14064 0.84669 0.0
C1040 C 0.02105 0.11763 0.76087 0.0
C1041 C 0.99671 0.15517 0.72074 0.0
C1042 C 1.00192 0.10782 0.76718 0.0
C1043 C 0.9987 0.08796 0.73895 0.0
C1044 C 0.01461 0.07713 0.7046 0.0
C1045 C 0.03357 0.08715 0.69619 0.0
C1046 C 0.03683 0.10704 0.72481 0.0
H1047 H 0.99416 0.1705 0.69748 0.0
H1048 H 1.0011 0.14417 0.67837 0.0
H1049 H 0.98198 0.14999 0.74369 0.0
H1050 H 0.98949 0.11539 0.79516 0.0
H1051 H 0.9838 0.08087 0.74523 0.0
H1052 H 0.31797 0.01674 0.99228 0.0
H1053 H 0.34806 1.01005 0.91735 0.0
H1054 H 0.34533 0.07227 0.84365 0.0
H1055 H 0.31585 0.07912 0.92059 0.0
H1056 H 0.358 1.01092 0.78035 0.0
H1057 H 0.40243 0.07195 0.91922 0.0
H1058 H 0.37757 0.06377 0.94925 0.0
H1059 H 0.37967 0.08152 0.87805 0.0
C1060 C 0.3235 0.02879 0.95861 0.0
C1061 C 0.31443 0.04839 0.96177 0.0
C1062 C 0.34083 0.02503 0.91615 0.0
C1063 C 0.3495 0.0408 0.87601 0.0
C1064 C 0.33949 0.05998 0.87556 0.0
H1065 H 0.46419 0.04516 0.62715 0.0
H1066 H 0.43025 0.0531 0.67761 0.0
C1067 C 0.32238 0.0638 0.91865 0.0
C1068 C 0.36938 0.03746 0.83733 0.0
H1069 H 0.41828 0.05611 0.8205 0.0
C1070 C 0.37118 0.02077 0.78957 0.0
C1071 C 0.38677 0.05029 0.84864 0.0
C1072 C 0.38664 0.06775 0.90205 0.0
C1073 C 0.38967 0.01661 0.75329 0.0
C1074 C 0.40705 0.02929 0.76536 0.0
C1075 C 0.40512 0.04627 0.81153 0.0
C1076 C 0.42763 0.02457 0.73372 0.0
C1077 C 0.39036 0.99876 0.70158 0.0
C1078 C 0.4377 1.00605 0.74889 0.0
C1079 C 0.4571 1.00161 0.72056 0.0
C1080 C 0.46715 0.01573 0.67747 0.0
C1081 C 0.4571 0.03424 0.66185 0.0
C1082 C 0.43762 0.0387 0.69019 0.0
H1083 H 0.37476 0.99449 0.6827 0.0
H1084 H 0.40007 1.00236 0.65546 0.0
H1085 H 0.39705 0.98521 0.72779 0.0
H1086 H 0.43059 0.99502 0.78313 0.0
H1087 H 0.46435 0.98711 0.73271 0.0
H1088 H 0.51462 0.33131 0.04157 0.0
H1089 H 0.51702 0.35883 0.95916 0.0
H1090 H 0.49579 0.3182 0.79252 0.0
H1091 H 0.49094 0.2908 0.87806 0.0
H1092 H 0.53827 0.36643 0.85796 0.0
H1093 H 0.45929 0.36378 0.74865 0.0
H1094 H 0.46687 0.3483 0.82177 0.0
H1095 H 0.47358 0.3406 0.73318 0.0
C1096 C 0.50975 0.32816 0.98799 0.0
C1097 C 0.50169 0.3088 0.96787 0.0
C1098 C 0.51154 0.34403 0.94003 0.0
C1099 C 0.50611 0.34111 0.86902 0.0
C1100 C 0.49933 0.32137 0.84723 0.0
H1101 H 0.54367 0.44892 0.62038 0.0
H1102 H 0.54189 0.4138 0.66278 0.0
C1103 C 0.49692 0.30548 0.89618 0.0
C1104 C 0.50799 0.35894 0.81984 0.0
H1105 H 0.48169 0.3884 0.70226 0.0
C1106 C 0.52578 0.3712 0.82422 0.0
C1107 C 0.49185 0.36542 0.77506 0.0
C1108 C 0.47175 0.35397 0.7697 0.0
C1109 C 0.52743 0.39004 0.78945 0.0
C1110 C 0.51139 0.39645 0.74419 0.0
C1111 C 0.49403 0.38369 0.73672 0.0
C1112 C 0.51161 0.41697 0.70881 0.0
C1113 C 0.54587 0.40338 0.80579 0.0
C1114 C 0.49454 0.43017 0.71415 0.0
C1115 C 0.49519 0.45005 0.68693 0.0
C1116 C 0.51312 0.4576 0.65531 0.0
C1117 C 0.52978 0.444 0.64629 0.0
C1118 C 0.52887 0.42386 0.67148 0.0
H1119 H 0.55315 0.39926 0.85651 0.0
H1120 H 0.55755 0.40112 0.76397 0.0
H1121 H 0.54164 0.4199 0.80885 0.0
H1122 H 0.4808 0.42535 0.74123 0.0
H1123 H 0.48171 0.45963 0.692 0.0
H1124 H 0.22507 0.46662 0.97962 0.0
H1125 H 0.19544 0.47041 0.90208 0.0
H1126 H 0.20967 0.53457 0.87841 0.0
H1127 H 0.23944 0.53087 0.95694 0.0
H1128 H 0.16241 0.49625 0.93342 0.0
H1129 H 0.19596 0.51565 0.67484 0.0
H1130 H 0.21083 0.50412 0.744 0.0
H1131 H 0.20488 0.53106 0.7482 0.0
C1132 C 0.22215 0.4815 0.95705 0.0
C1133 C 0.23468 0.49847 0.97506 0.0
C1134 C 0.20513 0.48364 0.91259 0.0
C1135 C 0.20017 0.50276 0.884 0.0
C1136 C 0.21323 0.51956 0.8988 0.0
H1137 H 0.09188 0.54695 0.65736 0.0
H1138 H 0.12583 0.54288 0.71063 0.0
C1139 C 0.23034 0.51743 0.94365 0.0
C1140 C 0.18039 0.50528 0.84437 0.0
H1141 H 0.15974 0.51804 0.68505 0.0
C1142 C 0.16188 0.50095 0.87902 0.0
C1143 C 0.17954 0.51151 0.77339 0.0
C1144 C 0.19883 0.51571 0.73246 0.0
C1145 C 0.14269 0.50289 0.84542 0.0
C1146 C 0.14179 0.50891 0.77417 0.0
C1147 C 0.1603 0.51337 0.73947 0.0
C1148 C 0.12175 0.51085 0.73566 0.0
C1149 C 0.12348 0.49894 0.88741 0.0
C1150 C 0.10826 0.49405 0.72908 0.0
C1151 C 0.08873 0.49637 0.69891 0.0
C1152 C 0.08211 0.51556 0.67421 0.0
C1153 C 0.09615 0.53203 0.67679 0.0
C1154 C 0.11569 0.52971 0.70721 0.0
H1155 H 0.12641 0.5001 0.94493 0.0
H1156 H 0.11113 0.50996 0.87392 0.0
H1157 H 0.11788 0.48316 0.87533 0.0
H1158 H 0.11269 0.47914 0.7484 0.0
H1159 H 0.07868 0.48314 0.69602 0.0
H1160 H 0.96454 0.82623 0.28715 0.0
H1161 H 0.97215 0.85638 0.36168 0.0
H1162 H 0.03664 0.84904 0.31778 0.0
H1163 H 0.029 0.81876 0.24253 0.0
H1164 H 0.99699 0.86376 0.48127 0.0
H1165 H 0.02459 0.908 0.25332 0.0
H1166 H 1.01069 0.88415 0.24304 0.0
H1167 H 0.03743 0.88391 0.26621 0.0
C1168 C 0.98041 0.83078 0.29445 0.0
C1169 C 0.99616 0.81998 0.25881 0.0
C1170 C 0.98474 0.84812 0.33701 0.0
C1171 C 1.00494 0.8554 0.3446 0.0
C1172 C 0.02086 0.84404 0.31198 0.0
H1173 H 0.05922 0.96611 0.53304 0.0
H1174 H 0.05173 0.93348 0.47212 0.0
C1175 C 0.01653 0.82652 0.26969 0.0
C1176 C 1.00904 0.87522 0.38433 0.0
H1177 H 0.02709 0.92426 0.36495 0.0
C1178 C 1.00359 0.87698 0.45578 0.0
C1179 C 0.01748 0.89266 0.35139 0.0
C1180 C 0.02274 0.89227 0.27414 0.0
C1181 C 1.00685 0.89532 0.49531 0.0
C1182 C 0.01537 0.91278 0.46242 0.0
C1183 C 0.02063 0.91103 0.39074 0.0
C1184 C 0.01965 0.93273 0.50138 0.0
C1185 C 1.00179 0.89555 0.57265 0.0
C1186 C 1.0042 0.94355 0.53864 0.0
C1187 C 1.00852 0.96237 0.57361 0.0
C1188 C 0.0283 0.97101 0.5711 0.0
C1189 C 0.04374 0.96006 0.53486 0.0
C1190 C 0.03945 0.94135 0.49995 0.0
H1191 H 1.00104 0.87977 0.59382 0.0
H1192 H 1.01339 0.90448 0.60312 0.0
H1193 H 0.98657 0.90286 0.58092 0.0
H1194 H 0.98869 0.93763 0.53989 0.0
H1195 H 0.99641 0.97015 0.6026 0.0
H1196 H 0.71945 0.96693 0.30079 0.0
H1197 H 0.68861 0.97504 0.36989 0.0
H1198 H 0.69769 0.03952 0.3331 0.0
H1199 H 0.72883 0.03144 0.26448 0.0
H1200 H 0.68218 1.00665 0.4945 0.0
H1201 H 0.63836 0.02084 0.24857 0.0
H1202 H 0.66127 1.00517 0.24927 0.0
H1203 H 0.66329 0.03256 0.25843 0.0
C1204 C 0.7152 0.98289 0.30917 0.0
C1205 C 0.72673 0.99856 0.27784 0.0
C1206 C 0.6975 0.98749 0.34835 0.0
C1207 C 0.69067 1.00787 0.35626 0.0
C1208 C 0.70261 0.02367 0.32756 0.0
H1209 H 0.57349 0.05969 0.49478 0.0
H1210 H 0.60773 0.05331 0.44578 0.0
C1211 C 0.72052 0.01907 0.28899 0.0
C1212 C 0.6705 1.01233 0.39092 0.0
H1213 H 0.62054 0.02479 0.35531 0.0
C1214 C 0.6687 1.01066 0.46417 0.0
C1215 C 0.65287 0.01754 0.35145 0.0
C1216 C 0.65382 0.01908 0.27248 0.0
C1217 C 0.6499 1.01444 0.49902 0.0
C1218 C 0.63212 0.01944 0.45953 0.0
C1219 C 0.63401 0.02101 0.38606 0.0
C1220 C 0.61154 0.02352 0.49287 0.0
C1221 C 0.6495 1.01377 0.57811 0.0
C1222 C 0.60204 1.00904 0.53644 0.0
C1223 C 0.58238 1.01273 0.56461 0.0
C1224 C 0.57158 0.03078 0.54871 0.0
C1225 C 0.58125 0.04545 0.50676 0.0
C1226 C 0.60086 0.04179 0.47872 0.0
H1227 H 0.66509 0.0156 0.60119 0.0
H1228 H 0.63948 0.0261 0.59985 0.0
H1229 H 0.64339 0.9987 0.59458 0.0
H1230 H 0.60958 0.99464 0.54751 0.0
H1231 H 0.57557 1.00138 0.59835 0.0
H1232 H 0.51401 0.74285 0.30749 0.0
H1233 H 0.51026 0.71387 0.38805 0.0
H1234 H 0.57321 0.69663 0.34981 0.0
H1235 H 0.57689 0.72537 0.26952 0.0
H1236 H 0.5154 0.67257 0.34459 0.0
H1237 H 0.56863 0.69099 0.56409 0.0
H1238 H 0.55939 0.71022 0.50444 0.0
H1239 H 0.58008 0.69339 0.47876 0.0
C1240 C 0.52721 0.73327 0.3183 0.0
C1241 C 0.54583 0.73656 0.28298 0.0
C1242 C 0.52503 0.7166 0.36387 0.0
C1243 C 0.54151 0.70307 0.37586 0.0
C1244 C 0.56037 0.70697 0.34289 0.0
H1245 H 0.56296 0.58219 0.5471 0.0
H1246 H 0.5654 0.61696 0.50085 0.0
C1247 C 0.56247 0.72343 0.29691 0.0
C1248 C 0.53857 0.68373 0.41632 0.0
H1249 H 0.55763 0.656 0.55328 0.0
C1250 C 0.52442 0.66909 0.39084 0.0
C1251 C 0.55047 0.67899 0.47634 0.0
C1252 C 0.56537 0.69429 0.50803 0.0
C1253 C 0.52238 0.64968 0.42184 0.0
C1254 C 0.53445 0.6448 0.48143 0.0
C1255 C 0.54836 0.6596 0.50773 0.0
C1256 C 0.53325 0.6242 0.51537 0.0
C1257 C 0.50789 0.63424 0.3884 0.0
C1258 C 0.51458 0.61677 0.54181 0.0
C1259 C 0.51308 0.59672 0.56732 0.0
C1260 C 0.53022 0.58352 0.56724 0.0
C1261 C 0.54922 0.59151 0.54535 0.0
C1262 C 0.5507 0.61155 0.51955 0.0
H1263 H 0.50396 0.63828 0.33347 0.0
H1264 H 0.51463 0.61857 0.38804 0.0
H1265 H 0.49342 0.63393 0.41903 0.0
H1266 H 0.50101 0.62638 0.54159 0.0
H1267 H 0.49831 0.59149 0.58552 0.0
H1268 H 0.82883 0.52276 0.17421 0.0
H1269 H 0.85712 0.52162 0.25672 0.0
H1270 H 0.81906 0.54934 0.41776 0.0
H1271 H 0.79077 0.55208 0.33248 0.0
H1272 H 0.85477 0.56621 0.42675 0.0
H1273 H 0.87021 0.48341 0.40621 0.0
H1274 H 0.87156 0.49373 0.31984 0.0
H1275 H 0.84762 0.49456 0.36766 0.0
C1276 C 0.82632 0.52876 0.227 0.0
C1277 C 0.80738 0.53782 0.24581 0.0
C1278 C 0.84258 0.52772 0.27498 0.0
C1279 C 0.84039 0.53496 0.34464 0.0
C1280 C 0.82129 0.5435 0.36462 0.0
H1281 H 0.94802 0.50714 0.60772 0.0
H1282 H 0.91294 0.5085 0.56334 0.0
C1283 C 0.80498 0.54487 0.31589 0.0
C1284 C 0.85846 0.53452 0.39427 0.0
H1285 H 0.89915 0.50459 0.44239 0.0
C1286 C 0.86428 0.5526 0.43091 0.0
C1287 C 0.87079 0.51672 0.40243 0.0
C1288 C 0.86454 0.49599 0.37255 0.0
C1289 C 0.88245 0.55367 0.47156 0.0
C1290 C 0.89585 0.53644 0.47361 0.0
C1291 C 0.8894 0.51807 0.44014 0.0
C1292 C 0.91672 0.53706 0.50811 0.0
C1293 C 0.8868 0.57323 0.51266 0.0
C1294 C 0.93083 0.55289 0.49422 0.0
C1295 C 0.95088 0.55244 0.52162 0.0
C1296 C 0.95779 0.53575 0.56134 0.0
C1297 C 0.94353 0.52018 0.57668 0.0
C1298 C 0.92333 0.52089 0.55089 0.0
H1299 H 0.87229 0.58077 0.52989 0.0
H1300 H 0.89632 0.57036 0.55986 0.0
H1301 H 0.89501 0.58414 0.47844 0.0
H1302 H 0.9266 0.56539 0.4604 0.0
H1303 H 0.96105 0.56504 0.51029 0.0
loop_
_geom_bond_atom_site_label_1
_geom_bond_atom_site_label_2
_geom_bond_distance
_geom_bond_site_symmetry_2
_ccdc_geom_bond_type
H0 C7 0.929 . S
H1 C10 0.930 . S
H2 C12 0.929 . S
H3 C4 0.969 . S
C4 H3 0.969 . S
C4 O5 1.550 . S
C4 H6 0.973 . S
O5 C4 1.550 . S
O5 C11 1.412 . S
H6 C4 0.973 . S
C7 H0 0.929 . S
C7 C8 1.400 . S
C7 C9 1.364 . S
C8 C7 1.400 . S
C8 C12 1.377 . S
C9 C7 1.364 . S
C9 C10 1.374 . S
C10 H1 0.930 . S
C10 C9 1.374 . S
C10 C11 1.383 . S
C11 O5 1.412 . S
C11 C10 1.383 . S
C11 C12 1.394 . S
C12 H2 0.929 . S
C12 C8 1.377 . S
C12 C11 1.394 . S
H13 C20 0.929 . S
H14 C23 0.930 . S
H15 C25 0.929 . S
H16 C17 0.969 . S
C17 H16 0.969 . S
C17 O18 1.550 . S
C17 H19 0.973 . S
O18 C17 1.550 . S
O18 C24 1.412 . S
H19 C17 0.973 . S
C20 H13 0.929 . S
C20 C21 1.400 . S
C20 C22 1.364 . S
C21 C20 1.400 . S
C21 C25 1.377 . S
C22 C20 1.364 . S
C22 C23 1.374 . S
C23 H14 0.930 . S
C23 C22 1.374 . S
C23 C24 1.383 . S
C24 O18 1.412 . S
C24 C23 1.383 . S
C24 C25 1.394 . S
C25 H15 0.929 . S
C25 C21 1.377 . S
C25 C24 1.394 . S
H26 C33 0.929 . S
H27 C36 0.930 . S
H28 C38 0.929 . S
H29 C30 0.969 . S
C30 H29 0.969 . S
C30 O31 1.550 . S
C30 H32 0.973 . S
O31 C30 1.550 . S
O31 C37 1.412 . S
H32 C30 0.973 . S
C33 H26 0.929 . S
C33 C34 1.400 . S
C33 C35 1.364 . S
C34 C33 1.400 . S
C34 C38 1.377 . S
C35 C33 1.364 . S
C35 C36 1.374 . S
C36 H27 0.930 . S
C36 C35 1.374 . S
C36 C37 1.383 . S
C37 O31 1.412 . S
C37 C36 1.383 . S
C37 C38 1.394 . S
C38 H28 0.929 . S
C38 C34 1.377 . S
C38 C37 1.394 . S
H39 C46 0.929 . S
H40 C49 0.930 . S
H41 C51 0.929 . S
H42 C43 0.969 . S
C43 H42 0.969 . S
C43 O44 1.550 . S
C43 H45 0.973 . S
O44 C43 1.550 . S
O44 C50 1.412 . S
H45 C43 0.973 . S
C46 H39 0.929 . S
C46 C47 1.400 . S
C46 C48 1.364 . S
C47 C46 1.400 . S
C47 C51 1.377 . S
C48 C46 1.364 . S
C48 C49 1.374 . S
C49 H40 0.930 . S
C49 C48 1.374 . S
C49 C50 1.383 . S
C50 O44 1.412 . S
C50 C49 1.383 . S
C50 C51 1.394 . S
C51 H41 0.929 . S
C51 C47 1.377 . S
C51 C50 1.394 . S
H52 C59 0.929 . S
H53 C62 0.930 . S
H54 C64 0.929 . S
H55 C56 0.969 . S
C56 H55 0.969 . S
C56 O57 1.550 . S
C56 H58 0.973 . S
O57 C56 1.550 . S
O57 C63 1.412 . S
H58 C56 0.973 . S
C59 H52 0.929 . S
C59 C60 1.400 . S
C59 C61 1.364 1_556 S
C60 C59 1.400 . S
C60 C64 1.377 . S
C61 C59 1.364 1_554 S
C61 C62 1.374 . S
C62 H53 0.930 . S
C62 C61 1.374 . S
C62 C63 1.383 . S
C63 O57 1.412 . S
C63 C62 1.383 . S
C63 C64 1.394 1_554 S
C64 H54 0.929 . S
C64 C60 1.377 . S
C64 C63 1.394 1_556 S
H65 C72 0.929 . S
H66 C75 0.930 . S
H67 C77 0.929 . S
H68 C69 0.969 . S
C69 H68 0.969 . S
C69 O70 1.550 . S
C69 H71 0.973 . S
O70 C69 1.550 . S
O70 C76 1.412 . S
H71 C69 0.973 . S
C72 H65 0.929 . S
C72 C73 1.400 . S
C72 C74 1.364 1_556 S
C73 C72 1.400 . S
C73 C77 1.377 . S
C74 C72 1.364 1_554 S
C74 C75 1.374 . S
C75 H66 0.930 . S
C75 C74 1.374 . S
C75 C76 1.383 . S
C76 O70 1.412 . S
C76 C75 1.383 . S
C76 C77 1.394 1_554 S
C77 H67 0.929 . S
C77 C73 1.377 . S
C77 C76 1.394 1_556 S
H78 C85 0.929 . S
H79 C88 0.930 . S
H80 C90 0.929 . S
H81 C82 0.969 . S
C82 H81 0.969 . S
C82 O83 1.550 . S
C82 H84 0.973 . S
O83 C82 1.550 . S
O83 C89 1.412 . S
H84 C82 0.973 . S
C85 H78 0.929 . S
C85 C86 1.400 . S
C85 C87 1.364 1_556 S
C86 C85 1.400 . S
C86 C90 1.377 . S
C87 C85 1.364 1_554 S
C87 C88 1.374 . S
C88 H79 0.930 . S
C88 C87 1.374 . S
C88 C89 1.383 . S
C89 O83 1.412 . S
C89 C88 1.383 . S
C89 C90 1.394 1_554 S
C90 H80 0.929 . S
C90 C86 1.377 . S
C90 C89 1.394 1_556 S
H91 C98 0.929 . S
H92 C101 0.930 . S
H93 C103 0.929 . S
H94 C95 0.969 . S
C95 H94 0.969 . S
C95 O96 1.550 . S
C95 H97 0.973 . S
O96 C95 1.550 . S
O96 C102 1.412 . S
H97 C95 0.973 . S
C98 H91 0.929 . S
C98 C99 1.400 . S
C98 C100 1.364 1_556 S
C99 C98 1.400 . S
C99 C103 1.377 . S
C100 C98 1.364 1_554 S
C100 C101 1.374 . S
C101 H92 0.930 . S
C101 C100 1.374 . S
C101 C102 1.383 . S
C102 O96 1.412 . S
C102 C101 1.383 . S
C102 C103 1.394 1_554 S
C103 H93 0.929 . S
C103 C99 1.377 . S
C103 C102 1.394 1_556 S
Gd104 N135 2.661 . S
Gd104 N141 2.601 . S
Gd104 O148 2.545 . S
Gd104 O149 2.606 1_655 S
Gd104 O151 2.429 . S
Gd104 O152 2.545 1_655 S
Gd104 O153 2.412 1_655 S
Gd104 O155 2.362 1_545 S
Gd104 O156 2.324 1_655 S
Gd104 C163 2.828 . S
Gd105 N114 2.661 1_565 S
Gd105 N118 2.598 1_565 S
Gd105 O149 2.362 1_565 S
Gd105 O150 2.324 1_455 S
Gd105 O154 2.545 . S
Gd105 O155 2.606 1_455 S
Gd105 O157 2.429 . S
Gd105 O158 2.545 . S
Gd105 O159 2.412 . S
Gd105 C172 2.828 . S
C106 C109 1.417 . S
C106 C111 1.431 . S
C106 C112 1.412 . S
C107 C110 1.437 . S
C107 C111 1.317 . S
C107 H126 0.929 . S
C108 C109 1.426 . S
C108 C110 1.413 . S
C108 N118 1.366 . S
C109 C106 1.417 . S
C109 C108 1.426 . S
C109 N114 1.350 . S
C110 C107 1.437 . S
C110 C108 1.413 . S
C110 C120 1.391 . S
C111 C106 1.431 . S
C111 C107 1.317 . S
C111 H122 0.930 . S
C112 C106 1.412 . S
C112 C113 1.355 . S
C112 H124 0.930 . S
C113 C112 1.355 . S
C113 C115 1.402 . S
C113 H125 0.930 1_455 S
N114 Gd105 2.661 1_545 S
N114 C109 1.350 . S
N114 C115 1.307 . S
C115 C113 1.402 . S
C115 N114 1.307 . S
C115 H116 0.930 1_455 S
H116 C115 0.930 1_655 S
C117 N118 1.329 1_565 S
C117 C119 1.394 . S
C117 H121 0.930 . S
N118 Gd105 2.598 1_545 S
N118 C108 1.366 . S
N118 C117 1.329 1_545 S
C119 C117 1.394 . S
C119 C120 1.359 1_565 S
C119 H131 0.930 . S
C120 C110 1.391 . S
C120 C119 1.359 1_545 S
C120 H132 0.929 . S
H121 C117 0.930 . S
H122 C111 0.930 . S
H123 C140 0.930 . S
H124 C112 0.930 . S
H125 C113 0.930 1_655 S
H126 C107 0.929 . S
H127 C145 0.930 . S
H128 C136 0.930 . S
H129 C137 0.930 . S
H130 C161 0.929 . S
H131 C119 0.930 . S
H132 C120 0.929 . S
H133 C162 0.930 . S
H134 C143 0.930 . S
N135 Gd104 2.661 . S
N135 C139 1.341 1_545 S
N135 C140 1.307 1_645 S
C136 H128 0.930 . S
C136 C137 1.355 1_655 S
C136 C138 1.412 . S
C137 H129 0.930 . S
C137 C136 1.355 1_455 S
C137 C140 1.402 . S
C138 C136 1.412 . S
C138 C139 1.446 . S
C138 C162 1.431 . S
C139 N135 1.341 1_565 S
C139 C138 1.446 . S
C139 C142 1.408 1_565 S
C140 H123 0.930 . S
C140 N135 1.307 1_465 S
C140 C137 1.402 . S
N141 Gd104 2.601 . S
N141 C142 1.359 . S
N141 C145 1.334 . S
C142 C139 1.408 1_545 S
C142 N141 1.359 . S
C142 C146 1.413 . S
C143 H134 0.930 . S
C143 C144 1.359 . S
C143 C145 1.394 . S
C144 C143 1.359 . S
C144 C146 1.391 . S
C144 H147 0.929 . S
C145 H127 0.930 . S
C145 N141 1.334 . S
C145 C143 1.394 . S
C146 C142 1.413 . S
C146 C144 1.391 . S
C146 C161 1.437 1_545 S
H147 C144 0.929 . S
O148 Gd104 2.545 . S
O148 C163 1.258 . S
O149 Gd104 2.606 1_455 S
O149 Gd105 2.362 1_545 S
O149 C160 1.284 . S
O150 Gd105 2.324 1_655 S
O150 C170 1.254 1_565 S
O151 Gd104 2.429 . S
O151 C170 1.268 . S
O152 Gd104 2.545 1_455 S
O152 C160 1.250 . S
O153 Gd104 2.412 1_455 S
O153 C163 1.251 1_455 S
O154 Gd105 2.545 . S
O154 C172 1.258 . S
O155 Gd104 2.362 1_565 S
O155 Gd105 2.606 1_655 S
O155 C171 1.284 . S
O156 Gd104 2.324 1_455 S
O156 C179 1.254 . S
O157 Gd105 2.429 . S
O157 C179 1.268 1_565 S
O158 Gd105 2.545 . S
O158 C171 1.250 1_455 S
O159 Gd105 2.412 . S
O159 C172 1.252 . S
C160 O149 1.284 . S
C160 O152 1.250 . S
C161 H130 0.929 . S
C161 C146 1.437 1_565 S
C161 C162 1.317 . S
C162 H133 0.930 . S
C162 C138 1.431 . S
C162 C161 1.317 . S
C163 Gd104 2.828 . S
C163 O148 1.258 . S
C163 O153 1.251 1_655 S
C163 C164 1.497 . S
C164 C163 1.497 . S
C164 C165 1.395 . S
C164 C166 1.338 1_655 S
C165 C164 1.395 . S
C165 C168 1.398 . S
C165 H180 0.930 . S
C166 C164 1.338 1_455 S
C166 C167 1.389 1_455 S
C166 H181 0.976 . S
C167 C166 1.389 1_655 S
C167 C169 1.396 . S
C168 C165 1.398 . S
C168 C169 1.380 . S
C168 H182 0.930 . S
C169 C167 1.396 . S
C169 C168 1.380 . S
C169 H183 0.930 . S
C170 O150 1.254 1_545 S
C170 O151 1.268 . S
C171 O155 1.284 . S
C171 O158 1.250 1_655 S
C172 Gd105 2.828 . S
C172 O154 1.258 . S
C172 O159 1.252 . S
C172 C173 1.497 . S
C173 C172 1.497 . S
C173 C174 1.395 . S
C173 C175 1.380 . S
C174 C173 1.395 . S
C174 C177 1.398 . S
C174 H184 0.930 . S
C175 C173 1.380 . S
C175 C176 1.391 . S
C175 H185 0.930 1_455 S
C176 C175 1.391 . S
C176 C178 1.387 . S
C177 C174 1.398 . S
C177 C178 1.380 . S
C177 H186 0.930 . S
C178 C176 1.387 . S
C178 C177 1.380 . S
C178 H187 0.930 . S
C179 O156 1.254 . S
C179 O157 1.268 1_545 S
H180 C165 0.930 . S
H181 C166 0.976 . S
H182 C168 0.930 . S
H183 C169 0.930 . S
H184 C174 0.930 . S
H185 C175 0.930 1_655 S
H186 C177 0.930 . S
H187 C178 0.930 . S
Gd188 N219 2.661 . S
Gd188 N225 2.601 . S
Gd188 O232 2.545 . S
Gd188 O233 2.606 1_565 S
Gd188 O235 2.429 . S
Gd188 O236 2.545 1_565 S
Gd188 O237 2.412 1_565 S
Gd188 O239 2.362 . S
Gd188 O240 2.324 1_565 S
Gd188 C247 2.828 . S
Gd189 N198 2.661 . S
Gd189 N202 2.601 . S
Gd189 O233 2.362 . S
Gd189 O234 2.324 1_545 S
Gd189 O238 2.545 . S
Gd189 O239 2.607 1_545 S
Gd189 O241 2.429 . S
Gd189 O242 2.545 . S
Gd189 O243 2.412 . S
Gd189 C256 2.828 . S
C190 C193 1.417 . S
C190 C195 1.431 . S
C190 C196 1.412 . S
C191 C194 1.437 . S
C191 C195 1.317 . S
C191 H210 0.929 . S
C192 C193 1.426 . S
C192 C194 1.413 . S
C192 N202 1.359 . S
C193 C190 1.417 . S
C193 C192 1.426 . S
C193 N198 1.350 . S
C194 C191 1.437 . S
C194 C192 1.413 . S
C194 C204 1.391 . S
C195 C190 1.431 . S
C195 C191 1.317 . S
C195 H206 0.930 . S
C196 C190 1.412 . S
C196 C197 1.355 . S
C196 H208 0.930 . S
C197 C196 1.355 . S
C197 C199 1.402 . S
C197 H209 0.930 1_545 S
N198 Gd189 2.661 . S
N198 C193 1.350 . S
N198 C199 1.307 . S
C199 C197 1.402 . S
C199 N198 1.307 . S
C199 H200 0.930 1_545 S
H200 C199 0.930 1_565 S
C201 N202 1.334 . S
C201 C203 1.394 . S
C201 H205 0.930 . S
N202 Gd189 2.601 . S
N202 C192 1.359 . S
N202 C201 1.334 . S
C203 C201 1.394 . S
C203 C204 1.359 . S
C203 H215 0.930 . S
C204 C194 1.391 . S
C204 C203 1.359 . S
C204 H216 0.929 . S
H205 C201 0.930 . S
H206 C195 0.930 . S
H207 C224 0.930 . S
H208 C196 0.930 . S
H209 C197 0.930 1_565 S
H210 C191 0.929 . S
H211 C229 0.930 . S
H212 C220 0.930 . S
H213 C221 0.930 . S
H214 C245 0.929 . S
H215 C203 0.930 . S
H216 C204 0.929 . S
H217 C246 0.930 . S
H218 C227 0.930 . S
N219 Gd188 2.661 . S
N219 C223 1.350 . S
N219 C224 1.307 1_565 S
C220 H212 0.930 . S
C220 C221 1.355 1_565 S
C220 C222 1.412 . S
C221 H213 0.930 . S
C221 C220 1.355 1_545 S
C221 C224 1.402 . S
C222 C220 1.412 . S
C222 C223 1.417 . S
C222 C246 1.431 . S
C223 N219 1.350 . S
C223 C222 1.417 . S
C223 C226 1.426 . S
C224 H207 0.930 . S
C224 N219 1.307 1_545 S
C224 C221 1.402 . S
N225 Gd188 2.601 . S
N225 C226 1.359 . S
N225 C229 1.334 . S
C226 C223 1.426 . S
C226 N225 1.359 . S
C226 C230 1.413 . S
C227 H218 0.930 . S
C227 C228 1.359 . S
C227 C229 1.394 . S
C228 C227 1.359 . S
C228 C230 1.391 . S
C228 H231 0.929 . S
C229 H211 0.930 . S
C229 N225 1.334 . S
C229 C227 1.394 . S
C230 C226 1.413 . S
C230 C228 1.391 . S
C230 C245 1.437 . S
H231 C228 0.929 . S
O232 Gd188 2.545 . S
O232 C247 1.258 . S
O233 Gd188 2.606 1_545 S
O233 Gd189 2.362 . S
O233 C244 1.284 . S
O234 Gd189 2.324 1_565 S
O234 C254 1.254 . S
O235 Gd188 2.429 . S
O235 C254 1.268 . S
O236 Gd188 2.545 1_545 S
O236 C244 1.250 . S
O237 Gd188 2.412 1_545 S
O237 C247 1.252 1_545 S
O238 Gd189 2.545 . S
O238 C256 1.258 . S
O239 Gd188 2.362 . S
O239 Gd189 2.607 1_565 S
O239 C255 1.284 1_565 S
O240 Gd188 2.324 1_545 S
O240 C263 1.254 . S
O241 Gd189 2.429 . S
O241 C263 1.268 . S
O242 Gd189 2.545 . S
O242 C255 1.257 . S
O243 Gd189 2.412 . S
O243 C256 1.252 . S
C244 O233 1.284 . S
C244 O236 1.250 . S
C245 H214 0.929 . S
C245 C230 1.437 . S
C245 C246 1.317 . S
C246 H217 0.930 . S
C246 C222 1.431 . S
C246 C245 1.317 . S
C247 Gd188 2.828 . S
C247 O232 1.258 . S
C247 O237 1.252 1_565 S
C247 C248 1.497 . S
C248 C247 1.497 . S
C248 C249 1.395 . S
C248 C250 1.380 1_565 S
C249 C248 1.395 . S
C249 C252 1.398 . S
C249 H264 0.930 . S
C250 C248 1.380 1_545 S
C250 C251 1.391 . S
C250 H265 0.930 . S
C251 C250 1.391 . S
C251 C253 1.387 1_545 S
C252 C249 1.398 . S
C252 C253 1.380 . S
C252 H266 0.930 . S
C253 C251 1.387 1_565 S
C253 C252 1.380 . S
C253 H267 0.930 . S
C254 O234 1.254 . S
C254 O235 1.268 . S
C255 O239 1.284 1_545 S
C255 O242 1.257 . S
C256 Gd189 2.828 . S
C256 O238 1.258 . S
C256 O243 1.252 . S
C256 C257 1.497 . S
C257 C256 1.497 . S
C257 C258 1.395 . S
C257 C259 1.380 . S
C258 C257 1.395 . S
C258 C261 1.398 . S
C258 H268 0.930 . S
C259 C257 1.380 . S
C259 C260 1.391 . S
C259 H269 0.930 . S
C260 C259 1.391 . S
C260 C262 1.387 . S
C261 C258 1.398 . S
C261 C262 1.380 . S
C261 H270 0.930 . S
C262 C260 1.387 . S
C262 C261 1.380 . S
C262 H271 0.930 . S
C263 O240 1.254 . S
C263 O241 1.268 . S
H264 C249 0.930 . S
H265 C250 0.930 . S
H266 C252 0.930 . S
H267 C253 0.930 . S
H268 C258 0.930 . S
H269 C259 0.930 . S
H270 C261 0.930 . S
H271 C262 0.930 . S
Gd272 N303 2.661 . S
Gd272 N309 2.601 . S
Gd272 O316 2.545 . S
Gd272 O317 2.606 . S
Gd272 O319 2.429 . S
Gd272 O320 2.545 . S
Gd272 O321 2.412 . S
Gd272 O323 2.362 . S
Gd272 O324 2.324 . S
Gd272 C331 2.828 . S
Gd273 N282 2.661 . S
Gd273 N286 2.601 . S
Gd273 O317 2.362 . S
Gd273 O318 2.324 . S
Gd273 O322 2.545 . S
Gd273 O323 2.606 . S
Gd273 O325 2.429 . S
Gd273 O326 2.545 . S
Gd273 O327 2.412 . S
Gd273 C340 2.828 . S
C274 C277 1.417 . S
C274 C279 1.431 . S
C274 C280 1.412 . S
C275 C278 1.437 . S
C275 C279 1.317 . S
C275 H294 0.929 . S
C276 C277 1.426 . S
C276 C278 1.413 . S
C276 N286 1.359 . S
C277 C274 1.417 . S
C277 C276 1.426 . S
C277 N282 1.350 . S
C278 C275 1.437 . S
C278 C276 1.413 . S
C278 C288 1.391 . S
C279 C274 1.431 . S
C279 C275 1.317 . S
C279 H290 0.930 . S
C280 C274 1.412 . S
C280 C281 1.355 . S
C280 H292 0.930 . S
C281 C280 1.355 . S
C281 C283 1.402 . S
C281 H293 0.930 . S
N282 Gd273 2.661 . S
N282 C277 1.350 . S
N282 C283 1.307 . S
C283 C281 1.402 . S
C283 N282 1.307 . S
C283 H284 0.930 . S
H284 C283 0.930 . S
C285 N286 1.334 . S
C285 C287 1.394 . S
C285 H289 0.930 . S
N286 Gd273 2.601 . S
N286 C276 1.359 . S
N286 C285 1.334 . S
C287 C285 1.394 . S
C287 C288 1.359 . S
C287 H299 0.930 . S
C288 C278 1.391 . S
C288 C287 1.359 . S
C288 H300 0.929 . S
H289 C285 0.930 . S
H290 C279 0.930 . S
H291 C308 0.930 . S
H292 C280 0.930 . S
H293 C281 0.930 . S
H294 C275 0.929 . S
H295 C313 0.930 . S
H296 C304 0.930 . S
H297 C305 0.930 . S
H298 C329 0.929 . S
H299 C287 0.930 . S
H300 C288 0.929 . S
H301 C330 0.930 . S
H302 C311 0.930 . S
N303 Gd272 2.661 . S
N303 C307 1.350 . S
N303 C308 1.307 . S
C304 H296 0.930 . S
C304 C305 1.355 . S
C304 C306 1.412 . S
C305 H297 0.930 . S
C305 C304 1.355 . S
C305 C308 1.402 . S
C306 C304 1.412 . S
C306 C307 1.417 . S
C306 C330 1.431 . S
C307 N303 1.350 . S
C307 C306 1.417 . S
C307 C310 1.426 . S
C308 H291 0.930 . S
C308 N303 1.307 . S
C308 C305 1.402 . S
N309 Gd272 2.601 . S
N309 C310 1.359 . S
N309 C313 1.334 . S
C310 C307 1.426 . S
C310 N309 1.359 . S
C310 C314 1.413 . S
C311 H302 0.930 . S
C311 C312 1.359 . S
C311 C313 1.394 . S
C312 C311 1.359 . S
C312 C314 1.391 . S
C312 H315 0.929 . S
C313 H295 0.930 . S
C313 N309 1.334 . S
C313 C311 1.394 . S
C314 C310 1.413 . S
C314 C312 1.391 . S
C314 C329 1.437 . S
H315 C312 0.929 . S
O316 Gd272 2.545 . S
O316 C331 1.258 . S
O317 Gd272 2.606 . S
O317 Gd273 2.362 . S
O317 C328 1.284 . S
O318 Gd273 2.324 . S
O318 C338 1.254 . S
O319 Gd272 2.429 . S
O319 C338 1.268 . S
O320 Gd272 2.545 . S
O320 C328 1.250 . S
O321 Gd272 2.412 . S
O321 C331 1.252 . S
O322 Gd273 2.545 . S
O322 C340 1.258 . S
O323 Gd272 2.362 . S
O323 Gd273 2.606 . S
O323 C339 1.284 . S
O324 Gd272 2.324 . S
O324 C347 1.254 . S
O325 Gd273 2.429 . S
O325 C347 1.268 . S
O326 Gd273 2.545 . S
O326 C339 1.250 . S
O327 Gd273 2.412 . S
O327 C340 1.252 . S
C328 O317 1.284 . S
C328 O320 1.250 . S
C329 H298 0.929 . S
C329 C314 1.437 . S
C329 C330 1.317 . S
C330 H301 0.930 . S
C330 C306 1.431 . S
C330 C329 1.317 . S
C331 Gd272 2.828 . S
C331 O316 1.258 . S
C331 O321 1.252 . S
C331 C332 1.497 . S
C332 C331 1.497 . S
C332 C333 1.395 . S
C332 C334 1.380 . S
C333 C332 1.395 . S
C333 C336 1.398 . S
C333 H348 0.930 . S
C334 C332 1.380 . S
C334 C335 1.391 . S
C334 H349 0.930 . S
C335 C334 1.391 . S
C335 C337 1.387 . S
C336 C333 1.398 . S
C336 C337 1.380 . S
C336 H350 0.930 1_556 S
C337 C335 1.387 . S
C337 C336 1.380 . S
C337 H351 0.930 . S
C338 O318 1.254 . S
C338 O319 1.268 . S
C339 O323 1.284 . S
C339 O326 1.250 . S
C340 Gd273 2.828 . S
C340 O322 1.258 . S
C340 O327 1.252 . S
C340 C341 1.497 . S
C341 C340 1.497 . S
C341 C342 1.395 . S
C341 C343 1.380 . S
C342 C341 1.395 . S
C342 C345 1.398 . S
C342 H352 0.930 . S
C343 C341 1.380 . S
C343 C344 1.391 . S
C343 H353 0.930 . S
C344 C343 1.391 . S
C344 C346 1.387 . S
C345 C342 1.398 . S
C345 C346 1.380 . S
C345 H354 0.930 . S
C346 C344 1.387 . S
C346 C345 1.380 . S
C346 H355 0.930 . S
C347 O324 1.254 . S
C347 O325 1.268 . S
H348 C333 0.930 . S
H349 C334 0.930 . S
H350 C336 0.930 1_554 S
H351 C337 0.930 . S
H352 C342 0.930 . S
H353 C343 0.930 . S
H354 C345 0.930 . S
H355 C346 0.930 . S
Gd356 N387 2.661 . S
Gd356 N393 2.601 . S
Gd356 O400 2.545 . S
Gd356 O401 2.606 1_655 S
Gd356 O403 2.429 1_655 S
Gd356 O404 2.545 . S
Gd356 O405 2.412 . S
Gd356 O407 2.362 1_655 S
Gd356 O408 2.324 . S
Gd356 C415 2.828 . S
Gd357 N366 2.661 . S
Gd357 N370 2.601 . S
Gd357 O401 2.362 . S
Gd357 O402 2.324 . S
Gd357 O406 2.545 . S
Gd357 O407 2.606 . S
Gd357 O409 2.429 1_455 S
Gd357 O410 2.545 . S
Gd357 O411 2.412 . S
Gd357 C424 2.828 . S
C358 C361 1.417 . S
C358 C363 1.431 . S
C358 C364 1.412 . S
C359 C362 1.437 . S
C359 C363 1.317 . S
C359 H378 0.929 . S
C360 C361 1.426 . S
C360 C362 1.413 . S
C360 N370 1.359 . S
C361 C358 1.417 . S
C361 C360 1.426 . S
C361 N366 1.350 . S
C362 C359 1.437 . S
C362 C360 1.413 . S
C362 C372 1.391 . S
C363 C358 1.431 . S
C363 C359 1.317 . S
C363 H374 0.930 . S
C364 C358 1.412 . S
C364 C365 1.355 . S
C364 H376 0.930 . S
C365 C364 1.355 . S
C365 C367 1.402 . S
C365 H377 0.930 . S
N366 Gd357 2.661 . S
N366 C361 1.350 . S
N366 C367 1.307 . S
C367 C365 1.402 . S
C367 N366 1.307 . S
C367 H368 0.930 . S
H368 C367 0.930 . S
C369 N370 1.334 . S
C369 C371 1.394 . S
C369 H373 0.930 1_455 S
N370 Gd357 2.601 . S
N370 C360 1.359 . S
N370 C369 1.334 . S
C371 C369 1.394 . S
C371 C372 1.359 . S
C371 H383 0.930 1_455 S
C372 C362 1.391 . S
C372 C371 1.359 . S
C372 H384 0.929 . S
H373 C369 0.930 1_655 S
H374 C363 0.930 . S
H375 C392 0.930 . S
H376 C364 0.930 . S
H377 C365 0.930 . S
H378 C359 0.929 . S
H379 C397 0.930 . S
H380 C388 0.930 . S
H381 C389 0.930 . S
H382 C413 0.929 . S
H383 C371 0.930 1_655 S
H384 C372 0.929 . S
H385 C414 0.930 . S
H386 C395 0.930 . S
N387 Gd356 2.661 . S
N387 C391 1.350 . S
N387 C392 1.307 . S
C388 H380 0.930 . S
C388 C389 1.355 . S
C388 C390 1.412 . S
C389 H381 0.930 . S
C389 C388 1.355 . S
C389 C392 1.402 . S
C390 C388 1.412 . S
C390 C391 1.417 . S
C390 C414 1.431 . S
C391 N387 1.350 . S
C391 C390 1.417 . S
C391 C394 1.426 . S
C392 H375 0.930 . S
C392 N387 1.307 . S
C392 C389 1.402 . S
N393 Gd356 2.601 . S
N393 C394 1.359 . S
N393 C397 1.334 1_655 S
C394 C391 1.426 . S
C394 N393 1.359 . S
C394 C398 1.413 . S
C395 H386 0.930 . S
C395 C396 1.359 . S
C395 C397 1.394 . S
C396 C395 1.359 . S
C396 C398 1.391 1_455 S
C396 H399 0.929 . S
C397 H379 0.930 . S
C397 N393 1.334 1_455 S
C397 C395 1.394 . S
C398 C394 1.413 . S
C398 C396 1.391 1_655 S
C398 C413 1.437 . S
H399 C396 0.929 . S
O400 Gd356 2.545 . S
O400 C415 1.258 . S
O401 Gd356 2.606 1_455 S
O401 Gd357 2.362 . S
O401 C412 1.284 1_455 S
O402 Gd357 2.324 . S
O402 C422 1.254 . S
O403 Gd356 2.429 1_455 S
O403 C422 1.268 . S
O404 Gd356 2.545 . S
O404 C412 1.250 . S
O405 Gd356 2.412 . S
O405 C415 1.252 . S
O406 Gd357 2.545 . S
O406 C424 1.258 . S
O407 Gd356 2.362 1_455 S
O407 Gd357 2.606 . S
O407 C423 1.284 . S
O408 Gd356 2.324 . S
O408 C431 1.254 . S
O409 Gd357 2.429 1_655 S
O409 C431 1.268 . S
O410 Gd357 2.545 . S
O410 C423 1.250 . S
O411 Gd357 2.412 . S
O411 C424 1.252 . S
C412 O401 1.284 1_655 S
C412 O404 1.250 . S
C413 H382 0.929 . S
C413 C398 1.437 . S
C413 C414 1.317 . S
C414 H385 0.930 . S
C414 C390 1.431 . S
C414 C413 1.317 . S
C415 Gd356 2.828 . S
C415 O400 1.258 . S
C415 O405 1.252 . S
C415 C416 1.497 . S
C416 C415 1.497 . S
C416 C417 1.395 . S
C416 C418 1.380 . S
C417 C416 1.395 . S
C417 C420 1.398 . S
C417 H432 0.930 . S
C418 C416 1.380 . S
C418 C419 1.391 . S
C418 H433 0.930 . S
C419 C418 1.391 . S
C419 C421 1.387 . S
C420 C417 1.398 . S
C420 C421 1.380 . S
C420 H434 0.930 1_556 S
C421 C419 1.387 . S
C421 C420 1.380 . S
C421 H435 0.930 . S
C422 O402 1.254 . S
C422 O403 1.268 . S
C423 O407 1.284 . S
C423 O410 1.250 . S
C424 Gd357 2.828 . S
C424 O406 1.258 . S
C424 O411 1.252 . S
C424 C425 1.497 . S
C425 C424 1.497 . S
C425 C426 1.395 . S
C425 C427 1.380 . S
C426 C425 1.395 . S
C426 C429 1.398 . S
C426 H436 0.930 . S
C427 C425 1.380 . S
C427 C428 1.391 . S
C427 H437 0.930 . S
C428 C427 1.391 . S
C428 C430 1.387 . S
C429 C426 1.398 . S
C429 C430 1.380 . S
C429 H438 0.930 . S
C430 C428 1.387 . S
C430 C429 1.380 . S
C430 H439 0.930 . S
C431 O408 1.254 . S
C431 O409 1.268 . S
H432 C417 0.930 . S
H433 C418 0.930 . S
H434 C420 0.930 1_554 S
H435 C421 0.930 . S
H436 C426 0.930 . S
H437 C427 0.930 . S
H438 C429 0.930 . S
H439 C430 0.930 . S
H440 C448 0.929 . S
H441 C450 0.930 . S
H442 C452 0.930 . S
H443 C455 0.929 . S
H444 C458 0.930 . S
H445 C460 0.960 . S
H446 C460 0.960 . S
H447 C460 0.960 . S
C448 H440 0.929 . S
C448 C449 1.377 . S
C448 C450 1.384 . S
C449 C448 1.377 . S
C449 C455 1.390 . S
C450 H441 0.930 . S
C450 C448 1.384 . S
C450 C451 1.372 . S
C451 C450 1.372 . S
C451 C452 1.400 . S
C451 C456 1.490 . S
C452 H442 0.930 . S
C452 C451 1.400 . S
C452 C455 1.386 . S
H453 C469 0.930 1_565 S
H454 C470 0.931 . S
C455 H443 0.929 . S
C455 C449 1.390 . S
C455 C452 1.386 . S
C456 C451 1.490 . S
C456 C458 1.395 . S
C456 C459 1.403 . S
H457 C463 0.930 . S
C458 H444 0.930 . S
C458 C456 1.395 . S
C458 C461 1.403 . S
C459 C456 1.403 . S
C459 C460 1.524 . S
C459 C463 1.400 . S
C460 H445 0.960 . S
C460 H446 0.960 . S
C460 H447 0.960 . S
C460 C459 1.524 . S
C461 C458 1.403 . S
C461 C462 1.392 . S
C461 C465 1.495 . S
C462 C461 1.392 . S
C462 C463 1.385 . S
C462 C464 1.478 . S
C463 H457 0.930 . S
C463 C459 1.400 . S
C463 C462 1.385 . S
C464 C462 1.478 . S
C464 C466 1.381 . S
C464 C470 1.383 . S
C465 C461 1.495 . S
C465 H471 0.959 . S
C465 H472 0.961 . S
C465 H473 0.960 . S
C466 C464 1.381 . S
C466 C467 1.394 . S
C466 H474 0.930 . S
C467 C466 1.394 . S
C467 C468 1.383 . S
C467 H475 0.929 . S
C468 C467 1.383 . S
C468 C469 1.377 . S
C469 H453 0.930 1_545 S
C469 C468 1.377 . S
C469 C470 1.379 . S
C470 H454 0.931 . S
C470 C464 1.383 . S
C470 C469 1.379 . S
H471 C465 0.959 . S
H472 C465 0.961 . S
H473 C465 0.960 . S
H474 C466 0.930 . S
H475 C467 0.929 . S
H476 C484 0.929 . S
H477 C486 0.930 . S
H478 C488 0.930 . S
H479 C491 0.929 . S
H480 C494 0.930 . S
H481 C496 0.960 . S
H482 C496 0.960 . S
H483 C496 0.960 . S
C484 H476 0.929 . S
C484 C485 1.377 . S
C484 C486 1.384 . S
C485 C484 1.377 . S
C485 C491 1.390 . S
C486 H477 0.930 . S
C486 C484 1.384 . S
C486 C487 1.372 . S
C487 C486 1.372 . S
C487 C488 1.400 . S
C487 C492 1.490 . S
C488 H478 0.930 . S
C488 C487 1.400 . S
C488 C491 1.386 . S
H489 C505 0.930 . S
H490 C506 0.931 . S
C491 H479 0.929 . S
C491 C485 1.390 . S
C491 C488 1.386 . S
C492 C487 1.490 . S
C492 C494 1.395 . S
C492 C495 1.403 . S
H493 C499 0.930 . S
C494 H480 0.930 . S
C494 C492 1.395 . S
C494 C497 1.403 . S
C495 C492 1.403 . S
C495 C496 1.524 . S
C495 C499 1.400 . S
C496 H481 0.960 . S
C496 H482 0.960 . S
C496 H483 0.960 . S
C496 C495 1.524 . S
C497 C494 1.403 . S
C497 C498 1.392 . S
C497 C501 1.495 . S
C498 C497 1.392 . S
C498 C499 1.385 . S
C498 C500 1.478 . S
C499 H493 0.930 . S
C499 C495 1.400 . S
C499 C498 1.385 . S
C500 C498 1.478 . S
C500 C502 1.381 . S
C500 C506 1.383 . S
C501 C497 1.495 . S
C501 H507 0.959 . S
C501 H508 0.961 . S
C501 H509 0.960 . S
C502 C500 1.381 . S
C502 C503 1.394 . S
C502 H510 0.930 . S
C503 C502 1.394 . S
C503 C504 1.383 . S
C503 H511 0.929 . S
C504 C503 1.383 . S
C504 C505 1.377 . S
C505 H489 0.930 . S
C505 C504 1.377 . S
C505 C506 1.379 . S
C506 H490 0.931 . S
C506 C500 1.383 . S
C506 C505 1.379 . S
H507 C501 0.959 . S
H508 C501 0.961 . S
H509 C501 0.960 . S
H510 C502 0.930 . S
H511 C503 0.929 . S
H512 C520 0.929 . S
H513 C522 0.930 . S
H514 C524 0.930 . S
H515 C527 0.929 . S
H516 C530 0.930 . S
H517 C532 0.960 . S
H518 C532 0.960 . S
H519 C532 0.960 . S
C520 H512 0.929 . S
C520 C521 1.377 . S
C520 C522 1.384 . S
C521 C520 1.377 . S
C521 C527 1.390 . S
C522 H513 0.930 . S
C522 C520 1.384 . S
C522 C523 1.372 . S
C523 C522 1.372 . S
C523 C524 1.400 . S
C523 C528 1.490 . S
C524 H514 0.930 . S
C524 C523 1.400 . S
C524 C527 1.386 . S
H525 C541 0.930 . S
H526 C542 0.931 . S
C527 H515 0.929 . S
C527 C521 1.390 . S
C527 C524 1.386 . S
C528 C523 1.490 . S
C528 C530 1.395 . S
C528 C531 1.403 . S
H529 C535 0.930 . S
C530 H516 0.930 . S
C530 C528 1.395 . S
C530 C533 1.403 . S
C531 C528 1.403 . S
C531 C532 1.524 . S
C531 C535 1.400 . S
C532 H517 0.960 . S
C532 H518 0.960 . S
C532 H519 0.960 . S
C532 C531 1.524 . S
C533 C530 1.403 . S
C533 C534 1.392 . S
C533 C537 1.495 . S
C534 C533 1.392 . S
C534 C535 1.385 . S
C534 C536 1.478 . S
C535 H529 0.930 . S
C535 C531 1.400 . S
C535 C534 1.385 . S
C536 C534 1.478 . S
C536 C538 1.381 . S
C536 C542 1.383 . S
C537 C533 1.495 . S
C537 H543 0.959 . S
C537 H544 0.961 . S
C537 H545 0.960 . S
C538 C536 1.381 . S
C538 C539 1.394 . S
C538 H546 0.930 . S
C539 C538 1.394 . S
C539 C540 1.383 . S
C539 H547 0.929 . S
C540 C539 1.383 . S
C540 C541 1.377 . S
C541 H525 0.930 . S
C541 C540 1.377 . S
C541 C542 1.379 . S
C542 H526 0.931 . S
C542 C536 1.383 . S
C542 C541 1.379 . S
H543 C537 0.959 . S
H544 C537 0.961 . S
H545 C537 0.960 . S
H546 C538 0.930 . S
H547 C539 0.929 . S
H548 C556 0.929 . S
H549 C558 0.930 . S
H550 C560 0.930 . S
H551 C563 0.929 . S
H552 C566 0.930 . S
H553 C568 0.960 . S
H554 C568 0.960 . S
H555 C568 0.960 . S
C556 H548 0.929 . S
C556 C557 1.377 . S
C556 C558 1.384 . S
C557 C556 1.377 . S
C557 C563 1.390 . S
C558 H549 0.930 . S
C558 C556 1.384 . S
C558 C559 1.372 . S
C559 C558 1.372 . S
C559 C560 1.400 . S
C559 C564 1.490 . S
C560 H550 0.930 . S
C560 C559 1.400 . S
C560 C563 1.386 . S
H561 C577 0.930 . S
H562 C578 0.931 . S
C563 H551 0.929 . S
C563 C557 1.390 . S
C563 C560 1.386 . S
C564 C559 1.490 . S
C564 C566 1.395 . S
C564 C567 1.403 . S
H565 C571 0.930 . S
C566 H552 0.930 . S
C566 C564 1.395 . S
C566 C569 1.403 . S
C567 C564 1.403 . S
C567 C568 1.524 . S
C567 C571 1.400 . S
C568 H553 0.960 . S
C568 H554 0.960 . S
C568 H555 0.960 . S
C568 C567 1.524 . S
C569 C566 1.403 . S
C569 C570 1.392 . S
C569 C573 1.495 . S
C570 C569 1.392 . S
C570 C571 1.385 . S
C570 C572 1.478 . S
C571 H565 0.930 . S
C571 C567 1.400 . S
C571 C570 1.385 . S
C572 C570 1.478 . S
C572 C574 1.381 . S
C572 C578 1.383 . S
C573 C569 1.495 . S
C573 H579 0.959 . S
C573 H580 0.961 1_455 S
C573 H581 0.960 . S
C574 C572 1.381 . S
C574 C575 1.394 . S
C574 H582 0.930 . S
C575 C574 1.394 . S
C575 C576 1.383 . S
C575 H583 0.929 . S
C576 C575 1.383 . S
C576 C577 1.377 . S
C577 H561 0.930 . S
C577 C576 1.377 . S
C577 C578 1.379 . S
C578 H562 0.931 . S
C578 C572 1.383 . S
C578 C577 1.379 . S
H579 C573 0.959 . S
H580 C573 0.961 1_655 S
H581 C573 0.960 . S
H582 C574 0.930 . S
H583 C575 0.929 . S
H584 C592 0.929 . S
H585 C594 0.930 . S
H586 C596 0.930 1_556 S
H587 C599 0.929 . S
H588 C602 0.930 1_554 S
H589 C604 0.960 . S
H590 C604 0.939 1_545 S
H591 C604 0.960 . S
C592 H584 0.929 . S
C592 C593 1.377 . S
C592 C594 1.384 . S
C593 C592 1.377 . S
C593 C599 1.390 . S
C594 H585 0.930 . S
C594 C592 1.384 . S
C594 C595 1.372 . S
C595 C594 1.372 . S
C595 C596 1.400 . S
C595 C600 1.490 1_554 S
C596 H586 0.930 1_554 S
C596 C595 1.400 . S
C596 C599 1.386 . S
H597 C613 0.930 . S
H598 C614 0.931 . S
C599 H587 0.929 . S
C599 C593 1.390 . S
C599 C596 1.386 . S
C600 C595 1.490 1_556 S
C600 C602 1.395 . S
C600 C603 1.403 . S
H601 C607 0.930 . S
C602 H588 0.930 1_556 S
C602 C600 1.395 . S
C602 C605 1.403 . S
C603 C600 1.403 . S
C603 C604 1.524 . S
C603 C607 1.400 . S
C604 H589 0.960 . S
C604 H590 0.939 1_565 S
C604 H591 0.960 . S
C604 C603 1.524 . S
C605 C602 1.403 . S
C605 C606 1.392 . S
C605 C609 1.495 . S
C606 C605 1.392 . S
C606 C607 1.385 . S
C606 C608 1.478 . S
C607 H601 0.930 . S
C607 C603 1.400 . S
C607 C606 1.385 . S
C608 C606 1.478 . S
C608 C610 1.381 . S
C608 C614 1.383 . S
C609 C605 1.495 . S
C609 H615 0.959 1_556 S
C609 H616 0.961 . S
C609 H617 0.960 . S
C610 C608 1.381 . S
C610 C611 1.394 1_565 S
C610 H618 0.930 1_565 S
C611 C610 1.394 1_545 S
C611 C612 1.383 1_545 S
C611 H619 0.929 . S
C612 C611 1.383 1_565 S
C612 C613 1.377 . S
C613 H597 0.930 . S
C613 C612 1.377 . S
C613 C614 1.379 . S
C614 H598 0.931 . S
C614 C608 1.383 . S
C614 C613 1.379 . S
H615 C609 0.959 1_554 S
H616 C609 0.961 . S
H617 C609 0.960 . S
H618 C610 0.930 1_545 S
H619 C611 0.929 . S
H620 C628 0.929 . S
H621 C630 0.930 . S
H622 C632 0.930 . S
H623 C635 0.929 . S
H624 C638 0.930 . S
H625 C640 0.960 . S
H626 C640 0.960 . S
H627 C640 0.960 . S
C628 H620 0.929 . S
C628 C629 1.377 . S
C628 C630 1.384 1_554 S
C629 C628 1.377 . S
C629 C635 1.390 . S
C630 H621 0.930 . S
C630 C628 1.384 1_556 S
C630 C631 1.372 1_556 S
C631 C630 1.372 1_554 S
C631 C632 1.400 . S
C631 C636 1.490 1_554 S
C632 H622 0.930 . S
C632 C631 1.400 . S
C632 C635 1.386 . S
H633 C649 0.930 . S
H634 C650 0.931 . S
C635 H623 0.929 . S
C635 C629 1.390 . S
C635 C632 1.386 . S
C636 C631 1.490 1_556 S
C636 C638 1.395 . S
C636 C639 1.403 . S
H637 C643 0.930 . S
C638 H624 0.930 . S
C638 C636 1.395 . S
C638 C641 1.403 . S
C639 C636 1.403 . S
C639 C640 1.524 1_556 S
C639 C643 1.400 . S
C640 H625 0.960 . S
C640 H626 0.960 . S
C640 H627 0.960 . S
C640 C639 1.524 1_554 S
C641 C638 1.403 . S
C641 C642 1.392 . S
C641 C645 1.495 . S
C642 C641 1.392 . S
C642 C643 1.385 . S
C642 C644 1.478 . S
C643 H637 0.930 . S
C643 C639 1.400 . S
C643 C642 1.385 . S
C644 C642 1.478 . S
C644 C646 1.381 . S
C644 C650 1.383 . S
C645 C641 1.495 . S
C645 H651 0.959 . S
C645 H652 0.961 . S
C645 H653 0.960 . S
C646 C644 1.381 . S
C646 C647 1.394 . S
C646 H654 0.930 . S
C647 C646 1.394 . S
C647 C648 1.383 . S
C647 H655 0.929 . S
C648 C647 1.383 . S
C648 C649 1.377 . S
C649 H633 0.930 . S
C649 C648 1.377 . S
C649 C650 1.379 . S
C650 H634 0.931 . S
C650 C644 1.383 . S
C650 C649 1.379 . S
H651 C645 0.959 . S
H652 C645 0.961 . S
H653 C645 0.960 . S
H654 C646 0.930 . S
H655 C647 0.929 . S
H656 C664 0.929 . S
H657 C666 0.930 . S
H658 C668 0.930 . S
H659 C671 0.929 . S
H660 C674 0.930 . S
H661 C676 0.960 . S
H662 C676 0.960 . S
H663 C676 0.960 . S
C664 H656 0.929 . S
C664 C665 1.377 . S
C664 C666 1.384 1_554 S
C665 C664 1.377 . S
C665 C671 1.390 . S
C666 H657 0.930 . S
C666 C664 1.384 1_556 S
C666 C667 1.372 1_556 S
C667 C666 1.372 1_554 S
C667 C668 1.400 . S
C667 C672 1.490 1_554 S
C668 H658 0.930 . S
C668 C667 1.400 . S
C668 C671 1.386 . S
H669 C685 0.930 . S
H670 C686 0.931 . S
C671 H659 0.929 . S
C671 C665 1.390 . S
C671 C668 1.386 . S
C672 C667 1.490 1_556 S
C672 C674 1.395 . S
C672 C675 1.403 . S
H673 C679 0.930 . S
C674 H660 0.930 . S
C674 C672 1.395 . S
C674 C677 1.403 . S
C675 C672 1.403 . S
C675 C676 1.524 1_556 S
C675 C679 1.400 . S
C676 H661 0.960 . S
C676 H662 0.960 . S
C676 H663 0.960 . S
C676 C675 1.524 1_554 S
C677 C674 1.403 . S
C677 C678 1.392 . S
C677 C681 1.495 . S
C678 C677 1.392 . S
C678 C679 1.385 . S
C678 C680 1.478 . S
C679 H673 0.930 . S
C679 C675 1.400 . S
C679 C678 1.385 . S
C680 C678 1.478 . S
C680 C682 1.381 . S
C680 C686 1.383 . S
C681 C677 1.495 . S
C681 H687 0.959 . S
C681 H688 0.961 . S
C681 H689 0.960 . S
C682 C680 1.381 . S
C682 C683 1.394 . S
C682 H690 0.930 . S
C683 C682 1.394 . S
C683 C684 1.383 . S
C683 H691 0.929 . S
C684 C683 1.383 . S
C684 C685 1.377 . S
C685 H669 0.930 . S
C685 C684 1.377 . S
C685 C686 1.379 . S
C686 H670 0.931 . S
C686 C680 1.383 . S
C686 C685 1.379 . S
H687 C681 0.959 . S
H688 C681 0.961 . S
H689 C681 0.960 . S
H690 C682 0.930 . S
H691 C683 0.929 . S
H692 C700 0.929 . S
H693 C702 0.930 1_556 S
H694 C704 0.930 . S
H695 C707 0.929 . S
H696 C710 0.930 . S
H697 C712 0.960 . S
H698 C712 0.960 . S
H699 C712 0.960 . S
C700 H692 0.929 . S
C700 C701 1.377 . S
C700 C702 1.384 . S
C701 C700 1.377 . S
C701 C707 1.390 . S
C702 H693 0.930 1_554 S
C702 C700 1.384 . S
C702 C703 1.372 . S
C703 C702 1.372 . S
C703 C704 1.400 . S
C703 C708 1.490 1_554 S
C704 H694 0.930 . S
C704 C703 1.400 . S
C704 C707 1.386 . S
H705 C721 0.930 . S
H706 C722 0.930 1_455 S
C707 H695 0.929 . S
C707 C701 1.390 . S
C707 C704 1.386 . S
C708 C703 1.490 1_556 S
C708 C710 1.395 . S
C708 C711 1.403 . S
H709 C715 0.930 . S
C710 H696 0.930 . S
C710 C708 1.395 . S
C710 C713 1.403 . S
C711 C708 1.403 . S
C711 C712 1.524 1_556 S
C711 C715 1.400 . S
C712 H697 0.960 . S
C712 H698 0.960 . S
C712 H699 0.960 . S
C712 C711 1.524 1_554 S
C713 C710 1.403 . S
C713 C714 1.392 . S
C713 C717 1.495 . S
C714 C713 1.392 . S
C714 C715 1.385 . S
C714 C716 1.478 . S
C715 H709 0.930 . S
C715 C711 1.400 . S
C715 C714 1.385 . S
C716 C714 1.478 . S
C716 C718 1.381 . S
C716 C722 1.384 . S
C717 C713 1.495 . S
C717 H723 0.959 . S
C717 H724 0.961 . S
C717 H725 0.960 . S
C718 C716 1.381 . S
C718 C719 1.394 . S
C718 H726 0.930 . S
C719 C718 1.394 . S
C719 C720 1.383 . S
C719 H727 0.929 . S
C720 C719 1.383 . S
C720 C721 1.377 1_655 S
C721 H705 0.930 . S
C721 C720 1.377 1_455 S
C721 C722 1.379 1_455 S
C722 H706 0.930 1_655 S
C722 C716 1.384 . S
C722 C721 1.379 1_655 S
H723 C717 0.959 . S
H724 C717 0.961 . S
H725 C717 0.960 . S
H726 C718 0.930 . S
H727 C719 0.929 . S
H728 C736 0.929 . S
H729 C738 0.930 . S
H730 C740 0.930 . S
H731 C743 0.929 1_556 S
H732 C746 0.930 . S
H733 C748 0.960 . S
H734 C748 0.960 . S
H735 C748 0.960 . S
C736 H728 0.929 . S
C736 C737 1.377 . S
C736 C738 1.384 . S
C737 C736 1.377 . S
C737 C743 1.390 . S
C738 H729 0.930 . S
C738 C736 1.384 . S
C738 C739 1.372 . S
C739 C738 1.372 . S
C739 C740 1.400 . S
C739 C744 1.490 . S
C740 H730 0.930 . S
C740 C739 1.400 . S
C740 C743 1.386 . S
H741 C757 0.930 1_655 S
H742 C758 0.931 . S
C743 H731 0.929 1_554 S
C743 C737 1.390 . S
C743 C740 1.386 . S
C744 C739 1.490 . S
C744 C746 1.395 . S
C744 C747 1.403 . S
H745 C751 0.930 . S
C746 H732 0.930 . S
C746 C744 1.395 . S
C746 C749 1.403 . S
C747 C744 1.403 . S
C747 C748 1.524 . S
C747 C751 1.400 . S
C748 H733 0.960 . S
C748 H734 0.960 . S
C748 H735 0.960 . S
C748 C747 1.524 . S
C749 C746 1.403 . S
C749 C750 1.392 . S
C749 C753 1.495 . S
C750 C749 1.392 . S
C750 C751 1.385 . S
C750 C752 1.478 . S
C751 H745 0.930 . S
C751 C747 1.400 . S
C751 C750 1.385 . S
C752 C750 1.478 . S
C752 C754 1.381 . S
C752 C758 1.383 . S
C753 C749 1.495 . S
C753 H759 0.959 . S
C753 H760 0.961 1_455 S
C753 H761 0.960 . S
C754 C752 1.381 . S
C754 C755 1.394 . S
C754 H762 0.930 . S
C755 C754 1.394 . S
C755 C756 1.383 . S
C755 H763 0.929 . S
C756 C755 1.383 . S
C756 C757 1.377 . S
C757 H741 0.930 1_455 S
C757 C756 1.377 . S
C757 C758 1.379 . S
C758 H742 0.931 . S
C758 C752 1.383 . S
C758 C757 1.379 . S
H759 C753 0.959 . S
H760 C753 0.961 1_655 S
H761 C753 0.960 . S
H762 C754 0.930 . S
H763 C755 0.929 . S
H764 C772 0.929 . S
H765 C774 0.930 . S
H766 C776 0.930 . S
H767 C779 0.929 . S
H768 C782 0.930 . S
H769 C784 0.960 1_565 S
H770 C784 0.960 . S
H771 C784 0.960 . S
C772 H764 0.929 . S
C772 C773 1.377 . S
C772 C774 1.384 . S
C773 C772 1.377 . S
C773 C779 1.390 . S
C774 H765 0.930 . S
C774 C772 1.384 . S
C774 C775 1.372 . S
C775 C774 1.372 . S
C775 C776 1.400 . S
C775 C780 1.490 . S
C776 H766 0.930 . S
C776 C775 1.400 . S
C776 C779 1.386 . S
H777 C793 0.930 1_565 S
H778 C794 0.931 . S
C779 H767 0.929 . S
C779 C773 1.390 . S
C779 C776 1.386 . S
C780 C775 1.490 . S
C780 C782 1.395 . S
C780 C783 1.403 . S
H781 C787 0.930 . S
C782 H768 0.930 . S
C782 C780 1.395 . S
C782 C785 1.403 . S
C783 C780 1.403 . S
C783 C784 1.524 . S
C783 C787 1.400 . S
C784 H769 0.960 1_545 S
C784 H770 0.960 . S
C784 H771 0.960 . S
C784 C783 1.524 . S
C785 C782 1.403 . S
C785 C786 1.392 . S
C785 C789 1.495 . S
C786 C785 1.392 . S
C786 C787 1.385 . S
C786 C788 1.478 . S
C787 H781 0.930 . S
C787 C783 1.400 . S
C787 C786 1.385 . S
C788 C786 1.478 . S
C788 C790 1.381 . S
C788 C794 1.383 . S
C789 C785 1.495 . S
C789 H795 0.959 . S
C789 H796 0.961 . S
C789 H797 0.960 . S
C790 C788 1.381 . S
C790 C791 1.394 . S
C790 H798 0.930 . S
C791 C790 1.394 . S
C791 C792 1.383 . S
C791 H799 0.929 . S
C792 C791 1.383 . S
C792 C793 1.377 . S
C793 H777 0.930 1_545 S
C793 C792 1.377 . S
C793 C794 1.379 . S
C794 H778 0.931 . S
C794 C788 1.383 . S
C794 C793 1.379 . S
H795 C789 0.959 . S
H796 C789 0.961 . S
H797 C789 0.960 . S
H798 C790 0.930 . S
H799 C791 0.929 . S
H800 C808 0.929 1_556 S
H801 C810 0.930 . S
H802 C812 0.930 . S
H803 C815 0.929 . S
H804 C818 0.930 . S
H805 C820 0.960 . S
H806 C820 0.960 . S
H807 C820 0.960 . S
C808 H800 0.929 1_554 S
C808 C809 1.377 . S
C808 C810 1.384 . S
C809 C808 1.377 . S
C809 C815 1.390 . S
C810 H801 0.930 . S
C810 C808 1.384 . S
C810 C811 1.372 . S
C811 C810 1.372 . S
C811 C812 1.400 . S
C811 C816 1.490 . S
C812 H802 0.930 . S
C812 C811 1.400 . S
C812 C815 1.386 . S
H813 C829 0.930 . S
H814 C830 0.931 . S
C815 H803 0.929 . S
C815 C809 1.390 . S
C815 C812 1.386 . S
C816 C811 1.490 . S
C816 C818 1.395 . S
C816 C819 1.403 . S
H817 C823 0.930 . S
C818 H804 0.930 . S
C818 C816 1.395 . S
C818 C821 1.403 . S
C819 C816 1.403 . S
C819 C820 1.524 . S
C819 C823 1.400 . S
C820 H805 0.960 . S
C820 H806 0.960 . S
C820 H807 0.960 . S
C820 C819 1.524 . S
C821 C818 1.403 . S
C821 C822 1.392 . S
C821 C825 1.495 . S
C822 C821 1.392 . S
C822 C823 1.385 . S
C822 C824 1.478 . S
C823 H817 0.930 . S
C823 C819 1.400 . S
C823 C822 1.385 . S
C824 C822 1.478 . S
C824 C826 1.381 . S
C824 C830 1.383 . S
C825 C821 1.495 . S
C825 H831 0.959 . S
C825 H832 0.961 . S
C825 H833 0.960 . S
C826 C824 1.381 . S
C826 C827 1.394 . S
C826 H834 0.930 . S
C827 C826 1.394 . S
C827 C828 1.383 . S
C827 H835 0.929 . S
C828 C827 1.383 . S
C828 C829 1.377 . S
C829 H813 0.930 . S
C829 C828 1.377 . S
C829 C830 1.379 . S
C830 H814 0.931 . S
C830 C824 1.383 . S
C830 C829 1.379 . S
H831 C825 0.959 . S
H832 C825 0.961 . S
H833 C825 0.960 . S
H834 C826 0.930 . S
H835 C827 0.929 . S
H836 C844 0.929 . S
H837 C846 0.930 . S
H838 C848 0.930 . S
H839 C851 0.929 . S
H840 C854 0.930 . S
H841 C856 0.960 . S
H842 C856 0.960 . S
H843 C856 0.960 . S
C844 H836 0.929 . S
C844 C845 1.377 . S
C844 C846 1.384 . S
C845 C844 1.377 . S
C845 C851 1.390 . S
C846 H837 0.930 . S
C846 C844 1.384 . S
C846 C847 1.372 . S
C847 C846 1.372 . S
C847 C848 1.400 . S
C847 C852 1.490 . S
C848 H838 0.930 . S
C848 C847 1.400 . S
C848 C851 1.386 . S
H849 C865 0.930 . S
H850 C866 0.931 . S
C851 H839 0.929 . S
C851 C845 1.390 . S
C851 C848 1.386 . S
C852 C847 1.490 . S
C852 C854 1.395 . S
C852 C855 1.403 . S
H853 C859 0.930 . S
C854 H840 0.930 . S
C854 C852 1.395 . S
C854 C857 1.403 . S
C855 C852 1.403 . S
C855 C856 1.524 . S
C855 C859 1.400 . S
C856 H841 0.960 . S
C856 H842 0.960 . S
C856 H843 0.960 . S
C856 C855 1.524 . S
C857 C854 1.403 . S
C857 C858 1.392 . S
C857 C861 1.495 . S
C858 C857 1.392 . S
C858 C859 1.385 . S
C858 C860 1.478 . S
C859 H853 0.930 . S
C859 C855 1.400 . S
C859 C858 1.385 . S
C860 C858 1.478 . S
C860 C862 1.381 . S
C860 C866 1.383 . S
C861 C857 1.495 . S
C861 H867 0.959 . S
C861 H868 0.961 . S
C861 H869 0.960 . S
C862 C860 1.381 . S
C862 C863 1.394 . S
C862 H870 0.930 . S
C863 C862 1.394 . S
C863 C864 1.383 . S
C863 H871 0.929 . S
C864 C863 1.383 . S
C864 C865 1.377 . S
C865 H849 0.930 . S
C865 C864 1.377 . S
C865 C866 1.379 . S
C866 H850 0.931 . S
C866 C860 1.383 . S
C866 C865 1.379 . S
H867 C861 0.959 . S
H868 C861 0.961 . S
H869 C861 0.960 . S
H870 C862 0.930 . S
H871 C863 0.929 . S
H872 C880 0.929 . S
H873 C882 0.930 . S
H874 C884 0.930 . S
H875 C887 0.929 . S
H876 C890 0.930 . S
H877 C892 0.960 . S
H878 C892 0.960 . S
H879 C892 0.960 . S
C880 H872 0.929 . S
C880 C881 1.377 . S
C880 C882 1.384 . S
C881 C880 1.377 . S
C881 C887 1.390 . S
C882 H873 0.930 . S
C882 C880 1.384 . S
C882 C883 1.372 . S
C883 C882 1.372 . S
C883 C884 1.400 . S
C883 C888 1.490 . S
C884 H874 0.930 . S
C884 C883 1.400 . S
C884 C887 1.386 . S
H885 C901 0.930 . S
H886 C902 0.931 . S
C887 H875 0.929 . S
C887 C881 1.390 . S
C887 C884 1.386 . S
C888 C883 1.490 . S
C888 C890 1.395 1_554 S
C888 C891 1.403 . S
H889 C895 0.930 . S
C890 H876 0.930 . S
C890 C888 1.395 1_556 S
C890 C893 1.403 . S
C891 C888 1.403 . S
C891 C892 1.524 . S
C891 C895 1.400 . S
C892 H877 0.960 . S
C892 H878 0.960 . S
C892 H879 0.960 . S
C892 C891 1.524 . S
C893 C890 1.403 . S
C893 C894 1.392 . S
C893 C897 1.495 . S
C894 C893 1.392 . S
C894 C895 1.385 1_556 S
C894 C896 1.478 . S
C895 H889 0.930 . S
C895 C891 1.400 . S
C895 C894 1.385 1_554 S
C896 C894 1.478 . S
C896 C898 1.381 1_655 S
C896 C902 1.383 . S
C897 C893 1.495 . S
C897 H903 0.959 . S
C897 H904 0.961 . S
C897 H905 0.960 . S
C898 C896 1.381 1_455 S
C898 C899 1.394 . S
C898 H906 0.930 . S
C899 C898 1.394 . S
C899 C900 1.383 . S
C899 H907 0.929 . S
C900 C899 1.383 . S
C900 C901 1.377 1_455 S
C901 H885 0.930 . S
C901 C900 1.377 1_655 S
C901 C902 1.379 . S
C902 H886 0.931 . S
C902 C896 1.383 . S
C902 C901 1.379 . S
H903 C897 0.959 . S
H904 C897 0.961 . S
H905 C897 0.960 . S
H906 C898 0.930 . S
H907 C899 0.929 . S
H908 C916 0.929 . S
H909 C918 0.930 . S
H910 C920 0.930 . S
H911 C923 0.929 . S
H912 C926 0.930 . S
H913 C928 0.960 . S
H914 C928 0.960 1_565 S
H915 C928 0.960 1_554 S
C916 H908 0.929 . S
C916 C917 1.377 . S
C916 C918 1.384 . S
C917 C916 1.377 . S
C917 C923 1.390 . S
C918 H909 0.930 . S
C918 C916 1.384 . S
C918 C919 1.372 . S
C919 C918 1.372 . S
C919 C920 1.400 . S
C919 C924 1.490 . S
C920 H910 0.930 . S
C920 C919 1.400 . S
C920 C923 1.386 . S
H921 C937 0.930 . S
H922 C938 0.931 . S
C923 H911 0.929 . S
C923 C917 1.390 . S
C923 C920 1.386 . S
C924 C919 1.490 . S
C924 C926 1.395 . S
C924 C927 1.403 1_554 S
H925 C931 0.930 1_545 S
C926 H912 0.930 . S
C926 C924 1.395 . S
C926 C929 1.403 . S
C927 C924 1.403 1_556 S
C927 C928 1.524 1_565 S
C927 C931 1.400 . S
C928 H913 0.960 . S
C928 H914 0.960 1_545 S
C928 H915 0.960 1_556 S
C928 C927 1.524 1_545 S
C929 C926 1.403 . S
C929 C930 1.392 1_554 S
C929 C933 1.495 . S
C930 C929 1.392 1_556 S
C930 C931 1.385 . S
C930 C932 1.478 . S
C931 H925 0.930 1_565 S
C931 C927 1.400 . S
C931 C930 1.385 . S
C932 C930 1.478 . S
C932 C934 1.381 . S
C932 C938 1.383 1_565 S
C933 C929 1.495 . S
C933 H939 0.959 . S
C933 H940 0.961 . S
C933 H941 0.960 1_554 S
C934 C932 1.381 . S
C934 C935 1.394 . S
C934 H942 0.930 . S
C935 C934 1.394 . S
C935 C936 1.383 1_565 S
C935 H943 0.929 . S
C936 C935 1.383 1_545 S
C936 C937 1.377 . S
C937 H921 0.930 . S
C937 C936 1.377 . S
C937 C938 1.379 . S
C938 H922 0.931 . S
C938 C932 1.383 1_545 S
C938 C937 1.379 . S
H939 C933 0.959 . S
H940 C933 0.961 . S
H941 C933 0.960 1_556 S
H942 C934 0.930 . S
H943 C935 0.929 . S
H944 C952 0.929 . S
H945 C954 0.930 . S
H946 C956 0.930 . S
H947 C959 0.929 . S
H948 C962 0.930 . S
H949 C964 0.960 . S
H950 C964 0.960 . S
H951 C964 0.960 1_554 S
C952 H944 0.929 . S
C952 C953 1.377 . S
C952 C954 1.384 . S
C953 C952 1.377 . S
C953 C959 1.390 . S
C954 H945 0.930 . S
C954 C952 1.384 . S
C954 C955 1.372 . S
C955 C954 1.372 . S
C955 C956 1.400 . S
C955 C960 1.490 . S
C956 H946 0.930 . S
C956 C955 1.400 . S
C956 C959 1.386 . S
H957 C973 0.930 . S
H958 C974 0.931 . S
C959 H947 0.929 . S
C959 C953 1.390 . S
C959 C956 1.386 . S
C960 C955 1.490 . S
C960 C962 1.395 . S
C960 C963 1.403 1_554 S
H961 C967 0.930 . S
C962 H948 0.930 . S
C962 C960 1.395 . S
C962 C965 1.403 . S
C963 C960 1.403 1_556 S
C963 C964 1.524 . S
C963 C967 1.400 . S
C964 H949 0.960 . S
C964 H950 0.960 . S
C964 H951 0.960 1_556 S
C964 C963 1.524 . S
C965 C962 1.403 . S
C965 C966 1.392 1_554 S
C965 C969 1.495 . S
C966 C965 1.392 1_556 S
C966 C967 1.385 . S
C966 C968 1.478 . S
C967 H961 0.930 . S
C967 C963 1.400 . S
C967 C966 1.385 . S
C968 C966 1.478 . S
C968 C970 1.381 . S
C968 C974 1.383 . S
C969 C965 1.495 . S
C969 H975 0.959 . S
C969 H976 0.961 . S
C969 H977 0.960 1_554 S
C970 C968 1.381 . S
C970 C971 1.394 . S
C970 H978 0.930 . S
C971 C970 1.394 . S
C971 C972 1.383 . S
C971 H979 0.929 . S
C972 C971 1.383 . S
C972 C973 1.377 . S
C973 H957 0.930 . S
C973 C972 1.377 . S
C973 C974 1.379 . S
C974 H958 0.931 . S
C974 C968 1.383 . S
C974 C973 1.379 . S
H975 C969 0.959 . S
H976 C969 0.961 . S
H977 C969 0.960 1_556 S
H978 C970 0.930 . S
H979 C971 0.929 . S
H980 C988 0.929 . S
H981 C990 0.930 . S
H982 C992 0.930 . S
H983 C995 0.929 . S
H984 C998 0.930 . S
H985 C1000 0.960 . S
H986 C1000 0.960 . S
H987 C1000 0.960 . S
C988 H980 0.929 . S
C988 C989 1.377 . S
C988 C990 1.384 . S
C989 C988 1.377 . S
C989 C995 1.390 . S
C990 H981 0.930 . S
C990 C988 1.384 . S
C990 C991 1.372 . S
C991 C990 1.372 . S
C991 C992 1.400 . S
C991 C996 1.490 . S
C992 H982 0.930 . S
C992 C991 1.400 . S
C992 C995 1.386 . S
H993 C1009 0.930 . S
H994 C1010 0.931 . S
C995 H983 0.929 . S
C995 C989 1.390 . S
C995 C992 1.386 . S
C996 C991 1.490 . S
C996 C998 1.395 . S
C996 C999 1.403 . S
H997 C1003 0.930 . S
C998 H984 0.930 . S
C998 C996 1.395 . S
C998 C1001 1.403 1_554 S
C999 C996 1.403 . S
C999 C1000 1.524 . S
C999 C1003 1.400 1_554 S
C1000 H985 0.960 . S
C1000 H986 0.960 . S
C1000 H987 0.960 . S
C1000 C999 1.524 . S
C1001 C998 1.403 1_556 S
C1001 C1002 1.392 . S
C1001 C1005 1.495 . S
C1002 C1001 1.392 . S
C1002 C1003 1.385 . S
C1002 C1004 1.478 . S
C1003 H997 0.930 . S
C1003 C999 1.400 1_556 S
C1003 C1002 1.385 . S
C1004 C1002 1.478 . S
C1004 C1006 1.381 . S
C1004 C1010 1.383 . S
C1005 C1001 1.495 . S
C1005 H1011 0.959 . S
C1005 H1012 0.961 . S
C1005 H1013 0.960 . S
C1006 C1004 1.381 . S
C1006 C1007 1.394 . S
C1006 H1014 0.930 1_556 S
C1007 C1006 1.394 . S
C1007 C1008 1.383 . S
C1007 H1015 0.929 . S
C1008 C1007 1.383 . S
C1008 C1009 1.377 . S
C1009 H993 0.930 . S
C1009 C1008 1.377 . S
C1009 C1010 1.379 . S
C1010 H994 0.931 . S
C1010 C1004 1.383 . S
C1010 C1009 1.379 . S
H1011 C1005 0.959 . S
H1012 C1005 0.961 . S
H1013 C1005 0.960 . S
H1014 C1006 0.930 1_554 S
H1015 C1007 0.929 . S
H1016 C1024 0.929 . S
H1017 C1026 0.930 . S
H1018 C1028 0.930 . S
H1019 C1031 0.929 . S
H1020 C1034 0.930 . S
H1021 C1036 0.960 . S
H1022 C1036 0.960 . S
H1023 C1036 0.960 . S
C1024 H1016 0.929 . S
C1024 C1025 1.377 . S
C1024 C1026 1.384 . S
C1025 C1024 1.377 . S
C1025 C1031 1.390 . S
C1026 H1017 0.930 . S
C1026 C1024 1.384 . S
C1026 C1027 1.372 . S
C1027 C1026 1.372 . S
C1027 C1028 1.400 . S
C1027 C1032 1.490 . S
C1028 H1018 0.930 . S
C1028 C1027 1.400 . S
C1028 C1031 1.386 . S
H1029 C1045 0.930 . S
H1030 C1046 0.931 . S
C1031 H1019 0.929 . S
C1031 C1025 1.390 . S
C1031 C1028 1.386 . S
C1032 C1027 1.490 . S
C1032 C1034 1.395 . S
C1032 C1035 1.403 . S
H1033 C1039 0.930 . S
C1034 H1020 0.930 . S
C1034 C1032 1.395 . S
C1034 C1037 1.403 . S
C1035 C1032 1.403 . S
C1035 C1036 1.524 . S
C1035 C1039 1.400 . S
C1036 H1021 0.960 . S
C1036 H1022 0.960 . S
C1036 H1023 0.960 . S
C1036 C1035 1.524 . S
C1037 C1034 1.403 . S
C1037 C1038 1.392 . S
C1037 C1041 1.495 . S
C1038 C1037 1.392 . S
C1038 C1039 1.385 . S
C1038 C1040 1.478 . S
C1039 H1033 0.930 . S
C1039 C1035 1.400 . S
C1039 C1038 1.385 . S
C1040 C1038 1.478 . S
C1040 C1042 1.381 . S
C1040 C1046 1.383 . S
C1041 C1037 1.495 . S
C1041 H1047 0.959 1_455 S
C1041 H1048 0.961 . S
C1041 H1049 0.960 1_455 S
C1042 C1040 1.381 . S
C1042 C1043 1.394 . S
C1042 H1050 0.930 . S
C1043 C1042 1.394 . S
C1043 C1044 1.383 . S
C1043 H1051 0.929 . S
C1044 C1043 1.383 . S
C1044 C1045 1.377 . S
C1045 H1029 0.930 . S
C1045 C1044 1.377 . S
C1045 C1046 1.379 . S
C1046 H1030 0.931 . S
C1046 C1040 1.383 . S
C1046 C1045 1.379 . S
H1047 C1041 0.959 1_655 S
H1048 C1041 0.961 . S
H1049 C1041 0.960 1_655 S
H1050 C1042 0.930 . S
H1051 C1043 0.929 . S
H1052 C1060 0.929 . S
H1053 C1062 0.930 . S
H1054 C1064 0.930 . S
H1055 C1067 0.929 . S
H1056 C1070 0.930 . S
H1057 C1072 0.960 . S
H1058 C1072 0.960 . S
H1059 C1072 0.960 . S
C1060 H1052 0.929 . S
C1060 C1061 1.377 . S
C1060 C1062 1.384 . S
C1061 C1060 1.377 . S
C1061 C1067 1.390 . S
C1062 H1053 0.930 . S
C1062 C1060 1.384 . S
C1062 C1063 1.372 . S
C1063 C1062 1.372 . S
C1063 C1064 1.400 . S
C1063 C1068 1.490 . S
C1064 H1054 0.930 . S
C1064 C1063 1.400 . S
C1064 C1067 1.386 . S
H1065 C1081 0.930 . S
H1066 C1082 0.931 . S
C1067 H1055 0.929 . S
C1067 C1061 1.390 . S
C1067 C1064 1.386 . S
C1068 C1063 1.490 . S
C1068 C1070 1.395 . S
C1068 C1071 1.403 . S
H1069 C1075 0.930 . S
C1070 H1056 0.930 . S
C1070 C1068 1.395 . S
C1070 C1073 1.403 . S
C1071 C1068 1.403 . S
C1071 C1072 1.524 . S
C1071 C1075 1.400 . S
C1072 H1057 0.960 . S
C1072 H1058 0.960 . S
C1072 H1059 0.960 . S
C1072 C1071 1.524 . S
C1073 C1070 1.403 . S
C1073 C1074 1.392 . S
C1073 C1077 1.495 1_545 S
C1074 C1073 1.392 . S
C1074 C1075 1.385 . S
C1074 C1076 1.478 . S
C1075 H1069 0.930 . S
C1075 C1071 1.400 . S
C1075 C1074 1.385 . S
C1076 C1074 1.478 . S
C1076 C1078 1.381 . S
C1076 C1082 1.383 . S
C1077 C1073 1.495 1_565 S
C1077 H1083 0.959 . S
C1077 H1084 0.961 . S
C1077 H1085 0.960 . S
C1078 C1076 1.381 . S
C1078 C1079 1.394 . S
C1078 H1086 0.930 . S
C1079 C1078 1.394 . S
C1079 C1080 1.383 . S
C1079 H1087 0.929 . S
C1080 C1079 1.383 . S
C1080 C1081 1.377 . S
C1081 H1065 0.930 . S
C1081 C1080 1.377 . S
C1081 C1082 1.379 . S
C1082 H1066 0.931 . S
C1082 C1076 1.383 . S
C1082 C1081 1.379 . S
H1083 C1077 0.959 . S
H1084 C1077 0.961 . S
H1085 C1077 0.960 . S
H1086 C1078 0.930 . S
H1087 C1079 0.929 . S
H1088 C1096 0.929 . S
H1089 C1098 0.930 . S
H1090 C1100 0.930 . S
H1091 C1103 0.929 . S
H1092 C1106 0.930 . S
H1093 C1108 0.960 . S
H1094 C1108 0.960 . S
H1095 C1108 0.960 . S
C1096 H1088 0.929 . S
C1096 C1097 1.377 . S
C1096 C1098 1.384 . S
C1097 C1096 1.377 . S
C1097 C1103 1.390 . S
C1098 H1089 0.930 . S
C1098 C1096 1.384 . S
C1098 C1099 1.372 . S
C1099 C1098 1.372 . S
C1099 C1100 1.400 . S
C1099 C1104 1.490 . S
C1100 H1090 0.930 . S
C1100 C1099 1.400 . S
C1100 C1103 1.386 . S
H1101 C1117 0.930 . S
H1102 C1118 0.931 . S
C1103 H1091 0.929 . S
C1103 C1097 1.390 . S
C1103 C1100 1.386 . S
C1104 C1099 1.490 . S
C1104 C1106 1.395 . S
C1104 C1107 1.403 . S
H1105 C1111 0.930 . S
C1106 H1092 0.930 . S
C1106 C1104 1.395 . S
C1106 C1109 1.403 . S
C1107 C1104 1.403 . S
C1107 C1108 1.524 . S
C1107 C1111 1.400 . S
C1108 H1093 0.960 . S
C1108 H1094 0.960 . S
C1108 H1095 0.960 . S
C1108 C1107 1.524 . S
C1109 C1106 1.403 . S
C1109 C1110 1.392 . S
C1109 C1113 1.495 . S
C1110 C1109 1.392 . S
C1110 C1111 1.385 . S
C1110 C1112 1.478 . S
C1111 H1105 0.930 . S
C1111 C1107 1.400 . S
C1111 C1110 1.385 . S
C1112 C1110 1.478 . S
C1112 C1114 1.381 . S
C1112 C1118 1.383 . S
C1113 C1109 1.495 . S
C1113 H1119 0.959 . S
C1113 H1120 0.961 . S
C1113 H1121 0.960 . S
C1114 C1112 1.381 . S
C1114 C1115 1.394 . S
C1114 H1122 0.930 . S
C1115 C1114 1.394 . S
C1115 C1116 1.383 . S
C1115 H1123 0.929 . S
C1116 C1115 1.383 . S
C1116 C1117 1.377 . S
C1117 H1101 0.930 . S
C1117 C1116 1.377 . S
C1117 C1118 1.379 . S
C1118 H1102 0.931 . S
C1118 C1112 1.383 . S
C1118 C1117 1.379 . S
H1119 C1113 0.959 . S
H1120 C1113 0.961 . S
H1121 C1113 0.960 . S
H1122 C1114 0.930 . S
H1123 C1115 0.929 . S
H1124 C1132 0.929 . S
H1125 C1134 0.930 . S
H1126 C1136 0.930 . S
H1127 C1139 0.929 . S
H1128 C1142 0.930 . S
H1129 C1144 0.960 . S
H1130 C1144 0.960 . S
H1131 C1144 0.960 . S
C1132 H1124 0.929 . S
C1132 C1133 1.377 . S
C1132 C1134 1.384 . S
C1133 C1132 1.377 . S
C1133 C1139 1.390 . S
C1134 H1125 0.930 . S
C1134 C1132 1.384 . S
C1134 C1135 1.372 . S
C1135 C1134 1.372 . S
C1135 C1136 1.400 . S
C1135 C1140 1.490 . S
C1136 H1126 0.930 . S
C1136 C1135 1.400 . S
C1136 C1139 1.386 . S
H1137 C1153 0.930 . S
H1138 C1154 0.931 . S
C1139 H1127 0.929 . S
C1139 C1133 1.390 . S
C1139 C1136 1.386 . S
C1140 C1135 1.490 . S
C1140 C1142 1.395 . S
C1140 C1143 1.403 . S
H1141 C1147 0.930 . S
C1142 H1128 0.930 . S
C1142 C1140 1.395 . S
C1142 C1145 1.403 . S
C1143 C1140 1.403 . S
C1143 C1144 1.524 . S
C1143 C1147 1.400 . S
C1144 H1129 0.960 . S
C1144 H1130 0.960 . S
C1144 H1131 0.960 . S
C1144 C1143 1.524 . S
C1145 C1142 1.403 . S
C1145 C1146 1.392 . S
C1145 C1149 1.495 . S
C1146 C1145 1.392 . S
C1146 C1147 1.385 . S
C1146 C1148 1.478 . S
C1147 H1141 0.930 . S
C1147 C1143 1.400 . S
C1147 C1146 1.385 . S
C1148 C1146 1.478 . S
C1148 C1150 1.381 . S
C1148 C1154 1.383 . S
C1149 C1145 1.495 . S
C1149 H1155 0.959 . S
C1149 H1156 0.961 . S
C1149 H1157 0.960 . S
C1150 C1148 1.381 . S
C1150 C1151 1.394 . S
C1150 H1158 0.930 . S
C1151 C1150 1.394 . S
C1151 C1152 1.383 . S
C1151 H1159 0.929 . S
C1152 C1151 1.383 . S
C1152 C1153 1.377 . S
C1153 H1137 0.930 . S
C1153 C1152 1.377 . S
C1153 C1154 1.379 . S
C1154 H1138 0.931 . S
C1154 C1148 1.383 . S
C1154 C1153 1.379 . S
H1155 C1149 0.959 . S
H1156 C1149 0.961 . S
H1157 C1149 0.960 . S
H1158 C1150 0.930 . S
H1159 C1151 0.929 . S
H1160 C1168 0.929 . S
H1161 C1170 0.930 . S
H1162 C1172 0.930 . S
H1163 C1175 0.929 . S
H1164 C1178 0.930 . S
H1165 C1180 0.960 . S
H1166 C1180 0.960 . S
H1167 C1180 0.960 . S
C1168 H1160 0.929 . S
C1168 C1169 1.377 . S
C1168 C1170 1.384 . S
C1169 C1168 1.377 . S
C1169 C1175 1.390 . S
C1170 H1161 0.930 . S
C1170 C1168 1.384 . S
C1170 C1171 1.372 . S
C1171 C1170 1.372 . S
C1171 C1172 1.400 . S
C1171 C1176 1.490 . S
C1172 H1162 0.930 . S
C1172 C1171 1.400 . S
C1172 C1175 1.386 . S
H1173 C1189 0.930 1_455 S
H1174 C1190 0.931 1_455 S
C1175 H1163 0.929 . S
C1175 C1169 1.390 . S
C1175 C1172 1.386 . S
C1176 C1171 1.490 . S
C1176 C1178 1.395 . S
C1176 C1179 1.403 . S
H1177 C1183 0.930 . S
C1178 H1164 0.930 . S
C1178 C1176 1.395 . S
C1178 C1181 1.403 . S
C1179 C1176 1.403 . S
C1179 C1180 1.524 . S
C1179 C1183 1.400 . S
C1180 H1165 0.960 . S
C1180 H1166 0.960 . S
C1180 H1167 0.960 . S
C1180 C1179 1.524 . S
C1181 C1178 1.403 . S
C1181 C1182 1.392 . S
C1181 C1185 1.495 . S
C1182 C1181 1.392 . S
C1182 C1183 1.385 . S
C1182 C1184 1.478 . S
C1183 H1177 0.930 . S
C1183 C1179 1.400 . S
C1183 C1182 1.385 . S
C1184 C1182 1.478 . S
C1184 C1186 1.381 . S
C1184 C1190 1.383 . S
C1185 C1181 1.495 . S
C1185 H1191 0.959 . S
C1185 H1192 0.961 . S
C1185 H1193 0.960 . S
C1186 C1184 1.381 . S
C1186 C1187 1.394 . S
C1186 H1194 0.930 . S
C1187 C1186 1.394 . S
C1187 C1188 1.383 . S
C1187 H1195 0.929 . S
C1188 C1187 1.383 . S
C1188 C1189 1.377 . S
C1189 H1173 0.930 1_655 S
C1189 C1188 1.377 . S
C1189 C1190 1.379 . S
C1190 H1174 0.931 1_655 S
C1190 C1184 1.383 . S
C1190 C1189 1.379 . S
H1191 C1185 0.959 . S
H1192 C1185 0.961 . S
H1193 C1185 0.960 . S
H1194 C1186 0.930 . S
H1195 C1187 0.929 . S
H1196 C1204 0.929 . S
H1197 C1206 0.930 . S
H1198 C1208 0.930 . S
H1199 C1211 0.929 . S
H1200 C1214 0.930 . S
H1201 C1216 0.960 . S
H1202 C1216 0.960 . S
H1203 C1216 0.960 . S
C1204 H1196 0.929 . S
C1204 C1205 1.377 . S
C1204 C1206 1.384 . S
C1205 C1204 1.377 . S
C1205 C1211 1.390 . S
C1206 H1197 0.930 . S
C1206 C1204 1.384 . S
C1206 C1207 1.372 . S
C1207 C1206 1.372 . S
C1207 C1208 1.400 . S
C1207 C1212 1.490 . S
C1208 H1198 0.930 . S
C1208 C1207 1.400 . S
C1208 C1211 1.386 . S
H1209 C1225 0.899 1_545 S
H1210 C1226 0.931 1_545 S
C1211 H1199 0.929 . S
C1211 C1205 1.390 . S
C1211 C1208 1.386 . S
C1212 C1207 1.490 . S
C1212 C1214 1.395 . S
C1212 C1215 1.403 . S
H1213 C1219 0.930 . S
C1214 H1200 0.930 . S
C1214 C1212 1.395 . S
C1214 C1217 1.403 . S
C1215 C1212 1.403 . S
C1215 C1216 1.524 . S
C1215 C1219 1.400 . S
C1216 H1201 0.960 . S
C1216 H1202 0.960 . S
C1216 H1203 0.960 . S
C1216 C1215 1.524 . S
C1217 C1214 1.403 . S
C1217 C1218 1.392 . S
C1217 C1221 1.495 . S
C1218 C1217 1.392 . S
C1218 C1219 1.385 . S
C1218 C1220 1.478 . S
C1219 H1213 0.930 . S
C1219 C1215 1.400 . S
C1219 C1218 1.385 . S
C1220 C1218 1.478 . S
C1220 C1222 1.381 . S
C1220 C1226 1.383 . S
C1221 C1217 1.495 . S
C1221 H1227 0.959 1_565 S
C1221 H1228 0.961 1_565 S
C1221 H1229 0.960 . S
C1222 C1220 1.381 . S
C1222 C1223 1.394 . S
C1222 H1230 0.930 . S
C1223 C1222 1.394 . S
C1223 C1224 1.383 . S
C1223 H1231 0.929 . S
C1224 C1223 1.383 . S
C1224 C1225 1.400 . S
C1225 H1209 0.899 1_565 S
C1225 C1224 1.400 . S
C1225 C1226 1.389 . S
C1226 H1210 0.931 1_565 S
C1226 C1220 1.383 . S
C1226 C1225 1.389 . S
H1227 C1221 0.959 1_545 S
H1228 C1221 0.961 1_545 S
H1229 C1221 0.960 . S
H1230 C1222 0.930 . S
H1231 C1223 0.929 . S
H1232 C1240 0.929 . S
H1233 C1242 0.930 . S
H1234 C1244 0.930 . S
H1235 C1247 0.929 . S
H1236 C1250 0.930 . S
H1237 C1252 0.960 . S
H1238 C1252 0.960 . S
H1239 C1252 0.960 . S
C1240 H1232 0.929 . S
C1240 C1241 1.377 . S
C1240 C1242 1.384 . S
C1241 C1240 1.377 . S
C1241 C1247 1.390 . S
C1242 H1233 0.930 . S
C1242 C1240 1.384 . S
C1242 C1243 1.372 . S
C1243 C1242 1.372 . S
C1243 C1244 1.400 . S
C1243 C1248 1.490 . S
C1244 H1234 0.930 . S
C1244 C1243 1.400 . S
C1244 C1247 1.386 . S
H1245 C1261 0.930 . S
H1246 C1262 0.931 . S
C1247 H1235 0.929 . S
C1247 C1241 1.390 . S
C1247 C1244 1.386 . S
C1248 C1243 1.490 . S
C1248 C1250 1.395 . S
C1248 C1251 1.403 . S
H1249 C1255 0.930 . S
C1250 H1236 0.930 . S
C1250 C1248 1.395 . S
C1250 C1253 1.403 . S
C1251 C1248 1.403 . S
C1251 C1252 1.524 . S
C1251 C1255 1.400 . S
C1252 H1237 0.960 . S
C1252 H1238 0.960 . S
C1252 H1239 0.960 . S
C1252 C1251 1.524 . S
C1253 C1250 1.403 . S
C1253 C1254 1.392 . S
C1253 C1257 1.495 . S
C1254 C1253 1.392 . S
C1254 C1255 1.385 . S
C1254 C1256 1.478 . S
C1255 H1249 0.930 . S
C1255 C1251 1.400 . S
C1255 C1254 1.385 . S
C1256 C1254 1.478 . S
C1256 C1258 1.381 . S
C1256 C1262 1.383 . S
C1257 C1253 1.495 . S
C1257 H1263 0.959 . S
C1257 H1264 0.961 . S
C1257 H1265 0.960 . S
C1258 C1256 1.381 . S
C1258 C1259 1.394 . S
C1258 H1266 0.930 . S
C1259 C1258 1.394 . S
C1259 C1260 1.383 . S
C1259 H1267 0.929 . S
C1260 C1259 1.383 . S
C1260 C1261 1.377 . S
C1261 H1245 0.930 . S
C1261 C1260 1.377 . S
C1261 C1262 1.379 . S
C1262 H1246 0.931 . S
C1262 C1256 1.383 . S
C1262 C1261 1.379 . S
H1263 C1257 0.959 . S
H1264 C1257 0.961 . S
H1265 C1257 0.960 . S
H1266 C1258 0.930 . S
H1267 C1259 0.929 . S
H1268 C1276 0.929 . S
H1269 C1278 0.930 . S
H1270 C1280 0.930 . S
H1271 C1283 0.929 . S
H1272 C1286 0.930 . S
H1273 C1288 0.960 . S
H1274 C1288 0.960 . S
H1275 C1288 0.960 . S
C1276 H1268 0.929 . S
C1276 C1277 1.377 . S
C1276 C1278 1.384 . S
C1277 C1276 1.377 . S
C1277 C1283 1.390 . S
C1278 H1269 0.930 . S
C1278 C1276 1.384 . S
C1278 C1279 1.372 . S
C1279 C1278 1.372 . S
C1279 C1280 1.400 . S
C1279 C1284 1.490 . S
C1280 H1270 0.930 . S
C1280 C1279 1.400 . S
C1280 C1283 1.386 . S
H1281 C1297 0.930 . S
H1282 C1298 0.931 . S
C1283 H1271 0.929 . S
C1283 C1277 1.390 . S
C1283 C1280 1.386 . S
C1284 C1279 1.490 . S
C1284 C1286 1.395 . S
C1284 C1287 1.403 . S
H1285 C1291 0.930 . S
C1286 H1272 0.930 . S
C1286 C1284 1.395 . S
C1286 C1289 1.403 . S
C1287 C1284 1.403 . S
C1287 C1288 1.524 . S
C1287 C1291 1.400 . S
C1288 H1273 0.960 . S
C1288 H1274 0.960 . S
C1288 H1275 0.960 . S
C1288 C1287 1.524 . S
C1289 C1286 1.403 . S
C1289 C1290 1.392 . S
C1289 C1293 1.495 . S
C1290 C1289 1.392 . S
C1290 C1291 1.385 . S
C1290 C1292 1.478 . S
C1291 H1285 0.930 . S
C1291 C1287 1.400 . S
C1291 C1290 1.385 . S
C1292 C1290 1.478 . S
C1292 C1294 1.381 . S
C1292 C1298 1.383 . S
C1293 C1289 1.495 . S
C1293 H1299 0.959 . S
C1293 H1300 0.961 . S
C1293 H1301 0.960 . S
C1294 C1292 1.381 . S
C1294 C1295 1.394 . S
C1294 H1302 0.930 . S
C1295 C1294 1.394 . S
C1295 C1296 1.383 . S
C1295 H1303 0.929 . S
C1296 C1295 1.383 . S
C1296 C1297 1.377 . S
C1297 H1281 0.930 . S
C1297 C1296 1.377 . S
C1297 C1298 1.379 . S
C1298 H1282 0.931 . S
C1298 C1292 1.383 . S
C1298 C1297 1.379 . S
H1299 C1293 0.959 . S
H1300 C1293 0.961 . S
H1301 C1293 0.960 . S
H1302 C1294 0.930 . S
H1303 C1295 0.929 . S
C449 C82 1.699 . S
C468 C179 1.832 . S
C504 C263 1.851 . S
C485 C95 1.739 . S
C540 C339 1.855 . S
C521 C56 1.846 . S
C576 C423 1.843 . S
C557 C69 1.822 . S
C612 C170 1.836 1_565 S
C593 C30 1.642 . S
C629 C43 1.674 . S
C648 C254 1.875 . S
C665 C4 1.781 . S
C684 C328 1.911 . S
C701 C17 1.761 . S
C720 C412 1.889 . S
C756 C167 0.478 1_455 S
C737 C74 0.509 . S
C792 C251 0.605 . S
C773 C87 0.453 . S
C828 C344 0.501 . S
C809 C100 0.432 . S
C845 C61 0.462 . S
C864 C428 0.609 . S
C881 C22 0.487 . S
C900 C176 0.558 . S
C936 C260 0.584 . S
C917 C35 0.486 . S
C972 C335 0.506 . S
C953 C48 0.469 . S
C989 C9 0.465 . S
C1008 C419 0.512 . S
C1025 C73 1.943 . S
C1044 C160 1.956 . S
C1061 C86 1.908 . S
C1080 C244 1.928 . S
C1116 C338 1.919 . S
C1097 C99 1.805 . S
C1152 C422 1.971 . S
C1133 C60 1.848 . S
C1169 C21 1.942 . S
C1188 C171 1.959 . S
C1224 C255 1.915 1_565 S
C1205 C34 1.909 . S
C1260 C347 1.917 . S
C1241 C47 1.811 . S
C1277 C8 1.833 . S
C1296 C431 1.970 . S
