# Generated by pormake.
# Topology nom, (4,4)-cn, num edge types: 1
# Building blocks:
#     Node 0, Type 0, BuildingBlock: KUFVIS_clean_linker_0, # of connection points: 4
#     Node 1, Type 0, BuildingBlock: KUFVIS_clean_linker_0, # of connection points: 4
#     Node 2, Type 0, BuildingBlock: KUFVIS_clean_linker_0, # of connection points: 4
#     Node 3, Type 0, BuildingBlock: KUFVIS_clean_linker_0, # of connection points: 4
#     Node 4, Type 0, BuildingBlock: KUFVIS_clean_linker_0, # of connection points: 4
#     Node 5, Type 0, BuildingBlock: KUFVIS_clean_linker_0, # of connection points: 4
#     Node 6, Type 1, BuildingBlock: QUQFOY_clean_sbu_3, # of connection points: 4
#     Node 7, Type 1, BuildingBlock: QUQFOY_clean_sbu_3, # of connection points: 4
#     Node 8, Type 1, BuildingBlock: QUQFOY_clean_sbu_3, # of connection points: 4
#     Node 9, Type 1, BuildingBlock: QUQFOY_clean_sbu_3, # of connection points: 4
#     Node 10, Type 1, BuildingBlock: QUQFOY_clean_sbu_3, # of connection points: 4
#     Node 11, Type 1, BuildingBlock: QUQFOY_clean_sbu_3, # of connection points: 4
#     Edge 12, Type (0, 1), BuildingBlock: XUDNAN_clean_linker_2, # of connection points: 2
#     Edge 13, Type (0, 1), BuildingBlock: XUDNAN_clean_linker_2, # of connection points: 2
#     Edge 14, Type (0, 1), BuildingBlock: XUDNAN_clean_linker_2, # of connection points: 2
#     Edge 15, Type (0, 1), BuildingBlock: XUDNAN_clean_linker_2, # of connection points: 2
#     Edge 16, Type (0, 1), BuildingBlock: XUDNAN_clean_linker_2, # of connection points: 2
#     Edge 17, Type (0, 1), BuildingBlock: XUDNAN_clean_linker_2, # of connection points: 2
#     Edge 18, Type (0, 1), BuildingBlock: XUDNAN_clean_linker_2, # of connection points: 2
#     Edge 19, Type (0, 1), BuildingBlock: XUDNAN_clean_linker_2, # of connection points: 2
#     Edge 20, Type (0, 1), BuildingBlock: XUDNAN_clean_linker_2, # of connection points: 2
#     Edge 21, Type (0, 1), BuildingBlock: XUDNAN_clean_linker_2, # of connection points: 2
#     Edge 22, Type (0, 1), BuildingBlock: XUDNAN_clean_linker_2, # of connection points: 2
#     Edge 23, Type (0, 1), BuildingBlock: XUDNAN_clean_linker_2, # of connection points: 2
#     Edge 24, Type (0, 1), BuildingBlock: XUDNAN_clean_linker_2, # of connection points: 2
#     Edge 25, Type (0, 1), BuildingBlock: XUDNAN_clean_linker_2, # of connection points: 2
#     Edge 26, Type (0, 1), BuildingBlock: XUDNAN_clean_linker_2, # of connection points: 2
#     Edge 27, Type (0, 1), BuildingBlock: XUDNAN_clean_linker_2, # of connection points: 2
#     Edge 28, Type (0, 1), BuildingBlock: XUDNAN_clean_linker_2, # of connection points: 2
#     Edge 29, Type (0, 1), BuildingBlock: XUDNAN_clean_linker_2, # of connection points: 2
#     Edge 30, Type (0, 1), BuildingBlock: XUDNAN_clean_linker_2, # of connection points: 2
#     Edge 31, Type (0, 1), BuildingBlock: XUDNAN_clean_linker_2, # of connection points: 2
#     Edge 32, Type (0, 1), BuildingBlock: XUDNAN_clean_linker_2, # of connection points: 2
#     Edge 33, Type (0, 1), BuildingBlock: XUDNAN_clean_linker_2, # of connection points: 2
#     Edge 34, Type (0, 1), BuildingBlock: XUDNAN_clean_linker_2, # of connection points: 2
#     Edge 35, Type (0, 1), BuildingBlock: XUDNAN_clean_linker_2, # of connection points: 2
# Relax obj value: 0.003
# Max RMSD: 0.047
# Mean RMSD: 0.035
data_MOF--net-nom--node1-QUQFOY_clean_sbu_3--node2-KUFVIS_clean_linker_0--edge1-XUDNAN_clean_linker_2
_symmetry_space_group_name_H-M    P1
_symmetry_Int_Tables_number       1
_symmetry_cell_setting            triclinic
loop_
_symmetry_equiv_pos_as_xyz
'x, y, z'
_cell_length_a     46.139802
_cell_length_b     46.926045
_cell_length_c     47.290237
_cell_angle_alpha  89.849591
_cell_angle_beta   90.208471
_cell_angle_gamma 120.14317
loop_
_atom_site_label
_atom_site_type_symbol
_atom_site_fract_x
_atom_site_fract_y
_atom_site_fract_z
_atom_type_partial_charge
H0 H 0.11985 0.58295 0.33521 0.0
H1 H 0.044 0.55349 0.27198 0.0
H2 H 0.01692 0.52238 0.35914 0.0
H3 H 0.97012 0.5216 0.34679 0.0
H4 H 0.89565 0.47751 0.28188 0.0
H5 H 0.99757 0.50622 0.26346 0.0
C6 C 0.09349 0.56919 0.32951 0.0
C7 C 0.06928 0.55297 0.3504 0.0
C8 C 0.08433 0.56877 0.30139 0.0
C9 C 0.05039 0.55226 0.29381 0.0
C10 C 0.0252 0.53495 0.31436 0.0
C11 C 0.03522 0.53562 0.34281 0.0
C12 C 0.98881 0.51689 0.30608 0.0
C13 C 0.96359 0.51255 0.32538 0.0
C14 C 0.92968 0.49692 0.3171 0.0
C15 C 0.92126 0.487 0.28888 0.0
C16 C 0.94572 0.49099 0.26926 0.0
C17 C 0.97912 0.50476 0.27834 0.0
H18 H 0.5555 0.12347 0.49916 0.0
H19 H 0.5122 0.04981 0.4349 0.0
H20 H 0.51576 0.0223 0.52196 0.0
H21 H 0.46996 0.97521 0.50865 0.0
H22 H 0.45077 0.90377 0.44418 0.0
H23 H 0.51607 1.0058 0.42628 0.0
C24 C 0.54419 0.09785 0.49288 0.0
C25 C 0.53651 0.07383 0.5136 0.0
C26 C 0.53643 0.08948 0.46443 0.0
C27 C 0.51938 0.05602 0.4568 0.0
C28 C 0.51185 0.03102 0.47724 0.0
C29 C 0.52061 0.0405 0.50578 0.0
C30 C 0.49536 0.99539 0.46867 0.0
C31 C 0.47471 0.96963 0.48758 0.0
C32 C 0.45886 0.93641 0.47898 0.0
C33 C 0.46337 0.92917 0.45112 0.0
C34 C 0.48279 0.95409 0.43177 0.0
C35 C 0.49966 0.98692 0.441 0.0
H36 H 0.55217 0.43906 0.62999 0.0
H37 H 0.50885 0.47109 0.69314 0.0
H38 H 0.51048 0.49841 0.60505 0.0
H39 H 0.46641 0.50095 0.61606 0.0
H40 H 0.43671 0.54714 0.67823 0.0
H41 H 0.50607 0.51563 0.70108 0.0
C42 C 0.54061 0.45343 0.63578 0.0
C43 C 0.53182 0.46839 0.61455 0.0
C44 C 0.5335 0.4553 0.66417 0.0
C45 C 0.51574 0.47141 0.67127 0.0
C46 C 0.50698 0.48749 0.65021 0.0
C47 C 0.51572 0.48592 0.6218 0.0
C48 C 0.4885 0.50536 0.65764 0.0
C49 C 0.46867 0.51014 0.63733 0.0
C50 C 0.45123 0.52664 0.64425 0.0
C51 C 0.4522 0.53685 0.67221 0.0
C52 C 0.47138 0.53236 0.69286 0.0
C53 C 0.49016 0.51751 0.68524 0.0
H54 H 0.13548 0.5531 0.78391 0.0
H55 H 0.05919 0.50855 0.84712 0.0
H56 H 0.03284 0.51528 0.76069 0.0
H57 H 0.98826 0.46714 0.7697 0.0
H58 H 0.9101 0.43176 0.83121 0.0
H59 H 0.0097 0.50439 0.85567 0.0
C60 C 0.10945 0.54235 0.79 0.0
C61 C 0.08518 0.53519 0.76907 0.0
C62 C 0.10044 0.53384 0.81837 0.0
C63 C 0.06616 0.51649 0.82549 0.0
C64 C 0.04108 0.50872 0.80478 0.0
C65 C 0.05125 0.51945 0.77681 0.0
C66 C 1.0045 0.48808 0.81193 0.0
C67 C 0.98076 0.46787 0.79121 0.0
C68 C 0.9468 0.44788 0.79814 0.0
C69 C 0.93646 0.44688 0.82597 0.0
C70 C 0.95914 0.46701 0.84665 0.0
C71 C 0.99288 0.48803 0.83957 0.0
H72 H 0.47964 0.91223 0.00254 0.0
H73 H 0.53825 0.98762 0.94211 0.0
H74 H 0.51107 0.01226 0.02242 0.0
H75 H 0.55911 0.06023 0.01522 0.0
H76 H 0.59213 0.13278 0.94952 0.0
H77 H 0.53327 0.03067 0.92793 0.0
C78 C 0.49338 0.93801 -0.00358 0.0
C79 C 0.49507 0.96143 0.01541 0.0
C80 C 0.5087 0.94707 0.96991 0.0
C81 C 0.52558 0.98062 0.96229 0.0
C82 C 0.52679 1.0049 0.98098 0.0
C83 C 0.5111 0.99469 0.00765 0.0
C84 C 0.54423 0.04061 0.97263 0.0
C85 C 0.55948 0.0661 -0.00696 0.0
C86 C 0.57548 0.09947 0.98486 0.0
C87 C 0.57769 0.10721 0.95604 0.0
C88 C 0.56298 0.08261 0.93545 0.0
C89 C 0.54572 0.04947 0.94391 0.0
H90 H 0.48722 0.60263 0.13282 0.0
H91 H 0.5229 0.56279 0.19627 0.0
H92 H 0.52247 0.53776 0.10787 0.0
H93 H 0.56588 0.53357 0.12023 0.0
H94 H 0.5903 0.48309 0.18285 0.0
H95 H 0.52114 0.51558 0.20318 0.0
C96 C 0.49762 0.58713 0.13841 0.0
C97 C 0.50475 0.57091 0.1172 0.0
C98 C 0.50345 0.58357 0.1668 0.0
C99 C 0.5175 0.56411 0.17419 0.0
C100 C 0.52532 0.54754 0.15312 0.0
C101 C 0.51822 0.55095 0.12456 0.0
C102 C 0.54149 0.52756 0.16074 0.0
C103 C 0.56204 0.52312 0.1412 0.0
C104 C 0.57849 0.50576 0.14865 0.0
C105 C 0.57545 0.49397 0.17634 0.0
C106 C 0.55538 0.49804 0.19624 0.0
C107 C 0.53766 0.51384 0.18801 0.0
C108 C 0.71729 0.44032 0.40939 0.0
O109 O 0.71086 0.45905 0.42413 0.0
Cd110 Cd 0.65719 0.44985 0.43814 0.0
O111 O 0.69373 0.41227 0.40099 0.0
Cd112 Cd 0.63105 0.37797 0.4064 0.0
C113 C 0.61882 0.43458 0.3722 0.0
O114 O 0.62698 0.3949 0.45384 0.0
O115 O 0.58042 0.36961 0.43114 0.0
O116 O 0.63475 0.32882 0.41628 0.0
C117 C 0.59571 0.38402 0.45362 0.0
O118 O 0.62975 0.45175 0.39467 0.0
C119 C 0.61259 0.31031 0.39849 0.0
O120 O 0.61893 0.40756 0.36946 0.0
O121 O 0.59982 0.3236 0.38331 0.0
C122 C 0.3003 0.58487 0.54718 0.0
O123 O 0.27363 0.56452 0.53434 0.0
Cd124 Cd 0.22601 0.56973 0.52354 0.0
O125 O 0.30485 0.6129 0.555 0.0
Cd126 Cd 0.2731 0.64369 0.55092 0.0
C127 C 0.20797 0.58792 0.59017 0.0
O128 O 0.24557 0.62303 0.50578 0.0
O129 O 0.22414 0.64512 0.53197 0.0
O130 O 0.31531 0.69486 0.5297 0.0
C131 C 0.22359 0.63143 0.50874 0.0
O132 O 0.2007 0.56926 0.56861 0.0
C133 C 0.31999 0.71324 0.55087 0.0
O134 O 0.23464 0.61616 0.59084 0.0
O135 O 0.30401 0.69923 0.57331 0.0
C136 C 0.72857 0.29947 0.7167 0.0
O137 O 0.72514 0.27317 0.70597 0.0
Cd138 Cd 0.67321 0.22596 0.69185 0.0
O139 O 0.70318 0.30255 0.72199 0.0
Cd140 Cd 0.64056 0.26825 0.71875 0.0
C141 C 0.6354 0.20434 0.75712 0.0
O142 O 0.63768 0.24414 0.6725 0.0
O143 O 0.59135 0.22323 0.69552 0.0
O144 O 0.63855 0.31801 0.70695 0.0
C145 C 0.6067 0.22294 0.67348 0.0
O146 O 0.64731 0.19776 0.73547 0.0
C147 C 0.6166 0.31384 0.72516 0.0
O148 O 0.63291 0.23024 0.75802 0.0
O149 O 0.60615 0.28874 0.74109 0.0
C150 C 0.3142 0.59673 0.91062 0.0
O151 O 0.32038 0.57691 0.92406 0.0
Cd152 Cd 0.37335 0.58278 0.93547 0.0
O153 O 0.3381 0.62446 0.90195 0.0
Cd154 Cd 0.40146 0.65505 0.90535 0.0
C155 C 0.41004 0.5976 0.86904 0.0
O156 O 0.40706 0.6369 0.95187 0.0
O157 O 0.45155 0.65717 0.92635 0.0
O158 O 0.41181 0.70726 0.92425 0.0
C159 C 0.43767 0.64521 0.94992 0.0
O160 O 0.39842 0.58002 0.89123 0.0
C161 C 0.42623 0.72469 0.90268 0.0
O162 O 0.41191 0.62564 0.86702 0.0
O163 O 0.42788 0.70964 0.88096 0.0
C164 C 0.73594 0.45384 0.05536 0.0
O165 O 0.76324 0.47505 0.04389 0.0
Cd166 Cd 0.80885 0.47024 0.02677 0.0
O167 O 0.72947 0.42423 0.05954 0.0
Cd168 Cd 0.75893 0.3919 0.04949 0.0
C169 C 0.82904 0.44347 0.08796 0.0
O170 O 0.7808 0.41862 0.00483 0.0
O171 O 0.79812 0.38575 0.01691 0.0
O172 O 0.70602 0.34159 0.03782 0.0
C173 C 0.79907 0.40648 -0.0008 0.0
O174 O 0.83666 0.46454 0.0682 0.0
C175 C 0.71092 0.32269 0.05396 0.0
O176 O 0.80127 0.41622 0.08768 0.0
O177 O 0.7374 0.33623 0.06893 0.0
C178 C 0.30059 0.73152 0.22629 0.0
O179 O 0.30074 0.75744 0.21815 0.0
Cd180 Cd 0.34826 0.80586 0.19917 0.0
O181 O 0.32755 0.73014 0.22684 0.0
Cd182 Cd 0.38899 0.76471 0.21731 0.0
C183 C 0.40241 0.83126 0.25672 0.0
O184 O 0.37607 0.78322 0.17411 0.0
O185 O 0.42842 0.80125 0.18042 0.0
O186 O 0.38226 0.70944 0.21485 0.0
C187 C 0.40574 0.80191 0.16578 0.0
O188 O 0.38482 0.83605 0.23855 0.0
C189 C 0.41219 0.71838 0.22191 0.0
O190 O 0.40559 0.80578 0.2556 0.0
O191 O 0.43146 0.7488 0.22694 0.0
H192 H 0.11416 0.6332 0.28603 0.0
H193 H 0.1172 0.54347 0.27328 0.0
H194 H 0.17216 0.57526 0.24952 0.0
H195 H 0.15869 0.67561 0.21848 0.0
H196 H 0.18034 0.71511 0.23584 0.0
H197 H 0.13902 0.68447 0.24734 0.0
H198 H 0.16184 0.68901 0.29824 0.0
H199 H 0.20335 0.71899 0.28686 0.0
H200 H 0.19628 0.68189 0.30439 0.0
H201 H 0.23034 0.61766 0.2349 0.0
H202 H 0.28495 0.66709 0.22437 0.0
H203 H 0.24344 0.72939 0.24515 0.0
C204 C 0.12577 0.62023 0.27693 0.0
C205 C 0.11132 0.58593 0.28058 0.0
C206 C 0.12766 0.56965 0.26979 0.0
C207 C 0.15892 0.58754 0.25652 0.0
C208 C 0.17326 0.62162 0.25417 0.0
C209 C 0.1569 0.63775 0.2635 0.0
C210 C 0.17883 0.67475 0.26035 0.0
C211 C 0.1633 0.68828 0.23924 0.0
C212 C 0.18546 0.69216 0.28918 0.0
C213 C 0.21038 0.67696 0.24862 0.0
C214 C 0.2067 0.64606 0.24527 0.0
C215 C 0.23329 0.64196 0.23683 0.0
C216 C 0.26429 0.67016 0.23116 0.0
C217 C 0.26834 0.70203 0.23374 0.0
C218 C 0.24095 0.70533 0.24258 0.0
H219 H 0.5959 0.14704 0.46135 0.0
H220 H 0.49823 0.09371 0.42135 0.0
H221 H 0.51128 0.14356 0.3935 0.0
H222 H 0.59318 0.21682 0.47343 0.0
H223 H 0.63715 0.24526 0.46787 0.0
H224 H 0.62349 0.20388 0.47924 0.0
H225 H 0.6528 0.19526 0.43613 0.0
H226 H 0.66684 0.23686 0.42468 0.0
H227 H 0.64306 0.20287 0.40095 0.0
H228 H 0.53184 0.20191 0.37589 0.0
H229 H 0.5569 0.26227 0.371 0.0
H230 H 0.63955 0.27715 0.42498 0.0
C231 C 0.57754 0.14556 0.44618 0.0
C232 C 0.54604 0.11649 0.44349 0.0
C233 C 0.52269 0.11555 0.42347 0.0
C234 C 0.52989 0.14381 0.40765 0.0
C235 C 0.56061 0.17264 0.41198 0.0
C236 C 0.58414 0.1735 0.43067 0.0
C237 C 0.61333 0.20815 0.43446 0.0
C238 C 0.61697 0.21916 0.46558 0.0
C239 C 0.64594 0.21094 0.42338 0.0
C240 C 0.60203 0.22703 0.41588 0.0
C241 C 0.57196 0.20615 0.40256 0.0
C242 C 0.55564 0.21837 0.38585 0.0
C243 C 0.57008 0.25271 0.38319 0.0
C244 C 0.60024 0.27443 0.39755 0.0
C245 C 0.61665 0.26123 0.41354 0.0
H246 H 0.44339 0.58082 0.63903 0.0
H247 H 0.4119 0.48519 0.6015 0.0
H248 H 0.37487 0.49324 0.5688 0.0
H249 H 0.36342 0.5718 0.64025 0.0
H250 H 0.37728 0.61443 0.63275 0.0
H251 H 0.40501 0.6035 0.65028 0.0
H252 H 0.44966 0.63372 0.6114 0.0
H253 H 0.42201 0.64475 0.5937 0.0
H254 H 0.43862 0.62279 0.57483 0.0
H255 H 0.33752 0.50911 0.54333 0.0
H256 H 0.30117 0.53056 0.52779 0.0
H257 H 0.35464 0.61485 0.58345 0.0
C258 C 0.42891 0.56158 0.62383 0.0
C259 C 0.43082 0.53238 0.62285 0.0
C260 C 0.41154 0.50806 0.6024 0.0
C261 C 0.39026 0.51234 0.58379 0.0
C262 C 0.38848 0.54106 0.58585 0.0
C263 C 0.40727 0.56528 0.60536 0.0
C264 C 0.39868 0.59253 0.60486 0.0
C265 C 0.3853 0.59573 0.63374 0.0
C266 C 0.42906 0.62539 0.59564 0.0
C267 C 0.37142 0.57943 0.5825 0.0
C268 C 0.36633 0.54996 0.57154 0.0
C269 C 0.34148 0.5323 0.55157 0.0
C270 C 0.32089 0.54472 0.54293 0.0
C271 C 0.32499 0.57447 0.55436 0.0
C272 C 0.35107 0.59228 0.57406 0.0
H273 H 0.90721 0.38149 0.79124 0.0
H274 H 0.92603 0.47549 0.75852 0.0
H275 H 0.87297 0.44731 0.73127 0.0
H276 H 0.86612 0.33278 0.72498 0.0
H277 H 0.83709 0.29734 0.74533 0.0
H278 H 0.87858 0.3247 0.75886 0.0
H279 H 0.8525 0.33243 0.80456 0.0
H280 H 0.81099 0.30577 0.79098 0.0
H281 H 0.82315 0.34705 0.802 0.0
H282 H 0.81321 0.40998 0.7154 0.0
H283 H 0.75546 0.36493 0.70487 0.0
H284 H 0.77777 0.29468 0.74433 0.0
C285 C 0.90075 0.39583 0.77732 0.0
C286 C 0.92076 0.43047 0.77641 0.0
C287 C 0.91125 0.44882 0.75882 0.0
C288 C 0.88108 0.43305 0.74353 0.0
C289 C 0.86114 0.39889 0.7457 0.0
C290 C 0.87106 0.38038 0.76149 0.0
C291 C 0.84441 0.34424 0.76135 0.0
C292 C 0.85732 0.32354 0.74675 0.0
C293 C 0.83205 0.33166 0.79151 0.0
C294 C 0.81748 0.34544 0.74389 0.0
C295 C 0.82744 0.37722 0.73525 0.0
C296 C 0.80548 0.38487 0.72133 0.0
C297 C 0.77273 0.35928 0.71565 0.0
C298 C 0.76257 0.32648 0.72345 0.0
C299 C 0.78529 0.31953 0.73762 0.0
H300 H 0.51501 0.89419 0.9843 0.0
H301 H 0.49402 0.93898 0.91275 0.0
H302 H 0.47671 0.88828 0.8847 0.0
H303 H 0.54002 0.84129 0.94531 0.0
H304 H 0.51846 0.80818 0.97032 0.0
H305 H 0.53657 0.85034 0.98175 0.0
H306 H 0.47886 0.83738 0.00147 0.0
H307 H 0.46044 0.79541 -0.01022 0.0
H308 H 0.44297 0.82029 0.97824 0.0
H309 H 0.45511 0.82893 0.86659 0.0
H310 H 0.4302 0.76827 0.86143 0.0
H311 H 0.45943 0.76271 0.94749 0.0
C312 C 0.50749 0.89372 0.9625 0.0
C313 C 0.50579 0.92055 0.95075 0.0
C314 C 0.49597 0.91891 0.92211 0.0
C315 C 0.48589 0.8901 0.90609 0.0
C316 C 0.48583 0.86325 0.91906 0.0
C317 C 0.49657 0.86506 0.94668 0.0
C318 C 0.49014 0.83201 0.95736 0.0
C319 C 0.52327 0.83303 0.96407 0.0
C320 C 0.46671 0.82062 0.98322 0.0
C321 C 0.47315 0.81089 0.9318 0.0
C322 C 0.4716 0.82927 0.90955 0.0
C323 C 0.45639 0.81445 0.88389 0.0
C324 C 0.44228 0.78007 0.88112 0.0
C325 C 0.44264 0.76097 0.90418 0.0
C326 C 0.45852 0.77675 0.92962 0.0
H327 H 0.58658 0.45183 0.14231 0.0
H328 H 0.62172 0.5505 0.10974 0.0
H329 H 0.66186 0.54516 0.07923 0.0
H330 H 0.66623 0.46004 0.14815 0.0
H331 H 0.65306 0.41819 0.13825 0.0
H332 H 0.62381 0.42768 0.15472 0.0
H333 H 0.58292 0.40137 0.11252 0.0
H334 H 0.61203 0.39169 0.09593 0.0
H335 H 0.59741 0.41553 0.0771 0.0
H336 H 0.70133 0.53157 0.05569 0.0
H337 H 0.73818 0.51095 0.04033 0.0
H338 H 0.67962 0.42156 0.08938 0.0
C339 C 0.60251 0.47227 0.1286 0.0
C340 C 0.6007 0.50155 0.12835 0.0
C341 C 0.62196 0.52756 0.10995 0.0
C342 C 0.64504 0.52484 0.09264 0.0
C343 C 0.64663 0.49598 0.09394 0.0
C344 C 0.62593 0.4701 0.11139 0.0
C345 C 0.63442 0.44278 0.11027 0.0
C346 C 0.64501 0.43684 0.13959 0.0
C347 C 0.60494 0.41096 0.09823 0.0
C348 C 0.66371 0.45772 0.08993 0.0
C349 C 0.66999 0.48825 0.0806 0.0
C350 C 0.69651 0.50759 0.06264 0.0
C351 C 0.7174 0.49562 0.05415 0.0
C352 C 0.7119 0.46456 0.06366 0.0
C353 C 0.68436 0.44522 0.08156 0.0
H354 H 0.39971 0.88081 0.46579 0.0
H355 H 0.46865 0.92839 0.53555 0.0
H356 H 0.43684 0.87766 0.56428 0.0
H357 H 0.32351 0.82756 0.50626 0.0
H358 H 0.31095 0.79391 0.48183 0.0
H359 H 0.33496 0.83583 0.46949 0.0
H360 H 0.37959 0.82344 0.44914 0.0
H361 H 0.35596 0.78166 0.4616 0.0
H362 H 0.3991 0.80725 0.47218 0.0
H363 H 0.39907 0.81855 0.58375 0.0
H364 H 0.36216 0.7581 0.59055 0.0
H365 H 0.32456 0.74976 0.50511 0.0
C366 C 0.40813 0.88086 0.4872 0.0
C367 C 0.43695 0.90862 0.49828 0.0
C368 C 0.44648 0.90761 0.52663 0.0
C369 C 0.42863 0.8788 0.54305 0.0
C370 C 0.40142 0.85125 0.53075 0.0
C371 C 0.39135 0.85225 0.50339 0.0
C372 C 0.36406 0.81878 0.49354 0.0
C373 C 0.33144 0.81905 0.48743 0.0
C374 C 0.37537 0.80711 0.4676 0.0
C375 C 0.36066 0.79839 0.51939 0.0
C376 C 0.38169 0.81747 0.541 0.0
C377 C 0.38255 0.8035 0.56692 0.0
C378 C 0.36159 0.76924 0.57062 0.0
C379 C 0.34095 0.74941 0.54822 0.0
C380 C 0.34046 0.76434 0.52247 0.0
H381 H 0.59434 0.45978 0.66791 0.0
H382 H 0.49616 0.41225 0.70678 0.0
H383 H 0.5106 0.37533 0.73325 0.0
H384 H 0.59362 0.38931 0.65266 0.0
H385 H 0.63771 0.40474 0.65819 0.0
H386 H 0.62335 0.43259 0.64843 0.0
H387 H 0.65189 0.46819 0.69281 0.0
H388 H 0.66685 0.44065 0.70259 0.0
H389 H 0.64249 0.44916 0.72728 0.0
H390 H 0.53276 0.33778 0.7491 0.0
H391 H 0.55959 0.30355 0.75235 0.0
H392 H 0.64126 0.37397 0.69985 0.0
C393 C 0.57626 0.44233 0.68274 0.0
C394 C 0.54418 0.43893 0.68541 0.0
C395 C 0.52107 0.41562 0.70477 0.0
C396 C 0.52905 0.39446 0.71975 0.0
C397 C 0.56026 0.39713 0.7152 0.0
C398 C 0.58359 0.42079 0.69728 0.0
C399 C 0.61329 0.41598 0.69265 0.0
C400 C 0.61718 0.41031 0.66113 0.0
C401 C 0.64554 0.44523 0.70455 0.0
C402 C 0.60262 0.38515 0.70992 0.0
C403 C 0.57236 0.37498 0.72332 0.0
C404 C 0.5567 0.34588 0.73905 0.0
C405 C 0.57211 0.32657 0.74077 0.0
C406 C 0.60254 0.33612 0.72638 0.0
C407 C 0.61812 0.36609 0.71122 0.0
H408 H 0.16335 0.58888 0.82154 0.0
H409 H 0.09886 0.49529 0.86311 0.0
H410 H 0.14527 0.50523 0.89508 0.0
H411 H 0.23346 0.57949 0.81946 0.0
H412 H 0.26375 0.62238 0.82508 0.0
H413 H 0.22413 0.61091 0.80871 0.0
H414 H 0.21252 0.64336 0.84693 0.0
H415 H 0.25223 0.65503 0.86343 0.0
H416 H 0.21416 0.63435 0.88379 0.0
H417 H 0.19977 0.52203 0.91891 0.0
H418 H 0.25862 0.54368 0.93251 0.0
H419 H 0.28919 0.62513 0.87377 0.0
C420 C 0.15877 0.57055 0.83754 0.0
C421 C 0.12717 0.54132 0.8398 0.0
C422 C 0.12241 0.51819 0.86122 0.0
C423 C 0.14876 0.52354 0.87942 0.0
C424 C 0.17976 0.55211 0.87598 0.0
C425 C 0.18489 0.57527 0.85559 0.0
C426 C 0.22139 0.60231 0.8545 0.0
C427 C 0.23657 0.60384 0.82521 0.0
C428 C 0.22529 0.63574 0.86266 0.0
C429 C 0.23621 0.59022 0.87693 0.0
C430 C 0.2116 0.5615 0.88933 0.0
C431 C 0.21919 0.54468 0.90958 0.0
C432 C 0.25281 0.55719 0.91707 0.0
C433 C 0.27868 0.58619 0.90423 0.0
C434 C 0.27006 0.60316 0.88422 0.0
H435 H 0.57216 0.15587 0.98494 0.0
H436 H 0.61578 0.1062 0.03058 0.0
H437 H 0.65006 0.15681 0.05871 0.0
H438 H 0.64546 0.2282 0.97558 0.0
H439 H 0.62802 0.25484 0.97894 0.0
H440 H 0.60206 0.21316 0.96698 0.0
H441 H 0.55986 0.20222 0.00735 0.0
H442 H 0.58561 0.24408 0.01937 0.0
H443 H 0.57442 0.21031 0.04346 0.0
H444 H 0.68556 0.21552 0.07663 0.0
H445 H 0.71871 0.27598 0.08255 0.0
H446 H 0.65313 0.28721 0.02329 0.0
C447 C 0.58835 0.15535 0.00133 0.0
C448 C 0.59128 0.12705 0.00558 0.0
C449 C 0.61275 0.12739 0.02721 0.0
C450 C 0.63242 0.15611 0.04319 0.0
C451 C 0.63008 0.18411 0.03742 0.0
C452 C 0.60829 0.18376 0.01712 0.0
C453 C 0.61294 0.21776 0.01253 0.0
C454 C 0.62271 0.22914 0.9817 0.0
C455 C 0.58132 0.21864 0.0212 0.0
C456 C 0.64166 0.23771 0.03266 0.0
C457 C 0.65083 0.21785 0.04724 0.0
C458 C 0.6782 0.23117 0.06565 0.0
C459 C 0.69691 0.26558 0.06886 0.0
C460 C 0.68845 0.28638 0.05347 0.0
C461 C 0.66004 0.27203 0.0356 0.0
H462 H 0.52892 0.6492 0.17471 0.0
H463 H 0.45185 0.55333 0.20381 0.0
H464 H 0.42294 0.57909 0.22748 0.0
H465 H 0.52661 0.69798 0.23876 0.0
H466 H 0.53373 0.73196 0.21627 0.0
H467 H 0.55179 0.70684 0.20737 0.0
H468 H 0.52354 0.69574 0.15809 0.0
H469 H 0.50475 0.72004 0.16692 0.0
H470 H 0.47871 0.67789 0.15575 0.0
H471 H 0.39607 0.61311 0.23724 0.0
H472 H 0.37727 0.65408 0.23868 0.0
H473 H 0.47359 0.7288 0.20627 0.0
C474 C 0.50695 0.634 0.18741 0.0
C475 C 0.49285 0.59947 0.18806 0.0
C476 C 0.46338 0.57992 0.20381 0.0
C477 C 0.44672 0.59436 0.2171 0.0
C478 C 0.46031 0.62839 0.21482 0.0
C479 C 0.49032 0.64811 0.20105 0.0
C480 C 0.49791 0.68346 0.19914 0.0
C481 C 0.52938 0.70642 0.21642 0.0
C482 C 0.50141 0.69492 0.16815 0.0
C483 C 0.46669 0.68025 0.2126 0.0
C484 C 0.44531 0.64831 0.22158 0.0
C485 C 0.41307 0.63842 0.23123 0.0
C486 C 0.40251 0.66174 0.23179 0.0
C487 C 0.42426 0.69463 0.22312 0.0
C488 C 0.45689 0.70404 0.21385 0.0
H489 H 0.86616 0.44347 0.32136 0.0
H490 H 0.93197 0.53986 0.35782 0.0
H491 H 0.88574 0.53346 0.38827 0.0
H492 H 0.7954 0.45269 0.31635 0.0
H493 H 0.7655 0.41035 0.32459 0.0
H494 H 0.80473 0.42063 0.30824 0.0
H495 H 0.81772 0.39178 0.34908 0.0
H496 H 0.77844 0.38131 0.36556 0.0
H497 H 0.81706 0.40392 0.3851 0.0
H498 H 0.8314 0.51868 0.41176 0.0
H499 H 0.773 0.49692 0.42676 0.0
H500 H 0.74172 0.41079 0.37373 0.0
C501 C 0.87099 0.46319 0.33588 0.0
C502 C 0.90285 0.49215 0.33723 0.0
C503 C 0.90806 0.5172 0.35671 0.0
C504 C 0.88187 0.51386 0.37399 0.0
C505 C 0.85063 0.48532 0.3716 0.0
C506 C 0.8451 0.46038 0.35309 0.0
C507 C 0.8087 0.43315 0.35328 0.0
C508 C 0.79265 0.42898 0.32387 0.0
C509 C 0.80529 0.40061 0.36389 0.0
C510 C 0.7944 0.44702 0.37438 0.0
C511 C 0.81911 0.47697 0.38488 0.0
C512 C 0.8119 0.49514 0.40387 0.0
C513 C 0.77855 0.48253 0.4122 0.0
C514 C 0.75263 0.45206 0.40146 0.0
C515 C 0.76089 0.43399 0.38249 0.0
H516 H 0.11835 0.54284 0.37115 0.0
H517 H 0.04747 0.57309 0.39576 0.0
H518 H 0.07687 0.59275 0.44169 0.0
H519 H 0.13398 0.51985 0.44349 0.0
H520 H 0.17772 0.53618 0.43564 0.0
H521 H 0.1469 0.51852 0.40782 0.0
H522 H 0.17956 0.57274 0.37925 0.0
H523 H 0.20998 0.59091 0.40717 0.0
H524 H 0.1877 0.61104 0.39497 0.0
H525 H 0.11967 0.61725 0.48118 0.0
H526 H 0.16906 0.6399 0.51287 0.0
H527 H 0.21243 0.59478 0.46094 0.0
C528 C 0.10833 0.55251 0.38667 0.0
C529 C 0.08061 0.55633 0.38013 0.0
C530 C 0.06836 0.56948 0.40066 0.0
C531 C 0.08506 0.58092 0.42666 0.0
C532 C 0.11365 0.57863 0.43173 0.0
C533 C 0.12479 0.56416 0.41247 0.0
C534 C 0.15782 0.56748 0.4215 0.0
C535 C 0.15386 0.53348 0.42748 0.0
C536 C 0.18537 0.58669 0.39941 0.0
C537 C 0.16422 0.58708 0.44837 0.0
C538 C 0.13838 0.59304 0.45414 0.0
C539 C 0.13974 0.61223 0.47712 0.0
C540 C 0.16799 0.62518 0.49487 0.0
C541 C 0.19455 0.61905 0.48938 0.0
C542 C 0.1925 0.5998 0.46577 0.0
H543 H 0.59547 0.12271 0.5348 0.0
H544 H 0.49376 0.05108 0.5587 0.0
H545 H 0.50218 0.0794 0.60468 0.0
H546 H 0.63387 0.13805 0.60739 0.0
H547 H 0.66052 0.18129 0.59986 0.0
H548 H 0.64845 0.15143 0.57185 0.0
H549 H 0.62532 0.18295 0.54329 0.0
H550 H 0.63646 0.21239 0.57141 0.0
H551 H 0.59379 0.18987 0.55888 0.0
H552 H 0.51868 0.12089 0.64403 0.0
H553 H 0.54379 0.16878 0.67618 0.0
H554 H 0.63444 0.21391 0.62563 0.0
C555 C 0.57541 0.11232 0.55019 0.0
C556 C 0.54404 0.08466 0.54342 0.0
C557 C 0.51814 0.07192 0.56377 0.0
C558 C 0.52265 0.08802 0.58979 0.0
C559 C 0.55328 0.11652 0.59507 0.0
C560 C 0.57946 0.12817 0.57603 0.0
C561 C 0.60872 0.16087 0.58537 0.0
C562 C 0.63972 0.15771 0.59149 0.0
C563 C 0.6165 0.18811 0.56344 0.0
C564 C 0.59458 0.16641 0.61223 0.0
C565 C 0.56268 0.14049 0.61758 0.0
C566 C 0.54387 0.14101 0.64033 0.0
C567 C 0.55826 0.16846 0.65833 0.0
C568 C 0.59112 0.19504 0.65345 0.0
C569 C 0.60936 0.1939 0.63002 0.0
H570 H 0.46945 0.58644 0.71303 0.0
H571 H 0.4673 0.49692 0.74026 0.0
H572 H 0.45579 0.5067 0.78901 0.0
H573 H 0.50541 0.63441 0.77877 0.0
H574 H 0.47942 0.65294 0.77671 0.0
H575 H 0.49236 0.64158 0.7448 0.0
H576 H 0.43023 0.60617 0.72947 0.0
H577 H 0.41705 0.61709 0.76141 0.0
H578 H 0.40089 0.57433 0.75277 0.0
H579 H 0.43805 0.52217 0.83307 0.0
H580 H 0.41799 0.54383 0.87075 0.0
H581 H 0.42996 0.62291 0.81515 0.0
C582 C 0.46705 0.56913 0.72931 0.0
C583 C 0.46944 0.54094 0.72277 0.0
C584 C 0.46624 0.51899 0.74476 0.0
C585 C 0.45946 0.52422 0.77252 0.0
C586 C 0.45606 0.55156 0.77797 0.0
C587 C 0.46006 0.57385 0.75709 0.0
C588 C 0.45281 0.59993 0.76819 0.0
C589 C 0.48439 0.63425 0.76705 0.0
C590 C 0.4235 0.59932 0.752 0.0
C591 C 0.44322 0.58826 0.7984 0.0
C592 C 0.44554 0.56046 0.80357 0.0
C593 C 0.43653 0.54416 0.82942 0.0
C594 C 0.42496 0.55662 0.85065 0.0
C595 C 0.42238 0.58515 0.84598 0.0
C596 C 0.43184 0.60122 0.81947 0.0
H597 H 0.92944 0.41643 0.8842 0.0
H598 H 0.95641 0.51808 0.87049 0.0
H599 H 0.92078 0.51466 0.91084 0.0
H600 H 0.84714 0.38595 0.8984 0.0
H601 H 0.84289 0.35754 0.926 0.0
H602 H 0.87474 0.36917 0.89949 0.0
H603 H 0.92077 0.38911 0.93811 0.0
H604 H 0.88897 0.37675 0.96491 0.0
H605 H 0.92377 0.41842 0.96421 0.0
H606 H 0.87392 0.49664 0.94508 0.0
H607 H 0.82638 0.46872 0.97781 0.0
H608 H 0.8327 0.37967 0.97273 0.0
C609 C 0.92889 0.4383 0.8906 0.0
C610 C 0.94586 0.46768 0.87474 0.0
C611 C 0.94406 0.49567 0.88292 0.0
C612 C 0.92372 0.49382 0.90561 0.0
C613 C 0.90603 0.46399 0.92008 0.0
C614 C 0.90918 0.437 0.9135 0.0
C615 C 0.88594 0.40733 0.93131 0.0
C616 C 0.86122 0.3783 0.91267 0.0
C617 C 0.90607 0.39732 0.9508 0.0
C618 C 0.86815 0.42143 0.94804 0.0
C619 C 0.88003 0.4541 0.9411 0.0
C620 C 0.86517 0.47144 0.95144 0.0
C621 C 0.838 0.45525 0.96989 0.0
C622 C 0.82631 0.42223 0.97826 0.0
C623 C 0.84162 0.40514 0.96714 0.0
H624 H 0.52123 0.94263 0.05739 0.0
H625 H 0.43432 0.94973 0.03415 0.0
H626 H 0.40243 0.91232 0.07366 0.0
H627 H 0.48009 0.86114 0.06863 0.0
H628 H 0.5044 0.86038 0.09825 0.0
H629 H 0.52299 0.89353 0.07309 0.0
H630 H 0.53791 0.93662 0.11283 0.0
H631 H 0.52041 0.9037 0.13843 0.0
H632 H 0.50566 0.93268 0.13663 0.0
H633 H 0.37753 0.86621 0.10923 0.0
H634 H 0.36315 0.82013 0.14225 0.0
H635 H 0.46676 0.84317 0.14195 0.0
C636 C 0.4961 0.93774 0.06177 0.0
C637 C 0.48034 0.94964 0.04353 0.0
C638 C 0.44694 0.94159 0.04864 0.0
C639 C 0.42865 0.92013 0.07081 0.0
C640 C 0.44435 0.90726 0.08754 0.0
C641 C 0.4776 0.91635 0.08366 0.0
C642 C 0.48763 0.89641 0.10227 0.0
C643 C 0.49946 0.87671 0.08449 0.0
C644 C 0.51449 0.91868 0.12383 0.0
C645 C 0.45459 0.87388 0.11655 0.0
C646 C 0.42995 0.88055 0.10789 0.0
C647 C 0.3968 0.86127 0.11664 0.0
C648 C 0.38882 0.83496 0.13518 0.0
C649 C 0.4139 0.82822 0.14478 0.0
C650 C 0.44713 0.84795 0.13521 0.0
H651 H 0.55663 0.44362 0.21669 0.0
H652 H 0.55744 0.53245 0.24361 0.0
H653 H 0.56824 0.52236 0.29257 0.0
H654 H 0.52105 0.39495 0.28272 0.0
H655 H 0.54786 0.37735 0.28068 0.0
H656 H 0.53414 0.38816 0.24875 0.0
H657 H 0.596 0.4246 0.23329 0.0
H658 H 0.60995 0.4143 0.26526 0.0
H659 H 0.62508 0.45687 0.25645 0.0
H660 H 0.58661 0.50742 0.33676 0.0
H661 H 0.60861 0.48704 0.37426 0.0
H662 H 0.59819 0.4088 0.31867 0.0
C663 C 0.55845 0.46064 0.23296 0.0
C664 C 0.55601 0.48877 0.22623 0.0
C665 C 0.5585 0.51037 0.24821 0.0
C666 C 0.56488 0.50498 0.27611 0.0
C667 C 0.56861 0.47784 0.28172 0.0
C668 C 0.56516 0.45581 0.26085 0.0
C669 C 0.57331 0.43031 0.27199 0.0
C670 C 0.54223 0.39563 0.27098 0.0
C671 C 0.60284 0.43162 0.25579 0.0
C672 C 0.58297 0.44214 0.30216 0.0
C673 C 0.5797 0.46936 0.30735 0.0
C674 C 0.58881 0.48583 0.33311 0.0
C675 C 0.6015 0.47412 0.35422 0.0
C676 C 0.60514 0.44624 0.34946 0.0
C677 C 0.59551 0.42999 0.32307 0.0
H678 H 0.4822 0.89994 0.40825 0.0
H679 H 0.47911 0.98833 0.38632 0.0
H680 H 0.46528 0.96903 0.33722 0.0
H681 H 0.51198 0.88728 0.33799 0.0
H682 H 0.48502 0.84323 0.34026 0.0
H683 H 0.50213 0.86719 0.37201 0.0
H684 H 0.44213 0.84282 0.39212 0.0
H685 H 0.42477 0.8192 0.36037 0.0
H686 H 0.41114 0.84707 0.37218 0.0
H687 H 0.44205 0.93652 0.29349 0.0
H688 H 0.41441 0.89434 0.25665 0.0
H689 H 0.43009 0.82548 0.30673 0.0
C690 C 0.47938 0.91563 0.39301 0.0
C691 C 0.48186 0.94576 0.40129 0.0
C692 C 0.47808 0.96553 0.38055 0.0
C693 C 0.46995 0.95464 0.35256 0.0
C694 C 0.46582 0.924 0.34556 0.0
C695 C 0.47082 0.90492 0.36506 0.0
C696 C 0.46114 0.87139 0.35293 0.0
C697 C 0.49191 0.86703 0.35066 0.0
C698 C 0.43313 0.84349 0.37044 0.0
C699 C 0.44862 0.87415 0.32397 0.0
C700 C 0.45198 0.90488 0.32009 0.0
C701 C 0.43988 0.91259 0.29602 0.0
C702 C 0.42394 0.88831 0.27532 0.0
C703 C 0.42011 0.85657 0.27877 0.0
C704 C 0.433 0.84961 0.30333 0.0
H705 H 0.58959 0.47618 0.5921 0.0
H706 H 0.48676 0.44636 0.57088 0.0
H707 H 0.49276 0.42393 0.52533 0.0
H708 H 0.62411 0.49548 0.51859 0.0
H709 H 0.6513 0.47906 0.52577 0.0
H710 H 0.64045 0.49798 0.55376 0.0
H711 H 0.61896 0.44476 0.58362 0.0
H712 H 0.62888 0.42533 0.55554 0.0
H713 H 0.58684 0.40605 0.56932 0.0
H714 H 0.50757 0.39733 0.48584 0.0
H715 H 0.53187 0.37417 0.4529 0.0
H716 H 0.62456 0.42051 0.50117 0.0
C717 C 0.56872 0.46592 0.57739 0.0
C718 C 0.53777 0.46309 0.5848 0.0
C719 C 0.51083 0.44921 0.56531 0.0
C720 C 0.51395 0.43617 0.53955 0.0
C721 C 0.54426 0.43758 0.53366 0.0
C722 C 0.57139 0.4527 0.55182 0.0
C723 C 0.60026 0.44869 0.54188 0.0
C724 C 0.63084 0.4823 0.53455 0.0
C725 C 0.60924 0.4301 0.5639 0.0
C726 C 0.58487 0.42814 0.51568 0.0
C727 C 0.55265 0.42209 0.51116 0.0
C728 C 0.53297 0.40236 0.48892 0.0
C729 C 0.54689 0.3891 0.47047 0.0
C730 C 0.58013 0.39559 0.47445 0.0
C731 C 0.59913 0.41517 0.49751 0.0
H732 H 0.14107 0.58824 0.74581 0.0
H733 H 0.05305 0.49482 0.72409 0.0
H734 H 0.07341 0.50062 0.67524 0.0
H735 H 0.15078 0.62938 0.67675 0.0
H736 H 0.19586 0.64941 0.67808 0.0
H737 H 0.17218 0.64033 0.71037 0.0
H738 H 0.20052 0.6082 0.72886 0.0
H739 H 0.224 0.61685 0.69656 0.0
H740 H 0.19795 0.57483 0.7081 0.0
H741 H 0.10559 0.51293 0.63076 0.0
H742 H 0.14637 0.53243 0.59199 0.0
H743 H 0.21497 0.61744 0.64227 0.0
C744 C 0.12582 0.56921 0.73069 0.0
C745 C 0.09529 0.54116 0.73884 0.0
C746 C 0.07611 0.51688 0.71833 0.0
C747 C 0.08761 0.51981 0.69053 0.0
C748 C 0.11828 0.54718 0.68353 0.0
C749 C 0.13704 0.57163 0.70288 0.0
C750 C 0.1702 0.59738 0.69031 0.0
C751 C 0.17237 0.63113 0.68878 0.0
C752 C 0.19991 0.59941 0.70695 0.0
C753 C 0.16747 0.58308 0.66108 0.0
C754 C 0.13718 0.55424 0.65765 0.0
C755 C 0.12923 0.53568 0.63302 0.0
C756 C 0.15274 0.54695 0.61117 0.0
C757 C 0.18398 0.57655 0.61401 0.0
C758 C 0.19131 0.59485 0.63936 0.0
H759 H 0.56117 0.13453 0.91024 0.0
H760 H 0.57727 0.05282 0.8923 0.0
H761 H 0.59385 0.07335 0.84357 0.0
H762 H 0.53161 0.14129 0.83909 0.0
H763 H 0.55346 0.18566 0.84059 0.0
H764 H 0.53815 0.16186 0.87263 0.0
H765 H 0.59794 0.19355 0.89403 0.0
H766 H 0.61354 0.21715 0.86199 0.0
H767 H 0.63221 0.19404 0.87539 0.0
H768 H 0.61465 0.10578 0.79907 0.0
H769 H 0.63548 0.14626 0.76039 0.0
H770 H 0.60783 0.20833 0.80765 0.0
C771 C 0.56772 0.12066 0.89595 0.0
C772 C 0.56786 0.092 0.90509 0.0
C773 C 0.57642 0.07449 0.88568 0.0
C774 C 0.5861 0.0861 0.85801 0.0
C775 C 0.58697 0.11515 0.85011 0.0
C776 C 0.57771 0.13204 0.86839 0.0
C777 C 0.58307 0.16384 0.85529 0.0
C778 C 0.54957 0.1631 0.85168 0.0
C779 C 0.60819 0.19391 0.87271 0.0
C780 C 0.59761 0.16259 0.82699 0.0
C781 C 0.59937 0.13416 0.82441 0.0
C782 C 0.61303 0.12794 0.80069 0.0
C783 C 0.62497 0.15126 0.77888 0.0
C784 C 0.62331 0.18057 0.78091 0.0
C785 C 0.60939 0.18619 0.80537 0.0
H786 H 0.4479 0.56617 0.09541 0.0
H787 H 0.54811 0.58876 0.07252 0.0
H788 H 0.54106 0.60784 0.0254 0.0
H789 H 0.4094 0.5402 0.02421 0.0
H790 H 0.38391 0.55886 0.02943 0.0
H791 H 0.39545 0.54261 0.05922 0.0
H792 H 0.4206 0.59935 0.08407 0.0
H793 H 0.40978 0.61599 0.05421 0.0
H794 H 0.45259 0.63561 0.06641 0.0
H795 H 0.52516 0.63086 0.98321 0.0
H796 H 0.50013 0.65146 0.94807 0.0
H797 H 0.41096 0.61434 -3e-05 0.0
C798 C 0.46804 0.5744 0.08019 0.0
C799 C 0.49851 0.57601 0.08742 0.0
C800 C 0.52442 0.58699 0.06713 0.0
C801 C 0.5207 0.59805 0.04046 0.0
C802 C 0.49081 0.59758 0.0345 0.0
C803 C 0.46475 0.58551 0.05368 0.0
C804 C 0.43606 0.58953 0.04312 0.0
C805 C 0.40433 0.55579 0.03873 0.0
C806 C 0.42939 0.61143 0.06314 0.0
C807 C 0.45032 0.60657 0.01528 0.0
C808 C 0.48182 0.61087 0.01051 0.0
C809 C 0.50033 0.62723 0.98657 0.0
C810 C 0.48602 0.63902 0.96684 0.0
C811 C 0.4536 0.63445 0.97129 0.0
C812 C 0.43574 0.61813 -0.00409 0.0
H813 H 0.88776 0.44008 0.24604 0.0
H814 H 0.98259 0.52631 0.22347 0.0
H815 H 0.96495 0.519 0.17367 0.0
H816 H 0.87515 0.39292 0.1795 0.0
H817 H 0.83072 0.37795 0.17916 0.0
H818 H 0.85289 0.38627 0.21233 0.0
H819 H 0.83102 0.42542 0.22642 0.0
H820 H 0.80902 0.41745 0.19329 0.0
H821 H 0.83878 0.45919 0.20339 0.0
H822 H 0.93493 0.50747 0.12799 0.0
H823 H 0.89479 0.49152 0.08865 0.0
H824 H 0.81812 0.41369 0.14035 0.0
C825 C 0.90507 0.45715 0.2306 0.0
C826 C 0.93674 0.48365 0.23881 0.0
C827 C 0.95856 0.50535 0.2178 0.0
C828 C 0.94867 0.50155 0.1894 0.0
C829 C 0.91691 0.4759 0.18225 0.0
C830 C 0.89547 0.45391 0.20215 0.0
C831 C 0.86155 0.43037 0.18926 0.0
C832 C 0.85468 0.39476 0.19011 0.0
C833 C 0.83345 0.43331 0.20396 0.0
C834 C 0.86696 0.44337 0.15923 0.0
C835 C 0.89923 0.46937 0.15564 0.0
C836 C 0.90974 0.48684 0.13038 0.0
C837 C 0.88663 0.47768 0.10821 0.0
C838 C 0.85327 0.45131 0.11138 0.0
C839 C 0.84351 0.43368 0.13716 0.0
loop_
_geom_bond_atom_site_label_1
_geom_bond_atom_site_label_2
_geom_bond_distance
_geom_bond_site_symmetry_2
_ccdc_geom_bond_type
H0 C6 0.930 . S
H1 C9 0.931 . S
H2 C11 0.931 . S
H3 C13 0.930 . S
H4 C15 0.930 . S
H5 C17 0.922 1_455 S
C6 H0 0.930 . S
C6 C7 1.380 . S
C6 C8 1.394 . S
C7 C6 1.380 . S
C7 C11 1.382 . S
C8 C6 1.394 . S
C8 C9 1.400 . S
C9 H1 0.931 . S
C9 C8 1.400 . S
C9 C10 1.375 . S
C10 C9 1.375 . S
C10 C11 1.415 . S
C10 C12 1.501 1_455 S
C11 H2 0.931 . S
C11 C7 1.382 . S
C11 C10 1.415 . S
C12 C10 1.501 1_655 S
C12 C13 1.384 . S
C12 C17 1.408 . S
C13 H3 0.930 . S
C13 C12 1.384 . S
C13 C14 1.389 . S
C14 C13 1.389 . S
C14 C15 1.405 . S
C15 H4 0.930 . S
C15 C14 1.405 . S
C15 C16 1.364 . S
C16 C15 1.364 . S
C16 C17 1.400 . S
C17 H5 0.922 1_655 S
C17 C12 1.408 . S
C17 C16 1.400 . S
H18 C24 0.930 . S
H19 C27 0.931 . S
H20 C29 0.931 . S
H21 C31 0.930 . S
H22 C33 0.930 . S
H23 C35 0.923 1_545 S
C24 H18 0.930 . S
C24 C25 1.380 . S
C24 C26 1.394 . S
C25 C24 1.380 . S
C25 C29 1.382 . S
C26 C24 1.394 . S
C26 C27 1.400 . S
C27 H19 0.931 . S
C27 C26 1.400 . S
C27 C28 1.375 . S
C28 C27 1.375 . S
C28 C29 1.415 . S
C28 C30 1.501 1_545 S
C29 H20 0.931 . S
C29 C25 1.382 . S
C29 C28 1.415 . S
C30 C28 1.501 1_565 S
C30 C31 1.384 . S
C30 C35 1.408 . S
C31 H21 0.930 . S
C31 C30 1.384 . S
C31 C32 1.389 . S
C32 C31 1.389 . S
C32 C33 1.405 . S
C33 H22 0.930 . S
C33 C32 1.405 . S
C33 C34 1.364 . S
C34 C33 1.364 . S
C34 C35 1.400 . S
C35 H23 0.923 1_565 S
C35 C30 1.408 . S
C35 C34 1.400 . S
H36 C42 0.930 . S
H37 C45 0.931 . S
H38 C47 0.931 . S
H39 C49 0.930 . S
H40 C51 0.930 . S
H41 C53 0.931 . S
C42 H36 0.930 . S
C42 C43 1.380 . S
C42 C44 1.394 . S
C43 C42 1.380 . S
C43 C47 1.382 . S
C44 C42 1.394 . S
C44 C45 1.400 . S
C45 H37 0.931 . S
C45 C44 1.400 . S
C45 C46 1.375 . S
C46 C45 1.375 . S
C46 C47 1.415 . S
C46 C48 1.501 . S
C47 H38 0.931 . S
C47 C43 1.382 . S
C47 C46 1.415 . S
C48 C46 1.501 . S
C48 C49 1.384 . S
C48 C53 1.408 . S
C49 H39 0.930 . S
C49 C48 1.384 . S
C49 C50 1.389 . S
C50 C49 1.389 . S
C50 C51 1.405 . S
C51 H40 0.930 . S
C51 C50 1.405 . S
C51 C52 1.364 . S
C52 C51 1.364 . S
C52 C53 1.400 . S
C53 H41 0.931 . S
C53 C48 1.408 . S
C53 C52 1.400 . S
H54 C60 0.930 . S
H55 C63 0.931 . S
H56 C65 0.931 . S
H57 C67 0.930 . S
H58 C69 0.930 . S
H59 C71 0.931 . S
C60 H54 0.930 . S
C60 C61 1.380 . S
C60 C62 1.394 . S
C61 C60 1.380 . S
C61 C65 1.382 . S
C62 C60 1.394 . S
C62 C63 1.400 . S
C63 H55 0.931 . S
C63 C62 1.400 . S
C63 C64 1.375 . S
C64 C63 1.375 . S
C64 C65 1.415 . S
C64 C66 1.501 1_455 S
C65 H56 0.931 . S
C65 C61 1.382 . S
C65 C64 1.415 . S
C66 C64 1.501 1_655 S
C66 C67 1.384 . S
C66 C71 1.408 . S
C67 H57 0.930 . S
C67 C66 1.384 . S
C67 C68 1.389 . S
C68 C67 1.389 . S
C68 C69 1.405 . S
C69 H58 0.930 . S
C69 C68 1.405 . S
C69 C70 1.364 . S
C70 C69 1.364 . S
C70 C71 1.400 . S
C71 H59 0.931 . S
C71 C66 1.408 . S
C71 C70 1.400 . S
H72 C78 0.930 . S
H73 C81 0.931 . S
H74 C83 0.931 . S
H75 C85 0.930 . S
H76 C87 0.930 . S
H77 C89 0.931 . S
C78 H72 0.930 . S
C78 C79 1.380 . S
C78 C80 1.394 1_554 S
C79 C78 1.380 . S
C79 C83 1.382 . S
C80 C78 1.394 1_556 S
C80 C81 1.400 . S
C81 H73 0.931 . S
C81 C80 1.400 . S
C81 C82 1.375 . S
C82 C81 1.375 . S
C82 C83 1.415 1_556 S
C82 C84 1.501 1_565 S
C83 H74 0.931 . S
C83 C79 1.382 . S
C83 C82 1.415 1_554 S
C84 C82 1.501 1_545 S
C84 C85 1.384 1_556 S
C84 C89 1.408 . S
C85 H75 0.930 . S
C85 C84 1.384 1_554 S
C85 C86 1.389 1_554 S
C86 C85 1.389 1_556 S
C86 C87 1.405 . S
C87 H76 0.930 . S
C87 C86 1.405 . S
C87 C88 1.364 . S
C88 C87 1.364 . S
C88 C89 1.400 . S
C89 H77 0.931 . S
C89 C84 1.408 . S
C89 C88 1.400 . S
H90 C96 0.930 . S
H91 C99 0.931 . S
H92 C101 0.931 . S
H93 C103 0.930 . S
H94 C105 0.930 . S
H95 C107 0.931 . S
C96 H90 0.930 . S
C96 C97 1.380 . S
C96 C98 1.394 . S
C97 C96 1.380 . S
C97 C101 1.382 . S
C98 C96 1.394 . S
C98 C99 1.400 . S
C99 H91 0.931 . S
C99 C98 1.400 . S
C99 C100 1.375 . S
C100 C99 1.375 . S
C100 C101 1.415 . S
C100 C102 1.501 . S
C101 H92 0.931 . S
C101 C97 1.382 . S
C101 C100 1.415 . S
C102 C100 1.501 . S
C102 C103 1.384 . S
C102 C107 1.408 . S
C103 H93 0.930 . S
C103 C102 1.384 . S
C103 C104 1.389 . S
C104 C103 1.389 . S
C104 C105 1.405 . S
C105 H94 0.930 . S
C105 C104 1.405 . S
C105 C106 1.364 . S
C106 C105 1.364 . S
C106 C107 1.400 . S
C107 H95 0.931 . S
C107 C102 1.408 . S
C107 C106 1.400 . S
C108 O109 1.306 . S
C108 O111 1.160 . S
O109 C108 1.306 . S
O109 Cd110 2.228 . S
Cd110 O109 2.228 . S
Cd110 O114 2.273 . S
Cd110 O118 2.277 . S
O111 C108 1.160 . S
O111 Cd112 2.203 . S
Cd112 O111 2.203 . S
Cd112 O114 2.411 . S
Cd112 O115 2.333 . S
Cd112 O116 2.352 . S
Cd112 O120 2.277 . S
Cd112 O121 2.356 . S
C113 O118 1.209 . S
C113 O120 1.226 . S
O114 Cd110 2.273 . S
O114 Cd112 2.411 . S
O114 C117 1.320 . S
O115 Cd112 2.333 . S
O115 C117 1.214 . S
O116 Cd112 2.352 . S
O116 C119 1.258 . S
C117 O114 1.320 . S
C117 O115 1.214 . S
O118 Cd110 2.277 . S
O118 C113 1.209 . S
C119 O116 1.258 . S
C119 O121 1.282 . S
O120 Cd112 2.277 . S
O120 C113 1.226 . S
O121 Cd112 2.356 . S
O121 C119 1.282 . S
C122 O123 1.306 . S
C122 O125 1.160 . S
O123 C122 1.306 . S
O123 Cd124 2.228 . S
Cd124 O123 2.228 . S
Cd124 O128 2.273 . S
Cd124 O132 2.277 . S
O125 C122 1.160 . S
O125 Cd126 2.203 . S
Cd126 O125 2.203 . S
Cd126 O128 2.411 . S
Cd126 O129 2.333 . S
Cd126 O130 2.352 . S
Cd126 O134 2.277 . S
Cd126 O135 2.356 . S
C127 O132 1.209 . S
C127 O134 1.226 . S
O128 Cd124 2.273 . S
O128 Cd126 2.411 . S
O128 C131 1.320 . S
O129 Cd126 2.333 . S
O129 C131 1.214 . S
O130 Cd126 2.352 . S
O130 C133 1.258 . S
C131 O128 1.320 . S
C131 O129 1.214 . S
O132 Cd124 2.277 . S
O132 C127 1.209 . S
C133 O130 1.258 . S
C133 O135 1.282 . S
O134 Cd126 2.277 . S
O134 C127 1.226 . S
O135 Cd126 2.356 . S
O135 C133 1.282 . S
C136 O137 1.306 . S
C136 O139 1.160 . S
O137 C136 1.306 . S
O137 Cd138 2.228 . S
Cd138 O137 2.228 . S
Cd138 O142 2.273 . S
Cd138 O146 2.277 . S
O139 C136 1.160 . S
O139 Cd140 2.203 . S
Cd140 O139 2.203 . S
Cd140 O142 2.411 . S
Cd140 O143 2.333 . S
Cd140 O144 2.352 . S
Cd140 O148 2.277 . S
Cd140 O149 2.356 . S
C141 O146 1.209 . S
C141 O148 1.226 . S
O142 Cd138 2.273 . S
O142 Cd140 2.411 . S
O142 C145 1.320 . S
O143 Cd140 2.333 . S
O143 C145 1.214 . S
O144 Cd140 2.352 . S
O144 C147 1.258 . S
C145 O142 1.320 . S
C145 O143 1.214 . S
O146 Cd138 2.277 . S
O146 C141 1.209 . S
C147 O144 1.258 . S
C147 O149 1.282 . S
O148 Cd140 2.277 . S
O148 C141 1.226 . S
O149 Cd140 2.356 . S
O149 C147 1.282 . S
C150 O151 1.306 . S
C150 O153 1.160 . S
O151 C150 1.306 . S
O151 Cd152 2.228 . S
Cd152 O151 2.228 . S
Cd152 O156 2.273 . S
Cd152 O160 2.277 . S
O153 C150 1.160 . S
O153 Cd154 2.203 . S
Cd154 O153 2.203 . S
Cd154 O156 2.411 . S
Cd154 O157 2.333 . S
Cd154 O158 2.352 . S
Cd154 O162 2.277 . S
Cd154 O163 2.356 . S
C155 O160 1.209 . S
C155 O162 1.226 . S
O156 Cd152 2.273 . S
O156 Cd154 2.411 . S
O156 C159 1.320 . S
O157 Cd154 2.333 . S
O157 C159 1.214 . S
O158 Cd154 2.352 . S
O158 C161 1.258 . S
C159 O156 1.320 . S
C159 O157 1.214 . S
O160 Cd152 2.277 . S
O160 C155 1.209 . S
C161 O158 1.258 . S
C161 O163 1.282 . S
O162 Cd154 2.277 . S
O162 C155 1.226 . S
O163 Cd154 2.356 . S
O163 C161 1.282 . S
C164 O165 1.306 . S
C164 O167 1.160 . S
O165 C164 1.306 . S
O165 Cd166 2.228 . S
Cd166 O165 2.228 . S
Cd166 O170 2.273 . S
Cd166 O174 2.277 . S
O167 C164 1.160 . S
O167 Cd168 2.203 . S
Cd168 O167 2.203 . S
Cd168 O170 2.411 . S
Cd168 O171 2.333 . S
Cd168 O172 2.352 . S
Cd168 O176 2.277 . S
Cd168 O177 2.356 . S
C169 O174 1.209 . S
C169 O176 1.226 . S
O170 Cd166 2.273 . S
O170 Cd168 2.411 . S
O170 C173 1.320 . S
O171 Cd168 2.333 . S
O171 C173 1.214 . S
O172 Cd168 2.352 . S
O172 C175 1.258 . S
C173 O170 1.320 . S
C173 O171 1.214 . S
O174 Cd166 2.277 . S
O174 C169 1.209 . S
C175 O172 1.258 . S
C175 O177 1.282 . S
O176 Cd168 2.277 . S
O176 C169 1.226 . S
O177 Cd168 2.356 . S
O177 C175 1.282 . S
C178 O179 1.306 . S
C178 O181 1.160 . S
O179 C178 1.306 . S
O179 Cd180 2.228 . S
Cd180 O179 2.228 . S
Cd180 O184 2.273 . S
Cd180 O188 2.277 . S
O181 C178 1.160 . S
O181 Cd182 2.203 . S
Cd182 O181 2.203 . S
Cd182 O184 2.411 . S
Cd182 O185 2.333 . S
Cd182 O186 2.352 . S
Cd182 O190 2.277 . S
Cd182 O191 2.356 . S
C183 O188 1.209 . S
C183 O190 1.226 . S
O184 Cd180 2.273 . S
O184 Cd182 2.411 . S
O184 C187 1.320 . S
O185 Cd182 2.333 . S
O185 C187 1.214 . S
O186 Cd182 2.352 . S
O186 C189 1.258 . S
C187 O184 1.320 . S
C187 O185 1.214 . S
O188 Cd180 2.277 . S
O188 C183 1.209 . S
C189 O186 1.258 . S
C189 O191 1.282 . S
O190 Cd182 2.277 . S
O190 C183 1.226 . S
O191 Cd182 2.356 . S
O191 C189 1.282 . S
H192 C204 0.930 . S
H193 C206 0.930 . S
H194 C207 0.930 . S
H195 C211 0.959 . S
H196 C211 0.959 . S
H197 C211 0.961 . S
H198 C212 0.960 . S
H199 C212 0.961 . S
H200 C212 0.959 . S
H201 C215 0.929 . S
H202 C216 0.931 . S
H203 C218 0.930 . S
C204 H192 0.930 . S
C204 C205 1.399 . S
C204 C209 1.399 . S
C205 C204 1.399 . S
C205 C206 1.376 . S
C206 H193 0.930 . S
C206 C205 1.376 . S
C206 C207 1.388 . S
C207 H194 0.930 . S
C207 C206 1.388 . S
C207 C208 1.390 . S
C208 C207 1.390 . S
C208 C209 1.394 . S
C208 C214 1.465 . S
C209 C204 1.399 . S
C209 C208 1.394 . S
C209 C210 1.516 . S
C210 C209 1.516 . S
C210 C211 1.502 . S
C210 C212 1.561 . S
C210 C213 1.526 . S
C211 H195 0.959 . S
C211 H196 0.959 . S
C211 H197 0.961 . S
C211 C210 1.502 . S
C212 H198 0.960 . S
C212 H199 0.961 . S
C212 H200 0.959 . S
C212 C210 1.561 . S
C213 C210 1.526 . S
C213 C214 1.396 . S
C213 C218 1.390 . S
C214 C208 1.465 . S
C214 C213 1.396 . S
C214 C215 1.399 . S
C215 H201 0.929 . S
C215 C214 1.399 . S
C215 C216 1.385 . S
C216 H202 0.931 . S
C216 C215 1.385 . S
C216 C217 1.389 . S
C217 C216 1.389 . S
C217 C218 1.387 . S
C218 H203 0.930 . S
C218 C213 1.390 . S
C218 C217 1.387 . S
H219 C231 0.930 . S
H220 C233 0.930 . S
H221 C234 0.930 . S
H222 C238 0.959 . S
H223 C238 0.959 . S
H224 C238 0.961 . S
H225 C239 0.960 . S
H226 C239 0.961 . S
H227 C239 0.959 . S
H228 C242 0.929 . S
H229 C243 0.931 . S
H230 C245 0.930 . S
C231 H219 0.930 . S
C231 C232 1.399 . S
C231 C236 1.399 . S
C232 C231 1.399 . S
C232 C233 1.376 . S
C233 H220 0.930 . S
C233 C232 1.376 . S
C233 C234 1.388 . S
C234 H221 0.930 . S
C234 C233 1.388 . S
C234 C235 1.390 . S
C235 C234 1.390 . S
C235 C236 1.394 . S
C235 C241 1.465 . S
C236 C231 1.399 . S
C236 C235 1.394 . S
C236 C237 1.516 . S
C237 C236 1.516 . S
C237 C238 1.502 . S
C237 C239 1.561 . S
C237 C240 1.526 . S
C238 H222 0.959 . S
C238 H223 0.959 . S
C238 H224 0.961 . S
C238 C237 1.502 . S
C239 H225 0.960 . S
C239 H226 0.961 . S
C239 H227 0.959 . S
C239 C237 1.561 . S
C240 C237 1.526 . S
C240 C241 1.396 . S
C240 C245 1.390 . S
C241 C235 1.465 . S
C241 C240 1.396 . S
C241 C242 1.399 . S
C242 H228 0.929 . S
C242 C241 1.399 . S
C242 C243 1.385 . S
C243 H229 0.931 . S
C243 C242 1.385 . S
C243 C244 1.389 . S
C244 C243 1.389 . S
C244 C245 1.387 . S
C245 H230 0.930 . S
C245 C240 1.390 . S
C245 C244 1.387 . S
H246 C258 0.930 . S
H247 C260 0.930 . S
H248 C261 0.930 . S
H249 C265 0.959 . S
H250 C265 0.959 . S
H251 C265 0.961 . S
H252 C266 0.960 . S
H253 C266 0.961 . S
H254 C266 0.959 . S
H255 C269 0.929 . S
H256 C270 0.931 . S
H257 C272 0.930 . S
C258 H246 0.930 . S
C258 C259 1.399 . S
C258 C263 1.399 . S
C259 C258 1.399 . S
C259 C260 1.376 . S
C260 H247 0.930 . S
C260 C259 1.376 . S
C260 C261 1.388 . S
C261 H248 0.930 . S
C261 C260 1.388 . S
C261 C262 1.390 . S
C262 C261 1.390 . S
C262 C263 1.394 . S
C262 C268 1.465 . S
C263 C258 1.399 . S
C263 C262 1.394 . S
C263 C264 1.516 . S
C264 C263 1.516 . S
C264 C265 1.502 . S
C264 C266 1.561 . S
C264 C267 1.526 . S
C265 H249 0.959 . S
C265 H250 0.959 . S
C265 H251 0.961 . S
C265 C264 1.502 . S
C266 H252 0.960 . S
C266 H253 0.961 . S
C266 H254 0.959 . S
C266 C264 1.561 . S
C267 C264 1.526 . S
C267 C268 1.396 . S
C267 C272 1.390 . S
C268 C262 1.465 . S
C268 C267 1.396 . S
C268 C269 1.399 . S
C269 H255 0.929 . S
C269 C268 1.399 . S
C269 C270 1.385 . S
C270 H256 0.931 . S
C270 C269 1.385 . S
C270 C271 1.389 . S
C271 C270 1.389 . S
C271 C272 1.387 . S
C272 H257 0.930 . S
C272 C267 1.390 . S
C272 C271 1.387 . S
H273 C285 0.930 . S
H274 C287 0.930 . S
H275 C288 0.930 . S
H276 C292 0.959 . S
H277 C292 0.959 . S
H278 C292 0.961 . S
H279 C293 0.960 . S
H280 C293 0.961 . S
H281 C293 0.959 . S
H282 C296 0.929 . S
H283 C297 0.931 . S
H284 C299 0.930 . S
C285 H273 0.930 . S
C285 C286 1.399 . S
C285 C290 1.399 . S
C286 C285 1.399 . S
C286 C287 1.376 . S
C287 H274 0.930 . S
C287 C286 1.376 . S
C287 C288 1.388 . S
C288 H275 0.930 . S
C288 C287 1.388 . S
C288 C289 1.390 . S
C289 C288 1.390 . S
C289 C290 1.394 . S
C289 C295 1.465 . S
C290 C285 1.399 . S
C290 C289 1.394 . S
C290 C291 1.516 . S
C291 C290 1.516 . S
C291 C292 1.502 . S
C291 C293 1.561 . S
C291 C294 1.526 . S
C292 H276 0.959 . S
C292 H277 0.959 . S
C292 H278 0.961 . S
C292 C291 1.502 . S
C293 H279 0.960 . S
C293 H280 0.961 . S
C293 H281 0.959 . S
C293 C291 1.561 . S
C294 C291 1.526 . S
C294 C295 1.396 . S
C294 C299 1.390 . S
C295 C289 1.465 . S
C295 C294 1.396 . S
C295 C296 1.399 . S
C296 H282 0.929 . S
C296 C295 1.399 . S
C296 C297 1.385 . S
C297 H283 0.931 . S
C297 C296 1.385 . S
C297 C298 1.389 . S
C298 C297 1.389 . S
C298 C299 1.387 . S
C299 H284 0.930 . S
C299 C294 1.390 . S
C299 C298 1.387 . S
H300 C312 0.930 . S
H301 C314 0.930 . S
H302 C315 0.930 . S
H303 C319 0.959 . S
H304 C319 0.959 . S
H305 C319 0.943 1_554 S
H306 C320 0.960 . S
H307 C320 0.961 . S
H308 C320 0.959 . S
H309 C323 0.929 . S
H310 C324 0.931 . S
H311 C326 0.930 . S
C312 H300 0.930 . S
C312 C313 1.399 . S
C312 C317 1.399 . S
C313 C312 1.399 . S
C313 C314 1.376 . S
C314 H301 0.930 . S
C314 C313 1.376 . S
C314 C315 1.388 . S
C315 H302 0.930 . S
C315 C314 1.388 . S
C315 C316 1.390 . S
C316 C315 1.390 . S
C316 C317 1.394 . S
C316 C322 1.465 . S
C317 C312 1.399 . S
C317 C316 1.394 . S
C317 C318 1.516 . S
C318 C317 1.516 . S
C318 C319 1.502 . S
C318 C320 1.561 1_556 S
C318 C321 1.526 . S
C319 H303 0.959 . S
C319 H304 0.959 . S
C319 H305 0.943 1_556 S
C319 C318 1.502 . S
C320 H306 0.960 . S
C320 H307 0.961 . S
C320 H308 0.959 . S
C320 C318 1.561 1_554 S
C321 C318 1.526 . S
C321 C322 1.396 . S
C321 C326 1.390 . S
C322 C316 1.465 . S
C322 C321 1.396 . S
C322 C323 1.399 . S
C323 H309 0.929 . S
C323 C322 1.399 . S
C323 C324 1.385 . S
C324 H310 0.931 . S
C324 C323 1.385 . S
C324 C325 1.389 . S
C325 C324 1.389 . S
C325 C326 1.387 . S
C326 H311 0.930 . S
C326 C321 1.390 . S
C326 C325 1.387 . S
H327 C339 0.930 . S
H328 C341 0.930 . S
H329 C342 0.930 . S
H330 C346 0.959 . S
H331 C346 0.959 . S
H332 C346 0.961 . S
H333 C347 0.960 . S
H334 C347 0.961 . S
H335 C347 0.959 . S
H336 C350 0.929 . S
H337 C351 0.931 . S
H338 C353 0.930 . S
C339 H327 0.930 . S
C339 C340 1.399 . S
C339 C344 1.399 . S
C340 C339 1.399 . S
C340 C341 1.376 . S
C341 H328 0.930 . S
C341 C340 1.376 . S
C341 C342 1.388 . S
C342 H329 0.930 . S
C342 C341 1.388 . S
C342 C343 1.390 . S
C343 C342 1.390 . S
C343 C344 1.394 . S
C343 C349 1.465 . S
C344 C339 1.399 . S
C344 C343 1.394 . S
C344 C345 1.516 . S
C345 C344 1.516 . S
C345 C346 1.502 . S
C345 C347 1.561 . S
C345 C348 1.526 . S
C346 H330 0.959 . S
C346 H331 0.959 . S
C346 H332 0.961 . S
C346 C345 1.502 . S
C347 H333 0.960 . S
C347 H334 0.961 . S
C347 H335 0.959 . S
C347 C345 1.561 . S
C348 C345 1.526 . S
C348 C349 1.396 . S
C348 C353 1.390 . S
C349 C343 1.465 . S
C349 C348 1.396 . S
C349 C350 1.399 . S
C350 H336 0.929 . S
C350 C349 1.399 . S
C350 C351 1.385 . S
C351 H337 0.931 . S
C351 C350 1.385 . S
C351 C352 1.389 . S
C352 C351 1.389 . S
C352 C353 1.387 . S
C353 H338 0.930 . S
C353 C348 1.390 . S
C353 C352 1.387 . S
H354 C366 0.930 . S
H355 C368 0.930 . S
H356 C369 0.930 . S
H357 C373 0.959 . S
H358 C373 0.959 . S
H359 C373 0.961 . S
H360 C374 0.960 . S
H361 C374 0.961 . S
H362 C374 0.959 . S
H363 C377 0.929 . S
H364 C378 0.931 . S
H365 C380 0.930 . S
C366 H354 0.930 . S
C366 C367 1.399 . S
C366 C371 1.399 . S
C367 C366 1.399 . S
C367 C368 1.376 . S
C368 H355 0.930 . S
C368 C367 1.376 . S
C368 C369 1.388 . S
C369 H356 0.930 . S
C369 C368 1.388 . S
C369 C370 1.390 . S
C370 C369 1.390 . S
C370 C371 1.394 . S
C370 C376 1.465 . S
C371 C366 1.399 . S
C371 C370 1.394 . S
C371 C372 1.516 . S
C372 C371 1.516 . S
C372 C373 1.502 . S
C372 C374 1.561 . S
C372 C375 1.526 . S
C373 H357 0.959 . S
C373 H358 0.959 . S
C373 H359 0.961 . S
C373 C372 1.502 . S
C374 H360 0.960 . S
C374 H361 0.961 . S
C374 H362 0.959 . S
C374 C372 1.561 . S
C375 C372 1.526 . S
C375 C376 1.396 . S
C375 C380 1.390 . S
C376 C370 1.465 . S
C376 C375 1.396 . S
C376 C377 1.399 . S
C377 H363 0.929 . S
C377 C376 1.399 . S
C377 C378 1.385 . S
C378 H364 0.931 . S
C378 C377 1.385 . S
C378 C379 1.389 . S
C379 C378 1.389 . S
C379 C380 1.387 . S
C380 H365 0.930 . S
C380 C375 1.390 . S
C380 C379 1.387 . S
H381 C393 0.930 . S
H382 C395 0.930 . S
H383 C396 0.930 . S
H384 C400 0.959 . S
H385 C400 0.959 . S
H386 C400 0.961 . S
H387 C401 0.960 . S
H388 C401 0.961 . S
H389 C401 0.959 . S
H390 C404 0.929 . S
H391 C405 0.931 . S
H392 C407 0.930 . S
C393 H381 0.930 . S
C393 C394 1.399 . S
C393 C398 1.399 . S
C394 C393 1.399 . S
C394 C395 1.376 . S
C395 H382 0.930 . S
C395 C394 1.376 . S
C395 C396 1.388 . S
C396 H383 0.930 . S
C396 C395 1.388 . S
C396 C397 1.390 . S
C397 C396 1.390 . S
C397 C398 1.394 . S
C397 C403 1.465 . S
C398 C393 1.399 . S
C398 C397 1.394 . S
C398 C399 1.516 . S
C399 C398 1.516 . S
C399 C400 1.502 . S
C399 C401 1.561 . S
C399 C402 1.526 . S
C400 H384 0.959 . S
C400 H385 0.959 . S
C400 H386 0.961 . S
C400 C399 1.502 . S
C401 H387 0.960 . S
C401 H388 0.961 . S
C401 H389 0.959 . S
C401 C399 1.561 . S
C402 C399 1.526 . S
C402 C403 1.396 . S
C402 C407 1.390 . S
C403 C397 1.465 . S
C403 C402 1.396 . S
C403 C404 1.399 . S
C404 H390 0.929 . S
C404 C403 1.399 . S
C404 C405 1.385 . S
C405 H391 0.931 . S
C405 C404 1.385 . S
C405 C406 1.389 . S
C406 C405 1.389 . S
C406 C407 1.387 . S
C407 H392 0.930 . S
C407 C402 1.390 . S
C407 C406 1.387 . S
H408 C420 0.930 . S
H409 C422 0.930 . S
H410 C423 0.930 . S
H411 C427 0.959 . S
H412 C427 0.959 . S
H413 C427 0.961 . S
H414 C428 0.960 . S
H415 C428 0.961 . S
H416 C428 0.959 . S
H417 C431 0.929 . S
H418 C432 0.931 . S
H419 C434 0.930 . S
C420 H408 0.930 . S
C420 C421 1.399 . S
C420 C425 1.399 . S
C421 C420 1.399 . S
C421 C422 1.376 . S
C422 H409 0.930 . S
C422 C421 1.376 . S
C422 C423 1.388 . S
C423 H410 0.930 . S
C423 C422 1.388 . S
C423 C424 1.390 . S
C424 C423 1.390 . S
C424 C425 1.394 . S
C424 C430 1.465 . S
C425 C420 1.399 . S
C425 C424 1.394 . S
C425 C426 1.516 . S
C426 C425 1.516 . S
C426 C427 1.502 . S
C426 C428 1.561 . S
C426 C429 1.526 . S
C427 H411 0.959 . S
C427 H412 0.959 . S
C427 H413 0.961 . S
C427 C426 1.502 . S
C428 H414 0.960 . S
C428 H415 0.961 . S
C428 H416 0.959 . S
C428 C426 1.561 . S
C429 C426 1.526 . S
C429 C430 1.396 . S
C429 C434 1.390 . S
C430 C424 1.465 . S
C430 C429 1.396 . S
C430 C431 1.399 . S
C431 H417 0.929 . S
C431 C430 1.399 . S
C431 C432 1.385 . S
C432 H418 0.931 . S
C432 C431 1.385 . S
C432 C433 1.389 . S
C433 C432 1.389 . S
C433 C434 1.387 . S
C434 H419 0.930 . S
C434 C429 1.390 . S
C434 C433 1.387 . S
H435 C447 0.930 . S
H436 C449 0.930 . S
H437 C450 0.930 . S
H438 C454 0.959 . S
H439 C454 0.959 . S
H440 C454 0.961 . S
H441 C455 0.960 . S
H442 C455 0.961 . S
H443 C455 0.959 . S
H444 C458 0.929 1_556 S
H445 C459 0.931 . S
H446 C461 0.930 . S
C447 H435 0.930 . S
C447 C448 1.399 . S
C447 C452 1.399 . S
C448 C447 1.399 . S
C448 C449 1.376 1_554 S
C449 H436 0.930 . S
C449 C448 1.376 1_556 S
C449 C450 1.388 . S
C450 H437 0.930 . S
C450 C449 1.388 . S
C450 C451 1.390 1_556 S
C451 C450 1.390 1_554 S
C451 C452 1.394 . S
C451 C457 1.465 . S
C452 C447 1.399 . S
C452 C451 1.394 . S
C452 C453 1.516 . S
C453 C452 1.516 . S
C453 C454 1.502 . S
C453 C455 1.561 . S
C453 C456 1.526 . S
C454 H438 0.959 . S
C454 H439 0.959 . S
C454 H440 0.961 . S
C454 C453 1.502 . S
C455 H441 0.960 . S
C455 H442 0.961 . S
C455 H443 0.959 . S
C455 C453 1.561 . S
C456 C453 1.526 . S
C456 C457 1.396 . S
C456 C461 1.390 . S
C457 C451 1.465 . S
C457 C456 1.396 . S
C457 C458 1.399 . S
C458 H444 0.929 1_554 S
C458 C457 1.399 . S
C458 C459 1.385 . S
C459 H445 0.931 . S
C459 C458 1.385 . S
C459 C460 1.389 . S
C460 C459 1.389 . S
C460 C461 1.387 . S
C461 H446 0.930 . S
C461 C456 1.390 . S
C461 C460 1.387 . S
H462 C474 0.930 . S
H463 C476 0.930 . S
H464 C477 0.930 . S
H465 C481 0.959 . S
H466 C481 0.959 . S
H467 C481 0.961 . S
H468 C482 0.960 . S
H469 C482 0.961 . S
H470 C482 0.959 . S
H471 C485 0.929 . S
H472 C486 0.931 . S
H473 C488 0.930 . S
C474 H462 0.930 . S
C474 C475 1.399 . S
C474 C479 1.399 . S
C475 C474 1.399 . S
C475 C476 1.376 . S
C476 H463 0.930 . S
C476 C475 1.376 . S
C476 C477 1.388 . S
C477 H464 0.930 . S
C477 C476 1.388 . S
C477 C478 1.390 . S
C478 C477 1.390 . S
C478 C479 1.394 . S
C478 C484 1.465 . S
C479 C474 1.399 . S
C479 C478 1.394 . S
C479 C480 1.516 . S
C480 C479 1.516 . S
C480 C481 1.502 . S
C480 C482 1.561 . S
C480 C483 1.526 . S
C481 H465 0.959 . S
C481 H466 0.959 . S
C481 H467 0.961 . S
C481 C480 1.502 . S
C482 H468 0.960 . S
C482 H469 0.961 . S
C482 H470 0.959 . S
C482 C480 1.561 . S
C483 C480 1.526 . S
C483 C484 1.396 . S
C483 C488 1.390 . S
C484 C478 1.465 . S
C484 C483 1.396 . S
C484 C485 1.399 . S
C485 H471 0.929 . S
C485 C484 1.399 . S
C485 C486 1.385 . S
C486 H472 0.931 . S
C486 C485 1.385 . S
C486 C487 1.389 . S
C487 C486 1.389 . S
C487 C488 1.387 . S
C488 H473 0.930 . S
C488 C483 1.390 . S
C488 C487 1.387 . S
H489 C501 0.930 . S
H490 C503 0.930 . S
H491 C504 0.930 . S
H492 C508 0.959 . S
H493 C508 0.959 . S
H494 C508 0.961 . S
H495 C509 0.960 . S
H496 C509 0.961 . S
H497 C509 0.959 . S
H498 C512 0.929 . S
H499 C513 0.931 . S
H500 C515 0.930 . S
C501 H489 0.930 . S
C501 C502 1.399 . S
C501 C506 1.399 . S
C502 C501 1.399 . S
C502 C503 1.376 . S
C503 H490 0.930 . S
C503 C502 1.376 . S
C503 C504 1.388 . S
C504 H491 0.930 . S
C504 C503 1.388 . S
C504 C505 1.390 . S
C505 C504 1.390 . S
C505 C506 1.394 . S
C505 C511 1.465 . S
C506 C501 1.399 . S
C506 C505 1.394 . S
C506 C507 1.516 . S
C507 C506 1.516 . S
C507 C508 1.502 . S
C507 C509 1.561 . S
C507 C510 1.526 . S
C508 H492 0.959 . S
C508 H493 0.959 . S
C508 H494 0.961 . S
C508 C507 1.502 . S
C509 H495 0.960 . S
C509 H496 0.961 . S
C509 H497 0.959 . S
C509 C507 1.561 . S
C510 C507 1.526 . S
C510 C511 1.396 . S
C510 C515 1.390 . S
C511 C505 1.465 . S
C511 C510 1.396 . S
C511 C512 1.399 . S
C512 H498 0.929 . S
C512 C511 1.399 . S
C512 C513 1.385 . S
C513 H499 0.931 . S
C513 C512 1.385 . S
C513 C514 1.389 . S
C514 C513 1.389 . S
C514 C515 1.387 . S
C515 H500 0.930 . S
C515 C510 1.390 . S
C515 C514 1.387 . S
H516 C528 0.930 . S
H517 C530 0.930 . S
H518 C531 0.930 . S
H519 C535 0.959 . S
H520 C535 0.959 . S
H521 C535 0.961 . S
H522 C536 0.960 . S
H523 C536 0.961 . S
H524 C536 0.959 . S
H525 C539 0.929 . S
H526 C540 0.931 . S
H527 C542 0.930 . S
C528 H516 0.930 . S
C528 C529 1.399 . S
C528 C533 1.399 . S
C529 C528 1.399 . S
C529 C530 1.376 . S
C530 H517 0.930 . S
C530 C529 1.376 . S
C530 C531 1.388 . S
C531 H518 0.930 . S
C531 C530 1.388 . S
C531 C532 1.390 . S
C532 C531 1.390 . S
C532 C533 1.394 . S
C532 C538 1.465 . S
C533 C528 1.399 . S
C533 C532 1.394 . S
C533 C534 1.516 . S
C534 C533 1.516 . S
C534 C535 1.502 . S
C534 C536 1.561 . S
C534 C537 1.526 . S
C535 H519 0.959 . S
C535 H520 0.959 . S
C535 H521 0.961 . S
C535 C534 1.502 . S
C536 H522 0.960 . S
C536 H523 0.961 . S
C536 H524 0.959 . S
C536 C534 1.561 . S
C537 C534 1.526 . S
C537 C538 1.396 . S
C537 C542 1.390 . S
C538 C532 1.465 . S
C538 C537 1.396 . S
C538 C539 1.399 . S
C539 H525 0.929 . S
C539 C538 1.399 . S
C539 C540 1.385 . S
C540 H526 0.931 . S
C540 C539 1.385 . S
C540 C541 1.389 . S
C541 C540 1.389 . S
C541 C542 1.387 . S
C542 H527 0.930 . S
C542 C537 1.390 . S
C542 C541 1.387 . S
H543 C555 0.930 . S
H544 C557 0.930 . S
H545 C558 0.930 . S
H546 C562 0.959 . S
H547 C562 0.959 . S
H548 C562 0.961 . S
H549 C563 0.960 . S
H550 C563 0.961 . S
H551 C563 0.959 . S
H552 C566 0.929 . S
H553 C567 0.931 . S
H554 C569 0.930 . S
C555 H543 0.930 . S
C555 C556 1.399 . S
C555 C560 1.399 . S
C556 C555 1.399 . S
C556 C557 1.376 . S
C557 H544 0.930 . S
C557 C556 1.376 . S
C557 C558 1.388 . S
C558 H545 0.930 . S
C558 C557 1.388 . S
C558 C559 1.390 . S
C559 C558 1.390 . S
C559 C560 1.394 . S
C559 C565 1.465 . S
C560 C555 1.399 . S
C560 C559 1.394 . S
C560 C561 1.516 . S
C561 C560 1.516 . S
C561 C562 1.502 . S
C561 C563 1.561 . S
C561 C564 1.526 . S
C562 H546 0.959 . S
C562 H547 0.959 . S
C562 H548 0.961 . S
C562 C561 1.502 . S
C563 H549 0.960 . S
C563 H550 0.961 . S
C563 H551 0.959 . S
C563 C561 1.561 . S
C564 C561 1.526 . S
C564 C565 1.396 . S
C564 C569 1.390 . S
C565 C559 1.465 . S
C565 C564 1.396 . S
C565 C566 1.399 . S
C566 H552 0.929 . S
C566 C565 1.399 . S
C566 C567 1.385 . S
C567 H553 0.931 . S
C567 C566 1.385 . S
C567 C568 1.389 . S
C568 C567 1.389 . S
C568 C569 1.387 . S
C569 H554 0.930 . S
C569 C564 1.390 . S
C569 C568 1.387 . S
H570 C582 0.930 . S
H571 C584 0.930 . S
H572 C585 0.930 . S
H573 C589 0.959 . S
H574 C589 0.959 . S
H575 C589 0.961 . S
H576 C590 0.960 . S
H577 C590 0.961 . S
H578 C590 0.959 . S
H579 C593 0.929 . S
H580 C594 0.931 . S
H581 C596 0.930 . S
C582 H570 0.930 . S
C582 C583 1.399 . S
C582 C587 1.399 . S
C583 C582 1.399 . S
C583 C584 1.376 . S
C584 H571 0.930 . S
C584 C583 1.376 . S
C584 C585 1.388 . S
C585 H572 0.930 . S
C585 C584 1.388 . S
C585 C586 1.390 . S
C586 C585 1.390 . S
C586 C587 1.394 . S
C586 C592 1.465 . S
C587 C582 1.399 . S
C587 C586 1.394 . S
C587 C588 1.516 . S
C588 C587 1.516 . S
C588 C589 1.502 . S
C588 C590 1.561 . S
C588 C591 1.526 . S
C589 H573 0.959 . S
C589 H574 0.959 . S
C589 H575 0.961 . S
C589 C588 1.502 . S
C590 H576 0.960 . S
C590 H577 0.961 . S
C590 H578 0.959 . S
C590 C588 1.561 . S
C591 C588 1.526 . S
C591 C592 1.396 . S
C591 C596 1.390 . S
C592 C586 1.465 . S
C592 C591 1.396 . S
C592 C593 1.399 . S
C593 H579 0.929 . S
C593 C592 1.399 . S
C593 C594 1.385 . S
C594 H580 0.931 . S
C594 C593 1.385 . S
C594 C595 1.389 . S
C595 C594 1.389 . S
C595 C596 1.387 . S
C596 H581 0.930 . S
C596 C591 1.390 . S
C596 C595 1.387 . S
H597 C609 0.930 . S
H598 C611 0.930 . S
H599 C612 0.930 . S
H600 C616 0.959 . S
H601 C616 0.959 . S
H602 C616 0.961 . S
H603 C617 0.960 . S
H604 C617 0.961 1_554 S
H605 C617 0.959 . S
H606 C620 0.929 . S
H607 C621 0.931 . S
H608 C623 0.930 1_554 S
C609 H597 0.930 . S
C609 C610 1.399 . S
C609 C614 1.399 . S
C610 C609 1.399 . S
C610 C611 1.376 . S
C611 H598 0.930 . S
C611 C610 1.376 . S
C611 C612 1.388 . S
C612 H599 0.930 . S
C612 C611 1.388 . S
C612 C613 1.390 . S
C613 C612 1.390 . S
C613 C614 1.394 . S
C613 C619 1.465 . S
C614 C609 1.399 . S
C614 C613 1.394 . S
C614 C615 1.516 . S
C615 C614 1.516 . S
C615 C616 1.502 . S
C615 C617 1.561 . S
C615 C618 1.526 . S
C616 H600 0.959 . S
C616 H601 0.959 . S
C616 H602 0.961 . S
C616 C615 1.502 . S
C617 H603 0.960 . S
C617 H604 0.961 1_556 S
C617 H605 0.959 . S
C617 C615 1.561 . S
C618 C615 1.526 . S
C618 C619 1.396 . S
C618 C623 1.390 . S
C619 C613 1.465 . S
C619 C618 1.396 . S
C619 C620 1.399 . S
C620 H606 0.929 . S
C620 C619 1.399 . S
C620 C621 1.385 . S
C621 H607 0.931 . S
C621 C620 1.385 . S
C621 C622 1.389 1_556 S
C622 C621 1.389 1_554 S
C622 C623 1.387 1_554 S
C623 H608 0.930 1_556 S
C623 C618 1.390 . S
C623 C622 1.387 1_556 S
H624 C636 0.930 . S
H625 C638 0.930 . S
H626 C639 0.930 . S
H627 C643 0.959 . S
H628 C643 0.959 . S
H629 C643 0.961 . S
H630 C644 0.960 . S
H631 C644 0.961 . S
H632 C644 0.959 . S
H633 C647 0.929 . S
H634 C648 0.931 . S
H635 C650 0.930 . S
C636 H624 0.930 . S
C636 C637 1.399 . S
C636 C641 1.399 . S
C637 C636 1.399 . S
C637 C638 1.376 . S
C638 H625 0.930 . S
C638 C637 1.376 . S
C638 C639 1.388 . S
C639 H626 0.930 . S
C639 C638 1.388 . S
C639 C640 1.390 . S
C640 C639 1.390 . S
C640 C641 1.394 . S
C640 C646 1.465 . S
C641 C636 1.399 . S
C641 C640 1.394 . S
C641 C642 1.516 . S
C642 C641 1.516 . S
C642 C643 1.502 . S
C642 C644 1.561 . S
C642 C645 1.526 . S
C643 H627 0.959 . S
C643 H628 0.959 . S
C643 H629 0.961 . S
C643 C642 1.502 . S
C644 H630 0.960 . S
C644 H631 0.961 . S
C644 H632 0.959 . S
C644 C642 1.561 . S
C645 C642 1.526 . S
C645 C646 1.396 . S
C645 C650 1.390 . S
C646 C640 1.465 . S
C646 C645 1.396 . S
C646 C647 1.399 . S
C647 H633 0.929 . S
C647 C646 1.399 . S
C647 C648 1.385 . S
C648 H634 0.931 . S
C648 C647 1.385 . S
C648 C649 1.389 . S
C649 C648 1.389 . S
C649 C650 1.387 . S
C650 H635 0.930 . S
C650 C645 1.390 . S
C650 C649 1.387 . S
H651 C663 0.930 . S
H652 C665 0.930 . S
H653 C666 0.930 . S
H654 C670 0.959 . S
H655 C670 0.959 . S
H656 C670 0.961 . S
H657 C671 0.960 . S
H658 C671 0.961 . S
H659 C671 0.959 . S
H660 C674 0.929 . S
H661 C675 0.931 . S
H662 C677 0.930 . S
C663 H651 0.930 . S
C663 C664 1.399 . S
C663 C668 1.399 . S
C664 C663 1.399 . S
C664 C665 1.376 . S
C665 H652 0.930 . S
C665 C664 1.376 . S
C665 C666 1.388 . S
C666 H653 0.930 . S
C666 C665 1.388 . S
C666 C667 1.390 . S
C667 C666 1.390 . S
C667 C668 1.394 . S
C667 C673 1.465 . S
C668 C663 1.399 . S
C668 C667 1.394 . S
C668 C669 1.516 . S
C669 C668 1.516 . S
C669 C670 1.502 . S
C669 C671 1.561 . S
C669 C672 1.526 . S
C670 H654 0.959 . S
C670 H655 0.959 . S
C670 H656 0.961 . S
C670 C669 1.502 . S
C671 H657 0.960 . S
C671 H658 0.961 . S
C671 H659 0.959 . S
C671 C669 1.561 . S
C672 C669 1.526 . S
C672 C673 1.396 . S
C672 C677 1.390 . S
C673 C667 1.465 . S
C673 C672 1.396 . S
C673 C674 1.399 . S
C674 H660 0.929 . S
C674 C673 1.399 . S
C674 C675 1.385 . S
C675 H661 0.931 . S
C675 C674 1.385 . S
C675 C676 1.389 . S
C676 C675 1.389 . S
C676 C677 1.387 . S
C677 H662 0.930 . S
C677 C672 1.390 . S
C677 C676 1.387 . S
H678 C690 0.930 . S
H679 C692 0.930 . S
H680 C693 0.930 . S
H681 C697 0.959 . S
H682 C697 0.959 . S
H683 C697 0.961 . S
H684 C698 0.960 . S
H685 C698 0.961 . S
H686 C698 0.959 . S
H687 C701 0.929 . S
H688 C702 0.931 . S
H689 C704 0.930 . S
C690 H678 0.930 . S
C690 C691 1.399 . S
C690 C695 1.399 . S
C691 C690 1.399 . S
C691 C692 1.376 . S
C692 H679 0.930 . S
C692 C691 1.376 . S
C692 C693 1.388 . S
C693 H680 0.930 . S
C693 C692 1.388 . S
C693 C694 1.390 . S
C694 C693 1.390 . S
C694 C695 1.394 . S
C694 C700 1.465 . S
C695 C690 1.399 . S
C695 C694 1.394 . S
C695 C696 1.516 . S
C696 C695 1.516 . S
C696 C697 1.502 . S
C696 C698 1.561 . S
C696 C699 1.526 . S
C697 H681 0.959 . S
C697 H682 0.959 . S
C697 H683 0.961 . S
C697 C696 1.502 . S
C698 H684 0.960 . S
C698 H685 0.961 . S
C698 H686 0.959 . S
C698 C696 1.561 . S
C699 C696 1.526 . S
C699 C700 1.396 . S
C699 C704 1.390 . S
C700 C694 1.465 . S
C700 C699 1.396 . S
C700 C701 1.399 . S
C701 H687 0.929 . S
C701 C700 1.399 . S
C701 C702 1.385 . S
C702 H688 0.931 . S
C702 C701 1.385 . S
C702 C703 1.389 . S
C703 C702 1.389 . S
C703 C704 1.387 . S
C704 H689 0.930 . S
C704 C699 1.390 . S
C704 C703 1.387 . S
H705 C717 0.930 . S
H706 C719 0.930 . S
H707 C720 0.930 . S
H708 C724 0.959 . S
H709 C724 0.959 . S
H710 C724 0.961 . S
H711 C725 0.960 . S
H712 C725 0.961 . S
H713 C725 0.959 . S
H714 C728 0.929 . S
H715 C729 0.931 . S
H716 C731 0.930 . S
C717 H705 0.930 . S
C717 C718 1.399 . S
C717 C722 1.399 . S
C718 C717 1.399 . S
C718 C719 1.376 . S
C719 H706 0.930 . S
C719 C718 1.376 . S
C719 C720 1.388 . S
C720 H707 0.930 . S
C720 C719 1.388 . S
C720 C721 1.390 . S
C721 C720 1.390 . S
C721 C722 1.394 . S
C721 C727 1.465 . S
C722 C717 1.399 . S
C722 C721 1.394 . S
C722 C723 1.516 . S
C723 C722 1.516 . S
C723 C724 1.502 . S
C723 C725 1.561 . S
C723 C726 1.526 . S
C724 H708 0.959 . S
C724 H709 0.959 . S
C724 H710 0.961 . S
C724 C723 1.502 . S
C725 H711 0.960 . S
C725 H712 0.961 . S
C725 H713 0.959 . S
C725 C723 1.561 . S
C726 C723 1.526 . S
C726 C727 1.396 . S
C726 C731 1.390 . S
C727 C721 1.465 . S
C727 C726 1.396 . S
C727 C728 1.399 . S
C728 H714 0.929 . S
C728 C727 1.399 . S
C728 C729 1.385 . S
C729 H715 0.931 . S
C729 C728 1.385 . S
C729 C730 1.389 . S
C730 C729 1.389 . S
C730 C731 1.387 . S
C731 H716 0.930 . S
C731 C726 1.390 . S
C731 C730 1.387 . S
H732 C744 0.930 . S
H733 C746 0.930 . S
H734 C747 0.930 . S
H735 C751 0.959 . S
H736 C751 0.959 . S
H737 C751 0.961 . S
H738 C752 0.960 . S
H739 C752 0.961 . S
H740 C752 0.959 . S
H741 C755 0.929 . S
H742 C756 0.931 . S
H743 C758 0.930 . S
C744 H732 0.930 . S
C744 C745 1.399 . S
C744 C749 1.399 . S
C745 C744 1.399 . S
C745 C746 1.376 . S
C746 H733 0.930 . S
C746 C745 1.376 . S
C746 C747 1.388 . S
C747 H734 0.930 . S
C747 C746 1.388 . S
C747 C748 1.390 . S
C748 C747 1.390 . S
C748 C749 1.394 . S
C748 C754 1.465 . S
C749 C744 1.399 . S
C749 C748 1.394 . S
C749 C750 1.516 . S
C750 C749 1.516 . S
C750 C751 1.502 . S
C750 C752 1.561 . S
C750 C753 1.526 . S
C751 H735 0.959 . S
C751 H736 0.959 . S
C751 H737 0.961 . S
C751 C750 1.502 . S
C752 H738 0.960 . S
C752 H739 0.961 . S
C752 H740 0.959 . S
C752 C750 1.561 . S
C753 C750 1.526 . S
C753 C754 1.396 . S
C753 C758 1.390 . S
C754 C748 1.465 . S
C754 C753 1.396 . S
C754 C755 1.399 . S
C755 H741 0.929 . S
C755 C754 1.399 . S
C755 C756 1.385 . S
C756 H742 0.931 . S
C756 C755 1.385 . S
C756 C757 1.389 . S
C757 C756 1.389 . S
C757 C758 1.387 . S
C758 H743 0.930 . S
C758 C753 1.390 . S
C758 C757 1.387 . S
H759 C771 0.930 . S
H760 C773 0.930 . S
H761 C774 0.930 . S
H762 C778 0.959 . S
H763 C778 0.959 . S
H764 C778 0.961 . S
H765 C779 0.960 . S
H766 C779 0.961 . S
H767 C779 0.959 . S
H768 C782 0.929 . S
H769 C783 0.931 . S
H770 C785 0.930 . S
C771 H759 0.930 . S
C771 C772 1.399 . S
C771 C776 1.399 . S
C772 C771 1.399 . S
C772 C773 1.376 . S
C773 H760 0.930 . S
C773 C772 1.376 . S
C773 C774 1.388 . S
C774 H761 0.930 . S
C774 C773 1.388 . S
C774 C775 1.390 . S
C775 C774 1.390 . S
C775 C776 1.394 . S
C775 C781 1.465 . S
C776 C771 1.399 . S
C776 C775 1.394 . S
C776 C777 1.516 . S
C777 C776 1.516 . S
C777 C778 1.502 . S
C777 C779 1.561 . S
C777 C780 1.526 . S
C778 H762 0.959 . S
C778 H763 0.959 . S
C778 H764 0.961 . S
C778 C777 1.502 . S
C779 H765 0.960 . S
C779 H766 0.961 . S
C779 H767 0.959 . S
C779 C777 1.561 . S
C780 C777 1.526 . S
C780 C781 1.396 . S
C780 C785 1.390 . S
C781 C775 1.465 . S
C781 C780 1.396 . S
C781 C782 1.399 . S
C782 H768 0.929 . S
C782 C781 1.399 . S
C782 C783 1.385 . S
C783 H769 0.931 . S
C783 C782 1.385 . S
C783 C784 1.389 . S
C784 C783 1.389 . S
C784 C785 1.387 . S
C785 H770 0.930 . S
C785 C780 1.390 . S
C785 C784 1.387 . S
H786 C798 0.930 . S
H787 C800 0.930 . S
H788 C801 0.930 . S
H789 C805 0.959 . S
H790 C805 0.959 . S
H791 C805 0.961 1_554 S
H792 C806 0.960 . S
H793 C806 0.961 . S
H794 C806 0.959 . S
H795 C809 0.929 . S
H796 C810 0.931 . S
H797 C812 0.930 . S
C798 H786 0.930 . S
C798 C799 1.399 . S
C798 C803 1.399 . S
C799 C798 1.399 . S
C799 C800 1.376 . S
C800 H787 0.930 . S
C800 C799 1.376 . S
C800 C801 1.388 . S
C801 H788 0.930 . S
C801 C800 1.388 . S
C801 C802 1.390 . S
C802 C801 1.390 . S
C802 C803 1.394 . S
C802 C808 1.465 . S
C803 C798 1.399 . S
C803 C802 1.394 . S
C803 C804 1.516 . S
C804 C803 1.516 . S
C804 C805 1.502 1_554 S
C804 C806 1.561 . S
C804 C807 1.526 . S
C805 H789 0.959 . S
C805 H790 0.959 . S
C805 H791 0.961 1_556 S
C805 C804 1.502 1_556 S
C806 H792 0.960 . S
C806 H793 0.961 . S
C806 H794 0.959 . S
C806 C804 1.561 . S
C807 C804 1.526 . S
C807 C808 1.396 . S
C807 C812 1.390 1_554 S
C808 C802 1.465 . S
C808 C807 1.396 . S
C808 C809 1.399 . S
C809 H795 0.929 . S
C809 C808 1.399 . S
C809 C810 1.385 1_554 S
C810 H796 0.931 . S
C810 C809 1.385 1_556 S
C810 C811 1.389 . S
C811 C810 1.389 . S
C811 C812 1.387 . S
C812 H797 0.930 . S
C812 C807 1.390 1_556 S
C812 C811 1.387 . S
H813 C825 0.930 . S
H814 C827 0.930 . S
H815 C828 0.930 . S
H816 C832 0.959 . S
H817 C832 0.959 . S
H818 C832 0.961 . S
H819 C833 0.960 . S
H820 C833 0.961 . S
H821 C833 0.959 . S
H822 C836 0.929 . S
H823 C837 0.931 . S
H824 C839 0.930 . S
C825 H813 0.930 . S
C825 C826 1.399 . S
C825 C830 1.399 . S
C826 C825 1.399 . S
C826 C827 1.376 . S
C827 H814 0.930 . S
C827 C826 1.376 . S
C827 C828 1.388 . S
C828 H815 0.930 . S
C828 C827 1.388 . S
C828 C829 1.390 . S
C829 C828 1.390 . S
C829 C830 1.394 . S
C829 C835 1.465 . S
C830 C825 1.399 . S
C830 C829 1.394 . S
C830 C831 1.516 . S
C831 C830 1.516 . S
C831 C832 1.502 . S
C831 C833 1.561 . S
C831 C834 1.526 . S
C832 H816 0.959 . S
C832 H817 0.959 . S
C832 H818 0.961 . S
C832 C831 1.502 . S
C833 H819 0.960 . S
C833 H820 0.961 . S
C833 H821 0.959 . S
C833 C831 1.561 . S
C834 C831 1.526 . S
C834 C835 1.396 . S
C834 C839 1.390 . S
C835 C829 1.465 . S
C835 C834 1.396 . S
C835 C836 1.399 . S
C836 H822 0.929 . S
C836 C835 1.399 . S
C836 C837 1.385 . S
C837 H823 0.931 . S
C837 C836 1.385 . S
C837 C838 1.389 . S
C838 C837 1.389 . S
C838 C839 1.387 . S
C839 H824 0.930 . S
C839 C834 1.390 . S
C839 C838 1.387 . S
C217 C178 1.588 . S
C205 C8 1.546 . S
C232 C26 1.496 . S
C244 C119 1.575 . S
C259 C50 1.486 . S
C271 C122 1.565 . S
C286 C68 1.560 . S
C298 C136 1.588 . S
C325 C161 1.576 . S
C313 C80 1.550 . S
C340 C104 1.509 . S
C352 C164 1.552 . S
C367 C32 1.535 . S
C379 C133 1.559 . S
C394 C44 1.512 . S
C406 C147 1.558 . S
C421 C62 1.542 . S
C433 C150 1.549 . S
C460 C175 1.550 . S
C448 C86 1.469 1_554 S
C487 C189 1.569 . S
C475 C98 1.482 . S
C514 C108 1.549 . S
C502 C14 1.473 . S
C529 C7 1.426 . S
C541 C131 1.484 . S
C556 C25 1.438 . S
C568 C145 1.498 . S
C595 C155 1.508 . S
C583 C52 1.419 . S
C610 C70 1.457 . S
C622 C173 1.504 . S
C649 C187 1.513 . S
C637 C79 1.454 . S
C676 C113 1.507 . S
C664 C106 1.427 . S
C703 C183 1.526 . S
C691 C34 1.486 . S
C718 C43 1.466 . S
C730 C117 1.506 . S
C757 C127 1.516 . S
C745 C61 1.488 . S
C772 C88 1.493 . S
C784 C141 1.527 . S
C799 C97 1.426 . S
C811 C159 1.506 . S
C826 C16 1.467 . S
C838 C169 1.517 . S
