# Generated by pormake.
# Topology dag, (6,3)-cn, num edge types: 1
# Building blocks:
#     Node 0, Type 0, BuildingBlock: OJICUG_clean_sbu_0, # of connection points: 6
#     Node 1, Type 0, BuildingBlock: OJICUG_clean_sbu_0, # of connection points: 6
#     Node 2, Type 0, BuildingBlock: OJICUG_clean_sbu_0, # of connection points: 6
#     Node 3, Type 0, BuildingBlock: OJICUG_clean_sbu_0, # of connection points: 6
#     Node 4, Type 1, BuildingBlock: PAMTOO_clean_linker_0, # of connection points: 3
#     Node 5, Type 1, BuildingBlock: PAMTOO_clean_linker_0, # of connection points: 3
#     Node 6, Type 1, BuildingBlock: PAMTOO_clean_linker_0, # of connection points: 3
#     Node 7, Type 1, BuildingBlock: PAMTOO_clean_linker_0, # of connection points: 3
#     Node 8, Type 1, BuildingBlock: PAMTOO_clean_linker_0, # of connection points: 3
#     Node 9, Type 1, BuildingBlock: PAMTOO_clean_linker_0, # of connection points: 3
#     Node 10, Type 1, BuildingBlock: PAMTOO_clean_linker_0, # of connection points: 3
#     Node 11, Type 1, BuildingBlock: PAMTOO_clean_linker_0, # of connection points: 3
#     Edge 12, Type (0, 1), BuildingBlock: UVAHIK_clean_linker_0, # of connection points: 2
#     Edge 13, Type (0, 1), BuildingBlock: UVAHIK_clean_linker_0, # of connection points: 2
#     Edge 14, Type (0, 1), BuildingBlock: UVAHIK_clean_linker_0, # of connection points: 2
#     Edge 15, Type (0, 1), BuildingBlock: UVAHIK_clean_linker_0, # of connection points: 2
#     Edge 16, Type (0, 1), BuildingBlock: UVAHIK_clean_linker_0, # of connection points: 2
#     Edge 17, Type (0, 1), BuildingBlock: UVAHIK_clean_linker_0, # of connection points: 2
#     Edge 18, Type (0, 1), BuildingBlock: UVAHIK_clean_linker_0, # of connection points: 2
#     Edge 19, Type (0, 1), BuildingBlock: UVAHIK_clean_linker_0, # of connection points: 2
#     Edge 20, Type (0, 1), BuildingBlock: UVAHIK_clean_linker_0, # of connection points: 2
#     Edge 21, Type (0, 1), BuildingBlock: UVAHIK_clean_linker_0, # of connection points: 2
#     Edge 22, Type (0, 1), BuildingBlock: UVAHIK_clean_linker_0, # of connection points: 2
#     Edge 23, Type (0, 1), BuildingBlock: UVAHIK_clean_linker_0, # of connection points: 2
#     Edge 24, Type (0, 1), BuildingBlock: UVAHIK_clean_linker_0, # of connection points: 2
#     Edge 25, Type (0, 1), BuildingBlock: UVAHIK_clean_linker_0, # of connection points: 2
#     Edge 26, Type (0, 1), BuildingBlock: UVAHIK_clean_linker_0, # of connection points: 2
#     Edge 27, Type (0, 1), BuildingBlock: UVAHIK_clean_linker_0, # of connection points: 2
#     Edge 28, Type (0, 1), BuildingBlock: UVAHIK_clean_linker_0, # of connection points: 2
#     Edge 29, Type (0, 1), BuildingBlock: UVAHIK_clean_linker_0, # of connection points: 2
#     Edge 30, Type (0, 1), BuildingBlock: UVAHIK_clean_linker_0, # of connection points: 2
#     Edge 31, Type (0, 1), BuildingBlock: UVAHIK_clean_linker_0, # of connection points: 2
#     Edge 32, Type (0, 1), BuildingBlock: UVAHIK_clean_linker_0, # of connection points: 2
#     Edge 33, Type (0, 1), BuildingBlock: UVAHIK_clean_linker_0, # of connection points: 2
#     Edge 34, Type (0, 1), BuildingBlock: UVAHIK_clean_linker_0, # of connection points: 2
#     Edge 35, Type (0, 1), BuildingBlock: UVAHIK_clean_linker_0, # of connection points: 2
# Relax obj value: 0.097
# Max RMSD: 0.113
# Mean RMSD: 0.090
data_MOF--net-dag--node1-OJICUG_clean_sbu_0--node2-PAMTOO_clean_linker_0--edge1-UVAHIK_clean_linker_0
_symmetry_space_group_name_H-M    P1
_symmetry_Int_Tables_number       1
_symmetry_cell_setting            triclinic
loop_
_symmetry_equiv_pos_as_xyz
'x, y, z'
_cell_length_a     48.113052
_cell_length_b     49.405468
_cell_length_c     50.346718
_cell_angle_alpha  89.98647
_cell_angle_beta   94.527519
_cell_angle_gamma 90.060902
loop_
_atom_site_label
_atom_site_type_symbol
_atom_site_fract_x
_atom_site_fract_y
_atom_site_fract_z
_atom_type_partial_charge
Sc0 Sc 0.11985 0.87153 0.00595 0.0
Sc1 Sc 0.13449 0.80677 0.98203 0.0
Sc2 Sc 0.18975 0.85082 0.0043 0.0
O3 O 0.14808 0.843 0.99746 0.0
C4 C 0.16694 0.90735 0.98137 0.0
C5 C 0.09282 0.84807 0.95074 0.0
C6 C 0.18704 0.81905 0.94889 0.0
C7 C 0.09006 0.81762 0.02442 0.0
C8 C 0.16516 0.87724 0.05551 0.0
C9 C 0.18544 0.78919 0.02299 0.0
O10 O 0.14226 0.90312 0.98766 0.0
O11 O 0.10466 0.8251 0.95309 0.0
O12 O 0.19901 0.8351 0.96594 0.0
O13 O 0.09389 0.84308 0.02496 0.0
O14 O 0.18519 0.86754 0.04344 0.0
O15 O 0.16267 0.78444 0.00918 0.0
O16 O 0.14057 0.87961 0.04453 0.0
O17 O 0.10328 0.80188 0.00998 0.0
O18 O 0.19763 0.81206 0.02312 0.0
O19 O 0.09644 0.86664 0.96812 0.0
O20 O 0.18666 0.89051 0.98619 0.0
O21 O 0.16397 0.8075 0.95226 0.0
Sc22 Sc 0.68587 0.64883 0.49504 0.0
Sc23 Sc 0.63048 0.69272 0.47374 0.0
Sc24 Sc 0.61632 0.62639 0.49414 0.0
O25 O 0.64424 0.65598 0.48764 0.0
C26 C 0.6647 0.59224 0.47015 0.0
C27 C 0.68401 0.68273 0.44114 0.0
C28 C 0.58997 0.65236 0.43966 0.0
C29 C 0.68008 0.70957 0.51619 0.0
C30 C 0.66073 0.61993 0.54449 0.0
C31 C 0.58499 0.67847 0.51438 0.0
O32 O 0.6838 0.60926 0.47689 0.0
O33 O 0.66147 0.69475 0.44546 0.0
O34 O 0.59279 0.63344 0.45676 0.0
O35 O 0.69311 0.68736 0.51431 0.0
O36 O 0.63693 0.61624 0.53218 0.0
O37 O 0.59771 0.69506 0.50034 0.0
O38 O 0.68063 0.63188 0.53402 0.0
O39 O 0.65679 0.7143 0.5033 0.0
O40 O 0.5899 0.6532 0.51458 0.0
O41 O 0.69522 0.66494 0.45682 0.0
O42 O 0.63934 0.59603 0.47451 0.0
O43 O 0.60255 0.67497 0.44265 0.0
Sc44 Sc 0.86455 0.19172 0.05512 0.0
Sc45 Sc 0.80827 0.14807 0.03562 0.0
Sc46 Sc 0.87751 0.12607 0.03208 0.0
O47 O 0.85009 0.15526 0.041 0.0
C48 C 0.90689 0.17898 0.01114 0.0
C49 C 0.81319 0.20893 0.01468 0.0
C50 C 0.83029 0.12015 0.98414 0.0
C51 C 0.81281 0.18154 0.08994 0.0
C52 C 0.90683 0.15071 0.08609 0.0
C53 C 0.83086 0.09138 0.05871 0.0
O54 O 0.89539 0.19506 0.02659 0.0
O55 O 0.80041 0.18651 0.01633 0.0
O56 O 0.85503 0.11712 0.99452 0.0
O57 O 0.83553 0.19307 0.0853 0.0
O58 O 0.9032 0.13217 0.06862 0.0
O59 O 0.81158 0.1087 0.05397 0.0
O60 O 0.89406 0.17326 0.08425 0.0
O61 O 0.80061 0.1645 0.07407 0.0
O62 O 0.85562 0.095 0.0522 0.0
O63 O 0.83662 0.21373 0.02734 0.0
O64 O 0.90222 0.15367 0.01071 0.0
O65 O 0.81099 0.13074 0.99652 0.0
Sc66 Sc 0.37934 0.37084 0.54035 0.0
Sc67 Sc 0.30991 0.34884 0.5418 0.0
Sc68 Sc 0.36584 0.30597 0.56464 0.0
O69 O 0.35164 0.34184 0.54889 0.0
C70 C 0.41175 0.3173 0.52438 0.0
C71 C 0.3355 0.37257 0.48969 0.0
C72 C 0.31504 0.28676 0.52437 0.0
C73 C 0.33033 0.4073 0.56092 0.0
C74 C 0.40496 0.34958 0.59657 0.0
C75 C 0.31332 0.31836 0.59784 0.0
O76 O 0.40784 0.34271 0.52437 0.0
O77 O 0.31488 0.36432 0.50197 0.0
O78 O 0.33824 0.28243 0.53763 0.0
O79 O 0.35514 0.40348 0.55485 0.0
O80 O 0.39505 0.32575 0.59349 0.0
O81 O 0.30107 0.33445 0.58096 0.0
O82 O 0.40042 0.3683 0.57944 0.0
O83 O 0.3117 0.38911 0.55814 0.0
O84 O 0.33613 0.30666 0.594 0.0
O85 O 0.36001 0.37527 0.50081 0.0
O86 O 0.39745 0.30106 0.53727 0.0
O87 O 0.30261 0.30945 0.52444 0.0
H88 H 0.12352 0.05101 0.24826 0.0
H89 H 0.13257 0.10786 0.31305 0.0
H90 H 0.19542 0.04722 0.30468 0.0
H91 H 0.18668 0.05992 0.36189 0.0
C92 C 0.17763 0.08048 0.3587 0.0
O93 O 0.18066 0.08868 0.33291 0.0
H94 H 0.15514 0.07948 0.36243 0.0
C95 C 0.13508 0.05842 0.26618 0.0
C96 C 0.16058 0.04643 0.27485 0.0
C97 C 0.12473 0.08037 0.27993 0.0
C98 C 0.14008 0.09049 0.3026 0.0
C99 C 0.16536 0.07823 0.31174 0.0
C100 C 0.17553 0.05612 0.29795 0.0
H101 H 0.33184 0.68121 0.61001 0.0
H102 H 0.27658 0.6832 0.67305 0.0
H103 H 0.3363 0.74685 0.66639 0.0
H104 H 0.33383 0.72528 0.71868 0.0
C105 C 0.3112 0.72051 0.71874 0.0
O106 O 0.29765 0.72764 0.69459 0.0
H107 H 0.30907 0.69835 0.72205 0.0
C108 C 0.32351 0.69183 0.62647 0.0
C109 C 0.33631 0.71588 0.636 0.0
C110 C 0.30194 0.67982 0.63959 0.0
C111 C 0.29269 0.69249 0.66223 0.0
C112 C 0.30505 0.71668 0.67166 0.0
C113 C 0.32653 0.72849 0.65844 0.0
H114 H 0.83852 0.81997 0.11448 0.0
H115 H 0.77485 0.81292 0.16948 0.0
H116 H 0.83241 0.74772 0.16145 0.0
H117 H 0.77622 0.72898 0.16985 0.0
C118 C 0.7689 0.74644 0.18139 0.0
O119 O 0.79028 0.76473 0.18637 0.0
H120 H 0.75116 0.75615 0.16943 0.0
C121 C 0.82765 0.80797 0.12843 0.0
C122 C 0.83786 0.78222 0.1359 0.0
C123 C 0.80504 0.81935 0.14044 0.0
C124 C 0.79209 0.80437 0.1597 0.0
C125 C 0.80179 0.77844 0.16686 0.0
C126 C 0.82469 0.76749 0.15516 0.0
H127 H 0.61962 0.46815 0.75677 0.0
H128 H 0.63761 0.39886 0.80724 0.0
H129 H 0.70075 0.45881 0.7978 0.0
H130 H 0.72422 0.40496 0.80182 0.0
C131 C 0.70667 0.39429 0.81048 0.0
O132 O 0.68917 0.41302 0.8207 0.0
H133 H 0.69536 0.38235 0.79423 0.0
C134 C 0.63351 0.4572 0.77098 0.0
C135 C 0.66078 0.46676 0.77663 0.0
C136 C 0.62484 0.43256 0.78162 0.0
C137 C 0.64373 0.41795 0.79884 0.0
C138 C 0.67091 0.42761 0.80483 0.0
C139 C 0.67946 0.4519 0.79366 0.0
H140 H 0.66408 0.31985 0.42635 0.0
H141 H 0.66406 0.24693 0.37961 0.0
H142 H 0.71737 0.31298 0.36198 0.0
H143 H 0.67792 0.28928 0.31889 0.0
C144 C 0.68264 0.26759 0.32326 0.0
O145 O 0.69896 0.26516 0.34694 0.0
H146 H 0.66251 0.25686 0.32498 0.0
C147 C 0.6729 0.30768 0.4112 0.0
C148 C 0.69297 0.31923 0.39579 0.0
C149 C 0.66209 0.2817 0.40551 0.0
C150 C 0.67237 0.26683 0.38467 0.0
C151 C 0.69205 0.27825 0.36898 0.0
C152 C 0.70253 0.30424 0.37464 0.0
H153 H 0.13391 0.16708 0.88645 0.0
H154 H 0.1515 0.24554 0.85478 0.0
H155 H 0.21281 0.1823 0.85459 0.0
H156 H 0.23467 0.24073 0.86546 0.0
C157 C 0.21876 0.25091 0.85165 0.0
O158 O 0.20046 0.2321 0.8401 0.0
H159 H 0.20736 0.26592 0.86318 0.0
C160 C 0.14793 0.1807 0.87712 0.0
C161 C 0.17423 0.17137 0.87115 0.0
C162 C 0.13952 0.20738 0.87146 0.0
C163 C 0.1579 0.22504 0.85991 0.0
C164 C 0.18429 0.21597 0.85397 0.0
C165 C 0.19263 0.18928 0.85986 0.0
H166 H 0.38205 0.54201 0.28276 0.0
H167 H 0.3556 0.60314 0.22553 0.0
H168 H 0.3026 0.53482 0.23742 0.0
H169 H 0.2975 0.55293 0.17983 0.0
C170 C 0.30903 0.57225 0.18354 0.0
O171 O 0.30841 0.57925 0.21001 0.0
H172 H 0.33086 0.56904 0.17829 0.0
C173 C 0.36688 0.5494 0.26738 0.0
C174 C 0.34182 0.53521 0.2616 0.0
C175 C 0.37189 0.57393 0.25464 0.0
C176 C 0.35197 0.58414 0.23546 0.0
C177 C 0.32727 0.5697 0.22895 0.0
C178 C 0.32201 0.54553 0.24226 0.0
H179 H 0.87703 0.95843 0.78568 0.0
H180 H 0.86255 0.89028 0.73324 0.0
H181 H 0.80016 0.95202 0.73627 0.0
H182 H 0.77637 0.89859 0.73273 0.0
C183 C 0.79338 0.88745 0.72371 0.0
O184 O 0.81254 0.90565 0.71523 0.0
H185 H 0.80343 0.87383 0.73927 0.0
C186 C 0.86422 0.94818 0.7701 0.0
C187 C 0.83784 0.95872 0.76183 0.0
C188 C 0.87352 0.92362 0.75993 0.0
C189 C 0.85598 0.90944 0.74114 0.0
C190 C 0.82963 0.91978 0.73269 0.0
C191 C 0.82067 0.9444 0.74286 0.0
C192 C 0.1484 0.89497 0.09801 0.0
C193 C 0.17068 0.88717 0.08324 0.0
C194 C 0.15337 0.90641 0.12327 0.0
C195 C 0.20561 0.94669 0.16188 0.0
H196 H 0.15521 0.93679 0.21755 0.0
C197 C 0.1747 0.99836 0.26759 0.0
C198 C 0.17195 0.02509 0.25836 0.0
C199 C 0.18125 0.97761 0.25016 0.0
C200 C 0.16987 0.93946 0.2025 0.0
H201 H 0.21576 0.88427 0.08408 0.0
H202 H 0.22442 0.90442 0.1283 0.0
H203 H 0.15328 0.90561 0.17987 0.0
H204 H 0.1752 0.0516 0.22454 0.0
H205 H 0.18692 0.01568 0.19423 0.0
H206 H 0.22153 0.98109 0.18405 0.0
C207 C 0.20308 0.90178 0.12013 0.0
C208 C 0.16855 0.92177 0.18076 0.0
C209 C 0.19809 0.89016 0.09483 0.0
C210 C 0.17731 0.03107 0.23203 0.0
C211 C 0.18417 0.01052 0.21477 0.0
C212 C 0.20687 0.96441 0.18357 0.0
C213 C 0.18076 0.91043 0.13444 0.0
C214 C 0.18571 0.92579 0.15975 0.0
C215 C 0.18551 0.98346 0.22341 0.0
C216 C 0.18833 0.96157 0.20361 0.0
H217 H 0.127 0.89283 0.08984 0.0
H218 H 0.1357 0.91318 0.13356 0.0
H219 H 0.21906 0.95042 0.146 0.0
H220 H 0.17046 0.99337 0.28784 0.0
H221 H 0.18223 0.95695 0.25736 0.0
C222 C 0.55489 0.71633 0.52898 0.0
C223 C 0.56278 0.68891 0.53042 0.0
C224 C 0.53274 0.72574 0.54279 0.0
C225 C 0.48859 0.70819 0.59728 0.0
H226 H 0.43249 0.75152 0.55745 0.0
C227 C 0.38581 0.7319 0.64168 0.0
C228 C 0.3622 0.72526 0.62468 0.0
C229 C 0.41179 0.73508 0.6315 0.0
C230 C 0.44804 0.73956 0.56888 0.0
H231 H 0.55399 0.6501 0.54822 0.0
H232 H 0.51533 0.66646 0.57202 0.0
H233 H 0.47599 0.74086 0.53787 0.0
H234 H 0.34679 0.71926 0.58349 0.0
H235 H 0.39216 0.72422 0.56576 0.0
H236 H 0.46016 0.70557 0.62765 0.0
C237 C 0.52644 0.68075 0.56042 0.0
C238 C 0.47306 0.73365 0.55777 0.0
C239 C 0.5485 0.67132 0.54659 0.0
C240 C 0.3647 0.72402 0.59709 0.0
C241 C 0.39068 0.72712 0.58692 0.0
C242 C 0.46362 0.71409 0.60836 0.0
C243 C 0.51809 0.70799 0.55843 0.0
C244 C 0.49327 0.71728 0.57157 0.0
C245 C 0.4147 0.73162 0.60414 0.0
C246 C 0.44276 0.72926 0.59402 0.0
H247 H 0.56548 0.73049 0.51681 0.0
H248 H 0.52695 0.74689 0.54108 0.0
H249 H 0.50394 0.69586 0.60855 0.0
H250 H 0.38464 0.73288 0.66305 0.0
H251 H 0.42984 0.739 0.64521 0.0
C252 C 0.84517 0.04724 0.08032 0.0
C253 C 0.82396 0.06543 0.07149 0.0
C254 C 0.83859 0.02216 0.09102 0.0
C255 C 0.7831 0.9715 0.08856 0.0
H256 H 0.82723 0.94065 0.14887 0.0
C257 C 0.79553 0.86657 0.1553 0.0
C258 C 0.79721 0.84784 0.1345 0.0
C259 C 0.79332 0.89427 0.1498 0.0
C260 C 0.81439 0.9491 0.13227 0.0
H261 H 0.77913 0.07164 0.06756 0.0
H262 H 0.76774 0.02773 0.08611 0.0
H263 H 0.83493 0.98754 0.1361 0.0
H264 H 0.79591 0.84307 0.09166 0.0
H265 H 0.79194 0.89137 0.082 0.0
H266 H 0.76305 0.93281 0.08434 0.0
C267 C 0.78945 0.03294 0.08463 0.0
C268 C 0.81903 0.97585 0.12479 0.0
C269 C 0.79602 0.05813 0.07412 0.0
C270 C 0.7948 0.85713 0.10805 0.0
C271 C 0.79235 0.88476 0.10254 0.0
C272 C 0.77859 0.94466 0.09593 0.0
C273 C 0.81066 0.0146 0.09298 0.0
C274 C 0.8038 0.98717 0.10256 0.0
C275 C 0.79248 0.90368 0.12339 0.0
C276 C 0.79455 0.93303 0.11757 0.0
H277 H 0.8669 0.05219 0.07868 0.0
H278 H 0.85539 0.00834 0.09702 0.0
H279 H 0.77114 0.97962 0.07124 0.0
H280 H 0.79753 0.85997 0.17588 0.0
H281 H 0.79318 0.90839 0.16624 0.0
C282 C 0.42383 0.38281 0.63064 0.0
C283 C 0.42272 0.35612 0.62103 0.0
C284 C 0.4419 0.38977 0.6526 0.0
C285 C 0.48951 0.36152 0.70807 0.0
H286 H 0.52574 0.43114 0.70199 0.0
C287 C 0.59466 0.39404 0.76402 0.0
C288 C 0.59718 0.4212 0.77225 0.0
C289 C 0.57006 0.38477 0.7503 0.0
C290 C 0.51551 0.41182 0.70424 0.0
H291 H 0.43901 0.31558 0.62737 0.0
H292 H 0.4716 0.32794 0.66512 0.0
H293 H 0.48965 0.41754 0.66838 0.0
H294 H 0.57498 0.45916 0.77488 0.0
H295 H 0.53218 0.44303 0.75073 0.0
H296 H 0.51679 0.35557 0.74348 0.0
C297 C 0.45799 0.34341 0.65612 0.0
C298 C 0.49469 0.40399 0.68497 0.0
C299 C 0.43944 0.33632 0.63438 0.0
C300 C 0.57387 0.43828 0.76831 0.0
C301 C 0.54938 0.42906 0.75452 0.0
C302 C 0.51072 0.36927 0.72726 0.0
C303 C 0.45982 0.37037 0.6652 0.0
C304 C 0.48136 0.37874 0.68654 0.0
C305 C 0.5476 0.40252 0.74451 0.0
C306 C 0.52391 0.39452 0.72549 0.0
H307 H 0.41079 0.39842 0.62106 0.0
H308 H 0.44203 0.41055 0.65945 0.0
H309 H 0.47953 0.34207 0.71013 0.0
H310 H 0.6123 0.38042 0.76658 0.0
H311 H 0.56931 0.36425 0.74271 0.0
C312 C 0.70054 0.55969 0.45531 0.0
C313 C 0.6724 0.56644 0.45757 0.0
C314 C 0.70773 0.53459 0.44498 0.0
C315 C 0.67882 0.47621 0.40567 0.0
H316 H 0.73662 0.43523 0.44581 0.0
C317 C 0.70581 0.35837 0.42598 0.0
C318 C 0.70097 0.34803 0.40003 0.0
C319 C 0.70838 0.38621 0.43026 0.0
C320 C 0.72052 0.44646 0.43432 0.0
H321 H 0.62978 0.55226 0.44995 0.0
H322 H 0.64234 0.50862 0.43219 0.0
H323 H 0.72802 0.48216 0.45793 0.0
H324 H 0.69672 0.35868 0.35812 0.0
H325 H 0.70174 0.40729 0.36557 0.0
H326 H 0.67033 0.44023 0.38291 0.0
C327 C 0.65885 0.5228 0.43818 0.0
C328 C 0.71576 0.47342 0.4411 0.0
C329 C 0.65165 0.54779 0.44858 0.0
C330 C 0.70059 0.36599 0.37835 0.0
C331 C 0.70314 0.39387 0.38263 0.0
C332 C 0.68359 0.44931 0.39887 0.0
C333 C 0.68696 0.51578 0.43653 0.0
C334 C 0.69437 0.48837 0.42726 0.0
C335 C 0.70616 0.40434 0.40867 0.0
C336 C 0.70405 0.43392 0.41352 0.0
H337 H 0.71708 0.57357 0.46196 0.0
H338 H 0.72956 0.52986 0.44373 0.0
H339 H 0.66245 0.48731 0.39439 0.0
H340 H 0.70647 0.34497 0.44306 0.0
H341 H 0.71052 0.39357 0.45059 0.0
C342 C 0.93802 0.21621 0.99694 0.0
C343 C 0.92655 0.19019 0.99282 0.0
C344 C 0.95736 0.2263 0.98013 0.0
C345 C 0.98478 0.21676 0.91437 0.0
H346 H 0.05556 0.23916 0.94974 0.0
C347 C 0.08836 0.19937 0.87048 0.0
C348 C 0.11135 0.21609 0.87759 0.0
C349 C 0.06261 0.20454 0.88022 0.0
C350 C 0.03575 0.23375 0.93939 0.0
H351 H 0.92564 0.15481 0.96721 0.0
H352 H 0.9593 0.17245 0.93793 0.0
H353 H 0.01565 0.23224 0.97579 0.0
H354 H 0.12506 0.25253 0.89863 0.0
H355 H 0.07968 0.26188 0.91561 0.0
H356 H 0.00508 0.21736 0.87808 0.0
C357 C 0.95327 0.18505 0.95412 0.0
C358 C 0.0129 0.22967 0.95438 0.0
C359 C 0.93422 0.17483 0.97107 0.0
C360 C 0.10761 0.23932 0.89295 0.0
C361 C 0.08174 0.24451 0.9028 0.0
C362 C 0.00755 0.22106 0.89934 0.0
C363 C 0.96528 0.21073 0.95866 0.0
C364 C 0.98755 0.22008 0.94215 0.0
C365 C 0.05923 0.22661 0.89729 0.0
C366 C 0.03363 0.22846 0.91185 0.0
H367 H 0.9325 0.22858 0.01349 0.0
H368 H 0.9663 0.24617 0.98402 0.0
H369 H 0.96528 0.20982 0.90442 0.0
H370 H 0.09066 0.18151 0.85836 0.0
H371 H 0.0459 0.19016 0.87574 0.0
C372 C 0.35319 0.37744 0.44487 0.0
C373 C 0.33119 0.3804 0.46137 0.0
C374 C 0.35127 0.38837 0.41929 0.0
C375 C 0.30393 0.42126 0.36675 0.0
H376 H 0.37193 0.45895 0.35256 0.0
C377 C 0.31127 0.50844 0.29 0.0
C378 C 0.3361 0.51069 0.27722 0.0
C379 C 0.30816 0.48793 0.30873 0.0
C380 C 0.35291 0.44814 0.35586 0.0
H381 H 0.28927 0.39571 0.46356 0.0
H382 H 0.28618 0.41574 0.41891 0.0
H383 H 0.37092 0.43157 0.39229 0.0
H384 H 0.37599 0.49198 0.27204 0.0
H385 H 0.37045 0.45596 0.30434 0.0
H386 H 0.28579 0.43891 0.33043 0.0
C387 C 0.30475 0.40452 0.42561 0.0
C388 C 0.35231 0.43236 0.37872 0.0
C389 C 0.30652 0.39314 0.4512 0.0
C390 C 0.35684 0.49093 0.28196 0.0
C391 C 0.35368 0.47039 0.30049 0.0
C392 C 0.3045 0.43723 0.34377 0.0
C393 C 0.32753 0.40303 0.40973 0.0
C394 C 0.32786 0.41872 0.38453 0.0
C395 C 0.32981 0.4693 0.31488 0.0
C396 C 0.32904 0.45087 0.33813 0.0
H397 H 0.37228 0.36728 0.45204 0.0
H398 H 0.36887 0.38612 0.40731 0.0
H399 H 0.2848 0.4109 0.37057 0.0
H400 H 0.29502 0.52351 0.2868 0.0
H401 H 0.28959 0.48772 0.31955 0.0
C402 C 0.05879 0.833 0.91326 0.0
C403 C 0.07402 0.85378 0.92675 0.0
C404 C 0.03958 0.83904 0.89171 0.0
C405 C -0.00136 0.89725 0.86295 0.0
H406 H 0.98154 0.84868 0.80336 0.0
C407 C 0.92375 0.92958 0.77573 0.0
C408 C 0.90066 0.91235 0.77084 0.0
C409 C 0.94752 0.9207 0.79085 0.0
C410 C 0.98619 0.86237 0.81991 0.0
H411 H 0.0825 0.89688 0.92728 0.0
H412 H 0.05016 0.90728 0.8892 0.0
H413 H 0.01852 0.83685 0.83767 0.0
H414 H 0.88528 0.87158 0.7761 0.0
H415 H 0.92721 0.8559 0.80236 0.0
H416 H 0.96665 0.92286 0.84511 0.0
C417 C 0.05193 0.88645 0.89581 0.0
C418 C 0.00722 0.85558 0.83965 0.0
C419 C 0.07064 0.88049 0.91759 0.0
C420 C 0.90278 0.88529 0.77947 0.0
C421 C 0.92673 0.87633 0.79452 0.0
C422 C 0.97804 0.90416 0.84312 0.0
C423 C 0.0356 0.86594 0.88296 0.0
C424 C 0.0137 0.87297 0.86146 0.0
C425 C 0.94882 0.89431 0.80123 0.0
C426 C 0.97157 0.88684 0.82142 0.0
H427 H 0.06098 0.81221 0.91994 0.0
H428 H 0.02724 0.82272 0.88252 0.0
H429 H 0.00231 0.91081 0.87975 0.0
H430 H 0.92293 0.95038 0.76888 0.0
H431 H 0.96448 0.93482 0.79537 0.0
C432 C 0.7966 0.10325 0.94718 0.0
C433 C 0.82387 0.11067 0.95647 0.0
C434 C 0.7912 0.09243 0.92159 0.0
C435 C 0.81954 0.08575 0.85596 0.0
H436 H 0.78678 0.01402 0.85454 0.0
C437 C 0.8463 0.00492 0.78126 0.0
C438 C 0.82786 0.98337 0.77503 0.0
C439 C 0.83918 0.02549 0.79843 0.0
C440 C 0.79525 0.03431 0.8542 0.0
H441 H 0.86657 0.11387 0.94579 0.0
H442 H 0.85707 0.09535 0.90116 0.0
H443 H 0.78645 0.04137 0.89465 0.0
H444 H 0.78644 0.96781 0.78001 0.0
H445 H 0.77355 0.0043 0.80927 0.0
H446 H 0.82892 0.07858 0.81574 0.0
C447 C 0.8399 0.09778 0.91364 0.0
C448 C 0.79513 0.04995 0.8773 0.0
C449 C 0.84538 0.10812 0.9393 0.0
C450 C 0.80114 0.98411 0.78445 0.0
C451 C 0.79389 0.00486 0.8015 0.0
C452 C 0.81934 0.07027 0.83271 0.0
C453 C 0.81288 0.08939 0.90469 0.0
C454 C 0.80821 0.07537 0.87872 0.0
C455 C 0.81327 0.02519 0.80959 0.0
C456 C 0.80821 0.0439 0.8319 0.0
H457 H 0.7796 0.10498 0.95996 0.0
H458 H 0.77019 0.0861 0.91512 0.0
H459 H 0.82943 0.10548 0.85646 0.0
H460 H 0.86687 0.00516 0.77393 0.0
H461 H 0.85479 0.04061 0.80423 0.0
C462 C 0.44421 0.27969 0.51396 0.0
C463 C 0.4347 0.30638 0.50965 0.0
C464 C 0.46722 0.27013 0.50147 0.0
C465 C 0.51031 0.28374 0.44552 0.0
H466 H 0.57003 0.25021 0.4902 0.0
C467 C 0.63494 0.2773 0.44586 0.0
C468 C 0.63731 0.27223 0.41867 0.0
C469 C 0.60946 0.27368 0.45691 0.0
C470 C 0.55346 0.25937 0.47745 0.0
H471 H 0.44136 0.34362 0.48813 0.0
H472 H 0.48136 0.32694 0.46643 0.0
H473 H 0.52561 0.26008 0.50861 0.0
H474 H 0.61532 0.25739 0.38224 0.0
H475 H 0.57115 0.25044 0.4017 0.0
H476 H 0.53839 0.28437 0.41477 0.0
C477 C 0.47098 0.31337 0.47937 0.0
C478 C 0.52798 0.26482 0.4879 0.0
C479 C 0.44817 0.32299 0.49197 0.0
C480 C 0.61429 0.26137 0.40329 0.0
C481 C 0.58886 0.25768 0.41435 0.0
C482 C 0.53568 0.27823 0.43506 0.0
C483 C 0.48095 0.28697 0.48422 0.0
C484 C 0.50644 0.27774 0.47223 0.0
C485 C 0.58587 0.26487 0.44097 0.0
C486 C 0.55779 0.26661 0.45108 0.0
H487 H 0.43432 0.26635 0.52746 0.0
H488 H 0.47438 0.24963 0.50543 0.0
H489 H 0.49396 0.29343 0.4329 0.0
H490 H 0.65242 0.28535 0.45828 0.0
H491 H 0.60786 0.2795 0.47747 0.0
C492 C 0.15033 0.9463 0.95308 0.0
C493 C 0.17242 0.93296 0.9675 0.0
C494 C 0.15459 0.97112 0.94096 0.0
C495 C 0.20825 0.01861 0.91942 0.0
H496 H 0.14753 0.0697 0.92317 0.0
C497 C 0.20549 0.13518 0.8921 0.0
C498 C 0.18135 0.1426 0.87624 0.0
C499 C 0.20886 0.10846 0.90125 0.0
C500 C 0.16462 0.0556 0.92191 0.0
H501 H 0.21658 0.93479 0.97983 0.0
H502 H 0.22391 0.97893 0.95923 0.0
H503 H 0.14463 0.02571 0.94422 0.0
H504 H 0.14334 0.1277 0.85525 0.0
H505 H 0.14911 0.08135 0.87133 0.0
H506 H 0.22833 0.0494 0.89742 0.0
C507 C 0.20336 0.96986 0.95699 0.0
C508 C 0.16292 0.03032 0.93382 0.0
C509 C 0.19915 0.94467 0.96888 0.0
C510 C 0.16189 0.12256 0.86785 0.0
C511 C 0.16519 0.09609 0.87699 0.0
C512 C 0.2101 0.04427 0.9077 0.0
C513 C 0.18096 0.9836 0.9433 0.0
C514 C 0.18435 0.0112 0.93219 0.0
C515 C 0.18809 0.08906 0.89461 0.0
C516 C 0.18795 0.06266 0.90838 0.0
H517 H 0.12961 0.93755 0.95114 0.0
H518 H 0.13704 0.98065 0.92986 0.0
H519 H 0.22512 0.00437 0.91779 0.0
H520 H 0.22076 0.15032 0.89881 0.0
H521 H 0.22667 0.10342 0.91485 0.0
C522 C 0.56752 0.667 0.39495 0.0
C523 C 0.57096 0.64759 0.41542 0.0
C524 C 0.54927 0.66212 0.37235 0.0
C525 C 0.51175 0.60611 0.33556 0.0
H526 H 0.4606 0.66216 0.30889 0.0
C527 C 0.39567 0.61174 0.27987 0.0
C528 C 0.39731 0.58929 0.26307 0.0
C529 C 0.41989 0.62272 0.2928 0.0
C530 C 0.47473 0.64626 0.31608 0.0
H531 H 0.55769 0.60789 0.42808 0.0
H532 H 0.52586 0.59975 0.38931 0.0
H533 H 0.49722 0.67297 0.34362 0.0
H534 H 0.42509 0.56175 0.24492 0.0
H535 H 0.46764 0.58169 0.26635 0.0
H536 H 0.48843 0.57893 0.30964 0.0
C537 C 0.53762 0.61848 0.39029 0.0
C538 C 0.49594 0.65256 0.33579 0.0
C539 C 0.55579 0.62328 0.41272 0.0
C540 C 0.42349 0.57913 0.25783 0.0
C541 C 0.44775 0.59039 0.27036 0.0
C542 C 0.49049 0.59977 0.31612 0.0
C543 C 0.53416 0.63775 0.36976 0.0
C544 C 0.51417 0.63232 0.3463 0.0
C545 C 0.4462 0.61155 0.28894 0.0
C546 C 0.47122 0.61958 0.30657 0.0
H547 H 0.57891 0.68593 0.39634 0.0
H548 H 0.54716 0.67733 0.35682 0.0
H549 H 0.5258 0.59015 0.3428 0.0
H550 H 0.37556 0.61961 0.28437 0.0
H551 H 0.41772 0.63876 0.30713 0.0
C552 C 0.34273 0.45524 0.57293 0.0
C553 C 0.32267 0.43449 0.57049 0.0
C554 C 0.33532 0.48135 0.58014 0.0
C555 C 0.31038 0.53728 0.57722 0.0
H556 H 0.26473 0.55174 0.63574 0.0
C557 C 0.28638 0.6462 0.60434 0.0
C558 C 0.29217 0.65239 0.63143 0.0
C559 C 0.28321 0.61934 0.59604 0.0
C560 C 0.27742 0.54799 0.61929 0.0
H561 H 0.27915 0.42489 0.57457 0.0
H562 H 0.26628 0.47068 0.58718 0.0
H563 H 0.27452 0.5049 0.62362 0.0
H564 H 0.29725 0.63555 0.67126 0.0
H565 H 0.29204 0.58861 0.65681 0.0
H566 H 0.31434 0.58007 0.57339 0.0
C567 C 0.28775 0.46658 0.58351 0.0
C568 C 0.28286 0.5212 0.61225 0.0
C569 C 0.29514 0.44038 0.5762 0.0
C570 C 0.29258 0.63137 0.65026 0.0
C571 C 0.28959 0.60446 0.64195 0.0
C572 C 0.30492 0.56394 0.58418 0.0
C573 C 0.30769 0.48743 0.58513 0.0
C574 C 0.2999 0.51561 0.59149 0.0
C575 C 0.28602 0.59809 0.61466 0.0
C576 C 0.28875 0.56967 0.60556 0.0
H577 H 0.36417 0.45149 0.5689 0.0
H578 H 0.3513 0.49687 0.58176 0.0
H579 H 0.32321 0.53363 0.56085 0.0
H580 H 0.28563 0.66209 0.58946 0.0
H581 H 0.27982 0.61515 0.57492 0.0
C582 C 0.05445 0.82249 0.05781 0.0
C583 C 0.06832 0.80602 0.04033 0.0
C584 C 0.03238 0.81223 0.07113 0.0
C585 C 0.97766 0.76107 0.06364 0.0
H586 H 0.96337 0.78494 0.13463 0.0
C587 C 0.88589 0.76272 0.14299 0.0
C588 C 0.86396 0.77239 0.12545 0.0
C589 C 0.91229 0.75848 0.13401 0.0
C590 C 0.96721 0.77755 0.115 0.0
H591 H 0.0705 0.76544 0.02404 0.0
H592 H 0.03186 0.74759 0.04736 0.0
H593 H 0.00857 0.79382 0.11783 0.0
H594 H 0.85172 0.78293 0.08442 0.0
H595 H 0.89777 0.77589 0.0688 0.0
H596 H 0.936 0.74543 0.06057 0.0
C597 C 0.03801 0.76851 0.05052 0.0
C598 C 0.99301 0.78295 0.10527 0.0
C599 C 0.06021 0.77875 0.03725 0.0
C600 C 0.86836 0.77576 0.09841 0.0
C601 C 0.89469 0.77146 0.08943 0.0
C602 C 0.95182 0.75568 0.07337 0.0
C603 C 0.0236 0.78527 0.06728 0.0
C604 C -0.00182 0.77556 0.07918 0.0
C605 C 0.91719 0.76374 0.10734 0.0
C606 C 0.94601 0.76464 0.09884 0.0
H607 H 0.06017 0.84355 0.06076 0.0
H608 H 0.02147 0.82578 0.08365 0.0
H609 H 0.98097 0.75519 0.04341 0.0
H610 H 0.88313 0.76006 0.16397 0.0
H611 H 0.92915 0.75219 0.14819 0.0
C612 C 0.64457 0.59324 0.5825 0.0
C613 C 0.66505 0.60965 0.57219 0.0
C614 C 0.64801 0.5835 0.60849 0.0
C615 C 0.70078 0.56849 0.66336 0.0
H616 H 0.63447 0.56022 0.70161 0.0
C617 C 0.65605 0.51524 0.76322 0.0
C618 C 0.67013 0.49051 0.76195 0.0
C619 C 0.66063 0.53586 0.74508 0.0
C620 C 0.65347 0.56285 0.69172 0.0
H621 H 0.70535 0.62866 0.58135 0.0
H622 H 0.71123 0.61175 0.62718 0.0
H623 H 0.63193 0.5854 0.66035 0.0
H624 H 0.70103 0.46821 0.74197 0.0
H625 H 0.70826 0.50355 0.70954 0.0
H626 H 0.72238 0.54604 0.69499 0.0
C627 C 0.69259 0.60629 0.61486 0.0
C628 C 0.65184 0.57696 0.66768 0.0
C629 C 0.68919 0.61602 0.58864 0.0
C630 C 0.69015 0.48728 0.74343 0.0
C631 C 0.69432 0.50766 0.7249 0.0
C632 C 0.70251 0.55458 0.68768 0.0
C633 C 0.67193 0.59002 0.6251 0.0
C634 C 0.67516 0.57903 0.65267 0.0
C635 C 0.67878 0.53182 0.72481 0.0
C636 C 0.67862 0.55076 0.70172 0.0
H637 H 0.62581 0.58765 0.57043 0.0
H638 H 0.632 0.57043 0.61542 0.0
H639 H 0.71918 0.56977 0.65235 0.0
H640 H 0.64057 0.51812 0.77747 0.0
H641 H 0.64888 0.55445 0.74617 0.0
C642 C 0.92843 0.16307 0.13168 0.0
C643 C 0.92687 0.14565 0.1095 0.0
C644 C 0.94722 0.15788 0.15378 0.0
C645 C 0.99051 0.10267 0.18558 0.0
H646 H 0.03182 0.16137 0.22131 0.0
C647 C 0.09947 0.11692 0.25406 0.0
C648 C 0.09859 0.09316 0.26917 0.0
C649 C 0.07567 0.1258 0.23879 0.0
C650 C 0.02051 0.14473 0.21152 0.0
H651 H 0.94429 0.10935 0.09309 0.0
H652 H 0.97727 0.10075 0.13108 0.0
H653 H 0.99652 0.17142 0.1852 0.0
H654 H 0.07229 0.06082 0.28167 0.0
H655 H 0.03027 0.0769 0.25607 0.0
H656 H 0.01538 0.07585 0.21063 0.0
C657 C 0.96353 0.11803 0.13182 0.0
C658 C 2e-05 0.15052 0.19099 0.0
C659 C 0.94468 0.12309 0.10988 0.0
C660 C 0.07327 0.0793 0.2702 0.0
C661 C 0.04938 0.08837 0.25527 0.0
C662 C 0.01107 0.09688 0.20588 0.0
C663 C 0.96495 0.13523 0.15414 0.0
C664 C 0.98513 0.12949 0.17743 0.0
C665 C 0.05053 0.11112 0.23852 0.0
C666 C 0.02667 0.11778 0.21889 0.0
H667 H 0.91495 0.18057 0.13212 0.0
H668 H 0.94757 0.17142 0.17071 0.0
H669 H 0.97909 0.08598 0.17597 0.0
H670 H 0.11899 0.12761 0.25274 0.0
H671 H 0.07753 0.1432 0.22598 0.0
C672 C 0.1843 0.74222 0.0418 0.0
C673 C 0.19824 0.76707 0.03967 0.0
C674 C 0.19632 0.72133 0.05745 0.0
C675 C 0.24982 0.70773 0.11261 0.0
H676 H 0.24358 0.63392 0.0866 0.0
C677 C 0.31088 0.61897 0.16397 0.0
C678 C 0.29627 0.59463 0.16652 0.0
C679 C 0.29898 0.64014 0.14861 0.0
C680 C 0.24525 0.65439 0.09425 0.0
H681 H 0.23588 0.78934 0.05244 0.0
H682 H 0.25698 0.75274 0.07941 0.0
H683 H 0.22285 0.67067 0.0595 0.0
H684 H 0.25763 0.5734 0.15577 0.0
H685 H 0.23671 0.61041 0.12881 0.0
H686 H 0.27238 0.6914 0.14731 0.0
C687 C 0.23654 0.74957 0.06926 0.0
C688 C 0.23336 0.67545 0.07874 0.0
C689 C 0.22449 0.77052 0.05366 0.0
C690 C 0.26942 0.59188 0.15376 0.0
C691 C 0.25754 0.613 0.1383 0.0
C692 C 0.26179 0.68666 0.12809 0.0
C693 C 0.22261 0.72472 0.07131 0.0
C694 C 0.23545 0.70237 0.08776 0.0
C695 C 0.2722 0.63736 0.13554 0.0
C696 C 0.25959 0.65976 0.11909 0.0
H697 H 0.16398 0.73886 0.03148 0.0
H698 H 0.18483 0.7026 0.05893 0.0
H699 H 0.25144 0.72818 0.12033 0.0
H700 H 0.33153 0.62153 0.17388 0.0
H701 H 0.31087 0.65857 0.14669 0.0
C702 C 0.67793 0.75453 0.53937 0.0
C703 C 0.69231 0.73038 0.5349 0.0
C704 C 0.68902 0.77346 0.55797 0.0
C705 C 0.75475 0.79417 0.59575 0.0
H706 H 0.70558 0.82527 0.64498 0.0
C707 C 0.79594 0.84776 0.69268 0.0
C708 C 0.78171 0.87085 0.70046 0.0
C709 C 0.78519 0.83224 0.67106 0.0
C710 C 0.71953 0.81707 0.63116 0.0
H711 H 0.7299 0.70749 0.54632 0.0
H712 H 0.74897 0.74031 0.57875 0.0
H713 H 0.68647 0.79549 0.60948 0.0
H714 H 0.74601 0.89674 0.69118 0.0
H715 H 0.72711 0.86966 0.65321 0.0
H716 H 0.78786 0.81549 0.61763 0.0
C717 C 0.72929 0.74477 0.56768 0.0
C718 C 0.70857 0.80002 0.6108 0.0
C719 C 0.71822 0.72585 0.54916 0.0
C720 C 0.75702 0.87868 0.6858 0.0
C721 C 0.74622 0.86316 0.66417 0.0
C722 C 0.7657 0.81122 0.6161 0.0
C723 C 0.71474 0.7687 0.57244 0.0
C724 C 0.7261 0.78814 0.59304 0.0
C725 C 0.7601 0.83966 0.65666 0.0
C726 C 0.74826 0.82264 0.63421 0.0
H727 H 0.65795 0.75873 0.52874 0.0
H728 H 0.67745 0.79185 0.56099 0.0
H729 H 0.76874 0.7857 0.58212 0.0
H730 H 0.81524 0.8416 0.70354 0.0
H731 H 0.79627 0.81414 0.66594 0.0
C732 C 0.81227 0.2087 0.13184 0.0
C733 C 0.80006 0.18863 0.11485 0.0
C734 C 0.80014 0.21597 0.15504 0.0
C735 C 0.7521 0.19253 0.2034 0.0
H736 H 0.74607 0.26909 0.21899 0.0
C737 C 0.68694 0.23398 0.28608 0.0
C738 C 0.69774 0.25624 0.30083 0.0
C739 C 0.70023 0.22459 0.26419 0.0
C740 C 0.74795 0.24762 0.21515 0.0
H741 H 0.76569 0.16016 0.10928 0.0
H742 H 0.74444 0.17303 0.1499 0.0
H743 H 0.76741 0.25478 0.17907 0.0
H744 H 0.73104 0.28574 0.30501 0.0
H745 H 0.75469 0.26911 0.26697 0.0
H746 H 0.73264 0.1854 0.23957 0.0
C747 C 0.76352 0.18298 0.14519 0.0
C748 C 0.76012 0.23943 0.19224 0.0
C749 C 0.77561 0.17573 0.12186 0.0
C750 C 0.72237 0.26858 0.29379 0.0
C751 C 0.73571 0.25917 0.27196 0.0
C752 C 0.73998 0.20073 0.22641 0.0
C753 C 0.77555 0.20333 0.16188 0.0
C754 C 0.76237 0.21182 0.18614 0.0
C755 C 0.72459 0.23729 0.2567 0.0
C756 C 0.73781 0.22838 0.23255 0.0
H757 H 0.83117 0.219 0.12719 0.0
H758 H 0.81011 0.23145 0.16771 0.0
H759 H 0.75384 0.1711 0.19934 0.0
H760 H 0.66792 0.22418 0.29115 0.0
H761 H 0.69097 0.20789 0.2527 0.0
C762 C 0.31338 0.29326 0.64079 0.0
C763 C 0.30138 0.31324 0.62361 0.0
C764 C 0.30354 0.28884 0.66566 0.0
C765 C 0.26581 0.32052 0.71789 0.0
H766 H 0.2605 0.24626 0.74203 0.0
C767 C 0.21858 0.28608 0.81554 0.0
C768 C 0.23232 0.26473 0.82953 0.0
C769 C 0.22772 0.29499 0.79135 0.0
C770 C 0.26221 0.26712 0.73571 0.0
H771 H 0.2694 0.34422 0.6192 0.0
H772 H 0.25189 0.33618 0.66298 0.0
H773 H 0.27262 0.25534 0.69694 0.0
H774 H 0.26659 0.23639 0.82981 0.0
H775 H 0.28292 0.25221 0.78777 0.0
H776 H 0.25513 0.33212 0.7569 0.0
C777 C 0.26915 0.32416 0.65701 0.0
C778 C 0.26904 0.27232 0.70985 0.0
C779 C 0.27902 0.32859 0.63191 0.0
C780 C 0.25599 0.25318 0.81957 0.0
C781 C 0.26508 0.26203 0.79542 0.0
C782 C 0.25881 0.31527 0.74387 0.0
C783 C 0.28134 0.30417 0.67409 0.0
C784 C 0.27142 0.29905 0.70077 0.0
C785 C 0.25048 0.28239 0.78064 0.0
C786 C 0.25743 0.28849 0.75313 0.0
H787 H 0.33066 0.28105 0.63521 0.0
H788 H 0.31371 0.27362 0.6785 0.0
H789 H 0.26768 0.34132 0.71148 0.0
H790 H 0.19991 0.29485 0.82263 0.0
H791 H 0.21596 0.31057 0.78029 0.0
C792 C 0.68722 0.71171 0.40086 0.0
C793 C 0.69688 0.68932 0.41617 0.0
C794 C 0.69773 0.71722 0.37645 0.0
C795 C 0.7306 0.68475 0.32167 0.0
H796 H 0.74352 0.75895 0.30063 0.0
C797 C 0.77252 0.71466 0.22065 0.0
C798 C 0.75969 0.73703 0.20762 0.0
C799 C 0.76618 0.70776 0.24641 0.0
C800 C 0.73977 0.73814 0.30613 0.0
H801 H 0.72561 0.65542 0.41794 0.0
H802 H 0.74411 0.66521 0.37504 0.0
H803 H 0.73175 0.74928 0.34583 0.0
H804 H 0.73067 0.77002 0.21113 0.0
H805 H 0.71916 0.7578 0.25601 0.0
H806 H 0.73835 0.67371 0.28176 0.0
C807 C 0.72822 0.67833 0.38205 0.0
C808 C 0.73311 0.7326 0.33203 0.0
C809 C 0.71777 0.67286 0.40667 0.0
C810 C 0.74043 0.75241 0.22068 0.0
C811 C 0.73413 0.74558 0.24642 0.0
C812 C 0.7373 0.69031 0.2957 0.0
C813 C 0.71815 0.7005 0.36663 0.0
C814 C 0.72798 0.70591 0.33996 0.0
C815 C 0.74719 0.72339 0.25969 0.0
C816 C 0.74148 0.71712 0.28755 0.0
H817 H 0.67119 0.72488 0.40753 0.0
H818 H 0.68926 0.73423 0.3649 0.0
H819 H 0.72648 0.66401 0.32713 0.0
H820 H 0.78791 0.70291 0.2111 0.0
H821 H 0.7768 0.69075 0.25624 0.0
C822 C 0.77472 0.22532 0.98217 0.0
C823 C 0.80083 0.22975 0.99612 0.0
C824 C 0.7639 0.24393 0.96323 0.0
C825 C 0.77024 0.31451 0.94006 0.0
H826 H 0.73662 0.28554 0.87348 0.0
C827 C 0.74271 0.38116 0.84729 0.0
C828 C 0.71751 0.37553 0.83233 0.0
C829 C 0.7525 0.36389 0.86793 0.0
C830 C 0.74563 0.29396 0.89207 0.0
H831 H 0.83569 0.25769 0.00142 0.0
H832 H 0.81685 0.29004 0.96819 0.0
H833 H 0.75416 0.25471 0.90863 0.0
H834 H 0.68207 0.34849 0.82781 0.0
H835 H 0.69907 0.31821 0.86397 0.0
H836 H 0.76182 0.3538 0.92336 0.0
C837 C 0.80466 0.27225 0.97213 0.0
C838 C 0.75567 0.2763 0.91223 0.0
C839 C 0.8155 0.25363 0.99112 0.0
C840 C 0.70186 0.35283 0.83877 0.0
C841 C 0.71164 0.33554 0.85938 0.0
C842 C 0.76019 0.33221 0.91987 0.0
C843 C 0.7789 0.26742 0.95773 0.0
C844 C 0.76806 0.28635 0.93647 0.0
C845 C 0.73714 0.3408 0.8741 0.0
C846 C 0.74776 0.32211 0.89565 0.0
H847 H 0.76272 0.20727 0.98557 0.0
H848 H 0.74377 0.23986 0.9528 0.0
H849 H 0.77938 0.32289 0.95862 0.0
H850 H 0.75488 0.39883 0.84288 0.0
H851 H 0.7723 0.3684 0.87878 0.0
C852 C 0.31518 0.23954 0.50547 0.0
C853 C 0.30177 0.26461 0.50795 0.0
C854 C 0.30257 0.21897 0.48961 0.0
C855 C 0.24832 0.20811 0.43425 0.0
H856 H 0.25087 0.13343 0.45802 0.0
C857 C 0.17955 0.12563 0.38182 0.0
C858 C 0.19207 0.10055 0.37752 0.0
C859 C 0.19347 0.1451 0.39802 0.0
C860 C 0.25022 0.15416 0.451 0.0
H861 H 0.2643 0.28743 0.49586 0.0
H862 H 0.24235 0.25162 0.4687 0.0
H863 H 0.2745 0.16841 0.4857 0.0
H864 H 0.22906 0.0762 0.38617 0.0
H865 H 0.25351 0.11023 0.41468 0.0
H866 H 0.22389 0.19395 0.39969 0.0
C867 C 0.26282 0.24798 0.47859 0.0
C868 C 0.26379 0.17419 0.46683 0.0
C869 C 0.27539 0.26849 0.49435 0.0
C870 C 0.21883 0.09526 0.38958 0.0
C871 C 0.23274 0.1147 0.4059 0.0
C872 C 0.23471 0.18813 0.4185 0.0
C873 C 0.27628 0.22302 0.47589 0.0
C874 C 0.26281 0.20145 0.45873 0.0
C875 C 0.22028 0.13991 0.41015 0.0
C876 C 0.23532 0.16096 0.42677 0.0
H877 H 0.33552 0.23584 0.51559 0.0
H878 H 0.31361 0.20006 0.48776 0.0
H879 H 0.24761 0.22881 0.42714 0.0
H880 H 0.15905 0.13021 0.37243 0.0
H881 H 0.18319 0.16421 0.40111 0.0
C882 C 0.18677 0.79662 0.90434 0.0
C883 C 0.20032 0.81336 0.92392 0.0
C884 C 0.19918 0.79073 0.88094 0.0
C885 C 0.26725 0.78679 0.85335 0.0
H886 H 0.22216 0.78116 0.78621 0.0
C887 C 0.31369 0.75532 0.75558 0.0
C888 C 0.29854 0.73536 0.74079 0.0
C889 C 0.30204 0.76834 0.77668 0.0
C890 C 0.23499 0.78256 0.80483 0.0
H891 H 0.23751 0.83734 0.93395 0.0
H892 H 0.25919 0.82703 0.89286 0.0
H893 H 0.20131 0.79811 0.82556 0.0
H894 H 0.25934 0.71382 0.73567 0.0
H895 H 0.23887 0.73647 0.77266 0.0
H896 H 0.3008 0.77077 0.83269 0.0
C897 C 0.239 0.81833 0.89586 0.0
C898 C 0.22307 0.79226 0.82735 0.0
C899 C 0.22653 0.8243 0.91935 0.0
C900 C 0.27135 0.72911 0.74693 0.0
C901 C 0.25965 0.7422 0.76793 0.0
C902 C 0.27919 0.77714 0.83079 0.0
C903 C 0.22546 0.80142 0.87645 0.0
C904 C 0.23891 0.79394 0.85198 0.0
C905 C 0.27496 0.76177 0.78319 0.0
C906 C 0.26303 0.77442 0.80643 0.0
H907 H 0.16658 0.78781 0.9071 0.0
H908 H 0.18841 0.77726 0.86659 0.0
H909 H 0.27993 0.78758 0.87209 0.0
H910 H 0.33464 0.76061 0.75101 0.0
H911 H 0.3142 0.78355 0.78791 0.0
loop_
_geom_bond_atom_site_label_1
_geom_bond_atom_site_label_2
_geom_bond_distance
_geom_bond_site_symmetry_2
_ccdc_geom_bond_type
Sc0 O3 2.027 . S
Sc0 O10 2.105 1_554 S
Sc0 O13 2.105 . S
Sc0 O16 2.105 . S
Sc0 O19 2.105 1_554 S
Sc1 O3 2.023 1_556 S
Sc1 O11 2.105 . S
Sc1 O15 2.105 1_556 S
Sc1 O17 2.105 1_556 S
Sc1 O21 2.105 . S
Sc2 O3 2.026 . S
Sc2 O12 2.105 1_554 S
Sc2 O14 2.105 . S
Sc2 O18 2.105 . S
Sc2 O20 2.105 1_554 S
O3 Sc0 2.027 . S
O3 Sc1 2.023 1_554 S
O3 Sc2 2.026 . S
C4 O10 1.268 . S
C4 O20 1.268 . S
C5 O11 1.268 . S
C5 O19 1.268 . S
C6 O12 1.268 . S
C6 O21 1.268 . S
C7 O13 1.268 . S
C7 O17 1.268 . S
C8 O14 1.268 . S
C8 O16 1.268 . S
C9 O15 1.268 . S
C9 O18 1.268 . S
O10 Sc0 2.105 1_556 S
O10 C4 1.268 . S
O11 Sc1 2.105 . S
O11 C5 1.268 . S
O12 Sc2 2.105 1_556 S
O12 C6 1.268 . S
O13 Sc0 2.105 . S
O13 C7 1.268 . S
O14 Sc2 2.105 . S
O14 C8 1.268 . S
O15 Sc1 2.105 1_554 S
O15 C9 1.268 . S
O16 Sc0 2.105 . S
O16 C8 1.268 . S
O17 Sc1 2.105 1_554 S
O17 C7 1.268 . S
O18 Sc2 2.105 . S
O18 C9 1.268 . S
O19 Sc0 2.105 1_556 S
O19 C5 1.268 . S
O20 Sc2 2.105 1_556 S
O20 C4 1.268 . S
O21 Sc1 2.105 . S
O21 C6 1.268 . S
Sc22 O25 2.025 . S
Sc22 O32 2.105 . S
Sc22 O35 2.105 . S
Sc22 O38 2.105 . S
Sc22 O41 2.105 . S
Sc23 O25 2.025 . S
Sc23 O33 2.105 . S
Sc23 O37 2.105 . S
Sc23 O39 2.105 . S
Sc23 O43 2.105 . S
Sc24 O25 2.025 . S
Sc24 O34 2.105 . S
Sc24 O36 2.105 . S
Sc24 O40 2.105 . S
Sc24 O42 2.105 . S
O25 Sc22 2.025 . S
O25 Sc23 2.025 . S
O25 Sc24 2.025 . S
C26 O32 1.268 . S
C26 O42 1.268 . S
C27 O33 1.268 . S
C27 O41 1.268 . S
C28 O34 1.268 . S
C28 O43 1.268 . S
C29 O35 1.268 . S
C29 O39 1.268 . S
C30 O36 1.268 . S
C30 O38 1.268 . S
C31 O37 1.268 . S
C31 O40 1.268 . S
O32 Sc22 2.105 . S
O32 C26 1.268 . S
O33 Sc23 2.105 . S
O33 C27 1.268 . S
O34 Sc24 2.105 . S
O34 C28 1.268 . S
O35 Sc22 2.105 . S
O35 C29 1.268 . S
O36 Sc24 2.105 . S
O36 C30 1.268 . S
O37 Sc23 2.105 . S
O37 C31 1.268 . S
O38 Sc22 2.105 . S
O38 C30 1.268 . S
O39 Sc23 2.105 . S
O39 C29 1.268 . S
O40 Sc24 2.105 . S
O40 C31 1.268 . S
O41 Sc22 2.105 . S
O41 C27 1.268 . S
O42 Sc24 2.105 . S
O42 C26 1.268 . S
O43 Sc23 2.105 . S
O43 C28 1.268 . S
Sc44 O47 2.025 . S
Sc44 O54 2.105 . S
Sc44 O57 2.105 . S
Sc44 O60 2.105 . S
Sc44 O63 2.105 . S
Sc45 O47 2.025 . S
Sc45 O55 2.105 . S
Sc45 O59 2.105 . S
Sc45 O61 2.105 . S
Sc45 O65 2.105 1_554 S
Sc46 O47 2.025 . S
Sc46 O56 2.105 1_554 S
Sc46 O58 2.105 . S
Sc46 O62 2.105 . S
Sc46 O64 2.105 . S
O47 Sc44 2.025 . S
O47 Sc45 2.025 . S
O47 Sc46 2.025 . S
C48 O54 1.268 . S
C48 O64 1.268 . S
C49 O55 1.268 . S
C49 O63 1.268 . S
C50 O56 1.268 . S
C50 O65 1.268 . S
C51 O57 1.268 . S
C51 O61 1.268 . S
C52 O58 1.268 . S
C52 O60 1.268 . S
C53 O59 1.268 . S
C53 O62 1.268 . S
O54 Sc44 2.105 . S
O54 C48 1.268 . S
O55 Sc45 2.105 . S
O55 C49 1.268 . S
O56 Sc46 2.105 1_556 S
O56 C50 1.268 . S
O57 Sc44 2.105 . S
O57 C51 1.268 . S
O58 Sc46 2.105 . S
O58 C52 1.268 . S
O59 Sc45 2.105 . S
O59 C53 1.268 . S
O60 Sc44 2.105 . S
O60 C52 1.268 . S
O61 Sc45 2.105 . S
O61 C51 1.268 . S
O62 Sc46 2.105 . S
O62 C53 1.268 . S
O63 Sc44 2.105 . S
O63 C49 1.268 . S
O64 Sc46 2.105 . S
O64 C48 1.268 . S
O65 Sc45 2.105 1_556 S
O65 C50 1.268 . S
Sc66 O69 2.025 . S
Sc66 O76 2.105 . S
Sc66 O79 2.105 . S
Sc66 O82 2.105 . S
Sc66 O85 2.105 . S
Sc67 O69 2.025 . S
Sc67 O77 2.105 . S
Sc67 O81 2.105 . S
Sc67 O83 2.105 . S
Sc67 O87 2.105 . S
Sc68 O69 2.025 . S
Sc68 O78 2.105 . S
Sc68 O80 2.105 . S
Sc68 O84 2.105 . S
Sc68 O86 2.105 . S
O69 Sc66 2.025 . S
O69 Sc67 2.025 . S
O69 Sc68 2.025 . S
C70 O76 1.268 . S
C70 O86 1.268 . S
C71 O77 1.268 . S
C71 O85 1.268 . S
C72 O78 1.268 . S
C72 O87 1.268 . S
C73 O79 1.268 . S
C73 O83 1.268 . S
C74 O80 1.268 . S
C74 O82 1.268 . S
C75 O81 1.268 . S
C75 O84 1.268 . S
O76 Sc66 2.105 . S
O76 C70 1.268 . S
O77 Sc67 2.105 . S
O77 C71 1.268 . S
O78 Sc68 2.105 . S
O78 C72 1.268 . S
O79 Sc66 2.105 . S
O79 C73 1.268 . S
O80 Sc68 2.105 . S
O80 C74 1.268 . S
O81 Sc67 2.105 . S
O81 C75 1.268 . S
O82 Sc66 2.105 . S
O82 C74 1.268 . S
O83 Sc67 2.105 . S
O83 C73 1.268 . S
O84 Sc68 2.105 . S
O84 C75 1.268 . S
O85 Sc66 2.105 . S
O85 C71 1.268 . S
O86 Sc68 2.105 . S
O86 C70 1.268 . S
O87 Sc67 2.105 . S
O87 C72 1.268 . S
H88 C95 0.929 . S
H89 C98 0.930 . S
H90 C100 0.929 . S
H91 C92 0.969 . S
C92 H91 0.969 . S
C92 O93 1.550 . S
C92 H94 0.973 . S
O93 C92 1.550 . S
O93 C99 1.412 . S
H94 C92 0.973 . S
C95 H88 0.929 . S
C95 C96 1.400 . S
C95 C97 1.364 . S
C96 C95 1.400 . S
C96 C100 1.377 . S
C97 C95 1.364 . S
C97 C98 1.374 . S
C98 H89 0.930 . S
C98 C97 1.374 . S
C98 C99 1.383 . S
C99 O93 1.412 . S
C99 C98 1.383 . S
C99 C100 1.394 . S
C100 H90 0.929 . S
C100 C96 1.377 . S
C100 C99 1.394 . S
H101 C108 0.929 . S
H102 C111 0.930 . S
H103 C113 0.929 . S
H104 C105 0.969 . S
C105 H104 0.969 . S
C105 O106 1.550 . S
C105 H107 0.973 . S
O106 C105 1.550 . S
O106 C112 1.412 . S
H107 C105 0.973 . S
C108 H101 0.929 . S
C108 C109 1.400 . S
C108 C110 1.364 . S
C109 C108 1.400 . S
C109 C113 1.377 . S
C110 C108 1.364 . S
C110 C111 1.374 . S
C111 H102 0.930 . S
C111 C110 1.374 . S
C111 C112 1.383 . S
C112 O106 1.412 . S
C112 C111 1.383 . S
C112 C113 1.394 . S
C113 H103 0.929 . S
C113 C109 1.377 . S
C113 C112 1.394 . S
H114 C121 0.929 . S
H115 C124 0.930 . S
H116 C126 0.929 . S
H117 C118 0.969 . S
C118 H117 0.969 . S
C118 O119 1.550 . S
C118 H120 0.973 . S
O119 C118 1.550 . S
O119 C125 1.412 . S
H120 C118 0.973 . S
C121 H114 0.929 . S
C121 C122 1.400 . S
C121 C123 1.364 . S
C122 C121 1.400 . S
C122 C126 1.377 . S
C123 C121 1.364 . S
C123 C124 1.374 . S
C124 H115 0.930 . S
C124 C123 1.374 . S
C124 C125 1.383 . S
C125 O119 1.412 . S
C125 C124 1.383 . S
C125 C126 1.394 . S
C126 H116 0.929 . S
C126 C122 1.377 . S
C126 C125 1.394 . S
H127 C134 0.929 . S
H128 C137 0.930 . S
H129 C139 0.929 . S
H130 C131 0.969 . S
C131 H130 0.969 . S
C131 O132 1.550 . S
C131 H133 0.973 . S
O132 C131 1.550 . S
O132 C138 1.412 . S
H133 C131 0.973 . S
C134 H127 0.929 . S
C134 C135 1.400 . S
C134 C136 1.364 . S
C135 C134 1.400 . S
C135 C139 1.377 . S
C136 C134 1.364 . S
C136 C137 1.374 . S
C137 H128 0.930 . S
C137 C136 1.374 . S
C137 C138 1.383 . S
C138 O132 1.412 . S
C138 C137 1.383 . S
C138 C139 1.394 . S
C139 H129 0.929 . S
C139 C135 1.377 . S
C139 C138 1.394 . S
H140 C147 0.929 . S
H141 C150 0.930 . S
H142 C152 0.929 . S
H143 C144 0.969 . S
C144 H143 0.969 . S
C144 O145 1.550 . S
C144 H146 0.973 . S
O145 C144 1.550 . S
O145 C151 1.412 . S
H146 C144 0.973 . S
C147 H140 0.929 . S
C147 C148 1.400 . S
C147 C149 1.364 . S
C148 C147 1.400 . S
C148 C152 1.377 . S
C149 C147 1.364 . S
C149 C150 1.374 . S
C150 H141 0.930 . S
C150 C149 1.374 . S
C150 C151 1.383 . S
C151 O145 1.412 . S
C151 C150 1.383 . S
C151 C152 1.394 . S
C152 H142 0.929 . S
C152 C148 1.377 . S
C152 C151 1.394 . S
H153 C160 0.929 . S
H154 C163 0.930 . S
H155 C165 0.929 . S
H156 C157 0.969 . S
C157 H156 0.969 . S
C157 O158 1.550 . S
C157 H159 0.973 . S
O158 C157 1.550 . S
O158 C164 1.412 . S
H159 C157 0.973 . S
C160 H153 0.929 . S
C160 C161 1.400 . S
C160 C162 1.364 . S
C161 C160 1.400 . S
C161 C165 1.377 . S
C162 C160 1.364 . S
C162 C163 1.374 . S
C163 H154 0.930 . S
C163 C162 1.374 . S
C163 C164 1.383 . S
C164 O158 1.412 . S
C164 C163 1.383 . S
C164 C165 1.394 . S
C165 H155 0.929 . S
C165 C161 1.377 . S
C165 C164 1.394 . S
H166 C173 0.929 . S
H167 C176 0.930 . S
H168 C178 0.929 . S
H169 C170 0.969 . S
C170 H169 0.969 . S
C170 O171 1.550 . S
C170 H172 0.973 . S
O171 C170 1.550 . S
O171 C177 1.412 . S
H172 C170 0.973 . S
C173 H166 0.929 . S
C173 C174 1.400 . S
C173 C175 1.364 . S
C174 C173 1.400 . S
C174 C178 1.377 . S
C175 C173 1.364 . S
C175 C176 1.374 . S
C176 H167 0.930 . S
C176 C175 1.374 . S
C176 C177 1.383 . S
C177 O171 1.412 . S
C177 C176 1.383 . S
C177 C178 1.394 . S
C178 H168 0.929 . S
C178 C174 1.377 . S
C178 C177 1.394 . S
H179 C186 0.929 . S
H180 C189 0.930 . S
H181 C191 0.929 . S
H182 C183 0.969 . S
C183 H182 0.969 . S
C183 O184 1.550 . S
C183 H185 0.973 . S
O184 C183 1.550 . S
O184 C190 1.412 . S
H185 C183 0.973 . S
C186 H179 0.929 . S
C186 C187 1.400 . S
C186 C188 1.364 . S
C187 C186 1.400 . S
C187 C191 1.377 . S
C188 C186 1.364 . S
C188 C189 1.374 . S
C189 H180 0.930 . S
C189 C188 1.374 . S
C189 C190 1.383 . S
C190 O184 1.412 . S
C190 C189 1.383 . S
C190 C191 1.394 . S
C191 H181 0.929 . S
C191 C187 1.377 . S
C191 C190 1.394 . S
C192 C193 1.349 . S
C192 C194 1.327 . S
C192 H217 0.950 . S
C193 C192 1.349 . S
C193 C209 1.349 . S
C194 C192 1.327 . S
C194 C213 1.429 . S
C194 H218 0.950 . S
C195 C212 1.574 . S
C195 C214 1.368 . S
C195 H219 0.949 . S
H196 C200 0.949 1_545 S
C197 C198 1.349 . S
C197 C199 1.327 . S
C197 H220 0.950 . S
C198 C197 1.349 . S
C198 C210 1.349 . S
C199 C197 1.327 . S
C199 C215 1.429 . S
C199 H221 0.950 1_545 S
C200 H196 0.949 1_565 S
C200 C208 1.574 . S
C200 C216 1.368 . S
H201 C209 0.950 . S
H202 C207 0.950 . S
H203 C208 0.949 . S
H204 C210 0.950 . S
H205 C211 0.950 . S
H206 C212 0.949 . S
C207 H202 0.950 . S
C207 C209 1.327 . S
C207 C213 1.429 . S
C208 C200 1.574 . S
C208 H203 0.949 . S
C208 C214 1.368 . S
C209 C193 1.349 . S
C209 H201 0.950 . S
C209 C207 1.327 . S
C210 C198 1.349 . S
C210 H204 0.950 . S
C210 C211 1.327 . S
C211 H205 0.950 . S
C211 C210 1.327 . S
C211 C215 1.429 . S
C212 C195 1.574 . S
C212 H206 0.949 . S
C212 C216 1.368 . S
C213 C194 1.429 . S
C213 C207 1.429 . S
C213 C214 1.523 . S
C214 C195 1.368 . S
C214 C208 1.368 . S
C214 C213 1.523 . S
C215 C199 1.429 . S
C215 C211 1.429 . S
C215 C216 1.523 1_545 S
C216 C200 1.368 . S
C216 C212 1.368 . S
C216 C215 1.523 1_565 S
H217 C192 0.950 . S
H218 C194 0.950 . S
H219 C195 0.949 . S
H220 C197 0.950 . S
H221 C199 0.950 1_565 S
C222 C223 1.349 . S
C222 C224 1.327 . S
C222 H247 0.950 . S
C223 C222 1.349 . S
C223 C239 1.349 . S
C224 C222 1.327 . S
C224 C243 1.429 . S
C224 H248 0.950 . S
C225 C242 1.574 . S
C225 C244 1.368 . S
C225 H249 0.949 . S
H226 C230 0.949 . S
C227 C228 1.349 . S
C227 C229 1.327 . S
C227 H250 0.950 . S
C228 C227 1.349 . S
C228 C240 1.349 . S
C229 C227 1.327 . S
C229 C245 1.429 . S
C229 H251 0.950 . S
C230 H226 0.949 . S
C230 C238 1.574 . S
C230 C246 1.368 . S
H231 C239 0.950 . S
H232 C237 0.950 . S
H233 C238 0.949 . S
H234 C240 0.950 . S
H235 C241 0.950 . S
H236 C242 0.949 . S
C237 H232 0.950 . S
C237 C239 1.327 . S
C237 C243 1.429 . S
C238 C230 1.574 . S
C238 H233 0.949 . S
C238 C244 1.368 . S
C239 C223 1.349 . S
C239 H231 0.950 . S
C239 C237 1.327 . S
C240 C228 1.349 . S
C240 H234 0.950 . S
C240 C241 1.327 . S
C241 H235 0.950 . S
C241 C240 1.327 . S
C241 C245 1.429 . S
C242 C225 1.574 . S
C242 H236 0.949 . S
C242 C246 1.368 . S
C243 C224 1.429 . S
C243 C237 1.429 . S
C243 C244 1.523 . S
C244 C225 1.368 . S
C244 C238 1.368 . S
C244 C243 1.523 . S
C245 C229 1.429 . S
C245 C241 1.429 . S
C245 C246 1.523 . S
C246 C230 1.368 . S
C246 C242 1.368 . S
C246 C245 1.523 . S
H247 C222 0.950 . S
H248 C224 0.950 . S
H249 C225 0.949 . S
H250 C227 0.950 . S
H251 C229 0.950 . S
C252 C253 1.349 . S
C252 C254 1.327 . S
C252 H277 0.950 . S
C253 C252 1.349 . S
C253 C269 1.349 . S
C254 C252 1.327 . S
C254 C273 1.429 . S
C254 H278 0.950 . S
C255 C272 1.574 . S
C255 C274 1.368 . S
C255 H279 0.949 . S
H256 C260 0.949 . S
C257 C258 1.349 . S
C257 C259 1.327 . S
C257 H280 0.950 . S
C258 C257 1.349 . S
C258 C270 1.349 . S
C259 C257 1.327 . S
C259 C275 1.429 . S
C259 H281 0.950 . S
C260 H256 0.949 . S
C260 C268 1.574 . S
C260 C276 1.368 . S
H261 C269 0.950 . S
H262 C267 0.950 . S
H263 C268 0.949 . S
H264 C270 0.950 . S
H265 C271 0.950 . S
H266 C272 0.949 . S
C267 H262 0.950 . S
C267 C269 1.327 . S
C267 C273 1.429 . S
C268 C260 1.574 . S
C268 H263 0.949 . S
C268 C274 1.368 . S
C269 C253 1.349 . S
C269 H261 0.950 . S
C269 C267 1.327 . S
C270 C258 1.349 . S
C270 H264 0.950 . S
C270 C271 1.327 . S
C271 H265 0.950 . S
C271 C270 1.327 . S
C271 C275 1.429 . S
C272 C255 1.574 . S
C272 H266 0.949 . S
C272 C276 1.368 . S
C273 C254 1.429 . S
C273 C267 1.429 . S
C273 C274 1.523 1_545 S
C274 C255 1.368 . S
C274 C268 1.368 . S
C274 C273 1.523 1_565 S
C275 C259 1.429 . S
C275 C271 1.429 . S
C275 C276 1.523 . S
C276 C260 1.368 . S
C276 C272 1.368 . S
C276 C275 1.523 . S
H277 C252 0.950 . S
H278 C254 0.950 . S
H279 C255 0.949 . S
H280 C257 0.950 . S
H281 C259 0.950 . S
C282 C283 1.349 . S
C282 C284 1.327 . S
C282 H307 0.950 . S
C283 C282 1.349 . S
C283 C299 1.349 . S
C284 C282 1.327 . S
C284 C303 1.429 . S
C284 H308 0.950 . S
C285 C302 1.574 . S
C285 C304 1.368 . S
C285 H309 0.949 . S
H286 C290 0.949 . S
C287 C288 1.349 . S
C287 C289 1.327 . S
C287 H310 0.950 . S
C288 C287 1.349 . S
C288 C300 1.349 . S
C289 C287 1.327 . S
C289 C305 1.429 . S
C289 H311 0.950 . S
C290 H286 0.949 . S
C290 C298 1.574 . S
C290 C306 1.368 . S
H291 C299 0.950 . S
H292 C297 0.950 . S
H293 C298 0.949 . S
H294 C300 0.950 . S
H295 C301 0.950 . S
H296 C302 0.949 . S
C297 H292 0.950 . S
C297 C299 1.327 . S
C297 C303 1.429 . S
C298 C290 1.574 . S
C298 H293 0.949 . S
C298 C304 1.368 . S
C299 C283 1.349 . S
C299 H291 0.950 . S
C299 C297 1.327 . S
C300 C288 1.349 . S
C300 H294 0.950 . S
C300 C301 1.327 . S
C301 H295 0.950 . S
C301 C300 1.327 . S
C301 C305 1.429 . S
C302 C285 1.574 . S
C302 H296 0.949 . S
C302 C306 1.368 . S
C303 C284 1.429 . S
C303 C297 1.429 . S
C303 C304 1.523 . S
C304 C285 1.368 . S
C304 C298 1.368 . S
C304 C303 1.523 . S
C305 C289 1.429 . S
C305 C301 1.429 . S
C305 C306 1.523 . S
C306 C290 1.368 . S
C306 C302 1.368 . S
C306 C305 1.523 . S
H307 C282 0.950 . S
H308 C284 0.950 . S
H309 C285 0.949 . S
H310 C287 0.950 . S
H311 C289 0.950 . S
C312 C313 1.349 . S
C312 C314 1.327 . S
C312 H337 0.950 . S
C313 C312 1.349 . S
C313 C329 1.349 . S
C314 C312 1.327 . S
C314 C333 1.429 . S
C314 H338 0.950 . S
C315 C332 1.574 . S
C315 C334 1.368 . S
C315 H339 0.949 . S
H316 C320 0.949 . S
C317 C318 1.349 . S
C317 C319 1.327 . S
C317 H340 0.950 . S
C318 C317 1.349 . S
C318 C330 1.349 . S
C319 C317 1.327 . S
C319 C335 1.429 . S
C319 H341 0.950 . S
C320 H316 0.949 . S
C320 C328 1.574 . S
C320 C336 1.368 . S
H321 C329 0.950 . S
H322 C327 0.950 . S
H323 C328 0.949 . S
H324 C330 0.950 . S
H325 C331 0.950 . S
H326 C332 0.949 . S
C327 H322 0.950 . S
C327 C329 1.327 . S
C327 C333 1.429 . S
C328 C320 1.574 . S
C328 H323 0.949 . S
C328 C334 1.368 . S
C329 C313 1.349 . S
C329 H321 0.950 . S
C329 C327 1.327 . S
C330 C318 1.349 . S
C330 H324 0.950 . S
C330 C331 1.327 . S
C331 H325 0.950 . S
C331 C330 1.327 . S
C331 C335 1.429 . S
C332 C315 1.574 . S
C332 H326 0.949 . S
C332 C336 1.368 . S
C333 C314 1.429 . S
C333 C327 1.429 . S
C333 C334 1.523 . S
C334 C315 1.368 . S
C334 C328 1.368 . S
C334 C333 1.523 . S
C335 C319 1.429 . S
C335 C331 1.429 . S
C335 C336 1.523 . S
C336 C320 1.368 . S
C336 C332 1.368 . S
C336 C335 1.523 . S
H337 C312 0.950 . S
H338 C314 0.950 . S
H339 C315 0.949 . S
H340 C317 0.950 . S
H341 C319 0.950 . S
C342 C343 1.349 1_554 S
C342 C344 1.327 1_554 S
C342 H367 0.950 . S
C343 C342 1.349 1_556 S
C343 C359 1.349 . S
C344 C342 1.327 1_556 S
C344 C363 1.429 . S
C344 H368 0.950 1_655 S
C345 C362 1.574 . S
C345 C364 1.368 . S
C345 H369 0.949 1_455 S
H346 C350 0.949 . S
C347 C348 1.349 . S
C347 C349 1.327 . S
C347 H370 0.950 . S
C348 C347 1.349 . S
C348 C360 1.349 . S
C349 C347 1.327 . S
C349 C365 1.429 . S
C349 H371 0.950 . S
C350 H346 0.949 . S
C350 C358 1.574 . S
C350 C366 1.368 . S
H351 C359 0.950 . S
H352 C357 0.950 . S
H353 C358 0.949 . S
H354 C360 0.950 . S
H355 C361 0.950 . S
H356 C362 0.949 . S
C357 H352 0.950 . S
C357 C359 1.327 . S
C357 C363 1.429 . S
C358 C350 1.574 . S
C358 H353 0.949 . S
C358 C364 1.368 . S
C359 C343 1.349 . S
C359 H351 0.950 . S
C359 C357 1.327 . S
C360 C348 1.349 . S
C360 H354 0.950 . S
C360 C361 1.327 . S
C361 H355 0.950 . S
C361 C360 1.327 . S
C361 C365 1.429 . S
C362 C345 1.574 . S
C362 H356 0.949 . S
C362 C366 1.368 . S
C363 C344 1.429 . S
C363 C357 1.429 . S
C363 C364 1.523 1_655 S
C364 C345 1.368 . S
C364 C358 1.368 . S
C364 C363 1.523 1_455 S
C365 C349 1.429 . S
C365 C361 1.429 . S
C365 C366 1.523 . S
C366 C350 1.368 . S
C366 C362 1.368 . S
C366 C365 1.523 . S
H367 C342 0.950 . S
H368 C344 0.950 1_455 S
H369 C345 0.949 1_655 S
H370 C347 0.950 . S
H371 C349 0.950 . S
C372 C373 1.349 . S
C372 C374 1.327 . S
C372 H397 0.950 . S
C373 C372 1.349 . S
C373 C389 1.349 . S
C374 C372 1.327 . S
C374 C393 1.429 . S
C374 H398 0.950 . S
C375 C392 1.574 . S
C375 C394 1.368 . S
C375 H399 0.949 . S
H376 C380 0.949 . S
C377 C378 1.349 . S
C377 C379 1.327 . S
C377 H400 0.950 . S
C378 C377 1.349 . S
C378 C390 1.349 . S
C379 C377 1.327 . S
C379 C395 1.429 . S
C379 H401 0.950 . S
C380 H376 0.949 . S
C380 C388 1.574 . S
C380 C396 1.368 . S
H381 C389 0.950 . S
H382 C387 0.950 . S
H383 C388 0.949 . S
H384 C390 0.950 . S
H385 C391 0.950 . S
H386 C392 0.949 . S
C387 H382 0.950 . S
C387 C389 1.327 . S
C387 C393 1.429 . S
C388 C380 1.574 . S
C388 H383 0.949 . S
C388 C394 1.368 . S
C389 C373 1.349 . S
C389 H381 0.950 . S
C389 C387 1.327 . S
C390 C378 1.349 . S
C390 H384 0.950 . S
C390 C391 1.327 . S
C391 H385 0.950 . S
C391 C390 1.327 . S
C391 C395 1.429 . S
C392 C375 1.574 . S
C392 H386 0.949 . S
C392 C396 1.368 . S
C393 C374 1.429 . S
C393 C387 1.429 . S
C393 C394 1.523 . S
C394 C375 1.368 . S
C394 C388 1.368 . S
C394 C393 1.523 . S
C395 C379 1.429 . S
C395 C391 1.429 . S
C395 C396 1.523 . S
C396 C380 1.368 . S
C396 C392 1.368 . S
C396 C395 1.523 . S
H397 C372 0.950 . S
H398 C374 0.950 . S
H399 C375 0.949 . S
H400 C377 0.950 . S
H401 C379 0.950 . S
C402 C403 1.349 . S
C402 C404 1.327 . S
C402 H427 0.950 . S
C403 C402 1.349 . S
C403 C419 1.349 . S
C404 C402 1.327 . S
C404 C423 1.429 . S
C404 H428 0.950 . S
C405 C422 1.574 . S
C405 C424 1.368 . S
C405 H429 0.949 1_655 S
H406 C410 0.949 . S
C407 C408 1.349 . S
C407 C409 1.327 . S
C407 H430 0.950 . S
C408 C407 1.349 . S
C408 C420 1.349 . S
C409 C407 1.327 . S
C409 C425 1.429 . S
C409 H431 0.950 . S
C410 H406 0.949 . S
C410 C418 1.574 . S
C410 C426 1.368 . S
H411 C419 0.950 . S
H412 C417 0.950 . S
H413 C418 0.949 . S
H414 C420 0.950 . S
H415 C421 0.950 . S
H416 C422 0.949 . S
C417 H412 0.950 . S
C417 C419 1.327 . S
C417 C423 1.429 . S
C418 C410 1.574 . S
C418 H413 0.949 . S
C418 C424 1.368 . S
C419 C403 1.349 . S
C419 H411 0.950 . S
C419 C417 1.327 . S
C420 C408 1.349 . S
C420 H414 0.950 . S
C420 C421 1.327 . S
C421 H415 0.950 . S
C421 C420 1.327 . S
C421 C425 1.429 . S
C422 C405 1.574 . S
C422 H416 0.949 . S
C422 C426 1.368 . S
C423 C404 1.429 . S
C423 C417 1.429 . S
C423 C424 1.523 1_455 S
C424 C405 1.368 . S
C424 C418 1.368 . S
C424 C423 1.523 1_655 S
C425 C409 1.429 . S
C425 C421 1.429 . S
C425 C426 1.523 . S
C426 C410 1.368 . S
C426 C422 1.368 . S
C426 C425 1.523 . S
H427 C402 0.950 . S
H428 C404 0.950 . S
H429 C405 0.949 1_455 S
H430 C407 0.950 . S
H431 C409 0.950 . S
C432 C433 1.349 . S
C432 C434 1.327 . S
C432 H457 0.950 . S
C433 C432 1.349 . S
C433 C449 1.349 . S
C434 C432 1.327 . S
C434 C453 1.429 . S
C434 H458 0.950 . S
C435 C452 1.574 . S
C435 C454 1.368 . S
C435 H459 0.949 . S
H436 C440 0.949 . S
C437 C438 1.349 . S
C437 C439 1.327 . S
C437 H460 0.950 . S
C438 C437 1.349 . S
C438 C450 1.349 . S
C439 C437 1.327 . S
C439 C455 1.429 . S
C439 H461 0.950 1_565 S
C440 H436 0.949 . S
C440 C448 1.574 1_565 S
C440 C456 1.368 1_565 S
H441 C449 0.950 . S
H442 C447 0.950 . S
H443 C448 0.949 . S
H444 C450 0.950 . S
H445 C451 0.950 . S
H446 C452 0.949 . S
C447 H442 0.950 . S
C447 C449 1.327 . S
C447 C453 1.429 . S
C448 C440 1.574 1_545 S
C448 H443 0.949 . S
C448 C454 1.368 . S
C449 C433 1.349 . S
C449 H441 0.950 . S
C449 C447 1.327 . S
C450 C438 1.349 . S
C450 H444 0.950 . S
C450 C451 1.327 . S
C451 H445 0.950 . S
C451 C450 1.327 . S
C451 C455 1.429 . S
C452 C435 1.574 . S
C452 H446 0.949 . S
C452 C456 1.368 . S
C453 C434 1.429 . S
C453 C447 1.429 . S
C453 C454 1.523 . S
C454 C435 1.368 . S
C454 C448 1.368 . S
C454 C453 1.523 . S
C455 C439 1.429 . S
C455 C451 1.429 . S
C455 C456 1.523 1_565 S
C456 C440 1.368 1_545 S
C456 C452 1.368 . S
C456 C455 1.523 1_545 S
H457 C432 0.950 . S
H458 C434 0.950 . S
H459 C435 0.949 . S
H460 C437 0.950 . S
H461 C439 0.950 1_545 S
C462 C463 1.349 . S
C462 C464 1.327 . S
C462 H487 0.950 . S
C463 C462 1.349 . S
C463 C479 1.349 . S
C464 C462 1.327 . S
C464 C483 1.429 . S
C464 H488 0.950 . S
C465 C482 1.574 . S
C465 C484 1.368 . S
C465 H489 0.949 . S
H466 C470 0.949 . S
C467 C468 1.349 . S
C467 C469 1.327 . S
C467 H490 0.950 . S
C468 C467 1.349 . S
C468 C480 1.349 . S
C469 C467 1.327 . S
C469 C485 1.429 . S
C469 H491 0.950 . S
C470 H466 0.949 . S
C470 C478 1.574 . S
C470 C486 1.368 . S
H471 C479 0.950 . S
H472 C477 0.950 . S
H473 C478 0.949 . S
H474 C480 0.950 . S
H475 C481 0.950 . S
H476 C482 0.949 . S
C477 H472 0.950 . S
C477 C479 1.327 . S
C477 C483 1.429 . S
C478 C470 1.574 . S
C478 H473 0.949 . S
C478 C484 1.368 . S
C479 C463 1.349 . S
C479 H471 0.950 . S
C479 C477 1.327 . S
C480 C468 1.349 . S
C480 H474 0.950 . S
C480 C481 1.327 . S
C481 H475 0.950 . S
C481 C480 1.327 . S
C481 C485 1.429 . S
C482 C465 1.574 . S
C482 H476 0.949 . S
C482 C486 1.368 . S
C483 C464 1.429 . S
C483 C477 1.429 . S
C483 C484 1.523 . S
C484 C465 1.368 . S
C484 C478 1.368 . S
C484 C483 1.523 . S
C485 C469 1.429 . S
C485 C481 1.429 . S
C485 C486 1.523 . S
C486 C470 1.368 . S
C486 C482 1.368 . S
C486 C485 1.523 . S
H487 C462 0.950 . S
H488 C464 0.950 . S
H489 C465 0.949 . S
H490 C467 0.950 . S
H491 C469 0.950 . S
C492 C493 1.349 . S
C492 C494 1.327 . S
C492 H517 0.950 . S
C493 C492 1.349 . S
C493 C509 1.349 . S
C494 C492 1.327 . S
C494 C513 1.429 . S
C494 H518 0.950 . S
C495 C512 1.574 . S
C495 C514 1.368 . S
C495 H519 0.949 . S
H496 C500 0.949 . S
C497 C498 1.349 . S
C497 C499 1.327 . S
C497 H520 0.950 . S
C498 C497 1.349 . S
C498 C510 1.349 . S
C499 C497 1.327 . S
C499 C515 1.429 . S
C499 H521 0.950 . S
C500 H496 0.949 . S
C500 C508 1.574 . S
C500 C516 1.368 . S
H501 C509 0.950 . S
H502 C507 0.950 . S
H503 C508 0.949 . S
H504 C510 0.950 . S
H505 C511 0.950 . S
H506 C512 0.949 . S
C507 H502 0.950 . S
C507 C509 1.327 . S
C507 C513 1.429 . S
C508 C500 1.574 . S
C508 H503 0.949 . S
C508 C514 1.368 . S
C509 C493 1.349 . S
C509 H501 0.950 . S
C509 C507 1.327 . S
C510 C498 1.349 . S
C510 H504 0.950 . S
C510 C511 1.327 . S
C511 H505 0.950 . S
C511 C510 1.327 . S
C511 C515 1.429 . S
C512 C495 1.574 . S
C512 H506 0.949 . S
C512 C516 1.368 . S
C513 C494 1.429 . S
C513 C507 1.429 . S
C513 C514 1.523 1_565 S
C514 C495 1.368 . S
C514 C508 1.368 . S
C514 C513 1.523 1_545 S
C515 C499 1.429 . S
C515 C511 1.429 . S
C515 C516 1.523 . S
C516 C500 1.368 . S
C516 C512 1.368 . S
C516 C515 1.523 . S
H517 C492 0.950 . S
H518 C494 0.950 . S
H519 C495 0.949 . S
H520 C497 0.950 . S
H521 C499 0.950 . S
C522 C523 1.349 . S
C522 C524 1.327 . S
C522 H547 0.950 . S
C523 C522 1.349 . S
C523 C539 1.349 . S
C524 C522 1.327 . S
C524 C543 1.429 . S
C524 H548 0.950 . S
C525 C542 1.574 . S
C525 C544 1.368 . S
C525 H549 0.949 . S
H526 C530 0.949 . S
C527 C528 1.349 . S
C527 C529 1.327 . S
C527 H550 0.950 . S
C528 C527 1.349 . S
C528 C540 1.349 . S
C529 C527 1.327 . S
C529 C545 1.429 . S
C529 H551 0.950 . S
C530 H526 0.949 . S
C530 C538 1.574 . S
C530 C546 1.368 . S
H531 C539 0.950 . S
H532 C537 0.950 . S
H533 C538 0.949 . S
H534 C540 0.950 . S
H535 C541 0.950 . S
H536 C542 0.949 . S
C537 H532 0.950 . S
C537 C539 1.327 . S
C537 C543 1.429 . S
C538 C530 1.574 . S
C538 H533 0.949 . S
C538 C544 1.368 . S
C539 C523 1.349 . S
C539 H531 0.950 . S
C539 C537 1.327 . S
C540 C528 1.349 . S
C540 H534 0.950 . S
C540 C541 1.327 . S
C541 H535 0.950 . S
C541 C540 1.327 . S
C541 C545 1.429 . S
C542 C525 1.574 . S
C542 H536 0.949 . S
C542 C546 1.368 . S
C543 C524 1.429 . S
C543 C537 1.429 . S
C543 C544 1.523 . S
C544 C525 1.368 . S
C544 C538 1.368 . S
C544 C543 1.523 . S
C545 C529 1.429 . S
C545 C541 1.429 . S
C545 C546 1.523 . S
C546 C530 1.368 . S
C546 C542 1.368 . S
C546 C545 1.523 . S
H547 C522 0.950 . S
H548 C524 0.950 . S
H549 C525 0.949 . S
H550 C527 0.950 . S
H551 C529 0.950 . S
C552 C553 1.349 . S
C552 C554 1.327 . S
C552 H577 0.950 . S
C553 C552 1.349 . S
C553 C569 1.349 . S
C554 C552 1.327 . S
C554 C573 1.429 . S
C554 H578 0.950 . S
C555 C572 1.574 . S
C555 C574 1.368 . S
C555 H579 0.949 . S
H556 C560 0.949 . S
C557 C558 1.349 . S
C557 C559 1.327 . S
C557 H580 0.950 . S
C558 C557 1.349 . S
C558 C570 1.349 . S
C559 C557 1.327 . S
C559 C575 1.429 . S
C559 H581 0.950 . S
C560 H556 0.949 . S
C560 C568 1.574 . S
C560 C576 1.368 . S
H561 C569 0.950 . S
H562 C567 0.950 . S
H563 C568 0.949 . S
H564 C570 0.950 . S
H565 C571 0.950 . S
H566 C572 0.949 . S
C567 H562 0.950 . S
C567 C569 1.327 . S
C567 C573 1.429 . S
C568 C560 1.574 . S
C568 H563 0.949 . S
C568 C574 1.368 . S
C569 C553 1.349 . S
C569 H561 0.950 . S
C569 C567 1.327 . S
C570 C558 1.349 . S
C570 H564 0.950 . S
C570 C571 1.327 . S
C571 H565 0.950 . S
C571 C570 1.327 . S
C571 C575 1.429 . S
C572 C555 1.574 . S
C572 H566 0.949 . S
C572 C576 1.368 . S
C573 C554 1.429 . S
C573 C567 1.429 . S
C573 C574 1.523 . S
C574 C555 1.368 . S
C574 C568 1.368 . S
C574 C573 1.523 . S
C575 C559 1.429 . S
C575 C571 1.429 . S
C575 C576 1.523 . S
C576 C560 1.368 . S
C576 C572 1.368 . S
C576 C575 1.523 . S
H577 C552 0.950 . S
H578 C554 0.950 . S
H579 C555 0.949 . S
H580 C557 0.950 . S
H581 C559 0.950 . S
C582 C583 1.349 . S
C582 C584 1.327 . S
C582 H607 0.950 . S
C583 C582 1.349 . S
C583 C599 1.349 . S
C584 C582 1.327 . S
C584 C603 1.429 . S
C584 H608 0.950 . S
C585 C602 1.574 . S
C585 C604 1.368 . S
C585 H609 0.949 1_655 S
H586 C590 0.949 . S
C587 C588 1.349 . S
C587 C589 1.327 . S
C587 H610 0.950 . S
C588 C587 1.349 . S
C588 C600 1.349 . S
C589 C587 1.327 . S
C589 C605 1.429 . S
C589 H611 0.950 . S
C590 H586 0.949 . S
C590 C598 1.574 . S
C590 C606 1.368 . S
H591 C599 0.950 . S
H592 C597 0.950 . S
H593 C598 0.949 . S
H594 C600 0.950 . S
H595 C601 0.950 . S
H596 C602 0.949 . S
C597 H592 0.950 . S
C597 C599 1.327 . S
C597 C603 1.429 . S
C598 C590 1.574 . S
C598 H593 0.949 . S
C598 C604 1.368 . S
C599 C583 1.349 . S
C599 H591 0.950 . S
C599 C597 1.327 . S
C600 C588 1.349 . S
C600 H594 0.950 . S
C600 C601 1.327 . S
C601 H595 0.950 . S
C601 C600 1.327 . S
C601 C605 1.429 . S
C602 C585 1.574 . S
C602 H596 0.949 . S
C602 C606 1.368 . S
C603 C584 1.429 . S
C603 C597 1.429 . S
C603 C604 1.523 1_455 S
C604 C585 1.368 . S
C604 C598 1.368 . S
C604 C603 1.523 1_655 S
C605 C589 1.429 . S
C605 C601 1.429 . S
C605 C606 1.523 . S
C606 C590 1.368 . S
C606 C602 1.368 . S
C606 C605 1.523 . S
H607 C582 0.950 . S
H608 C584 0.950 . S
H609 C585 0.949 1_455 S
H610 C587 0.950 . S
H611 C589 0.950 . S
C612 C613 1.349 . S
C612 C614 1.327 . S
C612 H637 0.950 . S
C613 C612 1.349 . S
C613 C629 1.349 . S
C614 C612 1.327 . S
C614 C633 1.429 . S
C614 H638 0.950 . S
C615 C632 1.574 . S
C615 C634 1.368 . S
C615 H639 0.949 . S
H616 C620 0.949 . S
C617 C618 1.349 . S
C617 C619 1.327 . S
C617 H640 0.950 . S
C618 C617 1.349 . S
C618 C630 1.349 . S
C619 C617 1.327 . S
C619 C635 1.429 . S
C619 H641 0.950 . S
C620 H616 0.949 . S
C620 C628 1.574 . S
C620 C636 1.368 . S
H621 C629 0.950 . S
H622 C627 0.950 . S
H623 C628 0.949 . S
H624 C630 0.950 . S
H625 C631 0.950 . S
H626 C632 0.949 . S
C627 H622 0.950 . S
C627 C629 1.327 . S
C627 C633 1.429 . S
C628 C620 1.574 . S
C628 H623 0.949 . S
C628 C634 1.368 . S
C629 C613 1.349 . S
C629 H621 0.950 . S
C629 C627 1.327 . S
C630 C618 1.349 . S
C630 H624 0.950 . S
C630 C631 1.327 . S
C631 H625 0.950 . S
C631 C630 1.327 . S
C631 C635 1.429 . S
C632 C615 1.574 . S
C632 H626 0.949 . S
C632 C636 1.368 . S
C633 C614 1.429 . S
C633 C627 1.429 . S
C633 C634 1.523 . S
C634 C615 1.368 . S
C634 C628 1.368 . S
C634 C633 1.523 . S
C635 C619 1.429 . S
C635 C631 1.429 . S
C635 C636 1.523 . S
C636 C620 1.368 . S
C636 C632 1.368 . S
C636 C635 1.523 . S
H637 C612 0.950 . S
H638 C614 0.950 . S
H639 C615 0.949 . S
H640 C617 0.950 . S
H641 C619 0.950 . S
C642 C643 1.349 . S
C642 C644 1.327 . S
C642 H667 0.950 . S
C643 C642 1.349 . S
C643 C659 1.349 . S
C644 C642 1.327 . S
C644 C663 1.429 . S
C644 H668 0.950 . S
C645 C662 1.574 . S
C645 C664 1.368 . S
C645 H669 0.949 . S
H646 C650 0.949 . S
C647 C648 1.349 . S
C647 C649 1.327 . S
C647 H670 0.950 . S
C648 C647 1.349 . S
C648 C660 1.349 . S
C649 C647 1.327 . S
C649 C665 1.429 . S
C649 H671 0.950 . S
C650 H646 0.949 . S
C650 C658 1.574 1_455 S
C650 C666 1.368 . S
H651 C659 0.950 . S
H652 C657 0.959 . S
H653 C658 0.949 . S
H654 C660 0.950 . S
H655 C661 0.950 . S
H656 C662 0.949 . S
C657 H652 0.959 . S
C657 C659 1.327 . S
C657 C663 1.429 . S
C658 C650 1.574 1_655 S
C658 H653 0.949 . S
C658 C664 1.368 1_655 S
C659 C643 1.349 . S
C659 H651 0.950 . S
C659 C657 1.327 . S
C660 C648 1.349 . S
C660 H654 0.950 . S
C660 C661 1.327 . S
C661 H655 0.950 . S
C661 C660 1.327 . S
C661 C665 1.429 . S
C662 C645 1.574 . S
C662 H656 0.949 . S
C662 C666 1.368 . S
C663 C644 1.429 . S
C663 C657 1.429 . S
C663 C664 1.523 1_655 S
C664 C645 1.368 . S
C664 C658 1.368 1_455 S
C664 C663 1.523 1_455 S
C665 C649 1.429 . S
C665 C661 1.429 . S
C665 C666 1.523 . S
C666 C650 1.368 . S
C666 C662 1.368 . S
C666 C665 1.523 . S
H667 C642 0.950 . S
H668 C644 0.950 . S
H669 C645 0.949 . S
H670 C647 0.950 . S
H671 C649 0.950 . S
C672 C673 1.349 . S
C672 C674 1.327 . S
C672 H697 0.950 . S
C673 C672 1.349 . S
C673 C689 1.349 . S
C674 C672 1.327 . S
C674 C693 1.429 . S
C674 H698 0.950 . S
C675 C692 1.574 . S
C675 C694 1.368 . S
C675 H699 0.949 . S
H676 C680 0.949 . S
C677 C678 1.349 . S
C677 C679 1.327 . S
C677 H700 0.950 . S
C678 C677 1.349 . S
C678 C690 1.349 . S
C679 C677 1.327 . S
C679 C695 1.429 . S
C679 H701 0.950 . S
C680 H676 0.949 . S
C680 C688 1.574 . S
C680 C696 1.368 . S
H681 C689 0.950 . S
H682 C687 0.950 . S
H683 C688 0.949 . S
H684 C690 0.950 . S
H685 C691 0.950 . S
H686 C692 0.949 . S
C687 H682 0.950 . S
C687 C689 1.327 . S
C687 C693 1.429 . S
C688 C680 1.574 . S
C688 H683 0.949 . S
C688 C694 1.368 . S
C689 C673 1.349 . S
C689 H681 0.950 . S
C689 C687 1.327 . S
C690 C678 1.349 . S
C690 H684 0.950 . S
C690 C691 1.327 . S
C691 H685 0.950 . S
C691 C690 1.327 . S
C691 C695 1.429 . S
C692 C675 1.574 . S
C692 H686 0.949 . S
C692 C696 1.368 . S
C693 C674 1.429 . S
C693 C687 1.429 . S
C693 C694 1.523 . S
C694 C675 1.368 . S
C694 C688 1.368 . S
C694 C693 1.523 . S
C695 C679 1.429 . S
C695 C691 1.429 . S
C695 C696 1.523 . S
C696 C680 1.368 . S
C696 C692 1.368 . S
C696 C695 1.523 . S
H697 C672 0.950 . S
H698 C674 0.950 . S
H699 C675 0.949 . S
H700 C677 0.950 . S
H701 C679 0.950 . S
C702 C703 1.349 . S
C702 C704 1.327 . S
C702 H727 0.950 . S
C703 C702 1.349 . S
C703 C719 1.349 . S
C704 C702 1.327 . S
C704 C723 1.429 . S
C704 H728 0.950 . S
C705 C722 1.574 . S
C705 C724 1.368 . S
C705 H729 0.949 . S
H706 C710 0.949 . S
C707 C708 1.349 . S
C707 C709 1.327 . S
C707 H730 0.950 . S
C708 C707 1.349 . S
C708 C720 1.349 . S
C709 C707 1.327 . S
C709 C725 1.429 . S
C709 H731 0.950 . S
C710 H706 0.949 . S
C710 C718 1.574 . S
C710 C726 1.368 . S
H711 C719 0.950 . S
H712 C717 0.950 . S
H713 C718 0.949 . S
H714 C720 0.950 . S
H715 C721 0.950 . S
H716 C722 0.949 . S
C717 H712 0.950 . S
C717 C719 1.327 . S
C717 C723 1.429 . S
C718 C710 1.574 . S
C718 H713 0.949 . S
C718 C724 1.368 . S
C719 C703 1.349 . S
C719 H711 0.950 . S
C719 C717 1.327 . S
C720 C708 1.349 . S
C720 H714 0.950 . S
C720 C721 1.327 . S
C721 H715 0.950 . S
C721 C720 1.327 . S
C721 C725 1.429 . S
C722 C705 1.574 . S
C722 H716 0.949 . S
C722 C726 1.368 . S
C723 C704 1.429 . S
C723 C717 1.429 . S
C723 C724 1.523 . S
C724 C705 1.368 . S
C724 C718 1.368 . S
C724 C723 1.523 . S
C725 C709 1.429 . S
C725 C721 1.429 . S
C725 C726 1.523 . S
C726 C710 1.368 . S
C726 C722 1.368 . S
C726 C725 1.523 . S
H727 C702 0.950 . S
H728 C704 0.950 . S
H729 C705 0.949 . S
H730 C707 0.950 . S
H731 C709 0.950 . S
C732 C733 1.349 . S
C732 C734 1.327 . S
C732 H757 0.950 . S
C733 C732 1.349 . S
C733 C749 1.349 . S
C734 C732 1.327 . S
C734 C753 1.429 . S
C734 H758 0.950 . S
C735 C752 1.574 . S
C735 C754 1.368 . S
C735 H759 0.949 . S
H736 C740 0.949 . S
C737 C738 1.349 . S
C737 C739 1.327 . S
C737 H760 0.950 . S
C738 C737 1.349 . S
C738 C750 1.349 . S
C739 C737 1.327 . S
C739 C755 1.429 . S
C739 H761 0.950 . S
C740 H736 0.949 . S
C740 C748 1.574 . S
C740 C756 1.368 . S
H741 C749 0.950 . S
H742 C747 0.950 . S
H743 C748 0.949 . S
H744 C750 0.950 . S
H745 C751 0.950 . S
H746 C752 0.949 . S
C747 H742 0.950 . S
C747 C749 1.327 . S
C747 C753 1.429 . S
C748 C740 1.574 . S
C748 H743 0.949 . S
C748 C754 1.368 . S
C749 C733 1.349 . S
C749 H741 0.950 . S
C749 C747 1.327 . S
C750 C738 1.349 . S
C750 H744 0.950 . S
C750 C751 1.327 . S
C751 H745 0.950 . S
C751 C750 1.327 . S
C751 C755 1.429 . S
C752 C735 1.574 . S
C752 H746 0.949 . S
C752 C756 1.368 . S
C753 C734 1.429 . S
C753 C747 1.429 . S
C753 C754 1.523 . S
C754 C735 1.368 . S
C754 C748 1.368 . S
C754 C753 1.523 . S
C755 C739 1.429 . S
C755 C751 1.429 . S
C755 C756 1.523 . S
C756 C740 1.368 . S
C756 C752 1.368 . S
C756 C755 1.523 . S
H757 C732 0.950 . S
H758 C734 0.950 . S
H759 C735 0.949 . S
H760 C737 0.950 . S
H761 C739 0.950 . S
C762 C763 1.349 . S
C762 C764 1.327 . S
C762 H787 0.950 . S
C763 C762 1.349 . S
C763 C779 1.349 . S
C764 C762 1.327 . S
C764 C783 1.429 . S
C764 H788 0.950 . S
C765 C782 1.574 . S
C765 C784 1.368 . S
C765 H789 0.949 . S
H766 C770 0.949 . S
C767 C768 1.349 . S
C767 C769 1.327 . S
C767 H790 0.950 . S
C768 C767 1.349 . S
C768 C780 1.349 . S
C769 C767 1.327 . S
C769 C785 1.429 . S
C769 H791 0.950 . S
C770 H766 0.949 . S
C770 C778 1.574 . S
C770 C786 1.368 . S
H771 C779 0.950 . S
H772 C777 0.950 . S
H773 C778 0.949 . S
H774 C780 0.950 . S
H775 C781 0.950 . S
H776 C782 0.949 . S
C777 H772 0.950 . S
C777 C779 1.327 . S
C777 C783 1.429 . S
C778 C770 1.574 . S
C778 H773 0.949 . S
C778 C784 1.368 . S
C779 C763 1.349 . S
C779 H771 0.950 . S
C779 C777 1.327 . S
C780 C768 1.349 . S
C780 H774 0.950 . S
C780 C781 1.327 . S
C781 H775 0.950 . S
C781 C780 1.327 . S
C781 C785 1.429 . S
C782 C765 1.574 . S
C782 H776 0.949 . S
C782 C786 1.368 . S
C783 C764 1.429 . S
C783 C777 1.429 . S
C783 C784 1.523 . S
C784 C765 1.368 . S
C784 C778 1.368 . S
C784 C783 1.523 . S
C785 C769 1.429 . S
C785 C781 1.429 . S
C785 C786 1.523 . S
C786 C770 1.368 . S
C786 C782 1.368 . S
C786 C785 1.523 . S
H787 C762 0.950 . S
H788 C764 0.950 . S
H789 C765 0.949 . S
H790 C767 0.950 . S
H791 C769 0.950 . S
C792 C793 1.349 . S
C792 C794 1.327 . S
C792 H817 0.950 . S
C793 C792 1.349 . S
C793 C809 1.349 . S
C794 C792 1.327 . S
C794 C813 1.429 . S
C794 H818 0.950 . S
C795 C812 1.574 . S
C795 C814 1.368 . S
C795 H819 0.949 . S
H796 C800 0.949 . S
C797 C798 1.349 . S
C797 C799 1.327 . S
C797 H820 0.950 . S
C798 C797 1.349 . S
C798 C810 1.349 . S
C799 C797 1.327 . S
C799 C815 1.429 . S
C799 H821 0.950 . S
C800 H796 0.949 . S
C800 C808 1.574 . S
C800 C816 1.368 . S
H801 C809 0.950 . S
H802 C807 0.950 . S
H803 C808 0.949 . S
H804 C810 0.950 . S
H805 C811 0.950 . S
H806 C812 0.949 . S
C807 H802 0.950 . S
C807 C809 1.327 . S
C807 C813 1.429 . S
C808 C800 1.574 . S
C808 H803 0.949 . S
C808 C814 1.368 . S
C809 C793 1.349 . S
C809 H801 0.950 . S
C809 C807 1.327 . S
C810 C798 1.349 . S
C810 H804 0.950 . S
C810 C811 1.327 . S
C811 H805 0.950 . S
C811 C810 1.327 . S
C811 C815 1.429 . S
C812 C795 1.574 . S
C812 H806 0.949 . S
C812 C816 1.368 . S
C813 C794 1.429 . S
C813 C807 1.429 . S
C813 C814 1.523 . S
C814 C795 1.368 . S
C814 C808 1.368 . S
C814 C813 1.523 . S
C815 C799 1.429 . S
C815 C811 1.429 . S
C815 C816 1.523 . S
C816 C800 1.368 . S
C816 C812 1.368 . S
C816 C815 1.523 . S
H817 C792 0.950 . S
H818 C794 0.950 . S
H819 C795 0.949 . S
H820 C797 0.950 . S
H821 C799 0.950 . S
C822 C823 1.349 . S
C822 C824 1.327 . S
C822 H847 0.950 . S
C823 C822 1.349 . S
C823 C839 1.349 . S
C824 C822 1.327 . S
C824 C843 1.429 . S
C824 H848 0.950 . S
C825 C842 1.574 . S
C825 C844 1.368 . S
C825 H849 0.949 . S
H826 C830 0.949 . S
C827 C828 1.349 . S
C827 C829 1.327 . S
C827 H850 0.950 . S
C828 C827 1.349 . S
C828 C840 1.349 . S
C829 C827 1.327 . S
C829 C845 1.429 . S
C829 H851 0.950 . S
C830 H826 0.949 . S
C830 C838 1.574 . S
C830 C846 1.368 . S
H831 C839 0.950 1_554 S
H832 C837 0.950 . S
H833 C838 0.949 . S
H834 C840 0.950 . S
H835 C841 0.950 . S
H836 C842 0.949 . S
C837 H832 0.950 . S
C837 C839 1.327 . S
C837 C843 1.429 . S
C838 C830 1.574 . S
C838 H833 0.949 . S
C838 C844 1.368 . S
C839 C823 1.349 . S
C839 H831 0.950 1_556 S
C839 C837 1.327 . S
C840 C828 1.349 . S
C840 H834 0.950 . S
C840 C841 1.327 . S
C841 H835 0.950 . S
C841 C840 1.327 . S
C841 C845 1.429 . S
C842 C825 1.574 . S
C842 H836 0.949 . S
C842 C846 1.368 . S
C843 C824 1.429 . S
C843 C837 1.429 . S
C843 C844 1.523 . S
C844 C825 1.368 . S
C844 C838 1.368 . S
C844 C843 1.523 . S
C845 C829 1.429 . S
C845 C841 1.429 . S
C845 C846 1.523 . S
C846 C830 1.368 . S
C846 C842 1.368 . S
C846 C845 1.523 . S
H847 C822 0.950 . S
H848 C824 0.950 . S
H849 C825 0.949 . S
H850 C827 0.950 . S
H851 C829 0.950 . S
C852 C853 1.349 . S
C852 C854 1.327 . S
C852 H877 0.950 . S
C853 C852 1.349 . S
C853 C869 1.349 . S
C854 C852 1.327 . S
C854 C873 1.429 . S
C854 H878 0.950 . S
C855 C872 1.574 . S
C855 C874 1.368 . S
C855 H879 0.949 . S
H856 C860 0.949 . S
C857 C858 1.349 . S
C857 C859 1.327 . S
C857 H880 0.950 . S
C858 C857 1.349 . S
C858 C870 1.349 . S
C859 C857 1.327 . S
C859 C875 1.429 . S
C859 H881 0.950 . S
C860 H856 0.949 . S
C860 C868 1.574 . S
C860 C876 1.368 . S
H861 C869 0.950 . S
H862 C867 0.950 . S
H863 C868 0.949 . S
H864 C870 0.950 . S
H865 C871 0.950 . S
H866 C872 0.949 . S
C867 H862 0.950 . S
C867 C869 1.327 . S
C867 C873 1.429 . S
C868 C860 1.574 . S
C868 H863 0.949 . S
C868 C874 1.368 . S
C869 C853 1.349 . S
C869 H861 0.950 . S
C869 C867 1.327 . S
C870 C858 1.349 . S
C870 H864 0.950 . S
C870 C871 1.327 . S
C871 H865 0.950 . S
C871 C870 1.327 . S
C871 C875 1.429 . S
C872 C855 1.574 . S
C872 H866 0.949 . S
C872 C876 1.368 . S
C873 C854 1.429 . S
C873 C867 1.429 . S
C873 C874 1.523 . S
C874 C855 1.368 . S
C874 C868 1.368 . S
C874 C873 1.523 . S
C875 C859 1.429 . S
C875 C871 1.429 . S
C875 C876 1.523 . S
C876 C860 1.368 . S
C876 C872 1.368 . S
C876 C875 1.523 . S
H877 C852 0.950 . S
H878 C854 0.950 . S
H879 C855 0.949 . S
H880 C857 0.950 . S
H881 C859 0.950 . S
C882 C883 1.349 . S
C882 C884 1.327 . S
C882 H907 0.950 . S
C883 C882 1.349 . S
C883 C899 1.349 . S
C884 C882 1.327 . S
C884 C903 1.429 . S
C884 H908 0.950 . S
C885 C902 1.574 . S
C885 C904 1.368 . S
C885 H909 0.949 . S
H886 C890 0.949 . S
C887 C888 1.349 . S
C887 C889 1.327 . S
C887 H910 0.950 . S
C888 C887 1.349 . S
C888 C900 1.349 . S
C889 C887 1.327 . S
C889 C905 1.429 . S
C889 H911 0.950 . S
C890 H886 0.949 . S
C890 C898 1.574 . S
C890 C906 1.368 . S
H891 C899 0.950 . S
H892 C897 0.950 . S
H893 C898 0.949 . S
H894 C900 0.950 . S
H895 C901 0.950 . S
H896 C902 0.949 . S
C897 H892 0.950 . S
C897 C899 1.327 . S
C897 C903 1.429 . S
C898 C890 1.574 . S
C898 H893 0.949 . S
C898 C904 1.368 . S
C899 C883 1.349 . S
C899 H891 0.950 . S
C899 C897 1.327 . S
C900 C888 1.349 . S
C900 H894 0.950 . S
C900 C901 1.327 . S
C901 H895 0.950 . S
C901 C900 1.327 . S
C901 C905 1.429 . S
C902 C885 1.574 . S
C902 H896 0.949 . S
C902 C906 1.368 . S
C903 C884 1.429 . S
C903 C897 1.429 . S
C903 C904 1.523 . S
C904 C885 1.368 . S
C904 C898 1.368 . S
C904 C903 1.523 . S
C905 C889 1.429 . S
C905 C901 1.429 . S
C905 C906 1.523 . S
C906 C890 1.368 . S
C906 C902 1.368 . S
C906 C905 1.523 . S
H907 C882 0.950 . S
H908 C884 0.950 . S
H909 C885 0.949 . S
H910 C887 0.950 . S
H911 C889 0.950 . S
C193 C8 1.237 . S
C198 C96 1.212 . S
C223 C31 1.141 . S
C228 C109 1.130 . S
C253 C53 1.372 . S
C258 C123 1.352 . S
C288 C136 1.293 . S
C283 C74 1.316 . S
C318 C148 1.211 . S
C313 C26 1.205 . S
C343 C48 1.361 1_556 S
C348 C162 1.312 . S
C373 C71 1.184 . S
C378 C174 1.160 . S
C403 C5 1.316 . S
C408 C188 1.294 . S
C433 C50 1.184 . S
C438 C187 1.156 . S
C468 C149 1.310 . S
C463 C70 1.362 . S
C498 C161 1.214 . S
C493 C4 1.205 . S
C523 C28 1.316 . S
C528 C175 1.296 . S
C558 C110 1.351 . S
C553 C73 1.372 . S
C583 C7 1.141 . S
C588 C122 1.133 . S
C618 C135 1.208 . S
C613 C30 1.237 . S
C648 C97 1.295 . S
C643 C52 1.316 . S
C678 C170 1.267 . S
C673 C9 1.307 . S
C708 C183 1.230 . S
C703 C29 1.307 . S
C733 C51 1.364 . S
C738 C144 1.317 . S
C768 C157 1.353 . S
C763 C75 1.364 . S
C798 C118 1.265 . S
C793 C27 1.299 . S
C823 C49 1.363 1_556 S
C828 C131 1.282 . S
C858 C92 1.320 . S
C853 C72 1.363 . S
C888 C105 1.230 . S
C883 C6 1.299 . S
