# Generated by pormake.
# Topology tbo, (3,4)-cn, num edge types: 1
# Building blocks:
#     Node 0, Type 0, BuildingBlock: MIDCAF_clean_linker_0, # of connection points: 3
#     Node 1, Type 0, BuildingBlock: MIDCAF_clean_linker_0, # of connection points: 3
#     Node 2, Type 0, BuildingBlock: MIDCAF_clean_linker_0, # of connection points: 3
#     Node 3, Type 0, BuildingBlock: MIDCAF_clean_linker_0, # of connection points: 3
#     Node 4, Type 0, BuildingBlock: MIDCAF_clean_linker_0, # of connection points: 3
#     Node 5, Type 0, BuildingBlock: MIDCAF_clean_linker_0, # of connection points: 3
#     Node 6, Type 0, BuildingBlock: MIDCAF_clean_linker_0, # of connection points: 3
#     Node 7, Type 0, BuildingBlock: MIDCAF_clean_linker_0, # of connection points: 3
#     Node 8, Type 0, BuildingBlock: MIDCAF_clean_linker_0, # of connection points: 3
#     Node 9, Type 0, BuildingBlock: MIDCAF_clean_linker_0, # of connection points: 3
#     Node 10, Type 0, BuildingBlock: MIDCAF_clean_linker_0, # of connection points: 3
#     Node 11, Type 0, BuildingBlock: MIDCAF_clean_linker_0, # of connection points: 3
#     Node 12, Type 0, BuildingBlock: MIDCAF_clean_linker_0, # of connection points: 3
#     Node 13, Type 0, BuildingBlock: MIDCAF_clean_linker_0, # of connection points: 3
#     Node 14, Type 0, BuildingBlock: MIDCAF_clean_linker_0, # of connection points: 3
#     Node 15, Type 0, BuildingBlock: MIDCAF_clean_linker_0, # of connection points: 3
#     Node 16, Type 0, BuildingBlock: MIDCAF_clean_linker_0, # of connection points: 3
#     Node 17, Type 0, BuildingBlock: MIDCAF_clean_linker_0, # of connection points: 3
#     Node 18, Type 0, BuildingBlock: MIDCAF_clean_linker_0, # of connection points: 3
#     Node 19, Type 0, BuildingBlock: MIDCAF_clean_linker_0, # of connection points: 3
#     Node 20, Type 0, BuildingBlock: MIDCAF_clean_linker_0, # of connection points: 3
#     Node 21, Type 0, BuildingBlock: MIDCAF_clean_linker_0, # of connection points: 3
#     Node 22, Type 0, BuildingBlock: MIDCAF_clean_linker_0, # of connection points: 3
#     Node 23, Type 0, BuildingBlock: MIDCAF_clean_linker_0, # of connection points: 3
#     Node 24, Type 0, BuildingBlock: MIDCAF_clean_linker_0, # of connection points: 3
#     Node 25, Type 0, BuildingBlock: MIDCAF_clean_linker_0, # of connection points: 3
#     Node 26, Type 0, BuildingBlock: MIDCAF_clean_linker_0, # of connection points: 3
#     Node 27, Type 0, BuildingBlock: MIDCAF_clean_linker_0, # of connection points: 3
#     Node 28, Type 0, BuildingBlock: MIDCAF_clean_linker_0, # of connection points: 3
#     Node 29, Type 0, BuildingBlock: MIDCAF_clean_linker_0, # of connection points: 3
#     Node 30, Type 0, BuildingBlock: MIDCAF_clean_linker_0, # of connection points: 3
#     Node 31, Type 0, BuildingBlock: MIDCAF_clean_linker_0, # of connection points: 3
#     Node 32, Type 1, BuildingBlock: ESEHIV_clean_sbu_0, # of connection points: 4
#     Node 33, Type 1, BuildingBlock: ESEHIV_clean_sbu_0, # of connection points: 4
#     Node 34, Type 1, BuildingBlock: ESEHIV_clean_sbu_0, # of connection points: 4
#     Node 35, Type 1, BuildingBlock: ESEHIV_clean_sbu_0, # of connection points: 4
#     Node 36, Type 1, BuildingBlock: ESEHIV_clean_sbu_0, # of connection points: 4
#     Node 37, Type 1, BuildingBlock: ESEHIV_clean_sbu_0, # of connection points: 4
#     Node 38, Type 1, BuildingBlock: ESEHIV_clean_sbu_0, # of connection points: 4
#     Node 39, Type 1, BuildingBlock: ESEHIV_clean_sbu_0, # of connection points: 4
#     Node 40, Type 1, BuildingBlock: ESEHIV_clean_sbu_0, # of connection points: 4
#     Node 41, Type 1, BuildingBlock: ESEHIV_clean_sbu_0, # of connection points: 4
#     Node 42, Type 1, BuildingBlock: ESEHIV_clean_sbu_0, # of connection points: 4
#     Node 43, Type 1, BuildingBlock: ESEHIV_clean_sbu_0, # of connection points: 4
#     Node 44, Type 1, BuildingBlock: ESEHIV_clean_sbu_0, # of connection points: 4
#     Node 45, Type 1, BuildingBlock: ESEHIV_clean_sbu_0, # of connection points: 4
#     Node 46, Type 1, BuildingBlock: ESEHIV_clean_sbu_0, # of connection points: 4
#     Node 47, Type 1, BuildingBlock: ESEHIV_clean_sbu_0, # of connection points: 4
#     Node 48, Type 1, BuildingBlock: ESEHIV_clean_sbu_0, # of connection points: 4
#     Node 49, Type 1, BuildingBlock: ESEHIV_clean_sbu_0, # of connection points: 4
#     Node 50, Type 1, BuildingBlock: ESEHIV_clean_sbu_0, # of connection points: 4
#     Node 51, Type 1, BuildingBlock: ESEHIV_clean_sbu_0, # of connection points: 4
#     Node 52, Type 1, BuildingBlock: ESEHIV_clean_sbu_0, # of connection points: 4
#     Node 53, Type 1, BuildingBlock: ESEHIV_clean_sbu_0, # of connection points: 4
#     Node 54, Type 1, BuildingBlock: ESEHIV_clean_sbu_0, # of connection points: 4
#     Node 55, Type 1, BuildingBlock: ESEHIV_clean_sbu_0, # of connection points: 4
#     Edge 56, Type (0, 1), BuildingBlock: ZUJKAS_clean_linker_0, # of connection points: 2
#     Edge 57, Type (0, 1), BuildingBlock: ZUJKAS_clean_linker_0, # of connection points: 2
#     Edge 58, Type (0, 1), BuildingBlock: ZUJKAS_clean_linker_0, # of connection points: 2
#     Edge 59, Type (0, 1), BuildingBlock: ZUJKAS_clean_linker_0, # of connection points: 2
#     Edge 60, Type (0, 1), BuildingBlock: ZUJKAS_clean_linker_0, # of connection points: 2
#     Edge 61, Type (0, 1), BuildingBlock: ZUJKAS_clean_linker_0, # of connection points: 2
#     Edge 62, Type (0, 1), BuildingBlock: ZUJKAS_clean_linker_0, # of connection points: 2
#     Edge 63, Type (0, 1), BuildingBlock: ZUJKAS_clean_linker_0, # of connection points: 2
#     Edge 64, Type (0, 1), BuildingBlock: ZUJKAS_clean_linker_0, # of connection points: 2
#     Edge 65, Type (0, 1), BuildingBlock: ZUJKAS_clean_linker_0, # of connection points: 2
#     Edge 66, Type (0, 1), BuildingBlock: ZUJKAS_clean_linker_0, # of connection points: 2
#     Edge 67, Type (0, 1), BuildingBlock: ZUJKAS_clean_linker_0, # of connection points: 2
#     Edge 68, Type (0, 1), BuildingBlock: ZUJKAS_clean_linker_0, # of connection points: 2
#     Edge 69, Type (0, 1), BuildingBlock: ZUJKAS_clean_linker_0, # of connection points: 2
#     Edge 70, Type (0, 1), BuildingBlock: ZUJKAS_clean_linker_0, # of connection points: 2
#     Edge 71, Type (0, 1), BuildingBlock: ZUJKAS_clean_linker_0, # of connection points: 2
#     Edge 72, Type (0, 1), BuildingBlock: ZUJKAS_clean_linker_0, # of connection points: 2
#     Edge 73, Type (0, 1), BuildingBlock: ZUJKAS_clean_linker_0, # of connection points: 2
#     Edge 74, Type (0, 1), BuildingBlock: ZUJKAS_clean_linker_0, # of connection points: 2
#     Edge 75, Type (0, 1), BuildingBlock: ZUJKAS_clean_linker_0, # of connection points: 2
#     Edge 76, Type (0, 1), BuildingBlock: ZUJKAS_clean_linker_0, # of connection points: 2
#     Edge 77, Type (0, 1), BuildingBlock: ZUJKAS_clean_linker_0, # of connection points: 2
#     Edge 78, Type (0, 1), BuildingBlock: ZUJKAS_clean_linker_0, # of connection points: 2
#     Edge 79, Type (0, 1), BuildingBlock: ZUJKAS_clean_linker_0, # of connection points: 2
#     Edge 80, Type (0, 1), BuildingBlock: ZUJKAS_clean_linker_0, # of connection points: 2
#     Edge 81, Type (0, 1), BuildingBlock: ZUJKAS_clean_linker_0, # of connection points: 2
#     Edge 82, Type (0, 1), BuildingBlock: ZUJKAS_clean_linker_0, # of connection points: 2
#     Edge 83, Type (0, 1), BuildingBlock: ZUJKAS_clean_linker_0, # of connection points: 2
#     Edge 84, Type (0, 1), BuildingBlock: ZUJKAS_clean_linker_0, # of connection points: 2
#     Edge 85, Type (0, 1), BuildingBlock: ZUJKAS_clean_linker_0, # of connection points: 2
#     Edge 86, Type (0, 1), BuildingBlock: ZUJKAS_clean_linker_0, # of connection points: 2
#     Edge 87, Type (0, 1), BuildingBlock: ZUJKAS_clean_linker_0, # of connection points: 2
#     Edge 88, Type (0, 1), BuildingBlock: ZUJKAS_clean_linker_0, # of connection points: 2
#     Edge 89, Type (0, 1), BuildingBlock: ZUJKAS_clean_linker_0, # of connection points: 2
#     Edge 90, Type (0, 1), BuildingBlock: ZUJKAS_clean_linker_0, # of connection points: 2
#     Edge 91, Type (0, 1), BuildingBlock: ZUJKAS_clean_linker_0, # of connection points: 2
#     Edge 92, Type (0, 1), BuildingBlock: ZUJKAS_clean_linker_0, # of connection points: 2
#     Edge 93, Type (0, 1), BuildingBlock: ZUJKAS_clean_linker_0, # of connection points: 2
#     Edge 94, Type (0, 1), BuildingBlock: ZUJKAS_clean_linker_0, # of connection points: 2
#     Edge 95, Type (0, 1), BuildingBlock: ZUJKAS_clean_linker_0, # of connection points: 2
#     Edge 96, Type (0, 1), BuildingBlock: ZUJKAS_clean_linker_0, # of connection points: 2
#     Edge 97, Type (0, 1), BuildingBlock: ZUJKAS_clean_linker_0, # of connection points: 2
#     Edge 98, Type (0, 1), BuildingBlock: ZUJKAS_clean_linker_0, # of connection points: 2
#     Edge 99, Type (0, 1), BuildingBlock: ZUJKAS_clean_linker_0, # of connection points: 2
#     Edge 100, Type (0, 1), BuildingBlock: ZUJKAS_clean_linker_0, # of connection points: 2
#     Edge 101, Type (0, 1), BuildingBlock: ZUJKAS_clean_linker_0, # of connection points: 2
#     Edge 102, Type (0, 1), BuildingBlock: ZUJKAS_clean_linker_0, # of connection points: 2
#     Edge 103, Type (0, 1), BuildingBlock: ZUJKAS_clean_linker_0, # of connection points: 2
#     Edge 104, Type (0, 1), BuildingBlock: ZUJKAS_clean_linker_0, # of connection points: 2
#     Edge 105, Type (0, 1), BuildingBlock: ZUJKAS_clean_linker_0, # of connection points: 2
#     Edge 106, Type (0, 1), BuildingBlock: ZUJKAS_clean_linker_0, # of connection points: 2
#     Edge 107, Type (0, 1), BuildingBlock: ZUJKAS_clean_linker_0, # of connection points: 2
#     Edge 108, Type (0, 1), BuildingBlock: ZUJKAS_clean_linker_0, # of connection points: 2
#     Edge 109, Type (0, 1), BuildingBlock: ZUJKAS_clean_linker_0, # of connection points: 2
#     Edge 110, Type (0, 1), BuildingBlock: ZUJKAS_clean_linker_0, # of connection points: 2
#     Edge 111, Type (0, 1), BuildingBlock: ZUJKAS_clean_linker_0, # of connection points: 2
#     Edge 112, Type (0, 1), BuildingBlock: ZUJKAS_clean_linker_0, # of connection points: 2
#     Edge 113, Type (0, 1), BuildingBlock: ZUJKAS_clean_linker_0, # of connection points: 2
#     Edge 114, Type (0, 1), BuildingBlock: ZUJKAS_clean_linker_0, # of connection points: 2
#     Edge 115, Type (0, 1), BuildingBlock: ZUJKAS_clean_linker_0, # of connection points: 2
#     Edge 116, Type (0, 1), BuildingBlock: ZUJKAS_clean_linker_0, # of connection points: 2
#     Edge 117, Type (0, 1), BuildingBlock: ZUJKAS_clean_linker_0, # of connection points: 2
#     Edge 118, Type (0, 1), BuildingBlock: ZUJKAS_clean_linker_0, # of connection points: 2
#     Edge 119, Type (0, 1), BuildingBlock: ZUJKAS_clean_linker_0, # of connection points: 2
#     Edge 120, Type (0, 1), BuildingBlock: ZUJKAS_clean_linker_0, # of connection points: 2
#     Edge 121, Type (0, 1), BuildingBlock: ZUJKAS_clean_linker_0, # of connection points: 2
#     Edge 122, Type (0, 1), BuildingBlock: ZUJKAS_clean_linker_0, # of connection points: 2
#     Edge 123, Type (0, 1), BuildingBlock: ZUJKAS_clean_linker_0, # of connection points: 2
#     Edge 124, Type (0, 1), BuildingBlock: ZUJKAS_clean_linker_0, # of connection points: 2
#     Edge 125, Type (0, 1), BuildingBlock: ZUJKAS_clean_linker_0, # of connection points: 2
#     Edge 126, Type (0, 1), BuildingBlock: ZUJKAS_clean_linker_0, # of connection points: 2
#     Edge 127, Type (0, 1), BuildingBlock: ZUJKAS_clean_linker_0, # of connection points: 2
#     Edge 128, Type (0, 1), BuildingBlock: ZUJKAS_clean_linker_0, # of connection points: 2
#     Edge 129, Type (0, 1), BuildingBlock: ZUJKAS_clean_linker_0, # of connection points: 2
#     Edge 130, Type (0, 1), BuildingBlock: ZUJKAS_clean_linker_0, # of connection points: 2
#     Edge 131, Type (0, 1), BuildingBlock: ZUJKAS_clean_linker_0, # of connection points: 2
#     Edge 132, Type (0, 1), BuildingBlock: ZUJKAS_clean_linker_0, # of connection points: 2
#     Edge 133, Type (0, 1), BuildingBlock: ZUJKAS_clean_linker_0, # of connection points: 2
#     Edge 134, Type (0, 1), BuildingBlock: ZUJKAS_clean_linker_0, # of connection points: 2
#     Edge 135, Type (0, 1), BuildingBlock: ZUJKAS_clean_linker_0, # of connection points: 2
#     Edge 136, Type (0, 1), BuildingBlock: ZUJKAS_clean_linker_0, # of connection points: 2
#     Edge 137, Type (0, 1), BuildingBlock: ZUJKAS_clean_linker_0, # of connection points: 2
#     Edge 138, Type (0, 1), BuildingBlock: ZUJKAS_clean_linker_0, # of connection points: 2
#     Edge 139, Type (0, 1), BuildingBlock: ZUJKAS_clean_linker_0, # of connection points: 2
#     Edge 140, Type (0, 1), BuildingBlock: ZUJKAS_clean_linker_0, # of connection points: 2
#     Edge 141, Type (0, 1), BuildingBlock: ZUJKAS_clean_linker_0, # of connection points: 2
#     Edge 142, Type (0, 1), BuildingBlock: ZUJKAS_clean_linker_0, # of connection points: 2
#     Edge 143, Type (0, 1), BuildingBlock: ZUJKAS_clean_linker_0, # of connection points: 2
#     Edge 144, Type (0, 1), BuildingBlock: ZUJKAS_clean_linker_0, # of connection points: 2
#     Edge 145, Type (0, 1), BuildingBlock: ZUJKAS_clean_linker_0, # of connection points: 2
#     Edge 146, Type (0, 1), BuildingBlock: ZUJKAS_clean_linker_0, # of connection points: 2
#     Edge 147, Type (0, 1), BuildingBlock: ZUJKAS_clean_linker_0, # of connection points: 2
#     Edge 148, Type (0, 1), BuildingBlock: ZUJKAS_clean_linker_0, # of connection points: 2
#     Edge 149, Type (0, 1), BuildingBlock: ZUJKAS_clean_linker_0, # of connection points: 2
#     Edge 150, Type (0, 1), BuildingBlock: ZUJKAS_clean_linker_0, # of connection points: 2
#     Edge 151, Type (0, 1), BuildingBlock: ZUJKAS_clean_linker_0, # of connection points: 2
# Relax obj value: 0.001
# Max RMSD: 0.115
# Mean RMSD: 0.046
data_MOF--net-tbo--node1-ESEHIV_clean_sbu_0--node2-MIDCAF_clean_linker_0--edge1-ZUJKAS_clean_linker_0
_symmetry_space_group_name_H-M    P1
_symmetry_Int_Tables_number       1
_symmetry_cell_setting            triclinic
loop_
_symmetry_equiv_pos_as_xyz
'x, y, z'
_cell_length_a     112.64968
_cell_length_b     112.75027
_cell_length_c     112.70304
_cell_angle_alpha  89.913257
_cell_angle_beta   91.744705
_cell_angle_gamma 90.635826
loop_
_atom_site_label
_atom_site_type_symbol
_atom_site_fract_x
_atom_site_fract_y
_atom_site_fract_z
_atom_type_partial_charge
C0 C 0.14191 0.2047 0.18695 0.0
C1 C 0.13561 0.20001 0.19649 0.0
C2 C 0.13935 0.18922 0.20158 0.0
C3 C 0.14916 0.18328 0.19723 0.0
H4 H 0.16954 0.15381 0.20215 0.0
H5 H 0.17588 0.13524 0.21111 0.0
H6 H 0.20326 0.13227 0.18529 0.0
H7 H 0.19709 0.15106 0.17643 0.0
H8 H 0.19763 0.17111 0.15458 0.0
H9 H 0.20743 0.18064 0.13788 0.0
H10 H 0.18929 0.21326 0.14509 0.0
H11 H 0.17962 0.20391 0.16165 0.0
H12 H 0.15627 0.20269 0.17523 0.0
H13 H 0.13917 0.21289 0.1827 0.0
H14 H 0.13477 0.18543 0.20902 0.0
H15 H 0.1518 0.17502 0.20139 0.0
N16 N 0.16946 0.17122 0.1876 0.0
N17 N 0.18489 0.17046 0.17406 0.0
N18 N 0.17193 0.18659 0.17392 0.0
C19 C 0.17895 0.16549 0.18322 0.0
C20 C 0.18142 0.18106 0.16939 0.0
C21 C 0.16587 0.18176 0.18298 0.0
C22 C 0.18279 0.154 0.18853 0.0
C23 C 0.17691 0.14923 0.19833 0.0
C24 C 0.18051 0.13851 0.20345 0.0
C25 C 0.19007 0.13221 0.19892 0.0
C26 C 0.19595 0.13695 0.18911 0.0
C27 C 0.19236 0.14771 0.18398 0.0
C28 C 0.1878 0.18672 0.15947 0.0
C29 C 0.1958 0.18034 0.15263 0.0
C30 C 0.20137 0.18577 0.14303 0.0
C31 C 0.19917 0.19772 0.14019 0.0
C32 C 0.1913 0.2041 0.14713 0.0
C33 C 0.18568 0.19867 0.1566 0.0
C34 C 0.15547 0.188 0.18769 0.0
C35 C 0.1517 0.19878 0.18262 0.0
C36 C 0.84078 0.13805 0.20388 0.0
C37 C 0.82929 0.13424 0.20037 0.0
C38 C 0.82329 0.14043 0.19117 0.0
C39 C 0.82861 0.15028 0.18575 0.0
H40 H 0.82564 0.17451 0.15713 0.0
H41 H 0.81733 0.18435 0.13953 0.0
H42 H 0.84746 0.20838 0.13957 0.0
H43 H 0.85563 0.19878 0.15726 0.0
H44 H 0.87592 0.19729 0.17741 0.0
H45 H 0.89428 0.20456 0.18706 0.0
H46 H 0.89048 0.17848 0.21484 0.0
H47 H 0.87239 0.17105 0.20514 0.0
H48 H 0.85492 0.15048 0.20157 0.0
H49 H 0.84581 0.13337 0.21072 0.0
H50 H 0.81439 0.1378 0.18829 0.0
H51 H 0.8237 0.15492 0.1788 0.0
N52 N 0.84101 0.17022 0.17428 0.0
N53 N 0.85669 0.18419 0.17476 0.0
N54 N 0.85597 0.16925 0.18916 0.0
C55 C 0.84645 0.17992 0.16952 0.0
C56 C 0.8615 0.17891 0.18461 0.0
C57 C 0.84577 0.16482 0.18411 0.0
C58 C 0.84133 0.18583 0.1587 0.0
C59 C 0.83051 0.1819 0.15341 0.0
C60 C 0.82575 0.18751 0.14325 0.0
C61 C 0.83169 0.1972 0.13809 0.0
C62 C 0.84252 0.20109 0.14337 0.0
C63 C 0.84726 0.1955 0.15352 0.0
C64 C 0.87264 0.18354 0.19044 0.0
C65 C 0.879 0.19309 0.18557 0.0
C66 C 0.88951 0.19731 0.19114 0.0
C67 C 0.89391 0.19209 0.20172 0.0
C68 C 0.8875 0.18259 0.2066 0.0
C69 C 0.87704 0.17837 0.20104 0.0
C70 C 0.84004 0.15419 0.18945 0.0
C71 C 0.84606 0.14787 0.19854 0.0
C72 C 0.8362 0.82452 0.13818 0.0
C73 C 0.82594 0.82869 0.13215 0.0
C74 C 0.81968 0.83805 0.13722 0.0
C75 C 0.82362 0.84318 0.14795 0.0
H76 H 0.81615 0.86999 0.17054 0.0
H77 H 0.80577 0.88714 0.17794 0.0
H78 H 0.83092 0.88962 0.20755 0.0
H79 H 0.84148 0.87258 0.20006 0.0
H80 H 0.8628 0.8543 0.20205 0.0
H81 H 0.8804 0.84671 0.2125 0.0
H82 H 0.88342 0.81949 0.18588 0.0
H83 H 0.86574 0.8269 0.17553 0.0
H84 H 0.84814 0.82627 0.15324 0.0
H85 H 0.84131 0.81742 0.13449 0.0
H86 H 0.81164 0.84136 0.13296 0.0
H87 H 0.81854 0.85037 0.15152 0.0
N88 N 0.83237 0.85415 0.16972 0.0
N89 N 0.84603 0.85525 0.18581 0.0
N90 N 0.84801 0.84064 0.17121 0.0
C91 C 0.83619 0.85947 0.17998 0.0
C92 C 0.852 0.84582 0.1815 0.0
C93 C 0.8382 0.84474 0.16525 0.0
C94 C 0.82972 0.86985 0.18466 0.0
C95 C 0.8195 0.87415 0.17864 0.0
C96 C 0.81347 0.88398 0.18293 0.0
C97 C 0.81749 0.8898 0.19335 0.0
C98 C 0.82766 0.88547 0.19941 0.0
C99 C 0.83369 0.87563 0.19513 0.0
C100 C 0.86278 0.84124 0.18791 0.0
C101 C 0.86719 0.84669 0.19841 0.0
C102 C 0.87735 0.84237 0.20438 0.0
C103 C 0.88336 0.83247 0.20006 0.0
C104 C 0.87894 0.82702 0.18958 0.0
C105 C 0.86881 0.83134 0.18359 0.0
C106 C 0.83394 0.8391 0.15393 0.0
C107 C 0.84015 0.82966 0.14893 0.0
C108 C 0.13371 0.82391 0.18888 0.0
C109 C 0.1291 0.81349 0.18355 0.0
C110 C 0.13461 0.80911 0.17344 0.0
C111 C 0.14444 0.81499 0.16878 0.0
H112 H 0.16919 0.81263 0.14197 0.0
H113 H 0.17928 0.8053 0.12456 0.0
H114 H 0.20261 0.83596 0.12576 0.0
H115 H 0.19253 0.84336 0.14284 0.0
H116 H 0.18846 0.86361 0.15952 0.0
H117 H 0.19714 0.88146 0.16815 0.0
H118 H 0.17774 0.87546 0.20013 0.0
H119 H 0.1687 0.85757 0.1913 0.0
H120 H 0.14676 0.83783 0.18856 0.0
H121 H 0.1296 0.82764 0.19658 0.0
H122 H 0.1314 0.80103 0.16919 0.0
H123 H 0.14842 0.81131 0.161 0.0
N124 N 0.16468 0.82744 0.15924 0.0
N125 N 0.17813 0.84341 0.15963 0.0
N126 N 0.1637 0.842 0.17411 0.0
C127 C 0.17407 0.83323 0.15449 0.0
C128 C 0.17306 0.84789 0.1694 0.0
C129 C 0.15941 0.83177 0.16904 0.0
C130 C 0.17999 0.82861 0.14385 0.0
C131 C 0.17644 0.81782 0.13849 0.0
C132 C 0.18226 0.81359 0.12854 0.0
C133 C 0.19172 0.82007 0.12371 0.0
C134 C 0.19523 0.83083 0.12909 0.0
C135 C 0.18946 0.83504 0.13899 0.0
C136 C 0.17792 0.85905 0.17474 0.0
C137 C 0.186 0.86603 0.1684 0.0
C138 C 0.19107 0.87628 0.17339 0.0
C139 C 0.1883 0.87985 0.18492 0.0
C140 C 0.18003 0.87302 0.19121 0.0
C141 C 0.17488 0.86274 0.18616 0.0
C142 C 0.14904 0.82544 0.17409 0.0
C143 C 0.14353 0.8298 0.18422 0.0
C144 C 0.13363 0.80849 0.82957 0.0
C145 C 0.12782 0.81457 0.82022 0.0
C146 C 0.13247 0.82562 0.81668 0.0
C147 C 0.14271 0.83043 0.82232 0.0
H148 H 0.16849 0.85848 0.82096 0.0
H149 H 0.17833 0.87693 0.81503 0.0
H150 H 0.20354 0.87335 0.84441 0.0
H151 H 0.19373 0.8552 0.85044 0.0
H152 H 0.1938 0.83371 0.86682 0.0
H153 H 0.20205 0.82346 0.88412 0.0
H154 H 0.17376 0.79735 0.8814 0.0
H155 H 0.16559 0.80745 0.8639 0.0
H156 H 0.14794 0.80829 0.84241 0.0
H157 H 0.13022 0.80006 0.83268 0.0
H158 H 0.12827 0.8305 0.80944 0.0
H159 H 0.14605 0.83894 0.81934 0.0
N160 N 0.16452 0.83962 0.83422 0.0
N161 N 0.17897 0.83806 0.8496 0.0
N162 N 0.16409 0.82353 0.8475 0.0
C163 C 0.1744 0.84405 0.84005 0.0
C164 C 0.1739 0.82782 0.8534 0.0
C165 C 0.15931 0.82932 0.83792 0.0
C166 C 0.18025 0.85529 0.83621 0.0
C167 C 0.17612 0.86164 0.82617 0.0
C168 C 0.1818 0.8722 0.82273 0.0
C169 C 0.1917 0.87669 0.82928 0.0
C170 C 0.19582 0.87031 0.83927 0.0
C171 C 0.1902 0.85979 0.84268 0.0
C172 C 0.17899 0.82146 0.86392 0.0
C173 C 0.18931 0.82578 0.86987 0.0
C174 C 0.19402 0.81993 0.87986 0.0
C175 C 0.18854 0.8096 0.88422 0.0
C176 C 0.17828 0.80521 0.87822 0.0
C177 C 0.17356 0.81106 0.86821 0.0
C178 C 0.1485 0.82433 0.8317 0.0
C179 C 0.1438 0.81329 0.83522 0.0
C180 C 0.16117 0.20363 0.84843 0.0
C181 C 0.1532 0.19852 0.84002 0.0
C182 C 0.15551 0.18708 0.83578 0.0
C183 C 0.16557 0.18091 0.83982 0.0
H184 H 0.18606 0.15257 0.83191 0.0
H185 H 0.19175 0.13476 0.82152 0.0
H186 H 0.2218 0.13069 0.84586 0.0
H187 H 0.21625 0.14872 0.85618 0.0
H188 H 0.22031 0.16799 0.8775 0.0
H189 H 0.23146 0.17578 0.89478 0.0
H190 H 0.20727 0.20514 0.89641 0.0
H191 H 0.19632 0.19757 0.87914 0.0
H192 H 0.17709 0.20166 0.85907 0.0
H193 H 0.15959 0.21238 0.85196 0.0
H194 H 0.1496 0.18293 0.82921 0.0
H195 H 0.16706 0.17213 0.83633 0.0
N196 N 0.18748 0.16928 0.84724 0.0
N197 N 0.20366 0.16737 0.86073 0.0
N198 N 0.19072 0.18346 0.86218 0.0
C199 C 0.1972 0.1632 0.85116 0.0
C200 C 0.20045 0.17752 0.86631 0.0
C201 C 0.18417 0.17941 0.85268 0.0
C202 C 0.20069 0.15216 0.84493 0.0
C203 C 0.1939 0.14792 0.8351 0.0
C204 C 0.19712 0.13762 0.82914 0.0
C205 C 0.20723 0.13124 0.83283 0.0
C206 C 0.21404 0.13545 0.84266 0.0
C207 C 0.2108 0.14577 0.84864 0.0
C208 C 0.20739 0.18213 0.87684 0.0
C209 C 0.21738 0.17613 0.88152 0.0
C210 C 0.22376 0.18056 0.89148 0.0
C211 C 0.22033 0.19114 0.89699 0.0
C212 C 0.21033 0.1971 0.8923 0.0
C213 C 0.20398 0.19268 0.8824 0.0
C214 C 0.17353 0.18599 0.8483 0.0
C215 C 0.17118 0.19743 0.85256 0.0
C216 C 0.84167 0.14254 0.81358 0.0
C217 C 0.83194 0.1381 0.81983 0.0
C218 C 0.8291 0.14354 0.83057 0.0
C219 C 0.83578 0.15316 0.83496 0.0
H220 H 0.83688 0.17565 0.86217 0.0
H221 H 0.82997 0.18488 0.88009 0.0
H222 H 0.85705 0.21209 0.87749 0.0
H223 H 0.86396 0.20292 0.85935 0.0
H224 H 0.88335 0.19996 0.83948 0.0
H225 H 0.90113 0.20712 0.82998 0.0
H226 H 0.89616 0.18067 0.80255 0.0
H227 H 0.87845 0.17329 0.81218 0.0
H228 H 0.85584 0.15537 0.81298 0.0
H229 H 0.84415 0.13849 0.80532 0.0
H230 H 0.82156 0.14049 0.83552 0.0
H231 H 0.83323 0.1571 0.84325 0.0
N232 N 0.849 0.17337 0.84359 0.0
N233 N 0.86489 0.18686 0.84266 0.0
N234 N 0.8623 0.1721 0.82807 0.0
C235 C 0.8551 0.18281 0.84823 0.0
C236 C 0.86858 0.18155 0.83258 0.0
C237 C 0.85248 0.16795 0.83355 0.0
C238 C 0.85102 0.18851 0.85925 0.0
C239 C 0.84141 0.1836 0.86536 0.0
C240 C 0.83747 0.18886 0.87572 0.0
C241 C 0.84298 0.1992 0.88026 0.0
C242 C 0.85255 0.20417 0.87416 0.0
C243 C 0.85655 0.19887 0.8638 0.0
C244 C 0.87939 0.18602 0.82663 0.0
C245 C 0.88599 0.19564 0.83142 0.0
C246 C 0.89619 0.19982 0.82591 0.0
C247 C 0.90009 0.19452 0.81545 0.0
C248 C 0.89351 0.18489 0.81066 0.0
C249 C 0.88329 0.1807 0.81617 0.0
C250 C 0.84553 0.15763 0.82875 0.0
C251 C 0.8484 0.15219 0.818 0.0
C252 C 0.81768 0.85904 0.8703 0.0
C253 C 0.8206 0.84776 0.8748 0.0
C254 C 0.82913 0.8411 0.86892 0.0
C255 C 0.83453 0.84558 0.85879 0.0
H256 H 0.86251 0.83959 0.83576 0.0
H257 H 0.87964 0.83024 0.82695 0.0
H258 H 0.87993 0.85732 0.79983 0.0
H259 H 0.86306 0.86672 0.80859 0.0
H260 H 0.84097 0.88307 0.80512 0.0
H261 H 0.83338 0.90081 0.79527 0.0
H262 H 0.81579 0.91069 0.82722 0.0
H263 H 0.82334 0.89287 0.83715 0.0
H264 H 0.82049 0.87219 0.85697 0.0
H265 H 0.81132 0.86452 0.87469 0.0
H266 H 0.83151 0.83232 0.87202 0.0
H267 H 0.84097 0.84014 0.85446 0.0
N268 N 0.84622 0.85574 0.83837 0.0
N269 N 0.84667 0.86989 0.82313 0.0
N270 N 0.8327 0.87149 0.83799 0.0
C271 C 0.85114 0.85995 0.82829 0.0
C272 C 0.83748 0.87572 0.82787 0.0
C273 C 0.83697 0.86147 0.84328 0.0
C274 C 0.86138 0.85395 0.82295 0.0
C275 C 0.86622 0.84355 0.82792 0.0
C276 C 0.87601 0.83816 0.82285 0.0
C277 C 0.88121 0.84309 0.81274 0.0
C278 C 0.87629 0.85341 0.80774 0.0
C279 C 0.86653 0.85876 0.81275 0.0
C280 C 0.83277 0.88652 0.82194 0.0
C281 C 0.8355 0.88901 0.81009 0.0
C282 C 0.83111 0.89914 0.8044 0.0
C283 C 0.82401 0.90713 0.81048 0.0
C284 C 0.82133 0.90473 0.82236 0.0
C285 C 0.82559 0.89448 0.82801 0.0
C286 C 0.83149 0.8568 0.85422 0.0
C287 C 0.82301 0.86348 0.86014 0.0
C288 C 0.13257 0.70698 0.66722 0.0
C289 C 0.1284 0.70298 0.67815 0.0
C290 C 0.13476 0.69413 0.68435 0.0
C291 C 0.14506 0.68936 0.67965 0.0
H292 H 0.16996 0.66158 0.68329 0.0
H293 H 0.17975 0.6438 0.69101 0.0
H294 H 0.2049 0.64588 0.66291 0.0
H295 H 0.19514 0.66343 0.65511 0.0
H296 H 0.1953 0.68457 0.63763 0.0
H297 H 0.20365 0.69468 0.62066 0.0
H298 H 0.17496 0.71979 0.62059 0.0
H299 H 0.16646 0.70958 0.63744 0.0
H300 H 0.14577 0.70568 0.65415 0.0
H301 H 0.12798 0.7139 0.66231 0.0
H302 H 0.13172 0.69083 0.69277 0.0
H303 H 0.14976 0.68257 0.68463 0.0
N304 N 0.16572 0.67897 0.66842 0.0
N305 N 0.18038 0.68036 0.65409 0.0
N306 N 0.16505 0.69417 0.65417 0.0
C307 C 0.17578 0.67472 0.66361 0.0
C308 C 0.17509 0.69009 0.64932 0.0
C309 C 0.16029 0.68871 0.6637 0.0
C310 C 0.18171 0.66397 0.66854 0.0
C311 C 0.17757 0.65824 0.67875 0.0
C312 C 0.18321 0.64808 0.68321 0.0
C313 C 0.19307 0.64338 0.67754 0.0
C314 C 0.19722 0.64914 0.66739 0.0
C315 C 0.19164 0.65929 0.66296 0.0
C316 C 0.18019 0.69624 0.63895 0.0
C317 C 0.19074 0.69223 0.63402 0.0
C318 C 0.19558 0.69808 0.62432 0.0
C319 C 0.18999 0.70807 0.61929 0.0
C320 C 0.17942 0.71205 0.62417 0.0
C321 C 0.17459 0.70621 0.63389 0.0
C322 C 0.14926 0.69344 0.66873 0.0
C323 C 0.14286 0.7023 0.66259 0.0
C324 C 0.82754 0.64524 0.69221 0.0
C325 C 0.81798 0.63978 0.68593 0.0
C326 C 0.81444 0.64442 0.67482 0.0
C327 C 0.82032 0.65423 0.67006 0.0
H328 H 0.81609 0.68007 0.645 0.0
H329 H 0.80803 0.68833 0.62662 0.0
H330 H 0.84066 0.70809 0.62201 0.0
H331 H 0.84861 0.7001 0.64071 0.0
H332 H 0.86714 0.70158 0.66373 0.0
H333 H 0.88531 0.70916 0.67343 0.0
H334 H 0.8806 0.68464 0.70243 0.0
H335 H 0.86262 0.67687 0.69266 0.0
H336 H 0.84086 0.65896 0.69246 0.0
H337 H 0.83055 0.64183 0.70076 0.0
H338 H 0.80702 0.64052 0.66982 0.0
H339 H 0.81731 0.6575 0.66145 0.0
N340 N 0.83215 0.67489 0.66073 0.0
N341 N 0.848 0.68857 0.66105 0.0
N342 N 0.84638 0.67447 0.6763 0.0
C343 C 0.83788 0.68419 0.65567 0.0
C344 C 0.8523 0.68377 0.67141 0.0
C345 C 0.83632 0.66995 0.67101 0.0
C346 C 0.83304 0.68938 0.64439 0.0
C347 C 0.82159 0.68618 0.6401 0.0
C348 C 0.81697 0.69087 0.62946 0.0
C349 C 0.82368 0.69885 0.62271 0.0
C350 C 0.83514 0.7021 0.62701 0.0
C351 C 0.83974 0.69746 0.63773 0.0
C352 C 0.86336 0.68857 0.67735 0.0
C353 C 0.86996 0.69779 0.67217 0.0
C354 C 0.88037 0.7022 0.67778 0.0
C355 C 0.88447 0.69752 0.68873 0.0
C356 C 0.87784 0.68834 0.69392 0.0
C357 C 0.86745 0.68393 0.68832 0.0
C358 C 0.82997 0.65964 0.67625 0.0
C359 C 0.83349 0.65503 0.68742 0.0
C360 C 0.84551 0.32982 0.64738 0.0
C361 C 0.83446 0.33302 0.64225 0.0
C362 C 0.82812 0.34217 0.64761 0.0
C363 C 0.83269 0.34793 0.65781 0.0
H364 H 0.82561 0.37458 0.68328 0.0
H365 H 0.81605 0.39139 0.69258 0.0
H366 H 0.84794 0.39811 0.71389 0.0
H367 H 0.85731 0.38121 0.70494 0.0
H368 H 0.87717 0.36261 0.70671 0.0
H369 H 0.89504 0.35514 0.71661 0.0
H370 H 0.89292 0.32362 0.69486 0.0
H371 H 0.87521 0.33126 0.68467 0.0
H372 H 0.85862 0.33279 0.66118 0.0
H373 H 0.85078 0.32299 0.64342 0.0
H374 H 0.81952 0.34479 0.64401 0.0
H375 H 0.82753 0.35489 0.66169 0.0
N376 N 0.84328 0.36035 0.67841 0.0
N377 N 0.8582 0.36173 0.69336 0.0
N378 N 0.85887 0.34666 0.67915 0.0
C379 C 0.84802 0.36593 0.6882 0.0
C380 C 0.86367 0.3521 0.68894 0.0
C381 C 0.84871 0.35071 0.67378 0.0
C382 C 0.84222 0.37645 0.69339 0.0
C383 C 0.83058 0.37966 0.68994 0.0
C384 C 0.82511 0.38935 0.69524 0.0
C385 C 0.83117 0.3961 0.70408 0.0
C386 C 0.84287 0.39299 0.70733 0.0
C387 C 0.84829 0.38329 0.70211 0.0
C388 C 0.87469 0.34755 0.69487 0.0
C389 C 0.8805 0.35409 0.704 0.0
C390 C 0.89074 0.34976 0.70975 0.0
C391 C 0.89543 0.33873 0.70661 0.0
C392 C 0.88967 0.33222 0.69743 0.0
C393 C 0.87945 0.33658 0.69161 0.0
C394 C 0.84373 0.34467 0.66295 0.0
C395 C 0.85006 0.33553 0.65758 0.0
C396 C 0.14384 0.33213 0.70437 0.0
C397 C 0.13926 0.32208 0.69834 0.0
C398 C 0.14496 0.31827 0.6881 0.0
C399 C 0.15488 0.32444 0.68394 0.0
H400 H 0.18283 0.32226 0.66022 0.0
H401 H 0.19395 0.31525 0.64344 0.0
H402 H 0.21272 0.34884 0.64222 0.0
H403 H 0.2019 0.35571 0.65916 0.0
H404 H 0.19969 0.37388 0.67969 0.0
H405 H 0.20603 0.39226 0.68928 0.0
H406 H 0.18089 0.38615 0.71689 0.0
H407 H 0.1743 0.36785 0.70713 0.0
H408 H 0.1569 0.346 0.70513 0.0
H409 H 0.13983 0.3352 0.71241 0.0
H410 H 0.14163 0.31065 0.68316 0.0
H411 H 0.15895 0.32131 0.67596 0.0
N412 N 0.17559 0.3375 0.67579 0.0
N413 N 0.18835 0.35407 0.67706 0.0
N414 N 0.17329 0.35166 0.69077 0.0
C415 C 0.18495 0.3438 0.67157 0.0
C416 C 0.1826 0.35807 0.68668 0.0
C417 C 0.16969 0.34138 0.68539 0.0
C418 C 0.19147 0.33955 0.66112 0.0
C419 C 0.18932 0.32817 0.65637 0.0
C420 C 0.19567 0.32416 0.64669 0.0
C421 C 0.2043 0.33145 0.64145 0.0
C422 C 0.20633 0.34288 0.64613 0.0
C423 C 0.20004 0.34685 0.65584 0.0
C424 C 0.18647 0.36931 0.69261 0.0
C425 C 0.19549 0.37641 0.68781 0.0
C426 C 0.19919 0.38695 0.69337 0.0
C427 C 0.19403 0.39069 0.70392 0.0
C428 C 0.18498 0.38362 0.70872 0.0
C429 C 0.18125 0.37308 0.70313 0.0
C430 C 0.15934 0.33459 0.6899 0.0
C431 C 0.15371 0.3383 0.70021 0.0
C432 C 0.14004 0.30058 0.34663 0.0
C433 C 0.1337 0.30545 0.33689 0.0
C434 C 0.13803 0.31593 0.3317 0.0
C435 C 0.14841 0.32144 0.33618 0.0
H436 H 0.17425 0.34559 0.32739 0.0
H437 H 0.18177 0.36284 0.31693 0.0
H438 H 0.2042 0.3719 0.34738 0.0
H439 H 0.19664 0.35454 0.35797 0.0
H440 H 0.19834 0.33475 0.37989 0.0
H441 H 0.20746 0.32708 0.3982 0.0
H442 H 0.18606 0.29515 0.39469 0.0
H443 H 0.1767 0.30296 0.37669 0.0
H444 H 0.15499 0.30216 0.35873 0.0
H445 H 0.13689 0.29258 0.3509 0.0
H446 H 0.13345 0.31982 0.32408 0.0
H447 H 0.15143 0.32951 0.33194 0.0
N448 N 0.17016 0.33237 0.34542 0.0
N449 N 0.18532 0.33398 0.36011 0.0
N450 N 0.17108 0.31865 0.36102 0.0
C451 C 0.18 0.33808 0.34991 0.0
C452 C 0.18093 0.32421 0.3657 0.0
C453 C 0.16561 0.32268 0.35092 0.0
C454 C 0.18481 0.34862 0.34357 0.0
C455 C 0.18078 0.35122 0.33191 0.0
C456 C 0.18516 0.36109 0.32585 0.0
C457 C 0.19361 0.36874 0.33129 0.0
C458 C 0.19763 0.36622 0.34297 0.0
C459 C 0.19334 0.35623 0.34901 0.0
C460 C 0.18674 0.31953 0.37678 0.0
C461 C 0.19558 0.3261 0.38303 0.0
C462 C 0.20086 0.32165 0.39352 0.0
C463 C 0.19751 0.31046 0.39801 0.0
C464 C 0.18873 0.30388 0.39169 0.0
C465 C 0.1834 0.30836 0.38127 0.0
C466 C 0.15471 0.31666 0.34601 0.0
C467 C 0.1504 0.30613 0.35116 0.0
C468 C 0.14808 0.68832 0.33317 0.0
C469 C 0.14258 0.68465 0.32241 0.0
C470 C 0.14778 0.6754 0.31606 0.0
C471 C 0.15821 0.66998 0.32039 0.0
H472 H 0.18054 0.63932 0.31716 0.0
H473 H 0.18945 0.62163 0.3087 0.0
H474 H 0.22072 0.62702 0.33125 0.0
H475 H 0.21203 0.6446 0.33952 0.0
H476 H 0.21389 0.66446 0.35785 0.0
H477 H 0.22426 0.67319 0.37505 0.0
H478 H 0.19338 0.694 0.3823 0.0
H479 H 0.18291 0.68526 0.36509 0.0
H480 H 0.16243 0.68617 0.34574 0.0
H481 H 0.14445 0.69553 0.33821 0.0
H482 H 0.14373 0.67228 0.30779 0.0
H483 H 0.16198 0.66291 0.31526 0.0
N484 N 0.17977 0.65872 0.33037 0.0
N485 N 0.19582 0.65916 0.34416 0.0
N486 N 0.18082 0.67325 0.34532 0.0
C487 C 0.19019 0.65405 0.3346 0.0
C488 C 0.19122 0.66873 0.34959 0.0
C489 C 0.17503 0.66837 0.3357 0.0
C490 C 0.19552 0.64344 0.32905 0.0
C491 C 0.18934 0.63676 0.32026 0.0
C492 C 0.19442 0.62658 0.31546 0.0
C493 C 0.20583 0.62291 0.31926 0.0
C494 C 0.21201 0.62966 0.32796 0.0
C495 C 0.20694 0.63974 0.33278 0.0
C496 C 0.19754 0.67414 0.36005 0.0
C497 C 0.20927 0.67089 0.36309 0.0
C498 C 0.21526 0.67595 0.37292 0.0
C499 C 0.20965 0.6843 0.38002 0.0
C500 C 0.19791 0.68752 0.37704 0.0
C501 C 0.19194 0.68255 0.36713 0.0
C502 C 0.16375 0.67375 0.33112 0.0
C503 C 0.15849 0.68297 0.33745 0.0
C504 C 0.83175 0.64294 0.31045 0.0
C505 C 0.82181 0.63881 0.31657 0.0
C506 C 0.81834 0.64508 0.32665 0.0
C507 C 0.82469 0.65516 0.33055 0.0
H508 H 0.82533 0.68065 0.35631 0.0
H509 H 0.81884 0.69146 0.37355 0.0
H510 H 0.84752 0.71675 0.36953 0.0
H511 H 0.85421 0.70581 0.3524 0.0
H512 H 0.87381 0.70068 0.33338 0.0
H513 H 0.89163 0.70684 0.32328 0.0
H514 H 0.88403 0.68094 0.2958 0.0
H515 H 0.86637 0.67453 0.30606 0.0
H516 H 0.8457 0.65588 0.30939 0.0
H517 H 0.83457 0.63845 0.30255 0.0
H518 H 0.81082 0.64209 0.33166 0.0
H519 H 0.82178 0.65969 0.3384 0.0
N520 N 0.83806 0.676 0.33835 0.0
N521 N 0.85414 0.6892 0.33654 0.0
N522 N 0.8514 0.67355 0.323 0.0
C523 C 0.84428 0.68568 0.34234 0.0
C524 C 0.85777 0.68319 0.32685 0.0
C525 C 0.84154 0.66987 0.3287 0.0
C526 C 0.84032 0.69232 0.3529 0.0
C527 C 0.83029 0.68851 0.35907 0.0
C528 C 0.8265 0.69477 0.36894 0.0
C529 C 0.83262 0.70502 0.37294 0.0
C530 C 0.84267 0.70882 0.3668 0.0
C531 C 0.84647 0.70256 0.35691 0.0
C532 C 0.8686 0.68708 0.32058 0.0
C533 C 0.8759 0.69628 0.32518 0.0
C534 C 0.88612 0.69988 0.31933 0.0
C535 C 0.8893 0.69443 0.30867 0.0
C536 C 0.88198 0.68524 0.30406 0.0
C537 C 0.87178 0.68161 0.30993 0.0
C538 C 0.83469 0.65924 0.32448 0.0
C539 C 0.8381 0.653 0.31435 0.0
C540 C 0.81565 0.34629 0.38191 0.0
C541 C 0.81992 0.33585 0.38731 0.0
C542 C 0.82939 0.32995 0.38212 0.0
C543 C 0.83456 0.33444 0.37189 0.0
H544 H 0.86134 0.32766 0.3478 0.0
H545 H 0.87852 0.31844 0.33896 0.0
H546 H 0.88235 0.34872 0.3158 0.0
H547 H 0.8652 0.35774 0.32432 0.0
H548 H 0.84678 0.37626 0.32221 0.0
H549 H 0.83947 0.39371 0.31197 0.0
H550 H 0.80975 0.39498 0.33524 0.0
H551 H 0.817 0.37721 0.34552 0.0
H552 H 0.81735 0.35889 0.36784 0.0
H553 H 0.80846 0.35114 0.38574 0.0
H554 H 0.83279 0.32179 0.38592 0.0
H555 H 0.84186 0.32964 0.36821 0.0
N556 N 0.84579 0.34451 0.35138 0.0
N557 N 0.84672 0.35898 0.33652 0.0
N558 N 0.83176 0.35981 0.35045 0.0
C559 C 0.85117 0.34906 0.34171 0.0
C560 C 0.83705 0.36442 0.34076 0.0
C561 C 0.83608 0.34985 0.35583 0.0
C562 C 0.86179 0.34342 0.33674 0.0
C563 C 0.86585 0.33234 0.34082 0.0
C564 C 0.87574 0.32707 0.33579 0.0
C565 C 0.88176 0.33278 0.32658 0.0
C566 C 0.87778 0.34393 0.32267 0.0
C567 C 0.86794 0.34915 0.32764 0.0
C568 C 0.83249 0.37527 0.33474 0.0
C569 C 0.83869 0.3802 0.32522 0.0
C570 C 0.83454 0.39031 0.31937 0.0
C571 C 0.82407 0.3958 0.32283 0.0
C572 C 0.81782 0.3909 0.33232 0.0
C573 C 0.82201 0.38075 0.33824 0.0
C574 C 0.83038 0.34494 0.36655 0.0
C575 C 0.82081 0.35077 0.37167 0.0
C576 C 0.63622 0.20256 0.66734 0.0
C577 C 0.63162 0.1964 0.67707 0.0
C578 C 0.63764 0.18634 0.68137 0.0
C579 C 0.64801 0.18253 0.67607 0.0
H580 H 0.67358 0.15709 0.67853 0.0
H581 H 0.68383 0.1397 0.6862 0.0
H582 H 0.7097 0.14322 0.65888 0.0
H583 H 0.69934 0.16055 0.65102 0.0
H584 H 0.69472 0.17985 0.63033 0.0
H585 H 0.70232 0.19084 0.61346 0.0
H586 H 0.67947 0.22009 0.62132 0.0
H587 H 0.67183 0.20917 0.6382 0.0
H588 H 0.64981 0.20372 0.65455 0.0
H589 H 0.63173 0.21025 0.6637 0.0
H590 H 0.63444 0.18147 0.68894 0.0
H591 H 0.65241 0.17476 0.67966 0.0
N592 N 0.66935 0.1748 0.66472 0.0
N593 N 0.68357 0.17708 0.65008 0.0
N594 N 0.668 0.19063 0.65126 0.0
C595 C 0.67934 0.17097 0.65951 0.0
C596 C 0.67796 0.18693 0.64592 0.0
C597 C 0.6636 0.18461 0.66065 0.0
C598 C 0.68561 0.16029 0.66414 0.0
C599 C 0.68144 0.15419 0.67412 0.0
C600 C 0.68738 0.14424 0.67858 0.0
C601 C 0.69764 0.14008 0.6732 0.0
C602 C 0.70177 0.14611 0.66318 0.0
C603 C 0.69585 0.1561 0.65871 0.0
C604 C 0.68264 0.1936 0.63565 0.0
C605 C 0.69131 0.18863 0.6285 0.0
C606 C 0.69562 0.19489 0.61877 0.0
C607 C 0.69148 0.20632 0.61606 0.0
C608 C 0.68289 0.21134 0.62325 0.0
C609 C 0.67847 0.20503 0.63289 0.0
C610 C 0.65262 0.18868 0.66633 0.0
C611 C 0.64658 0.19875 0.66205 0.0
C612 C 0.35096 0.13551 0.70852 0.0
C613 C 0.33953 0.13095 0.7058 0.0
C614 C 0.33272 0.13645 0.69671 0.0
C615 C 0.33719 0.14628 0.69057 0.0
H616 H 0.33003 0.16952 0.66238 0.0
H617 H 0.31973 0.17767 0.64494 0.0
H618 H 0.34976 0.20083 0.63886 0.0
H619 H 0.35989 0.19296 0.65646 0.0
H620 H 0.37987 0.19634 0.67755 0.0
H621 H 0.39789 0.20572 0.68597 0.0
H622 H 0.40011 0.17838 0.71279 0.0
H623 H 0.38213 0.16916 0.70461 0.0
H624 H 0.36425 0.14855 0.70485 0.0
H625 H 0.35659 0.1314 0.71527 0.0
H626 H 0.32383 0.13329 0.69444 0.0
H627 H 0.33166 0.15033 0.6837 0.0
N628 N 0.34763 0.16604 0.67738 0.0
N629 N 0.36243 0.18079 0.67585 0.0
N630 N 0.36366 0.1667 0.69113 0.0
C631 C 0.35211 0.17568 0.67165 0.0
C632 C 0.36826 0.17636 0.68562 0.0
C633 C 0.35338 0.16147 0.68712 0.0
C634 C 0.34582 0.18058 0.66092 0.0
C635 C 0.33445 0.17636 0.65734 0.0
C636 C 0.32855 0.181 0.64726 0.0
C637 C 0.33385 0.18995 0.64043 0.0
C638 C 0.34525 0.19411 0.64398 0.0
C639 C 0.35112 0.18952 0.65409 0.0
C640 C 0.37944 0.182 0.6904 0.0
C641 C 0.38421 0.19232 0.68524 0.0
C642 C 0.39458 0.19768 0.69003 0.0
C643 C 0.40043 0.19287 0.70013 0.0
C644 C 0.39574 0.18248 0.70517 0.0
C645 C 0.38542 0.17713 0.70039 0.0
C646 C 0.34858 0.1509 0.69341 0.0
C647 C 0.3554 0.14535 0.70245 0.0
C648 C 0.34438 0.82721 0.64616 0.0
C649 C 0.33424 0.83082 0.63959 0.0
C650 C 0.32793 0.84067 0.64359 0.0
C651 C 0.33172 0.84679 0.65386 0.0
H652 H 0.32235 0.87351 0.67705 0.0
H653 H 0.31144 0.89041 0.68431 0.0
H654 H 0.33989 0.89779 0.70991 0.0
H655 H 0.35062 0.88072 0.70291 0.0
H656 H 0.37057 0.86094 0.70775 0.0
H657 H 0.38801 0.8535 0.71867 0.0
H658 H 0.39111 0.82546 0.69292 0.0
H659 H 0.37365 0.8327 0.68215 0.0
H660 H 0.35601 0.8302 0.66119 0.0
H661 H 0.34935 0.81955 0.64346 0.0
H662 H 0.32015 0.84377 0.63869 0.0
H663 H 0.32667 0.85437 0.65663 0.0
N664 N 0.34011 0.85925 0.67522 0.0
N665 N 0.35386 0.86135 0.6912 0.0
N666 N 0.35588 0.84598 0.67746 0.0
C667 C 0.34396 0.86518 0.68516 0.0
C668 C 0.35987 0.85173 0.68741 0.0
C669 C 0.34604 0.84965 0.67129 0.0
C670 C 0.33738 0.87566 0.68941 0.0
C671 C 0.3263 0.87872 0.68423 0.0
C672 C 0.32005 0.88849 0.68836 0.0
C673 C 0.32472 0.89549 0.69775 0.0
C674 C 0.33587 0.8925 0.70282 0.0
C675 C 0.34208 0.88271 0.69874 0.0
C676 C 0.37062 0.84742 0.69406 0.0
C677 C 0.37496 0.85318 0.70441 0.0
C678 C 0.38501 0.84895 0.71065 0.0
C679 C 0.39095 0.83884 0.70671 0.0
C680 C 0.38665 0.83315 0.69633 0.0
C681 C 0.37665 0.83737 0.6901 0.0
C682 C 0.3419 0.84319 0.6604 0.0
C683 C 0.34816 0.8333 0.6564 0.0
C684 C 0.63241 0.82859 0.68942 0.0
C685 C 0.62826 0.81822 0.68369 0.0
C686 C 0.63359 0.81475 0.67313 0.0
C687 C 0.64295 0.82144 0.66851 0.0
H688 H 0.66671 0.82312 0.64071 0.0
H689 H 0.67757 0.81653 0.62354 0.0
H690 H 0.70344 0.84457 0.62961 0.0
H691 H 0.69273 0.85112 0.64679 0.0
H692 H 0.68794 0.87107 0.66531 0.0
H693 H 0.69376 0.88956 0.67511 0.0
H694 H 0.66579 0.88461 0.70008 0.0
H695 H 0.6598 0.86623 0.69019 0.0
H696 H 0.64461 0.84321 0.68952 0.0
H697 H 0.62838 0.83163 0.69745 0.0
H698 H 0.63065 0.80677 0.66853 0.0
H699 H 0.6469 0.81847 0.66041 0.0
N700 N 0.66304 0.83524 0.65989 0.0
N701 N 0.67557 0.852 0.66127 0.0
N702 N 0.66057 0.84923 0.67498 0.0
C703 C 0.67229 0.84173 0.6557 0.0
C704 C 0.66975 0.85584 0.67091 0.0
C705 C 0.65714 0.83893 0.66956 0.0
C706 C 0.67882 0.83766 0.64519 0.0
C707 C 0.67472 0.82788 0.63842 0.0
C708 C 0.68091 0.82414 0.62852 0.0
C709 C 0.69138 0.83001 0.62521 0.0
C710 C 0.69548 0.83976 0.632 0.0
C711 C 0.68927 0.84355 0.64182 0.0
C712 C 0.67338 0.8671 0.67692 0.0
C713 C 0.683 0.8739 0.67288 0.0
C714 C 0.6864 0.88449 0.67855 0.0
C715 C 0.68025 0.88859 0.6884 0.0
C716 C 0.67063 0.88181 0.69243 0.0
C717 C 0.66724 0.87121 0.68678 0.0
C718 C 0.64714 0.8318 0.6743 0.0
C719 C 0.6417 0.83529 0.68479 0.0
C720 C 0.62524 0.81342 0.32689 0.0
C721 C 0.62112 0.81926 0.31653 0.0
C722 C 0.62796 0.8287 0.31211 0.0
C723 C 0.63856 0.83228 0.31794 0.0
H724 H 0.6647 0.8584 0.31742 0.0
H725 H 0.67541 0.87612 0.31105 0.0
H726 H 0.70106 0.87147 0.33989 0.0
H727 H 0.69033 0.85395 0.34639 0.0
H728 H 0.68758 0.83403 0.36437 0.0
H729 H 0.6952 0.82393 0.38198 0.0
H730 H 0.66711 0.7977 0.37842 0.0
H731 H 0.65947 0.80775 0.36057 0.0
H732 H 0.6387 0.81226 0.34065 0.0
H733 H 0.6203 0.80602 0.33047 0.0
H734 H 0.62501 0.83348 0.30424 0.0
H735 H 0.6435 0.83965 0.31428 0.0
N736 N 0.65989 0.84018 0.3308 0.0
N737 N 0.67407 0.8379 0.34625 0.0
N738 N 0.65807 0.82448 0.34439 0.0
C739 C 0.67002 0.84397 0.33656 0.0
C740 C 0.6682 0.82815 0.35025 0.0
C741 C 0.65384 0.83045 0.33464 0.0
C742 C 0.67659 0.8547 0.33246 0.0
C743 C 0.67262 0.86114 0.32242 0.0
C744 C 0.6788 0.87129 0.31872 0.0
C745 C 0.68909 0.87527 0.32498 0.0
C746 C 0.69308 0.86879 0.33496 0.0
C747 C 0.68693 0.85866 0.33865 0.0
C748 C 0.67284 0.82177 0.36099 0.0
C749 C 0.68297 0.82611 0.36727 0.0
C750 C 0.68733 0.82035 0.37746 0.0
C751 C 0.68173 0.81005 0.3817 0.0
C752 C 0.67169 0.80557 0.37536 0.0
C753 C 0.66728 0.81139 0.36515 0.0
C754 C 0.64265 0.82649 0.32834 0.0
C755 C 0.63586 0.81697 0.3327 0.0
C756 C 0.64621 0.19901 0.33466 0.0
C757 C 0.6387 0.19396 0.32578 0.0
C758 C 0.64162 0.18278 0.32122 0.0
C759 C 0.65179 0.17687 0.32534 0.0
H760 H 0.67438 0.15003 0.31626 0.0
H761 H 0.68068 0.13223 0.30614 0.0
H762 H 0.70748 0.12649 0.33373 0.0
H763 H 0.70141 0.14447 0.34368 0.0
H764 H 0.70695 0.16515 0.36253 0.0
H765 H 0.71809 0.17275 0.37983 0.0
H766 H 0.69298 0.20117 0.38285 0.0
H767 H 0.68173 0.19352 0.36572 0.0
H768 H 0.66195 0.19727 0.34562 0.0
H769 H 0.64435 0.20766 0.33828 0.0
H770 H 0.63595 0.17849 0.31455 0.0
H771 H 0.65369 0.16828 0.3216 0.0
N772 N 0.67372 0.16558 0.33304 0.0
N773 N 0.68989 0.164 0.34655 0.0
N774 N 0.67659 0.17976 0.34809 0.0
C775 C 0.68357 0.15972 0.33696 0.0
C776 C 0.68646 0.17403 0.35217 0.0
C777 C 0.67015 0.1756 0.33854 0.0
C778 C 0.68738 0.14876 0.33082 0.0
C779 C 0.68163 0.145 0.32019 0.0
C780 C 0.68521 0.13471 0.3144 0.0
C781 C 0.69461 0.12786 0.31908 0.0
C782 C 0.70034 0.13161 0.32973 0.0
C783 C 0.6968 0.14193 0.33549 0.0
C784 C 0.69339 0.17868 0.36268 0.0
C785 C 0.70378 0.17302 0.36687 0.0
C786 C 0.71022 0.17742 0.37677 0.0
C787 C 0.70644 0.18757 0.38277 0.0
C788 C 0.69607 0.19324 0.37857 0.0
C789 C 0.68965 0.18887 0.36866 0.0
C790 C 0.65932 0.18192 0.33419 0.0
C791 C 0.65636 0.19306 0.33883 0.0
C792 C 0.33951 0.13433 0.32599 0.0
C793 C 0.32844 0.1305 0.33001 0.0
C794 C 0.32319 0.13688 0.33917 0.0
C795 C 0.32898 0.14682 0.34426 0.0
H796 H 0.32793 0.17312 0.37152 0.0
H797 H 0.32156 0.1834 0.38922 0.0
H798 H 0.35481 0.20289 0.39089 0.0
H799 H 0.361 0.19294 0.37308 0.0
H800 H 0.37927 0.19115 0.352 0.0
H801 H 0.39668 0.19819 0.34145 0.0
H802 H 0.38651 0.17602 0.31156 0.0
H803 H 0.36919 0.16904 0.32195 0.0
H804 H 0.35376 0.14685 0.32755 0.0
H805 H 0.34372 0.12975 0.31882 0.0
H806 H 0.31467 0.13412 0.34249 0.0
H807 H 0.32474 0.15153 0.35131 0.0
N808 N 0.34272 0.16666 0.35526 0.0
N809 N 0.35862 0.18031 0.3542 0.0
N810 N 0.3561 0.16553 0.33978 0.0
C811 C 0.34884 0.17622 0.35982 0.0
C812 C 0.36226 0.17504 0.34414 0.0
C813 C 0.34638 0.16123 0.34523 0.0
C814 C 0.34497 0.18221 0.37079 0.0
C815 C 0.33389 0.17959 0.37567 0.0
C816 C 0.33025 0.18546 0.38587 0.0
C817 C 0.33763 0.19405 0.39151 0.0
C818 C 0.34876 0.19654 0.3867 0.0
C819 C 0.35235 0.19074 0.37647 0.0
C820 C 0.37281 0.17952 0.33784 0.0
C821 C 0.38073 0.18781 0.34316 0.0
C822 C 0.39073 0.1918 0.33715 0.0
C823 C 0.39293 0.18768 0.32566 0.0
C824 C 0.38498 0.17947 0.32034 0.0
C825 C 0.37508 0.17541 0.32636 0.0
C826 C 0.34008 0.15064 0.34017 0.0
C827 C 0.34523 0.14424 0.33097 0.0
C828 C 0.30871 0.84482 0.38261 0.0
C829 C 0.31346 0.83471 0.3882 0.0
C830 C 0.3229 0.82886 0.3829 0.0
C831 C 0.32753 0.83307 0.3723 0.0
H832 H 0.35427 0.82797 0.34997 0.0
H833 H 0.37072 0.81744 0.34178 0.0
H834 H 0.36819 0.83896 0.31007 0.0
H835 H 0.35178 0.84985 0.31847 0.0
H836 H 0.33058 0.87098 0.31753 0.0
H837 H 0.32178 0.88905 0.3091 0.0
H838 H 0.30502 0.89585 0.3423 0.0
H839 H 0.31372 0.87802 0.35072 0.0
H840 H 0.30949 0.85691 0.36802 0.0
H841 H 0.30152 0.8496 0.38652 0.0
H842 H 0.32665 0.82094 0.38688 0.0
H843 H 0.3348 0.82832 0.3685 0.0
N844 N 0.33689 0.8421 0.35038 0.0
N845 N 0.33694 0.85614 0.33496 0.0
N846 N 0.32342 0.85771 0.35033 0.0
C847 C 0.34153 0.84618 0.34013 0.0
C848 C 0.32788 0.86198 0.34008 0.0
C849 C 0.32782 0.84777 0.35553 0.0
C850 C 0.3516 0.83978 0.33488 0.0
C851 C 0.35715 0.8305 0.34123 0.0
C852 C 0.36659 0.82436 0.33648 0.0
C853 C 0.37076 0.82724 0.3252 0.0
C854 C 0.36529 0.83656 0.31884 0.0
C855 C 0.35583 0.84277 0.32363 0.0
C856 C 0.32287 0.87301 0.33481 0.0
C857 C 0.32506 0.87637 0.32304 0.0
C858 C 0.31997 0.88667 0.31818 0.0
C859 C 0.31274 0.89389 0.32505 0.0
C860 C 0.31066 0.89056 0.33682 0.0
C861 C 0.3156 0.88026 0.34161 0.0
C862 C 0.32284 0.84324 0.36673 0.0
C863 C 0.31335 0.84905 0.37202 0.0
C864 C 0.63042 0.70888 0.18495 0.0
C865 C 0.62607 0.70106 0.19359 0.0
C866 C 0.63197 0.69028 0.19557 0.0
C867 C 0.64198 0.68742 0.18917 0.0
H868 H 0.67067 0.66512 0.19046 0.0
H869 H 0.68214 0.64772 0.19611 0.0
H870 H 0.70227 0.65131 0.16425 0.0
H871 H 0.69107 0.6689 0.15877 0.0
H872 H 0.69015 0.69295 0.14527 0.0
H873 H 0.69691 0.70485 0.12879 0.0
H874 H 0.66689 0.72796 0.13219 0.0
H875 H 0.65994 0.7159 0.14869 0.0
H876 H 0.64354 0.71226 0.17196 0.0
H877 H 0.6262 0.71733 0.18328 0.0
H878 H 0.62877 0.68393 0.20198 0.0
H879 H 0.64623 0.67901 0.19097 0.0
N880 N 0.66333 0.68227 0.17682 0.0
N881 N 0.67654 0.68612 0.16162 0.0
N882 N 0.66065 0.69896 0.16458 0.0
C883 C 0.67309 0.67921 0.17078 0.0
C884 C 0.67041 0.69601 0.15844 0.0
C885 C 0.65704 0.6921 0.1738 0.0
C886 C 0.67994 0.66847 0.17416 0.0
C887 C 0.67754 0.66221 0.18465 0.0
C888 C 0.68408 0.65217 0.18786 0.0
C889 C 0.69315 0.64808 0.18065 0.0
C890 C 0.6955 0.6543 0.17013 0.0
C891 C 0.68901 0.66438 0.16695 0.0
C892 C 0.67447 0.70344 0.14838 0.0
C893 C 0.68494 0.70056 0.14256 0.0
C894 C 0.68889 0.70745 0.13313 0.0
C895 C 0.68249 0.71741 0.1292 0.0
C896 C 0.67198 0.72029 0.13494 0.0
C897 C 0.66804 0.7134 0.14444 0.0
C898 C 0.64635 0.69523 0.18054 0.0
C899 C 0.64042 0.706 0.17849 0.0
C900 C 0.32636 0.63205 0.19379 0.0
C901 C 0.31544 0.62755 0.18923 0.0
C902 C 0.30989 0.63343 0.1796 0.0
C903 C 0.31511 0.6435 0.17462 0.0
H904 H 0.31247 0.66353 0.14497 0.0
H905 H 0.30399 0.6707 0.12623 0.0
H906 H 0.32961 0.69949 0.1264 0.0
H907 H 0.3383 0.6922 0.14502 0.0
H908 H 0.35808 0.69334 0.16482 0.0
H909 H 0.37552 0.70333 0.17336 0.0
H910 H 0.37593 0.67871 0.20276 0.0
H911 H 0.35855 0.66849 0.19408 0.0
H912 H 0.33997 0.64543 0.19256 0.0
H913 H 0.33083 0.62778 0.20126 0.0
H914 H 0.30157 0.63013 0.17575 0.0
H915 H 0.31052 0.6477 0.16718 0.0
N916 N 0.32671 0.66305 0.16326 0.0
N917 N 0.34118 0.67809 0.16301 0.0
N918 N 0.34128 0.66418 0.17857 0.0
C919 C 0.33146 0.67271 0.1579 0.0
C920 C 0.34617 0.67393 0.17333 0.0
C921 C 0.33151 0.6587 0.17357 0.0
C922 C 0.32612 0.67724 0.14655 0.0
C923 C 0.31632 0.6714 0.14104 0.0
C924 C 0.31139 0.67555 0.1303 0.0
C925 C 0.3161 0.68567 0.12476 0.0
C926 C 0.32585 0.69156 0.13031 0.0
C927 C 0.3308 0.68741 0.14105 0.0
C928 C 0.35683 0.68005 0.17872 0.0
C929 C 0.36184 0.69001 0.17311 0.0
C930 C 0.37184 0.69583 0.17807 0.0
C931 C 0.37716 0.69189 0.18879 0.0
C932 C 0.37217 0.68193 0.19442 0.0
C933 C 0.36214 0.67609 0.18946 0.0
C934 C 0.32602 0.64805 0.17914 0.0
C935 C 0.33157 0.64222 0.18884 0.0
C936 C 0.347 0.32013 0.14773 0.0
C937 C 0.33657 0.32436 0.14207 0.0
C938 C 0.33072 0.33392 0.14727 0.0
C939 C 0.33518 0.33912 0.15782 0.0
H940 H 0.33053 0.36782 0.18093 0.0
H941 H 0.32166 0.38533 0.18962 0.0
H942 H 0.34664 0.38335 0.21938 0.0
H943 H 0.35565 0.36612 0.21065 0.0
H944 H 0.37612 0.34837 0.21101 0.0
H945 H 0.39379 0.3403 0.22083 0.0
H946 H 0.39606 0.31398 0.19321 0.0
H947 H 0.37823 0.32188 0.18347 0.0
H948 H 0.35953 0.32179 0.16227 0.0
H949 H 0.35186 0.31291 0.14392 0.0
H950 H 0.32258 0.33733 0.14328 0.0
H951 H 0.33039 0.34644 0.16154 0.0
N952 N 0.34512 0.34998 0.17949 0.0
N953 N 0.35941 0.35029 0.19507 0.0
N954 N 0.36031 0.33586 0.1802 0.0
C955 C 0.34956 0.35499 0.18971 0.0
C956 C 0.36486 0.34075 0.19041 0.0
C957 C 0.35044 0.34039 0.17467 0.0
C958 C 0.34387 0.36552 0.19503 0.0
C959 C 0.33414 0.37111 0.18933 0.0
C960 C 0.329 0.38114 0.19435 0.0
C961 C 0.33345 0.38583 0.2052 0.0
C962 C 0.3431 0.38016 0.21093 0.0
C963 C 0.34823 0.37018 0.20592 0.0
C964 C 0.37568 0.33579 0.19641 0.0
C965 C 0.38034 0.34085 0.207 0.0
C966 C 0.39055 0.33626 0.21263 0.0
C967 C 0.39638 0.32648 0.20783 0.0
C968 C 0.39171 0.32141 0.19725 0.0
C969 C 0.38151 0.326 0.19162 0.0
C970 C 0.34562 0.33489 0.16346 0.0
C971 C 0.35145 0.3253 0.15826 0.0
C972 C 0.64247 0.33958 0.19342 0.0
C973 C 0.63854 0.32915 0.18761 0.0
C974 C 0.645 0.32495 0.17805 0.0
C975 C 0.6551 0.33102 0.17434 0.0
H976 H 0.68396 0.32639 0.15449 0.0
H977 H 0.69418 0.31765 0.13805 0.0
H978 H 0.71295 0.35068 0.13247 0.0
H979 H 0.70264 0.35957 0.14904 0.0
H980 H 0.70217 0.37838 0.17148 0.0
H981 H 0.70865 0.39688 0.18086 0.0
H982 H 0.67961 0.39435 0.20492 0.0
H983 H 0.67322 0.37575 0.19572 0.0
H984 H 0.65533 0.35373 0.19431 0.0
H985 H 0.63763 0.34311 0.20076 0.0
H986 H 0.64234 0.31685 0.1735 0.0
H987 H 0.65982 0.32744 0.16693 0.0
N988 N 0.67605 0.34334 0.167 0.0
N989 N 0.68935 0.35946 0.16806 0.0
N990 N 0.67342 0.35829 0.18103 0.0
C991 C 0.68582 0.34901 0.16297 0.0
C992 C 0.68321 0.36415 0.17714 0.0
C993 C 0.66977 0.34788 0.17598 0.0
C994 C 0.69244 0.34372 0.15311 0.0
C995 C 0.69027 0.33184 0.14982 0.0
C996 C 0.6962 0.32678 0.14042 0.0
C997 C 0.7044 0.33346 0.13398 0.0
C998 C 0.70662 0.34534 0.13724 0.0
C999 C 0.70076 0.3504 0.14677 0.0
C1000 C 0.68714 0.37551 0.1828 0.0
C1001 C 0.69714 0.38173 0.17877 0.0
C1002 C 0.70083 0.39241 0.18412 0.0
C1003 C 0.69464 0.39714 0.19365 0.0
C1004 C 0.68467 0.39091 0.1977 0.0
C1005 C 0.68096 0.38024 0.19235 0.0
C1006 C 0.65903 0.34149 0.18008 0.0
C1007 C 0.65259 0.3457 0.18967 0.0
C1008 C 0.6404 0.31188 0.84094 0.0
C1009 C 0.63487 0.31557 0.83022 0.0
C1010 C 0.63969 0.32537 0.82424 0.0
C1011 C 0.64975 0.33133 0.82885 0.0
H1012 H 0.66913 0.36116 0.82392 0.0
H1013 H 0.67563 0.37898 0.81377 0.0
H1014 H 0.70609 0.38176 0.83788 0.0
H1015 H 0.69944 0.364 0.84827 0.0
H1016 H 0.70171 0.3457 0.86975 0.0
H1017 H 0.71255 0.33835 0.88722 0.0
H1018 H 0.68773 0.30904 0.88957 0.0
H1019 H 0.67698 0.31623 0.87196 0.0
H1020 H 0.65456 0.31471 0.8538 0.0
H1021 H 0.63699 0.3043 0.84573 0.0
H1022 H 0.63557 0.32856 0.81605 0.0
H1023 H 0.65313 0.33886 0.82396 0.0
N1024 N 0.66993 0.34409 0.83892 0.0
N1025 N 0.6856 0.34602 0.85297 0.0
N1026 N 0.67205 0.33012 0.85424 0.0
C1027 C 0.67968 0.35013 0.84312 0.0
C1028 C 0.68186 0.33602 0.8586 0.0
C1029 C 0.66603 0.3341 0.84439 0.0
C1030 C 0.68375 0.36107 0.83695 0.0
C1031 C 0.67723 0.36553 0.8271 0.0
C1032 C 0.681 0.37575 0.82121 0.0
C1033 C 0.69143 0.38181 0.82495 0.0
C1034 C 0.69794 0.3774 0.83482 0.0
C1035 C 0.69415 0.36716 0.84075 0.0
C1036 C 0.68844 0.33158 0.86937 0.0
C1037 C 0.69853 0.33768 0.87396 0.0
C1038 C 0.70473 0.3335 0.88405 0.0
C1039 C 0.70103 0.3231 0.88984 0.0
C1040 C 0.69094 0.317 0.88526 0.0
C1041 C 0.68472 0.32118 0.87518 0.0
C1042 C 0.65533 0.32765 0.83956 0.0
C1043 C 0.65053 0.31782 0.84554 0.0
C1044 C 0.65878 0.69992 0.83815 0.0
C1045 C 0.6512 0.69387 0.83001 0.0
C1046 C 0.65446 0.68247 0.82628 0.0
C1047 C 0.66496 0.67724 0.8307 0.0
H1048 H 0.68837 0.64885 0.82592 0.0
H1049 H 0.69677 0.63114 0.8172 0.0
H1050 H 0.72722 0.63407 0.84127 0.0
H1051 H 0.71895 0.65181 0.8499 0.0
H1052 H 0.71907 0.67041 0.87093 0.0
H1053 H 0.72886 0.6798 0.88817 0.0
H1054 H 0.70283 0.70764 0.8869 0.0
H1055 H 0.69318 0.69846 0.86964 0.0
H1056 H 0.67472 0.69968 0.84888 0.0
H1057 H 0.65675 0.70881 0.84103 0.0
H1058 H 0.64881 0.67747 0.82012 0.0
H1059 H 0.66712 0.66841 0.82773 0.0
N1060 N 0.68784 0.66766 0.83928 0.0
N1061 N 0.70357 0.66797 0.85346 0.0
N1062 N 0.68918 0.6828 0.85352 0.0
C1063 C 0.69796 0.66274 0.84393 0.0
C1064 C 0.69923 0.67799 0.85834 0.0
C1065 C 0.68341 0.67773 0.84402 0.0
C1066 C 0.70296 0.65183 0.83864 0.0
C1067 C 0.69686 0.64574 0.82937 0.0
C1068 C 0.70165 0.63553 0.8244 0.0
C1069 C 0.71269 0.63118 0.82851 0.0
C1070 C 0.71877 0.63725 0.83777 0.0
C1071 C 0.71397 0.64741 0.84278 0.0
C1072 C 0.70532 0.68366 0.86882 0.0
C1073 C 0.71544 0.67856 0.87429 0.0
C1074 C 0.72103 0.6839 0.88423 0.0
C1075 C 0.71667 0.6945 0.88891 0.0
C1076 C 0.70656 0.69959 0.88343 0.0
C1077 C 0.70097 0.69425 0.87354 0.0
C1078 C 0.67241 0.68326 0.83899 0.0
C1079 C 0.66918 0.69469 0.84261 0.0
C1080 C 0.33786 0.63731 0.80995 0.0
C1081 C 0.32783 0.63319 0.81592 0.0
C1082 C 0.32445 0.63921 0.82617 0.0
C1083 C 0.33091 0.64911 0.83033 0.0
H1084 H 0.33449 0.67158 0.85912 0.0
H1085 H 0.32804 0.68189 0.87676 0.0
H1086 H 0.35063 0.71173 0.86841 0.0
H1087 H 0.35712 0.70147 0.85073 0.0
H1088 H 0.37849 0.69604 0.8334 0.0
H1089 H 0.39607 0.70305 0.82351 0.0
H1090 H 0.39045 0.67643 0.79632 0.0
H1091 H 0.37293 0.66918 0.80639 0.0
H1092 H 0.35201 0.6501 0.80927 0.0
H1093 H 0.34082 0.6328 0.80211 0.0
H1094 H 0.31669 0.63638 0.83091 0.0
H1095 H 0.32797 0.65352 0.83823 0.0
N1096 N 0.34424 0.66965 0.83862 0.0
N1097 N 0.35989 0.68334 0.83682 0.0
N1098 N 0.35739 0.66792 0.82298 0.0
C1099 C 0.35026 0.6794 0.8427 0.0
C1100 C 0.36355 0.67765 0.82696 0.0
C1101 C 0.34771 0.66386 0.82875 0.0
C1102 C 0.34634 0.68567 0.85347 0.0
C1103 C 0.33809 0.68034 0.86101 0.0
C1104 C 0.33444 0.68622 0.87117 0.0
C1105 C 0.33883 0.69762 0.87397 0.0
C1106 C 0.34701 0.70299 0.86642 0.0
C1107 C 0.35078 0.69706 0.85633 0.0
C1108 C 0.37422 0.68202 0.82073 0.0
C1109 C 0.38094 0.69166 0.8253 0.0
C1110 C 0.39103 0.69575 0.81957 0.0
C1111 C 0.39468 0.69036 0.80905 0.0
C1112 C 0.38798 0.68072 0.80446 0.0
C1113 C 0.37787 0.6766 0.81022 0.0
C1114 C 0.34093 0.65326 0.82435 0.0
C1115 C 0.34433 0.64721 0.81411 0.0
C1116 C 0.32372 0.34766 0.88009 0.0
C1117 C 0.32665 0.33681 0.88556 0.0
C1118 C 0.33515 0.32962 0.88028 0.0
C1119 C 0.34053 0.33316 0.8698 0.0
H1120 H 0.3721 0.32894 0.84987 0.0
H1121 H 0.38873 0.31816 0.84163 0.0
H1122 H 0.38103 0.33368 0.80726 0.0
H1123 H 0.36455 0.34446 0.8154 0.0
H1124 H 0.3541 0.37139 0.81753 0.0
H1125 H 0.34713 0.38853 0.80643 0.0
H1126 H 0.31689 0.39085 0.82896 0.0
H1127 H 0.32407 0.37384 0.84037 0.0
H1128 H 0.32655 0.35959 0.86564 0.0
H1129 H 0.31737 0.35353 0.88398 0.0
H1130 H 0.33751 0.32113 0.88412 0.0
H1131 H 0.34696 0.32733 0.86597 0.0
N1132 N 0.35217 0.34129 0.84861 0.0
N1133 N 0.35299 0.35414 0.83229 0.0
N1134 N 0.33904 0.35729 0.84692 0.0
C1135 C 0.35715 0.34449 0.83823 0.0
C1136 C 0.34398 0.36062 0.83655 0.0
C1137 C 0.34307 0.34763 0.85301 0.0
C1138 C 0.36701 0.33759 0.83331 0.0
C1139 C 0.37393 0.33 0.84054 0.0
C1140 C 0.38347 0.32388 0.83586 0.0
C1141 C 0.38615 0.32507 0.82381 0.0
C1142 C 0.37911 0.3325 0.81655 0.0
C1143 C 0.36971 0.33874 0.82125 0.0
C1144 C 0.33964 0.37117 0.82986 0.0
C1145 C 0.34595 0.37552 0.82016 0.0
C1146 C 0.34191 0.38534 0.81372 0.0
C1147 C 0.33139 0.39106 0.81672 0.0
C1148 C 0.3251 0.38676 0.82647 0.0
C1149 C 0.32919 0.37696 0.83298 0.0
C1150 C 0.33752 0.34397 0.86427 0.0
C1151 C 0.32905 0.35118 0.86957 0.0
Cu1152 Cu 0.26664 0.27132 0.01676 0.0
N1153 N 0.26641 0.28482 0.00701 0.0
N1154 N 0.2711 0.29678 0.99196 0.0
C1155 C 0.27336 0.28644 0.99762 0.0
C1156 C 0.26237 0.30186 0.99806 0.0
C1157 C 0.25952 0.29448 0.00736 0.0
O1158 O 0.26697 0.2577 0.00598 0.0
C1159 C 0.27936 0.28259 0.03454 0.0
O1160 O 0.27067 0.29 0.03223 0.0
H1161 H 0.27977 0.28 0.99486 0.0
H1162 H 0.25292 0.29609 0.01392 0.0
N1163 N 0.25294 0.2697 0.02564 0.0
N1164 N 0.24113 0.26264 0.03967 0.0
C1165 C 0.25222 0.26294 0.03546 0.0
C1166 C 0.24192 0.27386 0.02356 0.0
C1167 C 0.23461 0.26951 0.0322 0.0
C1168 C 0.25809 0.25738 0.99866 0.0
O1169 O 0.25019 0.26582 0.99924 0.0
H1170 H 0.25964 0.25801 0.03918 0.0
H1171 H 0.23928 0.27941 0.01613 0.0
O1172 O 0.2798 0.2731 0.02841 0.0
H1173 H 0.25842 0.31036 0.99604 0.0
H1174 H 0.22522 0.27123 0.03287 0.0
Cu1175 Cu 0.7733 0.26022 0.0103 0.0
N1176 N 0.75926 0.26391 0.01933 0.0
N1177 N 0.7476 0.27194 0.03275 0.0
C1178 C 0.75869 0.27141 0.02857 0.0
C1179 C 0.74096 0.26453 0.02579 0.0
C1180 C 0.7482 0.25957 0.01752 0.0
O1181 O 0.78072 0.2521 0.02496 0.0
C1182 C 0.76409 0.27871 0.99412 0.0
O1183 O 0.76793 0.28597 1.00254 0.0
H1184 H 0.76621 0.27649 0.03205 0.0
H1185 H 0.7456 0.25324 0.01069 0.0
N1186 N 0.78743 0.25672 1.00128 0.0
N1187 N 0.79921 0.25082 0.98685 0.0
C1188 C 0.78796 0.25117 0.99073 0.0
C1189 C 0.79864 0.26 0.0042 0.0
C1190 C 0.80593 0.25634 0.99536 0.0
C1191 C 0.78666 0.25764 0.03304 0.0
O1192 O 0.78843 0.26912 0.03193 0.0
H1193 H 0.78021 0.24775 0.98589 0.0
H1194 H 0.80133 0.26481 0.01214 0.0
O1195 O 0.76552 0.2676 0.99547 0.0
H1196 H 0.73159 0.26264 0.02674 0.0
H1197 H 0.81546 0.25761 0.99528 0.0
Cu1198 Cu 0.75593 0.78228 0.00518 0.0
N1199 N 0.75695 0.79525 0.99479 0.0
N1200 N 0.76262 0.80626 0.97938 0.0
C1201 C 0.76392 0.7959 0.9853 0.0
C1202 C 0.75452 0.81236 0.98542 0.0
C1203 C 0.75106 0.80557 0.99493 0.0
O1204 O 0.75593 0.76804 0.99536 0.0
C1205 C 0.76954 0.79308 0.0228 0.0
O1206 O 0.76194 0.80147 0.02004 0.0
H1207 H 0.76968 0.7888 0.9827 0.0
H1208 H 0.74478 0.80805 1.00152 0.0
N1209 N 0.74186 0.78226 0.01361 0.0
N1210 N 0.72905 0.77751 0.02772 0.0
C1211 C 0.74022 0.77637 0.02385 0.0
C1212 C 0.73137 0.78733 0.01088 0.0
C1213 C 0.72346 0.78442 0.01956 0.0
C1214 C 0.7472 0.76718 0.98793 0.0
O1215 O 0.73925 0.77562 0.98768 0.0
H1216 H 0.74705 0.77108 0.02818 0.0
H1217 H 0.72951 0.79259 1.00303 0.0
O1218 O 0.76889 0.78336 0.01704 0.0
H1219 H 0.75144 0.82118 0.98325 0.0
H1220 H 0.71431 0.7872 0.0198 0.0
Cu1221 Cu 0.2704 0.75939 1.00146 0.0
N1222 N 0.26919 0.7723 0.01173 0.0
N1223 N 0.2623 0.78307 0.02662 0.0
C1224 C 0.26193 0.77252 0.02098 0.0
C1225 C 0.27016 0.78977 0.02065 0.0
C1226 C 0.27442 0.78308 0.01148 0.0
O1227 O 0.27144 0.74541 0.01166 0.0
C1228 C 0.25574 0.76933 0.98458 0.0
O1229 O 0.26362 0.77782 0.9866 0.0
H1230 H 0.2562 0.76514 0.02328 0.0
H1231 H 0.28066 0.78598 0.00495 0.0
N1232 N 0.28393 0.76021 0.99223 0.0
N1233 N 0.29607 0.75601 0.97751 0.0
C1234 C 0.28518 0.75434 0.98195 0.0
C1235 C 0.29437 0.76586 0.99434 0.0
C1236 C 0.3019 0.76324 0.9853 0.0
C1237 C 0.28082 0.74499 0.01826 0.0
O1238 O 0.28884 0.75345 0.01729 0.0
H1239 H 0.27833 0.74866 0.97801 0.0
H1240 H 0.29647 0.77128 1.00204 0.0
O1241 O 0.25675 0.75968 0.99042 0.0
H1242 H 0.27265 0.79884 0.02273 0.0
H1243 H 0.31096 0.76638 0.98453 0.0
Cu1244 Cu 0.00907 0.26404 0.26384 0.0
N1245 N 0.01784 0.26379 0.25003 0.0
N1246 N 0.03233 0.25899 0.23784 0.0
C1247 C 0.029 0.2598 0.24922 0.0
C1248 C 0.02293 0.26284 0.23124 0.0
C1249 C 0.01399 0.26575 0.2388 0.0
O1250 O 0.02004 0.26534 0.27741 0.0
C1251 C 0.99955 0.24128 0.25753 0.0
O1252 O 0.00969 0.23972 0.25232 0.0
H1253 H 0.03442 0.25715 0.25681 0.0
H1254 H 0.0051 0.26851 0.23625 0.0
N1255 N 0.99945 0.27734 0.26405 0.0
N1256 N 0.98474 0.28913 0.26942 0.0
C1257 C 0.99044 0.27883 0.27145 0.0
C1258 C 0.99952 0.28704 0.25708 0.0
C1259 C 0.99042 0.29433 0.26036 0.0
C1260 C 0.02733 0.25749 0.28103 0.0
O1261 O 0.02687 0.24687 0.27624 0.0
H1262 H 0.98797 0.27231 0.27802 0.0
H1263 H 0.00571 0.28866 0.25009 0.0
O1264 O 0.99821 0.25049 0.26385 0.0
H1265 H 0.02229 0.26292 0.22164 0.0
H1266 H 0.98821 0.30282 0.25643 0.0
Cu1267 Cu 0.76138 0.00565 0.26725 0.0
N1268 N 0.77464 0.01588 0.26736 0.0
N1269 N 0.78596 0.03122 0.26177 0.0
C1270 C 0.77563 0.02521 0.25997 0.0
C1271 C 0.7917 0.02543 0.27069 0.0
C1272 C 0.78472 0.01594 0.27409 0.0
O1273 O 0.74774 0.01618 0.26818 0.0
C1274 C 0.77211 0.99009 0.25273 0.0
O1275 O 0.7802 0.99201 0.26117 0.0
H1276 H 0.76879 0.02759 0.25348 0.0
H1277 H 0.78695 0.00947 0.28086 0.0
N1278 N 0.761 0.99511 0.28014 0.0
N1279 N 0.75515 0.97937 0.29075 0.0
C1280 C 0.75421 0.98521 0.28028 0.0
C1281 C 0.76649 0.9956 0.29091 0.0
C1282 C 0.7629 0.98592 0.29746 0.0
C1283 C 0.74772 0.02201 0.27787 0.0
O1284 O 0.75619 0.01999 0.28586 0.0
H1285 H 0.74843 0.98253 0.27289 0.0
H1286 H 0.77247 1.0026 0.29392 0.0
O1287 O 0.76228 0.99557 0.2532 0.0
H1288 H 0.80042 0.02773 0.27434 0.0
H1289 H 0.76578 0.98389 0.30648 0.0
Cu1290 Cu 0.01368 0.76113 0.26136 0.0
N1291 N 0.00431 0.77474 0.26242 0.0
N1292 N 0.98916 0.78698 0.25832 0.0
C1293 C 0.994 0.77628 0.25626 0.0
C1294 C 0.99679 0.79237 0.26613 0.0
C1295 C 0.0061 0.78481 0.26865 0.0
O1296 O 1.00241 0.74784 0.26151 0.0
C1297 C 0.02981 0.77201 0.2473 0.0
O1298 O 0.02932 0.77928 0.25637 0.0
H1299 H 0.99029 0.76973 0.25015 0.0
H1300 H 0.01372 0.78664 0.27445 0.0
N1301 N 0.02458 0.7592 0.27416 0.0
N1302 N 0.04006 0.75187 0.28465 0.0
C1303 C 0.03378 0.75165 0.27424 0.0
C1304 C 0.02501 0.76439 0.2849 0.0
C1305 C 0.03455 0.75991 0.29138 0.0
C1306 C 0.99698 0.74688 0.27124 0.0
O1307 O 0.99982 0.75429 0.27988 0.0
H1308 H 0.03583 0.74616 0.26672 0.0
H1309 H 0.01872 0.77079 0.28794 0.0
O1310 O 0.02322 0.76273 0.24724 0.0
H1311 H 0.99573 0.80114 0.26981 0.0
H1312 H 0.03704 0.76221 0.30044 0.0
Cu1313 Cu 0.25274 0.00963 0.25493 0.0
N1314 N 0.26704 0.01808 0.25649 0.0
N1315 N 0.27987 0.032 0.26316 0.0
C1316 C 0.26838 0.02846 0.26227 0.0
C1317 C 0.28597 0.0235 0.2576 0.0
C1318 C 0.27802 0.01491 0.25349 0.0
O1319 O 0.24031 0.02156 0.25451 0.0
C1320 C 0.258 0.99875 0.2774 0.0
O1321 O 0.26333 0.00881 0.28025 0.0
H1322 H 0.2611 0.03297 0.26631 0.0
H1323 H 0.28013 0.00678 0.24898 0.0
N1324 N 0.25204 1.00066 0.24101 0.0
N1325 N 0.24649 0.98596 0.22869 0.0
C1326 C 0.24544 0.99072 0.23958 0.0
C1327 C 0.25757 1.00226 0.23071 0.0
C1328 C 0.25418 0.99316 0.22308 0.0
C1329 C 0.23154 0.02149 0.24711 0.0
O1330 O 0.22945 0.01203 0.24057 0.0
H1331 H 0.23999 0.98704 0.24645 0.0
H1332 H 0.26359 0.00953 0.22888 0.0
O1333 O 0.252 0.99802 0.26767 0.0
H1334 H 0.2955 0.02335 0.25671 0.0
H1335 H 0.25699 0.99205 0.21405 0.0
Cu1336 Cu 1.00334 0.76948 0.7461 0.0
N1337 N 0.01207 0.7687 0.73228 0.0
N1338 N 0.0264 0.76365 0.71998 0.0
C1339 C 0.0229 0.76391 0.73133 0.0
C1340 C 0.01742 0.76857 0.71354 0.0
C1341 C 0.0086 0.77168 0.72115 0.0
O1342 O 0.01446 0.77168 0.75952 0.0
C1343 C 0.99267 0.74708 0.73994 0.0
O1344 O 1.00222 0.74544 0.73379 0.0
H1345 H 0.02786 0.76017 0.73875 0.0
H1346 H 1.00012 0.77552 0.71872 0.0
N1347 N 0.99383 0.78287 0.7458 0.0
N1348 N 0.97929 0.79505 0.75085 0.0
C1349 C 0.98406 0.78418 0.75223 0.0
C1350 C 0.99535 0.79324 0.74011 0.0
C1351 C 0.98638 0.80079 0.74321 0.0
C1352 C 0.02215 0.76441 0.76354 0.0
O1353 O 0.02204 0.75346 0.75956 0.0
H1354 H 0.98079 0.77738 0.75812 0.0
H1355 H 1.00257 0.79524 0.7343 0.0
O1356 O 0.99221 0.75607 0.74674 0.0
H1357 H 0.01714 0.76971 0.704 0.0
H1358 H 0.98522 0.8098 0.7401 0.0
Cu1359 Cu 0.26767 0.00758 0.776 0.0
N1360 N 0.28193 0.01632 0.77617 0.0
N1361 N 0.29477 0.03035 0.77042 0.0
C1362 C 0.28391 0.02538 0.76866 0.0
C1363 C 0.29986 0.02414 0.77945 0.0
C1364 C 0.29193 0.01544 0.78294 0.0
O1365 O 0.25519 0.01945 0.77712 0.0
C1366 C 0.27617 0.98979 0.76295 0.0
O1367 O 0.28301 0.99001 0.77261 0.0
H1368 H 0.27737 0.02835 0.76211 0.0
H1369 H 0.29342 0.00892 0.78985 0.0
N1370 N 0.26596 0.99707 0.78883 0.0
N1371 N 0.25878 0.98152 0.79889 0.0
C1372 C 0.25845 0.98767 0.78859 0.0
C1373 C 0.27126 0.99689 0.79969 0.0
C1374 C 0.26684 0.98733 0.80592 0.0
C1375 C 0.25628 0.02541 0.78673 0.0
O1376 O 0.26504 0.02278 0.79419 0.0
H1377 H 0.25273 0.98553 0.78099 0.0
H1378 H 0.27781 1.00328 0.80292 0.0
O1379 O 0.26796 0.99749 0.7619 0.0
H1380 H 0.30873 0.02563 0.78315 0.0
H1381 H 0.26947 0.98481 0.81488 0.0
Cu1382 Cu 0.02343 0.26809 0.7742 0.0
N1383 N 0.01382 0.28155 0.77422 0.0
N1384 N 0.99897 0.29362 0.76882 0.0
C1385 C 0.00435 0.28319 0.76685 0.0
C1386 C 0.00533 0.29875 0.77781 0.0
C1387 C 0.01451 0.2913 0.7811 0.0
O1388 O 0.01248 0.25451 0.77423 0.0
C1389 C 0.03945 0.27896 0.75983 0.0
O1390 O 0.03788 0.28713 0.76791 0.0
H1391 H 1.00139 0.27674 0.76027 0.0
H1392 H 0.02128 0.29297 0.78791 0.0
N1393 N 0.03356 0.26711 0.78768 0.0
N1394 N 0.04882 0.26115 0.79932 0.0
C1395 C 0.04376 0.26096 0.78829 0.0
C1396 C 0.03215 0.27139 0.79868 0.0
C1397 C 0.04153 0.26771 0.80588 0.0
C1398 C 0.00599 0.25399 0.78331 0.0
O1399 O 0.00748 0.26215 0.79154 0.0
H1400 H 0.04717 0.25612 0.78087 0.0
H1401 H 0.02469 0.27657 0.80139 0.0
O1402 O 0.03366 0.26921 0.76055 0.0
H1403 H 1.00362 0.30735 0.7816 0.0
H1404 H 0.04283 0.26967 0.81523 0.0
Cu1405 Cu 0.74514 0.02112 0.75173 0.0
N1406 N 0.74654 0.03037 0.76544 0.0
N1407 N 0.75405 0.04435 0.77767 0.0
C1408 C 0.7539 0.0398 0.76659 0.0
C1409 C 0.74644 0.03746 0.78374 0.0
C1410 C 0.74183 0.02883 0.77616 0.0
O1411 O 0.74478 0.03209 0.73835 0.0
C1412 C 0.75694 1.00184 0.76024 0.0
O1413 O 0.74741 1.00191 0.76668 0.0
H1414 H 0.75941 0.04295 0.75951 0.0
H1415 H 0.73573 0.02175 0.77841 0.0
N1416 N 0.73113 0.012 0.7508 0.0
N1417 N 0.71901 0.99697 0.74538 0.0
C1418 C 0.72976 1.00217 0.74412 0.0
C1419 C 0.72086 0.01316 0.75647 0.0
C1420 C 0.71335 1.00391 0.75312 0.0
C1421 C 0.73598 0.03911 0.73846 0.0
O1422 O 0.72853 0.03813 0.74716 0.0
H1423 H 0.73659 0.99891 0.73847 0.0
H1424 H 0.71901 0.02015 0.76269 0.0
O1425 O 0.75827 0.00998 0.75251 0.0
H1426 H 0.74443 0.03848 0.793 0.0
H1427 H 0.70453 1.00229 0.75634 0.0
Cu1428 Cu 0.2745 0.75681 0.50854 0.0
N1429 N 0.28736 0.75832 0.51935 0.0
N1430 N 0.29813 0.76494 0.53505 0.0
C1431 C 0.2876 0.76536 0.52899 0.0
C1432 C 0.30477 0.75729 0.52892 0.0
C1433 C 0.2981 0.75322 0.51926 0.0
O1434 O 0.26029 0.75538 0.51778 0.0
C1435 C 0.28404 0.77216 0.49248 0.0
O1436 O 0.29306 0.76513 0.49475 0.0
H1437 H 0.28024 0.77088 0.53135 0.0
H1438 H 0.30095 0.7471 0.51257 0.0
N1439 N 0.2754 0.74334 0.49896 0.0
N1440 N 0.27102 0.73105 0.48385 0.0
C1441 C 0.2696 0.74199 0.48842 0.0
C1442 C 0.28075 0.73291 0.50114 0.0
C1443 C 0.27804 0.7253 0.49184 0.0
C1444 C 0.25996 0.74633 0.52454 0.0
O1445 O 0.26893 0.73898 0.52461 0.0
H1446 H 0.26406 0.74878 0.48441 0.0
H1447 H 0.28597 0.73086 0.50907 0.0
O1448 O 0.27445 0.77038 0.49793 0.0
H1449 H 0.31377 0.75476 0.53127 0.0
H1450 H 0.28092 0.71621 0.49107 0.0
Cu1451 Cu 0.7661 0.76943 0.50016 0.0
N1452 N 0.77913 0.77073 0.49029 0.0
N1453 N 0.79087 0.76659 0.47519 0.0
C1454 C 0.78045 0.76426 0.48039 0.0
C1455 C 0.79632 0.77489 0.48213 0.0
C1456 C 0.78905 0.77744 0.49143 0.0
O1457 O 0.75214 0.76741 0.48955 0.0
C1458 C 0.77806 0.75918 0.51882 0.0
O1459 O 0.7837 0.76934 0.51751 0.0
H1460 H 0.77397 0.75773 0.47727 0.0
H1461 H 0.79097 0.78361 0.49858 0.0
N1462 N 0.76373 0.7831 0.5092 0.0
N1463 N 0.75645 0.79447 0.5235 0.0
C1464 C 0.75681 0.78349 0.51872 0.0
C1465 C 0.76796 0.79422 0.50786 0.0
C1466 C 0.76348 0.80124 0.51666 0.0
C1467 C 0.75017 0.77645 0.48298 0.0
O1468 O 0.75738 0.78565 0.48407 0.0
H1469 H 0.75223 0.77577 0.52209 0.0
H1470 H 0.77372 0.79706 0.50088 0.0
O1471 O 0.76941 0.75673 0.51162 0.0
H1472 H 0.80492 0.77888 0.48061 0.0
H1473 H 0.76512 0.81065 0.51775 0.0
Cu1474 Cu 0.77158 0.26387 0.50916 0.0
N1475 N 0.7716 0.24957 0.50071 0.0
N1476 N 0.76693 0.23654 0.48626 0.0
C1477 C 0.76738 0.24809 0.48948 0.0
C1478 C 0.7712 0.23056 0.49586 0.0
C1479 C 0.77402 0.23861 0.50475 0.0
O1480 O 0.77314 0.27661 0.49762 0.0
C1481 C 0.74816 0.25794 0.51642 0.0
O1482 O 0.74737 0.25173 0.50658 0.0
H1483 H 0.76428 0.25536 0.48398 0.0
H1484 H 0.77706 0.23657 0.51371 0.0
N1485 N 0.78423 0.26484 0.52031 0.0
N1486 N 0.79494 0.27084 0.53631 0.0
C1487 C 0.78509 0.27259 0.5294 0.0
C1488 C 0.79387 0.25795 0.52145 0.0
C1489 C 0.80049 0.26162 0.53131 0.0
C1490 C 0.78315 0.27738 0.49269 0.0
O1491 O 0.79156 0.26999 0.49601 0.0
H1492 H 0.77843 0.27918 0.53107 0.0
H1493 H 0.79592 0.25073 0.51557 0.0
O1494 O 0.75727 0.26452 0.51842 0.0
H1495 H 0.77166 0.22101 0.49666 0.0
H1496 H 0.80877 0.25782 0.5345 0.0
Cu1497 Cu 0.27748 0.26374 0.51971 0.0
N1498 N 0.27653 0.27787 0.5284 0.0
N1499 N 0.27004 0.2903 0.54219 0.0
C1500 C 0.26893 0.27943 0.53725 0.0
C1501 C 0.27871 0.29581 0.53619 0.0
C1502 C 0.28266 0.28814 0.52764 0.0
O1503 O 0.27832 0.25097 0.53155 0.0
C1504 C 0.26532 0.2723 0.50057 0.0
O1505 O 0.27461 0.27939 0.50177 0.0
H1506 H 0.26284 0.27259 0.54012 0.0
H1507 H 0.28944 0.28999 0.5213 0.0
N1508 N 0.29117 0.26261 0.51072 0.0
N1509 N 0.30263 0.25636 0.49615 0.0
C1510 C 0.29201 0.25535 0.50131 0.0
C1511 C 0.30167 0.26839 0.51163 0.0
C1512 C 0.30875 0.26459 0.50261 0.0
C1513 C 0.28683 0.25264 0.53915 0.0
O1514 O 0.29366 0.26205 0.53791 0.0
H1515 H 0.28482 0.24962 0.49817 0.0
H1516 H 0.30406 0.27488 0.51836 0.0
O1517 O 0.26416 0.26392 0.5081 0.0
H1518 H 0.28185 0.3048 0.53773 0.0
H1519 H 0.31773 0.26756 0.50103 0.0
Cu1520 Cu 0.75404 0.51055 0.75412 0.0
N1521 N 0.75362 0.52018 0.74053 0.0
N1522 N 0.75824 0.53526 0.72843 0.0
C1523 C 0.75768 0.53145 0.7398 0.0
C1524 C 0.75427 0.52598 0.72178 0.0
C1525 C 0.75155 0.51671 0.72924 0.0
O1526 O 0.75272 0.52077 0.76791 0.0
C1527 C 0.77153 0.49267 0.75972 0.0
O1528 O 0.76586 0.4908 0.76956 0.0
H1529 H 0.76091 0.53648 0.7474 0.0
H1530 H 0.74896 0.50783 0.72654 0.0
N1531 N 0.74108 0.4999 0.7542 0.0
N1532 N 0.72934 0.485 0.76017 0.0
C1533 C 0.73864 0.49223 0.76301 0.0
C1534 C 0.73284 0.49764 0.74558 0.0
C1535 C 0.72563 0.48843 0.7492 0.0
C1536 C 0.76033 0.52841 0.77169 0.0
O1537 O 0.7709 0.52878 0.76708 0.0
H1538 H 0.74378 0.49175 0.77124 0.0
H1539 H 0.73213 0.50224 0.73718 0.0
O1540 O 0.76846 0.50125 0.753 0.0
H1541 H 0.75378 0.52569 0.71219 0.0
H1542 H 0.71828 0.48455 0.74411 0.0
Cu1543 Cu 0.26564 0.51624 0.74282 0.0
N1544 N 0.2787 0.50614 0.74261 0.0
N1545 N 0.29044 0.49126 0.74851 0.0
C1546 C 0.28029 0.49714 0.75032 0.0
C1547 C 0.29545 0.49679 0.73924 0.0
C1548 C 0.2882 0.50602 0.73565 0.0
O1549 O 0.25177 0.50577 0.74355 0.0
C1550 C 0.27787 0.53299 0.75566 0.0
O1551 O 0.28473 0.53122 0.74663 0.0
H1552 H 0.27403 0.49492 0.75709 0.0
H1553 H 0.2899 0.5123 0.72864 0.0
N1554 N 0.26402 0.52579 0.72927 0.0
N1555 N 0.25751 0.54072 0.71777 0.0
C1556 C 0.25752 0.53573 0.72868 0.0
C1557 C 0.26832 0.52441 0.71835 0.0
C1558 C 0.26432 0.5336 0.71125 0.0
C1559 C 0.25014 0.49933 0.73433 0.0
O1560 O 0.25739 0.50072 0.72552 0.0
H1561 H 0.25264 0.53904 0.73609 0.0
H1562 H 0.27377 0.51712 0.71565 0.0
O1563 O 0.26822 0.52702 0.75618 0.0
H1564 H 0.30386 0.49451 0.73551 0.0
H1565 H 0.2663 0.5349 0.702 0.0
Cu1566 Cu 0.25494 0.49746 0.25866 0.0
N1567 N 0.24207 0.48688 0.25906 0.0
N1568 N 0.2309 0.47163 0.26519 0.0
C1569 C 0.24175 0.47688 0.26563 0.0
C1570 C 0.22415 0.47862 0.25802 0.0
C1571 C 0.23108 0.48801 0.25424 0.0
O1572 O 0.26901 0.48748 0.2598 0.0
C1573 C 0.25971 0.51697 0.2749 0.0
O1574 O 0.27054 0.51737 0.27089 0.0
H1575 H 0.2492 0.47383 0.27105 0.0
H1576 H 0.22821 0.49532 0.24867 0.0
N1577 N 0.25499 0.50606 0.24438 0.0
N1578 N 0.25957 0.52051 0.23156 0.0
C1579 C 0.25883 0.51735 0.24308 0.0
C1580 C 0.25307 0.50196 0.23328 0.0
C1581 C 0.2559 0.51084 0.22535 0.0
C1582 C 0.27799 0.48891 0.25331 0.0
O1583 O 0.27908 0.49878 0.24722 0.0
H1584 H 0.26172 0.52292 0.25042 0.0
H1585 H 0.25034 0.49297 0.23111 0.0
O1586 O 0.25264 0.5087 0.27147 0.0
H1587 H 0.21485 0.47713 0.25575 0.0
H1588 H 0.25558 0.5101 0.21578 0.0
Cu1589 Cu 0.76482 0.52051 0.2431 0.0
N1590 N 0.77766 0.51014 0.24386 0.0
N1591 N 0.78835 0.49471 0.25036 0.0
C1592 C 0.77784 0.50032 0.25065 0.0
C1593 C 0.79505 0.50128 0.24304 0.0
C1594 C 0.78843 0.51079 0.23903 0.0
O1595 O 0.75074 0.5103 0.24204 0.0
C1596 C 0.77588 0.53644 0.2581 0.0
O1597 O 0.7841 0.5345 0.25034 0.0
H1598 H 0.77051 0.49762 0.25607 0.0
H1599 H 0.79143 0.51785 0.23333 0.0
N1600 N 0.76479 0.53054 0.22986 0.0
N1601 N 0.75915 0.54561 0.21815 0.0
C1602 C 0.75747 0.53982 0.22846 0.0
C1603 C 0.77134 0.5304 0.22007 0.0
C1604 C 0.76791 0.53973 0.21284 0.0
C1605 C 0.74916 0.50501 0.23211 0.0
O1606 O 0.75649 0.50737 0.22356 0.0
H1607 H 0.75111 0.54233 0.23498 0.0
H1608 H 0.77797 0.52387 0.21818 0.0
O1609 O 0.76599 0.5309 0.25693 0.0
H1610 H 0.80413 0.49943 0.24083 0.0
H1611 H 0.7714 0.54185 0.20424 0.0
Cu1612 Cu 0.51266 0.25174 0.76211 0.0
N1613 N 0.50155 0.2639 0.76175 0.0
N1614 N 0.4867 0.27558 0.76695 0.0
C1615 C 0.49254 0.26539 0.76918 0.0
C1616 C 0.49227 0.2807 0.7578 0.0
C1617 C 0.50143 0.27347 0.75461 0.0
O1618 O 0.50758 0.23858 0.77202 0.0
C1619 C 0.52808 0.26115 0.7801 0.0
O1620 O 0.51879 0.25961 0.78672 0.0
H1621 H 0.49052 0.25926 0.77626 0.0
H1622 H 0.50769 0.27513 0.74769 0.0
N1623 N 0.51623 0.24644 0.74698 0.0
N1624 N 0.52697 0.2388 0.73254 0.0
C1625 C 0.52625 0.24077 0.74431 0.0
C1626 C 0.51035 0.24813 0.73656 0.0
C1627 C 0.51695 0.24342 0.72762 0.0
C1628 C 0.50056 0.22966 0.77075 0.0
O1629 O 0.50008 0.2221 0.77962 0.0
H1630 H 0.5331 0.23859 0.75087 0.0
H1631 H 0.50199 0.25271 0.73551 0.0
O1632 O 0.5273 0.25825 0.76919 0.0
H1633 H 0.4899 0.28906 0.75369 0.0
H1634 H 0.5146 0.24349 0.71824 0.0
Cu1635 Cu 0.51855 0.76322 0.76738 0.0
N1636 N 0.52915 0.76106 0.78036 0.0
N1637 N 0.54474 0.75421 0.79108 0.0
C1638 C 0.53909 0.75451 0.7803 0.0
C1639 C 0.53801 0.7609 0.79814 0.0
C1640 C 0.52845 0.7651 0.79153 0.0
O1641 O 0.52811 0.76477 0.75331 0.0
C1642 C 0.50076 0.74961 0.77636 0.0
O1643 O 0.50287 0.7574 0.78484 0.0
H1644 H 0.54207 0.75008 0.77244 0.0
H1645 H 0.52138 0.77054 0.79471 0.0
N1646 N 0.50966 0.77711 0.7686 0.0
N1647 N 0.49508 0.79005 0.76478 0.0
C1648 C 0.4995 0.77924 0.7624 0.0
C1649 C 0.51179 0.78689 0.77518 0.0
C1650 C 0.50283 0.79489 0.77283 0.0
C1651 C 0.53523 0.77364 0.75364 0.0
O1652 O 0.53536 0.78051 0.76305 0.0
H1653 H 0.49558 0.77303 0.75606 0.0
H1654 H 0.51939 0.78819 0.78116 0.0
O1655 O 0.50702 0.75015 0.76714 0.0
H1656 H 0.53966 0.76248 0.80751 0.0
H1657 H 0.50206 0.80357 0.77682 0.0
Cu1658 Cu 0.49589 0.75279 0.26377 0.0
N1659 N 0.48584 0.75363 0.27671 0.0
N1660 N 0.47084 0.76024 0.28739 0.0
C1661 C 0.4768 0.76131 0.27722 0.0
C1662 C 0.47636 0.7515 0.29353 0.0
C1663 C 0.48564 0.74747 0.28695 0.0
O1664 O 0.48522 0.75063 0.24987 0.0
C1665 C 0.5118 0.76823 0.27417 0.0
O1666 O 0.50934 0.76095 0.28289 0.0
H1667 H 0.47458 0.76749 0.27015 0.0
H1668 H 0.49188 0.74069 0.28957 0.0
N1669 N 0.50647 0.74007 0.26413 0.0
N1670 N 0.52218 0.72965 0.25863 0.0
C1671 C 0.5158 0.73961 0.25698 0.0
C1672 C 0.50691 0.73 0.27057 0.0
C1673 C 0.51664 0.72358 0.26723 0.0
C1674 C 0.47975 0.74065 0.24985 0.0
O1675 O 0.4821 0.73319 0.25856 0.0
H1676 H 0.5179 0.74657 0.25073 0.0
H1677 H 0.50053 0.72736 0.27706 0.0
O1678 O 0.50631 0.7668 0.26419 0.0
H1679 H 0.47403 0.7484 0.30226 0.0
H1680 H 0.51926 0.715 0.27066 0.0
Cu1681 Cu 0.51793 0.25038 0.25293 0.0
N1682 N 0.50835 0.23676 0.2533 0.0
N1683 N 0.49372 0.22484 0.25926 0.0
C1684 C 0.4985 0.23585 0.25969 0.0
C1685 C 0.50087 0.21854 0.2523 0.0
C1686 C 0.50989 0.22594 0.2486 0.0
O1687 O 0.50711 0.2638 0.25332 0.0
C1688 C 0.53738 0.24091 0.26406 0.0
O1689 O 0.53616 0.2346 0.2543 0.0
H1690 H 0.49517 0.24306 0.26494 0.0
H1691 H 0.51718 0.22351 0.24311 0.0
N1692 N 0.52638 0.2518 0.23896 0.0
N1693 N 0.54017 0.25869 0.22679 0.0
C1694 C 0.53548 0.25945 0.23764 0.0
C1695 C 0.52519 0.24595 0.22858 0.0
C1696 C 0.53369 0.25021 0.22103 0.0
C1697 C 0.50012 0.26417 0.24421 0.0
O1698 O 0.50102 0.25592 0.23608 0.0
H1699 H 0.53849 0.26555 0.24453 0.0
H1700 H 0.51863 0.23909 0.22664 0.0
O1701 O 0.52984 0.24904 0.26586 0.0
H1702 H 0.49972 0.20924 0.25011 0.0
H1703 H 0.53508 0.24718 0.21208 0.0
H1704 H 0.20933 0.21981 0.13935 0.0
H1705 H 0.21682 0.2302 0.12201 0.0
H1706 H 0.20905 0.19943 0.10036 0.0
H1707 H 0.20159 0.18891 0.11774 0.0
H1708 H 0.2307 0.20985 0.09543 0.0
H1709 H 0.19534 0.24364 0.09571 0.0
H1710 H 0.20365 0.24272 0.10952 0.0
H1711 H 0.19473 0.23027 0.1045 0.0
C1712 C 0.20922 0.21525 0.1309 0.0
C1713 C 0.20475 0.20358 0.12989 0.0
C1714 C 0.21347 0.22121 0.12099 0.0
C1715 C 0.21323 0.2157 0.10983 0.0
C1716 C 0.20923 0.20388 0.10887 0.0
H1717 H 0.219 0.25363 0.04279 0.0
H1718 H 0.21229 0.24178 0.05956 0.0
C1719 C 0.20503 0.19787 0.11881 0.0
C1720 C 0.21699 0.22234 0.09916 0.0
H1721 H 0.21133 0.24731 0.08284 0.0
C1722 C 0.22644 0.21801 0.09264 0.0
C1723 C 0.21129 0.23288 0.0954 0.0
C1724 C 0.20061 0.2376 0.10157 0.0
C1725 C 0.23052 0.22409 0.08263 0.0
C1726 C 0.22515 0.23492 0.07919 0.0
C1727 C 0.21553 0.23909 0.08555 0.0
C1728 C 0.22932 0.24205 0.06899 0.0
C1729 C 0.24041 0.21876 0.07573 0.0
C1730 C 0.24107 0.24632 0.06879 0.0
C1731 C 0.24492 0.25309 0.0592 0.0
C1732 C 0.23707 0.25586 0.04968 0.0
C1733 C 0.22525 0.25176 0.05001 0.0
C1734 C 0.22142 0.24493 0.05957 0.0
H1735 H 0.24113 0.20907 0.07735 0.0
H1736 H 0.23905 0.22028 0.06605 0.0
H1737 H 0.24897 0.22297 0.07859 0.0
H1738 H 0.24724 0.24451 0.0761 0.0
H1739 H 0.25401 0.2563 0.05933 0.0
H1740 H 0.83164 0.22103 0.13298 0.0
H1741 H 0.82385 0.23084 0.11506 0.0
H1742 H 0.8125 0.19701 0.10074 0.0
H1743 H 0.8204 0.18708 0.11857 0.0
H1744 H 0.83025 0.22733 0.09142 0.0
H1745 H 0.78243 0.21711 0.09718 0.0
H1746 H 0.7934 0.21561 0.10909 0.0
H1747 H 0.79197 0.20445 0.09775 0.0
C1748 C 0.82755 0.21564 0.12601 0.0
C1749 C 0.82666 0.20323 0.12727 0.0
C1750 C 0.82304 0.22129 0.11578 0.0
C1751 C 0.81745 0.2147 0.10661 0.0
C1752 C 0.81655 0.20232 0.1078 0.0
H1753 H 0.78526 0.23381 0.03789 0.0
H1754 H 0.79302 0.22337 0.05549 0.0
C1755 C 0.82107 0.19665 0.11802 0.0
C1756 C 0.81288 0.22077 0.09568 0.0
H1757 H 0.78762 0.22612 0.07903 0.0
C1758 C 0.82092 0.2271 0.08872 0.0
C1759 C 0.80071 0.22042 0.09214 0.0
C1760 C 0.79158 0.21413 0.09946 0.0
C1761 C 0.81718 0.23296 0.07826 0.0
C1762 C 0.80499 0.23271 0.07477 0.0
C1763 C 0.79695 0.22632 0.08169 0.0
C1764 C 0.80039 0.23909 0.06403 0.0
C1765 C 0.82636 0.23915 0.07092 0.0
C1766 C 0.80181 0.25144 0.06299 0.0
C1767 C 0.79742 0.25744 0.05292 0.0
C1768 C 0.79141 0.25123 0.04368 0.0
C1769 C 0.78988 0.23888 0.0448 0.0
C1770 C 0.79429 0.23289 0.05488 0.0
H1771 H 0.83542 0.23573 0.07288 0.0
H1772 H 0.82429 0.23808 0.06128 0.0
H1773 H 0.82643 0.24877 0.07301 0.0
H1774 H 0.80623 0.25648 0.07004 0.0
H1775 H 0.79868 0.26696 0.05242 0.0
H1776 H 0.81701 0.84024 0.11249 0.0
H1777 H 0.80965 0.83165 0.09377 0.0
H1778 H 0.8186 0.79671 0.10652 0.0
H1779 H 0.82562 0.8052 0.1255 0.0
H1780 H 0.82151 0.81819 0.07722 0.0
H1781 H 0.78379 0.79264 0.09574 0.0
H1782 H 0.7917 0.80404 0.10408 0.0
H1783 H 0.79819 0.78969 0.10232 0.0
C1784 C 0.81729 0.83071 0.1114 0.0
C1785 C 0.82181 0.82342 0.12059 0.0
C1786 C 0.81317 0.82582 0.10063 0.0
C1787 C 0.81342 0.81352 0.09878 0.0
C1788 C 0.81812 0.8062 0.10782 0.0
H1789 H 0.78188 0.77638 0.036 0.0
H1790 H 0.79423 0.77993 0.05409 0.0
C1791 C 0.82225 0.8111 0.11862 0.0
C1792 C 0.80873 0.80849 0.08735 0.0
H1793 H 0.78624 0.79146 0.07512 0.0
C1794 C 0.81387 0.81226 0.07677 0.0
C1795 C 0.7988 0.80067 0.08676 0.0
C1796 C 0.79271 0.79656 0.0978 0.0
C1797 C 0.80915 0.80871 0.06564 0.0
C1798 C 0.79893 0.80131 0.06504 0.0
C1799 C 0.7941 0.7971 0.0756 0.0
C1800 C 0.79233 0.799 0.05364 0.0
C1801 C 0.81505 0.81306 0.05458 0.0
C1802 C 0.7872 0.80852 0.04742 0.0
C1803 C 0.78015 0.80653 0.03721 0.0
C1804 C 0.77804 0.79496 0.03295 0.0
C1805 C 0.78342 0.7854 0.03901 0.0
C1806 C 0.79042 0.78741 0.04935 0.0
H1807 H 0.82453 0.81541 0.0564 0.0
H1808 H 0.81449 0.80628 0.04744 0.0
H1809 H 0.81048 0.82116 0.05131 0.0
H1810 H 0.78836 0.81751 0.05067 0.0
H1811 H 0.77615 0.8141 0.03278 0.0
H1812 H 0.19857 0.7973 0.11893 0.0
H1813 H 0.21034 0.79053 0.10234 0.0
H1814 H 0.21113 0.8261 0.0883 0.0
H1815 H 0.19928 0.83291 0.10471 0.0
H1816 H 0.20593 0.79234 0.07708 0.0
H1817 H 0.24656 0.81711 0.092 0.0
H1818 H 0.23427 0.81438 0.10159 0.0
H1819 H 0.23341 0.82594 0.09062 0.0
C1820 C 0.20112 0.80365 0.11223 0.0
C1821 C 0.19809 0.81568 0.11323 0.0
C1822 C 0.20789 0.79978 0.1028 0.0
C1823 C 0.2118 0.80787 0.09423 0.0
C1824 C 0.20844 0.81977 0.09497 0.0
H1825 H 0.25535 0.8053 0.03227 0.0
H1826 H 0.24299 0.81099 0.04876 0.0
C1827 C 0.20167 0.82365 0.10436 0.0
C1828 C 0.21948 0.80393 0.08456 0.0
H1829 H 0.24687 0.8082 0.07297 0.0
C1830 C 0.21491 0.79574 0.0762 0.0
C1831 C 0.23118 0.8084 0.08345 0.0
C1832 C 0.23672 0.81687 0.09244 0.0
C1833 C 0.22162 0.79213 0.06657 0.0
C1834 C 0.23331 0.79665 0.06542 0.0
C1835 C 0.23791 0.80477 0.07385 0.0
C1836 C 0.24092 0.79314 0.05551 0.0
C1837 C 0.21602 0.78376 0.05753 0.0
C1838 C 0.24406 0.78124 0.05395 0.0
C1839 C 0.25114 0.77797 0.04455 0.0
C1840 C 0.25533 0.78654 0.03655 0.0
C1841 C 0.25238 0.79849 0.0383 0.0
C1842 C 0.24526 0.80175 0.04769 0.0
H1843 H 0.20618 0.78363 0.05793 0.0
H1844 H 0.21852 0.78625 0.04839 0.0
H1845 H 0.2192 0.77463 0.05933 0.0
H1846 H 0.24109 0.77449 0.06006 0.0
H1847 H 0.25344 0.76873 0.04362 0.0
H1848 H 0.19066 0.78566 0.88834 0.0
H1849 H 0.19907 0.77587 0.90607 0.0
H1850 H 0.20644 0.81002 0.922 0.0
H1851 H 0.1977 0.81983 0.90458 0.0
H1852 H 0.22174 0.77759 0.91547 0.0
H1853 H 0.19009 0.79276 0.94858 0.0
H1854 H 0.18704 0.79389 0.9328 0.0
H1855 H 0.19612 0.80493 0.94037 0.0
C1856 C 0.19388 0.79108 0.89571 0.0
C1857 C 0.19348 0.80354 0.89502 0.0
C1858 C 0.19875 0.78547 0.90581 0.0
C1859 C 0.2032 0.7922 0.91546 0.0
C1860 C 0.20282 0.80462 0.91479 0.0
H1861 H 0.24852 0.79031 0.97531 0.0
H1862 H 0.23442 0.79374 0.9589 0.0
C1863 C 0.19796 0.81023 0.90473 0.0
C1864 C 0.20885 0.78636 0.926 0.0
H1865 H 0.20917 0.78628 0.95633 0.0
C1866 C 0.21885 0.77926 0.9244 0.0
C1867 C 0.20501 0.78847 0.93765 0.0
C1868 C 0.1939 0.79533 0.93996 0.0
C1869 C 0.22556 0.77491 0.93415 0.0
C1870 C 0.22213 0.77765 0.94578 0.0
C1871 C 0.21179 0.78421 0.94739 0.0
C1872 C 0.22999 0.7752 0.95628 0.0
C1873 C 0.23669 0.76801 0.93198 0.0
C1874 C 0.23201 0.76361 0.96042 0.0
C1875 C 0.24009 0.76159 0.96994 0.0
C1876 C 0.2463 0.77115 0.97533 0.0
C1877 C 0.24396 0.78273 0.97131 0.0
C1878 C 0.23587 0.78473 0.96195 0.0
H1879 H 0.23869 0.76753 0.92241 0.0
H1880 H 0.24439 0.77215 0.93684 0.0
H1881 H 0.23562 0.75884 0.93541 0.0
H1882 H 0.22747 0.75614 0.9562 0.0
H1883 H 0.24172 0.75258 0.97283 0.0
H1884 H 0.2299 0.1789 0.9161 0.0
H1885 H 0.23959 0.18711 0.93409 0.0
H1886 H 0.23518 0.22247 0.92015 0.0
H1887 H 0.22592 0.21435 0.90201 0.0
H1888 H 0.25723 0.21937 0.93135 0.0
H1889 H 0.22085 0.20329 0.95978 0.0
H1890 H 0.22821 0.19211 0.95148 0.0
H1891 H 0.21956 0.20316 0.94379 0.0
C1892 C 0.23116 0.18842 0.91678 0.0
C1893 C 0.22697 0.19596 0.90764 0.0
C1894 C 0.2366 0.1931 0.92713 0.0
C1895 C 0.23793 0.20543 0.92858 0.0
C1896 C 0.23419 0.21294 0.91929 0.0
H1897 H 0.23839 0.25356 0.98478 0.0
H1898 H 0.23532 0.23945 0.96874 0.0
C1899 C 0.22878 0.20827 0.90895 0.0
C1900 C 0.24269 0.21067 0.93991 0.0
H1901 H 0.236 0.2147 0.969 0.0
C1902 C 0.2527 0.21822 0.93964 0.0
C1903 C 0.23674 0.20922 0.95072 0.0
C1904 C 0.22569 0.20159 0.95152 0.0
C1905 C 0.25663 0.22468 0.94972 0.0
C1906 C 0.25047 0.22346 0.96042 0.0
C1907 C 0.24078 0.21554 0.96082 0.0
C1908 C 0.25269 0.23161 0.97066 0.0
C1909 C 0.26691 0.23327 0.94868 0.0
C1910 C 0.26351 0.23185 0.97727 0.0
C1911 C 0.26534 0.24003 0.9866 0.0
C1912 C 0.25639 0.24808 0.9894 0.0
C1913 C 0.24554 0.24757 0.98288 0.0
C1914 C 0.24372 0.23946 0.97367 0.0
H1915 H 0.26972 0.2343 0.93936 0.0
H1916 H 0.26451 0.24212 0.95213 0.0
H1917 H 0.2746 0.23002 0.95409 0.0
H1918 H 0.27051 0.22576 0.97519 0.0
H1919 H 0.27378 0.24017 0.99146 0.0
H1920 H 0.83651 0.18804 0.9007 0.0
H1921 H 0.82867 0.19698 0.91856 0.0
H1922 H 0.83213 0.23171 0.90292 0.0
H1923 H 0.83974 0.22282 0.88488 0.0
H1924 H 0.83943 0.21398 0.93384 0.0
H1925 H 0.79726 0.23036 0.91327 0.0
H1926 H 0.80635 0.2195 0.9062 0.0
H1927 H 0.81048 0.23493 0.90589 0.0
C1928 C 0.83551 0.19758 0.901 0.0
C1929 C 0.83867 0.20471 0.89131 0.0
C1930 C 0.83109 0.20267 0.91125 0.0
C1931 C 0.82965 0.21499 0.912 0.0
C1932 C 0.83298 0.22217 0.90245 0.0
H1933 H 0.8193 0.25667 0.97533 0.0
H1934 H 0.82654 0.24778 0.95727 0.0
C1935 C 0.83745 0.21708 0.89219 0.0
C1936 C 0.82483 0.22028 0.92288 0.0
H1937 H 0.80164 0.2362 0.93315 0.0
C1938 C 0.83116 0.21883 0.9337 0.0
C1939 C 0.81397 0.22647 0.9227 0.0
C1940 C 0.80653 0.22785 0.91143 0.0
C1941 C 0.82702 0.22356 0.9443 0.0
C1942 C 0.81632 0.23003 0.94406 0.0
C1943 C 0.80988 0.23131 0.93329 0.0
C1944 C 0.81173 0.23556 0.95492 0.0
C1945 C 0.83405 0.22147 0.95571 0.0
C1946 C 0.80084 0.23185 0.95946 0.0
C1947 C 0.79666 0.23689 0.96988 0.0
C1948 C 0.80329 0.2458 0.97591 0.0
C1949 C 0.81408 0.24966 0.97113 0.0
C1950 C 0.81824 0.24461 0.96076 0.0
H1951 H 0.84035 0.21403 0.9549 0.0
H1952 H 0.83927 0.2296 0.95802 0.0
H1953 H 0.82806 0.21952 0.96313 0.0
H1954 H 0.79566 0.22491 0.95506 0.0
H1955 H 0.78837 0.23363 0.9733 0.0
H1956 H 0.83047 0.83457 0.89306 0.0
H1957 H 0.82069 0.82664 0.9105 0.0
H1958 H 0.78781 0.84263 0.89867 0.0
H1959 H 0.79733 0.8501 0.88095 0.0
H1960 H 0.8102 0.83818 0.92836 0.0
H1961 H 0.77689 0.80919 0.9053 0.0
H1962 H 0.78932 0.81568 0.89781 0.0
H1963 H 0.77626 0.82428 0.90029 0.0
C1964 C 0.8211 0.83624 0.89404 0.0
C1965 C 0.8147 0.84295 0.88552 0.0
C1966 C 0.81554 0.83176 0.90408 0.0
C1967 C 0.80345 0.83386 0.90582 0.0
C1968 C 0.79707 0.84066 0.89741 0.0
H1969 H 0.75439 0.82131 0.96231 0.0
H1970 H 0.76466 0.82787 0.94458 0.0
C1971 C 0.8026 0.84508 0.88734 0.0
C1972 C 0.79761 0.82926 0.9166 0.0
H1973 H 0.77401 0.81273 0.92588 0.0
C1974 C 0.80235 0.83253 0.92781 0.0
C1975 C 0.78737 0.82186 0.9159 0.0
C1976 C 0.78222 0.81744 0.90418 0.0
C1977 C 0.79696 0.82887 0.93831 0.0
C1978 C 0.78661 0.82166 0.93759 0.0
C1979 C 0.78192 0.8183 0.9264 0.0
C1980 C 0.78045 0.81763 0.94835 0.0
C1981 C 0.8022 0.83294 0.95011 0.0
C1982 C 0.78587 0.80959 0.95628 0.0
C1983 C 0.78001 0.80582 0.96642 0.0
C1984 C 0.76862 0.81003 0.96884 0.0
C1985 C 0.7632 0.81802 0.96081 0.0
C1986 C 0.76903 0.82173 0.95064 0.0
H1987 H 0.80877 0.84026 0.94909 0.0
H1988 H 0.7951 0.83598 0.95599 0.0
H1989 H 0.80676 0.8254 0.95456 0.0
H1990 H 0.79463 0.80622 0.95461 0.0
H1991 H 0.78448 0.79973 0.97245 0.0
H1992 H 0.13313 0.22392 0.19979 0.0
H1993 H 0.11574 0.23438 0.20663 0.0
H1994 H 0.09716 0.20103 0.21059 0.0
H1995 H 0.11439 0.1905 0.20336 0.0
H1996 H 0.08358 0.21824 0.19896 0.0
H1997 H 0.10433 0.23596 0.24068 0.0
H1998 H 0.11234 0.2395 0.22758 0.0
H1999 H 0.11095 0.2243 0.23223 0.0
C2000 C 0.12533 0.2188 0.20205 0.0
C2001 C 0.12517 0.20635 0.20104 0.0
C2002 C 0.11544 0.22479 0.20609 0.0
C2003 C 0.10522 0.21847 0.20928 0.0
C2004 C 0.105 0.20607 0.20824 0.0
H2005 H 0.04602 0.24257 0.24916 0.0
H2006 H 0.06374 0.23319 0.24185 0.0
C2007 C 0.11488 0.20006 0.2042 0.0
C2008 C 0.09467 0.22481 0.21345 0.0
H2009 H 0.08518 0.24309 0.23527 0.0
C2010 C 0.08391 0.22367 0.2069 0.0
C2011 C 0.09511 0.2318 0.22388 0.0
C2012 C 0.10626 0.2329 0.23158 0.0
C2013 C 0.0736 0.22939 0.21046 0.0
C2014 C 0.07411 0.23659 0.22074 0.0
C2015 C 0.08485 0.23767 0.22732 0.0
C2016 C 0.06348 0.24263 0.22513 0.0
C2017 C 0.06218 0.22745 0.20335 0.0
C2018 C 0.05753 0.25122 0.21823 0.0
C2019 C 0.04737 0.25667 0.22242 0.0
C2020 C 0.04303 0.25371 0.23364 0.0
C2021 C 0.04917 0.24523 0.24058 0.0
C2022 C 0.05928 0.23979 0.23638 0.0
H2023 H 0.06263 0.21957 0.19747 0.0
H2024 H 0.05456 0.22626 0.20928 0.0
H2025 H 0.06044 0.23532 0.19767 0.0
H2026 H 0.06076 0.25373 0.20962 0.0
H2027 H 0.04295 0.26326 0.21693 0.0
H2028 H 0.83051 0.12854 0.22402 0.0
H2029 H 0.82258 0.11095 0.23375 0.0
H2030 H 0.80688 0.0991 0.2004 0.0
H2031 H 0.81528 0.11645 0.19045 0.0
H2032 H 0.80006 0.10302 0.23631 0.0
H2033 H 0.82524 0.0701 0.21086 0.0
H2034 H 0.82853 0.08578 0.21038 0.0
H2035 H 0.81621 0.07972 0.20176 0.0
C2036 C 0.8255 0.12214 0.21869 0.0
C2037 C 0.82371 0.12386 0.20639 0.0
C2038 C 0.82088 0.11211 0.2243 0.0
C2039 C 0.81433 0.10356 0.21779 0.0
C2040 C 0.81215 0.10543 0.20558 0.0
H2041 H 0.78027 0.03732 0.23902 0.0
H2042 H 0.78678 0.05504 0.22835 0.0
C2043 C 0.81683 0.11545 0.19993 0.0
C2044 C 0.80978 0.09276 0.22385 0.0
H2045 H 0.81104 0.06246 0.22403 0.0
C2046 C 0.80248 0.09416 0.23363 0.0
C2047 C 0.81296 0.08117 0.22038 0.0
C2048 C 0.82125 0.07906 0.21035 0.0
C2049 C 0.79821 0.08432 0.23996 0.0
C2050 C 0.80141 0.07277 0.23649 0.0
C2051 C 0.8086 0.07134 0.22665 0.0
C2052 C 0.79746 0.06206 0.24304 0.0
C2053 C 0.79019 0.08634 0.25022 0.0
C2054 C 0.80142 0.06005 0.2548 0.0
C2055 C 0.79772 0.04991 0.26092 0.0
C2056 C 0.78996 0.0416 0.25541 0.0
C2057 C 0.7861 0.04362 0.24359 0.0
C2058 C 0.78986 0.05371 0.23745 0.0
H2059 H 0.78647 0.09543 0.25011 0.0
H2060 H 0.78274 0.07981 0.25008 0.0
H2061 H 0.79535 0.08518 0.25868 0.0
H2062 H 0.80742 0.06631 0.25922 0.0
H2063 H 0.80081 0.04867 0.27002 0.0
H2064 H 0.90176 0.84518 0.21062 0.0
H2065 H 0.91963 0.83752 0.22073 0.0
H2066 H 0.9074 0.80172 0.21405 0.0
H2067 H 0.8895 0.80928 0.20398 0.0
H2068 H 0.92212 0.82289 0.24052 0.0
H2069 H 0.94077 0.80143 0.20105 0.0
H2070 H 0.92878 0.81191 0.19993 0.0
H2071 H 0.92587 0.79676 0.20403 0.0
C2072 C 0.90282 0.83567 0.21136 0.0
C2073 C 0.8942 0.82785 0.20639 0.0
C2074 C 0.91308 0.83131 0.21711 0.0
C2075 C 0.91498 0.81905 0.21798 0.0
C2076 C 0.9063 0.81122 0.21323 0.0
H2077 H 0.97027 0.77455 0.24899 0.0
H2078 H 0.95227 0.78255 0.23953 0.0
C2079 C 0.89605 0.81556 0.20747 0.0
C2080 C 0.92596 0.81444 0.22398 0.0
H2081 H 0.95028 0.79728 0.21966 0.0
C2082 C 0.92831 0.81734 0.23595 0.0
C2083 C 0.93405 0.8072 0.21801 0.0
C2084 C 0.93233 0.80422 0.20502 0.0
C2085 C 0.93838 0.813 0.24216 0.0
C2086 C 0.94643 0.80571 0.23621 0.0
C2087 C 0.9441 0.80284 0.22423 0.0
C2088 C 0.95733 0.80093 0.24221 0.0
C2089 C 0.94016 0.81602 0.25514 0.0
C2090 C 0.96625 0.80859 0.24679 0.0
C2091 C 0.97661 0.80404 0.25217 0.0
C2092 C 0.97834 0.79171 0.25301 0.0
C2093 C 0.96937 0.78407 0.24839 0.0
C2094 C 0.95901 0.78864 0.24302 0.0
H2095 H 0.9318 0.81903 0.25909 0.0
H2096 H 0.94352 0.80826 0.26026 0.0
H2097 H 0.94682 0.82331 0.25609 0.0
H2098 H 0.96528 0.81811 0.24604 0.0
H2099 H 0.98337 0.8102 0.25543 0.0
H2100 H 0.21143 0.88718 0.183 0.0
H2101 H 0.22081 0.90534 0.1907 0.0
H2102 H 0.18812 0.91497 0.20689 0.0
H2103 H 0.1785 0.89693 0.19894 0.0
H2104 H 0.21227 0.92955 0.18601 0.0
H2105 H 0.21461 0.91764 0.23396 0.0
H2106 H 0.21292 0.90662 0.22239 0.0
H2107 H 0.20051 0.9155 0.22628 0.0
C2108 C 0.20617 0.89318 0.18812 0.0
C2109 C 0.19415 0.8906 0.19026 0.0
C2110 C 0.21158 0.90352 0.19258 0.0
C2111 C 0.20518 0.91146 0.1994 0.0
C2112 C 0.19326 0.90888 0.20175 0.0
H2113 H 0.22484 0.97762 0.23465 0.0
H2114 H 0.2147 0.95975 0.22719 0.0
C2115 C 0.18779 0.89854 0.19723 0.0
C2116 C 0.21093 0.9226 0.20372 0.0
H2117 H 0.22109 0.93687 0.22878 0.0
C2118 C 0.21422 0.93118 0.19536 0.0
C2119 C 0.21339 0.92468 0.21591 0.0
C2120 C 0.21027 0.91562 0.2252 0.0
C2121 C 0.21979 0.94187 0.19888 0.0
C2122 C 0.22245 0.9439 0.21108 0.0
C2123 C 0.21909 0.93532 0.21943 0.0
C2124 C 0.22863 0.95487 0.21539 0.0
C2125 C 0.22251 0.951 0.18951 0.0
C2126 C 0.2399 0.95807 0.21132 0.0
C2127 C 0.2457 0.96835 0.21554 0.0
C2128 C 0.24044 0.97552 0.22408 0.0
C2129 C 0.2292 0.97223 0.22819 0.0
C2130 C 0.22337 0.96203 0.2239 0.0
H2131 H 0.21687 0.94967 0.18135 0.0
H2132 H 0.22115 0.96014 0.19283 0.0
H2133 H 0.23191 0.95018 0.18702 0.0
H2134 H 0.24429 0.95254 0.20499 0.0
H2135 H 0.25441 0.97054 0.21234 0.0
H2136 H 0.10731 0.82591 0.81313 0.0
H2137 H 0.08917 0.81708 0.80424 0.0
H2138 H 0.10547 0.78267 0.80505 0.0
H2139 H 0.12361 0.79139 0.8139 0.0
H2140 H 0.08549 0.80471 0.78331 0.0
H2141 H 0.0745 0.77606 0.82158 0.0
H2142 H 0.08544 0.78786 0.82267 0.0
H2143 H 0.08917 0.77384 0.81625 0.0
C2144 C 0.10707 0.81647 0.81134 0.0
C2145 C 0.11691 0.80936 0.81434 0.0
C2146 C 0.09666 0.81143 0.80632 0.0
C2147 C 0.09584 0.79916 0.80421 0.0
C2148 C 0.10575 0.79209 0.8069 0.0
H2149 H 0.04213 0.7525 0.77122 0.0
H2150 H 0.05984 0.76087 0.78143 0.0
C2151 C 0.11613 0.79711 0.81195 0.0
C2152 C 0.08473 0.7938 0.79896 0.0
H2153 H 0.06311 0.77292 0.80373 0.0
C2154 C 0.08056 0.79781 0.78781 0.0
C2155 C 0.0783 0.78476 0.80481 0.0
C2156 C 0.082 0.78044 0.81704 0.0
C2157 C 0.07029 0.7929 0.78227 0.0
C2158 C 0.06388 0.78386 0.78811 0.0
C2159 C 0.06804 0.77983 0.79925 0.0
C2160 C 0.05279 0.77857 0.78278 0.0
C2161 C 0.06653 0.79727 0.77008 0.0
C2162 C 0.04279 0.78562 0.78053 0.0
C2163 C 0.03266 0.78088 0.77474 0.0
C2164 C 0.03227 0.76893 0.77111 0.0
C2165 C 0.04211 0.76173 0.77387 0.0
C2166 C 0.05226 0.7665 0.77969 0.0
H2167 H 0.07388 0.80199 0.76564 0.0
H2168 H 0.06341 0.78979 0.76434 0.0
H2169 H 0.05909 0.80355 0.77089 0.0
H2170 H 0.04291 0.79489 0.78306 0.0
H2171 H 0.02525 0.78668 0.77283 0.0
H2172 H 0.22959 0.12393 0.82732 0.0
H2173 H 0.23512 0.10577 0.81714 0.0
H2174 H 0.19819 0.09561 0.81331 0.0
H2175 H 0.1926 0.11354 0.82387 0.0
H2176 H 0.21154 0.07742 0.8212 0.0
H2177 H 0.23261 0.09747 0.7822 0.0
H2178 H 0.23889 0.10317 0.79588 0.0
H2179 H 0.22353 0.10589 0.792 0.0
C2180 C 0.22263 0.11782 0.82437 0.0
C2181 C 0.21063 0.12025 0.82642 0.0
C2182 C 0.2258 0.10751 0.81837 0.0
C2183 C 0.21706 0.09942 0.81421 0.0
C2184 C 0.20509 0.10177 0.8163 0.0
H2185 H 0.24014 0.03754 0.77225 0.0
H2186 H 0.22856 0.05507 0.7777 0.0
C2187 C 0.20191 0.11208 0.82229 0.0
C2188 C 0.22049 0.08817 0.80835 0.0
H2189 H 0.23743 0.07707 0.78637 0.0
C2190 C 0.21705 0.07736 0.81347 0.0
C2191 C 0.22747 0.08802 0.7981 0.0
C2192 C 0.23073 0.09926 0.79164 0.0
C2193 C 0.22098 0.06647 0.80908 0.0
C2194 C 0.22873 0.06638 0.79942 0.0
C2195 C 0.23158 0.07713 0.79384 0.0
C2196 C 0.23504 0.05543 0.79599 0.0
C2197 C 0.21697 0.05517 0.815 0.0
C2198 C 0.24253 0.04989 0.80439 0.0
C2199 C 0.24907 0.04 0.80133 0.0
C2200 C 0.24839 0.03538 0.78973 0.0
C2201 C 0.24079 0.04083 0.78128 0.0
C2202 C 0.23422 0.05085 0.78437 0.0
H2203 H 0.20825 0.0563 0.81918 0.0
H2204 H 0.21624 0.04772 0.80858 0.0
H2205 H 0.22354 0.05277 0.82212 0.0
H2206 H 0.24354 0.05338 0.81332 0.0
H2207 H 0.25483 0.03608 0.8081 0.0
H2208 H 0.90741 0.2176 0.81264 0.0
H2209 H 0.92581 0.2249 0.80422 0.0
H2210 H 0.93589 0.18903 0.79642 0.0
H2211 H 0.91764 0.1816 0.80525 0.0
H2212 H 0.95389 0.2013 0.80721 0.0
H2213 H 0.93544 0.22811 0.77009 0.0
H2214 H 0.92912 0.2321 0.78393 0.0
H2215 H 0.92659 0.21743 0.77799 0.0
C2216 C 0.91352 0.21124 0.80915 0.0
C2217 C 0.91102 0.199 0.80966 0.0
C2218 C 0.92399 0.21545 0.80417 0.0
C2219 C 0.93216 0.20754 0.79946 0.0
C2220 C 0.92966 0.19532 0.79987 0.0
H2221 H 0.99526 0.23959 0.76618 0.0
H2222 H 0.97801 0.22628 0.76869 0.0
C2223 C 0.91919 0.19109 0.80487 0.0
C2224 C 0.94364 0.21205 0.79493 0.0
H2225 H 0.95557 0.23291 0.77661 0.0
C2226 C 0.95425 0.20806 0.80036 0.0
C2227 C 0.9442 0.2207 0.78583 0.0
C2228 C 0.93323 0.22474 0.77904 0.0
C2229 C 0.96529 0.21305 0.79751 0.0
C2230 C 0.96574 0.22239 0.78913 0.0
C2231 C 0.95523 0.22583 0.78313 0.0
C2232 C 0.97672 0.22958 0.78752 0.0
C2233 C 0.97637 0.20843 0.80371 0.0
C2234 C 0.9817 0.23583 0.79723 0.0
C2235 C 0.99143 0.24339 0.79582 0.0
C2236 C 0.99645 0.24495 0.78464 0.0
C2237 C 0.99165 0.2385 0.77492 0.0
C2238 C 0.98178 0.23094 0.77633 0.0
H2239 H 0.97517 0.19906 0.80654 0.0
H2240 H 0.98414 0.20903 0.79789 0.0
H2241 H 0.97833 0.2138 0.81179 0.0
H2242 H 0.97782 0.23514 0.80589 0.0
H2243 H 0.99487 0.24821 0.80351 0.0
H2244 H 0.81302 0.90844 0.78861 0.0
H2245 H 0.80452 0.92591 0.77887 0.0
H2246 H 0.81612 0.94754 0.80868 0.0
H2247 H 0.8243 0.92996 0.81862 0.0
H2248 H 0.79421 0.952 0.80317 0.0
H2249 H 0.81861 0.95316 0.76144 0.0
H2250 H 0.81153 0.93901 0.76338 0.0
H2251 H 0.82305 0.94383 0.77379 0.0
C2252 C 0.81389 0.91696 0.79301 0.0
C2253 C 0.81932 0.91785 0.80437 0.0
C2254 C 0.80912 0.92697 0.78739 0.0
C2255 C 0.8099 0.93813 0.7929 0.0
C2256 C 0.81547 0.93905 0.8042 0.0
H2257 H 0.78131 1.00313 0.75881 0.0
H2258 H 0.79555 0.98821 0.76631 0.0
C2259 C 0.82009 0.929 0.8099 0.0
C2260 C 0.80394 0.94859 0.78738 0.0
H2261 H 0.80005 0.96384 0.76131 0.0
C2262 C 0.79566 0.95468 0.79407 0.0
C2263 C 0.80593 0.95228 0.77557 0.0
C2264 C 0.81537 0.9468 0.76819 0.0
C2265 C 0.78892 0.96393 0.78914 0.0
C2266 C 0.79021 0.96697 0.77705 0.0
C2267 C 0.79892 0.96135 0.7705 0.0
C2268 C 0.78201 0.97542 0.77103 0.0
C2269 C 0.78036 0.97028 0.79692 0.0
C2270 C 0.76979 0.97291 0.77068 0.0
C2271 C 0.76174 0.98137 0.76656 0.0
C2272 C 0.76574 0.99244 0.76246 0.0
C2273 C 0.77802 0.99465 0.76191 0.0
C2274 C 0.78613 0.98617 0.76622 0.0
H2275 H 0.7831 0.96961 0.80645 0.0
H2276 H 0.77969 0.9798 0.7945 0.0
H2277 H 0.77142 0.96613 0.79581 0.0
H2278 H 0.76643 0.96456 0.77404 0.0
H2279 H 0.75233 0.97937 0.76692 0.0
H2280 H 0.17601 0.11423 0.20735 0.0
H2281 H 0.1823 0.09567 0.21672 0.0
H2282 H 0.21896 0.10559 0.21229 0.0
H2283 H 0.21278 0.12426 0.20303 0.0
H2284 H 0.21351 0.0824 0.20507 0.0
H2285 H 0.19713 0.09105 0.25017 0.0
H2286 H 0.18617 0.0928 0.23841 0.0
H2287 H 0.19883 0.10263 0.23925 0.0
C2288 C 0.18543 0.11255 0.2085 0.0
C2289 C 0.19389 0.1208 0.20447 0.0
C2290 C 0.189 0.10193 0.21387 0.0
C2291 C 0.2011 0.09932 0.21538 0.0
C2292 C 0.20957 0.10744 0.21126 0.0
H2293 H 0.23569 0.04362 0.25659 0.0
H2294 H 0.22766 0.06247 0.24932 0.0
C2295 C 0.20601 0.11808 0.2059 0.0
C2296 C 0.20493 0.08796 0.2209 0.0
H2297 H 0.20394 0.07157 0.24642 0.0
C2298 C 0.21143 0.08004 0.21412 0.0
C2299 C 0.20232 0.08495 0.23275 0.0
C2300 C 0.19582 0.09333 0.24063 0.0
C2301 C 0.21525 0.06913 0.21878 0.0
C2302 C 0.21235 0.06596 0.23052 0.0
C2303 C 0.20602 0.07395 0.23739 0.0
C2304 C 0.21611 0.05449 0.23582 0.0
C2305 C 0.22252 0.06114 0.21118 0.0
C2306 C 0.21191 0.04373 0.23096 0.0
C2307 C 0.21645 0.03294 0.23509 0.0
C2308 C 0.22527 0.03269 0.24421 0.0
C2309 C 0.22893 0.04347 0.24954 0.0
C2310 C 0.22437 0.05426 0.24539 0.0
H2311 H 0.22627 0.06599 0.20353 0.0
H2312 H 0.22994 0.05715 0.21648 0.0
H2313 H 0.21679 0.05383 0.20763 0.0
H2314 H 0.20537 0.0437 0.22371 0.0
H2315 H 0.21337 0.02483 0.23083 0.0
H2316 H 0.19693 0.88445 0.80684 0.0
H2317 H 0.20805 0.90237 0.80138 0.0
H2318 H 0.2115 0.91224 0.83827 0.0
H2319 H 0.20036 0.89447 0.84379 0.0
H2320 H 0.20375 0.92659 0.80558 0.0
H2321 H 0.24598 0.9126 0.82773 0.0
H2322 H 0.23373 0.90244 0.82485 0.0
H2323 H 0.23349 0.91242 0.83726 0.0
C2324 C 0.19995 0.89049 0.81379 0.0
C2325 C 0.19785 0.88792 0.82578 0.0
C2326 C 0.20636 0.90071 0.81065 0.0
C2327 C 0.21084 0.90853 0.81944 0.0
C2328 C 0.20842 0.90619 0.83136 0.0
H2329 H 0.25274 0.97375 0.82079 0.0
H2330 H 0.24094 0.95611 0.82549 0.0
C2331 C 0.20203 0.896 0.8345 0.0
C2332 C 0.21803 0.91914 0.81618 0.0
H2333 H 0.24522 0.93244 0.82072 0.0
C2334 C 0.21284 0.92784 0.80883 0.0
C2335 C 0.2299 0.92078 0.82043 0.0
C2336 C 0.23617 0.91153 0.82792 0.0
C2337 C 0.21908 0.93826 0.80585 0.0
C2338 C 0.23092 0.93993 0.81016 0.0
C2339 C 0.23613 0.93119 0.81745 0.0
C2340 C 0.23808 0.95067 0.80722 0.0
C2341 C 0.21281 0.94753 0.79838 0.0
C2342 C 0.24059 0.95341 0.7954 0.0
C2343 C 0.24737 0.96349 0.79268 0.0
C2344 C 0.25189 0.97103 0.80173 0.0
C2345 C 0.24951 0.96814 0.81359 0.0
C2346 C 0.24271 0.95807 0.8163 0.0
H2347 H 0.20301 0.9464 0.79849 0.0
H2348 H 0.21518 0.95661 0.80152 0.0
H2349 H 0.21556 0.94671 0.78905 0.0
H2350 H 0.2374 0.94769 0.78825 0.0
H2351 H 0.24921 0.96525 0.78347 0.0
H2352 H 0.15173 0.22183 0.83332 0.0
H2353 H 0.13411 0.23259 0.82634 0.0
H2354 H 0.11281 0.20085 0.83012 0.0
H2355 H 0.13046 0.19 0.83692 0.0
H2356 H 0.10757 0.21184 0.80955 0.0
H2357 H 0.10762 0.24477 0.84598 0.0
H2358 H 0.12128 0.24474 0.83821 0.0
H2359 H 0.1169 0.23184 0.8465 0.0
C2360 C 0.14328 0.21717 0.83276 0.0
C2361 C 0.14249 0.20507 0.83574 0.0
C2362 C 0.13319 0.22334 0.8288 0.0
C2363 C 0.12206 0.21761 0.82792 0.0
C2364 C 0.12128 0.20549 0.83076 0.0
H2365 H 0.0537 0.25247 0.82136 0.0
H2366 H 0.07146 0.24179 0.82805 0.0
C2367 C 0.13138 0.19929 0.83462 0.0
C2368 C 0.11127 0.22414 0.82381 0.0
H2369 H 0.09436 0.24833 0.82956 0.0
C2370 C 0.10466 0.2198 0.81395 0.0
C2371 C 0.10736 0.23444 0.82965 0.0
C2372 C 0.11358 0.23916 0.84074 0.0
C2373 C 0.09435 0.22551 0.80969 0.0
C2374 C 0.09069 0.23606 0.81525 0.0
C2375 C 0.09722 0.24033 0.8252 0.0
C2376 C 0.07995 0.24265 0.8111 0.0
C2377 C 0.08733 0.22001 0.79945 0.0
C2378 C 0.07885 0.24687 0.79939 0.0
C2379 C 0.06866 0.25293 0.79552 0.0
C2380 C 0.05943 0.25507 0.80334 0.0
C2381 C 0.06067 0.25107 0.81514 0.0
C2382 C 0.07081 0.24492 0.81896 0.0
H2383 H 0.08927 0.21042 0.79853 0.0
H2384 H 0.07763 0.22102 0.80056 0.0
H2385 H 0.08977 0.22448 0.79108 0.0
H2386 H 0.08591 0.24555 0.79323 0.0
H2387 H 0.06807 0.25608 0.78645 0.0
H2388 H 0.82305 0.11932 0.83233 0.0
H2389 H 0.81007 0.10325 0.82499 0.0
H2390 H 0.81119 0.11774 0.78961 0.0
H2391 H 0.82416 0.13389 0.7969 0.0
H2392 H 0.78775 0.1053 0.81406 0.0
H2393 H 0.81882 0.08282 0.78436 0.0
H2394 H 0.82377 0.0935 0.79541 0.0
H2395 H 0.81719 0.09841 0.78155 0.0
C2396 C 0.82055 0.1191 0.82298 0.0
C2397 C 0.82464 0.12792 0.8152 0.0
C2398 C 0.81316 0.10988 0.8188 0.0
C2399 C 0.80976 0.10922 0.80674 0.0
C2400 C 0.8139 0.11793 0.79891 0.0
H2401 H 0.76298 0.06272 0.76504 0.0
H2402 H 0.77626 0.07855 0.77234 0.0
C2403 C 0.82132 0.12716 0.80309 0.0
C2404 C 0.80147 0.09969 0.80248 0.0
H2405 H 0.79869 0.07636 0.78325 0.0
C2406 C 0.79016 0.09893 0.80737 0.0
C2407 C 0.80461 0.0914 0.79373 0.0
C2408 C 0.81679 0.09146 0.78852 0.0
C2409 C 0.78184 0.09025 0.80359 0.0
C2410 C 0.78498 0.08197 0.79484 0.0
C2411 C 0.79629 0.08272 0.78995 0.0
C2412 C 0.77666 0.07248 0.79056 0.0
C2413 C 0.76966 0.09019 0.80881 0.0
C2414 C 0.77249 0.06377 0.79837 0.0
C2415 C 0.7649 0.05466 0.79421 0.0
C2416 C 0.76142 0.05403 0.78212 0.0
C2417 C 0.76559 0.06283 0.77436 0.0
C2418 C 0.77315 0.07192 0.77853 0.0
H2419 H 0.76765 0.09881 0.81302 0.0
H2420 H 0.76268 0.0882 0.80191 0.0
H2421 H 0.76925 0.0832 0.81574 0.0
H2422 H 0.77527 0.06388 0.80765 0.0
H2423 H 0.76203 0.04796 0.8004 0.0
H2424 H 0.88524 0.81948 0.80878 0.0
H2425 H 0.90218 0.81068 0.79899 0.0
H2426 H 0.91758 0.8455 0.79436 0.0
H2427 H 0.90091 0.85431 0.80438 0.0
H2428 H 0.90942 0.81529 0.77578 0.0
H2429 H 0.9453 0.82666 0.80871 0.0
H2430 H 0.92977 0.82719 0.81215 0.0
H2431 H 0.93653 0.83912 0.80407 0.0
C2432 C 0.89234 0.82524 0.80586 0.0
C2433 C 0.89171 0.8376 0.80736 0.0
C2434 C 0.90197 0.82021 0.8002 0.0
C2435 C 0.9112 0.82743 0.79607 0.0
C2436 C 0.91066 0.83974 0.79766 0.0
H2437 H 0.97475 0.81807 0.75593 0.0
H2438 H 0.95784 0.82568 0.76658 0.0
C2439 C 0.90105 0.84477 0.80327 0.0
C2440 C 0.92115 0.82219 0.78959 0.0
H2441 H 0.95137 0.81997 0.78982 0.0
C2442 C 0.91859 0.81621 0.77889 0.0
C2443 C 0.93311 0.82346 0.79365 0.0
C2444 C 0.93637 0.82936 0.80533 0.0
C2445 C 0.92768 0.81172 0.77198 0.0
C2446 C 0.93964 0.81309 0.77598 0.0
C2447 C 0.9422 0.81898 0.78674 0.0
C2448 C 0.94966 0.80846 0.76916 0.0
C2449 C 0.92443 0.80584 0.76029 0.0
C2450 C 0.95068 0.79626 0.7671 0.0
C2451 C 0.9603 0.79189 0.76095 0.0
C2452 C 0.96914 0.79963 0.7568 0.0
C2453 C 0.96805 0.81187 0.75885 0.0
C2454 C 0.95843 0.81623 0.76502 0.0
H2455 H 0.91532 0.80817 0.75711 0.0
H2456 H 0.93079 0.80841 0.75337 0.0
H2457 H 0.92475 0.79607 0.76141 0.0
H2458 H 0.94412 0.79008 0.77038 0.0
H2459 H 0.96077 0.78244 0.75944 0.0
H2460 H 0.79342 0.89347 0.194 0.0
H2461 H 0.78318 0.91102 0.20113 0.0
H2462 H 0.81694 0.9275 0.21026 0.0
H2463 H 0.82724 0.9102 0.20284 0.0
H2464 H 0.78381 0.92089 0.22359 0.0
H2465 H 0.80036 0.95342 0.19106 0.0
H2466 H 0.80156 0.93761 0.18899 0.0
H2467 H 0.81216 0.94546 0.19842 0.0
C2468 C 0.79868 0.9009 0.19737 0.0
C2469 C 0.81118 0.90042 0.19779 0.0
C2470 C 0.7928 0.9109 0.2015 0.0
C2471 C 0.79928 0.92068 0.20604 0.0
C2472 C 0.81174 0.92018 0.20657 0.0
H2473 H 0.79366 0.98281 0.24601 0.0
H2474 H 0.79827 0.96626 0.23317 0.0
C2475 C 0.81762 0.9102 0.20246 0.0
C2476 C 0.7931 0.93123 0.21068 0.0
H2477 H 0.79233 0.96147 0.20882 0.0
C2478 C 0.78548 0.92975 0.22023 0.0
C2479 C 0.7952 0.94279 0.20622 0.0
C2480 C 0.80267 0.94493 0.19553 0.0
C2481 C 0.78055 0.93956 0.22592 0.0
C2482 C 0.78317 0.95115 0.22185 0.0
C2483 C 0.79032 0.95259 0.21194 0.0
C2484 C 0.77995 0.96186 0.22868 0.0
C2485 C 0.77313 0.9375 0.23667 0.0
C2486 C 0.76807 0.96515 0.23017 0.0
C2487 C 0.76537 0.97475 0.23754 0.0
C2488 C 0.77453 0.9811 0.24355 0.0
C2489 C 0.78638 0.97805 0.24159 0.0
C2490 C 0.78905 0.96859 0.23422 0.0
H2491 H 0.77324 0.9281 0.23962 0.0
H2492 H 0.77638 0.94319 0.24415 0.0
H2493 H 0.7638 0.93994 0.23452 0.0
H2494 H 0.76091 0.96016 0.22585 0.0
H2495 H 0.75616 0.97688 0.2389 0.0
H2496 H 0.1241 0.80971 0.20694 0.0
H2497 H 0.10651 0.80019 0.21501 0.0
H2498 H 0.09272 0.79339 0.17954 0.0
H2499 H 0.11014 0.80325 0.17136 0.0
H2500 H 0.07604 0.80289 0.19368 0.0
H2501 H 0.0976 0.76523 0.2169 0.0
H2502 H 0.10425 0.77921 0.22107 0.0
H2503 H 0.10509 0.7741 0.206 0.0
C2504 C 0.11733 0.80622 0.20083 0.0
C2505 C 0.11857 0.80726 0.18848 0.0
C2506 C 0.10733 0.80062 0.20547 0.0
C2507 C 0.09838 0.79586 0.19789 0.0
C2508 C 0.09957 0.79688 0.18556 0.0
H2509 H 0.03904 0.75681 0.2308 0.0
H2510 H 0.05485 0.7614 0.2168 0.0
C2511 C 0.10958 0.80247 0.18091 0.0
C2512 C 0.08747 0.7905 0.20288 0.0
H2513 H 0.07795 0.77012 0.22307 0.0
C2514 C 0.07645 0.7956 0.19996 0.0
C2515 C 0.08792 0.78082 0.21091 0.0
C2516 C 0.09934 0.77444 0.21381 0.0
C2517 C 0.06601 0.79178 0.20539 0.0
C2518 C 0.06661 0.78272 0.21409 0.0
C2519 C 0.0775 0.77712 0.21648 0.0
C2520 C 0.05642 0.77992 0.22172 0.0
C2521 C 0.05444 0.79766 0.20194 0.0
C2522 C 0.05207 0.78877 0.22909 0.0
C2523 C 0.04317 0.78618 0.23705 0.0
C2524 C 0.03837 0.77464 0.23788 0.0
C2525 C 0.0425 0.76579 0.2303 0.0
C2526 C 0.05155 0.76839 0.22235 0.0
H2527 H 0.05466 0.80137 0.19281 0.0
H2528 H 0.04685 0.79133 0.20243 0.0
H2529 H 0.05291 0.8051 0.20812 0.0
H2530 H 0.05583 0.79765 0.22895 0.0
H2531 H 0.04021 0.79322 0.24275 0.0
H2532 H 0.90165 0.21513 0.20454 0.0
H2533 H 0.9199 0.22224 0.21466 0.0
H2534 H 0.92965 0.18621 0.2228 0.0
H2535 H 0.91154 0.17899 0.21256 0.0
H2536 H 0.932 0.20192 0.24241 0.0
H2537 H 0.95399 0.21966 0.20257 0.0
H2538 H 0.93921 0.22499 0.20456 0.0
H2539 H 0.94146 0.20954 0.20159 0.0
C2540 C 0.90775 0.2087 0.20833 0.0
C2541 C 0.90511 0.19648 0.20769 0.0
C2542 C 0.91816 0.21278 0.21414 0.0
C2543 C 0.92618 0.20474 0.21939 0.0
C2544 C 0.92358 0.19256 0.21882 0.0
H2545 H 0.99867 0.22241 0.24227 0.0
H2546 H 0.98095 0.21245 0.2339 0.0
C2547 C 0.91319 0.18846 0.213 0.0
C2548 C 0.93723 0.20903 0.22559 0.0
H2549 H 0.96312 0.22426 0.22126 0.0
C2550 C 0.93883 0.20677 0.23779 0.0
C2551 C 0.9462 0.21521 0.21951 0.0
C2552 C 0.94523 0.21742 0.20631 0.0
C2553 C 0.94905 0.21076 0.24413 0.0
C2554 C 0.95784 0.21727 0.23812 0.0
C2555 C 0.95635 0.21931 0.22588 0.0
C2556 C 0.9686 0.22225 0.24434 0.0
C2557 C 0.95041 0.20788 0.25717 0.0
C2558 C 0.96757 0.23091 0.25318 0.0
C2559 C 0.9777 0.23662 0.25802 0.0
C2560 C 0.98906 0.23383 0.25404 0.0
C2561 C 0.99008 0.22478 0.24556 0.0
C2562 C 0.97995 0.21909 0.24072 0.0
H2563 H 0.94463 0.20029 0.25968 0.0
H2564 H 0.95977 0.20574 0.25962 0.0
H2565 H 0.94782 0.2157 0.26243 0.0
H2566 H 0.9589 0.23363 0.25598 0.0
H2567 H 0.97657 0.24358 0.26448 0.0
H2568 H 0.21338 0.71337 0.61581 0.0
H2569 H 0.22203 0.72277 0.59852 0.0
H2570 H 0.18712 0.72653 0.58228 0.0
H2571 H 0.17838 0.71678 0.59944 0.0
H2572 H 0.20299 0.71695 0.56719 0.0
H2573 H 0.22243 0.75733 0.58807 0.0
H2574 H 0.22684 0.74415 0.59589 0.0
H2575 H 0.21143 0.74823 0.5952 0.0
C2576 C 0.20753 0.71619 0.60857 0.0
C2577 C 0.19519 0.7143 0.609 0.0
C2578 C 0.21248 0.72172 0.59876 0.0
C2579 C 0.2052 0.72556 0.58921 0.0
C2580 C 0.19287 0.72376 0.58962 0.0
H2581 H 0.24226 0.76153 0.53089 0.0
H2582 H 0.22676 0.7577 0.54539 0.0
C2583 C 0.1879 0.71823 0.59945 0.0
C2584 C 0.21063 0.73062 0.57847 0.0
H2585 H 0.23087 0.7513 0.56956 0.0
C2586 C 0.2089 0.7246 0.56765 0.0
C2587 C 0.21816 0.74075 0.579 0.0
C2588 C 0.21973 0.74806 0.59014 0.0
C2589 C 0.21517 0.72792 0.55759 0.0
C2590 C 0.22349 0.7374 0.55842 0.0
C2591 C 0.22458 0.74396 0.56898 0.0
C2592 C 0.23214 0.73965 0.54902 0.0
C2593 C 0.21312 0.72103 0.54624 0.0
C2594 C 0.24028 0.73081 0.54633 0.0
C2595 C 0.2491 0.73298 0.53819 0.0
C2596 C 0.25001 0.74406 0.53253 0.0
C2597 C 0.24173 0.75289 0.53506 0.0
C2598 C 0.2329 0.75072 0.54334 0.0
H2599 H 0.2041 0.71692 0.54581 0.0
H2600 H 0.21419 0.72678 0.53833 0.0
H2601 H 0.21968 0.71378 0.54588 0.0
H2602 H 0.24 0.7223 0.55079 0.0
H2603 H 0.25532 0.72598 0.53645 0.0
H2604 H 0.80947 0.68756 0.60581 0.0
H2605 H 0.80097 0.6958 0.58738 0.0
H2606 H 0.81822 0.72934 0.59502 0.0
H2607 H 0.82647 0.72135 0.61364 0.0
H2608 H 0.78609 0.71722 0.58462 0.0
H2609 H 0.82842 0.71996 0.56074 0.0
H2610 H 0.82649 0.71052 0.57353 0.0
H2611 H 0.82893 0.72619 0.57542 0.0
C2612 C 0.81138 0.69674 0.60367 0.0
C2613 C 0.8187 0.70377 0.61129 0.0
C2614 C 0.80655 0.7014 0.59307 0.0
C2615 C 0.80905 0.71314 0.58978 0.0
C2616 C 0.81632 0.7202 0.59731 0.0
H2617 H 0.79471 0.76393 0.53609 0.0
H2618 H 0.80126 0.75149 0.55254 0.0
C2619 C 0.82108 0.71558 0.60795 0.0
C2620 C 0.80399 0.71811 0.57852 0.0
H2621 H 0.81193 0.73002 0.55202 0.0
C2622 C 0.79169 0.71991 0.57741 0.0
C2623 C 0.81132 0.72153 0.56913 0.0
C2624 C 0.82452 0.71938 0.56966 0.0
C2625 C 0.7866 0.72563 0.56739 0.0
C2626 C 0.794 0.7294 0.55814 0.0
C2627 C 0.80624 0.72715 0.5591 0.0
C2628 C 0.78954 0.73676 0.548 0.0
C2629 C 0.77346 0.7281 0.56707 0.0
C2630 C 0.7807 0.73265 0.53985 0.0
C2631 C 0.77682 0.73986 0.53033 0.0
C2632 C 0.7818 0.75124 0.52877 0.0
C2633 C 0.79066 0.75522 0.53694 0.0
C2634 C 0.79446 0.7481 0.5464 0.0
H2635 H 0.76948 0.72674 0.57587 0.0
H2636 H 0.77174 0.73734 0.56412 0.0
H2637 H 0.76891 0.72201 0.56065 0.0
H2638 H 0.77691 0.72385 0.54078 0.0
H2639 H 0.77002 0.73651 0.52418 0.0
H2640 H 0.8358 0.30937 0.63668 0.0
H2641 H 0.82881 0.29942 0.61851 0.0
H2642 H 0.81469 0.33241 0.60518 0.0
H2643 H 0.82215 0.34257 0.6231 0.0
H2644 H 0.80659 0.2965 0.60892 0.0
H2645 H 0.83425 0.32196 0.57768 0.0
H2646 H 0.83673 0.3226 0.59355 0.0
H2647 H 0.82503 0.33108 0.58654 0.0
C2648 C 0.83137 0.31458 0.62983 0.0
C2649 C 0.82968 0.32684 0.63135 0.0
C2650 C 0.82727 0.30884 0.61947 0.0
C2651 C 0.8214 0.31518 0.61036 0.0
C2652 C 0.81943 0.32735 0.61195 0.0
H2653 H 0.78995 0.29367 0.54179 0.0
H2654 H 0.79597 0.30444 0.55989 0.0
C2655 C 0.82357 0.33313 0.6223 0.0
C2656 C 0.81725 0.30898 0.59929 0.0
H2657 H 0.8198 0.30883 0.56912 0.0
C2658 C 0.80951 0.29919 0.60023 0.0
C2659 C 0.82105 0.31247 0.58792 0.0
C2660 C 0.82981 0.32253 0.58633 0.0
C2661 C 0.8054 0.29287 0.59014 0.0
C2662 C 0.80922 0.29635 0.57879 0.0
C2663 C 0.81686 0.30619 0.57782 0.0
C2664 C 0.80552 0.28976 0.56785 0.0
C2665 C 0.79688 0.2826 0.59167 0.0
C2666 C 0.809 0.27797 0.56623 0.0
C2667 C 0.80558 0.27179 0.55589 0.0
C2668 C 0.79859 0.27726 0.54693 0.0
C2669 C 0.79519 0.28912 0.54856 0.0
C2670 C 0.79868 0.29532 0.55888 0.0
H2671 H 0.79265 0.28282 0.60045 0.0
H2672 H 0.7898 0.28263 0.58459 0.0
H2673 H 0.80178 0.27416 0.59102 0.0
H2674 H 0.81442 0.27355 0.57296 0.0
H2675 H 0.80829 0.26266 0.555 0.0
H2676 H 0.19644 0.31772 0.62258 0.0
H2677 H 0.20785 0.31068 0.60592 0.0
H2678 H 0.23899 0.32896 0.62004 0.0
H2679 H 0.22784 0.33554 0.637 0.0
H2680 H 0.21908 0.32312 0.58885 0.0
H2681 H 0.25202 0.29637 0.6144 0.0
H2682 H 0.23875 0.30194 0.62091 0.0
H2683 H 0.2515 0.31149 0.61928 0.0
C2684 C 0.20577 0.32008 0.62227 0.0
C2685 C 0.2112 0.32717 0.63122 0.0
C2686 C 0.21226 0.31612 0.61267 0.0
C2687 C 0.22434 0.31912 0.6118 0.0
C2688 C 0.22976 0.3263 0.62062 0.0
H2689 H 0.27739 0.3067 0.55852 0.0
H2690 H 0.26615 0.31413 0.57522 0.0
C2691 C 0.2233 0.33021 0.63025 0.0
C2692 C 0.23118 0.31499 0.60151 0.0
H2693 H 0.25589 0.29968 0.59402 0.0
C2694 C 0.22709 0.31794 0.58999 0.0
C2695 C 0.24165 0.30823 0.60298 0.0
C2696 C 0.24619 0.30422 0.61505 0.0
C2697 C 0.23326 0.31447 0.57993 0.0
C2698 C 0.24376 0.30779 0.58142 0.0
C2699 C 0.24788 0.30486 0.59292 0.0
C2700 C 0.25044 0.30352 0.57114 0.0
C2701 C 0.22862 0.31811 0.56779 0.0
C2702 C 0.24536 0.29506 0.56335 0.0
C2703 C 0.25176 0.29079 0.55384 0.0
C2704 C 0.26338 0.29491 0.55189 0.0
C2705 C 0.26842 0.30344 0.55968 0.0
C2706 C 0.26204 0.30765 0.56926 0.0
H2707 H 0.22205 0.32536 0.56827 0.0
H2708 H 0.23601 0.32108 0.56215 0.0
H2709 H 0.22419 0.31038 0.5634 0.0
H2710 H 0.23648 0.29165 0.56471 0.0
H2711 H 0.24756 0.28431 0.54796 0.0
H2712 H 0.22077 0.3127 0.40595 0.0
H2713 H 0.22989 0.3049 0.42427 0.0
H2714 H 0.19643 0.28919 0.43366 0.0
H2715 H 0.18708 0.29726 0.41555 0.0
H2716 H 0.2211 0.30931 0.44892 0.0
H2717 H 0.22205 0.26165 0.43596 0.0
H2718 H 0.22134 0.27341 0.42505 0.0
H2719 H 0.20851 0.26974 0.43338 0.0
C2720 C 0.21528 0.3077 0.41194 0.0
C2721 C 0.20315 0.30564 0.40919 0.0
C2722 C 0.22055 0.30317 0.42238 0.0
C2723 C 0.21387 0.29636 0.43025 0.0
C2724 C 0.20179 0.29427 0.4276 0.0
H2725 H 0.24257 0.26304 0.4966 0.0
H2726 H 0.22851 0.26826 0.48021 0.0
C2727 C 0.19647 0.29887 0.4172 0.0
C2728 C 0.21954 0.29181 0.44141 0.0
H2729 H 0.23054 0.26675 0.45465 0.0
C2730 C 0.22307 0.29999 0.45022 0.0
C2731 C 0.22194 0.27963 0.44316 0.0
C2732 C 0.21834 0.27054 0.43391 0.0
C2733 C 0.22923 0.29637 0.46059 0.0
C2734 C 0.23224 0.28428 0.46208 0.0
C2735 C 0.22825 0.276 0.4535 0.0
C2736 C 0.24063 0.28043 0.47175 0.0
C2737 C 0.23264 0.30558 0.46982 0.0
C2738 C 0.25215 0.28522 0.47221 0.0
C2739 C 0.26008 0.28231 0.48145 0.0
C2740 C 0.25677 0.27441 0.49049 0.0
C2741 C 0.24537 0.26918 0.48981 0.0
C2742 C 0.23734 0.27217 0.48048 0.0
H2743 H 0.22657 0.31329 0.46933 0.0
H2744 H 0.2325 0.3018 0.47892 0.0
H2745 H 0.24176 0.30891 0.4682 0.0
H2746 H 0.25501 0.29136 0.46543 0.0
H2747 H 0.26883 0.28638 0.48153 0.0
H2748 H 0.20133 0.6875 0.40235 0.0
H2749 H 0.21204 0.69574 0.41972 0.0
H2750 H 0.24306 0.70131 0.39881 0.0
H2751 H 0.23245 0.69288 0.38146 0.0
H2752 H 0.24892 0.69157 0.41977 0.0
H2753 H 0.21972 0.7299 0.42714 0.0
H2754 H 0.21179 0.71602 0.4271 0.0
H2755 H 0.2187 0.72109 0.41379 0.0
C2756 C 0.21039 0.6906 0.40143 0.0
C2757 C 0.21603 0.68958 0.39052 0.0
C2758 C 0.21649 0.69535 0.41136 0.0
C2759 C 0.2283 0.69935 0.41054 0.0
C2760 C 0.23395 0.69831 0.39966 0.0
H2761 H 0.26523 0.74322 0.46381 0.0
H2762 H 0.25537 0.73541 0.44577 0.0
C2763 C 0.22789 0.69347 0.38976 0.0
C2764 C 0.23489 0.70428 0.4211 0.0
H2765 H 0.23387 0.72551 0.44263 0.0
C2766 C 0.24565 0.69904 0.42473 0.0
C2767 C 0.23074 0.71414 0.42748 0.0
C2768 C 0.21967 0.72069 0.42361 0.0
C2769 C 0.25227 0.70323 0.43466 0.0
C2770 C 0.24786 0.71275 0.44135 0.0
C2771 C 0.2372 0.71813 0.4376 0.0
C2772 C 0.25418 0.71735 0.45221 0.0
C2773 C 0.26405 0.69756 0.43772 0.0
C2774 C 0.25676 0.70984 0.46188 0.0
C2775 C 0.26248 0.71427 0.47216 0.0
C2776 C 0.26555 0.72637 0.47308 0.0
C2777 C 0.26289 0.73389 0.46341 0.0
C2778 C 0.25728 0.72943 0.45309 0.0
H2779 H 0.26776 0.69309 0.4299 0.0
H2780 H 0.27063 0.70421 0.44115 0.0
H2781 H 0.26277 0.69073 0.44469 0.0
H2782 H 0.25417 0.70056 0.46156 0.0
H2783 H 0.2642 0.7083 0.47952 0.0
H2784 H 0.84616 0.71537 0.39087 0.0
H2785 H 0.83929 0.72612 0.40818 0.0
H2786 H 0.80296 0.72055 0.39617 0.0
H2787 H 0.80972 0.70992 0.37878 0.0
H2788 H 0.82517 0.74662 0.40927 0.0
H2789 H 0.80318 0.70806 0.4304 0.0
H2790 H 0.81352 0.70645 0.4186 0.0
H2791 H 0.79844 0.71064 0.41526 0.0
C2792 C 0.8367 0.7165 0.39185 0.0
C2793 C 0.8285 0.7117 0.38344 0.0
C2794 C 0.83279 0.72261 0.40179 0.0
C2795 C 0.82061 0.72397 0.40358 0.0
C2796 C 0.8124 0.71937 0.39512 0.0
H2797 H 0.77793 0.75662 0.45701 0.0
H2798 H 0.78546 0.74665 0.43958 0.0
C2799 C 0.81629 0.71328 0.38518 0.0
C2800 C 0.81647 0.73034 0.4142 0.0
H2801 H 0.79982 0.72694 0.43884 0.0
C2802 C 0.81968 0.74231 0.41578 0.0
C2803 C 0.8093 0.7247 0.42268 0.0
C2804 C 0.80598 0.71172 0.42175 0.0
C2805 C 0.81569 0.74888 0.42545 0.0
C2806 C 0.80847 0.74326 0.43389 0.0
C2807 C 0.80532 0.73126 0.43235 0.0
C2808 C 0.80399 0.74964 0.44437 0.0
C2809 C 0.81898 0.76186 0.42636 0.0
C2810 C 0.8119 0.75459 0.45293 0.0
C2811 C 0.80761 0.76029 0.46294 0.0
C2812 C 0.79532 0.76105 0.46467 0.0
C2813 C 0.78744 0.75608 0.45607 0.0
C2814 C 0.79173 0.75042 0.44605 0.0
H2815 H 0.82181 0.76551 0.41771 0.0
H2816 H 0.81141 0.76714 0.42946 0.0
H2817 H 0.82649 0.76298 0.43287 0.0
H2818 H 0.8214 0.75387 0.45197 0.0
H2819 H 0.81394 0.76383 0.46946 0.0
H2820 H 0.83152 0.32629 0.40671 0.0
H2821 H 0.82292 0.31829 0.42472 0.0
H2822 H 0.78789 0.32733 0.4114 0.0
H2823 H 0.79638 0.33499 0.39313 0.0
H2824 H 0.80934 0.32966 0.44146 0.0
H2825 H 0.78406 0.29231 0.42016 0.0
H2826 H 0.79543 0.30049 0.4126 0.0
H2827 H 0.781 0.30679 0.41421 0.0
C2828 C 0.82197 0.32645 0.40752 0.0
C2829 C 0.81465 0.3312 0.3984 0.0
C2830 C 0.81707 0.32196 0.41787 0.0
C2831 C 0.80475 0.32207 0.41935 0.0
C2832 C 0.79741 0.32697 0.41037 0.0
H2833 H 0.7668 0.28984 0.47909 0.0
H2834 H 0.77077 0.30227 0.46165 0.0
C2835 C 0.8023 0.33146 0.39998 0.0
C2836 C 0.79972 0.31709 0.43036 0.0
H2837 H 0.7826 0.29439 0.44085 0.0
C2838 C 0.80342 0.32201 0.44132 0.0
C2839 C 0.79192 0.30715 0.43016 0.0
C2840 C 0.78791 0.30129 0.41868 0.0
C2841 C 0.79978 0.31708 0.45208 0.0
C2842 C 0.79236 0.30688 0.4519 0.0
C2843 C 0.78826 0.30224 0.44095 0.0
C2844 C 0.78983 0.30016 0.46289 0.0
C2845 C 0.80403 0.32275 0.46358 0.0
C2846 C 0.79922 0.29487 0.46933 0.0
C2847 C 0.79699 0.28778 0.47918 0.0
C2848 C 0.78531 0.28579 0.48284 0.0
C2849 C 0.7759 0.29128 0.47654 0.0
C2850 C 0.77814 0.29834 0.46657 0.0
H2851 H 0.80649 0.33222 0.4623 0.0
H2852 H 0.79713 0.32214 0.47039 0.0
H2853 H 0.81204 0.31806 0.46701 0.0
H2854 H 0.80828 0.29597 0.46653 0.0
H2855 H 0.80445 0.28368 0.48381 0.0
H2856 H 0.12483 0.71017 0.70098 0.0
H2857 H 0.10733 0.72005 0.70861 0.0
H2858 H 0.09016 0.71789 0.67395 0.0
H2859 H 0.10747 0.70785 0.66633 0.0
H2860 H 0.09767 0.74185 0.69987 0.0
H2861 H 0.06481 0.70487 0.69635 0.0
H2862 H 0.08064 0.70253 0.69613 0.0
H2863 H 0.07277 0.7077 0.68305 0.0
C2864 C 0.11724 0.71162 0.69505 0.0
C2865 C 0.11753 0.70823 0.68305 0.0
C2866 C 0.10729 0.71732 0.69939 0.0
C2867 C 0.09741 0.7196 0.69187 0.0
C2868 C 0.09761 0.71607 0.67995 0.0
H2869 H 0.02977 0.75462 0.69799 0.0
H2870 H 0.04739 0.74452 0.69118 0.0
C2871 C 0.10756 0.71043 0.67559 0.0
C2872 C 0.08711 0.72617 0.69629 0.0
H2873 H 0.05723 0.724 0.70025 0.0
C2874 C 0.08883 0.73794 0.70004 0.0
C2875 C 0.0756 0.72105 0.69643 0.0
C2876 C 0.07331 0.70831 0.69288 0.0
C2877 C 0.0793 0.74483 0.70369 0.0
C2878 C 0.06776 0.73973 0.7038 0.0
C2879 C 0.06606 0.72792 0.70012 0.0
C2880 C 0.05734 0.74642 0.7078 0.0
C2881 C 0.08161 0.75762 0.70706 0.0
C2882 C 0.05707 0.75088 0.7194 0.0
C2883 C 0.04706 0.75677 0.72329 0.0
C2884 C 0.03702 0.75823 0.7157 0.0
C2885 C 0.03736 0.75382 0.70404 0.0
C2886 C 0.0474 0.74795 0.70015 0.0
H2887 H 0.09001 0.76104 0.70336 0.0
H2888 H 0.07421 0.76336 0.7039 0.0
H2889 H 0.08239 0.75833 0.71687 0.0
H2890 H 0.06455 0.74963 0.72553 0.0
H2891 H 0.04718 0.76013 0.73228 0.0
H2892 H 0.81094 0.61954 0.67422 0.0
H2893 H 0.80046 0.60228 0.68218 0.0
H2894 H 0.80072 0.61864 0.71674 0.0
H2895 H 0.81106 0.63605 0.7088 0.0
H2896 H 0.80828 0.58735 0.70176 0.0
H2897 H 0.76526 0.60923 0.70985 0.0
H2898 H 0.77612 0.61548 0.7001 0.0
H2899 H 0.77837 0.61653 0.7159 0.0
C2900 C 0.80867 0.61952 0.68349 0.0
C2901 C 0.81178 0.62921 0.69086 0.0
C2902 C 0.80274 0.60963 0.68804 0.0
C2903 C 0.79969 0.60924 0.70001 0.0
C2904 C 0.80285 0.61883 0.70743 0.0
H2905 H 0.76153 0.55586 0.74078 0.0
H2906 H 0.77183 0.5738 0.73424 0.0
C2907 C 0.80885 0.62872 0.70291 0.0
C2908 C 0.79341 0.59867 0.70472 0.0
H2909 H 0.76706 0.58925 0.71589 0.0
C2910 C 0.79927 0.58775 0.70485 0.0
C2911 C 0.78169 0.59925 0.70882 0.0
C2912 C 0.77491 0.61071 0.70861 0.0
C2913 C 0.79374 0.57739 0.70901 0.0
C2914 C 0.7819 0.57789 0.71287 0.0
C2915 C 0.77611 0.58886 0.7129 0.0
C2916 C 0.77535 0.5671 0.71673 0.0
C2917 C 0.80072 0.56604 0.70943 0.0
C2918 C 0.77364 0.55745 0.70899 0.0
C2919 C 0.76788 0.54712 0.71274 0.0
C2920 C 0.76355 0.54622 0.72431 0.0
C2921 C 0.76492 0.55609 0.7319 0.0
C2922 C 0.77074 0.56641 0.72815 0.0
H2923 H 0.81045 0.56783 0.70961 0.0
H2924 H 0.79855 0.56065 0.71734 0.0
H2925 H 0.79849 0.56073 0.70137 0.0
H2926 H 0.77686 0.55787 0.70004 0.0
H2927 H 0.76709 0.53978 0.7066 0.0
H2928 H 0.90146 0.34033 0.73034 0.0
H2929 H 0.91933 0.33304 0.74063 0.0
H2930 H 0.93144 0.31859 0.70779 0.0
H2931 H 0.91388 0.32636 0.6973 0.0
H2932 H 0.92723 0.31063 0.7435 0.0
H2933 H 0.96045 0.33709 0.71922 0.0
H2934 H 0.94476 0.34011 0.71816 0.0
H2935 H 0.95088 0.32829 0.70964 0.0
C2936 C 0.90801 0.33578 0.72524 0.0
C2937 C 0.90624 0.33405 0.71294 0.0
C2938 C 0.91819 0.33153 0.73117 0.0
C2939 C 0.92685 0.32544 0.72496 0.0
C2940 C 0.92503 0.3235 0.71273 0.0
H2941 H 0.99188 0.28929 0.746 0.0
H2942 H 0.9742 0.29694 0.73553 0.0
C2943 C 0.91488 0.32781 0.70677 0.0
C2944 C 0.93761 0.32089 0.73137 0.0
H2945 H 0.96798 0.32188 0.73193 0.0
C2946 C 0.93613 0.31314 0.741 0.0
C2947 C 0.94925 0.32419 0.72813 0.0
C2948 C 0.95146 0.33297 0.7183 0.0
C2949 C 0.94594 0.30846 0.74735 0.0
C2950 C 0.95755 0.31168 0.74403 0.0
C2951 C 0.95906 0.31941 0.73442 0.0
C2952 C 0.96824 0.30709 0.75044 0.0
C2953 C 0.94385 0.29993 0.75741 0.0
C2954 C 0.97082 0.31037 0.76226 0.0
C2955 C 0.98092 0.30601 0.76827 0.0
C2956 C 0.98863 0.29826 0.76258 0.0
C2957 C 0.98605 0.29508 0.7507 0.0
C2958 C 0.97599 0.29951 0.74468 0.0
H2959 H 0.93456 0.2965 0.75729 0.0
H2960 H 0.94998 0.29231 0.75701 0.0
H2961 H 0.9456 0.30455 0.76598 0.0
H2962 H 0.96502 0.31632 0.76683 0.0
H2963 H 0.9826 0.30858 0.77742 0.0
H2964 H 0.21675 0.39951 0.70641 0.0
H2965 H 0.22326 0.41841 0.71496 0.0
H2966 H 0.1872 0.42619 0.7238 0.0
H2967 H 0.1805 0.40746 0.71475 0.0
H2968 H 0.1974 0.44476 0.71336 0.0
H2969 H 0.22798 0.42877 0.7489 0.0
H2970 H 0.23168 0.42261 0.73486 0.0
H2971 H 0.21756 0.41903 0.74115 0.0
C2972 C 0.21017 0.40523 0.71014 0.0
C2973 C 0.19808 0.40193 0.70983 0.0
C2974 C 0.21395 0.41598 0.71522 0.0
C2975 C 0.20577 0.42365 0.72026 0.0
C2976 C 0.1937 0.42037 0.72008 0.0
H2977 H 0.23805 0.48847 0.75242 0.0
H2978 H 0.22499 0.47085 0.7507 0.0
C2979 C 0.18989 0.40961 0.71496 0.0
C2980 C 0.20977 0.43545 0.72487 0.0
H2981 H 0.23133 0.44896 0.7422 0.0
C2982 C 0.20467 0.44567 0.71984 0.0
C2983 C 0.21907 0.43672 0.73354 0.0
C2984 C 0.22429 0.42618 0.74001 0.0
C2985 C 0.20918 0.45704 0.72259 0.0
C2986 C 0.21921 0.45821 0.7304 0.0
C2987 C 0.22375 0.44807 0.73609 0.0
C2988 C 0.22598 0.46957 0.73159 0.0
C2989 C 0.20333 0.46766 0.71687 0.0
C2990 C 0.23081 0.47471 0.72146 0.0
C2991 C 0.23821 0.48467 0.72242 0.0
C2992 C 0.24105 0.48974 0.73356 0.0
C2993 C 0.23595 0.48483 0.74372 0.0
C2994 C 0.22854 0.47474 0.74274 0.0
H2995 H 0.19374 0.46589 0.7149 0.0
H2996 H 0.20421 0.47563 0.72262 0.0
H2997 H 0.20759 0.46961 0.70833 0.0
H2998 H 0.22922 0.47074 0.7128 0.0
H2999 H 0.24198 0.4882 0.71441 0.0
H3000 H 0.11295 0.31614 0.32983 0.0
H3001 H 0.09481 0.30678 0.32169 0.0
H3002 H 0.11104 0.27243 0.32499 0.0
H3003 H 0.12923 0.28174 0.3332 0.0
H3004 H 0.09201 0.29367 0.30149 0.0
H3005 H 0.07937 0.26654 0.34036 0.0
H3006 H 0.09042 0.27825 0.34141 0.0
H3007 H 0.09416 0.26401 0.3355 0.0
C3008 C 0.11268 0.30659 0.32882 0.0
C3009 C 0.12255 0.29969 0.33218 0.0
C3010 C 0.10227 0.30124 0.32422 0.0
C3011 C 0.10148 0.28888 0.32288 0.0
C3012 C 0.11132 0.28195 0.32621 0.0
H3013 H 0.04669 0.2443 0.28808 0.0
H3014 H 0.06467 0.25137 0.29882 0.0
C3015 C 0.12173 0.28729 0.33087 0.0
C3016 C 0.09053 0.28337 0.31749 0.0
H3017 H 0.06809 0.26345 0.32246 0.0
C3018 C 0.08678 0.28709 0.3061 0.0
C3019 C 0.08372 0.27473 0.32348 0.0
C3020 C 0.08704 0.27071 0.3359 0.0
C3021 C 0.07644 0.28241 0.30054 0.0
C3022 C 0.06957 0.27388 0.30657 0.0
C3023 C 0.07338 0.27 0.31787 0.0
C3024 C 0.05825 0.26918 0.30129 0.0
C3025 C 0.07297 0.28658 0.28819 0.0
C3026 C 0.04856 0.27673 0.2995 0.0
C3027 C 0.03828 0.27273 0.29343 0.0
C3028 C 0.03749 0.26107 0.28901 0.0
C3029 C 0.047 0.25333 0.29135 0.0
C3030 C 0.05729 0.25735 0.29747 0.0
H3031 H 0.08046 0.2911 0.28379 0.0
H3032 H 0.06985 0.27901 0.28258 0.0
H3033 H 0.06557 0.29296 0.28873 0.0
H3034 H 0.04907 0.28584 0.30253 0.0
H3035 H 0.03112 0.27892 0.29187 0.0
H3036 H 0.1952 0.60129 0.31454 0.0
H3037 H 0.20461 0.58312 0.30774 0.0
H3038 H 0.23821 0.60165 0.30622 0.0
H3039 H 0.2289 0.61981 0.31298 0.0
H3040 H 0.21663 0.57833 0.28724 0.0
H3041 H 0.24672 0.57304 0.32672 0.0
H3042 H 0.2344 0.58314 0.32645 0.0
H3043 H 0.24806 0.58721 0.31958 0.0
C3044 C 0.20457 0.60153 0.31266 0.0
C3045 C 0.21131 0.612 0.31442 0.0
C3046 C 0.20995 0.59112 0.30884 0.0
C3047 C 0.22218 0.59094 0.30673 0.0
C3048 C 0.22884 0.60146 0.30812 0.0
H3049 H 0.27077 0.5382 0.28039 0.0
H3050 H 0.26172 0.55597 0.28855 0.0
C3051 C 0.22349 0.61186 0.31196 0.0
C3052 C 0.22794 0.5798 0.30292 0.0
H3053 H 0.25003 0.56031 0.31037 0.0
C3054 C 0.22388 0.57435 0.29234 0.0
C3055 C 0.23744 0.57462 0.30956 0.0
C3056 C 0.24186 0.57973 0.32126 0.0
C3057 C 0.22918 0.56401 0.28811 0.0
C3058 C 0.23869 0.55885 0.29473 0.0
C3059 C 0.24276 0.56429 0.30531 0.0
C3060 C 0.24446 0.54779 0.29078 0.0
C3061 C 0.22474 0.55885 0.27643 0.0
C3062 C 0.23791 0.53717 0.28974 0.0
C3063 C 0.24306 0.527 0.28512 0.0
C3064 C 0.25491 0.5272 0.28147 0.0
C3065 C 0.26164 0.5377 0.2831 0.0
C3066 C 0.25646 0.54789 0.28773 0.0
H3067 H 0.2195 0.56537 0.2711 0.0
H3068 H 0.23224 0.55579 0.27109 0.0
H3069 H 0.2189 0.55109 0.27817 0.0
H3070 H 0.22872 0.53681 0.29227 0.0
H3071 H 0.23761 0.51907 0.28408 0.0
H3072 H 0.8982 0.71703 0.30612 0.0
H3073 H 0.91654 0.72321 0.29683 0.0
H3074 H 0.9234 0.68691 0.28744 0.0
H3075 H 0.90531 0.68056 0.29723 0.0
H3076 H 0.94283 0.69722 0.29693 0.0
H3077 H 0.92416 0.72703 0.2624 0.0
H3078 H 0.91932 0.7311 0.27683 0.0
H3079 H 0.91501 0.7169 0.27065 0.0
C3080 C 0.90361 0.71033 0.30213 0.0
C3081 C 0.90023 0.69827 0.30246 0.0
C3082 C 0.91403 0.71391 0.29663 0.0
C3083 C 0.92126 0.70557 0.29119 0.0
C3084 C 0.91791 0.69354 0.29145 0.0
H3085 H 0.98359 0.73459 0.25425 0.0
H3086 H 0.96565 0.72246 0.25755 0.0
C3087 C 0.9075 0.68993 0.297 0.0
C3088 C 0.9327 0.70936 0.28598 0.0
H3089 H 0.94496 0.73 0.26764 0.0
C3090 C 0.94326 0.70425 0.29037 0.0
C3091 C 0.93333 0.71835 0.27721 0.0
C3092 C 0.92233 0.72356 0.27141 0.0
C3093 C 0.95442 0.70839 0.28683 0.0
C3094 C 0.95506 0.71808 0.27886 0.0
C3095 C 0.9445 0.72267 0.27386 0.0
C3096 C 0.96645 0.7244 0.27667 0.0
C3097 C 0.96543 0.70249 0.29186 0.0
C3098 C 0.97286 0.72947 0.28628 0.0
C3099 C 0.983 0.73633 0.28443 0.0
C3100 C 0.98701 0.73838 0.2729 0.0
C3101 C 0.98079 0.73308 0.26324 0.0
C3102 C 0.97052 0.72621 0.26512 0.0
H3103 H 0.96361 0.69306 0.29413 0.0
H3104 H 0.97278 0.70286 0.28552 0.0
H3105 H 0.96838 0.7071 0.30014 0.0
H3106 H 0.96978 0.72846 0.29524 0.0
H3107 H 0.98755 0.74028 0.29208 0.0
H3108 H 0.83716 0.41479 0.31533 0.0
H3109 H 0.83039 0.43155 0.30323 0.0
H3110 H 0.79452 0.41783 0.30349 0.0
H3111 H 0.80124 0.40094 0.31555 0.0
H3112 H 0.81923 0.42995 0.28061 0.0
H3113 H 0.79082 0.4529 0.31263 0.0
H3114 H 0.80159 0.44193 0.3172 0.0
H3115 H 0.78758 0.43739 0.31053 0.0
C3116 C 0.82781 0.41534 0.31284 0.0
C3117 C 0.81974 0.4065 0.31636 0.0
C3118 C 0.82396 0.42495 0.30596 0.0
C3119 C 0.81195 0.42598 0.30253 0.0
C3120 C 0.8038 0.41731 0.30622 0.0
H3121 H 0.77393 0.47715 0.25824 0.0
H3122 H 0.77965 0.46016 0.27055 0.0
C3123 C 0.80765 0.40767 0.31312 0.0
C3124 C 0.80813 0.43582 0.29461 0.0
H3125 H 0.79058 0.46031 0.29296 0.0
C3126 C 0.81299 0.43661 0.28331 0.0
C3127 C 0.79994 0.44445 0.29814 0.0
C3128 C 0.79473 0.44424 0.31032 0.0
C3129 C 0.80981 0.44575 0.2754 0.0
C3130 C 0.80173 0.45447 0.27898 0.0
C3131 C 0.79678 0.45362 0.29024 0.0
C3132 C 0.79838 0.46462 0.27122 0.0
C3133 C 0.81498 0.44587 0.2632 0.0
C3134 C 0.80701 0.4728 0.26754 0.0
C3135 C 0.80377 0.48254 0.26051 0.0
C3136 C 0.79181 0.48436 0.25712 0.0
C3137 C 0.7832 0.47611 0.2608 0.0
C3138 C 0.78645 0.46636 0.2678 0.0
H3139 H 0.8183 0.437 0.26071 0.0
H3140 H 0.8083 0.44874 0.25637 0.0
H3141 H 0.82258 0.45221 0.26312 0.0
H3142 H 0.81624 0.47177 0.2703 0.0
H3143 H 0.81059 0.48881 0.25802 0.0
H3144 H 0.20114 0.62466 0.66476 0.0
H3145 H 0.21181 0.60726 0.67214 0.0
H3146 H 0.20943 0.6201 0.708 0.0
H3147 H 0.19872 0.63756 0.70067 0.0
H3148 H 0.23325 0.60668 0.68458 0.0
H3149 H 0.19773 0.58592 0.71096 0.0
H3150 H 0.1948 0.59755 0.70027 0.0
H3151 H 0.201 0.6011 0.71474 0.0
C3152 C 0.20288 0.62379 0.67422 0.0
C3153 C 0.19908 0.63252 0.68213 0.0
C3154 C 0.20895 0.61381 0.67843 0.0
C3155 C 0.2113 0.61229 0.69063 0.0
C3156 C 0.20748 0.62094 0.69857 0.0
H3157 H 0.25026 0.55897 0.73144 0.0
H3158 H 0.23924 0.57646 0.72487 0.0
C3159 C 0.20137 0.63093 0.69437 0.0
C3160 C 0.21817 0.60188 0.69493 0.0
H3161 H 0.21686 0.57741 0.7128 0.0
C3162 C 0.22965 0.60026 0.69072 0.0
C3163 C 0.21348 0.59352 0.70297 0.0
C3164 C 0.20104 0.59451 0.70743 0.0
C3165 C 0.2366 0.59059 0.69441 0.0
C3166 C 0.23189 0.5822 0.70239 0.0
C3167 C 0.22045 0.58386 0.70668 0.0
C3168 C 0.23865 0.57159 0.70631 0.0
C3169 C 0.24902 0.58954 0.68989 0.0
C3170 C 0.24188 0.56297 0.69807 0.0
C3171 C 0.24813 0.55291 0.7018 0.0
C3172 C 0.25123 0.55122 0.71388 0.0
C3173 C 0.24792 0.55988 0.72211 0.0
C3174 C 0.24166 0.56993 0.71836 0.0
H3175 H 0.25236 0.59811 0.68635 0.0
H3176 H 0.25527 0.58646 0.69702 0.0
H3177 H 0.24899 0.58294 0.68259 0.0
H3178 H 0.23943 0.56396 0.68876 0.0
H3179 H 0.25032 0.54637 0.69524 0.0
H3180 H 0.19676 0.39148 0.33956 0.0
H3181 H 0.20304 0.40905 0.32844 0.0
H3182 H 0.20707 0.38749 0.29727 0.0
H3183 H 0.2006 0.36998 0.30827 0.0
H3184 H 0.22304 0.41486 0.31748 0.0
H3185 H 0.18605 0.41315 0.28404 0.0
H3186 H 0.18622 0.4041 0.29725 0.0
H3187 H 0.1944 0.3997 0.28453 0.0
C3188 C 0.19904 0.39048 0.33035 0.0
C3189 C 0.19806 0.37934 0.32477 0.0
C3190 C 0.2026 0.40054 0.32399 0.0
C3191 C 0.20527 0.39968 0.31192 0.0
C3192 C 0.20469 0.38849 0.30645 0.0
H3193 H 0.24442 0.45288 0.27188 0.0
H3194 H 0.23826 0.43552 0.28329 0.0
C3195 C 0.20104 0.37846 0.31277 0.0
C3196 C 0.20877 0.41045 0.30508 0.0
H3197 H 0.20202 0.42644 0.28001 0.0
C3198 C 0.21841 0.41741 0.30932 0.0
C3199 C 0.20261 0.41395 0.29451 0.0
C3200 C 0.19167 0.40741 0.28987 0.0
C3201 C 0.22219 0.4276 0.3032 0.0
C3202 C 0.21637 0.43078 0.29234 0.0
C3203 C 0.2066 0.42394 0.28823 0.0
C3204 C 0.22014 0.44126 0.28521 0.0
C3205 C 0.23221 0.43499 0.30859 0.0
C3206 C 0.21193 0.45011 0.28204 0.0
C3207 C 0.21541 0.45997 0.27536 0.0
C3208 C 0.22719 0.46124 0.27171 0.0
C3209 C 0.23534 0.45229 0.27473 0.0
C3210 C 0.23184 0.44237 0.28131 0.0
H3211 H 0.23319 0.43352 0.31832 0.0
H3212 H 0.24067 0.43243 0.30455 0.0
H3213 H 0.2308 0.44459 0.30696 0.0
H3214 H 0.20285 0.44946 0.28488 0.0
H3215 H 0.20892 0.46673 0.27328 0.0
H3216 H 0.13681 0.6913 0.29948 0.0
H3217 H 0.11921 0.70208 0.29233 0.0
H3218 H 0.10603 0.7026 0.32783 0.0
H3219 H 0.12341 0.69158 0.335 0.0
H3220 H 0.08852 0.69687 0.31055 0.0
H3221 H 0.11364 0.73752 0.2983 0.0
H3222 H 0.11866 0.72407 0.29165 0.0
H3223 H 0.12007 0.72597 0.30746 0.0
C3224 C 0.1301 0.69358 0.30575 0.0
C3225 C 0.13159 0.69064 0.31784 0.0
C3226 C 0.1201 0.69986 0.30166 0.0
C3227 C 0.11139 0.70334 0.30958 0.0
C3228 C 0.11268 0.7001 0.32157 0.0
H3229 H 0.05729 0.75715 0.30129 0.0
H3230 H 0.07439 0.74506 0.30716 0.0
C3231 C 0.12267 0.69386 0.32567 0.0
C3232 C 0.10097 0.71042 0.30544 0.0
H3233 H 0.09306 0.73717 0.29345 0.0
C3234 C 0.08951 0.70567 0.30678 0.0
C3235 C 0.10226 0.72197 0.30067 0.0
C3236 C 0.1143 0.72777 0.29951 0.0
C3237 C 0.07932 0.71211 0.30342 0.0
C3238 C 0.08061 0.72357 0.29844 0.0
C3239 C 0.09207 0.72835 0.29717 0.0
C3240 C 0.07018 0.73087 0.29478 0.0
C3241 C 0.06725 0.7067 0.30549 0.0
C3242 C 0.06218 0.727 0.28577 0.0
C3243 C 0.05235 0.73388 0.28242 0.0
C3244 C 0.05031 0.74482 0.28799 0.0
C3245 C 0.05845 0.74872 0.29692 0.0
C3246 C 0.06829 0.74184 0.30024 0.0
H3247 H 0.06774 0.69923 0.31192 0.0
H3248 H 0.06107 0.71344 0.30884 0.0
H3249 H 0.06347 0.70321 0.29697 0.0
H3250 H 0.06355 0.71866 0.28129 0.0
H3251 H 0.04627 0.73052 0.27558 0.0
H3252 H 0.83093 0.61813 0.30821 0.0
H3253 H 0.82011 0.60057 0.30095 0.0
H3254 H 0.78691 0.61702 0.30887 0.0
H3255 H 0.79766 0.63484 0.31579 0.0
H3256 H 0.80439 0.58548 0.31278 0.0
H3257 H 0.78201 0.60739 0.274 0.0
H3258 H 0.79434 0.6142 0.28211 0.0
H3259 H 0.77981 0.61404 0.28823 0.0
C3260 C 0.82132 0.6181 0.30829 0.0
C3261 C 0.81518 0.62797 0.31248 0.0
C3262 C 0.81514 0.608 0.30423 0.0
C3263 C 0.80269 0.60753 0.30422 0.0
C3264 C 0.79651 0.61725 0.30861 0.0
H3265 H 0.75986 0.54998 0.27003 0.0
H3266 H 0.76457 0.56687 0.28329 0.0
C3267 C 0.80268 0.62739 0.31268 0.0
C3268 C 0.79631 0.59684 0.29953 0.0
H3269 H 0.77852 0.58697 0.27641 0.0
C3270 C 0.79862 0.58583 0.30491 0.0
C3271 C 0.78869 0.5973 0.28931 0.0
C3272 C 0.78609 0.60883 0.28299 0.0
C3273 C 0.79389 0.57524 0.30011 0.0
C3274 C 0.78678 0.57564 0.28956 0.0
C3275 C 0.78394 0.58669 0.28452 0.0
C3276 C 0.78362 0.56474 0.28274 0.0
C3277 C 0.79676 0.56367 0.30623 0.0
C3278 C 0.79273 0.55794 0.27811 0.0
C3279 C 0.79008 0.54844 0.27054 0.0
C3280 C 0.77824 0.54548 0.26742 0.0
C3281 C 0.76905 0.552 0.27238 0.0
C3282 C 0.77174 0.56165 0.2799 0.0
H3283 H 0.7988 0.56501 0.31584 0.0
H3284 H 0.78929 0.55721 0.3052 0.0
H3285 H 0.80471 0.55979 0.30222 0.0
H3286 H 0.80196 0.56027 0.27998 0.0
H3287 H 0.79737 0.5436 0.26688 0.0
H3288 H 0.90002 0.3204 0.33739 0.0
H3289 H 0.91766 0.31243 0.32811 0.0
H3290 H 0.90478 0.32489 0.29397 0.0
H3291 H 0.88704 0.33261 0.30305 0.0
H3292 H 0.91892 0.2957 0.30767 0.0
H3293 H 0.93879 0.34016 0.29927 0.0
H3294 H 0.92743 0.33774 0.31002 0.0
H3295 H 0.92352 0.33822 0.29447 0.0
C3296 C 0.90085 0.3213 0.32789 0.0
C3297 C 0.89216 0.32727 0.32099 0.0
C3298 C 0.91097 0.3168 0.32262 0.0
C3299 C 0.91258 0.31826 0.31041 0.0
C3300 C 0.90378 0.32388 0.30345 0.0
H3301 H 0.96739 0.3034 0.26053 0.0
H3302 H 0.94987 0.3102 0.27078 0.0
C3303 C 0.89368 0.32832 0.30868 0.0
C3304 C 0.92351 0.31403 0.30486 0.0
H3305 H 0.94818 0.32372 0.29072 0.0
C3306 C 0.92538 0.30179 0.30402 0.0
C3307 C 0.93185 0.32204 0.30009 0.0
C3308 C 0.9304 0.33529 0.30105 0.0
C3309 C 0.93525 0.29732 0.29824 0.0
C3310 C 0.94361 0.30533 0.29343 0.0
C3311 C 0.94177 0.31758 0.29438 0.0
C3312 C 0.95429 0.30122 0.28729 0.0
C3313 C 0.93643 0.28406 0.297 0.0
C3314 C 0.96271 0.29409 0.29322 0.0
C3315 C 0.97271 0.29018 0.28738 0.0
C3316 C 0.97457 0.29344 0.27552 0.0
C3317 C 0.96626 0.3008 0.26968 0.0
C3318 C 0.95622 0.30465 0.27551 0.0
H3319 H 0.9278 0.27939 0.29814 0.0
H3320 H 0.93988 0.28169 0.2882 0.0
H3321 H 0.94276 0.28077 0.30396 0.0
H3322 H 0.9616 0.29162 0.30241 0.0
H3323 H 0.97906 0.28472 0.2922 0.0
H3324 H 0.8159 0.41254 0.69415 0.0
H3325 H 0.80664 0.42931 0.70395 0.0
H3326 H 0.82411 0.41971 0.73707 0.0
H3327 H 0.83313 0.40276 0.7275 0.0
H3328 H 0.7917 0.42869 0.72465 0.0
H3329 H 0.83299 0.45547 0.73201 0.0
H3330 H 0.83184 0.44357 0.7213 0.0
H3331 H 0.83371 0.44028 0.73683 0.0
C3332 C 0.8177 0.4139 0.70354 0.0
C3333 C 0.82535 0.40629 0.70998 0.0
C3334 C 0.81245 0.42355 0.70911 0.0
C3335 C 0.81484 0.42586 0.72119 0.0
C3336 C 0.82234 0.41823 0.72768 0.0
H3337 H 0.77625 0.47073 0.76913 0.0
H3338 H 0.7873 0.4547 0.76007 0.0
C3339 C 0.82752 0.40855 0.72216 0.0
C3340 C 0.80929 0.43609 0.72709 0.0
H3341 H 0.81562 0.46246 0.74098 0.0
C3342 C 0.79692 0.43608 0.72821 0.0
C3343 C 0.81612 0.44576 0.73165 0.0
C3344 C 0.82939 0.44639 0.73033 0.0
C3345 C 0.79121 0.4454 0.73393 0.0
C3346 C 0.79806 0.45495 0.73871 0.0
C3347 C 0.81041 0.45507 0.73742 0.0
C3348 C 0.79244 0.465 0.74482 0.0
C3349 C 0.77786 0.44505 0.73472 0.0
C3350 C 0.79206 0.47624 0.73948 0.0
C3351 C 0.78574 0.48544 0.74463 0.0
C3352 C 0.77977 0.4836 0.75528 0.0
C3353 C 0.78073 0.47249 0.76093 0.0
C3354 C 0.78698 0.46328 0.75573 0.0
H3355 H 0.77372 0.43828 0.72871 0.0
H3356 H 0.77547 0.44287 0.74396 0.0
H3357 H 0.77406 0.45385 0.73247 0.0
H3358 H 0.79627 0.47777 0.73109 0.0
H3359 H 0.78522 0.49388 0.74004 0.0
H3360 H 0.11927 0.33177 0.70738 0.0
H3361 H 0.10204 0.32149 0.71528 0.0
H3362 H 0.11726 0.2878 0.70658 0.0
H3363 H 0.13481 0.29802 0.69905 0.0
H3364 H 0.08578 0.30615 0.70434 0.0
H3365 H 0.11003 0.28359 0.74158 0.0
H3366 H 0.11662 0.29548 0.73322 0.0
H3367 H 0.11541 0.28084 0.72701 0.0
C3368 C 0.11905 0.32216 0.70726 0.0
C3369 C 0.12853 0.31574 0.70269 0.0
C3370 C 0.10913 0.3163 0.71169 0.0
C3371 C 0.10841 0.30386 0.71169 0.0
C3372 C 0.1177 0.29739 0.70688 0.0
H3373 H 0.05171 0.26275 0.74672 0.0
H3374 H 0.068 0.26709 0.73318 0.0
C3375 C 0.12768 0.30327 0.70245 0.0
C3376 C 0.09793 0.29782 0.71681 0.0
H3377 H 0.08937 0.28052 0.74006 0.0
C3378 C 0.08658 0.30044 0.71207 0.0
C3379 C 0.09896 0.2903 0.72686 0.0
C3380 C 0.11089 0.28742 0.73256 0.0
C3381 C 0.07626 0.29608 0.71733 0.0
C3382 C 0.07728 0.28902 0.72768 0.0
C3383 C 0.08861 0.2859 0.73209 0.0
C3384 C 0.06683 0.28615 0.73492 0.0
C3385 C 0.06431 0.2993 0.71193 0.0
C3386 C 0.0608 0.2954 0.74034 0.0
C3387 C 0.05166 0.29296 0.74807 0.0
C3388 C 0.04827 0.2812 0.75057 0.0
C3389 C 0.05406 0.2719 0.74488 0.0
C3390 C 0.06338 0.27436 0.7372 0.0
H3391 H 0.06493 0.30153 0.70236 0.0
H3392 H 0.05778 0.29193 0.7129 0.0
H3393 H 0.06092 0.3072 0.71655 0.0
H3394 H 0.06343 0.30454 0.73888 0.0
H3395 H 0.04738 0.30033 0.7523 0.0
H3396 H 0.8925 0.72061 0.69027 0.0
H3397 H 0.91084 0.72808 0.6999 0.0
H3398 H 0.92 0.69254 0.71058 0.0
H3399 H 0.90176 0.68495 0.70085 0.0
H3400 H 0.92331 0.70943 0.72891 0.0
H3401 H 0.94449 0.72412 0.68747 0.0
H3402 H 0.92993 0.73 0.68948 0.0
H3403 H 0.93171 0.71432 0.68743 0.0
C3404 C 0.89846 0.71434 0.69454 0.0
C3405 C 0.89563 0.70215 0.6947 0.0
C3406 C 0.90895 0.71865 0.70008 0.0
C3407 C 0.91688 0.71086 0.70585 0.0
C3408 C 0.91402 0.69872 0.70618 0.0
H3409 H 0.99038 0.72781 0.72529 0.0
H3410 H 0.97202 0.71823 0.718 0.0
C3411 C 0.90355 0.6944 0.70064 0.0
C3412 C 0.92816 0.71536 0.71153 0.0
H3413 H 0.95418 0.72974 0.7056 0.0
C3414 C 0.93008 0.71385 0.72381 0.0
C3415 C 0.93706 0.72099 0.70486 0.0
C3416 C 0.93579 0.72238 0.69157 0.0
C3417 C 0.94056 0.71799 0.72963 0.0
C3418 C 0.9493 0.72392 0.72301 0.0
C3419 C 0.94745 0.72526 0.7107 0.0
C3420 C 0.96047 0.72883 0.72858 0.0
C3421 C 0.94225 0.71583 0.74278 0.0
C3422 C 0.96014 0.73784 0.73717 0.0
C3423 C 0.97067 0.74333 0.74141 0.0
C3424 C 0.98174 0.73998 0.73709 0.0
C3425 C 0.98204 0.73063 0.72884 0.0
C3426 C 0.97153 0.72516 0.72462 0.0
H3427 H 0.93638 0.70855 0.74589 0.0
H3428 H 0.95161 0.71359 0.74509 0.0
H3429 H 0.94001 0.72401 0.74766 0.0
H3430 H 0.95172 0.74099 0.74022 0.0
H3431 H 0.97006 0.75055 0.74768 0.0
H3432 H 0.69879 0.22953 0.61534 0.0
H3433 H 0.70681 0.24039 0.59841 0.0
H3434 H 0.70272 0.20908 0.57671 0.0
H3435 H 0.69471 0.19816 0.59357 0.0
H3436 H 0.72801 0.23153 0.58441 0.0
H3437 H 0.6861 0.23806 0.55792 0.0
H3438 H 0.68633 0.23595 0.57383 0.0
H3439 H 0.6886 0.22357 0.56422 0.0
C3440 C 0.6995 0.225 0.60692 0.0
C3441 C 0.69613 0.21299 0.60577 0.0
C3442 C 0.70411 0.2312 0.5973 0.0
C3443 C 0.70524 0.22555 0.58632 0.0
C3444 C 0.7018 0.21361 0.5851 0.0
H3445 H 0.73114 0.24053 0.51716 0.0
H3446 H 0.72021 0.23398 0.53438 0.0
C3447 C 0.69732 0.20737 0.59475 0.0
C3448 C 0.71053 0.23194 0.57625 0.0
H3449 H 0.70404 0.24323 0.54871 0.0
C3450 C 0.72279 0.23421 0.57664 0.0
C3451 C 0.70366 0.23532 0.56614 0.0
C3452 C 0.69042 0.2332 0.56544 0.0
C3453 C 0.72847 0.23943 0.56698 0.0
C3454 C 0.72161 0.24281 0.55679 0.0
C3455 C 0.70929 0.24071 0.55653 0.0
C3456 C 0.7272 0.24778 0.54605 0.0
C3457 C 0.74183 0.24074 0.56759 0.0
C3458 C 0.73437 0.25804 0.54669 0.0
C3459 C 0.74076 0.26176 0.53687 0.0
C3460 C 0.73992 0.25539 0.52614 0.0
C3461 C 0.73204 0.24564 0.52528 0.0
C3462 C 0.72578 0.24186 0.53514 0.0
H3463 H 0.74592 0.23498 0.57456 0.0
H3464 H 0.74573 0.23851 0.55896 0.0
H3465 H 0.74424 0.25007 0.56978 0.0
H3466 H 0.73533 0.26298 0.55491 0.0
H3467 H 0.74665 0.26938 0.5378 0.0
H3468 H 0.31955 0.17832 0.62377 0.0
H3469 H 0.30981 0.18662 0.60592 0.0
H3470 H 0.32433 0.22113 0.61467 0.0
H3471 H 0.3338 0.21306 0.63266 0.0
H3472 H 0.29325 0.20752 0.60365 0.0
H3473 H 0.33559 0.21303 0.5802 0.0
H3474 H 0.33401 0.20307 0.59264 0.0
H3475 H 0.33578 0.21874 0.59509 0.0
C3476 C 0.32056 0.18771 0.62201 0.0
C3477 C 0.32759 0.19497 0.62968 0.0
C3478 C 0.31501 0.19242 0.61176 0.0
C3479 C 0.31645 0.20446 0.6089 0.0
C3480 C 0.32323 0.21177 0.61662 0.0
H3481 H 0.3009 0.25736 0.55845 0.0
H3482 H 0.30677 0.24423 0.57459 0.0
C3483 C 0.32872 0.20711 0.62688 0.0
C3484 C 0.31116 0.20945 0.59775 0.0
H3485 H 0.31879 0.22299 0.57192 0.0
C3486 C 0.29878 0.21076 0.59661 0.0
C3487 C 0.31839 0.21357 0.58855 0.0
C3488 C 0.33168 0.21196 0.58908 0.0
C3489 C 0.29354 0.21673 0.58681 0.0
C3490 C 0.30086 0.22133 0.57787 0.0
C3491 C 0.31317 0.21949 0.57878 0.0
C3492 C 0.29627 0.22926 0.56822 0.0
C3493 C 0.2803 0.21863 0.58638 0.0
C3494 C 0.2882 0.2253 0.55925 0.0
C3495 C 0.28473 0.23291 0.54987 0.0
C3496 C 0.28938 0.24453 0.54931 0.0
C3497 C 0.29721 0.24845 0.55848 0.0
C3498 C 0.3006 0.24094 0.56777 0.0
H3499 H 0.27614 0.21606 0.59483 0.0
H3500 H 0.2783 0.22808 0.58448 0.0
H3501 H 0.27618 0.21321 0.57912 0.0
H3502 H 0.28484 0.21627 0.55933 0.0
H3503 H 0.27871 0.22961 0.54293 0.0
H3504 H 0.31149 0.82485 0.63221 0.0
H3505 H 0.30518 0.81364 0.61447 0.0
H3506 H 0.34168 0.81078 0.60449 0.0
H3507 H 0.34806 0.82204 0.62212 0.0
H3508 H 0.30878 0.81854 0.59038 0.0
H3509 H 0.33002 0.77625 0.60393 0.0
H3510 H 0.32787 0.78825 0.6142 0.0
H3511 H 0.33995 0.78882 0.60414 0.0
C3512 C 0.31817 0.82192 0.6262 0.0
C3513 C 0.3303 0.82427 0.62866 0.0
C3514 C 0.31455 0.81546 0.61609 0.0
C3515 C 0.32298 0.81118 0.60827 0.0
C3516 C 0.33505 0.81374 0.61056 0.0
H3517 H 0.32051 0.77115 0.54254 0.0
H3518 H 0.32628 0.78247 0.56032 0.0
C3519 C 0.33868 0.82018 0.62065 0.0
C3520 C 0.31914 0.80419 0.59764 0.0
H3521 H 0.32224 0.77733 0.58414 0.0
C3522 C 0.31166 0.8095 0.58904 0.0
C3523 C 0.32293 0.7924 0.59591 0.0
C3524 C 0.33055 0.78603 0.60508 0.0
C3525 C 0.30806 0.80345 0.57862 0.0
C3526 C 0.31189 0.79168 0.57686 0.0
C3527 C 0.31934 0.78635 0.58549 0.0
C3528 C 0.30831 0.78475 0.56611 0.0
C3529 C 0.30044 0.80981 0.56945 0.0
C3530 C 0.29631 0.78209 0.56354 0.0
C3531 C 0.29298 0.77558 0.5534 0.0
C3532 C 0.30159 0.7715 0.54563 0.0
C3533 C 0.31364 0.77403 0.54835 0.0
C3534 C 0.31695 0.78056 0.55849 0.0
H3535 H 0.30084 0.81958 0.57068 0.0
H3536 H 0.30323 0.80771 0.56033 0.0
H3537 H 0.29107 0.80689 0.57026 0.0
H3538 H 0.28951 0.78498 0.56945 0.0
H3539 H 0.28365 0.7736 0.55175 0.0
H3540 H 0.68237 0.82344 0.6033 0.0
H3541 H 0.69339 0.81713 0.58601 0.0
H3542 H 0.72636 0.82153 0.60602 0.0
H3543 H 0.71543 0.82768 0.62338 0.0
H3544 H 0.71181 0.8304 0.57416 0.0
H3545 H 0.72758 0.78727 0.59226 0.0
H3546 H 0.71533 0.79516 0.59841 0.0
H3547 H 0.73033 0.79992 0.60169 0.0
C3548 C 0.69196 0.82294 0.60406 0.0
C3549 C 0.69802 0.82603 0.61473 0.0
C3550 C 0.69824 0.81941 0.59416 0.0
C3551 C 0.71068 0.81876 0.59477 0.0
C3552 C 0.71676 0.82184 0.60539 0.0
H3553 H 0.76038 0.81401 0.53732 0.0
H3554 H 0.7491 0.82013 0.55441 0.0
C3555 C 0.7105 0.82544 0.61527 0.0
C3556 C 0.71732 0.81508 0.58424 0.0
H3557 H 0.73538 0.79349 0.57395 0.0
C3558 C 0.71695 0.82233 0.5741 0.0
C3559 C 0.72393 0.80449 0.58415 0.0
C3560 C 0.72428 0.79618 0.59466 0.0
C3561 C 0.72318 0.81935 0.56392 0.0
C3562 C 0.73 0.80889 0.56393 0.0
C3563 C 0.73022 0.80155 0.574 0.0
C3564 C 0.7368 0.80528 0.55347 0.0
C3565 C 0.72229 0.82731 0.55317 0.0
C3566 C 0.73373 0.79482 0.54735 0.0
C3567 C 0.74011 0.79132 0.53751 0.0
C3568 C 0.7498 0.79814 0.53364 0.0
C3569 C 0.75289 0.8086 0.53988 0.0
C3570 C 0.74646 0.81212 0.54969 0.0
H3571 H 0.71477 0.83356 0.55368 0.0
H3572 H 0.73062 0.8326 0.55255 0.0
H3573 H 0.72116 0.82199 0.54492 0.0
H3574 H 0.7263 0.7894 0.55012 0.0
H3575 H 0.73731 0.78332 0.5329 0.0
H3576 H 0.68441 0.78617 0.38607 0.0
H3577 H 0.69289 0.77676 0.40402 0.0
H3578 H 0.69835 0.81118 0.42 0.0
H3579 H 0.68966 0.82058 0.40233 0.0
H3580 H 0.71558 0.77983 0.41388 0.0
H3581 H 0.68237 0.79292 0.44632 0.0
H3582 H 0.67951 0.79374 0.43049 0.0
H3583 H 0.68767 0.80543 0.43809 0.0
C3584 C 0.68723 0.79171 0.39349 0.0
C3585 C 0.68636 0.80415 0.39274 0.0
C3586 C 0.69213 0.78632 0.40372 0.0
C3587 C 0.6961 0.79324 0.41345 0.0
C3588 C 0.69514 0.80562 0.41273 0.0
H3589 H 0.74019 0.79619 0.47366 0.0
H3590 H 0.72577 0.79775 0.45725 0.0
C3591 C 0.69029 0.81101 0.40254 0.0
C3592 C 0.70191 0.78772 0.42411 0.0
H3593 H 0.70182 0.78799 0.45443 0.0
C3594 C 0.71243 0.78135 0.42274 0.0
C3595 C 0.69776 0.78962 0.43568 0.0
C3596 C 0.68613 0.79569 0.43774 0.0
C3597 C 0.71936 0.77765 0.43265 0.0
C3598 C 0.71559 0.78027 0.44421 0.0
C3599 C 0.70471 0.78599 0.44556 0.0
C3600 C 0.7236 0.77882 0.45483 0.0
C3601 C 0.73104 0.77165 0.4307 0.0
C3602 C 0.72701 0.76761 0.45916 0.0
C3603 C 0.73529 0.76667 0.4687 0.0
C3604 C 0.74034 0.77694 0.47393 0.0
C3605 C 0.73656 0.78809 0.46978 0.0
C3606 C 0.72828 0.78901 0.4604 0.0
H3607 H 0.73321 0.77125 0.42116 0.0
H3608 H 0.73834 0.77643 0.4356 0.0
H3609 H 0.73067 0.76246 0.43422 0.0
H3610 H 0.72341 0.75962 0.45504 0.0
H3611 H 0.73805 0.75796 0.47169 0.0
H3612 H 0.69764 0.19622 0.40342 0.0
H3613 H 0.70874 0.20435 0.4206 0.0
H3614 H 0.74168 0.19732 0.40358 0.0
H3615 H 0.73064 0.18946 0.38621 0.0
H3616 H 0.7257 0.19341 0.43558 0.0
H3617 H 0.74486 0.23254 0.4127 0.0
H3618 H 0.73266 0.2239 0.40637 0.0
H3619 H 0.74759 0.21851 0.4058 0.0
C3620 C 0.70725 0.19651 0.40326 0.0
C3621 C 0.71323 0.19225 0.39337 0.0
C3622 C 0.71358 0.20109 0.41313 0.0
C3623 C 0.72604 0.20159 0.41332 0.0
C3624 C 0.73207 0.1972 0.40356 0.0
H3625 H 0.7712 0.2149 0.47671 0.0
H3626 H 0.76165 0.20614 0.45896 0.0
C3627 C 0.72574 0.19259 0.39368 0.0
C3628 C 0.73267 0.20663 0.4238 0.0
H3629 H 0.75142 0.22922 0.43257 0.0
C3630 C 0.73135 0.20122 0.43492 0.0
C3631 C 0.73994 0.21691 0.42295 0.0
C3632 C 0.7413 0.22339 0.41135 0.0
C3633 C 0.73712 0.20577 0.4452 0.0
C3634 C 0.74455 0.21593 0.44432 0.0
C3635 C 0.74582 0.22137 0.43321 0.0
C3636 C 0.75067 0.22132 0.45492 0.0
C3637 C 0.73499 0.19985 0.45697 0.0
C3638 C 0.74792 0.23289 0.45839 0.0
C3639 C 0.75334 0.23793 0.46855 0.0
C3640 C 0.76173 0.23153 0.47545 0.0
C3641 C 0.76466 0.22003 0.47177 0.0
C3642 C 0.7592 0.21499 0.4616 0.0
H3643 H 0.72706 0.19391 0.45655 0.0
H3644 H 0.74282 0.19442 0.45954 0.0
H3645 H 0.73379 0.20655 0.46403 0.0
H3646 H 0.74137 0.23795 0.45336 0.0
H3647 H 0.75071 0.24673 0.47111 0.0
H3648 H 0.34151 0.21742 0.39747 0.0
H3649 H 0.33592 0.22767 0.41549 0.0
H3650 H 0.31883 0.19576 0.42785 0.0
H3651 H 0.32491 0.18524 0.41013 0.0
H3652 H 0.31447 0.23232 0.42408 0.0
H3653 H 0.33949 0.20431 0.45641 0.0
H3654 H 0.34169 0.20354 0.44065 0.0
H3655 H 0.32927 0.19599 0.44708 0.0
C3656 C 0.33673 0.21249 0.40409 0.0
C3657 C 0.3338 0.20043 0.40235 0.0
C3658 C 0.33345 0.21841 0.41437 0.0
C3659 C 0.32715 0.21245 0.42316 0.0
C3660 C 0.32394 0.20049 0.42134 0.0
H3661 H 0.29568 0.23437 0.48892 0.0
H3662 H 0.30168 0.22391 0.47109 0.0
C3663 C 0.32729 0.19453 0.4111 0.0
C3664 C 0.32375 0.21883 0.4341 0.0
H3665 H 0.32606 0.2181 0.46442 0.0
C3666 C 0.31707 0.22924 0.43289 0.0
C3667 C 0.32716 0.21484 0.44562 0.0
C3668 C 0.3349 0.20413 0.44755 0.0
C3669 C 0.31355 0.23563 0.44287 0.0
C3670 C 0.31685 0.23157 0.45436 0.0
C3671 C 0.32352 0.22118 0.45559 0.0
C3672 C 0.31337 0.23794 0.46522 0.0
C3673 C 0.30612 0.24658 0.44107 0.0
C3674 C 0.31807 0.24923 0.46791 0.0
C3675 C 0.31467 0.25523 0.47812 0.0
C3676 C 0.30646 0.25006 0.4858 0.0
C3677 C 0.30188 0.23868 0.48312 0.0
C3678 C 0.30535 0.23266 0.47297 0.0
H3679 H 0.30243 0.24726 0.43184 0.0
H3680 H 0.29867 0.24661 0.4473 0.0
H3681 H 0.31172 0.25457 0.44292 0.0
H3682 H 0.32437 0.25341 0.46211 0.0
H3683 H 0.31831 0.264 0.47989 0.0
H3684 H 0.29015 0.83284 0.39442 0.0
H3685 H 0.28238 0.82526 0.41309 0.0
H3686 H 0.31811 0.81867 0.42608 0.0
H3687 H 0.32594 0.82652 0.40766 0.0
H3688 H 0.28522 0.80278 0.42256 0.0
H3689 H 0.30401 0.83644 0.45367 0.0
H3690 H 0.30316 0.83875 0.4378 0.0
H3691 H 0.31509 0.83028 0.44445 0.0
C3692 C 0.29635 0.82995 0.40134 0.0
C3693 C 0.30867 0.8303 0.39956 0.0
C3694 C 0.2919 0.82558 0.41197 0.0
C3695 C 0.29967 0.8216 0.42105 0.0
C3696 C 0.31195 0.82194 0.4193 0.0
H3697 H 0.30421 0.78013 0.48244 0.0
H3698 H 0.30602 0.79352 0.4656 0.0
C3699 C 0.31641 0.82628 0.40869 0.0
C3700 C 0.29503 0.81641 0.43211 0.0
H3701 H 0.29822 0.81774 0.4623 0.0
C3702 C 0.28784 0.80618 0.43126 0.0
C3703 C 0.2984 0.82092 0.44344 0.0
C3704 C 0.30549 0.83227 0.44492 0.0
C3705 C 0.28461 0.79987 0.44145 0.0
C3706 C 0.28857 0.80401 0.45275 0.0
C3707 C 0.29522 0.81458 0.45361 0.0
C3708 C 0.28718 0.79674 0.46358 0.0
C3709 C 0.2776 0.78845 0.44004 0.0
C3710 C 0.27597 0.79433 0.46822 0.0
C3711 C 0.27489 0.78665 0.47794 0.0
C3712 C 0.28501 0.78126 0.48308 0.0
C3713 C 0.29623 0.78406 0.47864 0.0
C3714 C 0.29729 0.79175 0.46903 0.0
H3715 H 0.27652 0.78571 0.4306 0.0
H3716 H 0.28203 0.7812 0.44511 0.0
H3717 H 0.26864 0.7896 0.44367 0.0
H3718 H 0.26807 0.79822 0.4642 0.0
H3719 H 0.26613 0.78466 0.48118 0.0
H3720 H 0.62503 0.21922 0.68175 0.0
H3721 H 0.60686 0.22588 0.69091 0.0
H3722 H 0.59518 0.18955 0.6946 0.0
H3723 H 0.61316 0.18282 0.6851 0.0
H3724 H 0.57738 0.20449 0.6858 0.0
H3725 H 0.59961 0.22345 0.72619 0.0
H3726 H 0.60525 0.2291 0.71254 0.0
H3727 H 0.60707 0.2137 0.71623 0.0
C3728 C 0.61856 0.21264 0.68442 0.0
C3729 C 0.62059 0.20047 0.68272 0.0
C3730 C 0.60824 0.21646 0.68978 0.0
C3731 C 0.59975 0.2082 0.69361 0.0
C3732 C 0.60166 0.19607 0.69179 0.0
H3733 H 0.54276 0.22291 0.74152 0.0
H3734 H 0.56007 0.21502 0.73178 0.0
C3735 C 0.61198 0.19223 0.68644 0.0
C3736 C 0.58884 0.21223 0.69939 0.0
H3737 H 0.5791 0.22756 0.72326 0.0
C3738 C 0.57774 0.2095 0.69401 0.0
C3739 C 0.58932 0.21864 0.71019 0.0
C3740 C 0.60094 0.22131 0.71671 0.0
C3741 C 0.56712 0.21319 0.69902 0.0
C3742 C 0.56762 0.21993 0.70961 0.0
C3743 C 0.57872 0.22248 0.71509 0.0
C3744 C 0.55677 0.22435 0.71524 0.0
C3745 C 0.55544 0.20967 0.69303 0.0
C3746 C 0.54915 0.23223 0.70919 0.0
C3747 C 0.53923 0.23678 0.71476 0.0
C3748 C 0.53681 0.23363 0.72653 0.0
C3749 C 0.54443 0.22565 0.73251 0.0
C3750 C 0.55431 0.22109 0.72694 0.0
H3751 H 0.55644 0.20199 0.68698 0.0
H3752 H 0.54872 0.20735 0.69968 0.0
H3753 H 0.55205 0.21723 0.68767 0.0
H3754 H 0.55101 0.23508 0.70025 0.0
H3755 H 0.53368 0.24304 0.70995 0.0
H3756 H 0.3425 0.12588 0.72954 0.0
H3757 H 0.33544 0.10849 0.74029 0.0
H3758 H 0.3182 0.09528 0.70821 0.0
H3759 H 0.32572 0.11236 0.69723 0.0
H3760 H 0.3132 0.10074 0.74432 0.0
H3761 H 0.3367 0.06658 0.71895 0.0
H3762 H 0.34004 0.08221 0.71763 0.0
H3763 H 0.32738 0.07584 0.70975 0.0
C3764 C 0.33737 0.1192 0.72469 0.0
C3765 C 0.33482 0.12051 0.71245 0.0
C3766 C 0.33325 0.10929 0.7309 0.0
C3767 C 0.32647 0.10044 0.72504 0.0
C3768 C 0.32366 0.10183 0.71289 0.0
H3769 H 0.28975 0.03663 0.7476 0.0
H3770 H 0.29761 0.05373 0.73687 0.0
C3771 C 0.32783 0.11172 0.70665 0.0
C3772 C 0.32215 0.08991 0.73173 0.0
H3773 H 0.32229 0.05957 0.73238 0.0
C3774 C 0.31526 0.09174 0.74174 0.0
C3775 C 0.32485 0.07815 0.72841 0.0
C3776 C 0.33274 0.07555 0.71817 0.0
C3777 C 0.31081 0.08218 0.74835 0.0
C3778 C 0.31341 0.07044 0.74494 0.0
C3779 C 0.32031 0.06858 0.73496 0.0
C3780 C 0.30885 0.05998 0.7515 0.0
C3781 C 0.30316 0.08467 0.75879 0.0
C3782 C 0.31269 0.0577 0.76325 0.0
C3783 C 0.3082 0.0479 0.76942 0.0
C3784 C 0.29975 0.04022 0.76397 0.0
C3785 C 0.29608 0.04246 0.75213 0.0
C3786 C 0.30063 0.05219 0.74596 0.0
H3787 H 0.30003 0.09398 0.75881 0.0
H3788 H 0.29531 0.07862 0.75875 0.0
H3789 H 0.30838 0.08312 0.76715 0.0
H3790 H 0.31915 0.06351 0.76765 0.0
H3791 H 0.31118 0.04648 0.77853 0.0
H3792 H 0.40949 0.85143 0.71719 0.0
H3793 H 0.42723 0.84359 0.72746 0.0
H3794 H 0.4142 0.80792 0.72156 0.0
H3795 H 0.39645 0.81565 0.71139 0.0
H3796 H 0.42954 0.82885 0.74758 0.0
H3797 H 0.44742 0.80716 0.70786 0.0
H3798 H 0.43572 0.81796 0.70688 0.0
H3799 H 0.43242 0.80286 0.71088 0.0
C3800 C 0.41035 0.84192 0.71816 0.0
C3801 C 0.40158 0.83418 0.71335 0.0
C3802 C 0.42052 0.83745 0.72399 0.0
C3803 C 0.42215 0.82516 0.72508 0.0
C3804 C 0.41328 0.81743 0.72057 0.0
H3805 H 0.47569 0.7786 0.75529 0.0
H3806 H 0.45806 0.78752 0.74602 0.0
C3807 C 0.40313 0.82187 0.71474 0.0
C3808 C 0.43309 0.82039 0.73097 0.0
H3809 H 0.45685 0.80256 0.72641 0.0
C3810 C 0.43557 0.82317 0.74294 0.0
C3811 C 0.44095 0.81298 0.7249 0.0
C3812 C 0.43909 0.81014 0.71189 0.0
C3813 C 0.4455 0.81846 0.7491 0.0
C3814 C 0.45328 0.81094 0.74305 0.0
C3815 C 0.45086 0.80827 0.73105 0.0
C3816 C 0.46393 0.80563 0.74901 0.0
C3817 C 0.4474 0.82131 0.7621 0.0
C3818 C 0.47316 0.81283 0.75372 0.0
C3819 C 0.48331 0.80774 0.759 0.0
C3820 C 0.48449 0.79533 0.7596 0.0
C3821 C 0.47519 0.78816 0.75487 0.0
C3822 C 0.46506 0.79326 0.7496 0.0
H3823 H 0.43918 0.82464 0.76608 0.0
H3824 H 0.45043 0.81337 0.76714 0.0
H3825 H 0.45436 0.8283 0.76311 0.0
H3826 H 0.47261 0.8224 0.75313 0.0
H3827 H 0.49034 0.81355 0.76237 0.0
H3828 H 0.70281 0.8968 0.69359 0.0
H3829 H 0.70872 0.91536 0.70344 0.0
H3830 H 0.6719 0.92449 0.7067 0.0
H3831 H 0.6659 0.90598 0.69681 0.0
H3832 H 0.70378 0.93855 0.69656 0.0
H3833 H 0.68517 0.92872 0.74061 0.0
H3834 H 0.68708 0.91741 0.72953 0.0
H3835 H 0.6747 0.9273 0.72834 0.0
C3836 C 0.69596 0.90278 0.69635 0.0
C3837 C 0.68387 0.89987 0.69444 0.0
C3838 C 0.69936 0.91336 0.70203 0.0
C3839 C 0.69076 0.92123 0.70598 0.0
C3840 C 0.67869 0.91842 0.70399 0.0
H3841 H 0.69603 0.99034 0.74086 0.0
H3842 H 0.6889 0.97207 0.73114 0.0
C3843 C 0.67528 0.90783 0.69833 0.0
C3844 C 0.69446 0.93252 0.71187 0.0
H3845 H 0.69278 0.94815 0.73772 0.0
C3846 C 0.7014 0.94064 0.70557 0.0
C3847 C 0.6913 0.93525 0.72361 0.0
C3848 C 0.68424 0.92668 0.73098 0.0
C3849 C 0.7052 0.95145 0.71064 0.0
C3850 C 0.70215 0.95414 0.72242 0.0
C3851 C 0.6951 0.94608 0.72869 0.0
C3852 C 0.70644 0.96513 0.72847 0.0
C3853 C 0.71231 0.95999 0.70329 0.0
C3854 C 0.71865 0.96718 0.73041 0.0
C3855 C 0.72275 0.97757 0.73599 0.0
C3856 C 0.71471 0.98614 0.73982 0.0
C3857 C 0.70246 0.98393 0.73809 0.0
C3858 C 0.69837 0.97352 0.73249 0.0
H3859 H 0.71116 0.95813 0.69364 0.0
H3860 H 0.70972 0.9693 0.70495 0.0
H3861 H 0.72188 0.95911 0.70573 0.0
H3862 H 0.72503 0.9607 0.72766 0.0
H3863 H 0.73222 0.9788 0.73742 0.0
H3864 H 0.6161 0.8172 0.29258 0.0
H3865 H 0.59724 0.81128 0.28276 0.0
H3866 H 0.58151 0.80681 0.31689 0.0
H3867 H 0.60018 0.81298 0.32675 0.0
H3868 H 0.58456 0.78991 0.28495 0.0
H3869 H 0.55743 0.82771 0.29904 0.0
H3870 H 0.57347 0.82799 0.29998 0.0
H3871 H 0.56512 0.82058 0.31122 0.0
C3872 C 0.60858 0.8151 0.298 0.0
C3873 C 0.60968 0.81561 0.31048 0.0
C3874 C 0.59782 0.81166 0.29237 0.0
C3875 C 0.58789 0.80878 0.29907 0.0
C3876 C 0.58897 0.80921 0.31151 0.0
H3877 H 0.51993 0.77724 0.29514 0.0
H3878 H 0.53821 0.78842 0.29919 0.0
C3879 C 0.59972 0.8126 0.31715 0.0
C3880 C 0.57649 0.80489 0.29316 0.0
H3881 H 0.54673 0.81052 0.29189 0.0
C3882 C 0.57631 0.79451 0.28628 0.0
C3883 C 0.56574 0.81095 0.29484 0.0
C3884 C 0.56543 0.82249 0.30157 0.0
C3885 C 0.56558 0.78964 0.28166 0.0
C3886 C 0.55475 0.79542 0.2838 0.0
C3887 C 0.55502 0.80609 0.29023 0.0
C3888 C 0.54301 0.78979 0.2808 0.0
C3889 C 0.56584 0.77798 0.27511 0.0
C3890 C 0.53934 0.78717 0.26903 0.0
C3891 C 0.52876 0.78076 0.26665 0.0
C3892 C 0.52174 0.77684 0.27603 0.0
C3893 C 0.52516 0.78005 0.28771 0.0
C3894 C 0.53563 0.78646 0.29005 0.0
H3895 H 0.57468 0.77372 0.2759 0.0
H3896 H 0.55905 0.77174 0.27853 0.0
H3897 H 0.56375 0.77953 0.26555 0.0
H3898 H 0.5448 0.78983 0.26172 0.0
H3899 H 0.52638 0.77838 0.25757 0.0
H3900 H 0.68062 0.11112 0.30743 0.0
H3901 H 0.68693 0.09299 0.29767 0.0
H3902 H 0.72341 0.10122 0.30736 0.0
H3903 H 0.71726 0.11962 0.31665 0.0
H3904 H 0.72095 0.09309 0.28447 0.0
H3905 H 0.69709 0.06314 0.31512 0.0
H3906 H 0.6879 0.07371 0.30737 0.0
H3907 H 0.69905 0.07878 0.31798 0.0
C3908 C 0.69001 0.10917 0.30737 0.0
C3909 C 0.69841 0.11685 0.31294 0.0
C3910 C 0.69359 0.09871 0.30189 0.0
C3911 C 0.70563 0.09561 0.30195 0.0
C3912 C 0.71406 0.10337 0.30726 0.0
H3913 H 0.74315 0.03174 0.29915 0.0
H3914 H 0.73139 0.0491 0.30325 0.0
C3915 C 0.7105 0.11385 0.31269 0.0
C3916 C 0.70954 0.08422 0.29671 0.0
H3917 H 0.70772 0.05412 0.30001 0.0
C3918 C 0.71797 0.08456 0.28778 0.0
C3919 C 0.70568 0.07308 0.30106 0.0
C3920 C 0.69701 0.07209 0.31098 0.0
C3921 C 0.72293 0.07411 0.28335 0.0
C3922 C 0.7192 0.06299 0.28784 0.0
C3923 C 0.71047 0.06264 0.29648 0.0
C3924 C 0.72544 0.0518 0.28502 0.0
C3925 C 0.73257 0.0751 0.27438 0.0
C3926 C 0.72579 0.04727 0.2734 0.0
C3927 C 0.73261 0.03722 0.27099 0.0
C3928 C 0.73916 0.0316 0.28017 0.0
C3929 C 0.73831 0.03589 0.29183 0.0
C3930 C 0.73154 0.04583 0.29421 0.0
H3931 H 0.73578 0.08438 0.27332 0.0
H3932 H 0.74023 0.06948 0.27704 0.0
H3933 H 0.72906 0.07194 0.26563 0.0
H3934 H 0.72099 0.05161 0.26619 0.0
H3935 H 0.73307 0.03412 0.26193 0.0
H3936 H 0.39387 0.19477 0.30252 0.0
H3937 H 0.41138 0.20066 0.29156 0.0
H3938 H 0.43344 0.19569 0.3231 0.0
H3939 H 0.41588 0.18994 0.33418 0.0
H3940 H 0.43923 0.21586 0.31161 0.0
H3941 H 0.4364 0.17875 0.27949 0.0
H3942 H 0.42302 0.18721 0.2796 0.0
H3943 H 0.42769 0.17908 0.29265 0.0
C3944 C 0.40246 0.19488 0.30711 0.0
C3945 C 0.40352 0.1918 0.31919 0.0
C3946 C 0.41247 0.19819 0.30082 0.0
C3947 C 0.42377 0.19834 0.30643 0.0
C3948 C 0.42482 0.19555 0.31856 0.0
H3949 H 0.48992 0.20272 0.26796 0.0
H3950 H 0.47318 0.19608 0.27978 0.0
C3951 C 0.41478 0.19232 0.3249 0.0
C3952 C 0.43445 0.20159 0.29966 0.0
H3953 H 0.44964 0.19468 0.27486 0.0
C3954 C 0.44155 0.21118 0.30361 0.0
C3955 C 0.43761 0.19534 0.28935 0.0
C3956 C 0.43086 0.18445 0.28508 0.0
C3957 C 0.45153 0.21491 0.29737 0.0
C3958 C 0.45432 0.20907 0.28671 0.0
C3959 C 0.44741 0.19926 0.28294 0.0
C3960 C 0.46433 0.21302 0.27932 0.0
C3961 C 0.45908 0.22496 0.30237 0.0
C3962 C 0.46477 0.22465 0.27488 0.0
C3963 C 0.47433 0.22846 0.26818 0.0
C3964 C 0.48356 0.22067 0.26562 0.0
C3965 C 0.48291 0.2089 0.26972 0.0
C3966 C 0.47338 0.20512 0.27652 0.0
H3967 H 0.45799 0.22596 0.31208 0.0
H3968 H 0.46864 0.22359 0.30071 0.0
H3969 H 0.45632 0.23339 0.29806 0.0
H3970 H 0.45771 0.2308 0.2766 0.0
H3971 H 0.47446 0.2375 0.26495 0.0
H3972 H 0.30118 0.89672 0.30349 0.0
H3973 H 0.29111 0.91452 0.29589 0.0
H3974 H 0.30158 0.93339 0.32783 0.0
H3975 H 0.3117 0.91571 0.33544 0.0
H3976 H 0.27216 0.92767 0.30859 0.0
H3977 H 0.31236 0.95481 0.29929 0.0
H3978 H 0.31269 0.93882 0.30037 0.0
H3979 H 0.3121 0.94766 0.31356 0.0
C3980 C 0.30146 0.90471 0.30882 0.0
C3981 C 0.30723 0.90482 0.32006 0.0
C3982 C 0.29564 0.91483 0.30451 0.0
C3983 C 0.29566 0.92527 0.31129 0.0
C3984 C 0.30154 0.92545 0.32243 0.0
H3985 H 0.2705 0.99682 0.29852 0.0
H3986 H 0.2785 0.97875 0.30757 0.0
C3987 C 0.30726 0.91532 0.32679 0.0
C3988 C 0.28933 0.93593 0.30686 0.0
H3989 H 0.29386 0.96432 0.29734 0.0
C3990 C 0.27687 0.93569 0.30608 0.0
C3991 C 0.29552 0.94637 0.30371 0.0
C3992 C 0.30891 0.94699 0.30417 0.0
C3993 C 0.27041 0.94571 0.30238 0.0
C3994 C 0.27661 0.95615 0.2991 0.0
C3995 C 0.28909 0.95635 0.2999 0.0
C3996 C 0.27044 0.96689 0.29449 0.0
C3997 C 0.25703 0.94509 0.30231 0.0
C3998 C 0.26301 0.96625 0.28427 0.0
C3999 C 0.25831 0.97656 0.27915 0.0
C4000 C 0.2611 0.98777 0.28404 0.0
C4001 C 0.26816 0.98835 0.29453 0.0
C4002 C 0.27279 0.97802 0.29969 0.0
H4003 H 0.25381 0.93817 0.30851 0.0
H4004 H 0.25319 0.95373 0.3048 0.0
H4005 H 0.25365 0.94274 0.29326 0.0
H4006 H 0.26127 0.95783 0.27992 0.0
H4007 H 0.25299 0.97577 0.27101 0.0
H4008 H 0.70737 0.12173 0.66091 0.0
H4009 H 0.71691 0.10394 0.66907 0.0
H4010 H 0.71145 0.11655 0.70456 0.0
H4011 H 0.70224 0.13448 0.69651 0.0
H4012 H 0.73419 0.10676 0.70144 0.0
H4013 H 0.69781 0.07695 0.68442 0.0
H4014 H 0.70495 0.0861 0.67362 0.0
H4015 H 0.69631 0.09286 0.68485 0.0
C4016 C 0.70834 0.12079 0.67045 0.0
C4017 C 0.70392 0.12949 0.67806 0.0
C4018 C 0.71371 0.11057 0.6751 0.0
C4019 C 0.71474 0.10884 0.68742 0.0
C4020 C 0.71069 0.11767 0.69502 0.0
H4021 H 0.71634 0.05254 0.73537 0.0
H4022 H 0.7129 0.06863 0.72139 0.0
C4023 C 0.70533 0.12787 0.6904 0.0
C4024 C 0.71958 0.09768 0.69254 0.0
H4025 H 0.71295 0.06828 0.69612 0.0
C4026 C 0.72967 0.0983 0.70015 0.0
C4027 C 0.71362 0.08667 0.69086 0.0
C4028 C 0.70252 0.08553 0.68307 0.0
C4029 C 0.7337 0.08829 0.70648 0.0
C4030 C 0.72752 0.07737 0.70507 0.0
C4031 C 0.71773 0.07665 0.69709 0.0
C4032 C 0.72988 0.06715 0.71309 0.0
C4033 C 0.74411 0.0896 0.71514 0.0
C4034 C 0.74056 0.06083 0.71299 0.0
C4035 C 0.7426 0.05149 0.72106 0.0
C4036 C 0.73397 0.04842 0.72934 0.0
C4037 C 0.72323 0.05468 0.72919 0.0
C4038 C 0.72121 0.06389 0.72116 0.0
H4039 H 0.74707 0.09898 0.71617 0.0
H4040 H 0.74176 0.08608 0.72398 0.0
H4041 H 0.75168 0.08438 0.71196 0.0
H4042 H 0.74732 0.06314 0.70674 0.0
H4043 H 0.75095 0.04683 0.72095 0.0
H4044 H 0.6991 0.89277 0.33902 0.0
H4045 H 0.71026 0.91032 0.33283 0.0
H4046 H 0.70521 0.89999 0.2962 0.0
H4047 H 0.69407 0.88236 0.30231 0.0
H4048 H 0.73102 0.91158 0.32027 0.0
H4049 H 0.69443 0.93442 0.29568 0.0
H4050 H 0.69183 0.92215 0.30561 0.0
H4051 H 0.69689 0.91949 0.29089 0.0
C4052 C 0.70039 0.89419 0.32964 0.0
C4053 C 0.69565 0.88613 0.32117 0.0
C4054 C 0.70673 0.90427 0.32612 0.0
C4055 C 0.70845 0.90658 0.31405 0.0
C4056 C 0.70378 0.89855 0.30555 0.0
H4057 H 0.74588 0.96225 0.27612 0.0
H4058 H 0.73482 0.94447 0.28181 0.0
C4059 C 0.69741 0.88846 0.30907 0.0
C4060 C 0.7154 0.91721 0.31041 0.0
H4061 H 0.71373 0.9428 0.29417 0.0
C4062 C 0.72723 0.91843 0.3146 0.0
C4063 C 0.71046 0.92613 0.30298 0.0
C4064 C 0.69768 0.92558 0.2986 0.0
C4065 C 0.73428 0.92824 0.31144 0.0
C4066 C 0.72933 0.93718 0.30405 0.0
C4067 C 0.71752 0.93594 0.29982 0.0
C4068 C 0.73621 0.94795 0.30067 0.0
C4069 C 0.74706 0.92881 0.31585 0.0
C4070 C 0.74059 0.9559 0.30936 0.0
C4071 C 0.74688 0.96613 0.30614 0.0
C4072 C 0.74887 0.96868 0.29412 0.0
C4073 C 0.74442 0.96068 0.28544 0.0
C4074 C 0.73813 0.95046 0.28868 0.0
H4075 H 0.75034 0.91996 0.31867 0.0
H4076 H 0.7529 0.93236 0.30889 0.0
H4077 H 0.7478 0.93482 0.32363 0.0
H4078 H 0.73899 0.95429 0.31866 0.0
H4079 H 0.74997 0.97215 0.31306 0.0
H4080 H 0.62308 0.20745 0.33827 0.0
H4081 H 0.60507 0.21728 0.33067 0.0
H4082 H 0.61168 0.20448 0.29551 0.0
H4083 H 0.62982 0.19496 0.30287 0.0
H4084 H 0.60253 0.23465 0.30944 0.0
H4085 H 0.57714 0.19229 0.30506 0.0
H4086 H 0.59002 0.19399 0.3149 0.0
H4087 H 0.59183 0.19218 0.29924 0.0
C4088 C 0.62082 0.20686 0.32888 0.0
C4089 C 0.6279 0.20029 0.32121 0.0
C4090 C 0.61049 0.21245 0.32458 0.0
C4091 C 0.60701 0.2115 0.31256 0.0
C4092 C 0.61416 0.20519 0.30485 0.0
H4093 H 0.55619 0.22703 0.25979 0.0
H4094 H 0.57224 0.22121 0.27331 0.0
C4095 C 0.62449 0.19968 0.30911 0.0
C4096 C 0.59577 0.21678 0.30797 0.0
H4097 H 0.56903 0.20906 0.29503 0.0
C4098 C 0.59509 0.22912 0.30647 0.0
C4099 C 0.58608 0.20952 0.3042 0.0
C4100 C 0.5862 0.19626 0.306 0.0
C4101 C 0.58523 0.23431 0.30057 0.0
C4102 C 0.57581 0.22696 0.29624 0.0
C4103 C 0.57626 0.21469 0.29835 0.0
C4104 C 0.56621 0.23144 0.28813 0.0
C4105 C 0.58524 0.24751 0.2984 0.0
C4106 C 0.55749 0.23931 0.29191 0.0
C4107 C 0.54816 0.24274 0.28409 0.0
C4108 C 0.54743 0.23826 0.27243 0.0
C4109 C 0.55636 0.23059 0.26871 0.0
C4110 C 0.56559 0.22724 0.27645 0.0
H4111 H 0.59382 0.25178 0.30116 0.0
H4112 H 0.58344 0.24939 0.28884 0.0
H4113 H 0.57807 0.25161 0.30347 0.0
H4114 H 0.55773 0.24257 0.30095 0.0
H4115 H 0.54142 0.24863 0.28722 0.0
H4116 H 0.33839 0.10936 0.32427 0.0
H4117 H 0.32914 0.0928 0.31334 0.0
H4118 H 0.2957 0.11107 0.3123 0.0
H4119 H 0.30498 0.12784 0.32305 0.0
H4120 H 0.30932 0.07824 0.3187 0.0
H4121 H 0.30175 0.10394 0.27705 0.0
H4122 H 0.31154 0.10912 0.28897 0.0
H4123 H 0.29574 0.11026 0.29018 0.0
C4124 C 0.32907 0.10988 0.3217 0.0
C4125 C 0.32245 0.11999 0.32441 0.0
C4126 C 0.32378 0.10038 0.31551 0.0
C4127 C 0.31179 0.10079 0.31183 0.0
C4128 C 0.30502 0.11066 0.31488 0.0
H4129 H 0.26836 0.05235 0.2682 0.0
H4130 H 0.27585 0.0689 0.28034 0.0
C4131 C 0.31031 0.12018 0.32113 0.0
C4132 C 0.3065 0.09093 0.30465 0.0
H4133 H 0.29481 0.08412 0.27713 0.0
C4134 C 0.30613 0.07951 0.30962 0.0
C4135 C 0.30235 0.09262 0.29279 0.0
C4136 C 0.30292 0.10461 0.28686 0.0
C4137 C 0.30163 0.06976 0.30309 0.0
C4138 C 0.29765 0.07141 0.29117 0.0
C4139 C 0.29789 0.08286 0.28625 0.0
C4140 C 0.29323 0.06138 0.28366 0.0
C4141 C 0.30102 0.0578 0.30909 0.0
C4142 C 0.30058 0.05176 0.28126 0.0
C4143 C 0.29629 0.04222 0.27438 0.0
C4144 C 0.28457 0.04214 0.26969 0.0
C4145 C 0.27735 0.05198 0.27184 0.0
C4146 C 0.28164 0.0615 0.27872 0.0
H4147 H 0.30125 0.05864 0.31892 0.0
H4148 H 0.29282 0.05287 0.30629 0.0
H4149 H 0.30879 0.05249 0.30658 0.0
H4150 H 0.30964 0.05159 0.28475 0.0
H4151 H 0.3021 0.03481 0.27298 0.0
H4152 H 0.37505 0.80339 0.32692 0.0
H4153 H 0.39217 0.79257 0.32006 0.0
H4154 H 0.40612 0.82471 0.30477 0.0
H4155 H 0.38928 0.83576 0.31212 0.0
H4156 H 0.40024 0.7887 0.29813 0.0
H4157 H 0.43431 0.81378 0.32472 0.0
H4158 H 0.41862 0.81511 0.32713 0.0
H4159 H 0.42533 0.82294 0.31509 0.0
C4160 C 0.38182 0.80822 0.32223 0.0
C4161 C 0.38083 0.82051 0.32024 0.0
C4162 C 0.39158 0.80198 0.31823 0.0
C4163 C 0.40058 0.80785 0.31211 0.0
C4164 C 0.39944 0.82003 0.30973 0.0
H4165 H 0.46564 0.78286 0.28106 0.0
H4166 H 0.44841 0.79435 0.28676 0.0
C4167 C 0.38971 0.82631 0.3138 0.0
C4168 C 0.41109 0.80114 0.30822 0.0
H4169 H 0.44138 0.79988 0.31091 0.0
C4170 C 0.40922 0.79114 0.30095 0.0
C4171 C 0.42284 0.80429 0.31192 0.0
C4172 C 0.42543 0.81454 0.32024 0.0
C4173 C 0.41876 0.78428 0.29721 0.0
C4174 C 0.43047 0.78745 0.30091 0.0
C4175 C 0.43238 0.79749 0.30808 0.0
C4176 C 0.44088 0.78041 0.29746 0.0
C4177 C 0.41627 0.77377 0.28922 0.0
C4178 C 0.44243 0.76879 0.3017 0.0
C4179 C 0.45228 0.7622 0.29847 0.0
C4180 C 0.46076 0.76708 0.2909 0.0
C4181 C 0.4592 0.77876 0.28675 0.0
C4182 C 0.4494 0.78537 0.29005 0.0
H4183 H 0.40714 0.77397 0.28519 0.0
H4184 H 0.42275 0.77347 0.282 0.0
H4185 H 0.41717 0.76548 0.29447 0.0
H4186 H 0.43602 0.76484 0.30754 0.0
H4187 H 0.45317 0.75322 0.30176 0.0
H4188 H 0.323 0.90274 0.72084 0.0
H4189 H 0.31268 0.91998 0.72834 0.0
H4190 H 0.30052 0.92874 0.69282 0.0
H4191 H 0.31114 0.91165 0.68511 0.0
H4192 H 0.31674 0.94523 0.71894 0.0
H4193 H 0.27008 0.92826 0.7153 0.0
H4194 H 0.28247 0.91827 0.71681 0.0
H4195 H 0.27992 0.92613 0.70317 0.0
C4196 C 0.31824 0.90836 0.71456 0.0
C4197 C 0.31801 0.9058 0.70233 0.0
C4198 C 0.31226 0.91816 0.71889 0.0
C4199 C 0.30579 0.92558 0.71114 0.0
C4200 C 0.30536 0.92304 0.69896 0.0
H4201 H 0.26923 0.98917 0.73909 0.0
H4202 H 0.27531 0.97444 0.72428 0.0
C4203 C 0.31142 0.91324 0.69459 0.0
C4204 C 0.29998 0.93623 0.71592 0.0
H4205 H 0.27335 0.94647 0.7252 0.0
C4206 C 0.30723 0.94561 0.7201 0.0
C4207 C 0.28756 0.93674 0.71734 0.0
C4208 C 0.27947 0.92684 0.71297 0.0
C4209 C 0.30245 0.95523 0.72616 0.0
C4210 C 0.29014 0.95538 0.72827 0.0
C4211 C 0.28277 0.94634 0.72352 0.0
C4212 C 0.28531 0.96379 0.73697 0.0
C4213 C 0.3107 0.96494 0.73072 0.0
C4214 C 0.28862 0.96244 0.74896 0.0
C4215 C 0.28522 0.97072 0.7573 0.0
C4216 C 0.27837 0.98059 0.75391 0.0
C4217 C 0.27452 0.98167 0.74196 0.0
C4218 C 0.278 0.9733 0.73351 0.0
H4219 H 0.31909 0.96524 0.72579 0.0
H4220 H 0.30638 0.97373 0.73003 0.0
H4221 H 0.31299 0.96326 0.74022 0.0
H4222 H 0.29412 0.95508 0.75183 0.0
H4223 H 0.2882 0.96948 0.76644 0.0
H4224 H 0.60908 0.80783 0.67195 0.0
H4225 H 0.59229 0.79726 0.68067 0.0
H4226 H 0.60822 0.80225 0.7156 0.0
H4227 H 0.62512 0.81251 0.70697 0.0
H4228 H 0.59845 0.77916 0.71164 0.0
H4229 H 0.56669 0.81488 0.69908 0.0
H4230 H 0.5749 0.80849 0.68728 0.0
H4231 H 0.58257 0.81701 0.69863 0.0
C4232 C 0.60908 0.80653 0.68147 0.0
C4233 C 0.61839 0.81114 0.68878 0.0
C4234 C 0.59944 0.80057 0.68645 0.0
C4235 C 0.59893 0.79911 0.6988 0.0
C4236 C 0.6084 0.80332 0.70605 0.0
H4237 H 0.54828 0.79376 0.75098 0.0
H4238 H 0.56271 0.7983 0.73599 0.0
C4239 C 0.61801 0.80928 0.70111 0.0
C4240 C 0.58837 0.7937 0.70436 0.0
H4241 H 0.55948 0.79923 0.71064 0.0
C4242 C 0.58986 0.78341 0.71127 0.0
C4243 C 0.5772 0.79932 0.70391 0.0
C4244 C 0.57518 0.81058 0.69691 0.0
C4245 C 0.5806 0.77885 0.71809 0.0
C4246 C 0.56956 0.78471 0.71794 0.0
C4247 C 0.56793 0.79471 0.71065 0.0
C4248 C 0.56027 0.78173 0.72655 0.0
C4249 C 0.58289 0.76824 0.72596 0.0
C4250 C 0.55394 0.77091 0.72616 0.0
C4251 C 0.54556 0.76825 0.73479 0.0
C4252 C 0.54347 0.77636 0.74395 0.0
C4253 C 0.54969 0.78725 0.74411 0.0
C4254 C 0.55795 0.7899 0.73551 0.0
H4255 H 0.59234 0.76551 0.72603 0.0
H4256 H 0.5804 0.7702 0.73521 0.0
H4257 H 0.57731 0.76065 0.72276 0.0
H4258 H 0.55553 0.76453 0.71923 0.0
H4259 H 0.5409 0.7598 0.73441 0.0
H4260 H 0.4062 0.19579 0.72373 0.0
H4261 H 0.42435 0.20427 0.73267 0.0
H4262 H 0.43742 0.21189 0.69789 0.0
H4263 H 0.41937 0.203 0.68881 0.0
H4264 H 0.4543 0.2015 0.7123 0.0
H4265 H 0.43428 0.23874 0.7361 0.0
H4266 H 0.42729 0.22486 0.73962 0.0
H4267 H 0.42627 0.23048 0.72466 0.0
C4268 C 0.41293 0.19922 0.71795 0.0
C4269 C 0.4113 0.19866 0.70553 0.0
C4270 C 0.42326 0.20423 0.72309 0.0
C4271 C 0.43219 0.20892 0.71598 0.0
C4272 C 0.43061 0.20842 0.70357 0.0
H4273 H 0.49089 0.24564 0.75457 0.0
H4274 H 0.47566 0.24166 0.73914 0.0
C4275 C 0.42025 0.2034 0.69839 0.0
C4276 C 0.44337 0.21376 0.72158 0.0
H4277 H 0.45375 0.23282 0.74313 0.0
C4278 C 0.45421 0.20848 0.71891 0.0
C4279 C 0.44334 0.22305 0.73003 0.0
C4280 C 0.43218 0.2297 0.73268 0.0
C4281 C 0.46485 0.21173 0.72497 0.0
C4282 C 0.46464 0.22034 0.7341 0.0
C4283 C 0.45394 0.22612 0.73625 0.0
C4284 C 0.47507 0.22271 0.74222 0.0
C4285 C 0.4762 0.20579 0.72161 0.0
C4286 C 0.47999 0.21344 0.749 0.0
C4287 C 0.48875 0.21575 0.75775 0.0
C4288 C 0.49281 0.2274 0.76004 0.0
C4289 C 0.48819 0.23661 0.75297 0.0
C4290 C 0.47937 0.23432 0.74418 0.0
H4291 H 0.47578 0.2029 0.71219 0.0
H4292 H 0.48401 0.21179 0.72299 0.0
H4293 H 0.47753 0.19778 0.7272 0.0
H4294 H 0.47666 0.20444 0.74791 0.0
H4295 H 0.49205 0.20839 0.76305 0.0
H4296 H 0.70534 0.72435 0.12496 0.0
H4297 H 0.71262 0.7353 0.10787 0.0
H4298 H 0.67684 0.73777 0.09344 0.0
H4299 H 0.66947 0.72678 0.11052 0.0
H4300 H 0.71063 0.72871 0.08429 0.0
H4301 H 0.68882 0.77198 0.09116 0.0
H4302 H 0.68994 0.76082 0.10263 0.0
H4303 H 0.67887 0.75942 0.09088 0.0
C4304 C 0.699 0.72723 0.11816 0.0
C4305 C 0.68681 0.72467 0.11911 0.0
C4306 C 0.70318 0.73353 0.10842 0.0
C4307 C 0.69527 0.73748 0.09943 0.0
C4308 C 0.68308 0.73504 0.10038 0.0
H4309 H 0.7058 0.77235 0.03144 0.0
H4310 H 0.69754 0.76271 0.04885 0.0
C4311 C 0.67888 0.72875 0.11016 0.0
C4312 C 0.69991 0.74363 0.08883 0.0
H4313 H 0.69869 0.76952 0.07303 0.0
C4314 C 0.70806 0.73765 0.08186 0.0
C4315 C 0.6965 0.75528 0.08563 0.0
C4316 C 0.68814 0.76231 0.09301 0.0
C4317 C 0.71279 0.74294 0.07173 0.0
C4318 C 0.70946 0.75462 0.06857 0.0
C4319 C 0.70124 0.76057 0.07547 0.0
C4320 C 0.71447 0.7608 0.05818 0.0
C4321 C 0.72117 0.73589 0.06436 0.0
C4322 C 0.72671 0.76314 0.05773 0.0
C4323 C 0.73147 0.7687 0.04781 0.0
C4324 C 0.72408 0.7721 0.03813 0.0
C4325 C 0.71177 0.76996 0.03874 0.0
C4326 C 0.70702 0.7644 0.04867 0.0
H4327 H 0.72042 0.72622 0.06615 0.0
H4328 H 0.71943 0.73745 0.05473 0.0
H4329 H 0.73044 0.73872 0.06656 0.0
H4330 H 0.7326 0.76068 0.06508 0.0
H4331 H 0.74094 0.77041 0.04779 0.0
H4332 H 0.29258 0.68682 0.11766 0.0
H4333 H 0.28426 0.69385 0.09862 0.0
H4334 H 0.31956 0.70178 0.08691 0.0
H4335 H 0.32796 0.69438 0.10568 0.0
H4336 H 0.28594 0.71595 0.08868 0.0
H4337 H 0.30569 0.683 0.05905 0.0
H4338 H 0.3054 0.68102 0.07494 0.0
H4339 H 0.31669 0.69019 0.06846 0.0
C4340 C 0.29859 0.68988 0.11096 0.0
C4341 C 0.31096 0.68998 0.11321 0.0
C4342 C 0.29381 0.69396 0.1001 0.0
C4343 C 0.30129 0.69814 0.09124 0.0
C4344 C 0.31362 0.69834 0.09349 0.0
H4345 H 0.3017 0.73867 0.02885 0.0
H4346 H 0.30485 0.72577 0.04599 0.0
C4347 C 0.31841 0.69426 0.10432 0.0
C4348 C 0.29626 0.70285 0.07985 0.0
H4349 H 0.29869 0.70097 0.04976 0.0
C4350 C 0.28854 0.71253 0.08016 0.0
C4351 C 0.29957 0.69833 0.06872 0.0
C4352 C 0.30719 0.68748 0.06775 0.0
C4353 C 0.28465 0.71828 0.06968 0.0
C4354 C 0.2885 0.71414 0.05861 0.0
C4355 C 0.29576 0.70413 0.05827 0.0
C4356 C 0.28633 0.72097 0.0475 0.0
C4357 C 0.27702 0.72914 0.07055 0.0
C4358 C 0.27486 0.7223 0.04242 0.0
C4359 C 0.27301 0.72967 0.03249 0.0
C4360 C 0.2826 0.73587 0.0276 0.0
C4361 C 0.2941 0.7341 0.03245 0.0
C4362 C 0.29594 0.7267 0.04224 0.0
H4363 H 0.27602 0.73204 0.07988 0.0
H4364 H 0.28089 0.73659 0.06544 0.0
H4365 H 0.26806 0.72717 0.06665 0.0
H4366 H 0.26733 0.71784 0.04628 0.0
H4367 H 0.26405 0.73089 0.02896 0.0
H4368 H 0.33595 0.30076 0.13583 0.0
H4369 H 0.3287 0.29192 0.11712 0.0
H4370 H 0.3189 0.32654 0.10412 0.0
H4371 H 0.32653 0.3355 0.12258 0.0
H4372 H 0.30647 0.29184 0.1067 0.0
H4373 H 0.33792 0.31413 0.07696 0.0
H4374 H 0.34008 0.31404 0.0929 0.0
H4375 H 0.33013 0.32448 0.08586 0.0
C4376 C 0.33242 0.30653 0.12893 0.0
C4377 C 0.33192 0.31888 0.13074 0.0
C4378 C 0.3282 0.30144 0.11825 0.0
C4379 C 0.32345 0.30857 0.10909 0.0
C4380 C 0.32277 0.32086 0.11093 0.0
H4381 H 0.28381 0.30412 0.04441 0.0
H4382 H 0.29575 0.30886 0.06217 0.0
C4383 C 0.327 0.32596 0.12158 0.0
C4384 C 0.31885 0.30317 0.09776 0.0
H4385 H 0.32058 0.30528 0.06759 0.0
C4386 C 0.30968 0.29463 0.09815 0.0
C4387 C 0.3231 0.30672 0.08659 0.0
C4388 C 0.33343 0.31525 0.08553 0.0
C4389 C 0.30422 0.29007 0.08769 0.0
C4390 C 0.30812 0.29405 0.07653 0.0
C4391 C 0.31759 0.30223 0.07614 0.0
C4392 C 0.30163 0.2909 0.06525 0.0
C4393 C 0.29393 0.28149 0.08863 0.0
C4394 C 0.30117 0.27922 0.06085 0.0
C4395 C 0.29434 0.27646 0.05054 0.0
C4396 C 0.28781 0.28533 0.04456 0.0
C4397 C 0.28865 0.29704 0.04882 0.0
C4398 C 0.29551 0.29979 0.05899 0.0
H4399 H 0.29095 0.28055 0.09789 0.0
H4400 H 0.2863 0.28444 0.08293 0.0
H4401 H 0.29662 0.27263 0.08545 0.0
H4402 H 0.30596 0.27224 0.06546 0.0
H4403 H 0.29386 0.26735 0.04749 0.0
H4404 H 0.71454 0.3116 0.13301 0.0
H4405 H 0.72292 0.30193 0.11581 0.0
H4406 H 0.71581 0.33307 0.09461 0.0
H4407 H 0.70754 0.34286 0.11185 0.0
H4408 H 0.71164 0.29632 0.09524 0.0
H4409 H 0.74969 0.32625 0.08624 0.0
H4410 H 0.74175 0.32682 0.09989 0.0
H4411 H 0.73577 0.3338 0.08669 0.0
C4412 C 0.71484 0.31642 0.1247 0.0
C4413 C 0.71037 0.328 0.12378 0.0
C4414 C 0.71966 0.31089 0.11489 0.0
C4415 C 0.72012 0.3168 0.10393 0.0
C4416 C 0.71581 0.32843 0.10302 0.0
H4417 H 0.72562 0.2807 0.03601 0.0
H4418 H 0.71896 0.2918 0.05316 0.0
C4419 C 0.71107 0.33401 0.11288 0.0
C4420 C 0.72444 0.31048 0.09335 0.0
H4421 H 0.74468 0.31188 0.0714 0.0
C4422 C 0.7189 0.29971 0.09005 0.0
C4423 C 0.73399 0.31483 0.08665 0.0
C4424 C 0.74073 0.326 0.0901 0.0
C4425 C 0.72255 0.29322 0.08021 0.0
C4426 C 0.73183 0.29777 0.07327 0.0
C4427 C 0.73748 0.30847 0.07664 0.0
C4428 C 0.73595 0.29141 0.06264 0.0
C4429 C 0.7166 0.28143 0.07752 0.0
C4430 C 0.74782 0.28784 0.06206 0.0
C4431 C 0.75167 0.28156 0.05222 0.0
C4432 C 0.74372 0.27874 0.04274 0.0
C4433 C 0.7319 0.28253 0.04325 0.0
C4434 C 0.72808 0.28887 0.05306 0.0
H4435 H 0.71216 0.27774 0.0854 0.0
H4436 H 0.70972 0.28264 0.07038 0.0
H4437 H 0.7231 0.27486 0.07444 0.0
H4438 H 0.75406 0.28972 0.06933 0.0
H4439 H 0.7608 0.27869 0.05217 0.0
H4440 H 0.71071 0.33598 0.90848 0.0
H4441 H 0.72163 0.32863 0.92603 0.0
H4442 H 0.71724 0.29277 0.91327 0.0
H4443 H 0.70636 0.30005 0.89565 0.0
H4444 H 0.71211 0.2951 0.93707 0.0
H4445 H 0.75555 0.31637 0.92796 0.0
H4446 H 0.74336 0.32649 0.92805 0.0
H4447 H 0.74372 0.31516 0.91685 0.0
C4448 C 0.71219 0.32654 0.90931 0.0
C4449 C 0.70768 0.31862 0.90059 0.0
C4450 C 0.71845 0.32235 0.91937 0.0
C4451 C 0.72044 0.31016 0.92089 0.0
C4452 C 0.71586 0.30222 0.91227 0.0
H4453 H 0.75494 0.26609 0.97512 0.0
H4454 H 0.74437 0.2737 0.95748 0.0
C4455 C 0.70958 0.3064 0.90223 0.0
C4456 C 0.72703 0.30564 0.9316 0.0
H4457 H 0.75373 0.30725 0.94683 0.0
C4458 C 0.72123 0.29771 0.93917 0.0
C4459 C 0.73893 0.30907 0.93437 0.0
C4460 C 0.74582 0.31715 0.92634 0.0
C4461 C 0.72691 0.29328 0.94951 0.0
C4462 C 0.73881 0.2967 0.95227 0.0
C4463 C 0.74461 0.30465 0.94472 0.0
C4464 C 0.74541 0.29209 0.96293 0.0
C4465 C 0.72003 0.28518 0.95754 0.0
C4466 C 0.74982 0.29991 0.97174 0.0
C4467 C 0.75593 0.29559 0.98183 0.0
C4468 C 0.75784 0.28335 0.98329 0.0
C4469 C 0.75357 0.27556 0.97435 0.0
C4470 C 0.74746 0.27989 0.96427 0.0
H4471 H 0.71029 0.28594 0.9559 0.0
H4472 H 0.72252 0.27586 0.95584 0.0
H4473 H 0.72211 0.28718 0.96702 0.0
H4474 H 0.74841 0.30936 0.97087 0.0
H4475 H 0.75911 0.30185 0.98851 0.0
H4476 H 0.7209 0.71818 0.89272 0.0
H4477 H 0.7291 0.72771 0.91063 0.0
H4478 H 0.73409 0.69348 0.92703 0.0
H4479 H 0.72551 0.68385 0.90921 0.0
H4480 H 0.72304 0.70888 0.9415 0.0
H4481 H 0.76291 0.73071 0.92373 0.0
H4482 H 0.74978 0.73423 0.91509 0.0
H4483 H 0.75483 0.71913 0.91578 0.0
C4484 C 0.72375 0.71265 0.90012 0.0
C4485 C 0.7225 0.70023 0.89952 0.0
C4486 C 0.72861 0.71812 0.91031 0.0
C4487 C 0.73242 0.71132 0.92012 0.0
C4488 C 0.73132 0.69891 0.91952 0.0
H4489 H 0.76382 0.75061 0.98177 0.0
H4490 H 0.76149 0.73518 0.96639 0.0
C4491 C 0.72647 0.69341 0.90931 0.0
C4492 C 0.73663 0.71727 0.93126 0.0
H4493 H 0.75561 0.73888 0.94191 0.0
C4494 C 0.73031 0.71527 0.94164 0.0
C4495 C 0.74625 0.72547 0.93155 0.0
C4496 C 0.75391 0.72742 0.92097 0.0
C4497 C 0.73283 0.72182 0.95203 0.0
C4498 C 0.74179 0.73071 0.952 0.0
C4499 C 0.74865 0.73215 0.9419 0.0
C4500 C 0.74323 0.73944 0.96181 0.0
C4501 C 0.72565 0.71936 0.96286 0.0
C4502 C 0.73379 0.74695 0.96427 0.0
C4503 C 0.73511 0.75572 0.97293 0.0
C4504 C 0.74592 0.75725 0.97936 0.0
C4505 C 0.75536 0.74961 0.97703 0.0
C4506 C 0.75406 0.74083 0.96824 0.0
H4507 H 0.72208 0.71013 0.96282 0.0
H4508 H 0.73105 0.72079 0.97115 0.0
H4509 H 0.71799 0.72546 0.9629 0.0
H4510 H 0.72545 0.74621 0.95928 0.0
H4511 H 0.72764 0.76143 0.97446 0.0
H4512 H 0.33174 0.72065 0.87582 0.0
H4513 H 0.32486 0.73082 0.89347 0.0
H4514 H 0.33022 0.69896 0.91409 0.0
H4515 H 0.33684 0.68868 0.8964 0.0
H4516 H 0.30949 0.7085 0.91872 0.0
H4517 H 0.34403 0.74381 0.92116 0.0
H4518 H 0.33605 0.74362 0.90714 0.0
H4519 H 0.34506 0.73116 0.91148 0.0
C4520 C 0.33155 0.71586 0.88415 0.0
C4521 C 0.33487 0.70388 0.88473 0.0
C4522 C 0.32767 0.72169 0.89425 0.0
C4523 C 0.32724 0.71574 0.90519 0.0
C4524 C 0.33052 0.70376 0.90577 0.0
H4525 H 0.3188 0.74967 0.9738 0.0
H4526 H 0.32632 0.73978 0.95627 0.0
C4527 C 0.33427 0.69789 0.89565 0.0
C4528 C 0.32297 0.72183 0.91594 0.0
H4529 H 0.32742 0.74624 0.93352 0.0
C4530 C 0.31346 0.71672 0.92199 0.0
C4531 C 0.32824 0.73248 0.92033 0.0
C4532 C 0.33899 0.73802 0.91477 0.0
C4533 C 0.30898 0.72202 0.93217 0.0
C4534 C 0.31391 0.73294 0.93625 0.0
C4535 C 0.32354 0.73796 0.93032 0.0
C4536 C 0.30933 0.7392 0.94676 0.0
C4537 C 0.29919 0.7157 0.9386 0.0
C4538 C 0.29734 0.74239 0.94719 0.0
C4539 C 0.29301 0.74795 0.95724 0.0
C4540 C 0.30063 0.75064 0.96699 0.0
C4541 C 0.31272 0.74778 0.96641 0.0
C4542 C 0.31702 0.7421 0.9564 0.0
H4543 H 0.29896 0.70606 0.93657 0.0
H4544 H 0.30026 0.71683 0.94836 0.0
H4545 H 0.2905 0.71942 0.93569 0.0
H4546 H 0.2913 0.74059 0.93973 0.0
H4547 H 0.28371 0.75025 0.95733 0.0
H4548 H 0.33667 0.32531 0.90484 0.0
H4549 H 0.32695 0.31859 0.92278 0.0
H4550 H 0.29391 0.33342 0.90977 0.0
H4551 H 0.3034 0.33966 0.89156 0.0
H4552 H 0.31605 0.33121 0.93982 0.0
H4553 H 0.28366 0.30008 0.91821 0.0
H4554 H 0.29606 0.30634 0.91051 0.0
H4555 H 0.28286 0.31488 0.91239 0.0
C4556 C 0.32729 0.32699 0.90569 0.0
C4557 C 0.32082 0.33296 0.89666 0.0
C4558 C 0.32176 0.32322 0.91601 0.0
C4559 C 0.30964 0.32531 0.91755 0.0
C4560 C 0.30321 0.33146 0.90868 0.0
H4561 H 0.26146 0.31122 0.97505 0.0
H4562 H 0.27097 0.31858 0.95716 0.0
C4563 C 0.3087 0.33518 0.89832 0.0
C4564 C 0.30382 0.32125 0.92853 0.0
H4565 H 0.28103 0.30411 0.93866 0.0
C4566 C 0.30842 0.32524 0.93956 0.0
C4567 C 0.29387 0.31345 0.9282 0.0
C4568 C 0.28888 0.30834 0.91671 0.0
C4569 C 0.30325 0.32179 0.95024 0.0
C4570 C 0.29328 0.31406 0.94989 0.0
C4571 C 0.28865 0.31009 0.93888 0.0
C4572 C 0.28765 0.30981 0.96086 0.0
C4573 C 0.30838 0.32657 0.96182 0.0
C4574 C 0.29386 0.30238 0.96882 0.0
C4575 C 0.28845 0.29815 0.97903 0.0
C4576 C 0.27672 0.30129 0.9815 0.0
C4577 C 0.27054 0.30876 0.9735 0.0
C4578 C 0.27593 0.31292 0.96324 0.0
H4579 H 0.31428 0.33438 0.96045 0.0
H4580 H 0.30119 0.32914 0.9678 0.0
H4581 H 0.31369 0.31956 0.96633 0.0
H4582 H 0.30286 0.29975 0.96708 0.0
H4583 H 0.2935 0.2925 0.98504 0.0
H4584 H 0.62223 0.6968 0.21717 0.0
H4585 H 0.60447 0.70099 0.22827 0.0
H4586 H 0.5882 0.71686 0.19706 0.0
H4587 H 0.60571 0.71221 0.18573 0.0
H4588 H 0.59404 0.72194 0.2333 0.0
H4589 H 0.56259 0.69372 0.20679 0.0
H4590 H 0.57848 0.69282 0.20547 0.0
H4591 H 0.57032 0.70442 0.19801 0.0
C4592 C 0.61482 0.70102 0.21259 0.0
C4593 C 0.6154 0.70405 0.20049 0.0
C4594 C 0.60469 0.7035 0.21899 0.0
C4595 C 0.5949 0.70904 0.21346 0.0
C4596 C 0.59553 0.71233 0.20146 0.0
H4597 H 0.52765 0.73567 0.23614 0.0
H4598 H 0.54552 0.73046 0.22563 0.0
C4599 C 0.60564 0.70981 0.19503 0.0
C4600 C 0.58412 0.71157 0.2203 0.0
H4601 H 0.5541 0.70685 0.22065 0.0
C4602 C 0.58532 0.71856 0.23058 0.0
C4603 C 0.57274 0.70713 0.21678 0.0
C4604 C 0.57094 0.69901 0.20623 0.0
C4605 C 0.57543 0.72149 0.23725 0.0
C4606 C 0.56405 0.71721 0.23361 0.0
C4607 C 0.56284 0.71014 0.2234 0.0
C4608 C 0.55322 0.72023 0.2401 0.0
C4609 C 0.57715 0.72938 0.24798 0.0
C4610 C 0.55155 0.71608 0.25169 0.0
C4611 C 0.54132 0.71905 0.25775 0.0
C4612 C 0.5326 0.72627 0.25233 0.0
C4613 C 0.53427 0.73027 0.24066 0.0
C4614 C 0.54444 0.72724 0.2346 0.0
H4615 H 0.58603 0.73378 0.24827 0.0
H4616 H 0.57022 0.73631 0.24805 0.0
H4617 H 0.57633 0.72397 0.25614 0.0
H4618 H 0.55816 0.71053 0.25605 0.0
H4619 H 0.54033 0.71587 0.26673 0.0
H4620 H 0.3262 0.6068 0.19616 0.0
H4621 H 0.31671 0.5886 0.20334 0.0
H4622 H 0.28258 0.60552 0.20105 0.0
H4623 H 0.29197 0.62368 0.19384 0.0
H4624 H 0.30342 0.58391 0.22281 0.0
H4625 H 0.27638 0.57565 0.18169 0.0
H4626 H 0.28835 0.58642 0.18241 0.0
H4627 H 0.27403 0.59002 0.18797 0.0
C4628 C 0.31669 0.60668 0.19728 0.0
C4629 C 0.30984 0.61668 0.1943 0.0
C4630 C 0.31126 0.59624 0.20134 0.0
C4631 C 0.29888 0.59558 0.20249 0.0
C4632 C 0.29209 0.60568 0.19991 0.0
H4633 H 0.25983 0.54216 0.24207 0.0
H4634 H 0.26941 0.56031 0.23503 0.0
C4635 C 0.29749 0.61608 0.19581 0.0
C4636 C 0.29308 0.58437 0.20644 0.0
H4637 H 0.27185 0.56374 0.19843 0.0
C4638 C 0.29654 0.57948 0.21746 0.0
C4639 C 0.28423 0.57846 0.19939 0.0
C4640 C 0.2806 0.58283 0.18716 0.0
C4641 C 0.29125 0.569 0.22172 0.0
C4642 C 0.28207 0.56336 0.21487 0.0
C4643 C 0.27877 0.56813 0.20375 0.0
C4644 C 0.27589 0.55242 0.21901 0.0
C4645 C 0.29573 0.56396 0.23341 0.0
C4646 C 0.27592 0.54203 0.21215 0.0
C4647 C 0.27035 0.53164 0.21612 0.0
C4648 C 0.26462 0.53142 0.22704 0.0
C4649 C 0.26435 0.54194 0.23374 0.0
C4650 C 0.26986 0.55233 0.22974 0.0
H4651 H 0.3048 0.5673 0.23582 0.0
H4652 H 0.28973 0.56668 0.24052 0.0
H4653 H 0.29589 0.55412 0.23315 0.0
H4654 H 0.28045 0.54188 0.20381 0.0
H4655 H 0.27084 0.52371 0.21078 0.0
H4656 H 0.40258 0.30316 0.21069 0.0
H4657 H 0.42079 0.29527 0.21979 0.0
H4658 H 0.43305 0.33079 0.22789 0.0
H4659 H 0.41501 0.3388 0.21842 0.0
H4660 H 0.4501 0.31779 0.21781 0.0
H4661 H 0.43089 0.29203 0.25446 0.0
H4662 H 0.42406 0.28822 0.24037 0.0
H4663 H 0.42253 0.30299 0.24614 0.0
C4664 C 0.40915 0.30932 0.21437 0.0
C4665 C 0.4073 0.32163 0.2138 0.0
C4666 C 0.4195 0.30477 0.21975 0.0
C4667 C 0.42821 0.31241 0.22476 0.0
C4668 C 0.4264 0.32471 0.22422 0.0
H4669 H 0.49062 0.27912 0.26084 0.0
H4670 H 0.47391 0.29282 0.2576 0.0
C4671 C 0.41604 0.32927 0.21884 0.0
C4672 C 0.43951 0.30756 0.2298 0.0
H4673 H 0.45065 0.28662 0.24894 0.0
C4674 C 0.45023 0.31113 0.22477 0.0
C4675 C 0.43977 0.29903 0.23904 0.0
C4676 C 0.4287 0.29544 0.24541 0.0
C4677 C 0.46105 0.30585 0.22817 0.0
C4678 C 0.46115 0.29664 0.23671 0.0
C4679 C 0.45057 0.29361 0.24231 0.0
C4680 C 0.47175 0.2891 0.23882 0.0
C4681 C 0.47225 0.30999 0.22236 0.0
C4682 C 0.47602 0.28248 0.22938 0.0
C4683 C 0.48543 0.27471 0.2312 0.0
C4684 C 0.49083 0.2733 0.24253 0.0
C4685 C 0.48671 0.28008 0.252 0.0
C4686 C 0.47715 0.28786 0.25017 0.0
H4687 H 0.4715 0.31933 0.21928 0.0
H4688 H 0.48009 0.30928 0.22853 0.0
H4689 H 0.47378 0.30439 0.21448 0.0
H4690 H 0.47187 0.28309 0.22061 0.0
H4691 H 0.48836 0.26964 0.22369 0.0
H4692 H 0.7025 0.41734 0.18271 0.0
H4693 H 0.70931 0.4359 0.19195 0.0
H4694 H 0.70205 0.42161 0.22651 0.0
H4695 H 0.69554 0.40284 0.21736 0.0
H4696 H 0.69679 0.4515 0.20669 0.0
H4697 H 0.73678 0.43311 0.23004 0.0
H4698 H 0.72887 0.42519 0.21829 0.0
H4699 H 0.72288 0.42581 0.23286 0.0
C4700 C 0.70247 0.41807 0.19229 0.0
C4701 C 0.69856 0.40854 0.19929 0.0
C4702 C 0.70627 0.42873 0.19755 0.0
C4703 C 0.70631 0.4301 0.20993 0.0
C4704 C 0.70226 0.42069 0.21695 0.0
H4705 H 0.73836 0.49108 0.24886 0.0
H4706 H 0.72596 0.47328 0.24507 0.0
C4707 C 0.69843 0.41001 0.21169 0.0
C4708 C 0.71066 0.4414 0.21536 0.0
H4709 H 0.73343 0.45352 0.23219 0.0
C4710 C 0.70474 0.45193 0.21236 0.0
C4711 C 0.72096 0.44194 0.22286 0.0
C4712 C 0.72783 0.43095 0.22617 0.0
C4713 C 0.70904 0.46301 0.21635 0.0
C4714 C 0.71966 0.46361 0.22337 0.0
C4715 C 0.72528 0.45304 0.22683 0.0
C4716 C 0.72587 0.47506 0.22594 0.0
C4717 C 0.70226 0.47401 0.21287 0.0
C4718 C 0.72983 0.482 0.21648 0.0
C4719 C 0.73689 0.49205 0.21862 0.0
C4720 C 0.74018 0.49543 0.23027 0.0
C4721 C 0.73586 0.48876 0.2398 0.0
C4722 C 0.72884 0.47857 0.23764 0.0
H4723 H 0.6927 0.47196 0.21114 0.0
H4724 H 0.70309 0.48091 0.21987 0.0
H4725 H 0.70589 0.47769 0.20457 0.0
H4726 H 0.72788 0.47935 0.20739 0.0
H4727 H 0.74008 0.49698 0.21107 0.0
H4728 H 0.62971 0.30963 0.80704 0.0
H4729 H 0.61164 0.30012 0.79882 0.0
H4730 H 0.59764 0.29759 0.83392 0.0
H4731 H 0.61558 0.30733 0.8422 0.0
H4732 H 0.60153 0.27753 0.80435 0.0
H4733 H 0.57116 0.31445 0.81438 0.0
H4734 H 0.5871 0.31628 0.81457 0.0
H4735 H 0.58 0.30918 0.82679 0.0
C4736 C 0.62275 0.30714 0.81301 0.0
C4737 C 0.62407 0.30933 0.82528 0.0
C4738 C 0.61246 0.30164 0.8083 0.0
C4739 C 0.60322 0.2983 0.81573 0.0
C4740 C 0.60458 0.30026 0.828 0.0
H4741 H 0.53294 0.26725 0.80325 0.0
H4742 H 0.55132 0.27579 0.8118 0.0
C4743 C 0.61489 0.30573 0.83273 0.0
C4744 C 0.59219 0.29273 0.81061 0.0
H4745 H 0.56231 0.29681 0.80677 0.0
C4746 C 0.59295 0.28175 0.80484 0.0
C4747 C 0.58101 0.29824 0.81129 0.0
C4748 C 0.57971 0.31024 0.817 0.0
C4749 C 0.5828 0.27603 0.7999 0.0
C4750 C 0.57161 0.28157 0.80052 0.0
C4751 C 0.57087 0.29256 0.8063 0.0
C4752 C 0.56055 0.27615 0.79525 0.0
C4753 C 0.58412 0.26398 0.79433 0.0
C4754 C 0.55956 0.2736 0.78306 0.0
C4755 C 0.54906 0.26865 0.77813 0.0
C4756 C 0.53929 0.26627 0.78529 0.0
C4757 C 0.54028 0.26894 0.79747 0.0
C4758 C 0.55079 0.27384 0.80239 0.0
H4759 H 0.59241 0.25958 0.79752 0.0
H4760 H 0.57645 0.2581 0.79628 0.0
H4761 H 0.58455 0.265 0.78456 0.0
H4762 H 0.56685 0.27556 0.7773 0.0
H4763 H 0.54858 0.2668 0.7687 0.0
H4764 H 0.73586 0.62742 0.82282 0.0
H4765 H 0.74433 0.6097 0.81402 0.0
H4766 H 0.70984 0.59269 0.81345 0.0
H4767 H 0.7013 0.61039 0.82219 0.0
H4768 H 0.74542 0.58672 0.82196 0.0
H4769 H 0.71951 0.58864 0.7794 0.0
H4770 H 0.72018 0.60085 0.78973 0.0
H4771 H 0.71038 0.58843 0.79217 0.0
C4772 C 0.73007 0.61989 0.82087 0.0
C4773 C 0.71787 0.62037 0.82316 0.0
C4774 C 0.73493 0.60977 0.8158 0.0
C4775 C 0.7277 0.59991 0.81288 0.0
C4776 C 0.71556 0.60029 0.81534 0.0
H4777 H 0.7387 0.53081 0.7818 0.0
H4778 H 0.7314 0.54789 0.79258 0.0
C4779 C 0.71068 0.61042 0.82035 0.0
C4780 C 0.73289 0.58922 0.80738 0.0
H4781 H 0.73052 0.5711 0.78312 0.0
C4782 C 0.7422 0.58334 0.81344 0.0
C4783 C 0.72873 0.58482 0.79623 0.0
C4784 C 0.71923 0.59107 0.78894 0.0
C4785 C 0.74727 0.57305 0.80878 0.0
C4786 C 0.74299 0.56858 0.79772 0.0
C4787 C 0.73374 0.57449 0.79164 0.0
C4788 C 0.74793 0.55778 0.79223 0.0
C4789 C 0.75697 0.56688 0.81585 0.0
C4790 C 0.75974 0.55757 0.78857 0.0
C4791 C 0.76398 0.54779 0.78237 0.0
C4792 C 0.75647 0.53804 0.77967 0.0
C4793 C 0.74476 0.53814 0.78371 0.0
C4794 C 0.74054 0.54792 0.78987 0.0
H4795 H 0.75734 0.56978 0.82528 0.0
H4796 H 0.75567 0.55711 0.81555 0.0
H4797 H 0.76567 0.569 0.81195 0.0
H4798 H 0.76556 0.56516 0.79013 0.0
H4799 H 0.77301 0.54806 0.77934 0.0
H4800 H 0.41187 0.67735 0.79832 0.0
H4801 H 0.43013 0.68468 0.78946 0.0
H4802 H 0.42051 0.72058 0.79769 0.0
H4803 H 0.40205 0.7134 0.80609 0.0
H4804 H 0.42987 0.71862 0.7754 0.0
H4805 H 0.45865 0.69629 0.80942 0.0
H4806 H 0.44871 0.68673 0.80102 0.0
H4807 H 0.44281 0.69753 0.81089 0.0
C4808 C 0.41354 0.68682 0.79809 0.0
C4809 C 0.40552 0.69477 0.80306 0.0
C4810 C 0.42406 0.69099 0.79312 0.0
C4811 C 0.4268 0.70317 0.7931 0.0
C4812 C 0.41863 0.71114 0.79767 0.0
H4813 H 0.48858 0.74505 0.79625 0.0
H4814 H 0.47126 0.73233 0.7985 0.0
C4815 C 0.40812 0.707 0.80259 0.0
C4816 C 0.43835 0.70771 0.78878 0.0
H4817 H 0.46817 0.70803 0.7953 0.0
C4818 C 0.43827 0.7162 0.77963 0.0
C4819 C 0.4493 0.70458 0.79436 0.0
C4820 C 0.44994 0.69586 0.80453 0.0
C4821 C 0.44878 0.72195 0.77622 0.0
C4822 C 0.45968 0.71902 0.782 0.0
C4823 C 0.45981 0.71019 0.79081 0.0
C4824 C 0.47069 0.72615 0.78033 0.0
C4825 C 0.44804 0.7316 0.76694 0.0
C4826 C 0.47632 0.72678 0.76937 0.0
C4827 C 0.48634 0.73414 0.76802 0.0
C4828 C 0.49084 0.74097 0.77762 0.0
C4829 C 0.48534 0.74 0.78863 0.0
C4830 C 0.47542 0.73268 0.78996 0.0
H4831 H 0.43872 0.734 0.76462 0.0
H4832 H 0.45288 0.73969 0.7701 0.0
H4833 H 0.45228 0.72853 0.75875 0.0
H4834 H 0.47291 0.72167 0.76186 0.0
H4835 H 0.49039 0.73469 0.75945 0.0
H4836 H 0.33191 0.39431 0.79262 0.0
H4837 H 0.32553 0.4116 0.78113 0.0
H4838 H 0.314 0.42832 0.81312 0.0
H4839 H 0.32091 0.41131 0.82478 0.0
H4840 H 0.30381 0.42118 0.77802 0.0
H4841 H 0.3344 0.45423 0.79929 0.0
H4842 H 0.33607 0.43847 0.80148 0.0
H4843 H 0.32532 0.44653 0.80968 0.0
C4844 C 0.3282 0.40174 0.79726 0.0
C4845 C 0.32706 0.40144 0.80967 0.0
C4846 C 0.32446 0.41158 0.79066 0.0
C4847 C 0.31949 0.42136 0.79628 0.0
C4848 C 0.31807 0.421 0.80861 0.0
H4849 H 0.28699 0.48645 0.77171 0.0
H4850 H 0.29418 0.46931 0.78302 0.0
C4851 C 0.32188 0.41118 0.81525 0.0
C4852 C 0.31558 0.4318 0.78917 0.0
H4853 H 0.31917 0.46182 0.78638 0.0
C4854 C 0.30723 0.43005 0.7798 0.0
C4855 C 0.32007 0.44338 0.79147 0.0
C4856 C 0.32955 0.44578 0.80095 0.0
C4857 C 0.30308 0.43958 0.77284 0.0
C4858 C 0.30746 0.45114 0.77526 0.0
C4859 C 0.31582 0.45292 0.78458 0.0
C4860 C 0.30328 0.46155 0.76835 0.0
C4861 C 0.29387 0.43727 0.7631 0.0
C4862 C 0.30614 0.46294 0.75639 0.0
C4863 C 0.30205 0.47275 0.74989 0.0
C4864 C 0.29497 0.48131 0.75524 0.0
C4865 C 0.29225 0.47993 0.76727 0.0
C4866 C 0.29642 0.47018 0.77377 0.0
H4867 H 0.28986 0.42825 0.76374 0.0
H4868 H 0.28668 0.44391 0.7634 0.0
H4869 H 0.29808 0.43809 0.75436 0.0
H4870 H 0.31154 0.45642 0.75208 0.0
H4871 H 0.30424 0.47353 0.74064 0.0
H4872 H 0.717 0.6444 0.17817 0.0
H4873 H 0.72836 0.62674 0.18349 0.0
H4874 H 0.69676 0.61015 0.19682 0.0
H4875 H 0.68521 0.62751 0.19099 0.0
H4876 H 0.73248 0.61668 0.205 0.0
H4877 H 0.7087 0.58446 0.1755 0.0
H4878 H 0.70683 0.60028 0.17403 0.0
H4879 H 0.69897 0.59212 0.18512 0.0
C4880 C 0.7124 0.63692 0.18204 0.0
C4881 C 0.70014 0.63738 0.18406 0.0
C4882 C 0.71895 0.62686 0.18517 0.0
C4883 C 0.71339 0.61702 0.19036 0.0
C4884 C 0.7012 0.61751 0.19256 0.0
H4885 H 0.73642 0.55137 0.2225 0.0
H4886 H 0.72572 0.56891 0.21545 0.0
C4887 C 0.69463 0.62754 0.18938 0.0
C4888 C 0.72041 0.60642 0.19382 0.0
H4889 H 0.72181 0.57636 0.19037 0.0
C4890 C 0.73021 0.60788 0.20172 0.0
C4891 C 0.71747 0.59493 0.1895 0.0
C4892 C 0.70749 0.59284 0.18048 0.0
C4893 C 0.73694 0.59814 0.20565 0.0
C4894 C 0.73383 0.58666 0.20152 0.0
C4895 C 0.72412 0.58519 0.19354 0.0
C4896 C 0.74038 0.57602 0.20562 0.0
C4897 C 0.74715 0.60013 0.21442 0.0
C4898 C 0.75211 0.57416 0.2023 0.0
C4899 C 0.75825 0.56412 0.2063 0.0
C4900 C 0.75277 0.55581 0.21375 0.0
C4901 C 0.74096 0.55768 0.21694 0.0
C4902 C 0.73481 0.56766 0.21286 0.0
H4903 H 0.74714 0.6092 0.21827 0.0
H4904 H 0.74679 0.59356 0.22176 0.0
H4905 H 0.75565 0.59891 0.20988 0.0
H4906 H 0.75652 0.58047 0.19661 0.0
H4907 H 0.76735 0.56297 0.20374 0.0
H4908 H 0.70119 0.40233 0.83437 0.0
H4909 H 0.7074 0.42021 0.82374 0.0
H4910 H 0.69693 0.40384 0.79044 0.0
H4911 H 0.69086 0.3859 0.80094 0.0
H4912 H 0.72433 0.42275 0.80575 0.0
H4913 H 0.6793 0.43561 0.78942 0.0
H4914 H 0.68168 0.42495 0.8012 0.0
H4915 H 0.68324 0.42064 0.78598 0.0
C4916 C 0.70029 0.40248 0.82478 0.0
C4917 C 0.69543 0.39267 0.81853 0.0
C4918 C 0.70379 0.41274 0.81872 0.0
C4919 C 0.70243 0.41344 0.80632 0.0
C4920 C 0.69779 0.40361 0.80004 0.0
H4921 H 0.71809 0.4651 0.75186 0.0
H4922 H 0.71158 0.448 0.76341 0.0
C4923 C 0.69432 0.39335 0.80607 0.0
C4924 C 0.70606 0.42436 0.79989 0.0
H4925 H 0.69556 0.44621 0.78147 0.0
C4926 C 0.71804 0.42794 0.80051 0.0
C4927 C 0.69783 0.4311 0.79304 0.0
C4928 C 0.68477 0.42797 0.79242 0.0
C4929 C 0.72207 0.43789 0.7942 0.0
C4930 C 0.71386 0.4446 0.78728 0.0
C4931 C 0.70186 0.44107 0.78675 0.0
C4932 C 0.71756 0.4552 0.78037 0.0
C4933 C 0.73516 0.44091 0.79471 0.0
C4934 C 0.72285 0.46507 0.78607 0.0
C4935 C 0.72657 0.47489 0.77948 0.0
C4936 C 0.72497 0.47511 0.76704 0.0
C4937 C 0.71937 0.46532 0.7614 0.0
C4938 C 0.7157 0.45549 0.768 0.0
H4939 H 0.74059 0.43325 0.79776 0.0
H4940 H 0.73824 0.4438 0.78588 0.0
H4941 H 0.7368 0.44829 0.80106 0.0
H4942 H 0.7241 0.46519 0.79563 0.0
H4943 H 0.73063 0.48235 0.78414 0.0
H4944 H 0.64083 0.69271 0.80754 0.0
H4945 H 0.62268 0.70246 0.80024 0.0
H4946 H 0.61808 0.71772 0.83479 0.0
H4947 H 0.63592 0.70775 0.8423 0.0
H4948 H 0.59813 0.70106 0.81087 0.0
H4949 H 0.61836 0.74626 0.81004 0.0
H4950 H 0.62714 0.73295 0.80972 0.0
H4951 H 0.62093 0.73772 0.82336 0.0
C4952 C 0.6359 0.698 0.81365 0.0
C4953 C 0.63996 0.69949 0.82551 0.0
C4954 C 0.62556 0.70363 0.80943 0.0
C4955 C 0.61914 0.71093 0.81694 0.0
C4956 C 0.62301 0.71227 0.8288 0.0
H4957 H 0.5589 0.75751 0.8109 0.0
H4958 H 0.57661 0.74654 0.81678 0.0
C4959 C 0.63327 0.7066 0.83305 0.0
C4960 C 0.60839 0.7172 0.81244 0.0
H4961 H 0.59762 0.74484 0.80645 0.0
C4962 C 0.598 0.71062 0.80981 0.0
C4963 C 0.60826 0.72967 0.81115 0.0
C4964 C 0.61927 0.73711 0.81362 0.0
C4965 C 0.58738 0.71622 0.80622 0.0
C4966 C 0.58723 0.72873 0.80493 0.0
C4967 C 0.5977 0.73527 0.80743 0.0
C4968 C 0.57628 0.73526 0.80126 0.0
C4969 C 0.57632 0.7087 0.80429 0.0
C4970 C 0.5702 0.73272 0.79049 0.0
C4971 C 0.55989 0.73889 0.78715 0.0
C4972 C 0.55549 0.74789 0.79443 0.0
C4973 C 0.56179 0.75055 0.80511 0.0
C4974 C 0.57203 0.74432 0.80847 0.0
H4975 H 0.57709 0.69999 0.80885 0.0
H4976 H 0.56837 0.71327 0.80752 0.0
H4977 H 0.57494 0.70697 0.79465 0.0
H4978 H 0.57344 0.72598 0.7846 0.0
H4979 H 0.55537 0.73647 0.77889 0.0
H4980 H 0.32185 0.62748 0.79285 0.0
H4981 H 0.31099 0.60998 0.7855 0.0
H4982 H 0.30696 0.59771 0.82142 0.0
H4983 H 0.31817 0.61502 0.82885 0.0
H4984 H 0.31449 0.58023 0.8069 0.0
H4985 H 0.27567 0.60236 0.78583 0.0
H4986 H 0.28944 0.60835 0.78076 0.0
H4987 H 0.28578 0.60989 0.79611 0.0
C4988 C 0.31869 0.62105 0.7992 0.0
C4989 C 0.3209 0.62268 0.81145 0.0
C4990 C 0.31233 0.61112 0.79499 0.0
C4991 C 0.30794 0.60264 0.80292 0.0
C4992 C 0.31013 0.60421 0.81515 0.0
H4993 H 0.26427 0.54353 0.77262 0.0
H4994 H 0.27045 0.55975 0.78616 0.0
C4995 C 0.3165 0.61415 0.81938 0.0
C4996 C 0.30174 0.59179 0.79835 0.0
H4997 H 0.27934 0.58237 0.77939 0.0
C4998 C 0.30668 0.58069 0.80104 0.0
C4999 C 0.29141 0.59233 0.7909 0.0
C5000 C 0.28519 0.60387 0.78833 0.0
C5001 C 0.30204 0.57023 0.79589 0.0
C5002 C 0.2923 0.57089 0.7877 0.0
C5003 C 0.28687 0.58188 0.78559 0.0
C5004 C 0.28854 0.56059 0.78024 0.0
C5005 C 0.30779 0.55858 0.79905 0.0
C5006 C 0.29662 0.55575 0.77243 0.0
C5007 C 0.29313 0.54661 0.76473 0.0
C5008 C 0.28144 0.54208 0.76461 0.0
C5009 C 0.27335 0.54678 0.77257 0.0
C5010 C 0.27685 0.55606 0.78027 0.0
H5011 H 0.31225 0.55895 0.80797 0.0
H5012 H 0.30118 0.5512 0.79891 0.0
H5013 H 0.31464 0.55661 0.79249 0.0
H5014 H 0.30559 0.55926 0.77207 0.0
H5015 H 0.29961 0.54322 0.75873 0.0
H5016 H 0.40888 0.32389 0.83292 0.0
H5017 H 0.42611 0.31504 0.8237 0.0
H5018 H 0.40367 0.30313 0.79429 0.0
H5019 H 0.38652 0.31223 0.80331 0.0
H5020 H 0.43166 0.29296 0.81729 0.0
H5021 H 0.42878 0.32134 0.77719 0.0
H5022 H 0.42009 0.32404 0.79006 0.0
H5023 H 0.4154 0.31296 0.77936 0.0
C5024 C 0.40763 0.3193 0.82453 0.0
C5025 C 0.39639 0.31885 0.81877 0.0
C5026 C 0.41747 0.31428 0.81926 0.0
C5027 C 0.41625 0.30867 0.80816 0.0
C5028 C 0.40492 0.30774 0.80266 0.0
H5029 H 0.46903 0.26298 0.77697 0.0
H5030 H 0.45202 0.27086 0.78731 0.0
C5031 C 0.39511 0.31288 0.80785 0.0
C5032 C 0.42683 0.3039 0.80227 0.0
H5033 H 0.44213 0.30518 0.7766 0.0
C5034 C 0.43399 0.29566 0.80841 0.0
C5035 C 0.43 0.3076 0.79077 0.0
C5036 C 0.42324 0.31706 0.78401 0.0
C5037 C 0.4441 0.29088 0.8033 0.0
C5038 C 0.44696 0.29418 0.79158 0.0
C5039 C 0.43989 0.30254 0.78552 0.0
C5040 C 0.45735 0.28928 0.78547 0.0
C5041 C 0.45177 0.28257 0.81062 0.0
C5042 C 0.46583 0.29698 0.78066 0.0
C5043 C 0.47543 0.29249 0.77457 0.0
C5044 C 0.47679 0.28019 0.77323 0.0
C5045 C 0.46831 0.27248 0.77805 0.0
C5046 C 0.45861 0.27698 0.784 0.0
H5047 H 0.45052 0.28383 0.82028 0.0
H5048 H 0.44925 0.27328 0.80841 0.0
H5049 H 0.46132 0.28388 0.80879 0.0
H5050 H 0.46505 0.30649 0.78164 0.0
H5051 H 0.48188 0.29864 0.77105 0.0
H5052 H 0.30987 0.39178 0.20598 0.0
H5053 H 0.30129 0.40938 0.21492 0.0
H5054 H 0.33631 0.42178 0.22566 0.0
H5055 H 0.34499 0.40432 0.21663 0.0
H5056 H 0.31969 0.42322 0.24378 0.0
H5057 H 0.30247 0.4434 0.20181 0.0
H5058 H 0.29773 0.42834 0.20413 0.0
H5059 H 0.31319 0.43161 0.20208 0.0
C5060 C 0.31577 0.39831 0.21011 0.0
C5061 C 0.32814 0.3966 0.21054 0.0
C5062 C 0.31084 0.40837 0.21524 0.0
C5063 C 0.31816 0.41697 0.22086 0.0
C5064 C 0.33049 0.41526 0.22139 0.0
H5065 H 0.29705 0.48848 0.23885 0.0
H5066 H 0.30755 0.47108 0.2319 0.0
C5067 C 0.33543 0.40523 0.21625 0.0
C5068 C 0.31299 0.42771 0.22627 0.0
H5069 H 0.29678 0.45242 0.21971 0.0
C5070 C 0.3147 0.42962 0.23852 0.0
C5071 C 0.30661 0.43614 0.21938 0.0
C5072 C 0.30496 0.43487 0.2061 0.0
C5073 C 0.31002 0.43964 0.2441 0.0
C5074 C 0.30337 0.4479 0.23725 0.0
C5075 C 0.30182 0.44606 0.22497 0.0
C5076 C 0.29788 0.45853 0.24258 0.0
C5077 C 0.3124 0.44138 0.25722 0.0
C5078 C 0.28909 0.45731 0.25109 0.0
C5079 C 0.28308 0.46727 0.25513 0.0
C5080 C 0.28568 0.47865 0.25067 0.0
C5081 C 0.29481 0.47987 0.2425 0.0
C5082 C 0.30081 0.46992 0.23847 0.0
H5083 H 0.3201 0.4361 0.26051 0.0
H5084 H 0.31413 0.45087 0.25932 0.0
H5085 H 0.30449 0.43844 0.26211 0.0
H5086 H 0.28653 0.44861 0.25425 0.0
H5087 H 0.27604 0.46597 0.26135 0.0
H5088 H 0.62087 0.31904 0.17369 0.0
H5089 H 0.60372 0.30744 0.18006 0.0
H5090 H 0.61484 0.31264 0.21665 0.0
H5091 H 0.63203 0.32424 0.21035 0.0
H5092 H 0.60373 0.28665 0.19312 0.0
H5093 H 0.57997 0.32199 0.21665 0.0
H5094 H 0.59188 0.32517 0.20672 0.0
H5095 H 0.59514 0.32028 0.22164 0.0
C5096 C 0.61967 0.31772 0.1831 0.0
C5097 C 0.62782 0.32257 0.19151 0.0
C5098 C 0.60984 0.31112 0.18672 0.0
C5099 C 0.60791 0.3093 0.19883 0.0
C5100 C 0.616 0.31416 0.20727 0.0
H5101 H 0.55814 0.26891 0.23984 0.0
H5102 H 0.57445 0.28105 0.23256 0.0
C5103 C 0.62583 0.32079 0.20365 0.0
C5104 C 0.59771 0.30191 0.2026 0.0
H5105 H 0.5729 0.30223 0.21927 0.0
C5106 C 0.59693 0.29007 0.19877 0.0
C5107 C 0.58886 0.3064 0.20996 0.0
C5108 C 0.58891 0.31919 0.2139 0.0
C5109 C 0.58771 0.28251 0.20234 0.0
C5110 C 0.57894 0.28697 0.20981 0.0
C5111 C 0.57966 0.29883 0.21356 0.0
C5112 C 0.56907 0.27942 0.21405 0.0
C5113 C 0.5876 0.26974 0.19838 0.0
C5114 C 0.56058 0.27451 0.20605 0.0
C5115 C 0.55117 0.26759 0.21019 0.0
C5116 C 0.55004 0.26553 0.22243 0.0
C5117 C 0.55861 0.27046 0.23038 0.0
C5118 C 0.56799 0.27736 0.22624 0.0
H5119 H 0.59634 0.26704 0.19501 0.0
H5120 H 0.58523 0.26373 0.20577 0.0
H5121 H 0.58085 0.26853 0.19109 0.0
H5122 H 0.56113 0.27618 0.19662 0.0
H5123 H 0.54466 0.26408 0.20383 0.0
H5124 H 0.38189 0.71586 0.18966 0.0
H5125 H 0.39976 0.72594 0.1976 0.0
H5126 H 0.41446 0.69223 0.20803 0.0
H5127 H 0.39683 0.68204 0.19975 0.0
H5128 H 0.40939 0.72636 0.22029 0.0
H5129 H 0.44145 0.70696 0.18976 0.0
H5130 H 0.42559 0.70598 0.18707 0.0
H5131 H 0.43289 0.69588 0.19723 0.0
C5132 C 0.38898 0.71056 0.1935 0.0
C5133 C 0.38791 0.6981 0.19397 0.0
C5134 C 0.39918 0.71636 0.1981 0.0
C5135 C 0.40858 0.70985 0.20322 0.0
C5136 C 0.40746 0.69744 0.20389 0.0
H5137 H 0.47187 0.7185 0.24446 0.0
H5138 H 0.45489 0.71265 0.23185 0.0
C5139 C 0.39728 0.69163 0.19929 0.0
C5140 C 0.41941 0.71601 0.20816 0.0
H5141 H 0.44972 0.71634 0.20726 0.0
C5142 C 0.4182 0.72432 0.21732 0.0
C5143 C 0.43092 0.71342 0.20422 0.0
C5144 C 0.43281 0.70517 0.19395 0.0
C5145 C 0.4282 0.72959 0.22307 0.0
C5146 C 0.43971 0.72659 0.21947 0.0
C5147 C 0.4409 0.71864 0.21001 0.0
C5148 C 0.4506 0.73049 0.22628 0.0
C5149 C 0.42639 0.73785 0.23336 0.0
C5150 C 0.45408 0.74249 0.22711 0.0
C5151 C 0.46394 0.74591 0.23434 0.0
C5152 C 0.47037 0.73736 0.24088 0.0
C5153 C 0.46708 0.72534 0.23962 0.0
C5154 C 0.45736 0.72195 0.23239 0.0
H5155 H 0.41702 0.73789 0.23615 0.0
H5156 H 0.43216 0.7353 0.24109 0.0
H5157 H 0.4289 0.74702 0.23075 0.0
H5158 H 0.44908 0.74922 0.22234 0.0
H5159 H 0.46624 0.75523 0.23514 0.0
loop_
_geom_bond_atom_site_label_1
_geom_bond_atom_site_label_2
_geom_bond_distance
_geom_bond_site_symmetry_2
_ccdc_geom_bond_type
C0 C1 1.384 . S
C0 H13 0.947 . S
C0 C35 1.382 . S
C1 C0 1.384 . S
C1 C2 1.378 . S
C2 C1 1.378 . S
C2 C3 1.378 . S
C2 H14 0.952 . S
C3 C2 1.378 . S
C3 H15 0.950 . S
C3 C34 1.383 . S
H4 C23 0.947 . S
H5 C24 0.946 . S
H6 C26 0.953 . S
H7 C27 0.945 . S
H8 C29 0.952 . S
H9 C30 0.949 . S
H10 C32 0.950 . S
H11 C33 0.948 . S
H12 C35 0.951 . S
H13 C0 0.947 . S
H14 C2 0.952 . S
H15 C3 0.950 . S
N16 C19 1.382 . S
N16 C21 1.363 . S
N17 C19 1.371 . S
N17 C20 1.372 . S
N18 C20 1.361 . S
N18 C21 1.377 . S
C19 N16 1.382 . S
C19 N17 1.371 . S
C19 C22 1.480 . S
C20 N17 1.372 . S
C20 N18 1.361 . S
C20 C28 1.457 . S
C21 N16 1.363 . S
C21 N18 1.377 . S
C21 C34 1.479 . S
C22 C19 1.480 . S
C22 C23 1.383 . S
C22 C27 1.385 . S
C23 H4 0.947 . S
C23 C22 1.383 . S
C23 C24 1.388 . S
C24 H5 0.946 . S
C24 C23 1.388 . S
C24 C25 1.384 . S
C25 C24 1.384 . S
C25 C26 1.377 . S
C26 H6 0.953 . S
C26 C25 1.377 . S
C26 C27 1.369 . S
C27 H7 0.945 . S
C27 C22 1.385 . S
C27 C26 1.369 . S
C28 C20 1.457 . S
C28 C29 1.372 . S
C28 C33 1.364 . S
C29 H8 0.952 . S
C29 C28 1.372 . S
C29 C30 1.389 . S
C30 H9 0.949 . S
C30 C29 1.389 . S
C30 C31 1.387 . S
C31 C30 1.387 . S
C31 C32 1.372 . S
C32 H10 0.950 . S
C32 C31 1.372 . S
C32 C33 1.379 . S
C33 H11 0.948 . S
C33 C28 1.364 . S
C33 C32 1.379 . S
C34 C3 1.383 . S
C34 C21 1.479 . S
C34 C35 1.398 . S
C35 C0 1.382 . S
C35 H12 0.951 . S
C35 C34 1.398 . S
C36 C37 1.384 . S
C36 H49 0.947 . S
C36 C71 1.382 . S
C37 C36 1.384 . S
C37 C38 1.378 . S
C38 C37 1.378 . S
C38 C39 1.378 . S
C38 H50 0.952 . S
C39 C38 1.378 . S
C39 H51 0.950 . S
C39 C70 1.383 . S
H40 C59 0.947 . S
H41 C60 0.946 . S
H42 C62 0.953 . S
H43 C63 0.945 . S
H44 C65 0.952 . S
H45 C66 0.949 . S
H46 C68 0.950 . S
H47 C69 0.948 . S
H48 C71 0.951 . S
H49 C36 0.947 . S
H50 C38 0.952 . S
H51 C39 0.950 . S
N52 C55 1.382 . S
N52 C57 1.363 . S
N53 C55 1.371 . S
N53 C56 1.372 . S
N54 C56 1.361 . S
N54 C57 1.377 . S
C55 N52 1.382 . S
C55 N53 1.371 . S
C55 C58 1.480 . S
C56 N53 1.372 . S
C56 N54 1.361 . S
C56 C64 1.457 . S
C57 N52 1.363 . S
C57 N54 1.377 . S
C57 C70 1.479 . S
C58 C55 1.480 . S
C58 C59 1.383 . S
C58 C63 1.385 . S
C59 H40 0.947 . S
C59 C58 1.383 . S
C59 C60 1.388 . S
C60 H41 0.946 . S
C60 C59 1.388 . S
C60 C61 1.384 . S
C61 C60 1.384 . S
C61 C62 1.377 . S
C62 H42 0.953 . S
C62 C61 1.377 . S
C62 C63 1.369 . S
C63 H43 0.945 . S
C63 C58 1.385 . S
C63 C62 1.369 . S
C64 C56 1.457 . S
C64 C65 1.372 . S
C64 C69 1.364 . S
C65 H44 0.952 . S
C65 C64 1.372 . S
C65 C66 1.389 . S
C66 H45 0.949 . S
C66 C65 1.389 . S
C66 C67 1.387 . S
C67 C66 1.387 . S
C67 C68 1.372 . S
C68 H46 0.950 . S
C68 C67 1.372 . S
C68 C69 1.379 . S
C69 H47 0.948 . S
C69 C64 1.364 . S
C69 C68 1.379 . S
C70 C39 1.383 . S
C70 C57 1.479 . S
C70 C71 1.398 . S
C71 C36 1.382 . S
C71 H48 0.951 . S
C71 C70 1.398 . S
C72 C73 1.384 . S
C72 H85 0.947 . S
C72 C107 1.382 . S
C73 C72 1.384 . S
C73 C74 1.378 . S
C74 C73 1.378 . S
C74 C75 1.378 . S
C74 H86 0.952 . S
C75 C74 1.378 . S
C75 H87 0.950 . S
C75 C106 1.383 . S
H76 C95 0.947 . S
H77 C96 0.946 . S
H78 C98 0.953 . S
H79 C99 0.945 . S
H80 C101 0.952 . S
H81 C102 0.949 . S
H82 C104 0.950 . S
H83 C105 0.948 . S
H84 C107 0.951 . S
H85 C72 0.947 . S
H86 C74 0.952 . S
H87 C75 0.950 . S
N88 C91 1.382 . S
N88 C93 1.363 . S
N89 C91 1.371 . S
N89 C92 1.372 . S
N90 C92 1.361 . S
N90 C93 1.377 . S
C91 N88 1.382 . S
C91 N89 1.371 . S
C91 C94 1.480 . S
C92 N89 1.372 . S
C92 N90 1.361 . S
C92 C100 1.457 . S
C93 N88 1.363 . S
C93 N90 1.377 . S
C93 C106 1.479 . S
C94 C91 1.480 . S
C94 C95 1.383 . S
C94 C99 1.385 . S
C95 H76 0.947 . S
C95 C94 1.383 . S
C95 C96 1.388 . S
C96 H77 0.946 . S
C96 C95 1.388 . S
C96 C97 1.384 . S
C97 C96 1.384 . S
C97 C98 1.377 . S
C98 H78 0.953 . S
C98 C97 1.377 . S
C98 C99 1.369 . S
C99 H79 0.945 . S
C99 C94 1.385 . S
C99 C98 1.369 . S
C100 C92 1.457 . S
C100 C101 1.372 . S
C100 C105 1.364 . S
C101 H80 0.952 . S
C101 C100 1.372 . S
C101 C102 1.389 . S
C102 H81 0.949 . S
C102 C101 1.389 . S
C102 C103 1.387 . S
C103 C102 1.387 . S
C103 C104 1.372 . S
C104 H82 0.950 . S
C104 C103 1.372 . S
C104 C105 1.379 . S
C105 H83 0.948 . S
C105 C100 1.364 . S
C105 C104 1.379 . S
C106 C75 1.383 . S
C106 C93 1.479 . S
C106 C107 1.398 . S
C107 C72 1.382 . S
C107 H84 0.951 . S
C107 C106 1.398 . S
C108 C109 1.384 . S
C108 H121 0.947 . S
C108 C143 1.382 . S
C109 C108 1.384 . S
C109 C110 1.378 . S
C110 C109 1.378 . S
C110 C111 1.378 . S
C110 H122 0.952 . S
C111 C110 1.378 . S
C111 H123 0.950 . S
C111 C142 1.383 . S
H112 C131 0.947 . S
H113 C132 0.946 . S
H114 C134 0.953 . S
H115 C135 0.945 . S
H116 C137 0.952 . S
H117 C138 0.949 . S
H118 C140 0.950 . S
H119 C141 0.948 . S
H120 C143 0.951 . S
H121 C108 0.947 . S
H122 C110 0.952 . S
H123 C111 0.950 . S
N124 C127 1.382 . S
N124 C129 1.363 . S
N125 C127 1.371 . S
N125 C128 1.372 . S
N126 C128 1.361 . S
N126 C129 1.377 . S
C127 N124 1.382 . S
C127 N125 1.371 . S
C127 C130 1.480 . S
C128 N125 1.372 . S
C128 N126 1.361 . S
C128 C136 1.457 . S
C129 N124 1.363 . S
C129 N126 1.377 . S
C129 C142 1.479 . S
C130 C127 1.480 . S
C130 C131 1.383 . S
C130 C135 1.385 . S
C131 H112 0.947 . S
C131 C130 1.383 . S
C131 C132 1.388 . S
C132 H113 0.946 . S
C132 C131 1.388 . S
C132 C133 1.384 . S
C133 C132 1.384 . S
C133 C134 1.377 . S
C134 H114 0.953 . S
C134 C133 1.377 . S
C134 C135 1.369 . S
C135 H115 0.945 . S
C135 C130 1.385 . S
C135 C134 1.369 . S
C136 C128 1.457 . S
C136 C137 1.372 . S
C136 C141 1.364 . S
C137 H116 0.952 . S
C137 C136 1.372 . S
C137 C138 1.389 . S
C138 H117 0.949 . S
C138 C137 1.389 . S
C138 C139 1.387 . S
C139 C138 1.387 . S
C139 C140 1.372 . S
C140 H118 0.950 . S
C140 C139 1.372 . S
C140 C141 1.379 . S
C141 H119 0.948 . S
C141 C136 1.364 . S
C141 C140 1.379 . S
C142 C111 1.383 . S
C142 C129 1.479 . S
C142 C143 1.398 . S
C143 C108 1.382 . S
C143 H120 0.951 . S
C143 C142 1.398 . S
C144 C145 1.384 . S
C144 H157 0.947 . S
C144 C179 1.382 . S
C145 C144 1.384 . S
C145 C146 1.378 . S
C146 C145 1.378 . S
C146 C147 1.378 . S
C146 H158 0.952 . S
C147 C146 1.378 . S
C147 H159 0.950 . S
C147 C178 1.383 . S
H148 C167 0.947 . S
H149 C168 0.946 . S
H150 C170 0.953 . S
H151 C171 0.945 . S
H152 C173 0.952 . S
H153 C174 0.949 . S
H154 C176 0.950 . S
H155 C177 0.948 . S
H156 C179 0.951 . S
H157 C144 0.947 . S
H158 C146 0.952 . S
H159 C147 0.950 . S
N160 C163 1.382 . S
N160 C165 1.363 . S
N161 C163 1.371 . S
N161 C164 1.372 . S
N162 C164 1.361 . S
N162 C165 1.377 . S
C163 N160 1.382 . S
C163 N161 1.371 . S
C163 C166 1.480 . S
C164 N161 1.372 . S
C164 N162 1.361 . S
C164 C172 1.457 . S
C165 N160 1.363 . S
C165 N162 1.377 . S
C165 C178 1.479 . S
C166 C163 1.480 . S
C166 C167 1.383 . S
C166 C171 1.385 . S
C167 H148 0.947 . S
C167 C166 1.383 . S
C167 C168 1.388 . S
C168 H149 0.946 . S
C168 C167 1.388 . S
C168 C169 1.384 . S
C169 C168 1.384 . S
C169 C170 1.377 . S
C170 H150 0.953 . S
C170 C169 1.377 . S
C170 C171 1.369 . S
C171 H151 0.945 . S
C171 C166 1.385 . S
C171 C170 1.369 . S
C172 C164 1.457 . S
C172 C173 1.372 . S
C172 C177 1.364 . S
C173 H152 0.952 . S
C173 C172 1.372 . S
C173 C174 1.389 . S
C174 H153 0.949 . S
C174 C173 1.389 . S
C174 C175 1.387 . S
C175 C174 1.387 . S
C175 C176 1.372 . S
C176 H154 0.950 . S
C176 C175 1.372 . S
C176 C177 1.379 . S
C177 H155 0.948 . S
C177 C172 1.364 . S
C177 C176 1.379 . S
C178 C147 1.383 . S
C178 C165 1.479 . S
C178 C179 1.398 . S
C179 C144 1.382 . S
C179 H156 0.951 . S
C179 C178 1.398 . S
C180 C181 1.384 . S
C180 H193 0.947 . S
C180 C215 1.382 . S
C181 C180 1.384 . S
C181 C182 1.378 . S
C182 C181 1.378 . S
C182 C183 1.378 . S
C182 H194 0.952 . S
C183 C182 1.378 . S
C183 H195 0.950 . S
C183 C214 1.383 . S
H184 C203 0.947 . S
H185 C204 0.946 . S
H186 C206 0.953 . S
H187 C207 0.945 . S
H188 C209 0.952 . S
H189 C210 0.949 . S
H190 C212 0.950 . S
H191 C213 0.948 . S
H192 C215 0.951 . S
H193 C180 0.947 . S
H194 C182 0.952 . S
H195 C183 0.950 . S
N196 C199 1.382 . S
N196 C201 1.363 . S
N197 C199 1.371 . S
N197 C200 1.372 . S
N198 C200 1.361 . S
N198 C201 1.377 . S
C199 N196 1.382 . S
C199 N197 1.371 . S
C199 C202 1.480 . S
C200 N197 1.372 . S
C200 N198 1.361 . S
C200 C208 1.457 . S
C201 N196 1.363 . S
C201 N198 1.377 . S
C201 C214 1.479 . S
C202 C199 1.480 . S
C202 C203 1.383 . S
C202 C207 1.385 . S
C203 H184 0.947 . S
C203 C202 1.383 . S
C203 C204 1.388 . S
C204 H185 0.946 . S
C204 C203 1.388 . S
C204 C205 1.384 . S
C205 C204 1.384 . S
C205 C206 1.377 . S
C206 H186 0.953 . S
C206 C205 1.377 . S
C206 C207 1.369 . S
C207 H187 0.945 . S
C207 C202 1.385 . S
C207 C206 1.369 . S
C208 C200 1.457 . S
C208 C209 1.372 . S
C208 C213 1.364 . S
C209 H188 0.952 . S
C209 C208 1.372 . S
C209 C210 1.389 . S
C210 H189 0.949 . S
C210 C209 1.389 . S
C210 C211 1.387 . S
C211 C210 1.387 . S
C211 C212 1.372 . S
C212 H190 0.950 . S
C212 C211 1.372 . S
C212 C213 1.379 . S
C213 H191 0.948 . S
C213 C208 1.364 . S
C213 C212 1.379 . S
C214 C183 1.383 . S
C214 C201 1.479 . S
C214 C215 1.398 . S
C215 C180 1.382 . S
C215 H192 0.951 . S
C215 C214 1.398 . S
C216 C217 1.384 . S
C216 H229 0.947 . S
C216 C251 1.382 . S
C217 C216 1.384 . S
C217 C218 1.378 . S
C218 C217 1.378 . S
C218 C219 1.378 . S
C218 H230 0.952 . S
C219 C218 1.378 . S
C219 H231 0.950 . S
C219 C250 1.383 . S
H220 C239 0.947 . S
H221 C240 0.946 . S
H222 C242 0.953 . S
H223 C243 0.945 . S
H224 C245 0.952 . S
H225 C246 0.949 . S
H226 C248 0.950 . S
H227 C249 0.948 . S
H228 C251 0.951 . S
H229 C216 0.947 . S
H230 C218 0.952 . S
H231 C219 0.950 . S
N232 C235 1.382 . S
N232 C237 1.363 . S
N233 C235 1.371 . S
N233 C236 1.372 . S
N234 C236 1.361 . S
N234 C237 1.377 . S
C235 N232 1.382 . S
C235 N233 1.371 . S
C235 C238 1.480 . S
C236 N233 1.372 . S
C236 N234 1.361 . S
C236 C244 1.457 . S
C237 N232 1.363 . S
C237 N234 1.377 . S
C237 C250 1.479 . S
C238 C235 1.480 . S
C238 C239 1.383 . S
C238 C243 1.385 . S
C239 H220 0.947 . S
C239 C238 1.383 . S
C239 C240 1.388 . S
C240 H221 0.946 . S
C240 C239 1.388 . S
C240 C241 1.384 . S
C241 C240 1.384 . S
C241 C242 1.377 . S
C242 H222 0.953 . S
C242 C241 1.377 . S
C242 C243 1.369 . S
C243 H223 0.945 . S
C243 C238 1.385 . S
C243 C242 1.369 . S
C244 C236 1.457 . S
C244 C245 1.372 . S
C244 C249 1.364 . S
C245 H224 0.952 . S
C245 C244 1.372 . S
C245 C246 1.389 . S
C246 H225 0.949 . S
C246 C245 1.389 . S
C246 C247 1.387 . S
C247 C246 1.387 . S
C247 C248 1.372 . S
C248 H226 0.950 . S
C248 C247 1.372 . S
C248 C249 1.379 . S
C249 H227 0.948 . S
C249 C244 1.364 . S
C249 C248 1.379 . S
C250 C219 1.383 . S
C250 C237 1.479 . S
C250 C251 1.398 . S
C251 C216 1.382 . S
C251 H228 0.951 . S
C251 C250 1.398 . S
C252 C253 1.384 . S
C252 H265 0.947 . S
C252 C287 1.382 . S
C253 C252 1.384 . S
C253 C254 1.378 . S
C254 C253 1.378 . S
C254 C255 1.378 . S
C254 H266 0.952 . S
C255 C254 1.378 . S
C255 H267 0.950 . S
C255 C286 1.383 . S
H256 C275 0.947 . S
H257 C276 0.946 . S
H258 C278 0.953 . S
H259 C279 0.945 . S
H260 C281 0.952 . S
H261 C282 0.949 . S
H262 C284 0.950 . S
H263 C285 0.948 . S
H264 C287 0.951 . S
H265 C252 0.947 . S
H266 C254 0.952 . S
H267 C255 0.950 . S
N268 C271 1.382 . S
N268 C273 1.363 . S
N269 C271 1.371 . S
N269 C272 1.372 . S
N270 C272 1.361 . S
N270 C273 1.377 . S
C271 N268 1.382 . S
C271 N269 1.371 . S
C271 C274 1.480 . S
C272 N269 1.372 . S
C272 N270 1.361 . S
C272 C280 1.457 . S
C273 N268 1.363 . S
C273 N270 1.377 . S
C273 C286 1.479 . S
C274 C271 1.480 . S
C274 C275 1.383 . S
C274 C279 1.385 . S
C275 H256 0.947 . S
C275 C274 1.383 . S
C275 C276 1.388 . S
C276 H257 0.946 . S
C276 C275 1.388 . S
C276 C277 1.384 . S
C277 C276 1.384 . S
C277 C278 1.377 . S
C278 H258 0.953 . S
C278 C277 1.377 . S
C278 C279 1.369 . S
C279 H259 0.945 . S
C279 C274 1.385 . S
C279 C278 1.369 . S
C280 C272 1.457 . S
C280 C281 1.372 . S
C280 C285 1.364 . S
C281 H260 0.952 . S
C281 C280 1.372 . S
C281 C282 1.389 . S
C282 H261 0.949 . S
C282 C281 1.389 . S
C282 C283 1.387 . S
C283 C282 1.387 . S
C283 C284 1.372 . S
C284 H262 0.950 . S
C284 C283 1.372 . S
C284 C285 1.379 . S
C285 H263 0.948 . S
C285 C280 1.364 . S
C285 C284 1.379 . S
C286 C255 1.383 . S
C286 C273 1.479 . S
C286 C287 1.398 . S
C287 C252 1.382 . S
C287 H264 0.951 . S
C287 C286 1.398 . S
C288 C289 1.384 . S
C288 H301 0.947 . S
C288 C323 1.382 . S
C289 C288 1.384 . S
C289 C290 1.378 . S
C290 C289 1.378 . S
C290 C291 1.378 . S
C290 H302 0.952 . S
C291 C290 1.378 . S
C291 H303 0.950 . S
C291 C322 1.383 . S
H292 C311 0.947 . S
H293 C312 0.946 . S
H294 C314 0.953 . S
H295 C315 0.945 . S
H296 C317 0.952 . S
H297 C318 0.949 . S
H298 C320 0.950 . S
H299 C321 0.948 . S
H300 C323 0.951 . S
H301 C288 0.947 . S
H302 C290 0.952 . S
H303 C291 0.950 . S
N304 C307 1.382 . S
N304 C309 1.363 . S
N305 C307 1.371 . S
N305 C308 1.372 . S
N306 C308 1.361 . S
N306 C309 1.377 . S
C307 N304 1.382 . S
C307 N305 1.371 . S
C307 C310 1.480 . S
C308 N305 1.372 . S
C308 N306 1.361 . S
C308 C316 1.457 . S
C309 N304 1.363 . S
C309 N306 1.377 . S
C309 C322 1.479 . S
C310 C307 1.480 . S
C310 C311 1.383 . S
C310 C315 1.385 . S
C311 H292 0.947 . S
C311 C310 1.383 . S
C311 C312 1.388 . S
C312 H293 0.946 . S
C312 C311 1.388 . S
C312 C313 1.384 . S
C313 C312 1.384 . S
C313 C314 1.377 . S
C314 H294 0.953 . S
C314 C313 1.377 . S
C314 C315 1.369 . S
C315 H295 0.945 . S
C315 C310 1.385 . S
C315 C314 1.369 . S
C316 C308 1.457 . S
C316 C317 1.372 . S
C316 C321 1.364 . S
C317 H296 0.952 . S
C317 C316 1.372 . S
C317 C318 1.389 . S
C318 H297 0.949 . S
C318 C317 1.389 . S
C318 C319 1.387 . S
C319 C318 1.387 . S
C319 C320 1.372 . S
C320 H298 0.950 . S
C320 C319 1.372 . S
C320 C321 1.379 . S
C321 H299 0.948 . S
C321 C316 1.364 . S
C321 C320 1.379 . S
C322 C291 1.383 . S
C322 C309 1.479 . S
C322 C323 1.398 . S
C323 C288 1.382 . S
C323 H300 0.951 . S
C323 C322 1.398 . S
C324 C325 1.384 . S
C324 H337 0.947 . S
C324 C359 1.382 . S
C325 C324 1.384 . S
C325 C326 1.378 . S
C326 C325 1.378 . S
C326 C327 1.378 . S
C326 H338 0.952 . S
C327 C326 1.378 . S
C327 H339 0.950 . S
C327 C358 1.383 . S
H328 C347 0.947 . S
H329 C348 0.946 . S
H330 C350 0.953 . S
H331 C351 0.945 . S
H332 C353 0.952 . S
H333 C354 0.949 . S
H334 C356 0.950 . S
H335 C357 0.948 . S
H336 C359 0.951 . S
H337 C324 0.947 . S
H338 C326 0.952 . S
H339 C327 0.950 . S
N340 C343 1.382 . S
N340 C345 1.363 . S
N341 C343 1.371 . S
N341 C344 1.372 . S
N342 C344 1.361 . S
N342 C345 1.377 . S
C343 N340 1.382 . S
C343 N341 1.371 . S
C343 C346 1.480 . S
C344 N341 1.372 . S
C344 N342 1.361 . S
C344 C352 1.457 . S
C345 N340 1.363 . S
C345 N342 1.377 . S
C345 C358 1.479 . S
C346 C343 1.480 . S
C346 C347 1.383 . S
C346 C351 1.385 . S
C347 H328 0.947 . S
C347 C346 1.383 . S
C347 C348 1.388 . S
C348 H329 0.946 . S
C348 C347 1.388 . S
C348 C349 1.384 . S
C349 C348 1.384 . S
C349 C350 1.377 . S
C350 H330 0.953 . S
C350 C349 1.377 . S
C350 C351 1.369 . S
C351 H331 0.945 . S
C351 C346 1.385 . S
C351 C350 1.369 . S
C352 C344 1.457 . S
C352 C353 1.372 . S
C352 C357 1.364 . S
C353 H332 0.952 . S
C353 C352 1.372 . S
C353 C354 1.389 . S
C354 H333 0.949 . S
C354 C353 1.389 . S
C354 C355 1.387 . S
C355 C354 1.387 . S
C355 C356 1.372 . S
C356 H334 0.950 . S
C356 C355 1.372 . S
C356 C357 1.379 . S
C357 H335 0.948 . S
C357 C352 1.364 . S
C357 C356 1.379 . S
C358 C327 1.383 . S
C358 C345 1.479 . S
C358 C359 1.398 . S
C359 C324 1.382 . S
C359 H336 0.951 . S
C359 C358 1.398 . S
C360 C361 1.384 . S
C360 H373 0.947 . S
C360 C395 1.382 . S
C361 C360 1.384 . S
C361 C362 1.378 . S
C362 C361 1.378 . S
C362 C363 1.378 . S
C362 H374 0.952 . S
C363 C362 1.378 . S
C363 H375 0.950 . S
C363 C394 1.383 . S
H364 C383 0.947 . S
H365 C384 0.946 . S
H366 C386 0.953 . S
H367 C387 0.945 . S
H368 C389 0.952 . S
H369 C390 0.949 . S
H370 C392 0.950 . S
H371 C393 0.948 . S
H372 C395 0.951 . S
H373 C360 0.947 . S
H374 C362 0.952 . S
H375 C363 0.950 . S
N376 C379 1.382 . S
N376 C381 1.363 . S
N377 C379 1.371 . S
N377 C380 1.372 . S
N378 C380 1.361 . S
N378 C381 1.377 . S
C379 N376 1.382 . S
C379 N377 1.371 . S
C379 C382 1.480 . S
C380 N377 1.372 . S
C380 N378 1.361 . S
C380 C388 1.457 . S
C381 N376 1.363 . S
C381 N378 1.377 . S
C381 C394 1.479 . S
C382 C379 1.480 . S
C382 C383 1.383 . S
C382 C387 1.385 . S
C383 H364 0.947 . S
C383 C382 1.383 . S
C383 C384 1.388 . S
C384 H365 0.946 . S
C384 C383 1.388 . S
C384 C385 1.384 . S
C385 C384 1.384 . S
C385 C386 1.377 . S
C386 H366 0.953 . S
C386 C385 1.377 . S
C386 C387 1.369 . S
C387 H367 0.945 . S
C387 C382 1.385 . S
C387 C386 1.369 . S
C388 C380 1.457 . S
C388 C389 1.372 . S
C388 C393 1.364 . S
C389 H368 0.952 . S
C389 C388 1.372 . S
C389 C390 1.389 . S
C390 H369 0.949 . S
C390 C389 1.389 . S
C390 C391 1.387 . S
C391 C390 1.387 . S
C391 C392 1.372 . S
C392 H370 0.950 . S
C392 C391 1.372 . S
C392 C393 1.379 . S
C393 H371 0.948 . S
C393 C388 1.364 . S
C393 C392 1.379 . S
C394 C363 1.383 . S
C394 C381 1.479 . S
C394 C395 1.398 . S
C395 C360 1.382 . S
C395 H372 0.951 . S
C395 C394 1.398 . S
C396 C397 1.384 . S
C396 H409 0.947 . S
C396 C431 1.382 . S
C397 C396 1.384 . S
C397 C398 1.378 . S
C398 C397 1.378 . S
C398 C399 1.378 . S
C398 H410 0.952 . S
C399 C398 1.378 . S
C399 H411 0.950 . S
C399 C430 1.383 . S
H400 C419 0.947 . S
H401 C420 0.946 . S
H402 C422 0.953 . S
H403 C423 0.945 . S
H404 C425 0.952 . S
H405 C426 0.949 . S
H406 C428 0.950 . S
H407 C429 0.948 . S
H408 C431 0.951 . S
H409 C396 0.947 . S
H410 C398 0.952 . S
H411 C399 0.950 . S
N412 C415 1.382 . S
N412 C417 1.363 . S
N413 C415 1.371 . S
N413 C416 1.372 . S
N414 C416 1.361 . S
N414 C417 1.377 . S
C415 N412 1.382 . S
C415 N413 1.371 . S
C415 C418 1.480 . S
C416 N413 1.372 . S
C416 N414 1.361 . S
C416 C424 1.457 . S
C417 N412 1.363 . S
C417 N414 1.377 . S
C417 C430 1.479 . S
C418 C415 1.480 . S
C418 C419 1.383 . S
C418 C423 1.385 . S
C419 H400 0.947 . S
C419 C418 1.383 . S
C419 C420 1.388 . S
C420 H401 0.946 . S
C420 C419 1.388 . S
C420 C421 1.384 . S
C421 C420 1.384 . S
C421 C422 1.377 . S
C422 H402 0.953 . S
C422 C421 1.377 . S
C422 C423 1.369 . S
C423 H403 0.945 . S
C423 C418 1.385 . S
C423 C422 1.369 . S
C424 C416 1.457 . S
C424 C425 1.372 . S
C424 C429 1.364 . S
C425 H404 0.952 . S
C425 C424 1.372 . S
C425 C426 1.389 . S
C426 H405 0.949 . S
C426 C425 1.389 . S
C426 C427 1.387 . S
C427 C426 1.387 . S
C427 C428 1.372 . S
C428 H406 0.950 . S
C428 C427 1.372 . S
C428 C429 1.379 . S
C429 H407 0.948 . S
C429 C424 1.364 . S
C429 C428 1.379 . S
C430 C399 1.383 . S
C430 C417 1.479 . S
C430 C431 1.398 . S
C431 C396 1.382 . S
C431 H408 0.951 . S
C431 C430 1.398 . S
C432 C433 1.384 . S
C432 H445 0.947 . S
C432 C467 1.382 . S
C433 C432 1.384 . S
C433 C434 1.378 . S
C434 C433 1.378 . S
C434 C435 1.378 . S
C434 H446 0.952 . S
C435 C434 1.378 . S
C435 H447 0.950 . S
C435 C466 1.383 . S
H436 C455 0.947 . S
H437 C456 0.946 . S
H438 C458 0.953 . S
H439 C459 0.945 . S
H440 C461 0.952 . S
H441 C462 0.949 . S
H442 C464 0.950 . S
H443 C465 0.948 . S
H444 C467 0.951 . S
H445 C432 0.947 . S
H446 C434 0.952 . S
H447 C435 0.950 . S
N448 C451 1.382 . S
N448 C453 1.363 . S
N449 C451 1.371 . S
N449 C452 1.372 . S
N450 C452 1.361 . S
N450 C453 1.377 . S
C451 N448 1.382 . S
C451 N449 1.371 . S
C451 C454 1.480 . S
C452 N449 1.372 . S
C452 N450 1.361 . S
C452 C460 1.457 . S
C453 N448 1.363 . S
C453 N450 1.377 . S
C453 C466 1.479 . S
C454 C451 1.480 . S
C454 C455 1.383 . S
C454 C459 1.385 . S
C455 H436 0.947 . S
C455 C454 1.383 . S
C455 C456 1.388 . S
C456 H437 0.946 . S
C456 C455 1.388 . S
C456 C457 1.384 . S
C457 C456 1.384 . S
C457 C458 1.377 . S
C458 H438 0.953 . S
C458 C457 1.377 . S
C458 C459 1.369 . S
C459 H439 0.945 . S
C459 C454 1.385 . S
C459 C458 1.369 . S
C460 C452 1.457 . S
C460 C461 1.372 . S
C460 C465 1.364 . S
C461 H440 0.952 . S
C461 C460 1.372 . S
C461 C462 1.389 . S
C462 H441 0.949 . S
C462 C461 1.389 . S
C462 C463 1.387 . S
C463 C462 1.387 . S
C463 C464 1.372 . S
C464 H442 0.950 . S
C464 C463 1.372 . S
C464 C465 1.379 . S
C465 H443 0.948 . S
C465 C460 1.364 . S
C465 C464 1.379 . S
C466 C435 1.383 . S
C466 C453 1.479 . S
C466 C467 1.398 . S
C467 C432 1.382 . S
C467 H444 0.951 . S
C467 C466 1.398 . S
C468 C469 1.384 . S
C468 H481 0.947 . S
C468 C503 1.382 . S
C469 C468 1.384 . S
C469 C470 1.378 . S
C470 C469 1.378 . S
C470 C471 1.378 . S
C470 H482 0.952 . S
C471 C470 1.378 . S
C471 H483 0.950 . S
C471 C502 1.383 . S
H472 C491 0.947 . S
H473 C492 0.946 . S
H474 C494 0.953 . S
H475 C495 0.945 . S
H476 C497 0.952 . S
H477 C498 0.949 . S
H478 C500 0.950 . S
H479 C501 0.948 . S
H480 C503 0.951 . S
H481 C468 0.947 . S
H482 C470 0.952 . S
H483 C471 0.950 . S
N484 C487 1.382 . S
N484 C489 1.363 . S
N485 C487 1.371 . S
N485 C488 1.372 . S
N486 C488 1.361 . S
N486 C489 1.377 . S
C487 N484 1.382 . S
C487 N485 1.371 . S
C487 C490 1.480 . S
C488 N485 1.372 . S
C488 N486 1.361 . S
C488 C496 1.457 . S
C489 N484 1.363 . S
C489 N486 1.377 . S
C489 C502 1.479 . S
C490 C487 1.480 . S
C490 C491 1.383 . S
C490 C495 1.385 . S
C491 H472 0.947 . S
C491 C490 1.383 . S
C491 C492 1.388 . S
C492 H473 0.946 . S
C492 C491 1.388 . S
C492 C493 1.384 . S
C493 C492 1.384 . S
C493 C494 1.377 . S
C494 H474 0.953 . S
C494 C493 1.377 . S
C494 C495 1.369 . S
C495 H475 0.945 . S
C495 C490 1.385 . S
C495 C494 1.369 . S
C496 C488 1.457 . S
C496 C497 1.372 . S
C496 C501 1.364 . S
C497 H476 0.952 . S
C497 C496 1.372 . S
C497 C498 1.389 . S
C498 H477 0.949 . S
C498 C497 1.389 . S
C498 C499 1.387 . S
C499 C498 1.387 . S
C499 C500 1.372 . S
C500 H478 0.950 . S
C500 C499 1.372 . S
C500 C501 1.379 . S
C501 H479 0.948 . S
C501 C496 1.364 . S
C501 C500 1.379 . S
C502 C471 1.383 . S
C502 C489 1.479 . S
C502 C503 1.398 . S
C503 C468 1.382 . S
C503 H480 0.951 . S
C503 C502 1.398 . S
C504 C505 1.384 . S
C504 H517 0.947 . S
C504 C539 1.382 . S
C505 C504 1.384 . S
C505 C506 1.378 . S
C506 C505 1.378 . S
C506 C507 1.378 . S
C506 H518 0.952 . S
C507 C506 1.378 . S
C507 H519 0.950 . S
C507 C538 1.383 . S
H508 C527 0.947 . S
H509 C528 0.946 . S
H510 C530 0.953 . S
H511 C531 0.945 . S
H512 C533 0.952 . S
H513 C534 0.949 . S
H514 C536 0.950 . S
H515 C537 0.948 . S
H516 C539 0.951 . S
H517 C504 0.947 . S
H518 C506 0.952 . S
H519 C507 0.950 . S
N520 C523 1.382 . S
N520 C525 1.363 . S
N521 C523 1.371 . S
N521 C524 1.372 . S
N522 C524 1.361 . S
N522 C525 1.377 . S
C523 N520 1.382 . S
C523 N521 1.371 . S
C523 C526 1.480 . S
C524 N521 1.372 . S
C524 N522 1.361 . S
C524 C532 1.457 . S
C525 N520 1.363 . S
C525 N522 1.377 . S
C525 C538 1.479 . S
C526 C523 1.480 . S
C526 C527 1.383 . S
C526 C531 1.385 . S
C527 H508 0.947 . S
C527 C526 1.383 . S
C527 C528 1.388 . S
C528 H509 0.946 . S
C528 C527 1.388 . S
C528 C529 1.384 . S
C529 C528 1.384 . S
C529 C530 1.377 . S
C530 H510 0.953 . S
C530 C529 1.377 . S
C530 C531 1.369 . S
C531 H511 0.945 . S
C531 C526 1.385 . S
C531 C530 1.369 . S
C532 C524 1.457 . S
C532 C533 1.372 . S
C532 C537 1.364 . S
C533 H512 0.952 . S
C533 C532 1.372 . S
C533 C534 1.389 . S
C534 H513 0.949 . S
C534 C533 1.389 . S
C534 C535 1.387 . S
C535 C534 1.387 . S
C535 C536 1.372 . S
C536 H514 0.950 . S
C536 C535 1.372 . S
C536 C537 1.379 . S
C537 H515 0.948 . S
C537 C532 1.364 . S
C537 C536 1.379 . S
C538 C507 1.383 . S
C538 C525 1.479 . S
C538 C539 1.398 . S
C539 C504 1.382 . S
C539 H516 0.951 . S
C539 C538 1.398 . S
C540 C541 1.384 . S
C540 H553 0.947 . S
C540 C575 1.382 . S
C541 C540 1.384 . S
C541 C542 1.378 . S
C542 C541 1.378 . S
C542 C543 1.378 . S
C542 H554 0.952 . S
C543 C542 1.378 . S
C543 H555 0.950 . S
C543 C574 1.383 . S
H544 C563 0.947 . S
H545 C564 0.946 . S
H546 C566 0.953 . S
H547 C567 0.945 . S
H548 C569 0.952 . S
H549 C570 0.949 . S
H550 C572 0.950 . S
H551 C573 0.948 . S
H552 C575 0.951 . S
H553 C540 0.947 . S
H554 C542 0.952 . S
H555 C543 0.950 . S
N556 C559 1.382 . S
N556 C561 1.363 . S
N557 C559 1.371 . S
N557 C560 1.372 . S
N558 C560 1.361 . S
N558 C561 1.377 . S
C559 N556 1.382 . S
C559 N557 1.371 . S
C559 C562 1.480 . S
C560 N557 1.372 . S
C560 N558 1.361 . S
C560 C568 1.457 . S
C561 N556 1.363 . S
C561 N558 1.377 . S
C561 C574 1.479 . S
C562 C559 1.480 . S
C562 C563 1.383 . S
C562 C567 1.385 . S
C563 H544 0.947 . S
C563 C562 1.383 . S
C563 C564 1.388 . S
C564 H545 0.946 . S
C564 C563 1.388 . S
C564 C565 1.384 . S
C565 C564 1.384 . S
C565 C566 1.377 . S
C566 H546 0.953 . S
C566 C565 1.377 . S
C566 C567 1.369 . S
C567 H547 0.945 . S
C567 C562 1.385 . S
C567 C566 1.369 . S
C568 C560 1.457 . S
C568 C569 1.372 . S
C568 C573 1.364 . S
C569 H548 0.952 . S
C569 C568 1.372 . S
C569 C570 1.389 . S
C570 H549 0.949 . S
C570 C569 1.389 . S
C570 C571 1.387 . S
C571 C570 1.387 . S
C571 C572 1.372 . S
C572 H550 0.950 . S
C572 C571 1.372 . S
C572 C573 1.379 . S
C573 H551 0.948 . S
C573 C568 1.364 . S
C573 C572 1.379 . S
C574 C543 1.383 . S
C574 C561 1.479 . S
C574 C575 1.398 . S
C575 C540 1.382 . S
C575 H552 0.951 . S
C575 C574 1.398 . S
C576 C577 1.384 . S
C576 H589 0.947 . S
C576 C611 1.382 . S
C577 C576 1.384 . S
C577 C578 1.378 . S
C578 C577 1.378 . S
C578 C579 1.378 . S
C578 H590 0.952 . S
C579 C578 1.378 . S
C579 H591 0.950 . S
C579 C610 1.383 . S
H580 C599 0.947 . S
H581 C600 0.946 . S
H582 C602 0.953 . S
H583 C603 0.945 . S
H584 C605 0.952 . S
H585 C606 0.949 . S
H586 C608 0.950 . S
H587 C609 0.948 . S
H588 C611 0.951 . S
H589 C576 0.947 . S
H590 C578 0.952 . S
H591 C579 0.950 . S
N592 C595 1.382 . S
N592 C597 1.363 . S
N593 C595 1.371 . S
N593 C596 1.372 . S
N594 C596 1.361 . S
N594 C597 1.377 . S
C595 N592 1.382 . S
C595 N593 1.371 . S
C595 C598 1.480 . S
C596 N593 1.372 . S
C596 N594 1.361 . S
C596 C604 1.457 . S
C597 N592 1.363 . S
C597 N594 1.377 . S
C597 C610 1.479 . S
C598 C595 1.480 . S
C598 C599 1.383 . S
C598 C603 1.385 . S
C599 H580 0.947 . S
C599 C598 1.383 . S
C599 C600 1.388 . S
C600 H581 0.946 . S
C600 C599 1.388 . S
C600 C601 1.384 . S
C601 C600 1.384 . S
C601 C602 1.377 . S
C602 H582 0.953 . S
C602 C601 1.377 . S
C602 C603 1.369 . S
C603 H583 0.945 . S
C603 C598 1.385 . S
C603 C602 1.369 . S
C604 C596 1.457 . S
C604 C605 1.372 . S
C604 C609 1.364 . S
C605 H584 0.952 . S
C605 C604 1.372 . S
C605 C606 1.389 . S
C606 H585 0.949 . S
C606 C605 1.389 . S
C606 C607 1.387 . S
C607 C606 1.387 . S
C607 C608 1.372 . S
C608 H586 0.950 . S
C608 C607 1.372 . S
C608 C609 1.379 . S
C609 H587 0.948 . S
C609 C604 1.364 . S
C609 C608 1.379 . S
C610 C579 1.383 . S
C610 C597 1.479 . S
C610 C611 1.398 . S
C611 C576 1.382 . S
C611 H588 0.951 . S
C611 C610 1.398 . S
C612 C613 1.384 . S
C612 H625 0.947 . S
C612 C647 1.382 . S
C613 C612 1.384 . S
C613 C614 1.378 . S
C614 C613 1.378 . S
C614 C615 1.378 . S
C614 H626 0.952 . S
C615 C614 1.378 . S
C615 H627 0.950 . S
C615 C646 1.383 . S
H616 C635 0.947 . S
H617 C636 0.946 . S
H618 C638 0.953 . S
H619 C639 0.945 . S
H620 C641 0.952 . S
H621 C642 0.949 . S
H622 C644 0.950 . S
H623 C645 0.948 . S
H624 C647 0.951 . S
H625 C612 0.947 . S
H626 C614 0.952 . S
H627 C615 0.950 . S
N628 C631 1.382 . S
N628 C633 1.363 . S
N629 C631 1.371 . S
N629 C632 1.372 . S
N630 C632 1.361 . S
N630 C633 1.377 . S
C631 N628 1.382 . S
C631 N629 1.371 . S
C631 C634 1.480 . S
C632 N629 1.372 . S
C632 N630 1.361 . S
C632 C640 1.457 . S
C633 N628 1.363 . S
C633 N630 1.377 . S
C633 C646 1.479 . S
C634 C631 1.480 . S
C634 C635 1.383 . S
C634 C639 1.385 . S
C635 H616 0.947 . S
C635 C634 1.383 . S
C635 C636 1.388 . S
C636 H617 0.946 . S
C636 C635 1.388 . S
C636 C637 1.384 . S
C637 C636 1.384 . S
C637 C638 1.377 . S
C638 H618 0.953 . S
C638 C637 1.377 . S
C638 C639 1.369 . S
C639 H619 0.945 . S
C639 C634 1.385 . S
C639 C638 1.369 . S
C640 C632 1.457 . S
C640 C641 1.372 . S
C640 C645 1.364 . S
C641 H620 0.952 . S
C641 C640 1.372 . S
C641 C642 1.389 . S
C642 H621 0.949 . S
C642 C641 1.389 . S
C642 C643 1.387 . S
C643 C642 1.387 . S
C643 C644 1.372 . S
C644 H622 0.950 . S
C644 C643 1.372 . S
C644 C645 1.379 . S
C645 H623 0.948 . S
C645 C640 1.364 . S
C645 C644 1.379 . S
C646 C615 1.383 . S
C646 C633 1.479 . S
C646 C647 1.398 . S
C647 C612 1.382 . S
C647 H624 0.951 . S
C647 C646 1.398 . S
C648 C649 1.384 . S
C648 H661 0.947 . S
C648 C683 1.382 . S
C649 C648 1.384 . S
C649 C650 1.378 . S
C650 C649 1.378 . S
C650 C651 1.378 . S
C650 H662 0.952 . S
C651 C650 1.378 . S
C651 H663 0.950 . S
C651 C682 1.383 . S
H652 C671 0.947 . S
H653 C672 0.946 . S
H654 C674 0.953 . S
H655 C675 0.945 . S
H656 C677 0.952 . S
H657 C678 0.949 . S
H658 C680 0.950 . S
H659 C681 0.948 . S
H660 C683 0.951 . S
H661 C648 0.947 . S
H662 C650 0.952 . S
H663 C651 0.950 . S
N664 C667 1.382 . S
N664 C669 1.363 . S
N665 C667 1.371 . S
N665 C668 1.372 . S
N666 C668 1.361 . S
N666 C669 1.377 . S
C667 N664 1.382 . S
C667 N665 1.371 . S
C667 C670 1.480 . S
C668 N665 1.372 . S
C668 N666 1.361 . S
C668 C676 1.457 . S
C669 N664 1.363 . S
C669 N666 1.377 . S
C669 C682 1.479 . S
C670 C667 1.480 . S
C670 C671 1.383 . S
C670 C675 1.385 . S
C671 H652 0.947 . S
C671 C670 1.383 . S
C671 C672 1.388 . S
C672 H653 0.946 . S
C672 C671 1.388 . S
C672 C673 1.384 . S
C673 C672 1.384 . S
C673 C674 1.377 . S
C674 H654 0.953 . S
C674 C673 1.377 . S
C674 C675 1.369 . S
C675 H655 0.945 . S
C675 C670 1.385 . S
C675 C674 1.369 . S
C676 C668 1.457 . S
C676 C677 1.372 . S
C676 C681 1.364 . S
C677 H656 0.952 . S
C677 C676 1.372 . S
C677 C678 1.389 . S
C678 H657 0.949 . S
C678 C677 1.389 . S
C678 C679 1.387 . S
C679 C678 1.387 . S
C679 C680 1.372 . S
C680 H658 0.950 . S
C680 C679 1.372 . S
C680 C681 1.379 . S
C681 H659 0.948 . S
C681 C676 1.364 . S
C681 C680 1.379 . S
C682 C651 1.383 . S
C682 C669 1.479 . S
C682 C683 1.398 . S
C683 C648 1.382 . S
C683 H660 0.951 . S
C683 C682 1.398 . S
C684 C685 1.384 . S
C684 H697 0.947 . S
C684 C719 1.382 . S
C685 C684 1.384 . S
C685 C686 1.378 . S
C686 C685 1.378 . S
C686 C687 1.378 . S
C686 H698 0.952 . S
C687 C686 1.378 . S
C687 H699 0.950 . S
C687 C718 1.383 . S
H688 C707 0.947 . S
H689 C708 0.946 . S
H690 C710 0.953 . S
H691 C711 0.945 . S
H692 C713 0.952 . S
H693 C714 0.949 . S
H694 C716 0.950 . S
H695 C717 0.948 . S
H696 C719 0.951 . S
H697 C684 0.947 . S
H698 C686 0.952 . S
H699 C687 0.950 . S
N700 C703 1.382 . S
N700 C705 1.363 . S
N701 C703 1.371 . S
N701 C704 1.372 . S
N702 C704 1.361 . S
N702 C705 1.377 . S
C703 N700 1.382 . S
C703 N701 1.371 . S
C703 C706 1.480 . S
C704 N701 1.372 . S
C704 N702 1.361 . S
C704 C712 1.457 . S
C705 N700 1.363 . S
C705 N702 1.377 . S
C705 C718 1.479 . S
C706 C703 1.480 . S
C706 C707 1.383 . S
C706 C711 1.385 . S
C707 H688 0.947 . S
C707 C706 1.383 . S
C707 C708 1.388 . S
C708 H689 0.946 . S
C708 C707 1.388 . S
C708 C709 1.384 . S
C709 C708 1.384 . S
C709 C710 1.377 . S
C710 H690 0.953 . S
C710 C709 1.377 . S
C710 C711 1.369 . S
C711 H691 0.945 . S
C711 C706 1.385 . S
C711 C710 1.369 . S
C712 C704 1.457 . S
C712 C713 1.372 . S
C712 C717 1.364 . S
C713 H692 0.952 . S
C713 C712 1.372 . S
C713 C714 1.389 . S
C714 H693 0.949 . S
C714 C713 1.389 . S
C714 C715 1.387 . S
C715 C714 1.387 . S
C715 C716 1.372 . S
C716 H694 0.950 . S
C716 C715 1.372 . S
C716 C717 1.379 . S
C717 H695 0.948 . S
C717 C712 1.364 . S
C717 C716 1.379 . S
C718 C687 1.383 . S
C718 C705 1.479 . S
C718 C719 1.398 . S
C719 C684 1.382 . S
C719 H696 0.951 . S
C719 C718 1.398 . S
C720 C721 1.384 . S
C720 H733 0.947 . S
C720 C755 1.382 . S
C721 C720 1.384 . S
C721 C722 1.378 . S
C722 C721 1.378 . S
C722 C723 1.378 . S
C722 H734 0.952 . S
C723 C722 1.378 . S
C723 H735 0.950 . S
C723 C754 1.383 . S
H724 C743 0.947 . S
H725 C744 0.946 . S
H726 C746 0.953 . S
H727 C747 0.945 . S
H728 C749 0.952 . S
H729 C750 0.949 . S
H730 C752 0.950 . S
H731 C753 0.948 . S
H732 C755 0.951 . S
H733 C720 0.947 . S
H734 C722 0.952 . S
H735 C723 0.950 . S
N736 C739 1.382 . S
N736 C741 1.363 . S
N737 C739 1.371 . S
N737 C740 1.372 . S
N738 C740 1.361 . S
N738 C741 1.377 . S
C739 N736 1.382 . S
C739 N737 1.371 . S
C739 C742 1.480 . S
C740 N737 1.372 . S
C740 N738 1.361 . S
C740 C748 1.457 . S
C741 N736 1.363 . S
C741 N738 1.377 . S
C741 C754 1.479 . S
C742 C739 1.480 . S
C742 C743 1.383 . S
C742 C747 1.385 . S
C743 H724 0.947 . S
C743 C742 1.383 . S
C743 C744 1.388 . S
C744 H725 0.946 . S
C744 C743 1.388 . S
C744 C745 1.384 . S
C745 C744 1.384 . S
C745 C746 1.377 . S
C746 H726 0.953 . S
C746 C745 1.377 . S
C746 C747 1.369 . S
C747 H727 0.945 . S
C747 C742 1.385 . S
C747 C746 1.369 . S
C748 C740 1.457 . S
C748 C749 1.372 . S
C748 C753 1.364 . S
C749 H728 0.952 . S
C749 C748 1.372 . S
C749 C750 1.389 . S
C750 H729 0.949 . S
C750 C749 1.389 . S
C750 C751 1.387 . S
C751 C750 1.387 . S
C751 C752 1.372 . S
C752 H730 0.950 . S
C752 C751 1.372 . S
C752 C753 1.379 . S
C753 H731 0.948 . S
C753 C748 1.364 . S
C753 C752 1.379 . S
C754 C723 1.383 . S
C754 C741 1.479 . S
C754 C755 1.398 . S
C755 C720 1.382 . S
C755 H732 0.951 . S
C755 C754 1.398 . S
C756 C757 1.384 . S
C756 H769 0.947 . S
C756 C791 1.382 . S
C757 C756 1.384 . S
C757 C758 1.378 . S
C758 C757 1.378 . S
C758 C759 1.378 . S
C758 H770 0.952 . S
C759 C758 1.378 . S
C759 H771 0.950 . S
C759 C790 1.383 . S
H760 C779 0.947 . S
H761 C780 0.946 . S
H762 C782 0.953 . S
H763 C783 0.945 . S
H764 C785 0.952 . S
H765 C786 0.949 . S
H766 C788 0.950 . S
H767 C789 0.948 . S
H768 C791 0.951 . S
H769 C756 0.947 . S
H770 C758 0.952 . S
H771 C759 0.950 . S
N772 C775 1.382 . S
N772 C777 1.363 . S
N773 C775 1.371 . S
N773 C776 1.372 . S
N774 C776 1.361 . S
N774 C777 1.377 . S
C775 N772 1.382 . S
C775 N773 1.371 . S
C775 C778 1.480 . S
C776 N773 1.372 . S
C776 N774 1.361 . S
C776 C784 1.457 . S
C777 N772 1.363 . S
C777 N774 1.377 . S
C777 C790 1.479 . S
C778 C775 1.480 . S
C778 C779 1.383 . S
C778 C783 1.385 . S
C779 H760 0.947 . S
C779 C778 1.383 . S
C779 C780 1.388 . S
C780 H761 0.946 . S
C780 C779 1.388 . S
C780 C781 1.384 . S
C781 C780 1.384 . S
C781 C782 1.377 . S
C782 H762 0.953 . S
C782 C781 1.377 . S
C782 C783 1.369 . S
C783 H763 0.945 . S
C783 C778 1.385 . S
C783 C782 1.369 . S
C784 C776 1.457 . S
C784 C785 1.372 . S
C784 C789 1.364 . S
C785 H764 0.952 . S
C785 C784 1.372 . S
C785 C786 1.389 . S
C786 H765 0.949 . S
C786 C785 1.389 . S
C786 C787 1.387 . S
C787 C786 1.387 . S
C787 C788 1.372 . S
C788 H766 0.950 . S
C788 C787 1.372 . S
C788 C789 1.379 . S
C789 H767 0.948 . S
C789 C784 1.364 . S
C789 C788 1.379 . S
C790 C759 1.383 . S
C790 C777 1.479 . S
C790 C791 1.398 . S
C791 C756 1.382 . S
C791 H768 0.951 . S
C791 C790 1.398 . S
C792 C793 1.384 . S
C792 H805 0.947 . S
C792 C827 1.382 . S
C793 C792 1.384 . S
C793 C794 1.378 . S
C794 C793 1.378 . S
C794 C795 1.378 . S
C794 H806 0.952 . S
C795 C794 1.378 . S
C795 H807 0.950 . S
C795 C826 1.383 . S
H796 C815 0.947 . S
H797 C816 0.946 . S
H798 C818 0.953 . S
H799 C819 0.945 . S
H800 C821 0.952 . S
H801 C822 0.949 . S
H802 C824 0.950 . S
H803 C825 0.948 . S
H804 C827 0.951 . S
H805 C792 0.947 . S
H806 C794 0.952 . S
H807 C795 0.950 . S
N808 C811 1.382 . S
N808 C813 1.363 . S
N809 C811 1.371 . S
N809 C812 1.372 . S
N810 C812 1.361 . S
N810 C813 1.377 . S
C811 N808 1.382 . S
C811 N809 1.371 . S
C811 C814 1.480 . S
C812 N809 1.372 . S
C812 N810 1.361 . S
C812 C820 1.457 . S
C813 N808 1.363 . S
C813 N810 1.377 . S
C813 C826 1.479 . S
C814 C811 1.480 . S
C814 C815 1.383 . S
C814 C819 1.385 . S
C815 H796 0.947 . S
C815 C814 1.383 . S
C815 C816 1.388 . S
C816 H797 0.946 . S
C816 C815 1.388 . S
C816 C817 1.384 . S
C817 C816 1.384 . S
C817 C818 1.377 . S
C818 H798 0.953 . S
C818 C817 1.377 . S
C818 C819 1.369 . S
C819 H799 0.945 . S
C819 C814 1.385 . S
C819 C818 1.369 . S
C820 C812 1.457 . S
C820 C821 1.372 . S
C820 C825 1.364 . S
C821 H800 0.952 . S
C821 C820 1.372 . S
C821 C822 1.389 . S
C822 H801 0.949 . S
C822 C821 1.389 . S
C822 C823 1.387 . S
C823 C822 1.387 . S
C823 C824 1.372 . S
C824 H802 0.950 . S
C824 C823 1.372 . S
C824 C825 1.379 . S
C825 H803 0.948 . S
C825 C820 1.364 . S
C825 C824 1.379 . S
C826 C795 1.383 . S
C826 C813 1.479 . S
C826 C827 1.398 . S
C827 C792 1.382 . S
C827 H804 0.951 . S
C827 C826 1.398 . S
C828 C829 1.384 . S
C828 H841 0.947 . S
C828 C863 1.382 . S
C829 C828 1.384 . S
C829 C830 1.378 . S
C830 C829 1.378 . S
C830 C831 1.378 . S
C830 H842 0.952 . S
C831 C830 1.378 . S
C831 H843 0.950 . S
C831 C862 1.383 . S
H832 C851 0.947 . S
H833 C852 0.946 . S
H834 C854 0.953 . S
H835 C855 0.945 . S
H836 C857 0.952 . S
H837 C858 0.949 . S
H838 C860 0.950 . S
H839 C861 0.948 . S
H840 C863 0.951 . S
H841 C828 0.947 . S
H842 C830 0.952 . S
H843 C831 0.950 . S
N844 C847 1.382 . S
N844 C849 1.363 . S
N845 C847 1.371 . S
N845 C848 1.372 . S
N846 C848 1.361 . S
N846 C849 1.377 . S
C847 N844 1.382 . S
C847 N845 1.371 . S
C847 C850 1.480 . S
C848 N845 1.372 . S
C848 N846 1.361 . S
C848 C856 1.457 . S
C849 N844 1.363 . S
C849 N846 1.377 . S
C849 C862 1.479 . S
C850 C847 1.480 . S
C850 C851 1.383 . S
C850 C855 1.385 . S
C851 H832 0.947 . S
C851 C850 1.383 . S
C851 C852 1.388 . S
C852 H833 0.946 . S
C852 C851 1.388 . S
C852 C853 1.384 . S
C853 C852 1.384 . S
C853 C854 1.377 . S
C854 H834 0.953 . S
C854 C853 1.377 . S
C854 C855 1.369 . S
C855 H835 0.945 . S
C855 C850 1.385 . S
C855 C854 1.369 . S
C856 C848 1.457 . S
C856 C857 1.372 . S
C856 C861 1.364 . S
C857 H836 0.952 . S
C857 C856 1.372 . S
C857 C858 1.389 . S
C858 H837 0.949 . S
C858 C857 1.389 . S
C858 C859 1.387 . S
C859 C858 1.387 . S
C859 C860 1.372 . S
C860 H838 0.950 . S
C860 C859 1.372 . S
C860 C861 1.379 . S
C861 H839 0.948 . S
C861 C856 1.364 . S
C861 C860 1.379 . S
C862 C831 1.383 . S
C862 C849 1.479 . S
C862 C863 1.398 . S
C863 C828 1.382 . S
C863 H840 0.951 . S
C863 C862 1.398 . S
C864 C865 1.384 . S
C864 H877 0.947 . S
C864 C899 1.382 . S
C865 C864 1.384 . S
C865 C866 1.378 . S
C866 C865 1.378 . S
C866 C867 1.378 . S
C866 H878 0.952 . S
C867 C866 1.378 . S
C867 H879 0.950 . S
C867 C898 1.383 . S
H868 C887 0.947 . S
H869 C888 0.946 . S
H870 C890 0.953 . S
H871 C891 0.945 . S
H872 C893 0.952 . S
H873 C894 0.949 . S
H874 C896 0.950 . S
H875 C897 0.948 . S
H876 C899 0.951 . S
H877 C864 0.947 . S
H878 C866 0.952 . S
H879 C867 0.950 . S
N880 C883 1.382 . S
N880 C885 1.363 . S
N881 C883 1.371 . S
N881 C884 1.372 . S
N882 C884 1.361 . S
N882 C885 1.377 . S
C883 N880 1.382 . S
C883 N881 1.371 . S
C883 C886 1.480 . S
C884 N881 1.372 . S
C884 N882 1.361 . S
C884 C892 1.457 . S
C885 N880 1.363 . S
C885 N882 1.377 . S
C885 C898 1.479 . S
C886 C883 1.480 . S
C886 C887 1.383 . S
C886 C891 1.385 . S
C887 H868 0.947 . S
C887 C886 1.383 . S
C887 C888 1.388 . S
C888 H869 0.946 . S
C888 C887 1.388 . S
C888 C889 1.384 . S
C889 C888 1.384 . S
C889 C890 1.377 . S
C890 H870 0.953 . S
C890 C889 1.377 . S
C890 C891 1.369 . S
C891 H871 0.945 . S
C891 C886 1.385 . S
C891 C890 1.369 . S
C892 C884 1.457 . S
C892 C893 1.372 . S
C892 C897 1.364 . S
C893 H872 0.952 . S
C893 C892 1.372 . S
C893 C894 1.389 . S
C894 H873 0.949 . S
C894 C893 1.389 . S
C894 C895 1.387 . S
C895 C894 1.387 . S
C895 C896 1.372 . S
C896 H874 0.950 . S
C896 C895 1.372 . S
C896 C897 1.379 . S
C897 H875 0.948 . S
C897 C892 1.364 . S
C897 C896 1.379 . S
C898 C867 1.383 . S
C898 C885 1.479 . S
C898 C899 1.398 . S
C899 C864 1.382 . S
C899 H876 0.951 . S
C899 C898 1.398 . S
C900 C901 1.384 . S
C900 H913 0.947 . S
C900 C935 1.382 . S
C901 C900 1.384 . S
C901 C902 1.378 . S
C902 C901 1.378 . S
C902 C903 1.378 . S
C902 H914 0.952 . S
C903 C902 1.378 . S
C903 H915 0.950 . S
C903 C934 1.383 . S
H904 C923 0.947 . S
H905 C924 0.946 . S
H906 C926 0.953 . S
H907 C927 0.945 . S
H908 C929 0.952 . S
H909 C930 0.949 . S
H910 C932 0.950 . S
H911 C933 0.948 . S
H912 C935 0.951 . S
H913 C900 0.947 . S
H914 C902 0.952 . S
H915 C903 0.950 . S
N916 C919 1.382 . S
N916 C921 1.363 . S
N917 C919 1.371 . S
N917 C920 1.372 . S
N918 C920 1.361 . S
N918 C921 1.377 . S
C919 N916 1.382 . S
C919 N917 1.371 . S
C919 C922 1.480 . S
C920 N917 1.372 . S
C920 N918 1.361 . S
C920 C928 1.457 . S
C921 N916 1.363 . S
C921 N918 1.377 . S
C921 C934 1.479 . S
C922 C919 1.480 . S
C922 C923 1.383 . S
C922 C927 1.385 . S
C923 H904 0.947 . S
C923 C922 1.383 . S
C923 C924 1.388 . S
C924 H905 0.946 . S
C924 C923 1.388 . S
C924 C925 1.384 . S
C925 C924 1.384 . S
C925 C926 1.377 . S
C926 H906 0.953 . S
C926 C925 1.377 . S
C926 C927 1.369 . S
C927 H907 0.945 . S
C927 C922 1.385 . S
C927 C926 1.369 . S
C928 C920 1.457 . S
C928 C929 1.372 . S
C928 C933 1.364 . S
C929 H908 0.952 . S
C929 C928 1.372 . S
C929 C930 1.389 . S
C930 H909 0.949 . S
C930 C929 1.389 . S
C930 C931 1.387 . S
C931 C930 1.387 . S
C931 C932 1.372 . S
C932 H910 0.950 . S
C932 C931 1.372 . S
C932 C933 1.379 . S
C933 H911 0.948 . S
C933 C928 1.364 . S
C933 C932 1.379 . S
C934 C903 1.383 . S
C934 C921 1.479 . S
C934 C935 1.398 . S
C935 C900 1.382 . S
C935 H912 0.951 . S
C935 C934 1.398 . S
C936 C937 1.384 . S
C936 H949 0.947 . S
C936 C971 1.382 . S
C937 C936 1.384 . S
C937 C938 1.378 . S
C938 C937 1.378 . S
C938 C939 1.378 . S
C938 H950 0.952 . S
C939 C938 1.378 . S
C939 H951 0.950 . S
C939 C970 1.383 . S
H940 C959 0.947 . S
H941 C960 0.946 . S
H942 C962 0.953 . S
H943 C963 0.945 . S
H944 C965 0.952 . S
H945 C966 0.949 . S
H946 C968 0.950 . S
H947 C969 0.948 . S
H948 C971 0.951 . S
H949 C936 0.947 . S
H950 C938 0.952 . S
H951 C939 0.950 . S
N952 C955 1.382 . S
N952 C957 1.363 . S
N953 C955 1.371 . S
N953 C956 1.372 . S
N954 C956 1.361 . S
N954 C957 1.377 . S
C955 N952 1.382 . S
C955 N953 1.371 . S
C955 C958 1.480 . S
C956 N953 1.372 . S
C956 N954 1.361 . S
C956 C964 1.457 . S
C957 N952 1.363 . S
C957 N954 1.377 . S
C957 C970 1.479 . S
C958 C955 1.480 . S
C958 C959 1.383 . S
C958 C963 1.385 . S
C959 H940 0.947 . S
C959 C958 1.383 . S
C959 C960 1.388 . S
C960 H941 0.946 . S
C960 C959 1.388 . S
C960 C961 1.384 . S
C961 C960 1.384 . S
C961 C962 1.377 . S
C962 H942 0.953 . S
C962 C961 1.377 . S
C962 C963 1.369 . S
C963 H943 0.945 . S
C963 C958 1.385 . S
C963 C962 1.369 . S
C964 C956 1.457 . S
C964 C965 1.372 . S
C964 C969 1.364 . S
C965 H944 0.952 . S
C965 C964 1.372 . S
C965 C966 1.389 . S
C966 H945 0.949 . S
C966 C965 1.389 . S
C966 C967 1.387 . S
C967 C966 1.387 . S
C967 C968 1.372 . S
C968 H946 0.950 . S
C968 C967 1.372 . S
C968 C969 1.379 . S
C969 H947 0.948 . S
C969 C964 1.364 . S
C969 C968 1.379 . S
C970 C939 1.383 . S
C970 C957 1.479 . S
C970 C971 1.398 . S
C971 C936 1.382 . S
C971 H948 0.951 . S
C971 C970 1.398 . S
C972 C973 1.384 . S
C972 H985 0.947 . S
C972 C1007 1.382 . S
C973 C972 1.384 . S
C973 C974 1.378 . S
C974 C973 1.378 . S
C974 C975 1.378 . S
C974 H986 0.952 . S
C975 C974 1.378 . S
C975 H987 0.950 . S
C975 C1006 1.383 . S
H976 C995 0.947 . S
H977 C996 0.946 . S
H978 C998 0.953 . S
H979 C999 0.945 . S
H980 C1001 0.952 . S
H981 C1002 0.949 . S
H982 C1004 0.950 . S
H983 C1005 0.948 . S
H984 C1007 0.951 . S
H985 C972 0.947 . S
H986 C974 0.952 . S
H987 C975 0.950 . S
N988 C991 1.382 . S
N988 C993 1.363 . S
N989 C991 1.371 . S
N989 C992 1.372 . S
N990 C992 1.361 . S
N990 C993 1.377 . S
C991 N988 1.382 . S
C991 N989 1.371 . S
C991 C994 1.480 . S
C992 N989 1.372 . S
C992 N990 1.361 . S
C992 C1000 1.457 . S
C993 N988 1.363 . S
C993 N990 1.377 . S
C993 C1006 1.479 . S
C994 C991 1.480 . S
C994 C995 1.383 . S
C994 C999 1.385 . S
C995 H976 0.947 . S
C995 C994 1.383 . S
C995 C996 1.388 . S
C996 H977 0.946 . S
C996 C995 1.388 . S
C996 C997 1.384 . S
C997 C996 1.384 . S
C997 C998 1.377 . S
C998 H978 0.953 . S
C998 C997 1.377 . S
C998 C999 1.369 . S
C999 H979 0.945 . S
C999 C994 1.385 . S
C999 C998 1.369 . S
C1000 C992 1.457 . S
C1000 C1001 1.372 . S
C1000 C1005 1.364 . S
C1001 H980 0.952 . S
C1001 C1000 1.372 . S
C1001 C1002 1.389 . S
C1002 H981 0.949 . S
C1002 C1001 1.389 . S
C1002 C1003 1.387 . S
C1003 C1002 1.387 . S
C1003 C1004 1.372 . S
C1004 H982 0.950 . S
C1004 C1003 1.372 . S
C1004 C1005 1.379 . S
C1005 H983 0.948 . S
C1005 C1000 1.364 . S
C1005 C1004 1.379 . S
C1006 C975 1.383 . S
C1006 C993 1.479 . S
C1006 C1007 1.398 . S
C1007 C972 1.382 . S
C1007 H984 0.951 . S
C1007 C1006 1.398 . S
C1008 C1009 1.384 . S
C1008 H1021 0.947 . S
C1008 C1043 1.382 . S
C1009 C1008 1.384 . S
C1009 C1010 1.378 . S
C1010 C1009 1.378 . S
C1010 C1011 1.378 . S
C1010 H1022 0.952 . S
C1011 C1010 1.378 . S
C1011 H1023 0.950 . S
C1011 C1042 1.383 . S
H1012 C1031 0.947 . S
H1013 C1032 0.946 . S
H1014 C1034 0.953 . S
H1015 C1035 0.945 . S
H1016 C1037 0.952 . S
H1017 C1038 0.949 . S
H1018 C1040 0.950 . S
H1019 C1041 0.948 . S
H1020 C1043 0.951 . S
H1021 C1008 0.947 . S
H1022 C1010 0.952 . S
H1023 C1011 0.950 . S
N1024 C1027 1.382 . S
N1024 C1029 1.363 . S
N1025 C1027 1.371 . S
N1025 C1028 1.372 . S
N1026 C1028 1.361 . S
N1026 C1029 1.377 . S
C1027 N1024 1.382 . S
C1027 N1025 1.371 . S
C1027 C1030 1.480 . S
C1028 N1025 1.372 . S
C1028 N1026 1.361 . S
C1028 C1036 1.457 . S
C1029 N1024 1.363 . S
C1029 N1026 1.377 . S
C1029 C1042 1.479 . S
C1030 C1027 1.480 . S
C1030 C1031 1.383 . S
C1030 C1035 1.385 . S
C1031 H1012 0.947 . S
C1031 C1030 1.383 . S
C1031 C1032 1.388 . S
C1032 H1013 0.946 . S
C1032 C1031 1.388 . S
C1032 C1033 1.384 . S
C1033 C1032 1.384 . S
C1033 C1034 1.377 . S
C1034 H1014 0.953 . S
C1034 C1033 1.377 . S
C1034 C1035 1.369 . S
C1035 H1015 0.945 . S
C1035 C1030 1.385 . S
C1035 C1034 1.369 . S
C1036 C1028 1.457 . S
C1036 C1037 1.372 . S
C1036 C1041 1.364 . S
C1037 H1016 0.952 . S
C1037 C1036 1.372 . S
C1037 C1038 1.389 . S
C1038 H1017 0.949 . S
C1038 C1037 1.389 . S
C1038 C1039 1.387 . S
C1039 C1038 1.387 . S
C1039 C1040 1.372 . S
C1040 H1018 0.950 . S
C1040 C1039 1.372 . S
C1040 C1041 1.379 . S
C1041 H1019 0.948 . S
C1041 C1036 1.364 . S
C1041 C1040 1.379 . S
C1042 C1011 1.383 . S
C1042 C1029 1.479 . S
C1042 C1043 1.398 . S
C1043 C1008 1.382 . S
C1043 H1020 0.951 . S
C1043 C1042 1.398 . S
C1044 C1045 1.384 . S
C1044 H1057 0.947 . S
C1044 C1079 1.382 . S
C1045 C1044 1.384 . S
C1045 C1046 1.378 . S
C1046 C1045 1.378 . S
C1046 C1047 1.378 . S
C1046 H1058 0.952 . S
C1047 C1046 1.378 . S
C1047 H1059 0.950 . S
C1047 C1078 1.383 . S
H1048 C1067 0.947 . S
H1049 C1068 0.946 . S
H1050 C1070 0.953 . S
H1051 C1071 0.945 . S
H1052 C1073 0.952 . S
H1053 C1074 0.949 . S
H1054 C1076 0.950 . S
H1055 C1077 0.948 . S
H1056 C1079 0.951 . S
H1057 C1044 0.947 . S
H1058 C1046 0.952 . S
H1059 C1047 0.950 . S
N1060 C1063 1.382 . S
N1060 C1065 1.363 . S
N1061 C1063 1.371 . S
N1061 C1064 1.372 . S
N1062 C1064 1.361 . S
N1062 C1065 1.377 . S
C1063 N1060 1.382 . S
C1063 N1061 1.371 . S
C1063 C1066 1.480 . S
C1064 N1061 1.372 . S
C1064 N1062 1.361 . S
C1064 C1072 1.457 . S
C1065 N1060 1.363 . S
C1065 N1062 1.377 . S
C1065 C1078 1.479 . S
C1066 C1063 1.480 . S
C1066 C1067 1.383 . S
C1066 C1071 1.385 . S
C1067 H1048 0.947 . S
C1067 C1066 1.383 . S
C1067 C1068 1.388 . S
C1068 H1049 0.946 . S
C1068 C1067 1.388 . S
C1068 C1069 1.384 . S
C1069 C1068 1.384 . S
C1069 C1070 1.377 . S
C1070 H1050 0.953 . S
C1070 C1069 1.377 . S
C1070 C1071 1.369 . S
C1071 H1051 0.945 . S
C1071 C1066 1.385 . S
C1071 C1070 1.369 . S
C1072 C1064 1.457 . S
C1072 C1073 1.372 . S
C1072 C1077 1.364 . S
C1073 H1052 0.952 . S
C1073 C1072 1.372 . S
C1073 C1074 1.389 . S
C1074 H1053 0.949 . S
C1074 C1073 1.389 . S
C1074 C1075 1.387 . S
C1075 C1074 1.387 . S
C1075 C1076 1.372 . S
C1076 H1054 0.950 . S
C1076 C1075 1.372 . S
C1076 C1077 1.379 . S
C1077 H1055 0.948 . S
C1077 C1072 1.364 . S
C1077 C1076 1.379 . S
C1078 C1047 1.383 . S
C1078 C1065 1.479 . S
C1078 C1079 1.398 . S
C1079 C1044 1.382 . S
C1079 H1056 0.951 . S
C1079 C1078 1.398 . S
C1080 C1081 1.384 . S
C1080 H1093 0.947 . S
C1080 C1115 1.382 . S
C1081 C1080 1.384 . S
C1081 C1082 1.378 . S
C1082 C1081 1.378 . S
C1082 C1083 1.378 . S
C1082 H1094 0.952 . S
C1083 C1082 1.378 . S
C1083 H1095 0.950 . S
C1083 C1114 1.383 . S
H1084 C1103 0.947 . S
H1085 C1104 0.946 . S
H1086 C1106 0.953 . S
H1087 C1107 0.945 . S
H1088 C1109 0.952 . S
H1089 C1110 0.949 . S
H1090 C1112 0.950 . S
H1091 C1113 0.948 . S
H1092 C1115 0.951 . S
H1093 C1080 0.947 . S
H1094 C1082 0.952 . S
H1095 C1083 0.950 . S
N1096 C1099 1.382 . S
N1096 C1101 1.363 . S
N1097 C1099 1.371 . S
N1097 C1100 1.372 . S
N1098 C1100 1.361 . S
N1098 C1101 1.377 . S
C1099 N1096 1.382 . S
C1099 N1097 1.371 . S
C1099 C1102 1.480 . S
C1100 N1097 1.372 . S
C1100 N1098 1.361 . S
C1100 C1108 1.457 . S
C1101 N1096 1.363 . S
C1101 N1098 1.377 . S
C1101 C1114 1.479 . S
C1102 C1099 1.480 . S
C1102 C1103 1.383 . S
C1102 C1107 1.385 . S
C1103 H1084 0.947 . S
C1103 C1102 1.383 . S
C1103 C1104 1.388 . S
C1104 H1085 0.946 . S
C1104 C1103 1.388 . S
C1104 C1105 1.384 . S
C1105 C1104 1.384 . S
C1105 C1106 1.377 . S
C1106 H1086 0.953 . S
C1106 C1105 1.377 . S
C1106 C1107 1.369 . S
C1107 H1087 0.945 . S
C1107 C1102 1.385 . S
C1107 C1106 1.369 . S
C1108 C1100 1.457 . S
C1108 C1109 1.372 . S
C1108 C1113 1.364 . S
C1109 H1088 0.952 . S
C1109 C1108 1.372 . S
C1109 C1110 1.389 . S
C1110 H1089 0.949 . S
C1110 C1109 1.389 . S
C1110 C1111 1.387 . S
C1111 C1110 1.387 . S
C1111 C1112 1.372 . S
C1112 H1090 0.950 . S
C1112 C1111 1.372 . S
C1112 C1113 1.379 . S
C1113 H1091 0.948 . S
C1113 C1108 1.364 . S
C1113 C1112 1.379 . S
C1114 C1083 1.383 . S
C1114 C1101 1.479 . S
C1114 C1115 1.398 . S
C1115 C1080 1.382 . S
C1115 H1092 0.951 . S
C1115 C1114 1.398 . S
C1116 C1117 1.384 . S
C1116 H1129 0.947 . S
C1116 C1151 1.382 . S
C1117 C1116 1.384 . S
C1117 C1118 1.378 . S
C1118 C1117 1.378 . S
C1118 C1119 1.378 . S
C1118 H1130 0.952 . S
C1119 C1118 1.378 . S
C1119 H1131 0.950 . S
C1119 C1150 1.383 . S
H1120 C1139 0.947 . S
H1121 C1140 0.946 . S
H1122 C1142 0.953 . S
H1123 C1143 0.945 . S
H1124 C1145 0.952 . S
H1125 C1146 0.949 . S
H1126 C1148 0.950 . S
H1127 C1149 0.948 . S
H1128 C1151 0.951 . S
H1129 C1116 0.947 . S
H1130 C1118 0.952 . S
H1131 C1119 0.950 . S
N1132 C1135 1.382 . S
N1132 C1137 1.363 . S
N1133 C1135 1.371 . S
N1133 C1136 1.372 . S
N1134 C1136 1.361 . S
N1134 C1137 1.377 . S
C1135 N1132 1.382 . S
C1135 N1133 1.371 . S
C1135 C1138 1.480 . S
C1136 N1133 1.372 . S
C1136 N1134 1.361 . S
C1136 C1144 1.457 . S
C1137 N1132 1.363 . S
C1137 N1134 1.377 . S
C1137 C1150 1.479 . S
C1138 C1135 1.480 . S
C1138 C1139 1.383 . S
C1138 C1143 1.385 . S
C1139 H1120 0.947 . S
C1139 C1138 1.383 . S
C1139 C1140 1.388 . S
C1140 H1121 0.946 . S
C1140 C1139 1.388 . S
C1140 C1141 1.384 . S
C1141 C1140 1.384 . S
C1141 C1142 1.377 . S
C1142 H1122 0.953 . S
C1142 C1141 1.377 . S
C1142 C1143 1.369 . S
C1143 H1123 0.945 . S
C1143 C1138 1.385 . S
C1143 C1142 1.369 . S
C1144 C1136 1.457 . S
C1144 C1145 1.372 . S
C1144 C1149 1.364 . S
C1145 H1124 0.952 . S
C1145 C1144 1.372 . S
C1145 C1146 1.389 . S
C1146 H1125 0.949 . S
C1146 C1145 1.389 . S
C1146 C1147 1.387 . S
C1147 C1146 1.387 . S
C1147 C1148 1.372 . S
C1148 H1126 0.950 . S
C1148 C1147 1.372 . S
C1148 C1149 1.379 . S
C1149 H1127 0.948 . S
C1149 C1144 1.364 . S
C1149 C1148 1.379 . S
C1150 C1119 1.383 . S
C1150 C1137 1.479 . S
C1150 C1151 1.398 . S
C1151 C1116 1.382 . S
C1151 H1128 0.951 . S
C1151 C1150 1.398 . S
Cu1152 N1153 1.999 . S
Cu1152 O1158 1.974 1_554 S
Cu1152 N1163 1.985 . S
Cu1152 O1172 1.959 . S
N1153 Cu1152 1.999 . S
N1153 C1155 1.263 1_554 S
N1153 C1157 1.389 . S
N1154 C1155 1.358 . S
N1154 C1156 1.400 . S
C1155 N1153 1.263 1_556 S
C1155 N1154 1.358 . S
C1155 H1161 0.930 . S
C1156 N1154 1.400 . S
C1156 C1157 1.351 1_556 S
C1156 H1173 0.930 . S
C1157 N1153 1.389 . S
C1157 C1156 1.351 1_554 S
C1157 H1162 0.930 . S
O1158 Cu1152 1.974 1_556 S
O1158 C1168 1.282 . S
C1159 O1160 1.261 . S
C1159 O1172 1.251 . S
O1160 C1159 1.261 . S
H1161 C1155 0.930 . S
H1162 C1157 0.930 . S
N1163 Cu1152 1.985 . S
N1163 C1165 1.335 . S
N1163 C1166 1.390 . S
N1164 C1165 1.345 . S
N1164 C1167 1.336 . S
C1165 N1163 1.335 . S
C1165 N1164 1.345 . S
C1165 H1170 0.930 . S
C1166 N1163 1.390 . S
C1166 C1167 1.346 . S
C1166 H1171 0.930 . S
C1167 N1164 1.336 . S
C1167 C1166 1.346 . S
C1167 H1174 0.929 . S
C1168 O1158 1.282 . S
C1168 O1169 1.216 . S
O1169 C1168 1.216 . S
H1170 C1165 0.930 . S
H1171 C1166 0.930 . S
O1172 Cu1152 1.959 . S
O1172 C1159 1.251 . S
H1173 C1156 0.930 . S
H1174 C1167 0.929 . S
Cu1175 N1176 1.999 . S
Cu1175 O1181 1.974 . S
Cu1175 N1186 1.985 1_554 S
Cu1175 O1195 1.959 1_554 S
N1176 Cu1175 1.999 . S
N1176 C1178 1.263 . S
N1176 C1180 1.389 . S
N1177 C1178 1.358 . S
N1177 C1179 1.400 . S
C1178 N1176 1.263 . S
C1178 N1177 1.358 . S
C1178 H1184 0.930 . S
C1179 N1177 1.400 . S
C1179 C1180 1.351 . S
C1179 H1196 0.930 . S
C1180 N1176 1.389 . S
C1180 C1179 1.351 . S
C1180 H1185 0.930 . S
O1181 Cu1175 1.974 . S
O1181 C1191 1.282 . S
C1182 O1183 1.261 . S
C1182 O1195 1.251 . S
O1183 C1182 1.261 . S
H1184 C1178 0.930 . S
H1185 C1180 0.930 . S
N1186 Cu1175 1.985 1_556 S
N1186 C1188 1.335 . S
N1186 C1189 1.390 . S
N1187 C1188 1.345 . S
N1187 C1190 1.336 . S
C1188 N1186 1.335 . S
C1188 N1187 1.345 . S
C1188 H1193 0.930 . S
C1189 N1186 1.390 . S
C1189 C1190 1.346 . S
C1189 H1194 0.930 1_556 S
C1190 N1187 1.336 . S
C1190 C1189 1.346 . S
C1190 H1197 0.929 . S
C1191 O1181 1.282 . S
C1191 O1192 1.216 . S
O1192 C1191 1.216 . S
H1193 C1188 0.930 . S
H1194 C1189 0.930 1_554 S
O1195 Cu1175 1.959 1_556 S
O1195 C1182 1.251 . S
H1196 C1179 0.930 . S
H1197 C1190 0.929 . S
Cu1198 N1199 1.962 1_554 S
Cu1198 O1204 1.929 1_554 S
Cu1198 N1209 2.021 . S
Cu1198 O1218 2.004 . S
N1199 Cu1198 1.962 1_556 S
N1199 C1201 1.263 . S
N1199 C1203 1.389 . S
N1200 C1201 1.358 . S
N1200 C1202 1.400 . S
C1201 N1199 1.263 . S
C1201 N1200 1.358 . S
C1201 H1207 0.930 . S
C1202 N1200 1.400 . S
C1202 C1203 1.351 . S
C1202 H1219 0.930 . S
C1203 N1199 1.389 . S
C1203 C1202 1.351 . S
C1203 H1208 0.930 . S
O1204 Cu1198 1.929 1_556 S
O1204 C1214 1.282 . S
C1205 O1206 1.261 . S
C1205 O1218 1.251 . S
O1206 C1205 1.261 . S
H1207 C1201 0.930 . S
H1208 C1203 0.930 . S
N1209 Cu1198 2.021 . S
N1209 C1211 1.335 . S
N1209 C1212 1.390 . S
N1210 C1211 1.345 . S
N1210 C1213 1.336 . S
C1211 N1209 1.335 . S
C1211 N1210 1.345 . S
C1211 H1216 0.930 . S
C1212 N1209 1.390 . S
C1212 C1213 1.346 . S
C1212 H1217 0.988 . S
C1213 N1210 1.336 . S
C1213 C1212 1.346 . S
C1213 H1220 0.929 . S
C1214 O1204 1.282 . S
C1214 O1215 1.216 . S
O1215 C1214 1.216 . S
H1216 C1211 0.930 . S
H1217 C1212 0.988 . S
O1218 Cu1198 2.004 . S
O1218 C1205 1.251 . S
H1219 C1202 0.930 . S
H1220 C1213 0.929 . S
Cu1221 N1222 2.009 . S
Cu1221 O1227 1.985 . S
Cu1221 N1232 1.976 1_554 S
Cu1221 O1241 1.948 1_554 S
N1222 Cu1221 2.009 . S
N1222 C1224 1.263 . S
N1222 C1226 1.389 . S
N1223 C1224 1.358 . S
N1223 C1225 1.400 . S
C1224 N1222 1.263 . S
C1224 N1223 1.358 . S
C1224 H1230 0.930 . S
C1225 N1223 1.400 . S
C1225 C1226 1.351 . S
C1225 H1242 0.930 . S
C1226 N1222 1.389 . S
C1226 C1225 1.351 . S
C1226 H1231 0.930 . S
O1227 Cu1221 1.985 . S
O1227 C1237 1.282 . S
C1228 O1229 1.261 . S
C1228 O1241 1.251 . S
O1229 C1228 1.261 . S
H1230 C1224 0.930 . S
H1231 C1226 0.930 . S
N1232 Cu1221 1.976 1_556 S
N1232 C1234 1.335 . S
N1232 C1235 1.390 . S
N1233 C1234 1.345 . S
N1233 C1236 1.336 . S
C1234 N1232 1.335 . S
C1234 N1233 1.345 . S
C1234 H1239 0.930 . S
C1235 N1232 1.390 . S
C1235 C1236 1.346 . S
C1235 H1240 0.926 1_556 S
C1236 N1233 1.336 . S
C1236 C1235 1.346 . S
C1236 H1243 0.929 . S
C1237 O1227 1.282 . S
C1237 O1238 1.216 . S
O1238 C1237 1.216 . S
H1239 C1234 0.930 . S
H1240 C1235 0.926 1_554 S
O1241 Cu1221 1.948 1_556 S
O1241 C1228 1.251 . S
H1242 C1225 0.930 . S
H1243 C1236 0.929 . S
Cu1244 N1245 1.999 . S
Cu1244 O1250 1.974 . S
Cu1244 N1255 1.985 1_455 S
Cu1244 O1264 1.959 1_455 S
N1245 Cu1244 1.999 . S
N1245 C1247 1.263 . S
N1245 C1249 1.389 . S
N1246 C1247 1.358 . S
N1246 C1248 1.400 . S
C1247 N1245 1.263 . S
C1247 N1246 1.358 . S
C1247 H1253 0.930 . S
C1248 N1246 1.400 . S
C1248 C1249 1.351 . S
C1248 H1265 0.930 . S
C1249 N1245 1.389 . S
C1249 C1248 1.351 . S
C1249 H1254 0.930 . S
O1250 Cu1244 1.974 . S
O1250 C1260 1.282 . S
C1251 O1252 1.261 . S
C1251 O1264 1.251 . S
O1252 C1251 1.261 . S
H1253 C1247 0.930 . S
H1254 C1249 0.930 . S
N1255 Cu1244 1.985 1_655 S
N1255 C1257 1.335 . S
N1255 C1258 1.381 1_655 S
N1256 C1257 1.345 . S
N1256 C1259 1.336 . S
C1257 N1255 1.335 . S
C1257 N1256 1.345 . S
C1257 H1262 0.930 . S
C1258 N1255 1.381 1_455 S
C1258 C1259 1.302 1_455 S
C1258 H1263 0.977 . S
C1259 N1256 1.336 . S
C1259 C1258 1.302 1_655 S
C1259 H1266 0.929 . S
C1260 O1250 1.282 . S
C1260 O1261 1.216 . S
O1261 C1260 1.216 . S
H1262 C1257 0.930 . S
H1263 C1258 0.977 . S
O1264 Cu1244 1.959 1_655 S
O1264 C1251 1.251 . S
H1265 C1248 0.930 . S
H1266 C1259 0.929 . S
Cu1267 N1268 1.999 . S
Cu1267 O1273 1.974 . S
Cu1267 N1278 1.985 1_545 S
Cu1267 O1287 1.959 1_545 S
N1268 Cu1267 1.999 . S
N1268 C1270 1.263 . S
N1268 C1272 1.389 . S
N1269 C1270 1.358 . S
N1269 C1271 1.400 . S
C1270 N1268 1.263 . S
C1270 N1269 1.358 . S
C1270 H1276 0.930 . S
C1271 N1269 1.400 . S
C1271 C1272 1.351 . S
C1271 H1288 0.930 . S
C1272 N1268 1.389 . S
C1272 C1271 1.351 . S
C1272 H1277 0.930 . S
O1273 Cu1267 1.974 . S
O1273 C1283 1.282 . S
C1274 O1275 1.261 . S
C1274 O1287 1.251 . S
O1275 C1274 1.261 . S
H1276 C1270 0.930 . S
H1277 C1272 0.930 . S
N1278 Cu1267 1.985 1_565 S
N1278 C1280 1.335 . S
N1278 C1281 1.390 . S
N1279 C1280 1.345 . S
N1279 C1282 1.336 . S
C1280 N1278 1.335 . S
C1280 N1279 1.345 . S
C1280 H1285 0.930 . S
C1281 N1278 1.390 . S
C1281 C1282 1.346 . S
C1281 H1286 0.930 1_565 S
C1282 N1279 1.336 . S
C1282 C1281 1.346 . S
C1282 H1289 0.929 . S
C1283 O1273 1.282 . S
C1283 O1284 1.216 . S
O1284 C1283 1.216 . S
H1285 C1280 0.930 . S
H1286 C1281 0.930 1_545 S
O1287 Cu1267 1.959 1_565 S
O1287 C1274 1.251 . S
H1288 C1271 0.930 . S
H1289 C1282 0.929 . S
Cu1290 N1291 1.999 1_455 S
Cu1290 O1296 1.974 1_455 S
Cu1290 N1301 1.985 . S
Cu1290 O1310 1.959 . S
N1291 Cu1290 1.999 1_655 S
N1291 C1293 1.263 . S
N1291 C1295 1.389 . S
N1292 C1293 1.358 . S
N1292 C1294 1.400 . S
C1293 N1291 1.263 . S
C1293 N1292 1.358 . S
C1293 H1299 0.930 . S
C1294 N1292 1.400 . S
C1294 C1295 1.351 . S
C1294 H1311 0.930 . S
C1295 N1291 1.389 . S
C1295 C1294 1.351 . S
C1295 H1300 0.930 . S
O1296 Cu1290 1.974 1_655 S
O1296 C1306 1.282 . S
C1297 O1298 1.261 . S
C1297 O1310 1.251 . S
O1298 C1297 1.261 . S
H1299 C1293 0.930 . S
H1300 C1295 0.930 . S
N1301 Cu1290 1.985 . S
N1301 C1303 1.335 . S
N1301 C1304 1.390 . S
N1302 C1303 1.345 . S
N1302 C1305 1.336 . S
C1303 N1301 1.335 . S
C1303 N1302 1.345 . S
C1303 H1308 0.930 . S
C1304 N1301 1.390 . S
C1304 C1305 1.346 . S
C1304 H1309 0.930 . S
C1305 N1302 1.336 . S
C1305 C1304 1.346 . S
C1305 H1312 0.929 . S
C1306 O1296 1.282 . S
C1306 O1307 1.216 . S
O1307 C1306 1.216 . S
H1308 C1303 0.930 . S
H1309 C1304 0.930 . S
O1310 Cu1290 1.959 . S
O1310 C1297 1.251 . S
H1311 C1294 0.930 . S
H1312 C1305 0.929 . S
Cu1313 N1314 1.991 1_565 S
Cu1313 O1319 1.964 1_565 S
Cu1313 N1324 1.993 . S
Cu1313 O1333 1.969 . S
N1314 Cu1313 1.991 1_545 S
N1314 C1316 1.263 . S
N1314 C1318 1.389 . S
N1315 C1316 1.358 . S
N1315 C1317 1.400 . S
C1316 N1314 1.263 . S
C1316 N1315 1.358 . S
C1316 H1322 0.930 . S
C1317 N1315 1.400 . S
C1317 C1318 1.351 . S
C1317 H1334 0.930 . S
C1318 N1314 1.389 . S
C1318 C1317 1.351 . S
C1318 H1323 0.930 . S
O1319 Cu1313 1.964 1_545 S
O1319 C1329 1.282 . S
C1320 O1321 1.261 . S
C1320 O1333 1.251 . S
O1321 C1320 1.261 . S
H1322 C1316 0.930 . S
H1323 C1318 0.930 . S
N1324 Cu1313 1.993 . S
N1324 C1326 1.335 . S
N1324 C1327 1.390 . S
N1325 C1326 1.345 . S
N1325 C1328 1.336 . S
C1326 N1324 1.335 . S
C1326 N1325 1.345 . S
C1326 H1331 0.930 . S
C1327 N1324 1.390 . S
C1327 C1328 1.346 . S
C1327 H1332 1.023 . S
C1328 N1325 1.336 . S
C1328 C1327 1.346 . S
C1328 H1335 0.929 . S
C1329 O1319 1.282 . S
C1329 O1330 1.216 . S
O1330 C1329 1.216 . S
H1331 C1326 0.930 . S
H1332 C1327 1.023 . S
O1333 Cu1313 1.969 . S
O1333 C1320 1.251 . S
H1334 C1317 0.930 . S
H1335 C1328 0.929 . S
Cu1336 N1337 1.999 . S
Cu1336 O1342 1.974 . S
Cu1336 N1347 1.985 1_455 S
Cu1336 O1356 1.959 1_455 S
N1337 Cu1336 1.999 . S
N1337 C1339 1.263 . S
N1337 C1341 1.389 . S
N1338 C1339 1.358 . S
N1338 C1340 1.400 . S
C1339 N1337 1.263 . S
C1339 N1338 1.358 . S
C1339 H1345 0.930 . S
C1340 N1338 1.400 . S
C1340 C1341 1.351 . S
C1340 H1357 0.930 . S
C1341 N1337 1.389 . S
C1341 C1340 1.351 . S
C1341 H1346 0.930 . S
O1342 Cu1336 1.974 . S
O1342 C1352 1.282 . S
C1343 O1344 1.261 . S
C1343 O1356 1.251 . S
O1344 C1343 1.261 . S
H1345 C1339 0.930 . S
H1346 C1341 0.930 . S
N1347 Cu1336 1.985 1_655 S
N1347 C1349 1.335 . S
N1347 C1350 1.392 1_655 S
N1348 C1349 1.345 . S
N1348 C1351 1.336 . S
C1349 N1347 1.335 . S
C1349 N1348 1.345 . S
C1349 H1354 0.930 . S
C1350 N1347 1.392 1_455 S
C1350 C1351 1.353 1_455 S
C1350 H1355 0.923 . S
C1351 N1348 1.336 . S
C1351 C1350 1.353 1_655 S
C1351 H1358 0.929 . S
C1352 O1342 1.282 . S
C1352 O1353 1.216 . S
O1353 C1352 1.216 . S
H1354 C1349 0.930 . S
H1355 C1350 0.923 . S
O1356 Cu1336 1.959 1_655 S
O1356 C1343 1.251 . S
H1357 C1340 0.930 . S
H1358 C1351 0.929 . S
Cu1359 N1360 1.999 . S
Cu1359 O1365 1.974 . S
Cu1359 N1370 1.963 1_545 S
Cu1359 O1379 1.959 1_545 S
N1360 Cu1359 1.999 . S
N1360 C1362 1.263 . S
N1360 C1364 1.389 . S
N1361 C1362 1.358 . S
N1361 C1363 1.400 . S
C1362 N1360 1.263 . S
C1362 N1361 1.358 . S
C1362 H1368 0.930 . S
C1363 N1361 1.400 . S
C1363 C1364 1.351 . S
C1363 H1380 0.930 . S
C1364 N1360 1.389 . S
C1364 C1363 1.351 . S
C1364 H1369 0.930 . S
O1365 Cu1359 1.974 . S
O1365 C1375 1.282 . S
C1366 O1367 1.261 . S
C1366 O1379 1.251 . S
O1367 C1366 1.261 . S
H1368 C1362 0.930 . S
H1369 C1364 0.930 . S
N1370 Cu1359 1.963 1_565 S
N1370 C1372 1.368 . S
N1370 C1373 1.384 1_565 S
N1371 C1372 1.345 . S
N1371 C1374 1.336 . S
C1372 N1370 1.368 . S
C1372 N1371 1.345 . S
C1372 H1377 0.930 . S
C1373 N1370 1.384 1_545 S
C1373 C1374 1.346 1_545 S
C1373 H1378 0.930 . S
C1374 N1371 1.336 . S
C1374 C1373 1.346 1_565 S
C1374 H1381 0.929 . S
C1375 O1365 1.282 . S
C1375 O1376 1.216 . S
O1376 C1375 1.216 . S
H1377 C1372 0.930 . S
H1378 C1373 0.930 . S
O1379 Cu1359 1.959 1_565 S
O1379 C1366 1.251 . S
H1380 C1363 0.930 . S
H1381 C1374 0.929 . S
Cu1382 N1383 1.999 . S
Cu1382 O1388 1.974 . S
Cu1382 N1393 1.985 . S
Cu1382 O1402 1.959 . S
N1383 Cu1382 1.999 . S
N1383 C1385 1.263 1_455 S
N1383 C1387 1.389 . S
N1384 C1385 1.358 . S
N1384 C1386 1.400 . S
C1385 N1383 1.263 1_655 S
C1385 N1384 1.358 . S
C1385 H1391 0.930 . S
C1386 N1384 1.400 . S
C1386 C1387 1.351 1_655 S
C1386 H1403 0.930 . S
C1387 N1383 1.389 . S
C1387 C1386 1.351 1_455 S
C1387 H1392 0.930 . S
O1388 Cu1382 1.974 . S
O1388 C1398 1.282 1_455 S
C1389 O1390 1.261 . S
C1389 O1402 1.251 . S
O1390 C1389 1.261 . S
H1391 C1385 0.930 . S
H1392 C1387 0.930 . S
N1393 Cu1382 1.985 . S
N1393 C1395 1.335 . S
N1393 C1396 1.390 . S
N1394 C1395 1.345 . S
N1394 C1397 1.336 . S
C1395 N1393 1.335 . S
C1395 N1394 1.345 . S
C1395 H1400 0.930 . S
C1396 N1393 1.390 . S
C1396 C1397 1.346 . S
C1396 H1401 0.930 . S
C1397 N1394 1.336 . S
C1397 C1396 1.346 . S
C1397 H1404 0.929 . S
C1398 O1388 1.282 1_655 S
C1398 O1399 1.216 1_655 S
O1399 C1398 1.216 1_455 S
H1400 C1395 0.930 . S
H1401 C1396 0.930 . S
O1402 Cu1382 1.959 . S
O1402 C1389 1.251 . S
H1403 C1386 0.930 . S
H1404 C1397 0.929 . S
Cu1405 N1406 1.999 . S
Cu1405 O1411 1.974 . S
Cu1405 N1416 2.024 . S
Cu1405 O1425 1.959 1_545 S
N1406 Cu1405 1.999 . S
N1406 C1408 1.263 . S
N1406 C1410 1.389 . S
N1407 C1408 1.358 . S
N1407 C1409 1.400 . S
C1408 N1406 1.263 . S
C1408 N1407 1.358 . S
C1408 H1414 0.930 . S
C1409 N1407 1.400 . S
C1409 C1410 1.351 . S
C1409 H1426 0.930 . S
C1410 N1406 1.389 . S
C1410 C1409 1.351 . S
C1410 H1415 0.930 . S
O1411 Cu1405 1.974 . S
O1411 C1421 1.282 . S
C1412 O1413 1.262 1_565 S
C1412 O1425 1.251 . S
O1413 C1412 1.262 1_545 S
H1414 C1408 0.930 . S
H1415 C1410 0.930 . S
N1416 Cu1405 2.024 . S
N1416 C1418 1.274 1_545 S
N1416 C1419 1.405 . S
N1417 C1418 1.345 . S
N1417 C1420 1.336 . S
C1418 N1416 1.274 1_565 S
C1418 N1417 1.345 . S
C1418 H1423 0.930 . S
C1419 N1416 1.405 . S
C1419 C1420 1.346 1_545 S
C1419 H1424 0.930 . S
C1420 N1417 1.336 . S
C1420 C1419 1.346 1_565 S
C1420 H1427 0.929 . S
C1421 O1411 1.282 . S
C1421 O1422 1.216 . S
O1422 C1421 1.216 . S
H1423 C1418 0.930 . S
H1424 C1419 0.930 . S
O1425 Cu1405 1.959 1_565 S
O1425 C1412 1.251 . S
H1426 C1409 0.930 . S
H1427 C1420 0.929 . S
Cu1428 N1429 1.999 . S
Cu1428 O1434 1.974 . S
Cu1428 N1439 1.985 . S
Cu1428 O1448 1.959 . S
N1429 Cu1428 1.999 . S
N1429 C1431 1.263 . S
N1429 C1433 1.389 . S
N1430 C1431 1.358 . S
N1430 C1432 1.400 . S
C1431 N1429 1.263 . S
C1431 N1430 1.358 . S
C1431 H1437 0.930 . S
C1432 N1430 1.400 . S
C1432 C1433 1.351 . S
C1432 H1449 0.930 . S
C1433 N1429 1.389 . S
C1433 C1432 1.351 . S
C1433 H1438 0.930 . S
O1434 Cu1428 1.974 . S
O1434 C1444 1.282 . S
C1435 O1436 1.261 . S
C1435 O1448 1.251 . S
O1436 C1435 1.261 . S
H1437 C1431 0.930 . S
H1438 C1433 0.930 . S
N1439 Cu1428 1.985 . S
N1439 C1441 1.335 . S
N1439 C1442 1.390 . S
N1440 C1441 1.345 . S
N1440 C1443 1.336 . S
C1441 N1439 1.335 . S
C1441 N1440 1.345 . S
C1441 H1446 0.930 . S
C1442 N1439 1.390 . S
C1442 C1443 1.346 . S
C1442 H1447 0.930 . S
C1443 N1440 1.336 . S
C1443 C1442 1.346 . S
C1443 H1450 0.929 . S
C1444 O1434 1.282 . S
C1444 O1445 1.216 . S
O1445 C1444 1.216 . S
H1446 C1441 0.930 . S
H1447 C1442 0.930 . S
O1448 Cu1428 1.959 . S
O1448 C1435 1.251 . S
H1449 C1432 0.930 . S
H1450 C1443 0.929 . S
Cu1451 N1452 1.999 . S
Cu1451 O1457 1.974 . S
Cu1451 N1462 1.985 . S
Cu1451 O1471 1.959 . S
N1452 Cu1451 1.999 . S
N1452 C1454 1.263 . S
N1452 C1456 1.389 . S
N1453 C1454 1.358 . S
N1453 C1455 1.400 . S
C1454 N1452 1.263 . S
C1454 N1453 1.358 . S
C1454 H1460 0.930 . S
C1455 N1453 1.400 . S
C1455 C1456 1.351 . S
C1455 H1472 0.930 . S
C1456 N1452 1.389 . S
C1456 C1455 1.351 . S
C1456 H1461 0.930 . S
O1457 Cu1451 1.974 . S
O1457 C1467 1.282 . S
C1458 O1459 1.261 . S
C1458 O1471 1.251 . S
O1459 C1458 1.261 . S
H1460 C1454 0.930 . S
H1461 C1456 0.930 . S
N1462 Cu1451 1.985 . S
N1462 C1464 1.335 . S
N1462 C1465 1.390 . S
N1463 C1464 1.345 . S
N1463 C1466 1.336 . S
C1464 N1462 1.335 . S
C1464 N1463 1.345 . S
C1464 H1469 0.930 . S
C1465 N1462 1.390 . S
C1465 C1466 1.346 . S
C1465 H1470 0.930 . S
C1466 N1463 1.336 . S
C1466 C1465 1.346 . S
C1466 H1473 0.929 . S
C1467 O1457 1.282 . S
C1467 O1468 1.216 . S
O1468 C1467 1.216 . S
H1469 C1464 0.930 . S
H1470 C1465 0.930 . S
O1471 Cu1451 1.959 . S
O1471 C1458 1.251 . S
H1472 C1455 0.930 . S
H1473 C1466 0.929 . S
Cu1474 N1475 1.999 . S
Cu1474 O1480 1.974 . S
Cu1474 N1485 1.985 . S
Cu1474 O1494 1.959 . S
N1475 Cu1474 1.999 . S
N1475 C1477 1.263 . S
N1475 C1479 1.389 . S
N1476 C1477 1.358 . S
N1476 C1478 1.400 . S
C1477 N1475 1.263 . S
C1477 N1476 1.358 . S
C1477 H1483 0.930 . S
C1478 N1476 1.400 . S
C1478 C1479 1.351 . S
C1478 H1495 0.930 . S
C1479 N1475 1.389 . S
C1479 C1478 1.351 . S
C1479 H1484 0.930 . S
O1480 Cu1474 1.974 . S
O1480 C1490 1.282 . S
C1481 O1482 1.261 . S
C1481 O1494 1.251 . S
O1482 C1481 1.261 . S
H1483 C1477 0.930 . S
H1484 C1479 0.930 . S
N1485 Cu1474 1.985 . S
N1485 C1487 1.335 . S
N1485 C1488 1.390 . S
N1486 C1487 1.345 . S
N1486 C1489 1.336 . S
C1487 N1485 1.335 . S
C1487 N1486 1.345 . S
C1487 H1492 0.930 . S
C1488 N1485 1.390 . S
C1488 C1489 1.346 . S
C1488 H1493 0.930 . S
C1489 N1486 1.336 . S
C1489 C1488 1.346 . S
C1489 H1496 0.929 . S
C1490 O1480 1.282 . S
C1490 O1491 1.216 . S
O1491 C1490 1.216 . S
H1492 C1487 0.930 . S
H1493 C1488 0.930 . S
O1494 Cu1474 1.959 . S
O1494 C1481 1.251 . S
H1495 C1478 0.930 . S
H1496 C1489 0.929 . S
Cu1497 N1498 1.999 . S
Cu1497 O1503 1.974 . S
Cu1497 N1508 1.985 . S
Cu1497 O1517 1.959 . S
N1498 Cu1497 1.999 . S
N1498 C1500 1.263 . S
N1498 C1502 1.389 . S
N1499 C1500 1.358 . S
N1499 C1501 1.400 . S
C1500 N1498 1.263 . S
C1500 N1499 1.358 . S
C1500 H1506 0.930 . S
C1501 N1499 1.400 . S
C1501 C1502 1.351 . S
C1501 H1518 0.930 . S
C1502 N1498 1.389 . S
C1502 C1501 1.351 . S
C1502 H1507 0.930 . S
O1503 Cu1497 1.974 . S
O1503 C1513 1.282 . S
C1504 O1505 1.261 . S
C1504 O1517 1.251 . S
O1505 C1504 1.261 . S
H1506 C1500 0.930 . S
H1507 C1502 0.930 . S
N1508 Cu1497 1.985 . S
N1508 C1510 1.335 . S
N1508 C1511 1.390 . S
N1509 C1510 1.345 . S
N1509 C1512 1.336 . S
C1510 N1508 1.335 . S
C1510 N1509 1.345 . S
C1510 H1515 0.930 . S
C1511 N1508 1.390 . S
C1511 C1512 1.346 . S
C1511 H1516 0.930 . S
C1512 N1509 1.336 . S
C1512 C1511 1.346 . S
C1512 H1519 0.929 . S
C1513 O1503 1.282 . S
C1513 O1514 1.216 . S
O1514 C1513 1.216 . S
H1515 C1510 0.930 . S
H1516 C1511 0.930 . S
O1517 Cu1497 1.959 . S
O1517 C1504 1.251 . S
H1518 C1501 0.930 . S
H1519 C1512 0.929 . S
Cu1520 N1521 1.999 . S
Cu1520 O1526 1.974 . S
Cu1520 N1531 1.985 . S
Cu1520 O1540 1.959 . S
N1521 Cu1520 1.999 . S
N1521 C1523 1.263 . S
N1521 C1525 1.389 . S
N1522 C1523 1.358 . S
N1522 C1524 1.400 . S
C1523 N1521 1.263 . S
C1523 N1522 1.358 . S
C1523 H1529 0.930 . S
C1524 N1522 1.400 . S
C1524 C1525 1.351 . S
C1524 H1541 0.930 . S
C1525 N1521 1.389 . S
C1525 C1524 1.351 . S
C1525 H1530 0.930 . S
O1526 Cu1520 1.974 . S
O1526 C1536 1.282 . S
C1527 O1528 1.261 . S
C1527 O1540 1.251 . S
O1528 C1527 1.261 . S
H1529 C1523 0.930 . S
H1530 C1525 0.930 . S
N1531 Cu1520 1.985 . S
N1531 C1533 1.335 . S
N1531 C1534 1.390 . S
N1532 C1533 1.345 . S
N1532 C1535 1.336 . S
C1533 N1531 1.335 . S
C1533 N1532 1.345 . S
C1533 H1538 0.930 . S
C1534 N1531 1.390 . S
C1534 C1535 1.346 . S
C1534 H1539 0.930 . S
C1535 N1532 1.336 . S
C1535 C1534 1.346 . S
C1535 H1542 0.929 . S
C1536 O1526 1.282 . S
C1536 O1537 1.216 . S
O1537 C1536 1.216 . S
H1538 C1533 0.930 . S
H1539 C1534 0.930 . S
O1540 Cu1520 1.959 . S
O1540 C1527 1.251 . S
H1541 C1524 0.930 . S
H1542 C1535 0.929 . S
Cu1543 N1544 1.999 . S
Cu1543 O1549 1.974 . S
Cu1543 N1554 1.985 . S
Cu1543 O1563 1.959 . S
N1544 Cu1543 1.999 . S
N1544 C1546 1.263 . S
N1544 C1548 1.389 . S
N1545 C1546 1.358 . S
N1545 C1547 1.400 . S
C1546 N1544 1.263 . S
C1546 N1545 1.358 . S
C1546 H1552 0.930 . S
C1547 N1545 1.400 . S
C1547 C1548 1.351 . S
C1547 H1564 0.930 . S
C1548 N1544 1.389 . S
C1548 C1547 1.351 . S
C1548 H1553 0.930 . S
O1549 Cu1543 1.974 . S
O1549 C1559 1.282 . S
C1550 O1551 1.261 . S
C1550 O1563 1.251 . S
O1551 C1550 1.261 . S
H1552 C1546 0.930 . S
H1553 C1548 0.930 . S
N1554 Cu1543 1.985 . S
N1554 C1556 1.335 . S
N1554 C1557 1.390 . S
N1555 C1556 1.345 . S
N1555 C1558 1.336 . S
C1556 N1554 1.335 . S
C1556 N1555 1.345 . S
C1556 H1561 0.930 . S
C1557 N1554 1.390 . S
C1557 C1558 1.346 . S
C1557 H1562 0.930 . S
C1558 N1555 1.336 . S
C1558 C1557 1.346 . S
C1558 H1565 0.929 . S
C1559 O1549 1.282 . S
C1559 O1560 1.216 . S
O1560 C1559 1.216 . S
H1561 C1556 0.930 . S
H1562 C1557 0.930 . S
O1563 Cu1543 1.959 . S
O1563 C1550 1.251 . S
H1564 C1547 0.930 . S
H1565 C1558 0.929 . S
Cu1566 N1567 1.999 . S
Cu1566 O1572 1.974 . S
Cu1566 N1577 1.985 . S
Cu1566 O1586 1.959 . S
N1567 Cu1566 1.999 . S
N1567 C1569 1.263 . S
N1567 C1571 1.389 . S
N1568 C1569 1.358 . S
N1568 C1570 1.400 . S
C1569 N1567 1.263 . S
C1569 N1568 1.358 . S
C1569 H1575 0.930 . S
C1570 N1568 1.400 . S
C1570 C1571 1.351 . S
C1570 H1587 0.930 . S
C1571 N1567 1.389 . S
C1571 C1570 1.351 . S
C1571 H1576 0.930 . S
O1572 Cu1566 1.974 . S
O1572 C1582 1.282 . S
C1573 O1574 1.261 . S
C1573 O1586 1.251 . S
O1574 C1573 1.261 . S
H1575 C1569 0.930 . S
H1576 C1571 0.930 . S
N1577 Cu1566 1.985 . S
N1577 C1579 1.335 . S
N1577 C1580 1.390 . S
N1578 C1579 1.345 . S
N1578 C1581 1.336 . S
C1579 N1577 1.335 . S
C1579 N1578 1.345 . S
C1579 H1584 0.930 . S
C1580 N1577 1.390 . S
C1580 C1581 1.346 . S
C1580 H1585 0.930 . S
C1581 N1578 1.336 . S
C1581 C1580 1.346 . S
C1581 H1588 0.929 . S
C1582 O1572 1.282 . S
C1582 O1583 1.216 . S
O1583 C1582 1.216 . S
H1584 C1579 0.930 . S
H1585 C1580 0.930 . S
O1586 Cu1566 1.959 . S
O1586 C1573 1.251 . S
H1587 C1570 0.930 . S
H1588 C1581 0.929 . S
Cu1589 N1590 1.999 . S
Cu1589 O1595 1.974 . S
Cu1589 N1600 1.985 . S
Cu1589 O1609 1.959 . S
N1590 Cu1589 1.999 . S
N1590 C1592 1.263 . S
N1590 C1594 1.389 . S
N1591 C1592 1.358 . S
N1591 C1593 1.400 . S
C1592 N1590 1.263 . S
C1592 N1591 1.358 . S
C1592 H1598 0.930 . S
C1593 N1591 1.400 . S
C1593 C1594 1.351 . S
C1593 H1610 0.930 . S
C1594 N1590 1.389 . S
C1594 C1593 1.351 . S
C1594 H1599 0.930 . S
O1595 Cu1589 1.974 . S
O1595 C1605 1.282 . S
C1596 O1597 1.261 . S
C1596 O1609 1.251 . S
O1597 C1596 1.261 . S
H1598 C1592 0.930 . S
H1599 C1594 0.930 . S
N1600 Cu1589 1.985 . S
N1600 C1602 1.335 . S
N1600 C1603 1.390 . S
N1601 C1602 1.345 . S
N1601 C1604 1.336 . S
C1602 N1600 1.335 . S
C1602 N1601 1.345 . S
C1602 H1607 0.930 . S
C1603 N1600 1.390 . S
C1603 C1604 1.346 . S
C1603 H1608 0.930 . S
C1604 N1601 1.336 . S
C1604 C1603 1.346 . S
C1604 H1611 0.929 . S
C1605 O1595 1.282 . S
C1605 O1606 1.216 . S
O1606 C1605 1.216 . S
H1607 C1602 0.930 . S
H1608 C1603 0.930 . S
O1609 Cu1589 1.959 . S
O1609 C1596 1.251 . S
H1610 C1593 0.930 . S
H1611 C1604 0.929 . S
Cu1612 N1613 1.999 . S
Cu1612 O1618 1.974 . S
Cu1612 N1623 1.985 . S
Cu1612 O1632 1.959 . S
N1613 Cu1612 1.999 . S
N1613 C1615 1.263 . S
N1613 C1617 1.389 . S
N1614 C1615 1.358 . S
N1614 C1616 1.400 . S
C1615 N1613 1.263 . S
C1615 N1614 1.358 . S
C1615 H1621 0.930 . S
C1616 N1614 1.400 . S
C1616 C1617 1.351 . S
C1616 H1633 0.930 . S
C1617 N1613 1.389 . S
C1617 C1616 1.351 . S
C1617 H1622 0.930 . S
O1618 Cu1612 1.974 . S
O1618 C1628 1.282 . S
C1619 O1620 1.261 . S
C1619 O1632 1.251 . S
O1620 C1619 1.261 . S
H1621 C1615 0.930 . S
H1622 C1617 0.930 . S
N1623 Cu1612 1.985 . S
N1623 C1625 1.335 . S
N1623 C1626 1.390 . S
N1624 C1625 1.345 . S
N1624 C1627 1.336 . S
C1625 N1623 1.335 . S
C1625 N1624 1.345 . S
C1625 H1630 0.930 . S
C1626 N1623 1.390 . S
C1626 C1627 1.346 . S
C1626 H1631 0.930 . S
C1627 N1624 1.336 . S
C1627 C1626 1.346 . S
C1627 H1634 0.929 . S
C1628 O1618 1.282 . S
C1628 O1629 1.216 . S
O1629 C1628 1.216 . S
H1630 C1625 0.930 . S
H1631 C1626 0.930 . S
O1632 Cu1612 1.959 . S
O1632 C1619 1.251 . S
H1633 C1616 0.930 . S
H1634 C1627 0.929 . S
Cu1635 N1636 1.999 . S
Cu1635 O1641 1.974 . S
Cu1635 N1646 1.985 . S
Cu1635 O1655 1.959 . S
N1636 Cu1635 1.999 . S
N1636 C1638 1.263 . S
N1636 C1640 1.389 . S
N1637 C1638 1.358 . S
N1637 C1639 1.400 . S
C1638 N1636 1.263 . S
C1638 N1637 1.358 . S
C1638 H1644 0.930 . S
C1639 N1637 1.400 . S
C1639 C1640 1.351 . S
C1639 H1656 0.930 . S
C1640 N1636 1.389 . S
C1640 C1639 1.351 . S
C1640 H1645 0.930 . S
O1641 Cu1635 1.974 . S
O1641 C1651 1.282 . S
C1642 O1643 1.261 . S
C1642 O1655 1.251 . S
O1643 C1642 1.261 . S
H1644 C1638 0.930 . S
H1645 C1640 0.930 . S
N1646 Cu1635 1.985 . S
N1646 C1648 1.335 . S
N1646 C1649 1.390 . S
N1647 C1648 1.345 . S
N1647 C1650 1.336 . S
C1648 N1646 1.335 . S
C1648 N1647 1.345 . S
C1648 H1653 0.930 . S
C1649 N1646 1.390 . S
C1649 C1650 1.346 . S
C1649 H1654 0.930 . S
C1650 N1647 1.336 . S
C1650 C1649 1.346 . S
C1650 H1657 0.929 . S
C1651 O1641 1.282 . S
C1651 O1652 1.216 . S
O1652 C1651 1.216 . S
H1653 C1648 0.930 . S
H1654 C1649 0.930 . S
O1655 Cu1635 1.959 . S
O1655 C1642 1.251 . S
H1656 C1639 0.930 . S
H1657 C1650 0.929 . S
Cu1658 N1659 1.999 . S
Cu1658 O1664 1.974 . S
Cu1658 N1669 1.985 . S
Cu1658 O1678 1.959 . S
N1659 Cu1658 1.999 . S
N1659 C1661 1.263 . S
N1659 C1663 1.389 . S
N1660 C1661 1.358 . S
N1660 C1662 1.400 . S
C1661 N1659 1.263 . S
C1661 N1660 1.358 . S
C1661 H1667 0.930 . S
C1662 N1660 1.400 . S
C1662 C1663 1.351 . S
C1662 H1679 0.930 . S
C1663 N1659 1.389 . S
C1663 C1662 1.351 . S
C1663 H1668 0.930 . S
O1664 Cu1658 1.974 . S
O1664 C1674 1.282 . S
C1665 O1666 1.261 . S
C1665 O1678 1.251 . S
O1666 C1665 1.261 . S
H1667 C1661 0.930 . S
H1668 C1663 0.930 . S
N1669 Cu1658 1.985 . S
N1669 C1671 1.335 . S
N1669 C1672 1.390 . S
N1670 C1671 1.345 . S
N1670 C1673 1.336 . S
C1671 N1669 1.335 . S
C1671 N1670 1.345 . S
C1671 H1676 0.930 . S
C1672 N1669 1.390 . S
C1672 C1673 1.346 . S
C1672 H1677 0.930 . S
C1673 N1670 1.336 . S
C1673 C1672 1.346 . S
C1673 H1680 0.929 . S
C1674 O1664 1.282 . S
C1674 O1675 1.216 . S
O1675 C1674 1.216 . S
H1676 C1671 0.930 . S
H1677 C1672 0.930 . S
O1678 Cu1658 1.959 . S
O1678 C1665 1.251 . S
H1679 C1662 0.930 . S
H1680 C1673 0.929 . S
Cu1681 N1682 1.999 . S
Cu1681 O1687 1.974 . S
Cu1681 N1692 1.985 . S
Cu1681 O1701 1.959 . S
N1682 Cu1681 1.999 . S
N1682 C1684 1.263 . S
N1682 C1686 1.389 . S
N1683 C1684 1.358 . S
N1683 C1685 1.400 . S
C1684 N1682 1.263 . S
C1684 N1683 1.358 . S
C1684 H1690 0.930 . S
C1685 N1683 1.400 . S
C1685 C1686 1.351 . S
C1685 H1702 0.930 . S
C1686 N1682 1.389 . S
C1686 C1685 1.351 . S
C1686 H1691 0.930 . S
O1687 Cu1681 1.974 . S
O1687 C1697 1.282 . S
C1688 O1689 1.261 . S
C1688 O1701 1.251 . S
O1689 C1688 1.261 . S
H1690 C1684 0.930 . S
H1691 C1686 0.930 . S
N1692 Cu1681 1.985 . S
N1692 C1694 1.335 . S
N1692 C1695 1.390 . S
N1693 C1694 1.345 . S
N1693 C1696 1.336 . S
C1694 N1692 1.335 . S
C1694 N1693 1.345 . S
C1694 H1699 0.930 . S
C1695 N1692 1.390 . S
C1695 C1696 1.346 . S
C1695 H1700 0.930 . S
C1696 N1693 1.336 . S
C1696 C1695 1.346 . S
C1696 H1703 0.929 . S
C1697 O1687 1.282 . S
C1697 O1698 1.216 . S
O1698 C1697 1.216 . S
H1699 C1694 0.930 . S
H1700 C1695 0.930 . S
O1701 Cu1681 1.959 . S
O1701 C1688 1.251 . S
H1702 C1685 0.930 . S
H1703 C1696 0.929 . S
H1704 C1712 0.929 . S
H1705 C1714 0.930 . S
H1706 C1716 0.930 . S
H1707 C1719 0.929 . S
H1708 C1722 0.930 . S
H1709 C1724 0.960 . S
H1710 C1724 0.960 . S
H1711 C1724 0.960 . S
C1712 H1704 0.929 . S
C1712 C1713 1.377 . S
C1712 C1714 1.384 . S
C1713 C1712 1.377 . S
C1713 C1719 1.390 . S
C1714 H1705 0.930 . S
C1714 C1712 1.384 . S
C1714 C1715 1.372 . S
C1715 C1714 1.372 . S
C1715 C1716 1.400 . S
C1715 C1720 1.490 . S
C1716 H1706 0.930 . S
C1716 C1715 1.400 . S
C1716 C1719 1.386 . S
H1717 C1733 0.930 . S
H1718 C1734 0.931 . S
C1719 H1707 0.929 . S
C1719 C1713 1.390 . S
C1719 C1716 1.386 . S
C1720 C1715 1.490 . S
C1720 C1722 1.395 . S
C1720 C1723 1.403 . S
H1721 C1727 0.930 . S
C1722 H1708 0.930 . S
C1722 C1720 1.395 . S
C1722 C1725 1.403 . S
C1723 C1720 1.403 . S
C1723 C1724 1.524 . S
C1723 C1727 1.400 . S
C1724 H1709 0.960 . S
C1724 H1710 0.960 . S
C1724 H1711 0.960 . S
C1724 C1723 1.524 . S
C1725 C1722 1.403 . S
C1725 C1726 1.392 . S
C1725 C1729 1.495 . S
C1726 C1725 1.392 . S
C1726 C1727 1.385 . S
C1726 C1728 1.478 . S
C1727 H1721 0.930 . S
C1727 C1723 1.400 . S
C1727 C1726 1.385 . S
C1728 C1726 1.478 . S
C1728 C1730 1.381 . S
C1728 C1734 1.383 . S
C1729 C1725 1.495 . S
C1729 H1735 0.959 . S
C1729 H1736 0.961 . S
C1729 H1737 0.960 . S
C1730 C1728 1.381 . S
C1730 C1731 1.394 . S
C1730 H1738 0.930 . S
C1731 C1730 1.394 . S
C1731 C1732 1.383 . S
C1731 H1739 0.929 . S
C1732 C1731 1.383 . S
C1732 C1733 1.377 . S
C1733 H1717 0.930 . S
C1733 C1732 1.377 . S
C1733 C1734 1.379 . S
C1734 H1718 0.931 . S
C1734 C1728 1.383 . S
C1734 C1733 1.379 . S
H1735 C1729 0.959 . S
H1736 C1729 0.961 . S
H1737 C1729 0.960 . S
H1738 C1730 0.930 . S
H1739 C1731 0.929 . S
H1740 C1748 0.929 . S
H1741 C1750 0.930 . S
H1742 C1752 0.930 . S
H1743 C1755 0.929 . S
H1744 C1758 0.930 . S
H1745 C1760 0.960 . S
H1746 C1760 0.960 . S
H1747 C1760 0.960 . S
C1748 H1740 0.929 . S
C1748 C1749 1.377 . S
C1748 C1750 1.384 . S
C1749 C1748 1.377 . S
C1749 C1755 1.390 . S
C1750 H1741 0.930 . S
C1750 C1748 1.384 . S
C1750 C1751 1.372 . S
C1751 C1750 1.372 . S
C1751 C1752 1.400 . S
C1751 C1756 1.490 . S
C1752 H1742 0.930 . S
C1752 C1751 1.400 . S
C1752 C1755 1.386 . S
H1753 C1769 0.930 . S
H1754 C1770 0.931 . S
C1755 H1743 0.929 . S
C1755 C1749 1.390 . S
C1755 C1752 1.386 . S
C1756 C1751 1.490 . S
C1756 C1758 1.395 . S
C1756 C1759 1.403 . S
H1757 C1763 0.930 . S
C1758 H1744 0.930 . S
C1758 C1756 1.395 . S
C1758 C1761 1.403 . S
C1759 C1756 1.403 . S
C1759 C1760 1.524 . S
C1759 C1763 1.400 . S
C1760 H1745 0.960 . S
C1760 H1746 0.960 . S
C1760 H1747 0.960 . S
C1760 C1759 1.524 . S
C1761 C1758 1.403 . S
C1761 C1762 1.392 . S
C1761 C1765 1.495 . S
C1762 C1761 1.392 . S
C1762 C1763 1.385 . S
C1762 C1764 1.478 . S
C1763 H1757 0.930 . S
C1763 C1759 1.400 . S
C1763 C1762 1.385 . S
C1764 C1762 1.478 . S
C1764 C1766 1.381 . S
C1764 C1770 1.383 . S
C1765 C1761 1.495 . S
C1765 H1771 0.959 . S
C1765 H1772 0.961 . S
C1765 H1773 0.960 . S
C1766 C1764 1.381 . S
C1766 C1767 1.394 . S
C1766 H1774 0.930 . S
C1767 C1766 1.394 . S
C1767 C1768 1.383 . S
C1767 H1775 0.929 . S
C1768 C1767 1.383 . S
C1768 C1769 1.377 . S
C1769 H1753 0.930 . S
C1769 C1768 1.377 . S
C1769 C1770 1.379 . S
C1770 H1754 0.931 . S
C1770 C1764 1.383 . S
C1770 C1769 1.379 . S
H1771 C1765 0.959 . S
H1772 C1765 0.961 . S
H1773 C1765 0.960 . S
H1774 C1766 0.930 . S
H1775 C1767 0.929 . S
H1776 C1784 0.929 . S
H1777 C1786 0.930 . S
H1778 C1788 0.930 . S
H1779 C1791 0.929 . S
H1780 C1794 0.930 . S
H1781 C1796 0.960 . S
H1782 C1796 0.960 . S
H1783 C1796 0.960 . S
C1784 H1776 0.929 . S
C1784 C1785 1.377 . S
C1784 C1786 1.384 . S
C1785 C1784 1.377 . S
C1785 C1791 1.390 . S
C1786 H1777 0.930 . S
C1786 C1784 1.384 . S
C1786 C1787 1.372 . S
C1787 C1786 1.372 . S
C1787 C1788 1.400 . S
C1787 C1792 1.490 . S
C1788 H1778 0.930 . S
C1788 C1787 1.400 . S
C1788 C1791 1.386 . S
H1789 C1805 0.930 . S
H1790 C1806 0.931 . S
C1791 H1779 0.929 . S
C1791 C1785 1.390 . S
C1791 C1788 1.386 . S
C1792 C1787 1.490 . S
C1792 C1794 1.395 . S
C1792 C1795 1.403 . S
H1793 C1799 0.930 . S
C1794 H1780 0.930 . S
C1794 C1792 1.395 . S
C1794 C1797 1.403 . S
C1795 C1792 1.403 . S
C1795 C1796 1.524 . S
C1795 C1799 1.400 . S
C1796 H1781 0.960 . S
C1796 H1782 0.960 . S
C1796 H1783 0.960 . S
C1796 C1795 1.524 . S
C1797 C1794 1.403 . S
C1797 C1798 1.392 . S
C1797 C1801 1.495 . S
C1798 C1797 1.392 . S
C1798 C1799 1.385 . S
C1798 C1800 1.478 . S
C1799 H1793 0.930 . S
C1799 C1795 1.400 . S
C1799 C1798 1.385 . S
C1800 C1798 1.478 . S
C1800 C1802 1.381 . S
C1800 C1806 1.383 . S
C1801 C1797 1.495 . S
C1801 H1807 0.959 . S
C1801 H1808 0.961 . S
C1801 H1809 0.960 . S
C1802 C1800 1.381 . S
C1802 C1803 1.394 . S
C1802 H1810 0.930 . S
C1803 C1802 1.394 . S
C1803 C1804 1.383 . S
C1803 H1811 0.929 . S
C1804 C1803 1.383 . S
C1804 C1805 1.377 . S
C1805 H1789 0.930 . S
C1805 C1804 1.377 . S
C1805 C1806 1.379 . S
C1806 H1790 0.931 . S
C1806 C1800 1.383 . S
C1806 C1805 1.379 . S
H1807 C1801 0.959 . S
H1808 C1801 0.961 . S
H1809 C1801 0.960 . S
H1810 C1802 0.930 . S
H1811 C1803 0.929 . S
H1812 C1820 0.929 . S
H1813 C1822 0.930 . S
H1814 C1824 0.930 . S
H1815 C1827 0.929 . S
H1816 C1830 0.930 . S
H1817 C1832 0.960 . S
H1818 C1832 0.960 . S
H1819 C1832 0.960 . S
C1820 H1812 0.929 . S
C1820 C1821 1.377 . S
C1820 C1822 1.384 . S
C1821 C1820 1.377 . S
C1821 C1827 1.390 . S
C1822 H1813 0.930 . S
C1822 C1820 1.384 . S
C1822 C1823 1.372 . S
C1823 C1822 1.372 . S
C1823 C1824 1.400 . S
C1823 C1828 1.490 . S
C1824 H1814 0.930 . S
C1824 C1823 1.400 . S
C1824 C1827 1.386 . S
H1825 C1841 0.930 . S
H1826 C1842 0.931 . S
C1827 H1815 0.929 . S
C1827 C1821 1.390 . S
C1827 C1824 1.386 . S
C1828 C1823 1.490 . S
C1828 C1830 1.395 . S
C1828 C1831 1.403 . S
H1829 C1835 0.930 . S
C1830 H1816 0.930 . S
C1830 C1828 1.395 . S
C1830 C1833 1.403 . S
C1831 C1828 1.403 . S
C1831 C1832 1.524 . S
C1831 C1835 1.400 . S
C1832 H1817 0.960 . S
C1832 H1818 0.960 . S
C1832 H1819 0.960 . S
C1832 C1831 1.524 . S
C1833 C1830 1.403 . S
C1833 C1834 1.392 . S
C1833 C1837 1.495 . S
C1834 C1833 1.392 . S
C1834 C1835 1.385 . S
C1834 C1836 1.478 . S
C1835 H1829 0.930 . S
C1835 C1831 1.400 . S
C1835 C1834 1.385 . S
C1836 C1834 1.478 . S
C1836 C1838 1.381 . S
C1836 C1842 1.383 . S
C1837 C1833 1.495 . S
C1837 H1843 0.959 . S
C1837 H1844 0.961 . S
C1837 H1845 0.960 . S
C1838 C1836 1.381 . S
C1838 C1839 1.394 . S
C1838 H1846 0.930 . S
C1839 C1838 1.394 . S
C1839 C1840 1.383 . S
C1839 H1847 0.929 . S
C1840 C1839 1.383 . S
C1840 C1841 1.377 . S
C1841 H1825 0.930 . S
C1841 C1840 1.377 . S
C1841 C1842 1.379 . S
C1842 H1826 0.931 . S
C1842 C1836 1.383 . S
C1842 C1841 1.379 . S
H1843 C1837 0.959 . S
H1844 C1837 0.961 . S
H1845 C1837 0.960 . S
H1846 C1838 0.930 . S
H1847 C1839 0.929 . S
H1848 C1856 0.929 . S
H1849 C1858 0.930 . S
H1850 C1860 0.930 . S
H1851 C1863 0.929 . S
H1852 C1866 0.930 . S
H1853 C1868 0.960 . S
H1854 C1868 0.960 . S
H1855 C1868 0.960 . S
C1856 H1848 0.929 . S
C1856 C1857 1.377 . S
C1856 C1858 1.384 . S
C1857 C1856 1.377 . S
C1857 C1863 1.390 . S
C1858 H1849 0.930 . S
C1858 C1856 1.384 . S
C1858 C1859 1.372 . S
C1859 C1858 1.372 . S
C1859 C1860 1.400 . S
C1859 C1864 1.490 . S
C1860 H1850 0.930 . S
C1860 C1859 1.400 . S
C1860 C1863 1.386 . S
H1861 C1877 0.930 . S
H1862 C1878 0.931 . S
C1863 H1851 0.929 . S
C1863 C1857 1.390 . S
C1863 C1860 1.386 . S
C1864 C1859 1.490 . S
C1864 C1866 1.395 . S
C1864 C1867 1.403 . S
H1865 C1871 0.930 . S
C1866 H1852 0.930 . S
C1866 C1864 1.395 . S
C1866 C1869 1.403 . S
C1867 C1864 1.403 . S
C1867 C1868 1.524 . S
C1867 C1871 1.400 . S
C1868 H1853 0.960 . S
C1868 H1854 0.960 . S
C1868 H1855 0.960 . S
C1868 C1867 1.524 . S
C1869 C1866 1.403 . S
C1869 C1870 1.392 . S
C1869 C1873 1.495 . S
C1870 C1869 1.392 . S
C1870 C1871 1.385 . S
C1870 C1872 1.478 . S
C1871 H1865 0.930 . S
C1871 C1867 1.400 . S
C1871 C1870 1.385 . S
C1872 C1870 1.478 . S
C1872 C1874 1.381 . S
C1872 C1878 1.383 . S
C1873 C1869 1.495 . S
C1873 H1879 0.959 . S
C1873 H1880 0.961 . S
C1873 H1881 0.960 . S
C1874 C1872 1.381 . S
C1874 C1875 1.394 . S
C1874 H1882 0.930 . S
C1875 C1874 1.394 . S
C1875 C1876 1.383 . S
C1875 H1883 0.929 . S
C1876 C1875 1.383 . S
C1876 C1877 1.377 . S
C1877 H1861 0.930 . S
C1877 C1876 1.377 . S
C1877 C1878 1.379 . S
C1878 H1862 0.931 . S
C1878 C1872 1.383 . S
C1878 C1877 1.379 . S
H1879 C1873 0.959 . S
H1880 C1873 0.961 . S
H1881 C1873 0.960 . S
H1882 C1874 0.930 . S
H1883 C1875 0.929 . S
H1884 C1892 0.929 . S
H1885 C1894 0.930 . S
H1886 C1896 0.930 . S
H1887 C1899 0.929 . S
H1888 C1902 0.930 . S
H1889 C1904 0.960 . S
H1890 C1904 0.960 . S
H1891 C1904 0.960 . S
C1892 H1884 0.929 . S
C1892 C1893 1.377 . S
C1892 C1894 1.384 . S
C1893 C1892 1.377 . S
C1893 C1899 1.390 . S
C1894 H1885 0.930 . S
C1894 C1892 1.384 . S
C1894 C1895 1.372 . S
C1895 C1894 1.372 . S
C1895 C1896 1.400 . S
C1895 C1900 1.490 . S
C1896 H1886 0.930 . S
C1896 C1895 1.400 . S
C1896 C1899 1.386 . S
H1897 C1913 0.930 . S
H1898 C1914 0.931 . S
C1899 H1887 0.929 . S
C1899 C1893 1.390 . S
C1899 C1896 1.386 . S
C1900 C1895 1.490 . S
C1900 C1902 1.395 . S
C1900 C1903 1.403 . S
H1901 C1907 0.930 . S
C1902 H1888 0.930 . S
C1902 C1900 1.395 . S
C1902 C1905 1.403 . S
C1903 C1900 1.403 . S
C1903 C1904 1.524 . S
C1903 C1907 1.400 . S
C1904 H1889 0.960 . S
C1904 H1890 0.960 . S
C1904 H1891 0.960 . S
C1904 C1903 1.524 . S
C1905 C1902 1.403 . S
C1905 C1906 1.392 . S
C1905 C1909 1.495 . S
C1906 C1905 1.392 . S
C1906 C1907 1.385 . S
C1906 C1908 1.478 . S
C1907 H1901 0.930 . S
C1907 C1903 1.400 . S
C1907 C1906 1.385 . S
C1908 C1906 1.478 . S
C1908 C1910 1.381 . S
C1908 C1914 1.383 . S
C1909 C1905 1.495 . S
C1909 H1915 0.959 . S
C1909 H1916 0.961 . S
C1909 H1917 0.960 . S
C1910 C1908 1.381 . S
C1910 C1911 1.394 . S
C1910 H1918 0.930 . S
C1911 C1910 1.394 . S
C1911 C1912 1.383 . S
C1911 H1919 0.929 . S
C1912 C1911 1.383 . S
C1912 C1913 1.377 . S
C1913 H1897 0.930 . S
C1913 C1912 1.377 . S
C1913 C1914 1.379 . S
C1914 H1898 0.931 . S
C1914 C1908 1.383 . S
C1914 C1913 1.379 . S
H1915 C1909 0.959 . S
H1916 C1909 0.961 . S
H1917 C1909 0.960 . S
H1918 C1910 0.930 . S
H1919 C1911 0.929 . S
H1920 C1928 0.929 . S
H1921 C1930 0.930 . S
H1922 C1932 0.930 . S
H1923 C1935 0.929 . S
H1924 C1938 0.930 . S
H1925 C1940 0.960 . S
H1926 C1940 0.960 . S
H1927 C1940 0.960 . S
C1928 H1920 0.929 . S
C1928 C1929 1.377 . S
C1928 C1930 1.384 . S
C1929 C1928 1.377 . S
C1929 C1935 1.390 . S
C1930 H1921 0.930 . S
C1930 C1928 1.384 . S
C1930 C1931 1.372 . S
C1931 C1930 1.372 . S
C1931 C1932 1.400 . S
C1931 C1936 1.490 . S
C1932 H1922 0.930 . S
C1932 C1931 1.400 . S
C1932 C1935 1.386 . S
H1933 C1949 0.930 . S
H1934 C1950 0.931 . S
C1935 H1923 0.929 . S
C1935 C1929 1.390 . S
C1935 C1932 1.386 . S
C1936 C1931 1.490 . S
C1936 C1938 1.395 . S
C1936 C1939 1.403 . S
H1937 C1943 0.930 . S
C1938 H1924 0.930 . S
C1938 C1936 1.395 . S
C1938 C1941 1.403 . S
C1939 C1936 1.403 . S
C1939 C1940 1.524 . S
C1939 C1943 1.400 . S
C1940 H1925 0.960 . S
C1940 H1926 0.960 . S
C1940 H1927 0.960 . S
C1940 C1939 1.524 . S
C1941 C1938 1.403 . S
C1941 C1942 1.392 . S
C1941 C1945 1.495 . S
C1942 C1941 1.392 . S
C1942 C1943 1.385 . S
C1942 C1944 1.478 . S
C1943 H1937 0.930 . S
C1943 C1939 1.400 . S
C1943 C1942 1.385 . S
C1944 C1942 1.478 . S
C1944 C1946 1.381 . S
C1944 C1950 1.383 . S
C1945 C1941 1.495 . S
C1945 H1951 0.959 . S
C1945 H1952 0.961 . S
C1945 H1953 0.960 . S
C1946 C1944 1.381 . S
C1946 C1947 1.394 . S
C1946 H1954 0.930 . S
C1947 C1946 1.394 . S
C1947 C1948 1.383 . S
C1947 H1955 0.929 . S
C1948 C1947 1.383 . S
C1948 C1949 1.377 . S
C1949 H1933 0.930 . S
C1949 C1948 1.377 . S
C1949 C1950 1.379 . S
C1950 H1934 0.931 . S
C1950 C1944 1.383 . S
C1950 C1949 1.379 . S
H1951 C1945 0.959 . S
H1952 C1945 0.961 . S
H1953 C1945 0.960 . S
H1954 C1946 0.930 . S
H1955 C1947 0.929 . S
H1956 C1964 0.929 . S
H1957 C1966 0.930 . S
H1958 C1968 0.930 . S
H1959 C1971 0.929 . S
H1960 C1974 0.930 . S
H1961 C1976 0.960 . S
H1962 C1976 0.960 . S
H1963 C1976 0.960 . S
C1964 H1956 0.929 . S
C1964 C1965 1.377 . S
C1964 C1966 1.384 . S
C1965 C1964 1.377 . S
C1965 C1971 1.390 . S
C1966 H1957 0.930 . S
C1966 C1964 1.384 . S
C1966 C1967 1.372 . S
C1967 C1966 1.372 . S
C1967 C1968 1.400 . S
C1967 C1972 1.490 . S
C1968 H1958 0.930 . S
C1968 C1967 1.400 . S
C1968 C1971 1.386 . S
H1969 C1985 0.930 . S
H1970 C1986 0.931 . S
C1971 H1959 0.929 . S
C1971 C1965 1.390 . S
C1971 C1968 1.386 . S
C1972 C1967 1.490 . S
C1972 C1974 1.395 . S
C1972 C1975 1.403 . S
H1973 C1979 0.930 . S
C1974 H1960 0.930 . S
C1974 C1972 1.395 . S
C1974 C1977 1.403 . S
C1975 C1972 1.403 . S
C1975 C1976 1.524 . S
C1975 C1979 1.400 . S
C1976 H1961 0.960 . S
C1976 H1962 0.960 . S
C1976 H1963 0.960 . S
C1976 C1975 1.524 . S
C1977 C1974 1.403 . S
C1977 C1978 1.392 . S
C1977 C1981 1.495 . S
C1978 C1977 1.392 . S
C1978 C1979 1.385 . S
C1978 C1980 1.478 . S
C1979 H1973 0.930 . S
C1979 C1975 1.400 . S
C1979 C1978 1.385 . S
C1980 C1978 1.478 . S
C1980 C1982 1.381 . S
C1980 C1986 1.383 . S
C1981 C1977 1.495 . S
C1981 H1987 0.959 . S
C1981 H1988 0.961 . S
C1981 H1989 0.960 . S
C1982 C1980 1.381 . S
C1982 C1983 1.394 . S
C1982 H1990 0.930 . S
C1983 C1982 1.394 . S
C1983 C1984 1.383 . S
C1983 H1991 0.929 . S
C1984 C1983 1.383 . S
C1984 C1985 1.377 . S
C1985 H1969 0.930 . S
C1985 C1984 1.377 . S
C1985 C1986 1.379 . S
C1986 H1970 0.931 . S
C1986 C1980 1.383 . S
C1986 C1985 1.379 . S
H1987 C1981 0.959 . S
H1988 C1981 0.961 . S
H1989 C1981 0.960 . S
H1990 C1982 0.930 . S
H1991 C1983 0.929 . S
H1992 C2000 0.929 . S
H1993 C2002 0.930 . S
H1994 C2004 0.930 . S
H1995 C2007 0.929 . S
H1996 C2010 0.930 . S
H1997 C2012 0.960 . S
H1998 C2012 0.960 . S
H1999 C2012 0.960 . S
C2000 H1992 0.929 . S
C2000 C2001 1.377 . S
C2000 C2002 1.384 . S
C2001 C2000 1.377 . S
C2001 C2007 1.390 . S
C2002 H1993 0.930 . S
C2002 C2000 1.384 . S
C2002 C2003 1.372 . S
C2003 C2002 1.372 . S
C2003 C2004 1.400 . S
C2003 C2008 1.490 . S
C2004 H1994 0.930 . S
C2004 C2003 1.400 . S
C2004 C2007 1.386 . S
H2005 C2021 0.930 . S
H2006 C2022 0.931 . S
C2007 H1995 0.929 . S
C2007 C2001 1.390 . S
C2007 C2004 1.386 . S
C2008 C2003 1.490 . S
C2008 C2010 1.395 . S
C2008 C2011 1.403 . S
H2009 C2015 0.930 . S
C2010 H1996 0.930 . S
C2010 C2008 1.395 . S
C2010 C2013 1.403 . S
C2011 C2008 1.403 . S
C2011 C2012 1.524 . S
C2011 C2015 1.400 . S
C2012 H1997 0.960 . S
C2012 H1998 0.960 . S
C2012 H1999 0.960 . S
C2012 C2011 1.524 . S
C2013 C2010 1.403 . S
C2013 C2014 1.392 . S
C2013 C2017 1.495 . S
C2014 C2013 1.392 . S
C2014 C2015 1.385 . S
C2014 C2016 1.478 . S
C2015 H2009 0.930 . S
C2015 C2011 1.400 . S
C2015 C2014 1.385 . S
C2016 C2014 1.478 . S
C2016 C2018 1.381 . S
C2016 C2022 1.383 . S
C2017 C2013 1.495 . S
C2017 H2023 0.959 . S
C2017 H2024 0.961 . S
C2017 H2025 0.960 . S
C2018 C2016 1.381 . S
C2018 C2019 1.394 . S
C2018 H2026 0.930 . S
C2019 C2018 1.394 . S
C2019 C2020 1.383 . S
C2019 H2027 0.929 . S
C2020 C2019 1.383 . S
C2020 C2021 1.377 . S
C2021 H2005 0.930 . S
C2021 C2020 1.377 . S
C2021 C2022 1.379 . S
C2022 H2006 0.931 . S
C2022 C2016 1.383 . S
C2022 C2021 1.379 . S
H2023 C2017 0.959 . S
H2024 C2017 0.961 . S
H2025 C2017 0.960 . S
H2026 C2018 0.930 . S
H2027 C2019 0.929 . S
H2028 C2036 0.929 . S
H2029 C2038 0.930 . S
H2030 C2040 0.930 . S
H2031 C2043 0.929 . S
H2032 C2046 0.930 . S
H2033 C2048 0.960 . S
H2034 C2048 0.960 . S
H2035 C2048 0.960 . S
C2036 H2028 0.929 . S
C2036 C2037 1.377 . S
C2036 C2038 1.384 . S
C2037 C2036 1.377 . S
C2037 C2043 1.390 . S
C2038 H2029 0.930 . S
C2038 C2036 1.384 . S
C2038 C2039 1.372 . S
C2039 C2038 1.372 . S
C2039 C2040 1.400 . S
C2039 C2044 1.490 . S
C2040 H2030 0.930 . S
C2040 C2039 1.400 . S
C2040 C2043 1.386 . S
H2041 C2057 0.930 . S
H2042 C2058 0.931 . S
C2043 H2031 0.929 . S
C2043 C2037 1.390 . S
C2043 C2040 1.386 . S
C2044 C2039 1.490 . S
C2044 C2046 1.395 . S
C2044 C2047 1.403 . S
H2045 C2051 0.930 . S
C2046 H2032 0.930 . S
C2046 C2044 1.395 . S
C2046 C2049 1.403 . S
C2047 C2044 1.403 . S
C2047 C2048 1.524 . S
C2047 C2051 1.400 . S
C2048 H2033 0.960 . S
C2048 H2034 0.960 . S
C2048 H2035 0.960 . S
C2048 C2047 1.524 . S
C2049 C2046 1.403 . S
C2049 C2050 1.392 . S
C2049 C2053 1.495 . S
C2050 C2049 1.392 . S
C2050 C2051 1.385 . S
C2050 C2052 1.478 . S
C2051 H2045 0.930 . S
C2051 C2047 1.400 . S
C2051 C2050 1.385 . S
C2052 C2050 1.478 . S
C2052 C2054 1.381 . S
C2052 C2058 1.383 . S
C2053 C2049 1.495 . S
C2053 H2059 0.959 . S
C2053 H2060 0.961 . S
C2053 H2061 0.960 . S
C2054 C2052 1.381 . S
C2054 C2055 1.394 . S
C2054 H2062 0.930 . S
C2055 C2054 1.394 . S
C2055 C2056 1.383 . S
C2055 H2063 0.929 . S
C2056 C2055 1.383 . S
C2056 C2057 1.377 . S
C2057 H2041 0.930 . S
C2057 C2056 1.377 . S
C2057 C2058 1.379 . S
C2058 H2042 0.931 . S
C2058 C2052 1.383 . S
C2058 C2057 1.379 . S
H2059 C2053 0.959 . S
H2060 C2053 0.961 . S
H2061 C2053 0.960 . S
H2062 C2054 0.930 . S
H2063 C2055 0.929 . S
H2064 C2072 0.929 . S
H2065 C2074 0.930 . S
H2066 C2076 0.930 . S
H2067 C2079 0.929 . S
H2068 C2082 0.930 . S
H2069 C2084 0.960 . S
H2070 C2084 0.960 . S
H2071 C2084 0.960 . S
C2072 H2064 0.929 . S
C2072 C2073 1.377 . S
C2072 C2074 1.384 . S
C2073 C2072 1.377 . S
C2073 C2079 1.390 . S
C2074 H2065 0.930 . S
C2074 C2072 1.384 . S
C2074 C2075 1.372 . S
C2075 C2074 1.372 . S
C2075 C2076 1.400 . S
C2075 C2080 1.490 . S
C2076 H2066 0.930 . S
C2076 C2075 1.400 . S
C2076 C2079 1.386 . S
H2077 C2093 0.930 . S
H2078 C2094 0.931 . S
C2079 H2067 0.929 . S
C2079 C2073 1.390 . S
C2079 C2076 1.386 . S
C2080 C2075 1.490 . S
C2080 C2082 1.395 . S
C2080 C2083 1.403 . S
H2081 C2087 0.930 . S
C2082 H2068 0.930 . S
C2082 C2080 1.395 . S
C2082 C2085 1.403 . S
C2083 C2080 1.403 . S
C2083 C2084 1.524 . S
C2083 C2087 1.400 . S
C2084 H2069 0.960 . S
C2084 H2070 0.960 . S
C2084 H2071 0.960 . S
C2084 C2083 1.524 . S
C2085 C2082 1.403 . S
C2085 C2086 1.392 . S
C2085 C2089 1.495 . S
C2086 C2085 1.392 . S
C2086 C2087 1.385 . S
C2086 C2088 1.478 . S
C2087 H2081 0.930 . S
C2087 C2083 1.400 . S
C2087 C2086 1.385 . S
C2088 C2086 1.478 . S
C2088 C2090 1.381 . S
C2088 C2094 1.383 . S
C2089 C2085 1.495 . S
C2089 H2095 0.959 . S
C2089 H2096 0.961 . S
C2089 H2097 0.960 . S
C2090 C2088 1.381 . S
C2090 C2091 1.394 . S
C2090 H2098 0.930 . S
C2091 C2090 1.394 . S
C2091 C2092 1.383 . S
C2091 H2099 0.929 . S
C2092 C2091 1.383 . S
C2092 C2093 1.377 . S
C2093 H2077 0.930 . S
C2093 C2092 1.377 . S
C2093 C2094 1.379 . S
C2094 H2078 0.931 . S
C2094 C2088 1.383 . S
C2094 C2093 1.379 . S
H2095 C2089 0.959 . S
H2096 C2089 0.961 . S
H2097 C2089 0.960 . S
H2098 C2090 0.930 . S
H2099 C2091 0.929 . S
H2100 C2108 0.929 . S
H2101 C2110 0.930 . S
H2102 C2112 0.930 . S
H2103 C2115 0.929 . S
H2104 C2118 0.930 . S
H2105 C2120 0.960 . S
H2106 C2120 0.960 . S
H2107 C2120 0.960 . S
C2108 H2100 0.929 . S
C2108 C2109 1.377 . S
C2108 C2110 1.384 . S
C2109 C2108 1.377 . S
C2109 C2115 1.390 . S
C2110 H2101 0.930 . S
C2110 C2108 1.384 . S
C2110 C2111 1.372 . S
C2111 C2110 1.372 . S
C2111 C2112 1.400 . S
C2111 C2116 1.490 . S
C2112 H2102 0.930 . S
C2112 C2111 1.400 . S
C2112 C2115 1.386 . S
H2113 C2129 0.930 . S
H2114 C2130 0.931 . S
C2115 H2103 0.929 . S
C2115 C2109 1.390 . S
C2115 C2112 1.386 . S
C2116 C2111 1.490 . S
C2116 C2118 1.395 . S
C2116 C2119 1.403 . S
H2117 C2123 0.930 . S
C2118 H2104 0.930 . S
C2118 C2116 1.395 . S
C2118 C2121 1.403 . S
C2119 C2116 1.403 . S
C2119 C2120 1.524 . S
C2119 C2123 1.400 . S
C2120 H2105 0.960 . S
C2120 H2106 0.960 . S
C2120 H2107 0.960 . S
C2120 C2119 1.524 . S
C2121 C2118 1.403 . S
C2121 C2122 1.392 . S
C2121 C2125 1.495 . S
C2122 C2121 1.392 . S
C2122 C2123 1.385 . S
C2122 C2124 1.478 . S
C2123 H2117 0.930 . S
C2123 C2119 1.400 . S
C2123 C2122 1.385 . S
C2124 C2122 1.478 . S
C2124 C2126 1.381 . S
C2124 C2130 1.383 . S
C2125 C2121 1.495 . S
C2125 H2131 0.959 . S
C2125 H2132 0.961 . S
C2125 H2133 0.960 . S
C2126 C2124 1.381 . S
C2126 C2127 1.394 . S
C2126 H2134 0.930 . S
C2127 C2126 1.394 . S
C2127 C2128 1.383 . S
C2127 H2135 0.929 . S
C2128 C2127 1.383 . S
C2128 C2129 1.377 . S
C2129 H2113 0.930 . S
C2129 C2128 1.377 . S
C2129 C2130 1.379 . S
C2130 H2114 0.931 . S
C2130 C2124 1.383 . S
C2130 C2129 1.379 . S
H2131 C2125 0.959 . S
H2132 C2125 0.961 . S
H2133 C2125 0.960 . S
H2134 C2126 0.930 . S
H2135 C2127 0.929 . S
H2136 C2144 0.929 . S
H2137 C2146 0.930 . S
H2138 C2148 0.930 . S
H2139 C2151 0.929 . S
H2140 C2154 0.930 . S
H2141 C2156 0.960 . S
H2142 C2156 0.960 . S
H2143 C2156 0.960 . S
C2144 H2136 0.929 . S
C2144 C2145 1.377 . S
C2144 C2146 1.384 . S
C2145 C2144 1.377 . S
C2145 C2151 1.390 . S
C2146 H2137 0.930 . S
C2146 C2144 1.384 . S
C2146 C2147 1.372 . S
C2147 C2146 1.372 . S
C2147 C2148 1.400 . S
C2147 C2152 1.490 . S
C2148 H2138 0.930 . S
C2148 C2147 1.400 . S
C2148 C2151 1.386 . S
H2149 C2165 0.930 . S
H2150 C2166 0.931 . S
C2151 H2139 0.929 . S
C2151 C2145 1.390 . S
C2151 C2148 1.386 . S
C2152 C2147 1.490 . S
C2152 C2154 1.395 . S
C2152 C2155 1.403 . S
H2153 C2159 0.930 . S
C2154 H2140 0.930 . S
C2154 C2152 1.395 . S
C2154 C2157 1.403 . S
C2155 C2152 1.403 . S
C2155 C2156 1.524 . S
C2155 C2159 1.400 . S
C2156 H2141 0.960 . S
C2156 H2142 0.960 . S
C2156 H2143 0.960 . S
C2156 C2155 1.524 . S
C2157 C2154 1.403 . S
C2157 C2158 1.392 . S
C2157 C2161 1.495 . S
C2158 C2157 1.392 . S
C2158 C2159 1.385 . S
C2158 C2160 1.478 . S
C2159 H2153 0.930 . S
C2159 C2155 1.400 . S
C2159 C2158 1.385 . S
C2160 C2158 1.478 . S
C2160 C2162 1.381 . S
C2160 C2166 1.383 . S
C2161 C2157 1.495 . S
C2161 H2167 0.959 . S
C2161 H2168 0.961 . S
C2161 H2169 0.960 . S
C2162 C2160 1.381 . S
C2162 C2163 1.394 . S
C2162 H2170 0.930 . S
C2163 C2162 1.394 . S
C2163 C2164 1.383 . S
C2163 H2171 0.929 . S
C2164 C2163 1.383 . S
C2164 C2165 1.377 . S
C2165 H2149 0.930 . S
C2165 C2164 1.377 . S
C2165 C2166 1.379 . S
C2166 H2150 0.931 . S
C2166 C2160 1.383 . S
C2166 C2165 1.379 . S
H2167 C2161 0.959 . S
H2168 C2161 0.961 . S
H2169 C2161 0.960 . S
H2170 C2162 0.930 . S
H2171 C2163 0.929 . S
H2172 C2180 0.929 . S
H2173 C2182 0.930 . S
H2174 C2184 0.930 . S
H2175 C2187 0.929 . S
H2176 C2190 0.930 . S
H2177 C2192 0.960 . S
H2178 C2192 0.960 . S
H2179 C2192 0.960 . S
C2180 H2172 0.929 . S
C2180 C2181 1.377 . S
C2180 C2182 1.384 . S
C2181 C2180 1.377 . S
C2181 C2187 1.390 . S
C2182 H2173 0.930 . S
C2182 C2180 1.384 . S
C2182 C2183 1.372 . S
C2183 C2182 1.372 . S
C2183 C2184 1.400 . S
C2183 C2188 1.490 . S
C2184 H2174 0.930 . S
C2184 C2183 1.400 . S
C2184 C2187 1.386 . S
H2185 C2201 0.930 . S
H2186 C2202 0.931 . S
C2187 H2175 0.929 . S
C2187 C2181 1.390 . S
C2187 C2184 1.386 . S
C2188 C2183 1.490 . S
C2188 C2190 1.395 . S
C2188 C2191 1.403 . S
H2189 C2195 0.930 . S
C2190 H2176 0.930 . S
C2190 C2188 1.395 . S
C2190 C2193 1.403 . S
C2191 C2188 1.403 . S
C2191 C2192 1.524 . S
C2191 C2195 1.400 . S
C2192 H2177 0.960 . S
C2192 H2178 0.960 . S
C2192 H2179 0.960 . S
C2192 C2191 1.524 . S
C2193 C2190 1.403 . S
C2193 C2194 1.392 . S
C2193 C2197 1.495 . S
C2194 C2193 1.392 . S
C2194 C2195 1.385 . S
C2194 C2196 1.478 . S
C2195 H2189 0.930 . S
C2195 C2191 1.400 . S
C2195 C2194 1.385 . S
C2196 C2194 1.478 . S
C2196 C2198 1.381 . S
C2196 C2202 1.383 . S
C2197 C2193 1.495 . S
C2197 H2203 0.959 . S
C2197 H2204 0.961 . S
C2197 H2205 0.960 . S
C2198 C2196 1.381 . S
C2198 C2199 1.394 . S
C2198 H2206 0.930 . S
C2199 C2198 1.394 . S
C2199 C2200 1.383 . S
C2199 H2207 0.929 . S
C2200 C2199 1.383 . S
C2200 C2201 1.377 . S
C2201 H2185 0.930 . S
C2201 C2200 1.377 . S
C2201 C2202 1.379 . S
C2202 H2186 0.931 . S
C2202 C2196 1.383 . S
C2202 C2201 1.379 . S
H2203 C2197 0.959 . S
H2204 C2197 0.961 . S
H2205 C2197 0.960 . S
H2206 C2198 0.930 . S
H2207 C2199 0.929 . S
H2208 C2216 0.929 . S
H2209 C2218 0.930 . S
H2210 C2220 0.930 . S
H2211 C2223 0.929 . S
H2212 C2226 0.930 . S
H2213 C2228 0.960 . S
H2214 C2228 0.960 . S
H2215 C2228 0.960 . S
C2216 H2208 0.929 . S
C2216 C2217 1.377 . S
C2216 C2218 1.384 . S
C2217 C2216 1.377 . S
C2217 C2223 1.390 . S
C2218 H2209 0.930 . S
C2218 C2216 1.384 . S
C2218 C2219 1.372 . S
C2219 C2218 1.372 . S
C2219 C2220 1.400 . S
C2219 C2224 1.490 . S
C2220 H2210 0.930 . S
C2220 C2219 1.400 . S
C2220 C2223 1.386 . S
H2221 C2237 0.930 . S
H2222 C2238 0.931 . S
C2223 H2211 0.929 . S
C2223 C2217 1.390 . S
C2223 C2220 1.386 . S
C2224 C2219 1.490 . S
C2224 C2226 1.395 . S
C2224 C2227 1.403 . S
H2225 C2231 0.930 . S
C2226 H2212 0.930 . S
C2226 C2224 1.395 . S
C2226 C2229 1.403 . S
C2227 C2224 1.403 . S
C2227 C2228 1.524 . S
C2227 C2231 1.400 . S
C2228 H2213 0.960 . S
C2228 H2214 0.960 . S
C2228 H2215 0.960 . S
C2228 C2227 1.524 . S
C2229 C2226 1.403 . S
C2229 C2230 1.392 . S
C2229 C2233 1.495 . S
C2230 C2229 1.392 . S
C2230 C2231 1.385 . S
C2230 C2232 1.478 . S
C2231 H2225 0.930 . S
C2231 C2227 1.400 . S
C2231 C2230 1.385 . S
C2232 C2230 1.478 . S
C2232 C2234 1.381 . S
C2232 C2238 1.383 . S
C2233 C2229 1.495 . S
C2233 H2239 0.959 . S
C2233 H2240 0.961 . S
C2233 H2241 0.960 . S
C2234 C2232 1.381 . S
C2234 C2235 1.394 . S
C2234 H2242 0.930 . S
C2235 C2234 1.394 . S
C2235 C2236 1.383 . S
C2235 H2243 0.929 . S
C2236 C2235 1.383 . S
C2236 C2237 1.377 . S
C2237 H2221 0.930 . S
C2237 C2236 1.377 . S
C2237 C2238 1.379 . S
C2238 H2222 0.931 . S
C2238 C2232 1.383 . S
C2238 C2237 1.379 . S
H2239 C2233 0.959 . S
H2240 C2233 0.961 . S
H2241 C2233 0.960 . S
H2242 C2234 0.930 . S
H2243 C2235 0.929 . S
H2244 C2252 0.929 . S
H2245 C2254 0.930 . S
H2246 C2256 0.930 . S
H2247 C2259 0.929 . S
H2248 C2262 0.930 . S
H2249 C2264 0.960 . S
H2250 C2264 0.960 . S
H2251 C2264 0.960 . S
C2252 H2244 0.929 . S
C2252 C2253 1.377 . S
C2252 C2254 1.384 . S
C2253 C2252 1.377 . S
C2253 C2259 1.390 . S
C2254 H2245 0.930 . S
C2254 C2252 1.384 . S
C2254 C2255 1.372 . S
C2255 C2254 1.372 . S
C2255 C2256 1.400 . S
C2255 C2260 1.490 . S
C2256 H2246 0.930 . S
C2256 C2255 1.400 . S
C2256 C2259 1.386 . S
H2257 C2273 0.930 . S
H2258 C2274 0.931 . S
C2259 H2247 0.929 . S
C2259 C2253 1.390 . S
C2259 C2256 1.386 . S
C2260 C2255 1.490 . S
C2260 C2262 1.395 . S
C2260 C2263 1.403 . S
H2261 C2267 0.930 . S
C2262 H2248 0.930 . S
C2262 C2260 1.395 . S
C2262 C2265 1.403 . S
C2263 C2260 1.403 . S
C2263 C2264 1.524 . S
C2263 C2267 1.400 . S
C2264 H2249 0.960 . S
C2264 H2250 0.960 . S
C2264 H2251 0.960 . S
C2264 C2263 1.524 . S
C2265 C2262 1.403 . S
C2265 C2266 1.392 . S
C2265 C2269 1.495 . S
C2266 C2265 1.392 . S
C2266 C2267 1.385 . S
C2266 C2268 1.478 . S
C2267 H2261 0.930 . S
C2267 C2263 1.400 . S
C2267 C2266 1.385 . S
C2268 C2266 1.478 . S
C2268 C2270 1.381 . S
C2268 C2274 1.383 . S
C2269 C2265 1.495 . S
C2269 H2275 0.959 . S
C2269 H2276 0.961 . S
C2269 H2277 0.960 . S
C2270 C2268 1.381 . S
C2270 C2271 1.394 . S
C2270 H2278 0.930 . S
C2271 C2270 1.394 . S
C2271 C2272 1.383 . S
C2271 H2279 0.929 . S
C2272 C2271 1.383 . S
C2272 C2273 1.377 . S
C2273 H2257 0.930 . S
C2273 C2272 1.377 . S
C2273 C2274 1.379 . S
C2274 H2258 0.931 . S
C2274 C2268 1.383 . S
C2274 C2273 1.379 . S
H2275 C2269 0.959 . S
H2276 C2269 0.961 . S
H2277 C2269 0.960 . S
H2278 C2270 0.930 . S
H2279 C2271 0.929 . S
H2280 C2288 0.929 . S
H2281 C2290 0.930 . S
H2282 C2292 0.930 . S
H2283 C2295 0.929 . S
H2284 C2298 0.930 . S
H2285 C2300 0.960 . S
H2286 C2300 0.960 . S
H2287 C2300 0.960 . S
C2288 H2280 0.929 . S
C2288 C2289 1.377 . S
C2288 C2290 1.384 . S
C2289 C2288 1.377 . S
C2289 C2295 1.390 . S
C2290 H2281 0.930 . S
C2290 C2288 1.384 . S
C2290 C2291 1.372 . S
C2291 C2290 1.372 . S
C2291 C2292 1.400 . S
C2291 C2296 1.490 . S
C2292 H2282 0.930 . S
C2292 C2291 1.400 . S
C2292 C2295 1.386 . S
H2293 C2309 0.930 . S
H2294 C2310 0.931 . S
C2295 H2283 0.929 . S
C2295 C2289 1.390 . S
C2295 C2292 1.386 . S
C2296 C2291 1.490 . S
C2296 C2298 1.395 . S
C2296 C2299 1.403 . S
H2297 C2303 0.930 . S
C2298 H2284 0.930 . S
C2298 C2296 1.395 . S
C2298 C2301 1.403 . S
C2299 C2296 1.403 . S
C2299 C2300 1.524 . S
C2299 C2303 1.400 . S
C2300 H2285 0.960 . S
C2300 H2286 0.960 . S
C2300 H2287 0.960 . S
C2300 C2299 1.524 . S
C2301 C2298 1.403 . S
C2301 C2302 1.392 . S
C2301 C2305 1.495 . S
C2302 C2301 1.392 . S
C2302 C2303 1.385 . S
C2302 C2304 1.478 . S
C2303 H2297 0.930 . S
C2303 C2299 1.400 . S
C2303 C2302 1.385 . S
C2304 C2302 1.478 . S
C2304 C2306 1.381 . S
C2304 C2310 1.383 . S
C2305 C2301 1.495 . S
C2305 H2311 0.959 . S
C2305 H2312 0.961 . S
C2305 H2313 0.960 . S
C2306 C2304 1.381 . S
C2306 C2307 1.394 . S
C2306 H2314 0.930 . S
C2307 C2306 1.394 . S
C2307 C2308 1.383 . S
C2307 H2315 0.929 . S
C2308 C2307 1.383 . S
C2308 C2309 1.377 . S
C2309 H2293 0.930 . S
C2309 C2308 1.377 . S
C2309 C2310 1.379 . S
C2310 H2294 0.931 . S
C2310 C2304 1.383 . S
C2310 C2309 1.379 . S
H2311 C2305 0.959 . S
H2312 C2305 0.961 . S
H2313 C2305 0.960 . S
H2314 C2306 0.930 . S
H2315 C2307 0.929 . S
H2316 C2324 0.929 . S
H2317 C2326 0.930 . S
H2318 C2328 0.930 . S
H2319 C2331 0.929 . S
H2320 C2334 0.930 . S
H2321 C2336 0.960 . S
H2322 C2336 0.960 . S
H2323 C2336 0.960 . S
C2324 H2316 0.929 . S
C2324 C2325 1.377 . S
C2324 C2326 1.384 . S
C2325 C2324 1.377 . S
C2325 C2331 1.390 . S
C2326 H2317 0.930 . S
C2326 C2324 1.384 . S
C2326 C2327 1.372 . S
C2327 C2326 1.372 . S
C2327 C2328 1.400 . S
C2327 C2332 1.490 . S
C2328 H2318 0.930 . S
C2328 C2327 1.400 . S
C2328 C2331 1.386 . S
H2329 C2345 0.930 . S
H2330 C2346 0.931 . S
C2331 H2319 0.929 . S
C2331 C2325 1.390 . S
C2331 C2328 1.386 . S
C2332 C2327 1.490 . S
C2332 C2334 1.395 . S
C2332 C2335 1.403 . S
H2333 C2339 0.930 . S
C2334 H2320 0.930 . S
C2334 C2332 1.395 . S
C2334 C2337 1.403 . S
C2335 C2332 1.403 . S
C2335 C2336 1.524 . S
C2335 C2339 1.400 . S
C2336 H2321 0.960 . S
C2336 H2322 0.960 . S
C2336 H2323 0.960 . S
C2336 C2335 1.524 . S
C2337 C2334 1.403 . S
C2337 C2338 1.392 . S
C2337 C2341 1.495 . S
C2338 C2337 1.392 . S
C2338 C2339 1.385 . S
C2338 C2340 1.478 . S
C2339 H2333 0.930 . S
C2339 C2335 1.400 . S
C2339 C2338 1.385 . S
C2340 C2338 1.478 . S
C2340 C2342 1.381 . S
C2340 C2346 1.383 . S
C2341 C2337 1.495 . S
C2341 H2347 0.959 . S
C2341 H2348 0.961 . S
C2341 H2349 0.960 . S
C2342 C2340 1.381 . S
C2342 C2343 1.394 . S
C2342 H2350 0.930 . S
C2343 C2342 1.394 . S
C2343 C2344 1.383 . S
C2343 H2351 0.929 . S
C2344 C2343 1.383 . S
C2344 C2345 1.377 . S
C2345 H2329 0.930 . S
C2345 C2344 1.377 . S
C2345 C2346 1.379 . S
C2346 H2330 0.931 . S
C2346 C2340 1.383 . S
C2346 C2345 1.379 . S
H2347 C2341 0.959 . S
H2348 C2341 0.961 . S
H2349 C2341 0.960 . S
H2350 C2342 0.930 . S
H2351 C2343 0.929 . S
H2352 C2360 0.929 . S
H2353 C2362 0.930 . S
H2354 C2364 0.930 . S
H2355 C2367 0.929 . S
H2356 C2370 0.930 . S
H2357 C2372 0.960 . S
H2358 C2372 0.960 . S
H2359 C2372 0.960 . S
C2360 H2352 0.929 . S
C2360 C2361 1.377 . S
C2360 C2362 1.384 . S
C2361 C2360 1.377 . S
C2361 C2367 1.390 . S
C2362 H2353 0.930 . S
C2362 C2360 1.384 . S
C2362 C2363 1.372 . S
C2363 C2362 1.372 . S
C2363 C2364 1.400 . S
C2363 C2368 1.490 . S
C2364 H2354 0.930 . S
C2364 C2363 1.400 . S
C2364 C2367 1.386 . S
H2365 C2381 0.930 . S
H2366 C2382 0.931 . S
C2367 H2355 0.929 . S
C2367 C2361 1.390 . S
C2367 C2364 1.386 . S
C2368 C2363 1.490 . S
C2368 C2370 1.395 . S
C2368 C2371 1.403 . S
H2369 C2375 0.930 . S
C2370 H2356 0.930 . S
C2370 C2368 1.395 . S
C2370 C2373 1.403 . S
C2371 C2368 1.403 . S
C2371 C2372 1.524 . S
C2371 C2375 1.400 . S
C2372 H2357 0.960 . S
C2372 H2358 0.960 . S
C2372 H2359 0.960 . S
C2372 C2371 1.524 . S
C2373 C2370 1.403 . S
C2373 C2374 1.392 . S
C2373 C2377 1.495 . S
C2374 C2373 1.392 . S
C2374 C2375 1.385 . S
C2374 C2376 1.478 . S
C2375 H2369 0.930 . S
C2375 C2371 1.400 . S
C2375 C2374 1.385 . S
C2376 C2374 1.478 . S
C2376 C2378 1.381 . S
C2376 C2382 1.383 . S
C2377 C2373 1.495 . S
C2377 H2383 0.959 . S
C2377 H2384 0.961 . S
C2377 H2385 0.960 . S
C2378 C2376 1.381 . S
C2378 C2379 1.394 . S
C2378 H2386 0.930 . S
C2379 C2378 1.394 . S
C2379 C2380 1.383 . S
C2379 H2387 0.929 . S
C2380 C2379 1.383 . S
C2380 C2381 1.377 . S
C2381 H2365 0.930 . S
C2381 C2380 1.377 . S
C2381 C2382 1.379 . S
C2382 H2366 0.931 . S
C2382 C2376 1.383 . S
C2382 C2381 1.379 . S
H2383 C2377 0.959 . S
H2384 C2377 0.961 . S
H2385 C2377 0.960 . S
H2386 C2378 0.930 . S
H2387 C2379 0.929 . S
H2388 C2396 0.929 . S
H2389 C2398 0.930 . S
H2390 C2400 0.930 . S
H2391 C2403 0.929 . S
H2392 C2406 0.930 . S
H2393 C2408 0.960 . S
H2394 C2408 0.960 . S
H2395 C2408 0.960 . S
C2396 H2388 0.929 . S
C2396 C2397 1.377 . S
C2396 C2398 1.384 . S
C2397 C2396 1.377 . S
C2397 C2403 1.390 . S
C2398 H2389 0.930 . S
C2398 C2396 1.384 . S
C2398 C2399 1.372 . S
C2399 C2398 1.372 . S
C2399 C2400 1.400 . S
C2399 C2404 1.490 . S
C2400 H2390 0.930 . S
C2400 C2399 1.400 . S
C2400 C2403 1.386 . S
H2401 C2417 0.930 . S
H2402 C2418 0.931 . S
C2403 H2391 0.929 . S
C2403 C2397 1.390 . S
C2403 C2400 1.386 . S
C2404 C2399 1.490 . S
C2404 C2406 1.395 . S
C2404 C2407 1.403 . S
H2405 C2411 0.930 . S
C2406 H2392 0.930 . S
C2406 C2404 1.395 . S
C2406 C2409 1.403 . S
C2407 C2404 1.403 . S
C2407 C2408 1.524 . S
C2407 C2411 1.400 . S
C2408 H2393 0.960 . S
C2408 H2394 0.960 . S
C2408 H2395 0.960 . S
C2408 C2407 1.524 . S
C2409 C2406 1.403 . S
C2409 C2410 1.392 . S
C2409 C2413 1.495 . S
C2410 C2409 1.392 . S
C2410 C2411 1.385 . S
C2410 C2412 1.478 . S
C2411 H2405 0.930 . S
C2411 C2407 1.400 . S
C2411 C2410 1.385 . S
C2412 C2410 1.478 . S
C2412 C2414 1.381 . S
C2412 C2418 1.383 . S
C2413 C2409 1.495 . S
C2413 H2419 0.959 . S
C2413 H2420 0.961 . S
C2413 H2421 0.960 . S
C2414 C2412 1.381 . S
C2414 C2415 1.394 . S
C2414 H2422 0.930 . S
C2415 C2414 1.394 . S
C2415 C2416 1.383 . S
C2415 H2423 0.929 . S
C2416 C2415 1.383 . S
C2416 C2417 1.377 . S
C2417 H2401 0.930 . S
C2417 C2416 1.377 . S
C2417 C2418 1.379 . S
C2418 H2402 0.931 . S
C2418 C2412 1.383 . S
C2418 C2417 1.379 . S
H2419 C2413 0.959 . S
H2420 C2413 0.961 . S
H2421 C2413 0.960 . S
H2422 C2414 0.930 . S
H2423 C2415 0.929 . S
H2424 C2432 0.929 . S
H2425 C2434 0.930 . S
H2426 C2436 0.930 . S
H2427 C2439 0.929 . S
H2428 C2442 0.930 . S
H2429 C2444 0.960 . S
H2430 C2444 0.960 . S
H2431 C2444 0.960 . S
C2432 H2424 0.929 . S
C2432 C2433 1.377 . S
C2432 C2434 1.384 . S
C2433 C2432 1.377 . S
C2433 C2439 1.390 . S
C2434 H2425 0.930 . S
C2434 C2432 1.384 . S
C2434 C2435 1.372 . S
C2435 C2434 1.372 . S
C2435 C2436 1.400 . S
C2435 C2440 1.490 . S
C2436 H2426 0.930 . S
C2436 C2435 1.400 . S
C2436 C2439 1.386 . S
H2437 C2453 0.930 . S
H2438 C2454 0.931 . S
C2439 H2427 0.929 . S
C2439 C2433 1.390 . S
C2439 C2436 1.386 . S
C2440 C2435 1.490 . S
C2440 C2442 1.395 . S
C2440 C2443 1.403 . S
H2441 C2447 0.930 . S
C2442 H2428 0.930 . S
C2442 C2440 1.395 . S
C2442 C2445 1.403 . S
C2443 C2440 1.403 . S
C2443 C2444 1.524 . S
C2443 C2447 1.400 . S
C2444 H2429 0.960 . S
C2444 H2430 0.960 . S
C2444 H2431 0.960 . S
C2444 C2443 1.524 . S
C2445 C2442 1.403 . S
C2445 C2446 1.392 . S
C2445 C2449 1.495 . S
C2446 C2445 1.392 . S
C2446 C2447 1.385 . S
C2446 C2448 1.478 . S
C2447 H2441 0.930 . S
C2447 C2443 1.400 . S
C2447 C2446 1.385 . S
C2448 C2446 1.478 . S
C2448 C2450 1.381 . S
C2448 C2454 1.383 . S
C2449 C2445 1.495 . S
C2449 H2455 0.959 . S
C2449 H2456 0.961 . S
C2449 H2457 0.960 . S
C2450 C2448 1.381 . S
C2450 C2451 1.394 . S
C2450 H2458 0.930 . S
C2451 C2450 1.394 . S
C2451 C2452 1.383 . S
C2451 H2459 0.929 . S
C2452 C2451 1.383 . S
C2452 C2453 1.377 . S
C2453 H2437 0.930 . S
C2453 C2452 1.377 . S
C2453 C2454 1.379 . S
C2454 H2438 0.931 . S
C2454 C2448 1.383 . S
C2454 C2453 1.379 . S
H2455 C2449 0.959 . S
H2456 C2449 0.961 . S
H2457 C2449 0.960 . S
H2458 C2450 0.930 . S
H2459 C2451 0.929 . S
H2460 C2468 0.929 . S
H2461 C2470 0.930 . S
H2462 C2472 0.930 . S
H2463 C2475 0.929 . S
H2464 C2478 0.930 . S
H2465 C2480 0.960 . S
H2466 C2480 0.960 . S
H2467 C2480 0.960 . S
C2468 H2460 0.929 . S
C2468 C2469 1.377 . S
C2468 C2470 1.384 . S
C2469 C2468 1.377 . S
C2469 C2475 1.390 . S
C2470 H2461 0.930 . S
C2470 C2468 1.384 . S
C2470 C2471 1.372 . S
C2471 C2470 1.372 . S
C2471 C2472 1.400 . S
C2471 C2476 1.490 . S
C2472 H2462 0.930 . S
C2472 C2471 1.400 . S
C2472 C2475 1.386 . S
H2473 C2489 0.930 . S
H2474 C2490 0.931 . S
C2475 H2463 0.929 . S
C2475 C2469 1.390 . S
C2475 C2472 1.386 . S
C2476 C2471 1.490 . S
C2476 C2478 1.395 . S
C2476 C2479 1.403 . S
H2477 C2483 0.930 . S
C2478 H2464 0.930 . S
C2478 C2476 1.395 . S
C2478 C2481 1.403 . S
C2479 C2476 1.403 . S
C2479 C2480 1.524 . S
C2479 C2483 1.400 . S
C2480 H2465 0.960 . S
C2480 H2466 0.960 . S
C2480 H2467 0.960 . S
C2480 C2479 1.524 . S
C2481 C2478 1.403 . S
C2481 C2482 1.392 . S
C2481 C2485 1.495 . S
C2482 C2481 1.392 . S
C2482 C2483 1.385 . S
C2482 C2484 1.478 . S
C2483 H2477 0.930 . S
C2483 C2479 1.400 . S
C2483 C2482 1.385 . S
C2484 C2482 1.478 . S
C2484 C2486 1.381 . S
C2484 C2490 1.383 . S
C2485 C2481 1.495 . S
C2485 H2491 0.959 . S
C2485 H2492 0.961 . S
C2485 H2493 0.960 . S
C2486 C2484 1.381 . S
C2486 C2487 1.394 . S
C2486 H2494 0.930 . S
C2487 C2486 1.394 . S
C2487 C2488 1.383 . S
C2487 H2495 0.929 . S
C2488 C2487 1.383 . S
C2488 C2489 1.377 . S
C2489 H2473 0.930 . S
C2489 C2488 1.377 . S
C2489 C2490 1.379 . S
C2490 H2474 0.931 . S
C2490 C2484 1.383 . S
C2490 C2489 1.379 . S
H2491 C2485 0.959 . S
H2492 C2485 0.961 . S
H2493 C2485 0.960 . S
H2494 C2486 0.930 . S
H2495 C2487 0.929 . S
H2496 C2504 0.929 . S
H2497 C2506 0.930 . S
H2498 C2508 0.930 . S
H2499 C2511 0.929 . S
H2500 C2514 0.930 . S
H2501 C2516 0.960 . S
H2502 C2516 0.960 . S
H2503 C2516 0.960 . S
C2504 H2496 0.929 . S
C2504 C2505 1.377 . S
C2504 C2506 1.384 . S
C2505 C2504 1.377 . S
C2505 C2511 1.390 . S
C2506 H2497 0.930 . S
C2506 C2504 1.384 . S
C2506 C2507 1.372 . S
C2507 C2506 1.372 . S
C2507 C2508 1.400 . S
C2507 C2512 1.490 . S
C2508 H2498 0.930 . S
C2508 C2507 1.400 . S
C2508 C2511 1.386 . S
H2509 C2525 0.930 . S
H2510 C2526 0.931 . S
C2511 H2499 0.929 . S
C2511 C2505 1.390 . S
C2511 C2508 1.386 . S
C2512 C2507 1.490 . S
C2512 C2514 1.395 . S
C2512 C2515 1.403 . S
H2513 C2519 0.930 . S
C2514 H2500 0.930 . S
C2514 C2512 1.395 . S
C2514 C2517 1.403 . S
C2515 C2512 1.403 . S
C2515 C2516 1.524 . S
C2515 C2519 1.400 . S
C2516 H2501 0.960 . S
C2516 H2502 0.960 . S
C2516 H2503 0.960 . S
C2516 C2515 1.524 . S
C2517 C2514 1.403 . S
C2517 C2518 1.392 . S
C2517 C2521 1.495 . S
C2518 C2517 1.392 . S
C2518 C2519 1.385 . S
C2518 C2520 1.478 . S
C2519 H2513 0.930 . S
C2519 C2515 1.400 . S
C2519 C2518 1.385 . S
C2520 C2518 1.478 . S
C2520 C2522 1.381 . S
C2520 C2526 1.383 . S
C2521 C2517 1.495 . S
C2521 H2527 0.959 . S
C2521 H2528 0.961 . S
C2521 H2529 0.960 . S
C2522 C2520 1.381 . S
C2522 C2523 1.394 . S
C2522 H2530 0.930 . S
C2523 C2522 1.394 . S
C2523 C2524 1.383 . S
C2523 H2531 0.929 . S
C2524 C2523 1.383 . S
C2524 C2525 1.377 . S
C2525 H2509 0.930 . S
C2525 C2524 1.377 . S
C2525 C2526 1.379 . S
C2526 H2510 0.931 . S
C2526 C2520 1.383 . S
C2526 C2525 1.379 . S
H2527 C2521 0.959 . S
H2528 C2521 0.961 . S
H2529 C2521 0.960 . S
H2530 C2522 0.930 . S
H2531 C2523 0.929 . S
H2532 C2540 0.929 . S
H2533 C2542 0.930 . S
H2534 C2544 0.930 . S
H2535 C2547 0.929 . S
H2536 C2550 0.930 . S
H2537 C2552 0.960 . S
H2538 C2552 0.960 . S
H2539 C2552 0.960 . S
C2540 H2532 0.929 . S
C2540 C2541 1.377 . S
C2540 C2542 1.384 . S
C2541 C2540 1.377 . S
C2541 C2547 1.390 . S
C2542 H2533 0.930 . S
C2542 C2540 1.384 . S
C2542 C2543 1.372 . S
C2543 C2542 1.372 . S
C2543 C2544 1.400 . S
C2543 C2548 1.490 . S
C2544 H2534 0.930 . S
C2544 C2543 1.400 . S
C2544 C2547 1.386 . S
H2545 C2561 0.930 . S
H2546 C2562 0.931 . S
C2547 H2535 0.929 . S
C2547 C2541 1.390 . S
C2547 C2544 1.386 . S
C2548 C2543 1.490 . S
C2548 C2550 1.395 . S
C2548 C2551 1.403 . S
H2549 C2555 0.930 . S
C2550 H2536 0.930 . S
C2550 C2548 1.395 . S
C2550 C2553 1.403 . S
C2551 C2548 1.403 . S
C2551 C2552 1.524 . S
C2551 C2555 1.400 . S
C2552 H2537 0.960 . S
C2552 H2538 0.960 . S
C2552 H2539 0.960 . S
C2552 C2551 1.524 . S
C2553 C2550 1.403 . S
C2553 C2554 1.392 . S
C2553 C2557 1.495 . S
C2554 C2553 1.392 . S
C2554 C2555 1.385 . S
C2554 C2556 1.478 . S
C2555 H2549 0.930 . S
C2555 C2551 1.400 . S
C2555 C2554 1.385 . S
C2556 C2554 1.478 . S
C2556 C2558 1.381 . S
C2556 C2562 1.383 . S
C2557 C2553 1.495 . S
C2557 H2563 0.959 . S
C2557 H2564 0.961 . S
C2557 H2565 0.960 . S
C2558 C2556 1.381 . S
C2558 C2559 1.394 . S
C2558 H2566 0.930 . S
C2559 C2558 1.394 . S
C2559 C2560 1.383 . S
C2559 H2567 0.929 . S
C2560 C2559 1.383 . S
C2560 C2561 1.377 . S
C2561 H2545 0.930 . S
C2561 C2560 1.377 . S
C2561 C2562 1.379 . S
C2562 H2546 0.931 . S
C2562 C2556 1.383 . S
C2562 C2561 1.379 . S
H2563 C2557 0.959 . S
H2564 C2557 0.961 . S
H2565 C2557 0.960 . S
H2566 C2558 0.930 . S
H2567 C2559 0.929 . S
H2568 C2576 0.929 . S
H2569 C2578 0.930 . S
H2570 C2580 0.930 . S
H2571 C2583 0.929 . S
H2572 C2586 0.930 . S
H2573 C2588 0.960 . S
H2574 C2588 0.960 . S
H2575 C2588 0.960 . S
C2576 H2568 0.929 . S
C2576 C2577 1.377 . S
C2576 C2578 1.384 . S
C2577 C2576 1.377 . S
C2577 C2583 1.390 . S
C2578 H2569 0.930 . S
C2578 C2576 1.384 . S
C2578 C2579 1.372 . S
C2579 C2578 1.372 . S
C2579 C2580 1.400 . S
C2579 C2584 1.490 . S
C2580 H2570 0.930 . S
C2580 C2579 1.400 . S
C2580 C2583 1.386 . S
H2581 C2597 0.930 . S
H2582 C2598 0.931 . S
C2583 H2571 0.929 . S
C2583 C2577 1.390 . S
C2583 C2580 1.386 . S
C2584 C2579 1.490 . S
C2584 C2586 1.395 . S
C2584 C2587 1.403 . S
H2585 C2591 0.930 . S
C2586 H2572 0.930 . S
C2586 C2584 1.395 . S
C2586 C2589 1.403 . S
C2587 C2584 1.403 . S
C2587 C2588 1.524 . S
C2587 C2591 1.400 . S
C2588 H2573 0.960 . S
C2588 H2574 0.960 . S
C2588 H2575 0.960 . S
C2588 C2587 1.524 . S
C2589 C2586 1.403 . S
C2589 C2590 1.392 . S
C2589 C2593 1.495 . S
C2590 C2589 1.392 . S
C2590 C2591 1.385 . S
C2590 C2592 1.478 . S
C2591 H2585 0.930 . S
C2591 C2587 1.400 . S
C2591 C2590 1.385 . S
C2592 C2590 1.478 . S
C2592 C2594 1.381 . S
C2592 C2598 1.383 . S
C2593 C2589 1.495 . S
C2593 H2599 0.959 . S
C2593 H2600 0.961 . S
C2593 H2601 0.960 . S
C2594 C2592 1.381 . S
C2594 C2595 1.394 . S
C2594 H2602 0.930 . S
C2595 C2594 1.394 . S
C2595 C2596 1.383 . S
C2595 H2603 0.929 . S
C2596 C2595 1.383 . S
C2596 C2597 1.377 . S
C2597 H2581 0.930 . S
C2597 C2596 1.377 . S
C2597 C2598 1.379 . S
C2598 H2582 0.931 . S
C2598 C2592 1.383 . S
C2598 C2597 1.379 . S
H2599 C2593 0.959 . S
H2600 C2593 0.961 . S
H2601 C2593 0.960 . S
H2602 C2594 0.930 . S
H2603 C2595 0.929 . S
H2604 C2612 0.929 . S
H2605 C2614 0.930 . S
H2606 C2616 0.930 . S
H2607 C2619 0.929 . S
H2608 C2622 0.930 . S
H2609 C2624 0.960 . S
H2610 C2624 0.960 . S
H2611 C2624 0.960 . S
C2612 H2604 0.929 . S
C2612 C2613 1.377 . S
C2612 C2614 1.384 . S
C2613 C2612 1.377 . S
C2613 C2619 1.390 . S
C2614 H2605 0.930 . S
C2614 C2612 1.384 . S
C2614 C2615 1.372 . S
C2615 C2614 1.372 . S
C2615 C2616 1.400 . S
C2615 C2620 1.490 . S
C2616 H2606 0.930 . S
C2616 C2615 1.400 . S
C2616 C2619 1.386 . S
H2617 C2633 0.930 . S
H2618 C2634 0.931 . S
C2619 H2607 0.929 . S
C2619 C2613 1.390 . S
C2619 C2616 1.386 . S
C2620 C2615 1.490 . S
C2620 C2622 1.395 . S
C2620 C2623 1.403 . S
H2621 C2627 0.930 . S
C2622 H2608 0.930 . S
C2622 C2620 1.395 . S
C2622 C2625 1.403 . S
C2623 C2620 1.403 . S
C2623 C2624 1.524 . S
C2623 C2627 1.400 . S
C2624 H2609 0.960 . S
C2624 H2610 0.960 . S
C2624 H2611 0.960 . S
C2624 C2623 1.524 . S
C2625 C2622 1.403 . S
C2625 C2626 1.392 . S
C2625 C2629 1.495 . S
C2626 C2625 1.392 . S
C2626 C2627 1.385 . S
C2626 C2628 1.478 . S
C2627 H2621 0.930 . S
C2627 C2623 1.400 . S
C2627 C2626 1.385 . S
C2628 C2626 1.478 . S
C2628 C2630 1.381 . S
C2628 C2634 1.383 . S
C2629 C2625 1.495 . S
C2629 H2635 0.959 . S
C2629 H2636 0.961 . S
C2629 H2637 0.960 . S
C2630 C2628 1.381 . S
C2630 C2631 1.394 . S
C2630 H2638 0.930 . S
C2631 C2630 1.394 . S
C2631 C2632 1.383 . S
C2631 H2639 0.929 . S
C2632 C2631 1.383 . S
C2632 C2633 1.377 . S
C2633 H2617 0.930 . S
C2633 C2632 1.377 . S
C2633 C2634 1.379 . S
C2634 H2618 0.931 . S
C2634 C2628 1.383 . S
C2634 C2633 1.379 . S
H2635 C2629 0.959 . S
H2636 C2629 0.961 . S
H2637 C2629 0.960 . S
H2638 C2630 0.930 . S
H2639 C2631 0.929 . S
H2640 C2648 0.929 . S
H2641 C2650 0.930 . S
H2642 C2652 0.930 . S
H2643 C2655 0.929 . S
H2644 C2658 0.930 . S
H2645 C2660 0.960 . S
H2646 C2660 0.960 . S
H2647 C2660 0.960 . S
C2648 H2640 0.929 . S
C2648 C2649 1.377 . S
C2648 C2650 1.384 . S
C2649 C2648 1.377 . S
C2649 C2655 1.390 . S
C2650 H2641 0.930 . S
C2650 C2648 1.384 . S
C2650 C2651 1.372 . S
C2651 C2650 1.372 . S
C2651 C2652 1.400 . S
C2651 C2656 1.490 . S
C2652 H2642 0.930 . S
C2652 C2651 1.400 . S
C2652 C2655 1.386 . S
H2653 C2669 0.930 . S
H2654 C2670 0.931 . S
C2655 H2643 0.929 . S
C2655 C2649 1.390 . S
C2655 C2652 1.386 . S
C2656 C2651 1.490 . S
C2656 C2658 1.395 . S
C2656 C2659 1.403 . S
H2657 C2663 0.930 . S
C2658 H2644 0.930 . S
C2658 C2656 1.395 . S
C2658 C2661 1.403 . S
C2659 C2656 1.403 . S
C2659 C2660 1.524 . S
C2659 C2663 1.400 . S
C2660 H2645 0.960 . S
C2660 H2646 0.960 . S
C2660 H2647 0.960 . S
C2660 C2659 1.524 . S
C2661 C2658 1.403 . S
C2661 C2662 1.392 . S
C2661 C2665 1.495 . S
C2662 C2661 1.392 . S
C2662 C2663 1.385 . S
C2662 C2664 1.478 . S
C2663 H2657 0.930 . S
C2663 C2659 1.400 . S
C2663 C2662 1.385 . S
C2664 C2662 1.478 . S
C2664 C2666 1.381 . S
C2664 C2670 1.383 . S
C2665 C2661 1.495 . S
C2665 H2671 0.959 . S
C2665 H2672 0.961 . S
C2665 H2673 0.960 . S
C2666 C2664 1.381 . S
C2666 C2667 1.394 . S
C2666 H2674 0.930 . S
C2667 C2666 1.394 . S
C2667 C2668 1.383 . S
C2667 H2675 0.929 . S
C2668 C2667 1.383 . S
C2668 C2669 1.377 . S
C2669 H2653 0.930 . S
C2669 C2668 1.377 . S
C2669 C2670 1.379 . S
C2670 H2654 0.931 . S
C2670 C2664 1.383 . S
C2670 C2669 1.379 . S
H2671 C2665 0.959 . S
H2672 C2665 0.961 . S
H2673 C2665 0.960 . S
H2674 C2666 0.930 . S
H2675 C2667 0.929 . S
H2676 C2684 0.929 . S
H2677 C2686 0.930 . S
H2678 C2688 0.930 . S
H2679 C2691 0.929 . S
H2680 C2694 0.930 . S
H2681 C2696 0.960 . S
H2682 C2696 0.960 . S
H2683 C2696 0.960 . S
C2684 H2676 0.929 . S
C2684 C2685 1.377 . S
C2684 C2686 1.384 . S
C2685 C2684 1.377 . S
C2685 C2691 1.390 . S
C2686 H2677 0.930 . S
C2686 C2684 1.384 . S
C2686 C2687 1.372 . S
C2687 C2686 1.372 . S
C2687 C2688 1.400 . S
C2687 C2692 1.490 . S
C2688 H2678 0.930 . S
C2688 C2687 1.400 . S
C2688 C2691 1.386 . S
H2689 C2705 0.930 . S
H2690 C2706 0.931 . S
C2691 H2679 0.929 . S
C2691 C2685 1.390 . S
C2691 C2688 1.386 . S
C2692 C2687 1.490 . S
C2692 C2694 1.395 . S
C2692 C2695 1.403 . S
H2693 C2699 0.930 . S
C2694 H2680 0.930 . S
C2694 C2692 1.395 . S
C2694 C2697 1.403 . S
C2695 C2692 1.403 . S
C2695 C2696 1.524 . S
C2695 C2699 1.400 . S
C2696 H2681 0.960 . S
C2696 H2682 0.960 . S
C2696 H2683 0.960 . S
C2696 C2695 1.524 . S
C2697 C2694 1.403 . S
C2697 C2698 1.392 . S
C2697 C2701 1.495 . S
C2698 C2697 1.392 . S
C2698 C2699 1.385 . S
C2698 C2700 1.478 . S
C2699 H2693 0.930 . S
C2699 C2695 1.400 . S
C2699 C2698 1.385 . S
C2700 C2698 1.478 . S
C2700 C2702 1.381 . S
C2700 C2706 1.383 . S
C2701 C2697 1.495 . S
C2701 H2707 0.959 . S
C2701 H2708 0.961 . S
C2701 H2709 0.960 . S
C2702 C2700 1.381 . S
C2702 C2703 1.394 . S
C2702 H2710 0.930 . S
C2703 C2702 1.394 . S
C2703 C2704 1.383 . S
C2703 H2711 0.929 . S
C2704 C2703 1.383 . S
C2704 C2705 1.377 . S
C2705 H2689 0.930 . S
C2705 C2704 1.377 . S
C2705 C2706 1.379 . S
C2706 H2690 0.931 . S
C2706 C2700 1.383 . S
C2706 C2705 1.379 . S
H2707 C2701 0.959 . S
H2708 C2701 0.961 . S
H2709 C2701 0.960 . S
H2710 C2702 0.930 . S
H2711 C2703 0.929 . S
H2712 C2720 0.929 . S
H2713 C2722 0.930 . S
H2714 C2724 0.930 . S
H2715 C2727 0.929 . S
H2716 C2730 0.930 . S
H2717 C2732 0.960 . S
H2718 C2732 0.960 . S
H2719 C2732 0.960 . S
C2720 H2712 0.929 . S
C2720 C2721 1.377 . S
C2720 C2722 1.384 . S
C2721 C2720 1.377 . S
C2721 C2727 1.390 . S
C2722 H2713 0.930 . S
C2722 C2720 1.384 . S
C2722 C2723 1.372 . S
C2723 C2722 1.372 . S
C2723 C2724 1.400 . S
C2723 C2728 1.490 . S
C2724 H2714 0.930 . S
C2724 C2723 1.400 . S
C2724 C2727 1.386 . S
H2725 C2741 0.930 . S
H2726 C2742 0.931 . S
C2727 H2715 0.929 . S
C2727 C2721 1.390 . S
C2727 C2724 1.386 . S
C2728 C2723 1.490 . S
C2728 C2730 1.395 . S
C2728 C2731 1.403 . S
H2729 C2735 0.930 . S
C2730 H2716 0.930 . S
C2730 C2728 1.395 . S
C2730 C2733 1.403 . S
C2731 C2728 1.403 . S
C2731 C2732 1.524 . S
C2731 C2735 1.400 . S
C2732 H2717 0.960 . S
C2732 H2718 0.960 . S
C2732 H2719 0.960 . S
C2732 C2731 1.524 . S
C2733 C2730 1.403 . S
C2733 C2734 1.392 . S
C2733 C2737 1.495 . S
C2734 C2733 1.392 . S
C2734 C2735 1.385 . S
C2734 C2736 1.478 . S
C2735 H2729 0.930 . S
C2735 C2731 1.400 . S
C2735 C2734 1.385 . S
C2736 C2734 1.478 . S
C2736 C2738 1.381 . S
C2736 C2742 1.383 . S
C2737 C2733 1.495 . S
C2737 H2743 0.959 . S
C2737 H2744 0.961 . S
C2737 H2745 0.960 . S
C2738 C2736 1.381 . S
C2738 C2739 1.394 . S
C2738 H2746 0.930 . S
C2739 C2738 1.394 . S
C2739 C2740 1.383 . S
C2739 H2747 0.929 . S
C2740 C2739 1.383 . S
C2740 C2741 1.377 . S
C2741 H2725 0.930 . S
C2741 C2740 1.377 . S
C2741 C2742 1.379 . S
C2742 H2726 0.931 . S
C2742 C2736 1.383 . S
C2742 C2741 1.379 . S
H2743 C2737 0.959 . S
H2744 C2737 0.961 . S
H2745 C2737 0.960 . S
H2746 C2738 0.930 . S
H2747 C2739 0.929 . S
H2748 C2756 0.929 . S
H2749 C2758 0.930 . S
H2750 C2760 0.930 . S
H2751 C2763 0.929 . S
H2752 C2766 0.930 . S
H2753 C2768 0.960 . S
H2754 C2768 0.960 . S
H2755 C2768 0.960 . S
C2756 H2748 0.929 . S
C2756 C2757 1.377 . S
C2756 C2758 1.384 . S
C2757 C2756 1.377 . S
C2757 C2763 1.390 . S
C2758 H2749 0.930 . S
C2758 C2756 1.384 . S
C2758 C2759 1.372 . S
C2759 C2758 1.372 . S
C2759 C2760 1.400 . S
C2759 C2764 1.490 . S
C2760 H2750 0.930 . S
C2760 C2759 1.400 . S
C2760 C2763 1.386 . S
H2761 C2777 0.930 . S
H2762 C2778 0.931 . S
C2763 H2751 0.929 . S
C2763 C2757 1.390 . S
C2763 C2760 1.386 . S
C2764 C2759 1.490 . S
C2764 C2766 1.395 . S
C2764 C2767 1.403 . S
H2765 C2771 0.930 . S
C2766 H2752 0.930 . S
C2766 C2764 1.395 . S
C2766 C2769 1.403 . S
C2767 C2764 1.403 . S
C2767 C2768 1.524 . S
C2767 C2771 1.400 . S
C2768 H2753 0.960 . S
C2768 H2754 0.960 . S
C2768 H2755 0.960 . S
C2768 C2767 1.524 . S
C2769 C2766 1.403 . S
C2769 C2770 1.392 . S
C2769 C2773 1.495 . S
C2770 C2769 1.392 . S
C2770 C2771 1.385 . S
C2770 C2772 1.478 . S
C2771 H2765 0.930 . S
C2771 C2767 1.400 . S
C2771 C2770 1.385 . S
C2772 C2770 1.478 . S
C2772 C2774 1.381 . S
C2772 C2778 1.383 . S
C2773 C2769 1.495 . S
C2773 H2779 0.959 . S
C2773 H2780 0.961 . S
C2773 H2781 0.960 . S
C2774 C2772 1.381 . S
C2774 C2775 1.394 . S
C2774 H2782 0.930 . S
C2775 C2774 1.394 . S
C2775 C2776 1.383 . S
C2775 H2783 0.929 . S
C2776 C2775 1.383 . S
C2776 C2777 1.377 . S
C2777 H2761 0.930 . S
C2777 C2776 1.377 . S
C2777 C2778 1.379 . S
C2778 H2762 0.931 . S
C2778 C2772 1.383 . S
C2778 C2777 1.379 . S
H2779 C2773 0.959 . S
H2780 C2773 0.961 . S
H2781 C2773 0.960 . S
H2782 C2774 0.930 . S
H2783 C2775 0.929 . S
H2784 C2792 0.929 . S
H2785 C2794 0.930 . S
H2786 C2796 0.930 . S
H2787 C2799 0.929 . S
H2788 C2802 0.930 . S
H2789 C2804 0.960 . S
H2790 C2804 0.960 . S
H2791 C2804 0.960 . S
C2792 H2784 0.929 . S
C2792 C2793 1.377 . S
C2792 C2794 1.384 . S
C2793 C2792 1.377 . S
C2793 C2799 1.390 . S
C2794 H2785 0.930 . S
C2794 C2792 1.384 . S
C2794 C2795 1.372 . S
C2795 C2794 1.372 . S
C2795 C2796 1.400 . S
C2795 C2800 1.490 . S
C2796 H2786 0.930 . S
C2796 C2795 1.400 . S
C2796 C2799 1.386 . S
H2797 C2813 0.930 . S
H2798 C2814 0.931 . S
C2799 H2787 0.929 . S
C2799 C2793 1.390 . S
C2799 C2796 1.386 . S
C2800 C2795 1.490 . S
C2800 C2802 1.395 . S
C2800 C2803 1.403 . S
H2801 C2807 0.930 . S
C2802 H2788 0.930 . S
C2802 C2800 1.395 . S
C2802 C2805 1.403 . S
C2803 C2800 1.403 . S
C2803 C2804 1.524 . S
C2803 C2807 1.400 . S
C2804 H2789 0.960 . S
C2804 H2790 0.960 . S
C2804 H2791 0.960 . S
C2804 C2803 1.524 . S
C2805 C2802 1.403 . S
C2805 C2806 1.392 . S
C2805 C2809 1.495 . S
C2806 C2805 1.392 . S
C2806 C2807 1.385 . S
C2806 C2808 1.478 . S
C2807 H2801 0.930 . S
C2807 C2803 1.400 . S
C2807 C2806 1.385 . S
C2808 C2806 1.478 . S
C2808 C2810 1.381 . S
C2808 C2814 1.383 . S
C2809 C2805 1.495 . S
C2809 H2815 0.959 . S
C2809 H2816 0.961 . S
C2809 H2817 0.960 . S
C2810 C2808 1.381 . S
C2810 C2811 1.394 . S
C2810 H2818 0.930 . S
C2811 C2810 1.394 . S
C2811 C2812 1.383 . S
C2811 H2819 0.929 . S
C2812 C2811 1.383 . S
C2812 C2813 1.377 . S
C2813 H2797 0.930 . S
C2813 C2812 1.377 . S
C2813 C2814 1.379 . S
C2814 H2798 0.931 . S
C2814 C2808 1.383 . S
C2814 C2813 1.379 . S
H2815 C2809 0.959 . S
H2816 C2809 0.961 . S
H2817 C2809 0.960 . S
H2818 C2810 0.930 . S
H2819 C2811 0.929 . S
H2820 C2828 0.929 . S
H2821 C2830 0.930 . S
H2822 C2832 0.930 . S
H2823 C2835 0.929 . S
H2824 C2838 0.930 . S
H2825 C2840 0.960 . S
H2826 C2840 0.960 . S
H2827 C2840 0.960 . S
C2828 H2820 0.929 . S
C2828 C2829 1.377 . S
C2828 C2830 1.384 . S
C2829 C2828 1.377 . S
C2829 C2835 1.390 . S
C2830 H2821 0.930 . S
C2830 C2828 1.384 . S
C2830 C2831 1.372 . S
C2831 C2830 1.372 . S
C2831 C2832 1.400 . S
C2831 C2836 1.490 . S
C2832 H2822 0.930 . S
C2832 C2831 1.400 . S
C2832 C2835 1.386 . S
H2833 C2849 0.930 . S
H2834 C2850 0.931 . S
C2835 H2823 0.929 . S
C2835 C2829 1.390 . S
C2835 C2832 1.386 . S
C2836 C2831 1.490 . S
C2836 C2838 1.395 . S
C2836 C2839 1.403 . S
H2837 C2843 0.930 . S
C2838 H2824 0.930 . S
C2838 C2836 1.395 . S
C2838 C2841 1.403 . S
C2839 C2836 1.403 . S
C2839 C2840 1.524 . S
C2839 C2843 1.400 . S
C2840 H2825 0.960 . S
C2840 H2826 0.960 . S
C2840 H2827 0.960 . S
C2840 C2839 1.524 . S
C2841 C2838 1.403 . S
C2841 C2842 1.392 . S
C2841 C2845 1.495 . S
C2842 C2841 1.392 . S
C2842 C2843 1.385 . S
C2842 C2844 1.478 . S
C2843 H2837 0.930 . S
C2843 C2839 1.400 . S
C2843 C2842 1.385 . S
C2844 C2842 1.478 . S
C2844 C2846 1.381 . S
C2844 C2850 1.383 . S
C2845 C2841 1.495 . S
C2845 H2851 0.959 . S
C2845 H2852 0.961 . S
C2845 H2853 0.960 . S
C2846 C2844 1.381 . S
C2846 C2847 1.394 . S
C2846 H2854 0.930 . S
C2847 C2846 1.394 . S
C2847 C2848 1.383 . S
C2847 H2855 0.929 . S
C2848 C2847 1.383 . S
C2848 C2849 1.377 . S
C2849 H2833 0.930 . S
C2849 C2848 1.377 . S
C2849 C2850 1.379 . S
C2850 H2834 0.931 . S
C2850 C2844 1.383 . S
C2850 C2849 1.379 . S
H2851 C2845 0.959 . S
H2852 C2845 0.961 . S
H2853 C2845 0.960 . S
H2854 C2846 0.930 . S
H2855 C2847 0.929 . S
H2856 C2864 0.929 . S
H2857 C2866 0.930 . S
H2858 C2868 0.930 . S
H2859 C2871 0.929 . S
H2860 C2874 0.930 . S
H2861 C2876 0.960 . S
H2862 C2876 0.960 . S
H2863 C2876 0.960 . S
C2864 H2856 0.929 . S
C2864 C2865 1.377 . S
C2864 C2866 1.384 . S
C2865 C2864 1.377 . S
C2865 C2871 1.390 . S
C2866 H2857 0.930 . S
C2866 C2864 1.384 . S
C2866 C2867 1.372 . S
C2867 C2866 1.372 . S
C2867 C2868 1.400 . S
C2867 C2872 1.490 . S
C2868 H2858 0.930 . S
C2868 C2867 1.400 . S
C2868 C2871 1.386 . S
H2869 C2885 0.930 . S
H2870 C2886 0.931 . S
C2871 H2859 0.929 . S
C2871 C2865 1.390 . S
C2871 C2868 1.386 . S
C2872 C2867 1.490 . S
C2872 C2874 1.395 . S
C2872 C2875 1.403 . S
H2873 C2879 0.930 . S
C2874 H2860 0.930 . S
C2874 C2872 1.395 . S
C2874 C2877 1.403 . S
C2875 C2872 1.403 . S
C2875 C2876 1.524 . S
C2875 C2879 1.400 . S
C2876 H2861 0.960 . S
C2876 H2862 0.960 . S
C2876 H2863 0.960 . S
C2876 C2875 1.524 . S
C2877 C2874 1.403 . S
C2877 C2878 1.392 . S
C2877 C2881 1.495 . S
C2878 C2877 1.392 . S
C2878 C2879 1.385 . S
C2878 C2880 1.478 . S
C2879 H2873 0.930 . S
C2879 C2875 1.400 . S
C2879 C2878 1.385 . S
C2880 C2878 1.478 . S
C2880 C2882 1.381 . S
C2880 C2886 1.383 . S
C2881 C2877 1.495 . S
C2881 H2887 0.959 . S
C2881 H2888 0.961 . S
C2881 H2889 0.960 . S
C2882 C2880 1.381 . S
C2882 C2883 1.394 . S
C2882 H2890 0.930 . S
C2883 C2882 1.394 . S
C2883 C2884 1.383 . S
C2883 H2891 0.929 . S
C2884 C2883 1.383 . S
C2884 C2885 1.377 . S
C2885 H2869 0.930 . S
C2885 C2884 1.377 . S
C2885 C2886 1.379 . S
C2886 H2870 0.931 . S
C2886 C2880 1.383 . S
C2886 C2885 1.379 . S
H2887 C2881 0.959 . S
H2888 C2881 0.961 . S
H2889 C2881 0.960 . S
H2890 C2882 0.930 . S
H2891 C2883 0.929 . S
H2892 C2900 0.929 . S
H2893 C2902 0.930 . S
H2894 C2904 0.930 . S
H2895 C2907 0.929 . S
H2896 C2910 0.930 . S
H2897 C2912 0.960 . S
H2898 C2912 0.960 . S
H2899 C2912 0.960 . S
C2900 H2892 0.929 . S
C2900 C2901 1.377 . S
C2900 C2902 1.384 . S
C2901 C2900 1.377 . S
C2901 C2907 1.390 . S
C2902 H2893 0.930 . S
C2902 C2900 1.384 . S
C2902 C2903 1.372 . S
C2903 C2902 1.372 . S
C2903 C2904 1.400 . S
C2903 C2908 1.490 . S
C2904 H2894 0.930 . S
C2904 C2903 1.400 . S
C2904 C2907 1.386 . S
H2905 C2921 0.930 . S
H2906 C2922 0.931 . S
C2907 H2895 0.929 . S
C2907 C2901 1.390 . S
C2907 C2904 1.386 . S
C2908 C2903 1.490 . S
C2908 C2910 1.395 . S
C2908 C2911 1.403 . S
H2909 C2915 0.930 . S
C2910 H2896 0.930 . S
C2910 C2908 1.395 . S
C2910 C2913 1.403 . S
C2911 C2908 1.403 . S
C2911 C2912 1.524 . S
C2911 C2915 1.400 . S
C2912 H2897 0.960 . S
C2912 H2898 0.960 . S
C2912 H2899 0.960 . S
C2912 C2911 1.524 . S
C2913 C2910 1.403 . S
C2913 C2914 1.392 . S
C2913 C2917 1.495 . S
C2914 C2913 1.392 . S
C2914 C2915 1.385 . S
C2914 C2916 1.478 . S
C2915 H2909 0.930 . S
C2915 C2911 1.400 . S
C2915 C2914 1.385 . S
C2916 C2914 1.478 . S
C2916 C2918 1.381 . S
C2916 C2922 1.383 . S
C2917 C2913 1.495 . S
C2917 H2923 0.959 . S
C2917 H2924 0.961 . S
C2917 H2925 0.960 . S
C2918 C2916 1.381 . S
C2918 C2919 1.394 . S
C2918 H2926 0.930 . S
C2919 C2918 1.394 . S
C2919 C2920 1.383 . S
C2919 H2927 0.929 . S
C2920 C2919 1.383 . S
C2920 C2921 1.377 . S
C2921 H2905 0.930 . S
C2921 C2920 1.377 . S
C2921 C2922 1.379 . S
C2922 H2906 0.931 . S
C2922 C2916 1.383 . S
C2922 C2921 1.379 . S
H2923 C2917 0.959 . S
H2924 C2917 0.961 . S
H2925 C2917 0.960 . S
H2926 C2918 0.930 . S
H2927 C2919 0.929 . S
H2928 C2936 0.929 . S
H2929 C2938 0.930 . S
H2930 C2940 0.930 . S
H2931 C2943 0.929 . S
H2932 C2946 0.930 . S
H2933 C2948 0.960 . S
H2934 C2948 0.960 . S
H2935 C2948 0.960 . S
C2936 H2928 0.929 . S
C2936 C2937 1.377 . S
C2936 C2938 1.384 . S
C2937 C2936 1.377 . S
C2937 C2943 1.390 . S
C2938 H2929 0.930 . S
C2938 C2936 1.384 . S
C2938 C2939 1.372 . S
C2939 C2938 1.372 . S
C2939 C2940 1.400 . S
C2939 C2944 1.490 . S
C2940 H2930 0.930 . S
C2940 C2939 1.400 . S
C2940 C2943 1.386 . S
H2941 C2957 0.930 . S
H2942 C2958 0.931 . S
C2943 H2931 0.929 . S
C2943 C2937 1.390 . S
C2943 C2940 1.386 . S
C2944 C2939 1.490 . S
C2944 C2946 1.395 . S
C2944 C2947 1.403 . S
H2945 C2951 0.930 . S
C2946 H2932 0.930 . S
C2946 C2944 1.395 . S
C2946 C2949 1.403 . S
C2947 C2944 1.403 . S
C2947 C2948 1.524 . S
C2947 C2951 1.400 . S
C2948 H2933 0.960 . S
C2948 H2934 0.960 . S
C2948 H2935 0.960 . S
C2948 C2947 1.524 . S
C2949 C2946 1.403 . S
C2949 C2950 1.392 . S
C2949 C2953 1.495 . S
C2950 C2949 1.392 . S
C2950 C2951 1.385 . S
C2950 C2952 1.478 . S
C2951 H2945 0.930 . S
C2951 C2947 1.400 . S
C2951 C2950 1.385 . S
C2952 C2950 1.478 . S
C2952 C2954 1.381 . S
C2952 C2958 1.383 . S
C2953 C2949 1.495 . S
C2953 H2959 0.959 . S
C2953 H2960 0.961 . S
C2953 H2961 0.960 . S
C2954 C2952 1.381 . S
C2954 C2955 1.394 . S
C2954 H2962 0.930 . S
C2955 C2954 1.394 . S
C2955 C2956 1.383 . S
C2955 H2963 0.929 . S
C2956 C2955 1.383 . S
C2956 C2957 1.377 . S
C2957 H2941 0.930 . S
C2957 C2956 1.377 . S
C2957 C2958 1.379 . S
C2958 H2942 0.931 . S
C2958 C2952 1.383 . S
C2958 C2957 1.379 . S
H2959 C2953 0.959 . S
H2960 C2953 0.961 . S
H2961 C2953 0.960 . S
H2962 C2954 0.930 . S
H2963 C2955 0.929 . S
H2964 C2972 0.929 . S
H2965 C2974 0.930 . S
H2966 C2976 0.930 . S
H2967 C2979 0.929 . S
H2968 C2982 0.930 . S
H2969 C2984 0.960 . S
H2970 C2984 0.960 . S
H2971 C2984 0.960 . S
C2972 H2964 0.929 . S
C2972 C2973 1.377 . S
C2972 C2974 1.384 . S
C2973 C2972 1.377 . S
C2973 C2979 1.390 . S
C2974 H2965 0.930 . S
C2974 C2972 1.384 . S
C2974 C2975 1.372 . S
C2975 C2974 1.372 . S
C2975 C2976 1.400 . S
C2975 C2980 1.490 . S
C2976 H2966 0.930 . S
C2976 C2975 1.400 . S
C2976 C2979 1.386 . S
H2977 C2993 0.930 . S
H2978 C2994 0.931 . S
C2979 H2967 0.929 . S
C2979 C2973 1.390 . S
C2979 C2976 1.386 . S
C2980 C2975 1.490 . S
C2980 C2982 1.395 . S
C2980 C2983 1.403 . S
H2981 C2987 0.930 . S
C2982 H2968 0.930 . S
C2982 C2980 1.395 . S
C2982 C2985 1.403 . S
C2983 C2980 1.403 . S
C2983 C2984 1.524 . S
C2983 C2987 1.400 . S
C2984 H2969 0.960 . S
C2984 H2970 0.960 . S
C2984 H2971 0.960 . S
C2984 C2983 1.524 . S
C2985 C2982 1.403 . S
C2985 C2986 1.392 . S
C2985 C2989 1.495 . S
C2986 C2985 1.392 . S
C2986 C2987 1.385 . S
C2986 C2988 1.478 . S
C2987 H2981 0.930 . S
C2987 C2983 1.400 . S
C2987 C2986 1.385 . S
C2988 C2986 1.478 . S
C2988 C2990 1.381 . S
C2988 C2994 1.383 . S
C2989 C2985 1.495 . S
C2989 H2995 0.959 . S
C2989 H2996 0.961 . S
C2989 H2997 0.960 . S
C2990 C2988 1.381 . S
C2990 C2991 1.394 . S
C2990 H2998 0.930 . S
C2991 C2990 1.394 . S
C2991 C2992 1.383 . S
C2991 H2999 0.929 . S
C2992 C2991 1.383 . S
C2992 C2993 1.377 . S
C2993 H2977 0.930 . S
C2993 C2992 1.377 . S
C2993 C2994 1.379 . S
C2994 H2978 0.931 . S
C2994 C2988 1.383 . S
C2994 C2993 1.379 . S
H2995 C2989 0.959 . S
H2996 C2989 0.961 . S
H2997 C2989 0.960 . S
H2998 C2990 0.930 . S
H2999 C2991 0.929 . S
H3000 C3008 0.929 . S
H3001 C3010 0.930 . S
H3002 C3012 0.930 . S
H3003 C3015 0.929 . S
H3004 C3018 0.930 . S
H3005 C3020 0.960 . S
H3006 C3020 0.960 . S
H3007 C3020 0.960 . S
C3008 H3000 0.929 . S
C3008 C3009 1.377 . S
C3008 C3010 1.384 . S
C3009 C3008 1.377 . S
C3009 C3015 1.390 . S
C3010 H3001 0.930 . S
C3010 C3008 1.384 . S
C3010 C3011 1.372 . S
C3011 C3010 1.372 . S
C3011 C3012 1.400 . S
C3011 C3016 1.490 . S
C3012 H3002 0.930 . S
C3012 C3011 1.400 . S
C3012 C3015 1.386 . S
H3013 C3029 0.930 . S
H3014 C3030 0.931 . S
C3015 H3003 0.929 . S
C3015 C3009 1.390 . S
C3015 C3012 1.386 . S
C3016 C3011 1.490 . S
C3016 C3018 1.395 . S
C3016 C3019 1.403 . S
H3017 C3023 0.930 . S
C3018 H3004 0.930 . S
C3018 C3016 1.395 . S
C3018 C3021 1.403 . S
C3019 C3016 1.403 . S
C3019 C3020 1.524 . S
C3019 C3023 1.400 . S
C3020 H3005 0.960 . S
C3020 H3006 0.960 . S
C3020 H3007 0.960 . S
C3020 C3019 1.524 . S
C3021 C3018 1.403 . S
C3021 C3022 1.392 . S
C3021 C3025 1.495 . S
C3022 C3021 1.392 . S
C3022 C3023 1.385 . S
C3022 C3024 1.478 . S
C3023 H3017 0.930 . S
C3023 C3019 1.400 . S
C3023 C3022 1.385 . S
C3024 C3022 1.478 . S
C3024 C3026 1.381 . S
C3024 C3030 1.383 . S
C3025 C3021 1.495 . S
C3025 H3031 0.959 . S
C3025 H3032 0.961 . S
C3025 H3033 0.960 . S
C3026 C3024 1.381 . S
C3026 C3027 1.394 . S
C3026 H3034 0.930 . S
C3027 C3026 1.394 . S
C3027 C3028 1.383 . S
C3027 H3035 0.929 . S
C3028 C3027 1.383 . S
C3028 C3029 1.377 . S
C3029 H3013 0.930 . S
C3029 C3028 1.377 . S
C3029 C3030 1.379 . S
C3030 H3014 0.931 . S
C3030 C3024 1.383 . S
C3030 C3029 1.379 . S
H3031 C3025 0.959 . S
H3032 C3025 0.961 . S
H3033 C3025 0.960 . S
H3034 C3026 0.930 . S
H3035 C3027 0.929 . S
H3036 C3044 0.929 . S
H3037 C3046 0.930 . S
H3038 C3048 0.930 . S
H3039 C3051 0.929 . S
H3040 C3054 0.930 . S
H3041 C3056 0.960 . S
H3042 C3056 0.960 . S
H3043 C3056 0.960 . S
C3044 H3036 0.929 . S
C3044 C3045 1.377 . S
C3044 C3046 1.384 . S
C3045 C3044 1.377 . S
C3045 C3051 1.390 . S
C3046 H3037 0.930 . S
C3046 C3044 1.384 . S
C3046 C3047 1.372 . S
C3047 C3046 1.372 . S
C3047 C3048 1.400 . S
C3047 C3052 1.490 . S
C3048 H3038 0.930 . S
C3048 C3047 1.400 . S
C3048 C3051 1.386 . S
H3049 C3065 0.930 . S
H3050 C3066 0.931 . S
C3051 H3039 0.929 . S
C3051 C3045 1.390 . S
C3051 C3048 1.386 . S
C3052 C3047 1.490 . S
C3052 C3054 1.395 . S
C3052 C3055 1.403 . S
H3053 C3059 0.930 . S
C3054 H3040 0.930 . S
C3054 C3052 1.395 . S
C3054 C3057 1.403 . S
C3055 C3052 1.403 . S
C3055 C3056 1.524 . S
C3055 C3059 1.400 . S
C3056 H3041 0.960 . S
C3056 H3042 0.960 . S
C3056 H3043 0.960 . S
C3056 C3055 1.524 . S
C3057 C3054 1.403 . S
C3057 C3058 1.392 . S
C3057 C3061 1.495 . S
C3058 C3057 1.392 . S
C3058 C3059 1.385 . S
C3058 C3060 1.478 . S
C3059 H3053 0.930 . S
C3059 C3055 1.400 . S
C3059 C3058 1.385 . S
C3060 C3058 1.478 . S
C3060 C3062 1.381 . S
C3060 C3066 1.383 . S
C3061 C3057 1.495 . S
C3061 H3067 0.959 . S
C3061 H3068 0.961 . S
C3061 H3069 0.960 . S
C3062 C3060 1.381 . S
C3062 C3063 1.394 . S
C3062 H3070 0.930 . S
C3063 C3062 1.394 . S
C3063 C3064 1.383 . S
C3063 H3071 0.929 . S
C3064 C3063 1.383 . S
C3064 C3065 1.377 . S
C3065 H3049 0.930 . S
C3065 C3064 1.377 . S
C3065 C3066 1.379 . S
C3066 H3050 0.931 . S
C3066 C3060 1.383 . S
C3066 C3065 1.379 . S
H3067 C3061 0.959 . S
H3068 C3061 0.961 . S
H3069 C3061 0.960 . S
H3070 C3062 0.930 . S
H3071 C3063 0.929 . S
H3072 C3080 0.929 . S
H3073 C3082 0.930 . S
H3074 C3084 0.930 . S
H3075 C3087 0.929 . S
H3076 C3090 0.930 . S
H3077 C3092 0.960 . S
H3078 C3092 0.960 . S
H3079 C3092 0.960 . S
C3080 H3072 0.929 . S
C3080 C3081 1.377 . S
C3080 C3082 1.384 . S
C3081 C3080 1.377 . S
C3081 C3087 1.390 . S
C3082 H3073 0.930 . S
C3082 C3080 1.384 . S
C3082 C3083 1.372 . S
C3083 C3082 1.372 . S
C3083 C3084 1.400 . S
C3083 C3088 1.490 . S
C3084 H3074 0.930 . S
C3084 C3083 1.400 . S
C3084 C3087 1.386 . S
H3085 C3101 0.930 . S
H3086 C3102 0.931 . S
C3087 H3075 0.929 . S
C3087 C3081 1.390 . S
C3087 C3084 1.386 . S
C3088 C3083 1.490 . S
C3088 C3090 1.395 . S
C3088 C3091 1.403 . S
H3089 C3095 0.930 . S
C3090 H3076 0.930 . S
C3090 C3088 1.395 . S
C3090 C3093 1.403 . S
C3091 C3088 1.403 . S
C3091 C3092 1.524 . S
C3091 C3095 1.400 . S
C3092 H3077 0.960 . S
C3092 H3078 0.960 . S
C3092 H3079 0.960 . S
C3092 C3091 1.524 . S
C3093 C3090 1.403 . S
C3093 C3094 1.392 . S
C3093 C3097 1.495 . S
C3094 C3093 1.392 . S
C3094 C3095 1.385 . S
C3094 C3096 1.478 . S
C3095 H3089 0.930 . S
C3095 C3091 1.400 . S
C3095 C3094 1.385 . S
C3096 C3094 1.478 . S
C3096 C3098 1.381 . S
C3096 C3102 1.383 . S
C3097 C3093 1.495 . S
C3097 H3103 0.959 . S
C3097 H3104 0.961 . S
C3097 H3105 0.960 . S
C3098 C3096 1.381 . S
C3098 C3099 1.394 . S
C3098 H3106 0.930 . S
C3099 C3098 1.394 . S
C3099 C3100 1.383 . S
C3099 H3107 0.929 . S
C3100 C3099 1.383 . S
C3100 C3101 1.377 . S
C3101 H3085 0.930 . S
C3101 C3100 1.377 . S
C3101 C3102 1.379 . S
C3102 H3086 0.931 . S
C3102 C3096 1.383 . S
C3102 C3101 1.379 . S
H3103 C3097 0.959 . S
H3104 C3097 0.961 . S
H3105 C3097 0.960 . S
H3106 C3098 0.930 . S
H3107 C3099 0.929 . S
H3108 C3116 0.929 . S
H3109 C3118 0.930 . S
H3110 C3120 0.930 . S
H3111 C3123 0.929 . S
H3112 C3126 0.930 . S
H3113 C3128 0.960 . S
H3114 C3128 0.960 . S
H3115 C3128 0.960 . S
C3116 H3108 0.929 . S
C3116 C3117 1.377 . S
C3116 C3118 1.384 . S
C3117 C3116 1.377 . S
C3117 C3123 1.390 . S
C3118 H3109 0.930 . S
C3118 C3116 1.384 . S
C3118 C3119 1.372 . S
C3119 C3118 1.372 . S
C3119 C3120 1.400 . S
C3119 C3124 1.490 . S
C3120 H3110 0.930 . S
C3120 C3119 1.400 . S
C3120 C3123 1.386 . S
H3121 C3137 0.930 . S
H3122 C3138 0.931 . S
C3123 H3111 0.929 . S
C3123 C3117 1.390 . S
C3123 C3120 1.386 . S
C3124 C3119 1.490 . S
C3124 C3126 1.395 . S
C3124 C3127 1.403 . S
H3125 C3131 0.930 . S
C3126 H3112 0.930 . S
C3126 C3124 1.395 . S
C3126 C3129 1.403 . S
C3127 C3124 1.403 . S
C3127 C3128 1.524 . S
C3127 C3131 1.400 . S
C3128 H3113 0.960 . S
C3128 H3114 0.960 . S
C3128 H3115 0.960 . S
C3128 C3127 1.524 . S
C3129 C3126 1.403 . S
C3129 C3130 1.392 . S
C3129 C3133 1.495 . S
C3130 C3129 1.392 . S
C3130 C3131 1.385 . S
C3130 C3132 1.478 . S
C3131 H3125 0.930 . S
C3131 C3127 1.400 . S
C3131 C3130 1.385 . S
C3132 C3130 1.478 . S
C3132 C3134 1.381 . S
C3132 C3138 1.383 . S
C3133 C3129 1.495 . S
C3133 H3139 0.959 . S
C3133 H3140 0.961 . S
C3133 H3141 0.960 . S
C3134 C3132 1.381 . S
C3134 C3135 1.394 . S
C3134 H3142 0.930 . S
C3135 C3134 1.394 . S
C3135 C3136 1.383 . S
C3135 H3143 0.929 . S
C3136 C3135 1.383 . S
C3136 C3137 1.377 . S
C3137 H3121 0.930 . S
C3137 C3136 1.377 . S
C3137 C3138 1.379 . S
C3138 H3122 0.931 . S
C3138 C3132 1.383 . S
C3138 C3137 1.379 . S
H3139 C3133 0.959 . S
H3140 C3133 0.961 . S
H3141 C3133 0.960 . S
H3142 C3134 0.930 . S
H3143 C3135 0.929 . S
H3144 C3152 0.929 . S
H3145 C3154 0.930 . S
H3146 C3156 0.930 . S
H3147 C3159 0.929 . S
H3148 C3162 0.930 . S
H3149 C3164 0.960 . S
H3150 C3164 0.960 . S
H3151 C3164 0.960 . S
C3152 H3144 0.929 . S
C3152 C3153 1.377 . S
C3152 C3154 1.384 . S
C3153 C3152 1.377 . S
C3153 C3159 1.390 . S
C3154 H3145 0.930 . S
C3154 C3152 1.384 . S
C3154 C3155 1.372 . S
C3155 C3154 1.372 . S
C3155 C3156 1.400 . S
C3155 C3160 1.490 . S
C3156 H3146 0.930 . S
C3156 C3155 1.400 . S
C3156 C3159 1.386 . S
H3157 C3173 0.930 . S
H3158 C3174 0.931 . S
C3159 H3147 0.929 . S
C3159 C3153 1.390 . S
C3159 C3156 1.386 . S
C3160 C3155 1.490 . S
C3160 C3162 1.395 . S
C3160 C3163 1.403 . S
H3161 C3167 0.930 . S
C3162 H3148 0.930 . S
C3162 C3160 1.395 . S
C3162 C3165 1.403 . S
C3163 C3160 1.403 . S
C3163 C3164 1.524 . S
C3163 C3167 1.400 . S
C3164 H3149 0.960 . S
C3164 H3150 0.960 . S
C3164 H3151 0.960 . S
C3164 C3163 1.524 . S
C3165 C3162 1.403 . S
C3165 C3166 1.392 . S
C3165 C3169 1.495 . S
C3166 C3165 1.392 . S
C3166 C3167 1.385 . S
C3166 C3168 1.478 . S
C3167 H3161 0.930 . S
C3167 C3163 1.400 . S
C3167 C3166 1.385 . S
C3168 C3166 1.478 . S
C3168 C3170 1.381 . S
C3168 C3174 1.383 . S
C3169 C3165 1.495 . S
C3169 H3175 0.959 . S
C3169 H3176 0.961 . S
C3169 H3177 0.960 . S
C3170 C3168 1.381 . S
C3170 C3171 1.394 . S
C3170 H3178 0.930 . S
C3171 C3170 1.394 . S
C3171 C3172 1.383 . S
C3171 H3179 0.929 . S
C3172 C3171 1.383 . S
C3172 C3173 1.377 . S
C3173 H3157 0.930 . S
C3173 C3172 1.377 . S
C3173 C3174 1.379 . S
C3174 H3158 0.931 . S
C3174 C3168 1.383 . S
C3174 C3173 1.379 . S
H3175 C3169 0.959 . S
H3176 C3169 0.961 . S
H3177 C3169 0.960 . S
H3178 C3170 0.930 . S
H3179 C3171 0.929 . S
H3180 C3188 0.929 . S
H3181 C3190 0.930 . S
H3182 C3192 0.930 . S
H3183 C3195 0.929 . S
H3184 C3198 0.930 . S
H3185 C3200 0.960 . S
H3186 C3200 0.960 . S
H3187 C3200 0.960 . S
C3188 H3180 0.929 . S
C3188 C3189 1.377 . S
C3188 C3190 1.384 . S
C3189 C3188 1.377 . S
C3189 C3195 1.390 . S
C3190 H3181 0.930 . S
C3190 C3188 1.384 . S
C3190 C3191 1.372 . S
C3191 C3190 1.372 . S
C3191 C3192 1.400 . S
C3191 C3196 1.490 . S
C3192 H3182 0.930 . S
C3192 C3191 1.400 . S
C3192 C3195 1.386 . S
H3193 C3209 0.930 . S
H3194 C3210 0.931 . S
C3195 H3183 0.929 . S
C3195 C3189 1.390 . S
C3195 C3192 1.386 . S
C3196 C3191 1.490 . S
C3196 C3198 1.395 . S
C3196 C3199 1.403 . S
H3197 C3203 0.930 . S
C3198 H3184 0.930 . S
C3198 C3196 1.395 . S
C3198 C3201 1.403 . S
C3199 C3196 1.403 . S
C3199 C3200 1.524 . S
C3199 C3203 1.400 . S
C3200 H3185 0.960 . S
C3200 H3186 0.960 . S
C3200 H3187 0.960 . S
C3200 C3199 1.524 . S
C3201 C3198 1.403 . S
C3201 C3202 1.392 . S
C3201 C3205 1.495 . S
C3202 C3201 1.392 . S
C3202 C3203 1.385 . S
C3202 C3204 1.478 . S
C3203 H3197 0.930 . S
C3203 C3199 1.400 . S
C3203 C3202 1.385 . S
C3204 C3202 1.478 . S
C3204 C3206 1.381 . S
C3204 C3210 1.383 . S
C3205 C3201 1.495 . S
C3205 H3211 0.959 . S
C3205 H3212 0.961 . S
C3205 H3213 0.960 . S
C3206 C3204 1.381 . S
C3206 C3207 1.394 . S
C3206 H3214 0.930 . S
C3207 C3206 1.394 . S
C3207 C3208 1.383 . S
C3207 H3215 0.929 . S
C3208 C3207 1.383 . S
C3208 C3209 1.377 . S
C3209 H3193 0.930 . S
C3209 C3208 1.377 . S
C3209 C3210 1.379 . S
C3210 H3194 0.931 . S
C3210 C3204 1.383 . S
C3210 C3209 1.379 . S
H3211 C3205 0.959 . S
H3212 C3205 0.961 . S
H3213 C3205 0.960 . S
H3214 C3206 0.930 . S
H3215 C3207 0.929 . S
H3216 C3224 0.929 . S
H3217 C3226 0.930 . S
H3218 C3228 0.930 . S
H3219 C3231 0.929 . S
H3220 C3234 0.930 . S
H3221 C3236 0.960 . S
H3222 C3236 0.960 . S
H3223 C3236 0.960 . S
C3224 H3216 0.929 . S
C3224 C3225 1.377 . S
C3224 C3226 1.384 . S
C3225 C3224 1.377 . S
C3225 C3231 1.390 . S
C3226 H3217 0.930 . S
C3226 C3224 1.384 . S
C3226 C3227 1.372 . S
C3227 C3226 1.372 . S
C3227 C3228 1.400 . S
C3227 C3232 1.490 . S
C3228 H3218 0.930 . S
C3228 C3227 1.400 . S
C3228 C3231 1.386 . S
H3229 C3245 0.930 . S
H3230 C3246 0.931 . S
C3231 H3219 0.929 . S
C3231 C3225 1.390 . S
C3231 C3228 1.386 . S
C3232 C3227 1.490 . S
C3232 C3234 1.395 . S
C3232 C3235 1.403 . S
H3233 C3239 0.930 . S
C3234 H3220 0.930 . S
C3234 C3232 1.395 . S
C3234 C3237 1.403 . S
C3235 C3232 1.403 . S
C3235 C3236 1.524 . S
C3235 C3239 1.400 . S
C3236 H3221 0.960 . S
C3236 H3222 0.960 . S
C3236 H3223 0.960 . S
C3236 C3235 1.524 . S
C3237 C3234 1.403 . S
C3237 C3238 1.392 . S
C3237 C3241 1.495 . S
C3238 C3237 1.392 . S
C3238 C3239 1.385 . S
C3238 C3240 1.478 . S
C3239 H3233 0.930 . S
C3239 C3235 1.400 . S
C3239 C3238 1.385 . S
C3240 C3238 1.478 . S
C3240 C3242 1.381 . S
C3240 C3246 1.383 . S
C3241 C3237 1.495 . S
C3241 H3247 0.959 . S
C3241 H3248 0.961 . S
C3241 H3249 0.960 . S
C3242 C3240 1.381 . S
C3242 C3243 1.394 . S
C3242 H3250 0.930 . S
C3243 C3242 1.394 . S
C3243 C3244 1.383 . S
C3243 H3251 0.929 . S
C3244 C3243 1.383 . S
C3244 C3245 1.377 . S
C3245 H3229 0.930 . S
C3245 C3244 1.377 . S
C3245 C3246 1.379 . S
C3246 H3230 0.931 . S
C3246 C3240 1.383 . S
C3246 C3245 1.379 . S
H3247 C3241 0.959 . S
H3248 C3241 0.961 . S
H3249 C3241 0.960 . S
H3250 C3242 0.930 . S
H3251 C3243 0.929 . S
H3252 C3260 0.929 . S
H3253 C3262 0.930 . S
H3254 C3264 0.930 . S
H3255 C3267 0.929 . S
H3256 C3270 0.930 . S
H3257 C3272 0.960 . S
H3258 C3272 0.960 . S
H3259 C3272 0.960 . S
C3260 H3252 0.929 . S
C3260 C3261 1.377 . S
C3260 C3262 1.384 . S
C3261 C3260 1.377 . S
C3261 C3267 1.390 . S
C3262 H3253 0.930 . S
C3262 C3260 1.384 . S
C3262 C3263 1.372 . S
C3263 C3262 1.372 . S
C3263 C3264 1.400 . S
C3263 C3268 1.490 . S
C3264 H3254 0.930 . S
C3264 C3263 1.400 . S
C3264 C3267 1.386 . S
H3265 C3281 0.930 . S
H3266 C3282 0.931 . S
C3267 H3255 0.929 . S
C3267 C3261 1.390 . S
C3267 C3264 1.386 . S
C3268 C3263 1.490 . S
C3268 C3270 1.395 . S
C3268 C3271 1.403 . S
H3269 C3275 0.930 . S
C3270 H3256 0.930 . S
C3270 C3268 1.395 . S
C3270 C3273 1.403 . S
C3271 C3268 1.403 . S
C3271 C3272 1.524 . S
C3271 C3275 1.400 . S
C3272 H3257 0.960 . S
C3272 H3258 0.960 . S
C3272 H3259 0.960 . S
C3272 C3271 1.524 . S
C3273 C3270 1.403 . S
C3273 C3274 1.392 . S
C3273 C3277 1.495 . S
C3274 C3273 1.392 . S
C3274 C3275 1.385 . S
C3274 C3276 1.478 . S
C3275 H3269 0.930 . S
C3275 C3271 1.400 . S
C3275 C3274 1.385 . S
C3276 C3274 1.478 . S
C3276 C3278 1.381 . S
C3276 C3282 1.383 . S
C3277 C3273 1.495 . S
C3277 H3283 0.959 . S
C3277 H3284 0.961 . S
C3277 H3285 0.960 . S
C3278 C3276 1.381 . S
C3278 C3279 1.394 . S
C3278 H3286 0.930 . S
C3279 C3278 1.394 . S
C3279 C3280 1.383 . S
C3279 H3287 0.929 . S
C3280 C3279 1.383 . S
C3280 C3281 1.377 . S
C3281 H3265 0.930 . S
C3281 C3280 1.377 . S
C3281 C3282 1.379 . S
C3282 H3266 0.931 . S
C3282 C3276 1.383 . S
C3282 C3281 1.379 . S
H3283 C3277 0.959 . S
H3284 C3277 0.961 . S
H3285 C3277 0.960 . S
H3286 C3278 0.930 . S
H3287 C3279 0.929 . S
H3288 C3296 0.929 . S
H3289 C3298 0.930 . S
H3290 C3300 0.930 . S
H3291 C3303 0.929 . S
H3292 C3306 0.930 . S
H3293 C3308 0.960 . S
H3294 C3308 0.960 . S
H3295 C3308 0.960 . S
C3296 H3288 0.929 . S
C3296 C3297 1.377 . S
C3296 C3298 1.384 . S
C3297 C3296 1.377 . S
C3297 C3303 1.390 . S
C3298 H3289 0.930 . S
C3298 C3296 1.384 . S
C3298 C3299 1.372 . S
C3299 C3298 1.372 . S
C3299 C3300 1.400 . S
C3299 C3304 1.490 . S
C3300 H3290 0.930 . S
C3300 C3299 1.400 . S
C3300 C3303 1.386 . S
H3301 C3317 0.930 . S
H3302 C3318 0.931 . S
C3303 H3291 0.929 . S
C3303 C3297 1.390 . S
C3303 C3300 1.386 . S
C3304 C3299 1.490 . S
C3304 C3306 1.395 . S
C3304 C3307 1.403 . S
H3305 C3311 0.930 . S
C3306 H3292 0.930 . S
C3306 C3304 1.395 . S
C3306 C3309 1.403 . S
C3307 C3304 1.403 . S
C3307 C3308 1.524 . S
C3307 C3311 1.400 . S
C3308 H3293 0.960 . S
C3308 H3294 0.960 . S
C3308 H3295 0.960 . S
C3308 C3307 1.524 . S
C3309 C3306 1.403 . S
C3309 C3310 1.392 . S
C3309 C3313 1.495 . S
C3310 C3309 1.392 . S
C3310 C3311 1.385 . S
C3310 C3312 1.478 . S
C3311 H3305 0.930 . S
C3311 C3307 1.400 . S
C3311 C3310 1.385 . S
C3312 C3310 1.478 . S
C3312 C3314 1.381 . S
C3312 C3318 1.383 . S
C3313 C3309 1.495 . S
C3313 H3319 0.959 . S
C3313 H3320 0.961 . S
C3313 H3321 0.960 . S
C3314 C3312 1.381 . S
C3314 C3315 1.394 . S
C3314 H3322 0.930 . S
C3315 C3314 1.394 . S
C3315 C3316 1.383 . S
C3315 H3323 0.929 . S
C3316 C3315 1.383 . S
C3316 C3317 1.377 . S
C3317 H3301 0.930 . S
C3317 C3316 1.377 . S
C3317 C3318 1.379 . S
C3318 H3302 0.931 . S
C3318 C3312 1.383 . S
C3318 C3317 1.379 . S
H3319 C3313 0.959 . S
H3320 C3313 0.961 . S
H3321 C3313 0.960 . S
H3322 C3314 0.930 . S
H3323 C3315 0.929 . S
H3324 C3332 0.929 . S
H3325 C3334 0.930 . S
H3326 C3336 0.930 . S
H3327 C3339 0.929 . S
H3328 C3342 0.930 . S
H3329 C3344 0.960 . S
H3330 C3344 0.960 . S
H3331 C3344 0.960 . S
C3332 H3324 0.929 . S
C3332 C3333 1.377 . S
C3332 C3334 1.384 . S
C3333 C3332 1.377 . S
C3333 C3339 1.390 . S
C3334 H3325 0.930 . S
C3334 C3332 1.384 . S
C3334 C3335 1.372 . S
C3335 C3334 1.372 . S
C3335 C3336 1.400 . S
C3335 C3340 1.490 . S
C3336 H3326 0.930 . S
C3336 C3335 1.400 . S
C3336 C3339 1.386 . S
H3337 C3353 0.930 . S
H3338 C3354 0.931 . S
C3339 H3327 0.929 . S
C3339 C3333 1.390 . S
C3339 C3336 1.386 . S
C3340 C3335 1.490 . S
C3340 C3342 1.395 . S
C3340 C3343 1.403 . S
H3341 C3347 0.930 . S
C3342 H3328 0.930 . S
C3342 C3340 1.395 . S
C3342 C3345 1.403 . S
C3343 C3340 1.403 . S
C3343 C3344 1.524 . S
C3343 C3347 1.400 . S
C3344 H3329 0.960 . S
C3344 H3330 0.960 . S
C3344 H3331 0.960 . S
C3344 C3343 1.524 . S
C3345 C3342 1.403 . S
C3345 C3346 1.392 . S
C3345 C3349 1.495 . S
C3346 C3345 1.392 . S
C3346 C3347 1.385 . S
C3346 C3348 1.478 . S
C3347 H3341 0.930 . S
C3347 C3343 1.400 . S
C3347 C3346 1.385 . S
C3348 C3346 1.478 . S
C3348 C3350 1.381 . S
C3348 C3354 1.383 . S
C3349 C3345 1.495 . S
C3349 H3355 0.959 . S
C3349 H3356 0.961 . S
C3349 H3357 0.960 . S
C3350 C3348 1.381 . S
C3350 C3351 1.394 . S
C3350 H3358 0.930 . S
C3351 C3350 1.394 . S
C3351 C3352 1.383 . S
C3351 H3359 0.929 . S
C3352 C3351 1.383 . S
C3352 C3353 1.377 . S
C3353 H3337 0.930 . S
C3353 C3352 1.377 . S
C3353 C3354 1.379 . S
C3354 H3338 0.931 . S
C3354 C3348 1.383 . S
C3354 C3353 1.379 . S
H3355 C3349 0.959 . S
H3356 C3349 0.961 . S
H3357 C3349 0.960 . S
H3358 C3350 0.930 . S
H3359 C3351 0.929 . S
H3360 C3368 0.929 . S
H3361 C3370 0.930 . S
H3362 C3372 0.930 . S
H3363 C3375 0.929 . S
H3364 C3378 0.930 . S
H3365 C3380 0.960 . S
H3366 C3380 0.960 . S
H3367 C3380 0.960 . S
C3368 H3360 0.929 . S
C3368 C3369 1.377 . S
C3368 C3370 1.384 . S
C3369 C3368 1.377 . S
C3369 C3375 1.390 . S
C3370 H3361 0.930 . S
C3370 C3368 1.384 . S
C3370 C3371 1.372 . S
C3371 C3370 1.372 . S
C3371 C3372 1.400 . S
C3371 C3376 1.490 . S
C3372 H3362 0.930 . S
C3372 C3371 1.400 . S
C3372 C3375 1.386 . S
H3373 C3389 0.930 . S
H3374 C3390 0.931 . S
C3375 H3363 0.929 . S
C3375 C3369 1.390 . S
C3375 C3372 1.386 . S
C3376 C3371 1.490 . S
C3376 C3378 1.395 . S
C3376 C3379 1.403 . S
H3377 C3383 0.930 . S
C3378 H3364 0.930 . S
C3378 C3376 1.395 . S
C3378 C3381 1.403 . S
C3379 C3376 1.403 . S
C3379 C3380 1.524 . S
C3379 C3383 1.400 . S
C3380 H3365 0.960 . S
C3380 H3366 0.960 . S
C3380 H3367 0.960 . S
C3380 C3379 1.524 . S
C3381 C3378 1.403 . S
C3381 C3382 1.392 . S
C3381 C3385 1.495 . S
C3382 C3381 1.392 . S
C3382 C3383 1.385 . S
C3382 C3384 1.478 . S
C3383 H3377 0.930 . S
C3383 C3379 1.400 . S
C3383 C3382 1.385 . S
C3384 C3382 1.478 . S
C3384 C3386 1.381 . S
C3384 C3390 1.383 . S
C3385 C3381 1.495 . S
C3385 H3391 0.959 . S
C3385 H3392 0.961 . S
C3385 H3393 0.960 . S
C3386 C3384 1.381 . S
C3386 C3387 1.394 . S
C3386 H3394 0.930 . S
C3387 C3386 1.394 . S
C3387 C3388 1.383 . S
C3387 H3395 0.929 . S
C3388 C3387 1.383 . S
C3388 C3389 1.377 . S
C3389 H3373 0.930 . S
C3389 C3388 1.377 . S
C3389 C3390 1.379 . S
C3390 H3374 0.931 . S
C3390 C3384 1.383 . S
C3390 C3389 1.379 . S
H3391 C3385 0.959 . S
H3392 C3385 0.961 . S
H3393 C3385 0.960 . S
H3394 C3386 0.930 . S
H3395 C3387 0.929 . S
H3396 C3404 0.929 . S
H3397 C3406 0.930 . S
H3398 C3408 0.930 . S
H3399 C3411 0.929 . S
H3400 C3414 0.930 . S
H3401 C3416 0.960 . S
H3402 C3416 0.960 . S
H3403 C3416 0.960 . S
C3404 H3396 0.929 . S
C3404 C3405 1.377 . S
C3404 C3406 1.384 . S
C3405 C3404 1.377 . S
C3405 C3411 1.390 . S
C3406 H3397 0.930 . S
C3406 C3404 1.384 . S
C3406 C3407 1.372 . S
C3407 C3406 1.372 . S
C3407 C3408 1.400 . S
C3407 C3412 1.490 . S
C3408 H3398 0.930 . S
C3408 C3407 1.400 . S
C3408 C3411 1.386 . S
H3409 C3425 0.930 . S
H3410 C3426 0.931 . S
C3411 H3399 0.929 . S
C3411 C3405 1.390 . S
C3411 C3408 1.386 . S
C3412 C3407 1.490 . S
C3412 C3414 1.395 . S
C3412 C3415 1.403 . S
H3413 C3419 0.930 . S
C3414 H3400 0.930 . S
C3414 C3412 1.395 . S
C3414 C3417 1.403 . S
C3415 C3412 1.403 . S
C3415 C3416 1.524 . S
C3415 C3419 1.400 . S
C3416 H3401 0.960 . S
C3416 H3402 0.960 . S
C3416 H3403 0.960 . S
C3416 C3415 1.524 . S
C3417 C3414 1.403 . S
C3417 C3418 1.392 . S
C3417 C3421 1.495 . S
C3418 C3417 1.392 . S
C3418 C3419 1.385 . S
C3418 C3420 1.478 . S
C3419 H3413 0.930 . S
C3419 C3415 1.400 . S
C3419 C3418 1.385 . S
C3420 C3418 1.478 . S
C3420 C3422 1.381 . S
C3420 C3426 1.383 . S
C3421 C3417 1.495 . S
C3421 H3427 0.959 . S
C3421 H3428 0.961 . S
C3421 H3429 0.960 . S
C3422 C3420 1.381 . S
C3422 C3423 1.394 . S
C3422 H3430 0.930 . S
C3423 C3422 1.394 . S
C3423 C3424 1.383 . S
C3423 H3431 0.929 . S
C3424 C3423 1.383 . S
C3424 C3425 1.377 . S
C3425 H3409 0.930 . S
C3425 C3424 1.377 . S
C3425 C3426 1.379 . S
C3426 H3410 0.931 . S
C3426 C3420 1.383 . S
C3426 C3425 1.379 . S
H3427 C3421 0.959 . S
H3428 C3421 0.961 . S
H3429 C3421 0.960 . S
H3430 C3422 0.930 . S
H3431 C3423 0.929 . S
H3432 C3440 0.929 . S
H3433 C3442 0.930 . S
H3434 C3444 0.930 . S
H3435 C3447 0.929 . S
H3436 C3450 0.930 . S
H3437 C3452 0.960 . S
H3438 C3452 0.960 . S
H3439 C3452 0.960 . S
C3440 H3432 0.929 . S
C3440 C3441 1.377 . S
C3440 C3442 1.384 . S
C3441 C3440 1.377 . S
C3441 C3447 1.390 . S
C3442 H3433 0.930 . S
C3442 C3440 1.384 . S
C3442 C3443 1.372 . S
C3443 C3442 1.372 . S
C3443 C3444 1.400 . S
C3443 C3448 1.490 . S
C3444 H3434 0.930 . S
C3444 C3443 1.400 . S
C3444 C3447 1.386 . S
H3445 C3461 0.930 . S
H3446 C3462 0.931 . S
C3447 H3435 0.929 . S
C3447 C3441 1.390 . S
C3447 C3444 1.386 . S
C3448 C3443 1.490 . S
C3448 C3450 1.395 . S
C3448 C3451 1.403 . S
H3449 C3455 0.930 . S
C3450 H3436 0.930 . S
C3450 C3448 1.395 . S
C3450 C3453 1.403 . S
C3451 C3448 1.403 . S
C3451 C3452 1.524 . S
C3451 C3455 1.400 . S
C3452 H3437 0.960 . S
C3452 H3438 0.960 . S
C3452 H3439 0.960 . S
C3452 C3451 1.524 . S
C3453 C3450 1.403 . S
C3453 C3454 1.392 . S
C3453 C3457 1.495 . S
C3454 C3453 1.392 . S
C3454 C3455 1.385 . S
C3454 C3456 1.478 . S
C3455 H3449 0.930 . S
C3455 C3451 1.400 . S
C3455 C3454 1.385 . S
C3456 C3454 1.478 . S
C3456 C3458 1.381 . S
C3456 C3462 1.383 . S
C3457 C3453 1.495 . S
C3457 H3463 0.959 . S
C3457 H3464 0.961 . S
C3457 H3465 0.960 . S
C3458 C3456 1.381 . S
C3458 C3459 1.394 . S
C3458 H3466 0.930 . S
C3459 C3458 1.394 . S
C3459 C3460 1.383 . S
C3459 H3467 0.929 . S
C3460 C3459 1.383 . S
C3460 C3461 1.377 . S
C3461 H3445 0.930 . S
C3461 C3460 1.377 . S
C3461 C3462 1.379 . S
C3462 H3446 0.931 . S
C3462 C3456 1.383 . S
C3462 C3461 1.379 . S
H3463 C3457 0.959 . S
H3464 C3457 0.961 . S
H3465 C3457 0.960 . S
H3466 C3458 0.930 . S
H3467 C3459 0.929 . S
H3468 C3476 0.929 . S
H3469 C3478 0.930 . S
H3470 C3480 0.930 . S
H3471 C3483 0.929 . S
H3472 C3486 0.930 . S
H3473 C3488 0.960 . S
H3474 C3488 0.960 . S
H3475 C3488 0.960 . S
C3476 H3468 0.929 . S
C3476 C3477 1.377 . S
C3476 C3478 1.384 . S
C3477 C3476 1.377 . S
C3477 C3483 1.390 . S
C3478 H3469 0.930 . S
C3478 C3476 1.384 . S
C3478 C3479 1.372 . S
C3479 C3478 1.372 . S
C3479 C3480 1.400 . S
C3479 C3484 1.490 . S
C3480 H3470 0.930 . S
C3480 C3479 1.400 . S
C3480 C3483 1.386 . S
H3481 C3497 0.930 . S
H3482 C3498 0.931 . S
C3483 H3471 0.929 . S
C3483 C3477 1.390 . S
C3483 C3480 1.386 . S
C3484 C3479 1.490 . S
C3484 C3486 1.395 . S
C3484 C3487 1.403 . S
H3485 C3491 0.930 . S
C3486 H3472 0.930 . S
C3486 C3484 1.395 . S
C3486 C3489 1.403 . S
C3487 C3484 1.403 . S
C3487 C3488 1.524 . S
C3487 C3491 1.400 . S
C3488 H3473 0.960 . S
C3488 H3474 0.960 . S
C3488 H3475 0.960 . S
C3488 C3487 1.524 . S
C3489 C3486 1.403 . S
C3489 C3490 1.392 . S
C3489 C3493 1.495 . S
C3490 C3489 1.392 . S
C3490 C3491 1.385 . S
C3490 C3492 1.478 . S
C3491 H3485 0.930 . S
C3491 C3487 1.400 . S
C3491 C3490 1.385 . S
C3492 C3490 1.478 . S
C3492 C3494 1.381 . S
C3492 C3498 1.383 . S
C3493 C3489 1.495 . S
C3493 H3499 0.959 . S
C3493 H3500 0.961 . S
C3493 H3501 0.960 . S
C3494 C3492 1.381 . S
C3494 C3495 1.394 . S
C3494 H3502 0.930 . S
C3495 C3494 1.394 . S
C3495 C3496 1.383 . S
C3495 H3503 0.929 . S
C3496 C3495 1.383 . S
C3496 C3497 1.377 . S
C3497 H3481 0.930 . S
C3497 C3496 1.377 . S
C3497 C3498 1.379 . S
C3498 H3482 0.931 . S
C3498 C3492 1.383 . S
C3498 C3497 1.379 . S
H3499 C3493 0.959 . S
H3500 C3493 0.961 . S
H3501 C3493 0.960 . S
H3502 C3494 0.930 . S
H3503 C3495 0.929 . S
H3504 C3512 0.929 . S
H3505 C3514 0.930 . S
H3506 C3516 0.930 . S
H3507 C3519 0.929 . S
H3508 C3522 0.930 . S
H3509 C3524 0.960 . S
H3510 C3524 0.960 . S
H3511 C3524 0.960 . S
C3512 H3504 0.929 . S
C3512 C3513 1.377 . S
C3512 C3514 1.384 . S
C3513 C3512 1.377 . S
C3513 C3519 1.390 . S
C3514 H3505 0.930 . S
C3514 C3512 1.384 . S
C3514 C3515 1.372 . S
C3515 C3514 1.372 . S
C3515 C3516 1.400 . S
C3515 C3520 1.490 . S
C3516 H3506 0.930 . S
C3516 C3515 1.400 . S
C3516 C3519 1.386 . S
H3517 C3533 0.930 . S
H3518 C3534 0.931 . S
C3519 H3507 0.929 . S
C3519 C3513 1.390 . S
C3519 C3516 1.386 . S
C3520 C3515 1.490 . S
C3520 C3522 1.395 . S
C3520 C3523 1.403 . S
H3521 C3527 0.930 . S
C3522 H3508 0.930 . S
C3522 C3520 1.395 . S
C3522 C3525 1.403 . S
C3523 C3520 1.403 . S
C3523 C3524 1.524 . S
C3523 C3527 1.400 . S
C3524 H3509 0.960 . S
C3524 H3510 0.960 . S
C3524 H3511 0.960 . S
C3524 C3523 1.524 . S
C3525 C3522 1.403 . S
C3525 C3526 1.392 . S
C3525 C3529 1.495 . S
C3526 C3525 1.392 . S
C3526 C3527 1.385 . S
C3526 C3528 1.478 . S
C3527 H3521 0.930 . S
C3527 C3523 1.400 . S
C3527 C3526 1.385 . S
C3528 C3526 1.478 . S
C3528 C3530 1.381 . S
C3528 C3534 1.383 . S
C3529 C3525 1.495 . S
C3529 H3535 0.959 . S
C3529 H3536 0.961 . S
C3529 H3537 0.960 . S
C3530 C3528 1.381 . S
C3530 C3531 1.394 . S
C3530 H3538 0.930 . S
C3531 C3530 1.394 . S
C3531 C3532 1.383 . S
C3531 H3539 0.929 . S
C3532 C3531 1.383 . S
C3532 C3533 1.377 . S
C3533 H3517 0.930 . S
C3533 C3532 1.377 . S
C3533 C3534 1.379 . S
C3534 H3518 0.931 . S
C3534 C3528 1.383 . S
C3534 C3533 1.379 . S
H3535 C3529 0.959 . S
H3536 C3529 0.961 . S
H3537 C3529 0.960 . S
H3538 C3530 0.930 . S
H3539 C3531 0.929 . S
H3540 C3548 0.929 . S
H3541 C3550 0.930 . S
H3542 C3552 0.930 . S
H3543 C3555 0.929 . S
H3544 C3558 0.930 . S
H3545 C3560 0.960 . S
H3546 C3560 0.960 . S
H3547 C3560 0.960 . S
C3548 H3540 0.929 . S
C3548 C3549 1.377 . S
C3548 C3550 1.384 . S
C3549 C3548 1.377 . S
C3549 C3555 1.390 . S
C3550 H3541 0.930 . S
C3550 C3548 1.384 . S
C3550 C3551 1.372 . S
C3551 C3550 1.372 . S
C3551 C3552 1.400 . S
C3551 C3556 1.490 . S
C3552 H3542 0.930 . S
C3552 C3551 1.400 . S
C3552 C3555 1.386 . S
H3553 C3569 0.930 . S
H3554 C3570 0.931 . S
C3555 H3543 0.929 . S
C3555 C3549 1.390 . S
C3555 C3552 1.386 . S
C3556 C3551 1.490 . S
C3556 C3558 1.395 . S
C3556 C3559 1.403 . S
H3557 C3563 0.930 . S
C3558 H3544 0.930 . S
C3558 C3556 1.395 . S
C3558 C3561 1.403 . S
C3559 C3556 1.403 . S
C3559 C3560 1.524 . S
C3559 C3563 1.400 . S
C3560 H3545 0.960 . S
C3560 H3546 0.960 . S
C3560 H3547 0.960 . S
C3560 C3559 1.524 . S
C3561 C3558 1.403 . S
C3561 C3562 1.392 . S
C3561 C3565 1.495 . S
C3562 C3561 1.392 . S
C3562 C3563 1.385 . S
C3562 C3564 1.478 . S
C3563 H3557 0.930 . S
C3563 C3559 1.400 . S
C3563 C3562 1.385 . S
C3564 C3562 1.478 . S
C3564 C3566 1.381 . S
C3564 C3570 1.383 . S
C3565 C3561 1.495 . S
C3565 H3571 0.959 . S
C3565 H3572 0.961 . S
C3565 H3573 0.960 . S
C3566 C3564 1.381 . S
C3566 C3567 1.394 . S
C3566 H3574 0.930 . S
C3567 C3566 1.394 . S
C3567 C3568 1.383 . S
C3567 H3575 0.929 . S
C3568 C3567 1.383 . S
C3568 C3569 1.377 . S
C3569 H3553 0.930 . S
C3569 C3568 1.377 . S
C3569 C3570 1.379 . S
C3570 H3554 0.931 . S
C3570 C3564 1.383 . S
C3570 C3569 1.379 . S
H3571 C3565 0.959 . S
H3572 C3565 0.961 . S
H3573 C3565 0.960 . S
H3574 C3566 0.930 . S
H3575 C3567 0.929 . S
H3576 C3584 0.929 . S
H3577 C3586 0.930 . S
H3578 C3588 0.930 . S
H3579 C3591 0.929 . S
H3580 C3594 0.930 . S
H3581 C3596 0.960 . S
H3582 C3596 0.960 . S
H3583 C3596 0.960 . S
C3584 H3576 0.929 . S
C3584 C3585 1.377 . S
C3584 C3586 1.384 . S
C3585 C3584 1.377 . S
C3585 C3591 1.390 . S
C3586 H3577 0.930 . S
C3586 C3584 1.384 . S
C3586 C3587 1.372 . S
C3587 C3586 1.372 . S
C3587 C3588 1.400 . S
C3587 C3592 1.490 . S
C3588 H3578 0.930 . S
C3588 C3587 1.400 . S
C3588 C3591 1.386 . S
H3589 C3605 0.930 . S
H3590 C3606 0.931 . S
C3591 H3579 0.929 . S
C3591 C3585 1.390 . S
C3591 C3588 1.386 . S
C3592 C3587 1.490 . S
C3592 C3594 1.395 . S
C3592 C3595 1.403 . S
H3593 C3599 0.930 . S
C3594 H3580 0.930 . S
C3594 C3592 1.395 . S
C3594 C3597 1.403 . S
C3595 C3592 1.403 . S
C3595 C3596 1.524 . S
C3595 C3599 1.400 . S
C3596 H3581 0.960 . S
C3596 H3582 0.960 . S
C3596 H3583 0.960 . S
C3596 C3595 1.524 . S
C3597 C3594 1.403 . S
C3597 C3598 1.392 . S
C3597 C3601 1.495 . S
C3598 C3597 1.392 . S
C3598 C3599 1.385 . S
C3598 C3600 1.478 . S
C3599 H3593 0.930 . S
C3599 C3595 1.400 . S
C3599 C3598 1.385 . S
C3600 C3598 1.478 . S
C3600 C3602 1.381 . S
C3600 C3606 1.383 . S
C3601 C3597 1.495 . S
C3601 H3607 0.959 . S
C3601 H3608 0.961 . S
C3601 H3609 0.960 . S
C3602 C3600 1.381 . S
C3602 C3603 1.394 . S
C3602 H3610 0.930 . S
C3603 C3602 1.394 . S
C3603 C3604 1.383 . S
C3603 H3611 0.929 . S
C3604 C3603 1.383 . S
C3604 C3605 1.377 . S
C3605 H3589 0.930 . S
C3605 C3604 1.377 . S
C3605 C3606 1.379 . S
C3606 H3590 0.931 . S
C3606 C3600 1.383 . S
C3606 C3605 1.379 . S
H3607 C3601 0.959 . S
H3608 C3601 0.961 . S
H3609 C3601 0.960 . S
H3610 C3602 0.930 . S
H3611 C3603 0.929 . S
H3612 C3620 0.929 . S
H3613 C3622 0.930 . S
H3614 C3624 0.930 . S
H3615 C3627 0.929 . S
H3616 C3630 0.930 . S
H3617 C3632 0.960 . S
H3618 C3632 0.960 . S
H3619 C3632 0.960 . S
C3620 H3612 0.929 . S
C3620 C3621 1.377 . S
C3620 C3622 1.384 . S
C3621 C3620 1.377 . S
C3621 C3627 1.390 . S
C3622 H3613 0.930 . S
C3622 C3620 1.384 . S
C3622 C3623 1.372 . S
C3623 C3622 1.372 . S
C3623 C3624 1.400 . S
C3623 C3628 1.490 . S
C3624 H3614 0.930 . S
C3624 C3623 1.400 . S
C3624 C3627 1.386 . S
H3625 C3641 0.930 . S
H3626 C3642 0.931 . S
C3627 H3615 0.929 . S
C3627 C3621 1.390 . S
C3627 C3624 1.386 . S
C3628 C3623 1.490 . S
C3628 C3630 1.395 . S
C3628 C3631 1.403 . S
H3629 C3635 0.930 . S
C3630 H3616 0.930 . S
C3630 C3628 1.395 . S
C3630 C3633 1.403 . S
C3631 C3628 1.403 . S
C3631 C3632 1.524 . S
C3631 C3635 1.400 . S
C3632 H3617 0.960 . S
C3632 H3618 0.960 . S
C3632 H3619 0.960 . S
C3632 C3631 1.524 . S
C3633 C3630 1.403 . S
C3633 C3634 1.392 . S
C3633 C3637 1.495 . S
C3634 C3633 1.392 . S
C3634 C3635 1.385 . S
C3634 C3636 1.478 . S
C3635 H3629 0.930 . S
C3635 C3631 1.400 . S
C3635 C3634 1.385 . S
C3636 C3634 1.478 . S
C3636 C3638 1.381 . S
C3636 C3642 1.383 . S
C3637 C3633 1.495 . S
C3637 H3643 0.959 . S
C3637 H3644 0.961 . S
C3637 H3645 0.960 . S
C3638 C3636 1.381 . S
C3638 C3639 1.394 . S
C3638 H3646 0.930 . S
C3639 C3638 1.394 . S
C3639 C3640 1.383 . S
C3639 H3647 0.929 . S
C3640 C3639 1.383 . S
C3640 C3641 1.377 . S
C3641 H3625 0.930 . S
C3641 C3640 1.377 . S
C3641 C3642 1.379 . S
C3642 H3626 0.931 . S
C3642 C3636 1.383 . S
C3642 C3641 1.379 . S
H3643 C3637 0.959 . S
H3644 C3637 0.961 . S
H3645 C3637 0.960 . S
H3646 C3638 0.930 . S
H3647 C3639 0.929 . S
H3648 C3656 0.929 . S
H3649 C3658 0.930 . S
H3650 C3660 0.930 . S
H3651 C3663 0.929 . S
H3652 C3666 0.930 . S
H3653 C3668 0.960 . S
H3654 C3668 0.960 . S
H3655 C3668 0.960 . S
C3656 H3648 0.929 . S
C3656 C3657 1.377 . S
C3656 C3658 1.384 . S
C3657 C3656 1.377 . S
C3657 C3663 1.390 . S
C3658 H3649 0.930 . S
C3658 C3656 1.384 . S
C3658 C3659 1.372 . S
C3659 C3658 1.372 . S
C3659 C3660 1.400 . S
C3659 C3664 1.490 . S
C3660 H3650 0.930 . S
C3660 C3659 1.400 . S
C3660 C3663 1.386 . S
H3661 C3677 0.930 . S
H3662 C3678 0.931 . S
C3663 H3651 0.929 . S
C3663 C3657 1.390 . S
C3663 C3660 1.386 . S
C3664 C3659 1.490 . S
C3664 C3666 1.395 . S
C3664 C3667 1.403 . S
H3665 C3671 0.930 . S
C3666 H3652 0.930 . S
C3666 C3664 1.395 . S
C3666 C3669 1.403 . S
C3667 C3664 1.403 . S
C3667 C3668 1.524 . S
C3667 C3671 1.400 . S
C3668 H3653 0.960 . S
C3668 H3654 0.960 . S
C3668 H3655 0.960 . S
C3668 C3667 1.524 . S
C3669 C3666 1.403 . S
C3669 C3670 1.392 . S
C3669 C3673 1.495 . S
C3670 C3669 1.392 . S
C3670 C3671 1.385 . S
C3670 C3672 1.478 . S
C3671 H3665 0.930 . S
C3671 C3667 1.400 . S
C3671 C3670 1.385 . S
C3672 C3670 1.478 . S
C3672 C3674 1.381 . S
C3672 C3678 1.383 . S
C3673 C3669 1.495 . S
C3673 H3679 0.959 . S
C3673 H3680 0.961 . S
C3673 H3681 0.960 . S
C3674 C3672 1.381 . S
C3674 C3675 1.394 . S
C3674 H3682 0.930 . S
C3675 C3674 1.394 . S
C3675 C3676 1.383 . S
C3675 H3683 0.929 . S
C3676 C3675 1.383 . S
C3676 C3677 1.377 . S
C3677 H3661 0.930 . S
C3677 C3676 1.377 . S
C3677 C3678 1.379 . S
C3678 H3662 0.931 . S
C3678 C3672 1.383 . S
C3678 C3677 1.379 . S
H3679 C3673 0.959 . S
H3680 C3673 0.961 . S
H3681 C3673 0.960 . S
H3682 C3674 0.930 . S
H3683 C3675 0.929 . S
H3684 C3692 0.929 . S
H3685 C3694 0.930 . S
H3686 C3696 0.930 . S
H3687 C3699 0.929 . S
H3688 C3702 0.930 . S
H3689 C3704 0.960 . S
H3690 C3704 0.960 . S
H3691 C3704 0.960 . S
C3692 H3684 0.929 . S
C3692 C3693 1.377 . S
C3692 C3694 1.384 . S
C3693 C3692 1.377 . S
C3693 C3699 1.390 . S
C3694 H3685 0.930 . S
C3694 C3692 1.384 . S
C3694 C3695 1.372 . S
C3695 C3694 1.372 . S
C3695 C3696 1.400 . S
C3695 C3700 1.490 . S
C3696 H3686 0.930 . S
C3696 C3695 1.400 . S
C3696 C3699 1.386 . S
H3697 C3713 0.930 . S
H3698 C3714 0.931 . S
C3699 H3687 0.929 . S
C3699 C3693 1.390 . S
C3699 C3696 1.386 . S
C3700 C3695 1.490 . S
C3700 C3702 1.395 . S
C3700 C3703 1.403 . S
H3701 C3707 0.930 . S
C3702 H3688 0.930 . S
C3702 C3700 1.395 . S
C3702 C3705 1.403 . S
C3703 C3700 1.403 . S
C3703 C3704 1.524 . S
C3703 C3707 1.400 . S
C3704 H3689 0.960 . S
C3704 H3690 0.960 . S
C3704 H3691 0.960 . S
C3704 C3703 1.524 . S
C3705 C3702 1.403 . S
C3705 C3706 1.392 . S
C3705 C3709 1.495 . S
C3706 C3705 1.392 . S
C3706 C3707 1.385 . S
C3706 C3708 1.478 . S
C3707 H3701 0.930 . S
C3707 C3703 1.400 . S
C3707 C3706 1.385 . S
C3708 C3706 1.478 . S
C3708 C3710 1.381 . S
C3708 C3714 1.383 . S
C3709 C3705 1.495 . S
C3709 H3715 0.959 . S
C3709 H3716 0.961 . S
C3709 H3717 0.960 . S
C3710 C3708 1.381 . S
C3710 C3711 1.394 . S
C3710 H3718 0.930 . S
C3711 C3710 1.394 . S
C3711 C3712 1.383 . S
C3711 H3719 0.929 . S
C3712 C3711 1.383 . S
C3712 C3713 1.377 . S
C3713 H3697 0.930 . S
C3713 C3712 1.377 . S
C3713 C3714 1.379 . S
C3714 H3698 0.931 . S
C3714 C3708 1.383 . S
C3714 C3713 1.379 . S
H3715 C3709 0.959 . S
H3716 C3709 0.961 . S
H3717 C3709 0.960 . S
H3718 C3710 0.930 . S
H3719 C3711 0.929 . S
H3720 C3728 0.929 . S
H3721 C3730 0.930 . S
H3722 C3732 0.930 . S
H3723 C3735 0.929 . S
H3724 C3738 0.930 . S
H3725 C3740 0.960 . S
H3726 C3740 0.960 . S
H3727 C3740 0.960 . S
C3728 H3720 0.929 . S
C3728 C3729 1.377 . S
C3728 C3730 1.384 . S
C3729 C3728 1.377 . S
C3729 C3735 1.390 . S
C3730 H3721 0.930 . S
C3730 C3728 1.384 . S
C3730 C3731 1.372 . S
C3731 C3730 1.372 . S
C3731 C3732 1.400 . S
C3731 C3736 1.490 . S
C3732 H3722 0.930 . S
C3732 C3731 1.400 . S
C3732 C3735 1.386 . S
H3733 C3749 0.930 . S
H3734 C3750 0.931 . S
C3735 H3723 0.929 . S
C3735 C3729 1.390 . S
C3735 C3732 1.386 . S
C3736 C3731 1.490 . S
C3736 C3738 1.395 . S
C3736 C3739 1.403 . S
H3737 C3743 0.930 . S
C3738 H3724 0.930 . S
C3738 C3736 1.395 . S
C3738 C3741 1.403 . S
C3739 C3736 1.403 . S
C3739 C3740 1.524 . S
C3739 C3743 1.400 . S
C3740 H3725 0.960 . S
C3740 H3726 0.960 . S
C3740 H3727 0.960 . S
C3740 C3739 1.524 . S
C3741 C3738 1.403 . S
C3741 C3742 1.392 . S
C3741 C3745 1.495 . S
C3742 C3741 1.392 . S
C3742 C3743 1.385 . S
C3742 C3744 1.478 . S
C3743 H3737 0.930 . S
C3743 C3739 1.400 . S
C3743 C3742 1.385 . S
C3744 C3742 1.478 . S
C3744 C3746 1.381 . S
C3744 C3750 1.383 . S
C3745 C3741 1.495 . S
C3745 H3751 0.959 . S
C3745 H3752 0.961 . S
C3745 H3753 0.960 . S
C3746 C3744 1.381 . S
C3746 C3747 1.394 . S
C3746 H3754 0.930 . S
C3747 C3746 1.394 . S
C3747 C3748 1.383 . S
C3747 H3755 0.929 . S
C3748 C3747 1.383 . S
C3748 C3749 1.377 . S
C3749 H3733 0.930 . S
C3749 C3748 1.377 . S
C3749 C3750 1.379 . S
C3750 H3734 0.931 . S
C3750 C3744 1.383 . S
C3750 C3749 1.379 . S
H3751 C3745 0.959 . S
H3752 C3745 0.961 . S
H3753 C3745 0.960 . S
H3754 C3746 0.930 . S
H3755 C3747 0.929 . S
H3756 C3764 0.929 . S
H3757 C3766 0.930 . S
H3758 C3768 0.930 . S
H3759 C3771 0.929 . S
H3760 C3774 0.930 . S
H3761 C3776 0.960 . S
H3762 C3776 0.960 . S
H3763 C3776 0.960 . S
C3764 H3756 0.929 . S
C3764 C3765 1.377 . S
C3764 C3766 1.384 . S
C3765 C3764 1.377 . S
C3765 C3771 1.390 . S
C3766 H3757 0.930 . S
C3766 C3764 1.384 . S
C3766 C3767 1.372 . S
C3767 C3766 1.372 . S
C3767 C3768 1.400 . S
C3767 C3772 1.490 . S
C3768 H3758 0.930 . S
C3768 C3767 1.400 . S
C3768 C3771 1.386 . S
H3769 C3785 0.930 . S
H3770 C3786 0.931 . S
C3771 H3759 0.929 . S
C3771 C3765 1.390 . S
C3771 C3768 1.386 . S
C3772 C3767 1.490 . S
C3772 C3774 1.395 . S
C3772 C3775 1.403 . S
H3773 C3779 0.930 . S
C3774 H3760 0.930 . S
C3774 C3772 1.395 . S
C3774 C3777 1.403 . S
C3775 C3772 1.403 . S
C3775 C3776 1.524 . S
C3775 C3779 1.400 . S
C3776 H3761 0.960 . S
C3776 H3762 0.960 . S
C3776 H3763 0.960 . S
C3776 C3775 1.524 . S
C3777 C3774 1.403 . S
C3777 C3778 1.392 . S
C3777 C3781 1.495 . S
C3778 C3777 1.392 . S
C3778 C3779 1.385 . S
C3778 C3780 1.478 . S
C3779 H3773 0.930 . S
C3779 C3775 1.400 . S
C3779 C3778 1.385 . S
C3780 C3778 1.478 . S
C3780 C3782 1.381 . S
C3780 C3786 1.383 . S
C3781 C3777 1.495 . S
C3781 H3787 0.959 . S
C3781 H3788 0.961 . S
C3781 H3789 0.960 . S
C3782 C3780 1.381 . S
C3782 C3783 1.394 . S
C3782 H3790 0.930 . S
C3783 C3782 1.394 . S
C3783 C3784 1.383 . S
C3783 H3791 0.929 . S
C3784 C3783 1.383 . S
C3784 C3785 1.377 . S
C3785 H3769 0.930 . S
C3785 C3784 1.377 . S
C3785 C3786 1.379 . S
C3786 H3770 0.931 . S
C3786 C3780 1.383 . S
C3786 C3785 1.379 . S
H3787 C3781 0.959 . S
H3788 C3781 0.961 . S
H3789 C3781 0.960 . S
H3790 C3782 0.930 . S
H3791 C3783 0.929 . S
H3792 C3800 0.929 . S
H3793 C3802 0.930 . S
H3794 C3804 0.930 . S
H3795 C3807 0.929 . S
H3796 C3810 0.930 . S
H3797 C3812 0.960 . S
H3798 C3812 0.960 . S
H3799 C3812 0.960 . S
C3800 H3792 0.929 . S
C3800 C3801 1.377 . S
C3800 C3802 1.384 . S
C3801 C3800 1.377 . S
C3801 C3807 1.390 . S
C3802 H3793 0.930 . S
C3802 C3800 1.384 . S
C3802 C3803 1.372 . S
C3803 C3802 1.372 . S
C3803 C3804 1.400 . S
C3803 C3808 1.490 . S
C3804 H3794 0.930 . S
C3804 C3803 1.400 . S
C3804 C3807 1.386 . S
H3805 C3821 0.930 . S
H3806 C3822 0.931 . S
C3807 H3795 0.929 . S
C3807 C3801 1.390 . S
C3807 C3804 1.386 . S
C3808 C3803 1.490 . S
C3808 C3810 1.395 . S
C3808 C3811 1.403 . S
H3809 C3815 0.930 . S
C3810 H3796 0.930 . S
C3810 C3808 1.395 . S
C3810 C3813 1.403 . S
C3811 C3808 1.403 . S
C3811 C3812 1.524 . S
C3811 C3815 1.400 . S
C3812 H3797 0.960 . S
C3812 H3798 0.960 . S
C3812 H3799 0.960 . S
C3812 C3811 1.524 . S
C3813 C3810 1.403 . S
C3813 C3814 1.392 . S
C3813 C3817 1.495 . S
C3814 C3813 1.392 . S
C3814 C3815 1.385 . S
C3814 C3816 1.478 . S
C3815 H3809 0.930 . S
C3815 C3811 1.400 . S
C3815 C3814 1.385 . S
C3816 C3814 1.478 . S
C3816 C3818 1.381 . S
C3816 C3822 1.383 . S
C3817 C3813 1.495 . S
C3817 H3823 0.959 . S
C3817 H3824 0.961 . S
C3817 H3825 0.960 . S
C3818 C3816 1.381 . S
C3818 C3819 1.394 . S
C3818 H3826 0.930 . S
C3819 C3818 1.394 . S
C3819 C3820 1.383 . S
C3819 H3827 0.929 . S
C3820 C3819 1.383 . S
C3820 C3821 1.377 . S
C3821 H3805 0.930 . S
C3821 C3820 1.377 . S
C3821 C3822 1.379 . S
C3822 H3806 0.931 . S
C3822 C3816 1.383 . S
C3822 C3821 1.379 . S
H3823 C3817 0.959 . S
H3824 C3817 0.961 . S
H3825 C3817 0.960 . S
H3826 C3818 0.930 . S
H3827 C3819 0.929 . S
H3828 C3836 0.929 . S
H3829 C3838 0.930 . S
H3830 C3840 0.930 . S
H3831 C3843 0.929 . S
H3832 C3846 0.930 . S
H3833 C3848 0.960 . S
H3834 C3848 0.960 . S
H3835 C3848 0.960 . S
C3836 H3828 0.929 . S
C3836 C3837 1.377 . S
C3836 C3838 1.384 . S
C3837 C3836 1.377 . S
C3837 C3843 1.390 . S
C3838 H3829 0.930 . S
C3838 C3836 1.384 . S
C3838 C3839 1.372 . S
C3839 C3838 1.372 . S
C3839 C3840 1.400 . S
C3839 C3844 1.490 . S
C3840 H3830 0.930 . S
C3840 C3839 1.400 . S
C3840 C3843 1.386 . S
H3841 C3857 0.930 . S
H3842 C3858 0.931 . S
C3843 H3831 0.929 . S
C3843 C3837 1.390 . S
C3843 C3840 1.386 . S
C3844 C3839 1.490 . S
C3844 C3846 1.395 . S
C3844 C3847 1.403 . S
H3845 C3851 0.930 . S
C3846 H3832 0.930 . S
C3846 C3844 1.395 . S
C3846 C3849 1.403 . S
C3847 C3844 1.403 . S
C3847 C3848 1.524 . S
C3847 C3851 1.400 . S
C3848 H3833 0.960 . S
C3848 H3834 0.960 . S
C3848 H3835 0.960 . S
C3848 C3847 1.524 . S
C3849 C3846 1.403 . S
C3849 C3850 1.392 . S
C3849 C3853 1.495 . S
C3850 C3849 1.392 . S
C3850 C3851 1.385 . S
C3850 C3852 1.478 . S
C3851 H3845 0.930 . S
C3851 C3847 1.400 . S
C3851 C3850 1.385 . S
C3852 C3850 1.478 . S
C3852 C3854 1.381 . S
C3852 C3858 1.383 . S
C3853 C3849 1.495 . S
C3853 H3859 0.959 . S
C3853 H3860 0.961 . S
C3853 H3861 0.960 . S
C3854 C3852 1.381 . S
C3854 C3855 1.394 . S
C3854 H3862 0.930 . S
C3855 C3854 1.394 . S
C3855 C3856 1.383 . S
C3855 H3863 0.929 . S
C3856 C3855 1.383 . S
C3856 C3857 1.377 . S
C3857 H3841 0.930 . S
C3857 C3856 1.377 . S
C3857 C3858 1.379 . S
C3858 H3842 0.931 . S
C3858 C3852 1.383 . S
C3858 C3857 1.379 . S
H3859 C3853 0.959 . S
H3860 C3853 0.961 . S
H3861 C3853 0.960 . S
H3862 C3854 0.930 . S
H3863 C3855 0.929 . S
H3864 C3872 0.929 . S
H3865 C3874 0.930 . S
H3866 C3876 0.930 . S
H3867 C3879 0.929 . S
H3868 C3882 0.930 . S
H3869 C3884 0.960 . S
H3870 C3884 0.960 . S
H3871 C3884 0.960 . S
C3872 H3864 0.929 . S
C3872 C3873 1.377 . S
C3872 C3874 1.384 . S
C3873 C3872 1.377 . S
C3873 C3879 1.390 . S
C3874 H3865 0.930 . S
C3874 C3872 1.384 . S
C3874 C3875 1.372 . S
C3875 C3874 1.372 . S
C3875 C3876 1.400 . S
C3875 C3880 1.490 . S
C3876 H3866 0.930 . S
C3876 C3875 1.400 . S
C3876 C3879 1.386 . S
H3877 C3893 0.930 . S
H3878 C3894 0.931 . S
C3879 H3867 0.929 . S
C3879 C3873 1.390 . S
C3879 C3876 1.386 . S
C3880 C3875 1.490 . S
C3880 C3882 1.395 . S
C3880 C3883 1.403 . S
H3881 C3887 0.930 . S
C3882 H3868 0.930 . S
C3882 C3880 1.395 . S
C3882 C3885 1.403 . S
C3883 C3880 1.403 . S
C3883 C3884 1.524 . S
C3883 C3887 1.400 . S
C3884 H3869 0.960 . S
C3884 H3870 0.960 . S
C3884 H3871 0.960 . S
C3884 C3883 1.524 . S
C3885 C3882 1.403 . S
C3885 C3886 1.392 . S
C3885 C3889 1.495 . S
C3886 C3885 1.392 . S
C3886 C3887 1.385 . S
C3886 C3888 1.478 . S
C3887 H3881 0.930 . S
C3887 C3883 1.400 . S
C3887 C3886 1.385 . S
C3888 C3886 1.478 . S
C3888 C3890 1.381 . S
C3888 C3894 1.383 . S
C3889 C3885 1.495 . S
C3889 H3895 0.959 . S
C3889 H3896 0.961 . S
C3889 H3897 0.960 . S
C3890 C3888 1.381 . S
C3890 C3891 1.394 . S
C3890 H3898 0.930 . S
C3891 C3890 1.394 . S
C3891 C3892 1.383 . S
C3891 H3899 0.929 . S
C3892 C3891 1.383 . S
C3892 C3893 1.377 . S
C3893 H3877 0.930 . S
C3893 C3892 1.377 . S
C3893 C3894 1.379 . S
C3894 H3878 0.931 . S
C3894 C3888 1.383 . S
C3894 C3893 1.379 . S
H3895 C3889 0.959 . S
H3896 C3889 0.961 . S
H3897 C3889 0.960 . S
H3898 C3890 0.930 . S
H3899 C3891 0.929 . S
H3900 C3908 0.929 . S
H3901 C3910 0.930 . S
H3902 C3912 0.930 . S
H3903 C3915 0.929 . S
H3904 C3918 0.930 . S
H3905 C3920 0.960 . S
H3906 C3920 0.960 . S
H3907 C3920 0.960 . S
C3908 H3900 0.929 . S
C3908 C3909 1.377 . S
C3908 C3910 1.384 . S
C3909 C3908 1.377 . S
C3909 C3915 1.390 . S
C3910 H3901 0.930 . S
C3910 C3908 1.384 . S
C3910 C3911 1.372 . S
C3911 C3910 1.372 . S
C3911 C3912 1.400 . S
C3911 C3916 1.490 . S
C3912 H3902 0.930 . S
C3912 C3911 1.400 . S
C3912 C3915 1.386 . S
H3913 C3929 0.930 . S
H3914 C3930 0.931 . S
C3915 H3903 0.929 . S
C3915 C3909 1.390 . S
C3915 C3912 1.386 . S
C3916 C3911 1.490 . S
C3916 C3918 1.395 . S
C3916 C3919 1.403 . S
H3917 C3923 0.930 . S
C3918 H3904 0.930 . S
C3918 C3916 1.395 . S
C3918 C3921 1.403 . S
C3919 C3916 1.403 . S
C3919 C3920 1.524 . S
C3919 C3923 1.400 . S
C3920 H3905 0.960 . S
C3920 H3906 0.960 . S
C3920 H3907 0.960 . S
C3920 C3919 1.524 . S
C3921 C3918 1.403 . S
C3921 C3922 1.392 . S
C3921 C3925 1.495 . S
C3922 C3921 1.392 . S
C3922 C3923 1.385 . S
C3922 C3924 1.478 . S
C3923 H3917 0.930 . S
C3923 C3919 1.400 . S
C3923 C3922 1.385 . S
C3924 C3922 1.478 . S
C3924 C3926 1.381 . S
C3924 C3930 1.383 . S
C3925 C3921 1.495 . S
C3925 H3931 0.959 . S
C3925 H3932 0.961 . S
C3925 H3933 0.960 . S
C3926 C3924 1.381 . S
C3926 C3927 1.394 . S
C3926 H3934 0.930 . S
C3927 C3926 1.394 . S
C3927 C3928 1.383 . S
C3927 H3935 0.929 . S
C3928 C3927 1.383 . S
C3928 C3929 1.377 . S
C3929 H3913 0.930 . S
C3929 C3928 1.377 . S
C3929 C3930 1.379 . S
C3930 H3914 0.931 . S
C3930 C3924 1.383 . S
C3930 C3929 1.379 . S
H3931 C3925 0.959 . S
H3932 C3925 0.961 . S
H3933 C3925 0.960 . S
H3934 C3926 0.930 . S
H3935 C3927 0.929 . S
H3936 C3944 0.929 . S
H3937 C3946 0.930 . S
H3938 C3948 0.930 . S
H3939 C3951 0.929 . S
H3940 C3954 0.930 . S
H3941 C3956 0.960 . S
H3942 C3956 0.960 . S
H3943 C3956 0.960 . S
C3944 H3936 0.929 . S
C3944 C3945 1.377 . S
C3944 C3946 1.384 . S
C3945 C3944 1.377 . S
C3945 C3951 1.390 . S
C3946 H3937 0.930 . S
C3946 C3944 1.384 . S
C3946 C3947 1.372 . S
C3947 C3946 1.372 . S
C3947 C3948 1.400 . S
C3947 C3952 1.490 . S
C3948 H3938 0.930 . S
C3948 C3947 1.400 . S
C3948 C3951 1.386 . S
H3949 C3965 0.930 . S
H3950 C3966 0.931 . S
C3951 H3939 0.929 . S
C3951 C3945 1.390 . S
C3951 C3948 1.386 . S
C3952 C3947 1.490 . S
C3952 C3954 1.395 . S
C3952 C3955 1.403 . S
H3953 C3959 0.930 . S
C3954 H3940 0.930 . S
C3954 C3952 1.395 . S
C3954 C3957 1.403 . S
C3955 C3952 1.403 . S
C3955 C3956 1.524 . S
C3955 C3959 1.400 . S
C3956 H3941 0.960 . S
C3956 H3942 0.960 . S
C3956 H3943 0.960 . S
C3956 C3955 1.524 . S
C3957 C3954 1.403 . S
C3957 C3958 1.392 . S
C3957 C3961 1.495 . S
C3958 C3957 1.392 . S
C3958 C3959 1.385 . S
C3958 C3960 1.478 . S
C3959 H3953 0.930 . S
C3959 C3955 1.400 . S
C3959 C3958 1.385 . S
C3960 C3958 1.478 . S
C3960 C3962 1.381 . S
C3960 C3966 1.383 . S
C3961 C3957 1.495 . S
C3961 H3967 0.959 . S
C3961 H3968 0.961 . S
C3961 H3969 0.960 . S
C3962 C3960 1.381 . S
C3962 C3963 1.394 . S
C3962 H3970 0.930 . S
C3963 C3962 1.394 . S
C3963 C3964 1.383 . S
C3963 H3971 0.929 . S
C3964 C3963 1.383 . S
C3964 C3965 1.377 . S
C3965 H3949 0.930 . S
C3965 C3964 1.377 . S
C3965 C3966 1.379 . S
C3966 H3950 0.931 . S
C3966 C3960 1.383 . S
C3966 C3965 1.379 . S
H3967 C3961 0.959 . S
H3968 C3961 0.961 . S
H3969 C3961 0.960 . S
H3970 C3962 0.930 . S
H3971 C3963 0.929 . S
H3972 C3980 0.929 . S
H3973 C3982 0.930 . S
H3974 C3984 0.930 . S
H3975 C3987 0.929 . S
H3976 C3990 0.930 . S
H3977 C3992 0.960 . S
H3978 C3992 0.960 . S
H3979 C3992 0.960 . S
C3980 H3972 0.929 . S
C3980 C3981 1.377 . S
C3980 C3982 1.384 . S
C3981 C3980 1.377 . S
C3981 C3987 1.390 . S
C3982 H3973 0.930 . S
C3982 C3980 1.384 . S
C3982 C3983 1.372 . S
C3983 C3982 1.372 . S
C3983 C3984 1.400 . S
C3983 C3988 1.490 . S
C3984 H3974 0.930 . S
C3984 C3983 1.400 . S
C3984 C3987 1.386 . S
H3985 C4001 0.930 . S
H3986 C4002 0.931 . S
C3987 H3975 0.929 . S
C3987 C3981 1.390 . S
C3987 C3984 1.386 . S
C3988 C3983 1.490 . S
C3988 C3990 1.395 . S
C3988 C3991 1.403 . S
H3989 C3995 0.930 . S
C3990 H3976 0.930 . S
C3990 C3988 1.395 . S
C3990 C3993 1.403 . S
C3991 C3988 1.403 . S
C3991 C3992 1.524 . S
C3991 C3995 1.400 . S
C3992 H3977 0.960 . S
C3992 H3978 0.960 . S
C3992 H3979 0.960 . S
C3992 C3991 1.524 . S
C3993 C3990 1.403 . S
C3993 C3994 1.392 . S
C3993 C3997 1.495 . S
C3994 C3993 1.392 . S
C3994 C3995 1.385 . S
C3994 C3996 1.478 . S
C3995 H3989 0.930 . S
C3995 C3991 1.400 . S
C3995 C3994 1.385 . S
C3996 C3994 1.478 . S
C3996 C3998 1.381 . S
C3996 C4002 1.383 . S
C3997 C3993 1.495 . S
C3997 H4003 0.959 . S
C3997 H4004 0.961 . S
C3997 H4005 0.960 . S
C3998 C3996 1.381 . S
C3998 C3999 1.394 . S
C3998 H4006 0.930 . S
C3999 C3998 1.394 . S
C3999 C4000 1.383 . S
C3999 H4007 0.929 . S
C4000 C3999 1.383 . S
C4000 C4001 1.377 . S
C4001 H3985 0.930 . S
C4001 C4000 1.377 . S
C4001 C4002 1.379 . S
C4002 H3986 0.931 . S
C4002 C3996 1.383 . S
C4002 C4001 1.379 . S
H4003 C3997 0.959 . S
H4004 C3997 0.961 . S
H4005 C3997 0.960 . S
H4006 C3998 0.930 . S
H4007 C3999 0.929 . S
H4008 C4016 0.929 . S
H4009 C4018 0.930 . S
H4010 C4020 0.930 . S
H4011 C4023 0.929 . S
H4012 C4026 0.930 . S
H4013 C4028 0.960 . S
H4014 C4028 0.960 . S
H4015 C4028 0.960 . S
C4016 H4008 0.929 . S
C4016 C4017 1.377 . S
C4016 C4018 1.384 . S
C4017 C4016 1.377 . S
C4017 C4023 1.390 . S
C4018 H4009 0.930 . S
C4018 C4016 1.384 . S
C4018 C4019 1.372 . S
C4019 C4018 1.372 . S
C4019 C4020 1.400 . S
C4019 C4024 1.490 . S
C4020 H4010 0.930 . S
C4020 C4019 1.400 . S
C4020 C4023 1.386 . S
H4021 C4037 0.930 . S
H4022 C4038 0.931 . S
C4023 H4011 0.929 . S
C4023 C4017 1.390 . S
C4023 C4020 1.386 . S
C4024 C4019 1.490 . S
C4024 C4026 1.395 . S
C4024 C4027 1.403 . S
H4025 C4031 0.930 . S
C4026 H4012 0.930 . S
C4026 C4024 1.395 . S
C4026 C4029 1.403 . S
C4027 C4024 1.403 . S
C4027 C4028 1.524 . S
C4027 C4031 1.400 . S
C4028 H4013 0.960 . S
C4028 H4014 0.960 . S
C4028 H4015 0.960 . S
C4028 C4027 1.524 . S
C4029 C4026 1.403 . S
C4029 C4030 1.392 . S
C4029 C4033 1.495 . S
C4030 C4029 1.392 . S
C4030 C4031 1.385 . S
C4030 C4032 1.478 . S
C4031 H4025 0.930 . S
C4031 C4027 1.400 . S
C4031 C4030 1.385 . S
C4032 C4030 1.478 . S
C4032 C4034 1.381 . S
C4032 C4038 1.383 . S
C4033 C4029 1.495 . S
C4033 H4039 0.959 . S
C4033 H4040 0.961 . S
C4033 H4041 0.960 . S
C4034 C4032 1.381 . S
C4034 C4035 1.394 . S
C4034 H4042 0.930 . S
C4035 C4034 1.394 . S
C4035 C4036 1.383 . S
C4035 H4043 0.929 . S
C4036 C4035 1.383 . S
C4036 C4037 1.377 . S
C4037 H4021 0.930 . S
C4037 C4036 1.377 . S
C4037 C4038 1.379 . S
C4038 H4022 0.931 . S
C4038 C4032 1.383 . S
C4038 C4037 1.379 . S
H4039 C4033 0.959 . S
H4040 C4033 0.961 . S
H4041 C4033 0.960 . S
H4042 C4034 0.930 . S
H4043 C4035 0.929 . S
H4044 C4052 0.929 . S
H4045 C4054 0.930 . S
H4046 C4056 0.930 . S
H4047 C4059 0.929 . S
H4048 C4062 0.930 . S
H4049 C4064 0.960 . S
H4050 C4064 0.960 . S
H4051 C4064 0.960 . S
C4052 H4044 0.929 . S
C4052 C4053 1.377 . S
C4052 C4054 1.384 . S
C4053 C4052 1.377 . S
C4053 C4059 1.390 . S
C4054 H4045 0.930 . S
C4054 C4052 1.384 . S
C4054 C4055 1.372 . S
C4055 C4054 1.372 . S
C4055 C4056 1.400 . S
C4055 C4060 1.490 . S
C4056 H4046 0.930 . S
C4056 C4055 1.400 . S
C4056 C4059 1.386 . S
H4057 C4073 0.930 . S
H4058 C4074 0.931 . S
C4059 H4047 0.929 . S
C4059 C4053 1.390 . S
C4059 C4056 1.386 . S
C4060 C4055 1.490 . S
C4060 C4062 1.395 . S
C4060 C4063 1.403 . S
H4061 C4067 0.930 . S
C4062 H4048 0.930 . S
C4062 C4060 1.395 . S
C4062 C4065 1.403 . S
C4063 C4060 1.403 . S
C4063 C4064 1.524 . S
C4063 C4067 1.400 . S
C4064 H4049 0.960 . S
C4064 H4050 0.960 . S
C4064 H4051 0.960 . S
C4064 C4063 1.524 . S
C4065 C4062 1.403 . S
C4065 C4066 1.392 . S
C4065 C4069 1.495 . S
C4066 C4065 1.392 . S
C4066 C4067 1.385 . S
C4066 C4068 1.478 . S
C4067 H4061 0.930 . S
C4067 C4063 1.400 . S
C4067 C4066 1.385 . S
C4068 C4066 1.478 . S
C4068 C4070 1.381 . S
C4068 C4074 1.383 . S
C4069 C4065 1.495 . S
C4069 H4075 0.959 . S
C4069 H4076 0.961 . S
C4069 H4077 0.960 . S
C4070 C4068 1.381 . S
C4070 C4071 1.394 . S
C4070 H4078 0.930 . S
C4071 C4070 1.394 . S
C4071 C4072 1.383 . S
C4071 H4079 0.929 . S
C4072 C4071 1.383 . S
C4072 C4073 1.377 . S
C4073 H4057 0.930 . S
C4073 C4072 1.377 . S
C4073 C4074 1.379 . S
C4074 H4058 0.931 . S
C4074 C4068 1.383 . S
C4074 C4073 1.379 . S
H4075 C4069 0.959 . S
H4076 C4069 0.961 . S
H4077 C4069 0.960 . S
H4078 C4070 0.930 . S
H4079 C4071 0.929 . S
H4080 C4088 0.929 . S
H4081 C4090 0.930 . S
H4082 C4092 0.930 . S
H4083 C4095 0.929 . S
H4084 C4098 0.930 . S
H4085 C4100 0.960 . S
H4086 C4100 0.960 . S
H4087 C4100 0.960 . S
C4088 H4080 0.929 . S
C4088 C4089 1.377 . S
C4088 C4090 1.384 . S
C4089 C4088 1.377 . S
C4089 C4095 1.390 . S
C4090 H4081 0.930 . S
C4090 C4088 1.384 . S
C4090 C4091 1.372 . S
C4091 C4090 1.372 . S
C4091 C4092 1.400 . S
C4091 C4096 1.490 . S
C4092 H4082 0.930 . S
C4092 C4091 1.400 . S
C4092 C4095 1.386 . S
H4093 C4109 0.930 . S
H4094 C4110 0.931 . S
C4095 H4083 0.929 . S
C4095 C4089 1.390 . S
C4095 C4092 1.386 . S
C4096 C4091 1.490 . S
C4096 C4098 1.395 . S
C4096 C4099 1.403 . S
H4097 C4103 0.930 . S
C4098 H4084 0.930 . S
C4098 C4096 1.395 . S
C4098 C4101 1.403 . S
C4099 C4096 1.403 . S
C4099 C4100 1.524 . S
C4099 C4103 1.400 . S
C4100 H4085 0.960 . S
C4100 H4086 0.960 . S
C4100 H4087 0.960 . S
C4100 C4099 1.524 . S
C4101 C4098 1.403 . S
C4101 C4102 1.392 . S
C4101 C4105 1.495 . S
C4102 C4101 1.392 . S
C4102 C4103 1.385 . S
C4102 C4104 1.478 . S
C4103 H4097 0.930 . S
C4103 C4099 1.400 . S
C4103 C4102 1.385 . S
C4104 C4102 1.478 . S
C4104 C4106 1.381 . S
C4104 C4110 1.383 . S
C4105 C4101 1.495 . S
C4105 H4111 0.959 . S
C4105 H4112 0.961 . S
C4105 H4113 0.960 . S
C4106 C4104 1.381 . S
C4106 C4107 1.394 . S
C4106 H4114 0.930 . S
C4107 C4106 1.394 . S
C4107 C4108 1.383 . S
C4107 H4115 0.929 . S
C4108 C4107 1.383 . S
C4108 C4109 1.377 . S
C4109 H4093 0.930 . S
C4109 C4108 1.377 . S
C4109 C4110 1.379 . S
C4110 H4094 0.931 . S
C4110 C4104 1.383 . S
C4110 C4109 1.379 . S
H4111 C4105 0.959 . S
H4112 C4105 0.961 . S
H4113 C4105 0.960 . S
H4114 C4106 0.930 . S
H4115 C4107 0.929 . S
H4116 C4124 0.929 . S
H4117 C4126 0.930 . S
H4118 C4128 0.930 . S
H4119 C4131 0.929 . S
H4120 C4134 0.930 . S
H4121 C4136 0.960 . S
H4122 C4136 0.960 . S
H4123 C4136 0.960 . S
C4124 H4116 0.929 . S
C4124 C4125 1.377 . S
C4124 C4126 1.384 . S
C4125 C4124 1.377 . S
C4125 C4131 1.390 . S
C4126 H4117 0.930 . S
C4126 C4124 1.384 . S
C4126 C4127 1.372 . S
C4127 C4126 1.372 . S
C4127 C4128 1.400 . S
C4127 C4132 1.490 . S
C4128 H4118 0.930 . S
C4128 C4127 1.400 . S
C4128 C4131 1.386 . S
H4129 C4145 0.930 . S
H4130 C4146 0.931 . S
C4131 H4119 0.929 . S
C4131 C4125 1.390 . S
C4131 C4128 1.386 . S
C4132 C4127 1.490 . S
C4132 C4134 1.395 . S
C4132 C4135 1.403 . S
H4133 C4139 0.930 . S
C4134 H4120 0.930 . S
C4134 C4132 1.395 . S
C4134 C4137 1.403 . S
C4135 C4132 1.403 . S
C4135 C4136 1.524 . S
C4135 C4139 1.400 . S
C4136 H4121 0.960 . S
C4136 H4122 0.960 . S
C4136 H4123 0.960 . S
C4136 C4135 1.524 . S
C4137 C4134 1.403 . S
C4137 C4138 1.392 . S
C4137 C4141 1.495 . S
C4138 C4137 1.392 . S
C4138 C4139 1.385 . S
C4138 C4140 1.478 . S
C4139 H4133 0.930 . S
C4139 C4135 1.400 . S
C4139 C4138 1.385 . S
C4140 C4138 1.478 . S
C4140 C4142 1.381 . S
C4140 C4146 1.383 . S
C4141 C4137 1.495 . S
C4141 H4147 0.959 . S
C4141 H4148 0.961 . S
C4141 H4149 0.960 . S
C4142 C4140 1.381 . S
C4142 C4143 1.394 . S
C4142 H4150 0.930 . S
C4143 C4142 1.394 . S
C4143 C4144 1.383 . S
C4143 H4151 0.929 . S
C4144 C4143 1.383 . S
C4144 C4145 1.377 . S
C4145 H4129 0.930 . S
C4145 C4144 1.377 . S
C4145 C4146 1.379 . S
C4146 H4130 0.931 . S
C4146 C4140 1.383 . S
C4146 C4145 1.379 . S
H4147 C4141 0.959 . S
H4148 C4141 0.961 . S
H4149 C4141 0.960 . S
H4150 C4142 0.930 . S
H4151 C4143 0.929 . S
H4152 C4160 0.929 . S
H4153 C4162 0.930 . S
H4154 C4164 0.930 . S
H4155 C4167 0.929 . S
H4156 C4170 0.930 . S
H4157 C4172 0.960 . S
H4158 C4172 0.960 . S
H4159 C4172 0.960 . S
C4160 H4152 0.929 . S
C4160 C4161 1.377 . S
C4160 C4162 1.384 . S
C4161 C4160 1.377 . S
C4161 C4167 1.390 . S
C4162 H4153 0.930 . S
C4162 C4160 1.384 . S
C4162 C4163 1.372 . S
C4163 C4162 1.372 . S
C4163 C4164 1.400 . S
C4163 C4168 1.490 . S
C4164 H4154 0.930 . S
C4164 C4163 1.400 . S
C4164 C4167 1.386 . S
H4165 C4181 0.930 . S
H4166 C4182 0.931 . S
C4167 H4155 0.929 . S
C4167 C4161 1.390 . S
C4167 C4164 1.386 . S
C4168 C4163 1.490 . S
C4168 C4170 1.395 . S
C4168 C4171 1.403 . S
H4169 C4175 0.930 . S
C4170 H4156 0.930 . S
C4170 C4168 1.395 . S
C4170 C4173 1.403 . S
C4171 C4168 1.403 . S
C4171 C4172 1.524 . S
C4171 C4175 1.400 . S
C4172 H4157 0.960 . S
C4172 H4158 0.960 . S
C4172 H4159 0.960 . S
C4172 C4171 1.524 . S
C4173 C4170 1.403 . S
C4173 C4174 1.392 . S
C4173 C4177 1.495 . S
C4174 C4173 1.392 . S
C4174 C4175 1.385 . S
C4174 C4176 1.478 . S
C4175 H4169 0.930 . S
C4175 C4171 1.400 . S
C4175 C4174 1.385 . S
C4176 C4174 1.478 . S
C4176 C4178 1.381 . S
C4176 C4182 1.383 . S
C4177 C4173 1.495 . S
C4177 H4183 0.959 . S
C4177 H4184 0.961 . S
C4177 H4185 0.960 . S
C4178 C4176 1.381 . S
C4178 C4179 1.394 . S
C4178 H4186 0.930 . S
C4179 C4178 1.394 . S
C4179 C4180 1.383 . S
C4179 H4187 0.929 . S
C4180 C4179 1.383 . S
C4180 C4181 1.377 . S
C4181 H4165 0.930 . S
C4181 C4180 1.377 . S
C4181 C4182 1.379 . S
C4182 H4166 0.931 . S
C4182 C4176 1.383 . S
C4182 C4181 1.379 . S
H4183 C4177 0.959 . S
H4184 C4177 0.961 . S
H4185 C4177 0.960 . S
H4186 C4178 0.930 . S
H4187 C4179 0.929 . S
H4188 C4196 0.929 . S
H4189 C4198 0.930 . S
H4190 C4200 0.930 . S
H4191 C4203 0.929 . S
H4192 C4206 0.930 . S
H4193 C4208 0.960 . S
H4194 C4208 0.960 . S
H4195 C4208 0.960 . S
C4196 H4188 0.929 . S
C4196 C4197 1.377 . S
C4196 C4198 1.384 . S
C4197 C4196 1.377 . S
C4197 C4203 1.390 . S
C4198 H4189 0.930 . S
C4198 C4196 1.384 . S
C4198 C4199 1.372 . S
C4199 C4198 1.372 . S
C4199 C4200 1.400 . S
C4199 C4204 1.490 . S
C4200 H4190 0.930 . S
C4200 C4199 1.400 . S
C4200 C4203 1.386 . S
H4201 C4217 0.930 . S
H4202 C4218 0.931 . S
C4203 H4191 0.929 . S
C4203 C4197 1.390 . S
C4203 C4200 1.386 . S
C4204 C4199 1.490 . S
C4204 C4206 1.395 . S
C4204 C4207 1.403 . S
H4205 C4211 0.930 . S
C4206 H4192 0.930 . S
C4206 C4204 1.395 . S
C4206 C4209 1.403 . S
C4207 C4204 1.403 . S
C4207 C4208 1.524 . S
C4207 C4211 1.400 . S
C4208 H4193 0.960 . S
C4208 H4194 0.960 . S
C4208 H4195 0.960 . S
C4208 C4207 1.524 . S
C4209 C4206 1.403 . S
C4209 C4210 1.392 . S
C4209 C4213 1.495 . S
C4210 C4209 1.392 . S
C4210 C4211 1.385 . S
C4210 C4212 1.478 . S
C4211 H4205 0.930 . S
C4211 C4207 1.400 . S
C4211 C4210 1.385 . S
C4212 C4210 1.478 . S
C4212 C4214 1.381 . S
C4212 C4218 1.383 . S
C4213 C4209 1.495 . S
C4213 H4219 0.959 . S
C4213 H4220 0.961 . S
C4213 H4221 0.960 . S
C4214 C4212 1.381 . S
C4214 C4215 1.394 . S
C4214 H4222 0.930 . S
C4215 C4214 1.394 . S
C4215 C4216 1.383 . S
C4215 H4223 0.929 . S
C4216 C4215 1.383 . S
C4216 C4217 1.377 . S
C4217 H4201 0.930 . S
C4217 C4216 1.377 . S
C4217 C4218 1.379 . S
C4218 H4202 0.931 . S
C4218 C4212 1.383 . S
C4218 C4217 1.379 . S
H4219 C4213 0.959 . S
H4220 C4213 0.961 . S
H4221 C4213 0.960 . S
H4222 C4214 0.930 . S
H4223 C4215 0.929 . S
H4224 C4232 0.929 . S
H4225 C4234 0.930 . S
H4226 C4236 0.930 . S
H4227 C4239 0.929 . S
H4228 C4242 0.930 . S
H4229 C4244 0.960 . S
H4230 C4244 0.960 . S
H4231 C4244 0.960 . S
C4232 H4224 0.929 . S
C4232 C4233 1.377 . S
C4232 C4234 1.384 . S
C4233 C4232 1.377 . S
C4233 C4239 1.390 . S
C4234 H4225 0.930 . S
C4234 C4232 1.384 . S
C4234 C4235 1.372 . S
C4235 C4234 1.372 . S
C4235 C4236 1.400 . S
C4235 C4240 1.490 . S
C4236 H4226 0.930 . S
C4236 C4235 1.400 . S
C4236 C4239 1.386 . S
H4237 C4253 0.930 . S
H4238 C4254 0.931 . S
C4239 H4227 0.929 . S
C4239 C4233 1.390 . S
C4239 C4236 1.386 . S
C4240 C4235 1.490 . S
C4240 C4242 1.395 . S
C4240 C4243 1.403 . S
H4241 C4247 0.930 . S
C4242 H4228 0.930 . S
C4242 C4240 1.395 . S
C4242 C4245 1.403 . S
C4243 C4240 1.403 . S
C4243 C4244 1.524 . S
C4243 C4247 1.400 . S
C4244 H4229 0.960 . S
C4244 H4230 0.960 . S
C4244 H4231 0.960 . S
C4244 C4243 1.524 . S
C4245 C4242 1.403 . S
C4245 C4246 1.392 . S
C4245 C4249 1.495 . S
C4246 C4245 1.392 . S
C4246 C4247 1.385 . S
C4246 C4248 1.478 . S
C4247 H4241 0.930 . S
C4247 C4243 1.400 . S
C4247 C4246 1.385 . S
C4248 C4246 1.478 . S
C4248 C4250 1.381 . S
C4248 C4254 1.383 . S
C4249 C4245 1.495 . S
C4249 H4255 0.959 . S
C4249 H4256 0.961 . S
C4249 H4257 0.960 . S
C4250 C4248 1.381 . S
C4250 C4251 1.394 . S
C4250 H4258 0.930 . S
C4251 C4250 1.394 . S
C4251 C4252 1.383 . S
C4251 H4259 0.929 . S
C4252 C4251 1.383 . S
C4252 C4253 1.377 . S
C4253 H4237 0.930 . S
C4253 C4252 1.377 . S
C4253 C4254 1.379 . S
C4254 H4238 0.931 . S
C4254 C4248 1.383 . S
C4254 C4253 1.379 . S
H4255 C4249 0.959 . S
H4256 C4249 0.961 . S
H4257 C4249 0.960 . S
H4258 C4250 0.930 . S
H4259 C4251 0.929 . S
H4260 C4268 0.929 . S
H4261 C4270 0.930 . S
H4262 C4272 0.930 . S
H4263 C4275 0.929 . S
H4264 C4278 0.930 . S
H4265 C4280 0.960 . S
H4266 C4280 0.960 . S
H4267 C4280 0.960 . S
C4268 H4260 0.929 . S
C4268 C4269 1.377 . S
C4268 C4270 1.384 . S
C4269 C4268 1.377 . S
C4269 C4275 1.390 . S
C4270 H4261 0.930 . S
C4270 C4268 1.384 . S
C4270 C4271 1.372 . S
C4271 C4270 1.372 . S
C4271 C4272 1.400 . S
C4271 C4276 1.490 . S
C4272 H4262 0.930 . S
C4272 C4271 1.400 . S
C4272 C4275 1.386 . S
H4273 C4289 0.930 . S
H4274 C4290 0.931 . S
C4275 H4263 0.929 . S
C4275 C4269 1.390 . S
C4275 C4272 1.386 . S
C4276 C4271 1.490 . S
C4276 C4278 1.395 . S
C4276 C4279 1.403 . S
H4277 C4283 0.930 . S
C4278 H4264 0.930 . S
C4278 C4276 1.395 . S
C4278 C4281 1.403 . S
C4279 C4276 1.403 . S
C4279 C4280 1.524 . S
C4279 C4283 1.400 . S
C4280 H4265 0.960 . S
C4280 H4266 0.960 . S
C4280 H4267 0.960 . S
C4280 C4279 1.524 . S
C4281 C4278 1.403 . S
C4281 C4282 1.392 . S
C4281 C4285 1.495 . S
C4282 C4281 1.392 . S
C4282 C4283 1.385 . S
C4282 C4284 1.478 . S
C4283 H4277 0.930 . S
C4283 C4279 1.400 . S
C4283 C4282 1.385 . S
C4284 C4282 1.478 . S
C4284 C4286 1.381 . S
C4284 C4290 1.383 . S
C4285 C4281 1.495 . S
C4285 H4291 0.959 . S
C4285 H4292 0.961 . S
C4285 H4293 0.960 . S
C4286 C4284 1.381 . S
C4286 C4287 1.394 . S
C4286 H4294 0.930 . S
C4287 C4286 1.394 . S
C4287 C4288 1.383 . S
C4287 H4295 0.929 . S
C4288 C4287 1.383 . S
C4288 C4289 1.377 . S
C4289 H4273 0.930 . S
C4289 C4288 1.377 . S
C4289 C4290 1.379 . S
C4290 H4274 0.931 . S
C4290 C4284 1.383 . S
C4290 C4289 1.379 . S
H4291 C4285 0.959 . S
H4292 C4285 0.961 . S
H4293 C4285 0.960 . S
H4294 C4286 0.930 . S
H4295 C4287 0.929 . S
H4296 C4304 0.929 . S
H4297 C4306 0.930 . S
H4298 C4308 0.930 . S
H4299 C4311 0.929 . S
H4300 C4314 0.930 . S
H4301 C4316 0.960 . S
H4302 C4316 0.960 . S
H4303 C4316 0.960 . S
C4304 H4296 0.929 . S
C4304 C4305 1.377 . S
C4304 C4306 1.384 . S
C4305 C4304 1.377 . S
C4305 C4311 1.390 . S
C4306 H4297 0.930 . S
C4306 C4304 1.384 . S
C4306 C4307 1.372 . S
C4307 C4306 1.372 . S
C4307 C4308 1.400 . S
C4307 C4312 1.490 . S
C4308 H4298 0.930 . S
C4308 C4307 1.400 . S
C4308 C4311 1.386 . S
H4309 C4325 0.930 . S
H4310 C4326 0.931 . S
C4311 H4299 0.929 . S
C4311 C4305 1.390 . S
C4311 C4308 1.386 . S
C4312 C4307 1.490 . S
C4312 C4314 1.395 . S
C4312 C4315 1.403 . S
H4313 C4319 0.930 . S
C4314 H4300 0.930 . S
C4314 C4312 1.395 . S
C4314 C4317 1.403 . S
C4315 C4312 1.403 . S
C4315 C4316 1.524 . S
C4315 C4319 1.400 . S
C4316 H4301 0.960 . S
C4316 H4302 0.960 . S
C4316 H4303 0.960 . S
C4316 C4315 1.524 . S
C4317 C4314 1.403 . S
C4317 C4318 1.392 . S
C4317 C4321 1.495 . S
C4318 C4317 1.392 . S
C4318 C4319 1.385 . S
C4318 C4320 1.478 . S
C4319 H4313 0.930 . S
C4319 C4315 1.400 . S
C4319 C4318 1.385 . S
C4320 C4318 1.478 . S
C4320 C4322 1.381 . S
C4320 C4326 1.383 . S
C4321 C4317 1.495 . S
C4321 H4327 0.959 . S
C4321 H4328 0.961 . S
C4321 H4329 0.960 . S
C4322 C4320 1.381 . S
C4322 C4323 1.394 . S
C4322 H4330 0.930 . S
C4323 C4322 1.394 . S
C4323 C4324 1.383 . S
C4323 H4331 0.929 . S
C4324 C4323 1.383 . S
C4324 C4325 1.377 . S
C4325 H4309 0.930 . S
C4325 C4324 1.377 . S
C4325 C4326 1.379 . S
C4326 H4310 0.931 . S
C4326 C4320 1.383 . S
C4326 C4325 1.379 . S
H4327 C4321 0.959 . S
H4328 C4321 0.961 . S
H4329 C4321 0.960 . S
H4330 C4322 0.930 . S
H4331 C4323 0.929 . S
H4332 C4340 0.929 . S
H4333 C4342 0.930 . S
H4334 C4344 0.930 . S
H4335 C4347 0.929 . S
H4336 C4350 0.930 . S
H4337 C4352 0.960 . S
H4338 C4352 0.960 . S
H4339 C4352 0.960 . S
C4340 H4332 0.929 . S
C4340 C4341 1.377 . S
C4340 C4342 1.384 . S
C4341 C4340 1.377 . S
C4341 C4347 1.390 . S
C4342 H4333 0.930 . S
C4342 C4340 1.384 . S
C4342 C4343 1.372 . S
C4343 C4342 1.372 . S
C4343 C4344 1.400 . S
C4343 C4348 1.490 . S
C4344 H4334 0.930 . S
C4344 C4343 1.400 . S
C4344 C4347 1.386 . S
H4345 C4361 0.930 . S
H4346 C4362 0.931 . S
C4347 H4335 0.929 . S
C4347 C4341 1.390 . S
C4347 C4344 1.386 . S
C4348 C4343 1.490 . S
C4348 C4350 1.395 . S
C4348 C4351 1.403 . S
H4349 C4355 0.930 . S
C4350 H4336 0.930 . S
C4350 C4348 1.395 . S
C4350 C4353 1.403 . S
C4351 C4348 1.403 . S
C4351 C4352 1.524 . S
C4351 C4355 1.400 . S
C4352 H4337 0.960 . S
C4352 H4338 0.960 . S
C4352 H4339 0.960 . S
C4352 C4351 1.524 . S
C4353 C4350 1.403 . S
C4353 C4354 1.392 . S
C4353 C4357 1.495 . S
C4354 C4353 1.392 . S
C4354 C4355 1.385 . S
C4354 C4356 1.478 . S
C4355 H4349 0.930 . S
C4355 C4351 1.400 . S
C4355 C4354 1.385 . S
C4356 C4354 1.478 . S
C4356 C4358 1.381 . S
C4356 C4362 1.383 . S
C4357 C4353 1.495 . S
C4357 H4363 0.959 . S
C4357 H4364 0.961 . S
C4357 H4365 0.960 . S
C4358 C4356 1.381 . S
C4358 C4359 1.394 . S
C4358 H4366 0.930 . S
C4359 C4358 1.394 . S
C4359 C4360 1.383 . S
C4359 H4367 0.929 . S
C4360 C4359 1.383 . S
C4360 C4361 1.377 . S
C4361 H4345 0.930 . S
C4361 C4360 1.377 . S
C4361 C4362 1.379 . S
C4362 H4346 0.931 . S
C4362 C4356 1.383 . S
C4362 C4361 1.379 . S
H4363 C4357 0.959 . S
H4364 C4357 0.961 . S
H4365 C4357 0.960 . S
H4366 C4358 0.930 . S
H4367 C4359 0.929 . S
H4368 C4376 0.929 . S
H4369 C4378 0.930 . S
H4370 C4380 0.930 . S
H4371 C4383 0.929 . S
H4372 C4386 0.930 . S
H4373 C4388 0.960 . S
H4374 C4388 0.960 . S
H4375 C4388 0.960 . S
C4376 H4368 0.929 . S
C4376 C4377 1.377 . S
C4376 C4378 1.384 . S
C4377 C4376 1.377 . S
C4377 C4383 1.390 . S
C4378 H4369 0.930 . S
C4378 C4376 1.384 . S
C4378 C4379 1.372 . S
C4379 C4378 1.372 . S
C4379 C4380 1.400 . S
C4379 C4384 1.490 . S
C4380 H4370 0.930 . S
C4380 C4379 1.400 . S
C4380 C4383 1.386 . S
H4381 C4397 0.930 . S
H4382 C4398 0.931 . S
C4383 H4371 0.929 . S
C4383 C4377 1.390 . S
C4383 C4380 1.386 . S
C4384 C4379 1.490 . S
C4384 C4386 1.395 . S
C4384 C4387 1.403 . S
H4385 C4391 0.930 . S
C4386 H4372 0.930 . S
C4386 C4384 1.395 . S
C4386 C4389 1.403 . S
C4387 C4384 1.403 . S
C4387 C4388 1.524 . S
C4387 C4391 1.400 . S
C4388 H4373 0.960 . S
C4388 H4374 0.960 . S
C4388 H4375 0.960 . S
C4388 C4387 1.524 . S
C4389 C4386 1.403 . S
C4389 C4390 1.392 . S
C4389 C4393 1.495 . S
C4390 C4389 1.392 . S
C4390 C4391 1.385 . S
C4390 C4392 1.478 . S
C4391 H4385 0.930 . S
C4391 C4387 1.400 . S
C4391 C4390 1.385 . S
C4392 C4390 1.478 . S
C4392 C4394 1.381 . S
C4392 C4398 1.383 . S
C4393 C4389 1.495 . S
C4393 H4399 0.959 . S
C4393 H4400 0.961 . S
C4393 H4401 0.960 . S
C4394 C4392 1.381 . S
C4394 C4395 1.394 . S
C4394 H4402 0.930 . S
C4395 C4394 1.394 . S
C4395 C4396 1.383 . S
C4395 H4403 0.929 . S
C4396 C4395 1.383 . S
C4396 C4397 1.377 . S
C4397 H4381 0.930 . S
C4397 C4396 1.377 . S
C4397 C4398 1.379 . S
C4398 H4382 0.931 . S
C4398 C4392 1.383 . S
C4398 C4397 1.379 . S
H4399 C4393 0.959 . S
H4400 C4393 0.961 . S
H4401 C4393 0.960 . S
H4402 C4394 0.930 . S
H4403 C4395 0.929 . S
H4404 C4412 0.929 . S
H4405 C4414 0.930 . S
H4406 C4416 0.930 . S
H4407 C4419 0.929 . S
H4408 C4422 0.930 . S
H4409 C4424 0.960 . S
H4410 C4424 0.960 . S
H4411 C4424 0.960 . S
C4412 H4404 0.929 . S
C4412 C4413 1.377 . S
C4412 C4414 1.384 . S
C4413 C4412 1.377 . S
C4413 C4419 1.390 . S
C4414 H4405 0.930 . S
C4414 C4412 1.384 . S
C4414 C4415 1.372 . S
C4415 C4414 1.372 . S
C4415 C4416 1.400 . S
C4415 C4420 1.490 . S
C4416 H4406 0.930 . S
C4416 C4415 1.400 . S
C4416 C4419 1.386 . S
H4417 C4433 0.930 . S
H4418 C4434 0.931 . S
C4419 H4407 0.929 . S
C4419 C4413 1.390 . S
C4419 C4416 1.386 . S
C4420 C4415 1.490 . S
C4420 C4422 1.395 . S
C4420 C4423 1.403 . S
H4421 C4427 0.930 . S
C4422 H4408 0.930 . S
C4422 C4420 1.395 . S
C4422 C4425 1.403 . S
C4423 C4420 1.403 . S
C4423 C4424 1.524 . S
C4423 C4427 1.400 . S
C4424 H4409 0.960 . S
C4424 H4410 0.960 . S
C4424 H4411 0.960 . S
C4424 C4423 1.524 . S
C4425 C4422 1.403 . S
C4425 C4426 1.392 . S
C4425 C4429 1.495 . S
C4426 C4425 1.392 . S
C4426 C4427 1.385 . S
C4426 C4428 1.478 . S
C4427 H4421 0.930 . S
C4427 C4423 1.400 . S
C4427 C4426 1.385 . S
C4428 C4426 1.478 . S
C4428 C4430 1.381 . S
C4428 C4434 1.383 . S
C4429 C4425 1.495 . S
C4429 H4435 0.959 . S
C4429 H4436 0.961 . S
C4429 H4437 0.960 . S
C4430 C4428 1.381 . S
C4430 C4431 1.394 . S
C4430 H4438 0.930 . S
C4431 C4430 1.394 . S
C4431 C4432 1.383 . S
C4431 H4439 0.929 . S
C4432 C4431 1.383 . S
C4432 C4433 1.377 . S
C4433 H4417 0.930 . S
C4433 C4432 1.377 . S
C4433 C4434 1.379 . S
C4434 H4418 0.931 . S
C4434 C4428 1.383 . S
C4434 C4433 1.379 . S
H4435 C4429 0.959 . S
H4436 C4429 0.961 . S
H4437 C4429 0.960 . S
H4438 C4430 0.930 . S
H4439 C4431 0.929 . S
H4440 C4448 0.929 . S
H4441 C4450 0.930 . S
H4442 C4452 0.930 . S
H4443 C4455 0.929 . S
H4444 C4458 0.930 . S
H4445 C4460 0.960 . S
H4446 C4460 0.960 . S
H4447 C4460 0.960 . S
C4448 H4440 0.929 . S
C4448 C4449 1.377 . S
C4448 C4450 1.384 . S
C4449 C4448 1.377 . S
C4449 C4455 1.390 . S
C4450 H4441 0.930 . S
C4450 C4448 1.384 . S
C4450 C4451 1.372 . S
C4451 C4450 1.372 . S
C4451 C4452 1.400 . S
C4451 C4456 1.490 . S
C4452 H4442 0.930 . S
C4452 C4451 1.400 . S
C4452 C4455 1.386 . S
H4453 C4469 0.930 . S
H4454 C4470 0.931 . S
C4455 H4443 0.929 . S
C4455 C4449 1.390 . S
C4455 C4452 1.386 . S
C4456 C4451 1.490 . S
C4456 C4458 1.395 . S
C4456 C4459 1.403 . S
H4457 C4463 0.930 . S
C4458 H4444 0.930 . S
C4458 C4456 1.395 . S
C4458 C4461 1.403 . S
C4459 C4456 1.403 . S
C4459 C4460 1.524 . S
C4459 C4463 1.400 . S
C4460 H4445 0.960 . S
C4460 H4446 0.960 . S
C4460 H4447 0.960 . S
C4460 C4459 1.524 . S
C4461 C4458 1.403 . S
C4461 C4462 1.392 . S
C4461 C4465 1.495 . S
C4462 C4461 1.392 . S
C4462 C4463 1.385 . S
C4462 C4464 1.478 . S
C4463 H4457 0.930 . S
C4463 C4459 1.400 . S
C4463 C4462 1.385 . S
C4464 C4462 1.478 . S
C4464 C4466 1.381 . S
C4464 C4470 1.383 . S
C4465 C4461 1.495 . S
C4465 H4471 0.959 . S
C4465 H4472 0.961 . S
C4465 H4473 0.960 . S
C4466 C4464 1.381 . S
C4466 C4467 1.394 . S
C4466 H4474 0.930 . S
C4467 C4466 1.394 . S
C4467 C4468 1.383 . S
C4467 H4475 0.929 . S
C4468 C4467 1.383 . S
C4468 C4469 1.377 . S
C4469 H4453 0.930 . S
C4469 C4468 1.377 . S
C4469 C4470 1.379 . S
C4470 H4454 0.931 . S
C4470 C4464 1.383 . S
C4470 C4469 1.379 . S
H4471 C4465 0.959 . S
H4472 C4465 0.961 . S
H4473 C4465 0.960 . S
H4474 C4466 0.930 . S
H4475 C4467 0.929 . S
H4476 C4484 0.929 . S
H4477 C4486 0.930 . S
H4478 C4488 0.930 . S
H4479 C4491 0.929 . S
H4480 C4494 0.930 . S
H4481 C4496 0.960 . S
H4482 C4496 0.960 . S
H4483 C4496 0.960 . S
C4484 H4476 0.929 . S
C4484 C4485 1.377 . S
C4484 C4486 1.384 . S
C4485 C4484 1.377 . S
C4485 C4491 1.390 . S
C4486 H4477 0.930 . S
C4486 C4484 1.384 . S
C4486 C4487 1.372 . S
C4487 C4486 1.372 . S
C4487 C4488 1.400 . S
C4487 C4492 1.490 . S
C4488 H4478 0.930 . S
C4488 C4487 1.400 . S
C4488 C4491 1.386 . S
H4489 C4505 0.930 . S
H4490 C4506 0.931 . S
C4491 H4479 0.929 . S
C4491 C4485 1.390 . S
C4491 C4488 1.386 . S
C4492 C4487 1.490 . S
C4492 C4494 1.395 . S
C4492 C4495 1.403 . S
H4493 C4499 0.930 . S
C4494 H4480 0.930 . S
C4494 C4492 1.395 . S
C4494 C4497 1.403 . S
C4495 C4492 1.403 . S
C4495 C4496 1.524 . S
C4495 C4499 1.400 . S
C4496 H4481 0.960 . S
C4496 H4482 0.960 . S
C4496 H4483 0.960 . S
C4496 C4495 1.524 . S
C4497 C4494 1.403 . S
C4497 C4498 1.392 . S
C4497 C4501 1.495 . S
C4498 C4497 1.392 . S
C4498 C4499 1.385 . S
C4498 C4500 1.478 . S
C4499 H4493 0.930 . S
C4499 C4495 1.400 . S
C4499 C4498 1.385 . S
C4500 C4498 1.478 . S
C4500 C4502 1.381 . S
C4500 C4506 1.383 . S
C4501 C4497 1.495 . S
C4501 H4507 0.959 . S
C4501 H4508 0.961 . S
C4501 H4509 0.960 . S
C4502 C4500 1.381 . S
C4502 C4503 1.394 . S
C4502 H4510 0.930 . S
C4503 C4502 1.394 . S
C4503 C4504 1.383 . S
C4503 H4511 0.929 . S
C4504 C4503 1.383 . S
C4504 C4505 1.377 . S
C4505 H4489 0.930 . S
C4505 C4504 1.377 . S
C4505 C4506 1.379 . S
C4506 H4490 0.931 . S
C4506 C4500 1.383 . S
C4506 C4505 1.379 . S
H4507 C4501 0.959 . S
H4508 C4501 0.961 . S
H4509 C4501 0.960 . S
H4510 C4502 0.930 . S
H4511 C4503 0.929 . S
H4512 C4520 0.929 . S
H4513 C4522 0.930 . S
H4514 C4524 0.930 . S
H4515 C4527 0.929 . S
H4516 C4530 0.930 . S
H4517 C4532 0.960 . S
H4518 C4532 0.960 . S
H4519 C4532 0.960 . S
C4520 H4512 0.929 . S
C4520 C4521 1.377 . S
C4520 C4522 1.384 . S
C4521 C4520 1.377 . S
C4521 C4527 1.390 . S
C4522 H4513 0.930 . S
C4522 C4520 1.384 . S
C4522 C4523 1.372 . S
C4523 C4522 1.372 . S
C4523 C4524 1.400 . S
C4523 C4528 1.490 . S
C4524 H4514 0.930 . S
C4524 C4523 1.400 . S
C4524 C4527 1.386 . S
H4525 C4541 0.930 . S
H4526 C4542 0.931 . S
C4527 H4515 0.929 . S
C4527 C4521 1.390 . S
C4527 C4524 1.386 . S
C4528 C4523 1.490 . S
C4528 C4530 1.395 . S
C4528 C4531 1.403 . S
H4529 C4535 0.930 . S
C4530 H4516 0.930 . S
C4530 C4528 1.395 . S
C4530 C4533 1.403 . S
C4531 C4528 1.403 . S
C4531 C4532 1.524 . S
C4531 C4535 1.400 . S
C4532 H4517 0.960 . S
C4532 H4518 0.960 . S
C4532 H4519 0.960 . S
C4532 C4531 1.524 . S
C4533 C4530 1.403 . S
C4533 C4534 1.392 . S
C4533 C4537 1.495 . S
C4534 C4533 1.392 . S
C4534 C4535 1.385 . S
C4534 C4536 1.478 . S
C4535 H4529 0.930 . S
C4535 C4531 1.400 . S
C4535 C4534 1.385 . S
C4536 C4534 1.478 . S
C4536 C4538 1.381 . S
C4536 C4542 1.383 . S
C4537 C4533 1.495 . S
C4537 H4543 0.959 . S
C4537 H4544 0.961 . S
C4537 H4545 0.960 . S
C4538 C4536 1.381 . S
C4538 C4539 1.394 . S
C4538 H4546 0.930 . S
C4539 C4538 1.394 . S
C4539 C4540 1.383 . S
C4539 H4547 0.929 . S
C4540 C4539 1.383 . S
C4540 C4541 1.377 . S
C4541 H4525 0.930 . S
C4541 C4540 1.377 . S
C4541 C4542 1.379 . S
C4542 H4526 0.931 . S
C4542 C4536 1.383 . S
C4542 C4541 1.379 . S
H4543 C4537 0.959 . S
H4544 C4537 0.961 . S
H4545 C4537 0.960 . S
H4546 C4538 0.930 . S
H4547 C4539 0.929 . S
H4548 C4556 0.929 . S
H4549 C4558 0.930 . S
H4550 C4560 0.930 . S
H4551 C4563 0.929 . S
H4552 C4566 0.930 . S
H4553 C4568 0.960 . S
H4554 C4568 0.960 . S
H4555 C4568 0.960 . S
C4556 H4548 0.929 . S
C4556 C4557 1.377 . S
C4556 C4558 1.384 . S
C4557 C4556 1.377 . S
C4557 C4563 1.390 . S
C4558 H4549 0.930 . S
C4558 C4556 1.384 . S
C4558 C4559 1.372 . S
C4559 C4558 1.372 . S
C4559 C4560 1.400 . S
C4559 C4564 1.490 . S
C4560 H4550 0.930 . S
C4560 C4559 1.400 . S
C4560 C4563 1.386 . S
H4561 C4577 0.930 . S
H4562 C4578 0.931 . S
C4563 H4551 0.929 . S
C4563 C4557 1.390 . S
C4563 C4560 1.386 . S
C4564 C4559 1.490 . S
C4564 C4566 1.395 . S
C4564 C4567 1.403 . S
H4565 C4571 0.930 . S
C4566 H4552 0.930 . S
C4566 C4564 1.395 . S
C4566 C4569 1.403 . S
C4567 C4564 1.403 . S
C4567 C4568 1.524 . S
C4567 C4571 1.400 . S
C4568 H4553 0.960 . S
C4568 H4554 0.960 . S
C4568 H4555 0.960 . S
C4568 C4567 1.524 . S
C4569 C4566 1.403 . S
C4569 C4570 1.392 . S
C4569 C4573 1.495 . S
C4570 C4569 1.392 . S
C4570 C4571 1.385 . S
C4570 C4572 1.478 . S
C4571 H4565 0.930 . S
C4571 C4567 1.400 . S
C4571 C4570 1.385 . S
C4572 C4570 1.478 . S
C4572 C4574 1.381 . S
C4572 C4578 1.383 . S
C4573 C4569 1.495 . S
C4573 H4579 0.959 . S
C4573 H4580 0.961 . S
C4573 H4581 0.960 . S
C4574 C4572 1.381 . S
C4574 C4575 1.394 . S
C4574 H4582 0.930 . S
C4575 C4574 1.394 . S
C4575 C4576 1.383 . S
C4575 H4583 0.929 . S
C4576 C4575 1.383 . S
C4576 C4577 1.377 . S
C4577 H4561 0.930 . S
C4577 C4576 1.377 . S
C4577 C4578 1.379 . S
C4578 H4562 0.931 . S
C4578 C4572 1.383 . S
C4578 C4577 1.379 . S
H4579 C4573 0.959 . S
H4580 C4573 0.961 . S
H4581 C4573 0.960 . S
H4582 C4574 0.930 . S
H4583 C4575 0.929 . S
H4584 C4592 0.929 . S
H4585 C4594 0.930 . S
H4586 C4596 0.930 . S
H4587 C4599 0.929 . S
H4588 C4602 0.930 . S
H4589 C4604 0.960 . S
H4590 C4604 0.960 . S
H4591 C4604 0.960 . S
C4592 H4584 0.929 . S
C4592 C4593 1.377 . S
C4592 C4594 1.384 . S
C4593 C4592 1.377 . S
C4593 C4599 1.390 . S
C4594 H4585 0.930 . S
C4594 C4592 1.384 . S
C4594 C4595 1.372 . S
C4595 C4594 1.372 . S
C4595 C4596 1.400 . S
C4595 C4600 1.490 . S
C4596 H4586 0.930 . S
C4596 C4595 1.400 . S
C4596 C4599 1.386 . S
H4597 C4613 0.930 . S
H4598 C4614 0.931 . S
C4599 H4587 0.929 . S
C4599 C4593 1.390 . S
C4599 C4596 1.386 . S
C4600 C4595 1.490 . S
C4600 C4602 1.395 . S
C4600 C4603 1.403 . S
H4601 C4607 0.930 . S
C4602 H4588 0.930 . S
C4602 C4600 1.395 . S
C4602 C4605 1.403 . S
C4603 C4600 1.403 . S
C4603 C4604 1.524 . S
C4603 C4607 1.400 . S
C4604 H4589 0.960 . S
C4604 H4590 0.960 . S
C4604 H4591 0.960 . S
C4604 C4603 1.524 . S
C4605 C4602 1.403 . S
C4605 C4606 1.392 . S
C4605 C4609 1.495 . S
C4606 C4605 1.392 . S
C4606 C4607 1.385 . S
C4606 C4608 1.478 . S
C4607 H4601 0.930 . S
C4607 C4603 1.400 . S
C4607 C4606 1.385 . S
C4608 C4606 1.478 . S
C4608 C4610 1.381 . S
C4608 C4614 1.383 . S
C4609 C4605 1.495 . S
C4609 H4615 0.959 . S
C4609 H4616 0.961 . S
C4609 H4617 0.960 . S
C4610 C4608 1.381 . S
C4610 C4611 1.394 . S
C4610 H4618 0.930 . S
C4611 C4610 1.394 . S
C4611 C4612 1.383 . S
C4611 H4619 0.929 . S
C4612 C4611 1.383 . S
C4612 C4613 1.377 . S
C4613 H4597 0.930 . S
C4613 C4612 1.377 . S
C4613 C4614 1.379 . S
C4614 H4598 0.931 . S
C4614 C4608 1.383 . S
C4614 C4613 1.379 . S
H4615 C4609 0.959 . S
H4616 C4609 0.961 . S
H4617 C4609 0.960 . S
H4618 C4610 0.930 . S
H4619 C4611 0.929 . S
H4620 C4628 0.929 . S
H4621 C4630 0.930 . S
H4622 C4632 0.930 . S
H4623 C4635 0.929 . S
H4624 C4638 0.930 . S
H4625 C4640 0.960 . S
H4626 C4640 0.960 . S
H4627 C4640 0.960 . S
C4628 H4620 0.929 . S
C4628 C4629 1.377 . S
C4628 C4630 1.384 . S
C4629 C4628 1.377 . S
C4629 C4635 1.390 . S
C4630 H4621 0.930 . S
C4630 C4628 1.384 . S
C4630 C4631 1.372 . S
C4631 C4630 1.372 . S
C4631 C4632 1.400 . S
C4631 C4636 1.490 . S
C4632 H4622 0.930 . S
C4632 C4631 1.400 . S
C4632 C4635 1.386 . S
H4633 C4649 0.930 . S
H4634 C4650 0.931 . S
C4635 H4623 0.929 . S
C4635 C4629 1.390 . S
C4635 C4632 1.386 . S
C4636 C4631 1.490 . S
C4636 C4638 1.395 . S
C4636 C4639 1.403 . S
H4637 C4643 0.930 . S
C4638 H4624 0.930 . S
C4638 C4636 1.395 . S
C4638 C4641 1.403 . S
C4639 C4636 1.403 . S
C4639 C4640 1.524 . S
C4639 C4643 1.400 . S
C4640 H4625 0.960 . S
C4640 H4626 0.960 . S
C4640 H4627 0.960 . S
C4640 C4639 1.524 . S
C4641 C4638 1.403 . S
C4641 C4642 1.392 . S
C4641 C4645 1.495 . S
C4642 C4641 1.392 . S
C4642 C4643 1.385 . S
C4642 C4644 1.478 . S
C4643 H4637 0.930 . S
C4643 C4639 1.400 . S
C4643 C4642 1.385 . S
C4644 C4642 1.478 . S
C4644 C4646 1.381 . S
C4644 C4650 1.383 . S
C4645 C4641 1.495 . S
C4645 H4651 0.959 . S
C4645 H4652 0.961 . S
C4645 H4653 0.960 . S
C4646 C4644 1.381 . S
C4646 C4647 1.394 . S
C4646 H4654 0.930 . S
C4647 C4646 1.394 . S
C4647 C4648 1.383 . S
C4647 H4655 0.929 . S
C4648 C4647 1.383 . S
C4648 C4649 1.377 . S
C4649 H4633 0.930 . S
C4649 C4648 1.377 . S
C4649 C4650 1.379 . S
C4650 H4634 0.931 . S
C4650 C4644 1.383 . S
C4650 C4649 1.379 . S
H4651 C4645 0.959 . S
H4652 C4645 0.961 . S
H4653 C4645 0.960 . S
H4654 C4646 0.930 . S
H4655 C4647 0.929 . S
H4656 C4664 0.929 . S
H4657 C4666 0.930 . S
H4658 C4668 0.930 . S
H4659 C4671 0.929 . S
H4660 C4674 0.930 . S
H4661 C4676 0.960 . S
H4662 C4676 0.960 . S
H4663 C4676 0.960 . S
C4664 H4656 0.929 . S
C4664 C4665 1.377 . S
C4664 C4666 1.384 . S
C4665 C4664 1.377 . S
C4665 C4671 1.390 . S
C4666 H4657 0.930 . S
C4666 C4664 1.384 . S
C4666 C4667 1.372 . S
C4667 C4666 1.372 . S
C4667 C4668 1.400 . S
C4667 C4672 1.490 . S
C4668 H4658 0.930 . S
C4668 C4667 1.400 . S
C4668 C4671 1.386 . S
H4669 C4685 0.930 . S
H4670 C4686 0.931 . S
C4671 H4659 0.929 . S
C4671 C4665 1.390 . S
C4671 C4668 1.386 . S
C4672 C4667 1.490 . S
C4672 C4674 1.395 . S
C4672 C4675 1.403 . S
H4673 C4679 0.930 . S
C4674 H4660 0.930 . S
C4674 C4672 1.395 . S
C4674 C4677 1.403 . S
C4675 C4672 1.403 . S
C4675 C4676 1.524 . S
C4675 C4679 1.400 . S
C4676 H4661 0.960 . S
C4676 H4662 0.960 . S
C4676 H4663 0.960 . S
C4676 C4675 1.524 . S
C4677 C4674 1.403 . S
C4677 C4678 1.392 . S
C4677 C4681 1.495 . S
C4678 C4677 1.392 . S
C4678 C4679 1.385 . S
C4678 C4680 1.478 . S
C4679 H4673 0.930 . S
C4679 C4675 1.400 . S
C4679 C4678 1.385 . S
C4680 C4678 1.478 . S
C4680 C4682 1.381 . S
C4680 C4686 1.383 . S
C4681 C4677 1.495 . S
C4681 H4687 0.959 . S
C4681 H4688 0.961 . S
C4681 H4689 0.960 . S
C4682 C4680 1.381 . S
C4682 C4683 1.394 . S
C4682 H4690 0.930 . S
C4683 C4682 1.394 . S
C4683 C4684 1.383 . S
C4683 H4691 0.929 . S
C4684 C4683 1.383 . S
C4684 C4685 1.377 . S
C4685 H4669 0.930 . S
C4685 C4684 1.377 . S
C4685 C4686 1.379 . S
C4686 H4670 0.931 . S
C4686 C4680 1.383 . S
C4686 C4685 1.379 . S
H4687 C4681 0.959 . S
H4688 C4681 0.961 . S
H4689 C4681 0.960 . S
H4690 C4682 0.930 . S
H4691 C4683 0.929 . S
H4692 C4700 0.929 . S
H4693 C4702 0.930 . S
H4694 C4704 0.930 . S
H4695 C4707 0.929 . S
H4696 C4710 0.930 . S
H4697 C4712 0.960 . S
H4698 C4712 0.960 . S
H4699 C4712 0.960 . S
C4700 H4692 0.929 . S
C4700 C4701 1.377 . S
C4700 C4702 1.384 . S
C4701 C4700 1.377 . S
C4701 C4707 1.390 . S
C4702 H4693 0.930 . S
C4702 C4700 1.384 . S
C4702 C4703 1.372 . S
C4703 C4702 1.372 . S
C4703 C4704 1.400 . S
C4703 C4708 1.490 . S
C4704 H4694 0.930 . S
C4704 C4703 1.400 . S
C4704 C4707 1.386 . S
H4705 C4721 0.930 . S
H4706 C4722 0.931 . S
C4707 H4695 0.929 . S
C4707 C4701 1.390 . S
C4707 C4704 1.386 . S
C4708 C4703 1.490 . S
C4708 C4710 1.395 . S
C4708 C4711 1.403 . S
H4709 C4715 0.930 . S
C4710 H4696 0.930 . S
C4710 C4708 1.395 . S
C4710 C4713 1.403 . S
C4711 C4708 1.403 . S
C4711 C4712 1.524 . S
C4711 C4715 1.400 . S
C4712 H4697 0.960 . S
C4712 H4698 0.960 . S
C4712 H4699 0.960 . S
C4712 C4711 1.524 . S
C4713 C4710 1.403 . S
C4713 C4714 1.392 . S
C4713 C4717 1.495 . S
C4714 C4713 1.392 . S
C4714 C4715 1.385 . S
C4714 C4716 1.478 . S
C4715 H4709 0.930 . S
C4715 C4711 1.400 . S
C4715 C4714 1.385 . S
C4716 C4714 1.478 . S
C4716 C4718 1.381 . S
C4716 C4722 1.383 . S
C4717 C4713 1.495 . S
C4717 H4723 0.959 . S
C4717 H4724 0.961 . S
C4717 H4725 0.960 . S
C4718 C4716 1.381 . S
C4718 C4719 1.394 . S
C4718 H4726 0.930 . S
C4719 C4718 1.394 . S
C4719 C4720 1.383 . S
C4719 H4727 0.929 . S
C4720 C4719 1.383 . S
C4720 C4721 1.377 . S
C4721 H4705 0.930 . S
C4721 C4720 1.377 . S
C4721 C4722 1.379 . S
C4722 H4706 0.931 . S
C4722 C4716 1.383 . S
C4722 C4721 1.379 . S
H4723 C4717 0.959 . S
H4724 C4717 0.961 . S
H4725 C4717 0.960 . S
H4726 C4718 0.930 . S
H4727 C4719 0.929 . S
H4728 C4736 0.929 . S
H4729 C4738 0.930 . S
H4730 C4740 0.930 . S
H4731 C4743 0.929 . S
H4732 C4746 0.930 . S
H4733 C4748 0.960 . S
H4734 C4748 0.960 . S
H4735 C4748 0.960 . S
C4736 H4728 0.929 . S
C4736 C4737 1.377 . S
C4736 C4738 1.384 . S
C4737 C4736 1.377 . S
C4737 C4743 1.390 . S
C4738 H4729 0.930 . S
C4738 C4736 1.384 . S
C4738 C4739 1.372 . S
C4739 C4738 1.372 . S
C4739 C4740 1.400 . S
C4739 C4744 1.490 . S
C4740 H4730 0.930 . S
C4740 C4739 1.400 . S
C4740 C4743 1.386 . S
H4741 C4757 0.930 . S
H4742 C4758 0.931 . S
C4743 H4731 0.929 . S
C4743 C4737 1.390 . S
C4743 C4740 1.386 . S
C4744 C4739 1.490 . S
C4744 C4746 1.395 . S
C4744 C4747 1.403 . S
H4745 C4751 0.930 . S
C4746 H4732 0.930 . S
C4746 C4744 1.395 . S
C4746 C4749 1.403 . S
C4747 C4744 1.403 . S
C4747 C4748 1.524 . S
C4747 C4751 1.400 . S
C4748 H4733 0.960 . S
C4748 H4734 0.960 . S
C4748 H4735 0.960 . S
C4748 C4747 1.524 . S
C4749 C4746 1.403 . S
C4749 C4750 1.392 . S
C4749 C4753 1.495 . S
C4750 C4749 1.392 . S
C4750 C4751 1.385 . S
C4750 C4752 1.478 . S
C4751 H4745 0.930 . S
C4751 C4747 1.400 . S
C4751 C4750 1.385 . S
C4752 C4750 1.478 . S
C4752 C4754 1.381 . S
C4752 C4758 1.383 . S
C4753 C4749 1.495 . S
C4753 H4759 0.959 . S
C4753 H4760 0.961 . S
C4753 H4761 0.960 . S
C4754 C4752 1.381 . S
C4754 C4755 1.394 . S
C4754 H4762 0.930 . S
C4755 C4754 1.394 . S
C4755 C4756 1.383 . S
C4755 H4763 0.929 . S
C4756 C4755 1.383 . S
C4756 C4757 1.377 . S
C4757 H4741 0.930 . S
C4757 C4756 1.377 . S
C4757 C4758 1.379 . S
C4758 H4742 0.931 . S
C4758 C4752 1.383 . S
C4758 C4757 1.379 . S
H4759 C4753 0.959 . S
H4760 C4753 0.961 . S
H4761 C4753 0.960 . S
H4762 C4754 0.930 . S
H4763 C4755 0.929 . S
H4764 C4772 0.929 . S
H4765 C4774 0.930 . S
H4766 C4776 0.930 . S
H4767 C4779 0.929 . S
H4768 C4782 0.930 . S
H4769 C4784 0.960 . S
H4770 C4784 0.960 . S
H4771 C4784 0.960 . S
C4772 H4764 0.929 . S
C4772 C4773 1.377 . S
C4772 C4774 1.384 . S
C4773 C4772 1.377 . S
C4773 C4779 1.390 . S
C4774 H4765 0.930 . S
C4774 C4772 1.384 . S
C4774 C4775 1.372 . S
C4775 C4774 1.372 . S
C4775 C4776 1.400 . S
C4775 C4780 1.490 . S
C4776 H4766 0.930 . S
C4776 C4775 1.400 . S
C4776 C4779 1.386 . S
H4777 C4793 0.930 . S
H4778 C4794 0.931 . S
C4779 H4767 0.929 . S
C4779 C4773 1.390 . S
C4779 C4776 1.386 . S
C4780 C4775 1.490 . S
C4780 C4782 1.395 . S
C4780 C4783 1.403 . S
H4781 C4787 0.930 . S
C4782 H4768 0.930 . S
C4782 C4780 1.395 . S
C4782 C4785 1.403 . S
C4783 C4780 1.403 . S
C4783 C4784 1.524 . S
C4783 C4787 1.400 . S
C4784 H4769 0.960 . S
C4784 H4770 0.960 . S
C4784 H4771 0.960 . S
C4784 C4783 1.524 . S
C4785 C4782 1.403 . S
C4785 C4786 1.392 . S
C4785 C4789 1.495 . S
C4786 C4785 1.392 . S
C4786 C4787 1.385 . S
C4786 C4788 1.478 . S
C4787 H4781 0.930 . S
C4787 C4783 1.400 . S
C4787 C4786 1.385 . S
C4788 C4786 1.478 . S
C4788 C4790 1.381 . S
C4788 C4794 1.383 . S
C4789 C4785 1.495 . S
C4789 H4795 0.959 . S
C4789 H4796 0.961 . S
C4789 H4797 0.960 . S
C4790 C4788 1.381 . S
C4790 C4791 1.394 . S
C4790 H4798 0.930 . S
C4791 C4790 1.394 . S
C4791 C4792 1.383 . S
C4791 H4799 0.929 . S
C4792 C4791 1.383 . S
C4792 C4793 1.377 . S
C4793 H4777 0.930 . S
C4793 C4792 1.377 . S
C4793 C4794 1.379 . S
C4794 H4778 0.931 . S
C4794 C4788 1.383 . S
C4794 C4793 1.379 . S
H4795 C4789 0.959 . S
H4796 C4789 0.961 . S
H4797 C4789 0.960 . S
H4798 C4790 0.930 . S
H4799 C4791 0.929 . S
H4800 C4808 0.929 . S
H4801 C4810 0.930 . S
H4802 C4812 0.930 . S
H4803 C4815 0.929 . S
H4804 C4818 0.930 . S
H4805 C4820 0.960 . S
H4806 C4820 0.960 . S
H4807 C4820 0.960 . S
C4808 H4800 0.929 . S
C4808 C4809 1.377 . S
C4808 C4810 1.384 . S
C4809 C4808 1.377 . S
C4809 C4815 1.390 . S
C4810 H4801 0.930 . S
C4810 C4808 1.384 . S
C4810 C4811 1.372 . S
C4811 C4810 1.372 . S
C4811 C4812 1.400 . S
C4811 C4816 1.490 . S
C4812 H4802 0.930 . S
C4812 C4811 1.400 . S
C4812 C4815 1.386 . S
H4813 C4829 0.930 . S
H4814 C4830 0.931 . S
C4815 H4803 0.929 . S
C4815 C4809 1.390 . S
C4815 C4812 1.386 . S
C4816 C4811 1.490 . S
C4816 C4818 1.395 . S
C4816 C4819 1.403 . S
H4817 C4823 0.930 . S
C4818 H4804 0.930 . S
C4818 C4816 1.395 . S
C4818 C4821 1.403 . S
C4819 C4816 1.403 . S
C4819 C4820 1.524 . S
C4819 C4823 1.400 . S
C4820 H4805 0.960 . S
C4820 H4806 0.960 . S
C4820 H4807 0.960 . S
C4820 C4819 1.524 . S
C4821 C4818 1.403 . S
C4821 C4822 1.392 . S
C4821 C4825 1.495 . S
C4822 C4821 1.392 . S
C4822 C4823 1.385 . S
C4822 C4824 1.478 . S
C4823 H4817 0.930 . S
C4823 C4819 1.400 . S
C4823 C4822 1.385 . S
C4824 C4822 1.478 . S
C4824 C4826 1.381 . S
C4824 C4830 1.383 . S
C4825 C4821 1.495 . S
C4825 H4831 0.959 . S
C4825 H4832 0.961 . S
C4825 H4833 0.960 . S
C4826 C4824 1.381 . S
C4826 C4827 1.394 . S
C4826 H4834 0.930 . S
C4827 C4826 1.394 . S
C4827 C4828 1.383 . S
C4827 H4835 0.929 . S
C4828 C4827 1.383 . S
C4828 C4829 1.377 . S
C4829 H4813 0.930 . S
C4829 C4828 1.377 . S
C4829 C4830 1.379 . S
C4830 H4814 0.931 . S
C4830 C4824 1.383 . S
C4830 C4829 1.379 . S
H4831 C4825 0.959 . S
H4832 C4825 0.961 . S
H4833 C4825 0.960 . S
H4834 C4826 0.930 . S
H4835 C4827 0.929 . S
H4836 C4844 0.929 . S
H4837 C4846 0.930 . S
H4838 C4848 0.930 . S
H4839 C4851 0.929 . S
H4840 C4854 0.930 . S
H4841 C4856 0.960 . S
H4842 C4856 0.960 . S
H4843 C4856 0.960 . S
C4844 H4836 0.929 . S
C4844 C4845 1.377 . S
C4844 C4846 1.384 . S
C4845 C4844 1.377 . S
C4845 C4851 1.390 . S
C4846 H4837 0.930 . S
C4846 C4844 1.384 . S
C4846 C4847 1.372 . S
C4847 C4846 1.372 . S
C4847 C4848 1.400 . S
C4847 C4852 1.490 . S
C4848 H4838 0.930 . S
C4848 C4847 1.400 . S
C4848 C4851 1.386 . S
H4849 C4865 0.930 . S
H4850 C4866 0.931 . S
C4851 H4839 0.929 . S
C4851 C4845 1.390 . S
C4851 C4848 1.386 . S
C4852 C4847 1.490 . S
C4852 C4854 1.395 . S
C4852 C4855 1.403 . S
H4853 C4859 0.930 . S
C4854 H4840 0.930 . S
C4854 C4852 1.395 . S
C4854 C4857 1.403 . S
C4855 C4852 1.403 . S
C4855 C4856 1.524 . S
C4855 C4859 1.400 . S
C4856 H4841 0.960 . S
C4856 H4842 0.960 . S
C4856 H4843 0.960 . S
C4856 C4855 1.524 . S
C4857 C4854 1.403 . S
C4857 C4858 1.392 . S
C4857 C4861 1.495 . S
C4858 C4857 1.392 . S
C4858 C4859 1.385 . S
C4858 C4860 1.478 . S
C4859 H4853 0.930 . S
C4859 C4855 1.400 . S
C4859 C4858 1.385 . S
C4860 C4858 1.478 . S
C4860 C4862 1.381 . S
C4860 C4866 1.383 . S
C4861 C4857 1.495 . S
C4861 H4867 0.959 . S
C4861 H4868 0.961 . S
C4861 H4869 0.960 . S
C4862 C4860 1.381 . S
C4862 C4863 1.394 . S
C4862 H4870 0.930 . S
C4863 C4862 1.394 . S
C4863 C4864 1.383 . S
C4863 H4871 0.929 . S
C4864 C4863 1.383 . S
C4864 C4865 1.377 . S
C4865 H4849 0.930 . S
C4865 C4864 1.377 . S
C4865 C4866 1.379 . S
C4866 H4850 0.931 . S
C4866 C4860 1.383 . S
C4866 C4865 1.379 . S
H4867 C4861 0.959 . S
H4868 C4861 0.961 . S
H4869 C4861 0.960 . S
H4870 C4862 0.930 . S
H4871 C4863 0.929 . S
H4872 C4880 0.929 . S
H4873 C4882 0.930 . S
H4874 C4884 0.930 . S
H4875 C4887 0.929 . S
H4876 C4890 0.930 . S
H4877 C4892 0.960 . S
H4878 C4892 0.960 . S
H4879 C4892 0.960 . S
C4880 H4872 0.929 . S
C4880 C4881 1.377 . S
C4880 C4882 1.384 . S
C4881 C4880 1.377 . S
C4881 C4887 1.390 . S
C4882 H4873 0.930 . S
C4882 C4880 1.384 . S
C4882 C4883 1.372 . S
C4883 C4882 1.372 . S
C4883 C4884 1.400 . S
C4883 C4888 1.490 . S
C4884 H4874 0.930 . S
C4884 C4883 1.400 . S
C4884 C4887 1.386 . S
H4885 C4901 0.930 . S
H4886 C4902 0.931 . S
C4887 H4875 0.929 . S
C4887 C4881 1.390 . S
C4887 C4884 1.386 . S
C4888 C4883 1.490 . S
C4888 C4890 1.395 . S
C4888 C4891 1.403 . S
H4889 C4895 0.930 . S
C4890 H4876 0.930 . S
C4890 C4888 1.395 . S
C4890 C4893 1.403 . S
C4891 C4888 1.403 . S
C4891 C4892 1.524 . S
C4891 C4895 1.400 . S
C4892 H4877 0.960 . S
C4892 H4878 0.960 . S
C4892 H4879 0.960 . S
C4892 C4891 1.524 . S
C4893 C4890 1.403 . S
C4893 C4894 1.392 . S
C4893 C4897 1.495 . S
C4894 C4893 1.392 . S
C4894 C4895 1.385 . S
C4894 C4896 1.478 . S
C4895 H4889 0.930 . S
C4895 C4891 1.400 . S
C4895 C4894 1.385 . S
C4896 C4894 1.478 . S
C4896 C4898 1.381 . S
C4896 C4902 1.383 . S
C4897 C4893 1.495 . S
C4897 H4903 0.959 . S
C4897 H4904 0.961 . S
C4897 H4905 0.960 . S
C4898 C4896 1.381 . S
C4898 C4899 1.394 . S
C4898 H4906 0.930 . S
C4899 C4898 1.394 . S
C4899 C4900 1.383 . S
C4899 H4907 0.929 . S
C4900 C4899 1.383 . S
C4900 C4901 1.377 . S
C4901 H4885 0.930 . S
C4901 C4900 1.377 . S
C4901 C4902 1.379 . S
C4902 H4886 0.931 . S
C4902 C4896 1.383 . S
C4902 C4901 1.379 . S
H4903 C4897 0.959 . S
H4904 C4897 0.961 . S
H4905 C4897 0.960 . S
H4906 C4898 0.930 . S
H4907 C4899 0.929 . S
H4908 C4916 0.929 . S
H4909 C4918 0.930 . S
H4910 C4920 0.930 . S
H4911 C4923 0.929 . S
H4912 C4926 0.930 . S
H4913 C4928 0.960 . S
H4914 C4928 0.960 . S
H4915 C4928 0.960 . S
C4916 H4908 0.929 . S
C4916 C4917 1.377 . S
C4916 C4918 1.384 . S
C4917 C4916 1.377 . S
C4917 C4923 1.390 . S
C4918 H4909 0.930 . S
C4918 C4916 1.384 . S
C4918 C4919 1.372 . S
C4919 C4918 1.372 . S
C4919 C4920 1.400 . S
C4919 C4924 1.490 . S
C4920 H4910 0.930 . S
C4920 C4919 1.400 . S
C4920 C4923 1.386 . S
H4921 C4937 0.930 . S
H4922 C4938 0.931 . S
C4923 H4911 0.929 . S
C4923 C4917 1.390 . S
C4923 C4920 1.386 . S
C4924 C4919 1.490 . S
C4924 C4926 1.395 . S
C4924 C4927 1.403 . S
H4925 C4931 0.930 . S
C4926 H4912 0.930 . S
C4926 C4924 1.395 . S
C4926 C4929 1.403 . S
C4927 C4924 1.403 . S
C4927 C4928 1.524 . S
C4927 C4931 1.400 . S
C4928 H4913 0.960 . S
C4928 H4914 0.960 . S
C4928 H4915 0.960 . S
C4928 C4927 1.524 . S
C4929 C4926 1.403 . S
C4929 C4930 1.392 . S
C4929 C4933 1.495 . S
C4930 C4929 1.392 . S
C4930 C4931 1.385 . S
C4930 C4932 1.478 . S
C4931 H4925 0.930 . S
C4931 C4927 1.400 . S
C4931 C4930 1.385 . S
C4932 C4930 1.478 . S
C4932 C4934 1.381 . S
C4932 C4938 1.383 . S
C4933 C4929 1.495 . S
C4933 H4939 0.959 . S
C4933 H4940 0.961 . S
C4933 H4941 0.960 . S
C4934 C4932 1.381 . S
C4934 C4935 1.394 . S
C4934 H4942 0.930 . S
C4935 C4934 1.394 . S
C4935 C4936 1.383 . S
C4935 H4943 0.929 . S
C4936 C4935 1.383 . S
C4936 C4937 1.377 . S
C4937 H4921 0.930 . S
C4937 C4936 1.377 . S
C4937 C4938 1.379 . S
C4938 H4922 0.931 . S
C4938 C4932 1.383 . S
C4938 C4937 1.379 . S
H4939 C4933 0.959 . S
H4940 C4933 0.961 . S
H4941 C4933 0.960 . S
H4942 C4934 0.930 . S
H4943 C4935 0.929 . S
H4944 C4952 0.929 . S
H4945 C4954 0.930 . S
H4946 C4956 0.930 . S
H4947 C4959 0.929 . S
H4948 C4962 0.930 . S
H4949 C4964 0.960 . S
H4950 C4964 0.960 . S
H4951 C4964 0.960 . S
C4952 H4944 0.929 . S
C4952 C4953 1.377 . S
C4952 C4954 1.384 . S
C4953 C4952 1.377 . S
C4953 C4959 1.390 . S
C4954 H4945 0.930 . S
C4954 C4952 1.384 . S
C4954 C4955 1.372 . S
C4955 C4954 1.372 . S
C4955 C4956 1.400 . S
C4955 C4960 1.490 . S
C4956 H4946 0.930 . S
C4956 C4955 1.400 . S
C4956 C4959 1.386 . S
H4957 C4973 0.930 . S
H4958 C4974 0.931 . S
C4959 H4947 0.929 . S
C4959 C4953 1.390 . S
C4959 C4956 1.386 . S
C4960 C4955 1.490 . S
C4960 C4962 1.395 . S
C4960 C4963 1.403 . S
H4961 C4967 0.930 . S
C4962 H4948 0.930 . S
C4962 C4960 1.395 . S
C4962 C4965 1.403 . S
C4963 C4960 1.403 . S
C4963 C4964 1.524 . S
C4963 C4967 1.400 . S
C4964 H4949 0.960 . S
C4964 H4950 0.960 . S
C4964 H4951 0.960 . S
C4964 C4963 1.524 . S
C4965 C4962 1.403 . S
C4965 C4966 1.392 . S
C4965 C4969 1.495 . S
C4966 C4965 1.392 . S
C4966 C4967 1.385 . S
C4966 C4968 1.478 . S
C4967 H4961 0.930 . S
C4967 C4963 1.400 . S
C4967 C4966 1.385 . S
C4968 C4966 1.478 . S
C4968 C4970 1.381 . S
C4968 C4974 1.383 . S
C4969 C4965 1.495 . S
C4969 H4975 0.959 . S
C4969 H4976 0.961 . S
C4969 H4977 0.960 . S
C4970 C4968 1.381 . S
C4970 C4971 1.394 . S
C4970 H4978 0.930 . S
C4971 C4970 1.394 . S
C4971 C4972 1.383 . S
C4971 H4979 0.929 . S
C4972 C4971 1.383 . S
C4972 C4973 1.377 . S
C4973 H4957 0.930 . S
C4973 C4972 1.377 . S
C4973 C4974 1.379 . S
C4974 H4958 0.931 . S
C4974 C4968 1.383 . S
C4974 C4973 1.379 . S
H4975 C4969 0.959 . S
H4976 C4969 0.961 . S
H4977 C4969 0.960 . S
H4978 C4970 0.930 . S
H4979 C4971 0.929 . S
H4980 C4988 0.929 . S
H4981 C4990 0.930 . S
H4982 C4992 0.930 . S
H4983 C4995 0.929 . S
H4984 C4998 0.930 . S
H4985 C5000 0.960 . S
H4986 C5000 0.960 . S
H4987 C5000 0.960 . S
C4988 H4980 0.929 . S
C4988 C4989 1.377 . S
C4988 C4990 1.384 . S
C4989 C4988 1.377 . S
C4989 C4995 1.390 . S
C4990 H4981 0.930 . S
C4990 C4988 1.384 . S
C4990 C4991 1.372 . S
C4991 C4990 1.372 . S
C4991 C4992 1.400 . S
C4991 C4996 1.490 . S
C4992 H4982 0.930 . S
C4992 C4991 1.400 . S
C4992 C4995 1.386 . S
H4993 C5009 0.930 . S
H4994 C5010 0.931 . S
C4995 H4983 0.929 . S
C4995 C4989 1.390 . S
C4995 C4992 1.386 . S
C4996 C4991 1.490 . S
C4996 C4998 1.395 . S
C4996 C4999 1.403 . S
H4997 C5003 0.930 . S
C4998 H4984 0.930 . S
C4998 C4996 1.395 . S
C4998 C5001 1.403 . S
C4999 C4996 1.403 . S
C4999 C5000 1.524 . S
C4999 C5003 1.400 . S
C5000 H4985 0.960 . S
C5000 H4986 0.960 . S
C5000 H4987 0.960 . S
C5000 C4999 1.524 . S
C5001 C4998 1.403 . S
C5001 C5002 1.392 . S
C5001 C5005 1.495 . S
C5002 C5001 1.392 . S
C5002 C5003 1.385 . S
C5002 C5004 1.478 . S
C5003 H4997 0.930 . S
C5003 C4999 1.400 . S
C5003 C5002 1.385 . S
C5004 C5002 1.478 . S
C5004 C5006 1.381 . S
C5004 C5010 1.383 . S
C5005 C5001 1.495 . S
C5005 H5011 0.959 . S
C5005 H5012 0.961 . S
C5005 H5013 0.960 . S
C5006 C5004 1.381 . S
C5006 C5007 1.394 . S
C5006 H5014 0.930 . S
C5007 C5006 1.394 . S
C5007 C5008 1.383 . S
C5007 H5015 0.929 . S
C5008 C5007 1.383 . S
C5008 C5009 1.377 . S
C5009 H4993 0.930 . S
C5009 C5008 1.377 . S
C5009 C5010 1.379 . S
C5010 H4994 0.931 . S
C5010 C5004 1.383 . S
C5010 C5009 1.379 . S
H5011 C5005 0.959 . S
H5012 C5005 0.961 . S
H5013 C5005 0.960 . S
H5014 C5006 0.930 . S
H5015 C5007 0.929 . S
H5016 C5024 0.929 . S
H5017 C5026 0.930 . S
H5018 C5028 0.930 . S
H5019 C5031 0.929 . S
H5020 C5034 0.930 . S
H5021 C5036 0.960 . S
H5022 C5036 0.960 . S
H5023 C5036 0.960 . S
C5024 H5016 0.929 . S
C5024 C5025 1.377 . S
C5024 C5026 1.384 . S
C5025 C5024 1.377 . S
C5025 C5031 1.390 . S
C5026 H5017 0.930 . S
C5026 C5024 1.384 . S
C5026 C5027 1.372 . S
C5027 C5026 1.372 . S
C5027 C5028 1.400 . S
C5027 C5032 1.490 . S
C5028 H5018 0.930 . S
C5028 C5027 1.400 . S
C5028 C5031 1.386 . S
H5029 C5045 0.930 . S
H5030 C5046 0.931 . S
C5031 H5019 0.929 . S
C5031 C5025 1.390 . S
C5031 C5028 1.386 . S
C5032 C5027 1.490 . S
C5032 C5034 1.395 . S
C5032 C5035 1.403 . S
H5033 C5039 0.930 . S
C5034 H5020 0.930 . S
C5034 C5032 1.395 . S
C5034 C5037 1.403 . S
C5035 C5032 1.403 . S
C5035 C5036 1.524 . S
C5035 C5039 1.400 . S
C5036 H5021 0.960 . S
C5036 H5022 0.960 . S
C5036 H5023 0.960 . S
C5036 C5035 1.524 . S
C5037 C5034 1.403 . S
C5037 C5038 1.392 . S
C5037 C5041 1.495 . S
C5038 C5037 1.392 . S
C5038 C5039 1.385 . S
C5038 C5040 1.478 . S
C5039 H5033 0.930 . S
C5039 C5035 1.400 . S
C5039 C5038 1.385 . S
C5040 C5038 1.478 . S
C5040 C5042 1.381 . S
C5040 C5046 1.383 . S
C5041 C5037 1.495 . S
C5041 H5047 0.959 . S
C5041 H5048 0.961 . S
C5041 H5049 0.960 . S
C5042 C5040 1.381 . S
C5042 C5043 1.394 . S
C5042 H5050 0.930 . S
C5043 C5042 1.394 . S
C5043 C5044 1.383 . S
C5043 H5051 0.929 . S
C5044 C5043 1.383 . S
C5044 C5045 1.377 . S
C5045 H5029 0.930 . S
C5045 C5044 1.377 . S
C5045 C5046 1.379 . S
C5046 H5030 0.931 . S
C5046 C5040 1.383 . S
C5046 C5045 1.379 . S
H5047 C5041 0.959 . S
H5048 C5041 0.961 . S
H5049 C5041 0.960 . S
H5050 C5042 0.930 . S
H5051 C5043 0.929 . S
H5052 C5060 0.929 . S
H5053 C5062 0.930 . S
H5054 C5064 0.930 . S
H5055 C5067 0.929 . S
H5056 C5070 0.930 . S
H5057 C5072 0.960 . S
H5058 C5072 0.960 . S
H5059 C5072 0.960 . S
C5060 H5052 0.929 . S
C5060 C5061 1.377 . S
C5060 C5062 1.384 . S
C5061 C5060 1.377 . S
C5061 C5067 1.390 . S
C5062 H5053 0.930 . S
C5062 C5060 1.384 . S
C5062 C5063 1.372 . S
C5063 C5062 1.372 . S
C5063 C5064 1.400 . S
C5063 C5068 1.490 . S
C5064 H5054 0.930 . S
C5064 C5063 1.400 . S
C5064 C5067 1.386 . S
H5065 C5081 0.930 . S
H5066 C5082 0.931 . S
C5067 H5055 0.929 . S
C5067 C5061 1.390 . S
C5067 C5064 1.386 . S
C5068 C5063 1.490 . S
C5068 C5070 1.395 . S
C5068 C5071 1.403 . S
H5069 C5075 0.930 . S
C5070 H5056 0.930 . S
C5070 C5068 1.395 . S
C5070 C5073 1.403 . S
C5071 C5068 1.403 . S
C5071 C5072 1.524 . S
C5071 C5075 1.400 . S
C5072 H5057 0.960 . S
C5072 H5058 0.960 . S
C5072 H5059 0.960 . S
C5072 C5071 1.524 . S
C5073 C5070 1.403 . S
C5073 C5074 1.392 . S
C5073 C5077 1.495 . S
C5074 C5073 1.392 . S
C5074 C5075 1.385 . S
C5074 C5076 1.478 . S
C5075 H5069 0.930 . S
C5075 C5071 1.400 . S
C5075 C5074 1.385 . S
C5076 C5074 1.478 . S
C5076 C5078 1.381 . S
C5076 C5082 1.383 . S
C5077 C5073 1.495 . S
C5077 H5083 0.959 . S
C5077 H5084 0.961 . S
C5077 H5085 0.960 . S
C5078 C5076 1.381 . S
C5078 C5079 1.394 . S
C5078 H5086 0.930 . S
C5079 C5078 1.394 . S
C5079 C5080 1.383 . S
C5079 H5087 0.929 . S
C5080 C5079 1.383 . S
C5080 C5081 1.377 . S
C5081 H5065 0.930 . S
C5081 C5080 1.377 . S
C5081 C5082 1.379 . S
C5082 H5066 0.931 . S
C5082 C5076 1.383 . S
C5082 C5081 1.379 . S
H5083 C5077 0.959 . S
H5084 C5077 0.961 . S
H5085 C5077 0.960 . S
H5086 C5078 0.930 . S
H5087 C5079 0.929 . S
H5088 C5096 0.929 . S
H5089 C5098 0.930 . S
H5090 C5100 0.930 . S
H5091 C5103 0.929 . S
H5092 C5106 0.930 . S
H5093 C5108 0.960 . S
H5094 C5108 0.960 . S
H5095 C5108 0.960 . S
C5096 H5088 0.929 . S
C5096 C5097 1.377 . S
C5096 C5098 1.384 . S
C5097 C5096 1.377 . S
C5097 C5103 1.390 . S
C5098 H5089 0.930 . S
C5098 C5096 1.384 . S
C5098 C5099 1.372 . S
C5099 C5098 1.372 . S
C5099 C5100 1.400 . S
C5099 C5104 1.490 . S
C5100 H5090 0.930 . S
C5100 C5099 1.400 . S
C5100 C5103 1.386 . S
H5101 C5117 0.930 . S
H5102 C5118 0.931 . S
C5103 H5091 0.929 . S
C5103 C5097 1.390 . S
C5103 C5100 1.386 . S
C5104 C5099 1.490 . S
C5104 C5106 1.395 . S
C5104 C5107 1.403 . S
H5105 C5111 0.930 . S
C5106 H5092 0.930 . S
C5106 C5104 1.395 . S
C5106 C5109 1.403 . S
C5107 C5104 1.403 . S
C5107 C5108 1.524 . S
C5107 C5111 1.400 . S
C5108 H5093 0.960 . S
C5108 H5094 0.960 . S
C5108 H5095 0.960 . S
C5108 C5107 1.524 . S
C5109 C5106 1.403 . S
C5109 C5110 1.392 . S
C5109 C5113 1.495 . S
C5110 C5109 1.392 . S
C5110 C5111 1.385 . S
C5110 C5112 1.478 . S
C5111 H5105 0.930 . S
C5111 C5107 1.400 . S
C5111 C5110 1.385 . S
C5112 C5110 1.478 . S
C5112 C5114 1.381 . S
C5112 C5118 1.383 . S
C5113 C5109 1.495 . S
C5113 H5119 0.959 . S
C5113 H5120 0.961 . S
C5113 H5121 0.960 . S
C5114 C5112 1.381 . S
C5114 C5115 1.394 . S
C5114 H5122 0.930 . S
C5115 C5114 1.394 . S
C5115 C5116 1.383 . S
C5115 H5123 0.929 . S
C5116 C5115 1.383 . S
C5116 C5117 1.377 . S
C5117 H5101 0.930 . S
C5117 C5116 1.377 . S
C5117 C5118 1.379 . S
C5118 H5102 0.931 . S
C5118 C5112 1.383 . S
C5118 C5117 1.379 . S
H5119 C5113 0.959 . S
H5120 C5113 0.961 . S
H5121 C5113 0.960 . S
H5122 C5114 0.930 . S
H5123 C5115 0.929 . S
H5124 C5132 0.929 . S
H5125 C5134 0.930 . S
H5126 C5136 0.930 . S
H5127 C5139 0.929 . S
H5128 C5142 0.930 . S
H5129 C5144 0.960 . S
H5130 C5144 0.960 . S
H5131 C5144 0.960 . S
C5132 H5124 0.929 . S
C5132 C5133 1.377 . S
C5132 C5134 1.384 . S
C5133 C5132 1.377 . S
C5133 C5139 1.390 . S
C5134 H5125 0.930 . S
C5134 C5132 1.384 . S
C5134 C5135 1.372 . S
C5135 C5134 1.372 . S
C5135 C5136 1.400 . S
C5135 C5140 1.490 . S
C5136 H5126 0.930 . S
C5136 C5135 1.400 . S
C5136 C5139 1.386 . S
H5137 C5153 0.930 . S
H5138 C5154 0.931 . S
C5139 H5127 0.929 . S
C5139 C5133 1.390 . S
C5139 C5136 1.386 . S
C5140 C5135 1.490 . S
C5140 C5142 1.395 . S
C5140 C5143 1.403 . S
H5141 C5147 0.930 . S
C5142 H5128 0.930 . S
C5142 C5140 1.395 . S
C5142 C5145 1.403 . S
C5143 C5140 1.403 . S
C5143 C5144 1.524 . S
C5143 C5147 1.400 . S
C5144 H5129 0.960 . S
C5144 H5130 0.960 . S
C5144 H5131 0.960 . S
C5144 C5143 1.524 . S
C5145 C5142 1.403 . S
C5145 C5146 1.392 . S
C5145 C5149 1.495 . S
C5146 C5145 1.392 . S
C5146 C5147 1.385 . S
C5146 C5148 1.478 . S
C5147 H5141 0.930 . S
C5147 C5143 1.400 . S
C5147 C5146 1.385 . S
C5148 C5146 1.478 . S
C5148 C5150 1.381 . S
C5148 C5154 1.383 . S
C5149 C5145 1.495 . S
C5149 H5155 0.959 . S
C5149 H5156 0.961 . S
C5149 H5157 0.960 . S
C5150 C5148 1.381 . S
C5150 C5151 1.394 . S
C5150 H5158 0.930 . S
C5151 C5150 1.394 . S
C5151 C5152 1.383 . S
C5151 H5159 0.929 . S
C5152 C5151 1.383 . S
C5152 C5153 1.377 . S
C5153 H5137 0.930 . S
C5153 C5152 1.377 . S
C5153 C5154 1.379 . S
C5154 H5138 0.931 . S
C5154 C5148 1.383 . S
C5154 C5153 1.379 . S
H5155 C5149 0.959 . S
H5156 C5149 0.961 . S
H5157 C5149 0.960 . S
H5158 C5150 0.930 . S
H5159 C5151 0.929 . S
C1732 N1164 1.470 . S
C1713 C31 1.489 . S
C1768 C1191 1.560 . S
C1749 C61 1.572 . S
C1785 C73 1.513 . S
C1804 C1205 1.496 . S
C1840 N1223 1.427 . S
C1821 C133 1.471 . S
C1857 C175 1.555 . S
C1876 C1228 1.560 . S
C1893 C211 1.486 . S
C1912 C1168 1.491 . S
C1929 C241 1.417 . S
C1948 N1187 1.363 . S
C1984 N1200 1.428 . S
C1965 C253 1.494 . S
C2020 N1246 1.380 . S
C2001 C1 1.438 . S
C2037 C37 1.517 . S
C2056 N1269 1.496 . S
C2073 C103 1.558 . S
C2092 N1292 1.553 . S
C2128 N1325 1.413 . S
C2109 C139 1.468 . S
C2145 C145 1.529 . S
C2164 C1352 1.531 . S
C2200 C1375 1.543 . S
C2181 C205 1.555 . S
C2217 C247 1.488 . S
C2236 C1398 1.482 . S
C2272 C1412 1.438 . S
C2253 C283 1.441 . S
C2289 C25 1.423 . S
C2308 C1329 1.415 . S
C2325 C169 1.465 . S
C2344 N1371 1.436 . S
C2380 N1394 1.446 . S
C2361 C181 1.472 . S
C2397 C217 1.468 . S
C2416 N1407 1.452 . S
C2452 N1348 1.434 . S
C2433 C277 1.453 . S
C2488 C1274 1.658 . S
C2469 C97 1.658 . S
C2505 C109 1.512 . S
C2524 C1297 1.502 . S
C2560 C1251 1.576 . S
C2541 C67 1.574 . S
C2596 C1444 1.438 . S
C2577 C319 1.448 . S
C2613 C349 1.593 . S
C2632 C1458 1.594 . S
C2649 C361 1.506 . S
C2668 N1486 1.481 . S
C2704 N1499 1.415 . S
C2685 C421 1.463 . S
C2721 C463 1.565 . S
C2740 C1504 1.565 . S
C2757 C499 1.477 . S
C2776 N1440 1.415 . S
C2793 C529 1.513 . S
C2812 N1453 1.495 . S
C2829 C541 1.442 . S
C2848 C1490 1.429 . S
C2884 N1338 1.397 . S
C2865 C289 1.436 . S
C2901 C325 1.512 . S
C2920 N1522 1.459 . S
C2956 N1384 1.458 . S
C2937 C391 1.479 . S
C2973 C427 1.508 . S
C2992 C1559 1.502 . S
C3009 C433 1.559 . S
C3028 C1260 1.563 . S
C3064 C1573 1.581 . S
C3045 C493 1.583 . S
C3081 C535 1.541 . S
C3100 C1306 1.535 . S
C3136 N1591 1.412 . S
C3117 C571 1.434 . S
C3153 C313 1.456 . S
C3172 N1555 1.416 . S
C3208 N1568 1.475 . S
C3189 C457 1.499 . S
C3225 C469 1.471 . S
C3244 N1302 1.403 . S
C3280 C1596 1.433 . S
C3261 C505 1.436 . S
C3297 C565 1.425 . S
C3316 N1256 1.405 . S
C3333 C385 1.555 . S
C3352 C1527 1.555 . S
C3369 C397 1.553 . S
C3388 C1389 1.547 . S
C3405 C355 1.585 . S
C3424 C1343 1.585 . S
C3441 C607 1.515 . S
C3460 C1481 1.522 . S
C3496 C1513 1.527 . S
C3477 C637 1.527 . S
C3513 C649 1.473 . S
C3532 N1430 1.412 . S
C3549 C709 1.441 . S
C3568 N1463 1.387 . S
C3585 C751 1.568 . S
C3604 C1467 1.562 . S
C3621 C787 1.550 . S
C3640 N1476 1.501 . S
C3676 N1509 1.391 . S
C3657 C817 1.400 . S
C3693 C829 1.502 . S
C3712 C1435 1.502 . S
C3748 N1624 1.412 . S
C3729 C577 1.464 . S
C3765 C613 1.458 . S
C3784 N1361 1.433 . S
C3820 N1647 1.365 . S
C3801 C679 1.418 . S
C3837 C715 1.474 . S
C3856 N1417 1.454 . S
C3873 C721 1.532 . S
C3892 C1665 1.538 . S
C3909 C781 1.651 . S
C3928 C1283 1.652 . S
C3964 N1683 1.396 . S
C3945 C823 1.426 . S
C3981 C859 1.486 . S
C4000 C1320 1.497 . S
C4036 C1421 1.479 . S
C4017 C601 1.477 . S
C4072 N1279 1.455 . S
C4053 C745 1.506 . S
C4089 C757 1.571 . S
C4108 C1688 1.570 . S
C4125 C793 1.398 . S
C4144 N1315 1.358 . S
C4180 N1660 1.480 . S
C4161 C853 1.498 . S
C4216 C1366 1.547 . S
C4197 C673 1.551 . S
C4252 C1651 1.551 . S
C4233 C685 1.548 . S
C4288 C1628 1.528 . S
C4269 C643 1.540 . S
C4305 C895 1.402 . S
C4324 N1210 1.361 . S
C4341 C925 1.543 . S
C4360 C1237 1.539 . S
C4396 C1159 1.541 . S
C4377 C937 1.540 . S
C4432 N1177 1.364 . S
C4413 C997 1.406 . S
C4468 C1182 1.560 . S
C4449 C1039 1.567 . S
C4504 C1214 1.472 . S
C4485 C1075 1.490 . S
C4540 N1233 1.501 . S
C4521 C1105 1.518 . S
C4557 C1117 1.506 . S
C4576 N1154 1.462 . S
C4593 C865 1.374 . S
C4612 N1670 1.362 . S
C4648 N1578 1.445 . S
C4629 C901 1.475 . S
C4684 C1697 1.562 . S
C4665 C967 1.575 . S
C4720 C1605 1.381 . S
C4701 C1003 1.389 . S
C4737 C1009 1.565 . S
C4756 C1619 1.571 . S
C4792 C1536 1.567 . S
C4773 C1069 1.581 . S
C4828 C1642 1.637 . S
C4809 C1111 1.638 . S
C4845 C1147 1.490 . S
C4864 N1545 1.461 . S
C4900 N1601 1.368 . S
C4881 C889 1.376 . S
C4936 N1532 1.456 . S
C4917 C1033 1.475 . S
C4972 N1637 1.371 . S
C4953 C1045 1.424 . S
C4989 C1081 1.501 . S
C5008 C1550 1.507 . S
C5025 C1141 1.440 . S
C5044 N1614 1.413 . S
C5061 C961 1.649 . S
C5080 C1582 1.640 . S
C5097 C973 1.438 . S
C5116 N1693 1.393 . S
C5152 C1674 1.508 . S
C5133 C931 1.521 . S
