# Generated by pormake.
# Topology ant, (3,6)-cn, num edge types: 1
# Building blocks:
#     Node 0, Type 0, BuildingBlock: CUQRIR_clean_linker_1, # of connection points: 3
#     Node 1, Type 0, BuildingBlock: CUQRIR_clean_linker_1, # of connection points: 3
#     Node 2, Type 0, BuildingBlock: CUQRIR_clean_linker_1, # of connection points: 3
#     Node 3, Type 0, BuildingBlock: CUQRIR_clean_linker_1, # of connection points: 3
#     Node 4, Type 0, BuildingBlock: CUQRIR_clean_linker_1, # of connection points: 3
#     Node 5, Type 0, BuildingBlock: CUQRIR_clean_linker_1, # of connection points: 3
#     Node 6, Type 0, BuildingBlock: CUQRIR_clean_linker_1, # of connection points: 3
#     Node 7, Type 0, BuildingBlock: CUQRIR_clean_linker_1, # of connection points: 3
#     Node 8, Type 1, BuildingBlock: MIDCAF_clean_sbu_0, # of connection points: 6
#     Node 9, Type 1, BuildingBlock: MIDCAF_clean_sbu_0, # of connection points: 6
#     Node 10, Type 1, BuildingBlock: MIDCAF_clean_sbu_0, # of connection points: 6
#     Node 11, Type 1, BuildingBlock: MIDCAF_clean_sbu_0, # of connection points: 6
#     Edge 12, Type (0, 1), BuildingBlock: OJICUG_clean_linker_0, # of connection points: 2
#     Edge 13, Type (0, 1), BuildingBlock: OJICUG_clean_linker_0, # of connection points: 2
#     Edge 14, Type (0, 1), BuildingBlock: OJICUG_clean_linker_0, # of connection points: 2
#     Edge 15, Type (0, 1), BuildingBlock: OJICUG_clean_linker_0, # of connection points: 2
#     Edge 16, Type (0, 1), BuildingBlock: OJICUG_clean_linker_0, # of connection points: 2
#     Edge 17, Type (0, 1), BuildingBlock: OJICUG_clean_linker_0, # of connection points: 2
#     Edge 18, Type (0, 1), BuildingBlock: OJICUG_clean_linker_0, # of connection points: 2
#     Edge 19, Type (0, 1), BuildingBlock: OJICUG_clean_linker_0, # of connection points: 2
#     Edge 20, Type (0, 1), BuildingBlock: OJICUG_clean_linker_0, # of connection points: 2
#     Edge 21, Type (0, 1), BuildingBlock: OJICUG_clean_linker_0, # of connection points: 2
#     Edge 22, Type (0, 1), BuildingBlock: OJICUG_clean_linker_0, # of connection points: 2
#     Edge 23, Type (0, 1), BuildingBlock: OJICUG_clean_linker_0, # of connection points: 2
#     Edge 24, Type (0, 1), BuildingBlock: OJICUG_clean_linker_0, # of connection points: 2
#     Edge 25, Type (0, 1), BuildingBlock: OJICUG_clean_linker_0, # of connection points: 2
#     Edge 26, Type (0, 1), BuildingBlock: OJICUG_clean_linker_0, # of connection points: 2
#     Edge 27, Type (0, 1), BuildingBlock: OJICUG_clean_linker_0, # of connection points: 2
#     Edge 28, Type (0, 1), BuildingBlock: OJICUG_clean_linker_0, # of connection points: 2
#     Edge 29, Type (0, 1), BuildingBlock: OJICUG_clean_linker_0, # of connection points: 2
#     Edge 30, Type (0, 1), BuildingBlock: OJICUG_clean_linker_0, # of connection points: 2
#     Edge 31, Type (0, 1), BuildingBlock: OJICUG_clean_linker_0, # of connection points: 2
#     Edge 32, Type (0, 1), BuildingBlock: OJICUG_clean_linker_0, # of connection points: 2
#     Edge 33, Type (0, 1), BuildingBlock: OJICUG_clean_linker_0, # of connection points: 2
#     Edge 34, Type (0, 1), BuildingBlock: OJICUG_clean_linker_0, # of connection points: 2
#     Edge 35, Type (0, 1), BuildingBlock: OJICUG_clean_linker_0, # of connection points: 2
# Relax obj value: 0.112
# Max RMSD: 0.220
# Mean RMSD: 0.145
data_MOF--net-ant--node1-MIDCAF_clean_sbu_0--node2-CUQRIR_clean_linker_1--edge1-OJICUG_clean_linker_0
_symmetry_space_group_name_H-M    P1
_symmetry_Int_Tables_number       1
_symmetry_cell_setting            triclinic
loop_
_symmetry_equiv_pos_as_xyz
'x, y, z'
_cell_length_a     18.413352
_cell_length_b     18.531303
_cell_length_c     47.789458
_cell_angle_alpha  83.009149
_cell_angle_beta   108.8591
_cell_angle_gamma 91.633107
loop_
_atom_site_label
_atom_site_type_symbol
_atom_site_fract_x
_atom_site_fract_y
_atom_site_fract_z
_atom_type_partial_charge
C0 C 0.07871 0.18374 0.09709 0.0
N1 N 0.09266 0.13653 0.0799 0.0
N2 N 0.09079 0.25307 0.08691 0.0
C3 C 0.05605 0.16182 0.12448 0.0
C4 C 0.11241 0.24595 0.06279 0.0
N5 N 0.11316 0.17503 0.05847 0.0
C6 C 0.13734 0.30793 0.04469 0.0
H7 H 1.01393 0.11717 0.12081 0.0
H8 H 0.03078 0.2083 0.13087 0.0
H9 H 0.10772 0.14154 0.14312 0.0
H10 H 0.17003 0.28871 0.03113 0.0
H11 H 0.17302 0.34626 0.05949 0.0
H12 H 0.08567 0.33808 0.02946 0.0
C13 C 0.11443 0.85464 0.34851 0.0
N14 N 0.15798 0.84894 0.3307 0.0
N15 N 0.03892 0.84707 0.33328 0.0
C16 C 0.14505 0.86382 0.38108 0.0
C17 C 0.03775 0.83831 0.30552 0.0
N18 N 0.10965 0.83889 0.30396 0.0
C19 C 0.96695 0.82054 0.2808 0.0
H20 H 0.14793 0.80992 0.39438 0.0
H21 H 0.10617 0.89916 0.38706 0.0
H22 H 0.203 0.88813 0.38694 0.0
H23 H 0.91364 0.8315 0.28568 0.0
H24 H 0.96901 0.76236 0.27765 0.0
H25 H 0.96498 0.85342 0.25958 0.0
C26 C 0.69985 0.81422 0.59316 0.0
N27 N 0.7042 0.75378 0.58043 0.0
N28 N 0.6806 0.87359 0.57259 0.0
C29 C 0.71136 0.81448 0.62578 0.0
C30 C 0.6736 0.84704 0.5466 0.0
N31 N 0.68697 0.77398 0.55132 0.0
C32 C 0.65063 0.89175 0.51661 0.0
H33 H 0.65506 0.80757 0.62954 0.0
H34 H 0.73598 0.86683 0.63334 0.0
H35 H 0.7498 0.76896 0.63918 0.0
H36 H 0.66835 0.94906 0.51856 0.0
H37 H 0.58725 0.89094 0.5066 0.0
H38 H 0.67637 0.86892 0.50152 0.0
C39 C 0.66345 0.35145 0.85772 0.0
N40 N 0.70324 0.34906 0.83837 0.0
N41 N 0.58729 0.34383 0.84383 0.0
C42 C 0.69846 0.35836 0.89042 0.0
C43 C 0.58168 0.3387 0.81529 0.0
N44 N 0.65172 0.3417 0.81197 0.0
C45 C 0.50842 0.32402 0.79118 0.0
H46 H 0.70118 0.30394 0.90332 0.0
H47 H 0.66257 0.39406 0.89771 0.0
H48 H 0.7569 0.38146 0.89558 0.0
H49 H 0.50369 0.36031 0.77044 0.0
H50 H 0.45725 0.33279 0.7978 0.0
H51 H 0.50931 0.2671 0.78627 0.0
C52 C 0.10916 0.72481 0.91889 0.0
N53 N 0.1175 0.76599 0.94127 0.0
N54 N 0.11711 0.65365 0.92961 0.0
C55 C 0.09257 0.75394 0.88663 0.0
C56 C 0.13348 0.65306 0.9593 0.0
N57 N 0.13421 0.72144 0.9665 0.0
C58 C 0.14494 0.58516 0.98114 0.0
H59 H 0.03028 0.7662 0.87655 0.0
H60 H 0.10801 0.71397 0.87397 0.0
H61 H 0.12424 0.80512 0.88458 0.0
H62 H 0.18216 0.59543 1.00364 0.0
H63 H 0.17093 0.54087 0.97372 0.0
H64 H 0.08829 0.56678 0.98263 0.0
C65 C 0.64434 0.77608 0.1661 0.0
N66 N 0.70626 0.76122 0.1909 0.0
N67 N 0.58172 0.79329 0.17313 0.0
C68 C 0.64438 0.77164 0.1349 0.0
C69 C 0.60831 0.78853 0.20331 0.0
N70 N 0.68409 0.76975 0.21419 0.0
C71 C 0.55647 0.79067 0.22214 0.0
H72 H 0.69939 0.79207 0.13233 0.0
H73 H 0.59582 0.80353 0.11839 0.0
H74 H 0.63879 0.71404 0.13045 0.0
H75 H 0.50565 0.75603 0.21391 0.0
H76 H 0.5356 0.84723 0.2201 0.0
H77 H 0.58493 0.77211 0.246 0.0
C78 C 0.54358 0.1912 0.41386 0.0
N79 N 0.54326 0.24264 0.43178 0.0
N80 N 0.53582 0.12382 0.42723 0.0
C81 C 0.55781 0.20625 0.38448 0.0
C82 C 0.53115 0.13622 0.45385 0.0
N83 N 0.53609 0.20779 0.45667 0.0
C84 C 0.52567 0.07753 0.47783 0.0
H85 H 0.50286 0.22299 0.3669 0.0
H86 H 0.58009 0.15725 0.37858 0.0
H87 H 0.59886 0.25152 0.38504 0.0
H88 H 0.58407 0.06406 0.49356 0.0
H89 H 0.50021 0.02751 0.46815 0.0
H90 H 0.49059 0.09661 0.49056 0.0
C91 C 0.19503 0.36952 0.68064 0.0
N92 N 0.25621 0.34427 0.70427 0.0
N93 N 0.13282 0.37979 0.68912 0.0
C94 C 0.19549 0.38194 0.64902 0.0
C95 C 0.15898 0.35984 0.71899 0.0
N96 N 0.2341 0.33901 0.72831 0.0
C97 C 0.10738 0.35042 0.73814 0.0
H98 H 0.25057 0.40656 0.64823 0.0
H99 H 0.14703 0.41785 0.63484 0.0
H100 H 0.19052 0.32893 0.64002 0.0
H101 H 0.05452 0.32133 0.72682 0.0
H102 H 0.08999 0.40482 0.74134 0.0
H103 H 0.13501 0.31995 0.76032 0.0
Zn104 Zn 0.21478 0.61059 0.18098 0.0
Zn105 Zn 0.9991 0.69633 0.11216 0.0
Zn106 Zn 0.11462 0.6813 0.14423 0.0
C107 C 0.09055 0.69759 0.07818 0.0
C108 C 0.07186 0.83214 0.11305 0.0
O109 O 0.11093 0.71479 0.18499 0.0
O110 O 0.20428 0.64692 0.21742 0.0
C111 C 0.12675 0.5123 0.14464 0.0
O112 O 0.13322 0.7226 0.10205 0.0
O113 O 0.02945 0.66435 0.07852 0.0
O114 O 1.00647 0.80731 0.11232 0.0
O115 O 0.12847 0.78655 0.11961 0.0
O116 O 0.18027 0.51191 0.16921 0.0
O117 O 0.09395 0.57253 0.13137 0.0
O118 O 0.20807 0.74156 0.13291 0.0
O119 O 0.29186 0.66169 0.16408 0.0
C120 C 0.27753 0.71739 0.1449 0.0
O121 O 0.02691 0.70963 0.16501 0.0
O122 O 0.93889 0.64366 0.13683 0.0
C123 C 0.15414 0.69655 0.21183 0.0
C124 C 0.96088 0.67877 0.15924 0.0
Zn125 Zn 0.54185 0.65122 0.34079 0.0
Zn126 Zn 0.74335 0.73484 0.42597 0.0
Zn127 Zn 0.63453 0.70338 0.38491 0.0
C128 C 0.6235 0.83969 0.41417 0.0
C129 C 0.80572 0.76376 0.38483 0.0
O130 O 0.61203 0.592 0.40414 0.0
O131 O 0.53011 0.55734 0.36324 0.0
C132 C 0.46519 0.76945 0.34891 0.0
O133 O 0.59114 0.80571 0.39152 0.0
O134 O 0.68399 0.81373 0.43384 0.0
O135 O 0.82348 0.7758 0.41149 0.0
O136 O 0.74118 0.73325 0.3722 0.0
O137 O 0.45624 0.72287 0.33093 0.0
O138 O 0.52881 0.7717 0.37039 0.0
O139 O 0.69024 0.70038 0.34905 0.0
O140 O 0.60255 0.65022 0.31355 0.0
C141 C 0.66819 0.67755 0.32309 0.0
O142 O 0.64811 0.64156 0.42994 0.0
O143 O 0.77054 0.64569 0.45447 0.0
C144 C 0.56714 0.54355 0.39063 0.0
C145 C 0.70348 0.63216 0.45491 0.0
Zn146 Zn 0.52712 0.35782 0.61104 0.0
Zn147 Zn 0.73896 0.20269 0.66702 0.0
Zn148 Zn 0.64741 0.299 0.63692 0.0
C149 C 0.81965 0.32221 0.64727 0.0
C150 C 0.66235 0.13265 0.62129 0.0
O151 O 0.56378 0.30076 0.66422 0.0
O152 O 0.45069 0.32128 0.62987 0.0
C153 C 0.6435 0.46338 0.62239 0.0
O154 O 0.75648 0.35737 0.64212 0.0
O155 O 0.82231 0.25415 0.65456 0.0
O156 O 0.69887 0.11386 0.64837 0.0
O157 O 0.64267 0.20012 0.61218 0.0
O158 O 0.57378 0.45341 0.62024 0.0
O159 O 0.68804 0.40802 0.62677 0.0
O160 O 0.59931 0.25878 0.59324 0.0
O161 O 0.50889 0.34102 0.56985 0.0
C162 C 0.55039 0.28911 0.569 0.0
O163 O 0.63814 0.27992 0.68153 0.0
O164 O 0.74021 0.21288 0.70805 0.0
C165 C 0.4897 0.30555 0.65684 0.0
C166 C 0.6843 0.25216 0.70689 0.0
Zn167 Zn 0.09567 0.16184 0.84886 0.0
Zn168 Zn 0.28837 0.26889 0.93511 0.0
Zn169 Zn 0.18334 0.22359 0.89396 0.0
C170 C 0.22438 0.16662 0.96469 0.0
C171 C 0.1757 0.37994 0.90637 0.0
O172 O 0.23986 0.22427 0.85853 0.0
O173 O 0.16131 0.16681 0.823 0.0
C174 C 0.12022 0.06217 0.90073 0.0
O175 O 0.19039 0.15643 0.93726 0.0
O176 O 0.27366 0.21589 0.97071 0.0
O177 O 0.24493 0.3691 0.92227 0.0
O178 O 0.13422 0.327 0.89542 0.0
O179 O 0.08677 0.06903 0.87292 0.0
O180 O 0.16044 0.1145 0.91319 0.0
O181 O 0.07525 0.28697 0.87692 0.0
O182 O 1.00783 0.23144 0.83842 0.0
C183 C 1.01313 0.28033 0.85519 0.0
O184 O 0.29365 0.24626 0.88451 0.0
O185 O 0.38428 0.25734 0.92752 0.0
C186 C 0.22273 0.20124 0.83273 0.0
C187 C 0.36457 0.25554 0.89982 0.0
C188 C 0.14149 0.31696 0.13135 0.0
C189 C 0.09474 0.31719 0.10166 0.0
H190 H 0.18662 0.37736 0.16833 0.0
C191 C 0.05422 0.38102 0.08648 0.0
H192 H 0.17413 0.26871 0.14332 0.0
C193 C 0.06162 0.44411 0.1007 0.0
C194 C 0.10982 0.44421 0.13034 0.0
H195 H 1.01759 0.38214 0.06357 0.0
H196 H 0.03138 0.49315 0.08825 0.0
C197 C 0.14863 0.37942 0.14557 0.0
C198 C 0.94925 0.87701 0.35882 0.0
C199 C 0.97871 0.82685 0.34557 0.0
H200 H 0.86992 0.89563 0.3816 0.0
C201 C 0.94763 0.75666 0.34365 0.0
H202 H 0.97179 0.93156 0.36004 0.0
C203 C 0.88806 0.73673 0.35502 0.0
C204 C 0.85986 0.78651 0.36887 0.0
H205 H 0.97017 0.71721 0.33355 0.0
H206 H 0.86602 0.68195 0.35397 0.0
C207 C 0.89074 0.8567 0.3707 0.0
C208 C 0.62473 0.66467 0.59824 0.0
C209 C 0.69419 0.68137 0.59324 0.0
H210 H 0.55594 0.58446 0.61254 0.0
C211 C 0.75203 0.62764 0.60103 0.0
H212 H 0.58007 0.70581 0.59276 0.0
C213 C 0.73801 0.55638 0.61188 0.0
C214 C 0.66666 0.53911 0.61571 0.0
H215 H 0.8073 0.64043 0.59842 0.0
H216 H 0.78184 0.5148 0.61649 0.0
C217 C 0.6114 0.59496 0.60965 0.0
C218 C 0.82252 0.37812 0.82609 0.0
C219 C 0.7854 0.34242 0.84531 0.0
H220 H 0.92567 0.3862 0.81402 0.0
C221 C 0.82825 0.29458 0.86985 0.0
H222 H 0.79083 0.41535 0.80705 0.0
C223 C 0.90579 0.28158 0.87478 0.0
C224 C 0.94135 0.31356 0.85456 0.0
H225 H 0.80094 0.26383 0.88433 0.0
H226 H 0.93631 0.24155 0.89303 0.0
C227 C 0.89965 0.36255 0.83031 0.0
C228 C 0.17865 0.58084 0.90445 0.0
C229 C 0.11662 0.59202 0.91425 0.0
H230 H 0.24505 0.50289 0.89348 0.0
C231 C 0.06388 0.53597 0.91477 0.0
H232 H 0.22001 0.62348 0.90426 0.0
C233 C 0.07773 0.46686 0.90852 0.0
C234 C 0.14502 0.45383 0.90217 0.0
H235 H 1.01595 0.54421 0.92253 0.0
H236 H 0.04048 0.42246 0.91165 0.0
C237 C 0.19288 0.51205 0.89846 0.0
C238 C 0.77994 0.66497 0.18068 0.0
C239 C 0.77867 0.73179 0.1915 0.0
H240 H 0.83902 0.59537 0.1624 0.0
C241 C 0.84421 0.77552 0.19661 0.0
H242 H 0.7299 0.63061 0.1765 0.0
C243 C 0.9073 0.75552 0.18852 0.0
C244 C 0.90539 0.69163 0.17504 0.0
H245 H 0.84403 0.82769 0.20462 0.0
H246 H 0.95448 0.79286 0.19059 0.0
C247 C 0.84234 0.64517 0.17248 0.0
C248 C 0.48857 0.355 0.40033 0.0
C249 C 0.54611 0.32042 0.42471 0.0
H250 H 0.44903 0.45237 0.37127 0.0
C251 C 0.60779 0.36173 0.44054 0.0
H252 H 0.44023 0.3243 0.38811 0.0
C253 C 0.6137 0.43606 0.43084 0.0
C254 C 0.55774 0.46965 0.40523 0.0
H255 H 0.65285 0.33575 0.4595 0.0
H256 H 0.66351 0.466 0.44241 0.0
C257 C 0.49399 0.42846 0.39081 0.0
C258 C 0.99993 0.42803 0.67637 0.0
C259 C 0.05289 0.3831 0.67072 0.0
H260 H 0.88173 0.44517 0.67258 0.0
C261 C 0.02465 0.3312 0.65091 0.0
H262 H 1.02034 0.46888 0.6914 0.0
C263 C 0.94598 0.31887 0.6397 0.0
C264 C 0.89356 0.35737 0.64833 0.0
H265 H 0.06362 0.29511 0.64641 0.0
H266 H 0.92677 0.27383 0.6267 0.0
C267 C 0.92062 0.41513 0.66532 0.0
C268 C 0.39071 0.36796 0.70731 0.0
C269 C 0.32831 0.32039 0.70243 0.0
H270 H 0.49261 0.40001 0.69672 0.0
C271 C 0.32994 0.25893 0.68813 0.0
H272 H 0.38953 0.41668 0.71758 0.0
C273 C 0.38893 0.24902 0.67633 0.0
C274 C 0.44797 0.30005 0.67884 0.0
H275 H 0.28157 0.22249 0.68359 0.0
H276 H 0.38467 0.205 0.66291 0.0
C277 C 0.45003 0.35802 0.69554 0.0
C278 C 0.44707 0.83841 0.15671 0.0
C279 C 0.5018 0.78854 0.15532 0.0
H280 H 0.32945 0.85547 0.1535 0.0
C281 C 0.47565 0.72534 0.14183 0.0
H282 H 0.46578 0.88776 0.16685 0.0
C283 C 0.39782 0.70791 0.1335 0.0
C284 C 0.34452 0.75283 0.13875 0.0
H285 H 0.51614 0.68538 0.1408 0.0
H286 H 0.38077 0.65495 0.12629 0.0
C287 C 0.36886 0.82049 0.14864 0.0
C288 C 0.49824 0.25217 0.85495 0.0
C289 C 0.53057 0.32173 0.85764 0.0
H290 H 0.41801 0.17668 0.86593 0.0
C291 C 0.5069 0.3691 0.87371 0.0
H292 H 0.51636 0.21493 0.84264 0.0
C293 C 0.45282 0.34665 0.88756 0.0
C294 C 0.42053 0.2773 0.88482 0.0
H295 H 0.53011 0.42332 0.87542 0.0
H296 H 0.43544 0.38374 0.90015 0.0
C297 C 0.44263 0.23031 0.8682 0.0
C298 C 0.2828 0.7971 0.36457 0.0
C299 C 0.24078 0.84281 0.33907 0.0
H300 H 0.38942 0.74155 0.38838 0.0
C301 C 0.27903 0.8744 0.31951 0.0
H302 H 0.25482 0.76963 0.3795 0.0
C303 C 0.35545 0.85562 0.32392 0.0
C304 C 0.39592 0.80742 0.3487 0.0
H305 H 0.2481 0.90988 0.29973 0.0
H306 H 0.38152 0.87553 0.30718 0.0
C307 C 0.35999 0.7807 0.3696 0.0
C308 C 0.60596 0.95458 0.5907 0.0
C309 C 0.663 0.94545 0.57768 0.0
H310 H 0.56012 0.02255 0.61444 0.0
C311 C 0.71016 0.00451 0.5743 0.0
H312 H 0.56913 0.90967 0.5936 0.0
C313 C 0.70407 0.06962 0.58573 0.0
C314 C 0.6507 0.07669 0.60071 0.0
H315 H 0.75537 0.99832 0.56484 0.0
H316 H 0.74533 0.11211 0.58506 0.0
C317 C 0.60035 0.01926 0.60235 0.0
C318 C 1.01679 0.02627 0.07998 0.0
C319 C 0.0884 0.05887 0.08458 0.0
H320 H 0.95543 0.92931 0.08565 0.0
C321 C 0.15541 0.01621 0.09703 0.0
H322 H 0.96478 0.05886 0.07046 0.0
C323 C 0.15064 0.9417 0.10577 0.0
C324 C 0.0787 0.90954 0.10244 0.0
H325 H 0.21115 0.04115 0.10097 0.0
H326 H 0.20301 0.90992 0.1159 0.0
C327 C 1.01185 0.95244 0.08892 0.0
C328 C 0.50898 0.01628 0.3996 0.0
C329 C 0.55854 0.05554 0.42127 0.0
H330 H 0.49025 0.91581 0.38019 0.0
C331 C 0.62802 0.02409 0.43995 0.0
H332 H 0.45463 0.03994 0.38525 0.0
C333 C 0.64726 0.9537 0.4378 0.0
C334 C 0.59791 0.913 0.41651 0.0
H335 H 0.66655 0.0538 0.45684 0.0
H336 H 0.70156 0.93154 0.45287 0.0
C337 C 0.52888 0.9453 0.39705 0.0
C338 C 0.04502 0.87841 0.91831 0.0
C339 C 0.11138 0.84379 0.93828 0.0
H340 H 0.99597 0.97603 0.89085 0.0
C341 C 0.17618 0.88537 0.95071 0.0
H342 H 0.99425 0.84714 0.90892 0.0
C343 C 0.17727 0.95961 0.94064 0.0
C344 C 0.11366 0.99207 0.9179 0.0
H345 H 0.22785 0.85913 0.96619 0.0
H346 H 0.22979 0.98965 0.94865 0.0
C347 C 0.04624 0.95186 0.90803 0.0
C348 C 0.21638 0.13441 0.04193 0.0
C349 C 0.13799 0.14638 0.03638 0.0
H350 H 0.30599 0.12797 0.02285 0.0
C351 C 0.08688 0.14467 1.00743 0.0
H352 H 0.25647 0.13625 0.06413 0.0
C353 C 0.1148 0.13879 0.98374 0.0
C354 C 0.19434 0.13628 0.98879 0.0
H355 H 0.02621 0.15445 1.00284 0.0
H356 H 0.07491 0.1454 0.96122 0.0
C357 C 0.24442 0.1293 0.01832 0.0
C358 C 0.10653 0.84123 0.25221 0.0
C359 C 0.12959 0.80722 0.28153 0.0
H360 H 0.09552 0.832 0.20688 0.0
C361 C 0.16353 0.73783 0.28818 0.0
H362 H 0.08034 0.89489 0.24691 0.0
C363 C 0.17262 0.70187 0.26554 0.0
C364 C 0.14646 0.73455 0.23593 0.0
H365 H 0.18044 0.71066 0.31074 0.0
H366 H 0.19795 0.64782 0.27109 0.0
C367 C 0.11452 0.80499 0.22948 0.0
C368 C 0.74938 0.68461 0.53204 0.0
C369 C 0.68422 0.72564 0.52937 0.0
H370 H 0.8047 0.6179 0.51133 0.0
C371 C 0.61889 0.72211 0.50422 0.0
H372 H 0.80096 0.68773 0.5508 0.0
C373 C 0.62108 0.68294 0.48108 0.0
C374 C 0.68886 0.64656 0.48269 0.0
H375 H 0.56753 0.75258 0.50185 0.0
H376 H 0.57199 0.68655 0.46094 0.0
C377 C 0.75132 0.6446 0.50928 0.0
C378 C 0.69904 0.25293 0.78757 0.0
C379 C 0.6673 0.32148 0.78651 0.0
H380 H 0.72879 0.17625 0.76271 0.0
C381 C 0.64262 0.36698 0.7596 0.0
H382 H 0.71754 0.21714 0.80831 0.0
C383 C 0.64757 0.34358 0.73372 0.0
C384 C 0.67711 0.27416 0.73437 0.0
H385 H 0.61818 0.42005 0.75865 0.0
H386 H 0.62922 0.38028 0.71323 0.0
C387 C 0.70452 0.22949 0.76161 0.0
C388 C 0.18904 0.73419 0.01976 0.0
C389 C 0.12537 0.73784 0.99369 0.0
H390 H 0.22799 0.71857 0.06766 0.0
C391 C 0.05131 0.73754 0.99566 0.0
H392 H 0.24657 0.73307 0.01842 0.0
C393 C 0.04054 0.72669 0.02334 0.0
C394 C 0.10392 0.71723 0.04954 0.0
H395 H 1.0019 0.7392 0.97567 0.0
H396 H 0.98244 0.72294 0.02419 0.0
C397 C 0.17837 0.72476 0.0477 0.0
C398 C 0.73845 0.78894 0.26673 0.0
C399 C 0.72211 0.74123 0.24478 0.0
H400 H 0.73445 0.80547 0.30989 0.0
C401 C 0.71394 0.66708 0.25322 0.0
H402 H 0.74404 0.84652 0.26058 0.0
C403 C 0.70766 0.6435 0.2813 0.0
C404 C 0.71085 0.6936 0.30154 0.0
H405 H 0.70052 0.62953 0.23661 0.0
H406 H 0.69096 0.58785 0.28575 0.0
C407 C 0.73257 0.76535 0.29498 0.0
C408 C 0.60795 0.21789 0.50867 0.0
C409 C 0.54403 0.23781 0.48359 0.0
H410 H 0.65979 0.21797 0.55561 0.0
C411 C 0.48257 0.27532 0.48641 0.0
H412 H 0.65541 0.18816 0.50661 0.0
C413 C 0.48406 0.29104 0.51439 0.0
C414 C 0.54701 0.26888 0.53983 0.0
H415 H 0.43244 0.28961 0.46718 0.0
H416 H 0.4355 0.31956 0.51618 0.0
C417 C 0.6095 0.23329 0.53663 0.0
C418 C 0.29095 0.33615 0.78233 0.0
C419 C 0.27234 0.29924 0.75696 0.0
H420 H 0.29143 0.33271 0.82738 0.0
C421 C 0.26276 0.22372 0.7604 0.0
H422 H 0.29776 0.39458 0.78007 0.0
C423 C 0.25772 0.18824 0.78729 0.0
C424 C 0.26337 0.22775 0.81126 0.0
H425 H 0.24759 0.19438 0.74107 0.0
H426 H 0.24021 0.13192 0.7881 0.0
C427 C 0.28682 0.30058 0.80942 0.0
loop_
_geom_bond_atom_site_label_1
_geom_bond_atom_site_label_2
_geom_bond_distance
_geom_bond_site_symmetry_2
_ccdc_geom_bond_type
C0 N1 1.317 . S
C0 N2 1.348 . S
C0 C3 1.485 . S
N1 C0 1.317 . S
N1 N5 1.370 . S
N2 C0 1.348 . S
N2 C4 1.346 . S
C3 C0 1.485 . S
C3 H7 0.960 . S
C3 H8 0.961 . S
C3 H9 0.960 . S
C4 N2 1.346 . S
C4 N5 1.307 . S
C4 C6 1.486 . S
N5 N1 1.370 . S
N5 C4 1.307 . S
C6 C4 1.486 . S
C6 H10 0.960 . S
C6 H11 0.960 . S
C6 H12 0.959 . S
H7 C3 0.960 . S
H8 C3 0.961 . S
H9 C3 0.960 . S
H10 C6 0.960 . S
H11 C6 0.960 . S
H12 C6 0.959 . S
C13 N14 1.317 . S
C13 N15 1.348 . S
C13 C16 1.485 . S
N14 C13 1.317 . S
N14 N18 1.370 . S
N15 C13 1.348 . S
N15 C17 1.346 . S
C16 C13 1.485 . S
C16 H20 0.960 . S
C16 H21 0.961 . S
C16 H22 0.960 . S
C17 N15 1.346 . S
C17 N18 1.307 . S
C17 C19 1.486 1_455 S
N18 N14 1.370 . S
N18 C17 1.307 . S
C19 C17 1.486 1_655 S
C19 H23 0.960 . S
C19 H24 0.960 . S
C19 H25 0.960 . S
H20 C16 0.960 . S
H21 C16 0.961 . S
H22 C16 0.960 . S
H23 C19 0.960 . S
H24 C19 0.960 . S
H25 C19 0.960 . S
C26 N27 1.317 . S
C26 N28 1.348 . S
C26 C29 1.485 . S
N27 C26 1.317 . S
N27 N31 1.370 . S
N28 C26 1.348 . S
N28 C30 1.346 . S
C29 C26 1.485 . S
C29 H33 0.960 . S
C29 H34 0.961 . S
C29 H35 0.960 . S
C30 N28 1.346 . S
C30 N31 1.307 . S
C30 C32 1.486 . S
N31 N27 1.370 . S
N31 C30 1.307 . S
C32 C30 1.486 . S
C32 H36 0.960 . S
C32 H37 0.960 . S
C32 H38 0.959 . S
H33 C29 0.960 . S
H34 C29 0.961 . S
H35 C29 0.960 . S
H36 C32 0.960 . S
H37 C32 0.960 . S
H38 C32 0.959 . S
C39 N40 1.317 . S
C39 N41 1.348 . S
C39 C42 1.485 . S
N40 C39 1.317 . S
N40 N44 1.370 . S
N41 C39 1.348 . S
N41 C43 1.346 . S
C42 C39 1.485 . S
C42 H46 0.960 . S
C42 H47 0.961 . S
C42 H48 0.960 . S
C43 N41 1.346 . S
C43 N44 1.307 . S
C43 C45 1.486 . S
N44 N40 1.370 . S
N44 C43 1.307 . S
C45 C43 1.486 . S
C45 H49 0.960 . S
C45 H50 0.960 . S
C45 H51 0.959 . S
H46 C42 0.960 . S
H47 C42 0.961 . S
H48 C42 0.960 . S
H49 C45 0.960 . S
H50 C45 0.960 . S
H51 C45 0.959 . S
C52 N53 1.317 . S
C52 N54 1.348 . S
C52 C55 1.485 . S
N53 C52 1.317 . S
N53 N57 1.370 . S
N54 C52 1.348 . S
N54 C56 1.346 . S
C55 C52 1.485 . S
C55 H59 0.953 1_455 S
C55 H60 0.961 . S
C55 H61 0.960 . S
C56 N54 1.346 . S
C56 N57 1.307 . S
C56 C58 1.486 . S
N57 N53 1.370 . S
N57 C56 1.307 . S
C58 C56 1.486 . S
C58 H62 0.960 . S
C58 H63 0.961 1_455 S
C58 H64 0.959 . S
H59 C55 0.953 1_655 S
H60 C55 0.961 . S
H61 C55 0.960 . S
H62 C58 0.960 . S
H63 C58 0.961 1_655 S
H64 C58 0.959 . S
C65 N66 1.317 . S
C65 N67 1.348 . S
C65 C68 1.485 . S
N66 C65 1.317 . S
N66 N70 1.370 . S
N67 C65 1.348 . S
N67 C69 1.346 . S
C68 C65 1.485 . S
C68 H72 0.960 . S
C68 H73 0.961 . S
C68 H74 0.960 . S
C69 N67 1.346 . S
C69 N70 1.307 . S
C69 C71 1.486 . S
N70 N66 1.370 . S
N70 C69 1.307 . S
C71 C69 1.486 . S
C71 H75 0.960 . S
C71 H76 0.960 . S
C71 H77 0.959 . S
H72 C68 0.960 . S
H73 C68 0.961 . S
H74 C68 0.960 . S
H75 C71 0.960 . S
H76 C71 0.960 . S
H77 C71 0.959 . S
C78 N79 1.317 . S
C78 N80 1.348 . S
C78 C81 1.485 . S
N79 C78 1.317 . S
N79 N83 1.370 . S
N80 C78 1.348 . S
N80 C82 1.346 . S
C81 C78 1.485 . S
C81 H85 0.960 . S
C81 H86 0.961 . S
C81 H87 0.960 . S
C82 N80 1.346 . S
C82 N83 1.307 . S
C82 C84 1.486 . S
N83 N79 1.370 . S
N83 C82 1.307 . S
C84 C82 1.486 . S
C84 H88 0.960 . S
C84 H89 0.960 . S
C84 H90 0.959 . S
H85 C81 0.960 . S
H86 C81 0.961 . S
H87 C81 0.960 . S
H88 C84 0.960 . S
H89 C84 0.960 . S
H90 C84 0.959 . S
C91 N92 1.317 . S
C91 N93 1.348 . S
C91 C94 1.485 . S
N92 C91 1.317 . S
N92 N96 1.370 . S
N93 C91 1.348 . S
N93 C95 1.346 . S
C94 C91 1.485 . S
C94 H98 0.960 . S
C94 H99 0.961 . S
C94 H100 0.960 . S
C95 N93 1.346 . S
C95 N96 1.307 . S
C95 C97 1.486 . S
N96 N92 1.370 . S
N96 C95 1.307 . S
C97 C95 1.486 . S
C97 H101 0.960 1_455 S
C97 H102 0.960 1_455 S
C97 H103 0.959 . S
H98 C94 0.960 . S
H99 C94 0.961 . S
H100 C94 0.960 . S
H101 C97 0.960 1_655 S
H102 C97 0.960 1_655 S
H103 C97 0.959 . S
Zn104 O110 1.920 . S
Zn104 O116 1.898 . S
Zn104 O119 1.905 . S
Zn105 O113 1.905 . S
Zn105 O114 1.898 . S
Zn105 O122 1.920 1_455 S
Zn106 O109 2.080 . S
Zn106 O112 2.114 . S
Zn106 O115 2.120 . S
Zn106 O117 2.120 . S
Zn106 O118 2.114 . S
Zn106 O121 2.080 . S
C107 O112 1.166 . S
C107 O113 1.182 . S
C108 O114 1.167 . S
C108 O115 1.299 . S
O109 Zn106 2.080 . S
O109 C123 1.305 . S
O110 Zn104 1.920 . S
O110 C123 1.234 . S
C111 O116 1.167 . S
C111 O117 1.299 . S
O112 Zn106 2.114 . S
O112 C107 1.166 . S
O113 Zn105 1.905 . S
O113 C107 1.182 . S
O114 Zn105 1.898 . S
O114 C108 1.167 . S
O115 Zn106 2.120 . S
O115 C108 1.299 . S
O116 Zn104 1.898 . S
O116 C111 1.167 . S
O117 Zn106 2.120 . S
O117 C111 1.299 . S
O118 Zn106 2.114 . S
O118 C120 1.166 . S
O119 Zn104 1.905 . S
O119 C120 1.182 . S
C120 O118 1.166 . S
C120 O119 1.182 . S
O121 Zn106 2.080 . S
O121 C124 1.305 1_455 S
O122 Zn105 1.920 1_655 S
O122 C124 1.234 . S
C123 O109 1.305 . S
C123 O110 1.234 . S
C124 O121 1.305 1_655 S
C124 O122 1.234 . S
Zn125 O131 1.920 . S
Zn125 O137 1.898 . S
Zn125 O140 1.905 . S
Zn126 O134 1.905 . S
Zn126 O135 1.898 . S
Zn126 O143 1.920 . S
Zn127 O130 2.080 . S
Zn127 O133 2.114 . S
Zn127 O136 2.120 . S
Zn127 O138 2.120 . S
Zn127 O139 2.114 . S
Zn127 O142 2.080 . S
C128 O133 1.166 . S
C128 O134 1.182 . S
C129 O135 1.167 . S
C129 O136 1.299 . S
O130 Zn127 2.080 . S
O130 C144 1.305 . S
O131 Zn125 1.920 . S
O131 C144 1.234 . S
C132 O137 1.167 . S
C132 O138 1.299 . S
O133 Zn127 2.114 . S
O133 C128 1.166 . S
O134 Zn126 1.905 . S
O134 C128 1.182 . S
O135 Zn126 1.898 . S
O135 C129 1.167 . S
O136 Zn127 2.120 . S
O136 C129 1.299 . S
O137 Zn125 1.898 . S
O137 C132 1.167 . S
O138 Zn127 2.120 . S
O138 C132 1.299 . S
O139 Zn127 2.114 . S
O139 C141 1.166 . S
O140 Zn125 1.905 . S
O140 C141 1.182 . S
C141 O139 1.166 . S
C141 O140 1.182 . S
O142 Zn127 2.080 . S
O142 C145 1.305 . S
O143 Zn126 1.920 . S
O143 C145 1.234 . S
C144 O130 1.305 . S
C144 O131 1.234 . S
C145 O142 1.305 . S
C145 O143 1.234 . S
Zn146 O152 1.920 . S
Zn146 O158 1.898 . S
Zn146 O161 1.905 . S
Zn147 O155 1.905 . S
Zn147 O156 1.898 . S
Zn147 O164 1.920 . S
Zn148 O151 2.080 . S
Zn148 O154 2.114 . S
Zn148 O157 2.120 . S
Zn148 O159 2.120 . S
Zn148 O160 2.114 . S
Zn148 O163 2.080 . S
C149 O154 1.166 . S
C149 O155 1.182 . S
C150 O156 1.167 . S
C150 O157 1.299 . S
O151 Zn148 2.080 . S
O151 C165 1.305 . S
O152 Zn146 1.920 . S
O152 C165 1.234 . S
C153 O158 1.167 . S
C153 O159 1.299 . S
O154 Zn148 2.114 . S
O154 C149 1.166 . S
O155 Zn147 1.905 . S
O155 C149 1.182 . S
O156 Zn147 1.898 . S
O156 C150 1.167 . S
O157 Zn148 2.120 . S
O157 C150 1.299 . S
O158 Zn146 1.898 . S
O158 C153 1.167 . S
O159 Zn148 2.120 . S
O159 C153 1.299 . S
O160 Zn148 2.114 . S
O160 C162 1.166 . S
O161 Zn146 1.905 . S
O161 C162 1.182 . S
C162 O160 1.166 . S
C162 O161 1.182 . S
O163 Zn148 2.080 . S
O163 C166 1.305 . S
O164 Zn147 1.920 . S
O164 C166 1.234 . S
C165 O151 1.305 . S
C165 O152 1.234 . S
C166 O163 1.305 . S
C166 O164 1.234 . S
Zn167 O173 1.917 1_655 S
Zn167 O179 1.897 1_655 S
Zn167 O182 1.908 . S
Zn168 O176 1.905 . S
Zn168 O177 1.898 . S
Zn168 O185 1.920 . S
Zn169 O172 2.080 . S
Zn169 O175 2.114 . S
Zn169 O178 2.120 . S
Zn169 O180 2.120 . S
Zn169 O181 2.114 . S
Zn169 O184 2.080 . S
C170 O175 1.166 . S
C170 O176 1.182 . S
C171 O177 1.167 . S
C171 O178 1.299 . S
O172 Zn169 2.080 . S
O172 C186 1.305 . S
O173 Zn167 1.917 1_455 S
O173 C186 1.234 . S
C174 O179 1.167 . S
C174 O180 1.299 . S
O175 Zn169 2.114 . S
O175 C170 1.166 . S
O176 Zn168 1.905 . S
O176 C170 1.182 . S
O177 Zn168 1.898 . S
O177 C171 1.167 . S
O178 Zn169 2.120 . S
O178 C171 1.299 . S
O179 Zn167 1.897 1_455 S
O179 C174 1.167 . S
O180 Zn169 2.120 . S
O180 C174 1.299 . S
O181 Zn169 2.114 . S
O181 C183 1.166 1_455 S
O182 Zn167 1.908 . S
O182 C183 1.182 . S
C183 O181 1.166 1_655 S
C183 O182 1.182 . S
O184 Zn169 2.080 . S
O184 C187 1.305 . S
O185 Zn168 1.920 . S
O185 C187 1.234 . S
C186 O172 1.305 . S
C186 O173 1.234 . S
C187 O184 1.305 . S
C187 O185 1.234 . S
C188 C189 1.387 . S
C188 H192 0.950 . S
C188 C197 1.390 . S
C189 C188 1.387 . S
C189 C191 1.387 . S
H190 C197 0.950 . S
C191 C189 1.387 . S
C191 C193 1.390 . S
C191 H195 0.950 . S
H192 C188 0.950 . S
C193 C191 1.390 . S
C193 C194 1.387 . S
C193 H196 0.950 . S
C194 C193 1.387 . S
C194 C197 1.387 . S
H195 C191 0.950 . S
H196 C193 0.950 . S
C197 C188 1.390 . S
C197 H190 0.950 . S
C197 C194 1.387 . S
C198 C199 1.387 . S
C198 H202 0.950 . S
C198 C207 1.390 . S
C199 C198 1.387 . S
C199 C201 1.387 . S
H200 C207 0.950 . S
C201 C199 1.387 . S
C201 C203 1.390 . S
C201 H205 0.950 . S
H202 C198 0.950 . S
C203 C201 1.390 . S
C203 C204 1.387 . S
C203 H206 0.950 . S
C204 C203 1.387 . S
C204 C207 1.387 . S
H205 C201 0.950 . S
H206 C203 0.950 . S
C207 C198 1.390 . S
C207 H200 0.950 . S
C207 C204 1.387 . S
C208 C209 1.387 . S
C208 H212 0.950 . S
C208 C217 1.390 . S
C209 C208 1.387 . S
C209 C211 1.387 . S
H210 C217 0.950 . S
C211 C209 1.387 . S
C211 C213 1.390 . S
C211 H215 0.950 . S
H212 C208 0.950 . S
C213 C211 1.390 . S
C213 C214 1.387 . S
C213 H216 0.950 . S
C214 C213 1.387 . S
C214 C217 1.387 . S
H215 C211 0.950 . S
H216 C213 0.950 . S
C217 C208 1.390 . S
C217 H210 0.950 . S
C217 C214 1.387 . S
C218 C219 1.387 . S
C218 H222 0.950 . S
C218 C227 1.390 . S
C219 C218 1.387 . S
C219 C221 1.387 . S
H220 C227 0.950 . S
C221 C219 1.387 . S
C221 C223 1.390 . S
C221 H225 0.950 . S
H222 C218 0.950 . S
C223 C221 1.390 . S
C223 C224 1.387 . S
C223 H226 0.950 . S
C224 C223 1.387 . S
C224 C227 1.387 . S
H225 C221 0.950 . S
H226 C223 0.950 . S
C227 C218 1.390 . S
C227 H220 0.950 . S
C227 C224 1.387 . S
C228 C229 1.387 . S
C228 H232 0.950 . S
C228 C237 1.390 . S
C229 C228 1.387 . S
C229 C231 1.387 . S
H230 C237 0.950 . S
C231 C229 1.387 . S
C231 C233 1.390 . S
C231 H235 0.950 . S
H232 C228 0.950 . S
C233 C231 1.390 . S
C233 C234 1.387 . S
C233 H236 0.950 . S
C234 C233 1.387 . S
C234 C237 1.387 . S
H235 C231 0.950 . S
H236 C233 0.950 . S
C237 C228 1.390 . S
C237 H230 0.950 . S
C237 C234 1.387 . S
C238 C239 1.387 . S
C238 H242 0.950 . S
C238 C247 1.390 . S
C239 C238 1.387 . S
C239 C241 1.387 . S
H240 C247 0.950 . S
C241 C239 1.387 . S
C241 C243 1.390 . S
C241 H245 0.950 . S
H242 C238 0.950 . S
C243 C241 1.390 . S
C243 C244 1.387 . S
C243 H246 0.950 . S
C244 C243 1.387 . S
C244 C247 1.387 . S
H245 C241 0.950 . S
H246 C243 0.950 . S
C247 C238 1.390 . S
C247 H240 0.950 . S
C247 C244 1.387 . S
C248 C249 1.387 . S
C248 H252 0.950 . S
C248 C257 1.390 . S
C249 C248 1.387 . S
C249 C251 1.387 . S
H250 C257 0.950 . S
C251 C249 1.387 . S
C251 C253 1.390 . S
C251 H255 0.950 . S
H252 C248 0.950 . S
C253 C251 1.390 . S
C253 C254 1.387 . S
C253 H256 0.950 . S
C254 C253 1.387 . S
C254 C257 1.387 . S
H255 C251 0.950 . S
H256 C253 0.950 . S
C257 C248 1.390 . S
C257 H250 0.950 . S
C257 C254 1.387 . S
C258 C259 1.387 . S
C258 H262 0.950 . S
C258 C267 1.390 . S
C259 C258 1.387 . S
C259 C261 1.387 . S
H260 C267 0.950 . S
C261 C259 1.387 . S
C261 C263 1.390 . S
C261 H265 0.950 . S
H262 C258 0.950 . S
C263 C261 1.390 . S
C263 C264 1.387 . S
C263 H266 0.950 . S
C264 C263 1.387 . S
C264 C267 1.387 . S
H265 C261 0.950 . S
H266 C263 0.950 . S
C267 C258 1.390 . S
C267 H260 0.950 . S
C267 C264 1.387 . S
C268 C269 1.387 . S
C268 H272 0.950 . S
C268 C277 1.390 . S
C269 C268 1.387 . S
C269 C271 1.387 . S
H270 C277 0.950 . S
C271 C269 1.387 . S
C271 C273 1.390 . S
C271 H275 0.950 . S
H272 C268 0.950 . S
C273 C271 1.390 . S
C273 C274 1.387 . S
C273 H276 0.950 . S
C274 C273 1.387 . S
C274 C277 1.387 . S
H275 C271 0.950 . S
H276 C273 0.950 . S
C277 C268 1.390 . S
C277 H270 0.950 . S
C277 C274 1.387 . S
C278 C279 1.387 . S
C278 H282 0.950 . S
C278 C287 1.390 . S
C279 C278 1.387 . S
C279 C281 1.387 . S
H280 C287 0.950 . S
C281 C279 1.387 . S
C281 C283 1.390 . S
C281 H285 0.950 . S
H282 C278 0.950 . S
C283 C281 1.390 . S
C283 C284 1.387 . S
C283 H286 0.950 . S
C284 C283 1.387 . S
C284 C287 1.387 . S
H285 C281 0.950 . S
H286 C283 0.950 . S
C287 C278 1.390 . S
C287 H280 0.950 . S
C287 C284 1.387 . S
C288 C289 1.387 . S
C288 H292 0.950 . S
C288 C297 1.390 . S
C289 C288 1.387 . S
C289 C291 1.387 . S
H290 C297 0.950 . S
C291 C289 1.387 . S
C291 C293 1.390 . S
C291 H295 0.950 . S
H292 C288 0.950 . S
C293 C291 1.390 . S
C293 C294 1.387 . S
C293 H296 0.950 . S
C294 C293 1.387 . S
C294 C297 1.387 . S
H295 C291 0.950 . S
H296 C293 0.950 . S
C297 C288 1.390 . S
C297 H290 0.950 . S
C297 C294 1.387 . S
C298 C299 1.387 . S
C298 H302 0.950 . S
C298 C307 1.390 . S
C299 C298 1.387 . S
C299 C301 1.387 . S
H300 C307 0.950 . S
C301 C299 1.387 . S
C301 C303 1.390 . S
C301 H305 0.950 . S
H302 C298 0.950 . S
C303 C301 1.390 . S
C303 C304 1.387 . S
C303 H306 0.950 . S
C304 C303 1.387 . S
C304 C307 1.387 . S
H305 C301 0.950 . S
H306 C303 0.950 . S
C307 C298 1.390 . S
C307 H300 0.950 . S
C307 C304 1.387 . S
C308 C309 1.387 . S
C308 H312 0.950 . S
C308 C317 1.390 . S
C309 C308 1.387 . S
C309 C311 1.387 . S
H310 C317 0.950 1_545 S
C311 C309 1.387 . S
C311 C313 1.390 1_565 S
C311 H315 0.950 . S
H312 C308 0.950 . S
C313 C311 1.390 1_545 S
C313 C314 1.387 . S
C313 H316 0.950 . S
C314 C313 1.387 . S
C314 C317 1.387 1_545 S
H315 C311 0.950 . S
H316 C313 0.950 . S
C317 C308 1.390 . S
C317 H310 0.950 1_565 S
C317 C314 1.387 1_565 S
C318 C319 1.387 . S
C318 H322 0.950 . S
C318 C327 1.390 . S
C319 C318 1.387 . S
C319 C321 1.387 . S
H320 C327 0.950 . S
C321 C319 1.387 . S
C321 C323 1.390 . S
C321 H325 0.950 . S
H322 C318 0.950 . S
C323 C321 1.390 . S
C323 C324 1.387 . S
C323 H326 0.950 1_545 S
C324 C323 1.387 . S
C324 C327 1.387 . S
H325 C321 0.950 . S
H326 C323 0.950 1_565 S
C327 C318 1.390 . S
C327 H320 0.950 . S
C327 C324 1.387 . S
C328 C329 1.387 . S
C328 H332 0.950 . S
C328 C337 1.390 1_545 S
C329 C328 1.387 . S
C329 C331 1.387 . S
H330 C337 0.950 . S
C331 C329 1.387 . S
C331 C333 1.390 1_545 S
C331 H335 0.950 . S
H332 C328 0.950 . S
C333 C331 1.390 1_565 S
C333 C334 1.387 . S
C333 H336 0.950 . S
C334 C333 1.387 . S
C334 C337 1.387 . S
H335 C331 0.950 . S
H336 C333 0.950 . S
C337 C328 1.390 1_565 S
C337 H330 0.950 . S
C337 C334 1.387 . S
C338 C339 1.387 . S
C338 H342 0.950 . S
C338 C347 1.390 . S
C339 C338 1.387 . S
C339 C341 1.387 . S
H340 C347 0.950 . S
C341 C339 1.387 . S
C341 C343 1.390 . S
C341 H345 0.950 . S
H342 C338 0.950 . S
C343 C341 1.390 . S
C343 C344 1.387 . S
C343 H346 0.950 . S
C344 C343 1.387 . S
C344 C347 1.387 . S
H345 C341 0.950 . S
H346 C343 0.950 . S
C347 C338 1.390 . S
C347 H340 0.950 . S
C347 C344 1.387 . S
C348 C349 1.387 . S
C348 H352 0.950 . S
C348 C357 1.390 1_554 S
C349 C348 1.387 . S
C349 C351 1.387 . S
H350 C357 0.950 . S
C351 C349 1.387 . S
C351 C353 1.390 1_554 S
C351 H355 0.950 . S
H352 C348 0.950 . S
C353 C351 1.390 1_556 S
C353 C354 1.387 . S
C353 H356 0.950 . S
C354 C353 1.387 . S
C354 C357 1.387 . S
H355 C351 0.950 . S
H356 C353 0.950 . S
C357 C348 1.390 1_556 S
C357 H350 0.950 . S
C357 C354 1.387 . S
C358 C359 1.387 . S
C358 H362 0.950 . S
C358 C367 1.390 . S
C359 C358 1.387 . S
C359 C361 1.387 . S
H360 C367 0.950 . S
C361 C359 1.387 . S
C361 C363 1.390 . S
C361 H365 0.950 . S
H362 C358 0.950 . S
C363 C361 1.390 . S
C363 C364 1.387 . S
C363 H366 0.950 . S
C364 C363 1.387 . S
C364 C367 1.387 . S
H365 C361 0.950 . S
H366 C363 0.950 . S
C367 C358 1.390 . S
C367 H360 0.950 . S
C367 C364 1.387 . S
C368 C369 1.387 . S
C368 H372 0.950 . S
C368 C377 1.390 . S
C369 C368 1.387 . S
C369 C371 1.387 . S
H370 C377 0.950 . S
C371 C369 1.387 . S
C371 C373 1.390 . S
C371 H375 0.950 . S
H372 C368 0.950 . S
C373 C371 1.390 . S
C373 C374 1.387 . S
C373 H376 0.950 . S
C374 C373 1.387 . S
C374 C377 1.387 . S
H375 C371 0.950 . S
H376 C373 0.950 . S
C377 C368 1.390 . S
C377 H370 0.950 . S
C377 C374 1.387 . S
C378 C379 1.387 . S
C378 H382 0.950 . S
C378 C387 1.390 . S
C379 C378 1.387 . S
C379 C381 1.387 . S
H380 C387 0.950 . S
C381 C379 1.387 . S
C381 C383 1.390 . S
C381 H385 0.950 . S
H382 C378 0.950 . S
C383 C381 1.390 . S
C383 C384 1.387 . S
C383 H386 0.950 . S
C384 C383 1.387 . S
C384 C387 1.387 . S
H385 C381 0.950 . S
H386 C383 0.950 . S
C387 C378 1.390 . S
C387 H380 0.950 . S
C387 C384 1.387 . S
C388 C389 1.387 . S
C388 H392 0.950 . S
C388 C397 1.390 1_556 S
C389 C388 1.387 . S
C389 C391 1.387 . S
H390 C397 0.950 . S
C391 C389 1.387 . S
C391 C393 1.390 1_556 S
C391 H395 0.950 . S
H392 C388 0.950 . S
C393 C391 1.390 1_554 S
C393 C394 1.387 . S
C393 H396 0.950 . S
C394 C393 1.387 . S
C394 C397 1.387 . S
H395 C391 0.950 . S
H396 C393 0.950 . S
C397 C388 1.390 1_554 S
C397 H390 0.950 . S
C397 C394 1.387 . S
C398 C399 1.387 . S
C398 H402 0.950 . S
C398 C407 1.390 . S
C399 C398 1.387 . S
C399 C401 1.387 . S
H400 C407 0.950 . S
C401 C399 1.387 . S
C401 C403 1.390 . S
C401 H405 0.950 . S
H402 C398 0.950 . S
C403 C401 1.390 . S
C403 C404 1.387 . S
C403 H406 0.950 . S
C404 C403 1.387 . S
C404 C407 1.387 . S
H405 C401 0.950 . S
H406 C403 0.950 . S
C407 C398 1.390 . S
C407 H400 0.950 . S
C407 C404 1.387 . S
C408 C409 1.387 . S
C408 H412 0.950 . S
C408 C417 1.390 . S
C409 C408 1.387 . S
C409 C411 1.387 . S
H410 C417 0.950 . S
C411 C409 1.387 . S
C411 C413 1.390 . S
C411 H415 0.950 . S
H412 C408 0.950 . S
C413 C411 1.390 . S
C413 C414 1.387 . S
C413 H416 0.950 . S
C414 C413 1.387 . S
C414 C417 1.387 . S
H415 C411 0.950 . S
H416 C413 0.950 . S
C417 C408 1.390 . S
C417 H410 0.950 . S
C417 C414 1.387 . S
C418 C419 1.387 . S
C418 H422 0.950 . S
C418 C427 1.390 . S
C419 C418 1.387 . S
C419 C421 1.387 . S
H420 C427 0.950 . S
C421 C419 1.387 . S
C421 C423 1.390 . S
C421 H425 0.950 . S
H422 C418 0.950 . S
C423 C421 1.390 . S
C423 C424 1.387 . S
C423 H426 0.950 . S
C424 C423 1.387 . S
C424 C427 1.387 . S
H425 C421 0.950 . S
H426 C423 0.950 . S
C427 C418 1.390 . S
C427 H420 0.950 . S
C427 C424 1.387 . S
C194 C111 1.464 . S
C189 N2 1.585 . S
C204 C129 1.182 . S
C199 N15 1.270 1_655 S
C209 N27 1.396 . S
C214 C153 1.278 . S
C224 C183 1.478 . S
C219 N40 1.678 . S
C234 C171 1.329 . S
C229 N54 1.456 . S
C239 N66 1.669 . S
C244 C124 1.596 . S
C249 N79 1.533 . S
C254 C144 1.403 . S
C259 N93 1.298 1_655 S
C264 C149 1.167 . S
C269 N92 1.661 . S
C274 C165 1.589 . S
C279 N67 1.304 . S
C284 C120 1.166 . S
C294 C187 1.194 . S
C289 N41 1.277 . S
C304 C132 1.459 . S
C299 N14 1.668 . S
C309 N28 1.578 . S
C314 C150 1.454 . S
C319 N1 1.402 . S
C324 C108 1.284 1_545 S
C334 C128 1.338 . S
C329 N80 1.464 . S
C344 C174 1.397 1_565 S
C339 N53 1.533 . S
C354 C170 1.318 . S
C349 N5 1.598 . S
C364 C123 1.365 . S
C359 N18 1.463 . S
C369 N31 1.589 . S
C374 C145 1.302 . S
C379 N44 1.482 . S
C384 C166 1.382 . S
C394 C107 1.374 . S
C389 N57 1.481 . S
C399 N70 1.566 . S
C404 C141 1.541 . S
C414 C162 1.390 . S
C409 N83 1.498 . S
C424 C186 1.523 . S
C419 N96 1.548 . S
