# Generated by pormake.
# Topology pyr, (3,6)-cn, num edge types: 1
# Building blocks:
#     Node 0, Type 0, BuildingBlock: ESEHIV_clean_linker_0, # of connection points: 3
#     Node 1, Type 0, BuildingBlock: ESEHIV_clean_linker_0, # of connection points: 3
#     Node 2, Type 0, BuildingBlock: ESEHIV_clean_linker_0, # of connection points: 3
#     Node 3, Type 0, BuildingBlock: ESEHIV_clean_linker_0, # of connection points: 3
#     Node 4, Type 0, BuildingBlock: ESEHIV_clean_linker_0, # of connection points: 3
#     Node 5, Type 0, BuildingBlock: ESEHIV_clean_linker_0, # of connection points: 3
#     Node 6, Type 0, BuildingBlock: ESEHIV_clean_linker_0, # of connection points: 3
#     Node 7, Type 0, BuildingBlock: ESEHIV_clean_linker_0, # of connection points: 3
#     Node 8, Type 1, BuildingBlock: VOLQOD_clean_sbu_1, # of connection points: 6
#     Node 9, Type 1, BuildingBlock: VOLQOD_clean_sbu_1, # of connection points: 6
#     Node 10, Type 1, BuildingBlock: VOLQOD_clean_sbu_1, # of connection points: 6
#     Node 11, Type 1, BuildingBlock: VOLQOD_clean_sbu_1, # of connection points: 6
#     Edge 12, Type (0, 1), BuildingBlock: EZIPEK_clean_linker_0, # of connection points: 2
#     Edge 13, Type (0, 1), BuildingBlock: EZIPEK_clean_linker_0, # of connection points: 2
#     Edge 14, Type (0, 1), BuildingBlock: EZIPEK_clean_linker_0, # of connection points: 2
#     Edge 15, Type (0, 1), BuildingBlock: EZIPEK_clean_linker_0, # of connection points: 2
#     Edge 16, Type (0, 1), BuildingBlock: EZIPEK_clean_linker_0, # of connection points: 2
#     Edge 17, Type (0, 1), BuildingBlock: EZIPEK_clean_linker_0, # of connection points: 2
#     Edge 18, Type (0, 1), BuildingBlock: EZIPEK_clean_linker_0, # of connection points: 2
#     Edge 19, Type (0, 1), BuildingBlock: EZIPEK_clean_linker_0, # of connection points: 2
#     Edge 20, Type (0, 1), BuildingBlock: EZIPEK_clean_linker_0, # of connection points: 2
#     Edge 21, Type (0, 1), BuildingBlock: EZIPEK_clean_linker_0, # of connection points: 2
#     Edge 22, Type (0, 1), BuildingBlock: EZIPEK_clean_linker_0, # of connection points: 2
#     Edge 23, Type (0, 1), BuildingBlock: EZIPEK_clean_linker_0, # of connection points: 2
#     Edge 24, Type (0, 1), BuildingBlock: EZIPEK_clean_linker_0, # of connection points: 2
#     Edge 25, Type (0, 1), BuildingBlock: EZIPEK_clean_linker_0, # of connection points: 2
#     Edge 26, Type (0, 1), BuildingBlock: EZIPEK_clean_linker_0, # of connection points: 2
#     Edge 27, Type (0, 1), BuildingBlock: EZIPEK_clean_linker_0, # of connection points: 2
#     Edge 28, Type (0, 1), BuildingBlock: EZIPEK_clean_linker_0, # of connection points: 2
#     Edge 29, Type (0, 1), BuildingBlock: EZIPEK_clean_linker_0, # of connection points: 2
#     Edge 30, Type (0, 1), BuildingBlock: EZIPEK_clean_linker_0, # of connection points: 2
#     Edge 31, Type (0, 1), BuildingBlock: EZIPEK_clean_linker_0, # of connection points: 2
#     Edge 32, Type (0, 1), BuildingBlock: EZIPEK_clean_linker_0, # of connection points: 2
#     Edge 33, Type (0, 1), BuildingBlock: EZIPEK_clean_linker_0, # of connection points: 2
#     Edge 34, Type (0, 1), BuildingBlock: EZIPEK_clean_linker_0, # of connection points: 2
#     Edge 35, Type (0, 1), BuildingBlock: EZIPEK_clean_linker_0, # of connection points: 2
# Relax obj value: 0.035
# Max RMSD: 0.118
# Mean RMSD: 0.043
data_MOF--net-pry--node1-VOLQOD_clean_sbu_1--node2-ESEHIV_clean_linker_0--edge1-EZIPEK_clean_linker_0
_symmetry_space_group_name_H-M    P1
_symmetry_Int_Tables_number       1
_symmetry_cell_setting            triclinic
loop_
_symmetry_equiv_pos_as_xyz
'x, y, z'
_cell_length_a     25.693452
_cell_length_b     25.75556
_cell_length_c     25.883322
_cell_angle_alpha  90.115505
_cell_angle_beta   89.566253
_cell_angle_gamma 90.010409
loop_
_atom_site_label
_atom_site_type_symbol
_atom_site_fract_x
_atom_site_fract_y
_atom_site_fract_z
_atom_type_partial_charge
H0 H 0.05503 0.17053 0.16852 0.0
H1 H 0.1755 0.05446 0.16897 0.0
H2 H 0.17467 0.17239 0.05158 0.0
C3 C 0.08867 0.15254 0.15034 0.0
C4 C 0.11155 0.17571 0.10687 0.0
C5 C 0.11166 0.10883 0.17305 0.0
C6 C 0.15657 0.08716 0.15065 0.0
C7 C 0.17878 0.10947 0.10632 0.0
C8 C 0.15609 0.15363 0.08434 0.0
H9 H 0.35483 0.96543 0.66886 0.0
H10 H 0.46392 0.83898 0.66211 0.0
H11 H 0.34149 0.84887 0.55038 0.0
C12 C 0.37024 0.93151 0.64911 0.0
C13 C 0.3441 0.91113 0.60622 0.0
C14 C 0.41335 0.90544 0.66936 0.0
C15 C 0.43183 0.86026 0.64528 0.0
C16 C 0.40617 0.84014 0.60212 0.0
C17 C 0.36269 0.86584 0.58232 0.0
H18 H 0.6589 0.34394 0.95895 0.0
H19 H 0.66717 0.46391 0.84384 0.0
H20 H 0.54572 0.34926 0.83767 0.0
C21 C 0.64205 0.36376 0.92615 0.0
C22 C 0.59826 0.34289 0.90183 0.0
C23 C 0.66669 0.40769 0.90554 0.0
C24 C 0.64676 0.43141 0.86121 0.0
C25 C 0.60282 0.4106 0.83704 0.0
C26 C 0.57822 0.36678 0.85777 0.0
H27 H 0.85943 0.66962 0.47312 0.0
H28 H 0.95734 0.64796 0.34198 0.0
H29 H 0.83508 0.53889 0.3717 0.0
C30 C 0.87043 0.64482 0.44171 0.0
C31 C 0.84484 0.59738 0.43176 0.0
C32 C 0.91108 0.66292 0.41006 0.0
C33 C 0.92621 0.63399 0.36685 0.0
C34 C 0.89788 0.59003 0.35275 0.0
C35 C 0.85764 0.57181 0.38486 0.0
H36 H 0.85952 0.97861 0.85615 0.0
H37 H 0.95626 0.84472 0.85052 0.0
H38 H 0.86133 0.87028 0.98369 0.0
C39 C 0.87571 0.9464 0.87708 0.0
C40 C 0.85939 0.93404 0.92807 0.0
C41 C 0.91119 0.91506 0.84992 0.0
C42 C 0.92983 0.86955 0.87213 0.0
C43 C 0.91182 0.85429 0.9207 0.0
C44 C 0.87681 0.88594 0.94815 0.0
H45 H 0.53899 0.14605 0.34466 0.0
H46 H 0.65987 0.03181 0.36124 0.0
H47 H 0.65517 0.16436 0.46195 0.0
C48 C 0.57202 0.13082 0.36561 0.0
C49 C 0.59277 0.15942 0.4068 0.0
C50 C 0.5968 0.08542 0.34822 0.0
C51 C 0.6399 0.06626 0.37515 0.0
C52 C 0.66121 0.09505 0.41576 0.0
C53 C 0.63735 0.14121 0.43183 0.0
H54 H 0.3579 0.66952 0.0424 0.0
H55 H 0.34298 0.55506 0.16244 0.0
H56 H 0.4804 0.64933 0.15309 0.0
C57 C 0.37457 0.6485 0.07454 0.0
C58 C 0.42287 0.66386 0.09451 0.0
C59 C 0.34578 0.60884 0.0986 0.0
C60 C 0.36612 0.58382 0.14207 0.0
C61 C 0.4148 0.59793 0.16126 0.0
C62 C 0.44376 0.63686 0.13662 0.0
H63 H 0.0359 0.35164 0.67243 0.0
H64 H 0.14558 0.34594 0.5465 0.0
H65 H 0.16473 0.45805 0.6685 0.0
C66 C 0.06921 0.36799 0.65226 0.0
C67 C 0.09653 0.40959 0.6742 0.0
C68 C 0.08752 0.34443 0.60687 0.0
C69 C 0.13112 0.36479 0.58126 0.0
C70 C 0.1596 0.40551 0.60356 0.0
C71 C 0.14209 0.42774 0.65015 0.0
O72 O 0.98383 0.11591 0.56389 0.0
Zn73 Zn 0.95729 0.04342 0.55319 0.0
O74 O 0.00349 0.00408 0.50718 0.0
Zn75 Zn 0.96521 0.98397 0.44549 0.0
Zn76 Zn 0.06342 0.04625 0.48781 0.0
Zn77 Zn 0.02868 0.94219 0.54207 0.0
O78 O 0.95874 0.90634 0.44114 0.0
O79 O 0.01089 0.87767 0.50278 0.0
O80 O 0.88553 0.0502 0.52414 0.0
O81 O 0.89287 0.01245 0.44705 0.0
O82 O -0.00012 0.01145 0.38069 0.0
O83 O 0.07005 0.05135 0.41115 0.0
O84 O 0.13063 0.01845 0.51602 0.0
O85 O 0.95092 0.00906 0.62229 0.0
O86 O 0.10569 0.94361 0.55062 0.0
O87 O -0.00209 0.93684 0.61374 0.0
C88 C 0.02276 0.14006 0.54517 0.0
C89 C 0.98041 0.86918 0.46522 0.0
C90 C 0.04174 0.03705 0.37359 0.0
C91 C 0.86638 0.03656 0.48109 0.0
C92 C 0.14096 0.97637 0.53939 0.0
C93 C 0.96863 0.96674 0.64027 0.0
O94 O 0.05574 0.11826 0.51543 0.0
O95 O 0.49653 0.11427 0.9454 0.0
Zn96 Zn 0.4685 0.04281 0.95862 0.0
O97 O 0.51461 0.00367 0.00351 0.0
Zn98 Zn 0.54851 0.94698 0.96563 0.0
Zn99 Zn 0.56643 0.0501 0.03175 0.0
Zn100 Zn 0.4742 0.97518 0.06018 0.0
O101 O 0.53144 0.87717 -0.00257 0.0
O102 O 0.46873 0.89872 0.05313 0.0
O103 O 0.46159 0.00681 0.89045 0.0
O104 O 0.52152 0.9442 0.89287 0.0
O105 O 0.62661 0.95598 0.9643 0.0
O106 O 0.63839 0.02622 0.01318 0.0
O107 O 0.56195 0.05333 0.10863 0.0
O108 O 0.39758 0.05209 0.99085 0.0
O109 O 0.50728 0.9897 0.12896 0.0
O110 O 0.40257 0.00578 0.06312 0.0
C111 C 0.53177 0.1405 0.96773 0.0
C112 C 0.49568 0.86467 0.0294 0.0
C113 C 0.65619 0.98916 0.9858 0.0
C114 C 0.48636 0.96951 0.86937 0.0
C115 C 0.53931 0.02489 0.14206 0.0
C116 C 0.37762 0.03518 0.03268 0.0
O117 O 0.56008 0.12143 0.00292 0.0
O118 O 0.54514 0.5176 0.61765 0.0
Zn119 Zn 0.53987 0.54721 0.54652 0.0
O120 O 0.50077 0.50185 0.50079 0.0
Zn121 Zn 0.54538 0.48114 0.44278 0.0
Zn122 Zn 0.47787 0.44131 0.53912 0.0
Zn123 Zn 0.43903 0.53699 0.47556 0.0
O124 O 0.51705 0.50725 0.37513 0.0
O125 O 0.44103 0.54135 0.39894 0.0
O126 O 0.61352 0.5551 0.5221 0.0
O127 O 0.61791 0.50927 0.44945 0.0
O128 O 0.55094 0.40346 0.44 0.0
O129 O 0.49659 0.37588 0.50128 0.0
O130 O 0.40095 0.44161 0.55065 0.0
O131 O 0.50684 0.61736 0.55167 0.0
O132 O 0.37235 0.50176 0.49671 0.0
O133 O 0.43572 0.60971 0.50349 0.0
C134 C 0.53396 0.47308 0.63561 0.0
C135 C 0.47427 0.52947 0.36423 0.0
C136 C 0.52823 0.36682 0.4643 0.0
C137 C 0.63903 0.53799 0.48336 0.0
C138 C 0.3638 0.46609 0.52957 0.0
C139 C 0.46546 0.63608 0.53257 0.0
O140 O 0.51082 0.43879 0.60887 0.0
O141 O 0.94292 0.48811 0.12339 0.0
Zn142 Zn 0.95805 0.46189 0.05157 0.0
O143 O 0.00075 0.51143 0.0126 0.0
Zn144 Zn 0.96266 0.53521 0.95215 0.0
Zn145 Zn 0.01915 0.57014 0.05669 0.0
Zn146 Zn 0.06445 0.47815 0.98905 0.0
O147 O 0.99523 0.51051 0.8854 0.0
O148 O 0.06651 0.47069 0.91266 0.0
O149 O 0.8891 0.4504 0.01741 0.0
O150 O 0.89039 0.50653 0.95211 0.0
O151 O 0.95742 0.6126 0.95176 0.0
O152 O 0.99377 0.63739 0.02569 0.0
O153 O 0.09693 0.57515 0.0664 0.0
O154 O 0.99438 0.3931 0.05816 0.0
O155 O 0.12766 0.51761 0.00999 0.0
O156 O 0.07041 0.40653 0.01852 0.0
C157 C 0.95706 0.52874 0.14752 0.0
C158 C 0.03669 0.48497 0.87644 0.0
C159 C 0.97058 0.64785 0.98364 0.0
C160 C 0.86737 0.47237 0.97926 0.0
C161 C 0.13494 0.55322 0.04321 0.0
C162 C 0.03921 0.37761 0.04373 0.0
O163 O 0.98587 0.56311 0.12667 0.0
C164 C 0.07251 0.03857 0.22895 0.0
C165 C 0.09233 0.08977 0.2238 0.0
C166 C 0.06883 0.10796 0.31361 0.0
C167 C 0.05624 0.05485 0.32102 0.0
N168 N 0.05438 0.96728 0.28726 0.0
N169 N 0.12109 0.16887 0.26531 0.0
C170 C 0.06008 0.01937 0.27906 0.0
C171 C 0.09386 0.1233 0.2673 0.0
N172 N 0.06441 0.00877 0.18603 0.0
N173 N 0.05517 0.14426 0.34988 0.0
H174 H 0.14238 0.18055 0.23293 0.0
H175 H 0.12726 0.1921 0.29771 0.0
H176 H 0.03404 0.13523 0.38325 0.0
H177 H 0.05944 0.18404 0.34385 0.0
H178 H 0.04523 0.97314 0.18716 0.0
H179 H 0.0725 0.0218 0.14869 0.0
H180 H 0.06203 0.93946 0.25893 0.0
H181 H 0.04685 0.95142 0.32357 0.0
C182 C 0.41322 0.89684 0.76545 0.0
C183 C 0.43387 0.92084 0.72038 0.0
C184 C 0.49326 0.97288 0.77303 0.0
C185 C 0.46983 0.95166 0.81804 0.0
N186 N 0.40487 0.89765 0.85884 0.0
N187 N 0.48988 0.98403 0.67989 0.0
C188 C 0.42919 0.91463 0.81474 0.0
C189 C 0.47302 0.95951 0.72375 0.0
N190 N 0.37891 0.85644 0.761 0.0
N191 N 0.53534 0.00506 0.77762 0.0
H192 H 0.47703 0.97387 0.64308 0.0
H193 H 0.51422 0.01631 0.67985 0.0
H194 H 0.55031 0.01635 0.81329 0.0
H195 H 0.55763 0.01796 0.74648 0.0
H196 H 0.36729 0.83313 0.79178 0.0
H197 H 0.36429 0.84367 0.72576 0.0
H198 H 0.37087 0.8757 0.85909 0.0
H199 H 0.4168 0.90817 0.89586 0.0
C200 C 0.54812 0.468 0.78146 0.0
C201 C 0.58721 0.42945 0.78559 0.0
C202 C 0.59516 0.4244 0.69144 0.0
C203 C 0.55265 0.45915 0.6873 0.0
N204 N 0.48512 0.51105 0.72675 0.0
N205 N 0.64516 0.36701 0.74584 0.0
C206 C 0.52829 0.48048 0.73189 0.0
C207 C 0.61007 0.40661 0.74092 0.0
N208 N 0.53063 0.49298 0.82491 0.0
N209 N 0.62242 0.40989 0.6481 0.0
H210 H 0.65923 0.35454 0.78136 0.0
H211 H 0.658 0.34421 0.71504 0.0
H212 H 0.6126 0.42201 0.61099 0.0
H213 H 0.65729 0.38938 0.64903 0.0
H214 H 0.50606 0.52509 0.82427 0.0
H215 H 0.54375 0.48389 0.86186 0.0
H216 H 0.46217 0.52341 0.7577 0.0
H217 H 0.46993 0.52134 0.69092 0.0
C218 C 0.94577 0.52877 0.29379 0.0
C219 C 0.90694 0.56729 0.30088 0.0
C220 C 0.89727 0.57638 0.20726 0.0
C221 C 0.93669 0.53843 0.20008 0.0
N222 N 0.99229 0.47173 0.23444 0.0
N223 N 0.83853 0.62079 0.26643 0.0
C224 C 0.95879 0.51221 0.2428 0.0
C225 C 0.8803 0.58879 0.25814 0.0
N226 N 0.97139 0.50966 0.33578 0.0
N227 N 0.87711 0.60145 0.16534 0.0
H228 H 0.82569 0.63164 0.30321 0.0
H229 H 0.81401 0.6337 0.23736 0.0
H230 H 0.88617 0.59116 0.12731 0.0
H231 H 0.85326 0.63401 0.16783 0.0
H232 H 0.00413 0.48599 0.33343 0.0
H233 H 0.96118 0.51949 0.37366 0.0
H234 H 0.00605 0.44767 0.26353 0.0
H235 H 0.00393 0.45982 0.19758 0.0
C236 C 0.27574 0.11629 0.1015 0.0
C237 C 0.22949 0.09035 0.08656 0.0
C238 C 0.28059 0.02658 0.03736 0.0
C239 C 0.32633 0.05477 0.04939 0.0
N240 N 0.36778 0.13033 0.08588 0.0
N241 N 0.18606 0.0251 0.03584 0.0
C242 C 0.32397 0.10087 0.07933 0.0
C243 C 0.23136 0.04661 0.05319 0.0
N244 N 0.27374 0.15434 0.13842 0.0
N245 N 0.28444 0.98022 0.01178 0.0
H246 H 0.14941 0.03832 0.04749 0.0
H247 H 0.1845 -0.00338 0.00732 0.0
H248 H 0.31981 0.96537 -0.00174 0.0
H249 H 0.25333 0.95489 0.0067 0.0
H250 H 0.30661 0.17071 0.15515 0.0
H251 H 0.23913 0.16668 0.15577 0.0
H252 H 0.36741 0.16733 0.10215 0.0
H253 H 0.40424 0.11963 0.07139 0.0
C254 C 0.24985 0.92959 0.62419 0.0
C255 C 0.29335 0.93297 0.59025 0.0
C256 C 0.23704 0.9656 0.52165 0.0
C257 C 0.19453 0.96598 0.55705 0.0
N258 N 0.16459 0.96304 0.6457 0.0
N259 N 0.33084 0.96465 0.51066 0.0
C260 C 0.20225 0.95261 0.60953 0.0
C261 C 0.28774 0.95442 0.54018 0.0
N262 N 0.25289 0.902 0.66915 0.0
N263 N 0.22881 0.97294 0.47007 0.0
H264 H 0.36857 0.9572 0.52332 0.0
H265 H 0.32942 0.9849 0.4759 0.0
H266 H 0.19216 0.97992 0.45457 0.0
H267 H 0.25764 0.96748 0.44207 0.0
H268 H 0.22055 0.89406 0.69237 0.0
H269 H 0.28631 0.88241 0.68067 0.0
H270 H 0.1704 0.95837 0.68523 0.0
H271 H 0.1298 0.9818 0.63682 0.0
C272 C 0.72095 0.46592 0.96118 0.0
C273 C 0.71781 0.42401 0.92576 0.0
C274 C 0.8119 0.41024 0.93092 0.0
C275 C 0.81559 0.4547 0.963 0.0
N276 N 0.77596 0.52842 0.00515 0.0
N277 N 0.75999 0.36082 0.87059 0.0
C278 C 0.77072 0.48362 0.9772 0.0
C279 C 0.76321 0.39726 0.90898 0.0
N280 N 0.67629 0.48789 0.98022 0.0
N281 N 0.85494 0.38017 0.9218 0.0
H282 H 0.72498 0.34985 0.85372 0.0
H283 H 0.79228 0.34434 0.85242 0.0
H284 H 0.89184 0.38942 0.93562 0.0
H285 H 0.85358 0.34402 0.90379 0.0
H286 H 0.67554 0.51494 0.01014 0.0
H287 H 0.63928 0.47639 0.96844 0.0
H288 H 0.74565 0.55441 0.01196 0.0
H289 H 0.81169 0.54138 0.01913 0.0
C290 C 0.78592 0.52418 0.46372 0.0
C291 C 0.80048 0.57739 0.46526 0.0
C292 C 0.7119 0.60247 0.48598 0.0
C293 C 0.69509 0.55058 0.47881 0.0
N294 N 0.71807 0.45948 0.47779 0.0
N295 N 0.78273 0.64815 0.52397 0.0
C296 C 0.73276 0.51028 0.47279 0.0
C297 C 0.76552 0.61231 0.4894 0.0
N298 N 0.82348 0.48753 0.45552 0.0
N299 N 0.67747 0.64267 0.48959 0.0
H300 H 0.82012 0.64575 0.53926 0.0
H301 H 0.75739 0.67247 0.54441 0.0
H302 H 0.63747 0.63822 0.48465 0.0
H303 H 0.68999 0.68113 0.49248 0.0
H304 H 0.81607 0.44844 0.44862 0.0
H305 H 0.86297 0.49721 0.45562 0.0
H306 H 0.7437 0.42828 0.47627 0.0
H307 H 0.68021 0.44833 0.48734 0.0
C308 C 0.11442 0.27252 0.11282 0.0
C309 C 0.09316 0.22728 0.08967 0.0
C310 C 0.03851 0.28089 0.03385 0.0
C311 C 0.0571 0.32578 0.05965 0.0
N312 N 0.10634 0.36502 0.12839 0.0
N313 N 0.03148 0.18682 0.03269 0.0
C314 C 0.09341 0.32182 0.10039 0.0
C315 C 0.05414 0.23099 0.05141 0.0
N316 N 0.15543 0.26839 0.14596 0.0
N317 N 0.00731 0.28617 0.9916 0.0
H318 H 0.0432 0.14968 0.04365 0.0
H319 H -0.00103 0.18679 0.00895 0.0
H320 H 0.99466 0.32216 0.97816 0.0
H321 H 0.99686 0.25545 0.96764 0.0
H322 H 0.17668 0.30006 0.15925 0.0
H323 H 0.17099 0.23291 0.1574 0.0
H324 H 0.12786 0.36386 0.16228 0.0
H325 H 0.09207 0.40199 0.12019 0.0
C326 C 0.54012 0.28717 0.95663 0.0
C327 C 0.57866 0.2913 0.91739 0.0
C328 C 0.5795 0.19694 0.90605 0.0
C329 C 0.54462 0.19254 0.94845 0.0
N330 N 0.4938 0.23129 0.01694 0.0
N331 N 0.63968 0.25116 0.85817 0.0
C332 C 0.52531 0.23709 0.97452 0.0
C333 C 0.59947 0.24646 0.89281 0.0
N334 N 0.51725 0.3311 0.97599 0.0
N335 N 0.59315 0.15372 0.8782 0.0
H336 H 0.65463 0.28682 0.84633 0.0
H337 H 0.66089 0.21983 0.84378 0.0
H338 H 0.58067 0.11638 0.88772 0.0
H339 H 0.61365 0.155 0.84339 0.0
H340 H 0.4853 0.33086 0.00094 0.0
H341 H 0.52812 0.36835 0.96433 0.0
H342 H 0.48288 0.26173 0.0412 0.0
H343 H 0.48057 0.19516 0.02966 0.0
C344 C 0.95424 0.72367 0.47223 0.0
C345 C 0.93559 0.71396 0.42174 0.0
C346 C 0.96077 0.80208 0.39736 0.0
C347 C 0.96829 0.81482 0.4502 0.0
N348 N 0.95815 0.78777 0.5397 0.0
N349 N 0.91042 0.74972 0.33893 0.0
C350 C 0.96163 0.77562 0.48837 0.0
C351 C 0.93604 0.75464 0.38473 0.0
N352 N 0.96469 0.68347 0.50487 0.0
N353 N 0.97826 0.83427 0.35912 0.0
H354 H 0.88824 0.71732 0.32928 0.0
H355 H 0.9064 0.78051 0.31315 0.0
H356 H 6e-05 0.86758 0.36654 0.0
H357 H 0.97672 0.82423 0.3201 0.0
H358 H 0.98205 0.68894 0.54077 0.0
H359 H 0.9614 0.64468 0.49361 0.0
H360 H 0.94907 0.76021 0.56783 0.0
H361 H 0.95725 0.82568 0.55373 0.0
C362 C 0.3958 0.74385 0.60464 0.0
C363 C 0.42017 0.78806 0.58246 0.0
C364 C 0.47013 0.73252 0.52335 0.0
C365 C 0.44904 0.68839 0.54858 0.0
N366 N 0.3969 0.65055 0.61664 0.0
N367 N 0.48315 0.82594 0.52432 0.0
C368 C 0.41311 0.69361 0.59008 0.0
C369 C 0.45807 0.78285 0.54268 0.0
N370 N 0.35543 0.74999 0.63891 0.0
N371 N 0.50065 0.72613 0.48027 0.0
H372 H 0.474 0.86349 0.53657 0.0
H373 H 0.51505 0.82455 0.49935 0.0
H374 H 0.51073 0.68967 0.46565 0.0
H375 H 0.51301 0.75659 0.45684 0.0
H376 H 0.33216 0.71954 0.65189 0.0
H377 H 0.34235 0.78616 0.65164 0.0
H378 H 0.37576 0.65212 0.65107 0.0
H379 H 0.40771 0.61285 0.60636 0.0
C380 C 0.90032 0.90362 0.75451 0.0
C381 C 0.92629 0.92813 0.79615 0.0
C382 C 0.9791 0.97907 0.73547 0.0
C383 C 0.95517 0.95239 0.69387 0.0
N384 N 0.89811 0.88513 0.66258 0.0
N385 N 0.99454 0.9836 0.82782 0.0
C386 C 0.91738 0.91327 0.70306 0.0
C387 C 0.96683 0.96443 0.78708 0.0
N388 N 0.85817 0.87254 0.7642 0.0
N389 N 0.0132 0.01869 0.72551 0.0
H390 H 0.98599 0.97437 0.86618 0.0
H391 H 0.0282 0.00574 0.82378 0.0
H392 H 0.02549 0.02856 0.6883 0.0
H393 H 0.02727 0.04378 0.75371 0.0
H394 H 0.83388 0.8581 0.73557 0.0
H395 H 0.8449 0.86406 0.80143 0.0
H396 H 0.87517 0.85212 0.66704 0.0
H397 H 0.90782 0.89268 0.62412 0.0
C398 C 0.53076 0.04663 0.28795 0.0
C399 C 0.58255 0.06311 0.29726 0.0
C400 C 0.6066 0.03808 0.20929 0.0
C401 C 0.55336 0.03193 0.19699 0.0
N402 N 0.46308 0.03781 0.22416 0.0
N403 N 0.66696 0.0861 0.26126 0.0
C404 C 0.51475 0.03762 0.23625 0.0
C405 C 0.61997 0.06174 0.25657 0.0
N406 N 0.49708 0.03931 0.32835 0.0
N407 N 0.64452 0.0209 0.17613 0.0
H408 H 0.67724 0.10805 0.29341 0.0
H409 H 0.69317 0.0897 0.23053 0.0
H410 H 0.63619 0.001 0.14201 0.0
H411 H 0.68389 0.021 0.18565 0.0
H412 H 0.46028 0.02293 0.32397 0.0
H413 H 0.508 0.0447 0.36674 0.0
H414 H 0.43399 0.04717 0.25086 0.0
H415 H 0.44934 0.03367 0.18662 0.0
C416 C 0.42319 0.6114 0.25602 0.0
C417 C 0.43104 0.57893 0.21251 0.0
C418 C 0.46631 0.51123 0.2685 0.0
C419 C 0.46394 0.54652 0.31079 0.0
N420 N 0.4547 0.63532 0.34014 0.0
N421 N 0.46641 0.50063 0.17521 0.0
C422 C 0.44691 0.59825 0.3031 0.0
C423 C 0.45479 0.52962 0.21802 0.0
N424 N 0.39097 0.65345 0.2532 0.0
N425 N 0.47667 0.45988 0.2767 0.0
H426 H 0.4572 0.51263 0.13789 0.0
H427 H 0.48851 0.46676 0.17647 0.0
H428 H 0.48383 0.44456 0.31318 0.0
H429 H 0.47366 0.43167 0.24799 0.0
H430 H 0.38081 0.67582 0.28534 0.0
H431 H 0.3693 0.66187 0.22039 0.0
H432 H 0.44675 0.67454 0.33412 0.0
H433 H 0.47469 0.62802 0.3743 0.0
C434 C 0.06311 0.48201 0.73116 0.0
C435 C 0.08063 0.43001 0.7256 0.0
C436 C 0.05895 0.41305 0.81593 0.0
C437 C 0.04854 0.46657 0.82353 0.0
N438 N 0.04853 0.55402 0.78988 0.0
N439 N 0.10766 0.35024 0.76642 0.0
C440 C 0.0525 0.50177 0.78152 0.0
C441 C 0.08209 0.39665 0.76906 0.0
N442 N 0.05542 0.51204 0.68843 0.0
N443 N 0.04515 0.37748 0.85274 0.0
H444 H 0.12813 0.33828 0.73366 0.0
H445 H 0.11372 0.32674 0.79856 0.0
H446 H 0.02555 0.38748 0.88678 0.0
H447 H 0.04776 0.33753 0.84672 0.0
H448 H 0.03774 0.54842 0.68994 0.0
H449 H 0.06246 0.49873 0.65094 0.0
H450 H 0.0565 0.58156 0.76148 0.0
H451 H 0.04184 0.57012 0.82632 0.0
C452 C 0.79267 0.00809 0.93219 0.0
C453 C 0.81796 0.96581 0.9562 0.0
C454 C 0.74273 0.95463 0.01327 0.0
C455 C 0.71296 0.98498 0.97867 0.0
N456 N 0.71046 0.04656 0.90834 0.0
N457 N 0.82979 0.93613 0.0432 0.0
C458 C 0.73825 0.01416 0.93941 0.0
C459 C 0.79703 0.94959 0.00428 0.0
N460 N 0.82158 0.04614 0.90936 0.0
N461 N 0.71927 0.92979 0.05376 0.0
H462 H 0.87014 0.93901 0.03863 0.0
H463 H 0.81716 0.92844 0.08077 0.0
H464 H 0.67974 0.93391 0.06243 0.0
H465 H 0.73868 0.90298 0.07676 0.0
H466 H 0.80558 0.08041 0.89521 0.0
H467 H 0.86221 0.04569 0.91099 0.0
H468 H 0.72669 0.06451 0.87594 0.0
H469 H 0.67063 0.053 0.91329 0.0
C470 C 0.71904 0.04008 0.47087 0.0
C471 C 0.71334 0.08154 0.43541 0.0
C472 C 0.80713 0.098 0.43706 0.0
C473 C 0.8134 0.05326 0.46807 0.0
N474 N 0.77747 0.9788 0.51181 0.0
N475 N 0.75176 0.14617 0.37922 0.0
C476 C 0.76991 0.02353 0.4845 0.0
C477 C 0.75731 0.10968 0.41714 0.0
N478 N 0.67582 0.01747 0.49222 0.0
N479 N 0.84869 0.12993 0.42761 0.0
H480 H 0.71589 0.15682 0.36399 0.0
H481 H 0.78303 0.16323 0.3599 0.0
H482 H 0.88608 0.12228 0.44112 0.0
H483 H 0.84543 0.1662 0.41024 0.0
H484 H 0.67713 0.99058 0.52213 0.0
H485 H 0.63805 0.02857 0.48262 0.0
H486 H 0.748 0.9523 0.52011 0.0
H487 H 0.81418 0.96642 0.52357 0.0
C488 C 0.25257 0.63403 0.08141 0.0
C489 C 0.29235 0.59573 0.08129 0.0
C490 C 0.22743 0.52897 0.06324 0.0
C491 C 0.18911 0.56808 0.05613 0.0
N492 N 0.1701 0.65946 0.04529 0.0
N493 N 0.31912 0.50855 0.05906 0.0
C494 C 0.20302 0.62119 0.0613 0.0
C495 C 0.28027 0.54373 0.06797 0.0
N496 N 0.26092 0.68179 0.10288 0.0
N497 N 0.21346 0.47804 0.06866 0.0
H498 H 0.35849 0.51835 0.06058 0.0
H499 H 0.3121 0.47133 0.04482 0.0
H500 H 0.17487 0.46558 0.06986 0.0
H501 H 0.23995 0.44907 0.07838 0.0
H502 H 0.23131 0.70904 0.10793 0.0
H503 H 0.29565 0.69212 0.12075 0.0
H504 H 0.18083 0.69849 0.04425 0.0
H505 H 0.13465 0.65186 0.02749 0.0
C506 C 0.2507 0.38383 0.57404 0.0
C507 C 0.21069 0.42128 0.5811 0.0
C508 C 0.27185 0.48989 0.55624 0.0
C509 C 0.30965 0.45154 0.54343 0.0
N510 N 0.32753 0.36116 0.52499 0.0
N511 N 0.17999 0.50857 0.56607 0.0
C512 C 0.29671 0.3982 0.5475 0.0
C513 C 0.2202 0.47396 0.56808 0.0
N514 N 0.24644 0.33541 0.59507 0.0
N515 N 0.28548 0.54101 0.56031 0.0
H516 H 0.14139 0.49794 0.57301 0.0
H517 H 0.18443 0.54631 0.55227 0.0
H518 H 0.3234 0.55444 0.55509 0.0
H519 H 0.26011 0.56935 0.57441 0.0
H520 H 0.2769 0.30866 0.59448 0.0
H521 H 0.21522 0.32417 0.61833 0.0
H522 H 0.31703 0.32208 0.52355 0.0
H523 H 0.36014 0.37022 0.50249 0.0
C524 C 0.97811 0.79314 0.95709 0.0
C525 C 0.92636 0.80249 0.94084 0.0
C526 C 0.90239 0.71341 0.96316 0.0
C527 C 0.95553 0.70201 0.97233 0.0
N528 N 0.04552 0.72916 0.97147 0.0
N529 N 0.84101 0.76937 0.9201 0.0
C530 C 0.99392 0.74144 0.96795 0.0
C531 C 0.88885 0.76209 0.94173 0.0
N532 N 0.01183 0.83376 0.96289 0.0
N533 N 0.86465 0.67833 0.97644 0.0
H534 H 0.8296 0.80422 0.90318 0.0
H535 H 0.8144 0.73936 0.91467 0.0
H536 H 0.87287 0.64273 0.99374 0.0
H537 H 0.82501 0.68676 0.97535 0.0
H538 H 0.04838 0.83001 0.9796 0.0
H539 H 0.00144 0.87214 0.95527 0.0
H540 H 0.07535 0.75527 0.96309 0.0
H541 H 0.05877 0.69158 0.97838 0.0
C542 C 0.46151 0.72038 0.0241 0.0
C543 C 0.44746 0.71314 0.07679 0.0
C544 C 0.48327 0.79837 0.0972 0.0
C545 C 0.4872 0.80982 0.04394 0.0
N546 N 0.47461 0.78283 0.95533 0.0
N547 N 0.43284 0.7527 0.16072 0.0
C548 C 0.47545 0.771 0.00673 0.0
C549 C 0.45538 0.75399 0.11282 0.0
N550 N 0.46218 0.67906 0.99097 0.0
N551 N 0.50586 0.83011 0.13297 0.0
H552 H 0.40692 0.72381 0.17191 0.0
H553 H 0.43435 0.78383 0.18648 0.0
H554 H 0.52832 0.8623 0.12261 0.0
H555 H 0.5072 0.82088 0.17215 0.0
H556 H 0.47652 0.68141 0.95328 0.0
H557 H 0.45315 0.6414 0.0028 0.0
H558 H 0.46079 0.75729 0.92734 0.0
H559 H 0.48371 0.81952 0.94098 0.0
C560 C 0.08628 0.24834 0.61903 0.0
C561 C 0.06775 0.29256 0.59209 0.0
C562 C 0.01771 0.23652 0.53425 0.0
C563 C 0.03403 0.19291 0.5633 0.0
N564 N 0.07481 0.15729 0.63897 0.0
N565 N 0.01079 0.33051 0.52913 0.0
C566 C 0.06532 0.1989 0.60762 0.0
C567 C 0.03182 0.2872 0.55114 0.0
N568 N 0.12591 0.25317 0.65368 0.0
N569 N 0.98988 0.22924 0.49 0.0
H570 H 0.02111 0.36806 0.54028 0.0
H571 H 0.98064 0.32944 0.50251 0.0
H572 H 0.97742 0.19269 0.47776 0.0
H573 H 0.98158 0.2588 0.46397 0.0
H574 H 0.14505 0.22165 0.67 0.0
H575 H 0.14321 0.28855 0.6626 0.0
H576 H 0.09238 0.16054 0.67497 0.0
H577 H 0.06108 0.11997 0.63125 0.0
C578 C 0.55666 0.2218 0.47251 0.0
C579 C 0.57144 0.21124 0.42067 0.0
C580 C 0.54521 0.29898 0.39662 0.0
C581 C 0.54 0.31236 0.44962 0.0
N582 N 0.55363 0.28741 0.53893 0.0
N583 N 0.59184 0.24531 0.33564 0.0
C584 C 0.54888 0.27401 0.48805 0.0
C585 C 0.569 0.25128 0.38313 0.0
N586 N 0.54964 0.18212 0.5068 0.0
N587 N 0.52625 0.33089 0.3591 0.0
H588 H 0.61315 0.2125 0.32504 0.0
H589 H 0.59465 0.27556 0.30904 0.0
H590 H 0.50534 0.36461 0.36746 0.0
H591 H 0.52579 0.32043 0.32017 0.0
H592 H 0.53454 0.18786 0.54388 0.0
H593 H 0.55357 0.14317 0.49633 0.0
H594 H 0.56468 0.26093 0.56722 0.0
H595 H 0.55295 0.32563 0.55214 0.0
loop_
_geom_bond_atom_site_label_1
_geom_bond_atom_site_label_2
_geom_bond_distance
_geom_bond_site_symmetry_2
_ccdc_geom_bond_type
H0 C3 0.931 . S
H1 C6 0.928 . S
H2 C8 0.930 . S
C3 H0 0.931 . S
C3 C4 1.413 . S
C3 C5 1.360 . S
C4 C3 1.413 . S
C4 C8 1.429 . S
C5 C3 1.360 . S
C5 C6 1.372 . S
C6 H1 0.928 . S
C6 C5 1.372 . S
C6 C7 1.404 . S
C7 C6 1.404 . S
C7 C8 1.391 . S
C8 H2 0.930 . S
C8 C4 1.429 . S
C8 C7 1.391 . S
H9 C12 0.931 . S
H10 C15 0.928 . S
H11 C17 0.930 . S
C12 H9 0.931 . S
C12 C13 1.413 . S
C12 C14 1.360 . S
C13 C12 1.413 . S
C13 C17 1.429 . S
C14 C12 1.360 . S
C14 C15 1.372 . S
C15 H10 0.928 . S
C15 C14 1.372 . S
C15 C16 1.404 . S
C16 C15 1.404 . S
C16 C17 1.391 . S
C17 H11 0.930 . S
C17 C13 1.429 . S
C17 C16 1.391 . S
H18 C21 0.931 . S
H19 C24 0.928 . S
H20 C26 0.930 . S
C21 H18 0.931 . S
C21 C22 1.413 . S
C21 C23 1.360 . S
C22 C21 1.413 . S
C22 C26 1.429 . S
C23 C21 1.360 . S
C23 C24 1.372 . S
C24 H19 0.928 . S
C24 C23 1.372 . S
C24 C25 1.404 . S
C25 C24 1.404 . S
C25 C26 1.391 . S
C26 H20 0.930 . S
C26 C22 1.429 . S
C26 C25 1.391 . S
H27 C30 0.931 . S
H28 C33 0.928 . S
H29 C35 0.930 . S
C30 H27 0.931 . S
C30 C31 1.413 . S
C30 C32 1.360 . S
C31 C30 1.413 . S
C31 C35 1.429 . S
C32 C30 1.360 . S
C32 C33 1.372 . S
C33 H28 0.928 . S
C33 C32 1.372 . S
C33 C34 1.404 . S
C34 C33 1.404 . S
C34 C35 1.391 . S
C35 H29 0.930 . S
C35 C31 1.429 . S
C35 C34 1.391 . S
H36 C39 0.931 1_545 S
H37 C42 0.928 . S
H38 C44 0.930 . S
C39 H36 0.931 1_565 S
C39 C40 1.413 . S
C39 C41 1.360 . S
C40 C39 1.413 . S
C40 C44 1.429 . S
C41 C39 1.360 . S
C41 C42 1.372 . S
C42 H37 0.928 . S
C42 C41 1.372 . S
C42 C43 1.404 . S
C43 C42 1.404 . S
C43 C44 1.391 . S
C44 H38 0.930 . S
C44 C40 1.429 . S
C44 C43 1.391 . S
H45 C48 0.931 . S
H46 C51 0.928 . S
H47 C53 0.930 . S
C48 H45 0.931 . S
C48 C49 1.413 . S
C48 C50 1.360 . S
C49 C48 1.413 . S
C49 C53 1.429 . S
C50 C48 1.360 . S
C50 C51 1.372 . S
C51 H46 0.928 . S
C51 C50 1.372 . S
C51 C52 1.404 . S
C52 C51 1.404 . S
C52 C53 1.391 . S
C53 H47 0.930 . S
C53 C49 1.429 . S
C53 C52 1.391 . S
H54 C57 0.931 . S
H55 C60 0.928 . S
H56 C62 0.930 . S
C57 H54 0.931 . S
C57 C58 1.413 . S
C57 C59 1.360 . S
C58 C57 1.413 . S
C58 C62 1.429 . S
C59 C57 1.360 . S
C59 C60 1.372 . S
C60 H55 0.928 . S
C60 C59 1.372 . S
C60 C61 1.404 . S
C61 C60 1.404 . S
C61 C62 1.391 . S
C62 H56 0.930 . S
C62 C58 1.429 . S
C62 C61 1.391 . S
H63 C66 0.931 . S
H64 C69 0.928 . S
H65 C71 0.930 . S
C66 H63 0.931 . S
C66 C67 1.413 . S
C66 C68 1.360 . S
C67 C66 1.413 . S
C67 C71 1.429 . S
C68 C66 1.360 . S
C68 C69 1.372 . S
C69 H64 0.928 . S
C69 C68 1.372 . S
C69 C70 1.404 . S
C70 C69 1.404 . S
C70 C71 1.391 . S
C71 H65 0.930 . S
C71 C67 1.429 . S
C71 C70 1.391 . S
O72 Zn73 1.953 . S
O72 C88 1.225 1_655 S
Zn73 O72 1.953 . S
Zn73 O74 1.949 1_655 S
Zn73 O80 1.919 . S
Zn73 O85 1.924 . S
O74 Zn73 1.949 1_455 S
O74 Zn75 1.923 1_445 S
O74 Zn76 1.950 . S
O74 Zn77 1.945 1_545 S
Zn75 O74 1.923 1_665 S
Zn75 O78 1.933 . S
Zn75 O81 1.941 1_565 S
Zn75 O82 1.965 1_665 S
Zn76 O74 1.950 . S
Zn76 O83 1.938 . S
Zn76 O84 1.906 1_545 S
Zn76 O94 1.953 . S
Zn77 O74 1.945 1_565 S
Zn77 O79 1.932 1_455 S
Zn77 O86 1.977 . S
Zn77 O87 1.910 1_455 S
O78 Zn75 1.933 . S
O78 C89 1.226 . S
O79 Zn77 1.932 1_655 S
O79 C89 1.307 . S
O80 Zn73 1.919 . S
O80 C91 1.253 . S
O81 Zn75 1.941 1_545 S
O81 C91 1.283 . S
O82 Zn75 1.965 1_445 S
O82 C90 1.303 . S
O83 Zn76 1.938 . S
O83 C90 1.247 . S
O84 Zn76 1.906 1_565 S
O84 C92 1.304 . S
O85 Zn73 1.924 . S
O85 C93 1.311 1_545 S
O86 Zn77 1.977 . S
O86 C92 1.272 . S
O87 Zn77 1.910 1_655 S
O87 C93 1.231 . S
C88 O72 1.225 1_455 S
C88 O94 1.298 . S
C89 O78 1.226 . S
C89 O79 1.307 . S
C90 O82 1.303 . S
C90 O83 1.247 . S
C91 O80 1.253 . S
C91 O81 1.283 . S
C92 O84 1.304 . S
C92 O86 1.272 . S
C93 O85 1.311 1_565 S
C93 O87 1.231 . S
O94 Zn76 1.953 . S
O94 C88 1.298 . S
O95 Zn96 1.953 . S
O95 C111 1.225 . S
Zn96 O95 1.953 . S
Zn96 O97 1.949 1_556 S
Zn96 O103 1.919 . S
Zn96 O108 1.924 . S
O97 Zn96 1.949 1_554 S
O97 Zn98 1.923 1_544 S
O97 Zn99 1.950 . S
O97 Zn100 1.945 1_545 S
Zn98 O97 1.923 1_566 S
Zn98 O101 1.933 1_556 S
Zn98 O104 1.941 . S
Zn98 O105 1.965 . S
Zn99 O97 1.950 . S
Zn99 O106 1.938 . S
Zn99 O107 1.906 . S
Zn99 O117 1.953 . S
Zn100 O97 1.945 1_565 S
Zn100 O102 1.932 . S
Zn100 O109 1.977 1_565 S
Zn100 O110 1.910 1_565 S
O101 Zn98 1.933 1_554 S
O101 C112 1.226 . S
O102 Zn100 1.932 . S
O102 C112 1.307 . S
O103 Zn96 1.919 . S
O103 C114 1.253 1_545 S
O104 Zn98 1.941 . S
O104 C114 1.283 . S
O105 Zn98 1.965 . S
O105 C113 1.303 . S
O106 Zn99 1.938 . S
O106 C113 1.247 1_544 S
O107 Zn99 1.906 . S
O107 C115 1.304 . S
O108 Zn96 1.924 . S
O108 C116 1.311 1_556 S
O109 Zn100 1.977 1_545 S
O109 C115 1.272 . S
O110 Zn100 1.910 1_545 S
O110 C116 1.231 . S
C111 O95 1.225 . S
C111 O117 1.298 1_556 S
C112 O101 1.226 . S
C112 O102 1.307 . S
C113 O105 1.303 . S
C113 O106 1.247 1_566 S
C114 O103 1.253 1_565 S
C114 O104 1.283 . S
C115 O107 1.304 . S
C115 O109 1.272 . S
C116 O108 1.311 1_554 S
C116 O110 1.231 . S
O117 Zn99 1.953 . S
O117 C111 1.298 1_554 S
O118 Zn119 1.953 . S
O118 C134 1.225 . S
Zn119 O118 1.953 . S
Zn119 O120 1.949 . S
Zn119 O126 1.919 . S
Zn119 O131 1.924 . S
O120 Zn119 1.949 . S
O120 Zn121 1.923 . S
O120 Zn122 1.950 . S
O120 Zn123 1.945 . S
Zn121 O120 1.923 . S
Zn121 O124 1.933 . S
Zn121 O127 1.941 . S
Zn121 O128 1.965 . S
Zn122 O120 1.950 . S
Zn122 O129 1.938 . S
Zn122 O130 1.906 . S
Zn122 O140 1.953 . S
Zn123 O120 1.945 . S
Zn123 O125 1.932 . S
Zn123 O132 1.977 . S
Zn123 O133 1.910 . S
O124 Zn121 1.933 . S
O124 C135 1.226 . S
O125 Zn123 1.932 . S
O125 C135 1.307 . S
O126 Zn119 1.919 . S
O126 C137 1.253 . S
O127 Zn121 1.941 . S
O127 C137 1.283 . S
O128 Zn121 1.965 . S
O128 C136 1.303 . S
O129 Zn122 1.938 . S
O129 C136 1.247 . S
O130 Zn122 1.906 . S
O130 C138 1.304 . S
O131 Zn119 1.924 . S
O131 C139 1.311 . S
O132 Zn123 1.977 . S
O132 C138 1.272 . S
O133 Zn123 1.910 . S
O133 C139 1.231 . S
C134 O118 1.225 . S
C134 O140 1.298 . S
C135 O124 1.226 . S
C135 O125 1.307 . S
C136 O128 1.303 . S
C136 O129 1.247 . S
C137 O126 1.253 . S
C137 O127 1.283 . S
C138 O130 1.304 . S
C138 O132 1.272 . S
C139 O131 1.311 . S
C139 O133 1.231 . S
O140 Zn122 1.953 . S
O140 C134 1.298 . S
O141 Zn142 1.953 . S
O141 C157 1.225 . S
Zn142 O141 1.953 . S
Zn142 O143 1.949 1_655 S
Zn142 O149 1.919 . S
Zn142 O154 1.924 . S
O143 Zn142 1.949 1_455 S
O143 Zn144 1.923 1_454 S
O143 Zn145 1.950 . S
O143 Zn146 1.945 1_554 S
Zn144 O143 1.923 1_656 S
Zn144 O147 1.933 1_655 S
Zn144 O150 1.941 . S
Zn144 O151 1.965 . S
Zn145 O143 1.950 . S
Zn145 O152 1.938 . S
Zn145 O153 1.906 . S
Zn145 O163 1.953 . S
Zn146 O143 1.945 1_556 S
Zn146 O148 1.932 . S
Zn146 O155 1.977 1_556 S
Zn146 O156 1.910 1_556 S
O147 Zn144 1.933 1_455 S
O147 C158 1.226 . S
O148 Zn146 1.932 . S
O148 C158 1.307 . S
O149 Zn142 1.919 . S
O149 C160 1.253 1_554 S
O150 Zn144 1.941 . S
O150 C160 1.283 . S
O151 Zn144 1.965 . S
O151 C159 1.303 . S
O152 Zn145 1.938 . S
O152 C159 1.247 1_454 S
O153 Zn145 1.906 . S
O153 C161 1.304 . S
O154 Zn142 1.924 . S
O154 C162 1.311 1_655 S
O155 Zn146 1.977 1_554 S
O155 C161 1.272 . S
O156 Zn146 1.910 1_554 S
O156 C162 1.231 . S
C157 O141 1.225 . S
C157 O163 1.298 1_655 S
C158 O147 1.226 . S
C158 O148 1.307 . S
C159 O151 1.303 . S
C159 O152 1.247 1_656 S
C160 O149 1.253 1_556 S
C160 O150 1.283 . S
C161 O153 1.304 . S
C161 O155 1.272 . S
C162 O154 1.311 1_455 S
C162 O156 1.231 . S
O163 Zn145 1.953 . S
O163 C157 1.298 1_455 S
C164 C165 1.363 . S
C164 C170 1.379 . S
C164 N172 1.356 . S
C165 C164 1.363 . S
C165 C171 1.363 . S
C166 C167 1.363 . S
C166 C171 1.379 . S
C166 N173 1.356 . S
C167 C166 1.363 . S
C167 C170 1.363 . S
N168 C170 1.356 . S
N168 H180 0.984 1_545 S
N168 H181 0.985 . S
N169 C171 1.356 . S
N169 H174 0.984 . S
N169 H175 0.985 . S
C170 C164 1.379 . S
C170 C167 1.363 . S
C170 N168 1.356 . S
C171 C165 1.363 . S
C171 C166 1.379 . S
C171 N169 1.356 . S
N172 C164 1.356 . S
N172 H178 0.984 . S
N172 H179 0.984 . S
N173 C166 1.356 . S
N173 H176 0.984 . S
N173 H177 0.985 . S
H174 N169 0.984 . S
H175 N169 0.985 . S
H176 N173 0.984 . S
H177 N173 0.985 . S
H178 N172 0.984 . S
H179 N172 0.984 . S
H180 N168 0.984 1_565 S
H181 N168 0.985 . S
C182 C183 1.363 . S
C182 C188 1.379 . S
C182 N190 1.356 . S
C183 C182 1.363 . S
C183 C189 1.363 . S
C184 C185 1.363 . S
C184 C189 1.379 . S
C184 N191 1.356 1_565 S
C185 C184 1.363 . S
C185 C188 1.363 . S
N186 C188 1.356 . S
N186 H198 0.984 . S
N186 H199 0.985 . S
N187 C189 1.356 . S
N187 H192 0.984 . S
N187 H193 0.985 . S
C188 C182 1.379 . S
C188 C185 1.363 . S
C188 N186 1.356 . S
C189 C183 1.363 . S
C189 C184 1.379 . S
C189 N187 1.356 . S
N190 C182 1.356 . S
N190 H196 0.984 . S
N190 H197 0.984 . S
N191 C184 1.356 1_545 S
N191 H194 0.984 . S
N191 H195 0.985 . S
H192 N187 0.984 . S
H193 N187 0.985 . S
H194 N191 0.984 . S
H195 N191 0.985 . S
H196 N190 0.984 . S
H197 N190 0.984 . S
H198 N186 0.984 . S
H199 N186 0.985 . S
C200 C201 1.363 . S
C200 C206 1.379 . S
C200 N208 1.356 . S
C201 C200 1.363 . S
C201 C207 1.363 . S
C202 C203 1.363 . S
C202 C207 1.379 . S
C202 N209 1.356 . S
C203 C202 1.363 . S
C203 C206 1.363 . S
N204 C206 1.356 . S
N204 H216 0.984 . S
N204 H217 0.985 . S
N205 C207 1.356 . S
N205 H210 0.984 . S
N205 H211 0.985 . S
C206 C200 1.379 . S
C206 C203 1.363 . S
C206 N204 1.356 . S
C207 C201 1.363 . S
C207 C202 1.379 . S
C207 N205 1.356 . S
N208 C200 1.356 . S
N208 H214 0.984 . S
N208 H215 0.984 . S
N209 C202 1.356 . S
N209 H212 0.984 . S
N209 H213 0.985 . S
H210 N205 0.984 . S
H211 N205 0.985 . S
H212 N209 0.984 . S
H213 N209 0.985 . S
H214 N208 0.984 . S
H215 N208 0.984 . S
H216 N204 0.984 . S
H217 N204 0.985 . S
C218 C219 1.363 . S
C218 C224 1.379 . S
C218 N226 1.356 . S
C219 C218 1.363 . S
C219 C225 1.363 . S
C220 C221 1.363 . S
C220 C225 1.379 . S
C220 N227 1.356 . S
C221 C220 1.363 . S
C221 C224 1.363 . S
N222 C224 1.356 . S
N222 H234 0.984 1_655 S
N222 H235 0.985 . S
N223 C225 1.356 . S
N223 H228 0.984 . S
N223 H229 0.985 . S
C224 C218 1.379 . S
C224 C221 1.363 . S
C224 N222 1.356 . S
C225 C219 1.363 . S
C225 C220 1.379 . S
C225 N223 1.356 . S
N226 C218 1.356 . S
N226 H232 0.984 . S
N226 H233 0.984 . S
N227 C220 1.356 . S
N227 H230 0.984 . S
N227 H231 0.985 . S
H228 N223 0.984 . S
H229 N223 0.985 . S
H230 N227 0.984 . S
H231 N227 0.985 . S
H232 N226 0.984 . S
H233 N226 0.984 . S
H234 N222 0.984 1_455 S
H235 N222 0.985 . S
C236 C237 1.363 . S
C236 C242 1.379 . S
C236 N244 1.356 . S
C237 C236 1.363 . S
C237 C243 1.363 . S
C238 C239 1.363 . S
C238 C243 1.379 . S
C238 N245 1.356 . S
C239 C238 1.363 . S
C239 C242 1.363 . S
N240 C242 1.356 . S
N240 H252 0.984 1_554 S
N240 H253 0.985 . S
N241 C243 1.356 . S
N241 H246 0.984 . S
N241 H247 0.985 . S
C242 C236 1.379 . S
C242 C239 1.363 . S
C242 N240 1.356 . S
C243 C237 1.363 . S
C243 C238 1.379 . S
C243 N241 1.356 . S
N244 C236 1.356 . S
N244 H250 0.984 . S
N244 H251 0.984 . S
N245 C238 1.356 . S
N245 H248 0.984 . S
N245 H249 0.972 1_545 S
H246 N241 0.984 . S
H247 N241 0.985 . S
H248 N245 0.984 . S
H249 N245 0.972 1_565 S
H250 N244 0.984 . S
H251 N244 0.984 . S
H252 N240 0.984 1_556 S
H253 N240 0.985 . S
C254 C255 1.363 . S
C254 C260 1.379 . S
C254 N262 1.356 . S
C255 C254 1.363 . S
C255 C261 1.363 . S
C256 C257 1.363 . S
C256 C261 1.379 . S
C256 N263 1.356 . S
C257 C256 1.363 . S
C257 C260 1.363 . S
N258 C260 1.356 . S
N258 H270 0.984 . S
N258 H271 0.985 . S
N259 C261 1.356 . S
N259 H264 0.984 . S
N259 H265 0.985 . S
C260 C254 1.379 . S
C260 C257 1.363 . S
C260 N258 1.356 . S
C261 C255 1.363 . S
C261 C256 1.379 . S
C261 N259 1.356 . S
N262 C254 1.356 . S
N262 H268 0.984 . S
N262 H269 0.984 . S
N263 C256 1.356 . S
N263 H266 0.984 . S
N263 H267 0.985 . S
H264 N259 0.984 . S
H265 N259 0.985 . S
H266 N263 0.984 . S
H267 N263 0.985 . S
H268 N262 0.984 . S
H269 N262 0.984 . S
H270 N258 0.984 . S
H271 N258 0.985 . S
C272 C273 1.363 . S
C272 C278 1.379 . S
C272 N280 1.356 . S
C273 C272 1.363 . S
C273 C279 1.363 . S
C274 C275 1.363 . S
C274 C279 1.379 . S
C274 N281 1.356 . S
C275 C274 1.363 . S
C275 C278 1.363 . S
N276 C278 1.349 1_554 S
N276 H288 0.993 . S
N276 H289 0.983 1_554 S
N277 C279 1.356 . S
N277 H282 0.984 . S
N277 H283 0.985 . S
C278 C272 1.379 . S
C278 C275 1.363 . S
C278 N276 1.349 1_556 S
C279 C273 1.363 . S
C279 C274 1.379 . S
C279 N277 1.356 . S
N280 C272 1.356 . S
N280 H286 0.984 1_556 S
N280 H287 0.984 . S
N281 C274 1.356 . S
N281 H284 0.984 . S
N281 H285 0.985 . S
H282 N277 0.984 . S
H283 N277 0.985 . S
H284 N281 0.984 . S
H285 N281 0.985 . S
H286 N280 0.984 1_554 S
H287 N280 0.984 . S
H288 N276 0.993 . S
H289 N276 0.983 1_556 S
C290 C291 1.363 . S
C290 C296 1.379 . S
C290 N298 1.356 . S
C291 C290 1.363 . S
C291 C297 1.363 . S
C292 C293 1.363 . S
C292 C297 1.379 . S
C292 N299 1.356 . S
C293 C292 1.363 . S
C293 C296 1.363 . S
N294 C296 1.356 . S
N294 H306 0.984 . S
N294 H307 0.985 . S
N295 C297 1.356 . S
N295 H300 0.984 . S
N295 H301 0.985 . S
C296 C290 1.379 . S
C296 C293 1.363 . S
C296 N294 1.356 . S
C297 C291 1.363 . S
C297 C292 1.379 . S
C297 N295 1.356 . S
N298 C290 1.356 . S
N298 H304 0.984 . S
N298 H305 0.984 . S
N299 C292 1.356 . S
N299 H302 0.984 . S
N299 H303 0.985 . S
H300 N295 0.984 . S
H301 N295 0.985 . S
H302 N299 0.984 . S
H303 N299 0.985 . S
H304 N298 0.984 . S
H305 N298 0.984 . S
H306 N294 0.984 . S
H307 N294 0.985 . S
C308 C309 1.363 . S
C308 C314 1.379 . S
C308 N316 1.356 . S
C309 C308 1.363 . S
C309 C315 1.363 . S
C310 C311 1.363 . S
C310 C315 1.379 . S
C310 N317 1.356 . S
C311 C310 1.363 . S
C311 C314 1.363 . S
N312 C314 1.356 . S
N312 H324 0.984 . S
N312 H325 0.985 . S
N313 C315 1.356 . S
N313 H318 0.984 . S
N313 H319 0.965 1_554 S
C314 C308 1.379 . S
C314 C311 1.363 . S
C314 N312 1.356 . S
C315 C309 1.363 . S
C315 C310 1.379 . S
C315 N313 1.356 . S
N316 C308 1.356 . S
N316 H322 0.984 . S
N316 H323 0.984 . S
N317 C310 1.356 . S
N317 H320 0.984 . S
N317 H321 0.985 1_554 S
H318 N313 0.984 . S
H319 N313 0.965 1_556 S
H320 N317 0.984 . S
H321 N317 0.985 1_556 S
H322 N316 0.984 . S
H323 N316 0.984 . S
H324 N312 0.984 . S
H325 N312 0.985 . S
C326 C327 1.363 . S
C326 C332 1.379 . S
C326 N334 1.356 . S
C327 C326 1.363 . S
C327 C333 1.363 . S
C328 C329 1.363 . S
C328 C333 1.379 . S
C328 N335 1.356 . S
C329 C328 1.363 . S
C329 C332 1.363 . S
N330 C332 1.356 1_554 S
N330 H342 0.984 . S
N330 H343 0.985 . S
N331 C333 1.356 . S
N331 H336 0.984 . S
N331 H337 0.985 . S
C332 C326 1.379 . S
C332 C329 1.363 . S
C332 N330 1.356 1_556 S
C333 C327 1.363 . S
C333 C328 1.379 . S
C333 N331 1.356 . S
N334 C326 1.356 . S
N334 H340 0.984 1_556 S
N334 H341 0.984 . S
N335 C328 1.356 . S
N335 H338 0.984 . S
N335 H339 0.985 . S
H336 N331 0.984 . S
H337 N331 0.985 . S
H338 N335 0.984 . S
H339 N335 0.985 . S
H340 N334 0.984 1_554 S
H341 N334 0.984 . S
H342 N330 0.984 . S
H343 N330 0.985 . S
C344 C345 1.363 . S
C344 C350 1.379 . S
C344 N352 1.356 . S
C345 C344 1.363 . S
C345 C351 1.363 . S
C346 C347 1.363 . S
C346 C351 1.379 . S
C346 N353 1.356 . S
C347 C346 1.363 . S
C347 C350 1.363 . S
N348 C350 1.356 . S
N348 H360 0.984 . S
N348 H361 0.985 . S
N349 C351 1.356 . S
N349 H354 0.984 . S
N349 H355 0.985 . S
C350 C344 1.379 . S
C350 C347 1.363 . S
C350 N348 1.356 . S
C351 C345 1.363 . S
C351 C346 1.379 . S
C351 N349 1.356 . S
N352 C344 1.356 . S
N352 H358 0.984 . S
N352 H359 0.984 . S
N353 C346 1.356 . S
N353 H356 0.984 . S
N353 H357 0.991 . S
H354 N349 0.984 . S
H355 N349 0.985 . S
H356 N353 0.984 . S
H357 N353 0.991 . S
H358 N352 0.984 . S
H359 N352 0.984 . S
H360 N348 0.984 . S
H361 N348 0.985 . S
C362 C363 1.363 . S
C362 C368 1.379 . S
C362 N370 1.356 . S
C363 C362 1.363 . S
C363 C369 1.363 . S
C364 C365 1.363 . S
C364 C369 1.379 . S
C364 N371 1.356 . S
C365 C364 1.363 . S
C365 C368 1.363 . S
N366 C368 1.356 . S
N366 H378 0.984 . S
N366 H379 0.985 . S
N367 C369 1.356 . S
N367 H372 0.984 . S
N367 H373 0.985 . S
C368 C362 1.379 . S
C368 C365 1.363 . S
C368 N366 1.356 . S
C369 C363 1.363 . S
C369 C364 1.379 . S
C369 N367 1.356 . S
N370 C362 1.356 . S
N370 H376 0.984 . S
N370 H377 0.984 . S
N371 C364 1.356 . S
N371 H374 0.984 . S
N371 H375 0.985 . S
H372 N367 0.984 . S
H373 N367 0.985 . S
H374 N371 0.984 . S
H375 N371 0.985 . S
H376 N370 0.984 . S
H377 N370 0.984 . S
H378 N366 0.984 . S
H379 N366 0.985 . S
C380 C381 1.363 . S
C380 C386 1.379 . S
C380 N388 1.356 . S
C381 C380 1.363 . S
C381 C387 1.363 1_565 S
C382 C383 1.363 1_545 S
C382 C387 1.379 . S
C382 N389 1.356 . S
C383 C382 1.363 1_565 S
C383 C386 1.363 . S
N384 C386 1.356 . S
N384 H396 0.984 1_655 S
N384 H397 0.985 . S
N385 C387 1.356 . S
N385 H390 0.984 . S
N385 H391 0.985 . S
C386 C380 1.379 . S
C386 C383 1.363 . S
C386 N384 1.356 . S
C387 C381 1.363 1_545 S
C387 C382 1.379 . S
C387 N385 1.356 . S
N388 C380 1.356 . S
N388 H394 0.984 . S
N388 H395 0.984 . S
N389 C382 1.356 . S
N389 H392 0.984 . S
N389 H393 0.985 . S
H390 N385 0.984 . S
H391 N385 0.985 . S
H392 N389 0.984 . S
H393 N389 0.985 . S
H394 N388 0.984 . S
H395 N388 0.984 . S
H396 N384 0.984 1_455 S
H397 N384 0.985 . S
C398 C399 1.363 . S
C398 C404 1.379 . S
C398 N406 1.356 . S
C399 C398 1.363 . S
C399 C405 1.363 . S
C400 C401 1.363 . S
C400 C405 1.379 . S
C400 N407 1.356 . S
C401 C400 1.363 . S
C401 C404 1.363 . S
N402 C404 1.356 . S
N402 H414 0.984 . S
N402 H415 0.985 . S
N403 C405 1.356 . S
N403 H408 0.984 . S
N403 H409 0.985 . S
C404 C398 1.379 . S
C404 C401 1.363 . S
C404 N402 1.356 . S
C405 C399 1.363 . S
C405 C400 1.379 . S
C405 N403 1.356 . S
N406 C398 1.356 . S
N406 H412 0.984 . S
N406 H413 0.984 . S
N407 C400 1.356 . S
N407 H410 0.983 1_545 S
N407 H411 0.985 1_545 S
H408 N403 0.984 . S
H409 N403 0.985 . S
H410 N407 0.983 1_565 S
H411 N407 0.985 1_565 S
H412 N406 0.984 . S
H413 N406 0.984 . S
H414 N402 0.984 . S
H415 N402 0.985 . S
C416 C417 1.363 . S
C416 C422 1.379 . S
C416 N424 1.356 . S
C417 C416 1.363 . S
C417 C423 1.363 . S
C418 C419 1.363 . S
C418 C423 1.379 . S
C418 N425 1.356 . S
C419 C418 1.363 . S
C419 C422 1.363 . S
N420 C422 1.356 . S
N420 H432 0.984 . S
N420 H433 0.985 . S
N421 C423 1.356 . S
N421 H426 0.984 . S
N421 H427 0.985 . S
C422 C416 1.379 . S
C422 C419 1.363 . S
C422 N420 1.356 . S
C423 C417 1.363 . S
C423 C418 1.379 . S
C423 N421 1.356 . S
N424 C416 1.356 . S
N424 H430 0.984 . S
N424 H431 0.984 . S
N425 C418 1.356 . S
N425 H428 0.984 . S
N425 H429 0.985 . S
H426 N421 0.984 . S
H427 N421 0.985 . S
H428 N425 0.984 . S
H429 N425 0.985 . S
H430 N424 0.984 . S
H431 N424 0.984 . S
H432 N420 0.984 . S
H433 N420 0.985 . S
C434 C435 1.363 . S
C434 C440 1.379 . S
C434 N442 1.356 . S
C435 C434 1.363 . S
C435 C441 1.363 . S
C436 C437 1.363 . S
C436 C441 1.379 . S
C436 N443 1.356 . S
C437 C436 1.363 . S
C437 C440 1.363 . S
N438 C440 1.356 . S
N438 H450 0.984 . S
N438 H451 0.985 . S
N439 C441 1.356 . S
N439 H444 0.984 . S
N439 H445 0.985 . S
C440 C434 1.379 . S
C440 C437 1.363 . S
C440 N438 1.356 . S
C441 C435 1.363 . S
C441 C436 1.379 . S
C441 N439 1.356 . S
N442 C434 1.356 . S
N442 H448 0.984 . S
N442 H449 0.984 . S
N443 C436 1.356 . S
N443 H446 0.984 . S
N443 H447 0.985 . S
H444 N439 0.984 . S
H445 N439 0.985 . S
H446 N443 0.984 . S
H447 N443 0.985 . S
H448 N442 0.984 . S
H449 N442 0.984 . S
H450 N438 0.984 . S
H451 N438 0.985 . S
C452 C453 1.363 1_545 S
C452 C458 1.379 . S
C452 N460 1.356 . S
C453 C452 1.363 1_565 S
C453 C459 1.363 . S
C454 C455 1.363 . S
C454 C459 1.379 . S
C454 N461 1.356 1_556 S
C455 C454 1.363 . S
C455 C458 1.363 1_565 S
N456 C458 1.356 . S
N456 H468 0.984 . S
N456 H469 0.985 . S
N457 C459 1.356 1_554 S
N457 H462 0.984 1_554 S
N457 H463 0.985 . S
C458 C452 1.379 . S
C458 C455 1.363 1_545 S
C458 N456 1.356 . S
C459 C453 1.363 . S
C459 C454 1.379 . S
C459 N457 1.356 1_556 S
N460 C452 1.356 . S
N460 H466 0.984 . S
N460 H467 0.984 . S
N461 C454 1.356 1_554 S
N461 H464 0.984 . S
N461 H465 0.985 . S
H462 N457 0.984 1_556 S
H463 N457 0.985 . S
H464 N461 0.984 . S
H465 N461 0.985 . S
H466 N460 0.984 . S
H467 N460 0.984 . S
H468 N456 0.984 . S
H469 N456 0.985 . S
C470 C471 1.363 . S
C470 C476 1.379 . S
C470 N478 1.356 . S
C471 C470 1.363 . S
C471 C477 1.363 . S
C472 C473 1.363 . S
C472 C477 1.379 . S
C472 N479 1.356 . S
C473 C472 1.363 . S
C473 C476 1.363 . S
N474 C476 1.353 1_565 S
N474 H486 0.988 . S
N474 H487 0.985 . S
N475 C477 1.356 . S
N475 H480 0.984 . S
N475 H481 0.985 . S
C476 C470 1.379 . S
C476 C473 1.363 . S
C476 N474 1.353 1_545 S
C477 C471 1.363 . S
C477 C472 1.379 . S
C477 N475 1.356 . S
N478 C470 1.356 . S
N478 H484 0.977 1_545 S
N478 H485 0.984 . S
N479 C472 1.356 . S
N479 H482 0.984 . S
N479 H483 0.985 . S
H480 N475 0.984 . S
H481 N475 0.985 . S
H482 N479 0.984 . S
H483 N479 0.985 . S
H484 N478 0.977 1_565 S
H485 N478 0.984 . S
H486 N474 0.988 . S
H487 N474 0.985 . S
C488 C489 1.363 . S
C488 C494 1.379 . S
C488 N496 1.356 . S
C489 C488 1.363 . S
C489 C495 1.363 . S
C490 C491 1.363 . S
C490 C495 1.379 . S
C490 N497 1.356 1_554 S
C491 C490 1.363 . S
C491 C494 1.363 . S
N492 C494 1.356 . S
N492 H504 0.984 . S
N492 H505 0.985 . S
N493 C495 1.356 . S
N493 H498 0.984 . S
N493 H499 0.985 . S
C494 C488 1.379 . S
C494 C491 1.363 . S
C494 N492 1.356 . S
C495 C489 1.363 . S
C495 C490 1.379 . S
C495 N493 1.356 . S
N496 C488 1.356 . S
N496 H502 0.984 . S
N496 H503 0.984 . S
N497 C490 1.356 1_556 S
N497 H500 0.984 . S
N497 H501 0.985 . S
H498 N493 0.984 . S
H499 N493 0.985 . S
H500 N497 0.984 . S
H501 N497 0.985 . S
H502 N496 0.984 . S
H503 N496 0.984 . S
H504 N492 0.984 . S
H505 N492 0.985 . S
C506 C507 1.363 . S
C506 C512 1.379 . S
C506 N514 1.356 . S
C507 C506 1.363 . S
C507 C513 1.363 . S
C508 C509 1.363 . S
C508 C513 1.379 . S
C508 N515 1.356 . S
C509 C508 1.363 . S
C509 C512 1.363 . S
N510 C512 1.356 . S
N510 H522 0.984 . S
N510 H523 0.985 . S
N511 C513 1.356 . S
N511 H516 0.984 . S
N511 H517 0.985 . S
C512 C506 1.379 . S
C512 C509 1.363 . S
C512 N510 1.356 . S
C513 C507 1.363 . S
C513 C508 1.379 . S
C513 N511 1.356 . S
N514 C506 1.356 . S
N514 H520 0.984 . S
N514 H521 0.984 . S
N515 C508 1.356 . S
N515 H518 0.984 . S
N515 H519 0.985 . S
H516 N511 0.984 . S
H517 N511 0.985 . S
H518 N515 0.984 . S
H519 N515 0.985 . S
H520 N514 0.984 . S
H521 N514 0.984 . S
H522 N510 0.984 . S
H523 N510 0.985 . S
C524 C525 1.363 . S
C524 C530 1.379 1_556 S
C524 N532 1.356 1_556 S
C525 C524 1.363 . S
C525 C531 1.363 . S
C526 C527 1.363 . S
C526 C531 1.379 . S
C526 N533 1.356 . S
C527 C526 1.363 . S
C527 C530 1.363 1_556 S
N528 C530 1.356 1_455 S
N528 H540 0.984 . S
N528 H541 0.985 . S
N529 C531 1.356 . S
N529 H534 0.984 . S
N529 H535 0.985 . S
C530 C524 1.379 1_554 S
C530 C527 1.363 1_554 S
C530 N528 1.356 1_655 S
C531 C525 1.363 . S
C531 C526 1.379 . S
C531 N529 1.356 . S
N532 C524 1.356 1_554 S
N532 H538 0.984 1_655 S
N532 H539 0.984 1_554 S
N533 C526 1.356 . S
N533 H536 0.984 . S
N533 H537 0.985 . S
H534 N529 0.984 . S
H535 N529 0.985 . S
H536 N533 0.984 . S
H537 N533 0.985 . S
H538 N532 0.984 1_455 S
H539 N532 0.984 1_556 S
H540 N528 0.984 . S
H541 N528 0.985 . S
C542 C543 1.363 . S
C542 C548 1.379 . S
C542 N550 1.356 . S
C543 C542 1.363 . S
C543 C549 1.363 . S
C544 C545 1.363 . S
C544 C549 1.379 . S
C544 N551 1.356 . S
C545 C544 1.363 . S
C545 C548 1.363 . S
N546 C548 1.356 . S
N546 H558 0.984 1_554 S
N546 H559 0.985 . S
N547 C549 1.356 . S
N547 H552 0.984 . S
N547 H553 0.985 . S
C548 C542 1.379 . S
C548 C545 1.363 . S
C548 N546 1.356 . S
C549 C543 1.363 . S
C549 C544 1.379 . S
C549 N547 1.356 . S
N550 C542 1.356 . S
N550 H556 0.984 1_554 S
N550 H557 0.984 . S
N551 C544 1.356 . S
N551 H554 0.984 . S
N551 H555 0.985 . S
H552 N547 0.984 . S
H553 N547 0.985 . S
H554 N551 0.984 . S
H555 N551 0.985 . S
H556 N550 0.984 1_556 S
H557 N550 0.984 . S
H558 N546 0.984 1_556 S
H559 N546 0.985 . S
C560 C561 1.363 . S
C560 C566 1.379 . S
C560 N568 1.356 . S
C561 C560 1.363 . S
C561 C567 1.363 . S
C562 C563 1.363 . S
C562 C567 1.379 . S
C562 N569 1.356 . S
C563 C562 1.363 . S
C563 C566 1.363 . S
N564 C566 1.356 . S
N564 H576 0.984 . S
N564 H577 0.985 . S
N565 C567 1.356 . S
N565 H570 0.984 . S
N565 H571 0.985 . S
C566 C560 1.379 . S
C566 C563 1.363 . S
C566 N564 1.356 . S
C567 C561 1.363 . S
C567 C562 1.379 . S
C567 N565 1.356 . S
N568 C560 1.356 . S
N568 H574 0.984 . S
N568 H575 0.984 . S
N569 C562 1.356 . S
N569 H572 0.984 . S
N569 H573 0.985 1_455 S
H570 N565 0.984 . S
H571 N565 0.985 . S
H572 N569 0.984 . S
H573 N569 0.985 1_655 S
H574 N568 0.984 . S
H575 N568 0.984 . S
H576 N564 0.984 . S
H577 N564 0.985 . S
C578 C579 1.363 . S
C578 C584 1.379 . S
C578 N586 1.356 . S
C579 C578 1.363 . S
C579 C585 1.363 . S
C580 C581 1.363 . S
C580 C585 1.379 . S
C580 N587 1.356 . S
C581 C580 1.363 . S
C581 C584 1.363 . S
N582 C584 1.356 . S
N582 H594 0.984 . S
N582 H595 0.985 . S
N583 C585 1.356 . S
N583 H588 0.984 . S
N583 H589 0.985 . S
C584 C578 1.379 . S
C584 C581 1.363 . S
C584 N582 1.356 . S
C585 C579 1.363 . S
C585 C580 1.379 . S
C585 N583 1.356 . S
N586 C578 1.356 . S
N586 H592 0.984 . S
N586 H593 0.984 . S
N587 C580 1.356 . S
N587 H590 0.984 . S
N587 H591 0.985 . S
H588 N583 0.984 . S
H589 N583 0.985 . S
H590 N587 0.984 . S
H591 N587 0.985 . S
H592 N586 0.984 . S
H593 N586 0.984 . S
H594 N582 0.984 . S
H595 N582 0.985 . S
C165 C5 1.566 . S
C167 C90 1.549 . S
C183 C14 1.554 . S
C185 C114 1.524 . S
C203 C134 1.433 . S
C201 C25 1.423 . S
C219 C34 1.424 . S
C221 C157 1.438 . S
C239 C116 1.589 . S
C237 C7 1.638 . S
C257 C92 1.582 . S
C255 C13 1.640 . S
C275 C160 1.509 . S
C273 C23 1.552 . S
C293 C137 1.499 . S
C291 C31 1.537 . S
C309 C4 1.469 . S
C311 C162 1.425 . S
C329 C111 1.561 . S
C327 C22 1.553 . S
C345 C32 1.548 . S
C347 C89 1.559 . S
C363 C16 1.455 . S
C365 C139 1.410 . S
C383 C93 1.563 . S
C381 C41 1.563 . S
C399 C50 1.554 . S
C401 C115 1.533 . S
C417 C61 1.603 . S
C419 C135 1.629 . S
C435 C67 1.611 . S
C437 C158 1.637 . S
C453 C40 1.508 . S
C455 C113 1.488 . S
C473 C91 1.510 . S
C471 C52 1.496 . S
C491 C161 1.463 . S
C489 C59 1.510 . S
C509 C138 1.472 . S
C507 C70 1.519 . S
C525 C43 1.694 . S
C527 C159 1.668 . S
C545 C112 1.519 . S
C543 C58 1.493 . S
C563 C88 1.517 . S
C561 C68 1.491 . S
C579 C49 1.684 . S
C581 C136 1.655 . S
