# Generated by pormake.
# Topology zzz, (3,6)-cn, num edge types: 1
# Building blocks:
#     Node 0, Type 0, BuildingBlock: QEWDON_clean_linker_0, # of connection points: 3
#     Node 1, Type 0, BuildingBlock: QEWDON_clean_linker_0, # of connection points: 3
#     Node 2, Type 0, BuildingBlock: QEWDON_clean_linker_0, # of connection points: 3
#     Node 3, Type 0, BuildingBlock: QEWDON_clean_linker_0, # of connection points: 3
#     Node 4, Type 0, BuildingBlock: QEWDON_clean_linker_0, # of connection points: 3
#     Node 5, Type 0, BuildingBlock: QEWDON_clean_linker_0, # of connection points: 3
#     Node 6, Type 0, BuildingBlock: QEWDON_clean_linker_0, # of connection points: 3
#     Node 7, Type 0, BuildingBlock: QEWDON_clean_linker_0, # of connection points: 3
#     Node 8, Type 1, BuildingBlock: MIFKUJ_clean_sbu_0, # of connection points: 6
#     Node 9, Type 1, BuildingBlock: MIFKUJ_clean_sbu_0, # of connection points: 6
#     Node 10, Type 1, BuildingBlock: MIFKUJ_clean_sbu_0, # of connection points: 6
#     Node 11, Type 1, BuildingBlock: MIFKUJ_clean_sbu_0, # of connection points: 6
#     Edge 12, Type (0, 1), BuildingBlock: AJUNOK_clean_linker_0, # of connection points: 2
#     Edge 13, Type (0, 1), BuildingBlock: AJUNOK_clean_linker_0, # of connection points: 2
#     Edge 14, Type (0, 1), BuildingBlock: AJUNOK_clean_linker_0, # of connection points: 2
#     Edge 15, Type (0, 1), BuildingBlock: AJUNOK_clean_linker_0, # of connection points: 2
#     Edge 16, Type (0, 1), BuildingBlock: AJUNOK_clean_linker_0, # of connection points: 2
#     Edge 17, Type (0, 1), BuildingBlock: AJUNOK_clean_linker_0, # of connection points: 2
#     Edge 18, Type (0, 1), BuildingBlock: AJUNOK_clean_linker_0, # of connection points: 2
#     Edge 19, Type (0, 1), BuildingBlock: AJUNOK_clean_linker_0, # of connection points: 2
#     Edge 20, Type (0, 1), BuildingBlock: AJUNOK_clean_linker_0, # of connection points: 2
#     Edge 21, Type (0, 1), BuildingBlock: AJUNOK_clean_linker_0, # of connection points: 2
#     Edge 22, Type (0, 1), BuildingBlock: AJUNOK_clean_linker_0, # of connection points: 2
#     Edge 23, Type (0, 1), BuildingBlock: AJUNOK_clean_linker_0, # of connection points: 2
#     Edge 24, Type (0, 1), BuildingBlock: AJUNOK_clean_linker_0, # of connection points: 2
#     Edge 25, Type (0, 1), BuildingBlock: AJUNOK_clean_linker_0, # of connection points: 2
#     Edge 26, Type (0, 1), BuildingBlock: AJUNOK_clean_linker_0, # of connection points: 2
#     Edge 27, Type (0, 1), BuildingBlock: AJUNOK_clean_linker_0, # of connection points: 2
#     Edge 28, Type (0, 1), BuildingBlock: AJUNOK_clean_linker_0, # of connection points: 2
#     Edge 29, Type (0, 1), BuildingBlock: AJUNOK_clean_linker_0, # of connection points: 2
#     Edge 30, Type (0, 1), BuildingBlock: AJUNOK_clean_linker_0, # of connection points: 2
#     Edge 31, Type (0, 1), BuildingBlock: AJUNOK_clean_linker_0, # of connection points: 2
#     Edge 32, Type (0, 1), BuildingBlock: AJUNOK_clean_linker_0, # of connection points: 2
#     Edge 33, Type (0, 1), BuildingBlock: AJUNOK_clean_linker_0, # of connection points: 2
#     Edge 34, Type (0, 1), BuildingBlock: AJUNOK_clean_linker_0, # of connection points: 2
#     Edge 35, Type (0, 1), BuildingBlock: AJUNOK_clean_linker_0, # of connection points: 2
# Relax obj value: 0.054
# Max RMSD: 0.102
# Mean RMSD: 0.040
data_MOF--net-zzz--node1-MIFKUJ_clean_sbu_0--node2-QEWDON_clean_linker_0--edge1-AJUNOK_clean_linker_0
_symmetry_space_group_name_H-M    P1
_symmetry_Int_Tables_number       1
_symmetry_cell_setting            triclinic
loop_
_symmetry_equiv_pos_as_xyz
'x, y, z'
_cell_length_a     40.851795
_cell_length_b     41.038
_cell_length_c     11.952172
_cell_angle_alpha  89.790685
_cell_angle_beta   89.748849
_cell_angle_gamma 90.007826
loop_
_atom_site_label
_atom_site_type_symbol
_atom_site_fract_x
_atom_site_fract_y
_atom_site_fract_z
_atom_type_partial_charge
H0 H 0.74804 0.5306 0.89959 0.0
C1 C 0.76335 0.52433 0.97012 0.0
C2 C 0.79685 0.52065 0.95177 0.0
C3 C 0.75012 0.52031 0.0788 0.0
H4 H 0.84383 0.51164 0.02503 0.0
C5 C 0.81772 0.51425 0.0406 0.0
C6 C 0.80566 0.5104 0.14846 0.0
C7 C 0.77179 0.51305 0.1684 0.0
C8 C 0.7141 0.52463 0.09748 0.0
H9 H 0.76261 0.50907 0.25242 0.0
C10 C 0.69138 0.51815 0.01114 0.0
C11 C 0.65809 0.52596 0.02392 0.0
C12 C 0.70222 0.53726 0.19926 0.0
H13 H 0.71864 0.54322 0.26695 0.0
C14 C 0.66889 0.54359 0.21388 0.0
H15 H 0.69946 0.50786 0.93245 0.0
C16 C 0.64699 0.53832 0.1266 0.0
H17 H 0.62136 0.54416 0.13888 0.0
H18 H 0.66012 0.55341 0.29243 0.0
H19 H 0.98168 0.74663 0.91225 0.0
C20 C 0.98817 0.75821 0.99045 0.0
C21 C 0.99941 0.79041 0.98903 0.0
C22 C 0.9836 0.74175 0.09325 0.0
H23 H 0.01361 0.83156 0.08787 0.0
C24 C 0.00625 0.80609 0.08916 0.0
C25 C 1.00004 0.79104 0.1913 0.0
C26 C 0.98909 0.75868 0.19437 0.0
C27 C 0.97101 0.7078 0.09387 0.0
H28 H 0.98445 0.74712 0.27449 0.0
C29 C 0.98246 0.68508 0.0147 0.0
C30 C 0.9696 0.65333 0.01133 0.0
C31 C 0.94666 0.69822 0.17067 0.0
H32 H 0.93695 0.71525 0.23131 0.0
C33 C 0.93376 0.66676 0.16755 0.0
H34 H 1.00165 0.69198 0.95635 0.0
C35 C 0.94491 0.64451 0.08805 0.0
H36 H 0.93384 0.62055 0.08558 0.0
H37 H 0.91469 0.65974 0.22601 0.0
H38 H 0.76365 0.98946 0.92276 0.0
C39 C 0.75198 0.98876 0.00426 0.0
C40 C 0.71973 0.99998 0.01409 0.0
C41 C 0.76833 0.97537 0.09784 0.0
H42 H 0.67766 0.00397 0.1213 0.0
C43 C 0.70317 0.99664 0.11545 0.0
C44 C 0.71778 0.98194 0.20737 0.0
C45 C 0.75077 0.97229 0.20057 0.0
C46 C 0.80269 0.96288 0.08543 0.0
H47 H 0.76226 0.96213 0.27426 0.0
C48 C 0.82487 0.97685 0.00711 0.0
C49 C 0.85662 0.96398 -0.00736 0.0
C50 C 0.81328 0.93594 0.1491 0.0
H51 H 0.79701 0.92373 0.20731 0.0
C52 C 0.84491 0.92364 0.13655 0.0
H53 H 0.81781 0.99796 0.9583 0.0
C54 C 0.86643 0.93749 0.05912 0.0
H55 H 0.89066 0.92709 0.04973 0.0
H56 H 0.85265 0.90292 0.18612 0.0
H57 H 0.51843 0.76827 0.87871 0.0
C58 C 0.51551 0.75383 0.95418 0.0
C59 C 0.50425 0.72177 0.94487 0.0
C60 C 0.52524 0.7663 0.05882 0.0
H61 H 0.49468 0.67692 0.03218 0.0
C62 C 0.50234 0.70216 0.04005 0.0
C63 C 0.51296 0.7132 0.14357 0.0
C64 C 0.52381 0.74558 0.15426 0.0
C65 C 0.54013 0.79952 0.06374 0.0
H66 H 0.53182 0.75415 0.23524 0.0
C67 C 0.52889 0.82489 -0.00681 0.0
C68 C 0.54559 0.85493 0.98659 0.0
C69 C 0.56752 0.8053 0.13171 0.0
H70 H 0.57729 0.78635 0.18521 0.0
C71 C 0.58362 0.83525 0.12788 0.0
H72 H 0.5071 0.82124 0.94352 0.0
C73 C 0.57304 0.85973 0.0553 0.0
H74 H 0.58673 0.88231 0.05177 0.0
H75 H 0.60492 0.83928 0.17963 0.0
H76 H 0.26772 0.50877 0.25386 0.0
C77 C 0.25415 0.50141 0.1806 0.0
C78 C 0.22106 0.49352 0.19328 0.0
C79 C 0.26884 0.50137 0.07326 0.0
H80 H 0.17605 0.48213 0.11116 0.0
C81 C 0.20217 0.48612 0.10021 0.0
C82 C 0.21515 0.48848 -0.00712 0.0
C83 C 0.24873 0.495 0.97918 0.0
C84 C 0.30429 0.51016 0.05961 0.0
H85 H 0.25852 0.49607 0.89503 0.0
C86 C 0.32697 0.50437 0.1466 0.0
C87 C 0.35996 0.51356 0.13493 0.0
C88 C 0.31574 0.52525 0.96063 0.0
H89 H 0.29933 0.53144 0.89311 0.0
C90 C 0.34872 0.53346 0.94796 0.0
H91 H 0.31937 0.49251 0.22349 0.0
C92 C 0.37076 0.52762 0.03441 0.0
H93 H 0.39612 0.53479 0.02391 0.0
H94 H 0.35712 0.54493 0.87134 0.0
H95 H 1.00004 0.26669 0.27261 0.0
C96 C 0.00773 0.25477 0.19614 0.0
C97 C 0.01954 0.2228 0.20139 0.0
C98 C 1.00373 0.27027 0.09147 0.0
H99 H 0.03438 0.18072 0.1091 0.0
C100 C 0.02749 0.20624 0.10347 0.0
C101 C 0.02126 0.22001 -0.00089 0.0
C102 C 0.01075 0.25256 -0.00706 0.0
C103 C 0.98894 0.30342 0.08499 0.0
H104 H 0.00635 0.26325 0.91141 0.0
C105 C 0.99654 0.32737 0.16509 0.0
C106 C 0.98206 0.35842 0.15985 0.0
C107 C 0.96626 0.31105 0.00039 0.0
H108 H 0.95896 0.29303 0.93945 0.0
C109 C 0.95199 0.34191 -0.00507 0.0
H110 H 0.01404 0.32216 0.23062 0.0
C111 C 0.95985 0.36553 0.07395 0.0
H112 H 0.94824 0.38923 0.0691 0.0
H113 H 0.93451 0.34742 0.92975 0.0
H114 H 0.24936 0.00218 0.26833 0.0
C115 C 0.26291 0.00802 0.19288 0.0
C116 C 0.29639 0.01418 0.20173 0.0
C117 C 0.24763 0.00815 0.08689 0.0
H118 H 0.34131 0.02375 0.11501 0.0
C119 C 0.31507 0.02023 0.10652 0.0
C120 C 0.30138 0.01856 0.00054 0.0
C121 C 0.26754 0.01284 0.99012 0.0
C122 C 0.21151 0.00193 0.07839 0.0
H123 H 0.25721 0.01199 0.90703 0.0
C124 C 0.19006 0.0099 0.16766 0.0
C125 C 0.15646 0.00265 0.16222 0.0
C126 C 0.19815 0.98709 0.98268 0.0
H127 H 0.21348 0.97951 0.91358 0.0
C128 C 0.16461 0.9809 0.97571 0.0
H129 H 0.19916 0.02182 0.24193 0.0
C130 C 0.14386 0.98858 0.06476 0.0
H131 H 0.11808 0.98265 0.05885 0.0
H132 H 0.15474 0.96945 0.90168 0.0
H133 H 0.50721 0.24587 0.25561 0.0
C134 C 0.49787 0.26069 0.18783 0.0
C135 C 0.49281 0.29391 0.20688 0.0
C136 C 0.49262 0.24742 0.08024 0.0
H137 H 0.48039 0.34012 0.13555 0.0
C138 C 0.48253 0.31413 0.12017 0.0
C139 C 0.47879 0.30229 0.01207 0.0
C140 C 0.48313 0.26879 -0.00756 0.0
C141 C 0.4997 0.21213 0.05815 0.0
H142 H 0.47991 0.25994 0.90807 0.0
C143 C 0.49697 0.18845 0.14416 0.0
C144 C 0.5066 0.156 0.1257 0.0
C145 C 0.51101 0.20199 0.95211 0.0
H146 H 0.51465 0.21914 0.88432 0.0
C147 C 0.51901 0.16946 0.93241 0.0
H148 H 0.48826 0.19518 0.22657 0.0
C149 C 0.51704 0.14661 0.01862 0.0
H150 H 0.52422 0.12165 0.00229 0.0
H151 H 0.52762 0.16209 0.85053 0.0
Zn152 Zn 1.00143 0.05655 0.58826 0.0
Zn153 Zn 0.0114 0.95511 0.60112 0.0
C154 C 0.9944 0.10799 0.72727 0.0
O155 O 0.96625 0.10485 0.67578 0.0
C156 C 0.01922 0.90147 0.47092 0.0
O157 O 0.04711 0.90449 0.52431 0.0
O158 O 0.99502 0.09107 0.47162 0.0
O159 O 0.03902 0.02748 0.53355 0.0
O160 O 0.05301 0.97541 0.54661 0.0
C161 C 0.02041 0.10907 0.46759 0.0
O162 O 0.04711 0.09897 0.51781 0.0
O163 O 0.01581 0.08574 0.71428 0.0
C164 C 0.99181 0.90566 0.7315 0.0
O165 O 0.96524 0.91511 0.67901 0.0
O166 O 0.01733 0.92336 0.72498 0.0
O167 O 0.9764 0.98661 0.64307 0.0
O168 O 0.95844 0.03674 0.64378 0.0
O169 O 0.99808 0.92415 0.47966 0.0
C170 C 0.05889 0.00426 0.51329 0.0
C171 C 0.95441 0.00699 0.66885 0.0
Zn172 Zn 0.4643 0.00255 0.576 0.0
Zn173 Zn 0.55549 0.01518 0.62184 0.0
C174 C 0.41627 0.99454 0.73528 0.0
O175 O 0.41908 0.96564 0.68919 0.0
C176 C 0.61036 0.0056 0.49292 0.0
O177 O 0.61015 0.03664 0.51949 0.0
O178 O 0.42608 0.99287 0.47723 0.0
O179 O 0.48636 0.04086 0.49592 0.0
O180 O 0.53856 0.05194 0.52907 0.0
C181 C 0.4066 0.01713 0.47771 0.0
O182 O 0.41623 0.04438 0.5246 0.0
O183 O 0.43823 0.01579 0.71371 0.0
C184 C 0.60516 0.00662 0.76273 0.0
O185 O 0.59381 0.97733 0.74141 0.0
O186 O 0.5888 0.03126 0.73077 0.0
O187 O 0.5224 0.9906 0.71585 0.0
O188 O 0.49013 0.96115 0.61201 0.0
O189 O 0.58544 0.98826 0.51878 0.0
C190 C 0.51175 0.05833 0.48039 0.0
C191 C 0.51201 0.9628 0.687 0.0
Zn192 Zn 0.51141 0.45968 0.58432 0.0
Zn193 Zn 0.50139 0.554 0.57554 0.0
C194 C 0.50794 0.41564 0.75243 0.0
O195 O 0.53905 0.41741 0.72449 0.0
C196 C 0.49034 0.59856 0.40876 0.0
O197 O 0.46171 0.59569 0.45833 0.0
O198 O 0.52456 0.41932 0.49867 0.0
O199 O 0.47934 0.48199 0.479 0.0
O200 O 0.4606 0.52677 0.55877 0.0
C201 C 0.49975 0.4007 0.48917 0.0
O202 O 0.47082 0.412 0.51773 0.0
O203 O 0.48848 0.43719 0.71427 0.0
C204 C 0.51232 0.61554 0.65643 0.0
O205 O 0.53931 0.60887 0.60099 0.0
O206 O 0.49079 0.59331 0.66789 0.0
O207 O 0.54088 0.53498 0.65239 0.0
O208 O 0.55134 0.48213 0.64918 0.0
O209 O 0.51217 0.57718 0.42941 0.0
C210 C 0.45854 0.50499 0.48401 0.0
C211 C 0.559 0.51094 0.6778 0.0
Zn212 Zn 0.05365 0.51252 0.57433 0.0
Zn213 Zn 0.96104 0.49935 0.58367 0.0
C214 C 0.10034 0.51634 0.73252 0.0
O215 O 0.09579 0.54607 0.69477 0.0
C216 C 0.92117 0.48436 0.40876 0.0
O217 O 0.92365 0.45683 0.46455 0.0
O218 O 0.09207 0.5235 0.47636 0.0
O219 O 0.02959 0.4783 0.48242 0.0
O220 O 0.98818 0.45867 0.58053 0.0
C221 C 0.1102 0.49835 0.4686 0.0
O222 O 0.09904 0.47042 0.50706 0.0
O223 O 0.0797 0.49447 0.70505 0.0
C224 C 0.90154 0.51834 0.65677 0.0
O225 O 0.91304 0.54402 0.60364 0.0
O226 O 0.91977 0.49342 0.66942 0.0
O227 O 0.98022 0.53848 0.65695 0.0
O228 O 0.03183 0.5535 0.63268 0.0
O229 O 0.9406 0.50756 0.433 0.0
C230 C 0.00747 0.4569 0.49737 0.0
C231 C 1.00341 0.55839 0.67225 0.0
C232 C 0.10597 0.02638 0.25044 0.0
C233 C 0.13464 0.00761 0.26047 0.0
C234 C 0.08274 0.02756 0.33746 0.0
C235 C 0.08699 0.00929 0.43628 0.0
H236 H 0.10099 0.03938 0.1733 0.0
H237 H 0.06032 0.0411 0.32409 0.0
S238 S 0.15894 0.95821 0.50678 0.0
N239 N 0.16708 0.9723 0.38003 0.0
N240 N 0.12304 0.9737 0.54199 0.0
C241 C 0.11624 0.99162 0.44913 0.0
C242 C 0.14015 0.99098 0.36162 0.0
C243 C 0.48008 0.12398 0.28153 0.0
C244 C 0.50823 0.13231 0.21962 0.0
C245 C 0.48136 0.10033 0.36696 0.0
C246 C 0.51101 0.08477 0.39499 0.0
H247 H 0.4568 0.13525 0.26197 0.0
H248 H 0.45898 0.09411 0.41103 0.0
S249 S 0.59175 0.09892 0.25852 0.0
N250 N 0.56652 0.1238 0.19278 0.0
N251 N 0.56922 0.07985 0.35322 0.0
C252 C 0.53943 0.09356 0.33474 0.0
C253 C 0.53796 0.11718 0.24711 0.0
C254 C 0.41011 0.48878 0.21856 0.0
C255 C 0.38315 0.50976 0.22884 0.0
C256 C 0.43378 0.48679 0.30297 0.0
C257 C 0.43172 0.50618 0.40005 0.0
H258 H 0.41307 0.47406 0.14411 0.0
H259 H 0.45429 0.47046 0.29041 0.0
S260 S 0.36504 0.56469 0.46641 0.0
N261 N 0.35498 0.54969 0.34321 0.0
N262 N 0.39958 0.54652 0.50164 0.0
C263 C 0.40442 0.52695 0.41161 0.0
C264 C 0.38012 0.52858 0.32611 0.0
C265 C 0.9827 0.37745 0.35844 0.0
C266 C 0.98972 0.38337 0.24493 0.0
C267 C 0.98844 0.40137 0.43974 0.0
C268 C 1.00207 0.43175 0.41056 0.0
H269 H 0.97213 0.35438 0.38417 0.0
H270 H 0.98233 0.39596 0.52612 0.0
S271 S 0.02508 0.45886 0.12384 0.0
N272 N 0.01088 0.42153 0.10695 0.0
N273 N 0.02239 0.4663 0.25927 0.0
C274 C 0.00957 0.43772 0.2971 0.0
C275 C 1.00317 0.41359 0.21439 0.0
C276 C 0.91199 0.98577 0.94131 0.0
C277 C 0.87997 0.97763 0.9085 0.0
C278 C 0.93563 0.99558 0.86266 0.0
C279 C 0.92822 0.99759 0.7482 0.0
H280 H 0.91894 0.98415 0.02853 0.0
H281 H 0.96006 1.00134 0.89151 0.0
S282 S 0.84842 0.97874 0.61784 0.0
N283 N 0.84223 0.97218 0.75284 0.0
N284 N 0.88684 0.99092 0.60519 0.0
C285 C 0.8963 0.99011 0.71394 0.0
C286 C 0.8721 0.9801 0.79413 0.0
C287 C 0.53518 0.91402 0.94552 0.0
C288 C 0.53489 0.88148 0.90872 0.0
C289 C 0.52754 0.93984 0.87335 0.0
C290 C 0.51874 0.9344 0.76114 0.0
H291 H 0.54153 0.91972 0.03116 0.0
H292 H 0.5285 0.96438 0.90636 0.0
S293 S 0.51447 0.85403 0.62133 0.0
N294 N 0.52563 0.84535 0.75072 0.0
N295 N 0.51007 0.89402 0.61631 0.0
C296 C 0.51762 0.90203 0.72331 0.0
C297 C 0.52593 0.87559 0.79666 0.0
C298 C 0.62986 0.49281 0.87618 0.0
C299 C 0.63507 0.52297 0.92852 0.0
C300 C 0.60623 0.48938 0.79169 0.0
C301 C 0.58716 0.51608 0.75542 0.0
H302 H 0.64334 0.4715 0.90338 0.0
H303 H 0.60228 0.46536 0.75701 0.0
S304 S 0.59475 0.60128 0.85819 0.0
N305 N 0.62161 0.58051 0.93255 0.0
N306 N 0.57759 0.57449 0.77415 0.0
C307 C 0.59359 0.54677 0.80381 0.0
C308 C 0.61738 0.55009 0.89025 0.0
C309 C 0.98381 0.63882 0.81249 0.0
C310 C 0.98129 0.62963 0.92613 0.0
C311 C 0.99231 0.61603 0.72967 0.0
C312 C 0.99861 0.58346 0.75829 0.0
H313 H 0.97808 0.66351 0.78692 0.0
H314 H 0.99292 0.62364 0.64281 0.0
S315 S 0.99864 0.54758 0.04323 0.0
N316 N 0.98856 0.58612 0.06263 0.0
N317 N 1.00376 0.54338 0.9069 0.0
C318 C 0.99733 0.57422 0.87136 0.0
C319 C 0.98888 0.59729 0.9554 0.0
C320 C 0.98877 0.18383 0.31634 0.0
C321 C 0.0172 0.20271 0.30271 0.0
C322 C 0.98973 0.15397 0.37307 0.0
C323 C 0.01916 0.14216 0.41839 0.0
H324 H 0.96647 0.19059 0.27324 0.0
H325 H 0.96764 0.13939 0.37627 0.0
S326 S 0.09874 0.18614 0.42287 0.0
N327 N 0.07421 0.21014 0.35044 0.0
N328 N 0.07625 0.1545 0.46077 0.0
C329 C 0.04694 0.16261 0.41509 0.0
C330 C 0.04587 0.19287 0.35654 0.0
C331 C 0.33344 0.98367 0.32369 0.0
C332 C 0.31432 0.01169 0.30711 0.0
C333 C 0.3626 0.98518 0.38422 0.0
C334 C 0.37338 0.01476 0.43019 0.0
H335 H 0.32768 0.9614 0.27945 0.0
H336 H 0.37771 0.96353 0.38876 0.0
S337 S 0.32783 0.0932 0.42898 0.0
N338 N 0.30508 0.06828 0.35402 0.0
N339 N 0.35943 0.07137 0.47118 0.0
C340 C 0.35232 0.04198 0.42509 0.0
C341 C 0.32275 0.04034 0.36291 0.0
C342 C 0.52882 0.33018 0.31331 0.0
C343 C 0.50094 0.31005 0.31255 0.0
C344 C 0.52959 0.35852 0.37821 0.0
C345 C 0.50247 0.36736 0.44404 0.0
H346 H 0.54838 0.32614 0.2534 0.0
H347 H 0.55023 0.37489 0.36889 0.0
S348 S 0.42774 0.31765 0.49339 0.0
N349 N 0.44866 0.29722 0.39812 0.0
N350 N 0.45025 0.34983 0.52376 0.0
C351 C 0.47656 0.34488 0.45583 0.0
C352 C 0.47581 0.31621 0.3893 0.0
C353 C 0.1911 0.46974 0.35161 0.0
C354 C 0.20315 0.49778 0.29856 0.0
C355 C 0.16182 0.47071 0.41216 0.0
C356 C 0.14352 0.49973 0.4206 0.0
H357 H 0.20251 0.44632 0.33637 0.0
H358 H 0.15248 0.44799 0.4459 0.0
S359 S 0.16862 0.58102 0.31429 0.0
N360 N 0.19781 0.55612 0.27141 0.0
N361 N 0.1426 0.55825 0.38624 0.0
C362 C 0.15733 0.52866 0.37839 0.0
C363 C 0.18734 0.52761 0.31741 0.0
C364 C 0.02615 0.82821 0.85679 0.0
C365 C 0.99776 0.81131 0.88948 0.0
C366 C 0.02403 0.85845 0.80317 0.0
C367 C 0.99342 0.87269 0.78051 0.0
H368 H 0.05001 0.81941 0.88225 0.0
H369 H 0.04652 0.8713 0.78367 0.0
S370 S 0.912 0.83566 0.83586 0.0
N371 N 0.93847 0.8089 0.88527 0.0
N372 N 0.93419 0.86566 0.78303 0.0
C373 C 0.96493 0.85453 0.80358 0.0
C374 C 0.96719 0.82371 0.85793 0.0
C375 C 0.69105 0.98372 0.84375 0.0
C376 C 0.69966 0.00889 0.91685 0.0
C377 C 0.6609 0.98418 0.78926 0.0
C378 C 0.63869 0.01 0.80532 0.0
H379 H 0.70582 0.96182 0.83889 0.0
H380 H 0.65421 0.96322 0.73945 0.0
S381 S 0.65353 0.08519 0.9676 0.0
N382 N 0.6867 0.06287 0.98701 0.0
N383 N 0.62988 0.06396 0.88299 0.0
C384 C 0.64893 0.03729 0.86607 0.0
C385 C 0.67967 0.03676 0.92177 0.0
C386 C 0.4743 0.68424 0.82053 0.0
C387 C 0.50119 0.70511 0.83646 0.0
C388 C 0.47743 0.65604 0.7562 0.0
C389 C 0.50732 0.64828 0.70413 0.0
H390 H 0.4521 0.68763 0.86908 0.0
H391 H 0.45701 0.63921 0.75379 0.0
S392 S 0.5816 0.70044 0.69318 0.0
N393 N 0.5561 0.71995 0.77682 0.0
N394 N 0.56175 0.66763 0.65174 0.0
C395 C 0.53261 0.67163 0.70531 0.0
C396 C 0.52948 0.70013 0.77192 0.0
C397 C 0.82798 0.55074 0.80974 0.0
C398 C 0.81181 0.52193 0.84068 0.0
C399 C 0.85599 0.54961 0.74234 0.0
C400 C 0.86866 0.51957 0.706 0.0
H401 H 0.82119 0.57369 0.84803 0.0
H402 H 0.86932 0.57204 0.72725 0.0
S403 S 0.83045 0.43844 0.74377 0.0
N404 N 0.80658 0.46359 0.81443 0.0
N405 N 0.85955 0.46129 0.68773 0.0
C406 C 0.85039 0.49117 0.72524 0.0
C407 C 0.82164 0.49245 0.79226 0.0
C408 C 0.04136 0.17343 0.88361 0.0
C409 C 0.01713 0.19703 0.90506 0.0
C410 C 0.03403 0.14486 0.82475 0.0
C411 C 1.00217 0.13884 0.78555 0.0
H412 H 0.0656 0.17615 0.91884 0.0
H413 H 0.05323 0.12698 0.81298 0.0
S414 S 0.9307 0.19445 0.81219 0.0
N415 N 0.96071 0.21353 0.87651 0.0
N416 N 0.94683 0.16027 0.76516 0.0
C417 C 0.97827 0.16324 0.80065 0.0
C418 C 0.98582 0.1923 0.86009 0.0
C419 C 0.33058 0.98621 0.85761 0.0
C420 C 0.3248 0.01677 0.90597 0.0
C421 C 0.36008 0.97957 0.80198 0.0
C422 C 0.38503 0.00325 0.79226 0.0
H423 H 0.31332 0.96649 0.87064 0.0
H424 H 0.36369 0.9552 0.76974 0.0
S425 S 0.37962 0.08866 0.89182 0.0
N426 N 0.34467 0.07194 0.93173 0.0
N427 N 0.40005 0.05979 0.82555 0.0
C428 C 0.37846 0.03469 0.83329 0.0
C429 C 0.34835 0.04138 0.89011 0.0
C430 C 0.50589 0.3278 0.84876 0.0
C431 C 0.47865 0.32676 0.92056 0.0
C432 C 0.51431 0.35648 0.79214 0.0
C433 C 0.49568 0.38517 0.80428 0.0
H434 H 0.52252 0.30727 0.84408 0.0
H435 H 0.53642 0.35642 0.74176 0.0
S436 S 0.41856 0.39326 0.96588 0.0
N437 N 0.43045 0.35534 0.98884 0.0
N438 N 0.44616 0.40937 0.88062 0.0
C439 C 0.46654 0.38354 0.8666 0.0
C440 C 0.45803 0.35427 0.92501 0.0
C441 C 0.16645 0.46881 0.88663 0.0
C442 C 0.19122 0.49229 0.90116 0.0
C443 C 0.13732 0.47645 0.83028 0.0
C444 C 0.13175 0.50799 0.78794 0.0
H445 H 0.1688 0.445 0.92523 0.0
H446 H 0.1186 0.45786 0.82367 0.0
S447 S 0.19031 0.57746 0.79769 0.0
N448 N 0.20924 0.54752 0.86323 0.0
N449 N 0.15493 0.56218 0.75754 0.0
C450 C 0.15721 0.53113 0.79694 0.0
C451 C 0.18688 0.52316 0.85307 0.0
C452 C 0.03202 0.81886 0.33697 0.0
C453 C 1.00141 0.81216 0.28999 0.0
C454 C 0.03719 0.84748 0.39768 0.0
C455 C 0.01204 0.87067 0.41185 0.0
H456 H 0.05269 0.80308 0.31966 0.0
H457 H 0.06157 0.85207 0.42923 0.0
S458 S 0.92664 0.86288 0.31071 0.0
N459 N 0.9451 0.82951 0.26633 0.0
N460 N 0.95458 0.88347 0.3806 0.0
C461 C 0.98077 0.86328 0.37024 0.0
C462 C 0.97551 0.83393 0.30947 0.0
C463 C 0.69803 1.00135 0.39114 0.0
C464 C 0.69666 0.97763 0.30728 0.0
C465 C 0.67038 0.00841 0.4566 0.0
C466 C 0.64036 0.99207 0.44038 0.0
H467 H 0.71942 0.0168 0.39839 0.0
H468 H 0.67202 0.02833 0.51554 0.0
S469 S 0.62599 0.92409 0.24377 0.0
N470 N 0.66447 0.93479 0.22121 0.0
N471 N 0.61247 0.94801 0.34484 0.0
C472 C 0.63977 0.96587 0.36541 0.0
C473 C 0.668 0.95865 0.29878 0.0
C474 C 0.53251 0.66019 0.21872 0.0
C475 C 0.51374 0.68867 0.23466 0.0
C476 C 0.52547 0.63133 0.27739 0.0
C477 C 0.49918 0.62983 0.35335 0.0
H478 H 0.55122 0.6596 0.15421 0.0
H479 H 0.53965 0.60969 0.25895 0.0
S480 S 0.44676 0.69952 0.44022 0.0
N481 N 0.4708 0.71483 0.34177 0.0
N482 N 0.45763 0.66097 0.45411 0.0
C483 C 0.48208 0.65898 0.37694 0.0
C484 C 0.48942 0.68834 0.31734 0.0
C485 C 0.84754 0.528 0.28534 0.0
C486 C 0.83002 0.50251 0.2351 0.0
C487 C 0.87748 0.52215 0.33914 0.0
C488 C 0.89099 0.49059 0.34395 0.0
H489 H 0.83883 0.55286 0.27809 0.0
H490 H 0.89011 0.54252 0.37683 0.0
S491 S 0.85504 0.41589 0.22104 0.0
N492 N 0.82849 0.44494 0.19086 0.0
N493 N 0.88446 0.43366 0.29292 0.0
C494 C 0.87336 0.46487 0.2953 0.0
C495 C 0.84297 0.4709 0.24067 0.0
loop_
_geom_bond_atom_site_label_1
_geom_bond_atom_site_label_2
_geom_bond_distance
_geom_bond_site_symmetry_2
_ccdc_geom_bond_type
H0 C1 0.949 . S
C1 H0 0.949 . S
C1 C2 1.395 . S
C1 C3 1.391 1_556 S
C2 C1 1.395 . S
C2 C5 1.390 1_556 S
C3 C1 1.391 1_554 S
C3 C7 1.387 . S
C3 C8 1.491 . S
H4 C5 0.950 . S
C5 C2 1.390 1_554 S
C5 H4 0.950 . S
C5 C6 1.378 . S
C6 C5 1.378 . S
C6 C7 1.409 . S
C7 C3 1.387 . S
C7 C6 1.409 . S
C7 H9 0.951 . S
C8 C3 1.491 . S
C8 C10 1.382 1_554 S
C8 C12 1.404 . S
H9 C7 0.951 . S
C10 C8 1.382 1_556 S
C10 C11 1.390 . S
C10 H15 0.949 . S
C11 C10 1.390 . S
C11 C16 1.399 1_556 S
C12 C8 1.404 . S
C12 H13 0.950 . S
C12 C14 1.375 . S
H13 C12 0.950 . S
C14 C12 1.375 . S
C14 C16 1.382 . S
C14 H18 0.950 . S
H15 C10 0.949 . S
C16 C11 1.399 1_554 S
C16 C14 1.382 . S
C16 H17 0.952 . S
H17 C16 0.952 . S
H18 C14 0.950 . S
H19 C20 0.949 . S
C20 H19 0.949 . S
C20 C21 1.395 . S
C20 C22 1.391 1_556 S
C21 C20 1.395 . S
C21 C24 1.390 1_556 S
C22 C20 1.391 1_554 S
C22 C26 1.387 . S
C22 C27 1.491 . S
H23 C24 0.950 . S
C24 C21 1.390 1_554 S
C24 H23 0.950 . S
C24 C25 1.378 . S
C25 C24 1.378 . S
C25 C26 1.409 . S
C26 C22 1.387 . S
C26 C25 1.409 . S
C26 H28 0.951 . S
C27 C22 1.491 . S
C27 C29 1.382 1_554 S
C27 C31 1.404 . S
H28 C26 0.951 . S
C29 C27 1.382 1_556 S
C29 C30 1.390 . S
C29 H34 0.949 . S
C30 C29 1.390 . S
C30 C35 1.399 1_556 S
C31 C27 1.404 . S
C31 H32 0.950 . S
C31 C33 1.375 . S
H32 C31 0.950 . S
C33 C31 1.375 . S
C33 C35 1.382 . S
C33 H37 0.950 . S
H34 C29 0.949 . S
C35 C30 1.399 1_554 S
C35 C33 1.382 . S
C35 H36 0.952 . S
H36 C35 0.952 . S
H37 C33 0.950 . S
H38 C39 0.949 . S
C39 H38 0.949 . S
C39 C40 1.395 . S
C39 C41 1.391 1_556 S
C40 C39 1.395 . S
C40 C43 1.390 1_556 S
C41 C39 1.391 1_554 S
C41 C45 1.387 . S
C41 C46 1.491 . S
H42 C43 0.950 . S
C43 C40 1.390 1_554 S
C43 H42 0.950 . S
C43 C44 1.378 . S
C44 C43 1.378 . S
C44 C45 1.409 . S
C45 C41 1.387 . S
C45 C44 1.409 . S
C45 H47 0.951 . S
C46 C41 1.491 . S
C46 C48 1.382 1_554 S
C46 C50 1.404 . S
H47 C45 0.951 . S
C48 C46 1.382 1_556 S
C48 C49 1.390 . S
C48 H53 0.949 . S
C49 C48 1.390 . S
C49 C54 1.399 1_556 S
C50 C46 1.404 . S
C50 H51 0.950 . S
C50 C52 1.375 . S
H51 C50 0.950 . S
C52 C50 1.375 . S
C52 C54 1.382 . S
C52 H56 0.950 . S
H53 C48 0.949 . S
C54 C49 1.399 1_554 S
C54 C52 1.382 . S
C54 H55 0.952 . S
H55 C54 0.952 . S
H56 C52 0.950 . S
H57 C58 0.949 . S
C58 H57 0.949 . S
C58 C59 1.395 . S
C58 C60 1.391 1_556 S
C59 C58 1.395 . S
C59 C62 1.390 1_556 S
C60 C58 1.391 1_554 S
C60 C64 1.387 . S
C60 C65 1.491 . S
H61 C62 0.950 . S
C62 C59 1.390 1_554 S
C62 H61 0.950 . S
C62 C63 1.378 . S
C63 C62 1.378 . S
C63 C64 1.409 . S
C64 C60 1.387 . S
C64 C63 1.409 . S
C64 H66 0.951 . S
C65 C60 1.491 . S
C65 C67 1.382 1_554 S
C65 C69 1.404 . S
H66 C64 0.951 . S
C67 C65 1.382 1_556 S
C67 C68 1.390 . S
C67 H72 0.949 . S
C68 C67 1.390 . S
C68 C73 1.399 1_556 S
C69 C65 1.404 . S
C69 H70 0.950 . S
C69 C71 1.375 . S
H70 C69 0.950 . S
C71 C69 1.375 . S
C71 C73 1.382 . S
C71 H75 0.950 . S
H72 C67 0.949 . S
C73 C68 1.399 1_554 S
C73 C71 1.382 . S
C73 H74 0.952 . S
H74 C73 0.952 . S
H75 C71 0.950 . S
H76 C77 0.949 . S
C77 H76 0.949 . S
C77 C78 1.395 . S
C77 C79 1.391 . S
C78 C77 1.395 . S
C78 C81 1.390 . S
C79 C77 1.391 . S
C79 C83 1.387 . S
C79 C84 1.491 . S
H80 C81 0.950 . S
C81 C78 1.390 . S
C81 H80 0.950 . S
C81 C82 1.378 . S
C82 C81 1.378 . S
C82 C83 1.409 . S
C83 C79 1.387 . S
C83 C82 1.409 . S
C83 H85 0.951 1_554 S
C84 C79 1.491 . S
C84 C86 1.382 . S
C84 C88 1.404 . S
H85 C83 0.951 1_556 S
C86 C84 1.382 . S
C86 C87 1.390 . S
C86 H91 0.949 . S
C87 C86 1.390 . S
C87 C92 1.399 . S
C88 C84 1.404 . S
C88 H89 0.950 . S
C88 C90 1.375 . S
H89 C88 0.950 . S
C90 C88 1.375 . S
C90 C92 1.382 . S
C90 H94 0.950 . S
H91 C86 0.949 . S
C92 C87 1.399 . S
C92 C90 1.382 . S
C92 H93 0.952 . S
H93 C92 0.952 . S
H94 C90 0.950 . S
H95 C96 0.949 . S
C96 H95 0.949 . S
C96 C97 1.395 . S
C96 C98 1.391 . S
C97 C96 1.395 . S
C97 C100 1.390 . S
C98 C96 1.391 . S
C98 C102 1.387 . S
C98 C103 1.491 . S
H99 C100 0.950 . S
C100 C97 1.390 . S
C100 H99 0.950 . S
C100 C101 1.378 . S
C101 C100 1.378 . S
C101 C102 1.409 . S
C102 C98 1.387 . S
C102 C101 1.409 . S
C102 H104 0.951 1_554 S
C103 C98 1.491 . S
C103 C105 1.382 . S
C103 C107 1.404 1_455 S
H104 C102 0.951 1_556 S
C105 C103 1.382 . S
C105 C106 1.390 . S
C105 H110 0.949 . S
C106 C105 1.390 . S
C106 C111 1.399 1_455 S
C107 C103 1.404 1_655 S
C107 H108 0.950 . S
C107 C109 1.375 . S
H108 C107 0.950 . S
C109 C107 1.375 . S
C109 C111 1.382 . S
C109 H113 0.950 . S
H110 C105 0.949 . S
C111 C106 1.399 1_655 S
C111 C109 1.382 . S
C111 H112 0.952 . S
H112 C111 0.952 . S
H113 C109 0.950 . S
H114 C115 0.949 . S
C115 H114 0.949 . S
C115 C116 1.395 . S
C115 C117 1.391 . S
C116 C115 1.395 . S
C116 C119 1.390 . S
C117 C115 1.391 . S
C117 C121 1.387 . S
C117 C122 1.491 . S
H118 C119 0.950 . S
C119 C116 1.390 . S
C119 H118 0.950 . S
C119 C120 1.378 . S
C120 C119 1.378 . S
C120 C121 1.409 . S
C121 C117 1.387 . S
C121 C120 1.409 . S
C121 H123 0.951 1_554 S
C122 C117 1.491 . S
C122 C124 1.382 . S
C122 C126 1.404 1_545 S
H123 C121 0.951 1_556 S
C124 C122 1.382 . S
C124 C125 1.390 . S
C124 H129 0.949 . S
C125 C124 1.390 . S
C125 C130 1.399 1_545 S
C126 C122 1.404 1_565 S
C126 H127 0.950 . S
C126 C128 1.375 . S
H127 C126 0.950 . S
C128 C126 1.375 . S
C128 C130 1.382 . S
C128 H132 0.950 . S
H129 C124 0.949 . S
C130 C125 1.399 1_565 S
C130 C128 1.382 . S
C130 H131 0.952 . S
H131 C130 0.952 . S
H132 C128 0.950 . S
H133 C134 0.949 . S
C134 H133 0.949 . S
C134 C135 1.395 . S
C134 C136 1.391 . S
C135 C134 1.395 . S
C135 C138 1.390 . S
C136 C134 1.391 . S
C136 C140 1.387 . S
C136 C141 1.491 . S
H137 C138 0.950 . S
C138 C135 1.390 . S
C138 H137 0.950 . S
C138 C139 1.378 . S
C139 C138 1.378 . S
C139 C140 1.409 . S
C140 C136 1.387 . S
C140 C139 1.409 . S
C140 H142 0.951 1_554 S
C141 C136 1.491 . S
C141 C143 1.382 . S
C141 C145 1.404 . S
H142 C140 0.951 1_556 S
C143 C141 1.382 . S
C143 C144 1.390 . S
C143 H148 0.949 . S
C144 C143 1.390 . S
C144 C149 1.399 . S
C145 C141 1.404 . S
C145 H146 0.950 . S
C145 C147 1.375 . S
H146 C145 0.950 . S
C147 C145 1.375 . S
C147 C149 1.382 . S
C147 H151 0.950 . S
H148 C143 0.949 . S
C149 C144 1.399 . S
C149 C147 1.382 . S
C149 H150 0.952 . S
H150 C149 0.952 . S
H151 C147 0.950 . S
Zn152 O158 1.969 1_455 S
Zn152 O159 1.965 . S
Zn152 O163 2.024 . S
Zn152 O168 1.969 1_455 S
Zn153 O160 1.969 . S
Zn153 O166 1.969 . S
Zn153 O167 1.965 1_455 S
Zn153 O169 2.024 1_455 S
C154 O155 1.229 1_455 S
C154 O163 1.058 . S
O155 C154 1.229 1_655 S
C156 O157 1.229 1_655 S
C156 O169 1.058 . S
O157 C156 1.229 1_455 S
O158 Zn152 1.969 1_655 S
O158 C161 1.267 1_655 S
O159 Zn152 1.965 . S
O159 C170 1.260 . S
O160 Zn153 1.969 . S
O160 C170 1.258 1_565 S
C161 O158 1.267 1_455 S
C161 O162 1.228 . S
O162 C161 1.228 . S
O163 Zn152 2.024 . S
O163 C154 1.058 . S
C164 O165 1.200 1_455 S
C164 O166 1.288 . S
O165 C164 1.200 1_655 S
O166 Zn153 1.969 . S
O166 C164 1.288 . S
O167 Zn153 1.965 1_655 S
O167 C171 1.260 1_565 S
O168 Zn152 1.969 1_655 S
O168 C171 1.258 . S
O169 Zn153 2.024 1_655 S
O169 C156 1.058 . S
C170 O159 1.260 . S
C170 O160 1.258 1_545 S
C171 O167 1.260 1_545 S
C171 O168 1.258 . S
Zn172 O178 1.969 1_545 S
Zn172 O179 1.965 . S
Zn172 O183 2.024 . S
Zn172 O188 1.969 1_545 S
Zn173 O180 1.969 . S
Zn173 O186 1.969 . S
Zn173 O187 1.965 1_545 S
Zn173 O189 2.024 1_545 S
C174 O175 1.229 1_545 S
C174 O183 1.058 . S
O175 C174 1.229 1_565 S
C176 O177 1.229 1_565 S
C176 O189 1.058 . S
O177 C176 1.229 1_545 S
O178 Zn172 1.969 1_565 S
O178 C181 1.267 1_565 S
O179 Zn172 1.965 . S
O179 C190 1.260 . S
O180 Zn173 1.969 . S
O180 C190 1.258 . S
C181 O178 1.267 1_545 S
C181 O182 1.228 . S
O182 C181 1.228 . S
O183 Zn172 2.024 . S
O183 C174 1.058 . S
C184 O185 1.228 1_545 S
C184 O186 1.267 . S
O185 C184 1.228 1_565 S
O186 Zn173 1.969 . S
O186 C184 1.267 . S
O187 Zn173 1.965 1_565 S
O187 C191 1.260 . S
O188 Zn172 1.969 1_565 S
O188 C191 1.258 . S
O189 Zn173 2.024 1_565 S
O189 C176 1.058 . S
C190 O179 1.260 . S
C190 O180 1.258 . S
C191 O187 1.260 . S
C191 O188 1.258 . S
Zn192 O198 1.969 . S
Zn192 O199 1.965 . S
Zn192 O203 2.024 . S
Zn192 O208 1.969 . S
Zn193 O200 1.969 . S
Zn193 O206 1.969 . S
Zn193 O207 1.965 . S
Zn193 O209 2.024 . S
C194 O195 1.229 . S
C194 O203 1.058 . S
O195 C194 1.229 . S
C196 O197 1.229 . S
C196 O209 1.058 . S
O197 C196 1.229 . S
O198 Zn192 1.969 . S
O198 C201 1.267 . S
O199 Zn192 1.965 . S
O199 C210 1.260 . S
O200 Zn193 1.969 . S
O200 C210 1.258 . S
C201 O198 1.267 . S
C201 O202 1.228 . S
O202 C201 1.228 . S
O203 Zn192 2.024 . S
O203 C194 1.058 . S
C204 O205 1.228 . S
C204 O206 1.267 . S
O205 C204 1.228 . S
O206 Zn193 1.969 . S
O206 C204 1.267 . S
O207 Zn193 1.965 . S
O207 C211 1.260 . S
O208 Zn192 1.969 . S
O208 C211 1.258 . S
O209 Zn193 2.024 . S
O209 C196 1.058 . S
C210 O199 1.260 . S
C210 O200 1.258 . S
C211 O207 1.260 . S
C211 O208 1.258 . S
Zn212 O218 1.969 . S
Zn212 O219 1.965 . S
Zn212 O223 2.024 . S
Zn212 O228 1.969 . S
Zn213 O220 1.969 . S
Zn213 O226 1.969 . S
Zn213 O227 1.965 . S
Zn213 O229 2.024 . S
C214 O215 1.229 . S
C214 O223 1.058 . S
O215 C214 1.229 . S
C216 O217 1.229 . S
C216 O229 1.058 . S
O217 C216 1.229 . S
O218 Zn212 1.969 . S
O218 C221 1.267 . S
O219 Zn212 1.965 . S
O219 C230 1.277 . S
O220 Zn213 1.969 . S
O220 C230 1.233 1_655 S
C221 O218 1.267 . S
C221 O222 1.228 . S
O222 C221 1.228 . S
O223 Zn212 2.024 . S
O223 C214 1.058 . S
C224 O225 1.228 . S
C224 O226 1.267 . S
O225 C224 1.228 . S
O226 Zn213 1.969 . S
O226 C224 1.267 . S
O227 Zn213 1.965 . S
O227 C231 1.260 1_655 S
O228 Zn212 1.969 . S
O228 C231 1.258 . S
O229 Zn213 2.024 . S
O229 C216 1.058 . S
C230 O219 1.277 . S
C230 O220 1.233 1_455 S
C231 O227 1.260 1_455 S
C231 O228 1.258 . S
C232 C233 1.369 . S
C232 C234 1.419 . S
C232 H236 0.930 . S
C233 C232 1.369 . S
C233 C242 1.429 . S
C234 C232 1.419 . S
C234 C235 1.363 . S
C234 H237 0.929 . S
C235 C234 1.363 . S
C235 C241 1.428 . S
H236 C232 0.930 . S
H237 C234 0.929 . S
S238 N239 1.613 1_565 S
S238 N240 1.610 1_565 S
N239 S238 1.613 1_545 S
N239 C242 1.350 . S
N240 S238 1.610 1_545 S
N240 C241 1.353 . S
C241 C235 1.428 . S
C241 N240 1.353 . S
C241 C242 1.434 . S
C242 C233 1.429 . S
C242 N239 1.350 . S
C242 C241 1.434 . S
C243 C244 1.369 . S
C243 C245 1.419 . S
C243 H247 0.930 . S
C244 C243 1.369 . S
C244 C253 1.429 . S
C245 C243 1.419 . S
C245 C246 1.363 . S
C245 H248 0.929 . S
C246 C245 1.363 . S
C246 C252 1.428 . S
H247 C243 0.930 . S
H248 C245 0.929 . S
S249 N250 1.613 . S
S249 N251 1.610 . S
N250 S249 1.613 . S
N250 C253 1.350 . S
N251 S249 1.610 . S
N251 C252 1.351 . S
C252 C246 1.428 . S
C252 N251 1.351 . S
C252 C253 1.434 . S
C253 C244 1.429 . S
C253 N250 1.350 . S
C253 C252 1.434 . S
C254 C255 1.369 . S
C254 C256 1.419 . S
C254 H258 0.930 . S
C255 C254 1.369 . S
C255 C264 1.429 . S
C256 C254 1.419 . S
C256 C257 1.363 . S
C256 H259 0.929 . S
C257 C256 1.363 . S
C257 C263 1.428 . S
H258 C254 0.930 . S
H259 C256 0.929 . S
S260 N261 1.613 . S
S260 N262 1.610 . S
N261 S260 1.613 . S
N261 C264 1.350 . S
N262 S260 1.610 . S
N262 C263 1.351 . S
C263 C257 1.428 . S
C263 N262 1.351 . S
C263 C264 1.434 . S
C264 C255 1.429 . S
C264 N261 1.350 . S
C264 C263 1.434 . S
C265 C266 1.369 . S
C265 C267 1.419 . S
C265 H269 0.930 . S
C266 C265 1.369 . S
C266 C275 1.429 . S
C267 C265 1.419 . S
C267 C268 1.363 . S
C267 H270 0.929 . S
C268 C267 1.363 . S
C268 C274 1.428 1_455 S
H269 C265 0.930 . S
H270 C267 0.929 . S
S271 N272 1.613 . S
S271 N273 1.610 . S
N272 S271 1.613 . S
N272 C275 1.350 1_655 S
N273 S271 1.610 . S
N273 C274 1.351 . S
C274 C268 1.428 1_655 S
C274 N273 1.351 . S
C274 C275 1.434 1_655 S
C275 C266 1.429 . S
C275 N272 1.350 1_455 S
C275 C274 1.434 1_455 S
C276 C277 1.369 . S
C276 C278 1.419 1_565 S
C276 H280 0.930 1_565 S
C277 C276 1.369 . S
C277 C286 1.429 . S
C278 C276 1.419 1_545 S
C278 C279 1.363 1_545 S
C278 H281 0.929 . S
C279 C278 1.363 1_565 S
C279 C285 1.428 . S
H280 C276 0.930 1_545 S
H281 C278 0.929 . S
S282 N283 1.613 . S
S282 N284 1.610 . S
N283 S282 1.613 . S
N283 C286 1.350 . S
N284 S282 1.610 . S
N284 C285 1.351 . S
C285 C279 1.428 . S
C285 N284 1.351 . S
C285 C286 1.434 . S
C286 C277 1.429 . S
C286 N283 1.350 . S
C286 C285 1.434 . S
C287 C288 1.369 . S
C287 C289 1.419 . S
C287 H291 0.930 . S
C288 C287 1.369 . S
C288 C297 1.429 . S
C289 C287 1.419 . S
C289 C290 1.363 . S
C289 H292 0.929 . S
C290 C289 1.363 . S
C290 C296 1.428 . S
H291 C287 0.930 . S
H292 C289 0.929 . S
S293 N294 1.613 . S
S293 N295 1.610 . S
N294 S293 1.613 . S
N294 C297 1.350 . S
N295 S293 1.610 . S
N295 C296 1.351 . S
C296 C290 1.428 . S
C296 N295 1.351 . S
C296 C297 1.434 . S
C297 C288 1.429 . S
C297 N294 1.350 . S
C297 C296 1.434 . S
C298 C299 1.369 . S
C298 C300 1.419 . S
C298 H302 0.930 . S
C299 C298 1.369 . S
C299 C308 1.429 . S
C300 C298 1.419 . S
C300 C301 1.363 . S
C300 H303 0.929 . S
C301 C300 1.363 . S
C301 C307 1.428 . S
H302 C298 0.930 . S
H303 C300 0.929 . S
S304 N305 1.613 . S
S304 N306 1.610 . S
N305 S304 1.613 . S
N305 C308 1.350 . S
N306 S304 1.610 . S
N306 C307 1.351 . S
C307 C301 1.428 . S
C307 N306 1.351 . S
C307 C308 1.434 . S
C308 C299 1.429 . S
C308 N305 1.350 . S
C308 C307 1.434 . S
C309 C310 1.369 . S
C309 C311 1.421 . S
C309 H313 0.930 . S
C310 C309 1.369 . S
C310 C319 1.429 . S
C311 C309 1.421 . S
C311 C312 1.365 . S
C311 H314 0.925 1_655 S
C312 C311 1.365 . S
C312 C318 1.428 . S
H313 C309 0.930 . S
H314 C311 0.925 1_455 S
S315 N316 1.613 . S
S315 N317 1.610 1_554 S
N316 S315 1.613 . S
N316 C319 1.350 1_554 S
N317 S315 1.610 1_556 S
N317 C318 1.351 . S
C318 C312 1.428 . S
C318 N317 1.351 . S
C318 C319 1.434 . S
C319 C310 1.429 . S
C319 N316 1.350 1_556 S
C319 C318 1.434 . S
C320 C321 1.369 . S
C320 C322 1.419 1_455 S
C320 H324 0.930 1_455 S
C321 C320 1.369 . S
C321 C330 1.429 . S
C322 C320 1.419 1_655 S
C322 C323 1.363 1_655 S
C322 H325 0.929 . S
C323 C322 1.363 1_455 S
C323 C329 1.428 . S
H324 C320 0.930 1_655 S
H325 C322 0.929 . S
S326 N327 1.613 . S
S326 N328 1.610 . S
N327 S326 1.613 . S
N327 C330 1.350 . S
N328 S326 1.610 . S
N328 C329 1.351 . S
C329 C323 1.428 . S
C329 N328 1.351 . S
C329 C330 1.434 . S
C330 C321 1.429 . S
C330 N327 1.350 . S
C330 C329 1.434 . S
C331 C332 1.369 1_565 S
C331 C333 1.419 . S
C331 H335 0.930 . S
C332 C331 1.369 1_545 S
C332 C341 1.429 . S
C333 C331 1.419 . S
C333 C334 1.363 1_565 S
C333 H336 0.929 . S
C334 C333 1.363 1_545 S
C334 C340 1.428 . S
H335 C331 0.930 . S
H336 C333 0.929 . S
S337 N338 1.613 . S
S337 N339 1.610 . S
N338 S337 1.613 . S
N338 C341 1.350 . S
N339 S337 1.610 . S
N339 C340 1.351 . S
C340 C334 1.428 . S
C340 N339 1.351 . S
C340 C341 1.434 . S
C341 C332 1.429 . S
C341 N338 1.350 . S
C341 C340 1.434 . S
C342 C343 1.369 . S
C342 C344 1.419 . S
C342 H346 0.930 . S
C343 C342 1.369 . S
C343 C352 1.429 . S
C344 C342 1.419 . S
C344 C345 1.363 . S
C344 H347 0.929 . S
C345 C344 1.363 . S
C345 C351 1.428 . S
H346 C342 0.930 . S
H347 C344 0.929 . S
S348 N349 1.613 . S
S348 N350 1.610 . S
N349 S348 1.613 . S
N349 C352 1.350 . S
N350 S348 1.610 . S
N350 C351 1.351 . S
C351 C345 1.428 . S
C351 N350 1.351 . S
C351 C352 1.434 . S
C352 C343 1.429 . S
C352 N349 1.350 . S
C352 C351 1.434 . S
C353 C354 1.369 . S
C353 C355 1.419 . S
C353 H357 0.930 . S
C354 C353 1.369 . S
C354 C363 1.429 . S
C355 C353 1.419 . S
C355 C356 1.363 . S
C355 H358 0.929 . S
C356 C355 1.363 . S
C356 C362 1.428 . S
H357 C353 0.930 . S
H358 C355 0.929 . S
S359 N360 1.613 . S
S359 N361 1.610 . S
N360 S359 1.613 . S
N360 C363 1.350 . S
N361 S359 1.610 . S
N361 C362 1.351 . S
C362 C356 1.428 . S
C362 N361 1.351 . S
C362 C363 1.434 . S
C363 C354 1.429 . S
C363 N360 1.350 . S
C363 C362 1.434 . S
C364 C365 1.369 1_455 S
C364 C366 1.419 . S
C364 H368 0.930 . S
C365 C364 1.369 1_655 S
C365 C374 1.429 . S
C366 C364 1.419 . S
C366 C367 1.363 . S
C366 H369 0.929 . S
C367 C366 1.363 . S
C367 C373 1.428 1_455 S
H368 C364 0.930 . S
H369 C366 0.929 . S
S370 N371 1.613 . S
S370 N372 1.610 1_554 S
N371 S370 1.613 . S
N371 C374 1.350 1_554 S
N372 S370 1.610 1_556 S
N372 C373 1.351 . S
C373 C367 1.428 1_655 S
C373 N372 1.351 . S
C373 C374 1.434 . S
C374 C365 1.429 . S
C374 N371 1.350 1_556 S
C374 C373 1.434 . S
C375 C376 1.369 . S
C375 C377 1.419 . S
C375 H379 0.930 . S
C376 C375 1.369 . S
C376 C385 1.429 1_565 S
C377 C375 1.419 . S
C377 C378 1.363 1_565 S
C377 H380 0.929 . S
C378 C377 1.363 1_545 S
C378 C384 1.428 . S
H379 C375 0.930 . S
H380 C377 0.929 . S
S381 N382 1.613 . S
S381 N383 1.610 1_554 S
N382 S381 1.613 . S
N382 C385 1.350 1_554 S
N383 S381 1.610 1_556 S
N383 C384 1.351 . S
C384 C378 1.428 . S
C384 N383 1.351 . S
C384 C385 1.434 . S
C385 C376 1.429 1_545 S
C385 N382 1.350 1_556 S
C385 C384 1.434 . S
C386 C387 1.369 . S
C386 C388 1.419 . S
C386 H390 0.930 1_556 S
C387 C386 1.369 . S
C387 C396 1.429 . S
C388 C386 1.419 . S
C388 C389 1.363 . S
C388 H391 0.929 . S
C389 C388 1.363 . S
C389 C395 1.428 . S
H390 C386 0.930 1_554 S
H391 C388 0.929 . S
S392 N393 1.613 . S
S392 N394 1.610 . S
N393 S392 1.613 . S
N393 C396 1.350 . S
N394 S392 1.610 . S
N394 C395 1.351 . S
C395 C389 1.428 . S
C395 N394 1.351 . S
C395 C396 1.434 . S
C396 C387 1.429 . S
C396 N393 1.350 . S
C396 C395 1.434 . S
C397 C398 1.369 . S
C397 C399 1.419 . S
C397 H401 0.930 1_556 S
C398 C397 1.369 . S
C398 C407 1.429 . S
C399 C397 1.419 . S
C399 C400 1.363 . S
C399 H402 0.929 . S
C400 C399 1.363 . S
C400 C406 1.428 . S
H401 C397 0.930 1_554 S
H402 C399 0.929 . S
S403 N404 1.613 . S
S403 N405 1.610 . S
N404 S403 1.613 . S
N404 C407 1.350 . S
N405 S403 1.610 . S
N405 C406 1.351 . S
C406 C400 1.428 . S
C406 N405 1.351 . S
C406 C407 1.434 . S
C407 C398 1.429 . S
C407 N404 1.350 . S
C407 C406 1.434 . S
C408 C409 1.369 . S
C408 C410 1.419 . S
C408 H412 0.930 . S
C409 C408 1.369 . S
C409 C418 1.429 1_455 S
C410 C408 1.419 . S
C410 C411 1.363 . S
C410 H413 0.929 . S
C411 C410 1.363 . S
C411 C417 1.428 1_455 S
H412 C408 0.930 . S
H413 C410 0.929 . S
S414 N415 1.613 . S
S414 N416 1.610 . S
N415 S414 1.613 . S
N415 C418 1.350 . S
N416 S414 1.610 . S
N416 C417 1.351 . S
C417 C411 1.428 1_655 S
C417 N416 1.351 . S
C417 C418 1.434 . S
C418 C409 1.429 1_655 S
C418 N415 1.350 . S
C418 C417 1.434 . S
C419 C420 1.369 1_565 S
C419 C421 1.419 . S
C419 H423 0.930 . S
C420 C419 1.369 1_545 S
C420 C429 1.429 . S
C421 C419 1.419 . S
C421 C422 1.363 1_565 S
C421 H424 0.929 . S
C422 C421 1.363 1_545 S
C422 C428 1.428 . S
H423 C419 0.930 . S
H424 C421 0.929 . S
S425 N426 1.613 . S
S425 N427 1.610 . S
N426 S425 1.613 . S
N426 C429 1.350 . S
N427 S425 1.610 . S
N427 C428 1.351 . S
C428 C422 1.428 . S
C428 N427 1.351 . S
C428 C429 1.434 . S
C429 C420 1.429 . S
C429 N426 1.350 . S
C429 C428 1.434 . S
C430 C431 1.369 . S
C430 C432 1.419 . S
C430 H434 0.930 . S
C431 C430 1.369 . S
C431 C440 1.429 . S
C432 C430 1.419 . S
C432 C433 1.363 . S
C432 H435 0.929 . S
C433 C432 1.363 . S
C433 C439 1.428 . S
H434 C430 0.930 . S
H435 C432 0.929 . S
S436 N437 1.613 . S
S436 N438 1.610 1_554 S
N437 S436 1.613 . S
N437 C440 1.350 1_554 S
N438 S436 1.610 1_556 S
N438 C439 1.351 . S
C439 C433 1.428 . S
C439 N438 1.351 . S
C439 C440 1.434 . S
C440 C431 1.429 . S
C440 N437 1.350 1_556 S
C440 C439 1.434 . S
C441 C442 1.369 . S
C441 C443 1.419 . S
C441 H445 0.930 . S
C442 C441 1.369 . S
C442 C451 1.429 . S
C443 C441 1.419 . S
C443 C444 1.363 . S
C443 H446 0.929 . S
C444 C443 1.363 . S
C444 C450 1.428 . S
H445 C441 0.930 . S
H446 C443 0.929 . S
S447 N448 1.613 . S
S447 N449 1.610 1_554 S
N448 S447 1.613 . S
N448 C451 1.350 1_554 S
N449 S447 1.610 1_556 S
N449 C450 1.351 . S
C450 C444 1.428 . S
C450 N449 1.351 . S
C450 C451 1.434 . S
C451 C442 1.429 . S
C451 N448 1.350 1_556 S
C451 C450 1.434 . S
C452 C453 1.369 1_455 S
C452 C454 1.419 . S
C452 H456 0.930 . S
C453 C452 1.369 1_655 S
C453 C462 1.429 . S
C454 C452 1.419 . S
C454 C455 1.363 1_455 S
C454 H457 0.929 . S
C455 C454 1.363 1_655 S
C455 C461 1.428 . S
H456 C452 0.930 . S
H457 C454 0.929 . S
S458 N459 1.613 . S
S458 N460 1.610 . S
N459 S458 1.613 . S
N459 C462 1.350 . S
N460 S458 1.610 . S
N460 C461 1.351 . S
C461 C455 1.428 . S
C461 N460 1.351 . S
C461 C462 1.434 . S
C462 C453 1.429 . S
C462 N459 1.350 . S
C462 C461 1.434 . S
C463 C464 1.369 . S
C463 C465 1.419 . S
C463 H467 0.926 1_565 S
C464 C463 1.369 . S
C464 C473 1.429 . S
C465 C463 1.419 . S
C465 C466 1.363 . S
C465 H468 0.929 1_565 S
C466 C465 1.363 . S
C466 C472 1.428 . S
H467 C463 0.926 1_545 S
H468 C465 0.929 1_545 S
S469 N470 1.613 . S
S469 N471 1.610 . S
N470 S469 1.613 . S
N470 C473 1.350 . S
N471 S469 1.610 . S
N471 C472 1.351 . S
C472 C466 1.428 . S
C472 N471 1.351 . S
C472 C473 1.434 . S
C473 C464 1.429 . S
C473 N470 1.350 . S
C473 C472 1.434 . S
C474 C475 1.369 . S
C474 C476 1.419 . S
C474 H478 0.930 . S
C475 C474 1.369 . S
C475 C484 1.429 . S
C476 C474 1.419 . S
C476 C477 1.363 . S
C476 H479 0.929 . S
C477 C476 1.363 . S
C477 C483 1.428 . S
H478 C474 0.930 . S
H479 C476 0.929 . S
S480 N481 1.613 . S
S480 N482 1.610 . S
N481 S480 1.613 . S
N481 C484 1.350 . S
N482 S480 1.610 . S
N482 C483 1.351 . S
C483 C477 1.428 . S
C483 N482 1.351 . S
C483 C484 1.434 . S
C484 C475 1.429 . S
C484 N481 1.350 . S
C484 C483 1.434 . S
C485 C486 1.369 . S
C485 C487 1.419 . S
C485 H489 0.930 . S
C486 C485 1.369 . S
C486 C495 1.429 . S
C487 C485 1.419 . S
C487 C488 1.363 . S
C487 H490 0.929 . S
C488 C487 1.363 . S
C488 C494 1.428 . S
H489 C485 0.930 . S
H490 C487 0.929 . S
S491 N492 1.613 . S
S491 N493 1.610 . S
N492 S491 1.613 . S
N492 C495 1.350 . S
N493 S491 1.610 . S
N493 C494 1.351 . S
C494 C488 1.428 . S
C494 N493 1.351 . S
C494 C495 1.434 . S
C495 C486 1.429 . S
C495 N492 1.350 . S
C495 C494 1.434 . S
C233 C125 1.514 . S
C235 C170 1.544 . S
C246 C190 1.538 . S
C244 C144 1.511 . S
C257 C210 1.540 . S
C255 C87 1.510 . S
C268 C230 1.545 . S
C266 C106 1.513 . S
C279 C171 1.545 1_565 S
C277 C49 1.570 . S
C288 C68 1.574 . S
C290 C191 1.545 . S
C299 C11 1.568 . S
C301 C211 1.541 . S
C310 C30 1.571 . S
C312 C231 1.539 1_655 S
C323 C161 1.042 . S
C321 C97 1.069 . S
C334 C181 1.043 . S
C332 C116 1.066 . S
C345 C201 1.046 . S
C343 C135 1.062 . S
C354 C78 1.057 . S
C356 C221 1.055 . S
C365 C21 1.062 . S
C367 C164 1.052 . S
C378 C184 1.055 . S
C376 C40 1.056 . S
C389 C204 1.043 . S
C387 C59 1.071 . S
C398 C2 1.068 . S
C400 C224 1.047 . S
C409 C101 1.517 1_556 S
C411 C154 1.435 . S
C420 C120 1.522 1_556 S
C422 C174 1.436 . S
C433 C194 1.442 . S
C431 C139 1.517 1_556 S
C444 C214 1.438 . S
C442 C82 1.514 1_556 S
C453 C25 1.517 . S
C455 C156 1.441 . S
C466 C176 1.442 . S
C464 C44 1.513 . S
C477 C196 1.432 . S
C475 C63 1.525 . S
C486 C6 1.514 . S
C488 C216 1.440 . S
