# Generated by pormake.
# Topology pyr, (3,6)-cn, num edge types: 1
# Building blocks:
#     Node 0, Type 0, BuildingBlock: BETDAH_clean_linker_0, # of connection points: 3
#     Node 1, Type 0, BuildingBlock: BETDAH_clean_linker_0, # of connection points: 3
#     Node 2, Type 0, BuildingBlock: BETDAH_clean_linker_0, # of connection points: 3
#     Node 3, Type 0, BuildingBlock: BETDAH_clean_linker_0, # of connection points: 3
#     Node 4, Type 0, BuildingBlock: BETDAH_clean_linker_0, # of connection points: 3
#     Node 5, Type 0, BuildingBlock: BETDAH_clean_linker_0, # of connection points: 3
#     Node 6, Type 0, BuildingBlock: BETDAH_clean_linker_0, # of connection points: 3
#     Node 7, Type 0, BuildingBlock: BETDAH_clean_linker_0, # of connection points: 3
#     Node 8, Type 1, BuildingBlock: BETFEN_clean_sbu_0, # of connection points: 6
#     Node 9, Type 1, BuildingBlock: BETFEN_clean_sbu_0, # of connection points: 6
#     Node 10, Type 1, BuildingBlock: BETFEN_clean_sbu_0, # of connection points: 6
#     Node 11, Type 1, BuildingBlock: BETFEN_clean_sbu_0, # of connection points: 6
#     Edge 12, Type (0, 1), BuildingBlock: UVAHIK_clean_linker_0, # of connection points: 2
#     Edge 13, Type (0, 1), BuildingBlock: UVAHIK_clean_linker_0, # of connection points: 2
#     Edge 14, Type (0, 1), BuildingBlock: UVAHIK_clean_linker_0, # of connection points: 2
#     Edge 15, Type (0, 1), BuildingBlock: UVAHIK_clean_linker_0, # of connection points: 2
#     Edge 16, Type (0, 1), BuildingBlock: UVAHIK_clean_linker_0, # of connection points: 2
#     Edge 17, Type (0, 1), BuildingBlock: UVAHIK_clean_linker_0, # of connection points: 2
#     Edge 18, Type (0, 1), BuildingBlock: UVAHIK_clean_linker_0, # of connection points: 2
#     Edge 19, Type (0, 1), BuildingBlock: UVAHIK_clean_linker_0, # of connection points: 2
#     Edge 20, Type (0, 1), BuildingBlock: UVAHIK_clean_linker_0, # of connection points: 2
#     Edge 21, Type (0, 1), BuildingBlock: UVAHIK_clean_linker_0, # of connection points: 2
#     Edge 22, Type (0, 1), BuildingBlock: UVAHIK_clean_linker_0, # of connection points: 2
#     Edge 23, Type (0, 1), BuildingBlock: UVAHIK_clean_linker_0, # of connection points: 2
#     Edge 24, Type (0, 1), BuildingBlock: UVAHIK_clean_linker_0, # of connection points: 2
#     Edge 25, Type (0, 1), BuildingBlock: UVAHIK_clean_linker_0, # of connection points: 2
#     Edge 26, Type (0, 1), BuildingBlock: UVAHIK_clean_linker_0, # of connection points: 2
#     Edge 27, Type (0, 1), BuildingBlock: UVAHIK_clean_linker_0, # of connection points: 2
#     Edge 28, Type (0, 1), BuildingBlock: UVAHIK_clean_linker_0, # of connection points: 2
#     Edge 29, Type (0, 1), BuildingBlock: UVAHIK_clean_linker_0, # of connection points: 2
#     Edge 30, Type (0, 1), BuildingBlock: UVAHIK_clean_linker_0, # of connection points: 2
#     Edge 31, Type (0, 1), BuildingBlock: UVAHIK_clean_linker_0, # of connection points: 2
#     Edge 32, Type (0, 1), BuildingBlock: UVAHIK_clean_linker_0, # of connection points: 2
#     Edge 33, Type (0, 1), BuildingBlock: UVAHIK_clean_linker_0, # of connection points: 2
#     Edge 34, Type (0, 1), BuildingBlock: UVAHIK_clean_linker_0, # of connection points: 2
#     Edge 35, Type (0, 1), BuildingBlock: UVAHIK_clean_linker_0, # of connection points: 2
# Relax obj value: 0.128
# Max RMSD: 0.272
# Mean RMSD: 0.129
data_MOF--net-pyr--node1-BETFEN_clean_sbu_0--node2-BETDAH_clean_linker_0--edge1-UVAHIK_clean_linker_0
_symmetry_space_group_name_H-M    P1
_symmetry_Int_Tables_number       1
_symmetry_cell_setting            triclinic
loop_
_symmetry_equiv_pos_as_xyz
'x, y, z'
_cell_length_a     46.493676
_cell_length_b     51.582175
_cell_length_c     51.009738
_cell_angle_alpha  91.442826
_cell_angle_beta   100.64268
_cell_angle_gamma 114.29913
loop_
_atom_site_label
_atom_site_type_symbol
_atom_site_fract_x
_atom_site_fract_y
_atom_site_fract_z
_atom_type_partial_charge
H0 H 0.3181 0.2746 0.26312 0.0
H1 H 0.38875 0.34254 0.23116 0.0
H2 H 0.33082 0.36133 0.27867 0.0
C3 C 0.32997 0.29707 0.26043 0.0
C4 C 0.32168 0.31687 0.27271 0.0
C5 C 0.35417 0.30606 0.2455 0.0
C6 C 0.37035 0.33532 0.243 0.0
C7 C 0.36144 0.35519 0.25429 0.0
C8 C 0.33735 0.34596 0.26947 0.0
N9 N 0.37597 0.38413 0.24921 0.0
C10 C 0.35751 0.39937 0.24285 0.0
H11 H 0.36001 0.85254 0.72829 0.0
H12 H 0.29576 0.8936 0.71145 0.0
H13 H 0.29906 0.83728 0.64974 0.0
C14 C 0.34135 0.85576 0.7145 0.0
C15 C 0.3311 0.84241 0.68801 0.0
C16 C 0.32865 0.87412 0.72319 0.0
C17 C 0.30565 0.8795 0.70488 0.0
C18 C 0.2951 0.8662 0.67829 0.0
C19 C 0.30776 0.8477 0.67015 0.0
N20 N 0.27175 0.87063 0.65904 0.0
C21 C 0.25746 0.88885 0.66345 0.0
H22 H 0.65042 0.34491 0.88535 0.0
H23 H 0.65755 0.38002 0.80987 0.0
H24 H 0.59593 0.29117 0.81163 0.0
C25 C 0.64289 0.34253 0.86366 0.0
C26 C 0.62111 0.31559 0.85029 0.0
C27 C 0.65655 0.36585 0.8493 0.0
C28 C 0.64719 0.36215 0.82111 0.0
C29 C 0.62506 0.33518 0.80751 0.0
C30 C 0.6127 0.31196 0.82218 0.0
N31 N 0.61519 0.33047 0.77912 0.0
C32 C 0.617 0.35205 0.76286 0.0
H33 H 0.84504 0.73042 0.39213 0.0
H34 H 0.89641 0.73157 0.32947 0.0
H35 H 0.81902 0.65326 0.34134 0.0
C36 C 0.84836 0.7194 0.37537 0.0
C37 C 0.82857 0.69009 0.36834 0.0
C38 C 0.87238 0.73495 0.36136 0.0
C39 C 0.87809 0.72005 0.3405 0.0
C40 C 0.85884 0.69023 0.33345 0.0
C41 C 0.83428 0.67582 0.3474 0.0
N42 N 0.86146 0.67343 0.31196 0.0
C43 C 0.88417 0.67999 0.29564 0.0
H44 H 0.73457 0.7436 0.80121 0.0
H45 H 0.65133 0.70183 0.83572 0.0
H46 H 0.65632 0.76891 0.78603 0.0
C47 C 0.71093 0.74093 0.80381 0.0
C48 C 0.69713 0.75826 0.79125 0.0
C49 C 0.69475 0.72053 0.81999 0.0
C50 C 0.66418 0.71739 0.82329 0.0
C51 C 0.65053 0.73506 0.81148 0.0
C52 C 0.66692 0.7553 0.79527 0.0
N53 N 0.62094 0.73296 0.81705 0.0
C54 C 0.61555 0.7572 0.82083 0.0
H55 H 0.75817 0.18329 0.35072 0.0
H56 H 0.78712 0.23173 0.42841 0.0
H57 H 0.7206 0.24455 0.36543 0.0
C58 C 0.75744 0.19957 0.36408 0.0
C59 C 0.73781 0.21356 0.35474 0.0
C60 C 0.77521 0.20568 0.39069 0.0
C61 C 0.77316 0.22622 0.40795 0.0
C62 C 0.7534 0.24008 0.39917 0.0
C63 C 0.73561 0.23366 0.37251 0.0
N64 N 0.75243 0.26048 0.41781 0.0
C65 C 0.73232 0.27446 0.41302 0.0
H66 H 0.36317 0.7682 0.21309 0.0
H67 H 0.38495 0.71764 0.27248 0.0
H68 H 0.45989 0.79695 0.26012 0.0
C69 C 0.38051 0.76537 0.22875 0.0
C70 C 0.4128 0.78579 0.23471 0.0
C71 C 0.37041 0.74062 0.24198 0.0
C72 C 0.39267 0.73678 0.26235 0.0
C73 C 0.42485 0.75767 0.26934 0.0
C74 C 0.43472 0.78174 0.25528 0.0
N75 N 0.44836 0.75507 0.28985 0.0
C76 C 0.44227 0.73372 0.30688 0.0
H77 H 0.18305 0.37481 0.68958 0.0
H78 H 0.21961 0.44974 0.74639 0.0
H79 H 0.1371 0.37419 0.75585 0.0
C80 C 0.18132 0.38597 0.70712 0.0
C81 C 0.1572 0.3712 0.72125 0.0
C82 C 0.20409 0.41424 0.71583 0.0
C83 C 0.20222 0.42792 0.7393 0.0
C84 C 0.17785 0.41411 0.75365 0.0
C85 C 0.15539 0.38541 0.74468 0.0
N86 N 0.17871 0.42979 0.77762 0.0
C87 C 0.15452 0.4257 0.79207 0.0
Pr88 Pr 0.98717 0.02951 0.5527 0.0
Pr89 Pr 0.05261 0.07619 0.53274 0.0
C90 C 0.93514 0.9828 0.55816 0.0
C91 C 0.91788 0.96794 0.57883 0.0
C92 C 0.88983 0.97055 0.58223 0.0
C93 C 0.87242 0.95556 0.60076 0.0
C94 C 0.88249 0.93739 0.61612 0.0
C95 C 0.91063 0.93487 0.61284 0.0
C96 C 0.92814 0.94997 0.59439 0.0
C97 C 0.018 0.0824 0.5862 0.0
C98 C 0.06045 0.03311 0.57848 0.0
C99 C 0.10319 0.12397 0.52693 0.0
C100 C 0.11734 0.13938 0.50535 0.0
C101 C 0.11614 0.12462 0.48138 0.0
C102 C 0.12945 0.13975 0.46101 0.0
C103 C 0.14389 0.16987 0.46417 0.0
C104 C 0.14474 0.18452 0.48812 0.0
C105 C 0.13162 0.16937 0.50854 0.0
C106 C 0.02177 0.02324 0.49933 0.0
C107 C 0.97937 0.07199 0.5063 0.0
O108 O 0.96318 0.98253 0.55779 0.0
O109 O 0.93398 0.0071 0.55264 0.0
O110 O 0.02614 0.07454 0.56634 0.0
O111 O 0.99208 0.06124 0.59 0.0
O112 O 0.07435 0.0579 0.56889 0.0
O113 O 0.02875 0.01744 0.57311 0.0
O114 O 0.07544 0.12365 0.5292 0.0
O115 O 0.10503 0.09955 0.53055 0.0
O116 O 0.01352 0.03126 0.51904 0.0
O117 O 0.04794 0.04424 0.49568 0.0
O118 O 0.96561 0.04728 0.516 0.0
O119 O 0.01098 0.08783 0.51181 0.0
H120 H 0.88105 0.9839 0.57027 0.0
H121 H 0.85058 0.95762 0.60256 0.0
H122 H 0.91913 0.92122 0.62457 0.0
H123 H 0.94952 0.9473 0.59217 0.0
H124 H 0.10484 0.10143 0.47838 0.0
H125 H 0.12812 0.1279 0.44264 0.0
H126 H 0.15598 0.2077 0.49123 0.0
H127 H 0.13263 0.1811 0.52688 0.0
Pr128 Pr 0.49038 0.04483 0.04871 0.0
Pr129 Pr 0.55833 0.05164 0.03457 0.0
C130 C 0.44091 0.03219 0.07328 0.0
C131 C 0.43317 0.05145 0.08927 0.0
C132 C 0.45351 0.08081 0.09298 0.0
C133 C 0.44693 0.0997 0.10816 0.0
C134 C 0.41991 0.08959 0.12005 0.0
C135 C 0.39953 0.06006 0.11628 0.0
C136 C 0.40617 0.04108 0.10098 0.0
C137 C 0.51614 0.09367 0.02228 0.0
C138 C 0.56146 0.08927 0.08819 0.0
C139 C 0.60819 0.0566 0.01222 0.0
C140 C 0.61178 0.04138 0.98917 0.0
C141 C 0.63826 0.03448 0.9917 0.0
C142 C 0.63953 0.01619 0.97172 0.0
C143 C 0.61419 0.00435 0.94893 0.0
C144 C 0.58837 0.01235 0.94591 0.0
C145 C 0.58721 0.03075 0.96585 0.0
C146 C 0.53246 0.0116 0.06912 0.0
C147 C 0.48722 0.01131 0.99168 0.0
O148 O 0.46748 0.02983 0.08408 0.0
O149 O 0.43826 0.03555 0.04766 0.0
O150 O 0.52787 0.07625 0.02886 0.0
O151 O 0.48909 0.0863 0.03014 0.0
O152 O 0.57706 0.08892 0.06903 0.0
O153 O 0.53057 0.07205 0.08626 0.0
O154 O 0.59233 0.07245 1.007 0.0
O155 O 0.60068 0.04149 0.03214 0.0
O156 O 0.5166 0.01577 0.04811 0.0
O157 O 0.56321 0.02777 0.07251 0.0
O158 O 0.47063 0.01342 0.00945 0.0
O159 O 0.51922 0.02434 0.99618 0.0
H160 H 0.4745 0.08914 0.08403 0.0
H161 H 0.46277 0.12232 0.11021 0.0
H162 H 0.37867 0.05161 0.12537 0.0
H163 H 0.39034 0.01842 0.09834 0.0
H164 H 0.65731 0.0423 0.00966 0.0
H165 H 0.65957 0.01021 0.97479 0.0
H166 H 0.56869 1.00385 0.92842 0.0
H167 H 0.56661 0.03591 0.96347 0.0
Pr168 Pr 0.5301 0.57574 0.55799 0.0
Pr169 Pr 0.50696 0.51486 0.52915 0.0
C170 C 0.53657 0.6274 0.57739 0.0
C171 C 0.51721 0.64083 0.58684 0.0
C172 C 0.52952 0.65855 0.6113 0.0
C173 C 0.51236 0.67267 0.61998 0.0
C174 C 0.48268 0.66952 0.60421 0.0
C175 C 0.47012 0.65137 0.57993 0.0
C176 C 0.48713 0.63705 0.57137 0.0
C177 C 0.55554 0.54137 0.58535 0.0
C178 C 0.4605 0.52362 0.56645 0.0
C179 C 0.50105 0.46282 0.5113 0.0
C180 C 0.5164 0.44965 0.49599 0.0
C181 C 0.50515 0.41983 0.49311 0.0
C182 C 0.52089 0.40688 0.48047 0.0
C183 C 0.54828 0.42356 0.47049 0.0
C184 C 0.55911 0.45353 0.47298 0.0
C185 C 0.54328 0.46646 0.48565 0.0
C186 C 0.48238 0.54963 0.50112 0.0
C187 C 0.57605 0.56781 0.51945 0.0
O188 O 0.52942 0.61861 0.55175 0.0
O189 O 0.54393 0.61008 0.59266 0.0
O190 O 0.52661 0.53341 0.57316 0.0
O191 O 0.57261 0.56855 0.58464 0.0
O192 O 0.46915 0.50471 0.55644 0.0
O193 O 0.47697 0.55142 0.56549 0.0
O194 O 0.51822 0.47651 0.53477 0.0
O195 O 0.48511 0.47592 0.49805 0.0
O196 O 0.51095 0.55723 0.51396 0.0
O197 O 0.46522 0.52233 0.5012 0.0
O198 O 0.56887 0.58653 0.5317 0.0
O199 O 0.55845 0.53984 0.51838 0.0
H200 H 0.55269 0.66181 0.62351 0.0
H201 H 0.52277 0.6867 0.63867 0.0
H202 H 0.44712 0.64827 0.56753 0.0
H203 H 0.47691 0.62332 0.5525 0.0
H204 H 0.48457 0.40656 0.50119 0.0
H205 H 0.51218 0.38382 0.47931 0.0
H206 H 0.57989 0.467 0.46528 0.0
H207 H 0.55229 0.48956 0.48774 0.0
Pr208 Pr 0.01648 0.57555 0.02551 0.0
Pr209 Pr 0.01111 0.52659 0.05688 0.0
C210 C 1.00752 0.61618 0.9974 0.0
C211 C 0.97999 0.62257 0.98664 0.0
C212 C 0.98313 0.64263 0.96815 0.0
C213 C 0.95641 0.6473 0.95616 0.0
C214 C 0.92611 0.63194 0.96251 0.0
C215 C 0.92323 0.6122 0.98148 0.0
C216 C 0.94998 0.60744 0.99338 0.0
C217 C 0.07572 0.58284 0.05761 0.0
C218 C 0.99234 0.57396 0.08338 0.0
C219 C 0.01895 0.4853 0.08467 0.0
C220 C 0.04631 0.47883 0.09578 0.0
C221 C 0.04129 0.45458 0.10929 0.0
C222 C 0.06754 0.44927 0.12141 0.0
C223 C 0.09924 0.46822 0.12022 0.0
C224 C 0.10404 0.49229 0.10619 0.0
C225 C 0.07776 0.49756 0.09407 0.0
C226 C 0.95196 0.52031 0.02573 0.0
C227 C 0.03713 0.52909 0.99965 0.0
O228 O 1.00661 0.59276 0.98623 0.0
O229 O 0.01702 0.61957 0.02351 0.0
O230 O 0.04903 0.57293 0.06455 0.0
O231 O 0.07289 0.59127 0.03393 0.0
O232 O 1.00586 0.55626 0.08949 0.0
O233 O 0.98818 0.58059 0.05845 0.0
O234 O 0.01954 0.50856 0.09594 0.0
O235 O 0.01024 0.48239 0.05852 0.0
O236 O 0.97823 0.52924 0.01808 0.0
O237 O 0.9551 0.5125 0.04963 0.0
O238 O 0.02394 0.54698 0.99336 0.0
O239 O 0.04019 0.52186 0.02443 0.0
H240 H 1.00614 0.65436 0.96268 0.0
H241 H 0.95941 0.66288 0.94185 0.0
H242 H 0.90013 0.59987 0.98655 0.0
H243 H 0.94712 0.5916 0.00744 0.0
H244 H 0.01712 0.43995 0.11076 0.0
H245 H 0.06303 0.43034 0.13173 0.0
H246 H 0.12815 0.50745 0.10515 0.0
H247 H 0.08199 0.5165 0.08377 0.0
C248 C 0.26766 0.28319 0.27976 0.0
C249 C 0.29739 0.30674 0.28958 0.0
C250 C 0.24677 0.27057 0.29684 0.0
C251 C 0.23202 0.27911 0.36535 0.0
H252 H 0.19527 0.19614 0.35598 0.0
C253 C 0.15321 0.20998 0.4352 0.0
C254 C 0.15841 0.18597 0.44272 0.0
C255 C 0.16731 0.22532 0.41523 0.0
C256 C 0.20549 0.2193 0.359 0.0
H257 H 0.32807 0.3365 0.32448 0.0
H258 H 0.29203 0.31408 0.35465 0.0
H259 H 0.22465 0.22292 0.32367 0.0
H260 H 0.18282 0.15946 0.43554 0.0
H261 H 0.2078 0.18639 0.40105 0.0
H262 H 0.21416 0.27535 0.40151 0.0
C263 C 0.28442 0.30561 0.33366 0.0
C264 C 0.22193 0.23471 0.34019 0.0
C265 C 0.30514 0.31845 0.31643 0.0
C266 C 0.17797 0.17761 0.42987 0.0
C267 C 0.19222 0.19303 0.41005 0.0
C268 C 0.21571 0.26365 0.3843 0.0
C269 C 0.25541 0.28098 0.32424 0.0
C270 C 0.23571 0.26482 0.34324 0.0
C271 C 0.18706 0.21707 0.40245 0.0
C272 C 0.20264 0.23356 0.38153 0.0
H273 H 0.26102 0.27401 0.259 0.0
H274 H 0.22427 0.25212 0.28873 0.0
H275 H 0.24202 0.30225 0.36818 0.0
H276 H 0.13793 0.21671 0.44456 0.0
H277 H 0.16247 0.24347 0.40962 0.0
C278 C 0.34344 0.87158 0.77252 0.0
C279 C 0.34008 0.88777 0.75138 0.0
C280 C 0.35675 0.88466 0.79888 0.0
C281 C 0.41175 0.95416 0.83694 0.0
H282 H 0.37927 0.91779 0.89756 0.0
C283 C 0.43517 0.98266 0.9586 0.0
C284 C 0.46915 0.9947 0.96513 0.0
C285 C 0.41822 0.96898 0.93287 0.0
C286 C 0.38852 0.9283 0.88084 0.0
H287 H 0.34722 0.93027 0.74137 0.0
H288 H 0.37037 0.95321 0.78759 0.0
H289 H 0.35028 0.89594 0.85191 0.0
H290 H 0.51176 1.00071 0.94983 0.0
H291 H 0.48224 0.97687 0.90508 0.0
H292 H 0.44993 0.98655 0.86582 0.0
C293 C 0.36292 0.93038 0.78367 0.0
C294 C 0.37205 0.91568 0.85471 0.0
C295 C 0.3494 0.91723 0.75727 0.0
C296 C 0.48568 0.99202 0.9455 0.0
C297 C 0.46875 0.97844 0.91976 0.0
C298 C 0.4283 0.96668 0.86306 0.0
C299 C 0.36713 0.91429 0.80471 0.0
C300 C 0.38357 0.92841 0.83246 0.0
C301 C 0.43485 0.96709 0.91304 0.0
C302 C 0.41698 0.95382 0.88531 0.0
H303 H 0.33616 0.84877 0.76861 0.0
H304 H 0.35986 0.87169 0.81457 0.0
H305 H 0.42145 0.96434 0.82025 0.0
H306 H 0.42158 0.9843 0.97316 0.0
H307 H 0.39211 0.96059 0.92828 0.0
C308 C 0.58819 0.36424 0.72349 0.0
C309 C 0.61536 0.37231 0.74442 0.0
C310 C 0.58589 0.38354 0.70545 0.0
C311 C 0.61667 0.46059 0.69801 0.0
H312 H 0.57729 0.43256 0.62298 0.0
C313 C 0.59797 0.53394 0.61828 0.0
C314 C 0.56681 0.52293 0.60187 0.0
C315 C 0.60772 0.51648 0.63484 0.0
C316 C 0.58828 0.44069 0.64388 0.0
H317 H 0.66152 0.4064 0.76339 0.0
H318 H 0.65778 0.44047 0.73158 0.0
H319 H 0.58762 0.40043 0.65368 0.0
H320 H 0.52154 0.48508 0.58968 0.0
H321 H 0.53857 0.45466 0.61823 0.0
H322 H 0.61691 0.50081 0.68812 0.0
C323 C 0.63809 0.41932 0.72916 0.0
C324 C 0.59413 0.42228 0.66149 0.0
C325 C 0.64034 0.39989 0.74725 0.0
C326 C 0.5458 0.49411 0.60195 0.0
C327 C 0.5556 0.47665 0.61825 0.0
C328 C 0.61092 0.47907 0.68032 0.0
C329 C 0.61081 0.41131 0.708 0.0
C330 C 0.60771 0.4318 0.68889 0.0
C331 C 0.58657 0.48765 0.63502 0.0
C332 C 0.59601 0.46912 0.65319 0.0
H333 H 0.56861 0.34301 0.72115 0.0
H334 H 0.56427 0.37682 0.68976 0.0
H335 H 0.62693 0.46855 0.71902 0.0
H336 H 0.61463 0.5561 0.61861 0.0
H337 H 0.63178 0.52548 0.64746 0.0
C338 C 0.92127 0.66187 0.28095 0.0
C339 C 0.90134 0.6763 0.27544 0.0
C340 C 0.93266 0.65285 0.26036 0.0
C341 C 0.94295 0.66113 0.1891 0.0
H342 H 0.94304 0.58616 0.19152 0.0
C343 C 0.96556 0.60403 0.09912 0.0
C344 C 0.98196 0.58647 0.10489 0.0
C345 C 0.95616 0.61572 0.11955 0.0
C346 C 0.94373 0.60733 0.19053 0.0
H347 H 0.87781 0.69267 0.24393 0.0
H348 H 0.89796 0.67739 0.20801 0.0
H349 H 0.92764 0.60592 0.22746 0.0
H350 H 1.00149 0.56794 0.13724 0.0
H351 H 0.98585 0.58847 0.17251 0.0
H352 H 0.95918 0.66254 0.15214 0.0
C353 C 0.90527 0.67328 0.2283 0.0
C354 C 0.93479 0.61876 0.21135 0.0
C355 C 0.89376 0.6822 0.24894 0.0
C356 C 0.98873 0.58112 0.13177 0.0
C357 C 0.97947 0.59285 0.15215 0.0
C358 C 0.95207 0.64973 0.16828 0.0
C359 C 0.92433 0.65783 0.23352 0.0
C360 C 0.9343 0.6459 0.21112 0.0
C361 C 0.96289 0.61032 0.1465 0.0
C362 C 0.95273 0.62261 0.16861 0.0
H363 H 0.92706 0.65654 0.30106 0.0
H364 H 0.94763 0.64149 0.26548 0.0
H365 H 0.94324 0.68217 0.18812 0.0
H366 H 0.9598 0.60868 0.07874 0.0
H367 H 0.94314 0.62867 0.11404 0.0
C368 C 0.33667 0.25936 0.21792 0.0
C369 C 0.3618 0.28455 0.23221 0.0
C370 C 0.34344 0.23827 0.20644 0.0
C371 C 0.40871 0.22557 0.185 0.0
H372 H 0.353 0.14606 0.18893 0.0
C373 C 0.43835 0.13326 0.15274 0.0
C374 C 0.41297 0.11012 0.13577 0.0
C375 C 0.43234 0.15403 0.16576 0.0
C376 C 0.36862 0.16816 0.18754 0.0
H377 H 0.41371 0.30766 0.24542 0.0
H378 H 0.42567 0.27056 0.22561 0.0
H379 H 0.34254 0.1839 0.20889 0.0
H380 H 0.36125 0.09026 0.11975 0.0
H381 H 0.3507 0.12641 0.14285 0.0
H382 H 0.43489 0.20972 0.16379 0.0
C383 C 0.40071 0.26728 0.22298 0.0
C384 C 0.36261 0.18985 0.19888 0.0
C385 C 0.39391 0.28851 0.23434 0.0
C386 C 0.38127 0.10765 0.1329 0.0
C387 C 0.37523 0.12837 0.14607 0.0
C388 C 0.41483 0.20387 0.17379 0.0
C389 C 0.37551 0.2418 0.2091 0.0
C390 C 0.38245 0.21881 0.19759 0.0
C391 C 0.4008 0.15201 0.16227 0.0
C392 C 0.39475 0.17496 0.17484 0.0
H393 H 0.3117 0.25598 0.21559 0.0
H394 H 0.3235 0.21923 0.19536 0.0
H395 H 0.42418 0.24762 0.1833 0.0
H396 H 0.46296 0.13547 0.15582 0.0
H397 H 0.45241 0.17174 0.17853 0.0
C398 C 0.25289 0.93413 0.65625 0.0
C399 C 0.24012 0.90642 0.66384 0.0
C400 C 0.23408 0.9496 0.65256 0.0
C401 C 0.14877 0.93692 0.63456 0.0
H402 H 0.18266 0.01916 0.65139 0.0
C403 C 0.06792 0.99595 0.60629 0.0
C404 C 0.08147 0.02144 0.59461 0.0
C405 C 0.08739 0.98333 0.61907 0.0
C406 C 0.17287 0.99621 0.64641 0.0
H407 H 0.19855 0.87317 0.67443 0.0
H408 H 0.1656 0.90025 0.66836 0.0
H409 H 0.21684 0.99462 0.66641 0.0
H410 H 0.12648 0.05419 0.58816 0.0
H411 H 0.16024 0.03197 0.61 0.0
H412 H 0.1052 0.93844 0.61395 0.0
C413 C 0.18996 0.91007 0.66499 0.0
C414 C 0.19246 0.98214 0.65506 0.0
C415 C 0.20883 0.89465 0.6687 0.0
C416 C 0.11515 0.03458 0.59694 0.0
C417 C 0.13461 0.02189 0.60963 0.0
C418 C 0.12926 0.95095 0.62587 0.0
C419 C 0.20209 0.93747 0.65625 0.0
C420 C 0.18073 0.95235 0.649 0.0
C421 C 0.1209 0.9958 0.62039 0.0
C422 C 0.14113 0.98082 0.63143 0.0
H423 H 0.27694 0.94338 0.65214 0.0
H424 H 0.24406 0.97049 0.64555 0.0
H425 H 0.13913 0.91405 0.62908 0.0
H426 H 0.04212 0.98533 0.60511 0.0
H427 H 0.07607 0.96354 0.62759 0.0
C428 C 0.68025 0.40356 0.88881 0.0
C429 C 0.68263 0.39296 0.86402 0.0
C430 C 0.70727 0.42502 0.90561 0.0
C431 C 0.79175 0.47833 0.91114 0.0
H432 H 0.80545 0.45126 0.98052 0.0
C433 C 0.91798 0.51448 0.98 0.0
C434 C 0.92056 0.51394 0.00782 0.0
C435 C 0.88773 0.50565 0.96278 0.0
C436 C 0.8019 0.45972 0.96159 0.0
H437 H 0.71445 0.39827 0.83643 0.0
H438 H 0.76164 0.43594 0.86575 0.0
H439 H 0.75414 0.42656 0.94918 0.0
H440 H 0.89413 0.50607 0.03972 0.0
H441 H 0.84141 0.49168 0.00987 0.0
H442 H 0.83981 0.51137 0.92353 0.0
C443 C 0.73886 0.42765 0.87216 0.0
C444 C 0.77237 0.44543 0.94353 0.0
C445 C 0.71181 0.40607 0.85535 0.0
C446 C 0.89268 0.50615 0.01828 0.0
C447 C 0.86248 0.49777 1.00112 0.0
C448 C 0.82129 0.49293 0.9294 0.0
C449 C 0.73718 0.43641 0.89793 0.0
C450 C 0.76715 0.45421 0.91794 0.0
C451 C 0.85946 0.49652 0.97308 0.0
C452 C 0.82698 0.48342 0.95468 0.0
H453 H 0.65789 0.39423 0.8958 0.0
H454 H 0.70514 0.43175 0.92518 0.0
H455 H 0.78828 0.48565 0.89159 0.0
H456 H 0.9392 0.5206 0.97143 0.0
H457 H 0.88648 0.50476 0.94135 0.0
C458 C 0.78394 0.68938 0.39056 0.0
C459 C 0.80146 0.67503 0.38248 0.0
C460 C 0.75944 0.67615 0.4046 0.0
C461 C 0.72669 0.6148 0.44485 0.0
H462 H 0.65413 0.63506 0.43478 0.0
C463 C 0.61431 0.5602 0.49379 0.0
C464 C 0.60308 0.57867 0.50478 0.0
C465 C 0.63853 0.57052 0.47878 0.0
C466 C 0.67433 0.62929 0.43802 0.0
H467 H 0.80597 0.63484 0.38277 0.0
H468 H 0.76245 0.61137 0.40644 0.0
H469 H 0.69487 0.65469 0.4081 0.0
H470 H 0.60907 0.6227 0.50861 0.0
H471 H 0.65075 0.64043 0.48248 0.0
H472 H 0.70543 0.58891 0.47456 0.0
C473 C 0.76826 0.63326 0.40242 0.0
C474 C 0.69791 0.64068 0.42272 0.0
C475 C 0.79305 0.64664 0.38847 0.0
C476 C 0.617 0.60775 0.50057 0.0
C477 C 0.64083 0.61794 0.48536 0.0
C478 C 0.70281 0.60313 0.45998 0.0
C479 C 0.75109 0.64785 0.41082 0.0
C480 C 0.72483 0.63404 0.42614 0.0
C481 C 0.6518 0.59948 0.47405 0.0
C482 C 0.67654 0.61056 0.45706 0.0
H483 H 0.78904 0.71102 0.38599 0.0
H484 H 0.74739 0.68847 0.41093 0.0
H485 H 0.74706 0.60929 0.4484 0.0
H486 H 0.60425 0.5377 0.49658 0.0
H487 H 0.64628 0.55565 0.47031 0.0
C488 C 0.33566 0.42357 0.20935 0.0
C489 C 0.33549 0.41193 0.23383 0.0
C490 C 0.31173 0.43249 0.19878 0.0
C491 C 0.22817 0.41832 0.20121 0.0
H492 H 0.2449 0.48553 0.1633 0.0
C493 C 0.12806 0.45415 0.15987 0.0
C494 C 0.12721 0.46322 0.1341 0.0
C495 C 0.15431 0.44946 0.17304 0.0
C496 C 0.23983 0.46655 0.17362 0.0
H497 H 0.31133 0.40081 0.26701 0.0
H498 H 0.26955 0.41677 0.2488 0.0
H499 H 0.28998 0.47556 0.18531 0.0
H500 H 0.15321 0.47433 0.10188 0.0
H501 H 0.19907 0.46602 0.12485 0.0
H502 H 0.17807 0.40908 0.18931 0.0
C503 C 0.28785 0.41883 0.23756 0.0
C504 C 0.26564 0.46088 0.18627 0.0
C505 C 0.31182 0.40994 0.2481 0.0
C506 C 0.15332 0.46766 0.12185 0.0
C507 C 0.17961 0.46295 0.13503 0.0
C508 C 0.2024 0.42398 0.18858 0.0
C509 C 0.2872 0.42972 0.21254 0.0
C510 C 0.26008 0.43663 0.20012 0.0
C511 C 0.18035 0.45371 0.16074 0.0
C512 C 0.20791 0.44809 0.17455 0.0
H513 H 0.35365 0.42492 0.19797 0.0
H514 H 0.31169 0.44046 0.17934 0.0
H515 H 0.22299 0.39916 0.21127 0.0
H516 H 0.1086 0.45105 0.17006 0.0
H517 H 0.15439 0.4428 0.19301 0.0
C518 C 0.59384 0.294 0.88731 0.0
C519 C 0.60796 0.29123 0.86596 0.0
C520 C 0.58303 0.2717 0.90316 0.0
C521 C 0.59803 0.21202 0.92746 0.0
H522 H 0.51272 0.18499 0.94337 0.0
C523 C 0.54938 0.1164 0.98893 0.0
C524 C 0.52875 0.11695 1.00559 0.0
C525 C 0.5592 0.13736 0.97154 0.0
C526 C 0.53684 0.19257 0.93955 0.0
H527 H 0.62186 0.26316 0.84428 0.0
H528 H 0.60342 0.22417 0.87244 0.0
H529 H 0.52889 0.22184 0.91325 0.0
H530 H 0.5028 0.13999 0.01785 0.0
H531 H 0.52098 0.17733 0.9885 0.0
H532 H 0.60661 0.18365 0.95441 0.0
C533 C 0.60053 0.24354 0.87671 0.0
C534 C 0.54595 0.21353 0.92211 0.0
C535 C 0.61084 0.26568 0.86054 0.0
C536 C 0.51865 0.13909 1.00508 0.0
C537 C 0.52885 0.1603 0.98804 0.0
C538 C 0.58913 0.19136 0.94526 0.0
C539 C 0.58664 0.24642 0.89822 0.0
C540 C 0.57662 0.22347 0.91594 0.0
C541 C 0.54887 0.15951 0.97072 0.0
C542 C 0.55842 0.1814 0.95161 0.0
H543 H 0.59132 0.3135 0.89182 0.0
H544 H 0.57257 0.2745 0.91971 0.0
H545 H 0.62198 0.21959 0.92324 0.0
H546 H 0.55697 0.09921 0.98862 0.0
H547 H 0.57414 0.13568 0.95823 0.0
C548 C 0.87194 0.78214 0.37403 0.0
C549 C 0.88973 0.76682 0.36891 0.0
C550 C 0.88728 0.8105 0.38596 0.0
C551 C 0.96737 0.86486 0.42584 0.0
H552 H 0.92252 0.91404 0.41744 0.0
C553 C 0.0248 0.98563 0.46924 0.0
C554 C 1.00694 0.99402 0.4843 0.0
C555 C 0.01144 0.9583 0.45485 0.0
C556 C 0.93528 0.9005 0.42014 0.0
H557 H 0.93813 0.77051 0.37076 0.0
H558 H 0.96527 0.82078 0.39029 0.0
H559 H 0.89919 0.86777 0.39049 0.0
H560 H 0.96083 0.98022 0.49587 0.0
H561 H 0.93691 0.93267 0.4698 0.0
H562 H 1.00421 0.8987 0.45474 0.0
C563 C 0.93915 0.81035 0.3861 0.0
C564 C 0.92181 0.8737 0.40474 0.0
C565 C 0.92361 0.78155 0.3744 0.0
C566 C 0.97521 0.9744 0.48449 0.0
C567 C 0.96152 0.94724 0.46951 0.0
C568 C 0.98119 0.89202 0.44079 0.0
C569 C 0.92122 0.82515 0.39274 0.0
C570 C 0.93726 0.85504 0.40759 0.0
C571 C 0.97953 0.93881 0.45458 0.0
C572 C 0.96509 0.91002 0.43843 0.0
H573 H 0.84577 0.77171 0.36978 0.0
H574 H 0.87216 0.82039 0.39083 0.0
H575 H 0.98007 0.85136 0.4292 0.0
H576 H 0.04933 1.00019 0.4687 0.0
H577 H 0.0259 0.9526 0.44348 0.0
C578 C 0.35196 0.82374 0.6532 0.0
C579 C 0.34516 0.82336 0.67897 0.0
C580 C 0.36578 0.80633 0.64492 0.0
C581 C 0.38082 0.74247 0.66133 0.0
H582 H 0.44477 0.77271 0.61766 0.0
C583 C 0.46191 0.68768 0.63931 0.0
C584 C 0.46542 0.68586 0.61263 0.0
C585 C 0.44634 0.7037 0.64729 0.0
C586 C 0.42674 0.76388 0.62966 0.0
H587 H 0.3471 0.80378 0.71603 0.0
H588 H 0.37229 0.7743 0.70201 0.0
H589 H 0.41957 0.80216 0.63193 0.0
H590 H 0.45557 0.69953 0.57346 0.0
H591 H 0.42845 0.72756 0.58741 0.0
H592 H 0.38867 0.70438 0.65942 0.0
C593 C 0.36644 0.78771 0.68797 0.0
C594 C 0.41219 0.78072 0.63778 0.0
C595 C 0.35238 0.80496 0.69618 0.0
C596 C 0.45297 0.70033 0.59409 0.0
C597 C 0.43772 0.71658 0.60213 0.0
C598 C 0.39563 0.72574 0.6534 0.0
C599 C 0.37343 0.78822 0.66226 0.0
C600 C 0.38894 0.77022 0.65365 0.0
C601 C 0.43431 0.7185 0.62882 0.0
C602 C 0.41866 0.73624 0.63741 0.0
H603 H 0.3471 0.83785 0.63949 0.0
H604 H 0.37034 0.80701 0.62483 0.0
H605 H 0.36267 0.73346 0.67317 0.0
H606 H 0.4711 0.67661 0.65399 0.0
H607 H 0.44424 0.70494 0.66804 0.0
C608 C 0.69835 0.78164 0.7487 0.0
C609 C 0.71452 0.77952 0.77413 0.0
C610 C 0.71525 0.80038 0.73188 0.0
C611 C 0.79061 0.86403 0.73123 0.0
H612 H 0.77622 0.83367 0.65726 0.0
C613 C 0.85032 0.93295 0.65163 0.0
C614 C 0.86311 0.92045 0.63487 0.0
C615 C 0.83146 0.91673 0.66882 0.0
C616 C 0.78056 0.84241 0.67788 0.0
H617 H 0.76071 0.79619 0.80234 0.0
H618 H 0.79027 0.8288 0.77293 0.0
H619 H 0.74424 0.80408 0.68716 0.0
H620 H 0.86598 0.8811 0.62286 0.0
H621 H 0.8333 0.85286 0.65301 0.0
H622 H 0.82737 0.90219 0.72203 0.0
C623 C 0.76455 0.81601 0.76599 0.0
C624 C 0.76201 0.8256 0.69491 0.0
C625 C 0.74771 0.79714 0.78272 0.0
C626 C 0.85673 0.89142 0.63572 0.0
C627 C 0.83772 0.87517 0.65276 0.0
C628 C 0.80903 0.88094 0.71413 0.0
C629 C 0.7486 0.81755 0.74025 0.0
C630 C 0.76704 0.83612 0.72183 0.0
C631 C 0.8248 0.88761 0.66943 0.0
C632 C 0.80442 0.87018 0.68735 0.0
H633 H 0.6728 0.76823 0.74153 0.0
H634 H 0.70227 0.80132 0.71224 0.0
H635 H 0.79485 0.87278 0.75183 0.0
H636 H 0.85504 0.95534 0.65157 0.0
H637 H 0.82168 0.92686 0.68133 0.0
C638 C 0.68677 0.20153 0.32009 0.0
C639 C 0.71954 0.20676 0.32642 0.0
C640 C 0.66911 0.19295 0.29358 0.0
C641 C 0.67739 0.1899 0.22278 0.0
H642 H 0.59462 0.12399 0.21182 0.0
C643 C 0.61326 0.12081 0.12027 0.0
C644 C 0.57933 0.10822 0.11359 0.0
C645 C 0.62983 0.13627 0.14548 0.0
C646 C 0.61739 0.14273 0.21444 0.0
H647 H 0.75988 0.20844 0.30979 0.0
H648 H 0.72907 0.19331 0.26365 0.0
H649 H 0.62426 0.14522 0.25723 0.0
H650 H 0.53623 0.1034 0.12759 0.0
H651 H 0.56507 0.13079 0.17115 0.0
H652 H 0.67066 0.18722 0.17995 0.0
C653 C 0.71698 0.19585 0.2791 0.0
C654 C 0.63441 0.15489 0.24053 0.0
C655 C 0.73455 0.20423 0.30557 0.0
C656 C 0.56239 0.11248 0.1322 0.0
C657 C 0.57893 0.12808 0.15727 0.0
C658 C 0.66028 0.17781 0.19663 0.0
C659 C 0.68394 0.18968 0.27284 0.0
C660 C 0.66479 0.17838 0.24503 0.0
C661 C 0.61284 0.13966 0.16448 0.0
C662 C 0.63023 0.15385 0.19214 0.0
H663 H 0.67452 0.20319 0.33574 0.0
H664 H 0.64375 0.1886 0.28935 0.0
H665 H 0.70057 0.20822 0.22559 0.0
H666 H 0.62704 0.11787 0.10644 0.0
H667 H 0.65593 0.14464 0.1504 0.0
C668 C 0.41649 0.68654 0.32343 0.0
C669 C 0.44151 0.71418 0.32669 0.0
C670 C 0.41755 0.66744 0.34228 0.0
C671 C 0.47654 0.6541 0.392 0.0
H672 H 0.40363 0.60698 0.42191 0.0
C673 C 0.49488 0.59643 0.48299 0.0
C674 C 0.47305 0.56781 0.48269 0.0
C675 C 0.48816 0.61328 0.46405 0.0
C676 C 0.42409 0.61978 0.4135 0.0
H677 H 0.4866 0.74414 0.35187 0.0
H678 H 0.48853 0.71105 0.3848 0.0
H679 H 0.39696 0.63815 0.38803 0.0
H680 H 0.42642 0.53464 0.46299 0.0
H681 H 0.41472 0.56418 0.42939 0.0
H682 H 0.50373 0.63596 0.41713 0.0
C683 C 0.46829 0.70382 0.36775 0.0
C684 C 0.42026 0.6376 0.39413 0.0
C685 C 0.46714 0.7228 0.34905 0.0
C686 C 0.44369 0.55666 0.46364 0.0
C687 C 0.43697 0.57358 0.44449 0.0
C688 C 0.48032 0.63635 0.41118 0.0
C689 C 0.4438 0.67578 0.3644 0.0
C690 C 0.44666 0.65533 0.38357 0.0
C691 C 0.45953 0.6019 0.44414 0.0
C692 C 0.45436 0.61937 0.42257 0.0
H693 H 0.39653 0.6796 0.30616 0.0
H694 H 0.39841 0.64594 0.33914 0.0
H695 H 0.49714 0.66697 0.38377 0.0
H696 H 0.51767 0.60568 0.49747 0.0
H697 H 0.50572 0.6352 0.46477 0.0
C698 C 0.14046 0.42194 0.83721 0.0
C699 C 0.13654 0.4302 0.81121 0.0
C700 C 0.12808 0.43081 0.8572 0.0
C701 C 0.10211 0.48788 0.8747 0.0
H702 H 0.06956 0.44078 0.92989 0.0
C703 C 0.04419 0.52416 0.95195 0.0
C704 C 0.04848 0.5171 0.97847 0.0
C705 C 0.05434 0.51293 0.93187 0.0
C706 C 0.07894 0.45448 0.9149 0.0
H707 H 0.1164 0.45417 0.7858 0.0
H708 H 0.0942 0.46912 0.8202 0.0
H709 H 0.08691 0.42186 0.89449 0.0
H710 H 0.06715 0.49232 1.00427 0.0
H711 H 0.08522 0.47308 0.96948 0.0
H712 H 0.09449 0.52058 0.89511 0.0
C713 C 0.10705 0.45598 0.82547 0.0
C714 C 0.08891 0.44352 0.8944 0.0
C715 C 0.11938 0.44704 0.80551 0.0
C716 C 0.06332 0.49833 0.98417 0.0
C717 C 0.07353 0.48708 0.96403 0.0
C718 C 0.09223 0.49884 0.89518 0.0
C719 C 0.11168 0.4485 0.85188 0.0
C720 C 0.1006 0.45998 0.87383 0.0
C721 C 0.06929 0.4942 0.93745 0.0
C722 C 0.08033 0.48237 0.91567 0.0
H723 H 0.15421 0.40951 0.84241 0.0
H724 H 0.13261 0.42475 0.87718 0.0
H725 H 0.11158 0.50165 0.85978 0.0
H726 H 0.03273 0.53835 0.94653 0.0
H727 H 0.04993 0.5187 0.91175 0.0
C728 C 0.58554 0.78388 0.83285 0.0
C729 C 0.61381 0.78376 0.82718 0.0
C730 C 0.5852 0.8096 0.84175 0.0
C731 C 0.64043 0.88035 0.87728 0.0
H732 H 0.56741 0.89904 0.85572 0.0
C733 C 0.6418 0.98459 0.92152 0.0
C734 C 0.61354 0.98202 0.92959 0.0
C735 C 0.64177 0.96221 0.90547 0.0
C736 C 0.58792 0.89404 0.86205 0.0
H737 H 0.66354 0.80967 0.82548 0.0
H738 H 0.66304 0.8548 0.84084 0.0
H739 H 0.56717 0.85618 0.83397 0.0
H740 H 0.56292 0.95415 0.92676 0.0
H741 H 0.56291 0.91509 0.89899 0.0
H742 H 0.66087 0.91761 0.90583 0.0
C743 C 0.6412 0.8352 0.83867 0.0
C744 C 0.58777 0.86951 0.84958 0.0
C745 C 0.64147 0.8095 0.82974 0.0
C746 C 0.58499 0.95697 0.92056 0.0
C747 C 0.58498 0.93456 0.90461 0.0
C748 C 0.64054 0.90477 0.8898 0.0
C749 C 0.61323 0.83547 0.84523 0.0
C750 C 0.61393 0.8623 0.85722 0.0
C751 C 0.61351 0.93671 0.89726 0.0
C752 C 0.61417 0.9118 0.88252 0.0
H753 H 0.56406 0.76404 0.83114 0.0
H754 H 0.5634 0.80907 0.8469 0.0
H755 H 0.66071 0.87512 0.88396 0.0
H756 H 0.66406 1.00379 0.92788 0.0
H757 H 0.66402 0.96477 0.89976 0.0
C758 C 0.81338 0.184 0.38392 0.0
C759 C 0.79561 0.19045 0.40051 0.0
C760 C 0.83238 0.16961 0.39316 0.0
C761 C 0.84486 0.12491 0.44639 0.0
H762 H 0.92796 0.14707 0.42713 0.0
C763 C 0.92495 0.06618 0.48091 0.0
C764 C 0.95825 0.08328 0.48979 0.0
C765 C 0.90465 0.07769 0.46744 0.0
C766 C 0.90491 0.14071 0.43286 0.0
H767 H 0.78374 0.18636 0.43985 0.0
H768 H 0.81775 0.16238 0.45627 0.0
H769 H 0.89383 0.17072 0.40976 0.0
H770 H 0.99636 0.12579 0.49085 0.0
H771 H 0.961 0.14593 0.46802 0.0
H772 H 0.85653 0.09584 0.47046 0.0
C773 C 0.81656 0.16794 0.4359 0.0
C774 C 0.8851 0.15403 0.42259 0.0
C775 C 0.79739 0.18214 0.4266 0.0
C776 C 0.97087 0.11192 0.4842 0.0
C777 C 0.95054 0.12347 0.47095 0.0
C778 C 0.86476 0.11174 0.45681 0.0
C779 C 0.83429 0.16143 0.4193 0.0
C780 C 0.85491 0.14648 0.42939 0.0
C781 C 0.91708 0.10664 0.46271 0.0
C782 C 0.89517 0.1196 0.45036 0.0
H783 H 0.8129 0.19033 0.36382 0.0
H784 H 0.84539 0.16471 0.37968 0.0
H785 H 0.82157 0.11817 0.45175 0.0
H786 H 0.91442 0.04398 0.48467 0.0
H787 H 0.87912 0.0639 0.46093 0.0
C788 C 0.33217 0.69046 0.22285 0.0
C789 C 0.3372 0.71813 0.23229 0.0
C790 C 0.30218 0.67155 0.20723 0.0
C791 C 0.23145 0.63318 0.17879 0.0
H792 H 0.2021 0.67299 0.12408 0.0
C793 C 0.10736 0.58398 0.10318 0.0
C794 C 0.10675 0.59204 0.07704 0.0
C795 C 0.13604 0.59569 0.12275 0.0
C796 C 0.21011 0.66149 0.13906 0.0
H797 H 0.31426 0.74676 0.23535 0.0
H798 H 0.26184 0.71368 0.20851 0.0
H799 H 0.24911 0.69996 0.15955 0.0
H800 H 0.13591 0.617 0.05028 0.0
H801 H 0.18603 0.63752 0.08446 0.0
H802 H 0.19222 0.59458 0.15789 0.0
C803 C 0.28115 0.70678 0.21255 0.0
C804 C 0.23676 0.677 0.15964 0.0
C805 C 0.31103 0.72563 0.22803 0.0
C806 C 0.13564 0.61066 0.07035 0.0
C807 C 0.16427 0.62248 0.08994 0.0
C808 C 0.20446 0.61759 0.1582 0.0
C809 C 0.27687 0.6801 0.2009 0.0
C810 C 0.24771 0.66309 0.17979 0.0
C811 C 0.16455 0.61577 0.11652 0.0
C812 C 0.19364 0.63164 0.13806 0.0
H813 H 0.35205 0.68427 0.22574 0.0
H814 H 0.29958 0.65113 0.19852 0.0
H815 H 0.23942 0.62191 0.19404 0.0
H816 H 0.08542 0.56941 0.10878 0.0
H817 H 0.13549 0.59014 0.14305 0.0
C818 C 0.26235 0.44524 0.71372 0.0
C819 C 0.23 0.42881 0.70048 0.0
C820 C 0.28682 0.45684 0.69911 0.0
C821 C 0.30415 0.44738 0.63158 0.0
H822 H 0.37787 0.52033 0.65565 0.0
C823 C 0.41632 0.48426 0.58324 0.0
C824 C 0.43277 0.5135 0.58042 0.0
C825 C 0.39144 0.47476 0.5975 0.0
C826 C 0.35734 0.50002 0.64842 0.0
H827 H 0.1981 0.41312 0.66122 0.0
H828 H 0.24029 0.43344 0.63592 0.0
H829 H 0.33509 0.50324 0.68093 0.0
H830 H 0.43532 0.55561 0.59044 0.0
H831 H 0.39167 0.53904 0.6149 0.0
H832 H 0.32595 0.44435 0.59883 0.0
C833 C 0.2471 0.43676 0.65764 0.0
C834 C 0.33288 0.49 0.66319 0.0
C835 C 0.22275 0.42513 0.6722 0.0
C836 C 0.4233 0.53293 0.59212 0.0
C837 C 0.39835 0.52341 0.6064 0.0
C838 C 0.32854 0.45738 0.61684 0.0
C839 C 0.27965 0.45245 0.6708 0.0
C840 C 0.30586 0.46348 0.65503 0.0
C841 C 0.38206 0.49415 0.60944 0.0
C842 C 0.35563 0.48383 0.62502 0.0
H843 H 0.26899 0.44834 0.73545 0.0
H844 H 0.31151 0.46851 0.71011 0.0
H845 H 0.2841 0.42671 0.6247 0.0
H846 H 0.42295 0.46859 0.57473 0.0
H847 H 0.38 0.45215 0.59964 0.0
C848 C 0.71046 0.70066 0.86188 0.0
C849 C 0.71089 0.70396 0.83466 0.0
C850 C 0.72871 0.68798 0.87653 0.0
C851 C 0.77508 0.64506 0.86962 0.0
H852 H 0.8256 0.68562 0.93936 0.0
C853 C 0.89182 0.63736 0.92096 0.0
C854 C 0.89754 0.63609 0.94882 0.0
C855 C 0.86537 0.64186 0.90799 0.0
C856 C 0.81129 0.67376 0.92012 0.0
H857 H 0.72936 0.69509 0.80112 0.0
H858 H 0.76177 0.67365 0.82675 0.0
H859 H 0.78511 0.69963 0.91476 0.0
H860 H 0.87989 0.63824 0.98491 0.0
H861 H 0.83351 0.64618 0.96217 0.0
H862 H 0.80214 0.61983 0.87469 0.0
C863 C 0.74714 0.68059 0.83679 0.0
C864 C 0.78802 0.68174 0.90602 0.0
C865 C 0.72886 0.6932 0.82214 0.0
C866 C 0.87598 0.63902 0.9634 0.0
C867 C 0.8496 0.64374 0.95043 0.0
C868 C 0.79846 0.63717 0.88367 0.0
C869 C 0.74781 0.67835 0.86429 0.0
C870 C 0.77003 0.66781 0.88039 0.0
C871 C 0.84411 0.64533 0.9226 0.0
C872 C 0.81719 0.65178 0.90886 0.0
H873 H 0.69706 0.70891 0.87218 0.0
H874 H 0.72835 0.68622 0.89759 0.0
H875 H 0.76125 0.63356 0.85014 0.0
H876 H 0.90781 0.63483 0.90916 0.0
H877 H 0.86199 0.6433 0.88658 0.0
C878 C 0.44802 0.83733 0.23025 0.0
C879 C 0.42375 0.8104 0.21852 0.0
C880 C 0.45877 0.85999 0.21468 0.0
C881 C 0.45807 0.87436 0.14326 0.0
H882 H 0.48704 0.95304 0.17315 0.0
C883 C 0.48674 0.96867 0.07882 0.0
C884 C 0.51811 0.99048 0.08725 0.0
C885 C 0.47401 0.94758 0.09543 0.0
C886 C 0.479 0.93113 0.16463 0.0
H887 H 0.39201 0.78643 0.18088 0.0
H888 H 0.40902 0.82608 0.15442 0.0
H889 H 0.46671 0.91435 0.20095 0.0
H890 H 0.56026 0.00819 0.11993 0.0
H891 H 0.53759 0.97163 0.14928 0.0
H892 H 0.46959 0.8913 0.10673 0.0
C893 C 0.42056 0.82964 0.17548 0.0
C894 C 0.46758 0.90894 0.18056 0.0
C895 C 0.41027 0.80691 0.19089 0.0
C896 C 0.53608 0.99148 0.11292 0.0
C897 C 0.52309 0.97071 0.12974 0.0
C898 C 0.46888 0.89647 0.12725 0.0
C899 C 0.44524 0.85642 0.18703 0.0
C900 C 0.45707 0.88022 0.17012 0.0
C901 C 0.49217 0.94833 0.12094 0.0
C902 C 0.47958 0.92503 0.13781 0.0
H903 H 0.45874 0.84101 0.25151 0.0
H904 H 0.47809 0.88014 0.22431 0.0
H905 H 0.45102 0.8527 0.13461 0.0
H906 H 0.47239 0.9675 0.05913 0.0
H907 H 0.45003 0.93058 0.08831 0.0
C908 C 0.13685 0.31834 0.72583 0.0
C909 C 0.13548 0.34059 0.71106 0.0
C910 C 0.12278 0.28988 0.71357 0.0
C911 C 0.09684 0.24911 0.64512 0.0
H912 H 0.06036 0.1829 0.68277 0.0
C913 C 0.06092 0.13352 0.59647 0.0
C914 C 0.03282 0.11153 0.60144 0.0
C915 C 0.07378 0.16107 0.61057 0.0
C916 C 0.07023 0.20109 0.67178 0.0
H917 H 0.11689 0.35022 0.67228 0.0
H918 H 0.09133 0.30086 0.65126 0.0
H919 H 0.07929 0.23079 0.70583 0.0
H920 H 0.99639 0.10129 0.62534 0.0
H921 H 0.01828 0.14897 0.64948 0.0
H922 H 0.08708 0.21949 0.61089 0.0
C923 C 0.10399 0.30519 0.67206 0.0
C924 C 0.08149 0.22872 0.6852 0.0
C925 C 0.11819 0.33351 0.68424 0.0
C926 C 0.01815 0.11767 0.62104 0.0
C927 C 0.0309 0.14511 0.63507 0.0
C928 C 0.08555 0.22152 0.63171 0.0
C929 C 0.10693 0.28298 0.68621 0.0
C930 C 0.09482 0.25324 0.67206 0.0
C931 C 0.05888 0.16737 0.63005 0.0
C932 C 0.07191 0.19698 0.64474 0.0
H933 H 0.15055 0.32318 0.74635 0.0
H934 H 0.12582 0.27358 0.72521 0.0
H935 H 0.10747 0.26727 0.6343 0.0
H936 H 0.07298 0.12946 0.5817 0.0
H937 H 0.09561 0.17736 0.60632 0.0
C938 C 0.67964 0.27701 0.4014 0.0
C939 C 0.71299 0.2904 0.41187 0.0
C940 C 0.6606 0.29188 0.40304 0.0
C941 C 0.66505 0.36495 0.41682 0.0
H942 H 0.58488 0.324 0.44001 0.0
C943 C 0.60015 0.42199 0.46474 0.0
C944 C 0.56618 0.4097 0.45867 0.0
C945 C 0.61697 0.40792 0.45533 0.0
C946 C 0.60693 0.33568 0.43311 0.0
H947 H 0.75303 0.32947 0.4318 0.0
H948 H 0.71999 0.35549 0.43497 0.0
H949 H 0.61604 0.29845 0.42974 0.0
H950 H 0.52334 0.37351 0.43687 0.0
H951 H 0.55269 0.34892 0.42056 0.0
H952 H 0.65625 0.40234 0.42086 0.0
C953 C 0.70836 0.3338 0.42506 0.0
C954 C 0.62481 0.321 0.42718 0.0
C955 C 0.7273 0.31892 0.42338 0.0
C956 C 0.54948 0.38335 0.44233 0.0
C957 C 0.5663 0.36926 0.43297 0.0
C958 C 0.6472 0.37965 0.42282 0.0
C959 C 0.67468 0.32035 0.41529 0.0
C960 C 0.65433 0.33552 0.41931 0.0
C961 C 0.60024 0.38118 0.43964 0.0
C962 C 0.61813 0.36526 0.43138 0.0
H963 H 0.66823 0.2549 0.39252 0.0
H964 H 0.63482 0.28099 0.39502 0.0
H965 H 0.6874 0.37672 0.41039 0.0
H966 H 0.61381 0.44203 0.47758 0.0
H967 H 0.64309 0.41754 0.46116 0.0
loop_
_geom_bond_atom_site_label_1
_geom_bond_atom_site_label_2
_geom_bond_distance
_geom_bond_site_symmetry_2
_ccdc_geom_bond_type
H0 C3 0.929 . S
H1 C6 0.929 . S
H2 C8 0.930 . S
C3 H0 0.929 . S
C3 C4 1.398 . S
C3 C5 1.396 . S
C4 C3 1.398 . S
C4 C8 1.407 . S
C5 C3 1.396 . S
C5 C6 1.394 . S
C6 H1 0.929 . S
C6 C5 1.394 . S
C6 C7 1.382 . S
C7 C6 1.382 . S
C7 C8 1.392 . S
C7 N9 1.420 . S
C8 H2 0.930 . S
C8 C4 1.407 . S
C8 C7 1.392 . S
N9 C7 1.420 . S
N9 C10 1.244 . S
C10 N9 1.244 . S
H11 C14 0.929 . S
H12 C17 0.929 . S
H13 C19 0.930 . S
C14 H11 0.929 . S
C14 C15 1.398 . S
C14 C16 1.396 . S
C15 C14 1.398 . S
C15 C19 1.407 . S
C16 C14 1.396 . S
C16 C17 1.394 . S
C17 H12 0.929 . S
C17 C16 1.394 . S
C17 C18 1.382 . S
C18 C17 1.382 . S
C18 C19 1.392 . S
C18 N20 1.420 . S
C19 H13 0.930 . S
C19 C15 1.407 . S
C19 C18 1.392 . S
N20 C18 1.420 . S
N20 C21 1.244 . S
C21 N20 1.244 . S
H22 C25 0.929 . S
H23 C28 0.929 . S
H24 C30 0.930 . S
C25 H22 0.929 . S
C25 C26 1.398 . S
C25 C27 1.396 . S
C26 C25 1.398 . S
C26 C30 1.407 . S
C27 C25 1.396 . S
C27 C28 1.394 . S
C28 H23 0.929 . S
C28 C27 1.394 . S
C28 C29 1.382 . S
C29 C28 1.382 . S
C29 C30 1.392 . S
C29 N31 1.420 . S
C30 H24 0.930 . S
C30 C26 1.407 . S
C30 C29 1.392 . S
N31 C29 1.420 . S
N31 C32 1.244 . S
C32 N31 1.244 . S
H33 C36 0.929 . S
H34 C39 0.929 . S
H35 C41 0.930 . S
C36 H33 0.929 . S
C36 C37 1.398 . S
C36 C38 1.396 . S
C37 C36 1.398 . S
C37 C41 1.407 . S
C38 C36 1.396 . S
C38 C39 1.394 . S
C39 H34 0.929 . S
C39 C38 1.394 . S
C39 C40 1.382 . S
C40 C39 1.382 . S
C40 C41 1.392 . S
C40 N42 1.420 . S
C41 H35 0.930 . S
C41 C37 1.407 . S
C41 C40 1.392 . S
N42 C40 1.420 . S
N42 C43 1.244 . S
C43 N42 1.244 . S
H44 C47 0.929 . S
H45 C50 0.929 . S
H46 C52 0.930 . S
C47 H44 0.929 . S
C47 C48 1.398 . S
C47 C49 1.396 . S
C48 C47 1.398 . S
C48 C52 1.407 . S
C49 C47 1.396 . S
C49 C50 1.394 . S
C50 H45 0.929 . S
C50 C49 1.394 . S
C50 C51 1.382 . S
C51 C50 1.382 . S
C51 C52 1.392 . S
C51 N53 1.420 . S
C52 H46 0.930 . S
C52 C48 1.407 . S
C52 C51 1.392 . S
N53 C51 1.420 . S
N53 C54 1.244 . S
C54 N53 1.244 . S
H55 C58 0.929 . S
H56 C61 0.929 . S
H57 C63 0.930 . S
C58 H55 0.929 . S
C58 C59 1.398 . S
C58 C60 1.396 . S
C59 C58 1.398 . S
C59 C63 1.407 . S
C60 C58 1.396 . S
C60 C61 1.394 . S
C61 H56 0.929 . S
C61 C60 1.394 . S
C61 C62 1.382 . S
C62 C61 1.382 . S
C62 C63 1.392 . S
C62 N64 1.420 . S
C63 H57 0.930 . S
C63 C59 1.407 . S
C63 C62 1.392 . S
N64 C62 1.420 . S
N64 C65 1.244 . S
C65 N64 1.244 . S
H66 C69 0.929 . S
H67 C72 0.929 . S
H68 C74 0.930 . S
C69 H66 0.929 . S
C69 C70 1.398 . S
C69 C71 1.396 . S
C70 C69 1.398 . S
C70 C74 1.407 . S
C71 C69 1.396 . S
C71 C72 1.394 . S
C72 H67 0.929 . S
C72 C71 1.394 . S
C72 C73 1.382 . S
C73 C72 1.382 . S
C73 C74 1.392 . S
C73 N75 1.420 . S
C74 H68 0.930 . S
C74 C70 1.407 . S
C74 C73 1.392 . S
N75 C73 1.420 . S
N75 C76 1.244 . S
C76 N75 1.244 . S
H77 C80 0.929 . S
H78 C83 0.929 . S
H79 C85 0.930 . S
C80 H77 0.929 . S
C80 C81 1.398 . S
C80 C82 1.396 . S
C81 C80 1.398 . S
C81 C85 1.407 . S
C82 C80 1.396 . S
C82 C83 1.394 . S
C83 H78 0.929 . S
C83 C82 1.394 . S
C83 C84 1.382 . S
C84 C83 1.382 . S
C84 C85 1.392 . S
C84 N86 1.420 . S
C85 H79 0.930 . S
C85 C81 1.407 . S
C85 C84 1.392 . S
N86 C84 1.420 . S
N86 C87 1.244 . S
C87 N86 1.244 . S
Pr88 C90 2.880 1_545 S
Pr88 O108 2.562 1_545 S
Pr88 O109 2.490 . S
Pr88 O110 2.695 1_655 S
Pr88 O111 2.512 1_655 S
Pr88 O113 2.437 1_655 S
Pr88 O116 2.436 1_545 S
Pr88 O118 2.438 . S
Pr89 C99 2.880 . S
Pr89 O110 2.436 . S
Pr89 O112 2.438 . S
Pr89 O114 2.562 . S
Pr89 O115 2.490 . S
Pr89 O116 2.695 1_445 S
Pr89 O117 2.512 1_545 S
Pr89 O119 2.437 1_455 S
C90 Pr88 2.880 1_565 S
C90 C91 1.491 . S
C90 O108 1.254 . S
C90 O109 1.225 1_565 S
C91 C90 1.491 . S
C91 C92 1.392 . S
C91 C96 1.356 . S
C92 C91 1.392 . S
C92 C93 1.368 . S
C92 H120 0.929 . S
C93 C92 1.368 . S
C93 C94 1.386 . S
C93 H121 0.929 . S
C94 C93 1.386 . S
C94 C95 1.373 . S
C95 C94 1.373 . S
C95 C96 1.409 . S
C95 H122 0.931 . S
C96 C91 1.356 . S
C96 C95 1.409 . S
C96 H123 0.930 . S
C97 O110 1.270 . S
C97 O111 1.248 . S
C98 O112 1.260 1_565 S
C98 O113 1.256 1_565 S
C99 Pr89 2.880 . S
C99 C100 1.491 . S
C99 O114 1.254 . S
C99 O115 1.225 . S
C100 C99 1.491 . S
C100 C101 1.392 . S
C100 C105 1.356 . S
C101 C100 1.392 . S
C101 C102 1.368 . S
C101 H124 0.929 . S
C102 C101 1.368 . S
C102 C103 1.386 . S
C102 H125 0.929 . S
C103 C102 1.386 . S
C103 C104 1.373 . S
C104 C103 1.373 . S
C104 C105 1.409 . S
C104 H126 0.931 . S
C105 C100 1.356 . S
C105 C104 1.409 . S
C105 H127 0.930 . S
C106 O116 1.270 . S
C106 O117 1.248 1_655 S
C107 O118 1.267 . S
C107 O119 1.278 . S
O108 Pr88 2.562 1_565 S
O108 C90 1.254 . S
O109 Pr88 2.490 . S
O109 C90 1.225 1_545 S
O110 Pr88 2.695 1_455 S
O110 Pr89 2.436 . S
O110 C97 1.270 . S
O111 Pr88 2.512 1_455 S
O111 C97 1.248 . S
O112 Pr89 2.438 . S
O112 C98 1.260 1_545 S
O113 Pr88 2.437 1_455 S
O113 C98 1.256 1_545 S
O114 Pr89 2.562 . S
O114 C99 1.254 . S
O115 Pr89 2.490 . S
O115 C99 1.225 . S
O116 Pr88 2.436 1_565 S
O116 Pr89 2.695 1_665 S
O116 C106 1.270 . S
O117 Pr89 2.512 1_565 S
O117 C106 1.248 1_455 S
O118 Pr88 2.438 . S
O118 C107 1.267 . S
O119 Pr89 2.437 1_655 S
O119 C107 1.278 . S
H120 C92 0.929 . S
H121 C93 0.929 . S
H122 C95 0.931 . S
H123 C96 0.930 . S
H124 C101 0.929 . S
H125 C102 0.929 . S
H126 C104 0.931 . S
H127 C105 0.930 . S
Pr128 C130 2.880 . S
Pr128 O148 2.562 . S
Pr128 O149 2.490 . S
Pr128 O150 2.695 . S
Pr128 O151 2.512 . S
Pr128 O153 2.437 . S
Pr128 O156 2.436 . S
Pr128 O158 2.438 . S
Pr129 C139 2.880 1_545 S
Pr129 O150 2.436 . S
Pr129 O152 2.438 . S
Pr129 O154 2.562 . S
Pr129 O155 2.490 1_545 S
Pr129 O156 2.695 . S
Pr129 O157 2.512 1_545 S
Pr129 O159 2.437 1_545 S
C130 Pr128 2.880 . S
C130 C131 1.491 . S
C130 O148 1.254 . S
C130 O149 1.225 . S
C131 C130 1.491 . S
C131 C132 1.392 . S
C131 C136 1.356 . S
C132 C131 1.392 . S
C132 C133 1.368 . S
C132 H160 0.929 . S
C133 C132 1.368 . S
C133 C134 1.386 . S
C133 H161 0.929 . S
C134 C133 1.386 . S
C134 C135 1.373 . S
C135 C134 1.373 . S
C135 C136 1.409 . S
C135 H162 0.931 . S
C136 C131 1.356 . S
C136 C135 1.409 . S
C136 H163 0.930 . S
C137 O150 1.270 . S
C137 O151 1.248 . S
C138 O152 1.267 . S
C138 O153 1.278 . S
C139 Pr129 2.880 1_565 S
C139 C140 1.491 1_554 S
C139 O154 1.254 1_565 S
C139 O155 1.225 . S
C140 C139 1.491 1_556 S
C140 C141 1.392 1_556 S
C140 C145 1.356 . S
C141 C140 1.392 1_554 S
C141 C142 1.368 1_554 S
C141 H164 0.929 . S
C142 C141 1.368 1_556 S
C142 C143 1.386 . S
C142 H165 0.929 . S
C143 C142 1.386 . S
C143 C144 1.373 . S
C144 C143 1.373 . S
C144 C145 1.409 . S
C144 H166 0.931 . S
C145 C140 1.356 . S
C145 C144 1.409 . S
C145 H167 0.930 . S
C146 O156 1.270 1_565 S
C146 O157 1.248 . S
C147 O158 1.267 1_565 S
C147 O159 1.278 . S
O148 Pr128 2.562 . S
O148 C130 1.254 . S
O149 Pr128 2.490 . S
O149 C130 1.225 . S
O150 Pr128 2.695 . S
O150 Pr129 2.436 . S
O150 C137 1.270 . S
O151 Pr128 2.512 . S
O151 C137 1.248 . S
O152 Pr129 2.438 . S
O152 C138 1.267 . S
O153 Pr128 2.437 . S
O153 C138 1.278 . S
O154 Pr129 2.562 . S
O154 C139 1.254 1_545 S
O155 Pr129 2.490 1_565 S
O155 C139 1.225 . S
O156 Pr128 2.436 . S
O156 Pr129 2.695 . S
O156 C146 1.270 1_545 S
O157 Pr129 2.512 1_565 S
O157 C146 1.248 . S
O158 Pr128 2.438 . S
O158 C147 1.267 1_545 S
O159 Pr129 2.437 1_565 S
O159 C147 1.278 . S
H160 C132 0.929 . S
H161 C133 0.929 . S
H162 C135 0.931 . S
H163 C136 0.930 . S
H164 C141 0.929 . S
H165 C142 0.929 . S
H166 C144 0.931 . S
H167 C145 0.930 . S
Pr168 C170 2.880 . S
Pr168 O188 2.562 . S
Pr168 O189 2.490 . S
Pr168 O190 2.695 . S
Pr168 O191 2.512 . S
Pr168 O193 2.437 . S
Pr168 O196 2.436 . S
Pr168 O198 2.438 . S
Pr169 C179 2.880 . S
Pr169 O190 2.436 . S
Pr169 O192 2.438 . S
Pr169 O194 2.562 . S
Pr169 O195 2.490 . S
Pr169 O196 2.695 . S
Pr169 O197 2.512 . S
Pr169 O199 2.437 . S
C170 Pr168 2.880 . S
C170 C171 1.491 . S
C170 O188 1.254 . S
C170 O189 1.225 . S
C171 C170 1.491 . S
C171 C172 1.392 . S
C171 C176 1.356 . S
C172 C171 1.392 . S
C172 C173 1.368 . S
C172 H200 0.929 . S
C173 C172 1.368 . S
C173 C174 1.386 . S
C173 H201 0.929 . S
C174 C173 1.386 . S
C174 C175 1.373 . S
C175 C174 1.373 . S
C175 C176 1.409 . S
C175 H202 0.931 . S
C176 C171 1.356 . S
C176 C175 1.409 . S
C176 H203 0.930 . S
C177 O190 1.270 . S
C177 O191 1.248 . S
C178 O192 1.267 . S
C178 O193 1.278 . S
C179 Pr169 2.880 . S
C179 C180 1.491 . S
C179 O194 1.254 . S
C179 O195 1.225 . S
C180 C179 1.491 . S
C180 C181 1.392 . S
C180 C185 1.356 . S
C181 C180 1.392 . S
C181 C182 1.368 . S
C181 H204 0.929 . S
C182 C181 1.368 . S
C182 C183 1.386 . S
C182 H205 0.929 . S
C183 C182 1.386 . S
C183 C184 1.373 . S
C184 C183 1.373 . S
C184 C185 1.409 . S
C184 H206 0.931 . S
C185 C180 1.356 . S
C185 C184 1.409 . S
C185 H207 0.930 . S
C186 O196 1.270 . S
C186 O197 1.248 . S
C187 O198 1.267 . S
C187 O199 1.278 . S
O188 Pr168 2.562 . S
O188 C170 1.254 . S
O189 Pr168 2.490 . S
O189 C170 1.225 . S
O190 Pr168 2.695 . S
O190 Pr169 2.436 . S
O190 C177 1.270 . S
O191 Pr168 2.512 . S
O191 C177 1.248 . S
O192 Pr169 2.438 . S
O192 C178 1.267 . S
O193 Pr168 2.437 . S
O193 C178 1.278 . S
O194 Pr169 2.562 . S
O194 C179 1.254 . S
O195 Pr169 2.490 . S
O195 C179 1.225 . S
O196 Pr168 2.436 . S
O196 Pr169 2.695 . S
O196 C186 1.270 . S
O197 Pr169 2.512 . S
O197 C186 1.248 . S
O198 Pr168 2.438 . S
O198 C187 1.267 . S
O199 Pr169 2.437 . S
O199 C187 1.278 . S
H200 C172 0.929 . S
H201 C173 0.929 . S
H202 C175 0.931 . S
H203 C176 0.930 . S
H204 C181 0.929 . S
H205 C182 0.929 . S
H206 C184 0.931 . S
H207 C185 0.930 . S
Pr208 C210 2.880 1_455 S
Pr208 O228 2.562 1_455 S
Pr208 O229 2.490 . S
Pr208 O230 2.695 1_556 S
Pr208 O231 2.512 1_556 S
Pr208 O233 2.437 1_556 S
Pr208 O236 2.436 1_455 S
Pr208 O238 2.438 . S
Pr209 C219 2.880 . S
Pr209 O230 2.436 . S
Pr209 O232 2.438 1_455 S
Pr209 O234 2.562 . S
Pr209 O235 2.490 . S
Pr209 O236 2.695 1_454 S
Pr209 O237 2.509 1_454 S
Pr209 O239 2.437 1_554 S
C210 Pr208 2.880 1_655 S
C210 C211 1.491 . S
C210 O228 1.254 . S
C210 O229 1.225 1_655 S
C211 C210 1.491 . S
C211 C212 1.392 . S
C211 C216 1.356 . S
C212 C211 1.392 . S
C212 C213 1.368 . S
C212 H240 0.929 1_655 S
C213 C212 1.368 . S
C213 C214 1.386 . S
C213 H241 0.929 . S
C214 C213 1.386 . S
C214 C215 1.373 . S
C215 C214 1.373 . S
C215 C216 1.409 . S
C215 H242 0.931 . S
C216 C211 1.356 . S
C216 C215 1.409 . S
C216 H243 0.930 . S
C217 O230 1.270 . S
C217 O231 1.248 . S
C218 O232 1.267 . S
C218 O233 1.278 1_655 S
C219 Pr209 2.880 . S
C219 C220 1.491 . S
C219 O234 1.254 . S
C219 O235 1.225 . S
C220 C219 1.491 . S
C220 C221 1.392 . S
C220 C225 1.356 . S
C221 C220 1.392 . S
C221 C222 1.368 . S
C221 H244 0.929 . S
C222 C221 1.368 . S
C222 C223 1.386 . S
C222 H245 0.929 . S
C223 C222 1.386 . S
C223 C224 1.373 . S
C224 C223 1.373 . S
C224 C225 1.409 . S
C224 H246 0.931 . S
C225 C220 1.356 . S
C225 C224 1.409 . S
C225 H247 0.930 . S
C226 O236 1.270 . S
C226 O237 1.253 . S
C227 O238 1.267 . S
C227 O239 1.278 . S
O228 Pr208 2.562 1_655 S
O228 C210 1.254 . S
O229 Pr208 2.490 . S
O229 C210 1.225 1_455 S
O230 Pr208 2.695 1_554 S
O230 Pr209 2.436 . S
O230 C217 1.270 . S
O231 Pr208 2.512 1_554 S
O231 C217 1.248 . S
O232 Pr209 2.438 1_655 S
O232 C218 1.267 . S
O233 Pr208 2.437 1_554 S
O233 C218 1.278 1_455 S
O234 Pr209 2.562 . S
O234 C219 1.254 . S
O235 Pr209 2.490 . S
O235 C219 1.225 . S
O236 Pr208 2.436 1_655 S
O236 Pr209 2.695 1_656 S
O236 C226 1.270 . S
O237 Pr209 2.509 1_656 S
O237 C226 1.253 . S
O238 Pr208 2.438 . S
O238 C227 1.267 . S
O239 Pr209 2.437 1_556 S
O239 C227 1.278 . S
H240 C212 0.929 1_455 S
H241 C213 0.929 . S
H242 C215 0.931 . S
H243 C216 0.930 . S
H244 C221 0.929 . S
H245 C222 0.929 . S
H246 C224 0.931 . S
H247 C225 0.930 . S
C248 C249 1.349 . S
C248 C250 1.327 . S
C248 H273 0.950 . S
C249 C248 1.349 . S
C249 C265 1.349 . S
C250 C248 1.327 . S
C250 C269 1.429 . S
C250 H274 0.950 . S
C251 C268 1.574 . S
C251 C270 1.368 . S
C251 H275 0.949 . S
H252 C256 0.949 . S
C253 C254 1.349 . S
C253 C255 1.327 . S
C253 H276 0.950 . S
C254 C253 1.349 . S
C254 C266 1.349 . S
C255 C253 1.327 . S
C255 C271 1.429 . S
C255 H277 0.950 . S
C256 H252 0.949 . S
C256 C264 1.574 . S
C256 C272 1.368 . S
H257 C265 0.950 . S
H258 C263 0.950 . S
H259 C264 0.949 . S
H260 C266 0.950 . S
H261 C267 0.950 . S
H262 C268 0.949 . S
C263 H258 0.950 . S
C263 C265 1.327 . S
C263 C269 1.429 . S
C264 C256 1.574 . S
C264 H259 0.949 . S
C264 C270 1.368 . S
C265 C249 1.349 . S
C265 H257 0.950 . S
C265 C263 1.327 . S
C266 C254 1.349 . S
C266 H260 0.950 . S
C266 C267 1.327 . S
C267 H261 0.950 . S
C267 C266 1.327 . S
C267 C271 1.429 . S
C268 C251 1.574 . S
C268 H262 0.949 . S
C268 C272 1.368 . S
C269 C250 1.429 . S
C269 C263 1.429 . S
C269 C270 1.523 . S
C270 C251 1.368 . S
C270 C264 1.368 . S
C270 C269 1.523 . S
C271 C255 1.429 . S
C271 C267 1.429 . S
C271 C272 1.523 . S
C272 C256 1.368 . S
C272 C268 1.368 . S
C272 C271 1.523 . S
H273 C248 0.950 . S
H274 C250 0.950 . S
H275 C251 0.949 . S
H276 C253 0.950 . S
H277 C255 0.950 . S
C278 C279 1.349 . S
C278 C280 1.327 . S
C278 H303 0.950 . S
C279 C278 1.349 . S
C279 C295 1.349 . S
C280 C278 1.327 . S
C280 C299 1.429 . S
C280 H304 0.950 . S
C281 C298 1.574 . S
C281 C300 1.368 . S
C281 H305 0.949 . S
H282 C286 0.949 . S
C283 C284 1.349 . S
C283 C285 1.327 . S
C283 H306 0.950 . S
C284 C283 1.349 . S
C284 C296 1.349 . S
C285 C283 1.327 . S
C285 C301 1.429 . S
C285 H307 0.950 . S
C286 H282 0.949 . S
C286 C294 1.574 . S
C286 C302 1.368 . S
H287 C295 0.950 . S
H288 C293 0.950 . S
H289 C294 0.949 . S
H290 C296 0.950 . S
H291 C297 0.950 . S
H292 C298 0.949 . S
C293 H288 0.950 . S
C293 C295 1.327 . S
C293 C299 1.429 . S
C294 C286 1.574 . S
C294 H289 0.949 . S
C294 C300 1.368 . S
C295 C279 1.349 . S
C295 H287 0.950 . S
C295 C293 1.327 . S
C296 C284 1.349 . S
C296 H290 0.950 . S
C296 C297 1.327 . S
C297 H291 0.950 . S
C297 C296 1.327 . S
C297 C301 1.429 . S
C298 C281 1.574 . S
C298 H292 0.949 . S
C298 C302 1.368 . S
C299 C280 1.429 . S
C299 C293 1.429 . S
C299 C300 1.523 . S
C300 C281 1.368 . S
C300 C294 1.368 . S
C300 C299 1.523 . S
C301 C285 1.429 . S
C301 C297 1.429 . S
C301 C302 1.523 . S
C302 C286 1.368 . S
C302 C298 1.368 . S
C302 C301 1.523 . S
H303 C278 0.950 . S
H304 C280 0.950 . S
H305 C281 0.949 . S
H306 C283 0.950 . S
H307 C285 0.950 . S
C308 C309 1.349 . S
C308 C310 1.327 . S
C308 H333 0.950 . S
C309 C308 1.349 . S
C309 C325 1.349 . S
C310 C308 1.327 . S
C310 C329 1.429 . S
C310 H334 0.950 . S
C311 C328 1.574 . S
C311 C330 1.368 . S
C311 H335 0.949 . S
H312 C316 0.949 . S
C313 C314 1.349 . S
C313 C315 1.327 . S
C313 H336 0.950 . S
C314 C313 1.349 . S
C314 C326 1.349 . S
C315 C313 1.327 . S
C315 C331 1.429 . S
C315 H337 0.950 . S
C316 H312 0.949 . S
C316 C324 1.574 . S
C316 C332 1.368 . S
H317 C325 0.950 . S
H318 C323 0.950 . S
H319 C324 0.949 . S
H320 C326 0.950 . S
H321 C327 0.950 . S
H322 C328 0.949 . S
C323 H318 0.950 . S
C323 C325 1.327 . S
C323 C329 1.429 . S
C324 C316 1.574 . S
C324 H319 0.949 . S
C324 C330 1.368 . S
C325 C309 1.349 . S
C325 H317 0.950 . S
C325 C323 1.327 . S
C326 C314 1.349 . S
C326 H320 0.950 . S
C326 C327 1.327 . S
C327 H321 0.950 . S
C327 C326 1.327 . S
C327 C331 1.429 . S
C328 C311 1.574 . S
C328 H322 0.949 . S
C328 C332 1.368 . S
C329 C310 1.429 . S
C329 C323 1.429 . S
C329 C330 1.523 . S
C330 C311 1.368 . S
C330 C324 1.368 . S
C330 C329 1.523 . S
C331 C315 1.429 . S
C331 C327 1.429 . S
C331 C332 1.523 . S
C332 C316 1.368 . S
C332 C328 1.368 . S
C332 C331 1.523 . S
H333 C308 0.950 . S
H334 C310 0.950 . S
H335 C311 0.949 . S
H336 C313 0.950 . S
H337 C315 0.950 . S
C338 C339 1.349 . S
C338 C340 1.327 . S
C338 H363 0.950 . S
C339 C338 1.349 . S
C339 C355 1.349 . S
C340 C338 1.327 . S
C340 C359 1.429 . S
C340 H364 0.950 . S
C341 C358 1.574 . S
C341 C360 1.368 . S
C341 H365 0.949 . S
H342 C346 0.949 . S
C343 C344 1.349 . S
C343 C345 1.327 . S
C343 H366 0.950 . S
C344 C343 1.349 . S
C344 C356 1.349 . S
C345 C343 1.327 . S
C345 C361 1.429 . S
C345 H367 0.950 . S
C346 H342 0.949 . S
C346 C354 1.574 . S
C346 C362 1.368 . S
H347 C355 0.950 . S
H348 C353 0.950 . S
H349 C354 0.949 . S
H350 C356 0.950 . S
H351 C357 0.950 . S
H352 C358 0.949 . S
C353 H348 0.950 . S
C353 C355 1.327 . S
C353 C359 1.429 . S
C354 C346 1.574 . S
C354 H349 0.949 . S
C354 C360 1.368 . S
C355 C339 1.349 . S
C355 H347 0.950 . S
C355 C353 1.327 . S
C356 C344 1.349 . S
C356 H350 0.950 . S
C356 C357 1.327 . S
C357 H351 0.950 . S
C357 C356 1.327 . S
C357 C361 1.429 . S
C358 C341 1.574 . S
C358 H352 0.949 . S
C358 C362 1.368 . S
C359 C340 1.429 . S
C359 C353 1.429 . S
C359 C360 1.523 . S
C360 C341 1.368 . S
C360 C354 1.368 . S
C360 C359 1.523 . S
C361 C345 1.429 . S
C361 C357 1.429 . S
C361 C362 1.523 . S
C362 C346 1.368 . S
C362 C358 1.368 . S
C362 C361 1.523 . S
H363 C338 0.950 . S
H364 C340 0.950 . S
H365 C341 0.949 . S
H366 C343 0.950 . S
H367 C345 0.950 . S
C368 C369 1.349 . S
C368 C370 1.327 . S
C368 H393 0.950 . S
C369 C368 1.349 . S
C369 C385 1.349 . S
C370 C368 1.327 . S
C370 C389 1.429 . S
C370 H394 0.950 . S
C371 C388 1.574 . S
C371 C390 1.368 . S
C371 H395 0.949 . S
H372 C376 0.949 . S
C373 C374 1.349 . S
C373 C375 1.327 . S
C373 H396 0.950 . S
C374 C373 1.349 . S
C374 C386 1.349 . S
C375 C373 1.327 . S
C375 C391 1.429 . S
C375 H397 0.950 . S
C376 H372 0.949 . S
C376 C384 1.574 . S
C376 C392 1.368 . S
H377 C385 0.950 . S
H378 C383 0.950 . S
H379 C384 0.949 . S
H380 C386 0.950 . S
H381 C387 0.950 . S
H382 C388 0.949 . S
C383 H378 0.950 . S
C383 C385 1.327 . S
C383 C389 1.429 . S
C384 C376 1.574 . S
C384 H379 0.949 . S
C384 C390 1.368 . S
C385 C369 1.349 . S
C385 H377 0.950 . S
C385 C383 1.327 . S
C386 C374 1.349 . S
C386 H380 0.950 . S
C386 C387 1.327 . S
C387 H381 0.950 . S
C387 C386 1.327 . S
C387 C391 1.429 . S
C388 C371 1.574 . S
C388 H382 0.949 . S
C388 C392 1.368 . S
C389 C370 1.429 . S
C389 C383 1.429 . S
C389 C390 1.523 . S
C390 C371 1.368 . S
C390 C384 1.368 . S
C390 C389 1.523 . S
C391 C375 1.429 . S
C391 C387 1.429 . S
C391 C392 1.523 . S
C392 C376 1.368 . S
C392 C388 1.368 . S
C392 C391 1.523 . S
H393 C368 0.950 . S
H394 C370 0.950 . S
H395 C371 0.949 . S
H396 C373 0.950 . S
H397 C375 0.950 . S
C398 C399 1.349 . S
C398 C400 1.327 . S
C398 H423 0.950 . S
C399 C398 1.349 . S
C399 C415 1.349 . S
C400 C398 1.327 . S
C400 C419 1.429 . S
C400 H424 0.950 . S
C401 C418 1.574 . S
C401 C420 1.368 . S
C401 H425 0.949 . S
H402 C406 0.949 . S
C403 C404 1.349 . S
C403 C405 1.327 . S
C403 H426 0.950 . S
C404 C403 1.349 . S
C404 C416 1.349 . S
C405 C403 1.327 . S
C405 C421 1.429 . S
C405 H427 0.950 . S
C406 H402 0.949 . S
C406 C414 1.574 . S
C406 C422 1.368 . S
H407 C415 0.950 . S
H408 C413 0.950 . S
H409 C414 0.949 . S
H410 C416 0.947 1_545 S
H411 C417 0.950 . S
H412 C418 0.949 . S
C413 H408 0.950 . S
C413 C415 1.327 . S
C413 C419 1.429 . S
C414 C406 1.574 . S
C414 H409 0.949 . S
C414 C420 1.368 . S
C415 C399 1.349 . S
C415 H407 0.950 . S
C415 C413 1.327 . S
C416 C404 1.349 . S
C416 H410 0.947 1_565 S
C416 C417 1.327 . S
C417 H411 0.950 . S
C417 C416 1.327 . S
C417 C421 1.429 . S
C418 C401 1.574 . S
C418 H412 0.949 . S
C418 C422 1.368 . S
C419 C400 1.429 . S
C419 C413 1.429 . S
C419 C420 1.523 . S
C420 C401 1.368 . S
C420 C414 1.368 . S
C420 C419 1.523 . S
C421 C405 1.429 . S
C421 C417 1.429 . S
C421 C422 1.523 . S
C422 C406 1.368 . S
C422 C418 1.368 . S
C422 C421 1.523 . S
H423 C398 0.950 . S
H424 C400 0.950 . S
H425 C401 0.949 . S
H426 C403 0.950 . S
H427 C405 0.950 . S
C428 C429 1.349 . S
C428 C430 1.327 . S
C428 H453 0.950 . S
C429 C428 1.349 . S
C429 C445 1.349 . S
C430 C428 1.327 . S
C430 C449 1.429 . S
C430 H454 0.950 . S
C431 C448 1.574 . S
C431 C450 1.368 . S
C431 H455 0.949 . S
H432 C436 0.949 . S
C433 C434 1.349 . S
C433 C435 1.327 . S
C433 H456 0.950 . S
C434 C433 1.349 . S
C434 C446 1.349 . S
C435 C433 1.327 . S
C435 C451 1.429 . S
C435 H457 0.950 . S
C436 H432 0.949 . S
C436 C444 1.574 . S
C436 C452 1.368 . S
H437 C445 0.950 . S
H438 C443 0.950 . S
H439 C444 0.949 . S
H440 C446 0.917 1_554 S
H441 C447 0.950 . S
H442 C448 0.949 . S
C443 H438 0.950 . S
C443 C445 1.327 . S
C443 C449 1.429 . S
C444 C436 1.574 . S
C444 H439 0.949 . S
C444 C450 1.368 . S
C445 C429 1.349 . S
C445 H437 0.950 . S
C445 C443 1.327 . S
C446 C434 1.349 . S
C446 H440 0.917 1_556 S
C446 C447 1.327 . S
C447 H441 0.950 . S
C447 C446 1.327 . S
C447 C451 1.429 . S
C448 C431 1.574 . S
C448 H442 0.949 . S
C448 C452 1.368 . S
C449 C430 1.429 . S
C449 C443 1.429 . S
C449 C450 1.523 . S
C450 C431 1.368 . S
C450 C444 1.368 . S
C450 C449 1.523 . S
C451 C435 1.429 . S
C451 C447 1.429 . S
C451 C452 1.523 . S
C452 C436 1.368 . S
C452 C448 1.368 . S
C452 C451 1.523 . S
H453 C428 0.950 . S
H454 C430 0.950 . S
H455 C431 0.949 . S
H456 C433 0.950 . S
H457 C435 0.950 . S
C458 C459 1.349 . S
C458 C460 1.327 . S
C458 H483 0.950 . S
C459 C458 1.349 . S
C459 C475 1.349 . S
C460 C458 1.327 . S
C460 C479 1.429 . S
C460 H484 0.950 . S
C461 C478 1.574 . S
C461 C480 1.368 . S
C461 H485 0.949 . S
H462 C466 0.949 . S
C463 C464 1.349 . S
C463 C465 1.327 . S
C463 H486 0.950 . S
C464 C463 1.349 . S
C464 C476 1.349 . S
C465 C463 1.327 . S
C465 C481 1.429 . S
C465 H487 0.950 . S
C466 H462 0.949 . S
C466 C474 1.574 . S
C466 C482 1.368 . S
H467 C475 0.950 . S
H468 C473 0.950 . S
H469 C474 0.949 . S
H470 C476 0.950 . S
H471 C477 0.950 . S
H472 C478 0.949 . S
C473 H468 0.950 . S
C473 C475 1.327 . S
C473 C479 1.429 . S
C474 C466 1.574 . S
C474 H469 0.949 . S
C474 C480 1.368 . S
C475 C459 1.349 . S
C475 H467 0.950 . S
C475 C473 1.327 . S
C476 C464 1.349 . S
C476 H470 0.950 . S
C476 C477 1.327 . S
C477 H471 0.950 . S
C477 C476 1.327 . S
C477 C481 1.429 . S
C478 C461 1.574 . S
C478 H472 0.949 . S
C478 C482 1.368 . S
C479 C460 1.429 . S
C479 C473 1.429 . S
C479 C480 1.523 . S
C480 C461 1.368 . S
C480 C474 1.368 . S
C480 C479 1.523 . S
C481 C465 1.429 . S
C481 C477 1.429 . S
C481 C482 1.523 . S
C482 C466 1.368 . S
C482 C478 1.368 . S
C482 C481 1.523 . S
H483 C458 0.950 . S
H484 C460 0.950 . S
H485 C461 0.949 . S
H486 C463 0.950 . S
H487 C465 0.950 . S
C488 C489 1.349 . S
C488 C490 1.327 . S
C488 H513 0.950 . S
C489 C488 1.349 . S
C489 C505 1.349 . S
C490 C488 1.327 . S
C490 C509 1.429 . S
C490 H514 0.950 . S
C491 C508 1.574 . S
C491 C510 1.368 . S
C491 H515 0.949 . S
H492 C496 0.949 . S
C493 C494 1.349 . S
C493 C495 1.327 . S
C493 H516 0.950 . S
C494 C493 1.349 . S
C494 C506 1.349 . S
C495 C493 1.327 . S
C495 C511 1.429 . S
C495 H517 0.950 . S
C496 H492 0.949 . S
C496 C504 1.574 . S
C496 C512 1.368 . S
H497 C505 0.950 . S
H498 C503 0.950 . S
H499 C504 0.949 . S
H500 C506 0.950 . S
H501 C507 0.950 . S
H502 C508 0.949 . S
C503 H498 0.950 . S
C503 C505 1.327 . S
C503 C509 1.429 . S
C504 C496 1.574 . S
C504 H499 0.949 . S
C504 C510 1.368 . S
C505 C489 1.349 . S
C505 H497 0.950 . S
C505 C503 1.327 . S
C506 C494 1.349 . S
C506 H500 0.950 . S
C506 C507 1.327 . S
C507 H501 0.950 . S
C507 C506 1.327 . S
C507 C511 1.429 . S
C508 C491 1.574 . S
C508 H502 0.949 . S
C508 C512 1.368 . S
C509 C490 1.429 . S
C509 C503 1.429 . S
C509 C510 1.523 . S
C510 C491 1.368 . S
C510 C504 1.368 . S
C510 C509 1.523 . S
C511 C495 1.429 . S
C511 C507 1.429 . S
C511 C512 1.523 . S
C512 C496 1.368 . S
C512 C508 1.368 . S
C512 C511 1.523 . S
H513 C488 0.950 . S
H514 C490 0.950 . S
H515 C491 0.949 . S
H516 C493 0.950 . S
H517 C495 0.950 . S
C518 C519 1.349 . S
C518 C520 1.327 . S
C518 H543 0.950 . S
C519 C518 1.349 . S
C519 C535 1.349 . S
C520 C518 1.327 . S
C520 C539 1.429 . S
C520 H544 0.950 . S
C521 C538 1.574 . S
C521 C540 1.368 . S
C521 H545 0.949 . S
H522 C526 0.949 . S
C523 C524 1.349 . S
C523 C525 1.327 . S
C523 H546 0.950 . S
C524 C523 1.349 . S
C524 C536 1.349 . S
C525 C523 1.327 . S
C525 C541 1.429 . S
C525 H547 0.950 . S
C526 H522 0.949 . S
C526 C534 1.574 . S
C526 C542 1.368 . S
H527 C535 0.950 . S
H528 C533 0.950 . S
H529 C534 0.949 . S
H530 C536 0.950 1_554 S
H531 C537 0.950 . S
H532 C538 0.949 . S
C533 H528 0.950 . S
C533 C535 1.327 . S
C533 C539 1.429 . S
C534 C526 1.574 . S
C534 H529 0.949 . S
C534 C540 1.368 . S
C535 C519 1.349 . S
C535 H527 0.950 . S
C535 C533 1.327 . S
C536 C524 1.349 . S
C536 H530 0.950 1_556 S
C536 C537 1.327 . S
C537 H531 0.950 . S
C537 C536 1.327 . S
C537 C541 1.429 . S
C538 C521 1.574 . S
C538 H532 0.949 . S
C538 C542 1.368 . S
C539 C520 1.429 . S
C539 C533 1.429 . S
C539 C540 1.523 . S
C540 C521 1.368 . S
C540 C534 1.368 . S
C540 C539 1.523 . S
C541 C525 1.429 . S
C541 C537 1.429 . S
C541 C542 1.523 . S
C542 C526 1.368 . S
C542 C538 1.368 . S
C542 C541 1.523 . S
H543 C518 0.950 . S
H544 C520 0.950 . S
H545 C521 0.949 . S
H546 C523 0.950 . S
H547 C525 0.950 . S
C548 C549 1.349 . S
C548 C550 1.327 . S
C548 H573 0.950 . S
C549 C548 1.349 . S
C549 C565 1.349 . S
C550 C548 1.327 . S
C550 C569 1.429 . S
C550 H574 0.950 . S
C551 C568 1.574 . S
C551 C570 1.368 . S
C551 H575 0.949 . S
H552 C556 0.949 . S
C553 C554 1.349 . S
C553 C555 1.327 . S
C553 H576 0.950 . S
C554 C553 1.349 . S
C554 C566 1.349 . S
C555 C553 1.327 . S
C555 C571 1.429 . S
C555 H577 0.950 . S
C556 H552 0.949 . S
C556 C564 1.574 . S
C556 C572 1.368 . S
H557 C565 0.950 . S
H558 C563 0.950 . S
H559 C564 0.949 . S
H560 C566 0.950 . S
H561 C567 0.950 . S
H562 C568 0.949 . S
C563 H558 0.950 . S
C563 C565 1.327 . S
C563 C569 1.429 . S
C564 C556 1.574 . S
C564 H559 0.949 . S
C564 C570 1.368 . S
C565 C549 1.349 . S
C565 H557 0.950 . S
C565 C563 1.327 . S
C566 C554 1.349 . S
C566 H560 0.950 . S
C566 C567 1.327 . S
C567 H561 0.950 . S
C567 C566 1.327 . S
C567 C571 1.429 . S
C568 C551 1.574 . S
C568 H562 0.949 . S
C568 C572 1.368 . S
C569 C550 1.429 . S
C569 C563 1.429 . S
C569 C570 1.523 . S
C570 C551 1.368 . S
C570 C564 1.368 . S
C570 C569 1.523 . S
C571 C555 1.429 . S
C571 C567 1.429 . S
C571 C572 1.523 . S
C572 C556 1.368 . S
C572 C568 1.368 . S
C572 C571 1.523 . S
H573 C548 0.950 . S
H574 C550 0.950 . S
H575 C551 0.949 . S
H576 C553 0.950 . S
H577 C555 0.950 . S
C578 C579 1.349 . S
C578 C580 1.327 . S
C578 H603 0.950 . S
C579 C578 1.349 . S
C579 C595 1.349 . S
C580 C578 1.327 . S
C580 C599 1.429 . S
C580 H604 0.950 . S
C581 C598 1.574 . S
C581 C600 1.368 . S
C581 H605 0.949 . S
H582 C586 0.949 . S
C583 C584 1.349 . S
C583 C585 1.327 . S
C583 H606 0.950 . S
C584 C583 1.349 . S
C584 C596 1.349 . S
C585 C583 1.327 . S
C585 C601 1.429 . S
C585 H607 0.950 . S
C586 H582 0.949 . S
C586 C594 1.574 . S
C586 C602 1.368 . S
H587 C595 0.950 . S
H588 C593 0.950 . S
H589 C594 0.949 . S
H590 C596 0.950 . S
H591 C597 0.950 . S
H592 C598 0.949 . S
C593 H588 0.950 . S
C593 C595 1.327 . S
C593 C599 1.429 . S
C594 C586 1.574 . S
C594 H589 0.949 . S
C594 C600 1.368 . S
C595 C579 1.349 . S
C595 H587 0.950 . S
C595 C593 1.327 . S
C596 C584 1.349 . S
C596 H590 0.950 . S
C596 C597 1.327 . S
C597 H591 0.950 . S
C597 C596 1.327 . S
C597 C601 1.429 . S
C598 C581 1.574 . S
C598 H592 0.949 . S
C598 C602 1.368 . S
C599 C580 1.429 . S
C599 C593 1.429 . S
C599 C600 1.523 . S
C600 C581 1.368 . S
C600 C594 1.368 . S
C600 C599 1.523 . S
C601 C585 1.429 . S
C601 C597 1.429 . S
C601 C602 1.523 . S
C602 C586 1.368 . S
C602 C598 1.368 . S
C602 C601 1.523 . S
H603 C578 0.950 . S
H604 C580 0.950 . S
H605 C581 0.949 . S
H606 C583 0.950 . S
H607 C585 0.950 . S
C608 C609 1.349 . S
C608 C610 1.327 . S
C608 H633 0.950 . S
C609 C608 1.349 . S
C609 C625 1.349 . S
C610 C608 1.327 . S
C610 C629 1.429 . S
C610 H634 0.950 . S
C611 C628 1.574 . S
C611 C630 1.368 . S
C611 H635 0.949 . S
H612 C616 0.949 . S
C613 C614 1.349 . S
C613 C615 1.327 . S
C613 H636 0.950 . S
C614 C613 1.349 . S
C614 C626 1.349 . S
C615 C613 1.327 . S
C615 C631 1.429 . S
C615 H637 0.950 . S
C616 H612 0.949 . S
C616 C624 1.574 . S
C616 C632 1.368 . S
H617 C625 0.950 . S
H618 C623 0.950 . S
H619 C624 0.949 . S
H620 C626 0.950 . S
H621 C627 0.950 . S
H622 C628 0.949 . S
C623 H618 0.950 . S
C623 C625 1.327 . S
C623 C629 1.429 . S
C624 C616 1.574 . S
C624 H619 0.949 . S
C624 C630 1.368 . S
C625 C609 1.349 . S
C625 H617 0.950 . S
C625 C623 1.327 . S
C626 C614 1.349 . S
C626 H620 0.950 . S
C626 C627 1.327 . S
C627 H621 0.950 . S
C627 C626 1.327 . S
C627 C631 1.429 . S
C628 C611 1.574 . S
C628 H622 0.949 . S
C628 C632 1.368 . S
C629 C610 1.429 . S
C629 C623 1.429 . S
C629 C630 1.523 . S
C630 C611 1.368 . S
C630 C624 1.368 . S
C630 C629 1.523 . S
C631 C615 1.429 . S
C631 C627 1.429 . S
C631 C632 1.523 . S
C632 C616 1.368 . S
C632 C628 1.368 . S
C632 C631 1.523 . S
H633 C608 0.950 . S
H634 C610 0.950 . S
H635 C611 0.949 . S
H636 C613 0.950 . S
H637 C615 0.950 . S
C638 C639 1.349 . S
C638 C640 1.327 . S
C638 H663 0.950 . S
C639 C638 1.349 . S
C639 C655 1.349 . S
C640 C638 1.327 . S
C640 C659 1.429 . S
C640 H664 0.950 . S
C641 C658 1.574 . S
C641 C660 1.368 . S
C641 H665 0.949 . S
H642 C646 0.949 . S
C643 C644 1.349 . S
C643 C645 1.327 . S
C643 H666 0.950 . S
C644 C643 1.349 . S
C644 C656 1.349 . S
C645 C643 1.327 . S
C645 C661 1.429 . S
C645 H667 0.950 . S
C646 H642 0.949 . S
C646 C654 1.574 . S
C646 C662 1.368 . S
H647 C655 0.950 . S
H648 C653 0.950 . S
H649 C654 0.949 . S
H650 C656 0.950 . S
H651 C657 0.950 . S
H652 C658 0.949 . S
C653 H648 0.950 . S
C653 C655 1.327 . S
C653 C659 1.429 . S
C654 C646 1.574 . S
C654 H649 0.949 . S
C654 C660 1.368 . S
C655 C639 1.349 . S
C655 H647 0.950 . S
C655 C653 1.327 . S
C656 C644 1.349 . S
C656 H650 0.950 . S
C656 C657 1.327 . S
C657 H651 0.950 . S
C657 C656 1.327 . S
C657 C661 1.429 . S
C658 C641 1.574 . S
C658 H652 0.949 . S
C658 C662 1.368 . S
C659 C640 1.429 . S
C659 C653 1.429 . S
C659 C660 1.523 . S
C660 C641 1.368 . S
C660 C654 1.368 . S
C660 C659 1.523 . S
C661 C645 1.429 . S
C661 C657 1.429 . S
C661 C662 1.523 . S
C662 C646 1.368 . S
C662 C658 1.368 . S
C662 C661 1.523 . S
H663 C638 0.950 . S
H664 C640 0.950 . S
H665 C641 0.949 . S
H666 C643 0.950 . S
H667 C645 0.950 . S
C668 C669 1.349 . S
C668 C670 1.327 . S
C668 H693 0.950 . S
C669 C668 1.349 . S
C669 C685 1.349 . S
C670 C668 1.327 . S
C670 C689 1.429 . S
C670 H694 0.950 . S
C671 C688 1.574 . S
C671 C690 1.368 . S
C671 H695 0.949 . S
H672 C676 0.949 . S
C673 C674 1.349 . S
C673 C675 1.327 . S
C673 H696 0.950 . S
C674 C673 1.349 . S
C674 C686 1.349 . S
C675 C673 1.327 . S
C675 C691 1.429 . S
C675 H697 0.950 . S
C676 H672 0.949 . S
C676 C684 1.574 . S
C676 C692 1.368 . S
H677 C685 0.950 . S
H678 C683 0.950 . S
H679 C684 0.949 . S
H680 C686 0.950 . S
H681 C687 0.950 . S
H682 C688 0.949 . S
C683 H678 0.950 . S
C683 C685 1.327 . S
C683 C689 1.429 . S
C684 C676 1.574 . S
C684 H679 0.949 . S
C684 C690 1.368 . S
C685 C669 1.349 . S
C685 H677 0.950 . S
C685 C683 1.327 . S
C686 C674 1.349 . S
C686 H680 0.950 . S
C686 C687 1.327 . S
C687 H681 0.950 . S
C687 C686 1.327 . S
C687 C691 1.429 . S
C688 C671 1.574 . S
C688 H682 0.949 . S
C688 C692 1.368 . S
C689 C670 1.429 . S
C689 C683 1.429 . S
C689 C690 1.523 . S
C690 C671 1.368 . S
C690 C684 1.368 . S
C690 C689 1.523 . S
C691 C675 1.429 . S
C691 C687 1.429 . S
C691 C692 1.523 . S
C692 C676 1.368 . S
C692 C688 1.368 . S
C692 C691 1.523 . S
H693 C668 0.950 . S
H694 C670 0.950 . S
H695 C671 0.949 . S
H696 C673 0.950 . S
H697 C675 0.950 . S
C698 C699 1.349 . S
C698 C700 1.327 . S
C698 H723 0.950 . S
C699 C698 1.349 . S
C699 C715 1.349 . S
C700 C698 1.327 . S
C700 C719 1.429 . S
C700 H724 0.950 . S
C701 C718 1.574 . S
C701 C720 1.368 . S
C701 H725 0.949 . S
H702 C706 0.949 . S
C703 C704 1.349 . S
C703 C705 1.327 . S
C703 H726 0.950 . S
C704 C703 1.349 . S
C704 C716 1.349 . S
C705 C703 1.327 . S
C705 C721 1.429 . S
C705 H727 0.950 . S
C706 H702 0.949 . S
C706 C714 1.574 . S
C706 C722 1.368 . S
H707 C715 0.950 . S
H708 C713 0.950 . S
H709 C714 0.949 . S
H710 C716 0.950 . S
H711 C717 0.950 . S
H712 C718 0.949 . S
C713 H708 0.950 . S
C713 C715 1.327 . S
C713 C719 1.429 . S
C714 C706 1.574 . S
C714 H709 0.949 . S
C714 C720 1.368 . S
C715 C699 1.349 . S
C715 H707 0.950 . S
C715 C713 1.327 . S
C716 C704 1.349 . S
C716 H710 0.950 . S
C716 C717 1.327 . S
C717 H711 0.950 . S
C717 C716 1.327 . S
C717 C721 1.429 . S
C718 C701 1.574 . S
C718 H712 0.949 . S
C718 C722 1.368 . S
C719 C700 1.429 . S
C719 C713 1.429 . S
C719 C720 1.523 . S
C720 C701 1.368 . S
C720 C714 1.368 . S
C720 C719 1.523 . S
C721 C705 1.429 . S
C721 C717 1.429 . S
C721 C722 1.523 . S
C722 C706 1.368 . S
C722 C718 1.368 . S
C722 C721 1.523 . S
H723 C698 0.950 . S
H724 C700 0.950 . S
H725 C701 0.949 . S
H726 C703 0.950 . S
H727 C705 0.950 . S
C728 C729 1.349 . S
C728 C730 1.327 . S
C728 H753 0.950 . S
C729 C728 1.349 . S
C729 C745 1.349 . S
C730 C728 1.327 . S
C730 C749 1.429 . S
C730 H754 0.950 . S
C731 C748 1.574 . S
C731 C750 1.368 . S
C731 H755 0.949 . S
H732 C736 0.949 . S
C733 C734 1.349 . S
C733 C735 1.327 . S
C733 H756 0.950 . S
C734 C733 1.349 . S
C734 C746 1.349 . S
C735 C733 1.327 . S
C735 C751 1.429 . S
C735 H757 0.950 . S
C736 H732 0.949 . S
C736 C744 1.574 . S
C736 C752 1.368 . S
H737 C745 0.950 . S
H738 C743 0.950 . S
H739 C744 0.949 . S
H740 C746 0.950 . S
H741 C747 0.950 . S
H742 C748 0.949 . S
C743 H738 0.950 . S
C743 C745 1.327 . S
C743 C749 1.429 . S
C744 C736 1.574 . S
C744 H739 0.949 . S
C744 C750 1.368 . S
C745 C729 1.349 . S
C745 H737 0.950 . S
C745 C743 1.327 . S
C746 C734 1.349 . S
C746 H740 0.950 . S
C746 C747 1.327 . S
C747 H741 0.950 . S
C747 C746 1.327 . S
C747 C751 1.429 . S
C748 C731 1.574 . S
C748 H742 0.949 . S
C748 C752 1.368 . S
C749 C730 1.429 . S
C749 C743 1.429 . S
C749 C750 1.523 . S
C750 C731 1.368 . S
C750 C744 1.368 . S
C750 C749 1.523 . S
C751 C735 1.429 . S
C751 C747 1.429 . S
C751 C752 1.523 . S
C752 C736 1.368 . S
C752 C748 1.368 . S
C752 C751 1.523 . S
H753 C728 0.950 . S
H754 C730 0.950 . S
H755 C731 0.949 . S
H756 C733 0.950 . S
H757 C735 0.950 . S
C758 C759 1.349 . S
C758 C760 1.327 . S
C758 H783 0.950 . S
C759 C758 1.349 . S
C759 C775 1.349 . S
C760 C758 1.327 . S
C760 C779 1.429 . S
C760 H784 0.950 . S
C761 C778 1.574 . S
C761 C780 1.368 . S
C761 H785 0.949 . S
H762 C766 0.949 . S
C763 C764 1.349 . S
C763 C765 1.327 . S
C763 H786 0.950 . S
C764 C763 1.349 . S
C764 C776 1.349 . S
C765 C763 1.327 . S
C765 C781 1.429 . S
C765 H787 0.950 . S
C766 H762 0.949 . S
C766 C774 1.574 . S
C766 C782 1.368 . S
H767 C775 0.950 . S
H768 C773 0.950 . S
H769 C774 0.949 . S
H770 C776 0.950 . S
H771 C777 0.950 . S
H772 C778 0.949 . S
C773 H768 0.950 . S
C773 C775 1.327 . S
C773 C779 1.429 . S
C774 C766 1.574 . S
C774 H769 0.949 . S
C774 C780 1.368 . S
C775 C759 1.349 . S
C775 H767 0.950 . S
C775 C773 1.327 . S
C776 C764 1.349 . S
C776 H770 0.950 . S
C776 C777 1.327 . S
C777 H771 0.950 . S
C777 C776 1.327 . S
C777 C781 1.429 . S
C778 C761 1.574 . S
C778 H772 0.949 . S
C778 C782 1.368 . S
C779 C760 1.429 . S
C779 C773 1.429 . S
C779 C780 1.523 . S
C780 C761 1.368 . S
C780 C774 1.368 . S
C780 C779 1.523 . S
C781 C765 1.429 . S
C781 C777 1.429 . S
C781 C782 1.523 . S
C782 C766 1.368 . S
C782 C778 1.368 . S
C782 C781 1.523 . S
H783 C758 0.950 . S
H784 C760 0.950 . S
H785 C761 0.949 . S
H786 C763 0.950 . S
H787 C765 0.950 . S
C788 C789 1.349 . S
C788 C790 1.327 . S
C788 H813 0.950 . S
C789 C788 1.349 . S
C789 C805 1.349 . S
C790 C788 1.327 . S
C790 C809 1.429 . S
C790 H814 0.950 . S
C791 C808 1.574 . S
C791 C810 1.368 . S
C791 H815 0.949 . S
H792 C796 0.949 . S
C793 C794 1.349 . S
C793 C795 1.327 . S
C793 H816 0.950 . S
C794 C793 1.349 . S
C794 C806 1.349 . S
C795 C793 1.327 . S
C795 C811 1.429 . S
C795 H817 0.950 . S
C796 H792 0.949 . S
C796 C804 1.574 . S
C796 C812 1.368 . S
H797 C805 0.950 . S
H798 C803 0.950 . S
H799 C804 0.949 . S
H800 C806 0.950 . S
H801 C807 0.950 . S
H802 C808 0.949 . S
C803 H798 0.950 . S
C803 C805 1.327 . S
C803 C809 1.429 . S
C804 C796 1.574 . S
C804 H799 0.949 . S
C804 C810 1.368 . S
C805 C789 1.349 . S
C805 H797 0.950 . S
C805 C803 1.327 . S
C806 C794 1.349 . S
C806 H800 0.950 . S
C806 C807 1.327 . S
C807 H801 0.950 . S
C807 C806 1.327 . S
C807 C811 1.429 . S
C808 C791 1.574 . S
C808 H802 0.949 . S
C808 C812 1.368 . S
C809 C790 1.429 . S
C809 C803 1.429 . S
C809 C810 1.523 . S
C810 C791 1.368 . S
C810 C804 1.368 . S
C810 C809 1.523 . S
C811 C795 1.429 . S
C811 C807 1.429 . S
C811 C812 1.523 . S
C812 C796 1.368 . S
C812 C808 1.368 . S
C812 C811 1.523 . S
H813 C788 0.950 . S
H814 C790 0.950 . S
H815 C791 0.949 . S
H816 C793 0.950 . S
H817 C795 0.950 . S
C818 C819 1.349 . S
C818 C820 1.327 . S
C818 H843 0.950 . S
C819 C818 1.349 . S
C819 C835 1.349 . S
C820 C818 1.327 . S
C820 C839 1.429 . S
C820 H844 0.950 . S
C821 C838 1.574 . S
C821 C840 1.368 . S
C821 H845 0.949 . S
H822 C826 0.949 . S
C823 C824 1.349 . S
C823 C825 1.327 . S
C823 H846 0.950 . S
C824 C823 1.349 . S
C824 C836 1.349 . S
C825 C823 1.327 . S
C825 C841 1.429 . S
C825 H847 0.950 . S
C826 H822 0.949 . S
C826 C834 1.574 . S
C826 C842 1.368 . S
H827 C835 0.950 . S
H828 C833 0.950 . S
H829 C834 0.949 . S
H830 C836 0.950 . S
H831 C837 0.950 . S
H832 C838 0.949 . S
C833 H828 0.950 . S
C833 C835 1.327 . S
C833 C839 1.429 . S
C834 C826 1.574 . S
C834 H829 0.949 . S
C834 C840 1.368 . S
C835 C819 1.349 . S
C835 H827 0.950 . S
C835 C833 1.327 . S
C836 C824 1.349 . S
C836 H830 0.950 . S
C836 C837 1.327 . S
C837 H831 0.950 . S
C837 C836 1.327 . S
C837 C841 1.429 . S
C838 C821 1.574 . S
C838 H832 0.949 . S
C838 C842 1.368 . S
C839 C820 1.429 . S
C839 C833 1.429 . S
C839 C840 1.523 . S
C840 C821 1.368 . S
C840 C834 1.368 . S
C840 C839 1.523 . S
C841 C825 1.429 . S
C841 C837 1.429 . S
C841 C842 1.523 . S
C842 C826 1.368 . S
C842 C838 1.368 . S
C842 C841 1.523 . S
H843 C818 0.950 . S
H844 C820 0.950 . S
H845 C821 0.949 . S
H846 C823 0.950 . S
H847 C825 0.950 . S
C848 C849 1.349 . S
C848 C850 1.327 . S
C848 H873 0.950 . S
C849 C848 1.349 . S
C849 C865 1.349 . S
C850 C848 1.327 . S
C850 C869 1.429 . S
C850 H874 0.950 . S
C851 C868 1.574 . S
C851 C870 1.368 . S
C851 H875 0.949 . S
H852 C856 0.949 . S
C853 C854 1.349 . S
C853 C855 1.327 . S
C853 H876 0.950 . S
C854 C853 1.349 . S
C854 C866 1.349 . S
C855 C853 1.327 . S
C855 C871 1.429 . S
C855 H877 0.950 . S
C856 H852 0.949 . S
C856 C864 1.574 . S
C856 C872 1.368 . S
H857 C865 0.950 . S
H858 C863 0.950 . S
H859 C864 0.949 . S
H860 C866 0.950 . S
H861 C867 0.950 . S
H862 C868 0.949 . S
C863 H858 0.950 . S
C863 C865 1.327 . S
C863 C869 1.429 . S
C864 C856 1.574 . S
C864 H859 0.949 . S
C864 C870 1.368 . S
C865 C849 1.349 . S
C865 H857 0.950 . S
C865 C863 1.327 . S
C866 C854 1.349 . S
C866 H860 0.950 . S
C866 C867 1.327 . S
C867 H861 0.950 . S
C867 C866 1.327 . S
C867 C871 1.429 . S
C868 C851 1.574 . S
C868 H862 0.949 . S
C868 C872 1.368 . S
C869 C850 1.429 . S
C869 C863 1.429 . S
C869 C870 1.523 . S
C870 C851 1.368 . S
C870 C864 1.368 . S
C870 C869 1.523 . S
C871 C855 1.429 . S
C871 C867 1.429 . S
C871 C872 1.523 . S
C872 C856 1.368 . S
C872 C868 1.368 . S
C872 C871 1.523 . S
H873 C848 0.950 . S
H874 C850 0.950 . S
H875 C851 0.949 . S
H876 C853 0.950 . S
H877 C855 0.950 . S
C878 C879 1.349 . S
C878 C880 1.327 . S
C878 H903 0.950 . S
C879 C878 1.349 . S
C879 C895 1.349 . S
C880 C878 1.327 . S
C880 C899 1.429 . S
C880 H904 0.950 . S
C881 C898 1.574 . S
C881 C900 1.368 . S
C881 H905 0.949 . S
H882 C886 0.949 . S
C883 C884 1.349 . S
C883 C885 1.327 . S
C883 H906 0.950 . S
C884 C883 1.349 . S
C884 C896 1.349 . S
C885 C883 1.327 . S
C885 C901 1.429 . S
C885 H907 0.950 . S
C886 H882 0.949 . S
C886 C894 1.574 . S
C886 C902 1.368 . S
H887 C895 0.950 . S
H888 C893 0.950 . S
H889 C894 0.949 . S
H890 C896 0.950 . S
H891 C897 0.950 . S
H892 C898 0.949 . S
C893 H888 0.950 . S
C893 C895 1.327 . S
C893 C899 1.429 . S
C894 C886 1.574 . S
C894 H889 0.949 . S
C894 C900 1.368 . S
C895 C879 1.349 . S
C895 H887 0.950 . S
C895 C893 1.327 . S
C896 C884 1.349 . S
C896 H890 0.950 . S
C896 C897 1.327 . S
C897 H891 0.950 . S
C897 C896 1.327 . S
C897 C901 1.429 . S
C898 C881 1.574 . S
C898 H892 0.949 . S
C898 C902 1.368 . S
C899 C880 1.429 . S
C899 C893 1.429 . S
C899 C900 1.523 . S
C900 C881 1.368 . S
C900 C894 1.368 . S
C900 C899 1.523 . S
C901 C885 1.429 . S
C901 C897 1.429 . S
C901 C902 1.523 . S
C902 C886 1.368 . S
C902 C898 1.368 . S
C902 C901 1.523 . S
H903 C878 0.950 . S
H904 C880 0.950 . S
H905 C881 0.949 . S
H906 C883 0.950 . S
H907 C885 0.950 . S
C908 C909 1.349 . S
C908 C910 1.327 . S
C908 H933 0.950 . S
C909 C908 1.349 . S
C909 C925 1.349 . S
C910 C908 1.327 . S
C910 C929 1.429 . S
C910 H934 0.950 . S
C911 C928 1.574 . S
C911 C930 1.368 . S
C911 H935 0.949 . S
H912 C916 0.949 . S
C913 C914 1.349 . S
C913 C915 1.327 . S
C913 H936 0.950 . S
C914 C913 1.349 . S
C914 C926 1.349 . S
C915 C913 1.327 . S
C915 C931 1.429 . S
C915 H937 0.950 . S
C916 H912 0.949 . S
C916 C924 1.574 . S
C916 C932 1.368 . S
H917 C925 0.950 . S
H918 C923 0.950 . S
H919 C924 0.949 . S
H920 C926 0.950 . S
H921 C927 0.950 . S
H922 C928 0.949 . S
C923 H918 0.950 . S
C923 C925 1.327 . S
C923 C929 1.429 . S
C924 C916 1.574 . S
C924 H919 0.949 . S
C924 C930 1.368 . S
C925 C909 1.349 . S
C925 H917 0.950 . S
C925 C923 1.327 . S
C926 C914 1.349 . S
C926 H920 0.950 . S
C926 C927 1.327 . S
C927 H921 0.950 . S
C927 C926 1.327 . S
C927 C931 1.429 . S
C928 C911 1.574 . S
C928 H922 0.949 . S
C928 C932 1.368 . S
C929 C910 1.429 . S
C929 C923 1.429 . S
C929 C930 1.523 . S
C930 C911 1.368 . S
C930 C924 1.368 . S
C930 C929 1.523 . S
C931 C915 1.429 . S
C931 C927 1.429 . S
C931 C932 1.523 . S
C932 C916 1.368 . S
C932 C928 1.368 . S
C932 C931 1.523 . S
H933 C908 0.950 . S
H934 C910 0.950 . S
H935 C911 0.949 . S
H936 C913 0.950 . S
H937 C915 0.950 . S
C938 C939 1.349 . S
C938 C940 1.327 . S
C938 H963 0.950 . S
C939 C938 1.349 . S
C939 C955 1.349 . S
C940 C938 1.327 . S
C940 C959 1.429 . S
C940 H964 0.950 . S
C941 C958 1.574 . S
C941 C960 1.368 . S
C941 H965 0.949 . S
H942 C946 0.949 . S
C943 C944 1.349 . S
C943 C945 1.327 . S
C943 H966 0.950 . S
C944 C943 1.349 . S
C944 C956 1.349 . S
C945 C943 1.327 . S
C945 C961 1.429 . S
C945 H967 0.950 . S
C946 H942 0.949 . S
C946 C954 1.574 . S
C946 C962 1.368 . S
H947 C955 0.950 . S
H948 C953 0.950 . S
H949 C954 0.949 . S
H950 C956 0.950 . S
H951 C957 0.950 . S
H952 C958 0.949 . S
C953 H948 0.950 . S
C953 C955 1.327 . S
C953 C959 1.429 . S
C954 C946 1.574 . S
C954 H949 0.949 . S
C954 C960 1.368 . S
C955 C939 1.349 . S
C955 H947 0.950 . S
C955 C953 1.327 . S
C956 C944 1.349 . S
C956 H950 0.950 . S
C956 C957 1.327 . S
C957 H951 0.950 . S
C957 C956 1.327 . S
C957 C961 1.429 . S
C958 C941 1.574 . S
C958 H952 0.949 . S
C958 C962 1.368 . S
C959 C940 1.429 . S
C959 C953 1.429 . S
C959 C960 1.523 . S
C960 C941 1.368 . S
C960 C954 1.368 . S
C960 C959 1.523 . S
C961 C945 1.429 . S
C961 C957 1.429 . S
C961 C962 1.523 . S
C962 C946 1.368 . S
C962 C958 1.368 . S
C962 C961 1.523 . S
H963 C938 0.950 . S
H964 C940 0.950 . S
H965 C941 0.949 . S
H966 C943 0.950 . S
H967 C945 0.950 . S
C249 C4 0.983 . S
C254 C103 0.992 . S
C279 C16 1.769 . S
C284 C147 1.791 1_556 S
C314 C177 1.641 . S
C309 C32 1.597 . S
C339 C43 2.633 . S
C344 C218 2.613 . S
C374 C134 1.242 . S
C369 C5 1.223 . S
C404 C98 2.219 . S
C399 C21 2.158 . S
C434 C226 1.030 . S
C429 C27 1.051 . S
C464 C187 2.064 . S
C459 C37 2.113 . S
C489 C10 0.709 . S
C494 C223 0.709 . S
C524 C137 2.188 1_556 S
C519 C26 2.250 . S
C549 C38 1.764 . S
C554 C106 1.744 . S
C579 C15 2.184 . S
C584 C174 2.182 . S
C614 C94 1.240 . S
C609 C48 1.231 . S
C639 C59 1.377 . S
C644 C138 1.368 . S
C669 C76 1.824 . S
C674 C186 1.814 . S
C699 C87 2.384 . S
C704 C227 2.342 . S
C729 C54 0.564 . S
C734 C143 0.553 . S
C764 C107 3.033 . S
C759 C60 3.012 . S
C794 C217 0.977 . S
C789 C71 0.954 . S
C824 C178 1.827 . S
C819 C82 1.845 . S
C849 C49 1.120 . S
C854 C214 1.141 . S
C884 C146 1.428 . S
C879 C70 1.457 . S
C914 C97 2.187 . S
C909 C81 2.246 . S
C939 C65 1.867 . S
C944 C183 1.866 . S
