# Generated by pormake.
# Topology tsx, (6,3)-cn, num edge types: 1
# Building blocks:
#     Node 0, Type 0, BuildingBlock: FUNLAD_clean_sbu_0, # of connection points: 6
#     Node 1, Type 0, BuildingBlock: FUNLAD_clean_sbu_0, # of connection points: 6
#     Node 2, Type 1, BuildingBlock: VETTIZ_charged_linker_0, # of connection points: 3
#     Node 3, Type 1, BuildingBlock: VETTIZ_charged_linker_0, # of connection points: 3
#     Node 4, Type 1, BuildingBlock: VETTIZ_charged_linker_0, # of connection points: 3
#     Node 5, Type 1, BuildingBlock: VETTIZ_charged_linker_0, # of connection points: 3
#     Edge 6, Type (0, 1), BuildingBlock: KIFKEQ_clean_linker_1, # of connection points: 2
#     Edge 7, Type (0, 1), BuildingBlock: KIFKEQ_clean_linker_1, # of connection points: 2
#     Edge 8, Type (0, 1), BuildingBlock: KIFKEQ_clean_linker_1, # of connection points: 2
#     Edge 9, Type (0, 1), BuildingBlock: KIFKEQ_clean_linker_1, # of connection points: 2
#     Edge 10, Type (0, 1), BuildingBlock: KIFKEQ_clean_linker_1, # of connection points: 2
#     Edge 11, Type (0, 1), BuildingBlock: KIFKEQ_clean_linker_1, # of connection points: 2
#     Edge 12, Type (0, 1), BuildingBlock: KIFKEQ_clean_linker_1, # of connection points: 2
#     Edge 13, Type (0, 1), BuildingBlock: KIFKEQ_clean_linker_1, # of connection points: 2
#     Edge 14, Type (0, 1), BuildingBlock: KIFKEQ_clean_linker_1, # of connection points: 2
#     Edge 15, Type (0, 1), BuildingBlock: KIFKEQ_clean_linker_1, # of connection points: 2
#     Edge 16, Type (0, 1), BuildingBlock: KIFKEQ_clean_linker_1, # of connection points: 2
#     Edge 17, Type (0, 1), BuildingBlock: KIFKEQ_clean_linker_1, # of connection points: 2
# Relax obj value: 0.169
# Max RMSD: 0.157
# Mean RMSD: 0.092
data_MOF--net-tsx--node1-FUNLAD_clean_sbu_0--node2-VETTIZ_charged_linker_0--edge1-KIFKEQ_clean_linker_1
_symmetry_space_group_name_H-M    P1
_symmetry_Int_Tables_number       1
_symmetry_cell_setting            triclinic
loop_
_symmetry_equiv_pos_as_xyz
'x, y, z'
_cell_length_a     23.156708
_cell_length_b     25.459353
_cell_length_c     51.611683
_cell_angle_alpha  90.818199
_cell_angle_beta   91.99333
_cell_angle_gamma 89.87482
loop_
_atom_site_label
_atom_site_type_symbol
_atom_site_fract_x
_atom_site_fract_y
_atom_site_fract_z
_atom_type_partial_charge
C0 C 0.997 0.94936 -3e-05 0.0
N1 N 0.0802 0.04369 0.05636 0.0
C2 C 0.02954 0.04573 0.06889 0.0
C3 C 0.02952 0.05493 0.09558 0.0
C4 C 0.08214 0.06228 0.10952 0.0
C5 C 0.13383 0.05939 0.09611 0.0
C6 C 0.13185 0.04998 0.06939 0.0
Zn7 Zn 0.07823 0.03359 0.01718 0.0
C8 C 0.16516 0.9564 -0.00093 0.0
N9 N 0.07383 0.016 0.93541 0.0
C10 C 0.02307 0.00934 0.92173 0.0
C11 C 0.12526 0.01645 0.92347 0.0
C12 C 0.12706 0.00988 0.89669 0.0
C13 C 0.0754 1.00299 0.88203 0.0
C14 C 0.02285 1.0028 0.89486 0.0
Zn15 Zn 0.07454 0.02535 0.97446 0.0
O16 O 0.01759 0.97351 0.01988 0.0
C17 C 0.98627 0.10038 -0.00892 0.0
O18 O 0.01369 0.96193 0.97765 0.0
H19 H 0.16509 0.02174 0.93476 0.0
H20 H 0.98898 0.04057 0.05813 0.0
H21 H 0.98272 0.00924 0.93168 0.0
O22 O 0.00863 0.09059 0.0134 0.0
O23 O 0.0064 0.07775 0.97131 0.0
H24 H 0.17157 0.04835 0.05899 0.0
O25 O 0.13335 0.08976 0.9718 0.0
O26 O 0.1393 0.09439 0.01423 0.0
O27 O 0.14345 0.97195 0.97763 0.0
O28 O 0.14624 0.9753 0.02012 0.0
C29 C 0.15395 0.11144 -0.00757 0.0
H30 H 0.98871 0.05593 0.10521 0.0
H31 H 0.17531 0.06531 0.10605 0.0
H32 H 0.16854 0.00956 0.88762 0.0
H33 H 0.98198 0.99829 0.88422 0.0
C34 C 0.38629 0.42933 0.48614 0.0
N35 N 0.44791 0.50963 0.55173 0.0
C36 C 0.39393 0.5041 0.56091 0.0
C37 C 0.38637 0.49704 0.5873 0.0
C38 C 0.43489 0.4956 0.60433 0.0
C39 C 0.48998 0.50283 0.5944 0.0
C40 C 0.49554 0.50978 0.56788 0.0
Zn41 Zn 0.45752 0.51324 0.51296 0.0
C42 C 0.55038 0.44432 0.49437 0.0
N43 N 0.47278 0.51797 0.43179 0.0
C44 C 0.42854 0.50853 0.41436 0.0
C45 C 0.52758 0.52607 0.42407 0.0
C46 C 0.53996 0.52381 0.39794 0.0
C47 C 0.49563 0.51259 0.37953 0.0
C48 C 0.43909 0.50559 0.38793 0.0
Zn49 Zn 0.4611 0.5157 0.47038 0.0
O50 O 0.4006 0.45019 0.50787 0.0
C51 C 0.36722 0.58328 0.48749 0.0
O52 O 0.40495 0.44895 0.46552 0.0
H53 H 0.56223 0.53317 0.43826 0.0
H54 H 0.35673 0.50389 0.54765 0.0
H55 H 0.3854 0.50202 0.42102 0.0
O56 O 0.38705 0.56854 0.50955 0.0
O57 O 0.39032 0.56609 0.4671 0.0
H58 H 0.53798 0.51433 0.56011 0.0
O59 O 0.51708 0.58227 0.47584 0.0
O60 O 0.5155 0.57607 0.51808 0.0
O61 O 0.53144 0.46461 0.47349 0.0
O62 O 0.52745 0.45738 0.51555 0.0
C63 C 0.53359 0.59886 0.49823 0.0
H64 H 0.34322 0.49117 0.59416 0.0
H65 H 0.52841 0.50281 0.60698 0.0
H66 H 0.58392 0.53034 0.39226 0.0
H67 H 0.40377 0.49639 0.37433 0.0
C68 C 0.0487 0.89149 0.44388 0.0
C69 C 0.1092 0.88508 0.44629 0.0
C70 C 0.14552 0.92448 0.43687 0.0
C71 C 0.06243 0.97158 0.42022 0.0
C72 C 0.02624 0.93621 0.43147 0.0
C73 C 0.96463 0.95614 0.43033 0.0
H74 H 0.79393 0.17177 0.41245 0.0
C75 C 0.0281 0.01518 0.41025 0.0
C76 C 0.97417 0.0125 0.42141 0.0
H77 H 0.82046 0.09708 0.48659 0.0
H78 H 0.89779 0.04478 0.46874 0.0
H79 H 0.92017 0.19111 0.40782 0.0
H80 H 0.82061 0.0649 0.37206 0.0
H81 H 0.86961 0.08701 0.34941 0.0
H82 H 0.81499 0.13132 0.36105 0.0
H83 H 0.86839 0.20171 0.38167 0.0
H84 H 0.94178 0.18325 0.37568 0.0
C85 C 0.93678 0.95175 0.45655 0.0
C86 C 0.92938 0.92482 0.40951 0.0
C87 C 0.07468 0.07561 0.32052 0.0
C88 C 0.04219 0.1037 0.30181 0.0
C89 C 0.99125 0.12948 0.30914 0.0
C90 C 0.97141 0.12505 0.33432 0.0
C91 C 0.00285 0.09467 0.35241 0.0
C92 C 0.05427 0.07133 0.34562 0.0
C93 C 0.08068 0.03857 0.36709 0.0
C94 C 0.03481 0.0446 0.38746 0.0
C95 C 0.98932 0.07701 0.37854 0.0
C96 C 0.13976 0.0623 0.37592 0.0
C97 C 0.08651 0.98113 0.35741 0.0
C98 C 0.81296 0.14119 0.42438 0.0
C99 C 0.79882 0.13679 0.45058 0.0
C100 C 0.82867 0.09977 0.46612 0.0
C101 C 0.87168 0.06778 0.45564 0.0
C102 C 0.88312 0.07097 0.4292 0.0
C103 C 0.85625 0.10922 0.41433 0.0
C104 C 0.88682 0.11812 0.3894 0.0
C105 C 0.93852 0.0819 0.39304 0.0
C106 C 0.93242 0.05099 0.41494 0.0
C107 C 0.90512 0.17659 0.38831 0.0
C108 C 0.8461 0.09984 0.36664 0.0
H109 H 0.15018 0.99973 0.41911 0.0
H110 H 0.02009 0.86296 0.45198 0.0
H111 H 0.88495 0.94112 0.40726 0.0
H112 H 0.92618 0.88288 0.41498 0.0
H113 H 0.94992 0.92662 0.39037 0.0
H114 H 0.95946 0.97844 0.47046 0.0
H115 H 0.93963 0.91114 0.46404 0.0
H116 H 0.89011 0.96153 0.45492 0.0
H117 H 0.11436 0.05604 0.31544 0.0
H118 H 0.96518 0.15103 0.29506 0.0
H119 H 0.93161 0.14444 0.33855 0.0
H120 H 0.16086 0.08244 0.3598 0.0
H121 H 0.17086 0.03161 0.38226 0.0
H122 H 0.13497 0.09157 0.39189 0.0
H123 H 0.04357 0.96486 0.35127 0.0
H124 H 0.10561 0.95557 0.37261 0.0
H125 H 0.11532 0.97851 0.34069 0.0
H126 H 0.19206 0.92131 0.43918 0.0
C127 C 0.12214 0.96833 0.42432 0.0
C128 C 0.10996 0.09123 0.51696 0.0
C129 C 0.15954 0.11865 0.52593 0.0
C130 C 0.17779 0.11477 0.55216 0.0
C131 C 0.09731 0.05783 0.56031 0.0
C132 C 0.07998 0.06049 0.53446 0.0
C133 C 0.02695 0.02776 0.52845 0.0
H134 H 0.8242 0.86023 0.57146 0.0
C135 C 0.05626 0.02414 0.57355 0.0
C136 C 0.01446 0.00648 0.55509 0.0
H137 H 0.83907 0.91893 0.49385 0.0
H138 H 0.9209 0.97267 0.50864 0.0
H139 H 0.95636 0.84096 0.58269 0.0
H140 H 0.84447 0.97056 0.5999 0.0
H141 H 0.89195 0.96482 0.62691 0.0
H142 H 0.84455 0.91088 0.61795 0.0
H143 H 0.90519 0.83901 0.60798 0.0
H144 H 0.97763 0.86346 0.61386 0.0
C145 C 0.0442 0.98324 0.50954 0.0
C146 C 0.97845 0.06446 0.51787 0.0
C147 C 0.08081 0.99645 0.6706 0.0
C148 C 0.04962 0.96682 0.68811 0.0
C149 C 0.00318 0.93549 0.67872 0.0
C150 C 0.98709 0.93463 0.65238 0.0
C151 C 0.01775 0.96538 0.63517 0.0
C152 C 0.06423 0.99501 0.64427 0.0
C153 C 0.09217 0.02446 0.623 0.0
C154 C 0.05373 0.00857 0.59977 0.0
C155 C 0.01022 0.97427 0.60711 0.0
C156 C 0.1549 1.00375 0.62066 0.0
C157 C 0.08756 0.084 0.62927 0.0
C158 C 0.84486 0.88481 0.55754 0.0
C159 C 0.82532 0.88538 0.53149 0.0
C160 C 0.85385 0.91743 0.51396 0.0
C161 C 0.90133 0.94825 0.52241 0.0
C162 C 0.92122 0.94621 0.54834 0.0
C163 C 0.89257 0.91521 0.56545 0.0
C164 C 0.91868 0.91832 0.59239 0.0
C165 C 0.96826 0.95584 0.58859 0.0
C166 C 0.96992 0.9721 0.56274 0.0
C167 C 0.94037 0.86267 0.59989 0.0
C168 C 0.87278 0.94198 0.61043 0.0
H169 H 0.16273 0.08416 0.58912 0.0
H170 H 0.0951 0.09356 0.49688 0.0
H171 H 0.93474 0.05093 0.52242 0.0
H172 H 0.98125 0.06924 0.4966 0.0
H173 H 0.9819 0.10424 0.527 0.0
H174 H 0.08533 0.96446 0.51634 0.0
H175 H 0.05106 0.99881 0.48988 0.0
H176 H 0.01215 0.95126 0.50812 0.0
H177 H 0.1171 0.02044 0.67726 0.0
H178 H 0.97814 0.91278 0.6919 0.0
H179 H 0.95088 0.91054 0.64655 0.0
H180 H 0.15902 0.96245 0.62728 0.0
H181 H 0.18596 0.02781 0.63262 0.0
H182 H 0.16893 1.00239 0.6004 0.0
H183 H 0.04469 0.0936 0.63723 0.0
H184 H 0.0908 0.10883 0.61203 0.0
H185 H 0.12122 0.09638 0.64395 0.0
H186 H 0.21543 0.13616 0.55954 0.0
C187 C 0.14693 0.08477 0.56936 0.0
C188 C 0.61247 0.36132 0.95492 0.0
C189 C 0.65102 0.32903 0.94147 0.0
C190 C 0.65151 0.33113 0.91422 0.0
C191 C 0.57347 0.39421 0.91394 0.0
C192 C 0.57449 0.39419 0.94074 0.0
C193 C 0.52956 0.43089 0.95129 0.0
H194 H 0.31265 0.60394 0.9304 0.0
C195 C 0.52771 0.43042 0.90484 0.0
C196 C 0.50706 0.45741 0.92652 0.0
H197 H 0.45605 0.63254 0.98423 0.0
H198 H 0.50754 0.55939 0.96505 0.0
H199 H 0.39586 0.61108 0.8918 0.0
H200 H 0.31802 0.46858 0.91728 0.0
H201 H 0.31588 0.47051 0.88294 0.0
H202 H 0.28051 0.52138 0.90113 0.0
H203 H 0.33031 0.58665 0.87667 0.0
H204 H 0.4005 0.56743 0.86559 0.0
C205 C 0.55715 0.46803 0.97181 0.0
C206 C 0.48124 0.39805 0.96278 0.0
C207 C 0.45899 0.42426 0.81058 0.0
C208 C 0.41396 0.44997 0.79688 0.0
C209 C 0.37204 0.47763 0.81084 0.0
C210 C 0.37733 0.4826 0.8379 0.0
C211 C 0.42553 0.46055 0.851 0.0
C212 C 0.46421 0.43039 0.83747 0.0
C213 C 0.5122 0.40903 0.85461 0.0
C214 C 0.49816 0.43448 0.8804 0.0
C215 C 0.44735 0.46449 0.87812 0.0
C216 C 0.57092 0.42817 0.84465 0.0
C217 C 0.5053 0.34857 0.85478 0.0
C218 C 0.35309 0.59209 0.93976 0.0
C219 C 0.37816 0.6221 0.96032 0.0
C220 C 0.43347 0.60768 0.97012 0.0
C221 C 0.46258 0.56397 0.9599 0.0
C222 C 0.43531 0.53265 0.94059 0.0
C223 C 0.38373 0.54978 0.92929 0.0
C224 C 0.37517 0.52865 0.90199 0.0
C225 C 0.42846 0.4943 0.89962 0.0
C226 C 0.4607 0.4936 0.92305 0.0
C227 C 0.37501 0.57552 0.88293 0.0
C228 C 0.31925 0.49562 0.90056 0.0
H229 H 0.61612 0.36391 0.87975 0.0
H230 H 0.61132 0.36005 0.97585 0.0
H231 H 0.44357 0.42332 0.96684 0.0
H232 H 0.49674 0.37932 0.98106 0.0
H233 H 0.46607 0.36664 0.94898 0.0
H234 H 0.58275 0.49918 0.96267 0.0
H235 H 0.58626 0.4468 0.98563 0.0
H236 H 0.52308 0.48505 0.98378 0.0
H237 H 0.49099 0.40147 0.80049 0.0
H238 H 0.3367 0.49757 0.80079 0.0
H239 H 0.34477 0.5048 0.84751 0.0
H240 H 0.566 0.46546 0.8338 0.0
H241 H 0.59012 0.3986 0.83145 0.0
H242 H 0.60245 0.4376 0.86065 0.0
H243 H 0.45969 0.33774 0.85821 0.0
H244 H 0.53138 0.32927 0.87012 0.0
H245 H 0.51708 0.33106 0.83583 0.0
H246 H 0.68181 0.30748 0.90355 0.0
C247 C 0.61335 0.36381 0.90044 0.0
C248 C 0.64079 0.67844 0.0386 0.0
C249 C 0.68831 0.70286 0.05154 0.0
C250 C 0.69681 0.6961 0.07843 0.0
C251 C 0.61759 0.6347 0.07846 0.0
C252 C 0.60604 0.6441 0.05248 0.0
C253 C 0.55681 0.61043 0.04188 0.0
H254 H 0.42117 0.37535 0.05383 0.0
C255 C 0.58197 0.59018 0.08618 0.0
C256 C 0.54724 0.57405 0.06459 0.0
H257 H 0.38851 0.48617 -0.00745 0.0
H258 H 0.45026 0.55049 0.01578 0.0
H259 H 0.55537 0.39588 0.06675 0.0
H260 H 0.39572 0.45432 0.09473 0.0
H261 H 0.44369 0.46308 0.1214 0.0
H262 H 0.42974 0.39772 0.10868 0.0
H263 H 0.50655 0.35916 0.08577 0.0
H264 H 0.56307 0.39886 0.1008 0.0
C265 C 0.5762 0.58087 0.01745 0.0
C266 C 0.50434 0.64673 0.03685 0.0
C267 C 0.59674 0.52284 0.17821 0.0
C268 C 0.57158 0.47921 0.18983 0.0
C269 C 0.54614 0.43952 0.174 0.0
C270 C 0.54075 0.44552 0.14722 0.0
C271 C 0.56092 0.49172 0.13613 0.0
C272 C 0.5909 0.52824 0.1513 0.0
C273 C 0.61213 0.57324 0.1356 0.0
C274 C 0.58374 0.56045 0.10922 0.0
C275 C 0.55397 0.51288 0.10985 0.0
C276 C 0.67917 0.56996 0.13536 0.0
C277 C 0.58869 0.62532 0.14702 0.0
C278 C 0.42857 0.41289 0.04486 0.0
C279 C 0.40294 0.42457 0.02068 0.0
C280 C 0.40978 0.47549 0.01074 0.0
C281 C 0.44591 0.51244 0.02399 0.0
C282 C 0.47481 0.49831 0.0473 0.0
C283 C 0.46309 0.4501 0.05785 0.0
C284 C 0.48799 0.44426 0.0847 0.0
C285 C 0.51979 0.49574 0.08818 0.0
C286 C 0.51397 0.52703 0.06599 0.0
C287 C 0.53026 0.39691 0.08475 0.0
C288 C 0.43708 0.43927 0.10344 0.0
H289 H 0.67099 0.65833 0.11225 0.0
H290 H 0.63304 0.68372 0.018 0.0
H291 H 0.46375 0.62478 0.03358 0.0
H292 H 0.51132 0.6721 0.0199 0.0
H293 H 0.49749 0.67289 0.05392 0.0
H294 H 0.61782 0.56011 0.02138 0.0
H295 H 0.58178 0.60822 0.00115 0.0
H296 H 0.54461 0.55124 0.01098 0.0
H297 H 0.61722 0.55366 0.1899 0.0
H298 H 0.52809 0.4048 0.18251 0.0
H299 H 0.51942 0.41464 0.13634 0.0
H300 H 0.69604 0.53167 0.14253 0.0
H301 H 0.69967 0.60107 0.14785 0.0
H302 H 0.69551 0.57301 0.11549 0.0
H303 H 0.54214 0.62142 0.15127 0.0
H304 H 0.59151 0.65843 0.13352 0.0
H305 H 0.61243 0.63621 0.16538 0.0
H306 H 0.73211 0.71578 0.0889 0.0
C307 C 0.66164 0.6624 0.09193 0.0
H308 H 0.16402 0.18245 0.95323 0.0
H309 H 0.23127 0.14427 0.02981 0.0
H310 H 0.22526 0.26148 0.95366 0.0
H311 H 0.29265 0.22185 0.02989 0.0
H312 H 0.43899 0.32529 0.01142 0.0
H313 H 0.37951 0.24956 -0.00063 0.0
H314 H 0.23193 0.35102 0.98717 0.0
H315 H 0.29201 0.42779 -0.00049 0.0
C316 C 0.1923 0.19058 0.96996 0.0
C317 C 0.19309 0.15714 -0.00853 0.0
C318 C 0.22687 0.23584 0.97024 0.0
C319 C 0.26365 0.24743 -0.00825 0.0
C320 C 0.26494 0.21352 0.01299 0.0
C321 C 0.22975 0.16918 0.01295 0.0
C322 C 0.39421 0.33174 0.00551 0.0
C323 C 0.36983 0.38231 0.0068 0.0
C324 C 0.36025 0.28837 -0.00136 0.0
C325 C 0.30113 0.29451 -0.00724 0.0
C326 C 0.27757 0.34546 -0.00838 0.0
C327 C 0.31183 0.38926 -0.00138 0.0
H328 H 0.24611 0.94028 0.96334 0.0
H329 H 0.18041 0.87519 0.03316 0.0
H330 H 0.30409 0.86186 0.95675 0.0
H331 H 0.23694 0.79494 0.02602 0.0
H332 H 0.37265 0.66492 0.0096 0.0
H333 H 0.32987 0.74929 0.02231 0.0
H334 H 0.27827 0.77622 0.94233 0.0
H335 H 0.32307 0.69449 0.92965 0.0
C336 C 0.24476 0.90932 0.9775 0.0
C337 C 0.20847 0.91364 -0.00135 0.0
C338 C 0.27755 0.86407 0.9736 0.0
C339 C 0.27403 0.82131 -0.00957 0.0
C340 C 0.24072 0.82704 0.01265 0.0
C341 C 0.20839 0.873 0.01679 0.0
C342 C 0.35248 0.6892 -0.00522 0.0
C343 C 0.35085 0.67248 0.96863 0.0
C344 C 0.32761 0.73735 0.00208 0.0
C345 C 0.30099 0.76995 0.98335 0.0
C346 C 0.29931 0.75287 0.95729 0.0
C347 C 0.32414 0.7052 0.95004 0.0
H348 H 0.91683 0.90983 0.96411 0.0
H349 H 0.97772 0.8962 0.04383 0.0
H350 H 0.84053 0.84523 0.97185 0.0
H351 H 0.9027 0.83247 0.05136 0.0
H352 H 0.80333 0.68549 0.05332 0.0
H353 H 0.87884 0.74036 0.03637 0.0
H354 H 0.74922 0.84116 0.00103 0.0
H355 H 0.67289 0.78536 0.01803 0.0
C356 C 0.91435 0.89265 0.98312 0.0
C357 C 0.9533 0.90796 0.00335 0.0
C358 C 0.87057 0.85608 0.98757 0.0
C359 C 0.86598 0.83364 0.01215 0.0
C360 C 0.90561 0.84851 0.03212 0.0
C361 C 0.94848 0.88527 0.02781 0.0
C362 C 0.79092 0.71899 0.04164 0.0
C363 C 0.73242 0.73193 0.03741 0.0
C364 C 0.83411 0.75032 0.03193 0.0
C365 C 0.81988 0.7955 0.01779 0.0
C366 C 0.76132 0.80648 0.01187 0.0
C367 C 0.71775 0.77477 0.02161 0.0
H368 H 0.93249 0.12603 0.94557 0.0
H369 H 0.92557 0.15468 0.02821 0.0
H370 H 0.84713 0.17929 0.93849 0.0
H371 H 0.83844 0.20885 0.02084 0.0
H372 H 0.66507 0.22503 0.93212 0.0
H373 H 0.74308 0.1688 0.9484 0.0
H374 H 0.80761 0.29572 -0.00239 0.0
H375 H 0.72832 0.35212 0.98144 0.0
C376 C 0.91279 0.14373 0.96232 0.0
C377 C 0.9358 0.13573 0.98752 0.0
C378 C 0.86344 0.17404 0.95822 0.0
C379 C 0.83547 0.19741 0.97914 0.0
C380 C 0.85909 0.191 0.00438 0.0
C381 C 0.90881 0.16007 0.00857 0.0
C382 C 0.69529 0.24058 0.94677 0.0
C383 C 0.69143 0.29303 0.95523 0.0
C384 C 0.73995 0.20851 0.95606 0.0
C385 C 0.78207 0.22829 0.97385 0.0
C386 C 0.77572 0.27952 0.98389 0.0
C387 C 0.73052 0.31174 0.97465 0.0
H388 H 0.57928 0.65862 0.46014 0.0
H389 H 0.5783 0.6413 0.54332 0.0
H390 H 0.64507 0.73327 0.46572 0.0
H391 H 0.6446 0.71463 0.5488 0.0
H392 H 0.72217 0.87404 0.55446 0.0
H393 H 0.64785 0.80855 0.5444 0.0
H394 H 0.74498 0.75239 0.47955 0.0
H395 H 0.81893 0.81888 0.48943 0.0
C396 C 0.5931 0.67069 0.47959 0.0
C397 C 0.57342 0.6441 0.50129 0.0
C398 C 0.63094 0.7133 0.48277 0.0
C399 C 0.64976 0.7302 0.50771 0.0
C400 C 0.63005 0.70343 0.52933 0.0
C401 C 0.59232 0.66103 0.52617 0.0
C402 C 0.72724 0.84805 0.53788 0.0
C403 C 0.77655 0.85106 0.5229 0.0
C404 C 0.68486 0.81039 0.53218 0.0
C405 C 0.691 0.77457 0.51147 0.0
C406 C 0.7388 0.77951 0.49557 0.0
C407 C 0.78115 0.81755 0.50121 0.0
H408 H 0.58275 0.37139 0.53126 0.0
H409 H 0.61604 0.42086 0.4534 0.0
H410 H 0.64216 0.29244 0.52428 0.0
H411 H 0.67395 0.34274 0.44658 0.0
H412 H 0.69617 0.17091 0.42957 0.0
H413 H 0.63858 0.24538 0.44393 0.0
H414 H 0.75145 0.26479 0.51166 0.0
H415 H 0.81022 0.19058 0.49705 0.0
C416 C 0.60354 0.36601 0.51294 0.0
C417 C 0.59408 0.402 0.49278 0.0
C418 C 0.63723 0.32085 0.50893 0.0
C419 C 0.66131 0.31111 0.48469 0.0
C420 C 0.6547 0.34874 0.46524 0.0
C421 C 0.62173 0.39365 0.46924 0.0
C422 C 0.70844 0.19063 0.44766 0.0
C423 C 0.75821 0.17529 0.46195 0.0
C424 C 0.67547 0.23319 0.45588 0.0
C425 C 0.69125 0.2612 0.47867 0.0
C426 C 0.73847 0.24374 0.49403 0.0
C427 C 0.77187 0.20117 0.48568 0.0
H428 H 0.37777 0.36199 0.52559 0.0
H429 H 0.31896 0.38537 0.44617 0.0
H430 H 0.32386 0.28077 0.52666 0.0
H431 H 0.26306 0.30296 0.44757 0.0
H432 H 0.11682 0.19948 0.49665 0.0
H433 H 0.17351 0.27186 0.47958 0.0
H434 H 0.3309 0.18971 0.50082 0.0
H435 H 0.27459 0.11784 0.51786 0.0
C436 C 0.35311 0.34984 0.50831 0.0
C437 C 0.35243 0.38021 0.4858 0.0
C438 C 0.32263 0.30299 0.50889 0.0
C439 C 0.28997 0.28541 0.4871 0.0
C440 C 0.28838 0.31573 0.46453 0.0
C441 C 0.3202 0.36262 0.46375 0.0
C442 C 0.16346 0.19606 0.49664 0.0
C443 C 0.19156 0.15372 0.50893 0.0
C444 C 0.1958 0.23734 0.48685 0.0
C445 C 0.2564 0.23644 0.48925 0.0
C446 C 0.28417 0.19138 0.49896 0.0
C447 C 0.25204 0.15041 0.50874 0.0
H448 H 0.32412 0.64758 0.52539 0.0
H449 H 0.30223 0.60582 0.4442 0.0
H450 H 0.2514 0.71699 0.5198 0.0
H451 H 0.23034 0.67472 0.43868 0.0
H452 H 0.19783 0.88009 0.48251 0.0
H453 H 0.25151 0.80205 0.49614 0.0
H454 H 0.13274 0.70452 0.45064 0.0
H455 H 0.07964 0.78286 0.43662 0.0
C456 C 0.30324 0.6527 0.50649 0.0
C457 C 0.31925 0.62157 0.48519 0.0
C458 C 0.26181 0.69248 0.50328 0.0
C459 C 0.23515 0.70129 0.4788 0.0
C460 C 0.24946 0.66854 0.45785 0.0
C461 C 0.29112 0.62932 0.46098 0.0
C462 C 0.18279 0.84188 0.47572 0.0
C463 C 0.13516 0.83753 0.45819 0.0
C464 C 0.21316 0.79716 0.48373 0.0
C465 C 0.19668 0.7472 0.47425 0.0
C466 C 0.14682 0.74261 0.45802 0.0
C467 C 0.1162 0.78735 0.45014 0.0
H468 H 0.15687 0.02298 0.14671 0.0
H469 H 0.00922 0.12564 0.13643 0.0
H470 H 0.15578 0.03806 0.19344 0.0
H471 H 0.0065 0.13877 0.18317 0.0
H472 H 0.0405 0.18412 0.26704 0.0
H473 H 0.05695 0.17806 0.22057 0.0
H474 H 0.09423 0.01244 0.22797 0.0
H475 H 0.07825 0.0186 0.27419 0.0
C476 C 0.12445 0.04905 0.1544 0.0
C477 C 0.0829 0.07284 0.13787 0.0
C478 C 0.12349 0.05729 0.18119 0.0
C479 C 0.08093 0.08945 0.19203 0.0
C480 C 0.04026 0.11423 0.17544 0.0
C481 C 0.04128 0.10607 0.14867 0.0
C482 C 0.05265 0.14658 0.2587 0.0
C483 C 0.05805 0.10186 0.27424 0.0
C484 C 0.06195 0.14306 0.23213 0.0
C485 C 0.07665 0.09472 0.22057 0.0
C486 C 0.08387 0.05044 0.2363 0.0
C487 C 0.07472 0.05398 0.26283 0.0
H488 H 0.01107 0.93517 0.85148 0.0
H489 H 0.14218 0.05526 0.84822 0.0
H490 H 0.01085 0.92556 0.80448 0.0
H491 H 0.14393 0.04385 0.8013 0.0
H492 H 0.07002 0.05547 0.71704 0.0
H493 H 0.0811 0.06282 0.76406 0.0
H494 H 0.07009 0.89391 0.76969 0.0
H495 H 0.05822 0.88674 0.72259 0.0
C496 C 0.03992 0.95943 0.84072 0.0
C497 C 0.07643 0.99613 0.85353 0.0
C498 C 0.04042 0.95339 0.81384 0.0
C499 C 0.07757 0.98381 0.79921 0.0
C500 C 0.11452 0.02014 0.81204 0.0
C501 C 0.11391 0.02628 0.83892 0.0
C502 C 0.07105 0.0199 0.72832 0.0
C503 C 0.06293 0.97057 0.71626 0.0
C504 C 0.0774 0.02407 0.75524 0.0
C505 C 0.07599 0.97896 0.77058 0.0
C506 C 0.0702 0.92944 0.75839 0.0
C507 C 0.06359 0.9253 0.73148 0.0
H508 H 0.35394 0.53609 0.63649 0.0
H509 H 0.50059 0.43095 0.63495 0.0
H510 H 0.34548 0.52053 0.68282 0.0
H511 H 0.49222 0.41561 0.68114 0.0
H512 H 0.507 0.46359 0.76707 0.0
H513 H 0.50887 0.47069 0.72031 0.0
H514 H 0.32364 0.4506 0.71479 0.0
H515 H 0.32168 0.44277 0.762 0.0
C516 C 0.38393 0.50926 0.64599 0.0
C517 C 0.42834 0.4852 0.6322 0.0
C518 C 0.37898 0.50026 0.67245 0.0
C519 C 0.41839 0.4671 0.68555 0.0
C520 C 0.46183 0.44204 0.67159 0.0
C521 C 0.46675 0.45098 0.6452 0.0
C522 C 0.46671 0.45954 0.75593 0.0
C523 C 0.41423 0.452 0.76823 0.0
C524 C 0.46782 0.46378 0.72911 0.0
C525 C 0.41647 0.46085 0.71393 0.0
C526 C 0.36383 0.45332 0.72611 0.0
C527 C 0.36272 0.44885 0.75307 0.0
H528 H 0.58899 0.46393 0.35881 0.0
H529 H 0.43231 0.54813 0.33772 0.0
H530 H 0.61064 0.45391 0.31309 0.0
H531 H 0.45363 0.53719 0.29203 0.0
H532 H 0.47481 0.45427 0.21493 0.0
H533 H 0.45876 0.46055 0.26112 0.0
H534 H 0.63507 0.51152 0.275 0.0
H535 H 0.65182 0.504 0.22845 0.0
C536 C 0.55946 0.48071 0.34444 0.0
C537 C 0.50889 0.50684 0.35183 0.0
C538 C 0.57187 0.47485 0.31832 0.0
C539 C 0.53367 0.49458 0.29915 0.0
C540 C 0.48333 0.52094 0.3065 0.0
C541 C 0.47108 0.52709 0.3326 0.0
C542 C 0.51062 0.46569 0.22784 0.0
C543 C 0.56472 0.47838 0.21814 0.0
C544 C 0.50112 0.46998 0.25423 0.0
C545 C 0.54548 0.48705 0.27148 0.0
C546 C 0.60022 0.49817 0.26201 0.0
C547 C 0.60971 0.49413 0.23546 0.0
loop_
_geom_bond_atom_site_label_1
_geom_bond_atom_site_label_2
_geom_bond_distance
_geom_bond_site_symmetry_2
_ccdc_geom_bond_type
C0 O16 1.251 . S
C0 O18 1.254 1_554 S
N1 C2 1.333 1_445 S
N1 C6 1.307 . S
N1 Zn7 2.020 . S
C2 N1 1.333 1_665 S
C2 C3 1.379 . S
C2 H20 0.952 . S
C3 C2 1.379 . S
C3 C4 1.390 1_665 S
C3 H30 0.949 . S
C4 C3 1.390 1_445 S
C4 C5 1.357 . S
C5 C4 1.357 . S
C5 C6 1.370 . S
C5 H31 0.950 . S
C6 N1 1.307 . S
C6 C5 1.370 . S
C6 H24 0.948 . S
Zn7 N1 2.020 . S
Zn7 O16 2.039 1_445 S
Zn7 O22 2.034 1_455 S
Zn7 O26 2.025 . S
Zn7 O28 2.024 1_545 S
C8 O27 1.246 1_554 S
C8 O28 1.249 . S
N9 C10 1.307 1_445 S
N9 C11 1.333 . S
N9 Zn15 2.020 . S
C10 N9 1.307 1_665 S
C10 C14 1.370 . S
C10 H21 0.948 . S
C11 N9 1.333 . S
C11 C12 1.379 . S
C11 H19 0.952 . S
C12 C11 1.379 . S
C12 C13 1.390 . S
C12 H32 0.949 . S
C13 C12 1.390 . S
C13 C14 1.357 1_445 S
C14 C10 1.370 . S
C14 C13 1.357 1_665 S
C14 H33 0.950 . S
Zn15 N9 2.020 . S
Zn15 O18 2.025 1_445 S
Zn15 O23 2.024 1_455 S
Zn15 O25 2.039 . S
Zn15 O27 2.034 1_545 S
O16 C0 1.251 . S
O16 Zn7 2.039 1_665 S
C17 O22 1.246 . S
C17 O23 1.249 1_554 S
O18 C0 1.254 1_556 S
O18 Zn15 2.025 1_665 S
H19 C11 0.952 . S
H20 C2 0.952 . S
H21 C10 0.948 . S
O22 Zn7 2.034 1_655 S
O22 C17 1.246 . S
O23 Zn15 2.024 1_655 S
O23 C17 1.249 1_556 S
H24 C6 0.948 . S
O25 Zn15 2.039 . S
O25 C29 1.251 1_556 S
O26 Zn7 2.025 . S
O26 C29 1.254 . S
O27 C8 1.246 1_556 S
O27 Zn15 2.034 1_565 S
O28 Zn7 2.024 1_565 S
O28 C8 1.249 . S
C29 O25 1.251 1_554 S
C29 O26 1.254 . S
H30 C3 0.949 . S
H31 C5 0.950 . S
H32 C12 0.949 . S
H33 C14 0.950 . S
C34 O50 1.251 . S
C34 O52 1.254 . S
N35 C36 1.333 . S
N35 C40 1.307 . S
N35 Zn41 2.020 . S
C36 N35 1.333 . S
C36 C37 1.379 . S
C36 H54 0.952 . S
C37 C36 1.379 . S
C37 C38 1.390 . S
C37 H64 0.949 . S
C38 C37 1.390 . S
C38 C39 1.357 . S
C39 C38 1.357 . S
C39 C40 1.370 . S
C39 H65 0.950 . S
C40 N35 1.307 . S
C40 C39 1.370 . S
C40 H58 0.948 . S
Zn41 N35 2.020 . S
Zn41 O50 2.039 . S
Zn41 O56 2.034 . S
Zn41 O60 2.025 . S
Zn41 O62 2.024 . S
C42 O61 1.246 . S
C42 O62 1.249 . S
N43 C44 1.307 . S
N43 C45 1.333 . S
N43 Zn49 2.020 . S
C44 N43 1.307 . S
C44 C48 1.370 . S
C44 H55 0.948 . S
C45 N43 1.333 . S
C45 C46 1.379 . S
C45 H53 0.952 . S
C46 C45 1.379 . S
C46 C47 1.390 . S
C46 H66 0.949 . S
C47 C46 1.390 . S
C47 C48 1.357 . S
C48 C44 1.370 . S
C48 C47 1.357 . S
C48 H67 0.950 . S
Zn49 N43 2.020 . S
Zn49 O52 2.025 . S
Zn49 O57 2.024 . S
Zn49 O59 2.039 . S
Zn49 O61 2.034 . S
O50 C34 1.251 . S
O50 Zn41 2.039 . S
C51 O56 1.246 . S
C51 O57 1.249 . S
O52 C34 1.254 . S
O52 Zn49 2.025 . S
H53 C45 0.952 . S
H54 C36 0.952 . S
H55 C44 0.948 . S
O56 Zn41 2.034 . S
O56 C51 1.246 . S
O57 Zn49 2.024 . S
O57 C51 1.249 . S
H58 C40 0.948 . S
O59 Zn49 2.039 . S
O59 C63 1.251 . S
O60 Zn41 2.025 . S
O60 C63 1.254 . S
O61 C42 1.246 . S
O61 Zn49 2.034 . S
O62 Zn41 2.024 . S
O62 C42 1.249 . S
C63 O59 1.251 . S
C63 O60 1.254 . S
H64 C37 0.949 . S
H65 C39 0.950 . S
H66 C46 0.949 . S
H67 C48 0.950 . S
C68 C69 1.391 . S
C68 C72 1.391 . S
C68 H110 0.948 . S
C69 C68 1.391 . S
C69 C70 1.391 . S
C70 C69 1.391 . S
C70 H126 0.947 . S
C70 C127 1.392 . S
C71 C72 1.391 . S
C71 C75 1.397 . S
C71 C127 1.419 . S
C72 C68 1.391 . S
C72 C71 1.391 . S
C72 C73 1.399 . S
C73 C72 1.399 . S
C73 C76 1.396 . S
C73 C85 1.453 1_565 S
C73 C86 1.684 1_455 S
H74 C98 0.948 . S
C75 C71 1.397 . S
C75 C76 1.394 . S
C75 C94 1.723 . S
C76 C73 1.396 . S
C76 C75 1.394 . S
C76 C106 1.723 1_465 S
H77 C100 0.947 . S
H78 C101 0.948 . S
H79 C107 0.982 . S
H80 C108 0.979 . S
H81 C108 0.980 . S
H82 C108 0.983 . S
H83 C107 0.979 . S
H84 C107 0.977 . S
C85 C73 1.453 1_545 S
C85 H114 0.982 . S
C85 H115 0.979 1_545 S
C85 H116 0.977 . S
C86 C73 1.684 1_655 S
C86 H111 0.979 . S
C86 H112 0.980 . S
C86 H113 0.983 1_655 S
C87 C88 1.391 1_465 S
C87 C92 1.391 . S
C87 H117 0.948 . S
C88 C87 1.391 1_645 S
C88 C89 1.391 . S
C89 C88 1.391 . S
C89 C90 1.392 . S
C89 H118 0.947 . S
C90 C89 1.392 . S
C90 C91 1.419 . S
C90 H119 0.948 . S
C91 C90 1.419 . S
C91 C92 1.391 1_645 S
C91 C95 1.397 . S
C92 C87 1.391 . S
C92 C91 1.391 1_465 S
C92 C93 1.399 . S
C93 C92 1.399 . S
C93 C94 1.396 . S
C93 C96 1.453 . S
C93 C97 1.684 . S
C94 C75 1.723 . S
C94 C93 1.396 . S
C94 C95 1.394 1_465 S
C95 C91 1.397 . S
C95 C94 1.394 1_645 S
C95 C105 1.723 . S
C96 C93 1.453 . S
C96 H120 0.982 . S
C96 H121 0.979 . S
C96 H122 0.977 . S
C97 C93 1.684 . S
C97 H123 0.979 . S
C97 H124 0.980 . S
C97 H125 0.983 . S
C98 H74 0.948 . S
C98 C99 1.391 . S
C98 C103 1.391 . S
C99 C98 1.391 . S
C99 C100 1.391 . S
C100 H77 0.947 . S
C100 C99 1.391 . S
C100 C101 1.392 . S
C101 H78 0.948 . S
C101 C100 1.392 . S
C101 C102 1.419 . S
C102 C101 1.419 . S
C102 C103 1.391 . S
C102 C106 1.397 . S
C103 C98 1.391 . S
C103 C102 1.391 . S
C103 C104 1.399 . S
C104 C103 1.399 . S
C104 C105 1.396 . S
C104 C107 1.453 . S
C104 C108 1.684 . S
C105 C95 1.723 . S
C105 C104 1.396 . S
C105 C106 1.394 . S
C106 C76 1.723 1_645 S
C106 C102 1.397 . S
C106 C105 1.394 . S
C107 H79 0.982 . S
C107 H83 0.979 . S
C107 H84 0.977 . S
C107 C104 1.453 . S
C108 H80 0.979 . S
C108 H81 0.980 . S
C108 H82 0.983 . S
C108 C104 1.684 . S
H109 C127 0.948 . S
H110 C68 0.948 . S
H111 C86 0.979 . S
H112 C86 0.980 . S
H113 C86 0.983 1_455 S
H114 C85 0.982 . S
H115 C85 0.979 1_565 S
H116 C85 0.977 . S
H117 C87 0.948 . S
H118 C89 0.947 . S
H119 C90 0.948 . S
H120 C96 0.982 . S
H121 C96 0.979 . S
H122 C96 0.977 . S
H123 C97 0.979 . S
H124 C97 0.980 . S
H125 C97 0.983 . S
H126 C70 0.947 . S
C127 C70 1.392 . S
C127 C71 1.419 . S
C127 H109 0.948 . S
C128 C129 1.391 . S
C128 C132 1.391 . S
C128 H170 0.948 . S
C129 C128 1.391 . S
C129 C130 1.391 . S
C130 C129 1.391 . S
C130 H186 0.947 . S
C130 C187 1.392 . S
C131 C132 1.391 . S
C131 C135 1.397 . S
C131 C187 1.419 . S
C132 C128 1.391 . S
C132 C131 1.391 . S
C132 C133 1.399 . S
C133 C132 1.399 . S
C133 C136 1.396 . S
C133 C145 1.453 . S
C133 C146 1.679 1_455 S
H134 C158 0.948 . S
C135 C131 1.397 . S
C135 C136 1.394 . S
C135 C154 1.723 . S
C136 C133 1.396 . S
C136 C135 1.394 . S
C136 C166 1.723 1_445 S
H137 C160 0.947 . S
H138 C161 0.948 . S
H139 C167 0.982 . S
H140 C168 0.979 . S
H141 C168 0.980 . S
H142 C168 0.983 . S
H143 C167 0.979 . S
H144 C167 0.977 . S
C145 C133 1.453 . S
C145 H174 0.982 1_545 S
C145 H175 0.979 . S
C145 H176 0.977 1_545 S
C146 C133 1.679 1_655 S
C146 H171 0.983 . S
C146 H172 0.984 . S
C146 H173 0.979 1_655 S
C147 C148 1.391 . S
C147 C152 1.391 . S
C147 H177 0.948 . S
C148 C147 1.391 . S
C148 C149 1.391 1_445 S
C149 C148 1.391 1_665 S
C149 C150 1.392 . S
C149 H178 0.947 . S
C150 C149 1.392 . S
C150 C151 1.419 1_655 S
C150 H179 0.948 . S
C151 C150 1.419 1_455 S
C151 C152 1.391 1_565 S
C151 C155 1.396 1_565 S
C152 C147 1.391 . S
C152 C151 1.391 1_545 S
C152 C153 1.399 . S
C153 C152 1.399 . S
C153 C154 1.396 . S
C153 C156 1.453 . S
C153 C157 1.684 . S
C154 C135 1.723 . S
C154 C153 1.396 . S
C154 C155 1.410 . S
C155 C151 1.396 1_545 S
C155 C154 1.410 . S
C155 C165 1.709 1_445 S
C156 C153 1.453 . S
C156 H180 0.982 . S
C156 H181 0.979 . S
C156 H182 0.977 . S
C157 C153 1.684 . S
C157 H183 0.979 . S
C157 H184 0.980 . S
C157 H185 0.983 . S
C158 H134 0.948 . S
C158 C159 1.391 . S
C158 C163 1.391 . S
C159 C158 1.391 . S
C159 C160 1.391 . S
C160 H137 0.947 . S
C160 C159 1.391 . S
C160 C161 1.392 . S
C161 H138 0.948 . S
C161 C160 1.392 . S
C161 C162 1.419 . S
C162 C161 1.419 . S
C162 C163 1.391 . S
C162 C166 1.397 . S
C163 C158 1.391 . S
C163 C162 1.391 . S
C163 C164 1.399 . S
C164 C163 1.399 . S
C164 C165 1.396 . S
C164 C167 1.453 . S
C164 C168 1.684 . S
C165 C155 1.709 1_665 S
C165 C164 1.396 . S
C165 C166 1.394 . S
C166 C136 1.723 1_665 S
C166 C162 1.397 . S
C166 C165 1.394 . S
C167 H139 0.982 . S
C167 H143 0.979 . S
C167 H144 0.977 . S
C167 C164 1.453 . S
C168 H140 0.979 . S
C168 H141 0.980 . S
C168 H142 0.983 . S
C168 C164 1.684 . S
H169 C187 0.948 . S
H170 C128 0.948 . S
H171 C146 0.983 . S
H172 C146 0.984 . S
H173 C146 0.979 1_455 S
H174 C145 0.982 1_565 S
H175 C145 0.979 . S
H176 C145 0.977 1_565 S
H177 C147 0.948 . S
H178 C149 0.947 . S
H179 C150 0.948 . S
H180 C156 0.982 . S
H181 C156 0.979 . S
H182 C156 0.977 . S
H183 C157 0.979 . S
H184 C157 0.980 . S
H185 C157 0.983 . S
H186 C130 0.947 . S
C187 C130 1.392 . S
C187 C131 1.419 . S
C187 H169 0.948 . S
C188 C189 1.406 . S
C188 C192 1.411 . S
C188 H230 0.914 1_556 S
C189 C188 1.406 . S
C189 C190 1.391 . S
C190 C189 1.391 . S
C190 H246 0.947 . S
C190 C247 1.392 . S
C191 C192 1.391 . S
C191 C195 1.397 . S
C191 C247 1.419 . S
C192 C188 1.411 . S
C192 C191 1.391 . S
C192 C193 1.399 . S
C193 C192 1.399 . S
C193 C196 1.396 . S
C193 C205 1.453 1_556 S
C193 C206 1.684 1_556 S
H194 C218 0.948 . S
C195 C191 1.397 . S
C195 C196 1.394 . S
C195 C214 1.723 . S
C196 C193 1.396 . S
C196 C195 1.394 . S
C196 C226 1.723 . S
H197 C220 0.947 . S
H198 C221 0.948 1_554 S
H199 C227 0.982 . S
H200 C228 0.979 . S
H201 C228 0.980 . S
H202 C228 0.983 . S
H203 C227 0.979 . S
H204 C227 0.977 . S
C205 C193 1.453 1_554 S
C205 H234 0.976 1_554 S
C205 H235 0.979 . S
C205 H236 0.977 . S
C206 C193 1.684 1_554 S
C206 H231 0.979 . S
C206 H232 0.980 . S
C206 H233 0.983 . S
C207 C208 1.391 . S
C207 C212 1.391 . S
C207 H237 0.948 . S
C208 C207 1.391 . S
C208 C209 1.391 . S
C209 C208 1.391 . S
C209 C210 1.392 . S
C209 H238 0.947 . S
C210 C209 1.392 . S
C210 C211 1.419 . S
C210 H239 0.948 . S
C211 C210 1.419 . S
C211 C212 1.391 . S
C211 C215 1.397 . S
C212 C207 1.391 . S
C212 C211 1.391 . S
C212 C213 1.399 . S
C213 C212 1.399 . S
C213 C214 1.396 . S
C213 C216 1.453 . S
C213 C217 1.684 . S
C214 C195 1.723 . S
C214 C213 1.396 . S
C214 C215 1.394 . S
C215 C211 1.397 . S
C215 C214 1.394 . S
C215 C225 1.723 . S
C216 C213 1.453 . S
C216 H240 0.982 . S
C216 H241 0.979 . S
C216 H242 0.977 . S
C217 C213 1.684 . S
C217 H243 0.979 . S
C217 H244 0.980 . S
C217 H245 0.983 . S
C218 H194 0.948 . S
C218 C219 1.391 . S
C218 C223 1.391 . S
C219 C218 1.391 . S
C219 C220 1.391 1_556 S
C220 H197 0.947 . S
C220 C219 1.391 1_554 S
C220 C221 1.392 1_554 S
C221 H198 0.948 1_556 S
C221 C220 1.392 1_556 S
C221 C222 1.419 . S
C222 C221 1.419 . S
C222 C223 1.391 . S
C222 C226 1.397 . S
C223 C218 1.391 . S
C223 C222 1.391 . S
C223 C224 1.399 . S
C224 C223 1.399 . S
C224 C225 1.396 . S
C224 C227 1.453 . S
C224 C228 1.684 . S
C225 C215 1.723 . S
C225 C224 1.396 . S
C225 C226 1.394 . S
C226 C196 1.723 . S
C226 C222 1.397 . S
C226 C225 1.394 . S
C227 H199 0.982 . S
C227 H203 0.979 . S
C227 H204 0.977 . S
C227 C224 1.453 . S
C228 H200 0.979 . S
C228 H201 0.980 . S
C228 H202 0.983 . S
C228 C224 1.684 . S
H229 C247 0.948 . S
H230 C188 0.914 1_554 S
H231 C206 0.979 . S
H232 C206 0.980 . S
H233 C206 0.983 . S
H234 C205 0.976 1_556 S
H235 C205 0.979 . S
H236 C205 0.977 . S
H237 C207 0.948 . S
H238 C209 0.947 . S
H239 C210 0.948 . S
H240 C216 0.982 . S
H241 C216 0.979 . S
H242 C216 0.977 . S
H243 C217 0.979 . S
H244 C217 0.980 . S
H245 C217 0.983 . S
H246 C190 0.947 . S
C247 C190 1.392 . S
C247 C191 1.419 . S
C247 H229 0.948 . S
C248 C249 1.391 . S
C248 C252 1.391 . S
C248 H290 0.948 1_554 S
C249 C248 1.391 . S
C249 C250 1.391 . S
C250 C249 1.391 . S
C250 H306 0.947 . S
C250 C307 1.392 . S
C251 C252 1.391 . S
C251 C255 1.397 . S
C251 C307 1.419 . S
C252 C248 1.391 . S
C252 C251 1.391 . S
C252 C253 1.399 . S
C253 C252 1.399 . S
C253 C256 1.396 . S
C253 C265 1.453 1_554 S
C253 C266 1.684 1_554 S
H254 C278 0.948 . S
C255 C251 1.397 . S
C255 C256 1.394 . S
C255 C274 1.723 . S
C256 C253 1.396 . S
C256 C255 1.394 . S
C256 C286 1.723 . S
H257 C280 0.947 . S
H258 C281 0.948 1_556 S
H259 C287 0.982 . S
H260 C288 0.979 . S
H261 C288 0.980 . S
H262 C288 0.983 . S
H263 C287 0.979 . S
H264 C287 0.977 . S
C265 C253 1.453 1_556 S
C265 H294 0.982 1_556 S
C265 H295 0.979 . S
C265 H296 0.977 . S
C266 C253 1.684 1_556 S
C266 H291 0.979 . S
C266 H292 0.980 . S
C266 H293 0.983 . S
C267 C268 1.391 . S
C267 C272 1.391 . S
C267 H297 0.948 . S
C268 C267 1.391 . S
C268 C269 1.391 . S
C269 C268 1.391 . S
C269 C270 1.392 . S
C269 H298 0.947 . S
C270 C269 1.392 . S
C270 C271 1.419 . S
C270 H299 0.948 . S
C271 C270 1.419 . S
C271 C272 1.391 . S
C271 C275 1.397 . S
C272 C267 1.391 . S
C272 C271 1.391 . S
C272 C273 1.399 . S
C273 C272 1.399 . S
C273 C274 1.396 . S
C273 C276 1.453 . S
C273 C277 1.684 . S
C274 C255 1.723 . S
C274 C273 1.396 . S
C274 C275 1.394 . S
C275 C271 1.397 . S
C275 C274 1.394 . S
C275 C285 1.723 . S
C276 C273 1.453 . S
C276 H300 0.982 . S
C276 H301 0.979 . S
C276 H302 0.977 . S
C277 C273 1.684 . S
C277 H303 0.979 . S
C277 H304 0.980 . S
C277 H305 0.983 . S
C278 H254 0.948 . S
C278 C279 1.391 . S
C278 C283 1.391 . S
C279 C278 1.391 . S
C279 C280 1.391 1_554 S
C280 H257 0.947 . S
C280 C279 1.391 1_556 S
C280 C281 1.392 1_556 S
C281 H258 0.948 1_554 S
C281 C280 1.392 1_554 S
C281 C282 1.419 . S
C282 C281 1.419 . S
C282 C283 1.391 . S
C282 C286 1.397 . S
C283 C278 1.391 . S
C283 C282 1.391 . S
C283 C284 1.399 . S
C284 C283 1.399 . S
C284 C285 1.396 . S
C284 C287 1.453 . S
C284 C288 1.684 . S
C285 C275 1.723 . S
C285 C284 1.396 . S
C285 C286 1.394 . S
C286 C256 1.723 . S
C286 C282 1.397 . S
C286 C285 1.394 . S
C287 H259 0.982 . S
C287 H263 0.979 . S
C287 H264 0.977 . S
C287 C284 1.453 . S
C288 H260 0.979 . S
C288 H261 0.980 . S
C288 H262 0.983 . S
C288 C284 1.684 . S
H289 C307 0.948 . S
H290 C248 0.948 1_556 S
H291 C266 0.979 . S
H292 C266 0.980 . S
H293 C266 0.983 . S
H294 C265 0.982 1_554 S
H295 C265 0.979 . S
H296 C265 0.977 . S
H297 C267 0.948 . S
H298 C269 0.947 . S
H299 C270 0.948 . S
H300 C276 0.982 . S
H301 C276 0.979 . S
H302 C276 0.977 . S
H303 C277 0.979 . S
H304 C277 0.980 . S
H305 C277 0.983 . S
H306 C250 0.947 . S
C307 C250 1.392 . S
C307 C251 1.419 . S
C307 H289 0.948 . S
H308 C316 0.950 . S
H309 C321 0.950 . S
H310 C318 0.950 . S
H311 C320 0.950 . S
H312 C322 0.950 . S
H313 C324 0.950 . S
H314 C326 0.950 . S
H315 C327 0.950 . S
C316 H308 0.950 . S
C316 C317 1.386 1_556 S
C316 C318 1.391 . S
C317 C316 1.386 1_554 S
C317 C321 1.393 . S
C318 H310 0.950 . S
C318 C316 1.391 . S
C318 C319 1.400 1_556 S
C319 C318 1.400 1_554 S
C319 C320 1.398 . S
C319 C325 1.491 . S
C320 H311 0.950 . S
C320 C319 1.398 . S
C320 C321 1.391 . S
C321 H309 0.950 . S
C321 C317 1.393 . S
C321 C320 1.391 . S
C322 H312 0.950 . S
C322 C323 1.386 . S
C322 C324 1.391 . S
C323 C322 1.386 . S
C323 C327 1.393 1_554 S
C324 H313 0.950 . S
C324 C322 1.391 . S
C324 C325 1.400 . S
C325 C319 1.491 . S
C325 C324 1.400 . S
C325 C326 1.398 1_554 S
C326 H314 0.950 . S
C326 C325 1.398 1_556 S
C326 C327 1.391 . S
C327 H315 0.950 . S
C327 C323 1.393 1_556 S
C327 C326 1.391 . S
H328 C336 0.950 . S
H329 C341 0.950 . S
H330 C338 0.950 . S
H331 C340 0.950 . S
H332 C342 0.950 . S
H333 C344 0.950 . S
H334 C346 0.950 . S
H335 C347 0.950 . S
C336 H328 0.950 . S
C336 C337 1.386 1_556 S
C336 C338 1.391 . S
C337 C336 1.386 1_554 S
C337 C341 1.393 . S
C338 H330 0.950 . S
C338 C336 1.391 . S
C338 C339 1.392 1_556 S
C339 C338 1.392 1_554 S
C339 C340 1.411 . S
C339 C345 1.487 1_554 S
C340 H331 0.950 . S
C340 C339 1.411 . S
C340 C341 1.391 . S
C341 H329 0.950 . S
C341 C337 1.393 . S
C341 C340 1.391 . S
C342 H332 0.950 . S
C342 C343 1.386 1_554 S
C342 C344 1.391 . S
C343 C342 1.386 1_556 S
C343 C347 1.393 . S
C344 H333 0.950 . S
C344 C342 1.391 . S
C344 C345 1.391 1_554 S
C345 C339 1.487 1_556 S
C345 C344 1.391 1_556 S
C345 C346 1.413 . S
C346 H334 0.950 . S
C346 C345 1.413 . S
C346 C347 1.391 . S
C347 H335 0.950 . S
C347 C343 1.393 . S
C347 C346 1.391 . S
H348 C356 0.950 . S
H349 C361 0.950 . S
H350 C358 0.950 . S
H351 C360 0.950 . S
H352 C362 0.950 . S
H353 C364 0.950 . S
H354 C366 0.950 . S
H355 C367 0.950 . S
C356 H348 0.950 . S
C356 C357 1.386 1_556 S
C356 C358 1.391 . S
C357 C356 1.386 1_554 S
C357 C361 1.393 . S
C358 H350 0.950 . S
C358 C356 1.391 . S
C358 C359 1.400 1_556 S
C359 C358 1.400 1_554 S
C359 C360 1.398 . S
C359 C365 1.491 . S
C360 H351 0.950 . S
C360 C359 1.398 . S
C360 C361 1.391 . S
C361 H349 0.950 . S
C361 C357 1.393 . S
C361 C360 1.391 . S
C362 H352 0.950 . S
C362 C363 1.386 . S
C362 C364 1.391 . S
C363 C362 1.386 . S
C363 C367 1.393 1_554 S
C364 H353 0.950 . S
C364 C362 1.391 . S
C364 C365 1.400 . S
C365 C359 1.491 . S
C365 C364 1.400 . S
C365 C366 1.398 1_554 S
C366 H354 0.950 . S
C366 C365 1.398 1_556 S
C366 C367 1.391 . S
C367 H355 0.950 . S
C367 C363 1.393 1_556 S
C367 C366 1.391 . S
H368 C376 0.950 . S
H369 C381 0.950 . S
H370 C378 0.950 . S
H371 C380 0.950 . S
H372 C382 0.950 . S
H373 C384 0.950 . S
H374 C386 0.950 . S
H375 C387 0.950 . S
C376 H368 0.950 . S
C376 C377 1.386 1_556 S
C376 C378 1.391 . S
C377 C376 1.386 1_554 S
C377 C381 1.393 . S
C378 H370 0.950 . S
C378 C376 1.391 . S
C378 C379 1.382 1_556 S
C379 C378 1.382 1_554 S
C379 C380 1.416 . S
C379 C385 1.491 . S
C380 H371 0.950 . S
C380 C379 1.416 . S
C380 C381 1.391 . S
C381 H369 0.950 . S
C381 C377 1.393 . S
C381 C380 1.391 . S
C382 H372 0.950 . S
C382 C383 1.380 1_554 S
C382 C384 1.391 . S
C383 C382 1.380 1_556 S
C383 C387 1.399 . S
C384 H373 0.950 . S
C384 C382 1.391 . S
C384 C385 1.419 . S
C385 C379 1.491 . S
C385 C384 1.419 . S
C385 C386 1.381 1_554 S
C386 H374 0.950 . S
C386 C385 1.381 1_556 S
C386 C387 1.391 . S
C387 H375 0.950 . S
C387 C383 1.399 . S
C387 C386 1.391 . S
H388 C396 0.950 . S
H389 C401 0.950 . S
H390 C398 0.950 . S
H391 C400 0.950 . S
H392 C402 0.950 . S
H393 C404 0.950 . S
H394 C406 0.950 . S
H395 C407 0.950 . S
C396 H388 0.950 . S
C396 C397 1.386 . S
C396 C398 1.391 . S
C397 C396 1.386 . S
C397 C401 1.393 . S
C398 H390 0.950 . S
C398 C396 1.391 . S
C398 C399 1.400 . S
C399 C398 1.400 . S
C399 C400 1.398 . S
C399 C405 1.491 . S
C400 H391 0.950 . S
C400 C399 1.398 . S
C400 C401 1.391 . S
C401 H389 0.950 . S
C401 C397 1.393 . S
C401 C400 1.391 . S
C402 H392 0.950 . S
C402 C403 1.386 . S
C402 C404 1.391 . S
C403 C402 1.386 . S
C403 C407 1.393 . S
C404 H393 0.950 . S
C404 C402 1.391 . S
C404 C405 1.400 . S
C405 C399 1.491 . S
C405 C404 1.400 . S
C405 C406 1.398 . S
C406 H394 0.950 . S
C406 C405 1.398 . S
C406 C407 1.391 . S
C407 H395 0.950 . S
C407 C403 1.393 . S
C407 C406 1.391 . S
H408 C416 0.950 . S
H409 C421 0.950 . S
H410 C418 0.950 . S
H411 C420 0.950 . S
H412 C422 0.950 . S
H413 C424 0.950 . S
H414 C426 0.950 . S
H415 C427 0.950 . S
C416 H408 0.950 . S
C416 C417 1.386 . S
C416 C418 1.391 . S
C417 C416 1.386 . S
C417 C421 1.393 . S
C418 H410 0.950 . S
C418 C416 1.391 . S
C418 C419 1.400 . S
C419 C418 1.400 . S
C419 C420 1.398 . S
C419 C425 1.491 . S
C420 H411 0.950 . S
C420 C419 1.398 . S
C420 C421 1.391 . S
C421 H409 0.950 . S
C421 C417 1.393 . S
C421 C420 1.391 . S
C422 H412 0.950 . S
C422 C423 1.386 . S
C422 C424 1.391 . S
C423 C422 1.386 . S
C423 C427 1.393 . S
C424 H413 0.950 . S
C424 C422 1.391 . S
C424 C425 1.400 . S
C425 C419 1.491 . S
C425 C424 1.400 . S
C425 C426 1.398 . S
C426 H414 0.950 . S
C426 C425 1.398 . S
C426 C427 1.391 . S
C427 H415 0.950 . S
C427 C423 1.393 . S
C427 C426 1.391 . S
H428 C436 0.950 . S
H429 C441 0.950 . S
H430 C438 0.950 . S
H431 C440 0.950 . S
H432 C442 0.950 . S
H433 C444 0.950 . S
H434 C446 0.950 . S
H435 C447 0.950 . S
C436 H428 0.950 . S
C436 C437 1.386 . S
C436 C438 1.391 . S
C437 C436 1.386 . S
C437 C441 1.393 . S
C438 H430 0.950 . S
C438 C436 1.391 . S
C438 C439 1.400 . S
C439 C438 1.400 . S
C439 C440 1.398 . S
C439 C445 1.491 . S
C440 H431 0.950 . S
C440 C439 1.398 . S
C440 C441 1.391 . S
C441 H429 0.950 . S
C441 C437 1.393 . S
C441 C440 1.391 . S
C442 H432 0.950 . S
C442 C443 1.386 . S
C442 C444 1.391 . S
C443 C442 1.386 . S
C443 C447 1.393 . S
C444 H433 0.950 . S
C444 C442 1.391 . S
C444 C445 1.400 . S
C445 C439 1.491 . S
C445 C444 1.400 . S
C445 C446 1.398 . S
C446 H434 0.950 . S
C446 C445 1.398 . S
C446 C447 1.391 . S
C447 H435 0.950 . S
C447 C443 1.393 . S
C447 C446 1.391 . S
H448 C456 0.950 . S
H449 C461 0.950 . S
H450 C458 0.950 . S
H451 C460 0.950 . S
H452 C462 0.950 . S
H453 C464 0.950 . S
H454 C466 0.950 . S
H455 C467 0.950 . S
C456 H448 0.950 . S
C456 C457 1.386 . S
C456 C458 1.391 . S
C457 C456 1.386 . S
C457 C461 1.393 . S
C458 H450 0.950 . S
C458 C456 1.391 . S
C458 C459 1.400 . S
C459 C458 1.400 . S
C459 C460 1.398 . S
C459 C465 1.491 . S
C460 H451 0.950 . S
C460 C459 1.398 . S
C460 C461 1.391 . S
C461 H449 0.950 . S
C461 C457 1.393 . S
C461 C460 1.391 . S
C462 H452 0.950 . S
C462 C463 1.386 . S
C462 C464 1.391 . S
C463 C462 1.386 . S
C463 C467 1.393 . S
C464 H453 0.950 . S
C464 C462 1.391 . S
C464 C465 1.400 . S
C465 C459 1.491 . S
C465 C464 1.400 . S
C465 C466 1.398 . S
C466 H454 0.950 . S
C466 C465 1.398 . S
C466 C467 1.391 . S
C467 H455 0.950 . S
C467 C463 1.393 . S
C467 C466 1.391 . S
H468 C476 0.950 . S
H469 C481 0.950 . S
H470 C478 0.950 . S
H471 C480 0.950 . S
H472 C482 0.950 . S
H473 C484 0.950 . S
H474 C486 0.950 . S
H475 C487 0.950 . S
C476 H468 0.950 . S
C476 C477 1.386 1_565 S
C476 C478 1.391 . S
C477 C476 1.386 1_545 S
C477 C481 1.393 1_455 S
C478 H470 0.950 . S
C478 C476 1.391 . S
C478 C479 1.400 1_565 S
C479 C478 1.400 1_545 S
C479 C480 1.398 1_455 S
C479 C485 1.491 . S
C480 H471 0.950 . S
C480 C479 1.398 1_655 S
C480 C481 1.391 . S
C481 H469 0.950 . S
C481 C477 1.393 1_655 S
C481 C480 1.391 . S
C482 H472 0.950 . S
C482 C483 1.389 . S
C482 C484 1.391 . S
C483 C482 1.389 . S
C483 C487 1.389 1_645 S
C484 H473 0.950 . S
C484 C482 1.391 . S
C484 C485 1.400 1_655 S
C485 C479 1.491 . S
C485 C484 1.400 1_455 S
C485 C486 1.398 1_545 S
C486 H474 0.950 . S
C486 C485 1.398 1_565 S
C486 C487 1.391 . S
C487 H475 0.950 . S
C487 C483 1.389 1_465 S
C487 C486 1.391 . S
H488 C496 0.950 1_655 S
H489 C501 0.950 . S
H490 C498 0.950 1_655 S
H491 C500 0.950 . S
H492 C502 0.950 . S
H493 C504 0.950 . S
H494 C506 0.950 . S
H495 C507 0.950 . S
C496 H488 0.950 1_455 S
C496 C497 1.386 1_565 S
C496 C498 1.391 . S
C497 C496 1.386 1_545 S
C497 C501 1.393 . S
C498 H490 0.950 1_455 S
C498 C496 1.391 . S
C498 C499 1.400 1_565 S
C499 C498 1.400 1_545 S
C499 C500 1.398 . S
C499 C505 1.491 . S
C500 H491 0.950 . S
C500 C499 1.398 . S
C500 C501 1.391 . S
C501 H489 0.950 . S
C501 C497 1.393 . S
C501 C500 1.391 . S
C502 H492 0.950 . S
C502 C503 1.386 . S
C502 C504 1.391 . S
C503 C502 1.386 . S
C503 C507 1.393 1_545 S
C504 H493 0.950 . S
C504 C502 1.391 . S
C504 C505 1.400 . S
C505 C499 1.491 . S
C505 C504 1.400 . S
C505 C506 1.398 1_545 S
C506 H494 0.950 . S
C506 C505 1.398 1_565 S
C506 C507 1.391 . S
C507 H495 0.950 . S
C507 C503 1.393 1_565 S
C507 C506 1.391 . S
H508 C516 0.950 . S
H509 C521 0.950 . S
H510 C518 0.950 . S
H511 C520 0.950 . S
H512 C522 0.950 . S
H513 C524 0.950 . S
H514 C526 0.950 . S
H515 C527 0.950 . S
C516 H508 0.950 . S
C516 C517 1.386 . S
C516 C518 1.391 . S
C517 C516 1.386 . S
C517 C521 1.393 . S
C518 H510 0.950 . S
C518 C516 1.391 . S
C518 C519 1.400 . S
C519 C518 1.400 . S
C519 C520 1.398 . S
C519 C525 1.491 . S
C520 H511 0.950 . S
C520 C519 1.398 . S
C520 C521 1.391 . S
C521 H509 0.950 . S
C521 C517 1.393 . S
C521 C520 1.391 . S
C522 H512 0.950 . S
C522 C523 1.386 . S
C522 C524 1.391 . S
C523 C522 1.386 . S
C523 C527 1.393 . S
C524 H513 0.950 . S
C524 C522 1.391 . S
C524 C525 1.400 . S
C525 C519 1.491 . S
C525 C524 1.400 . S
C525 C526 1.398 . S
C526 H514 0.950 . S
C526 C525 1.398 . S
C526 C527 1.391 . S
C527 H515 0.950 . S
C527 C523 1.393 . S
C527 C526 1.391 . S
H528 C536 0.950 . S
H529 C541 0.950 . S
H530 C538 0.950 . S
H531 C540 0.950 . S
H532 C542 0.950 . S
H533 C544 0.950 . S
H534 C546 0.950 . S
H535 C547 0.950 . S
C536 H528 0.950 . S
C536 C537 1.386 . S
C536 C538 1.391 . S
C537 C536 1.386 . S
C537 C541 1.393 . S
C538 H530 0.950 . S
C538 C536 1.391 . S
C538 C539 1.400 . S
C539 C538 1.400 . S
C539 C540 1.398 . S
C539 C545 1.491 . S
C540 H531 0.950 . S
C540 C539 1.398 . S
C540 C541 1.391 . S
C541 H529 0.950 . S
C541 C537 1.393 . S
C541 C540 1.391 . S
C542 H532 0.950 . S
C542 C543 1.386 . S
C542 C544 1.391 . S
C543 C542 1.386 . S
C543 C547 1.393 . S
C544 H533 0.950 . S
C544 C542 1.391 . S
C544 C545 1.400 . S
C545 C539 1.491 . S
C545 C544 1.400 . S
C545 C546 1.398 . S
C546 H534 0.950 . S
C546 C545 1.398 . S
C546 C547 1.391 . S
C547 H535 0.950 . S
C547 C543 1.393 . S
C547 C546 1.391 . S
C323 C279 1.486 . S
C317 C29 1.495 . S
C337 C8 1.477 . S
C343 C219 1.464 . S
C357 C0 1.467 . S
C363 C249 1.337 . S
C377 C17 1.480 . S
C383 C189 1.386 . S
C397 C63 1.496 . S
C403 C159 1.480 . S
C417 C42 1.478 . S
C423 C99 1.467 . S
C443 C129 1.367 . S
C437 C34 1.466 . S
C463 C69 1.351 . S
C457 C51 1.488 . S
C477 C4 1.482 . S
C483 C88 1.461 . S
C497 C13 1.482 . S
C503 C148 1.464 . S
C523 C208 1.466 . S
C517 C38 1.486 . S
C537 C47 1.481 . S
C543 C268 1.463 . S
