# Generated by pormake.
# Topology the, (3,8)-cn, num edge types: 1
# Building blocks:
#     Node 0, Type 0, BuildingBlock: ESEHIV_clean_linker_0, # of connection points: 3
#     Node 1, Type 0, BuildingBlock: ESEHIV_clean_linker_0, # of connection points: 3
#     Node 2, Type 0, BuildingBlock: ESEHIV_clean_linker_0, # of connection points: 3
#     Node 3, Type 0, BuildingBlock: ESEHIV_clean_linker_0, # of connection points: 3
#     Node 4, Type 0, BuildingBlock: ESEHIV_clean_linker_0, # of connection points: 3
#     Node 5, Type 0, BuildingBlock: ESEHIV_clean_linker_0, # of connection points: 3
#     Node 6, Type 0, BuildingBlock: ESEHIV_clean_linker_0, # of connection points: 3
#     Node 7, Type 0, BuildingBlock: ESEHIV_clean_linker_0, # of connection points: 3
#     Node 8, Type 1, BuildingBlock: GIZVER_clean_sbu_0, # of connection points: 8
#     Node 9, Type 1, BuildingBlock: GIZVER_clean_sbu_0, # of connection points: 8
#     Node 10, Type 1, BuildingBlock: GIZVER_clean_sbu_0, # of connection points: 8
#     Edge 11, Type (0, 1), BuildingBlock: OJICUG_clean_linker_0, # of connection points: 2
#     Edge 12, Type (0, 1), BuildingBlock: OJICUG_clean_linker_0, # of connection points: 2
#     Edge 13, Type (0, 1), BuildingBlock: OJICUG_clean_linker_0, # of connection points: 2
#     Edge 14, Type (0, 1), BuildingBlock: OJICUG_clean_linker_0, # of connection points: 2
#     Edge 15, Type (0, 1), BuildingBlock: OJICUG_clean_linker_0, # of connection points: 2
#     Edge 16, Type (0, 1), BuildingBlock: OJICUG_clean_linker_0, # of connection points: 2
#     Edge 17, Type (0, 1), BuildingBlock: OJICUG_clean_linker_0, # of connection points: 2
#     Edge 18, Type (0, 1), BuildingBlock: OJICUG_clean_linker_0, # of connection points: 2
#     Edge 19, Type (0, 1), BuildingBlock: OJICUG_clean_linker_0, # of connection points: 2
#     Edge 20, Type (0, 1), BuildingBlock: OJICUG_clean_linker_0, # of connection points: 2
#     Edge 21, Type (0, 1), BuildingBlock: OJICUG_clean_linker_0, # of connection points: 2
#     Edge 22, Type (0, 1), BuildingBlock: OJICUG_clean_linker_0, # of connection points: 2
#     Edge 23, Type (0, 1), BuildingBlock: OJICUG_clean_linker_0, # of connection points: 2
#     Edge 24, Type (0, 1), BuildingBlock: OJICUG_clean_linker_0, # of connection points: 2
#     Edge 25, Type (0, 1), BuildingBlock: OJICUG_clean_linker_0, # of connection points: 2
#     Edge 26, Type (0, 1), BuildingBlock: OJICUG_clean_linker_0, # of connection points: 2
#     Edge 27, Type (0, 1), BuildingBlock: OJICUG_clean_linker_0, # of connection points: 2
#     Edge 28, Type (0, 1), BuildingBlock: OJICUG_clean_linker_0, # of connection points: 2
#     Edge 29, Type (0, 1), BuildingBlock: OJICUG_clean_linker_0, # of connection points: 2
#     Edge 30, Type (0, 1), BuildingBlock: OJICUG_clean_linker_0, # of connection points: 2
#     Edge 31, Type (0, 1), BuildingBlock: OJICUG_clean_linker_0, # of connection points: 2
#     Edge 32, Type (0, 1), BuildingBlock: OJICUG_clean_linker_0, # of connection points: 2
#     Edge 33, Type (0, 1), BuildingBlock: OJICUG_clean_linker_0, # of connection points: 2
#     Edge 34, Type (0, 1), BuildingBlock: OJICUG_clean_linker_0, # of connection points: 2
# Relax obj value: 0.055
# Max RMSD: 0.137
# Mean RMSD: 0.083
data_MOF--net-the--node1-GIZVER_clean_sbu_0--node2-ESEHIV_clean_linker_0--edge1-OJICUG_clean_linker_0
_symmetry_space_group_name_H-M    P1
_symmetry_Int_Tables_number       1
_symmetry_cell_setting            triclinic
loop_
_symmetry_equiv_pos_as_xyz
'x, y, z'
_cell_length_a     28.599241
_cell_length_b     27.192074
_cell_length_c     24.738609
_cell_angle_alpha  86.544733
_cell_angle_beta   99.326204
_cell_angle_gamma 109.6371
loop_
_atom_site_label
_atom_site_type_symbol
_atom_site_fract_x
_atom_site_fract_y
_atom_site_fract_z
_atom_type_partial_charge
H0 H 0.28357 0.39038 0.35245 0.0
H1 H 0.38569 0.30379 0.3671 0.0
H2 H 0.27272 0.26739 0.47295 0.0
C3 C 0.29698 0.35992 0.3723 0.0
C4 C 0.27424 0.33074 0.41536 0.0
C5 C 0.33711 0.35039 0.35493 0.0
C6 C 0.35485 0.3117 0.38101 0.0
C7 C 0.33138 0.28129 0.42307 0.0
C8 C 0.29057 0.29039 0.43999 0.0
H9 H 0.74778 0.28809 0.38397 0.0
H10 H 0.75449 0.41536 0.27112 0.0
H11 H 0.61787 0.28462 0.26734 0.0
C12 C 0.72934 0.30521 0.35014 0.0
C13 C 0.67949 0.27836 0.32661 0.0
C14 C 0.75594 0.35525 0.33171 0.0
C15 C 0.73368 0.37718 0.28574 0.0
C16 C 0.684 0.35081 0.2605 0.0
C17 C 0.65729 0.30244 0.28274 0.0
H18 H 0.67781 0.77594 0.26809 0.0
H19 H 0.78759 0.69816 0.28694 0.0
H20 H 0.79231 0.8047 0.41034 0.0
C21 C 0.71199 0.77109 0.29012 0.0
C22 C 0.7341 0.79703 0.34034 0.0
C23 C 0.7307 0.73492 0.27091 0.0
C24 C 0.77407 0.72752 0.30034 0.0
C25 C 0.7968 0.7531 0.35012 0.0
C26 C 0.77683 0.78788 0.37003 0.0
H27 H 0.2868 0.72896 0.3976 0.0
H28 H 0.40886 0.74385 0.31062 0.0
H29 H 0.27499 0.61015 0.283 0.0
C30 C 0.30159 0.71418 0.36691 0.0
C31 C 0.27351 0.66609 0.34096 0.0
C32 C 0.34982 0.74298 0.35512 0.0
C33 C 0.37097 0.72258 0.31818 0.0
C34 C 0.3447 0.67382 0.29316 0.0
C35 C 0.29542 0.64703 0.30322 0.0
H36 H 0.33877 0.7514 0.65751 0.0
H37 H 0.32037 0.62849 0.77844 0.0
H38 H 0.45422 0.76362 0.79524 0.0
C39 C 0.35245 0.73614 0.69602 0.0
C40 C 0.39993 0.76394 0.72464 0.0
C41 C 0.32315 0.68752 0.7154 0.0
C42 C 0.34218 0.6665 0.76433 0.0
C43 C 0.39012 0.69344 0.7935 0.0
C44 C 0.41752 0.74254 0.77362 0.0
H45 H 0.28901 0.34492 0.7633 0.0
H46 H 0.39887 0.26726 0.78197 0.0
H47 H 0.28437 0.23859 0.63975 0.0
C48 C 0.30251 0.31554 0.74989 0.0
C49 C 0.27984 0.29006 0.70005 0.0
C50 C 0.34591 0.30817 0.77926 0.0
C51 C 0.36464 0.27205 0.76001 0.0
C52 C 0.34252 0.24615 0.70976 0.0
C53 C 0.29981 0.25532 0.6801 0.0
H54 H 0.66913 0.30264 0.74329 0.0
H55 H 0.79338 0.30326 0.66729 0.0
H56 H 0.80233 0.43828 0.75721 0.0
C57 C 0.70737 0.32218 0.73585 0.0
C58 C 0.73405 0.37286 0.75632 0.0
C59 C 0.7286 0.29755 0.70319 0.0
C60 C 0.77763 0.32308 0.69237 0.0
C61 C 0.80519 0.37409 0.71148 0.0
C62 C 0.78299 0.39833 0.7441 0.0
H63 H 0.69152 0.73867 0.68146 0.0
H64 H 0.79325 0.65151 0.69738 0.0
H65 H 0.8052 0.7744 0.57661 0.0
C66 C 0.72236 0.73052 0.66782 0.0
C67 C 0.74616 0.76076 0.62589 0.0
C68 C 0.73982 0.69177 0.69424 0.0
C69 C 0.78002 0.682 0.67729 0.0
C70 C 0.80312 0.71109 0.63438 0.0
C71 C 0.78705 0.75147 0.60944 0.0
Co72 Co 0.12401 0.45887 0.55887 0.0
Co73 Co 0.06442 0.43968 0.46245 0.0
Co74 Co 0.03914 0.52193 0.52375 0.0
O75 O 0.05629 0.45648 0.53228 0.0
H76 H 0.03134 0.42793 0.54749 0.0
O77 O 1.02177 0.58717 0.51621 0.0
Co78 Co 0.95394 0.58487 0.48941 0.0
Co79 Co 1.01258 0.60184 0.58717 0.0
H80 H 0.04696 0.61613 0.5018 0.0
O81 O 0.07156 0.37574 0.4459 0.0
O82 O 0.13112 0.44677 0.48407 0.0
O83 O 0.0683 0.49274 0.40613 0.0
O84 O 0.08653 0.55415 0.4686 0.0
O85 O 0.98264 0.4877 0.46295 0.0
O86 O 0.89392 0.58924 0.46462 0.0
O87 O 0.96848 0.65423 0.47341 0.0
O88 O 0.92892 0.51195 0.49975 0.0
O89 O 0.9915 0.48928 0.57809 0.0
O90 O 1.00654 0.54732 0.64315 0.0
O91 O 0.94623 0.59562 0.56441 0.0
O92 O 1.00568 0.66558 0.60478 0.0
C93 C 0.15807 0.40569 0.59021 0.0
C94 C 0.14104 0.56045 0.58052 0.0
C95 C 0.09042 0.53954 0.42184 0.0
C96 C 0.11847 0.40106 0.46272 0.0
C97 C 0.91973 0.63823 0.45896 0.0
C98 C 0.93733 0.48351 0.46626 0.0
C99 C 0.98565 0.50116 0.62514 0.0
C100 C 0.95888 0.64089 0.58676 0.0
O101 O 0.18406 0.45449 0.58366 0.0
O102 O 0.10931 0.38981 0.57609 0.0
O103 O 0.0958 0.55622 0.58442 0.0
O104 O 0.14903 0.53157 0.54717 0.0
Co105 Co 0.5884 0.93469 0.48757 0.0
Co106 Co 0.62222 0.97535 0.58602 0.0
Co107 Co 0.53912 0.02147 0.52681 0.0
O108 O 0.59833 1.00061 0.51968 0.0
H109 H 0.62506 0.02874 0.50645 0.0
O110 O 0.47978 0.04247 0.53269 0.0
Co111 Co 0.48914 0.10854 0.564 0.0
Co112 Co 0.45772 0.06817 0.46469 0.0
H113 H 0.45274 1.01433 0.54535 0.0
O114 O 0.68625 0.96876 0.59987 0.0
O115 O 0.61501 0.91097 0.55852 0.0
O116 O 0.57893 0.95854 0.64115 0.0
O117 O 0.51321 0.96604 0.58369 0.0
O118 O 0.58255 0.07286 0.58563 0.0
O119 O 0.49276 0.16694 0.59477 0.0
O120 O 0.42763 0.09165 0.58552 0.0
O121 O 0.55487 0.13502 0.5476 0.0
O122 O 0.56541 0.07674 0.47056 0.0
O123 O 0.50238 0.08537 0.40967 0.0
O124 O 0.46397 0.13225 0.4922 0.0
O125 O 0.39365 0.07458 0.44898 0.0
C126 C 0.62928 0.90398 0.44661 0.0
C127 C 0.48975 0.92166 0.47467 0.0
C128 C 0.53186 0.94789 0.62771 0.0
C129 C 0.66226 0.92313 0.57834 0.0
C130 C 0.44766 0.1396 0.60351 0.0
C131 C 0.58761 0.12134 0.57981 0.0
C132 C 0.54903 0.09484 0.42538 0.0
C133 C 0.41698 0.12003 0.47119 0.0
O134 O 0.58443 0.87647 0.45602 0.0
O135 O 0.64934 0.95194 0.46455 0.0
O136 O 0.49562 0.97022 0.46816 0.0
O137 O 0.52298 0.9076 0.50553 0.0
Co138 Co 0.48924 0.54402 0.13276 0.0
Co139 Co 0.46447 0.44862 0.09922 0.0
Co140 Co 0.53827 0.52195 0.02472 0.0
O141 O 0.47992 0.51188 0.06339 0.0
H142 H 0.45069 0.51444 0.03915 0.0
O143 O 0.59664 0.53243 0.98589 0.0
Co144 Co 0.58783 0.50123 0.91596 0.0
Co145 Co 0.61142 0.59649 0.95072 0.0
H146 H 0.62588 0.52993 1.01007 0.0
O147 O 0.40172 0.41724 0.1188 0.0
O148 O 0.46946 0.47435 0.16837 0.0
O149 O 0.51147 0.41055 0.10414 0.0
O150 O 0.57173 0.48045 0.07981 0.0
O151 O 0.49798 0.45746 0.98075 0.0
O152 O 0.58513 0.47147 0.85294 0.0
O153 O 0.65139 0.49926 0.91964 0.0
O154 O 0.51974 0.49637 0.90346 0.0
O155 O 0.50452 0.5631 0.96979 0.0
O156 O 0.56386 0.6342 0.94646 0.0
O157 O 0.60637 0.57132 0.88129 0.0
O158 O 0.67399 0.62867 0.9306 0.0
C159 C 0.44675 0.57175 0.1749 0.0
C160 C 0.58678 0.58363 0.12083 0.0
C161 C 0.55752 0.43537 0.10244 0.0
C162 C 0.42416 0.4409 0.16467 0.0
C163 C 0.63127 0.47556 0.87283 0.0
C164 C 0.49006 0.46007 0.92853 0.0
C165 C 0.51797 0.6086 0.94814 0.0
C166 C 0.65158 0.60485 0.88481 0.0
O167 O 0.49256 0.5749 0.19519 0.0
O168 O 0.42624 0.54751 0.12845 0.0
O169 O 0.57868 0.58647 0.06865 0.0
O170 O 0.55688 0.54745 0.14577 0.0
C171 C 0.18579 0.31013 0.43184 0.0
C172 C 0.23504 0.34509 0.43511 0.0
H173 H 0.10919 0.30074 0.43773 0.0
C174 C 0.24607 0.3967 0.45124 0.0
H175 H 0.1768 0.27018 0.41906 0.0
C176 C 0.20805 0.41409 0.46146 0.0
C177 C 0.1582 0.38014 0.45579 0.0
H178 H 0.28401 0.42409 0.4541 0.0
H179 H 0.21771 0.4547 0.47227 0.0
C180 C 0.14733 0.3277 0.44193 0.0
C181 C 0.60709 0.19203 0.31799 0.0
C182 C 0.64909 0.22735 0.35007 0.0
H183 H 0.54189 0.12316 0.3165 0.0
C184 C 0.65993 0.21458 0.40571 0.0
H185 H 0.59804 0.19858 0.27459 0.0
C186 C 0.62926 0.16942 0.4286 0.0
C187 C 0.58548 0.1367 0.39748 0.0
H188 H 0.69085 0.24026 0.43281 0.0
H189 H 0.63847 0.16174 0.47175 0.0
C190 C 0.57507 0.14801 0.34169 0.0
C191 C 0.88264 0.74545 0.37724 0.0
C192 C 0.83265 0.73283 0.38622 0.0
H193 H 0.9506 0.72603 0.39499 0.0
C194 C 0.81372 0.69291 0.42334 0.0
H195 H 0.89754 0.77559 0.34792 0.0
C196 C 0.84307 0.66371 0.44847 0.0
C197 C 0.89246 0.67467 0.43813 0.0
H198 H 0.775 0.682 0.43007 0.0
H199 H 0.8263 0.63114 0.47441 0.0
C200 C 0.91276 0.71707 0.40389 0.0
C201 C 0.40366 0.83807 0.35767 0.0
C202 C 0.38036 0.79179 0.38552 0.0
H203 H 0.45546 0.9168 0.36446 0.0
C204 C 0.38922 0.79119 0.44305 0.0
H205 H 0.39744 0.83952 0.31332 0.0
C206 C 0.42281 0.83483 0.472 0.0
C207 C 0.44725 0.88054 0.44421 0.0
H208 H 0.37213 0.75602 0.46556 0.0
H209 H 0.43102 0.83229 0.51622 0.0
C210 C 0.43638 0.88236 0.38684 0.0
C211 C 0.22985 0.63575 0.70306 0.0
C212 C 0.27508 0.65687 0.68118 0.0
H213 H 0.15114 0.59003 0.68793 0.0
C214 C 0.27454 0.64854 0.62553 0.0
H215 H 0.22907 0.64172 0.74575 0.0
C216 C 0.2305 0.61876 0.59294 0.0
C217 C 0.18531 0.59721 0.61461 0.0
H218 H 0.30869 0.66397 0.60744 0.0
H219 H 0.23198 0.612 0.55062 0.0
C220 C 0.18518 0.60671 0.66988 0.0
C221 C 0.34216 0.16909 0.65687 0.0
C222 C 0.36869 0.21653 0.68441 0.0
H223 H 0.34624 0.10688 0.61002 0.0
C224 C 0.42091 0.23744 0.68544 0.0
H225 H 0.30185 0.15213 0.65518 0.0
C226 C 0.44603 0.21189 0.65969 0.0
C227 C 0.41979 0.16452 0.63217 0.0
H228 H 0.44245 0.27446 0.70505 0.0
H229 H 0.48626 0.22968 0.66115 0.0
C230 C 0.36755 0.14311 0.63126 0.0
C231 C 0.89216 0.44315 0.7247 0.0
C232 C 0.85456 0.40357 0.69263 0.0
H233 H 0.96321 0.50501 0.72901 0.0
C234 C 0.86349 0.394 0.64052 0.0
H235 H 0.88747 0.45134 0.76538 0.0
C236 C 0.90766 0.42333 0.62077 0.0
C237 C 0.94397 0.46449 0.65155 0.0
H238 H 0.8355 0.3653 0.61337 0.0
H239 H 0.91192 0.41534 0.5798 0.0
C240 C 0.93606 0.47359 0.70417 0.0
C241 C 0.75897 0.85526 0.6116 0.0
C242 C 0.72862 0.80319 0.60178 0.0
H243 H 0.76148 0.93484 0.6119 0.0
C244 C 0.67847 0.79164 0.5774 0.0
H245 H 0.79776 0.86465 0.63076 0.0
C246 C 0.65775 0.83137 0.5666 0.0
C247 C 0.68679 0.88318 0.58077 0.0
H248 H 0.65461 0.75153 0.56961 0.0
H249 H 0.61824 0.82092 0.55012 0.0
C250 C 0.7381 0.89515 0.60129 0.0
C251 C 0.39948 0.25102 0.47164 0.0
C252 C 0.34936 0.23907 0.447 0.0
H253 H 0.46008 0.22236 0.49938 0.0
C254 C 0.31948 0.1869 0.43688 0.0
H255 H 0.42299 0.29122 0.47962 0.0
C256 C 0.34078 0.14734 0.44731 0.0
C257 C 0.39204 0.1597 0.46829 0.0
H258 H 0.28073 0.1772 0.41749 0.0
H259 H 0.31774 0.10757 0.43656 0.0
C260 C 0.42061 0.2116 0.4826 0.0
C261 C 0.84886 0.40915 0.34298 0.0
C262 C 0.8041 0.38632 0.36533 0.0
H263 H 0.92715 0.45648 0.35793 0.0
C264 C 0.8049 0.39329 0.42134 0.0
H265 H 0.84936 0.40429 0.29997 0.0
C266 C 0.84868 0.42341 0.45395 0.0
C267 C 0.89346 0.44656 0.43193 0.0
H268 H 0.77104 0.37645 0.43975 0.0
H269 H 0.8473 0.42916 0.49655 0.0
C270 C 0.8934 0.43847 0.37622 0.0
C271 C 0.65571 0.80617 0.3643 0.0
C272 C 0.70798 0.82683 0.36556 0.0
H273 H 0.59039 0.81423 0.38841 0.0
C274 C 0.73459 0.87423 0.39315 0.0
H275 H 0.63409 0.7692 0.34463 0.0
C276 C 0.70926 0.90035 0.41866 0.0
C277 C 0.65698 0.87913 0.41761 0.0
H278 H 0.77493 0.89103 0.39499 0.0
H279 H 0.73065 0.93648 0.44004 0.0
C280 C 0.63064 0.83187 0.38996 0.0
C281 C 0.20725 0.57902 0.35484 0.0
C282 C 0.2233 0.63402 0.35639 0.0
H283 H 0.15236 0.50667 0.37241 0.0
C284 C 0.19195 0.65756 0.37551 0.0
H285 H 0.2303 0.55864 0.34233 0.0
C286 C 0.14759 0.62711 0.39496 0.0
C287 C 0.13244 0.5724 0.39385 0.0
H288 H 0.20189 0.6996 0.37641 0.0
H289 H 0.1255 0.64631 0.41162 0.0
C290 C 0.16223 0.5488 0.37245 0.0
C291 C 0.41388 0.84973 0.67211 0.0
C292 C 0.43333 0.81325 0.70191 0.0
H293 H 0.42964 0.92127 0.62556 0.0
C294 C 0.48566 0.8237 0.70927 0.0
H295 H 0.37396 0.84348 0.66588 0.0
C296 C 0.51747 0.86897 0.68806 0.0
C297 C 0.49807 0.90475 0.65725 0.0
H298 H 0.5024 0.79612 0.73004 0.0
H299 H 0.55728 0.87451 0.69371 0.0
C300 C 0.44585 0.89473 0.64959 0.0
C301 C 0.26324 0.34985 0.62623 0.0
C302 C 0.24419 0.31052 0.66389 0.0
H303 H 0.25109 0.41142 0.57449 0.0
C304 C 0.19443 0.29877 0.67328 0.0
H305 H 0.30182 0.3601 0.61919 0.0
C306 C 0.16463 0.32738 0.64642 0.0
C307 C 0.18507 0.36918 0.61158 0.0
H308 H 0.17946 0.26913 0.70303 0.0
H309 H 0.12695 0.31905 0.65557 0.0
C310 C 0.23424 0.37932 0.60091 0.0
C311 C 0.68215 0.25445 0.61562 0.0
C312 C 0.69668 0.24989 0.67206 0.0
H313 H 0.63603 0.21751 0.54273 0.0
C314 C 0.67854 0.20102 0.69771 0.0
H315 H 0.6954 0.29177 0.59503 0.0
C316 C 0.64559 0.15754 0.66716 0.0
C317 C 0.62935 0.16295 0.61099 0.0
H318 H 0.68921 0.19674 0.74133 0.0
H319 H 0.6308 0.12063 0.68791 0.0
C320 C 0.6484 0.21179 0.58566 0.0
C321 C 0.89181 0.73151 0.61903 0.0
C322 C 0.84245 0.69672 0.61501 0.0
H323 H 0.96846 0.7408 0.61352 0.0
C324 C 0.83126 0.64538 0.598 0.0
H325 H 0.90089 0.77128 0.63246 0.0
C326 C 0.86925 0.62807 0.58746 0.0
C327 C 0.9192 0.66181 0.59385 0.0
H328 H 0.79323 0.61814 0.59454 0.0
H329 H 0.85947 0.58766 0.57583 0.0
C330 C 0.93024 0.714 0.60873 0.0
C331 C 0.41055 0.40551 0.31202 0.0
C332 C 0.3588 0.3789 0.30765 0.0
H333 H 0.47181 0.44756 0.26981 0.0
C334 C 0.32797 0.377 0.25704 0.0
H335 H 0.43476 0.40758 0.35094 0.0
C336 C 0.34905 0.39904 0.21059 0.0
C337 C 0.40109 0.42405 0.21445 0.0
H338 H 0.2879 0.35653 0.25302 0.0
H339 H 0.32483 0.39538 0.17149 0.0
C340 C 0.43152 0.42853 0.26579 0.0
C341 C 0.45144 0.70101 0.88154 0.0
C342 C 0.41521 0.66926 0.84082 0.0
H343 H 0.51321 0.70721 0.94606 0.0
C344 C 0.40874 0.6155 0.84178 0.0
H345 H 0.45646 0.7421 0.88417 0.0
C346 C 0.43996 0.59516 0.8795 0.0
C347 C 0.47924 0.62821 0.91606 0.0
H348 H 0.38172 0.58951 0.81137 0.0
H349 H 0.43548 0.55413 0.8776 0.0
C350 C 0.48383 0.68105 0.91764 0.0
C351 C 0.39112 0.39979 0.80928 0.0
C352 C 0.37751 0.3463 0.82205 0.0
H353 H 0.43744 0.47722 0.83284 0.0
C354 C 0.39805 0.33048 0.87294 0.0
H355 H 0.37661 0.41314 0.77004 0.0
C356 C 0.43244 0.36772 0.90984 0.0
C357 C 0.44772 0.42098 0.89548 0.0
H358 H 0.38836 0.28941 0.88354 0.0
H359 H 0.44905 0.35469 0.94809 0.0
C360 C 0.4261 0.43655 0.84524 0.0
C361 C 0.65905 0.39791 0.76693 0.0
C362 C 0.70893 0.4008 0.78606 0.0
H363 H 0.59611 0.41937 0.77854 0.0
C364 C 0.73421 0.4307 0.83314 0.0
H365 H 0.63871 0.37629 0.7302 0.0
C366 C 0.7096 0.45582 0.86116 0.0
C367 C 0.65935 0.452 0.84236 0.0
H368 H 0.77268 0.43378 0.84895 0.0
H369 H 0.72975 0.4777 0.89779 0.0
C370 C 0.63471 0.42315 0.79454 0.0
C371 C 0.74846 0.66647 0.79253 0.0
C372 C 0.7179 0.66379 0.74162 0.0
H373 H 0.75108 0.64978 0.8784 0.0
C374 C 0.6661 0.63742 0.73715 0.0
H375 H 0.78856 0.68681 0.79664 0.0
C376 C 0.6448 0.61547 0.78353 0.0
C377 C 0.67495 0.62082 0.8351 0.0
H378 H 0.64208 0.63482 0.69802 0.0
H379 H 0.60448 0.5966 0.77938 0.0
C380 C 0.72706 0.64552 0.83911 0.0
C381 C 0.67864 0.71301 0.17713 0.0
C382 C 0.6992 0.69696 0.22789 0.0
H383 H 0.62769 0.68914 0.1019 0.0
C384 C 0.6857 0.64339 0.2403 0.0
H385 H 0.68826 0.75413 0.16679 0.0
C386 C 0.65078 0.60678 0.20411 0.0
C387 C 0.62913 0.62259 0.15402 0.0
H388 H 0.70022 0.62985 0.27942 0.0
H389 H 0.63951 0.56602 0.21623 0.0
C390 C 0.64432 0.67593 0.14002 0.0
C391 C 0.34548 0.62003 0.21308 0.0
C392 C 0.37045 0.64844 0.26119 0.0
H393 H 0.34969 0.57346 0.14793 0.0
C394 C 0.42 0.65032 0.28064 0.0
H395 H 0.30732 0.61781 0.19684 0.0
C396 C 0.44403 0.62487 0.2529 0.0
C397 C 0.41938 0.59671 0.20468 0.0
H398 H 0.4401 0.67072 0.31813 0.0
H399 H 0.48224 0.62748 0.26945 0.0
C400 C 0.36974 0.59459 0.18503 0.0
C401 C 0.66656 0.42843 0.20925 0.0
C402 C 0.65744 0.37417 0.21374 0.0
H403 H 0.64291 0.49035 0.16926 0.0
C404 C 0.6191 0.34147 0.17551 0.0
H405 H 0.69531 0.45519 0.23763 0.0
C406 C 0.58785 0.36157 0.13796 0.0
C407 C 0.59538 0.41524 0.13566 0.0
H408 H 0.6119 0.29976 0.17566 0.0
H409 H 0.55704 0.33491 0.1114 0.0
C410 C 0.63626 0.44872 0.17016 0.0
loop_
_geom_bond_atom_site_label_1
_geom_bond_atom_site_label_2
_geom_bond_distance
_geom_bond_site_symmetry_2
_ccdc_geom_bond_type
H0 C3 0.931 . S
H1 C6 0.928 . S
H2 C8 0.930 . S
C3 H0 0.931 . S
C3 C4 1.413 . S
C3 C5 1.360 . S
C4 C3 1.413 . S
C4 C8 1.429 . S
C5 C3 1.360 . S
C5 C6 1.372 . S
C6 H1 0.928 . S
C6 C5 1.372 . S
C6 C7 1.404 . S
C7 C6 1.404 . S
C7 C8 1.391 . S
C8 H2 0.930 . S
C8 C4 1.429 . S
C8 C7 1.391 . S
H9 C12 0.931 . S
H10 C15 0.928 . S
H11 C17 0.930 . S
C12 H9 0.931 . S
C12 C13 1.413 . S
C12 C14 1.360 . S
C13 C12 1.413 . S
C13 C17 1.429 . S
C14 C12 1.360 . S
C14 C15 1.372 . S
C15 H10 0.928 . S
C15 C14 1.372 . S
C15 C16 1.404 . S
C16 C15 1.404 . S
C16 C17 1.391 . S
C17 H11 0.930 . S
C17 C13 1.429 . S
C17 C16 1.391 . S
H18 C21 0.931 . S
H19 C24 0.928 . S
H20 C26 0.930 . S
C21 H18 0.931 . S
C21 C22 1.413 . S
C21 C23 1.360 . S
C22 C21 1.413 . S
C22 C26 1.429 . S
C23 C21 1.360 . S
C23 C24 1.372 . S
C24 H19 0.928 . S
C24 C23 1.372 . S
C24 C25 1.404 . S
C25 C24 1.404 . S
C25 C26 1.391 . S
C26 H20 0.930 . S
C26 C22 1.429 . S
C26 C25 1.391 . S
H27 C30 0.931 . S
H28 C33 0.928 . S
H29 C35 0.930 . S
C30 H27 0.931 . S
C30 C31 1.413 . S
C30 C32 1.360 . S
C31 C30 1.413 . S
C31 C35 1.429 . S
C32 C30 1.360 . S
C32 C33 1.372 . S
C33 H28 0.928 . S
C33 C32 1.372 . S
C33 C34 1.404 . S
C34 C33 1.404 . S
C34 C35 1.391 . S
C35 H29 0.930 . S
C35 C31 1.429 . S
C35 C34 1.391 . S
H36 C39 0.931 . S
H37 C42 0.928 . S
H38 C44 0.930 . S
C39 H36 0.931 . S
C39 C40 1.413 . S
C39 C41 1.360 . S
C40 C39 1.413 . S
C40 C44 1.429 . S
C41 C39 1.360 . S
C41 C42 1.372 . S
C42 H37 0.928 . S
C42 C41 1.372 . S
C42 C43 1.404 . S
C43 C42 1.404 . S
C43 C44 1.391 . S
C44 H38 0.930 . S
C44 C40 1.429 . S
C44 C43 1.391 . S
H45 C48 0.931 . S
H46 C51 0.928 . S
H47 C53 0.930 . S
C48 H45 0.931 . S
C48 C49 1.413 . S
C48 C50 1.360 . S
C49 C48 1.413 . S
C49 C53 1.429 . S
C50 C48 1.360 . S
C50 C51 1.372 . S
C51 H46 0.928 . S
C51 C50 1.372 . S
C51 C52 1.404 . S
C52 C51 1.404 . S
C52 C53 1.391 . S
C53 H47 0.930 . S
C53 C49 1.429 . S
C53 C52 1.391 . S
H54 C57 0.931 . S
H55 C60 0.928 . S
H56 C62 0.930 . S
C57 H54 0.931 . S
C57 C58 1.413 . S
C57 C59 1.360 . S
C58 C57 1.413 . S
C58 C62 1.429 . S
C59 C57 1.360 . S
C59 C60 1.372 . S
C60 H55 0.928 . S
C60 C59 1.372 . S
C60 C61 1.404 . S
C61 C60 1.404 . S
C61 C62 1.391 . S
C62 H56 0.930 . S
C62 C58 1.429 . S
C62 C61 1.391 . S
H63 C66 0.931 . S
H64 C69 0.928 . S
H65 C71 0.930 . S
C66 H63 0.931 . S
C66 C67 1.413 . S
C66 C68 1.360 . S
C67 C66 1.413 . S
C67 C71 1.429 . S
C68 C66 1.360 . S
C68 C69 1.372 . S
C69 H64 0.928 . S
C69 C68 1.372 . S
C69 C70 1.404 . S
C70 C69 1.404 . S
C70 C71 1.391 . S
C71 H65 0.930 . S
C71 C67 1.429 . S
C71 C70 1.391 . S
Co72 O75 2.042 . S
Co72 O82 2.264 . S
Co72 O101 2.286 . S
Co72 O102 2.069 . S
Co72 O104 2.015 . S
Co73 O75 2.122 . S
Co73 O81 2.073 . S
Co73 O82 2.327 . S
Co73 O83 1.976 . S
Co74 O75 2.087 . S
Co74 O77 2.087 1_455 S
Co74 O84 2.111 . S
Co74 O85 2.143 1_455 S
Co74 O89 2.111 1_455 S
Co74 O103 2.143 . S
O75 Co72 2.042 . S
O75 Co73 2.122 . S
O75 Co74 2.087 . S
O75 H76 0.980 . S
H76 O75 0.980 . S
O77 Co74 2.087 1_655 S
O77 Co78 2.042 . S
O77 Co79 2.122 . S
O77 H80 0.974 1_655 S
Co78 O77 2.042 . S
Co78 O86 2.286 . S
Co78 O87 2.069 . S
Co78 O88 2.015 . S
Co78 O91 2.264 . S
Co79 O77 2.122 . S
Co79 O90 1.976 . S
Co79 O91 2.327 . S
Co79 O92 2.073 . S
H80 O77 0.974 1_455 S
O81 Co73 2.073 . S
O81 C96 1.245 . S
O82 Co72 2.264 . S
O82 Co73 2.327 . S
O82 C96 1.257 . S
O83 Co73 1.976 . S
O83 C95 1.251 . S
O84 Co74 2.111 . S
O84 C95 1.274 . S
O85 Co74 2.143 1_655 S
O85 C98 1.246 . S
O86 Co78 2.286 . S
O86 C97 1.259 . S
O87 Co78 2.069 . S
O87 C97 1.289 . S
O88 Co78 2.015 . S
O88 C98 1.257 . S
O89 Co74 2.111 1_655 S
O89 C99 1.274 . S
O90 Co79 1.976 . S
O90 C99 1.251 . S
O91 Co78 2.264 . S
O91 Co79 2.327 . S
O91 C100 1.257 . S
O92 Co79 2.073 . S
O92 C100 1.245 . S
C93 O101 1.259 . S
C93 O102 1.289 . S
C94 O103 1.246 . S
C94 O104 1.257 . S
C95 O83 1.251 . S
C95 O84 1.274 . S
C96 O81 1.245 . S
C96 O82 1.257 . S
C97 O86 1.259 . S
C97 O87 1.289 . S
C98 O85 1.246 . S
C98 O88 1.257 . S
C99 O89 1.274 . S
C99 O90 1.251 . S
C100 O91 1.257 . S
C100 O92 1.245 . S
O101 Co72 2.286 . S
O101 C93 1.259 . S
O102 Co72 2.069 . S
O102 C93 1.289 . S
O103 Co74 2.143 . S
O103 C94 1.246 . S
O104 Co72 2.015 . S
O104 C94 1.257 . S
Co105 O108 2.042 . S
Co105 O115 2.264 . S
Co105 O134 2.286 . S
Co105 O135 2.069 . S
Co105 O137 2.015 . S
Co106 O108 2.122 . S
Co106 O114 2.073 . S
Co106 O115 2.327 . S
Co106 O116 1.976 . S
Co107 O108 2.087 1_545 S
Co107 O110 2.087 . S
Co107 O117 2.111 1_545 S
Co107 O118 2.143 . S
Co107 O122 2.111 . S
Co107 O136 2.143 1_545 S
O108 Co105 2.042 . S
O108 Co106 2.122 . S
O108 Co107 2.087 1_565 S
O108 H109 0.980 . S
H109 O108 0.980 . S
O110 Co107 2.087 . S
O110 Co111 2.042 . S
O110 Co112 2.122 . S
O110 H113 0.980 . S
Co111 O110 2.042 . S
Co111 O119 2.286 . S
Co111 O120 2.069 . S
Co111 O121 2.015 . S
Co111 O124 2.264 . S
Co112 O110 2.122 . S
Co112 O123 1.976 . S
Co112 O124 2.327 . S
Co112 O125 2.073 . S
H113 O110 0.980 . S
O114 Co106 2.073 . S
O114 C129 1.245 . S
O115 Co105 2.264 . S
O115 Co106 2.327 . S
O115 C129 1.257 . S
O116 Co106 1.976 . S
O116 C128 1.251 . S
O117 Co107 2.111 1_565 S
O117 C128 1.274 . S
O118 Co107 2.143 . S
O118 C131 1.246 . S
O119 Co111 2.286 . S
O119 C130 1.259 . S
O120 Co111 2.069 . S
O120 C130 1.289 . S
O121 Co111 2.015 . S
O121 C131 1.257 . S
O122 Co107 2.111 . S
O122 C132 1.274 . S
O123 Co112 1.976 . S
O123 C132 1.251 . S
O124 Co111 2.264 . S
O124 Co112 2.327 . S
O124 C133 1.257 . S
O125 Co112 2.073 . S
O125 C133 1.245 . S
C126 O134 1.259 . S
C126 O135 1.289 . S
C127 O136 1.246 . S
C127 O137 1.257 . S
C128 O116 1.251 . S
C128 O117 1.274 . S
C129 O114 1.245 . S
C129 O115 1.257 . S
C130 O119 1.259 . S
C130 O120 1.289 . S
C131 O118 1.246 . S
C131 O121 1.257 . S
C132 O122 1.274 . S
C132 O123 1.251 . S
C133 O124 1.257 . S
C133 O125 1.245 . S
O134 Co105 2.286 . S
O134 C126 1.259 . S
O135 Co105 2.069 . S
O135 C126 1.289 . S
O136 Co107 2.143 1_565 S
O136 C127 1.246 . S
O137 Co105 2.015 . S
O137 C127 1.257 . S
Co138 O141 2.042 . S
Co138 O148 2.264 . S
Co138 O167 2.286 . S
Co138 O168 2.069 . S
Co138 O170 2.015 . S
Co139 O141 2.122 . S
Co139 O147 2.073 . S
Co139 O148 2.327 . S
Co139 O149 1.976 . S
Co140 O141 2.087 . S
Co140 O143 2.087 1_554 S
Co140 O150 2.111 . S
Co140 O151 2.143 1_554 S
Co140 O155 2.111 1_554 S
Co140 O169 2.143 . S
O141 Co138 2.042 . S
O141 Co139 2.122 . S
O141 Co140 2.087 . S
O141 H142 0.980 . S
H142 O141 0.980 . S
O143 Co140 2.087 1_556 S
O143 Co144 2.042 . S
O143 Co145 2.122 . S
O143 H146 0.980 . S
Co144 O143 2.042 . S
Co144 O152 2.286 . S
Co144 O153 2.069 . S
Co144 O154 2.015 . S
Co144 O157 2.264 . S
Co145 O143 2.122 . S
Co145 O156 1.976 . S
Co145 O157 2.327 . S
Co145 O158 2.073 . S
H146 O143 0.980 . S
O147 Co139 2.073 . S
O147 C162 1.245 . S
O148 Co138 2.264 . S
O148 Co139 2.327 . S
O148 C162 1.257 . S
O149 Co139 1.976 . S
O149 C161 1.251 . S
O150 Co140 2.111 . S
O150 C161 1.274 . S
O151 Co140 2.143 1_556 S
O151 C164 1.246 . S
O152 Co144 2.286 . S
O152 C163 1.259 . S
O153 Co144 2.069 . S
O153 C163 1.289 . S
O154 Co144 2.015 . S
O154 C164 1.257 . S
O155 Co140 2.111 1_556 S
O155 C165 1.274 . S
O156 Co145 1.976 . S
O156 C165 1.251 . S
O157 Co144 2.264 . S
O157 Co145 2.327 . S
O157 C166 1.257 . S
O158 Co145 2.073 . S
O158 C166 1.245 . S
C159 O167 1.259 . S
C159 O168 1.289 . S
C160 O169 1.246 . S
C160 O170 1.257 . S
C161 O149 1.251 . S
C161 O150 1.274 . S
C162 O147 1.245 . S
C162 O148 1.257 . S
C163 O152 1.259 . S
C163 O153 1.289 . S
C164 O151 1.246 . S
C164 O154 1.257 . S
C165 O155 1.274 . S
C165 O156 1.251 . S
C166 O157 1.257 . S
C166 O158 1.245 . S
O167 Co138 2.286 . S
O167 C159 1.259 . S
O168 Co138 2.069 . S
O168 C159 1.289 . S
O169 Co140 2.143 . S
O169 C160 1.246 . S
O170 Co138 2.015 . S
O170 C160 1.257 . S
C171 C172 1.387 . S
C171 H175 0.950 . S
C171 C180 1.390 . S
C172 C171 1.387 . S
C172 C174 1.387 . S
H173 C180 0.950 . S
C174 C172 1.387 . S
C174 C176 1.390 . S
C174 H178 0.950 . S
H175 C171 0.950 . S
C176 C174 1.390 . S
C176 C177 1.387 . S
C176 H179 0.950 . S
C177 C176 1.387 . S
C177 C180 1.387 . S
H178 C174 0.950 . S
H179 C176 0.950 . S
C180 C171 1.390 . S
C180 H173 0.950 . S
C180 C177 1.387 . S
C181 C182 1.387 . S
C181 H185 0.950 . S
C181 C190 1.390 . S
C182 C181 1.387 . S
C182 C184 1.387 . S
H183 C190 0.950 . S
C184 C182 1.387 . S
C184 C186 1.390 . S
C184 H188 0.950 . S
H185 C181 0.950 . S
C186 C184 1.390 . S
C186 C187 1.387 . S
C186 H189 0.950 . S
C187 C186 1.387 . S
C187 C190 1.387 . S
H188 C184 0.950 . S
H189 C186 0.950 . S
C190 C181 1.390 . S
C190 H183 0.950 . S
C190 C187 1.387 . S
C191 C192 1.387 . S
C191 H195 0.950 . S
C191 C200 1.390 . S
C192 C191 1.387 . S
C192 C194 1.387 . S
H193 C200 0.950 . S
C194 C192 1.387 . S
C194 C196 1.390 . S
C194 H198 0.950 . S
H195 C191 0.950 . S
C196 C194 1.390 . S
C196 C197 1.387 . S
C196 H199 0.950 . S
C197 C196 1.387 . S
C197 C200 1.387 . S
H198 C194 0.950 . S
H199 C196 0.950 . S
C200 C191 1.390 . S
C200 H193 0.950 . S
C200 C197 1.387 . S
C201 C202 1.387 . S
C201 H205 0.950 . S
C201 C210 1.390 . S
C202 C201 1.387 . S
C202 C204 1.387 . S
H203 C210 0.950 . S
C204 C202 1.387 . S
C204 C206 1.390 . S
C204 H208 0.950 . S
H205 C201 0.950 . S
C206 C204 1.390 . S
C206 C207 1.387 . S
C206 H209 0.950 . S
C207 C206 1.387 . S
C207 C210 1.387 . S
H208 C204 0.950 . S
H209 C206 0.950 . S
C210 C201 1.390 . S
C210 H203 0.950 . S
C210 C207 1.387 . S
C211 C212 1.387 . S
C211 H215 0.950 . S
C211 C220 1.390 . S
C212 C211 1.387 . S
C212 C214 1.387 . S
H213 C220 0.950 . S
C214 C212 1.387 . S
C214 C216 1.390 . S
C214 H218 0.950 . S
H215 C211 0.950 . S
C216 C214 1.390 . S
C216 C217 1.387 . S
C216 H219 0.950 . S
C217 C216 1.387 . S
C217 C220 1.387 . S
H218 C214 0.950 . S
H219 C216 0.950 . S
C220 C211 1.390 . S
C220 H213 0.950 . S
C220 C217 1.387 . S
C221 C222 1.387 . S
C221 H225 0.950 . S
C221 C230 1.390 . S
C222 C221 1.387 . S
C222 C224 1.387 . S
H223 C230 0.950 . S
C224 C222 1.387 . S
C224 C226 1.390 . S
C224 H228 0.950 . S
H225 C221 0.950 . S
C226 C224 1.390 . S
C226 C227 1.387 . S
C226 H229 0.950 . S
C227 C226 1.387 . S
C227 C230 1.387 . S
H228 C224 0.950 . S
H229 C226 0.950 . S
C230 C221 1.390 . S
C230 H223 0.950 . S
C230 C227 1.387 . S
C231 C232 1.387 . S
C231 H235 0.950 . S
C231 C240 1.390 . S
C232 C231 1.387 . S
C232 C234 1.387 . S
H233 C240 0.950 . S
C234 C232 1.387 . S
C234 C236 1.390 . S
C234 H238 0.950 . S
H235 C231 0.950 . S
C236 C234 1.390 . S
C236 C237 1.387 . S
C236 H239 0.950 . S
C237 C236 1.387 . S
C237 C240 1.387 . S
H238 C234 0.950 . S
H239 C236 0.950 . S
C240 C231 1.390 . S
C240 H233 0.950 . S
C240 C237 1.387 . S
C241 C242 1.387 . S
C241 H245 0.950 . S
C241 C250 1.390 . S
C242 C241 1.387 . S
C242 C244 1.387 . S
H243 C250 0.950 . S
C244 C242 1.387 . S
C244 C246 1.390 . S
C244 H248 0.950 . S
H245 C241 0.950 . S
C246 C244 1.390 . S
C246 C247 1.387 . S
C246 H249 0.950 . S
C247 C246 1.387 . S
C247 C250 1.387 . S
H248 C244 0.950 . S
H249 C246 0.950 . S
C250 C241 1.390 . S
C250 H243 0.950 . S
C250 C247 1.387 . S
C251 C252 1.387 . S
C251 H255 0.950 . S
C251 C260 1.390 . S
C252 C251 1.387 . S
C252 C254 1.387 . S
H253 C260 0.950 . S
C254 C252 1.387 . S
C254 C256 1.390 . S
C254 H258 0.950 . S
H255 C251 0.950 . S
C256 C254 1.390 . S
C256 C257 1.387 . S
C256 H259 0.950 . S
C257 C256 1.387 . S
C257 C260 1.387 . S
H258 C254 0.950 . S
H259 C256 0.950 . S
C260 C251 1.390 . S
C260 H253 0.950 . S
C260 C257 1.387 . S
C261 C262 1.387 . S
C261 H265 0.950 . S
C261 C270 1.390 . S
C262 C261 1.387 . S
C262 C264 1.387 . S
H263 C270 0.950 . S
C264 C262 1.387 . S
C264 C266 1.390 . S
C264 H268 0.950 . S
H265 C261 0.950 . S
C266 C264 1.390 . S
C266 C267 1.387 . S
C266 H269 0.950 . S
C267 C266 1.387 . S
C267 C270 1.387 . S
H268 C264 0.950 . S
H269 C266 0.950 . S
C270 C261 1.390 . S
C270 H263 0.950 . S
C270 C267 1.387 . S
C271 C272 1.387 . S
C271 H275 0.950 . S
C271 C280 1.390 . S
C272 C271 1.387 . S
C272 C274 1.387 . S
H273 C280 0.950 . S
C274 C272 1.387 . S
C274 C276 1.390 . S
C274 H278 0.950 . S
H275 C271 0.950 . S
C276 C274 1.390 . S
C276 C277 1.387 . S
C276 H279 0.950 . S
C277 C276 1.387 . S
C277 C280 1.387 . S
H278 C274 0.950 . S
H279 C276 0.950 . S
C280 C271 1.390 . S
C280 H273 0.950 . S
C280 C277 1.387 . S
C281 C282 1.387 . S
C281 H285 0.950 . S
C281 C290 1.390 . S
C282 C281 1.387 . S
C282 C284 1.387 . S
H283 C290 0.950 . S
C284 C282 1.387 . S
C284 C286 1.390 . S
C284 H288 0.950 . S
H285 C281 0.950 . S
C286 C284 1.390 . S
C286 C287 1.387 . S
C286 H289 0.950 . S
C287 C286 1.387 . S
C287 C290 1.387 . S
H288 C284 0.950 . S
H289 C286 0.950 . S
C290 C281 1.390 . S
C290 H283 0.950 . S
C290 C287 1.387 . S
C291 C292 1.387 . S
C291 H295 0.950 . S
C291 C300 1.390 . S
C292 C291 1.387 . S
C292 C294 1.387 . S
H293 C300 0.950 . S
C294 C292 1.387 . S
C294 C296 1.390 . S
C294 H298 0.950 . S
H295 C291 0.950 . S
C296 C294 1.390 . S
C296 C297 1.387 . S
C296 H299 0.950 . S
C297 C296 1.387 . S
C297 C300 1.387 . S
H298 C294 0.950 . S
H299 C296 0.950 . S
C300 C291 1.390 . S
C300 H293 0.950 . S
C300 C297 1.387 . S
C301 C302 1.387 . S
C301 H305 0.950 . S
C301 C310 1.390 . S
C302 C301 1.387 . S
C302 C304 1.387 . S
H303 C310 0.950 . S
C304 C302 1.387 . S
C304 C306 1.390 . S
C304 H308 0.950 . S
H305 C301 0.950 . S
C306 C304 1.390 . S
C306 C307 1.387 . S
C306 H309 0.950 . S
C307 C306 1.387 . S
C307 C310 1.387 . S
H308 C304 0.950 . S
H309 C306 0.950 . S
C310 C301 1.390 . S
C310 H303 0.950 . S
C310 C307 1.387 . S
C311 C312 1.387 . S
C311 H315 0.950 . S
C311 C320 1.390 . S
C312 C311 1.387 . S
C312 C314 1.387 . S
H313 C320 0.950 . S
C314 C312 1.387 . S
C314 C316 1.390 . S
C314 H318 0.950 . S
H315 C311 0.950 . S
C316 C314 1.390 . S
C316 C317 1.387 . S
C316 H319 0.950 . S
C317 C316 1.387 . S
C317 C320 1.387 . S
H318 C314 0.950 . S
H319 C316 0.950 . S
C320 C311 1.390 . S
C320 H313 0.950 . S
C320 C317 1.387 . S
C321 C322 1.387 . S
C321 H325 0.950 . S
C321 C330 1.390 . S
C322 C321 1.387 . S
C322 C324 1.387 . S
H323 C330 0.950 . S
C324 C322 1.387 . S
C324 C326 1.390 . S
C324 H328 0.950 . S
H325 C321 0.950 . S
C326 C324 1.390 . S
C326 C327 1.387 . S
C326 H329 0.950 . S
C327 C326 1.387 . S
C327 C330 1.387 . S
H328 C324 0.950 . S
H329 C326 0.950 . S
C330 C321 1.390 . S
C330 H323 0.950 . S
C330 C327 1.387 . S
C331 C332 1.387 . S
C331 H335 0.950 . S
C331 C340 1.390 . S
C332 C331 1.387 . S
C332 C334 1.387 . S
H333 C340 0.950 . S
C334 C332 1.387 . S
C334 C336 1.390 . S
C334 H338 0.950 . S
H335 C331 0.950 . S
C336 C334 1.390 . S
C336 C337 1.387 . S
C336 H339 0.950 . S
C337 C336 1.387 . S
C337 C340 1.387 . S
H338 C334 0.950 . S
H339 C336 0.950 . S
C340 C331 1.390 . S
C340 H333 0.950 . S
C340 C337 1.387 . S
C341 C342 1.387 . S
C341 H345 0.950 . S
C341 C350 1.390 . S
C342 C341 1.387 . S
C342 C344 1.387 . S
H343 C350 0.950 . S
C344 C342 1.387 . S
C344 C346 1.390 . S
C344 H348 0.950 . S
H345 C341 0.950 . S
C346 C344 1.390 . S
C346 C347 1.387 . S
C346 H349 0.950 . S
C347 C346 1.387 . S
C347 C350 1.387 . S
H348 C344 0.950 . S
H349 C346 0.950 . S
C350 C341 1.390 . S
C350 H343 0.950 . S
C350 C347 1.387 . S
C351 C352 1.387 . S
C351 H355 0.950 . S
C351 C360 1.390 . S
C352 C351 1.387 . S
C352 C354 1.387 . S
H353 C360 0.950 . S
C354 C352 1.387 . S
C354 C356 1.390 . S
C354 H358 0.950 . S
H355 C351 0.950 . S
C356 C354 1.390 . S
C356 C357 1.387 . S
C356 H359 0.950 . S
C357 C356 1.387 . S
C357 C360 1.387 . S
H358 C354 0.950 . S
H359 C356 0.950 . S
C360 C351 1.390 . S
C360 H353 0.950 . S
C360 C357 1.387 . S
C361 C362 1.387 . S
C361 H365 0.950 . S
C361 C370 1.390 . S
C362 C361 1.387 . S
C362 C364 1.387 . S
H363 C370 0.950 . S
C364 C362 1.387 . S
C364 C366 1.390 . S
C364 H368 0.950 . S
H365 C361 0.950 . S
C366 C364 1.390 . S
C366 C367 1.387 . S
C366 H369 0.950 . S
C367 C366 1.387 . S
C367 C370 1.387 . S
H368 C364 0.950 . S
H369 C366 0.950 . S
C370 C361 1.390 . S
C370 H363 0.950 . S
C370 C367 1.387 . S
C371 C372 1.387 . S
C371 H375 0.950 . S
C371 C380 1.390 . S
C372 C371 1.387 . S
C372 C374 1.387 . S
H373 C380 0.950 . S
C374 C372 1.387 . S
C374 C376 1.390 . S
C374 H378 0.950 . S
H375 C371 0.950 . S
C376 C374 1.390 . S
C376 C377 1.387 . S
C376 H379 0.950 . S
C377 C376 1.387 . S
C377 C380 1.387 . S
H378 C374 0.950 . S
H379 C376 0.950 . S
C380 C371 1.390 . S
C380 H373 0.950 . S
C380 C377 1.387 . S
C381 C382 1.387 . S
C381 H385 0.950 . S
C381 C390 1.390 . S
C382 C381 1.387 . S
C382 C384 1.387 . S
H383 C390 0.950 . S
C384 C382 1.387 . S
C384 C386 1.390 . S
C384 H388 0.950 . S
H385 C381 0.950 . S
C386 C384 1.390 . S
C386 C387 1.387 . S
C386 H389 0.950 . S
C387 C386 1.387 . S
C387 C390 1.387 . S
H388 C384 0.950 . S
H389 C386 0.950 . S
C390 C381 1.390 . S
C390 H383 0.950 . S
C390 C387 1.387 . S
C391 C392 1.387 . S
C391 H395 0.950 . S
C391 C400 1.390 . S
C392 C391 1.387 . S
C392 C394 1.387 . S
H393 C400 0.950 . S
C394 C392 1.387 . S
C394 C396 1.390 . S
C394 H398 0.950 . S
H395 C391 0.950 . S
C396 C394 1.390 . S
C396 C397 1.387 . S
C396 H399 0.950 . S
C397 C396 1.387 . S
C397 C400 1.387 . S
H398 C394 0.950 . S
H399 C396 0.950 . S
C400 C391 1.390 . S
C400 H393 0.950 . S
C400 C397 1.387 . S
C401 C402 1.387 . S
C401 H405 0.950 . S
C401 C410 1.390 . S
C402 C401 1.387 . S
C402 C404 1.387 . S
H403 C410 0.950 . S
C404 C402 1.387 . S
C404 C406 1.390 . S
C404 H408 0.950 . S
H405 C401 0.950 . S
C406 C404 1.390 . S
C406 C407 1.387 . S
C406 H409 0.950 . S
C407 C406 1.387 . S
C407 C410 1.387 . S
H408 C404 0.950 . S
H409 C406 0.950 . S
C410 C401 1.390 . S
C410 H403 0.950 . S
C410 C407 1.387 . S
C177 C96 1.247 . S
C172 C4 1.335 . S
C187 C132 1.608 . S
C182 C13 1.726 . S
C197 C97 1.340 . S
C192 C25 1.358 . S
C207 C127 1.459 . S
C202 C32 1.509 . S
C217 C94 1.446 . S
C212 C41 1.526 . S
C222 C52 1.556 . S
C227 C130 1.571 . S
C232 C61 1.337 . S
C237 C99 1.197 . S
C247 C129 1.382 . S
C242 C67 1.423 . S
C257 C133 1.379 . S
C252 C7 1.416 . S
C267 C98 1.457 . S
C262 C14 1.535 . S
C277 C126 1.583 . S
C272 C22 1.570 . S
C287 C95 1.194 . S
C282 C31 1.333 . S
C297 C128 1.592 . S
C292 C40 1.715 . S
C302 C49 1.363 . S
C307 C93 1.348 . S
C312 C59 1.517 . S
C317 C131 1.464 . S
C327 C100 1.241 . S
C322 C70 1.330 . S
C337 C162 1.502 . S
C332 C5 1.634 . S
C342 C43 1.943 . S
C347 C165 1.793 . S
C357 C164 1.550 . S
C352 C50 1.593 . S
C362 C58 1.857 . S
C367 C163 1.840 . S
C377 C166 1.499 . S
C372 C68 1.630 . S
C382 C23 1.596 . S
C387 C160 1.557 . S
C397 C159 1.820 . S
C392 C34 1.839 . S
C402 C16 1.955 . S
C407 C161 1.808 . S
