# Generated by pormake.
# Topology anh, (6,3)-cn, num edge types: 1
# Building blocks:
#     Node 0, Type 0, BuildingBlock: PAMTUU_clean_sbu_0, # of connection points: 6
#     Node 1, Type 0, BuildingBlock: PAMTUU_clean_sbu_0, # of connection points: 6
#     Node 2, Type 0, BuildingBlock: PAMTUU_clean_sbu_0, # of connection points: 6
#     Node 3, Type 1, BuildingBlock: VETTIZ_charged_linker_0, # of connection points: 3
#     Node 4, Type 1, BuildingBlock: VETTIZ_charged_linker_0, # of connection points: 3
#     Node 5, Type 1, BuildingBlock: VETTIZ_charged_linker_0, # of connection points: 3
#     Node 6, Type 1, BuildingBlock: VETTIZ_charged_linker_0, # of connection points: 3
#     Node 7, Type 1, BuildingBlock: VETTIZ_charged_linker_0, # of connection points: 3
#     Node 8, Type 1, BuildingBlock: VETTIZ_charged_linker_0, # of connection points: 3
#     Edge 9, Type (0, 1), BuildingBlock: XIVTED_clean_linker_0, # of connection points: 2
#     Edge 10, Type (0, 1), BuildingBlock: XIVTED_clean_linker_0, # of connection points: 2
#     Edge 11, Type (0, 1), BuildingBlock: XIVTED_clean_linker_0, # of connection points: 2
#     Edge 12, Type (0, 1), BuildingBlock: XIVTED_clean_linker_0, # of connection points: 2
#     Edge 13, Type (0, 1), BuildingBlock: XIVTED_clean_linker_0, # of connection points: 2
#     Edge 14, Type (0, 1), BuildingBlock: XIVTED_clean_linker_0, # of connection points: 2
#     Edge 15, Type (0, 1), BuildingBlock: XIVTED_clean_linker_0, # of connection points: 2
#     Edge 16, Type (0, 1), BuildingBlock: XIVTED_clean_linker_0, # of connection points: 2
#     Edge 17, Type (0, 1), BuildingBlock: XIVTED_clean_linker_0, # of connection points: 2
#     Edge 18, Type (0, 1), BuildingBlock: XIVTED_clean_linker_0, # of connection points: 2
#     Edge 19, Type (0, 1), BuildingBlock: XIVTED_clean_linker_0, # of connection points: 2
#     Edge 20, Type (0, 1), BuildingBlock: XIVTED_clean_linker_0, # of connection points: 2
#     Edge 21, Type (0, 1), BuildingBlock: XIVTED_clean_linker_0, # of connection points: 2
#     Edge 22, Type (0, 1), BuildingBlock: XIVTED_clean_linker_0, # of connection points: 2
#     Edge 23, Type (0, 1), BuildingBlock: XIVTED_clean_linker_0, # of connection points: 2
#     Edge 24, Type (0, 1), BuildingBlock: XIVTED_clean_linker_0, # of connection points: 2
#     Edge 25, Type (0, 1), BuildingBlock: XIVTED_clean_linker_0, # of connection points: 2
#     Edge 26, Type (0, 1), BuildingBlock: XIVTED_clean_linker_0, # of connection points: 2
# Relax obj value: 0.242
# Max RMSD: 0.191
# Mean RMSD: 0.158
data_MOF--net-anh--node1-PAMTUU_clean_sbu_0--node2-VETTIZ_charged_linker_0--edge1-XIVTED_clean_linker_0
_symmetry_space_group_name_H-M    P1
_symmetry_Int_Tables_number       1
_symmetry_cell_setting            triclinic
loop_
_symmetry_equiv_pos_as_xyz
'x, y, z'
_cell_length_a     35.735168
_cell_length_b     35.878763
_cell_length_c     67.018646
_cell_angle_alpha  93.334891
_cell_angle_beta   90.101162
_cell_angle_gamma 120.07369
loop_
_atom_site_label
_atom_site_type_symbol
_atom_site_fract_x
_atom_site_fract_y
_atom_site_fract_z
_atom_type_partial_charge
Tb0 Tb 0.12579 0.62668 0.157 0.0
Tb1 Tb 0.18415 0.58298 0.165 0.0
C2 C 0.16149 0.59489 0.12177 0.0
C3 C 1.02522 0.62298 0.15306 0.0
C4 C 0.94221 0.54956 0.14789 0.0
C5 C 0.95722 0.58179 0.13412 0.0
C6 C 0.99836 0.61825 0.13671 0.0
C7 C 1.00871 0.59268 0.16777 0.0
C8 C 0.96735 0.55642 0.16527 0.0
C9 C 1.0723 0.6511 0.15174 0.0
O10 O 1.07975 0.55697 0.1523 0.0
O11 O 0.11731 0.53018 0.16814 0.0
O12 O 0.1845 0.61857 0.19243 0.0
O13 O 0.11666 0.60644 0.18722 0.0
O14 O 0.23152 0.56766 0.15645 0.0
O15 O 0.1999 0.5488 0.18451 0.0
O16 O 0.23172 0.6502 0.15949 0.0
O17 O 0.19069 0.68291 0.16425 0.0
O18 O 0.15652 0.62663 0.12922 0.0
O19 O 0.16465 0.56822 0.13335 0.0
C20 C 1.08087 0.5249 0.16037 0.0
O21 O 1.09549 0.66056 0.16832 0.0
O22 O 1.08855 0.63894 0.13709 0.0
C23 C 0.14904 0.61557 0.19944 0.0
C24 C 0.27391 0.57233 0.18409 0.0
C25 C 0.35971 0.61331 0.19927 0.0
C26 C 0.33708 0.56864 0.1939 0.0
C27 C 0.2945 0.54835 0.1863 0.0
C28 C 0.2952 0.61622 0.19067 0.0
C29 C 0.33785 0.63661 0.1982 0.0
C30 C 0.23162 0.55248 0.17365 0.0
C31 C 0.2287 0.68535 0.16221 0.0
H32 H 0.93794 0.57775 0.12081 0.0
H33 H 1.01053 0.64086 0.1251 0.0
H34 H 1.02893 0.59505 0.18039 0.0
H35 H 0.95651 0.53218 0.17613 0.0
H36 H 0.35316 0.54988 0.19421 0.0
H37 H 0.27838 0.51443 0.18132 0.0
H38 H 0.27946 0.63509 0.18918 0.0
H39 H 0.35437 0.67095 0.20229 0.0
Tb40 Tb 0.62012 0.07516 0.49398 0.0
Tb41 Tb 0.72386 0.12426 0.49786 0.0
C42 C 0.67534 0.10515 0.4558 0.0
C43 C 0.5074 0.99277 0.5034 0.0
C44 C 0.4461 0.91664 0.52057 0.0
C45 C 0.46221 0.91471 0.50166 0.0
C46 C 0.49236 0.95228 0.49315 0.0
C47 C 0.49204 0.9948 0.52252 0.0
C48 C 0.46169 0.95706 0.53103 0.0
C49 C 0.53864 1.03249 0.49402 0.0
O50 O 0.63635 1.02488 0.50035 0.0
O51 O 0.70711 1.05689 0.49095 0.0
O52 O 0.69993 0.09347 0.52576 0.0
O53 O 0.64029 0.10026 0.52467 0.0
O54 O 0.78583 0.14721 0.48626 0.0
O55 O 0.77811 0.16309 0.51689 0.0
O56 O 0.70424 0.17306 0.50414 0.0
O57 O 0.63911 0.1415 0.48705 0.0
O58 O 0.63972 0.07597 0.46349 0.0
O59 O 0.70977 0.13154 0.46704 0.0
C60 C 0.67094 1.02222 0.49554 0.0
O61 O 0.56218 0.06656 0.50595 0.0
O62 O 0.56149 1.02793 0.47999 0.0
C63 C 0.66836 0.09509 0.53479 0.0
C64 C 0.82264 0.22111 0.4978 0.0
C65 C 0.82046 0.2958 0.48875 0.0
C66 C 0.82309 0.28724 0.50875 0.0
C67 C 0.82459 0.25047 0.51323 0.0
C68 C 0.82627 0.233 0.47796 0.0
C69 C 0.82513 0.26994 0.4735 0.0
C70 C 0.80347 0.17493 0.50173 0.0
C71 C 0.67285 0.17626 0.49549 0.0
H72 H 0.45009 0.88425 0.49294 0.0
H73 H 0.50324 0.94956 0.47835 0.0
H74 H 0.50299 1.02555 0.53079 0.0
H75 H 0.44982 0.95956 0.54562 0.0
H76 H 0.82026 0.30674 0.52094 0.0
H77 H 0.82246 0.24267 0.52871 0.0
H78 H 0.82579 0.21173 0.46569 0.0
H79 H 0.82545 0.27682 0.45796 0.0
Tb80 Tb 0.66809 0.57623 0.82442 0.0
Tb81 Tb 0.7204 0.68065 0.82855 0.0
C82 C 0.69361 0.62935 0.78704 0.0
C83 C 0.62617 0.45859 0.83124 0.0
C84 C 0.61162 0.37973 0.8448 0.0
C85 C 0.63178 0.39406 0.82658 0.0
C86 C 0.63876 0.433 0.81983 0.0
C87 C 0.60893 0.44582 0.85016 0.0
C88 C 0.6017 0.4067 0.85686 0.0
C89 C 0.62572 0.49498 0.82229 0.0
O90 O 0.7364 0.59336 0.82234 0.0
O91 O 0.77265 0.66596 0.8326 0.0
O92 O 0.69389 0.65709 0.8575 0.0
O93 O 0.69597 0.5948 0.85428 0.0
O94 O 0.74331 0.73898 0.81493 0.0
O95 O 0.75305 0.7388 0.84665 0.0
O96 O 0.65255 0.66319 0.82267 0.0
O97 O 0.61932 0.59412 0.83247 0.0
O98 O 0.66185 0.59753 0.79571 0.0
O99 O 0.72577 0.66099 0.79776 0.0
C100 C 0.77255 0.62963 0.8278 0.0
O101 O 0.61683 0.51942 0.83411 0.0
O102 O 0.65625 0.51733 0.81007 0.0
C103 C 0.69394 0.62462 0.86551 0.0
C104 C 0.72561 0.78209 0.83523 0.0
C105 C 0.65292 0.79129 0.82967 0.0
C106 C 0.68856 0.81181 0.81741 0.0
C107 C 0.72491 0.80758 0.8203 0.0
C108 C 0.69233 0.76642 0.84908 0.0
C109 C 0.65629 0.77126 0.84636 0.0
C110 C 0.75153 0.76086 0.83216 0.0
C111 C 0.61754 0.6285 0.82806 0.0
H112 H 0.63921 0.37371 0.81679 0.0
H113 H 0.65179 0.44186 0.80516 0.0
H114 H 0.5989 0.46485 0.85937 0.0
H115 H 0.58637 0.39655 0.871 0.0
H116 H 0.68677 0.82798 0.80459 0.0
H117 H 0.75003 0.81985 0.80943 0.0
H118 H 0.69176 0.74642 0.86071 0.0
H119 H 0.62918 0.75528 0.85601 0.0
C120 C 0.76565 0.21525 0.17776 0.0
C121 C 0.80309 0.25068 0.18769 0.0
C122 C 0.8057 0.25311 0.20868 0.0
C123 C 0.73669 0.18668 0.20994 0.0
C124 C 0.73269 0.18327 0.18929 0.0
C125 C 0.69077 0.14197 0.18218 0.0
H126 H 0.50169 0.96366 0.21167 0.0
C127 C 0.69865 0.14927 0.21803 0.0
C128 C 0.67067 0.12224 0.20196 0.0
H129 H 0.5369 0.99048 0.15054 0.0
H130 H 0.60491 1.05582 0.16209 0.0
H131 H 0.59034 0.97929 0.2255 0.0
H132 H 0.53162 1.05822 0.2286 0.0
H133 H 0.5591 0.06804 0.25172 0.0
H134 H 0.51669 1.01404 0.24407 0.0
H135 H 0.55244 0.97382 0.2442 0.0
H136 H 0.60992 1.00997 0.24829 0.0
C137 C 0.70246 0.11237 0.16946 0.0
C138 C 0.66178 0.1542 0.17055 0.0
C139 C 0.69147 0.14003 0.29387 0.0
C140 C 0.66049 0.11006 0.30627 0.0
C141 C 0.62326 0.07404 0.29723 0.0
C142 C 0.61655 0.06827 0.27645 0.0
C143 C 0.64745 0.0986 0.26424 0.0
C144 C 0.68419 0.13362 0.27299 0.0
C145 C 0.71337 0.16237 0.25759 0.0
C146 C 0.68815 0.13861 0.23817 0.0
C147 C 0.64965 0.10145 0.24223 0.0
C148 C 0.75698 0.1629 0.25928 0.0
C149 C 0.71682 0.20716 0.26122 0.0
C150 C 0.52354 0.98359 0.20061 0.0
C151 C 0.51309 0.97189 0.18019 0.0
C152 C 0.54372 0.99859 0.16644 0.0
C153 C 0.58315 1.03653 0.17314 0.0
C154 C 0.59275 1.04766 0.19385 0.0
C155 C 0.56282 1.02042 0.20697 0.0
C156 C 0.57756 1.03387 0.22833 0.0
C157 C 0.6208 0.0743 0.22637 0.0
C158 C 0.63061 0.0836 0.20616 0.0
C159 C 0.58263 0.99747 0.23722 0.0
C160 C 0.54461 1.04385 0.23891 0.0
H161 H 0.77817 0.22647 0.2356 0.0
H162 H 0.76262 0.21214 0.1616 0.0
H163 H 0.6566 0.17798 0.17971 0.0
H164 H 0.62962 0.12586 0.16666 0.0
H165 H 0.67702 0.16891 0.15649 0.0
H166 H 0.72669 0.10764 0.17765 0.0
H167 H 0.71649 0.12676 0.15517 0.0
H168 H 0.67402 0.08009 0.16594 0.0
H169 H 0.72036 0.16822 0.30024 0.0
H170 H 0.59922 1.04984 0.30626 0.0
H171 H 0.5873 1.04027 0.27078 0.0
H172 H 0.75193 0.13139 0.26383 0.0
H173 H 0.7794 0.18824 0.27062 0.0
H174 H 0.7733 0.16744 0.2449 0.0
H175 H 0.68687 0.20412 0.26774 0.0
H176 H 0.72011 0.22335 0.24725 0.0
H177 H 0.74427 0.22884 0.27174 0.0
H178 H 0.83353 0.27964 0.21673 0.0
C179 C 0.77318 0.22188 0.2197 0.0
C180 C 0.67526 0.71098 0.50884 0.0
C181 C 0.67449 0.74673 0.51905 0.0
C182 C 0.67681 0.74984 0.54004 0.0
C183 C 0.68023 0.68395 0.5408 0.0
C184 C 0.67788 0.67955 0.52013 0.0
C185 C 0.67775 0.63805 0.5128 0.0
H186 H 0.69186 0.46133 0.54176 0.0
C187 C 0.68263 0.64733 0.54866 0.0
C188 C 0.68131 0.6195 0.53246 0.0
H189 H 0.67561 0.48415 0.48078 0.0
H190 H 0.67508 0.55044 0.49241 0.0
H191 H 0.76027 0.55645 0.55615 0.0
H192 H 0.6223 0.47926 0.5581 0.0
H193 H 0.63801 0.5112 0.58064 0.0
H194 H 0.65772 0.47427 0.57532 0.0
H195 H 0.73354 0.51441 0.57298 0.0
H196 H 0.74717 0.56929 0.57978 0.0
C197 C 0.71714 0.64978 0.49985 0.0
C198 C 0.6347 0.60753 0.50132 0.0
C199 C 0.69206 0.64289 0.62443 0.0
C200 C 0.69374 0.61321 0.63672 0.0
C201 C 0.69512 0.57751 0.62766 0.0
C202 C 0.69416 0.57101 0.60683 0.0
C203 C 0.69152 0.60035 0.59467 0.0
C204 C 0.69073 0.63563 0.60353 0.0
C205 C 0.68738 0.66302 0.58826 0.0
C206 C 0.68605 0.6382 0.56874 0.0
C207 C 0.68854 0.60168 0.57264 0.0
C208 C 0.72893 0.70817 0.59063 0.0
C209 C 0.64433 0.66305 0.59141 0.0
C210 C 0.68872 0.4805 0.53067 0.0
C211 C 0.68457 0.46728 0.5103 0.0
C212 C 0.67907 0.49325 0.49665 0.0
C213 C 0.67883 0.53176 0.50339 0.0
C214 C 0.68335 0.54435 0.52406 0.0
C215 C 0.68775 0.51796 0.53708 0.0
C216 C 0.69028 0.53315 0.55848 0.0
C217 C 0.68748 0.57346 0.55665 0.0
C218 C 0.68361 0.58128 0.53648 0.0
C219 C 0.73487 0.54367 0.5675 0.0
C220 C 0.65036 0.49777 0.56884 0.0
H221 H 0.68143 0.72449 0.56673 0.0
H222 H 0.67324 0.70734 0.49266 0.0
H223 H 0.60692 0.60252 0.51054 0.0
H224 H 0.63099 0.57547 0.49752 0.0
H225 H 0.63252 0.6213 0.48722 0.0
H226 H 0.74744 0.67395 0.50818 0.0
H227 H 0.71446 0.66379 0.48593 0.0
H228 H 0.72025 0.62125 0.49563 0.0
H229 H 0.69067 0.67053 0.63091 0.0
H230 H 0.6971 0.5545 0.63675 0.0
H231 H 0.6953 0.54312 0.60107 0.0
H232 H 0.75716 0.70579 0.59591 0.0
H233 H 0.72479 0.73001 0.60168 0.0
H234 H 0.73908 0.72381 0.57635 0.0
H235 H 0.61922 0.63231 0.59732 0.0
H236 H 0.62948 0.66509 0.57733 0.0
H237 H 0.64899 0.68978 0.60224 0.0
H238 H 0.67641 0.77655 0.54828 0.0
C239 C 0.67978 0.71924 0.5508 0.0
C240 C 0.30436 0.63081 0.84686 0.0
C241 C 0.33708 0.62578 0.85652 0.0
C242 C 0.33368 0.61905 0.87704 0.0
C243 C 0.2668 0.62117 0.87826 0.0
C244 C 0.2691 0.62805 0.8581 0.0
C245 C 0.22991 0.63113 0.85105 0.0
H246 H 1.03419 0.61514 0.87781 0.0
C247 C 0.22702 0.61918 0.88606 0.0
C248 C 0.20434 0.62478 0.87027 0.0
H249 H 1.08711 0.64196 0.81925 0.0
H250 H 0.15135 0.64018 0.83125 0.0
H251 H 1.05915 0.54524 0.88785 0.0
H252 H 0.11857 0.68216 0.89975 0.0
H253 H 0.13324 0.66463 0.92067 0.0
H254 H 1.07671 0.64515 0.91494 0.0
H255 H 1.03906 0.57042 0.90524 0.0
H256 H 1.07834 0.55611 0.91284 0.0
C257 C 0.20392 0.59465 0.83484 0.0
C258 C 0.24601 0.67623 0.8435 0.0
C259 C 0.1967 0.59457 0.96012 0.0
C260 C 0.16366 0.59258 0.97233 0.0
C261 C 0.13081 0.59771 0.96342 0.0
C262 C 0.13017 0.6036 0.943 0.0
C263 C 0.16314 0.60527 0.93103 0.0
C264 C 0.1959 0.60128 0.93967 0.0
C265 C 0.229 0.60553 0.92471 0.0
C266 C 0.21058 0.61268 0.90568 0.0
C267 C 0.17181 0.61196 0.90949 0.0
C268 C 0.22908 0.56224 0.92301 0.0
C269 C 0.27293 0.64569 0.93172 0.0
C270 C 1.05922 0.62023 0.86739 0.0
C271 C 1.05483 0.6279 0.84751 0.0
C272 C 1.08927 0.63566 0.83469 0.0
C273 C 0.12647 0.63448 0.84164 0.0
C274 C 0.12988 0.62626 0.86175 0.0
C275 C 1.09639 0.62007 0.87411 0.0
C276 C 0.1049 0.61455 0.89523 0.0
C277 C 0.14814 0.61663 0.89377 0.0
C278 C 0.1637 0.62332 0.87413 0.0
C279 C 1.0685 0.56945 0.90079 0.0
C280 C 0.10828 0.65328 0.90846 0.0
H281 H 0.29947 0.61152 0.90335 0.0
H282 H 0.30576 0.63582 0.83105 0.0
H283 H 0.26807 0.70169 0.85492 0.0
H284 H 0.21911 0.68212 0.84046 0.0
H285 H 0.26404 0.68019 0.82955 0.0
H286 H 0.19599 0.56291 0.84031 0.0
H287 H 0.22287 0.59962 0.82113 0.0
H288 H 0.17304 0.59267 0.8307 0.0
H289 H 0.22255 0.59073 0.9662 0.0
H290 H 0.10558 0.59787 0.97227 0.0
H291 H 0.10383 0.60667 0.9374 0.0
H292 H 0.19623 0.53445 0.92522 0.0
H293 H 0.25135 0.56185 0.93447 0.0
H294 H 0.23766 0.55489 0.90804 0.0
H295 H 0.26806 0.67063 0.94001 0.0
H296 H 0.29322 0.66251 0.91915 0.0
H297 H 0.29155 0.63695 0.94184 0.0
H298 H 0.358 0.61526 0.88488 0.0
C299 C 0.29932 0.61686 0.88782 0.0
C300 C 0.9116 0.5713 0.45147 0.0
C301 C 0.87663 0.54871 0.43757 0.0
C302 C 0.88405 0.55652 0.41715 0.0
C303 C 0.9613 0.6001 0.42454 0.0
C304 C 0.9534 0.59591 0.44468 0.0
C305 C 0.99416 0.61447 0.45743 0.0
H306 H 0.21039 0.70115 0.46448 0.0
C307 C 1.00868 0.62086 0.42236 0.0
C308 C 1.02791 0.62932 0.44161 0.0
H309 H 0.12118 0.67183 0.51251 0.0
H310 H 1.06165 0.64601 0.48846 0.0
H311 H 0.14654 0.61263 0.43513 0.0
H312 H 0.17348 0.74402 0.43907 0.0
H313 H 0.16547 0.72711 0.41355 0.0
H314 H 0.20983 0.72919 0.42752 0.0
H315 H 0.19774 0.65766 0.4293 0.0
H316 H 0.15416 0.63067 0.41082 0.0
C317 C 0.99301 0.5777 0.46908 0.0
C318 C 0.99783 0.65294 0.47082 0.0
C319 C 1.07119 0.63512 0.35327 0.0
C320 C 0.11356 0.65074 0.34665 0.0
C321 C 0.14813 0.66801 0.36097 0.0
C322 C 0.14059 0.66888 0.38145 0.0
C323 C 1.09802 0.6523 0.3878 0.0
C324 C 1.06424 0.63641 0.37379 0.0
C325 C 1.02115 0.6203 0.3833 0.0
C326 C 1.0347 0.62933 0.40533 0.0
C327 C 1.0797 0.6475 0.40785 0.0
C328 C 0.99294 0.57131 0.37745 0.0
C329 C 1.00147 0.64766 0.37669 0.0
C330 C 0.17787 0.68809 0.46983 0.0
C331 C 0.17033 0.68799 0.49043 0.0
C332 C 0.12773 0.67217 0.49673 0.0
C333 C 1.09329 0.6574 0.48272 0.0
C334 C 0.10148 0.65844 0.46218 0.0
C335 C 0.14319 0.67346 0.45604 0.0
C336 C 0.14603 0.67356 0.43364 0.0
C337 C 1.09903 0.65614 0.42734 0.0
C338 C 1.0732 0.64715 0.44411 0.0
C339 C 0.16219 0.64228 0.4267 0.0
C340 C 0.17541 0.72075 0.428 0.0
H341 H 0.93011 0.58521 0.39476 0.0
H342 H 0.90766 0.56593 0.46725 0.0
H343 H 0.98431 0.67022 0.46288 0.0
H344 H 1.0317 0.67786 0.47478 0.0
H345 H 0.97972 0.64181 0.48473 0.0
H346 H 0.97584 0.54625 0.46009 0.0
H347 H 0.97596 0.57387 0.48331 0.0
H348 H 1.0254 0.58236 0.47238 0.0
H349 H 1.04376 0.62115 0.34276 0.0
H350 H 0.18116 0.68107 0.35634 0.0
H351 H 0.16824 0.68223 0.39156 0.0
H352 H 1.01298 0.55554 0.37705 0.0
H353 H 0.9772 0.56549 0.36239 0.0
H354 H 0.96787 0.55384 0.38828 0.0
H355 H 1.02712 0.68197 0.37572 0.0
H356 H 0.9786 0.64865 0.38748 0.0
H357 H 0.98485 0.63557 0.36175 0.0
H358 H 0.85766 0.54017 0.40611 0.0
C359 C 0.92623 0.58227 0.41057 0.0
C360 C 0.40631 0.83704 0.77325 0.0
C361 C 0.42293 0.81101 0.76578 0.0
C362 C 0.43623 0.81485 0.74577 0.0
C363 C 0.42951 0.87836 0.74384 0.0
C364 C 0.41224 0.87192 0.76261 0.0
C365 C 0.40997 0.91028 0.77131 0.0
H366 H 0.50386 0.12418 0.77501 0.0
C367 C 0.44029 0.92198 0.73858 0.0
C368 C 0.42925 0.94099 0.75472 0.0
H369 H 0.42764 1.03782 0.81962 0.0
H370 H 0.40268 0.97666 0.79518 0.0
H371 H 0.54546 0.07038 0.75473 0.0
H372 H 0.43374 0.07941 0.74002 0.0
H373 H 0.44292 1.05627 0.71796 0.0
H374 H 0.48324 0.10985 0.72756 0.0
H375 H 0.54419 0.11791 0.74857 0.0
H376 H 0.54427 0.08174 0.72933 0.0
C377 C 0.43793 0.92765 0.7912 0.0
C378 C 0.36181 0.89636 0.77381 0.0
C379 C 0.52513 0.98479 0.67627 0.0
C380 C 0.54067 1.02508 0.66803 0.0
C381 C 0.53051 1.05508 0.6774 0.0
C382 C 0.5077 1.04626 0.69507 0.0
C383 C 0.49488 1.00716 0.70365 0.0
C384 C 0.50171 0.97634 0.69384 0.0
C385 C 0.48221 0.93522 0.70453 0.0
C386 C 0.46258 0.94676 0.7223 0.0
C387 C 0.47182 0.98959 0.72203 0.0
C388 C 0.51948 0.92767 0.71099 0.0
C389 C 0.44699 0.89847 0.69049 0.0
C390 C 0.48176 0.09192 0.77938 0.0
C391 C 0.46878 0.0851 0.79922 0.0
C392 C 0.4386 1.04335 0.80445 0.0
C393 C 0.42469 1.00807 0.79038 0.0
C394 C 0.44183 1.01491 0.77118 0.0
C395 C 0.46785 1.05643 0.76557 0.0
C396 C 0.48139 1.05753 0.74427 0.0
C397 C 0.46311 1.0096 0.73884 0.0
C398 C 0.44064 0.985 0.75481 0.0
C399 C 0.53148 0.08324 0.7441 0.0
C400 C 0.45944 0.07686 0.73176 0.0
H401 H 0.4516 0.85067 0.72002 0.0
H402 H 0.39434 0.83421 0.78824 0.0
H403 H 0.34205 0.87657 0.76033 0.0
H404 H 0.35652 0.92419 0.7755 0.0
H405 H 0.34878 0.8766 0.78692 0.0
H406 H 0.45727 0.91182 0.79385 0.0
H407 H 0.41755 0.9225 0.8044 0.0
H408 H 0.46263 0.96231 0.79125 0.0
H409 H 0.53169 0.9606 0.66954 0.0
H410 H 0.54001 0.08551 0.67105 0.0
H411 H 0.50133 0.07039 0.7016 0.0
H412 H 0.55005 0.95884 0.71428 0.0
H413 H 0.52594 0.90908 0.69903 0.0
H414 H 0.51339 0.91108 0.72499 0.0
H415 H 0.4285 0.91029 0.68212 0.0
H416 H 0.42249 0.87142 0.69865 0.0
H417 H 0.46163 0.88589 0.67934 0.0
H418 H 0.44881 0.79527 0.73921 0.0
C419 C 0.43885 0.84793 0.73467 0.0
C420 C 0.64911 0.41506 0.11646 0.0
C421 C 0.66088 0.39153 0.10285 0.0
C422 C 0.64857 0.38798 0.08245 0.0
C423 C 0.6278 0.44212 0.08899 0.0
C424 C 0.63303 0.44026 0.10924 0.0
C425 C 0.62502 0.47182 0.12156 0.0
H426 H 0.61133 0.65234 0.12606 0.0
C427 C 0.62069 0.47868 0.08619 0.0
C428 C 0.61852 0.49585 0.10525 0.0
H429 H 0.58839 0.5659 0.17315 0.0
H430 H 0.60232 0.52052 0.15064 0.0
H431 H 0.68741 0.64052 0.10156 0.0
H432 H 0.54877 0.58081 0.09764 0.0
H433 H 0.56475 0.57795 0.07315 0.0
H434 H 0.58292 0.6301 0.08609 0.0
H435 H 0.65897 0.66756 0.09465 0.0
H436 H 0.67098 0.63672 0.07634 0.0
C437 C 0.66592 0.50173 0.13496 0.0
C438 C 0.58332 0.44596 0.13334 0.0
C439 C 0.63441 0.53538 0.01721 0.0
C440 C 0.63441 0.5717 0.01028 0.0
C441 C 0.62812 0.59915 0.02405 0.0
C442 C 0.62283 0.59111 0.04434 0.0
C443 C 0.62368 0.55514 0.05103 0.0
C444 C 0.62878 0.52764 0.03751 0.0
C445 C 0.62877 0.49096 0.04733 0.0
C446 C 0.62228 0.50076 0.06899 0.0
C447 C 0.6201 0.53882 0.07105 0.0
C448 C 0.67363 0.49509 0.0443 0.0
C449 C 0.59017 0.44788 0.03843 0.0
C450 C 0.60921 0.62381 0.13177 0.0
C451 C 0.59863 0.6135 0.15176 0.0
C452 C 0.59735 0.576 0.15817 0.0
C453 C 0.60453 0.5488 0.14491 0.0
C454 C 0.6125 0.55848 0.12486 0.0
C455 C 0.61431 0.59521 0.11853 0.0
C456 C 0.61734 0.59728 0.0962 0.0
C457 C 0.61725 0.55573 0.09028 0.0
C458 C 0.61561 0.53386 0.1072 0.0
C459 C 0.66078 0.6377 0.09179 0.0
C460 C 0.57664 0.59683 0.08771 0.0
H461 H 0.62628 0.41153 0.05963 0.0
H462 H 0.65663 0.41801 0.13229 0.0
H463 H 0.56295 0.41232 0.12675 0.0
H464 H 0.56199 0.46013 0.133 0.0
H465 H 0.59108 0.44389 0.14915 0.0
H466 H 0.6956 0.51315 0.12614 0.0
H467 H 0.66873 0.48445 0.14759 0.0
H468 H 0.6665 0.53102 0.14134 0.0
H469 H 0.63968 0.51383 0.00718 0.0
H470 H 0.6271 0.62686 0.01913 0.0
H471 H 0.61855 0.61341 0.05405 0.0
H472 H 0.6999 0.52913 0.04747 0.0
H473 H 0.6765 0.48511 0.02864 0.0
H474 H 0.68075 0.47606 0.05433 0.0
H475 H 0.56285 0.45222 0.03363 0.0
H476 H 0.5763 0.42305 0.04948 0.0
H477 H 0.5997 0.43495 0.02515 0.0
H478 H 0.6547 0.36825 0.07163 0.0
C479 C 0.63228 0.41335 0.07545 0.0
H480 H 0.41914 0.68792 0.18349 0.0
H481 H 0.59833 0.6219 0.19337 0.0
H482 H 0.40908 0.59004 0.22123 0.0
H483 H 0.56073 0.66025 0.14029 0.0
H484 H 0.55196 0.64125 0.21275 0.0
H485 H 0.49495 0.71048 0.17876 0.0
C486 C 0.43324 0.67227 0.19147 0.0
C487 C 0.4074 0.63608 0.20226 0.0
C488 C 0.55528 0.64657 0.19694 0.0
C489 C 0.49386 0.66141 0.19658 0.0
C490 C 0.58119 0.63491 0.18571 0.0
C491 C 0.58223 0.63719 0.16477 0.0
C492 C 0.53141 0.66191 0.18728 0.0
C493 C 0.56119 0.65702 0.15618 0.0
C494 C 0.47653 0.68509 0.18866 0.0
C495 C 0.42761 0.61719 0.21225 0.0
N496 N 0.53622 0.66789 0.16742 0.0
N497 N 0.46952 0.62934 0.20875 0.0
H498 H 0.8466 0.37485 0.50871 0.0
H499 H 0.83307 0.53742 0.47288 0.0
H500 H 0.76888 0.29305 0.45766 0.0
H501 H 0.83084 0.46948 0.41716 0.0
H502 H 0.79824 0.46868 0.48869 0.0
H503 H 0.83365 0.43139 0.49837 0.0
C504 C 0.82618 0.36839 0.49552 0.0
C505 C 0.81009 0.32953 0.48369 0.0
C506 C 0.80444 0.46886 0.47288 0.0
C507 C 0.7948 0.3943 0.47179 0.0
C508 C 0.82397 0.50798 0.46377 0.0
C509 C 0.83745 0.50963 0.44396 0.0
C510 C 0.79808 0.43147 0.46192 0.0
C511 C 0.82269 0.47027 0.43266 0.0
C512 C 0.81832 0.40064 0.48972 0.0
C513 C 0.78371 0.32321 0.46676 0.0
N514 N 0.80499 0.43286 0.44197 0.0
N515 N 0.77786 0.35566 0.46103 0.0
H516 H 0.61251 0.75624 0.79367 0.0
H517 H 0.44804 0.83451 0.80563 0.0
H518 H 0.59576 0.8072 0.85066 0.0
H519 H 0.43258 0.73927 0.75869 0.0
H520 H 0.49342 0.81646 0.82452 0.0
H521 H 0.54249 0.74425 0.7819 0.0
C522 C 0.59403 0.76517 0.80365 0.0
C523 C 0.61029 0.78396 0.82293 0.0
C524 C 0.47931 0.79874 0.81029 0.0
C525 C 0.53001 0.76999 0.80965 0.0
C526 C 0.45267 0.80868 0.7994 0.0
C527 C 0.43731 0.7896 0.77993 0.0
C528 C 0.49167 0.77035 0.80156 0.0
C529 C 0.44524 0.75648 0.77312 0.0
C530 C 0.55379 0.75768 0.79705 0.0
C531 C 0.58455 0.79346 0.83555 0.0
N532 N 0.47301 0.74887 0.78364 0.0
N533 N 0.54592 0.78718 0.82854 0.0
H534 H 0.87563 0.50264 0.17265 0.0
H535 H 0.72424 0.3898 0.07993 0.0
H536 H 0.91839 0.50048 0.11269 0.0
H537 H 0.67795 0.37126 0.14013 0.0
H538 H 0.79479 0.40833 0.09269 0.0
H539 H 0.80571 0.43881 0.16279 0.0
C540 C 0.87048 0.48832 0.1575 0.0
C541 C 0.90203 0.50781 0.14322 0.0
C542 C 0.76909 0.39948 0.10317 0.0
C543 C 0.82254 0.43495 0.13185 0.0
C544 C 0.72805 0.38818 0.09581 0.0
C545 C 0.6952 0.38189 0.10908 0.0
C546 C 0.77769 0.40564 0.12391 0.0
C547 C 0.703 0.37918 0.12941 0.0
C548 C 0.83068 0.45177 0.15188 0.0
C549 C 0.89416 0.48752 0.12392 0.0
N550 N 0.74396 0.39302 0.13635 0.0
N551 N 0.85498 0.45272 0.11872 0.0
H552 H 0.43394 0.8346 0.51907 0.0
H553 H 0.18289 0.74451 0.52234 0.0
H554 H 0.37364 0.90833 0.53831 0.0
H555 H 0.2427 0.68006 0.49144 0.0
H556 H 0.25145 0.79272 0.54035 0.0
H557 H 0.36449 0.7682 0.52129 0.0
C558 C 0.40634 0.83678 0.52423 0.0
C559 C 0.40918 0.87708 0.52782 0.0
C560 C 0.2493 0.76732 0.53001 0.0
C561 C 0.3299 0.80146 0.53039 0.0
C562 C 0.21008 0.7396 0.51979 0.0
C563 C 0.20752 0.70906 0.50497 0.0
C564 C 0.28615 0.76462 0.52522 0.0
C565 C 0.24376 0.70412 0.50232 0.0
C566 C 0.36678 0.79888 0.52555 0.0
C567 C 0.37285 0.87802 0.5351 0.0
N568 N 0.28189 0.73227 0.51203 0.0
N569 N 0.33441 0.84077 0.53567 0.0
H570 H 0.5314 0.32316 0.8576 0.0
H571 H 0.55396 0.13064 0.80935 0.0
H572 H 0.65234 0.33218 0.84141 0.0
H573 H 0.43208 0.12125 0.82346 0.0
H574 H 0.59167 0.1982 0.8301 0.0
H575 H 0.49699 0.24471 0.855 0.0
C576 C 0.55112 0.30869 0.85416 0.0
C577 C 0.59458 0.33417 0.84921 0.0
C578 C 0.55665 0.18115 0.82901 0.0
C579 C 0.55508 0.24444 0.84569 0.0
C580 C 0.53522 0.14271 0.81714 0.0
C581 C 0.49013 0.12125 0.81447 0.0
C582 C 0.53281 0.19868 0.83789 0.0
C583 C 0.467 0.13742 0.82504 0.0
C584 C 0.5313 0.2638 0.85251 0.0
C585 C 0.61846 0.31362 0.84481 0.0
N586 N 0.48872 0.17584 0.836 0.0
N587 N 0.59816 0.2699 0.84273 0.0
H588 H 0.60341 0.94353 0.5058 0.0
H589 H 0.73617 0.81538 0.49904 0.0
H590 H 0.73561 1.00229 0.48762 0.0
H591 H 0.6059 0.76065 0.51908 0.0
H592 H 0.73495 0.88141 0.49168 0.0
H593 H 0.60245 0.87519 0.50825 0.0
C594 C 0.63231 0.94225 0.50223 0.0
C595 C 0.6697 0.97944 0.49651 0.0
C596 C 0.70626 0.85465 0.4973 0.0
C597 C 0.66876 0.89992 0.49932 0.0
C598 C 0.70675 0.81656 0.50122 0.0
C599 C 0.67067 0.7816 0.50921 0.0
C600 C 0.66952 0.85835 0.50155 0.0
C601 C 0.63412 0.78612 0.5125 0.0
C602 C 0.63171 0.9029 0.50365 0.0
C603 C 0.70595 0.97492 0.49212 0.0
N604 N 0.63458 0.82346 0.50877 0.0
N605 N 0.70459 0.93628 0.49366 0.0
H606 H 0.7844 0.55935 0.82861 0.0
H607 H 1.04555 0.69207 0.8308 0.0
H608 H 0.85726 0.69831 0.82983 0.0
H609 H 0.97065 0.56337 0.85036 0.0
H610 H 0.97776 0.69315 0.82504 0.0
H611 H 0.85242 0.55858 0.83146 0.0
C612 C 0.81462 0.5898 0.82935 0.0
C613 C 0.81454 0.62898 0.82901 0.0
C614 C 0.97614 0.66451 0.83041 0.0
C615 C 0.8936 0.62822 0.8321 0.0
C616 C 1.01489 0.66372 0.8335 0.0
C617 C 1.01406 0.62745 0.84097 0.0
C618 C 0.93592 0.62849 0.83447 0.0
C619 C 0.9731 0.592 0.84453 0.0
C620 C 0.85364 0.5893 0.83105 0.0
C621 C 0.85528 0.66725 0.83012 0.0
N622 N 0.93605 0.59337 0.84122 0.0
N623 N 0.89288 0.66589 0.83152 0.0
H624 H 0.2406 0.76578 0.17468 0.0
H625 H 0.49671 0.90097 0.15466 0.0
H626 H 0.31166 0.70518 0.15234 0.0
H627 H 0.4318 0.94993 0.19268 0.0
H628 H 0.42779 0.83205 0.14922 0.0
H629 H 0.30832 0.83562 0.17723 0.0
C630 C 0.27026 0.767 0.17018 0.0
C631 C 0.26985 0.72894 0.16329 0.0
C632 C 0.42854 0.85802 0.15861 0.0
C633 C 0.3484 0.80988 0.16604 0.0
C634 C 0.4679 0.89763 0.16156 0.0
C635 C 0.4704 0.93171 0.17413 0.0
C636 C 0.39088 0.85232 0.16802 0.0
C637 C 0.43174 0.9248 0.1829 0.0
C638 C 0.30913 0.80709 0.1717 0.0
C639 C 0.30992 0.73324 0.15779 0.0
N640 N 0.39398 0.88632 0.17968 0.0
N641 N 0.34719 0.77265 0.15921 0.0
H642 H 0.73247 0.25226 0.5159 0.0
H643 H 0.6304 0.39745 0.48363 0.0
H644 H 0.61959 0.20093 0.47659 0.0
H645 H 0.74126 0.44264 0.5237 0.0
H646 H 0.628 0.32746 0.47857 0.0
H647 H 0.73756 0.32282 0.51707 0.0
C648 C 0.70877 0.25569 0.50737 0.0
C649 C 0.67561 0.21993 0.49607 0.0
C650 C 0.65304 0.35283 0.48836 0.0
C651 C 0.68113 0.30217 0.49748 0.0
C652 C 0.65467 0.39309 0.49112 0.0
C653 C 0.68587 0.42641 0.50428 0.0
C654 C 0.68298 0.34553 0.49873 0.0
C655 C 0.71613 0.41811 0.51365 0.0
C656 C 0.71165 0.29632 0.50811 0.0
C657 C 0.64574 0.22714 0.48557 0.0
N658 N 0.71378 0.37895 0.51079 0.0
N659 N 0.64917 0.26711 0.48654 0.0
H660 H 0.53873 0.56209 0.83863 0.0
H661 H 0.40901 0.69268 0.83977 0.0
H662 H 0.59796 0.69294 0.8213 0.0
H663 H 0.35281 0.55896 0.85193 0.0
H664 H 0.47692 0.69395 0.83118 0.0
H665 H 0.47031 0.56106 0.84226 0.0
C666 C 0.53756 0.59079 0.83555 0.0
C667 C 0.57491 0.62783 0.82975 0.0
C668 C 0.44946 0.66412 0.83533 0.0
C669 C 0.49513 0.62688 0.83402 0.0
C670 C 0.41039 0.66324 0.84001 0.0
C671 C 0.37455 0.62539 0.84628 0.0
C672 C 0.45307 0.627 0.83704 0.0
C673 C 0.37913 0.58869 0.84692 0.0
C674 C 0.49811 0.59014 0.83763 0.0
C675 C 0.57046 0.66377 0.82597 0.0
N676 N 0.41731 0.59051 0.84254 0.0
N677 N 0.53164 0.66251 0.82825 0.0
H678 H 1.06937 0.45044 0.176 0.0
H679 H 0.80848 0.31656 0.16568 0.0
H680 H 0.99701 0.50037 0.14744 0.0
H681 H 0.88612 0.26659 0.1884 0.0
H682 H 0.87541 0.38218 0.15705 0.0
H683 H 1.00209 0.38236 0.1793 0.0
C684 C 1.03943 0.44725 0.17033 0.0
C685 C 1.03948 0.48194 0.16151 0.0
C686 C 0.8778 0.3565 0.16357 0.0
C687 C 0.96089 0.40277 0.16542 0.0
C688 C 0.83944 0.31867 0.16825 0.0
C689 C 0.84135 0.28532 0.17746 0.0
C690 C 0.91865 0.36143 0.16829 0.0
C691 C 0.88278 0.29092 0.18105 0.0
C692 C 1.00071 0.40805 0.17224 0.0
C693 C 0.999 0.47504 0.1545 0.0
N694 N 0.91934 0.32795 0.17663 0.0
N695 N 0.96161 0.43665 0.15671 0.0
H696 H 0.21452 0.57564 0.09911 0.0
H697 H 1.09316 0.55042 0.99589 0.0
H698 H 0.10896 0.60084 0.09461 0.0
H699 H 0.23303 0.61905 -0.0008 0.0
H700 H 1.09279 0.54758 0.03211 0.0
H701 H 0.21609 0.57094 0.06217 0.0
C702 C 0.19142 0.57963 0.09034 0.0
C703 C 0.16165 0.58877 0.0998 0.0
C704 C 0.12349 0.56296 0.02481 0.0
C705 C 0.16266 0.58253 0.05802 0.0
C706 C 0.12389 0.56505 0.0041 0.0
C707 C 0.16327 0.58612 0.99425 0.0
C708 C 0.16261 0.5809 0.03589 0.0
C709 C 0.20182 0.60247 0.00593 0.0
C710 C 0.19252 0.57721 0.06939 0.0
C711 C 0.13257 0.594 0.08785 0.0
N712 N 0.20054 0.59961 0.02616 0.0
N713 N 0.13354 0.59045 0.0676 0.0
H714 H 0.60525 0.06988 0.43006 0.0
H715 H 0.73504 0.13885 0.32963 0.0
H716 H 0.74448 0.14949 0.43148 0.0
H717 H 0.59867 0.09436 0.33376 0.0
H718 H 0.74098 0.14157 0.36631 0.0
H719 H 0.60373 0.07539 0.3942 0.0
C720 C 0.63566 0.08851 0.42283 0.0
C721 C 0.67512 0.10909 0.43388 0.0
C722 C 0.70988 0.13148 0.35912 0.0
C723 C 0.6735 0.11557 0.39242 0.0
C724 C 0.70647 0.13008 0.3382 0.0
C725 C 0.66612 0.11568 0.3285 0.0
C726 C 0.67265 0.11816 0.37037 0.0
C727 C 0.63021 0.10454 0.34044 0.0
C728 C 0.6347 0.09184 0.40228 0.0
C729 C 0.71333 0.13307 0.42356 0.0
N730 N 0.63429 0.10567 0.36063 0.0
N731 N 0.71163 0.13542 0.40335 0.0
H732 H 0.63623 0.56463 0.76072 0.0
H733 H 0.74005 0.68668 0.66168 0.0
H734 H 0.74901 0.69217 0.76272 0.0
H735 H 0.64538 0.55123 0.66217 0.0
H736 H 0.73974 0.6926 0.69841 0.0
H737 H 0.63524 0.5625 0.72439 0.0
C738 C 0.66083 0.59232 0.75354 0.0
C739 C 0.69289 0.62861 0.76487 0.0
C740 C 0.71906 0.66164 0.69044 0.0
C741 C 0.69185 0.62631 0.72297 0.0
C742 C 0.71903 0.6583 0.6695 0.0
C743 C 0.69295 0.61832 0.65886 0.0
C744 C 0.69242 0.62483 0.70075 0.0
C745 C 0.6665 0.58253 0.66976 0.0
C746 C 0.66026 0.59101 0.73272 0.0
C747 C 0.72381 0.66345 0.7546 0.0
N748 N 0.66692 0.58666 0.69003 0.0
N749 N 0.72253 0.66146 0.73421 0.0
H750 H 0.66146 1.0277 0.55452 0.0
H751 H 0.60668 0.1046 0.65859 0.0
H752 H 0.65719 0.14549 0.5629 0.0
H753 H 0.53611 0.97099 0.63575 0.0
H754 H 0.64524 0.1233 0.62747 0.0
H755 H 0.63586 1.01024 0.58874 0.0
C756 C 0.65634 1.05038 0.56381 0.0
C757 C 0.66155 0.08814 0.55614 0.0
C758 C 0.62153 0.08987 0.62944 0.0
C759 C 0.6328 0.06869 0.59482 0.0
C760 C 0.59906 0.07909 0.64711 0.0
C761 C 0.56711 1.03614 0.64978 0.0
C762 C 0.61293 1.05747 0.61446 0.0
C763 C 0.56038 1.00447 0.63454 0.0
C764 C 0.6414 1.04025 0.58314 0.0
C765 C 0.65365 0.11616 0.56844 0.0
N766 N 0.58301 1.0158 0.6175 0.0
N767 N 0.63974 0.10595 0.58724 0.0
H768 H 0.67161 0.55159 0.88442 0.0
H769 H 0.67995 0.65094 0.99441 0.0
H770 H 0.69892 0.68282 0.89552 0.0
H771 H 0.60595 0.51437 0.97725 0.0
H772 H 0.69411 0.6653 0.95917 0.0
H773 H 0.65615 0.53968 0.91953 0.0
C774 C 0.67469 0.57809 0.89427 0.0
C775 C 0.68668 0.61837 0.88703 0.0
C776 C 0.67463 0.63227 0.96319 0.0
C777 C 0.6688 0.6047 0.92734 0.0
C778 C 0.66628 0.62397 0.98328 0.0
C779 C 0.64184 0.58128 0.9889 0.0
C780 C 0.65894 0.59764 0.94866 0.0
C781 C 0.62572 0.54771 0.97376 0.0
C782 C 0.66551 0.57109 0.91431 0.0
C783 C 0.68975 0.65129 0.90051 0.0
N784 N 0.63481 0.55661 0.95438 0.0
N785 N 0.68102 0.6438 0.92011 0.0
H786 H 1.08543 0.62394 0.21788 0.0
H787 H 0.17172 0.63171 0.32874 0.0
H788 H 0.20359 0.62309 0.23032 0.0
H789 H 1.07347 0.66377 0.31501 0.0
H790 H 0.18246 0.62546 0.29297 0.0
H791 H 1.07849 0.63464 0.25361 0.0
C792 C 0.10996 0.62599 0.22813 0.0
C793 C 0.14513 0.62253 0.22109 0.0
C794 C 0.1587 0.63405 0.29782 0.0
C795 C 0.13727 0.63472 0.26213 0.0
C796 C 0.15268 0.63787 0.31825 0.0
C797 C 0.12152 0.6482 0.32497 0.0
C798 C 0.13317 0.64025 0.28396 0.0
C799 C 1.0973 0.65499 0.31059 0.0
C800 C 0.10603 0.63226 0.24855 0.0
C801 C 0.17598 0.62563 0.2351 0.0
N802 N 0.10352 0.65071 0.2908 0.0
N803 N 0.17122 0.63134 0.25499 0.0
loop_
_geom_bond_atom_site_label_1
_geom_bond_atom_site_label_2
_geom_bond_distance
_geom_bond_site_symmetry_2
_ccdc_geom_bond_type
Tb0 C9 2.764 1_455 S
Tb0 O10 2.325 1_455 S
Tb0 O13 2.303 . S
Tb0 O17 2.322 . S
Tb0 O18 2.349 . S
Tb0 O21 2.415 1_455 S
Tb0 O22 2.399 1_455 S
Tb1 O11 2.322 . S
Tb1 O12 2.349 . S
Tb1 O14 2.415 . S
Tb1 O15 2.399 . S
Tb1 O16 2.325 . S
Tb1 O19 2.303 . S
Tb1 C30 2.764 . S
C2 O18 1.261 . S
C2 O19 1.257 . S
C3 C6 1.358 . S
C3 C7 1.332 . S
C3 C9 1.504 . S
C4 C5 1.373 . S
C4 C8 1.308 . S
C5 C4 1.373 . S
C5 C6 1.429 . S
C5 H32 0.932 . S
C6 C3 1.358 . S
C6 C5 1.429 . S
C6 H33 0.930 . S
C7 C3 1.332 . S
C7 C8 1.394 . S
C7 H34 0.932 . S
C8 C4 1.308 . S
C8 C7 1.394 . S
C8 H35 0.929 . S
C9 Tb0 2.764 1_655 S
C9 C3 1.504 . S
C9 O21 1.239 . S
C9 O22 1.263 . S
O10 Tb0 2.325 1_655 S
O10 C20 1.236 . S
O11 Tb1 2.322 . S
O11 C20 1.257 1_455 S
O12 Tb1 2.349 . S
O12 C23 1.261 . S
O13 Tb0 2.303 . S
O13 C23 1.257 . S
O14 Tb1 2.415 . S
O14 C30 1.239 . S
O15 Tb1 2.399 . S
O15 C30 1.263 . S
O16 Tb1 2.325 . S
O16 C31 1.236 . S
O17 Tb0 2.322 . S
O17 C31 1.257 . S
O18 Tb0 2.349 . S
O18 C2 1.261 . S
O19 Tb1 2.303 . S
O19 C2 1.257 . S
C20 O10 1.236 . S
C20 O11 1.257 1_655 S
O21 Tb0 2.415 1_655 S
O21 C9 1.239 . S
O22 Tb0 2.399 1_655 S
O22 C9 1.263 . S
C23 O12 1.261 . S
C23 O13 1.257 . S
C24 C27 1.358 . S
C24 C28 1.332 . S
C24 C30 1.504 . S
C25 C26 1.373 . S
C25 C29 1.308 . S
C26 C25 1.373 . S
C26 C27 1.429 . S
C26 H36 0.932 . S
C27 C24 1.358 . S
C27 C26 1.429 . S
C27 H37 0.930 . S
C28 C24 1.332 . S
C28 C29 1.394 . S
C28 H38 0.932 . S
C29 C25 1.308 . S
C29 C28 1.394 . S
C29 H39 0.929 . S
C30 Tb1 2.764 . S
C30 O14 1.239 . S
C30 O15 1.263 . S
C30 C24 1.504 . S
C31 O16 1.236 . S
C31 O17 1.257 . S
H32 C5 0.932 . S
H33 C6 0.930 . S
H34 C7 0.932 . S
H35 C8 0.929 . S
H36 C26 0.932 . S
H37 C27 0.930 . S
H38 C28 0.932 . S
H39 C29 0.929 . S
Tb40 C49 2.764 . S
Tb40 O50 2.325 . S
Tb40 O53 2.303 1_565 S
Tb40 O57 2.322 1_565 S
Tb40 O58 2.349 1_565 S
Tb40 O61 2.415 . S
Tb40 O62 2.399 . S
Tb41 O51 2.322 1_545 S
Tb41 O52 2.349 . S
Tb41 O54 2.415 . S
Tb41 O55 2.399 . S
Tb41 O56 2.325 . S
Tb41 O59 2.303 . S
Tb41 C70 2.764 . S
C42 O58 1.261 . S
C42 O59 1.257 . S
C43 C46 1.358 . S
C43 C47 1.332 . S
C43 C49 1.504 . S
C44 C45 1.373 . S
C44 C48 1.308 . S
C45 C44 1.373 . S
C45 C46 1.429 . S
C45 H72 0.932 . S
C46 C43 1.358 . S
C46 C45 1.429 . S
C46 H73 0.930 . S
C47 C43 1.332 . S
C47 C48 1.394 . S
C47 H74 0.932 . S
C48 C44 1.308 . S
C48 C47 1.394 . S
C48 H75 0.929 . S
C49 Tb40 2.764 . S
C49 C43 1.504 . S
C49 O61 1.239 . S
C49 O62 1.263 . S
O50 Tb40 2.325 . S
O50 C60 1.236 . S
O51 Tb41 2.322 1_565 S
O51 C60 1.257 . S
O52 Tb41 2.349 . S
O52 C63 1.261 . S
O53 Tb40 2.303 1_545 S
O53 C63 1.257 . S
O54 Tb41 2.415 . S
O54 C70 1.239 . S
O55 Tb41 2.399 . S
O55 C70 1.263 . S
O56 Tb41 2.325 . S
O56 C71 1.236 . S
O57 Tb40 2.322 1_545 S
O57 C71 1.257 . S
O58 Tb40 2.349 1_545 S
O58 C42 1.261 . S
O59 Tb41 2.303 . S
O59 C42 1.257 . S
C60 O50 1.236 . S
C60 O51 1.257 . S
O61 Tb40 2.415 . S
O61 C49 1.239 . S
O62 Tb40 2.399 . S
O62 C49 1.263 . S
C63 O52 1.261 . S
C63 O53 1.257 . S
C64 C67 1.358 . S
C64 C68 1.332 . S
C64 C70 1.504 . S
C65 C66 1.373 . S
C65 C69 1.308 . S
C66 C65 1.373 . S
C66 C67 1.429 . S
C66 H76 0.932 . S
C67 C64 1.358 . S
C67 C66 1.429 . S
C67 H77 0.930 . S
C68 C64 1.332 . S
C68 C69 1.394 . S
C68 H78 0.932 . S
C69 C65 1.308 . S
C69 C68 1.394 . S
C69 H79 0.929 . S
C70 Tb41 2.764 . S
C70 O54 1.239 . S
C70 O55 1.263 . S
C70 C64 1.504 . S
C71 O56 1.236 . S
C71 O57 1.257 . S
H72 C45 0.932 . S
H73 C46 0.930 . S
H74 C47 0.932 . S
H75 C48 0.929 . S
H76 C66 0.932 . S
H77 C67 0.930 . S
H78 C68 0.932 . S
H79 C69 0.929 . S
Tb80 C89 2.764 . S
Tb80 O90 2.325 . S
Tb80 O93 2.303 . S
Tb80 O97 2.322 . S
Tb80 O98 2.349 . S
Tb80 O101 2.415 . S
Tb80 O102 2.399 . S
Tb81 O91 2.322 . S
Tb81 O92 2.349 . S
Tb81 O94 2.415 . S
Tb81 O95 2.399 . S
Tb81 O96 2.325 . S
Tb81 O99 2.303 . S
Tb81 C110 2.764 . S
C82 O98 1.261 . S
C82 O99 1.257 . S
C83 C86 1.358 . S
C83 C87 1.332 . S
C83 C89 1.504 . S
C84 C85 1.373 . S
C84 C88 1.308 . S
C85 C84 1.373 . S
C85 C86 1.429 . S
C85 H112 0.932 . S
C86 C83 1.358 . S
C86 C85 1.429 . S
C86 H113 0.930 . S
C87 C83 1.332 . S
C87 C88 1.394 . S
C87 H114 0.932 . S
C88 C84 1.308 . S
C88 C87 1.394 . S
C88 H115 0.929 . S
C89 Tb80 2.764 . S
C89 C83 1.504 . S
C89 O101 1.239 . S
C89 O102 1.263 . S
O90 Tb80 2.325 . S
O90 C100 1.236 . S
O91 Tb81 2.322 . S
O91 C100 1.257 . S
O92 Tb81 2.349 . S
O92 C103 1.261 . S
O93 Tb80 2.303 . S
O93 C103 1.257 . S
O94 Tb81 2.415 . S
O94 C110 1.239 . S
O95 Tb81 2.399 . S
O95 C110 1.263 . S
O96 Tb81 2.325 . S
O96 C111 1.236 . S
O97 Tb80 2.322 . S
O97 C111 1.257 . S
O98 Tb80 2.349 . S
O98 C82 1.261 . S
O99 Tb81 2.303 . S
O99 C82 1.257 . S
C100 O90 1.236 . S
C100 O91 1.257 . S
O101 Tb80 2.415 . S
O101 C89 1.239 . S
O102 Tb80 2.399 . S
O102 C89 1.263 . S
C103 O92 1.261 . S
C103 O93 1.257 . S
C104 C107 1.358 . S
C104 C108 1.332 . S
C104 C110 1.504 . S
C105 C106 1.373 . S
C105 C109 1.308 . S
C106 C105 1.373 . S
C106 C107 1.429 . S
C106 H116 0.932 . S
C107 C104 1.358 . S
C107 C106 1.429 . S
C107 H117 0.930 . S
C108 C104 1.332 . S
C108 C109 1.394 . S
C108 H118 0.932 . S
C109 C105 1.308 . S
C109 C108 1.394 . S
C109 H119 0.929 . S
C110 Tb81 2.764 . S
C110 O94 1.239 . S
C110 O95 1.263 . S
C110 C104 1.504 . S
C111 O96 1.236 . S
C111 O97 1.257 . S
H112 C85 0.932 . S
H113 C86 0.930 . S
H114 C87 0.932 . S
H115 C88 0.929 . S
H116 C106 0.932 . S
H117 C107 0.930 . S
H118 C108 0.932 . S
H119 C109 0.929 . S
C120 C121 1.391 . S
C120 C124 1.391 . S
C120 H162 0.948 . S
C121 C120 1.391 . S
C121 C122 1.391 . S
C122 C121 1.391 . S
C122 H178 0.947 . S
C122 C179 1.392 . S
C123 C124 1.391 . S
C123 C127 1.397 . S
C123 C179 1.419 . S
C124 C120 1.391 . S
C124 C123 1.391 . S
C124 C125 1.399 . S
C125 C124 1.399 . S
C125 C128 1.396 . S
C125 C137 1.453 . S
C125 C138 1.684 . S
H126 C150 0.948 . S
C127 C123 1.397 . S
C127 C128 1.394 . S
C127 C146 1.723 . S
C128 C125 1.396 . S
C128 C127 1.394 . S
C128 C158 1.723 1_545 S
H129 C152 0.947 . S
H130 C153 0.948 . S
H131 C159 0.982 . S
H132 C160 0.979 . S
H133 C160 0.980 . S
H134 C160 0.983 . S
H135 C159 0.979 . S
H136 C159 0.977 . S
C137 C125 1.453 . S
C137 H166 0.982 . S
C137 H167 0.979 . S
C137 H168 0.977 . S
C138 C125 1.684 . S
C138 H163 0.979 . S
C138 H164 0.980 . S
C138 H165 0.983 . S
C139 C140 1.391 . S
C139 C144 1.391 . S
C139 H169 0.948 . S
C140 C139 1.391 . S
C140 C141 1.391 . S
C141 C140 1.391 . S
C141 C142 1.392 1_545 S
C141 H170 0.947 1_545 S
C142 C141 1.392 1_565 S
C142 C143 1.419 1_565 S
C142 H171 0.948 . S
C143 C142 1.419 1_545 S
C143 C144 1.391 . S
C143 C147 1.397 . S
C144 C139 1.391 . S
C144 C143 1.391 . S
C144 C145 1.399 . S
C145 C144 1.399 . S
C145 C146 1.396 . S
C145 C148 1.453 . S
C145 C149 1.684 . S
C146 C127 1.723 . S
C146 C145 1.396 . S
C146 C147 1.394 . S
C147 C143 1.397 . S
C147 C146 1.394 . S
C147 C157 1.723 1_545 S
C148 C145 1.453 . S
C148 H172 0.982 . S
C148 H173 0.979 . S
C148 H174 0.977 . S
C149 C145 1.684 . S
C149 H175 0.979 . S
C149 H176 0.980 . S
C149 H177 0.983 . S
C150 H126 0.948 . S
C150 C151 1.391 . S
C150 C155 1.391 . S
C151 C150 1.391 . S
C151 C152 1.391 . S
C152 H129 0.947 . S
C152 C151 1.391 . S
C152 C153 1.392 . S
C153 H130 0.948 . S
C153 C152 1.392 . S
C153 C154 1.419 . S
C154 C153 1.419 . S
C154 C155 1.391 . S
C154 C158 1.397 . S
C155 C150 1.391 . S
C155 C154 1.391 . S
C155 C156 1.399 . S
C156 C155 1.399 . S
C156 C157 1.396 . S
C156 C159 1.453 . S
C156 C160 1.684 . S
C157 C147 1.723 1_565 S
C157 C156 1.396 . S
C157 C158 1.394 . S
C158 C128 1.723 1_565 S
C158 C154 1.397 . S
C158 C157 1.394 . S
C159 H131 0.982 . S
C159 H135 0.979 . S
C159 H136 0.977 . S
C159 C156 1.453 . S
C160 H132 0.979 . S
C160 H133 0.980 . S
C160 H134 0.983 . S
C160 C156 1.684 . S
H161 C179 0.948 . S
H162 C120 0.948 . S
H163 C138 0.979 . S
H164 C138 0.980 . S
H165 C138 0.983 . S
H166 C137 0.982 . S
H167 C137 0.979 . S
H168 C137 0.977 . S
H169 C139 0.948 . S
H170 C141 0.947 1_565 S
H171 C142 0.948 . S
H172 C148 0.982 . S
H173 C148 0.979 . S
H174 C148 0.977 . S
H175 C149 0.979 . S
H176 C149 0.980 . S
H177 C149 0.983 . S
H178 C122 0.947 . S
C179 C122 1.392 . S
C179 C123 1.419 . S
C179 H161 0.948 . S
C180 C181 1.391 . S
C180 C184 1.391 . S
C180 H222 0.948 . S
C181 C180 1.391 . S
C181 C182 1.391 . S
C182 C181 1.391 . S
C182 H238 0.947 . S
C182 C239 1.392 . S
C183 C184 1.391 . S
C183 C187 1.397 . S
C183 C239 1.419 . S
C184 C180 1.391 . S
C184 C183 1.391 . S
C184 C185 1.399 . S
C185 C184 1.399 . S
C185 C188 1.396 . S
C185 C197 1.453 . S
C185 C198 1.684 . S
H186 C210 0.948 . S
C187 C183 1.397 . S
C187 C188 1.394 . S
C187 C206 1.723 . S
C188 C185 1.396 . S
C188 C187 1.394 . S
C188 C218 1.723 . S
H189 C212 0.947 . S
H190 C213 0.948 . S
H191 C219 0.982 . S
H192 C220 0.979 . S
H193 C220 0.980 . S
H194 C220 0.983 . S
H195 C219 0.979 . S
H196 C219 0.977 . S
C197 C185 1.453 . S
C197 H226 0.982 . S
C197 H227 0.979 . S
C197 H228 0.977 . S
C198 C185 1.684 . S
C198 H223 0.979 . S
C198 H224 0.980 . S
C198 H225 0.983 . S
C199 C200 1.391 . S
C199 C204 1.391 . S
C199 H229 0.948 . S
C200 C199 1.391 . S
C200 C201 1.391 . S
C201 C200 1.391 . S
C201 C202 1.392 . S
C201 H230 0.947 . S
C202 C201 1.392 . S
C202 C203 1.419 . S
C202 H231 0.948 . S
C203 C202 1.419 . S
C203 C204 1.391 . S
C203 C207 1.397 . S
C204 C199 1.391 . S
C204 C203 1.391 . S
C204 C205 1.399 . S
C205 C204 1.399 . S
C205 C206 1.396 . S
C205 C208 1.453 . S
C205 C209 1.684 . S
C206 C187 1.723 . S
C206 C205 1.396 . S
C206 C207 1.394 . S
C207 C203 1.397 . S
C207 C206 1.394 . S
C207 C217 1.723 . S
C208 C205 1.453 . S
C208 H232 0.982 . S
C208 H233 0.979 . S
C208 H234 0.977 . S
C209 C205 1.684 . S
C209 H235 0.979 . S
C209 H236 0.980 . S
C209 H237 0.983 . S
C210 H186 0.948 . S
C210 C211 1.391 . S
C210 C215 1.391 . S
C211 C210 1.391 . S
C211 C212 1.391 . S
C212 H189 0.947 . S
C212 C211 1.391 . S
C212 C213 1.392 . S
C213 H190 0.948 . S
C213 C212 1.392 . S
C213 C214 1.419 . S
C214 C213 1.419 . S
C214 C215 1.391 . S
C214 C218 1.397 . S
C215 C210 1.391 . S
C215 C214 1.391 . S
C215 C216 1.399 . S
C216 C215 1.399 . S
C216 C217 1.396 . S
C216 C219 1.453 . S
C216 C220 1.684 . S
C217 C207 1.723 . S
C217 C216 1.396 . S
C217 C218 1.394 . S
C218 C188 1.723 . S
C218 C214 1.397 . S
C218 C217 1.394 . S
C219 H191 0.982 . S
C219 H195 0.979 . S
C219 H196 0.977 . S
C219 C216 1.453 . S
C220 H192 0.979 . S
C220 H193 0.980 . S
C220 H194 0.983 . S
C220 C216 1.684 . S
H221 C239 0.948 . S
H222 C180 0.948 . S
H223 C198 0.979 . S
H224 C198 0.980 . S
H225 C198 0.983 . S
H226 C197 0.982 . S
H227 C197 0.979 . S
H228 C197 0.977 . S
H229 C199 0.948 . S
H230 C201 0.947 . S
H231 C202 0.948 . S
H232 C208 0.982 . S
H233 C208 0.979 . S
H234 C208 0.977 . S
H235 C209 0.979 . S
H236 C209 0.980 . S
H237 C209 0.983 . S
H238 C182 0.947 . S
C239 C182 1.392 . S
C239 C183 1.419 . S
C239 H221 0.948 . S
C240 C241 1.391 . S
C240 C244 1.391 . S
C240 H282 0.948 . S
C241 C240 1.391 . S
C241 C242 1.391 . S
C242 C241 1.391 . S
C242 H298 0.947 . S
C242 C299 1.392 . S
C243 C244 1.391 . S
C243 C247 1.397 . S
C243 C299 1.419 . S
C244 C240 1.391 . S
C244 C243 1.391 . S
C244 C245 1.399 . S
C245 C244 1.399 . S
C245 C248 1.396 . S
C245 C257 1.453 . S
C245 C258 1.684 . S
H246 C270 0.948 . S
C247 C243 1.397 . S
C247 C248 1.394 . S
C247 C266 1.723 . S
C248 C245 1.396 . S
C248 C247 1.394 . S
C248 C278 1.723 . S
H249 C272 0.947 . S
H250 C273 0.948 . S
H251 C279 0.982 . S
H252 C280 0.979 1_455 S
H253 C280 0.980 . S
H254 C280 0.983 . S
H255 C279 0.979 . S
H256 C279 0.977 . S
C257 C245 1.453 . S
C257 H286 0.982 . S
C257 H287 0.979 . S
C257 H288 0.977 . S
C258 C245 1.684 . S
C258 H283 0.979 . S
C258 H284 0.980 . S
C258 H285 0.983 . S
C259 C260 1.391 . S
C259 C264 1.391 . S
C259 H289 0.948 . S
C260 C259 1.391 . S
C260 C261 1.391 . S
C261 C260 1.391 . S
C261 C262 1.392 . S
C261 H290 0.947 . S
C262 C261 1.392 . S
C262 C263 1.419 . S
C262 H291 0.948 . S
C263 C262 1.419 . S
C263 C264 1.391 . S
C263 C267 1.397 . S
C264 C259 1.391 . S
C264 C263 1.391 . S
C264 C265 1.399 . S
C265 C264 1.399 . S
C265 C266 1.396 . S
C265 C268 1.453 . S
C265 C269 1.684 . S
C266 C247 1.723 . S
C266 C265 1.396 . S
C266 C267 1.394 . S
C267 C263 1.397 . S
C267 C266 1.394 . S
C267 C277 1.723 . S
C268 C265 1.453 . S
C268 H292 0.982 . S
C268 H293 0.979 . S
C268 H294 0.977 . S
C269 C265 1.684 . S
C269 H295 0.979 . S
C269 H296 0.980 . S
C269 H297 0.983 . S
C270 H246 0.948 . S
C270 C271 1.391 . S
C270 C275 1.391 . S
C271 C270 1.391 . S
C271 C272 1.391 . S
C272 H249 0.947 . S
C272 C271 1.391 . S
C272 C273 1.392 1_655 S
C273 H250 0.948 . S
C273 C272 1.392 1_455 S
C273 C274 1.419 . S
C274 C273 1.419 . S
C274 C275 1.391 1_455 S
C274 C278 1.397 . S
C275 C270 1.391 . S
C275 C274 1.391 1_655 S
C275 C276 1.399 . S
C276 C275 1.399 . S
C276 C277 1.396 1_655 S
C276 C279 1.453 . S
C276 C280 1.684 . S
C277 C267 1.723 . S
C277 C276 1.396 1_455 S
C277 C278 1.394 . S
C278 C248 1.723 . S
C278 C274 1.397 . S
C278 C277 1.394 . S
C279 H251 0.982 . S
C279 H255 0.979 . S
C279 H256 0.977 . S
C279 C276 1.453 . S
C280 H252 0.979 1_655 S
C280 H253 0.980 . S
C280 H254 0.983 . S
C280 C276 1.684 . S
H281 C299 0.948 . S
H282 C240 0.948 . S
H283 C258 0.979 . S
H284 C258 0.980 . S
H285 C258 0.983 . S
H286 C257 0.982 . S
H287 C257 0.979 . S
H288 C257 0.977 . S
H289 C259 0.948 . S
H290 C261 0.947 . S
H291 C262 0.948 . S
H292 C268 0.982 . S
H293 C268 0.979 . S
H294 C268 0.977 . S
H295 C269 0.979 . S
H296 C269 0.980 . S
H297 C269 0.983 . S
H298 C242 0.947 . S
C299 C242 1.392 . S
C299 C243 1.419 . S
C299 H281 0.948 . S
C300 C301 1.391 . S
C300 C304 1.391 . S
C300 H342 0.948 . S
C301 C300 1.391 . S
C301 C302 1.391 . S
C302 C301 1.391 . S
C302 H358 0.947 . S
C302 C359 1.392 . S
C303 C304 1.391 . S
C303 C307 1.397 . S
C303 C359 1.419 . S
C304 C300 1.391 . S
C304 C303 1.391 . S
C304 C305 1.399 . S
C305 C304 1.399 . S
C305 C308 1.396 . S
C305 C317 1.453 . S
C305 C318 1.684 . S
H306 C330 0.948 . S
C307 C303 1.397 . S
C307 C308 1.394 . S
C307 C326 1.723 . S
C308 C305 1.396 . S
C308 C307 1.394 . S
C308 C338 1.723 1_655 S
H309 C332 0.947 . S
H310 C333 0.948 . S
H311 C339 0.982 . S
H312 C340 0.979 . S
H313 C340 0.980 . S
H314 C340 0.983 . S
H315 C339 0.979 . S
H316 C339 0.977 . S
C317 C305 1.453 . S
C317 H346 0.982 1_655 S
C317 H347 0.979 . S
C317 H348 0.977 1_655 S
C318 C305 1.684 . S
C318 H343 0.979 . S
C318 H344 0.980 . S
C318 H345 0.983 . S
C319 C320 1.391 1_655 S
C319 C324 1.391 . S
C319 H349 0.948 . S
C320 C319 1.391 1_455 S
C320 C321 1.391 . S
C321 C320 1.391 . S
C321 C322 1.392 . S
C321 H350 0.947 . S
C322 C321 1.392 . S
C322 C323 1.419 . S
C322 H351 0.948 . S
C323 C322 1.419 . S
C323 C324 1.391 1_455 S
C323 C327 1.397 . S
C324 C319 1.391 . S
C324 C323 1.391 1_655 S
C324 C325 1.399 . S
C325 C324 1.399 . S
C325 C326 1.396 . S
C325 C328 1.453 . S
C325 C329 1.684 . S
C326 C307 1.723 . S
C326 C325 1.396 . S
C326 C327 1.394 1_655 S
C327 C323 1.397 . S
C327 C326 1.394 1_455 S
C327 C337 1.723 . S
C328 C325 1.453 . S
C328 H352 0.982 . S
C328 H353 0.979 . S
C328 H354 0.977 . S
C329 C325 1.684 . S
C329 H355 0.979 . S
C329 H356 0.980 . S
C329 H357 0.983 . S
C330 H306 0.948 . S
C330 C331 1.391 . S
C330 C335 1.391 . S
C331 C330 1.391 . S
C331 C332 1.391 . S
C332 H309 0.947 . S
C332 C331 1.391 . S
C332 C333 1.392 . S
C333 H310 0.948 . S
C333 C332 1.392 . S
C333 C334 1.419 . S
C334 C333 1.419 . S
C334 C335 1.391 . S
C334 C338 1.397 . S
C335 C330 1.391 . S
C335 C334 1.391 . S
C335 C336 1.399 . S
C336 C335 1.399 . S
C336 C337 1.396 . S
C336 C339 1.453 . S
C336 C340 1.684 . S
C337 C327 1.723 . S
C337 C336 1.396 . S
C337 C338 1.394 . S
C338 C308 1.723 1_455 S
C338 C334 1.397 . S
C338 C337 1.394 . S
C339 H311 0.982 . S
C339 H315 0.979 . S
C339 H316 0.977 . S
C339 C336 1.453 . S
C340 H312 0.979 . S
C340 H313 0.980 . S
C340 H314 0.983 . S
C340 C336 1.684 . S
H341 C359 0.948 . S
H342 C300 0.948 . S
H343 C318 0.979 . S
H344 C318 0.980 . S
H345 C318 0.983 . S
H346 C317 0.982 1_455 S
H347 C317 0.979 . S
H348 C317 0.977 1_455 S
H349 C319 0.948 . S
H350 C321 0.947 . S
H351 C322 0.948 . S
H352 C328 0.982 . S
H353 C328 0.979 . S
H354 C328 0.977 . S
H355 C329 0.979 . S
H356 C329 0.980 . S
H357 C329 0.983 . S
H358 C302 0.947 . S
C359 C302 1.392 . S
C359 C303 1.419 . S
C359 H341 0.948 . S
C360 C361 1.391 . S
C360 C364 1.391 . S
C360 H402 0.948 . S
C361 C360 1.391 . S
C361 C362 1.391 . S
C362 C361 1.391 . S
C362 H418 0.947 . S
C362 C419 1.392 . S
C363 C364 1.391 . S
C363 C367 1.397 . S
C363 C419 1.419 . S
C364 C360 1.391 . S
C364 C363 1.391 . S
C364 C365 1.399 . S
C365 C364 1.399 . S
C365 C368 1.396 . S
C365 C377 1.444 1_565 S
C365 C378 1.684 . S
H366 C390 0.948 . S
C367 C363 1.397 . S
C367 C368 1.394 . S
C367 C386 1.723 . S
C368 C365 1.396 . S
C368 C367 1.394 . S
C368 C398 1.723 1_565 S
H369 C392 0.947 . S
H370 C393 0.948 . S
H371 C399 0.982 . S
H372 C400 0.979 . S
H373 C400 0.980 . S
H374 C400 0.983 . S
H375 C399 0.979 . S
H376 C399 0.977 . S
C377 C365 1.444 1_545 S
C377 H406 0.977 . S
C377 H407 0.962 1_545 S
C377 H408 1.010 . S
C378 C365 1.684 . S
C378 H403 0.979 . S
C378 H404 1.011 . S
C378 H405 0.983 . S
C379 C380 1.391 . S
C379 C384 1.391 . S
C379 H409 0.948 . S
C380 C379 1.391 . S
C380 C381 1.391 1_565 S
C381 C380 1.391 1_545 S
C381 C382 1.392 . S
C381 H410 0.947 . S
C382 C381 1.392 . S
C382 C383 1.419 . S
C382 H411 0.948 . S
C383 C382 1.419 . S
C383 C384 1.391 1_545 S
C383 C387 1.397 . S
C384 C379 1.391 . S
C384 C383 1.391 1_565 S
C384 C385 1.399 . S
C385 C384 1.399 . S
C385 C386 1.396 . S
C385 C388 1.453 . S
C385 C389 1.684 . S
C386 C367 1.723 . S
C386 C385 1.396 . S
C386 C387 1.394 1_565 S
C387 C383 1.397 . S
C387 C386 1.394 1_545 S
C387 C397 1.723 . S
C388 C385 1.453 . S
C388 H412 0.982 . S
C388 H413 0.979 . S
C388 H414 0.977 . S
C389 C385 1.684 . S
C389 H415 0.979 . S
C389 H416 0.980 . S
C389 H417 0.983 . S
C390 H366 0.948 . S
C390 C391 1.391 . S
C390 C395 1.391 . S
C391 C390 1.391 . S
C391 C392 1.391 . S
C392 H369 0.947 . S
C392 C391 1.391 . S
C392 C393 1.392 . S
C393 H370 0.948 . S
C393 C392 1.392 . S
C393 C394 1.419 . S
C394 C393 1.419 . S
C394 C395 1.391 . S
C394 C398 1.397 . S
C395 C390 1.391 . S
C395 C394 1.391 . S
C395 C396 1.399 . S
C396 C395 1.399 . S
C396 C397 1.396 . S
C396 C399 1.453 . S
C396 C400 1.684 . S
C397 C387 1.723 . S
C397 C396 1.396 . S
C397 C398 1.394 . S
C398 C368 1.723 1_545 S
C398 C394 1.397 . S
C398 C397 1.394 . S
C399 H371 0.982 . S
C399 H375 0.979 . S
C399 H376 0.977 . S
C399 C396 1.453 . S
C400 H372 0.979 . S
C400 H373 0.980 . S
C400 H374 0.983 . S
C400 C396 1.684 . S
H401 C419 0.948 . S
H402 C360 0.948 . S
H403 C378 0.979 . S
H404 C378 1.011 . S
H405 C378 0.983 . S
H406 C377 0.977 . S
H407 C377 0.962 1_565 S
H408 C377 1.010 . S
H409 C379 0.948 . S
H410 C381 0.947 . S
H411 C382 0.948 . S
H412 C388 0.982 . S
H413 C388 0.979 . S
H414 C388 0.977 . S
H415 C389 0.979 . S
H416 C389 0.980 . S
H417 C389 0.983 . S
H418 C362 0.947 . S
C419 C362 1.392 . S
C419 C363 1.419 . S
C419 H401 0.948 . S
C420 C421 1.391 . S
C420 C424 1.391 . S
C420 H462 0.948 . S
C421 C420 1.391 . S
C421 C422 1.391 . S
C422 C421 1.391 . S
C422 H478 0.947 . S
C422 C479 1.392 . S
C423 C424 1.391 . S
C423 C427 1.397 . S
C423 C479 1.419 . S
C424 C420 1.391 . S
C424 C423 1.391 . S
C424 C425 1.399 . S
C425 C424 1.399 . S
C425 C428 1.396 . S
C425 C437 1.453 . S
C425 C438 1.684 . S
H426 C450 0.948 . S
C427 C423 1.397 . S
C427 C428 1.394 . S
C427 C446 1.723 . S
C428 C425 1.396 . S
C428 C427 1.394 . S
C428 C458 1.723 . S
H429 C452 0.947 . S
H430 C453 0.948 . S
H431 C459 0.982 . S
H432 C460 0.979 . S
H433 C460 0.980 . S
H434 C460 0.983 . S
H435 C459 0.979 . S
H436 C459 0.977 . S
C437 C425 1.453 . S
C437 H466 0.982 . S
C437 H467 0.979 . S
C437 H468 0.977 . S
C438 C425 1.684 . S
C438 H463 0.979 . S
C438 H464 0.980 . S
C438 H465 0.983 . S
C439 C440 1.391 . S
C439 C444 1.391 . S
C439 H469 0.948 . S
C440 C439 1.391 . S
C440 C441 1.391 . S
C441 C440 1.391 . S
C441 C442 1.392 . S
C441 H470 0.947 . S
C442 C441 1.392 . S
C442 C443 1.419 . S
C442 H471 0.948 . S
C443 C442 1.419 . S
C443 C444 1.391 . S
C443 C447 1.397 . S
C444 C439 1.391 . S
C444 C443 1.391 . S
C444 C445 1.399 . S
C445 C444 1.399 . S
C445 C446 1.396 . S
C445 C448 1.453 . S
C445 C449 1.684 . S
C446 C427 1.723 . S
C446 C445 1.396 . S
C446 C447 1.394 . S
C447 C443 1.397 . S
C447 C446 1.394 . S
C447 C457 1.723 . S
C448 C445 1.453 . S
C448 H472 0.982 . S
C448 H473 0.979 . S
C448 H474 0.977 . S
C449 C445 1.684 . S
C449 H475 0.979 . S
C449 H476 0.980 . S
C449 H477 0.983 . S
C450 H426 0.948 . S
C450 C451 1.391 . S
C450 C455 1.391 . S
C451 C450 1.391 . S
C451 C452 1.391 . S
C452 H429 0.947 . S
C452 C451 1.391 . S
C452 C453 1.392 . S
C453 H430 0.948 . S
C453 C452 1.392 . S
C453 C454 1.419 . S
C454 C453 1.419 . S
C454 C455 1.391 . S
C454 C458 1.397 . S
C455 C450 1.391 . S
C455 C454 1.391 . S
C455 C456 1.399 . S
C456 C455 1.399 . S
C456 C457 1.396 . S
C456 C459 1.453 . S
C456 C460 1.684 . S
C457 C447 1.723 . S
C457 C456 1.396 . S
C457 C458 1.394 . S
C458 C428 1.723 . S
C458 C454 1.397 . S
C458 C457 1.394 . S
C459 H431 0.982 . S
C459 H435 0.979 . S
C459 H436 0.977 . S
C459 C456 1.453 . S
C460 H432 0.979 . S
C460 H433 0.980 . S
C460 H434 0.983 . S
C460 C456 1.684 . S
H461 C479 0.948 . S
H462 C420 0.948 . S
H463 C438 0.979 . S
H464 C438 0.980 . S
H465 C438 0.983 . S
H466 C437 0.982 . S
H467 C437 0.979 . S
H468 C437 0.977 . S
H469 C439 0.948 . S
H470 C441 0.947 . S
H471 C442 0.948 . S
H472 C448 0.982 . S
H473 C448 0.979 . S
H474 C448 0.977 . S
H475 C449 0.979 . S
H476 C449 0.980 . S
H477 C449 0.983 . S
H478 C422 0.947 . S
C479 C422 1.392 . S
C479 C423 1.419 . S
C479 H461 0.948 . S
H480 C486 0.930 . S
H481 C490 0.930 . S
H482 C495 0.929 . S
H483 C493 0.929 . S
H484 C488 0.929 . S
H485 C494 0.929 . S
C486 H480 0.930 . S
C486 C487 1.367 . S
C486 C494 1.378 . S
C487 C486 1.367 . S
C487 C495 1.433 . S
C488 H484 0.929 . S
C488 C490 1.378 . S
C488 C492 1.350 . S
C489 C492 1.463 . S
C489 C494 1.350 . S
C489 N497 1.427 . S
C490 H481 0.930 . S
C490 C488 1.378 . S
C490 C491 1.367 . S
C491 C490 1.367 . S
C491 C493 1.433 . S
C492 C488 1.350 . S
C492 C489 1.463 . S
C492 N496 1.427 . S
C493 H483 0.929 . S
C493 C491 1.433 . S
C493 N496 1.384 . S
C494 H485 0.929 . S
C494 C486 1.378 . S
C494 C489 1.350 . S
C495 H482 0.929 . S
C495 C487 1.433 . S
C495 N497 1.384 . S
N496 C492 1.427 . S
N496 C493 1.384 . S
N497 C489 1.427 . S
N497 C495 1.384 . S
H498 C504 0.930 . S
H499 C508 0.930 . S
H500 C513 0.929 . S
H501 C511 0.929 . S
H502 C506 0.929 . S
H503 C512 0.929 . S
C504 H498 0.930 . S
C504 C505 1.367 . S
C504 C512 1.378 . S
C505 C504 1.367 . S
C505 C513 1.433 . S
C506 H502 0.929 . S
C506 C508 1.378 . S
C506 C510 1.350 . S
C507 C510 1.463 . S
C507 C512 1.350 . S
C507 N515 1.427 . S
C508 H499 0.930 . S
C508 C506 1.378 . S
C508 C509 1.367 . S
C509 C508 1.367 . S
C509 C511 1.433 . S
C510 C506 1.350 . S
C510 C507 1.463 . S
C510 N514 1.427 . S
C511 H501 0.929 . S
C511 C509 1.433 . S
C511 N514 1.384 . S
C512 H503 0.929 . S
C512 C504 1.378 . S
C512 C507 1.350 . S
C513 H500 0.929 . S
C513 C505 1.433 . S
C513 N515 1.384 . S
N514 C510 1.427 . S
N514 C511 1.384 . S
N515 C507 1.427 . S
N515 C513 1.384 . S
H516 C522 0.930 . S
H517 C526 0.930 . S
H518 C531 0.929 . S
H519 C529 0.929 . S
H520 C524 0.929 . S
H521 C530 0.929 . S
C522 H516 0.930 . S
C522 C523 1.367 . S
C522 C530 1.378 . S
C523 C522 1.367 . S
C523 C531 1.433 . S
C524 H520 0.929 . S
C524 C526 1.378 . S
C524 C528 1.350 . S
C525 C528 1.463 . S
C525 C530 1.350 . S
C525 N533 1.427 . S
C526 H517 0.930 . S
C526 C524 1.378 . S
C526 C527 1.367 . S
C527 C526 1.367 . S
C527 C529 1.433 . S
C528 C524 1.350 . S
C528 C525 1.463 . S
C528 N532 1.427 . S
C529 H519 0.929 . S
C529 C527 1.433 . S
C529 N532 1.384 . S
C530 H521 0.929 . S
C530 C522 1.378 . S
C530 C525 1.350 . S
C531 H518 0.929 . S
C531 C523 1.433 . S
C531 N533 1.384 . S
N532 C528 1.427 . S
N532 C529 1.384 . S
N533 C525 1.427 . S
N533 C531 1.384 . S
H534 C540 0.930 . S
H535 C544 0.930 . S
H536 C549 0.929 . S
H537 C547 0.929 . S
H538 C542 0.929 . S
H539 C548 0.929 . S
C540 H534 0.930 . S
C540 C541 1.367 . S
C540 C548 1.378 . S
C541 C540 1.367 . S
C541 C549 1.433 . S
C542 H538 0.929 . S
C542 C544 1.378 . S
C542 C546 1.350 . S
C543 C546 1.463 . S
C543 C548 1.350 . S
C543 N551 1.427 . S
C544 H535 0.930 . S
C544 C542 1.378 . S
C544 C545 1.367 . S
C545 C544 1.367 . S
C545 C547 1.433 . S
C546 C542 1.350 . S
C546 C543 1.463 . S
C546 N550 1.427 . S
C547 H537 0.929 . S
C547 C545 1.433 . S
C547 N550 1.384 . S
C548 H539 0.929 . S
C548 C540 1.378 . S
C548 C543 1.350 . S
C549 H536 0.929 . S
C549 C541 1.433 . S
C549 N551 1.384 . S
N550 C546 1.427 . S
N550 C547 1.384 . S
N551 C543 1.427 . S
N551 C549 1.384 . S
H552 C558 0.930 . S
H553 C562 0.930 . S
H554 C567 0.929 . S
H555 C565 0.929 . S
H556 C560 0.929 . S
H557 C566 0.929 . S
C558 H552 0.930 . S
C558 C559 1.367 . S
C558 C566 1.378 . S
C559 C558 1.367 . S
C559 C567 1.433 . S
C560 H556 0.929 . S
C560 C562 1.378 . S
C560 C564 1.350 . S
C561 C564 1.463 . S
C561 C566 1.350 . S
C561 N569 1.427 . S
C562 H553 0.930 . S
C562 C560 1.378 . S
C562 C563 1.367 . S
C563 C562 1.367 . S
C563 C565 1.433 . S
C564 C560 1.350 . S
C564 C561 1.463 . S
C564 N568 1.427 . S
C565 H555 0.929 . S
C565 C563 1.433 . S
C565 N568 1.384 . S
C566 H557 0.929 . S
C566 C558 1.378 . S
C566 C561 1.350 . S
C567 H554 0.929 . S
C567 C559 1.433 . S
C567 N569 1.384 . S
N568 C564 1.427 . S
N568 C565 1.384 . S
N569 C561 1.427 . S
N569 C567 1.384 . S
H570 C576 0.930 . S
H571 C580 0.930 . S
H572 C585 0.929 . S
H573 C583 0.929 . S
H574 C578 0.929 . S
H575 C584 0.929 . S
C576 H570 0.930 . S
C576 C577 1.367 . S
C576 C584 1.378 . S
C577 C576 1.367 . S
C577 C585 1.433 . S
C578 H574 0.929 . S
C578 C580 1.378 . S
C578 C582 1.350 . S
C579 C582 1.463 . S
C579 C584 1.350 . S
C579 N587 1.427 . S
C580 H571 0.930 . S
C580 C578 1.378 . S
C580 C581 1.367 . S
C581 C580 1.367 . S
C581 C583 1.433 . S
C582 C578 1.350 . S
C582 C579 1.463 . S
C582 N586 1.427 . S
C583 H573 0.929 . S
C583 C581 1.433 . S
C583 N586 1.384 . S
C584 H575 0.929 . S
C584 C576 1.378 . S
C584 C579 1.350 . S
C585 H572 0.929 . S
C585 C577 1.433 . S
C585 N587 1.384 . S
N586 C582 1.427 . S
N586 C583 1.384 . S
N587 C579 1.427 . S
N587 C585 1.384 . S
H588 C594 0.930 . S
H589 C598 0.930 . S
H590 C603 0.929 . S
H591 C601 0.929 . S
H592 C596 0.929 . S
H593 C602 0.929 . S
C594 H588 0.930 . S
C594 C595 1.367 . S
C594 C602 1.378 . S
C595 C594 1.367 . S
C595 C603 1.433 . S
C596 H592 0.929 . S
C596 C598 1.378 . S
C596 C600 1.350 . S
C597 C600 1.463 . S
C597 C602 1.350 . S
C597 N605 1.427 . S
C598 H589 0.930 . S
C598 C596 1.378 . S
C598 C599 1.367 . S
C599 C598 1.367 . S
C599 C601 1.433 . S
C600 C596 1.350 . S
C600 C597 1.463 . S
C600 N604 1.427 . S
C601 H591 0.929 . S
C601 C599 1.433 . S
C601 N604 1.384 . S
C602 H593 0.929 . S
C602 C594 1.378 . S
C602 C597 1.350 . S
C603 H590 0.929 . S
C603 C595 1.433 . S
C603 N605 1.384 . S
N604 C600 1.427 . S
N604 C601 1.384 . S
N605 C597 1.427 . S
N605 C603 1.384 . S
H606 C612 0.930 . S
H607 C616 0.930 . S
H608 C621 0.929 . S
H609 C619 0.929 . S
H610 C614 0.929 . S
H611 C620 0.929 . S
C612 H606 0.930 . S
C612 C613 1.367 . S
C612 C620 1.378 . S
C613 C612 1.367 . S
C613 C621 1.433 . S
C614 H610 0.929 . S
C614 C616 1.378 . S
C614 C618 1.350 . S
C615 C618 1.463 . S
C615 C620 1.350 . S
C615 N623 1.427 . S
C616 H607 0.930 . S
C616 C614 1.378 . S
C616 C617 1.367 . S
C617 C616 1.367 . S
C617 C619 1.433 . S
C618 C614 1.350 . S
C618 C615 1.463 . S
C618 N622 1.427 . S
C619 H609 0.929 . S
C619 C617 1.433 . S
C619 N622 1.384 . S
C620 H611 0.929 . S
C620 C612 1.378 . S
C620 C615 1.350 . S
C621 H608 0.929 . S
C621 C613 1.433 . S
C621 N623 1.384 . S
N622 C618 1.427 . S
N622 C619 1.384 . S
N623 C615 1.427 . S
N623 C621 1.384 . S
H624 C630 0.930 . S
H625 C634 0.930 . S
H626 C639 0.929 . S
H627 C637 0.929 . S
H628 C632 0.929 . S
H629 C638 0.929 . S
C630 H624 0.930 . S
C630 C631 1.367 . S
C630 C638 1.378 . S
C631 C630 1.367 . S
C631 C639 1.433 . S
C632 H628 0.929 . S
C632 C634 1.378 . S
C632 C636 1.350 . S
C633 C636 1.463 . S
C633 C638 1.350 . S
C633 N641 1.427 . S
C634 H625 0.930 . S
C634 C632 1.378 . S
C634 C635 1.367 . S
C635 C634 1.367 . S
C635 C637 1.433 . S
C636 C632 1.350 . S
C636 C633 1.463 . S
C636 N640 1.427 . S
C637 H627 0.929 . S
C637 C635 1.433 . S
C637 N640 1.384 . S
C638 H629 0.929 . S
C638 C630 1.378 . S
C638 C633 1.350 . S
C639 H626 0.929 . S
C639 C631 1.433 . S
C639 N641 1.384 . S
N640 C636 1.427 . S
N640 C637 1.384 . S
N641 C633 1.427 . S
N641 C639 1.384 . S
H642 C648 0.930 . S
H643 C652 0.930 . S
H644 C657 0.929 . S
H645 C655 0.929 . S
H646 C650 0.929 . S
H647 C656 0.929 . S
C648 H642 0.930 . S
C648 C649 1.367 . S
C648 C656 1.378 . S
C649 C648 1.367 . S
C649 C657 1.433 . S
C650 H646 0.929 . S
C650 C652 1.378 . S
C650 C654 1.350 . S
C651 C654 1.463 . S
C651 C656 1.350 . S
C651 N659 1.427 . S
C652 H643 0.930 . S
C652 C650 1.378 . S
C652 C653 1.367 . S
C653 C652 1.367 . S
C653 C655 1.433 . S
C654 C650 1.350 . S
C654 C651 1.463 . S
C654 N658 1.427 . S
C655 H645 0.929 . S
C655 C653 1.433 . S
C655 N658 1.384 . S
C656 H647 0.929 . S
C656 C648 1.378 . S
C656 C651 1.350 . S
C657 H644 0.929 . S
C657 C649 1.433 . S
C657 N659 1.384 . S
N658 C654 1.427 . S
N658 C655 1.384 . S
N659 C651 1.427 . S
N659 C657 1.384 . S
H660 C666 0.930 . S
H661 C670 0.930 . S
H662 C675 0.929 . S
H663 C673 0.929 . S
H664 C668 0.929 . S
H665 C674 0.929 . S
C666 H660 0.930 . S
C666 C667 1.367 . S
C666 C674 1.378 . S
C667 C666 1.367 . S
C667 C675 1.433 . S
C668 H664 0.929 . S
C668 C670 1.378 . S
C668 C672 1.350 . S
C669 C672 1.463 . S
C669 C674 1.350 . S
C669 N677 1.427 . S
C670 H661 0.930 . S
C670 C668 1.378 . S
C670 C671 1.367 . S
C671 C670 1.367 . S
C671 C673 1.433 . S
C672 C668 1.350 . S
C672 C669 1.463 . S
C672 N676 1.427 . S
C673 H663 0.929 . S
C673 C671 1.433 . S
C673 N676 1.384 . S
C674 H665 0.929 . S
C674 C666 1.378 . S
C674 C669 1.350 . S
C675 H662 0.929 . S
C675 C667 1.433 . S
C675 N677 1.384 . S
N676 C672 1.427 . S
N676 C673 1.384 . S
N677 C669 1.427 . S
N677 C675 1.384 . S
H678 C684 0.930 . S
H679 C688 0.930 . S
H680 C693 0.929 . S
H681 C691 0.929 . S
H682 C686 0.929 . S
H683 C692 0.929 . S
C684 H678 0.930 . S
C684 C685 1.367 . S
C684 C692 1.378 . S
C685 C684 1.367 . S
C685 C693 1.433 . S
C686 H682 0.929 . S
C686 C688 1.378 . S
C686 C690 1.350 . S
C687 C690 1.463 . S
C687 C692 1.350 . S
C687 N695 1.427 . S
C688 H679 0.930 . S
C688 C686 1.378 . S
C688 C689 1.367 . S
C689 C688 1.367 . S
C689 C691 1.433 . S
C690 C686 1.350 . S
C690 C687 1.463 . S
C690 N694 1.427 . S
C691 H681 0.929 . S
C691 C689 1.433 . S
C691 N694 1.384 . S
C692 H683 0.929 . S
C692 C684 1.378 . S
C692 C687 1.350 . S
C693 H680 0.929 . S
C693 C685 1.433 . S
C693 N695 1.384 . S
N694 C690 1.427 . S
N694 C691 1.384 . S
N695 C687 1.427 . S
N695 C693 1.384 . S
H696 C702 0.930 . S
H697 C706 0.920 1_655 S
H698 C711 0.929 1_655 S
H699 C709 0.929 . S
H700 C704 0.929 1_655 S
H701 C710 0.929 . S
C702 H696 0.930 . S
C702 C703 1.367 . S
C702 C710 1.378 . S
C703 C702 1.367 . S
C703 C711 1.433 . S
C704 H700 0.929 1_455 S
C704 C706 1.378 . S
C704 C708 1.350 . S
C705 C708 1.463 . S
C705 C710 1.350 . S
C705 N713 1.427 . S
C706 H697 0.920 1_455 S
C706 C704 1.378 . S
C706 C707 1.367 . S
C707 C706 1.367 . S
C707 C709 1.433 . S
C708 C704 1.350 . S
C708 C705 1.463 . S
C708 N712 1.427 . S
C709 H699 0.929 . S
C709 C707 1.433 . S
C709 N712 1.384 . S
C710 H701 0.929 . S
C710 C702 1.378 . S
C710 C705 1.350 . S
C711 H698 0.929 1_455 S
C711 C703 1.433 . S
C711 N713 1.384 . S
N712 C708 1.427 . S
N712 C709 1.384 . S
N713 C705 1.427 . S
N713 C711 1.384 . S
H714 C720 0.930 1_565 S
H715 C724 0.930 . S
H716 C729 0.929 . S
H717 C727 0.929 1_565 S
H718 C722 0.929 . S
H719 C728 0.929 1_565 S
C720 H714 0.930 1_545 S
C720 C721 1.367 . S
C720 C728 1.378 . S
C721 C720 1.367 . S
C721 C729 1.433 . S
C722 H718 0.929 . S
C722 C724 1.378 . S
C722 C726 1.350 . S
C723 C726 1.463 . S
C723 C728 1.350 . S
C723 N731 1.427 . S
C724 H715 0.930 . S
C724 C722 1.378 . S
C724 C725 1.367 . S
C725 C724 1.367 . S
C725 C727 1.433 . S
C726 C722 1.350 . S
C726 C723 1.463 . S
C726 N730 1.427 . S
C727 H717 0.929 1_545 S
C727 C725 1.433 . S
C727 N730 1.384 . S
C728 H719 0.929 1_545 S
C728 C720 1.378 . S
C728 C723 1.350 . S
C729 H716 0.929 . S
C729 C721 1.433 . S
C729 N731 1.384 . S
N730 C726 1.427 . S
N730 C727 1.384 . S
N731 C723 1.427 . S
N731 C729 1.384 . S
H732 C738 0.930 . S
H733 C742 0.930 . S
H734 C747 0.929 . S
H735 C745 0.929 . S
H736 C740 0.929 . S
H737 C746 0.929 . S
C738 H732 0.930 . S
C738 C739 1.367 . S
C738 C746 1.378 . S
C739 C738 1.367 . S
C739 C747 1.433 . S
C740 H736 0.929 . S
C740 C742 1.378 . S
C740 C744 1.350 . S
C741 C744 1.463 . S
C741 C746 1.350 . S
C741 N749 1.427 . S
C742 H733 0.930 . S
C742 C740 1.378 . S
C742 C743 1.367 . S
C743 C742 1.367 . S
C743 C745 1.433 . S
C744 C740 1.350 . S
C744 C741 1.463 . S
C744 N748 1.427 . S
C745 H735 0.929 . S
C745 C743 1.433 . S
C745 N748 1.384 . S
C746 H737 0.929 . S
C746 C738 1.378 . S
C746 C741 1.350 . S
C747 H734 0.929 . S
C747 C739 1.433 . S
C747 N749 1.384 . S
N748 C744 1.427 . S
N748 C745 1.384 . S
N749 C741 1.427 . S
N749 C747 1.384 . S
H750 C756 0.930 . S
H751 C760 0.930 . S
H752 C765 0.929 . S
H753 C763 0.929 . S
H754 C758 0.929 . S
H755 C764 0.929 . S
C756 H750 0.930 . S
C756 C757 1.367 1_565 S
C756 C764 1.378 . S
C757 C756 1.367 1_545 S
C757 C765 1.433 . S
C758 H754 0.929 . S
C758 C760 1.378 . S
C758 C762 1.350 . S
C759 C762 1.463 . S
C759 C764 1.350 1_545 S
C759 N767 1.427 . S
C760 H751 0.930 . S
C760 C758 1.378 . S
C760 C761 1.367 1_545 S
C761 C760 1.367 1_565 S
C761 C763 1.433 . S
C762 C758 1.350 . S
C762 C759 1.463 . S
C762 N766 1.427 1_545 S
C763 H753 0.929 . S
C763 C761 1.433 . S
C763 N766 1.384 . S
C764 H755 0.929 . S
C764 C756 1.378 . S
C764 C759 1.350 1_565 S
C765 H752 0.929 . S
C765 C757 1.433 . S
C765 N767 1.384 . S
N766 C762 1.427 1_565 S
N766 C763 1.384 . S
N767 C759 1.427 . S
N767 C765 1.384 . S
H768 C774 0.930 . S
H769 C778 0.930 . S
H770 C783 0.929 . S
H771 C781 0.929 . S
H772 C776 0.929 . S
H773 C782 0.929 . S
C774 H768 0.930 . S
C774 C775 1.367 . S
C774 C782 1.378 . S
C775 C774 1.367 . S
C775 C783 1.433 . S
C776 H772 0.929 . S
C776 C778 1.378 . S
C776 C780 1.350 . S
C777 C780 1.463 . S
C777 C782 1.350 . S
C777 N785 1.427 . S
C778 H769 0.930 . S
C778 C776 1.378 . S
C778 C779 1.367 . S
C779 C778 1.367 . S
C779 C781 1.433 . S
C780 C776 1.350 . S
C780 C777 1.463 . S
C780 N784 1.427 . S
C781 H771 0.929 . S
C781 C779 1.433 . S
C781 N784 1.384 . S
C782 H773 0.929 . S
C782 C774 1.378 . S
C782 C777 1.350 . S
C783 H770 0.929 . S
C783 C775 1.433 . S
C783 N785 1.384 . S
N784 C780 1.427 . S
N784 C781 1.384 . S
N785 C777 1.427 . S
N785 C783 1.384 . S
H786 C792 0.930 . S
H787 C796 0.930 . S
H788 C801 0.929 . S
H789 C799 0.929 . S
H790 C794 0.929 . S
H791 C800 0.929 1_655 S
C792 H786 0.930 . S
C792 C793 1.367 . S
C792 C800 1.378 . S
C793 C792 1.367 . S
C793 C801 1.433 . S
C794 H790 0.929 . S
C794 C796 1.378 . S
C794 C798 1.350 . S
C795 C798 1.463 . S
C795 C800 1.350 . S
C795 N803 1.427 . S
C796 H787 0.930 . S
C796 C794 1.378 . S
C796 C797 1.361 1_455 S
C797 C796 1.361 1_655 S
C797 C799 1.438 . S
C798 C794 1.350 . S
C798 C795 1.463 . S
C798 N802 1.427 1_455 S
C799 H789 0.929 . S
C799 C797 1.438 . S
C799 N802 1.384 . S
C800 H791 0.929 1_455 S
C800 C792 1.378 . S
C800 C795 1.350 . S
C801 H788 0.929 . S
C801 C793 1.433 . S
C801 N803 1.384 . S
N802 C798 1.427 1_655 S
N802 C799 1.384 . S
N803 C795 1.427 . S
N803 C801 1.384 . S
C487 C25 0.391 . S
C491 C451 0.359 . S
C505 C65 0.331 . S
C509 C301 0.333 . S
C523 C105 0.421 . S
C527 C361 0.373 . S
C541 C4 0.447 . S
C545 C421 0.340 . S
C563 C331 0.352 . S
C559 C44 0.412 . S
C581 C391 0.414 . S
C577 C84 0.455 . S
C595 C60 2.919 . S
C599 C181 2.767 . S
C613 C100 3.101 . S
C617 C271 3.089 . S
C631 C31 3.115 . S
C635 C151 3.104 . S
C653 C211 3.098 . S
C649 C71 3.107 . S
C671 C241 2.785 . S
C667 C111 2.924 . S
C685 C20 2.920 . S
C689 C121 2.766 . S
C707 C260 1.781 1_554 S
C703 C2 1.745 . S
C721 C42 1.752 . S
C725 C140 1.765 . S
C739 C82 1.750 . S
C743 C200 1.772 . S
C761 C380 1.044 . S
C757 C63 1.063 . S
C779 C440 1.097 1_556 S
C775 C103 1.102 . S
C793 C23 1.055 . S
C797 C320 1.045 1_655 S
