# Generated by pormake.
# Topology pyr, (3,6)-cn, num edge types: 1
# Building blocks:
#     Node 0, Type 0, BuildingBlock: PAMTOO_clean_linker_0, # of connection points: 3
#     Node 1, Type 0, BuildingBlock: PAMTOO_clean_linker_0, # of connection points: 3
#     Node 2, Type 0, BuildingBlock: PAMTOO_clean_linker_0, # of connection points: 3
#     Node 3, Type 0, BuildingBlock: PAMTOO_clean_linker_0, # of connection points: 3
#     Node 4, Type 0, BuildingBlock: PAMTOO_clean_linker_0, # of connection points: 3
#     Node 5, Type 0, BuildingBlock: PAMTOO_clean_linker_0, # of connection points: 3
#     Node 6, Type 0, BuildingBlock: PAMTOO_clean_linker_0, # of connection points: 3
#     Node 7, Type 0, BuildingBlock: PAMTOO_clean_linker_0, # of connection points: 3
#     Node 8, Type 1, BuildingBlock: BETDEL_clean_sbu_0, # of connection points: 6
#     Node 9, Type 1, BuildingBlock: BETDEL_clean_sbu_0, # of connection points: 6
#     Node 10, Type 1, BuildingBlock: BETDEL_clean_sbu_0, # of connection points: 6
#     Node 11, Type 1, BuildingBlock: BETDEL_clean_sbu_0, # of connection points: 6
#     Edge 12, Type (0, 1), BuildingBlock: EZIPEK_clean_linker_0, # of connection points: 2
#     Edge 13, Type (0, 1), BuildingBlock: EZIPEK_clean_linker_0, # of connection points: 2
#     Edge 14, Type (0, 1), BuildingBlock: EZIPEK_clean_linker_0, # of connection points: 2
#     Edge 15, Type (0, 1), BuildingBlock: EZIPEK_clean_linker_0, # of connection points: 2
#     Edge 16, Type (0, 1), BuildingBlock: EZIPEK_clean_linker_0, # of connection points: 2
#     Edge 17, Type (0, 1), BuildingBlock: EZIPEK_clean_linker_0, # of connection points: 2
#     Edge 18, Type (0, 1), BuildingBlock: EZIPEK_clean_linker_0, # of connection points: 2
#     Edge 19, Type (0, 1), BuildingBlock: EZIPEK_clean_linker_0, # of connection points: 2
#     Edge 20, Type (0, 1), BuildingBlock: EZIPEK_clean_linker_0, # of connection points: 2
#     Edge 21, Type (0, 1), BuildingBlock: EZIPEK_clean_linker_0, # of connection points: 2
#     Edge 22, Type (0, 1), BuildingBlock: EZIPEK_clean_linker_0, # of connection points: 2
#     Edge 23, Type (0, 1), BuildingBlock: EZIPEK_clean_linker_0, # of connection points: 2
#     Edge 24, Type (0, 1), BuildingBlock: EZIPEK_clean_linker_0, # of connection points: 2
#     Edge 25, Type (0, 1), BuildingBlock: EZIPEK_clean_linker_0, # of connection points: 2
#     Edge 26, Type (0, 1), BuildingBlock: EZIPEK_clean_linker_0, # of connection points: 2
#     Edge 27, Type (0, 1), BuildingBlock: EZIPEK_clean_linker_0, # of connection points: 2
#     Edge 28, Type (0, 1), BuildingBlock: EZIPEK_clean_linker_0, # of connection points: 2
#     Edge 29, Type (0, 1), BuildingBlock: EZIPEK_clean_linker_0, # of connection points: 2
#     Edge 30, Type (0, 1), BuildingBlock: EZIPEK_clean_linker_0, # of connection points: 2
#     Edge 31, Type (0, 1), BuildingBlock: EZIPEK_clean_linker_0, # of connection points: 2
#     Edge 32, Type (0, 1), BuildingBlock: EZIPEK_clean_linker_0, # of connection points: 2
#     Edge 33, Type (0, 1), BuildingBlock: EZIPEK_clean_linker_0, # of connection points: 2
#     Edge 34, Type (0, 1), BuildingBlock: EZIPEK_clean_linker_0, # of connection points: 2
#     Edge 35, Type (0, 1), BuildingBlock: EZIPEK_clean_linker_0, # of connection points: 2
# Relax obj value: 0.101
# Max RMSD: 0.202
# Mean RMSD: 0.139
data_MOF--net-pyr--node1-BETDEL_clean_sbu_0--node2-PAMTOO_clean_linker_0--edge1-EZIPEK_clean_linker_0
_symmetry_space_group_name_H-M    P1
_symmetry_Int_Tables_number       1
_symmetry_cell_setting            triclinic
loop_
_symmetry_equiv_pos_as_xyz
'x, y, z'
_cell_length_a     25.813268
_cell_length_b     28.28364
_cell_length_c     25.937697
_cell_angle_alpha  91.446352
_cell_angle_beta   89.921917
_cell_angle_gamma 101.00956
loop_
_atom_site_label
_atom_site_type_symbol
_atom_site_fract_x
_atom_site_fract_y
_atom_site_fract_z
_atom_type_partial_charge
H0 H 0.13124 0.2311 0.22171 0.0
H1 H 0.24157 0.13581 0.23415 0.0
H2 H 0.24747 0.22668 0.10307 0.0
H3 H 0.2606 0.10895 0.09139 0.0
C4 C 0.2811 0.1114 0.12933 0.0
O5 O 0.2887 0.15886 0.14652 0.0
H6 H 0.2557 0.0879 0.1569 0.0
C7 C 0.16424 0.21668 0.20625 0.0
C8 C 0.18823 0.23427 0.16026 0.0
C9 C 0.18296 0.1807 0.23249 0.0
C10 C 0.22655 0.16317 0.21341 0.0
C11 C 0.24873 0.17844 0.16595 0.0
C12 C 0.22946 0.21396 0.13916 0.0
H13 H 0.29354 0.95003 0.71435 0.0
H14 H 0.26286 0.8425 0.59155 0.0
H15 H 0.37537 0.83131 0.7099 0.0
H16 H 0.40639 0.83803 0.59663 0.0
C17 C 0.37953 0.80292 0.58913 0.0
O18 O 0.33646 0.79603 0.62171 0.0
H19 H 0.36597 0.80674 0.5491 0.0
C20 C 0.30034 0.91685 0.69608 0.0
C21 C 0.33756 0.89265 0.71716 0.0
C22 C 0.27225 0.89856 0.65124 0.0
C23 C 0.28306 0.85641 0.62694 0.0
C24 C 0.32144 0.83317 0.64746 0.0
C25 C 0.34682 0.85018 0.69351 0.0
H26 H 0.74433 0.29689 0.97042 0.0
H27 H 0.62022 0.29177 0.85839 0.0
H28 H 0.75027 0.41153 0.86292 0.0
H29 H 0.65191 0.34256 0.7528 0.0
C30 C 0.66858 0.37854 0.77024 0.0
O31 O 0.65789 0.37864 0.82252 0.0
H32 H 0.71176 0.38297 0.76345 0.0
C33 C 0.72757 0.31276 0.93833 0.0
C34 C 0.75384 0.35709 0.91924 0.0
C35 C 0.68054 0.28795 0.91537 0.0
C36 C 0.65744 0.30966 0.87518 0.0
C37 C 0.68216 0.35493 0.85724 0.0
C38 C 0.73092 0.37734 0.87803 0.0
H39 H 0.84569 0.73865 0.45419 0.0
H40 H 0.86418 0.60873 0.37302 0.0
H41 H 0.9813 0.73748 0.35663 0.0
H42 H 0.90738 0.66391 0.25678 0.0
C43 C 0.92233 0.63346 0.2737 0.0
O44 O 0.94748 0.64825 0.32041 0.0
H45 H 0.88605 0.60627 0.28103 0.0
C46 C 0.8683 0.7199 0.42821 0.0
C47 C 0.91725 0.74434 0.40916 0.0
C48 C 0.84938 0.67083 0.41638 0.0
C49 C 0.87845 0.6465 0.3825 0.0
C50 C 0.92384 0.67126 0.358 0.0
C51 C 0.9442 0.71963 0.3728 0.0
H52 H 0.81862 0.89855 0.85582 0.0
H53 H 0.84432 0.88266 0.01623 0.0
H54 H 0.95492 0.84457 0.90913 0.0
H55 H 0.88032 0.79413 0.03565 0.0
C56 C 0.92325 0.80704 0.02934 0.0
O57 O 0.93236 0.85036 0.00434 0.0
H58 H 0.93919 0.8134 0.06918 0.0
C59 C 0.84132 0.88518 0.88521 0.0
C60 C 0.8865 0.86561 0.87265 0.0
C61 C 0.82569 0.89081 0.9363 0.0
C62 C 0.85577 0.87796 0.9765 0.0
C63 C 0.90163 0.86028 0.96552 0.0
C64 C 0.91736 0.85506 0.91438 0.0
H65 H 0.81388 0.08697 0.35689 0.0
H66 H 0.719 0.19291 0.33103 0.0
H67 H 0.80596 0.19817 0.47247 0.0
H68 H 0.75327 0.27817 0.34864 0.0
C69 C 0.75982 0.28453 0.39083 0.0
O70 O 0.74485 0.24199 0.41679 0.0
H71 H 0.80289 0.29691 0.39458 0.0
C72 C 0.7998 0.11898 0.36991 0.0
C73 C 0.81398 0.13966 0.41901 0.0
C74 C 0.76491 0.13797 0.33888 0.0
C75 C 0.74599 0.17866 0.35546 0.0
C76 C 0.7623 0.20151 0.40253 0.0
C77 C 0.79542 0.18156 0.43488 0.0
H78 H 0.35824 0.74006 0.078 0.0
H79 H 0.35653 0.62548 0.18453 0.0
H80 H 0.47976 0.75113 0.194 0.0
H81 H 0.51342 0.65476 0.21525 0.0
C82 C 0.47587 0.63652 0.23295 0.0
O83 O 0.44064 0.66767 0.23561 0.0
H84 H 0.4614 0.60579 0.2059 0.0
C85 C 0.3764 0.72462 0.10951 0.0
C86 C 0.42243 0.7508 0.13302 0.0
C87 C 0.35274 0.67928 0.12774 0.0
C88 C 0.3753 0.65998 0.1696 0.0
C89 C 0.42131 0.6855 0.19322 0.0
C90 C 0.44489 0.73089 0.17488 0.0
H91 H 0.09108 0.30901 0.77215 0.0
H92 H 0.21192 0.43447 0.74591 0.0
H93 H 0.20285 0.30847 0.64856 0.0
H94 H 0.30836 0.35471 0.67566 0.0
C95 C 0.3045 0.39316 0.67457 0.0
O96 O 0.25269 0.39672 0.66548 0.0
H97 H 0.3167 0.408 0.71376 0.0
C98 C 0.12531 0.32684 0.75116 0.0
C99 C 0.14499 0.30238 0.70944 0.0
C100 C 0.14928 0.37489 0.76478 0.0
C101 C 0.19324 0.39765 0.73633 0.0
C102 C 0.21235 0.37372 0.69452 0.0
C103 C 0.18821 0.32642 0.68137 0.0
Dy104 Dy 0.06221 0.04638 0.50548 0.0
C105 C 0.96949 0.94572 0.6877 0.0
C106 C 0.08882 0.08797 0.41404 0.0
Dy107 Dy 0.00607 1.00159 0.6067 0.0
O108 O 0.10113 0.04769 0.42813 0.0
O109 O 0.06105 0.10503 0.44927 0.0
O110 O 0.14141 0.04452 0.53958 0.0
O111 O 0.07632 0.99349 0.56183 0.0
C112 C 0.12465 1.00947 0.57048 0.0
C113 C 0.94223 0.04743 0.55249 0.0
O114 O 0.04816 0.07511 0.63718 0.0
O115 O 0.07831 0.11037 0.55967 0.0
O116 O 0.00933 0.98187 0.69048 0.0
O117 O 0.95082 0.94035 0.64119 0.0
O118 O 0.92698 0.02473 0.59425 0.0
O119 O 0.9887 0.04304 0.54399 0.0
O120 O 0.00996 0.97811 0.47431 0.0
O121 O 1.00367 0.93822 0.5514 0.0
C122 C 0.07078 0.11324 0.61015 0.0
C123 C 0.99728 0.93774 0.50048 0.0
Dy124 Dy 0.59296 0.0301 0.07399 0.0
C125 C 0.47145 0.96446 0.89069 0.0
C126 C 0.6606 0.06779 0.15029 0.0
Dy127 Dy 0.53076 1.00447 0.97238 0.0
O128 O 0.62384 0.08862 0.13238 0.0
O129 O 0.66051 0.02695 0.12654 0.0
O130 O 0.56154 0.96248 0.11805 0.0
O131 O 0.536 0.9695 0.04407 0.0
C132 C 0.53057 0.94164 0.08152 0.0
C133 C 0.57911 0.09811 0.98215 0.0
O134 O 0.46815 0.02323 0.02363 0.0
O135 O 0.52096 0.06151 0.0907 0.0
O136 O 0.52003 0.98741 0.88767 0.0
O137 O 0.45591 0.96254 0.93829 0.0
O138 O 0.53526 0.08264 0.95748 0.0
O139 O 0.59729 0.06207 0.99683 0.0
O140 O 0.65399 1.00699 0.02392 0.0
O141 O 0.59819 0.96529 0.96084 0.0
C142 C 0.47461 0.04937 0.067 0.0
C143 C 0.64469 0.97631 0.98433 0.0
Dy144 Dy 0.57693 0.4871 0.50073 0.0
C145 C 0.49603 0.64512 0.58688 0.0
C146 C 0.63246 0.42536 0.45427 0.0
Dy147 Dy 0.55181 0.57775 0.5527 0.0
O148 O 0.58369 0.42735 0.44332 0.0
O149 O 0.6504 0.45763 0.48939 0.0
O150 O 0.51283 0.43841 0.54236 0.0
O151 O 0.50365 0.50886 0.52685 0.0
C152 C 0.48472 0.47127 0.55157 0.0
C153 C 0.64454 0.59138 0.50167 0.0
O154 O 0.57644 0.54076 0.62332 0.0
O155 O 0.60403 0.47644 0.58045 0.0
O156 O 0.54705 0.6494 0.5914 0.0
O157 O 0.47601 0.6029 0.56779 0.0
O158 O 0.61735 0.62489 0.51024 0.0
O159 O 0.62455 0.55504 0.52721 0.0
O160 O 0.55347 0.52345 0.43038 0.0
O161 O 0.52458 0.58699 0.47218 0.0
C162 C 0.59688 0.50086 0.62314 0.0
C163 C 0.53231 0.56253 0.42978 0.0
Dy164 Dy 0.06669 0.4725 0.04955 0.0
C165 C 0.01538 0.64263 0.97875 0.0
C166 C 0.10681 0.39526 0.08223 0.0
Dy167 Dy 0.04208 0.55493 0.9979 0.0
O168 O 0.05761 0.3989 0.08417 0.0
O169 O 0.13415 0.43376 0.06266 0.0
O170 O 0.00678 0.47747 0.11237 0.0
O171 O 0.0468 0.54026 0.08022 0.0
C172 C 0.01137 0.52388 0.11209 0.0
C173 C 0.07103 0.49009 0.92912 0.0
O174 O 0.12681 0.58601 0.01512 0.0
O175 O 0.13974 0.52614 0.07067 0.0
O176 O 1.00164 0.60375 0.95063 0.0
O177 O 0.04611 0.63407 0.01526 0.0
O178 O 0.03657 0.5168 0.92008 0.0
O179 O 0.09098 0.50162 0.97332 0.0
O180 O 0.99821 0.44113 0.99837 0.0
O181 O 0.96345 0.50766 0.01252 0.0
C182 C 0.15587 0.56831 0.049 0.0
C183 C 0.95673 0.46186 0.9984 0.0
C184 C 0.11929 0.11459 0.27364 0.0
C185 C 0.15532 0.1592 0.27875 0.0
C186 C 0.14677 0.15759 0.37268 0.0
C187 C 0.10952 0.11374 0.36749 0.0
N188 N 0.05333 0.05425 0.31427 0.0
N189 N 0.19733 0.22739 0.33102 0.0
C190 C 0.09381 0.09323 0.31826 0.0
C191 C 0.16699 0.18214 0.32768 0.0
N192 N 0.11025 0.09232 0.22618 0.0
N193 N 0.1651 0.17432 0.42052 0.0
H194 H 0.21467 0.24564 0.29903 0.0
H195 H 0.2023 0.24839 0.36484 0.0
H196 H 0.15161 0.15738 0.45456 0.0
H197 H 0.19662 0.2029 0.42659 0.0
H198 H 0.08972 0.05717 0.22051 0.0
H199 H 0.12573 0.10811 0.19216 0.0
H200 H 0.03612 0.04042 0.27946 0.0
H201 H 0.03386 0.03776 0.34629 0.0
C202 C 0.40764 0.95583 0.75827 0.0
C203 C 0.3696 0.91277 0.76255 0.0
C204 C 0.40302 0.90069 0.84831 0.0
C205 C 0.43698 0.94644 0.84631 0.0
N206 N 0.46063 0.0231 0.80437 0.0
N207 N 0.3233 0.84954 0.81553 0.0
C208 C 0.43634 0.97568 0.8027 0.0
C209 C 0.36481 0.88684 0.80888 0.0
N210 N 0.41786 0.97695 0.71158 0.0
N211 N 0.40886 0.86942 0.88625 0.0
H212 H 0.29406 0.83888 0.7876 0.0
H213 H 0.31514 0.83245 0.85055 0.0
H214 H 0.43821 0.87703 0.91444 0.0
H215 H 0.38836 0.83392 0.88645 0.0
H216 H 0.44919 1.00552 0.70573 0.0
H217 H 0.39846 0.96318 0.67763 0.0
H218 H 0.45675 0.04678 0.77511 0.0
H219 H 0.47945 0.0403 0.83714 0.0
C220 C 0.67899 0.46214 0.73075 0.0
C221 C 0.64574 0.41781 0.7434 0.0
C222 C 0.57393 0.44135 0.69364 0.0
C223 C 0.61066 0.47965 0.67225 0.0
N224 N 0.69817 0.52762 0.67058 0.0
N225 N 0.55846 0.36869 0.74409 0.0
C226 C 0.66305 0.4908 0.69144 0.0
C227 C 0.59193 0.40888 0.72761 0.0
N228 N 0.72509 0.4774 0.75723 0.0
N229 N 0.52175 0.43636 0.68134 0.0
H230 H 0.56872 0.34679 0.7726 0.0
H231 H 0.52083 0.35627 0.72912 0.0
H232 H 0.50821 0.46002 0.65703 0.0
H233 H 0.49157 0.41192 0.69806 0.0
H234 H 0.74903 0.51108 0.75263 0.0
H235 H 0.73622 0.45874 0.78819 0.0
H236 H 0.73857 0.53389 0.67808 0.0
H237 H 0.687 0.5505 0.64353 0.0
C238 C 0.9697 0.5643 0.24648 0.0
C239 C 0.95638 0.60974 0.23594 0.0
C240 C 0.97661 0.59741 0.14462 0.0
C241 C 0.99369 0.55379 0.15534 0.0
N242 N 0.02291 0.50575 0.22136 0.0
N243 N 0.96862 0.67631 0.17768 0.0
C244 C 0.99512 0.54006 0.20773 0.0
C245 C 0.96684 0.62856 0.18593 0.0
N246 N 0.95714 0.5434 0.29288 0.0
N247 N 0.96636 0.60808 0.09518 0.0
H248 H 0.96675 0.70117 0.20768 0.0
H249 H 0.97946 0.692 0.14233 0.0
H250 H 0.969 0.58454 0.06427 0.0
H251 H 0.94934 0.63741 0.08595 0.0
H252 H 0.96044 0.50799 0.30003 0.0
H253 H 0.94003 0.56002 0.32299 0.0
H254 H 0.02874 0.49755 0.25961 0.0
H255 H 0.04581 0.49004 0.19539 0.0
C256 C 0.38226 0.11952 0.13807 0.0
C257 C 0.3323 0.09221 0.12295 0.0
C258 C 0.37816 0.02963 0.08909 0.0
C259 C 0.42673 0.06329 0.09039 0.0
N260 N 0.47167 0.14521 0.10981 0.0
N261 N 0.28312 0.01807 0.08471 0.0
C262 C 0.42809 0.10963 0.11335 0.0
C263 C 0.33037 0.04617 0.09877 0.0
N264 N 0.38697 0.15226 0.17813 0.0
N265 N 0.37768 0.98158 0.0812 0.0
H266 H 0.24669 0.02672 0.09397 0.0
H267 H 0.28035 0.98718 0.06129 0.0
H268 H 0.41204 0.96748 0.07781 0.0
H269 H 0.3437 0.95521 0.08454 0.0
H270 H 0.42353 0.17089 0.19139 0.0
H271 H 0.35593 0.1544 0.2033 0.0
H272 H 0.47209 0.18039 0.12316 0.0
H273 H 0.50454 0.14123 0.0882 0.0
C274 C 0.19004 0.93375 0.66048 0.0
C275 C 0.23265 0.92468 0.62945 0.0
C276 C 0.1977 0.96303 0.55716 0.0
C277 C 0.16044 0.97884 0.59054 0.0
N278 N 0.12758 0.98604 0.67671 0.0
N279 N 0.28351 0.94121 0.55133 0.0
C280 C 0.15828 0.966 0.64302 0.0
C281 C 0.23836 0.94219 0.57855 0.0
N282 N 0.17884 0.91051 0.70587 0.0
N283 N 0.19327 0.96601 0.5049 0.0
H284 H 0.31562 0.92864 0.5664 0.0
H285 H 0.29125 0.95779 0.51596 0.0
H286 H 0.16211 0.97811 0.48728 0.0
H287 H 0.21694 0.95101 0.47904 0.0
H288 H 0.14582 0.91319 0.72802 0.0
H289 H 0.19947 0.88474 0.71877 0.0
H290 H 0.12924 0.98237 0.71652 0.0
H291 H 0.10419 0.01001 0.66507 0.0
C292 C 0.81281 0.43333 0.95344 0.0
C293 C 0.80494 0.38304 0.94254 0.0
C294 C 0.89168 0.38334 0.9807 0.0
C295 C 0.90386 0.43466 0.98041 0.0
N296 N 0.87726 0.50612 0.9469 0.0
N297 N 0.84645 0.31323 0.93323 0.0
C298 C 0.86483 0.4593 0.96143 0.0
C299 C 0.84713 0.35871 0.95243 0.0
N300 N 0.77114 0.45651 0.95707 0.0
N301 N 0.92038 0.35773 0.00945 0.0
H302 H 0.81707 0.2953 0.90836 0.0
H303 H 0.87858 0.29609 0.937 0.0
H304 H 0.9488 0.37381 0.03619 0.0
H305 H 0.91021 0.32036 0.01222 0.0
H306 H 0.77588 0.49285 0.96802 0.0
H307 H 0.73202 0.43824 0.95543 0.0
H308 H 0.84946 0.5237 0.93059 0.0
H309 H 0.91594 0.52452 0.94294 0.0
C310 C 0.79262 0.64229 0.49378 0.0
C311 C 0.79861 0.64507 0.4393 0.0
C312 C 0.70991 0.59606 0.42937 0.0
C313 C 0.70004 0.60235 0.48254 0.0
N314 N 0.73206 0.634 0.5661 0.0
N315 N 0.75772 0.63056 0.355 0.0
C316 C 0.7415 0.62618 0.51508 0.0
C317 C 0.75587 0.62338 0.40691 0.0
N318 N 0.83599 0.65293 0.52502 0.0
N319 N 0.67624 0.56282 0.40056 0.0
H320 H 0.78944 0.65225 0.33698 0.0
H321 H 0.72532 0.61907 0.3308 0.0
H322 H 0.64583 0.53905 0.41771 0.0
H323 H 0.6833 0.55434 0.36217 0.0
H324 H 0.83457 0.64794 0.56468 0.0
H325 H 0.87415 0.66119 0.51033 0.0
H326 H 0.75924 0.65583 0.59037 0.0
H327 H 0.69579 0.6209 0.58333 0.0
C328 C 0.19596 0.32285 0.14902 0.0
C329 C 0.17047 0.27517 0.13565 0.0
C330 C 0.1064 0.30627 0.08277 0.0
C331 C 0.12871 0.35382 0.10034 0.0
N332 N 0.18862 0.40673 0.15747 0.0
N333 N 0.09892 0.22032 0.09419 0.0
C334 C 0.1722 0.36206 0.13506 0.0
C335 C 0.12499 0.26654 0.10366 0.0
N336 N 0.24286 0.33064 0.17527 0.0
N337 N 0.06891 0.29911 0.04469 0.0
H338 H 0.11292 0.19026 0.10663 0.0
H339 H 0.0619 0.21173 0.07676 0.0
H340 H 0.05393 0.327 0.02838 0.0
H341 H 0.0556 0.26596 0.02614 0.0
H342 H 0.2664 0.36462 0.18092 0.0
H343 H 0.26058 0.30279 0.18785 0.0
H344 H 0.21622 0.41372 0.18726 0.0
H345 H 0.17099 0.43612 0.15017 0.0
C346 C 0.65993 0.19746 0.90177 0.0
C347 C 0.65655 0.23864 0.93326 0.0
C348 C 0.61626 0.18547 1.002 0.0
C349 C 0.61268 0.14501 0.96798 0.0
N350 N 0.62943 0.11192 0.88437 0.0
N351 N 0.62642 0.27231 0.01153 0.0
C352 C 0.63426 0.15085 0.91756 0.0
C353 C 0.63358 0.23274 0.98307 0.0
N354 N 0.68933 0.20271 0.85766 0.0
N355 N 0.60408 0.17851 0.05278 0.0
H356 H 0.63799 0.30742 0.99874 0.0
H357 H 0.605 0.27026 0.04571 0.0
H358 H 0.59263 0.14417 0.06744 0.0
H359 H 0.61038 0.20594 0.08091 0.0
H360 H 0.69821 0.17385 0.83597 0.0
H361 H 0.70877 0.2361 0.84487 0.0
H362 H 0.63791 0.11461 0.84518 0.0
H363 H 0.61441 0.07679 0.89551 0.0
C364 C 0.96179 0.83355 0.39813 0.0
C365 C 0.94026 0.79452 0.43027 0.0
C366 C 0.94426 0.85274 0.5022 0.0
C367 C 0.97565 0.88981 0.47356 0.0
N368 N 0.02505 0.9084 0.39426 0.0
N369 N 0.93151 0.76817 0.5185 0.0
C370 C 0.9876 0.87844 0.42134 0.0
C371 C 0.93789 0.80443 0.48407 0.0
N372 N 0.95606 0.82904 0.34588 0.0
N373 N 0.9177 0.86326 0.54517 0.0
H374 H 0.93319 0.73285 0.50734 0.0
H375 H 0.93211 0.77478 0.55829 0.0
H376 H 0.91413 0.8984 0.55526 0.0
H377 H 0.8927 0.83672 0.56541 0.0
H378 H 0.96763 0.85796 0.32157 0.0
H379 H 0.93427 0.7984 0.3276 0.0
H380 H 0.03703 0.89921 0.35754 0.0
H381 H 0.04892 0.93898 0.41038 0.0
C382 C 0.39372 0.72092 0.55818 0.0
C383 C 0.40828 0.76087 0.59266 0.0
C384 C 0.47478 0.72 0.63073 0.0
C385 C 0.46647 0.68534 0.5897 0.0
N386 N 0.42792 0.66346 0.50503 0.0
N387 N 0.46696 0.79986 0.6609 0.0
C388 C 0.42859 0.68854 0.55084 0.0
C389 C 0.45 0.76091 0.62888 0.0
N390 N 0.34653 0.71331 0.53253 0.0
N391 N 0.50455 0.71308 0.6724 0.0
H392 H 0.44954 0.83004 0.66305 0.0
H393 H 0.50119 0.80371 0.68309 0.0
H394 H 0.5222 0.68306 0.67562 0.0
H395 H 0.5073 0.7345 0.70593 0.0
H396 H 0.33311 0.68227 0.51009 0.0
H397 H 0.31813 0.73457 0.53863 0.0
H398 H 0.40336 0.66807 0.47441 0.0
H399 H 0.45656 0.64366 0.49466 0.0
C400 C 0.95676 0.86298 0.80286 0.0
C401 C 0.90397 0.86372 0.81682 0.0
C402 C 0.89121 0.90405 0.73747 0.0
C403 C 0.94694 0.915 0.73071 0.0
N404 N 0.03258 0.89796 0.75233 0.0
N405 N 0.81889 0.84928 0.77617 0.0
C406 C 0.97985 0.8924 0.76202 0.0
C407 C 0.87019 0.87275 0.77711 0.0
N408 N 0.98067 0.82781 0.82123 0.0
N409 N 0.85843 0.92612 0.70928 0.0
H410 H 0.80438 0.824 0.80392 0.0
H411 H 0.79334 0.85127 0.74554 0.0
H412 H 0.8718 0.95234 0.68235 0.0
H413 H 0.81814 0.92196 0.71675 0.0
H414 H 0.01774 0.82254 0.80927 0.0
H415 H 0.95944 0.7995 0.84223 0.0
H416 H 0.05894 0.88705 0.77779 0.0
H417 H 0.05 0.91468 0.7196 0.0
C418 C 0.69869 0.07705 0.29108 0.0
C419 C 0.74419 0.11408 0.29001 0.0
C420 C 0.73513 0.12085 0.19676 0.0
C421 C 0.69057 0.08291 0.19775 0.0
N422 N 0.63481 0.01882 0.24304 0.0
N423 N 0.81181 0.16551 0.24257 0.0
C424 C 0.67416 0.05883 0.244 0.0
C425 C 0.76444 0.1341 0.24289 0.0
N426 N 0.677 0.06145 0.33724 0.0
N427 N 0.74856 0.14474 0.15205 0.0
H428 H 0.83399 0.17573 0.27601 0.0
H429 H 0.83124 0.17835 0.20908 0.0
H430 H 0.72877 0.13485 0.11722 0.0
H431 H 0.77712 0.17603 0.1499 0.0
H432 H 0.64022 0.03907 0.34071 0.0
H433 H 0.69395 0.07364 0.37272 0.0
H434 H 0.62582 0.99632 0.27427 0.0
H435 H 0.61314 1.00599 0.21002 0.0
C436 C 0.52786 0.64576 0.31712 0.0
C437 C 0.48603 0.61917 0.2868 0.0
C438 C 0.46996 0.55763 0.354 0.0
C439 C 0.51691 0.58075 0.37964 0.0
N440 N 0.59438 0.64378 0.38193 0.0
N441 N 0.4123 0.55244 0.27915 0.0
C442 C 0.54674 0.62407 0.36027 0.0
C443 C 0.45545 0.57587 0.30619 0.0
N444 N 0.5483 0.69262 0.306 0.0
N445 N 0.43825 0.5194 0.3765 0.0
H446 H 0.39588 0.56778 0.24856 0.0
H447 H 0.39274 0.5176 0.28656 0.0
H448 H 0.44812 0.50487 0.41089 0.0
H449 H 0.4008 0.50365 0.36317 0.0
H450 H 0.57522 0.71524 0.32981 0.0
H451 H 0.53383 0.7108 0.2764 0.0
H452 H 0.62084 0.67196 0.36577 0.0
H453 H 0.60975 0.6289 0.41328 0.0
C454 C 0.13104 0.39019 0.85972 0.0
C455 C 0.12783 0.40286 0.80736 0.0
C456 C 0.09799 0.47683 0.83619 0.0
C457 C 0.09358 0.46091 0.88797 0.0
N458 N 0.09906 0.39702 0.94672 0.0
N459 N 0.09713 0.45371 0.74562 0.0
C460 C 0.10844 0.41615 0.89914 0.0
C461 C 0.10782 0.44477 0.79562 0.0
N462 N 0.15721 0.35436 0.87223 0.0
N463 N 0.09652 0.52366 0.82571 0.0
H464 H 0.10261 0.43064 0.71491 0.0
H465 H 0.07768 0.4812 0.73542 0.0
H466 H 0.09516 0.54984 0.8544 0.0
H467 H 0.10406 0.53795 0.78922 0.0
H468 H 0.16615 0.34721 0.91006 0.0
H469 H 0.1743 0.33464 0.84472 0.0
H470 H 0.1039 0.36235 0.95526 0.0
H471 H 0.08187 0.41394 0.97629 0.0
C472 C 0.78102 0.96232 0.94057 0.0
C473 C 0.77845 0.91225 0.94723 0.0
C474 C 0.6872 0.90372 0.97734 0.0
C475 C 0.68859 0.95302 0.96715 0.0
N476 N 0.73287 0.02732 0.93063 0.0
N477 N 0.72665 0.83341 0.96233 0.0
C478 C 0.7344 0.98176 0.94617 0.0
C479 C 0.73072 0.88233 0.96267 0.0
N480 N 0.82843 0.99157 0.93073 0.0
N481 N 0.6456 0.87801 0.00353 0.0
H482 H 0.7579 0.81646 0.95232 0.0
H483 H 0.69117 0.80948 0.96777 0.0
H484 H 0.61355 0.89275 0.01588 0.0
H485 H 0.64494 0.84353 0.01699 0.0
H486 H 0.83392 0.02901 0.93095 0.0
H487 H 0.86352 0.9787 0.92658 0.0
H488 H 0.76318 0.0484 0.91024 0.0
H489 H 0.69917 0.04251 0.93402 0.0
C490 C 0.89255 0.14301 0.47794 0.0
C491 C 0.84629 0.11604 0.45433 0.0
C492 C 0.86586 0.04256 0.49185 0.0
C493 C 0.90879 0.07069 0.51914 0.0
N494 N 0.94851 0.14919 0.55293 0.0
N495 N 0.78077 0.04222 0.4532 0.0
C496 C 0.91809 0.1214 0.51655 0.0
C497 C 0.83051 0.06623 0.46524 0.0
N498 N 0.91362 0.18839 0.46244 0.0
N499 N 0.85888 0.99343 0.491 0.0
H500 H 0.7521 0.05931 0.43796 0.0
H501 H 0.76613 1.00703 0.46424 0.0
H502 H 0.88388 0.97489 0.51043 0.0
H503 H 0.83104 0.97151 0.46743 0.0
H504 H 0.94966 0.20746 0.47649 0.0
H505 H 0.89832 0.20464 0.4318 0.0
H506 H 0.95102 0.18642 0.55579 0.0
H507 H 0.96611 0.13447 0.58327 0.0
C508 C 0.25418 0.65585 0.13119 0.0
C509 C 0.30203 0.65309 0.10535 0.0
C510 C 0.25297 0.59959 0.03856 0.0
C511 C 0.20597 0.59867 0.0672 0.0
N512 N 0.16131 0.6222 0.14265 0.0
N513 N 0.34879 0.61988 0.03723 0.0
C514 C 0.20642 0.62583 0.11404 0.0
C515 C 0.30193 0.62448 0.05956 0.0
N516 N 0.2543 0.68826 0.17128 0.0
N517 N 0.25058 0.57703 0.99113 0.0
H518 H 0.38523 0.63835 0.05099 0.0
H519 H 0.35209 0.59558 0.00716 0.0
H520 H 0.21559 0.55737 0.97542 0.0
H521 H 0.28227 0.5804 0.96577 0.0
H522 H 0.22018 0.69595 0.18821 0.0
H523 H 0.28859 0.71062 0.18516 0.0
H524 H 0.16034 0.63619 0.18006 0.0
H525 H 0.12493 0.60252 0.13029 0.0
C526 C 0.3674 0.46735 0.64372 0.0
C527 C 0.34105 0.4194 0.63367 0.0
C528 C 0.3954 0.41707 0.55594 0.0
C529 C 0.4303 0.45922 0.57421 0.0
N530 N 0.44911 0.52429 0.63753 0.0
N531 N 0.32304 0.35113 0.57451 0.0
C532 C 0.41549 0.48504 0.61788 0.0
C533 C 0.35253 0.39521 0.58757 0.0
N534 N 0.34645 0.49597 0.67796 0.0
N535 N 0.40258 0.39891 0.50768 0.0
H536 H 0.28829 0.33656 0.59359 0.0
H537 H 0.33346 0.32859 0.54556 0.0
H538 H 0.43214 0.4156 0.48305 0.0
H539 H 0.37645 0.37056 0.49004 0.0
H540 H 0.3616 0.53262 0.68353 0.0
H541 H 0.31032 0.48438 0.69611 0.0
H542 H 0.44342 0.54105 0.67276 0.0
H543 H 0.48507 0.53731 0.62055 0.0
C544 C 1.00492 0.77203 0.00646 0.0
C545 C 0.94962 0.76964 1.00186 0.0
C546 C 0.93815 0.68606 0.97024 0.0
C547 C 0.99325 0.68753 0.97675 0.0
N548 N 0.0804 0.73628 0.98346 0.0
N549 N 0.86952 0.73218 0.95758 0.0
C550 C 0.02709 0.73208 0.98914 0.0
C551 C 0.91825 0.72933 0.97625 0.0
N552 N 0.03606 0.81168 0.0289 0.0
N553 N 0.90371 0.64337 0.96255 0.0
H554 H 0.8543 0.76374 0.95967 0.0
H555 H 0.8472 0.70511 0.93448 0.0
H556 H 0.91491 0.61011 0.95932 0.0
H557 H 0.86287 0.64049 0.96405 0.0
H558 H 0.07517 0.81283 0.03959 0.0
H559 H 0.0222 0.84292 0.03902 0.0
H560 H 0.10701 0.76884 0.98755 0.0
H561 H 0.09748 0.70805 0.96911 0.0
C562 C 0.47227 0.80814 0.06874 0.0
C563 C 0.44468 0.8007 0.11616 0.0
C564 C 0.46307 0.88799 0.13439 0.0
C565 C 0.49227 0.89525 0.08773 0.0
N566 N 0.50819 0.86445 1.0029 0.0
N567 N 0.40196 0.83374 0.18739 0.0
C568 C 0.4915 0.85605 0.05233 0.0
C569 C 0.43651 0.84077 0.14701 0.0
N570 N 0.48208 0.76944 0.04038 0.0
N571 N 0.46068 0.9265 0.16665 0.0
H572 H 0.38167 0.79974 0.19754 0.0
H573 H 0.38992 0.86155 0.20835 0.0
H574 H 0.47348 0.96209 0.15581 0.0
H575 H 0.44696 0.92336 0.2044 0.0
H576 H 0.50714 0.77254 0.00864 0.0
H577 H 0.46852 0.73389 0.05098 0.0
H578 H 0.50439 0.83771 0.97407 0.0
H579 H 0.52038 0.899 0.98917 0.0
C580 C 0.13584 0.21144 0.70968 0.0
C581 C 0.11909 0.25279 0.691 0.0
C582 C 0.07634 0.20502 0.61706 0.0
C583 C 0.08882 0.16179 0.63743 0.0
N584 N 0.13233 0.1251 0.70396 0.0
N585 N 0.06275 0.28634 0.63471 0.0
C586 C 0.11846 0.16536 0.68447 0.0
C587 C 0.08586 0.24851 0.64732 0.0
N588 N 0.17058 0.2168 0.75012 0.0
N589 N 0.05801 0.20636 0.5678 0.0
H590 H 0.06908 0.31887 0.65578 0.0
H591 H 0.03309 0.28364 0.60695 0.0
H592 H 0.04848 0.17702 0.54262 0.0
H593 H 0.05612 0.23845 0.54967 0.0
H594 H 0.18988 0.18993 0.76226 0.0
H595 H 0.18211 0.24943 0.77044 0.0
H596 H 0.14642 0.12332 0.7413 0.0
H597 H 0.12956 0.09299 0.6828 0.0
C598 C 0.7501 0.36774 0.42671 0.0
C599 C 0.72637 0.32081 0.40831 0.0
C600 C 0.63918 0.34111 0.42348 0.0
C601 C 0.66325 0.38984 0.43379 0.0
N602 N 0.74216 0.45134 0.4284 0.0
N603 N 0.64637 0.26784 0.37733 0.0
C604 C 0.71888 0.40378 0.4301 0.0
C605 C 0.67034 0.30909 0.40273 0.0
N606 N 0.80133 0.37809 0.44327 0.0
N607 N 0.58773 0.32404 0.43621 0.0
H608 H 0.66677 0.24295 0.36102 0.0
H609 H 0.60628 0.26082 0.36811 0.0
H610 H 0.56381 0.34468 0.45496 0.0
H611 H 0.57067 0.28753 0.43372 0.0
H612 H 0.8181 0.41134 0.46015 0.0
H613 H 0.82477 0.35232 0.44746 0.0
H614 H 0.78239 0.46272 0.42163 0.0
H615 H 0.72054 0.47889 0.42699 0.0
loop_
_geom_bond_atom_site_label_1
_geom_bond_atom_site_label_2
_geom_bond_distance
_geom_bond_site_symmetry_2
_ccdc_geom_bond_type
H0 C7 0.929 . S
H1 C10 0.930 . S
H2 C12 0.929 . S
H3 C4 0.969 . S
C4 H3 0.969 . S
C4 O5 1.550 . S
C4 H6 0.973 . S
O5 C4 1.550 . S
O5 C11 1.412 . S
H6 C4 0.973 . S
C7 H0 0.929 . S
C7 C8 1.400 . S
C7 C9 1.364 . S
C8 C7 1.400 . S
C8 C12 1.377 . S
C9 C7 1.364 . S
C9 C10 1.374 . S
C10 H1 0.930 . S
C10 C9 1.374 . S
C10 C11 1.383 . S
C11 O5 1.412 . S
C11 C10 1.383 . S
C11 C12 1.394 . S
C12 H2 0.929 . S
C12 C8 1.377 . S
C12 C11 1.394 . S
H13 C20 0.929 . S
H14 C23 0.930 . S
H15 C25 0.929 . S
H16 C17 0.969 . S
C17 H16 0.969 . S
C17 O18 1.550 . S
C17 H19 0.973 . S
O18 C17 1.550 . S
O18 C24 1.412 . S
H19 C17 0.973 . S
C20 H13 0.929 . S
C20 C21 1.400 . S
C20 C22 1.364 . S
C21 C20 1.400 . S
C21 C25 1.377 . S
C22 C20 1.364 . S
C22 C23 1.374 . S
C23 H14 0.930 . S
C23 C22 1.374 . S
C23 C24 1.383 . S
C24 O18 1.412 . S
C24 C23 1.383 . S
C24 C25 1.394 . S
C25 H15 0.929 . S
C25 C21 1.377 . S
C25 C24 1.394 . S
H26 C33 0.929 . S
H27 C36 0.930 . S
H28 C38 0.929 . S
H29 C30 0.969 . S
C30 H29 0.969 . S
C30 O31 1.550 . S
C30 H32 0.973 . S
O31 C30 1.550 . S
O31 C37 1.412 . S
H32 C30 0.973 . S
C33 H26 0.929 . S
C33 C34 1.400 . S
C33 C35 1.364 . S
C34 C33 1.400 . S
C34 C38 1.377 . S
C35 C33 1.364 . S
C35 C36 1.374 . S
C36 H27 0.930 . S
C36 C35 1.374 . S
C36 C37 1.383 . S
C37 O31 1.412 . S
C37 C36 1.383 . S
C37 C38 1.394 . S
C38 H28 0.929 . S
C38 C34 1.377 . S
C38 C37 1.394 . S
H39 C46 0.929 . S
H40 C49 0.930 . S
H41 C51 0.929 . S
H42 C43 0.969 . S
C43 H42 0.969 . S
C43 O44 1.550 . S
C43 H45 0.973 . S
O44 C43 1.550 . S
O44 C50 1.412 . S
H45 C43 0.973 . S
C46 H39 0.929 . S
C46 C47 1.400 . S
C46 C48 1.364 . S
C47 C46 1.400 . S
C47 C51 1.377 . S
C48 C46 1.364 . S
C48 C49 1.374 . S
C49 H40 0.930 . S
C49 C48 1.374 . S
C49 C50 1.383 . S
C50 O44 1.412 . S
C50 C49 1.383 . S
C50 C51 1.394 . S
C51 H41 0.929 . S
C51 C47 1.377 . S
C51 C50 1.394 . S
H52 C59 0.929 . S
H53 C62 0.930 . S
H54 C64 0.929 . S
H55 C56 0.969 . S
C56 H55 0.969 . S
C56 O57 1.550 . S
C56 H58 0.973 . S
O57 C56 1.550 . S
O57 C63 1.412 . S
H58 C56 0.973 . S
C59 H52 0.929 . S
C59 C60 1.400 . S
C59 C61 1.364 . S
C60 C59 1.400 . S
C60 C64 1.377 . S
C61 C59 1.364 . S
C61 C62 1.374 . S
C62 H53 0.930 . S
C62 C61 1.374 . S
C62 C63 1.383 . S
C63 O57 1.412 . S
C63 C62 1.383 . S
C63 C64 1.394 . S
C64 H54 0.929 . S
C64 C60 1.377 . S
C64 C63 1.394 . S
H65 C72 0.929 . S
H66 C75 0.930 . S
H67 C77 0.929 . S
H68 C69 0.969 . S
C69 H68 0.969 . S
C69 O70 1.550 . S
C69 H71 0.973 . S
O70 C69 1.550 . S
O70 C76 1.412 . S
H71 C69 0.973 . S
C72 H65 0.929 . S
C72 C73 1.400 . S
C72 C74 1.364 . S
C73 C72 1.400 . S
C73 C77 1.377 . S
C74 C72 1.364 . S
C74 C75 1.374 . S
C75 H66 0.930 . S
C75 C74 1.374 . S
C75 C76 1.383 . S
C76 O70 1.412 . S
C76 C75 1.383 . S
C76 C77 1.394 . S
C77 H67 0.929 . S
C77 C73 1.377 . S
C77 C76 1.394 . S
H78 C85 0.929 . S
H79 C88 0.930 . S
H80 C90 0.929 . S
H81 C82 0.969 . S
C82 H81 0.969 . S
C82 O83 1.550 . S
C82 H84 0.973 . S
O83 C82 1.550 . S
O83 C89 1.412 . S
H84 C82 0.973 . S
C85 H78 0.929 . S
C85 C86 1.400 . S
C85 C87 1.364 . S
C86 C85 1.400 . S
C86 C90 1.377 . S
C87 C85 1.364 . S
C87 C88 1.374 . S
C88 H79 0.930 . S
C88 C87 1.374 . S
C88 C89 1.383 . S
C89 O83 1.412 . S
C89 C88 1.383 . S
C89 C90 1.394 . S
C90 H80 0.929 . S
C90 C86 1.377 . S
C90 C89 1.394 . S
H91 C98 0.929 . S
H92 C101 0.930 . S
H93 C103 0.929 . S
H94 C95 0.969 . S
C95 H94 0.969 . S
C95 O96 1.550 . S
C95 H97 0.973 . S
O96 C95 1.550 . S
O96 C102 1.412 . S
H97 C95 0.973 . S
C98 H91 0.929 . S
C98 C99 1.400 . S
C98 C100 1.364 . S
C99 C98 1.400 . S
C99 C103 1.377 . S
C100 C98 1.364 . S
C100 C101 1.374 . S
C101 H92 0.930 . S
C101 C100 1.374 . S
C101 C102 1.383 . S
C102 O96 1.412 . S
C102 C101 1.383 . S
C102 C103 1.394 . S
C103 H93 0.929 . S
C103 C99 1.377 . S
C103 C102 1.394 . S
Dy104 O108 2.398 . S
Dy104 O109 2.491 . S
Dy104 O110 2.403 . S
Dy104 O111 2.664 1_545 S
Dy104 O115 2.326 . S
Dy104 O119 2.310 1_455 S
Dy104 O120 2.351 1_545 S
C105 O116 1.185 . S
C105 O117 1.355 . S
C106 O108 1.185 . S
C106 O109 1.355 . S
Dy107 O111 2.310 1_645 S
Dy107 O114 2.351 1_655 S
Dy107 O116 2.398 1_545 S
Dy107 O117 2.491 1_545 S
Dy107 O118 2.403 . S
Dy107 O119 2.664 . S
Dy107 O121 2.326 1_545 S
O108 Dy104 2.398 . S
O108 C106 1.185 . S
O109 Dy104 2.491 . S
O109 C106 1.355 . S
O110 Dy104 2.403 . S
O110 C112 1.254 1_545 S
O111 Dy104 2.664 1_565 S
O111 Dy107 2.310 1_465 S
O111 C112 1.268 . S
C112 O110 1.254 1_565 S
C112 O111 1.268 . S
C113 O118 1.254 . S
C113 O119 1.268 . S
O114 Dy107 2.351 1_455 S
O114 C122 1.249 . S
O115 Dy104 2.326 . S
O115 C122 1.267 . S
O116 C105 1.185 . S
O116 Dy107 2.398 1_565 S
O117 C105 1.355 . S
O117 Dy107 2.491 1_565 S
O118 Dy107 2.403 . S
O118 C113 1.254 . S
O119 Dy104 2.310 1_655 S
O119 Dy107 2.664 . S
O119 C113 1.268 . S
O120 Dy104 2.351 1_565 S
O120 C123 1.249 1_455 S
O121 Dy107 2.326 1_565 S
O121 C123 1.267 . S
C122 O114 1.249 . S
C122 O115 1.267 . S
C123 O120 1.249 1_655 S
C123 O121 1.267 . S
Dy124 O128 2.398 . S
Dy124 O129 2.491 . S
Dy124 O130 2.403 1_545 S
Dy124 O131 2.664 1_545 S
Dy124 O135 2.326 . S
Dy124 O139 2.310 . S
Dy124 O140 2.351 1_545 S
C125 O136 1.185 . S
C125 O137 1.355 . S
C126 O128 1.185 . S
C126 O129 1.355 . S
Dy127 O131 2.310 1_546 S
Dy127 O134 2.351 1_556 S
Dy127 O136 2.398 1_545 S
Dy127 O137 2.491 1_545 S
Dy127 O138 2.403 . S
Dy127 O139 2.664 1_556 S
Dy127 O141 2.326 1_545 S
O128 Dy124 2.398 . S
O128 C126 1.185 . S
O129 Dy124 2.491 . S
O129 C126 1.355 . S
O130 Dy124 2.403 1_565 S
O130 C132 1.254 . S
O131 Dy124 2.664 1_565 S
O131 Dy127 2.310 1_564 S
O131 C132 1.268 . S
C132 O130 1.254 . S
C132 O131 1.268 . S
C133 O138 1.254 . S
C133 O139 1.268 1_556 S
O134 Dy127 2.351 1_554 S
O134 C142 1.249 . S
O135 Dy124 2.326 . S
O135 C142 1.267 . S
O136 C125 1.185 . S
O136 Dy127 2.398 1_565 S
O137 C125 1.355 . S
O137 Dy127 2.491 1_565 S
O138 Dy127 2.403 . S
O138 C133 1.254 . S
O139 Dy124 2.310 . S
O139 Dy127 2.664 1_554 S
O139 C133 1.268 1_554 S
O140 Dy124 2.351 1_565 S
O140 C143 1.249 1_554 S
O141 Dy127 2.326 1_565 S
O141 C143 1.267 . S
C142 O134 1.249 . S
C142 O135 1.267 . S
C143 O140 1.249 1_556 S
C143 O141 1.267 . S
Dy144 O148 2.398 . S
Dy144 O149 2.491 . S
Dy144 O150 2.403 . S
Dy144 O151 2.664 . S
Dy144 O155 2.326 . S
Dy144 O159 2.310 . S
Dy144 O160 2.351 . S
C145 O156 1.185 . S
C145 O157 1.355 . S
C146 O148 1.185 . S
C146 O149 1.355 . S
Dy147 O151 2.310 . S
Dy147 O154 2.351 . S
Dy147 O156 2.398 . S
Dy147 O157 2.491 . S
Dy147 O158 2.403 . S
Dy147 O159 2.664 . S
Dy147 O161 2.326 . S
O148 Dy144 2.398 . S
O148 C146 1.185 . S
O149 Dy144 2.491 . S
O149 C146 1.355 . S
O150 Dy144 2.403 . S
O150 C152 1.254 . S
O151 Dy144 2.664 . S
O151 Dy147 2.310 . S
O151 C152 1.268 . S
C152 O150 1.254 . S
C152 O151 1.268 . S
C153 O158 1.254 . S
C153 O159 1.268 . S
O154 Dy147 2.351 . S
O154 C162 1.249 . S
O155 Dy144 2.326 . S
O155 C162 1.267 . S
O156 C145 1.185 . S
O156 Dy147 2.398 . S
O157 C145 1.355 . S
O157 Dy147 2.491 . S
O158 Dy147 2.403 . S
O158 C153 1.254 . S
O159 Dy144 2.310 . S
O159 Dy147 2.664 . S
O159 C153 1.268 . S
O160 Dy144 2.351 . S
O160 C163 1.249 . S
O161 Dy147 2.326 . S
O161 C163 1.267 . S
C162 O154 1.249 . S
C162 O155 1.267 . S
C163 O160 1.249 . S
C163 O161 1.267 . S
Dy164 O168 2.398 . S
Dy164 O169 2.491 . S
Dy164 O170 2.403 . S
Dy164 O171 2.664 . S
Dy164 O175 2.326 . S
Dy164 O179 2.310 . S
Dy164 O180 2.351 1_455 S
C165 O176 1.185 . S
C165 O177 1.355 1_556 S
C166 O168 1.185 . S
C166 O169 1.355 . S
Dy167 O171 2.310 . S
Dy167 O174 2.351 . S
Dy167 O176 2.398 1_454 S
Dy167 O177 2.491 1_455 S
Dy167 O178 2.403 1_554 S
Dy167 O179 2.664 . S
Dy167 O181 2.326 1_454 S
O168 Dy164 2.398 . S
O168 C166 1.185 . S
O169 Dy164 2.491 . S
O169 C166 1.355 . S
O170 Dy164 2.403 . S
O170 C172 1.254 1_455 S
O171 Dy164 2.664 . S
O171 Dy167 2.310 . S
O171 C172 1.268 1_455 S
C172 O170 1.254 1_655 S
C172 O171 1.268 1_655 S
C173 O178 1.254 . S
C173 O179 1.268 1_556 S
O174 Dy167 2.351 . S
O174 C182 1.249 . S
O175 Dy164 2.326 . S
O175 C182 1.267 . S
O176 C165 1.185 . S
O176 Dy167 2.398 1_656 S
O177 C165 1.355 1_554 S
O177 Dy167 2.491 1_655 S
O178 Dy167 2.403 1_556 S
O178 C173 1.254 . S
O179 Dy164 2.310 . S
O179 Dy167 2.664 . S
O179 C173 1.268 1_554 S
O180 Dy164 2.351 1_655 S
O180 C183 1.249 . S
O181 Dy167 2.326 1_656 S
O181 C183 1.267 1_556 S
C182 O174 1.249 . S
C182 O175 1.267 . S
C183 O180 1.249 . S
C183 O181 1.267 1_554 S
C184 C185 1.363 . S
C184 C190 1.379 . S
C184 N192 1.356 . S
C185 C184 1.363 . S
C185 C191 1.363 . S
C186 C187 1.363 . S
C186 C191 1.379 . S
C186 N193 1.356 . S
C187 C186 1.363 . S
C187 C190 1.363 . S
N188 C190 1.356 . S
N188 H200 0.984 . S
N188 H201 0.985 . S
N189 C191 1.356 . S
N189 H194 0.984 . S
N189 H195 0.985 . S
C190 C184 1.379 . S
C190 C187 1.363 . S
C190 N188 1.356 . S
C191 C185 1.363 . S
C191 C186 1.379 . S
C191 N189 1.356 . S
N192 C184 1.356 . S
N192 H198 0.984 . S
N192 H199 0.984 . S
N193 C186 1.356 . S
N193 H196 0.984 . S
N193 H197 0.985 . S
H194 N189 0.984 . S
H195 N189 0.985 . S
H196 N193 0.984 . S
H197 N193 0.985 . S
H198 N192 0.984 . S
H199 N192 0.984 . S
H200 N188 0.984 . S
H201 N188 0.985 . S
C202 C203 1.363 . S
C202 C208 1.379 . S
C202 N210 1.363 . S
C203 C202 1.363 . S
C203 C209 1.363 . S
C204 C205 1.363 . S
C204 C209 1.379 . S
C204 N211 1.356 . S
C205 C204 1.363 . S
C205 C208 1.363 . S
N206 C208 1.356 1_545 S
N206 H218 0.984 . S
N206 H219 0.985 1_545 S
N207 C209 1.356 . S
N207 H212 0.984 . S
N207 H213 0.985 . S
C208 C202 1.379 . S
C208 C205 1.363 . S
C208 N206 1.356 1_565 S
C209 C203 1.363 . S
C209 C204 1.379 . S
C209 N207 1.356 . S
N210 C202 1.363 . S
N210 H216 0.977 1_565 S
N210 H217 0.986 . S
N211 C204 1.356 . S
N211 H214 0.984 . S
N211 H215 0.985 . S
H212 N207 0.984 . S
H213 N207 0.985 . S
H214 N211 0.984 . S
H215 N211 0.985 . S
H216 N210 0.977 1_545 S
H217 N210 0.986 . S
H218 N206 0.984 . S
H219 N206 0.985 1_565 S
C220 C221 1.363 . S
C220 C226 1.379 . S
C220 N228 1.356 . S
C221 C220 1.363 . S
C221 C227 1.363 . S
C222 C223 1.363 . S
C222 C227 1.379 . S
C222 N229 1.356 . S
C223 C222 1.363 . S
C223 C226 1.363 . S
N224 C226 1.356 . S
N224 H236 0.984 . S
N224 H237 0.985 . S
N225 C227 1.356 . S
N225 H230 0.984 . S
N225 H231 0.985 . S
C226 C220 1.379 . S
C226 C223 1.363 . S
C226 N224 1.356 . S
C227 C221 1.363 . S
C227 C222 1.379 . S
C227 N225 1.356 . S
N228 C220 1.356 . S
N228 H234 0.984 . S
N228 H235 0.984 . S
N229 C222 1.356 . S
N229 H232 0.984 . S
N229 H233 0.985 . S
H230 N225 0.984 . S
H231 N225 0.985 . S
H232 N229 0.984 . S
H233 N229 0.985 . S
H234 N228 0.984 . S
H235 N228 0.984 . S
H236 N224 0.984 . S
H237 N224 0.985 . S
C238 C239 1.363 . S
C238 C244 1.379 . S
C238 N246 1.356 . S
C239 C238 1.363 . S
C239 C245 1.363 . S
C240 C241 1.363 . S
C240 C245 1.379 . S
C240 N247 1.356 . S
C241 C240 1.363 . S
C241 C244 1.363 . S
N242 C244 1.356 1_455 S
N242 H254 0.984 . S
N242 H255 0.985 . S
N243 C245 1.356 . S
N243 H248 0.984 . S
N243 H249 0.985 . S
C244 C238 1.379 . S
C244 C241 1.363 . S
C244 N242 1.356 1_655 S
C245 C239 1.363 . S
C245 C240 1.379 . S
C245 N243 1.356 . S
N246 C238 1.356 . S
N246 H252 0.984 1_655 S
N246 H253 0.984 . S
N247 C240 1.356 . S
N247 H250 0.984 . S
N247 H251 0.985 . S
H248 N243 0.984 . S
H249 N243 0.985 . S
H250 N247 0.984 . S
H251 N247 0.985 . S
H252 N246 0.984 1_455 S
H253 N246 0.984 . S
H254 N242 0.984 . S
H255 N242 0.985 . S
C256 C257 1.363 . S
C256 C262 1.379 . S
C256 N264 1.356 . S
C257 C256 1.363 . S
C257 C263 1.363 . S
C258 C259 1.363 . S
C258 C263 1.379 . S
C258 N265 1.356 . S
C259 C258 1.363 . S
C259 C262 1.363 . S
N260 C262 1.356 . S
N260 H272 0.984 . S
N260 H273 0.985 . S
N261 C263 1.356 . S
N261 H266 0.984 . S
N261 H267 0.985 . S
C262 C256 1.379 . S
C262 C259 1.363 . S
C262 N260 1.356 . S
C263 C257 1.363 . S
C263 C258 1.379 . S
C263 N261 1.356 . S
N264 C256 1.356 . S
N264 H270 0.984 . S
N264 H271 0.984 . S
N265 C258 1.356 . S
N265 H268 0.984 . S
N265 H269 0.985 . S
H266 N261 0.984 . S
H267 N261 0.985 . S
H268 N265 0.984 . S
H269 N265 0.985 . S
H270 N264 0.984 . S
H271 N264 0.984 . S
H272 N260 0.984 . S
H273 N260 0.985 . S
C274 C275 1.363 . S
C274 C280 1.379 . S
C274 N282 1.356 . S
C275 C274 1.363 . S
C275 C281 1.363 . S
C276 C277 1.363 . S
C276 C281 1.379 . S
C276 N283 1.356 . S
C277 C276 1.363 . S
C277 C280 1.363 . S
N278 C280 1.356 . S
N278 H290 0.984 . S
N278 H291 0.985 . S
N279 C281 1.356 . S
N279 H284 0.984 . S
N279 H285 0.985 . S
C280 C274 1.379 . S
C280 C277 1.363 . S
C280 N278 1.356 . S
C281 C275 1.363 . S
C281 C276 1.379 . S
C281 N279 1.356 . S
N282 C274 1.356 . S
N282 H288 0.984 . S
N282 H289 0.984 . S
N283 C276 1.356 . S
N283 H286 0.984 . S
N283 H287 0.985 . S
H284 N279 0.984 . S
H285 N279 0.985 . S
H286 N283 0.984 . S
H287 N283 0.985 . S
H288 N282 0.984 . S
H289 N282 0.984 . S
H290 N278 0.984 . S
H291 N278 0.985 . S
C292 C293 1.363 . S
C292 C298 1.379 . S
C292 N300 1.356 . S
C293 C292 1.363 . S
C293 C299 1.363 . S
C294 C295 1.363 . S
C294 C299 1.379 . S
C294 N301 1.356 1_556 S
C295 C294 1.363 . S
C295 C298 1.363 . S
N296 C298 1.356 . S
N296 H308 0.984 . S
N296 H309 0.985 . S
N297 C299 1.356 . S
N297 H302 0.984 . S
N297 H303 0.985 . S
C298 C292 1.379 . S
C298 C295 1.363 . S
C298 N296 1.356 . S
C299 C293 1.363 . S
C299 C294 1.379 . S
C299 N297 1.356 . S
N300 C292 1.356 . S
N300 H306 0.984 . S
N300 H307 0.984 . S
N301 C294 1.356 1_554 S
N301 H304 0.984 . S
N301 H305 0.985 . S
H302 N297 0.984 . S
H303 N297 0.985 . S
H304 N301 0.984 . S
H305 N301 0.985 . S
H306 N300 0.984 . S
H307 N300 0.984 . S
H308 N296 0.984 . S
H309 N296 0.985 . S
C310 C311 1.363 . S
C310 C316 1.379 . S
C310 N318 1.356 . S
C311 C310 1.363 . S
C311 C317 1.363 . S
C312 C313 1.363 . S
C312 C317 1.379 . S
C312 N319 1.356 . S
C313 C312 1.363 . S
C313 C316 1.363 . S
N314 C316 1.356 . S
N314 H326 0.984 . S
N314 H327 0.985 . S
N315 C317 1.356 . S
N315 H320 0.984 . S
N315 H321 0.985 . S
C316 C310 1.379 . S
C316 C313 1.363 . S
C316 N314 1.356 . S
C317 C311 1.363 . S
C317 C312 1.379 . S
C317 N315 1.356 . S
N318 C310 1.356 . S
N318 H324 0.984 . S
N318 H325 0.984 . S
N319 C312 1.356 . S
N319 H322 0.984 . S
N319 H323 0.985 . S
H320 N315 0.984 . S
H321 N315 0.985 . S
H322 N319 0.984 . S
H323 N319 0.985 . S
H324 N318 0.984 . S
H325 N318 0.984 . S
H326 N314 0.984 . S
H327 N314 0.985 . S
C328 C329 1.363 . S
C328 C334 1.379 . S
C328 N336 1.356 . S
C329 C328 1.363 . S
C329 C335 1.363 . S
C330 C331 1.363 . S
C330 C335 1.379 . S
C330 N337 1.356 . S
C331 C330 1.363 . S
C331 C334 1.363 . S
N332 C334 1.356 . S
N332 H344 0.984 . S
N332 H345 0.985 . S
N333 C335 1.356 . S
N333 H338 0.984 . S
N333 H339 0.985 . S
C334 C328 1.379 . S
C334 C331 1.363 . S
C334 N332 1.356 . S
C335 C329 1.363 . S
C335 C330 1.379 . S
C335 N333 1.356 . S
N336 C328 1.356 . S
N336 H342 0.984 . S
N336 H343 0.984 . S
N337 C330 1.356 . S
N337 H340 0.984 . S
N337 H341 0.985 . S
H338 N333 0.984 . S
H339 N333 0.985 . S
H340 N337 0.984 . S
H341 N337 0.985 . S
H342 N336 0.984 . S
H343 N336 0.984 . S
H344 N332 0.984 . S
H345 N332 0.985 . S
C346 C347 1.363 . S
C346 C352 1.379 . S
C346 N354 1.356 . S
C347 C346 1.363 . S
C347 C353 1.363 . S
C348 C349 1.363 . S
C348 C353 1.379 . S
C348 N355 1.356 1_556 S
C349 C348 1.363 . S
C349 C352 1.363 . S
N350 C352 1.356 . S
N350 H362 0.984 . S
N350 H363 0.985 . S
N351 C353 1.356 . S
N351 H356 0.984 . S
N351 H357 0.985 1_556 S
C352 C346 1.379 . S
C352 C349 1.363 . S
C352 N350 1.356 . S
C353 C347 1.363 . S
C353 C348 1.379 . S
C353 N351 1.356 . S
N354 C346 1.356 . S
N354 H360 0.984 . S
N354 H361 0.984 . S
N355 C348 1.356 1_554 S
N355 H358 0.984 . S
N355 H359 0.985 . S
H356 N351 0.984 . S
H357 N351 0.985 1_554 S
H358 N355 0.984 . S
H359 N355 0.985 . S
H360 N354 0.984 . S
H361 N354 0.984 . S
H362 N350 0.984 . S
H363 N350 0.985 . S
C364 C365 1.363 . S
C364 C370 1.379 . S
C364 N372 1.356 . S
C365 C364 1.363 . S
C365 C371 1.363 . S
C366 C367 1.363 . S
C366 C371 1.379 . S
C366 N373 1.356 . S
C367 C366 1.363 . S
C367 C370 1.363 . S
N368 C370 1.356 . S
N368 H380 0.984 1_655 S
N368 H381 0.985 1_655 S
N369 C371 1.356 . S
N369 H374 0.984 . S
N369 H375 0.985 . S
C370 C364 1.379 . S
C370 C367 1.363 . S
C370 N368 1.356 . S
C371 C365 1.363 . S
C371 C366 1.379 . S
C371 N369 1.356 . S
N372 C364 1.356 . S
N372 H378 0.984 . S
N372 H379 0.984 . S
N373 C366 1.356 . S
N373 H376 0.984 . S
N373 H377 0.985 . S
H374 N369 0.984 . S
H375 N369 0.985 . S
H376 N373 0.984 . S
H377 N373 0.985 . S
H378 N372 0.984 . S
H379 N372 0.984 . S
H380 N368 0.984 1_455 S
H381 N368 0.985 1_455 S
C382 C383 1.363 . S
C382 C388 1.379 . S
C382 N390 1.356 . S
C383 C382 1.363 . S
C383 C389 1.363 . S
C384 C385 1.363 . S
C384 C389 1.379 . S
C384 N391 1.356 . S
C385 C384 1.363 . S
C385 C388 1.363 . S
N386 C388 1.356 . S
N386 H398 0.984 . S
N386 H399 0.985 . S
N387 C389 1.356 . S
N387 H392 0.984 . S
N387 H393 0.985 . S
C388 C382 1.379 . S
C388 C385 1.363 . S
C388 N386 1.356 . S
C389 C383 1.363 . S
C389 C384 1.379 . S
C389 N387 1.356 . S
N390 C382 1.356 . S
N390 H396 0.984 . S
N390 H397 0.984 . S
N391 C384 1.356 . S
N391 H394 0.984 . S
N391 H395 0.985 . S
H392 N387 0.984 . S
H393 N387 0.985 . S
H394 N391 0.984 . S
H395 N391 0.985 . S
H396 N390 0.984 . S
H397 N390 0.984 . S
H398 N386 0.984 . S
H399 N386 0.985 . S
C400 C401 1.363 . S
C400 C406 1.379 . S
C400 N408 1.356 . S
C401 C400 1.363 . S
C401 C407 1.363 . S
C402 C403 1.363 . S
C402 C407 1.379 . S
C402 N409 1.356 . S
C403 C402 1.363 . S
C403 C406 1.363 . S
N404 C406 1.356 . S
N404 H416 0.984 . S
N404 H417 0.985 . S
N405 C407 1.356 . S
N405 H410 0.984 . S
N405 H411 0.985 . S
C406 C400 1.379 . S
C406 C403 1.363 . S
C406 N404 1.356 . S
C407 C401 1.363 . S
C407 C402 1.379 . S
C407 N405 1.356 . S
N408 C400 1.356 . S
N408 H414 0.984 . S
N408 H415 0.984 . S
N409 C402 1.356 . S
N409 H412 0.984 . S
N409 H413 0.985 . S
H410 N405 0.984 . S
H411 N405 0.985 . S
H412 N409 0.984 . S
H413 N409 0.985 . S
H414 N408 0.984 . S
H415 N408 0.984 . S
H416 N404 0.984 . S
H417 N404 0.985 . S
C418 C419 1.363 . S
C418 C424 1.379 . S
C418 N426 1.356 . S
C419 C418 1.363 . S
C419 C425 1.363 . S
C420 C421 1.363 . S
C420 C425 1.379 . S
C420 N427 1.356 . S
C421 C420 1.363 . S
C421 C424 1.363 . S
N422 C424 1.356 . S
N422 H434 0.984 1_545 S
N422 H435 0.985 . S
N423 C425 1.356 . S
N423 H428 0.984 . S
N423 H429 0.985 . S
C424 C418 1.379 . S
C424 C421 1.363 . S
C424 N422 1.356 . S
C425 C419 1.363 . S
C425 C420 1.379 . S
C425 N423 1.356 . S
N426 C418 1.356 . S
N426 H432 0.984 . S
N426 H433 0.984 . S
N427 C420 1.356 . S
N427 H430 0.984 . S
N427 H431 0.985 . S
H428 N423 0.984 . S
H429 N423 0.985 . S
H430 N427 0.984 . S
H431 N427 0.985 . S
H432 N426 0.984 . S
H433 N426 0.984 . S
H434 N422 0.984 1_565 S
H435 N422 0.985 . S
C436 C437 1.363 . S
C436 C442 1.379 . S
C436 N444 1.356 . S
C437 C436 1.363 . S
C437 C443 1.363 . S
C438 C439 1.363 . S
C438 C443 1.379 . S
C438 N445 1.356 . S
C439 C438 1.363 . S
C439 C442 1.363 . S
N440 C442 1.356 . S
N440 H452 0.984 . S
N440 H453 0.985 . S
N441 C443 1.356 . S
N441 H446 0.984 . S
N441 H447 0.985 . S
C442 C436 1.379 . S
C442 C439 1.363 . S
C442 N440 1.356 . S
C443 C437 1.363 . S
C443 C438 1.379 . S
C443 N441 1.356 . S
N444 C436 1.356 . S
N444 H450 0.984 . S
N444 H451 0.984 . S
N445 C438 1.356 . S
N445 H448 0.984 . S
N445 H449 0.985 . S
H446 N441 0.984 . S
H447 N441 0.985 . S
H448 N445 0.984 . S
H449 N445 0.985 . S
H450 N444 0.984 . S
H451 N444 0.984 . S
H452 N440 0.984 . S
H453 N440 0.985 . S
C454 C455 1.363 . S
C454 C460 1.379 . S
C454 N462 1.356 . S
C455 C454 1.363 . S
C455 C461 1.363 . S
C456 C457 1.363 . S
C456 C461 1.379 . S
C456 N463 1.356 . S
C457 C456 1.363 . S
C457 C460 1.363 . S
N458 C460 1.356 . S
N458 H470 0.984 . S
N458 H471 0.985 . S
N459 C461 1.356 . S
N459 H464 0.984 . S
N459 H465 0.985 . S
C460 C454 1.379 . S
C460 C457 1.363 . S
C460 N458 1.356 . S
C461 C455 1.363 . S
C461 C456 1.379 . S
C461 N459 1.356 . S
N462 C454 1.356 . S
N462 H468 0.984 . S
N462 H469 0.984 . S
N463 C456 1.356 . S
N463 H466 0.984 . S
N463 H467 0.985 . S
H464 N459 0.984 . S
H465 N459 0.985 . S
H466 N463 0.984 . S
H467 N463 0.985 . S
H468 N462 0.984 . S
H469 N462 0.984 . S
H470 N458 0.984 . S
H471 N458 0.985 . S
C472 C473 1.363 . S
C472 C478 1.379 . S
C472 N480 1.356 . S
C473 C472 1.363 . S
C473 C479 1.363 . S
C474 C475 1.363 . S
C474 C479 1.379 . S
C474 N481 1.356 . S
C475 C474 1.363 . S
C475 C478 1.363 . S
N476 C478 1.356 . S
N476 H488 0.984 . S
N476 H489 0.985 . S
N477 C479 1.356 . S
N477 H482 0.984 . S
N477 H483 0.985 . S
C478 C472 1.379 . S
C478 C475 1.363 . S
C478 N476 1.356 . S
C479 C473 1.363 . S
C479 C474 1.379 . S
C479 N477 1.356 . S
N480 C472 1.356 . S
N480 H486 0.984 . S
N480 H487 0.984 . S
N481 C474 1.356 . S
N481 H484 0.984 . S
N481 H485 0.985 . S
H482 N477 0.984 . S
H483 N477 0.985 . S
H484 N481 0.984 . S
H485 N481 0.985 . S
H486 N480 0.984 . S
H487 N480 0.984 . S
H488 N476 0.984 . S
H489 N476 0.985 . S
C490 C491 1.363 . S
C490 C496 1.379 . S
C490 N498 1.356 . S
C491 C490 1.363 . S
C491 C497 1.363 . S
C492 C493 1.363 . S
C492 C497 1.379 . S
C492 N499 1.348 1_545 S
C493 C492 1.363 . S
C493 C496 1.363 . S
N494 C496 1.356 . S
N494 H506 0.984 . S
N494 H507 0.985 . S
N495 C497 1.356 . S
N495 H500 0.984 . S
N495 H501 0.985 1_545 S
C496 C490 1.379 . S
C496 C493 1.363 . S
C496 N494 1.356 . S
C497 C491 1.363 . S
C497 C492 1.379 . S
C497 N495 1.356 . S
N498 C490 1.356 . S
N498 H504 0.984 . S
N498 H505 0.984 . S
N499 C492 1.348 1_565 S
N499 H502 0.987 1_565 S
N499 H503 0.992 . S
H500 N495 0.984 . S
H501 N495 0.985 1_565 S
H502 N499 0.987 1_545 S
H503 N499 0.992 . S
H504 N498 0.984 . S
H505 N498 0.984 . S
H506 N494 0.984 . S
H507 N494 0.985 . S
C508 C509 1.363 . S
C508 C514 1.379 . S
C508 N516 1.356 . S
C509 C508 1.363 . S
C509 C515 1.363 . S
C510 C511 1.363 . S
C510 C515 1.379 . S
C510 N517 1.356 . S
C511 C510 1.363 . S
C511 C514 1.363 . S
N512 C514 1.356 . S
N512 H524 0.984 . S
N512 H525 0.985 . S
N513 C515 1.356 . S
N513 H518 0.984 . S
N513 H519 0.985 . S
C514 C508 1.379 . S
C514 C511 1.363 . S
C514 N512 1.356 . S
C515 C509 1.363 . S
C515 C510 1.379 . S
C515 N513 1.356 . S
N516 C508 1.356 . S
N516 H522 0.984 . S
N516 H523 0.984 . S
N517 C510 1.356 . S
N517 H520 0.984 . S
N517 H521 0.985 1_554 S
H518 N513 0.984 . S
H519 N513 0.985 . S
H520 N517 0.984 . S
H521 N517 0.985 1_556 S
H522 N516 0.984 . S
H523 N516 0.984 . S
H524 N512 0.984 . S
H525 N512 0.985 . S
C526 C527 1.363 . S
C526 C532 1.379 . S
C526 N534 1.356 . S
C527 C526 1.363 . S
C527 C533 1.363 . S
C528 C529 1.363 . S
C528 C533 1.379 . S
C528 N535 1.356 . S
C529 C528 1.363 . S
C529 C532 1.363 . S
N530 C532 1.356 . S
N530 H542 0.984 . S
N530 H543 0.985 . S
N531 C533 1.356 . S
N531 H536 0.984 . S
N531 H537 0.985 . S
C532 C526 1.379 . S
C532 C529 1.363 . S
C532 N530 1.356 . S
C533 C527 1.363 . S
C533 C528 1.379 . S
C533 N531 1.356 . S
N534 C526 1.356 . S
N534 H540 0.984 . S
N534 H541 0.984 . S
N535 C528 1.356 . S
N535 H538 0.984 . S
N535 H539 0.985 . S
H536 N531 0.984 . S
H537 N531 0.985 . S
H538 N535 0.984 . S
H539 N535 0.985 . S
H540 N534 0.984 . S
H541 N534 0.984 . S
H542 N530 0.984 . S
H543 N530 0.985 . S
C544 C545 1.363 . S
C544 C550 1.379 . S
C544 N552 1.356 . S
C545 C544 1.363 . S
C545 C551 1.363 . S
C546 C547 1.363 . S
C546 C551 1.379 . S
C546 N553 1.356 . S
C547 C546 1.363 . S
C547 C550 1.363 . S
N548 C550 1.356 . S
N548 H560 0.984 . S
N548 H561 0.985 . S
N549 C551 1.356 . S
N549 H554 0.984 . S
N549 H555 0.985 . S
C550 C544 1.379 . S
C550 C547 1.363 . S
C550 N548 1.356 . S
C551 C545 1.363 . S
C551 C546 1.379 . S
C551 N549 1.356 . S
N552 C544 1.356 . S
N552 H558 0.984 . S
N552 H559 0.984 . S
N553 C546 1.356 . S
N553 H556 0.984 . S
N553 H557 0.985 . S
H554 N549 0.984 . S
H555 N549 0.985 . S
H556 N553 0.984 . S
H557 N553 0.985 . S
H558 N552 0.984 . S
H559 N552 0.984 . S
H560 N548 0.984 . S
H561 N548 0.985 . S
C562 C563 1.363 . S
C562 C568 1.379 . S
C562 N570 1.356 . S
C563 C562 1.363 . S
C563 C569 1.363 . S
C564 C565 1.363 . S
C564 C569 1.379 . S
C564 N571 1.356 . S
C565 C564 1.363 . S
C565 C568 1.363 . S
N566 C568 1.356 . S
N566 H578 0.984 . S
N566 H579 0.985 . S
N567 C569 1.356 . S
N567 H572 0.984 . S
N567 H573 0.985 . S
C568 C562 1.379 . S
C568 C565 1.363 . S
C568 N566 1.356 . S
C569 C563 1.363 . S
C569 C564 1.379 . S
C569 N567 1.356 . S
N570 C562 1.356 . S
N570 H576 0.984 . S
N570 H577 0.984 . S
N571 C564 1.356 . S
N571 H574 0.984 . S
N571 H575 0.985 . S
H572 N567 0.984 . S
H573 N567 0.985 . S
H574 N571 0.984 . S
H575 N571 0.985 . S
H576 N570 0.984 . S
H577 N570 0.984 . S
H578 N566 0.984 . S
H579 N566 0.985 . S
C580 C581 1.363 . S
C580 C586 1.379 . S
C580 N588 1.356 . S
C581 C580 1.363 . S
C581 C587 1.363 . S
C582 C583 1.363 . S
C582 C587 1.379 . S
C582 N589 1.356 . S
C583 C582 1.363 . S
C583 C586 1.363 . S
N584 C586 1.356 . S
N584 H596 0.984 . S
N584 H597 0.985 . S
N585 C587 1.356 . S
N585 H590 0.984 . S
N585 H591 0.985 . S
C586 C580 1.379 . S
C586 C583 1.363 . S
C586 N584 1.356 . S
C587 C581 1.363 . S
C587 C582 1.379 . S
C587 N585 1.356 . S
N588 C580 1.356 . S
N588 H594 0.984 . S
N588 H595 0.984 . S
N589 C582 1.356 . S
N589 H592 0.984 . S
N589 H593 0.985 . S
H590 N585 0.984 . S
H591 N585 0.985 . S
H592 N589 0.984 . S
H593 N589 0.985 . S
H594 N588 0.984 . S
H595 N588 0.984 . S
H596 N584 0.984 . S
H597 N584 0.985 . S
C598 C599 1.363 . S
C598 C604 1.379 . S
C598 N606 1.356 . S
C599 C598 1.363 . S
C599 C605 1.363 . S
C600 C601 1.363 . S
C600 C605 1.379 . S
C600 N607 1.356 . S
C601 C600 1.363 . S
C601 C604 1.363 . S
N602 C604 1.356 . S
N602 H614 0.984 . S
N602 H615 0.985 . S
N603 C605 1.356 . S
N603 H608 0.984 . S
N603 H609 0.985 . S
C604 C598 1.379 . S
C604 C601 1.363 . S
C604 N602 1.356 . S
C605 C599 1.363 . S
C605 C600 1.379 . S
C605 N603 1.356 . S
N606 C598 1.356 . S
N606 H612 0.984 . S
N606 H613 0.984 . S
N607 C600 1.356 . S
N607 H610 0.984 . S
N607 H611 0.985 . S
H608 N603 0.984 . S
H609 N603 0.985 . S
H610 N607 0.984 . S
H611 N607 0.985 . S
H612 N606 0.984 . S
H613 N606 0.984 . S
H614 N602 0.984 . S
H615 N602 0.985 . S
C185 C9 1.636 . S
C187 C106 1.637 . S
C203 C21 1.459 . S
C205 C125 1.402 . S
C223 C162 1.579 . S
C221 C30 1.612 . S
C239 C43 1.536 . S
C241 C172 1.613 . S
C259 C142 1.714 . S
C257 C4 1.535 . S
C277 C112 1.787 . S
C275 C22 1.866 . S
C295 C183 1.317 1_556 S
C293 C34 1.350 . S
C313 C153 1.390 . S
C311 C48 1.409 . S
C329 C8 1.603 . S
C331 C166 1.640 . S
C349 C133 1.714 . S
C347 C35 1.773 . S
C365 C47 1.866 . S
C367 C123 1.872 . S
C383 C17 1.306 . S
C385 C145 1.312 . S
C403 C105 1.405 . S
C401 C60 1.396 . S
C419 C74 1.506 . S
C421 C126 1.468 . S
C437 C82 1.400 . S
C439 C163 1.426 . S
C455 C100 1.994 . S
C457 C173 1.932 . S
C473 C61 2.001 . S
C475 C143 2.072 . S
C493 C113 1.417 . S
C491 C73 1.460 . S
C511 C182 1.724 . S
C509 C87 1.777 . S
C529 C152 1.235 . S
C527 C95 1.214 . S
C545 C56 1.617 . S
C547 C165 1.613 . S
C565 C132 1.822 . S
C563 C86 1.854 . S
C583 C122 1.762 . S
C581 C99 1.754 . S
C599 C69 1.143 . S
C601 C146 1.189 . S
