# Generated by pormake.
# Topology anh, (6,3)-cn, num edge types: 1
# Building blocks:
#     Node 0, Type 0, BuildingBlock: INOVEN_clean_sbu_0, # of connection points: 6
#     Node 1, Type 0, BuildingBlock: INOVEN_clean_sbu_0, # of connection points: 6
#     Node 2, Type 0, BuildingBlock: INOVEN_clean_sbu_0, # of connection points: 6
#     Node 3, Type 1, BuildingBlock: BELTOD_clean_linker_0, # of connection points: 3
#     Node 4, Type 1, BuildingBlock: BELTOD_clean_linker_0, # of connection points: 3
#     Node 5, Type 1, BuildingBlock: BELTOD_clean_linker_0, # of connection points: 3
#     Node 6, Type 1, BuildingBlock: BELTOD_clean_linker_0, # of connection points: 3
#     Node 7, Type 1, BuildingBlock: BELTOD_clean_linker_0, # of connection points: 3
#     Node 8, Type 1, BuildingBlock: BELTOD_clean_linker_0, # of connection points: 3
#     Edge 9, Type (0, 1), BuildingBlock: TEMPAE_clean_linker_10, # of connection points: 2
#     Edge 10, Type (0, 1), BuildingBlock: TEMPAE_clean_linker_10, # of connection points: 2
#     Edge 11, Type (0, 1), BuildingBlock: TEMPAE_clean_linker_10, # of connection points: 2
#     Edge 12, Type (0, 1), BuildingBlock: TEMPAE_clean_linker_10, # of connection points: 2
#     Edge 13, Type (0, 1), BuildingBlock: TEMPAE_clean_linker_10, # of connection points: 2
#     Edge 14, Type (0, 1), BuildingBlock: TEMPAE_clean_linker_10, # of connection points: 2
#     Edge 15, Type (0, 1), BuildingBlock: TEMPAE_clean_linker_10, # of connection points: 2
#     Edge 16, Type (0, 1), BuildingBlock: TEMPAE_clean_linker_10, # of connection points: 2
#     Edge 17, Type (0, 1), BuildingBlock: TEMPAE_clean_linker_10, # of connection points: 2
#     Edge 18, Type (0, 1), BuildingBlock: TEMPAE_clean_linker_10, # of connection points: 2
#     Edge 19, Type (0, 1), BuildingBlock: TEMPAE_clean_linker_10, # of connection points: 2
#     Edge 20, Type (0, 1), BuildingBlock: TEMPAE_clean_linker_10, # of connection points: 2
#     Edge 21, Type (0, 1), BuildingBlock: TEMPAE_clean_linker_10, # of connection points: 2
#     Edge 22, Type (0, 1), BuildingBlock: TEMPAE_clean_linker_10, # of connection points: 2
#     Edge 23, Type (0, 1), BuildingBlock: TEMPAE_clean_linker_10, # of connection points: 2
#     Edge 24, Type (0, 1), BuildingBlock: TEMPAE_clean_linker_10, # of connection points: 2
#     Edge 25, Type (0, 1), BuildingBlock: TEMPAE_clean_linker_10, # of connection points: 2
#     Edge 26, Type (0, 1), BuildingBlock: TEMPAE_clean_linker_10, # of connection points: 2
# Relax obj value: 0.175
# Max RMSD: 0.210
# Mean RMSD: 0.150
data_MOF--net-anh--node1-INOVEN_clean_sbu_0--node2-BELTOD_clean_linker_0--edge1-TEMPAE_clean_linker_10
_symmetry_space_group_name_H-M    P1
_symmetry_Int_Tables_number       1
_symmetry_cell_setting            triclinic
loop_
_symmetry_equiv_pos_as_xyz
'x, y, z'
_cell_length_a     36.604783
_cell_length_b     41.880969
_cell_length_c     61.392019
_cell_angle_alpha  93.231899
_cell_angle_beta   89.373618
_cell_angle_gamma 128.79008
loop_
_atom_site_label
_atom_site_type_symbol
_atom_site_fract_x
_atom_site_fract_y
_atom_site_fract_z
_atom_type_partial_charge
Gd0 Gd 0.08683 0.49537 0.15788 0.0
Gd1 Gd 0.04353 0.53459 0.15962 0.0
C2 C 0.15382 0.59606 0.16137 0.0
C3 C 0.14444 0.48142 0.15422 0.0
C4 C 0.19388 0.51306 0.16084 0.0
C5 C 0.2104 0.51236 0.18121 0.0
C6 C 0.22378 0.54714 0.14826 0.0
C7 C 0.2888 0.56908 0.1718 0.0
C8 C 0.271 0.57622 0.15432 0.0
C9 C 0.25766 0.54174 0.18716 0.0
C10 C 0.05696 0.49829 0.19751 0.0
C11 C 0.9769 0.43539 0.15298 0.0
C12 C 1.01123 0.56783 0.17871 0.0
C13 C 0.96546 0.5495 0.18701 0.0
C14 C 0.94719 0.57002 0.18468 0.0
C15 C 0.93617 0.50785 0.19158 0.0
C16 C 0.86963 0.50557 0.18683 0.0
C17 C 0.88793 0.48566 0.19124 0.0
C18 C 0.89912 0.54799 0.18463 0.0
C19 C 0.05467 0.52628 0.11637 0.0
O20 O 0.15163 0.56336 0.16223 0.0
O21 O 0.11588 0.59228 0.1588 0.0
O22 O 0.11547 0.46767 0.17028 0.0
O23 O 0.12977 0.48832 0.1371 0.0
O24 O 0.04862 0.46553 0.18855 0.0
O25 O 0.07974 0.52726 0.18484 0.0
O26 O 0.97993 0.46715 0.16086 0.0
O27 O 1.01467 0.44041 0.14657 0.0
O28 O 1.01122 0.56304 0.15749 0.0
O29 O 0.0355 0.56 0.18908 0.0
O30 O 0.03653 0.54264 0.1244 0.0
O31 O 0.06652 0.5149 0.13161 0.0
H32 H 0.18746 0.48799 0.19198 0.0
H33 H 0.21153 0.55031 0.13318 0.0
H34 H 0.29458 0.59851 0.14273 0.0
H35 H 0.27079 0.53723 0.20143 0.0
H36 H 0.96957 0.6019 0.18071 0.0
H37 H 0.95015 0.49168 0.19324 0.0
H38 H 0.86507 0.45274 0.19264 0.0
H39 H 0.88478 0.5632 0.18077 0.0
Gd40 Gd 0.56802 0.99967 0.47866 0.0
Gd41 Gd 0.51067 0.02593 0.47567 0.0
C42 C 0.45353 0.93088 0.47344 0.0
C43 C 0.59987 0.96172 0.48794 0.0
C44 C 0.58185 0.91872 0.4856 0.0
C45 C 0.59979 0.90723 0.46947 0.0
C46 C 0.54835 0.88929 0.49977 0.0
C47 C 0.55514 0.83933 0.48314 0.0
C48 C 0.53499 0.8498 0.49849 0.0
C49 C 0.58659 0.86788 0.46827 0.0
C50 C 0.55918 0.01445 0.4377 0.0
C51 C 0.62489 0.09522 0.4799 0.0
C52 C 0.47834 0.06419 0.46804 0.0
C53 C 0.49767 0.10752 0.47129 0.0
C54 C 0.49656 0.12346 0.49183 0.0
C55 C 0.51756 0.13342 0.45386 0.0
C56 C 0.53338 0.18988 0.47728 0.0
C57 C 0.53532 0.17424 0.45683 0.0
C58 C 0.51428 0.16418 0.49479 0.0
C59 C 0.52138 0.01093 0.51635 0.0
O60 O 0.49336 0.94011 0.48049 0.0
O61 O 0.45238 0.95966 0.46685 0.0
O62 O 0.60892 0.98009 0.46983 0.0
O63 O 0.58027 0.97058 0.5023 0.0
O64 O 0.59685 0.02267 0.44588 0.0
O65 O 0.52629 0.99609 0.45103 0.0
O66 O 0.58456 0.08545 0.47338 0.0
O67 O 0.62702 0.06678 0.48619 0.0
O68 O 0.46909 0.04435 0.4856 0.0
O69 O 0.49778 0.05611 0.45316 0.0
O70 O 0.48217 0.99991 0.50833 0.0
O71 O 0.55343 0.03045 0.50284 0.0
H72 H 0.62538 0.92914 0.45825 0.0
H73 H 0.53365 0.89709 0.51233 0.0
H74 H 0.51114 0.82828 0.5103 0.0
H75 H 0.60259 0.8603 0.45638 0.0
H76 H 0.48148 0.1044 0.50563 0.0
H77 H 0.51908 0.12207 0.43785 0.0
H78 H 0.55023 0.19347 0.4431 0.0
H79 H 0.51164 0.17516 0.51066 0.0
Gd80 Gd 0.6262 0.58405 0.83107 0.0
Gd81 Gd 0.56219 0.49592 0.83535 0.0
C82 C 0.51079 0.5369 0.83804 0.0
C83 C 0.6615 0.65568 0.81886 0.0
C84 C 0.64312 0.67862 0.82012 0.0
C85 C 0.63688 0.69194 0.84037 0.0
C86 C 0.62889 0.68517 0.8009 0.0
C87 C 0.60285 0.71816 0.82204 0.0
C88 C 0.60887 0.70462 0.80185 0.0
C89 C 0.61707 0.71164 0.8413 0.0
C90 C 0.6138 0.56374 0.87236 0.0
C91 C 0.67842 0.54393 0.83531 0.0
C92 C 0.52235 0.42115 0.84402 0.0
C93 C 0.53166 0.39206 0.83826 0.0
C94 C 0.5283 0.37788 0.81647 0.0
C95 C 0.54413 0.37821 0.85471 0.0
C96 C 0.54787 0.33534 0.82783 0.0
C97 C 0.55235 0.35026 0.84954 0.0
C98 C 0.53623 0.34979 0.81133 0.0
C99 C 0.57346 0.5181 0.79385 0.0
O100 O 0.55203 0.56893 0.83061 0.0
O101 O 0.50771 0.50523 0.84409 0.0
O102 O 0.67341 0.64998 0.83737 0.0
O103 O 0.63871 0.62295 0.80536 0.0
O104 O 0.6542 0.59389 0.86528 0.0
O105 O 0.58216 0.5471 0.85774 0.0
O106 O 0.63494 0.51031 0.83904 0.0
O107 O 0.68425 0.57714 0.82967 0.0
O108 O 0.50802 0.43082 0.82814 0.0
O109 O 0.55289 0.45269 0.85739 0.0
O110 O 0.53344 0.48937 0.80174 0.0
O111 O 0.60599 0.53321 0.80798 0.0
H112 H 0.64701 0.68701 0.85554 0.0
H113 H 0.63311 0.67508 0.78511 0.0
H114 H 0.59914 0.70996 0.78669 0.0
H115 H 0.61282 0.72171 0.85708 0.0
H116 H 0.5193 0.38826 0.80332 0.0
H117 H 0.54712 0.38874 0.87161 0.0
H118 H 0.56102 0.33951 0.86262 0.0
H119 H 0.53325 0.33936 0.79441 0.0
P120 P 0.58807 0.01084 0.20209 0.0
H121 H 0.55936 0.95682 0.16253 0.0
H122 H 0.48433 0.88932 0.15257 0.0
H123 H 0.41733 0.90975 0.20323 0.0
H124 H 0.49157 0.97773 0.21255 0.0
H125 H 0.68845 0.0707 0.20632 0.0
H126 H 0.74563 0.14098 0.19603 0.0
H127 H 0.63541 0.13412 0.16502 0.0
H128 H 0.5774 0.06258 0.17556 0.0
H129 H 0.54733 0.95297 0.23588 0.0
H130 H 0.60728 0.07957 0.23085 0.0
O131 O 0.61541 0.99054 0.20134 0.0
H132 H 0.53402 0.95787 0.27454 0.0
H133 H 0.5944 0.08476 0.26972 0.0
C134 C 0.53152 0.97223 0.18854 0.0
C135 C 0.52815 0.94768 0.17083 0.0
C136 C 0.48533 0.90892 0.16526 0.0
C137 C 0.44543 0.89406 0.17749 0.0
C138 C 0.44781 0.9203 0.19377 0.0
C139 C 0.49033 0.95932 0.19901 0.0
C140 C 0.62871 0.06103 0.19137 0.0
C141 C 0.6764 0.08389 0.19701 0.0
C142 C 0.70913 0.12436 0.1913 0.0
C143 C 0.69515 0.14337 0.17985 0.0
C144 C 0.64731 0.12025 0.17376 0.0
C145 C 0.61417 0.07941 0.17972 0.0
C146 C 0.57881 0.01597 0.23056 0.0
C147 C 0.55766 0.98185 0.24313 0.0
C148 C 0.54967 0.98459 0.26517 0.0
C149 C 0.56304 0.02168 0.27514 0.0
C150 C 0.58399 0.05586 0.26247 0.0
C151 C 0.59145 0.05292 0.24027 0.0
P152 P 0.62613 0.56606 0.55887 0.0
H153 H 0.63911 0.54916 0.51428 0.0
H154 H 0.61792 0.48725 0.49429 0.0
H155 H 0.5477 0.41833 0.55105 0.0
H156 H 0.56611 0.47939 0.57017 0.0
H157 H 0.66221 0.65033 0.55794 0.0
H158 H 0.63277 0.6822 0.5411 0.0
H159 H 0.51156 0.56331 0.51508 0.0
H160 H 0.54062 0.5311 0.53237 0.0
H161 H 0.64824 0.5342 0.59257 0.0
H162 H 0.5761 0.5848 0.58819 0.0
O163 O 0.68442 0.59824 0.55738 0.0
H164 H 0.63409 0.52756 0.63173 0.0
H165 H 0.56332 0.57941 0.62756 0.0
C166 C 0.60535 0.51911 0.54388 0.0
C167 C 0.61861 0.52049 0.52225 0.0
C168 C 0.60673 0.48514 0.51091 0.0
C169 C 0.58183 0.44787 0.52116 0.0
C170 C 0.56664 0.44633 0.54253 0.0
C171 C 0.57786 0.48156 0.55369 0.0
C172 C 0.60396 0.58856 0.54609 0.0
C173 C 0.62941 0.63109 0.54857 0.0
C174 C 0.61263 0.64921 0.53901 0.0
C175 C 0.57023 0.625 0.52681 0.0
C176 C 0.54456 0.58237 0.52431 0.0
C177 C 0.56115 0.56412 0.53415 0.0
C178 C 0.61277 0.55948 0.5874 0.0
C179 C 0.62908 0.5436 0.6 0.0
C180 C 0.62102 0.53983 0.62232 0.0
C181 C 0.59757 0.55292 0.63255 0.0
C182 C 0.58154 0.56918 0.61998 0.0
C183 C 0.58878 0.57215 0.5975 0.0
P184 P 0.1062 0.55702 0.87677 0.0
H185 H 0.20308 0.61077 0.85867 0.0
H186 H 0.26461 0.60523 0.85226 0.0
H187 H 0.1684 0.4769 0.86411 0.0
H188 H 0.10626 0.48295 0.87156 0.0
H189 H 0.05208 0.57802 0.89937 0.0
H190 H 0.98567 0.57545 0.89167 0.0
H191 H 0.96443 0.51347 0.82896 0.0
H192 H 0.03361 0.51757 0.8368 0.0
H193 H 0.17263 0.59821 0.91427 0.0
H194 H 1.0287 0.4906 0.90287 0.0
O195 O 0.14132 0.60821 0.87777 0.0
H196 H 0.16512 0.58863 0.95328 0.0
H197 H 1.02104 0.47968 0.94199 0.0
C198 C 0.14762 0.54722 0.86536 0.0
C199 C 0.19386 0.58082 0.85967 0.0
C200 C 0.23029 0.57778 0.85615 0.0
C201 C 0.22333 0.54067 0.85768 0.0
C202 C 0.17656 0.50635 0.86253 0.0
C203 C 0.14008 0.50968 0.86662 0.0
C204 C 0.04896 0.54694 0.86925 0.0
C205 C 0.03302 0.56289 0.88399 0.0
C206 C 0.99379 0.5613 0.87945 0.0
C207 C 0.96682 0.54355 0.85963 0.0
C208 C 0.98287 0.52763 0.84453 0.0
C209 C 1.02294 0.52951 0.84913 0.0
C210 C 0.1011 0.54558 0.90549 0.0
C211 C 0.13941 0.57212 0.92013 0.0
C212 C 0.13507 0.56633 0.94262 0.0
C213 C 0.09229 0.53341 0.95124 0.0
C214 C 0.05435 0.50591 0.93631 0.0
C215 C 0.05876 0.51187 0.91376 0.0
P216 P 0.06386 0.50095 0.43581 0.0
H217 H 0.11684 0.54029 0.47727 0.0
H218 H 0.17503 0.61332 0.48903 0.0
H219 H 0.13056 0.64494 0.43534 0.0
H220 H 0.07186 0.57226 0.42393 0.0
H221 H 1.02715 0.41671 0.43448 0.0
H222 H 0.95334 0.35312 0.4445 0.0
H223 H 0.90668 0.42049 0.46897 0.0
H224 H 0.982 0.48514 0.45884 0.0
H225 H 0.13087 0.53993 0.4013 0.0
H226 H 0.98106 0.46708 0.40685 0.0
O227 O 0.10402 0.4942 0.43799 0.0
H228 H 0.12262 0.54072 0.36178 0.0
H229 H 0.9729 0.46808 0.36718 0.0
C230 C 0.0903 0.55067 0.44953 0.0
C231 C 0.11809 0.56276 0.4686 0.0
C232 C 0.15152 0.60452 0.47527 0.0
C233 C 0.15766 0.63466 0.46286 0.0
C234 C 0.12671 0.62224 0.44505 0.0
C235 C 0.09301 0.58059 0.43858 0.0
C236 C 1.01053 0.45584 0.44622 0.0
C237 C 1.00153 0.41816 0.44232 0.0
C238 C 0.95901 0.38163 0.44788 0.0
C239 C 0.92394 0.38163 0.45737 0.0
C240 C 0.93317 0.41955 0.46178 0.0
C241 C 0.97611 0.45645 0.45603 0.0
C242 C 0.05654 0.50268 0.40694 0.0
C243 C 0.09623 0.52413 0.39402 0.0
C244 C 0.09157 0.52475 0.37152 0.0
C245 C 0.04718 0.50435 0.36159 0.0
C246 C 1.00747 0.48402 0.37457 0.0
C247 C 1.01214 0.48329 0.39717 0.0
P248 P 0.61803 0.04403 0.75016 0.0
H249 H 0.64733 0.09057 0.79197 0.0
H250 H 0.63058 0.13435 0.80918 0.0
H251 H 0.52653 0.09313 0.75847 0.0
H252 H 0.54249 0.04876 0.74149 0.0
H253 H 0.67858 0.02764 0.76659 0.0
H254 H 0.66337 0.96958 0.78348 0.0
H255 H 0.51456 0.90732 0.78037 0.0
H256 H 0.53043 0.96712 0.76402 0.0
H257 H 0.63641 0.09563 0.71561 0.0
H258 H 0.55538 0.96576 0.7227 0.0
O259 O 0.67618 0.08003 0.74974 0.0
H260 H 0.61475 0.08241 0.67695 0.0
H261 H 0.53188 0.95199 0.68398 0.0
C262 C 0.59679 0.06711 0.76527 0.0
C263 C 0.61997 0.09007 0.7849 0.0
C264 C 0.61043 0.11495 0.79472 0.0
C265 C 0.5776 0.11703 0.78496 0.0
C266 C 0.55208 0.09188 0.76615 0.0
C267 C 0.56133 0.06671 0.75645 0.0
C268 C 0.60556 0.00143 0.76377 0.0
C269 C 0.64264 0.00178 0.76962 0.0
C270 C 0.63387 0.96837 0.77921 0.0
C271 C 0.5877 0.93352 0.78287 0.0
C272 C 0.55049 0.93376 0.77775 0.0
C273 C 0.55945 0.96767 0.76829 0.0
C274 C 0.5977 0.03182 0.72204 0.0
C275 C 0.61345 0.06416 0.70885 0.0
C276 C 0.60066 0.05647 0.68674 0.0
C277 C 0.57134 0.01607 0.67728 0.0
C278 C 0.55491 0.98349 0.69066 0.0
C279 C 0.56804 0.99132 0.71289 0.0
P280 P 0.44969 0.36978 0.07625 0.0
H281 H 0.45776 0.34974 0.11892 0.0
H282 H 0.52462 0.38124 0.14426 0.0
H283 H 0.61806 0.46033 0.09463 0.0
H284 H 0.55132 0.43131 0.0701 0.0
H285 H 0.37243 0.35062 0.10365 0.0
H286 H 0.36513 0.39552 0.12722 0.0
H287 H 0.50056 0.50128 0.10677 0.0
H288 H 0.50498 0.45716 0.08193 0.0
H289 H 0.50403 0.36337 0.04371 0.0
H290 H 0.42687 0.40976 0.04852 0.0
O291 O 0.40573 0.31964 0.07717 0.0
H292 H 0.54202 0.40172 0.01124 0.0
H293 H 0.46373 0.44724 0.01604 0.0
C294 C 0.49976 0.38559 0.09201 0.0
C295 C 0.49275 0.37305 0.11332 0.0
C296 C 0.53065 0.3917 0.12789 0.0
C297 C 0.57621 0.4225 0.12114 0.0
C298 C 0.58316 0.43646 0.10015 0.0
C299 C 0.54506 0.41847 0.08577 0.0
C300 C 0.43852 0.40077 0.09072 0.0
C301 C 0.39964 0.38356 0.10386 0.0
C302 C 0.39621 0.40916 0.11767 0.0
C303 C 0.43243 0.45196 0.11884 0.0
C304 C 0.47165 0.46862 0.10591 0.0
C305 C 0.47416 0.44335 0.09168 0.0
C306 C 0.4642 0.38513 0.04888 0.0
C307 C 0.49435 0.38088 0.03742 0.0
C308 C 0.51622 0.40299 0.01902 0.0
C309 C 0.50692 0.4285 0.01166 0.0
C310 C 0.47287 0.42907 0.02192 0.0
C311 C 0.45139 0.40726 0.04033 0.0
C312 C 0.36602 0.58442 0.17741 0.0
C313 C 0.32358 0.56409 0.16579 0.0
C314 C 0.39406 0.57269 0.17341 0.0
C315 C 0.37769 0.53926 0.1582 0.0
C316 C 0.33449 0.51862 0.14665 0.0
C317 C 0.30849 0.53182 0.15036 0.0
C318 C 0.44058 0.59543 0.18548 0.0
C319 C 0.31499 0.48206 0.13062 0.0
C320 C 0.4417 0.51586 0.1233 0.0
C321 C 0.42797 0.47971 0.13204 0.0
C322 C 0.43147 0.53963 0.13374 0.0
C323 C 0.40571 0.52611 0.15299 0.0
C324 C 0.39534 0.49176 0.16299 0.0
C325 C 0.40696 0.46893 0.15237 0.0
C326 C 0.44197 0.57553 0.12235 0.0
C327 C 0.36669 0.47604 0.18325 0.0
H328 H 0.37663 0.60865 0.18969 0.0
H329 H 0.27468 0.51526 0.14195 0.0
H330 H 0.44083 0.57397 0.19513 0.0
H331 H 0.46907 0.60815 0.17364 0.0
H332 H 0.4483 0.62094 0.19664 0.0
H333 H 0.27972 0.46878 0.12384 0.0
H334 H 0.33882 0.49121 0.1168 0.0
H335 H 0.31213 0.45757 0.13869 0.0
H336 H 0.45726 0.52409 0.10741 0.0
H337 H 0.39726 0.44146 0.15937 0.0
H338 H 0.45171 0.6008 0.1343 0.0
H339 H 0.41014 0.56542 0.11303 0.0
H340 H 0.47071 0.58755 0.11068 0.0
H341 H 0.37807 0.50176 0.19523 0.0
H342 H 0.36919 0.45422 0.19115 0.0
H343 H 0.32928 0.4598 0.17879 0.0
C344 C 0.71253 0.15058 0.48439 0.0
C345 C 0.66816 0.13877 0.47922 0.0
C346 C 0.75361 0.19119 0.48224 0.0
C347 C 0.75037 0.22079 0.47472 0.0
C348 C 0.7056 0.20927 0.47005 0.0
C349 C 0.66521 0.16858 0.47236 0.0
C350 C 0.80061 0.20219 0.48747 0.0
C351 C 0.70032 0.23957 0.46187 0.0
C352 C 0.85685 0.33475 0.48201 0.0
C353 C 0.87768 0.34164 0.46166 0.0
C354 C 0.81529 0.29567 0.48652 0.0
C355 C 0.7938 0.26287 0.47023 0.0
C356 C 0.81399 0.27016 0.44946 0.0
C357 C 0.85558 0.30926 0.44549 0.0
C358 C 0.7949 0.28918 0.50886 0.0
C359 C 0.79208 0.23644 0.43148 0.0
H360 H 0.71532 0.12793 0.48971 0.0
H361 H 0.63122 0.16001 0.46835 0.0
H362 H 0.82145 0.21123 0.47251 0.0
H363 H 0.82065 0.22893 0.49955 0.0
H364 H 0.79718 0.17631 0.4941 0.0
H365 H 0.66304 0.22669 0.46055 0.0
H366 H 0.7197 0.26781 0.47291 0.0
H367 H 0.71573 0.24873 0.44553 0.0
H368 H 0.87385 0.35956 0.49461 0.0
H369 H 0.87112 0.31451 0.42963 0.0
H370 H 0.79485 0.26606 0.51687 0.0
H371 H 0.75792 0.27692 0.50741 0.0
H372 H 0.8149 0.31797 0.51953 0.0
H373 H 0.79221 0.21149 0.43653 0.0
H374 H 0.81093 0.24758 0.41595 0.0
H375 H 0.75498 0.22293 0.42842 0.0
C376 C 0.54842 0.73023 0.80854 0.0
C377 C 0.58543 0.74198 0.82262 0.0
C378 C 0.53879 0.75715 0.80516 0.0
C379 C 0.56696 0.79665 0.81609 0.0
C380 C 0.60061 0.80667 0.83221 0.0
C381 C 0.60954 0.77918 0.83526 0.0
C382 C 0.50194 0.74493 0.78816 0.0
C383 C 0.63089 0.84823 0.84448 0.0
C384 C 0.60475 0.88459 0.78214 0.0
C385 C 0.57922 0.89665 0.79084 0.0
C386 C 0.6005 0.8519 0.79016 0.0
C387 C 0.56927 0.83005 0.80715 0.0
C388 C 0.5421 0.84105 0.81561 0.0
C389 C 0.54735 0.87433 0.8073 0.0
C390 C 0.63031 0.84134 0.78067 0.0
C391 C 0.50793 0.81794 0.83348 0.0
H392 H 0.52878 0.70092 0.79921 0.0
H393 H 0.63802 0.78836 0.84627 0.0
H394 H 0.48203 0.75568 0.79348 0.0
H395 H 0.51926 0.75951 0.77279 0.0
H396 H 0.47695 0.71114 0.78461 0.0
H397 H 0.64895 0.8485 0.85901 0.0
H398 H 0.65796 0.87144 0.83352 0.0
H399 H 0.60972 0.85768 0.84986 0.0
H400 H 0.62852 0.90105 0.76903 0.0
H401 H 0.52747 0.88351 0.81403 0.0
H402 H 0.60767 0.80893 0.77404 0.0
H403 H 0.65355 0.84468 0.79365 0.0
H404 H 0.65255 0.86126 0.76739 0.0
H405 H 0.47912 0.78603 0.82723 0.0
H406 H 0.49245 0.83249 0.83956 0.0
H407 H 0.52547 0.81604 0.84738 0.0
C408 C 0.79018 0.48057 0.19392 0.0
C409 C 0.82124 0.48221 0.17982 0.0
C410 C 0.74827 0.46982 0.18571 0.0
C411 C 0.73845 0.46129 0.16298 0.0
C412 C 0.7688 0.46075 0.14883 0.0
C413 C 0.81015 0.47109 0.15756 0.0
C414 C 0.71601 0.47004 0.20111 0.0
C415 C 0.75926 0.45207 0.12443 0.0
C416 C 0.61521 0.40302 0.14216 0.0
C417 C 0.61639 0.43437 0.13437 0.0
C418 C 0.65473 0.41164 0.15193 0.0
C419 C 0.69616 0.45265 0.15398 0.0
C420 C 0.69762 0.4849 0.14673 0.0
C421 C 0.6573 0.47529 0.13687 0.0
C422 C 0.65277 0.37662 0.15898 0.0
C423 C 0.74199 0.52902 0.14875 0.0
H424 H 0.80007 0.49009 0.21105 0.0
H425 H 0.83544 0.47352 0.14682 0.0
H426 H 0.71648 0.4961 0.19789 0.0
H427 H 0.6794 0.4414 0.19838 0.0
H428 H 0.72656 0.47316 0.21848 0.0
H429 H 0.78367 0.44832 0.11621 0.0
H430 H 0.72276 0.42394 0.12068 0.0
H431 H 0.76331 0.4779 0.11735 0.0
H432 H 0.58394 0.37129 0.1396 0.0
H433 H 0.65797 0.4994 0.13067 0.0
H434 H 0.66594 0.3827 0.17612 0.0
H435 H 0.67579 0.37382 0.14863 0.0
H436 H 0.61669 0.34682 0.15763 0.0
H437 H 0.75415 0.53843 0.1661 0.0
H438 H 0.73702 0.55044 0.14241 0.0
H439 H 0.77033 0.53216 0.13962 0.0
C440 C 0.40948 0.85725 0.48202 0.0
C441 C 0.40947 0.88767 0.47347 0.0
C442 C 0.36817 0.81629 0.48215 0.0
C443 C 0.32566 0.80526 0.47349 0.0
C444 C 0.32522 0.83599 0.46529 0.0
C445 C 0.36702 0.87672 0.46537 0.0
C446 C 0.37033 0.78463 0.49109 0.0
C447 C 0.28065 0.82568 0.45605 0.0
C448 C 0.23267 0.69631 0.44948 0.0
C449 C 0.20028 0.6783 0.46616 0.0
C450 C 0.27385 0.73721 0.4519 0.0
C451 C 0.28256 0.76121 0.47133 0.0
C452 C 0.24982 0.74318 0.48828 0.0
C453 C 0.20932 0.70165 0.48562 0.0
C454 C 0.30811 0.75475 0.43361 0.0
C455 C 0.25746 0.76778 0.50913 0.0
H456 H 0.44191 0.86534 0.48854 0.0
H457 H 0.36643 0.89993 0.45889 0.0
H458 H 0.34396 0.76811 0.50383 0.0
H459 H 0.36165 0.76149 0.47785 0.0
H460 H 0.40551 0.79847 0.49824 0.0
H461 H 0.28556 0.85334 0.45133 0.0
H462 H 0.26814 0.8041 0.44143 0.0
H463 H 0.25269 0.81006 0.4682 0.0
H464 H 0.22597 0.67803 0.43456 0.0
H465 H 0.18435 0.68762 0.49855 0.0
H466 H 0.34317 0.76651 0.4398 0.0
H467 H 0.31205 0.78105 0.42733 0.0
H468 H 0.29681 0.73169 0.41983 0.0
H469 H 0.28872 0.77629 0.51825 0.0
H470 H 0.22683 0.75048 0.51985 0.0
H471 H 0.26441 0.79674 0.50542 0.0
C472 C 0.52125 0.26973 0.80816 0.0
C473 C 0.55362 0.30371 0.82244 0.0
C474 C 0.52565 0.23927 0.80295 0.0
C475 C 0.56347 0.24292 0.81218 0.0
C476 C 0.59631 0.27712 0.82663 0.0
C477 C 0.59091 0.30709 0.83164 0.0
C478 C 0.48981 0.20316 0.78756 0.0
C479 C 0.63746 0.28232 0.83652 0.0
C480 C 0.55119 0.14571 0.81153 0.0
C481 C 0.57463 0.14926 0.79255 0.0
C482 C 0.54785 0.17637 0.81838 0.0
C483 C 0.56919 0.21143 0.80608 0.0
C484 C 0.59404 0.21545 0.78722 0.0
C485 C 0.59608 0.18406 0.78057 0.0
C486 C 0.52072 0.17088 0.83846 0.0
C487 C 0.61783 0.25256 0.77384 0.0
H488 H 0.49199 0.26666 0.80124 0.0
H489 H 0.6163 0.33352 0.8425 0.0
H490 H 0.50726 0.2021 0.77297 0.0
H491 H 0.47299 0.17409 0.79566 0.0
H492 H 0.46205 0.20456 0.78206 0.0
H493 H 0.659 0.30995 0.848 0.0
H494 H 0.62499 0.25492 0.84539 0.0
H495 H 0.66015 0.28498 0.82339 0.0
H496 H 0.53487 0.11868 0.82074 0.0
H497 H 0.61456 0.18666 0.76599 0.0
H498 H 0.49059 0.16969 0.83396 0.0
H499 H 0.54329 0.19751 0.8504 0.0
H500 H 0.50725 0.14239 0.84649 0.0
H501 H 0.59113 0.25363 0.76644 0.0
H502 H 0.63849 0.25226 0.76055 0.0
H503 H 0.64158 0.2811 0.78444 0.0
C504 C 0.5067 0.76281 0.48285 0.0
C505 C 0.55032 0.80203 0.48524 0.0
C506 C 0.50259 0.72787 0.4866 0.0
C507 C 0.54274 0.73284 0.49357 0.0
C508 C 0.58691 0.77251 0.49558 0.0
C509 C 0.59016 0.80654 0.49115 0.0
C510 C 0.45527 0.68592 0.48378 0.0
C511 C 0.63046 0.77932 0.50342 0.0
C512 C 0.53945 0.66318 0.53117 0.0
C513 C 0.55309 0.64498 0.51729 0.0
C514 C 0.53185 0.68927 0.52317 0.0
C515 C 0.53874 0.69761 0.50082 0.0
C516 C 0.54947 0.67702 0.48645 0.0
C517 C 0.55645 0.65069 0.4949 0.0
C518 C 0.52049 0.71063 0.53904 0.0
C519 C 0.55689 0.68511 0.46252 0.0
H520 H 0.47599 0.7596 0.47824 0.0
H521 H 0.62371 0.83707 0.4932 0.0
H522 H 0.4581 0.66465 0.47382 0.0
H523 H 0.44246 0.673 0.49995 0.0
H524 H 0.42886 0.68689 0.47586 0.0
H525 H 0.66228 0.81203 0.50337 0.0
H526 H 0.62579 0.76937 0.52029 0.0
H527 H 0.63643 0.76061 0.49295 0.0
H528 H 0.537 0.65853 0.54849 0.0
H529 H 0.5673 0.63657 0.4843 0.0
H530 H 0.49092 0.70865 0.53255 0.0
H531 H 0.55132 0.74366 0.54128 0.0
H532 H 0.51119 0.69735 0.55526 0.0
H533 H 0.52673 0.68138 0.45524 0.0
H534 H 0.5614 0.66428 0.45325 0.0
H535 H 0.5886 0.71727 0.46059 0.0
C536 C 0.76836 0.58037 0.83877 0.0
C537 C 0.72103 0.54395 0.83788 0.0
C538 C 0.80758 0.58062 0.84186 0.0
C539 C 0.80124 0.54352 0.84388 0.0
C540 C 0.75354 0.50666 0.84274 0.0
C541 C 0.71498 0.50735 0.84001 0.0
C542 C 0.85637 0.62121 0.84315 0.0
C543 C 0.74292 0.46587 0.84455 0.0
C544 C 0.90628 0.53982 0.834 0.0
C545 C 0.9236 0.5426 0.85522 0.0
C546 C 0.86764 0.54017 0.83014 0.0
C547 C 0.84368 0.54326 0.84769 0.0
C548 C 0.86063 0.54576 0.86907 0.0
C549 C 0.89917 0.54532 0.87248 0.0
C550 C 0.85243 0.53735 0.80694 0.0
C551 C 0.83803 0.54925 0.88874 0.0
H552 H 0.77501 0.60927 0.83737 0.0
H553 H 0.67952 0.47859 0.83946 0.0
H554 H 0.87394 0.62539 0.85889 0.0
H555 H 0.87753 0.62158 0.82993 0.0
H556 H 0.85638 0.64754 0.84172 0.0
H557 H 0.70487 0.43966 0.84237 0.0
H558 H 0.76222 0.4619 0.8321 0.0
H559 H 0.75514 0.46497 0.86079 0.0
H560 H 0.92344 0.53799 0.82009 0.0
H561 H 0.90965 0.54663 0.88911 0.0
H562 H 0.85541 0.56478 0.80392 0.0
H563 H 0.81501 0.5101 0.80421 0.0
H564 H 0.87367 0.53507 0.79489 0.0
H565 H 0.84334 0.57841 0.88883 0.0
H566 H 0.85265 0.54862 0.90432 0.0
H567 H 0.79966 0.52383 0.88792 0.0
C568 C 0.19727 0.67015 0.17223 0.0
C569 C 0.19871 0.63862 0.16472 0.0
C570 C 0.23802 0.7112 0.17459 0.0
C571 C 0.28178 0.72143 0.1693 0.0
C572 C 0.28382 0.68974 0.16217 0.0
C573 C 0.2422 0.64866 0.16 0.0
C574 C 0.23399 0.74372 0.18241 0.0
C575 C 0.32991 0.69939 0.15661 0.0
C576 C 0.37863 0.83198 0.15514 0.0
C577 C 0.40344 0.84999 0.17513 0.0
C578 C 0.33914 0.7901 0.15296 0.0
C579 C 0.32503 0.76542 0.17104 0.0
C580 C 0.35071 0.78344 0.19113 0.0
C581 C 0.3892 0.82556 0.19299 0.0
C582 C 0.31197 0.77239 0.13145 0.0
C583 C 0.33729 0.75832 0.21075 0.0
H584 H 0.16394 0.66278 0.17626 0.0
H585 H 0.24354 0.62467 0.15404 0.0
H586 H 0.25693 0.76134 0.19711 0.0
H587 H 0.24598 0.76578 0.1696 0.0
H588 H 0.19749 0.73051 0.18645 0.0
H589 H 0.32584 0.6714 0.15162 0.0
H590 H 0.34595 0.72045 0.14312 0.0
H591 H 0.3547 0.7154 0.17089 0.0
H592 H 0.38965 0.85088 0.14133 0.0
H593 H 0.40877 0.83939 0.2084 0.0
H594 H 0.27547 0.7608 0.13377 0.0
H595 H 0.30999 0.74591 0.12531 0.0
H596 H 0.32796 0.79535 0.11885 0.0
H597 H 0.3025 0.74755 0.21631 0.0
H598 H 0.36315 0.77609 0.22458 0.0
H599 H 0.33426 0.73067 0.20633 0.0
C600 C 0.57252 0.25651 0.4992 0.0
C601 C 0.54797 0.23185 0.48015 0.0
C602 C 0.58066 0.29373 0.50356 0.0
C603 C 0.56396 0.30658 0.48846 0.0
C604 C 0.54167 0.28308 0.4686 0.0
C605 C 0.53384 0.24588 0.4647 0.0
C606 C 0.60502 0.31823 0.52483 0.0
C607 C 0.52405 0.29618 0.45199 0.0
C608 C 0.53378 0.37173 0.51368 0.0
C609 C 0.57468 0.41155 0.51036 0.0
C610 C 0.52934 0.33724 0.50605 0.0
C611 C 0.56628 0.34266 0.49441 0.0
C612 C 0.60642 0.38256 0.48982 0.0
C613 C 0.61038 0.41657 0.49805 0.0
C614 C 0.48596 0.29508 0.51128 0.0
C615 C 0.64625 0.38955 0.47718 0.0
H616 H 0.58426 0.24611 0.51099 0.0
H617 H 0.51461 0.22684 0.45 0.0
H618 H 0.63442 0.35065 0.52178 0.0
H619 H 0.57999 0.31818 0.53523 0.0
H620 H 0.61898 0.30565 0.53402 0.0
H621 H 0.51177 0.27672 0.43649 0.0
H622 H 0.49446 0.29418 0.45872 0.0
H623 H 0.55208 0.32862 0.44836 0.0
H624 H 0.50555 0.36747 0.5227 0.0
H625 H 0.64242 0.44713 0.49559 0.0
H626 H 0.49573 0.28105 0.52216 0.0
H627 H 0.46974 0.27475 0.49615 0.0
H628 H 0.45939 0.29598 0.51948 0.0
H629 H 0.66631 0.38431 0.48768 0.0
H630 H 0.67072 0.42131 0.47173 0.0
H631 H 0.63275 0.36763 0.46266 0.0
C632 C 0.46144 0.55978 0.82741 0.0
C633 C 0.46834 0.53713 0.84057 0.0
C634 C 0.42166 0.55915 0.82927 0.0
C635 C 0.38719 0.53682 0.84551 0.0
C636 C 0.3948 0.51474 0.8592 0.0
C637 C 0.43365 0.51437 0.85627 0.0
C638 C 0.41725 0.58295 0.8135 0.0
C639 C 0.36206 0.49173 0.8775 0.0
C640 C 0.31115 0.57139 0.86263 0.0
C641 C 0.26481 0.53883 0.85474 0.0
C642 C 0.34989 0.57077 0.86009 0.0
C643 C 0.34459 0.53731 0.84864 0.0
C644 C 0.29801 0.50451 0.84033 0.0
C645 C 0.2595 0.50539 0.8437 0.0
C646 C 0.39709 0.60658 0.86989 0.0
C647 C 0.28883 0.46898 0.82666 0.0
H648 H 0.48689 0.57767 0.81509 0.0
H649 H 0.43747 0.49672 0.86687 0.0
H650 H 0.38027 0.56999 0.81068 0.0
H651 H 0.43752 0.61521 0.82014 0.0
H652 H 0.43217 0.58348 0.79754 0.0
H653 H 0.37589 0.48147 0.88878 0.0
H654 H 0.35604 0.51134 0.887 0.0
H655 H 0.3276 0.46426 0.87067 0.0
H656 H 0.31733 0.59768 0.87133 0.0
H657 H 0.22508 0.47998 0.83695 0.0
H658 H 0.42062 0.62549 0.85668 0.0
H659 H 0.41349 0.59567 0.8786 0.0
H660 H 0.39463 0.62648 0.88147 0.0
H661 H 0.3022 0.47912 0.81008 0.0
H662 H 0.25081 0.44246 0.82506 0.0
H663 H 0.30751 0.45865 0.83349 0.0
C664 C 0.89 0.3857 0.15954 0.0
C665 C 0.93171 0.39275 0.15387 0.0
C666 C 0.84835 0.3457 0.1625 0.0
C667 C 0.84836 0.31181 0.16009 0.0
C668 C 0.89009 0.31867 0.15393 0.0
C669 C 0.93096 0.35882 0.15077 0.0
C670 C 0.8047 0.33989 0.16891 0.0
C671 C 0.89208 0.28369 0.15146 0.0
C672 C 0.7635 0.21614 0.19139 0.0
C673 C 0.73098 0.18744 0.17499 0.0
C674 C 0.80071 0.25689 0.1869 0.0
C675 C 0.80598 0.2696 0.1654 0.0
C676 C 0.77232 0.24116 0.1489 0.0
C677 C 0.73509 0.20048 0.15391 0.0
C678 C 0.83543 0.28594 0.20508 0.0
C679 C 0.77655 0.25333 0.12579 0.0
H680 H 0.89004 0.41155 0.16204 0.0
H681 H 0.96288 0.36368 0.14657 0.0
H682 H 0.77462 0.31565 0.15799 0.0
H683 H 0.79565 0.32956 0.18576 0.0
H684 H 0.80915 0.36861 0.16824 0.0
H685 H 0.92664 0.29379 0.14585 0.0
H686 H 0.88519 0.26966 0.16733 0.0
H687 H 0.86443 0.25939 0.13962 0.0
H688 H 0.76021 0.20646 0.20779 0.0
H689 H 0.71026 0.17847 0.14114 0.0
H690 H 0.83951 0.31455 0.20623 0.0
H691 H 0.87031 0.29464 0.2015 0.0
H692 H 0.82467 0.27216 0.22117 0.0
H693 H 0.77874 0.28096 0.12559 0.0
H694 H 0.74649 0.22837 0.11506 0.0
H695 H 0.80936 0.26147 0.11888 0.0
C696 C 0.07753 0.55926 0.08078 0.0
C697 C 0.06446 0.52608 0.0927 0.0
C698 C 0.08427 0.55961 0.05813 0.0
C699 C 0.07592 0.52515 0.04665 0.0
C700 C 0.06299 0.49152 0.05866 0.0
C701 C 0.05826 0.4927 0.08159 0.0
C702 C 0.09975 0.59685 0.04643 0.0
C703 C 0.05288 0.45382 0.04719 0.0
C704 C 0.04475 0.5135 0.98566 0.0
C705 C 0.0872 0.52869 0.97563 0.0
C706 C 0.04022 0.51082 0.00852 0.0
C707 C 0.07916 0.52409 0.02208 0.0
C708 C 0.12186 0.53881 0.01212 0.0
C709 C 0.12524 0.54064 0.98919 0.0
C710 C 0.99381 0.49452 0.01824 0.0
C711 C 0.16465 0.55398 0.02574 0.0
H712 H 0.08272 0.58529 0.08928 0.0
H713 H 0.04783 0.46683 0.09066 0.0
H714 H 0.13093 0.60788 0.03666 0.0
H715 H 0.07143 0.58857 0.03494 0.0
H716 H 0.10858 0.62244 0.0579 0.0
H717 H 0.04185 0.42977 0.05863 0.0
H718 H 1.02475 0.44076 0.03448 0.0
H719 H 0.08453 0.46217 0.03879 0.0
H720 H 1.0151 0.50466 0.97572 0.0
H721 H 0.15807 0.55169 0.98191 0.0
H722 H 0.99775 0.51924 0.02849 0.0
H723 H 0.9823 0.46947 0.02899 0.0
H724 H 0.96594 0.48264 0.00553 0.0
H725 H 0.17673 0.58214 0.0357 0.0
H726 H 0.19399 0.56121 0.01557 0.0
H727 H 0.15601 0.53076 0.03722 0.0
C728 C 0.53511 0.03277 0.40584 0.0
C729 C 0.55256 0.01405 0.41406 0.0
C730 C 0.534 0.0365 0.38326 0.0
C731 C 0.54965 0.02013 0.36871 0.0
C732 C 0.56595 1.00006 0.37703 0.0
C733 C 0.56782 0.99781 0.39963 0.0
C734 C 0.51723 0.05876 0.37505 0.0
C735 C 0.58222 0.98157 0.36209 0.0
C736 C 0.51518 0.99322 0.30853 0.0
C737 C 0.55697 0.02472 0.29893 0.0
C738 C 0.51121 0.99269 0.3313 0.0
C739 C 0.55006 0.02432 0.34477 0.0
C740 C 0.59137 0.05749 0.33512 0.0
C741 C 0.59429 0.05733 0.31229 0.0
C742 C 0.46642 0.95701 0.34092 0.0
C743 C 0.6335 0.09191 0.34892 0.0
H744 H 0.52418 0.04598 0.41704 0.0
H745 H 0.58142 0.9834 0.40608 0.0
H746 H 0.54515 0.085 0.36572 0.0
H747 H 0.4865 0.03789 0.36371 0.0
H748 H 0.50724 0.07051 0.38854 0.0
H749 H 0.59209 0.9656 0.37113 0.0
H750 H 0.55411 0.95925 0.34983 0.0
H751 H 0.61302 0.00598 0.35304 0.0
H752 H 0.48597 0.9683 0.29822 0.0
H753 H 0.62671 0.08167 0.30495 0.0
H754 H 0.45446 0.96815 0.35368 0.0
H755 H 0.47291 0.93775 0.34885 0.0
H756 H 0.43782 0.93746 0.32835 0.0
H757 H 0.62297 0.10452 0.36155 0.0
H758 H 0.66114 0.11726 0.33901 0.0
H759 H 0.64873 0.07991 0.35754 0.0
C760 C 0.54345 0.5261 0.7602 0.0
C761 C 0.57944 0.52971 0.77108 0.0
C762 C 0.54644 0.53386 0.73804 0.0
C763 C 0.58563 0.54404 0.72632 0.0
C764 C 0.62273 0.54884 0.73743 0.0
C765 C 0.61952 0.54226 0.75983 0.0
C766 C 0.5068 0.52962 0.72702 0.0
C767 C 0.66478 0.5591 0.72544 0.0
C768 C 0.56952 0.5128 0.66575 0.0
C769 C 0.59109 0.5503 0.65639 0.0
C770 C 0.56637 0.51023 0.68847 0.0
C771 C 0.58606 0.54623 0.70216 0.0
C772 C 0.60706 0.5841 0.69273 0.0
C773 C 0.60895 0.58561 0.66989 0.0
C774 C 0.54283 0.4691 0.69782 0.0
C775 C 0.62827 0.62309 0.70675 0.0
H776 H 0.5127 0.5169 0.76903 0.0
H777 H 0.64731 0.545 0.76828 0.0
H778 H 0.52067 0.5562 0.71708 0.0
H779 H 0.48671 0.50163 0.71578 0.0
H780 H 0.48233 0.52729 0.73897 0.0
H781 H 0.69172 0.56388 0.7366 0.0
H782 H 0.65345 0.53375 0.71316 0.0
H783 H 0.68105 0.58721 0.71648 0.0
H784 H 0.5554 0.48548 0.65524 0.0
H785 H 0.62582 0.61464 0.66258 0.0
H786 H 0.5141 0.4617 0.70849 0.0
H787 H 0.56849 0.47029 0.70806 0.0
H788 H 0.52801 0.44389 0.68491 0.0
H789 H 0.6011 0.61956 0.71714 0.0
H790 H 0.64376 0.6501 0.69688 0.0
H791 H 0.65604 0.62925 0.71785 0.0
C792 C 0.48871 0.97756 0.55139 0.0
C793 C 0.52794 0.00467 0.53896 0.0
C794 C 0.49376 0.97366 0.57348 0.0
C795 C 0.53913 0.99804 0.58347 0.0
C796 C 0.57901 0.02391 0.57068 0.0
C797 C 0.57293 0.0267 0.54849 0.0
C798 C 0.45038 0.94504 0.58638 0.0
C799 C 0.62798 0.05034 0.58071 0.0
C800 C 0.55092 0.03271 0.64318 0.0
C801 C 0.55927 0.00865 0.65345 0.0
C802 C 0.54405 0.02924 0.62049 0.0
C803 C 0.5446 1.0004 0.60766 0.0
C804 C 0.55111 0.97477 0.61793 0.0
C805 C 0.55855 0.97931 0.64072 0.0
C806 C 0.53719 0.05716 0.61021 0.0
C807 C 0.55085 0.94303 0.60484 0.0
H808 H 0.45388 0.95994 0.54393 0.0
H809 H 0.60333 0.04739 0.53884 0.0
H810 H 0.45476 0.92668 0.5967 0.0
H811 H 0.44458 0.96328 0.59743 0.0
H812 H 0.41861 0.92376 0.57562 0.0
H813 H 0.6553 0.066 0.56824 0.0
H814 H 0.63286 0.07404 0.5924 0.0
H815 H 0.63331 0.03155 0.59002 0.0
H816 H 0.55023 0.05474 0.6529 0.0
H817 H 0.56518 0.96068 0.64846 0.0
H818 H 0.50331 0.03864 0.60085 0.0
H819 H 0.56537 0.07623 0.59854 0.0
H820 H 0.53757 0.07788 0.62251 0.0
H821 H 0.51667 0.92086 0.59589 0.0
H822 H 0.5569 0.92579 0.61526 0.0
H823 H 0.57835 0.95796 0.59245 0.0
C824 C 0.64106 0.56346 0.90908 0.0
C825 C 0.60458 0.55217 0.89489 0.0
C826 C 0.6314 0.54871 0.92998 0.0
C827 C 0.58437 0.52275 0.9366 0.0
C828 C 0.54782 0.51336 0.9227 0.0
C829 C 0.5584 0.52796 0.90186 0.0
C830 C 0.67098 0.55901 0.94447 0.0
C831 C 0.49729 0.48637 0.92943 0.0
C832 C 0.53917 0.43876 0.97458 0.0
C833 C 0.53256 0.45474 0.99343 0.0
C834 C 0.55903 0.46189 0.9563 0.0
C835 C 0.57215 0.50171 0.95699 0.0
C836 C 0.56797 0.51892 0.97636 0.0
C837 C 0.5484 0.4952 0.99448 0.0
C838 C 0.56306 0.44267 0.93581 0.0
C839 C 0.58155 0.5613 0.97751 0.0
H840 H 0.67677 0.58232 0.90353 0.0
H841 H 0.53033 0.51979 0.89088 0.0
H842 H 0.66975 0.57053 0.96096 0.0
H843 H 0.66703 0.53083 0.94649 0.0
H844 H 0.70588 0.58241 0.93765 0.0
H845 H 0.47379 0.48478 0.91731 0.0
H846 H 0.48481 0.45479 0.93132 0.0
H847 H 0.49418 0.49801 0.94545 0.0
H848 H 0.5268 0.40746 0.97376 0.0
H849 H 0.5443 0.5079 0.0093 0.0
H850 H 0.59838 0.4642 0.92898 0.0
H851 H 0.53707 0.4359 0.92327 0.0
H852 H 0.5566 0.41361 0.9388 0.0
H853 H 0.61765 0.584 0.97173 0.0
H854 H 0.57965 0.57139 0.99431 0.0
H855 H 0.55774 0.56148 0.96658 0.0
C856 C 1.00902 0.47765 0.23075 0.0
C857 C 0.05282 0.50333 0.22121 0.0
C858 C 1.00487 0.47886 0.25356 0.0
C859 C 0.04576 0.50514 0.26718 0.0
C860 C 0.09011 0.53146 0.2575 0.0
C861 C 0.09301 0.5307 0.2346 0.0
C862 C 0.95683 0.45131 0.26309 0.0
C863 C 0.1347 0.55903 0.27136 0.0
C864 C 0.0396 0.52991 0.32736 0.0
C865 C 0.04268 0.50255 0.33754 0.0
C866 C 0.0395 0.53057 0.30443 0.0
C867 C 0.04264 0.50324 0.29149 0.0
C868 C 0.04457 0.47489 0.30186 0.0
C869 C 0.0447 0.47501 0.32476 0.0
C870 C 0.03707 0.56105 0.29409 0.0
C871 C 0.04774 0.44509 0.28882 0.0
H872 H 0.978 0.45639 0.22033 0.0
H873 H 0.12696 0.55005 0.22719 0.0
H874 H 0.9538 0.42812 0.27269 0.0
H875 H 0.95152 0.46957 0.27444 0.0
H876 H 0.92839 0.43504 0.25029 0.0
H877 H 0.16623 0.57855 0.26139 0.0
H878 H 0.1328 0.57919 0.28297 0.0
H879 H 0.13898 0.54007 0.2812 0.0
H880 H 0.03833 0.55136 0.33736 0.0
H881 H 0.04718 0.45396 0.33276 0.0
H882 H 1.00816 0.54507 0.28157 0.0
H883 H 0.07014 0.58345 0.28568 0.0
H884 H 1.03152 0.57818 0.30628 0.0
H885 H 1.01739 0.42565 0.27714 0.0
H886 H 0.04845 0.42476 0.29936 0.0
H887 H 0.07995 0.46222 0.27913 0.0
loop_
_geom_bond_atom_site_label_1
_geom_bond_atom_site_label_2
_geom_bond_distance
_geom_bond_site_symmetry_2
_ccdc_geom_bond_type
Gd0 C3 2.818 . S
Gd0 O20 2.377 . S
Gd0 O22 2.448 . S
Gd0 O23 2.506 . S
Gd0 O24 2.435 . S
Gd0 O25 2.717 . S
Gd0 O27 2.395 1_455 S
Gd0 O31 2.327 . S
Gd1 C12 2.818 1_455 S
Gd1 O21 2.395 . S
Gd1 O25 2.327 . S
Gd1 O26 2.377 1_455 S
Gd1 O28 2.448 1_455 S
Gd1 O29 2.506 1_455 S
Gd1 O30 2.435 . S
Gd1 O31 2.717 . S
C2 O20 1.240 . S
C2 O21 1.240 . S
C3 Gd0 2.818 . S
C3 C4 1.510 . S
C3 O22 1.249 . S
C3 O23 1.252 . S
C4 C3 1.510 . S
C4 C5 1.404 . S
C4 C6 1.352 . S
C5 C4 1.404 . S
C5 C9 1.389 . S
C5 H32 0.930 . S
C6 C4 1.352 . S
C6 C8 1.374 . S
C6 H33 0.931 . S
C7 C8 1.359 . S
C7 C9 1.364 . S
C8 C6 1.374 . S
C8 C7 1.359 . S
C8 H34 0.931 . S
C9 C5 1.389 . S
C9 C7 1.364 . S
C9 H35 0.931 . S
C10 O24 1.256 . S
C10 O25 1.257 . S
C11 O26 1.240 . S
C11 O27 1.240 . S
C12 Gd1 2.818 1_655 S
C12 C13 1.510 . S
C12 O28 1.249 . S
C12 O29 1.252 . S
C13 C12 1.510 . S
C13 C14 1.404 . S
C13 C15 1.352 . S
C14 C13 1.404 . S
C14 C18 1.389 . S
C14 H36 0.930 . S
C15 C13 1.352 . S
C15 C17 1.374 . S
C15 H37 0.931 . S
C16 C17 1.359 . S
C16 C18 1.364 . S
C17 C15 1.374 . S
C17 C16 1.359 . S
C17 H38 0.931 . S
C18 C14 1.389 . S
C18 C16 1.364 . S
C18 H39 0.931 . S
C19 O30 1.256 . S
C19 O31 1.257 . S
O20 Gd0 2.377 . S
O20 C2 1.240 . S
O21 Gd1 2.395 . S
O21 C2 1.240 . S
O22 Gd0 2.448 . S
O22 C3 1.249 . S
O23 Gd0 2.506 . S
O23 C3 1.252 . S
O24 Gd0 2.435 . S
O24 C10 1.256 . S
O25 Gd0 2.717 . S
O25 Gd1 2.327 . S
O25 C10 1.257 . S
O26 Gd1 2.377 1_655 S
O26 C11 1.240 . S
O27 Gd0 2.395 1_655 S
O27 C11 1.240 . S
O28 Gd1 2.448 1_655 S
O28 C12 1.249 . S
O29 Gd1 2.506 1_655 S
O29 C12 1.252 . S
O30 Gd1 2.435 . S
O30 C19 1.256 . S
O31 Gd0 2.327 . S
O31 Gd1 2.717 . S
O31 C19 1.257 . S
H32 C5 0.930 . S
H33 C6 0.931 . S
H34 C8 0.931 . S
H35 C9 0.931 . S
H36 C14 0.930 . S
H37 C15 0.931 . S
H38 C17 0.931 . S
H39 C18 0.931 . S
Gd40 C43 2.818 . S
Gd40 O60 2.377 . S
Gd40 O62 2.448 . S
Gd40 O63 2.506 . S
Gd40 O64 2.435 . S
Gd40 O65 2.717 1_565 S
Gd40 O67 2.395 1_565 S
Gd40 O71 2.327 1_565 S
Gd41 C52 2.818 . S
Gd41 O61 2.395 1_545 S
Gd41 O65 2.327 . S
Gd41 O66 2.377 . S
Gd41 O68 2.448 . S
Gd41 O69 2.506 . S
Gd41 O70 2.435 . S
Gd41 O71 2.717 . S
C42 O60 1.240 . S
C42 O61 1.240 . S
C43 Gd40 2.818 . S
C43 C44 1.510 . S
C43 O62 1.249 . S
C43 O63 1.252 . S
C44 C43 1.510 . S
C44 C45 1.404 . S
C44 C46 1.352 . S
C45 C44 1.404 . S
C45 C49 1.389 . S
C45 H72 0.930 . S
C46 C44 1.352 . S
C46 C48 1.374 . S
C46 H73 0.931 . S
C47 C48 1.359 . S
C47 C49 1.364 . S
C48 C46 1.374 . S
C48 C47 1.359 . S
C48 H74 0.931 . S
C49 C45 1.389 . S
C49 C47 1.364 . S
C49 H75 0.931 . S
C50 O64 1.256 1_545 S
C50 O65 1.257 . S
C51 O66 1.240 . S
C51 O67 1.240 . S
C52 Gd41 2.818 . S
C52 C53 1.510 . S
C52 O68 1.249 . S
C52 O69 1.252 . S
C53 C52 1.510 . S
C53 C54 1.404 . S
C53 C55 1.352 . S
C54 C53 1.404 . S
C54 C58 1.389 . S
C54 H76 0.930 . S
C55 C53 1.352 . S
C55 C57 1.374 . S
C55 H77 0.931 . S
C56 C57 1.359 . S
C56 C58 1.364 . S
C57 C55 1.374 . S
C57 C56 1.359 . S
C57 H78 0.931 . S
C58 C54 1.389 . S
C58 C56 1.364 . S
C58 H79 0.931 . S
C59 O70 1.256 . S
C59 O71 1.257 . S
O60 Gd40 2.377 . S
O60 C42 1.240 . S
O61 Gd41 2.395 1_565 S
O61 C42 1.240 . S
O62 Gd40 2.448 . S
O62 C43 1.249 . S
O63 Gd40 2.506 . S
O63 C43 1.252 . S
O64 Gd40 2.435 . S
O64 C50 1.256 1_565 S
O65 Gd40 2.717 1_545 S
O65 Gd41 2.327 . S
O65 C50 1.257 . S
O66 Gd41 2.377 . S
O66 C51 1.240 . S
O67 Gd40 2.395 1_545 S
O67 C51 1.240 . S
O68 Gd41 2.448 . S
O68 C52 1.249 . S
O69 Gd41 2.506 . S
O69 C52 1.252 . S
O70 Gd41 2.435 . S
O70 C59 1.256 . S
O71 Gd40 2.327 1_545 S
O71 Gd41 2.717 . S
O71 C59 1.257 . S
H72 C45 0.930 . S
H73 C46 0.931 . S
H74 C48 0.931 . S
H75 C49 0.931 . S
H76 C54 0.930 . S
H77 C55 0.931 . S
H78 C57 0.931 . S
H79 C58 0.931 . S
Gd80 C83 2.818 . S
Gd80 O100 2.377 . S
Gd80 O102 2.448 . S
Gd80 O103 2.506 . S
Gd80 O104 2.435 . S
Gd80 O105 2.717 . S
Gd80 O107 2.395 . S
Gd80 O111 2.327 . S
Gd81 C92 2.818 . S
Gd81 O101 2.395 . S
Gd81 O105 2.327 . S
Gd81 O106 2.377 . S
Gd81 O108 2.448 . S
Gd81 O109 2.506 . S
Gd81 O110 2.435 . S
Gd81 O111 2.717 . S
C82 O100 1.240 . S
C82 O101 1.240 . S
C83 Gd80 2.818 . S
C83 C84 1.510 . S
C83 O102 1.249 . S
C83 O103 1.252 . S
C84 C83 1.510 . S
C84 C85 1.404 . S
C84 C86 1.352 . S
C85 C84 1.404 . S
C85 C89 1.389 . S
C85 H112 0.930 . S
C86 C84 1.352 . S
C86 C88 1.374 . S
C86 H113 0.931 . S
C87 C88 1.359 . S
C87 C89 1.364 . S
C88 C86 1.374 . S
C88 C87 1.359 . S
C88 H114 0.931 . S
C89 C85 1.389 . S
C89 C87 1.364 . S
C89 H115 0.931 . S
C90 O104 1.256 . S
C90 O105 1.257 . S
C91 O106 1.240 . S
C91 O107 1.240 . S
C92 Gd81 2.818 . S
C92 C93 1.510 . S
C92 O108 1.249 . S
C92 O109 1.252 . S
C93 C92 1.510 . S
C93 C94 1.404 . S
C93 C95 1.352 . S
C94 C93 1.404 . S
C94 C98 1.389 . S
C94 H116 0.930 . S
C95 C93 1.352 . S
C95 C97 1.374 . S
C95 H117 0.931 . S
C96 C97 1.359 . S
C96 C98 1.364 . S
C97 C95 1.374 . S
C97 C96 1.359 . S
C97 H118 0.931 . S
C98 C94 1.389 . S
C98 C96 1.364 . S
C98 H119 0.931 . S
C99 O110 1.256 . S
C99 O111 1.257 . S
O100 Gd80 2.377 . S
O100 C82 1.240 . S
O101 Gd81 2.395 . S
O101 C82 1.240 . S
O102 Gd80 2.448 . S
O102 C83 1.249 . S
O103 Gd80 2.506 . S
O103 C83 1.252 . S
O104 Gd80 2.435 . S
O104 C90 1.256 . S
O105 Gd80 2.717 . S
O105 Gd81 2.327 . S
O105 C90 1.257 . S
O106 Gd81 2.377 . S
O106 C91 1.240 . S
O107 Gd80 2.395 . S
O107 C91 1.240 . S
O108 Gd81 2.448 . S
O108 C92 1.249 . S
O109 Gd81 2.506 . S
O109 C92 1.252 . S
O110 Gd81 2.435 . S
O110 C99 1.256 . S
O111 Gd80 2.327 . S
O111 Gd81 2.717 . S
O111 C99 1.257 . S
H112 C85 0.930 . S
H113 C86 0.931 . S
H114 C88 0.931 . S
H115 C89 0.931 . S
H116 C94 0.930 . S
H117 C95 0.931 . S
H118 C97 0.931 . S
H119 C98 0.931 . S
P120 O131 1.490 1_545 S
P120 C134 1.812 1_545 S
P120 C140 1.803 . S
P120 C146 1.819 . S
H121 C135 0.941 . S
H122 C136 0.939 . S
H123 C138 0.940 . S
H124 C139 0.940 . S
H125 C141 0.939 . S
H126 C142 0.942 . S
H127 C144 0.940 . S
H128 C145 0.939 . S
H129 C147 0.941 . S
H130 C151 0.939 . S
O131 P120 1.490 1_565 S
H132 C148 0.939 . S
H133 C150 0.940 . S
C134 P120 1.812 1_565 S
C134 C135 1.389 . S
C134 C139 1.391 . S
C135 H121 0.941 . S
C135 C134 1.389 . S
C135 C136 1.397 . S
C136 H122 0.939 . S
C136 C135 1.397 . S
C136 C137 1.378 . S
C137 C136 1.378 . S
C137 C138 1.378 . S
C138 H123 0.940 . S
C138 C137 1.378 . S
C138 C139 1.396 . S
C139 H124 0.940 . S
C139 C134 1.391 . S
C139 C138 1.396 . S
C140 P120 1.803 . S
C140 C141 1.378 . S
C140 C145 1.400 . S
C141 H125 0.939 . S
C141 C140 1.378 . S
C141 C142 1.361 . S
C142 H126 0.942 . S
C142 C141 1.361 . S
C142 C143 1.369 . S
C143 C142 1.369 . S
C143 C144 1.404 . S
C144 H127 0.940 . S
C144 C143 1.404 . S
C144 C145 1.389 . S
C145 H128 0.939 . S
C145 C140 1.400 . S
C145 C144 1.389 . S
C146 P120 1.819 . S
C146 C147 1.391 1_545 S
C146 C151 1.391 . S
C147 H129 0.941 . S
C147 C146 1.391 1_565 S
C147 C148 1.396 . S
C148 H132 0.939 . S
C148 C147 1.396 . S
C148 C149 1.397 1_565 S
C149 C148 1.397 1_545 S
C149 C150 1.385 . S
C150 H133 0.940 . S
C150 C149 1.385 . S
C150 C151 1.388 . S
C151 H130 0.939 . S
C151 C146 1.391 . S
C151 C150 1.388 . S
P152 O163 1.490 . S
P152 C166 1.812 . S
P152 C172 1.803 . S
P152 C178 1.819 . S
H153 C167 0.941 . S
H154 C168 0.939 . S
H155 C170 0.940 . S
H156 C171 0.940 . S
H157 C173 0.939 . S
H158 C174 0.942 . S
H159 C176 0.940 . S
H160 C177 0.939 . S
H161 C179 0.941 . S
H162 C183 0.939 . S
O163 P152 1.490 . S
H164 C180 0.939 . S
H165 C182 0.940 . S
C166 P152 1.812 . S
C166 C167 1.389 . S
C166 C171 1.391 . S
C167 H153 0.941 . S
C167 C166 1.389 . S
C167 C168 1.397 . S
C168 H154 0.939 . S
C168 C167 1.397 . S
C168 C169 1.378 . S
C169 C168 1.378 . S
C169 C170 1.378 . S
C170 H155 0.940 . S
C170 C169 1.378 . S
C170 C171 1.396 . S
C171 H156 0.940 . S
C171 C166 1.391 . S
C171 C170 1.396 . S
C172 P152 1.803 . S
C172 C173 1.378 . S
C172 C177 1.400 . S
C173 H157 0.939 . S
C173 C172 1.378 . S
C173 C174 1.361 . S
C174 H158 0.942 . S
C174 C173 1.361 . S
C174 C175 1.369 . S
C175 C174 1.369 . S
C175 C176 1.404 . S
C176 H159 0.940 . S
C176 C175 1.404 . S
C176 C177 1.389 . S
C177 H160 0.939 . S
C177 C172 1.400 . S
C177 C176 1.389 . S
C178 P152 1.819 . S
C178 C179 1.391 . S
C178 C183 1.391 . S
C179 H161 0.941 . S
C179 C178 1.391 . S
C179 C180 1.396 . S
C180 H164 0.939 . S
C180 C179 1.396 . S
C180 C181 1.397 . S
C181 C180 1.397 . S
C181 C182 1.385 . S
C182 H165 0.940 . S
C182 C181 1.385 . S
C182 C183 1.388 . S
C183 H162 0.939 . S
C183 C178 1.391 . S
C183 C182 1.388 . S
P184 O195 1.490 . S
P184 C198 1.812 . S
P184 C204 1.803 . S
P184 C210 1.819 . S
H185 C199 0.941 . S
H186 C200 0.939 . S
H187 C202 0.940 . S
H188 C203 0.940 . S
H189 C205 0.939 . S
H190 C206 0.942 . S
H191 C208 0.940 . S
H192 C209 0.939 . S
H193 C211 0.941 . S
H194 C215 0.939 . S
O195 P184 1.490 . S
H196 C212 0.939 . S
H197 C214 0.940 1_655 S
C198 P184 1.812 . S
C198 C199 1.389 . S
C198 C203 1.391 . S
C199 H185 0.941 . S
C199 C198 1.389 . S
C199 C200 1.397 . S
C200 H186 0.939 . S
C200 C199 1.397 . S
C200 C201 1.378 . S
C201 C200 1.378 . S
C201 C202 1.378 . S
C202 H187 0.940 . S
C202 C201 1.378 . S
C202 C203 1.396 . S
C203 H188 0.940 . S
C203 C198 1.391 . S
C203 C202 1.396 . S
C204 P184 1.803 . S
C204 C205 1.378 . S
C204 C209 1.400 . S
C205 H189 0.939 . S
C205 C204 1.378 . S
C205 C206 1.361 1_455 S
C206 H190 0.942 . S
C206 C205 1.361 1_655 S
C206 C207 1.369 . S
C207 C206 1.369 . S
C207 C208 1.404 . S
C208 H191 0.940 . S
C208 C207 1.404 . S
C208 C209 1.389 1_655 S
C209 H192 0.939 . S
C209 C204 1.400 . S
C209 C208 1.389 1_455 S
C210 P184 1.819 . S
C210 C211 1.391 . S
C210 C215 1.391 . S
C211 H193 0.941 . S
C211 C210 1.391 . S
C211 C212 1.396 . S
C212 H196 0.939 . S
C212 C211 1.396 . S
C212 C213 1.397 . S
C213 C212 1.397 . S
C213 C214 1.385 . S
C214 H197 0.940 1_455 S
C214 C213 1.385 . S
C214 C215 1.388 . S
C215 H194 0.939 . S
C215 C210 1.391 . S
C215 C214 1.388 . S
P216 O227 1.490 . S
P216 C230 1.812 . S
P216 C236 1.803 1_455 S
P216 C242 1.819 . S
H217 C231 0.941 . S
H218 C232 0.939 . S
H219 C234 0.940 . S
H220 C235 0.940 . S
H221 C237 0.939 . S
H222 C238 0.942 . S
H223 C240 0.940 . S
H224 C241 0.939 . S
H225 C243 0.941 . S
H226 C247 0.939 . S
O227 P216 1.490 . S
H228 C244 0.939 . S
H229 C246 0.940 . S
C230 P216 1.812 . S
C230 C231 1.389 . S
C230 C235 1.391 . S
C231 H217 0.941 . S
C231 C230 1.389 . S
C231 C232 1.397 . S
C232 H218 0.939 . S
C232 C231 1.397 . S
C232 C233 1.378 . S
C233 C232 1.378 . S
C233 C234 1.378 . S
C234 H219 0.940 . S
C234 C233 1.378 . S
C234 C235 1.396 . S
C235 H220 0.940 . S
C235 C230 1.391 . S
C235 C234 1.396 . S
C236 P216 1.803 1_655 S
C236 C237 1.378 . S
C236 C241 1.400 . S
C237 H221 0.939 . S
C237 C236 1.378 . S
C237 C238 1.361 . S
C238 H222 0.942 . S
C238 C237 1.361 . S
C238 C239 1.369 . S
C239 C238 1.369 . S
C239 C240 1.404 . S
C240 H223 0.940 . S
C240 C239 1.404 . S
C240 C241 1.389 . S
C241 H224 0.939 . S
C241 C236 1.400 . S
C241 C240 1.389 . S
C242 P216 1.819 . S
C242 C243 1.391 . S
C242 C247 1.391 1_455 S
C243 H225 0.941 . S
C243 C242 1.391 . S
C243 C244 1.396 . S
C244 H228 0.939 . S
C244 C243 1.396 . S
C244 C245 1.397 . S
C245 C244 1.397 . S
C245 C246 1.385 1_455 S
C246 H229 0.940 . S
C246 C245 1.385 1_655 S
C246 C247 1.388 . S
C247 H226 0.939 . S
C247 C242 1.391 1_655 S
C247 C246 1.388 . S
P248 O259 1.490 . S
P248 C262 1.812 . S
P248 C268 1.803 1_545 S
P248 C274 1.819 . S
H249 C263 0.941 . S
H250 C264 0.939 . S
H251 C266 0.940 . S
H252 C267 0.940 . S
H253 C269 0.940 . S
H254 C270 0.942 . S
H255 C272 0.940 . S
H256 C273 0.939 . S
H257 C275 0.941 . S
H258 C279 0.939 . S
O259 P248 1.490 . S
H260 C276 0.939 . S
H261 C278 0.940 . S
C262 P248 1.812 . S
C262 C263 1.389 . S
C262 C267 1.391 . S
C263 H249 0.941 . S
C263 C262 1.389 . S
C263 C264 1.397 . S
C264 H250 0.939 . S
C264 C263 1.397 . S
C264 C265 1.378 . S
C265 C264 1.378 . S
C265 C266 1.378 . S
C266 H251 0.940 . S
C266 C265 1.378 . S
C266 C267 1.396 . S
C267 H252 0.940 . S
C267 C262 1.391 . S
C267 C266 1.396 . S
C268 P248 1.803 1_565 S
C268 C269 1.378 . S
C268 C273 1.400 . S
C269 H253 0.940 . S
C269 C268 1.378 . S
C269 C270 1.361 . S
C270 H254 0.942 . S
C270 C269 1.361 . S
C270 C271 1.369 . S
C271 C270 1.369 . S
C271 C272 1.404 . S
C272 H255 0.940 . S
C272 C271 1.404 . S
C272 C273 1.389 . S
C273 H256 0.939 . S
C273 C268 1.400 . S
C273 C272 1.389 . S
C274 P248 1.819 . S
C274 C275 1.391 . S
C274 C279 1.391 1_545 S
C275 H257 0.941 . S
C275 C274 1.391 . S
C275 C276 1.396 . S
C276 H260 0.939 . S
C276 C275 1.396 . S
C276 C277 1.397 . S
C277 C276 1.397 . S
C277 C278 1.385 1_545 S
C278 H261 0.940 . S
C278 C277 1.385 1_565 S
C278 C279 1.388 . S
C279 H258 0.939 . S
C279 C274 1.391 1_565 S
C279 C278 1.388 . S
P280 O291 1.490 . S
P280 C294 1.812 . S
P280 C300 1.803 . S
P280 C306 1.819 . S
H281 C295 0.941 . S
H282 C296 0.939 . S
H283 C298 0.940 . S
H284 C299 0.940 . S
H285 C301 0.939 . S
H286 C302 0.942 . S
H287 C304 0.940 . S
H288 C305 0.939 . S
H289 C307 0.941 . S
H290 C311 0.939 . S
O291 P280 1.490 . S
H292 C308 0.939 . S
H293 C310 0.940 . S
C294 P280 1.812 . S
C294 C295 1.389 . S
C294 C299 1.391 . S
C295 H281 0.941 . S
C295 C294 1.389 . S
C295 C296 1.397 . S
C296 H282 0.939 . S
C296 C295 1.397 . S
C296 C297 1.378 . S
C297 C296 1.378 . S
C297 C298 1.378 . S
C298 H283 0.940 . S
C298 C297 1.378 . S
C298 C299 1.396 . S
C299 H284 0.940 . S
C299 C294 1.391 . S
C299 C298 1.396 . S
C300 P280 1.803 . S
C300 C301 1.378 . S
C300 C305 1.400 . S
C301 H285 0.939 . S
C301 C300 1.378 . S
C301 C302 1.361 . S
C302 H286 0.942 . S
C302 C301 1.361 . S
C302 C303 1.369 . S
C303 C302 1.369 . S
C303 C304 1.404 . S
C304 H287 0.940 . S
C304 C303 1.404 . S
C304 C305 1.389 . S
C305 H288 0.939 . S
C305 C300 1.400 . S
C305 C304 1.389 . S
C306 P280 1.819 . S
C306 C307 1.391 . S
C306 C311 1.391 . S
C307 H289 0.941 . S
C307 C306 1.391 . S
C307 C308 1.396 . S
C308 H292 0.939 . S
C308 C307 1.396 . S
C308 C309 1.397 . S
C309 C308 1.397 . S
C309 C310 1.385 . S
C310 H293 0.940 . S
C310 C309 1.385 . S
C310 C311 1.388 . S
C311 H290 0.939 . S
C311 C306 1.391 . S
C311 C310 1.388 . S
C312 C313 1.391 . S
C312 C314 1.394 . S
C312 H328 0.931 . S
C313 C312 1.391 . S
C313 C317 1.376 . S
C314 C312 1.394 . S
C314 C315 1.369 . S
C314 C318 1.531 . S
C315 C314 1.369 . S
C315 C316 1.410 . S
C315 C323 1.503 . S
C316 C315 1.410 . S
C316 C317 1.392 . S
C316 C319 1.511 . S
C317 C313 1.376 . S
C317 C316 1.392 . S
C317 H329 0.929 . S
C318 C314 1.531 . S
C318 H330 0.960 . S
C318 H331 0.962 . S
C318 H332 0.960 . S
C319 C316 1.511 . S
C319 H333 0.961 . S
C319 H334 0.961 . S
C319 H335 0.961 . S
C320 C321 1.370 . S
C320 C322 1.363 . S
C320 H336 0.931 . S
C321 C320 1.370 . S
C321 C325 1.408 . S
C322 C320 1.363 . S
C322 C323 1.370 . S
C322 C326 1.524 . S
C323 C315 1.503 . S
C323 C322 1.370 . S
C323 C324 1.403 . S
C324 C323 1.403 . S
C324 C325 1.404 . S
C324 C327 1.539 . S
C325 C321 1.408 . S
C325 C324 1.404 . S
C325 H337 0.930 . S
C326 C322 1.524 . S
C326 H338 0.956 . S
C326 H339 0.961 . S
C326 H340 0.961 . S
C327 C324 1.539 . S
C327 H341 0.958 . S
C327 H342 0.961 . S
C327 H343 0.960 . S
H328 C312 0.931 . S
H329 C317 0.929 . S
H330 C318 0.960 . S
H331 C318 0.962 . S
H332 C318 0.960 . S
H333 C319 0.961 . S
H334 C319 0.961 . S
H335 C319 0.961 . S
H336 C320 0.931 . S
H337 C325 0.930 . S
H338 C326 0.956 . S
H339 C326 0.961 . S
H340 C326 0.961 . S
H341 C327 0.958 . S
H342 C327 0.961 . S
H343 C327 0.960 . S
C344 C345 1.391 . S
C344 C346 1.394 . S
C344 H360 0.931 . S
C345 C344 1.391 . S
C345 C349 1.376 . S
C346 C344 1.394 . S
C346 C347 1.369 . S
C346 C350 1.531 . S
C347 C346 1.369 . S
C347 C348 1.410 . S
C347 C355 1.503 . S
C348 C347 1.410 . S
C348 C349 1.392 . S
C348 C351 1.511 . S
C349 C345 1.376 . S
C349 C348 1.392 . S
C349 H361 0.929 . S
C350 C346 1.531 . S
C350 H362 0.960 . S
C350 H363 0.962 . S
C350 H364 0.960 . S
C351 C348 1.511 . S
C351 H365 0.961 . S
C351 H366 0.961 . S
C351 H367 0.961 . S
C352 C353 1.370 . S
C352 C354 1.363 . S
C352 H368 0.931 . S
C353 C352 1.370 . S
C353 C357 1.408 . S
C354 C352 1.363 . S
C354 C355 1.370 . S
C354 C358 1.524 . S
C355 C347 1.503 . S
C355 C354 1.370 . S
C355 C356 1.403 . S
C356 C355 1.403 . S
C356 C357 1.404 . S
C356 C359 1.539 . S
C357 C353 1.408 . S
C357 C356 1.404 . S
C357 H369 0.930 . S
C358 C354 1.524 . S
C358 H370 0.956 . S
C358 H371 0.961 . S
C358 H372 0.961 . S
C359 C356 1.539 . S
C359 H373 0.958 . S
C359 H374 0.961 . S
C359 H375 0.960 . S
H360 C344 0.931 . S
H361 C349 0.929 . S
H362 C350 0.960 . S
H363 C350 0.962 . S
H364 C350 0.960 . S
H365 C351 0.961 . S
H366 C351 0.961 . S
H367 C351 0.961 . S
H368 C352 0.931 . S
H369 C357 0.930 . S
H370 C358 0.956 . S
H371 C358 0.961 . S
H372 C358 0.961 . S
H373 C359 0.958 . S
H374 C359 0.961 . S
H375 C359 0.960 . S
C376 C377 1.391 . S
C376 C378 1.394 . S
C376 H392 0.931 . S
C377 C376 1.391 . S
C377 C381 1.376 . S
C378 C376 1.394 . S
C378 C379 1.369 . S
C378 C382 1.531 . S
C379 C378 1.369 . S
C379 C380 1.410 . S
C379 C387 1.503 . S
C380 C379 1.410 . S
C380 C381 1.392 . S
C380 C383 1.511 . S
C381 C377 1.376 . S
C381 C380 1.392 . S
C381 H393 0.929 . S
C382 C378 1.531 . S
C382 H394 0.960 . S
C382 H395 0.962 . S
C382 H396 0.960 . S
C383 C380 1.511 . S
C383 H397 0.961 . S
C383 H398 0.961 . S
C383 H399 0.961 . S
C384 C385 1.370 . S
C384 C386 1.363 . S
C384 H400 0.931 . S
C385 C384 1.370 . S
C385 C389 1.408 . S
C386 C384 1.363 . S
C386 C387 1.370 . S
C386 C390 1.524 . S
C387 C379 1.503 . S
C387 C386 1.370 . S
C387 C388 1.403 . S
C388 C387 1.403 . S
C388 C389 1.404 . S
C388 C391 1.539 . S
C389 C385 1.408 . S
C389 C388 1.404 . S
C389 H401 0.930 . S
C390 C386 1.524 . S
C390 H402 0.956 . S
C390 H403 0.961 . S
C390 H404 0.961 . S
C391 C388 1.539 . S
C391 H405 0.958 . S
C391 H406 0.961 . S
C391 H407 0.960 . S
H392 C376 0.931 . S
H393 C381 0.929 . S
H394 C382 0.960 . S
H395 C382 0.962 . S
H396 C382 0.960 . S
H397 C383 0.961 . S
H398 C383 0.961 . S
H399 C383 0.961 . S
H400 C384 0.931 . S
H401 C389 0.930 . S
H402 C390 0.956 . S
H403 C390 0.961 . S
H404 C390 0.961 . S
H405 C391 0.958 . S
H406 C391 0.961 . S
H407 C391 0.960 . S
C408 C409 1.391 . S
C408 C410 1.394 . S
C408 H424 0.931 . S
C409 C408 1.391 . S
C409 C413 1.376 . S
C410 C408 1.394 . S
C410 C411 1.369 . S
C410 C414 1.531 . S
C411 C410 1.369 . S
C411 C412 1.410 . S
C411 C419 1.503 . S
C412 C411 1.410 . S
C412 C413 1.392 . S
C412 C415 1.511 . S
C413 C409 1.376 . S
C413 C412 1.392 . S
C413 H425 0.929 . S
C414 C410 1.531 . S
C414 H426 0.960 . S
C414 H427 0.962 . S
C414 H428 0.960 . S
C415 C412 1.511 . S
C415 H429 0.961 . S
C415 H430 0.961 . S
C415 H431 0.961 . S
C416 C417 1.370 . S
C416 C418 1.363 . S
C416 H432 0.931 . S
C417 C416 1.370 . S
C417 C421 1.408 . S
C418 C416 1.363 . S
C418 C419 1.370 . S
C418 C422 1.524 . S
C419 C411 1.503 . S
C419 C418 1.370 . S
C419 C420 1.403 . S
C420 C419 1.403 . S
C420 C421 1.404 . S
C420 C423 1.539 . S
C421 C417 1.408 . S
C421 C420 1.404 . S
C421 H433 0.930 . S
C422 C418 1.524 . S
C422 H434 0.956 . S
C422 H435 0.961 . S
C422 H436 0.961 . S
C423 C420 1.539 . S
C423 H437 0.958 . S
C423 H438 0.961 . S
C423 H439 0.960 . S
H424 C408 0.931 . S
H425 C413 0.929 . S
H426 C414 0.960 . S
H427 C414 0.962 . S
H428 C414 0.960 . S
H429 C415 0.961 . S
H430 C415 0.961 . S
H431 C415 0.961 . S
H432 C416 0.931 . S
H433 C421 0.930 . S
H434 C422 0.956 . S
H435 C422 0.961 . S
H436 C422 0.961 . S
H437 C423 0.958 . S
H438 C423 0.961 . S
H439 C423 0.960 . S
C440 C441 1.391 . S
C440 C442 1.394 . S
C440 H456 0.931 . S
C441 C440 1.391 . S
C441 C445 1.376 . S
C442 C440 1.394 . S
C442 C443 1.369 . S
C442 C446 1.531 . S
C443 C442 1.369 . S
C443 C444 1.410 . S
C443 C451 1.503 . S
C444 C443 1.410 . S
C444 C445 1.392 . S
C444 C447 1.511 . S
C445 C441 1.376 . S
C445 C444 1.392 . S
C445 H457 0.929 . S
C446 C442 1.531 . S
C446 H458 0.960 . S
C446 H459 0.962 . S
C446 H460 0.960 . S
C447 C444 1.511 . S
C447 H461 0.961 . S
C447 H462 0.961 . S
C447 H463 0.961 . S
C448 C449 1.370 . S
C448 C450 1.363 . S
C448 H464 0.931 . S
C449 C448 1.370 . S
C449 C453 1.408 . S
C450 C448 1.363 . S
C450 C451 1.370 . S
C450 C454 1.524 . S
C451 C443 1.503 . S
C451 C450 1.370 . S
C451 C452 1.403 . S
C452 C451 1.403 . S
C452 C453 1.404 . S
C452 C455 1.539 . S
C453 C449 1.408 . S
C453 C452 1.404 . S
C453 H465 0.930 . S
C454 C450 1.524 . S
C454 H466 0.956 . S
C454 H467 0.961 . S
C454 H468 0.961 . S
C455 C452 1.539 . S
C455 H469 0.958 . S
C455 H470 0.961 . S
C455 H471 0.960 . S
H456 C440 0.931 . S
H457 C445 0.929 . S
H458 C446 0.960 . S
H459 C446 0.962 . S
H460 C446 0.960 . S
H461 C447 0.961 . S
H462 C447 0.961 . S
H463 C447 0.961 . S
H464 C448 0.931 . S
H465 C453 0.930 . S
H466 C454 0.956 . S
H467 C454 0.961 . S
H468 C454 0.961 . S
H469 C455 0.958 . S
H470 C455 0.961 . S
H471 C455 0.960 . S
C472 C473 1.391 . S
C472 C474 1.394 . S
C472 H488 0.931 . S
C473 C472 1.391 . S
C473 C477 1.376 . S
C474 C472 1.394 . S
C474 C475 1.369 . S
C474 C478 1.531 . S
C475 C474 1.369 . S
C475 C476 1.410 . S
C475 C483 1.503 . S
C476 C475 1.410 . S
C476 C477 1.392 . S
C476 C479 1.511 . S
C477 C473 1.376 . S
C477 C476 1.392 . S
C477 H489 0.929 . S
C478 C474 1.531 . S
C478 H490 0.960 . S
C478 H491 0.962 . S
C478 H492 0.960 . S
C479 C476 1.511 . S
C479 H493 0.961 . S
C479 H494 0.961 . S
C479 H495 0.961 . S
C480 C481 1.370 . S
C480 C482 1.363 . S
C480 H496 0.931 . S
C481 C480 1.370 . S
C481 C485 1.408 . S
C482 C480 1.363 . S
C482 C483 1.370 . S
C482 C486 1.524 . S
C483 C475 1.503 . S
C483 C482 1.370 . S
C483 C484 1.403 . S
C484 C483 1.403 . S
C484 C485 1.404 . S
C484 C487 1.539 . S
C485 C481 1.408 . S
C485 C484 1.404 . S
C485 H497 0.930 . S
C486 C482 1.524 . S
C486 H498 0.956 . S
C486 H499 0.961 . S
C486 H500 0.961 . S
C487 C484 1.539 . S
C487 H501 0.958 . S
C487 H502 0.961 . S
C487 H503 0.960 . S
H488 C472 0.931 . S
H489 C477 0.929 . S
H490 C478 0.960 . S
H491 C478 0.962 . S
H492 C478 0.960 . S
H493 C479 0.961 . S
H494 C479 0.961 . S
H495 C479 0.961 . S
H496 C480 0.931 . S
H497 C485 0.930 . S
H498 C486 0.956 . S
H499 C486 0.961 . S
H500 C486 0.961 . S
H501 C487 0.958 . S
H502 C487 0.961 . S
H503 C487 0.960 . S
C504 C505 1.391 . S
C504 C506 1.394 . S
C504 H520 0.931 . S
C505 C504 1.391 . S
C505 C509 1.376 . S
C506 C504 1.394 . S
C506 C507 1.369 . S
C506 C510 1.531 . S
C507 C506 1.369 . S
C507 C508 1.410 . S
C507 C515 1.503 . S
C508 C507 1.410 . S
C508 C509 1.392 . S
C508 C511 1.511 . S
C509 C505 1.376 . S
C509 C508 1.392 . S
C509 H521 0.929 . S
C510 C506 1.531 . S
C510 H522 0.960 . S
C510 H523 0.962 . S
C510 H524 0.960 . S
C511 C508 1.511 . S
C511 H525 0.961 . S
C511 H526 0.961 . S
C511 H527 0.961 . S
C512 C513 1.370 . S
C512 C514 1.363 . S
C512 H528 0.931 . S
C513 C512 1.370 . S
C513 C517 1.408 . S
C514 C512 1.363 . S
C514 C515 1.370 . S
C514 C518 1.524 . S
C515 C507 1.503 . S
C515 C514 1.370 . S
C515 C516 1.403 . S
C516 C515 1.403 . S
C516 C517 1.404 . S
C516 C519 1.539 . S
C517 C513 1.408 . S
C517 C516 1.404 . S
C517 H529 0.930 . S
C518 C514 1.524 . S
C518 H530 0.956 . S
C518 H531 0.961 . S
C518 H532 0.961 . S
C519 C516 1.539 . S
C519 H533 0.958 . S
C519 H534 0.961 . S
C519 H535 0.960 . S
H520 C504 0.931 . S
H521 C509 0.929 . S
H522 C510 0.960 . S
H523 C510 0.962 . S
H524 C510 0.960 . S
H525 C511 0.961 . S
H526 C511 0.961 . S
H527 C511 0.961 . S
H528 C512 0.931 . S
H529 C517 0.930 . S
H530 C518 0.956 . S
H531 C518 0.961 . S
H532 C518 0.961 . S
H533 C519 0.958 . S
H534 C519 0.961 . S
H535 C519 0.960 . S
C536 C537 1.391 . S
C536 C538 1.394 . S
C536 H552 0.931 . S
C537 C536 1.391 . S
C537 C541 1.376 . S
C538 C536 1.394 . S
C538 C539 1.369 . S
C538 C542 1.531 . S
C539 C538 1.369 . S
C539 C540 1.410 . S
C539 C547 1.503 . S
C540 C539 1.410 . S
C540 C541 1.392 . S
C540 C543 1.511 . S
C541 C537 1.376 . S
C541 C540 1.392 . S
C541 H553 0.929 . S
C542 C538 1.531 . S
C542 H554 0.960 . S
C542 H555 0.962 . S
C542 H556 0.960 . S
C543 C540 1.511 . S
C543 H557 0.961 . S
C543 H558 0.961 . S
C543 H559 0.961 . S
C544 C545 1.370 . S
C544 C546 1.363 . S
C544 H560 0.931 . S
C545 C544 1.370 . S
C545 C549 1.408 . S
C546 C544 1.363 . S
C546 C547 1.370 . S
C546 C550 1.524 . S
C547 C539 1.503 . S
C547 C546 1.370 . S
C547 C548 1.403 . S
C548 C547 1.403 . S
C548 C549 1.404 . S
C548 C551 1.539 . S
C549 C545 1.408 . S
C549 C548 1.404 . S
C549 H561 0.930 . S
C550 C546 1.524 . S
C550 H562 0.956 . S
C550 H563 0.961 . S
C550 H564 0.961 . S
C551 C548 1.539 . S
C551 H565 0.958 . S
C551 H566 0.961 . S
C551 H567 0.960 . S
H552 C536 0.931 . S
H553 C541 0.929 . S
H554 C542 0.960 . S
H555 C542 0.962 . S
H556 C542 0.960 . S
H557 C543 0.961 . S
H558 C543 0.961 . S
H559 C543 0.961 . S
H560 C544 0.931 . S
H561 C549 0.930 . S
H562 C550 0.956 . S
H563 C550 0.961 . S
H564 C550 0.961 . S
H565 C551 0.958 . S
H566 C551 0.961 . S
H567 C551 0.960 . S
C568 C569 1.391 . S
C568 C570 1.394 . S
C568 H584 0.931 . S
C569 C568 1.391 . S
C569 C573 1.376 . S
C570 C568 1.394 . S
C570 C571 1.369 . S
C570 C574 1.531 . S
C571 C570 1.369 . S
C571 C572 1.410 . S
C571 C579 1.503 . S
C572 C571 1.410 . S
C572 C573 1.392 . S
C572 C575 1.511 . S
C573 C569 1.376 . S
C573 C572 1.392 . S
C573 H585 0.929 . S
C574 C570 1.531 . S
C574 H586 0.960 . S
C574 H587 0.962 . S
C574 H588 0.960 . S
C575 C572 1.511 . S
C575 H589 0.961 . S
C575 H590 0.961 . S
C575 H591 0.961 . S
C576 C577 1.370 . S
C576 C578 1.363 . S
C576 H592 0.931 . S
C577 C576 1.370 . S
C577 C581 1.408 . S
C578 C576 1.363 . S
C578 C579 1.370 . S
C578 C582 1.524 . S
C579 C571 1.503 . S
C579 C578 1.370 . S
C579 C580 1.403 . S
C580 C579 1.403 . S
C580 C581 1.404 . S
C580 C583 1.539 . S
C581 C577 1.408 . S
C581 C580 1.404 . S
C581 H593 0.930 . S
C582 C578 1.524 . S
C582 H594 0.956 . S
C582 H595 0.961 . S
C582 H596 0.961 . S
C583 C580 1.539 . S
C583 H597 0.958 . S
C583 H598 0.961 . S
C583 H599 0.960 . S
H584 C568 0.931 . S
H585 C573 0.929 . S
H586 C574 0.960 . S
H587 C574 0.962 . S
H588 C574 0.960 . S
H589 C575 0.961 . S
H590 C575 0.961 . S
H591 C575 0.961 . S
H592 C576 0.931 . S
H593 C581 0.930 . S
H594 C582 0.956 . S
H595 C582 0.961 . S
H596 C582 0.961 . S
H597 C583 0.958 . S
H598 C583 0.961 . S
H599 C583 0.960 . S
C600 C601 1.391 . S
C600 C602 1.394 . S
C600 H616 0.931 . S
C601 C600 1.391 . S
C601 C605 1.376 . S
C602 C600 1.394 . S
C602 C603 1.369 . S
C602 C606 1.531 . S
C603 C602 1.369 . S
C603 C604 1.410 . S
C603 C611 1.503 . S
C604 C603 1.410 . S
C604 C605 1.392 . S
C604 C607 1.511 . S
C605 C601 1.376 . S
C605 C604 1.392 . S
C605 H617 0.929 . S
C606 C602 1.531 . S
C606 H618 0.960 . S
C606 H619 0.962 . S
C606 H620 0.960 . S
C607 C604 1.511 . S
C607 H621 0.961 . S
C607 H622 0.961 . S
C607 H623 0.961 . S
C608 C609 1.370 . S
C608 C610 1.363 . S
C608 H624 0.931 . S
C609 C608 1.370 . S
C609 C613 1.408 . S
C610 C608 1.363 . S
C610 C611 1.370 . S
C610 C614 1.524 . S
C611 C603 1.503 . S
C611 C610 1.370 . S
C611 C612 1.403 . S
C612 C611 1.403 . S
C612 C613 1.404 . S
C612 C615 1.539 . S
C613 C609 1.408 . S
C613 C612 1.404 . S
C613 H625 0.930 . S
C614 C610 1.524 . S
C614 H626 0.956 . S
C614 H627 0.961 . S
C614 H628 0.961 . S
C615 C612 1.539 . S
C615 H629 0.958 . S
C615 H630 0.961 . S
C615 H631 0.960 . S
H616 C600 0.931 . S
H617 C605 0.929 . S
H618 C606 0.960 . S
H619 C606 0.962 . S
H620 C606 0.960 . S
H621 C607 0.961 . S
H622 C607 0.961 . S
H623 C607 0.961 . S
H624 C608 0.931 . S
H625 C613 0.930 . S
H626 C614 0.956 . S
H627 C614 0.961 . S
H628 C614 0.961 . S
H629 C615 0.958 . S
H630 C615 0.961 . S
H631 C615 0.960 . S
C632 C633 1.391 . S
C632 C634 1.394 . S
C632 H648 0.931 . S
C633 C632 1.391 . S
C633 C637 1.376 . S
C634 C632 1.394 . S
C634 C635 1.369 . S
C634 C638 1.531 . S
C635 C634 1.369 . S
C635 C636 1.410 . S
C635 C643 1.503 . S
C636 C635 1.410 . S
C636 C637 1.392 . S
C636 C639 1.511 . S
C637 C633 1.376 . S
C637 C636 1.392 . S
C637 H649 0.929 . S
C638 C634 1.531 . S
C638 H650 0.960 . S
C638 H651 0.962 . S
C638 H652 0.960 . S
C639 C636 1.511 . S
C639 H653 0.961 . S
C639 H654 0.961 . S
C639 H655 0.961 . S
C640 C641 1.370 . S
C640 C642 1.363 . S
C640 H656 0.931 . S
C641 C640 1.370 . S
C641 C645 1.408 . S
C642 C640 1.363 . S
C642 C643 1.370 . S
C642 C646 1.524 . S
C643 C635 1.503 . S
C643 C642 1.370 . S
C643 C644 1.403 . S
C644 C643 1.403 . S
C644 C645 1.404 . S
C644 C647 1.539 . S
C645 C641 1.408 . S
C645 C644 1.404 . S
C645 H657 0.930 . S
C646 C642 1.524 . S
C646 H658 0.956 . S
C646 H659 0.961 . S
C646 H660 0.961 . S
C647 C644 1.539 . S
C647 H661 0.958 . S
C647 H662 0.961 . S
C647 H663 0.960 . S
H648 C632 0.931 . S
H649 C637 0.929 . S
H650 C638 0.960 . S
H651 C638 0.962 . S
H652 C638 0.960 . S
H653 C639 0.961 . S
H654 C639 0.961 . S
H655 C639 0.961 . S
H656 C640 0.931 . S
H657 C645 0.930 . S
H658 C646 0.956 . S
H659 C646 0.961 . S
H660 C646 0.961 . S
H661 C647 0.958 . S
H662 C647 0.961 . S
H663 C647 0.960 . S
C664 C665 1.391 . S
C664 C666 1.394 . S
C664 H680 0.931 . S
C665 C664 1.391 . S
C665 C669 1.376 . S
C666 C664 1.394 . S
C666 C667 1.369 . S
C666 C670 1.531 . S
C667 C666 1.369 . S
C667 C668 1.410 . S
C667 C675 1.503 . S
C668 C667 1.410 . S
C668 C669 1.392 . S
C668 C671 1.511 . S
C669 C665 1.376 . S
C669 C668 1.392 . S
C669 H681 0.929 . S
C670 C666 1.531 . S
C670 H682 0.960 . S
C670 H683 0.962 . S
C670 H684 0.960 . S
C671 C668 1.511 . S
C671 H685 0.961 . S
C671 H686 0.961 . S
C671 H687 0.961 . S
C672 C673 1.370 . S
C672 C674 1.363 . S
C672 H688 0.931 . S
C673 C672 1.370 . S
C673 C677 1.408 . S
C674 C672 1.363 . S
C674 C675 1.370 . S
C674 C678 1.524 . S
C675 C667 1.503 . S
C675 C674 1.370 . S
C675 C676 1.403 . S
C676 C675 1.403 . S
C676 C677 1.404 . S
C676 C679 1.539 . S
C677 C673 1.408 . S
C677 C676 1.404 . S
C677 H689 0.930 . S
C678 C674 1.524 . S
C678 H690 0.956 . S
C678 H691 0.961 . S
C678 H692 0.961 . S
C679 C676 1.539 . S
C679 H693 0.958 . S
C679 H694 0.961 . S
C679 H695 0.960 . S
H680 C664 0.931 . S
H681 C669 0.929 . S
H682 C670 0.960 . S
H683 C670 0.962 . S
H684 C670 0.960 . S
H685 C671 0.961 . S
H686 C671 0.961 . S
H687 C671 0.961 . S
H688 C672 0.931 . S
H689 C677 0.930 . S
H690 C678 0.956 . S
H691 C678 0.961 . S
H692 C678 0.961 . S
H693 C679 0.958 . S
H694 C679 0.961 . S
H695 C679 0.960 . S
C696 C697 1.391 . S
C696 C698 1.394 . S
C696 H712 0.931 . S
C697 C696 1.391 . S
C697 C701 1.376 . S
C698 C696 1.394 . S
C698 C699 1.369 . S
C698 C702 1.531 . S
C699 C698 1.369 . S
C699 C700 1.410 . S
C699 C707 1.503 . S
C700 C699 1.410 . S
C700 C701 1.392 . S
C700 C703 1.511 . S
C701 C697 1.376 . S
C701 C700 1.392 . S
C701 H713 0.929 . S
C702 C698 1.531 . S
C702 H714 0.960 . S
C702 H715 0.962 . S
C702 H716 0.960 . S
C703 C700 1.511 . S
C703 H717 0.961 . S
C703 H718 0.961 . S
C703 H719 0.961 . S
C704 C705 1.370 . S
C704 C706 1.363 1_556 S
C704 H720 0.931 1_455 S
C705 C704 1.370 . S
C705 C709 1.408 . S
C706 C704 1.363 1_554 S
C706 C707 1.370 . S
C706 C710 1.524 1_455 S
C707 C699 1.503 . S
C707 C706 1.370 . S
C707 C708 1.403 . S
C708 C707 1.403 . S
C708 C709 1.404 1_554 S
C708 C711 1.539 . S
C709 C705 1.408 . S
C709 C708 1.404 1_556 S
C709 H721 0.930 . S
C710 C706 1.524 1_655 S
C710 H722 0.956 . S
C710 H723 0.961 . S
C710 H724 0.961 . S
C711 C708 1.539 . S
C711 H725 0.958 . S
C711 H726 0.961 . S
C711 H727 0.960 . S
H712 C696 0.931 . S
H713 C701 0.929 . S
H714 C702 0.960 . S
H715 C702 0.962 . S
H716 C702 0.960 . S
H717 C703 0.961 . S
H718 C703 0.961 . S
H719 C703 0.961 . S
H720 C704 0.931 1_655 S
H721 C709 0.930 . S
H722 C710 0.956 . S
H723 C710 0.961 . S
H724 C710 0.961 . S
H725 C711 0.958 . S
H726 C711 0.961 . S
H727 C711 0.960 . S
C728 C729 1.391 . S
C728 C730 1.394 . S
C728 H744 0.931 . S
C729 C728 1.391 . S
C729 C733 1.376 . S
C730 C728 1.394 . S
C730 C731 1.369 . S
C730 C734 1.531 . S
C731 C730 1.369 . S
C731 C732 1.410 . S
C731 C739 1.503 . S
C732 C731 1.410 . S
C732 C733 1.392 . S
C732 C735 1.511 1_545 S
C733 C729 1.376 . S
C733 C732 1.392 . S
C733 H745 0.929 1_545 S
C734 C730 1.531 . S
C734 H746 0.960 . S
C734 H747 0.962 . S
C734 H748 0.960 . S
C735 C732 1.511 1_565 S
C735 H749 0.961 . S
C735 H750 0.961 . S
C735 H751 0.961 1_565 S
C736 C737 1.370 1_565 S
C736 C738 1.363 . S
C736 H752 0.931 . S
C737 C736 1.370 1_545 S
C737 C741 1.408 . S
C738 C736 1.363 . S
C738 C739 1.370 1_565 S
C738 C742 1.524 . S
C739 C731 1.503 . S
C739 C738 1.370 1_545 S
C739 C740 1.403 . S
C740 C739 1.403 . S
C740 C741 1.404 . S
C740 C743 1.539 . S
C741 C737 1.408 . S
C741 C740 1.404 . S
C741 H753 0.930 . S
C742 C738 1.524 . S
C742 H754 0.956 . S
C742 H755 0.961 . S
C742 H756 0.961 . S
C743 C740 1.539 . S
C743 H757 0.958 . S
C743 H758 0.961 . S
C743 H759 0.960 . S
H744 C728 0.931 . S
H745 C733 0.929 1_565 S
H746 C734 0.960 . S
H747 C734 0.962 . S
H748 C734 0.960 . S
H749 C735 0.961 . S
H750 C735 0.961 . S
H751 C735 0.961 1_545 S
H752 C736 0.931 . S
H753 C741 0.930 . S
H754 C742 0.956 . S
H755 C742 0.961 . S
H756 C742 0.961 . S
H757 C743 0.958 . S
H758 C743 0.961 . S
H759 C743 0.960 . S
C760 C761 1.391 . S
C760 C762 1.394 . S
C760 H776 0.931 . S
C761 C760 1.391 . S
C761 C765 1.376 . S
C762 C760 1.394 . S
C762 C763 1.369 . S
C762 C766 1.531 . S
C763 C762 1.369 . S
C763 C764 1.410 . S
C763 C771 1.503 . S
C764 C763 1.410 . S
C764 C765 1.392 . S
C764 C767 1.511 . S
C765 C761 1.376 . S
C765 C764 1.392 . S
C765 H777 0.929 . S
C766 C762 1.531 . S
C766 H778 0.960 . S
C766 H779 0.962 . S
C766 H780 0.960 . S
C767 C764 1.511 . S
C767 H781 0.961 . S
C767 H782 0.961 . S
C767 H783 0.961 . S
C768 C769 1.370 . S
C768 C770 1.363 . S
C768 H784 0.931 . S
C769 C768 1.370 . S
C769 C773 1.408 . S
C770 C768 1.363 . S
C770 C771 1.370 . S
C770 C774 1.524 . S
C771 C763 1.503 . S
C771 C770 1.370 . S
C771 C772 1.403 . S
C772 C771 1.403 . S
C772 C773 1.404 . S
C772 C775 1.539 . S
C773 C769 1.408 . S
C773 C772 1.404 . S
C773 H785 0.930 . S
C774 C770 1.524 . S
C774 H786 0.956 . S
C774 H787 0.961 . S
C774 H788 0.961 . S
C775 C772 1.539 . S
C775 H789 0.958 . S
C775 H790 0.961 . S
C775 H791 0.960 . S
H776 C760 0.931 . S
H777 C765 0.929 . S
H778 C766 0.960 . S
H779 C766 0.962 . S
H780 C766 0.960 . S
H781 C767 0.961 . S
H782 C767 0.961 . S
H783 C767 0.961 . S
H784 C768 0.931 . S
H785 C773 0.930 . S
H786 C774 0.956 . S
H787 C774 0.961 . S
H788 C774 0.961 . S
H789 C775 0.958 . S
H790 C775 0.961 . S
H791 C775 0.960 . S
C792 C793 1.391 1_565 S
C792 C794 1.394 . S
C792 H808 0.931 . S
C793 C792 1.391 1_545 S
C793 C797 1.376 . S
C794 C792 1.394 . S
C794 C795 1.369 . S
C794 C798 1.531 . S
C795 C794 1.369 . S
C795 C796 1.410 1_565 S
C795 C803 1.503 . S
C796 C795 1.410 1_545 S
C796 C797 1.392 . S
C796 C799 1.511 . S
C797 C793 1.376 . S
C797 C796 1.392 . S
C797 H809 0.929 . S
C798 C794 1.531 . S
C798 H810 0.960 . S
C798 H811 0.962 . S
C798 H812 0.960 . S
C799 C796 1.511 . S
C799 H813 0.961 . S
C799 H814 0.961 . S
C799 H815 0.961 . S
C800 C801 1.370 1_545 S
C800 C802 1.363 . S
C800 H816 0.931 . S
C801 C800 1.370 1_565 S
C801 C805 1.408 . S
C802 C800 1.363 . S
C802 C803 1.370 1_545 S
C802 C806 1.524 . S
C803 C795 1.503 . S
C803 C802 1.370 1_565 S
C803 C804 1.403 . S
C804 C803 1.403 . S
C804 C805 1.404 . S
C804 C807 1.539 . S
C805 C801 1.408 . S
C805 C804 1.404 . S
C805 H817 0.930 . S
C806 C802 1.524 . S
C806 H818 0.956 . S
C806 H819 0.961 . S
C806 H820 0.961 . S
C807 C804 1.539 . S
C807 H821 0.958 . S
C807 H822 0.961 . S
C807 H823 0.960 . S
H808 C792 0.931 . S
H809 C797 0.929 . S
H810 C798 0.960 . S
H811 C798 0.962 . S
H812 C798 0.960 . S
H813 C799 0.961 . S
H814 C799 0.961 . S
H815 C799 0.961 . S
H816 C800 0.931 . S
H817 C805 0.930 . S
H818 C806 0.956 . S
H819 C806 0.961 . S
H820 C806 0.961 . S
H821 C807 0.958 . S
H822 C807 0.961 . S
H823 C807 0.960 . S
C824 C825 1.391 . S
C824 C826 1.394 . S
C824 H840 0.931 . S
C825 C824 1.391 . S
C825 C829 1.376 . S
C826 C824 1.394 . S
C826 C827 1.369 . S
C826 C830 1.531 . S
C827 C826 1.369 . S
C827 C828 1.410 . S
C827 C835 1.503 . S
C828 C827 1.410 . S
C828 C829 1.392 . S
C828 C831 1.511 . S
C829 C825 1.376 . S
C829 C828 1.392 . S
C829 H841 0.929 . S
C830 C826 1.531 . S
C830 H842 0.960 . S
C830 H843 0.962 . S
C830 H844 0.960 . S
C831 C828 1.511 . S
C831 H845 0.961 . S
C831 H846 0.961 . S
C831 H847 0.961 . S
C832 C833 1.370 1_556 S
C832 C834 1.363 . S
C832 H848 0.931 . S
C833 C832 1.370 1_554 S
C833 C837 1.396 1_554 S
C834 C832 1.363 . S
C834 C835 1.370 . S
C834 C838 1.524 . S
C835 C827 1.503 . S
C835 C834 1.370 . S
C835 C836 1.403 . S
C836 C835 1.403 . S
C836 C837 1.450 . S
C836 C839 1.539 . S
C837 C833 1.396 1_556 S
C837 C836 1.450 . S
C837 H849 0.898 1_556 S
C838 C834 1.524 . S
C838 H850 0.956 . S
C838 H851 0.961 . S
C838 H852 0.961 . S
C839 C836 1.539 . S
C839 H853 0.958 . S
C839 H854 0.961 . S
C839 H855 0.960 . S
H840 C824 0.931 . S
H841 C829 0.929 . S
H842 C830 0.960 . S
H843 C830 0.962 . S
H844 C830 0.960 . S
H845 C831 0.961 . S
H846 C831 0.961 . S
H847 C831 0.961 . S
H848 C832 0.931 . S
H849 C837 0.898 1_554 S
H850 C838 0.956 . S
H851 C838 0.961 . S
H852 C838 0.961 . S
H853 C839 0.958 . S
H854 C839 0.961 . S
H855 C839 0.960 . S
C856 C857 1.391 1_655 S
C856 C858 1.394 . S
C856 H872 0.931 . S
C857 C856 1.391 1_455 S
C857 C861 1.376 . S
C858 C856 1.394 . S
C858 C859 1.369 1_655 S
C858 C862 1.531 . S
C859 C858 1.369 1_455 S
C859 C860 1.410 . S
C859 C867 1.503 . S
C860 C859 1.410 . S
C860 C861 1.392 . S
C860 C863 1.511 . S
C861 C857 1.376 . S
C861 C860 1.392 . S
C861 H873 0.929 . S
C862 C858 1.531 . S
C862 H874 0.960 . S
C862 H875 0.962 . S
C862 H876 0.960 . S
C863 C860 1.511 . S
C863 H877 0.961 . S
C863 H878 0.961 . S
C863 H879 0.961 . S
C864 C865 1.370 . S
C864 C866 1.363 . S
C864 H880 0.931 . S
C865 C864 1.370 . S
C865 C869 1.398 . S
C866 C864 1.363 . S
C866 C867 1.370 . S
C866 C870 1.524 . S
C867 C859 1.503 . S
C867 C866 1.370 . S
C867 C868 1.403 . S
C868 C867 1.403 . S
C868 C869 1.406 . S
C868 C871 1.539 . S
C869 C865 1.398 . S
C869 C868 1.406 . S
C869 H881 0.938 1_455 S
C870 C866 1.524 . S
C870 H882 0.956 1_455 S
C870 H883 0.961 . S
C870 H884 0.961 . S
C871 C868 1.539 . S
C871 H885 0.958 1_455 S
C871 H886 0.961 . S
C871 H887 0.960 . S
H872 C856 0.931 . S
H873 C861 0.929 . S
H874 C862 0.960 . S
H875 C862 0.962 . S
H876 C862 0.960 . S
H877 C863 0.961 . S
H878 C863 0.961 . S
H879 C863 0.961 . S
H880 C864 0.931 . S
H881 C869 0.938 1_655 S
H882 C870 0.956 1_655 S
H883 C870 0.961 . S
H884 C870 0.961 . S
H885 C871 0.958 1_655 S
H886 C871 0.961 . S
H887 C871 0.960 . S
C313 C7 0.630 . S
C321 C303 0.613 . S
C345 C51 1.885 . S
C353 C239 1.817 . S
C377 C87 1.243 . S
C385 C271 1.234 . S
C409 C16 0.428 . S
C417 C297 0.456 . S
C449 C233 1.929 . S
C441 C42 1.977 . S
C481 C265 1.290 . S
C473 C96 1.297 . S
C505 C47 1.223 . S
C513 C175 1.214 . S
C537 C91 3.058 . S
C545 C207 2.982 . S
C569 C2 2.006 . S
C577 C137 1.945 . S
C609 C169 1.290 . S
C601 C56 1.315 . S
C641 C201 2.947 . S
C633 C82 2.974 . S
C665 C11 1.875 . S
C673 C143 1.839 . S
C705 C213 1.741 . S
C697 C19 1.725 . S
C729 C50 1.333 . S
C737 C149 1.348 . S
C761 C99 1.490 . S
C769 C181 1.477 . S
C801 C277 1.449 1_565 S
C793 C59 1.473 . S
C833 C309 1.118 . S
C825 C90 1.076 . S
C857 C10 1.310 . S
C865 C245 1.328 . S
