# Generated by pormake.
# Topology ptr, (4,4)-cn, num edge types: 1
# Building blocks:
#     Node 0, Type 0, BuildingBlock: KUFVIS_clean_sbu_0, # of connection points: 4
#     Node 1, Type 0, BuildingBlock: KUFVIS_clean_sbu_0, # of connection points: 4
#     Node 2, Type 0, BuildingBlock: KUFVIS_clean_sbu_0, # of connection points: 4
#     Node 3, Type 0, BuildingBlock: KUFVIS_clean_sbu_0, # of connection points: 4
#     Node 4, Type 0, BuildingBlock: KUFVIS_clean_sbu_0, # of connection points: 4
#     Node 5, Type 0, BuildingBlock: KUFVIS_clean_sbu_0, # of connection points: 4
#     Node 6, Type 0, BuildingBlock: KUFVIS_clean_sbu_0, # of connection points: 4
#     Node 7, Type 0, BuildingBlock: KUFVIS_clean_sbu_0, # of connection points: 4
#     Node 8, Type 0, BuildingBlock: KUFVIS_clean_sbu_0, # of connection points: 4
#     Node 9, Type 0, BuildingBlock: KUFVIS_clean_sbu_0, # of connection points: 4
#     Node 10, Type 0, BuildingBlock: KUFVIS_clean_sbu_0, # of connection points: 4
#     Node 11, Type 0, BuildingBlock: KUFVIS_clean_sbu_0, # of connection points: 4
#     Node 12, Type 0, BuildingBlock: KUFVIS_clean_sbu_0, # of connection points: 4
#     Node 13, Type 0, BuildingBlock: KUFVIS_clean_sbu_0, # of connection points: 4
#     Node 14, Type 0, BuildingBlock: KUFVIS_clean_sbu_0, # of connection points: 4
#     Node 15, Type 0, BuildingBlock: KUFVIS_clean_sbu_0, # of connection points: 4
#     Node 16, Type 0, BuildingBlock: KUFVIS_clean_sbu_0, # of connection points: 4
#     Node 17, Type 0, BuildingBlock: KUFVIS_clean_sbu_0, # of connection points: 4
#     Node 18, Type 1, BuildingBlock: KUFVIS_clean_linker_0, # of connection points: 4
#     Node 19, Type 1, BuildingBlock: KUFVIS_clean_linker_0, # of connection points: 4
#     Node 20, Type 1, BuildingBlock: KUFVIS_clean_linker_0, # of connection points: 4
#     Node 21, Type 1, BuildingBlock: KUFVIS_clean_linker_0, # of connection points: 4
#     Node 22, Type 1, BuildingBlock: KUFVIS_clean_linker_0, # of connection points: 4
#     Node 23, Type 1, BuildingBlock: KUFVIS_clean_linker_0, # of connection points: 4
#     Node 24, Type 1, BuildingBlock: KUFVIS_clean_linker_0, # of connection points: 4
#     Node 25, Type 1, BuildingBlock: KUFVIS_clean_linker_0, # of connection points: 4
#     Node 26, Type 1, BuildingBlock: KUFVIS_clean_linker_0, # of connection points: 4
#     Node 27, Type 1, BuildingBlock: KUFVIS_clean_linker_0, # of connection points: 4
#     Node 28, Type 1, BuildingBlock: KUFVIS_clean_linker_0, # of connection points: 4
#     Node 29, Type 1, BuildingBlock: KUFVIS_clean_linker_0, # of connection points: 4
#     Node 30, Type 1, BuildingBlock: KUFVIS_clean_linker_0, # of connection points: 4
#     Node 31, Type 1, BuildingBlock: KUFVIS_clean_linker_0, # of connection points: 4
#     Node 32, Type 1, BuildingBlock: KUFVIS_clean_linker_0, # of connection points: 4
#     Node 33, Type 1, BuildingBlock: KUFVIS_clean_linker_0, # of connection points: 4
#     Node 34, Type 1, BuildingBlock: KUFVIS_clean_linker_0, # of connection points: 4
#     Node 35, Type 1, BuildingBlock: KUFVIS_clean_linker_0, # of connection points: 4
#     Edge 36, Type (0, 1), BuildingBlock: ZUJKAS_clean_linker_0, # of connection points: 2
#     Edge 37, Type (0, 1), BuildingBlock: ZUJKAS_clean_linker_0, # of connection points: 2
#     Edge 38, Type (0, 1), BuildingBlock: ZUJKAS_clean_linker_0, # of connection points: 2
#     Edge 39, Type (0, 1), BuildingBlock: ZUJKAS_clean_linker_0, # of connection points: 2
#     Edge 40, Type (0, 1), BuildingBlock: ZUJKAS_clean_linker_0, # of connection points: 2
#     Edge 41, Type (0, 1), BuildingBlock: ZUJKAS_clean_linker_0, # of connection points: 2
#     Edge 42, Type (0, 1), BuildingBlock: ZUJKAS_clean_linker_0, # of connection points: 2
#     Edge 43, Type (0, 1), BuildingBlock: ZUJKAS_clean_linker_0, # of connection points: 2
#     Edge 44, Type (0, 1), BuildingBlock: ZUJKAS_clean_linker_0, # of connection points: 2
#     Edge 45, Type (0, 1), BuildingBlock: ZUJKAS_clean_linker_0, # of connection points: 2
#     Edge 46, Type (0, 1), BuildingBlock: ZUJKAS_clean_linker_0, # of connection points: 2
#     Edge 47, Type (0, 1), BuildingBlock: ZUJKAS_clean_linker_0, # of connection points: 2
#     Edge 48, Type (0, 1), BuildingBlock: ZUJKAS_clean_linker_0, # of connection points: 2
#     Edge 49, Type (0, 1), BuildingBlock: ZUJKAS_clean_linker_0, # of connection points: 2
#     Edge 50, Type (0, 1), BuildingBlock: ZUJKAS_clean_linker_0, # of connection points: 2
#     Edge 51, Type (0, 1), BuildingBlock: ZUJKAS_clean_linker_0, # of connection points: 2
#     Edge 52, Type (0, 1), BuildingBlock: ZUJKAS_clean_linker_0, # of connection points: 2
#     Edge 53, Type (0, 1), BuildingBlock: ZUJKAS_clean_linker_0, # of connection points: 2
#     Edge 54, Type (0, 1), BuildingBlock: ZUJKAS_clean_linker_0, # of connection points: 2
#     Edge 55, Type (0, 1), BuildingBlock: ZUJKAS_clean_linker_0, # of connection points: 2
#     Edge 56, Type (0, 1), BuildingBlock: ZUJKAS_clean_linker_0, # of connection points: 2
#     Edge 57, Type (0, 1), BuildingBlock: ZUJKAS_clean_linker_0, # of connection points: 2
#     Edge 58, Type (0, 1), BuildingBlock: ZUJKAS_clean_linker_0, # of connection points: 2
#     Edge 59, Type (0, 1), BuildingBlock: ZUJKAS_clean_linker_0, # of connection points: 2
#     Edge 60, Type (0, 1), BuildingBlock: ZUJKAS_clean_linker_0, # of connection points: 2
#     Edge 61, Type (0, 1), BuildingBlock: ZUJKAS_clean_linker_0, # of connection points: 2
#     Edge 62, Type (0, 1), BuildingBlock: ZUJKAS_clean_linker_0, # of connection points: 2
#     Edge 63, Type (0, 1), BuildingBlock: ZUJKAS_clean_linker_0, # of connection points: 2
#     Edge 64, Type (0, 1), BuildingBlock: ZUJKAS_clean_linker_0, # of connection points: 2
#     Edge 65, Type (0, 1), BuildingBlock: ZUJKAS_clean_linker_0, # of connection points: 2
#     Edge 66, Type (0, 1), BuildingBlock: ZUJKAS_clean_linker_0, # of connection points: 2
#     Edge 67, Type (0, 1), BuildingBlock: ZUJKAS_clean_linker_0, # of connection points: 2
#     Edge 68, Type (0, 1), BuildingBlock: ZUJKAS_clean_linker_0, # of connection points: 2
#     Edge 69, Type (0, 1), BuildingBlock: ZUJKAS_clean_linker_0, # of connection points: 2
#     Edge 70, Type (0, 1), BuildingBlock: ZUJKAS_clean_linker_0, # of connection points: 2
#     Edge 71, Type (0, 1), BuildingBlock: ZUJKAS_clean_linker_0, # of connection points: 2
#     Edge 72, Type (0, 1), BuildingBlock: ZUJKAS_clean_linker_0, # of connection points: 2
#     Edge 73, Type (0, 1), BuildingBlock: ZUJKAS_clean_linker_0, # of connection points: 2
#     Edge 74, Type (0, 1), BuildingBlock: ZUJKAS_clean_linker_0, # of connection points: 2
#     Edge 75, Type (0, 1), BuildingBlock: ZUJKAS_clean_linker_0, # of connection points: 2
#     Edge 76, Type (0, 1), BuildingBlock: ZUJKAS_clean_linker_0, # of connection points: 2
#     Edge 77, Type (0, 1), BuildingBlock: ZUJKAS_clean_linker_0, # of connection points: 2
#     Edge 78, Type (0, 1), BuildingBlock: ZUJKAS_clean_linker_0, # of connection points: 2
#     Edge 79, Type (0, 1), BuildingBlock: ZUJKAS_clean_linker_0, # of connection points: 2
#     Edge 80, Type (0, 1), BuildingBlock: ZUJKAS_clean_linker_0, # of connection points: 2
#     Edge 81, Type (0, 1), BuildingBlock: ZUJKAS_clean_linker_0, # of connection points: 2
#     Edge 82, Type (0, 1), BuildingBlock: ZUJKAS_clean_linker_0, # of connection points: 2
#     Edge 83, Type (0, 1), BuildingBlock: ZUJKAS_clean_linker_0, # of connection points: 2
#     Edge 84, Type (0, 1), BuildingBlock: ZUJKAS_clean_linker_0, # of connection points: 2
#     Edge 85, Type (0, 1), BuildingBlock: ZUJKAS_clean_linker_0, # of connection points: 2
#     Edge 86, Type (0, 1), BuildingBlock: ZUJKAS_clean_linker_0, # of connection points: 2
#     Edge 87, Type (0, 1), BuildingBlock: ZUJKAS_clean_linker_0, # of connection points: 2
#     Edge 88, Type (0, 1), BuildingBlock: ZUJKAS_clean_linker_0, # of connection points: 2
#     Edge 89, Type (0, 1), BuildingBlock: ZUJKAS_clean_linker_0, # of connection points: 2
#     Edge 90, Type (0, 1), BuildingBlock: ZUJKAS_clean_linker_0, # of connection points: 2
#     Edge 91, Type (0, 1), BuildingBlock: ZUJKAS_clean_linker_0, # of connection points: 2
#     Edge 92, Type (0, 1), BuildingBlock: ZUJKAS_clean_linker_0, # of connection points: 2
#     Edge 93, Type (0, 1), BuildingBlock: ZUJKAS_clean_linker_0, # of connection points: 2
#     Edge 94, Type (0, 1), BuildingBlock: ZUJKAS_clean_linker_0, # of connection points: 2
#     Edge 95, Type (0, 1), BuildingBlock: ZUJKAS_clean_linker_0, # of connection points: 2
#     Edge 96, Type (0, 1), BuildingBlock: ZUJKAS_clean_linker_0, # of connection points: 2
#     Edge 97, Type (0, 1), BuildingBlock: ZUJKAS_clean_linker_0, # of connection points: 2
#     Edge 98, Type (0, 1), BuildingBlock: ZUJKAS_clean_linker_0, # of connection points: 2
#     Edge 99, Type (0, 1), BuildingBlock: ZUJKAS_clean_linker_0, # of connection points: 2
#     Edge 100, Type (0, 1), BuildingBlock: ZUJKAS_clean_linker_0, # of connection points: 2
#     Edge 101, Type (0, 1), BuildingBlock: ZUJKAS_clean_linker_0, # of connection points: 2
#     Edge 102, Type (0, 1), BuildingBlock: ZUJKAS_clean_linker_0, # of connection points: 2
#     Edge 103, Type (0, 1), BuildingBlock: ZUJKAS_clean_linker_0, # of connection points: 2
#     Edge 104, Type (0, 1), BuildingBlock: ZUJKAS_clean_linker_0, # of connection points: 2
#     Edge 105, Type (0, 1), BuildingBlock: ZUJKAS_clean_linker_0, # of connection points: 2
#     Edge 106, Type (0, 1), BuildingBlock: ZUJKAS_clean_linker_0, # of connection points: 2
#     Edge 107, Type (0, 1), BuildingBlock: ZUJKAS_clean_linker_0, # of connection points: 2
# Relax obj value: 0.050
# Max RMSD: 0.133
# Mean RMSD: 0.089
data_MOF--net-ptr--node1-KUFVIS_clean_sbu_0--node2-KUFVIS_clean_linker_0--edge1-ZUJKAS_clean_linker_0
_symmetry_space_group_name_H-M    P1
_symmetry_Int_Tables_number       1
_symmetry_cell_setting            triclinic
loop_
_symmetry_equiv_pos_as_xyz
'x, y, z'
_cell_length_a     101.02376
_cell_length_b     100.62556
_cell_length_c     63.227112
_cell_angle_alpha  89.713632
_cell_angle_beta   90.627617
_cell_angle_gamma 119.54526
loop_
_atom_site_label
_atom_site_type_symbol
_atom_site_fract_x
_atom_site_fract_y
_atom_site_fract_z
_atom_type_partial_charge
Mn0 Mn 1.00575 0.36378 0.00015 0.0
Mn1 Mn 0.03832 0.39647 0.98969 0.0
C2 C 1.0055 0.38178 0.9771 0.0
C3 C 0.98799 0.33803 0.99381 0.0
C4 C 0.01984 0.39217 0.02895 0.0
O5 O 0.02202 0.35875 0.01096 0.0
O6 O 0.04253 0.38126 0.00351 0.0
C7 C 0.04972 0.38336 0.95755 0.0
N8 N 0.04598 0.39411 0.96333 0.0
C9 C 0.05534 0.40769 0.93063 0.0
C10 C 0.05932 0.39679 0.9243 0.0
C11 C 0.05638 0.3845 0.93776 0.0
C12 C 0.04834 0.4057 0.95026 0.0
H13 H 0.0477 0.37404 0.968 0.0
C14 C 0.03641 0.36769 0.01088 0.0
O15 O 0.9891 0.34437 0.01204 0.0
O16 O 0.99764 0.34648 0.97949 0.0
N17 N 0.03673 0.41267 0.97621 0.0
C18 C 0.03238 0.4223 0.98482 0.0
C19 C 0.03483 0.43537 0.9736 0.0
C20 C 0.04217 0.43868 0.95399 0.0
C21 C 0.0467 0.42869 0.94554 0.0
C22 C 0.04373 0.41572 0.95728 0.0
H23 H 0.0272 0.42008 0.00021 0.0
O24 O 0.99316 0.37167 0.98621 0.0
O25 O 0.0177 0.38084 0.98105 0.0
O26 O 0.00985 0.37829 0.02525 0.0
O27 O 0.031 0.40003 0.0167 0.0
C28 C 0.05418 0.4312 0.92601 0.0
C29 C 0.05826 0.42057 0.91839 0.0
H30 H 0.06469 0.39778 0.9092 0.0
H31 H 0.05942 0.37604 0.93301 0.0
H32 H 0.03133 0.44303 0.98024 0.0
H33 H 0.04424 0.44891 0.94553 0.0
H34 H 0.05672 0.4412 0.91661 0.0
H35 H 0.06381 0.42252 0.90323 0.0
Mn36 Mn 0.65361 0.65013 0.01983 0.0
Mn37 Mn 0.65114 0.61615 0.032 0.0
C38 C 0.63436 0.63309 0.04187 0.0
C39 C 0.66289 0.67625 0.0261 0.0
C40 C 0.63883 0.62174 0.99107 0.0
O41 O 0.67446 0.65342 0.0107 0.0
O42 O 0.6712 0.6304 0.01967 0.0
C43 C 0.67424 0.6277 0.06642 0.0
N44 N 0.65993 0.61771 0.05942 0.0
C45 C 0.65337 0.60481 0.09301 0.0
C46 C 0.66807 0.6149 0.10055 0.0
C47 C 0.67853 0.62644 0.08721 0.0
C48 C 0.64973 0.60669 0.07219 0.0
H49 H 0.68232 0.63656 0.0562 0.0
C50 C 0.67924 0.64381 0.01206 0.0
O51 O 0.65793 0.67023 0.00758 0.0
O52 O 0.66317 0.66726 0.04068 0.0
N53 N 0.63261 0.60078 0.04415 0.0
C54 C 0.61891 0.59198 0.03443 0.0
C55 C 0.60728 0.5797 0.04541 0.0
C56 C 0.60982 0.57657 0.06628 0.0
C57 C 0.62408 0.58564 0.07586 0.0
C58 C 0.63535 0.59752 0.06395 0.0
H59 H 0.6169 0.59421 0.01833 0.0
O60 O 0.63327 0.64386 0.0321 0.0
O61 O 0.64702 0.63281 0.03918 0.0
O62 O 0.64313 0.63581 0.99448 0.0
O63 O 0.64145 0.61345 0.00394 0.0
C64 C 0.62754 0.58338 0.09676 0.0
C65 C 0.64215 0.59302 0.10537 0.0
H66 H 0.67143 0.61394 0.11656 0.0
H67 H 0.68989 0.6343 0.09293 0.0
H68 H 0.59637 0.57263 0.03778 0.0
H69 H 0.60077 0.56717 0.07478 0.0
H70 H 0.61902 0.57434 0.10639 0.0
H71 H 0.64464 0.59127 0.12152 0.0
Mn72 Mn 0.36267 0.99973 0.01347 0.0
Mn73 Mn 0.3956 0.03175 0.02601 0.0
C74 C 0.38014 0.99826 0.03613 0.0
C75 C 0.33688 0.98247 0.01975 0.0
C76 C 0.39099 0.01425 0.98515 0.0
O77 O 0.35837 0.01675 0.00381 0.0
O78 O 0.38062 0.03699 0.01351 0.0
C79 C 0.38313 0.04225 0.06022 0.0
N80 N 0.39355 0.0384 0.05344 0.0
C81 C 0.40602 0.0442 0.08748 0.0
C82 C 0.39549 0.04832 0.09479 0.0
C83 C 0.38396 0.04728 0.08111 0.0
C84 C 0.40457 0.03917 0.06654 0.0
H85 H 0.37426 0.04148 0.04976 0.0
C86 C 0.3672 0.03116 0.00559 0.0
O87 O 0.34285 0.98353 0.0013 0.0
O88 O 0.3457 0.99191 0.03416 0.0
N89 N 0.41146 0.02904 0.03847 0.0
C90 C 0.42074 0.02464 0.02898 0.0
C91 C 0.433 0.02522 0.04043 0.0
C92 C 0.43576 0.03055 0.06138 0.0
C93 C 0.42618 0.03519 0.07074 0.0
C94 C 0.41423 0.0345 0.05848 0.0
H95 H 0.41881 0.02073 0.01278 0.0
O96 O 0.36983 0.98623 0.02641 0.0
O97 O 0.37971 0.01085 0.03295 0.0
O98 O 0.37717 1.00404 0.98845 0.0
O99 O 0.39875 0.02527 0.99796 0.0
C100 C 0.428 0.0404 0.09178 0.0
C101 C 0.41786 0.04481 0.10019 0.0
H102 H 0.39611 0.05224 0.11088 0.0
H103 H 0.37575 0.05039 0.08666 0.0
H104 H 0.44036 0.02165 0.03309 0.0
H105 H 0.44528 0.03108 0.07013 0.0
H106 H 0.43707 0.04095 0.10167 0.0
H107 H 0.41928 0.04867 0.11644 0.0
Mn108 Mn 0.01266 0.65137 0.00214 0.0
Mn109 Mn 0.04645 0.65352 0.99154 0.0
C110 C 0.01356 0.63381 0.97926 0.0
C111 C 0.99421 0.65865 0.99531 0.0
C112 C 0.0288 0.6395 0.03177 0.0
O113 O 0.02818 0.67271 0.01292 0.0
O114 O 0.04973 0.67331 0.00277 0.0
C115 C 0.0557 0.67571 0.95628 0.0
N116 N 0.05302 0.66195 0.96401 0.0
C117 C 0.06114 0.65594 0.93156 0.0
C118 C 0.06409 0.67009 0.92329 0.0
C119 C 0.06127 0.67997 0.93567 0.0
C120 C 0.05545 0.65225 0.95212 0.0
H121 H 0.0536 0.68335 0.96579 0.0
C122 C 0.04262 0.6796 0.01085 0.0
O123 O 0.99535 0.65338 0.01362 0.0
O124 O 1.0041 0.66015 0.98121 0.0
N125 N 0.04551 0.63542 0.98045 0.0
C126 C 0.04163 0.62201 0.99055 0.0
C127 C 0.04376 0.61085 0.98037 0.0
C128 C 0.05009 0.61369 0.96009 0.0
C129 C 0.05404 0.62759 0.95001 0.0
C130 C 0.05172 0.6383 0.96097 0.0
H131 H 0.037 0.61985 0.00629 0.0
O132 O 1.00092 0.63097 0.98815 0.0
O133 O 0.02529 0.64711 0.98338 0.0
O134 O 0.01745 0.64136 0.02732 0.0
O135 O 0.04042 0.64423 0.0199 0.0
C136 C 0.06015 0.63122 0.92949 0.0
C137 C 0.06356 0.64532 0.9202 0.0
H138 H 0.06845 0.67345 0.90743 0.0
H139 H 0.06346 0.69089 0.92937 0.0
H140 H 0.04067 0.60015 0.98824 0.0
H141 H 0.05187 0.6051 0.95242 0.0
H142 H 0.06215 0.6232 0.92063 0.0
H143 H 0.06804 0.64789 0.90431 0.0
Mn144 Mn 0.36457 0.36279 0.01549 0.0
Mn145 Mn 0.397 0.3624 0.02864 0.0
C146 C 0.38193 0.38088 0.03886 0.0
C147 C 0.33867 0.3545 0.02143 0.0
C148 C 0.39305 0.37593 0.98759 0.0
O149 O 0.36019 0.34166 0.00524 0.0
O150 O 0.38173 0.34242 0.01656 0.0
C151 C 0.38435 0.33981 0.06337 0.0
N152 N 0.39495 0.35384 0.05625 0.0
C153 C 0.40779 0.36029 0.09003 0.0
C154 C 0.39708 0.34586 0.09769 0.0
C155 C 0.38527 0.33561 0.08432 0.0
C156 C 0.40624 0.36385 0.06905 0.0
H157 H 0.37527 0.3319 0.05313 0.0
C158 C 0.36853 0.33549 0.00788 0.0
O159 O 0.34488 0.35983 0.00319 0.0
O160 O 0.34734 0.35343 0.03581 0.0
N161 N 0.41309 0.38076 0.04071 0.0
C162 C 0.42232 0.39433 0.03102 0.0
C163 C 0.43474 0.40584 0.04222 0.0
C164 C 0.43768 0.4032 0.06313 0.0
C165 C 0.42813 0.3891 0.0727 0.0
C166 C 0.41601 0.37801 0.06069 0.0
H167 H 0.42024 0.39637 0.01487 0.0
O168 O 0.37184 0.38313 0.02914 0.0
O169 O 0.38132 0.36786 0.03524 0.0
O170 O 0.37946 0.37326 0.99087 0.0
O171 O 0.40027 0.37184 0.00036 0.0
C172 C 0.43007 0.38567 0.09375 0.0
C173 C 0.41985 0.37131 0.10245 0.0
H174 H 0.39775 0.34258 0.11383 0.0
H175 H 0.37692 0.32449 0.09014 0.0
H176 H 0.44207 0.4167 0.03473 0.0
H177 H 0.44731 0.41207 0.07169 0.0
H178 H 0.43928 0.39407 0.10346 0.0
H179 H 0.42135 0.36887 0.11873 0.0
Mn180 Mn 0.65748 0.01378 0.00239 0.0
Mn181 Mn 0.62357 0.98316 0.98938 0.0
C182 C 0.64128 0.01673 0.979 0.0
C183 C 0.68368 0.02928 0.99695 0.0
C184 C 0.6296 1.00046 0.03075 0.0
O185 O 0.65963 0.99554 0.01279 0.0
O186 O 0.63784 0.97623 -0.0005 0.0
C187 C 0.63346 0.97231 0.95255 0.0
N188 N 0.62398 0.97681 0.96109 0.0
C189 C 0.61019 0.9724 0.92824 0.0
C190 C 0.61967 0.96751 0.91916 0.0
C191 C 0.6314 0.96754 0.93135 0.0
C192 C 0.61279 0.97701 0.94944 0.0
H193 H 0.64256 0.97244 0.96183 0.0
C194 C 0.65076 0.98137 0.00885 0.0
O195 O 0.67756 0.02879 0.01509 0.0
O196 O 0.6747 0.02018 0.98234 0.0
N197 N 0.60845 0.98787 0.97911 0.0
C198 C 0.6009 0.99377 0.98985 0.0
C199 C 0.58903 0.99488 0.97975 0.0
C200 C 0.58493 0.98975 0.95882 0.0
C201 C 0.59279 0.98363 0.94814 0.0
C202 C 0.60443 0.98269 0.95908 0.0
H203 H 0.60388 0.9976 0.00599 0.0
O204 O 0.65216 0.02845 0.9886 0.0
O205 O 0.64049 1.00362 0.98274 0.0
O206 O 0.64307 0.011 0.02664 0.0
O207 O 0.62173 0.98906 0.01861 0.0
C208 C 0.58972 0.9787 0.92694 0.0
C209 C 0.59846 0.97315 0.91697 0.0
H210 H 0.61814 0.96387 0.9028 0.0
H211 H 0.63885 0.96392 0.9244 0.0
H212 H 0.58304 0.99965 0.98809 0.0
H213 H 0.57578 0.99064 0.95108 0.0
H214 H 0.58084 0.97937 0.91805 0.0
H215 H 0.59617 0.96963 0.90055 0.0
Mn216 Mn 0.66884 0.69326 0.33487 0.0
Mn217 Mn 0.69831 0.72713 0.31929 0.0
C218 C 0.66457 0.7086 0.31147 0.0
C219 C 0.65338 0.6668 0.3308 0.0
C220 C 0.68263 0.7225 0.36157 0.0
O221 O 0.68745 0.69149 0.34386 0.0
O222 O 0.70593 0.71367 0.33066 0.0
C223 C 0.70842 0.71556 0.28349 0.0
N224 N 0.70395 0.72534 0.29114 0.0
C225 C 0.70732 0.73745 0.25719 0.0
C226 C 0.71215 0.72763 0.24901 0.0
C227 C 0.71263 0.71659 0.2622 0.0
C228 C 0.70325 0.73586 0.27852 0.0
H229 H 0.70872 0.70701 0.29356 0.0
C230 C 0.70141 0.70081 0.33991 0.0
O231 O 0.65468 0.67345 0.34885 0.0
O232 O 0.6616 0.67541 0.31544 0.0
N233 N 0.69309 0.74158 0.30768 0.0
C234 C 0.6875 0.74969 0.31775 0.0
C235 C 0.6861 0.76107 0.30669 0.0
C236 C 0.69064 0.76415 0.28549 0.0
C237 C 0.69647 0.75575 0.2755 0.0
C238 C 0.69773 0.74463 0.28738 0.0
H239 H 0.68413 0.74749 0.3341 0.0
O240 O 0.65349 0.69805 0.32222 0.0
O241 O 0.67786 0.70965 0.31418 0.0
O242 O 0.6728 0.70843 0.35893 0.0
O243 O 0.69298 0.73028 0.34812 0.0
C244 C 0.70083 0.75778 0.25412 0.0
C245 C 0.70618 0.74858 0.24494 0.0
H246 H 0.71539 0.72838 0.23258 0.0
H247 H 0.71622 0.70889 0.25596 0.0
H248 H 0.68156 0.76749 0.31449 0.0
H249 H 0.68955 0.77294 0.277 0.0
H250 H 0.69989 0.76623 0.24451 0.0
H251 H 0.70928 0.75009 0.2284 0.0
Mn252 Mn 0.32205 0.98389 0.35201 0.0
Mn253 Mn 0.32287 0.9512 0.3623 0.0
C254 C 0.30426 0.96581 0.37482 0.0
C255 C 0.3301 0.00975 0.35856 0.0
C256 C 0.30842 0.95584 0.32271 0.0
O257 O 0.34305 0.9888 0.34106 0.0
O258 O 0.34235 0.96684 0.3499 0.0
C259 C 0.34634 0.96366 0.3962 0.0
N260 N 0.33225 0.95295 0.38932 0.0
C261 C 0.32709 0.93935 0.42231 0.0
C262 C 0.34159 0.95017 0.42971 0.0
C263 C 0.35122 0.96242 0.41663 0.0
C264 C 0.32282 0.94125 0.40186 0.0
H265 H 0.35379 0.97307 0.38618 0.0
C266 C 0.34917 0.98034 0.34221 0.0
O267 O 0.32458 1.00349 0.34033 0.0
O268 O 0.33144 1.00112 0.37279 0.0
N269 N 0.30511 0.93467 0.37446 0.0
C270 C 0.29146 0.92527 0.36496 0.0
C271 C 0.28063 0.91227 0.37573 0.0
C272 C 0.28391 0.90905 0.39615 0.0
C273 C 0.29808 0.91878 0.40552 0.0
C274 C 0.30855 0.93139 0.39382 0.0
H275 H 0.28892 0.92757 0.34919 0.0
O276 O 0.30194 0.97614 0.36596 0.0
O277 O 0.3173 0.96664 0.37084 0.0
O278 O 0.31142 0.96945 0.32694 0.0
O279 O 0.31259 0.9482 0.33454 0.0
C280 C 0.3022 0.91649 0.42601 0.0
C281 C 0.31666 0.92683 0.43446 0.0
H282 H 0.3454 0.94923 0.44544 0.0
H283 H 0.3624 0.97085 0.42226 0.0
H284 H 0.26978 0.90473 0.36828 0.0
H285 H 0.27547 0.89907 0.40448 0.0
H286 H 0.2943 0.90689 0.43547 0.0
H287 H 0.31965 0.92505 0.45031 0.0
Mn288 Mn 0.03051 0.33398 0.34559 0.0
Mn289 Mn 0.06393 0.36565 0.35753 0.0
C290 C 0.04763 0.33236 0.36881 0.0
C291 C 1.00457 0.31729 0.35208 0.0
C292 C 0.05896 0.34731 0.31743 0.0
O293 O 0.02681 0.35125 0.33508 0.0
O294 O 0.04947 0.37119 0.34405 0.0
C295 C 0.0518 0.37741 0.39054 0.0
N296 N 0.06197 0.37303 0.38445 0.0
C297 C 0.07421 0.37921 0.41864 0.0
C298 C 0.06394 0.38388 0.42526 0.0
C299 C 0.05265 0.38292 0.41116 0.0
C300 C 0.07275 0.37372 0.39796 0.0
H301 H 0.04312 0.37671 0.37976 0.0
C302 C 0.03608 0.36561 0.3361 0.0
O303 O 0.0105 0.31784 0.33375 0.0
O304 O 0.01352 0.32693 0.3662 0.0
N305 N 0.07938 0.36266 0.37079 0.0
C306 C 0.08846 0.35776 0.36192 0.0
C307 C 0.1005 0.35822 0.37383 0.0
C308 C 0.10324 0.36395 0.39458 0.0
C309 C 0.09389 0.36911 0.40328 0.0
C310 C 0.08216 0.36851 0.39059 0.0
H311 H 0.08655 0.35355 0.34588 0.0
O312 O 0.03714 0.32031 0.35934 0.0
O313 O 0.04759 0.34509 0.36502 0.0
O314 O 0.04499 0.33749 0.32072 0.0
O315 O 0.06694 0.35838 0.33003 0.0
C316 C 0.09571 0.37477 0.42407 0.0
C317 C 0.08581 0.37972 0.43179 0.0
H318 H 0.06457 0.38817 0.44113 0.0
H319 H 0.04464 0.38645 0.41617 0.0
H320 H 0.1077 0.35425 0.367 0.0
H321 H 0.1126 0.3644 0.40368 0.0
H322 H 0.10461 0.37525 0.4343 0.0
H323 H 0.08724 0.38393 0.44786 0.0
Mn324 Mn 0.67876 0.98481 0.33697 0.0
Mn325 Mn 0.71303 0.98814 0.326 0.0
C326 C 0.68014 0.96742 0.3143 0.0
C327 C 0.65941 0.99086 0.33038 0.0
C328 C 0.69567 0.97334 0.36603 0.0
O329 O 0.69369 0.00648 0.34738 0.0
O330 O 0.71551 0.00724 0.33858 0.0
C331 C 0.72153 0.01131 0.29215 0.0
N332 N 0.71944 0.99754 0.29892 0.0
C333 C 0.72776 0.99295 0.26562 0.0
C334 C 0.7301 0.00712 0.25832 0.0
C335 C 0.7269 0.01631 0.27162 0.0
C336 C 0.7223 0.98854 0.28618 0.0
H337 H 0.71912 0.01842 0.30234 0.0
C338 C 0.70819 0.01343 0.34626 0.0
O339 O 0.66101 0.98592 0.3487 0.0
O340 O 0.66938 0.99284 0.31616 0.0
N341 N 0.71308 0.97087 0.31365 0.0
C342 C 0.71011 0.95748 0.32307 0.0
C343 C 0.71298 0.94711 0.31205 0.0
C344 C 0.71889 0.9506 0.2915 0.0
C345 C 0.72202 0.96451 0.28223 0.0
C346 C 0.71922 0.97454 0.29414 0.0
H347 H 0.70572 0.95479 0.33894 0.0
O348 O 0.66751 0.96427 0.32346 0.0
O349 O 0.69165 0.98101 0.31795 0.0
O350 O 0.68435 0.97539 0.36214 0.0
O351 O 0.70708 0.97796 0.35378 0.0
C352 C 0.72775 0.9688 0.2616 0.0
C353 C 0.73052 0.98296 0.25326 0.0
H354 H 0.73426 0.01102 0.24251 0.0
H355 H 0.72862 0.02724 0.26608 0.0
H356 H 0.71067 0.93645 0.31941 0.0
H357 H 0.72098 0.94251 0.28298 0.0
H358 H 0.72993 0.96123 0.25197 0.0
H359 H 0.73477 0.98607 0.2373 0.0
Mn360 Mn 0.02974 0.69638 0.34872 0.0
Mn361 Mn 0.06206 0.69578 0.36176 0.0
C362 C 0.04746 0.71497 0.37122 0.0
C363 C 1.00398 0.68855 0.35466 0.0
C364 C 0.05804 0.70895 0.3205 0.0
O365 O 0.0249 0.67496 0.33939 0.0
O366 O 0.04663 0.67581 0.34973 0.0
C367 C 0.04926 0.67327 0.39657 0.0
N368 N 0.05996 0.68723 0.38939 0.0
C369 C 0.07299 0.69354 0.42303 0.0
C370 C 0.06217 0.67919 0.43076 0.0
C371 C 0.05022 0.66904 0.41748 0.0
C372 C 0.07142 0.69713 0.40207 0.0
H373 H 0.04008 0.66543 0.3864 0.0
C374 C 0.03326 0.66879 0.34157 0.0
O375 O 0.01012 0.6934 0.33627 0.0
O376 O 0.01264 0.6877 0.36928 0.0
N377 N 0.07832 0.71403 0.37372 0.0
C378 C 0.08762 0.72755 0.36397 0.0
C379 C 0.10019 0.73894 0.37504 0.0
C380 C 0.10313 0.73631 0.39596 0.0
C381 C 0.09352 0.72225 0.40558 0.0
C382 C 0.0813 0.71123 0.39365 0.0
H383 H 0.08551 0.7296 0.34784 0.0
O384 O 0.0373 0.717 0.3613 0.0
O385 O 0.04667 0.70174 0.36841 0.0
O386 O 0.04441 0.70616 0.32371 0.0
O387 O 0.06539 0.70516 0.33347 0.0
C388 C 0.09549 0.71879 0.4266 0.0
C389 C 0.08518 0.70447 0.43536 0.0
H390 H 0.06287 0.67588 0.44688 0.0
H391 H 0.04179 0.65797 0.42335 0.0
H392 H 0.10762 0.74972 0.36743 0.0
H393 H 0.11278 0.74518 0.4045 0.0
H394 H 0.10479 0.72712 0.43624 0.0
H395 H 0.08671 0.70201 0.45161 0.0
Mn396 Mn 0.31932 0.34266 0.33458 0.0
Mn397 Mn 0.28721 0.30946 0.32375 0.0
C398 C 0.30114 0.34234 0.31138 0.0
C399 C 0.34483 0.36085 0.32854 0.0
C400 C 0.29111 0.32803 0.36309 0.0
O401 O 0.32483 0.32671 0.34543 0.0
O402 O 0.30268 0.30572 0.33771 0.0
C403 C 0.30068 0.29846 0.29165 0.0
N404 N 0.28975 0.30189 0.29737 0.0
C405 C 0.2763 0.2923 0.26444 0.0
C406 C 0.28738 0.28862 0.25818 0.0
C407 C 0.29969 0.29183 0.27179 0.0
C408 C 0.27813 0.29928 0.28417 0.0
H409 H 0.31002 0.30068 0.30221 0.0
C410 C 0.31621 0.31223 0.34527 0.0
O411 O 0.33849 0.3597 0.34669 0.0
O412 O 0.33652 0.35102 0.31412 0.0
N413 N 0.27081 0.31059 0.31017 0.0
C414 C 0.26097 0.31462 0.31876 0.0
C415 C 0.24786 0.31188 0.30739 0.0
C416 C 0.24473 0.30457 0.28765 0.0
C417 C 0.25491 0.30034 0.27924 0.0
C418 C 0.26792 0.30359 0.29113 0.0
H419 H 0.26305 0.31977 0.33425 0.0
O420 O 0.31104 0.35488 0.32058 0.0
O421 O 0.3024 0.33029 0.31533 0.0
O422 O 0.30482 0.33834 0.3595 0.0
O423 O 0.28349 0.31668 0.35078 0.0
C424 C 0.25258 0.29287 0.2596 0.0
C425 C 0.2634 0.28909 0.25205 0.0
H426 H 0.28652 0.28328 0.24301 0.0
H427 H 0.30829 0.28902 0.26708 0.0
H428 H 0.24004 0.31514 0.31401 0.0
H429 H 0.23447 0.30226 0.27907 0.0
H430 H 0.24257 0.29011 0.25009 0.0
H431 H 0.26157 0.28355 0.23681 0.0
Mn432 Mn 0.34001 0.02781 0.66878 0.0
Mn433 Mn 0.37201 0.06 0.65443 0.0
C434 C 0.33825 0.04527 0.6465 0.0
C435 C 0.32192 1.00199 0.66372 0.0
C436 C 0.35641 0.05678 0.69624 0.0
O437 O 0.35678 0.02294 0.67723 0.0
O438 O 0.37701 0.04487 0.66691 0.0
C439 C 0.3806 0.04605 0.61986 0.0
N440 N 0.37755 0.05705 0.62676 0.0
C441 C 0.38301 0.06911 0.59258 0.0
C442 C 0.38631 0.05797 0.58512 0.0
C443 C 0.38504 0.04636 0.59881 0.0
C444 C 0.37858 0.06817 0.61367 0.0
H445 H 0.37966 0.03713 0.63034 0.0
C446 C 0.37112 0.03154 0.67511 0.0
O447 O 0.32403 0.00851 0.68207 0.0
O448 O 0.33078 0.01028 0.64861 0.0
N449 N 0.36962 0.07605 0.64202 0.0
C450 C 0.36598 0.08588 0.65168 0.0
C451 C 0.36695 0.09833 0.64031 0.0
C452 C 0.37165 0.10057 0.61913 0.0
C453 C 0.37554 0.09044 0.60961 0.0
C454 C 0.37466 0.07841 0.62188 0.0
H455 H 0.36249 0.08432 0.668 0.0
O456 O 0.32658 0.03535 0.65701 0.0
O457 O 0.35069 0.04442 0.64862 0.0
O458 O 0.34585 0.04295 0.69358 0.0
O459 O 0.36683 0.06411 0.68269 0.0
C460 C 0.38019 0.09175 0.58842 0.0
C461 C 0.38384 0.08104 0.57987 0.0
H462 H 0.38975 0.05817 0.5689 0.0
H463 H 0.3875 0.03768 0.59316 0.0
H464 H 0.36411 0.10621 0.64788 0.0
H465 H 0.37224 0.11012 0.61035 0.0
H466 H 0.38089 0.10088 0.5785 0.0
H467 H 0.38726 0.08208 0.56349 0.0
Mn468 Mn 0.98829 0.31834 0.68282 0.0
Mn469 Mn 0.98826 0.28545 0.69472 0.0
C470 C 0.97033 0.30092 0.70589 0.0
C471 C 0.9967 0.34429 0.68898 0.0
C472 C 0.97437 0.28984 0.65434 0.0
O473 O 0.00919 0.32265 0.67246 0.0
O474 O 1.00797 0.30057 0.68219 0.0
C475 C 0.01162 0.29799 0.72875 0.0
N476 N 0.99742 0.28748 0.72199 0.0
C477 C 0.99165 0.27474 0.7557 0.0
C478 C 1.00625 0.28537 0.76299 0.0
C479 C 0.01626 0.29708 0.74948 0.0
C480 C 0.98765 0.27627 0.73492 0.0
H481 H 0.01935 0.30701 0.71842 0.0
C482 C 0.01505 0.31398 0.67417 0.0
O483 O 0.99125 0.33802 0.67071 0.0
O484 O 0.99782 0.33564 0.70335 0.0
N485 N 0.97017 0.26947 0.70716 0.0
C486 C 0.9564 0.26027 0.69783 0.0
C487 C 0.94511 0.24792 0.7092 0.0
C488 C 0.94817 0.24501 0.7299 0.0
C489 C 0.96246 0.25451 0.7391 0.0
C490 C 0.97332 0.26656 0.72694 0.0
H491 H 0.95403 0.26234 0.68184 0.0
O492 O 0.96815 0.31115 0.69646 0.0
O493 O 0.98323 0.3014 0.70218 0.0
O494 O 0.97765 0.30363 0.65794 0.0
O495 O 0.97817 0.28221 0.6668 0.0
C496 C 0.96632 0.25259 0.75994 0.0
C497 C 0.98087 0.26275 0.76827 0.0
H498 H 0.00988 0.28469 0.77895 0.0
H499 H 0.02752 0.30537 0.75501 0.0
H500 H 0.9341 0.24064 0.70199 0.0
H501 H 0.93945 0.23546 0.73861 0.0
H502 H 0.95812 0.24344 0.76976 0.0
H503 H 0.98365 0.26127 0.78439 0.0
Mn504 Mn 0.69887 0.66959 0.67879 0.0
Mn505 Mn 0.73087 0.70416 0.68145 0.0
C506 C 0.71906 0.67322 0.70099 0.0
C507 C 0.67396 0.65165 0.68904 0.0
C508 C 0.72448 0.68167 0.64596 0.0
O509 O 0.69191 0.68387 0.66524 0.0
O510 O 0.71382 0.70596 0.6691 0.0
C511 C 0.72019 0.71809 0.71337 0.0
N512 N 0.73076 0.71443 0.70668 0.0
C513 C 0.74774 0.7284 0.73532 0.0
C514 C 0.73705 0.73234 0.74257 0.0
C515 C 0.72316 0.72705 0.73164 0.0
C516 C 0.74394 0.71907 0.71741 0.0
H517 H 0.70965 0.71429 0.70473 0.0
C518 C 0.69992 0.69837 0.66315 0.0
O519 O 0.67934 0.65108 0.67075 0.0
O520 O 0.68289 0.66299 0.70124 0.0
N521 N 0.74876 0.70485 0.69287 0.0
C522 C 0.75778 0.69997 0.68379 0.0
C523 C 0.77234 0.70474 0.6922 0.0
C524 C 0.77761 0.71475 0.70954 0.0
C525 C 0.76806 0.71948 0.71881 0.0
C526 C 0.75365 0.7143 0.70978 0.0
H527 H 0.75402 0.69274 0.66994 0.0
O528 O 0.70887 0.65966 0.69486 0.0
O529 O 0.71697 0.68437 0.69461 0.0
O530 O 0.71163 0.67129 0.65271 0.0
O531 O 0.73234 0.69449 0.65524 0.0
C532 C 0.77235 0.7293 0.73646 0.0
C533 C 0.7621 0.73353 0.74495 0.0
H534 H 0.73942 0.73946 0.75645 0.0
H535 H 0.71486 0.73005 0.73711 0.0
H536 H 0.77962 0.70098 0.68505 0.0
H537 H 0.78899 0.71866 0.7157 0.0
H538 H 0.78347 0.73357 0.74374 0.0
H539 H 0.76545 0.74091 0.7587 0.0
Mn540 Mn 0.34389 0.31683 0.67118 0.0
Mn541 Mn 0.37709 0.31751 0.66093 0.0
C542 C 0.34411 0.29886 0.6483 0.0
C543 C 0.32576 0.32453 0.66444 0.0
C544 C 0.35872 0.30326 0.70048 0.0
O545 O 0.35982 0.33808 0.68193 0.0
O546 O 0.38084 0.33705 0.67364 0.0
C547 C 0.38762 0.34116 0.62746 0.0
N548 N 0.38442 0.32699 0.6341 0.0
C549 C 0.39271 0.3219 0.6011 0.0
C550 C 0.39619 0.33647 0.59395 0.0
C551 C 0.39357 0.34611 0.60716 0.0
C552 C 0.38673 0.31757 0.62144 0.0
H553 H 0.38565 0.34861 0.63757 0.0
C554 C 0.37428 0.34409 0.68106 0.0
O555 O 0.32687 0.31924 0.68273 0.0
O556 O 0.3356 0.32594 0.6503 0.0
N557 N 0.37591 0.29969 0.64845 0.0
C558 C 0.37175 0.28592 0.65763 0.0
C559 C 0.3739 0.27506 0.64669 0.0
C560 C 0.38029 0.27842 0.6264 0.0
C561 C 0.38461 0.2927 0.61734 0.0
C562 C 0.3825 0.30321 0.62921 0.0
H563 H 0.36694 0.28329 0.67327 0.0
O564 O 0.33166 0.29649 0.65731 0.0
O565 O 0.35617 0.31199 0.6523 0.0
O566 O 0.34822 0.30649 0.6964 0.0
O567 O 0.37016 0.30713 0.68848 0.0
C568 C 0.39085 0.2969 0.59697 0.0
C569 C 0.3948 0.31146 0.5888 0.0
H570 H 0.40079 0.34034 0.57831 0.0
H571 H 0.39617 0.35735 0.60172 0.0
H572 H 0.37067 0.26411 0.65389 0.0
H573 H 0.3818 0.26994 0.61792 0.0
H574 H 0.39252 0.28897 0.58737 0.0
H575 H 0.39943 0.31449 0.57302 0.0
Mn576 Mn 0.69684 0.02939 0.6806 0.0
Mn577 Mn 0.72883 0.02779 0.69225 0.0
C578 C 0.71513 0.0476 0.70295 0.0
C579 C 0.67127 0.02191 0.68755 0.0
C580 C 0.72474 0.04161 0.65162 0.0
O581 O 0.69139 0.00792 0.67064 0.0
O582 O 0.7129 0.00806 0.68026 0.0
C583 C 0.71597 1.00514 0.72688 0.0
N584 N 0.72684 0.01902 0.7197 0.0
C585 C 0.74024 0.02485 0.75305 0.0
C586 C 0.72924 0.01058 0.76077 0.0
C587 C 0.71702 1.00071 0.74765 0.0
C588 C 0.73855 0.02866 0.73225 0.0
H589 H 0.70658 0.99752 0.71684 0.0
C590 C 0.69944 1.00139 0.67237 0.0
O591 O 0.67715 0.0269 0.66906 0.0
O592 O 0.68008 0.0208 0.70167 0.0
N593 N 0.74555 0.04574 0.70411 0.0
C594 C 0.75506 0.05918 0.69435 0.0
C595 C 0.76796 0.07025 0.70522 0.0
C596 C 0.771 0.06739 0.72597 0.0
C597 C 0.76116 0.05342 0.73561 0.0
C598 C 0.74861 0.0427 0.72386 0.0
H599 H 0.75288 0.06141 0.67833 0.0
O600 O 0.705 0.04998 0.69364 0.0
O601 O 0.71396 0.03425 0.69969 0.0
O602 O 0.71128 0.03918 0.65532 0.0
O603 O 0.732 0.03739 0.66411 0.0
C604 C 0.76323 0.04974 0.75647 0.0
C605 C 0.75272 0.0355 0.76523 0.0
H606 H 0.73001 0.00711 0.77678 0.0
H607 H 0.70845 0.9897 0.75352 0.0
H608 H 0.77557 0.08097 0.69759 0.0
H609 H 0.78092 0.07601 0.73436 0.0
H610 H 0.77278 0.05784 0.76598 0.0
H611 H 0.75434 0.03286 0.78135 0.0
Mn612 Mn 0.98596 0.67775 0.66748 0.0
Mn613 Mn 0.95366 0.64612 0.65193 0.0
C614 C 0.96899 0.67992 0.64466 0.0
C615 C 0.01189 0.69534 0.66265 0.0
C616 C 0.95689 0.66156 0.6942 0.0
O617 O 0.99024 0.66052 0.67595 0.0
O618 O 0.96835 0.6406 0.6645 0.0
C619 C 0.96737 0.63722 0.6175 0.0
N620 N 0.95665 0.64068 0.6242 0.0
C621 C 0.94476 0.63543 0.5898 0.0
C622 C 0.95562 0.63173 0.58253 0.0
C623 C 0.96702 0.63272 0.59642 0.0
C624 C 0.94581 0.64005 0.61088 0.0
H625 H 0.97608 0.63785 0.62817 0.0
C626 C 0.98151 0.64619 0.67317 0.0
O627 O 1.0055 0.69356 0.68096 0.0
O628 O 1.00338 0.68649 0.64754 0.0
N629 N 0.93807 0.64913 0.63925 0.0
C630 C 0.92846 0.65309 0.64875 0.0
C631 C 0.91642 0.65276 0.637 0.0
C632 C 0.91414 0.64797 0.61579 0.0
C633 C 0.92395 0.6436 0.6065 0.0
C634 C 0.93582 0.64429 0.61894 0.0
H635 H 0.92998 0.65649 0.66516 0.0
O636 O 0.97891 0.69159 0.65542 0.0
O637 O 0.96954 0.66733 0.64694 0.0
O638 O 0.97072 0.67213 0.69198 0.0
O639 O 0.94959 0.65125 0.68028 0.0
C640 C 0.9224 0.63855 0.58539 0.0
C641 C 0.93291 0.63464 0.57698 0.0
H642 H 0.95532 0.62814 0.56633 0.0
H643 H 0.97546 0.62992 0.59093 0.0
H644 H 0.90884 0.65606 0.64432 0.0
H645 H 0.9048 0.64766 0.60682 0.0
H646 H 0.91322 0.6377 0.57544 0.0
H647 H 0.93171 0.63097 0.56066 0.0
H648 H 0.22759 0.3542 0.12885 0.0
H649 H 0.1855 0.33904 0.09533 0.0
H650 H 0.19022 0.3536 0.16079 0.0
H651 H 0.16624 0.33665 0.16261 0.0
H652 H 0.1264 0.33177 0.13144 0.0
H653 H 0.16673 0.3455 0.09526 0.0
C654 C 0.21604 0.35229 0.12858 0.0
C655 C 0.20972 0.35422 0.14707 0.0
C656 C 0.2075 0.34714 0.1099 0.0
C657 C 0.19214 0.34363 0.10967 0.0
C658 C 0.18543 0.34569 0.12813 0.0
C659 C 0.19465 0.35137 0.14656 0.0
C660 C 0.16886 0.34152 0.12873 0.0
C661 C 0.16084 0.33739 0.14814 0.0
C662 C 0.14561 0.33402 0.14922 0.0
C663 C 0.13804 0.33399 0.13062 0.0
C664 C 0.14546 0.33785 0.11116 0.0
C665 C 0.16095 0.3419 0.11025 0.0
H666 H 0.67391 0.88522 0.13256 0.0
H667 H 0.66325 0.84472 0.09745 0.0
H668 H 0.67808 0.84944 0.163 0.0
H669 H 0.6616 0.8246 0.16325 0.0
H670 H 0.66292 0.78777 0.13202 0.0
H671 H 0.67394 0.82861 0.09705 0.0
C672 C 0.67328 0.87414 0.13178 0.0
C673 C 0.67642 0.86817 0.14989 0.0
C674 C 0.66864 0.86585 0.11289 0.0
C675 C 0.66732 0.85125 0.11194 0.0
C676 C 0.67047 0.84489 0.1301 0.0
C677 C 0.67523 0.8537 0.14893 0.0
C678 C 0.66812 0.82889 0.13008 0.0
C679 C 0.66378 0.82016 0.14895 0.0
C680 C 0.66203 0.80547 0.14962 0.0
C681 C 0.66419 0.79913 0.13136 0.0
C682 C 0.66838 0.80733 0.11241 0.0
C683 C 0.67036 0.82222 0.11168 0.0
H684 H 0.22442 0.88422 0.138 0.0
H685 H 0.18952 0.8465 0.10366 0.0
H686 H 0.18371 0.85335 0.17005 0.0
H687 H 0.16829 0.8292 0.17104 0.0
H688 H 0.12803 0.79742 0.13797 0.0
H689 H 0.16486 0.83206 0.10273 0.0
C690 C 0.21323 0.87413 0.13768 0.0
C691 C 0.20472 0.86943 0.15618 0.0
C692 C 0.2077 0.86607 0.11877 0.0
C693 C 0.19331 0.85277 0.11835 0.0
C694 C 0.1843 0.84754 0.13692 0.0
C695 C 0.19026 0.85632 0.1557 0.0
C696 C 0.1688 0.8332 0.13694 0.0
C697 C 0.16213 0.82558 0.15621 0.0
C698 C 0.14726 0.81308 0.15668 0.0
C699 C 0.13925 0.80748 0.13773 0.0
C700 C 0.14575 0.814 0.11835 0.0
C701 C 0.16037 0.82695 0.11792 0.0
H702 H 0.33859 0.12283 0.88442 0.0
H703 H 0.3368 0.15782 0.92035 0.0
H704 H 0.34541 0.16313 0.85273 0.0
H705 H 0.33569 0.17761 0.85266 0.0
H706 H 0.33994 0.21633 0.88576 0.0
H707 H 0.34494 0.18242 0.92039 0.0
C708 C 0.33899 0.1338 0.88498 0.0
C709 C 0.34142 0.14215 0.86639 0.0
C710 C 0.33774 0.13957 0.90443 0.0
C711 C 0.33837 0.15388 0.90521 0.0
C712 C 0.34062 0.16265 0.88647 0.0
C713 C 0.34278 0.1567 0.86728 0.0
C714 C 0.34042 0.17765 0.88656 0.0
C715 C 0.33793 0.18368 0.86745 0.0
C716 C 0.33796 0.19765 0.86706 0.0
C717 C 0.33979 0.20546 0.88596 0.0
C718 C 0.34203 0.19986 0.9051 0.0
C719 C 0.34261 0.18615 0.90545 0.0
H720 H 0.79736 0.128 0.88509 0.0
H721 H 0.83375 0.16435 0.91955 0.0
H722 H 0.82958 0.16752 0.85147 0.0
H723 H 0.85407 0.18162 0.85227 0.0
H724 H 0.88612 0.22276 0.88339 0.0
H725 H 0.84793 0.18946 0.91811 0.0
C726 C 0.80763 0.13907 0.88512 0.0
C727 C 0.8131 0.14682 0.86604 0.0
C728 C 0.81483 0.14547 0.90434 0.0
C729 C 0.82807 0.1599 0.90455 0.0
C730 C 0.83401 0.16814 0.88544 0.0
C731 C 0.82594 0.1615 0.86633 0.0
C732 C 0.84863 0.18334 0.88516 0.0
C733 C 0.85734 0.18858 0.86639 0.0
C734 C 0.87076 0.20278 0.86568 0.0
C735 C 0.87578 0.21175 0.88389 0.0
C736 C 0.86775 0.2069 0.90277 0.0
C737 C 0.85417 0.19276 0.90346 0.0
H738 H 0.79655 0.67 0.88951 0.0
H739 H 0.83009 0.66388 0.92306 0.0
H740 H 0.83434 0.67327 0.85553 0.0
H741 H 0.84723 0.66154 0.85504 0.0
H742 H 0.88694 0.66603 0.88612 0.0
H743 H 0.85479 0.67222 0.92216 0.0
C744 C 0.80721 0.66984 0.88935 0.0
C745 C 0.81468 0.67155 0.87025 0.0
C746 C 0.81297 0.66758 0.90836 0.0
C747 C 0.82625 0.66631 0.90827 0.0
C748 C 0.83432 0.66816 0.88917 0.0
C749 C 0.82835 0.67105 0.87031 0.0
C750 C 0.84885 0.66722 0.88866 0.0
C751 C 0.85394 0.66409 0.86941 0.0
C752 C 0.86768 0.6638 0.86841 0.0
C753 C 0.87629 0.66621 0.88683 0.0
C754 C 0.87157 0.66899 0.90615 0.0
C755 C 0.85794 0.66958 0.90713 0.0
H756 H 0.89215 0.68497 0.46217 0.0
H757 H 0.8518 0.67503 0.42695 0.0
H758 H 0.85561 0.6866 0.4935 0.0
H759 H 0.83064 0.66913 0.49239 0.0
H760 H 0.79525 0.67415 0.46218 0.0
H761 H 0.83621 0.68641 0.42824 0.0
C762 C 0.88097 0.684 0.46164 0.0
C763 C 0.87477 0.68618 0.48008 0.0
C764 C 0.87288 0.68019 0.4425 0.0
C765 C 0.85812 0.67835 0.44173 0.0
C766 C 0.85147 0.68033 0.46025 0.0
C767 C 0.86013 0.68448 0.47925 0.0
C768 C 0.83555 0.67795 0.46019 0.0
C769 C 0.82649 0.67241 0.47858 0.0
C770 C 0.81196 0.67099 0.47936 0.0
C771 C 0.80632 0.67488 0.46153 0.0
C772 C 0.81491 0.68036 0.44314 0.0
C773 C 0.82947 0.68176 0.44234 0.0
H774 H 0.34641 0.22088 0.46435 0.0
H775 H 0.33903 0.18183 0.42864 0.0
H776 H 0.34548 0.18325 0.49692 0.0
H777 H 0.33451 0.15911 0.49565 0.0
H778 H 0.33899 0.12465 0.46287 0.0
H779 H 0.34564 0.16419 0.42873 0.0
C780 C 0.34544 0.20965 0.46395 0.0
C781 C 0.34571 0.20256 0.48282 0.0
C782 C 0.34338 0.20235 0.44452 0.0
C783 C 0.34122 0.18742 0.44385 0.0
C784 C 0.34193 0.17999 0.46268 0.0
C785 C 0.34432 0.18798 0.48212 0.0
C786 C 0.34043 0.16421 0.46227 0.0
C787 C 0.33703 0.15533 0.48106 0.0
C788 C 0.33716 0.14145 0.48151 0.0
C789 C 0.33943 0.13565 0.46276 0.0
C790 C 0.34212 0.14363 0.44377 0.0
C791 C 0.34285 0.15798 0.44349 0.0
H792 H 0.88764 0.22168 0.46877 0.0
H793 H 0.85397 0.18306 0.43437 0.0
H794 H 0.84991 0.18699 0.5022 0.0
H795 H 0.8351 0.16289 0.50211 0.0
H796 H 0.79422 0.13127 0.47021 0.0
H797 H 0.82941 0.16745 0.43461 0.0
C798 C 0.87697 0.21097 0.46862 0.0
C799 C 0.86951 0.20484 0.48761 0.0
C800 C 0.87128 0.2033 0.44948 0.0
C801 C 0.85783 0.18899 0.4493 0.0
C802 C 0.84958 0.18261 0.46828 0.0
C803 C 0.85576 0.19092 0.48735 0.0
C804 C 0.83451 0.16773 0.4684 0.0
C805 C 0.82857 0.1595 0.48756 0.0
C806 C 0.81386 0.14676 0.48835 0.0
C807 C 0.80536 0.14145 0.46973 0.0
C808 C 0.8111 0.14859 0.45038 0.0
C809 C 0.82555 0.1618 0.44968 0.0
H810 H 1.00387 0.45765 0.21768 0.0
H811 H 0.01217 0.49703 0.25361 0.0
H812 H 1.00241 0.49446 0.18614 0.0
H813 H 0.0146 0.51895 0.187 0.0
H814 H 1.00838 0.55251 0.21944 0.0
H815 H 1.00383 0.51379 0.25398 0.0
C816 C 1.00461 0.46878 0.21834 0.0
C817 C 1.00323 0.47551 0.19973 0.0
C818 C 1.00756 0.47634 0.23772 0.0
C819 C 0.00937 0.49117 0.23855 0.0
C820 C 1.00759 0.49821 0.21997 0.0
C821 C 1.00437 0.48997 0.20066 0.0
C822 C 1.00876 0.51383 0.22038 0.0
C823 C 0.01186 0.52261 0.20154 0.0
C824 C 0.01113 0.53619 0.20099 0.0
C825 C 1.00846 0.54175 0.21967 0.0
C826 C 1.00627 0.53397 0.23878 0.0
C827 C 1.00622 0.51993 0.23917 0.0
H828 H 0.45911 0.46375 0.21899 0.0
H829 H 0.49095 0.50271 0.25455 0.0
H830 H 0.49972 0.49704 0.18896 0.0
H831 H 0.51321 0.52146 0.18826 0.0
H832 H 0.55012 0.55656 0.22328 0.0
H833 H 0.51553 0.51841 0.25673 0.0
C834 C 0.46987 0.47435 0.21979 0.0
C835 C 0.47888 0.47973 0.20179 0.0
C836 C 0.47432 0.48244 0.2388 0.0
C837 C 0.48805 0.49643 0.23984 0.0
C838 C 0.49752 0.50231 0.22181 0.0
C839 C 0.49273 0.49351 0.20291 0.0
C840 C 0.51216 0.51752 0.22241 0.0
C841 C 0.51871 0.52565 0.20342 0.0
C842 C 0.53267 0.53935 0.20364 0.0
C843 C 0.53959 0.54571 0.223 0.0
C844 C 0.53322 0.53842 0.24205 0.0
C845 C 0.51982 0.52413 0.2418 0.0
H846 H 0.46529 0.00664 0.2128 0.0
H847 H 0.50144 0.00898 0.25178 0.0
H848 H 0.49869 0.99824 0.18487 0.0
H849 H 0.52356 0.01109 0.18696 0.0
H850 H 0.5552 1.00222 0.22114 0.0
H851 H 0.51652 0.99847 0.25325 0.0
C852 C 0.47569 0.00604 0.21446 0.0
C853 C 0.48161 1.00275 0.19672 0.0
C854 C 0.4825 0.00786 0.2344 0.0
C855 C 0.49601 0.00702 0.23639 0.0
C856 C 0.50256 1.00411 0.21843 0.0
C857 C 0.4947 1.00136 0.19879 0.0
C858 C 0.51754 1.00413 0.21969 0.0
C859 C 0.52671 0.00753 0.20141 0.0
C860 C 0.54025 0.00676 0.20159 0.0
C861 C 0.54499 1.00319 0.22061 0.0
C862 C 0.53684 1.00082 0.23925 0.0
C863 C 0.52296 1.00094 0.23881 0.0
H864 H 0.55995 0.01729 0.8002 0.0
H865 H 0.51848 1.00363 0.76564 0.0
H866 H 0.52243 0.01609 0.83209 0.0
H867 H 0.49826 1.00156 0.83287 0.0
H868 H 0.45948 0.99776 0.79992 0.0
H869 H 0.49986 0.00947 0.76507 0.0
C870 C 0.54836 0.01528 0.79971 0.0
C871 C 0.54181 0.0168 0.81816 0.0
C872 C 0.54006 0.01074 0.78078 0.0
C873 C 0.52484 0.00765 0.7803 0.0
C874 C 0.51792 0.00937 0.79882 0.0
C875 C 0.52684 0.01417 0.81764 0.0
C876 C 0.50153 0.00593 0.79888 0.0
C877 C 0.49327 1.0024 0.81808 0.0
C878 C 0.47823 0.99967 0.81857 0.0
C879 C 0.47101 0.99962 0.79962 0.0
C880 C 0.47864 1.00282 0.78035 0.0
C881 C 0.49397 0.00634 0.78001 0.0
H882 H 0.01069 0.55408 0.79522 0.0
H883 H 0.99872 0.51343 0.76001 0.0
H884 H 1.00785 0.51531 0.82747 0.0
H885 H 0.99117 0.49089 0.82596 0.0
H886 H 0.99244 0.45388 0.79486 0.0
H887 H 1.00639 0.4956 0.76107 0.0
C888 C 0.00888 0.54252 0.79486 0.0
C889 C 0.00941 0.53546 0.81369 0.0
C890 C 1.00544 0.5348 0.77554 0.0
C891 C 1.00198 0.51944 0.77497 0.0
C892 C 1.00266 0.51198 0.79371 0.0
C893 C 1.00665 0.52035 0.81294 0.0
C894 C 0.99921 0.49558 0.7935 0.0
C895 C 0.9937 0.48647 0.81194 0.0
C896 C 0.99142 0.47154 0.81266 0.0
C897 C 0.99387 0.4653 0.79442 0.0
C898 C 0.99897 0.4738 0.77582 0.0
C899 C 1.00183 0.48898 0.77535 0.0
H900 H 0.55492 0.55466 0.80356 0.0
H901 H 0.52216 0.51561 0.76884 0.0
H902 H 0.51639 0.52029 0.83599 0.0
H903 H 0.50229 0.49613 0.83641 0.0
H904 H 0.46212 0.46351 0.80422 0.0
H905 H 0.49752 0.49943 0.7684 0.0
C906 C 0.54426 0.54394 0.8032 0.0
C907 C 0.53631 0.53801 0.82191 0.0
C908 C 0.53909 0.53607 0.7841 0.0
C909 C 0.52565 0.52171 0.78369 0.0
C910 C 0.51698 0.51549 0.8024 0.0
C911 C 0.52261 0.52407 0.82139 0.0
C912 C 0.50207 0.50042 0.80244 0.0
C913 C 0.49597 0.49243 0.82172 0.0
C914 C 0.48137 0.47955 0.82246 0.0
C915 C 0.47315 0.47382 0.80372 0.0
C916 C 0.47909 0.48065 0.78425 0.0
C917 C 0.49345 0.49403 0.78357 0.0
H918 H 0.66213 0.78725 0.54762 0.0
H919 H 0.67282 0.827 0.58435 0.0
H920 H 0.665 0.82637 0.51658 0.0
H921 H 0.68034 0.85085 0.51899 0.0
H922 H 0.6786 0.88693 0.55186 0.0
H923 H 0.66504 0.84466 0.58408 0.0
C924 C 0.66363 0.79869 0.54848 0.0
C925 C 0.6635 0.80617 0.5299 0.0
C926 C 0.66675 0.80602 0.56807 0.0
C927 C 0.66977 0.82127 0.56918 0.0
C928 C 0.66913 0.82902 0.55068 0.0
C929 C 0.66585 0.82111 0.5311 0.0
C930 C 0.67215 0.84531 0.55142 0.0
C931 C 0.67757 0.8548 0.53326 0.0
C932 C 0.6798 0.86972 0.53331 0.0
C933 C 0.67704 0.87546 0.55177 0.0
C934 C 0.67196 0.86659 0.57006 0.0
C935 C 0.66942 0.85151 0.56994 0.0
H936 H 0.12121 0.8035 0.55017 0.0
H937 H 0.16032 0.8334 0.58746 0.0
H938 H 0.15983 0.83876 0.51918 0.0
H939 H 0.18402 0.85035 0.52141 0.0
H940 H 0.21864 0.88862 0.55492 0.0
H941 H 0.178 0.85775 0.5875 0.0
C942 C 0.13258 0.8133 0.55121 0.0
C943 C 0.14004 0.82048 0.53268 0.0
C944 C 0.1397 0.81805 0.57098 0.0
C945 C 0.15482 0.83025 0.57211 0.0
C946 C 0.16257 0.83823 0.55352 0.0
C947 C 0.15479 0.83304 0.53384 0.0
C948 C 0.17851 0.85192 0.55436 0.0
C949 C 0.18771 0.85679 0.53597 0.0
C950 C 0.20204 0.87006 0.53605 0.0
C951 C 0.20762 0.87829 0.5548 0.0
C952 C 0.19912 0.87374 0.57332 0.0
C953 C 0.18457 0.86066 0.57316 0.0
H954 H 0.13206 0.34159 0.54841 0.0
H955 H 0.16808 0.34308 0.5865 0.0
H956 H 0.16392 0.33143 0.51971 0.0
H957 H 0.18784 0.34044 0.52015 0.0
H958 H 0.22129 0.33544 0.55541 0.0
H959 H 0.18419 0.33461 0.58848 0.0
C960 C 0.14231 0.3407 0.54978 0.0
C961 C 0.14777 0.33701 0.5319 0.0
C962 C 0.14929 0.34237 0.56954 0.0
C963 C 0.16259 0.34115 0.57119 0.0
C964 C 0.16871 0.33779 0.55313 0.0
C965 C 0.16053 0.33504 0.53371 0.0
C966 C 0.18349 0.3373 0.55415 0.0
C967 C 0.19162 0.33856 0.53532 0.0
C968 C 0.20482 0.33725 0.53565 0.0
C969 C 0.21078 0.33592 0.55502 0.0
C970 C 0.20362 0.33542 0.57397 0.0
C971 C 0.1898 0.33569 0.57361 0.0
H972 H 0.03755 0.4221 0.04077 0.0
H973 H 0.03292 0.43566 0.06906 0.0
H974 H 0.99276 0.39407 0.08704 0.0
H975 H 0.99727 0.38029 0.05878 0.0
H976 H 1.00605 0.43828 0.07375 0.0
H977 H 0.01687 0.4107 0.14317 0.0
H978 H 0.0233 0.40987 0.11693 0.0
H979 H 1.00368 0.39791 0.12373 0.0
C980 C 0.02781 0.41573 0.05085 0.0
C981 C 0.0178 0.40004 0.04745 0.0
C982 C 0.02516 0.42355 0.06698 0.0
C983 C 0.01255 0.41587 0.08019 0.0
C984 C 1.00267 0.40018 0.07716 0.0
H985 H 0.98311 0.44581 0.18984 0.0
H986 H 0.98384 0.43145 0.15918 0.0
C987 C 1.00527 0.39232 0.06097 0.0
C988 C 0.00956 0.42443 0.09673 0.0
H989 H 1.00791 0.42788 0.15016 0.0
C990 C 1.00644 0.43602 0.09048 0.0
C991 C 0.01002 0.4214 0.11849 0.0
C992 C 0.01376 0.40938 0.1261 0.0
C993 C 1.00366 0.44463 0.10543 0.0
C994 C 1.00434 0.44175 0.12724 0.0
C995 C 1.00733 0.43005 0.13344 0.0
C996 C 1.00243 0.45095 0.14402 0.0
C997 C 0.99979 0.45652 0.09772 0.0
C998 C 0.01236 0.46679 0.14543 0.0
C999 C 0.01186 0.47505 0.16287 0.0
C1000 C 1.00158 0.46756 0.17934 0.0
C1001 C 0.99118 0.45186 0.1774 0.0
C1002 C 0.99161 0.44364 0.15992 0.0
H1003 H 0.99516 0.45411 0.08131 0.0
H1004 H 0.99135 0.45716 0.10815 0.0
H1005 H 0.01027 0.46786 0.09773 0.0
H1006 H 0.02102 0.47263 0.13361 0.0
H1007 H 0.02015 0.48708 0.16412 0.0
H1008 H 0.63776 0.6259 0.08237 0.0
H1009 H 0.61776 0.60938 0.10688 0.0
H1010 H 0.58368 0.60427 0.06081 0.0
H1011 H 0.60381 0.61951 0.0356 0.0
H1012 H 0.59773 0.61188 0.12594 0.0
H1013 H 0.56548 0.56125 0.07433 0.0
H1014 H 0.58235 0.5778 0.06527 0.0
H1015 H 0.56449 0.5776 0.06504 0.0
C1016 C 0.62599 0.62072 0.07726 0.0
C1017 C 0.62231 0.62312 0.05671 0.0
C1018 C 0.61451 0.61149 0.09139 0.0
C1019 C 0.59904 0.60499 0.08557 0.0
C1020 C 0.59541 0.60839 0.06545 0.0
H1021 H 0.52128 0.54747 0.16915 0.0
H1022 H 0.53594 0.56366 0.1392 0.0
C1023 C 0.60692 0.61724 0.05111 0.0
C1024 C 0.58698 0.59525 0.10104 0.0
H1025 H 0.5553 0.56026 0.10829 0.0
C1026 C 0.58852 0.60058 0.12194 0.0
C1027 C 0.57452 0.58061 0.09593 0.0
C1028 C 0.57167 0.57394 0.07397 0.0
C1029 C 0.57856 0.59156 0.1379 0.0
C1030 C 0.56672 0.57669 0.13299 0.0
C1031 C 0.56453 0.57161 0.112 0.0
C1032 C 0.55739 0.5659 0.14982 0.0
C1033 C 0.5809 0.59796 0.16002 0.0
C1034 C 0.56448 0.56133 0.16509 0.0
C1035 C 0.5562 0.55211 0.18196 0.0
C1036 C 0.5406 0.54722 0.18393 0.0
C1037 C 0.53328 0.55107 0.16799 0.0
C1038 C 0.54164 0.56037 0.151 0.0
H1039 H 0.58736 0.61065 0.15999 0.0
H1040 H 0.56984 0.59411 0.16797 0.0
H1041 H 0.58751 0.59387 0.16945 0.0
H1042 H 0.57654 0.56516 0.16419 0.0
H1043 H 0.56209 0.5491 0.19382 0.0
H1044 H 0.3978 0.9854 0.02927 0.0
H1045 H 0.41489 0.98263 0.05459 0.0
H1046 H 0.40217 1.0044 0.10269 0.0
H1047 H 0.38485 0.00682 0.07748 0.0
H1048 H 0.43957 1.00464 0.07432 0.0
H1049 H 0.39818 0.96777 0.13429 0.0
H1050 H 0.3924 0.97071 0.10837 0.0
H1051 H 0.39668 0.98451 0.12908 0.0
C1052 C 0.39866 0.98951 0.04531 0.0
C1053 C 0.39048 0.99679 0.05135 0.0
C1054 C 0.40838 0.98792 0.05974 0.0
C1055 C 0.40975 0.99319 0.08061 0.0
C1056 C 0.40113 0.99999 0.08681 0.0
H1057 H 0.47937 0.02455 0.17438 0.0
H1058 H 0.46278 0.02088 0.1438 0.0
C1059 C 0.39144 1.00161 0.07235 0.0
C1060 C 0.42083 0.99242 0.09555 0.0
H1061 H 0.42442 0.98137 0.14549 0.0
C1062 C 0.43623 0.99954 0.08985 0.0
C1063 C 0.41645 0.98528 0.11558 0.0
C1064 C 0.4 0.97649 0.12211 0.0
C1065 C 0.44746 1.00061 0.10414 0.0
C1066 C 0.44316 0.99425 0.12456 0.0
C1067 C 0.4277 0.98636 0.12986 0.0
C1068 C 0.45458 0.99662 0.14118 0.0
C1069 C 0.46389 0.00877 0.09747 0.0
C1070 C 0.45562 0.98422 0.14962 0.0
C1071 C 0.46528 0.98636 0.16692 0.0
C1072 C 0.47379 1.00087 0.17615 0.0
C1073 C 0.47304 0.01331 0.1673 0.0
C1074 C 0.46358 0.01122 0.14989 0.0
H1075 H 0.46499 0.00992 0.08 0.0
H1076 H 0.46971 0.0204 0.10446 0.0
H1077 H 0.46981 1.00262 0.10329 0.0
H1078 H 0.44867 0.97285 0.1432 0.0
H1079 H 0.46551 0.97658 0.17375 0.0
H1080 H 0.42039 0.03339 0.97304 0.0
H1081 H 0.43461 0.02928 0.94537 0.0
H1082 H 0.39462 0.98713 0.92793 0.0
H1083 H 0.38017 0.99113 0.9556 0.0
H1084 H 0.43953 1.00395 0.94239 0.0
H1085 H 0.40996 0.0094 0.871 0.0
H1086 H 0.40834 0.01619 0.8967 0.0
H1087 H 0.3978 0.99616 0.89064 0.0
C1088 C 0.41448 0.02332 0.96318 0.0
C1089 C 0.39905 0.01261 0.96662 0.0
C1090 C 0.42269 0.02098 0.94739 0.0
C1091 C 0.41568 0.00795 0.93452 0.0
C1092 C 0.40022 0.99738 0.9375 0.0
H1093 H 0.44923 0.97815 0.82893 0.0
H1094 H 0.4343 0.97885 0.85869 0.0
C1095 C 0.39197 0.9997 0.95335 0.0
C1096 C 0.42478 1.0052 0.91857 0.0
H1097 H 0.42841 1.0019 0.86552 0.0
C1098 C 0.43711 1.0035 0.92556 0.0
C1099 C 0.42158 1.00455 0.89666 0.0
C1100 C 0.40879 0.00679 0.88819 0.0
C1101 C 0.44626 1.00106 0.91125 0.0
C1102 C 0.44319 1.00061 0.88929 0.0
C1103 C 0.43076 1.00218 0.88234 0.0
C1104 C 0.45288 0.99895 0.87311 0.0
C1105 C 0.45896 0.99872 0.91982 0.0
C1106 C 0.46843 0.00976 0.87158 0.0
C1107 C 0.47703 0.00929 0.85465 0.0
C1108 C 0.47018 0.99813 0.83878 0.0
C1109 C 0.45481 0.9869 0.8409 0.0
C1110 C 0.44625 0.98732 0.85786 0.0
H1111 H 0.45692 0.99473 0.93649 0.0
H1112 H 0.46035 0.9903 0.91018 0.0
H1113 H 0.46978 0.00975 0.9194 0.0
H1114 H 0.47375 0.01903 0.88286 0.0
H1115 H 0.48878 0.01823 0.85326 0.0
H1116 H 0.01417 0.38539 0.93591 0.0
H1117 H 0.00946 0.40001 0.90869 0.0
H1118 H 0.99018 0.41626 0.9558 0.0
H1119 H 0.99382 0.40063 0.98256 0.0
H1120 H 0.97339 0.40948 0.92309 0.0
H1121 H 0.03246 0.44307 0.89411 0.0
H1122 H 0.02489 0.42296 0.89005 0.0
H1123 H 0.0275 0.4305 0.91643 0.0
C1124 C 0.00915 0.39229 0.94041 0.0
C1125 C 1.00468 0.39222 0.96136 0.0
C1126 C 1.0065 0.40072 0.92487 0.0
C1127 C 0.99977 0.40964 0.93012 0.0
C1128 C 0.99541 0.40957 0.9512 0.0
H1129 H 1.00493 0.48223 0.85113 0.0
H1130 H 1.00445 0.467 0.88165 0.0
C1131 C 0.99761 0.40075 0.96655 0.0
C1132 C 0.99679 0.41867 0.91374 0.0
H1133 H 0.01347 0.44501 0.87434 0.0
C1134 C 0.98223 0.41733 0.91257 0.0
C1135 C 1.00818 0.4289 0.89972 0.0
C1136 C 0.02418 0.43156 0.90017 0.0
C1137 C 0.97888 0.42594 0.89804 0.0
C1138 C 0.99032 0.43606 0.88419 0.0
C1139 C 1.00475 0.43732 0.88515 0.0
C1140 C 0.98777 0.44537 0.86811 0.0
C1141 C 0.96323 0.42433 0.89778 0.0
C1142 C 0.97812 0.43831 0.85071 0.0
C1143 C 0.97832 0.447 0.83327 0.0
C1144 C 0.98826 0.4629 0.83287 0.0
C1145 C 0.99704 0.47005 0.851 0.0
C1146 C 0.99685 0.46135 0.86842 0.0
H1147 H 0.95684 0.41876 0.91239 0.0
H1148 H 0.96396 0.43566 0.89605 0.0
H1149 H 0.95669 0.4172 0.88405 0.0
H1150 H 0.97118 0.42599 0.85001 0.0
H1151 H 0.97133 0.44119 0.81958 0.0
H1152 H 0.62732 0.63371 0.9616 0.0
H1153 H 0.60893 0.61998 0.93324 0.0
H1154 H 0.60938 0.57864 0.95008 0.0
H1155 H 0.62789 0.59221 0.97808 0.0
H1156 H 0.6103 0.5831 0.90723 0.0
H1157 H 0.56389 0.58992 0.94257 0.0
H1158 H 0.58118 0.60753 0.93805 0.0
H1159 H 0.58102 0.59408 0.95701 0.0
C1160 C 0.62365 0.62174 0.95914 0.0
C1161 C 0.62907 0.61408 0.97228 0.0
C1162 C 0.613 0.61387 0.94305 0.0
C1163 C 0.60751 0.59819 0.93987 0.0
C1164 C 0.61335 0.59069 0.95237 0.0
H1165 H 0.54142 0.52632 0.85814 0.0
H1166 H 0.55767 0.54083 0.88818 0.0
C1167 C 0.62398 0.59852 0.96839 0.0
C1168 C 0.59569 0.5895 0.92356 0.0
H1169 H 0.55898 0.57823 0.90873 0.0
C1170 C 0.59907 0.58201 0.90761 0.0
C1171 C 0.581 0.58803 0.92412 0.0
C1172 C 0.57645 0.59519 0.94145 0.0
C1173 C 0.58826 0.57325 0.89208 0.0
C1174 C 0.57362 0.5718 0.89264 0.0
C1175 C 0.57021 0.57934 0.90846 0.0
C1176 C 0.56193 0.5628 0.87643 0.0
C1177 C 0.59259 0.56574 0.87497 0.0
C1178 C 0.55845 0.57032 0.86044 0.0
C1179 C 0.5492 0.56209 0.84333 0.0
C1180 C 0.54318 0.54617 0.84203 0.0
C1181 C 0.5458 0.53855 0.85883 0.0
C1182 C 0.55517 0.54682 0.87588 0.0
H1183 H 0.60503 0.56992 0.87484 0.0
H1184 H 0.5866 0.55321 0.87759 0.0
H1185 H 0.58905 0.56786 0.8592 0.0
H1186 H 0.56353 0.58265 0.86066 0.0
H1187 H 0.5473 0.56823 0.83062 0.0
H1188 H 0.02401 0.63964 0.93888 0.0
H1189 H 0.02363 0.6213 0.91298 0.0
H1190 H 1.00156 0.58494 0.9584 0.0
H1191 H 1.00218 0.60333 0.98441 0.0
H1192 H 0.03662 0.59988 0.92101 0.0
H1193 H 0.97476 0.57096 0.90166 0.0
H1194 H 0.98486 0.59017 0.91214 0.0
H1195 H 0.98034 0.57421 0.92914 0.0
C1196 C 0.0193 0.62776 0.94336 0.0
C1197 C 0.01362 0.62292 0.9638 0.0
C1198 C 0.01895 0.6173 0.92855 0.0
C1199 C 0.01257 0.60178 0.93381 0.0
C1200 C 1.0065 0.59686 0.95404 0.0
H1201 H 0.99464 0.52473 0.85141 0.0
H1202 H 0.99633 0.53976 0.88276 0.0
C1203 C 1.0069 0.60734 0.96886 0.0
C1204 C 0.01248 0.59078 0.91822 0.0
H1205 H 0.98935 0.56178 0.88488 0.0
C1206 C 0.0263 0.59147 0.91327 0.0
C1207 C 0.99895 0.57975 0.90819 0.0
C1208 C 0.98385 0.57867 0.91287 0.0
C1209 C 0.027 0.58144 0.89859 0.0
C1210 C 0.01357 0.57078 0.88784 0.0
C1211 C 0.99966 0.5699 0.89309 0.0
C1212 C 0.01382 0.56125 0.87008 0.0
C1213 C 0.04215 0.5823 0.89503 0.0
C1214 C 0.02329 0.56822 0.85268 0.0
C1215 C 0.02257 0.55963 0.83501 0.0
C1216 C 0.01208 0.54389 0.83402 0.0
C1217 C 1.00295 0.53679 0.85173 0.0
C1218 C 1.0038 0.5454 0.86958 0.0
H1219 H 0.04948 0.58645 0.90943 0.0
H1220 H 0.04076 0.57102 0.89057 0.0
H1221 H 0.0482 0.59055 0.88215 0.0
H1222 H 0.03086 0.58046 0.85237 0.0
H1223 H 0.02988 0.56545 0.82175 0.0
H1224 H 0.38442 0.39125 0.95926 0.0
H1225 H 0.39998 0.40916 0.93161 0.0
H1226 H 0.43682 0.40071 0.94716 0.0
H1227 H 0.42141 0.3827 0.97441 0.0
H1228 H 0.4277 0.43582 0.93732 0.0
H1229 H 0.43461 0.39651 0.88322 0.0
H1230 H 0.42038 0.38975 0.90361 0.0
H1231 H 0.43983 0.39539 0.91012 0.0
C1232 C 0.39572 0.39296 0.95653 0.0
C1233 C 0.40158 0.38542 0.96909 0.0
C1234 C 0.40463 0.40328 0.94078 0.0
C1235 C 0.41953 0.40618 0.93713 0.0
C1236 C 0.42528 0.39846 0.94935 0.0
H1237 H 0.49249 0.46756 0.8523 0.0
H1238 H 0.47843 0.45083 0.88208 0.0
C1239 C 0.41641 0.38817 0.96504 0.0
C1240 C 0.42938 0.41785 0.9214 0.0
H1241 H 0.45057 0.42309 0.87715 0.0
C1242 C 0.43263 0.43301 0.9241 0.0
C1243 C 0.43594 0.41423 0.90424 0.0
C1244 C 0.43242 0.39807 0.89996 0.0
C1245 C 0.44235 0.44466 0.91025 0.0
C1246 C 0.44886 0.44103 0.89307 0.0
C1247 C 0.4457 0.4259 0.89044 0.0
C1248 C 0.4581 0.45251 0.87677 0.0
C1249 C 0.44573 0.46081 0.91429 0.0
C1250 C 0.45144 0.45917 0.86413 0.0
C1251 C 0.45941 0.46866 0.84725 0.0
C1252 C 0.47423 0.4717 0.84258 0.0
C1253 C 0.48117 0.46555 0.85572 0.0
C1254 C 0.47311 0.45592 0.8726 0.0
H1255 H 0.4436 0.46247 0.93102 0.0
H1256 H 0.45771 0.46917 0.91044 0.0
H1257 H 0.43819 0.46329 0.90411 0.0
H1258 H 0.43981 0.45651 0.86677 0.0
H1259 H 0.45378 0.47321 0.83731 0.0
H1260 H 0.636 0.00713 0.93816 0.0
H1261 H 0.61949 0.01023 0.91237 0.0
H1262 H 0.61042 0.0365 0.95794 0.0
H1263 H 0.62618 0.03247 0.98413 0.0
H1264 H 0.58537 0.01792 0.94066 0.0
H1265 H 0.62602 0.04432 0.87563 0.0
H1266 H 0.6245 0.02631 0.88226 0.0
H1267 H 0.63197 0.04157 0.90148 0.0
C1268 C 0.6303 0.01339 0.94265 0.0
C1269 C 0.63175 0.019 0.96327 0.0
C1270 C 0.62114 0.01547 0.92778 0.0
C1271 C 0.61378 0.02377 0.93303 0.0
C1272 C 0.61586 0.02998 0.95347 0.0
H1273 H 0.56755 0.0429 0.82937 0.0
H1274 H 0.58445 0.04642 0.85954 0.0
C1275 C 0.62486 0.02771 0.96841 0.0
C1276 C 0.60324 0.02519 0.91768 0.0
H1277 H 0.59947 0.03262 0.86592 0.0
C1278 C 0.58853 0.02127 0.92437 0.0
C1279 C 0.6074 0.03003 0.89653 0.0
C1280 C 0.6234 0.03596 0.88867 0.0
C1281 C 0.57771 0.0214 0.91035 0.0
C1282 C 0.58151 0.02506 0.88881 0.0
C1283 C 0.59641 0.02958 0.88233 0.0
C1284 C 0.57019 0.0238 0.87249 0.0
C1285 C 0.56241 0.01776 0.91894 0.0
C1286 C 0.55634 0.0101 0.86994 0.0
C1287 C 0.54651 0.00829 0.85307 0.0
C1288 C 0.55053 0.02 0.83817 0.0
C1289 C 0.56416 0.03382 0.8409 0.0
C1290 C 0.57384 0.03576 0.85802 0.0
H1291 H 0.56329 0.02094 0.93591 0.0
H1292 H 0.55742 0.02381 0.91004 0.0
H1293 H 0.55452 1.00527 0.91777 0.0
H1294 H 0.55344 1.0005 0.88036 0.0
H1295 H 0.53622 0.99741 0.85094 0.0
H1296 H 0.61554 0.98084 0.0635 0.0
H1297 H 0.60063 0.98375 0.09164 0.0
H1298 H 0.60964 0.02696 0.06486 0.0
H1299 H 0.62559 0.02461 0.038 0.0
H1300 H 0.61016 0.03005 0.10354 0.0
H1301 H 0.55853 0.97491 0.0877 0.0
H1302 H 0.57388 0.97172 0.09509 0.0
H1303 H 0.57502 0.98205 0.07112 0.0
C1304 C 0.61448 0.99104 0.06395 0.0
C1305 C 0.62177 1.00258 0.04883 0.0
C1306 C 0.60575 0.9926 0.07979 0.0
C1307 C 0.60351 1.00535 0.08009 0.0
C1308 C 0.61107 0.01698 0.06507 0.0
H1309 H 0.53022 0.99903 0.16031 0.0
H1310 H 0.5453 1.00087 0.12936 0.0
C1311 C 0.62024 0.01568 0.04974 0.0
C1312 C 0.5935 0.00675 0.09613 0.0
H1313 H 0.55919 0.98694 0.12067 0.0
C1314 C 0.59893 0.02065 0.10703 0.0
C1315 C 0.5786 0.99473 0.10043 0.0
C1316 C 0.57112 0.98011 0.08776 0.0
C1317 C 0.59015 0.02272 0.12238 0.0
C1318 C 0.57585 0.01023 0.12805 0.0
C1319 C 0.57022 0.99649 0.11671 0.0
C1320 C 0.56687 0.01088 0.14624 0.0
C1321 C 0.59627 0.03842 0.13189 0.0
C1322 C 0.57389 0.01619 0.16605 0.0
C1323 C 0.56539 0.01577 0.18355 0.0
C1324 C 0.54946 0.0093 0.18207 0.0
C1325 C 0.54245 1.00422 0.16213 0.0
C1326 C 0.55107 1.00509 0.14441 0.0
H1327 H 0.60336 0.04744 0.12032 0.0
H1328 H 0.58699 0.0405 0.13714 0.0
H1329 H 0.60369 0.03963 0.14566 0.0
H1330 H 0.58593 0.02029 0.16825 0.0
H1331 H 0.57136 0.02019 0.19841 0.0
H1332 H 0.05025 0.63229 0.04588 0.0
H1333 H 0.04758 0.61417 0.07353 0.0
H1334 H 1.00296 0.60713 0.08797 0.0
H1335 H 1.00536 0.62506 0.06 0.0
H1336 H 0.04271 0.61325 0.11633 0.0
H1337 H 0.99451 0.5638 0.07654 0.0
H1338 H 1.00591 0.58184 0.06339 0.0
H1339 H 0.99113 0.57946 0.08121 0.0
C1340 C 0.03988 0.62702 0.055 0.0
C1341 C 0.02795 0.63009 0.0505 0.0
C1342 C 0.03838 0.61662 0.07082 0.0
C1343 C 0.02494 0.60901 0.08249 0.0
C1344 C 0.01329 0.61257 0.07878 0.0
H1345 H 0.99195 0.54558 0.18554 0.0
H1346 H 0.99594 0.56258 0.1556 0.0
C1347 C 0.01475 0.62295 0.0629 0.0
C1348 C 0.02309 0.59727 0.09836 0.0
H1349 H 1.00052 0.55972 0.11161 0.0
C1350 C 0.03356 0.60152 0.11522 0.0
C1351 C 0.01122 0.58192 0.09678 0.0
C1352 C 1.00013 0.57641 0.07841 0.0
C1353 C 0.03217 0.59098 0.13094 0.0
C1354 C 0.02011 0.57573 0.12959 0.0
C1355 C 0.00978 0.57141 0.11256 0.0
C1356 C 0.01736 0.56441 0.14654 0.0
C1357 C 0.0433 0.59636 0.14926 0.0
C1358 C 0.02786 0.5594 0.151 0.0
C1359 C 0.02556 0.54958 0.16812 0.0
C1360 C 0.01276 0.54474 0.18106 0.0
C1361 C 1.00198 0.54926 0.17594 0.0
C1362 C 1.00423 0.55895 0.15883 0.0
H1363 H 0.05023 0.60902 0.14993 0.0
H1364 H 0.03722 0.59217 0.16447 0.0
H1365 H 0.05115 0.59169 0.1476 0.0
H1366 H 0.03796 0.56331 0.14148 0.0
H1367 H 0.03405 0.54629 0.17175 0.0
H1368 H 0.38596 0.37542 0.07984 0.0
H1369 H 0.40345 0.3938 0.10588 0.0
H1370 H 0.41699 0.43006 0.06004 0.0
H1371 H 0.39993 0.41145 0.03372 0.0
H1372 H 0.44121 0.43242 0.07893 0.0
H1373 H 0.39977 0.42437 0.14076 0.0
H1374 H 0.39872 0.40653 0.1345 0.0
H1375 H 0.39389 0.41639 0.11461 0.0
C1376 C 0.39279 0.38731 0.07537 0.0
C1377 C 0.39212 0.39201 0.05467 0.0
C1378 C 0.40256 0.39787 0.09034 0.0
C1379 C 0.41147 0.4134 0.08504 0.0
C1380 C 0.41031 0.41815 0.0645 0.0
H1381 H 0.47656 0.49049 0.16287 0.0
H1382 H 0.46159 0.47516 0.13242 0.0
C1383 C 0.40058 0.40756 0.04951 0.0
C1384 C 0.42249 0.42447 0.10061 0.0
H1385 H 0.42598 0.43653 0.1518 0.0
C1386 C 0.43785 0.43333 0.09484 0.0
C1387 C 0.41811 0.426 0.12126 0.0
C1388 C 0.40169 0.41794 0.12805 0.0
C1389 C 0.44902 0.44299 0.10945 0.0
C1390 C 0.44468 0.44397 0.13028 0.0
C1391 C 0.4293 0.43555 0.13587 0.0
C1392 C 0.45585 0.45343 0.14681 0.0
C1393 C 0.46543 0.45173 0.10278 0.0
C1394 C 0.45791 0.44631 0.16466 0.0
C1395 C 0.46648 0.45501 0.18192 0.0
C1396 C 0.47303 0.471 0.18176 0.0
C1397 C 0.47178 0.4782 0.16333 0.0
C1398 C 0.46319 0.46946 0.14598 0.0
H1399 H 0.46724 0.44779 0.08724 0.0
H1400 H 0.46899 0.46404 0.1015 0.0
H1401 H 0.47286 0.45053 0.11481 0.0
H1402 H 0.45237 0.43397 0.16557 0.0
H1403 H 0.46736 0.44917 0.19585 0.0
H1404 H 0.66091 0.71121 0.39258 0.0
H1405 H 0.65667 0.72569 0.4201 0.0
H1406 H 0.6964 0.76688 0.39989 0.0
H1407 H 0.70073 0.75263 0.37228 0.0
H1408 H 0.67574 0.74401 0.45359 0.0
H1409 H 0.66239 0.77817 0.39688 0.0
H1410 H 0.66277 0.7611 0.38918 0.0
H1411 H 0.68024 0.77882 0.39249 0.0
C1412 C 0.66886 0.72332 0.39409 0.0
C1413 C 0.68111 0.73073 0.38004 0.0
C1414 C 0.66637 0.73159 0.4098 0.0
C1415 C 0.67602 0.74742 0.4117 0.0
C1416 C 0.68861 0.75473 0.39836 0.0
H1417 H 0.68234 0.81798 0.49603 0.0
H1418 H 0.68436 0.80367 0.46612 0.0
C1419 C 0.69113 0.74651 0.38268 0.0
C1420 C 0.6729 0.7563 0.42762 0.0
H1421 H 0.66482 0.78534 0.43305 0.0
C1422 C 0.67325 0.75298 0.44911 0.0
C1423 C 0.6697 0.76803 0.42171 0.0
C1424 C 0.6686 0.7717 0.39881 0.0
C1425 C 0.67083 0.76129 0.46491 0.0
C1426 C 0.66762 0.77302 0.45902 0.0
C1427 C 0.66723 0.77632 0.43751 0.0
C1428 C 0.66496 0.78213 0.4751 0.0
C1429 C 0.67215 0.75771 0.48779 0.0
C1430 C 0.6529 0.77496 0.48936 0.0
C1431 C 0.65171 0.78311 0.50638 0.0
C1432 C 0.66248 0.79862 0.50934 0.0
C1433 C 0.67381 0.80608 0.49406 0.0
C1434 C 0.67504 0.79789 0.47707 0.0
H1435 H 0.67835 0.75121 0.48961 0.0
H1436 H 0.67812 0.76833 0.49733 0.0
H1437 H 0.66058 0.75063 0.49435 0.0
H1438 H 0.64476 0.76291 0.48782 0.0
H1439 H 0.64277 0.77711 0.51781 0.0
H1440 H 0.30937 0.95862 0.41455 0.0
H1441 H 0.2906 0.94056 0.43933 0.0
H1442 H 0.25457 0.93315 0.3954 0.0
H1443 H 0.27355 0.95003 0.36987 0.0
H1444 H 0.26994 0.94071 0.45998 0.0
H1445 H 0.23992 0.89038 0.40754 0.0
H1446 H 0.25564 0.90787 0.3982 0.0
H1447 H 0.23693 0.90572 0.39901 0.0
C1448 C 0.29748 0.95263 0.40993 0.0
C1449 C 0.29296 0.95493 0.38985 0.0
C1450 C 0.28668 0.9425 0.42422 0.0
C1451 C 0.27105 0.9349 0.41907 0.0
C1452 C 0.26651 0.93812 0.39948 0.0
H1453 H 0.19257 0.87563 0.498 0.0
H1454 H 0.20877 0.89093 0.46868 0.0
C1455 C 0.27736 0.94791 0.38496 0.0
C1456 C 0.25966 0.92431 0.43474 0.0
H1457 H 0.22894 0.88856 0.44143 0.0
C1458 C 0.26111 0.92926 0.45583 0.0
C1459 C 0.2477 0.90942 0.42946 0.0
C1460 C 0.24504 0.90301 0.40735 0.0
C1461 C 0.2513 0.91983 0.47168 0.0
C1462 C 0.23979 0.90484 0.46651 0.0
C1463 C 0.23793 0.89998 0.44541 0.0
C1464 C 0.2297 0.89405 0.4829 0.0
C1465 C 0.25323 0.92613 0.49381 0.0
C1466 C 0.23597 0.89007 0.50007 0.0
C1467 C 0.22676 0.88136 0.51674 0.0
C1468 C 0.21106 0.87629 0.51647 0.0
C1469 C 0.20461 0.87931 0.49855 0.0
C1470 C 0.21387 0.88813 0.48189 0.0
H1471 H 0.25939 0.93883 0.49388 0.0
H1472 H 0.24204 0.922 0.50152 0.0
H1473 H 0.25997 0.9223 0.50344 0.0
H1474 H 0.24808 0.89413 0.50091 0.0
H1475 H 0.23201 0.87908 0.53027 0.0
H1476 H 0.06463 0.31863 0.36319 0.0
H1477 H 0.08129 0.31577 0.38921 0.0
H1478 H 0.06925 0.33913 0.43574 0.0
H1479 H 0.05236 0.34164 0.40985 0.0
H1480 H 0.1062 0.33782 0.40861 0.0
H1481 H 0.06421 0.30271 0.46908 0.0
H1482 H 0.05866 0.30533 0.44282 0.0
H1483 H 0.06316 0.31959 0.46294 0.0
C1484 C 0.06554 0.32307 0.37904 0.0
C1485 C 0.0577 0.33081 0.38443 0.0
C1486 C 0.07502 0.32142 0.39387 0.0
C1487 C 0.07646 0.32712 0.4145 0.0
C1488 C 0.06814 0.33438 0.42006 0.0
H1489 H 0.14332 0.35826 0.51158 0.0
H1490 H 0.1268 0.35445 0.48088 0.0
C1491 C 0.05871 0.33606 0.4052 0.0
C1492 C 0.08731 0.32632 0.42983 0.0
H1493 H 0.09044 0.31609 0.48048 0.0
C1494 C 0.10273 0.33304 0.42429 0.0
C1495 C 0.08274 0.31962 0.45008 0.0
C1496 C 0.06626 0.31126 0.45651 0.0
C1497 C 0.1138 0.3342 0.43894 0.0
C1498 C 0.10931 0.32824 0.4595 0.0
C1499 C 0.09383 0.32074 0.4647 0.0
C1500 C 0.12059 0.33079 0.47636 0.0
C1501 C 0.13029 0.34209 0.43262 0.0
C1502 C 0.12276 0.31879 0.48368 0.0
C1503 C 0.13239 0.32101 0.50105 0.0
C1504 C 0.13973 0.33519 0.51147 0.0
C1505 C 0.13784 0.34726 0.5037 0.0
C1506 C 0.12842 0.3451 0.48623 0.0
H1507 H 0.13167 0.34395 0.41526 0.0
H1508 H 0.13642 0.35337 0.44061 0.0
H1509 H 0.13568 0.33529 0.43778 0.0
H1510 H 0.11672 0.30764 0.47628 0.0
H1511 H 0.13354 0.3115 0.50695 0.0
H1512 H 0.08834 0.366 0.30498 0.0
H1513 H 0.10226 0.36151 0.27729 0.0
H1514 H 0.06202 0.3193 0.26083 0.0
H1515 H 0.04784 0.3237 0.28854 0.0
H1516 H 0.10726 0.33636 0.27425 0.0
H1517 H 0.07663 0.34102 0.2035 0.0
H1518 H 0.07523 0.34792 0.22922 0.0
H1519 H 0.06482 0.32784 0.22345 0.0
C1520 C 0.08231 0.35582 0.29536 0.0
C1521 C 0.06688 0.34523 0.29905 0.0
C1522 C 0.09036 0.35326 0.27956 0.0
C1523 C 0.0832 0.34012 0.26691 0.0
C1524 C 0.06774 0.32963 0.27021 0.0
H1525 H 0.11702 0.31169 0.1599 0.0
H1526 H 0.10206 0.31162 0.19013 0.0
C1527 C 0.05965 0.33217 0.28609 0.0
C1528 C 0.09213 0.33729 0.25077 0.0
H1529 H 0.09543 0.33408 0.1976 0.0
C1530 C 0.10466 0.33583 0.25748 0.0
C1531 C 0.08871 0.33655 0.22892 0.0
C1532 C 0.0757 0.33853 0.22073 0.0
C1533 C 0.11384 0.33361 0.24294 0.0
C1534 C 0.11059 0.33314 0.22104 0.0
C1535 C 0.09792 0.33439 0.21438 0.0
C1536 C 0.12038 0.33189 0.20461 0.0
C1537 C 0.1268 0.33159 0.25121 0.0
C1538 C 0.13582 0.34303 0.20296 0.0
C1539 C 0.14444 0.34301 0.18576 0.0
C1540 C 0.13772 0.33196 0.16973 0.0
C1541 C 0.1225 0.32036 0.17199 0.0
C1542 C 0.11392 0.32034 0.18922 0.0
H1543 H 0.12491 0.3275 0.26784 0.0
H1544 H 0.12837 0.32337 0.24137 0.0
H1545 H 0.13747 0.34276 0.25081 0.0
H1546 H 0.141 0.35224 0.21436 0.0
H1547 H 0.15605 0.35222 0.18427 0.0
H1548 H 0.64846 0.72333 0.31675 0.0
H1549 H 0.64334 0.73822 0.29039 0.0
H1550 H 0.66832 0.72822 0.24407 0.0
H1551 H 0.67252 0.71257 0.27009 0.0
H1552 H 0.66133 0.76298 0.27243 0.0
H1553 H 0.63362 0.72116 0.2083 0.0
H1554 H 0.63694 0.71559 0.23408 0.0
H1555 H 0.65166 0.72268 0.21436 0.0
C1556 C 0.65268 0.72422 0.30083 0.0
C1557 C 0.66139 0.71738 0.29554 0.0
C1558 C 0.64977 0.73273 0.28579 0.0
C1559 C 0.65535 0.73434 0.2651 0.0
C1560 C 0.66355 0.72692 0.25968 0.0
H1561 H 0.68173 0.81087 0.18203 0.0
H1562 H 0.67855 0.79381 0.21162 0.0
C1563 C 0.66627 0.71827 0.27467 0.0
C1564 C 0.6536 0.74465 0.24973 0.0
H1565 H 0.64558 0.74774 0.19796 0.0
C1566 C 0.65773 0.75956 0.2562 0.0
C1567 C 0.64843 0.74017 0.22868 0.0
C1568 C 0.64225 0.72396 0.22107 0.0
C1569 C 0.65761 0.77029 0.24202 0.0
C1570 C 0.65369 0.76617 0.22055 0.0
C1571 C 0.64885 0.75105 0.21432 0.0
C1572 C 0.65507 0.77739 0.20405 0.0
C1573 C 0.66162 0.78587 0.25034 0.0
C1574 C 0.64305 0.77384 0.18969 0.0
C1575 C 0.64502 0.78344 0.1725 0.0
C1576 C 0.65895 0.79686 0.16961 0.0
C1577 C 0.67078 0.80075 0.18433 0.0
C1578 C 0.66892 0.79102 0.20128 0.0
H1579 H 0.65866 0.78531 0.26732 0.0
H1580 H 0.67407 0.79359 0.24905 0.0
H1581 H 0.65566 0.79091 0.24135 0.0
H1582 H 0.63229 0.76339 0.19138 0.0
H1583 H 0.63586 0.78014 0.16108 0.0
H1584 H 0.29196 0.96522 0.29815 0.0
H1585 H 0.27299 0.95054 0.27086 0.0
H1586 H 0.28263 0.91357 0.27866 0.0
H1587 H 0.30161 0.92809 0.30592 0.0
H1588 H 0.28044 0.92182 0.23535 0.0
H1589 H 0.23093 0.91213 0.28403 0.0
H1590 H 0.24591 0.93164 0.28182 0.0
H1591 H 0.2495 0.91799 0.29536 0.0
C1592 C 0.29021 0.95405 0.29392 0.0
C1593 C 0.29833 0.94785 0.30434 0.0
C1594 C 0.27925 0.94562 0.27844 0.0
C1595 C 0.27623 0.93087 0.27303 0.0
C1596 C 0.28471 0.92489 0.28274 0.0
H1597 H 0.20679 0.85829 0.19496 0.0
H1598 H 0.22302 0.87312 0.22492 0.0
C1599 C 0.29559 0.93325 0.2983 0.0
C1600 C 0.2642 0.92161 0.25729 0.0
H1601 H 0.22574 0.90352 0.24845 0.0
C1602 C 0.26849 0.91781 0.23822 0.0
C1603 C 0.2486 0.91627 0.26119 0.0
C1604 C 0.24336 0.91958 0.28176 0.0
C1605 C 0.2576 0.90904 0.22277 0.0
C1606 C 0.24205 0.90393 0.2265 0.0
C1607 C 0.2377 0.90752 0.24567 0.0
C1608 C 0.23032 0.89509 0.21028 0.0
C1609 C 0.26273 0.90526 0.20245 0.0
C1610 C 0.22863 0.90261 0.19262 0.0
C1611 C 0.21934 0.89422 0.17565 0.0
C1612 C 0.21162 0.87814 0.17598 0.0
C1613 C 0.21251 0.87065 0.19433 0.0
C1614 C 0.22183 0.87909 0.21137 0.0
H1615 H 0.27497 0.90856 0.20298 0.0
H1616 H 0.25589 0.89283 0.19911 0.0
H1617 H 0.26087 0.91141 0.18914 0.0
H1618 H 0.23504 0.91495 0.19157 0.0
H1619 H 0.21875 0.9003 0.1618 0.0
H1620 H 0.6676 0.93678 0.31925 0.0
H1621 H 0.66634 0.91814 0.29341 0.0
H1622 H 0.69155 0.95471 0.2492 0.0
H1623 H 0.69135 0.97302 0.27433 0.0
H1624 H 0.67115 0.93316 0.22901 0.0
H1625 H 0.67789 0.90194 0.289 0.0
H1626 H 0.69346 0.92119 0.28942 0.0
H1627 H 0.69618 0.90601 0.27963 0.0
C1628 C 0.67296 0.94078 0.30404 0.0
C1629 C 0.68033 0.95642 0.29913 0.0
C1630 C 0.6724 0.93014 0.28934 0.0
C1631 C 0.67945 0.93497 0.26956 0.0
C1632 C 0.68627 0.9506 0.26444 0.0
H1633 H 0.69698 0.89816 0.15699 0.0
H1634 H 0.69791 0.91366 0.18728 0.0
C1635 C 0.68642 0.96115 0.27891 0.0
C1636 C 0.67909 0.92383 0.25366 0.0
H1637 H 0.68657 0.8945 0.24587 0.0
C1638 C 0.67469 0.92485 0.23279 0.0
C1639 C 0.68326 0.91255 0.25847 0.0
C1640 C 0.68807 0.91045 0.28032 0.0
C1641 C 0.67466 0.91529 0.21669 0.0
C1642 C 0.67933 0.90446 0.22141 0.0
C1643 C 0.68321 0.90299 0.24228 0.0
C1644 C 0.68035 0.89471 0.20469 0.0
C1645 C 0.66943 0.91675 0.19477 0.0
C1646 C 0.67086 0.87878 0.20507 0.0
C1647 C 0.67043 0.86986 0.18784 0.0
C1648 C 0.67949 0.87678 0.17003 0.0
C1649 C 0.68978 0.89257 0.17044 0.0
C1650 C 0.69025 0.90143 0.18765 0.0
H1651 H 0.66249 0.92253 0.19502 0.0
H1652 H 0.67953 0.92367 0.18481 0.0
H1653 H 0.66262 0.90537 0.18722 0.0
H1654 H 0.66323 0.87336 0.21818 0.0
H1655 H 0.66232 0.85774 0.18787 0.0
H1656 H 0.04917 0.72389 0.29191 0.0
H1657 H 0.06466 0.74183 0.26425 0.0
H1658 H 0.10176 0.73384 0.28008 0.0
H1659 H 0.08642 0.7158 0.30733 0.0
H1660 H 0.09216 0.76862 0.27026 0.0
H1661 H 0.09988 0.72985 0.21614 0.0
H1662 H 0.08556 0.72288 0.2364 0.0
H1663 H 0.10502 0.72868 0.24307 0.0
C1664 C 0.0605 0.7257 0.28922 0.0
C1665 C 0.06647 0.71831 0.30188 0.0
C1666 C 0.06938 0.73603 0.27347 0.0
C1667 C 0.08433 0.73908 0.26993 0.0
C1668 C 0.09018 0.73147 0.2822 0.0
H1669 H 0.15799 0.80112 0.18702 0.0
H1670 H 0.14353 0.78426 0.21644 0.0
C1671 C 0.08135 0.72117 0.29789 0.0
C1672 C 0.09418 0.75085 0.25432 0.0
H1673 H 0.11582 0.75651 0.21047 0.0
C1674 C 0.09726 0.76595 0.25711 0.0
C1675 C 0.10094 0.7474 0.23726 0.0
C1676 C 0.09759 0.7313 0.23287 0.0
C1677 C 0.10704 0.77772 0.24346 0.0
C1678 C 0.11379 0.77426 0.22641 0.0
C1679 C 0.11076 0.75917 0.22367 0.0
C1680 C 0.12324 0.78588 0.21042 0.0
C1681 C 0.11025 0.7938 0.24758 0.0
C1682 C 0.11673 0.79256 0.19754 0.0
C1683 C 0.12494 0.80214 0.18086 0.0
C1684 C 0.13983 0.80523 0.17665 0.0
C1685 C 0.14661 0.79908 0.19008 0.0
C1686 C 0.13832 0.78937 0.20675 0.0
H1687 H 0.10782 0.79531 0.26422 0.0
H1688 H 0.12228 0.80224 0.24412 0.0
H1689 H 0.10286 0.79631 0.23713 0.0
H1690 H 0.10505 0.78985 0.19982 0.0
H1691 H 0.11943 0.80671 0.1707 0.0
H1692 H 0.28175 0.35331 0.31689 0.0
H1693 H 0.26585 0.3565 0.29009 0.0
H1694 H 0.28276 0.33794 0.24282 0.0
H1695 H 0.29767 0.33365 0.27008 0.0
H1696 H 0.27228 0.37339 0.25765 0.0
H1697 H 0.23992 0.31404 0.22763 0.0
H1698 H 0.25243 0.31923 0.25016 0.0
H1699 H 0.26001 0.32206 0.2239 0.0
C1700 C 0.28172 0.34957 0.30084 0.0
C1701 C 0.29052 0.34281 0.2956 0.0
C1702 C 0.27275 0.35151 0.28547 0.0
C1703 C 0.2728 0.34724 0.26433 0.0
C1704 C 0.28197 0.34082 0.25904 0.0
H1705 H 0.23985 0.37494 0.15432 0.0
H1706 H 0.25534 0.37536 0.18463 0.0
C1707 C 0.29056 0.33842 0.2746 0.0
C1708 C 0.26361 0.34998 0.24792 0.0
H1709 H 0.23743 0.33283 0.20816 0.0
C1710 C 0.26458 0.36444 0.24697 0.0
C1711 C 0.25357 0.33845 0.23369 0.0
C1712 C 0.2513 0.32252 0.23392 0.0
C1713 C 0.25579 0.36755 0.23246 0.0
C1714 C 0.24586 0.35597 0.21839 0.0
C1715 C 0.24498 0.34165 0.21912 0.0
C1716 C 0.23633 0.35826 0.20239 0.0
C1717 C 0.25699 0.3831 0.23247 0.0
C1718 C 0.22046 0.34879 0.20254 0.0
C1719 C 0.2116 0.34842 0.18519 0.0
C1720 C 0.21848 0.35743 0.16726 0.0
C1721 C 0.23424 0.36775 0.16783 0.0
C1722 C 0.2431 0.36811 0.18522 0.0
H1723 H 0.26244 0.38953 0.24721 0.0
H1724 H 0.26401 0.3898 0.21889 0.0
H1725 H 0.24558 0.38207 0.23066 0.0
H1726 H 0.21503 0.34103 0.21561 0.0
H1727 H 0.19953 0.34025 0.1852 0.0
H1728 H 0.26259 0.30789 0.37728 0.0
H1729 H 0.24854 0.31169 0.40549 0.0
H1730 H 0.28702 0.35606 0.41865 0.0
H1731 H 0.30135 0.35231 0.39056 0.0
H1732 H 0.27423 0.33975 0.45468 0.0
H1733 H 0.22946 0.33904 0.40263 0.0
H1734 H 0.23141 0.32238 0.3994 0.0
H1735 H 0.24692 0.34086 0.39249 0.0
C1736 C 0.26815 0.31845 0.38619 0.0
C1737 C 0.28312 0.32982 0.38151 0.0
C1738 C 0.26002 0.32066 0.4022 0.0
C1739 C 0.26658 0.33432 0.4138 0.0
C1740 C 0.28167 0.34549 0.40971 0.0
H1741 H 0.21352 0.35707 0.50188 0.0
H1742 H 0.22891 0.35774 0.47152 0.0
C1743 C 0.28987 0.34329 0.39369 0.0
C1744 C 0.25776 0.33669 0.43054 0.0
H1745 H 0.22413 0.33597 0.4398 0.0
C1746 C 0.26336 0.33909 0.45139 0.0
C1747 C 0.24371 0.33613 0.42619 0.0
C1748 C 0.23759 0.33463 0.40393 0.0
C1749 C 0.25495 0.34022 0.46813 0.0
C1750 C 0.24044 0.33863 0.46395 0.0
C1751 C 0.23516 0.33697 0.443 0.0
C1752 C 0.23031 0.33782 0.48131 0.0
C1753 C 0.26166 0.34301 0.49018 0.0
C1754 C 0.22555 0.3261 0.49633 0.0
C1755 C 0.21682 0.32569 0.51349 0.0
C1756 C 0.21255 0.33694 0.51596 0.0
C1757 C 0.21664 0.34825 0.50034 0.0
C1758 C 0.22547 0.34868 0.4831 0.0
H1759 H 0.27426 0.34846 0.48988 0.0
H1760 H 0.25851 0.3504 0.49937 0.0
H1761 H 0.25721 0.33192 0.49854 0.0
H1762 H 0.22879 0.31736 0.49494 0.0
H1763 H 0.21358 0.31667 0.52509 0.0
H1764 H 0.67178 0.95713 0.39298 0.0
H1765 H 0.67012 0.93954 0.42101 0.0
H1766 H 0.71638 0.95053 0.40922 0.0
H1767 H 0.71812 0.96794 0.38103 0.0
H1768 H 0.69688 0.91957 0.41122 0.0
H1769 H 0.68877 0.94862 0.48017 0.0
H1770 H 0.67529 0.94466 0.45906 0.0
H1771 H 0.69512 0.95788 0.45487 0.0
C1772 C 0.6817 0.95601 0.39655 0.0
C1773 C 0.6951 0.96403 0.38472 0.0
C1774 C 0.68073 0.94594 0.41262 0.0
C1775 C 0.69317 0.9438 0.41734 0.0
C1776 C 0.70664 0.952 0.40586 0.0
H1777 H 0.70247 0.89925 0.52951 0.0
H1778 H 0.70655 0.9167 0.5001 0.0
C1779 C 0.70761 0.96201 0.38978 0.0
C1780 C 0.69203 0.9326 0.43367 0.0
H1781 H 0.68529 0.9238 0.48608 0.0
C1782 C 0.69439 0.92051 0.42762 0.0
C1783 C 0.68893 0.93392 0.45508 0.0
C1784 C 0.68702 0.94704 0.46278 0.0
C1785 C 0.69361 0.90964 0.44235 0.0
C1786 C 0.69013 0.91074 0.46365 0.0
C1787 C 0.68789 0.9229 0.46972 0.0
C1788 C 0.68892 0.89959 0.4801 0.0
C1789 C 0.6968 0.89725 0.43505 0.0
C1790 C 0.67794 0.88404 0.47844 0.0
C1791 C 0.67569 0.87399 0.4952 0.0
C1792 C 0.68425 0.87939 0.514 0.0
C1793 C 0.69569 0.8948 0.51522 0.0
C1794 C 0.69799 0.90478 0.49846 0.0
H1795 H 0.70325 0.90037 0.42002 0.0
H1796 H 0.70335 0.89484 0.44721 0.0
H1797 H 0.68585 0.88661 0.43225 0.0
H1798 H 0.67062 0.87981 0.4646 0.0
H1799 H 0.66665 0.86223 0.49397 0.0
H1800 H 0.06269 0.74559 0.36509 0.0
H1801 H 0.0785 0.76551 0.39053 0.0
H1802 H 0.07144 0.73084 0.43661 0.0
H1803 H 0.05419 0.71111 0.41187 0.0
H1804 H 0.07055 0.7512 0.45594 0.0
H1805 H 0.10513 0.7835 0.39439 0.0
H1806 H 0.1044 0.7653 0.39616 0.0
H1807 H 0.12095 0.78231 0.40526 0.0
C1808 C 0.06466 0.74228 0.38064 0.0
C1809 C 0.05796 0.72678 0.38618 0.0
C1810 C 0.07387 0.75368 0.39512 0.0
C1811 C 0.07688 0.74982 0.41533 0.0
C1812 C 0.06964 0.73427 0.42106 0.0
H1813 H 0.1495 0.80836 0.50196 0.0
H1814 H 0.13418 0.79212 0.47246 0.0
C1815 C 0.06001 0.72292 0.4068 0.0
C1816 C 0.08682 0.76187 0.43095 0.0
H1817 H 0.12096 0.79473 0.43743 0.0
C1818 C 0.08164 0.7606 0.45181 0.0
C1819 C 0.10136 0.77431 0.42582 0.0
C1820 C 0.10832 0.77634 0.40424 0.0
C1821 C 0.09051 0.77108 0.4676 0.0
C1822 C 0.10477 0.78373 0.46228 0.0
C1823 C 0.10997 0.78514 0.44147 0.0
C1824 C 0.11475 0.79517 0.47834 0.0
C1825 C 0.08467 0.76814 0.48999 0.0
C1826 C 0.10927 0.80291 0.49081 0.0
C1827 C 0.11794 0.812 0.50779 0.0
C1828 C 0.13242 0.81389 0.5122 0.0
C1829 C 0.13842 0.80718 0.49872 0.0
C1830 C 0.12963 0.79785 0.48195 0.0
H1831 H 0.07604 0.75595 0.49245 0.0
H1832 H 0.09406 0.77127 0.50162 0.0
H1833 H 0.07915 0.77509 0.49328 0.0
H1834 H 0.09805 0.80146 0.48792 0.0
H1835 H 0.1131 0.81709 0.518 0.0
H1836 H 0.33426 0.04738 0.72657 0.0
H1837 H 0.3322 0.06287 0.75469 0.0
H1838 H 0.37502 0.10121 0.73615 0.0
H1839 H 0.37734 0.08587 0.70824 0.0
H1840 H 0.37186 0.09716 0.77999 0.0
H1841 H 0.32152 0.09675 0.74313 0.0
H1842 H 0.3193 0.07813 0.74767 0.0
H1843 H 0.3332 0.09081 0.72911 0.0
C1844 C 0.34335 0.05905 0.72861 0.0
C1845 C 0.35591 0.06537 0.71498 0.0
C1846 C 0.34207 0.06793 0.74458 0.0
C1847 C 0.35329 0.08329 0.74718 0.0
C1848 C 0.36616 0.08942 0.73428 0.0
H1849 H 0.36368 0.15479 0.83627 0.0
H1850 H 0.36694 0.14171 0.80566 0.0
C1851 C 0.36746 0.08059 0.71833 0.0
C1852 C 0.35157 0.09308 0.76314 0.0
H1853 H 0.32869 0.10757 0.77748 0.0
C1854 C 0.36248 0.09953 0.77939 0.0
C1855 C 0.33939 0.09623 0.76219 0.0
C1856 C 0.32775 0.09025 0.74449 0.0
C1857 C 0.36126 0.10865 0.79516 0.0
C1858 C 0.34894 0.1116 0.7944 0.0
C1859 C 0.33816 0.10533 0.77796 0.0
C1860 C 0.34644 0.12021 0.81139 0.0
C1861 C 0.37287 0.11461 0.81291 0.0
C1862 C 0.33352 0.11269 0.82409 0.0
C1863 C 0.33161 0.12013 0.84135 0.0
C1864 C 0.34254 0.13529 0.84622 0.0
C1865 C 0.35508 0.14312 0.83283 0.0
C1866 C 0.35702 0.13562 0.81552 0.0
H1867 H 0.37982 0.10883 0.81345 0.0
H1868 H 0.38066 0.12702 0.81059 0.0
H1869 H 0.36722 0.11305 0.82841 0.0
H1870 H 0.32517 0.10085 0.82109 0.0
H1871 H 0.32175 0.11388 0.8513 0.0
H1872 H 0.93983 0.28331 0.70034 0.0
H1873 H 0.92119 0.2661 0.72615 0.0
H1874 H 0.95729 0.27865 0.77223 0.0
H1875 H 0.97573 0.29626 0.74668 0.0
H1876 H 0.9186 0.24136 0.74428 0.0
H1877 H 0.9271 0.28273 0.80725 0.0
H1878 H 0.93501 0.28871 0.78123 0.0
H1879 H 0.94473 0.28355 0.8009 0.0
C1880 C 0.94369 0.28241 0.71607 0.0
C1881 C 0.95921 0.29062 0.72142 0.0
C1882 C 0.93307 0.2726 0.73078 0.0
C1883 C 0.93778 0.27111 0.75123 0.0
C1884 C 0.95328 0.27978 0.75674 0.0
H1885 H 0.90126 0.21469 0.86071 0.0
H1886 H 0.91662 0.22993 0.831 0.0
C1887 C 0.96386 0.28963 0.74205 0.0
C1888 C 0.92664 0.26002 0.76647 0.0
H1889 H 0.91451 0.25633 0.81746 0.0
C1890 C 0.91769 0.24466 0.76026 0.0
C1891 C 0.92514 0.26433 0.7872 0.0
C1892 C 0.93339 0.28076 0.79444 0.0
C1893 C 0.90792 0.23341 0.77454 0.0
C1894 C 0.90692 0.23767 0.79545 0.0
C1895 C 0.91547 0.25307 0.80146 0.0
C1896 C 0.89737 0.22641 0.81167 0.0
C1897 C 0.89909 0.21699 0.7674 0.0
C1898 C 0.88141 0.21895 0.81035 0.0
C1899 C 0.87257 0.21019 0.82736 0.0
C1900 C 0.87961 0.20889 0.84595 0.0
C1901 C 0.89555 0.21559 0.84663 0.0
C1902 C 0.90433 0.22431 0.8297 0.0
H1903 H 0.90315 0.21519 0.75199 0.0
H1904 H 0.89997 0.20936 0.77939 0.0
H1905 H 0.88689 0.21363 0.76563 0.0
H1906 H 0.87582 0.22057 0.79665 0.0
H1907 H 0.86032 0.20528 0.82652 0.0
H1908 H 0.72696 0.68925 0.73801 0.0
H1909 H 0.74468 0.68985 0.7653 0.0
H1910 H 0.75497 0.66098 0.7266 0.0
H1911 H 0.73701 0.66018 0.6995 0.0
H1912 H 0.74929 0.65083 0.76691 0.0
H1913 H 0.79028 0.71307 0.76868 0.0
H1914 H 0.7707 0.70816 0.77141 0.0
H1915 H 0.77703 0.70374 0.74733 0.0
C1916 C 0.73333 0.68338 0.73514 0.0
C1917 C 0.73098 0.67504 0.71641 0.0
C1918 C 0.74346 0.68371 0.75075 0.0
C1919 C 0.75147 0.67571 0.74792 0.0
C1920 C 0.74905 0.66734 0.72916 0.0
H1921 H 0.81166 0.6579 0.83152 0.0
H1922 H 0.79704 0.65868 0.80073 0.0
C1923 C 0.73884 0.66693 0.71365 0.0
C1924 C 0.76173 0.67538 0.76488 0.0
H1925 H 0.79296 0.69822 0.79524 0.0
C1926 C 0.75889 0.66119 0.77303 0.0
C1927 C 0.77423 0.68885 0.77307 0.0
C1928 C 0.77838 0.70438 0.76465 0.0
C1929 C 0.76793 0.66018 0.7894 0.0
C1930 C 0.78046 0.67371 0.79744 0.0
C1931 C 0.78338 0.68783 0.78911 0.0
C1932 C 0.79018 0.67374 0.81534 0.0
C1933 C 0.76359 0.64466 0.79843 0.0
C1934 C 0.79202 0.68268 0.83327 0.0
C1935 C 0.80072 0.68263 0.85052 0.0
C1936 C 0.80767 0.67347 0.85044 0.0
C1937 C 0.80645 0.66506 0.8321 0.0
C1938 C 0.79784 0.66527 0.81465 0.0
H1939 H 0.75158 0.63614 0.79464 0.0
H1940 H 0.77095 0.64054 0.79151 0.0
H1941 H 0.76515 0.64521 0.81587 0.0
H1942 H 0.78644 0.68949 0.83414 0.0
H1943 H 0.80168 0.6895 0.8642 0.0
H1944 H 0.74812 0.70218 0.62188 0.0
H1945 H 0.76139 0.69678 0.59405 0.0
H1946 H 0.73042 0.64853 0.60074 0.0
H1947 H 0.71691 0.65379 0.62863 0.0
H1948 H 0.765 0.66021 0.60196 0.0
H1949 H 0.74386 0.67874 0.53255 0.0
H1950 H 0.75002 0.69123 0.55518 0.0
H1951 H 0.73354 0.67263 0.55709 0.0
C1952 C 0.74397 0.69041 0.61731 0.0
C1953 C 0.73139 0.67842 0.62747 0.0
C1954 C 0.7516 0.68736 0.6014 0.0
C1955 C 0.74688 0.67227 0.59538 0.0
C1956 C 0.73422 0.66026 0.6052 0.0
H1957 H 0.78183 0.6503 0.48389 0.0
H1958 H 0.76564 0.64825 0.51362 0.0
C1959 C 0.72645 0.6633 0.62101 0.0
C1960 C 0.75549 0.66918 0.57914 0.0
H1961 H 0.76436 0.67414 0.52674 0.0
C1962 C 0.76478 0.6631 0.58546 0.0
C1963 C 0.75511 0.67293 0.55768 0.0
C1964 C 0.74503 0.67915 0.55006 0.0
C1965 C 0.77406 0.66106 0.57088 0.0
C1966 C 0.77404 0.66528 0.54951 0.0
C1967 C 0.7644 0.67095 0.54315 0.0
C1968 C 0.78417 0.66435 0.53343 0.0
C1969 C 0.7838 0.65444 0.57841 0.0
C1970 C 0.80005 0.67368 0.53498 0.0
C1971 C 0.80935 0.67486 0.51797 0.0
C1972 C 0.80289 0.66683 0.49909 0.0
C1973 C 0.78711 0.6567 0.49819 0.0
C1974 C 0.77785 0.65552 0.51515 0.0
H1975 H 0.77976 0.64832 0.59369 0.0
H1976 H 0.78393 0.64642 0.56651 0.0
H1977 H 0.79566 0.66383 0.58073 0.0
H1978 H 0.80516 0.68077 0.54881 0.0
H1979 H 0.82143 0.6829 0.51902 0.0
H1980 H 0.34716 0.05074 0.60548 0.0
H1981 H 0.34395 0.06758 0.58051 0.0
H1982 H 0.31846 0.07653 0.62725 0.0
H1983 H 0.32321 0.06098 0.65286 0.0
H1984 H 0.32162 0.06654 0.56222 0.0
H1985 H 0.34462 0.11882 0.61179 0.0
H1986 H 0.34417 0.10177 0.62129 0.0
H1987 H 0.32729 0.10343 0.62191 0.0
C1988 C 0.34144 0.05684 0.61061 0.0
C1989 C 0.33633 0.05543 0.63142 0.0
C1990 C 0.33931 0.06623 0.59624 0.0
C1991 C 0.3314 0.0739 0.6021 0.0
C1992 C 0.32527 0.07149 0.62253 0.0
H1993 H 0.31576 0.13363 0.51283 0.0
H1994 H 0.31205 0.11701 0.54359 0.0
C1995 C 0.32786 0.06248 0.63711 0.0
C1996 C 0.32932 0.0839 0.58642 0.0
H1997 H 0.33546 0.12014 0.57774 0.0
C1998 C 0.32466 0.07824 0.56577 0.0
C1999 C 0.33278 0.09912 0.59096 0.0
C2000 C 0.33759 0.10617 0.61264 0.0
C2001 C 0.32427 0.08752 0.54944 0.0
C2002 C 0.32862 0.10289 0.55377 0.0
C2003 C 0.33227 0.10835 0.57454 0.0
C2004 C 0.3312 0.11382 0.53645 0.0
C2005 C 0.31964 0.08096 0.52746 0.0
C2006 C 0.34347 0.11789 0.52288 0.0
C2007 C 0.34566 0.12737 0.50562 0.0
C2008 C 0.33559 0.13297 0.50147 0.0
C2009 C 0.32368 0.12948 0.51566 0.0
C2010 C 0.32151 0.11995 0.53311 0.0
H2011 H 0.31308 0.06828 0.52769 0.0
H2012 H 0.31267 0.08532 0.51951 0.0
H2013 H 0.33001 0.08451 0.51791 0.0
H2014 H 0.35121 0.11348 0.52545 0.0
H2015 H 0.35512 0.13011 0.49521 0.0
H2016 H 0.96321 0.25993 0.643 0.0
H2017 H 0.94466 0.2457 0.61538 0.0
H2018 H 0.94423 0.28662 0.59598 0.0
H2019 H 0.96259 0.301 0.62407 0.0
H2020 H 0.91555 0.26246 0.60012 0.0
H2021 H 0.95004 0.2449 0.5525 0.0
H2022 H 0.94914 0.23959 0.57979 0.0
H2023 H 0.95833 0.25948 0.57262 0.0
C2024 C 0.95938 0.26604 0.63273 0.0
C2025 C 0.9645 0.28169 0.63582 0.0
C2026 C 0.94878 0.25784 0.61682 0.0
C2027 C 0.94319 0.26511 0.60338 0.0
C2028 C 0.94844 0.28078 0.60612 0.0
H2029 H 0.8804 0.23492 0.49703 0.0
H2030 H 0.89698 0.24922 0.52679 0.0
C2031 C 0.959 0.289 0.62214 0.0
C2032 C 0.93133 0.25615 0.58718 0.0
H2033 H 0.92338 0.23206 0.54517 0.0
C2034 C 0.91731 0.2559 0.58801 0.0
C2035 C 0.93359 0.24756 0.57139 0.0
C2036 C 0.94864 0.248 0.56885 0.0
C2037 C 0.90542 0.24708 0.57373 0.0
C2038 C 0.90764 0.23835 0.55818 0.0
C2039 C 0.92165 0.23863 0.55729 0.0
C2040 C 0.89589 0.22939 0.54196 0.0
C2041 C 0.89049 0.24697 0.57554 0.0
C2042 C 0.88956 0.21346 0.54081 0.0
C2043 C 0.87999 0.20525 0.52387 0.0
C2044 C 0.87682 0.21289 0.50764 0.0
C2045 C 0.88264 0.22875 0.50935 0.0
C2046 C 0.89208 0.23692 0.52635 0.0
H2047 H 0.88941 0.25145 0.59106 0.0
H2048 H 0.88973 0.25427 0.56292 0.0
H2049 H 0.88077 0.23522 0.57341 0.0
H2050 H 0.89244 0.20746 0.55265 0.0
H2051 H 0.87582 0.19307 0.52281 0.0
H2052 H 0.32915 0.26792 0.65178 0.0
H2053 H 0.32722 0.24924 0.62548 0.0
H2054 H 0.35578 0.28609 0.58345 0.0
H2055 H 0.35618 0.30452 0.60885 0.0
H2056 H 0.33595 0.26585 0.56144 0.0
H2057 H 0.33684 0.23146 0.62152 0.0
H2058 H 0.35321 0.25013 0.62389 0.0
H2059 H 0.35522 0.23448 0.61425 0.0
C2060 C 0.33507 0.27196 0.63692 0.0
C2061 C 0.34359 0.28769 0.63276 0.0
C2062 C 0.33412 0.26128 0.62197 0.0
C2063 C 0.34197 0.26614 0.60273 0.0
C2064 C 0.34986 0.28191 0.59827 0.0
H2065 H 0.36569 0.23212 0.49347 0.0
H2066 H 0.36415 0.24646 0.52355 0.0
C2067 C 0.35036 0.29252 0.61294 0.0
C2068 C 0.34159 0.25501 0.58676 0.0
H2069 H 0.34768 0.22471 0.57936 0.0
C2070 C 0.33865 0.25697 0.5655 0.0
C2071 C 0.34463 0.24296 0.59184 0.0
C2072 C 0.34776 0.23972 0.61409 0.0
C2073 C 0.33916 0.24774 0.54931 0.0
C2074 C 0.34283 0.23624 0.55435 0.0
C2075 C 0.34509 0.23372 0.57556 0.0
C2076 C 0.34481 0.22706 0.53763 0.0
C2077 C 0.33568 0.25036 0.52689 0.0
C2078 C 0.335 0.21122 0.53624 0.0
C2079 C 0.33593 0.20295 0.51908 0.0
C2080 C 0.3467 0.21043 0.50312 0.0
C2081 C 0.35715 0.2261 0.50538 0.0
C2082 C 0.35623 0.23432 0.52249 0.0
H2083 H 0.32914 0.25657 0.52639 0.0
H2084 H 0.34652 0.25737 0.51841 0.0
H2085 H 0.32911 0.23938 0.51828 0.0
H2086 H 0.3262 0.20538 0.54789 0.0
H2087 H 0.32769 0.19091 0.51768 0.0
H2088 H 0.7525 0.04739 0.63706 0.0
H2089 H 0.76812 0.06586 0.61034 0.0
H2090 H 0.73218 0.07619 0.59738 0.0
H2091 H 0.71645 0.05784 0.62449 0.0
H2092 H 0.76399 0.06843 0.56765 0.0
H2093 H 0.76834 0.11818 0.61129 0.0
H2094 H 0.76107 0.09957 0.62323 0.0
H2095 H 0.74919 0.10344 0.60582 0.0
C2096 C 0.74778 0.05345 0.62845 0.0
C2097 C 0.73319 0.05116 0.63314 0.0
C2098 C 0.75679 0.06405 0.61315 0.0
C2099 C 0.75148 0.07268 0.60218 0.0
C2100 C 0.73666 0.06993 0.60602 0.0
H2101 H 0.78667 0.14078 0.5043 0.0
H2102 H 0.77269 0.12348 0.53326 0.0
C2103 C 0.7276 0.0593 0.62137 0.0
C2104 C 0.76162 0.08466 0.587 0.0
H2105 H 0.77889 0.12299 0.57689 0.0
C2106 C 0.76732 0.08037 0.56972 0.0
C2107 C 0.76605 0.10026 0.58981 0.0
C2108 C 0.76098 0.10571 0.60863 0.0
C2109 C 0.77696 0.09118 0.55488 0.0
C2110 C 0.78125 0.10676 0.55756 0.0
C2111 C 0.77566 0.11107 0.57492 0.0
C2112 C 0.79063 0.11854 0.54168 0.0
C2113 C 0.78209 0.08578 0.53607 0.0
C2114 C 0.80563 0.12202 0.53732 0.0
C2115 C 0.81371 0.13202 0.52077 0.0
C2116 C 0.80686 0.13863 0.50836 0.0
C2117 C 0.79219 0.13578 0.51358 0.0
C2118 C 0.78418 0.12589 0.5301 0.0
H2119 H 0.77536 0.07318 0.53408 0.0
H2120 H 0.78112 0.09128 0.52131 0.0
H2121 H 0.79421 0.08897 0.53829 0.0
H2122 H 0.81092 0.11667 0.54631 0.0
H2123 H 0.82497 0.13398 0.51701 0.0
H2124 H 0.96628 0.67338 0.60271 0.0
H2125 H 0.95039 0.67728 0.57658 0.0
H2126 H 0.93413 0.69522 0.62556 0.0
H2127 H 0.95043 0.69177 0.65148 0.0
H2128 H 0.92069 0.66452 0.57464 0.0
H2129 H 0.94418 0.72698 0.58084 0.0
H2130 H 0.95349 0.71735 0.59263 0.0
H2131 H 0.93782 0.71745 0.60577 0.0
C2132 C 0.95927 0.67814 0.60779 0.0
C2133 C 0.95917 0.68189 0.62908 0.0
C2134 C 0.95029 0.68046 0.59289 0.0
C2135 C 0.94116 0.68672 0.59901 0.0
C2136 C 0.94131 0.69072 0.62031 0.0
H2137 H 0.8643 0.67299 0.51878 0.0
H2138 H 0.87963 0.67449 0.54992 0.0
C2139 C 0.95047 0.68859 0.63514 0.0
C2140 C 0.93087 0.68817 0.58331 0.0
H2141 H 0.92111 0.71323 0.56105 0.0
C2142 C 0.92073 0.67513 0.57182 0.0
C2143 C 0.93111 0.70215 0.57928 0.0
C2144 C 0.94234 0.71681 0.59012 0.0
C2145 C 0.9108 0.67556 0.55654 0.0
C2146 C 0.91076 0.68942 0.55286 0.0
C2147 C 0.92095 0.70255 0.56422 0.0
C2148 C 0.90113 0.69066 0.53596 0.0
C2149 C 0.90082 0.66126 0.54398 0.0
C2150 C 0.90802 0.69998 0.51836 0.0
C2151 C 0.89928 0.6993 0.5007 0.0
C2152 C 0.88347 0.68925 0.50029 0.0
C2153 C 0.87644 0.68083 0.5186 0.0
C2154 C 0.88521 0.68156 0.53632 0.0
H2155 H 0.90469 0.6527 0.54543 0.0
H2156 H 0.88901 0.65596 0.54996 0.0
H2157 H 0.90062 0.66396 0.52697 0.0
H2158 H 0.92027 0.70718 0.51781 0.0
H2159 H 0.905 0.70615 0.48698 0.0
H2160 H 0.96462 0.68449 0.72346 0.0
H2161 H 0.94899 0.68501 0.75247 0.0
H2162 H 0.91409 0.63922 0.73676 0.0
H2163 H 0.9294 0.63868 0.70764 0.0
H2164 H 0.90234 0.65808 0.74211 0.0
H2165 H 0.9405 0.66408 0.80961 0.0
H2166 H 0.94922 0.6786 0.78975 0.0
H2167 H 0.94334 0.65905 0.78336 0.0
C2168 C 0.95372 0.67445 0.72637 0.0
C2169 C 0.94832 0.66154 0.71319 0.0
C2170 C 0.94479 0.67475 0.74299 0.0
C2171 C 0.93039 0.6621 0.74693 0.0
C2172 C 0.92513 0.64913 0.73403 0.0
H2173 H 0.87727 0.64338 0.86034 0.0
H2174 H 0.89146 0.64273 0.82964 0.0
C2175 C 0.93396 0.64884 0.7174 0.0
C2176 C 0.92051 0.66238 0.764 0.0
H2177 H 0.9186 0.66594 0.8174 0.0
C2178 C 0.90589 0.6598 0.75859 0.0
C2179 C 0.92508 0.66448 0.78551 0.0
C2180 C 0.94033 0.66657 0.7925 0.0
C2181 C 0.89572 0.6592 0.77407 0.0
C2182 C 0.90039 0.66154 0.79554 0.0
C2183 C 0.91503 0.66419 0.80093 0.0
C2184 C 0.89021 0.66088 0.81285 0.0
C2185 C 0.87993 0.65565 0.76733 0.0
C2186 C 0.8844 0.67102 0.81343 0.0
C2187 C 0.8761 0.67127 0.83091 0.0
C2188 C 0.87367 0.66154 0.84821 0.0
C2189 C 0.87899 0.65101 0.84721 0.0
C2190 C 0.88715 0.65068 0.82973 0.0
H2191 H 0.87682 0.65016 0.75148 0.0
H2192 H 0.87131 0.64799 0.77889 0.0
H2193 H 0.87949 0.66643 0.76643 0.0
H2194 H 0.88683 0.67919 0.8008 0.0
H2195 H 0.87233 0.67965 0.83143 0.0
H2196 H 0.336 0.29179 0.73014 0.0
H2197 H 0.33189 0.27329 0.75813 0.0
H2198 H 0.37271 0.27292 0.73987 0.0
H2199 H 0.37716 0.29164 0.71237 0.0
H2200 H 0.32706 0.24438 0.75402 0.0
H2201 H 0.37887 0.27814 0.80282 0.0
H2202 H 0.37283 0.28671 0.78251 0.0
H2203 H 0.38316 0.27703 0.77567 0.0
C2204 C 0.34427 0.288 0.73231 0.0
C2205 C 0.35696 0.29332 0.71897 0.0
C2206 C 0.34185 0.27735 0.74827 0.0
C2207 C 0.35208 0.27182 0.7513 0.0
C2208 C 0.36484 0.27725 0.73821 0.0
H2209 H 0.35541 0.20313 0.83197 0.0
H2210 H 0.35779 0.21985 0.80211 0.0
C2211 C 0.36732 0.28795 0.72237 0.0
C2212 C 0.34907 0.25986 0.76743 0.0
H2213 H 0.36483 0.25142 0.80989 0.0
C2214 C 0.33528 0.24596 0.76632 0.0
C2215 C 0.35979 0.26189 0.78349 0.0
C2216 C 0.37442 0.2768 0.78636 0.0
C2217 C 0.33206 0.234 0.78059 0.0
C2218 C 0.34288 0.23599 0.7964 0.0
C2219 C 0.35663 0.24986 0.79756 0.0
C2220 C 0.33994 0.22415 0.8126 0.0
C2221 C 0.31722 0.21923 0.7785 0.0
C2222 C 0.32888 0.22077 0.82809 0.0
C2223 C 0.32753 0.21127 0.84511 0.0
C2224 C 0.33719 0.20495 0.84694 0.0
C2225 C 0.34769 0.20768 0.83081 0.0
C2226 C 0.34914 0.21731 0.81386 0.0
H2227 H 0.31162 0.21828 0.76292 0.0
H2228 H 0.31905 0.20928 0.78056 0.0
H2229 H 0.30938 0.21868 0.79106 0.0
H2230 H 0.32179 0.22606 0.82756 0.0
H2231 H 0.31937 0.20939 0.85736 0.0
H2232 H 0.73129 0.07824 0.697 0.0
H2233 H 0.74788 0.09781 0.72242 0.0
H2234 H 0.73977 0.06256 0.76802 0.0
H2235 H 0.72195 0.04323 0.74327 0.0
H2236 H 0.73944 0.08376 0.78737 0.0
H2237 H 0.77494 0.11507 0.72664 0.0
H2238 H 0.77308 0.09638 0.72726 0.0
H2239 H 0.7903 0.11262 0.73651 0.0
C2240 C 0.73321 0.07473 0.71243 0.0
C2241 C 0.72605 0.05918 0.71784 0.0
C2242 C 0.74282 0.08592 0.7269 0.0
C2243 C 0.74573 0.08176 0.74697 0.0
C2244 C 0.73805 0.06618 0.75256 0.0
H2245 H 0.80423 0.11771 0.85404 0.0
H2246 H 0.78793 0.10356 0.82414 0.0
C2247 C 0.72807 0.05506 0.7383 0.0
C2248 C 0.7561 0.09349 0.76262 0.0
H2249 H 0.79198 0.12386 0.77013 0.0
C2250 C 0.75093 0.09245 0.78346 0.0
C2251 C 0.77107 0.10522 0.75766 0.0
C2252 C 0.7777 0.10732 0.73585 0.0
C2253 C 0.76036 0.10228 0.79946 0.0
C2254 C 0.7754 0.11352 0.79462 0.0
C2255 C 0.78043 0.11514 0.77374 0.0
C2256 C 0.78635 0.12273 0.8115 0.0
C2257 C 0.75425 0.10045 0.8216 0.0
C2258 C 0.79133 0.13838 0.81381 0.0
C2259 C 0.80066 0.14655 0.83103 0.0
C2260 C 0.80512 0.13914 0.84607 0.0
C2261 C 0.80075 0.12367 0.84293 0.0
C2262 C 0.79145 0.11557 0.82587 0.0
H2263 H 0.74162 0.09373 0.82182 0.0
H2264 H 0.75875 0.09437 0.83143 0.0
H2265 H 0.758 0.11177 0.82896 0.0
H2266 H 0.78756 0.14411 0.80275 0.0
H2267 H 0.80381 0.15843 0.83308 0.0
H2268 H 0.06717 0.38485 0.01541 0.0
H2269 H 0.08501 0.37723 0.02878 0.0
H2270 H 0.04822 0.33151 0.03912 0.0
H2271 H 0.02993 0.33904 0.02547 0.0
H2272 H 0.08422 0.36505 0.07005 0.0
H2273 H 0.08102 0.32611 0.00548 0.0
H2274 H 0.07471 0.33994 0.00182 0.0
H2275 H 0.06339 0.32291 0.01678 0.0
C2276 C 0.06271 0.37311 0.02041 0.0
C2277 C 0.04699 0.36256 0.01932 0.0
C2278 C 0.07302 0.36879 0.02806 0.0
C2279 C 0.068 0.3538 0.03476 0.0
C2280 C 0.05236 0.34311 0.03374 0.0
H2281 H 0.11882 0.31523 0.09515 0.0
H2282 H 0.10035 0.31868 0.07388 0.0
C2283 C 0.04191 0.34746 0.02608 0.0
C2284 C 0.07932 0.34986 0.04365 0.0
H2285 H 0.09807 0.33008 0.03373 0.0
C2286 C 0.08723 0.35737 0.06214 0.0
C2287 C 0.0832 0.33984 0.0333 0.0
C2288 C 0.07525 0.33175 0.01316 0.0
C2289 C 0.09891 0.35518 0.07057 0.0
C2290 C 0.10313 0.34549 0.05993 0.0
C2291 C 0.09501 0.3377 0.04166 0.0
C2292 C 0.11539 0.34277 0.06841 0.0
C2293 C 0.10645 0.36305 0.09106 0.0
C2294 C 0.13032 0.35494 0.07122 0.0
C2295 C 0.14094 0.35297 0.08333 0.0
C2296 C 0.13676 0.33877 0.09269 0.0
C2297 C 0.12233 0.32627 0.08802 0.0
C2298 C 0.11175 0.32825 0.07596 0.0
H2299 H 0.09953 0.36703 0.0997 0.0
H2300 H 0.10842 0.35531 0.10158 0.0
H2301 H 0.11764 0.37318 0.0876 0.0
H2302 H 0.13346 0.3662 0.06519 0.0
H2303 H 0.15191 0.36281 0.08686 0.0
H2304 H 0.67155 0.69104 0.06419 0.0
H2305 H 0.67429 0.71588 0.07329 0.0
H2306 H 0.66487 0.72225 0.00853 0.0
H2307 H 0.66216 0.69739 0.99922 0.0
H2308 H 0.68922 0.74946 0.02913 0.0
H2309 H 0.63607 0.72131 0.07578 0.0
H2310 H 0.64988 0.71571 0.08291 0.0
H2311 H 0.6411 0.71104 0.05713 0.0
C2312 C 0.67026 0.69779 0.05179 0.0
C2313 C 0.66653 0.69215 0.03099 0.0
C2314 C 0.67177 0.71198 0.05705 0.0
C2315 C 0.66955 0.72083 0.04167 0.0
C2316 C 0.66657 0.71559 0.02068 0.0
H2317 H 0.64812 0.79089 0.0814 0.0
H2318 H 0.64893 0.77118 0.05964 0.0
C2319 C 0.66502 0.70137 0.01539 0.0
C2320 C 0.66954 0.73509 0.04779 0.0
H2321 H 0.651 0.74822 0.07889 0.0
C2322 C 0.68082 0.74921 0.0399 0.0
C2323 C 0.65842 0.73475 0.06153 0.0
C2324 C 0.64558 0.7199 0.06971 0.0
C2325 C 0.68157 0.76303 0.04601 0.0
C2326 C 0.67082 0.76271 0.0605 0.0
C2327 C 0.65927 0.74852 0.0678 0.0
C2328 C 0.67172 0.77683 0.06944 0.0
C2329 C 0.69384 0.77782 0.03688 0.0
C2330 C 0.68446 0.787 0.08152 0.0
C2331 C 0.68404 0.79836 0.09372 0.0
C2332 C 0.67089 0.79978 0.09408 0.0
C2333 C 0.65854 0.79032 0.08091 0.0
C2334 C 0.65895 0.77894 0.06868 0.0
H2335 H 0.69791 0.77594 0.02153 0.0
H2336 H 0.68973 0.78613 0.03449 0.0
H2337 H 0.70368 0.78293 0.04799 0.0
H2338 H 0.6943 0.78543 0.08283 0.0
H2339 H 0.69351 0.8052 0.10427 0.0
H2340 H 0.32283 0.97621 0.05804 0.0
H2341 H 0.29832 0.95448 0.06754 0.0
H2342 H 0.29071 0.93917 0.00271 0.0
H2343 H 0.31553 0.96076 0.99315 0.0
H2344 H 0.26944 0.94512 0.05529 0.0
H2345 H 0.28505 0.90129 0.03307 0.0
H2346 H 0.29885 0.92136 0.0345 0.0
H2347 H 0.28623 0.91389 0.01205 0.0
C2348 C 0.31593 0.9683 0.04572 0.0
C2349 C 0.32122 0.97019 0.02484 0.0
C2350 C 0.30188 0.95585 0.0512 0.0
C2351 C 0.29274 0.94497 0.03596 0.0
C2352 C 0.29769 0.94716 0.01488 0.0
H2353 H 0.20164 0.87691 0.08225 0.0
H2354 H 0.22071 0.89451 0.05709 0.0
C2355 C 0.31184 0.9596 0.0094 0.0
C2356 C 0.27824 0.93129 0.04251 0.0
H2357 H 0.26059 0.89237 0.04695 0.0
C2358 C 0.26742 0.93357 0.05325 0.0
C2359 C 0.27564 0.9162 0.04001 0.0
C2360 C 0.28708 0.91297 0.02945 0.0
C2361 C 0.25441 0.92131 0.0622 0.0
C2362 C 0.25186 0.90622 0.05987 0.0
C2363 C 0.26242 0.90389 0.04851 0.0
C2364 C 0.23952 0.89309 0.07154 0.0
C2365 C 0.24401 0.92479 0.07514 0.0
C2366 C 0.24345 0.88547 0.08687 0.0
C2367 C 0.23255 0.87522 0.10086 0.0
C2368 C 0.21745 0.87234 0.09984 0.0
C2369 C 0.21316 0.87882 0.08326 0.0
C2370 C 0.22412 0.88908 0.06913 0.0
H2371 H 0.24924 0.93715 0.07892 0.0
H2372 H 0.23335 0.92141 0.06607 0.0
H2373 H 0.24099 0.91828 0.09021 0.0
H2374 H 0.2552 0.88825 0.08901 0.0
H2375 H 0.23617 0.87044 0.11358 0.0
H2376 H 0.34102 0.02512 0.98334 0.0
H2377 H 0.33377 0.04376 0.97033 0.0
H2378 H 0.37424 0.08028 0.99887 0.0
H2379 H 0.38161 0.06203 0.01169 0.0
H2380 H 0.32947 0.06682 0.99254 0.0
H2381 H 0.37732 0.09253 0.93599 0.0
H2382 H 0.37112 0.07416 0.94818 0.0
H2383 H 0.38295 0.09143 0.96269 0.0
C2384 C 0.34835 0.03711 0.98689 0.0
C2385 C 0.36203 0.04201 0.99834 0.0
C2386 C 0.34417 0.04775 0.97949 0.0
C2387 C 0.3536 0.06345 0.98334 0.0
C2388 C 0.36693 0.06828 0.99535 0.0
H2389 H 0.35854 0.14708 0.93636 0.0
H2390 H 0.36125 0.12884 0.95942 0.0
C2391 C 0.37112 0.05774 0.00268 0.0
C2392 C 0.34993 0.075 0.97438 0.0
H2393 H 0.36366 0.10572 0.94113 0.0
C2394 C 0.33689 0.07529 0.98123 0.0
C2395 C 0.35964 0.0861 0.95968 0.0
C2396 C 0.37347 0.08601 0.95103 0.0
C2397 C 0.33348 0.08658 0.97405 0.0
C2398 C 0.34327 0.09773 0.95942 0.0
C2399 C 0.35626 0.09735 0.95257 0.0
C2400 C 0.3399 0.10932 0.94976 0.0
C2401 C 0.31961 0.08662 0.9825 0.0
C2402 C 0.32669 0.10461 0.93741 0.0
C2403 C 0.32508 0.11505 0.92446 0.0
C2404 C 0.33668 0.13041 0.92348 0.0
C2405 C 0.34929 0.1354 0.93714 0.0
C2406 C 0.35092 0.12493 0.95011 0.0
H2407 H 0.31619 0.08074 0.99804 0.0
H2408 H 0.32161 0.09845 0.98428 0.0
H2409 H 0.30997 0.08043 0.97127 0.0
H2410 H 0.31817 0.09264 0.93646 0.0
H2411 H 0.31539 0.11086 0.91377 0.0
H2412 H 0.96644 0.31769 0.02086 0.0
H2413 H 0.94459 0.29273 0.01227 0.0
H2414 H 0.95898 0.29819 0.94732 0.0
H2415 H 0.98099 0.32296 0.95589 0.0
H2416 H 0.92125 0.28629 0.98576 0.0
H2417 H 0.95046 0.25533 0.95894 0.0
H2418 H 0.96029 0.27323 0.97305 0.0
H2419 H 0.95699 0.27298 0.94495 0.0
C2420 C 0.9651 0.31347 0.00482 0.0
C2421 C 0.97553 0.32231 0.98908 0.0
C2422 C 0.95255 0.2992 -9e-05 0.0
C2423 C 0.9502 0.29343 0.9792 0.0
C2424 C 0.96071 0.30217 0.96353 0.0
H2425 H 0.8716 0.23528 0.90777 0.0
H2426 H 0.89011 0.2551 0.93114 0.0
C2427 C 0.97328 0.3164 0.96843 0.0
C2428 C 0.9363 0.27875 0.97362 0.0
H2429 H 0.92437 0.24498 0.94769 0.0
C2430 C 0.92194 0.27716 0.97771 0.0
C2431 C 0.93709 0.26664 0.96353 0.0
C2432 C 0.95204 0.26704 0.96007 0.0
C2433 C 0.90844 0.2642 0.97096 0.0
C2434 C 0.9093 0.25264 0.95941 0.0
C2435 C 0.92363 0.25385 0.95637 0.0
C2436 C 0.89581 0.23998 0.94856 0.0
C2437 C 0.89341 0.26313 0.97613 0.0
C2438 C 0.89247 0.22471 0.95076 0.0
C2439 C 0.88181 0.21332 0.93731 0.0
C2440 C 0.87439 0.21704 0.92139 0.0
C2441 C 0.87692 0.23206 0.92023 0.0
C2442 C 0.88755 0.24342 0.93361 0.0
H2443 H 0.89422 0.26932 0.99103 0.0
H2444 H 0.89019 0.26856 0.96326 0.0
H2445 H 0.88424 0.25108 0.97776 0.0
H2446 H 0.89874 0.22177 0.96207 0.0
H2447 H 0.88032 0.2019 0.93819 0.0
H2448 H 0.69197 0.62539 0.01086 0.0
H2449 H 0.71668 0.63113 0.99753 0.0
H2450 H 0.72676 0.67695 0.98239 0.0
H2451 H 0.70173 0.67131 0.99577 0.0
H2452 H 0.72687 0.64157 0.95442 0.0
H2453 H 0.76518 0.68138 0.01654 0.0
H2454 H 0.7453 0.66817 0.02127 0.0
H2455 H 0.75067 0.68491 0.00555 0.0
C2456 C 0.69937 0.63677 0.00483 0.0
C2457 C 0.69472 0.64788 0.00439 0.0
C2458 C 0.71357 0.64001 0.99722 0.0
C2459 C 0.72363 0.65447 0.98912 0.0
C2460 C 0.71923 0.66574 0.98882 0.0
H2461 H 0.81016 0.69028 0.92658 0.0
H2462 H 0.78915 0.68703 0.94893 0.0
C2463 C 0.70488 0.66248 0.99638 0.0
C2464 C 0.73828 0.65725 0.97999 0.0
H2465 H 0.77682 0.67614 0.98802 0.0
C2466 C 0.7378 0.64912 0.96176 0.0
C2467 C 0.75251 0.66712 0.98958 0.0
C2468 C 0.75358 0.67588 0.0094 0.0
C2469 C 0.75114 0.6507 0.9527 0.0
C2470 C 0.76541 0.66033 0.96252 0.0
C2471 C 0.7659 0.66858 0.98069 0.0
C2472 C 0.77991 0.66271 0.95317 0.0
C2473 C 0.74982 0.64238 0.93229 0.0
C2474 C 0.78236 0.65032 0.94927 0.0
C2475 C 0.79444 0.65219 0.9365 0.0
C2476 C 0.80435 0.66652 0.92772 0.0
C2477 C 0.80279 0.67916 0.93343 0.0
C2478 C 0.79071 0.67728 0.94606 0.0
H2479 H 0.73873 0.6387 0.92417 0.0
H2480 H 0.75909 0.6497 0.92129 0.0
H2481 H 0.75067 0.63201 0.93577 0.0
H2482 H 0.77438 0.63902 0.95499 0.0
H2483 H 0.79526 0.64223 0.93206 0.0
H2484 H 0.97209 0.65701 0.02177 0.0
H2485 H 0.95003 0.65996 0.01238 0.0
H2486 H 0.96559 0.67009 0.94805 0.0
H2487 H 0.98762 0.66719 0.95725 0.0
H2488 H 0.94809 0.68557 0.99225 0.0
H2489 H 0.92166 0.63232 0.9445 0.0
H2490 H 0.93666 0.63663 0.96361 0.0
H2491 H 0.94109 0.64561 0.93807 0.0
C2492 C 0.97089 0.66 0.00567 0.0
C2493 C 0.98159 0.66177 0.99023 0.0
C2494 C 0.95829 0.6617 0.00034 0.0
C2495 C 0.95606 0.66505 0.97946 0.0
C2496 C 0.96698 0.66731 0.9642 0.0
H2497 H 0.89932 0.69311 0.91508 0.0
H2498 H 0.91893 0.69253 0.93746 0.0
C2499 C 0.97961 0.6657 0.96952 0.0
C2500 C 0.94208 0.66563 0.97332 0.0
H2501 H 0.91056 0.64825 0.94144 0.0
C2502 C 0.9398 0.67735 0.98128 0.0
C2503 C 0.93114 0.65475 0.9593 0.0
C2504 C 0.93262 0.64152 0.95097 0.0
C2505 C 0.92718 0.67882 0.97489 0.0
C2506 C 0.91661 0.66835 0.96007 0.0
C2507 C 0.91863 0.6563 0.95279 0.0
C2508 C 0.90402 0.67017 0.95058 0.0
C2509 C 0.92529 0.6916 0.98399 0.0
C2510 C 0.88894 0.65802 0.9509 0.0
C2511 C 0.87767 0.65841 0.93819 0.0
C2512 C 0.88133 0.67093 0.92485 0.0
C2513 C 0.89613 0.68352 0.92566 0.0
C2514 C 0.90737 0.68316 0.93841 0.0
H2515 H 0.93121 0.69544 -0.00048 0.0
H2516 H 0.93034 0.7015 0.97304 0.0
H2517 H 0.91308 0.68805 0.98601 0.0
H2518 H 0.88609 0.64783 0.96002 0.0
H2519 H 0.86646 0.64841 0.93741 0.0
H2520 H 0.34508 0.318 0.97999 0.0
H2521 H 0.33786 0.29238 0.96657 0.0
H2522 H 0.37265 0.29154 0.00569 0.0
H2523 H 0.37983 0.31681 0.01918 0.0
H2524 H 0.35704 0.28445 0.94475 0.0
H2525 H 0.33568 0.24973 0.01754 0.0
H2526 H 0.33776 0.26856 0.01503 0.0
H2527 H 0.35403 0.26637 0.02106 0.0
C2528 C 0.35103 0.31225 0.98594 0.0
C2529 C 0.36308 0.31954 0.00062 0.0
C2530 C 0.34691 0.29763 0.97824 0.0
C2531 C 0.35458 0.28993 0.98534 0.0
C2532 C 0.36636 0.29707 0.00028 0.0
H2533 H 0.36859 0.22274 0.92065 0.0
H2534 H 0.37124 0.24398 0.9426 0.0
C2535 C 0.37054 0.31165 0.00783 0.0
C2536 C 0.35122 0.275 0.97609 0.0
H2537 H 0.34214 0.23841 0.989 0.0
C2538 C 0.35363 0.27435 0.95439 0.0
C2539 C 0.34669 0.26177 0.98864 0.0
C2540 C 0.34324 0.26155 0.01183 0.0
C2541 C 0.35215 0.26102 0.94508 0.0
C2542 C 0.34833 0.24803 0.95782 0.0
C2543 C 0.34535 0.24846 0.97935 0.0
C2544 C 0.34716 0.2339 0.94869 0.0
C2545 C 0.35472 0.26095 0.92161 0.0
C2546 C 0.33287 0.2208 0.94598 0.0
C2547 C 0.33139 0.2086 0.93365 0.0
C2548 C 0.34419 0.20925 0.9241 0.0
C2549 C 0.35863 0.2218 0.92831 0.0
C2550 C 0.3601 0.23402 0.94057 0.0
H2551 H 0.35436 0.27054 0.91337 0.0
H2552 H 0.36607 0.26208 0.91899 0.0
H2553 H 0.34603 0.25003 0.91435 0.0
H2554 H 0.32274 0.22049 0.95208 0.0
H2555 H 0.32011 0.19923 0.93013 0.0
H2556 H 0.7049 0.05074 0.02382 0.0
H2557 H 0.73007 0.07193 0.01465 0.0
H2558 H 0.72376 0.0554 0.95054 0.0
H2559 H 0.69866 0.03424 0.9595 0.0
H2560 H 0.757 0.07285 0.99467 0.0
H2561 H 0.73038 0.0999 0.94666 0.0
H2562 H 0.71992 0.08517 0.96592 0.0
H2563 H 0.72383 0.08021 0.94038 0.0
C2564 C 0.70896 0.05148 0.00785 0.0
C2565 C 0.6997 0.04084 0.99235 0.0
C2566 C 0.72335 0.0636 0.00264 0.0
C2567 C 0.72868 0.06536 0.98184 0.0
C2568 C 0.71978 0.05436 0.96662 0.0
H2569 H 0.81094 0.11774 0.91556 0.0
H2570 H 0.79157 0.0996 0.9395 0.0
C2571 C 0.70544 0.04223 0.97181 0.0
C2572 C 0.74312 0.07909 0.97562 0.0
H2573 H 0.75702 0.11013 0.94302 0.0
C2574 C 0.75704 0.0811 0.98354 0.0
C2575 C 0.74315 0.09001 0.96144 0.0
C2576 C 0.72853 0.08886 0.95321 0.0
C2577 C 0.771 0.09339 0.97684 0.0
C2578 C 0.77103 0.10384 0.96172 0.0
C2579 C 0.75706 0.10216 0.95459 0.0
C2580 C 0.78518 0.11574 0.95149 0.0
C2581 C 0.78559 0.095 0.98589 0.0
C2582 C 0.78846 0.13105 0.95067 0.0
C2583 C 0.79963 0.14148 0.93698 0.0
C2584 C 0.80759 0.13672 0.9238 0.0
C2585 C 0.80515 0.12176 0.92587 0.0
C2586 C 0.79405 0.11137 0.93956 0.0
H2587 H 0.78379 0.08969 0.00181 0.0
H2588 H 0.78974 0.08906 0.97539 0.0
H2589 H 0.79455 0.10718 0.98709 0.0
H2590 H 0.78171 0.13467 0.95961 0.0
H2591 H 0.80107 0.15284 0.93534 0.0
H2592 H 0.64509 0.95552 0.98801 0.0
H2593 H 0.64933 0.93494 0.0005 0.0
H2594 H 0.66951 0.96 0.05804 0.0
H2595 H 0.66605 0.98114 0.04494 0.0
H2596 H 0.68388 0.94542 0.04642 0.0
H2597 H 0.62211 0.90434 0.04213 0.0
H2598 H 0.62968 0.91246 0.01683 0.0
H2599 H 0.62972 0.92451 0.03785 0.0
C2600 C 0.65062 0.95675 0.00321 0.0
C2601 C 0.65513 0.9699 0.01558 0.0
C2602 C 0.6529 0.94488 0.01044 0.0
C2603 C 0.65923 0.9456 0.03056 0.0
C2604 C 0.66444 0.95907 0.04254 0.0
H2605 H 0.64566 0.87223 0.11205 0.0
H2606 H 0.64355 0.8907 0.08923 0.0
C2607 C 0.6625 0.97117 0.03505 0.0
C2608 C 0.65995 0.93215 0.03933 0.0
H2609 H 0.63815 0.89402 0.05 0.0
C2610 C 0.67388 0.93418 0.0472 0.0
C2611 C 0.64686 0.91746 0.04062 0.0
C2612 C 0.63123 0.91458 0.03412 0.0
C2613 C 0.67508 0.92206 0.0565 0.0
C2614 C 0.66206 0.90729 0.05728 0.0
C2615 C 0.64819 0.90523 0.04911 0.0
C2616 C 0.66209 0.8943 0.06878 0.0
C2617 C 0.69011 0.92542 0.06627 0.0
C2618 C 0.67264 0.88939 0.06427 0.0
C2619 C 0.67389 0.87879 0.07749 0.0
C2620 C 0.66443 0.87276 0.09515 0.0
C2621 C 0.653 0.87662 0.09842 0.0
C2622 C 0.65187 0.88727 0.08544 0.0
H2623 H 0.69774 0.93786 0.06886 0.0
H2624 H 0.68842 0.91949 0.08169 0.0
H2625 H 0.69597 0.92136 0.05551 0.0
H2626 H 0.68034 0.89426 0.05112 0.0
H2627 H 0.68289 0.87612 0.07478 0.0
H2628 H 0.07123 0.70036 0.99831 0.0
H2629 H 0.08791 0.72582 0.01258 0.0
H2630 H 0.05249 0.72085 0.05465 0.0
H2631 H 0.03548 0.6952 0.04024 0.0
H2632 H 0.08129 0.75333 0.01891 0.0
H2633 H 0.09295 0.72781 0.09029 0.0
H2634 H 0.08657 0.71749 0.06562 0.0
H2635 H 0.07354 0.72031 0.0814 0.0
C2636 C 0.06686 0.70468 0.01045 0.0
C2637 C 0.05202 0.69564 0.01826 0.0
C2638 C 0.07642 0.7193 0.01849 0.0
C2639 C 0.07145 0.72519 0.03467 0.0
C2640 C 0.0565 0.71648 0.04211 0.0
H2641 H 0.1184 0.81002 0.10474 0.0
H2642 H 0.10058 0.78976 0.08093 0.0
C2643 C 0.04681 0.70184 0.03386 0.0
C2644 C 0.08241 0.7399 0.04475 0.0
H2645 H 0.10612 0.75457 0.08758 0.0
C2646 C 0.08664 0.75366 0.034 0.0
C2647 C 0.08951 0.74023 0.06426 0.0
C2648 C 0.08554 0.72572 0.07616 0.0
C2649 C 0.09779 0.76778 0.04242 0.0
C2650 C 0.10492 0.76806 0.06189 0.0
C2651 C 0.10068 0.75429 0.07258 0.0
C2652 C 0.1166 0.78248 0.07194 0.0
C2653 C 0.1021 0.78229 0.03039 0.0
C2654 C 0.13169 0.7855 0.07408 0.0
C2655 C 0.14196 0.79724 0.0874 0.0
C2656 C 0.1372 0.80597 0.099 0.0
C2657 C 0.12241 0.80364 0.09564 0.0
C2658 C 0.11221 0.79202 0.08215 0.0
H2659 H 0.09695 0.78001 0.01428 0.0
H2660 H 0.09817 0.78921 0.03919 0.0
H2661 H 0.11467 0.78921 0.02907 0.0
H2662 H 0.13525 0.77817 0.06646 0.0
H2663 H 0.15316 0.79858 0.0901 0.0
H2664 H 0.3233 0.3434 0.05838 0.0
H2665 H 0.2985 0.34012 0.06797 0.0
H2666 H 0.29359 0.3549 0.0057 0.0
H2667 H 0.31841 0.35807 0.99588 0.0
H2668 H 0.29127 0.3631 0.06895 0.0
H2669 H 0.25181 0.31696 0.01468 0.0
H2670 H 0.27105 0.32093 0.01978 0.0
H2671 H 0.26753 0.33286 0.00203 0.0
C2672 C 0.31687 0.34574 0.04657 0.0
C2673 C 0.32288 0.351 0.02633 0.0
C2674 C 0.30267 0.34387 0.05211 0.0
C2675 C 0.29405 0.34714 0.03754 0.0
C2676 C 0.29984 0.35203 0.01712 0.0
H2677 H 0.22479 0.36841 0.08082 0.0
H2678 H 0.24485 0.36808 0.05966 0.0
C2679 C 0.31409 0.35391 0.01155 0.0
C2680 C 0.27965 0.3465 0.0444 0.0
H2681 H 0.24121 0.32907 0.03518 0.0
C2682 C 0.28034 0.35568 0.0615 0.0
C2683 C 0.26534 0.33674 0.03482 0.0
C2684 C 0.26377 0.3262 0.01692 0.0
C2685 C 0.26722 0.35539 0.06928 0.0
C2686 C 0.25294 0.34583 0.05951 0.0
C2687 C 0.25217 0.33656 0.04246 0.0
C2688 C 0.23871 0.34485 0.06777 0.0
C2689 C 0.26871 0.36507 0.08831 0.0
C2690 C 0.22795 0.33158 0.0782 0.0
C2691 C 0.21635 0.3317 0.09004 0.0
C2692 C 0.21522 0.34504 0.09146 0.0
C2693 C 0.22518 0.35787 0.07955 0.0
C2694 C 0.23677 0.35775 0.06771 0.0
H2695 H 0.27982 0.36925 0.0966 0.0
H2696 H 0.26783 0.37515 0.08311 0.0
H2697 H 0.25945 0.35852 0.09973 0.0
H2698 H 0.22923 0.3215 0.07854 0.0
H2699 H 0.20908 0.3218 0.09955 0.0
H2700 H 0.72859 0.70993 0.32089 0.0
H2701 H 0.74912 0.70538 0.33232 0.0
H2702 H 0.72232 0.67942 0.38556 0.0
H2703 H 0.70132 0.68326 0.37343 0.0
H2704 H 0.76576 0.71493 0.3651 0.0
H2705 H 0.73783 0.65201 0.36795 0.0
H2706 H 0.72884 0.66181 0.35576 0.0
H2707 H 0.72786 0.65876 0.38396 0.0
C2708 C 0.72693 0.70301 0.33484 0.0
C2709 C 0.71328 0.69691 0.34623 0.0
C2710 C 0.73873 0.70044 0.34139 0.0
C2711 C 0.73732 0.6919 0.3597 0.0
C2712 C 0.72361 0.68565 0.37103 0.0
H2713 H 0.8077 0.70281 0.44456 0.0
H2714 H 0.79042 0.70618 0.42089 0.0
C2715 C 0.71162 0.68795 0.36418 0.0
C2716 C 0.75063 0.69064 0.36771 0.0
H2717 H 0.76122 0.66567 0.38794 0.0
C2718 C 0.76476 0.70409 0.36977 0.0
C2719 C 0.74959 0.67652 0.37343 0.0
C2720 C 0.73525 0.66146 0.36993 0.0
C2721 C 0.7776 0.7039 0.37816 0.0
C2722 C 0.77623 0.68997 0.3855 0.0
C2723 C 0.76231 0.67641 0.38256 0.0
C2724 C 0.78854 0.68937 0.398 0.0
C2725 C 0.79251 0.71871 0.37904 0.0
C2726 C 0.79343 0.67885 0.39311 0.0
C2727 C 0.80331 0.67682 0.40686 0.0
C2728 C 0.80838 0.68526 0.4257 0.0
C2729 C 0.80416 0.69636 0.42993 0.0
C2730 C 0.79428 0.69831 0.41635 0.0
H2731 H 0.79326 0.72643 0.36591 0.0
H2732 H 0.79326 0.72467 0.3941 0.0
H2733 H 0.8024 0.71677 0.37813 0.0
H2734 H 0.7891 0.67175 0.37912 0.0
H2735 H 0.80615 0.66799 0.40349 0.0
H2736 H 0.33929 0.02494 0.39636 0.0
H2737 H 0.34271 0.05015 0.40499 0.0
H2738 H 0.33213 0.0557 0.34046 0.0
H2739 H 0.32872 0.03049 0.33164 0.0
H2740 H 0.35755 0.08274 0.35931 0.0
H2741 H 0.30579 0.05758 0.40893 0.0
H2742 H 0.31924 0.05141 0.41563 0.0
H2743 H 0.3097 0.04641 0.39037 0.0
C2744 C 0.33783 0.03156 0.38393 0.0
C2745 C 0.33363 0.02563 0.36334 0.0
C2746 C 0.33973 0.04595 0.38892 0.0
C2747 C 0.33747 0.05472 0.37344 0.0
C2748 C 0.33388 0.04911 0.35267 0.0
H2749 H 0.32108 0.12821 0.41312 0.0
H2750 H 0.32034 0.10784 0.39108 0.0
C2751 C 0.33191 0.03468 0.34768 0.0
C2752 C 0.33825 0.06943 0.37919 0.0
H2753 H 0.32167 0.08446 0.41069 0.0
C2754 C 0.34965 0.08314 0.37042 0.0
C2755 C 0.32778 0.06993 0.39338 0.0
C2756 C 0.31484 0.05555 0.40251 0.0
C2757 C 0.35119 0.09736 0.37613 0.0
C2758 C 0.34112 0.09789 0.39108 0.0
C2759 C 0.32941 0.08412 0.39923 0.0
C2760 C 0.34301 0.11249 0.39977 0.0
C2761 C 0.36357 0.11168 0.36612 0.0
C2762 C 0.35625 0.12237 0.41121 0.0
C2763 C 0.35672 0.13409 0.42358 0.0
C2764 C 0.34397 0.13617 0.42477 0.0
C2765 C 0.3312 0.12712 0.41201 0.0
C2766 C 0.33071 0.11535 0.39964 0.0
H2767 H 0.36698 0.10921 0.35062 0.0
H2768 H 0.35991 0.12033 0.36377 0.0
H2769 H 0.37375 0.11666 0.37665 0.0
H2770 H 0.36576 0.12024 0.41201 0.0
H2771 H 0.36651 0.14062 0.43377 0.0
H2772 H 0.9844 0.29281 0.328 0.0
H2773 H 0.95977 0.27155 0.33886 0.0
H2774 H 0.96455 0.29326 0.39925 0.0
H2775 H 0.98923 0.31435 0.38868 0.0
H2776 H 0.95732 0.26358 0.4035 0.0
H2777 H 0.91805 0.26788 0.34532 0.0
H2778 H 0.93366 0.26675 0.33388 0.0
H2779 H 0.93732 0.28311 0.34948 0.0
C2780 C 0.98009 0.29318 0.34346 0.0
C2781 C 0.98881 0.30531 0.35745 0.0
C2782 C 0.96595 0.28102 0.34963 0.0
C2783 C 0.96018 0.28081 0.36984 0.0
C2784 C 0.96872 0.29313 0.38358 0.0
H2785 H 0.87468 0.22909 0.43102 0.0
H2786 H 0.89558 0.24628 0.40813 0.0
C2787 C 0.98283 0.30523 0.37747 0.0
C2788 C 0.9458 0.26741 0.37736 0.0
H2789 H 0.90739 0.24652 0.36832 0.0
C2790 C 0.94642 0.25981 0.39572 0.0
C2791 C 0.93153 0.2625 0.3673 0.0
C2792 C 0.93 0.27054 0.34801 0.0
C2793 C 0.93324 0.24768 0.40449 0.0
C2794 C 0.91896 0.24269 0.39439 0.0
C2795 C 0.91833 0.25016 0.37587 0.0
C2796 C 0.90451 0.23085 0.40415 0.0
C2797 C 0.93466 0.24077 0.42505 0.0
C2798 C 0.90196 0.21604 0.40853 0.0
C2799 C 0.8899 0.20613 0.42157 0.0
C2800 C 0.88014 0.21084 0.43023 0.0
C2801 C 0.8819 0.2251 0.42426 0.0
C2802 C 0.89392 0.23497 0.41129 0.0
H2803 H 0.94582 0.248 0.43299 0.0
H2804 H 0.9255 0.23909 0.43612 0.0
H2805 H 0.93361 0.22945 0.42186 0.0
H2806 H 0.90982 0.21248 0.4029 0.0
H2807 H 0.88896 0.19532 0.42622 0.0
H2808 H 0.05403 0.3965 0.33218 0.0
H2809 H 0.04705 0.41512 0.31992 0.0
H2810 H 1.00084 0.37925 0.30971 0.0
H2811 H 1.00783 0.36023 0.32174 0.0
H2812 H 0.01138 0.39929 0.27666 0.0
H2813 H 0.02425 0.43228 0.35097 0.0
H2814 H 0.04017 0.43057 0.34224 0.0
H2815 H 0.02287 0.41372 0.34981 0.0
C2816 C 0.04232 0.39244 0.32746 0.0
C2817 C 0.03147 0.37675 0.32813 0.0
C2818 C 0.03832 0.40322 0.32059 0.0
C2819 C 0.02333 0.39872 0.31441 0.0
C2820 C 0.01246 0.38305 0.31465 0.0
H2821 H 0.9849 0.45181 0.25726 0.0
H2822 H 0.98778 0.43301 0.27871 0.0
C2823 C 0.01648 0.37217 0.3215 0.0
C2824 C 0.01935 0.4104 0.30679 0.0
H2825 H 0.02222 0.44478 0.31958 0.0
C2826 C 0.01353 0.4091 0.28617 0.0
C2827 C 0.02218 0.42329 0.31916 0.0
C2828 C 0.02757 0.42499 0.34185 0.0
C2829 C 0.01104 0.42055 0.27733 0.0
C2830 C 0.01429 0.43362 0.2895 0.0
C2831 C 0.01981 0.43481 0.31025 0.0
C2832 C 0.01233 0.44626 0.28051 0.0
C2833 C 1.00544 0.41884 0.25475 0.0
C2834 C 0.0251 0.46038 0.27556 0.0
C2835 C 0.02344 0.47124 0.26351 0.0
C2836 C 0.00898 0.46817 0.25641 0.0
C2837 C 0.99614 0.45458 0.2629 0.0
C2838 C 0.9978 0.44375 0.27489 0.0
H2839 H 1.00625 0.40963 0.24628 0.0
H2840 H 0.99333 0.41599 0.25462 0.0
H2841 H 0.01204 0.42971 0.24593 0.0
H2842 H 0.03643 0.46256 0.27975 0.0
H2843 H 0.03353 0.48144 0.25828 0.0
H2844 H 0.6357 0.64531 0.36018 0.0
H2845 H 0.61505 0.61923 0.35349 0.0
H2846 H 0.62394 0.62582 0.28658 0.0
H2847 H 0.64482 0.65153 0.29322 0.0
H2848 H 0.58955 0.61022 0.33315 0.0
H2849 H 0.61938 0.58452 0.29258 0.0
H2850 H 0.62953 0.60247 0.30649 0.0
H2851 H 0.62333 0.60189 0.27946 0.0
C2852 C 0.63345 0.64106 0.34409 0.0
C2853 C 0.64198 0.65049 0.32725 0.0
C2854 C 0.62161 0.62615 0.34027 0.0
C2855 C 0.61803 0.62037 0.31954 0.0
C2856 C 0.62671 0.62974 0.30278 0.0
H2857 H 0.53615 0.56483 0.25665 0.0
H2858 H 0.55565 0.5825 0.28101 0.0
C2859 C 0.63863 0.64454 0.3066 0.0
C2860 C 0.60449 0.60514 0.31506 0.0
H2861 H 0.59242 0.57352 0.28399 0.0
C2862 C 0.59024 0.60205 0.32275 0.0
C2863 C 0.60528 0.59416 0.30201 0.0
C2864 C 0.62025 0.59587 0.2949 0.0
C2865 C 0.57675 0.58893 0.31646 0.0
C2866 C 0.57742 0.57883 0.30152 0.0
C2867 C 0.59175 0.58131 0.29515 0.0
C2868 C 0.5636 0.56686 0.29033 0.0
C2869 C 0.5619 0.58621 0.32567 0.0
C2870 C 0.56127 0.55198 0.28749 0.0
C2871 C 0.5501 0.54184 0.27328 0.0
C2872 C 0.54111 0.54646 0.26175 0.0
C2873 C 0.54272 0.5609 0.26573 0.0
C2874 C 0.55389 0.57102 0.27973 0.0
H2875 H 0.56358 0.59049 0.34219 0.0
H2876 H 0.55755 0.59261 0.31629 0.0
H2877 H 0.5532 0.5739 0.32557 0.0
H2878 H 0.56866 0.54851 0.29534 0.0
H2879 H 0.54929 0.5309 0.27011 0.0
H2880 H 0.36675 1.00541 0.31691 0.0
H2881 H 0.39195 0.01287 0.30222 0.0
H2882 H 0.39242 0.97562 0.33549 0.0
H2883 H 0.3675 0.96805 0.34995 0.0
H2884 H 0.42105 0.02017 0.32219 0.0
H2885 H 0.39753 0.96776 0.27297 0.0
H2886 H 0.38563 0.97427 0.28504 0.0
H2887 H 0.39288 0.96416 0.30049 0.0
C2888 C 0.37228 0.99888 0.32119 0.0
C2889 C 0.36493 0.98597 0.33436 0.0
C2890 C 0.38668 1.00317 0.3128 0.0
C2891 C 0.39394 0.99462 0.31745 0.0
C2892 C 0.38692 0.9822 0.33132 0.0
H2893 H 0.47145 0.98941 0.269 0.0
H2894 H 0.45148 0.98769 0.29252 0.0
C2895 C 0.37261 0.97789 0.33959 0.0
C2896 C 0.40855 0.99812 0.30731 0.0
H2897 H 0.42436 0.98257 0.27526 0.0
C2898 C 0.42179 0.012 0.31184 0.0
C2899 C 0.40953 0.98744 0.29385 0.0
C2900 C 0.39562 0.97263 0.28761 0.0
C2901 C 0.43601 0.01532 0.3036 0.0
C2902 C 0.43698 1.00456 0.29028 0.0
C2903 C 0.42371 0.99074 0.28571 0.0
C2904 C 0.45133 0.00761 0.27969 0.0
C2905 C 0.44991 0.03019 0.30955 0.0
C2906 C 0.45836 0.01971 0.26526 0.0
C2907 C 0.46982 0.02076 0.25199 0.0
C2908 C 0.47446 0.00967 0.25276 0.0
C2909 C 0.46829 0.99824 0.2683 0.0
C2910 C 0.45676 0.99717 0.28158 0.0
H2911 H 0.44823 0.03486 0.32454 0.0
H2912 H 0.46009 0.02875 0.31132 0.0
H2913 H 0.45219 0.03871 0.29689 0.0
H2914 H 0.45423 0.02774 0.26315 0.0
H2915 H 0.47426 0.02958 0.23997 0.0
H2916 H 0.65476 1.00391 0.29509 0.0
H2917 H 0.63209 1.00554 0.28549 0.0
H2918 H 0.61104 0.98355 0.34411 0.0
H2919 H 0.6339 0.98233 0.35409 0.0
H2920 H 0.60431 0.98283 0.27841 0.0
H2921 H 0.60163 0.0179 0.34373 0.0
H2922 H 0.61819 0.01596 0.33917 0.0
H2923 H 0.60203 1.00117 0.35273 0.0
C2924 C 0.6454 0.99964 0.30611 0.0
C2925 C 0.64618 0.99304 0.3254 0.0
C2926 C 0.63241 1.00054 0.30058 0.0
C2927 C 0.61984 0.99482 0.31414 0.0
C2928 C 0.62067 0.98839 0.33356 0.0
H2929 H 0.53211 0.97413 0.25714 0.0
H2930 H 0.55067 0.97138 0.27947 0.0
C2931 C 0.63374 0.98763 0.33921 0.0
C2932 C 0.6056 0.99473 0.30722 0.0
H2933 H 0.58018 0.00641 0.32057 0.0
C2934 C 0.59905 0.98798 0.28768 0.0
C2935 C 0.59872 1.00153 0.31919 0.0
C2936 C 0.60557 0.00968 0.33977 0.0
C2937 C 0.58602 0.98798 0.27966 0.0
C2938 C 0.57893 0.99448 0.29182 0.0
C2939 C 0.58541 1.00117 0.31143 0.0
C2940 C 0.56572 0.9957 0.28335 0.0
C2941 C 0.58039 0.98158 0.25778 0.0
C2942 C 0.56726 0.01018 0.27976 0.0
C2943 C 0.55645 0.01171 0.26755 0.0
C2944 C 0.54387 0.9988 0.25877 0.0
C2945 C 0.54154 0.98424 0.26409 0.0
C2946 C 0.5523 0.98269 0.2765 0.0
H2947 H 0.58914 0.98046 0.24869 0.0
H2948 H 0.57027 0.97004 0.25913 0.0
H2949 H 0.57706 0.98894 0.24865 0.0
H2950 H 0.57744 0.02039 0.28492 0.0
H2951 H 0.55867 0.02307 0.26327 0.0
H2952 H 1.00625 0.64937 0.32096 0.0
H2953 H 0.99772 0.62327 0.30853 0.0
H2954 H 0.03896 0.62599 0.3331 0.0
H2955 H 0.04741 0.65172 0.34579 0.0
H2956 H 0.01152 0.61401 0.27978 0.0
H2957 H 1.00749 0.58501 0.35589 0.0
H2958 H 0.00888 0.60358 0.35439 0.0
H2959 H 0.0257 0.60176 0.35262 0.0
C2960 C 0.01343 0.64435 0.32392 0.0
C2961 C 0.02753 0.65274 0.33442 0.0
C2962 C 1.00853 0.62942 0.31681 0.0
C2963 C 0.01755 0.62251 0.32024 0.0
C2964 C 0.03158 0.63085 0.33075 0.0
H2965 H 0.02713 0.54886 0.26991 0.0
H2966 H 0.02789 0.56901 0.29252 0.0
C2967 C 0.03647 0.6457 0.33783 0.0
C2968 C 0.01297 0.60706 0.31156 0.0
H2969 H 0.00882 0.57215 0.32466 0.0
C2970 C 0.01067 0.60477 0.28964 0.0
C2971 C 0.01193 0.59499 0.3244 0.0
C2972 C 0.01348 0.59639 0.34815 0.0
C2973 C 1.00801 0.59106 0.28014 0.0
C2974 C 1.00737 0.57915 0.29292 0.0
C2975 C 0.00932 0.58127 0.31488 0.0
C2976 C 1.00544 0.56479 0.28339 0.0
C2977 C 1.00656 0.58969 0.25635 0.0
C2978 C 0.99221 0.5551 0.27185 0.0
C2979 C 0.99173 0.54355 0.25909 0.0
C2980 C 1.00442 0.54137 0.25784 0.0
C2981 C 0.01709 0.55008 0.27097 0.0
C2982 C 0.01758 0.5617 0.2837 0.0
H2983 H 0.01045 0.60093 0.24859 0.0
H2984 H 0.01326 0.58458 0.25004 0.0
H2985 H 0.99445 0.5821 0.25192 0.0
H2986 H 0.98263 0.55714 0.27158 0.0
H2987 H 0.98196 0.53716 0.24882 0.0
H2988 H 0.3599 0.36779 0.29088 0.0
H2989 H 0.38438 0.3901 0.28259 0.0
H2990 H 0.38945 0.4051 0.34743 0.0
H2991 H 0.36478 0.38293 0.35575 0.0
H2992 H 0.39541 0.42816 0.32056 0.0
H2993 H 0.42735 0.39959 0.2953 0.0
H2994 H 0.40972 0.39253 0.281 0.0
H2995 H 0.40953 0.3896 0.30915 0.0
C2996 C 0.36631 0.3757 0.30347 0.0
C2997 C 0.36038 0.37353 0.324 0.0
C2998 C 0.38038 0.38844 0.29873 0.0
C2999 C 0.38892 0.39921 0.31444 0.0
C3000 C 0.38313 0.39693 0.33504 0.0
H3001 H 0.47955 0.47042 0.27457 0.0
H3002 H 0.45993 0.45185 0.29824 0.0
C3003 C 0.36903 0.38422 0.33979 0.0
C3004 C 0.40339 0.41327 0.309 0.0
H3005 H 0.43719 0.4256 0.28375 0.0
C3006 C 0.40465 0.4276 0.3128 0.0
C3007 C 0.41564 0.41265 0.29929 0.0
C3008 C 0.41558 0.39776 0.29616 0.0
C3009 C 0.41739 0.44121 0.30609 0.0
C3010 C 0.42908 0.44049 0.29489 0.0
C3011 C 0.42821 0.42622 0.29217 0.0
C3012 C 0.44149 0.45403 0.28404 0.0
C3013 C 0.41809 0.45621 0.31091 0.0
C3014 C 0.43781 0.46189 0.26874 0.0
C3015 C 0.44901 0.47258 0.25548 0.0
C3016 C 0.46412 0.47559 0.25711 0.0
C3017 C 0.46806 0.46855 0.27332 0.0
C3018 C 0.45681 0.45782 0.28666 0.0
H3019 H 0.41184 0.45544 0.32563 0.0
H3020 H 0.43002 0.46561 0.31268 0.0
H3021 H 0.41259 0.45912 0.29778 0.0
H3022 H 0.42609 0.45897 0.26597 0.0
H3023 H 0.44565 0.47761 0.24279 0.0
H3024 H 0.2991 0.28197 0.35431 0.0
H3025 H 0.30745 0.26439 0.36649 0.0
H3026 H 0.35402 0.30093 0.36728 0.0
H3027 H 0.34566 0.31894 0.35524 0.0
H3028 H 0.32649 0.25609 0.34732 0.0
H3029 H 0.34949 0.28235 0.42604 0.0
H3030 H 0.3378 0.28751 0.4101 0.0
H3031 H 0.35744 0.29472 0.40361 0.0
C3032 C 0.31115 0.28641 0.35711 0.0
C3033 C 0.32171 0.30196 0.35377 0.0
C3034 C 0.3159 0.27625 0.36405 0.0
C3035 C 0.33134 0.28128 0.36789 0.0
C3036 C 0.342 0.29681 0.36471 0.0
H3037 H 0.36735 0.22699 0.42733 0.0
H3038 H 0.36611 0.24614 0.40459 0.0
C3039 C 0.33722 0.30709 0.3578 0.0
C3040 C 0.33591 0.27002 0.37518 0.0
H3041 H 0.35016 0.25998 0.41776 0.0
C3042 C 0.33181 0.25701 0.36265 0.0
C3043 C 0.34286 0.27121 0.39515 0.0
C3044 C 0.34707 0.28461 0.40964 0.0
C3045 C 0.33413 0.24504 0.36974 0.0
C3046 C 0.34058 0.246 0.39001 0.0
C3047 C 0.34522 0.25925 0.40219 0.0
C3048 C 0.34175 0.23308 0.39964 0.0
C3049 C 0.32955 0.23143 0.35554 0.0
C3050 C 0.32856 0.21906 0.4037 0.0
C3051 C 0.3293 0.20802 0.4165 0.0
C3052 C 0.34322 0.21087 0.42547 0.0
C3053 C 0.35654 0.22441 0.42019 0.0
C3054 C 0.35581 0.23541 0.4074 0.0
H3055 H 0.32926 0.23439 0.33865 0.0
H3056 H 0.33747 0.22681 0.35738 0.0
H3057 H 0.31796 0.2223 0.35982 0.0
H3058 H 0.31754 0.2171 0.39827 0.0
H3059 H 0.31885 0.19788 0.42085 0.0
H3060 H 0.73913 0.03111 0.34638 0.0
H3061 H 0.75468 0.05693 0.3596 0.0
H3062 H 0.71429 0.05859 0.37648 0.0
H3063 H 0.69841 0.03232 0.36354 0.0
H3064 H 0.75663 0.08409 0.34814 0.0
H3065 H 0.73829 0.07008 0.43178 0.0
H3066 H 0.73389 0.05551 0.41214 0.0
H3067 H 0.72328 0.06552 0.41281 0.0
C3068 C 0.73342 0.03684 0.35291 0.0
C3069 C 0.71741 0.02945 0.35404 0.0
C3070 C 0.74241 0.05172 0.36041 0.0
C3071 C 0.73572 0.0597 0.36927 0.0
C3072 C 0.71974 0.05257 0.37006 0.0
H3073 H 0.78309 0.14463 0.44104 0.0
H3074 H 0.76417 0.125 0.4176 0.0
C3075 C 0.71066 0.03756 0.36258 0.0
C3076 C 0.74572 0.07528 0.37806 0.0
H3077 H 0.75665 0.09539 0.42436 0.0
C3078 C 0.75654 0.08661 0.36478 0.0
C3079 C 0.74565 0.07861 0.39977 0.0
C3080 C 0.73476 0.06679 0.41505 0.0
C3081 C 0.76741 0.10102 0.37268 0.0
C3082 C 0.76761 0.10415 0.39448 0.0
C3083 C 0.75648 0.09302 0.40761 0.0
C3084 C 0.77978 0.1184 0.40452 0.0
C3085 C 0.77864 0.11271 0.35761 0.0
C3086 C 0.79505 0.12176 0.40425 0.0
C3087 C 0.80594 0.13314 0.41748 0.0
C3088 C 0.80168 0.14124 0.43129 0.0
C3089 C 0.7867 0.13871 0.43028 0.0
C3090 C 0.77586 0.12739 0.41705 0.0
H3091 H 0.77417 0.11053 0.34111 0.0
H3092 H 0.78145 0.12446 0.36221 0.0
H3093 H 0.78929 0.11207 0.35794 0.0
H3094 H 0.79832 0.11481 0.39506 0.0
H3095 H 0.8173 0.13461 0.41834 0.0
H3096 H 0.98323 0.69006 0.32767 0.0
H3097 H 0.95844 0.68735 0.33672 0.0
H3098 H 0.96453 0.67737 0.40129 0.0
H3099 H 0.98923 0.68004 0.39246 0.0
H3100 H 0.93129 0.66211 0.35704 0.0
H3101 H 0.95857 0.71564 0.40415 0.0
H3102 H 0.9689 0.71096 0.38522 0.0
H3103 H 0.96474 0.70217 0.4109 0.0
C3104 C 0.97922 0.68711 0.34374 0.0
C3105 C 0.98828 0.68536 0.35937 0.0
C3106 C 0.96504 0.68557 0.34888 0.0
C3107 C 0.95973 0.68236 0.36974 0.0
C3108 C 0.96849 0.68004 0.38515 0.0
H3109 H 0.87628 0.65574 0.43373 0.0
H3110 H 0.89607 0.65588 0.41159 0.0
C3111 C 0.9826 0.68152 0.38004 0.0
C3112 C 0.94538 0.68209 0.37576 0.0
H3113 H 0.93185 0.7 0.40748 0.0
C3114 C 0.93138 0.67046 0.36792 0.0
C3115 C 0.94552 0.69313 0.38968 0.0
C3116 C 0.96023 0.70628 0.39787 0.0
C3117 C 0.9175 0.66924 0.37433 0.0
C3118 C 0.91763 0.67987 0.38906 0.0
C3119 C 0.93168 0.69182 0.39621 0.0
C3120 C 0.90347 0.67836 0.3985 0.0
C3121 C 0.90283 0.65657 0.36531 0.0
C3122 C 0.90068 0.69075 0.39816 0.0
C3123 C 0.88927 0.69061 0.41076 0.0
C3124 C 0.88049 0.6781 0.42394 0.0
C3125 C 0.88259 0.66531 0.42321 0.0
C3126 C 0.89396 0.66543 0.4106 0.0
H3127 H 0.90465 0.65263 0.34978 0.0
H3128 H 0.89823 0.64669 0.3763 0.0
H3129 H 0.89419 0.66026 0.36331 0.0
H3130 H 0.90793 0.70091 0.38911 0.0
H3131 H 0.88816 0.70077 0.41152 0.0
H3132 H 0.36457 1.00305 0.68994 0.0
H3133 H 0.38269 0.99521 0.70289 0.0
H3134 H 0.41989 0.04046 0.69076 0.0
H3135 H 0.40211 0.04822 0.67735 0.0
H3136 H 0.4269 0.01918 0.67843 0.0
H3137 H 0.40367 0.00628 0.75983 0.0
H3138 H 0.3901 0.99548 0.73949 0.0
H3139 H 0.39796 0.01586 0.74067 0.0
C3140 C 0.3766 0.01131 0.69001 0.0
C3141 C 0.3818 0.0263 0.68271 0.0
C3142 C 0.38696 0.00684 0.69752 0.0
C3143 C 0.40267 0.01732 0.69814 0.0
C3144 C 0.40785 0.03215 0.69048 0.0
H3145 H 0.48493 0.02725 0.75494 0.0
H3146 H 0.46671 0.02958 0.73132 0.0
C3147 C 0.39759 0.03658 0.68286 0.0
C3148 C 0.41385 0.01316 0.70711 0.0
H3149 H 0.42398 1.00186 0.75263 0.0
C3150 C 0.42621 0.01532 0.69463 0.0
C3151 C 0.41304 0.00821 0.7283 0.0
C3152 C 0.40057 0.00644 0.74295 0.0
C3153 C 0.43777 0.01273 0.70278 0.0
C3154 C 0.437 0.00793 0.72398 0.0
C3155 C 0.42451 1.00547 0.73632 0.0
C3156 C 0.44921 0.00588 0.73419 0.0
C3157 C 0.4507 0.01512 0.68867 0.0
C3158 C 0.44565 0.99171 0.74306 0.0
C3159 C 0.45605 0.99038 0.7564 0.0
C3160 C 0.47019 1.00322 0.76124 0.0
C3161 C 0.47424 0.01714 0.75111 0.0
C3162 C 0.46379 0.01848 0.73771 0.0
H3163 H 0.44778 0.0151 0.67167 0.0
H3164 H 0.46079 0.02635 0.69237 0.0
H3165 H 0.45387 0.00614 0.69139 0.0
H3166 H 0.43448 0.98187 0.74062 0.0
H3167 H 0.45261 0.97957 0.76421 0.0
H3168 H 0.9932 0.36437 0.66317 0.0
H3169 H 0.99602 0.38919 0.67287 0.0
H3170 H 0.01066 0.38478 0.73554 0.0
H3171 H 1.00771 0.35993 0.72607 0.0
H3172 H 0.98716 0.39119 0.73566 0.0
H3173 H 0.03312 0.43155 0.68282 0.0
H3174 H 0.0177 0.41554 0.66962 0.0
H3175 H 0.02963 0.41241 0.68789 0.0
C3176 C 0.99728 0.36881 0.67891 0.0
C3177 C 1.0002 0.36014 0.69385 0.0
C3178 C 0.99896 0.38305 0.68439 0.0
C3179 C 1.00368 0.38895 0.70489 0.0
C3180 C 1.00704 0.3805 0.71961 0.0
H3181 H 0.02496 0.47332 0.76713 0.0
H3182 H 0.02658 0.45367 0.74627 0.0
C3183 C 1.00537 0.36629 0.71416 0.0
C3184 C 1.00385 0.40319 0.71167 0.0
H3185 H 0.02007 0.44161 0.7024 0.0
C3186 C 0.99436 0.4022 0.72836 0.0
C3187 C 0.01329 0.41759 0.70222 0.0
C3188 C 0.02413 0.41944 0.68476 0.0
C3189 C 0.99402 0.41514 0.73585 0.0
C3190 C 1.00324 0.42949 0.72618 0.0
C3191 C 0.01284 0.43056 0.70957 0.0
C3192 C 1.00353 0.44352 0.73415 0.0
C3193 C 0.98403 0.41339 0.75445 0.0
C3194 C 0.99034 0.44488 0.73326 0.0
C3195 C 0.98946 0.45616 0.74504 0.0
C3196 C 1.0018 0.46635 0.75768 0.0
C3197 C 0.01544 0.46584 0.75707 0.0
C3198 C 0.01632 0.45454 0.74531 0.0
H3199 H 0.9801 0.40234 0.76276 0.0
H3200 H 0.99017 0.42281 0.76599 0.0
H3201 H 0.97383 0.41386 0.74877 0.0
H3202 H 0.98037 0.43655 0.72465 0.0
H3203 H 0.97872 0.45612 0.74567 0.0
H3204 H 0.65946 0.64927 0.72658 0.0
H3205 H 0.63513 0.6281 0.73851 0.0
H3206 H 0.62985 0.60477 0.67936 0.0
H3207 H 0.65396 0.626 0.66719 0.0
H3208 H 0.60314 0.60252 0.69151 0.0
H3209 H 0.62859 0.58707 0.75865 0.0
H3210 H 0.63268 0.60655 0.75961 0.0
H3211 H 0.63998 0.60031 0.73832 0.0
C3212 C 0.65308 0.63968 0.71607 0.0
C3213 C 0.65874 0.63934 0.69596 0.0
C3214 C 0.63921 0.6275 0.72297 0.0
C3215 C 0.63074 0.61462 0.71004 0.0
C3216 C 0.63617 0.61449 0.68972 0.0
H3217 H 0.55947 0.52961 0.76542 0.0
H3218 H 0.58109 0.54736 0.74371 0.0
C3219 C 0.64999 0.62667 0.68278 0.0
C3220 C 0.61633 0.60127 0.71766 0.0
H3221 H 0.60157 0.57503 0.75756 0.0
C3222 C 0.60282 0.59646 0.70589 0.0
C3223 C 0.61588 0.59307 0.73617 0.0
C3224 C 0.63008 0.59689 0.74881 0.0
C3225 C 0.58888 0.58407 0.71248 0.0
C3226 C 0.58831 0.57637 0.73157 0.0
C3227 C 0.6019 0.5809 0.74297 0.0
C3228 C 0.57373 0.56419 0.74076 0.0
C3229 C 0.57494 0.57927 0.69879 0.0
C3230 C 0.56204 0.56737 0.74566 0.0
C3231 C 0.5496 0.55711 0.75774 0.0
C3232 C 0.54857 0.54347 0.76527 0.0
C3233 C 0.55974 0.53981 0.75928 0.0
C3234 C 0.5722 0.55008 0.74714 0.0
H3235 H 0.57804 0.5825 0.68199 0.0
H3236 H 0.56709 0.56676 0.69965 0.0
H3237 H 0.56879 0.58519 0.70428 0.0
H3238 H 0.56304 0.57827 0.74148 0.0
H3239 H 0.54141 0.56044 0.76271 0.0
H3240 H 0.66972 0.69146 0.65938 0.0
H3241 H 0.66037 0.70838 0.64553 0.0
H3242 H 0.70644 0.74286 0.63187 0.0
H3243 H 0.71572 0.72632 0.64517 0.0
H3244 H 0.66918 0.73951 0.65969 0.0
H3245 H 0.6836 0.73828 0.57582 0.0
H3246 H 0.68185 0.72397 0.59466 0.0
H3247 H 0.69912 0.7421 0.59344 0.0
C3248 C 0.67778 0.70256 0.65313 0.0
C3249 C 0.69347 0.70748 0.65341 0.0
C3250 C 0.67245 0.71225 0.64537 0.0
C3251 C 0.68272 0.72685 0.63748 0.0
C3252 C 0.69828 0.7316 0.63758 0.0
H3253 H 0.69259 0.81018 0.58755 0.0
H3254 H 0.69519 0.79065 0.6077 0.0
C3255 C 0.70357 0.72208 0.64533 0.0
C3256 C 0.67764 0.73756 0.62942 0.0
H3257 H 0.68098 0.75972 0.58649 0.0
C3258 C 0.67146 0.74374 0.64358 0.0
C3259 C 0.68066 0.74311 0.60841 0.0
C3260 C 0.68653 0.73642 0.59214 0.0
C3261 C 0.66895 0.75583 0.63749 0.0
C3262 C 0.67274 0.76186 0.61681 0.0
C3263 C 0.67834 0.75527 0.60248 0.0
C3264 C 0.67098 0.77496 0.6094 0.0
C3265 C 0.66281 0.76251 0.65334 0.0
C3266 C 0.65651 0.77287 0.60444 0.0
C3267 C 0.65504 0.78404 0.59299 0.0
C3268 C 0.66801 0.79751 0.58645 0.0
C3269 C 0.68243 0.80011 0.5929 0.0
C3270 C 0.68391 0.78888 0.60419 0.0
H3271 H 0.66202 0.7577 0.66944 0.0
H3272 H 0.6702 0.77511 0.65406 0.0
H3273 H 0.65129 0.7601 0.64823 0.0
H3274 H 0.64641 0.76215 0.608 0.0
H3275 H 0.64382 0.78161 0.58771 0.0
H3276 H 0.30074 0.98217 0.69177 0.0
H3277 H 0.27834 0.95735 0.68397 0.0
H3278 H 0.29138 0.96197 0.61848 0.0
H3279 H 0.31386 0.98652 0.62621 0.0
H3280 H 0.2546 0.95122 0.65818 0.0
H3281 H 0.28205 0.91889 0.63018 0.0
H3282 H 0.29247 0.93681 0.64411 0.0
H3283 H 0.28891 0.93654 0.61608 0.0
C3284 C 0.29898 0.97776 0.67578 0.0
C3285 C 0.30916 0.98631 0.65964 0.0
C3286 C 0.28613 0.96359 0.67133 0.0
C3287 C 0.28324 0.95763 0.65069 0.0
C3288 C 0.29352 0.96608 0.63463 0.0
H3289 H 0.2039 0.90232 0.57959 0.0
H3290 H 0.22277 0.92138 0.60346 0.0
C3291 C 0.30636 0.9802 0.63907 0.0
C3292 C 0.26905 0.94313 0.64548 0.0
H3293 H 0.25602 0.90944 0.61888 0.0
C3294 C 0.25491 0.94197 0.64991 0.0
C3295 C 0.26934 0.93084 0.6351 0.0
C3296 C 0.28402 0.93075 0.63131 0.0
C3297 C 0.24117 0.92934 0.64308 0.0
C3298 C 0.24155 0.91767 0.63112 0.0
C3299 C 0.25564 0.9184 0.62785 0.0
C3300 C 0.22784 0.90549 0.62 0.0
C3301 C 0.2264 0.92874 0.64857 0.0
C3302 C 0.22405 0.89004 0.6215 0.0
C3303 C 0.2132 0.8791 0.60775 0.0
C3304 C 0.206 0.88343 0.59226 0.0
C3305 C 0.20901 0.89863 0.59176 0.0
C3306 C 0.21985 0.90955 0.60543 0.0
H3307 H 0.22745 0.93474 0.66374 0.0
H3308 H 0.22346 0.93464 0.63605 0.0
H3309 H 0.21693 0.9168 0.64987 0.0
H3310 H 0.23012 0.88662 0.63249 0.0
H3311 H 0.21135 0.86754 0.60807 0.0
H3312 H 0.03344 0.33937 0.64998 0.0
H3313 H 0.05887 0.34678 0.63633 0.0
H3314 H 0.05786 0.30837 0.66829 0.0
H3315 H 0.03266 0.30082 0.68171 0.0
H3316 H 0.08716 0.35331 0.6574 0.0
H3317 H 0.06472 0.30202 0.60603 0.0
H3318 H 0.05256 0.30828 0.61791 0.0
H3319 H 0.05943 0.29781 0.63328 0.0
C3320 C 0.03867 0.33255 0.65416 0.0
C3321 C 0.03084 0.31935 0.66669 0.0
C3322 C 0.05321 0.33682 0.64639 0.0
C3323 C 0.06015 0.32797 0.651 0.0
C3324 C 0.05262 0.31519 0.66417 0.0
H3325 H 0.13839 0.32369 0.60386 0.0
H3326 H 0.11835 0.32168 0.62746 0.0
C3327 C 0.03815 0.3109 0.67184 0.0
C3328 C 0.07499 0.3316 0.64155 0.0
H3329 H 0.09147 0.31678 0.60946 0.0
C3330 C 0.08812 0.34537 0.64685 0.0
C3331 C 0.07625 0.32122 0.62782 0.0
C3332 C 0.06248 0.30656 0.62073 0.0
C3333 C 0.10251 0.34889 0.63907 0.0
C3334 C 0.10376 0.33843 0.62545 0.0
C3335 C 0.09059 0.3247 0.62015 0.0
C3336 C 0.11828 0.34177 0.61518 0.0
C3337 C 0.11628 0.36363 0.64577 0.0
C3338 C 0.1254 0.3541 0.60112 0.0
C3339 C 0.1369 0.3553 0.58779 0.0
C3340 C 0.14146 0.34416 0.58816 0.0
C3341 C 0.13527 0.33256 0.60347 0.0
C3342 C 0.12371 0.33133 0.61679 0.0
H3343 H 0.1143 0.36797 0.66085 0.0
H3344 H 0.12643 0.36218 0.64771 0.0
H3345 H 0.11878 0.37241 0.63343 0.0
H3346 H 0.12127 0.36214 0.59924 0.0
H3347 H 0.14137 0.36426 0.57597 0.0
H3348 H 0.32133 0.33692 0.62823 0.0
H3349 H 0.29927 0.33966 0.61862 0.0
H3350 H 0.27903 0.32096 0.679 0.0
H3351 H 0.30124 0.31858 0.68892 0.0
H3352 H 0.2706 0.31727 0.61389 0.0
H3353 H 0.27215 0.35711 0.67535 0.0
H3354 H 0.288 0.35397 0.67073 0.0
H3355 H 0.27204 0.34049 0.68601 0.0
C3356 C 0.31231 0.33364 0.63962 0.0
C3357 C 0.31309 0.32757 0.65938 0.0
C3358 C 0.29966 0.33517 0.63408 0.0
C3359 C 0.28749 0.33068 0.64814 0.0
C3360 C 0.28838 0.32486 0.66803 0.0
H3361 H 0.19869 0.31013 0.5961 0.0
H3362 H 0.2178 0.30826 0.6183 0.0
C3363 C 0.30108 0.32342 0.67365 0.0
C3364 C 0.2735 0.33109 0.6413 0.0
H3365 H 0.24987 0.3452 0.6537 0.0
C3366 C 0.26609 0.32338 0.62263 0.0
C3367 C 0.26761 0.33913 0.6526 0.0
C3368 C 0.27543 0.34827 0.67217 0.0
C3369 C 0.25308 0.32355 0.61488 0.0
C3370 C 0.24697 0.33129 0.62641 0.0
C3371 C 0.25436 0.33901 0.64509 0.0
C3372 C 0.23375 0.33255 0.61813 0.0
C3373 C 0.24637 0.3159 0.59394 0.0
C3374 C 0.23576 0.3469 0.61225 0.0
C3375 C 0.22469 0.34799 0.60004 0.0
C3376 C 0.21139 0.33475 0.59359 0.0
C3377 C 0.20869 0.32051 0.60125 0.0
C3378 C 0.21974 0.31944 0.6136 0.0
H3379 H 0.25441 0.31363 0.58486 0.0
H3380 H 0.23597 0.30478 0.59681 0.0
H3381 H 0.24316 0.32303 0.58404 0.0
H3382 H 0.24643 0.35719 0.61559 0.0
H3383 H 0.22718 0.35905 0.59391 0.0
H3384 H 0.67239 0.98283 0.65121 0.0
H3385 H 0.66309 0.95662 0.63857 0.0
H3386 H 0.7033 0.95754 0.66399 0.0
H3387 H 0.71252 0.98336 0.67685 0.0
H3388 H 0.67673 0.94674 0.61007 0.0
H3389 H 0.67035 0.91694 0.68614 0.0
H3390 H 0.67241 0.9358 0.68457 0.0
H3391 H 0.68889 0.93335 0.68351 0.0
C3392 C 0.67917 0.97739 0.65431 0.0
C3393 C 0.69323 0.9853 0.66508 0.0
C3394 C 0.67384 0.96239 0.64707 0.0
C3395 C 0.68234 0.95495 0.65068 0.0
C3396 C 0.69631 0.96282 0.66148 0.0
H3397 H 0.69171 0.88114 0.60238 0.0
H3398 H 0.69181 0.90114 0.62456 0.0
C3399 C 0.70164 0.97773 0.66866 0.0
C3400 C 0.67734 0.93943 0.64192 0.0
H3401 H 0.67204 0.9041 0.65507 0.0
C3402 C 0.67541 0.93733 0.61995 0.0
C3403 C 0.67568 0.92713 0.65479 0.0
C3404 C 0.67679 0.92836 0.67858 0.0
C3405 C 0.67264 0.92358 0.61041 0.0
C3406 C 0.67146 0.91145 0.62323 0.0
C3407 C 0.67294 0.91337 0.64526 0.0
C3408 C 0.66975 0.89716 0.61373 0.0
C3409 C 0.67172 0.92242 0.58658 0.0
C3410 C 0.65692 0.88765 0.60132 0.0
C3411 C 0.65682 0.87615 0.58882 0.0
C3412 C 0.66945 0.87385 0.58873 0.0
C3413 C 0.68168 0.88243 0.6026 0.0
C3414 C 0.6818 0.89396 0.61508 0.0
H3415 H 0.67588 0.93374 0.57894 0.0
H3416 H 0.67847 0.91726 0.58063 0.0
H3417 H 0.65969 0.91496 0.58164 0.0
H3418 H 0.64742 0.88978 0.60024 0.0
H3419 H 0.64743 0.86991 0.57789 0.0
H3420 H 0.03368 0.71451 0.69123 0.0
H3421 H 0.05895 0.7361 0.68344 0.0
H3422 H 0.05065 0.72615 0.61678 0.0
H3423 H 0.02582 0.70434 0.62449 0.0
H3424 H 0.07887 0.73361 0.62623 0.0
H3425 H 0.06679 0.77677 0.66206 0.0
H3426 H 0.06564 0.7624 0.68006 0.0
H3427 H 0.05225 0.75714 0.65845 0.0
C3428 C 0.03732 0.71686 0.67494 0.0
C3429 C 0.02768 0.70772 0.65849 0.0
C3430 C 0.05173 0.72931 0.67048 0.0
C3431 C 0.05665 0.73304 0.64945 0.0
C3432 C 0.04718 0.72361 0.63313 0.0
H3433 H 0.11209 0.81355 0.58259 0.0
H3434 H 0.0941 0.79372 0.60603 0.0
C3435 C 0.03292 0.7111 0.63758 0.0
C3436 C 0.07143 0.74685 0.64403 0.0
H3437 H 0.09064 0.78591 0.64626 0.0
C3438 C 0.08152 0.74505 0.63079 0.0
C3439 C 0.07491 0.76182 0.64989 0.0
C3440 C 0.06429 0.76473 0.66324 0.0
C3441 C 0.0945 0.75769 0.62242 0.0
C3442 C 0.09787 0.77267 0.62803 0.0
C3443 C 0.08818 0.77446 0.6421 0.0
C3444 C 0.10993 0.78649 0.61706 0.0
C3445 C 0.10387 0.75481 0.60657 0.0
C3446 C 0.12518 0.78976 0.61626 0.0
C3447 C 0.13554 0.80114 0.60262 0.0
C3448 C 0.13082 0.80952 0.58981 0.0
C3449 C 0.11602 0.80722 0.59224 0.0
C3450 C 0.1057 0.79584 0.60564 0.0
H3451 H 0.09793 0.74283 0.60074 0.0
H3452 H 0.1066 0.76254 0.59274 0.0
H3453 H 0.11472 0.75698 0.61414 0.0
H3454 H 0.12888 0.78303 0.62538 0.0
H3455 H 0.14686 0.80263 0.601 0.0
H3456 H 1.00856 0.65191 0.69245 0.0
H3457 H 0.01566 0.63301 0.70461 0.0
H3458 H 0.97238 0.5966 0.68266 0.0
H3459 H 0.96537 0.61511 0.67017 0.0
H3460 H 1.00193 0.61092 0.73413 0.0
H3461 H 1.00047 0.58328 0.65818 0.0
H3462 H 1.00053 0.60122 0.65952 0.0
H3463 H 0.98305 0.58343 0.66255 0.0
C3464 C 1.00064 0.63989 0.69001 0.0
C3465 C 0.98641 0.63512 0.68025 0.0
C3466 C 1.00471 0.62909 0.69695 0.0
C3467 C 0.99469 0.61336 0.69413 0.0
C3468 C 0.98052 0.60863 0.68445 0.0
H3469 H 0.98078 0.53 0.75168 0.0
H3470 H 0.97932 0.54908 0.72875 0.0
C3471 C 0.97647 0.61933 0.67749 0.0
C3472 C 0.99839 0.60172 0.7026 0.0
H3473 H 0.99863 0.56883 0.68969 0.0
C3474 C 1.00146 0.60187 0.72433 0.0
C3475 C 0.99774 0.58985 0.68984 0.0
C3476 C 0.99542 0.58951 0.6662 0.0
C3477 C 1.00328 0.5902 0.73376 0.0
C3478 C 1.00209 0.57808 0.72113 0.0
C3479 C 0.9994 0.57807 0.69934 0.0
C3480 C 1.00342 0.56529 0.73067 0.0
C3481 C 1.00601 0.59062 0.75733 0.0
C3482 C 0.01754 0.56779 0.73832 0.0
C3483 C 0.01838 0.5569 0.75119 0.0
C3484 C 1.00513 0.54332 0.75656 0.0
C3485 C 0.99117 0.54024 0.74742 0.0
C3486 C 0.99033 0.55118 0.73451 0.0
H3487 H 1.00445 0.59956 0.7653 0.0
H3488 H 0.99818 0.57937 0.76452 0.0
H3489 H 0.01783 0.59304 0.76041 0.0
H3490 H 0.02776 0.57858 0.73547 0.0
H3491 H 0.02923 0.5596 0.7583 0.0
H3492 H 0.40492 0.36143 0.67568 0.0
H3493 H 0.42212 0.38685 0.68915 0.0
H3494 H 0.38443 0.38891 0.71699 0.0
H3495 H 0.36681 0.36314 0.70334 0.0
H3496 H 0.4074 0.41707 0.69489 0.0
H3497 H 0.43303 0.39465 0.7531 0.0
H3498 H 0.43226 0.38814 0.72647 0.0
H3499 H 0.41489 0.38264 0.74039 0.0
C3500 C 0.40014 0.36717 0.68466 0.0
C3501 C 0.3844 0.36003 0.68866 0.0
C3502 C 0.41007 0.38178 0.69235 0.0
C3503 C 0.40463 0.3897 0.70434 0.0
C3504 C 0.38889 0.38295 0.70783 0.0
H3505 H 0.45047 0.47464 0.77406 0.0
H3506 H 0.4325 0.45391 0.75124 0.0
C3507 C 0.37884 0.36821 0.70006 0.0
C3508 C 0.41563 0.40475 0.71376 0.0
H3509 H 0.44586 0.42142 0.74799 0.0
C3510 C 0.41576 0.41805 0.70661 0.0
C3511 C 0.42658 0.40602 0.72896 0.0
C3512 C 0.42666 0.39211 0.73786 0.0
C3513 C 0.42679 0.43262 0.71393 0.0
C3514 C 0.43784 0.43388 0.72899 0.0
C3515 C 0.43757 0.42053 0.73622 0.0
C3516 C 0.44927 0.44872 0.73864 0.0
C3517 C 0.42671 0.44654 0.70514 0.0
C3518 C 0.46484 0.45315 0.73869 0.0
C3519 C 0.47517 0.46509 0.75175 0.0
C3520 C 0.47006 0.4727 0.76509 0.0
C3521 C 0.45474 0.46913 0.76365 0.0
C3522 C 0.44444 0.45723 0.75061 0.0
H3523 H 0.42089 0.44415 0.68947 0.0
H3524 H 0.42046 0.45002 0.7161 0.0
H3525 H 0.43846 0.45626 0.70349 0.0
H3526 H 0.46884 0.44673 0.72966 0.0
H3527 H 0.48682 0.46739 0.75286 0.0
H3528 H 0.65014 0.02383 0.66179 0.0
H3529 H 0.6254 0.02079 0.67202 0.0
H3530 H 0.63246 0.00992 0.73568 0.0
H3531 H 0.65709 0.01291 0.72568 0.0
H3532 H 0.59866 0.99498 0.69237 0.0
H3533 H 0.62598 0.04775 0.74107 0.0
H3534 H 0.63618 0.04358 0.72131 0.0
H3535 H 0.63248 0.03438 0.74669 0.0
C3536 C 0.64636 0.02064 0.67791 0.0
C3537 C 0.65566 0.01871 0.69294 0.0
C3538 C 0.63221 0.0189 0.68372 0.0
C3539 C 0.62717 0.01532 0.70468 0.0
C3540 C 0.6362 0.01287 0.71949 0.0
H3541 H 0.54403 0.98673 0.77121 0.0
H3542 H 0.56389 0.98747 0.74855 0.0
C3543 C 0.65027 0.01454 0.7137 0.0
C3544 C 0.61281 0.01473 0.71145 0.0
H3545 H 0.59934 0.03176 0.74493 0.0
C3546 C 0.59878 1.00309 0.70371 0.0
C3547 C 0.61297 0.02545 0.726 0.0
C3548 C 0.6277 0.03859 0.73416 0.0
C3549 C 0.5849 1.00154 0.71081 0.0
C3550 C 0.58507 0.01185 0.72613 0.0
C3551 C 0.59914 0.02382 0.73322 0.0
C3552 C 0.57095 0.01006 0.73612 0.0
C3553 C 0.57019 0.98888 0.70188 0.0
C3554 C 0.56798 0.02232 0.73637 0.0
C3555 C 0.55654 0.02184 0.74926 0.0
C3556 C 0.54789 0.0091 0.76214 0.0
C3557 C 0.55023 0.99647 0.76092 0.0
C3558 C 0.56163 0.99693 0.74801 0.0
H3559 H 0.57188 0.98515 0.68611 0.0
H3560 H 0.56578 0.97889 0.71265 0.0
H3561 H 0.56146 0.99249 0.70039 0.0
H3562 H 0.57508 0.03262 0.7275 0.0
H3563 H 0.55526 0.03188 0.75042 0.0
loop_
_geom_bond_atom_site_label_1
_geom_bond_atom_site_label_2
_geom_bond_distance
_geom_bond_site_symmetry_2
_ccdc_geom_bond_type
Mn0 O5 2.095 1_655 S
Mn0 O15 2.162 . S
Mn0 O16 2.297 1_554 S
Mn0 O24 2.385 1_554 S
Mn0 O25 2.209 1_654 S
Mn0 O26 2.094 . S
Mn1 O6 2.121 . S
Mn1 N8 2.257 1_554 S
Mn1 N17 2.282 . S
Mn1 O25 2.215 1_554 S
Mn1 O27 2.117 . S
C2 O24 1.234 1_455 S
C2 O25 1.283 . S
C3 O15 1.281 1_556 S
C3 O16 1.236 . S
C4 O26 1.229 1_455 S
C4 O27 1.292 . S
O5 Mn0 2.095 1_455 S
O5 C14 1.250 . S
O6 Mn1 2.121 . S
O6 C14 1.258 . S
C7 N8 1.326 . S
C7 C11 1.460 . S
C7 H13 0.929 . S
N8 Mn1 2.257 1_556 S
N8 C7 1.326 . S
N8 C12 1.362 . S
C9 C10 1.258 . S
C9 C12 1.431 . S
C9 C29 1.449 . S
C10 C9 1.258 . S
C10 C11 1.477 . S
C10 H30 0.931 . S
C11 C7 1.460 . S
C11 C10 1.477 . S
C11 H31 0.930 . S
C12 N8 1.362 . S
C12 C9 1.431 . S
C12 C22 1.476 . S
H13 C7 0.929 . S
C14 O5 1.250 . S
C14 O6 1.258 . S
O15 Mn0 2.162 . S
O15 C3 1.281 1_554 S
O16 Mn0 2.297 1_556 S
O16 C3 1.236 . S
N17 Mn1 2.282 . S
N17 C18 1.328 . S
N17 C22 1.318 1_554 S
C18 N17 1.328 . S
C18 C19 1.457 1_554 S
C18 H23 0.929 . S
C19 C18 1.457 1_556 S
C19 C20 1.291 . S
C19 H32 0.935 . S
C20 C19 1.291 . S
C20 C21 1.373 . S
C20 H33 0.929 . S
C21 C20 1.373 . S
C21 C22 1.396 . S
C21 C28 1.403 . S
C22 C12 1.476 . S
C22 N17 1.318 1_556 S
C22 C21 1.396 . S
H23 C18 0.929 . S
O24 Mn0 2.385 1_556 S
O24 C2 1.234 1_655 S
O25 Mn0 2.209 1_456 S
O25 Mn1 2.215 1_556 S
O25 C2 1.283 . S
O26 Mn0 2.094 . S
O26 C4 1.229 1_655 S
O27 Mn1 2.117 . S
O27 C4 1.292 . S
C28 C21 1.403 . S
C28 C29 1.399 . S
C28 H34 0.929 . S
C29 C9 1.449 . S
C29 C28 1.399 . S
C29 H35 0.930 . S
H30 C10 0.931 . S
H31 C11 0.930 . S
H32 C19 0.935 . S
H33 C20 0.929 . S
H34 C28 0.929 . S
H35 C29 0.930 . S
Mn36 O41 2.095 1_554 S
Mn36 O51 2.162 . S
Mn36 O52 2.297 . S
Mn36 O60 2.385 . S
Mn36 O61 2.209 . S
Mn36 O62 2.094 1_554 S
Mn37 O42 2.116 1_554 S
Mn37 N44 2.280 . S
Mn37 N53 2.295 . S
Mn37 O61 2.240 . S
Mn37 O63 2.095 1_554 S
C38 O60 1.234 . S
C38 O61 1.283 . S
C39 O51 1.281 . S
C39 O52 1.236 . S
C40 O62 1.240 . S
C40 O63 1.264 . S
O41 Mn36 2.095 1_556 S
O41 C50 1.250 . S
O42 Mn37 2.116 1_556 S
O42 C50 1.258 . S
C43 N44 1.326 . S
C43 C47 1.460 . S
C43 H49 0.929 . S
N44 Mn37 2.280 . S
N44 C43 1.326 . S
N44 C48 1.362 . S
C45 C46 1.258 . S
C45 C48 1.431 . S
C45 C65 1.449 . S
C46 C45 1.258 . S
C46 C47 1.477 . S
C46 H66 0.931 . S
C47 C43 1.460 . S
C47 C46 1.477 . S
C47 H67 0.930 . S
C48 N44 1.362 . S
C48 C45 1.431 . S
C48 C58 1.476 . S
H49 C43 0.929 . S
C50 O41 1.250 . S
C50 O42 1.258 . S
O51 Mn36 2.162 . S
O51 C39 1.281 . S
O52 Mn36 2.297 . S
O52 C39 1.236 . S
N53 Mn37 2.295 . S
N53 C54 1.328 . S
N53 C58 1.318 . S
C54 N53 1.328 . S
C54 C55 1.457 . S
C54 H59 0.907 1_554 S
C55 C54 1.457 . S
C55 C56 1.291 . S
C55 H68 0.931 . S
C56 C55 1.291 . S
C56 C57 1.373 . S
C56 H69 0.929 . S
C57 C56 1.373 . S
C57 C58 1.396 . S
C57 C64 1.403 . S
C58 C48 1.476 . S
C58 N53 1.318 . S
C58 C57 1.396 . S
H59 C54 0.907 1_556 S
O60 Mn36 2.385 . S
O60 C38 1.234 . S
O61 Mn36 2.209 . S
O61 Mn37 2.240 . S
O61 C38 1.283 . S
O62 Mn36 2.094 1_556 S
O62 C40 1.240 . S
O63 Mn37 2.095 1_556 S
O63 C40 1.264 . S
C64 C57 1.403 . S
C64 C65 1.399 . S
C64 H70 0.929 . S
C65 C45 1.449 . S
C65 C64 1.399 . S
C65 H71 0.930 . S
H66 C46 0.931 . S
H67 C47 0.930 . S
H68 C55 0.931 . S
H69 C56 0.929 . S
H70 C64 0.929 . S
H71 C65 0.930 . S
Mn72 O77 2.095 1_564 S
Mn72 O87 2.162 . S
Mn72 O88 2.297 . S
Mn72 O96 2.385 . S
Mn72 O97 2.209 1_565 S
Mn72 O98 2.094 1_554 S
Mn73 O78 2.114 1_554 S
Mn73 N80 2.257 . S
Mn73 N89 2.282 . S
Mn73 O97 2.215 . S
Mn73 O99 2.117 1_554 S
C74 O96 1.194 1_545 S
C74 O97 1.325 . S
C75 O87 1.281 . S
C75 O88 1.236 . S
C76 O98 1.252 . S
C76 O99 1.237 1_565 S
O77 Mn72 2.095 1_546 S
O77 C86 1.250 . S
O78 Mn73 2.114 1_556 S
O78 C86 1.277 . S
C79 N80 1.326 . S
C79 C83 1.460 . S
C79 H85 0.929 . S
N80 Mn73 2.257 . S
N80 C79 1.326 . S
N80 C84 1.362 . S
C81 C82 1.258 . S
C81 C84 1.431 . S
C81 C101 1.449 . S
C82 C81 1.258 . S
C82 C83 1.477 . S
C82 H102 0.931 . S
C83 C79 1.460 . S
C83 C82 1.477 . S
C83 H103 0.930 . S
C84 N80 1.362 . S
C84 C81 1.431 . S
C84 C94 1.476 . S
H85 C79 0.929 . S
C86 O77 1.250 . S
C86 O78 1.277 . S
O87 Mn72 2.162 . S
O87 C75 1.281 . S
O88 Mn72 2.297 . S
O88 C75 1.236 . S
N89 Mn73 2.282 . S
N89 C90 1.328 . S
N89 C94 1.318 . S
C90 N89 1.328 . S
C90 C91 1.457 . S
C90 H95 0.929 . S
C91 C90 1.457 . S
C91 C92 1.291 . S
C91 H104 0.931 . S
C92 C91 1.291 . S
C92 C93 1.373 . S
C92 H105 0.929 . S
C93 C92 1.373 . S
C93 C94 1.396 . S
C93 C100 1.403 . S
C94 C84 1.476 . S
C94 N89 1.318 . S
C94 C93 1.396 . S
H95 C90 0.929 . S
O96 Mn72 2.385 . S
O96 C74 1.194 1_565 S
O97 Mn72 2.209 1_545 S
O97 Mn73 2.215 . S
O97 C74 1.325 . S
O98 Mn72 2.094 1_556 S
O98 C76 1.252 . S
O99 Mn73 2.117 1_556 S
O99 C76 1.237 1_545 S
C100 C93 1.403 . S
C100 C101 1.399 . S
C100 H106 0.929 . S
C101 C81 1.449 . S
C101 C100 1.399 . S
C101 H107 0.930 . S
H102 C82 0.931 . S
H103 C83 0.930 . S
H104 C91 0.931 . S
H105 C92 0.929 . S
H106 C100 0.929 . S
H107 C101 0.930 . S
Mn108 O113 2.095 1_655 S
Mn108 O123 2.162 . S
Mn108 O124 2.297 1_554 S
Mn108 O132 2.385 1_554 S
Mn108 O133 2.209 1_654 S
Mn108 O134 2.094 . S
Mn109 O114 2.121 . S
Mn109 N116 2.257 1_554 S
Mn109 N125 2.282 . S
Mn109 O133 2.215 1_554 S
Mn109 O135 2.117 . S
C110 O132 1.166 1_455 S
C110 O133 1.313 . S
C111 O123 1.281 1_556 S
C111 O124 1.236 . S
C112 O134 1.249 1_455 S
C112 O135 1.255 . S
O113 Mn108 2.095 1_455 S
O113 C122 1.250 . S
O114 Mn109 2.121 . S
O114 C122 1.258 . S
C115 N116 1.326 . S
C115 C119 1.460 . S
C115 H121 0.929 . S
N116 Mn109 2.257 1_556 S
N116 C115 1.326 . S
N116 C120 1.362 . S
C117 C118 1.258 . S
C117 C120 1.431 . S
C117 C137 1.449 . S
C118 C117 1.258 . S
C118 C119 1.477 . S
C118 H138 0.931 . S
C119 C115 1.460 . S
C119 C118 1.477 . S
C119 H139 0.930 . S
C120 N116 1.362 . S
C120 C117 1.431 . S
C120 C130 1.476 . S
H121 C115 0.929 . S
C122 O113 1.250 . S
C122 O114 1.258 . S
O123 Mn108 2.162 . S
O123 C111 1.281 1_554 S
O124 Mn108 2.297 1_556 S
O124 C111 1.236 . S
N125 Mn109 2.282 . S
N125 C126 1.328 . S
N125 C130 1.318 1_554 S
C126 N125 1.328 . S
C126 C127 1.457 1_554 S
C126 H131 0.929 . S
C127 C126 1.457 1_556 S
C127 C128 1.291 . S
C127 H140 0.931 . S
C128 C127 1.291 . S
C128 C129 1.373 . S
C128 H141 0.929 . S
C129 C128 1.373 . S
C129 C130 1.396 . S
C129 C136 1.403 . S
C130 C120 1.476 . S
C130 N125 1.318 1_556 S
C130 C129 1.396 . S
H131 C126 0.929 . S
O132 Mn108 2.385 1_556 S
O132 C110 1.166 1_655 S
O133 Mn108 2.209 1_456 S
O133 Mn109 2.215 1_556 S
O133 C110 1.313 . S
O134 Mn108 2.094 . S
O134 C112 1.249 1_655 S
O135 Mn109 2.117 . S
O135 C112 1.255 . S
C136 C129 1.403 . S
C136 C137 1.399 . S
C136 H142 0.929 . S
C137 C117 1.449 . S
C137 C136 1.399 . S
C137 H143 0.930 . S
H138 C118 0.931 . S
H139 C119 0.930 . S
H140 C127 0.931 . S
H141 C128 0.929 . S
H142 C136 0.929 . S
H143 C137 0.930 . S
Mn144 O149 2.095 1_554 S
Mn144 O159 2.162 . S
Mn144 O160 2.297 . S
Mn144 O168 2.385 . S
Mn144 O169 2.209 . S
Mn144 O170 2.094 1_554 S
Mn145 O150 2.121 1_554 S
Mn145 N152 2.257 . S
Mn145 N161 2.282 . S
Mn145 O169 2.215 . S
Mn145 O171 2.117 1_554 S
C146 O168 1.234 . S
C146 O169 1.283 . S
C147 O159 1.281 . S
C147 O160 1.236 . S
C148 O170 1.240 . S
C148 O171 1.264 . S
O149 Mn144 2.095 1_556 S
O149 C158 1.250 . S
O150 Mn145 2.121 1_556 S
O150 C158 1.258 . S
C151 N152 1.326 . S
C151 C155 1.460 . S
C151 H157 0.929 . S
N152 Mn145 2.257 . S
N152 C151 1.326 . S
N152 C156 1.362 . S
C153 C154 1.258 . S
C153 C156 1.431 . S
C153 C173 1.449 . S
C154 C153 1.258 . S
C154 C155 1.477 . S
C154 H174 0.931 . S
C155 C151 1.460 . S
C155 C154 1.477 . S
C155 H175 0.930 . S
C156 N152 1.362 . S
C156 C153 1.431 . S
C156 C166 1.476 . S
H157 C151 0.929 . S
C158 O149 1.250 . S
C158 O150 1.258 . S
O159 Mn144 2.162 . S
O159 C147 1.281 . S
O160 Mn144 2.297 . S
O160 C147 1.236 . S
N161 Mn145 2.282 . S
N161 C162 1.328 . S
N161 C166 1.318 . S
C162 N161 1.328 . S
C162 C163 1.457 . S
C162 H167 0.963 . S
C163 C162 1.457 . S
C163 C164 1.291 . S
C163 H176 0.931 . S
C164 C163 1.291 . S
C164 C165 1.373 . S
C164 H177 0.929 . S
C165 C164 1.373 . S
C165 C166 1.396 . S
C165 C172 1.403 . S
C166 C156 1.476 . S
C166 N161 1.318 . S
C166 C165 1.396 . S
H167 C162 0.963 . S
O168 Mn144 2.385 . S
O168 C146 1.234 . S
O169 Mn144 2.209 . S
O169 Mn145 2.215 . S
O169 C146 1.283 . S
O170 Mn144 2.094 1_556 S
O170 C148 1.240 . S
O171 Mn145 2.117 1_556 S
O171 C148 1.264 . S
C172 C165 1.403 . S
C172 C173 1.399 . S
C172 H178 0.929 . S
C173 C153 1.449 . S
C173 C172 1.399 . S
C173 H179 0.930 . S
H174 C154 0.931 . S
H175 C155 0.930 . S
H176 C163 0.931 . S
H177 C164 0.929 . S
H178 C172 0.929 . S
H179 C173 0.930 . S
Mn180 O185 2.095 1_545 S
Mn180 O195 2.162 . S
Mn180 O196 2.297 1_554 S
Mn180 O204 2.385 1_554 S
Mn180 O205 2.209 1_544 S
Mn180 O206 2.094 . S
Mn181 O186 2.121 . S
Mn181 N188 2.257 1_554 S
Mn181 N197 2.282 . S
Mn181 O205 2.215 1_554 S
Mn181 O207 2.117 . S
C182 O204 1.234 . S
C182 O205 1.283 1_545 S
C183 O195 1.281 1_556 S
C183 O196 1.236 . S
C184 O206 1.240 . S
C184 O207 1.264 1_545 S
O185 Mn180 2.095 1_565 S
O185 C194 1.250 . S
O186 Mn181 2.121 . S
O186 C194 1.258 . S
C187 N188 1.326 . S
C187 C191 1.460 . S
C187 H193 0.929 . S
N188 Mn181 2.257 1_556 S
N188 C187 1.326 . S
N188 C192 1.362 . S
C189 C190 1.258 . S
C189 C192 1.431 . S
C189 C209 1.449 . S
C190 C189 1.258 . S
C190 C191 1.477 . S
C190 H210 0.931 . S
C191 C187 1.460 . S
C191 C190 1.477 . S
C191 H211 0.930 . S
C192 N188 1.362 . S
C192 C189 1.431 . S
C192 C202 1.476 . S
H193 C187 0.929 . S
C194 O185 1.250 . S
C194 O186 1.258 . S
O195 Mn180 2.162 . S
O195 C183 1.281 1_554 S
O196 Mn180 2.297 1_556 S
O196 C183 1.236 . S
N197 Mn181 2.282 . S
N197 C198 1.328 . S
N197 C202 1.318 1_554 S
C198 N197 1.328 . S
C198 C199 1.457 1_554 S
C198 H203 0.929 . S
C199 C198 1.457 1_556 S
C199 C200 1.291 . S
C199 H212 0.937 . S
C200 C199 1.291 . S
C200 C201 1.373 . S
C200 H213 0.929 . S
C201 C200 1.373 . S
C201 C202 1.396 . S
C201 C208 1.403 . S
C202 C192 1.476 . S
C202 N197 1.318 1_556 S
C202 C201 1.396 . S
H203 C198 0.929 . S
O204 Mn180 2.385 1_556 S
O204 C182 1.234 . S
O205 Mn180 2.209 1_566 S
O205 Mn181 2.215 1_556 S
O205 C182 1.283 1_565 S
O206 Mn180 2.094 . S
O206 C184 1.240 . S
O207 Mn181 2.117 . S
O207 C184 1.264 1_565 S
C208 C201 1.403 . S
C208 C209 1.399 . S
C208 H214 0.929 . S
C209 C189 1.449 . S
C209 C208 1.399 . S
C209 H215 0.930 . S
H210 C190 0.931 . S
H211 C191 0.930 . S
H212 C199 0.937 . S
H213 C200 0.929 . S
H214 C208 0.929 . S
H215 C209 0.930 . S
Mn216 O221 2.095 . S
Mn216 O231 2.162 . S
Mn216 O232 2.297 . S
Mn216 O240 2.385 . S
Mn216 O241 2.209 . S
Mn216 O242 2.094 . S
Mn217 O222 2.121 . S
Mn217 N224 2.257 . S
Mn217 N233 2.282 . S
Mn217 O241 2.215 . S
Mn217 O243 2.117 . S
C218 O240 1.234 . S
C218 O241 1.283 . S
C219 O231 1.281 . S
C219 O232 1.236 . S
C220 O242 1.240 . S
C220 O243 1.264 . S
O221 Mn216 2.095 . S
O221 C230 1.250 . S
O222 Mn217 2.121 . S
O222 C230 1.258 . S
C223 N224 1.326 . S
C223 C227 1.460 . S
C223 H229 0.929 . S
N224 Mn217 2.257 . S
N224 C223 1.326 . S
N224 C228 1.362 . S
C225 C226 1.258 . S
C225 C228 1.431 . S
C225 C245 1.449 . S
C226 C225 1.258 . S
C226 C227 1.477 . S
C226 H246 0.931 . S
C227 C223 1.460 . S
C227 C226 1.477 . S
C227 H247 0.930 . S
C228 N224 1.362 . S
C228 C225 1.431 . S
C228 C238 1.476 . S
H229 C223 0.929 . S
C230 O221 1.250 . S
C230 O222 1.258 . S
O231 Mn216 2.162 . S
O231 C219 1.281 . S
O232 Mn216 2.297 . S
O232 C219 1.236 . S
N233 Mn217 2.282 . S
N233 C234 1.328 . S
N233 C238 1.318 . S
C234 N233 1.328 . S
C234 C235 1.457 . S
C234 H239 0.929 . S
C235 C234 1.457 . S
C235 C236 1.291 . S
C235 H248 0.931 . S
C236 C235 1.291 . S
C236 C237 1.373 . S
C236 H249 0.929 . S
C237 C236 1.373 . S
C237 C238 1.396 . S
C237 C244 1.403 . S
C238 C228 1.476 . S
C238 N233 1.318 . S
C238 C237 1.396 . S
H239 C234 0.929 . S
O240 Mn216 2.385 . S
O240 C218 1.234 . S
O241 Mn216 2.209 . S
O241 Mn217 2.215 . S
O241 C218 1.283 . S
O242 Mn216 2.094 . S
O242 C220 1.240 . S
O243 Mn217 2.117 . S
O243 C220 1.264 . S
C244 C237 1.403 . S
C244 C245 1.399 . S
C244 H250 0.929 . S
C245 C225 1.449 . S
C245 C244 1.399 . S
C245 H251 0.930 . S
H246 C226 0.931 . S
H247 C227 0.930 . S
H248 C235 0.931 . S
H249 C236 0.929 . S
H250 C244 0.929 . S
H251 C245 0.930 . S
Mn252 O257 2.095 . S
Mn252 O267 2.162 1_565 S
Mn252 O268 2.297 1_565 S
Mn252 O276 2.385 . S
Mn252 O277 2.209 . S
Mn252 O278 2.094 . S
Mn253 O258 2.121 . S
Mn253 N260 2.257 . S
Mn253 N269 2.282 . S
Mn253 O277 2.215 . S
Mn253 O279 2.117 . S
C254 O276 1.234 . S
C254 O277 1.283 . S
C255 O267 1.281 . S
C255 O268 1.236 . S
C256 O278 1.240 . S
C256 O279 1.264 . S
O257 Mn252 2.095 . S
O257 C266 1.250 . S
O258 Mn253 2.121 . S
O258 C266 1.258 . S
C259 N260 1.326 . S
C259 C263 1.460 . S
C259 H265 0.929 . S
N260 Mn253 2.257 . S
N260 C259 1.326 . S
N260 C264 1.362 . S
C261 C262 1.258 . S
C261 C264 1.431 . S
C261 C281 1.449 . S
C262 C261 1.258 . S
C262 C263 1.477 . S
C262 H282 0.931 . S
C263 C259 1.460 . S
C263 C262 1.477 . S
C263 H283 0.930 . S
C264 N260 1.362 . S
C264 C261 1.431 . S
C264 C274 1.476 . S
H265 C259 0.929 . S
C266 O257 1.250 . S
C266 O258 1.258 . S
O267 Mn252 2.162 1_545 S
O267 C255 1.281 . S
O268 Mn252 2.297 1_545 S
O268 C255 1.236 . S
N269 Mn253 2.282 . S
N269 C270 1.328 . S
N269 C274 1.318 . S
C270 N269 1.328 . S
C270 C271 1.457 . S
C270 H275 0.929 . S
C271 C270 1.457 . S
C271 C272 1.291 . S
C271 H284 0.931 . S
C272 C271 1.291 . S
C272 C273 1.373 . S
C272 H285 0.929 . S
C273 C272 1.373 . S
C273 C274 1.396 . S
C273 C280 1.403 . S
C274 C264 1.476 . S
C274 N269 1.318 . S
C274 C273 1.396 . S
H275 C270 0.929 . S
O276 Mn252 2.385 . S
O276 C254 1.234 . S
O277 Mn252 2.209 . S
O277 Mn253 2.215 . S
O277 C254 1.283 . S
O278 Mn252 2.094 . S
O278 C256 1.240 . S
O279 Mn253 2.117 . S
O279 C256 1.264 . S
C280 C273 1.403 . S
C280 C281 1.399 . S
C280 H286 0.929 . S
C281 C261 1.449 . S
C281 C280 1.399 . S
C281 H287 0.930 . S
H282 C262 0.931 . S
H283 C263 0.930 . S
H284 C271 0.931 . S
H285 C272 0.929 . S
H286 C280 0.929 . S
H287 C281 0.930 . S
Mn288 O293 2.095 . S
Mn288 O303 2.162 1_455 S
Mn288 O304 2.297 1_455 S
Mn288 O312 2.385 . S
Mn288 O313 2.209 . S
Mn288 O314 2.094 . S
Mn289 O294 2.121 . S
Mn289 N296 2.257 . S
Mn289 N305 2.282 . S
Mn289 O313 2.215 . S
Mn289 O315 2.117 . S
C290 O312 1.234 . S
C290 O313 1.283 . S
C291 O303 1.281 . S
C291 O304 1.236 . S
C292 O314 1.240 . S
C292 O315 1.264 . S
O293 Mn288 2.095 . S
O293 C302 1.250 . S
O294 Mn289 2.121 . S
O294 C302 1.258 . S
C295 N296 1.326 . S
C295 C299 1.460 . S
C295 H301 0.929 . S
N296 Mn289 2.257 . S
N296 C295 1.326 . S
N296 C300 1.362 . S
C297 C298 1.258 . S
C297 C300 1.431 . S
C297 C317 1.449 . S
C298 C297 1.258 . S
C298 C299 1.477 . S
C298 H318 0.931 . S
C299 C295 1.460 . S
C299 C298 1.477 . S
C299 H319 0.930 . S
C300 N296 1.362 . S
C300 C297 1.431 . S
C300 C310 1.476 . S
H301 C295 0.929 . S
C302 O293 1.250 . S
C302 O294 1.258 . S
O303 Mn288 2.162 1_655 S
O303 C291 1.281 . S
O304 Mn288 2.297 1_655 S
O304 C291 1.236 . S
N305 Mn289 2.282 . S
N305 C306 1.328 . S
N305 C310 1.318 . S
C306 N305 1.328 . S
C306 C307 1.457 . S
C306 H311 0.929 . S
C307 C306 1.457 . S
C307 C308 1.291 . S
C307 H320 0.931 . S
C308 C307 1.291 . S
C308 C309 1.373 . S
C308 H321 0.929 . S
C309 C308 1.373 . S
C309 C310 1.396 . S
C309 C316 1.403 . S
C310 C300 1.476 . S
C310 N305 1.318 . S
C310 C309 1.396 . S
H311 C306 0.929 . S
O312 Mn288 2.385 . S
O312 C290 1.234 . S
O313 Mn288 2.209 . S
O313 Mn289 2.215 . S
O313 C290 1.283 . S
O314 Mn288 2.094 . S
O314 C292 1.240 . S
O315 Mn289 2.117 . S
O315 C292 1.264 . S
C316 C309 1.403 . S
C316 C317 1.399 . S
C316 H322 0.929 . S
C317 C297 1.449 . S
C317 C316 1.399 . S
C317 H323 0.930 . S
H318 C298 0.931 . S
H319 C299 0.930 . S
H320 C307 0.931 . S
H321 C308 0.929 . S
H322 C316 0.929 . S
H323 C317 0.930 . S
Mn324 O329 2.095 . S
Mn324 O339 2.162 . S
Mn324 O340 2.297 . S
Mn324 O348 2.385 . S
Mn324 O349 2.209 . S
Mn324 O350 2.094 . S
Mn325 O330 2.121 1_565 S
Mn325 N332 2.257 . S
Mn325 N341 2.282 . S
Mn325 O349 2.215 . S
Mn325 O351 2.117 . S
C326 O348 1.234 . S
C326 O349 1.283 . S
C327 O339 1.281 . S
C327 O340 1.236 . S
C328 O350 1.240 . S
C328 O351 1.264 . S
O329 Mn324 2.095 . S
O329 C338 1.250 1_565 S
O330 Mn325 2.121 1_545 S
O330 C338 1.258 . S
C331 N332 1.326 1_545 S
C331 C335 1.460 . S
C331 H337 0.929 . S
N332 Mn325 2.257 . S
N332 C331 1.326 1_565 S
N332 C336 1.362 . S
C333 C334 1.258 . S
C333 C336 1.431 . S
C333 C353 1.449 . S
C334 C333 1.258 . S
C334 C335 1.477 1_565 S
C334 H354 0.931 . S
C335 C331 1.460 . S
C335 C334 1.477 1_545 S
C335 H355 0.930 . S
C336 N332 1.362 . S
C336 C333 1.431 . S
C336 C346 1.476 . S
H337 C331 0.929 . S
C338 O329 1.250 1_545 S
C338 O330 1.258 . S
O339 Mn324 2.162 . S
O339 C327 1.281 . S
O340 Mn324 2.297 . S
O340 C327 1.236 . S
N341 Mn325 2.282 . S
N341 C342 1.328 . S
N341 C346 1.318 . S
C342 N341 1.328 . S
C342 C343 1.457 . S
C342 H347 0.929 . S
C343 C342 1.457 . S
C343 C344 1.291 . S
C343 H356 0.931 . S
C344 C343 1.291 . S
C344 C345 1.373 . S
C344 H357 0.929 . S
C345 C344 1.373 . S
C345 C346 1.396 . S
C345 C352 1.403 . S
C346 C336 1.476 . S
C346 N341 1.318 . S
C346 C345 1.396 . S
H347 C342 0.929 . S
O348 Mn324 2.385 . S
O348 C326 1.234 . S
O349 Mn324 2.209 . S
O349 Mn325 2.215 . S
O349 C326 1.283 . S
O350 Mn324 2.094 . S
O350 C328 1.240 . S
O351 Mn325 2.117 . S
O351 C328 1.264 . S
C352 C345 1.403 . S
C352 C353 1.399 . S
C352 H358 0.929 . S
C353 C333 1.449 . S
C353 C352 1.399 . S
C353 H359 0.930 . S
H354 C334 0.931 . S
H355 C335 0.930 . S
H356 C343 0.931 . S
H357 C344 0.929 . S
H358 C352 0.929 . S
H359 C353 0.930 . S
Mn360 O365 2.095 . S
Mn360 O375 2.162 1_455 S
Mn360 O376 2.276 1_455 S
Mn360 O384 2.385 . S
Mn360 O385 2.209 . S
Mn360 O386 2.094 . S
Mn361 O366 2.121 . S
Mn361 N368 2.257 . S
Mn361 N377 2.282 . S
Mn361 O385 2.215 . S
Mn361 O387 2.117 . S
C362 O384 1.234 . S
C362 O385 1.283 . S
C363 O375 1.281 . S
C363 O376 1.278 . S
C364 O386 1.240 . S
C364 O387 1.264 . S
O365 Mn360 2.095 . S
O365 C374 1.250 . S
O366 Mn361 2.121 . S
O366 C374 1.258 . S
C367 N368 1.326 . S
C367 C371 1.460 . S
C367 H373 0.929 . S
N368 Mn361 2.257 . S
N368 C367 1.326 . S
N368 C372 1.362 . S
C369 C370 1.258 . S
C369 C372 1.431 . S
C369 C389 1.449 . S
C370 C369 1.258 . S
C370 C371 1.477 . S
C370 H390 0.931 . S
C371 C367 1.460 . S
C371 C370 1.477 . S
C371 H391 0.930 . S
C372 N368 1.362 . S
C372 C369 1.431 . S
C372 C382 1.476 . S
H373 C367 0.929 . S
C374 O365 1.250 . S
C374 O366 1.258 . S
O375 Mn360 2.162 1_655 S
O375 C363 1.281 . S
O376 Mn360 2.276 1_655 S
O376 C363 1.278 . S
N377 Mn361 2.282 . S
N377 C378 1.328 . S
N377 C382 1.318 . S
C378 N377 1.328 . S
C378 C379 1.457 . S
C378 H383 0.929 . S
C379 C378 1.457 . S
C379 C380 1.291 . S
C379 H392 0.931 . S
C380 C379 1.291 . S
C380 C381 1.373 . S
C380 H393 0.929 . S
C381 C380 1.373 . S
C381 C382 1.396 . S
C381 C388 1.403 . S
C382 C372 1.476 . S
C382 N377 1.318 . S
C382 C381 1.396 . S
H383 C378 0.929 . S
O384 Mn360 2.385 . S
O384 C362 1.234 . S
O385 Mn360 2.209 . S
O385 Mn361 2.215 . S
O385 C362 1.283 . S
O386 Mn360 2.094 . S
O386 C364 1.240 . S
O387 Mn361 2.117 . S
O387 C364 1.264 . S
C388 C381 1.403 . S
C388 C389 1.399 . S
C388 H394 0.929 . S
C389 C369 1.449 . S
C389 C388 1.399 . S
C389 H395 0.930 . S
H390 C370 0.931 . S
H391 C371 0.930 . S
H392 C379 0.931 . S
H393 C380 0.929 . S
H394 C388 0.929 . S
H395 C389 0.930 . S
Mn396 O401 2.095 . S
Mn396 O411 2.162 . S
Mn396 O412 2.297 . S
Mn396 O420 2.385 . S
Mn396 O421 2.209 . S
Mn396 O422 2.094 . S
Mn397 O402 2.121 . S
Mn397 N404 2.257 . S
Mn397 N413 2.282 . S
Mn397 O421 2.215 . S
Mn397 O423 2.117 . S
C398 O420 1.234 . S
C398 O421 1.283 . S
C399 O411 1.281 . S
C399 O412 1.236 . S
C400 O422 1.240 . S
C400 O423 1.264 . S
O401 Mn396 2.095 . S
O401 C410 1.250 . S
O402 Mn397 2.121 . S
O402 C410 1.258 . S
C403 N404 1.326 . S
C403 C407 1.460 . S
C403 H409 0.929 . S
N404 Mn397 2.257 . S
N404 C403 1.326 . S
N404 C408 1.362 . S
C405 C406 1.258 . S
C405 C408 1.431 . S
C405 C425 1.449 . S
C406 C405 1.258 . S
C406 C407 1.477 . S
C406 H426 0.931 . S
C407 C403 1.460 . S
C407 C406 1.477 . S
C407 H427 0.930 . S
C408 N404 1.362 . S
C408 C405 1.431 . S
C408 C418 1.476 . S
H409 C403 0.929 . S
C410 O401 1.250 . S
C410 O402 1.258 . S
O411 Mn396 2.162 . S
O411 C399 1.281 . S
O412 Mn396 2.297 . S
O412 C399 1.236 . S
N413 Mn397 2.282 . S
N413 C414 1.328 . S
N413 C418 1.318 . S
C414 N413 1.328 . S
C414 C415 1.457 . S
C414 H419 0.929 . S
C415 C414 1.457 . S
C415 C416 1.291 . S
C415 H428 0.931 . S
C416 C415 1.291 . S
C416 C417 1.373 . S
C416 H429 0.929 . S
C417 C416 1.373 . S
C417 C418 1.396 . S
C417 C424 1.403 . S
C418 C408 1.476 . S
C418 N413 1.318 . S
C418 C417 1.396 . S
H419 C414 0.929 . S
O420 Mn396 2.385 . S
O420 C398 1.234 . S
O421 Mn396 2.209 . S
O421 Mn397 2.215 . S
O421 C398 1.283 . S
O422 Mn396 2.094 . S
O422 C400 1.240 . S
O423 Mn397 2.117 . S
O423 C400 1.264 . S
C424 C417 1.403 . S
C424 C425 1.399 . S
C424 H430 0.929 . S
C425 C405 1.449 . S
C425 C424 1.399 . S
C425 H431 0.930 . S
H426 C406 0.931 . S
H427 C407 0.930 . S
H428 C415 0.931 . S
H429 C416 0.929 . S
H430 C424 0.929 . S
H431 C425 0.930 . S
Mn432 O437 2.095 . S
Mn432 O447 2.162 1_545 S
Mn432 O448 2.240 1_545 S
Mn432 O456 2.385 . S
Mn432 O457 2.209 . S
Mn432 O458 2.094 . S
Mn433 O438 2.121 . S
Mn433 N440 2.257 . S
Mn433 N449 2.282 . S
Mn433 O457 2.215 . S
Mn433 O459 2.117 . S
C434 O456 1.234 . S
C434 O457 1.283 . S
C435 O447 1.281 . S
C435 O448 1.253 . S
C436 O458 1.240 . S
C436 O459 1.264 . S
O437 Mn432 2.095 . S
O437 C446 1.250 . S
O438 Mn433 2.121 . S
O438 C446 1.258 . S
C439 N440 1.326 . S
C439 C443 1.460 . S
C439 H445 0.929 . S
N440 Mn433 2.257 . S
N440 C439 1.326 . S
N440 C444 1.362 . S
C441 C442 1.258 . S
C441 C444 1.431 . S
C441 C461 1.449 . S
C442 C441 1.258 . S
C442 C443 1.477 . S
C442 H462 0.931 . S
C443 C439 1.460 . S
C443 C442 1.477 . S
C443 H463 0.930 . S
C444 N440 1.362 . S
C444 C441 1.431 . S
C444 C454 1.476 . S
H445 C439 0.929 . S
C446 O437 1.250 . S
C446 O438 1.258 . S
O447 Mn432 2.162 1_565 S
O447 C435 1.281 . S
O448 Mn432 2.240 1_565 S
O448 C435 1.253 . S
N449 Mn433 2.282 . S
N449 C450 1.328 . S
N449 C454 1.318 . S
C450 N449 1.328 . S
C450 C451 1.457 . S
C450 H455 0.929 . S
C451 C450 1.457 . S
C451 C452 1.291 . S
C451 H464 0.931 . S
C452 C451 1.291 . S
C452 C453 1.373 . S
C452 H465 0.929 . S
C453 C452 1.373 . S
C453 C454 1.396 . S
C453 C460 1.403 . S
C454 C444 1.476 . S
C454 N449 1.318 . S
C454 C453 1.396 . S
H455 C450 0.929 . S
O456 Mn432 2.385 . S
O456 C434 1.234 . S
O457 Mn432 2.209 . S
O457 Mn433 2.215 . S
O457 C434 1.283 . S
O458 Mn432 2.094 . S
O458 C436 1.240 . S
O459 Mn433 2.117 . S
O459 C436 1.264 . S
C460 C453 1.403 . S
C460 C461 1.399 . S
C460 H466 0.929 . S
C461 C441 1.449 . S
C461 C460 1.399 . S
C461 H467 0.930 . S
H462 C442 0.931 . S
H463 C443 0.930 . S
H464 C451 0.931 . S
H465 C452 0.929 . S
H466 C460 0.929 . S
H467 C461 0.930 . S
Mn468 O473 2.095 . S
Mn468 O483 2.162 . S
Mn468 O484 2.297 . S
Mn468 O492 2.385 . S
Mn468 O493 2.209 . S
Mn468 O494 2.094 . S
Mn469 O474 2.121 1_655 S
Mn469 N476 2.257 . S
Mn469 N485 2.282 . S
Mn469 O493 2.215 . S
Mn469 O495 2.117 . S
C470 O492 1.234 . S
C470 O493 1.283 . S
C471 O483 1.281 . S
C471 O484 1.236 . S
C472 O494 1.240 . S
C472 O495 1.264 . S
O473 Mn468 2.095 . S
O473 C482 1.250 1_655 S
O474 Mn469 2.121 1_455 S
O474 C482 1.258 . S
C475 N476 1.326 1_455 S
C475 C479 1.460 . S
C475 H481 0.929 . S
N476 Mn469 2.257 . S
N476 C475 1.326 1_655 S
N476 C480 1.362 . S
C477 C478 1.258 . S
C477 C480 1.431 . S
C477 C497 1.449 . S
C478 C477 1.258 . S
C478 C479 1.477 1_655 S
C478 H498 0.931 . S
C479 C475 1.460 . S
C479 C478 1.477 1_455 S
C479 H499 0.930 . S
C480 N476 1.362 . S
C480 C477 1.431 . S
C480 C490 1.476 . S
H481 C475 0.929 . S
C482 O473 1.250 1_455 S
C482 O474 1.258 . S
O483 Mn468 2.162 . S
O483 C471 1.281 . S
O484 Mn468 2.297 . S
O484 C471 1.236 . S
N485 Mn469 2.282 . S
N485 C486 1.328 . S
N485 C490 1.318 . S
C486 N485 1.328 . S
C486 C487 1.457 . S
C486 H491 0.929 . S
C487 C486 1.457 . S
C487 C488 1.291 . S
C487 H500 0.931 . S
C488 C487 1.291 . S
C488 C489 1.373 . S
C488 H501 0.929 . S
C489 C488 1.373 . S
C489 C490 1.396 . S
C489 C496 1.403 . S
C490 C480 1.476 . S
C490 N485 1.318 . S
C490 C489 1.396 . S
H491 C486 0.929 . S
O492 Mn468 2.385 . S
O492 C470 1.234 . S
O493 Mn468 2.209 . S
O493 Mn469 2.215 . S
O493 C470 1.283 . S
O494 Mn468 2.094 . S
O494 C472 1.240 . S
O495 Mn469 2.117 . S
O495 C472 1.264 . S
C496 C489 1.403 . S
C496 C497 1.399 . S
C496 H502 0.929 . S
C497 C477 1.449 . S
C497 C496 1.399 . S
C497 H503 0.930 . S
H498 C478 0.931 . S
H499 C479 0.930 . S
H500 C487 0.931 . S
H501 C488 0.929 . S
H502 C496 0.929 . S
H503 C497 0.930 . S
Mn504 O509 2.095 . S
Mn504 O519 2.162 . S
Mn504 O520 2.297 . S
Mn504 O528 2.385 . S
Mn504 O529 2.209 . S
Mn504 O530 2.094 . S
Mn505 O510 2.121 . S
Mn505 N512 2.257 . S
Mn505 N521 2.282 . S
Mn505 O529 2.215 . S
Mn505 O531 2.117 . S
C506 O528 1.234 . S
C506 O529 1.283 . S
C507 O519 1.281 . S
C507 O520 1.236 . S
C508 O530 1.240 . S
C508 O531 1.264 . S
O509 Mn504 2.095 . S
O509 C518 1.250 . S
O510 Mn505 2.121 . S
O510 C518 1.258 . S
C511 N512 1.326 . S
C511 C515 1.460 . S
C511 H517 0.929 . S
N512 Mn505 2.257 . S
N512 C511 1.326 . S
N512 C516 1.362 . S
C513 C514 1.258 . S
C513 C516 1.431 . S
C513 C533 1.449 . S
C514 C513 1.258 . S
C514 C515 1.477 . S
C514 H534 0.931 . S
C515 C511 1.460 . S
C515 C514 1.477 . S
C515 H535 0.930 . S
C516 N512 1.362 . S
C516 C513 1.431 . S
C516 C526 1.476 . S
H517 C511 0.929 . S
C518 O509 1.250 . S
C518 O510 1.258 . S
O519 Mn504 2.162 . S
O519 C507 1.281 . S
O520 Mn504 2.297 . S
O520 C507 1.236 . S
N521 Mn505 2.282 . S
N521 C522 1.328 . S
N521 C526 1.318 . S
C522 N521 1.328 . S
C522 C523 1.457 . S
C522 H527 0.929 . S
C523 C522 1.457 . S
C523 C524 1.291 . S
C523 H536 0.931 . S
C524 C523 1.291 . S
C524 C525 1.373 . S
C524 H537 0.929 . S
C525 C524 1.373 . S
C525 C526 1.396 . S
C525 C532 1.403 . S
C526 C516 1.476 . S
C526 N521 1.318 . S
C526 C525 1.396 . S
H527 C522 0.929 . S
O528 Mn504 2.385 . S
O528 C506 1.234 . S
O529 Mn504 2.209 . S
O529 Mn505 2.215 . S
O529 C506 1.283 . S
O530 Mn504 2.094 . S
O530 C508 1.240 . S
O531 Mn505 2.117 . S
O531 C508 1.264 . S
C532 C525 1.403 . S
C532 C533 1.399 . S
C532 H538 0.929 . S
C533 C513 1.449 . S
C533 C532 1.399 . S
C533 H539 0.930 . S
H534 C514 0.931 . S
H535 C515 0.930 . S
H536 C523 0.931 . S
H537 C524 0.929 . S
H538 C532 0.929 . S
H539 C533 0.930 . S
Mn540 O545 2.095 . S
Mn540 O555 2.162 . S
Mn540 O556 2.297 . S
Mn540 O564 2.385 . S
Mn540 O565 2.209 . S
Mn540 O566 2.094 . S
Mn541 O546 2.121 . S
Mn541 N548 2.257 . S
Mn541 N557 2.282 . S
Mn541 O565 2.215 . S
Mn541 O567 2.117 . S
C542 O564 1.234 . S
C542 O565 1.283 . S
C543 O555 1.281 . S
C543 O556 1.236 . S
C544 O566 1.240 . S
C544 O567 1.264 . S
O545 Mn540 2.095 . S
O545 C554 1.250 . S
O546 Mn541 2.121 . S
O546 C554 1.258 . S
C547 N548 1.326 . S
C547 C551 1.460 . S
C547 H553 0.929 . S
N548 Mn541 2.257 . S
N548 C547 1.326 . S
N548 C552 1.362 . S
C549 C550 1.258 . S
C549 C552 1.431 . S
C549 C569 1.449 . S
C550 C549 1.258 . S
C550 C551 1.477 . S
C550 H570 0.931 . S
C551 C547 1.460 . S
C551 C550 1.477 . S
C551 H571 0.930 . S
C552 N548 1.362 . S
C552 C549 1.431 . S
C552 C562 1.476 . S
H553 C547 0.929 . S
C554 O545 1.250 . S
C554 O546 1.258 . S
O555 Mn540 2.162 . S
O555 C543 1.281 . S
O556 Mn540 2.297 . S
O556 C543 1.236 . S
N557 Mn541 2.282 . S
N557 C558 1.328 . S
N557 C562 1.318 . S
C558 N557 1.328 . S
C558 C559 1.457 . S
C558 H563 0.929 . S
C559 C558 1.457 . S
C559 C560 1.291 . S
C559 H572 0.931 . S
C560 C559 1.291 . S
C560 C561 1.373 . S
C560 H573 0.929 . S
C561 C560 1.373 . S
C561 C562 1.396 . S
C561 C568 1.403 . S
C562 C552 1.476 . S
C562 N557 1.318 . S
C562 C561 1.396 . S
H563 C558 0.929 . S
O564 Mn540 2.385 . S
O564 C542 1.234 . S
O565 Mn540 2.209 . S
O565 Mn541 2.215 . S
O565 C542 1.283 . S
O566 Mn540 2.094 . S
O566 C544 1.240 . S
O567 Mn541 2.117 . S
O567 C544 1.264 . S
C568 C561 1.403 . S
C568 C569 1.399 . S
C568 H574 0.929 . S
C569 C549 1.449 . S
C569 C568 1.399 . S
C569 H575 0.930 . S
H570 C550 0.931 . S
H571 C551 0.930 . S
H572 C559 0.931 . S
H573 C560 0.929 . S
H574 C568 0.929 . S
H575 C569 0.930 . S
Mn576 O581 2.095 . S
Mn576 O591 2.162 . S
Mn576 O592 2.297 . S
Mn576 O600 2.385 . S
Mn576 O601 2.209 . S
Mn576 O602 2.094 . S
Mn577 O582 2.121 1_545 S
Mn577 N584 2.257 . S
Mn577 N593 2.282 . S
Mn577 O601 2.215 . S
Mn577 O603 2.117 . S
C578 O600 1.234 . S
C578 O601 1.283 . S
C579 O591 1.281 . S
C579 O592 1.236 . S
C580 O602 1.240 . S
C580 O603 1.264 . S
O581 Mn576 2.095 . S
O581 C590 1.250 1_545 S
O582 Mn577 2.121 1_565 S
O582 C590 1.258 . S
C583 N584 1.326 1_565 S
C583 C587 1.460 . S
C583 H589 0.929 . S
N584 Mn577 2.257 . S
N584 C583 1.326 1_545 S
N584 C588 1.362 . S
C585 C586 1.258 . S
C585 C588 1.431 . S
C585 C605 1.449 . S
C586 C585 1.258 . S
C586 C587 1.477 1_545 S
C586 H606 0.931 . S
C587 C583 1.460 . S
C587 C586 1.477 1_565 S
C587 H607 0.930 . S
C588 N584 1.362 . S
C588 C585 1.431 . S
C588 C598 1.476 . S
H589 C583 0.929 . S
C590 O581 1.250 1_565 S
C590 O582 1.258 . S
O591 Mn576 2.162 . S
O591 C579 1.281 . S
O592 Mn576 2.297 . S
O592 C579 1.236 . S
N593 Mn577 2.282 . S
N593 C594 1.328 . S
N593 C598 1.318 . S
C594 N593 1.328 . S
C594 C595 1.457 . S
C594 H599 0.929 . S
C595 C594 1.457 . S
C595 C596 1.291 . S
C595 H608 0.931 . S
C596 C595 1.291 . S
C596 C597 1.373 . S
C596 H609 0.929 . S
C597 C596 1.373 . S
C597 C598 1.396 . S
C597 C604 1.403 . S
C598 C588 1.476 . S
C598 N593 1.318 . S
C598 C597 1.396 . S
H599 C594 0.929 . S
O600 Mn576 2.385 . S
O600 C578 1.234 . S
O601 Mn576 2.209 . S
O601 Mn577 2.215 . S
O601 C578 1.283 . S
O602 Mn576 2.094 . S
O602 C580 1.240 . S
O603 Mn577 2.117 . S
O603 C580 1.264 . S
C604 C597 1.403 . S
C604 C605 1.399 . S
C604 H610 0.929 . S
C605 C585 1.449 . S
C605 C604 1.399 . S
C605 H611 0.930 . S
H606 C586 0.931 . S
H607 C587 0.930 . S
H608 C595 0.931 . S
H609 C596 0.929 . S
H610 C604 0.929 . S
H611 C605 0.930 . S
Mn612 O617 2.095 . S
Mn612 O627 2.162 1_655 S
Mn612 O628 2.297 1_655 S
Mn612 O636 2.385 . S
Mn612 O637 2.209 . S
Mn612 O638 2.094 . S
Mn613 O618 2.121 . S
Mn613 N620 2.257 . S
Mn613 N629 2.282 . S
Mn613 O637 2.215 . S
Mn613 O639 2.117 . S
C614 O636 1.234 . S
C614 O637 1.283 . S
C615 O627 1.281 . S
C615 O628 1.236 . S
C616 O638 1.240 . S
C616 O639 1.264 . S
O617 Mn612 2.095 . S
O617 C626 1.250 . S
O618 Mn613 2.121 . S
O618 C626 1.258 . S
C619 N620 1.326 . S
C619 C623 1.460 . S
C619 H625 0.929 . S
N620 Mn613 2.257 . S
N620 C619 1.326 . S
N620 C624 1.362 . S
C621 C622 1.258 . S
C621 C624 1.431 . S
C621 C641 1.449 . S
C622 C621 1.258 . S
C622 C623 1.477 . S
C622 H642 0.931 . S
C623 C619 1.460 . S
C623 C622 1.477 . S
C623 H643 0.930 . S
C624 N620 1.362 . S
C624 C621 1.431 . S
C624 C634 1.476 . S
H625 C619 0.929 . S
C626 O617 1.250 . S
C626 O618 1.258 . S
O627 Mn612 2.162 1_455 S
O627 C615 1.281 . S
O628 Mn612 2.297 1_455 S
O628 C615 1.236 . S
N629 Mn613 2.282 . S
N629 C630 1.328 . S
N629 C634 1.318 . S
C630 N629 1.328 . S
C630 C631 1.457 . S
C630 H635 0.929 . S
C631 C630 1.457 . S
C631 C632 1.291 . S
C631 H644 0.931 . S
C632 C631 1.291 . S
C632 C633 1.373 . S
C632 H645 0.929 . S
C633 C632 1.373 . S
C633 C634 1.396 . S
C633 C640 1.403 . S
C634 C624 1.476 . S
C634 N629 1.318 . S
C634 C633 1.396 . S
H635 C630 0.929 . S
O636 Mn612 2.385 . S
O636 C614 1.234 . S
O637 Mn612 2.209 . S
O637 Mn613 2.215 . S
O637 C614 1.283 . S
O638 Mn612 2.094 . S
O638 C616 1.240 . S
O639 Mn613 2.117 . S
O639 C616 1.264 . S
C640 C633 1.403 . S
C640 C641 1.399 . S
C640 H646 0.929 . S
C641 C621 1.449 . S
C641 C640 1.399 . S
C641 H647 0.930 . S
H642 C622 0.931 . S
H643 C623 0.930 . S
H644 C631 0.931 . S
H645 C632 0.929 . S
H646 C640 0.929 . S
H647 C641 0.930 . S
H648 C654 0.930 . S
H649 C657 0.931 . S
H650 C659 0.931 . S
H651 C661 0.930 . S
H652 C663 0.930 . S
H653 C665 0.931 . S
C654 H648 0.930 . S
C654 C655 1.380 . S
C654 C656 1.394 . S
C655 C654 1.380 . S
C655 C659 1.382 . S
C656 C654 1.394 . S
C656 C657 1.400 . S
C657 H649 0.931 . S
C657 C656 1.400 . S
C657 C658 1.375 . S
C658 C657 1.375 . S
C658 C659 1.415 . S
C658 C660 1.501 . S
C659 H650 0.931 . S
C659 C655 1.382 . S
C659 C658 1.415 . S
C660 C658 1.501 . S
C660 C661 1.384 . S
C660 C665 1.408 . S
C661 H651 0.930 . S
C661 C660 1.384 . S
C661 C662 1.389 . S
C662 C661 1.389 . S
C662 C663 1.405 . S
C663 H652 0.930 . S
C663 C662 1.405 . S
C663 C664 1.364 . S
C664 C663 1.364 . S
C664 C665 1.400 . S
C665 H653 0.931 . S
C665 C660 1.408 . S
C665 C664 1.400 . S
H666 C672 0.930 . S
H667 C675 0.931 . S
H668 C677 0.931 . S
H669 C679 0.930 . S
H670 C681 0.930 . S
H671 C683 0.931 . S
C672 H666 0.930 . S
C672 C673 1.380 . S
C672 C674 1.394 . S
C673 C672 1.380 . S
C673 C677 1.382 . S
C674 C672 1.394 . S
C674 C675 1.400 . S
C675 H667 0.931 . S
C675 C674 1.400 . S
C675 C676 1.375 . S
C676 C675 1.375 . S
C676 C677 1.415 . S
C676 C678 1.501 . S
C677 H668 0.931 . S
C677 C673 1.382 . S
C677 C676 1.415 . S
C678 C676 1.501 . S
C678 C679 1.384 . S
C678 C683 1.408 . S
C679 H669 0.930 . S
C679 C678 1.384 . S
C679 C680 1.389 . S
C680 C679 1.389 . S
C680 C681 1.405 . S
C681 H670 0.930 . S
C681 C680 1.405 . S
C681 C682 1.364 . S
C682 C681 1.364 . S
C682 C683 1.400 . S
C683 H671 0.931 . S
C683 C678 1.408 . S
C683 C682 1.400 . S
H684 C690 0.930 . S
H685 C693 0.931 . S
H686 C695 0.931 . S
H687 C697 0.930 . S
H688 C699 0.930 . S
H689 C701 0.931 . S
C690 H684 0.930 . S
C690 C691 1.380 . S
C690 C692 1.394 . S
C691 C690 1.380 . S
C691 C695 1.382 . S
C692 C690 1.394 . S
C692 C693 1.400 . S
C693 H685 0.931 . S
C693 C692 1.400 . S
C693 C694 1.375 . S
C694 C693 1.375 . S
C694 C695 1.415 . S
C694 C696 1.501 . S
C695 H686 0.931 . S
C695 C691 1.382 . S
C695 C694 1.415 . S
C696 C694 1.501 . S
C696 C697 1.384 . S
C696 C701 1.408 . S
C697 H687 0.930 . S
C697 C696 1.384 . S
C697 C698 1.389 . S
C698 C697 1.389 . S
C698 C699 1.405 . S
C699 H688 0.930 . S
C699 C698 1.405 . S
C699 C700 1.364 . S
C700 C699 1.364 . S
C700 C701 1.400 . S
C701 H689 0.931 . S
C701 C696 1.408 . S
C701 C700 1.400 . S
H702 C708 0.930 . S
H703 C711 0.931 . S
H704 C713 0.931 . S
H705 C715 0.930 . S
H706 C717 0.930 . S
H707 C719 0.931 . S
C708 H702 0.930 . S
C708 C709 1.380 . S
C708 C710 1.394 . S
C709 C708 1.380 . S
C709 C713 1.382 . S
C710 C708 1.394 . S
C710 C711 1.400 . S
C711 H703 0.931 . S
C711 C710 1.400 . S
C711 C712 1.375 . S
C712 C711 1.375 . S
C712 C713 1.415 . S
C712 C714 1.501 . S
C713 H704 0.931 . S
C713 C709 1.382 . S
C713 C712 1.415 . S
C714 C712 1.501 . S
C714 C715 1.384 . S
C714 C719 1.408 . S
C715 H705 0.930 . S
C715 C714 1.384 . S
C715 C716 1.389 . S
C716 C715 1.389 . S
C716 C717 1.405 . S
C717 H706 0.930 . S
C717 C716 1.405 . S
C717 C718 1.364 . S
C718 C717 1.364 . S
C718 C719 1.400 . S
C719 H707 0.931 . S
C719 C714 1.408 . S
C719 C718 1.400 . S
H720 C726 0.930 . S
H721 C729 0.931 . S
H722 C731 0.931 . S
H723 C733 0.930 . S
H724 C735 0.930 . S
H725 C737 0.931 . S
C726 H720 0.930 . S
C726 C727 1.380 . S
C726 C728 1.394 . S
C727 C726 1.380 . S
C727 C731 1.382 . S
C728 C726 1.394 . S
C728 C729 1.400 . S
C729 H721 0.931 . S
C729 C728 1.400 . S
C729 C730 1.375 . S
C730 C729 1.375 . S
C730 C731 1.415 . S
C730 C732 1.501 . S
C731 H722 0.931 . S
C731 C727 1.382 . S
C731 C730 1.415 . S
C732 C730 1.501 . S
C732 C733 1.384 . S
C732 C737 1.408 . S
C733 H723 0.930 . S
C733 C732 1.384 . S
C733 C734 1.389 . S
C734 C733 1.389 . S
C734 C735 1.405 . S
C735 H724 0.930 . S
C735 C734 1.405 . S
C735 C736 1.364 . S
C736 C735 1.364 . S
C736 C737 1.400 . S
C737 H725 0.931 . S
C737 C732 1.408 . S
C737 C736 1.400 . S
H738 C744 0.930 . S
H739 C747 0.931 . S
H740 C749 0.931 . S
H741 C751 0.930 . S
H742 C753 0.930 . S
H743 C755 0.931 . S
C744 H738 0.930 . S
C744 C745 1.380 . S
C744 C746 1.394 . S
C745 C744 1.380 . S
C745 C749 1.382 . S
C746 C744 1.394 . S
C746 C747 1.400 . S
C747 H739 0.931 . S
C747 C746 1.400 . S
C747 C748 1.375 . S
C748 C747 1.375 . S
C748 C749 1.415 . S
C748 C750 1.501 . S
C749 H740 0.931 . S
C749 C745 1.382 . S
C749 C748 1.415 . S
C750 C748 1.501 . S
C750 C751 1.384 . S
C750 C755 1.408 . S
C751 H741 0.930 . S
C751 C750 1.384 . S
C751 C752 1.389 . S
C752 C751 1.389 . S
C752 C753 1.405 . S
C753 H742 0.930 . S
C753 C752 1.405 . S
C753 C754 1.364 . S
C754 C753 1.364 . S
C754 C755 1.400 . S
C755 H743 0.931 . S
C755 C750 1.408 . S
C755 C754 1.400 . S
H756 C762 0.930 . S
H757 C765 0.931 . S
H758 C767 0.931 . S
H759 C769 0.930 . S
H760 C771 0.930 . S
H761 C773 0.931 . S
C762 H756 0.930 . S
C762 C763 1.380 . S
C762 C764 1.394 . S
C763 C762 1.380 . S
C763 C767 1.382 . S
C764 C762 1.394 . S
C764 C765 1.400 . S
C765 H757 0.931 . S
C765 C764 1.400 . S
C765 C766 1.375 . S
C766 C765 1.375 . S
C766 C767 1.415 . S
C766 C768 1.501 . S
C767 H758 0.931 . S
C767 C763 1.382 . S
C767 C766 1.415 . S
C768 C766 1.501 . S
C768 C769 1.384 . S
C768 C773 1.408 . S
C769 H759 0.930 . S
C769 C768 1.384 . S
C769 C770 1.389 . S
C770 C769 1.389 . S
C770 C771 1.405 . S
C771 H760 0.930 . S
C771 C770 1.405 . S
C771 C772 1.364 . S
C772 C771 1.364 . S
C772 C773 1.400 . S
C773 H761 0.931 . S
C773 C768 1.408 . S
C773 C772 1.400 . S
H774 C780 0.930 . S
H775 C783 0.931 . S
H776 C785 0.931 . S
H777 C787 0.930 . S
H778 C789 0.930 . S
H779 C791 0.931 . S
C780 H774 0.930 . S
C780 C781 1.380 . S
C780 C782 1.394 . S
C781 C780 1.380 . S
C781 C785 1.382 . S
C782 C780 1.394 . S
C782 C783 1.400 . S
C783 H775 0.931 . S
C783 C782 1.400 . S
C783 C784 1.375 . S
C784 C783 1.375 . S
C784 C785 1.415 . S
C784 C786 1.501 . S
C785 H776 0.931 . S
C785 C781 1.382 . S
C785 C784 1.415 . S
C786 C784 1.501 . S
C786 C787 1.384 . S
C786 C791 1.408 . S
C787 H777 0.930 . S
C787 C786 1.384 . S
C787 C788 1.389 . S
C788 C787 1.389 . S
C788 C789 1.405 . S
C789 H778 0.930 . S
C789 C788 1.405 . S
C789 C790 1.364 . S
C790 C789 1.364 . S
C790 C791 1.400 . S
C791 H779 0.931 . S
C791 C786 1.408 . S
C791 C790 1.400 . S
H792 C798 0.930 . S
H793 C801 0.931 . S
H794 C803 0.931 . S
H795 C805 0.930 . S
H796 C807 0.930 . S
H797 C809 0.931 . S
C798 H792 0.930 . S
C798 C799 1.380 . S
C798 C800 1.394 . S
C799 C798 1.380 . S
C799 C803 1.382 . S
C800 C798 1.394 . S
C800 C801 1.400 . S
C801 H793 0.931 . S
C801 C800 1.400 . S
C801 C802 1.375 . S
C802 C801 1.375 . S
C802 C803 1.415 . S
C802 C804 1.501 . S
C803 H794 0.931 . S
C803 C799 1.382 . S
C803 C802 1.415 . S
C804 C802 1.501 . S
C804 C805 1.384 . S
C804 C809 1.408 . S
C805 H795 0.930 . S
C805 C804 1.384 . S
C805 C806 1.389 . S
C806 C805 1.389 . S
C806 C807 1.405 . S
C807 H796 0.930 . S
C807 C806 1.405 . S
C807 C808 1.364 . S
C808 C807 1.364 . S
C808 C809 1.400 . S
C809 H797 0.931 . S
C809 C804 1.408 . S
C809 C808 1.400 . S
H810 C816 0.917 . S
H811 C819 0.931 . S
H812 C821 0.931 . S
H813 C823 0.930 . S
H814 C825 0.930 . S
H815 C827 0.939 1_655 S
C816 H810 0.917 . S
C816 C817 1.391 . S
C816 C818 1.397 1_655 S
C817 C816 1.391 . S
C817 C821 1.382 . S
C818 C816 1.397 1_455 S
C818 C819 1.400 . S
C819 H811 0.931 . S
C819 C818 1.400 . S
C819 C820 1.375 . S
C820 C819 1.375 . S
C820 C821 1.415 1_455 S
C820 C822 1.501 . S
C821 H812 0.931 . S
C821 C817 1.382 . S
C821 C820 1.415 1_655 S
C822 C820 1.501 . S
C822 C823 1.384 . S
C822 C827 1.421 . S
C823 H813 0.930 . S
C823 C822 1.384 . S
C823 C824 1.389 . S
C824 C823 1.389 . S
C824 C825 1.405 . S
C825 H814 0.930 . S
C825 C824 1.405 . S
C825 C826 1.359 . S
C826 C825 1.359 . S
C826 C827 1.396 . S
C827 H815 0.939 1_455 S
C827 C822 1.421 . S
C827 C826 1.396 . S
H828 C834 0.930 . S
H829 C837 0.931 . S
H830 C839 0.931 . S
H831 C841 0.930 . S
H832 C843 0.930 . S
H833 C845 0.931 . S
C834 H828 0.930 . S
C834 C835 1.380 . S
C834 C836 1.394 . S
C835 C834 1.380 . S
C835 C839 1.382 . S
C836 C834 1.394 . S
C836 C837 1.400 . S
C837 H829 0.931 . S
C837 C836 1.400 . S
C837 C838 1.375 . S
C838 C837 1.375 . S
C838 C839 1.415 . S
C838 C840 1.501 . S
C839 H830 0.931 . S
C839 C835 1.382 . S
C839 C838 1.415 . S
C840 C838 1.501 . S
C840 C841 1.384 . S
C840 C845 1.408 . S
C841 H831 0.930 . S
C841 C840 1.384 . S
C841 C842 1.389 . S
C842 C841 1.389 . S
C842 C843 1.405 . S
C843 H832 0.930 . S
C843 C842 1.405 . S
C843 C844 1.364 . S
C844 C843 1.364 . S
C844 C845 1.400 . S
C845 H833 0.931 . S
C845 C840 1.408 . S
C845 C844 1.400 . S
H846 C852 0.939 . S
H847 C855 0.931 . S
H848 C857 0.931 . S
H849 C859 0.930 . S
H850 C861 0.930 . S
H851 C863 0.922 1_545 S
C852 H846 0.939 . S
C852 C853 1.378 . S
C852 C854 1.387 1_545 S
C853 C852 1.378 . S
C853 C857 1.382 . S
C854 C852 1.387 1_565 S
C854 C855 1.400 . S
C855 H847 0.931 . S
C855 C854 1.400 . S
C855 C856 1.375 . S
C856 C855 1.375 . S
C856 C857 1.415 1_565 S
C856 C858 1.501 . S
C857 H848 0.931 . S
C857 C853 1.382 . S
C857 C856 1.415 1_545 S
C858 C856 1.501 . S
C858 C859 1.384 . S
C858 C863 1.400 . S
C859 H849 0.930 . S
C859 C858 1.384 . S
C859 C860 1.389 . S
C860 C859 1.389 . S
C860 C861 1.405 . S
C861 H850 0.930 . S
C861 C860 1.405 . S
C861 C862 1.373 . S
C862 C861 1.373 . S
C862 C863 1.407 . S
C863 H851 0.922 1_565 S
C863 C858 1.400 . S
C863 C862 1.407 . S
H864 C870 0.911 . S
H865 C873 0.931 . S
H866 C875 0.929 1_545 S
H867 C877 0.930 . S
H868 C879 0.896 . S
H869 C881 0.931 . S
C870 H864 0.911 . S
C870 C871 1.383 . S
C870 C872 1.414 1_545 S
C871 C870 1.383 . S
C871 C875 1.400 1_545 S
C872 C870 1.414 1_565 S
C872 C873 1.381 . S
C873 H865 0.931 . S
C873 C872 1.381 . S
C873 C874 1.375 . S
C874 C873 1.375 . S
C874 C875 1.414 . S
C874 C876 1.501 . S
C875 H866 0.929 1_565 S
C875 C871 1.400 1_565 S
C875 C874 1.414 . S
C876 C874 1.501 . S
C876 C877 1.384 . S
C876 C881 1.408 1_565 S
C877 H867 0.930 . S
C877 C876 1.384 . S
C877 C878 1.389 . S
C878 C877 1.389 . S
C878 C879 1.436 . S
C879 H868 0.896 . S
C879 C878 1.436 . S
C879 C880 1.375 1_565 S
C880 C879 1.375 1_545 S
C880 C881 1.400 . S
C881 H869 0.931 . S
C881 C876 1.408 1_545 S
C881 C880 1.400 . S
H882 C888 0.945 . S
H883 C891 0.931 . S
H884 C893 0.937 . S
H885 C895 0.930 . S
H886 C897 0.963 . S
H887 C899 0.931 . S
C888 H882 0.945 . S
C888 C889 1.377 . S
C888 C890 1.371 1_655 S
C889 C888 1.377 . S
C889 C893 1.367 1_655 S
C890 C888 1.371 1_455 S
C890 C891 1.432 . S
C891 H883 0.931 . S
C891 C890 1.432 . S
C891 C892 1.375 . S
C892 C891 1.375 . S
C892 C893 1.420 . S
C892 C894 1.501 . S
C893 H884 0.937 . S
C893 C889 1.367 1_455 S
C893 C892 1.420 . S
C894 C892 1.501 . S
C894 C895 1.384 . S
C894 C899 1.408 1_455 S
C895 H885 0.930 . S
C895 C894 1.384 . S
C895 C896 1.389 . S
C896 C895 1.389 . S
C896 C897 1.399 . S
C897 H886 0.963 . S
C897 C896 1.399 . S
C897 C898 1.341 1_455 S
C898 C897 1.341 1_655 S
C898 C899 1.400 . S
C899 H887 0.931 . S
C899 C894 1.408 1_655 S
C899 C898 1.400 . S
H900 C906 0.930 . S
H901 C909 0.931 . S
H902 C911 0.931 . S
H903 C913 0.930 . S
H904 C915 0.930 . S
H905 C917 0.931 . S
C906 H900 0.930 . S
C906 C907 1.380 . S
C906 C908 1.394 . S
C907 C906 1.380 . S
C907 C911 1.382 . S
C908 C906 1.394 . S
C908 C909 1.400 . S
C909 H901 0.931 . S
C909 C908 1.400 . S
C909 C910 1.375 . S
C910 C909 1.375 . S
C910 C911 1.415 . S
C910 C912 1.501 . S
C911 H902 0.931 . S
C911 C907 1.382 . S
C911 C910 1.415 . S
C912 C910 1.501 . S
C912 C913 1.384 . S
C912 C917 1.408 . S
C913 H903 0.930 . S
C913 C912 1.384 . S
C913 C914 1.389 . S
C914 C913 1.389 . S
C914 C915 1.405 . S
C915 H904 0.930 . S
C915 C914 1.405 . S
C915 C916 1.364 . S
C916 C915 1.364 . S
C916 C917 1.400 . S
C917 H905 0.931 . S
C917 C912 1.408 . S
C917 C916 1.400 . S
H918 C924 0.930 . S
H919 C927 0.931 . S
H920 C929 0.931 . S
H921 C931 0.930 . S
H922 C933 0.930 . S
H923 C935 0.931 . S
C924 H918 0.930 . S
C924 C925 1.380 . S
C924 C926 1.394 . S
C925 C924 1.380 . S
C925 C929 1.382 . S
C926 C924 1.394 . S
C926 C927 1.400 . S
C927 H919 0.931 . S
C927 C926 1.400 . S
C927 C928 1.375 . S
C928 C927 1.375 . S
C928 C929 1.415 . S
C928 C930 1.501 . S
C929 H920 0.931 . S
C929 C925 1.382 . S
C929 C928 1.415 . S
C930 C928 1.501 . S
C930 C931 1.384 . S
C930 C935 1.408 . S
C931 H921 0.930 . S
C931 C930 1.384 . S
C931 C932 1.389 . S
C932 C931 1.389 . S
C932 C933 1.405 . S
C933 H922 0.930 . S
C933 C932 1.405 . S
C933 C934 1.364 . S
C934 C933 1.364 . S
C934 C935 1.400 . S
C935 H923 0.931 . S
C935 C930 1.408 . S
C935 C934 1.400 . S
H936 C942 0.930 . S
H937 C945 0.931 . S
H938 C947 0.931 . S
H939 C949 0.930 . S
H940 C951 0.930 . S
H941 C953 0.931 . S
C942 H936 0.930 . S
C942 C943 1.380 . S
C942 C944 1.394 . S
C943 C942 1.380 . S
C943 C947 1.382 . S
C944 C942 1.394 . S
C944 C945 1.400 . S
C945 H937 0.931 . S
C945 C944 1.400 . S
C945 C946 1.375 . S
C946 C945 1.375 . S
C946 C947 1.415 . S
C946 C948 1.501 . S
C947 H938 0.931 . S
C947 C943 1.382 . S
C947 C946 1.415 . S
C948 C946 1.501 . S
C948 C949 1.384 . S
C948 C953 1.408 . S
C949 H939 0.930 . S
C949 C948 1.384 . S
C949 C950 1.389 . S
C950 C949 1.389 . S
C950 C951 1.405 . S
C951 H940 0.930 . S
C951 C950 1.405 . S
C951 C952 1.364 . S
C952 C951 1.364 . S
C952 C953 1.400 . S
C953 H941 0.931 . S
C953 C948 1.408 . S
C953 C952 1.400 . S
H954 C960 0.930 . S
H955 C963 0.931 . S
H956 C965 0.931 . S
H957 C967 0.930 . S
H958 C969 0.930 . S
H959 C971 0.931 . S
C960 H954 0.930 . S
C960 C961 1.380 . S
C960 C962 1.394 . S
C961 C960 1.380 . S
C961 C965 1.382 . S
C962 C960 1.394 . S
C962 C963 1.400 . S
C963 H955 0.931 . S
C963 C962 1.400 . S
C963 C964 1.375 . S
C964 C963 1.375 . S
C964 C965 1.415 . S
C964 C966 1.501 . S
C965 H956 0.931 . S
C965 C961 1.382 . S
C965 C964 1.415 . S
C966 C964 1.501 . S
C966 C967 1.384 . S
C966 C971 1.408 . S
C967 H957 0.930 . S
C967 C966 1.384 . S
C967 C968 1.389 . S
C968 C967 1.389 . S
C968 C969 1.405 . S
C969 H958 0.930 . S
C969 C968 1.405 . S
C969 C970 1.364 . S
C970 C969 1.364 . S
C970 C971 1.400 . S
C971 H959 0.931 . S
C971 C966 1.408 . S
C971 C970 1.400 . S
H972 C980 0.926 . S
H973 C982 0.931 1_455 S
H974 C984 0.930 . S
H975 C987 0.929 . S
H976 C990 0.930 . S
H977 C992 0.960 . S
H978 C992 0.960 . S
H979 C992 0.960 . S
C980 H972 0.926 . S
C980 C981 1.379 1_455 S
C980 C982 1.389 1_455 S
C981 C980 1.379 1_655 S
C981 C987 1.390 . S
C982 H973 0.931 1_655 S
C982 C980 1.389 1_655 S
C982 C983 1.369 . S
C983 C982 1.369 . S
C983 C984 1.400 . S
C983 C988 1.490 . S
C984 H974 0.930 . S
C984 C983 1.400 . S
C984 C987 1.386 . S
H985 C1001 0.930 . S
H986 C1002 0.931 . S
C987 H975 0.929 . S
C987 C981 1.390 . S
C987 C984 1.386 . S
C988 C983 1.490 . S
C988 C990 1.395 1_655 S
C988 C991 1.403 . S
H989 C995 0.930 . S
C990 H976 0.930 . S
C990 C988 1.395 1_455 S
C990 C993 1.403 . S
C991 C988 1.403 . S
C991 C992 1.524 . S
C991 C995 1.400 . S
C992 H977 0.960 . S
C992 H978 0.960 . S
C992 H979 0.960 . S
C992 C991 1.524 . S
C993 C990 1.403 . S
C993 C994 1.389 1_455 S
C993 C997 1.495 . S
C994 C993 1.389 1_655 S
C994 C995 1.388 . S
C994 C996 1.475 . S
C995 H989 0.930 . S
C995 C991 1.400 . S
C995 C994 1.388 . S
C996 C994 1.475 . S
C996 C998 1.382 . S
C996 C1002 1.388 . S
C997 C993 1.495 . S
C997 H1003 0.959 . S
C997 H1004 0.961 . S
C997 H1005 0.960 . S
C998 C996 1.382 . S
C998 C999 1.403 . S
C998 H1006 0.901 1_655 S
C999 C998 1.403 . S
C999 C1000 1.383 . S
C999 H1007 0.929 . S
C1000 C999 1.383 . S
C1000 C1001 1.377 . S
C1001 H985 0.930 . S
C1001 C1000 1.377 . S
C1001 C1002 1.379 . S
C1002 H986 0.931 . S
C1002 C996 1.388 . S
C1002 C1001 1.379 . S
H1003 C997 0.959 . S
H1004 C997 0.961 . S
H1005 C997 0.960 . S
H1006 C998 0.901 1_455 S
H1007 C999 0.929 . S
H1008 C1016 0.929 . S
H1009 C1018 0.930 . S
H1010 C1020 0.930 . S
H1011 C1023 0.929 . S
H1012 C1026 0.930 . S
H1013 C1028 0.960 . S
H1014 C1028 0.960 . S
H1015 C1028 0.960 . S
C1016 H1008 0.929 . S
C1016 C1017 1.377 . S
C1016 C1018 1.384 . S
C1017 C1016 1.377 . S
C1017 C1023 1.390 . S
C1018 H1009 0.930 . S
C1018 C1016 1.384 . S
C1018 C1019 1.372 . S
C1019 C1018 1.372 . S
C1019 C1020 1.400 . S
C1019 C1024 1.490 . S
C1020 H1010 0.930 . S
C1020 C1019 1.400 . S
C1020 C1023 1.386 . S
H1021 C1037 0.930 . S
H1022 C1038 0.931 . S
C1023 H1011 0.929 . S
C1023 C1017 1.390 . S
C1023 C1020 1.386 . S
C1024 C1019 1.490 . S
C1024 C1026 1.395 . S
C1024 C1027 1.403 . S
H1025 C1031 0.930 . S
C1026 H1012 0.930 . S
C1026 C1024 1.395 . S
C1026 C1029 1.403 . S
C1027 C1024 1.403 . S
C1027 C1028 1.524 . S
C1027 C1031 1.400 . S
C1028 H1013 0.960 . S
C1028 H1014 0.960 . S
C1028 H1015 0.960 . S
C1028 C1027 1.524 . S
C1029 C1026 1.403 . S
C1029 C1030 1.392 . S
C1029 C1033 1.495 . S
C1030 C1029 1.392 . S
C1030 C1031 1.385 . S
C1030 C1032 1.478 . S
C1031 H1025 0.930 . S
C1031 C1027 1.400 . S
C1031 C1030 1.385 . S
C1032 C1030 1.478 . S
C1032 C1034 1.381 . S
C1032 C1038 1.383 . S
C1033 C1029 1.495 . S
C1033 H1039 0.959 . S
C1033 H1040 0.961 . S
C1033 H1041 0.960 . S
C1034 C1032 1.381 . S
C1034 C1035 1.394 . S
C1034 H1042 0.930 . S
C1035 C1034 1.394 . S
C1035 C1036 1.383 . S
C1035 H1043 0.929 . S
C1036 C1035 1.383 . S
C1036 C1037 1.377 . S
C1037 H1021 0.930 . S
C1037 C1036 1.377 . S
C1037 C1038 1.379 . S
C1038 H1022 0.931 . S
C1038 C1032 1.383 . S
C1038 C1037 1.379 . S
H1039 C1033 0.959 . S
H1040 C1033 0.961 . S
H1041 C1033 0.960 . S
H1042 C1034 0.930 . S
H1043 C1035 0.929 . S
H1044 C1052 0.929 . S
H1045 C1054 0.930 . S
H1046 C1056 0.930 . S
H1047 C1059 0.929 . S
H1048 C1062 0.930 . S
H1049 C1064 0.960 . S
H1050 C1064 0.960 . S
H1051 C1064 0.960 . S
C1052 H1044 0.929 . S
C1052 C1053 1.377 1_565 S
C1052 C1054 1.384 . S
C1053 C1052 1.377 1_545 S
C1053 C1059 1.390 . S
C1054 H1045 0.930 . S
C1054 C1052 1.384 . S
C1054 C1055 1.372 1_565 S
C1055 C1054 1.372 1_545 S
C1055 C1056 1.400 . S
C1055 C1060 1.490 . S
C1056 H1046 0.930 . S
C1056 C1055 1.400 . S
C1056 C1059 1.386 . S
H1057 C1073 0.930 . S
H1058 C1074 0.931 . S
C1059 H1047 0.929 . S
C1059 C1053 1.390 . S
C1059 C1056 1.386 . S
C1060 C1055 1.490 . S
C1060 C1062 1.395 1_545 S
C1060 C1063 1.403 . S
H1061 C1067 0.930 . S
C1062 H1048 0.930 . S
C1062 C1060 1.395 1_565 S
C1062 C1065 1.403 . S
C1063 C1060 1.403 . S
C1063 C1064 1.524 . S
C1063 C1067 1.400 . S
C1064 H1049 0.960 . S
C1064 H1050 0.960 . S
C1064 H1051 0.960 . S
C1064 C1063 1.524 . S
C1065 C1062 1.403 . S
C1065 C1066 1.392 1_565 S
C1065 C1069 1.495 . S
C1066 C1065 1.392 1_545 S
C1066 C1067 1.385 . S
C1066 C1068 1.478 . S
C1067 H1061 0.930 . S
C1067 C1063 1.400 . S
C1067 C1066 1.385 . S
C1068 C1066 1.478 . S
C1068 C1070 1.381 1_545 S
C1068 C1074 1.383 . S
C1069 C1065 1.495 . S
C1069 H1075 0.959 . S
C1069 H1076 0.961 . S
C1069 H1077 0.960 . S
C1070 C1068 1.381 1_565 S
C1070 C1071 1.394 . S
C1070 H1078 0.930 . S
C1071 C1070 1.394 . S
C1071 C1072 1.383 1_565 S
C1071 H1079 0.929 . S
C1072 C1071 1.383 1_545 S
C1072 C1073 1.377 . S
C1073 H1057 0.930 . S
C1073 C1072 1.377 . S
C1073 C1074 1.379 . S
C1074 H1058 0.931 . S
C1074 C1068 1.383 . S
C1074 C1073 1.379 . S
H1075 C1069 0.959 . S
H1076 C1069 0.961 . S
H1077 C1069 0.960 . S
H1078 C1070 0.930 . S
H1079 C1071 0.929 . S
H1080 C1088 0.929 . S
H1081 C1090 0.930 . S
H1082 C1092 0.930 . S
H1083 C1095 0.929 . S
H1084 C1098 0.930 . S
H1085 C1100 0.960 . S
H1086 C1100 0.912 1_545 S
H1087 C1100 0.960 . S
C1088 H1080 0.929 . S
C1088 C1089 1.377 1_545 S
C1088 C1090 1.384 . S
C1089 C1088 1.377 1_565 S
C1089 C1095 1.390 . S
C1090 H1081 0.930 . S
C1090 C1088 1.384 . S
C1090 C1091 1.372 1_545 S
C1091 C1090 1.372 1_565 S
C1091 C1092 1.400 . S
C1091 C1096 1.490 . S
C1092 H1082 0.930 . S
C1092 C1091 1.400 . S
C1092 C1095 1.386 . S
H1093 C1109 0.930 . S
H1094 C1110 0.931 . S
C1095 H1083 0.929 . S
C1095 C1089 1.390 . S
C1095 C1092 1.386 . S
C1096 C1091 1.490 . S
C1096 C1098 1.395 1_565 S
C1096 C1099 1.403 . S
H1097 C1103 0.930 . S
C1098 H1084 0.930 . S
C1098 C1096 1.395 1_545 S
C1098 C1101 1.403 . S
C1099 C1096 1.403 . S
C1099 C1100 1.524 . S
C1099 C1103 1.400 . S
C1100 H1085 0.960 . S
C1100 H1086 0.912 1_565 S
C1100 H1087 0.960 . S
C1100 C1099 1.524 . S
C1101 C1098 1.403 . S
C1101 C1102 1.392 1_545 S
C1101 C1105 1.495 . S
C1102 C1101 1.392 1_565 S
C1102 C1103 1.385 . S
C1102 C1104 1.478 . S
C1103 H1097 0.930 . S
C1103 C1099 1.400 . S
C1103 C1102 1.385 . S
C1104 C1102 1.478 . S
C1104 C1106 1.381 1_565 S
C1104 C1110 1.383 . S
C1105 C1101 1.495 . S
C1105 H1111 0.959 . S
C1105 H1112 0.961 1_545 S
C1105 H1113 0.960 . S
C1106 C1104 1.381 1_545 S
C1106 C1107 1.394 . S
C1106 H1114 0.930 . S
C1107 C1106 1.394 . S
C1107 C1108 1.383 1_545 S
C1107 H1115 0.929 . S
C1108 C1107 1.383 1_565 S
C1108 C1109 1.377 . S
C1109 H1093 0.930 . S
C1109 C1108 1.377 . S
C1109 C1110 1.379 . S
C1110 H1094 0.931 . S
C1110 C1104 1.383 . S
C1110 C1109 1.379 . S
H1111 C1105 0.959 . S
H1112 C1105 0.961 1_565 S
H1113 C1105 0.960 . S
H1114 C1106 0.930 . S
H1115 C1107 0.929 . S
H1116 C1124 0.929 . S
H1117 C1126 0.930 . S
H1118 C1128 0.930 . S
H1119 C1131 0.929 . S
H1120 C1134 0.930 . S
H1121 C1136 0.960 . S
H1122 C1136 0.960 . S
H1123 C1136 0.960 . S
C1124 H1116 0.929 . S
C1124 C1125 1.377 1_655 S
C1124 C1126 1.384 . S
C1125 C1124 1.377 1_455 S
C1125 C1131 1.390 . S
C1126 H1117 0.930 . S
C1126 C1124 1.384 . S
C1126 C1127 1.372 1_655 S
C1127 C1126 1.372 1_455 S
C1127 C1128 1.400 . S
C1127 C1132 1.490 . S
C1128 H1118 0.930 . S
C1128 C1127 1.400 . S
C1128 C1131 1.386 . S
H1129 C1145 0.930 . S
H1130 C1146 0.931 . S
C1131 H1119 0.929 . S
C1131 C1125 1.390 . S
C1131 C1128 1.386 . S
C1132 C1127 1.490 . S
C1132 C1134 1.395 1_455 S
C1132 C1135 1.403 . S
H1133 C1139 0.930 . S
C1134 H1120 0.930 . S
C1134 C1132 1.395 1_655 S
C1134 C1137 1.403 . S
C1135 C1132 1.403 . S
C1135 C1136 1.524 . S
C1135 C1139 1.400 . S
C1136 H1121 0.960 . S
C1136 H1122 0.960 . S
C1136 H1123 0.960 . S
C1136 C1135 1.524 . S
C1137 C1134 1.403 . S
C1137 C1138 1.350 1_655 S
C1137 C1141 1.495 . S
C1138 C1137 1.350 1_455 S
C1138 C1139 1.466 . S
C1138 C1140 1.472 . S
C1139 H1133 0.930 . S
C1139 C1135 1.400 . S
C1139 C1138 1.466 . S
C1140 C1138 1.472 . S
C1140 C1142 1.365 1_455 S
C1140 C1146 1.378 . S
C1141 C1137 1.495 . S
C1141 H1147 0.959 . S
C1141 H1148 0.961 . S
C1141 H1149 0.960 . S
C1142 C1140 1.365 1_655 S
C1142 C1143 1.394 . S
C1142 H1150 0.930 . S
C1143 C1142 1.394 . S
C1143 C1144 1.383 1_655 S
C1143 H1151 0.929 . S
C1144 C1143 1.383 1_455 S
C1144 C1145 1.377 . S
C1145 H1129 0.930 . S
C1145 C1144 1.377 . S
C1145 C1146 1.379 . S
C1146 H1130 0.931 . S
C1146 C1140 1.378 . S
C1146 C1145 1.379 . S
H1147 C1141 0.959 . S
H1148 C1141 0.961 . S
H1149 C1141 0.960 . S
H1150 C1142 0.930 . S
H1151 C1143 0.929 . S
H1152 C1160 0.929 . S
H1153 C1162 0.930 . S
H1154 C1164 0.930 . S
H1155 C1167 0.929 . S
H1156 C1170 0.930 . S
H1157 C1172 0.960 . S
H1158 C1172 0.960 . S
H1159 C1172 0.960 . S
C1160 H1152 0.929 . S
C1160 C1161 1.377 . S
C1160 C1162 1.384 . S
C1161 C1160 1.377 . S
C1161 C1167 1.390 . S
C1162 H1153 0.930 . S
C1162 C1160 1.384 . S
C1162 C1163 1.372 . S
C1163 C1162 1.372 . S
C1163 C1164 1.400 . S
C1163 C1168 1.490 . S
C1164 H1154 0.930 . S
C1164 C1163 1.400 . S
C1164 C1167 1.386 . S
H1165 C1181 0.930 . S
H1166 C1182 0.931 . S
C1167 H1155 0.929 . S
C1167 C1161 1.390 . S
C1167 C1164 1.386 . S
C1168 C1163 1.490 . S
C1168 C1170 1.395 . S
C1168 C1171 1.403 . S
H1169 C1175 0.930 . S
C1170 H1156 0.930 . S
C1170 C1168 1.395 . S
C1170 C1173 1.403 . S
C1171 C1168 1.403 . S
C1171 C1172 1.524 . S
C1171 C1175 1.400 . S
C1172 H1157 0.960 . S
C1172 H1158 0.960 . S
C1172 H1159 0.960 . S
C1172 C1171 1.524 . S
C1173 C1170 1.403 . S
C1173 C1174 1.392 . S
C1173 C1177 1.495 . S
C1174 C1173 1.392 . S
C1174 C1175 1.385 . S
C1174 C1176 1.478 . S
C1175 H1169 0.930 . S
C1175 C1171 1.400 . S
C1175 C1174 1.385 . S
C1176 C1174 1.478 . S
C1176 C1178 1.381 . S
C1176 C1182 1.383 . S
C1177 C1173 1.495 . S
C1177 H1183 0.959 . S
C1177 H1184 0.961 . S
C1177 H1185 0.960 . S
C1178 C1176 1.381 . S
C1178 C1179 1.394 . S
C1178 H1186 0.930 . S
C1179 C1178 1.394 . S
C1179 C1180 1.383 . S
C1179 H1187 0.929 . S
C1180 C1179 1.383 . S
C1180 C1181 1.377 . S
C1181 H1165 0.930 . S
C1181 C1180 1.377 . S
C1181 C1182 1.379 . S
C1182 H1166 0.931 . S
C1182 C1176 1.383 . S
C1182 C1181 1.379 . S
H1183 C1177 0.959 . S
H1184 C1177 0.961 . S
H1185 C1177 0.960 . S
H1186 C1178 0.930 . S
H1187 C1179 0.929 . S
H1188 C1196 0.929 . S
H1189 C1198 0.930 . S
H1190 C1200 0.930 . S
H1191 C1203 0.929 . S
H1192 C1206 0.930 . S
H1193 C1208 0.960 . S
H1194 C1208 0.960 . S
H1195 C1208 0.960 . S
C1196 H1188 0.929 . S
C1196 C1197 1.377 . S
C1196 C1198 1.384 . S
C1197 C1196 1.377 . S
C1197 C1203 1.390 1_455 S
C1198 H1189 0.930 . S
C1198 C1196 1.384 . S
C1198 C1199 1.372 . S
C1199 C1198 1.372 . S
C1199 C1200 1.400 1_455 S
C1199 C1204 1.490 . S
C1200 H1190 0.930 . S
C1200 C1199 1.400 1_655 S
C1200 C1203 1.386 . S
H1201 C1217 0.930 . S
H1202 C1218 0.931 . S
C1203 H1191 0.929 . S
C1203 C1197 1.390 1_655 S
C1203 C1200 1.386 . S
C1204 C1199 1.490 . S
C1204 C1206 1.395 . S
C1204 C1207 1.403 1_455 S
H1205 C1211 0.930 . S
C1206 H1192 0.930 . S
C1206 C1204 1.395 . S
C1206 C1209 1.403 . S
C1207 C1204 1.403 1_655 S
C1207 C1208 1.524 . S
C1207 C1211 1.400 . S
C1208 H1193 0.960 . S
C1208 H1194 0.960 . S
C1208 H1195 0.960 . S
C1208 C1207 1.524 . S
C1209 C1206 1.403 . S
C1209 C1210 1.392 . S
C1209 C1213 1.495 . S
C1210 C1209 1.392 . S
C1210 C1211 1.385 1_455 S
C1210 C1212 1.478 . S
C1211 H1205 0.930 . S
C1211 C1207 1.400 . S
C1211 C1210 1.385 1_655 S
C1212 C1210 1.478 . S
C1212 C1214 1.381 . S
C1212 C1218 1.383 1_455 S
C1213 C1209 1.495 . S
C1213 H1219 0.959 . S
C1213 H1220 0.961 . S
C1213 H1221 0.960 . S
C1214 C1212 1.381 . S
C1214 C1215 1.394 . S
C1214 H1222 0.930 . S
C1215 C1214 1.394 . S
C1215 C1216 1.413 . S
C1215 H1223 0.929 . S
C1216 C1215 1.413 . S
C1216 C1217 1.325 1_455 S
C1217 H1201 0.930 . S
C1217 C1216 1.325 1_655 S
C1217 C1218 1.379 . S
C1218 H1202 0.931 . S
C1218 C1212 1.383 1_655 S
C1218 C1217 1.379 . S
H1219 C1213 0.959 . S
H1220 C1213 0.961 . S
H1221 C1213 0.960 . S
H1222 C1214 0.930 . S
H1223 C1215 0.929 . S
H1224 C1232 0.929 . S
H1225 C1234 0.930 . S
H1226 C1236 0.930 . S
H1227 C1239 0.929 . S
H1228 C1242 0.930 . S
H1229 C1244 0.960 . S
H1230 C1244 0.960 . S
H1231 C1244 0.960 . S
C1232 H1224 0.929 . S
C1232 C1233 1.377 . S
C1232 C1234 1.384 . S
C1233 C1232 1.377 . S
C1233 C1239 1.390 . S
C1234 H1225 0.930 . S
C1234 C1232 1.384 . S
C1234 C1235 1.372 . S
C1235 C1234 1.372 . S
C1235 C1236 1.400 . S
C1235 C1240 1.490 . S
C1236 H1226 0.930 . S
C1236 C1235 1.400 . S
C1236 C1239 1.386 . S
H1237 C1253 0.930 . S
H1238 C1254 0.931 . S
C1239 H1227 0.929 . S
C1239 C1233 1.390 . S
C1239 C1236 1.386 . S
C1240 C1235 1.490 . S
C1240 C1242 1.395 . S
C1240 C1243 1.403 . S
H1241 C1247 0.930 . S
C1242 H1228 0.930 . S
C1242 C1240 1.395 . S
C1242 C1245 1.403 . S
C1243 C1240 1.403 . S
C1243 C1244 1.524 . S
C1243 C1247 1.400 . S
C1244 H1229 0.960 . S
C1244 H1230 0.960 . S
C1244 H1231 0.960 . S
C1244 C1243 1.524 . S
C1245 C1242 1.403 . S
C1245 C1246 1.392 . S
C1245 C1249 1.495 . S
C1246 C1245 1.392 . S
C1246 C1247 1.385 . S
C1246 C1248 1.478 . S
C1247 H1241 0.930 . S
C1247 C1243 1.400 . S
C1247 C1246 1.385 . S
C1248 C1246 1.478 . S
C1248 C1250 1.381 . S
C1248 C1254 1.383 . S
C1249 C1245 1.495 . S
C1249 H1255 0.959 . S
C1249 H1256 0.961 . S
C1249 H1257 0.960 . S
C1250 C1248 1.381 . S
C1250 C1251 1.394 . S
C1250 H1258 0.930 . S
C1251 C1250 1.394 . S
C1251 C1252 1.383 . S
C1251 H1259 0.929 . S
C1252 C1251 1.383 . S
C1252 C1253 1.377 . S
C1253 H1237 0.930 . S
C1253 C1252 1.377 . S
C1253 C1254 1.379 . S
C1254 H1238 0.931 . S
C1254 C1248 1.383 . S
C1254 C1253 1.379 . S
H1255 C1249 0.959 . S
H1256 C1249 0.961 . S
H1257 C1249 0.960 . S
H1258 C1250 0.930 . S
H1259 C1251 0.929 . S
H1260 C1268 0.929 . S
H1261 C1270 0.930 . S
H1262 C1272 0.930 . S
H1263 C1275 0.929 . S
H1264 C1278 0.930 . S
H1265 C1280 0.960 . S
H1266 C1280 0.960 1_565 S
H1267 C1280 0.960 . S
C1268 H1260 0.929 . S
C1268 C1269 1.377 . S
C1268 C1270 1.384 . S
C1269 C1268 1.377 . S
C1269 C1275 1.390 1_565 S
C1270 H1261 0.930 . S
C1270 C1268 1.384 . S
C1270 C1271 1.372 . S
C1271 C1270 1.372 . S
C1271 C1272 1.400 1_565 S
C1271 C1276 1.490 . S
C1272 H1262 0.930 . S
C1272 C1271 1.400 1_545 S
C1272 C1275 1.386 . S
H1273 C1289 0.930 . S
H1274 C1290 0.931 . S
C1275 H1263 0.929 . S
C1275 C1269 1.390 1_545 S
C1275 C1272 1.386 . S
C1276 C1271 1.490 . S
C1276 C1278 1.395 . S
C1276 C1279 1.402 1_565 S
H1277 C1283 0.936 . S
C1278 H1264 0.930 . S
C1278 C1276 1.395 . S
C1278 C1281 1.403 . S
C1279 C1276 1.402 1_545 S
C1279 C1280 1.511 . S
C1279 C1283 1.386 . S
C1280 H1265 0.960 . S
C1280 H1266 0.960 1_545 S
C1280 H1267 0.960 . S
C1280 C1279 1.511 . S
C1281 C1278 1.403 . S
C1281 C1282 1.398 . S
C1281 C1285 1.495 . S
C1282 C1281 1.398 . S
C1282 C1283 1.442 1_565 S
C1282 C1284 1.454 . S
C1283 H1277 0.936 . S
C1283 C1279 1.386 . S
C1283 C1282 1.442 1_545 S
C1284 C1282 1.454 . S
C1284 C1286 1.387 . S
C1284 C1290 1.372 1_565 S
C1285 C1281 1.495 . S
C1285 H1291 0.959 . S
C1285 H1292 0.961 1_565 S
C1285 H1293 0.960 . S
C1286 C1284 1.387 . S
C1286 C1287 1.394 . S
C1286 H1294 0.930 . S
C1287 C1286 1.394 . S
C1287 C1288 1.346 1_565 S
C1287 H1295 0.929 . S
C1288 C1287 1.346 1_545 S
C1288 C1289 1.397 . S
C1289 H1273 0.930 . S
C1289 C1288 1.397 . S
C1289 C1290 1.379 . S
C1290 H1274 0.931 . S
C1290 C1284 1.372 1_545 S
C1290 C1289 1.379 . S
H1291 C1285 0.959 . S
H1292 C1285 0.961 1_545 S
H1293 C1285 0.960 . S
H1294 C1286 0.930 . S
H1295 C1287 0.929 . S
H1296 C1304 0.929 . S
H1297 C1306 0.930 . S
H1298 C1308 0.930 . S
H1299 C1311 0.929 . S
H1300 C1314 0.930 . S
H1301 C1316 0.960 . S
H1302 C1316 0.960 . S
H1303 C1316 0.960 . S
C1304 H1296 0.929 . S
C1304 C1305 1.377 . S
C1304 C1306 1.384 . S
C1305 C1304 1.377 . S
C1305 C1311 1.390 . S
C1306 H1297 0.930 . S
C1306 C1304 1.384 . S
C1306 C1307 1.372 . S
C1307 C1306 1.372 . S
C1307 C1308 1.400 . S
C1307 C1312 1.490 . S
C1308 H1298 0.930 . S
C1308 C1307 1.400 . S
C1308 C1311 1.386 . S
H1309 C1325 0.930 . S
H1310 C1326 0.931 . S
C1311 H1299 0.929 . S
C1311 C1305 1.390 . S
C1311 C1308 1.386 . S
C1312 C1307 1.490 . S
C1312 C1314 1.395 . S
C1312 C1315 1.403 1_545 S
H1313 C1319 0.930 . S
C1314 H1300 0.930 . S
C1314 C1312 1.395 . S
C1314 C1317 1.403 . S
C1315 C1312 1.403 1_565 S
C1315 C1316 1.524 . S
C1315 C1319 1.400 . S
C1316 H1301 0.960 . S
C1316 H1302 0.960 . S
C1316 H1303 0.960 . S
C1316 C1315 1.524 . S
C1317 C1314 1.403 . S
C1317 C1318 1.392 . S
C1317 C1321 1.495 . S
C1318 C1317 1.392 . S
C1318 C1319 1.385 1_545 S
C1318 C1320 1.478 . S
C1319 H1313 0.930 . S
C1319 C1315 1.400 . S
C1319 C1318 1.385 1_565 S
C1320 C1318 1.478 . S
C1320 C1322 1.381 . S
C1320 C1326 1.383 . S
C1321 C1317 1.495 . S
C1321 H1327 0.959 . S
C1321 H1328 0.961 . S
C1321 H1329 0.960 . S
C1322 C1320 1.381 . S
C1322 C1323 1.381 . S
C1322 H1330 0.930 . S
C1323 C1322 1.381 . S
C1323 C1324 1.364 . S
C1323 H1331 0.917 1_545 S
C1324 C1323 1.364 . S
C1324 C1325 1.392 . S
C1325 H1309 0.930 . S
C1325 C1324 1.392 . S
C1325 C1326 1.379 . S
C1326 H1310 0.931 . S
C1326 C1320 1.383 . S
C1326 C1325 1.379 . S
H1327 C1321 0.959 . S
H1328 C1321 0.961 . S
H1329 C1321 0.960 . S
H1330 C1322 0.930 . S
H1331 C1323 0.917 1_565 S
H1332 C1340 0.929 . S
H1333 C1342 0.930 . S
H1334 C1344 0.930 . S
H1335 C1347 0.929 . S
H1336 C1350 0.930 . S
H1337 C1352 0.960 . S
H1338 C1352 0.960 . S
H1339 C1352 0.960 . S
C1340 H1332 0.929 . S
C1340 C1341 1.377 1_455 S
C1340 C1342 1.384 . S
C1341 C1340 1.377 1_655 S
C1341 C1347 1.390 . S
C1342 H1333 0.930 . S
C1342 C1340 1.384 . S
C1342 C1343 1.368 1_455 S
C1343 C1342 1.368 1_655 S
C1343 C1344 1.407 . S
C1343 C1348 1.474 1_655 S
C1344 H1334 0.930 . S
C1344 C1343 1.407 . S
C1344 C1347 1.386 . S
H1345 C1361 0.930 . S
H1346 C1362 0.931 . S
C1347 H1335 0.929 . S
C1347 C1341 1.390 . S
C1347 C1344 1.386 . S
C1348 C1343 1.474 1_455 S
C1348 C1350 1.409 . S
C1348 C1351 1.403 1_455 S
H1349 C1355 0.930 . S
C1350 H1336 0.930 . S
C1350 C1348 1.409 . S
C1350 C1353 1.403 . S
C1351 C1348 1.403 1_655 S
C1351 C1352 1.524 . S
C1351 C1355 1.400 . S
C1352 H1337 0.960 . S
C1352 H1338 0.960 . S
C1352 H1339 0.960 . S
C1352 C1351 1.524 . S
C1353 C1350 1.403 . S
C1353 C1354 1.392 . S
C1353 C1357 1.495 . S
C1354 C1353 1.392 . S
C1354 C1355 1.385 1_455 S
C1354 C1356 1.478 . S
C1355 H1349 0.930 . S
C1355 C1351 1.400 . S
C1355 C1354 1.385 1_655 S
C1356 C1354 1.478 . S
C1356 C1358 1.381 . S
C1356 C1362 1.383 1_455 S
C1357 C1353 1.495 . S
C1357 H1363 0.959 . S
C1357 H1364 0.961 . S
C1357 H1365 0.960 . S
C1358 C1356 1.381 . S
C1358 C1359 1.394 . S
C1358 H1366 0.930 . S
C1359 C1358 1.394 . S
C1359 C1360 1.383 . S
C1359 H1367 0.929 . S
C1360 C1359 1.383 . S
C1360 C1361 1.377 1_455 S
C1361 H1345 0.930 . S
C1361 C1360 1.377 1_655 S
C1361 C1362 1.379 . S
C1362 H1346 0.931 . S
C1362 C1356 1.383 1_655 S
C1362 C1361 1.379 . S
H1363 C1357 0.959 . S
H1364 C1357 0.961 . S
H1365 C1357 0.960 . S
H1366 C1358 0.930 . S
H1367 C1359 0.929 . S
H1368 C1376 0.929 . S
H1369 C1378 0.930 . S
H1370 C1380 0.930 . S
H1371 C1383 0.929 . S
H1372 C1386 0.930 . S
H1373 C1388 0.960 . S
H1374 C1388 0.960 . S
H1375 C1388 0.960 . S
C1376 H1368 0.929 . S
C1376 C1377 1.377 . S
C1376 C1378 1.384 . S
C1377 C1376 1.377 . S
C1377 C1383 1.390 . S
C1378 H1369 0.930 . S
C1378 C1376 1.384 . S
C1378 C1379 1.372 . S
C1379 C1378 1.372 . S
C1379 C1380 1.400 . S
C1379 C1384 1.490 . S
C1380 H1370 0.930 . S
C1380 C1379 1.400 . S
C1380 C1383 1.386 . S
H1381 C1397 0.930 . S
H1382 C1398 0.931 . S
C1383 H1371 0.929 . S
C1383 C1377 1.390 . S
C1383 C1380 1.386 . S
C1384 C1379 1.490 . S
C1384 C1386 1.395 . S
C1384 C1387 1.403 . S
H1385 C1391 0.930 . S
C1386 H1372 0.930 . S
C1386 C1384 1.395 . S
C1386 C1389 1.403 . S
C1387 C1384 1.403 . S
C1387 C1388 1.524 . S
C1387 C1391 1.400 . S
C1388 H1373 0.960 . S
C1388 H1374 0.960 . S
C1388 H1375 0.960 . S
C1388 C1387 1.524 . S
C1389 C1386 1.403 . S
C1389 C1390 1.392 . S
C1389 C1393 1.495 . S
C1390 C1389 1.392 . S
C1390 C1391 1.385 . S
C1390 C1392 1.478 . S
C1391 H1385 0.930 . S
C1391 C1387 1.400 . S
C1391 C1390 1.385 . S
C1392 C1390 1.478 . S
C1392 C1394 1.381 . S
C1392 C1398 1.383 . S
C1393 C1389 1.495 . S
C1393 H1399 0.959 . S
C1393 H1400 0.961 . S
C1393 H1401 0.960 . S
C1394 C1392 1.381 . S
C1394 C1395 1.394 . S
C1394 H1402 0.930 . S
C1395 C1394 1.394 . S
C1395 C1396 1.383 . S
C1395 H1403 0.929 . S
C1396 C1395 1.383 . S
C1396 C1397 1.377 . S
C1397 H1381 0.930 . S
C1397 C1396 1.377 . S
C1397 C1398 1.379 . S
C1398 H1382 0.931 . S
C1398 C1392 1.383 . S
C1398 C1397 1.379 . S
H1399 C1393 0.959 . S
H1400 C1393 0.961 . S
H1401 C1393 0.960 . S
H1402 C1394 0.930 . S
H1403 C1395 0.929 . S
H1404 C1412 0.929 . S
H1405 C1414 0.930 . S
H1406 C1416 0.930 . S
H1407 C1419 0.929 . S
H1408 C1422 0.930 . S
H1409 C1424 0.960 . S
H1410 C1424 0.960 . S
H1411 C1424 0.960 . S
C1412 H1404 0.929 . S
C1412 C1413 1.377 . S
C1412 C1414 1.384 . S
C1413 C1412 1.377 . S
C1413 C1419 1.390 . S
C1414 H1405 0.930 . S
C1414 C1412 1.384 . S
C1414 C1415 1.372 . S
C1415 C1414 1.372 . S
C1415 C1416 1.400 . S
C1415 C1420 1.490 . S
C1416 H1406 0.930 . S
C1416 C1415 1.400 . S
C1416 C1419 1.386 . S
H1417 C1433 0.930 . S
H1418 C1434 0.931 . S
C1419 H1407 0.929 . S
C1419 C1413 1.390 . S
C1419 C1416 1.386 . S
C1420 C1415 1.490 . S
C1420 C1422 1.395 . S
C1420 C1423 1.403 . S
H1421 C1427 0.930 . S
C1422 H1408 0.930 . S
C1422 C1420 1.395 . S
C1422 C1425 1.403 . S
C1423 C1420 1.403 . S
C1423 C1424 1.524 . S
C1423 C1427 1.400 . S
C1424 H1409 0.960 . S
C1424 H1410 0.960 . S
C1424 H1411 0.960 . S
C1424 C1423 1.524 . S
C1425 C1422 1.403 . S
C1425 C1426 1.392 . S
C1425 C1429 1.495 . S
C1426 C1425 1.392 . S
C1426 C1427 1.385 . S
C1426 C1428 1.478 . S
C1427 H1421 0.930 . S
C1427 C1423 1.400 . S
C1427 C1426 1.385 . S
C1428 C1426 1.478 . S
C1428 C1430 1.381 . S
C1428 C1434 1.383 . S
C1429 C1425 1.495 . S
C1429 H1435 0.959 . S
C1429 H1436 0.961 . S
C1429 H1437 0.960 . S
C1430 C1428 1.381 . S
C1430 C1431 1.394 . S
C1430 H1438 0.930 . S
C1431 C1430 1.394 . S
C1431 C1432 1.383 . S
C1431 H1439 0.929 . S
C1432 C1431 1.383 . S
C1432 C1433 1.377 . S
C1433 H1417 0.930 . S
C1433 C1432 1.377 . S
C1433 C1434 1.379 . S
C1434 H1418 0.931 . S
C1434 C1428 1.383 . S
C1434 C1433 1.379 . S
H1435 C1429 0.959 . S
H1436 C1429 0.961 . S
H1437 C1429 0.960 . S
H1438 C1430 0.930 . S
H1439 C1431 0.929 . S
H1440 C1448 0.929 . S
H1441 C1450 0.930 . S
H1442 C1452 0.930 . S
H1443 C1455 0.929 . S
H1444 C1458 0.930 . S
H1445 C1460 0.960 . S
H1446 C1460 0.960 . S
H1447 C1460 0.960 . S
C1448 H1440 0.929 . S
C1448 C1449 1.377 . S
C1448 C1450 1.384 . S
C1449 C1448 1.377 . S
C1449 C1455 1.390 . S
C1450 H1441 0.930 . S
C1450 C1448 1.384 . S
C1450 C1451 1.372 . S
C1451 C1450 1.372 . S
C1451 C1452 1.400 . S
C1451 C1456 1.490 . S
C1452 H1442 0.930 . S
C1452 C1451 1.400 . S
C1452 C1455 1.386 . S
H1453 C1469 0.930 . S
H1454 C1470 0.931 . S
C1455 H1443 0.929 . S
C1455 C1449 1.390 . S
C1455 C1452 1.386 . S
C1456 C1451 1.490 . S
C1456 C1458 1.395 . S
C1456 C1459 1.403 . S
H1457 C1463 0.930 . S
C1458 H1444 0.930 . S
C1458 C1456 1.395 . S
C1458 C1461 1.403 . S
C1459 C1456 1.403 . S
C1459 C1460 1.524 . S
C1459 C1463 1.400 . S
C1460 H1445 0.960 . S
C1460 H1446 0.960 . S
C1460 H1447 0.960 . S
C1460 C1459 1.524 . S
C1461 C1458 1.403 . S
C1461 C1462 1.392 . S
C1461 C1465 1.495 . S
C1462 C1461 1.392 . S
C1462 C1463 1.385 . S
C1462 C1464 1.478 . S
C1463 H1457 0.930 . S
C1463 C1459 1.400 . S
C1463 C1462 1.385 . S
C1464 C1462 1.478 . S
C1464 C1466 1.381 . S
C1464 C1470 1.383 . S
C1465 C1461 1.495 . S
C1465 H1471 0.959 . S
C1465 H1472 0.961 . S
C1465 H1473 0.960 . S
C1466 C1464 1.381 . S
C1466 C1467 1.394 . S
C1466 H1474 0.930 . S
C1467 C1466 1.394 . S
C1467 C1468 1.383 . S
C1467 H1475 0.929 . S
C1468 C1467 1.383 . S
C1468 C1469 1.377 . S
C1469 H1453 0.930 . S
C1469 C1468 1.377 . S
C1469 C1470 1.379 . S
C1470 H1454 0.931 . S
C1470 C1464 1.383 . S
C1470 C1469 1.379 . S
H1471 C1465 0.959 . S
H1472 C1465 0.961 . S
H1473 C1465 0.960 . S
H1474 C1466 0.930 . S
H1475 C1467 0.929 . S
H1476 C1484 0.929 . S
H1477 C1486 0.930 . S
H1478 C1488 0.930 . S
H1479 C1491 0.929 . S
H1480 C1494 0.930 . S
H1481 C1496 0.960 . S
H1482 C1496 0.960 . S
H1483 C1496 0.960 . S
C1484 H1476 0.929 . S
C1484 C1485 1.377 . S
C1484 C1486 1.384 . S
C1485 C1484 1.377 . S
C1485 C1491 1.390 . S
C1486 H1477 0.930 . S
C1486 C1484 1.384 . S
C1486 C1487 1.372 . S
C1487 C1486 1.372 . S
C1487 C1488 1.400 . S
C1487 C1492 1.490 . S
C1488 H1478 0.930 . S
C1488 C1487 1.400 . S
C1488 C1491 1.386 . S
H1489 C1505 0.930 . S
H1490 C1506 0.931 . S
C1491 H1479 0.929 . S
C1491 C1485 1.390 . S
C1491 C1488 1.386 . S
C1492 C1487 1.490 . S
C1492 C1494 1.395 . S
C1492 C1495 1.403 . S
H1493 C1499 0.930 . S
C1494 H1480 0.930 . S
C1494 C1492 1.395 . S
C1494 C1497 1.403 . S
C1495 C1492 1.403 . S
C1495 C1496 1.524 . S
C1495 C1499 1.400 . S
C1496 H1481 0.960 . S
C1496 H1482 0.960 . S
C1496 H1483 0.960 . S
C1496 C1495 1.524 . S
C1497 C1494 1.403 . S
C1497 C1498 1.392 . S
C1497 C1501 1.495 . S
C1498 C1497 1.392 . S
C1498 C1499 1.385 . S
C1498 C1500 1.478 . S
C1499 H1493 0.930 . S
C1499 C1495 1.400 . S
C1499 C1498 1.385 . S
C1500 C1498 1.478 . S
C1500 C1502 1.381 . S
C1500 C1506 1.383 . S
C1501 C1497 1.495 . S
C1501 H1507 0.959 . S
C1501 H1508 0.961 . S
C1501 H1509 0.960 . S
C1502 C1500 1.381 . S
C1502 C1503 1.394 . S
C1502 H1510 0.930 . S
C1503 C1502 1.394 . S
C1503 C1504 1.383 . S
C1503 H1511 0.929 . S
C1504 C1503 1.383 . S
C1504 C1505 1.377 . S
C1505 H1489 0.930 . S
C1505 C1504 1.377 . S
C1505 C1506 1.379 . S
C1506 H1490 0.931 . S
C1506 C1500 1.383 . S
C1506 C1505 1.379 . S
H1507 C1501 0.959 . S
H1508 C1501 0.961 . S
H1509 C1501 0.960 . S
H1510 C1502 0.930 . S
H1511 C1503 0.929 . S
H1512 C1520 0.929 . S
H1513 C1522 0.930 . S
H1514 C1524 0.930 . S
H1515 C1527 0.929 . S
H1516 C1530 0.930 . S
H1517 C1532 0.960 . S
H1518 C1532 0.960 . S
H1519 C1532 0.960 . S
C1520 H1512 0.929 . S
C1520 C1521 1.377 . S
C1520 C1522 1.384 . S
C1521 C1520 1.377 . S
C1521 C1527 1.390 . S
C1522 H1513 0.930 . S
C1522 C1520 1.384 . S
C1522 C1523 1.372 . S
C1523 C1522 1.372 . S
C1523 C1524 1.400 . S
C1523 C1528 1.490 . S
C1524 H1514 0.930 . S
C1524 C1523 1.400 . S
C1524 C1527 1.386 . S
H1525 C1541 0.930 . S
H1526 C1542 0.931 . S
C1527 H1515 0.929 . S
C1527 C1521 1.390 . S
C1527 C1524 1.386 . S
C1528 C1523 1.490 . S
C1528 C1530 1.395 . S
C1528 C1531 1.403 . S
H1529 C1535 0.930 . S
C1530 H1516 0.930 . S
C1530 C1528 1.395 . S
C1530 C1533 1.403 . S
C1531 C1528 1.403 . S
C1531 C1532 1.524 . S
C1531 C1535 1.400 . S
C1532 H1517 0.960 . S
C1532 H1518 0.960 . S
C1532 H1519 0.960 . S
C1532 C1531 1.524 . S
C1533 C1530 1.403 . S
C1533 C1534 1.392 . S
C1533 C1537 1.495 . S
C1534 C1533 1.392 . S
C1534 C1535 1.385 . S
C1534 C1536 1.478 . S
C1535 H1529 0.930 . S
C1535 C1531 1.400 . S
C1535 C1534 1.385 . S
C1536 C1534 1.478 . S
C1536 C1538 1.381 . S
C1536 C1542 1.383 . S
C1537 C1533 1.495 . S
C1537 H1543 0.959 . S
C1537 H1544 0.961 . S
C1537 H1545 0.960 . S
C1538 C1536 1.381 . S
C1538 C1539 1.394 . S
C1538 H1546 0.930 . S
C1539 C1538 1.394 . S
C1539 C1540 1.383 . S
C1539 H1547 0.929 . S
C1540 C1539 1.383 . S
C1540 C1541 1.377 . S
C1541 H1525 0.930 . S
C1541 C1540 1.377 . S
C1541 C1542 1.379 . S
C1542 H1526 0.931 . S
C1542 C1536 1.383 . S
C1542 C1541 1.379 . S
H1543 C1537 0.959 . S
H1544 C1537 0.961 . S
H1545 C1537 0.960 . S
H1546 C1538 0.930 . S
H1547 C1539 0.929 . S
H1548 C1556 0.929 . S
H1549 C1558 0.930 . S
H1550 C1560 0.930 . S
H1551 C1563 0.929 . S
H1552 C1566 0.930 . S
H1553 C1568 0.960 . S
H1554 C1568 0.960 . S
H1555 C1568 0.960 . S
C1556 H1548 0.929 . S
C1556 C1557 1.377 . S
C1556 C1558 1.384 . S
C1557 C1556 1.377 . S
C1557 C1563 1.390 . S
C1558 H1549 0.930 . S
C1558 C1556 1.384 . S
C1558 C1559 1.372 . S
C1559 C1558 1.372 . S
C1559 C1560 1.400 . S
C1559 C1564 1.490 . S
C1560 H1550 0.930 . S
C1560 C1559 1.400 . S
C1560 C1563 1.386 . S
H1561 C1577 0.930 . S
H1562 C1578 0.931 . S
C1563 H1551 0.929 . S
C1563 C1557 1.390 . S
C1563 C1560 1.386 . S
C1564 C1559 1.490 . S
C1564 C1566 1.395 . S
C1564 C1567 1.403 . S
H1565 C1571 0.930 . S
C1566 H1552 0.930 . S
C1566 C1564 1.395 . S
C1566 C1569 1.403 . S
C1567 C1564 1.403 . S
C1567 C1568 1.524 . S
C1567 C1571 1.400 . S
C1568 H1553 0.960 . S
C1568 H1554 0.960 . S
C1568 H1555 0.960 . S
C1568 C1567 1.524 . S
C1569 C1566 1.403 . S
C1569 C1570 1.392 . S
C1569 C1573 1.495 . S
C1570 C1569 1.392 . S
C1570 C1571 1.385 . S
C1570 C1572 1.478 . S
C1571 H1565 0.930 . S
C1571 C1567 1.400 . S
C1571 C1570 1.385 . S
C1572 C1570 1.478 . S
C1572 C1574 1.381 . S
C1572 C1578 1.383 . S
C1573 C1569 1.495 . S
C1573 H1579 0.959 . S
C1573 H1580 0.961 . S
C1573 H1581 0.960 . S
C1574 C1572 1.381 . S
C1574 C1575 1.394 . S
C1574 H1582 0.930 . S
C1575 C1574 1.394 . S
C1575 C1576 1.383 . S
C1575 H1583 0.929 . S
C1576 C1575 1.383 . S
C1576 C1577 1.377 . S
C1577 H1561 0.930 . S
C1577 C1576 1.377 . S
C1577 C1578 1.379 . S
C1578 H1562 0.931 . S
C1578 C1572 1.383 . S
C1578 C1577 1.379 . S
H1579 C1573 0.959 . S
H1580 C1573 0.961 . S
H1581 C1573 0.960 . S
H1582 C1574 0.930 . S
H1583 C1575 0.929 . S
H1584 C1592 0.929 . S
H1585 C1594 0.930 . S
H1586 C1596 0.930 . S
H1587 C1599 0.929 . S
H1588 C1602 0.930 . S
H1589 C1604 0.960 . S
H1590 C1604 0.960 . S
H1591 C1604 0.960 . S
C1592 H1584 0.929 . S
C1592 C1593 1.377 . S
C1592 C1594 1.384 . S
C1593 C1592 1.377 . S
C1593 C1599 1.390 . S
C1594 H1585 0.930 . S
C1594 C1592 1.384 . S
C1594 C1595 1.372 . S
C1595 C1594 1.372 . S
C1595 C1596 1.400 . S
C1595 C1600 1.490 . S
C1596 H1586 0.930 . S
C1596 C1595 1.400 . S
C1596 C1599 1.386 . S
H1597 C1613 0.930 . S
H1598 C1614 0.931 . S
C1599 H1587 0.929 . S
C1599 C1593 1.390 . S
C1599 C1596 1.386 . S
C1600 C1595 1.490 . S
C1600 C1602 1.395 . S
C1600 C1603 1.403 . S
H1601 C1607 0.930 . S
C1602 H1588 0.930 . S
C1602 C1600 1.395 . S
C1602 C1605 1.403 . S
C1603 C1600 1.403 . S
C1603 C1604 1.524 . S
C1603 C1607 1.400 . S
C1604 H1589 0.960 . S
C1604 H1590 0.960 . S
C1604 H1591 0.960 . S
C1604 C1603 1.524 . S
C1605 C1602 1.403 . S
C1605 C1606 1.392 . S
C1605 C1609 1.495 . S
C1606 C1605 1.392 . S
C1606 C1607 1.385 . S
C1606 C1608 1.478 . S
C1607 H1601 0.930 . S
C1607 C1603 1.400 . S
C1607 C1606 1.385 . S
C1608 C1606 1.478 . S
C1608 C1610 1.381 . S
C1608 C1614 1.383 . S
C1609 C1605 1.495 . S
C1609 H1615 0.959 . S
C1609 H1616 0.961 . S
C1609 H1617 0.960 . S
C1610 C1608 1.381 . S
C1610 C1611 1.394 . S
C1610 H1618 0.930 . S
C1611 C1610 1.394 . S
C1611 C1612 1.383 . S
C1611 H1619 0.929 . S
C1612 C1611 1.383 . S
C1612 C1613 1.377 . S
C1613 H1597 0.930 . S
C1613 C1612 1.377 . S
C1613 C1614 1.379 . S
C1614 H1598 0.931 . S
C1614 C1608 1.383 . S
C1614 C1613 1.379 . S
H1615 C1609 0.959 . S
H1616 C1609 0.961 . S
H1617 C1609 0.960 . S
H1618 C1610 0.930 . S
H1619 C1611 0.929 . S
H1620 C1628 0.929 . S
H1621 C1630 0.930 . S
H1622 C1632 0.930 . S
H1623 C1635 0.929 . S
H1624 C1638 0.930 . S
H1625 C1640 0.960 . S
H1626 C1640 0.960 . S
H1627 C1640 0.960 . S
C1628 H1620 0.929 . S
C1628 C1629 1.377 . S
C1628 C1630 1.384 . S
C1629 C1628 1.377 . S
C1629 C1635 1.390 . S
C1630 H1621 0.930 . S
C1630 C1628 1.384 . S
C1630 C1631 1.372 . S
C1631 C1630 1.372 . S
C1631 C1632 1.400 . S
C1631 C1636 1.490 . S
C1632 H1622 0.930 . S
C1632 C1631 1.400 . S
C1632 C1635 1.386 . S
H1633 C1649 0.930 . S
H1634 C1650 0.931 . S
C1635 H1623 0.929 . S
C1635 C1629 1.390 . S
C1635 C1632 1.386 . S
C1636 C1631 1.490 . S
C1636 C1638 1.395 . S
C1636 C1639 1.403 . S
H1637 C1643 0.930 . S
C1638 H1624 0.930 . S
C1638 C1636 1.395 . S
C1638 C1641 1.403 . S
C1639 C1636 1.403 . S
C1639 C1640 1.524 . S
C1639 C1643 1.400 . S
C1640 H1625 0.960 . S
C1640 H1626 0.960 . S
C1640 H1627 0.960 . S
C1640 C1639 1.524 . S
C1641 C1638 1.403 . S
C1641 C1642 1.392 . S
C1641 C1645 1.495 . S
C1642 C1641 1.392 . S
C1642 C1643 1.385 . S
C1642 C1644 1.478 . S
C1643 H1637 0.930 . S
C1643 C1639 1.400 . S
C1643 C1642 1.385 . S
C1644 C1642 1.478 . S
C1644 C1646 1.381 . S
C1644 C1650 1.383 . S
C1645 C1641 1.495 . S
C1645 H1651 0.959 . S
C1645 H1652 0.961 . S
C1645 H1653 0.960 . S
C1646 C1644 1.381 . S
C1646 C1647 1.394 . S
C1646 H1654 0.930 . S
C1647 C1646 1.394 . S
C1647 C1648 1.383 . S
C1647 H1655 0.929 . S
C1648 C1647 1.383 . S
C1648 C1649 1.377 . S
C1649 H1633 0.930 . S
C1649 C1648 1.377 . S
C1649 C1650 1.379 . S
C1650 H1634 0.931 . S
C1650 C1644 1.383 . S
C1650 C1649 1.379 . S
H1651 C1645 0.959 . S
H1652 C1645 0.961 . S
H1653 C1645 0.960 . S
H1654 C1646 0.930 . S
H1655 C1647 0.929 . S
H1656 C1664 0.929 . S
H1657 C1666 0.930 . S
H1658 C1668 0.930 . S
H1659 C1671 0.929 . S
H1660 C1674 0.930 . S
H1661 C1676 0.960 . S
H1662 C1676 0.960 . S
H1663 C1676 0.960 . S
C1664 H1656 0.929 . S
C1664 C1665 1.377 . S
C1664 C1666 1.384 . S
C1665 C1664 1.377 . S
C1665 C1671 1.390 . S
C1666 H1657 0.930 . S
C1666 C1664 1.384 . S
C1666 C1667 1.372 . S
C1667 C1666 1.372 . S
C1667 C1668 1.400 . S
C1667 C1672 1.490 . S
C1668 H1658 0.930 . S
C1668 C1667 1.400 . S
C1668 C1671 1.386 . S
H1669 C1685 0.930 . S
H1670 C1686 0.931 . S
C1671 H1659 0.929 . S
C1671 C1665 1.390 . S
C1671 C1668 1.386 . S
C1672 C1667 1.490 . S
C1672 C1674 1.395 . S
C1672 C1675 1.403 . S
H1673 C1679 0.930 . S
C1674 H1660 0.930 . S
C1674 C1672 1.395 . S
C1674 C1677 1.403 . S
C1675 C1672 1.403 . S
C1675 C1676 1.524 . S
C1675 C1679 1.400 . S
C1676 H1661 0.960 . S
C1676 H1662 0.960 . S
C1676 H1663 0.960 . S
C1676 C1675 1.524 . S
C1677 C1674 1.403 . S
C1677 C1678 1.392 . S
C1677 C1681 1.495 . S
C1678 C1677 1.392 . S
C1678 C1679 1.385 . S
C1678 C1680 1.478 . S
C1679 H1673 0.930 . S
C1679 C1675 1.400 . S
C1679 C1678 1.385 . S
C1680 C1678 1.478 . S
C1680 C1682 1.381 . S
C1680 C1686 1.383 . S
C1681 C1677 1.495 . S
C1681 H1687 0.959 . S
C1681 H1688 0.961 . S
C1681 H1689 0.960 . S
C1682 C1680 1.381 . S
C1682 C1683 1.394 . S
C1682 H1690 0.930 . S
C1683 C1682 1.394 . S
C1683 C1684 1.383 . S
C1683 H1691 0.929 . S
C1684 C1683 1.383 . S
C1684 C1685 1.377 . S
C1685 H1669 0.930 . S
C1685 C1684 1.377 . S
C1685 C1686 1.379 . S
C1686 H1670 0.931 . S
C1686 C1680 1.383 . S
C1686 C1685 1.379 . S
H1687 C1681 0.959 . S
H1688 C1681 0.961 . S
H1689 C1681 0.960 . S
H1690 C1682 0.930 . S
H1691 C1683 0.929 . S
H1692 C1700 0.929 . S
H1693 C1702 0.930 . S
H1694 C1704 0.930 . S
H1695 C1707 0.929 . S
H1696 C1710 0.930 . S
H1697 C1712 0.960 . S
H1698 C1712 0.960 . S
H1699 C1712 0.960 . S
C1700 H1692 0.929 . S
C1700 C1701 1.377 . S
C1700 C1702 1.384 . S
C1701 C1700 1.377 . S
C1701 C1707 1.390 . S
C1702 H1693 0.930 . S
C1702 C1700 1.384 . S
C1702 C1703 1.372 . S
C1703 C1702 1.372 . S
C1703 C1704 1.400 . S
C1703 C1708 1.490 . S
C1704 H1694 0.930 . S
C1704 C1703 1.400 . S
C1704 C1707 1.386 . S
H1705 C1721 0.930 . S
H1706 C1722 0.931 . S
C1707 H1695 0.929 . S
C1707 C1701 1.390 . S
C1707 C1704 1.386 . S
C1708 C1703 1.490 . S
C1708 C1710 1.395 . S
C1708 C1711 1.403 . S
H1709 C1715 0.930 . S
C1710 H1696 0.930 . S
C1710 C1708 1.395 . S
C1710 C1713 1.403 . S
C1711 C1708 1.403 . S
C1711 C1712 1.524 . S
C1711 C1715 1.400 . S
C1712 H1697 0.960 . S
C1712 H1698 0.960 . S
C1712 H1699 0.960 . S
C1712 C1711 1.524 . S
C1713 C1710 1.403 . S
C1713 C1714 1.392 . S
C1713 C1717 1.495 . S
C1714 C1713 1.392 . S
C1714 C1715 1.385 . S
C1714 C1716 1.478 . S
C1715 H1709 0.930 . S
C1715 C1711 1.400 . S
C1715 C1714 1.385 . S
C1716 C1714 1.478 . S
C1716 C1718 1.381 . S
C1716 C1722 1.383 . S
C1717 C1713 1.495 . S
C1717 H1723 0.959 . S
C1717 H1724 0.961 . S
C1717 H1725 0.960 . S
C1718 C1716 1.381 . S
C1718 C1719 1.394 . S
C1718 H1726 0.930 . S
C1719 C1718 1.394 . S
C1719 C1720 1.383 . S
C1719 H1727 0.929 . S
C1720 C1719 1.383 . S
C1720 C1721 1.377 . S
C1721 H1705 0.930 . S
C1721 C1720 1.377 . S
C1721 C1722 1.379 . S
C1722 H1706 0.931 . S
C1722 C1716 1.383 . S
C1722 C1721 1.379 . S
H1723 C1717 0.959 . S
H1724 C1717 0.961 . S
H1725 C1717 0.960 . S
H1726 C1718 0.930 . S
H1727 C1719 0.929 . S
H1728 C1736 0.929 . S
H1729 C1738 0.930 . S
H1730 C1740 0.930 . S
H1731 C1743 0.929 . S
H1732 C1746 0.930 . S
H1733 C1748 0.960 . S
H1734 C1748 0.960 . S
H1735 C1748 0.960 . S
C1736 H1728 0.929 . S
C1736 C1737 1.377 . S
C1736 C1738 1.384 . S
C1737 C1736 1.377 . S
C1737 C1743 1.390 . S
C1738 H1729 0.930 . S
C1738 C1736 1.384 . S
C1738 C1739 1.372 . S
C1739 C1738 1.372 . S
C1739 C1740 1.400 . S
C1739 C1744 1.490 . S
C1740 H1730 0.930 . S
C1740 C1739 1.400 . S
C1740 C1743 1.386 . S
H1741 C1757 0.930 . S
H1742 C1758 0.931 . S
C1743 H1731 0.929 . S
C1743 C1737 1.390 . S
C1743 C1740 1.386 . S
C1744 C1739 1.490 . S
C1744 C1746 1.395 . S
C1744 C1747 1.403 . S
H1745 C1751 0.930 . S
C1746 H1732 0.930 . S
C1746 C1744 1.395 . S
C1746 C1749 1.403 . S
C1747 C1744 1.403 . S
C1747 C1748 1.524 . S
C1747 C1751 1.400 . S
C1748 H1733 0.960 . S
C1748 H1734 0.960 . S
C1748 H1735 0.960 . S
C1748 C1747 1.524 . S
C1749 C1746 1.403 . S
C1749 C1750 1.392 . S
C1749 C1753 1.495 . S
C1750 C1749 1.392 . S
C1750 C1751 1.385 . S
C1750 C1752 1.478 . S
C1751 H1745 0.930 . S
C1751 C1747 1.400 . S
C1751 C1750 1.385 . S
C1752 C1750 1.478 . S
C1752 C1754 1.381 . S
C1752 C1758 1.383 . S
C1753 C1749 1.495 . S
C1753 H1759 0.959 . S
C1753 H1760 0.961 . S
C1753 H1761 0.960 . S
C1754 C1752 1.381 . S
C1754 C1755 1.394 . S
C1754 H1762 0.930 . S
C1755 C1754 1.394 . S
C1755 C1756 1.383 . S
C1755 H1763 0.929 . S
C1756 C1755 1.383 . S
C1756 C1757 1.377 . S
C1757 H1741 0.930 . S
C1757 C1756 1.377 . S
C1757 C1758 1.379 . S
C1758 H1742 0.931 . S
C1758 C1752 1.383 . S
C1758 C1757 1.379 . S
H1759 C1753 0.959 . S
H1760 C1753 0.961 . S
H1761 C1753 0.960 . S
H1762 C1754 0.930 . S
H1763 C1755 0.929 . S
H1764 C1772 0.929 . S
H1765 C1774 0.930 . S
H1766 C1776 0.930 . S
H1767 C1779 0.929 . S
H1768 C1782 0.930 . S
H1769 C1784 0.960 . S
H1770 C1784 0.960 . S
H1771 C1784 0.960 . S
C1772 H1764 0.929 . S
C1772 C1773 1.377 . S
C1772 C1774 1.384 . S
C1773 C1772 1.377 . S
C1773 C1779 1.390 . S
C1774 H1765 0.930 . S
C1774 C1772 1.384 . S
C1774 C1775 1.372 . S
C1775 C1774 1.372 . S
C1775 C1776 1.400 . S
C1775 C1780 1.490 . S
C1776 H1766 0.930 . S
C1776 C1775 1.400 . S
C1776 C1779 1.386 . S
H1777 C1793 0.930 . S
H1778 C1794 0.931 . S
C1779 H1767 0.929 . S
C1779 C1773 1.390 . S
C1779 C1776 1.386 . S
C1780 C1775 1.490 . S
C1780 C1782 1.395 . S
C1780 C1783 1.403 . S
H1781 C1787 0.930 . S
C1782 H1768 0.930 . S
C1782 C1780 1.395 . S
C1782 C1785 1.403 . S
C1783 C1780 1.403 . S
C1783 C1784 1.524 . S
C1783 C1787 1.400 . S
C1784 H1769 0.960 . S
C1784 H1770 0.960 . S
C1784 H1771 0.960 . S
C1784 C1783 1.524 . S
C1785 C1782 1.403 . S
C1785 C1786 1.392 . S
C1785 C1789 1.495 . S
C1786 C1785 1.392 . S
C1786 C1787 1.385 . S
C1786 C1788 1.478 . S
C1787 H1781 0.930 . S
C1787 C1783 1.400 . S
C1787 C1786 1.385 . S
C1788 C1786 1.478 . S
C1788 C1790 1.381 . S
C1788 C1794 1.383 . S
C1789 C1785 1.495 . S
C1789 H1795 0.959 . S
C1789 H1796 0.961 . S
C1789 H1797 0.960 . S
C1790 C1788 1.381 . S
C1790 C1791 1.394 . S
C1790 H1798 0.930 . S
C1791 C1790 1.394 . S
C1791 C1792 1.383 . S
C1791 H1799 0.929 . S
C1792 C1791 1.383 . S
C1792 C1793 1.377 . S
C1793 H1777 0.930 . S
C1793 C1792 1.377 . S
C1793 C1794 1.379 . S
C1794 H1778 0.931 . S
C1794 C1788 1.383 . S
C1794 C1793 1.379 . S
H1795 C1789 0.959 . S
H1796 C1789 0.961 . S
H1797 C1789 0.960 . S
H1798 C1790 0.930 . S
H1799 C1791 0.929 . S
H1800 C1808 0.929 . S
H1801 C1810 0.930 . S
H1802 C1812 0.930 . S
H1803 C1815 0.929 . S
H1804 C1818 0.930 . S
H1805 C1820 0.960 . S
H1806 C1820 0.960 . S
H1807 C1820 0.960 . S
C1808 H1800 0.929 . S
C1808 C1809 1.377 . S
C1808 C1810 1.384 . S
C1809 C1808 1.377 . S
C1809 C1815 1.390 . S
C1810 H1801 0.930 . S
C1810 C1808 1.384 . S
C1810 C1811 1.372 . S
C1811 C1810 1.372 . S
C1811 C1812 1.400 . S
C1811 C1816 1.490 . S
C1812 H1802 0.930 . S
C1812 C1811 1.400 . S
C1812 C1815 1.386 . S
H1813 C1829 0.930 . S
H1814 C1830 0.931 . S
C1815 H1803 0.929 . S
C1815 C1809 1.390 . S
C1815 C1812 1.386 . S
C1816 C1811 1.490 . S
C1816 C1818 1.395 . S
C1816 C1819 1.403 . S
H1817 C1823 0.930 . S
C1818 H1804 0.930 . S
C1818 C1816 1.395 . S
C1818 C1821 1.403 . S
C1819 C1816 1.403 . S
C1819 C1820 1.524 . S
C1819 C1823 1.400 . S
C1820 H1805 0.960 . S
C1820 H1806 0.960 . S
C1820 H1807 0.960 . S
C1820 C1819 1.524 . S
C1821 C1818 1.403 . S
C1821 C1822 1.392 . S
C1821 C1825 1.495 . S
C1822 C1821 1.392 . S
C1822 C1823 1.385 . S
C1822 C1824 1.478 . S
C1823 H1817 0.930 . S
C1823 C1819 1.400 . S
C1823 C1822 1.385 . S
C1824 C1822 1.478 . S
C1824 C1826 1.381 . S
C1824 C1830 1.383 . S
C1825 C1821 1.495 . S
C1825 H1831 0.959 . S
C1825 H1832 0.961 . S
C1825 H1833 0.960 . S
C1826 C1824 1.381 . S
C1826 C1827 1.394 . S
C1826 H1834 0.930 . S
C1827 C1826 1.394 . S
C1827 C1828 1.383 . S
C1827 H1835 0.929 . S
C1828 C1827 1.383 . S
C1828 C1829 1.377 . S
C1829 H1813 0.930 . S
C1829 C1828 1.377 . S
C1829 C1830 1.379 . S
C1830 H1814 0.931 . S
C1830 C1824 1.383 . S
C1830 C1829 1.379 . S
H1831 C1825 0.959 . S
H1832 C1825 0.961 . S
H1833 C1825 0.960 . S
H1834 C1826 0.930 . S
H1835 C1827 0.929 . S
H1836 C1844 0.929 . S
H1837 C1846 0.930 . S
H1838 C1848 0.930 . S
H1839 C1851 0.929 . S
H1840 C1854 0.930 . S
H1841 C1856 0.960 . S
H1842 C1856 0.960 . S
H1843 C1856 0.960 . S
C1844 H1836 0.929 . S
C1844 C1845 1.377 . S
C1844 C1846 1.384 . S
C1845 C1844 1.377 . S
C1845 C1851 1.390 . S
C1846 H1837 0.930 . S
C1846 C1844 1.384 . S
C1846 C1847 1.372 . S
C1847 C1846 1.372 . S
C1847 C1848 1.400 . S
C1847 C1852 1.490 . S
C1848 H1838 0.930 . S
C1848 C1847 1.400 . S
C1848 C1851 1.386 . S
H1849 C1865 0.930 . S
H1850 C1866 0.931 . S
C1851 H1839 0.929 . S
C1851 C1845 1.390 . S
C1851 C1848 1.386 . S
C1852 C1847 1.490 . S
C1852 C1854 1.395 . S
C1852 C1855 1.403 . S
H1853 C1859 0.930 . S
C1854 H1840 0.930 . S
C1854 C1852 1.395 . S
C1854 C1857 1.403 . S
C1855 C1852 1.403 . S
C1855 C1856 1.524 . S
C1855 C1859 1.400 . S
C1856 H1841 0.960 . S
C1856 H1842 0.960 . S
C1856 H1843 0.960 . S
C1856 C1855 1.524 . S
C1857 C1854 1.403 . S
C1857 C1858 1.392 . S
C1857 C1861 1.495 . S
C1858 C1857 1.392 . S
C1858 C1859 1.385 . S
C1858 C1860 1.478 . S
C1859 H1853 0.930 . S
C1859 C1855 1.400 . S
C1859 C1858 1.385 . S
C1860 C1858 1.478 . S
C1860 C1862 1.381 . S
C1860 C1866 1.383 . S
C1861 C1857 1.495 . S
C1861 H1867 0.959 . S
C1861 H1868 0.961 . S
C1861 H1869 0.960 . S
C1862 C1860 1.381 . S
C1862 C1863 1.394 . S
C1862 H1870 0.930 . S
C1863 C1862 1.394 . S
C1863 C1864 1.383 . S
C1863 H1871 0.929 . S
C1864 C1863 1.383 . S
C1864 C1865 1.377 . S
C1865 H1849 0.930 . S
C1865 C1864 1.377 . S
C1865 C1866 1.379 . S
C1866 H1850 0.931 . S
C1866 C1860 1.383 . S
C1866 C1865 1.379 . S
H1867 C1861 0.959 . S
H1868 C1861 0.961 . S
H1869 C1861 0.960 . S
H1870 C1862 0.930 . S
H1871 C1863 0.929 . S
H1872 C1880 0.929 . S
H1873 C1882 0.930 . S
H1874 C1884 0.930 . S
H1875 C1887 0.929 . S
H1876 C1890 0.930 . S
H1877 C1892 0.960 . S
H1878 C1892 0.960 . S
H1879 C1892 0.960 . S
C1880 H1872 0.929 . S
C1880 C1881 1.377 . S
C1880 C1882 1.384 . S
C1881 C1880 1.377 . S
C1881 C1887 1.390 . S
C1882 H1873 0.930 . S
C1882 C1880 1.384 . S
C1882 C1883 1.372 . S
C1883 C1882 1.372 . S
C1883 C1884 1.400 . S
C1883 C1888 1.490 . S
C1884 H1874 0.930 . S
C1884 C1883 1.400 . S
C1884 C1887 1.386 . S
H1885 C1901 0.930 . S
H1886 C1902 0.931 . S
C1887 H1875 0.929 . S
C1887 C1881 1.390 . S
C1887 C1884 1.386 . S
C1888 C1883 1.490 . S
C1888 C1890 1.395 . S
C1888 C1891 1.403 . S
H1889 C1895 0.930 . S
C1890 H1876 0.930 . S
C1890 C1888 1.395 . S
C1890 C1893 1.403 . S
C1891 C1888 1.403 . S
C1891 C1892 1.524 . S
C1891 C1895 1.400 . S
C1892 H1877 0.960 . S
C1892 H1878 0.960 . S
C1892 H1879 0.960 . S
C1892 C1891 1.524 . S
C1893 C1890 1.403 . S
C1893 C1894 1.392 . S
C1893 C1897 1.495 . S
C1894 C1893 1.392 . S
C1894 C1895 1.385 . S
C1894 C1896 1.478 . S
C1895 H1889 0.930 . S
C1895 C1891 1.400 . S
C1895 C1894 1.385 . S
C1896 C1894 1.478 . S
C1896 C1898 1.381 . S
C1896 C1902 1.383 . S
C1897 C1893 1.495 . S
C1897 H1903 0.959 . S
C1897 H1904 0.961 . S
C1897 H1905 0.960 . S
C1898 C1896 1.381 . S
C1898 C1899 1.394 . S
C1898 H1906 0.930 . S
C1899 C1898 1.394 . S
C1899 C1900 1.383 . S
C1899 H1907 0.929 . S
C1900 C1899 1.383 . S
C1900 C1901 1.377 . S
C1901 H1885 0.930 . S
C1901 C1900 1.377 . S
C1901 C1902 1.379 . S
C1902 H1886 0.931 . S
C1902 C1896 1.383 . S
C1902 C1901 1.379 . S
H1903 C1897 0.959 . S
H1904 C1897 0.961 . S
H1905 C1897 0.960 . S
H1906 C1898 0.930 . S
H1907 C1899 0.929 . S
H1908 C1916 0.929 . S
H1909 C1918 0.930 . S
H1910 C1920 0.930 . S
H1911 C1923 0.929 . S
H1912 C1926 0.930 . S
H1913 C1928 0.960 . S
H1914 C1928 0.960 . S
H1915 C1928 0.960 . S
C1916 H1908 0.929 . S
C1916 C1917 1.377 . S
C1916 C1918 1.384 . S
C1917 C1916 1.377 . S
C1917 C1923 1.390 . S
C1918 H1909 0.930 . S
C1918 C1916 1.384 . S
C1918 C1919 1.372 . S
C1919 C1918 1.372 . S
C1919 C1920 1.400 . S
C1919 C1924 1.490 . S
C1920 H1910 0.930 . S
C1920 C1919 1.400 . S
C1920 C1923 1.386 . S
H1921 C1937 0.930 . S
H1922 C1938 0.931 . S
C1923 H1911 0.929 . S
C1923 C1917 1.390 . S
C1923 C1920 1.386 . S
C1924 C1919 1.490 . S
C1924 C1926 1.395 . S
C1924 C1927 1.403 . S
H1925 C1931 0.930 . S
C1926 H1912 0.930 . S
C1926 C1924 1.395 . S
C1926 C1929 1.403 . S
C1927 C1924 1.403 . S
C1927 C1928 1.524 . S
C1927 C1931 1.400 . S
C1928 H1913 0.960 . S
C1928 H1914 0.960 . S
C1928 H1915 0.960 . S
C1928 C1927 1.524 . S
C1929 C1926 1.403 . S
C1929 C1930 1.392 . S
C1929 C1933 1.495 . S
C1930 C1929 1.392 . S
C1930 C1931 1.385 . S
C1930 C1932 1.478 . S
C1931 H1925 0.930 . S
C1931 C1927 1.400 . S
C1931 C1930 1.385 . S
C1932 C1930 1.478 . S
C1932 C1934 1.381 . S
C1932 C1938 1.383 . S
C1933 C1929 1.495 . S
C1933 H1939 0.959 . S
C1933 H1940 0.961 . S
C1933 H1941 0.960 . S
C1934 C1932 1.381 . S
C1934 C1935 1.394 . S
C1934 H1942 0.930 . S
C1935 C1934 1.394 . S
C1935 C1936 1.383 . S
C1935 H1943 0.929 . S
C1936 C1935 1.383 . S
C1936 C1937 1.377 . S
C1937 H1921 0.930 . S
C1937 C1936 1.377 . S
C1937 C1938 1.379 . S
C1938 H1922 0.931 . S
C1938 C1932 1.383 . S
C1938 C1937 1.379 . S
H1939 C1933 0.959 . S
H1940 C1933 0.961 . S
H1941 C1933 0.960 . S
H1942 C1934 0.930 . S
H1943 C1935 0.929 . S
H1944 C1952 0.929 . S
H1945 C1954 0.930 . S
H1946 C1956 0.930 . S
H1947 C1959 0.929 . S
H1948 C1962 0.930 . S
H1949 C1964 0.960 . S
H1950 C1964 0.960 . S
H1951 C1964 0.960 . S
C1952 H1944 0.929 . S
C1952 C1953 1.377 . S
C1952 C1954 1.384 . S
C1953 C1952 1.377 . S
C1953 C1959 1.390 . S
C1954 H1945 0.930 . S
C1954 C1952 1.384 . S
C1954 C1955 1.372 . S
C1955 C1954 1.372 . S
C1955 C1956 1.400 . S
C1955 C1960 1.490 . S
C1956 H1946 0.930 . S
C1956 C1955 1.400 . S
C1956 C1959 1.386 . S
H1957 C1973 0.930 . S
H1958 C1974 0.931 . S
C1959 H1947 0.929 . S
C1959 C1953 1.390 . S
C1959 C1956 1.386 . S
C1960 C1955 1.490 . S
C1960 C1962 1.395 . S
C1960 C1963 1.403 . S
H1961 C1967 0.930 . S
C1962 H1948 0.930 . S
C1962 C1960 1.395 . S
C1962 C1965 1.403 . S
C1963 C1960 1.403 . S
C1963 C1964 1.524 . S
C1963 C1967 1.400 . S
C1964 H1949 0.960 . S
C1964 H1950 0.960 . S
C1964 H1951 0.960 . S
C1964 C1963 1.524 . S
C1965 C1962 1.403 . S
C1965 C1966 1.392 . S
C1965 C1969 1.495 . S
C1966 C1965 1.392 . S
C1966 C1967 1.385 . S
C1966 C1968 1.478 . S
C1967 H1961 0.930 . S
C1967 C1963 1.400 . S
C1967 C1966 1.385 . S
C1968 C1966 1.478 . S
C1968 C1970 1.381 . S
C1968 C1974 1.383 . S
C1969 C1965 1.495 . S
C1969 H1975 0.959 . S
C1969 H1976 0.961 . S
C1969 H1977 0.960 . S
C1970 C1968 1.381 . S
C1970 C1971 1.394 . S
C1970 H1978 0.930 . S
C1971 C1970 1.394 . S
C1971 C1972 1.383 . S
C1971 H1979 0.929 . S
C1972 C1971 1.383 . S
C1972 C1973 1.377 . S
C1973 H1957 0.930 . S
C1973 C1972 1.377 . S
C1973 C1974 1.379 . S
C1974 H1958 0.931 . S
C1974 C1968 1.383 . S
C1974 C1973 1.379 . S
H1975 C1969 0.959 . S
H1976 C1969 0.961 . S
H1977 C1969 0.960 . S
H1978 C1970 0.930 . S
H1979 C1971 0.929 . S
H1980 C1988 0.929 . S
H1981 C1990 0.930 . S
H1982 C1992 0.930 . S
H1983 C1995 0.929 . S
H1984 C1998 0.930 . S
H1985 C2000 0.960 . S
H1986 C2000 0.960 . S
H1987 C2000 0.960 . S
C1988 H1980 0.929 . S
C1988 C1989 1.377 . S
C1988 C1990 1.384 . S
C1989 C1988 1.377 . S
C1989 C1995 1.390 . S
C1990 H1981 0.930 . S
C1990 C1988 1.384 . S
C1990 C1991 1.372 . S
C1991 C1990 1.372 . S
C1991 C1992 1.400 . S
C1991 C1996 1.490 . S
C1992 H1982 0.930 . S
C1992 C1991 1.400 . S
C1992 C1995 1.386 . S
H1993 C2009 0.930 . S
H1994 C2010 0.931 . S
C1995 H1983 0.929 . S
C1995 C1989 1.390 . S
C1995 C1992 1.386 . S
C1996 C1991 1.490 . S
C1996 C1998 1.395 . S
C1996 C1999 1.403 . S
H1997 C2003 0.930 . S
C1998 H1984 0.930 . S
C1998 C1996 1.395 . S
C1998 C2001 1.403 . S
C1999 C1996 1.403 . S
C1999 C2000 1.524 . S
C1999 C2003 1.400 . S
C2000 H1985 0.960 . S
C2000 H1986 0.960 . S
C2000 H1987 0.960 . S
C2000 C1999 1.524 . S
C2001 C1998 1.403 . S
C2001 C2002 1.392 . S
C2001 C2005 1.495 . S
C2002 C2001 1.392 . S
C2002 C2003 1.385 . S
C2002 C2004 1.478 . S
C2003 H1997 0.930 . S
C2003 C1999 1.400 . S
C2003 C2002 1.385 . S
C2004 C2002 1.478 . S
C2004 C2006 1.381 . S
C2004 C2010 1.383 . S
C2005 C2001 1.495 . S
C2005 H2011 0.959 . S
C2005 H2012 0.961 . S
C2005 H2013 0.960 . S
C2006 C2004 1.381 . S
C2006 C2007 1.394 . S
C2006 H2014 0.930 . S
C2007 C2006 1.394 . S
C2007 C2008 1.383 . S
C2007 H2015 0.929 . S
C2008 C2007 1.383 . S
C2008 C2009 1.377 . S
C2009 H1993 0.930 . S
C2009 C2008 1.377 . S
C2009 C2010 1.379 . S
C2010 H1994 0.931 . S
C2010 C2004 1.383 . S
C2010 C2009 1.379 . S
H2011 C2005 0.959 . S
H2012 C2005 0.961 . S
H2013 C2005 0.960 . S
H2014 C2006 0.930 . S
H2015 C2007 0.929 . S
H2016 C2024 0.929 . S
H2017 C2026 0.930 . S
H2018 C2028 0.930 . S
H2019 C2031 0.929 . S
H2020 C2034 0.930 . S
H2021 C2036 0.960 . S
H2022 C2036 0.960 . S
H2023 C2036 0.960 . S
C2024 H2016 0.929 . S
C2024 C2025 1.377 . S
C2024 C2026 1.384 . S
C2025 C2024 1.377 . S
C2025 C2031 1.390 . S
C2026 H2017 0.930 . S
C2026 C2024 1.384 . S
C2026 C2027 1.372 . S
C2027 C2026 1.372 . S
C2027 C2028 1.400 . S
C2027 C2032 1.490 . S
C2028 H2018 0.930 . S
C2028 C2027 1.400 . S
C2028 C2031 1.386 . S
H2029 C2045 0.930 . S
H2030 C2046 0.931 . S
C2031 H2019 0.929 . S
C2031 C2025 1.390 . S
C2031 C2028 1.386 . S
C2032 C2027 1.490 . S
C2032 C2034 1.395 . S
C2032 C2035 1.403 . S
H2033 C2039 0.930 . S
C2034 H2020 0.930 . S
C2034 C2032 1.395 . S
C2034 C2037 1.403 . S
C2035 C2032 1.403 . S
C2035 C2036 1.524 . S
C2035 C2039 1.400 . S
C2036 H2021 0.960 . S
C2036 H2022 0.960 . S
C2036 H2023 0.960 . S
C2036 C2035 1.524 . S
C2037 C2034 1.403 . S
C2037 C2038 1.392 . S
C2037 C2041 1.495 . S
C2038 C2037 1.392 . S
C2038 C2039 1.385 . S
C2038 C2040 1.478 . S
C2039 H2033 0.930 . S
C2039 C2035 1.400 . S
C2039 C2038 1.385 . S
C2040 C2038 1.478 . S
C2040 C2042 1.381 . S
C2040 C2046 1.383 . S
C2041 C2037 1.495 . S
C2041 H2047 0.959 . S
C2041 H2048 0.961 . S
C2041 H2049 0.960 . S
C2042 C2040 1.381 . S
C2042 C2043 1.394 . S
C2042 H2050 0.930 . S
C2043 C2042 1.394 . S
C2043 C2044 1.383 . S
C2043 H2051 0.929 . S
C2044 C2043 1.383 . S
C2044 C2045 1.377 . S
C2045 H2029 0.930 . S
C2045 C2044 1.377 . S
C2045 C2046 1.379 . S
C2046 H2030 0.931 . S
C2046 C2040 1.383 . S
C2046 C2045 1.379 . S
H2047 C2041 0.959 . S
H2048 C2041 0.961 . S
H2049 C2041 0.960 . S
H2050 C2042 0.930 . S
H2051 C2043 0.929 . S
H2052 C2060 0.929 . S
H2053 C2062 0.930 . S
H2054 C2064 0.930 . S
H2055 C2067 0.929 . S
H2056 C2070 0.930 . S
H2057 C2072 0.960 . S
H2058 C2072 0.960 . S
H2059 C2072 0.960 . S
C2060 H2052 0.929 . S
C2060 C2061 1.377 . S
C2060 C2062 1.384 . S
C2061 C2060 1.377 . S
C2061 C2067 1.390 . S
C2062 H2053 0.930 . S
C2062 C2060 1.384 . S
C2062 C2063 1.372 . S
C2063 C2062 1.372 . S
C2063 C2064 1.400 . S
C2063 C2068 1.490 . S
C2064 H2054 0.930 . S
C2064 C2063 1.400 . S
C2064 C2067 1.386 . S
H2065 C2081 0.930 . S
H2066 C2082 0.931 . S
C2067 H2055 0.929 . S
C2067 C2061 1.390 . S
C2067 C2064 1.386 . S
C2068 C2063 1.490 . S
C2068 C2070 1.395 . S
C2068 C2071 1.403 . S
H2069 C2075 0.930 . S
C2070 H2056 0.930 . S
C2070 C2068 1.395 . S
C2070 C2073 1.403 . S
C2071 C2068 1.403 . S
C2071 C2072 1.524 . S
C2071 C2075 1.400 . S
C2072 H2057 0.960 . S
C2072 H2058 0.960 . S
C2072 H2059 0.960 . S
C2072 C2071 1.524 . S
C2073 C2070 1.403 . S
C2073 C2074 1.392 . S
C2073 C2077 1.495 . S
C2074 C2073 1.392 . S
C2074 C2075 1.385 . S
C2074 C2076 1.478 . S
C2075 H2069 0.930 . S
C2075 C2071 1.400 . S
C2075 C2074 1.385 . S
C2076 C2074 1.478 . S
C2076 C2078 1.381 . S
C2076 C2082 1.383 . S
C2077 C2073 1.495 . S
C2077 H2083 0.959 . S
C2077 H2084 0.961 . S
C2077 H2085 0.960 . S
C2078 C2076 1.381 . S
C2078 C2079 1.394 . S
C2078 H2086 0.930 . S
C2079 C2078 1.394 . S
C2079 C2080 1.383 . S
C2079 H2087 0.929 . S
C2080 C2079 1.383 . S
C2080 C2081 1.377 . S
C2081 H2065 0.930 . S
C2081 C2080 1.377 . S
C2081 C2082 1.379 . S
C2082 H2066 0.931 . S
C2082 C2076 1.383 . S
C2082 C2081 1.379 . S
H2083 C2077 0.959 . S
H2084 C2077 0.961 . S
H2085 C2077 0.960 . S
H2086 C2078 0.930 . S
H2087 C2079 0.929 . S
H2088 C2096 0.929 . S
H2089 C2098 0.930 . S
H2090 C2100 0.930 . S
H2091 C2103 0.929 . S
H2092 C2106 0.930 . S
H2093 C2108 0.960 . S
H2094 C2108 0.960 . S
H2095 C2108 0.960 . S
C2096 H2088 0.929 . S
C2096 C2097 1.377 . S
C2096 C2098 1.384 . S
C2097 C2096 1.377 . S
C2097 C2103 1.390 . S
C2098 H2089 0.930 . S
C2098 C2096 1.384 . S
C2098 C2099 1.372 . S
C2099 C2098 1.372 . S
C2099 C2100 1.400 . S
C2099 C2104 1.490 . S
C2100 H2090 0.930 . S
C2100 C2099 1.400 . S
C2100 C2103 1.386 . S
H2101 C2117 0.930 . S
H2102 C2118 0.931 . S
C2103 H2091 0.929 . S
C2103 C2097 1.390 . S
C2103 C2100 1.386 . S
C2104 C2099 1.490 . S
C2104 C2106 1.395 . S
C2104 C2107 1.403 . S
H2105 C2111 0.930 . S
C2106 H2092 0.930 . S
C2106 C2104 1.395 . S
C2106 C2109 1.403 . S
C2107 C2104 1.403 . S
C2107 C2108 1.524 . S
C2107 C2111 1.400 . S
C2108 H2093 0.960 . S
C2108 H2094 0.960 . S
C2108 H2095 0.960 . S
C2108 C2107 1.524 . S
C2109 C2106 1.403 . S
C2109 C2110 1.392 . S
C2109 C2113 1.495 . S
C2110 C2109 1.392 . S
C2110 C2111 1.385 . S
C2110 C2112 1.478 . S
C2111 H2105 0.930 . S
C2111 C2107 1.400 . S
C2111 C2110 1.385 . S
C2112 C2110 1.478 . S
C2112 C2114 1.381 . S
C2112 C2118 1.383 . S
C2113 C2109 1.495 . S
C2113 H2119 0.959 . S
C2113 H2120 0.961 . S
C2113 H2121 0.960 . S
C2114 C2112 1.381 . S
C2114 C2115 1.394 . S
C2114 H2122 0.930 . S
C2115 C2114 1.394 . S
C2115 C2116 1.383 . S
C2115 H2123 0.929 . S
C2116 C2115 1.383 . S
C2116 C2117 1.377 . S
C2117 H2101 0.930 . S
C2117 C2116 1.377 . S
C2117 C2118 1.379 . S
C2118 H2102 0.931 . S
C2118 C2112 1.383 . S
C2118 C2117 1.379 . S
H2119 C2113 0.959 . S
H2120 C2113 0.961 . S
H2121 C2113 0.960 . S
H2122 C2114 0.930 . S
H2123 C2115 0.929 . S
H2124 C2132 0.929 . S
H2125 C2134 0.930 . S
H2126 C2136 0.930 . S
H2127 C2139 0.929 . S
H2128 C2142 0.930 . S
H2129 C2144 0.960 . S
H2130 C2144 0.960 . S
H2131 C2144 0.960 . S
C2132 H2124 0.929 . S
C2132 C2133 1.377 . S
C2132 C2134 1.384 . S
C2133 C2132 1.377 . S
C2133 C2139 1.390 . S
C2134 H2125 0.930 . S
C2134 C2132 1.384 . S
C2134 C2135 1.372 . S
C2135 C2134 1.372 . S
C2135 C2136 1.400 . S
C2135 C2140 1.490 . S
C2136 H2126 0.930 . S
C2136 C2135 1.400 . S
C2136 C2139 1.386 . S
H2137 C2153 0.930 . S
H2138 C2154 0.931 . S
C2139 H2127 0.929 . S
C2139 C2133 1.390 . S
C2139 C2136 1.386 . S
C2140 C2135 1.490 . S
C2140 C2142 1.395 . S
C2140 C2143 1.403 . S
H2141 C2147 0.930 . S
C2142 H2128 0.930 . S
C2142 C2140 1.395 . S
C2142 C2145 1.403 . S
C2143 C2140 1.403 . S
C2143 C2144 1.524 . S
C2143 C2147 1.400 . S
C2144 H2129 0.960 . S
C2144 H2130 0.960 . S
C2144 H2131 0.960 . S
C2144 C2143 1.524 . S
C2145 C2142 1.403 . S
C2145 C2146 1.392 . S
C2145 C2149 1.495 . S
C2146 C2145 1.392 . S
C2146 C2147 1.385 . S
C2146 C2148 1.478 . S
C2147 H2141 0.930 . S
C2147 C2143 1.400 . S
C2147 C2146 1.385 . S
C2148 C2146 1.478 . S
C2148 C2150 1.381 . S
C2148 C2154 1.383 . S
C2149 C2145 1.495 . S
C2149 H2155 0.959 . S
C2149 H2156 0.961 . S
C2149 H2157 0.960 . S
C2150 C2148 1.381 . S
C2150 C2151 1.394 . S
C2150 H2158 0.930 . S
C2151 C2150 1.394 . S
C2151 C2152 1.383 . S
C2151 H2159 0.929 . S
C2152 C2151 1.383 . S
C2152 C2153 1.377 . S
C2153 H2137 0.930 . S
C2153 C2152 1.377 . S
C2153 C2154 1.379 . S
C2154 H2138 0.931 . S
C2154 C2148 1.383 . S
C2154 C2153 1.379 . S
H2155 C2149 0.959 . S
H2156 C2149 0.961 . S
H2157 C2149 0.960 . S
H2158 C2150 0.930 . S
H2159 C2151 0.929 . S
H2160 C2168 0.929 . S
H2161 C2170 0.930 . S
H2162 C2172 0.930 . S
H2163 C2175 0.929 . S
H2164 C2178 0.930 . S
H2165 C2180 0.960 . S
H2166 C2180 0.960 . S
H2167 C2180 0.960 . S
C2168 H2160 0.929 . S
C2168 C2169 1.377 . S
C2168 C2170 1.384 . S
C2169 C2168 1.377 . S
C2169 C2175 1.390 . S
C2170 H2161 0.930 . S
C2170 C2168 1.384 . S
C2170 C2171 1.372 . S
C2171 C2170 1.372 . S
C2171 C2172 1.400 . S
C2171 C2176 1.490 . S
C2172 H2162 0.930 . S
C2172 C2171 1.400 . S
C2172 C2175 1.386 . S
H2173 C2189 0.930 . S
H2174 C2190 0.931 . S
C2175 H2163 0.929 . S
C2175 C2169 1.390 . S
C2175 C2172 1.386 . S
C2176 C2171 1.490 . S
C2176 C2178 1.395 . S
C2176 C2179 1.403 . S
H2177 C2183 0.930 . S
C2178 H2164 0.930 . S
C2178 C2176 1.395 . S
C2178 C2181 1.403 . S
C2179 C2176 1.403 . S
C2179 C2180 1.524 . S
C2179 C2183 1.400 . S
C2180 H2165 0.960 . S
C2180 H2166 0.960 . S
C2180 H2167 0.960 . S
C2180 C2179 1.524 . S
C2181 C2178 1.403 . S
C2181 C2182 1.392 . S
C2181 C2185 1.495 . S
C2182 C2181 1.392 . S
C2182 C2183 1.385 . S
C2182 C2184 1.478 . S
C2183 H2177 0.930 . S
C2183 C2179 1.400 . S
C2183 C2182 1.385 . S
C2184 C2182 1.478 . S
C2184 C2186 1.381 . S
C2184 C2190 1.383 . S
C2185 C2181 1.495 . S
C2185 H2191 0.959 . S
C2185 H2192 0.961 . S
C2185 H2193 0.960 . S
C2186 C2184 1.381 . S
C2186 C2187 1.394 . S
C2186 H2194 0.930 . S
C2187 C2186 1.394 . S
C2187 C2188 1.383 . S
C2187 H2195 0.929 . S
C2188 C2187 1.383 . S
C2188 C2189 1.377 . S
C2189 H2173 0.930 . S
C2189 C2188 1.377 . S
C2189 C2190 1.379 . S
C2190 H2174 0.931 . S
C2190 C2184 1.383 . S
C2190 C2189 1.379 . S
H2191 C2185 0.959 . S
H2192 C2185 0.961 . S
H2193 C2185 0.960 . S
H2194 C2186 0.930 . S
H2195 C2187 0.929 . S
H2196 C2204 0.929 . S
H2197 C2206 0.930 . S
H2198 C2208 0.930 . S
H2199 C2211 0.929 . S
H2200 C2214 0.930 . S
H2201 C2216 0.960 . S
H2202 C2216 0.960 . S
H2203 C2216 0.960 . S
C2204 H2196 0.929 . S
C2204 C2205 1.377 . S
C2204 C2206 1.384 . S
C2205 C2204 1.377 . S
C2205 C2211 1.390 . S
C2206 H2197 0.930 . S
C2206 C2204 1.384 . S
C2206 C2207 1.372 . S
C2207 C2206 1.372 . S
C2207 C2208 1.400 . S
C2207 C2212 1.490 . S
C2208 H2198 0.930 . S
C2208 C2207 1.400 . S
C2208 C2211 1.386 . S
H2209 C2225 0.930 . S
H2210 C2226 0.931 . S
C2211 H2199 0.929 . S
C2211 C2205 1.390 . S
C2211 C2208 1.386 . S
C2212 C2207 1.490 . S
C2212 C2214 1.395 . S
C2212 C2215 1.403 . S
H2213 C2219 0.930 . S
C2214 H2200 0.930 . S
C2214 C2212 1.395 . S
C2214 C2217 1.403 . S
C2215 C2212 1.403 . S
C2215 C2216 1.524 . S
C2215 C2219 1.400 . S
C2216 H2201 0.960 . S
C2216 H2202 0.960 . S
C2216 H2203 0.960 . S
C2216 C2215 1.524 . S
C2217 C2214 1.403 . S
C2217 C2218 1.392 . S
C2217 C2221 1.495 . S
C2218 C2217 1.392 . S
C2218 C2219 1.385 . S
C2218 C2220 1.478 . S
C2219 H2213 0.930 . S
C2219 C2215 1.400 . S
C2219 C2218 1.385 . S
C2220 C2218 1.478 . S
C2220 C2222 1.381 . S
C2220 C2226 1.383 . S
C2221 C2217 1.495 . S
C2221 H2227 0.959 . S
C2221 H2228 0.961 . S
C2221 H2229 0.960 . S
C2222 C2220 1.381 . S
C2222 C2223 1.394 . S
C2222 H2230 0.930 . S
C2223 C2222 1.394 . S
C2223 C2224 1.383 . S
C2223 H2231 0.929 . S
C2224 C2223 1.383 . S
C2224 C2225 1.377 . S
C2225 H2209 0.930 . S
C2225 C2224 1.377 . S
C2225 C2226 1.379 . S
C2226 H2210 0.931 . S
C2226 C2220 1.383 . S
C2226 C2225 1.379 . S
H2227 C2221 0.959 . S
H2228 C2221 0.961 . S
H2229 C2221 0.960 . S
H2230 C2222 0.930 . S
H2231 C2223 0.929 . S
H2232 C2240 0.929 . S
H2233 C2242 0.930 . S
H2234 C2244 0.930 . S
H2235 C2247 0.929 . S
H2236 C2250 0.930 . S
H2237 C2252 0.960 . S
H2238 C2252 0.960 . S
H2239 C2252 0.960 . S
C2240 H2232 0.929 . S
C2240 C2241 1.377 . S
C2240 C2242 1.384 . S
C2241 C2240 1.377 . S
C2241 C2247 1.390 . S
C2242 H2233 0.930 . S
C2242 C2240 1.384 . S
C2242 C2243 1.372 . S
C2243 C2242 1.372 . S
C2243 C2244 1.400 . S
C2243 C2248 1.490 . S
C2244 H2234 0.930 . S
C2244 C2243 1.400 . S
C2244 C2247 1.386 . S
H2245 C2261 0.930 . S
H2246 C2262 0.931 . S
C2247 H2235 0.929 . S
C2247 C2241 1.390 . S
C2247 C2244 1.386 . S
C2248 C2243 1.490 . S
C2248 C2250 1.395 . S
C2248 C2251 1.403 . S
H2249 C2255 0.930 . S
C2250 H2236 0.930 . S
C2250 C2248 1.395 . S
C2250 C2253 1.403 . S
C2251 C2248 1.403 . S
C2251 C2252 1.524 . S
C2251 C2255 1.400 . S
C2252 H2237 0.960 . S
C2252 H2238 0.960 . S
C2252 H2239 0.960 . S
C2252 C2251 1.524 . S
C2253 C2250 1.403 . S
C2253 C2254 1.392 . S
C2253 C2257 1.495 . S
C2254 C2253 1.392 . S
C2254 C2255 1.385 . S
C2254 C2256 1.478 . S
C2255 H2249 0.930 . S
C2255 C2251 1.400 . S
C2255 C2254 1.385 . S
C2256 C2254 1.478 . S
C2256 C2258 1.381 . S
C2256 C2262 1.383 . S
C2257 C2253 1.495 . S
C2257 H2263 0.959 . S
C2257 H2264 0.961 . S
C2257 H2265 0.960 . S
C2258 C2256 1.381 . S
C2258 C2259 1.394 . S
C2258 H2266 0.930 . S
C2259 C2258 1.394 . S
C2259 C2260 1.383 . S
C2259 H2267 0.929 . S
C2260 C2259 1.383 . S
C2260 C2261 1.377 . S
C2261 H2245 0.930 . S
C2261 C2260 1.377 . S
C2261 C2262 1.379 . S
C2262 H2246 0.931 . S
C2262 C2256 1.383 . S
C2262 C2261 1.379 . S
H2263 C2257 0.959 . S
H2264 C2257 0.961 . S
H2265 C2257 0.960 . S
H2266 C2258 0.930 . S
H2267 C2259 0.929 . S
H2268 C2276 0.929 . S
H2269 C2278 0.930 . S
H2270 C2280 0.930 . S
H2271 C2283 0.929 . S
H2272 C2286 0.930 . S
H2273 C2288 0.960 . S
H2274 C2288 0.960 . S
H2275 C2288 0.960 . S
C2276 H2268 0.929 . S
C2276 C2277 1.377 . S
C2276 C2278 1.384 . S
C2277 C2276 1.377 . S
C2277 C2283 1.390 . S
C2278 H2269 0.930 . S
C2278 C2276 1.384 . S
C2278 C2279 1.372 . S
C2279 C2278 1.372 . S
C2279 C2280 1.400 . S
C2279 C2284 1.490 . S
C2280 H2270 0.930 . S
C2280 C2279 1.400 . S
C2280 C2283 1.386 . S
H2281 C2297 0.930 . S
H2282 C2298 0.931 . S
C2283 H2271 0.929 . S
C2283 C2277 1.390 . S
C2283 C2280 1.386 . S
C2284 C2279 1.490 . S
C2284 C2286 1.395 . S
C2284 C2287 1.403 . S
H2285 C2291 0.930 . S
C2286 H2272 0.930 . S
C2286 C2284 1.395 . S
C2286 C2289 1.403 . S
C2287 C2284 1.403 . S
C2287 C2288 1.524 . S
C2287 C2291 1.400 . S
C2288 H2273 0.960 . S
C2288 H2274 0.960 . S
C2288 H2275 0.960 . S
C2288 C2287 1.524 . S
C2289 C2286 1.403 . S
C2289 C2290 1.392 . S
C2289 C2293 1.495 . S
C2290 C2289 1.392 . S
C2290 C2291 1.385 . S
C2290 C2292 1.478 . S
C2291 H2285 0.930 . S
C2291 C2287 1.400 . S
C2291 C2290 1.385 . S
C2292 C2290 1.478 . S
C2292 C2294 1.381 . S
C2292 C2298 1.383 . S
C2293 C2289 1.495 . S
C2293 H2299 0.959 . S
C2293 H2300 0.961 . S
C2293 H2301 0.960 . S
C2294 C2292 1.381 . S
C2294 C2295 1.394 . S
C2294 H2302 0.930 . S
C2295 C2294 1.394 . S
C2295 C2296 1.383 . S
C2295 H2303 0.929 . S
C2296 C2295 1.383 . S
C2296 C2297 1.377 . S
C2297 H2281 0.930 . S
C2297 C2296 1.377 . S
C2297 C2298 1.379 . S
C2298 H2282 0.931 . S
C2298 C2292 1.383 . S
C2298 C2297 1.379 . S
H2299 C2293 0.959 . S
H2300 C2293 0.961 . S
H2301 C2293 0.960 . S
H2302 C2294 0.930 . S
H2303 C2295 0.929 . S
H2304 C2312 0.929 . S
H2305 C2314 0.930 . S
H2306 C2316 0.930 . S
H2307 C2319 0.929 . S
H2308 C2322 0.930 . S
H2309 C2324 0.960 . S
H2310 C2324 0.960 . S
H2311 C2324 0.960 . S
C2312 H2304 0.929 . S
C2312 C2313 1.377 . S
C2312 C2314 1.384 . S
C2313 C2312 1.377 . S
C2313 C2319 1.390 . S
C2314 H2305 0.930 . S
C2314 C2312 1.384 . S
C2314 C2315 1.372 . S
C2315 C2314 1.372 . S
C2315 C2316 1.400 . S
C2315 C2320 1.490 . S
C2316 H2306 0.930 . S
C2316 C2315 1.400 . S
C2316 C2319 1.386 . S
H2317 C2333 0.930 . S
H2318 C2334 0.931 . S
C2319 H2307 0.929 . S
C2319 C2313 1.390 . S
C2319 C2316 1.386 . S
C2320 C2315 1.490 . S
C2320 C2322 1.395 . S
C2320 C2323 1.403 . S
H2321 C2327 0.930 . S
C2322 H2308 0.930 . S
C2322 C2320 1.395 . S
C2322 C2325 1.403 . S
C2323 C2320 1.403 . S
C2323 C2324 1.524 . S
C2323 C2327 1.400 . S
C2324 H2309 0.960 . S
C2324 H2310 0.960 . S
C2324 H2311 0.960 . S
C2324 C2323 1.524 . S
C2325 C2322 1.403 . S
C2325 C2326 1.392 . S
C2325 C2329 1.495 . S
C2326 C2325 1.392 . S
C2326 C2327 1.385 . S
C2326 C2328 1.478 . S
C2327 H2321 0.930 . S
C2327 C2323 1.400 . S
C2327 C2326 1.385 . S
C2328 C2326 1.478 . S
C2328 C2330 1.381 . S
C2328 C2334 1.383 . S
C2329 C2325 1.495 . S
C2329 H2335 0.959 . S
C2329 H2336 0.961 . S
C2329 H2337 0.960 . S
C2330 C2328 1.381 . S
C2330 C2331 1.394 . S
C2330 H2338 0.930 . S
C2331 C2330 1.394 . S
C2331 C2332 1.383 . S
C2331 H2339 0.929 . S
C2332 C2331 1.383 . S
C2332 C2333 1.377 . S
C2333 H2317 0.930 . S
C2333 C2332 1.377 . S
C2333 C2334 1.379 . S
C2334 H2318 0.931 . S
C2334 C2328 1.383 . S
C2334 C2333 1.379 . S
H2335 C2329 0.959 . S
H2336 C2329 0.961 . S
H2337 C2329 0.960 . S
H2338 C2330 0.930 . S
H2339 C2331 0.929 . S
H2340 C2348 0.929 . S
H2341 C2350 0.930 . S
H2342 C2352 0.930 . S
H2343 C2355 0.929 . S
H2344 C2358 0.930 . S
H2345 C2360 0.960 . S
H2346 C2360 0.960 . S
H2347 C2360 0.960 . S
C2348 H2340 0.929 . S
C2348 C2349 1.377 . S
C2348 C2350 1.384 . S
C2349 C2348 1.377 . S
C2349 C2355 1.390 . S
C2350 H2341 0.930 . S
C2350 C2348 1.384 . S
C2350 C2351 1.372 . S
C2351 C2350 1.372 . S
C2351 C2352 1.400 . S
C2351 C2356 1.490 . S
C2352 H2342 0.930 . S
C2352 C2351 1.400 . S
C2352 C2355 1.386 . S
H2353 C2369 0.930 . S
H2354 C2370 0.931 . S
C2355 H2343 0.929 . S
C2355 C2349 1.390 . S
C2355 C2352 1.386 . S
C2356 C2351 1.490 . S
C2356 C2358 1.395 . S
C2356 C2359 1.403 . S
H2357 C2363 0.930 . S
C2358 H2344 0.930 . S
C2358 C2356 1.395 . S
C2358 C2361 1.403 . S
C2359 C2356 1.403 . S
C2359 C2360 1.524 . S
C2359 C2363 1.400 . S
C2360 H2345 0.960 . S
C2360 H2346 0.960 . S
C2360 H2347 0.960 . S
C2360 C2359 1.524 . S
C2361 C2358 1.403 . S
C2361 C2362 1.392 . S
C2361 C2365 1.495 . S
C2362 C2361 1.392 . S
C2362 C2363 1.385 . S
C2362 C2364 1.478 . S
C2363 H2357 0.930 . S
C2363 C2359 1.400 . S
C2363 C2362 1.385 . S
C2364 C2362 1.478 . S
C2364 C2366 1.381 . S
C2364 C2370 1.383 . S
C2365 C2361 1.495 . S
C2365 H2371 0.959 . S
C2365 H2372 0.961 . S
C2365 H2373 0.960 . S
C2366 C2364 1.381 . S
C2366 C2367 1.394 . S
C2366 H2374 0.930 . S
C2367 C2366 1.394 . S
C2367 C2368 1.383 . S
C2367 H2375 0.929 . S
C2368 C2367 1.383 . S
C2368 C2369 1.377 . S
C2369 H2353 0.930 . S
C2369 C2368 1.377 . S
C2369 C2370 1.379 . S
C2370 H2354 0.931 . S
C2370 C2364 1.383 . S
C2370 C2369 1.379 . S
H2371 C2365 0.959 . S
H2372 C2365 0.961 . S
H2373 C2365 0.960 . S
H2374 C2366 0.930 . S
H2375 C2367 0.929 . S
H2376 C2384 0.929 . S
H2377 C2386 0.930 . S
H2378 C2388 0.930 . S
H2379 C2391 0.929 1_554 S
H2380 C2394 0.930 . S
H2381 C2396 0.960 . S
H2382 C2396 0.960 . S
H2383 C2396 0.960 . S
C2384 H2376 0.929 . S
C2384 C2385 1.377 . S
C2384 C2386 1.384 . S
C2385 C2384 1.377 . S
C2385 C2391 1.390 . S
C2386 H2377 0.930 . S
C2386 C2384 1.384 . S
C2386 C2387 1.372 . S
C2387 C2386 1.372 . S
C2387 C2388 1.400 . S
C2387 C2392 1.490 . S
C2388 H2378 0.930 . S
C2388 C2387 1.400 . S
C2388 C2391 1.386 . S
H2389 C2405 0.930 . S
H2390 C2406 0.931 . S
C2391 H2379 0.929 1_556 S
C2391 C2385 1.390 . S
C2391 C2388 1.386 . S
C2392 C2387 1.490 . S
C2392 C2394 1.395 . S
C2392 C2395 1.403 . S
H2393 C2399 0.930 . S
C2394 H2380 0.930 . S
C2394 C2392 1.395 . S
C2394 C2397 1.403 . S
C2395 C2392 1.403 . S
C2395 C2396 1.524 . S
C2395 C2399 1.400 . S
C2396 H2381 0.960 . S
C2396 H2382 0.960 . S
C2396 H2383 0.960 . S
C2396 C2395 1.524 . S
C2397 C2394 1.403 . S
C2397 C2398 1.392 . S
C2397 C2401 1.495 . S
C2398 C2397 1.392 . S
C2398 C2399 1.385 . S
C2398 C2400 1.478 . S
C2399 H2393 0.930 . S
C2399 C2395 1.400 . S
C2399 C2398 1.385 . S
C2400 C2398 1.478 . S
C2400 C2402 1.381 . S
C2400 C2406 1.383 . S
C2401 C2397 1.495 . S
C2401 H2407 0.959 . S
C2401 H2408 0.961 . S
C2401 H2409 0.960 . S
C2402 C2400 1.381 . S
C2402 C2403 1.394 . S
C2402 H2410 0.930 . S
C2403 C2402 1.394 . S
C2403 C2404 1.383 . S
C2403 H2411 0.929 . S
C2404 C2403 1.383 . S
C2404 C2405 1.377 . S
C2405 H2389 0.930 . S
C2405 C2404 1.377 . S
C2405 C2406 1.379 . S
C2406 H2390 0.931 . S
C2406 C2400 1.383 . S
C2406 C2405 1.379 . S
H2407 C2401 0.959 . S
H2408 C2401 0.961 . S
H2409 C2401 0.960 . S
H2410 C2402 0.930 . S
H2411 C2403 0.929 . S
H2412 C2420 0.929 1_554 S
H2413 C2422 0.930 . S
H2414 C2424 0.930 . S
H2415 C2427 0.929 . S
H2416 C2430 0.930 . S
H2417 C2432 0.960 . S
H2418 C2432 0.960 . S
H2419 C2432 0.960 . S
C2420 H2412 0.929 1_556 S
C2420 C2421 1.377 . S
C2420 C2422 1.384 . S
C2421 C2420 1.377 . S
C2421 C2427 1.390 . S
C2422 H2413 0.930 . S
C2422 C2420 1.384 . S
C2422 C2423 1.372 . S
C2423 C2422 1.372 . S
C2423 C2424 1.400 . S
C2423 C2428 1.490 . S
C2424 H2414 0.930 . S
C2424 C2423 1.400 . S
C2424 C2427 1.386 . S
H2425 C2441 0.930 . S
H2426 C2442 0.931 . S
C2427 H2415 0.929 . S
C2427 C2421 1.390 . S
C2427 C2424 1.386 . S
C2428 C2423 1.490 . S
C2428 C2430 1.395 . S
C2428 C2431 1.403 . S
H2429 C2435 0.930 . S
C2430 H2416 0.930 . S
C2430 C2428 1.395 . S
C2430 C2433 1.403 . S
C2431 C2428 1.403 . S
C2431 C2432 1.524 . S
C2431 C2435 1.400 . S
C2432 H2417 0.960 . S
C2432 H2418 0.960 . S
C2432 H2419 0.960 . S
C2432 C2431 1.524 . S
C2433 C2430 1.403 . S
C2433 C2434 1.392 . S
C2433 C2437 1.495 . S
C2434 C2433 1.392 . S
C2434 C2435 1.385 . S
C2434 C2436 1.478 . S
C2435 H2429 0.930 . S
C2435 C2431 1.400 . S
C2435 C2434 1.385 . S
C2436 C2434 1.478 . S
C2436 C2438 1.381 . S
C2436 C2442 1.383 . S
C2437 C2433 1.495 . S
C2437 H2443 0.959 . S
C2437 H2444 0.961 . S
C2437 H2445 0.960 . S
C2438 C2436 1.381 . S
C2438 C2439 1.394 . S
C2438 H2446 0.930 . S
C2439 C2438 1.394 . S
C2439 C2440 1.383 . S
C2439 H2447 0.929 . S
C2440 C2439 1.383 . S
C2440 C2441 1.377 . S
C2441 H2425 0.930 . S
C2441 C2440 1.377 . S
C2441 C2442 1.379 . S
C2442 H2426 0.931 . S
C2442 C2436 1.383 . S
C2442 C2441 1.379 . S
H2443 C2437 0.959 . S
H2444 C2437 0.961 . S
H2445 C2437 0.960 . S
H2446 C2438 0.930 . S
H2447 C2439 0.929 . S
H2448 C2456 0.948 . S
H2449 C2458 0.930 . S
H2450 C2460 0.930 . S
H2451 C2463 0.929 . S
H2452 C2466 0.930 . S
H2453 C2468 0.960 . S
H2454 C2468 0.960 . S
H2455 C2468 0.960 . S
C2456 H2448 0.948 . S
C2456 C2457 1.377 . S
C2456 C2458 1.384 . S
C2457 C2456 1.377 . S
C2457 C2463 1.390 . S
C2458 H2449 0.930 . S
C2458 C2456 1.384 . S
C2458 C2459 1.372 . S
C2459 C2458 1.372 . S
C2459 C2460 1.400 . S
C2459 C2464 1.490 . S
C2460 H2450 0.930 . S
C2460 C2459 1.400 . S
C2460 C2463 1.386 . S
H2461 C2477 0.930 . S
H2462 C2478 0.931 . S
C2463 H2451 0.929 . S
C2463 C2457 1.390 . S
C2463 C2460 1.386 . S
C2464 C2459 1.490 . S
C2464 C2466 1.395 . S
C2464 C2467 1.403 . S
H2465 C2471 0.930 . S
C2466 H2452 0.930 . S
C2466 C2464 1.395 . S
C2466 C2469 1.403 . S
C2467 C2464 1.403 . S
C2467 C2468 1.524 . S
C2467 C2471 1.400 . S
C2468 H2453 0.960 . S
C2468 H2454 0.960 . S
C2468 H2455 0.960 . S
C2468 C2467 1.524 . S
C2469 C2466 1.403 . S
C2469 C2470 1.392 . S
C2469 C2473 1.495 . S
C2470 C2469 1.392 . S
C2470 C2471 1.385 . S
C2470 C2472 1.478 . S
C2471 H2465 0.930 . S
C2471 C2467 1.400 . S
C2471 C2470 1.385 . S
C2472 C2470 1.478 . S
C2472 C2474 1.381 . S
C2472 C2478 1.383 . S
C2473 C2469 1.495 . S
C2473 H2479 0.959 . S
C2473 H2480 0.961 . S
C2473 H2481 0.960 . S
C2474 C2472 1.381 . S
C2474 C2475 1.394 . S
C2474 H2482 0.930 . S
C2475 C2474 1.394 . S
C2475 C2476 1.383 . S
C2475 H2483 0.929 . S
C2476 C2475 1.383 . S
C2476 C2477 1.377 . S
C2477 H2461 0.930 . S
C2477 C2476 1.377 . S
C2477 C2478 1.379 . S
C2478 H2462 0.931 . S
C2478 C2472 1.383 . S
C2478 C2477 1.379 . S
H2479 C2473 0.959 . S
H2480 C2473 0.961 . S
H2481 C2473 0.960 . S
H2482 C2474 0.930 . S
H2483 C2475 0.929 . S
H2484 C2492 0.929 1_554 S
H2485 C2494 0.930 . S
H2486 C2496 0.930 . S
H2487 C2499 0.929 . S
H2488 C2502 0.930 . S
H2489 C2504 0.960 . S
H2490 C2504 0.960 . S
H2491 C2504 0.960 . S
C2492 H2484 0.929 1_556 S
C2492 C2493 1.377 . S
C2492 C2494 1.384 . S
C2493 C2492 1.377 . S
C2493 C2499 1.390 . S
C2494 H2485 0.930 . S
C2494 C2492 1.384 . S
C2494 C2495 1.372 . S
C2495 C2494 1.372 . S
C2495 C2496 1.400 . S
C2495 C2500 1.490 . S
C2496 H2486 0.930 . S
C2496 C2495 1.400 . S
C2496 C2499 1.386 . S
H2497 C2513 0.930 . S
H2498 C2514 0.931 . S
C2499 H2487 0.929 . S
C2499 C2493 1.390 . S
C2499 C2496 1.386 . S
C2500 C2495 1.490 . S
C2500 C2502 1.395 . S
C2500 C2503 1.403 . S
H2501 C2507 0.930 . S
C2502 H2488 0.930 . S
C2502 C2500 1.395 . S
C2502 C2505 1.403 . S
C2503 C2500 1.403 . S
C2503 C2504 1.524 . S
C2503 C2507 1.400 . S
C2504 H2489 0.960 . S
C2504 H2490 0.960 . S
C2504 H2491 0.960 . S
C2504 C2503 1.524 . S
C2505 C2502 1.403 . S
C2505 C2506 1.392 . S
C2505 C2509 1.495 . S
C2506 C2505 1.392 . S
C2506 C2507 1.385 . S
C2506 C2508 1.478 . S
C2507 H2501 0.930 . S
C2507 C2503 1.400 . S
C2507 C2506 1.385 . S
C2508 C2506 1.478 . S
C2508 C2510 1.381 . S
C2508 C2514 1.383 . S
C2509 C2505 1.495 . S
C2509 H2515 0.959 . S
C2509 H2516 0.961 . S
C2509 H2517 0.960 . S
C2510 C2508 1.381 . S
C2510 C2511 1.394 . S
C2510 H2518 0.930 . S
C2511 C2510 1.394 . S
C2511 C2512 1.383 . S
C2511 H2519 0.929 . S
C2512 C2511 1.383 . S
C2512 C2513 1.377 . S
C2513 H2497 0.930 . S
C2513 C2512 1.377 . S
C2513 C2514 1.379 . S
C2514 H2498 0.931 . S
C2514 C2508 1.383 . S
C2514 C2513 1.379 . S
H2515 C2509 0.959 . S
H2516 C2509 0.961 . S
H2517 C2509 0.960 . S
H2518 C2510 0.930 . S
H2519 C2511 0.929 . S
H2520 C2528 0.929 . S
H2521 C2530 0.930 . S
H2522 C2532 0.930 . S
H2523 C2535 0.929 1_554 S
H2524 C2538 0.930 . S
H2525 C2540 0.960 . S
H2526 C2540 0.960 . S
H2527 C2540 0.960 . S
C2528 H2520 0.929 . S
C2528 C2529 1.377 . S
C2528 C2530 1.384 . S
C2529 C2528 1.377 . S
C2529 C2535 1.390 . S
C2530 H2521 0.930 . S
C2530 C2528 1.384 . S
C2530 C2531 1.372 . S
C2531 C2530 1.372 . S
C2531 C2532 1.400 . S
C2531 C2536 1.490 . S
C2532 H2522 0.930 . S
C2532 C2531 1.400 . S
C2532 C2535 1.386 . S
H2533 C2549 0.930 . S
H2534 C2550 0.931 . S
C2535 H2523 0.929 1_556 S
C2535 C2529 1.390 . S
C2535 C2532 1.386 . S
C2536 C2531 1.490 . S
C2536 C2538 1.395 . S
C2536 C2539 1.403 . S
H2537 C2543 0.930 . S
C2538 H2524 0.930 . S
C2538 C2536 1.395 . S
C2538 C2541 1.403 . S
C2539 C2536 1.403 . S
C2539 C2540 1.524 . S
C2539 C2543 1.400 . S
C2540 H2525 0.960 . S
C2540 H2526 0.960 . S
C2540 H2527 0.960 . S
C2540 C2539 1.524 . S
C2541 C2538 1.403 . S
C2541 C2542 1.392 . S
C2541 C2545 1.495 . S
C2542 C2541 1.392 . S
C2542 C2543 1.385 . S
C2542 C2544 1.478 . S
C2543 H2537 0.930 . S
C2543 C2539 1.400 . S
C2543 C2542 1.385 . S
C2544 C2542 1.478 . S
C2544 C2546 1.381 . S
C2544 C2550 1.383 . S
C2545 C2541 1.495 . S
C2545 H2551 0.959 . S
C2545 H2552 0.961 . S
C2545 H2553 0.960 . S
C2546 C2544 1.381 . S
C2546 C2547 1.394 . S
C2546 H2554 0.930 . S
C2547 C2546 1.394 . S
C2547 C2548 1.383 . S
C2547 H2555 0.929 . S
C2548 C2547 1.383 . S
C2548 C2549 1.377 . S
C2549 H2533 0.930 . S
C2549 C2548 1.377 . S
C2549 C2550 1.379 . S
C2550 H2534 0.931 . S
C2550 C2544 1.383 . S
C2550 C2549 1.379 . S
H2551 C2545 0.959 . S
H2552 C2545 0.961 . S
H2553 C2545 0.960 . S
H2554 C2546 0.930 . S
H2555 C2547 0.929 . S
H2556 C2564 0.929 1_554 S
H2557 C2566 0.930 . S
H2558 C2568 0.930 . S
H2559 C2571 0.929 . S
H2560 C2574 0.930 . S
H2561 C2576 0.960 . S
H2562 C2576 0.960 . S
H2563 C2576 0.960 . S
C2564 H2556 0.929 1_556 S
C2564 C2565 1.377 . S
C2564 C2566 1.384 . S
C2565 C2564 1.377 . S
C2565 C2571 1.390 . S
C2566 H2557 0.930 . S
C2566 C2564 1.384 . S
C2566 C2567 1.372 . S
C2567 C2566 1.372 . S
C2567 C2568 1.400 . S
C2567 C2572 1.490 . S
C2568 H2558 0.930 . S
C2568 C2567 1.400 . S
C2568 C2571 1.386 . S
H2569 C2585 0.930 . S
H2570 C2586 0.931 . S
C2571 H2559 0.929 . S
C2571 C2565 1.390 . S
C2571 C2568 1.386 . S
C2572 C2567 1.490 . S
C2572 C2574 1.395 . S
C2572 C2575 1.403 . S
H2573 C2579 0.930 . S
C2574 H2560 0.930 . S
C2574 C2572 1.395 . S
C2574 C2577 1.403 . S
C2575 C2572 1.403 . S
C2575 C2576 1.524 . S
C2575 C2579 1.400 . S
C2576 H2561 0.960 . S
C2576 H2562 0.960 . S
C2576 H2563 0.960 . S
C2576 C2575 1.524 . S
C2577 C2574 1.403 . S
C2577 C2578 1.392 . S
C2577 C2581 1.495 . S
C2578 C2577 1.392 . S
C2578 C2579 1.385 . S
C2578 C2580 1.478 . S
C2579 H2573 0.930 . S
C2579 C2575 1.400 . S
C2579 C2578 1.385 . S
C2580 C2578 1.478 . S
C2580 C2582 1.381 . S
C2580 C2586 1.383 . S
C2581 C2577 1.495 . S
C2581 H2587 0.959 . S
C2581 H2588 0.961 . S
C2581 H2589 0.960 . S
C2582 C2580 1.381 . S
C2582 C2583 1.394 . S
C2582 H2590 0.930 . S
C2583 C2582 1.394 . S
C2583 C2584 1.383 . S
C2583 H2591 0.929 . S
C2584 C2583 1.383 . S
C2584 C2585 1.377 . S
C2585 H2569 0.930 . S
C2585 C2584 1.377 . S
C2585 C2586 1.379 . S
C2586 H2570 0.931 . S
C2586 C2580 1.383 . S
C2586 C2585 1.379 . S
H2587 C2581 0.959 . S
H2588 C2581 0.961 . S
H2589 C2581 0.960 . S
H2590 C2582 0.930 . S
H2591 C2583 0.929 . S
H2592 C2600 0.929 . S
H2593 C2602 0.930 . S
H2594 C2604 0.930 . S
H2595 C2607 0.929 . S
H2596 C2610 0.930 . S
H2597 C2612 0.960 . S
H2598 C2612 0.960 . S
H2599 C2612 0.960 . S
C2600 H2592 0.929 . S
C2600 C2601 1.377 . S
C2600 C2602 1.384 . S
C2601 C2600 1.377 . S
C2601 C2607 1.390 . S
C2602 H2593 0.930 . S
C2602 C2600 1.384 . S
C2602 C2603 1.372 . S
C2603 C2602 1.372 . S
C2603 C2604 1.400 . S
C2603 C2608 1.490 . S
C2604 H2594 0.930 . S
C2604 C2603 1.400 . S
C2604 C2607 1.386 . S
H2605 C2621 0.930 . S
H2606 C2622 0.931 . S
C2607 H2595 0.929 . S
C2607 C2601 1.390 . S
C2607 C2604 1.386 . S
C2608 C2603 1.490 . S
C2608 C2610 1.395 . S
C2608 C2611 1.403 . S
H2609 C2615 0.930 . S
C2610 H2596 0.930 . S
C2610 C2608 1.395 . S
C2610 C2613 1.403 . S
C2611 C2608 1.403 . S
C2611 C2612 1.524 . S
C2611 C2615 1.400 . S
C2612 H2597 0.960 . S
C2612 H2598 0.960 . S
C2612 H2599 0.960 . S
C2612 C2611 1.524 . S
C2613 C2610 1.403 . S
C2613 C2614 1.392 . S
C2613 C2617 1.495 . S
C2614 C2613 1.392 . S
C2614 C2615 1.385 . S
C2614 C2616 1.478 . S
C2615 H2609 0.930 . S
C2615 C2611 1.400 . S
C2615 C2614 1.385 . S
C2616 C2614 1.478 . S
C2616 C2618 1.381 . S
C2616 C2622 1.383 . S
C2617 C2613 1.495 . S
C2617 H2623 0.959 . S
C2617 H2624 0.961 . S
C2617 H2625 0.960 . S
C2618 C2616 1.381 . S
C2618 C2619 1.394 . S
C2618 H2626 0.930 . S
C2619 C2618 1.394 . S
C2619 C2620 1.383 . S
C2619 H2627 0.929 . S
C2620 C2619 1.383 . S
C2620 C2621 1.377 . S
C2621 H2605 0.930 . S
C2621 C2620 1.377 . S
C2621 C2622 1.379 . S
C2622 H2606 0.931 . S
C2622 C2616 1.383 . S
C2622 C2621 1.379 . S
H2623 C2617 0.959 . S
H2624 C2617 0.961 . S
H2625 C2617 0.960 . S
H2626 C2618 0.930 . S
H2627 C2619 0.929 . S
H2628 C2636 0.929 . S
H2629 C2638 0.930 . S
H2630 C2640 0.930 . S
H2631 C2643 0.929 . S
H2632 C2646 0.930 . S
H2633 C2648 0.960 . S
H2634 C2648 0.960 . S
H2635 C2648 0.960 . S
C2636 H2628 0.929 . S
C2636 C2637 1.377 . S
C2636 C2638 1.384 . S
C2637 C2636 1.377 . S
C2637 C2643 1.390 . S
C2638 H2629 0.930 . S
C2638 C2636 1.384 . S
C2638 C2639 1.372 . S
C2639 C2638 1.372 . S
C2639 C2640 1.400 . S
C2639 C2644 1.490 . S
C2640 H2630 0.930 . S
C2640 C2639 1.400 . S
C2640 C2643 1.386 . S
H2641 C2657 0.930 . S
H2642 C2658 0.931 . S
C2643 H2631 0.929 . S
C2643 C2637 1.390 . S
C2643 C2640 1.386 . S
C2644 C2639 1.490 . S
C2644 C2646 1.395 . S
C2644 C2647 1.403 . S
H2645 C2651 0.930 . S
C2646 H2632 0.930 . S
C2646 C2644 1.395 . S
C2646 C2649 1.403 . S
C2647 C2644 1.403 . S
C2647 C2648 1.524 . S
C2647 C2651 1.400 . S
C2648 H2633 0.960 . S
C2648 H2634 0.960 . S
C2648 H2635 0.960 . S
C2648 C2647 1.524 . S
C2649 C2646 1.403 . S
C2649 C2650 1.392 . S
C2649 C2653 1.495 . S
C2650 C2649 1.392 . S
C2650 C2651 1.385 . S
C2650 C2652 1.478 . S
C2651 H2645 0.930 . S
C2651 C2647 1.400 . S
C2651 C2650 1.385 . S
C2652 C2650 1.478 . S
C2652 C2654 1.381 . S
C2652 C2658 1.383 . S
C2653 C2649 1.495 . S
C2653 H2659 0.959 . S
C2653 H2660 0.961 . S
C2653 H2661 0.960 . S
C2654 C2652 1.381 . S
C2654 C2655 1.394 . S
C2654 H2662 0.930 . S
C2655 C2654 1.394 . S
C2655 C2656 1.383 . S
C2655 H2663 0.929 . S
C2656 C2655 1.383 . S
C2656 C2657 1.377 . S
C2657 H2641 0.930 . S
C2657 C2656 1.377 . S
C2657 C2658 1.379 . S
C2658 H2642 0.931 . S
C2658 C2652 1.383 . S
C2658 C2657 1.379 . S
H2659 C2653 0.959 . S
H2660 C2653 0.961 . S
H2661 C2653 0.960 . S
H2662 C2654 0.930 . S
H2663 C2655 0.929 . S
H2664 C2672 0.929 . S
H2665 C2674 0.930 . S
H2666 C2676 0.930 . S
H2667 C2679 0.929 . S
H2668 C2682 0.930 . S
H2669 C2684 0.960 . S
H2670 C2684 0.960 . S
H2671 C2684 0.960 . S
C2672 H2664 0.929 . S
C2672 C2673 1.377 . S
C2672 C2674 1.384 . S
C2673 C2672 1.377 . S
C2673 C2679 1.390 . S
C2674 H2665 0.930 . S
C2674 C2672 1.384 . S
C2674 C2675 1.372 . S
C2675 C2674 1.372 . S
C2675 C2676 1.400 . S
C2675 C2680 1.490 . S
C2676 H2666 0.930 . S
C2676 C2675 1.400 . S
C2676 C2679 1.386 . S
H2677 C2693 0.930 . S
H2678 C2694 0.931 . S
C2679 H2667 0.929 . S
C2679 C2673 1.390 . S
C2679 C2676 1.386 . S
C2680 C2675 1.490 . S
C2680 C2682 1.395 . S
C2680 C2683 1.403 . S
H2681 C2687 0.930 . S
C2682 H2668 0.930 . S
C2682 C2680 1.395 . S
C2682 C2685 1.403 . S
C2683 C2680 1.403 . S
C2683 C2684 1.524 . S
C2683 C2687 1.400 . S
C2684 H2669 0.960 . S
C2684 H2670 0.960 . S
C2684 H2671 0.960 . S
C2684 C2683 1.524 . S
C2685 C2682 1.403 . S
C2685 C2686 1.392 . S
C2685 C2689 1.495 . S
C2686 C2685 1.392 . S
C2686 C2687 1.385 . S
C2686 C2688 1.478 . S
C2687 H2681 0.930 . S
C2687 C2683 1.400 . S
C2687 C2686 1.385 . S
C2688 C2686 1.478 . S
C2688 C2690 1.381 . S
C2688 C2694 1.383 . S
C2689 C2685 1.495 . S
C2689 H2695 0.959 . S
C2689 H2696 0.961 . S
C2689 H2697 0.960 . S
C2690 C2688 1.381 . S
C2690 C2691 1.394 . S
C2690 H2698 0.930 . S
C2691 C2690 1.394 . S
C2691 C2692 1.383 . S
C2691 H2699 0.929 . S
C2692 C2691 1.383 . S
C2692 C2693 1.377 . S
C2693 H2677 0.930 . S
C2693 C2692 1.377 . S
C2693 C2694 1.379 . S
C2694 H2678 0.931 . S
C2694 C2688 1.383 . S
C2694 C2693 1.379 . S
H2695 C2689 0.959 . S
H2696 C2689 0.961 . S
H2697 C2689 0.960 . S
H2698 C2690 0.930 . S
H2699 C2691 0.929 . S
H2700 C2708 0.929 . S
H2701 C2710 0.930 . S
H2702 C2712 0.930 . S
H2703 C2715 0.929 . S
H2704 C2718 0.930 . S
H2705 C2720 0.960 . S
H2706 C2720 0.960 . S
H2707 C2720 0.960 . S
C2708 H2700 0.929 . S
C2708 C2709 1.377 . S
C2708 C2710 1.384 . S
C2709 C2708 1.377 . S
C2709 C2715 1.390 . S
C2710 H2701 0.930 . S
C2710 C2708 1.384 . S
C2710 C2711 1.372 . S
C2711 C2710 1.372 . S
C2711 C2712 1.400 . S
C2711 C2716 1.490 . S
C2712 H2702 0.930 . S
C2712 C2711 1.400 . S
C2712 C2715 1.386 . S
H2713 C2729 0.930 . S
H2714 C2730 0.931 . S
C2715 H2703 0.929 . S
C2715 C2709 1.390 . S
C2715 C2712 1.386 . S
C2716 C2711 1.490 . S
C2716 C2718 1.395 . S
C2716 C2719 1.403 . S
H2717 C2723 0.930 . S
C2718 H2704 0.930 . S
C2718 C2716 1.395 . S
C2718 C2721 1.403 . S
C2719 C2716 1.403 . S
C2719 C2720 1.524 . S
C2719 C2723 1.400 . S
C2720 H2705 0.960 . S
C2720 H2706 0.960 . S
C2720 H2707 0.960 . S
C2720 C2719 1.524 . S
C2721 C2718 1.403 . S
C2721 C2722 1.392 . S
C2721 C2725 1.495 . S
C2722 C2721 1.392 . S
C2722 C2723 1.385 . S
C2722 C2724 1.478 . S
C2723 H2717 0.930 . S
C2723 C2719 1.400 . S
C2723 C2722 1.385 . S
C2724 C2722 1.478 . S
C2724 C2726 1.381 . S
C2724 C2730 1.383 . S
C2725 C2721 1.495 . S
C2725 H2731 0.959 . S
C2725 H2732 0.961 . S
C2725 H2733 0.960 . S
C2726 C2724 1.381 . S
C2726 C2727 1.394 . S
C2726 H2734 0.930 . S
C2727 C2726 1.394 . S
C2727 C2728 1.383 . S
C2727 H2735 0.929 . S
C2728 C2727 1.383 . S
C2728 C2729 1.377 . S
C2729 H2713 0.930 . S
C2729 C2728 1.377 . S
C2729 C2730 1.379 . S
C2730 H2714 0.931 . S
C2730 C2724 1.383 . S
C2730 C2729 1.379 . S
H2731 C2725 0.959 . S
H2732 C2725 0.961 . S
H2733 C2725 0.960 . S
H2734 C2726 0.930 . S
H2735 C2727 0.929 . S
H2736 C2744 0.929 . S
H2737 C2746 0.930 . S
H2738 C2748 0.930 . S
H2739 C2751 0.929 . S
H2740 C2754 0.930 . S
H2741 C2756 0.960 . S
H2742 C2756 0.960 . S
H2743 C2756 0.960 . S
C2744 H2736 0.929 . S
C2744 C2745 1.377 . S
C2744 C2746 1.384 . S
C2745 C2744 1.377 . S
C2745 C2751 1.390 . S
C2746 H2737 0.930 . S
C2746 C2744 1.384 . S
C2746 C2747 1.372 . S
C2747 C2746 1.372 . S
C2747 C2748 1.400 . S
C2747 C2752 1.490 . S
C2748 H2738 0.930 . S
C2748 C2747 1.400 . S
C2748 C2751 1.386 . S
H2749 C2765 0.930 . S
H2750 C2766 0.931 . S
C2751 H2739 0.929 . S
C2751 C2745 1.390 . S
C2751 C2748 1.386 . S
C2752 C2747 1.490 . S
C2752 C2754 1.395 . S
C2752 C2755 1.403 . S
H2753 C2759 0.930 . S
C2754 H2740 0.930 . S
C2754 C2752 1.395 . S
C2754 C2757 1.403 . S
C2755 C2752 1.403 . S
C2755 C2756 1.524 . S
C2755 C2759 1.400 . S
C2756 H2741 0.960 . S
C2756 H2742 0.960 . S
C2756 H2743 0.960 . S
C2756 C2755 1.524 . S
C2757 C2754 1.403 . S
C2757 C2758 1.392 . S
C2757 C2761 1.495 . S
C2758 C2757 1.392 . S
C2758 C2759 1.385 . S
C2758 C2760 1.478 . S
C2759 H2753 0.930 . S
C2759 C2755 1.400 . S
C2759 C2758 1.385 . S
C2760 C2758 1.478 . S
C2760 C2762 1.381 . S
C2760 C2766 1.383 . S
C2761 C2757 1.495 . S
C2761 H2767 0.959 . S
C2761 H2768 0.961 . S
C2761 H2769 0.960 . S
C2762 C2760 1.381 . S
C2762 C2763 1.394 . S
C2762 H2770 0.930 . S
C2763 C2762 1.394 . S
C2763 C2764 1.383 . S
C2763 H2771 0.929 . S
C2764 C2763 1.383 . S
C2764 C2765 1.377 . S
C2765 H2749 0.930 . S
C2765 C2764 1.377 . S
C2765 C2766 1.379 . S
C2766 H2750 0.931 . S
C2766 C2760 1.383 . S
C2766 C2765 1.379 . S
H2767 C2761 0.959 . S
H2768 C2761 0.961 . S
H2769 C2761 0.960 . S
H2770 C2762 0.930 . S
H2771 C2763 0.929 . S
H2772 C2780 0.929 . S
H2773 C2782 0.930 . S
H2774 C2784 0.930 . S
H2775 C2787 0.929 . S
H2776 C2790 0.930 . S
H2777 C2792 0.960 . S
H2778 C2792 0.960 . S
H2779 C2792 0.960 . S
C2780 H2772 0.929 . S
C2780 C2781 1.377 . S
C2780 C2782 1.384 . S
C2781 C2780 1.377 . S
C2781 C2787 1.390 . S
C2782 H2773 0.930 . S
C2782 C2780 1.384 . S
C2782 C2783 1.372 . S
C2783 C2782 1.372 . S
C2783 C2784 1.400 . S
C2783 C2788 1.490 . S
C2784 H2774 0.930 . S
C2784 C2783 1.400 . S
C2784 C2787 1.386 . S
H2785 C2801 0.930 . S
H2786 C2802 0.931 . S
C2787 H2775 0.929 . S
C2787 C2781 1.390 . S
C2787 C2784 1.386 . S
C2788 C2783 1.490 . S
C2788 C2790 1.395 . S
C2788 C2791 1.403 . S
H2789 C2795 0.930 . S
C2790 H2776 0.930 . S
C2790 C2788 1.395 . S
C2790 C2793 1.403 . S
C2791 C2788 1.403 . S
C2791 C2792 1.524 . S
C2791 C2795 1.400 . S
C2792 H2777 0.960 . S
C2792 H2778 0.960 . S
C2792 H2779 0.960 . S
C2792 C2791 1.524 . S
C2793 C2790 1.403 . S
C2793 C2794 1.392 . S
C2793 C2797 1.495 . S
C2794 C2793 1.392 . S
C2794 C2795 1.385 . S
C2794 C2796 1.478 . S
C2795 H2789 0.930 . S
C2795 C2791 1.400 . S
C2795 C2794 1.385 . S
C2796 C2794 1.478 . S
C2796 C2798 1.381 . S
C2796 C2802 1.383 . S
C2797 C2793 1.495 . S
C2797 H2803 0.959 . S
C2797 H2804 0.961 . S
C2797 H2805 0.960 . S
C2798 C2796 1.381 . S
C2798 C2799 1.394 . S
C2798 H2806 0.930 . S
C2799 C2798 1.394 . S
C2799 C2800 1.383 . S
C2799 H2807 0.929 . S
C2800 C2799 1.383 . S
C2800 C2801 1.377 . S
C2801 H2785 0.930 . S
C2801 C2800 1.377 . S
C2801 C2802 1.379 . S
C2802 H2786 0.931 . S
C2802 C2796 1.383 . S
C2802 C2801 1.379 . S
H2803 C2797 0.959 . S
H2804 C2797 0.961 . S
H2805 C2797 0.960 . S
H2806 C2798 0.930 . S
H2807 C2799 0.929 . S
H2808 C2816 0.929 . S
H2809 C2818 0.930 . S
H2810 C2820 0.930 . S
H2811 C2823 0.929 . S
H2812 C2826 0.930 . S
H2813 C2828 0.960 . S
H2814 C2828 0.960 . S
H2815 C2828 0.960 . S
C2816 H2808 0.929 . S
C2816 C2817 1.377 . S
C2816 C2818 1.384 . S
C2817 C2816 1.377 . S
C2817 C2823 1.390 . S
C2818 H2809 0.930 . S
C2818 C2816 1.384 . S
C2818 C2819 1.372 . S
C2819 C2818 1.372 . S
C2819 C2820 1.400 . S
C2819 C2824 1.490 . S
C2820 H2810 0.930 . S
C2820 C2819 1.400 . S
C2820 C2823 1.386 . S
H2821 C2837 0.930 . S
H2822 C2838 0.931 . S
C2823 H2811 0.929 . S
C2823 C2817 1.390 . S
C2823 C2820 1.386 . S
C2824 C2819 1.490 . S
C2824 C2826 1.395 1_455 S
C2824 C2827 1.403 . S
H2825 C2831 0.930 . S
C2826 H2812 0.930 . S
C2826 C2824 1.395 1_655 S
C2826 C2829 1.403 . S
C2827 C2824 1.403 . S
C2827 C2828 1.524 . S
C2827 C2831 1.400 . S
C2828 H2813 0.960 . S
C2828 H2814 0.960 . S
C2828 H2815 0.960 . S
C2828 C2827 1.524 . S
C2829 C2826 1.403 . S
C2829 C2830 1.392 1_655 S
C2829 C2833 1.495 . S
C2830 C2829 1.392 1_455 S
C2830 C2831 1.385 . S
C2830 C2832 1.478 . S
C2831 H2825 0.930 . S
C2831 C2827 1.400 . S
C2831 C2830 1.385 . S
C2832 C2830 1.478 . S
C2832 C2834 1.381 . S
C2832 C2838 1.383 1_455 S
C2833 C2829 1.495 . S
C2833 H2839 0.959 . S
C2833 H2840 0.961 . S
C2833 H2841 0.960 . S
C2834 C2832 1.381 . S
C2834 C2835 1.394 . S
C2834 H2842 0.930 . S
C2835 C2834 1.394 . S
C2835 C2836 1.383 . S
C2835 H2843 0.929 . S
C2836 C2835 1.383 . S
C2836 C2837 1.377 1_455 S
C2837 H2821 0.930 . S
C2837 C2836 1.377 1_655 S
C2837 C2838 1.379 . S
C2838 H2822 0.931 . S
C2838 C2832 1.383 1_655 S
C2838 C2837 1.379 . S
H2839 C2833 0.959 . S
H2840 C2833 0.961 . S
H2841 C2833 0.960 . S
H2842 C2834 0.930 . S
H2843 C2835 0.929 . S
H2844 C2852 0.929 . S
H2845 C2854 0.930 . S
H2846 C2856 0.930 . S
H2847 C2859 0.929 . S
H2848 C2862 0.930 . S
H2849 C2864 0.960 . S
H2850 C2864 0.960 . S
H2851 C2864 0.960 . S
C2852 H2844 0.929 . S
C2852 C2853 1.377 . S
C2852 C2854 1.384 . S
C2853 C2852 1.377 . S
C2853 C2859 1.390 . S
C2854 H2845 0.930 . S
C2854 C2852 1.384 . S
C2854 C2855 1.372 . S
C2855 C2854 1.372 . S
C2855 C2856 1.400 . S
C2855 C2860 1.490 . S
C2856 H2846 0.930 . S
C2856 C2855 1.400 . S
C2856 C2859 1.386 . S
H2857 C2873 0.930 . S
H2858 C2874 0.931 . S
C2859 H2847 0.929 . S
C2859 C2853 1.390 . S
C2859 C2856 1.386 . S
C2860 C2855 1.490 . S
C2860 C2862 1.395 . S
C2860 C2863 1.403 . S
H2861 C2867 0.930 . S
C2862 H2848 0.930 . S
C2862 C2860 1.395 . S
C2862 C2865 1.403 . S
C2863 C2860 1.403 . S
C2863 C2864 1.524 . S
C2863 C2867 1.400 . S
C2864 H2849 0.960 . S
C2864 H2850 0.960 . S
C2864 H2851 0.960 . S
C2864 C2863 1.524 . S
C2865 C2862 1.403 . S
C2865 C2866 1.392 . S
C2865 C2869 1.495 . S
C2866 C2865 1.392 . S
C2866 C2867 1.385 . S
C2866 C2868 1.478 . S
C2867 H2861 0.930 . S
C2867 C2863 1.400 . S
C2867 C2866 1.385 . S
C2868 C2866 1.478 . S
C2868 C2870 1.381 . S
C2868 C2874 1.383 . S
C2869 C2865 1.495 . S
C2869 H2875 0.959 . S
C2869 H2876 0.961 . S
C2869 H2877 0.960 . S
C2870 C2868 1.381 . S
C2870 C2871 1.394 . S
C2870 H2878 0.930 . S
C2871 C2870 1.394 . S
C2871 C2872 1.383 . S
C2871 H2879 0.929 . S
C2872 C2871 1.383 . S
C2872 C2873 1.377 . S
C2873 H2857 0.930 . S
C2873 C2872 1.377 . S
C2873 C2874 1.379 . S
C2874 H2858 0.931 . S
C2874 C2868 1.383 . S
C2874 C2873 1.379 . S
H2875 C2869 0.959 . S
H2876 C2869 0.961 . S
H2877 C2869 0.960 . S
H2878 C2870 0.930 . S
H2879 C2871 0.929 . S
H2880 C2888 0.941 . S
H2881 C2890 0.930 . S
H2882 C2892 0.930 . S
H2883 C2895 0.929 . S
H2884 C2898 0.930 . S
H2885 C2900 0.960 . S
H2886 C2900 0.960 1_545 S
H2887 C2900 0.960 . S
C2888 H2880 0.941 . S
C2888 C2889 1.373 1_545 S
C2888 C2890 1.377 . S
C2889 C2888 1.373 1_565 S
C2889 C2895 1.390 . S
C2890 H2881 0.930 . S
C2890 C2888 1.377 . S
C2890 C2891 1.372 1_545 S
C2891 C2890 1.372 1_565 S
C2891 C2892 1.400 . S
C2891 C2896 1.490 . S
C2892 H2882 0.930 . S
C2892 C2891 1.400 . S
C2892 C2895 1.386 . S
H2893 C2909 0.930 . S
H2894 C2910 0.931 . S
C2895 H2883 0.929 . S
C2895 C2889 1.390 . S
C2895 C2892 1.386 . S
C2896 C2891 1.490 . S
C2896 C2898 1.395 . S
C2896 C2899 1.403 . S
H2897 C2903 0.930 . S
C2898 H2884 0.930 . S
C2898 C2896 1.395 . S
C2898 C2901 1.403 . S
C2899 C2896 1.403 . S
C2899 C2900 1.524 . S
C2899 C2903 1.400 . S
C2900 H2885 0.960 . S
C2900 H2886 0.960 1_565 S
C2900 H2887 0.960 . S
C2900 C2899 1.524 . S
C2901 C2898 1.403 . S
C2901 C2902 1.392 . S
C2901 C2905 1.495 . S
C2902 C2901 1.392 . S
C2902 C2903 1.385 . S
C2902 C2904 1.478 . S
C2903 H2897 0.930 . S
C2903 C2899 1.400 . S
C2903 C2902 1.385 . S
C2904 C2902 1.478 . S
C2904 C2906 1.381 1_565 S
C2904 C2910 1.383 . S
C2905 C2901 1.495 . S
C2905 H2911 0.959 . S
C2905 H2912 0.961 . S
C2905 H2913 0.960 . S
C2906 C2904 1.381 1_545 S
C2906 C2907 1.394 . S
C2906 H2914 0.930 . S
C2907 C2906 1.394 . S
C2907 C2908 1.383 1_545 S
C2907 H2915 0.929 . S
C2908 C2907 1.383 1_565 S
C2908 C2909 1.377 . S
C2909 H2893 0.930 . S
C2909 C2908 1.377 . S
C2909 C2910 1.379 . S
C2910 H2894 0.931 . S
C2910 C2904 1.383 . S
C2910 C2909 1.379 . S
H2911 C2905 0.959 . S
H2912 C2905 0.961 . S
H2913 C2905 0.960 . S
H2914 C2906 0.930 . S
H2915 C2907 0.929 . S
H2916 C2924 0.929 . S
H2917 C2926 0.930 . S
H2918 C2928 0.930 . S
H2919 C2931 0.929 . S
H2920 C2934 0.930 . S
H2921 C2936 0.960 . S
H2922 C2936 0.960 . S
H2923 C2936 0.960 . S
C2924 H2916 0.929 . S
C2924 C2925 1.377 . S
C2924 C2926 1.384 . S
C2925 C2924 1.377 . S
C2925 C2931 1.390 . S
C2926 H2917 0.930 . S
C2926 C2924 1.384 . S
C2926 C2927 1.372 . S
C2927 C2926 1.372 . S
C2927 C2928 1.400 . S
C2927 C2932 1.490 . S
C2928 H2918 0.930 . S
C2928 C2927 1.400 . S
C2928 C2931 1.386 . S
H2929 C2945 0.930 . S
H2930 C2946 0.931 . S
C2931 H2919 0.929 . S
C2931 C2925 1.390 . S
C2931 C2928 1.386 . S
C2932 C2927 1.490 . S
C2932 C2934 1.395 . S
C2932 C2935 1.403 1_565 S
H2933 C2939 0.930 . S
C2934 H2920 0.930 . S
C2934 C2932 1.395 . S
C2934 C2937 1.403 . S
C2935 C2932 1.403 1_545 S
C2935 C2936 1.524 . S
C2935 C2939 1.400 . S
C2936 H2921 0.960 . S
C2936 H2922 0.960 . S
C2936 H2923 0.960 . S
C2936 C2935 1.524 . S
C2937 C2934 1.403 . S
C2937 C2938 1.392 . S
C2937 C2941 1.495 . S
C2938 C2937 1.392 . S
C2938 C2939 1.385 1_565 S
C2938 C2940 1.478 . S
C2939 H2933 0.930 . S
C2939 C2935 1.400 . S
C2939 C2938 1.385 1_545 S
C2940 C2938 1.478 . S
C2940 C2942 1.381 . S
C2940 C2946 1.383 . S
C2941 C2937 1.495 . S
C2941 H2947 0.959 . S
C2941 H2948 0.961 . S
C2941 H2949 0.960 . S
C2942 C2940 1.381 . S
C2942 C2943 1.394 . S
C2942 H2950 0.930 . S
C2943 C2942 1.394 . S
C2943 C2944 1.383 . S
C2943 H2951 0.923 1_565 S
C2944 C2943 1.383 . S
C2944 C2945 1.377 . S
C2945 H2929 0.930 . S
C2945 C2944 1.377 . S
C2945 C2946 1.379 . S
C2946 H2930 0.931 . S
C2946 C2940 1.383 . S
C2946 C2945 1.379 . S
H2947 C2941 0.959 . S
H2948 C2941 0.961 . S
H2949 C2941 0.960 . S
H2950 C2942 0.930 . S
H2951 C2943 0.923 1_545 S
H2952 C2960 0.929 . S
H2953 C2962 0.930 . S
H2954 C2964 0.930 . S
H2955 C2967 0.929 . S
H2956 C2970 0.930 . S
H2957 C2972 0.960 . S
H2958 C2972 0.960 . S
H2959 C2972 0.960 . S
C2960 H2952 0.929 . S
C2960 C2961 1.377 . S
C2960 C2962 1.384 . S
C2961 C2960 1.377 . S
C2961 C2967 1.390 . S
C2962 H2953 0.930 . S
C2962 C2960 1.384 . S
C2962 C2963 1.372 . S
C2963 C2962 1.372 . S
C2963 C2964 1.400 . S
C2963 C2968 1.490 . S
C2964 H2954 0.930 . S
C2964 C2963 1.400 . S
C2964 C2967 1.386 . S
H2965 C2981 0.930 . S
H2966 C2982 0.931 . S
C2967 H2955 0.929 . S
C2967 C2961 1.390 . S
C2967 C2964 1.386 . S
C2968 C2963 1.490 . S
C2968 C2970 1.395 . S
C2968 C2971 1.403 1_455 S
H2969 C2975 0.930 . S
C2970 H2956 0.930 . S
C2970 C2968 1.395 . S
C2970 C2973 1.403 . S
C2971 C2968 1.403 1_655 S
C2971 C2972 1.524 . S
C2971 C2975 1.400 . S
C2972 H2957 0.960 . S
C2972 H2958 0.960 . S
C2972 H2959 0.960 . S
C2972 C2971 1.524 . S
C2973 C2970 1.403 . S
C2973 C2974 1.392 . S
C2973 C2977 1.495 . S
C2974 C2973 1.392 . S
C2974 C2975 1.385 1_455 S
C2974 C2976 1.478 . S
C2975 H2969 0.930 . S
C2975 C2971 1.400 . S
C2975 C2974 1.385 1_655 S
C2976 C2974 1.478 . S
C2976 C2978 1.361 1_455 S
C2976 C2982 1.383 . S
C2977 C2973 1.495 . S
C2977 H2983 0.959 . S
C2977 H2984 0.961 . S
C2977 H2985 0.960 . S
C2978 C2976 1.361 1_655 S
C2978 C2979 1.369 . S
C2978 H2986 0.983 . S
C2979 C2978 1.369 . S
C2979 C2980 1.383 1_655 S
C2979 H2987 0.929 . S
C2980 C2979 1.383 1_455 S
C2980 C2981 1.377 . S
C2981 H2965 0.930 . S
C2981 C2980 1.377 . S
C2981 C2982 1.379 . S
C2982 H2966 0.931 . S
C2982 C2976 1.383 . S
C2982 C2981 1.379 . S
H2983 C2977 0.959 . S
H2984 C2977 0.961 . S
H2985 C2977 0.960 . S
H2986 C2978 0.983 . S
H2987 C2979 0.929 . S
H2988 C2996 0.929 . S
H2989 C2998 0.930 . S
H2990 C3000 0.930 . S
H2991 C3003 0.929 . S
H2992 C3006 0.930 . S
H2993 C3008 0.960 . S
H2994 C3008 0.960 . S
H2995 C3008 0.960 . S
C2996 H2988 0.929 . S
C2996 C2997 1.377 . S
C2996 C2998 1.384 . S
C2997 C2996 1.377 . S
C2997 C3003 1.390 . S
C2998 H2989 0.930 . S
C2998 C2996 1.384 . S
C2998 C2999 1.372 . S
C2999 C2998 1.372 . S
C2999 C3000 1.400 . S
C2999 C3004 1.490 . S
C3000 H2990 0.930 . S
C3000 C2999 1.400 . S
C3000 C3003 1.386 . S
H3001 C3017 0.930 . S
H3002 C3018 0.931 . S
C3003 H2991 0.929 . S
C3003 C2997 1.390 . S
C3003 C3000 1.386 . S
C3004 C2999 1.490 . S
C3004 C3006 1.395 . S
C3004 C3007 1.403 . S
H3005 C3011 0.930 . S
C3006 H2992 0.930 . S
C3006 C3004 1.395 . S
C3006 C3009 1.403 . S
C3007 C3004 1.403 . S
C3007 C3008 1.524 . S
C3007 C3011 1.400 . S
C3008 H2993 0.960 . S
C3008 H2994 0.960 . S
C3008 H2995 0.960 . S
C3008 C3007 1.524 . S
C3009 C3006 1.403 . S
C3009 C3010 1.392 . S
C3009 C3013 1.495 . S
C3010 C3009 1.392 . S
C3010 C3011 1.385 . S
C3010 C3012 1.478 . S
C3011 H3005 0.930 . S
C3011 C3007 1.400 . S
C3011 C3010 1.385 . S
C3012 C3010 1.478 . S
C3012 C3014 1.381 . S
C3012 C3018 1.383 . S
C3013 C3009 1.495 . S
C3013 H3019 0.959 . S
C3013 H3020 0.961 . S
C3013 H3021 0.960 . S
C3014 C3012 1.381 . S
C3014 C3015 1.394 . S
C3014 H3022 0.930 . S
C3015 C3014 1.394 . S
C3015 C3016 1.383 . S
C3015 H3023 0.929 . S
C3016 C3015 1.383 . S
C3016 C3017 1.377 . S
C3017 H3001 0.930 . S
C3017 C3016 1.377 . S
C3017 C3018 1.379 . S
C3018 H3002 0.931 . S
C3018 C3012 1.383 . S
C3018 C3017 1.379 . S
H3019 C3013 0.959 . S
H3020 C3013 0.961 . S
H3021 C3013 0.960 . S
H3022 C3014 0.930 . S
H3023 C3015 0.929 . S
H3024 C3032 0.929 . S
H3025 C3034 0.930 . S
H3026 C3036 0.930 . S
H3027 C3039 0.929 . S
H3028 C3042 0.930 . S
H3029 C3044 0.960 . S
H3030 C3044 0.960 . S
H3031 C3044 0.960 . S
C3032 H3024 0.929 . S
C3032 C3033 1.377 . S
C3032 C3034 1.384 . S
C3033 C3032 1.377 . S
C3033 C3039 1.390 . S
C3034 H3025 0.930 . S
C3034 C3032 1.384 . S
C3034 C3035 1.372 . S
C3035 C3034 1.372 . S
C3035 C3036 1.400 . S
C3035 C3040 1.490 . S
C3036 H3026 0.930 . S
C3036 C3035 1.400 . S
C3036 C3039 1.386 . S
H3037 C3053 0.930 . S
H3038 C3054 0.931 . S
C3039 H3027 0.929 . S
C3039 C3033 1.390 . S
C3039 C3036 1.386 . S
C3040 C3035 1.490 . S
C3040 C3042 1.395 . S
C3040 C3043 1.403 . S
H3041 C3047 0.930 . S
C3042 H3028 0.930 . S
C3042 C3040 1.395 . S
C3042 C3045 1.403 . S
C3043 C3040 1.403 . S
C3043 C3044 1.524 . S
C3043 C3047 1.400 . S
C3044 H3029 0.960 . S
C3044 H3030 0.960 . S
C3044 H3031 0.960 . S
C3044 C3043 1.524 . S
C3045 C3042 1.403 . S
C3045 C3046 1.392 . S
C3045 C3049 1.495 . S
C3046 C3045 1.392 . S
C3046 C3047 1.385 . S
C3046 C3048 1.478 . S
C3047 H3041 0.930 . S
C3047 C3043 1.400 . S
C3047 C3046 1.385 . S
C3048 C3046 1.478 . S
C3048 C3050 1.381 . S
C3048 C3054 1.383 . S
C3049 C3045 1.495 . S
C3049 H3055 0.959 . S
C3049 H3056 0.961 . S
C3049 H3057 0.960 . S
C3050 C3048 1.381 . S
C3050 C3051 1.394 . S
C3050 H3058 0.930 . S
C3051 C3050 1.394 . S
C3051 C3052 1.383 . S
C3051 H3059 0.929 . S
C3052 C3051 1.383 . S
C3052 C3053 1.377 . S
C3053 H3037 0.930 . S
C3053 C3052 1.377 . S
C3053 C3054 1.379 . S
C3054 H3038 0.931 . S
C3054 C3048 1.383 . S
C3054 C3053 1.379 . S
H3055 C3049 0.959 . S
H3056 C3049 0.961 . S
H3057 C3049 0.960 . S
H3058 C3050 0.930 . S
H3059 C3051 0.929 . S
H3060 C3068 0.929 . S
H3061 C3070 0.930 . S
H3062 C3072 0.930 . S
H3063 C3075 0.929 . S
H3064 C3078 0.930 . S
H3065 C3080 0.960 . S
H3066 C3080 0.960 . S
H3067 C3080 0.960 . S
C3068 H3060 0.929 . S
C3068 C3069 1.377 . S
C3068 C3070 1.384 . S
C3069 C3068 1.377 . S
C3069 C3075 1.390 . S
C3070 H3061 0.930 . S
C3070 C3068 1.384 . S
C3070 C3071 1.372 . S
C3071 C3070 1.372 . S
C3071 C3072 1.400 . S
C3071 C3076 1.490 . S
C3072 H3062 0.930 . S
C3072 C3071 1.400 . S
C3072 C3075 1.386 . S
H3073 C3089 0.930 . S
H3074 C3090 0.931 . S
C3075 H3063 0.929 . S
C3075 C3069 1.390 . S
C3075 C3072 1.386 . S
C3076 C3071 1.490 . S
C3076 C3078 1.395 . S
C3076 C3079 1.403 . S
H3077 C3083 0.930 . S
C3078 H3064 0.930 . S
C3078 C3076 1.395 . S
C3078 C3081 1.403 . S
C3079 C3076 1.403 . S
C3079 C3080 1.524 . S
C3079 C3083 1.400 . S
C3080 H3065 0.960 . S
C3080 H3066 0.960 . S
C3080 H3067 0.960 . S
C3080 C3079 1.524 . S
C3081 C3078 1.403 . S
C3081 C3082 1.392 . S
C3081 C3085 1.495 . S
C3082 C3081 1.392 . S
C3082 C3083 1.385 . S
C3082 C3084 1.478 . S
C3083 H3077 0.930 . S
C3083 C3079 1.400 . S
C3083 C3082 1.385 . S
C3084 C3082 1.478 . S
C3084 C3086 1.381 . S
C3084 C3090 1.383 . S
C3085 C3081 1.495 . S
C3085 H3091 0.959 . S
C3085 H3092 0.961 . S
C3085 H3093 0.960 . S
C3086 C3084 1.381 . S
C3086 C3087 1.394 . S
C3086 H3094 0.930 . S
C3087 C3086 1.394 . S
C3087 C3088 1.383 . S
C3087 H3095 0.929 . S
C3088 C3087 1.383 . S
C3088 C3089 1.377 . S
C3089 H3073 0.930 . S
C3089 C3088 1.377 . S
C3089 C3090 1.379 . S
C3090 H3074 0.931 . S
C3090 C3084 1.383 . S
C3090 C3089 1.379 . S
H3091 C3085 0.959 . S
H3092 C3085 0.961 . S
H3093 C3085 0.960 . S
H3094 C3086 0.930 . S
H3095 C3087 0.929 . S
H3096 C3104 0.929 . S
H3097 C3106 0.930 . S
H3098 C3108 0.930 . S
H3099 C3111 0.929 . S
H3100 C3114 0.930 . S
H3101 C3116 0.960 . S
H3102 C3116 0.960 . S
H3103 C3116 0.960 . S
C3104 H3096 0.929 . S
C3104 C3105 1.377 . S
C3104 C3106 1.384 . S
C3105 C3104 1.377 . S
C3105 C3111 1.390 . S
C3106 H3097 0.930 . S
C3106 C3104 1.384 . S
C3106 C3107 1.372 . S
C3107 C3106 1.372 . S
C3107 C3108 1.400 . S
C3107 C3112 1.490 . S
C3108 H3098 0.930 . S
C3108 C3107 1.400 . S
C3108 C3111 1.386 . S
H3109 C3125 0.930 . S
H3110 C3126 0.931 . S
C3111 H3099 0.929 . S
C3111 C3105 1.390 . S
C3111 C3108 1.386 . S
C3112 C3107 1.490 . S
C3112 C3114 1.395 . S
C3112 C3115 1.403 . S
H3113 C3119 0.930 . S
C3114 H3100 0.930 . S
C3114 C3112 1.395 . S
C3114 C3117 1.403 . S
C3115 C3112 1.403 . S
C3115 C3116 1.524 . S
C3115 C3119 1.400 . S
C3116 H3101 0.960 . S
C3116 H3102 0.960 . S
C3116 H3103 0.960 . S
C3116 C3115 1.524 . S
C3117 C3114 1.403 . S
C3117 C3118 1.392 . S
C3117 C3121 1.495 . S
C3118 C3117 1.392 . S
C3118 C3119 1.385 . S
C3118 C3120 1.478 . S
C3119 H3113 0.930 . S
C3119 C3115 1.400 . S
C3119 C3118 1.385 . S
C3120 C3118 1.478 . S
C3120 C3122 1.381 . S
C3120 C3126 1.383 . S
C3121 C3117 1.495 . S
C3121 H3127 0.959 . S
C3121 H3128 0.961 . S
C3121 H3129 0.960 . S
C3122 C3120 1.381 . S
C3122 C3123 1.394 . S
C3122 H3130 0.930 . S
C3123 C3122 1.394 . S
C3123 C3124 1.383 . S
C3123 H3131 0.929 . S
C3124 C3123 1.383 . S
C3124 C3125 1.377 . S
C3125 H3109 0.930 . S
C3125 C3124 1.377 . S
C3125 C3126 1.379 . S
C3126 H3110 0.931 . S
C3126 C3120 1.383 . S
C3126 C3125 1.379 . S
H3127 C3121 0.959 . S
H3128 C3121 0.961 . S
H3129 C3121 0.960 . S
H3130 C3122 0.930 . S
H3131 C3123 0.929 . S
H3132 C3140 0.929 . S
H3133 C3142 0.930 . S
H3134 C3144 0.930 . S
H3135 C3147 0.929 . S
H3136 C3150 0.930 . S
H3137 C3152 0.960 . S
H3138 C3152 0.960 . S
H3139 C3152 0.960 . S
C3140 H3132 0.929 . S
C3140 C3141 1.377 . S
C3140 C3142 1.384 . S
C3141 C3140 1.377 . S
C3141 C3147 1.390 . S
C3142 H3133 0.930 . S
C3142 C3140 1.384 . S
C3142 C3143 1.372 . S
C3143 C3142 1.372 . S
C3143 C3144 1.400 . S
C3143 C3148 1.490 . S
C3144 H3134 0.930 . S
C3144 C3143 1.400 . S
C3144 C3147 1.386 . S
H3145 C3161 0.930 . S
H3146 C3162 0.931 . S
C3147 H3135 0.929 . S
C3147 C3141 1.390 . S
C3147 C3144 1.386 . S
C3148 C3143 1.490 . S
C3148 C3150 1.395 . S
C3148 C3151 1.408 1_545 S
H3149 C3155 0.923 1_565 S
C3150 H3136 0.930 . S
C3150 C3148 1.395 . S
C3150 C3153 1.403 . S
C3151 C3148 1.408 1_565 S
C3151 C3152 1.522 . S
C3151 C3155 1.401 1_565 S
C3152 H3137 0.960 . S
C3152 H3138 0.960 . S
C3152 H3139 0.960 . S
C3152 C3151 1.522 . S
C3153 C3150 1.403 . S
C3153 C3154 1.392 . S
C3153 C3157 1.495 . S
C3154 C3153 1.392 . S
C3154 C3155 1.387 . S
C3154 C3156 1.478 . S
C3155 H3149 0.923 1_545 S
C3155 C3151 1.401 1_545 S
C3155 C3154 1.387 . S
C3156 C3154 1.478 . S
C3156 C3158 1.381 . S
C3156 C3162 1.383 . S
C3157 C3153 1.495 . S
C3157 H3163 0.959 . S
C3157 H3164 0.961 . S
C3157 H3165 0.960 . S
C3158 C3156 1.381 . S
C3158 C3159 1.439 . S
C3158 H3166 0.930 . S
C3159 C3158 1.439 . S
C3159 C3160 1.399 . S
C3159 H3167 0.874 1_545 S
C3160 C3159 1.399 . S
C3160 C3161 1.377 . S
C3161 H3145 0.930 . S
C3161 C3160 1.377 . S
C3161 C3162 1.379 . S
C3162 H3146 0.931 . S
C3162 C3156 1.383 . S
C3162 C3161 1.379 . S
H3163 C3157 0.959 . S
H3164 C3157 0.961 . S
H3165 C3157 0.960 . S
H3166 C3158 0.930 . S
H3167 C3159 0.874 1_565 S
H3168 C3176 0.929 . S
H3169 C3178 0.930 . S
H3170 C3180 0.936 . S
H3171 C3183 0.880 1_455 S
H3172 C3186 0.930 . S
H3173 C3188 0.960 . S
H3174 C3188 0.960 . S
H3175 C3188 0.960 . S
C3176 H3168 0.929 . S
C3176 C3177 1.377 . S
C3176 C3178 1.384 . S
C3177 C3176 1.377 . S
C3177 C3183 1.419 . S
C3178 H3169 0.930 . S
C3178 C3176 1.384 . S
C3178 C3179 1.372 . S
C3179 C3178 1.372 . S
C3179 C3180 1.390 1_655 S
C3179 C3184 1.490 . S
C3180 H3170 0.936 . S
C3180 C3179 1.390 1_455 S
C3180 C3183 1.412 1_455 S
H3181 C3197 0.930 . S
H3182 C3198 0.931 . S
C3183 H3171 0.880 1_655 S
C3183 C3177 1.419 . S
C3183 C3180 1.412 1_655 S
C3184 C3179 1.490 . S
C3184 C3186 1.395 . S
C3184 C3187 1.400 1_655 S
H3185 C3191 0.934 . S
C3186 H3172 0.930 . S
C3186 C3184 1.395 . S
C3186 C3189 1.403 . S
C3187 C3184 1.400 1_455 S
C3187 C3188 1.530 . S
C3187 C3191 1.401 . S
C3188 H3173 0.960 . S
C3188 H3174 0.960 . S
C3188 H3175 0.960 . S
C3188 C3187 1.530 . S
C3189 C3186 1.403 . S
C3189 C3190 1.392 . S
C3189 C3193 1.495 . S
C3190 C3189 1.392 . S
C3190 C3191 1.377 1_655 S
C3190 C3192 1.478 . S
C3191 H3185 0.934 . S
C3191 C3187 1.401 . S
C3191 C3190 1.377 1_455 S
C3192 C3190 1.478 . S
C3192 C3194 1.381 . S
C3192 C3198 1.383 1_655 S
C3193 C3189 1.495 . S
C3193 H3199 0.959 . S
C3193 H3200 0.961 . S
C3193 H3201 0.960 . S
C3194 C3192 1.381 . S
C3194 C3195 1.394 . S
C3194 H3202 0.930 . S
C3195 C3194 1.394 . S
C3195 C3196 1.383 . S
C3195 H3203 0.929 . S
C3196 C3195 1.383 . S
C3196 C3197 1.377 1_655 S
C3197 H3181 0.930 . S
C3197 C3196 1.377 1_455 S
C3197 C3198 1.379 . S
C3198 H3182 0.931 . S
C3198 C3192 1.383 1_455 S
C3198 C3197 1.379 . S
H3199 C3193 0.959 . S
H3200 C3193 0.961 . S
H3201 C3193 0.960 . S
H3202 C3194 0.930 . S
H3203 C3195 0.929 . S
H3204 C3212 0.929 . S
H3205 C3214 0.930 . S
H3206 C3216 0.930 . S
H3207 C3219 0.929 . S
H3208 C3222 0.930 . S
H3209 C3224 0.960 . S
H3210 C3224 0.960 . S
H3211 C3224 0.960 . S
C3212 H3204 0.929 . S
C3212 C3213 1.377 . S
C3212 C3214 1.384 . S
C3213 C3212 1.377 . S
C3213 C3219 1.390 . S
C3214 H3205 0.930 . S
C3214 C3212 1.384 . S
C3214 C3215 1.372 . S
C3215 C3214 1.372 . S
C3215 C3216 1.400 . S
C3215 C3220 1.490 . S
C3216 H3206 0.930 . S
C3216 C3215 1.400 . S
C3216 C3219 1.386 . S
H3217 C3233 0.930 . S
H3218 C3234 0.931 . S
C3219 H3207 0.929 . S
C3219 C3213 1.390 . S
C3219 C3216 1.386 . S
C3220 C3215 1.490 . S
C3220 C3222 1.395 . S
C3220 C3223 1.403 . S
H3221 C3227 0.930 . S
C3222 H3208 0.930 . S
C3222 C3220 1.395 . S
C3222 C3225 1.403 . S
C3223 C3220 1.403 . S
C3223 C3224 1.524 . S
C3223 C3227 1.400 . S
C3224 H3209 0.960 . S
C3224 H3210 0.960 . S
C3224 H3211 0.960 . S
C3224 C3223 1.524 . S
C3225 C3222 1.403 . S
C3225 C3226 1.392 . S
C3225 C3229 1.495 . S
C3226 C3225 1.392 . S
C3226 C3227 1.385 . S
C3226 C3228 1.478 . S
C3227 H3221 0.930 . S
C3227 C3223 1.400 . S
C3227 C3226 1.385 . S
C3228 C3226 1.478 . S
C3228 C3230 1.381 . S
C3228 C3234 1.383 . S
C3229 C3225 1.495 . S
C3229 H3235 0.959 . S
C3229 H3236 0.961 . S
C3229 H3237 0.960 . S
C3230 C3228 1.381 . S
C3230 C3231 1.394 . S
C3230 H3238 0.930 . S
C3231 C3230 1.394 . S
C3231 C3232 1.383 . S
C3231 H3239 0.929 . S
C3232 C3231 1.383 . S
C3232 C3233 1.377 . S
C3233 H3217 0.930 . S
C3233 C3232 1.377 . S
C3233 C3234 1.379 . S
C3234 H3218 0.931 . S
C3234 C3228 1.383 . S
C3234 C3233 1.379 . S
H3235 C3229 0.959 . S
H3236 C3229 0.961 . S
H3237 C3229 0.960 . S
H3238 C3230 0.930 . S
H3239 C3231 0.929 . S
H3240 C3248 0.929 . S
H3241 C3250 0.930 . S
H3242 C3252 0.930 . S
H3243 C3255 0.929 . S
H3244 C3258 0.930 . S
H3245 C3260 0.960 . S
H3246 C3260 0.960 . S
H3247 C3260 0.960 . S
C3248 H3240 0.929 . S
C3248 C3249 1.377 . S
C3248 C3250 1.384 . S
C3249 C3248 1.377 . S
C3249 C3255 1.390 . S
C3250 H3241 0.930 . S
C3250 C3248 1.384 . S
C3250 C3251 1.372 . S
C3251 C3250 1.372 . S
C3251 C3252 1.400 . S
C3251 C3256 1.490 . S
C3252 H3242 0.930 . S
C3252 C3251 1.400 . S
C3252 C3255 1.386 . S
H3253 C3269 0.930 . S
H3254 C3270 0.931 . S
C3255 H3243 0.929 . S
C3255 C3249 1.390 . S
C3255 C3252 1.386 . S
C3256 C3251 1.490 . S
C3256 C3258 1.395 . S
C3256 C3259 1.403 . S
H3257 C3263 0.930 . S
C3258 H3244 0.930 . S
C3258 C3256 1.395 . S
C3258 C3261 1.403 . S
C3259 C3256 1.403 . S
C3259 C3260 1.524 . S
C3259 C3263 1.400 . S
C3260 H3245 0.960 . S
C3260 H3246 0.960 . S
C3260 H3247 0.960 . S
C3260 C3259 1.524 . S
C3261 C3258 1.403 . S
C3261 C3262 1.392 . S
C3261 C3265 1.495 . S
C3262 C3261 1.392 . S
C3262 C3263 1.385 . S
C3262 C3264 1.478 . S
C3263 H3257 0.930 . S
C3263 C3259 1.400 . S
C3263 C3262 1.385 . S
C3264 C3262 1.478 . S
C3264 C3266 1.381 . S
C3264 C3270 1.383 . S
C3265 C3261 1.495 . S
C3265 H3271 0.959 . S
C3265 H3272 0.961 . S
C3265 H3273 0.960 . S
C3266 C3264 1.381 . S
C3266 C3267 1.394 . S
C3266 H3274 0.930 . S
C3267 C3266 1.394 . S
C3267 C3268 1.383 . S
C3267 H3275 0.929 . S
C3268 C3267 1.383 . S
C3268 C3269 1.377 . S
C3269 H3253 0.930 . S
C3269 C3268 1.377 . S
C3269 C3270 1.379 . S
C3270 H3254 0.931 . S
C3270 C3264 1.383 . S
C3270 C3269 1.379 . S
H3271 C3265 0.959 . S
H3272 C3265 0.961 . S
H3273 C3265 0.960 . S
H3274 C3266 0.930 . S
H3275 C3267 0.929 . S
H3276 C3284 0.929 . S
H3277 C3286 0.930 . S
H3278 C3288 0.930 . S
H3279 C3291 0.929 . S
H3280 C3294 0.930 . S
H3281 C3296 0.960 . S
H3282 C3296 0.960 . S
H3283 C3296 0.960 . S
C3284 H3276 0.929 . S
C3284 C3285 1.377 . S
C3284 C3286 1.384 . S
C3285 C3284 1.377 . S
C3285 C3291 1.390 . S
C3286 H3277 0.930 . S
C3286 C3284 1.384 . S
C3286 C3287 1.372 . S
C3287 C3286 1.372 . S
C3287 C3288 1.400 . S
C3287 C3292 1.490 . S
C3288 H3278 0.930 . S
C3288 C3287 1.400 . S
C3288 C3291 1.386 . S
H3289 C3305 0.930 . S
H3290 C3306 0.931 . S
C3291 H3279 0.929 . S
C3291 C3285 1.390 . S
C3291 C3288 1.386 . S
C3292 C3287 1.490 . S
C3292 C3294 1.395 . S
C3292 C3295 1.403 . S
H3293 C3299 0.930 . S
C3294 H3280 0.930 . S
C3294 C3292 1.395 . S
C3294 C3297 1.403 . S
C3295 C3292 1.403 . S
C3295 C3296 1.524 . S
C3295 C3299 1.400 . S
C3296 H3281 0.960 . S
C3296 H3282 0.960 . S
C3296 H3283 0.960 . S
C3296 C3295 1.524 . S
C3297 C3294 1.403 . S
C3297 C3298 1.392 . S
C3297 C3301 1.495 . S
C3298 C3297 1.392 . S
C3298 C3299 1.385 . S
C3298 C3300 1.478 . S
C3299 H3293 0.930 . S
C3299 C3295 1.400 . S
C3299 C3298 1.385 . S
C3300 C3298 1.478 . S
C3300 C3302 1.381 . S
C3300 C3306 1.383 . S
C3301 C3297 1.495 . S
C3301 H3307 0.959 . S
C3301 H3308 0.961 . S
C3301 H3309 0.960 . S
C3302 C3300 1.381 . S
C3302 C3303 1.394 . S
C3302 H3310 0.930 . S
C3303 C3302 1.394 . S
C3303 C3304 1.383 . S
C3303 H3311 0.929 . S
C3304 C3303 1.383 . S
C3304 C3305 1.377 . S
C3305 H3289 0.930 . S
C3305 C3304 1.377 . S
C3305 C3306 1.379 . S
C3306 H3290 0.931 . S
C3306 C3300 1.383 . S
C3306 C3305 1.379 . S
H3307 C3301 0.959 . S
H3308 C3301 0.961 . S
H3309 C3301 0.960 . S
H3310 C3302 0.930 . S
H3311 C3303 0.929 . S
H3312 C3320 0.929 . S
H3313 C3322 0.930 . S
H3314 C3324 0.930 . S
H3315 C3327 0.929 . S
H3316 C3330 0.930 . S
H3317 C3332 0.960 . S
H3318 C3332 0.960 . S
H3319 C3332 0.960 . S
C3320 H3312 0.929 . S
C3320 C3321 1.377 . S
C3320 C3322 1.384 . S
C3321 C3320 1.377 . S
C3321 C3327 1.390 . S
C3322 H3313 0.930 . S
C3322 C3320 1.384 . S
C3322 C3323 1.372 . S
C3323 C3322 1.372 . S
C3323 C3324 1.400 . S
C3323 C3328 1.490 . S
C3324 H3314 0.930 . S
C3324 C3323 1.400 . S
C3324 C3327 1.386 . S
H3325 C3341 0.930 . S
H3326 C3342 0.931 . S
C3327 H3315 0.929 . S
C3327 C3321 1.390 . S
C3327 C3324 1.386 . S
C3328 C3323 1.490 . S
C3328 C3330 1.395 . S
C3328 C3331 1.403 . S
H3329 C3335 0.930 . S
C3330 H3316 0.930 . S
C3330 C3328 1.395 . S
C3330 C3333 1.403 . S
C3331 C3328 1.403 . S
C3331 C3332 1.524 . S
C3331 C3335 1.400 . S
C3332 H3317 0.960 . S
C3332 H3318 0.960 . S
C3332 H3319 0.960 . S
C3332 C3331 1.524 . S
C3333 C3330 1.403 . S
C3333 C3334 1.392 . S
C3333 C3337 1.495 . S
C3334 C3333 1.392 . S
C3334 C3335 1.385 . S
C3334 C3336 1.478 . S
C3335 H3329 0.930 . S
C3335 C3331 1.400 . S
C3335 C3334 1.385 . S
C3336 C3334 1.478 . S
C3336 C3338 1.381 . S
C3336 C3342 1.383 . S
C3337 C3333 1.495 . S
C3337 H3343 0.959 . S
C3337 H3344 0.961 . S
C3337 H3345 0.960 . S
C3338 C3336 1.381 . S
C3338 C3339 1.394 . S
C3338 H3346 0.930 . S
C3339 C3338 1.394 . S
C3339 C3340 1.383 . S
C3339 H3347 0.929 . S
C3340 C3339 1.383 . S
C3340 C3341 1.377 . S
C3341 H3325 0.930 . S
C3341 C3340 1.377 . S
C3341 C3342 1.379 . S
C3342 H3326 0.931 . S
C3342 C3336 1.383 . S
C3342 C3341 1.379 . S
H3343 C3337 0.959 . S
H3344 C3337 0.961 . S
H3345 C3337 0.960 . S
H3346 C3338 0.930 . S
H3347 C3339 0.929 . S
H3348 C3356 0.929 . S
H3349 C3358 0.930 . S
H3350 C3360 0.930 . S
H3351 C3363 0.929 . S
H3352 C3366 0.930 . S
H3353 C3368 0.960 . S
H3354 C3368 0.960 . S
H3355 C3368 0.960 . S
C3356 H3348 0.929 . S
C3356 C3357 1.377 . S
C3356 C3358 1.384 . S
C3357 C3356 1.377 . S
C3357 C3363 1.390 . S
C3358 H3349 0.930 . S
C3358 C3356 1.384 . S
C3358 C3359 1.372 . S
C3359 C3358 1.372 . S
C3359 C3360 1.400 . S
C3359 C3364 1.490 . S
C3360 H3350 0.930 . S
C3360 C3359 1.400 . S
C3360 C3363 1.386 . S
H3361 C3377 0.930 . S
H3362 C3378 0.931 . S
C3363 H3351 0.929 . S
C3363 C3357 1.390 . S
C3363 C3360 1.386 . S
C3364 C3359 1.490 . S
C3364 C3366 1.395 . S
C3364 C3367 1.403 . S
H3365 C3371 0.930 . S
C3366 H3352 0.930 . S
C3366 C3364 1.395 . S
C3366 C3369 1.403 . S
C3367 C3364 1.403 . S
C3367 C3368 1.524 . S
C3367 C3371 1.400 . S
C3368 H3353 0.960 . S
C3368 H3354 0.960 . S
C3368 H3355 0.960 . S
C3368 C3367 1.524 . S
C3369 C3366 1.403 . S
C3369 C3370 1.392 . S
C3369 C3373 1.495 . S
C3370 C3369 1.392 . S
C3370 C3371 1.385 . S
C3370 C3372 1.478 . S
C3371 H3365 0.930 . S
C3371 C3367 1.400 . S
C3371 C3370 1.385 . S
C3372 C3370 1.478 . S
C3372 C3374 1.381 . S
C3372 C3378 1.383 . S
C3373 C3369 1.495 . S
C3373 H3379 0.959 . S
C3373 H3380 0.961 . S
C3373 H3381 0.960 . S
C3374 C3372 1.381 . S
C3374 C3375 1.394 . S
C3374 H3382 0.930 . S
C3375 C3374 1.394 . S
C3375 C3376 1.383 . S
C3375 H3383 0.929 . S
C3376 C3375 1.383 . S
C3376 C3377 1.377 . S
C3377 H3361 0.930 . S
C3377 C3376 1.377 . S
C3377 C3378 1.379 . S
C3378 H3362 0.931 . S
C3378 C3372 1.383 . S
C3378 C3377 1.379 . S
H3379 C3373 0.959 . S
H3380 C3373 0.961 . S
H3381 C3373 0.960 . S
H3382 C3374 0.930 . S
H3383 C3375 0.929 . S
H3384 C3392 0.929 . S
H3385 C3394 0.930 . S
H3386 C3396 0.930 . S
H3387 C3399 0.929 . S
H3388 C3402 0.930 . S
H3389 C3404 0.960 . S
H3390 C3404 0.960 . S
H3391 C3404 0.960 . S
C3392 H3384 0.929 . S
C3392 C3393 1.377 . S
C3392 C3394 1.384 . S
C3393 C3392 1.377 . S
C3393 C3399 1.390 . S
C3394 H3385 0.930 . S
C3394 C3392 1.384 . S
C3394 C3395 1.372 . S
C3395 C3394 1.372 . S
C3395 C3396 1.400 . S
C3395 C3400 1.490 . S
C3396 H3386 0.930 . S
C3396 C3395 1.400 . S
C3396 C3399 1.386 . S
H3397 C3413 0.930 . S
H3398 C3414 0.931 . S
C3399 H3387 0.929 . S
C3399 C3393 1.390 . S
C3399 C3396 1.386 . S
C3400 C3395 1.490 . S
C3400 C3402 1.395 . S
C3400 C3403 1.403 . S
H3401 C3407 0.930 . S
C3402 H3388 0.930 . S
C3402 C3400 1.395 . S
C3402 C3405 1.403 . S
C3403 C3400 1.403 . S
C3403 C3404 1.524 . S
C3403 C3407 1.400 . S
C3404 H3389 0.960 . S
C3404 H3390 0.960 . S
C3404 H3391 0.960 . S
C3404 C3403 1.524 . S
C3405 C3402 1.403 . S
C3405 C3406 1.392 . S
C3405 C3409 1.495 . S
C3406 C3405 1.392 . S
C3406 C3407 1.385 . S
C3406 C3408 1.478 . S
C3407 H3401 0.930 . S
C3407 C3403 1.400 . S
C3407 C3406 1.385 . S
C3408 C3406 1.478 . S
C3408 C3410 1.381 . S
C3408 C3414 1.383 . S
C3409 C3405 1.495 . S
C3409 H3415 0.959 . S
C3409 H3416 0.961 . S
C3409 H3417 0.960 . S
C3410 C3408 1.381 . S
C3410 C3411 1.394 . S
C3410 H3418 0.930 . S
C3411 C3410 1.394 . S
C3411 C3412 1.383 . S
C3411 H3419 0.929 . S
C3412 C3411 1.383 . S
C3412 C3413 1.377 . S
C3413 H3397 0.930 . S
C3413 C3412 1.377 . S
C3413 C3414 1.379 . S
C3414 H3398 0.931 . S
C3414 C3408 1.383 . S
C3414 C3413 1.379 . S
H3415 C3409 0.959 . S
H3416 C3409 0.961 . S
H3417 C3409 0.960 . S
H3418 C3410 0.930 . S
H3419 C3411 0.929 . S
H3420 C3428 0.929 . S
H3421 C3430 0.930 . S
H3422 C3432 0.930 . S
H3423 C3435 0.929 . S
H3424 C3438 0.930 . S
H3425 C3440 0.960 . S
H3426 C3440 0.960 . S
H3427 C3440 0.960 . S
C3428 H3420 0.929 . S
C3428 C3429 1.377 . S
C3428 C3430 1.384 . S
C3429 C3428 1.377 . S
C3429 C3435 1.390 . S
C3430 H3421 0.930 . S
C3430 C3428 1.384 . S
C3430 C3431 1.372 . S
C3431 C3430 1.372 . S
C3431 C3432 1.400 . S
C3431 C3436 1.490 . S
C3432 H3422 0.930 . S
C3432 C3431 1.400 . S
C3432 C3435 1.386 . S
H3433 C3449 0.930 . S
H3434 C3450 0.931 . S
C3435 H3423 0.929 . S
C3435 C3429 1.390 . S
C3435 C3432 1.386 . S
C3436 C3431 1.490 . S
C3436 C3438 1.395 . S
C3436 C3439 1.403 . S
H3437 C3443 0.930 . S
C3438 H3424 0.930 . S
C3438 C3436 1.395 . S
C3438 C3441 1.403 . S
C3439 C3436 1.403 . S
C3439 C3440 1.524 . S
C3439 C3443 1.400 . S
C3440 H3425 0.960 . S
C3440 H3426 0.960 . S
C3440 H3427 0.960 . S
C3440 C3439 1.524 . S
C3441 C3438 1.403 . S
C3441 C3442 1.392 . S
C3441 C3445 1.495 . S
C3442 C3441 1.392 . S
C3442 C3443 1.385 . S
C3442 C3444 1.478 . S
C3443 H3437 0.930 . S
C3443 C3439 1.400 . S
C3443 C3442 1.385 . S
C3444 C3442 1.478 . S
C3444 C3446 1.381 . S
C3444 C3450 1.383 . S
C3445 C3441 1.495 . S
C3445 H3451 0.959 . S
C3445 H3452 0.961 . S
C3445 H3453 0.960 . S
C3446 C3444 1.381 . S
C3446 C3447 1.394 . S
C3446 H3454 0.930 . S
C3447 C3446 1.394 . S
C3447 C3448 1.383 . S
C3447 H3455 0.929 . S
C3448 C3447 1.383 . S
C3448 C3449 1.377 . S
C3449 H3433 0.930 . S
C3449 C3448 1.377 . S
C3449 C3450 1.379 . S
C3450 H3434 0.931 . S
C3450 C3444 1.383 . S
C3450 C3449 1.379 . S
H3451 C3445 0.959 . S
H3452 C3445 0.961 . S
H3453 C3445 0.960 . S
H3454 C3446 0.930 . S
H3455 C3447 0.929 . S
H3456 C3464 0.929 . S
H3457 C3466 0.930 . S
H3458 C3468 0.930 . S
H3459 C3471 0.929 . S
H3460 C3474 0.930 . S
H3461 C3476 0.960 . S
H3462 C3476 0.960 . S
H3463 C3476 0.960 . S
C3464 H3456 0.929 . S
C3464 C3465 1.377 1_455 S
C3464 C3466 1.384 . S
C3465 C3464 1.377 1_655 S
C3465 C3471 1.390 . S
C3466 H3457 0.930 . S
C3466 C3464 1.384 . S
C3466 C3467 1.372 1_455 S
C3467 C3466 1.372 1_655 S
C3467 C3468 1.400 . S
C3467 C3472 1.490 . S
C3468 H3458 0.930 . S
C3468 C3467 1.400 . S
C3468 C3471 1.386 . S
H3469 C3485 0.930 . S
H3470 C3486 0.931 . S
C3471 H3459 0.929 . S
C3471 C3465 1.390 . S
C3471 C3468 1.386 . S
C3472 C3467 1.490 . S
C3472 C3474 1.395 1_655 S
C3472 C3475 1.403 . S
H3473 C3479 0.930 . S
C3474 H3460 0.930 . S
C3474 C3472 1.395 1_455 S
C3474 C3477 1.403 . S
C3475 C3472 1.403 . S
C3475 C3476 1.524 . S
C3475 C3479 1.400 . S
C3476 H3461 0.960 . S
C3476 H3462 0.960 . S
C3476 H3463 0.960 . S
C3476 C3475 1.524 . S
C3477 C3474 1.403 . S
C3477 C3478 1.392 1_455 S
C3477 C3481 1.495 . S
C3478 C3477 1.392 1_655 S
C3478 C3479 1.385 . S
C3478 C3480 1.518 . S
C3479 H3473 0.930 . S
C3479 C3475 1.400 . S
C3479 C3478 1.385 . S
C3480 C3478 1.518 . S
C3480 C3482 1.303 1_655 S
C3480 C3486 1.423 . S
C3481 C3477 1.495 . S
C3481 H3487 0.959 . S
C3481 H3488 0.961 . S
C3481 H3489 0.960 . S
C3482 C3480 1.303 1_455 S
C3482 C3483 1.394 . S
C3482 H3490 0.930 . S
C3483 C3482 1.394 . S
C3483 C3484 1.397 . S
C3483 H3491 0.929 . S
C3484 C3483 1.397 . S
C3484 C3485 1.351 1_455 S
C3485 H3469 0.930 . S
C3485 C3484 1.351 1_655 S
C3485 C3486 1.379 . S
C3486 H3470 0.931 . S
C3486 C3480 1.423 . S
C3486 C3485 1.379 . S
H3487 C3481 0.959 . S
H3488 C3481 0.961 . S
H3489 C3481 0.960 . S
H3490 C3482 0.930 . S
H3491 C3483 0.929 . S
H3492 C3500 0.929 . S
H3493 C3502 0.930 . S
H3494 C3504 0.930 . S
H3495 C3507 0.929 . S
H3496 C3510 0.930 . S
H3497 C3512 0.960 . S
H3498 C3512 0.960 . S
H3499 C3512 0.960 . S
C3500 H3492 0.929 . S
C3500 C3501 1.377 . S
C3500 C3502 1.384 . S
C3501 C3500 1.377 . S
C3501 C3507 1.390 . S
C3502 H3493 0.930 . S
C3502 C3500 1.384 . S
C3502 C3503 1.372 . S
C3503 C3502 1.372 . S
C3503 C3504 1.400 . S
C3503 C3508 1.490 . S
C3504 H3494 0.930 . S
C3504 C3503 1.400 . S
C3504 C3507 1.386 . S
H3505 C3521 0.930 . S
H3506 C3522 0.931 . S
C3507 H3495 0.929 . S
C3507 C3501 1.390 . S
C3507 C3504 1.386 . S
C3508 C3503 1.490 . S
C3508 C3510 1.395 . S
C3508 C3511 1.403 . S
H3509 C3515 0.930 . S
C3510 H3496 0.930 . S
C3510 C3508 1.395 . S
C3510 C3513 1.403 . S
C3511 C3508 1.403 . S
C3511 C3512 1.524 . S
C3511 C3515 1.400 . S
C3512 H3497 0.960 . S
C3512 H3498 0.960 . S
C3512 H3499 0.960 . S
C3512 C3511 1.524 . S
C3513 C3510 1.403 . S
C3513 C3514 1.392 . S
C3513 C3517 1.495 . S
C3514 C3513 1.392 . S
C3514 C3515 1.385 . S
C3514 C3516 1.478 . S
C3515 H3509 0.930 . S
C3515 C3511 1.400 . S
C3515 C3514 1.385 . S
C3516 C3514 1.478 . S
C3516 C3518 1.381 . S
C3516 C3522 1.383 . S
C3517 C3513 1.495 . S
C3517 H3523 0.959 . S
C3517 H3524 0.961 . S
C3517 H3525 0.960 . S
C3518 C3516 1.381 . S
C3518 C3519 1.394 . S
C3518 H3526 0.930 . S
C3519 C3518 1.394 . S
C3519 C3520 1.383 . S
C3519 H3527 0.929 . S
C3520 C3519 1.383 . S
C3520 C3521 1.377 . S
C3521 H3505 0.930 . S
C3521 C3520 1.377 . S
C3521 C3522 1.379 . S
C3522 H3506 0.931 . S
C3522 C3516 1.383 . S
C3522 C3521 1.379 . S
H3523 C3517 0.959 . S
H3524 C3517 0.961 . S
H3525 C3517 0.960 . S
H3526 C3518 0.930 . S
H3527 C3519 0.929 . S
H3528 C3536 0.929 . S
H3529 C3538 0.930 . S
H3530 C3540 0.930 . S
H3531 C3543 0.929 . S
H3532 C3546 0.930 . S
H3533 C3548 0.960 . S
H3534 C3548 0.960 . S
H3535 C3548 0.960 . S
C3536 H3528 0.929 . S
C3536 C3537 1.377 . S
C3536 C3538 1.384 . S
C3537 C3536 1.377 . S
C3537 C3543 1.390 . S
C3538 H3529 0.930 . S
C3538 C3536 1.384 . S
C3538 C3539 1.372 . S
C3539 C3538 1.372 . S
C3539 C3540 1.400 . S
C3539 C3544 1.490 . S
C3540 H3530 0.930 . S
C3540 C3539 1.400 . S
C3540 C3543 1.386 . S
H3541 C3557 0.930 . S
H3542 C3558 0.931 . S
C3543 H3531 0.929 . S
C3543 C3537 1.390 . S
C3543 C3540 1.386 . S
C3544 C3539 1.490 . S
C3544 C3546 1.395 1_545 S
C3544 C3547 1.403 . S
H3545 C3551 0.930 . S
C3546 H3532 0.930 . S
C3546 C3544 1.395 1_565 S
C3546 C3549 1.403 . S
C3547 C3544 1.403 . S
C3547 C3548 1.524 . S
C3547 C3551 1.400 . S
C3548 H3533 0.960 . S
C3548 H3534 0.960 . S
C3548 H3535 0.960 . S
C3548 C3547 1.524 . S
C3549 C3546 1.403 . S
C3549 C3550 1.392 1_565 S
C3549 C3553 1.495 . S
C3550 C3549 1.392 1_545 S
C3550 C3551 1.385 . S
C3550 C3552 1.453 . S
C3551 H3545 0.930 . S
C3551 C3547 1.400 . S
C3551 C3550 1.385 . S
C3552 C3550 1.453 . S
C3552 C3554 1.434 . S
C3552 C3558 1.362 1_545 S
C3553 C3549 1.495 . S
C3553 H3559 0.959 . S
C3553 H3560 0.961 . S
C3553 H3561 0.960 . S
C3554 C3552 1.434 . S
C3554 C3555 1.394 . S
C3554 H3562 0.930 . S
C3555 C3554 1.394 . S
C3555 C3556 1.368 1_545 S
C3555 H3563 0.929 . S
C3556 C3555 1.368 1_565 S
C3556 C3557 1.415 . S
C3557 H3541 0.930 . S
C3557 C3556 1.415 . S
C3557 C3558 1.379 . S
C3558 H3542 0.931 . S
C3558 C3552 1.362 1_565 S
C3558 C3557 1.379 . S
H3559 C3553 0.959 . S
H3560 C3553 0.961 . S
H3561 C3553 0.960 . S
H3562 C3554 0.930 . S
H3563 C3555 0.929 . S
C981 C4 1.482 1_655 S
C1000 C817 1.469 . S
C1017 C38 1.681 . S
C1036 C842 1.653 . S
C1072 C853 1.508 . S
C1053 C74 1.493 . S
C1089 C76 1.499 . S
C1108 C878 1.495 . S
C1125 C2 1.602 . S
C1144 C896 1.606 . S
C1161 C40 1.523 . S
C1180 C907 1.480 . S
C1197 C110 1.597 . S
C1216 C889 1.591 1_455 S
C1252 C914 1.480 . S
C1233 C148 1.486 . S
C1288 C871 1.579 . S
C1269 C182 1.558 1_565 S
C1305 C184 1.525 . S
C1324 C860 1.541 1_545 S
C1360 C824 1.446 . S
C1341 C112 1.457 1_655 S
C1377 C146 1.595 . S
C1396 C835 1.605 . S
C1413 C220 1.591 . S
C1432 C925 1.552 . S
C1449 C254 1.730 . S
C1468 C950 1.705 . S
C1504 C961 1.582 . S
C1485 C290 1.606 . S
C1521 C292 1.531 . S
C1540 C662 1.535 . S
C1557 C218 1.670 . S
C1576 C680 1.666 . S
C1593 C256 1.535 . S
C1612 C691 1.493 . S
C1629 C326 1.616 . S
C1648 C673 1.597 . S
C1665 C364 1.526 . S
C1684 C698 1.524 . S
C1720 C655 1.627 . S
C1701 C398 1.624 . S
C1756 C968 1.578 . S
C1737 C400 1.599 . S
C1792 C932 1.479 . S
C1773 C328 1.477 . S
C1828 C943 1.615 . S
C1809 C362 1.636 . S
C1845 C436 1.554 . S
C1864 C709 1.510 . S
C1881 C470 1.715 . S
C1900 C734 1.700 . S
C1917 C506 1.609 . S
C1936 C745 1.567 . S
C1953 C508 1.570 . S
C1972 C770 1.576 . S
C2008 C788 1.646 . S
C1989 C434 1.669 . S
C2044 C799 1.554 . S
C2025 C472 1.554 . S
C2080 C781 1.650 . S
C2061 C542 1.669 . S
C2116 C806 1.506 . S
C2097 C580 1.528 . S
C2133 C614 1.607 . S
C2152 C763 1.593 . S
C2188 C752 1.553 . S
C2169 C616 1.551 . S
C2205 C544 1.487 . S
C2224 C716 1.487 . S
C2260 C727 1.607 . S
C2241 C578 1.611 . S
C2296 C664 1.416 . S
C2277 C14 1.466 . S
C2313 C39 1.461 . S
C2332 C682 1.406 . S
C2368 C692 1.340 . S
C2349 C75 1.452 . S
C2404 C710 1.316 . S
C2385 C86 1.318 . S
C2440 C736 1.455 . S
C2421 C3 1.497 . S
C2476 C746 1.374 . S
C2457 C50 1.415 . S
C2493 C111 1.524 . S
C2512 C754 1.459 . S
C2529 C158 1.396 . S
C2548 C718 1.304 . S
C2565 C183 1.593 . S
C2584 C728 1.538 . S
C2601 C194 1.487 . S
C2620 C674 1.474 . S
C2656 C700 1.381 . S
C2637 C122 1.393 . S
C2673 C147 1.419 . S
C2692 C656 1.324 . S
C2728 C772 1.429 . S
C2709 C230 1.452 . S
C2745 C255 1.550 . S
C2764 C790 1.504 . S
C2781 C291 1.483 . S
C2800 C800 1.397 . S
C2836 C818 1.249 . S
C2817 C302 1.274 . S
C2853 C219 1.494 . S
C2872 C844 1.450 . S
C2889 C266 1.376 . S
C2908 C854 1.403 . S
C2925 C327 1.382 . S
C2944 C862 1.290 . S
C2961 C374 1.353 . S
C2980 C826 1.282 . S
C3016 C836 1.485 . S
C2997 C399 1.581 . S
C3033 C410 1.489 . S
C3052 C782 1.446 . S
C3069 C338 1.465 . S
C3088 C808 1.431 . S
C3124 C764 1.456 . S
C3105 C363 1.503 . S
C3160 C880 1.394 . S
C3141 C446 1.377 . S
C3177 C471 1.428 . S
C3196 C898 1.349 . S
C3213 C507 1.429 . S
C3232 C908 1.359 . S
C3268 C926 1.332 . S
C3249 C518 1.335 . S
C3304 C952 1.502 . S
C3285 C435 1.557 . S
C3321 C482 1.484 . S
C3340 C962 1.488 . S
C3357 C543 1.480 . S
C3376 C970 1.347 . S
C3393 C590 1.469 . S
C3412 C934 1.399 . S
C3448 C944 1.544 . S
C3429 C615 1.627 . S
C3484 C890 1.342 . S
C3465 C626 1.384 . S
C3520 C916 1.403 . S
C3501 C554 1.428 . S
C3537 C579 1.382 . S
C3556 C872 1.343 . S
