# Generated by pormake.
# Topology llj, (12,3)-cn, num edge types: 1
# Building blocks:
#     Node 0, Type 0, BuildingBlock: QEWDON_clean_sbu_0, # of connection points: 12
#     Node 1, Type 0, BuildingBlock: QEWDON_clean_sbu_0, # of connection points: 12
#     Node 2, Type 1, BuildingBlock: BETDIP_clean_linker_0, # of connection points: 3
#     Node 3, Type 1, BuildingBlock: BETDIP_clean_linker_0, # of connection points: 3
#     Node 4, Type 1, BuildingBlock: BETDIP_clean_linker_0, # of connection points: 3
#     Node 5, Type 1, BuildingBlock: BETDIP_clean_linker_0, # of connection points: 3
#     Node 6, Type 1, BuildingBlock: BETDIP_clean_linker_0, # of connection points: 3
#     Node 7, Type 1, BuildingBlock: BETDIP_clean_linker_0, # of connection points: 3
#     Node 8, Type 1, BuildingBlock: BETDIP_clean_linker_0, # of connection points: 3
#     Node 9, Type 1, BuildingBlock: BETDIP_clean_linker_0, # of connection points: 3
#     Edge 10, Type (0, 1), BuildingBlock: XUDNAN_clean_linker_2, # of connection points: 2
#     Edge 11, Type (0, 1), BuildingBlock: XUDNAN_clean_linker_2, # of connection points: 2
#     Edge 12, Type (0, 1), BuildingBlock: XUDNAN_clean_linker_2, # of connection points: 2
#     Edge 13, Type (0, 1), BuildingBlock: XUDNAN_clean_linker_2, # of connection points: 2
#     Edge 14, Type (0, 1), BuildingBlock: XUDNAN_clean_linker_2, # of connection points: 2
#     Edge 15, Type (0, 1), BuildingBlock: XUDNAN_clean_linker_2, # of connection points: 2
#     Edge 16, Type (0, 1), BuildingBlock: XUDNAN_clean_linker_2, # of connection points: 2
#     Edge 17, Type (0, 1), BuildingBlock: XUDNAN_clean_linker_2, # of connection points: 2
#     Edge 18, Type (0, 1), BuildingBlock: XUDNAN_clean_linker_2, # of connection points: 2
#     Edge 19, Type (0, 1), BuildingBlock: XUDNAN_clean_linker_2, # of connection points: 2
#     Edge 20, Type (0, 1), BuildingBlock: XUDNAN_clean_linker_2, # of connection points: 2
#     Edge 21, Type (0, 1), BuildingBlock: XUDNAN_clean_linker_2, # of connection points: 2
#     Edge 22, Type (0, 1), BuildingBlock: XUDNAN_clean_linker_2, # of connection points: 2
#     Edge 23, Type (0, 1), BuildingBlock: XUDNAN_clean_linker_2, # of connection points: 2
#     Edge 24, Type (0, 1), BuildingBlock: XUDNAN_clean_linker_2, # of connection points: 2
#     Edge 25, Type (0, 1), BuildingBlock: XUDNAN_clean_linker_2, # of connection points: 2
#     Edge 26, Type (0, 1), BuildingBlock: XUDNAN_clean_linker_2, # of connection points: 2
#     Edge 27, Type (0, 1), BuildingBlock: XUDNAN_clean_linker_2, # of connection points: 2
#     Edge 28, Type (0, 1), BuildingBlock: XUDNAN_clean_linker_2, # of connection points: 2
#     Edge 29, Type (0, 1), BuildingBlock: XUDNAN_clean_linker_2, # of connection points: 2
#     Edge 30, Type (0, 1), BuildingBlock: XUDNAN_clean_linker_2, # of connection points: 2
#     Edge 31, Type (0, 1), BuildingBlock: XUDNAN_clean_linker_2, # of connection points: 2
#     Edge 32, Type (0, 1), BuildingBlock: XUDNAN_clean_linker_2, # of connection points: 2
#     Edge 33, Type (0, 1), BuildingBlock: XUDNAN_clean_linker_2, # of connection points: 2
# Relax obj value: 0.010
# Max RMSD: 0.102
# Mean RMSD: 0.088
data_MOF--net-llj--node1-QEWDON_clean_sbu_0--node2-BETDIP_clean_linker_0--edge1-XUDNAN_clean_linker_2
_symmetry_space_group_name_H-M    P1
_symmetry_Int_Tables_number       1
_symmetry_cell_setting            triclinic
loop_
_symmetry_equiv_pos_as_xyz
'x, y, z'
_cell_length_a     39.515478
_cell_length_b     39.495335
_cell_length_c     24.394444
_cell_angle_alpha  90.451305
_cell_angle_beta   91.049445
_cell_angle_gamma 90.07068
loop_
_atom_site_label
_atom_site_type_symbol
_atom_site_fract_x
_atom_site_fract_y
_atom_site_fract_z
_atom_type_partial_charge
Zn0 Zn 0.97036 0.07842 0.94022 0.0
Zn1 Zn 0.95587 0.06408 0.06708 0.0
O2 O 0.98994 0.05651 0.0084 0.0
H3 H 0.00629 0.03835 0.00784 0.0
C4 C 0.92213 0.99526 0.83026 0.0
O5 O 0.9329 0.01612 0.86899 0.0
Zn6 Zn 0.03955 0.9296 0.09031 0.0
Zn7 Zn 0.02772 0.89465 0.97645 0.0
O8 O 0.02356 0.94045 0.01447 0.0
H9 H 0.01395 0.96135 0.00097 0.0
Zn10 Zn 0.93269 0.94663 0.91797 0.0
O11 O 0.9287 0.98114 0.97888 0.0
Zn12 Zn 0.91952 0.95307 0.04458 0.0
H13 H 0.93829 0.00364 0.97818 0.0
Zn14 Zn 0.07009 0.0511 0.98387 0.0
O15 O 0.0777 0.01406 0.03908 0.0
H16 H 0.09229 0.99474 0.03377 0.0
Zn17 Zn 0.07286 0.0406 0.10765 0.0
C18 C 0.08439 0.00669 0.89484 0.0
O19 O 0.06767 0.98683 0.92776 0.0
O20 O 0.92912 0.10881 0.95519 0.0
O21 O 0.91992 0.09814 0.04318 0.0
O22 O 0.06685 0.86466 0.00687 0.0
O23 O 0.07405 0.89128 0.08706 0.0
O24 O 0.9128 0.90042 0.93842 0.0
O25 O 0.89451 0.90962 0.02313 0.0
C26 C 0.01071 0.07545 0.14237 0.0
O27 O 0.08525 0.09737 0.0151 0.0
O28 O 0.09848 0.08496 0.10189 0.0
O29 O 0.00339 0.8865 0.90066 0.0
C30 C 0.91238 0.11357 0.9988 0.0
O31 O 0.00228 0.08889 0.87539 0.0
C32 C 0.96952 0.92408 0.12053 0.0
O33 O 0.92014 0.96385 0.84047 0.0
C34 C 0.0822 0.86799 0.05315 0.0
O35 O 0.08817 0.03766 0.90789 0.0
C36 C 0.9077 0.01162 0.10548 0.0
O37 O 0.98016 0.08381 0.13317 0.0
O38 O 0.02357 0.05207 0.1134 0.0
C39 C 0.89691 0.89075 0.98054 0.0
O40 O 0.99944 0.91657 0.13564 0.0
O41 O 0.96465 0.93966 0.07582 0.0
C42 C 0.0791 0.97987 0.1646 0.0
O43 O 0.89476 0.98231 0.09939 0.0
O44 O 0.93422 0.01868 0.07933 0.0
C45 C 0.09788 0.10563 0.06181 0.0
O46 O 0.0888 0.01048 0.16914 0.0
O47 O 0.06086 0.9719 0.12284 0.0
C48 C 0.00068 0.91201 0.86945 0.0
O49 O 0.01355 0.94106 0.88611 0.0
C50 C 0.01388 0.06459 0.84692 0.0
O51 O 0.00525 0.03343 0.85905 0.0
Zn52 Zn 0.4498 0.5825 0.44881 0.0
Zn53 Zn 0.44861 0.58245 0.57728 0.0
O54 O 0.48062 0.58255 0.51535 0.0
H55 H 0.50358 0.591 0.51577 0.0
C56 C 0.4367 0.51487 0.35856 0.0
O57 O 0.42326 0.52895 0.40195 0.0
Zn58 Zn 0.54947 0.43728 0.60143 0.0
Zn59 Zn 0.5498 0.41081 0.476 0.0
O60 O 0.52602 0.4414 0.5286 0.0
H61 H 0.51033 0.45888 0.51756 0.0
Zn62 Zn 0.44842 0.46091 0.43758 0.0
O63 O 0.44991 0.49026 0.50525 0.0
Zn64 Zn 0.43309 0.46101 0.56583 0.0
H65 H 0.46631 0.50832 0.50923 0.0
Zn66 Zn 0.57141 0.55235 0.47097 0.0
O67 O 0.55469 0.52829 0.53737 0.0
H68 H 0.53581 0.51281 0.53451 0.0
Zn69 Zn 0.56254 0.55856 0.60193 0.0
C70 C 0.58839 0.49076 0.41344 0.0
O71 O 0.58391 0.47961 0.46338 0.0
O72 O 0.40185 0.59987 0.46538 0.0
O73 O 0.40467 0.60646 0.55621 0.0
O74 O 0.58912 0.38455 0.51013 0.0
O75 O 0.58809 0.40208 0.59706 0.0
O76 O 0.41934 0.41814 0.44642 0.0
O77 O 0.40498 0.42079 0.5343 0.0
C78 C 0.50317 0.59727 0.64829 0.0
O79 O 0.59497 0.59761 0.49013 0.0
O80 O 0.59235 0.59936 0.5816 0.0
O81 O 0.52083 0.38702 0.41667 0.0
C82 C 0.38885 0.60952 0.51035 0.0
O83 O 0.47325 0.59977 0.37963 0.0
C84 C 0.48379 0.42791 0.64769 0.0
O85 O 0.44903 0.48526 0.36251 0.0
C86 C 0.60078 0.38379 0.55906 0.0
O87 O 0.58512 0.52227 0.40435 0.0
C88 C 0.41413 0.52229 0.6206 0.0
O89 O 0.47237 0.6055 0.64112 0.0
O90 O 0.5154 0.57463 0.6173 0.0
C91 C 0.4033 0.40643 0.48706 0.0
O92 O 0.51506 0.42193 0.65646 0.0
O93 O 0.47547 0.4435 0.604 0.0
C94 C 0.58027 0.49864 0.66159 0.0
O95 O 0.40648 0.49102 0.61793 0.0
O96 O 0.43764 0.53344 0.59098 0.0
C97 C 0.60176 0.61198 0.5361 0.0
O98 O 0.58313 0.53072 0.66417 0.0
O99 O 0.5642 0.48542 0.62116 0.0
C100 C 0.50646 0.40459 0.37973 0.0
O101 O 0.511 0.43756 0.37983 0.0
C102 C 0.48729 0.62852 0.38534 0.0
O103 O 0.48448 0.64475 0.43226 0.0
H104 H 0.3133 0.32051 0.92882 0.0
H105 H 0.32826 0.30682 0.10201 0.0
H106 H 0.39982 0.36499 0.01294 0.0
H107 H 0.29752 0.26043 0.08633 0.0
C108 C 0.27832 0.2689 0.05715 0.0
C109 C 0.32806 0.3254 0.9659 0.0
C110 C 0.35803 0.34473 0.96413 0.0
C111 C 0.31735 0.31121 0.01512 0.0
C112 C 0.33665 0.31659 0.06324 0.0
C113 C 0.36659 0.33546 0.06228 0.0
C114 C 0.37688 0.34994 0.01302 0.0
N115 N 0.28685 0.29211 0.0153 0.0
H116 H 0.71259 0.35283 0.94942 0.0
H117 H 0.70393 0.3404 0.12209 0.0
H118 H 0.62912 0.39871 0.03361 0.0
H119 H 0.7377 0.29344 0.1084 0.0
C120 C 0.74825 0.29502 0.06774 0.0
C121 C 0.69829 0.35747 0.98615 0.0
C122 C 0.66864 0.37708 0.98428 0.0
C123 C 0.71001 0.34285 0.03468 0.0
C124 C 0.69367 0.3501 0.08393 0.0
C125 C 0.66509 0.3715 0.08406 0.0
C126 C 0.65219 0.38396 0.03384 0.0
N127 N 0.73843 0.32111 0.03104 0.0
H128 H 0.67671 0.69307 0.11065 0.0
H129 H 0.67948 0.68818 0.93472 0.0
H130 H 0.58807 0.66256 0.01688 0.0
H131 H 0.73674 0.67962 0.95417 0.0
C132 C 0.74035 0.69918 0.98533 0.0
C133 C 0.66419 0.68745 0.07173 0.0
C134 C 0.63012 0.67704 0.07008 0.0
C135 C 0.68247 0.6908 0.02349 0.0
C136 C 0.66631 0.68422 0.97268 0.0
C137 C 0.63246 0.67369 0.97054 0.0
C138 C 0.61455 0.66978 0.01911 0.0
N139 N 0.71617 0.70325 0.02717 0.0
H140 H 0.29772 0.68014 0.9247 0.0
H141 H 0.32099 0.6594 0.09346 0.0
H142 H 0.38232 0.61696 0.96623 0.0
H143 H 0.29173 0.70604 0.1108 0.0
C144 C 0.27427 0.71026 0.07671 0.0
C145 C 0.31385 0.66817 0.95528 0.0
C146 C 0.34036 0.6471 0.93893 0.0
C147 C 0.30772 0.67402 0.01083 0.0
C148 C 0.32755 0.65722 0.05085 0.0
C149 C 0.35468 0.63614 0.03548 0.0
C150 C 0.36139 0.63247 0.97923 0.0
N151 N 0.28045 0.69585 0.02428 0.0
H152 H 0.7979 0.83851 0.42051 0.0
H153 H 0.81942 0.84182 0.59356 0.0
H154 H 0.89052 0.88356 0.48058 0.0
H155 H 0.78256 0.79495 0.59313 0.0
C156 C 0.7656 0.79828 0.55808 0.0
C157 C 0.81493 0.84543 0.45411 0.0
C158 C 0.84536 0.86225 0.44364 0.0
C159 C 0.80597 0.83694 0.50749 0.0
C160 C 0.82701 0.84691 0.55204 0.0
C161 C 0.85717 0.86501 0.54265 0.0
C162 C 0.86643 0.87156 0.48824 0.0
N163 N 0.77498 0.81927 0.51377 0.0
H164 H 0.18693 0.83145 0.63755 0.0
H165 H 0.1756 0.80857 0.46525 0.0
H166 H 0.14734 0.90641 0.52679 0.0
H167 H 0.16692 0.75498 0.50155 0.0
C168 C 0.18899 0.75467 0.5288 0.0
C169 C 0.17956 0.83903 0.59643 0.0
C170 C 0.16725 0.87187 0.58699 0.0
C171 C 0.18226 0.81584 0.55293 0.0
C172 C 0.17274 0.82585 0.49952 0.0
C173 C 0.16037 0.85858 0.48974 0.0
C174 C 0.15787 0.88142 0.53368 0.0
N175 N 0.19582 0.78312 0.56328 0.0
H176 H 0.18885 0.1801 0.5936 0.0
H177 H 0.18058 0.20171 0.42082 0.0
H178 H 0.11381 0.12941 0.49226 0.0
H179 H 0.24009 0.19714 0.43645 0.0
C180 C 0.24175 0.21579 0.46945 0.0
C181 C 0.17655 0.17614 0.554 0.0
C182 C 0.14986 0.15262 0.54837 0.0
C183 C 0.18865 0.19307 0.50771 0.0
C184 C 0.17223 0.18804 0.45646 0.0
C185 C 0.14546 0.16493 0.45069 0.0
C186 C 0.13471 0.14714 0.49661 0.0
N187 N 0.21796 0.21409 0.51249 0.0
H188 H 0.80764 0.18802 0.40245 0.0
H189 H 0.81818 0.15802 0.57152 0.0
H190 H 0.86336 0.09826 0.44547 0.0
H191 H 0.80158 0.20924 0.5912 0.0
C192 C 0.78639 0.21856 0.55707 0.0
C193 C 0.81771 0.17097 0.43328 0.0
C194 C 0.8368 0.14268 0.41735 0.0
C195 C 0.81156 0.17748 0.48893 0.0
C196 C 0.82398 0.15468 0.52871 0.0
C197 C 0.84259 0.12606 0.51309 0.0
C198 C 0.84919 0.12051 0.45757 0.0
N199 N 0.7914 0.20604 0.50292 0.0
H200 H 0.15031 0.12322 0.13121 0.0
H201 H 0.08478 0.16196 0.00167 0.0
H202 H 0.12013 0.21317 0.99632 0.0
H203 H 0.17481 0.20873 0.19376 0.0
H204 H 0.21753 0.19447 0.20653 0.0
H205 H 0.1828 0.16489 0.20931 0.0
H206 H 0.21247 0.12674 0.13801 0.0
H207 H 0.24688 0.15633 0.13414 0.0
H208 H 0.22371 0.1442 0.07272 0.0
H209 H 0.1673 0.25416 0.99242 0.0
H210 H 0.22241 0.28361 0.99306 0.0
H211 H 0.25835 0.21841 0.12397 0.0
C212 C 0.14268 0.14315 0.10336 0.0
C213 C 0.11483 0.13878 0.06699 0.0
C214 C 0.10607 0.16489 0.02993 0.0
C215 C 0.1259 0.19414 0.02675 0.0
C216 C 0.15428 0.19695 0.06112 0.0
C217 C 0.16249 0.17239 0.09926 0.0
C218 C 0.19662 0.17949 0.12624 0.0
C219 C 0.1927 0.18738 0.1876 0.0
C220 C 0.22136 0.14994 0.11719 0.0
C221 C 0.20708 0.21069 0.09503 0.0
C222 C 0.18198 0.22074 0.05849 0.0
C223 C 0.18688 0.24706 0.02171 0.0
C224 C 0.21834 0.26347 0.02207 0.0
C225 C 0.24448 0.25321 0.05865 0.0
C226 C 0.23855 0.2269 0.09606 0.0
H227 H 0.87569 0.13742 0.0864 0.0
H228 H 0.88687 0.14755 0.91028 0.0
H229 H 0.84459 0.19312 0.90952 0.0
H230 H 0.78414 0.1549 0.08832 0.0
H231 H 0.787 0.17846 0.15185 0.0
H232 H 0.81653 0.14479 0.13854 0.0
H233 H 0.86632 0.18619 0.15541 0.0
H234 H 0.83713 0.22018 0.16824 0.0
H235 H 0.86855 0.22459 0.11612 0.0
H236 H 0.80525 0.23979 0.92741 0.0
H237 H 0.7679 0.28418 0.9622 0.0
H238 H 0.78012 0.24486 0.12726 0.0
C239 C 0.86889 0.14889 0.04755 0.0
C240 C 0.88474 0.13889 0.99836 0.0
C241 C 0.87524 0.15474 0.94851 0.0
C242 C 0.85118 0.18066 0.94759 0.0
C243 C 0.83665 0.1904 0.99678 0.0
C244 C 0.8448 0.17493 0.04583 0.0
C245 C 0.82607 0.19131 0.09298 0.0
C246 C 0.802 0.16585 0.11946 0.0
C247 C 0.85102 0.20647 0.13569 0.0
C248 C 0.80666 0.21881 0.06264 0.0
C249 C 0.81324 0.21759 0.0072 0.0
C250 C 0.7996 0.2409 0.97062 0.0
C251 C 0.7785 0.2662 0.99101 0.0
C252 C 0.77108 0.26807 0.04761 0.0
C253 C 0.78526 0.24391 0.08382 0.0
H254 H 0.84803 0.8662 0.04877 0.0
H255 H 0.90825 0.83946 0.9078 0.0
H256 H 0.87762 0.78531 0.89875 0.0
H257 H 0.84111 0.77955 0.10417 0.0
H258 H 0.79806 0.78592 0.12514 0.0
H259 H 0.82703 0.82119 0.12404 0.0
H260 H 0.78543 0.85381 0.06049 0.0
H261 H 0.75639 0.81871 0.06119 0.0
H262 H 0.77124 0.83458 0.99684 0.0
H263 H 0.83758 0.7366 0.89976 0.0
H264 H 0.79034 0.69627 0.91107 0.0
H265 H 0.75616 0.7542 0.0514 0.0
C266 C 0.85516 0.84868 0.01663 0.0
C267 C 0.88036 0.85716 0.97873 0.0
C268 C 0.88875 0.83368 0.9369 0.0
C269 C 0.87167 0.80273 0.93165 0.0
C270 C 0.84643 0.79547 0.96883 0.0
C271 C 0.83827 0.81764 0.01069 0.0
C272 C 0.80863 0.80458 0.04293 0.0
C273 C 0.81936 0.79737 0.10261 0.0
C274 C 0.77866 0.8294 0.04016 0.0
C275 C 0.80085 0.77211 0.01164 0.0
C276 C 0.82323 0.76717 0.96946 0.0
C277 C 0.82016 0.7399 0.9331 0.0
C278 C 0.79329 0.7172 0.93974 0.0
C279 C 0.76985 0.72202 0.98216 0.0
C280 C 0.77394 0.74963 0.01892 0.0
H281 H 0.11363 0.82105 0.98729 0.0
H282 H 0.11523 0.86305 0.15242 0.0
H283 H 0.16329 0.82614 0.17689 0.0
H284 H 0.13537 0.73492 0.02453 0.0
H285 H 0.16166 0.72839 0.96577 0.0
H286 H 0.12645 0.75725 0.96174 0.0
H287 H 0.16675 0.8052 0.93169 0.0
H288 H 0.20207 0.77651 0.93569 0.0
H289 H 0.20319 0.81571 0.97404 0.0
H290 H 0.21209 0.78553 0.18307 0.0
H291 H 0.25864 0.74455 0.16971 0.0
H292 H 0.22559 0.72955 0.00062 0.0
C293 C 0.12387 0.82231 0.02874 0.0
C294 C 0.11047 0.84492 0.06795 0.0
C295 C 0.12493 0.84596 0.1216 0.0
C296 C 0.15226 0.82504 0.13598 0.0
C297 C 0.16496 0.80322 0.09627 0.0
C298 C 0.15129 0.80171 0.04374 0.0
C299 C 0.17031 0.77673 0.00837 0.0
C300 C 0.14705 0.7476 0.98898 0.0
C301 C 0.18654 0.79461 0.95958 0.0
C302 C 0.19688 0.76454 0.04917 0.0
C303 C 0.19328 0.78004 0.0997 0.0
C304 C 0.21511 0.77316 0.14373 0.0
C305 C 0.24143 0.7499 0.13581 0.0
C306 C 0.2457 0.73393 0.08431 0.0
C307 C 0.22299 0.7413 0.04056 0.0
H308 H 0.64799 0.63697 0.61253 0.0
H309 H 0.59775 0.66008 0.45763 0.0
H310 H 0.63046 0.71302 0.45191 0.0
H311 H 0.65669 0.72533 0.66357 0.0
H312 H 0.69831 0.71815 0.69263 0.0
H313 H 0.66809 0.68395 0.68846 0.0
H314 H 0.71103 0.64765 0.63478 0.0
H315 H 0.74131 0.6817 0.63867 0.0
H316 H 0.72886 0.66413 0.57291 0.0
H317 H 0.67024 0.76113 0.45919 0.0
H318 H 0.71747 0.80053 0.47597 0.0
H319 H 0.74513 0.7463 0.62434 0.0
C320 C 0.6435 0.65358 0.57805 0.0
C321 C 0.62021 0.64458 0.53565 0.0
C322 C 0.6155 0.66649 0.49049 0.0
C323 C 0.63381 0.69671 0.48703 0.0
C324 C 0.65699 0.70464 0.52886 0.0
C325 C 0.66211 0.68373 0.57343 0.0
C326 C 0.69075 0.697 0.6101 0.0
C327 C 0.67767 0.70669 0.66707 0.0
C328 C 0.7197 0.67108 0.61433 0.0
C329 C 0.70132 0.72814 0.57844 0.0
C330 C 0.68102 0.73224 0.53225 0.0
C331 C 0.68623 0.75833 0.49535 0.0
C332 C 0.71328 0.78057 0.50526 0.0
C333 C 0.73514 0.77645 0.55145 0.0
C334 C 0.72869 0.75016 0.58894 0.0
H335 H 0.36125 0.65386 0.58446 0.0
H336 H 0.33987 0.60033 0.43159 0.0
H337 H 0.28402 0.62793 0.42528 0.0
H338 H 0.27398 0.65445 0.63623 0.0
H339 H 0.27807 0.69673 0.66392 0.0
H340 H 0.31469 0.66968 0.66013 0.0
H341 H 0.34583 0.71548 0.60459 0.0
H342 H 0.30935 0.74258 0.60803 0.0
H343 H 0.32651 0.73135 0.54239 0.0
H344 H 0.23211 0.66298 0.43259 0.0
H345 H 0.18887 0.70675 0.44943 0.0
H346 H 0.24485 0.74031 0.59461 0.0
C347 C 0.34452 0.64751 0.55023 0.0
C348 C 0.35475 0.62478 0.50871 0.0
C349 C 0.33251 0.61764 0.46389 0.0
C350 C 0.30067 0.63304 0.46009 0.0
C351 C 0.29152 0.6557 0.50123 0.0
C352 C 0.31281 0.66313 0.54529 0.0
C353 C 0.29798 0.69064 0.58126 0.0
C354 C 0.29075 0.67706 0.63879 0.0
C355 C 0.3213 0.72186 0.5842 0.0
C356 C 0.26544 0.69806 0.54971 0.0
C357 C 0.26195 0.67707 0.50434 0.0
C358 C 0.23444 0.67946 0.4681 0.0
C359 C 0.21004 0.70435 0.47798 0.0
C360 C 0.21363 0.72684 0.52308 0.0
C361 C 0.24149 0.7234 0.55978 0.0
H362 H 0.35328 0.37993 0.55283 0.0
H363 H 0.40668 0.36232 0.40103 0.0
H364 H 0.37237 0.31139 0.38328 0.0
H365 H 0.34357 0.29104 0.58986 0.0
H366 H 0.30156 0.29656 0.61605 0.0
H367 H 0.33128 0.33121 0.61889 0.0
H368 H 0.28846 0.36894 0.56604 0.0
H369 H 0.25863 0.33442 0.56296 0.0
H370 H 0.27152 0.35466 0.50072 0.0
H371 H 0.33239 0.2635 0.37982 0.0
H372 H 0.28729 0.22106 0.38988 0.0
H373 H 0.25763 0.26859 0.54265 0.0
C374 C 0.3579 0.36518 0.51612 0.0
C375 C 0.38277 0.37524 0.47837 0.0
C376 C 0.38777 0.35536 0.43054 0.0
C377 C 0.36846 0.32624 0.42008 0.0
C378 C 0.34404 0.31721 0.45767 0.0
C379 C 0.33852 0.33598 0.50467 0.0
C380 C 0.30969 0.32093 0.53708 0.0
C381 C 0.32228 0.30924 0.59384 0.0
C382 C 0.28034 0.34625 0.54197 0.0
C383 C 0.29985 0.29095 0.50064 0.0
C384 C 0.32028 0.28936 0.4553 0.0
C385 C 0.31626 0.26439 0.41518 0.0
C386 C 0.29058 0.24041 0.42127 0.0
C387 C 0.26904 0.24148 0.46695 0.0
C388 C 0.27379 0.26708 0.50737 0.0
H389 H 0.6412 0.35176 0.48528 0.0
H390 H 0.62421 0.36229 0.65977 0.0
H391 H 0.6718 0.32311 0.67871 0.0
H392 H 0.658 0.26342 0.48746 0.0
H393 H 0.6895 0.26519 0.43504 0.0
H394 H 0.65584 0.29585 0.43592 0.0
H395 H 0.69986 0.34454 0.43837 0.0
H396 H 0.73371 0.31405 0.4374 0.0
H397 H 0.73221 0.34537 0.49145 0.0
H398 H 0.72087 0.28166 0.67765 0.0
H399 H 0.76575 0.24 0.65697 0.0
H400 H 0.74788 0.25494 0.48287 0.0
C401 C 0.64753 0.34605 0.52759 0.0
C402 C 0.62946 0.36075 0.57125 0.0
C403 C 0.63842 0.35223 0.62587 0.0
C404 C 0.66519 0.32975 0.63691 0.0
C405 C 0.68247 0.31579 0.59278 0.0
C406 C 0.67383 0.32352 0.53922 0.0
C407 C 0.69532 0.30417 0.49893 0.0
C408 C 0.67335 0.28077 0.46219 0.0
C409 C 0.71653 0.32849 0.46452 0.0
C410 C 0.71738 0.2841 0.53812 0.0
C411 C 0.7098 0.29132 0.5921 0.0
C412 C 0.72697 0.27584 0.63555 0.0
C413 C 0.75239 0.25227 0.62344 0.0
C414 C 0.76016 0.24423 0.56845 0.0
C415 C 0.74244 0.26047 0.52534 0.0
H416 H 0.05464 0.05187 0.22063 0.0
H417 H 0.01186 0.14394 0.15423 0.0
H418 H 0.0459 0.17782 0.22103 0.0
H419 H 0.05508 0.07461 0.35679 0.0
H420 H 0.09515 0.05569 0.37524 0.0
H421 H 0.07071 0.03884 0.31842 0.0
H422 H 0.12104 0.04767 0.25243 0.0
H423 H 0.1459 0.06249 0.31048 0.0
H424 H 0.14143 0.08831 0.25013 0.0
H425 H 0.08335 0.2013 0.29744 0.0
H426 H 0.11726 0.21208 0.38233 0.0
H427 H 0.13478 0.1043 0.39886 0.0
C428 C 0.05353 0.07915 0.21889 0.0
C429 C 0.03155 0.09541 0.1815 0.0
C430 C 0.02891 0.13113 0.18247 0.0
C431 C 0.04829 0.15053 0.2199 0.0
C432 C 0.07006 0.13373 0.25609 0.0
C433 C 0.07274 0.09881 0.25592 0.0
C434 C 0.09634 0.08679 0.30126 0.0
C435 C 0.07821 0.06257 0.34023 0.0
C436 C 0.12808 0.07034 0.27719 0.0
C437 C 0.10505 0.12019 0.32882 0.0
C438 C 0.09051 0.14709 0.30123 0.0
C439 C 0.09498 0.18044 0.31922 0.0
C440 C 0.11433 0.18636 0.36722 0.0
C441 C 0.1284 0.159 0.39695 0.0
C442 C 0.12407 0.12561 0.37694 0.0
H443 H 0.93748 0.04679 0.18864 0.0
H444 H 0.84176 0.03218 0.10273 0.0
H445 H 0.81474 0.07357 0.1652 0.0
H446 H 0.90464 0.04748 0.31855 0.0
H447 H 0.93395 0.07835 0.34646 0.0
H448 H 0.94594 0.05234 0.2893 0.0
H449 H 0.95941 0.10675 0.23535 0.0
H450 H 0.94591 0.13312 0.29134 0.0
H451 H 0.92686 0.13802 0.22415 0.0
H452 H 0.79727 0.1118 0.24292 0.0
H453 H 0.78943 0.13804 0.33434 0.0
H454 H 0.89659 0.12653 0.37003 0.0
C455 C 0.91114 0.05335 0.18195 0.0
C456 C 0.89174 0.03722 0.14043 0.0
C457 C 0.85694 0.04474 0.13424 0.0
C458 C 0.84155 0.06837 0.16915 0.0
C459 C 0.86137 0.08388 0.21013 0.0
C460 C 0.89541 0.07644 0.21687 0.0
C461 C 0.91014 0.0929 0.26817 0.0
C462 C 0.92449 0.06617 0.30793 0.0
C463 C 0.93716 0.11927 0.25385 0.0
C464 C 0.87883 0.10968 0.2905 0.0
C465 C 0.85112 0.105 0.25581 0.0
C466 C 0.81888 0.11606 0.27 0.0
C467 C 0.81466 0.13108 0.32182 0.0
C468 C 0.84245 0.13436 0.35891 0.0
C469 C 0.87502 0.12454 0.34215 0.0
H470 H 0.95212 0.9544 0.2155 0.0
H471 H 0.92572 0.87162 0.10548 0.0
H472 H 0.88494 0.85006 0.17295 0.0
H473 H 0.95402 0.9097 0.3338 0.0
H474 H 0.93564 0.9416 0.3773 0.0
H475 H 0.95786 0.95391 0.31699 0.0
H476 H 0.90514 0.98633 0.28058 0.0
H477 H 0.88311 0.97501 0.3419 0.0
H478 H 0.86493 0.9649 0.27545 0.0
H479 H 0.85523 0.83258 0.25824 0.0
H480 H 0.83562 0.82219 0.35188 0.0
H481 H 0.87901 0.91831 0.40533 0.0
C482 C 0.93682 0.93239 0.20518 0.0
C483 C 0.94128 0.91484 0.15541 0.0
C484 C 0.92181 0.88567 0.14315 0.0
C485 C 0.89877 0.87326 0.18126 0.0
C486 C 0.89552 0.89062 0.23095 0.0
C487 C 0.91357 0.91993 0.24255 0.0
C488 C 0.90743 0.9324 0.30036 0.0
C489 C 0.94072 0.9345 0.33406 0.0
C490 C 0.88905 0.96669 0.29954 0.0
C491 C 0.88467 0.90446 0.32064 0.0
C492 C 0.87775 0.88086 0.27981 0.0
C493 C 0.8597 0.85134 0.29014 0.0
C494 C 0.84857 0.84572 0.34359 0.0
C495 C 0.85548 0.86949 0.38626 0.0
C496 C 0.87336 0.89948 0.37398 0.0
H497 H 0.12521 0.98879 0.24847 0.0
H498 H 0.05585 0.91468 0.1782 0.0
H499 H 0.07297 0.87383 0.24861 0.0
H500 H 0.19136 0.93104 0.2922 0.0
H501 H 0.19983 0.95368 0.35544 0.0
H502 H 0.18428 0.97608 0.29608 0.0
H503 H 0.13411 0.99919 0.35188 0.0
H504 H 0.14939 0.97701 0.41153 0.0
H505 H 0.10677 0.96999 0.38633 0.0
H506 H 0.0963 0.84165 0.32911 0.0
H507 H 0.1206 0.82227 0.41752 0.0
H508 H 0.17296 0.91835 0.43761 0.0
C509 C 0.11367 0.96397 0.24754 0.0
C510 C 0.08948 0.95484 0.20664 0.0
C511 C 0.07495 0.92211 0.20765 0.0
C512 C 0.08447 0.89871 0.24792 0.0
C513 C 0.10843 0.90855 0.28738 0.0
C514 C 0.1226 0.94053 0.28784 0.0
C515 C 0.14597 0.9457 0.33701 0.0
C516 C 0.18253 0.95199 0.31909 0.0
C517 C 0.13329 0.97468 0.37386 0.0
C518 C 0.14246 0.91166 0.36439 0.0
C519 C 0.12104 0.89043 0.33476 0.0
C520 C 0.11328 0.85794 0.35256 0.0
C521 C 0.12735 0.84708 0.40258 0.0
C522 C 0.14864 0.8688 0.43428 0.0
C523 C 0.15662 0.90128 0.41434 0.0
H524 H 0.08017 0.94167 0.85613 0.0
H525 H 0.12547 0.03944 0.82288 0.0
H526 H 0.1537 0.01484 0.74232 0.0
H527 H 0.15144 0.89098 0.81986 0.0
H528 H 0.12615 0.85769 0.78898 0.0
H529 H 0.10926 0.88307 0.84369 0.0
H530 H 0.05774 0.89881 0.78232 0.0
H531 H 0.07414 0.87359 0.72712 0.0
H532 H 0.06437 0.91765 0.71633 0.0
H533 H 0.17616 0.97973 0.6648 0.0
H534 H 0.1903 0.93681 0.59441 0.0
H535 H 0.13148 0.86188 0.68017 0.0
C536 C 0.09591 0.958 0.8319 0.0
C537 C 0.10051 0.99251 0.84565 0.0
C538 C 0.12157 0.01291 0.81306 0.0
C539 C 0.13777 0.99916 0.76733 0.0
C540 C 0.1328 0.96496 0.75516 0.0
C541 C 0.11235 0.94468 0.78644 0.0
C542 C 0.11098 0.90876 0.76447 0.0
C543 C 0.12532 0.88365 0.80678 0.0
C544 C 0.07466 0.89916 0.74646 0.0
C545 C 0.13395 0.91195 0.71585 0.0
C546 C 0.14622 0.9446 0.71114 0.0
C547 C 0.16694 0.95403 0.66828 0.0
C548 C 0.17488 0.92957 0.62867 0.0
C549 C 0.16229 0.89611 0.63252 0.0
C550 C 0.14199 0.88712 0.67708 0.0
H551 H 0.04227 0.12529 0.8174 0.0
H552 H 0.03769 0.01874 0.77247 0.0
H553 H 0.0767 0.02919 0.69668 0.0
H554 H 0.04208 0.15638 0.68115 0.0
H555 H 0.07055 0.19105 0.69626 0.0
H556 H 0.04395 0.17474 0.74904 0.0
H557 H 0.0969 0.16455 0.81091 0.0
H558 H 0.12377 0.18053 0.75806 0.0
H559 H 0.13104 0.1389 0.78565 0.0
H560 H 0.11476 0.05116 0.62455 0.0
H561 H 0.14484 0.08422 0.55498 0.0
H562 H 0.12491 0.17669 0.6456 0.0
C563 C 0.04967 0.10409 0.79189 0.0
C564 C 0.03714 0.07111 0.80125 0.0
C565 C 0.0471 0.04418 0.76642 0.0
C566 C 0.06936 0.04985 0.72333 0.0
C567 C 0.08165 0.08253 0.71577 0.0
C568 C 0.07194 0.10928 0.74871 0.0
C569 C 0.08718 0.14233 0.72958 0.0
C570 C 0.05928 0.1676 0.71301 0.0
C571 C 0.11115 0.15746 0.77369 0.0
C572 C 0.10659 0.13005 0.68021 0.0
C573 C 0.10337 0.09537 0.67352 0.0
C574 C 0.11764 0.07827 0.62952 0.0
C575 C 0.13471 0.09721 0.59035 0.0
C576 C 0.13737 0.13288 0.59531 0.0
C577 C 0.12382 0.14939 0.64153 0.0
H578 H 0.9242 0.06088 0.79479 0.0
H579 H 0.89319 0.9595 0.74501 0.0
H580 H 0.87182 0.98181 0.65684 0.0
H581 H 0.85241 0.10278 0.73978 0.0
H582 H 0.87528 0.13969 0.71809 0.0
H583 H 0.89075 0.1155 0.77552 0.0
H584 H 0.94847 0.10763 0.72828 0.0
H585 H 0.93328 0.13203 0.67079 0.0
H586 H 0.94957 0.08994 0.66 0.0
H587 H 0.85226 0.01509 0.57569 0.0
H588 H 0.83413 0.05761 0.50756 0.0
H589 H 0.87596 0.13766 0.6112 0.0
C590 C 0.91324 0.04329 0.76514 0.0
C591 C 0.9107 0.00837 0.77653 0.0
C592 C 0.89585 0.98627 0.73687 0.0
C593 C 0.88359 0.9987 0.6867 0.0
C594 C 0.88626 0.03328 0.67696 0.0
C595 C 0.90064 0.0553 0.71504 0.0
C596 C 0.89895 0.09156 0.69545 0.0
C597 C 0.8781 0.11367 0.73454 0.0
C598 C 0.93469 0.10614 0.68819 0.0
C599 C 0.88083 0.08654 0.64075 0.0
C600 C 0.87412 0.05267 0.63066 0.0
C601 C 0.85747 0.04167 0.58298 0.0
C602 C 0.84737 0.06596 0.54453 0.0
C603 C 0.85372 0.10083 0.5542 0.0
C604 C 0.87063 0.11117 0.60301 0.0
H605 H 0.95877 0.86085 0.83094 0.0
H606 H 0.00114 0.9583 0.78724 0.0
H607 H 0.96858 0.95683 0.70014 0.0
H608 H 0.95876 0.82458 0.69317 0.0
H609 H 0.91936 0.80231 0.7016 0.0
H610 H 0.9466 0.81062 0.7602 0.0
H611 H 0.89696 0.84001 0.80859 0.0
H612 H 0.86953 0.83291 0.74994 0.0
H613 H 0.87591 0.87527 0.77629 0.0
H614 H 0.92949 0.94659 0.62063 0.0
H615 H 0.88969 0.92614 0.54912 0.0
H616 H 0.87393 0.83385 0.64107 0.0
C617 C 0.96142 0.88171 0.80279 0.0
C618 C 0.98243 0.90976 0.816 0.0
C619 C 0.9851 0.93663 0.77817 0.0
C620 C 0.96673 0.93602 0.72853 0.0
C621 C 0.94577 0.90837 0.71723 0.0
C622 C 0.94317 0.88155 0.75292 0.0
C623 C 0.91872 0.85495 0.73049 0.0
C624 C 0.93696 0.82111 0.72078 0.0
C625 C 0.88849 0.85056 0.7686 0.0
C626 C 0.90788 0.87113 0.67679 0.0
C627 C 0.92368 0.90203 0.67031 0.0
C628 C 0.91736 0.92218 0.6248 0.0
C629 C 0.89479 0.9102 0.58422 0.0
C630 C 0.87905 0.87802 0.5887 0.0
C631 C 0.88543 0.85852 0.63624 0.0
H632 H 0.54537 0.56975 0.72515 0.0
H633 H 0.50635 0.66518 0.66501 0.0
H634 H 0.53875 0.69577 0.73781 0.0
H635 H 0.53821 0.59024 0.86376 0.0
H636 H 0.57598 0.56889 0.88703 0.0
H637 H 0.55372 0.55414 0.82634 0.0
H638 H 0.60791 0.56019 0.76882 0.0
H639 H 0.63111 0.57435 0.82905 0.0
H640 H 0.63004 0.60004 0.7684 0.0
H641 H 0.57355 0.71555 0.81889 0.0
H642 H 0.60574 0.72289 0.90643 0.0
H643 H 0.61967 0.61435 0.91633 0.0
C644 C 0.54464 0.59713 0.72641 0.0
C645 C 0.52429 0.61536 0.689 0.0
C646 C 0.52231 0.65101 0.69318 0.0
C647 C 0.54063 0.66852 0.73417 0.0
C648 C 0.5604 0.64983 0.77085 0.0
C649 C 0.56237 0.61492 0.76759 0.0
C650 C 0.58305 0.60068 0.81486 0.0
C651 C 0.56147 0.57708 0.85004 0.0
C652 C 0.6149 0.58273 0.79405 0.0
C653 C 0.59211 0.63297 0.84552 0.0
C654 C 0.57921 0.66109 0.81902 0.0
C655 C 0.5839 0.69375 0.83989 0.0
C656 C 0.60211 0.69771 0.88938 0.0
C657 C 0.61495 0.66916 0.91735 0.0
C658 C 0.61005 0.63646 0.89519 0.0
H659 H 0.4421 0.56188 0.69971 0.0
H660 H 0.34588 0.53228 0.62662 0.0
H661 H 0.31615 0.56937 0.69275 0.0
H662 H 0.41729 0.55984 0.83306 0.0
H663 H 0.44196 0.59566 0.85679 0.0
H664 H 0.45556 0.57144 0.7986 0.0
H665 H 0.45698 0.62584 0.74207 0.0
H666 H 0.44185 0.65092 0.79826 0.0
H667 H 0.41931 0.65107 0.7333 0.0
H668 H 0.29726 0.60443 0.77295 0.0
H669 H 0.29032 0.63098 0.8639 0.0
H670 H 0.39945 0.63941 0.88252 0.0
C671 C 0.41489 0.56448 0.69628 0.0
C672 C 0.39616 0.5453 0.65745 0.0
C673 C 0.36047 0.54727 0.65598 0.0
C674 C 0.34352 0.56842 0.69296 0.0
C675 C 0.36277 0.58719 0.73098 0.0
C676 C 0.39773 0.58539 0.73286 0.0
C677 C 0.41239 0.60492 0.78138 0.0
C678 C 0.43298 0.58156 0.81971 0.0
C679 C 0.43386 0.63499 0.76255 0.0
C680 C 0.3802 0.61694 0.80776 0.0
C681 C 0.35186 0.60704 0.77762 0.0
C682 C 0.31926 0.61288 0.79634 0.0
C683 C 0.31558 0.62821 0.84797 0.0
C684 C 0.34435 0.63736 0.8804 0.0
C685 C 0.37696 0.63264 0.85887 0.0
H686 H 0.49644 0.40145 0.74911 0.0
H687 H 0.41403 0.42826 0.63801 0.0
H688 H 0.37282 0.41124 0.70707 0.0
H689 H 0.45669 0.32676 0.80111 0.0
H690 H 0.47376 0.33264 0.86956 0.0
H691 H 0.49658 0.34826 0.81175 0.0
H692 H 0.49744 0.40838 0.85509 0.0
H693 H 0.47451 0.39301 0.91298 0.0
H694 H 0.45814 0.42808 0.87384 0.0
H695 H 0.34058 0.3922 0.79012 0.0
H696 H 0.32001 0.37002 0.87776 0.0
H697 H 0.42389 0.35114 0.93051 0.0
C698 C 0.46973 0.40385 0.73912 0.0
C699 C 0.45854 0.41705 0.68823 0.0
C700 C 0.42335 0.41929 0.67696 0.0
C701 C 0.39968 0.40939 0.71595 0.0
C702 C 0.41165 0.39685 0.76585 0.0
C703 C 0.44587 0.39373 0.77726 0.0
C704 C 0.45226 0.37858 0.83325 0.0
C705 C 0.47091 0.34454 0.82861 0.0
C706 C 0.47173 0.4035 0.87101 0.0
C707 C 0.41624 0.37376 0.8517 0.0
C708 C 0.39317 0.38464 0.81249 0.0
C709 C 0.35842 0.38329 0.82093 0.0
C710 C 0.34697 0.3704 0.87077 0.0
C711 C 0.3702 0.35867 0.91138 0.0
C712 C 0.4053 0.36036 0.90112 0.0
H713 H 0.5773 0.50554 0.77373 0.0
H714 H 0.62175 0.44595 0.64418 0.0
H715 H 0.64626 0.40688 0.71294 0.0
H716 H 0.65147 0.49771 0.86458 0.0
H717 H 0.62706 0.49713 0.92632 0.0
H718 H 0.61143 0.51932 0.86694 0.0
H719 H 0.55593 0.48466 0.86919 0.0
H720 H 0.57151 0.46186 0.92814 0.0
H721 H 0.5579 0.43906 0.86733 0.0
H722 H 0.65905 0.37074 0.79304 0.0
H723 H 0.67432 0.34714 0.88243 0.0
H724 H 0.63133 0.43566 0.96271 0.0
C725 C 0.59199 0.48406 0.76012 0.0
C726 C 0.59605 0.47719 0.70371 0.0
C727 C 0.61626 0.44971 0.68705 0.0
C728 C 0.63046 0.42771 0.72568 0.0
C729 C 0.62458 0.43398 0.78084 0.0
C730 C 0.60688 0.46205 0.7984 0.0
C731 C 0.60712 0.46427 0.86056 0.0
C732 C 0.62539 0.49652 0.88081 0.0
C733 C 0.57096 0.46234 0.88259 0.0
C734 C 0.62728 0.43275 0.87484 0.0
C735 C 0.63639 0.41544 0.82806 0.0
C736 C 0.6532 0.38463 0.83011 0.0
C737 C 0.66213 0.37164 0.88145 0.0
C738 C 0.65549 0.38999 0.93045 0.0
C739 C 0.63717 0.4208 0.92669 0.0
H740 H 0.59658 0.50428 0.30386 0.0
H741 H 0.60061 0.42305 0.42257 0.0
H742 H 0.61574 0.38271 0.34966 0.0
H743 H 0.56289 0.45346 0.18856 0.0
H744 H 0.58824 0.47494 0.13888 0.0
H745 H 0.57478 0.49712 0.19953 0.0
H746 H 0.63704 0.51207 0.22414 0.0
H747 H 0.65078 0.49015 0.16359 0.0
H748 H 0.66792 0.47863 0.22984 0.0
H749 H 0.63356 0.35174 0.26516 0.0
H750 H 0.65455 0.33269 0.17538 0.0
H751 H 0.64116 0.43441 0.11227 0.0
C752 C 0.60034 0.47796 0.31443 0.0
C753 C 0.59707 0.46677 0.36896 0.0
C754 C 0.6025 0.43215 0.38108 0.0
C755 C 0.61112 0.409 0.33988 0.0
C756 C 0.61429 0.42085 0.28664 0.0
C757 C 0.60913 0.4545 0.27376 0.0
C758 C 0.61597 0.46097 0.21386 0.0
C759 C 0.58354 0.47228 0.18342 0.0
C760 C 0.64464 0.48698 0.20752 0.0
C761 C 0.62674 0.4259 0.19556 0.0
C762 C 0.62512 0.40304 0.23798 0.0
C763 C 0.63483 0.36936 0.23151 0.0
C764 C 0.64696 0.35884 0.18048 0.0
C765 C 0.6496 0.382 0.13667 0.0
C766 C 0.63892 0.41588 0.14448 0.0
H767 H 0.49953 0.60087 0.2838 0.0
H768 H 0.52348 0.68737 0.38872 0.0
H769 H 0.56161 0.70936 0.3186 0.0
H770 H 0.58256 0.5891 0.23291 0.0
H771 H 0.5687 0.57759 0.16447 0.0
H772 H 0.54191 0.56919 0.22171 0.0
H773 H 0.4933 0.60294 0.17546 0.0
H774 H 0.51977 0.61155 0.11783 0.0
H775 H 0.50053 0.64601 0.15473 0.0
H776 H 0.59834 0.72115 0.23957 0.0
H777 H 0.631 0.72284 0.15456 0.0
H778 H 0.58427 0.62838 0.10077 0.0
C779 C 0.5126 0.62457 0.29185 0.0
C780 C 0.5085 0.64245 0.34172 0.0
C781 C 0.52611 0.67331 0.35075 0.0
C782 C 0.54786 0.68601 0.3112 0.0
C783 C 0.55163 0.66761 0.26281 0.0
C784 C 0.53445 0.63764 0.25278 0.0
C785 C 0.54367 0.62256 0.19773 0.0
C786 C 0.5602 0.58755 0.20465 0.0
C787 C 0.51246 0.62067 0.15916 0.0
C788 C 0.56896 0.64867 0.17869 0.0
C789 C 0.57308 0.67441 0.21692 0.0
C790 C 0.59539 0.70118 0.20924 0.0
C791 C 0.61403 0.70175 0.16104 0.0
C792 C 0.61037 0.67565 0.12118 0.0
C793 C 0.58742 0.64883 0.13026 0.0
H794 H 0.41141 0.57816 0.33569 0.0
H795 H 0.45827 0.49066 0.26 0.0
H796 H 0.44661 0.5146 0.16866 0.0
H797 H 0.34677 0.59116 0.24607 0.0
H798 H 0.3491 0.6367 0.24327 0.0
H799 H 0.36449 0.61493 0.30316 0.0
H800 H 0.42356 0.64291 0.29402 0.0
H801 H 0.40792 0.6656 0.23492 0.0
H802 H 0.44529 0.63976 0.22989 0.0
H803 H 0.41886 0.54153 0.0882 0.0
H804 H 0.38651 0.57425 0.02136 0.0
H805 H 0.36702 0.65085 0.14633 0.0
C806 C 0.41999 0.56442 0.29997 0.0
C807 C 0.43481 0.53197 0.30483 0.0
C808 C 0.44594 0.51501 0.25716 0.0
C809 C 0.43975 0.52859 0.20512 0.0
C810 C 0.42376 0.55992 0.20164 0.0
C811 C 0.41518 0.57826 0.24774 0.0
C812 C 0.39774 0.61111 0.23228 0.0
C813 C 0.36244 0.61358 0.2577 0.0
C814 C 0.41995 0.64166 0.24875 0.0
C815 C 0.39543 0.60699 0.17045 0.0
C816 C 0.41078 0.57733 0.15385 0.0
C817 C 0.40821 0.56567 0.1001 0.0
C818 C 0.38981 0.58491 0.06205 0.0
C819 C 0.37477 0.61629 0.07709 0.0
C820 C 0.37808 0.62735 0.13244 0.0
H821 H 0.47336 0.43435 0.29309 0.0
H822 H 0.49124 0.33721 0.3704 0.0
H823 H 0.45658 0.30915 0.29825 0.0
H824 H 0.38468 0.41537 0.24912 0.0
H825 H 0.38952 0.43999 0.18783 0.0
H826 H 0.41324 0.45074 0.24926 0.0
H827 H 0.46862 0.44634 0.19025 0.0
H828 H 0.44356 0.43385 0.13116 0.0
H829 H 0.47741 0.40701 0.15551 0.0
H830 H 0.42119 0.2915 0.21703 0.0
H831 H 0.38707 0.28549 0.13155 0.0
H832 H 0.39257 0.394 0.10692 0.0
C833 C 0.46977 0.40724 0.29509 0.0
C834 C 0.48503 0.38799 0.33727 0.0
C835 C 0.47986 0.35249 0.33835 0.0
C836 C 0.46017 0.33631 0.29765 0.0
C837 C 0.44574 0.35602 0.25639 0.0
C838 C 0.45007 0.39072 0.25495 0.0
C839 C 0.43197 0.40595 0.20581 0.0
C840 C 0.40318 0.42942 0.22404 0.0
C841 C 0.45687 0.42437 0.1685 0.0
C842 C 0.41794 0.37423 0.17872 0.0
C843 C 0.42568 0.34578 0.20907 0.0
C844 C 0.41489 0.31359 0.19296 0.0
C845 C 0.39551 0.31044 0.14457 0.0
C846 C 0.38738 0.33928 0.11286 0.0
C847 C 0.39883 0.37153 0.13015 0.0
loop_
_geom_bond_atom_site_label_1
_geom_bond_atom_site_label_2
_geom_bond_distance
_geom_bond_site_symmetry_2
_ccdc_geom_bond_type
Zn0 O2 1.933 1_556 S
Zn0 O20 1.985 . S
Zn0 O31 1.955 . S
Zn1 O2 1.911 . S
Zn1 O21 1.970 . S
Zn1 O37 1.945 . S
Zn1 O44 1.981 . S
O2 Zn0 1.933 1_554 S
O2 Zn1 1.911 . S
O2 H3 0.841 1_655 S
H3 O2 0.841 1_455 S
C4 O5 1.246 . S
C4 O33 1.276 1_545 S
O5 C4 1.246 . S
Zn6 O8 1.911 . S
Zn6 O23 1.970 . S
Zn6 O40 1.945 . S
Zn6 O47 1.981 . S
Zn7 O8 1.933 1_556 S
Zn7 O22 1.985 . S
Zn7 O29 1.955 . S
O8 Zn6 1.911 . S
O8 Zn7 1.933 1_554 S
O8 H9 0.841 1_455 S
H9 O8 0.841 1_655 S
Zn10 O11 1.933 1_556 S
Zn10 O24 1.985 . S
Zn10 O33 1.955 . S
O11 Zn10 1.933 1_554 S
O11 Zn12 1.911 . S
O11 H13 0.841 1_565 S
Zn12 O11 1.911 . S
Zn12 O25 1.970 . S
Zn12 O41 1.981 . S
Zn12 O43 1.945 . S
H13 O11 0.841 1_545 S
Zn14 O15 1.933 1_556 S
Zn14 O27 1.985 . S
Zn14 O35 1.955 . S
O15 Zn14 1.933 1_554 S
O15 H16 0.841 1_545 S
O15 Zn17 1.911 . S
H16 O15 0.841 1_565 S
Zn17 O15 1.911 . S
Zn17 O28 1.970 . S
Zn17 O38 1.981 . S
Zn17 O46 1.945 . S
C18 O19 1.246 . S
C18 O35 1.276 1_565 S
O19 C18 1.246 . S
O20 Zn0 1.985 . S
O20 C30 1.245 1_556 S
O21 Zn1 1.970 . S
O21 C30 1.263 . S
O22 Zn7 1.985 . S
O22 C34 1.245 1_556 S
O23 Zn6 1.970 . S
O23 C34 1.263 . S
O24 Zn10 1.985 . S
O24 C39 1.245 1_556 S
O25 Zn12 1.970 . S
O25 C39 1.263 . S
C26 O37 1.262 1_455 S
C26 O38 1.245 . S
O27 Zn14 1.985 . S
O27 C45 1.245 1_556 S
O28 Zn17 1.970 . S
O28 C45 1.263 . S
O29 Zn7 1.955 . S
O29 C48 1.276 1_455 S
C30 O20 1.245 1_554 S
C30 O21 1.263 . S
O31 Zn0 1.955 . S
O31 C50 1.276 1_655 S
C32 O40 1.262 1_655 S
C32 O41 1.245 . S
O33 C4 1.276 1_565 S
O33 Zn10 1.955 . S
C34 O22 1.245 1_554 S
C34 O23 1.263 . S
O35 Zn14 1.955 . S
O35 C18 1.276 1_545 S
C36 O43 1.262 1_545 S
C36 O44 1.245 . S
O37 Zn1 1.945 . S
O37 C26 1.262 1_655 S
O38 Zn17 1.981 . S
O38 C26 1.245 . S
C39 O24 1.245 1_554 S
C39 O25 1.263 . S
O40 Zn6 1.945 . S
O40 C32 1.262 1_455 S
O41 Zn12 1.981 . S
O41 C32 1.245 . S
C42 O46 1.262 1_565 S
C42 O47 1.245 . S
O43 Zn12 1.945 . S
O43 C36 1.262 1_565 S
O44 Zn1 1.981 . S
O44 C36 1.245 . S
C45 O27 1.245 1_554 S
C45 O28 1.263 . S
O46 Zn17 1.945 . S
O46 C42 1.262 1_545 S
O47 Zn6 1.981 . S
O47 C42 1.245 . S
C48 O29 1.276 1_655 S
C48 O49 1.246 . S
O49 C48 1.246 . S
C50 O31 1.276 1_455 S
C50 O51 1.246 . S
O51 C50 1.246 . S
Zn52 O54 1.933 . S
Zn52 O72 1.985 . S
Zn52 O83 1.955 . S
Zn53 O54 1.911 . S
Zn53 O73 1.970 . S
Zn53 O89 1.945 . S
Zn53 O96 1.981 . S
O54 Zn52 1.933 . S
O54 Zn53 1.911 . S
O54 H55 0.841 . S
H55 O54 0.841 . S
C56 O57 1.246 . S
C56 O85 1.276 . S
O57 C56 1.246 . S
Zn58 O60 1.911 . S
Zn58 O75 1.970 . S
Zn58 O92 1.945 . S
Zn58 O99 1.981 . S
Zn59 O60 1.933 . S
Zn59 O74 1.985 . S
Zn59 O81 1.955 . S
O60 Zn58 1.911 . S
O60 Zn59 1.933 . S
O60 H61 0.841 . S
H61 O60 0.841 . S
Zn62 O63 1.933 . S
Zn62 O76 1.985 . S
Zn62 O85 1.955 . S
O63 Zn62 1.933 . S
O63 Zn64 1.911 . S
O63 H65 0.841 . S
Zn64 O63 1.911 . S
Zn64 O77 1.970 . S
Zn64 O93 1.981 . S
Zn64 O95 1.945 . S
H65 O63 0.841 . S
Zn66 O67 1.933 . S
Zn66 O79 1.985 . S
Zn66 O87 1.955 . S
O67 Zn66 1.933 . S
O67 H68 0.841 . S
O67 Zn69 1.911 . S
H68 O67 0.841 . S
Zn69 O67 1.911 . S
Zn69 O80 1.970 . S
Zn69 O90 1.981 . S
Zn69 O98 1.945 . S
C70 O71 1.246 . S
C70 O87 1.276 . S
O71 C70 1.246 . S
O72 Zn52 1.985 . S
O72 C82 1.245 . S
O73 Zn53 1.970 . S
O73 C82 1.263 . S
O74 Zn59 1.985 . S
O74 C86 1.245 . S
O75 Zn58 1.970 . S
O75 C86 1.263 . S
O76 Zn62 1.985 . S
O76 C91 1.245 . S
O77 Zn64 1.970 . S
O77 C91 1.263 . S
C78 O89 1.262 . S
C78 O90 1.245 . S
O79 Zn66 1.985 . S
O79 C97 1.245 . S
O80 Zn69 1.970 . S
O80 C97 1.263 . S
O81 Zn59 1.955 . S
O81 C100 1.276 . S
C82 O72 1.245 . S
C82 O73 1.263 . S
O83 Zn52 1.955 . S
O83 C102 1.276 . S
C84 O92 1.262 . S
C84 O93 1.245 . S
O85 C56 1.276 . S
O85 Zn62 1.955 . S
C86 O74 1.245 . S
C86 O75 1.263 . S
O87 Zn66 1.955 . S
O87 C70 1.276 . S
C88 O95 1.262 . S
C88 O96 1.245 . S
O89 Zn53 1.945 . S
O89 C78 1.262 . S
O90 Zn69 1.981 . S
O90 C78 1.245 . S
C91 O76 1.245 . S
C91 O77 1.263 . S
O92 Zn58 1.945 . S
O92 C84 1.262 . S
O93 Zn64 1.981 . S
O93 C84 1.245 . S
C94 O98 1.262 . S
C94 O99 1.245 . S
O95 Zn64 1.945 . S
O95 C88 1.262 . S
O96 Zn53 1.981 . S
O96 C88 1.245 . S
C97 O79 1.245 . S
C97 O80 1.263 . S
O98 Zn69 1.945 . S
O98 C94 1.262 . S
O99 Zn58 1.981 . S
O99 C94 1.245 . S
C100 O81 1.276 . S
C100 O101 1.246 . S
O101 C100 1.246 . S
C102 O83 1.276 . S
C102 O103 1.246 . S
O103 C102 1.246 . S
H104 C109 0.930 . S
H105 C112 0.930 . S
H106 C114 0.930 . S
H107 C108 1.016 . S
C108 H107 1.016 . S
C108 N115 1.286 1_554 S
C109 H104 0.930 . S
C109 C110 1.397 . S
C109 C111 1.363 1_556 S
C110 C109 1.397 . S
C110 C114 1.390 1_556 S
C111 C109 1.363 1_554 S
C111 C112 1.392 . S
C111 N115 1.413 1_554 S
C112 H105 0.930 . S
C112 C111 1.392 . S
C112 C113 1.399 . S
C113 C112 1.399 . S
C113 C114 1.381 . S
C114 H106 0.930 . S
C114 C110 1.390 1_554 S
C114 C113 1.381 . S
N115 C108 1.286 1_556 S
N115 C111 1.413 1_556 S
H116 C121 0.930 . S
H117 C124 0.930 . S
H118 C126 0.930 . S
H119 C120 1.016 . S
C120 H119 1.016 . S
C120 N127 1.286 1_554 S
C121 H116 0.930 . S
C121 C122 1.397 . S
C121 C123 1.361 1_556 S
C122 C121 1.397 . S
C122 C126 1.390 1_556 S
C123 C121 1.361 1_554 S
C123 C124 1.393 . S
C123 N127 1.413 1_554 S
C124 H117 0.930 . S
C124 C123 1.393 . S
C124 C125 1.399 . S
C125 C124 1.399 . S
C125 C126 1.381 . S
C126 H118 0.930 . S
C126 C122 1.390 1_554 S
C126 C125 1.381 . S
N127 C120 1.286 1_556 S
N127 C123 1.413 1_556 S
H128 C133 0.930 . S
H129 C136 0.930 . S
H130 C138 0.930 . S
H131 C132 1.016 1_556 S
C132 H131 1.016 1_554 S
C132 N139 1.286 . S
C133 H128 0.930 . S
C133 C134 1.397 . S
C133 C135 1.361 . S
C134 C133 1.397 . S
C134 C138 1.390 . S
C135 C133 1.361 . S
C135 C136 1.393 1_554 S
C135 N139 1.413 . S
C136 H129 0.930 . S
C136 C135 1.393 1_556 S
C136 C137 1.399 . S
C137 C136 1.399 . S
C137 C138 1.381 1_556 S
C138 H130 0.930 . S
C138 C134 1.390 . S
C138 C137 1.381 1_554 S
N139 C132 1.286 . S
N139 C135 1.413 . S
H140 C145 0.930 . S
H141 C148 0.930 . S
H142 C150 0.930 . S
H143 C144 1.016 . S
C144 H143 1.016 . S
C144 N151 1.286 1_554 S
C145 H140 0.930 . S
C145 C146 1.397 . S
C145 C147 1.361 . S
C146 C145 1.397 . S
C146 C150 1.390 1_556 S
C147 C145 1.361 . S
C147 C148 1.393 1_556 S
C147 N151 1.413 . S
C148 H141 0.930 . S
C148 C147 1.393 1_554 S
C148 C149 1.399 . S
C149 C148 1.399 . S
C149 C150 1.381 . S
C150 H142 0.930 . S
C150 C146 1.390 1_554 S
C150 C149 1.381 . S
N151 C144 1.286 1_556 S
N151 C147 1.413 . S
H152 C157 0.930 . S
H153 C160 0.930 . S
H154 C162 0.930 . S
H155 C156 1.016 . S
C156 H155 1.016 . S
C156 N163 1.286 . S
C157 H152 0.930 . S
C157 C158 1.397 . S
C157 C159 1.361 . S
C158 C157 1.397 . S
C158 C162 1.390 . S
C159 C157 1.361 . S
C159 C160 1.393 . S
C159 N163 1.413 . S
C160 H153 0.930 . S
C160 C159 1.393 . S
C160 C161 1.399 . S
C161 C160 1.399 . S
C161 C162 1.381 . S
C162 H154 0.930 . S
C162 C158 1.390 . S
C162 C161 1.381 . S
N163 C156 1.286 . S
N163 C159 1.413 . S
H164 C169 0.930 . S
H165 C172 0.930 . S
H166 C174 0.930 . S
H167 C168 1.016 . S
C168 H167 1.016 . S
C168 N175 1.286 . S
C169 H164 0.930 . S
C169 C170 1.397 . S
C169 C171 1.361 . S
C170 C169 1.397 . S
C170 C174 1.390 . S
C171 C169 1.361 . S
C171 C172 1.393 . S
C171 N175 1.413 . S
C172 H165 0.930 . S
C172 C171 1.393 . S
C172 C173 1.399 . S
C173 C172 1.399 . S
C173 C174 1.381 . S
C174 H166 0.930 . S
C174 C170 1.390 . S
C174 C173 1.381 . S
N175 C168 1.286 . S
N175 C171 1.413 . S
H176 C181 0.930 . S
H177 C184 0.930 . S
H178 C186 0.930 . S
H179 C180 1.016 . S
C180 H179 1.016 . S
C180 N187 1.286 . S
C181 H176 0.930 . S
C181 C182 1.397 . S
C181 C183 1.361 . S
C182 C181 1.397 . S
C182 C186 1.390 . S
C183 C181 1.361 . S
C183 C184 1.393 . S
C183 N187 1.413 . S
C184 H177 0.930 . S
C184 C183 1.393 . S
C184 C185 1.399 . S
C185 C184 1.399 . S
C185 C186 1.381 . S
C186 H178 0.930 . S
C186 C182 1.390 . S
C186 C185 1.381 . S
N187 C180 1.286 . S
N187 C183 1.413 . S
H188 C193 0.930 . S
H189 C196 0.930 . S
H190 C198 0.930 . S
H191 C192 1.016 . S
C192 H191 1.016 . S
C192 N199 1.286 . S
C193 H188 0.930 . S
C193 C194 1.397 . S
C193 C195 1.361 . S
C194 C193 1.397 . S
C194 C198 1.390 . S
C195 C193 1.361 . S
C195 C196 1.393 . S
C195 N199 1.413 . S
C196 H189 0.930 . S
C196 C195 1.393 . S
C196 C197 1.399 . S
C197 C196 1.399 . S
C197 C198 1.381 . S
C198 H190 0.930 . S
C198 C194 1.390 . S
C198 C197 1.381 . S
N199 C192 1.286 . S
N199 C195 1.413 . S
H200 C212 0.930 . S
H201 C214 0.930 . S
H202 C215 0.930 . S
H203 C219 0.959 . S
H204 C219 0.959 . S
H205 C219 0.961 . S
H206 C220 0.960 . S
H207 C220 0.961 . S
H208 C220 0.959 . S
H209 C223 0.929 . S
H210 C224 0.931 . S
H211 C226 0.930 . S
C212 H200 0.930 . S
C212 C213 1.399 . S
C212 C217 1.399 . S
C213 C212 1.399 . S
C213 C214 1.376 1_554 S
C214 H201 0.930 . S
C214 C213 1.376 1_556 S
C214 C215 1.388 . S
C215 H202 0.930 . S
C215 C214 1.388 . S
C215 C216 1.390 . S
C216 C215 1.390 . S
C216 C217 1.394 1_556 S
C216 C222 1.465 . S
C217 C212 1.399 . S
C217 C216 1.394 1_554 S
C217 C218 1.516 . S
C218 C217 1.516 . S
C218 C219 1.502 . S
C218 C220 1.561 . S
C218 C221 1.526 . S
C219 H203 0.959 . S
C219 H204 0.959 . S
C219 H205 0.961 . S
C219 C218 1.502 . S
C220 H206 0.960 . S
C220 H207 0.961 . S
C220 H208 0.959 . S
C220 C218 1.561 . S
C221 C218 1.526 . S
C221 C222 1.396 1_554 S
C221 C226 1.390 . S
C222 C216 1.465 . S
C222 C221 1.396 1_556 S
C222 C223 1.399 . S
C223 H209 0.929 . S
C223 C222 1.399 . S
C223 C224 1.385 . S
C224 H210 0.931 . S
C224 C223 1.385 . S
C224 C225 1.389 1_556 S
C225 C224 1.389 1_554 S
C225 C226 1.387 . S
C226 H211 0.930 . S
C226 C221 1.390 . S
C226 C225 1.387 . S
H227 C239 0.930 . S
H228 C241 0.930 . S
H229 C242 0.930 . S
H230 C246 0.959 . S
H231 C246 0.959 . S
H232 C246 0.961 . S
H233 C247 0.960 . S
H234 C247 0.961 . S
H235 C247 0.959 . S
H236 C250 0.929 . S
H237 C251 0.931 . S
H238 C253 0.930 . S
C239 H227 0.930 . S
C239 C240 1.399 . S
C239 C244 1.399 . S
C240 C239 1.399 . S
C240 C241 1.376 1_554 S
C241 H228 0.930 . S
C241 C240 1.376 1_556 S
C241 C242 1.388 . S
C242 H229 0.930 . S
C242 C241 1.388 . S
C242 C243 1.390 . S
C243 C242 1.390 . S
C243 C244 1.394 1_556 S
C243 C249 1.465 . S
C244 C239 1.399 . S
C244 C243 1.394 1_554 S
C244 C245 1.516 . S
C245 C244 1.516 . S
C245 C246 1.502 . S
C245 C247 1.561 . S
C245 C248 1.526 . S
C246 H230 0.959 . S
C246 H231 0.959 . S
C246 H232 0.961 . S
C246 C245 1.502 . S
C247 H233 0.960 . S
C247 H234 0.961 . S
C247 H235 0.959 . S
C247 C245 1.561 . S
C248 C245 1.526 . S
C248 C249 1.396 1_554 S
C248 C253 1.390 . S
C249 C243 1.465 . S
C249 C248 1.396 1_556 S
C249 C250 1.399 . S
C250 H236 0.929 . S
C250 C249 1.399 . S
C250 C251 1.385 . S
C251 H237 0.931 . S
C251 C250 1.385 . S
C251 C252 1.389 1_556 S
C252 C251 1.389 1_554 S
C252 C253 1.387 . S
C253 H238 0.930 . S
C253 C248 1.390 . S
C253 C252 1.387 . S
H254 C266 0.930 . S
H255 C268 0.930 . S
H256 C269 0.930 . S
H257 C273 0.959 . S
H258 C273 0.959 . S
H259 C273 0.961 . S
H260 C274 0.960 . S
H261 C274 0.961 . S
H262 C274 0.959 . S
H263 C277 0.929 . S
H264 C278 0.931 . S
H265 C280 0.930 . S
C266 H254 0.930 . S
C266 C267 1.399 . S
C266 C271 1.399 . S
C267 C266 1.399 . S
C267 C268 1.376 1_554 S
C268 H255 0.930 . S
C268 C267 1.376 1_556 S
C268 C269 1.388 . S
C269 H256 0.930 . S
C269 C268 1.388 . S
C269 C270 1.390 . S
C270 C269 1.390 . S
C270 C271 1.394 1_556 S
C270 C276 1.465 . S
C271 C266 1.399 . S
C271 C270 1.394 1_554 S
C271 C272 1.516 . S
C272 C271 1.516 . S
C272 C273 1.502 . S
C272 C274 1.561 . S
C272 C275 1.526 . S
C273 H257 0.959 . S
C273 H258 0.959 . S
C273 H259 0.961 . S
C273 C272 1.502 . S
C274 H260 0.960 . S
C274 H261 0.961 . S
C274 H262 0.959 . S
C274 C272 1.561 . S
C275 C272 1.526 . S
C275 C276 1.396 1_554 S
C275 C280 1.390 . S
C276 C270 1.465 . S
C276 C275 1.396 1_556 S
C276 C277 1.399 . S
C277 H263 0.929 . S
C277 C276 1.399 . S
C277 C278 1.385 . S
C278 H264 0.931 . S
C278 C277 1.385 . S
C278 C279 1.374 1_556 S
C279 C278 1.374 1_554 S
C279 C280 1.400 . S
C280 H265 0.930 . S
C280 C275 1.390 . S
C280 C279 1.400 . S
H281 C293 0.930 . S
H282 C295 0.930 . S
H283 C296 0.930 . S
H284 C300 0.959 1_556 S
H285 C300 0.959 . S
H286 C300 0.961 . S
H287 C301 0.960 . S
H288 C301 0.961 . S
H289 C301 0.959 . S
H290 C304 0.929 . S
H291 C305 0.931 . S
H292 C307 0.930 . S
C293 H281 0.930 . S
C293 C294 1.399 . S
C293 C298 1.399 . S
C294 C293 1.399 . S
C294 C295 1.376 1_554 S
C295 H282 0.930 . S
C295 C294 1.376 1_556 S
C295 C296 1.388 . S
C296 H283 0.930 . S
C296 C295 1.388 . S
C296 C297 1.390 1_556 S
C297 C296 1.390 1_554 S
C297 C298 1.394 . S
C297 C303 1.465 . S
C298 C293 1.399 . S
C298 C297 1.394 . S
C298 C299 1.516 . S
C299 C298 1.516 . S
C299 C300 1.502 . S
C299 C301 1.561 . S
C299 C302 1.526 . S
C300 H284 0.959 1_554 S
C300 H285 0.959 . S
C300 H286 0.961 . S
C300 C299 1.502 . S
C301 H287 0.960 . S
C301 H288 0.961 . S
C301 H289 0.959 . S
C301 C299 1.561 . S
C302 C299 1.526 . S
C302 C303 1.396 . S
C302 C307 1.390 . S
C303 C297 1.465 . S
C303 C302 1.396 . S
C303 C304 1.399 1_554 S
C304 H290 0.929 . S
C304 C303 1.399 1_556 S
C304 C305 1.385 . S
C305 H291 0.931 . S
C305 C304 1.385 . S
C305 C306 1.389 1_556 S
C306 C305 1.389 1_554 S
C306 C307 1.387 . S
C307 H292 0.930 . S
C307 C302 1.390 . S
C307 C306 1.387 . S
H308 C320 0.930 . S
H309 C322 0.930 . S
H310 C323 0.930 . S
H311 C327 0.959 . S
H312 C327 0.959 . S
H313 C327 0.961 . S
H314 C328 0.960 . S
H315 C328 0.961 . S
H316 C328 0.959 . S
H317 C331 0.929 . S
H318 C332 0.931 . S
H319 C334 0.930 . S
C320 H308 0.930 . S
C320 C321 1.399 . S
C320 C325 1.399 . S
C321 C320 1.399 . S
C321 C322 1.376 . S
C322 H309 0.930 . S
C322 C321 1.376 . S
C322 C323 1.388 . S
C323 H310 0.930 . S
C323 C322 1.388 . S
C323 C324 1.390 . S
C324 C323 1.390 . S
C324 C325 1.394 . S
C324 C330 1.465 . S
C325 C320 1.399 . S
C325 C324 1.394 . S
C325 C326 1.516 . S
C326 C325 1.516 . S
C326 C327 1.502 . S
C326 C328 1.561 . S
C326 C329 1.526 . S
C327 H311 0.959 . S
C327 H312 0.959 . S
C327 H313 0.961 . S
C327 C326 1.502 . S
C328 H314 0.960 . S
C328 H315 0.961 . S
C328 H316 0.959 . S
C328 C326 1.561 . S
C329 C326 1.526 . S
C329 C330 1.396 . S
C329 C334 1.390 . S
C330 C324 1.465 . S
C330 C329 1.396 . S
C330 C331 1.399 . S
C331 H317 0.929 . S
C331 C330 1.399 . S
C331 C332 1.385 . S
C332 H318 0.931 . S
C332 C331 1.385 . S
C332 C333 1.389 . S
C333 C332 1.389 . S
C333 C334 1.387 . S
C334 H319 0.930 . S
C334 C329 1.390 . S
C334 C333 1.387 . S
H335 C347 0.930 . S
H336 C349 0.930 . S
H337 C350 0.930 . S
H338 C354 0.959 . S
H339 C354 0.959 . S
H340 C354 0.961 . S
H341 C355 0.960 . S
H342 C355 0.961 . S
H343 C355 0.959 . S
H344 C358 0.929 . S
H345 C359 0.931 . S
H346 C361 0.930 . S
C347 H335 0.930 . S
C347 C348 1.399 . S
C347 C352 1.399 . S
C348 C347 1.399 . S
C348 C349 1.376 . S
C349 H336 0.930 . S
C349 C348 1.376 . S
C349 C350 1.388 . S
C350 H337 0.930 . S
C350 C349 1.388 . S
C350 C351 1.390 . S
C351 C350 1.390 . S
C351 C352 1.394 . S
C351 C357 1.465 . S
C352 C347 1.399 . S
C352 C351 1.394 . S
C352 C353 1.516 . S
C353 C352 1.516 . S
C353 C354 1.502 . S
C353 C355 1.561 . S
C353 C356 1.526 . S
C354 H338 0.959 . S
C354 H339 0.959 . S
C354 H340 0.961 . S
C354 C353 1.502 . S
C355 H341 0.960 . S
C355 H342 0.961 . S
C355 H343 0.959 . S
C355 C353 1.561 . S
C356 C353 1.526 . S
C356 C357 1.396 . S
C356 C361 1.390 . S
C357 C351 1.465 . S
C357 C356 1.396 . S
C357 C358 1.399 . S
C358 H344 0.929 . S
C358 C357 1.399 . S
C358 C359 1.385 . S
C359 H345 0.931 . S
C359 C358 1.385 . S
C359 C360 1.389 . S
C360 C359 1.389 . S
C360 C361 1.387 . S
C361 H346 0.930 . S
C361 C356 1.390 . S
C361 C360 1.387 . S
H362 C374 0.930 . S
H363 C376 0.930 . S
H364 C377 0.930 . S
H365 C381 0.959 . S
H366 C381 0.959 . S
H367 C381 0.961 . S
H368 C382 0.960 . S
H369 C382 0.961 . S
H370 C382 0.959 . S
H371 C385 0.929 . S
H372 C386 0.931 . S
H373 C388 0.930 . S
C374 H362 0.930 . S
C374 C375 1.399 . S
C374 C379 1.399 . S
C375 C374 1.399 . S
C375 C376 1.376 . S
C376 H363 0.930 . S
C376 C375 1.376 . S
C376 C377 1.388 . S
C377 H364 0.930 . S
C377 C376 1.388 . S
C377 C378 1.390 . S
C378 C377 1.390 . S
C378 C379 1.394 . S
C378 C384 1.465 . S
C379 C374 1.399 . S
C379 C378 1.394 . S
C379 C380 1.516 . S
C380 C379 1.516 . S
C380 C381 1.502 . S
C380 C382 1.561 . S
C380 C383 1.526 . S
C381 H365 0.959 . S
C381 H366 0.959 . S
C381 H367 0.961 . S
C381 C380 1.502 . S
C382 H368 0.960 . S
C382 H369 0.961 . S
C382 H370 0.959 . S
C382 C380 1.561 . S
C383 C380 1.526 . S
C383 C384 1.396 . S
C383 C388 1.390 . S
C384 C378 1.465 . S
C384 C383 1.396 . S
C384 C385 1.399 . S
C385 H371 0.929 . S
C385 C384 1.399 . S
C385 C386 1.385 . S
C386 H372 0.931 . S
C386 C385 1.385 . S
C386 C387 1.389 . S
C387 C386 1.389 . S
C387 C388 1.387 . S
C388 H373 0.930 . S
C388 C383 1.390 . S
C388 C387 1.387 . S
H389 C401 0.930 . S
H390 C403 0.930 . S
H391 C404 0.930 . S
H392 C408 0.959 . S
H393 C408 0.959 . S
H394 C408 0.961 . S
H395 C409 0.960 . S
H396 C409 0.961 . S
H397 C409 0.959 . S
H398 C412 0.929 . S
H399 C413 0.931 . S
H400 C415 0.930 . S
C401 H389 0.930 . S
C401 C402 1.399 . S
C401 C406 1.399 . S
C402 C401 1.399 . S
C402 C403 1.376 . S
C403 H390 0.930 . S
C403 C402 1.376 . S
C403 C404 1.388 . S
C404 H391 0.930 . S
C404 C403 1.388 . S
C404 C405 1.390 . S
C405 C404 1.390 . S
C405 C406 1.394 . S
C405 C411 1.465 . S
C406 C401 1.399 . S
C406 C405 1.394 . S
C406 C407 1.516 . S
C407 C406 1.516 . S
C407 C408 1.502 . S
C407 C409 1.561 . S
C407 C410 1.526 . S
C408 H392 0.959 . S
C408 H393 0.959 . S
C408 H394 0.961 . S
C408 C407 1.502 . S
C409 H395 0.960 . S
C409 H396 0.961 . S
C409 H397 0.959 . S
C409 C407 1.561 . S
C410 C407 1.526 . S
C410 C411 1.396 . S
C410 C415 1.390 . S
C411 C405 1.465 . S
C411 C410 1.396 . S
C411 C412 1.399 . S
C412 H398 0.929 . S
C412 C411 1.399 . S
C412 C413 1.385 . S
C413 H399 0.931 . S
C413 C412 1.385 . S
C413 C414 1.389 . S
C414 C413 1.389 . S
C414 C415 1.387 . S
C415 H400 0.930 . S
C415 C410 1.390 . S
C415 C414 1.387 . S
H416 C428 0.930 . S
H417 C430 0.930 1_655 S
H418 C431 0.930 . S
H419 C435 0.959 . S
H420 C435 0.959 . S
H421 C435 0.961 . S
H422 C436 0.960 . S
H423 C436 0.961 . S
H424 C436 0.959 . S
H425 C439 0.929 . S
H426 C440 0.931 . S
H427 C442 0.930 . S
C428 H416 0.930 . S
C428 C429 1.399 . S
C428 C433 1.399 . S
C429 C428 1.399 . S
C429 C430 1.376 . S
C430 H417 0.930 1_455 S
C430 C429 1.376 . S
C430 C431 1.388 . S
C431 H418 0.930 . S
C431 C430 1.388 . S
C431 C432 1.390 . S
C432 C431 1.390 . S
C432 C433 1.394 . S
C432 C438 1.465 . S
C433 C428 1.399 . S
C433 C432 1.394 . S
C433 C434 1.516 . S
C434 C433 1.516 . S
C434 C435 1.502 . S
C434 C436 1.561 . S
C434 C437 1.526 . S
C435 H419 0.959 . S
C435 H420 0.959 . S
C435 H421 0.961 . S
C435 C434 1.502 . S
C436 H422 0.960 . S
C436 H423 0.961 . S
C436 H424 0.959 . S
C436 C434 1.561 . S
C437 C434 1.526 . S
C437 C438 1.396 . S
C437 C442 1.390 . S
C438 C432 1.465 . S
C438 C437 1.396 . S
C438 C439 1.399 . S
C439 H425 0.929 . S
C439 C438 1.399 . S
C439 C440 1.385 . S
C440 H426 0.931 . S
C440 C439 1.385 . S
C440 C441 1.389 . S
C441 C440 1.389 . S
C441 C442 1.387 . S
C442 H427 0.930 . S
C442 C437 1.390 . S
C442 C441 1.387 . S
H443 C455 0.930 . S
H444 C457 0.930 1_565 S
H445 C458 0.930 1_565 S
H446 C462 0.959 . S
H447 C462 0.959 . S
H448 C462 0.961 . S
H449 C463 0.960 . S
H450 C463 0.961 . S
H451 C463 0.959 . S
H452 C466 0.929 . S
H453 C467 0.931 . S
H454 C469 0.930 . S
C455 H443 0.930 . S
C455 C456 1.399 . S
C455 C460 1.399 . S
C456 C455 1.399 . S
C456 C457 1.376 . S
C457 H444 0.930 1_545 S
C457 C456 1.376 . S
C457 C458 1.388 . S
C458 H445 0.930 1_545 S
C458 C457 1.388 . S
C458 C459 1.390 . S
C459 C458 1.390 . S
C459 C460 1.394 . S
C459 C465 1.465 . S
C460 C455 1.399 . S
C460 C459 1.394 . S
C460 C461 1.516 . S
C461 C460 1.516 . S
C461 C462 1.502 . S
C461 C463 1.561 . S
C461 C464 1.526 . S
C462 H446 0.959 . S
C462 H447 0.959 . S
C462 H448 0.961 . S
C462 C461 1.502 . S
C463 H449 0.960 . S
C463 H450 0.961 . S
C463 H451 0.959 . S
C463 C461 1.561 . S
C464 C461 1.526 . S
C464 C465 1.396 . S
C464 C469 1.390 . S
C465 C459 1.465 . S
C465 C464 1.396 . S
C465 C466 1.399 . S
C466 H452 0.929 . S
C466 C465 1.399 . S
C466 C467 1.385 . S
C467 H453 0.931 . S
C467 C466 1.385 . S
C467 C468 1.389 . S
C468 C467 1.389 . S
C468 C469 1.387 . S
C469 H454 0.930 . S
C469 C464 1.390 . S
C469 C468 1.387 . S
H470 C482 0.930 . S
H471 C484 0.930 . S
H472 C485 0.930 . S
H473 C489 0.959 . S
H474 C489 0.959 . S
H475 C489 0.961 . S
H476 C490 0.960 . S
H477 C490 0.961 . S
H478 C490 0.959 . S
H479 C493 0.929 . S
H480 C494 0.931 . S
H481 C496 0.930 . S
C482 H470 0.930 . S
C482 C483 1.399 . S
C482 C487 1.399 . S
C483 C482 1.399 . S
C483 C484 1.376 . S
C484 H471 0.930 . S
C484 C483 1.376 . S
C484 C485 1.388 . S
C485 H472 0.930 . S
C485 C484 1.388 . S
C485 C486 1.390 . S
C486 C485 1.390 . S
C486 C487 1.394 . S
C486 C492 1.465 . S
C487 C482 1.399 . S
C487 C486 1.394 . S
C487 C488 1.516 . S
C488 C487 1.516 . S
C488 C489 1.502 . S
C488 C490 1.561 . S
C488 C491 1.526 . S
C489 H473 0.959 . S
C489 H474 0.959 . S
C489 H475 0.961 . S
C489 C488 1.502 . S
C490 H476 0.960 . S
C490 H477 0.961 . S
C490 H478 0.959 . S
C490 C488 1.561 . S
C491 C488 1.526 . S
C491 C492 1.396 . S
C491 C496 1.390 . S
C492 C486 1.465 . S
C492 C491 1.396 . S
C492 C493 1.399 . S
C493 H479 0.929 . S
C493 C492 1.399 . S
C493 C494 1.385 . S
C494 H480 0.931 . S
C494 C493 1.385 . S
C494 C495 1.389 . S
C495 C494 1.389 . S
C495 C496 1.387 . S
C496 H481 0.930 . S
C496 C491 1.390 . S
C496 C495 1.387 . S
H497 C509 0.930 1_545 S
H498 C511 0.930 . S
H499 C512 0.930 . S
H500 C516 0.959 1_565 S
H501 C516 0.959 . S
H502 C516 0.961 . S
H503 C517 0.960 1_545 S
H504 C517 0.961 1_545 S
H505 C517 0.959 . S
H506 C520 0.929 . S
H507 C521 0.931 . S
H508 C523 0.930 . S
C509 H497 0.930 1_565 S
C509 C510 1.399 . S
C509 C514 1.399 . S
C510 C509 1.399 . S
C510 C511 1.376 . S
C511 H498 0.930 . S
C511 C510 1.376 . S
C511 C512 1.388 . S
C512 H499 0.930 . S
C512 C511 1.388 . S
C512 C513 1.390 . S
C513 C512 1.390 . S
C513 C514 1.394 . S
C513 C519 1.465 . S
C514 C509 1.399 . S
C514 C513 1.394 . S
C514 C515 1.516 . S
C515 C514 1.516 . S
C515 C516 1.502 1_565 S
C515 C517 1.561 . S
C515 C518 1.526 . S
C516 H500 0.959 1_545 S
C516 H501 0.959 . S
C516 H502 0.961 . S
C516 C515 1.502 1_545 S
C517 H503 0.960 1_565 S
C517 H504 0.961 1_565 S
C517 H505 0.959 . S
C517 C515 1.561 . S
C518 C515 1.526 . S
C518 C519 1.396 . S
C518 C523 1.390 . S
C519 C513 1.465 . S
C519 C518 1.396 . S
C519 C520 1.399 . S
C520 H506 0.929 . S
C520 C519 1.399 . S
C520 C521 1.385 . S
C521 H507 0.931 . S
C521 C520 1.385 . S
C521 C522 1.389 . S
C522 C521 1.389 . S
C522 C523 1.387 . S
C523 H508 0.930 . S
C523 C518 1.390 . S
C523 C522 1.387 . S
H524 C536 0.930 . S
H525 C538 0.930 1_545 S
H526 C539 0.930 1_545 S
H527 C543 0.959 . S
H528 C543 0.959 . S
H529 C543 0.961 . S
H530 C544 0.960 . S
H531 C544 0.961 . S
H532 C544 0.959 . S
H533 C547 0.929 . S
H534 C548 0.931 . S
H535 C550 0.930 . S
C536 H524 0.930 . S
C536 C537 1.399 . S
C536 C541 1.399 . S
C537 C536 1.399 . S
C537 C538 1.376 . S
C538 H525 0.930 1_565 S
C538 C537 1.376 . S
C538 C539 1.388 . S
C539 H526 0.930 1_565 S
C539 C538 1.388 . S
C539 C540 1.390 . S
C540 C539 1.390 . S
C540 C541 1.394 . S
C540 C546 1.465 . S
C541 C536 1.399 . S
C541 C540 1.394 . S
C541 C542 1.516 . S
C542 C541 1.516 . S
C542 C543 1.502 . S
C542 C544 1.561 . S
C542 C545 1.526 . S
C543 H527 0.959 . S
C543 H528 0.959 . S
C543 H529 0.961 . S
C543 C542 1.502 . S
C544 H530 0.960 . S
C544 H531 0.961 . S
C544 H532 0.959 . S
C544 C542 1.561 . S
C545 C542 1.526 . S
C545 C546 1.396 . S
C545 C550 1.390 . S
C546 C540 1.465 . S
C546 C545 1.396 . S
C546 C547 1.399 . S
C547 H533 0.929 . S
C547 C546 1.399 . S
C547 C548 1.385 . S
C548 H534 0.931 . S
C548 C547 1.385 . S
C548 C549 1.389 . S
C549 C548 1.389 . S
C549 C550 1.387 . S
C550 H535 0.930 . S
C550 C545 1.390 . S
C550 C549 1.387 . S
H551 C563 0.930 . S
H552 C565 0.930 . S
H553 C566 0.930 . S
H554 C570 0.959 . S
H555 C570 0.959 . S
H556 C570 0.961 . S
H557 C571 0.960 . S
H558 C571 0.961 . S
H559 C571 0.959 . S
H560 C574 0.929 . S
H561 C575 0.931 . S
H562 C577 0.930 . S
C563 H551 0.930 . S
C563 C564 1.399 . S
C563 C568 1.399 . S
C564 C563 1.399 . S
C564 C565 1.376 . S
C565 H552 0.930 . S
C565 C564 1.376 . S
C565 C566 1.388 . S
C566 H553 0.930 . S
C566 C565 1.388 . S
C566 C567 1.390 . S
C567 C566 1.390 . S
C567 C568 1.394 . S
C567 C573 1.465 . S
C568 C563 1.399 . S
C568 C567 1.394 . S
C568 C569 1.516 . S
C569 C568 1.516 . S
C569 C570 1.502 . S
C569 C571 1.561 . S
C569 C572 1.526 . S
C570 H554 0.959 . S
C570 H555 0.959 . S
C570 H556 0.961 . S
C570 C569 1.502 . S
C571 H557 0.960 . S
C571 H558 0.961 . S
C571 H559 0.959 . S
C571 C569 1.561 . S
C572 C569 1.526 . S
C572 C573 1.396 . S
C572 C577 1.390 . S
C573 C567 1.465 . S
C573 C572 1.396 . S
C573 C574 1.399 . S
C574 H560 0.929 . S
C574 C573 1.399 . S
C574 C575 1.385 . S
C575 H561 0.931 . S
C575 C574 1.385 . S
C575 C576 1.389 . S
C576 C575 1.389 . S
C576 C577 1.387 . S
C577 H562 0.930 . S
C577 C572 1.390 . S
C577 C576 1.387 . S
H578 C590 0.930 . S
H579 C592 0.930 1_565 S
H580 C593 0.930 1_565 S
H581 C597 0.959 . S
H582 C597 0.959 . S
H583 C597 0.961 . S
H584 C598 0.960 . S
H585 C598 0.961 . S
H586 C598 0.959 . S
H587 C601 0.929 . S
H588 C602 0.931 . S
H589 C604 0.930 . S
C590 H578 0.930 . S
C590 C591 1.399 . S
C590 C595 1.399 . S
C591 C590 1.399 . S
C591 C592 1.376 . S
C592 H579 0.930 1_545 S
C592 C591 1.376 . S
C592 C593 1.388 . S
C593 H580 0.930 1_545 S
C593 C592 1.388 . S
C593 C594 1.390 . S
C594 C593 1.390 . S
C594 C595 1.394 . S
C594 C600 1.465 . S
C595 C590 1.399 . S
C595 C594 1.394 . S
C595 C596 1.516 . S
C596 C595 1.516 . S
C596 C597 1.502 . S
C596 C598 1.561 . S
C596 C599 1.526 . S
C597 H581 0.959 . S
C597 H582 0.959 . S
C597 H583 0.961 . S
C597 C596 1.502 . S
C598 H584 0.960 . S
C598 H585 0.961 . S
C598 H586 0.959 . S
C598 C596 1.561 . S
C599 C596 1.526 . S
C599 C600 1.396 . S
C599 C604 1.390 . S
C600 C594 1.465 . S
C600 C599 1.396 . S
C600 C601 1.399 . S
C601 H587 0.929 . S
C601 C600 1.399 . S
C601 C602 1.385 . S
C602 H588 0.931 . S
C602 C601 1.385 . S
C602 C603 1.389 . S
C603 C602 1.389 . S
C603 C604 1.387 . S
C604 H589 0.930 . S
C604 C599 1.390 . S
C604 C603 1.387 . S
H605 C617 0.930 . S
H606 C619 0.930 . S
H607 C620 0.930 . S
H608 C624 0.959 . S
H609 C624 0.959 . S
H610 C624 0.961 . S
H611 C625 0.960 . S
H612 C625 0.961 . S
H613 C625 0.959 . S
H614 C628 0.929 . S
H615 C629 0.931 . S
H616 C631 0.930 . S
C617 H605 0.930 . S
C617 C618 1.399 . S
C617 C622 1.399 . S
C618 C617 1.399 . S
C618 C619 1.376 . S
C619 H606 0.930 . S
C619 C618 1.376 . S
C619 C620 1.388 . S
C620 H607 0.930 . S
C620 C619 1.388 . S
C620 C621 1.390 . S
C621 C620 1.390 . S
C621 C622 1.394 . S
C621 C627 1.465 . S
C622 C617 1.399 . S
C622 C621 1.394 . S
C622 C623 1.516 . S
C623 C622 1.516 . S
C623 C624 1.502 . S
C623 C625 1.561 . S
C623 C626 1.526 . S
C624 H608 0.959 . S
C624 H609 0.959 . S
C624 H610 0.961 . S
C624 C623 1.502 . S
C625 H611 0.960 . S
C625 H612 0.961 . S
C625 H613 0.959 . S
C625 C623 1.561 . S
C626 C623 1.526 . S
C626 C627 1.396 . S
C626 C631 1.390 . S
C627 C621 1.465 . S
C627 C626 1.396 . S
C627 C628 1.399 . S
C628 H614 0.929 . S
C628 C627 1.399 . S
C628 C629 1.385 . S
C629 H615 0.931 . S
C629 C628 1.385 . S
C629 C630 1.389 . S
C630 C629 1.389 . S
C630 C631 1.387 . S
C631 H616 0.930 . S
C631 C626 1.390 . S
C631 C630 1.387 . S
H632 C644 0.930 . S
H633 C646 0.930 . S
H634 C647 0.930 . S
H635 C651 0.959 . S
H636 C651 0.959 . S
H637 C651 0.961 . S
H638 C652 0.960 . S
H639 C652 0.961 . S
H640 C652 0.959 . S
H641 C655 0.929 . S
H642 C656 0.931 . S
H643 C658 0.930 . S
C644 H632 0.930 . S
C644 C645 1.399 . S
C644 C649 1.399 . S
C645 C644 1.399 . S
C645 C646 1.376 . S
C646 H633 0.930 . S
C646 C645 1.376 . S
C646 C647 1.388 . S
C647 H634 0.930 . S
C647 C646 1.388 . S
C647 C648 1.390 . S
C648 C647 1.390 . S
C648 C649 1.394 . S
C648 C654 1.465 . S
C649 C644 1.399 . S
C649 C648 1.394 . S
C649 C650 1.516 . S
C650 C649 1.516 . S
C650 C651 1.502 . S
C650 C652 1.561 . S
C650 C653 1.526 . S
C651 H635 0.959 . S
C651 H636 0.959 . S
C651 H637 0.961 . S
C651 C650 1.502 . S
C652 H638 0.960 . S
C652 H639 0.961 . S
C652 H640 0.959 . S
C652 C650 1.561 . S
C653 C650 1.526 . S
C653 C654 1.396 . S
C653 C658 1.390 . S
C654 C648 1.465 . S
C654 C653 1.396 . S
C654 C655 1.399 . S
C655 H641 0.929 . S
C655 C654 1.399 . S
C655 C656 1.385 . S
C656 H642 0.931 . S
C656 C655 1.385 . S
C656 C657 1.389 . S
C657 C656 1.389 . S
C657 C658 1.387 . S
C658 H643 0.930 . S
C658 C653 1.390 . S
C658 C657 1.387 . S
H659 C671 0.930 . S
H660 C673 0.930 . S
H661 C674 0.930 . S
H662 C678 0.959 . S
H663 C678 0.959 . S
H664 C678 0.961 . S
H665 C679 0.960 . S
H666 C679 0.961 . S
H667 C679 0.959 . S
H668 C682 0.929 . S
H669 C683 0.931 . S
H670 C685 0.930 . S
C671 H659 0.930 . S
C671 C672 1.399 . S
C671 C676 1.399 . S
C672 C671 1.399 . S
C672 C673 1.376 . S
C673 H660 0.930 . S
C673 C672 1.376 . S
C673 C674 1.388 . S
C674 H661 0.930 . S
C674 C673 1.388 . S
C674 C675 1.390 . S
C675 C674 1.390 . S
C675 C676 1.394 . S
C675 C681 1.465 . S
C676 C671 1.399 . S
C676 C675 1.394 . S
C676 C677 1.516 . S
C677 C676 1.516 . S
C677 C678 1.502 . S
C677 C679 1.561 . S
C677 C680 1.526 . S
C678 H662 0.959 . S
C678 H663 0.959 . S
C678 H664 0.961 . S
C678 C677 1.502 . S
C679 H665 0.960 . S
C679 H666 0.961 . S
C679 H667 0.959 . S
C679 C677 1.561 . S
C680 C677 1.526 . S
C680 C681 1.396 . S
C680 C685 1.390 . S
C681 C675 1.465 . S
C681 C680 1.396 . S
C681 C682 1.399 . S
C682 H668 0.929 . S
C682 C681 1.399 . S
C682 C683 1.385 . S
C683 H669 0.931 . S
C683 C682 1.385 . S
C683 C684 1.389 . S
C684 C683 1.389 . S
C684 C685 1.387 . S
C685 H670 0.930 . S
C685 C680 1.390 . S
C685 C684 1.387 . S
H686 C698 0.930 . S
H687 C700 0.930 . S
H688 C701 0.930 . S
H689 C705 0.959 . S
H690 C705 0.959 . S
H691 C705 0.961 . S
H692 C706 0.960 . S
H693 C706 0.961 . S
H694 C706 0.959 . S
H695 C709 0.929 . S
H696 C710 0.931 . S
H697 C712 0.930 . S
C698 H686 0.930 . S
C698 C699 1.399 . S
C698 C703 1.399 . S
C699 C698 1.399 . S
C699 C700 1.376 . S
C700 H687 0.930 . S
C700 C699 1.376 . S
C700 C701 1.388 . S
C701 H688 0.930 . S
C701 C700 1.388 . S
C701 C702 1.390 . S
C702 C701 1.390 . S
C702 C703 1.394 . S
C702 C708 1.465 . S
C703 C698 1.399 . S
C703 C702 1.394 . S
C703 C704 1.516 . S
C704 C703 1.516 . S
C704 C705 1.502 . S
C704 C706 1.561 . S
C704 C707 1.526 . S
C705 H689 0.959 . S
C705 H690 0.959 . S
C705 H691 0.961 . S
C705 C704 1.502 . S
C706 H692 0.960 . S
C706 H693 0.961 . S
C706 H694 0.959 . S
C706 C704 1.561 . S
C707 C704 1.526 . S
C707 C708 1.396 . S
C707 C712 1.390 . S
C708 C702 1.465 . S
C708 C707 1.396 . S
C708 C709 1.399 . S
C709 H695 0.929 . S
C709 C708 1.399 . S
C709 C710 1.385 . S
C710 H696 0.931 . S
C710 C709 1.385 . S
C710 C711 1.389 . S
C711 C710 1.389 . S
C711 C712 1.387 . S
C712 H697 0.930 . S
C712 C707 1.390 . S
C712 C711 1.387 . S
H713 C725 0.930 . S
H714 C727 0.930 . S
H715 C728 0.930 . S
H716 C732 0.959 . S
H717 C732 0.959 . S
H718 C732 0.961 . S
H719 C733 0.960 . S
H720 C733 0.961 . S
H721 C733 0.959 . S
H722 C736 0.929 . S
H723 C737 0.931 . S
H724 C739 0.930 . S
C725 H713 0.930 . S
C725 C726 1.399 . S
C725 C730 1.399 . S
C726 C725 1.399 . S
C726 C727 1.376 . S
C727 H714 0.930 . S
C727 C726 1.376 . S
C727 C728 1.388 . S
C728 H715 0.930 . S
C728 C727 1.388 . S
C728 C729 1.390 . S
C729 C728 1.390 . S
C729 C730 1.394 . S
C729 C735 1.465 . S
C730 C725 1.399 . S
C730 C729 1.394 . S
C730 C731 1.516 . S
C731 C730 1.516 . S
C731 C732 1.502 . S
C731 C733 1.561 . S
C731 C734 1.526 . S
C732 H716 0.959 . S
C732 H717 0.959 . S
C732 H718 0.961 . S
C732 C731 1.502 . S
C733 H719 0.960 . S
C733 H720 0.961 . S
C733 H721 0.959 . S
C733 C731 1.561 . S
C734 C731 1.526 . S
C734 C735 1.396 . S
C734 C739 1.390 . S
C735 C729 1.465 . S
C735 C734 1.396 . S
C735 C736 1.399 . S
C736 H722 0.929 . S
C736 C735 1.399 . S
C736 C737 1.385 . S
C737 H723 0.931 . S
C737 C736 1.385 . S
C737 C738 1.389 . S
C738 C737 1.389 . S
C738 C739 1.387 . S
C739 H724 0.930 . S
C739 C734 1.390 . S
C739 C738 1.387 . S
H740 C752 0.930 . S
H741 C754 0.930 . S
H742 C755 0.930 . S
H743 C759 0.959 . S
H744 C759 0.959 . S
H745 C759 0.961 . S
H746 C760 0.960 . S
H747 C760 0.961 . S
H748 C760 0.959 . S
H749 C763 0.929 . S
H750 C764 0.931 . S
H751 C766 0.930 . S
C752 H740 0.930 . S
C752 C753 1.399 . S
C752 C757 1.399 . S
C753 C752 1.399 . S
C753 C754 1.376 . S
C754 H741 0.930 . S
C754 C753 1.376 . S
C754 C755 1.388 . S
C755 H742 0.930 . S
C755 C754 1.388 . S
C755 C756 1.390 . S
C756 C755 1.390 . S
C756 C757 1.394 . S
C756 C762 1.465 . S
C757 C752 1.399 . S
C757 C756 1.394 . S
C757 C758 1.516 . S
C758 C757 1.516 . S
C758 C759 1.502 . S
C758 C760 1.561 . S
C758 C761 1.526 . S
C759 H743 0.959 . S
C759 H744 0.959 . S
C759 H745 0.961 . S
C759 C758 1.502 . S
C760 H746 0.960 . S
C760 H747 0.961 . S
C760 H748 0.959 . S
C760 C758 1.561 . S
C761 C758 1.526 . S
C761 C762 1.396 . S
C761 C766 1.390 . S
C762 C756 1.465 . S
C762 C761 1.396 . S
C762 C763 1.399 . S
C763 H749 0.929 . S
C763 C762 1.399 . S
C763 C764 1.385 . S
C764 H750 0.931 . S
C764 C763 1.385 . S
C764 C765 1.389 . S
C765 C764 1.389 . S
C765 C766 1.387 . S
C766 H751 0.930 . S
C766 C761 1.390 . S
C766 C765 1.387 . S
H767 C779 0.930 . S
H768 C781 0.930 . S
H769 C782 0.930 . S
H770 C786 0.959 . S
H771 C786 0.959 . S
H772 C786 0.961 . S
H773 C787 0.960 . S
H774 C787 0.961 . S
H775 C787 0.959 . S
H776 C790 0.929 . S
H777 C791 0.931 . S
H778 C793 0.930 . S
C779 H767 0.930 . S
C779 C780 1.399 . S
C779 C784 1.399 . S
C780 C779 1.399 . S
C780 C781 1.376 . S
C781 H768 0.930 . S
C781 C780 1.376 . S
C781 C782 1.388 . S
C782 H769 0.930 . S
C782 C781 1.388 . S
C782 C783 1.390 . S
C783 C782 1.390 . S
C783 C784 1.394 . S
C783 C789 1.465 . S
C784 C779 1.399 . S
C784 C783 1.394 . S
C784 C785 1.516 . S
C785 C784 1.516 . S
C785 C786 1.502 . S
C785 C787 1.561 . S
C785 C788 1.526 . S
C786 H770 0.959 . S
C786 H771 0.959 . S
C786 H772 0.961 . S
C786 C785 1.502 . S
C787 H773 0.960 . S
C787 H774 0.961 . S
C787 H775 0.959 . S
C787 C785 1.561 . S
C788 C785 1.526 . S
C788 C789 1.396 . S
C788 C793 1.390 . S
C789 C783 1.465 . S
C789 C788 1.396 . S
C789 C790 1.399 . S
C790 H776 0.929 . S
C790 C789 1.399 . S
C790 C791 1.385 . S
C791 H777 0.931 . S
C791 C790 1.385 . S
C791 C792 1.389 . S
C792 C791 1.389 . S
C792 C793 1.387 . S
C793 H778 0.930 . S
C793 C788 1.390 . S
C793 C792 1.387 . S
H794 C806 0.930 . S
H795 C808 0.930 . S
H796 C809 0.930 . S
H797 C813 0.959 . S
H798 C813 0.959 . S
H799 C813 0.961 . S
H800 C814 0.960 . S
H801 C814 0.961 . S
H802 C814 0.959 . S
H803 C817 0.929 . S
H804 C818 0.931 . S
H805 C820 0.930 . S
C806 H794 0.930 . S
C806 C807 1.399 . S
C806 C811 1.399 . S
C807 C806 1.399 . S
C807 C808 1.376 . S
C808 H795 0.930 . S
C808 C807 1.376 . S
C808 C809 1.388 . S
C809 H796 0.930 . S
C809 C808 1.388 . S
C809 C810 1.390 . S
C810 C809 1.390 . S
C810 C811 1.394 . S
C810 C816 1.465 . S
C811 C806 1.399 . S
C811 C810 1.394 . S
C811 C812 1.516 . S
C812 C811 1.516 . S
C812 C813 1.502 . S
C812 C814 1.561 . S
C812 C815 1.526 . S
C813 H797 0.959 . S
C813 H798 0.959 . S
C813 H799 0.961 . S
C813 C812 1.502 . S
C814 H800 0.960 . S
C814 H801 0.961 . S
C814 H802 0.959 . S
C814 C812 1.561 . S
C815 C812 1.526 . S
C815 C816 1.396 . S
C815 C820 1.390 . S
C816 C810 1.465 . S
C816 C815 1.396 . S
C816 C817 1.399 . S
C817 H803 0.929 . S
C817 C816 1.399 . S
C817 C818 1.385 . S
C818 H804 0.931 . S
C818 C817 1.385 . S
C818 C819 1.389 . S
C819 C818 1.389 . S
C819 C820 1.387 . S
C820 H805 0.930 . S
C820 C815 1.390 . S
C820 C819 1.387 . S
H821 C833 0.930 . S
H822 C835 0.930 . S
H823 C836 0.930 . S
H824 C840 0.959 . S
H825 C840 0.959 . S
H826 C840 0.961 . S
H827 C841 0.960 . S
H828 C841 0.961 . S
H829 C841 0.959 . S
H830 C844 0.929 . S
H831 C845 0.931 . S
H832 C847 0.930 . S
C833 H821 0.930 . S
C833 C834 1.399 . S
C833 C838 1.399 . S
C834 C833 1.399 . S
C834 C835 1.376 . S
C835 H822 0.930 . S
C835 C834 1.376 . S
C835 C836 1.388 . S
C836 H823 0.930 . S
C836 C835 1.388 . S
C836 C837 1.390 . S
C837 C836 1.390 . S
C837 C838 1.394 . S
C837 C843 1.465 . S
C838 C833 1.399 . S
C838 C837 1.394 . S
C838 C839 1.516 . S
C839 C838 1.516 . S
C839 C840 1.502 . S
C839 C841 1.561 . S
C839 C842 1.526 . S
C840 H824 0.959 . S
C840 H825 0.959 . S
C840 H826 0.961 . S
C840 C839 1.502 . S
C841 H827 0.960 . S
C841 H828 0.961 . S
C841 H829 0.959 . S
C841 C839 1.561 . S
C842 C839 1.526 . S
C842 C843 1.396 . S
C842 C847 1.390 . S
C843 C837 1.465 . S
C843 C842 1.396 . S
C843 C844 1.399 . S
C844 H830 0.929 . S
C844 C843 1.399 . S
C844 C845 1.385 . S
C845 H831 0.931 . S
C845 C844 1.385 . S
C845 C846 1.389 . S
C846 C845 1.389 . S
C846 C847 1.387 . S
C847 H832 0.930 . S
C847 C842 1.390 . S
C847 C846 1.387 . S
C213 C45 1.536 . S
C225 C108 1.580 . S
C240 C30 1.542 . S
C252 C120 1.581 . S
C267 C39 1.541 . S
C279 C132 1.552 . S
C306 C144 1.580 . S
C294 C34 1.533 . S
C321 C97 1.533 . S
C333 C156 1.581 . S
C360 C168 1.549 . S
C348 C82 1.544 . S
C387 C180 1.538 . S
C375 C91 1.551 . S
C414 C192 1.549 . S
C402 C86 1.574 . S
C441 C185 1.544 . S
C429 C26 1.447 . S
C468 C194 1.519 . S
C456 C36 1.422 . S
C495 C158 1.525 . S
C483 C32 1.473 . S
C522 C173 1.547 . S
C510 C42 1.540 . S
C537 C18 1.535 . S
C549 C170 1.621 . S
C576 C182 1.619 . S
C564 C50 1.605 . S
C591 C4 1.607 . S
C603 C197 1.631 . S
C618 C48 1.611 . S
C630 C161 1.593 . S
C657 C137 1.576 . S
C645 C78 1.488 . S
C672 C88 1.440 . S
C684 C146 1.525 . S
C711 C110 1.530 . S
C699 C84 1.514 . S
C738 C122 1.463 . S
C726 C94 1.444 . S
C765 C125 1.676 . S
C753 C70 1.613 . S
C792 C134 1.622 . S
C780 C102 1.498 . S
C807 C56 1.594 . S
C819 C149 1.623 . S
C834 C100 1.517 . S
C846 C113 1.624 . S
