# Generated by pormake.
# Topology zzz, (3,6)-cn, num edge types: 1
# Building blocks:
#     Node 0, Type 0, BuildingBlock: MIDCAF_clean_linker_0, # of connection points: 3
#     Node 1, Type 0, BuildingBlock: MIDCAF_clean_linker_0, # of connection points: 3
#     Node 2, Type 0, BuildingBlock: MIDCAF_clean_linker_0, # of connection points: 3
#     Node 3, Type 0, BuildingBlock: MIDCAF_clean_linker_0, # of connection points: 3
#     Node 4, Type 0, BuildingBlock: MIDCAF_clean_linker_0, # of connection points: 3
#     Node 5, Type 0, BuildingBlock: MIDCAF_clean_linker_0, # of connection points: 3
#     Node 6, Type 0, BuildingBlock: MIDCAF_clean_linker_0, # of connection points: 3
#     Node 7, Type 0, BuildingBlock: MIDCAF_clean_linker_0, # of connection points: 3
#     Node 8, Type 1, BuildingBlock: KUMBOL_clean_sbu_0, # of connection points: 6
#     Node 9, Type 1, BuildingBlock: KUMBOL_clean_sbu_0, # of connection points: 6
#     Node 10, Type 1, BuildingBlock: KUMBOL_clean_sbu_0, # of connection points: 6
#     Node 11, Type 1, BuildingBlock: KUMBOL_clean_sbu_0, # of connection points: 6
#     Edge 12, Type (0, 1), BuildingBlock: CIFDUS_clean_linker_0, # of connection points: 2
#     Edge 13, Type (0, 1), BuildingBlock: CIFDUS_clean_linker_0, # of connection points: 2
#     Edge 14, Type (0, 1), BuildingBlock: CIFDUS_clean_linker_0, # of connection points: 2
#     Edge 15, Type (0, 1), BuildingBlock: CIFDUS_clean_linker_0, # of connection points: 2
#     Edge 16, Type (0, 1), BuildingBlock: CIFDUS_clean_linker_0, # of connection points: 2
#     Edge 17, Type (0, 1), BuildingBlock: CIFDUS_clean_linker_0, # of connection points: 2
#     Edge 18, Type (0, 1), BuildingBlock: CIFDUS_clean_linker_0, # of connection points: 2
#     Edge 19, Type (0, 1), BuildingBlock: CIFDUS_clean_linker_0, # of connection points: 2
#     Edge 20, Type (0, 1), BuildingBlock: CIFDUS_clean_linker_0, # of connection points: 2
#     Edge 21, Type (0, 1), BuildingBlock: CIFDUS_clean_linker_0, # of connection points: 2
#     Edge 22, Type (0, 1), BuildingBlock: CIFDUS_clean_linker_0, # of connection points: 2
#     Edge 23, Type (0, 1), BuildingBlock: CIFDUS_clean_linker_0, # of connection points: 2
#     Edge 24, Type (0, 1), BuildingBlock: CIFDUS_clean_linker_0, # of connection points: 2
#     Edge 25, Type (0, 1), BuildingBlock: CIFDUS_clean_linker_0, # of connection points: 2
#     Edge 26, Type (0, 1), BuildingBlock: CIFDUS_clean_linker_0, # of connection points: 2
#     Edge 27, Type (0, 1), BuildingBlock: CIFDUS_clean_linker_0, # of connection points: 2
#     Edge 28, Type (0, 1), BuildingBlock: CIFDUS_clean_linker_0, # of connection points: 2
#     Edge 29, Type (0, 1), BuildingBlock: CIFDUS_clean_linker_0, # of connection points: 2
#     Edge 30, Type (0, 1), BuildingBlock: CIFDUS_clean_linker_0, # of connection points: 2
#     Edge 31, Type (0, 1), BuildingBlock: CIFDUS_clean_linker_0, # of connection points: 2
#     Edge 32, Type (0, 1), BuildingBlock: CIFDUS_clean_linker_0, # of connection points: 2
#     Edge 33, Type (0, 1), BuildingBlock: CIFDUS_clean_linker_0, # of connection points: 2
#     Edge 34, Type (0, 1), BuildingBlock: CIFDUS_clean_linker_0, # of connection points: 2
#     Edge 35, Type (0, 1), BuildingBlock: CIFDUS_clean_linker_0, # of connection points: 2
# Relax obj value: 0.314
# Max RMSD: 0.226
# Mean RMSD: 0.214
data_MOF--net-zzz--node1-KUMBOL_clean_sbu_0--node2-MIDCAF_clean_linker_0--edge1-CIFDUS_clean_linker_0
_symmetry_space_group_name_H-M    P1
_symmetry_Int_Tables_number       1
_symmetry_cell_setting            triclinic
loop_
_symmetry_equiv_pos_as_xyz
'x, y, z'
_cell_length_a     50.110791
_cell_length_b     50.030514
_cell_length_c     17.557714
_cell_angle_alpha  91.139817
_cell_angle_beta   90.261806
_cell_angle_gamma 89.903476
loop_
_atom_site_label
_atom_site_type_symbol
_atom_site_fract_x
_atom_site_fract_y
_atom_site_fract_z
_atom_type_partial_charge
C0 C 0.80447 0.57698 0.46713 0.0
C1 C 0.81926 0.55365 0.45059 0.0
C2 C 0.81101 0.53732 0.38855 0.0
C3 C 0.78945 0.54484 0.34198 0.0
H4 H 0.70089 0.53344 0.20595 0.0
H5 H 0.66125 0.51897 0.13374 0.0
H6 H 0.64631 0.60076 0.07113 0.0
H7 H 0.68603 0.6148 0.14058 0.0
H8 H 0.74985 0.6235 0.04275 0.0
H9 H 0.78375 0.62602 0.94468 0.0
H10 H 0.84457 0.63485 0.1181 0.0
H11 H 0.81088 0.63262 0.21607 0.0
H12 H 0.77371 0.60387 0.43034 0.0
H13 H 0.81039 0.59018 0.51382 0.0
H14 H 0.82187 0.51918 0.37432 0.0
H15 H 0.78476 0.53276 0.29182 0.0
N16 N 0.73557 0.57245 0.27042 0.0
N17 N 0.73643 0.60311 0.17032 0.0
N18 N 0.7727 0.60049 0.25349 0.0
C19 C 0.72326 0.58405 0.20934 0.0
C20 C 0.76115 0.61135 0.19143 0.0
C21 C 0.76023 0.58135 0.29364 0.0
C22 C 0.69677 0.57524 0.17886 0.0
C23 C 0.68881 0.54831 0.1779 0.0
C24 C 0.66607 0.54005 0.13612 0.0
C25 C 0.65065 0.55858 0.09485 0.0
C26 C 0.65796 0.58569 0.09975 0.0
C27 C 0.68068 0.59382 0.14057 0.0
C28 C 0.77793 0.62614 0.13725 0.0
C29 C 0.77026 0.62737 0.06019 0.0
C30 C 0.7897 0.62896 1.00366 0.0
C31 C 0.81687 0.62929 0.02384 0.0
C32 C 0.82383 0.63403 0.10057 0.0
C33 C 0.80443 0.63243 0.15708 0.0
C34 C 0.77581 0.56899 0.35587 0.0
C35 C 0.78327 0.58472 0.41972 0.0
C36 C 0.96387 0.83014 0.43757 0.0
C37 C 0.99039 0.83873 0.44822 0.0
C38 C 1.01069 0.8238 0.41099 0.0
C39 C 1.00444 0.80243 0.36027 0.0
H40 H 0.98742 0.69853 0.24437 0.0
H41 H 0.99959 0.65659 0.17724 0.0
H42 H 1.0002 0.69809 0.96396 0.0
H43 H 0.98783 0.73922 0.03007 0.0
H44 H 0.93095 0.77275 1.01008 0.0
H45 H 0.92809 0.80573 0.91047 0.0
H46 H 0.92996 0.86894 0.0821 0.0
H47 H 0.93098 0.83628 0.18048 0.0
H48 H 0.93687 0.80431 0.37661 0.0
H49 H 0.94749 0.84093 0.46394 0.0
H50 H 0.03144 0.82926 0.41861 0.0
H51 H 0.02034 0.79289 0.32817 0.0
N52 N 0.98133 0.75726 0.24852 0.0
N53 N 0.95707 0.76085 0.1337 0.0
N54 N 0.95244 0.7937 0.22835 0.0
C55 C 0.97439 0.74701 0.17782 0.0
C56 C 0.94598 0.78411 0.15822 0.0
C57 C 0.96984 0.78076 0.27413 0.0
C58 C 0.98646 0.72229 0.14282 0.0
C59 C 0.99067 0.6987 0.18344 0.0
C60 C 0.99751 0.67463 0.14464 0.0
C61 C 1.00036 0.67364 0.06442 0.0
C62 C 0.99742 0.69764 0.02505 0.0
C63 C 0.99056 0.72142 0.06342 0.0
C64 C 0.93288 0.80196 0.10298 0.0
C65 C 0.92957 0.79369 0.02654 0.0
C66 C 0.9281 0.81267 0.96928 0.0
C67 C 0.93065 0.84008 0.98766 0.0
C68 C 0.92867 0.84811 0.06477 0.0
C69 C 0.92954 0.82918 0.12193 0.0
C70 C 0.97773 0.7954 0.34564 0.0
C71 C 0.9577 0.8089 0.3873 0.0
C72 C 0.71415 0.96999 0.45138 0.0
C73 C 0.7068 0.99691 0.46349 0.0
C74 C 0.72301 1.01671 0.43075 0.0
C75 C 0.74489 1.00968 0.38394 0.0
H76 H 0.84966 0.94362 0.19405 0.0
H77 H 0.88721 0.95538 0.11331 0.0
H78 H 0.86095 0.03762 0.11762 0.0
H79 H 0.82319 0.02556 0.19822 0.0
H80 H 0.78601 0.93504 0.04156 0.0
H81 H 0.75901 0.93548 0.92627 0.0
H82 H 0.68802 0.94416 0.06451 0.0
H83 H 0.71459 0.94167 0.17758 0.0
H84 H 0.7396 0.94204 0.39284 0.0
H85 H 0.70223 0.95403 0.47424 0.0
H86 H 0.71832 0.03768 0.43933 0.0
H87 H 0.7558 0.02528 0.35575 0.0
N88 N 0.79315 0.98329 0.28915 0.0
N89 N 0.79376 0.95855 0.17332 0.0
N90 N 0.75567 0.95833 0.24877 0.0
C91 C 0.80652 0.97451 0.22509 0.0
C92 C 0.76831 0.95059 0.18405 0.0
C93 C 0.76766 0.97433 0.30187 0.0
C94 C 0.83362 0.98372 0.20355 0.0
C95 C 0.85263 0.96444 0.18061 0.0
C96 C 0.87413 0.97119 0.13375 0.0
C97 C 0.877 0.99739 0.10736 0.0
C98 C 0.8592 1.01713 0.13561 0.0
C99 C 0.83778 1.01037 0.18316 0.0
C100 C 0.75256 0.93984 0.11874 0.0
C101 C 0.76451 0.93593 0.04705 0.0
C102 C 0.74897 0.9365 0.9807 0.0
C103 C 0.72135 0.94161 0.98502 0.0
C104 C 0.70918 0.94075 0.05724 0.0
C105 C 0.72461 0.93956 0.12325 0.0
C106 C 0.751 0.98267 0.3685 0.0
C107 C 0.73576 0.96305 0.40458 0.0
C108 C 0.63745 0.71535 0.1056 0.0
C109 C 0.6207 0.71337 0.04103 0.0
C110 C 0.60864 0.73695 1.01463 0.0
C111 C 0.60944 0.76045 0.05878 0.0
H112 H 0.61487 0.86121 0.18046 0.0
H113 H 0.59952 0.89727 0.09894 0.0
H114 H 0.51918 0.86668 0.10977 0.0
H115 H 0.53461 0.83087 0.19298 0.0
H116 H 0.53976 0.7603 0.33007 0.0
H117 H 0.53091 0.72225 0.41128 0.0
H118 H 0.60893 0.73175 0.51424 0.0
H119 H 0.61797 0.76881 0.43 0.0
H120 H 0.64765 0.73843 0.20564 0.0
H121 H 0.64821 0.69807 0.12574 0.0
H122 H 0.59578 0.7367 0.96498 0.0
H123 H 0.59728 0.77719 0.04119 0.0
N124 N 0.6024 0.80357 0.17198 0.0
N125 N 0.57865 0.8067 0.28747 0.0
N126 N 0.6047 0.76874 0.2582 0.0
C127 C 0.58653 0.81778 0.22056 0.0
C128 C 0.58852 0.78228 0.30712 0.0
C129 C 0.61153 0.77903 0.19034 0.0
C130 C 0.57586 0.84348 0.19362 0.0
C131 C 0.59374 0.86294 0.16814 0.0
C132 C 0.58496 0.88353 0.12126 0.0
C133 C 0.5582 0.88465 0.09726 0.0
C134 C 0.53996 0.86623 0.12706 0.0
C135 C 0.54868 0.84593 0.17536 0.0
C136 C 0.57939 0.76773 0.37457 0.0
C137 C 0.55447 0.75494 0.37256 0.0
C138 C 0.54952 0.73294 0.41893 0.0
C139 C 0.56942 0.72332 0.4685 0.0
C140 C 0.59336 0.73795 0.47543 0.0
C141 C 0.5984 0.75962 0.42831 0.0
C142 C 0.62172 0.76057 0.13073 0.0
C143 C 0.63749 0.73861 0.15103 0.0
C144 C 0.2319 0.46419 0.87127 0.0
C145 C 0.22147 0.49034 0.87508 0.0
C146 C 0.23553 0.50962 0.9194 0.0
C147 C 0.25815 0.50246 0.9625 0.0
H148 H 0.34095 0.51937 0.11312 0.0
H149 H 0.38007 0.53548 0.18555 0.0
H150 H 0.4043 0.45383 0.22213 0.0
H151 H 0.36539 0.43805 0.15161 0.0
H152 H 0.30045 0.43617 0.28312 0.0
H153 H 0.26646 0.43822 0.38104 0.0
H154 H 0.20734 0.41163 0.2177 0.0
H155 H 0.24102 0.4103 0.11846 0.0
H156 H 0.26047 0.4363 0.9144 0.0
H157 H 0.22233 0.44886 0.83645 0.0
H158 H 0.2282 0.52993 0.92457 0.0
H159 H 0.26728 0.51726 1.00015 0.0
N160 N 0.30927 0.47674 0.04175 0.0
N161 N 0.31246 0.44813 0.14643 0.0
N162 N 0.27437 0.44708 0.06997 0.0
C163 C 0.32356 0.46697 0.10204 0.0
C164 C 0.28787 0.43823 0.13151 0.0
C165 C 0.28473 0.46603 0.02453 0.0
C166 C 0.35007 0.47745 0.12658 0.0
C167 C 0.35513 0.50498 0.1347 0.0
C168 C 0.37746 0.51416 0.17679 0.0
C169 C 0.39511 0.49595 0.21148 0.0
C170 C 0.39085 0.46848 0.19842 0.0
C171 C 0.36867 0.45941 0.15696 0.0
C172 C 0.27299 0.42464 0.1921 0.0
C173 C 0.28058 0.42922 0.26856 0.0
C174 C 0.26116 0.43019 0.32525 0.0
C175 C 0.23432 0.42591 0.3059 0.0
C176 C 0.22796 0.41526 0.23357 0.0
C177 C 0.24726 0.41475 0.17649 0.0
C178 C 0.26716 0.47586 0.96259 0.0
C179 C 0.25418 0.45704 0.91492 0.0
C180 C 0.07043 0.2201 0.88729 0.0
C181 C 0.04281 0.21547 0.88085 0.0
C182 C 0.02549 0.23527 0.91194 0.0
C183 C 0.03549 0.25743 0.95419 0.0
H184 H 0.03346 0.34744 0.0738 0.0
H185 H 0.02007 0.38996 0.13511 0.0
H186 H 0.08756 0.3844 0.2884 0.0
H187 H 0.10147 0.34406 0.22531 0.0
H188 H 0.10468 0.2838 0.29568 0.0
H189 H 0.10393 0.24817 0.38699 0.0
H190 H 0.12502 0.19106 0.20972 0.0
H191 H 0.12535 0.22673 0.11748 0.0
H192 H 0.10171 0.24389 0.9364 0.0
H193 H 0.08469 0.20567 0.86538 0.0
H194 H 1.00408 0.23313 0.90667 0.0
H195 H 0.0216 0.27084 0.98267 0.0
N196 N 0.06568 0.30213 0.05148 0.0
N197 N 0.09315 0.30022 0.1607 0.0
N198 N 0.09151 0.26386 0.0765 0.0
C199 C 0.07606 0.31428 0.11626 0.0
C200 C 0.10099 0.27514 0.14153 0.0
C201 C 0.07407 0.27677 0.03091 0.0
C202 C 0.0684 0.34182 0.14465 0.0
C203 C 0.04566 0.35573 0.11949 0.0
C204 C 0.03786 0.38008 0.15552 0.0
C205 C 0.05253 0.39112 0.21783 0.0
C206 C 0.07576 0.37749 0.24023 0.0
C207 C 0.0836 0.35366 0.20412 0.0
C208 C 0.11361 0.25779 0.19866 0.0
C209 C 0.1105 0.26392 0.27659 0.0
C210 C 0.11022 0.24341 0.32935 0.0
C211 C 0.11324 0.21669 0.3046 0.0
C212 C 0.12183 0.21144 0.22972 0.0
C213 C 0.12195 0.23191 0.17687 0.0
C214 C 0.06307 0.26053 0.96569 0.0
C215 C 0.08031 0.24226 0.92846 0.0
C216 C 0.33019 0.03618 0.92717 0.0
C217 C 0.33603 0.05032 0.86037 0.0
C218 C 0.31714 0.06956 0.83688 0.0
C219 C 0.29482 0.07608 0.88211 0.0
H220 H 0.21293 0.03368 0.09432 0.0
H221 H 0.17432 0.02099 0.17129 0.0
H222 H 0.16828 0.10207 0.25848 0.0
H223 H 0.20623 0.11463 0.18145 0.0
H224 H 0.27119 0.1212 0.26965 0.0
H225 H 0.30539 0.12134 0.36827 0.0
H226 H 0.36617 0.11585 0.19425 0.0
H227 H 0.33246 0.11795 0.09733 0.0
H228 H 0.30518 0.03257 0.02529 0.0
H229 H 0.34397 0.02159 0.94932 0.0
H230 H 0.32007 0.08055 0.78517 0.0
H231 H 0.28228 0.09272 0.86605 0.0
N232 N 0.25018 0.07006 0.03604 0.0
N233 N 0.25486 0.09962 0.14165 0.0
N234 N 0.28977 0.0945 0.05548 0.0
C235 C 0.23954 0.08225 0.09997 0.0
C236 C 0.28002 0.10575 0.1202 0.0
C237 C 0.27531 0.077 1.01273 0.0
C238 C 0.21289 0.07513 0.1319 0.0
C239 C 0.20286 0.04891 0.12824 0.0
C240 C 0.18088 0.0416 0.17322 0.0
C241 C 0.16823 0.0604 0.22234 0.0
C242 C 0.17721 0.08699 0.22149 0.0
C243 C 0.19919 0.09418 0.17732 0.0
C244 C 0.29905 0.11789 0.17566 0.0
C245 C 0.29194 0.12127 0.25259 0.0
C246 C 0.31163 0.12098 0.30932 0.0
C247 C 0.33858 0.11665 0.28989 0.0
C248 C 0.34575 0.11846 0.21267 0.0
C249 C 0.32617 0.11944 0.15623 0.0
C250 C 0.29013 0.06297 0.95083 0.0
C251 C 0.30757 0.04229 0.97113 0.0
C252 C 0.41707 0.33465 0.23812 0.0
C253 C 0.4249 0.32812 0.31251 0.0
C254 C 0.42814 0.30097 0.33004 0.0
C255 C 0.42857 0.28151 0.27179 0.0
H256 H 0.42841 0.19238 0.13116 0.0
H257 H 0.44036 0.15266 0.20201 0.0
H258 H 0.52362 0.17413 0.18765 0.0
H259 H 0.51142 0.21373 0.11463 0.0
H260 H 0.50873 0.27016 0.93929 0.0
H261 H 0.52465 0.3041 0.85112 0.0
H262 H 0.44748 0.34284 0.86192 0.0
H263 H 0.43166 0.30864 0.94471 0.0
H264 H 0.4141 0.3215 0.12206 0.0
H265 H 0.41408 0.35525 0.22232 0.0
H266 H 0.43339 0.29519 0.38733 0.0
H267 H 0.43425 0.26131 0.28598 0.0
N268 N 0.44501 0.24684 0.14649 0.0
N269 N 0.46911 0.24566 0.03115 0.0
N270 N 0.44465 0.28386 0.0683 0.0
C271 C 0.46064 0.23329 0.09578 0.0
C272 C 0.46042 0.27106 1.01662 0.0
C273 C 0.43703 0.27217 0.13342 0.0
C274 C 0.469 0.20598 0.1167 0.0
C275 C 0.44934 0.18807 0.14084 0.0
C276 C 0.45619 0.16553 0.18255 0.0
C277 C 0.48291 0.16043 0.2023 0.0
C278 C 0.50283 0.17735 0.1734 0.0
C279 C 0.49592 0.19993 0.13097 0.0
C280 C 0.46899 0.28675 0.94966 0.0
C281 C 0.49502 0.28542 0.92031 0.0
C282 C 0.50422 0.30522 0.87067 0.0
C283 C 0.48761 0.32678 0.84949 0.0
C284 C 0.46104 0.32671 0.87513 0.0
C285 C 0.45192 0.30702 0.92372 0.0
C286 C 0.42557 0.289 0.19545 0.0
C287 C 0.41736 0.31522 0.18009 0.0
Gd288 Gd 0.99298 0.02988 0.60226 0.0
Gd289 Gd 0.05271 0.02086 0.72262 0.0
C290 C 0.07828 0.09448 0.86583 0.0
C291 C 0.12167 0.10465 0.81302 0.0
C292 C 0.09592 0.06691 0.76296 0.0
C293 C 0.07567 0.07274 0.8136 0.0
C294 C 0.11948 0.0824 0.76346 0.0
C295 C 0.1011 0.11069 0.86411 0.0
C296 C 0.05814 0.09903 0.91925 0.0
C297 C 0.03638 0.0818 0.92095 0.0
N298 N 0.05377 0.05676 0.81348 0.0
C299 C 0.03458 0.06063 0.86801 0.0
H300 H 1.01732 0.04805 0.87086 0.0
C301 C 0.11478 0.03626 0.67465 0.0
N302 N 0.09332 0.04513 0.71644 0.0
C303 C 0.13835 0.0511 0.67242 0.0
C304 C 0.14057 0.07453 0.71615 0.0
H305 H 0.11354 1.01782 0.64156 0.0
H306 H 0.10327 0.12758 0.90321 0.0
H307 H 0.0268 1.01039 0.44162 0.0
H308 H 0.05939 0.11551 0.96008 0.0
H309 H 0.0208 0.08493 0.96269 0.0
H310 H 0.13949 0.11689 0.81369 0.0
H311 H 0.93136 0.02851 0.67893 0.0
H312 H 0.99 0.94066 0.3477 0.0
H313 H 0.02485 0.97541 0.34378 0.0
H314 H 0.91377 0.92817 0.50502 0.0
H315 H 0.15485 0.04429 0.6375 0.0
H316 H 0.15896 0.08588 0.715 0.0
H317 H 0.9493 0.92256 0.41004 0.0
H318 H 0.89273 0.9983 0.68414 0.0
N319 N 0.99338 0.99622 0.50466 0.0
C320 C 0.99062 0.95621 0.39151 0.0
C321 C 1.01028 0.97578 0.38912 0.0
C322 C 0.97156 0.95735 0.44924 0.0
C323 C 0.97321 0.97809 0.505 0.0
C324 C 1.01133 0.99573 0.44594 0.0
N325 N 0.95425 1.00266 0.60656 0.0
C326 C 0.95329 0.98115 0.5585 0.0
C327 C 0.90981 0.99291 0.64955 0.0
C328 C 0.90967 0.96935 0.60589 0.0
C329 C 0.93195 1.0098 0.64719 0.0
C330 C 0.93114 0.96367 0.5576 0.0
H331 H 0.89232 0.95647 0.60679 0.0
O332 O 0.95959 0.05701 0.58775 0.0
O333 O 0.02522 0.05036 0.66977 0.0
O334 O 1.01576 1.01054 0.79163 0.0
O335 O 0.97778 1.01749 0.71717 0.0
O336 O 0.9869 0.06484 0.68421 0.0
O337 O 0.98708 0.0499 0.49507 0.0
O338 O 0.08557 0.99401 0.74678 0.0
O339 O 0.0211 0.99991 0.65223 0.0
O340 O 0.02986 0.04292 0.53595 0.0
O341 O 0.06793 0.03313 0.60761 0.0
O342 O 0.06039 0.98716 0.63942 0.0
O343 O 0.05431 1.00014 0.82989 0.0
C344 C 1.01158 0.06857 0.70229 0.0
C345 C 0.9304 0.94198 0.50573 0.0
C346 C 0.95056 0.93886 0.45148 0.0
C347 C 0.96778 0.06486 0.5217 0.0
C348 C 0.97064 0.09402 0.51367 0.0
C349 C 0.95255 0.1116 0.54988 0.0
C350 C 0.99223 0.10462 0.47357 0.0
C351 C 0.99643 0.13223 0.47262 0.0
C352 C 0.95654 0.13921 0.54795 0.0
C353 C 0.97858 0.14954 0.51015 0.0
C354 C 0.9895 1.01122 0.78193 0.0
C355 C 0.03609 0.98294 0.61836 0.0
C356 C 0.07558 0.98658 0.81105 0.0
C357 C 0.07497 0.95767 0.82273 0.0
C358 C 0.09863 0.94468 0.84325 0.0
C359 C 0.05132 0.94291 0.81301 0.0
C360 C 0.05115 0.91524 0.82593 0.0
C361 C 0.09872 0.91723 0.85495 0.0
C362 C 0.07517 0.9026 0.84691 0.0
C363 C 0.05615 0.04116 0.54468 0.0
H364 H 0.93559 0.10396 0.58063 0.0
H365 H 1.00612 0.09148 0.44411 0.0
H366 H 0.94262 0.15261 0.5763 0.0
H367 H 0.98151 0.17099 0.50923 0.0
H368 H 0.11703 0.95583 0.85044 0.0
H369 H 0.03314 0.95296 0.79589 0.0
H370 H 0.11701 0.90731 0.87144 0.0
H371 H 0.07571 0.88149 0.85931 0.0
Gd372 Gd 0.52023 0.99576 0.58938 0.0
Gd373 Gd 0.52202 0.05543 0.71655 0.0
C374 C 0.45254 0.08501 0.86492 0.0
C375 C 0.44305 0.12833 0.81102 0.0
C376 C 0.47825 0.10019 0.7576 0.0
C377 C 0.47297 0.08084 0.81068 0.0
C378 C 0.46359 0.12432 0.7579 0.0
C379 C 0.43752 0.10871 0.86433 0.0
C380 C 0.44784 0.06532 0.91851 0.0
C381 C 0.46355 0.04236 0.91807 0.0
N382 N 0.4879 0.0581 0.80984 0.0
C383 C 0.4837 0.03915 0.86387 0.0
H384 H 0.49505 0.02095 0.86529 0.0
C385 C 0.50583 0.11551 0.65869 0.0
N386 N 0.49825 0.09584 0.70713 0.0
C387 C 0.49174 0.13961 0.65635 0.0
C388 C 0.47038 0.14396 0.70579 0.0
H389 H 0.5225 0.11226 0.62069 0.0
H390 H 0.42172 0.11215 0.90535 0.0
H391 H 0.5415 0.0242 0.42547 0.0
H392 H 0.43224 0.06771 0.96065 0.0
H393 H 0.46012 0.02699 0.95944 0.0
H394 H 0.43153 0.14669 0.81192 0.0
H395 H 0.51762 0.93441 0.66237 0.0
H396 H 0.61554 0.98904 0.3606 0.0
H397 H 0.57978 0.02227 0.34051 0.0
H398 H 0.62338 0.91457 0.52576 0.0
H399 H 0.49746 0.15485 0.61673 0.0
H400 H 0.4596 0.16274 0.70429 0.0
H401 H 0.63216 0.94934 0.43193 0.0
H402 H 0.54693 0.8951 0.67828 0.0
N403 N 0.55571 0.99389 0.49953 0.0
C404 C 0.59879 0.99006 0.39937 0.0
C405 C 0.57869 1.00883 0.38795 0.0
C406 C 0.59631 0.97194 0.45839 0.0
C407 C 0.57407 0.97417 0.50732 0.0
C408 C 0.55703 1.01017 0.43786 0.0
N409 N 0.54602 0.95612 0.59869 0.0
C410 C 0.56919 0.95474 0.55957 0.0
C411 C 0.55365 0.91188 0.64548 0.0
C412 C 0.57868 0.91126 0.61097 0.0
C413 C 0.53719 0.93421 0.63671 0.0
C414 C 0.58635 0.93244 0.56513 0.0
H415 H 0.59128 0.89379 0.61681 0.0
O416 O 0.49539 0.96232 0.55288 0.0
O417 O 0.49673 0.02383 0.66324 0.0
O418 O 0.53106 0.01901 0.78603 0.0
O419 O 0.5354 0.98183 0.70416 0.0
O420 O 0.48657 0.98402 0.66734 0.0
O421 O 0.49672 0.99796 0.48558 0.0
O422 O 0.55025 0.08779 0.73409 0.0
O423 O 0.54612 0.02627 0.64619 0.0
O424 O 0.51441 0.0353 0.52644 0.0
O425 O 0.49592 0.06461 0.61577 0.0
O426 O 0.55373 0.06642 0.63109 0.0
O427 O 0.5429 0.05965 0.82448 0.0
C428 C 0.48054 1.00762 0.69243 0.0
C429 C 0.60972 0.93128 0.52134 0.0
C430 C 0.61467 0.95102 0.46781 0.0
C431 C 0.48473 0.97535 0.49723 0.0
C432 C 0.45536 0.9752 0.49394 0.0
C433 C 0.44191 0.95067 0.49051 0.0
C434 C 0.44061 0.99915 0.49419 0.0
C435 C 0.41261 0.9987 0.48703 0.0
C436 C 0.41415 0.94999 0.48608 0.0
C437 C 0.39958 0.97375 0.48346 0.0
C438 C 0.5361 0.9934 0.77271 0.0
C439 C 0.56124 0.04251 0.61302 0.0
C440 C 0.55797 0.07897 0.79992 0.0
C441 C 0.58696 0.07576 0.80896 0.0
C442 C 0.60298 0.09853 0.8174 0.0
C443 C 0.59887 0.05029 0.8073 0.0
C444 C 0.62658 0.04739 0.81831 0.0
C445 C 0.63054 0.09594 0.82573 0.0
C446 C 0.64228 0.07063 0.82703 0.0
C447 C 0.50117 0.05755 0.54456 0.0
H448 H 0.45292 0.93201 0.49095 0.0
H449 H 0.45096 1.0181 0.49913 0.0
H450 H 0.4039 0.93097 0.48293 0.0
H451 H 0.37816 0.97241 0.47614 0.0
H452 H 0.59414 0.11832 0.81764 0.0
H453 H 0.58649 0.03278 0.79835 0.0
H454 H 0.64281 0.11361 0.83283 0.0
H455 H 0.66354 0.06938 0.83755 0.0
Gd456 Gd 0.48861 0.53372 0.70098 0.0
Gd457 Gd 0.55389 0.51713 0.61478 0.0
C458 C 0.62922 0.51575 0.76405 0.0
C459 C 0.65686 0.54921 0.70485 0.0
C460 C 0.61241 0.53955 0.655 0.0
C461 C 0.60875 0.5207 0.71049 0.0
C462 C 0.63679 0.55354 0.65042 0.0
C463 C 0.65305 0.5304 0.76167 0.0
C464 C 0.62535 0.49594 0.81787 0.0
C465 C 0.60174 0.48133 0.81675 0.0
N466 N 0.58546 0.50684 0.71124 0.0
C467 C 0.58204 0.48692 0.76276 0.0
H468 H 0.56383 0.47574 0.76548 0.0
C469 C 0.59711 0.55876 0.541 0.0
N470 N 0.59271 0.54325 0.60308 0.0
C471 C 0.62084 0.57314 0.5342 0.0
C472 C 0.64063 0.57082 0.5898 0.0
H473 H 0.58187 0.56053 0.49754 0.0
H474 H 0.66887 0.52696 0.80263 0.0
H475 H 0.47204 0.57519 0.55671 0.0
H476 H 0.64053 0.49164 0.86006 0.0
H477 H 0.59853 0.46592 0.8581 0.0
H478 H 0.67561 0.5599 0.70254 0.0
H479 H 0.46628 0.48886 0.82451 0.0
H480 H 0.39662 0.55082 0.46688 0.0
H481 H 0.43543 0.58119 0.46631 0.0
H482 H 0.37066 0.47941 0.62761 0.0
H483 H 0.62386 0.58593 0.48602 0.0
H484 H 0.65908 0.58187 0.58424 0.0
H485 H 0.37285 0.51266 0.52659 0.0
H486 H 0.42714 0.45937 0.84023 0.0
N487 N 0.45482 0.54124 0.60956 0.0
C488 C 0.41269 0.54808 0.5075 0.0
C489 C 0.43452 0.56528 0.50711 0.0
C490 C 0.41159 0.52789 0.56131 0.0
C491 C 0.43312 0.52505 0.61276 0.0
C492 C 0.45537 0.56174 0.55911 0.0
N493 N 0.45244 0.50462 0.71978 0.0
C494 C 0.43194 0.50615 0.66929 0.0
C495 C 0.42832 0.47228 0.79162 0.0
C496 C 0.40779 0.47243 0.73763 0.0
C497 C 0.45036 0.48899 0.78268 0.0
C498 C 0.40918 0.48982 0.67631 0.0
H499 H 0.39064 0.45959 0.74495 0.0
O500 O 0.47283 0.5427 0.81303 0.0
O501 O 0.53267 0.53451 0.71458 0.0
O502 O 0.53487 0.47962 0.66472 0.0
O503 O 0.48968 0.48903 0.68317 0.0
O504 O 0.51163 0.52372 0.80917 0.0
O505 O 0.47142 0.57274 0.72516 0.0
O506 O 0.56991 0.50947 0.50213 0.0
O507 O 0.50994 0.51756 0.60016 0.0
O508 O 0.50637 0.57043 0.64554 0.0
O509 O 0.55159 0.56244 0.62109 0.0
O510 O 0.53144 0.52845 0.50674 0.0
O511 O 0.56899 0.47771 0.58468 0.0
C512 C 0.53513 0.52868 0.78365 0.0
C513 C 0.3882 0.49193 0.62348 0.0
C514 C 0.38942 0.5109 0.56605 0.0
C515 C 0.46715 0.56735 0.79659 0.0
C516 C 0.47573 0.58735 0.85327 0.0
C517 C 0.45834 0.59414 0.91287 0.0
C518 C 0.50143 0.59853 0.85131 0.0
C519 C 0.50972 0.61621 0.90974 0.0
C520 C 0.46648 0.61185 0.97061 0.0
C521 C 0.49206 0.62277 0.96935 0.0
C522 C 0.51002 0.47219 0.6798 0.0
C523 C 0.5077 0.52415 0.53155 0.0
C524 C 0.57355 0.48414 0.51417 0.0
C525 C 0.56371 0.46597 0.45376 0.0
C526 C 0.57468 0.46772 0.38059 0.0
C527 C 0.5435 0.44722 0.46735 0.0
C528 C 0.53476 0.43017 0.40821 0.0
C529 C 0.5657 0.45091 0.32159 0.0
C530 C 0.54588 0.43211 0.33531 0.0
C531 C 0.53056 0.57857 0.62587 0.0
H532 H 0.43855 0.58549 0.9151 0.0
H533 H 0.51502 0.59312 0.80563 0.0
H534 H 0.453 0.61704 1.01659 0.0
H535 H 0.49797 0.63662 1.01455 0.0
H536 H 0.5902 0.48214 0.36915 0.0
H537 H 0.53479 0.44562 0.52349 0.0
H538 H 0.57425 0.45234 0.26532 0.0
H539 H 0.53934 0.41891 0.28927 0.0
Gd540 Gd 1.00471 0.49339 0.73653 0.0
Gd541 Gd 0.03166 0.54061 0.60858 0.0
C542 C 0.04327 0.62502 0.71282 0.0
C543 C 1.01255 0.65139 0.63822 0.0
C544 C 1.01695 0.60342 0.61303 0.0
C545 C 0.03582 0.60169 0.67081 0.0
C546 C 1.00562 0.62851 0.59523 0.0
C547 C 0.03131 0.64964 0.69685 0.0
C548 C 0.06256 0.62307 0.76995 0.0
C549 C 0.07408 0.59843 0.78434 0.0
N550 N 0.04688 0.57748 0.68618 0.0
C551 C 0.06606 0.57587 0.7422 0.0
H552 H 0.07456 0.55727 0.75927 0.0
C553 C 0.9951 0.58321 0.50739 0.0
N554 N 1.01048 0.58101 0.57201 0.0
C555 C 0.98331 0.60747 0.48829 0.0
C556 C 0.98822 0.63015 0.53315 0.0
H557 H 0.99166 0.56623 0.46968 0.0
H558 H 0.03669 0.66756 0.72902 0.0
H559 H 0.95867 0.47452 0.60287 0.0
H560 H 0.06866 0.64047 0.80342 0.0
H561 H 0.08884 0.59663 0.82915 0.0
H562 H 1.00387 0.67066 0.62558 0.0
H563 H 0.0436 0.47067 0.8775 0.0
H564 H 0.9724 0.39278 0.54191 0.0
H565 H 0.94772 0.43503 0.52438 0.0
H566 H 0.03927 0.36541 0.71959 0.0
H567 H 0.97068 0.6087 0.43828 0.0
H568 H 0.97921 0.64902 0.51781 0.0
H569 H 1.00686 0.36709 0.6142 0.0
H570 H 0.06573 0.42863 0.91416 0.0
N571 N 0.99005 0.45556 0.66407 0.0
C572 C 0.9775 0.41022 0.57652 0.0
C573 C 0.96346 0.43399 0.56664 0.0
C574 C 0.99748 0.40904 0.63223 0.0
C575 C 1.0035 0.43238 0.67544 0.0
C576 C 0.96981 0.45647 0.6116 0.0
N577 N 0.02739 0.45434 0.77435 0.0
C578 C 0.02253 0.43169 0.73277 0.0
C579 C 0.05392 0.42927 0.86246 0.0
C580 C 0.05125 0.40646 0.81606 0.0
C581 C 0.04135 0.453 0.84153 0.0
C582 C 0.03493 0.40728 0.75127 0.0
H583 H 0.06099 0.38808 0.83238 0.0
O584 O 0.99526 0.48947 0.85649 0.0
O585 O 1.00899 0.53787 0.7185 0.0
O586 O 0.06792 0.52502 0.66966 0.0
O587 O 0.05052 0.48973 0.73982 0.0
O588 O 0.0199 0.52309 0.82407 0.0
O589 O 0.96548 0.47997 0.76985 0.0
O590 O 0.03472 0.54135 0.48423 0.0
O591 O 0.02133 0.49795 0.6191 0.0
O592 O 0.96982 0.51436 0.67552 0.0
O593 O 0.98885 0.53644 0.57305 0.0
O594 O 0.02143 0.49811 0.61861 0.0
O595 O 0.07062 0.5413 0.55605 0.0
C596 C 1.01679 0.54444 0.78521 0.0
C597 C 0.02966 0.38423 0.70685 0.0
C598 C 1.01112 0.38516 0.64708 0.0
C599 C 0.97139 0.48049 0.84219 0.0
C600 C 0.95028 0.48729 0.89617 0.0
C601 C 0.94781 0.47151 0.9609 0.0
C602 C 0.93172 0.50766 0.88238 0.0
C603 C 0.9103 0.51159 0.9325 0.0
C604 C 0.9267 0.47566 1.01111 0.0
C605 C 0.90787 0.49548 0.99677 0.0
C606 C 0.07082 0.5043 0.71489 0.0
C607 C 0.02478 0.47838 0.57045 0.0
C608 C 0.06061 0.54218 0.48768 0.0
C609 C 0.07771 0.54263 0.42022 0.0
C610 C 0.06906 0.55486 0.35332 0.0
C611 C 0.10316 0.53102 0.42312 0.0
C612 C 0.11992 0.53127 0.35946 0.0
C613 C 0.08589 0.55572 0.29021 0.0
C614 C 0.11121 0.544 0.29308 0.0
C615 C 0.96796 0.52738 0.61019 0.0
H616 H 0.96201 0.45566 0.97188 0.0
H617 H 0.93353 0.51985 0.83228 0.0
H618 H 0.92478 0.46333 0.06075 0.0
H619 H 0.89147 0.4984 0.03612 0.0
H620 H 0.04948 0.564 0.3502 0.0
H621 H 0.10982 0.52147 0.47477 0.0
H622 H 0.07921 0.56526 0.2387 0.0
H623 H 0.12365 0.54425 0.24281 0.0
H624 H 0.12256 0.08713 0.26889 0.0
H625 H 0.16774 1.01502 0.30681 0.0
H626 H 0.13731 1.0029 0.40834 0.0
H627 H 0.09892 1.01344 0.49116 0.0
H628 H 0.05296 0.08476 0.45298 0.0
H629 H 0.08262 0.09668 0.34823 0.0
C630 C 0.12576 0.06872 0.29918 0.0
C631 C 0.14765 0.05207 0.27948 0.0
C632 C 0.10808 0.06181 0.35827 0.0
C633 C 0.15104 0.02813 0.31927 0.0
C634 C 0.13372 0.02125 0.37816 0.0
C635 C 0.09541 0.03158 0.45975 0.0
C636 C 0.07371 0.04819 0.47981 0.0
C637 C 0.11238 0.03805 0.39884 0.0
C638 C 0.06925 0.07146 0.43807 0.0
C639 C 0.08634 0.07833 0.37836 0.0
H640 H 0.45589 0.14732 0.33092 0.0
H641 H 0.52524 0.12525 0.19901 0.0
H642 H 0.53645 0.09087 0.29123 0.0
H643 H 0.52705 0.06771 0.41124 0.0
H644 H 0.45812 0.09064 0.54349 0.0
H645 H 0.44631 0.12403 0.44939 0.0
C646 C 0.47327 0.13477 0.3215 0.0
C647 C 0.48955 0.13885 0.25734 0.0
C648 C 0.4797 0.11516 0.37507 0.0
C649 C 0.51237 0.12273 0.24772 0.0
C650 C 0.51874 0.10296 0.30038 0.0
C651 C 0.50911 0.07954 0.41854 0.0
C652 C 0.49326 0.07631 0.48384 0.0
C653 C 0.50257 0.09899 0.36435 0.0
C654 C 0.47062 0.09261 0.49371 0.0
C655 C 0.46387 0.11176 0.43993 0.0
H656 H 0.41087 0.47397 0.34572 0.0
H657 H 0.42892 0.53889 0.19633 0.0
H658 H 0.46527 0.5532 0.28139 0.0
H659 H 0.49254 0.5469 0.39827 0.0
H660 H 0.47418 0.48155 0.54523 0.0
H661 H 0.43792 0.46751 0.46071 0.0
C662 C 0.4229 0.49109 0.33102 0.0
C663 C 0.41715 0.50515 0.26391 0.0
C664 C 0.44387 0.49913 0.38 0.0
C665 C 0.43267 0.52772 0.2475 0.0
C666 C 0.45362 0.53583 0.29599 0.0
C667 C 0.48052 0.52962 0.41161 0.0
C668 C 0.48559 0.51581 0.47939 0.0
C669 C 0.45949 0.52165 0.36234 0.0
C670 C 0.47022 0.49312 0.49515 0.0
C671 C 0.44952 0.48496 0.44635 0.0
H672 H 0.08251 0.4287 0.29883 0.0
H673 H 1.00077 0.40854 0.24317 0.0
H674 H 0.98525 0.44223 0.33465 0.0
H675 H 0.99456 0.47055 0.44804 0.0
H676 H 0.07571 0.4833 0.51993 0.0
H677 H 0.09147 0.45905 0.40627 0.0
C678 C 0.06123 0.43139 0.30638 0.0
C679 C 0.04303 0.41518 0.26408 0.0
C680 C 0.05226 0.44988 0.36259 0.0
C681 C 1.01556 0.42037 0.27362 0.0
C682 C 1.00655 0.43964 0.32685 0.0
C683 C 1.01578 0.46959 0.43617 0.0
C684 C 0.03391 0.47995 0.49105 0.0
C685 C 0.0247 0.45379 0.37369 0.0
C686 C 0.06131 0.47704 0.47697 0.0
C687 C 0.07036 0.46265 0.4126 0.0
H688 H 0.92884 0.97923 0.08552 0.0
H689 H 0.86788 0.02818 0.98341 0.0
H690 H 0.89677 0.03627 0.87531 0.0
H691 H 0.93916 0.02977 0.80877 0.0
H692 H 1.00082 0.98131 0.90807 0.0
H693 H 0.97205 0.97286 1.01768 0.0
C694 C 0.92187 0.99171 0.03973 0.0
C695 C 0.8961 1.00331 0.04384 0.0
C696 C 0.93874 0.99632 0.9767 0.0
C697 C 0.88767 0.01947 0.98349 0.0
C698 C 0.90415 0.02393 0.92091 0.0
C699 C 0.94621 1.01691 0.85343 0.0
C700 C 0.972 1.00568 0.84872 0.0
C701 C 0.92966 1.01243 0.91669 0.0
C702 C 0.98102 0.99002 0.90941 0.0
C703 C 0.96454 0.98522 0.97233 0.0
H704 H 0.56764 0.93832 0.0832 0.0
H705 H 0.53182 0.87047 0.96733 0.0
H706 H 0.5226 0.89765 0.85622 0.0
H707 H 0.52527 0.94046 0.7911 0.0
H708 H 0.55763 1.00941 0.90923 0.0
H709 H 0.56761 0.98223 1.02006 0.0
C710 C 0.55766 0.9296 0.03375 0.0
C711 C 0.55037 0.9024 0.0337 0.0
C712 C 0.55208 0.94548 0.97009 0.0
C713 C 0.53731 0.89141 0.96934 0.0
C714 C 0.53222 0.90689 0.90546 0.0
C715 C 0.53504 0.94943 0.8402 0.0
C716 C 0.5419 0.97668 0.84002 0.0
C717 C 0.53975 0.93387 0.90486 0.0
C718 C 0.55293 0.98829 0.90664 0.0
C719 C 0.55849 0.97278 0.97037 0.0
H720 H 0.63511 0.57838 0.9567 0.0
H721 H 0.61379 0.51893 0.12053 0.0
H722 H 0.5763 0.50482 0.03994 0.0
H723 H 0.5492 0.5093 0.92228 0.0
H724 H 0.57025 0.56948 0.7611 0.0
H725 H 0.60747 0.58385 0.84214 0.0
C726 C 0.62211 0.56258 0.97571 0.0
C727 C 0.6275 0.54988 0.04538 0.0
C728 C 0.60031 0.55473 0.92941 0.0
C729 C 0.61056 0.52896 0.0672 0.0
C730 C 0.5889 0.52098 1.02127 0.0
C731 C 0.56196 0.52558 0.90515 0.0
C732 C 0.55739 0.53775 0.83454 0.0
C733 C 0.58355 0.53369 0.95221 0.0
C734 C 0.57374 0.5592 0.81384 0.0
C735 C 0.59502 0.56752 0.86046 0.0
H736 H 0.98019 0.65671 0.92544 0.0
H737 H 0.03345 0.6323 0.10517 0.0
H738 H 0.04342 0.591 0.03415 0.0
H739 H 0.03731 0.56164 0.92063 0.0
H740 H 0.98335 0.5853 0.74242 0.0
H741 H 0.97392 0.62723 0.81204 0.0
C742 C 0.9942 0.64254 0.94902 0.0
C743 C 1.00606 0.64794 1.02113 0.0
C744 C 0.99993 0.6187 0.90758 0.0
C745 C 0.02372 0.62881 0.05069 0.0
C746 C 0.0296 0.60517 1.0097 0.0
C747 C 0.02354 0.57605 0.89691 0.0
C748 C 1.01157 0.57059 0.82531 0.0
C749 C 0.01785 0.59989 0.93812 0.0
C750 C 0.99339 0.58925 0.79622 0.0
C751 C 0.98785 0.61316 0.83643 0.0
H752 H 0.07809 0.18116 0.24712 0.0
H753 H 0.11598 0.20617 0.45778 0.0
H754 H 0.08359 0.18009 0.52957 0.0
H755 H 0.04078 0.1554 0.53197 0.0
H756 H 1.0027 0.13231 0.32027 0.0
H757 H 0.03893 0.15265 0.24862 0.0
C758 C 0.07997 0.18017 0.30859 0.0
C759 C 0.09947 0.19552 0.34717 0.0
C760 C 0.06079 0.1661 0.34909 0.0
C761 C 0.10113 0.19449 0.42696 0.0
C762 C 0.08249 0.17981 0.4679 0.0
C763 C 0.04072 0.15475 0.47015 0.0
C764 C 0.01921 0.14291 0.43079 0.0
C765 C 0.06158 0.16649 0.42962 0.0
C766 C 0.01915 0.14161 0.35103 0.0
C767 C 0.03981 0.15314 0.31033 0.0
H768 H 0.32642 0.08389 0.40769 0.0
H769 H 0.39378 0.1198 0.29559 0.0
H770 H 0.42325 0.0867 0.35097 0.0
H771 H 0.42852 0.04397 0.41468 0.0
H772 H 0.36183 1.01066 0.53588 0.0
H773 H 0.33362 0.04735 0.49476 0.0
C774 C 0.34766 0.08558 0.39766 0.0
C775 C 0.35747 0.10394 0.3446 0.0
C776 C 0.36469 0.06681 0.43089 0.0
C777 C 0.38527 0.10531 0.33343 0.0
C778 C 0.40229 0.08647 0.36567 0.0
C779 C 0.40809 0.04501 0.43454 0.0
C780 C 0.3972 0.02389 0.47637 0.0
C781 C 0.39199 0.06641 0.41172 0.0
C782 C 0.37058 0.02594 0.50109 0.0
C783 C 0.35443 0.04709 0.47817 0.0
H784 H 0.47099 0.32481 0.39196 0.0
H785 H 0.40697 0.37953 0.341 0.0
H786 H 0.43523 0.41728 0.37988 0.0
H787 H 0.48106 0.43449 0.4009 0.0
H788 H 0.54503 0.37909 0.44323 0.0
H789 H 0.51375 0.34164 0.43637 0.0
C790 C 0.46264 0.34482 0.39245 0.0
C791 C 0.43701 0.34932 0.36208 0.0
C792 C 0.4793 0.36634 0.41186 0.0
C793 C 0.4268 0.37555 0.36281 0.0
C794 C 0.44302 0.39715 0.38453 0.0
C795 C 0.48778 0.41424 0.41096 0.0
C796 C 0.51506 0.4092 0.42211 0.0
C797 C 0.46978 0.39282 0.40472 0.0
C798 C 0.52398 0.38311 0.4346 0.0
C799 C 0.50616 0.36179 0.43037 0.0
H800 H 0.23197 0.47868 0.30314 0.0
H801 H 0.19025 0.40993 0.38567 0.0
H802 H 0.15196 0.43839 0.42068 0.0
H803 H 0.12903 0.48168 0.41227 0.0
H804 H 0.16852 0.54832 0.31 0.0
H805 H 0.20961 0.52205 0.29904 0.0
C806 C 0.21477 0.47015 0.33108 0.0
C807 C 0.2139 0.44252 0.34368 0.0
C808 C 0.19251 0.48621 0.34603 0.0
C809 C 0.19134 0.43128 0.37716 0.0
C810 C 0.1695 0.44749 0.39629 0.0
C811 C 0.1466 0.49042 0.38783 0.0
C812 C 0.14561 0.51665 0.3606 0.0
C813 C 0.16959 0.47478 0.3785 0.0
C814 C 0.16872 0.528 0.33013 0.0
C815 C 0.19215 0.51302 0.32407 0.0
H816 H 0.96606 0.82782 0.87506 0.0
H817 H 0.92361 0.89481 0.97611 0.0
H818 H 0.95639 0.92539 0.92398 0.0
H819 H 1.00196 0.93142 0.87536 0.0
H820 H 0.04322 0.86419 0.772 0.0
H821 H 1.00546 0.83534 0.79889 0.0
C822 C 0.96301 0.84912 0.88334 0.0
C823 C 0.94281 0.85876 0.93237 0.0
C824 C 0.98213 0.86653 0.85434 0.0
C825 C 0.93951 0.88662 0.94118 0.0
C826 C 0.95831 0.90418 0.91148 0.0
C827 C 1.00239 0.9107 0.85623 0.0
C828 C 0.02583 0.89978 0.82418 0.0
C829 C 0.98059 0.89414 0.87212 0.0
C830 C 0.02585 0.87288 0.79942 0.0
C831 C 1.00419 0.85639 0.81439 0.0
H832 H 0.66754 0.93998 0.95252 0.0
H833 H 0.74182 0.97195 0.86938 0.0
H834 H 0.71751 1.00397 0.7945 0.0
H835 H 0.6765 0.02989 0.77694 0.0
H836 H 0.60428 1.00414 0.88591 0.0
H837 H 0.62603 0.96345 0.92569 0.0
C838 C 0.67856 0.95387 0.91811 0.0
C839 C 0.70667 0.95394 0.92004 0.0
C840 C 0.66462 0.97407 0.88044 0.0
C841 C 0.72027 0.97114 0.87062 0.0
C842 C 0.70634 0.98999 0.82828 0.0
C843 C 0.66544 1.01536 0.80912 0.0
C844 C 0.63871 0.02046 0.82906 0.0
C845 C 0.67872 0.9928 0.83698 0.0
C846 C 0.6246 1.00079 0.86844 0.0
C847 C 0.63722 0.97755 0.89233 0.0
H848 H 0.60295 0.69797 0.89754 0.0
H849 H 0.61386 0.66835 0.12551 0.0
H850 H 0.58405 0.63167 0.09728 0.0
H851 H 0.54682 0.61448 1.02067 0.0
H852 H 0.53202 0.64574 0.79763 0.0
H853 H 0.57079 0.67533 0.81147 0.0
C854 C 0.59912 0.68334 0.94085 0.0
C855 C 0.61024 0.68678 1.0144 0.0
C856 C 0.58052 0.66286 0.92591 0.0
C857 C 0.60585 0.66672 0.06831 0.0
C858 C 0.58831 0.64574 0.05275 0.0
C859 C 0.55255 0.62736 0.97451 0.0
C860 C 0.53644 0.62856 0.90918 0.0
C861 C 0.5743 0.64466 0.98374 0.0
C862 C 0.54413 0.64479 0.8488 0.0
C863 C 0.56617 0.66178 0.85695 0.0
H864 H 0.80945 0.58286 0.94816 0.0
H865 H 0.86889 0.6434 0.9939 0.0
H866 H 0.90409 0.61215 0.95384 0.0
H867 H 0.91794 0.56506 0.93338 0.0
H868 H 0.85784 0.50416 0.90459 0.0
H869 H 0.82273 0.53808 0.90978 0.0
C870 C 0.82997 0.58972 0.94619 0.0
C871 C 0.83658 0.61541 0.97423 0.0
C872 C 0.85 0.57123 0.92794 0.0
C873 C 0.86335 0.6237 0.97264 0.0
C874 C 0.88346 0.60573 0.95061 0.0
C875 C 0.89715 0.55951 0.926 0.0
C876 C 0.8902 0.53239 0.91905 0.0
C877 C 0.87708 0.57903 0.93246 0.0
C878 C 0.86337 0.52504 0.91026 0.0
C879 C 0.84339 0.54438 0.91339 0.0
H880 H 0.06472 0.18203 0.76865 0.0
H881 H 0.99764 0.18813 0.92213 0.0
H882 H 0.98208 0.14449 0.87863 0.0
H883 H 0.98797 0.10331 0.80118 0.0
H884 H 0.05604 0.0954 0.65363 0.0
H885 H 0.07086 0.14051 0.69157 0.0
C886 C 0.04678 0.17393 0.79332 0.0
C887 C 0.03246 0.18909 0.84885 0.0
C888 C 0.03816 0.14811 0.76955 0.0
C889 C 1.00896 0.1778 0.87822 0.0
C890 C 1.0001 0.15247 0.85396 0.0
C891 C 1.00611 0.11147 0.77754 0.0
C892 C 0.02127 0.09569 0.72629 0.0
C893 C 1.0146 0.13734 0.80023 0.0
C894 C 0.0444 0.10678 0.69481 0.0
C895 C 0.05278 0.13267 0.71624 0.0
H896 H 0.36832 1.00538 0.85402 0.0
H897 H 0.36453 0.08643 0.77374 0.0
H898 H 0.40763 0.0805 0.71227 0.0
H899 H 0.4477 0.05243 0.68299 0.0
H900 H 0.45313 0.97406 0.77963 0.0
H901 H 0.40869 0.97915 0.83358 0.0
C902 C 0.37682 0.02212 0.82454 0.0
C903 C 0.36239 0.04634 0.81934 0.0
C904 C 0.40242 0.01914 0.79219 0.0
C905 C 0.37422 0.06719 0.77802 0.0
C906 C 0.39927 0.06397 0.7432 0.0
C907 C 0.43937 0.03677 0.71732 0.0
C908 C 0.45419 1.01315 0.7289 0.0
C909 C 0.41375 0.04009 0.75037 0.0
C910 C 0.44249 0.99263 0.77087 0.0
C911 C 0.41697 0.99549 0.80171 0.0
H912 H 0.46096 0.35926 0.74926 0.0
H913 H 0.5381 0.3488 0.85549 0.0
H914 H 0.55299 0.39106 0.80388 0.0
H915 H 0.54254 0.43382 0.74153 0.0
H916 H 0.46369 0.44594 0.64862 0.0
H917 H 0.45107 0.40078 0.68337 0.0
C918 C 0.48102 0.36613 0.76188 0.0
C919 C 0.49809 0.3506 0.80775 0.0
C920 C 0.48914 0.3912 0.73508 0.0
C921 C 0.52436 0.35982 0.82021 0.0
C922 C 0.53288 0.38432 0.79134 0.0
C923 C 0.52272 0.42648 0.72811 0.0
C924 C 0.50404 0.4435 0.69321 0.0
C925 C 0.51521 0.40058 0.75058 0.0
C926 C 0.47842 0.4335 0.67625 0.0
C927 C 0.47115 0.4076 0.69608 0.0
H928 H 0.17739 0.4582 0.85726 0.0
H929 H 0.20583 0.53735 0.80756 0.0
H930 H 0.16247 0.54841 0.75206 0.0
H931 H 0.11585 0.53597 0.71994 0.0
H932 H 0.08882 0.45604 0.76419 0.0
H933 H 0.13224 0.44491 0.81787 0.0
C934 C 0.17447 0.47776 0.83315 0.0
C935 C 0.19525 0.49684 0.83716 0.0
C936 C 0.14947 0.48397 0.80054 0.0
C937 C 0.19037 0.52226 0.80673 0.0
C938 C 0.16551 0.52859 0.77438 0.0
C939 C 0.11939 0.5161 0.74129 0.0
C940 C 0.09843 0.49719 0.74073 0.0
C941 C 0.14479 0.50968 0.77149 0.0
C942 C 0.1039 0.47141 0.76717 0.0
C943 C 0.12897 0.46491 0.79709 0.0
H944 H 0.02913 0.87613 0.4212 0.0
H945 H 0.96472 0.85976 0.57571 0.0
H946 H 0.97164 0.90306 0.63946 0.0
H947 H 0.9961 0.94651 0.65141 0.0
H948 H 0.06219 0.96045 0.50124 0.0
H949 H 0.05486 0.91731 0.43768 0.0
C950 C 1.01684 0.8816 0.4697 0.0
C951 C 0.9963 0.86429 0.49261 0.0
C952 C 0.02114 0.90649 0.50712 0.0
C953 C 0.98043 0.87253 0.55516 0.0
C954 C 0.98445 0.89738 0.59225 0.0
C955 C 1.00856 0.94019 0.60402 0.0
C956 C 0.02896 0.95726 0.57883 0.0
C957 C 1.00459 0.91476 0.56831 0.0
C958 C 0.04585 0.94809 0.52013 0.0
C959 C 0.04176 0.92332 0.4839 0.0
H960 H 0.67037 0.03651 0.43283 0.0
H961 H 0.68526 0.97257 0.58892 0.0
H962 H 0.6419 0.98044 0.64827 0.0
H963 H 0.59843 1.00458 0.65328 0.0
H964 H 0.58478 0.06952 0.50036 0.0
H965 H 0.62881 0.06249 0.44382 0.0
C966 C 0.66448 0.02456 0.48073 0.0
C967 C 0.68135 1.00378 0.50539 0.0
C968 C 0.63941 0.02928 0.51521 0.0
C969 C 0.67278 0.9884 0.56723 0.0
C970 C 0.64791 0.99297 0.60172 0.0
C971 C 0.60509 1.01701 0.60719 0.0
C972 C 0.58794 0.03696 0.57913 0.0
C973 C 0.6308 1.01308 0.57544 0.0
C974 C 0.59733 0.05364 0.52168 0.0
C975 C 0.62257 0.04968 0.48945 0.0
H976 H 0.52432 0.69996 0.5278 0.0
H977 H 0.60834 0.68568 0.49035 0.0
H978 H 0.60418 0.64114 0.54145 0.0
H979 H 0.57658 0.60524 0.59126 0.0
H980 H 0.49201 0.61762 0.6199 0.0
H981 H 0.49667 0.6637 0.57927 0.0
C982 C 0.54175 0.68715 0.53068 0.0
C983 C 0.56666 0.69663 0.50544 0.0
C984 C 0.53915 0.66099 0.55854 0.0
C985 C 0.58899 0.67955 0.51076 0.0
C986 C 0.58661 0.65379 0.53937 0.0
C987 C 0.55906 0.61773 0.58756 0.0
C988 C 0.53389 0.60736 0.60655 0.0
C989 C 0.56175 0.64415 0.56247 0.0
C990 C 0.51166 0.62463 0.60454 0.0
C991 C 0.51427 0.65112 0.58116 0.0
H992 H 0.8679 0.54057 0.39235 0.0
H993 H 0.82761 0.55433 0.6058 0.0
H994 H 0.86943 0.54641 0.67522 0.0
H995 H 0.9183 0.53626 0.67489 0.0
H996 H 0.95805 0.52547 0.45897 0.0
H997 H 0.91594 0.53131 0.39164 0.0
C998 C 0.86816 0.5415 0.45412 0.0
C999 C 0.84447 0.54771 0.49364 0.0
C1000 C 0.8924 0.53753 0.49351 0.0
C1001 C 0.84546 0.54951 0.57377 0.0
C1002 C 0.86942 0.54496 0.61355 0.0
C1003 C 0.91763 0.53507 0.61318 0.0
C1004 C 0.94144 0.53049 0.57221 0.0
C1005 C 0.89314 0.53905 0.57407 0.0
C1006 C 0.9402 0.52925 0.49212 0.0
C1007 C 0.91604 0.53249 0.45335 0.0
loop_
_geom_bond_atom_site_label_1
_geom_bond_atom_site_label_2
_geom_bond_distance
_geom_bond_site_symmetry_2
_ccdc_geom_bond_type
C0 C1 1.384 . S
C0 H13 0.947 . S
C0 C35 1.382 . S
C1 C0 1.384 . S
C1 C2 1.378 . S
C2 C1 1.378 . S
C2 C3 1.378 . S
C2 H14 0.952 . S
C3 C2 1.378 . S
C3 H15 0.950 . S
C3 C34 1.383 . S
H4 C23 0.947 . S
H5 C24 0.946 . S
H6 C26 0.953 . S
H7 C27 0.945 . S
H8 C29 0.952 . S
H9 C30 0.949 1_556 S
H10 C32 0.950 . S
H11 C33 0.948 . S
H12 C35 0.951 . S
H13 C0 0.947 . S
H14 C2 0.952 . S
H15 C3 0.950 . S
N16 C19 1.382 . S
N16 C21 1.363 . S
N17 C19 1.371 . S
N17 C20 1.372 . S
N18 C20 1.361 . S
N18 C21 1.377 . S
C19 N16 1.382 . S
C19 N17 1.371 . S
C19 C22 1.480 . S
C20 N17 1.372 . S
C20 N18 1.361 . S
C20 C28 1.457 . S
C21 N16 1.363 . S
C21 N18 1.377 . S
C21 C34 1.479 . S
C22 C19 1.480 . S
C22 C23 1.383 . S
C22 C27 1.385 . S
C23 H4 0.947 . S
C23 C22 1.383 . S
C23 C24 1.388 . S
C24 H5 0.946 . S
C24 C23 1.388 . S
C24 C25 1.384 . S
C25 C24 1.384 . S
C25 C26 1.377 . S
C26 H6 0.953 . S
C26 C25 1.377 . S
C26 C27 1.369 . S
C27 H7 0.945 . S
C27 C22 1.385 . S
C27 C26 1.369 . S
C28 C20 1.457 . S
C28 C29 1.372 . S
C28 C33 1.364 . S
C29 H8 0.952 . S
C29 C28 1.372 . S
C29 C30 1.389 . S
C30 H9 0.949 1_554 S
C30 C29 1.389 . S
C30 C31 1.387 . S
C31 C30 1.387 . S
C31 C32 1.372 . S
C32 H10 0.950 . S
C32 C31 1.372 . S
C32 C33 1.379 . S
C33 H11 0.948 . S
C33 C28 1.364 . S
C33 C32 1.379 . S
C34 C3 1.383 . S
C34 C21 1.479 . S
C34 C35 1.398 . S
C35 C0 1.382 . S
C35 H12 0.951 . S
C35 C34 1.398 . S
C36 C37 1.384 . S
C36 H49 0.947 . S
C36 C71 1.382 . S
C37 C36 1.384 . S
C37 C38 1.378 . S
C38 C37 1.378 . S
C38 C39 1.378 . S
C38 H50 0.952 . S
C39 C38 1.378 . S
C39 H51 0.950 . S
C39 C70 1.383 . S
H40 C59 0.947 . S
H41 C60 0.946 . S
H42 C62 0.953 . S
H43 C63 0.945 . S
H44 C65 0.952 . S
H45 C66 0.949 1_556 S
H46 C68 0.950 . S
H47 C69 0.948 . S
H48 C71 0.951 . S
H49 C36 0.947 . S
H50 C38 0.952 . S
H51 C39 0.950 . S
N52 C55 1.382 . S
N52 C57 1.363 . S
N53 C55 1.371 . S
N53 C56 1.372 . S
N54 C56 1.361 . S
N54 C57 1.377 . S
C55 N52 1.382 . S
C55 N53 1.371 . S
C55 C58 1.480 . S
C56 N53 1.372 . S
C56 N54 1.361 . S
C56 C64 1.457 . S
C57 N52 1.363 . S
C57 N54 1.377 . S
C57 C70 1.479 . S
C58 C55 1.480 . S
C58 C59 1.383 . S
C58 C63 1.385 . S
C59 H40 0.947 . S
C59 C58 1.383 . S
C59 C60 1.388 . S
C60 H41 0.946 . S
C60 C59 1.388 . S
C60 C61 1.384 . S
C61 C60 1.384 . S
C61 C62 1.377 . S
C62 H42 0.953 . S
C62 C61 1.377 . S
C62 C63 1.369 . S
C63 H43 0.945 . S
C63 C58 1.385 . S
C63 C62 1.369 . S
C64 C56 1.457 . S
C64 C65 1.372 . S
C64 C69 1.364 . S
C65 H44 0.952 . S
C65 C64 1.372 . S
C65 C66 1.389 . S
C66 H45 0.949 1_554 S
C66 C65 1.389 . S
C66 C67 1.387 . S
C67 C66 1.387 . S
C67 C68 1.372 . S
C68 H46 0.950 . S
C68 C67 1.372 . S
C68 C69 1.379 . S
C69 H47 0.948 . S
C69 C64 1.364 . S
C69 C68 1.379 . S
C70 C39 1.383 . S
C70 C57 1.479 . S
C70 C71 1.398 . S
C71 C36 1.382 . S
C71 H48 0.951 . S
C71 C70 1.398 . S
C72 C73 1.384 . S
C72 H85 0.947 . S
C72 C107 1.382 . S
C73 C72 1.384 . S
C73 C74 1.378 . S
C74 C73 1.378 . S
C74 C75 1.378 . S
C74 H86 0.952 . S
C75 C74 1.378 . S
C75 H87 0.950 . S
C75 C106 1.383 . S
H76 C95 0.947 . S
H77 C96 0.946 . S
H78 C98 0.953 . S
H79 C99 0.945 . S
H80 C101 0.952 . S
H81 C102 0.949 1_556 S
H82 C104 0.950 . S
H83 C105 0.948 . S
H84 C107 0.951 . S
H85 C72 0.947 . S
H86 C74 0.952 . S
H87 C75 0.950 . S
N88 C91 1.382 . S
N88 C93 1.363 . S
N89 C91 1.371 . S
N89 C92 1.372 . S
N90 C92 1.361 . S
N90 C93 1.377 . S
C91 N88 1.382 . S
C91 N89 1.371 . S
C91 C94 1.480 . S
C92 N89 1.372 . S
C92 N90 1.361 . S
C92 C100 1.457 . S
C93 N88 1.363 . S
C93 N90 1.377 . S
C93 C106 1.479 . S
C94 C91 1.480 . S
C94 C95 1.383 . S
C94 C99 1.385 . S
C95 H76 0.947 . S
C95 C94 1.383 . S
C95 C96 1.388 . S
C96 H77 0.946 . S
C96 C95 1.388 . S
C96 C97 1.384 . S
C97 C96 1.384 . S
C97 C98 1.377 . S
C98 H78 0.953 . S
C98 C97 1.377 . S
C98 C99 1.369 . S
C99 H79 0.945 . S
C99 C94 1.385 . S
C99 C98 1.369 . S
C100 C92 1.457 . S
C100 C101 1.372 . S
C100 C105 1.364 . S
C101 H80 0.952 . S
C101 C100 1.372 . S
C101 C102 1.389 . S
C102 H81 0.949 1_554 S
C102 C101 1.389 . S
C102 C103 1.387 . S
C103 C102 1.387 . S
C103 C104 1.372 . S
C104 H82 0.950 . S
C104 C103 1.372 . S
C104 C105 1.379 . S
C105 H83 0.948 . S
C105 C100 1.364 . S
C105 C104 1.379 . S
C106 C75 1.383 . S
C106 C93 1.479 . S
C106 C107 1.398 . S
C107 C72 1.382 . S
C107 H84 0.951 . S
C107 C106 1.398 . S
C108 C109 1.384 . S
C108 H121 0.947 . S
C108 C143 1.382 . S
C109 C108 1.384 . S
C109 C110 1.378 . S
C110 C109 1.378 . S
C110 C111 1.378 . S
C110 H122 0.952 1_554 S
C111 C110 1.378 . S
C111 H123 0.950 . S
C111 C142 1.383 . S
H112 C131 0.947 . S
H113 C132 0.946 . S
H114 C134 0.953 . S
H115 C135 0.945 . S
H116 C137 0.952 . S
H117 C138 0.949 . S
H118 C140 0.950 . S
H119 C141 0.948 . S
H120 C143 0.951 . S
H121 C108 0.947 . S
H122 C110 0.952 1_556 S
H123 C111 0.950 . S
N124 C127 1.382 . S
N124 C129 1.363 . S
N125 C127 1.371 . S
N125 C128 1.372 . S
N126 C128 1.361 . S
N126 C129 1.377 . S
C127 N124 1.382 . S
C127 N125 1.371 . S
C127 C130 1.480 . S
C128 N125 1.372 . S
C128 N126 1.361 . S
C128 C136 1.457 . S
C129 N124 1.363 . S
C129 N126 1.377 . S
C129 C142 1.479 . S
C130 C127 1.480 . S
C130 C131 1.383 . S
C130 C135 1.385 . S
C131 H112 0.947 . S
C131 C130 1.383 . S
C131 C132 1.388 . S
C132 H113 0.946 . S
C132 C131 1.388 . S
C132 C133 1.384 . S
C133 C132 1.384 . S
C133 C134 1.377 . S
C134 H114 0.953 . S
C134 C133 1.377 . S
C134 C135 1.369 . S
C135 H115 0.945 . S
C135 C130 1.385 . S
C135 C134 1.369 . S
C136 C128 1.457 . S
C136 C137 1.372 . S
C136 C141 1.364 . S
C137 H116 0.952 . S
C137 C136 1.372 . S
C137 C138 1.389 . S
C138 H117 0.949 . S
C138 C137 1.389 . S
C138 C139 1.387 . S
C139 C138 1.387 . S
C139 C140 1.372 . S
C140 H118 0.950 . S
C140 C139 1.372 . S
C140 C141 1.379 . S
C141 H119 0.948 . S
C141 C136 1.364 . S
C141 C140 1.379 . S
C142 C111 1.383 . S
C142 C129 1.479 . S
C142 C143 1.398 . S
C143 C108 1.382 . S
C143 H120 0.951 . S
C143 C142 1.398 . S
C144 C145 1.384 . S
C144 H157 0.947 . S
C144 C179 1.382 . S
C145 C144 1.384 . S
C145 C146 1.378 . S
C146 C145 1.378 . S
C146 C147 1.378 . S
C146 H158 0.952 . S
C147 C146 1.378 . S
C147 H159 0.950 . S
C147 C178 1.383 . S
H148 C167 0.947 1_556 S
H149 C168 0.946 1_556 S
H150 C170 0.953 . S
H151 C171 0.945 . S
H152 C173 0.952 . S
H153 C174 0.949 . S
H154 C176 0.950 . S
H155 C177 0.948 . S
H156 C179 0.951 . S
H157 C144 0.947 . S
H158 C146 0.952 . S
H159 C147 0.950 . S
N160 C163 1.382 1_556 S
N160 C165 1.363 . S
N161 C163 1.371 . S
N161 C164 1.372 . S
N162 C164 1.361 . S
N162 C165 1.377 1_554 S
C163 N160 1.382 1_554 S
C163 N161 1.371 . S
C163 C166 1.480 . S
C164 N161 1.372 . S
C164 N162 1.361 . S
C164 C172 1.457 . S
C165 N160 1.363 . S
C165 N162 1.377 1_556 S
C165 C178 1.479 . S
C166 C163 1.480 . S
C166 C167 1.383 . S
C166 C171 1.385 . S
C167 H148 0.947 1_554 S
C167 C166 1.383 . S
C167 C168 1.388 . S
C168 H149 0.946 1_554 S
C168 C167 1.388 . S
C168 C169 1.384 . S
C169 C168 1.384 . S
C169 C170 1.377 . S
C170 H150 0.953 . S
C170 C169 1.377 . S
C170 C171 1.369 . S
C171 H151 0.945 . S
C171 C166 1.385 . S
C171 C170 1.369 . S
C172 C164 1.457 . S
C172 C173 1.372 . S
C172 C177 1.364 . S
C173 H152 0.952 . S
C173 C172 1.372 . S
C173 C174 1.389 . S
C174 H153 0.949 . S
C174 C173 1.389 . S
C174 C175 1.387 . S
C175 C174 1.387 . S
C175 C176 1.372 . S
C176 H154 0.950 . S
C176 C175 1.372 . S
C176 C177 1.379 . S
C177 H155 0.948 . S
C177 C172 1.364 . S
C177 C176 1.379 . S
C178 C147 1.383 . S
C178 C165 1.479 . S
C178 C179 1.398 . S
C179 C144 1.382 . S
C179 H156 0.951 . S
C179 C178 1.398 . S
C180 C181 1.384 . S
C180 H193 0.947 . S
C180 C215 1.382 . S
C181 C180 1.384 . S
C181 C182 1.378 . S
C182 C181 1.378 . S
C182 C183 1.378 . S
C182 H194 0.952 . S
C183 C182 1.378 . S
C183 H195 0.950 . S
C183 C214 1.383 . S
H184 C203 0.947 1_556 S
H185 C204 0.946 1_556 S
H186 C206 0.953 . S
H187 C207 0.945 . S
H188 C209 0.952 . S
H189 C210 0.949 . S
H190 C212 0.950 . S
H191 C213 0.948 . S
H192 C215 0.951 . S
H193 C180 0.947 . S
H194 C182 0.952 . S
H195 C183 0.950 . S
N196 C199 1.382 1_556 S
N196 C201 1.363 . S
N197 C199 1.371 . S
N197 C200 1.372 . S
N198 C200 1.361 . S
N198 C201 1.377 1_554 S
C199 N196 1.382 1_554 S
C199 N197 1.371 . S
C199 C202 1.480 . S
C200 N197 1.372 . S
C200 N198 1.361 . S
C200 C208 1.457 . S
C201 N196 1.363 . S
C201 N198 1.377 1_556 S
C201 C214 1.479 . S
C202 C199 1.480 . S
C202 C203 1.383 . S
C202 C207 1.385 . S
C203 H184 0.947 1_554 S
C203 C202 1.383 . S
C203 C204 1.388 . S
C204 H185 0.946 1_554 S
C204 C203 1.388 . S
C204 C205 1.384 . S
C205 C204 1.384 . S
C205 C206 1.377 . S
C206 H186 0.953 . S
C206 C205 1.377 . S
C206 C207 1.369 . S
C207 H187 0.945 . S
C207 C202 1.385 . S
C207 C206 1.369 . S
C208 C200 1.457 . S
C208 C209 1.372 . S
C208 C213 1.364 . S
C209 H188 0.952 . S
C209 C208 1.372 . S
C209 C210 1.389 . S
C210 H189 0.949 . S
C210 C209 1.389 . S
C210 C211 1.387 . S
C211 C210 1.387 . S
C211 C212 1.372 . S
C212 H190 0.950 . S
C212 C211 1.372 . S
C212 C213 1.379 . S
C213 H191 0.948 . S
C213 C208 1.364 . S
C213 C212 1.379 . S
C214 C183 1.383 . S
C214 C201 1.479 . S
C214 C215 1.398 . S
C215 C180 1.382 . S
C215 H192 0.951 . S
C215 C214 1.398 . S
C216 C217 1.384 . S
C216 H229 0.947 . S
C216 C251 1.382 . S
C217 C216 1.384 . S
C217 C218 1.378 . S
C218 C217 1.378 . S
C218 C219 1.378 . S
C218 H230 0.952 . S
C219 C218 1.378 . S
C219 H231 0.950 . S
C219 C250 1.383 . S
H220 C239 0.947 1_556 S
H221 C240 0.946 1_556 S
H222 C242 0.953 . S
H223 C243 0.945 . S
H224 C245 0.952 . S
H225 C246 0.949 . S
H226 C248 0.950 . S
H227 C249 0.948 . S
H228 C251 0.951 . S
H229 C216 0.947 . S
H230 C218 0.952 . S
H231 C219 0.950 . S
N232 C235 1.382 1_556 S
N232 C237 1.363 . S
N233 C235 1.371 . S
N233 C236 1.372 . S
N234 C236 1.361 . S
N234 C237 1.377 1_554 S
C235 N232 1.382 1_554 S
C235 N233 1.371 . S
C235 C238 1.480 . S
C236 N233 1.372 . S
C236 N234 1.361 . S
C236 C244 1.457 . S
C237 N232 1.363 . S
C237 N234 1.377 1_556 S
C237 C250 1.479 . S
C238 C235 1.480 . S
C238 C239 1.383 . S
C238 C243 1.385 . S
C239 H220 0.947 1_554 S
C239 C238 1.383 . S
C239 C240 1.388 . S
C240 H221 0.946 1_554 S
C240 C239 1.388 . S
C240 C241 1.384 . S
C241 C240 1.384 . S
C241 C242 1.377 . S
C242 H222 0.953 . S
C242 C241 1.377 . S
C242 C243 1.369 . S
C243 H223 0.945 . S
C243 C238 1.385 . S
C243 C242 1.369 . S
C244 C236 1.457 . S
C244 C245 1.372 . S
C244 C249 1.364 . S
C245 H224 0.952 . S
C245 C244 1.372 . S
C245 C246 1.389 . S
C246 H225 0.949 . S
C246 C245 1.389 . S
C246 C247 1.387 . S
C247 C246 1.387 . S
C247 C248 1.372 . S
C248 H226 0.950 . S
C248 C247 1.372 . S
C248 C249 1.379 . S
C249 H227 0.948 . S
C249 C244 1.364 . S
C249 C248 1.379 . S
C250 C219 1.383 . S
C250 C237 1.479 . S
C250 C251 1.398 . S
C251 C216 1.382 . S
C251 H228 0.951 . S
C251 C250 1.398 . S
C252 C253 1.384 . S
C252 H265 0.947 . S
C252 C287 1.382 . S
C253 C252 1.384 . S
C253 C254 1.378 . S
C254 C253 1.378 . S
C254 C255 1.378 . S
C254 H266 0.952 . S
C255 C254 1.378 . S
C255 H267 0.950 . S
C255 C286 1.383 . S
H256 C275 0.947 . S
H257 C276 0.946 . S
H258 C278 0.953 1_556 S
H259 C279 0.945 1_556 S
H260 C281 0.952 . S
H261 C282 0.949 . S
H262 C284 0.950 . S
H263 C285 0.948 . S
H264 C287 0.951 . S
H265 C252 0.947 . S
H266 C254 0.952 . S
H267 C255 0.950 . S
N268 C271 1.382 . S
N268 C273 1.363 . S
N269 C271 1.371 1_556 S
N269 C272 1.372 . S
N270 C272 1.361 1_554 S
N270 C273 1.377 . S
C271 N268 1.382 . S
C271 N269 1.371 1_554 S
C271 C274 1.480 . S
C272 N269 1.372 . S
C272 N270 1.361 1_556 S
C272 C280 1.457 . S
C273 N268 1.363 . S
C273 N270 1.377 . S
C273 C286 1.479 . S
C274 C271 1.480 . S
C274 C275 1.383 . S
C274 C279 1.385 . S
C275 H256 0.947 . S
C275 C274 1.383 . S
C275 C276 1.388 . S
C276 H257 0.946 . S
C276 C275 1.388 . S
C276 C277 1.384 . S
C277 C276 1.384 . S
C277 C278 1.377 . S
C278 H258 0.953 1_554 S
C278 C277 1.377 . S
C278 C279 1.369 . S
C279 H259 0.945 1_554 S
C279 C274 1.385 . S
C279 C278 1.369 . S
C280 C272 1.457 . S
C280 C281 1.372 . S
C280 C285 1.364 . S
C281 H260 0.952 . S
C281 C280 1.372 . S
C281 C282 1.389 . S
C282 H261 0.949 . S
C282 C281 1.389 . S
C282 C283 1.387 . S
C283 C282 1.387 . S
C283 C284 1.372 . S
C284 H262 0.950 . S
C284 C283 1.372 . S
C284 C285 1.379 . S
C285 H263 0.948 . S
C285 C280 1.364 . S
C285 C284 1.379 . S
C286 C255 1.383 . S
C286 C273 1.479 . S
C286 C287 1.398 . S
C287 C252 1.382 . S
C287 H264 0.951 . S
C287 C286 1.398 . S
Gd288 N319 2.661 1_545 S
Gd288 N325 2.601 . S
Gd288 O332 2.545 . S
Gd288 O333 2.606 1_655 S
Gd288 O335 2.429 . S
Gd288 O336 2.545 1_655 S
Gd288 O337 2.412 . S
Gd288 O339 2.362 1_545 S
Gd288 O340 2.324 1_655 S
Gd288 C347 2.828 . S
Gd289 N298 2.661 1_565 S
Gd289 N302 2.601 . S
Gd289 O333 2.362 1_565 S
Gd289 O334 2.324 1_455 S
Gd289 O338 2.545 . S
Gd289 O339 2.606 1_455 S
Gd289 O341 2.429 . S
Gd289 O342 2.545 . S
Gd289 O343 2.412 . S
Gd289 C356 2.828 . S
C290 C293 1.417 . S
C290 C295 1.431 . S
C290 C296 1.412 . S
C291 C294 1.437 . S
C291 C295 1.317 . S
C291 H310 0.929 . S
C292 C293 1.426 . S
C292 C294 1.413 . S
C292 N302 1.359 1_545 S
C293 C290 1.417 . S
C293 C292 1.426 . S
C293 N298 1.350 . S
C294 C291 1.437 . S
C294 C292 1.413 . S
C294 C304 1.405 . S
C295 C290 1.431 . S
C295 C291 1.317 . S
C295 H306 0.930 . S
C296 C290 1.412 . S
C296 C297 1.355 . S
C296 H308 0.930 . S
C297 C296 1.355 . S
C297 C299 1.402 . S
C297 H309 0.930 1_455 S
N298 Gd289 2.661 1_545 S
N298 C293 1.350 . S
N298 C299 1.307 . S
C299 C297 1.402 . S
C299 N298 1.307 . S
C299 H300 0.930 1_455 S
H300 C299 0.930 1_655 S
C301 N302 1.334 . S
C301 C303 1.394 . S
C301 H305 0.930 . S
N302 Gd289 2.601 . S
N302 C292 1.359 1_565 S
N302 C301 1.334 . S
C303 C301 1.394 . S
C303 C304 1.342 1_565 S
C303 H315 0.930 . S
C304 C294 1.405 . S
C304 C303 1.342 1_545 S
C304 H316 0.933 . S
H305 C301 0.930 . S
H306 C295 0.930 . S
H307 C324 0.921 1_455 S
H308 C296 0.930 . S
H309 C297 0.930 1_655 S
H310 C291 0.929 . S
H311 C329 0.930 . S
H312 C320 0.930 . S
H313 C321 0.930 1_455 S
H314 C345 0.929 . S
H315 C303 0.930 . S
H316 C304 0.933 . S
H317 C346 0.930 . S
H318 C327 0.930 . S
N319 Gd288 2.661 1_565 S
N319 C323 1.350 . S
N319 C324 1.315 . S
C320 H312 0.930 . S
C320 C321 1.355 . S
C320 C322 1.412 . S
C321 H313 0.930 1_655 S
C321 C320 1.355 . S
C321 C324 1.403 . S
C322 C320 1.412 . S
C322 C323 1.417 . S
C322 C346 1.431 . S
C323 N319 1.350 . S
C323 C322 1.417 . S
C323 C326 1.426 1_565 S
C324 H307 0.921 1_655 S
C324 N319 1.315 . S
C324 C321 1.403 . S
N325 Gd288 2.601 . S
N325 C326 1.359 . S
N325 C329 1.334 . S
C326 C323 1.426 1_545 S
C326 N325 1.359 . S
C326 C330 1.412 1_545 S
C327 H318 0.930 . S
C327 C328 1.359 . S
C327 C329 1.394 . S
C328 C327 1.359 . S
C328 C330 1.387 1_545 S
C328 H331 0.929 . S
C329 H311 0.930 . S
C329 N325 1.334 . S
C329 C327 1.394 . S
C330 C326 1.412 1_565 S
C330 C328 1.387 1_565 S
C330 C345 1.442 . S
H331 C328 0.929 . S
O332 Gd288 2.545 . S
O332 C347 1.258 . S
O333 Gd288 2.606 1_455 S
O333 Gd289 2.362 1_545 S
O333 C344 1.284 . S
O334 Gd289 2.324 1_655 S
O334 C354 1.254 1_565 S
O335 Gd288 2.429 . S
O335 C354 1.268 . S
O336 Gd288 2.545 1_455 S
O336 C344 1.250 . S
O337 Gd288 2.412 . S
O337 C347 1.252 . S
O338 Gd289 2.545 . S
O338 C356 1.258 . S
O339 Gd288 2.362 1_565 S
O339 Gd289 2.606 1_655 S
O339 C355 1.284 . S
O340 Gd288 2.324 1_455 S
O340 C363 1.254 . S
O341 Gd289 2.429 . S
O341 C363 1.268 1_565 S
O342 Gd289 2.545 . S
O342 C355 1.250 1_455 S
O343 Gd289 2.412 . S
O343 C356 1.252 . S
C344 O333 1.284 . S
C344 O336 1.250 . S
C345 H314 0.929 . S
C345 C330 1.442 . S
C345 C346 1.317 . S
C346 H317 0.930 . S
C346 C322 1.431 . S
C346 C345 1.317 . S
C347 Gd288 2.828 . S
C347 O332 1.258 . S
C347 O337 1.252 . S
C347 C348 1.497 . S
C348 C347 1.497 . S
C348 C349 1.395 . S
C348 C350 1.380 . S
C349 C348 1.395 . S
C349 C352 1.398 . S
C349 H364 0.930 . S
C350 C348 1.380 . S
C350 C351 1.391 . S
C350 H365 0.930 1_655 S
C351 C350 1.391 . S
C351 C353 1.387 . S
C352 C349 1.398 . S
C352 C353 1.380 . S
C352 H366 0.930 . S
C353 C351 1.387 . S
C353 C352 1.380 . S
C353 H367 0.930 . S
C354 O334 1.254 1_545 S
C354 O335 1.268 . S
C355 O339 1.284 . S
C355 O342 1.250 1_655 S
C356 Gd289 2.828 . S
C356 O338 1.258 . S
C356 O343 1.252 . S
C356 C357 1.497 . S
C357 C356 1.497 . S
C357 C358 1.395 . S
C357 C359 1.380 . S
C358 C357 1.395 . S
C358 C361 1.398 . S
C358 H368 0.930 . S
C359 C357 1.380 . S
C359 C360 1.391 . S
C359 H369 0.930 . S
C360 C359 1.391 . S
C360 C362 1.387 . S
C361 C358 1.398 . S
C361 C362 1.380 . S
C361 H370 0.930 . S
C362 C360 1.387 . S
C362 C361 1.380 . S
C362 H371 0.930 . S
C363 O340 1.254 . S
C363 O341 1.268 1_545 S
H364 C349 0.930 . S
H365 C350 0.930 1_455 S
H366 C352 0.930 . S
H367 C353 0.930 . S
H368 C358 0.930 . S
H369 C359 0.930 . S
H370 C361 0.930 . S
H371 C362 0.930 . S
Gd372 N403 2.661 . S
Gd372 N409 2.601 . S
Gd372 O416 2.545 . S
Gd372 O417 2.606 1_565 S
Gd372 O419 2.429 . S
Gd372 O420 2.545 1_565 S
Gd372 O421 2.412 . S
Gd372 O423 2.362 . S
Gd372 O424 2.324 1_565 S
Gd372 C431 2.828 . S
Gd373 N382 2.661 . S
Gd373 N386 2.601 . S
Gd373 O417 2.362 . S
Gd373 O418 2.324 1_545 S
Gd373 O422 2.545 . S
Gd373 O423 2.606 1_545 S
Gd373 O425 2.429 . S
Gd373 O426 2.545 . S
Gd373 O427 2.412 . S
Gd373 C440 2.828 . S
C374 C377 1.417 . S
C374 C379 1.431 . S
C374 C380 1.412 . S
C375 C378 1.437 . S
C375 C379 1.317 . S
C375 H394 0.929 . S
C376 C377 1.426 . S
C376 C378 1.413 . S
C376 N386 1.359 . S
C377 C374 1.417 . S
C377 C376 1.426 . S
C377 N382 1.350 . S
C378 C375 1.437 . S
C378 C376 1.413 . S
C378 C388 1.391 . S
C379 C374 1.431 . S
C379 C375 1.317 . S
C379 H390 0.930 . S
C380 C374 1.412 . S
C380 C381 1.355 . S
C380 H392 0.930 . S
C381 C380 1.355 . S
C381 C383 1.402 . S
C381 H393 0.930 1_545 S
N382 Gd373 2.661 . S
N382 C377 1.350 . S
N382 C383 1.307 . S
C383 C381 1.402 . S
C383 N382 1.307 . S
C383 H384 0.930 1_545 S
H384 C383 0.930 1_565 S
C385 N386 1.334 . S
C385 C387 1.394 . S
C385 H389 0.930 . S
N386 Gd373 2.601 . S
N386 C376 1.359 . S
N386 C385 1.334 . S
C387 C385 1.394 . S
C387 C388 1.359 . S
C387 H399 0.930 . S
C388 C378 1.391 . S
C388 C387 1.359 . S
C388 H400 0.929 . S
H389 C385 0.930 . S
H390 C379 0.930 . S
H391 C408 0.930 . S
H392 C380 0.930 . S
H393 C381 0.930 1_565 S
H394 C375 0.929 . S
H395 C413 0.930 . S
H396 C404 0.930 . S
H397 C405 0.930 . S
H398 C429 0.929 . S
H399 C387 0.930 . S
H400 C388 0.929 . S
H401 C430 0.930 . S
H402 C411 0.930 . S
N403 Gd372 2.661 . S
N403 C407 1.350 . S
N403 C408 1.307 1_565 S
C404 H396 0.930 . S
C404 C405 1.355 1_565 S
C404 C406 1.412 . S
C405 H397 0.930 . S
C405 C404 1.355 1_545 S
C405 C408 1.402 . S
C406 C404 1.412 . S
C406 C407 1.417 . S
C406 C430 1.431 . S
C407 N403 1.350 . S
C407 C406 1.417 . S
C407 C410 1.426 . S
C408 H391 0.930 . S
C408 N403 1.307 1_545 S
C408 C405 1.402 . S
N409 Gd372 2.601 . S
N409 C410 1.359 . S
N409 C413 1.334 . S
C410 C407 1.426 . S
C410 N409 1.359 . S
C410 C414 1.413 . S
C411 H402 0.930 . S
C411 C412 1.359 . S
C411 C413 1.394 . S
C412 C411 1.359 . S
C412 C414 1.391 . S
C412 H415 0.929 . S
C413 H395 0.930 . S
C413 N409 1.334 . S
C413 C411 1.394 . S
C414 C410 1.413 . S
C414 C412 1.391 . S
C414 C429 1.437 . S
H415 C412 0.929 . S
O416 Gd372 2.545 . S
O416 C431 1.258 . S
O417 Gd372 2.606 1_545 S
O417 Gd373 2.362 . S
O417 C428 1.284 . S
O418 Gd373 2.324 1_565 S
O418 C438 1.254 . S
O419 Gd372 2.429 . S
O419 C438 1.268 . S
O420 Gd372 2.545 1_545 S
O420 C428 1.250 . S
O421 Gd372 2.412 . S
O421 C431 1.252 . S
O422 Gd373 2.545 . S
O422 C440 1.258 . S
O423 Gd372 2.362 . S
O423 Gd373 2.606 1_565 S
O423 C439 1.284 . S
O424 Gd372 2.324 1_545 S
O424 C447 1.254 . S
O425 Gd373 2.429 . S
O425 C447 1.268 . S
O426 Gd373 2.545 . S
O426 C439 1.250 1_545 S
O427 Gd373 2.412 . S
O427 C440 1.252 . S
C428 O417 1.284 . S
C428 O420 1.250 . S
C429 H398 0.929 . S
C429 C414 1.437 . S
C429 C430 1.317 . S
C430 H401 0.930 . S
C430 C406 1.431 . S
C430 C429 1.317 . S
C431 Gd372 2.828 . S
C431 O416 1.258 . S
C431 O421 1.252 . S
C431 C432 1.497 . S
C432 C431 1.497 . S
C432 C433 1.395 . S
C432 C434 1.380 . S
C433 C432 1.395 . S
C433 C436 1.398 . S
C433 H448 0.930 . S
C434 C432 1.380 . S
C434 C435 1.391 . S
C434 H449 0.930 1_565 S
C435 C434 1.391 . S
C435 C437 1.387 . S
C436 C433 1.398 . S
C436 C437 1.380 . S
C436 H450 0.930 . S
C437 C435 1.387 . S
C437 C436 1.380 . S
C437 H451 0.930 . S
C438 O418 1.254 . S
C438 O419 1.268 . S
C439 O423 1.284 . S
C439 O426 1.250 1_565 S
C440 Gd373 2.828 . S
C440 O422 1.258 . S
C440 O427 1.252 . S
C440 C441 1.497 . S
C441 C440 1.497 . S
C441 C442 1.395 . S
C441 C443 1.380 . S
C442 C441 1.395 . S
C442 C445 1.398 . S
C442 H452 0.930 . S
C443 C441 1.380 . S
C443 C444 1.391 . S
C443 H453 0.930 . S
C444 C443 1.391 . S
C444 C446 1.387 . S
C445 C442 1.398 . S
C445 C446 1.380 . S
C445 H454 0.930 . S
C446 C444 1.387 . S
C446 C445 1.380 . S
C446 H455 0.930 . S
C447 O424 1.254 . S
C447 O425 1.268 . S
H448 C433 0.930 . S
H449 C434 0.930 1_545 S
H450 C436 0.930 . S
H451 C437 0.930 . S
H452 C442 0.930 . S
H453 C443 0.930 . S
H454 C445 0.930 . S
H455 C446 0.930 . S
Gd456 N487 2.661 . S
Gd456 N493 2.601 . S
Gd456 O500 2.545 . S
Gd456 O501 2.606 . S
Gd456 O503 2.429 . S
Gd456 O504 2.545 . S
Gd456 O505 2.412 . S
Gd456 O507 2.362 . S
Gd456 O508 2.324 . S
Gd456 C515 2.828 . S
Gd457 N466 2.661 . S
Gd457 N470 2.601 . S
Gd457 O501 2.362 . S
Gd457 O502 2.324 . S
Gd457 O506 2.545 . S
Gd457 O507 2.606 . S
Gd457 O509 2.429 . S
Gd457 O510 2.545 . S
Gd457 O511 2.412 . S
Gd457 C524 2.828 . S
C458 C461 1.417 . S
C458 C463 1.431 . S
C458 C464 1.412 . S
C459 C462 1.437 . S
C459 C463 1.317 . S
C459 H478 0.929 . S
C460 C461 1.426 . S
C460 C462 1.413 . S
C460 N470 1.359 . S
C461 C458 1.417 . S
C461 C460 1.426 . S
C461 N466 1.350 . S
C462 C459 1.437 . S
C462 C460 1.413 . S
C462 C472 1.391 . S
C463 C458 1.431 . S
C463 C459 1.317 . S
C463 H474 0.930 . S
C464 C458 1.412 . S
C464 C465 1.355 . S
C464 H476 0.930 . S
C465 C464 1.355 . S
C465 C467 1.402 . S
C465 H477 0.930 . S
N466 Gd457 2.661 . S
N466 C461 1.350 . S
N466 C467 1.307 . S
C467 C465 1.402 . S
C467 N466 1.307 . S
C467 H468 0.930 . S
H468 C467 0.930 . S
C469 N470 1.334 . S
C469 C471 1.394 . S
C469 H473 0.930 . S
N470 Gd457 2.601 . S
N470 C460 1.359 . S
N470 C469 1.334 . S
C471 C469 1.394 . S
C471 C472 1.359 . S
C471 H483 0.930 . S
C472 C462 1.391 . S
C472 C471 1.359 . S
C472 H484 0.929 . S
H473 C469 0.930 . S
H474 C463 0.930 . S
H475 C492 0.930 . S
H476 C464 0.930 . S
H477 C465 0.930 . S
H478 C459 0.929 . S
H479 C497 0.930 . S
H480 C488 0.930 . S
H481 C489 0.930 . S
H482 C513 0.929 . S
H483 C471 0.930 . S
H484 C472 0.929 . S
H485 C514 0.930 . S
H486 C495 0.930 . S
N487 Gd456 2.661 . S
N487 C491 1.350 . S
N487 C492 1.307 . S
C488 H480 0.930 . S
C488 C489 1.355 . S
C488 C490 1.412 . S
C489 H481 0.930 . S
C489 C488 1.355 . S
C489 C492 1.402 . S
C490 C488 1.412 . S
C490 C491 1.417 . S
C490 C514 1.431 . S
C491 N487 1.350 . S
C491 C490 1.417 . S
C491 C494 1.426 . S
C492 H475 0.930 . S
C492 N487 1.307 . S
C492 C489 1.402 . S
N493 Gd456 2.601 . S
N493 C494 1.359 . S
N493 C497 1.334 . S
C494 C491 1.426 . S
C494 N493 1.359 . S
C494 C498 1.413 . S
C495 H486 0.930 . S
C495 C496 1.359 . S
C495 C497 1.394 . S
C496 C495 1.359 . S
C496 C498 1.391 . S
C496 H499 0.929 . S
C497 H479 0.930 . S
C497 N493 1.334 . S
C497 C495 1.394 . S
C498 C494 1.413 . S
C498 C496 1.391 . S
C498 C513 1.437 . S
H499 C496 0.929 . S
O500 Gd456 2.545 . S
O500 C515 1.258 . S
O501 Gd456 2.606 . S
O501 Gd457 2.362 . S
O501 C512 1.284 . S
O502 Gd457 2.324 . S
O502 C522 1.254 . S
O503 Gd456 2.429 . S
O503 C522 1.268 . S
O504 Gd456 2.545 . S
O504 C512 1.250 . S
O505 Gd456 2.412 . S
O505 C515 1.252 . S
O506 Gd457 2.545 . S
O506 C524 1.258 . S
O507 Gd456 2.362 . S
O507 Gd457 2.606 . S
O507 C523 1.284 . S
O508 Gd456 2.324 . S
O508 C531 1.254 . S
O509 Gd457 2.429 . S
O509 C531 1.268 . S
O510 Gd457 2.545 . S
O510 C523 1.250 . S
O511 Gd457 2.412 . S
O511 C524 1.252 . S
C512 O501 1.284 . S
C512 O504 1.250 . S
C513 H482 0.929 . S
C513 C498 1.437 . S
C513 C514 1.317 . S
C514 H485 0.930 . S
C514 C490 1.431 . S
C514 C513 1.317 . S
C515 Gd456 2.828 . S
C515 O500 1.258 . S
C515 O505 1.252 . S
C515 C516 1.497 . S
C516 C515 1.497 . S
C516 C517 1.395 . S
C516 C518 1.380 . S
C517 C516 1.395 . S
C517 C520 1.398 . S
C517 H532 0.930 . S
C518 C516 1.380 . S
C518 C519 1.391 . S
C518 H533 0.930 . S
C519 C518 1.391 . S
C519 C521 1.387 . S
C520 C517 1.398 . S
C520 C521 1.380 . S
C520 H534 0.930 1_556 S
C521 C519 1.387 . S
C521 C520 1.380 . S
C521 H535 0.930 1_556 S
C522 O502 1.254 . S
C522 O503 1.268 . S
C523 O507 1.284 . S
C523 O510 1.250 . S
C524 Gd457 2.828 . S
C524 O506 1.258 . S
C524 O511 1.252 . S
C524 C525 1.497 . S
C525 C524 1.497 . S
C525 C526 1.395 . S
C525 C527 1.380 . S
C526 C525 1.395 . S
C526 C529 1.398 . S
C526 H536 0.930 . S
C527 C525 1.380 . S
C527 C528 1.391 . S
C527 H537 0.930 . S
C528 C527 1.391 . S
C528 C530 1.387 . S
C529 C526 1.398 . S
C529 C530 1.380 . S
C529 H538 0.930 . S
C530 C528 1.387 . S
C530 C529 1.380 . S
C530 H539 0.930 . S
C531 O508 1.254 . S
C531 O509 1.268 . S
H532 C517 0.930 . S
H533 C518 0.930 . S
H534 C520 0.930 1_554 S
H535 C521 0.930 1_554 S
H536 C526 0.930 . S
H537 C527 0.930 . S
H538 C529 0.930 . S
H539 C530 0.930 . S
Gd540 N571 2.661 . S
Gd540 N577 2.601 . S
Gd540 O584 2.545 . S
Gd540 O585 2.608 . S
Gd540 O587 2.429 1_655 S
Gd540 O588 2.545 . S
Gd540 O589 2.412 . S
Gd540 O591 2.362 1_655 S
Gd540 O592 2.324 . S
Gd540 C599 2.828 . S
Gd541 N550 2.661 . S
Gd541 N554 2.601 . S
Gd541 O585 2.358 1_455 S
Gd541 O586 2.324 . S
Gd541 O590 2.545 . S
Gd541 O591 2.606 . S
Gd541 O593 2.429 1_455 S
Gd541 O594 2.545 . S
Gd541 O595 2.412 . S
Gd541 C608 2.828 . S
C542 C545 1.417 . S
C542 C547 1.431 . S
C542 C548 1.412 . S
C543 C546 1.437 . S
C543 C547 1.317 . S
C543 H562 0.929 . S
C544 C545 1.426 . S
C544 C546 1.413 . S
C544 N554 1.359 . S
C545 C542 1.417 . S
C545 C544 1.426 . S
C545 N550 1.350 . S
C546 C543 1.437 . S
C546 C544 1.413 . S
C546 C556 1.391 . S
C547 C542 1.431 . S
C547 C543 1.317 . S
C547 H558 0.930 . S
C548 C542 1.412 . S
C548 C549 1.355 . S
C548 H560 0.930 . S
C549 C548 1.355 . S
C549 C551 1.402 . S
C549 H561 0.930 . S
N550 Gd541 2.661 . S
N550 C545 1.350 . S
N550 C551 1.307 . S
C551 C549 1.402 . S
C551 N550 1.307 . S
C551 H552 0.930 . S
H552 C551 0.930 . S
C553 N554 1.356 . S
C553 C555 1.391 1_455 S
C553 H557 0.911 1_455 S
N554 Gd541 2.601 . S
N554 C544 1.359 . S
N554 C553 1.356 . S
C555 C553 1.391 1_655 S
C555 C556 1.359 1_655 S
C555 H567 0.930 . S
C556 C546 1.391 . S
C556 C555 1.359 1_455 S
C556 H568 0.929 . S
H557 C553 0.911 1_655 S
H558 C547 0.930 . S
H559 C576 0.930 . S
H560 C548 0.930 . S
H561 C549 0.930 . S
H562 C543 0.929 . S
H563 C581 0.930 . S
H564 C572 0.930 . S
H565 C573 0.930 . S
H566 C597 0.929 . S
H567 C555 0.930 . S
H568 C556 0.929 . S
H569 C598 0.930 . S
H570 C579 0.930 . S
N571 Gd540 2.661 . S
N571 C575 1.350 . S
N571 C576 1.307 . S
C572 H564 0.930 . S
C572 C573 1.355 . S
C572 C574 1.412 . S
C573 H565 0.930 . S
C573 C572 1.355 . S
C573 C576 1.402 . S
C574 C572 1.412 . S
C574 C575 1.417 . S
C574 C598 1.431 . S
C575 N571 1.350 . S
C575 C574 1.417 . S
C575 C578 1.426 . S
C576 H559 0.930 . S
C576 N571 1.307 . S
C576 C573 1.402 . S
N577 Gd540 2.601 . S
N577 C578 1.359 . S
N577 C581 1.334 1_655 S
C578 C575 1.426 . S
C578 N577 1.359 . S
C578 C582 1.413 . S
C579 H570 0.930 . S
C579 C580 1.359 1_455 S
C579 C581 1.394 . S
C580 C579 1.359 1_655 S
C580 C582 1.391 . S
C580 H583 0.927 1_655 S
C581 H563 0.930 . S
C581 N577 1.334 1_455 S
C581 C579 1.394 . S
C582 C578 1.413 . S
C582 C580 1.391 . S
C582 C597 1.437 . S
H583 C580 0.927 1_455 S
O584 Gd540 2.545 . S
O584 C599 1.258 . S
O585 Gd540 2.608 . S
O585 Gd541 2.358 1_655 S
O585 C596 1.287 . S
O586 Gd541 2.324 . S
O586 C606 1.254 . S
O587 Gd540 2.429 1_455 S
O587 C606 1.268 . S
O588 Gd540 2.545 . S
O588 C596 1.250 . S
O589 Gd540 2.412 . S
O589 C599 1.252 . S
O590 Gd541 2.545 . S
O590 C608 1.258 . S
O591 Gd540 2.362 1_455 S
O591 Gd541 2.606 . S
O591 C607 1.284 . S
O592 Gd540 2.324 . S
O592 C615 1.254 . S
O593 Gd541 2.429 1_655 S
O593 C615 1.268 . S
O594 Gd541 2.545 . S
O594 C607 1.250 . S
O595 Gd541 2.412 . S
O595 C608 1.252 . S
C596 O585 1.287 . S
C596 O588 1.250 . S
C597 H566 0.929 . S
C597 C582 1.437 . S
C597 C598 1.317 . S
C598 H569 0.930 . S
C598 C574 1.431 . S
C598 C597 1.317 . S
C599 Gd540 2.828 . S
C599 O584 1.258 . S
C599 O589 1.252 . S
C599 C600 1.497 . S
C600 C599 1.497 . S
C600 C601 1.395 . S
C600 C602 1.380 . S
C601 C600 1.395 . S
C601 C604 1.398 . S
C601 H616 0.930 . S
C602 C600 1.380 . S
C602 C603 1.391 . S
C602 H617 0.930 . S
C603 C602 1.391 . S
C603 C605 1.387 . S
C604 C601 1.398 . S
C604 C605 1.380 . S
C604 H618 0.930 1_556 S
C605 C603 1.387 . S
C605 C604 1.380 . S
C605 H619 0.930 1_556 S
C606 O586 1.254 . S
C606 O587 1.268 . S
C607 O591 1.284 . S
C607 O594 1.250 . S
C608 Gd541 2.828 . S
C608 O590 1.258 . S
C608 O595 1.252 . S
C608 C609 1.497 . S
C609 C608 1.497 . S
C609 C610 1.395 . S
C609 C611 1.380 . S
C610 C609 1.395 . S
C610 C613 1.398 . S
C610 H620 0.930 . S
C611 C609 1.380 . S
C611 C612 1.391 . S
C611 H621 0.930 . S
C612 C611 1.391 . S
C612 C614 1.387 . S
C613 C610 1.398 . S
C613 C614 1.380 . S
C613 H622 0.930 . S
C614 C612 1.387 . S
C614 C613 1.380 . S
C614 H623 0.930 . S
C615 O592 1.254 . S
C615 O593 1.268 . S
H616 C601 0.930 . S
H617 C602 0.930 . S
H618 C604 0.930 1_554 S
H619 C605 0.930 1_554 S
H620 C610 0.930 . S
H621 C611 0.930 . S
H622 C613 0.930 . S
H623 C614 0.930 . S
H624 C630 0.930 . S
H625 C633 0.930 . S
H626 C634 0.930 1_565 S
H627 C635 0.930 1_565 S
H628 C638 0.930 . S
H629 C639 0.930 . S
C630 H624 0.930 . S
C630 C631 1.355 . S
C630 C632 1.415 . S
C631 C630 1.355 . S
C631 C633 1.419 . S
C632 C630 1.415 . S
C632 C637 1.425 . S
C632 C639 1.409 . S
C633 H625 0.930 . S
C633 C631 1.419 . S
C633 C634 1.362 . S
C634 H626 0.930 1_545 S
C634 C633 1.362 . S
C634 C637 1.409 . S
C635 H627 0.930 1_545 S
C635 C636 1.355 . S
C635 C637 1.415 . S
C636 C635 1.355 . S
C636 C638 1.419 . S
C637 C632 1.425 . S
C637 C634 1.409 . S
C637 C635 1.415 . S
C638 H628 0.930 . S
C638 C636 1.419 . S
C638 C639 1.362 . S
C639 H629 0.930 . S
C639 C632 1.409 . S
C639 C638 1.362 . S
H640 C646 0.930 . S
H641 C649 0.930 . S
H642 C650 0.930 . S
H643 C651 0.930 . S
H644 C654 0.930 . S
H645 C655 0.930 . S
C646 H640 0.930 . S
C646 C647 1.355 . S
C646 C648 1.415 . S
C647 C646 1.355 . S
C647 C649 1.419 . S
C648 C646 1.415 . S
C648 C653 1.425 . S
C648 C655 1.409 . S
C649 H641 0.930 . S
C649 C647 1.419 . S
C649 C650 1.362 . S
C650 H642 0.930 . S
C650 C649 1.362 . S
C650 C653 1.409 . S
C651 H643 0.930 . S
C651 C652 1.355 . S
C651 C653 1.415 . S
C652 C651 1.355 . S
C652 C654 1.419 . S
C653 C648 1.425 . S
C653 C650 1.409 . S
C653 C651 1.415 . S
C654 H644 0.930 . S
C654 C652 1.419 . S
C654 C655 1.362 . S
C655 H645 0.930 . S
C655 C648 1.409 . S
C655 C654 1.362 . S
H656 C662 0.930 . S
H657 C665 0.930 . S
H658 C666 0.930 . S
H659 C667 0.930 . S
H660 C670 0.930 . S
H661 C671 0.930 . S
C662 H656 0.930 . S
C662 C663 1.355 . S
C662 C664 1.415 . S
C663 C662 1.355 . S
C663 C665 1.419 . S
C664 C662 1.415 . S
C664 C669 1.425 . S
C664 C671 1.409 . S
C665 H657 0.930 . S
C665 C663 1.419 . S
C665 C666 1.362 . S
C666 H658 0.930 . S
C666 C665 1.362 . S
C666 C669 1.409 . S
C667 H659 0.930 . S
C667 C668 1.355 . S
C667 C669 1.415 . S
C668 C667 1.355 . S
C668 C670 1.419 . S
C669 C664 1.425 . S
C669 C666 1.409 . S
C669 C667 1.415 . S
C670 H660 0.930 . S
C670 C668 1.419 . S
C670 C671 1.362 . S
C671 H661 0.930 . S
C671 C664 1.409 . S
C671 C670 1.362 . S
H672 C678 0.930 . S
H673 C681 0.930 . S
H674 C682 0.930 . S
H675 C683 0.930 . S
H676 C686 0.930 . S
H677 C687 0.930 . S
C678 H672 0.930 . S
C678 C679 1.355 . S
C678 C680 1.415 . S
C679 C678 1.355 . S
C679 C681 1.419 . S
C680 C678 1.415 . S
C680 C685 1.425 . S
C680 C687 1.409 . S
C681 H673 0.930 . S
C681 C679 1.419 . S
C681 C682 1.362 . S
C682 H674 0.930 . S
C682 C681 1.362 . S
C682 C685 1.409 . S
C683 H675 0.930 . S
C683 C684 1.355 . S
C683 C685 1.415 . S
C684 C683 1.355 . S
C684 C686 1.419 . S
C685 C680 1.425 . S
C685 C682 1.409 . S
C685 C683 1.415 . S
C686 H676 0.930 . S
C686 C684 1.419 . S
C686 C687 1.362 . S
C687 H677 0.930 . S
C687 C680 1.409 . S
C687 C686 1.362 . S
H688 C694 0.930 . S
H689 C697 0.930 . S
H690 C698 0.930 . S
H691 C699 0.930 . S
H692 C702 0.930 1_545 S
H693 C703 0.930 . S
C694 H688 0.930 . S
C694 C695 1.355 . S
C694 C696 1.415 1_554 S
C695 C694 1.355 . S
C695 C697 1.419 . S
C696 C694 1.415 1_556 S
C696 C701 1.425 . S
C696 C703 1.409 . S
C697 H689 0.930 . S
C697 C695 1.419 . S
C697 C698 1.362 1_554 S
C698 H690 0.930 . S
C698 C697 1.362 1_556 S
C698 C701 1.409 . S
C699 H691 0.930 . S
C699 C700 1.355 . S
C699 C701 1.415 . S
C700 C699 1.355 . S
C700 C702 1.419 . S
C701 C696 1.425 . S
C701 C698 1.409 . S
C701 C699 1.415 . S
C702 H692 0.930 1_565 S
C702 C700 1.419 . S
C702 C703 1.362 . S
C703 H693 0.930 . S
C703 C696 1.409 . S
C703 C702 1.362 . S
H704 C710 0.930 . S
H705 C713 0.930 . S
H706 C714 0.930 . S
H707 C715 0.930 . S
H708 C718 0.930 . S
H709 C719 0.930 . S
C710 H704 0.930 . S
C710 C711 1.355 . S
C710 C712 1.415 1_554 S
C711 C710 1.355 . S
C711 C713 1.419 . S
C712 C710 1.415 1_556 S
C712 C717 1.425 . S
C712 C719 1.409 . S
C713 H705 0.930 . S
C713 C711 1.419 . S
C713 C714 1.362 1_554 S
C714 H706 0.930 . S
C714 C713 1.362 1_556 S
C714 C717 1.409 . S
C715 H707 0.930 . S
C715 C716 1.355 . S
C715 C717 1.415 . S
C716 C715 1.355 . S
C716 C718 1.419 . S
C717 C712 1.425 . S
C717 C714 1.409 . S
C717 C715 1.415 . S
C718 H708 0.930 . S
C718 C716 1.419 . S
C718 C719 1.362 . S
C719 H709 0.930 . S
C719 C712 1.409 . S
C719 C718 1.362 . S
H720 C726 0.930 . S
H721 C729 0.930 . S
H722 C730 0.930 . S
H723 C731 0.930 . S
H724 C734 0.930 . S
H725 C735 0.930 . S
C726 H720 0.930 . S
C726 C727 1.355 . S
C726 C728 1.415 1_554 S
C727 C726 1.355 . S
C727 C729 1.419 . S
C728 C726 1.415 1_556 S
C728 C733 1.425 . S
C728 C735 1.409 . S
C729 H721 0.930 . S
C729 C727 1.419 . S
C729 C730 1.362 1_554 S
C730 H722 0.930 . S
C730 C729 1.362 1_556 S
C730 C733 1.409 . S
C731 H723 0.930 . S
C731 C732 1.355 . S
C731 C733 1.415 . S
C732 C731 1.355 . S
C732 C734 1.419 . S
C733 C728 1.425 . S
C733 C730 1.409 . S
C733 C731 1.415 . S
C734 H724 0.930 . S
C734 C732 1.419 . S
C734 C735 1.362 . S
C735 H725 0.930 . S
C735 C728 1.409 . S
C735 C734 1.362 . S
H736 C742 0.930 . S
H737 C745 0.930 . S
H738 C746 0.931 1_455 S
H739 C747 0.930 1_455 S
H740 C750 0.930 . S
H741 C751 0.930 . S
C742 H736 0.930 . S
C742 C743 1.355 . S
C742 C744 1.415 1_554 S
C743 C742 1.355 . S
C743 C745 1.419 . S
C744 C742 1.415 1_556 S
C744 C749 1.425 . S
C744 C751 1.409 . S
C745 H737 0.930 . S
C745 C743 1.419 . S
C745 C746 1.362 . S
C746 H738 0.931 1_655 S
C746 C745 1.362 . S
C746 C749 1.409 1_554 S
C747 H739 0.930 1_655 S
C747 C748 1.355 . S
C747 C749 1.415 . S
C748 C747 1.355 . S
C748 C750 1.419 . S
C749 C744 1.425 . S
C749 C746 1.409 1_556 S
C749 C747 1.415 . S
C750 H740 0.930 . S
C750 C748 1.419 . S
C750 C751 1.362 . S
C751 H741 0.930 . S
C751 C744 1.409 . S
C751 C750 1.362 . S
H752 C758 0.930 . S
H753 C761 0.930 . S
H754 C762 0.930 . S
H755 C763 0.930 . S
H756 C766 0.930 . S
H757 C767 0.930 1_655 S
C758 H752 0.930 . S
C758 C759 1.355 . S
C758 C760 1.415 . S
C759 C758 1.355 . S
C759 C761 1.419 . S
C760 C758 1.415 . S
C760 C765 1.425 . S
C760 C767 1.409 . S
C761 H753 0.930 . S
C761 C759 1.419 . S
C761 C762 1.362 . S
C762 H754 0.930 . S
C762 C761 1.362 . S
C762 C765 1.409 . S
C763 H755 0.930 . S
C763 C764 1.313 1_455 S
C763 C765 1.415 . S
C764 C763 1.313 1_655 S
C764 C766 1.437 . S
C765 C760 1.425 . S
C765 C762 1.409 . S
C765 C763 1.415 . S
C766 H756 0.930 . S
C766 C764 1.437 . S
C766 C767 1.362 1_655 S
C767 H757 0.930 1_455 S
C767 C760 1.409 . S
C767 C766 1.362 1_455 S
H768 C774 0.930 . S
H769 C777 0.930 . S
H770 C778 0.930 . S
H771 C779 0.930 . S
H772 C782 0.930 . S
H773 C783 0.930 . S
C774 H768 0.930 . S
C774 C775 1.355 . S
C774 C776 1.415 . S
C775 C774 1.355 . S
C775 C777 1.419 . S
C776 C774 1.415 . S
C776 C781 1.425 . S
C776 C783 1.409 . S
C777 H769 0.930 . S
C777 C775 1.419 . S
C777 C778 1.362 . S
C778 H770 0.930 . S
C778 C777 1.362 . S
C778 C781 1.409 . S
C779 H771 0.930 . S
C779 C780 1.355 1_545 S
C779 C781 1.415 . S
C780 C779 1.355 1_565 S
C780 C782 1.419 . S
C781 C776 1.425 . S
C781 C778 1.409 . S
C781 C779 1.415 . S
C782 H772 0.930 . S
C782 C780 1.419 . S
C782 C783 1.362 1_565 S
C783 H773 0.930 . S
C783 C776 1.409 . S
C783 C782 1.362 1_545 S
H784 C790 0.930 . S
H785 C793 0.930 . S
H786 C794 0.930 . S
H787 C795 0.930 . S
H788 C798 0.930 . S
H789 C799 0.930 . S
C790 H784 0.930 . S
C790 C791 1.355 . S
C790 C792 1.415 . S
C791 C790 1.355 . S
C791 C793 1.419 . S
C792 C790 1.415 . S
C792 C797 1.425 . S
C792 C799 1.409 . S
C793 H785 0.930 . S
C793 C791 1.419 . S
C793 C794 1.362 . S
C794 H786 0.930 . S
C794 C793 1.362 . S
C794 C797 1.409 . S
C795 H787 0.930 . S
C795 C796 1.355 . S
C795 C797 1.415 . S
C796 C795 1.355 . S
C796 C798 1.419 . S
C797 C792 1.425 . S
C797 C794 1.409 . S
C797 C795 1.415 . S
C798 H788 0.930 . S
C798 C796 1.419 . S
C798 C799 1.362 . S
C799 H789 0.930 . S
C799 C792 1.409 . S
C799 C798 1.362 . S
H800 C806 0.930 . S
H801 C809 0.930 . S
H802 C810 0.930 . S
H803 C811 0.930 . S
H804 C814 0.930 . S
H805 C815 0.930 . S
C806 H800 0.930 . S
C806 C807 1.355 . S
C806 C808 1.415 . S
C807 C806 1.355 . S
C807 C809 1.419 . S
C808 C806 1.415 . S
C808 C813 1.425 . S
C808 C815 1.409 . S
C809 H801 0.930 . S
C809 C807 1.419 . S
C809 C810 1.362 . S
C810 H802 0.930 . S
C810 C809 1.362 . S
C810 C813 1.409 . S
C811 H803 0.930 . S
C811 C812 1.355 . S
C811 C813 1.415 . S
C812 C811 1.355 . S
C812 C814 1.419 . S
C813 C808 1.425 . S
C813 C810 1.409 . S
C813 C811 1.415 . S
C814 H804 0.930 . S
C814 C812 1.419 . S
C814 C815 1.362 . S
C815 H805 0.930 . S
C815 C808 1.409 . S
C815 C814 1.362 . S
H816 C822 0.930 1_554 S
H817 C825 0.930 . S
H818 C826 0.930 . S
H819 C827 0.930 . S
H820 C830 0.930 . S
H821 C831 0.930 . S
C822 H816 0.930 1_556 S
C822 C823 1.355 1_556 S
C822 C824 1.415 . S
C823 C822 1.355 1_554 S
C823 C825 1.419 1_554 S
C824 C822 1.415 . S
C824 C829 1.425 . S
C824 C831 1.409 1_655 S
C825 H817 0.930 . S
C825 C823 1.419 1_556 S
C825 C826 1.362 . S
C826 H818 0.930 . S
C826 C825 1.362 . S
C826 C829 1.409 . S
C827 H819 0.930 . S
C827 C828 1.355 1_655 S
C827 C829 1.415 . S
C828 C827 1.355 1_455 S
C828 C830 1.419 . S
C829 C824 1.425 . S
C829 C826 1.409 . S
C829 C827 1.415 . S
C830 H820 0.930 . S
C830 C828 1.419 . S
C830 C831 1.362 . S
C831 H821 0.930 . S
C831 C824 1.409 1_455 S
C831 C830 1.362 . S
H832 C838 0.930 . S
H833 C841 0.930 . S
H834 C842 0.930 . S
H835 C843 0.930 . S
H836 C846 0.931 . S
H837 C847 0.930 . S
C838 H832 0.930 . S
C838 C839 1.355 1_554 S
C838 C840 1.415 1_554 S
C839 C838 1.355 1_556 S
C839 C841 1.419 . S
C840 C838 1.415 1_556 S
C840 C845 1.425 . S
C840 C847 1.409 1_556 S
C841 H833 0.930 . S
C841 C839 1.419 . S
C841 C842 1.362 . S
C842 H834 0.930 . S
C842 C841 1.362 . S
C842 C845 1.409 . S
C843 H835 0.930 . S
C843 C844 1.355 . S
C843 C845 1.415 1_545 S
C844 C843 1.355 . S
C844 C846 1.419 1_545 S
C845 C840 1.425 . S
C845 C842 1.409 . S
C845 C843 1.415 1_565 S
C846 H836 0.931 . S
C846 C844 1.419 1_565 S
C846 C847 1.362 1_556 S
C847 H837 0.930 . S
C847 C840 1.409 1_554 S
C847 C846 1.362 1_554 S
H848 C854 0.930 . S
H849 C857 0.930 . S
H850 C858 0.930 . S
H851 C859 0.930 1_554 S
H852 C862 0.930 . S
H853 C863 0.930 . S
C854 H848 0.930 . S
C854 C855 1.355 1_556 S
C854 C856 1.415 . S
C855 C854 1.355 1_554 S
C855 C857 1.419 . S
C856 C854 1.415 . S
C856 C861 1.425 . S
C856 C863 1.409 . S
C857 H849 0.930 . S
C857 C855 1.419 . S
C857 C858 1.362 . S
C858 H850 0.930 . S
C858 C857 1.362 . S
C858 C861 1.409 1_554 S
C859 H851 0.930 1_556 S
C859 C860 1.355 . S
C859 C861 1.415 . S
C860 C859 1.355 . S
C860 C862 1.419 . S
C861 C856 1.425 . S
C861 C858 1.409 1_556 S
C861 C859 1.415 . S
C862 H852 0.930 . S
C862 C860 1.419 . S
C862 C863 1.362 . S
C863 H853 0.930 . S
C863 C856 1.409 . S
C863 C862 1.362 . S
H864 C870 0.930 . S
H865 C873 0.930 . S
H866 C874 0.930 . S
H867 C875 0.930 . S
H868 C878 0.930 . S
H869 C879 0.930 1_554 S
C870 H864 0.930 . S
C870 C871 1.355 1_554 S
C870 C872 1.415 1_554 S
C871 C870 1.355 1_556 S
C871 C873 1.419 . S
C872 C870 1.415 1_556 S
C872 C877 1.425 . S
C872 C879 1.409 . S
C873 H865 0.930 . S
C873 C871 1.419 . S
C873 C874 1.362 . S
C874 H866 0.930 . S
C874 C873 1.362 . S
C874 C877 1.409 . S
C875 H867 0.930 . S
C875 C876 1.355 . S
C875 C877 1.415 . S
C876 C875 1.355 . S
C876 C878 1.419 . S
C877 C872 1.425 . S
C877 C874 1.409 . S
C877 C875 1.415 . S
C878 H868 0.930 . S
C878 C876 1.419 . S
C878 C879 1.362 . S
C879 H869 0.930 1_556 S
C879 C872 1.409 . S
C879 C878 1.362 . S
H880 C886 0.930 . S
H881 C889 0.930 . S
H882 C890 0.930 . S
H883 C891 0.930 . S
H884 C894 0.930 . S
H885 C895 0.930 . S
C886 H880 0.930 . S
C886 C887 1.355 . S
C886 C888 1.415 . S
C887 C886 1.355 . S
C887 C889 1.419 . S
C888 C886 1.415 . S
C888 C893 1.425 . S
C888 C895 1.409 . S
C889 H881 0.930 . S
C889 C887 1.419 . S
C889 C890 1.362 . S
C890 H882 0.930 . S
C890 C889 1.362 . S
C890 C893 1.409 . S
C891 H883 0.930 . S
C891 C892 1.355 . S
C891 C893 1.415 . S
C892 C891 1.355 . S
C892 C894 1.419 . S
C893 C888 1.425 . S
C893 C890 1.409 . S
C893 C891 1.415 . S
C894 H884 0.930 . S
C894 C892 1.419 . S
C894 C895 1.362 . S
C895 H885 0.930 . S
C895 C888 1.409 . S
C895 C894 1.362 . S
H896 C902 0.930 . S
H897 C905 0.930 . S
H898 C906 0.930 . S
H899 C907 0.930 . S
H900 C910 0.960 . S
H901 C911 0.930 . S
C902 H896 0.930 . S
C902 C903 1.355 . S
C902 C904 1.415 . S
C903 C902 1.355 . S
C903 C905 1.419 . S
C904 C902 1.415 . S
C904 C909 1.425 . S
C904 C911 1.409 . S
C905 H897 0.930 . S
C905 C903 1.419 . S
C905 C906 1.362 . S
C906 H898 0.930 . S
C906 C905 1.362 . S
C906 C909 1.409 . S
C907 H899 0.930 . S
C907 C908 1.355 . S
C907 C909 1.415 . S
C908 C907 1.355 . S
C908 C910 1.419 . S
C909 C904 1.425 . S
C909 C906 1.409 . S
C909 C907 1.415 . S
C910 H900 0.960 . S
C910 C908 1.419 . S
C910 C911 1.362 . S
C911 H901 0.930 . S
C911 C904 1.409 . S
C911 C910 1.362 . S
H912 C918 0.930 . S
H913 C921 0.930 . S
H914 C922 0.930 . S
H915 C923 0.930 . S
H916 C926 0.930 . S
H917 C927 0.930 . S
C918 H912 0.930 . S
C918 C919 1.355 . S
C918 C920 1.415 . S
C919 C918 1.355 . S
C919 C921 1.419 . S
C920 C918 1.415 . S
C920 C925 1.425 . S
C920 C927 1.409 . S
C921 H913 0.930 . S
C921 C919 1.419 . S
C921 C922 1.362 . S
C922 H914 0.930 . S
C922 C921 1.362 . S
C922 C925 1.409 . S
C923 H915 0.930 . S
C923 C924 1.355 . S
C923 C925 1.415 . S
C924 C923 1.355 . S
C924 C926 1.419 . S
C925 C920 1.425 . S
C925 C922 1.409 . S
C925 C923 1.415 . S
C926 H916 0.930 . S
C926 C924 1.419 . S
C926 C927 1.362 . S
C927 H917 0.930 . S
C927 C920 1.409 . S
C927 C926 1.362 . S
H928 C934 0.930 . S
H929 C937 0.930 . S
H930 C938 0.930 . S
H931 C939 0.930 . S
H932 C942 0.930 . S
H933 C943 0.930 . S
C934 H928 0.930 . S
C934 C935 1.355 . S
C934 C936 1.415 . S
C935 C934 1.355 . S
C935 C937 1.419 . S
C936 C934 1.415 . S
C936 C941 1.425 . S
C936 C943 1.409 . S
C937 H929 0.930 . S
C937 C935 1.419 . S
C937 C938 1.362 . S
C938 H930 0.930 . S
C938 C937 1.362 . S
C938 C941 1.409 . S
C939 H931 0.930 . S
C939 C940 1.355 . S
C939 C941 1.415 . S
C940 C939 1.355 . S
C940 C942 1.419 . S
C941 C936 1.425 . S
C941 C938 1.409 . S
C941 C939 1.415 . S
C942 H932 0.930 . S
C942 C940 1.419 . S
C942 C943 1.362 . S
C943 H933 0.930 . S
C943 C936 1.409 . S
C943 C942 1.362 . S
H944 C950 0.930 . S
H945 C953 0.930 . S
H946 C954 0.930 . S
H947 C955 0.930 . S
H948 C958 0.930 1_455 S
H949 C959 0.930 1_455 S
C950 H944 0.930 . S
C950 C951 1.355 . S
C950 C952 1.415 . S
C951 C950 1.355 . S
C951 C953 1.419 . S
C952 C950 1.415 . S
C952 C957 1.425 . S
C952 C959 1.409 . S
C953 H945 0.930 . S
C953 C951 1.419 . S
C953 C954 1.362 . S
C954 H946 0.930 . S
C954 C953 1.362 . S
C954 C957 1.409 . S
C955 H947 0.930 . S
C955 C956 1.355 . S
C955 C957 1.415 . S
C956 C955 1.355 . S
C956 C958 1.419 . S
C957 C952 1.425 . S
C957 C954 1.409 . S
C957 C955 1.415 . S
C958 H948 0.930 1_655 S
C958 C956 1.419 . S
C958 C959 1.362 . S
C959 H949 0.930 1_655 S
C959 C952 1.409 . S
C959 C958 1.362 . S
H960 C966 0.930 . S
H961 C969 0.930 . S
H962 C970 0.930 . S
H963 C971 0.930 . S
H964 C974 0.930 1_545 S
H965 C975 0.930 1_545 S
C966 H960 0.930 . S
C966 C967 1.355 . S
C966 C968 1.415 . S
C967 C966 1.355 . S
C967 C969 1.419 . S
C968 C966 1.415 . S
C968 C973 1.425 . S
C968 C975 1.409 . S
C969 H961 0.930 . S
C969 C967 1.419 . S
C969 C970 1.362 . S
C970 H962 0.930 . S
C970 C969 1.362 . S
C970 C973 1.409 . S
C971 H963 0.930 . S
C971 C972 1.355 . S
C971 C973 1.415 . S
C972 C971 1.355 . S
C972 C974 1.419 . S
C973 C968 1.425 . S
C973 C970 1.409 . S
C973 C971 1.415 . S
C974 H964 0.930 1_565 S
C974 C972 1.419 . S
C974 C975 1.362 . S
C975 H965 0.930 1_565 S
C975 C968 1.409 . S
C975 C974 1.362 . S
H976 C982 0.930 . S
H977 C985 0.930 . S
H978 C986 0.930 . S
H979 C987 0.930 . S
H980 C990 0.930 . S
H981 C991 0.930 . S
C982 H976 0.930 . S
C982 C983 1.355 . S
C982 C984 1.415 . S
C983 C982 1.355 . S
C983 C985 1.419 . S
C984 C982 1.415 . S
C984 C989 1.425 . S
C984 C991 1.409 . S
C985 H977 0.930 . S
C985 C983 1.419 . S
C985 C986 1.362 . S
C986 H978 0.930 . S
C986 C985 1.362 . S
C986 C989 1.409 . S
C987 H979 0.930 . S
C987 C988 1.355 . S
C987 C989 1.415 . S
C988 C987 1.355 . S
C988 C990 1.419 . S
C989 C984 1.425 . S
C989 C986 1.409 . S
C989 C987 1.415 . S
C990 H980 0.930 . S
C990 C988 1.419 . S
C990 C991 1.362 . S
C991 H981 0.930 . S
C991 C984 1.409 . S
C991 C990 1.362 . S
H992 C998 0.930 . S
H993 C1001 0.930 . S
H994 C1002 0.930 . S
H995 C1003 0.930 . S
H996 C1006 0.930 . S
H997 C1007 0.930 . S
C998 H992 0.930 . S
C998 C999 1.355 . S
C998 C1000 1.415 . S
C999 C998 1.355 . S
C999 C1001 1.419 . S
C1000 C998 1.415 . S
C1000 C1005 1.425 . S
C1000 C1007 1.409 . S
C1001 H993 0.930 . S
C1001 C999 1.419 . S
C1001 C1002 1.362 . S
C1002 H994 0.930 . S
C1002 C1001 1.362 . S
C1002 C1005 1.409 . S
C1003 H995 0.930 . S
C1003 C1004 1.355 . S
C1003 C1005 1.415 . S
C1004 C1003 1.355 . S
C1004 C1006 1.419 . S
C1005 C1000 1.425 . S
C1005 C1002 1.409 . S
C1005 C1003 1.415 . S
C1006 H996 0.930 . S
C1006 C1004 1.419 . S
C1006 C1007 1.362 . S
C1007 H997 0.930 . S
C1007 C1000 1.409 . S
C1007 C1006 1.362 . S
C631 C241 2.332 . S
C636 C363 2.477 . S
C652 C447 2.494 . S
C647 C277 2.354 . S
C668 C523 2.382 . S
C663 C169 2.484 . S
C684 C607 2.309 . S
C679 C205 2.418 . S
C700 C354 2.447 1_565 S
C695 C97 2.262 . S
C711 C133 2.414 . S
C716 C438 2.494 . S
C727 C25 2.429 . S
C732 C512 2.378 . S
C743 C61 2.423 . S
C748 C596 2.380 . S
C764 C351 0.845 . S
C759 C211 0.892 . S
C780 C435 0.749 . S
C775 C247 0.793 . S
C796 C528 0.747 . S
C791 C253 0.839 . S
C807 C175 0.859 . S
C812 C612 0.813 . S
C823 C67 0.861 . S
C828 C360 0.808 . S
C844 C444 0.775 . S
C839 C103 0.799 1_556 S
C860 C519 0.773 . S
C855 C109 0.650 . S
C871 C31 0.863 1_556 S
C876 C603 0.821 . S
C887 C181 2.860 . S
C892 C344 3.011 . S
C903 C217 2.824 . S
C908 C428 2.954 . S
C924 C522 3.117 . S
C919 C283 2.639 . S
C940 C606 3.135 . S
C935 C145 2.792 . S
C951 C37 2.874 . S
C956 C355 3.008 . S
C972 C439 2.981 . S
C967 C73 2.848 . S
C988 C531 3.093 . S
C983 C139 2.671 . S
C999 C1 2.774 . S
C1004 C615 3.117 . S
