# Generated by pormake.
# Topology pth, (4,4)-cn, num edge types: 1
# Building blocks:
#     Node 0, Type 0, BuildingBlock: QUQFOY_clean_sbu_3, # of connection points: 4
#     Node 1, Type 0, BuildingBlock: QUQFOY_clean_sbu_3, # of connection points: 4
#     Node 2, Type 0, BuildingBlock: QUQFOY_clean_sbu_3, # of connection points: 4
#     Node 3, Type 1, BuildingBlock: NAWXER_clean_linker_0, # of connection points: 4
#     Node 4, Type 1, BuildingBlock: NAWXER_clean_linker_0, # of connection points: 4
#     Node 5, Type 1, BuildingBlock: NAWXER_clean_linker_0, # of connection points: 4
#     Edge 6, Type (0, 1), BuildingBlock: FUNLAD_clean_linker_1, # of connection points: 2
#     Edge 7, Type (0, 1), BuildingBlock: FUNLAD_clean_linker_1, # of connection points: 2
#     Edge 8, Type (0, 1), BuildingBlock: FUNLAD_clean_linker_1, # of connection points: 2
#     Edge 9, Type (0, 1), BuildingBlock: FUNLAD_clean_linker_1, # of connection points: 2
#     Edge 10, Type (0, 1), BuildingBlock: FUNLAD_clean_linker_1, # of connection points: 2
#     Edge 11, Type (0, 1), BuildingBlock: FUNLAD_clean_linker_1, # of connection points: 2
#     Edge 12, Type (0, 1), BuildingBlock: FUNLAD_clean_linker_1, # of connection points: 2
#     Edge 13, Type (0, 1), BuildingBlock: FUNLAD_clean_linker_1, # of connection points: 2
#     Edge 14, Type (0, 1), BuildingBlock: FUNLAD_clean_linker_1, # of connection points: 2
#     Edge 15, Type (0, 1), BuildingBlock: FUNLAD_clean_linker_1, # of connection points: 2
#     Edge 16, Type (0, 1), BuildingBlock: FUNLAD_clean_linker_1, # of connection points: 2
#     Edge 17, Type (0, 1), BuildingBlock: FUNLAD_clean_linker_1, # of connection points: 2
# Relax obj value: 0.008
# Max RMSD: 0.059
# Mean RMSD: 0.041
data_MOF--net-pth--node1-QUQFOY_clean_sbu_3--node2-NAWXER_clean_linker_0--edge1-FUNLAD_clean_linker_1
_symmetry_space_group_name_H-M    P1
_symmetry_Int_Tables_number       1
_symmetry_cell_setting            triclinic
loop_
_symmetry_equiv_pos_as_xyz
'x, y, z'
_cell_length_a     30.121084
_cell_length_b     29.983932
_cell_length_c     69.462986
_cell_angle_alpha  90.085453
_cell_angle_beta   90.375001
_cell_angle_gamma 120.67745
loop_
_atom_site_label
_atom_site_type_symbol
_atom_site_fract_x
_atom_site_fract_y
_atom_site_fract_z
_atom_type_partial_charge
C0 C 0.98687 0.14587 0.07191 0.0
O1 O 0.95918 0.13742 0.05698 0.0
Cd2 Cd 0.95998 0.08659 0.03036 0.0
O3 O 0.01364 0.12426 0.07397 0.0
Cd4 Cd 0.02863 0.06022 0.057 0.0
C5 C 0.09128 0.14765 0.02233 0.0
O6 O 0.94465 0.00415 0.04106 0.0
O7 O 0.01004 0.00021 0.03057 0.0
O8 O 0.01022 0.01737 0.08796 0.0
C9 C 0.96192 0.98276 0.03002 0.0
O10 O 0.04628 0.13629 0.01684 0.0
C11 C 0.04821 0.01023 0.08814 0.0
O12 O 0.09817 0.12845 0.03766 0.0
O13 O 0.07892 0.02771 0.07396 0.0
C14 C 0.10974 0.0886 0.41367 0.0
O15 O 0.13841 0.11953 0.4007 0.0
Cd16 Cd 0.10473 0.1312 0.37077 0.0
O17 O 0.06088 0.06356 0.41167 0.0
Cd18 Cd 0.99415 0.05399 0.38821 0.0
C19 C 0.03943 0.0047 0.35493 0.0
O20 O 0.0333 0.14362 0.37652 0.0
O21 O 0.96715 0.08434 0.36071 0.0
O22 O 0.947 0.05955 0.41547 0.0
C23 C 0.00039 0.1319 0.36303 0.0
O24 O 0.07657 0.05107 0.35298 0.0
C25 C 0.90517 0.01752 0.41194 0.0
O26 O 0.00467 0.99312 0.36756 0.0
O27 O 0.9045 0.9914 0.3974 0.0
C28 C 0.92851 0.09932 0.7046 0.0
O29 O 0.93493 0.127 0.71936 0.0
Cd30 Cd 0.99067 0.13687 0.74579 0.0
O31 O 0.95426 0.07659 0.70251 0.0
Cd32 Cd 0.02383 0.07063 0.72003 0.0
C33 C 0.94253 0.00819 0.75687 0.0
O34 O 0.07265 0.15926 0.73285 0.0
O35 O 0.09172 0.10456 0.74476 0.0
O36 O 0.06754 0.08557 0.68931 0.0
C37 C 0.1015 0.15092 0.74376 0.0
O38 O 0.94928 0.0524 0.76136 0.0
C39 C 0.07443 0.04732 0.69031 0.0
O40 O 0.96276 0.00198 0.74178 0.0
O41 O 0.05632 0.0182 0.70494 0.0
C42 C 0.02786 0.41522 0.2566 0.0
C43 C 0.06447 0.43347 0.27174 0.0
C44 C 0.02566 0.44999 0.24377 0.0
C45 C 0.06061 0.5035 0.24555 0.0
C46 C 0.09948 0.48701 0.27334 0.0
C47 C 0.09736 0.52164 0.26049 0.0
C48 C 0.05713 0.54138 0.23293 0.0
C49 C 0.09079 0.44293 0.19287 0.0
C50 C 0.05247 0.4167 0.17871 0.0
C51 C 0.09112 0.48176 0.2042 0.0
C52 C 0.05301 0.49502 0.20153 0.0
C53 C 0.01483 0.4307 0.17592 0.0
C54 C 0.01523 0.46946 0.1872 0.0
C55 C 0.05349 0.53741 0.21265 0.0
C56 C 0.08696 0.74611 0.18964 0.0
C57 C 0.05732 0.73104 0.17256 0.0
C58 C 0.08396 0.7087 0.20246 0.0
C59 C 0.05079 0.65557 0.1986 0.0
C60 C 0.02478 0.67799 0.16864 0.0
C61 C 0.02147 0.64069 0.18151 0.0
C62 C 0.04991 0.61521 0.21122 0.0
C63 C 0.99217 0.69525 0.24989 0.0
C64 C 0.02215 0.71884 0.26646 0.0
C65 C 0.00232 0.66361 0.23816 0.0
C66 C 0.04289 0.65508 0.24273 0.0
C67 C 0.06258 0.70994 0.27108 0.0
C68 C 0.07269 0.67832 0.25934 0.0
C69 C 0.05086 0.61765 0.23156 0.0
H70 H 0.0007 0.37435 0.2545 0.0
H71 H 0.99605 0.43504 0.23267 0.0
H72 H 0.12819 0.50229 0.28478 0.0
H73 H 0.12445 0.56279 0.26226 0.0
H74 H 0.12077 0.43359 0.19509 0.0
H75 H 0.1216 0.50197 0.21478 0.0
H76 H 0.98577 0.41299 0.16471 0.0
H77 H 0.98599 0.47968 0.18465 0.0
H78 H 0.11379 0.78655 0.19287 0.0
H79 H 0.10876 0.72141 0.21508 0.0
H80 H 0.00185 0.66529 0.15552 0.0
H81 H 0.99615 0.60004 0.17802 0.0
H82 H 0.96037 0.70081 0.24612 0.0
H83 H 0.97747 0.64467 0.22583 0.0
H84 H 0.08557 0.72581 0.28403 0.0
H85 H 0.10345 0.67139 0.2634 0.0
N86 N 0.05536 0.58117 0.24154 0.0
N87 N 0.0504 0.57467 0.20264 0.0
C88 C 0.65296 0.04711 0.52536 0.0
C89 C 0.64083 0.01103 0.51036 0.0
C90 C 0.61431 0.04484 0.53707 0.0
C91 C 0.56258 0.00588 0.53422 0.0
C92 C 0.58873 0.97225 0.50744 0.0
C93 C 0.55014 0.96996 0.51921 0.0
C94 C 0.52082 0.00409 0.54596 0.0
C95 C 0.62145 0.97649 0.58632 0.0
C96 C 0.646 0.01512 0.60053 0.0
C97 C 0.58083 0.97313 0.57529 0.0
C98 C 0.5645 0.00897 0.57804 0.0
C99 C 0.62916 0.05071 0.60334 0.0
C100 C 0.58854 0.04727 0.59232 0.0
C101 C 0.52221 0.00676 0.56629 0.0
C102 C 0.30763 0.95778 0.58571 0.0
C103 C 0.31851 0.99174 0.60133 0.0
C104 C 0.34735 0.96221 0.57404 0.0
C105 C 0.39887 0.00068 0.57781 0.0
C106 C 0.37027 0.02979 0.60524 0.0
C107 C 0.40997 0.03401 0.59363 0.0
C108 C 0.44161 0.00426 0.56614 0.0
C109 C 0.35494 0.04983 0.52506 0.0
C110 C 0.33621 0.01961 0.50817 0.0
C111 C 0.38765 0.04341 0.53767 0.0
C112 C 0.40182 0.00631 0.53378 0.0
C113 C 0.35039 0.98257 0.50435 0.0
C114 C 0.38279 0.97597 0.51701 0.0
C115 C 0.44092 0.00298 0.54578 0.0
H116 H 0.69252 0.07773 0.52789 0.0
H117 H 0.62484 0.07407 0.54816 0.0
H118 H 0.57698 0.94375 0.49607 0.0
H119 H 0.51037 0.93997 0.51658 0.0
H120 H 0.63356 0.94861 0.58381 0.0
H121 H 0.56218 0.94253 0.56463 0.0
H122 H 0.64771 0.08202 0.61369 0.0
H123 H 0.57659 0.07535 0.59467 0.0
H124 H 0.26826 0.92763 0.58255 0.0
H125 H 0.33784 0.93495 0.56229 0.0
H126 H 0.38054 0.05553 0.61752 0.0
H127 H 0.44949 0.06334 0.59704 0.0
H128 H 0.34643 0.08001 0.52821 0.0
H129 H 0.40345 0.06893 0.55005 0.0
H130 H 0.33696 0.95913 0.49137 0.0
H131 H 0.39373 0.94765 0.51351 0.0
N132 N 0.48026 0.00233 0.53656 0.0
N133 N 0.48257 0.00673 0.57557 0.0
C134 C 0.41433 0.36716 0.8572 0.0
C135 C 0.39066 0.38196 0.84313 0.0
C136 C 0.4536 0.40424 0.86904 0.0
C137 C 0.46975 0.457 0.86717 0.0
C138 C 0.40763 0.43504 0.84107 0.0
C139 C 0.44677 0.47203 0.85296 0.0
C140 C 0.51273 0.49719 0.87899 0.0
C141 C 0.38942 0.40054 0.92276 0.0
C142 C 0.40502 0.37633 0.93637 0.0
C143 C 0.42533 0.43773 0.91021 0.0
C144 C 0.47725 0.45097 0.91094 0.0
C145 C 0.45669 0.38882 0.9367 0.0
C146 C 0.49258 0.42622 0.92427 0.0
C147 C 0.51677 0.49351 0.89911 0.0
C148 C 0.68512 0.70607 0.92249 0.0
C149 C 0.70205 0.69154 0.93896 0.0
C150 C 0.65233 0.66854 0.90908 0.0
C151 C 0.63677 0.61605 0.91172 0.0
C152 C 0.68679 0.63929 0.94149 0.0
C153 C 0.65478 0.60202 0.92798 0.0
C154 C 0.59638 0.57459 0.89939 0.0
C155 C 0.72421 0.66975 0.85762 0.0
C156 C 0.71099 0.69238 0.84265 0.0
C157 C 0.68632 0.6334 0.86984 0.0
C158 C 0.63433 0.61894 0.86732 0.0
C159 C 0.65878 0.67738 0.84002 0.0
C160 C 0.62095 0.64098 0.85221 0.0
C161 C 0.59317 0.57765 0.87916 0.0
H162 H 0.4027 0.32674 0.85895 0.0
H163 H 0.47194 0.39167 0.87939 0.0
H164 H 0.39192 0.4487 0.83009 0.0
H165 H 0.45925 0.5126 0.851 0.0
H166 H 0.34963 0.39093 0.92174 0.0
H167 H 0.41275 0.45691 0.90025 0.0
H168 H 0.46964 0.37052 0.94693 0.0
H169 H 0.53252 0.43611 0.92515 0.0
H170 H 0.695 0.74586 0.92041 0.0
H171 H 0.63737 0.68037 0.89718 0.0
H172 H 0.69909 0.62713 0.95412 0.0
H173 H 0.6429 0.5618 0.93052 0.0
H174 H 0.76397 0.67999 0.85981 0.0
H175 H 0.69755 0.61572 0.88096 0.0
H176 H 0.64656 0.69239 0.82828 0.0
H177 H 0.58098 0.62967 0.84972 0.0
N178 N 0.55115 0.53908 0.86983 0.0
N179 N 0.55827 0.53235 0.90844 0.0
H180 H 0.96654 0.20112 0.08402 0.0
C181 C 0.98873 0.18229 0.08664 0.0
H182 H 0.03904 0.17455 0.10594 0.0
H183 H 0.06387 0.40242 0.12874 0.0
H184 H 0.10838 0.43141 0.09834 0.0
H185 H 0.1146 0.3701 0.0764 0.0
H186 H 0.07552 0.2792 0.08462 0.0
C187 C 0.01766 0.19391 0.10274 0.0
C188 C 0.01965 0.23208 0.11696 0.0
C189 C 0.04451 0.2855 0.11227 0.0
C190 C 0.04273 0.32122 0.12528 0.0
C191 C 0.06547 0.37383 0.11975 0.0
C192 C 0.09096 0.391 0.10227 0.0
C193 C 0.09433 0.35646 0.08989 0.0
C194 C 0.07145 0.3043 0.09474 0.0
H195 H 0.0914 0.37909 0.16497 0.0
C196 C 0.0546 0.37738 0.16629 0.0
H197 H 0.9753 0.33476 0.15861 0.0
H198 H 0.97102 0.13298 0.13082 0.0
H199 H 0.92983 0.10448 0.16191 0.0
H200 H 0.9288 0.16682 0.18486 0.0
H201 H 0.96883 0.25806 0.17685 0.0
C202 C 0.01346 0.34029 0.15655 0.0
C203 C 0.01776 0.30372 0.14327 0.0
C204 C 0.99461 0.25067 0.14824 0.0
C205 C 0.99562 0.21481 0.13508 0.0
C206 C 0.97166 0.16192 0.14032 0.0
C207 C 0.94786 0.14504 0.15812 0.0
C208 C 0.94724 0.18013 0.17104 0.0
C209 C 0.97026 0.23237 0.16624 0.0
H210 H 0.823 0.96606 0.4194 0.0
C211 C 0.85873 0.00069 0.42374 0.0
H212 H 0.89458 0.06387 0.44312 0.0
H213 H 0.69385 0.06683 0.46447 0.0
H214 H 0.73795 0.14315 0.44444 0.0
H215 H 0.81612 0.16209 0.42657 0.0
H216 H 0.85041 0.10461 0.42852 0.0
C217 C 0.85935 0.02829 0.43912 0.0
C218 C 0.81149 0.01555 0.4497 0.0
C219 C 0.79238 0.05002 0.44865 0.0
C220 C 0.74778 0.03956 0.45919 0.0
C221 C 0.72848 0.07367 0.45727 0.0
C222 C 0.75319 0.11746 0.44568 0.0
C223 C 0.79716 0.1281 0.43561 0.0
C224 C 0.81655 0.09482 0.43693 0.0
H225 H 0.72217 0.04913 0.50099 0.0
C226 C 0.68359 0.01666 0.49794 0.0
H227 H 0.64106 0.95132 0.47953 0.0
H228 H 0.83922 0.94259 0.4557 0.0
H229 H 0.79443 0.86573 0.47544 0.0
H230 H 0.71636 0.84697 0.49335 0.0
H231 H 0.6828 0.9052 0.49171 0.0
C232 C 0.67789 0.98538 0.483 0.0
C233 C 0.72297 0.99515 0.47112 0.0
C234 C 0.74138 0.96008 0.47185 0.0
C235 C 0.78599 0.9705 0.46128 0.0
C236 C 0.80478 0.93595 0.46298 0.0
C237 C 0.77961 0.8918 0.47438 0.0
C238 C 0.73569 0.88127 0.48448 0.0
C239 C 0.71677 0.91498 0.48337 0.0
H240 H 0.89229 0.97217 0.78177 0.0
C241 C 0.90982 0.9643 0.76958 0.0
H242 H 0.91614 0.90649 0.75451 0.0
H243 H 0.82315 0.82163 0.84353 0.0
H244 H 0.90841 0.88643 0.85483 0.0
H245 H 0.9755 0.94434 0.83198 0.0
H246 H 0.95717 0.93839 0.79769 0.0
C247 C 0.90043 0.91586 0.76687 0.0
C248 C 0.86461 0.87348 0.77999 0.0
C249 C 0.8768 0.87535 0.79986 0.0
C250 C 0.83893 0.84014 0.81291 0.0
C251 C 0.85101 0.84569 0.83284 0.0
C252 C 0.89978 0.88304 0.83956 0.0
C253 C 0.93748 0.91577 0.82671 0.0
C254 C 0.92634 0.91219 0.80708 0.0
H255 H 0.78753 0.72825 0.82869 0.0
C256 C 0.75219 0.72959 0.82958 0.0
H257 H 0.71433 0.76889 0.8201 0.0
H258 H 0.83039 0.85624 0.74259 0.0
H259 H 0.74705 0.78782 0.73091 0.0
H260 H 0.68273 0.72423 0.7533 0.0
H261 H 0.70121 0.7289 0.78753 0.0
C262 C 0.74862 0.76579 0.81939 0.0
C263 C 0.78982 0.80123 0.80589 0.0
C264 C 0.77885 0.79735 0.78586 0.0
C265 C 0.81622 0.83356 0.77291 0.0
C266 C 0.80364 0.82953 0.75305 0.0
C267 C 0.75592 0.79042 0.74615 0.0
C268 C 0.71969 0.75464 0.75875 0.0
C269 C 0.73078 0.75787 0.77838 0.0
H270 H 0.02942 0.97231 0.11639 0.0
C271 C 0.05355 0.98019 0.1038 0.0
H272 H 0.10626 0.96473 0.08971 0.0
H273 H 0.16963 0.8877 0.16419 0.0
H274 H 0.25001 0.96621 0.15667 0.0
H275 H 0.25341 0.02526 0.13127 0.0
H276 H 0.17652 0.00589 0.11308 0.0
C277 C 0.0819 0.95741 0.10217 0.0
C278 C 0.07993 0.92097 0.11723 0.0
C279 C 0.12506 0.93312 0.12788 0.0
C280 C 0.1229 0.89946 0.14276 0.0
C281 C 0.16885 0.91215 0.15291 0.0
C282 C 0.2153 0.95709 0.14873 0.0
C283 C 0.21723 0.99031 0.13442 0.0
C284 C 0.17279 0.9787 0.12407 0.0
H285 H 0.04966 0.75546 0.14333 0.0
C286 C 0.06078 0.76908 0.15809 0.0
H287 H 0.08461 0.8331 0.17693 0.0
H288 H 0.9882 0.8803 0.09726 0.0
H289 H 0.90687 0.80459 0.10589 0.0
H290 H 0.90074 0.75258 0.13432 0.0
H291 H 0.97631 0.77506 0.15384 0.0
C292 C 0.07388 0.81813 0.16235 0.0
C293 C 0.07545 0.85397 0.14713 0.0
C294 C 0.03003 0.84235 0.13671 0.0
C295 C 0.03275 0.87461 0.12122 0.0
C296 C 0.9878 0.8592 0.10992 0.0
C297 C 0.94087 0.81546 0.1146 0.0
C298 C 0.93749 0.78603 0.13053 0.0
C299 C 0.98136 0.79913 0.14151 0.0
H300 H 0.10673 0.05637 0.44249 0.0
C301 C 0.13253 0.07936 0.43097 0.0
H302 H 0.20936 0.11866 0.42105 0.0
H303 H 0.32136 0.14812 0.5006 0.0
H304 H 0.34596 0.23665 0.49305 0.0
H305 H 0.30576 0.25584 0.46572 0.0
H306 H 0.24102 0.18659 0.44566 0.0
C307 C 0.18299 0.09516 0.43234 0.0
C308 C 0.20487 0.08274 0.44943 0.0
C309 C 0.242 0.12358 0.46124 0.0
C310 C 0.2645 0.11243 0.47721 0.0
C311 C 0.30245 0.15419 0.48845 0.0
C312 C 0.31702 0.20527 0.48426 0.0
C313 C 0.29443 0.21608 0.46887 0.0
C314 C 0.25737 0.17592 0.45744 0.0
H315 H 0.30587 0.01585 0.4788 0.0
C316 C 0.30522 0.02812 0.49349 0.0
H317 H 0.27406 0.06175 0.51178 0.0
H318 H 0.13935 0.99511 0.42854 0.0
H319 H 0.11079 0.90642 0.4373 0.0
H320 H 0.14284 0.88679 0.46697 0.0
H321 H 0.20483 0.95601 0.48776 0.0
C322 C 0.27628 0.04947 0.4973 0.0
C323 C 0.24946 0.06038 0.48149 0.0
C324 C 0.21071 0.01935 0.47016 0.0
C325 C 0.18971 0.03057 0.45373 0.0
C326 C 0.15448 0.98893 0.44177 0.0
C327 C 0.13805 0.93773 0.44654 0.0
C328 C 0.15628 0.92669 0.46319 0.0
C329 C 0.19218 0.96683 0.47491 0.0
H330 H 0.14635 0.23108 0.7549 0.0
C331 C 0.14154 0.19266 0.75586 0.0
H332 H 0.16569 0.14577 0.76963 0.0
H333 H 0.36067 0.38569 0.78708 0.0
H334 H 0.3758 0.39081 0.75268 0.0
H335 H 0.31583 0.32005 0.73096 0.0
H336 H 0.2402 0.24402 0.74346 0.0
C337 C 0.17129 0.18437 0.76809 0.0
C338 C 0.2092 0.22615 0.78111 0.0
C339 C 0.25368 0.27 0.77355 0.0
C340 C 0.28882 0.31033 0.78611 0.0
C341 C 0.33276 0.35388 0.77819 0.0
C342 C 0.34198 0.35728 0.75848 0.0
C343 C 0.30818 0.31748 0.74624 0.0
C344 C 0.26464 0.27418 0.75361 0.0
H345 H 0.34642 0.30304 0.83053 0.0
C346 C 0.35019 0.34112 0.83049 0.0
H347 H 0.31923 0.38496 0.81866 0.0
H348 H 0.12829 0.14696 0.80034 0.0
H349 H 0.11388 0.14151 0.83477 0.0
H350 H 0.17478 0.21162 0.85652 0.0
H351 H 0.25054 0.28752 0.84397 0.0
C352 C 0.31771 0.3481 0.81924 0.0
C353 C 0.28014 0.30613 0.80623 0.0
C354 C 0.23594 0.26213 0.81382 0.0
C355 C 0.2006 0.22194 0.80125 0.0
C356 C 0.15657 0.17854 0.80921 0.0
C357 C 0.14773 0.17496 0.82895 0.0
C358 C 0.18204 0.21441 0.8412 0.0
C359 C 0.22556 0.25766 0.8338 0.0
H360 H 0.86949 0.1141 0.69255 0.0
C361 C 0.88995 0.09346 0.69006 0.0
H362 H 0.89688 0.04073 0.67189 0.0
H363 H 0.66659 0.9487 0.64098 0.0
H364 H 0.65966 0.87557 0.65851 0.0
H365 H 0.7335 0.88415 0.67725 0.0
H366 H 0.8147 0.96597 0.67862 0.0
C367 C 0.87835 0.06323 0.67434 0.0
C368 C 0.83647 0.05639 0.66093 0.0
C369 C 0.78972 0.00791 0.65988 0.0
C370 C 0.74725 0.00284 0.64893 0.0
C371 C 0.70035 0.95453 0.64877 0.0
C372 C 0.69577 0.91225 0.65885 0.0
C373 C 0.73733 0.91709 0.66941 0.0
C374 C 0.78376 0.9643 0.67005 0.0
H375 H 0.7082 -0.00237 0.6059 0.0
C376 C 0.68973 0.01783 0.61167 0.0
H377 H 0.68913 0.06271 0.63521 0.0
H378 H 0.92337 0.15209 0.65719 0.0
H379 H 0.93095 0.22479 0.63909 0.0
H380 H 0.85673 0.21664 0.62074 0.0
H381 H 0.7746 0.13559 0.62025 0.0
C382 C 0.7067 0.04267 0.62866 0.0
C383 C 0.75195 0.04613 0.63885 0.0
C384 C 0.79943 0.09393 0.6392 0.0
C385 C 0.84193 0.09892 0.65007 0.0
C386 C 0.88939 0.14665 0.64966 0.0
C387 C 0.89439 0.18857 0.63921 0.0
C388 C 0.85262 0.18396 0.62886 0.0
C389 C 0.80566 0.13727 0.62875 0.0
H390 H 0.94915 0.9335 0.00474 0.0
C391 C 0.92958 0.94349 0.01552 0.0
H392 H 0.85788 0.93011 0.02557 0.0
H393 H 0.73837 0.84501 0.94667 0.0
H394 H 0.73161 0.92109 0.95227 0.0
H395 H 0.77854 0.98084 0.97922 0.0
H396 H 0.83188 0.96446 0.0009 0.0
C397 C 0.87787 0.91979 0.01512 0.0
C398 C 0.84742 0.88202 0.99948 0.0
C399 C 0.81701 0.89266 0.98674 0.0
C400 C 0.79094 0.85886 0.97091 0.0
C401 C 0.75978 0.86976 0.95872 0.0
C402 C 0.75546 0.91331 0.96178 0.0
C403 C 0.78183 0.94691 0.97696 0.0
C404 C 0.8123 0.93695 0.98933 0.0
H405 H 0.72715 0.71421 0.96909 0.0
C406 C 0.7324 0.72897 0.95447 0.0
H407 H 0.77392 0.79472 0.93683 0.0
H408 H 0.89313 0.84377 0.02329 0.0
H409 H 0.90492 0.77112 0.01657 0.0
H410 H 0.87079 0.7203 0.98656 0.0
H411 H 0.82302 0.74063 0.96353 0.0
C412 C 0.7674 0.77909 0.9513 0.0
C413 C 0.79622 0.8151 0.96758 0.0
C414 C 0.82758 0.80512 0.98011 0.0
C415 C 0.851 0.83707 0.99658 0.0
C416 C 0.8775 0.82295 0.0099 0.0
C417 C 0.88412 0.78101 0.00631 0.0
C418 C 0.86465 0.75222 0.98948 0.0
C419 C 0.83677 0.764 0.97648 0.0
H420 H 0.06984 0.97737 0.33206 0.0
C421 C 0.03819 0.96485 0.34214 0.0
H422 H 0.96927 0.90073 0.3525 0.0
H423 H 0.02779 0.84214 0.26614 0.0
H424 H 0.00522 0.90314 0.25333 0.0
H425 H 0.9793 0.95116 0.27492 0.0
H426 H 0.9769 0.93911 0.30954 0.0
C427 C 0.0006 0.91476 0.34224 0.0
C428 C 0.00381 0.87717 0.32911 0.0
C429 C 0.00219 0.88242 0.30885 0.0
C430 C 0.01463 0.85281 0.29636 0.0
C431 C 0.0165 0.86183 0.27629 0.0
C432 C 0.00394 0.89706 0.26873 0.0
C433 C 0.98955 0.92424 0.28088 0.0
C434 C 0.98867 0.91721 0.30072 0.0
H435 H 0.9699 0.74442 0.27759 0.0
C436 C 0.00854 0.75032 0.27898 0.0
H437 H 0.08094 0.79432 0.2931 0.0
H438 H 0.0053 0.85402 0.36712 0.0
H439 H 0.02237 0.78895 0.37994 0.0
H440 H 0.04039 0.73494 0.35826 0.0
H441 H 0.04185 0.74593 0.32362 0.0
C442 C 0.04184 0.78664 0.29141 0.0
C443 C 0.02602 0.816 0.30415 0.0
C444 C 0.02435 0.80843 0.32434 0.0
C445 C 0.0133 0.83909 0.33684 0.0
C446 C 0.01314 0.83156 0.35696 0.0
C447 C 0.02284 0.79431 0.36452 0.0
C448 C 0.03303 0.76393 0.35231 0.0
C449 C 0.03386 0.77073 0.33245 0.0
H450 H 0.1203 0.0678 0.66383 0.0
C451 C 0.10508 0.03996 0.67552 0.0
H452 H 0.10491 0.97656 0.68874 0.0
H453 H 0.20316 0.00299 0.59967 0.0
H454 H 0.11757 0.97805 0.58797 0.0
H455 H 0.04821 0.96221 0.61056 0.0
H456 H 0.06444 0.97227 0.64502 0.0
C457 C 0.11804 0.00329 0.6767 0.0
C458 C 0.15663 0.00357 0.66325 0.0
C459 C 0.14587 0.99505 0.64322 0.0
C460 C 0.18522 0.00174 0.63026 0.0
C461 C 0.17426 0.99634 0.61024 0.0
C462 C 0.12532 0.98235 0.60331 0.0
C463 C 0.08632 0.97362 0.61602 0.0
C464 C 0.09625 0.97986 0.63575 0.0
H465 H 0.24062 0.9467 0.61411 0.0
C466 C 0.27542 0.98481 0.61376 0.0
H467 H 0.31073 0.06221 0.62387 0.0
H468 H 0.18959 0.02039 0.70087 0.0
H469 H 0.27369 0.04066 0.71274 0.0
H470 H 0.34058 0.04833 0.69043 0.0
H471 H 0.32386 0.03617 0.65607 0.0
C472 C 0.27694 0.02353 0.62412 0.0
C473 C 0.23459 0.01455 0.63745 0.0
C474 C 0.24457 0.02076 0.65755 0.0
C475 C 0.20567 0.01545 0.67045 0.0
C476 C 0.21734 0.02325 0.69041 0.0
C477 C 0.26556 0.03499 0.69744 0.0
C478 C 0.30323 0.03938 0.68488 0.0
C479 C 0.29312 0.03241 0.66517 0.0
H480 H 0.12591 0.19669 0.99699 0.0
C481 C 0.13491 0.18271 0.01004 0.0
H482 H 0.19493 0.18494 0.02686 0.0
H483 H 0.28339 0.25218 0.93711 0.0
H484 H 0.22923 0.16036 0.93024 0.0
H485 H 0.17389 0.09967 0.95536 0.0
H486 H 0.17193 0.13073 0.98746 0.0
C487 C 0.18419 0.19698 0.01375 0.0
C488 C 0.22507 0.23144 1e-05 0.0
C489 C 0.2275 0.21239 0.98158 0.0
C490 C 0.26084 0.2471 0.96732 0.0
C491 C 0.26018 0.2274 0.9487 0.0
C492 C 0.22902 0.17475 0.94452 0.0
C493 C 0.19774 0.14061 0.95864 0.0
C494 C 0.19678 0.15898 0.97697 0.0
H495 H 0.37815 0.31033 0.95646 0.0
C496 C 0.36867 0.33791 0.95039 0.0
H497 H 0.31819 0.3673 0.95227 0.0
H498 H 0.23275 0.27937 0.0344 0.0
H499 H 0.28971 0.3707 0.04185 0.0
H500 H 0.34924 0.43072 0.01743 0.0
H501 H 0.35205 0.39993 0.98538 0.0
C502 C 0.32652 0.33766 0.95677 0.0
C503 C 0.29303 0.30054 0.97177 0.0
C504 C 0.29237 0.31909 0.99051 0.0
C505 C 0.2584 0.28444 0.00465 0.0
C506 C 0.25794 0.30408 0.02315 0.0
C507 C 0.29046 0.35636 0.02762 0.0
C508 C 0.32396 0.39015 0.01386 0.0
C509 C 0.3251 0.37198 0.99551 0.0
H510 H 0.97062 0.15726 0.33908 0.0
C511 C 0.00141 0.17064 0.34977 0.0
H512 H 0.07145 0.23451 0.35992 0.0
H513 H 0.10621 0.33841 0.27686 0.0
H514 H 0.17161 0.31418 0.27715 0.0
H515 H 0.17781 0.26395 0.30405 0.0
H516 H 0.11827 0.23732 0.33077 0.0
C517 C 0.03909 0.22066 0.34994 0.0
C518 C 0.03952 0.2568 0.33517 0.0
C519 C 0.07569 0.27358 0.32 0.0
C520 C 0.0728 0.30351 0.30469 0.0
C521 C 0.10764 0.3172 0.28919 0.0
C522 C 0.14517 0.30316 0.28908 0.0
C523 C 0.14861 0.27481 0.30421 0.0
C524 C 0.11421 0.25983 0.31947 0.0
H525 H 0.10114 0.41528 0.2958 0.0
C526 C 0.0676 0.39865 0.28626 0.0
H527 H 0.99495 0.33125 0.28073 0.0
H528 H 0.96803 0.23576 0.36318 0.0
H529 H 0.90342 0.2612 0.3633 0.0
H530 H 0.89824 0.3131 0.33681 0.0
H531 H 0.95764 0.33995 0.31007 0.0
C532 C 0.03069 0.34884 0.28894 0.0
C533 C 0.03456 0.31784 0.30491 0.0
C534 C -0.00076 0.30215 0.32036 0.0
C535 C 0.00191 0.27187 0.33556 0.0
C536 C 0.96694 0.25775 0.35104 0.0
C537 C 0.92988 0.2724 0.35136 0.0
C538 C 0.92699 0.30165 0.33646 0.0
C539 C 0.96126 0.31665 0.32115 0.0
loop_
_geom_bond_atom_site_label_1
_geom_bond_atom_site_label_2
_geom_bond_distance
_geom_bond_site_symmetry_2
_ccdc_geom_bond_type
C0 O1 1.306 1_455 S
C0 O3 1.160 . S
O1 C0 1.306 1_655 S
O1 Cd2 2.228 . S
Cd2 O1 2.228 . S
Cd2 O6 2.273 . S
Cd2 O10 2.277 1_655 S
O3 C0 1.160 . S
O3 Cd4 2.203 . S
Cd4 O3 2.203 . S
Cd4 O6 2.411 1_455 S
Cd4 O7 2.333 1_545 S
Cd4 O8 2.352 1_545 S
Cd4 O12 2.277 . S
Cd4 O13 2.337 1_545 S
C5 O10 1.209 . S
C5 O12 1.226 . S
O6 Cd2 2.273 . S
O6 Cd4 2.411 1_655 S
O6 C9 1.320 1_545 S
O7 Cd4 2.333 1_565 S
O7 C9 1.214 1_455 S
O8 Cd4 2.352 1_565 S
O8 C11 1.258 . S
C9 O6 1.320 1_565 S
C9 O7 1.214 1_655 S
O10 Cd2 2.277 1_455 S
O10 C5 1.209 . S
C11 O8 1.258 . S
C11 O13 1.283 . S
O12 Cd4 2.277 . S
O12 C5 1.226 . S
O13 Cd4 2.337 1_565 S
O13 C11 1.283 . S
C14 O15 1.306 . S
C14 O17 1.160 . S
O15 C14 1.306 . S
O15 Cd16 2.228 . S
Cd16 O15 2.228 . S
Cd16 O20 2.273 . S
Cd16 O24 2.277 . S
O17 C14 1.160 . S
O17 Cd18 2.203 . S
Cd18 O17 2.203 . S
Cd18 O20 2.411 . S
Cd18 O21 2.333 1_455 S
Cd18 O22 2.352 1_455 S
Cd18 O26 2.277 1_445 S
Cd18 O27 2.356 1_455 S
C19 O24 1.209 1_565 S
C19 O26 1.226 1_455 S
O20 Cd16 2.273 . S
O20 Cd18 2.411 . S
O20 C23 1.320 . S
O21 Cd18 2.333 1_655 S
O21 C23 1.214 1_655 S
O22 Cd18 2.352 1_655 S
O22 C25 1.258 . S
C23 O20 1.320 . S
C23 O21 1.214 1_455 S
O24 Cd16 2.277 . S
O24 C19 1.209 1_545 S
C25 O22 1.258 . S
C25 O27 1.287 . S
O26 Cd18 2.277 1_665 S
O26 C19 1.226 1_655 S
O27 Cd18 2.356 1_655 S
O27 C25 1.287 . S
C28 O29 1.306 . S
C28 O31 1.160 . S
O29 C28 1.306 . S
O29 Cd30 2.228 . S
Cd30 O29 2.228 . S
Cd30 O34 2.273 1_655 S
Cd30 O38 2.277 . S
O31 C28 1.160 . S
O31 Cd32 2.203 1_655 S
Cd32 O31 2.203 1_455 S
Cd32 O34 2.411 . S
Cd32 O35 2.333 . S
Cd32 O36 2.352 . S
Cd32 O40 2.277 1_445 S
Cd32 O41 2.356 . S
C33 O38 1.209 1_565 S
C33 O40 1.226 . S
O34 Cd30 2.273 1_455 S
O34 Cd32 2.411 . S
O34 C37 1.320 . S
O35 Cd32 2.333 . S
O35 C37 1.214 . S
O36 Cd32 2.352 . S
O36 C39 1.258 . S
C37 O34 1.320 . S
C37 O35 1.214 . S
O38 Cd30 2.277 . S
O38 C33 1.209 1_545 S
C39 O36 1.258 . S
C39 O41 1.282 . S
O40 Cd32 2.277 1_665 S
O40 C33 1.226 . S
O41 Cd32 2.356 . S
O41 C39 1.282 . S
C42 C43 1.384 . S
C42 C44 1.384 . S
C42 H70 0.931 1_455 S
C43 C42 1.384 . S
C43 C46 1.382 . S
C44 C42 1.384 . S
C44 C45 1.381 . S
C44 H71 0.930 1_455 S
C45 C44 1.381 . S
C45 C47 1.381 . S
C45 C48 1.487 . S
C46 C43 1.382 . S
C46 C47 1.387 . S
C46 H72 0.930 . S
C47 C45 1.381 . S
C47 C46 1.387 . S
C47 H73 0.931 . S
C48 C45 1.487 . S
C48 C55 1.399 . S
C48 N86 1.343 . S
C49 C50 1.384 . S
C49 C51 1.384 . S
C49 H74 0.931 . S
C50 C49 1.384 . S
C50 C53 1.382 . S
C51 C49 1.384 . S
C51 C52 1.381 . S
C51 H75 0.930 . S
C52 C51 1.381 . S
C52 C54 1.381 . S
C52 C55 1.487 . S
C53 C50 1.382 . S
C53 C54 1.387 . S
C53 H76 0.930 1_455 S
C54 C52 1.381 . S
C54 C53 1.387 . S
C54 H77 0.931 1_455 S
C55 C48 1.399 . S
C55 C52 1.487 . S
C55 N87 1.343 . S
C56 C57 1.384 . S
C56 C58 1.384 . S
C56 H78 0.931 . S
C57 C56 1.384 . S
C57 C60 1.382 . S
C58 C56 1.384 . S
C58 C59 1.381 . S
C58 H79 0.930 . S
C59 C58 1.381 . S
C59 C61 1.381 . S
C59 C62 1.487 . S
C60 C57 1.382 . S
C60 C61 1.387 . S
C60 H80 0.930 1_455 S
C61 C59 1.381 . S
C61 C60 1.387 . S
C61 H81 0.931 1_455 S
C62 C59 1.487 . S
C62 C69 1.399 . S
C62 N87 1.343 . S
C63 C64 1.384 . S
C63 C65 1.384 . S
C63 H82 0.931 1_455 S
C64 C63 1.384 . S
C64 C67 1.382 . S
C65 C63 1.384 . S
C65 C66 1.381 . S
C65 H83 0.930 1_455 S
C66 C65 1.381 . S
C66 C68 1.381 . S
C66 C69 1.487 . S
C67 C64 1.382 . S
C67 C68 1.387 . S
C67 H84 0.930 . S
C68 C66 1.381 . S
C68 C67 1.387 . S
C68 H85 0.931 . S
C69 C62 1.399 . S
C69 C66 1.487 . S
C69 N86 1.343 . S
H70 C42 0.931 1_655 S
H71 C44 0.930 1_655 S
H72 C46 0.930 . S
H73 C47 0.931 . S
H74 C49 0.931 . S
H75 C51 0.930 . S
H76 C53 0.930 1_655 S
H77 C54 0.931 1_655 S
H78 C56 0.931 . S
H79 C58 0.930 . S
H80 C60 0.930 1_655 S
H81 C61 0.931 1_655 S
H82 C63 0.931 1_655 S
H83 C65 0.930 1_655 S
H84 C67 0.930 . S
H85 C68 0.931 . S
N86 C48 1.343 . S
N86 C69 1.343 . S
N87 C55 1.343 . S
N87 C62 1.343 . S
C88 C89 1.384 . S
C88 C90 1.384 . S
C88 H116 0.931 . S
C89 C88 1.384 . S
C89 C92 1.382 . S
C90 C88 1.384 . S
C90 C91 1.381 . S
C90 H117 0.930 . S
C91 C90 1.381 . S
C91 C93 1.381 . S
C91 C94 1.487 . S
C92 C89 1.382 . S
C92 C93 1.387 . S
C92 H118 0.930 1_545 S
C93 C91 1.381 . S
C93 C92 1.387 . S
C93 H119 0.931 1_545 S
C94 C91 1.487 . S
C94 C101 1.399 . S
C94 N132 1.343 . S
C95 C96 1.384 . S
C95 C97 1.384 . S
C95 H120 0.931 1_545 S
C96 C95 1.384 . S
C96 C99 1.382 . S
C97 C95 1.384 . S
C97 C98 1.381 . S
C97 H121 0.930 1_545 S
C98 C97 1.381 . S
C98 C100 1.381 . S
C98 C101 1.487 . S
C99 C96 1.382 . S
C99 C100 1.387 . S
C99 H122 0.930 . S
C100 C98 1.381 . S
C100 C99 1.387 . S
C100 H123 0.931 . S
C101 C94 1.399 . S
C101 C98 1.487 . S
C101 N133 1.343 . S
C102 C103 1.384 . S
C102 C104 1.384 . S
C102 H124 0.931 1_545 S
C103 C102 1.384 . S
C103 C106 1.382 . S
C104 C102 1.384 . S
C104 C105 1.381 . S
C104 H125 0.930 1_545 S
C105 C104 1.381 . S
C105 C107 1.381 . S
C105 C108 1.487 . S
C106 C103 1.382 . S
C106 C107 1.387 . S
C106 H126 0.930 . S
C107 C105 1.381 . S
C107 C106 1.387 . S
C107 H127 0.931 . S
C108 C105 1.487 . S
C108 C115 1.399 . S
C108 N133 1.343 . S
C109 C110 1.384 . S
C109 C111 1.384 . S
C109 H128 0.931 . S
C110 C109 1.384 . S
C110 C113 1.382 . S
C111 C109 1.384 . S
C111 C112 1.381 . S
C111 H129 0.930 . S
C112 C111 1.381 . S
C112 C114 1.381 . S
C112 C115 1.487 . S
C113 C110 1.382 . S
C113 C114 1.387 . S
C113 H130 0.930 1_545 S
C114 C112 1.381 . S
C114 C113 1.387 . S
C114 H131 0.931 1_545 S
C115 C108 1.399 . S
C115 C112 1.487 . S
C115 N132 1.343 . S
H116 C88 0.931 . S
H117 C90 0.930 . S
H118 C92 0.930 1_565 S
H119 C93 0.931 1_565 S
H120 C95 0.931 1_565 S
H121 C97 0.930 1_565 S
H122 C99 0.930 . S
H123 C100 0.931 . S
H124 C102 0.931 1_565 S
H125 C104 0.930 1_565 S
H126 C106 0.930 . S
H127 C107 0.931 . S
H128 C109 0.931 . S
H129 C111 0.930 . S
H130 C113 0.930 1_565 S
H131 C114 0.931 1_565 S
N132 C94 1.343 . S
N132 C115 1.343 . S
N133 C101 1.343 . S
N133 C108 1.343 . S
C134 C135 1.384 . S
C134 C136 1.384 . S
C134 H162 0.931 . S
C135 C134 1.384 . S
C135 C138 1.382 . S
C136 C134 1.384 . S
C136 C137 1.381 . S
C136 H163 0.930 . S
C137 C136 1.381 . S
C137 C139 1.381 . S
C137 C140 1.487 . S
C138 C135 1.382 . S
C138 C139 1.387 . S
C138 H164 0.930 . S
C139 C137 1.381 . S
C139 C138 1.387 . S
C139 H165 0.931 . S
C140 C137 1.487 . S
C140 C147 1.399 . S
C140 N178 1.343 . S
C141 C142 1.384 . S
C141 C143 1.384 . S
C141 H166 0.931 . S
C142 C141 1.384 . S
C142 C145 1.382 . S
C143 C141 1.384 . S
C143 C144 1.381 . S
C143 H167 0.930 . S
C144 C143 1.381 . S
C144 C146 1.381 . S
C144 C147 1.487 . S
C145 C142 1.382 . S
C145 C146 1.387 . S
C145 H168 0.930 . S
C146 C144 1.381 . S
C146 C145 1.387 . S
C146 H169 0.931 . S
C147 C140 1.399 . S
C147 C144 1.487 . S
C147 N179 1.343 . S
C148 C149 1.384 . S
C148 C150 1.384 . S
C148 H170 0.931 . S
C149 C148 1.384 . S
C149 C152 1.382 . S
C150 C148 1.384 . S
C150 C151 1.381 . S
C150 H171 0.930 . S
C151 C150 1.381 . S
C151 C153 1.381 . S
C151 C154 1.487 . S
C152 C149 1.382 . S
C152 C153 1.387 . S
C152 H172 0.930 . S
C153 C151 1.381 . S
C153 C152 1.387 . S
C153 H173 0.931 . S
C154 C151 1.487 . S
C154 C161 1.399 . S
C154 N179 1.343 . S
C155 C156 1.384 . S
C155 C157 1.384 . S
C155 H174 0.931 . S
C156 C155 1.384 . S
C156 C159 1.382 . S
C157 C155 1.384 . S
C157 C158 1.381 . S
C157 H175 0.930 . S
C158 C157 1.381 . S
C158 C160 1.381 . S
C158 C161 1.487 . S
C159 C156 1.382 . S
C159 C160 1.387 . S
C159 H176 0.930 . S
C160 C158 1.381 . S
C160 C159 1.387 . S
C160 H177 0.931 . S
C161 C154 1.399 . S
C161 C158 1.487 . S
C161 N178 1.343 . S
H162 C134 0.931 . S
H163 C136 0.930 . S
H164 C138 0.930 . S
H165 C139 0.931 . S
H166 C141 0.931 . S
H167 C143 0.930 . S
H168 C145 0.930 . S
H169 C146 0.931 . S
H170 C148 0.931 . S
H171 C150 0.930 . S
H172 C152 0.930 . S
H173 C153 0.931 . S
H174 C155 0.931 . S
H175 C157 0.930 . S
H176 C159 0.930 . S
H177 C160 0.931 . S
N178 C140 1.343 . S
N178 C161 1.343 . S
N179 C147 1.343 . S
N179 C154 1.343 . S
H180 C181 0.951 1_655 S
C181 H180 0.951 1_455 S
C181 C187 1.265 . S
H182 C187 0.950 . S
H183 C191 0.949 . S
H184 C192 0.950 . S
H185 C193 0.951 . S
H186 C194 0.951 . S
C187 C181 1.265 . S
C187 H182 0.950 . S
C187 C188 1.478 . S
C188 C187 1.478 . S
C188 C189 1.397 . S
C188 C205 1.394 . S
C189 C188 1.397 . S
C189 C190 1.438 . S
C189 C194 1.429 . S
C190 C189 1.438 . S
C190 C191 1.428 . S
C190 C203 1.394 . S
C191 H183 0.949 . S
C191 C190 1.428 . S
C191 C192 1.345 . S
C192 H184 0.950 . S
C192 C191 1.345 . S
C192 C193 1.424 . S
C193 H185 0.951 . S
C193 C192 1.424 . S
C193 C194 1.347 . S
C194 H186 0.951 . S
C194 C189 1.429 . S
C194 C193 1.347 . S
H195 C196 0.951 . S
C196 H195 0.951 . S
C196 C202 1.265 . S
H197 C202 0.950 1_655 S
H198 C206 0.949 . S
H199 C207 0.950 . S
H200 C208 0.951 . S
H201 C209 0.951 . S
C202 C196 1.265 . S
C202 H197 0.950 1_455 S
C202 C203 1.478 . S
C203 C190 1.394 . S
C203 C202 1.478 . S
C203 C204 1.397 . S
C204 C203 1.397 . S
C204 C205 1.438 . S
C204 C209 1.429 1_455 S
C205 C188 1.394 . S
C205 C204 1.438 . S
C205 C206 1.428 1_455 S
C206 H198 0.949 . S
C206 C205 1.428 1_655 S
C206 C207 1.345 . S
C207 H199 0.950 . S
C207 C206 1.345 . S
C207 C208 1.424 . S
C208 H200 0.951 . S
C208 C207 1.424 . S
C208 C209 1.347 . S
C209 H201 0.951 . S
C209 C204 1.429 1_655 S
C209 C208 1.347 . S
H210 C211 0.951 . S
C211 H210 0.951 . S
C211 C217 1.265 . S
H212 C217 0.950 . S
H213 C221 0.949 . S
H214 C222 0.950 . S
H215 C223 0.951 . S
H216 C224 0.951 . S
C217 C211 1.265 . S
C217 H212 0.950 . S
C217 C218 1.478 . S
C218 C217 1.478 . S
C218 C219 1.397 . S
C218 C235 1.401 . S
C219 C218 1.397 . S
C219 C220 1.438 . S
C219 C224 1.429 . S
C220 C219 1.438 . S
C220 C221 1.428 . S
C220 C233 1.394 . S
C221 H213 0.949 . S
C221 C220 1.428 . S
C221 C222 1.345 . S
C222 H214 0.950 . S
C222 C221 1.345 . S
C222 C223 1.424 . S
C223 H215 0.951 . S
C223 C222 1.424 . S
C223 C224 1.347 . S
C224 H216 0.951 . S
C224 C219 1.429 . S
C224 C223 1.347 . S
H225 C226 0.951 . S
C226 H225 0.951 . S
C226 C232 1.265 . S
H227 C232 0.950 . S
H228 C236 0.949 . S
H229 C237 0.950 . S
H230 C238 0.951 . S
H231 C239 0.951 . S
C232 C226 1.265 . S
C232 H227 0.950 . S
C232 C233 1.478 . S
C233 C220 1.394 . S
C233 C232 1.478 . S
C233 C234 1.397 . S
C234 C233 1.397 . S
C234 C235 1.447 . S
C234 C239 1.429 1_545 S
C235 C218 1.401 . S
C235 C234 1.447 . S
C235 C236 1.411 1_545 S
C236 H228 0.949 . S
C236 C235 1.411 1_565 S
C236 C237 1.345 . S
C237 H229 0.950 . S
C237 C236 1.345 . S
C237 C238 1.424 . S
C238 H230 0.951 . S
C238 C237 1.424 . S
C238 C239 1.347 . S
C239 H231 0.951 . S
C239 C234 1.429 1_565 S
C239 C238 1.347 . S
H240 C241 0.951 . S
C241 H240 0.951 . S
C241 C247 1.265 . S
H242 C247 0.950 . S
H243 C251 0.949 . S
H244 C252 0.950 . S
H245 C253 0.951 . S
H246 C254 0.951 . S
C247 C241 1.265 . S
C247 H242 0.950 . S
C247 C248 1.478 . S
C248 C247 1.478 . S
C248 C249 1.397 . S
C248 C265 1.394 . S
C249 C248 1.397 . S
C249 C250 1.438 . S
C249 C254 1.429 . S
C250 C249 1.438 . S
C250 C251 1.428 . S
C250 C263 1.394 . S
C251 H243 0.949 . S
C251 C250 1.428 . S
C251 C252 1.345 . S
C252 H244 0.950 . S
C252 C251 1.345 . S
C252 C253 1.424 . S
C253 H245 0.951 . S
C253 C252 1.424 . S
C253 C254 1.347 . S
C254 H246 0.951 . S
C254 C249 1.429 . S
C254 C253 1.347 . S
H255 C256 0.951 . S
C256 H255 0.951 . S
C256 C262 1.265 . S
H257 C262 0.950 . S
H258 C266 0.949 . S
H259 C267 0.950 . S
H260 C268 0.951 . S
H261 C269 0.951 . S
C262 C256 1.265 . S
C262 H257 0.950 . S
C262 C263 1.478 . S
C263 C250 1.394 . S
C263 C262 1.478 . S
C263 C264 1.397 . S
C264 C263 1.397 . S
C264 C265 1.438 . S
C264 C269 1.429 . S
C265 C248 1.394 . S
C265 C264 1.438 . S
C265 C266 1.428 . S
C266 H258 0.949 . S
C266 C265 1.428 . S
C266 C267 1.345 . S
C267 H259 0.950 . S
C267 C266 1.345 . S
C267 C268 1.424 . S
C268 H260 0.951 . S
C268 C267 1.424 . S
C268 C269 1.347 . S
C269 H261 0.951 . S
C269 C264 1.429 . S
C269 C268 1.347 . S
H270 C271 0.951 . S
C271 H270 0.951 . S
C271 C277 1.265 . S
H272 C277 0.950 . S
H273 C281 0.949 . S
H274 C282 0.950 . S
H275 C283 0.951 . S
H276 C284 0.951 . S
C277 C271 1.265 . S
C277 H272 0.950 . S
C277 C278 1.478 . S
C278 C277 1.478 . S
C278 C279 1.397 . S
C278 C295 1.396 . S
C279 C278 1.397 . S
C279 C280 1.438 . S
C279 C284 1.429 . S
C280 C279 1.438 . S
C280 C281 1.428 . S
C280 C293 1.394 . S
C281 H273 0.949 . S
C281 C280 1.428 . S
C281 C282 1.345 . S
C282 H274 0.950 . S
C282 C281 1.345 . S
C282 C283 1.424 . S
C283 H275 0.951 . S
C283 C282 1.424 . S
C283 C284 1.347 . S
C284 H276 0.951 . S
C284 C279 1.429 . S
C284 C283 1.347 . S
H285 C286 0.951 . S
C286 H285 0.951 . S
C286 C292 1.265 . S
H287 C292 0.950 . S
H288 C296 0.949 . S
H289 C297 0.950 . S
H290 C298 0.951 . S
H291 C299 0.951 . S
C292 C286 1.265 . S
C292 H287 0.950 . S
C292 C293 1.478 . S
C293 C280 1.394 . S
C293 C292 1.478 . S
C293 C294 1.397 1_455 S
C294 C293 1.397 1_655 S
C294 C295 1.439 1_655 S
C294 C299 1.429 . S
C295 C278 1.396 . S
C295 C294 1.439 1_455 S
C295 C296 1.424 1_455 S
C296 H288 0.949 . S
C296 C295 1.424 1_655 S
C296 C297 1.345 . S
C297 H289 0.950 . S
C297 C296 1.345 . S
C297 C298 1.424 . S
C298 H290 0.951 . S
C298 C297 1.424 . S
C298 C299 1.347 . S
C299 H291 0.951 . S
C299 C294 1.429 . S
C299 C298 1.347 . S
H300 C301 0.951 . S
C301 H300 0.951 . S
C301 C307 1.265 . S
H302 C307 0.950 . S
H303 C311 0.949 . S
H304 C312 0.950 . S
H305 C313 0.951 . S
H306 C314 0.951 . S
C307 C301 1.265 . S
C307 H302 0.950 . S
C307 C308 1.478 . S
C308 C307 1.478 . S
C308 C309 1.397 . S
C308 C325 1.394 . S
C309 C308 1.397 . S
C309 C310 1.438 . S
C309 C314 1.429 . S
C310 C309 1.438 . S
C310 C311 1.428 . S
C310 C323 1.394 . S
C311 H303 0.949 . S
C311 C310 1.428 . S
C311 C312 1.345 . S
C312 H304 0.950 . S
C312 C311 1.345 . S
C312 C313 1.424 . S
C313 H305 0.951 . S
C313 C312 1.424 . S
C313 C314 1.347 . S
C314 H306 0.951 . S
C314 C309 1.429 . S
C314 C313 1.347 . S
H315 C316 0.951 . S
C316 H315 0.951 . S
C316 C322 1.265 . S
H317 C322 0.950 . S
H318 C326 0.949 . S
H319 C327 0.950 . S
H320 C328 0.951 . S
H321 C329 0.951 . S
C322 C316 1.265 . S
C322 H317 0.950 . S
C322 C323 1.478 . S
C323 C310 1.394 . S
C323 C322 1.478 . S
C323 C324 1.397 . S
C324 C323 1.397 . S
C324 C325 1.438 . S
C324 C329 1.429 1_545 S
C325 C308 1.394 . S
C325 C324 1.438 . S
C325 C326 1.428 1_545 S
C326 H318 0.949 . S
C326 C325 1.428 1_565 S
C326 C327 1.345 . S
C327 H319 0.950 . S
C327 C326 1.345 . S
C327 C328 1.424 . S
C328 H320 0.951 . S
C328 C327 1.424 . S
C328 C329 1.347 . S
C329 H321 0.951 . S
C329 C324 1.429 1_565 S
C329 C328 1.347 . S
H330 C331 0.951 . S
C331 H330 0.951 . S
C331 C337 1.265 . S
H332 C337 0.950 . S
H333 C341 0.949 . S
H334 C342 0.950 . S
H335 C343 0.951 . S
H336 C344 0.951 . S
C337 C331 1.265 . S
C337 H332 0.950 . S
C337 C338 1.478 . S
C338 C337 1.478 . S
C338 C339 1.397 . S
C338 C355 1.394 . S
C339 C338 1.397 . S
C339 C340 1.438 . S
C339 C344 1.429 . S
C340 C339 1.438 . S
C340 C341 1.428 . S
C340 C353 1.394 . S
C341 H333 0.949 . S
C341 C340 1.428 . S
C341 C342 1.345 . S
C342 H334 0.950 . S
C342 C341 1.345 . S
C342 C343 1.424 . S
C343 H335 0.951 . S
C343 C342 1.424 . S
C343 C344 1.347 . S
C344 H336 0.951 . S
C344 C339 1.429 . S
C344 C343 1.347 . S
H345 C346 0.951 . S
C346 H345 0.951 . S
C346 C352 1.265 . S
H347 C352 0.950 . S
H348 C356 0.949 . S
H349 C357 0.950 . S
H350 C358 0.951 . S
H351 C359 0.951 . S
C352 C346 1.265 . S
C352 H347 0.950 . S
C352 C353 1.478 . S
C353 C340 1.394 . S
C353 C352 1.478 . S
C353 C354 1.397 . S
C354 C353 1.397 . S
C354 C355 1.438 . S
C354 C359 1.429 . S
C355 C338 1.394 . S
C355 C354 1.438 . S
C355 C356 1.428 . S
C356 H348 0.949 . S
C356 C355 1.428 . S
C356 C357 1.345 . S
C357 H349 0.950 . S
C357 C356 1.345 . S
C357 C358 1.424 . S
C358 H350 0.951 . S
C358 C357 1.424 . S
C358 C359 1.347 . S
C359 H351 0.951 . S
C359 C354 1.429 . S
C359 C358 1.347 . S
H360 C361 0.951 . S
C361 H360 0.951 . S
C361 C367 1.265 . S
H362 C367 0.950 . S
H363 C371 0.949 . S
H364 C372 0.950 . S
H365 C373 0.951 . S
H366 C374 0.951 . S
C367 C361 1.265 . S
C367 H362 0.950 . S
C367 C368 1.478 . S
C368 C367 1.478 . S
C368 C369 1.397 . S
C368 C385 1.394 . S
C369 C368 1.397 . S
C369 C370 1.438 . S
C369 C374 1.429 1_545 S
C370 C369 1.438 . S
C370 C371 1.428 1_545 S
C370 C383 1.394 . S
C371 H363 0.949 . S
C371 C370 1.428 1_565 S
C371 C372 1.345 . S
C372 H364 0.950 . S
C372 C371 1.345 . S
C372 C373 1.424 . S
C373 H365 0.951 . S
C373 C372 1.424 . S
C373 C374 1.347 . S
C374 H366 0.951 . S
C374 C369 1.429 1_565 S
C374 C373 1.347 . S
H375 C376 0.951 . S
C376 H375 0.951 . S
C376 C382 1.265 . S
H377 C382 0.950 . S
H378 C386 0.949 . S
H379 C387 0.950 . S
H380 C388 0.951 . S
H381 C389 0.951 . S
C382 C376 1.265 . S
C382 H377 0.950 . S
C382 C383 1.478 . S
C383 C370 1.394 . S
C383 C382 1.478 . S
C383 C384 1.397 . S
C384 C383 1.397 . S
C384 C385 1.438 . S
C384 C389 1.429 . S
C385 C368 1.394 . S
C385 C384 1.438 . S
C385 C386 1.428 . S
C386 H378 0.949 . S
C386 C385 1.428 . S
C386 C387 1.345 . S
C387 H379 0.950 . S
C387 C386 1.345 . S
C387 C388 1.424 . S
C388 H380 0.951 . S
C388 C387 1.424 . S
C388 C389 1.347 . S
C389 H381 0.951 . S
C389 C384 1.429 . S
C389 C388 1.347 . S
H390 C391 0.951 . S
C391 H390 0.951 . S
C391 C397 1.265 . S
H392 C397 0.950 . S
H393 C401 0.949 . S
H394 C402 0.950 . S
H395 C403 0.951 . S
H396 C404 0.951 1_554 S
C397 C391 1.265 . S
C397 H392 0.950 . S
C397 C398 1.476 1_554 S
C398 C397 1.476 1_556 S
C398 C399 1.399 . S
C398 C415 1.395 . S
C399 C398 1.399 . S
C399 C400 1.438 . S
C399 C404 1.429 . S
C400 C399 1.438 . S
C400 C401 1.428 . S
C400 C413 1.394 . S
C401 H393 0.949 . S
C401 C400 1.428 . S
C401 C402 1.345 . S
C402 H394 0.950 . S
C402 C401 1.345 . S
C402 C403 1.424 . S
C403 H395 0.951 . S
C403 C402 1.424 . S
C403 C404 1.347 . S
C404 H396 0.951 1_556 S
C404 C399 1.429 . S
C404 C403 1.347 . S
H405 C406 0.951 . S
C406 H405 0.951 . S
C406 C412 1.265 . S
H407 C412 0.950 . S
H408 C416 0.949 . S
H409 C417 0.950 . S
H410 C418 0.951 . S
H411 C419 0.951 . S
C412 C406 1.265 . S
C412 H407 0.950 . S
C412 C413 1.478 . S
C413 C400 1.394 . S
C413 C412 1.478 . S
C413 C414 1.397 . S
C414 C413 1.397 . S
C414 C415 1.438 . S
C414 C419 1.429 . S
C415 C398 1.395 . S
C415 C414 1.438 . S
C415 C416 1.428 1_556 S
C416 H408 0.949 . S
C416 C415 1.428 1_554 S
C416 C417 1.345 . S
C417 H409 0.950 . S
C417 C416 1.345 . S
C417 C418 1.424 1_554 S
C418 H410 0.951 . S
C418 C417 1.424 1_556 S
C418 C419 1.347 . S
C419 H411 0.951 . S
C419 C414 1.429 . S
C419 C418 1.347 . S
H420 C421 0.951 . S
C421 H420 0.951 . S
C421 C427 1.265 . S
H422 C427 0.950 1_655 S
H423 C431 0.949 . S
H424 C432 0.950 . S
H425 C433 0.951 . S
H426 C434 0.951 . S
C427 C421 1.265 . S
C427 H422 0.950 1_455 S
C427 C428 1.478 . S
C428 C427 1.478 . S
C428 C429 1.397 . S
C428 C445 1.394 . S
C429 C428 1.397 . S
C429 C430 1.438 . S
C429 C434 1.429 1_455 S
C430 C429 1.438 . S
C430 C431 1.428 . S
C430 C443 1.394 . S
C431 H423 0.949 . S
C431 C430 1.428 . S
C431 C432 1.345 . S
C432 H424 0.950 . S
C432 C431 1.345 . S
C432 C433 1.424 1_455 S
C433 H425 0.951 . S
C433 C432 1.424 1_655 S
C433 C434 1.347 . S
C434 H426 0.951 . S
C434 C429 1.429 1_655 S
C434 C433 1.347 . S
H435 C436 0.951 1_655 S
C436 H435 0.951 1_455 S
C436 C442 1.265 . S
H437 C442 0.950 . S
H438 C446 0.949 . S
H439 C447 0.950 . S
H440 C448 0.951 . S
H441 C449 0.951 . S
C442 C436 1.265 . S
C442 H437 0.950 . S
C442 C443 1.478 . S
C443 C430 1.394 . S
C443 C442 1.478 . S
C443 C444 1.397 . S
C444 C443 1.397 . S
C444 C445 1.438 . S
C444 C449 1.429 . S
C445 C428 1.394 . S
C445 C444 1.438 . S
C445 C446 1.428 . S
C446 H438 0.949 . S
C446 C445 1.428 . S
C446 C447 1.345 . S
C447 H439 0.950 . S
C447 C446 1.345 . S
C447 C448 1.424 . S
C448 H440 0.951 . S
C448 C447 1.424 . S
C448 C449 1.347 . S
C449 H441 0.951 . S
C449 C444 1.429 . S
C449 C448 1.347 . S
H450 C451 0.951 . S
C451 H450 0.951 . S
C451 C457 1.265 . S
H452 C457 0.950 1_565 S
H453 C461 0.949 . S
H454 C462 0.950 . S
H455 C463 0.951 . S
H456 C464 0.951 . S
C457 C451 1.265 . S
C457 H452 0.950 1_545 S
C457 C458 1.478 . S
C458 C457 1.478 . S
C458 C459 1.397 . S
C458 C475 1.394 . S
C459 C458 1.397 . S
C459 C460 1.438 . S
C459 C464 1.429 1_545 S
C460 C459 1.438 . S
C460 C461 1.428 1_545 S
C460 C473 1.394 . S
C461 H453 0.949 . S
C461 C460 1.428 1_565 S
C461 C462 1.345 . S
C462 H454 0.950 . S
C462 C461 1.345 . S
C462 C463 1.424 . S
C463 H455 0.951 . S
C463 C462 1.424 . S
C463 C464 1.347 . S
C464 H456 0.951 . S
C464 C459 1.429 1_565 S
C464 C463 1.347 . S
H465 C466 0.951 . S
C466 H465 0.951 . S
C466 C472 1.265 . S
H467 C472 0.950 . S
H468 C476 0.949 . S
H469 C477 0.950 . S
H470 C478 0.951 . S
H471 C479 0.951 . S
C472 C466 1.265 . S
C472 H467 0.950 . S
C472 C473 1.478 . S
C473 C460 1.394 . S
C473 C472 1.478 . S
C473 C474 1.397 . S
C474 C473 1.397 . S
C474 C475 1.438 . S
C474 C479 1.429 . S
C475 C458 1.394 . S
C475 C474 1.438 . S
C475 C476 1.428 . S
C476 H468 0.949 . S
C476 C475 1.428 . S
C476 C477 1.345 . S
C477 H469 0.950 . S
C477 C476 1.345 . S
C477 C478 1.424 . S
C478 H470 0.951 . S
C478 C477 1.424 . S
C478 C479 1.347 . S
C479 H471 0.951 . S
C479 C474 1.429 . S
C479 C478 1.347 . S
H480 C481 0.951 . S
C481 H480 0.951 . S
C481 C487 1.265 . S
H482 C487 0.950 . S
H483 C491 0.949 . S
H484 C492 0.950 . S
H485 C493 0.951 . S
H486 C494 0.951 . S
C487 C481 1.265 . S
C487 H482 0.950 . S
C487 C488 1.478 1_554 S
C488 C487 1.478 1_556 S
C488 C489 1.397 . S
C488 C505 1.394 1_556 S
C489 C488 1.397 . S
C489 C490 1.438 . S
C489 C494 1.429 . S
C490 C489 1.438 . S
C490 C491 1.428 . S
C490 C503 1.394 . S
C491 H483 0.949 . S
C491 C490 1.428 . S
C491 C492 1.345 . S
C492 H484 0.950 . S
C492 C491 1.345 . S
C492 C493 1.424 . S
C493 H485 0.951 . S
C493 C492 1.424 . S
C493 C494 1.347 . S
C494 H486 0.951 . S
C494 C489 1.429 . S
C494 C493 1.347 . S
H495 C496 0.951 . S
C496 H495 0.951 . S
C496 C502 1.265 . S
H497 C502 0.950 . S
H498 C506 0.949 . S
H499 C507 0.950 . S
H500 C508 0.951 . S
H501 C509 0.951 . S
C502 C496 1.265 . S
C502 H497 0.950 . S
C502 C503 1.478 . S
C503 C490 1.394 . S
C503 C502 1.478 . S
C503 C504 1.397 . S
C504 C503 1.397 . S
C504 C505 1.438 1_556 S
C504 C509 1.429 . S
C505 C488 1.394 1_554 S
C505 C504 1.438 1_554 S
C505 C506 1.428 . S
C506 H498 0.949 . S
C506 C505 1.428 . S
C506 C507 1.345 . S
C507 H499 0.950 . S
C507 C506 1.345 . S
C507 C508 1.424 . S
C508 H500 0.951 . S
C508 C507 1.424 . S
C508 C509 1.347 1_554 S
C509 H501 0.951 . S
C509 C504 1.429 . S
C509 C508 1.347 1_556 S
H510 C511 0.951 . S
C511 H510 0.951 . S
C511 C517 1.265 . S
H512 C517 0.950 . S
H513 C521 0.949 . S
H514 C522 0.950 . S
H515 C523 0.951 . S
H516 C524 0.951 . S
C517 C511 1.265 . S
C517 H512 0.950 . S
C517 C518 1.478 . S
C518 C517 1.478 . S
C518 C519 1.397 . S
C518 C535 1.394 1_455 S
C519 C518 1.397 . S
C519 C520 1.438 . S
C519 C524 1.429 . S
C520 C519 1.438 . S
C520 C521 1.428 . S
C520 C533 1.394 . S
C521 H513 0.949 . S
C521 C520 1.428 . S
C521 C522 1.345 . S
C522 H514 0.950 . S
C522 C521 1.345 . S
C522 C523 1.424 . S
C523 H515 0.951 . S
C523 C522 1.424 . S
C523 C524 1.347 . S
C524 H516 0.951 . S
C524 C519 1.429 . S
C524 C523 1.347 . S
H525 C526 0.951 . S
C526 H525 0.951 . S
C526 C532 1.265 . S
H527 C532 0.944 1_655 S
H528 C536 0.949 . S
H529 C537 0.950 . S
H530 C538 0.951 . S
H531 C539 0.951 . S
C532 C526 1.265 . S
C532 H527 0.944 1_455 S
C532 C533 1.478 . S
C533 C520 1.394 . S
C533 C532 1.478 . S
C533 C534 1.397 1_455 S
C534 C533 1.397 1_655 S
C534 C535 1.438 . S
C534 C539 1.429 . S
C535 C518 1.394 1_655 S
C535 C534 1.438 . S
C535 C536 1.428 . S
C536 H528 0.949 . S
C536 C535 1.428 . S
C536 C537 1.345 . S
C537 H529 0.950 . S
C537 C536 1.345 . S
C537 C538 1.424 . S
C538 H530 0.951 . S
C538 C537 1.424 . S
C538 C539 1.347 . S
C539 H531 0.951 . S
C539 C534 1.429 . S
C539 C538 1.347 . S
C196 C50 1.449 . S
C181 C0 1.434 . S
C211 C25 1.470 . S
C226 C89 1.476 . S
C241 C33 1.490 . S
C256 C156 1.501 . S
C271 C11 1.440 . S
C286 C57 1.438 . S
C316 C110 1.478 . S
C301 C14 1.485 . S
C331 C37 1.515 . S
C346 C135 1.505 . S
C376 C96 1.470 . S
C361 C28 1.450 . S
C391 C9 1.494 . S
C406 C149 1.509 . S
C436 C64 1.532 . S
C421 C19 1.519 . S
C466 C103 1.482 . S
C451 C39 1.482 . S
C496 C142 1.489 . S
C481 C5 1.490 . S
C511 C23 1.533 . S
C526 C43 1.546 . S
