# Generated by pormake.
# Topology zzz, (3,6)-cn, num edge types: 1
# Building blocks:
#     Node 0, Type 0, BuildingBlock: VETTIZ_charged_linker_0, # of connection points: 3
#     Node 1, Type 0, BuildingBlock: VETTIZ_charged_linker_0, # of connection points: 3
#     Node 2, Type 0, BuildingBlock: VETTIZ_charged_linker_0, # of connection points: 3
#     Node 3, Type 0, BuildingBlock: VETTIZ_charged_linker_0, # of connection points: 3
#     Node 4, Type 0, BuildingBlock: VETTIZ_charged_linker_0, # of connection points: 3
#     Node 5, Type 0, BuildingBlock: VETTIZ_charged_linker_0, # of connection points: 3
#     Node 6, Type 0, BuildingBlock: VETTIZ_charged_linker_0, # of connection points: 3
#     Node 7, Type 0, BuildingBlock: VETTIZ_charged_linker_0, # of connection points: 3
#     Node 8, Type 1, BuildingBlock: HISSIN_clean_sbu_0, # of connection points: 6
#     Node 9, Type 1, BuildingBlock: HISSIN_clean_sbu_0, # of connection points: 6
#     Node 10, Type 1, BuildingBlock: HISSIN_clean_sbu_0, # of connection points: 6
#     Node 11, Type 1, BuildingBlock: HISSIN_clean_sbu_0, # of connection points: 6
#     Edge 12, Type (0, 1), BuildingBlock: ZUJKAS_clean_linker_0, # of connection points: 2
#     Edge 13, Type (0, 1), BuildingBlock: ZUJKAS_clean_linker_0, # of connection points: 2
#     Edge 14, Type (0, 1), BuildingBlock: ZUJKAS_clean_linker_0, # of connection points: 2
#     Edge 15, Type (0, 1), BuildingBlock: ZUJKAS_clean_linker_0, # of connection points: 2
#     Edge 16, Type (0, 1), BuildingBlock: ZUJKAS_clean_linker_0, # of connection points: 2
#     Edge 17, Type (0, 1), BuildingBlock: ZUJKAS_clean_linker_0, # of connection points: 2
#     Edge 18, Type (0, 1), BuildingBlock: ZUJKAS_clean_linker_0, # of connection points: 2
#     Edge 19, Type (0, 1), BuildingBlock: ZUJKAS_clean_linker_0, # of connection points: 2
#     Edge 20, Type (0, 1), BuildingBlock: ZUJKAS_clean_linker_0, # of connection points: 2
#     Edge 21, Type (0, 1), BuildingBlock: ZUJKAS_clean_linker_0, # of connection points: 2
#     Edge 22, Type (0, 1), BuildingBlock: ZUJKAS_clean_linker_0, # of connection points: 2
#     Edge 23, Type (0, 1), BuildingBlock: ZUJKAS_clean_linker_0, # of connection points: 2
#     Edge 24, Type (0, 1), BuildingBlock: ZUJKAS_clean_linker_0, # of connection points: 2
#     Edge 25, Type (0, 1), BuildingBlock: ZUJKAS_clean_linker_0, # of connection points: 2
#     Edge 26, Type (0, 1), BuildingBlock: ZUJKAS_clean_linker_0, # of connection points: 2
#     Edge 27, Type (0, 1), BuildingBlock: ZUJKAS_clean_linker_0, # of connection points: 2
#     Edge 28, Type (0, 1), BuildingBlock: ZUJKAS_clean_linker_0, # of connection points: 2
#     Edge 29, Type (0, 1), BuildingBlock: ZUJKAS_clean_linker_0, # of connection points: 2
#     Edge 30, Type (0, 1), BuildingBlock: ZUJKAS_clean_linker_0, # of connection points: 2
#     Edge 31, Type (0, 1), BuildingBlock: ZUJKAS_clean_linker_0, # of connection points: 2
#     Edge 32, Type (0, 1), BuildingBlock: ZUJKAS_clean_linker_0, # of connection points: 2
#     Edge 33, Type (0, 1), BuildingBlock: ZUJKAS_clean_linker_0, # of connection points: 2
#     Edge 34, Type (0, 1), BuildingBlock: ZUJKAS_clean_linker_0, # of connection points: 2
#     Edge 35, Type (0, 1), BuildingBlock: ZUJKAS_clean_linker_0, # of connection points: 2
# Relax obj value: 0.363
# Max RMSD: 0.214
# Mean RMSD: 0.191
data_MOF--net-zzz--node1-HISSIN_clean_sbu_0--node2-VETTIZ_charged_linker_0--edge1-ZUJKAS_clean_linker_0
_symmetry_space_group_name_H-M    P1
_symmetry_Int_Tables_number       1
_symmetry_cell_setting            triclinic
loop_
_symmetry_equiv_pos_as_xyz
'x, y, z'
_cell_length_a     69.472174
_cell_length_b     70.050336
_cell_length_c     26.804585
_cell_angle_alpha  89.517142
_cell_angle_beta   92.123044
_cell_angle_gamma 91.761233
loop_
_atom_site_label
_atom_site_type_symbol
_atom_site_fract_x
_atom_site_fract_y
_atom_site_fract_z
_atom_type_partial_charge
C0 C 0.78885 0.54743 0.28754 0.0
C1 C 0.8067 0.55476 0.30778 0.0
C2 C 0.81558 0.5706 0.28441 0.0
C3 C 0.79028 0.57089 0.22025 0.0
C4 C 0.78068 0.55606 0.24401 0.0
C5 C 0.76145 0.55135 0.21725 0.0
H6 H 0.70106 0.56986 0.01471 0.0
C7 C 0.77919 0.57612 0.17462 0.0
C8 C 0.76185 0.56518 0.17265 0.0
H9 H 0.68942 0.52995 0.13418 0.0
H10 H 0.72073 0.5382 0.17411 0.0
H11 H 0.72033 0.60427 0.08115 0.0
H12 H 0.74062 0.55729 0.99903 0.0
H13 H 0.75966 0.5742 0.99744 0.0
H14 H 0.73647 0.57986 0.96948 0.0
H15 H 0.71908 0.60238 0.01433 0.0
H16 H 0.73994 0.6129 0.04669 0.0
C17 C 0.74521 0.55579 0.25273 0.0
C18 C 0.76123 0.53032 0.20062 0.0
C19 C 0.81349 0.61426 0.04201 0.0
C20 C 0.80862 0.61767 0.99144 0.0
C21 C 0.78914 0.61575 0.97512 0.0
C22 C 0.77521 0.60842 1.00726 0.0
C23 C 0.78089 0.60269 0.05591 0.0
C24 C 0.79955 0.60649 0.07324 0.0
C25 C 0.80329 0.5988 0.12509 0.0
C26 C 0.78418 0.58843 0.13448 0.0
C27 C 0.77118 0.59079 0.09399 0.0
C28 C 0.80706 0.61604 0.16057 0.0
C29 C 0.8202 0.58484 0.12333 0.0
C30 C 0.70495 0.56314 0.05007 0.0
C31 C 0.69251 0.5496 0.07179 0.0
C32 C 0.69867 0.54059 0.11678 0.0
C33 C 0.71678 0.54547 0.14002 0.0
C34 C 0.72893 0.55934 0.11775 0.0
C35 C 0.7228 0.56771 0.0732 0.0
C36 C 0.73755 0.58119 0.05216 0.0
C37 C 0.75329 0.58051 0.0925 0.0
C38 C 0.74847 0.56766 0.13124 0.0
C39 C 0.72885 0.60127 0.04791 0.0
C40 C 0.7439 0.5729 1.00186 0.0
H41 H 0.81525 0.59048 0.22533 0.0
H42 H 0.7815 0.53547 0.30522 0.0
H43 H 0.77477 0.5272 0.18179 0.0
H44 H 0.74931 0.52686 0.17358 0.0
H45 H 0.76 0.52053 0.23325 0.0
H46 H 0.74805 0.56988 0.27083 0.0
H47 H 0.7442 0.54477 0.28266 0.0
H48 H 0.73104 0.55672 0.23314 0.0
H49 H 0.82833 0.61551 0.05572 0.0
H50 H 0.78496 0.61859 0.9365 0.0
H51 H 0.76081 0.60646 0.99199 0.0
H52 H 0.80197 0.62964 0.14372 0.0
H53 H 0.82267 0.61818 0.17011 0.0
H54 H 0.79909 0.61439 0.19554 0.0
H55 H 0.81854 0.5756 0.08978 0.0
H56 H 0.82106 0.5749 0.15529 0.0
H57 H 0.83425 0.59276 0.12157 0.0
H58 H 0.82929 0.57647 0.29873 0.0
C59 C 0.80746 0.57871 0.24136 0.0
C60 C 0.9114 0.79401 0.99311 0.0
C61 C 0.90414 0.81152 1.00824 0.0
C62 C 0.90513 0.81603 0.05946 0.0
C63 C 0.92546 0.78914 0.07612 0.0
C64 C 0.92215 0.78313 0.02765 0.0
C65 C 0.93327 0.76563 0.01676 0.0
H66 H 1.00246 0.70303 0.08062 0.0
C67 C 0.94109 0.77772 0.09882 0.0
C68 C 0.94559 0.76374 0.06477 0.0
H69 H 0.96087 0.7023 0.95622 0.0
H70 H 0.94801 0.7312 0.98381 0.0
H71 H 0.00935 0.75421 0.07443 0.0
H72 H 0.97328 0.71973 0.172 0.0
H73 H 0.99032 0.73572 0.20274 0.0
H74 H 0.99871 0.71568 0.16938 0.0
H75 H 0.01977 0.73649 0.11531 0.0
H76 H 0.01282 0.75906 0.1391 0.0
C77 C 0.94579 0.76999 0.97101 0.0
C78 C 0.91852 0.74865 0.00957 0.0
C79 C 0.97327 0.80425 0.25544 0.0
C80 C 0.99081 0.80167 0.28157 0.0
C81 C 1.00256 0.78678 0.26599 0.0
C82 C 0.99663 0.77475 0.22527 0.0
C83 C 0.97902 0.77796 0.19891 0.0
C84 C 0.96793 0.79274 0.21459 0.0
C85 C 0.95078 0.79607 0.18097 0.0
C86 C 0.95299 0.78087 0.14216 0.0
C87 C 0.9693 0.76969 0.15242 0.0
C88 C 0.95273 0.81672 0.15904 0.0
C89 C 0.93248 0.79212 0.21134 0.0
C90 C 0.99055 0.70923 0.05971 0.0
C91 C 0.98237 0.69991 0.01649 0.0
C92 C 0.96711 0.70866 0.99007 0.0
C93 C 0.95954 0.72557 1.0063 0.0
C94 C 0.96718 0.73438 0.04968 0.0
C95 C 0.98254 0.72653 0.07595 0.0
C96 C 0.98851 0.73895 0.12095 0.0
C97 C 0.97312 0.7543 0.11902 0.0
C98 C 0.96108 0.75146 0.07598 0.0
C99 C 0.00876 0.74766 0.11231 0.0
C100 C 0.98772 0.72688 0.16909 0.0
H101 H 0.91682 0.80971 0.13127 0.0
H102 H 0.91034 0.78986 0.95426 0.0
H103 H 0.90422 0.75176 0.02447 0.0
H104 H 0.92313 0.73568 0.03023 0.0
H105 H 0.91609 0.74511 0.96948 0.0
H106 H 0.95242 0.78463 0.97356 0.0
H107 H 0.93697 0.76913 0.93564 0.0
H108 H 0.95799 0.76038 0.96824 0.0
H109 H 0.96411 0.81582 0.26497 0.0
H110 H 0.01625 0.78442 0.28535 0.0
H111 H 1.00595 0.76356 0.21529 0.0
H112 H 0.9676 0.82295 0.16419 0.0
H113 H 0.94295 0.82659 0.1771 0.0
H114 H 0.94998 0.81727 0.11814 0.0
H115 H 0.93452 0.77986 0.23748 0.0
H116 H 0.91972 0.78798 0.18753 0.0
H117 H 0.92908 0.80472 0.23393 0.0
H118 H 0.89955 0.82927 0.07265 0.0
C119 C 0.91563 0.80484 0.09349 0.0
C120 C 0.80963 0.98808 0.05443 0.0
C121 C 0.81997 0.97948 0.01583 0.0
C122 C 0.81254 0.96231 0.9952 0.0
C123 C 0.78594 0.96165 0.05107 0.0
C124 C 0.79255 0.9787 0.07191 0.0
C125 C 0.77911 0.98464 0.11288 0.0
H126 H 0.70048 0.95611 0.25248 0.0
C127 C 0.76894 0.95446 0.07766 0.0
C128 C 0.76481 0.96742 0.11556 0.0
H129 H 0.72746 0.01235 0.25609 0.0
H130 H 0.75147 1.00192 0.19742 0.0
H131 H 0.69396 0.95188 0.15776 0.0
H132 H 0.74038 0.93178 0.24583 0.0
H133 H 0.73427 0.91362 0.2025 0.0
H134 H 0.71598 0.92252 0.2417 0.0
H135 H 0.69502 0.92698 0.17024 0.0
H136 H 0.70386 0.93733 0.11323 0.0
C137 C 0.76896 1.00287 0.09524 0.0
C138 C 0.79069 0.98751 0.16239 0.0
C139 C 0.72749 0.90046 1.00499 0.0
C140 C 0.71038 0.89163 0.02187 0.0
C141 C 0.7073 0.89152 0.07364 0.0
C142 C 0.71867 0.90323 0.10578 0.0
C143 C 0.73329 0.91493 0.08589 0.0
C144 C 0.73876 0.91201 0.03781 0.0
C145 C 0.7561 0.92428 0.02529 0.0
C146 C 0.75772 0.93737 0.0706 0.0
C147 C 0.74401 0.93202 0.10524 0.0
C148 C 0.75151 0.93551 0.97635 0.0
C149 C 0.77352 0.91094 0.02264 0.0
C150 C 0.71135 0.96645 0.2407 0.0
C151 C 0.71153 0.98521 0.25831 0.0
C152 C 0.72664 0.99779 0.24278 0.0
C153 C 0.74041 0.99182 0.20826 0.0
C154 C 0.73901 0.97315 0.18857 0.0
C155 C 0.72452 0.96098 0.20562 0.0
C156 C 0.72356 0.94213 0.18007 0.0
C157 C 0.73946 0.94483 0.14338 0.0
C158 C 0.74919 0.96282 0.14841 0.0
C159 C 0.70316 0.93929 0.1541 0.0
C160 C 0.72867 0.92658 0.21943 0.0
H161 H 0.79118 0.9406 0.99417 0.0
H162 H 0.81488 1.00138 0.07095 0.0
H163 H 0.79877 0.97447 0.17229 0.0
H164 H 0.78116 0.99038 0.19342 0.0
H165 H 0.80121 0.9997 0.15942 0.0
H166 H 0.76227 1.00085 0.05724 0.0
H167 H 0.77944 0.01515 0.09372 0.0
H168 H 0.75734 0.00664 0.1199 0.0
H169 H 0.73089 0.90032 0.96596 0.0
H170 H 0.69495 0.88389 0.08849 0.0
H171 H 0.71491 0.90363 0.14412 0.0
H172 H 0.73687 0.94148 0.97703 0.0
H173 H 0.75199 0.9261 0.94331 0.0
H174 H 0.76146 0.94782 0.97045 0.0
H175 H 0.77035 0.89639 0.03785 0.0
H176 H 0.78615 0.91638 0.04542 0.0
H177 H 0.77785 0.90906 0.98355 0.0
H178 H 0.81982 0.95556 0.96522 0.0
C179 C 0.79585 0.95347 0.01242 0.0
C180 C 0.50382 0.72705 0.23639 0.0
C181 C 0.49539 0.70898 0.2491 0.0
C182 C 0.48139 0.70074 0.21586 0.0
C183 C 0.48244 0.72865 0.16241 0.0
C184 C 0.49704 0.73669 0.19255 0.0
C185 C 0.50383 0.7559 0.1712 0.0
H186 H 0.48531 0.82673 0.99669 0.0
C187 C 0.47724 0.7423 0.12233 0.0
C188 C 0.4895 0.75863 0.12689 0.0
H189 H 0.53526 0.82502 0.09684 0.0
H190 H 0.52301 0.79492 0.13282 0.0
H191 H 0.48828 0.78551 0.96345 0.0
H192 H 0.45369 0.81141 0.07208 0.0
H193 H 0.4388 0.79367 0.04344 0.0
H194 H 0.44829 0.81319 1.00628 0.0
H195 H 0.46788 0.79961 0.94661 0.0
H196 H 0.46551 0.77426 0.9571 0.0
C197 C 0.52457 0.7538 0.1538 0.0
C198 C 0.50222 0.7715 0.21085 0.0
C199 C 0.42356 0.72359 0.997 0.0
C200 C 0.41434 0.73336 0.95707 0.0
C201 C 0.41817 0.75317 0.9518 0.0
C202 C 0.432 0.76261 0.9829 0.0
C203 C 0.44211 0.75222 0.02001 0.0
C204 C 0.43714 0.73329 0.02799 0.0
C205 C 0.4485 0.72478 0.07099 0.0
C206 C 0.46203 0.74145 0.08549 0.0
C207 C 0.45845 0.75729 0.05494 0.0
C208 C 0.45968 0.70774 0.05113 0.0
C209 C 0.43421 0.71951 0.11261 0.0
C210 C 0.49355 0.82012 0.02694 0.0
C211 C 0.51108 0.82843 0.04435 0.0
C212 C 0.52163 0.81892 0.08275 0.0
C213 C 0.51457 0.80144 0.10334 0.0
C214 C 0.49707 0.79313 0.08434 0.0
C215 C 0.48707 0.80264 0.04648 0.0
C216 C 0.4698 0.79156 0.02663 0.0
C217 C 0.47085 0.77368 0.0583 0.0
C218 C 0.4866 0.77447 0.09322 0.0
C219 C 0.47279 0.78754 0.97052 0.0
C220 C 0.45163 0.803 0.03714 0.0
H221 H 0.46411 0.70312 0.15042 0.0
H222 H 0.51498 0.73362 0.26036 0.0
H223 H 0.48746 0.77124 0.22561 0.0
H224 H 0.50501 0.78594 0.19544 0.0
H225 H 0.51264 0.76922 0.24263 0.0
H226 H 0.52576 0.74034 0.13255 0.0
H227 H 0.53495 0.75337 0.18631 0.0
H228 H 0.52907 0.76541 0.12843 0.0
H229 H 0.4212 0.7084 1.0027 0.0
H230 H 0.41093 0.76131 0.9226 0.0
H231 H 0.43474 0.77751 0.97566 0.0
H232 H 0.46497 0.71095 0.01318 0.0
H233 H 0.45034 0.69461 0.04853 0.0
H234 H 0.47277 0.70461 0.07403 0.0
H235 H 0.4207 0.72761 0.10853 0.0
H236 H 0.44009 0.72324 0.15036 0.0
H237 H 0.43003 0.70409 0.11188 0.0
H238 H 0.47524 0.68662 0.22297 0.0
C239 C 0.4749 0.71039 0.17325 0.0
C240 C 0.32374 0.46839 0.15602 0.0
C241 C 0.33214 0.46162 0.20162 0.0
C242 C 0.32134 0.4486 0.23057 0.0
C243 C 0.29529 0.448 0.16843 0.0
C244 C 0.30525 0.46125 0.13998 0.0
C245 C 0.29352 0.46645 0.09306 0.0
H246 H 0.21239 0.44645 0.94557 0.0
C247 C 0.27725 0.44231 0.14135 0.0
C248 C 0.27615 0.45255 0.09606 0.0
H249 H 0.25183 0.49456 0.92911 0.0
H250 H 0.27218 0.48263 0.99836 0.0
H251 H 0.24567 0.41345 0.98028 0.0
H252 H 0.20461 0.44939 0.03795 0.0
H253 H 0.21045 0.43648 0.09237 0.0
H254 H 0.19992 0.4243 0.03843 0.0
H255 H 0.21985 0.41084 0.97695 0.0
H256 H 0.23392 0.40065 0.02795 0.0
C257 C 0.30539 0.46284 0.0468 0.0
C258 C 0.28762 0.48743 0.09781 0.0
C259 C 0.22549 0.40384 0.22751 0.0
C260 C 0.20704 0.39722 0.21038 0.0
C261 C 0.2038 0.39442 0.15859 0.0
C262 C 0.21717 0.40141 0.12457 0.0
C263 C 0.23397 0.41104 0.14261 0.0
C264 C 0.23876 0.41056 0.1929 0.0
C265 C 0.25817 0.41998 0.20437 0.0
C266 C 0.2626 0.42872 0.15368 0.0
C267 C 0.24813 0.42375 0.11812 0.0
C268 C 0.27238 0.40412 0.22006 0.0
C269 C 0.25595 0.43551 0.24448 0.0
C270 C 0.2256 0.45424 0.95633 0.0
C271 C 0.23068 0.47124 0.93191 0.0
C272 C 0.24772 0.48132 0.94756 0.0
C273 C 0.25931 0.47453 0.98804 0.0
C274 C 0.25338 0.45791 0.01405 0.0
C275 C 0.23668 0.44817 0.99773 0.0
C276 C 0.23103 0.43208 0.03178 0.0
C277 C 0.24676 0.43393 0.07229 0.0
C278 C 0.26029 0.4487 0.06151 0.0
C279 C 0.23254 0.41318 1.00287 0.0
C280 C 0.21051 0.43559 0.05112 0.0
H281 H 0.29595 0.43189 0.23827 0.0
H282 H 0.33148 0.47865 0.1332 0.0
H283 H 0.27469 0.49072 0.07465 0.0
H284 H 0.29962 0.49743 0.08779 0.0
H285 H 0.28379 0.49057 0.13677 0.0
H286 H 0.3111 0.44818 0.04826 0.0
H287 H 0.31782 0.47317 0.04508 0.0
H288 H 0.2967 0.46403 0.01166 0.0
H289 H 0.22894 0.40569 0.26686 0.0
H290 H 0.19026 0.38826 0.14411 0.0
H291 H 0.21349 0.39999 0.0856 0.0
H292 H 0.26651 0.38955 0.21091 0.0
H293 H 0.27574 0.40429 0.2609 0.0
H294 H 0.28604 0.40547 0.19998 0.0
H295 H 0.24306 0.44411 0.23545 0.0
H296 H 0.26828 0.44581 0.24706 0.0
H297 H 0.2542 0.42897 0.28198 0.0
H298 H 0.32689 0.44368 0.26658 0.0
C299 C 0.30322 0.4417 0.21414 0.0
C300 C 0.12036 0.24422 0.24685 0.0
C301 C 0.12495 0.22483 0.24309 0.0
C302 C 0.12469 0.21671 0.19494 0.0
C303 C 0.10786 0.24387 0.1614 0.0
C304 C 0.11115 0.25326 0.20601 0.0
C305 C 0.10131 0.27212 0.20643 0.0
H306 H 0.02141 0.31776 0.16087 0.0
C307 C 0.09285 0.25398 0.1322 0.0
C308 C 0.08917 0.27077 0.15747 0.0
H309 H 0.0751 0.33958 0.22906 0.0
H310 H 0.09185 0.31367 0.19274 0.0
H311 H 0.04793 0.30585 0.05129 0.0
H312 H 0.02677 0.26857 0.16931 0.0
H313 H 0.01932 0.26196 0.10718 0.0
H314 H 0.01047 0.28332 0.13355 0.0
H315 H 0.02266 0.30449 0.06404 0.0
H316 H 0.03357 0.28579 0.03062 0.0
C317 C 0.11711 0.28827 0.20619 0.0
C318 C 0.08861 0.27292 0.25261 0.0
C319 C 0.05806 0.21634 0.99486 0.0
C320 C 0.04008 0.21702 0.96968 0.0
C321 C 0.02761 0.23171 0.98258 0.0
C322 C 0.03341 0.24567 0.01893 0.0
C323 C 0.05174 0.24476 0.04327 0.0
C324 C 0.0634 0.2299 0.03125 0.0
C325 C 0.0813 0.22914 0.06366 0.0
C326 C 0.07965 0.24702 0.09439 0.0
C327 C 0.06229 0.25644 0.08303 0.0
C328 C 0.09894 0.23067 0.02997 0.0
C329 C 0.0801 0.21044 0.09563 0.0
C330 C 0.03665 0.31649 0.16965 0.0
C331 C 0.04674 0.33028 0.20047 0.0
C332 C 0.06683 0.3289 0.20764 0.0
C333 C 0.07652 0.31364 0.18841 0.0
C334 C 0.0661 0.29906 0.16347 0.0
C335 C 0.04698 0.30116 0.14997 0.0
C336 C 0.04054 0.28595 0.11163 0.0
C337 C 0.05862 0.27382 0.10903 0.0
C338 C 0.07291 0.28143 0.14246 0.0
C339 C 0.03583 0.29599 0.06153 0.0
C340 C 0.02326 0.27427 0.13132 0.0
H341 H 0.11594 0.21922 0.11873 0.0
H342 H 0.12185 0.25144 0.28235 0.0
H343 H 0.07818 0.26056 0.25301 0.0
H344 H 0.08035 0.28611 0.25343 0.0
H345 H 0.09755 0.27269 0.28779 0.0
H346 H 0.13176 0.28293 0.21523 0.0
H347 H 0.11475 0.29919 0.23493 0.0
H348 H 0.11777 0.29534 0.16899 0.0
H349 H 0.06771 0.2049 0.98764 0.0
H350 H 0.01349 0.23249 0.96428 0.0
H351 H 0.02339 0.25644 0.02753 0.0
H352 H 0.09664 0.2415 0.99992 0.0
H353 H 0.10146 0.21679 0.01191 0.0
H354 H 0.11228 0.23541 0.05065 0.0
H355 H 0.06602 0.20255 0.09058 0.0
H356 H 0.08136 0.21331 0.13624 0.0
H357 H 0.09127 0.20028 0.08569 0.0
H358 H 0.12877 0.20214 0.18932 0.0
C359 C 0.11653 0.22638 0.1539 0.0
C360 C 0.29597 0.02762 1.00203 0.0
C361 C 0.30932 0.03809 0.97197 0.0
C362 C 0.30942 0.05821 0.97365 0.0
C363 C 0.28725 0.05713 0.04053 0.0
C364 C 0.28439 0.03776 0.03524 0.0
C365 C 0.26721 0.03106 0.06629 0.0
H366 H 0.20068 0.06049 0.23686 0.0
C367 C 0.27513 0.0641 0.07909 0.0
C368 C 0.26195 0.0496 0.09298 0.0
H369 H 0.20227 1.0039 0.17561 0.0
H370 H 0.23033 0.01378 0.12685 0.0
H371 H 0.23688 0.0644 0.2692 0.0
H372 H 0.21109 0.08598 0.13846 0.0
H373 H 0.22735 0.10373 0.16321 0.0
H374 H 0.20924 0.09322 0.20228 0.0
H375 H 0.23616 0.08949 0.26251 0.0
H376 H 0.25737 0.07672 0.24717 0.0
C377 C 0.27375 0.01561 0.10373 0.0
C378 C 0.25078 0.02387 0.03056 0.0
C379 C 0.30475 0.11249 0.19751 0.0
C380 C 0.29771 0.12059 0.24099 0.0
C381 C 0.27755 0.12168 0.24494 0.0
C382 C 0.26497 0.11196 0.21106 0.0
C383 C 0.27267 0.10092 0.17367 0.0
C384 C 0.29198 0.10277 0.16432 0.0
C385 C 0.29717 0.09159 0.11937 0.0
C386 C 0.27799 0.08081 0.10778 0.0
C387 C 0.26424 0.08544 0.14207 0.0
C388 C 0.31347 0.07778 0.13358 0.0
C389 C 0.30329 0.10598 0.07838 0.0
C390 C 0.20665 0.05022 0.21216 0.0
C391 C 0.19879 0.03159 0.20933 0.0
C392 C 0.20781 0.01849 0.17822 0.0
C393 C 0.22397 0.02423 0.14973 0.0
C394 C 0.23146 0.04316 0.15303 0.0
C395 C 0.22287 0.05551 0.18506 0.0
C396 C 0.2334 0.07437 0.18973 0.0
C397 C 0.24907 0.0721 0.15252 0.0
C398 C 0.24811 0.05382 0.13003 0.0
C399 C 0.24139 0.07648 0.24466 0.0
C400 C 0.21956 0.09027 0.17281 0.0
H401 H 0.29709 0.0829 1.00372 0.0
H402 H 0.29445 0.01224 0.99911 0.0
H403 H 0.24742 0.03491 1.00175 0.0
H404 H 0.2374 0.02062 0.0503 0.0
H405 H 0.25495 0.01073 0.01119 0.0
H406 H 0.28635 0.02095 0.12692 0.0
H407 H 0.278 1.00262 0.08385 0.0
H408 H 0.26219 0.01146 0.12929 0.0
H409 H 0.32003 0.11191 0.19178 0.0
H410 H 0.27155 0.12879 0.27626 0.0
H411 H 0.24979 0.11262 0.21633 0.0
H412 H 0.3092 0.06817 0.16479 0.0
H413 H 0.32695 0.08573 0.14511 0.0
H414 H 0.31699 0.06879 0.10155 0.0
H415 H 0.31009 0.11922 0.09461 0.0
H416 H 0.2907 0.11028 0.05456 0.0
H417 H 0.3145 0.10016 0.05489 0.0
H418 H 0.31845 0.06672 0.94936 0.0
C419 C 0.29805 0.06767 1.00667 0.0
C420 C 0.51867 0.2955 1.00741 0.0
C421 C 0.52833 0.31122 0.98448 0.0
C422 C 0.54706 0.31647 1.00186 0.0
C423 C 0.54645 0.2913 0.06411 0.0
C424 C 0.52822 0.28549 0.04691 0.0
C425 C 0.52115 0.26789 0.07547 0.0
H426 H 0.543 0.20067 0.25685 0.0
C427 C 0.55264 0.2786 0.10542 0.0
C428 C 0.53818 0.26436 0.11212 0.0
H429 H 0.48949 0.20321 0.17078 0.0
H430 H 0.50154 0.2318 0.12712 0.0
H431 H 0.57246 0.21225 0.17027 0.0
H432 H 0.54381 0.24157 0.28421 0.0
H433 H 0.56496 0.25529 0.27652 0.0
H434 H 0.56649 0.23073 0.29687 0.0
H435 H 0.57806 0.21002 0.23595 0.0
H436 H 0.58955 0.22824 0.19847 0.0
C437 C 0.51777 0.25131 0.03843 0.0
C438 C 0.50288 0.27298 0.10281 0.0
C439 C 0.61185 0.29806 0.21111 0.0
C440 C 0.61988 0.29059 0.25582 0.0
C441 C 0.6142 0.27201 0.27092 0.0
C442 C 0.59951 0.26181 0.24448 0.0
C443 C 0.59022 0.27036 0.20284 0.0
C444 C 0.597 0.28781 0.18558 0.0
C445 C 0.58536 0.2948 0.14109 0.0
C446 C 0.5695 0.27936 0.13704 0.0
C447 C 0.57246 0.26516 0.17319 0.0
C448 C 0.59847 0.29499 0.09534 0.0
C449 C 0.57735 0.31452 0.15413 0.0
C450 C 0.53394 0.20715 0.22801 0.0
C451 C 0.5155 0.19948 0.21653 0.0
C452 C 0.50387 0.2088 0.18 0.0
C453 C 0.5109 0.22532 0.1547 0.0
C454 C 0.52959 0.23278 0.16682 0.0
C455 C 0.54051 0.22365 0.2036 0.0
C456 C 0.55918 0.23394 0.21606 0.0
C457 C 0.55836 0.25038 0.17935 0.0
C458 C 0.5411 0.24988 0.14975 0.0
C459 C 0.57579 0.22047 0.20505 0.0
C460 C 0.55878 0.24068 0.2712 0.0
H461 H 0.57022 0.31175 0.05248 0.0
H462 H 0.50429 0.29104 0.99451 0.0
H463 H 0.50516 0.28677 0.12273 0.0
H464 H 0.499 0.26225 0.13136 0.0
H465 H 0.49043 0.27442 0.07595 0.0
H466 H 0.53052 0.24988 0.01498 0.0
H467 H 0.50503 0.25387 0.01322 0.0
H468 H 0.51552 0.23744 0.05742 0.0
H469 H 0.6158 0.31232 0.19851 0.0
H470 H 0.6204 0.26579 0.30475 0.0
H471 H 0.59538 0.24803 0.25893 0.0
H472 H 0.61114 0.2858 0.10144 0.0
H473 H 0.6041 0.30963 0.08701 0.0
H474 H 0.59088 0.2891 0.06147 0.0
H475 H 0.57231 0.31447 0.19307 0.0
H476 H 0.56472 0.31849 0.13065 0.0
H477 H 0.58861 0.32603 0.15106 0.0
H478 H 0.55473 0.32851 0.98529 0.0
C479 C 0.55609 0.30668 0.04112 0.0
Eu480 Eu 0.99951 0.01748 0.58661 0.0
Eu481 Eu 0.02785 0.9999 0.67226 0.0
C482 C 0.02081 0.04471 0.67103 0.0
C483 C 0.98739 0.05405 0.49292 0.0
C484 C 0.99188 0.07039 0.52176 0.0
C485 C 1.00456 0.06859 0.42422 0.0
C486 C 1.00321 0.08532 0.50266 0.0
C487 C 0.99311 0.05369 0.44323 0.0
C488 C 0.01031 0.08419 0.45445 0.0
C489 C 0.98077 0.03613 0.51714 0.0
O490 O 0.99907 1.0047 0.70736 0.0
O491 O 0.97844 1.00305 0.63931 0.0
C492 C 0.98147 1.00275 0.68807 0.0
O493 O 1.00036 0.98686 0.56159 0.0
O494 O 0.04456 1.00319 0.74275 0.0
O495 O 0.04062 0.97533 0.70992 0.0
O496 O 0.01727 0.97372 0.62791 0.0
C497 C 0.00798 0.97207 0.58431 0.0
O498 O 0.03013 0.02361 0.56046 0.0
O499 O 0.04805 1.00282 0.60815 0.0
O500 O 0.03411 0.03185 0.67678 0.0
O501 O 0.99105 0.02138 0.50809 0.0
O502 O 0.97683 0.03709 0.56425 0.0
O503 O 1.00502 0.04083 0.64412 0.0
C504 C 0.03394 0.97763 0.79408 0.0
C505 C 0.03483 0.95824 0.80717 0.0
C506 C 1.00424 0.97965 0.83877 0.0
C507 C 0.01998 0.9494 0.83352 0.0
C508 C 0.01908 0.98849 0.81266 0.0
C509 C 1.00403 0.95984 0.84706 0.0
C510 C 0.04454 0.98481 0.75077 0.0
C511 C 0.0461 0.01417 0.56903 0.0
H512 H 0.98782 0.07114 0.5603 0.0
H513 H 0.00955 0.06754 0.38656 0.0
H514 H 0.00744 0.09713 0.5269 0.0
H515 H 0.98988 0.04126 0.42025 0.0
H516 H 0.046 0.94955 0.79288 0.0
H517 H 0.99231 0.9881 0.84969 0.0
H518 H 0.02021 0.93409 0.83937 0.0
H519 H 0.01793 1.00348 0.80325 0.0
Eu520 Eu 0.52489 0.02515 0.66625 0.0
Eu521 Eu 0.50067 0.99784 0.58785 0.0
C522 C 0.52207 0.9798 0.68522 0.0
C523 C 0.56604 0.03463 0.74965 0.0
C524 C 0.56806 0.0288 0.79978 0.0
C525 C 0.59251 0.0145 0.7294 0.0
C526 C 0.58151 0.01516 0.81402 0.0
C527 C 0.57913 0.02812 0.71521 0.0
C528 C 0.59315 0.00719 0.77829 0.0
C529 C 0.54762 0.04247 0.73118 0.0
O530 O 0.4776 0.01223 0.63093 0.0
O531 O 0.49558 0.02085 0.70073 0.0
C532 C 0.47871 0.0174 0.67807 0.0
O533 O 0.50942 0.04666 0.61713 0.0
O534 O 0.47855 0.97569 0.57178 0.0
O535 O 0.49368 0.989 0.51119 0.0
O536 O 0.50292 0.02687 0.5506 0.0
C537 C 0.50441 0.04408 0.56979 0.0
O538 O 0.54519 0.02021 0.60321 0.0
O539 O 0.53186 0.9927 0.56958 0.0
O540 O 0.50684 0.97883 0.65478 0.0
O541 O 0.54656 0.04761 0.68424 0.0
O542 O 0.53249 0.0323 0.74369 0.0
O543 O 0.53356 0.99502 0.68579 0.0
C544 C 0.45991 0.98626 0.50173 0.0
C545 C 0.45954 0.99438 0.45359 0.0
C546 C 0.42889 1.00003 0.51598 0.0
C547 C 0.44447 0.00601 0.43782 0.0
C548 C 0.44393 0.98843 0.53175 0.0
C549 C 0.42945 0.00964 0.46984 0.0
C550 C 0.47826 0.97936 0.52397 0.0
C551 C 0.54627 0.00535 0.57381 0.0
H552 H 0.55804 0.03345 0.8269 0.0
H553 H 0.60163 0.0089 0.70139 0.0
H554 H 0.58173 0.0098 0.85205 0.0
H555 H 0.57802 0.03228 0.67624 0.0
H556 H 0.47162 0.99293 0.42959 0.0
H557 H 0.41724 1.00217 0.5409 0.0
H558 H 0.44529 0.01318 0.40197 0.0
H559 H 0.44359 0.98224 0.56888 0.0
Eu560 Eu 0.49424 0.51987 0.66281 0.0
Eu561 Eu 0.53034 0.50667 0.59686 0.0
C562 C 0.53694 0.52193 0.70702 0.0
C563 C 0.45102 0.54613 0.70876 0.0
C564 C 0.45524 0.56361 0.6851 0.0
C565 C 0.41948 0.55741 0.7281 0.0
C566 C 0.4419 0.57813 0.68437 0.0
C567 C 0.43292 0.54295 0.72917 0.0
C568 C 0.42401 0.57537 0.70686 0.0
C569 C 0.46553 0.53136 0.71377 0.0
O570 O 0.52444 0.48082 0.6463 0.0
O571 O 0.49488 0.48799 0.67631 0.0
C572 C 0.509 0.47611 0.67138 0.0
O573 O 0.48192 0.51565 0.58458 0.0
O574 O 0.56132 0.50231 0.59707 0.0
O575 O 0.54425 0.4993 0.52824 0.0
O576 O 0.50387 0.49534 0.55358 0.0
C577 C 0.48698 0.5034 0.55099 0.0
O578 O 0.50607 0.54737 0.62768 0.0
O579 O 0.52145 0.53461 0.56198 0.0
O580 O 0.54151 0.52539 0.66072 0.0
O581 O 0.46394 0.51745 0.68172 0.0
O582 O 0.48336 0.53738 0.72155 0.0
O583 O 0.51956 0.51548 0.71629 0.0
C584 C 0.57242 0.48109 0.5377 0.0
C585 C 0.56346 0.46346 0.52532 0.0
C586 C 0.60365 0.46771 0.52474 0.0
C587 C 0.57455 0.44812 0.51195 0.0
C588 C 0.59256 0.48304 0.53783 0.0
C589 C 0.59478 0.45012 0.51108 0.0
C590 C 0.56121 0.49772 0.55013 0.0
C591 C 0.5139 0.54917 0.58379 0.0
H592 H 0.46908 0.56628 0.66861 0.0
H593 H 0.40575 0.5547 0.74505 0.0
H594 H 0.44605 0.59181 0.6683 0.0
H595 H 0.42934 0.52943 0.74702 0.0
H596 H 0.54792 0.46163 0.52529 0.0
H597 H 0.61918 0.46965 0.5252 0.0
H598 H 0.56722 0.43486 0.50101 0.0
H599 H 0.59971 0.49653 0.54769 0.0
Eu600 Eu 0.02401 0.52432 0.58395 0.0
Eu601 Eu 1.00606 0.49491 0.66587 0.0
C602 C 0.05177 0.50088 0.6621 0.0
C603 C 0.05933 0.53973 0.49352 0.0
C604 C 0.07484 0.53294 0.52303 0.0
C605 C 0.07306 0.52587 0.42063 0.0
C606 C 0.08864 0.52177 0.50213 0.0
C607 C 0.05909 0.53693 0.44175 0.0
C608 C 0.08738 0.51731 0.45107 0.0
C609 C 0.04151 0.54496 0.51758 0.0
O610 O 0.01305 0.52287 0.70596 0.0
O611 O 0.011 0.54377 0.64033 0.0
C612 C 0.01119 0.54036 0.68869 0.0
O613 O 0.99284 0.52032 0.55886 0.0
O614 O 1.00536 0.48429 0.74265 0.0
O615 O 0.98468 0.47317 0.68736 0.0
O616 O 0.98058 0.51079 0.63335 0.0
C617 C 0.9781 0.5168 0.5871 0.0
O618 O 0.03001 0.49483 0.55461 0.0
O619 O 0.00772 0.47673 0.59649 0.0
O620 O 0.03767 0.4884 0.66981 0.0
O621 O 0.02671 0.53368 0.50662 0.0
O622 O 0.043 0.54861 0.5653 0.0
O623 O 0.0488 0.51681 0.63708 0.0
C624 C 0.9729 0.48269 0.7648 0.0
C625 C 0.95487 0.48634 0.74166 0.0
C626 C 0.96431 0.50188 0.83537 0.0
C627 C 0.94222 0.49849 0.76382 0.0
C628 C 0.97703 0.48973 0.81309 0.0
C629 C 0.9472 0.50711 0.80985 0.0
C630 C 0.98866 0.4756 0.73492 0.0
C631 C 0.0197 0.47891 0.55978 0.0
H632 H 0.07546 0.53487 0.56305 0.0
H633 H 0.07198 0.52316 0.38089 0.0
H634 H 0.09937 0.51543 0.52693 0.0
H635 H 0.04726 0.54199 0.41823 0.0
H636 H 0.95109 0.48107 0.70459 0.0
H637 H 0.96833 0.5079 0.8715 0.0
H638 H 0.92919 0.50219 0.74297 0.0
H639 H 0.99074 0.48704 0.83203 0.0
H640 H 0.16556 0.05119 0.21672 0.0
H641 H 0.13996 0.04639 0.27627 0.0
H642 H 0.16754 0.99613 0.33395 0.0
H643 H 0.1934 1.00098 0.27417 0.0
H644 H 0.11349 0.01606 0.29445 0.0
H645 H 0.16243 0.02856 0.4602 0.0
H646 H 0.16942 0.03444 0.39759 0.0
H647 H 0.16928 0.01007 0.41891 0.0
C648 C 0.16612 0.03896 0.24168 0.0
C649 C 0.18168 0.02651 0.24048 0.0
C650 C 0.15141 0.03624 0.2759 0.0
C651 C 0.15183 0.02111 0.31067 0.0
C652 C 0.16694 0.00816 0.30836 0.0
H653 H 0.07942 0.99379 0.56683 0.0
H654 H 0.10433 0.99509 0.50455 0.0
C655 C 0.18164 0.01078 0.27362 0.0
C656 C 0.13664 0.01931 0.3495 0.0
H657 H 0.12987 0.02106 0.47556 0.0
C658 C 0.11711 0.01713 0.33405 0.0
C659 C 0.14115 0.02068 0.40144 0.0
C660 C 0.16167 0.02372 0.42079 0.0
C661 C 0.10218 0.01603 0.36862 0.0
C662 C 0.10664 0.01777 0.42062 0.0
C663 C 0.12621 0.01978 0.43603 0.0
C664 C 0.09134 0.01737 0.45949 0.0
C665 C 0.08178 0.0125 0.34882 0.0
C666 C 0.07567 0.02973 0.45642 0.0
C667 C 0.06124 0.02892 0.49208 0.0
C668 C 0.06212 0.01595 0.53259 0.0
C669 C 0.07812 1.00401 0.53646 0.0
C670 C 0.09246 1.00473 0.50059 0.0
H671 H 0.08143 0.00555 0.31168 0.0
H672 H 0.0734 1.00333 0.37472 0.0
H673 H 0.07458 0.02636 0.34433 0.0
H674 H 0.07456 0.0401 0.42636 0.0
H675 H 0.04931 0.03847 0.48768 0.0
H676 H 0.53272 0.16524 0.22173 0.0
H677 H 0.52684 0.13909 0.28075 0.0
H678 H 0.47898 0.16893 0.33758 0.0
H679 H 0.48464 0.19502 0.27733 0.0
H680 H 0.53031 0.14223 0.37971 0.0
H681 H 0.4563 0.11511 0.32988 0.0
H682 H 0.46985 0.1306 0.28898 0.0
H683 H 0.45808 0.14034 0.34125 0.0
C684 C 0.52057 0.16595 0.24579 0.0
C685 C 0.50902 0.18209 0.24452 0.0
C686 C 0.5173 0.15105 0.27984 0.0
C687 C 0.50243 0.15188 0.31384 0.0
C688 C 0.49032 0.16766 0.31128 0.0
H689 H 0.50929 0.08253 0.59069 0.0
H690 H 0.5073 0.10946 0.53183 0.0
C691 C 0.49352 0.18258 0.27673 0.0
C692 C 0.50088 0.13701 0.3542 0.0
H693 H 0.47085 0.10289 0.40454 0.0
C694 C 0.51727 0.13366 0.38509 0.0
C695 C 0.48394 0.12569 0.36136 0.0
C696 C 0.46608 0.12794 0.32838 0.0
C697 C 0.5173 0.11932 0.42221 0.0
C698 C 0.5003 0.10815 0.42987 0.0
C699 C 0.48384 0.11154 0.39923 0.0
C700 C 0.49977 0.09209 0.46716 0.0
C701 C 0.53582 0.11583 0.45163 0.0
C702 C 0.49537 0.07336 0.45121 0.0
C703 C 0.49631 0.05797 0.48485 0.0
C704 C 0.50165 0.06084 0.53558 0.0
C705 C 0.50527 0.0797 0.55197 0.0
C706 C 0.50427 0.09514 0.51819 0.0
H707 H 0.54854 0.12221 0.43298 0.0
H708 H 0.53515 0.12244 0.48896 0.0
H709 H 0.53803 0.1003 0.45698 0.0
H710 H 0.49175 0.07056 0.41225 0.0
H711 H 0.49326 0.04372 0.47066 0.0
H712 H 0.34986 0.49762 0.20194 0.0
H713 H 0.38016 0.50735 0.24626 0.0
H714 H 0.38814 0.44896 0.29315 0.0
H715 H 0.35922 0.43911 0.24599 0.0
H716 H 0.38849 0.50794 0.33821 0.0
H717 H 0.44148 0.46058 0.26334 0.0
H718 H 0.41791 0.46278 0.23382 0.0
H719 H 0.42188 0.44579 0.28405 0.0
C720 C 0.35849 0.4868 0.22021 0.0
C721 C 0.35192 0.46761 0.22078 0.0
C722 C 0.37574 0.49239 0.24605 0.0
C723 C 0.38678 0.47891 0.27295 0.0
C724 C 0.38047 0.45968 0.27178 0.0
H725 H 0.44796 0.49986 0.55291 0.0
H726 H 0.42498 0.49491 0.48279 0.0
C727 C 0.36358 0.45408 0.24535 0.0
C728 C 0.40366 0.48486 0.3064 0.0
H729 H 0.44767 0.47014 0.35036 0.0
C730 C 0.40158 0.49988 0.34005 0.0
C731 C 0.42116 0.47488 0.30851 0.0
C732 C 0.42578 0.46029 0.26998 0.0
C733 C 0.41581 0.50437 0.37723 0.0
C734 C 0.43225 0.49288 0.38302 0.0
C735 C 0.4349 0.47867 0.3474 0.0
C736 C 0.44651 0.49502 0.42623 0.0
C737 C 0.41302 0.52159 0.40936 0.0
C738 C 0.46651 0.49537 0.41897 0.0
C739 C 0.47976 0.49733 0.45963 0.0
C740 C 0.47329 0.49934 0.50831 0.0
C741 C 0.45337 0.4986 0.51572 0.0
C742 C 0.44018 0.49605 0.47539 0.0
H743 H 0.40476 0.53261 0.38847 0.0
H744 H 0.40454 0.51724 0.44208 0.0
H745 H 0.42699 0.52817 0.42273 0.0
H746 H 0.47192 0.49443 0.38172 0.0
H747 H 0.49504 0.49795 0.4528 0.0
H748 H 0.01934 0.32791 0.27185 0.0
H749 H 0.01127 0.35318 0.33021 0.0
H750 H 0.04703 0.39346 0.25034 0.0
H751 H 0.05474 0.36847 0.19197 0.0
H752 H 0.03651 0.37198 0.3933 0.0
H753 H 1.00157 0.42588 0.27184 0.0
H754 H 1.00502 0.40179 0.25137 0.0
H755 H 0.02442 0.4194 0.24926 0.0
C756 C 0.02479 0.34236 0.26555 0.0
C757 C 0.03741 0.34621 0.22661 0.0
C758 C 0.0204 0.35678 0.29939 0.0
C759 C 0.02837 0.37545 0.29484 0.0
C760 C 0.04026 0.37944 0.25446 0.0
H761 H 0.04148 0.47864 0.47578 0.0
H762 H 0.04318 0.45341 0.41349 0.0
C763 C 0.04466 0.36508 0.22088 0.0
C764 C 0.0258 0.39027 0.33432 0.0
H765 H 0.01363 0.43677 0.35194 0.0
C766 C 0.03126 0.38605 0.38422 0.0
C767 C 0.0191 0.40881 0.32299 0.0
C768 C 0.01201 0.4142 0.27104 0.0
C769 C 0.03075 0.39984 0.42233 0.0
C770 C 0.02433 0.41844 0.41082 0.0
C771 C 0.01867 0.42262 0.36107 0.0
C772 C 0.02344 0.43375 0.4497 0.0
C773 C 0.03774 0.39452 0.47441 0.0
C774 C 0.01172 0.43135 0.49114 0.0
C775 C 0.0107 0.44581 0.52701 0.0
C776 C 0.02135 0.46316 0.52251 0.0
C777 C 0.0331 0.46552 0.48094 0.0
C778 C 0.03405 0.45107 0.445 0.0
H779 H 0.04668 0.38164 0.47462 0.0
H780 H 0.04635 0.40646 0.49196 0.0
H781 H 0.02514 0.39137 0.49767 0.0
H782 H 1.00308 0.41835 0.49545 0.0
H783 H 1.00138 0.44341 0.55811 0.0
H784 H 0.82759 0.01312 0.96388 0.0
H785 H 0.85556 0.02014 0.9121 0.0
H786 H 0.88154 0.96828 0.965 0.0
H787 H 0.85422 0.96182 0.01785 0.0
H788 H 0.90879 0.99307 0.95387 0.0
H789 H 0.86302 0.99639 0.78071 0.0
H790 H 0.85783 0.01447 0.82479 0.0
H791 H 0.85339 0.98967 0.84005 0.0
C792 C 0.83961 1.00362 0.96576 0.0
C793 C 0.83868 0.987 0.99559 0.0
C794 C 0.85547 0.00738 0.93512 0.0
C795 C 0.87064 0.99444 0.93282 0.0
C796 C 0.87018 0.97852 0.96518 0.0
H797 H 0.9462 0.98328 0.67769 0.0
H798 H 0.9203 0.98118 0.73776 0.0
C799 C 0.85452 0.97488 0.99591 0.0
C800 C 0.88677 0.99686 0.89642 0.0
H801 H 0.89634 1.0027 0.77237 0.0
C802 C 0.90598 0.99516 0.91416 0.0
C803 C 0.88344 0.99926 0.84413 0.0
C804 C 0.86332 0.99987 0.82111 0.0
C805 C 0.92168 0.9957 0.88194 0.0
C806 C 0.91844 0.99869 0.82967 0.0
C807 C 0.89919 1.00046 0.81199 0.0
C808 C 0.93455 0.99983 0.79274 0.0
C809 C 0.94144 0.9924 0.90503 0.0
C810 C 0.95141 0.01114 0.80219 0.0
C811 C 0.9665 0.01177 0.76856 0.0
C812 C 0.965 1.00184 0.723 0.0
C813 C 0.9479 0.99114 0.71229 0.0
C814 C 0.93301 0.98998 0.74684 0.0
H815 H 0.94061 0.9829 0.93835 0.0
H816 H 0.95109 0.98591 0.87848 0.0
H817 H 0.94799 0.00627 0.9176 0.0
H818 H 0.95298 0.01964 0.83569 0.0
H819 H 0.97931 0.02041 0.77793 0.0
H820 H 0.4915 0.86114 0.02847 0.0
H821 H 0.49938 0.88746 0.97162 0.0
H822 H 0.55404 0.86261 0.94497 0.0
H823 H 0.54599 0.83592 1.00162 0.0
H824 H 0.52875 0.91494 0.96473 0.0
H825 H 0.52867 0.86488 0.80481 0.0
H826 H 0.52003 0.85777 0.86503 0.0
H827 H 0.54547 0.86 0.85556 0.0
C828 C 0.50538 0.86147 0.01129 0.0
C829 C 0.51808 0.84638 0.01944 0.0
C830 C 0.50987 0.87654 0.97867 0.0
C831 C 0.52713 0.8769 0.95297 0.0
C832 C 0.54045 0.8625 0.9635 0.0
H833 H 0.55193 0.97654 0.75535 0.0
H834 H 0.55599 0.95168 0.81952 0.0
C835 C 0.53597 0.84738 0.99645 0.0
C836 C 0.53032 0.89171 0.91322 0.0
H837 H 0.53312 0.89754 0.78666 0.0
C838 C 0.52996 0.91114 0.92587 0.0
C839 C 0.53164 0.88681 0.86227 0.0
C840 C 0.53133 0.86626 0.84576 0.0
C841 C 0.53046 0.92569 0.88916 0.0
C842 C 0.53157 0.92077 0.83816 0.0
C843 C 0.53239 0.90137 0.82565 0.0
C844 C 0.5302 0.93535 0.79705 0.0
C845 C 0.52887 0.94616 0.90515 0.0
C846 C 0.51482 0.93416 0.76152 0.0
C847 C 0.51256 0.94824 0.72446 0.0
C848 C 0.52566 0.96392 0.72174 0.0
C849 C 0.54147 0.96477 0.75632 0.0
C850 C 0.54374 0.95061 0.7934 0.0
H851 H 0.52407 0.94723 0.94407 0.0
H852 H 0.54319 0.95354 0.90315 0.0
H853 H 0.5186 0.95382 0.88001 0.0
H854 H 0.50421 0.92253 0.76323 0.0
H855 H 0.50023 0.94702 0.69863 0.0
H856 H 0.67531 0.51427 0.05234 0.0
H857 H 0.6468 0.50735 0.99759 0.0
H858 H 0.6391 0.56773 0.97565 0.0
H859 H 0.66694 0.57465 0.03132 0.0
H860 H 0.60495 0.54927 0.9836 0.0
H861 H 0.64854 0.51196 0.84715 0.0
H862 H 0.64907 0.50162 0.90868 0.0
H863 H 0.65935 0.52517 0.89897 0.0
C864 C 0.66727 0.52603 0.03669 0.0
C865 C 0.67357 0.54501 0.0457 0.0
C866 C 0.65112 0.52207 1.00481 0.0
C867 C 0.64105 0.53701 0.98124 0.0
C868 C 0.64667 0.55592 0.99278 0.0
H869 H 0.57364 0.53743 0.70273 0.0
H870 H 0.598 0.54065 0.77073 0.0
C871 C 0.66268 0.55987 0.02456 0.0
C872 C 0.62515 0.53329 0.94311 0.0
H873 H 0.61529 0.51389 0.82787 0.0
C874 C 0.60718 0.54142 0.94969 0.0
C875 C 0.62811 0.52335 0.89832 0.0
C876 C 0.64734 0.51516 0.88743 0.0
C877 C 0.59222 0.54006 0.91283 0.0
C878 C 0.59509 0.52989 0.86836 0.0
C879 C 0.613 0.52161 0.86197 0.0
C880 C 0.57997 0.52816 0.82732 0.0
C881 C 0.57376 0.55017 0.92118 0.0
C882 C 0.56167 0.51999 0.83612 0.0
C883 C 0.54763 0.51831 0.79734 0.0
C884 C 0.55162 0.52453 0.74859 0.0
C885 C 0.57 0.53256 0.73976 0.0
C886 C 0.584 0.53435 0.77866 0.0
H887 H 0.57582 0.56153 0.94976 0.0
H888 H 0.56803 0.55673 0.88604 0.0
H889 H 0.56279 0.5397 0.93467 0.0
H890 H 0.5583 0.51465 0.87289 0.0
H891 H 0.53373 0.51183 0.80547 0.0
H892 H 0.01901 0.68852 0.99381 0.0
H893 H 0.02695 0.66038 0.94486 0.0
H894 H 0.96717 0.64168 0.94198 0.0
H895 H 0.95959 0.66884 0.99279 0.0
H896 H 0.98667 0.61204 0.94746 0.0
H897 H 0.01903 0.65643 0.79848 0.0
H898 H 0.03177 0.65878 0.85761 0.0
H899 H 0.00741 0.66677 0.85034 0.0
C900 C 0.00772 0.67808 0.9839 0.0
C901 C 0.98862 0.6811 0.99701 0.0
C902 C 0.01217 0.66215 0.95488 0.0
C903 C 0.99757 0.64903 0.93767 0.0
C904 C 0.97879 0.65148 0.95382 0.0
H905 H 0.99869 0.577 0.67148 0.0
H906 H 0.99577 0.60266 0.73229 0.0
C907 C 0.97443 0.66713 0.9831 0.0
C908 C 1.00129 0.63301 0.90212 0.0
H909 H 0.01938 0.62301 0.78813 0.0
C910 C 0.99388 0.61453 0.91269 0.0
C911 C 0.01033 0.63603 0.85588 0.0
C912 C 0.01742 0.65559 0.83954 0.0
C913 C 0.99499 0.59929 0.87883 0.0
C914 C 1.0046 0.60215 0.83337 0.0
C915 C 0.01216 0.62057 0.82288 0.0
C916 C 1.00659 0.5864 0.79589 0.0
C917 C 0.985 0.58053 0.89146 0.0
C918 C 0.01392 0.56859 0.81041 0.0
C919 C 0.01523 0.55377 0.7758 0.0
C920 C 0.00978 0.55639 0.72509 0.0
C921 C 1.00301 0.57438 0.71011 0.0
C922 C 1.00137 0.58913 0.74502 0.0
H923 H 0.97326 0.58251 0.91782 0.0
H924 H 0.97874 0.57342 0.85748 0.0
H925 H 0.99555 0.57093 0.90985 0.0
H926 H 0.01878 0.5661 0.84868 0.0
H927 H 0.02078 0.54026 0.78883 0.0
H928 H 0.10526 0.23012 0.32881 0.0
H929 H 0.09279 0.20502 0.38138 0.0
H930 H 0.12825 0.16439 0.31146 0.0
H931 H 0.14213 0.18985 0.26008 0.0
H932 H 0.07367 0.17736 0.31402 0.0
H933 H 0.12138 0.14353 0.45886 0.0
H934 H 0.12458 0.16829 0.44038 0.0
H935 H 0.13132 0.14974 0.39948 0.0
C936 C 0.1115 0.21623 0.32602 0.0
C937 C 0.1242 0.21202 0.28798 0.0
C938 C 0.10413 0.20176 0.35638 0.0
C939 C 0.10925 0.18283 0.34945 0.0
C940 C 0.12403 0.17895 0.31716 0.0
H941 H 0.04363 0.07743 0.40761 0.0
H942 H 0.06845 0.10084 0.38262 0.0
C943 C 0.13173 0.19355 0.2872 0.0
C944 C 0.09583 0.16739 0.36534 0.0
H945 H 0.09046 0.12904 0.44346 0.0
C946 C 0.07732 0.16683 0.34249 0.0
C947 C 0.10083 0.15353 0.40163 0.0
C948 C 0.12057 0.15371 0.42688 0.0
C949 C 0.0635 0.15293 0.35545 0.0
C950 C 0.06822 0.1394 0.39291 0.0
C951 C 0.0869 0.13959 0.41502 0.0
C952 C 0.05368 0.1252 0.40978 0.0
C953 C 0.044 0.15273 0.32861 0.0
C954 C 0.03725 0.13122 0.43334 0.0
C955 C 0.02297 0.11796 0.44709 0.0
C956 C 0.02493 0.09844 0.43759 0.0
C957 C 0.04153 0.09243 0.4144 0.0
C958 C 0.05583 0.10572 0.40073 0.0
H959 H 0.04432 0.16089 0.2929 0.0
H960 H 0.03881 0.13788 0.32059 0.0
H961 H 0.03345 0.1594 0.35265 0.0
H962 H 0.03544 0.14621 0.4409 0.0
H963 H 0.01036 0.12299 0.46492 0.0
H964 H 0.28964 0.11385 0.33915 0.0
H965 H 0.31285 0.10388 0.40276 0.0
H966 H 0.35927 0.12056 0.30762 0.0
H967 H 0.33617 0.13232 0.2454 0.0
H968 H 0.32992 0.07398 0.37337 0.0
H969 H 0.38691 0.12509 0.43965 0.0
H970 H 0.36447 0.13287 0.4112 0.0
H971 H 0.38411 0.12652 0.37305 0.0
C972 C 0.30475 0.11664 0.33261 0.0
C973 C 0.31096 0.12306 0.28573 0.0
C974 C 0.31809 0.11071 0.36925 0.0
C975 C 0.3378 0.11089 0.35951 0.0
C976 C 0.34417 0.12017 0.31624 0.0
H977 H 0.41097 0.0163 0.37963 0.0
H978 H 0.38871 0.04181 0.35854 0.0
C979 C 0.33083 0.12661 0.28009 0.0
C980 C 0.35052 0.0973 0.38648 0.0
H981 H 0.39625 0.09169 0.43435 0.0
C982 C 0.34424 0.07803 0.38784 0.0
C983 C 0.36925 0.1024 0.40529 0.0
C984 C 0.37646 0.1229 0.40766 0.0
C985 C 0.35642 0.06368 0.40505 0.0
C986 C 0.37557 0.06862 0.42027 0.0
C987 C 0.38162 0.08794 0.42171 0.0
C988 C 0.38961 0.05375 0.43285 0.0
C989 C 0.34879 0.04327 0.40576 0.0
C990 C 0.39769 0.0523 0.48131 0.0
C991 C 0.41043 0.03778 0.4934 0.0
C992 C 0.41537 0.02455 0.45709 0.0
C993 C 0.40743 0.02625 0.40836 0.0
C994 C 0.39467 0.04075 0.39635 0.0
H995 H 0.3328 0.0425 0.40645 0.0
H996 H 0.35312 0.03597 0.37153 0.0
H997 H 0.35474 0.03537 0.43865 0.0
H998 H 0.394 0.06228 0.50985 0.0
H999 H 0.41665 0.03711 0.53101 0.0
H1000 H 0.64838 0.3172 0.23445 0.0
H1001 H 0.65821 0.3447 0.28618 0.0
H1002 H 0.62502 0.32133 0.40642 0.0
H1003 H 0.61536 0.29403 0.35556 0.0
H1004 H 0.63035 0.36729 0.30889 0.0
H1005 H 0.66772 0.34759 0.48555 0.0
H1006 H 0.66647 0.33195 0.43218 0.0
H1007 H 0.64705 0.33204 0.47503 0.0
C1008 C 0.64381 0.31761 0.27262 0.0
C1009 C 0.63089 0.30357 0.29066 0.0
C1010 C 0.6495 0.33328 0.30221 0.0
C1011 C 0.64239 0.33511 0.35028 0.0
C1012 C 0.63111 0.32011 0.37001 0.0
H1013 H 0.58996 0.41187 0.53107 0.0
H1014 H 0.60657 0.38557 0.49371 0.0
C1015 C 0.6255 0.30443 0.34062 0.0
C1016 C 0.64272 0.354 0.37488 0.0
H1017 H 0.64621 0.37483 0.48968 0.0
C1018 C 0.63442 0.36916 0.34804 0.0
C1019 C 0.6479 0.35641 0.42602 0.0
C1020 C 0.65796 0.34114 0.4561 0.0
C1021 C 0.62962 0.386 0.37179 0.0
C1022 C 0.63358 0.38787 0.42368 0.0
C1023 C 0.64309 0.37328 0.44994 0.0
C1024 C 0.62588 0.40384 0.45179 0.0
C1025 C 0.61902 0.40101 0.34184 0.0
C1026 C 0.63162 0.42279 0.44163 0.0
C1027 C 0.62193 0.43786 0.4622 0.0
C1028 C 0.60644 0.4342 0.49369 0.0
C1029 C 0.60154 0.41517 0.50613 0.0
C1030 C 0.61117 0.40013 0.48532 0.0
H1031 H 0.61422 0.39587 0.30415 0.0
H1032 H 0.60618 0.40554 0.36164 0.0
H1033 H 0.62868 0.41374 0.337 0.0
H1034 H 0.64309 0.42593 0.41623 0.0
H1035 H 0.62603 0.45232 0.45161 0.0
H1036 H 0.16998 0.40708 0.18594 0.0
H1037 H 0.14733 0.41974 0.24227 0.0
H1038 H 0.18371 0.40384 0.3684 0.0
H1039 H 0.20631 0.38985 0.31224 0.0
H1040 H 0.13141 0.40734 0.35873 0.0
H1041 H 0.18446 0.46724 0.32634 0.0
H1042 H 0.17962 0.44961 0.27852 0.0
H1043 H 0.19223 0.44308 0.33534 0.0
C1044 C 0.17287 0.40512 0.22555 0.0
C1045 C 0.19049 0.39793 0.2442 0.0
C1046 C 0.15979 0.41252 0.25783 0.0
C1047 C 0.16409 0.413 0.30917 0.0
C1048 C 0.18028 0.40365 0.32865 0.0
H1049 H 0.12523 0.51005 0.47579 0.0
H1050 H 0.14369 0.48299 0.45003 0.0
C1051 C 0.19329 0.39589 0.29634 0.0
C1052 C 0.15436 0.42701 0.33935 0.0
H1053 H 0.15579 0.47469 0.36366 0.0
C1054 C 0.13681 0.42201 0.36076 0.0
C1055 C 0.1616 0.44606 0.34189 0.0
C1056 C 0.18052 0.45198 0.31945 0.0
C1057 C 0.12598 0.43586 0.38373 0.0
C1058 C 0.13266 0.45521 0.38348 0.0
C1059 C 0.15062 0.45992 0.36371 0.0
C1060 C 0.121 0.47101 0.40115 0.0
C1061 C 0.10753 0.4296 0.40787 0.0
C1062 C 0.10225 0.47354 0.38149 0.0
C1063 C 0.09152 0.48881 0.39684 0.0
C1064 C 0.09949 0.50216 0.43134 0.0
C1065 C 0.11852 0.49992 0.44975 0.0
C1066 C 0.12912 0.48446 0.43496 0.0
H1067 H 0.1081 0.4145 0.42079 0.0
H1068 H 0.10454 0.43871 0.44022 0.0
H1069 H 0.09535 0.43055 0.38006 0.0
H1070 H 0.09588 0.46376 0.35404 0.0
H1071 H 0.07682 0.48985 0.38244 0.0
H1072 H 0.92451 0.81963 0.92576 0.0
H1073 H 0.92795 0.85067 0.88677 0.0
H1074 H 0.88007 0.87066 0.96772 0.0
H1075 H 0.87666 0.83927 1.00817 0.0
H1076 H 0.90973 0.87866 0.83566 0.0
H1077 H 0.92473 0.90011 0.03378 0.0
H1078 H 0.92037 0.87549 0.01696 0.0
H1079 H 0.90076 0.89166 0.01661 0.0
C1080 C 0.91404 0.83022 0.9338 0.0
C1081 C 0.90065 0.82708 0.9713 0.0
C1082 C 0.91611 0.84813 0.91145 0.0
C1083 C 0.90477 0.86322 0.92584 0.0
C1084 C 0.88942 0.85937 0.95742 0.0
H1085 H 0.96699 0.96581 0.81464 0.0
H1086 H 0.93798 0.94717 0.8353 0.0
C1087 C 0.88743 0.8414 0.98029 0.0
C1088 C 0.91175 0.88299 0.91502 0.0
H1089 H 0.93752 0.91949 0.97206 0.0
C1090 C 0.91535 0.88794 0.86531 0.0
C1091 C 0.91911 0.89502 0.95398 0.0
C1092 C 0.91619 0.89037 1.00837 0.0
C1093 C 0.92776 0.90342 0.85373 0.0
C1094 C 0.93628 0.91453 0.89302 0.0
C1095 C 0.93104 0.91081 0.94222 0.0
C1096 C 0.953 0.92769 0.88509 0.0
C1097 C 0.933 0.90662 0.80007 0.0
C1098 C 0.97089 0.92355 0.90823 0.0
C1099 C 0.98738 0.93448 0.89761 0.0
C1100 C 0.98629 0.94975 0.86354 0.0
C1101 C 0.96823 0.95429 0.84168 0.0
C1102 C 0.95168 0.94349 0.85284 0.0
H1103 H 0.92736 0.89491 0.77536 0.0
H1104 H 0.92683 0.92017 0.78615 0.0
H1105 H 0.94888 0.90781 0.797 0.0
H1106 H 0.97223 0.91142 0.93333 0.0
H1107 H 1.00105 0.93071 0.91513 0.0
H1108 H 0.71082 0.8779 0.92499 0.0
H1109 H 0.6873 0.88652 0.85898 0.0
H1110 H 0.64925 0.90599 0.96995 0.0
H1111 H 0.67227 0.89782 0.03527 0.0
H1112 H 0.6295 0.89522 0.88167 0.0
H1113 H 0.69229 0.94489 0.84879 0.0
H1114 H 0.69544 0.91984 0.83935 0.0
H1115 H 0.69219 0.92864 0.90118 0.0
C1116 C 0.69715 0.8834 0.93545 0.0
C1117 C 0.69394 0.88798 0.98551 0.0
C1118 C 0.6837 0.88826 0.89761 0.0
C1119 C 0.66694 0.89764 0.90961 0.0
C1120 C 0.66224 0.89901 0.95977 0.0
H1121 H 0.6164 1.00089 0.86087 0.0
H1122 H 0.63378 0.97186 0.88227 0.0
C1123 C 0.67558 0.89421 0.99743 0.0
C1124 C 0.65677 0.91008 0.87301 0.0
H1125 H 0.66218 0.95423 0.81941 0.0
C1126 C 0.63667 0.90785 0.86656 0.0
C1127 C 0.6662 0.92672 0.8541 0.0
C1128 C 0.68768 0.93034 0.86124 0.0
C1129 C 0.62561 0.92242 0.84486 0.0
C1130 C 0.63501 0.93946 0.82899 0.0
C1131 C 0.65514 0.94109 0.83191 0.0
C1132 C 0.62426 0.9567 0.81533 0.0
C1133 C 0.60393 0.92017 0.84247 0.0
C1134 C 0.61334 0.95773 0.77049 0.0
C1135 C 0.60346 0.97429 0.75818 0.0
C1136 C 0.6044 0.99006 0.79054 0.0
C1137 C 0.61541 0.98896 0.83537 0.0
C1138 C 0.62533 0.97244 0.84751 0.0
H1139 H 0.59879 0.90665 0.8602 0.0
H1140 H 0.59743 0.93235 0.86129 0.0
H1141 H 0.59865 0.92028 0.80289 0.0
H1142 H 0.61248 0.94576 0.74509 0.0
H1143 H 0.5948 0.97463 0.72376 0.0
H1144 H 0.3915 0.70079 0.96841 0.0
H1145 H 0.38228 0.67804 0.90311 0.0
H1146 H 0.3998 0.71887 0.79112 0.0
H1147 H 0.41106 0.74092 0.85606 0.0
H1148 H 0.36108 0.67275 0.8186 0.0
H1149 H 0.43883 0.67911 0.77456 0.0
H1150 H 0.4293 0.69101 0.827 0.0
H1151 H 0.4256 0.70047 0.76481 0.0
C1152 C 0.39344 0.70501 0.92994 0.0
C1153 C 0.40297 0.72239 0.91797 0.0
C1154 C 0.38782 0.69206 0.89249 0.0
C1155 C 0.39113 0.69645 0.84231 0.0
C1156 C 0.39782 0.7149 0.82977 0.0
H1157 H 0.41608 0.60446 0.64031 0.0
H1158 H 0.40195 0.635 0.65953 0.0
C1159 C 0.40402 0.72765 0.86724 0.0
C1160 C 0.39066 0.6808 0.80529 0.0
H1161 H 0.42069 0.65461 0.73702 0.0
C1162 C 0.374 0.66898 0.79993 0.0
C1163 C 0.40757 0.67581 0.78098 0.0
C1164 C 0.42638 0.68713 0.7873 0.0
C1165 C 0.37415 0.65179 0.7733 0.0
C1166 C 0.39134 0.64641 0.75145 0.0
C1167 C 0.40748 0.6589 0.75354 0.0
C1168 C 0.39437 0.62674 0.73439 0.0
C1169 C 0.35619 0.63916 0.77046 0.0
C1170 C 0.39424 0.6118 0.76955 0.0
C1171 C 0.40261 0.59451 0.75909 0.0
C1172 C 0.41131 0.59182 0.7132 0.0
C1173 C 0.40986 0.60621 0.67639 0.0
C1174 C 0.40159 0.62358 0.68705 0.0
H1175 H 0.34304 0.64767 0.77319 0.0
H1176 H 0.35521 0.63093 0.73518 0.0
H1177 H 0.35655 0.62889 0.8022 0.0
H1178 H 0.3892 0.61407 0.80675 0.0
H1179 H 0.40364 0.5839 0.78861 0.0
H1180 H 0.80967 0.59747 0.90573 0.0
H1181 H 0.8386 0.58838 0.86528 0.0
H1182 H 0.87237 0.62893 0.95463 0.0
H1183 H 0.84323 0.63799 0.99636 0.0
H1184 H 0.8701 0.60217 0.81622 0.0
H1185 H 0.89043 0.57809 0.00952 0.0
H1186 H 0.86707 0.58737 0.99382 0.0
H1187 H 0.88778 0.6033 1.00026 0.0
C1188 C 0.82304 0.60516 0.91535 0.0
C1189 C 0.82422 0.61816 0.95512 0.0
C1190 C 0.83966 0.59984 0.89225 0.0
C1191 C 0.85771 0.60748 0.90827 0.0
C1192 C 0.85862 0.62245 0.94286 0.0
H1193 H 0.96027 0.54055 0.85325 0.0
H1194 H 0.94122 0.56778 0.87621 0.0
C1195 C 0.84196 0.62769 0.96641 0.0
C1196 C 0.87517 0.59733 0.89501 0.0
H1197 H 0.90786 0.56628 0.94459 0.0
C1198 C 0.87866 0.59466 0.84432 0.0
C1199 C 0.88624 0.5874 0.93183 0.0
C1200 C 0.8827 0.589 0.98689 0.0
C1201 C 0.89215 0.58156 0.82941 0.0
C1202 C 0.90233 0.57091 0.86614 0.0
C1203 C 0.8999 0.57452 0.91674 0.0
C1204 C 0.91391 0.55454 0.85287 0.0
C1205 C 0.8949 0.57859 0.77452 0.0
C1206 C 0.90468 0.53794 0.83381 0.0
C1207 C 0.9154 0.52223 0.82167 0.0
C1208 C 0.93558 0.52288 0.82817 0.0
C1209 C 0.94473 0.53944 0.84849 0.0
C1210 C 0.93394 0.5551 0.86103 0.0
H1211 H 0.88966 0.59082 0.7517 0.0
H1212 H 0.91033 0.57655 0.76718 0.0
H1213 H 0.88666 0.56552 0.76227 0.0
H1214 H 0.88914 0.53715 0.82836 0.0
H1215 H 0.90788 0.50962 0.80685 0.0
H1216 H 0.06177 0.20536 0.89337 0.0
H1217 H 0.05655 0.17739 0.84021 0.0
H1218 H 1.00201 0.16546 0.90725 0.0
H1219 H 0.00733 0.19357 0.96132 0.0
H1220 H 0.02465 0.13322 0.90389 0.0
H1221 H 0.02156 0.16779 0.71755 0.0
H1222 H 0.04256 0.17502 0.75447 0.0
H1223 H 0.01905 0.18096 0.77444 0.0
C1224 C 0.04847 0.19701 0.89627 0.0
C1225 C 0.03493 0.20186 0.93161 0.0
C1226 C 0.04546 0.18098 0.86557 0.0
C1227 C 0.02879 0.16923 0.86903 0.0
C1228 C 0.01497 0.17426 0.90348 0.0
H1229 H 0.99745 0.07561 0.66189 0.0
H1230 H 0.99908 0.10524 0.70972 0.0
C1231 C 0.01792 0.19047 0.93411 0.0
C1232 C 0.0265 0.15123 0.83871 0.0
H1233 H 0.02648 0.13418 0.71911 0.0
C1234 C 0.02492 0.13348 0.86347 0.0
C1235 C 0.02668 0.15135 0.78578 0.0
C1236 C 0.02737 0.1698 0.7564 0.0
C1237 C 0.02403 0.11604 0.83715 0.0
C1238 C 0.02499 0.11614 0.78434 0.0
C1239 C 0.02602 0.13391 0.7595 0.0
C1240 C 0.02448 0.09805 0.75419 0.0
C1241 C 0.02178 0.09764 0.86625 0.0
C1242 C 0.03846 0.08406 0.76198 0.0
C1243 C 0.03761 0.06701 0.73435 0.0
C1244 C 0.02277 0.06344 0.69803 0.0
C1245 C 0.00908 0.07769 0.68952 0.0
C1246 C 0.00999 0.09474 0.71697 0.0
H1247 H 0.01613 0.10007 0.90383 0.0
H1248 H 0.01193 0.08733 0.84601 0.0
H1249 H 0.03607 0.09108 0.87139 0.0
H1250 H 0.05007 0.08632 0.78955 0.0
H1251 H 0.04844 0.05648 0.74208 0.0
H1252 H 0.31288 0.04449 0.8721 0.0
H1253 H 0.34068 0.03832 0.82186 0.0
H1254 H 0.36667 0.00725 0.94493 0.0
H1255 H 0.33871 0.01353 0.99563 0.0
H1256 H 0.37796 0.05168 0.84623 0.0
H1257 H 0.37695 0.97291 0.82491 0.0
H1258 H 0.35606 0.98561 0.84284 0.0
H1259 H 0.37526 0.98125 0.88781 0.0
C1260 C 0.32421 0.03578 0.88804 0.0
C1261 C 0.32334 0.02933 0.93793 0.0
C1262 C 0.34026 0.03241 0.8593 0.0
C1263 C 0.356 0.02231 0.87917 0.0
C1264 C 0.35473 0.01486 0.9281 0.0
H1265 H 0.47459 0.03116 0.77314 0.0
H1266 H 0.44531 0.03218 0.82122 0.0
C1267 C 0.3386 0.01832 0.9571 0.0
C1268 C 0.37413 0.0211 0.84999 0.0
H1269 H 0.40442 0.99006 0.79614 0.0
C1270 C 0.3837 0.03816 0.83542 0.0
C1271 C 0.38175 1.00355 0.83519 0.0
C1272 C 0.37195 0.98475 0.84803 0.0
C1273 C 0.40054 0.03816 0.80731 0.0
C1274 C 0.40832 0.02063 0.79307 0.0
C1275 C 0.39865 1.00355 0.80708 0.0
C1276 C 0.42636 0.01986 0.76346 0.0
C1277 C 0.40973 0.05703 0.79225 0.0
C1278 C 0.42577 0.01248 0.71471 0.0
C1279 C 0.44256 0.01203 0.68674 0.0
C1280 C 0.46056 0.01872 0.70693 0.0
C1281 C 0.4611 0.02597 0.75594 0.0
C1282 C 0.44428 0.02658 0.78364 0.0
H1283 H 0.39988 0.06905 0.7966 0.0
H1284 H 0.42286 0.05987 0.8162 0.0
H1285 H 0.41411 0.05666 0.75285 0.0
H1286 H 0.41223 0.00718 0.698 0.0
H1287 H 0.44144 0.00622 0.6494 0.0
H1288 H 0.49604 0.33288 0.98467 0.0
H1289 H 0.48779 0.3586 0.9252 0.0
H1290 H 0.53467 0.34305 0.83419 0.0
H1291 H 0.54253 0.3173 0.89258 0.0
H1292 H 0.51076 0.38897 0.9064 0.0
H1293 H 0.49476 0.3528 0.7268 0.0
H1294 H 0.49557 0.33996 0.78547 0.0
H1295 H 0.51745 0.34577 0.75383 0.0
C1296 C 0.50399 0.33446 0.95081 0.0
C1297 C 0.51976 0.32289 0.94297 0.0
C1298 C 0.49944 0.34932 0.91707 0.0
C1299 C 0.51047 0.3528 0.87463 0.0
C1300 C 0.52557 0.34053 0.86565 0.0
H1301 H 0.53439 0.4466 0.66967 0.0
H1302 H 0.5334 0.41668 0.71785 0.0
C1303 C 0.53009 0.32576 0.8992 0.0
C1304 C 0.50778 0.37034 0.84291 0.0
H1305 H 0.50393 0.38623 0.72173 0.0
C1306 C 0.50894 0.38831 0.86608 0.0
C1307 C 0.50555 0.36967 0.79011 0.0
C1308 C 0.50306 0.35099 0.76267 0.0
C1309 C 0.50863 0.40544 0.83813 0.0
C1310 C 0.5069 0.40474 0.78534 0.0
C1311 C 0.50539 0.38682 0.76212 0.0
C1312 C 0.50687 0.42249 0.75384 0.0
C1313 C 0.51084 0.42421 0.8653 0.0
C1314 C 0.49208 0.43561 0.75699 0.0
C1315 C 0.49255 0.4527 0.72932 0.0
C1316 C 0.50785 0.45718 0.69769 0.0
C1317 C 0.5224 0.44375 0.69361 0.0
C1318 C 0.52185 0.42659 0.72117 0.0
H1319 H 0.51622 0.4223 0.90452 0.0
H1320 H 0.5209 0.43414 0.84593 0.0
H1321 H 0.49662 0.43098 0.86592 0.0
H1322 H 0.4802 0.4327 0.78125 0.0
H1323 H 0.48103 0.46257 0.73353 0.0
H1324 H 0.22407 0.45986 0.83564 0.0
H1325 H 0.19592 0.46695 0.78129 0.0
H1326 H 0.1758 0.50458 0.89353 0.0
H1327 H 0.20438 0.49817 0.94638 0.0
H1328 H 0.1606 0.45808 0.79688 0.0
H1329 H 0.16399 0.53645 0.7748 0.0
H1330 H 0.18409 0.52339 0.80029 0.0
H1331 H 0.16487 0.52995 0.83959 0.0
C1332 C 0.21403 0.47029 0.84752 0.0
C1333 C 0.21665 0.47893 0.89445 0.0
C1334 C 0.1978 0.47417 0.81679 0.0
C1335 C 0.18369 0.48653 0.83272 0.0
C1336 C 0.18664 0.49551 0.87929 0.0
H1337 H 0.06197 0.47732 0.74042 0.0
H1338 H 0.09399 0.4736 0.77972 0.0
C1339 C 0.20301 0.49186 0.90961 0.0
C1340 C 0.16512 0.48856 0.80311 0.0
H1341 H 0.1329 0.52115 0.75888 0.0
C1342 C 0.1547 0.47192 0.78808 0.0
C1343 C 0.15735 0.50654 0.79075 0.0
C1344 C 0.16828 0.52507 0.80174 0.0
C1345 C 0.13669 0.47272 0.76237 0.0
C1346 C 0.12836 0.49067 0.75286 0.0
C1347 C 0.13901 0.50733 0.7667 0.0
C1348 C 0.10875 0.49257 0.72844 0.0
C1349 C 0.12703 0.45425 0.74488 0.0
C1350 C 0.10603 0.50492 0.68733 0.0
C1351 C 0.08762 0.50741 0.66556 0.0
C1352 C 0.07142 0.49748 0.68396 0.0
C1353 C 0.07414 0.48498 0.72478 0.0
C1354 C 0.09253 0.48275 0.74714 0.0
H1355 H 0.13774 0.44304 0.73964 0.0
H1356 H 0.11703 0.44895 0.77357 0.0
H1357 H 0.11871 0.45622 0.70914 0.0
H1358 H 0.11819 0.51273 0.67205 0.0
H1359 H 0.0861 0.51715 0.63425 0.0
H1360 H 0.02502 0.82239 0.29747 0.0
H1361 H 0.03109 0.84933 0.35498 0.0
H1362 H 0.97451 0.84015 0.41319 0.0
H1363 H 0.96872 0.81312 0.3574 0.0
H1364 H 0.01305 0.88227 0.35712 0.0
H1365 H 1.00445 0.84808 0.54128 0.0
H1366 H 0.00696 0.83437 0.48533 0.0
H1367 H 0.9838 0.84306 0.50097 0.0
C1368 C 0.01416 0.82573 0.32374 0.0
C1369 C 0.99641 0.81544 0.32281 0.0
C1370 C 0.01754 0.84131 0.35633 0.0
C1371 C 1.00336 0.84687 0.38922 0.0
C1372 C 0.98595 0.8361 0.38942 0.0
H1373 H 0.9866 0.96185 0.49967 0.0
H1374 H 0.98631 0.93175 0.45426 0.0
C1375 C 0.98259 0.82062 0.35706 0.0
C1376 C 1.00596 0.86466 0.42041 0.0
H1377 H 1.00076 0.88215 0.53817 0.0
C1378 C 0.01056 0.88215 0.39682 0.0
C1379 C 1.00303 0.86475 0.47257 0.0
C1380 C 0.9995 0.84652 0.50159 0.0
C1381 C 0.01161 0.89957 0.42314 0.0
C1382 C 0.00746 0.89982 0.47464 0.0
C1383 C 1.0036 0.88224 0.49866 0.0
C1384 C 0.00702 0.91808 0.50402 0.0
C1385 C 0.01745 0.91752 0.39535 0.0
C1386 C 0.01798 0.92043 0.54895 0.0
C1387 C 0.01791 0.93765 0.57573 0.0
C1388 C 1.00685 0.95307 0.55841 0.0
C1389 C 0.99546 0.95047 0.5142 0.0
C1390 C 0.99543 0.93322 0.48771 0.0
H1391 H 0.02606 0.91426 0.36253 0.0
H1392 H 1.00431 0.92478 0.38138 0.0
H1393 H 0.02603 0.92754 0.41987 0.0
H1394 H 0.02695 0.90903 0.56291 0.0
H1395 H 0.0269 0.93901 0.60946 0.0
H1396 H 0.67313 0.97585 0.24543 0.0
H1397 H 0.64702 0.98067 0.30175 0.0
H1398 H 0.68583 0.0127 0.40074 0.0
H1399 H 0.7125 0.00748 0.34447 0.0
H1400 H 0.64676 0.96829 0.40552 0.0
H1401 H 0.63685 0.04643 0.38428 0.0
H1402 H 0.64877 0.03274 0.33836 0.0
H1403 H 0.66099 0.03852 0.39662 0.0
C1404 C 0.67628 0.98394 0.27915 0.0
C1405 C 0.69521 0.99099 0.29043 0.0
C1406 C 0.66118 0.98674 0.31141 0.0
C1407 C 0.66425 0.99699 0.35589 0.0
C1408 C 0.68292 1.00482 0.36657 0.0
H1409 H 0.58086 0.02557 0.58283 0.0
H1410 H 0.60945 0.02313 0.533 0.0
C1411 C 0.69821 1.00188 0.3342 0.0
C1412 C 0.64799 0.99854 0.39134 0.0
H1413 H 0.61663 0.02983 0.4395 0.0
C1414 C 0.64023 0.98178 0.41306 0.0
C1415 C 0.63939 0.01609 0.40171 0.0
C1416 C 0.64676 0.03453 0.37894 0.0
C1417 C 0.62436 0.98205 0.44463 0.0
C1418 C 0.61529 0.99952 0.45381 0.0
C1419 C 0.62328 0.01635 0.43265 0.0
C1420 C 0.59761 1.00066 0.48506 0.0
C1421 C 0.61787 0.96353 0.46879 0.0
C1422 C 0.58099 0.98899 0.47529 0.0
C1423 C 0.56457 0.99018 0.50444 0.0
C1424 C 0.56405 1.00335 0.54381 0.0
C1425 C 0.58058 0.01518 0.55312 0.0
C1426 C 0.59705 0.01384 0.52433 0.0
H1427 H 0.62977 0.9533 0.47193 0.0
H1428 H 0.6125 0.96591 0.50667 0.0
H1429 H 0.60608 0.95679 0.44539 0.0
H1430 H 0.58054 0.97908 0.44448 0.0
H1431 H 0.55213 0.981 0.49542 0.0
H1432 H 0.53125 0.70211 0.29442 0.0
H1433 H 0.5382 0.6792 0.3624 0.0
H1434 H 0.47726 0.66718 0.37472 0.0
H1435 H 0.47038 0.69092 0.31082 0.0
H1436 H 0.49156 0.66454 0.4605 0.0
H1437 H 0.53959 0.6239 0.34238 0.0
H1438 H 0.54849 0.64765 0.35584 0.0
H1439 H 0.52657 0.64404 0.31855 0.0
C1440 C 0.51938 0.69492 0.31264 0.0
C1441 C 0.50026 0.69808 0.29614 0.0
C1442 C 0.52335 0.68149 0.35094 0.0
C1443 C 0.50831 0.67066 0.37278 0.0
C1444 C 0.48926 0.67494 0.35856 0.0
H1445 H 0.51117 0.55495 0.48336 0.0
H1446 H 0.51059 0.58509 0.43727 0.0
C1447 C 0.48532 0.68853 0.32144 0.0
C1448 C 0.51186 0.65438 0.4088 0.0
H1449 H 0.53438 0.61174 0.42264 0.0
C1450 C 0.50097 0.65301 0.45207 0.0
C1451 C 0.52398 0.63909 0.39819 0.0
C1452 C 0.53518 0.63859 0.35104 0.0
C1453 C 0.50112 0.6367 0.48333 0.0
C1454 C 0.51339 0.62149 0.473 0.0
C1455 C 0.52493 0.62324 0.43097 0.0
C1456 C 0.51355 0.6031 0.50263 0.0
C1457 C 0.48719 0.6356 0.52527 0.0
C1458 C 0.51539 0.60277 0.55524 0.0
C1459 C 0.51507 0.58536 0.58193 0.0
C1460 C 0.51369 0.56784 0.55659 0.0
C1461 C 0.51235 0.56817 0.50411 0.0
C1462 C 0.51208 0.58549 0.47762 0.0
H1463 H 0.47502 0.64534 0.51862 0.0
H1464 H 0.48114 0.62088 0.53007 0.0
H1465 H 0.49482 0.64002 0.56058 0.0
H1466 H 0.51726 0.61594 0.57586 0.0
H1467 H 0.51638 0.5856 0.62231 0.0
H1468 H 0.81671 0.51741 0.32199 0.0
H1469 H 0.84167 0.50581 0.38112 0.0
H1470 H 0.84709 0.5618 0.44701 0.0
H1471 H 0.8217 0.57297 0.39018 0.0
H1472 H 0.87722 0.51673 0.38195 0.0
H1473 H 0.85324 0.53158 0.57041 0.0
H1474 H 0.83691 0.53219 0.51652 0.0
H1475 H 0.85169 0.55294 0.53359 0.0
C1476 C 0.82261 0.52693 0.35071 0.0
C1477 C 0.81722 0.54609 0.35143 0.0
C1478 C 0.83707 0.52038 0.38417 0.0
C1479 C 0.84636 0.53285 0.41906 0.0
C1480 C 0.83999 0.55164 0.42171 0.0
H1481 H 0.96716 0.53598 0.50181 0.0
H1482 H 0.93485 0.53834 0.46379 0.0
C1483 C 0.82549 0.55809 0.38879 0.0
C1484 C 0.86427 0.52728 0.44776 0.0
H1485 H 0.88809 0.53194 0.5613 0.0
C1486 C 0.8794 0.51974 0.42142 0.0
C1487 C 0.86728 0.53081 0.49955 0.0
C1488 C 0.8513 0.53712 0.53163 0.0
C1489 C 0.89757 0.51663 0.44451 0.0
C1490 C 0.9011 0.52186 0.49509 0.0
C1491 C 0.88568 0.52836 0.52223 0.0
C1492 C 0.92073 0.52111 0.51995 0.0
C1493 C 0.91274 0.50767 0.41419 0.0
C1494 C 0.92362 0.51157 0.56589 0.0
C1495 C 0.94213 0.51059 0.58847 0.0
C1496 C 0.95821 0.51906 0.56548 0.0
C1497 C 0.95519 0.52906 0.52027 0.0
C1498 C 0.93668 0.53026 0.49816 0.0
H1499 H 0.90608 0.49851 0.3842 0.0
H1500 H 0.92145 0.5191 0.39596 0.0
H1501 H 0.92251 0.49885 0.43789 0.0
H1502 H 0.91159 0.50455 0.58389 0.0
H1503 H 0.9439 0.50279 0.62331 0.0
loop_
_geom_bond_atom_site_label_1
_geom_bond_atom_site_label_2
_geom_bond_distance
_geom_bond_site_symmetry_2
_ccdc_geom_bond_type
C0 C1 1.391 . S
C0 C4 1.391 . S
C0 H42 0.948 . S
C1 C0 1.391 . S
C1 C2 1.391 . S
C2 C1 1.391 . S
C2 H58 0.947 . S
C2 C59 1.392 . S
C3 C4 1.391 . S
C3 C7 1.397 . S
C3 C59 1.419 . S
C4 C0 1.391 . S
C4 C3 1.391 . S
C4 C5 1.399 . S
C5 C4 1.399 . S
C5 C8 1.396 . S
C5 C17 1.453 . S
C5 C18 1.684 . S
H6 C30 0.948 . S
C7 C3 1.397 . S
C7 C8 1.394 . S
C7 C26 1.723 . S
C8 C5 1.396 . S
C8 C7 1.394 . S
C8 C38 1.723 . S
H9 C32 0.947 . S
H10 C33 0.948 . S
H11 C39 0.982 . S
H12 C40 0.979 . S
H13 C40 0.980 1_556 S
H14 C40 0.983 1_556 S
H15 C39 0.965 1_556 S
H16 C39 0.977 . S
C17 C5 1.453 . S
C17 H46 0.982 . S
C17 H47 0.979 . S
C17 H48 0.977 . S
C18 C5 1.684 . S
C18 H43 0.979 . S
C18 H44 0.980 . S
C18 H45 0.983 . S
C19 C20 1.391 1_554 S
C19 C24 1.391 . S
C19 H49 0.948 . S
C20 C19 1.391 1_556 S
C20 C21 1.391 . S
C21 C20 1.391 . S
C21 C22 1.392 1_556 S
C21 H50 0.947 . S
C22 C21 1.392 1_554 S
C22 C23 1.419 . S
C22 H51 0.948 1_554 S
C23 C22 1.419 . S
C23 C24 1.391 . S
C23 C27 1.397 . S
C24 C19 1.391 . S
C24 C23 1.391 . S
C24 C25 1.399 . S
C25 C24 1.399 . S
C25 C26 1.396 . S
C25 C28 1.453 . S
C25 C29 1.684 . S
C26 C7 1.723 . S
C26 C25 1.396 . S
C26 C27 1.394 . S
C27 C23 1.397 . S
C27 C26 1.394 . S
C27 C37 1.723 . S
C28 C25 1.453 . S
C28 H52 0.982 . S
C28 H53 0.979 . S
C28 H54 0.977 . S
C29 C25 1.684 . S
C29 H55 0.979 . S
C29 H56 0.980 . S
C29 H57 0.983 . S
C30 H6 0.948 . S
C30 C31 1.391 . S
C30 C35 1.391 . S
C31 C30 1.391 . S
C31 C32 1.391 . S
C32 H9 0.947 . S
C32 C31 1.391 . S
C32 C33 1.392 . S
C33 H10 0.948 . S
C33 C32 1.392 . S
C33 C34 1.419 . S
C34 C33 1.419 . S
C34 C35 1.391 . S
C34 C38 1.397 . S
C35 C30 1.391 . S
C35 C34 1.391 . S
C35 C36 1.399 . S
C36 C35 1.399 . S
C36 C37 1.396 . S
C36 C39 1.453 . S
C36 C40 1.684 . S
C37 C27 1.723 . S
C37 C36 1.396 . S
C37 C38 1.394 . S
C38 C8 1.723 . S
C38 C34 1.397 . S
C38 C37 1.394 . S
C39 H11 0.982 . S
C39 H15 0.965 1_554 S
C39 H16 0.977 . S
C39 C36 1.453 . S
C40 H12 0.979 . S
C40 H13 0.980 1_554 S
C40 H14 0.983 1_554 S
C40 C36 1.684 . S
H41 C59 0.948 . S
H42 C0 0.948 . S
H43 C18 0.979 . S
H44 C18 0.980 . S
H45 C18 0.983 . S
H46 C17 0.982 . S
H47 C17 0.979 . S
H48 C17 0.977 . S
H49 C19 0.948 . S
H50 C21 0.947 . S
H51 C22 0.948 1_556 S
H52 C28 0.982 . S
H53 C28 0.979 . S
H54 C28 0.977 . S
H55 C29 0.979 . S
H56 C29 0.980 . S
H57 C29 0.983 . S
H58 C2 0.947 . S
C59 C2 1.392 . S
C59 C3 1.419 . S
C59 H41 0.948 . S
C60 C61 1.391 . S
C60 C64 1.391 . S
C60 H102 0.948 . S
C61 C60 1.391 . S
C61 C62 1.391 . S
C62 C61 1.391 . S
C62 H118 0.947 . S
C62 C119 1.392 . S
C63 C64 1.391 . S
C63 C67 1.397 . S
C63 C119 1.419 . S
C64 C60 1.391 . S
C64 C63 1.391 . S
C64 C65 1.399 . S
C65 C64 1.399 . S
C65 C68 1.396 . S
C65 C77 1.453 . S
C65 C78 1.684 . S
H66 C90 0.948 . S
C67 C63 1.397 . S
C67 C68 1.394 . S
C67 C86 1.723 . S
C68 C65 1.396 . S
C68 C67 1.394 . S
C68 C98 1.723 . S
H69 C92 0.947 . S
H70 C93 0.948 . S
H71 C99 0.982 . S
H72 C100 0.979 . S
H73 C100 0.980 . S
H74 C100 0.983 . S
H75 C99 0.979 . S
H76 C99 0.977 . S
C77 C65 1.453 . S
C77 H106 0.982 . S
C77 H107 0.979 . S
C77 H108 0.977 . S
C78 C65 1.684 . S
C78 H103 0.979 . S
C78 H104 0.980 . S
C78 H105 0.983 . S
C79 C80 1.391 . S
C79 C84 1.391 . S
C79 H109 0.948 . S
C80 C79 1.391 . S
C80 C81 1.391 . S
C81 C80 1.391 . S
C81 C82 1.392 . S
C81 H110 0.947 . S
C82 C81 1.392 . S
C82 C83 1.419 . S
C82 H111 0.948 . S
C83 C82 1.419 . S
C83 C84 1.391 . S
C83 C87 1.397 . S
C84 C79 1.391 . S
C84 C83 1.391 . S
C84 C85 1.399 . S
C85 C84 1.399 . S
C85 C86 1.396 . S
C85 C88 1.453 . S
C85 C89 1.684 . S
C86 C67 1.723 . S
C86 C85 1.396 . S
C86 C87 1.394 . S
C87 C83 1.397 . S
C87 C86 1.394 . S
C87 C97 1.723 . S
C88 C85 1.453 . S
C88 H112 0.982 . S
C88 H113 0.979 . S
C88 H114 0.977 . S
C89 C85 1.684 . S
C89 H115 0.979 . S
C89 H116 0.980 . S
C89 H117 0.983 . S
C90 H66 0.948 . S
C90 C91 1.391 . S
C90 C95 1.391 . S
C91 C90 1.391 . S
C91 C92 1.391 . S
C92 H69 0.947 . S
C92 C91 1.391 . S
C92 C93 1.392 . S
C93 H70 0.948 . S
C93 C92 1.392 . S
C93 C94 1.419 . S
C94 C93 1.419 . S
C94 C95 1.391 . S
C94 C98 1.397 . S
C95 C90 1.391 . S
C95 C94 1.391 . S
C95 C96 1.399 . S
C96 C95 1.399 . S
C96 C97 1.396 . S
C96 C99 1.453 . S
C96 C100 1.684 . S
C97 C87 1.723 . S
C97 C96 1.396 . S
C97 C98 1.394 . S
C98 C68 1.723 . S
C98 C94 1.397 . S
C98 C97 1.394 . S
C99 H71 0.982 . S
C99 H75 0.979 . S
C99 H76 0.977 . S
C99 C96 1.453 . S
C100 H72 0.979 . S
C100 H73 0.980 . S
C100 H74 0.983 . S
C100 C96 1.684 . S
H101 C119 0.948 . S
H102 C60 0.948 . S
H103 C78 0.979 . S
H104 C78 0.980 . S
H105 C78 0.983 . S
H106 C77 0.982 . S
H107 C77 0.979 . S
H108 C77 0.977 . S
H109 C79 0.948 . S
H110 C81 0.947 . S
H111 C82 0.948 . S
H112 C88 0.982 . S
H113 C88 0.979 . S
H114 C88 0.977 . S
H115 C89 0.979 . S
H116 C89 0.980 . S
H117 C89 0.983 . S
H118 C62 0.947 . S
C119 C62 1.392 . S
C119 C63 1.419 . S
C119 H101 0.948 . S
C120 C121 1.391 . S
C120 C124 1.391 . S
C120 H162 0.948 . S
C121 C120 1.391 . S
C121 C122 1.391 . S
C122 C121 1.391 . S
C122 H178 0.947 . S
C122 C179 1.392 . S
C123 C124 1.391 . S
C123 C127 1.397 . S
C123 C179 1.419 . S
C124 C120 1.391 . S
C124 C123 1.391 . S
C124 C125 1.399 . S
C125 C124 1.399 . S
C125 C128 1.396 . S
C125 C137 1.453 . S
C125 C138 1.684 . S
H126 C150 0.948 . S
C127 C123 1.397 . S
C127 C128 1.394 . S
C127 C146 1.723 . S
C128 C125 1.396 . S
C128 C127 1.394 . S
C128 C158 1.723 . S
H129 C152 0.947 . S
H130 C153 0.948 . S
H131 C159 0.982 . S
H132 C160 0.979 . S
H133 C160 0.980 . S
H134 C160 0.983 . S
H135 C159 0.979 . S
H136 C159 0.977 . S
C137 C125 1.453 . S
C137 H166 0.982 . S
C137 H167 0.979 . S
C137 H168 0.977 . S
C138 C125 1.684 . S
C138 H163 0.979 . S
C138 H164 0.980 . S
C138 H165 0.983 . S
C139 C140 1.391 . S
C139 C144 1.391 . S
C139 H169 0.948 . S
C140 C139 1.391 . S
C140 C141 1.391 . S
C141 C140 1.391 . S
C141 C142 1.392 . S
C141 H170 0.947 . S
C142 C141 1.392 . S
C142 C143 1.419 . S
C142 H171 0.948 . S
C143 C142 1.419 . S
C143 C144 1.391 . S
C143 C147 1.397 . S
C144 C139 1.391 . S
C144 C143 1.391 . S
C144 C145 1.399 . S
C145 C144 1.399 . S
C145 C146 1.396 . S
C145 C148 1.453 . S
C145 C149 1.684 . S
C146 C127 1.723 . S
C146 C145 1.396 . S
C146 C147 1.394 . S
C147 C143 1.397 . S
C147 C146 1.394 . S
C147 C157 1.723 . S
C148 C145 1.453 . S
C148 H172 0.982 . S
C148 H173 0.979 . S
C148 H174 0.977 . S
C149 C145 1.684 . S
C149 H175 0.979 . S
C149 H176 0.980 . S
C149 H177 0.983 . S
C150 H126 0.948 . S
C150 C151 1.391 . S
C150 C155 1.391 . S
C151 C150 1.391 . S
C151 C152 1.391 . S
C152 H129 0.947 . S
C152 C151 1.391 . S
C152 C153 1.392 . S
C153 H130 0.948 . S
C153 C152 1.392 . S
C153 C154 1.419 . S
C154 C153 1.419 . S
C154 C155 1.391 . S
C154 C158 1.397 . S
C155 C150 1.391 . S
C155 C154 1.391 . S
C155 C156 1.399 . S
C156 C155 1.399 . S
C156 C157 1.396 . S
C156 C159 1.453 . S
C156 C160 1.684 . S
C157 C147 1.723 . S
C157 C156 1.396 . S
C157 C158 1.394 . S
C158 C128 1.723 . S
C158 C154 1.397 . S
C158 C157 1.394 . S
C159 H131 0.982 . S
C159 H135 0.979 . S
C159 H136 0.977 . S
C159 C156 1.453 . S
C160 H132 0.979 . S
C160 H133 0.980 . S
C160 H134 0.983 . S
C160 C156 1.684 . S
H161 C179 0.948 . S
H162 C120 0.948 . S
H163 C138 0.979 . S
H164 C138 0.980 . S
H165 C138 0.983 . S
H166 C137 0.982 . S
H167 C137 0.979 . S
H168 C137 0.977 . S
H169 C139 0.948 . S
H170 C141 0.947 . S
H171 C142 0.948 . S
H172 C148 0.982 . S
H173 C148 0.979 . S
H174 C148 0.977 . S
H175 C149 0.979 . S
H176 C149 0.980 . S
H177 C149 0.983 . S
H178 C122 0.947 . S
C179 C122 1.392 . S
C179 C123 1.419 . S
C179 H161 0.948 . S
C180 C181 1.391 . S
C180 C184 1.391 . S
C180 H222 0.948 . S
C181 C180 1.391 . S
C181 C182 1.391 . S
C182 C181 1.391 . S
C182 H238 0.947 . S
C182 C239 1.392 . S
C183 C184 1.391 . S
C183 C187 1.397 . S
C183 C239 1.419 . S
C184 C180 1.391 . S
C184 C183 1.391 . S
C184 C185 1.399 . S
C185 C184 1.399 . S
C185 C188 1.396 . S
C185 C197 1.453 . S
C185 C198 1.684 . S
H186 C210 0.948 . S
C187 C183 1.397 . S
C187 C188 1.394 . S
C187 C206 1.723 . S
C188 C185 1.396 . S
C188 C187 1.394 . S
C188 C218 1.723 . S
H189 C212 0.947 . S
H190 C213 0.948 . S
H191 C219 0.982 . S
H192 C220 0.979 . S
H193 C220 0.980 . S
H194 C220 0.983 . S
H195 C219 0.979 . S
H196 C219 0.977 . S
C197 C185 1.453 . S
C197 H226 0.982 . S
C197 H227 0.979 . S
C197 H228 0.977 . S
C198 C185 1.684 . S
C198 H223 0.979 . S
C198 H224 0.980 . S
C198 H225 0.983 . S
C199 C200 1.391 . S
C199 C204 1.391 . S
C199 H229 0.948 . S
C200 C199 1.391 . S
C200 C201 1.391 1_554 S
C201 C200 1.391 1_556 S
C201 C202 1.392 1_556 S
C201 H230 0.947 . S
C202 C201 1.392 1_554 S
C202 C203 1.419 . S
C202 H231 0.948 . S
C203 C202 1.419 . S
C203 C204 1.391 . S
C203 C207 1.397 . S
C204 C199 1.391 . S
C204 C203 1.391 . S
C204 C205 1.399 . S
C205 C204 1.399 . S
C205 C206 1.396 . S
C205 C208 1.453 . S
C205 C209 1.684 . S
C206 C187 1.723 . S
C206 C205 1.396 . S
C206 C207 1.394 . S
C207 C203 1.397 . S
C207 C206 1.394 . S
C207 C217 1.723 . S
C208 C205 1.453 . S
C208 H232 0.982 . S
C208 H233 0.979 . S
C208 H234 0.977 . S
C209 C205 1.684 . S
C209 H235 0.979 . S
C209 H236 0.980 . S
C209 H237 0.983 . S
C210 H186 0.948 . S
C210 C211 1.391 . S
C210 C215 1.391 . S
C211 C210 1.391 . S
C211 C212 1.391 . S
C212 H189 0.947 . S
C212 C211 1.391 . S
C212 C213 1.392 . S
C213 H190 0.948 . S
C213 C212 1.392 . S
C213 C214 1.419 . S
C214 C213 1.419 . S
C214 C215 1.391 . S
C214 C218 1.397 . S
C215 C210 1.391 . S
C215 C214 1.391 . S
C215 C216 1.399 . S
C216 C215 1.399 . S
C216 C217 1.396 . S
C216 C219 1.453 . S
C216 C220 1.684 . S
C217 C207 1.723 . S
C217 C216 1.396 . S
C217 C218 1.394 . S
C218 C188 1.723 . S
C218 C214 1.397 . S
C218 C217 1.394 . S
C219 H191 0.982 . S
C219 H195 0.979 . S
C219 H196 0.977 . S
C219 C216 1.453 . S
C220 H192 0.979 . S
C220 H193 0.980 . S
C220 H194 0.983 . S
C220 C216 1.684 . S
H221 C239 0.948 . S
H222 C180 0.948 . S
H223 C198 0.979 . S
H224 C198 0.980 . S
H225 C198 0.983 . S
H226 C197 0.982 . S
H227 C197 0.979 . S
H228 C197 0.977 . S
H229 C199 0.948 . S
H230 C201 0.947 . S
H231 C202 0.948 . S
H232 C208 0.982 . S
H233 C208 0.979 . S
H234 C208 0.977 . S
H235 C209 0.979 . S
H236 C209 0.980 . S
H237 C209 0.983 . S
H238 C182 0.947 . S
C239 C182 1.392 . S
C239 C183 1.419 . S
C239 H221 0.948 . S
C240 C241 1.391 . S
C240 C244 1.391 . S
C240 H282 0.948 . S
C241 C240 1.391 . S
C241 C242 1.391 . S
C242 C241 1.391 . S
C242 H298 0.947 . S
C242 C299 1.392 . S
C243 C244 1.391 . S
C243 C247 1.397 . S
C243 C299 1.419 . S
C244 C240 1.391 . S
C244 C243 1.391 . S
C244 C245 1.399 . S
C245 C244 1.399 . S
C245 C248 1.396 . S
C245 C257 1.453 . S
C245 C258 1.684 1_554 S
H246 C270 0.948 . S
C247 C243 1.397 . S
C247 C248 1.394 . S
C247 C266 1.723 . S
C248 C245 1.396 . S
C248 C247 1.394 . S
C248 C278 1.723 . S
H249 C272 0.947 . S
H250 C273 0.948 . S
H251 C279 0.982 . S
H252 C280 0.979 . S
H253 C280 0.980 . S
H254 C280 0.983 1_556 S
H255 C279 0.979 1_556 S
H256 C279 0.977 . S
C257 C245 1.453 . S
C257 H286 0.982 . S
C257 H287 0.979 1_554 S
C257 H288 0.977 1_554 S
C258 C245 1.684 1_556 S
C258 H283 0.979 1_556 S
C258 H284 0.980 . S
C258 H285 0.983 . S
C259 C260 1.391 . S
C259 C264 1.391 . S
C259 H289 0.948 . S
C260 C259 1.391 . S
C260 C261 1.391 . S
C261 C260 1.391 . S
C261 C262 1.392 . S
C261 H290 0.947 . S
C262 C261 1.392 . S
C262 C263 1.419 . S
C262 H291 0.948 . S
C263 C262 1.419 . S
C263 C264 1.391 . S
C263 C267 1.397 . S
C264 C259 1.391 . S
C264 C263 1.391 . S
C264 C265 1.399 . S
C265 C264 1.399 . S
C265 C266 1.396 . S
C265 C268 1.453 . S
C265 C269 1.684 . S
C266 C247 1.723 . S
C266 C265 1.396 . S
C266 C267 1.394 . S
C267 C263 1.397 . S
C267 C266 1.394 . S
C267 C277 1.723 . S
C268 C265 1.453 . S
C268 H292 0.982 . S
C268 H293 0.979 . S
C268 H294 0.977 . S
C269 C265 1.684 . S
C269 H295 0.979 . S
C269 H296 0.980 . S
C269 H297 0.983 . S
C270 H246 0.948 . S
C270 C271 1.391 . S
C270 C275 1.391 . S
C271 C270 1.391 . S
C271 C272 1.391 . S
C272 H249 0.947 . S
C272 C271 1.391 . S
C272 C273 1.392 . S
C273 H250 0.948 . S
C273 C272 1.392 . S
C273 C274 1.419 . S
C274 C273 1.419 . S
C274 C275 1.391 . S
C274 C278 1.397 1_556 S
C275 C270 1.391 . S
C275 C274 1.391 . S
C275 C276 1.399 1_556 S
C276 C275 1.399 1_554 S
C276 C277 1.396 . S
C276 C279 1.453 . S
C276 C280 1.684 . S
C277 C267 1.723 . S
C277 C276 1.396 . S
C277 C278 1.394 . S
C278 C248 1.723 . S
C278 C274 1.397 1_554 S
C278 C277 1.394 . S
C279 H251 0.982 . S
C279 H255 0.979 1_554 S
C279 H256 0.977 . S
C279 C276 1.453 . S
C280 H252 0.979 . S
C280 H253 0.980 . S
C280 H254 0.983 1_554 S
C280 C276 1.684 . S
H281 C299 0.948 . S
H282 C240 0.948 . S
H283 C258 0.979 1_554 S
H284 C258 0.980 . S
H285 C258 0.983 . S
H286 C257 0.982 . S
H287 C257 0.979 1_556 S
H288 C257 0.977 1_556 S
H289 C259 0.948 . S
H290 C261 0.947 . S
H291 C262 0.948 . S
H292 C268 0.982 . S
H293 C268 0.979 . S
H294 C268 0.977 . S
H295 C269 0.979 . S
H296 C269 0.980 . S
H297 C269 0.983 . S
H298 C242 0.947 . S
C299 C242 1.392 . S
C299 C243 1.419 . S
C299 H281 0.948 . S
C300 C301 1.391 . S
C300 C304 1.391 . S
C300 H342 0.948 . S
C301 C300 1.391 . S
C301 C302 1.391 . S
C302 C301 1.391 . S
C302 H358 0.947 . S
C302 C359 1.392 . S
C303 C304 1.391 . S
C303 C307 1.397 . S
C303 C359 1.419 . S
C304 C300 1.391 . S
C304 C303 1.391 . S
C304 C305 1.399 . S
C305 C304 1.399 . S
C305 C308 1.396 . S
C305 C317 1.453 . S
C305 C318 1.684 . S
H306 C330 0.948 . S
C307 C303 1.397 . S
C307 C308 1.394 . S
C307 C326 1.723 1_554 S
C308 C305 1.396 . S
C308 C307 1.394 . S
C308 C338 1.723 . S
H309 C332 0.947 . S
H310 C333 0.948 . S
H311 C339 0.982 . S
H312 C340 0.979 . S
H313 C340 0.980 . S
H314 C340 0.983 . S
H315 C339 0.979 . S
H316 C339 0.977 . S
C317 C305 1.453 . S
C317 H346 0.982 . S
C317 H347 0.979 . S
C317 H348 0.977 . S
C318 C305 1.684 . S
C318 H343 0.979 . S
C318 H344 0.980 . S
C318 H345 0.983 . S
C319 C320 1.391 . S
C319 C324 1.391 . S
C319 H349 0.948 . S
C320 C319 1.391 . S
C320 C321 1.391 . S
C321 C320 1.391 . S
C321 C322 1.392 . S
C321 H350 0.947 . S
C322 C321 1.392 . S
C322 C323 1.419 . S
C322 H351 0.948 . S
C323 C322 1.419 . S
C323 C324 1.391 . S
C323 C327 1.397 . S
C324 C319 1.391 . S
C324 C323 1.391 . S
C324 C325 1.399 . S
C325 C324 1.399 . S
C325 C326 1.396 . S
C325 C328 1.453 . S
C325 C329 1.684 . S
C326 C307 1.723 1_556 S
C326 C325 1.396 . S
C326 C327 1.394 . S
C327 C323 1.397 . S
C327 C326 1.394 . S
C327 C337 1.723 . S
C328 C325 1.453 . S
C328 H352 0.982 . S
C328 H353 0.979 . S
C328 H354 0.977 1_556 S
C329 C325 1.684 . S
C329 H355 0.979 . S
C329 H356 0.992 . S
C329 H357 0.983 . S
C330 H306 0.948 . S
C330 C331 1.391 . S
C330 C335 1.391 . S
C331 C330 1.391 . S
C331 C332 1.391 . S
C332 H309 0.947 . S
C332 C331 1.391 . S
C332 C333 1.392 . S
C333 H310 0.948 . S
C333 C332 1.392 . S
C333 C334 1.419 . S
C334 C333 1.419 . S
C334 C335 1.391 . S
C334 C338 1.397 . S
C335 C330 1.391 . S
C335 C334 1.391 . S
C335 C336 1.399 1_554 S
C336 C335 1.399 1_556 S
C336 C337 1.396 . S
C336 C339 1.453 . S
C336 C340 1.684 . S
C337 C327 1.723 . S
C337 C336 1.396 . S
C337 C338 1.394 1_556 S
C338 C308 1.723 . S
C338 C334 1.397 . S
C338 C337 1.394 1_554 S
C339 H311 0.982 . S
C339 H315 0.979 . S
C339 H316 0.977 . S
C339 C336 1.453 . S
C340 H312 0.979 . S
C340 H313 0.980 . S
C340 H314 0.983 . S
C340 C336 1.684 . S
H341 C359 0.948 . S
H342 C300 0.948 . S
H343 C318 0.979 . S
H344 C318 0.980 . S
H345 C318 0.983 . S
H346 C317 0.982 . S
H347 C317 0.979 . S
H348 C317 0.977 . S
H349 C319 0.948 . S
H350 C321 0.947 . S
H351 C322 0.948 . S
H352 C328 0.982 . S
H353 C328 0.979 . S
H354 C328 0.977 1_554 S
H355 C329 0.979 . S
H356 C329 0.992 . S
H357 C329 0.983 . S
H358 C302 0.947 . S
C359 C302 1.392 . S
C359 C303 1.419 . S
C359 H341 0.948 . S
C360 C361 1.391 . S
C360 C364 1.391 . S
C360 H402 0.948 . S
C361 C360 1.391 . S
C361 C362 1.391 . S
C362 C361 1.391 . S
C362 H418 0.947 . S
C362 C419 1.392 . S
C363 C364 1.391 . S
C363 C367 1.397 . S
C363 C419 1.419 . S
C364 C360 1.391 . S
C364 C363 1.391 . S
C364 C365 1.399 . S
C365 C364 1.399 . S
C365 C368 1.396 . S
C365 C377 1.453 . S
C365 C378 1.684 . S
H366 C390 0.948 . S
C367 C363 1.397 . S
C367 C368 1.394 . S
C367 C386 1.723 1_556 S
C368 C365 1.396 . S
C368 C367 1.394 . S
C368 C398 1.723 1_556 S
H369 C392 0.947 . S
H370 C393 0.948 . S
H371 C399 0.982 . S
H372 C400 0.979 . S
H373 C400 0.980 . S
H374 C400 0.983 . S
H375 C399 0.979 . S
H376 C399 0.977 . S
C377 C365 1.453 . S
C377 H406 0.982 . S
C377 H407 0.979 . S
C377 H408 0.977 . S
C378 C365 1.684 . S
C378 H403 0.979 . S
C378 H404 0.980 . S
C378 H405 0.983 . S
C379 C380 1.391 . S
C379 C384 1.391 . S
C379 H409 0.948 . S
C380 C379 1.391 . S
C380 C381 1.391 . S
C381 C380 1.391 . S
C381 C382 1.392 . S
C381 H410 0.947 . S
C382 C381 1.392 . S
C382 C383 1.419 . S
C382 H411 0.948 . S
C383 C382 1.419 . S
C383 C384 1.391 . S
C383 C387 1.397 . S
C384 C379 1.391 . S
C384 C383 1.391 . S
C384 C385 1.399 . S
C385 C384 1.399 . S
C385 C386 1.396 . S
C385 C388 1.453 . S
C385 C389 1.675 1_554 S
C386 C367 1.723 1_554 S
C386 C385 1.396 . S
C386 C387 1.394 . S
C387 C383 1.397 . S
C387 C386 1.394 . S
C387 C397 1.723 . S
C388 C385 1.453 . S
C388 H412 0.982 . S
C388 H413 0.979 . S
C388 H414 0.977 1_554 S
C389 C385 1.675 1_556 S
C389 H415 0.975 1_556 S
C389 H416 0.998 . S
C389 H417 0.978 1_556 S
C390 H366 0.948 . S
C390 C391 1.391 . S
C390 C395 1.391 . S
C391 C390 1.391 . S
C391 C392 1.391 1_554 S
C392 H369 0.947 . S
C392 C391 1.391 1_556 S
C392 C393 1.392 . S
C393 H370 0.948 . S
C393 C392 1.392 . S
C393 C394 1.419 1_556 S
C394 C393 1.419 1_554 S
C394 C395 1.391 . S
C394 C398 1.397 . S
C395 C390 1.391 . S
C395 C394 1.391 . S
C395 C396 1.399 . S
C396 C395 1.399 . S
C396 C397 1.396 . S
C396 C399 1.453 . S
C396 C400 1.684 . S
C397 C387 1.723 . S
C397 C396 1.396 . S
C397 C398 1.394 . S
C398 C368 1.723 1_554 S
C398 C394 1.397 . S
C398 C397 1.394 . S
C399 H371 0.982 . S
C399 H375 0.979 . S
C399 H376 0.977 . S
C399 C396 1.453 . S
C400 H372 0.979 . S
C400 H373 0.980 . S
C400 H374 0.983 . S
C400 C396 1.684 . S
H401 C419 0.948 . S
H402 C360 0.948 . S
H403 C378 0.979 . S
H404 C378 0.980 . S
H405 C378 0.983 . S
H406 C377 0.982 . S
H407 C377 0.979 . S
H408 C377 0.977 . S
H409 C379 0.948 . S
H410 C381 0.947 . S
H411 C382 0.948 . S
H412 C388 0.982 . S
H413 C388 0.979 . S
H414 C388 0.977 1_556 S
H415 C389 0.975 1_554 S
H416 C389 0.998 . S
H417 C389 0.978 1_554 S
H418 C362 0.947 . S
C419 C362 1.392 . S
C419 C363 1.419 . S
C419 H401 0.948 . S
C420 C421 1.391 . S
C420 C424 1.391 . S
C420 H462 0.948 . S
C421 C420 1.391 . S
C421 C422 1.391 . S
C422 C421 1.391 . S
C422 H478 0.947 . S
C422 C479 1.392 . S
C423 C424 1.391 . S
C423 C427 1.397 1_556 S
C423 C479 1.419 . S
C424 C420 1.391 . S
C424 C423 1.391 . S
C424 C425 1.399 . S
C425 C424 1.399 . S
C425 C428 1.396 1_556 S
C425 C437 1.453 . S
C425 C438 1.684 . S
H426 C450 0.948 . S
C427 C423 1.397 1_554 S
C427 C428 1.394 . S
C427 C446 1.723 . S
C428 C425 1.396 1_554 S
C428 C427 1.394 . S
C428 C458 1.723 . S
H429 C452 0.947 . S
H430 C453 0.948 . S
H431 C459 0.982 . S
H432 C460 0.979 . S
H433 C460 0.980 . S
H434 C460 0.983 . S
H435 C459 0.979 . S
H436 C459 0.977 . S
C437 C425 1.453 . S
C437 H466 0.982 . S
C437 H467 0.979 . S
C437 H468 0.977 . S
C438 C425 1.684 . S
C438 H463 0.979 . S
C438 H464 0.980 . S
C438 H465 0.983 . S
C439 C440 1.391 . S
C439 C444 1.391 . S
C439 H469 0.948 . S
C440 C439 1.391 . S
C440 C441 1.391 . S
C441 C440 1.391 . S
C441 C442 1.392 . S
C441 H470 0.947 . S
C442 C441 1.392 . S
C442 C443 1.419 . S
C442 H471 0.948 . S
C443 C442 1.419 . S
C443 C444 1.391 . S
C443 C447 1.397 . S
C444 C439 1.391 . S
C444 C443 1.391 . S
C444 C445 1.399 . S
C445 C444 1.399 . S
C445 C446 1.396 . S
C445 C448 1.453 . S
C445 C449 1.684 . S
C446 C427 1.723 . S
C446 C445 1.396 . S
C446 C447 1.394 . S
C447 C443 1.397 . S
C447 C446 1.394 . S
C447 C457 1.723 . S
C448 C445 1.453 . S
C448 H472 0.982 . S
C448 H473 0.979 . S
C448 H474 0.977 . S
C449 C445 1.684 . S
C449 H475 0.979 . S
C449 H476 0.980 . S
C449 H477 0.983 . S
C450 H426 0.948 . S
C450 C451 1.391 . S
C450 C455 1.391 . S
C451 C450 1.391 . S
C451 C452 1.391 . S
C452 H429 0.947 . S
C452 C451 1.391 . S
C452 C453 1.392 . S
C453 H430 0.948 . S
C453 C452 1.392 . S
C453 C454 1.419 . S
C454 C453 1.419 . S
C454 C455 1.391 . S
C454 C458 1.397 . S
C455 C450 1.391 . S
C455 C454 1.391 . S
C455 C456 1.399 . S
C456 C455 1.399 . S
C456 C457 1.396 . S
C456 C459 1.453 . S
C456 C460 1.684 . S
C457 C447 1.723 . S
C457 C456 1.396 . S
C457 C458 1.394 . S
C458 C428 1.723 . S
C458 C454 1.397 . S
C458 C457 1.394 . S
C459 H431 0.982 . S
C459 H435 0.979 . S
C459 H436 0.977 . S
C459 C456 1.453 . S
C460 H432 0.979 . S
C460 H433 0.980 . S
C460 H434 0.983 . S
C460 C456 1.684 . S
H461 C479 0.948 . S
H462 C420 0.948 . S
H463 C438 0.979 . S
H464 C438 0.980 . S
H465 C438 0.983 . S
H466 C437 0.982 . S
H467 C437 0.979 . S
H468 C437 0.977 . S
H469 C439 0.948 . S
H470 C441 0.947 . S
H471 C442 0.948 . S
H472 C448 0.982 . S
H473 C448 0.979 . S
H474 C448 0.977 . S
H475 C449 0.979 . S
H476 C449 0.980 . S
H477 C449 0.983 . S
H478 C422 0.947 . S
C479 C422 1.392 . S
C479 C423 1.419 . S
C479 H461 0.948 . S
Eu480 C489 2.828 . S
Eu480 O491 2.392 . S
Eu480 O493 2.418 1_545 S
Eu480 O498 2.373 1_655 S
Eu480 O501 2.488 . S
Eu480 O502 2.471 . S
Eu480 O503 2.349 1_655 S
Eu481 O490 2.373 1_455 S
Eu481 O494 2.488 . S
Eu481 O495 2.471 . S
Eu481 O496 2.349 . S
Eu481 O499 2.392 1_565 S
Eu481 O500 2.418 1_565 S
Eu481 C510 2.828 . S
C482 O500 1.244 . S
C482 O503 1.265 . S
C483 C484 1.379 1_655 S
C483 C487 1.373 . S
C483 C489 1.505 . S
C484 C483 1.379 1_455 S
C484 C486 1.369 . S
C484 H512 0.930 . S
C485 C487 1.383 . S
C485 C488 1.382 1_655 S
C485 H513 0.930 . S
C486 C484 1.369 . S
C486 C488 1.392 . S
C486 H514 0.930 . S
C487 C483 1.373 . S
C487 C485 1.383 . S
C487 H515 0.931 . S
C488 C485 1.382 1_455 S
C488 C486 1.392 . S
C489 Eu480 2.828 . S
C489 C483 1.505 . S
C489 O501 1.249 . S
C489 O502 1.244 . S
O490 Eu481 2.373 1_655 S
O490 C492 1.258 . S
O491 Eu480 2.392 . S
O491 C492 1.242 1_545 S
C492 O490 1.258 . S
C492 O491 1.242 1_565 S
O493 Eu480 2.418 1_565 S
O493 C497 1.244 . S
O494 Eu481 2.488 . S
O494 C510 1.249 . S
O495 Eu481 2.471 . S
O495 C510 1.244 . S
O496 Eu481 2.349 . S
O496 C497 1.265 1_455 S
C497 O493 1.244 . S
C497 O496 1.265 1_655 S
O498 Eu480 2.373 1_455 S
O498 C511 1.258 . S
O499 Eu481 2.392 1_545 S
O499 C511 1.242 . S
O500 Eu481 2.418 1_545 S
O500 C482 1.244 . S
O501 Eu480 2.488 . S
O501 C489 1.249 . S
O502 Eu480 2.471 . S
O502 C489 1.244 . S
O503 Eu480 2.349 1_455 S
O503 C482 1.265 . S
C504 C505 1.379 . S
C504 C508 1.373 . S
C504 C510 1.505 . S
C505 C504 1.379 . S
C505 C507 1.369 . S
C505 H516 0.930 1_455 S
C506 C508 1.383 . S
C506 C509 1.382 . S
C506 H517 0.930 . S
C507 C505 1.369 . S
C507 C509 1.392 . S
C507 H518 0.930 1_455 S
C508 C504 1.373 . S
C508 C506 1.383 . S
C508 H519 0.931 . S
C509 C506 1.382 . S
C509 C507 1.392 . S
C510 Eu481 2.828 . S
C510 O494 1.249 . S
C510 O495 1.244 . S
C510 C504 1.505 . S
C511 O498 1.258 . S
C511 O499 1.242 . S
H512 C484 0.930 . S
H513 C485 0.930 . S
H514 C486 0.930 . S
H515 C487 0.931 . S
H516 C505 0.930 1_655 S
H517 C506 0.930 . S
H518 C507 0.930 1_655 S
H519 C508 0.931 . S
Eu520 C529 2.828 . S
Eu520 O531 2.392 . S
Eu520 O533 2.418 . S
Eu520 O538 2.373 . S
Eu520 O541 2.488 . S
Eu520 O542 2.471 . S
Eu520 O543 2.349 1_545 S
Eu521 O530 2.373 1_565 S
Eu521 O534 2.488 . S
Eu521 O535 2.471 1_565 S
Eu521 O536 2.349 1_565 S
Eu521 O539 2.392 . S
Eu521 O540 2.418 . S
Eu521 C550 2.828 . S
C522 O540 1.244 . S
C522 O543 1.265 . S
C523 C524 1.379 1_545 S
C523 C527 1.373 . S
C523 C529 1.505 . S
C524 C523 1.379 1_565 S
C524 C526 1.369 . S
C524 H552 0.930 . S
C525 C527 1.383 . S
C525 C528 1.382 . S
C525 H553 0.930 . S
C526 C524 1.369 . S
C526 C528 1.392 1_565 S
C526 H554 0.930 . S
C527 C523 1.373 . S
C527 C525 1.383 . S
C527 H555 0.931 . S
C528 C525 1.382 . S
C528 C526 1.392 1_545 S
C529 Eu520 2.828 . S
C529 C523 1.505 . S
C529 O541 1.249 . S
C529 O542 1.244 . S
O530 Eu521 2.373 1_545 S
O530 C532 1.258 . S
O531 Eu520 2.392 . S
O531 C532 1.242 . S
C532 O530 1.258 . S
C532 O531 1.242 . S
O533 Eu520 2.418 . S
O533 C537 1.244 . S
O534 Eu521 2.488 . S
O534 C550 1.249 . S
O535 Eu521 2.471 1_545 S
O535 C550 1.244 1_545 S
O536 Eu521 2.349 1_545 S
O536 C537 1.265 . S
C537 O533 1.244 . S
C537 O536 1.265 . S
O538 Eu520 2.373 . S
O538 C551 1.258 1_545 S
O539 Eu521 2.392 . S
O539 C551 1.242 . S
O540 Eu521 2.418 . S
O540 C522 1.244 . S
O541 Eu520 2.488 . S
O541 C529 1.249 . S
O542 Eu520 2.471 . S
O542 C529 1.244 . S
O543 Eu520 2.349 1_565 S
O543 C522 1.265 . S
C544 C545 1.379 . S
C544 C548 1.373 1_545 S
C544 C550 1.505 1_545 S
C545 C544 1.379 . S
C545 C547 1.369 . S
C545 H556 0.930 . S
C546 C548 1.383 . S
C546 C549 1.382 1_565 S
C546 H557 0.930 . S
C547 C545 1.369 . S
C547 C549 1.392 . S
C547 H558 0.930 . S
C548 C544 1.373 1_565 S
C548 C546 1.383 . S
C548 H559 0.931 . S
C549 C546 1.382 1_545 S
C549 C547 1.392 . S
C550 Eu521 2.828 . S
C550 O534 1.249 . S
C550 O535 1.244 1_565 S
C550 C544 1.505 1_565 S
C551 O538 1.258 1_565 S
C551 O539 1.242 . S
H552 C524 0.930 . S
H553 C525 0.930 . S
H554 C526 0.930 . S
H555 C527 0.931 . S
H556 C545 0.930 . S
H557 C546 0.930 . S
H558 C547 0.930 . S
H559 C548 0.931 . S
Eu560 C569 2.828 . S
Eu560 O571 2.392 . S
Eu560 O573 2.418 . S
Eu560 O578 2.373 . S
Eu560 O581 2.488 . S
Eu560 O582 2.471 . S
Eu560 O583 2.349 . S
Eu561 O570 2.373 . S
Eu561 O574 2.488 . S
Eu561 O575 2.471 . S
Eu561 O576 2.349 . S
Eu561 O579 2.392 . S
Eu561 O580 2.418 . S
Eu561 C590 2.828 . S
C562 O580 1.244 . S
C562 O583 1.265 . S
C563 C564 1.379 . S
C563 C567 1.373 . S
C563 C569 1.505 . S
C564 C563 1.379 . S
C564 C566 1.369 . S
C564 H592 0.930 . S
C565 C567 1.383 . S
C565 C568 1.382 . S
C565 H593 0.930 . S
C566 C564 1.369 . S
C566 C568 1.392 . S
C566 H594 0.930 . S
C567 C563 1.373 . S
C567 C565 1.383 . S
C567 H595 0.931 . S
C568 C565 1.382 . S
C568 C566 1.392 . S
C569 Eu560 2.828 . S
C569 C563 1.505 . S
C569 O581 1.249 . S
C569 O582 1.244 . S
O570 Eu561 2.373 . S
O570 C572 1.258 . S
O571 Eu560 2.392 . S
O571 C572 1.242 . S
C572 O570 1.258 . S
C572 O571 1.242 . S
O573 Eu560 2.418 . S
O573 C577 1.244 . S
O574 Eu561 2.488 . S
O574 C590 1.249 . S
O575 Eu561 2.471 . S
O575 C590 1.244 . S
O576 Eu561 2.349 . S
O576 C577 1.265 . S
C577 O573 1.244 . S
C577 O576 1.265 . S
O578 Eu560 2.373 . S
O578 C591 1.258 . S
O579 Eu561 2.392 . S
O579 C591 1.242 . S
O580 Eu561 2.418 . S
O580 C562 1.244 . S
O581 Eu560 2.488 . S
O581 C569 1.249 . S
O582 Eu560 2.471 . S
O582 C569 1.244 . S
O583 Eu560 2.349 . S
O583 C562 1.265 . S
C584 C585 1.379 . S
C584 C588 1.373 . S
C584 C590 1.505 . S
C585 C584 1.379 . S
C585 C587 1.369 . S
C585 H596 0.930 . S
C586 C588 1.383 . S
C586 C589 1.382 . S
C586 H597 0.930 . S
C587 C585 1.369 . S
C587 C589 1.392 . S
C587 H598 0.930 . S
C588 C584 1.373 . S
C588 C586 1.383 . S
C588 H599 0.931 . S
C589 C586 1.382 . S
C589 C587 1.392 . S
C590 Eu561 2.828 . S
C590 O574 1.249 . S
C590 O575 1.244 . S
C590 C584 1.505 . S
C591 O578 1.258 . S
C591 O579 1.242 . S
H592 C564 0.930 . S
H593 C565 0.930 . S
H594 C566 0.930 . S
H595 C567 0.931 . S
H596 C585 0.930 . S
H597 C586 0.930 . S
H598 C587 0.930 . S
H599 C588 0.931 . S
Eu600 C609 2.828 . S
Eu600 O611 2.392 . S
Eu600 O613 2.418 1_455 S
Eu600 O618 2.373 . S
Eu600 O621 2.488 . S
Eu600 O622 2.471 . S
Eu600 O623 2.349 . S
Eu601 O610 2.373 . S
Eu601 O614 2.488 . S
Eu601 O615 2.471 . S
Eu601 O616 2.349 . S
Eu601 O619 2.392 1_655 S
Eu601 O620 2.418 1_655 S
Eu601 C630 2.828 . S
C602 O620 1.244 . S
C602 O623 1.265 . S
C603 C604 1.379 . S
C603 C607 1.373 . S
C603 C609 1.505 . S
C604 C603 1.379 . S
C604 C606 1.369 . S
C604 H632 0.930 . S
C605 C607 1.383 . S
C605 C608 1.382 . S
C605 H633 0.930 . S
C606 C604 1.369 . S
C606 C608 1.392 . S
C606 H634 0.930 . S
C607 C603 1.373 . S
C607 C605 1.383 . S
C607 H635 0.931 . S
C608 C605 1.382 . S
C608 C606 1.392 . S
C609 Eu600 2.828 . S
C609 C603 1.505 . S
C609 O621 1.249 . S
C609 O622 1.244 . S
O610 Eu601 2.373 . S
O610 C612 1.258 1_655 S
O611 Eu600 2.392 . S
O611 C612 1.242 . S
C612 O610 1.258 1_455 S
C612 O611 1.242 . S
O613 Eu600 2.418 1_655 S
O613 C617 1.244 . S
O614 Eu601 2.488 . S
O614 C630 1.249 . S
O615 Eu601 2.471 . S
O615 C630 1.244 . S
O616 Eu601 2.349 . S
O616 C617 1.265 . S
C617 O613 1.244 . S
C617 O616 1.265 . S
O618 Eu600 2.373 . S
O618 C631 1.258 . S
O619 Eu601 2.392 1_455 S
O619 C631 1.242 . S
O620 Eu601 2.418 1_455 S
O620 C602 1.244 . S
O621 Eu600 2.488 . S
O621 C609 1.249 . S
O622 Eu600 2.471 . S
O622 C609 1.244 . S
O623 Eu600 2.349 . S
O623 C602 1.265 . S
C624 C625 1.379 . S
C624 C628 1.373 . S
C624 C630 1.505 . S
C625 C624 1.379 . S
C625 C627 1.369 . S
C625 H636 0.930 . S
C626 C628 1.383 . S
C626 C629 1.382 . S
C626 H637 0.930 . S
C627 C625 1.369 . S
C627 C629 1.392 . S
C627 H638 0.930 . S
C628 C624 1.373 . S
C628 C626 1.383 . S
C628 H639 0.931 . S
C629 C626 1.382 . S
C629 C627 1.392 . S
C630 Eu601 2.828 . S
C630 O614 1.249 . S
C630 O615 1.244 . S
C630 C624 1.505 . S
C631 O618 1.258 . S
C631 O619 1.242 . S
H632 C604 0.930 . S
H633 C605 0.930 . S
H634 C606 0.930 . S
H635 C607 0.931 . S
H636 C625 0.930 . S
H637 C626 0.930 . S
H638 C627 0.930 . S
H639 C628 0.931 . S
H640 C648 0.929 . S
H641 C650 0.930 . S
H642 C652 0.930 . S
H643 C655 0.929 . S
H644 C658 0.930 . S
H645 C660 0.960 . S
H646 C660 0.960 . S
H647 C660 0.960 . S
C648 H640 0.929 . S
C648 C649 1.377 . S
C648 C650 1.384 . S
C649 C648 1.377 . S
C649 C655 1.390 . S
C650 H641 0.930 . S
C650 C648 1.384 . S
C650 C651 1.372 . S
C651 C650 1.372 . S
C651 C652 1.400 . S
C651 C656 1.490 . S
C652 H642 0.930 . S
C652 C651 1.400 . S
C652 C655 1.386 . S
H653 C669 0.930 . S
H654 C670 0.931 . S
C655 H643 0.929 . S
C655 C649 1.390 . S
C655 C652 1.386 . S
C656 C651 1.490 . S
C656 C658 1.395 . S
C656 C659 1.403 . S
H657 C663 0.930 . S
C658 H644 0.930 . S
C658 C656 1.395 . S
C658 C661 1.403 . S
C659 C656 1.403 . S
C659 C660 1.524 . S
C659 C663 1.400 . S
C660 H645 0.960 . S
C660 H646 0.960 . S
C660 H647 0.960 . S
C660 C659 1.524 . S
C661 C658 1.403 . S
C661 C662 1.392 . S
C661 C665 1.495 . S
C662 C661 1.392 . S
C662 C663 1.385 . S
C662 C664 1.478 . S
C663 H657 0.930 . S
C663 C659 1.400 . S
C663 C662 1.385 . S
C664 C662 1.478 . S
C664 C666 1.381 . S
C664 C670 1.383 . S
C665 C661 1.495 . S
C665 H671 0.959 . S
C665 H672 0.961 . S
C665 H673 0.960 . S
C666 C664 1.381 . S
C666 C667 1.394 . S
C666 H674 0.930 . S
C667 C666 1.394 . S
C667 C668 1.383 . S
C667 H675 0.929 . S
C668 C667 1.383 . S
C668 C669 1.377 . S
C669 H653 0.930 . S
C669 C668 1.377 . S
C669 C670 1.379 . S
C670 H654 0.931 . S
C670 C664 1.383 . S
C670 C669 1.379 . S
H671 C665 0.959 . S
H672 C665 0.961 . S
H673 C665 0.960 . S
H674 C666 0.930 . S
H675 C667 0.929 . S
H676 C684 0.929 . S
H677 C686 0.930 . S
H678 C688 0.930 . S
H679 C691 0.929 . S
H680 C694 0.930 . S
H681 C696 0.960 . S
H682 C696 0.960 . S
H683 C696 0.960 . S
C684 H676 0.929 . S
C684 C685 1.377 . S
C684 C686 1.384 . S
C685 C684 1.377 . S
C685 C691 1.390 . S
C686 H677 0.930 . S
C686 C684 1.384 . S
C686 C687 1.372 . S
C687 C686 1.372 . S
C687 C688 1.400 . S
C687 C692 1.490 . S
C688 H678 0.930 . S
C688 C687 1.400 . S
C688 C691 1.386 . S
H689 C705 0.930 . S
H690 C706 0.931 . S
C691 H679 0.929 . S
C691 C685 1.390 . S
C691 C688 1.386 . S
C692 C687 1.490 . S
C692 C694 1.395 . S
C692 C695 1.403 . S
H693 C699 0.930 . S
C694 H680 0.930 . S
C694 C692 1.395 . S
C694 C697 1.403 . S
C695 C692 1.403 . S
C695 C696 1.524 . S
C695 C699 1.400 . S
C696 H681 0.960 . S
C696 H682 0.960 . S
C696 H683 0.960 . S
C696 C695 1.524 . S
C697 C694 1.403 . S
C697 C698 1.392 . S
C697 C701 1.495 . S
C698 C697 1.392 . S
C698 C699 1.385 . S
C698 C700 1.478 . S
C699 H693 0.930 . S
C699 C695 1.400 . S
C699 C698 1.385 . S
C700 C698 1.478 . S
C700 C702 1.381 . S
C700 C706 1.383 . S
C701 C697 1.495 . S
C701 H707 0.959 . S
C701 H708 0.961 . S
C701 H709 0.960 . S
C702 C700 1.381 . S
C702 C703 1.394 . S
C702 H710 0.930 . S
C703 C702 1.394 . S
C703 C704 1.383 . S
C703 H711 0.929 . S
C704 C703 1.383 . S
C704 C705 1.377 . S
C705 H689 0.930 . S
C705 C704 1.377 . S
C705 C706 1.379 . S
C706 H690 0.931 . S
C706 C700 1.383 . S
C706 C705 1.379 . S
H707 C701 0.959 . S
H708 C701 0.961 . S
H709 C701 0.960 . S
H710 C702 0.930 . S
H711 C703 0.929 . S
H712 C720 0.929 . S
H713 C722 0.930 . S
H714 C724 0.930 . S
H715 C727 0.929 . S
H716 C730 0.930 . S
H717 C732 0.960 . S
H718 C732 0.960 . S
H719 C732 0.960 . S
C720 H712 0.929 . S
C720 C721 1.377 . S
C720 C722 1.384 . S
C721 C720 1.377 . S
C721 C727 1.390 . S
C722 H713 0.930 . S
C722 C720 1.384 . S
C722 C723 1.372 . S
C723 C722 1.372 . S
C723 C724 1.400 . S
C723 C728 1.490 . S
C724 H714 0.930 . S
C724 C723 1.400 . S
C724 C727 1.386 . S
H725 C741 0.930 . S
H726 C742 0.931 . S
C727 H715 0.929 . S
C727 C721 1.390 . S
C727 C724 1.386 . S
C728 C723 1.490 . S
C728 C730 1.395 . S
C728 C731 1.403 . S
H729 C735 0.930 . S
C730 H716 0.930 . S
C730 C728 1.395 . S
C730 C733 1.403 . S
C731 C728 1.403 . S
C731 C732 1.524 . S
C731 C735 1.400 . S
C732 H717 0.960 . S
C732 H718 0.960 . S
C732 H719 0.960 . S
C732 C731 1.524 . S
C733 C730 1.403 . S
C733 C734 1.392 . S
C733 C737 1.495 . S
C734 C733 1.392 . S
C734 C735 1.385 . S
C734 C736 1.478 . S
C735 H729 0.930 . S
C735 C731 1.400 . S
C735 C734 1.385 . S
C736 C734 1.478 . S
C736 C738 1.381 . S
C736 C742 1.383 . S
C737 C733 1.495 . S
C737 H743 0.959 . S
C737 H744 0.961 . S
C737 H745 0.960 . S
C738 C736 1.381 . S
C738 C739 1.394 . S
C738 H746 0.930 . S
C739 C738 1.394 . S
C739 C740 1.383 . S
C739 H747 0.929 . S
C740 C739 1.383 . S
C740 C741 1.377 . S
C741 H725 0.930 . S
C741 C740 1.377 . S
C741 C742 1.379 . S
C742 H726 0.931 . S
C742 C736 1.383 . S
C742 C741 1.379 . S
H743 C737 0.959 . S
H744 C737 0.961 . S
H745 C737 0.960 . S
H746 C738 0.930 . S
H747 C739 0.929 . S
H748 C756 0.929 . S
H749 C758 0.930 . S
H750 C760 0.930 . S
H751 C763 0.929 . S
H752 C766 0.930 . S
H753 C768 0.960 . S
H754 C768 0.960 . S
H755 C768 0.960 . S
C756 H748 0.929 . S
C756 C757 1.377 . S
C756 C758 1.384 . S
C757 C756 1.377 . S
C757 C763 1.390 . S
C758 H749 0.930 . S
C758 C756 1.384 . S
C758 C759 1.372 . S
C759 C758 1.372 . S
C759 C760 1.400 . S
C759 C764 1.490 . S
C760 H750 0.930 . S
C760 C759 1.400 . S
C760 C763 1.386 . S
H761 C777 0.930 . S
H762 C778 0.931 . S
C763 H751 0.929 . S
C763 C757 1.390 . S
C763 C760 1.386 . S
C764 C759 1.490 . S
C764 C766 1.395 . S
C764 C767 1.403 . S
H765 C771 0.930 . S
C766 H752 0.930 . S
C766 C764 1.395 . S
C766 C769 1.403 . S
C767 C764 1.403 . S
C767 C768 1.524 . S
C767 C771 1.400 . S
C768 H753 0.960 . S
C768 H754 0.960 . S
C768 H755 0.960 . S
C768 C767 1.524 . S
C769 C766 1.403 . S
C769 C770 1.392 . S
C769 C773 1.495 . S
C770 C769 1.392 . S
C770 C771 1.385 . S
C770 C772 1.478 . S
C771 H765 0.930 . S
C771 C767 1.400 . S
C771 C770 1.385 . S
C772 C770 1.478 . S
C772 C774 1.381 . S
C772 C778 1.383 . S
C773 C769 1.495 . S
C773 H779 0.959 1_455 S
C773 H780 0.961 . S
C773 H781 0.960 1_455 S
C774 C772 1.381 . S
C774 C775 1.407 . S
C774 H782 0.930 1_455 S
C775 C774 1.407 . S
C775 C776 1.424 . S
C775 H783 0.878 1_455 S
C776 C775 1.424 . S
C776 C777 1.377 . S
C777 H761 0.930 . S
C777 C776 1.377 . S
C777 C778 1.379 . S
C778 H762 0.931 . S
C778 C772 1.383 . S
C778 C777 1.379 . S
H779 C773 0.959 1_655 S
H780 C773 0.961 . S
H781 C773 0.960 1_655 S
H782 C774 0.930 1_655 S
H783 C775 0.878 1_655 S
H784 C792 0.929 . S
H785 C794 0.930 . S
H786 C796 0.930 1_556 S
H787 C799 0.929 . S
H788 C802 0.929 1_554 S
H789 C804 0.960 . S
H790 C804 0.960 . S
H791 C804 0.960 . S
C792 H784 0.929 . S
C792 C793 1.377 . S
C792 C794 1.384 . S
C793 C792 1.377 . S
C793 C799 1.390 . S
C794 H785 0.930 . S
C794 C792 1.384 . S
C794 C795 1.372 . S
C795 C794 1.372 . S
C795 C796 1.400 . S
C795 C800 1.490 1_554 S
C796 H786 0.930 1_554 S
C796 C795 1.400 . S
C796 C799 1.386 . S
H797 C813 0.930 . S
H798 C814 0.931 . S
C799 H787 0.929 . S
C799 C793 1.390 . S
C799 C796 1.386 . S
C800 C795 1.490 1_556 S
C800 C802 1.395 . S
C800 C803 1.403 . S
H801 C807 0.930 . S
C802 H788 0.929 1_556 S
C802 C800 1.395 . S
C802 C805 1.403 . S
C803 C800 1.403 . S
C803 C804 1.524 . S
C803 C807 1.400 . S
C804 H789 0.960 . S
C804 H790 0.960 . S
C804 H791 0.960 . S
C804 C803 1.524 . S
C805 C802 1.403 . S
C805 C806 1.392 . S
C805 C809 1.495 . S
C806 C805 1.392 . S
C806 C807 1.385 . S
C806 C808 1.478 . S
C807 H801 0.930 . S
C807 C803 1.400 . S
C807 C806 1.385 . S
C808 C806 1.478 . S
C808 C810 1.381 . S
C808 C814 1.383 . S
C809 C805 1.495 . S
C809 H815 0.959 . S
C809 H816 0.961 . S
C809 H817 0.960 . S
C810 C808 1.381 . S
C810 C811 1.394 . S
C810 H818 0.930 . S
C811 C810 1.394 . S
C811 C812 1.383 . S
C811 H819 0.929 1_565 S
C812 C811 1.383 . S
C812 C813 1.377 . S
C813 H797 0.930 . S
C813 C812 1.377 . S
C813 C814 1.379 . S
C814 H798 0.931 . S
C814 C808 1.383 . S
C814 C813 1.379 . S
H815 C809 0.959 . S
H816 C809 0.961 . S
H817 C809 0.960 . S
H818 C810 0.930 . S
H819 C811 0.929 1_545 S
H820 C828 0.929 . S
H821 C830 0.930 . S
H822 C832 0.930 . S
H823 C835 0.929 . S
H824 C838 0.930 . S
H825 C840 0.960 . S
H826 C840 0.960 . S
H827 C840 0.960 . S
C828 H820 0.929 . S
C828 C829 1.377 . S
C828 C830 1.384 1_554 S
C829 C828 1.377 . S
C829 C835 1.390 . S
C830 H821 0.930 . S
C830 C828 1.384 1_556 S
C830 C831 1.372 . S
C831 C830 1.372 . S
C831 C832 1.400 1_556 S
C831 C836 1.490 . S
C832 H822 0.930 . S
C832 C831 1.400 1_554 S
C832 C835 1.386 . S
H833 C849 0.930 . S
H834 C850 0.931 . S
C835 H823 0.929 . S
C835 C829 1.390 . S
C835 C832 1.386 . S
C836 C831 1.490 . S
C836 C838 1.395 . S
C836 C839 1.403 . S
H837 C843 0.930 . S
C838 H824 0.930 . S
C838 C836 1.395 . S
C838 C841 1.403 . S
C839 C836 1.403 . S
C839 C840 1.524 . S
C839 C843 1.400 . S
C840 H825 0.960 . S
C840 H826 0.960 . S
C840 H827 0.960 . S
C840 C839 1.524 . S
C841 C838 1.403 . S
C841 C842 1.392 . S
C841 C845 1.495 . S
C842 C841 1.392 . S
C842 C843 1.385 . S
C842 C844 1.478 . S
C843 H837 0.930 . S
C843 C839 1.400 . S
C843 C842 1.385 . S
C844 C842 1.478 . S
C844 C846 1.381 . S
C844 C850 1.383 . S
C845 C841 1.495 . S
C845 H851 0.959 . S
C845 H852 0.961 . S
C845 H853 0.960 . S
C846 C844 1.381 . S
C846 C847 1.394 . S
C846 H854 0.930 . S
C847 C846 1.394 . S
C847 C848 1.383 . S
C847 H855 0.929 . S
C848 C847 1.383 . S
C848 C849 1.377 . S
C849 H833 0.930 . S
C849 C848 1.377 . S
C849 C850 1.379 . S
C850 H834 0.931 . S
C850 C844 1.383 . S
C850 C849 1.379 . S
H851 C845 0.959 . S
H852 C845 0.961 . S
H853 C845 0.960 . S
H854 C846 0.930 . S
H855 C847 0.929 . S
H856 C864 0.929 . S
H857 C866 0.930 . S
H858 C868 0.930 . S
H859 C871 0.929 . S
H860 C874 0.930 . S
H861 C876 0.960 . S
H862 C876 0.960 . S
H863 C876 0.960 . S
C864 H856 0.929 . S
C864 C865 1.377 . S
C864 C866 1.384 1_554 S
C865 C864 1.377 . S
C865 C871 1.390 . S
C866 H857 0.930 . S
C866 C864 1.384 1_556 S
C866 C867 1.372 . S
C867 C866 1.372 . S
C867 C868 1.400 . S
C867 C872 1.490 . S
C868 H858 0.930 . S
C868 C867 1.400 . S
C868 C871 1.386 1_556 S
H869 C885 0.930 . S
H870 C886 0.931 . S
C871 H859 0.929 . S
C871 C865 1.390 . S
C871 C868 1.386 1_554 S
C872 C867 1.490 . S
C872 C874 1.395 . S
C872 C875 1.403 . S
H873 C879 0.930 . S
C874 H860 0.930 . S
C874 C872 1.395 . S
C874 C877 1.403 . S
C875 C872 1.403 . S
C875 C876 1.524 . S
C875 C879 1.400 . S
C876 H861 0.960 . S
C876 H862 0.960 . S
C876 H863 0.960 . S
C876 C875 1.524 . S
C877 C874 1.403 . S
C877 C878 1.392 . S
C877 C881 1.495 . S
C878 C877 1.392 . S
C878 C879 1.385 . S
C878 C880 1.478 . S
C879 H873 0.930 . S
C879 C875 1.400 . S
C879 C878 1.385 . S
C880 C878 1.478 . S
C880 C882 1.381 . S
C880 C886 1.383 . S
C881 C877 1.495 . S
C881 H887 0.959 . S
C881 H888 0.961 . S
C881 H889 0.960 . S
C882 C880 1.381 . S
C882 C883 1.394 . S
C882 H890 0.930 . S
C883 C882 1.394 . S
C883 C884 1.383 . S
C883 H891 0.929 . S
C884 C883 1.383 . S
C884 C885 1.377 . S
C885 H869 0.930 . S
C885 C884 1.377 . S
C885 C886 1.379 . S
C886 H870 0.931 . S
C886 C880 1.383 . S
C886 C885 1.379 . S
H887 C881 0.959 . S
H888 C881 0.961 . S
H889 C881 0.960 . S
H890 C882 0.930 . S
H891 C883 0.929 . S
H892 C900 0.929 . S
H893 C902 0.930 . S
H894 C904 0.913 1_556 S
H895 C907 0.929 . S
H896 C910 0.930 . S
H897 C912 0.960 1_455 S
H898 C912 0.960 1_455 S
H899 C912 0.960 . S
C900 H892 0.929 . S
C900 C901 1.377 . S
C900 C902 1.384 . S
C901 C900 1.377 . S
C901 C907 1.390 . S
C902 H893 0.930 . S
C902 C900 1.384 . S
C902 C903 1.372 . S
C903 C902 1.372 . S
C903 C904 1.401 . S
C903 C908 1.490 1_554 S
C904 H894 0.913 1_554 S
C904 C903 1.401 . S
C904 C907 1.402 . S
H905 C921 0.930 . S
H906 C922 0.931 . S
C907 H895 0.929 . S
C907 C901 1.390 . S
C907 C904 1.402 . S
C908 C903 1.490 1_556 S
C908 C910 1.395 . S
C908 C911 1.403 . S
H909 C915 0.930 . S
C910 H896 0.930 . S
C910 C908 1.395 . S
C910 C913 1.403 . S
C911 C908 1.403 . S
C911 C912 1.524 . S
C911 C915 1.400 . S
C912 H897 0.960 1_655 S
C912 H898 0.960 1_655 S
C912 H899 0.960 . S
C912 C911 1.524 . S
C913 C910 1.403 . S
C913 C914 1.392 . S
C913 C917 1.495 . S
C914 C913 1.392 . S
C914 C915 1.385 . S
C914 C916 1.478 . S
C915 H909 0.930 . S
C915 C911 1.400 . S
C915 C914 1.385 . S
C916 C914 1.478 . S
C916 C918 1.381 . S
C916 C922 1.383 . S
C917 C913 1.495 . S
C917 H923 0.959 . S
C917 H924 0.961 . S
C917 H925 0.960 . S
C918 C916 1.381 . S
C918 C919 1.394 1_655 S
C918 H926 0.930 1_655 S
C919 C918 1.394 1_455 S
C919 C920 1.383 1_455 S
C919 H927 0.929 . S
C920 C919 1.383 1_655 S
C920 C921 1.377 . S
C921 H905 0.930 . S
C921 C920 1.377 . S
C921 C922 1.379 . S
C922 H906 0.931 . S
C922 C916 1.383 . S
C922 C921 1.379 . S
H923 C917 0.959 . S
H924 C917 0.961 . S
H925 C917 0.960 . S
H926 C918 0.930 1_455 S
H927 C919 0.929 . S
H928 C936 0.929 . S
H929 C938 0.930 . S
H930 C940 0.930 . S
H931 C943 0.929 . S
H932 C946 0.930 . S
H933 C948 0.960 . S
H934 C948 0.960 . S
H935 C948 0.960 . S
C936 H928 0.929 . S
C936 C937 1.377 . S
C936 C938 1.384 . S
C937 C936 1.377 . S
C937 C943 1.390 . S
C938 H929 0.930 . S
C938 C936 1.384 . S
C938 C939 1.372 . S
C939 C938 1.372 . S
C939 C940 1.400 . S
C939 C944 1.490 . S
C940 H930 0.930 . S
C940 C939 1.400 . S
C940 C943 1.386 . S
H941 C957 0.930 . S
H942 C958 0.931 . S
C943 H931 0.929 . S
C943 C937 1.390 . S
C943 C940 1.386 . S
C944 C939 1.490 . S
C944 C946 1.395 . S
C944 C947 1.403 . S
H945 C951 0.930 . S
C946 H932 0.930 . S
C946 C944 1.395 . S
C946 C949 1.403 . S
C947 C944 1.403 . S
C947 C948 1.524 . S
C947 C951 1.400 . S
C948 H933 0.960 . S
C948 H934 0.960 . S
C948 H935 0.960 . S
C948 C947 1.524 . S
C949 C946 1.403 . S
C949 C950 1.392 . S
C949 C953 1.495 1_455 S
C950 C949 1.392 . S
C950 C951 1.385 . S
C950 C952 1.478 . S
C951 H945 0.930 . S
C951 C947 1.400 . S
C951 C950 1.385 . S
C952 C950 1.478 . S
C952 C954 1.371 1_455 S
C952 C958 1.383 . S
C953 C949 1.495 1_655 S
C953 H959 0.959 . S
C953 H960 0.961 . S
C953 H961 0.960 . S
C954 C952 1.371 1_655 S
C954 C955 1.400 . S
C954 H962 0.935 . S
C955 C954 1.400 . S
C955 C956 1.383 . S
C955 H963 0.929 . S
C956 C955 1.383 . S
C956 C957 1.377 1_655 S
C957 H941 0.930 . S
C957 C956 1.377 1_455 S
C957 C958 1.379 . S
C958 H942 0.931 . S
C958 C952 1.383 . S
C958 C957 1.379 . S
H959 C953 0.959 . S
H960 C953 0.961 . S
H961 C953 0.960 . S
H962 C954 0.935 . S
H963 C955 0.929 . S
H964 C972 0.929 . S
H965 C974 0.930 . S
H966 C976 0.930 . S
H967 C979 0.929 . S
H968 C982 0.930 . S
H969 C984 0.960 . S
H970 C984 0.960 . S
H971 C984 0.960 . S
C972 H964 0.929 . S
C972 C973 1.377 . S
C972 C974 1.384 . S
C973 C972 1.377 . S
C973 C979 1.390 . S
C974 H965 0.930 . S
C974 C972 1.384 . S
C974 C975 1.372 . S
C975 C974 1.372 . S
C975 C976 1.400 . S
C975 C980 1.490 . S
C976 H966 0.930 . S
C976 C975 1.400 . S
C976 C979 1.386 . S
H977 C993 0.930 . S
H978 C994 0.931 . S
C979 H967 0.929 . S
C979 C973 1.390 . S
C979 C976 1.386 . S
C980 C975 1.490 . S
C980 C982 1.395 . S
C980 C983 1.403 . S
H981 C987 0.930 . S
C982 H968 0.930 . S
C982 C980 1.395 . S
C982 C985 1.403 . S
C983 C980 1.403 . S
C983 C984 1.524 . S
C983 C987 1.400 . S
C984 H969 0.960 . S
C984 H970 0.960 . S
C984 H971 0.960 . S
C984 C983 1.524 . S
C985 C982 1.403 . S
C985 C986 1.392 . S
C985 C989 1.495 1_545 S
C986 C985 1.392 . S
C986 C987 1.385 . S
C986 C988 1.478 . S
C987 H981 0.930 . S
C987 C983 1.400 . S
C987 C986 1.385 . S
C988 C986 1.478 . S
C988 C990 1.381 . S
C988 C994 1.383 . S
C989 C985 1.495 1_565 S
C989 H995 0.959 . S
C989 H996 0.961 . S
C989 H997 0.960 . S
C990 C988 1.381 . S
C990 C991 1.394 . S
C990 H998 0.930 . S
C991 C990 1.394 . S
C991 C992 1.383 . S
C991 H999 0.929 1_545 S
C992 C991 1.383 . S
C992 C993 1.377 . S
C993 H977 0.930 . S
C993 C992 1.377 . S
C993 C994 1.379 . S
C994 H978 0.931 . S
C994 C988 1.383 . S
C994 C993 1.379 . S
H995 C989 0.959 . S
H996 C989 0.961 . S
H997 C989 0.960 . S
H998 C990 0.930 . S
H999 C991 0.929 1_565 S
H1000 C1008 0.929 . S
H1001 C1010 0.930 . S
H1002 C1012 0.930 . S
H1003 C1015 0.929 . S
H1004 C1018 0.930 . S
H1005 C1020 0.960 . S
H1006 C1020 0.960 . S
H1007 C1020 0.960 . S
C1008 H1000 0.929 . S
C1008 C1009 1.377 . S
C1008 C1010 1.384 . S
C1009 C1008 1.377 . S
C1009 C1015 1.390 . S
C1010 H1001 0.930 . S
C1010 C1008 1.384 . S
C1010 C1011 1.372 . S
C1011 C1010 1.372 . S
C1011 C1012 1.400 . S
C1011 C1016 1.490 . S
C1012 H1002 0.930 . S
C1012 C1011 1.400 . S
C1012 C1015 1.386 . S
H1013 C1029 0.930 . S
H1014 C1030 0.931 . S
C1015 H1003 0.929 . S
C1015 C1009 1.390 . S
C1015 C1012 1.386 . S
C1016 C1011 1.490 . S
C1016 C1018 1.395 . S
C1016 C1019 1.403 . S
H1017 C1023 0.930 . S
C1018 H1004 0.930 . S
C1018 C1016 1.395 . S
C1018 C1021 1.403 . S
C1019 C1016 1.403 . S
C1019 C1020 1.524 . S
C1019 C1023 1.400 . S
C1020 H1005 0.960 . S
C1020 H1006 0.960 . S
C1020 H1007 0.960 . S
C1020 C1019 1.524 . S
C1021 C1018 1.403 . S
C1021 C1022 1.392 . S
C1021 C1025 1.495 . S
C1022 C1021 1.392 . S
C1022 C1023 1.385 . S
C1022 C1024 1.478 . S
C1023 H1017 0.930 . S
C1023 C1019 1.400 . S
C1023 C1022 1.385 . S
C1024 C1022 1.478 . S
C1024 C1026 1.381 . S
C1024 C1030 1.383 . S
C1025 C1021 1.495 . S
C1025 H1031 0.959 . S
C1025 H1032 0.961 . S
C1025 H1033 0.960 . S
C1026 C1024 1.381 . S
C1026 C1027 1.394 . S
C1026 H1034 0.930 . S
C1027 C1026 1.394 . S
C1027 C1028 1.383 . S
C1027 H1035 0.929 . S
C1028 C1027 1.383 . S
C1028 C1029 1.377 . S
C1029 H1013 0.930 . S
C1029 C1028 1.377 . S
C1029 C1030 1.379 . S
C1030 H1014 0.931 . S
C1030 C1024 1.383 . S
C1030 C1029 1.379 . S
H1031 C1025 0.959 . S
H1032 C1025 0.961 . S
H1033 C1025 0.960 . S
H1034 C1026 0.930 . S
H1035 C1027 0.929 . S
H1036 C1044 0.929 . S
H1037 C1046 0.930 . S
H1038 C1048 0.930 . S
H1039 C1051 0.929 . S
H1040 C1054 0.930 . S
H1041 C1056 0.960 . S
H1042 C1056 0.960 . S
H1043 C1056 0.960 . S
C1044 H1036 0.929 . S
C1044 C1045 1.377 . S
C1044 C1046 1.384 . S
C1045 C1044 1.377 . S
C1045 C1051 1.390 . S
C1046 H1037 0.930 . S
C1046 C1044 1.384 . S
C1046 C1047 1.372 . S
C1047 C1046 1.372 . S
C1047 C1048 1.400 . S
C1047 C1052 1.490 . S
C1048 H1038 0.930 . S
C1048 C1047 1.400 . S
C1048 C1051 1.386 . S
H1049 C1065 0.930 . S
H1050 C1066 0.931 . S
C1051 H1039 0.929 . S
C1051 C1045 1.390 . S
C1051 C1048 1.386 . S
C1052 C1047 1.490 . S
C1052 C1054 1.395 . S
C1052 C1055 1.403 . S
H1053 C1059 0.930 . S
C1054 H1040 0.930 . S
C1054 C1052 1.395 . S
C1054 C1057 1.403 . S
C1055 C1052 1.403 . S
C1055 C1056 1.524 . S
C1055 C1059 1.400 . S
C1056 H1041 0.960 . S
C1056 H1042 0.960 . S
C1056 H1043 0.960 . S
C1056 C1055 1.524 . S
C1057 C1054 1.403 . S
C1057 C1058 1.392 . S
C1057 C1061 1.495 . S
C1058 C1057 1.392 . S
C1058 C1059 1.385 . S
C1058 C1060 1.478 . S
C1059 H1053 0.930 . S
C1059 C1055 1.400 . S
C1059 C1058 1.385 . S
C1060 C1058 1.478 . S
C1060 C1062 1.381 . S
C1060 C1066 1.383 . S
C1061 C1057 1.495 . S
C1061 H1067 0.959 . S
C1061 H1068 0.961 . S
C1061 H1069 0.960 . S
C1062 C1060 1.381 . S
C1062 C1063 1.394 . S
C1062 H1070 0.930 . S
C1063 C1062 1.394 . S
C1063 C1064 1.383 . S
C1063 H1071 0.929 . S
C1064 C1063 1.383 . S
C1064 C1065 1.377 . S
C1065 H1049 0.930 . S
C1065 C1064 1.377 . S
C1065 C1066 1.379 . S
C1066 H1050 0.931 . S
C1066 C1060 1.383 . S
C1066 C1065 1.379 . S
H1067 C1061 0.959 . S
H1068 C1061 0.961 . S
H1069 C1061 0.960 . S
H1070 C1062 0.930 . S
H1071 C1063 0.929 . S
H1072 C1080 0.929 . S
H1073 C1082 0.930 . S
H1074 C1084 0.930 1_556 S
H1075 C1087 0.929 . S
H1076 C1090 0.930 . S
H1077 C1092 0.960 . S
H1078 C1092 0.960 . S
H1079 C1092 0.960 . S
C1080 H1072 0.929 . S
C1080 C1081 1.377 . S
C1080 C1082 1.384 . S
C1081 C1080 1.377 . S
C1081 C1087 1.390 . S
C1082 H1073 0.930 . S
C1082 C1080 1.384 . S
C1082 C1083 1.363 1_554 S
C1083 C1082 1.363 1_556 S
C1083 C1084 1.397 1_556 S
C1083 C1088 1.502 . S
C1084 H1074 0.930 1_554 S
C1084 C1083 1.397 1_554 S
C1084 C1087 1.386 . S
H1085 C1101 0.930 . S
H1086 C1102 0.931 . S
C1087 H1075 0.929 . S
C1087 C1081 1.390 . S
C1087 C1084 1.386 . S
C1088 C1083 1.502 . S
C1088 C1090 1.395 . S
C1088 C1091 1.403 . S
H1089 C1095 0.930 . S
C1090 H1076 0.930 . S
C1090 C1088 1.395 . S
C1090 C1093 1.403 . S
C1091 C1088 1.403 . S
C1091 C1092 1.524 1_556 S
C1091 C1095 1.400 . S
C1092 H1077 0.960 . S
C1092 H1078 0.960 . S
C1092 H1079 0.960 . S
C1092 C1091 1.524 1_554 S
C1093 C1090 1.403 . S
C1093 C1094 1.392 . S
C1093 C1097 1.495 1_655 S
C1094 C1093 1.392 . S
C1094 C1095 1.385 . S
C1094 C1096 1.478 1_655 S
C1095 H1089 0.930 . S
C1095 C1091 1.400 . S
C1095 C1094 1.385 . S
C1096 C1094 1.478 1_455 S
C1096 C1098 1.381 . S
C1096 C1102 1.383 1_455 S
C1097 C1093 1.495 1_455 S
C1097 H1103 0.959 . S
C1097 H1104 0.961 . S
C1097 H1105 0.960 . S
C1098 C1096 1.381 . S
C1098 C1099 1.394 . S
C1098 H1106 0.930 . S
C1099 C1098 1.394 . S
C1099 C1100 1.383 . S
C1099 H1107 0.929 . S
C1100 C1099 1.383 . S
C1100 C1101 1.377 1_455 S
C1101 H1085 0.930 . S
C1101 C1100 1.377 1_655 S
C1101 C1102 1.379 . S
C1102 H1086 0.931 . S
C1102 C1096 1.383 1_655 S
C1102 C1101 1.379 . S
H1103 C1097 0.959 . S
H1104 C1097 0.961 . S
H1105 C1097 0.960 . S
H1106 C1098 0.930 . S
H1107 C1099 0.929 . S
H1108 C1116 0.929 . S
H1109 C1118 0.930 . S
H1110 C1120 0.930 . S
H1111 C1123 0.929 . S
H1112 C1126 0.930 . S
H1113 C1128 0.960 . S
H1114 C1128 0.960 . S
H1115 C1128 0.960 . S
C1116 H1108 0.929 . S
C1116 C1117 1.377 . S
C1116 C1118 1.384 1_554 S
C1117 C1116 1.377 . S
C1117 C1123 1.390 . S
C1118 H1109 0.930 . S
C1118 C1116 1.384 1_556 S
C1118 C1119 1.372 . S
C1119 C1118 1.372 . S
C1119 C1120 1.400 1_556 S
C1119 C1124 1.490 . S
C1120 H1110 0.930 . S
C1120 C1119 1.400 1_554 S
C1120 C1123 1.386 . S
H1121 C1137 0.930 . S
H1122 C1138 0.931 . S
C1123 H1111 0.929 . S
C1123 C1117 1.390 . S
C1123 C1120 1.386 . S
C1124 C1119 1.490 . S
C1124 C1126 1.395 . S
C1124 C1127 1.403 . S
H1125 C1131 0.930 . S
C1126 H1112 0.930 . S
C1126 C1124 1.395 . S
C1126 C1129 1.403 . S
C1127 C1124 1.403 . S
C1127 C1128 1.524 . S
C1127 C1131 1.400 . S
C1128 H1113 0.960 . S
C1128 H1114 0.960 . S
C1128 H1115 0.960 . S
C1128 C1127 1.524 . S
C1129 C1126 1.403 . S
C1129 C1130 1.392 . S
C1129 C1133 1.495 . S
C1130 C1129 1.392 . S
C1130 C1131 1.385 . S
C1130 C1132 1.478 . S
C1131 H1125 0.930 . S
C1131 C1127 1.400 . S
C1131 C1130 1.385 . S
C1132 C1130 1.478 . S
C1132 C1134 1.381 . S
C1132 C1138 1.383 1_565 S
C1133 C1129 1.495 . S
C1133 H1139 0.959 . S
C1133 H1140 0.961 . S
C1133 H1141 0.960 . S
C1134 C1132 1.381 . S
C1134 C1135 1.394 . S
C1134 H1142 0.930 . S
C1135 C1134 1.394 . S
C1135 C1136 1.383 1_565 S
C1135 H1143 0.929 . S
C1136 C1135 1.383 1_545 S
C1136 C1137 1.377 . S
C1137 H1121 0.930 . S
C1137 C1136 1.377 . S
C1137 C1138 1.379 . S
C1138 H1122 0.931 . S
C1138 C1132 1.383 1_545 S
C1138 C1137 1.379 . S
H1139 C1133 0.959 . S
H1140 C1133 0.961 . S
H1141 C1133 0.960 . S
H1142 C1134 0.930 . S
H1143 C1135 0.929 . S
H1144 C1152 0.929 1_554 S
H1145 C1154 0.930 . S
H1146 C1156 0.930 . S
H1147 C1159 0.929 . S
H1148 C1162 0.930 . S
H1149 C1164 0.960 . S
H1150 C1164 0.948 1_554 S
H1151 C1164 0.960 . S
C1152 H1144 0.929 1_556 S
C1152 C1153 1.377 1_556 S
C1152 C1154 1.384 . S
C1153 C1152 1.377 1_554 S
C1153 C1159 1.390 1_554 S
C1154 H1145 0.930 . S
C1154 C1152 1.384 . S
C1154 C1155 1.372 . S
C1155 C1154 1.372 . S
C1155 C1156 1.400 . S
C1155 C1160 1.490 . S
C1156 H1146 0.930 . S
C1156 C1155 1.400 . S
C1156 C1159 1.386 . S
H1157 C1173 0.930 . S
H1158 C1174 0.931 . S
C1159 H1147 0.929 . S
C1159 C1153 1.390 1_556 S
C1159 C1156 1.386 . S
C1160 C1155 1.490 . S
C1160 C1162 1.395 . S
C1160 C1163 1.403 . S
H1161 C1167 0.930 . S
C1162 H1148 0.930 . S
C1162 C1160 1.395 . S
C1162 C1165 1.403 . S
C1163 C1160 1.403 . S
C1163 C1164 1.524 . S
C1163 C1167 1.400 . S
C1164 H1149 0.960 . S
C1164 H1150 0.948 1_556 S
C1164 H1151 0.960 . S
C1164 C1163 1.524 . S
C1165 C1162 1.403 . S
C1165 C1166 1.392 . S
C1165 C1169 1.495 . S
C1166 C1165 1.392 . S
C1166 C1167 1.385 . S
C1166 C1168 1.478 . S
C1167 H1161 0.930 . S
C1167 C1163 1.400 . S
C1167 C1166 1.385 . S
C1168 C1166 1.478 . S
C1168 C1170 1.381 . S
C1168 C1174 1.383 . S
C1169 C1165 1.495 . S
C1169 H1175 0.959 . S
C1169 H1176 0.961 . S
C1169 H1177 0.960 . S
C1170 C1168 1.381 . S
C1170 C1171 1.394 . S
C1170 H1178 0.930 . S
C1171 C1170 1.394 . S
C1171 C1172 1.383 . S
C1171 H1179 0.929 . S
C1172 C1171 1.383 . S
C1172 C1173 1.377 . S
C1173 H1157 0.930 . S
C1173 C1172 1.377 . S
C1173 C1174 1.379 . S
C1174 H1158 0.931 . S
C1174 C1168 1.383 . S
C1174 C1173 1.379 . S
H1175 C1169 0.959 . S
H1176 C1169 0.961 . S
H1177 C1169 0.960 . S
H1178 C1170 0.930 . S
H1179 C1171 0.929 . S
H1180 C1188 0.929 1_554 S
H1181 C1190 0.930 . S
H1182 C1192 0.930 . S
H1183 C1195 0.929 . S
H1184 C1198 0.930 . S
H1185 C1200 0.963 . S
H1186 C1200 0.976 . S
H1187 C1200 0.960 1_556 S
C1188 H1180 0.929 1_556 S
C1188 C1189 1.377 . S
C1188 C1190 1.384 . S
C1189 C1188 1.377 . S
C1189 C1195 1.390 . S
C1190 H1181 0.930 . S
C1190 C1188 1.384 . S
C1190 C1191 1.372 . S
C1191 C1190 1.372 . S
C1191 C1192 1.400 . S
C1191 C1196 1.490 . S
C1192 H1182 0.930 . S
C1192 C1191 1.400 . S
C1192 C1195 1.386 . S
H1193 C1209 0.930 . S
H1194 C1210 0.931 . S
C1195 H1183 0.929 . S
C1195 C1189 1.390 . S
C1195 C1192 1.386 . S
C1196 C1191 1.490 . S
C1196 C1198 1.395 . S
C1196 C1199 1.403 . S
H1197 C1203 0.930 . S
C1198 H1184 0.930 . S
C1198 C1196 1.395 . S
C1198 C1201 1.403 . S
C1199 C1196 1.403 . S
C1199 C1200 1.506 1_556 S
C1199 C1203 1.400 . S
C1200 H1185 0.963 . S
C1200 H1186 0.976 . S
C1200 H1187 0.960 1_554 S
C1200 C1199 1.506 1_554 S
C1201 C1198 1.403 . S
C1201 C1202 1.392 . S
C1201 C1205 1.495 . S
C1202 C1201 1.392 . S
C1202 C1203 1.385 . S
C1202 C1204 1.478 . S
C1203 H1197 0.930 . S
C1203 C1199 1.400 . S
C1203 C1202 1.385 . S
C1204 C1202 1.478 . S
C1204 C1206 1.381 . S
C1204 C1210 1.383 . S
C1205 C1201 1.495 . S
C1205 H1211 0.959 . S
C1205 H1212 0.961 . S
C1205 H1213 0.960 . S
C1206 C1204 1.381 . S
C1206 C1207 1.394 . S
C1206 H1214 0.930 . S
C1207 C1206 1.394 . S
C1207 C1208 1.383 . S
C1207 H1215 0.929 . S
C1208 C1207 1.383 . S
C1208 C1209 1.377 . S
C1209 H1193 0.930 . S
C1209 C1208 1.377 . S
C1209 C1210 1.379 . S
C1210 H1194 0.931 . S
C1210 C1204 1.383 . S
C1210 C1209 1.379 . S
H1211 C1205 0.959 . S
H1212 C1205 0.961 . S
H1213 C1205 0.960 . S
H1214 C1206 0.930 . S
H1215 C1207 0.929 . S
H1216 C1224 0.929 . S
H1217 C1226 0.930 . S
H1218 C1228 0.930 . S
H1219 C1231 0.929 . S
H1220 C1234 0.930 . S
H1221 C1236 0.956 1_655 S
H1222 C1236 0.960 . S
H1223 C1236 0.960 . S
C1224 H1216 0.929 . S
C1224 C1225 1.377 . S
C1224 C1226 1.384 . S
C1225 C1224 1.377 . S
C1225 C1231 1.390 . S
C1226 H1217 0.930 . S
C1226 C1224 1.384 . S
C1226 C1227 1.372 . S
C1227 C1226 1.372 . S
C1227 C1228 1.400 . S
C1227 C1232 1.490 . S
C1228 H1218 0.930 . S
C1228 C1227 1.400 . S
C1228 C1231 1.386 . S
H1229 C1245 0.930 1_655 S
H1230 C1246 0.931 . S
C1231 H1219 0.929 . S
C1231 C1225 1.390 . S
C1231 C1228 1.386 . S
C1232 C1227 1.490 . S
C1232 C1234 1.395 . S
C1232 C1235 1.403 . S
H1233 C1239 0.930 . S
C1234 H1220 0.930 . S
C1234 C1232 1.395 . S
C1234 C1237 1.403 . S
C1235 C1232 1.403 . S
C1235 C1236 1.524 . S
C1235 C1239 1.400 . S
C1236 H1221 0.956 1_455 S
C1236 H1222 0.960 . S
C1236 H1223 0.960 . S
C1236 C1235 1.524 . S
C1237 C1234 1.403 . S
C1237 C1238 1.392 . S
C1237 C1241 1.495 . S
C1238 C1237 1.392 . S
C1238 C1239 1.385 . S
C1238 C1240 1.478 . S
C1239 H1233 0.930 . S
C1239 C1235 1.400 . S
C1239 C1238 1.385 . S
C1240 C1238 1.478 . S
C1240 C1242 1.381 . S
C1240 C1246 1.383 . S
C1241 C1237 1.495 . S
C1241 H1247 0.959 . S
C1241 H1248 0.961 . S
C1241 H1249 0.960 . S
C1242 C1240 1.381 . S
C1242 C1243 1.394 . S
C1242 H1250 0.930 . S
C1243 C1242 1.394 . S
C1243 C1244 1.383 . S
C1243 H1251 0.929 . S
C1244 C1243 1.383 . S
C1244 C1245 1.377 . S
C1245 H1229 0.930 1_455 S
C1245 C1244 1.377 . S
C1245 C1246 1.379 . S
C1246 H1230 0.931 . S
C1246 C1240 1.383 . S
C1246 C1245 1.379 . S
H1247 C1241 0.959 . S
H1248 C1241 0.961 . S
H1249 C1241 0.960 . S
H1250 C1242 0.930 . S
H1251 C1243 0.929 . S
H1252 C1260 0.929 . S
H1253 C1262 0.930 . S
H1254 C1264 0.930 . S
H1255 C1267 0.929 . S
H1256 C1270 0.930 . S
H1257 C1272 0.960 . S
H1258 C1272 0.960 . S
H1259 C1272 0.960 . S
C1260 H1252 0.929 . S
C1260 C1261 1.377 . S
C1260 C1262 1.384 . S
C1261 C1260 1.377 . S
C1261 C1267 1.390 . S
C1262 H1253 0.930 . S
C1262 C1260 1.384 . S
C1262 C1263 1.372 . S
C1263 C1262 1.372 . S
C1263 C1264 1.400 . S
C1263 C1268 1.490 . S
C1264 H1254 0.930 . S
C1264 C1263 1.400 . S
C1264 C1267 1.386 . S
H1265 C1281 0.930 . S
H1266 C1282 0.931 . S
C1267 H1255 0.929 . S
C1267 C1261 1.390 . S
C1267 C1264 1.386 . S
C1268 C1263 1.490 . S
C1268 C1270 1.395 . S
C1268 C1271 1.403 . S
H1269 C1275 0.930 . S
C1270 H1256 0.930 . S
C1270 C1268 1.395 . S
C1270 C1273 1.403 . S
C1271 C1268 1.403 . S
C1271 C1272 1.524 . S
C1271 C1275 1.400 . S
C1272 H1257 0.960 . S
C1272 H1258 0.960 . S
C1272 H1259 0.960 . S
C1272 C1271 1.524 . S
C1273 C1270 1.403 . S
C1273 C1274 1.392 . S
C1273 C1277 1.495 . S
C1274 C1273 1.392 . S
C1274 C1275 1.385 . S
C1274 C1276 1.478 . S
C1275 H1269 0.930 . S
C1275 C1271 1.400 . S
C1275 C1274 1.385 . S
C1276 C1274 1.478 . S
C1276 C1278 1.381 . S
C1276 C1282 1.383 . S
C1277 C1273 1.495 . S
C1277 H1283 0.959 . S
C1277 H1284 0.961 . S
C1277 H1285 0.960 . S
C1278 C1276 1.381 . S
C1278 C1279 1.394 . S
C1278 H1286 0.930 . S
C1279 C1278 1.394 . S
C1279 C1280 1.383 . S
C1279 H1287 0.929 . S
C1280 C1279 1.383 . S
C1280 C1281 1.377 . S
C1281 H1265 0.930 . S
C1281 C1280 1.377 . S
C1281 C1282 1.379 . S
C1282 H1266 0.931 . S
C1282 C1276 1.383 . S
C1282 C1281 1.379 . S
H1283 C1277 0.959 . S
H1284 C1277 0.961 . S
H1285 C1277 0.960 . S
H1286 C1278 0.930 . S
H1287 C1279 0.929 . S
H1288 C1296 0.929 . S
H1289 C1298 0.930 . S
H1290 C1300 0.930 . S
H1291 C1303 0.929 . S
H1292 C1306 0.930 . S
H1293 C1308 0.960 . S
H1294 C1308 0.960 . S
H1295 C1308 0.960 . S
C1296 H1288 0.929 . S
C1296 C1297 1.377 . S
C1296 C1298 1.384 . S
C1297 C1296 1.377 . S
C1297 C1303 1.390 . S
C1298 H1289 0.930 . S
C1298 C1296 1.384 . S
C1298 C1299 1.372 . S
C1299 C1298 1.372 . S
C1299 C1300 1.400 . S
C1299 C1304 1.490 . S
C1300 H1290 0.930 . S
C1300 C1299 1.400 . S
C1300 C1303 1.386 . S
H1301 C1317 0.930 . S
H1302 C1318 0.931 . S
C1303 H1291 0.929 . S
C1303 C1297 1.390 . S
C1303 C1300 1.386 . S
C1304 C1299 1.490 . S
C1304 C1306 1.395 . S
C1304 C1307 1.403 . S
H1305 C1311 0.930 . S
C1306 H1292 0.930 . S
C1306 C1304 1.395 . S
C1306 C1309 1.403 . S
C1307 C1304 1.403 . S
C1307 C1308 1.524 . S
C1307 C1311 1.400 . S
C1308 H1293 0.960 . S
C1308 H1294 0.960 . S
C1308 H1295 0.960 . S
C1308 C1307 1.524 . S
C1309 C1306 1.403 . S
C1309 C1310 1.392 . S
C1309 C1313 1.495 . S
C1310 C1309 1.392 . S
C1310 C1311 1.385 . S
C1310 C1312 1.478 . S
C1311 H1305 0.930 . S
C1311 C1307 1.400 . S
C1311 C1310 1.385 . S
C1312 C1310 1.478 . S
C1312 C1314 1.381 . S
C1312 C1318 1.383 . S
C1313 C1309 1.495 . S
C1313 H1319 0.959 . S
C1313 H1320 0.961 . S
C1313 H1321 0.960 . S
C1314 C1312 1.381 . S
C1314 C1315 1.394 . S
C1314 H1322 0.930 . S
C1315 C1314 1.394 . S
C1315 C1316 1.383 . S
C1315 H1323 0.929 . S
C1316 C1315 1.383 . S
C1316 C1317 1.377 . S
C1317 H1301 0.930 . S
C1317 C1316 1.377 . S
C1317 C1318 1.379 . S
C1318 H1302 0.931 . S
C1318 C1312 1.383 . S
C1318 C1317 1.379 . S
H1319 C1313 0.959 . S
H1320 C1313 0.961 . S
H1321 C1313 0.960 . S
H1322 C1314 0.930 . S
H1323 C1315 0.929 . S
H1324 C1332 0.929 . S
H1325 C1334 0.930 . S
H1326 C1336 0.930 . S
H1327 C1339 0.929 . S
H1328 C1342 0.930 . S
H1329 C1344 0.960 . S
H1330 C1344 0.960 . S
H1331 C1344 0.960 . S
C1332 H1324 0.929 . S
C1332 C1333 1.377 . S
C1332 C1334 1.384 . S
C1333 C1332 1.377 . S
C1333 C1339 1.390 . S
C1334 H1325 0.930 . S
C1334 C1332 1.384 . S
C1334 C1335 1.372 . S
C1335 C1334 1.372 . S
C1335 C1336 1.400 . S
C1335 C1340 1.490 . S
C1336 H1326 0.930 . S
C1336 C1335 1.400 . S
C1336 C1339 1.386 . S
H1337 C1353 0.930 . S
H1338 C1354 0.931 . S
C1339 H1327 0.929 . S
C1339 C1333 1.390 . S
C1339 C1336 1.386 . S
C1340 C1335 1.490 . S
C1340 C1342 1.395 . S
C1340 C1343 1.403 . S
H1341 C1347 0.930 . S
C1342 H1328 0.930 . S
C1342 C1340 1.395 . S
C1342 C1345 1.403 . S
C1343 C1340 1.403 . S
C1343 C1344 1.524 . S
C1343 C1347 1.400 . S
C1344 H1329 0.960 . S
C1344 H1330 0.960 . S
C1344 H1331 0.960 . S
C1344 C1343 1.524 . S
C1345 C1342 1.403 . S
C1345 C1346 1.392 . S
C1345 C1349 1.495 . S
C1346 C1345 1.392 . S
C1346 C1347 1.385 . S
C1346 C1348 1.478 . S
C1347 H1341 0.930 . S
C1347 C1343 1.400 . S
C1347 C1346 1.385 . S
C1348 C1346 1.478 . S
C1348 C1350 1.381 . S
C1348 C1354 1.383 . S
C1349 C1345 1.495 . S
C1349 H1355 0.959 . S
C1349 H1356 0.961 . S
C1349 H1357 0.960 . S
C1350 C1348 1.381 . S
C1350 C1351 1.394 . S
C1350 H1358 0.930 . S
C1351 C1350 1.394 . S
C1351 C1352 1.383 . S
C1351 H1359 0.929 . S
C1352 C1351 1.383 . S
C1352 C1353 1.377 . S
C1353 H1337 0.930 . S
C1353 C1352 1.377 . S
C1353 C1354 1.379 . S
C1354 H1338 0.931 . S
C1354 C1348 1.383 . S
C1354 C1353 1.379 . S
H1355 C1349 0.959 . S
H1356 C1349 0.961 . S
H1357 C1349 0.960 . S
H1358 C1350 0.930 . S
H1359 C1351 0.929 . S
H1360 C1368 0.929 . S
H1361 C1370 0.977 . S
H1362 C1372 0.930 . S
H1363 C1375 0.929 . S
H1364 C1378 0.964 . S
H1365 C1380 0.960 . S
H1366 C1380 0.960 . S
H1367 C1380 0.960 . S
C1368 H1360 0.929 . S
C1368 C1369 1.377 . S
C1368 C1370 1.384 . S
C1369 C1368 1.377 . S
C1369 C1375 1.390 . S
C1370 H1361 0.977 . S
C1370 C1368 1.384 . S
C1370 C1371 1.372 . S
C1371 C1370 1.372 . S
C1371 C1372 1.400 . S
C1371 C1376 1.490 . S
C1372 H1362 0.930 . S
C1372 C1371 1.400 . S
C1372 C1375 1.386 . S
H1373 C1389 0.930 . S
H1374 C1390 0.931 . S
C1375 H1363 0.929 . S
C1375 C1369 1.390 . S
C1375 C1372 1.386 . S
C1376 C1371 1.490 . S
C1376 C1378 1.395 . S
C1376 C1379 1.403 . S
H1377 C1383 0.930 . S
C1378 H1364 0.964 . S
C1378 C1376 1.395 . S
C1378 C1381 1.403 . S
C1379 C1376 1.403 . S
C1379 C1380 1.524 . S
C1379 C1383 1.400 . S
C1380 H1365 0.960 . S
C1380 H1366 0.960 . S
C1380 H1367 0.960 . S
C1380 C1379 1.524 . S
C1381 C1378 1.403 . S
C1381 C1382 1.392 . S
C1381 C1385 1.495 1_655 S
C1382 C1381 1.392 . S
C1382 C1383 1.385 . S
C1382 C1384 1.478 . S
C1383 H1377 0.930 . S
C1383 C1379 1.400 . S
C1383 C1382 1.385 . S
C1384 C1382 1.478 . S
C1384 C1386 1.381 1_655 S
C1384 C1390 1.383 . S
C1385 C1381 1.495 1_455 S
C1385 H1391 0.959 . S
C1385 H1392 0.961 . S
C1385 H1393 0.960 . S
C1386 C1384 1.381 1_455 S
C1386 C1387 1.394 . S
C1386 H1394 0.930 . S
C1387 C1386 1.394 . S
C1387 C1388 1.383 1_455 S
C1387 H1395 0.929 . S
C1388 C1387 1.383 1_655 S
C1388 C1389 1.377 . S
C1389 H1373 0.930 . S
C1389 C1388 1.377 . S
C1389 C1390 1.379 . S
C1390 H1374 0.931 . S
C1390 C1384 1.383 . S
C1390 C1389 1.379 . S
H1391 C1385 0.959 . S
H1392 C1385 0.961 . S
H1393 C1385 0.960 . S
H1394 C1386 0.930 . S
H1395 C1387 0.929 . S
H1396 C1404 0.929 . S
H1397 C1406 0.930 . S
H1398 C1408 0.930 . S
H1399 C1411 0.929 . S
H1400 C1414 0.930 . S
H1401 C1416 0.960 . S
H1402 C1416 0.960 . S
H1403 C1416 0.960 . S
C1404 H1396 0.929 . S
C1404 C1405 1.377 . S
C1404 C1406 1.384 . S
C1405 C1404 1.377 . S
C1405 C1411 1.390 . S
C1406 H1397 0.930 . S
C1406 C1404 1.384 . S
C1406 C1407 1.372 . S
C1407 C1406 1.372 . S
C1407 C1408 1.400 . S
C1407 C1412 1.490 . S
C1408 H1398 0.930 . S
C1408 C1407 1.400 . S
C1408 C1411 1.386 . S
H1409 C1425 0.930 . S
H1410 C1426 0.931 . S
C1411 H1399 0.929 . S
C1411 C1405 1.390 . S
C1411 C1408 1.386 . S
C1412 C1407 1.490 . S
C1412 C1414 1.395 . S
C1412 C1415 1.403 . S
H1413 C1419 0.930 . S
C1414 H1400 0.930 . S
C1414 C1412 1.395 . S
C1414 C1417 1.403 . S
C1415 C1412 1.403 . S
C1415 C1416 1.524 . S
C1415 C1419 1.400 . S
C1416 H1401 0.960 . S
C1416 H1402 0.960 . S
C1416 H1403 0.960 . S
C1416 C1415 1.524 . S
C1417 C1414 1.403 . S
C1417 C1418 1.392 . S
C1417 C1421 1.495 . S
C1418 C1417 1.392 . S
C1418 C1419 1.385 . S
C1418 C1420 1.478 . S
C1419 H1413 0.930 . S
C1419 C1415 1.400 . S
C1419 C1418 1.385 . S
C1420 C1418 1.478 . S
C1420 C1422 1.381 . S
C1420 C1426 1.383 . S
C1421 C1417 1.495 . S
C1421 H1427 0.959 . S
C1421 H1428 0.961 . S
C1421 H1429 0.960 . S
C1422 C1420 1.381 . S
C1422 C1423 1.394 . S
C1422 H1430 0.930 . S
C1423 C1422 1.394 . S
C1423 C1424 1.383 . S
C1423 H1431 0.929 . S
C1424 C1423 1.383 . S
C1424 C1425 1.377 . S
C1425 H1409 0.930 . S
C1425 C1424 1.377 . S
C1425 C1426 1.379 . S
C1426 H1410 0.931 . S
C1426 C1420 1.383 . S
C1426 C1425 1.379 . S
H1427 C1421 0.959 . S
H1428 C1421 0.961 . S
H1429 C1421 0.960 . S
H1430 C1422 0.930 . S
H1431 C1423 0.929 . S
H1432 C1440 0.929 . S
H1433 C1442 0.930 . S
H1434 C1444 0.930 . S
H1435 C1447 0.929 . S
H1436 C1450 0.930 . S
H1437 C1452 0.960 . S
H1438 C1452 0.960 . S
H1439 C1452 0.960 . S
C1440 H1432 0.929 . S
C1440 C1441 1.377 . S
C1440 C1442 1.384 . S
C1441 C1440 1.377 . S
C1441 C1447 1.390 . S
C1442 H1433 0.930 . S
C1442 C1440 1.384 . S
C1442 C1443 1.372 . S
C1443 C1442 1.372 . S
C1443 C1444 1.400 . S
C1443 C1448 1.490 . S
C1444 H1434 0.930 . S
C1444 C1443 1.400 . S
C1444 C1447 1.386 . S
H1445 C1461 0.930 . S
H1446 C1462 0.931 . S
C1447 H1435 0.929 . S
C1447 C1441 1.390 . S
C1447 C1444 1.386 . S
C1448 C1443 1.490 . S
C1448 C1450 1.395 . S
C1448 C1451 1.403 . S
H1449 C1455 0.930 . S
C1450 H1436 0.930 . S
C1450 C1448 1.395 . S
C1450 C1453 1.403 . S
C1451 C1448 1.403 . S
C1451 C1452 1.524 . S
C1451 C1455 1.400 . S
C1452 H1437 0.960 . S
C1452 H1438 0.960 . S
C1452 H1439 0.960 . S
C1452 C1451 1.524 . S
C1453 C1450 1.403 . S
C1453 C1454 1.392 . S
C1453 C1457 1.495 . S
C1454 C1453 1.392 . S
C1454 C1455 1.385 . S
C1454 C1456 1.478 . S
C1455 H1449 0.930 . S
C1455 C1451 1.400 . S
C1455 C1454 1.385 . S
C1456 C1454 1.478 . S
C1456 C1458 1.381 . S
C1456 C1462 1.383 . S
C1457 C1453 1.495 . S
C1457 H1463 0.959 . S
C1457 H1464 0.961 . S
C1457 H1465 0.960 . S
C1458 C1456 1.381 . S
C1458 C1459 1.394 . S
C1458 H1466 0.930 . S
C1459 C1458 1.394 . S
C1459 C1460 1.383 . S
C1459 H1467 0.929 . S
C1460 C1459 1.383 . S
C1460 C1461 1.377 . S
C1461 H1445 0.930 . S
C1461 C1460 1.377 . S
C1461 C1462 1.379 . S
C1462 H1446 0.931 . S
C1462 C1456 1.383 . S
C1462 C1461 1.379 . S
H1463 C1457 0.959 . S
H1464 C1457 0.961 . S
H1465 C1457 0.960 . S
H1466 C1458 0.930 . S
H1467 C1459 0.929 . S
H1468 C1476 0.929 . S
H1469 C1478 0.930 . S
H1470 C1480 0.930 . S
H1471 C1483 0.929 . S
H1472 C1486 0.930 . S
H1473 C1488 0.960 . S
H1474 C1488 0.960 . S
H1475 C1488 0.960 . S
C1476 H1468 0.929 . S
C1476 C1477 1.377 . S
C1476 C1478 1.384 . S
C1477 C1476 1.377 . S
C1477 C1483 1.390 . S
C1478 H1469 0.930 . S
C1478 C1476 1.384 . S
C1478 C1479 1.372 . S
C1479 C1478 1.372 . S
C1479 C1480 1.400 . S
C1479 C1484 1.490 . S
C1480 H1470 0.930 . S
C1480 C1479 1.400 . S
C1480 C1483 1.386 . S
H1481 C1497 0.930 . S
H1482 C1498 0.931 . S
C1483 H1471 0.929 . S
C1483 C1477 1.390 . S
C1483 C1480 1.386 . S
C1484 C1479 1.490 . S
C1484 C1486 1.395 . S
C1484 C1487 1.403 . S
H1485 C1491 0.930 . S
C1486 H1472 0.930 . S
C1486 C1484 1.395 . S
C1486 C1489 1.403 . S
C1487 C1484 1.403 . S
C1487 C1488 1.524 . S
C1487 C1491 1.400 . S
C1488 H1473 0.960 . S
C1488 H1474 0.960 . S
C1488 H1475 0.960 . S
C1488 C1487 1.524 . S
C1489 C1486 1.403 . S
C1489 C1490 1.392 . S
C1489 C1493 1.495 . S
C1490 C1489 1.392 . S
C1490 C1491 1.385 . S
C1490 C1492 1.478 . S
C1491 H1485 0.930 . S
C1491 C1487 1.400 . S
C1491 C1490 1.385 . S
C1492 C1490 1.478 . S
C1492 C1494 1.381 . S
C1492 C1498 1.383 . S
C1493 C1489 1.495 . S
C1493 H1499 0.959 . S
C1493 H1500 0.961 . S
C1493 H1501 0.960 . S
C1494 C1492 1.381 . S
C1494 C1495 1.394 . S
C1494 H1502 0.930 . S
C1495 C1494 1.394 . S
C1495 C1496 1.383 . S
C1495 H1503 0.929 . S
C1496 C1495 1.383 . S
C1496 C1497 1.377 . S
C1497 H1481 0.930 . S
C1497 C1496 1.377 . S
C1497 C1498 1.379 . S
C1498 H1482 0.931 . S
C1498 C1492 1.383 . S
C1498 C1497 1.379 . S
H1499 C1493 0.959 . S
H1500 C1493 0.961 . S
H1501 C1493 0.960 . S
H1502 C1494 0.930 . S
H1503 C1495 0.929 . S
C649 C391 2.710 . S
C668 C511 2.738 . S
C704 C537 1.980 . S
C685 C451 1.920 . S
C740 C577 2.100 . S
C721 C241 1.827 . S
C776 C631 2.688 . S
C757 C331 2.386 . S
C812 C492 2.736 . S
C793 C121 2.452 . S
C829 C211 1.952 . S
C848 C522 1.976 . S
C865 C31 2.017 . S
C884 C562 2.101 . S
C901 C91 2.422 . S
C920 C612 2.672 1_655 S
C956 C488 0.348 1_655 S
C937 C301 0.648 . S
C992 C549 0.501 . S
C973 C380 0.445 . S
C1028 C589 0.180 . S
C1009 C440 0.272 . S
C1045 C260 0.777 . S
C1064 C608 0.418 . S
C1081 C61 0.469 . S
C1100 C509 0.261 . S
C1136 C528 0.400 . S
C1117 C140 0.481 . S
C1172 C568 0.340 . S
C1153 C200 0.210 . S
C1189 C20 0.598 . S
C1208 C629 0.369 . S
C1225 C320 2.361 . S
C1244 C482 2.511 . S
C1261 C361 2.880 . S
C1280 C532 3.330 . S
C1316 C572 2.994 . S
C1297 C421 2.534 . S
C1352 C602 2.252 . S
C1333 C271 2.120 . S
C1369 C80 2.391 . S
C1388 C497 2.518 . S
C1424 C551 3.330 . S
C1405 C151 3.197 . S
C1460 C591 2.985 . S
C1441 C181 2.585 . S
C1477 C1 1.847 . S
C1496 C617 2.263 . S
