# Generated by pormake.
# Topology zzz, (3,6)-cn, num edge types: 1
# Building blocks:
#     Node 0, Type 0, BuildingBlock: QEWDON_clean_linker_0, # of connection points: 3
#     Node 1, Type 0, BuildingBlock: QEWDON_clean_linker_0, # of connection points: 3
#     Node 2, Type 0, BuildingBlock: QEWDON_clean_linker_0, # of connection points: 3
#     Node 3, Type 0, BuildingBlock: QEWDON_clean_linker_0, # of connection points: 3
#     Node 4, Type 0, BuildingBlock: QEWDON_clean_linker_0, # of connection points: 3
#     Node 5, Type 0, BuildingBlock: QEWDON_clean_linker_0, # of connection points: 3
#     Node 6, Type 0, BuildingBlock: QEWDON_clean_linker_0, # of connection points: 3
#     Node 7, Type 0, BuildingBlock: QEWDON_clean_linker_0, # of connection points: 3
#     Node 8, Type 1, BuildingBlock: INOVEN_clean_sbu_0, # of connection points: 6
#     Node 9, Type 1, BuildingBlock: INOVEN_clean_sbu_0, # of connection points: 6
#     Node 10, Type 1, BuildingBlock: INOVEN_clean_sbu_0, # of connection points: 6
#     Node 11, Type 1, BuildingBlock: INOVEN_clean_sbu_0, # of connection points: 6
#     Edge 12, Type (0, 1), BuildingBlock: XIVTED_clean_linker_0, # of connection points: 2
#     Edge 13, Type (0, 1), BuildingBlock: XIVTED_clean_linker_0, # of connection points: 2
#     Edge 14, Type (0, 1), BuildingBlock: XIVTED_clean_linker_0, # of connection points: 2
#     Edge 15, Type (0, 1), BuildingBlock: XIVTED_clean_linker_0, # of connection points: 2
#     Edge 16, Type (0, 1), BuildingBlock: XIVTED_clean_linker_0, # of connection points: 2
#     Edge 17, Type (0, 1), BuildingBlock: XIVTED_clean_linker_0, # of connection points: 2
#     Edge 18, Type (0, 1), BuildingBlock: XIVTED_clean_linker_0, # of connection points: 2
#     Edge 19, Type (0, 1), BuildingBlock: XIVTED_clean_linker_0, # of connection points: 2
#     Edge 20, Type (0, 1), BuildingBlock: XIVTED_clean_linker_0, # of connection points: 2
#     Edge 21, Type (0, 1), BuildingBlock: XIVTED_clean_linker_0, # of connection points: 2
#     Edge 22, Type (0, 1), BuildingBlock: XIVTED_clean_linker_0, # of connection points: 2
#     Edge 23, Type (0, 1), BuildingBlock: XIVTED_clean_linker_0, # of connection points: 2
#     Edge 24, Type (0, 1), BuildingBlock: XIVTED_clean_linker_0, # of connection points: 2
#     Edge 25, Type (0, 1), BuildingBlock: XIVTED_clean_linker_0, # of connection points: 2
#     Edge 26, Type (0, 1), BuildingBlock: XIVTED_clean_linker_0, # of connection points: 2
#     Edge 27, Type (0, 1), BuildingBlock: XIVTED_clean_linker_0, # of connection points: 2
#     Edge 28, Type (0, 1), BuildingBlock: XIVTED_clean_linker_0, # of connection points: 2
#     Edge 29, Type (0, 1), BuildingBlock: XIVTED_clean_linker_0, # of connection points: 2
#     Edge 30, Type (0, 1), BuildingBlock: XIVTED_clean_linker_0, # of connection points: 2
#     Edge 31, Type (0, 1), BuildingBlock: XIVTED_clean_linker_0, # of connection points: 2
#     Edge 32, Type (0, 1), BuildingBlock: XIVTED_clean_linker_0, # of connection points: 2
#     Edge 33, Type (0, 1), BuildingBlock: XIVTED_clean_linker_0, # of connection points: 2
#     Edge 34, Type (0, 1), BuildingBlock: XIVTED_clean_linker_0, # of connection points: 2
#     Edge 35, Type (0, 1), BuildingBlock: XIVTED_clean_linker_0, # of connection points: 2
# Relax obj value: 0.166
# Max RMSD: 0.169
# Mean RMSD: 0.121
data_MOF--net-zzz--node1-INOVEN_clean_sbu_0--node2-QEWDON_clean_linker_0--edge1-XIVTED_clean_linker_0
_symmetry_space_group_name_H-M    P1
_symmetry_Int_Tables_number       1
_symmetry_cell_setting            triclinic
loop_
_symmetry_equiv_pos_as_xyz
'x, y, z'
_cell_length_a     55.764556
_cell_length_b     55.756585
_cell_length_c     12.848738
_cell_angle_alpha  90.134086
_cell_angle_beta   89.988897
_cell_angle_gamma 90.154896
loop_
_atom_site_label
_atom_site_type_symbol
_atom_site_fract_x
_atom_site_fract_y
_atom_site_fract_z
_atom_type_partial_charge
H0 H 0.7599 0.4986 0.26256 0.0
C1 C 0.77408 0.50683 0.30801 0.0
C2 C 0.7975 0.49824 0.29746 0.0
C3 C 0.7689 0.52526 0.38007 0.0
H4 H 0.83422 0.50198 0.34606 0.0
C5 C 0.81601 0.50842 0.35625 0.0
C6 C 0.81162 0.52692 0.42683 0.0
C7 C 0.78797 0.53527 0.43974 0.0
C8 C 0.74342 0.53264 0.39716 0.0
H9 H 0.78453 0.54959 0.49482 0.0
C10 C 0.72686 0.53403 0.31365 0.0
C11 C 0.70217 0.53848 0.33169 0.0
C12 C 0.73511 0.5366 0.49889 0.0
H13 H 0.74712 0.5353 0.56485 0.0
C14 C 0.71095 0.54117 0.51753 0.0
H15 H 0.73332 0.53176 0.23486 0.0
C16 C 0.6946 0.54179 0.43547 0.0
H17 H 0.6759 0.54436 0.45461 0.0
H18 H 0.70472 0.5437 0.5966 0.0
H19 H 0.0635 0.75825 0.2803 0.0
C20 C 0.05639 0.77254 0.32847 0.0
C21 C 0.06461 0.79594 0.31234 0.0
C22 C 0.03925 0.76764 0.40654 0.0
H23 H 0.06116 0.83296 0.35752 0.0
C24 C 0.05551 0.81466 0.37313 0.0
C25 C 0.03801 0.81063 0.44862 0.0
C26 C 0.03003 0.78699 0.4667 0.0
C27 C 0.03172 0.74226 0.42579 0.0
H28 H 1.01634 0.78382 0.52491 0.0
C29 C 0.02921 0.72565 0.3428 0.0
C30 C 0.02497 0.70098 0.36162 0.0
C31 C 0.02875 0.73406 0.52818 0.0
H32 H 0.03083 0.74614 0.5937 0.0
C33 C 0.02414 0.7099 0.54771 0.0
H34 H 0.03052 0.73208 0.26362 0.0
C35 C 1.02261 0.69347 0.46585 0.0
H36 H 1.02012 0.67477 0.48536 0.0
H37 H 1.02235 0.70374 0.62717 0.0
H38 H 0.79929 0.06524 0.2486 0.0
C39 C 0.78469 0.05828 0.29524 0.0
C40 C 0.76247 0.06992 0.29061 0.0
C41 C 0.78786 0.0378 0.35816 0.0
H42 H 0.72596 0.06991 0.34593 0.0
C43 C 0.74345 0.06152 0.35187 0.0
C44 C 0.74573 0.04102 0.41295 0.0
C45 C 0.76788 0.02896 0.41548 0.0
C46 C 0.81201 0.02602 0.36433 0.0
H47 H 0.76937 1.01272 0.46105 0.0
C48 C 0.82823 0.02625 0.27907 0.0
C49 C 0.85157 1.0166 0.28813 0.0
C50 C 0.81953 1.01541 0.45801 0.0
H51 H 0.80805 1.01531 0.52594 0.0
C52 C 0.84235 1.00546 0.46685 0.0
H53 H 0.82269 0.03367 0.20517 0.0
C54 C 0.85828 1.00614 0.38325 0.0
H55 H 0.87611 0.99895 0.39428 0.0
H56 H 0.84791 0.99757 0.53984 0.0
H57 H 0.49236 0.8003 0.26305 0.0
C58 C 0.50118 0.78629 0.30683 0.0
C59 C 0.49285 0.7627 0.29671 0.0
C60 C 0.52021 0.79176 0.37564 0.0
H61 H 0.4974 0.72599 0.34375 0.0
C62 C 0.50364 0.74432 0.35362 0.0
C63 C 0.52269 0.74892 0.4209 0.0
C64 C 0.53102 0.77268 0.43238 0.0
C65 C 0.52777 0.81739 0.39159 0.0
H66 H 0.54596 0.77615 0.48413 0.0
C67 C 0.52679 0.83453 0.30997 0.0
C68 C 0.53205 0.85903 0.32872 0.0
C69 C 0.53474 0.82525 0.49127 0.0
H70 H 0.53523 0.81298 0.5564 0.0
C71 C 0.54043 0.84926 0.50956 0.0
H72 H 0.52161 0.82898 0.23235 0.0
C73 C 0.539 0.86602 0.42947 0.0
H74 H 0.54357 0.88451 0.44639 0.0
H75 H 0.54571 0.85498 0.5868 0.0
H76 H 0.29718 0.50833 0.2271 0.0
C77 C 0.28473 0.50959 0.16276 0.0
C78 C 0.26338 0.49635 0.1687 0.0
C79 C 0.28894 0.52581 0.08038 0.0
H80 H 0.2288 0.49014 0.09854 0.0
C81 C 0.24603 0.49908 0.09081 0.0
C82 C 0.24886 0.5159 0.01159 0.0
C83 C 0.2705 0.52892 0.00487 0.0
C84 C 0.31126 0.54116 0.0816 0.0
H85 H 0.27242 0.54181 0.94264 0.0
C86 C 0.33246 0.53361 0.13335 0.0
C87 C 0.35245 0.54906 0.14482 0.0
C88 C 0.3111 0.56428 0.03756 0.0
H89 H 0.29531 0.57139 8e-05 0.0
C90 C 0.33113 0.57923 0.04482 0.0
H91 H 0.33356 0.51572 0.16535 0.0
C92 C 0.35152 0.57186 0.09855 0.0
H93 H 0.36625 0.58441 0.10666 0.0
H94 H 0.33057 0.59701 0.0112 0.0
H95 H 0.0494 0.29591 0.22279 0.0
C96 C 0.04675 0.28453 0.15536 0.0
C97 C 0.0606 0.26364 0.14678 0.0
C98 C 0.02834 0.28956 0.083 0.0
H99 H 0.06572 0.23078 0.06088 0.0
C100 C 0.05622 0.24774 0.06427 0.0
C101 C 0.03724 0.25126 0.99563 0.0
C102 C 0.02357 0.27237 0.00346 0.0
C103 C 1.01277 0.31136 0.09783 0.0
H104 H 1.00907 0.2749 0.94875 0.0
C105 C 1.02144 0.33227 0.14908 0.0
C106 C 1.00623 0.35199 0.16955 0.0
C107 C 0.98861 0.31102 0.06566 0.0
H108 H 0.98072 0.29533 0.02974 0.0
C109 C 0.97377 0.33072 0.08271 0.0
H110 H 0.04001 0.33337 0.17304 0.0
C111 C 0.98238 0.35095 0.13448 0.0
H112 H 0.97005 0.3655 0.14997 0.0
H113 H 0.95522 0.33004 0.05791 0.0
H114 H 0.25507 0.99475 0.17149 0.0
C115 C 0.26912 1.00169 0.12171 0.0
C116 C 0.29117 0.98968 0.11937 0.0
C117 C 0.26528 1.02217 0.05927 0.0
H118 H 0.32672 0.98896 0.05403 0.0
C119 C 0.30943 0.99788 0.05372 0.0
C120 C 0.30657 1.01843 0.9936 0.0
C121 C 0.28461 0.0308 0.99719 0.0
C122 C 0.24105 0.03394 0.0565 0.0
H123 H 0.28275 0.04704 0.95196 0.0
C124 C 0.22525 0.0335 0.14328 0.0
C125 C 0.20197 0.04345 0.13705 0.0
C126 C 0.23303 0.04482 0.96408 0.0
H127 H 0.24404 0.04498 0.89473 0.0
C128 C 0.21029 0.05501 0.95814 0.0
H129 H 0.23103 0.02571 0.21611 0.0
C130 C 0.19485 0.05429 0.04335 0.0
H131 H 0.17705 0.06172 0.03468 0.0
H132 H 0.20439 0.06314 0.88615 0.0
H133 H 0.48833 0.25876 0.17574 0.0
C134 C 0.49464 0.27301 0.12556 0.0
C135 C 0.48776 0.29651 0.14874 0.0
C136 C 0.50945 0.26807 0.03881 0.0
H137 H 0.49068 0.33364 0.10525 0.0
C138 C 0.49537 0.31532 0.0849 0.0
C139 C 0.51046 0.31138 0.00021 0.0
C140 C 0.51749 0.28768 0.97649 0.0
C141 C 0.51613 0.24254 0.01406 0.0
H142 H 0.52967 0.28475 0.91213 0.0
C143 C 0.5179 0.22481 0.09303 0.0
C144 C 0.52221 0.20043 0.06842 0.0
C145 C 0.51959 0.23538 0.9101 0.0
H146 H 0.51789 0.24804 0.84687 0.0
C147 C 0.52446 0.2115 0.88545 0.0
H148 H 0.51614 0.22989 0.17396 0.0
C149 C 0.5256 0.19416 0.96338 0.0
H150 H 0.52853 0.17569 0.94064 0.0
H151 H 0.52685 0.20628 0.80491 0.0
Gd152 Gd 0.03455 0.02544 0.81394 0.0
Gd153 Gd 1.01724 0.03847 0.60412 0.0
C154 C 1.02284 0.98169 0.66014 0.0
C155 C 0.04322 1.01353 0.00295 0.0
C156 C 0.04689 0.98866 0.03776 0.0
C157 C 0.06752 0.98239 0.09371 0.0
C158 C 0.03238 0.97042 0.99616 0.0
C159 C 0.06053 0.94003 0.05451 0.0
C160 C 0.03921 0.94654 0.00337 0.0
C161 C 0.07416 0.95826 0.10301 0.0
C162 C 0.06933 0.02836 0.66716 0.0
C163 C 0.02746 0.08149 0.75902 0.0
C164 C 1.01534 0.04994 0.41149 0.0
C165 C 0.02585 0.07221 0.36797 0.0
C166 C 1.01262 0.09361 0.37115 0.0
C167 C 0.05056 0.07345 0.34597 0.0
C168 C 0.04937 0.11696 0.35617 0.0
C169 C 0.06225 0.09563 0.34078 0.0
C170 C 0.02427 0.11573 0.36559 0.0
C171 C 0.98187 0.03497 0.74813 0.0
O172 O 0.02634 0.98814 0.75784 0.0
O173 O 1.02005 0.99793 0.58603 0.0
O174 O 0.05993 1.0216 0.94075 0.0
O175 O 1.02158 1.01874 0.97039 0.0
O176 O 0.06823 1.01163 0.73662 0.0
O177 O 0.05228 0.0429 0.6794 0.0
O178 O 0.0287 0.07486 0.66069 0.0
O179 O 0.02639 0.06521 0.83372 0.0
O180 O 0.9971 0.05296 0.47457 0.0
O181 O 0.0308 0.0343 0.44707 0.0
O182 O 0.98203 0.05064 0.67368 0.0
O183 O 0.99946 1.02099 0.73858 0.0
H184 H 0.07908 0.99619 0.12588 0.0
H185 H 1.01641 0.9746 0.9519 0.0
H186 H 0.02818 0.93344 0.96361 0.0
H187 H 0.09026 0.95407 0.1462 0.0
H188 H 0.99349 0.09335 0.38578 0.0
H189 H 0.06125 0.0573 0.34097 0.0
H190 H 0.08153 0.09597 0.33124 0.0
H191 H 1.01366 0.13189 0.37294 0.0
Gd192 Gd 0.52975 0.04207 0.77455 0.0
Gd193 Gd 0.51986 1.01148 0.59719 0.0
C194 C 0.57407 0.02472 0.62277 0.0
C195 C 0.54931 0.06106 0.93773 0.0
C196 C 0.5747 0.06622 0.96021 0.0
C197 C 0.58151 0.08764 0.00927 0.0
C198 C 0.59248 0.05084 0.92233 0.0
C199 C 0.6238 0.07892 0.97501 0.0
C200 C 0.61653 0.05733 0.92711 0.0
C201 C 0.60583 0.09377 0.01816 0.0
C202 C 0.51801 0.0674 0.60232 0.0
C203 C 0.47524 0.03006 0.7449 0.0
C204 C 0.50053 0.99042 0.43877 0.0
C205 C 0.476 0.98109 0.423 0.0
C206 C 0.47232 0.95669 0.40018 0.0
C207 C 0.45604 0.99588 0.44012 0.0
C208 C 0.42914 0.9619 0.41656 0.0
C209 C 0.43292 0.98639 0.43696 0.0
C210 C 0.44905 0.94717 0.39655 0.0
C211 C 0.53171 0.98643 0.7701 0.0
O212 O 0.56698 0.03237 0.71522 0.0
O213 O 0.55827 1.01766 0.55296 0.0
O214 O 0.54004 0.07375 0.86265 0.0
O215 O 0.54344 0.03836 0.93152 0.0
O216 O 0.51022 0.07208 0.69528 0.0
O217 O 0.53172 0.04933 0.60422 0.0
O218 O 0.48231 1.02131 0.65405 0.0
O219 O 0.49102 0.03749 0.81405 0.0
O220 O 0.51321 0.97904 0.50817 0.0
O221 O 0.50292 1.01374 0.44576 0.0
O222 O 0.53969 0.98185 0.67755 0.0
O223 O 0.51778 1.00431 0.76754 0.0
H224 H 0.56803 0.09977 0.0395 0.0
H225 H 0.58785 0.03397 0.88574 0.0
H226 H 0.62913 0.04537 0.89012 0.0
H227 H 0.61031 0.11016 0.05893 0.0
H228 H 0.48745 0.94492 0.38725 0.0
H229 H 0.45821 1.01475 0.45804 0.0
H230 H 0.41794 0.99837 0.44976 0.0
H231 H 0.44667 0.92827 0.37975 0.0
Gd232 Gd 0.51762 0.5369 0.81761 0.0
Gd233 Gd 0.54217 0.52467 0.62438 0.0
C234 C 0.53657 0.58031 0.66365 0.0
C235 C 0.50109 0.55614 0.98539 0.0
C236 C 0.48629 0.5777 0.9955 0.0
C237 C 0.47812 0.58928 0.90536 0.0
C238 C 0.48148 0.58767 0.09324 0.0
C239 C 0.46239 0.62195 0.01004 0.0
C240 C 0.46953 0.60963 0.10056 0.0
C241 C 0.4663 0.61124 0.91251 0.0
C242 C 0.48723 0.52794 0.6565 0.0
C243 C 0.52555 0.48253 0.78073 0.0
C244 C 0.54981 0.50222 0.45368 0.0
C245 C 0.53689 0.48014 0.42388 0.0
C246 C 0.54968 0.45911 0.40255 0.0
C247 C 0.51189 0.47875 0.4382 0.0
C248 C 0.51311 0.43541 0.42152 0.0
C249 C 0.50015 0.45667 0.43697 0.0
C250 C 0.53789 0.43694 0.40104 0.0
C251 C 0.57324 0.53448 0.7802 0.0
O252 O 0.52813 0.57377 0.75576 0.0
O253 O 0.5424 0.56418 0.59273 0.0
O254 O 0.49067 0.53806 0.93881 0.0
O255 O 0.5229 0.55998 0.95158 0.0
O256 O 0.48359 0.52088 0.75093 0.0
O257 O 0.50641 0.53984 0.65244 0.0
O258 O 0.52572 0.4897 0.68291 0.0
O259 O 0.52683 0.49868 0.85555 0.0
O260 O 0.56389 0.4999 0.53444 0.0
O261 O 0.53692 0.52179 0.4576 0.0
O262 O 0.57712 0.53961 0.68304 0.0
O263 O 0.55389 0.52276 0.78988 0.0
H264 H 0.48157 0.58169 0.82912 0.0
H265 H 0.48768 0.57892 0.16345 0.0
H266 H 0.4671 0.61758 0.17681 0.0
H267 H 0.46088 0.62018 0.8416 0.0
H268 H 0.56897 0.45968 0.39247 0.0
H269 H 0.50151 0.49457 0.45677 0.0
H270 H 0.48112 0.45621 0.45368 0.0
H271 H 0.54832 0.42094 0.38612 0.0
Gd272 Gd 1.02232 0.51814 0.8324 0.0
Gd273 Gd 0.03552 0.54345 0.64287 0.0
C274 C 0.97978 0.53831 0.67725 0.0
C275 C 1.00259 0.50093 0.99755 0.0
C276 C 0.98099 0.48603 0.00508 0.0
C277 C 0.96977 0.478 0.91355 0.0
C278 C 0.97057 0.48109 0.10169 0.0
C279 C 0.93649 0.4623 0.01453 0.0
C280 C 0.94847 0.46923 0.10648 0.0
C281 C 0.94769 0.46625 0.91819 0.0
C282 C 0.03134 0.4884 0.66902 0.0
C283 C 0.07687 0.52587 0.79951 0.0
C284 C 0.05874 0.55196 0.47536 0.0
C285 C 0.08117 0.53951 0.44757 0.0
C286 C 0.10275 0.55245 0.44379 0.0
C287 C 0.08198 0.51425 0.44773 0.0
C288 C 0.12547 0.51526 0.45304 0.0
C289 C 0.10389 0.50228 0.45028 0.0
C290 C 0.1247 0.54044 0.44658 0.0
C291 C 0.02562 0.57381 0.80129 0.0
O292 O 0.98579 0.52936 0.76909 0.0
O293 O 0.99628 0.54418 0.60817 0.0
O294 O 1.02078 0.49074 0.9513 0.0
O295 O 0.99887 0.52286 0.96526 0.0
O296 O 0.03807 0.48428 0.76352 0.0
O297 O 1.01972 0.50771 0.66603 0.0
O298 O 0.07 0.52631 0.70135 0.0
O299 O 0.06052 0.52712 0.87334 0.0
O300 O 0.06036 0.56595 0.557 0.0
O301 O 0.03929 0.53875 0.47612 0.0
O302 O 1.02073 0.57816 0.70432 0.0
O303 O 0.03711 0.55437 0.8096 0.0
H304 H 0.97771 0.48159 0.83816 0.0
H305 H 0.97904 0.48718 0.17293 0.0
H306 H 0.94014 0.46677 0.18187 0.0
H307 H 0.93899 0.46101 0.84625 0.0
H308 H 0.10263 0.57188 0.44464 0.0
H309 H 0.06572 0.50365 0.45219 0.0
H310 H 0.10387 0.48289 0.4552 0.0
H311 H 0.14107 0.55093 0.44574 0.0
H312 H 0.19368 1.00562 0.27046 0.0
H313 H 0.07948 0.06707 0.54331 0.0
H314 H 0.17001 0.07763 0.20492 0.0
H315 H 0.10492 0.99644 0.62126 0.0
H316 H 0.11296 0.07145 0.42085 0.0
H317 H 0.16226 1.00228 0.40301 0.0
C318 C 0.18212 1.02085 0.2847 0.0
C319 C 0.18451 0.04189 0.22547 0.0
C320 C 0.11122 0.05496 0.46453 0.0
C321 C 0.14809 0.03803 0.3765 0.0
C322 C 0.09206 0.05245 0.53422 0.0
C323 C 0.08934 0.03132 0.59206 0.0
C324 C 0.12778 0.03616 0.45205 0.0
C325 C 0.10633 1.01303 0.57806 0.0
C326 C 0.16401 1.01886 0.35994 0.0
C327 C 0.16867 0.06089 0.247 0.0
N328 N 0.12473 1.01583 0.50938 0.0
N329 N 0.15116 0.05846 0.32005 0.0
H330 H 0.49364 0.19689 0.24314 0.0
H331 H 0.54363 0.06795 0.41871 0.0
H332 H 0.55042 0.1598 0.08133 0.0
H333 H 0.49215 0.10883 0.59525 0.0
H334 H 0.54503 0.10032 0.28922 0.0
H335 H 0.49222 0.16434 0.37002 0.0
C336 C 0.50601 0.18209 0.23459 0.0
C337 C 0.52217 0.18129 0.15059 0.0
C338 C 0.53337 0.10217 0.35616 0.0
C339 C 0.52025 0.1434 0.29559 0.0
C340 C 0.53248 0.08363 0.42981 0.0
C341 C 0.51779 0.08569 0.51814 0.0
C342 C 0.5194 0.12292 0.37065 0.0
C343 C 0.50379 0.10648 0.52857 0.0
C344 C 0.50503 0.16332 0.30685 0.0
C345 C 0.53738 0.1612 0.14342 0.0
N346 N 0.50497 0.12423 0.45612 0.0
N347 N 0.53601 0.14312 0.21448 0.0
H348 H 0.4004 0.55913 0.11202 0.0
H349 H 0.44283 0.50723 0.66415 0.0
H350 H 0.35295 0.52397 0.32931 0.0
H351 H 0.48874 0.54871 0.46283 0.0
H352 H 0.41089 0.50961 0.534 0.0
H353 H 0.43388 0.55204 0.23072 0.0
C354 C 0.39697 0.54983 0.1844 0.0
C355 C 0.3736 0.54233 0.21053 0.0
C356 C 0.42796 0.51812 0.51787 0.0
C357 C 0.41217 0.53395 0.34715 0.0
C358 C 0.44623 0.51674 0.59221 0.0
C359 C 0.46842 0.52795 0.57471 0.0
C360 C 0.43184 0.53079 0.42487 0.0
C361 C 0.47186 0.53992 0.47977 0.0
C362 C 0.41618 0.54572 0.25212 0.0
C363 C 0.37055 0.52993 0.30485 0.0
N364 N 0.45375 0.54112 0.4087 0.0
N365 N 0.38951 0.52628 0.36971 0.0
H366 H 0.03494 0.35229 0.34385 0.0
H367 H 1.01107 0.49102 0.47472 0.0
H368 H 0.99587 0.39987 0.14126 0.0
H369 H 0.05079 0.44349 0.67458 0.0
H370 H 1.00809 0.45882 0.34484 0.0
H371 H 0.04404 0.38631 0.45782 0.0
C372 C 0.02858 0.36993 0.32224 0.0
C373 C 1.01443 0.37306 0.23284 0.0
C374 C 1.01759 0.45546 0.4168 0.0
C375 C 0.02447 0.41221 0.36467 0.0
C376 C 1.0193 0.47385 0.49093 0.0
C377 C 0.03101 0.46986 0.58598 0.0
C378 C 0.02762 0.43284 0.43789 0.0
C379 C 0.04146 0.4473 0.60265 0.0
C380 C 0.03364 0.38936 0.38799 0.0
C381 C 1.00647 0.39642 0.21014 0.0
N382 N 0.03938 0.42964 0.52983 0.0
N383 N 1.01144 0.41498 0.27579 0.0
H384 H 0.88508 0.98307 0.22782 0.0
H385 H 0.94341 0.06441 0.77916 0.0
H386 H 0.85907 0.05357 0.14901 0.0
H387 H 0.97528 0.99899 0.89102 0.0
H388 H 0.91081 0.0595 0.90529 0.0
H389 H 0.91634 0.98725 0.09602 0.0
C390 C 0.88589 0.99947 0.18299 0.0
C391 C 0.86938 1.01809 0.20087 0.0
C392 C 0.9249 0.0462 0.90234 0.0
C393 C 0.90526 1.02286 0.04789 0.0
C394 C 0.94352 0.04898 0.83024 0.0
C395 C 0.9621 0.03209 0.82455 0.0
C396 C 0.92472 0.02628 0.9692 0.0
C397 C 0.96134 1.01247 0.89283 0.0
C398 C 0.90376 1.0018 0.10728 0.0
C399 C 0.87116 0.03864 0.13795 0.0
N400 N 0.94297 1.01009 0.96207 0.0
N401 N 0.88879 0.04049 0.0648 0.0
H402 H 0.51267 0.90422 0.34104 0.0
H403 H 0.55443 0.9432 0.76848 0.0
H404 H 0.54768 0.85639 0.12529 0.0
H405 H 0.51033 0.98798 0.96401 0.0
H406 H 0.55364 0.91209 0.90191 0.0
H407 H 0.51264 0.9355 0.20773 0.0
C408 C 0.52037 0.90026 0.26555 0.0
C409 C 0.53034 0.87757 0.24486 0.0
C410 C 0.54413 0.92869 0.91601 0.0
C411 C 0.53037 0.91353 0.09115 0.0
C412 C 0.54465 0.94656 0.83987 0.0
C413 C 0.53238 0.96828 0.85483 0.0
C414 C 0.53136 0.93247 0.00882 0.0
C415 C 0.52003 0.97154 0.94911 0.0
C416 C 0.52027 0.91816 0.18928 0.0
C417 C 0.53968 0.87348 0.14484 0.0
N418 N 0.51984 0.95385 0.02246 0.0
N419 N 0.53961 0.89129 0.07223 0.0
H420 H 0.70315 0.51464 0.14102 0.0
H421 H 0.56774 0.53539 0.99194 0.0
H422 H 0.6593 0.5635 0.32039 0.0
H423 H 0.62186 0.53578 0.75228 0.0
H424 H 0.59965 0.53733 0.12428 0.0
H425 H 0.67239 0.51455 0.00524 0.0
C426 C 0.68732 0.52551 0.15241 0.0
C427 C 0.68409 0.53894 0.24443 0.0
C428 C 0.60445 0.537 0.0426 0.0
C429 C 0.64824 0.53793 0.08974 0.0
C430 C 0.58631 0.53583 0.9673 0.0
C431 C 0.59217 0.53558 0.86115 0.0
C432 C 0.62862 0.53714 0.01153 0.0
C433 C 0.61656 0.53613 0.83333 0.0
C434 C 0.66966 0.52523 0.07475 0.0
C435 C 0.66262 0.55218 0.25356 0.0
N436 N 0.6339 0.5366 0.90801 0.0
N437 N 0.64549 0.55107 0.17825 0.0
H438 H 0.04725 0.70237 0.16806 0.0
H439 H 0.02503 0.56735 0.01248 0.0
H440 H 1.00021 0.65772 0.35308 0.0
H441 H 0.02422 0.6225 0.7779 0.0
H442 H 0.02368 0.59868 0.14784 0.0
H443 H 0.04617 0.67199 0.03089 0.0
C444 C 0.0365 0.68645 0.18039 0.0
C445 C 0.02387 0.68293 0.2742 0.0
C446 C 0.02376 0.60384 0.06661 0.0
C447 C 0.02358 0.64746 0.11755 0.0
C448 C 0.02459 0.58603 0.9896 0.0
C449 C 0.02461 0.59236 0.884 0.0
C450 C 0.0237 0.62813 0.03774 0.0
C451 C 0.02407 0.61685 0.85844 0.0
C452 C 0.03612 0.66899 0.10184 0.0
C453 C 1.01085 0.6613 0.28452 0.0
N454 N 0.02393 0.63386 0.93471 0.0
N455 N 1.0113 0.64435 0.20805 0.0
H456 H 0.04683 0.26085 0.34991 0.0
H457 H 0.08839 0.13371 0.24638 0.0
H458 H 0.10573 0.24374 0.1464 0.0
H459 H 0.03937 0.15341 0.49179 0.0
H460 H 0.10472 0.17434 0.2494 0.0
H461 H 0.0555 0.22532 0.45156 0.0
C462 C 0.06246 0.25034 0.32964 0.0
C463 C 0.07465 0.25432 0.23576 0.0
C464 C 0.09075 0.16967 0.30436 0.0
C465 C 0.08382 0.21297 0.34805 0.0
C466 C 0.08134 0.14644 0.30228 0.0
C467 C 0.06186 0.1404 0.36623 0.0
C468 C 0.08034 0.18707 0.36967 0.0
C469 C 0.05371 0.15758 0.43799 0.0
C470 C 0.06719 0.22967 0.38691 0.0
C471 C 0.09515 0.24049 0.21566 0.0
N472 N 0.06262 0.18023 0.43625 0.0
N473 N 0.09838 0.21962 0.26797 0.0
H474 H 0.30681 0.94421 0.0802 0.0
H475 H 0.39144 0.971 0.5476 0.0
H476 H 0.29164 0.99347 0.33004 0.0
H477 H 0.41008 0.93161 0.26991 0.0
H478 H 0.34902 0.96459 0.50861 0.0
H479 H 0.33623 0.92417 0.19039 0.0
C480 C 0.30879 0.94998 0.16034 0.0
C481 C 0.29745 0.97093 0.19539 0.0
C482 C 0.36238 0.95677 0.4577 0.0
C483 C 0.33163 0.94888 0.31988 0.0
C484 C 0.3866 0.96055 0.47953 0.0
C485 C 0.40426 0.95258 0.40971 0.0
C486 C 0.35582 0.94519 0.36476 0.0
C487 C 0.39705 0.93845 0.32483 0.0
C488 C 0.32581 0.93875 0.22288 0.0
C489 C 0.30043 0.97763 0.29969 0.0
N490 N 0.37335 0.93573 0.30327 0.0
N491 N 0.31791 0.96717 0.35739 0.0
H492 H 0.5066 0.29077 0.34126 0.0
H493 H 0.46794 0.42301 0.35404 0.0
H494 H 0.44497 0.31912 0.18276 0.0
H495 H 0.53012 0.3939 0.50836 0.0
H496 H 0.4503 0.38303 0.34903 0.0
H497 H 0.50423 0.32349 0.46671 0.0
C498 C 0.49163 0.30308 0.3366 0.0
C499 C 0.4767 0.30312 0.24893 0.0
C500 C 0.46761 0.38542 0.38589 0.0
C501 C 0.47459 0.34107 0.38798 0.0
C502 C 0.47775 0.40831 0.38854 0.0
C503 C 0.50094 0.41174 0.42853 0.0
C504 C 0.48089 0.36573 0.42185 0.0
C505 C 0.51265 0.39196 0.47265 0.0
C506 C 0.49054 0.3221 0.40717 0.0
C507 C 0.45736 0.31913 0.24764 0.0
N508 N 0.5027 0.36976 0.46635 0.0
N509 N 0.45748 0.33823 0.31324 0.0
H510 H 0.24235 0.45224 0.19727 0.0
H511 H 0.16434 0.52781 0.57227 0.0
H512 H 0.26571 0.51517 0.36443 0.0
H513 H 0.1395 0.47362 0.35719 0.0
H514 H 0.20465 0.51093 0.56182 0.0
H515 H 0.21071 0.44633 0.32596 0.0
C516 C 0.24161 0.4641 0.26412 0.0
C517 C 0.25572 0.48497 0.26728 0.0
C518 C 0.19025 0.50238 0.51886 0.0
C519 C 0.21937 0.4788 0.41211 0.0
C520 C 0.1673 0.51218 0.52379 0.0
C521 C 0.14876 0.50269 0.4622 0.0
C522 C 0.19475 0.48324 0.45042 0.0
C523 C 0.15336 0.48184 0.40432 0.0
C524 C 0.22338 0.46088 0.33709 0.0
C525 C 0.25456 0.49934 0.35687 0.0
N526 N 0.17602 0.47316 0.3979 0.0
N527 N 0.23596 0.49657 0.42385 0.0
H528 H 0.05185 0.79203 0.11021 0.0
H529 H 0.10677 0.92171 0.06406 0.0
H530 H 0.109 0.81707 0.30784 0.0
H531 H 0.03252 0.89922 0.0449 0.0
H532 H 0.11841 0.87944 0.07602 0.0
H533 H 0.0593 0.82561 0.99325 0.0
C534 C 0.06707 0.80366 0.12537 0.0
C535 C 0.07907 0.80265 0.22094 0.0
C536 C 0.09969 0.88403 0.06587 0.0
C537 C 0.08713 0.84116 0.09031 0.0
C538 C 0.09288 0.90814 0.06137 0.0
C539 C 0.06845 0.91445 0.05493 0.0
C540 C 0.08206 0.86613 0.06084 0.0
C541 C 0.05155 0.89574 0.04799 0.0
C542 C 0.07108 0.82305 0.05935 0.0
C543 C 0.09882 0.81792 0.23616 0.0
N544 N 0.05868 0.87258 0.05153 0.0
N545 N 0.10161 0.83737 0.17387 0.0
H546 H 0.74016 0.11366 0.30605 0.0
H547 H 0.66308 0.04856 0.96553 0.0
H548 H 0.77026 0.06445 0.08312 0.0
H549 H 0.64544 0.12379 0.0021 0.0
H550 H 0.70444 0.05818 0.98818 0.0
H551 H 0.71015 0.12542 0.17798 0.0
C552 C 0.74136 0.1064 0.22793 0.0
C553 C 0.75673 0.08707 0.20666 0.0
C554 C 0.69162 0.07275 0.98882 0.0
C555 C 0.72237 0.09992 0.06176 0.0
C556 C 0.66755 0.06727 0.97544 0.0
C557 C 0.64993 0.08525 0.98227 0.0
C558 C 0.69848 0.09618 0.01485 0.0
C559 C 0.65788 0.10898 -0.00016 0.0
C560 C 0.7241 0.11301 0.15486 0.0
C561 C 0.75802 0.07872 0.10393 0.0
N562 N 0.68148 0.11364 0.01885 0.0
N563 N 0.74026 0.08438 0.03623 0.0
H564 H 0.49603 0.76234 0.086 0.0
H565 H 0.43008 0.64129 0.14796 0.0
H566 H 0.44839 0.74517 0.33876 0.0
H567 H 0.47573 0.66 0.88924 0.0
H568 H 0.4246 0.68391 0.18508 0.0
H569 H 0.47609 0.73208 0.97867 0.0
C570 C 0.48048 0.75309 0.11687 0.0
C571 C 0.47413 0.7557 0.22167 0.0
C572 C 0.43531 0.67875 0.11844 0.0
C573 C 0.45211 0.72033 0.10221 0.0
C574 C 0.43854 0.65439 0.09769 0.0
C575 C 0.45393 0.64709 0.01738 0.0
C576 C 0.44801 0.69587 0.05988 0.0
C577 C 0.46392 0.66479 0.95283 0.0
C578 C 0.46928 0.73552 0.05621 0.0
C579 C 0.45397 0.74328 0.25843 0.0
N580 N 0.46128 0.68834 0.9771 0.0
N581 N 0.44416 0.7255 0.19994 0.0
H582 H 0.79851 0.50168 0.08672 0.0
H583 H 0.91569 0.43023 0.14952 0.0
H584 H 0.81319 0.45324 0.33895 0.0
H585 H 0.89937 0.47656 0.89067 0.0
H586 H 0.87282 0.4263 0.18472 0.0
H587 H 0.82749 0.48017 0.97891 0.0
C588 C 0.80694 0.4857 0.11741 0.0
C589 C 0.80403 0.47945 0.22206 0.0
C590 C 0.87854 0.43681 0.11839 0.0
C591 C 0.83794 0.45559 0.10212 0.0
C592 C 0.90305 0.43914 0.09869 0.0
C593 C 0.91112 0.45433 0.01919 0.0
C594 C 0.86209 0.45025 0.05966 0.0
C595 C 0.89398 0.46491 0.95381 0.0
C596 C 0.82375 0.47357 0.05645 0.0
C597 C 0.81536 0.45873 0.2587 0.0
N598 N 0.87031 0.46319 0.97719 0.0
N599 N 0.83245 0.44797 0.19991 0.0
H600 H 0.99964 0.2215 0.03185 0.0
H601 H 0.04431 0.11879 0.64093 0.0
H602 H 0.05971 0.23168 0.82603 0.0
H603 H 1.00993 0.10369 0.93444 0.0
H604 H 0.04349 0.16175 0.68331 0.0
H605 H 0.99546 0.18014 0.9678 0.0
C606 C 1.01127 0.21533 0.96983 0.0
C607 C 0.02972 0.23017 0.93252 0.0
C608 C 0.03602 0.14901 0.73799 0.0
C609 C 0.02555 0.1827 0.86115 0.0
C610 C 0.03651 0.12449 0.71413 0.0
C611 C 0.02733 0.10754 0.78468 0.0
C612 C 0.02572 0.15679 0.83184 0.0
C613 C 1.01742 0.11605 0.87825 0.0
C614 C 1.00919 0.19161 0.93478 0.0
C615 C 0.04494 0.22097 0.85508 0.0
N616 N 1.01675 0.14005 0.8988 0.0
N617 N 0.04258 0.19782 0.82215 0.0
H618 H 0.33705 0.05533 0.03999 0.0
H619 H 0.43788 1.00781 0.64412 0.0
H620 H 0.32531 0.99859 0.81792 0.0
H621 H 0.45293 0.05477 0.90314 0.0
H622 H 0.39525 1.0091 0.68821 0.0
H623 H 0.37774 0.06091 0.97018 0.0
C624 C 0.34276 0.04468 0.97389 0.0
C625 C 0.3277 0.02679 0.93327 0.0
C626 C 0.40783 1.01926 0.73509 0.0
C627 C 0.37445 0.03241 0.8553 0.0
C628 C 0.43223 1.01859 0.70962 0.0
C629 C 0.44914 0.03118 0.76976 0.0
C630 C 0.40009 0.03273 0.8214 0.0
C631 C 0.44064 0.04464 0.85476 0.0
C632 C 0.3661 0.04759 0.93508 0.0
C633 C 0.33625 1.01287 0.85003 0.0
N634 N 0.41679 0.04503 0.87806 0.0
N635 N 0.35905 1.01586 0.81429 0.0
H636 H 0.54259 0.34363 0.07422 0.0
H637 H 0.51186 0.44519 0.6536 0.0
H638 H 0.497 0.32983 0.81039 0.0
H639 H 0.53788 0.46003 0.96308 0.0
H640 H 0.51161 0.40217 0.69441 0.0
H641 H 0.54789 0.38504 0.01548 0.0
C642 C 0.53443 0.34912 0.00156 0.0
C643 C 0.5197 0.33312 0.94607 0.0
C644 C 0.5175 0.41484 0.753 0.0
C645 C 0.52495 0.38094 0.88001 0.0
C646 C 0.51761 0.43943 0.72994 0.0
C647 C 0.52481 0.45637 0.80511 0.0
C648 C 0.52514 0.40696 0.85129 0.0
C649 C 0.53201 0.44774 0.90287 0.0
C650 C 0.53712 0.37289 0.96898 0.0
C651 C 0.50892 0.34142 0.85418 0.0
N652 N 0.5321 0.42373 0.92281 0.0
N653 N 0.51162 0.36479 0.82434 0.0
H654 H 0.22955 0.49412 0.83845 0.0
H655 H 0.09899 0.54046 0.9796 0.0
H656 H 0.21701 0.55054 0.06088 0.0
H657 H 0.1142 0.51034 0.67751 0.0
H658 H 0.1421 0.54122 0.01691 0.0
H659 H 0.18772 0.49785 0.77863 0.0
C660 C 0.21822 0.50787 0.87192 0.0
C661 C 0.22689 0.52249 0.95278 0.0
C662 C 0.13602 0.5345 0.94226 0.0
C663 C 0.17874 0.52584 0.88974 0.0
C664 C 0.11137 0.53387 0.9213 0.0
C665 C 0.10292 0.52533 0.82521 0.0
C666 C 0.15243 0.5261 0.86753 0.0
C667 C 0.11991 0.51719 0.75235 0.0
C668 C 0.1943 0.50979 0.83886 0.0
C669 C 0.21119 0.53937 0.99655 0.0
N670 N 0.1438 0.51756 0.77528 0.0
N671 N 0.18784 0.54032 0.96575 0.0
H672 H 0.04711 0.82783 0.64483 0.0
H673 H 1.00612 0.96008 0.48107 0.0
H674 H 1.00826 0.84356 0.36384 0.0
H675 H 0.03713 0.94372 0.7798 0.0
H676 H 1.00491 0.91711 0.4411 0.0
H677 H 0.04058 0.86932 0.70378 0.0
C678 C 0.03639 0.83977 0.59756 0.0
C679 C 0.02781 0.83217 0.50032 0.0
C680 C 1.01178 0.92288 0.5159 0.0
C681 C 1.02123 0.87994 0.56441 0.0
C682 C 1.01259 0.94748 0.53854 0.0
C683 C 1.02163 0.95562 0.63435 0.0
C684 C 1.02029 0.90617 0.58907 0.0
C685 C 0.02972 0.93832 0.70565 0.0
C686 C 0.03297 0.86356 0.63031 0.0
C687 C 1.01478 0.84862 0.44021 0.0
N688 N 0.02899 0.91452 0.68146 0.0
N689 N 1.01214 0.87173 0.4725 0.0
H690 H 0.71669 1.00354 0.35694 0.0
H691 H 0.60878 0.05249 0.71099 0.0
H692 H 0.72368 0.06049 0.5817 0.0
H693 H 0.59891 0.99803 0.47653 0.0
H694 H 0.65176 0.05235 0.67675 0.0
H695 H 0.67496 0.9973 0.41352 0.0
C696 C 0.70969 1.01409 0.42094 0.0
C697 C 0.72376 0.03222 0.46628 0.0
C698 C 0.64033 0.04026 0.633 0.0
C699 C 0.67584 0.02588 0.52874 0.0
C700 C 0.61573 0.04019 0.65338 0.0
C701 C 0.60019 0.02494 0.59824 0.0
C702 C 0.64973 0.02508 0.55573 0.0
C703 C 0.61019 1.01008 0.52114 0.0
C704 C 0.68577 1.0108 0.45213 0.0
C705 C 0.71357 0.04602 0.54623 0.0
N706 N 0.6343 1.01052 0.50216 0.0
N707 N 0.69026 0.04268 0.57432 0.0
H708 H 0.55351 0.71596 0.34171 0.0
H709 H 0.5213 0.61884 0.78039 0.0
H710 H 0.5131 0.7328 0.61754 0.0
H711 H 0.55606 0.6016 0.48965 0.0
H712 H 0.52279 0.66138 0.73408 0.0
H713 H 0.56025 0.67539 0.40848 0.0
C714 C 0.54687 0.71135 0.41837 0.0
C715 C 0.53322 0.72793 0.47531 0.0
C716 C 0.53026 0.64832 0.68072 0.0
C717 C 0.53987 0.68107 0.55059 0.0
C718 C 0.52943 0.62394 0.70711 0.0
C719 C 0.53849 0.60642 0.6387 0.0
C720 C 0.54031 0.65543 0.58521 0.0
C721 C 0.54875 0.61433 0.54481 0.0
C722 C 0.55038 0.68806 0.45584 0.0
C723 C 0.52422 0.72075 0.57246 0.0
N724 N 0.54929 0.63814 0.52086 0.0
N725 N 0.5275 0.69782 0.60658 0.0
H726 H 0.82556 0.51775 0.62705 0.0
H727 H 0.96023 0.55942 0.50416 0.0
H728 H 0.84659 0.55592 0.35086 0.0
H729 H 0.94011 0.52308 0.78739 0.0
H730 H 0.91797 0.56177 0.45593 0.0
H731 H 0.86609 0.52378 0.69824 0.0
C732 C 0.83846 0.52822 0.58331 0.0
C733 C 0.83263 0.53677 0.48389 0.0
C734 C 0.92272 0.55342 0.52905 0.0
C735 C 0.8793 0.54289 0.56242 0.0
C736 C 0.94695 0.55202 0.55663 0.0
C737 C 0.95391 0.54092 0.64988 0.0
C738 C 0.9051 0.54353 0.59463 0.0
C739 C 0.9357 0.53178 0.71466 0.0
C740 C 0.8617 0.53137 0.62315 0.0
C741 C 0.85026 0.54946 0.42864 0.0
N742 N 0.91222 0.53313 0.68551 0.0
N743 N 0.87279 0.55192 0.46805 0.0
loop_
_geom_bond_atom_site_label_1
_geom_bond_atom_site_label_2
_geom_bond_distance
_geom_bond_site_symmetry_2
_ccdc_geom_bond_type
H0 C1 0.949 . S
C1 H0 0.949 . S
C1 C2 1.395 . S
C1 C3 1.391 . S
C2 C1 1.395 . S
C2 C5 1.390 . S
C3 C1 1.391 . S
C3 C7 1.387 . S
C3 C8 1.491 . S
H4 C5 0.950 . S
C5 C2 1.390 . S
C5 H4 0.950 . S
C5 C6 1.378 . S
C6 C5 1.378 . S
C6 C7 1.409 . S
C7 C3 1.387 . S
C7 C6 1.409 . S
C7 H9 0.951 . S
C8 C3 1.491 . S
C8 C10 1.382 . S
C8 C12 1.404 . S
H9 C7 0.951 . S
C10 C8 1.382 . S
C10 C11 1.390 . S
C10 H15 0.949 . S
C11 C10 1.390 . S
C11 C16 1.399 . S
C12 C8 1.404 . S
C12 H13 0.950 . S
C12 C14 1.375 . S
H13 C12 0.950 . S
C14 C12 1.375 . S
C14 C16 1.382 . S
C14 H18 0.950 . S
H15 C10 0.949 . S
C16 C11 1.399 . S
C16 C14 1.382 . S
C16 H17 0.952 . S
H17 C16 0.952 . S
H18 C14 0.950 . S
H19 C20 0.949 . S
C20 H19 0.949 . S
C20 C21 1.396 . S
C20 C22 1.391 . S
C21 C20 1.396 . S
C21 C24 1.389 1_655 S
C22 C20 1.391 . S
C22 C26 1.387 . S
C22 C27 1.491 . S
H23 C24 0.950 . S
C24 C21 1.389 1_455 S
C24 H23 0.950 . S
C24 C25 1.376 1_455 S
C25 C24 1.376 1_655 S
C25 C26 1.414 . S
C26 C22 1.387 . S
C26 C25 1.414 . S
C26 H28 0.951 . S
C27 C22 1.491 . S
C27 C29 1.382 . S
C27 C31 1.404 . S
H28 C26 0.951 . S
C29 C27 1.382 . S
C29 C30 1.390 . S
C29 H34 0.949 1_655 S
C30 C29 1.390 . S
C30 C35 1.399 . S
C31 C27 1.404 . S
C31 H32 0.950 . S
C31 C33 1.375 . S
H32 C31 0.950 . S
C33 C31 1.375 . S
C33 C35 1.382 . S
C33 H37 0.950 . S
H34 C29 0.949 1_455 S
C35 C30 1.399 . S
C35 C33 1.382 . S
C35 H36 0.952 . S
H36 C35 0.952 . S
H37 C33 0.950 . S
H38 C39 0.949 . S
C39 H38 0.949 . S
C39 C40 1.397 . S
C39 C41 1.391 . S
C40 C39 1.397 . S
C40 C43 1.389 1_565 S
C41 C39 1.391 . S
C41 C45 1.387 . S
C41 C46 1.491 . S
H42 C43 0.950 . S
C43 C40 1.389 1_545 S
C43 H42 0.950 . S
C43 C44 1.376 1_545 S
C44 C43 1.376 1_565 S
C44 C45 1.415 . S
C45 C41 1.387 . S
C45 C44 1.415 . S
C45 H47 0.951 . S
C46 C41 1.491 . S
C46 C48 1.382 . S
C46 C50 1.404 . S
H47 C45 0.951 . S
C48 C46 1.382 . S
C48 C49 1.390 . S
C48 H53 0.949 1_565 S
C49 C48 1.390 . S
C49 C54 1.399 . S
C50 C46 1.404 . S
C50 H51 0.950 . S
C50 C52 1.375 . S
H51 C50 0.950 . S
C52 C50 1.375 . S
C52 C54 1.382 . S
C52 H56 0.950 . S
H53 C48 0.949 1_545 S
C54 C49 1.399 . S
C54 C52 1.382 . S
C54 H55 0.952 . S
H55 C54 0.952 . S
H56 C52 0.950 . S
H57 C58 0.949 . S
C58 H57 0.949 . S
C58 C59 1.395 . S
C58 C60 1.391 . S
C59 C58 1.395 . S
C59 C62 1.390 . S
C60 C58 1.391 . S
C60 C64 1.387 . S
C60 C65 1.491 . S
H61 C62 0.950 . S
C62 C59 1.390 . S
C62 H61 0.950 . S
C62 C63 1.378 . S
C63 C62 1.378 . S
C63 C64 1.409 . S
C64 C60 1.387 . S
C64 C63 1.409 . S
C64 H66 0.951 . S
C65 C60 1.491 . S
C65 C67 1.382 . S
C65 C69 1.404 . S
H66 C64 0.951 . S
C67 C65 1.382 . S
C67 C68 1.390 . S
C67 H72 0.949 . S
C68 C67 1.390 . S
C68 C73 1.399 . S
C69 C65 1.404 . S
C69 H70 0.950 . S
C69 C71 1.375 . S
H70 C69 0.950 . S
C71 C69 1.375 . S
C71 C73 1.382 . S
C71 H75 0.950 . S
H72 C67 0.949 . S
C73 C68 1.399 . S
C73 C71 1.382 . S
C73 H74 0.952 . S
H74 C73 0.952 . S
H75 C71 0.950 . S
H76 C77 0.949 . S
C77 H76 0.949 . S
C77 C78 1.395 . S
C77 C79 1.391 1_554 S
C78 C77 1.395 . S
C78 C81 1.390 1_554 S
C79 C77 1.391 1_556 S
C79 C83 1.387 . S
C79 C84 1.491 . S
H80 C81 0.950 . S
C81 C78 1.390 1_556 S
C81 H80 0.950 . S
C81 C82 1.378 . S
C82 C81 1.378 . S
C82 C83 1.409 . S
C83 C79 1.387 . S
C83 C82 1.409 . S
C83 H85 0.951 . S
C84 C79 1.491 . S
C84 C86 1.382 1_556 S
C84 C88 1.404 . S
H85 C83 0.951 . S
C86 C84 1.382 1_554 S
C86 C87 1.390 . S
C86 H91 0.949 . S
C87 C86 1.390 . S
C87 C92 1.399 1_554 S
C88 C84 1.404 . S
C88 H89 0.950 . S
C88 C90 1.375 . S
H89 C88 0.950 . S
C90 C88 1.375 . S
C90 C92 1.382 . S
C90 H94 0.950 . S
H91 C86 0.949 . S
C92 C87 1.399 1_556 S
C92 C90 1.382 . S
C92 H93 0.952 . S
H93 C92 0.952 . S
H94 C90 0.950 . S
H95 C96 0.949 . S
C96 H95 0.949 . S
C96 C97 1.395 . S
C96 C98 1.397 1_554 S
C97 C96 1.395 . S
C97 C100 1.390 1_554 S
C98 C96 1.397 1_556 S
C98 C102 1.392 . S
C98 C103 1.482 1_455 S
H99 C100 0.950 . S
C100 C97 1.390 1_556 S
C100 H99 0.950 . S
C100 C101 1.378 . S
C101 C100 1.378 . S
C101 C102 1.409 . S
C102 C98 1.392 . S
C102 C101 1.409 . S
C102 H104 0.951 . S
C103 C98 1.482 1_655 S
C103 C105 1.382 1_656 S
C103 C107 1.404 . S
H104 C102 0.951 . S
C105 C103 1.382 1_454 S
C105 C106 1.401 . S
C105 H110 0.949 . S
C106 C105 1.401 . S
C106 C111 1.366 1_454 S
C107 C103 1.404 . S
C107 H108 0.950 . S
C107 C109 1.375 . S
H108 C107 0.950 . S
C109 C107 1.375 . S
C109 C111 1.382 . S
C109 H113 0.950 . S
H110 C105 0.949 . S
C111 C106 1.366 1_656 S
C111 C109 1.382 . S
C111 H112 0.952 . S
H112 C111 0.952 . S
H113 C109 0.950 . S
H114 C115 0.949 . S
C115 H114 0.949 . S
C115 C116 1.395 . S
C115 C117 1.396 1_554 S
C116 C115 1.395 . S
C116 C119 1.390 1_554 S
C117 C115 1.396 1_556 S
C117 C121 1.391 . S
C117 C122 1.483 1_545 S
H118 C119 0.950 . S
C119 C116 1.390 1_556 S
C119 H118 0.950 . S
C119 C120 1.378 . S
C120 C119 1.378 . S
C120 C121 1.409 . S
C121 C117 1.391 . S
C121 C120 1.409 . S
C121 H123 0.951 . S
C122 C117 1.483 1_565 S
C122 C124 1.382 1_566 S
C122 C126 1.404 . S
H123 C121 0.951 . S
C124 C122 1.382 1_544 S
C124 C125 1.400 . S
C124 H129 0.949 . S
C125 C124 1.400 . S
C125 C130 1.369 1_544 S
C126 C122 1.404 . S
C126 H127 0.950 . S
C126 C128 1.375 . S
H127 C126 0.950 . S
C128 C126 1.375 . S
C128 C130 1.382 . S
C128 H132 0.950 . S
H129 C124 0.949 . S
C130 C125 1.369 1_566 S
C130 C128 1.382 . S
C130 H131 0.952 . S
H131 C130 0.952 . S
H132 C128 0.950 . S
H133 C134 0.949 . S
C134 H133 0.949 . S
C134 C135 1.395 . S
C134 C136 1.391 1_554 S
C135 C134 1.395 . S
C135 C138 1.390 1_554 S
C136 C134 1.391 1_556 S
C136 C140 1.387 . S
C136 C141 1.491 . S
H137 C138 0.950 . S
C138 C135 1.390 1_556 S
C138 H137 0.950 . S
C138 C139 1.378 . S
C139 C138 1.378 . S
C139 C140 1.409 . S
C140 C136 1.387 . S
C140 C139 1.409 . S
C140 H142 0.951 . S
C141 C136 1.491 . S
C141 C143 1.382 1_556 S
C141 C145 1.404 . S
H142 C140 0.951 . S
C143 C141 1.382 1_554 S
C143 C144 1.390 . S
C143 H148 0.949 . S
C144 C143 1.390 . S
C144 C149 1.399 1_554 S
C145 C141 1.404 . S
C145 H146 0.950 . S
C145 C147 1.375 . S
H146 C145 0.950 . S
C147 C145 1.375 . S
C147 C149 1.382 . S
C147 H151 0.950 . S
H148 C143 0.949 . S
C149 C144 1.399 1_556 S
C149 C147 1.382 . S
C149 H150 0.952 . S
H150 C149 0.952 . S
H151 C147 0.950 . S
Gd152 C155 2.818 . S
Gd152 O172 2.377 . S
Gd152 O174 2.448 . S
Gd152 O175 2.506 . S
Gd152 O176 2.435 . S
Gd152 O177 2.717 1_565 S
Gd152 O179 2.395 1_565 S
Gd152 O183 2.327 1_455 S
Gd153 C164 2.818 . S
Gd153 O173 2.395 1_545 S
Gd153 O177 2.327 1_655 S
Gd153 O178 2.377 . S
Gd153 O180 2.448 . S
Gd153 O181 2.506 1_655 S
Gd153 O182 2.435 . S
Gd153 O183 2.717 1_545 S
C154 O172 1.240 1_655 S
C154 O173 1.240 . S
C155 Gd152 2.818 . S
C155 C156 1.510 . S
C155 O174 1.249 . S
C155 O175 1.252 . S
C156 C155 1.510 . S
C156 C157 1.404 1_556 S
C156 C158 1.352 1_556 S
C157 C156 1.404 1_554 S
C157 C161 1.389 . S
C157 H184 0.930 . S
C158 C156 1.352 1_554 S
C158 C160 1.374 . S
C158 H185 0.931 1_455 S
C159 C160 1.359 . S
C159 C161 1.364 . S
C160 C158 1.374 . S
C160 C159 1.359 . S
C160 H186 0.931 1_455 S
C161 C157 1.389 . S
C161 C159 1.364 . S
C161 H187 0.931 . S
C162 O176 1.256 1_545 S
C162 O177 1.257 . S
C163 O178 1.240 1_455 S
C163 O179 1.240 . S
C164 Gd153 2.818 . S
C164 C165 1.510 . S
C164 O180 1.249 . S
C164 O181 1.252 1_655 S
C165 C164 1.510 . S
C165 C166 1.404 . S
C165 C167 1.352 1_655 S
C166 C165 1.404 . S
C166 C170 1.389 . S
C166 H188 0.930 . S
C167 C165 1.352 1_455 S
C167 C169 1.375 . S
C167 H189 0.931 . S
C168 C169 1.347 1_655 S
C168 C170 1.364 . S
C169 C167 1.375 . S
C169 C168 1.347 1_455 S
C169 H190 0.941 . S
C170 C166 1.389 . S
C170 C168 1.364 . S
C170 H191 0.931 . S
C171 O182 1.256 . S
C171 O183 1.257 1_545 S
O172 Gd152 2.377 . S
O172 C154 1.240 1_455 S
O173 Gd153 2.395 1_565 S
O173 C154 1.240 . S
O174 Gd152 2.448 . S
O174 C155 1.249 . S
O175 Gd152 2.506 . S
O175 C155 1.252 . S
O176 Gd152 2.435 . S
O176 C162 1.256 1_565 S
O177 Gd152 2.717 1_545 S
O177 Gd153 2.327 1_455 S
O177 C162 1.257 . S
O178 Gd153 2.377 . S
O178 C163 1.240 1_655 S
O179 Gd152 2.395 1_545 S
O179 C163 1.240 . S
O180 Gd153 2.448 . S
O180 C164 1.249 . S
O181 Gd153 2.506 1_455 S
O181 C164 1.252 1_455 S
O182 Gd153 2.435 . S
O182 C171 1.256 . S
O183 Gd152 2.327 1_655 S
O183 Gd153 2.717 1_565 S
O183 C171 1.257 1_565 S
H184 C157 0.930 . S
H185 C158 0.931 1_655 S
H186 C160 0.931 1_655 S
H187 C161 0.931 . S
H188 C166 0.930 . S
H189 C167 0.931 . S
H190 C169 0.941 . S
H191 C170 0.931 . S
Gd192 C195 2.818 . S
Gd192 O212 2.377 . S
Gd192 O214 2.448 . S
Gd192 O215 2.506 . S
Gd192 O216 2.435 . S
Gd192 O217 2.717 . S
Gd192 O219 2.395 . S
Gd192 O223 2.327 1_545 S
Gd193 C204 2.818 . S
Gd193 O213 2.395 . S
Gd193 O217 2.327 1_565 S
Gd193 O218 2.377 . S
Gd193 O220 2.448 . S
Gd193 O221 2.506 1_565 S
Gd193 O222 2.435 . S
Gd193 O223 2.717 . S
C194 O212 1.240 1_565 S
C194 O213 1.240 . S
C195 Gd192 2.818 . S
C195 C196 1.510 . S
C195 O214 1.249 . S
C195 O215 1.252 . S
C196 C195 1.510 . S
C196 C197 1.404 1_556 S
C196 C198 1.352 1_556 S
C197 C196 1.404 1_554 S
C197 C201 1.389 . S
C197 H224 0.930 . S
C198 C196 1.352 1_554 S
C198 C200 1.374 . S
C198 H225 0.931 1_545 S
C199 C200 1.359 . S
C199 C201 1.364 . S
C200 C198 1.374 . S
C200 C199 1.359 . S
C200 H226 0.931 1_545 S
C201 C197 1.389 . S
C201 C199 1.364 . S
C201 H227 0.931 . S
C202 O216 1.256 . S
C202 O217 1.257 . S
C203 O218 1.240 1_545 S
C203 O219 1.240 . S
C204 Gd193 2.818 . S
C204 C205 1.510 . S
C204 O220 1.249 . S
C204 O221 1.252 1_565 S
C205 C204 1.510 . S
C205 C206 1.404 . S
C205 C207 1.352 1_565 S
C206 C205 1.404 . S
C206 C210 1.389 . S
C206 H228 0.930 . S
C207 C205 1.352 1_545 S
C207 C209 1.374 . S
C207 H229 0.931 . S
C208 C209 1.352 1_565 S
C208 C210 1.364 . S
C209 C207 1.374 . S
C209 C208 1.352 1_545 S
C209 H230 0.937 . S
C210 C206 1.389 . S
C210 C208 1.364 . S
C210 H231 0.931 . S
C211 O222 1.256 . S
C211 O223 1.257 . S
O212 Gd192 2.377 . S
O212 C194 1.240 1_545 S
O213 Gd193 2.395 . S
O213 C194 1.240 . S
O214 Gd192 2.448 . S
O214 C195 1.249 . S
O215 Gd192 2.506 . S
O215 C195 1.252 . S
O216 Gd192 2.435 . S
O216 C202 1.256 . S
O217 Gd192 2.717 . S
O217 Gd193 2.327 1_545 S
O217 C202 1.257 . S
O218 Gd193 2.377 . S
O218 C203 1.240 1_565 S
O219 Gd192 2.395 . S
O219 C203 1.240 . S
O220 Gd193 2.448 . S
O220 C204 1.249 . S
O221 Gd193 2.506 1_545 S
O221 C204 1.252 1_545 S
O222 Gd193 2.435 . S
O222 C211 1.256 . S
O223 Gd192 2.327 1_565 S
O223 Gd193 2.717 . S
O223 C211 1.257 . S
H224 C197 0.930 . S
H225 C198 0.931 1_565 S
H226 C200 0.931 1_565 S
H227 C201 0.931 . S
H228 C206 0.930 . S
H229 C207 0.931 . S
H230 C209 0.937 . S
H231 C210 0.931 . S
Gd232 C235 2.818 . S
Gd232 O252 2.377 . S
Gd232 O254 2.448 . S
Gd232 O255 2.506 . S
Gd232 O256 2.435 . S
Gd232 O257 2.717 . S
Gd232 O259 2.395 . S
Gd232 O263 2.327 . S
Gd233 C244 2.818 . S
Gd233 O253 2.395 . S
Gd233 O257 2.327 . S
Gd233 O258 2.377 . S
Gd233 O260 2.448 . S
Gd233 O261 2.506 . S
Gd233 O262 2.435 . S
Gd233 O263 2.717 . S
C234 O252 1.240 . S
C234 O253 1.240 . S
C235 Gd232 2.818 . S
C235 C236 1.510 . S
C235 O254 1.249 . S
C235 O255 1.252 . S
C236 C235 1.510 . S
C236 C237 1.404 1_556 S
C236 C238 1.352 1_556 S
C237 C236 1.404 1_554 S
C237 C241 1.389 . S
C237 H264 0.931 . S
C238 C236 1.352 1_554 S
C238 C240 1.374 . S
C238 H265 0.931 . S
C239 C240 1.359 . S
C239 C241 1.364 . S
C240 C238 1.374 . S
C240 C239 1.359 . S
C240 H266 0.931 . S
C241 C237 1.389 . S
C241 C239 1.364 . S
C241 H267 0.931 . S
C242 O256 1.256 . S
C242 O257 1.257 . S
C243 O258 1.240 . S
C243 O259 1.240 . S
C244 Gd233 2.818 . S
C244 C245 1.510 . S
C244 O260 1.249 . S
C244 O261 1.252 . S
C245 C244 1.510 . S
C245 C246 1.404 . S
C245 C247 1.352 . S
C246 C245 1.404 . S
C246 C250 1.389 . S
C246 H268 0.930 . S
C247 C245 1.352 . S
C247 C249 1.374 . S
C247 H269 0.931 . S
C248 C249 1.359 . S
C248 C250 1.364 . S
C249 C247 1.374 . S
C249 C248 1.359 . S
C249 H270 0.931 . S
C250 C246 1.389 . S
C250 C248 1.364 . S
C250 H271 0.931 . S
C251 O262 1.256 . S
C251 O263 1.257 . S
O252 Gd232 2.377 . S
O252 C234 1.240 . S
O253 Gd233 2.395 . S
O253 C234 1.240 . S
O254 Gd232 2.448 . S
O254 C235 1.249 . S
O255 Gd232 2.506 . S
O255 C235 1.252 . S
O256 Gd232 2.435 . S
O256 C242 1.256 . S
O257 Gd232 2.717 . S
O257 Gd233 2.327 . S
O257 C242 1.257 . S
O258 Gd233 2.377 . S
O258 C243 1.240 . S
O259 Gd232 2.395 . S
O259 C243 1.240 . S
O260 Gd233 2.448 . S
O260 C244 1.249 . S
O261 Gd233 2.506 . S
O261 C244 1.252 . S
O262 Gd233 2.435 . S
O262 C251 1.256 . S
O263 Gd232 2.327 . S
O263 Gd233 2.717 . S
O263 C251 1.257 . S
H264 C237 0.931 . S
H265 C238 0.931 . S
H266 C240 0.931 . S
H267 C241 0.931 . S
H268 C246 0.930 . S
H269 C247 0.931 . S
H270 C249 0.931 . S
H271 C250 0.931 . S
Gd272 C275 2.818 . S
Gd272 O292 2.377 . S
Gd272 O294 2.448 . S
Gd272 O295 2.506 . S
Gd272 O296 2.435 . S
Gd272 O297 2.717 1_655 S
Gd272 O299 2.395 1_655 S
Gd272 O303 2.327 . S
Gd273 C284 2.818 . S
Gd273 O293 2.395 1_455 S
Gd273 O297 2.327 . S
Gd273 O298 2.377 . S
Gd273 O300 2.448 . S
Gd273 O301 2.506 . S
Gd273 O302 2.435 . S
Gd273 O303 2.717 1_455 S
C274 O292 1.240 . S
C274 O293 1.240 . S
C275 Gd272 2.818 . S
C275 C276 1.510 . S
C275 O294 1.249 . S
C275 O295 1.252 . S
C276 C275 1.510 . S
C276 C277 1.404 1_556 S
C276 C278 1.352 1_556 S
C277 C276 1.404 1_554 S
C277 C281 1.389 . S
C277 H304 0.932 . S
C278 C276 1.352 1_554 S
C278 C280 1.374 . S
C278 H305 0.931 . S
C279 C280 1.359 . S
C279 C281 1.364 . S
C280 C278 1.374 . S
C280 C279 1.359 . S
C280 H306 0.931 . S
C281 C277 1.389 . S
C281 C279 1.364 . S
C281 H307 0.931 . S
C282 O296 1.256 1_455 S
C282 O297 1.257 . S
C283 O298 1.240 . S
C283 O299 1.240 . S
C284 Gd273 2.818 . S
C284 C285 1.510 . S
C284 O300 1.249 . S
C284 O301 1.252 . S
C285 C284 1.510 . S
C285 C286 1.404 . S
C285 C287 1.352 . S
C286 C285 1.404 . S
C286 C290 1.389 . S
C286 H308 0.930 . S
C287 C285 1.352 . S
C287 C289 1.374 . S
C287 H309 0.931 . S
C288 C289 1.359 . S
C288 C290 1.364 . S
C289 C287 1.374 . S
C289 C288 1.359 . S
C289 H310 0.931 . S
C290 C286 1.389 . S
C290 C288 1.364 . S
C290 H311 0.931 . S
C291 O302 1.256 . S
C291 O303 1.257 1_455 S
O292 Gd272 2.377 . S
O292 C274 1.240 . S
O293 Gd273 2.395 1_655 S
O293 C274 1.240 . S
O294 Gd272 2.448 . S
O294 C275 1.249 . S
O295 Gd272 2.506 . S
O295 C275 1.252 . S
O296 Gd272 2.435 . S
O296 C282 1.256 1_655 S
O297 Gd272 2.717 1_455 S
O297 Gd273 2.327 . S
O297 C282 1.257 . S
O298 Gd273 2.377 . S
O298 C283 1.240 . S
O299 Gd272 2.395 1_455 S
O299 C283 1.240 . S
O300 Gd273 2.448 . S
O300 C284 1.249 . S
O301 Gd273 2.506 . S
O301 C284 1.252 . S
O302 Gd273 2.435 . S
O302 C291 1.256 . S
O303 Gd272 2.327 . S
O303 Gd273 2.717 1_655 S
O303 C291 1.257 1_655 S
H304 C277 0.932 . S
H305 C278 0.931 . S
H306 C280 0.931 . S
H307 C281 0.931 . S
H308 C286 0.930 . S
H309 C287 0.931 . S
H310 C289 0.931 . S
H311 C290 0.931 . S
H312 C318 0.930 . S
H313 C322 0.930 . S
H314 C327 0.929 . S
H315 C325 0.929 . S
H316 C320 0.929 . S
H317 C326 0.929 . S
C318 H312 0.930 . S
C318 C319 1.367 1_565 S
C318 C326 1.378 . S
C319 C318 1.367 1_545 S
C319 C327 1.433 . S
C320 H316 0.929 . S
C320 C322 1.378 . S
C320 C324 1.350 . S
C321 C324 1.463 . S
C321 C326 1.350 1_545 S
C321 N329 1.427 . S
C322 H313 0.930 . S
C322 C320 1.378 . S
C322 C323 1.367 . S
C323 C322 1.367 . S
C323 C325 1.433 1_545 S
C324 C320 1.350 . S
C324 C321 1.463 . S
C324 N328 1.427 1_545 S
C325 H315 0.929 . S
C325 C323 1.433 1_565 S
C325 N328 1.384 . S
C326 H317 0.929 . S
C326 C318 1.378 . S
C326 C321 1.350 1_565 S
C327 H314 0.929 . S
C327 C319 1.433 . S
C327 N329 1.384 . S
N328 C324 1.427 1_565 S
N328 C325 1.384 . S
N329 C321 1.427 . S
N329 C327 1.384 . S
H330 C336 0.930 . S
H331 C340 0.930 . S
H332 C345 0.929 . S
H333 C343 0.929 . S
H334 C338 0.929 . S
H335 C344 0.929 . S
C336 H330 0.930 . S
C336 C337 1.367 . S
C336 C344 1.378 . S
C337 C336 1.367 . S
C337 C345 1.433 . S
C338 H334 0.929 . S
C338 C340 1.378 . S
C338 C342 1.350 . S
C339 C342 1.463 . S
C339 C344 1.350 . S
C339 N347 1.427 . S
C340 H331 0.930 . S
C340 C338 1.378 . S
C340 C341 1.367 . S
C341 C340 1.367 . S
C341 C343 1.433 . S
C342 C338 1.350 . S
C342 C339 1.463 . S
C342 N346 1.427 . S
C343 H333 0.929 . S
C343 C341 1.433 . S
C343 N346 1.384 . S
C344 H335 0.929 . S
C344 C336 1.378 . S
C344 C339 1.350 . S
C345 H332 0.929 . S
C345 C337 1.433 . S
C345 N347 1.384 . S
N346 C342 1.427 . S
N346 C343 1.384 . S
N347 C339 1.427 . S
N347 C345 1.384 . S
H348 C354 0.930 . S
H349 C358 0.930 . S
H350 C363 0.929 . S
H351 C361 0.929 . S
H352 C356 0.929 . S
H353 C362 0.929 . S
C354 H348 0.930 . S
C354 C355 1.367 . S
C354 C362 1.378 . S
C355 C354 1.367 . S
C355 C363 1.433 . S
C356 H352 0.929 . S
C356 C358 1.378 . S
C356 C360 1.350 . S
C357 C360 1.463 . S
C357 C362 1.350 . S
C357 N365 1.427 . S
C358 H349 0.930 . S
C358 C356 1.378 . S
C358 C359 1.367 . S
C359 C358 1.367 . S
C359 C361 1.433 . S
C360 C356 1.350 . S
C360 C357 1.463 . S
C360 N364 1.427 . S
C361 H351 0.929 . S
C361 C359 1.433 . S
C361 N364 1.384 . S
C362 H353 0.929 . S
C362 C354 1.378 . S
C362 C357 1.350 . S
C363 H350 0.929 . S
C363 C355 1.433 . S
C363 N365 1.384 . S
N364 C360 1.427 . S
N364 C361 1.384 . S
N365 C357 1.427 . S
N365 C363 1.384 . S
H366 C372 0.930 . S
H367 C376 0.930 . S
H368 C381 0.929 . S
H369 C379 0.929 . S
H370 C374 0.929 . S
H371 C380 0.929 . S
C372 H366 0.930 . S
C372 C373 1.367 1_655 S
C372 C380 1.378 . S
C373 C372 1.367 1_455 S
C373 C381 1.433 . S
C374 H370 0.929 . S
C374 C376 1.378 . S
C374 C378 1.350 . S
C375 C378 1.463 . S
C375 C380 1.350 1_455 S
C375 N383 1.427 . S
C376 H367 0.930 . S
C376 C374 1.378 . S
C376 C377 1.367 . S
C377 C376 1.367 . S
C377 C379 1.433 1_455 S
C378 C374 1.350 . S
C378 C375 1.463 . S
C378 N382 1.427 1_455 S
C379 H369 0.929 . S
C379 C377 1.433 1_655 S
C379 N382 1.384 . S
C380 H371 0.929 . S
C380 C372 1.378 . S
C380 C375 1.350 1_655 S
C381 H368 0.929 . S
C381 C373 1.433 . S
C381 N383 1.384 . S
N382 C378 1.427 1_655 S
N382 C379 1.384 . S
N383 C375 1.427 . S
N383 C381 1.384 . S
H384 C390 0.930 . S
H385 C394 0.930 . S
H386 C399 0.929 . S
H387 C397 0.929 . S
H388 C392 0.929 . S
H389 C398 0.929 . S
C390 H384 0.930 . S
C390 C391 1.384 . S
C390 C398 1.378 . S
C391 C390 1.384 . S
C391 C399 1.416 1_565 S
C392 H388 0.929 . S
C392 C394 1.378 . S
C392 C396 1.350 1_556 S
C393 C396 1.462 1_565 S
C393 C398 1.357 . S
C393 N401 1.420 1_565 S
C394 H385 0.930 . S
C394 C392 1.378 . S
C394 C395 1.367 . S
C395 C394 1.367 . S
C395 C397 1.433 1_545 S
C396 C392 1.350 1_554 S
C396 C393 1.462 1_545 S
C396 N400 1.427 1_545 S
C397 H387 0.929 . S
C397 C395 1.433 1_565 S
C397 N400 1.384 1_556 S
C398 H389 0.929 . S
C398 C390 1.378 . S
C398 C393 1.357 . S
C399 H386 0.929 . S
C399 C391 1.416 1_545 S
C399 N401 1.384 . S
N400 C396 1.427 1_565 S
N400 C397 1.384 1_554 S
N401 C393 1.420 1_545 S
N401 C399 1.384 . S
H402 C408 0.930 . S
H403 C412 0.930 . S
H404 C417 0.929 . S
H405 C415 0.929 . S
H406 C410 0.929 . S
H407 C416 0.929 . S
C408 H402 0.930 . S
C408 C409 1.367 . S
C408 C416 1.378 . S
C409 C408 1.367 . S
C409 C417 1.433 . S
C410 H406 0.929 . S
C410 C412 1.378 . S
C410 C414 1.350 1_556 S
C411 C414 1.463 . S
C411 C416 1.350 . S
C411 N419 1.427 . S
C412 H403 0.930 . S
C412 C410 1.378 . S
C412 C413 1.367 . S
C413 C412 1.367 . S
C413 C415 1.433 1_556 S
C414 C410 1.350 1_554 S
C414 C411 1.463 . S
C414 N418 1.427 . S
C415 H405 0.929 . S
C415 C413 1.433 1_554 S
C415 N418 1.384 . S
C416 H407 0.929 . S
C416 C408 1.378 . S
C416 C411 1.350 . S
C417 H404 0.929 . S
C417 C409 1.433 . S
C417 N419 1.384 . S
N418 C414 1.427 . S
N418 C415 1.384 . S
N419 C411 1.427 . S
N419 C417 1.384 . S
H420 C426 0.930 . S
H421 C430 0.930 . S
H422 C435 0.929 . S
H423 C433 0.929 . S
H424 C428 0.929 . S
H425 C434 0.929 . S
C426 H420 0.930 . S
C426 C427 1.367 . S
C426 C434 1.378 . S
C427 C426 1.367 . S
C427 C435 1.433 . S
C428 H424 0.929 . S
C428 C430 1.378 1_554 S
C428 C432 1.350 . S
C429 C432 1.463 . S
C429 C434 1.350 . S
C429 N437 1.427 . S
C430 H421 0.930 . S
C430 C428 1.378 1_556 S
C430 C431 1.367 . S
C431 C430 1.367 . S
C431 C433 1.433 . S
C432 C428 1.350 . S
C432 C429 1.463 . S
C432 N436 1.427 1_554 S
C433 H423 0.929 . S
C433 C431 1.433 . S
C433 N436 1.384 . S
C434 H425 0.929 . S
C434 C426 1.378 . S
C434 C429 1.350 . S
C435 H422 0.929 . S
C435 C427 1.433 . S
C435 N437 1.384 . S
N436 C432 1.427 1_556 S
N436 C433 1.384 . S
N437 C429 1.427 . S
N437 C435 1.384 . S
H438 C444 0.930 . S
H439 C448 0.930 . S
H440 C453 0.929 . S
H441 C451 0.929 . S
H442 C446 0.929 . S
H443 C452 0.929 . S
C444 H438 0.930 . S
C444 C445 1.378 . S
C444 C452 1.378 . S
C445 C444 1.378 . S
C445 C453 1.422 1_455 S
C446 H442 0.929 . S
C446 C448 1.378 1_554 S
C446 C450 1.352 1_655 S
C447 C450 1.462 . S
C447 C452 1.385 . S
C447 N455 1.392 1_455 S
C448 H439 0.930 . S
C448 C446 1.378 1_556 S
C448 C449 1.345 1_655 S
C449 C448 1.345 1_455 S
C449 C451 1.456 . S
C450 C446 1.352 1_455 S
C450 C447 1.462 . S
C450 N454 1.425 1_554 S
C451 H441 0.929 . S
C451 C449 1.456 . S
C451 N454 1.384 . S
C452 H443 0.929 . S
C452 C444 1.378 . S
C452 C447 1.385 . S
C453 H440 0.929 . S
C453 C445 1.422 1_655 S
C453 N455 1.384 . S
N454 C450 1.425 1_556 S
N454 C451 1.384 . S
N455 C447 1.392 1_655 S
N455 C453 1.384 . S
H456 C462 0.930 . S
H457 C466 0.930 . S
H458 C471 0.929 1_556 S
H459 C469 0.929 . S
H460 C464 0.929 1_455 S
H461 C470 0.929 . S
C462 H456 0.930 . S
C462 C463 1.367 1_655 S
C462 C470 1.378 . S
C463 C462 1.367 1_455 S
C463 C471 1.433 . S
C464 H460 0.929 1_655 S
C464 C466 1.378 . S
C464 C468 1.350 . S
C465 C468 1.463 . S
C465 C470 1.350 . S
C465 N473 1.427 1_655 S
C466 H457 0.930 . S
C466 C464 1.378 . S
C466 C467 1.367 . S
C467 C466 1.367 . S
C467 C469 1.433 . S
C468 C464 1.350 . S
C468 C465 1.463 . S
C468 N472 1.427 . S
C469 H459 0.929 . S
C469 C467 1.433 . S
C469 N472 1.384 . S
C470 H461 0.929 . S
C470 C462 1.378 . S
C470 C465 1.350 . S
C471 H458 0.929 1_554 S
C471 C463 1.433 . S
C471 N473 1.384 . S
N472 C468 1.427 . S
N472 C469 1.384 . S
N473 C465 1.427 1_455 S
N473 C471 1.384 . S
H474 C480 0.930 . S
H475 C484 0.930 1_545 S
H476 C489 0.929 . S
H477 C487 0.929 . S
H478 C482 0.929 . S
H479 C488 0.929 . S
C480 H474 0.930 . S
C480 C481 1.367 1_565 S
C480 C488 1.378 . S
C481 C480 1.367 1_545 S
C481 C489 1.433 . S
C482 H478 0.929 . S
C482 C484 1.378 1_545 S
C482 C486 1.350 1_545 S
C483 C486 1.463 . S
C483 C488 1.350 . S
C483 N491 1.427 1_565 S
C484 H475 0.930 1_565 S
C484 C482 1.378 1_565 S
C484 C485 1.367 . S
C485 C484 1.367 . S
C485 C487 1.433 . S
C486 C482 1.350 1_565 S
C486 C483 1.463 . S
C486 N490 1.427 . S
C487 H477 0.929 . S
C487 C485 1.433 . S
C487 N490 1.384 . S
C488 H479 0.929 . S
C488 C480 1.378 . S
C488 C483 1.350 . S
C489 H476 0.929 . S
C489 C481 1.433 . S
C489 N491 1.384 . S
N490 C486 1.427 . S
N490 C487 1.384 . S
N491 C483 1.427 1_545 S
N491 C489 1.384 . S
H492 C498 0.930 . S
H493 C502 0.930 . S
H494 C507 0.929 1_556 S
H495 C505 0.929 . S
H496 C500 0.929 . S
H497 C506 0.929 . S
C498 H492 0.930 . S
C498 C499 1.367 . S
C498 C506 1.378 . S
C499 C498 1.367 . S
C499 C507 1.433 . S
C500 H496 0.929 . S
C500 C502 1.378 . S
C500 C504 1.350 . S
C501 C504 1.463 . S
C501 C506 1.350 . S
C501 N509 1.427 . S
C502 H493 0.930 . S
C502 C500 1.378 . S
C502 C503 1.367 . S
C503 C502 1.367 . S
C503 C505 1.433 . S
C504 C500 1.350 . S
C504 C501 1.463 . S
C504 N508 1.427 . S
C505 H495 0.929 . S
C505 C503 1.433 . S
C505 N508 1.384 . S
C506 H497 0.929 . S
C506 C498 1.378 . S
C506 C501 1.350 . S
C507 H494 0.929 1_554 S
C507 C499 1.433 . S
C507 N509 1.384 . S
N508 C504 1.427 . S
N508 C505 1.384 . S
N509 C501 1.427 . S
N509 C507 1.384 . S
H510 C516 0.930 . S
H511 C520 0.930 . S
H512 C525 0.929 . S
H513 C523 0.929 . S
H514 C518 0.929 . S
H515 C524 0.929 . S
C516 H510 0.930 . S
C516 C517 1.367 . S
C516 C524 1.378 . S
C517 C516 1.367 . S
C517 C525 1.433 . S
C518 H514 0.929 . S
C518 C520 1.378 . S
C518 C522 1.350 . S
C519 C522 1.463 . S
C519 C524 1.350 . S
C519 N527 1.427 . S
C520 H511 0.930 . S
C520 C518 1.378 . S
C520 C521 1.367 . S
C521 C520 1.367 . S
C521 C523 1.433 . S
C522 C518 1.350 . S
C522 C519 1.463 . S
C522 N526 1.427 . S
C523 H513 0.929 . S
C523 C521 1.433 . S
C523 N526 1.384 . S
C524 H515 0.929 . S
C524 C516 1.378 . S
C524 C519 1.350 . S
C525 H512 0.929 . S
C525 C517 1.433 . S
C525 N527 1.384 . S
N526 C522 1.427 . S
N526 C523 1.384 . S
N527 C519 1.427 . S
N527 C525 1.384 . S
H528 C534 0.930 . S
H529 C538 0.930 . S
H530 C543 0.929 . S
H531 C541 0.929 . S
H532 C536 0.929 . S
H533 C542 0.929 . S
C534 H528 0.930 . S
C534 C535 1.367 . S
C534 C542 1.378 . S
C535 C534 1.367 . S
C535 C543 1.433 1_655 S
C536 H532 0.929 . S
C536 C538 1.378 . S
C536 C540 1.350 . S
C537 C540 1.463 . S
C537 C542 1.350 1_455 S
C537 N545 1.427 . S
C538 H529 0.930 . S
C538 C536 1.378 . S
C538 C539 1.367 . S
C539 C538 1.367 . S
C539 C541 1.433 . S
C540 C536 1.350 . S
C540 C537 1.463 . S
C540 N544 1.427 . S
C541 H531 0.929 . S
C541 C539 1.433 . S
C541 N544 1.384 . S
C542 H533 0.929 . S
C542 C534 1.378 . S
C542 C537 1.350 1_655 S
C543 H530 0.929 . S
C543 C535 1.433 1_455 S
C543 N545 1.384 . S
N544 C540 1.427 . S
N544 C541 1.384 . S
N545 C537 1.427 . S
N545 C543 1.384 . S
H546 C552 0.930 . S
H547 C556 0.930 . S
H548 C561 0.928 1_565 S
H549 C559 0.929 1_556 S
H550 C554 0.929 . S
H551 C560 0.929 . S
C552 H546 0.930 . S
C552 C553 1.367 1_545 S
C552 C560 1.378 . S
C553 C552 1.367 1_565 S
C553 C561 1.433 1_565 S
C554 H550 0.929 . S
C554 C556 1.378 . S
C554 C558 1.350 . S
C555 C558 1.463 . S
C555 C560 1.350 . S
C555 N563 1.427 . S
C556 H547 0.930 . S
C556 C554 1.378 . S
C556 C557 1.367 . S
C557 C556 1.367 . S
C557 C559 1.433 . S
C558 C554 1.350 . S
C558 C555 1.463 . S
C558 N562 1.427 . S
C559 H549 0.929 1_554 S
C559 C557 1.433 . S
C559 N562 1.384 . S
C560 H551 0.929 . S
C560 C552 1.378 . S
C560 C555 1.350 . S
C561 H548 0.928 1_545 S
C561 C553 1.433 1_545 S
C561 N563 1.384 . S
N562 C558 1.427 . S
N562 C559 1.384 . S
N563 C555 1.427 . S
N563 C561 1.384 . S
H564 C570 0.930 . S
H565 C574 0.930 . S
H566 C579 0.929 . S
H567 C577 0.929 . S
H568 C572 0.929 . S
H569 C578 0.929 . S
C570 H564 0.930 . S
C570 C571 1.367 . S
C570 C578 1.378 . S
C571 C570 1.367 . S
C571 C579 1.433 . S
C572 H568 0.929 . S
C572 C574 1.378 . S
C572 C576 1.350 . S
C573 C576 1.463 . S
C573 C578 1.350 . S
C573 N581 1.427 . S
C574 H565 0.930 . S
C574 C572 1.378 . S
C574 C575 1.367 . S
C575 C574 1.367 . S
C575 C577 1.433 . S
C576 C572 1.350 . S
C576 C573 1.463 . S
C576 N580 1.427 . S
C577 H567 0.929 . S
C577 C575 1.433 . S
C577 N580 1.384 . S
C578 H569 0.929 . S
C578 C570 1.378 . S
C578 C573 1.350 . S
C579 H566 0.929 . S
C579 C571 1.433 . S
C579 N581 1.384 . S
N580 C576 1.427 . S
N580 C577 1.384 . S
N581 C573 1.427 . S
N581 C579 1.384 . S
H582 C588 0.930 . S
H583 C592 0.930 . S
H584 C597 0.929 . S
H585 C595 0.929 . S
H586 C590 0.929 . S
H587 C596 0.929 . S
C588 H582 0.930 . S
C588 C589 1.367 . S
C588 C596 1.378 . S
C589 C588 1.367 . S
C589 C597 1.433 . S
C590 H586 0.929 . S
C590 C592 1.378 . S
C590 C594 1.350 . S
C591 C594 1.463 . S
C591 C596 1.350 . S
C591 N599 1.427 . S
C592 H583 0.930 . S
C592 C590 1.378 . S
C592 C593 1.367 . S
C593 C592 1.367 . S
C593 C595 1.433 . S
C594 C590 1.350 . S
C594 C591 1.463 . S
C594 N598 1.427 . S
C595 H585 0.929 . S
C595 C593 1.433 . S
C595 N598 1.384 . S
C596 H587 0.929 . S
C596 C588 1.378 . S
C596 C591 1.350 . S
C597 H584 0.929 . S
C597 C589 1.433 . S
C597 N599 1.384 . S
N598 C594 1.427 . S
N598 C595 1.384 . S
N599 C591 1.427 . S
N599 C597 1.384 . S
H600 C606 0.926 1_655 S
H601 C610 0.930 . S
H602 C615 0.929 . S
H603 C613 0.919 1_655 S
H604 C608 0.929 . S
H605 C614 0.929 1_655 S
C606 H600 0.926 1_455 S
C606 C607 1.371 . S
C606 C614 1.378 . S
C607 C606 1.371 . S
C607 C615 1.433 . S
C608 H604 0.929 . S
C608 C610 1.378 . S
C608 C612 1.350 . S
C609 C612 1.463 . S
C609 C614 1.350 . S
C609 N617 1.427 . S
C610 H601 0.930 . S
C610 C608 1.378 . S
C610 C611 1.367 . S
C611 C610 1.367 . S
C611 C613 1.433 . S
C612 C608 1.350 . S
C612 C609 1.463 . S
C612 N616 1.427 . S
C613 H603 0.919 1_455 S
C613 C611 1.433 . S
C613 N616 1.384 . S
C614 H605 0.929 1_455 S
C614 C606 1.378 . S
C614 C609 1.350 . S
C615 H602 0.929 . S
C615 C607 1.433 . S
C615 N617 1.384 . S
N616 C612 1.427 . S
N616 C613 1.384 . S
N617 C609 1.427 . S
N617 C615 1.384 . S
H618 C624 0.930 . S
H619 C628 0.930 . S
H620 C633 0.929 . S
H621 C631 0.929 . S
H622 C626 0.929 . S
H623 C632 0.929 . S
C624 H618 0.930 . S
C624 C625 1.367 . S
C624 C632 1.378 . S
C625 C624 1.367 . S
C625 C633 1.433 . S
C626 H622 0.929 . S
C626 C628 1.378 . S
C626 C630 1.350 . S
C627 C630 1.463 . S
C627 C632 1.350 . S
C627 N635 1.427 . S
C628 H619 0.930 . S
C628 C626 1.378 . S
C628 C629 1.367 . S
C629 C628 1.367 . S
C629 C631 1.433 . S
C630 C626 1.350 . S
C630 C627 1.463 . S
C630 N634 1.427 . S
C631 H621 0.929 . S
C631 C629 1.433 . S
C631 N634 1.384 . S
C632 H623 0.929 . S
C632 C624 1.378 . S
C632 C627 1.350 . S
C633 H620 0.929 . S
C633 C625 1.433 . S
C633 N635 1.384 . S
N634 C630 1.427 . S
N634 C631 1.384 . S
N635 C627 1.427 . S
N635 C633 1.384 . S
H636 C642 0.930 . S
H637 C646 0.930 . S
H638 C651 0.929 . S
H639 C649 0.929 . S
H640 C644 0.929 . S
H641 C650 0.929 . S
C642 H636 0.930 . S
C642 C643 1.367 . S
C642 C650 1.378 . S
C643 C642 1.367 . S
C643 C651 1.433 . S
C644 H640 0.929 . S
C644 C646 1.378 . S
C644 C648 1.350 . S
C645 C648 1.463 . S
C645 C650 1.350 . S
C645 N653 1.427 . S
C646 H637 0.930 . S
C646 C644 1.378 . S
C646 C647 1.367 . S
C647 C646 1.367 . S
C647 C649 1.433 . S
C648 C644 1.350 . S
C648 C645 1.463 . S
C648 N652 1.427 . S
C649 H639 0.929 . S
C649 C647 1.433 . S
C649 N652 1.384 . S
C650 H641 0.929 . S
C650 C642 1.378 . S
C650 C645 1.350 . S
C651 H638 0.929 . S
C651 C643 1.433 . S
C651 N653 1.384 . S
N652 C648 1.427 . S
N652 C649 1.384 . S
N653 C645 1.427 . S
N653 C651 1.384 . S
H654 C660 0.930 . S
H655 C664 0.930 . S
H656 C669 0.929 . S
H657 C667 0.929 . S
H658 C662 0.929 . S
H659 C668 0.929 . S
C660 H654 0.930 . S
C660 C661 1.367 . S
C660 C668 1.378 . S
C661 C660 1.367 . S
C661 C669 1.433 . S
C662 H658 0.929 . S
C662 C664 1.378 . S
C662 C666 1.350 . S
C663 C666 1.463 . S
C663 C668 1.350 . S
C663 N671 1.427 . S
C664 H655 0.930 . S
C664 C662 1.378 . S
C664 C665 1.367 . S
C665 C664 1.367 . S
C665 C667 1.433 . S
C666 C662 1.350 . S
C666 C663 1.463 . S
C666 N670 1.427 . S
C667 H657 0.929 . S
C667 C665 1.433 . S
C667 N670 1.384 . S
C668 H659 0.929 . S
C668 C660 1.378 . S
C668 C663 1.350 . S
C669 H656 0.929 . S
C669 C661 1.433 . S
C669 N671 1.384 . S
N670 C666 1.427 . S
N670 C667 1.384 . S
N671 C663 1.427 . S
N671 C669 1.384 . S
H672 C678 0.938 . S
H673 C682 0.930 . S
H674 C687 0.929 . S
H675 C685 0.929 . S
H676 C680 0.929 . S
H677 C686 0.928 1_455 S
C678 H672 0.938 . S
C678 C679 1.363 1_455 S
C678 C686 1.376 1_455 S
C679 C678 1.363 1_655 S
C679 C687 1.433 . S
C680 H676 0.929 . S
C680 C682 1.378 . S
C680 C684 1.350 . S
C681 C684 1.463 . S
C681 C686 1.350 . S
C681 N689 1.427 . S
C682 H673 0.930 . S
C682 C680 1.378 . S
C682 C683 1.367 . S
C683 C682 1.367 . S
C683 C685 1.433 . S
C684 C680 1.350 . S
C684 C681 1.463 . S
C684 N688 1.427 . S
C685 H675 0.929 . S
C685 C683 1.433 . S
C685 N688 1.384 . S
C686 H677 0.928 1_655 S
C686 C678 1.376 1_655 S
C686 C681 1.350 . S
C687 H674 0.929 . S
C687 C679 1.433 . S
C687 N689 1.384 . S
N688 C684 1.427 . S
N688 C685 1.384 . S
N689 C681 1.427 . S
N689 C687 1.384 . S
H690 C696 0.930 . S
H691 C700 0.930 . S
H692 C705 0.929 . S
H693 C703 0.929 . S
H694 C698 0.926 1_545 S
H695 C704 0.929 . S
C696 H690 0.930 . S
C696 C697 1.367 . S
C696 C704 1.378 . S
C697 C696 1.367 . S
C697 C705 1.433 1_565 S
C698 H694 0.926 1_565 S
C698 C700 1.378 . S
C698 C702 1.350 . S
C699 C702 1.463 . S
C699 C704 1.350 . S
C699 N707 1.428 1_565 S
C700 H691 0.930 . S
C700 C698 1.378 . S
C700 C701 1.367 . S
C701 C700 1.367 . S
C701 C703 1.433 . S
C702 C698 1.350 . S
C702 C699 1.463 . S
C702 N706 1.427 . S
C703 H693 0.929 . S
C703 C701 1.433 . S
C703 N706 1.384 . S
C704 H695 0.929 . S
C704 C696 1.378 . S
C704 C699 1.350 . S
C705 H692 0.929 . S
C705 C697 1.433 1_545 S
C705 N707 1.384 . S
N706 C702 1.427 . S
N706 C703 1.384 . S
N707 C699 1.428 1_545 S
N707 C705 1.384 . S
H708 C714 0.930 . S
H709 C718 0.930 . S
H710 C723 0.929 . S
H711 C721 0.929 . S
H712 C716 0.929 . S
H713 C722 0.929 . S
C714 H708 0.930 . S
C714 C715 1.367 . S
C714 C722 1.378 . S
C715 C714 1.367 . S
C715 C723 1.433 . S
C716 H712 0.929 . S
C716 C718 1.378 . S
C716 C720 1.350 . S
C717 C720 1.463 . S
C717 C722 1.350 . S
C717 N725 1.427 . S
C718 H709 0.930 . S
C718 C716 1.378 . S
C718 C719 1.367 . S
C719 C718 1.367 . S
C719 C721 1.433 . S
C720 C716 1.350 . S
C720 C717 1.463 . S
C720 N724 1.427 . S
C721 H711 0.929 . S
C721 C719 1.433 . S
C721 N724 1.384 . S
C722 H713 0.929 . S
C722 C714 1.378 . S
C722 C717 1.350 . S
C723 H710 0.929 . S
C723 C715 1.433 . S
C723 N725 1.384 . S
N724 C720 1.427 . S
N724 C721 1.384 . S
N725 C717 1.427 . S
N725 C723 1.384 . S
H726 C732 0.930 . S
H727 C736 0.930 . S
H728 C741 0.929 . S
H729 C739 0.929 . S
H730 C734 0.929 . S
H731 C740 0.929 . S
C732 H726 0.930 . S
C732 C733 1.367 . S
C732 C740 1.378 . S
C733 C732 1.367 . S
C733 C741 1.433 . S
C734 H730 0.929 . S
C734 C736 1.378 . S
C734 C738 1.350 . S
C735 C738 1.463 . S
C735 C740 1.350 . S
C735 N743 1.427 . S
C736 H727 0.930 . S
C736 C734 1.378 . S
C736 C737 1.367 . S
C737 C736 1.367 . S
C737 C739 1.433 . S
C738 C734 1.350 . S
C738 C735 1.463 . S
C738 N742 1.427 . S
C739 H729 0.929 . S
C739 C737 1.433 . S
C739 N742 1.384 . S
C740 H731 0.929 . S
C740 C732 1.378 . S
C740 C735 1.350 . S
C741 H728 0.929 . S
C741 C733 1.433 . S
C741 N743 1.384 . S
N742 C738 1.427 . S
N742 C739 1.384 . S
N743 C735 1.427 . S
N743 C741 1.384 . S
C319 C125 1.918 . S
C323 C162 1.957 . S
C341 C202 1.955 . S
C337 C144 1.918 . S
C359 C242 1.952 . S
C355 C87 1.916 . S
C377 C282 1.956 . S
C373 C106 1.917 . S
C395 C171 1.952 . S
C391 C49 1.916 . S
C409 C68 1.914 . S
C413 C211 1.953 . S
C427 C11 1.921 . S
C431 C251 1.957 . S
C445 C30 1.918 1_455 S
C449 C291 1.961 . S
C467 C168 0.551 . S
C463 C97 0.598 . S
C485 C208 0.541 . S
C481 C116 0.569 . S
C503 C248 0.551 . S
C499 C135 0.598 . S
C517 C78 0.576 . S
C521 C288 0.566 . S
C535 C21 0.582 . S
C539 C159 0.570 . S
C557 C199 0.559 . S
C553 C40 0.605 . S
C575 C239 0.573 . S
C571 C59 0.602 . S
C589 C2 0.602 . S
C593 C279 0.572 . S
C607 C101 2.038 . S
C611 C163 2.277 . S
C625 C120 2.039 . S
C629 C203 2.276 . S
C647 C243 2.279 . S
C643 C139 2.042 . S
C665 C283 2.277 . S
C661 C82 2.055 . S
C679 C25 2.056 . S
C683 C154 2.279 . S
C701 C194 2.275 . S
C697 C44 2.038 . S
C719 C234 2.274 . S
C715 C63 2.038 . S
C733 C6 2.049 . S
C737 C274 2.280 . S
