# Generated by pormake.
# Topology pts, (4,4)-cn, num edge types: 1
# Building blocks:
#     Node 0, Type 0, BuildingBlock: GIZVER_clean_linker_0, # of connection points: 4
#     Node 1, Type 0, BuildingBlock: GIZVER_clean_linker_0, # of connection points: 4
#     Node 2, Type 1, BuildingBlock: UXUYUI_clean_sbu_0, # of connection points: 4
#     Node 3, Type 1, BuildingBlock: UXUYUI_clean_sbu_0, # of connection points: 4
#     Edge 4, Type (0, 1), BuildingBlock: KIFKEQ_clean_linker_1, # of connection points: 2
#     Edge 5, Type (0, 1), BuildingBlock: KIFKEQ_clean_linker_1, # of connection points: 2
#     Edge 6, Type (0, 1), BuildingBlock: KIFKEQ_clean_linker_1, # of connection points: 2
#     Edge 7, Type (0, 1), BuildingBlock: KIFKEQ_clean_linker_1, # of connection points: 2
#     Edge 8, Type (0, 1), BuildingBlock: KIFKEQ_clean_linker_1, # of connection points: 2
#     Edge 9, Type (0, 1), BuildingBlock: KIFKEQ_clean_linker_1, # of connection points: 2
#     Edge 10, Type (0, 1), BuildingBlock: KIFKEQ_clean_linker_1, # of connection points: 2
#     Edge 11, Type (0, 1), BuildingBlock: KIFKEQ_clean_linker_1, # of connection points: 2
# Relax obj value: 0.010
# Max RMSD: 0.058
# Mean RMSD: 0.057
data_MOF--net-pts--node1-UXUYUI_clean_sbu_0--node2-GIZVER_clean_linker_0--edge1-KIFKEQ_clean_linker_1
_symmetry_space_group_name_H-M    P1
_symmetry_Int_Tables_number       1
_symmetry_cell_setting            triclinic
loop_
_symmetry_equiv_pos_as_xyz
'x, y, z'
_cell_length_a     32.309081
_cell_length_b     32.269961
_cell_length_c     42.470354
_cell_angle_alpha  90.246541
_cell_angle_beta   89.65448
_cell_angle_gamma 90.420094
loop_
_atom_site_label
_atom_site_type_symbol
_atom_site_fract_x
_atom_site_fract_y
_atom_site_fract_z
_atom_type_partial_charge
H0 H 0.57251 0.08373 0.04745 0.0
H1 H 0.5749 0.07786 0.94605 0.0
H2 H 0.67299 0.02366 -0.00051 0.0
H3 H 0.52851 0.12904 0.01658 0.0
H4 H 0.53151 0.12907 0.97461 0.0
H5 H 0.48591 0.07607 0.04471 0.0
H6 H 0.38698 0.02173 0.99096 0.0
H7 H 0.48618 0.08523 0.94347 0.0
C8 C 0.58674 0.0729 0.02578 0.0
C9 C 0.62425 0.05129 0.02691 0.0
C10 C 0.56838 0.08202 -0.00334 0.0
C11 C 0.58812 0.0696 0.96855 0.0
C12 C 0.62566 0.04794 0.96945 0.0
C13 C 0.64293 0.03834 -0.00129 0.0
C14 C 0.53009 0.10844 -0.00447 0.0
C15 C 0.49135 0.08209 -0.00583 0.0
C16 C 0.47229 0.06828 0.02217 0.0
C17 C 0.43474 0.04607 0.02115 0.0
C18 C 0.41702 0.03692 -0.00815 0.0
C19 C 0.4351 0.05115 0.96384 0.0
C20 C 0.47253 0.07342 0.96504 0.0
H21 H 0.07821 0.57806 0.44305 0.0
H22 H 0.07592 0.57804 0.54456 0.0
H23 H 0.01837 0.67655 0.49362 0.0
H24 H 0.12647 0.53509 0.47303 0.0
H25 H 0.12561 0.53513 0.51503 0.0
H26 H 0.07979 0.48991 0.44283 0.0
H27 H 0.02232 0.38928 0.49304 0.0
H28 H 0.07766 0.49008 0.54432 0.0
C29 C 0.06795 0.59164 0.46512 0.0
C30 C 0.04573 0.62888 0.46494 0.0
C31 C 0.07835 0.5727 0.49379 0.0
C32 C 0.06665 0.59162 0.52241 0.0
C33 C 0.0444 0.62885 0.52245 0.0
C34 C 0.03354 0.64667 0.49366 0.0
C35 C 0.10544 0.5348 0.49388 0.0
C36 C 0.0799 0.49543 0.49359 0.0
C37 C 0.06981 0.47606 0.46484 0.0
C38 C 0.04868 0.43785 0.4645 0.0
C39 C 0.03669 0.41977 0.49312 0.0
C40 C 0.04731 0.43812 0.52193 0.0
C41 C 0.06857 0.47622 0.5221 0.0
Li42 Li 0.03291 0.06895 0.2644 0.0
Li43 Li 0.03004 0.99199 0.26036 0.0
Li44 Li 0.06504 0.0313 0.22017 0.0
Li45 Li 0.99091 0.0305 0.22393 0.0
C46 C 0.11542 1.00947 0.27041 0.0
N47 N 0.19007 0.96979 0.27854 0.0
C48 C 0.12235 0.97087 0.25634 0.0
C49 C 0.14645 0.02789 0.2886 0.0
C50 C 0.16028 0.95131 0.26074 0.0
C51 C 0.18398 1.00733 0.29244 0.0
C52 C 0.96965 1.01353 0.29789 0.0
C53 C 0.93092 0.95996 0.32478 0.0
N54 N 0.942 0.97682 0.35292 0.0
C55 C 0.98068 0.03027 0.3271 0.0
C56 C 0.94452 0.97808 0.29671 0.0
C57 C 0.96635 1.01131 0.35464 0.0
C58 C 1.00027 0.13598 0.29895 0.0
N59 N 0.03599 0.11793 0.28917 0.0
C60 C 0.07589 0.17426 0.30995 0.0
C61 C 0.07341 0.13607 0.29441 0.0
C62 C 0.03948 0.19386 0.32037 0.0
C63 C 1.00131 0.1739 0.31491 0.0
H64 H 0.97091 0.12102 0.29407 0.0
H65 H 0.10122 0.12148 0.28561 0.0
C66 C 0.02657 0.90515 0.26882 0.0
N67 N 0.03301 0.94172 0.28411 0.0
C68 C 0.02735 0.8678 0.28523 0.0
C69 C 0.04272 0.90621 0.33276 0.0
C70 C 0.04194 0.94284 0.31534 0.0
C71 C 0.03501 0.86805 0.31772 0.0
H72 H 0.02087 0.90488 0.24382 0.0
H73 H 0.04819 0.97221 0.32676 0.0
C74 C 0.04607 0.10531 0.19703 0.0
N75 N 0.08507 0.15629 0.15375 0.0
C76 C 0.05007 0.09276 0.16563 0.0
C77 C 0.06149 0.14402 0.20633 0.0
C78 C 0.07003 0.11888 0.14413 0.0
C79 C 0.08119 0.1693 0.18412 0.0
C80 C 1.00368 0.96566 0.19138 0.0
C81 C 1.01338 0.97157 0.15958 0.0
C82 C 0.96821 0.94298 0.19961 0.0
C83 C 0.98733 0.95489 0.13657 0.0
C84 C 0.9429 0.92688 0.17591 0.0
N85 N 0.95289 0.93312 0.14514 0.0
C86 C 0.12464 0.9977 0.17824 0.0
C87 C 0.14142 0.06436 0.19819 0.0
C88 C 0.16246 0.99577 0.16226 0.0
N89 N 0.11467 0.03183 0.19544 0.0
C90 C 0.17949 0.06388 0.18243 0.0
C91 C 0.19051 0.0292 0.16416 0.0
H92 H 0.10378 0.97138 0.17772 0.0
H93 H 0.13344 0.09044 0.21302 0.0
C94 C 0.9039 0.02493 0.21862 0.0
N95 N 0.93914 0.03405 0.20232 0.0
C96 C 0.86541 0.02683 0.20397 0.0
C97 C 0.89997 0.04846 0.15612 0.0
C98 C 0.93783 0.04589 0.17167 0.0
C99 C 0.8631 0.0388 0.17231 0.0
H100 H 0.90561 1.01634 0.24309 0.0
H101 H 0.96617 0.05312 0.15921 0.0
O102 O 0.07886 0.02966 0.2659 0.0
O103 O 0.98386 0.03139 0.27066 0.0
O104 O 0.02698 0.08 0.21854 0.0
O105 O 0.02829 0.98255 0.21433 0.0
H106 H 0.09888 0.95631 0.24191 0.0
H107 H 0.14163 0.0578 0.29958 0.0
H108 H 0.1661 0.92149 0.24991 0.0
H109 H 0.2083 0.02125 0.30643 0.0
H110 H 0.91169 0.93239 0.32419 0.0
H111 H 1.0006 0.05725 0.32858 0.0
H112 H 0.93611 0.96425 0.27441 0.0
H113 H 0.97479 0.02387 0.37739 0.0
H114 H 0.10596 0.18867 0.31304 0.0
H115 H 0.97247 0.18731 0.32291 0.0
H116 H 0.02125 0.83912 0.27271 0.0
H117 H 0.04957 0.90772 0.35767 0.0
H118 H 0.03858 0.06287 0.15803 0.0
H119 H 0.05824 0.15452 0.23041 0.0
H120 H 0.07367 0.10936 0.11983 0.0
H121 H 0.09337 0.19927 0.19103 0.0
H122 H 0.04049 0.98915 0.15263 0.0
H123 H 0.95987 0.93848 0.22405 0.0
H124 H 0.9944 0.9594 0.11189 0.0
H125 H 0.9152 0.90959 0.18199 0.0
H126 H 0.17001 0.96795 0.14916 0.0
H127 H 0.19996 0.09045 0.1845 0.0
H128 H 0.83771 0.01966 0.21742 0.0
H129 H 0.8996 0.05742 0.13157 0.0
Li130 Li 0.99202 0.03572 0.76587 0.0
Li131 Li 0.0685 0.03414 0.76475 0.0
Li132 Li 0.02788 0.07306 0.72397 0.0
Li133 Li 0.03114 0.99658 0.72375 0.0
C134 C 1.01493 0.10823 0.79299 0.0
N135 N 0.98071 0.1586 0.83894 0.0
C136 C 0.03389 0.11219 0.82235 0.0
C137 C 0.9789 0.13045 0.78687 0.0
C138 C 1.01605 0.13767 0.84531 0.0
C139 C 0.96197 0.15558 0.81043 0.0
C140 C 0.04568 0.96297 0.79323 0.0
C141 C 0.09486 0.91194 0.81026 0.0
N142 N 0.07982 0.91516 0.84014 0.0
C143 C 0.03041 0.96539 0.82403 0.0
C144 C 0.07787 0.93568 0.78621 0.0
C145 C 0.04818 0.94111 0.84744 0.0
C146 C 0.90681 0.02395 0.77537 0.0
N147 N 0.94222 0.03467 0.79063 0.0
C148 C 0.90477 0.04312 0.83895 0.0
C149 C 0.94188 0.04397 0.8219 0.0
C150 C 0.86764 0.03256 0.82369 0.0
C151 C 0.869 0.02292 0.79145 0.0
H152 H 0.90791 1.01596 0.75066 0.0
H153 H 0.97037 0.05202 0.83369 0.0
C154 C 0.1549 0.03981 0.77211 0.0
N155 N 0.11888 0.03469 0.78844 0.0
C156 C 0.19277 0.04052 0.78774 0.0
C157 C 0.15591 0.0322 0.837 0.0
C158 C 0.11875 0.03089 0.82033 0.0
C159 C 0.1935 0.03696 0.8206 0.0
H160 H 0.15433 0.04388 0.74692 0.0
H161 H 0.08982 0.02733 0.83291 0.0
C162 C 0.95703 0.04861 0.69668 0.0
N163 N 0.90828 0.0819 0.65002 0.0
C164 C 0.95922 0.03311 0.66595 0.0
C165 C 0.92953 0.0806 0.70377 0.0
C166 C 0.93446 0.05044 0.64266 0.0
C167 C 0.9053 0.09716 0.67984 0.0
C168 C 0.10298 0.02019 0.6959 0.0
C169 C 0.1065 0.03815 0.66611 0.0
C170 C 0.12601 0.98491 0.70282 0.0
C171 C 0.13235 0.02001 0.64353 0.0
C172 C 0.15148 0.96765 0.67962 0.0
N173 N 0.15406 0.98538 0.65068 0.0
C174 C 0.03045 0.15955 0.71539 0.0
C175 C 0.02374 0.12193 0.66765 0.0
C176 C 0.0304 0.19707 0.69916 0.0
N177 N 0.02689 0.12295 0.69958 0.0
C178 C 0.02437 0.15873 0.6504 0.0
C179 C 0.02769 0.19687 0.66625 0.0
H180 H 0.03399 0.15973 0.74063 0.0
H181 H 0.02127 0.09256 0.6555 0.0
C182 C 0.02116 0.91085 0.71535 0.0
N183 N 0.03077 0.94629 0.6996 0.0
C184 C 0.02064 0.87274 0.69966 0.0
C185 C 0.03901 0.90824 0.65155 0.0
C186 C 0.03943 0.94566 0.66822 0.0
C187 C 0.02957 0.87111 0.66731 0.0
H188 H 1.01364 0.91217 0.74015 0.0
H189 H 0.04659 0.97416 0.65605 0.0
O190 O 0.03182 0.08317 0.77027 0.0
O191 O 0.02885 0.98679 0.77004 0.0
O192 O 0.98136 0.03226 0.71974 0.0
O193 O 0.07754 0.03734 0.71827 0.0
H194 H 0.06213 0.0959 0.82738 0.0
H195 H 0.9642 0.12835 0.76416 0.0
H196 H 0.03033 0.14084 0.86817 0.0
H197 H 0.93396 0.17273 0.80603 0.0
H198 H 0.11992 0.89086 0.80515 0.0
H199 H 1.0053 0.98596 0.82988 0.0
H200 H 0.08949 0.93264 0.76243 0.0
H201 H 0.03682 0.94292 0.87142 0.0
H202 H 0.90509 0.05109 0.86375 0.0
H203 H 0.84123 1.014 0.77889 0.0
H204 H 0.22112 0.04484 0.77437 0.0
H205 H 0.15532 0.02933 0.8624 0.0
H206 H 0.97998 1.00816 0.66006 0.0
H207 H 0.92674 0.09242 0.7275 0.0
H208 H 0.93607 0.03891 0.61874 0.0
H209 H 0.88405 0.12207 0.68499 0.0
H210 H 0.0896 0.06583 0.66046 0.0
H211 H 0.12429 0.97106 0.72588 0.0
H212 H 0.13519 0.0335 0.62034 0.0
H213 H 0.16926 0.94021 0.68464 0.0
H214 H 0.0336 0.22589 0.71213 0.0
H215 H 0.0222 0.15743 0.62498 0.0
H216 H 1.0126 0.84495 0.71261 0.0
H217 H 0.04637 0.90834 0.62663 0.0
H218 H 0.41648 0.09974 0.06898 0.0
H219 H 0.39568 0.97399 0.03753 0.0
H220 H 0.36118 0.09193 0.10796 0.0
H221 H 0.34055 0.96597 0.07665 0.0
H222 H 0.20612 0.99778 0.10543 0.0
H223 H 0.27141 0.99683 0.07681 0.0
H224 H 0.33199 0.05722 0.1551 0.0
H225 H 0.26644 0.05769 0.18415 0.0
C226 C 0.40115 0.06993 0.07122 0.0
C227 C 0.41005 0.03761 0.05002 0.0
C228 C 0.36932 0.06548 0.09348 0.0
C229 C 0.3459 0.02861 0.09492 0.0
C230 C 0.3574 0.99508 0.0756 0.0
C231 C 0.38912 0.99955 0.05338 0.0
C232 C 0.23343 1.0102 0.11686 0.0
C233 C 0.2309 0.02783 0.14712 0.0
C234 C 0.27097 1.00957 0.10044 0.0
C235 C 0.30701 0.02668 0.11377 0.0
C236 C 0.30471 0.04402 0.14413 0.0
C237 C 0.26709 0.04447 0.16067 0.0
H238 H 0.97622 0.40339 0.54509 0.0
H239 H 0.10723 0.41484 0.56253 0.0
H240 H 0.97115 0.34845 0.58464 0.0
H241 H 0.10232 0.35949 0.60166 0.0
H242 H 0.07958 0.2161 0.61781 0.0
H243 H 0.08391 0.28118 0.58858 0.0
H244 H 0.98479 0.33133 0.64532 0.0
H245 H 0.98097 0.26623 0.67506 0.0
C246 C 1.0036 0.39499 0.55813 0.0
C247 C 0.04207 0.41335 0.55094 0.0
C248 C 1.00074 0.3636 0.58066 0.0
C249 C 0.03644 0.34957 0.59587 0.0
C250 C 0.07442 0.36968 0.59007 0.0
C251 C 0.07715 0.40156 0.56797 0.0
C252 C 0.05879 0.24106 0.62403 0.0
C253 C 0.02986 0.23622 0.64853 0.0
C254 C 0.06152 0.27836 0.60757 0.0
C255 C 0.03488 0.31128 0.61493 0.0
C256 C 1.00573 0.30641 0.63932 0.0
C257 C 1.00358 0.26932 0.65626 0.0
H258 H 0.66109 0.98196 0.0498 0.0
H259 H 0.64217 0.11169 0.06987 0.0
H260 H 0.71424 0.97934 0.09029 0.0
H261 H 0.69494 0.10902 0.11081 0.0
H262 H 0.83584 0.09987 0.13346 0.0
H263 H 0.77088 0.10219 0.10466 0.0
H264 H 0.73312 0.98604 0.14651 0.0
H265 H 0.79868 0.98331 0.17491 0.0
C266 C 0.66746 1.00958 0.06358 0.0
C267 C 0.64776 0.04707 0.05657 0.0
C268 C 0.69781 1.00809 0.08683 0.0
C269 C 0.70921 0.04415 0.10342 0.0
C270 C 0.68722 0.08089 0.09807 0.0
C271 C 0.65665 0.0823 0.07492 0.0
C272 C 0.81366 0.07486 0.13654 0.0
C273 C 0.82252 0.04126 0.15624 0.0
C274 C 0.77618 0.07646 0.12039 0.0
C275 C 0.74677 0.04437 0.12342 0.0
C276 C 0.75523 1.01116 0.14364 0.0
C277 C 0.79265 1.00971 0.16 0.0
H278 H 0.10026 0.64864 0.56817 0.0
H279 H 0.9727 0.6653 0.54178 0.0
H280 H 0.09345 0.7035 0.60764 0.0
H281 H 0.96571 0.71995 0.58133 0.0
H282 H 0.99541 0.85526 0.6099 0.0
H283 H 0.99533 0.79034 0.58049 0.0
H284 H 0.06024 0.73086 0.65636 0.0
H285 H 0.06108 0.79639 0.68564 0.0
C286 C 0.07035 0.66295 0.57164 0.0
C287 C 0.03712 0.65304 0.55172 0.0
C288 C 0.06647 0.69452 0.59416 0.0
C289 C 0.02928 0.71666 0.59712 0.0
C290 C 0.99504 0.70411 0.57909 0.0
C291 C 0.99892 0.67264 0.55663 0.0
C292 C 1.00974 0.82838 0.62029 0.0
C293 C 0.02846 0.83102 0.64999 0.0
C294 C 1.00921 0.791 0.60364 0.0
C295 C 0.02752 0.75533 0.61621 0.0
C296 C 0.04595 0.75781 0.64605 0.0
C297 C 0.04621 0.79524 0.66286 0.0
H298 H 0.41016 0.11432 0.92668 0.0
H299 H 0.40283 0.98147 0.93666 0.0
H300 H 0.35499 0.11161 0.88743 0.0
H301 H 0.34802 0.97865 0.89709 0.0
H302 H 0.26388 0.99278 0.80925 0.0
H303 H 0.32932 0.99637 0.83829 0.0
H304 H 0.27793 0.09077 0.89897 0.0
H305 H 0.21257 0.08676 0.87033 0.0
C306 C 0.39783 0.08442 0.91956 0.0
C307 C 0.41069 0.04808 0.93456 0.0
C308 C 0.36603 0.08292 0.8974 0.0
C309 C 0.34706 0.04497 0.88954 0.0
C310 C 0.36226 1.00826 0.90266 0.0
C311 C 0.39358 1.00984 0.92521 0.0
C312 C 0.26679 1.01439 0.82871 0.0
C313 C 0.23324 0.03936 0.83772 0.0
C314 C 0.30409 1.0164 0.84527 0.0
C315 C 0.3087 0.0441 0.87063 0.0
C316 C 0.27535 0.06956 0.87923 0.0
C317 C 0.23788 0.06697 0.8631 0.0
H318 H 0.97982 0.39814 0.44232 0.0
H319 H 0.10925 0.41942 0.42199 0.0
H320 H 0.97786 0.34328 0.4025 0.0
H321 H 0.10731 0.3647 0.382 0.0
H322 H 0.0979 0.22196 0.36212 0.0
H323 H 0.09966 0.28773 0.39027 0.0
H324 H 0.98637 0.32419 0.34511 0.0
H325 H 0.98509 0.25879 0.31602 0.0
C326 C 1.00749 0.39188 0.42862 0.0
C327 C 0.0447 0.4129 0.43527 0.0
C328 C 1.00639 0.36054 0.40582 0.0
C329 C 0.04259 0.34934 0.38946 0.0
C330 C 0.07907 0.37236 0.39455 0.0
C331 C 0.08006 0.40401 0.41714 0.0
C332 C 0.07378 0.24422 0.35758 0.0
C333 C 0.04126 0.23477 0.33681 0.0
C334 C 0.07482 0.282 0.37376 0.0
C335 C 0.04322 0.31118 0.36981 0.0
C336 C 1.011 0.30216 0.34877 0.0
C337 C 1.01016 0.26451 0.3323 0.0
H338 H 0.66454 0.97647 0.95235 0.0
H339 H 0.64452 0.10232 0.92233 0.0
H340 H 0.7193 0.96906 0.91292 0.0
H341 H 0.69947 0.09509 0.883 0.0
H342 H 0.79208 0.06176 0.80535 0.0
H343 H 0.72707 0.06063 0.83521 0.0
H344 H 0.78885 0.9999 0.91203 0.0
H345 H 0.85326 1.00012 0.88201 0.0
C346 C 0.67124 1.00221 0.93679 0.0
C347 C 0.65057 0.04008 0.9406 0.0
C348 C 0.70275 0.99809 0.91438 0.0
C349 C 0.7143 0.03177 0.8953 0.0
C350 C 0.69126 0.06852 0.89728 0.0
C351 C 0.65965 0.07263 0.91974 0.0
C352 C 0.79157 0.04771 0.82846 0.0
C353 C 0.82785 0.03118 0.84139 0.0
C354 C 0.75442 0.0473 0.84561 0.0
C355 C 0.75272 0.03 0.87591 0.0
C356 C 0.78889 1.01289 0.88856 0.0
C357 C 0.82599 1.01352 0.87154 0.0
H358 H 0.97505 0.66563 0.4447 0.0
H359 H 0.10362 0.64832 0.42021 0.0
H360 H 0.96984 0.71982 0.40502 0.0
H361 H 0.0986 0.70273 0.38062 0.0
H362 H 0.0689 0.79329 0.30122 0.0
H363 H 0.06761 0.72885 0.33138 0.0
H364 H 0.99906 0.79022 0.40549 0.0
H365 H 0.99947 0.85405 0.37513 0.0
C366 C 1.00191 0.67277 0.43026 0.0
C367 C 0.03982 0.65307 0.43571 0.0
C368 C 0.99904 0.70398 0.40774 0.0
C369 C 0.03404 0.71617 0.39018 0.0
C370 C 0.07105 0.69401 0.39373 0.0
C371 C 0.07391 0.6627 0.41631 0.0
C372 C 0.05319 0.79281 0.32382 0.0
C373 C 0.03439 0.8288 0.33586 0.0
C374 C 0.05267 0.756 0.34114 0.0
C375 C 0.03301 0.75432 0.37072 0.0
C376 C 1.01389 0.79024 0.38255 0.0
C377 C 1.01463 0.82701 0.36537 0.0
loop_
_geom_bond_atom_site_label_1
_geom_bond_atom_site_label_2
_geom_bond_distance
_geom_bond_site_symmetry_2
_ccdc_geom_bond_type
H0 C8 0.930 . S
H1 C11 0.930 . S
H2 C13 0.930 1_565 S
H3 C14 0.970 . S
H4 C14 0.970 1_556 S
H5 C16 0.930 . S
H6 C18 0.930 1_565 S
H7 C20 0.930 . S
C8 H0 0.930 . S
C8 C9 1.382 . S
C8 C10 1.426 . S
C9 C8 1.382 . S
C9 C13 1.389 . S
C10 C8 1.426 . S
C10 C11 1.375 1_554 S
C10 C14 1.532 . S
C11 H1 0.930 . S
C11 C10 1.375 1_556 S
C11 C12 1.416 . S
C12 C11 1.416 . S
C12 C13 1.371 1_556 S
C13 H2 0.930 1_545 S
C13 C9 1.389 . S
C13 C12 1.371 1_554 S
C14 H3 0.970 . S
C14 H4 0.970 1_554 S
C14 C10 1.532 . S
C14 C15 1.499 . S
C15 C14 1.499 . S
C15 C16 1.370 . S
C15 C20 1.415 1_554 S
C16 H5 0.930 . S
C16 C15 1.370 . S
C16 C17 1.407 . S
C17 C16 1.407 . S
C17 C18 1.365 . S
C18 H6 0.930 1_545 S
C18 C17 1.365 . S
C18 C19 1.393 1_554 S
C19 C18 1.393 1_556 S
C19 C20 1.387 . S
C20 H7 0.930 . S
C20 C15 1.415 1_556 S
C20 C19 1.387 . S
H21 C29 0.930 . S
H22 C32 0.930 . S
H23 C34 0.930 1_655 S
H24 C35 0.970 . S
H25 C35 0.970 . S
H26 C37 0.930 . S
H27 C39 0.930 1_655 S
H28 C41 0.930 . S
C29 H21 0.930 . S
C29 C30 1.382 . S
C29 C31 1.426 . S
C30 C29 1.382 . S
C30 C34 1.389 . S
C31 C29 1.426 . S
C31 C32 1.375 . S
C31 C35 1.532 . S
C32 H22 0.930 . S
C32 C31 1.375 . S
C32 C33 1.416 . S
C33 C32 1.416 . S
C33 C34 1.371 . S
C34 H23 0.930 1_455 S
C34 C30 1.389 . S
C34 C33 1.371 . S
C35 H24 0.970 . S
C35 H25 0.970 . S
C35 C31 1.532 . S
C35 C36 1.499 . S
C36 C35 1.499 . S
C36 C37 1.370 . S
C36 C41 1.415 . S
C37 H26 0.930 . S
C37 C36 1.370 . S
C37 C38 1.407 . S
C38 C37 1.407 . S
C38 C39 1.365 . S
C39 H27 0.930 1_455 S
C39 C38 1.365 . S
C39 C40 1.393 . S
C40 C39 1.393 . S
C40 C41 1.387 . S
C41 H28 0.930 . S
C41 C36 1.415 . S
C41 C40 1.387 . S
Li42 N59 1.990 . S
Li42 O102 1.956 . S
Li42 O103 1.970 1_455 S
Li42 O104 1.961 . S
Li43 N67 1.990 . S
Li43 O102 1.970 1_565 S
Li43 O103 1.956 1_465 S
Li43 O105 1.961 . S
Li44 N89 1.990 . S
Li44 O102 1.961 . S
Li44 O104 1.956 . S
Li44 O105 1.970 1_545 S
Li45 N95 1.990 . S
Li45 O103 1.961 . S
Li45 O104 1.970 1_655 S
Li45 O105 1.956 1_645 S
C46 C48 1.348 1_545 S
C46 C49 1.356 . S
C46 O102 1.325 . S
N47 C50 1.314 1_545 S
N47 C51 1.279 . S
C48 C46 1.348 1_565 S
C48 C50 1.353 . S
C48 H106 0.929 . S
C49 C46 1.356 . S
C49 C51 1.358 . S
C49 H107 0.930 . S
C50 N47 1.314 1_565 S
C50 C48 1.353 . S
C50 H108 0.930 . S
C51 N47 1.279 . S
C51 C49 1.358 . S
C51 H109 0.930 . S
C52 C55 1.348 . S
C52 C56 1.356 1_545 S
C52 O103 1.325 . S
C53 N54 1.279 1_565 S
C53 C56 1.358 . S
C53 H110 0.930 . S
N54 C53 1.279 1_545 S
N54 C57 1.314 . S
C55 C52 1.348 . S
C55 C57 1.353 . S
C55 H111 0.929 . S
C56 C52 1.356 1_565 S
C56 C53 1.358 . S
C56 H112 0.930 . S
C57 N54 1.314 . S
C57 C55 1.353 . S
C57 H113 0.930 . S
C58 N59 1.314 1_655 S
C58 C63 1.353 . S
C58 H64 0.930 . S
N59 Li42 1.990 . S
N59 C58 1.314 1_455 S
N59 C61 1.279 . S
C60 C61 1.358 . S
C60 C62 1.356 . S
C60 H114 0.930 . S
C61 N59 1.279 . S
C61 C60 1.358 . S
C61 H65 0.930 . S
C62 C60 1.356 . S
C62 C63 1.348 1_455 S
C63 C58 1.353 . S
C63 C62 1.348 1_655 S
C63 H115 0.929 . S
H64 C58 0.930 . S
H65 C61 0.930 . S
C66 N67 1.314 . S
C66 C68 1.353 . S
C66 H72 0.930 . S
N67 Li43 1.990 . S
N67 C66 1.314 . S
N67 C70 1.279 1_455 S
C68 C66 1.353 . S
C68 C71 1.348 . S
C68 H116 0.929 . S
C69 C70 1.358 . S
C69 C71 1.356 1_655 S
C69 H117 0.930 . S
C70 N67 1.279 1_655 S
C70 C69 1.358 . S
C70 H73 0.930 . S
C71 C68 1.348 . S
C71 C69 1.356 1_455 S
H72 C66 0.930 . S
H73 C70 0.930 . S
C74 C76 1.348 1_455 S
C74 C77 1.356 . S
C74 O104 1.325 . S
N75 C78 1.314 1_455 S
N75 C79 1.279 . S
C76 C74 1.348 1_655 S
C76 C78 1.353 . S
C76 H118 0.929 . S
C77 C74 1.356 . S
C77 C79 1.358 . S
C77 H119 0.930 . S
C78 N75 1.314 1_655 S
C78 C76 1.353 . S
C78 H120 0.930 . S
C79 N75 1.279 . S
C79 C77 1.358 . S
C79 H121 0.930 . S
C80 C81 1.348 . S
C80 C82 1.356 1_455 S
C80 O105 1.325 . S
C81 C80 1.348 . S
C81 C83 1.353 . S
C81 H122 0.929 . S
C82 C80 1.356 1_655 S
C82 C84 1.358 . S
C82 H123 0.930 . S
C83 C81 1.353 . S
C83 N85 1.314 . S
C83 H124 0.930 . S
C84 C82 1.358 . S
C84 N85 1.279 1_655 S
C84 H125 0.930 . S
N85 C83 1.314 . S
N85 C84 1.279 1_455 S
C86 C88 1.353 . S
C86 N89 1.314 1_565 S
C86 H92 0.930 . S
C87 N89 1.279 . S
C87 C90 1.358 . S
C87 H93 0.930 . S
C88 C86 1.353 . S
C88 C91 1.348 1_565 S
C88 H126 0.929 . S
N89 Li44 1.990 . S
N89 C86 1.314 1_545 S
N89 C87 1.279 . S
C90 C87 1.358 . S
C90 C91 1.356 . S
C90 H127 0.930 . S
C91 C88 1.348 1_545 S
C91 C90 1.356 . S
H92 C86 0.930 . S
H93 C87 0.930 . S
C94 N95 1.314 . S
C94 C96 1.353 . S
C94 H100 0.930 . S
N95 Li45 1.990 . S
N95 C94 1.314 . S
N95 C98 1.279 1_545 S
C96 C94 1.353 . S
C96 C99 1.348 . S
C96 H128 0.929 . S
C97 C98 1.358 . S
C97 C99 1.356 1_565 S
C97 H129 0.930 . S
C98 N95 1.279 1_565 S
C98 C97 1.358 . S
C98 H101 0.930 . S
C99 C96 1.348 . S
C99 C97 1.356 1_545 S
H100 C94 0.930 . S
H101 C98 0.930 . S
O102 Li42 1.956 . S
O102 Li43 1.970 1_545 S
O102 Li44 1.961 . S
O102 C46 1.325 . S
O103 Li42 1.970 1_655 S
O103 Li43 1.956 1_645 S
O103 Li45 1.961 . S
O103 C52 1.325 . S
O104 Li42 1.961 . S
O104 Li44 1.956 . S
O104 Li45 1.970 1_455 S
O104 C74 1.325 . S
O105 Li43 1.961 . S
O105 Li44 1.970 1_565 S
O105 Li45 1.956 1_465 S
O105 C80 1.325 . S
H106 C48 0.929 . S
H107 C49 0.930 . S
H108 C50 0.930 . S
H109 C51 0.930 . S
H110 C53 0.930 . S
H111 C55 0.929 . S
H112 C56 0.930 . S
H113 C57 0.930 . S
H114 C60 0.930 . S
H115 C63 0.929 . S
H116 C68 0.929 . S
H117 C69 0.930 . S
H118 C76 0.929 . S
H119 C77 0.930 . S
H120 C78 0.930 . S
H121 C79 0.930 . S
H122 C81 0.929 . S
H123 C82 0.930 . S
H124 C83 0.930 . S
H125 C84 0.930 . S
H126 C88 0.929 . S
H127 C90 0.930 . S
H128 C96 0.929 . S
H129 C97 0.930 . S
Li130 N147 1.990 . S
Li130 O190 1.956 1_655 S
Li130 O191 1.970 1_645 S
Li130 O192 1.961 . S
Li131 N155 1.990 . S
Li131 O190 1.970 . S
Li131 O191 1.956 1_545 S
Li131 O193 1.961 . S
Li132 N177 1.990 . S
Li132 O190 1.961 . S
Li132 O192 1.956 1_455 S
Li132 O193 1.970 . S
Li133 N183 1.990 . S
Li133 O191 1.961 . S
Li133 O192 1.970 1_465 S
Li133 O193 1.956 1_565 S
C134 C136 1.348 . S
C134 C137 1.356 1_455 S
C134 O190 1.325 . S
N135 C138 1.314 . S
N135 C139 1.279 1_455 S
C136 C134 1.348 . S
C136 C138 1.353 . S
C136 H194 0.929 . S
C137 C134 1.356 1_655 S
C137 C139 1.358 . S
C137 H195 0.930 . S
C138 N135 1.314 . S
C138 C136 1.353 . S
C138 H196 0.930 . S
C139 N135 1.279 1_655 S
C139 C137 1.358 . S
C139 H197 0.930 . S
C140 C143 1.348 1_455 S
C140 C144 1.356 . S
C140 O191 1.325 . S
C141 N142 1.279 . S
C141 C144 1.358 . S
C141 H198 0.930 . S
N142 C141 1.279 . S
N142 C145 1.314 1_455 S
C143 C140 1.348 1_655 S
C143 C145 1.353 . S
C143 H199 0.929 . S
C144 C140 1.356 . S
C144 C141 1.358 . S
C144 H200 0.930 . S
C145 N142 1.314 1_655 S
C145 C143 1.353 . S
C145 H201 0.930 . S
C146 N147 1.314 1_565 S
C146 C151 1.353 . S
C146 H152 0.930 . S
N147 Li130 1.990 . S
N147 C146 1.314 1_545 S
N147 C149 1.279 . S
C148 C149 1.358 . S
C148 C150 1.356 . S
C148 H202 0.930 . S
C149 N147 1.279 . S
C149 C148 1.358 . S
C149 H153 0.930 . S
C150 C148 1.356 . S
C150 C151 1.348 1_545 S
C151 C146 1.353 . S
C151 C150 1.348 1_565 S
C151 H203 0.929 . S
H152 C146 0.930 . S
H153 C149 0.930 . S
C154 N155 1.314 . S
C154 C156 1.353 . S
C154 H160 0.930 . S
N155 Li131 1.990 . S
N155 C154 1.314 . S
N155 C158 1.279 1_545 S
C156 C154 1.353 . S
C156 C159 1.348 . S
C156 H204 0.929 . S
C157 C158 1.358 . S
C157 C159 1.356 1_565 S
C157 H205 0.930 . S
C158 N155 1.279 1_565 S
C158 C157 1.358 . S
C158 H161 0.930 . S
C159 C156 1.348 . S
C159 C157 1.356 1_545 S
H160 C154 0.930 . S
H161 C158 0.930 . S
C162 C164 1.348 1_545 S
C162 C165 1.356 . S
C162 O192 1.325 . S
N163 C166 1.314 1_545 S
N163 C167 1.279 . S
C164 C162 1.348 1_565 S
C164 C166 1.353 . S
C164 H206 0.929 . S
C165 C162 1.356 . S
C165 C167 1.358 . S
C165 H207 0.930 . S
C166 N163 1.314 1_565 S
C166 C164 1.353 . S
C166 H208 0.930 . S
C167 N163 1.279 . S
C167 C165 1.358 . S
C167 H209 0.930 . S
C168 C169 1.348 . S
C168 C170 1.356 1_545 S
C168 O193 1.325 . S
C169 C168 1.348 . S
C169 C171 1.353 . S
C169 H210 0.929 . S
C170 C168 1.356 1_565 S
C170 C172 1.358 . S
C170 H211 0.930 . S
C171 C169 1.353 . S
C171 N173 1.314 . S
C171 H212 0.930 . S
C172 C170 1.358 . S
C172 N173 1.279 1_565 S
C172 H213 0.930 . S
N173 C171 1.314 . S
N173 C172 1.279 1_545 S
C174 C176 1.353 . S
C174 N177 1.314 . S
C174 H180 0.930 . S
C175 N177 1.279 1_655 S
C175 C178 1.358 . S
C175 H181 0.930 . S
C176 C174 1.353 . S
C176 C179 1.348 . S
C176 H214 0.929 . S
N177 Li132 1.990 . S
N177 C174 1.314 . S
N177 C175 1.279 1_455 S
C178 C175 1.358 . S
C178 C179 1.356 1_655 S
C178 H215 0.930 . S
C179 C176 1.348 . S
C179 C178 1.356 1_455 S
H180 C174 0.930 . S
H181 C175 0.930 . S
C182 N183 1.314 1_655 S
C182 C184 1.353 . S
C182 H188 0.930 . S
N183 Li133 1.990 . S
N183 C182 1.314 1_455 S
N183 C186 1.279 . S
C184 C182 1.353 . S
C184 C187 1.348 1_655 S
C184 H216 0.929 . S
C185 C186 1.358 . S
C185 C187 1.356 . S
C185 H217 0.930 . S
C186 N183 1.279 . S
C186 C185 1.358 . S
C186 H189 0.930 . S
C187 C184 1.348 1_455 S
C187 C185 1.356 . S
H188 C182 0.930 . S
H189 C186 0.930 . S
O190 Li130 1.956 1_455 S
O190 Li131 1.970 . S
O190 Li132 1.961 . S
O190 C134 1.325 . S
O191 Li130 1.970 1_465 S
O191 Li131 1.956 1_565 S
O191 Li133 1.961 . S
O191 C140 1.325 . S
O192 Li130 1.961 . S
O192 Li132 1.956 1_655 S
O192 Li133 1.970 1_645 S
O192 C162 1.325 . S
O193 Li131 1.961 . S
O193 Li132 1.970 . S
O193 Li133 1.956 1_545 S
O193 C168 1.325 . S
H194 C136 0.929 . S
H195 C137 0.930 . S
H196 C138 0.930 . S
H197 C139 0.930 . S
H198 C141 0.930 . S
H199 C143 0.929 . S
H200 C144 0.930 . S
H201 C145 0.930 . S
H202 C148 0.930 . S
H203 C151 0.929 . S
H204 C156 0.929 . S
H205 C157 0.930 . S
H206 C164 0.929 . S
H207 C165 0.930 . S
H208 C166 0.930 . S
H209 C167 0.930 . S
H210 C169 0.929 . S
H211 C170 0.930 . S
H212 C171 0.930 . S
H213 C172 0.930 . S
H214 C176 0.929 . S
H215 C178 0.930 . S
H216 C184 0.929 . S
H217 C185 0.930 . S
H218 C226 0.950 . S
H219 C231 0.950 . S
H220 C228 0.950 . S
H221 C230 0.950 . S
H222 C232 0.950 . S
H223 C234 0.950 . S
H224 C236 0.950 . S
H225 C237 0.950 . S
C226 H218 0.950 . S
C226 C227 1.386 . S
C226 C228 1.391 . S
C227 C226 1.386 . S
C227 C231 1.393 1_545 S
C228 H220 0.950 . S
C228 C226 1.391 . S
C228 C229 1.400 . S
C229 C228 1.400 . S
C229 C230 1.398 1_545 S
C229 C235 1.491 . S
C230 H221 0.950 . S
C230 C229 1.398 1_565 S
C230 C231 1.391 . S
C231 H219 0.950 . S
C231 C227 1.393 1_565 S
C231 C230 1.391 . S
C232 H222 0.950 . S
C232 C233 1.386 1_565 S
C232 C234 1.391 . S
C233 C232 1.386 1_545 S
C233 C237 1.393 . S
C234 H223 0.950 . S
C234 C232 1.391 . S
C234 C235 1.400 1_565 S
C235 C229 1.491 . S
C235 C234 1.400 1_545 S
C235 C236 1.398 . S
C236 H224 0.950 . S
C236 C235 1.398 . S
C236 C237 1.391 . S
C237 H225 0.950 . S
C237 C233 1.393 . S
C237 C236 1.391 . S
H238 C246 0.950 . S
H239 C251 0.950 . S
H240 C248 0.950 . S
H241 C250 0.950 . S
H242 C252 0.950 . S
H243 C254 0.950 . S
H244 C256 0.950 . S
H245 C257 0.950 . S
C246 H238 0.950 . S
C246 C247 1.386 . S
C246 C248 1.391 . S
C247 C246 1.386 . S
C247 C251 1.393 . S
C248 H240 0.950 . S
C248 C246 1.391 . S
C248 C249 1.400 . S
C249 C248 1.400 . S
C249 C250 1.398 . S
C249 C255 1.491 . S
C250 H241 0.950 . S
C250 C249 1.398 . S
C250 C251 1.391 . S
C251 H239 0.950 . S
C251 C247 1.393 . S
C251 C250 1.391 . S
C252 H242 0.950 . S
C252 C253 1.386 . S
C252 C254 1.391 . S
C253 C252 1.386 . S
C253 C257 1.393 . S
C254 H243 0.950 . S
C254 C252 1.391 . S
C254 C255 1.400 . S
C255 C249 1.491 . S
C255 C254 1.400 . S
C255 C256 1.398 . S
C256 H244 0.950 . S
C256 C255 1.398 . S
C256 C257 1.391 . S
C257 H245 0.950 . S
C257 C253 1.393 . S
C257 C256 1.391 . S
H258 C266 0.950 . S
H259 C271 0.950 . S
H260 C268 0.950 . S
H261 C270 0.950 . S
H262 C272 0.950 . S
H263 C274 0.950 . S
H264 C276 0.950 . S
H265 C277 0.950 . S
C266 H258 0.950 . S
C266 C267 1.386 1_565 S
C266 C268 1.391 . S
C267 C266 1.386 1_545 S
C267 C271 1.393 . S
C268 H260 0.950 . S
C268 C266 1.391 . S
C268 C269 1.400 1_565 S
C269 C268 1.400 1_545 S
C269 C270 1.398 . S
C269 C275 1.491 . S
C270 H261 0.950 . S
C270 C269 1.398 . S
C270 C271 1.391 . S
C271 H259 0.950 . S
C271 C267 1.393 . S
C271 C270 1.391 . S
C272 H262 0.950 . S
C272 C273 1.386 . S
C272 C274 1.391 . S
C273 C272 1.386 . S
C273 C277 1.393 1_545 S
C274 H263 0.950 . S
C274 C272 1.391 . S
C274 C275 1.400 . S
C275 C269 1.491 . S
C275 C274 1.400 . S
C275 C276 1.398 1_545 S
C276 H264 0.950 . S
C276 C275 1.398 1_565 S
C276 C277 1.391 . S
C277 H265 0.950 . S
C277 C273 1.393 1_565 S
C277 C276 1.391 . S
H278 C286 0.950 . S
H279 C291 0.950 . S
H280 C288 0.950 . S
H281 C290 0.950 . S
H282 C292 0.950 . S
H283 C294 0.950 . S
H284 C296 0.950 . S
H285 C297 0.950 . S
C286 H278 0.950 . S
C286 C287 1.386 . S
C286 C288 1.391 . S
C287 C286 1.386 . S
C287 C291 1.393 1_455 S
C288 H280 0.950 . S
C288 C286 1.391 . S
C288 C289 1.400 . S
C289 C288 1.400 . S
C289 C290 1.398 1_455 S
C289 C295 1.491 . S
C290 H281 0.950 . S
C290 C289 1.398 1_655 S
C290 C291 1.391 . S
C291 H279 0.950 . S
C291 C287 1.393 1_655 S
C291 C290 1.391 . S
C292 H282 0.950 . S
C292 C293 1.386 1_655 S
C292 C294 1.391 . S
C293 C292 1.386 1_455 S
C293 C297 1.393 . S
C294 H283 0.950 . S
C294 C292 1.391 . S
C294 C295 1.400 1_655 S
C295 C289 1.491 . S
C295 C294 1.400 1_455 S
C295 C296 1.398 . S
C296 H284 0.950 . S
C296 C295 1.398 . S
C296 C297 1.391 . S
C297 H285 0.950 . S
C297 C293 1.393 . S
C297 C296 1.391 . S
H298 C306 0.950 . S
H299 C311 0.950 . S
H300 C308 0.950 . S
H301 C310 0.950 . S
H302 C312 0.950 . S
H303 C314 0.950 . S
H304 C316 0.950 . S
H305 C317 0.950 . S
C306 H298 0.950 . S
C306 C307 1.386 . S
C306 C308 1.391 . S
C307 C306 1.386 . S
C307 C311 1.393 . S
C308 H300 0.950 . S
C308 C306 1.391 . S
C308 C309 1.400 . S
C309 C308 1.400 . S
C309 C310 1.398 . S
C309 C315 1.491 . S
C310 H301 0.950 . S
C310 C309 1.398 . S
C310 C311 1.391 . S
C311 H299 0.950 . S
C311 C307 1.393 . S
C311 C310 1.391 . S
C312 H302 0.950 . S
C312 C313 1.386 . S
C312 C314 1.391 . S
C313 C312 1.386 . S
C313 C317 1.393 . S
C314 H303 0.950 . S
C314 C312 1.391 . S
C314 C315 1.400 . S
C315 C309 1.491 . S
C315 C314 1.400 . S
C315 C316 1.398 . S
C316 H304 0.950 . S
C316 C315 1.398 . S
C316 C317 1.391 . S
C317 H305 0.950 . S
C317 C313 1.393 . S
C317 C316 1.391 . S
H318 C326 0.950 . S
H319 C331 0.950 . S
H320 C328 0.950 . S
H321 C330 0.950 . S
H322 C332 0.950 . S
H323 C334 0.950 . S
H324 C336 0.950 . S
H325 C337 0.950 . S
C326 H318 0.950 . S
C326 C327 1.386 1_655 S
C326 C328 1.391 . S
C327 C326 1.386 1_455 S
C327 C331 1.393 . S
C328 H320 0.950 . S
C328 C326 1.391 . S
C328 C329 1.400 1_655 S
C329 C328 1.400 1_455 S
C329 C330 1.398 . S
C329 C335 1.491 . S
C330 H321 0.950 . S
C330 C329 1.398 . S
C330 C331 1.391 . S
C331 H319 0.950 . S
C331 C327 1.393 . S
C331 C330 1.391 . S
C332 H322 0.950 . S
C332 C333 1.386 . S
C332 C334 1.391 . S
C333 C332 1.386 . S
C333 C337 1.393 1_455 S
C334 H323 0.950 . S
C334 C332 1.391 . S
C334 C335 1.400 . S
C335 C329 1.491 . S
C335 C334 1.400 . S
C335 C336 1.398 1_455 S
C336 H324 0.950 . S
C336 C335 1.398 1_655 S
C336 C337 1.391 . S
C337 H325 0.950 . S
C337 C333 1.393 1_655 S
C337 C336 1.391 . S
H338 C346 0.950 . S
H339 C351 0.950 . S
H340 C348 0.950 . S
H341 C350 0.950 . S
H342 C352 0.950 . S
H343 C354 0.950 . S
H344 C356 0.942 1_565 S
H345 C357 0.942 1_565 S
C346 H338 0.950 . S
C346 C347 1.386 1_565 S
C346 C348 1.391 . S
C347 C346 1.386 1_545 S
C347 C351 1.393 . S
C348 H340 0.950 . S
C348 C346 1.391 . S
C348 C349 1.400 1_565 S
C349 C348 1.400 1_545 S
C349 C350 1.398 . S
C349 C355 1.491 . S
C350 H341 0.950 . S
C350 C349 1.398 . S
C350 C351 1.391 . S
C351 H339 0.950 . S
C351 C347 1.393 . S
C351 C350 1.391 . S
C352 H342 0.950 . S
C352 C353 1.386 . S
C352 C354 1.391 . S
C353 C352 1.386 . S
C353 C357 1.401 . S
C354 H343 0.950 . S
C354 C352 1.391 . S
C354 C355 1.400 . S
C355 C349 1.491 . S
C355 C354 1.400 . S
C355 C356 1.407 . S
C356 H344 0.942 1_545 S
C356 C355 1.407 . S
C356 C357 1.391 . S
C357 H345 0.942 1_545 S
C357 C353 1.401 . S
C357 C356 1.391 . S
H358 C366 0.950 . S
H359 C371 0.950 . S
H360 C368 0.950 . S
H361 C370 0.950 . S
H362 C372 0.950 . S
H363 C374 0.950 . S
H364 C376 0.950 . S
H365 C377 0.950 . S
C366 H358 0.950 . S
C366 C367 1.386 1_655 S
C366 C368 1.391 . S
C367 C366 1.386 1_455 S
C367 C371 1.393 . S
C368 H360 0.950 . S
C368 C366 1.391 . S
C368 C369 1.400 1_655 S
C369 C368 1.400 1_455 S
C369 C370 1.398 . S
C369 C375 1.491 . S
C370 H361 0.950 . S
C370 C369 1.398 . S
C370 C371 1.391 . S
C371 H359 0.950 . S
C371 C367 1.393 . S
C371 C370 1.391 . S
C372 H362 0.950 . S
C372 C373 1.386 . S
C372 C374 1.391 . S
C373 C372 1.386 . S
C373 C377 1.393 1_455 S
C374 H363 0.950 . S
C374 C372 1.391 . S
C374 C375 1.400 . S
C375 C369 1.491 . S
C375 C374 1.400 . S
C375 C376 1.398 1_455 S
C376 H364 0.950 . S
C376 C375 1.398 1_655 S
C376 C377 1.391 . S
C377 H365 0.950 . S
C377 C373 1.393 1_655 S
C377 C376 1.391 . S
C233 C91 1.558 . S
C227 C17 1.446 . S
C253 C179 1.549 . S
C247 C40 1.481 . S
C273 C99 1.561 . S
C267 C9 1.475 . S
C293 C187 1.552 . S
C287 C33 1.431 . S
C313 C159 1.549 . S
C307 C19 1.478 . S
C333 C62 1.561 . S
C327 C38 1.463 . S
C353 C150 1.553 . S
C347 C12 1.464 . S
C367 C30 1.465 . S
C373 C71 1.560 . S
