# Generated by pormake.
# Topology nom, (4,4)-cn, num edge types: 1
# Building blocks:
#     Node 0, Type 0, BuildingBlock: GIZVER_clean_linker_0, # of connection points: 4
#     Node 1, Type 0, BuildingBlock: GIZVER_clean_linker_0, # of connection points: 4
#     Node 2, Type 0, BuildingBlock: GIZVER_clean_linker_0, # of connection points: 4
#     Node 3, Type 0, BuildingBlock: GIZVER_clean_linker_0, # of connection points: 4
#     Node 4, Type 0, BuildingBlock: GIZVER_clean_linker_0, # of connection points: 4
#     Node 5, Type 0, BuildingBlock: GIZVER_clean_linker_0, # of connection points: 4
#     Node 6, Type 1, BuildingBlock: NAHDIM_clean_sbu_0, # of connection points: 4
#     Node 7, Type 1, BuildingBlock: NAHDIM_clean_sbu_0, # of connection points: 4
#     Node 8, Type 1, BuildingBlock: NAHDIM_clean_sbu_0, # of connection points: 4
#     Node 9, Type 1, BuildingBlock: NAHDIM_clean_sbu_0, # of connection points: 4
#     Node 10, Type 1, BuildingBlock: NAHDIM_clean_sbu_0, # of connection points: 4
#     Node 11, Type 1, BuildingBlock: NAHDIM_clean_sbu_0, # of connection points: 4
#     Edge 12, Type (0, 1), BuildingBlock: TEMPAE_clean_linker_10, # of connection points: 2
#     Edge 13, Type (0, 1), BuildingBlock: TEMPAE_clean_linker_10, # of connection points: 2
#     Edge 14, Type (0, 1), BuildingBlock: TEMPAE_clean_linker_10, # of connection points: 2
#     Edge 15, Type (0, 1), BuildingBlock: TEMPAE_clean_linker_10, # of connection points: 2
#     Edge 16, Type (0, 1), BuildingBlock: TEMPAE_clean_linker_10, # of connection points: 2
#     Edge 17, Type (0, 1), BuildingBlock: TEMPAE_clean_linker_10, # of connection points: 2
#     Edge 18, Type (0, 1), BuildingBlock: TEMPAE_clean_linker_10, # of connection points: 2
#     Edge 19, Type (0, 1), BuildingBlock: TEMPAE_clean_linker_10, # of connection points: 2
#     Edge 20, Type (0, 1), BuildingBlock: TEMPAE_clean_linker_10, # of connection points: 2
#     Edge 21, Type (0, 1), BuildingBlock: TEMPAE_clean_linker_10, # of connection points: 2
#     Edge 22, Type (0, 1), BuildingBlock: TEMPAE_clean_linker_10, # of connection points: 2
#     Edge 23, Type (0, 1), BuildingBlock: TEMPAE_clean_linker_10, # of connection points: 2
#     Edge 24, Type (0, 1), BuildingBlock: TEMPAE_clean_linker_10, # of connection points: 2
#     Edge 25, Type (0, 1), BuildingBlock: TEMPAE_clean_linker_10, # of connection points: 2
#     Edge 26, Type (0, 1), BuildingBlock: TEMPAE_clean_linker_10, # of connection points: 2
#     Edge 27, Type (0, 1), BuildingBlock: TEMPAE_clean_linker_10, # of connection points: 2
#     Edge 28, Type (0, 1), BuildingBlock: TEMPAE_clean_linker_10, # of connection points: 2
#     Edge 29, Type (0, 1), BuildingBlock: TEMPAE_clean_linker_10, # of connection points: 2
#     Edge 30, Type (0, 1), BuildingBlock: TEMPAE_clean_linker_10, # of connection points: 2
#     Edge 31, Type (0, 1), BuildingBlock: TEMPAE_clean_linker_10, # of connection points: 2
#     Edge 32, Type (0, 1), BuildingBlock: TEMPAE_clean_linker_10, # of connection points: 2
#     Edge 33, Type (0, 1), BuildingBlock: TEMPAE_clean_linker_10, # of connection points: 2
#     Edge 34, Type (0, 1), BuildingBlock: TEMPAE_clean_linker_10, # of connection points: 2
#     Edge 35, Type (0, 1), BuildingBlock: TEMPAE_clean_linker_10, # of connection points: 2
# Relax obj value: 0.022
# Max RMSD: 0.125
# Mean RMSD: 0.093
data_MOF--net-nom--node1-NAHDIM_clean_sbu_0--node2-GIZVER_clean_linker_0--edge1-TEMPAE_clean_linker_10
_symmetry_space_group_name_H-M    P1
_symmetry_Int_Tables_number       1
_symmetry_cell_setting            triclinic
loop_
_symmetry_equiv_pos_as_xyz
'x, y, z'
_cell_length_a     46.466592
_cell_length_b     47.887273
_cell_length_c     46.679895
_cell_angle_alpha  90.010354
_cell_angle_beta   90.808374
_cell_angle_gamma 121.06698
loop_
_atom_site_label
_atom_site_type_symbol
_atom_site_fract_x
_atom_site_fract_y
_atom_site_fract_z
_atom_type_partial_charge
H0 H 0.95716 0.5652 0.35509 0.0
H1 H 0.99167 0.55454 0.2729 0.0
H2 H 0.89533 0.48016 0.30329 0.0
H3 H 0.00919 0.60859 0.3383 0.0
H4 H 0.00996 0.61172 0.3002 0.0
H5 H 0.03678 0.57983 0.36199 0.0
H6 H 0.12418 0.59344 0.31862 0.0
H7 H 0.05475 0.61297 0.27475 0.0
C8 C 0.95373 0.55083 0.33601 0.0
C9 C 0.92385 0.52066 0.33205 0.0
C10 C 0.97869 0.5629 0.31496 0.0
C11 C 0.97314 0.54475 0.28964 0.0
C12 C 0.94329 0.51461 0.28545 0.0
C13 C 0.91917 0.50258 0.307 0.0
C14 C 0.00971 0.59638 0.3182 0.0
C15 C 0.04136 0.59484 0.31796 0.0
C16 C 0.05161 0.58549 0.34281 0.0
C17 C 0.08191 0.58555 0.34345 0.0
C18 C 0.10083 0.59339 0.3184 0.0
C19 C 0.09167 0.60392 0.29379 0.0
C20 C 0.06174 0.60442 0.29358 0.0
H21 H 0.40949 0.95934 0.52169 0.0
H22 H 0.44957 0.99226 0.43747 0.0
H23 H 0.43365 0.90114 0.4689 0.0
H24 H 0.40938 0.00544 0.50138 0.0
H25 H 0.41613 0.01253 0.46376 0.0
H26 H 0.46616 0.02212 0.5318 0.0
H27 H 0.54217 0.12041 0.51194 0.0
H28 H 0.4601 0.06553 0.45275 0.0
C29 C 0.42004 0.95629 0.50221 0.0
C30 C 0.42166 0.92807 0.49827 0.0
C31 C 0.43089 0.97999 0.48057 0.0
C32 C 0.44269 0.97485 0.45469 0.0
C33 C 0.44412 0.94657 0.45052 0.0
C34 C 0.43437 0.92386 0.47267 0.0
C35 C 0.42708 0.00927 0.48393 0.0
C36 C 0.46042 0.0397 0.49072 0.0
C37 C 0.47696 0.04229 0.51696 0.0
C38 C 0.50671 0.07126 0.52452 0.0
C39 C 0.51973 0.09767 0.50572 0.0
C40 C 0.50284 0.09617 0.48013 0.0
C41 C 0.47356 0.06679 0.47232 0.0
H42 H 0.40947 0.46048 0.59007 0.0
H43 H 0.43014 0.46253 0.68067 0.0
H44 H 0.41515 0.53619 0.64349 0.0
H45 H 0.40619 0.41329 0.61311 0.0
H46 H 0.40958 0.41232 0.65127 0.0
H47 H 0.46442 0.45795 0.58825 0.0
H48 H 0.54241 0.44053 0.61528 0.0
H49 H 0.45467 0.40634 0.66659 0.0
C50 C 0.41448 0.4724 0.61083 0.0
C51 C 0.4127 0.50064 0.61383 0.0
C52 C 0.4218 0.45906 0.63481 0.0
C53 C 0.42626 0.47367 0.66196 0.0
C54 C 0.42321 0.50115 0.66521 0.0
C55 C 0.41776 0.51508 0.64094 0.0
C56 C 0.42155 0.42751 0.63207 0.0
C57 C 0.4566 0.43348 0.62882 0.0
C58 C 0.47496 0.44915 0.60419 0.0
C59 C 0.50611 0.45204 0.59935 0.0
C60 C 0.51886 0.43927 0.61943 0.0
C61 C 0.50029 0.42216 0.64338 0.0
C62 C 0.46948 0.42004 0.64842 0.0
H63 H 0.95491 0.40334 0.77496 0.0
H64 H 0.98556 0.43977 0.8613 0.0
H65 H 0.89187 0.42336 0.82669 0.0
H66 H 1.0036 0.40555 0.79575 0.0
H67 H 0.00814 0.40831 0.83395 0.0
H68 H 0.02289 0.4609 0.76908 0.0
H69 H 0.11807 0.53803 0.80169 0.0
H70 H 0.05787 0.4538 0.85322 0.0
C71 C 0.95071 0.41248 0.79472 0.0
C72 C 0.9211 0.41325 0.79785 0.0
C73 C 0.97444 0.4227 0.81741 0.0
C74 C 0.96798 0.43307 0.84343 0.0
C75 C 0.9384 0.43376 0.84674 0.0
C76 C 0.91555 0.42445 0.82369 0.0
C77 C 0.00558 0.42058 0.81469 0.0
C78 C 0.03641 0.45409 0.81182 0.0
C79 C 0.04143 0.47151 0.78631 0.0
C80 C 0.07069 0.50203 0.78263 0.0
C81 C 0.09466 0.51525 0.80496 0.0
C82 C 0.09037 0.49806 0.83039 0.0
C83 C 0.06108 0.46745 0.83379 0.0
H84 H 0.60903 0.06622 0.02824 0.0
H85 H 0.56991 0.03782 0.94205 0.0
H86 H 0.58508 0.127 0.97829 0.0
H87 H 0.60818 0.02052 0.00647 0.0
H88 H 0.60521 0.0176 0.96821 0.0
H89 H 0.54902 0.99975 0.03204 0.0
H90 H 0.47562 0.90449 0.00016 0.0
H91 H 0.56208 0.96676 0.95001 0.0
C92 C 0.59876 0.07034 0.0088 0.0
C93 C 0.59703 0.09867 0.00631 0.0
C94 C 0.5883 0.04789 0.98583 0.0
C95 C 0.57666 0.05434 0.96017 0.0
C96 C 0.57504 0.08269 0.95746 0.0
C97 C 0.58457 0.10423 0.98082 0.0
C98 C 0.5922 0.01853 0.98769 0.0
C99 C 0.55854 0.9874 0.99015 0.0
C100 C 0.53964 0.98153 0.01507 0.0
C101 C 0.50942 0.9518 0.01864 0.0
C102 C 0.49798 0.92815 -0.00317 0.0
C103 C 0.51679 0.9332 0.97212 0.0
C104 C 0.54708 0.96298 0.96879 0.0
H105 H 0.61578 0.56701 0.11619 0.0
H106 H 0.56213 0.55658 0.194 0.0
H107 H 0.58174 0.48202 0.16806 0.0
H108 H 0.61257 0.61238 0.13392 0.0
H109 H 0.60147 0.61175 0.17053 0.0
H110 H 0.5626 0.5795 0.0973 0.0
H111 H 0.48111 0.59527 0.11179 0.0
H112 H 0.55365 0.61583 0.17917 0.0
C113 C 0.60183 0.55256 0.1344 0.0
C114 C 0.59996 0.52284 0.13978 0.0
C115 C 0.58769 0.56467 0.15374 0.0
C116 C 0.57152 0.54664 0.17833 0.0
C117 C 0.56887 0.51653 0.18333 0.0
C118 C 0.58243 0.5046 0.16361 0.0
C119 C 0.59271 0.59817 0.14983 0.0
C120 C 0.56058 0.59603 0.13994 0.0
C121 C 0.54878 0.58594 0.11171 0.0
C122 C 0.51992 0.58536 0.10173 0.0
C123 C 0.50291 0.59495 0.11998 0.0
C124 C 0.51531 0.60687 0.14765 0.0
C125 C 0.54368 0.60645 0.1579 0.0
C126 C 0.61231 0.32025 0.39764 0.0
O127 O 0.64528 0.33728 0.39676 0.0
O128 O 0.66833 0.40587 0.38591 0.0
Zn129 Zn 0.61843 0.38398 0.39291 0.0
O130 O 0.61021 0.40173 0.42877 0.0
C131 C 0.60916 0.40412 0.33679 0.0
O132 O 0.63693 0.40444 0.33107 0.0
O133 O 0.59612 0.335 0.39603 0.0
C134 C 0.61257 0.42939 0.42821 0.0
O135 O 0.62234 0.44656 0.4046 0.0
C136 C 0.69065 0.41874 0.40566 0.0
O137 O 0.68129 0.41745 0.43229 0.0
O138 O 0.59628 0.39498 0.36131 0.0
C139 C 0.2898 0.69479 0.54619 0.0
O140 O 0.28137 0.67718 0.52257 0.0
O141 O 0.27758 0.60997 0.56891 0.0
Zn142 Zn 0.24968 0.63124 0.56952 0.0
O143 O 0.21788 0.61764 0.53572 0.0
C144 C 0.19317 0.61384 0.60595 0.0
O145 O 0.182 0.62227 0.58356 0.0
O146 O 0.27948 0.68035 0.56999 0.0
C147 C 0.20263 0.58951 0.52413 0.0
O148 O 0.20839 0.56693 0.53346 0.0
C149 C 0.29031 0.60464 0.54715 0.0
O150 O 0.28591 0.61371 0.52171 0.0
O151 O 0.22181 0.61646 0.60498 0.0
C152 C 0.60831 0.30832 0.7332 0.0
O153 O 0.64096 0.32481 0.73778 0.0
O154 O 0.6659 0.27963 0.74172 0.0
Zn155 Zn 0.61556 0.25109 0.73614 0.0
O156 O 0.60492 0.22288 0.7011 0.0
C157 C 0.61046 0.22827 0.79407 0.0
O158 O 0.63698 0.25748 0.79822 0.0
O159 O 0.59285 0.27735 0.73209 0.0
C160 C 0.60587 0.19682 0.70209 0.0
O161 O 0.61538 0.18925 0.72602 0.0
C162 C 0.687 0.28943 0.72156 0.0
O163 O 0.67606 0.28159 0.69496 0.0
O164 O 0.59645 0.22067 0.76945 0.0
C165 C 0.42092 0.7029 0.91212 0.0
O166 O 0.40821 0.6835 0.93421 0.0
O167 O 0.34632 0.62026 0.88358 0.0
Zn168 Zn 0.39677 0.64123 0.88564 0.0
O169 O 0.41138 0.62562 0.92008 0.0
C170 C 0.3963 0.59612 0.84717 0.0
O171 O 0.37546 0.5769 0.86678 0.0
O172 O 0.41904 0.69034 0.88764 0.0
C173 C 0.43432 0.6187 0.91814 0.0
O174 O 0.44896 0.62198 0.8935 0.0
C175 C 0.32575 0.60762 0.904 0.0
O176 O 0.33724 0.60855 0.93008 0.0
O177 O 0.40961 0.62679 0.85007 0.0
C178 C 0.7071 0.40358 0.06731 0.0
O179 O 0.68946 0.37169 0.06958 0.0
O180 O 0.73461 0.34569 0.06191 0.0
Zn181 Zn 0.76475 0.39452 0.06671 0.0
O182 O 0.79072 0.40566 0.1039 0.0
C183 C 0.79045 0.39836 0.01041 0.0
O184 O 0.7595 0.3744 0.0054 0.0
O185 O 0.73886 0.41784 0.06545 0.0
C186 C 0.81781 0.40527 0.10606 0.0
O187 O 0.82801 0.3959 0.08393 0.0
C188 C 0.72521 0.32516 0.08215 0.0
O189 O 0.73449 0.33566 0.10861 0.0
O190 O 0.79839 0.41137 0.03516 0.0
C191 C 0.39674 0.71428 0.22582 0.0
O192 O 0.3638 0.69876 0.22394 0.0
O193 O 0.341 0.74418 0.23494 0.0
Zn194 Zn 0.39118 0.77219 0.22976 0.0
O195 O 0.40166 0.79792 0.19346 0.0
C196 C 0.39864 0.79838 0.28684 0.0
O197 O 0.37271 0.76921 0.29177 0.0
O198 O 0.41315 0.74513 0.22875 0.0
C199 C 0.40056 0.8239 0.19271 0.0
O200 O 0.39078 0.8327 0.2155 0.0
C201 C 0.3192 0.73422 0.21472 0.0
O202 O 0.32919 0.74196 0.18818 0.0
O203 O 0.41128 0.8048 0.26205 0.0
C204 C 0.12898 0.65186 0.26375 0.0
C205 C 0.11668 0.61919 0.27077 0.0
C206 C 0.15948 0.67008 0.24935 0.0
C207 C 0.17787 0.65514 0.24177 0.0
C208 C 0.16364 0.62127 0.24604 0.0
C209 C 0.13321 0.6037 0.26058 0.0
C210 C 0.1736 0.70607 0.24503 0.0
C211 C 0.18213 0.60424 0.23793 0.0
C212 C 0.25841 0.7022 0.19926 0.0
C213 C 0.28293 0.71409 0.22125 0.0
C214 C 0.22402 0.68304 0.20546 0.0
C215 C 0.21398 0.67569 0.23431 0.0
C216 C 0.23863 0.68773 0.25656 0.0
C217 C 0.27271 0.70671 0.24976 0.0
C218 C 0.19845 0.67057 0.18122 0.0
C219 C 0.22902 0.68049 0.28765 0.0
H220 H 0.11639 0.66398 0.27177 0.0
H221 H 0.12356 0.57835 0.26584 0.0
H222 H 0.19364 0.72005 0.26134 0.0
H223 H 0.18508 0.71374 0.22363 0.0
H224 H 0.15403 0.71264 0.24719 0.0
H225 H 0.16538 0.57729 0.23793 0.0
H226 H 0.19332 0.61194 0.21643 0.0
H227 H 0.20297 0.61099 0.25355 0.0
H228 H 0.26607 0.70778 0.17716 0.0
H229 H 0.2914 0.71579 0.26691 0.0
H230 H 0.1805 0.67903 0.18418 0.0
H231 H 0.18366 0.64353 0.1813 0.0
H232 H 0.21031 0.6788 0.15997 0.0
H233 H 0.21208 0.68942 0.29348 0.0
H234 H 0.25124 0.69198 0.30238 0.0
H235 H 0.21512 0.65376 0.29112 0.0
C236 C 0.5184 0.12747 0.43386 0.0
C237 C 0.51446 0.1266 0.46362 0.0
C238 C 0.5323 0.15716 0.419 0.0
C239 C 0.54245 0.18645 0.43437 0.0
C240 C 0.53722 0.18535 0.46423 0.0
C241 C 0.52309 0.15549 0.47838 0.0
C242 C 0.53707 0.15737 0.38708 0.0
C243 C 0.54753 0.2159 0.4815 0.0
C244 C 0.61232 0.2696 0.4109 0.0
C245 C 0.59433 0.28469 0.4031 0.0
C246 C 0.59561 0.23688 0.41945 0.0
C247 C 0.56004 0.21869 0.41996 0.0
C248 C 0.54172 0.23315 0.41033 0.0
C249 C 0.55908 0.26604 0.40217 0.0
C250 C 0.6161 0.22245 0.42972 0.0
C251 C 0.50379 0.21447 0.41018 0.0
H252 H 0.51165 0.10517 0.42238 0.0
H253 H 0.51927 0.15481 0.50129 0.0
H254 H 0.52668 0.1709 0.37612 0.0
H255 H 0.56429 0.17015 0.38243 0.0
H256 H 0.52483 0.13233 0.37788 0.0
H257 H 0.54098 0.21069 0.50446 0.0
H258 H 0.57507 0.23286 0.48009 0.0
H259 H 0.53515 0.22866 0.47266 0.0
H260 H 0.63954 0.28373 0.41153 0.0
H261 H 0.54495 0.27737 0.39583 0.0
H262 H 0.60693 0.19835 0.41944 0.0
H263 H 0.61324 0.21855 0.45319 0.0
H264 H 0.64325 0.2385 0.42516 0.0
H265 H 0.49362 0.18988 0.40056 0.0
H266 H 0.49337 0.22739 0.39816 0.0
H267 H 0.49483 0.21106 0.43253 0.0
C268 C 0.4177 0.54646 0.58481 0.0
C269 C 0.40044 0.51297 0.59048 0.0
C270 C 0.40142 0.56081 0.57129 0.0
C271 C 0.36704 0.54111 0.5634 0.0
C272 C 0.35081 0.50678 0.56591 0.0
C273 C 0.36778 0.49305 0.57946 0.0
C274 C 0.41989 0.59745 0.5687 0.0
C275 C 0.31433 0.48482 0.55744 0.0
C276 C 0.31447 0.57904 0.57819 0.0
C277 C 0.30967 0.58803 0.55076 0.0
C278 C 0.33278 0.56352 0.58236 0.0
C279 C 0.34672 0.55667 0.55849 0.0
C280 C 0.34181 0.5654 0.53067 0.0
C281 C 0.32335 0.58104 0.52711 0.0
C282 C 0.33744 0.5547 0.61247 0.0
C283 C 0.35625 0.55844 0.50476 0.0
H284 H 0.44304 0.56184 0.59329 0.0
H285 H 0.35433 0.46716 0.58397 0.0
H286 H 0.41374 0.60474 0.54804 0.0
H287 H 0.41201 0.60769 0.58616 0.0
H288 H 0.44755 0.60844 0.57044 0.0
H289 H 0.30756 0.45903 0.55511 0.0
H290 H 0.29834 0.48607 0.57423 0.0
H291 H 0.30844 0.4928 0.53702 0.0
H292 H 0.30401 0.58426 0.59661 0.0
H293 H 0.31971 0.58782 0.50582 0.0
H294 H 0.36459 0.56739 0.61818 0.0
H295 H 0.32743 0.52811 0.6138 0.0
H296 H 0.32461 0.56134 0.62864 0.0
H297 H 0.38406 0.57192 0.50663 0.0
H298 H 0.34903 0.56555 0.48447 0.0
H299 H 0.34757 0.53211 0.5036 0.0
C300 C 0.87932 0.36559 0.76836 0.0
C301 C 0.89331 0.39835 0.77633 0.0
C302 C 0.84756 0.34831 0.75483 0.0
C303 C 0.82962 0.36432 0.74907 0.0
C304 C 0.84515 0.39819 0.75461 0.0
C305 C 0.87678 0.41477 0.76829 0.0
C306 C 0.83198 0.31226 0.7492 0.0
C307 C 0.82716 0.41633 0.74847 0.0
C308 C 0.74726 0.32081 0.70629 0.0
C309 C 0.72356 0.30879 0.72825 0.0
C310 C 0.78194 0.33889 0.71261 0.0
C311 C 0.79312 0.34494 0.74155 0.0
C312 C 0.76931 0.33281 0.76377 0.0
C313 C 0.7349 0.31498 0.75686 0.0
C314 C 0.80658 0.35158 0.68838 0.0
C315 C 0.78016 0.33867 0.79495 0.0
H316 H 0.89192 0.35276 0.77478 0.0
H317 H 0.88769 0.44017 0.77436 0.0
H318 H 0.81239 0.29839 0.76532 0.0
H319 H 0.81958 0.30547 0.72775 0.0
H320 H 0.85087 0.30466 0.75053 0.0
H321 H 0.84446 0.44318 0.7497 0.0
H322 H 0.815 0.4098 0.72692 0.0
H323 H 0.80707 0.40933 0.76437 0.0
H324 H 0.73874 0.31616 0.68412 0.0
H325 H 0.71685 0.30576 0.77399 0.0
H326 H 0.82383 0.34209 0.69023 0.0
H327 H 0.82227 0.37856 0.6897 0.0
H328 H 0.79385 0.34457 0.66703 0.0
H329 H 0.79668 0.32881 0.79971 0.0
H330 H 0.75849 0.32717 0.80963 0.0
H331 H 0.79492 0.36524 0.79958 0.0
C332 C 0.52841 0.89387 0.94742 0.0
C333 C 0.50645 0.90515 0.95242 0.0
C334 C 0.51644 0.86259 0.93586 0.0
C335 C 0.48178 0.84234 0.92909 0.0
C336 C 0.46024 0.85495 0.93149 0.0
C337 C 0.47283 0.88619 0.94323 0.0
C338 C 0.54029 0.85017 0.93353 0.0
C339 C 0.42323 0.83441 0.92418 0.0
C340 C 0.44848 0.7598 0.89246 0.0
C341 C 0.43712 0.7387 0.916 0.0
C342 C 0.46338 0.7937 0.89626 0.0
C343 C 0.46708 0.80672 0.92422 0.0
C344 C 0.45596 0.78553 0.94802 0.0
C345 C 0.4411 0.75187 0.94361 0.0
C346 C 0.4748 0.81552 0.8704 0.0
C347 C 0.45951 0.79838 0.97825 0.0
H348 H 0.55436 0.90837 0.9547 0.0
H349 H 0.45588 0.89501 0.94695 0.0
H350 H 0.5357 0.83303 0.9513 0.0
H351 H 0.53603 0.83661 0.91313 0.0
H352 H 0.56698 0.8703 0.93483 0.0
H353 H 0.41122 0.8493 0.92273 0.0
H354 H 0.41916 0.82126 0.90356 0.0
H355 H 0.41044 0.81583 0.94104 0.0
H356 H 0.4455 0.74983 0.87104 0.0
H357 H 0.43255 0.73584 0.96194 0.0
H358 H 0.50179 0.83449 0.8728 0.0
H359 H 0.46065 0.82834 0.86865 0.0
H360 H 0.47111 0.80173 0.85018 0.0
H361 H 0.48626 0.81653 0.98324 0.0
H362 H 0.45027 0.77873 0.99445 0.0
H363 H 0.4452 0.81097 0.98032 0.0
C364 C 0.61458 0.50559 0.09396 0.0
C365 C 0.6197 0.5121 0.12344 0.0
C366 C 0.62953 0.49032 0.07986 0.0
C367 C 0.6498 0.48143 0.09577 0.0
C368 C 0.65646 0.48978 0.1252 0.0
C369 C 0.6415 0.50514 0.13856 0.0
C370 C 0.62233 0.4823 0.04837 0.0
C371 C 0.67794 0.4809 0.14305 0.0
C372 C 0.65718 0.40815 0.07859 0.0
C373 C 0.69071 0.42305 0.07004 0.0
C374 C 0.64271 0.42683 0.08511 0.0
C375 C 0.66214 0.46122 0.08277 0.0
C376 C 0.69517 0.47618 0.07212 0.0
C377 C 0.70915 0.45694 0.06605 0.0
C378 C 0.60743 0.4099 0.0965 0.0
C379 C 0.71651 0.51269 0.06887 0.0
H380 H 0.59773 0.51101 0.0823 0.0
H381 H 0.64581 0.51063 0.16132 0.0
H382 H 0.64577 0.48895 0.03693 0.0
H383 H 0.60499 0.45565 0.04554 0.0
H384 H 0.61055 0.49506 0.03825 0.0
H385 H 0.68188 0.49053 0.16532 0.0
H386 H 0.66576 0.45398 0.14395 0.0
H387 H 0.70283 0.49053 0.13312 0.0
H388 H 0.64264 0.38198 0.08153 0.0
H389 H 0.73495 0.46864 0.05906 0.0
H390 H 0.59233 0.41858 0.08529 0.0
H391 H 0.60832 0.41585 0.1196 0.0
H392 H 0.59443 0.38297 0.09405 0.0
H393 H 0.70178 0.52239 0.05867 0.0
H394 H 0.73915 0.51995 0.0559 0.0
H395 H 0.72488 0.5243 0.09035 0.0
C396 C 0.42178 0.88363 0.526 0.0
C397 C 0.4052 0.90001 0.51798 0.0
C398 C 0.40384 0.85169 0.53644 0.0
C399 C 0.36847 0.83579 0.5387 0.0
C400 C 0.35218 0.8535 0.53352 0.0
C401 C 0.37081 0.88553 0.52325 0.0
C402 C 0.42232 0.83394 0.54213 0.0
C403 C 0.31456 0.83756 0.53583 0.0
C404 C 0.31999 0.74617 0.51809 0.0
C405 C 0.31021 0.73088 0.54477 0.0
C406 C 0.33881 0.78022 0.51599 0.0
C407 C 0.34825 0.79964 0.54121 0.0
C408 C 0.33861 0.78446 0.56826 0.0
C409 C 0.31964 0.75021 0.56973 0.0
C410 C 0.34856 0.7954 0.48666 0.0
C411 C 0.34836 0.80438 0.59557 0.0
H412 H 0.44844 0.89492 0.52202 0.0
H413 H 0.35788 0.89805 0.51687 0.0
H414 H 0.41301 0.81901 0.56175 0.0
H415 H 0.41782 0.81716 0.52393 0.0
H416 H 0.44985 0.85106 0.54453 0.0
H417 H 0.30663 0.85583 0.53622 0.0
H418 H 0.30223 0.82115 0.51709 0.0
H419 H 0.30541 0.8225 0.55539 0.0
H420 H 0.31283 0.73151 0.49869 0.0
H421 H 0.31219 0.73861 0.59044 0.0
H422 H 0.37632 0.81046 0.48524 0.0
H423 H 0.33858 0.81177 0.48306 0.0
H424 H 0.33896 0.77685 0.46918 0.0
H425 H 0.37611 0.8199 0.59742 0.0
H426 H 0.33887 0.78888 0.61491 0.0
H427 H 0.33831 0.82096 0.59511 0.0
C428 C 0.51299 0.4049 0.69067 0.0
C429 C 0.5118 0.40354 0.66064 0.0
C430 C 0.52655 0.38916 0.70649 0.0
C431 C 0.53914 0.37182 0.69184 0.0
C432 C 0.5368 0.36948 0.66159 0.0
C433 C 0.52296 0.38509 0.64646 0.0
C434 C 0.52822 0.39178 0.73874 0.0
C435 C 0.54978 0.35119 0.64504 0.0
C436 C 0.60798 0.35913 0.72123 0.0
C437 C 0.59011 0.32556 0.72668 0.0
C438 C 0.59138 0.37502 0.71158 0.0
C439 C 0.55603 0.35698 0.70757 0.0
C440 C 0.53765 0.32356 0.71486 0.0
C441 C 0.55492 0.3082 0.72416 0.0
C442 C 0.61196 0.41064 0.70387 0.0
C443 C 0.49991 0.30356 0.71126 0.0
H444 H 0.50427 0.41902 0.70169 0.0
H445 H 0.52126 0.38322 0.62328 0.0
H446 H 0.51732 0.36725 0.74837 0.0
H447 H 0.55484 0.40633 0.74604 0.0
H448 H 0.51468 0.40356 0.74698 0.0
H449 H 0.54557 0.35131 0.62156 0.0
H450 H 0.57713 0.36233 0.64925 0.0
H451 H 0.53725 0.32551 0.65222 0.0
H452 H 0.63514 0.3728 0.72325 0.0
H453 H 0.54085 0.28232 0.72868 0.0
H454 H 0.60111 0.42433 0.71343 0.0
H455 H 0.61146 0.41318 0.68027 0.0
H456 H 0.63856 0.42202 0.71118 0.0
H457 H 0.48822 0.31679 0.72018 0.0
H458 H 0.48897 0.2795 0.72187 0.0
H459 H 0.49319 0.29935 0.68811 0.0
C460 C 0.13528 0.5437 0.85987 0.0
C461 C 0.11886 0.51091 0.85122 0.0
C462 C 0.16699 0.55864 0.87342 0.0
C463 C 0.18276 0.5404 0.87812 0.0
C464 C 0.16501 0.50658 0.87163 0.0
C465 C 0.13314 0.49218 0.85832 0.0
C466 C 0.18475 0.59461 0.88038 0.0
C467 C 0.18088 0.48623 0.87627 0.0
C468 C 0.27732 0.58649 0.86942 0.0
C469 C 0.28908 0.59076 0.89787 0.0
C470 C 0.24284 0.57002 0.86287 0.0
C471 C 0.21934 0.55761 0.88531 0.0
C472 C 0.23093 0.56196 0.91412 0.0
C473 C 0.26571 0.5784 0.92007 0.0
C474 C 0.23159 0.56584 0.83182 0.0
C475 C 0.20662 0.54929 0.93858 0.0
H476 H 0.12412 0.55815 0.85452 0.0
H477 H 0.12061 0.46689 0.85144 0.0
H478 H 0.19712 0.59975 0.90182 0.0
H479 H 0.20464 0.60831 0.86445 0.0
H480 H 0.16725 0.60392 0.8799 0.0
H481 H 0.16217 0.45971 0.8744 0.0
H482 H 0.20046 0.49264 0.85997 0.0
H483 H 0.19336 0.4913 0.89765 0.0
H484 H 0.2951 0.59581 0.85209 0.0
H485 H 0.27456 0.58161 0.94211 0.0
H486 H 0.21667 0.57763 0.82802 0.0
H487 H 0.21512 0.53956 0.82655 0.0
H488 H 0.25307 0.57655 0.81692 0.0
H489 H 0.19066 0.5603 0.93793 0.0
H490 H 0.21964 0.55475 0.95978 0.0
H491 H 0.1896 0.52252 0.9364 0.0
C492 C 0.64667 0.13924 0.03538 0.0
C493 C 0.61262 0.12532 0.02796 0.0
C494 C 0.6645 0.16994 0.0489 0.0
C495 C 0.64775 0.18688 0.05522 0.0
C496 C 0.61265 0.17141 0.05029 0.0
C497 C 0.59552 0.14084 0.0366 0.0
C498 C 0.70187 0.18549 0.05388 0.0
C499 C 0.5937 0.18836 0.05705 0.0
C500 C 0.69347 0.26663 0.09768 0.0
C501 C 0.70496 0.28971 0.07563 0.0
C502 C 0.67477 0.233 0.0915 0.0
C503 C 0.66754 0.22226 0.06262 0.0
C504 C 0.67906 0.24547 0.04032 0.0
C505 C 0.69751 0.27882 0.04709 0.0
C506 C 0.66273 0.20898 0.11581 0.0
C507 C 0.67196 0.23507 0.00919 0.0
H508 H 0.66002 0.12743 0.02849 0.0
H509 H 0.56913 0.12998 0.03096 0.0
H510 H 0.71543 0.20467 0.03765 0.0
H511 H 0.70942 0.19737 0.07529 0.0
H512 H 0.71004 0.16746 0.05218 0.0
H513 H 0.56606 0.17124 0.05637 0.0
H514 H 0.60108 0.20011 0.07853 0.0
H515 H 0.59999 0.20782 0.04113 0.0
H516 H 0.69908 0.2748 0.1198 0.0
H517 H 0.70631 0.29641 0.02989 0.0
H518 H 0.67295 0.19265 0.11372 0.0
H519 H 0.63494 0.19336 0.11486 0.0
H520 H 0.67037 0.22126 0.1371 0.0
H521 H 0.68228 0.21935 0.00399 0.0
H522 H 0.683 0.25617 0.99442 0.0
H523 H 0.64443 0.22046 0.00511 0.0
C524 C 0.49311 0.61699 0.19309 0.0
C525 C 0.50057 0.62306 0.16393 0.0
C526 C 0.47728 0.63112 0.20761 0.0
C527 C 0.46877 0.65163 0.19253 0.0
C528 C 0.47725 0.65856 0.16335 0.0
C529 C 0.49325 0.64446 0.14956 0.0
C530 C 0.46901 0.62357 0.23884 0.0
C531 C 0.46877 0.68035 0.1464 0.0
C532 C 0.39726 0.66406 0.21191 0.0
C533 C 0.41474 0.69653 0.22161 0.0
C534 C 0.41446 0.64828 0.20418 0.0
C535 C 0.44998 0.66527 0.20647 0.0
C536 C 0.46755 0.69723 0.21817 0.0
C537 C 0.44975 0.71255 0.22544 0.0
C538 C 0.39477 0.61426 0.19165 0.0
C539 C 0.50536 0.71601 0.22133 0.0
H540 H 0.49885 0.60058 0.2043 0.0
H541 H 0.49984 0.65003 0.12723 0.0
H542 H 0.47863 0.64646 0.25138 0.0
H543 H 0.44135 0.60922 0.24132 0.0
H544 H 0.47978 0.60948 0.24808 0.0
H545 H 0.47741 0.68348 0.12393 0.0
H546 H 0.44118 0.66991 0.14608 0.0
H547 H 0.4805 0.70476 0.15673 0.0
H548 H 0.3702 0.65139 0.20905 0.0
H549 H 0.46344 0.7375 0.23329 0.0
H550 H 0.40283 0.59835 0.20169 0.0
H551 H 0.39975 0.61515 0.16838 0.0
H552 H 0.36727 0.603 0.19449 0.0
H553 H 0.5142 0.70048 0.2309 0.0
H554 H 0.51467 0.73823 0.23484 0.0
H555 H 0.51675 0.72354 0.19988 0.0
C556 C 0.87805 0.47686 0.361 0.0
C557 C 0.89523 0.50927 0.35173 0.0
C558 C 0.84651 0.46328 0.37378 0.0
C559 C 0.83167 0.48252 0.37704 0.0
C560 C 0.85002 0.51593 0.36961 0.0
C561 C 0.88172 0.52897 0.35712 0.0
C562 C 0.82805 0.42771 0.38179 0.0
C563 C 0.8351 0.53726 0.37268 0.0
C564 C 0.73658 0.43752 0.36997 0.0
C565 C 0.7268 0.43525 0.39858 0.0
C566 C 0.7706 0.45309 0.36278 0.0
C567 C 0.7956 0.4667 0.38471 0.0
C568 C 0.78598 0.46461 0.41363 0.0
C569 C 0.75168 0.44893 0.42023 0.0
C570 C 0.77979 0.45484 0.33163 0.0
C571 C 0.81191 0.47875 0.43757 0.0
H572 H 0.88858 0.46166 0.35688 0.0
H573 H 0.89481 0.55394 0.34968 0.0
H574 H 0.81705 0.42426 0.40337 0.0
H575 H 0.80702 0.41361 0.36632 0.0
H576 H 0.84471 0.41744 0.38162 0.0
H577 H 0.8541 0.56346 0.36965 0.0
H578 H 0.81473 0.5299 0.35641 0.0
H579 H 0.82378 0.53416 0.39407 0.0
H580 H 0.71759 0.42712 0.35308 0.0
H581 H 0.74439 0.44733 0.44239 0.0
H582 H 0.79386 0.44217 0.32836 0.0
H583 H 0.79648 0.48063 0.32535 0.0
H584 H 0.75737 0.44358 0.31714 0.0
H585 H 0.82708 0.4669 0.43772 0.0
H586 H 0.80035 0.47552 0.45891 0.0
H587 H 0.82946 0.50515 0.43404 0.0
C588 C 0.0756 0.55845 0.39127 0.0
C589 C 0.0961 0.58131 0.37078 0.0
C590 C 0.08925 0.55562 0.41745 0.0
C591 C 0.12419 0.57586 0.42301 0.0
C592 C 0.145 0.59855 0.40224 0.0
C593 C 0.13067 0.60131 0.37668 0.0
C594 C 0.06627 0.53154 0.43936 0.0
C595 C 0.18243 0.62053 0.40722 0.0
C596 C 0.164 0.60158 0.49677 0.0
C597 C 0.17909 0.58284 0.49994 0.0
C598 C 0.14384 0.59772 0.47274 0.0
C599 C 0.13927 0.57506 0.45105 0.0
C600 C 0.15318 0.555 0.45475 0.0
C601 C 0.17271 0.55893 0.47936 0.0
C602 C 0.12897 0.61918 0.46986 0.0
C603 C 0.14929 0.53094 0.43189 0.0
H604 H 0.04892 0.54283 0.38688 0.0
H605 H 0.14667 0.61982 0.36152 0.0
H606 H 0.07525 0.51493 0.44558 0.0
H607 H 0.06666 0.54475 0.45903 0.0
H608 H 0.03992 0.51669 0.43132 0.0
H609 H 0.19538 0.63513 0.38804 0.0
H610 H 0.18723 0.63754 0.42528 0.0
H611 H 0.19382 0.60585 0.41319 0.0
H612 H 0.16843 0.61973 0.5129 0.0
H613 H 0.18431 0.54437 0.4818 0.0
H614 H 0.10213 0.60451 0.4632 0.0
H615 H 0.14236 0.63759 0.45301 0.0
H616 H 0.13096 0.63219 0.49018 0.0
H617 H 0.12268 0.51595 0.42464 0.0
H618 H 0.15796 0.51447 0.43948 0.0
H619 H 0.16424 0.5444 0.41299 0.0
C620 C 0.55679 0.09301 0.55718 0.0
C621 C 0.52177 0.07674 0.55366 0.0
C622 C 0.57223 0.10785 0.58338 0.0
C623 C 0.55205 0.10632 0.60647 0.0
C624 C 0.51661 0.08672 0.60396 0.0
C625 C 0.50183 0.07209 0.57749 0.0
C626 C 0.61009 0.12805 0.58528 0.0
C627 C 0.49419 0.08414 0.62817 0.0
C628 C 0.59113 0.14357 0.67916 0.0
C629 C 0.59406 0.1742 0.67721 0.0
C630 C 0.57796 0.12122 0.65618 0.0
C631 C 0.56751 0.12977 0.63077 0.0
C632 C 0.57111 0.16092 0.62848 0.0
C633 C 0.58432 0.18271 0.6517 0.0
C634 C 0.5746 0.08829 0.6593 0.0
C635 C 0.56044 0.17109 0.60162 0.0
H636 H 0.5722 0.09629 0.53878 0.0
H637 H 0.47475 0.05962 0.57482 0.0
H638 H 0.61835 0.15423 0.5833 0.0
H639 H 0.61942 0.12484 0.60629 0.0
H640 H 0.62191 0.12168 0.56796 0.0
H641 H 0.46793 0.06372 0.62473 0.0
H642 H 0.50377 0.08062 0.64892 0.0
H643 H 0.49398 0.10716 0.62978 0.0
H644 H 0.5986 0.1368 0.69881 0.0
H645 H 0.58662 0.20635 0.64995 0.0
H646 H 0.58662 0.08354 0.64109 0.0
H647 H 0.54764 0.06892 0.6588 0.0
H648 H 0.58612 0.0863 0.67963 0.0
H649 H 0.57391 0.16942 0.58288 0.0
H650 H 0.5655 0.19639 0.60314 0.0
H651 H 0.53315 0.15436 0.5975 0.0
C652 C 0.39499 0.5186 0.69951 0.0
C653 C 0.42139 0.51332 0.69389 0.0
C654 C 0.39318 0.53178 0.72565 0.0
C655 C 0.41828 0.53968 0.74691 0.0
C656 C 0.44457 0.53361 0.74176 0.0
C657 C 0.44578 0.52036 0.71521 0.0
C658 C 0.36456 0.5376 0.73033 0.0
C659 C 0.47163 0.54164 0.76406 0.0
C660 C 0.42496 0.60216 0.8006 0.0
C661 C 0.40448 0.58211 0.82258 0.0
C662 C 0.43122 0.58877 0.77643 0.0
C663 C 0.41669 0.55457 0.77429 0.0
C664 C 0.39724 0.53437 0.79699 0.0
C665 C 0.39131 0.54838 0.82084 0.0
C666 C 0.45203 0.61108 0.75259 0.0
C667 C 0.38137 0.4978 0.7955 0.0
H668 H 0.37567 0.51247 0.68327 0.0
H669 H 0.46615 0.51622 0.71087 0.0
H670 H 0.35019 0.52412 0.74944 0.0
H671 H 0.37462 0.5639 0.73448 0.0
H672 H 0.34698 0.52984 0.71162 0.0
H673 H 0.48954 0.53423 0.75718 0.0
H674 H 0.48585 0.56825 0.7685 0.0
H675 H 0.46017 0.52929 0.78448 0.0
H676 H 0.43544 0.62827 0.8019 0.0
H677 H 0.37574 0.53272 0.83789 0.0
H678 H 0.43573 0.60671 0.73347 0.0
H679 H 0.4717 0.60583 0.74626 0.0
H680 H 0.46432 0.63723 0.75877 0.0
H681 H 0.36123 0.48758 0.77878 0.0
H682 H 0.37022 0.48596 0.8162 0.0
H683 H 0.40022 0.49136 0.78936 0.0
C684 C 0.91367 0.45849 0.87744 0.0
C685 C 0.92814 0.43916 0.87509 0.0
C686 C 0.8955 0.45683 0.90175 0.0
C687 C 0.89165 0.4352 0.92405 0.0
C688 C 0.90888 0.41799 0.92292 0.0
C689 C 0.92704 0.42024 0.89841 0.0
C690 C 0.87797 0.476 0.90232 0.0
C691 C 0.90552 0.39478 0.94632 0.0
C692 C 0.84928 0.43451 0.99332 0.0
C693 C 0.81619 0.40886 0.98803 0.0
C694 C 0.87417 0.44374 0.9726 0.0
C695 C 0.86575 0.4268 0.9461 0.0
C696 C 0.83233 0.40117 0.94053 0.0
C697 C 0.80796 0.39258 0.96154 0.0
C698 C 0.90948 0.47131 0.97915 0.0
C699 C 0.82235 0.38248 0.91248 0.0
H700 H 0.91478 0.47334 0.85946 0.0
H701 H 0.93801 0.4051 0.89656 0.0
H702 H 0.85073 0.45932 0.89791 0.0
H703 H 0.88062 0.48716 0.92376 0.0
H704 H 0.88795 0.49555 0.886 0.0
H705 H 0.92433 0.38719 0.94439 0.0
H706 H 0.90844 0.40602 0.96775 0.0
H707 H 0.88004 0.37263 0.94507 0.0
H708 H 0.85584 0.44726 0.01375 0.0
H709 H 0.7825 0.37275 0.95727 0.0
H710 H 0.91771 0.49027 0.96242 0.0
H711 H 0.92705 0.46214 0.97887 0.0
H712 H 0.91163 0.48281 0.00037 0.0
H713 H 0.82781 0.39942 0.89437 0.0
H714 H 0.79525 0.36335 0.91148 0.0
H715 H 0.83731 0.37069 0.90938 0.0
C716 C 0.51033 0.94655 0.07176 0.0
C717 C 0.49201 0.94279 0.04647 0.0
C718 C 0.49393 0.93082 0.09698 0.0
C719 C 0.45843 0.91095 0.09681 0.0
C720 C 0.43974 0.90956 0.07209 0.0
C721 C 0.45679 0.92552 0.04717 0.0
C722 C 0.51476 0.93313 0.12299 0.0
C723 C 0.40186 0.889 0.07113 0.0
C724 C 0.42359 0.83588 0.14328 0.0
C725 C 0.41296 0.84535 0.1674 0.0
C726 C 0.43778 0.85683 0.11998 0.0
C727 C 0.44143 0.88808 0.12077 0.0
C728 C 0.42991 0.8975 0.14467 0.0
C729 C 0.41578 0.87599 0.16775 0.0
C730 C 0.44961 0.84578 0.09478 0.0
C731 C 0.43326 0.93055 0.14616 0.0
H732 H 0.53754 0.95968 0.0713 0.0
H733 H 0.44258 0.92293 0.0277 0.0
H734 H 0.50434 0.93728 0.14267 0.0
H735 H 0.51409 0.90977 0.12561 0.0
H736 H 0.5414 0.95306 0.12109 0.0
H737 H 0.39102 0.89473 0.05228 0.0
H738 H 0.394 0.86285 0.0699 0.0
H739 H 0.3911 0.89255 0.09089 0.0
H740 H 0.42138 0.81221 0.14277 0.0
H741 H 0.40759 0.8835 0.1863 0.0
H742 H 0.47712 0.86216 0.09239 0.0
H743 H 0.43737 0.84722 0.07471 0.0
H744 H 0.44407 0.8204 0.09716 0.0
H745 H 0.46024 0.94987 0.14695 0.0
H746 H 0.4209 0.93325 0.16528 0.0
H747 H 0.42211 0.9347 0.12665 0.0
C748 C 0.57697 0.51679 0.23591 0.0
C749 C 0.55857 0.50002 0.21129 0.0
C750 C 0.57838 0.49969 0.25975 0.0
C751 C 0.56084 0.46518 0.25874 0.0
C752 C 0.53848 0.44831 0.23559 0.0
C753 C 0.53761 0.46602 0.21203 0.0
C754 C 0.60206 0.51862 0.28427 0.0
C755 C 0.51875 0.41156 0.23394 0.0
C756 C 0.60984 0.42855 0.2894 0.0
C757 C 0.59489 0.41734 0.31607 0.0
C758 C 0.59844 0.44356 0.27042 0.0
C759 C 0.57133 0.44744 0.27829 0.0
C760 C 0.55541 0.43531 0.3048 0.0
C761 C 0.56743 0.42044 0.32344 0.0
C762 C 0.616 0.45597 0.24218 0.0
C763 C 0.52637 0.43885 0.31382 0.0
H764 H 0.59325 0.54309 0.23535 0.0
H765 H 0.52317 0.4531 0.193 0.0
H766 H 0.59096 0.50742 0.30512 0.0
H767 H 0.62561 0.51824 0.28204 0.0
H768 H 0.6086 0.54445 0.28456 0.0
H769 H 0.49759 0.40241 0.21819 0.0
H770 H 0.53561 0.40286 0.22715 0.0
H771 H 0.50865 0.40082 0.25516 0.0
H772 H 0.63096 0.42616 0.2835 0.0
H773 H 0.55571 0.41184 0.34404 0.0
H774 H 0.62732 0.48278 0.24107 0.0
H775 H 0.59761 0.44495 0.22415 0.0
H776 H 0.63616 0.45037 0.23907 0.0
H777 H 0.5355 0.4649 0.31823 0.0
H778 H 0.51418 0.42467 0.33339 0.0
H779 H 0.50721 0.43072 0.29635 0.0
C780 C 0.46944 0.9229 0.41922 0.0
C781 C 0.44964 0.93705 0.42187 0.0
C782 C 0.46671 0.90454 0.39484 0.0
C783 C 0.44357 0.90023 0.37274 0.0
C784 C 0.42621 0.91731 0.37402 0.0
C785 C 0.42952 0.93563 0.39862 0.0
C786 C 0.48611 0.88718 0.3941 0.0
C787 C 0.40148 0.91356 0.3508 0.0
C788 C 0.4383 0.85576 0.30357 0.0
C789 C 0.41154 0.82415 0.30923 0.0
C790 C 0.44949 0.88079 0.32416 0.0
C791 C 0.43345 0.87403 0.35093 0.0
C792 C 0.40685 0.84205 0.35693 0.0
C793 C 0.39627 0.81751 0.33603 0.0
C794 C 0.47805 0.91453 0.31712 0.0
C795 C 0.38911 0.83382 0.38531 0.0
H796 H 0.48521 0.92422 0.43714 0.0
H797 H 0.414 0.94634 0.40067 0.0
H798 H 0.46899 0.86104 0.39908 0.0
H799 H 0.49631 0.88849 0.37248 0.0
H800 H 0.50719 0.89758 0.41 0.0
H801 H 0.39424 0.93226 0.35269 0.0
H802 H 0.41205 0.91531 0.32928 0.0
H803 H 0.37842 0.8891 0.35237 0.0
H804 H 0.45029 0.86109 0.2829 0.0
H805 H 0.37563 0.79319 0.3406 0.0
H806 H 0.49814 0.92314 0.3338 0.0
H807 H 0.46896 0.93188 0.31697 0.0
H808 H 0.48907 0.91536 0.29594 0.0
H809 H 0.40747 0.83974 0.40314 0.0
H810 H 0.36923 0.80767 0.38673 0.0
H811 H 0.37742 0.84875 0.38851 0.0
C812 C 0.55798 0.48205 0.57025 0.0
C813 C 0.52286 0.46259 0.57133 0.0
C814 C 0.57508 0.48351 0.54526 0.0
C815 C 0.55649 0.46509 0.52091 0.0
C816 C 0.52094 0.44858 0.52089 0.0
C817 C 0.5045 0.44753 0.54618 0.0
C818 C 0.61299 0.50191 0.546 0.0
C819 C 0.50017 0.42897 0.49524 0.0
C820 C 0.59841 0.46829 0.45064 0.0
C821 C 0.60118 0.44051 0.4528 0.0
C822 C 0.58472 0.47728 0.47293 0.0
C823 C 0.57359 0.458 0.49787 0.0
C824 C 0.57741 0.43061 0.50056 0.0
C825 C 0.59115 0.42222 0.478 0.0
C826 C 0.58118 0.5067 0.46941 0.0
C827 C 0.56609 0.40952 0.52696 0.0
H828 H 0.57219 0.49406 0.58963 0.0
H829 H 0.47735 0.43237 0.54692 0.0
H830 H 0.62166 0.4844 0.54893 0.0
H831 H 0.62331 0.51481 0.52555 0.0
H832 H 0.62349 0.51992 0.56391 0.0
H833 H 0.47354 0.42232 0.49684 0.0
H834 H 0.5106 0.44267 0.47515 0.0
H835 H 0.5008 0.40616 0.49371 0.0
H836 H 0.60613 0.48258 0.43122 0.0
H837 H 0.59339 0.40086 0.47992 0.0
H838 H 0.59121 0.52273 0.48864 0.0
H839 H 0.55419 0.4987 0.46721 0.0
H840 H 0.59442 0.52115 0.45024 0.0
H841 H 0.57841 0.42463 0.54638 0.0
H842 H 0.57191 0.38977 0.52606 0.0
H843 H 0.53856 0.39825 0.52937 0.0
C844 C 0.07607 0.50086 0.72956 0.0
C845 C 0.07891 0.51851 0.75448 0.0
C846 C 0.09067 0.51695 0.70395 0.0
C847 C 0.10849 0.55146 0.70334 0.0
C848 C 0.10899 0.56922 0.72777 0.0
C849 C 0.09416 0.5525 0.75308 0.0
C850 C 0.08939 0.49712 0.67829 0.0
C851 C 0.12744 0.60601 0.7279 0.0
C852 C 0.18416 0.59083 0.65523 0.0
C853 C 0.17188 0.5995 0.63137 0.0
C854 C 0.16385 0.57563 0.67889 0.0
C855 C 0.13037 0.56887 0.67874 0.0
C856 C 0.11794 0.57809 0.655 0.0
C857 C 0.13888 0.59333 0.63155 0.0
C858 C 0.1781 0.56629 0.7039 0.0
C859 C 0.0824 0.57131 0.65416 0.0
H860 H 0.06453 0.47461 0.73056 0.0
H861 H 0.09598 0.56617 0.77224 0.0
H862 H 0.08301 0.50576 0.65852 0.0
H863 H 0.11451 0.50016 0.6753 0.0
H864 H 0.07075 0.47073 0.68087 0.0
H865 H 0.12124 0.61581 0.74687 0.0
H866 H 0.15493 0.61584 0.72823 0.0
H867 H 0.12141 0.61507 0.70821 0.0
H868 H 0.20964 0.59559 0.65532 0.0
H869 H 0.12918 0.59995 0.6132 0.0
H870 H 0.16333 0.53948 0.70682 0.0
H871 H 0.1762 0.57767 0.72392 0.0
H872 H 0.20485 0.57389 0.7009 0.0
H873 H 0.06441 0.54462 0.65454 0.0
H874 H 0.07709 0.58142 0.63474 0.0
H875 H 0.0777 0.58188 0.6734 0.0
C876 C 0.54892 0.10729 0.92756 0.0
C877 C 0.5689 0.09322 0.92936 0.0
C878 C 0.55022 0.12552 0.90358 0.0
C879 C 0.5721 0.12976 0.881 0.0
C880 C 0.58986 0.11302 0.88155 0.0
C881 C 0.588 0.09486 0.90577 0.0
C882 C 0.53048 0.14254 0.90362 0.0
C883 C 0.6133 0.11675 0.85781 0.0
C884 C 0.57192 0.17165 0.81191 0.0
C885 C 0.5989 0.20353 0.81694 0.0
C886 C 0.56234 0.1474 0.83275 0.0
C887 C 0.58025 0.15524 0.85914 0.0
C888 C 0.60696 0.18754 0.86459 0.0
C889 C 0.61592 0.21128 0.84344 0.0
C890 C 0.53361 0.11329 0.82631 0.0
C891 C 0.62664 0.1969 0.89255 0.0
H892 H 0.53389 0.10577 0.94572 0.0
H893 H 0.60367 0.08422 0.90716 0.0
H894 H 0.54775 0.16887 0.90825 0.0
H895 H 0.5186 0.14045 0.88233 0.0
H896 H 0.51062 0.13249 0.92008 0.0
H897 H 0.62137 0.09863 0.8594 0.0
H898 H 0.60116 0.11408 0.83654 0.0
H899 H 0.63603 0.14155 0.85895 0.0
H900 H 0.55859 0.16545 0.79148 0.0
H901 H 0.63673 0.23583 0.84753 0.0
H902 H 0.51484 0.10486 0.84359 0.0
H903 H 0.54309 0.09627 0.82556 0.0
H904 H 0.52083 0.11169 0.80555 0.0
H905 H 0.60945 0.19113 0.91079 0.0
H906 H 0.6462 0.22322 0.89365 0.0
H907 H 0.63906 0.18252 0.89534 0.0
C908 C 0.47767 0.55717 0.06251 0.0
C909 C 0.51039 0.58079 0.07111 0.0
C910 C 0.46511 0.55854 0.03538 0.0
C911 C 0.48553 0.58474 0.017 0.0
C912 C 0.51941 0.60722 0.02485 0.0
C913 C 0.53155 0.60474 0.0518 0.0
C914 C 0.42921 0.53351 0.0274 0.0
C915 C 0.54186 0.63579 0.00609 0.0
C916 C 0.46017 0.5892 0.94025 0.0
C917 C 0.44543 0.60821 0.94351 0.0
C918 C 0.47223 0.58022 0.9641 0.0
C919 C 0.47034 0.59136 0.99167 0.0
C920 C 0.45511 0.61028 -0.00492 0.0
C921 C 0.44241 0.61808 0.97096 0.0
C922 C 0.48734 0.55921 0.95979 0.0
C923 C 0.45315 0.62313 0.0241 0.0
H924 H 0.46133 0.5388 0.07766 0.0
H925 H 0.55669 0.62328 0.05876 0.0
H926 H 0.41332 0.54442 0.02973 0.0
H927 H 0.42721 0.52565 0.00473 0.0
H928 H 0.41898 0.5117 0.04131 0.0
H929 H 0.56845 0.6488 0.01372 0.0
H930 H 0.54078 0.62768 0.98365 0.0
H931 H 0.53295 0.65329 0.00601 0.0
H932 H 0.46219 0.58125 0.91901 0.0
H933 H 0.43116 0.63291 0.97348 0.0
H934 H 0.47538 0.53786 0.97421 0.0
H935 H 0.51451 0.57329 0.96542 0.0
H936 H 0.48438 0.55034 0.93733 0.0
H937 H 0.43906 0.60262 0.03905 0.0
H938 H 0.44068 0.63762 0.02302 0.0
H939 H 0.47882 0.63877 0.03331 0.0
C940 C 0.91792 0.46334 0.25608 0.0
C941 C 0.93458 0.49749 0.25733 0.0
C942 C 0.90238 0.44634 0.23061 0.0
C943 C 0.90364 0.46398 0.20586 0.0
C944 C 0.92295 0.49849 0.20636 0.0
C945 C 0.9382 0.51486 0.23214 0.0
C946 C 0.88235 0.40955 0.23088 0.0
C947 C 0.92515 0.51818 0.18034 0.0
C948 C 0.87107 0.42184 0.13356 0.0
C949 C 0.83897 0.41789 0.13236 0.0
C950 C 0.89229 0.43617 0.15762 0.0
C951 C 0.88107 0.44673 0.18094 0.0
C952 C 0.84832 0.44191 0.18018 0.0
C953 C 0.8277 0.42757 0.15592 0.0
C954 C 0.92699 0.44081 0.15776 0.0
C955 C 0.83532 0.45266 0.20474 0.0
H956 H 0.9155 0.44986 0.27545 0.0
H957 H 0.95084 0.54123 0.23299 0.0
H958 H 0.85513 0.40097 0.23085 0.0
H959 H 0.8872 0.3994 0.21143 0.0
H960 H 0.88824 0.39962 0.25011 0.0
H961 H 0.94478 0.54435 0.18301 0.0
H962 H 0.93068 0.50848 0.16097 0.0
H963 H 0.90059 0.51635 0.17658 0.0
H964 H 0.87997 0.41439 0.11545 0.0
H965 H 0.80288 0.42446 0.15526 0.0
H966 H 0.93126 0.43057 0.17758 0.0
H967 H 0.94616 0.46722 0.15765 0.0
H968 H 0.93098 0.42908 0.13893 0.0
H969 H 0.83684 0.44127 0.22495 0.0
H970 H 0.80887 0.44616 0.20117 0.0
H971 H 0.85117 0.47947 0.20769 0.0
loop_
_geom_bond_atom_site_label_1
_geom_bond_atom_site_label_2
_geom_bond_distance
_geom_bond_site_symmetry_2
_ccdc_geom_bond_type
H0 C8 0.930 . S
H1 C11 0.930 . S
H2 C13 0.930 . S
H3 C14 0.970 1_655 S
H4 C14 0.970 . S
H5 C16 0.930 . S
H6 C18 0.930 . S
H7 C20 0.930 . S
C8 H0 0.930 . S
C8 C9 1.382 . S
C8 C10 1.426 . S
C9 C8 1.382 . S
C9 C13 1.389 . S
C10 C8 1.426 . S
C10 C11 1.375 . S
C10 C14 1.532 1_655 S
C11 H1 0.930 . S
C11 C10 1.375 . S
C11 C12 1.416 . S
C12 C11 1.416 . S
C12 C13 1.371 . S
C13 H2 0.930 . S
C13 C9 1.389 . S
C13 C12 1.371 . S
C14 H3 0.970 1_455 S
C14 H4 0.970 . S
C14 C10 1.532 1_455 S
C14 C15 1.499 . S
C15 C14 1.499 . S
C15 C16 1.370 . S
C15 C20 1.415 . S
C16 H5 0.930 . S
C16 C15 1.370 . S
C16 C17 1.407 . S
C17 C16 1.407 . S
C17 C18 1.365 . S
C18 H6 0.930 . S
C18 C17 1.365 . S
C18 C19 1.393 . S
C19 C18 1.393 . S
C19 C20 1.387 . S
C20 H7 0.930 . S
C20 C15 1.415 . S
C20 C19 1.387 . S
H21 C29 0.930 . S
H22 C32 0.930 . S
H23 C34 0.930 . S
H24 C35 0.970 . S
H25 C35 0.970 . S
H26 C37 0.930 . S
H27 C39 0.930 . S
H28 C41 0.930 . S
C29 H21 0.930 . S
C29 C30 1.382 . S
C29 C31 1.426 . S
C30 C29 1.382 . S
C30 C34 1.389 . S
C31 C29 1.426 . S
C31 C32 1.375 . S
C31 C35 1.532 1_565 S
C32 H22 0.930 . S
C32 C31 1.375 . S
C32 C33 1.416 . S
C33 C32 1.416 . S
C33 C34 1.371 . S
C34 H23 0.930 . S
C34 C30 1.389 . S
C34 C33 1.371 . S
C35 H24 0.970 . S
C35 H25 0.970 . S
C35 C31 1.532 1_545 S
C35 C36 1.499 . S
C36 C35 1.499 . S
C36 C37 1.370 . S
C36 C41 1.415 . S
C37 H26 0.930 . S
C37 C36 1.370 . S
C37 C38 1.407 . S
C38 C37 1.407 . S
C38 C39 1.365 . S
C39 H27 0.930 . S
C39 C38 1.365 . S
C39 C40 1.393 . S
C40 C39 1.393 . S
C40 C41 1.387 . S
C41 H28 0.930 . S
C41 C36 1.415 . S
C41 C40 1.387 . S
H42 C50 0.930 . S
H43 C53 0.930 . S
H44 C55 0.930 . S
H45 C56 0.970 . S
H46 C56 0.970 . S
H47 C58 0.930 . S
H48 C60 0.930 . S
H49 C62 0.930 . S
C50 H42 0.930 . S
C50 C51 1.382 . S
C50 C52 1.426 . S
C51 C50 1.382 . S
C51 C55 1.389 . S
C52 C50 1.426 . S
C52 C53 1.375 . S
C52 C56 1.532 . S
C53 H43 0.930 . S
C53 C52 1.375 . S
C53 C54 1.416 . S
C54 C53 1.416 . S
C54 C55 1.371 . S
C55 H44 0.930 . S
C55 C51 1.389 . S
C55 C54 1.371 . S
C56 H45 0.970 . S
C56 H46 0.970 . S
C56 C52 1.532 . S
C56 C57 1.499 . S
C57 C56 1.499 . S
C57 C58 1.370 . S
C57 C62 1.415 . S
C58 H47 0.930 . S
C58 C57 1.370 . S
C58 C59 1.407 . S
C59 C58 1.407 . S
C59 C60 1.365 . S
C60 H48 0.930 . S
C60 C59 1.365 . S
C60 C61 1.393 . S
C61 C60 1.393 . S
C61 C62 1.387 . S
C62 H49 0.930 . S
C62 C57 1.415 . S
C62 C61 1.387 . S
H63 C71 0.930 . S
H64 C74 0.930 . S
H65 C76 0.930 . S
H66 C77 0.970 1_655 S
H67 C77 0.970 . S
H68 C79 0.930 . S
H69 C81 0.930 . S
H70 C83 0.930 . S
C71 H63 0.930 . S
C71 C72 1.382 . S
C71 C73 1.426 . S
C72 C71 1.382 . S
C72 C76 1.389 . S
C73 C71 1.426 . S
C73 C74 1.375 . S
C73 C77 1.532 1_655 S
C74 H64 0.930 . S
C74 C73 1.375 . S
C74 C75 1.416 . S
C75 C74 1.416 . S
C75 C76 1.371 . S
C76 H65 0.930 . S
C76 C72 1.389 . S
C76 C75 1.371 . S
C77 H66 0.970 1_455 S
C77 H67 0.970 . S
C77 C73 1.532 1_455 S
C77 C78 1.499 . S
C78 C77 1.499 . S
C78 C79 1.370 . S
C78 C83 1.415 . S
C79 H68 0.930 . S
C79 C78 1.370 . S
C79 C80 1.407 . S
C80 C79 1.407 . S
C80 C81 1.365 . S
C81 H69 0.930 . S
C81 C80 1.365 . S
C81 C82 1.393 . S
C82 C81 1.393 . S
C82 C83 1.387 . S
C83 H70 0.930 . S
C83 C78 1.415 . S
C83 C82 1.387 . S
H84 C92 0.930 . S
H85 C95 0.930 . S
H86 C97 0.930 . S
H87 C98 0.970 1_554 S
H88 C98 0.970 . S
H89 C100 0.930 . S
H90 C102 0.930 . S
H91 C104 0.930 . S
C92 H84 0.930 . S
C92 C93 1.382 1_554 S
C92 C94 1.426 1_554 S
C93 C92 1.382 1_556 S
C93 C97 1.389 . S
C94 C92 1.426 1_556 S
C94 C95 1.375 . S
C94 C98 1.532 . S
C95 H85 0.930 . S
C95 C94 1.375 . S
C95 C96 1.416 . S
C96 C95 1.416 . S
C96 C97 1.371 . S
C97 H86 0.930 . S
C97 C93 1.389 . S
C97 C96 1.371 . S
C98 H87 0.970 1_556 S
C98 H88 0.970 . S
C98 C94 1.532 . S
C98 C99 1.499 1_545 S
C99 C98 1.499 1_565 S
C99 C100 1.370 1_556 S
C99 C104 1.415 . S
C100 H89 0.930 . S
C100 C99 1.370 1_554 S
C100 C101 1.407 . S
C101 C100 1.407 . S
C101 C102 1.365 . S
C102 H90 0.930 . S
C102 C101 1.365 . S
C102 C103 1.393 1_554 S
C103 C102 1.393 1_556 S
C103 C104 1.387 . S
C104 H91 0.930 . S
C104 C99 1.415 . S
C104 C103 1.387 . S
H105 C113 0.930 . S
H106 C116 0.930 . S
H107 C118 0.930 . S
H108 C119 0.970 . S
H109 C119 0.970 . S
H110 C121 0.930 . S
H111 C123 0.930 . S
H112 C125 0.930 . S
C113 H105 0.930 . S
C113 C114 1.382 . S
C113 C115 1.426 . S
C114 C113 1.382 . S
C114 C118 1.389 . S
C115 C113 1.426 . S
C115 C116 1.375 . S
C115 C119 1.532 . S
C116 H106 0.930 . S
C116 C115 1.375 . S
C116 C117 1.416 . S
C117 C116 1.416 . S
C117 C118 1.371 . S
C118 H107 0.930 . S
C118 C114 1.389 . S
C118 C117 1.371 . S
C119 H108 0.970 . S
C119 H109 0.970 . S
C119 C115 1.532 . S
C119 C120 1.499 . S
C120 C119 1.499 . S
C120 C121 1.370 . S
C120 C125 1.415 . S
C121 H110 0.930 . S
C121 C120 1.370 . S
C121 C122 1.407 . S
C122 C121 1.407 . S
C122 C123 1.365 . S
C123 H111 0.930 . S
C123 C122 1.365 . S
C123 C124 1.393 . S
C124 C123 1.393 . S
C124 C125 1.387 . S
C125 H112 0.930 . S
C125 C120 1.415 . S
C125 C124 1.387 . S
C126 O127 1.160 . S
C126 O133 1.185 . S
O127 C126 1.160 . S
O128 Zn129 1.899 . S
O128 C136 1.284 . S
Zn129 O128 1.899 . S
Zn129 O130 2.032 . S
Zn129 O133 2.086 . S
Zn129 O138 1.977 . S
O130 Zn129 2.032 . S
O130 C134 1.278 . S
C131 O132 1.203 . S
C131 O138 1.267 . S
O132 C131 1.203 . S
O133 C126 1.185 . S
O133 Zn129 2.086 . S
C134 O130 1.278 . S
C134 O135 1.211 . S
O135 C134 1.211 . S
C136 O128 1.284 . S
C136 O137 1.273 . S
O137 C136 1.273 . S
O138 Zn129 1.977 . S
O138 C131 1.267 . S
C139 O140 1.160 . S
C139 O146 1.185 . S
O140 C139 1.160 . S
O141 Zn142 1.899 . S
O141 C149 1.284 . S
Zn142 O141 1.899 . S
Zn142 O143 2.032 . S
Zn142 O146 2.086 . S
Zn142 O151 1.977 . S
O143 Zn142 2.032 . S
O143 C147 1.278 . S
C144 O145 1.203 . S
C144 O151 1.267 . S
O145 C144 1.203 . S
O146 C139 1.185 . S
O146 Zn142 2.086 . S
C147 O143 1.278 . S
C147 O148 1.211 . S
O148 C147 1.211 . S
C149 O141 1.284 . S
C149 O150 1.273 . S
O150 C149 1.273 . S
O151 Zn142 1.977 . S
O151 C144 1.267 . S
C152 O153 1.160 . S
C152 O159 1.185 . S
O153 C152 1.160 . S
O154 Zn155 1.899 . S
O154 C162 1.284 . S
Zn155 O154 1.899 . S
Zn155 O156 2.032 . S
Zn155 O159 2.086 . S
Zn155 O164 1.977 . S
O156 Zn155 2.032 . S
O156 C160 1.278 . S
C157 O158 1.203 . S
C157 O164 1.267 . S
O158 C157 1.203 . S
O159 C152 1.185 . S
O159 Zn155 2.086 . S
C160 O156 1.278 . S
C160 O161 1.211 . S
O161 C160 1.211 . S
C162 O154 1.284 . S
C162 O163 1.273 . S
O163 C162 1.273 . S
O164 Zn155 1.977 . S
O164 C157 1.267 . S
C165 O166 1.160 . S
C165 O172 1.185 . S
O166 C165 1.160 . S
O167 Zn168 1.899 . S
O167 C175 1.284 . S
Zn168 O167 1.899 . S
Zn168 O169 2.032 . S
Zn168 O172 2.086 . S
Zn168 O177 1.977 . S
O169 Zn168 2.032 . S
O169 C173 1.278 . S
C170 O171 1.203 . S
C170 O177 1.267 . S
O171 C170 1.203 . S
O172 C165 1.185 . S
O172 Zn168 2.086 . S
C173 O169 1.278 . S
C173 O174 1.211 . S
O174 C173 1.211 . S
C175 O167 1.284 . S
C175 O176 1.273 . S
O176 C175 1.273 . S
O177 Zn168 1.977 . S
O177 C170 1.267 . S
C178 O179 1.160 . S
C178 O185 1.185 . S
O179 C178 1.160 . S
O180 Zn181 1.899 . S
O180 C188 1.284 . S
Zn181 O180 1.899 . S
Zn181 O182 2.032 . S
Zn181 O185 2.086 . S
Zn181 O190 1.977 . S
O182 Zn181 2.032 . S
O182 C186 1.278 . S
C183 O184 1.203 . S
C183 O190 1.267 . S
O184 C183 1.203 . S
O185 C178 1.185 . S
O185 Zn181 2.086 . S
C186 O182 1.278 . S
C186 O187 1.211 . S
O187 C186 1.211 . S
C188 O180 1.284 . S
C188 O189 1.273 . S
O189 C188 1.273 . S
O190 Zn181 1.977 . S
O190 C183 1.267 . S
C191 O192 1.160 . S
C191 O198 1.185 . S
O192 C191 1.160 . S
O193 Zn194 1.899 . S
O193 C201 1.284 . S
Zn194 O193 1.899 . S
Zn194 O195 2.032 . S
Zn194 O198 2.086 . S
Zn194 O203 1.977 . S
O195 Zn194 2.032 . S
O195 C199 1.278 . S
C196 O197 1.203 . S
C196 O203 1.267 . S
O197 C196 1.203 . S
O198 C191 1.185 . S
O198 Zn194 2.086 . S
C199 O195 1.278 . S
C199 O200 1.211 . S
O200 C199 1.211 . S
C201 O193 1.284 . S
C201 O202 1.273 . S
O202 C201 1.273 . S
O203 Zn194 1.977 . S
O203 C196 1.267 . S
C204 C205 1.391 . S
C204 C206 1.394 . S
C204 H220 0.931 . S
C205 C204 1.391 . S
C205 C209 1.376 . S
C206 C204 1.394 . S
C206 C207 1.369 . S
C206 C210 1.531 . S
C207 C206 1.369 . S
C207 C208 1.410 . S
C207 C215 1.503 . S
C208 C207 1.410 . S
C208 C209 1.392 . S
C208 C211 1.511 . S
C209 C205 1.376 . S
C209 C208 1.392 . S
C209 H221 0.929 . S
C210 C206 1.531 . S
C210 H222 0.960 . S
C210 H223 0.962 . S
C210 H224 0.960 . S
C211 C208 1.511 . S
C211 H225 0.961 . S
C211 H226 0.961 . S
C211 H227 0.961 . S
C212 C213 1.370 . S
C212 C214 1.363 . S
C212 H228 0.931 . S
C213 C212 1.370 . S
C213 C217 1.408 . S
C214 C212 1.363 . S
C214 C215 1.370 . S
C214 C218 1.524 . S
C215 C207 1.503 . S
C215 C214 1.370 . S
C215 C216 1.403 . S
C216 C215 1.403 . S
C216 C217 1.404 . S
C216 C219 1.539 . S
C217 C213 1.408 . S
C217 C216 1.404 . S
C217 H229 0.930 . S
C218 C214 1.524 . S
C218 H230 0.956 . S
C218 H231 0.961 . S
C218 H232 0.961 . S
C219 C216 1.539 . S
C219 H233 0.958 . S
C219 H234 0.961 . S
C219 H235 0.960 . S
H220 C204 0.931 . S
H221 C209 0.929 . S
H222 C210 0.960 . S
H223 C210 0.962 . S
H224 C210 0.960 . S
H225 C211 0.961 . S
H226 C211 0.961 . S
H227 C211 0.961 . S
H228 C212 0.931 . S
H229 C217 0.930 . S
H230 C218 0.956 . S
H231 C218 0.961 . S
H232 C218 0.961 . S
H233 C219 0.958 . S
H234 C219 0.961 . S
H235 C219 0.960 . S
C236 C237 1.391 . S
C236 C238 1.394 . S
C236 H252 0.931 . S
C237 C236 1.391 . S
C237 C241 1.376 . S
C238 C236 1.394 . S
C238 C239 1.369 . S
C238 C242 1.531 . S
C239 C238 1.369 . S
C239 C240 1.410 . S
C239 C247 1.503 . S
C240 C239 1.410 . S
C240 C241 1.392 . S
C240 C243 1.511 . S
C241 C237 1.376 . S
C241 C240 1.392 . S
C241 H253 0.929 . S
C242 C238 1.531 . S
C242 H254 0.960 . S
C242 H255 0.962 . S
C242 H256 0.960 . S
C243 C240 1.511 . S
C243 H257 0.961 . S
C243 H258 0.961 . S
C243 H259 0.961 . S
C244 C245 1.370 . S
C244 C246 1.363 . S
C244 H260 0.931 . S
C245 C244 1.370 . S
C245 C249 1.408 . S
C246 C244 1.363 . S
C246 C247 1.370 . S
C246 C250 1.524 . S
C247 C239 1.503 . S
C247 C246 1.370 . S
C247 C248 1.403 . S
C248 C247 1.403 . S
C248 C249 1.404 . S
C248 C251 1.539 . S
C249 C245 1.408 . S
C249 C248 1.404 . S
C249 H261 0.930 . S
C250 C246 1.524 . S
C250 H262 0.956 . S
C250 H263 0.961 . S
C250 H264 0.961 . S
C251 C248 1.539 . S
C251 H265 0.958 . S
C251 H266 0.961 . S
C251 H267 0.960 . S
H252 C236 0.931 . S
H253 C241 0.929 . S
H254 C242 0.960 . S
H255 C242 0.962 . S
H256 C242 0.960 . S
H257 C243 0.961 . S
H258 C243 0.961 . S
H259 C243 0.961 . S
H260 C244 0.931 . S
H261 C249 0.930 . S
H262 C250 0.956 . S
H263 C250 0.961 . S
H264 C250 0.961 . S
H265 C251 0.958 . S
H266 C251 0.961 . S
H267 C251 0.960 . S
C268 C269 1.391 . S
C268 C270 1.394 . S
C268 H284 0.931 . S
C269 C268 1.391 . S
C269 C273 1.376 . S
C270 C268 1.394 . S
C270 C271 1.369 . S
C270 C274 1.531 . S
C271 C270 1.369 . S
C271 C272 1.410 . S
C271 C279 1.503 . S
C272 C271 1.410 . S
C272 C273 1.392 . S
C272 C275 1.511 . S
C273 C269 1.376 . S
C273 C272 1.392 . S
C273 H285 0.929 . S
C274 C270 1.531 . S
C274 H286 0.960 . S
C274 H287 0.962 . S
C274 H288 0.960 . S
C275 C272 1.511 . S
C275 H289 0.961 . S
C275 H290 0.961 . S
C275 H291 0.961 . S
C276 C277 1.370 . S
C276 C278 1.363 . S
C276 H292 0.931 . S
C277 C276 1.370 . S
C277 C281 1.408 . S
C278 C276 1.363 . S
C278 C279 1.370 . S
C278 C282 1.524 . S
C279 C271 1.503 . S
C279 C278 1.370 . S
C279 C280 1.403 . S
C280 C279 1.403 . S
C280 C281 1.404 . S
C280 C283 1.539 . S
C281 C277 1.408 . S
C281 C280 1.404 . S
C281 H293 0.930 . S
C282 C278 1.524 . S
C282 H294 0.956 . S
C282 H295 0.961 . S
C282 H296 0.961 . S
C283 C280 1.539 . S
C283 H297 0.958 . S
C283 H298 0.961 . S
C283 H299 0.960 . S
H284 C268 0.931 . S
H285 C273 0.929 . S
H286 C274 0.960 . S
H287 C274 0.962 . S
H288 C274 0.960 . S
H289 C275 0.961 . S
H290 C275 0.961 . S
H291 C275 0.961 . S
H292 C276 0.931 . S
H293 C281 0.930 . S
H294 C282 0.956 . S
H295 C282 0.961 . S
H296 C282 0.961 . S
H297 C283 0.958 . S
H298 C283 0.961 . S
H299 C283 0.960 . S
C300 C301 1.391 . S
C300 C302 1.394 . S
C300 H316 0.931 . S
C301 C300 1.391 . S
C301 C305 1.376 . S
C302 C300 1.394 . S
C302 C303 1.369 . S
C302 C306 1.531 . S
C303 C302 1.369 . S
C303 C304 1.410 . S
C303 C311 1.503 . S
C304 C303 1.410 . S
C304 C305 1.392 . S
C304 C307 1.511 . S
C305 C301 1.376 . S
C305 C304 1.392 . S
C305 H317 0.929 . S
C306 C302 1.531 . S
C306 H318 0.960 . S
C306 H319 0.962 . S
C306 H320 0.960 . S
C307 C304 1.511 . S
C307 H321 0.961 . S
C307 H322 0.961 . S
C307 H323 0.961 . S
C308 C309 1.370 . S
C308 C310 1.363 . S
C308 H324 0.931 . S
C309 C308 1.370 . S
C309 C313 1.408 . S
C310 C308 1.363 . S
C310 C311 1.370 . S
C310 C314 1.524 . S
C311 C303 1.503 . S
C311 C310 1.370 . S
C311 C312 1.403 . S
C312 C311 1.403 . S
C312 C313 1.404 . S
C312 C315 1.539 . S
C313 C309 1.408 . S
C313 C312 1.404 . S
C313 H325 0.930 . S
C314 C310 1.524 . S
C314 H326 0.956 . S
C314 H327 0.961 . S
C314 H328 0.961 . S
C315 C312 1.539 . S
C315 H329 0.958 . S
C315 H330 0.961 . S
C315 H331 0.960 . S
H316 C300 0.931 . S
H317 C305 0.929 . S
H318 C306 0.960 . S
H319 C306 0.962 . S
H320 C306 0.960 . S
H321 C307 0.961 . S
H322 C307 0.961 . S
H323 C307 0.961 . S
H324 C308 0.931 . S
H325 C313 0.930 . S
H326 C314 0.956 . S
H327 C314 0.961 . S
H328 C314 0.961 . S
H329 C315 0.958 . S
H330 C315 0.961 . S
H331 C315 0.960 . S
C332 C333 1.391 . S
C332 C334 1.394 . S
C332 H348 0.946 . S
C333 C332 1.391 . S
C333 C337 1.376 . S
C334 C332 1.394 . S
C334 C335 1.369 . S
C334 C338 1.531 . S
C335 C334 1.369 . S
C335 C336 1.410 . S
C335 C343 1.503 . S
C336 C335 1.410 . S
C336 C337 1.392 . S
C336 C339 1.511 . S
C337 C333 1.376 . S
C337 C336 1.392 . S
C337 H349 0.929 . S
C338 C334 1.531 . S
C338 H350 0.960 . S
C338 H351 0.962 . S
C338 H352 0.960 1_556 S
C339 C336 1.511 . S
C339 H353 0.961 . S
C339 H354 0.961 . S
C339 H355 0.961 . S
C340 C341 1.370 . S
C340 C342 1.363 . S
C340 H356 0.931 . S
C341 C340 1.370 . S
C341 C345 1.408 . S
C342 C340 1.363 . S
C342 C343 1.370 . S
C342 C346 1.524 . S
C343 C335 1.503 . S
C343 C342 1.370 . S
C343 C344 1.403 . S
C344 C343 1.403 . S
C344 C345 1.404 . S
C344 C347 1.539 . S
C345 C341 1.408 . S
C345 C344 1.404 . S
C345 H357 0.930 . S
C346 C342 1.524 . S
C346 H358 0.956 . S
C346 H359 0.961 . S
C346 H360 0.961 . S
C347 C344 1.539 . S
C347 H361 0.958 . S
C347 H362 0.961 . S
C347 H363 0.960 . S
H348 C332 0.946 . S
H349 C337 0.929 . S
H350 C338 0.960 . S
H351 C338 0.962 . S
H352 C338 0.960 1_554 S
H353 C339 0.961 . S
H354 C339 0.961 . S
H355 C339 0.961 . S
H356 C340 0.931 . S
H357 C345 0.930 . S
H358 C346 0.956 . S
H359 C346 0.961 . S
H360 C346 0.961 . S
H361 C347 0.958 . S
H362 C347 0.961 . S
H363 C347 0.960 . S
C364 C365 1.391 . S
C364 C366 1.394 . S
C364 H380 0.931 . S
C365 C364 1.391 . S
C365 C369 1.376 . S
C366 C364 1.394 . S
C366 C367 1.369 . S
C366 C370 1.531 . S
C367 C366 1.369 . S
C367 C368 1.410 . S
C367 C375 1.503 . S
C368 C367 1.410 . S
C368 C369 1.392 . S
C368 C371 1.511 . S
C369 C365 1.376 . S
C369 C368 1.392 . S
C369 H381 0.929 . S
C370 C366 1.531 . S
C370 H382 0.960 . S
C370 H383 0.962 . S
C370 H384 0.960 . S
C371 C368 1.511 . S
C371 H385 0.961 . S
C371 H386 0.961 . S
C371 H387 0.961 . S
C372 C373 1.370 . S
C372 C374 1.363 . S
C372 H388 0.931 . S
C373 C372 1.370 . S
C373 C377 1.408 . S
C374 C372 1.363 . S
C374 C375 1.370 . S
C374 C378 1.524 . S
C375 C367 1.503 . S
C375 C374 1.370 . S
C375 C376 1.403 . S
C376 C375 1.403 . S
C376 C377 1.404 . S
C376 C379 1.539 . S
C377 C373 1.408 . S
C377 C376 1.404 . S
C377 H389 0.930 . S
C378 C374 1.524 . S
C378 H390 0.956 . S
C378 H391 0.961 . S
C378 H392 0.961 . S
C379 C376 1.539 . S
C379 H393 0.958 . S
C379 H394 0.961 . S
C379 H395 0.960 . S
H380 C364 0.931 . S
H381 C369 0.929 . S
H382 C370 0.960 . S
H383 C370 0.962 . S
H384 C370 0.960 . S
H385 C371 0.961 . S
H386 C371 0.961 . S
H387 C371 0.961 . S
H388 C372 0.931 . S
H389 C377 0.930 . S
H390 C378 0.956 . S
H391 C378 0.961 . S
H392 C378 0.961 . S
H393 C379 0.958 . S
H394 C379 0.961 . S
H395 C379 0.960 . S
C396 C397 1.391 . S
C396 C398 1.394 . S
C396 H412 0.931 . S
C397 C396 1.391 . S
C397 C401 1.376 . S
C398 C396 1.394 . S
C398 C399 1.369 . S
C398 C402 1.531 . S
C399 C398 1.369 . S
C399 C400 1.410 . S
C399 C407 1.503 . S
C400 C399 1.410 . S
C400 C401 1.392 . S
C400 C403 1.511 . S
C401 C397 1.376 . S
C401 C400 1.392 . S
C401 H413 0.929 . S
C402 C398 1.531 . S
C402 H414 0.960 . S
C402 H415 0.962 . S
C402 H416 0.960 . S
C403 C400 1.511 . S
C403 H417 0.961 . S
C403 H418 0.961 . S
C403 H419 0.961 . S
C404 C405 1.370 . S
C404 C406 1.363 . S
C404 H420 0.931 . S
C405 C404 1.370 . S
C405 C409 1.408 . S
C406 C404 1.363 . S
C406 C407 1.370 . S
C406 C410 1.524 . S
C407 C399 1.503 . S
C407 C406 1.370 . S
C407 C408 1.403 . S
C408 C407 1.403 . S
C408 C409 1.404 . S
C408 C411 1.539 . S
C409 C405 1.408 . S
C409 C408 1.404 . S
C409 H421 0.930 . S
C410 C406 1.524 . S
C410 H422 0.956 . S
C410 H423 0.961 . S
C410 H424 0.961 . S
C411 C408 1.539 . S
C411 H425 0.958 . S
C411 H426 0.961 . S
C411 H427 0.960 . S
H412 C396 0.931 . S
H413 C401 0.929 . S
H414 C402 0.960 . S
H415 C402 0.962 . S
H416 C402 0.960 . S
H417 C403 0.961 . S
H418 C403 0.961 . S
H419 C403 0.961 . S
H420 C404 0.931 . S
H421 C409 0.930 . S
H422 C410 0.956 . S
H423 C410 0.961 . S
H424 C410 0.961 . S
H425 C411 0.958 . S
H426 C411 0.961 . S
H427 C411 0.960 . S
C428 C429 1.391 . S
C428 C430 1.394 . S
C428 H444 0.931 . S
C429 C428 1.391 . S
C429 C433 1.376 . S
C430 C428 1.394 . S
C430 C431 1.369 . S
C430 C434 1.531 . S
C431 C430 1.369 . S
C431 C432 1.410 . S
C431 C439 1.503 . S
C432 C431 1.410 . S
C432 C433 1.392 . S
C432 C435 1.511 . S
C433 C429 1.376 . S
C433 C432 1.392 . S
C433 H445 0.929 . S
C434 C430 1.531 . S
C434 H446 0.960 . S
C434 H447 0.962 . S
C434 H448 0.960 . S
C435 C432 1.511 . S
C435 H449 0.961 . S
C435 H450 0.961 . S
C435 H451 0.961 . S
C436 C437 1.370 . S
C436 C438 1.363 . S
C436 H452 0.931 . S
C437 C436 1.370 . S
C437 C441 1.408 . S
C438 C436 1.363 . S
C438 C439 1.370 . S
C438 C442 1.524 . S
C439 C431 1.503 . S
C439 C438 1.370 . S
C439 C440 1.403 . S
C440 C439 1.403 . S
C440 C441 1.404 . S
C440 C443 1.539 . S
C441 C437 1.408 . S
C441 C440 1.404 . S
C441 H453 0.930 . S
C442 C438 1.524 . S
C442 H454 0.956 . S
C442 H455 0.961 . S
C442 H456 0.961 . S
C443 C440 1.539 . S
C443 H457 0.958 . S
C443 H458 0.961 . S
C443 H459 0.960 . S
H444 C428 0.931 . S
H445 C433 0.929 . S
H446 C434 0.960 . S
H447 C434 0.962 . S
H448 C434 0.960 . S
H449 C435 0.961 . S
H450 C435 0.961 . S
H451 C435 0.961 . S
H452 C436 0.931 . S
H453 C441 0.930 . S
H454 C442 0.956 . S
H455 C442 0.961 . S
H456 C442 0.961 . S
H457 C443 0.958 . S
H458 C443 0.961 . S
H459 C443 0.960 . S
C460 C461 1.391 . S
C460 C462 1.394 . S
C460 H476 0.931 . S
C461 C460 1.391 . S
C461 C465 1.376 . S
C462 C460 1.394 . S
C462 C463 1.369 . S
C462 C466 1.531 . S
C463 C462 1.369 . S
C463 C464 1.410 . S
C463 C471 1.503 . S
C464 C463 1.410 . S
C464 C465 1.392 . S
C464 C467 1.511 . S
C465 C461 1.376 . S
C465 C464 1.392 . S
C465 H477 0.929 . S
C466 C462 1.531 . S
C466 H478 0.960 . S
C466 H479 0.962 . S
C466 H480 0.960 . S
C467 C464 1.511 . S
C467 H481 0.961 . S
C467 H482 0.961 . S
C467 H483 0.961 . S
C468 C469 1.370 . S
C468 C470 1.363 . S
C468 H484 0.931 . S
C469 C468 1.370 . S
C469 C473 1.408 . S
C470 C468 1.363 . S
C470 C471 1.370 . S
C470 C474 1.524 . S
C471 C463 1.503 . S
C471 C470 1.370 . S
C471 C472 1.403 . S
C472 C471 1.403 . S
C472 C473 1.404 . S
C472 C475 1.539 . S
C473 C469 1.408 . S
C473 C472 1.404 . S
C473 H485 0.930 . S
C474 C470 1.524 . S
C474 H486 0.956 . S
C474 H487 0.961 . S
C474 H488 0.961 . S
C475 C472 1.539 . S
C475 H489 0.958 . S
C475 H490 0.961 . S
C475 H491 0.960 . S
H476 C460 0.931 . S
H477 C465 0.929 . S
H478 C466 0.960 . S
H479 C466 0.962 . S
H480 C466 0.960 . S
H481 C467 0.961 . S
H482 C467 0.961 . S
H483 C467 0.961 . S
H484 C468 0.931 . S
H485 C473 0.930 . S
H486 C474 0.956 . S
H487 C474 0.961 . S
H488 C474 0.961 . S
H489 C475 0.958 . S
H490 C475 0.961 . S
H491 C475 0.960 . S
C492 C493 1.391 1_556 S
C492 C494 1.394 1_556 S
C492 H508 0.931 . S
C493 C492 1.391 1_554 S
C493 C497 1.376 . S
C494 C492 1.394 1_554 S
C494 C495 1.369 . S
C494 C498 1.531 1_554 S
C495 C494 1.369 . S
C495 C496 1.410 . S
C495 C503 1.503 . S
C496 C495 1.410 . S
C496 C497 1.392 . S
C496 C499 1.511 . S
C497 C493 1.376 . S
C497 C496 1.392 . S
C497 H509 0.929 . S
C498 C494 1.531 1_556 S
C498 H510 0.960 . S
C498 H511 0.962 1_556 S
C498 H512 0.960 . S
C499 C496 1.511 . S
C499 H513 0.961 . S
C499 H514 0.961 . S
C499 H515 0.961 . S
C500 C501 1.370 . S
C500 C502 1.363 . S
C500 H516 0.931 . S
C501 C500 1.370 . S
C501 C505 1.408 . S
C502 C500 1.363 . S
C502 C503 1.370 . S
C502 C506 1.524 . S
C503 C495 1.503 . S
C503 C502 1.370 . S
C503 C504 1.403 . S
C504 C503 1.403 . S
C504 C505 1.404 . S
C504 C507 1.539 1_554 S
C505 C501 1.408 . S
C505 C504 1.404 . S
C505 H517 0.930 . S
C506 C502 1.524 . S
C506 H518 0.956 . S
C506 H519 0.961 . S
C506 H520 0.961 . S
C507 C504 1.539 1_556 S
C507 H521 0.958 . S
C507 H522 0.961 . S
C507 H523 0.960 . S
H508 C492 0.931 . S
H509 C497 0.929 . S
H510 C498 0.960 . S
H511 C498 0.962 1_554 S
H512 C498 0.960 . S
H513 C499 0.961 . S
H514 C499 0.961 . S
H515 C499 0.961 . S
H516 C500 0.931 . S
H517 C505 0.930 . S
H518 C506 0.956 . S
H519 C506 0.961 . S
H520 C506 0.961 . S
H521 C507 0.958 . S
H522 C507 0.961 . S
H523 C507 0.960 . S
C524 C525 1.391 . S
C524 C526 1.394 . S
C524 H540 0.931 . S
C525 C524 1.391 . S
C525 C529 1.376 . S
C526 C524 1.394 . S
C526 C527 1.369 . S
C526 C530 1.531 . S
C527 C526 1.369 . S
C527 C528 1.410 . S
C527 C535 1.503 . S
C528 C527 1.410 . S
C528 C529 1.392 . S
C528 C531 1.511 . S
C529 C525 1.376 . S
C529 C528 1.392 . S
C529 H541 0.929 . S
C530 C526 1.531 . S
C530 H542 0.960 . S
C530 H543 0.962 . S
C530 H544 0.960 . S
C531 C528 1.511 . S
C531 H545 0.961 . S
C531 H546 0.961 . S
C531 H547 0.961 . S
C532 C533 1.370 . S
C532 C534 1.363 . S
C532 H548 0.931 . S
C533 C532 1.370 . S
C533 C537 1.408 . S
C534 C532 1.363 . S
C534 C535 1.370 . S
C534 C538 1.524 . S
C535 C527 1.503 . S
C535 C534 1.370 . S
C535 C536 1.403 . S
C536 C535 1.403 . S
C536 C537 1.404 . S
C536 C539 1.539 . S
C537 C533 1.408 . S
C537 C536 1.404 . S
C537 H549 0.930 . S
C538 C534 1.524 . S
C538 H550 0.956 . S
C538 H551 0.961 . S
C538 H552 0.961 . S
C539 C536 1.539 . S
C539 H553 0.958 . S
C539 H554 0.961 . S
C539 H555 0.960 . S
H540 C524 0.931 . S
H541 C529 0.929 . S
H542 C530 0.960 . S
H543 C530 0.962 . S
H544 C530 0.960 . S
H545 C531 0.961 . S
H546 C531 0.961 . S
H547 C531 0.961 . S
H548 C532 0.931 . S
H549 C537 0.930 . S
H550 C538 0.956 . S
H551 C538 0.961 . S
H552 C538 0.961 . S
H553 C539 0.958 . S
H554 C539 0.961 . S
H555 C539 0.960 . S
C556 C557 1.391 . S
C556 C558 1.394 . S
C556 H572 0.931 . S
C557 C556 1.391 . S
C557 C561 1.376 . S
C558 C556 1.394 . S
C558 C559 1.369 . S
C558 C562 1.531 . S
C559 C558 1.369 . S
C559 C560 1.410 . S
C559 C567 1.503 . S
C560 C559 1.410 . S
C560 C561 1.392 . S
C560 C563 1.511 . S
C561 C557 1.376 . S
C561 C560 1.392 . S
C561 H573 0.929 . S
C562 C558 1.531 . S
C562 H574 0.960 . S
C562 H575 0.962 . S
C562 H576 0.960 . S
C563 C560 1.511 . S
C563 H577 0.961 . S
C563 H578 0.961 . S
C563 H579 0.961 . S
C564 C565 1.370 . S
C564 C566 1.363 . S
C564 H580 0.931 . S
C565 C564 1.370 . S
C565 C569 1.408 . S
C566 C564 1.363 . S
C566 C567 1.370 . S
C566 C570 1.524 . S
C567 C559 1.503 . S
C567 C566 1.370 . S
C567 C568 1.403 . S
C568 C567 1.403 . S
C568 C569 1.404 . S
C568 C571 1.539 . S
C569 C565 1.408 . S
C569 C568 1.404 . S
C569 H581 0.930 . S
C570 C566 1.524 . S
C570 H582 0.956 . S
C570 H583 0.961 . S
C570 H584 0.961 . S
C571 C568 1.539 . S
C571 H585 0.958 . S
C571 H586 0.961 . S
C571 H587 0.960 . S
H572 C556 0.931 . S
H573 C561 0.929 . S
H574 C562 0.960 . S
H575 C562 0.962 . S
H576 C562 0.960 . S
H577 C563 0.961 . S
H578 C563 0.961 . S
H579 C563 0.961 . S
H580 C564 0.931 . S
H581 C569 0.930 . S
H582 C570 0.956 . S
H583 C570 0.961 . S
H584 C570 0.961 . S
H585 C571 0.958 . S
H586 C571 0.961 . S
H587 C571 0.960 . S
C588 C589 1.391 . S
C588 C590 1.394 . S
C588 H604 0.931 . S
C589 C588 1.391 . S
C589 C593 1.376 . S
C590 C588 1.394 . S
C590 C591 1.369 . S
C590 C594 1.531 . S
C591 C590 1.369 . S
C591 C592 1.410 . S
C591 C599 1.503 . S
C592 C591 1.410 . S
C592 C593 1.392 . S
C592 C595 1.511 . S
C593 C589 1.376 . S
C593 C592 1.392 . S
C593 H605 0.929 . S
C594 C590 1.531 . S
C594 H606 0.960 . S
C594 H607 0.962 . S
C594 H608 0.960 . S
C595 C592 1.511 . S
C595 H609 0.961 . S
C595 H610 0.961 . S
C595 H611 0.961 . S
C596 C597 1.370 . S
C596 C598 1.363 . S
C596 H612 0.931 . S
C597 C596 1.370 . S
C597 C601 1.408 . S
C598 C596 1.363 . S
C598 C599 1.370 . S
C598 C602 1.524 . S
C599 C591 1.503 . S
C599 C598 1.370 . S
C599 C600 1.403 . S
C600 C599 1.403 . S
C600 C601 1.404 . S
C600 C603 1.539 . S
C601 C597 1.408 . S
C601 C600 1.404 . S
C601 H613 0.930 . S
C602 C598 1.524 . S
C602 H614 0.956 . S
C602 H615 0.961 . S
C602 H616 0.961 . S
C603 C600 1.539 . S
C603 H617 0.958 . S
C603 H618 0.961 . S
C603 H619 0.960 . S
H604 C588 0.931 . S
H605 C593 0.929 . S
H606 C594 0.960 . S
H607 C594 0.962 . S
H608 C594 0.960 . S
H609 C595 0.961 . S
H610 C595 0.961 . S
H611 C595 0.961 . S
H612 C596 0.931 . S
H613 C601 0.930 . S
H614 C602 0.956 . S
H615 C602 0.961 . S
H616 C602 0.961 . S
H617 C603 0.958 . S
H618 C603 0.961 . S
H619 C603 0.960 . S
C620 C621 1.391 . S
C620 C622 1.394 . S
C620 H636 0.931 . S
C621 C620 1.391 . S
C621 C625 1.376 . S
C622 C620 1.394 . S
C622 C623 1.369 . S
C622 C626 1.531 . S
C623 C622 1.369 . S
C623 C624 1.410 . S
C623 C631 1.503 . S
C624 C623 1.410 . S
C624 C625 1.392 . S
C624 C627 1.511 . S
C625 C621 1.376 . S
C625 C624 1.392 . S
C625 H637 0.929 . S
C626 C622 1.531 . S
C626 H638 0.960 . S
C626 H639 0.962 . S
C626 H640 0.960 . S
C627 C624 1.511 . S
C627 H641 0.961 . S
C627 H642 0.961 . S
C627 H643 0.961 . S
C628 C629 1.370 . S
C628 C630 1.363 . S
C628 H644 0.931 . S
C629 C628 1.370 . S
C629 C633 1.408 . S
C630 C628 1.363 . S
C630 C631 1.370 . S
C630 C634 1.524 . S
C631 C623 1.503 . S
C631 C630 1.370 . S
C631 C632 1.403 . S
C632 C631 1.403 . S
C632 C633 1.404 . S
C632 C635 1.539 . S
C633 C629 1.408 . S
C633 C632 1.404 . S
C633 H645 0.930 . S
C634 C630 1.524 . S
C634 H646 0.956 . S
C634 H647 0.961 . S
C634 H648 0.961 . S
C635 C632 1.539 . S
C635 H649 0.958 . S
C635 H650 0.961 . S
C635 H651 0.960 . S
H636 C620 0.931 . S
H637 C625 0.929 . S
H638 C626 0.960 . S
H639 C626 0.962 . S
H640 C626 0.960 . S
H641 C627 0.961 . S
H642 C627 0.961 . S
H643 C627 0.961 . S
H644 C628 0.931 . S
H645 C633 0.930 . S
H646 C634 0.956 . S
H647 C634 0.961 . S
H648 C634 0.961 . S
H649 C635 0.958 . S
H650 C635 0.961 . S
H651 C635 0.960 . S
C652 C653 1.391 . S
C652 C654 1.394 . S
C652 H668 0.931 . S
C653 C652 1.391 . S
C653 C657 1.376 . S
C654 C652 1.394 . S
C654 C655 1.369 . S
C654 C658 1.531 . S
C655 C654 1.369 . S
C655 C656 1.410 . S
C655 C663 1.503 . S
C656 C655 1.410 . S
C656 C657 1.392 . S
C656 C659 1.511 . S
C657 C653 1.376 . S
C657 C656 1.392 . S
C657 H669 0.929 . S
C658 C654 1.531 . S
C658 H670 0.960 . S
C658 H671 0.962 . S
C658 H672 0.960 . S
C659 C656 1.511 . S
C659 H673 0.961 . S
C659 H674 0.961 . S
C659 H675 0.961 . S
C660 C661 1.370 . S
C660 C662 1.363 . S
C660 H676 0.931 . S
C661 C660 1.370 . S
C661 C665 1.408 . S
C662 C660 1.363 . S
C662 C663 1.370 . S
C662 C666 1.524 . S
C663 C655 1.503 . S
C663 C662 1.370 . S
C663 C664 1.403 . S
C664 C663 1.403 . S
C664 C665 1.404 . S
C664 C667 1.539 . S
C665 C661 1.408 . S
C665 C664 1.404 . S
C665 H677 0.930 . S
C666 C662 1.524 . S
C666 H678 0.956 . S
C666 H679 0.961 . S
C666 H680 0.961 . S
C667 C664 1.539 . S
C667 H681 0.958 . S
C667 H682 0.961 . S
C667 H683 0.960 . S
H668 C652 0.931 . S
H669 C657 0.929 . S
H670 C658 0.960 . S
H671 C658 0.962 . S
H672 C658 0.960 . S
H673 C659 0.961 . S
H674 C659 0.961 . S
H675 C659 0.961 . S
H676 C660 0.931 . S
H677 C665 0.930 . S
H678 C666 0.956 . S
H679 C666 0.961 . S
H680 C666 0.961 . S
H681 C667 0.958 . S
H682 C667 0.961 . S
H683 C667 0.960 . S
C684 C685 1.391 . S
C684 C686 1.394 . S
C684 H700 0.931 . S
C685 C684 1.391 . S
C685 C689 1.376 . S
C686 C684 1.394 . S
C686 C687 1.369 . S
C686 C690 1.531 . S
C687 C686 1.369 . S
C687 C688 1.410 . S
C687 C695 1.503 . S
C688 C687 1.410 . S
C688 C689 1.392 . S
C688 C691 1.511 . S
C689 C685 1.376 . S
C689 C688 1.392 . S
C689 H701 0.929 . S
C690 C686 1.531 . S
C690 H702 0.960 . S
C690 H703 0.962 . S
C690 H704 0.960 . S
C691 C688 1.511 . S
C691 H705 0.961 . S
C691 H706 0.961 . S
C691 H707 0.961 . S
C692 C693 1.370 . S
C692 C694 1.363 . S
C692 H708 0.931 1_556 S
C693 C692 1.370 . S
C693 C697 1.408 . S
C694 C692 1.363 . S
C694 C695 1.370 . S
C694 C698 1.524 . S
C695 C687 1.503 . S
C695 C694 1.370 . S
C695 C696 1.403 . S
C696 C695 1.403 . S
C696 C697 1.404 . S
C696 C699 1.539 . S
C697 C693 1.408 . S
C697 C696 1.404 . S
C697 H709 0.930 . S
C698 C694 1.524 . S
C698 H710 0.956 . S
C698 H711 0.961 . S
C698 H712 0.961 . S
C699 C696 1.539 . S
C699 H713 0.958 . S
C699 H714 0.961 . S
C699 H715 0.960 . S
H700 C684 0.931 . S
H701 C689 0.929 . S
H702 C690 0.960 . S
H703 C690 0.962 . S
H704 C690 0.960 . S
H705 C691 0.961 . S
H706 C691 0.961 . S
H707 C691 0.961 . S
H708 C692 0.931 1_554 S
H709 C697 0.930 . S
H710 C698 0.956 . S
H711 C698 0.961 . S
H712 C698 0.961 . S
H713 C699 0.958 . S
H714 C699 0.961 . S
H715 C699 0.960 . S
C716 C717 1.391 . S
C716 C718 1.394 . S
C716 H732 0.931 . S
C717 C716 1.391 . S
C717 C721 1.376 . S
C718 C716 1.394 . S
C718 C719 1.369 . S
C718 C722 1.531 . S
C719 C718 1.369 . S
C719 C720 1.410 . S
C719 C727 1.503 . S
C720 C719 1.410 . S
C720 C721 1.392 . S
C720 C723 1.511 . S
C721 C717 1.376 . S
C721 C720 1.392 . S
C721 H733 0.929 . S
C722 C718 1.531 . S
C722 H734 0.960 . S
C722 H735 0.962 . S
C722 H736 0.960 . S
C723 C720 1.511 . S
C723 H737 0.961 . S
C723 H738 0.961 . S
C723 H739 0.961 . S
C724 C725 1.370 . S
C724 C726 1.363 . S
C724 H740 0.931 . S
C725 C724 1.370 . S
C725 C729 1.408 . S
C726 C724 1.363 . S
C726 C727 1.370 . S
C726 C730 1.524 . S
C727 C719 1.503 . S
C727 C726 1.370 . S
C727 C728 1.403 . S
C728 C727 1.403 . S
C728 C729 1.404 . S
C728 C731 1.539 . S
C729 C725 1.408 . S
C729 C728 1.404 . S
C729 H741 0.930 . S
C730 C726 1.524 . S
C730 H742 0.956 . S
C730 H743 0.961 . S
C730 H744 0.961 . S
C731 C728 1.539 . S
C731 H745 0.958 . S
C731 H746 0.961 . S
C731 H747 0.960 . S
H732 C716 0.931 . S
H733 C721 0.929 . S
H734 C722 0.960 . S
H735 C722 0.962 . S
H736 C722 0.960 . S
H737 C723 0.961 . S
H738 C723 0.961 . S
H739 C723 0.961 . S
H740 C724 0.931 . S
H741 C729 0.930 . S
H742 C730 0.956 . S
H743 C730 0.961 . S
H744 C730 0.961 . S
H745 C731 0.958 . S
H746 C731 0.961 . S
H747 C731 0.960 . S
C748 C749 1.391 . S
C748 C750 1.394 . S
C748 H764 0.931 . S
C749 C748 1.391 . S
C749 C753 1.376 . S
C750 C748 1.394 . S
C750 C751 1.369 . S
C750 C754 1.531 . S
C751 C750 1.369 . S
C751 C752 1.410 . S
C751 C759 1.503 . S
C752 C751 1.410 . S
C752 C753 1.392 . S
C752 C755 1.511 . S
C753 C749 1.376 . S
C753 C752 1.392 . S
C753 H765 0.929 . S
C754 C750 1.531 . S
C754 H766 0.960 . S
C754 H767 0.962 . S
C754 H768 0.960 . S
C755 C752 1.511 . S
C755 H769 0.961 . S
C755 H770 0.961 . S
C755 H771 0.961 . S
C756 C757 1.370 . S
C756 C758 1.363 . S
C756 H772 0.931 . S
C757 C756 1.370 . S
C757 C761 1.408 . S
C758 C756 1.363 . S
C758 C759 1.370 . S
C758 C762 1.524 . S
C759 C751 1.503 . S
C759 C758 1.370 . S
C759 C760 1.403 . S
C760 C759 1.403 . S
C760 C761 1.404 . S
C760 C763 1.539 . S
C761 C757 1.408 . S
C761 C760 1.404 . S
C761 H773 0.930 . S
C762 C758 1.524 . S
C762 H774 0.956 . S
C762 H775 0.961 . S
C762 H776 0.961 . S
C763 C760 1.539 . S
C763 H777 0.958 . S
C763 H778 0.961 . S
C763 H779 0.960 . S
H764 C748 0.931 . S
H765 C753 0.929 . S
H766 C754 0.960 . S
H767 C754 0.962 . S
H768 C754 0.960 . S
H769 C755 0.961 . S
H770 C755 0.961 . S
H771 C755 0.961 . S
H772 C756 0.931 . S
H773 C761 0.930 . S
H774 C762 0.956 . S
H775 C762 0.961 . S
H776 C762 0.961 . S
H777 C763 0.958 . S
H778 C763 0.961 . S
H779 C763 0.960 . S
C780 C781 1.391 . S
C780 C782 1.394 . S
C780 H796 0.931 . S
C781 C780 1.391 . S
C781 C785 1.376 . S
C782 C780 1.394 . S
C782 C783 1.369 . S
C782 C786 1.531 . S
C783 C782 1.369 . S
C783 C784 1.410 . S
C783 C791 1.503 . S
C784 C783 1.410 . S
C784 C785 1.392 . S
C784 C787 1.511 . S
C785 C781 1.376 . S
C785 C784 1.392 . S
C785 H797 0.929 . S
C786 C782 1.531 . S
C786 H798 0.960 . S
C786 H799 0.962 . S
C786 H800 0.960 . S
C787 C784 1.511 . S
C787 H801 0.961 . S
C787 H802 0.961 . S
C787 H803 0.961 . S
C788 C789 1.370 . S
C788 C790 1.363 . S
C788 H804 0.931 . S
C789 C788 1.370 . S
C789 C793 1.408 . S
C790 C788 1.363 . S
C790 C791 1.370 . S
C790 C794 1.524 . S
C791 C783 1.503 . S
C791 C790 1.370 . S
C791 C792 1.403 . S
C792 C791 1.403 . S
C792 C793 1.404 . S
C792 C795 1.539 . S
C793 C789 1.408 . S
C793 C792 1.404 . S
C793 H805 0.930 . S
C794 C790 1.524 . S
C794 H806 0.956 . S
C794 H807 0.961 . S
C794 H808 0.961 . S
C795 C792 1.539 . S
C795 H809 0.958 . S
C795 H810 0.961 . S
C795 H811 0.960 . S
H796 C780 0.931 . S
H797 C785 0.929 . S
H798 C786 0.960 . S
H799 C786 0.962 . S
H800 C786 0.960 . S
H801 C787 0.961 . S
H802 C787 0.961 . S
H803 C787 0.961 . S
H804 C788 0.931 . S
H805 C793 0.930 . S
H806 C794 0.956 . S
H807 C794 0.961 . S
H808 C794 0.961 . S
H809 C795 0.958 . S
H810 C795 0.961 . S
H811 C795 0.960 . S
C812 C813 1.391 . S
C812 C814 1.394 . S
C812 H828 0.931 . S
C813 C812 1.391 . S
C813 C817 1.376 . S
C814 C812 1.394 . S
C814 C815 1.369 . S
C814 C818 1.531 . S
C815 C814 1.369 . S
C815 C816 1.410 . S
C815 C823 1.503 . S
C816 C815 1.410 . S
C816 C817 1.392 . S
C816 C819 1.511 . S
C817 C813 1.376 . S
C817 C816 1.392 . S
C817 H829 0.929 . S
C818 C814 1.531 . S
C818 H830 0.960 . S
C818 H831 0.962 . S
C818 H832 0.960 . S
C819 C816 1.511 . S
C819 H833 0.961 . S
C819 H834 0.961 . S
C819 H835 0.961 . S
C820 C821 1.370 . S
C820 C822 1.363 . S
C820 H836 0.931 . S
C821 C820 1.370 . S
C821 C825 1.408 . S
C822 C820 1.363 . S
C822 C823 1.370 . S
C822 C826 1.524 . S
C823 C815 1.503 . S
C823 C822 1.370 . S
C823 C824 1.403 . S
C824 C823 1.403 . S
C824 C825 1.404 . S
C824 C827 1.539 . S
C825 C821 1.408 . S
C825 C824 1.404 . S
C825 H837 0.930 . S
C826 C822 1.524 . S
C826 H838 0.956 . S
C826 H839 0.961 . S
C826 H840 0.961 . S
C827 C824 1.539 . S
C827 H841 0.958 . S
C827 H842 0.961 . S
C827 H843 0.960 . S
H828 C812 0.931 . S
H829 C817 0.929 . S
H830 C818 0.960 . S
H831 C818 0.962 . S
H832 C818 0.960 . S
H833 C819 0.961 . S
H834 C819 0.961 . S
H835 C819 0.961 . S
H836 C820 0.931 . S
H837 C825 0.930 . S
H838 C826 0.956 . S
H839 C826 0.961 . S
H840 C826 0.961 . S
H841 C827 0.958 . S
H842 C827 0.961 . S
H843 C827 0.960 . S
C844 C845 1.391 . S
C844 C846 1.394 . S
C844 H860 0.931 . S
C845 C844 1.391 . S
C845 C849 1.376 . S
C846 C844 1.394 . S
C846 C847 1.369 . S
C846 C850 1.531 . S
C847 C846 1.369 . S
C847 C848 1.410 . S
C847 C855 1.503 . S
C848 C847 1.410 . S
C848 C849 1.392 . S
C848 C851 1.511 . S
C849 C845 1.376 . S
C849 C848 1.392 . S
C849 H861 0.929 . S
C850 C846 1.531 . S
C850 H862 0.960 . S
C850 H863 0.962 . S
C850 H864 0.960 . S
C851 C848 1.511 . S
C851 H865 0.961 . S
C851 H866 0.961 . S
C851 H867 0.961 . S
C852 C853 1.370 . S
C852 C854 1.363 . S
C852 H868 0.931 . S
C853 C852 1.370 . S
C853 C857 1.408 . S
C854 C852 1.363 . S
C854 C855 1.370 . S
C854 C858 1.524 . S
C855 C847 1.503 . S
C855 C854 1.370 . S
C855 C856 1.403 . S
C856 C855 1.403 . S
C856 C857 1.404 . S
C856 C859 1.539 . S
C857 C853 1.408 . S
C857 C856 1.404 . S
C857 H869 0.930 . S
C858 C854 1.524 . S
C858 H870 0.956 . S
C858 H871 0.961 . S
C858 H872 0.961 . S
C859 C856 1.539 . S
C859 H873 0.958 . S
C859 H874 0.961 . S
C859 H875 0.960 . S
H860 C844 0.931 . S
H861 C849 0.929 . S
H862 C850 0.960 . S
H863 C850 0.962 . S
H864 C850 0.960 . S
H865 C851 0.961 . S
H866 C851 0.961 . S
H867 C851 0.961 . S
H868 C852 0.931 . S
H869 C857 0.930 . S
H870 C858 0.956 . S
H871 C858 0.961 . S
H872 C858 0.961 . S
H873 C859 0.958 . S
H874 C859 0.961 . S
H875 C859 0.960 . S
C876 C877 1.391 . S
C876 C878 1.394 . S
C876 H892 0.931 . S
C877 C876 1.391 . S
C877 C881 1.376 . S
C878 C876 1.394 . S
C878 C879 1.369 . S
C878 C882 1.531 . S
C879 C878 1.369 . S
C879 C880 1.410 . S
C879 C887 1.503 . S
C880 C879 1.410 . S
C880 C881 1.392 . S
C880 C883 1.511 . S
C881 C877 1.376 . S
C881 C880 1.392 . S
C881 H893 0.929 . S
C882 C878 1.531 . S
C882 H894 0.960 . S
C882 H895 0.962 . S
C882 H896 0.960 . S
C883 C880 1.511 . S
C883 H897 0.961 . S
C883 H898 0.961 . S
C883 H899 0.961 . S
C884 C885 1.370 . S
C884 C886 1.363 . S
C884 H900 0.931 . S
C885 C884 1.370 . S
C885 C889 1.408 . S
C886 C884 1.363 . S
C886 C887 1.370 . S
C886 C890 1.524 . S
C887 C879 1.503 . S
C887 C886 1.370 . S
C887 C888 1.403 . S
C888 C887 1.403 . S
C888 C889 1.404 . S
C888 C891 1.539 . S
C889 C885 1.408 . S
C889 C888 1.404 . S
C889 H901 0.930 . S
C890 C886 1.524 . S
C890 H902 0.956 . S
C890 H903 0.961 . S
C890 H904 0.961 . S
C891 C888 1.539 . S
C891 H905 0.958 . S
C891 H906 0.961 . S
C891 H907 0.960 . S
H892 C876 0.931 . S
H893 C881 0.929 . S
H894 C882 0.960 . S
H895 C882 0.962 . S
H896 C882 0.960 . S
H897 C883 0.961 . S
H898 C883 0.961 . S
H899 C883 0.961 . S
H900 C884 0.931 . S
H901 C889 0.930 . S
H902 C890 0.956 . S
H903 C890 0.961 . S
H904 C890 0.961 . S
H905 C891 0.958 . S
H906 C891 0.961 . S
H907 C891 0.960 . S
C908 C909 1.391 . S
C908 C910 1.394 . S
C908 H924 0.931 . S
C909 C908 1.391 . S
C909 C913 1.376 . S
C910 C908 1.394 . S
C910 C911 1.369 . S
C910 C914 1.531 . S
C911 C910 1.369 . S
C911 C912 1.410 . S
C911 C919 1.503 . S
C912 C911 1.410 . S
C912 C913 1.392 . S
C912 C915 1.511 . S
C913 C909 1.376 . S
C913 C912 1.392 . S
C913 H925 0.929 . S
C914 C910 1.531 . S
C914 H926 0.960 . S
C914 H927 0.962 . S
C914 H928 0.960 . S
C915 C912 1.511 . S
C915 H929 0.961 . S
C915 H930 0.961 . S
C915 H931 0.961 . S
C916 C917 1.370 . S
C916 C918 1.363 . S
C916 H932 0.931 . S
C917 C916 1.370 . S
C917 C921 1.408 . S
C918 C916 1.363 . S
C918 C919 1.370 1_556 S
C918 C922 1.524 . S
C919 C911 1.503 . S
C919 C918 1.370 1_554 S
C919 C920 1.403 . S
C920 C919 1.403 . S
C920 C921 1.404 1_554 S
C920 C923 1.539 . S
C921 C917 1.408 . S
C921 C920 1.404 1_556 S
C921 H933 0.930 . S
C922 C918 1.524 . S
C922 H934 0.956 . S
C922 H935 0.961 . S
C922 H936 0.961 . S
C923 C920 1.539 . S
C923 H937 0.958 . S
C923 H938 0.961 . S
C923 H939 0.960 . S
H924 C908 0.931 . S
H925 C913 0.929 . S
H926 C914 0.960 . S
H927 C914 0.962 . S
H928 C914 0.960 . S
H929 C915 0.961 . S
H930 C915 0.961 . S
H931 C915 0.961 . S
H932 C916 0.931 . S
H933 C921 0.930 . S
H934 C922 0.956 . S
H935 C922 0.961 . S
H936 C922 0.961 . S
H937 C923 0.958 . S
H938 C923 0.961 . S
H939 C923 0.960 . S
C940 C941 1.391 . S
C940 C942 1.394 . S
C940 H956 0.931 . S
C941 C940 1.391 . S
C941 C945 1.376 . S
C942 C940 1.394 . S
C942 C943 1.369 . S
C942 C946 1.531 . S
C943 C942 1.369 . S
C943 C944 1.410 . S
C943 C951 1.503 . S
C944 C943 1.410 . S
C944 C945 1.392 . S
C944 C947 1.511 . S
C945 C941 1.376 . S
C945 C944 1.392 . S
C945 H957 0.929 . S
C946 C942 1.531 . S
C946 H958 0.960 . S
C946 H959 0.962 . S
C946 H960 0.960 . S
C947 C944 1.511 . S
C947 H961 0.961 . S
C947 H962 0.961 . S
C947 H963 0.961 . S
C948 C949 1.370 . S
C948 C950 1.363 . S
C948 H964 0.931 . S
C949 C948 1.370 . S
C949 C953 1.408 . S
C950 C948 1.363 . S
C950 C951 1.370 . S
C950 C954 1.524 . S
C951 C943 1.503 . S
C951 C950 1.370 . S
C951 C952 1.403 . S
C952 C951 1.403 . S
C952 C953 1.404 . S
C952 C955 1.539 . S
C953 C949 1.408 . S
C953 C952 1.404 . S
C953 H965 0.930 . S
C954 C950 1.524 . S
C954 H966 0.956 . S
C954 H967 0.961 . S
C954 H968 0.961 . S
C955 C952 1.539 . S
C955 H969 0.958 . S
C955 H970 0.961 . S
C955 H971 0.960 . S
H956 C940 0.931 . S
H957 C945 0.929 . S
H958 C946 0.960 . S
H959 C946 0.962 . S
H960 C946 0.960 . S
H961 C947 0.961 . S
H962 C947 0.961 . S
H963 C947 0.961 . S
H964 C948 0.931 . S
H965 C953 0.930 . S
H966 C954 0.956 . S
H967 C954 0.961 . S
H968 C954 0.961 . S
H969 C955 0.958 . S
H970 C955 0.961 . S
H971 C955 0.960 . S
C213 C201 1.565 . S
C205 C19 1.503 . S
C237 C40 1.418 . S
C245 C126 1.499 . S
C269 C51 1.450 . S
C277 C149 1.588 . S
C301 C72 1.348 . S
C309 C162 1.483 . S
C341 C165 1.503 . S
C333 C103 1.473 . S
C365 C114 1.369 . S
C373 C178 1.461 . S
C397 C30 1.400 . S
C405 C139 1.467 . S
C429 C61 1.446 . S
C437 C152 1.527 . S
C461 C82 1.420 . S
C469 C175 1.474 . S
C501 C188 1.582 . S
C493 C93 1.450 1_554 S
C533 C191 1.498 . S
C525 C124 1.418 . S
C565 C136 1.569 . S
C557 C9 1.435 . S
C589 C17 1.445 . S
C597 C147 1.475 . S
C621 C38 1.363 . S
C629 C160 1.457 . S
C661 C170 1.462 . S
C653 C54 1.410 . S
C685 C75 1.373 . S
C693 C183 1.450 1_556 S
C725 C199 1.471 . S
C717 C101 1.475 . S
C757 C131 1.446 . S
C749 C117 1.424 . S
C789 C196 1.441 . S
C781 C33 1.343 . S
C813 C59 1.403 . S
C821 C134 1.483 . S
C853 C144 1.454 . S
C845 C80 1.446 . S
C877 C96 1.377 . S
C885 C157 1.468 . S
C909 C122 1.375 . S
C917 C173 1.461 . S
C941 C12 1.390 . S
C949 C186 1.481 . S
