# Generated by pormake.
# Topology ctn, (3,4)-cn, num edge types: 1
# Building blocks:
#     Node 0, Type 0, BuildingBlock: BELTOD_clean_linker_0, # of connection points: 3
#     Node 1, Type 0, BuildingBlock: BELTOD_clean_linker_0, # of connection points: 3
#     Node 2, Type 0, BuildingBlock: BELTOD_clean_linker_0, # of connection points: 3
#     Node 3, Type 0, BuildingBlock: BELTOD_clean_linker_0, # of connection points: 3
#     Node 4, Type 0, BuildingBlock: BELTOD_clean_linker_0, # of connection points: 3
#     Node 5, Type 0, BuildingBlock: BELTOD_clean_linker_0, # of connection points: 3
#     Node 6, Type 0, BuildingBlock: BELTOD_clean_linker_0, # of connection points: 3
#     Node 7, Type 0, BuildingBlock: BELTOD_clean_linker_0, # of connection points: 3
#     Node 8, Type 0, BuildingBlock: BELTOD_clean_linker_0, # of connection points: 3
#     Node 9, Type 0, BuildingBlock: BELTOD_clean_linker_0, # of connection points: 3
#     Node 10, Type 0, BuildingBlock: BELTOD_clean_linker_0, # of connection points: 3
#     Node 11, Type 0, BuildingBlock: BELTOD_clean_linker_0, # of connection points: 3
#     Node 12, Type 0, BuildingBlock: BELTOD_clean_linker_0, # of connection points: 3
#     Node 13, Type 0, BuildingBlock: BELTOD_clean_linker_0, # of connection points: 3
#     Node 14, Type 0, BuildingBlock: BELTOD_clean_linker_0, # of connection points: 3
#     Node 15, Type 0, BuildingBlock: BELTOD_clean_linker_0, # of connection points: 3
#     Node 16, Type 1, BuildingBlock: UXUYUI_clean_sbu_0, # of connection points: 4
#     Node 17, Type 1, BuildingBlock: UXUYUI_clean_sbu_0, # of connection points: 4
#     Node 18, Type 1, BuildingBlock: UXUYUI_clean_sbu_0, # of connection points: 4
#     Node 19, Type 1, BuildingBlock: UXUYUI_clean_sbu_0, # of connection points: 4
#     Node 20, Type 1, BuildingBlock: UXUYUI_clean_sbu_0, # of connection points: 4
#     Node 21, Type 1, BuildingBlock: UXUYUI_clean_sbu_0, # of connection points: 4
#     Node 22, Type 1, BuildingBlock: UXUYUI_clean_sbu_0, # of connection points: 4
#     Node 23, Type 1, BuildingBlock: UXUYUI_clean_sbu_0, # of connection points: 4
#     Node 24, Type 1, BuildingBlock: UXUYUI_clean_sbu_0, # of connection points: 4
#     Node 25, Type 1, BuildingBlock: UXUYUI_clean_sbu_0, # of connection points: 4
#     Node 26, Type 1, BuildingBlock: UXUYUI_clean_sbu_0, # of connection points: 4
#     Node 27, Type 1, BuildingBlock: UXUYUI_clean_sbu_0, # of connection points: 4
#     Edge 28, Type (0, 1), BuildingBlock: MIFKUJ_clean_linker_0, # of connection points: 2
#     Edge 29, Type (0, 1), BuildingBlock: MIFKUJ_clean_linker_0, # of connection points: 2
#     Edge 30, Type (0, 1), BuildingBlock: MIFKUJ_clean_linker_0, # of connection points: 2
#     Edge 31, Type (0, 1), BuildingBlock: MIFKUJ_clean_linker_0, # of connection points: 2
#     Edge 32, Type (0, 1), BuildingBlock: MIFKUJ_clean_linker_0, # of connection points: 2
#     Edge 33, Type (0, 1), BuildingBlock: MIFKUJ_clean_linker_0, # of connection points: 2
#     Edge 34, Type (0, 1), BuildingBlock: MIFKUJ_clean_linker_0, # of connection points: 2
#     Edge 35, Type (0, 1), BuildingBlock: MIFKUJ_clean_linker_0, # of connection points: 2
#     Edge 36, Type (0, 1), BuildingBlock: MIFKUJ_clean_linker_0, # of connection points: 2
#     Edge 37, Type (0, 1), BuildingBlock: MIFKUJ_clean_linker_0, # of connection points: 2
#     Edge 38, Type (0, 1), BuildingBlock: MIFKUJ_clean_linker_0, # of connection points: 2
#     Edge 39, Type (0, 1), BuildingBlock: MIFKUJ_clean_linker_0, # of connection points: 2
#     Edge 40, Type (0, 1), BuildingBlock: MIFKUJ_clean_linker_0, # of connection points: 2
#     Edge 41, Type (0, 1), BuildingBlock: MIFKUJ_clean_linker_0, # of connection points: 2
#     Edge 42, Type (0, 1), BuildingBlock: MIFKUJ_clean_linker_0, # of connection points: 2
#     Edge 43, Type (0, 1), BuildingBlock: MIFKUJ_clean_linker_0, # of connection points: 2
#     Edge 44, Type (0, 1), BuildingBlock: MIFKUJ_clean_linker_0, # of connection points: 2
#     Edge 45, Type (0, 1), BuildingBlock: MIFKUJ_clean_linker_0, # of connection points: 2
#     Edge 46, Type (0, 1), BuildingBlock: MIFKUJ_clean_linker_0, # of connection points: 2
#     Edge 47, Type (0, 1), BuildingBlock: MIFKUJ_clean_linker_0, # of connection points: 2
#     Edge 48, Type (0, 1), BuildingBlock: MIFKUJ_clean_linker_0, # of connection points: 2
#     Edge 49, Type (0, 1), BuildingBlock: MIFKUJ_clean_linker_0, # of connection points: 2
#     Edge 50, Type (0, 1), BuildingBlock: MIFKUJ_clean_linker_0, # of connection points: 2
#     Edge 51, Type (0, 1), BuildingBlock: MIFKUJ_clean_linker_0, # of connection points: 2
#     Edge 52, Type (0, 1), BuildingBlock: MIFKUJ_clean_linker_0, # of connection points: 2
#     Edge 53, Type (0, 1), BuildingBlock: MIFKUJ_clean_linker_0, # of connection points: 2
#     Edge 54, Type (0, 1), BuildingBlock: MIFKUJ_clean_linker_0, # of connection points: 2
#     Edge 55, Type (0, 1), BuildingBlock: MIFKUJ_clean_linker_0, # of connection points: 2
#     Edge 56, Type (0, 1), BuildingBlock: MIFKUJ_clean_linker_0, # of connection points: 2
#     Edge 57, Type (0, 1), BuildingBlock: MIFKUJ_clean_linker_0, # of connection points: 2
#     Edge 58, Type (0, 1), BuildingBlock: MIFKUJ_clean_linker_0, # of connection points: 2
#     Edge 59, Type (0, 1), BuildingBlock: MIFKUJ_clean_linker_0, # of connection points: 2
#     Edge 60, Type (0, 1), BuildingBlock: MIFKUJ_clean_linker_0, # of connection points: 2
#     Edge 61, Type (0, 1), BuildingBlock: MIFKUJ_clean_linker_0, # of connection points: 2
#     Edge 62, Type (0, 1), BuildingBlock: MIFKUJ_clean_linker_0, # of connection points: 2
#     Edge 63, Type (0, 1), BuildingBlock: MIFKUJ_clean_linker_0, # of connection points: 2
#     Edge 64, Type (0, 1), BuildingBlock: MIFKUJ_clean_linker_0, # of connection points: 2
#     Edge 65, Type (0, 1), BuildingBlock: MIFKUJ_clean_linker_0, # of connection points: 2
#     Edge 66, Type (0, 1), BuildingBlock: MIFKUJ_clean_linker_0, # of connection points: 2
#     Edge 67, Type (0, 1), BuildingBlock: MIFKUJ_clean_linker_0, # of connection points: 2
#     Edge 68, Type (0, 1), BuildingBlock: MIFKUJ_clean_linker_0, # of connection points: 2
#     Edge 69, Type (0, 1), BuildingBlock: MIFKUJ_clean_linker_0, # of connection points: 2
#     Edge 70, Type (0, 1), BuildingBlock: MIFKUJ_clean_linker_0, # of connection points: 2
#     Edge 71, Type (0, 1), BuildingBlock: MIFKUJ_clean_linker_0, # of connection points: 2
#     Edge 72, Type (0, 1), BuildingBlock: MIFKUJ_clean_linker_0, # of connection points: 2
#     Edge 73, Type (0, 1), BuildingBlock: MIFKUJ_clean_linker_0, # of connection points: 2
#     Edge 74, Type (0, 1), BuildingBlock: MIFKUJ_clean_linker_0, # of connection points: 2
#     Edge 75, Type (0, 1), BuildingBlock: MIFKUJ_clean_linker_0, # of connection points: 2
# Relax obj value: 0.001
# Max RMSD: 0.018
# Mean RMSD: 0.012
data_MOF--net-ctn--node1-UXUYUI_clean_sbu_0--node2-BELTOD_clean_linker_0--edge1-MIFKUJ_clean_linker_0
_symmetry_space_group_name_H-M    P1
_symmetry_Int_Tables_number       1
_symmetry_cell_setting            triclinic
loop_
_symmetry_equiv_pos_as_xyz
'x, y, z'
_cell_length_a     92.314782
_cell_length_b     92.930704
_cell_length_c     92.163589
_cell_angle_alpha  89.389553
_cell_angle_beta   90.095807
_cell_angle_gamma 90.708991
loop_
_atom_site_label
_atom_site_type_symbol
_atom_site_fract_x
_atom_site_fract_y
_atom_site_fract_z
_atom_type_partial_charge
P0 P 0.05723 0.05404 0.05935 0.0
H1 H 0.04785 0.06498 0.08732 0.0
H2 H 0.0289 0.05752 0.10423 0.0
H3 H 0.01619 0.02324 0.07536 0.0
H4 H 0.03519 0.03099 0.05827 0.0
H5 H 0.08327 0.04208 0.07225 0.0
H6 H 0.0992 0.0226 0.06531 0.0
H7 H 0.07112 0.0129 0.02904 0.0
H8 H 0.055 0.03234 0.0363 0.0
H9 H 0.0306 0.07024 0.0544 0.0
H10 H 0.06886 0.05939 0.03029 0.0
O11 O 0.06796 0.06587 0.06782 0.0
H12 H 0.02302 0.08624 0.03473 0.0
H13 H 0.06111 0.07494 0.01033 0.0
C14 C 0.04308 0.04839 0.07165 0.0
C15 C 0.04106 0.05582 0.08462 0.0
C16 C 0.03023 0.0515 0.09433 0.0
C17 C 0.02113 0.03967 0.09124 0.0
C18 C 0.02299 0.03242 0.07805 0.0
C19 C 0.03389 0.03677 0.06832 0.0
C20 C 0.06818 0.0389 0.05455 0.0
C21 C 0.08052 0.03577 0.06281 0.0
C22 C 0.08966 0.02465 0.05878 0.0
C23 C 0.08659 0.01635 0.04645 0.0
C24 C 0.07381 0.01909 0.03858 0.0
C25 C 0.06464 0.03025 0.04265 0.0
C26 C 0.05012 0.06332 0.04368 0.0
C27 C 0.03714 0.07093 0.04468 0.0
C28 C 0.0328 0.08009 0.03338 0.0
C29 C 0.04146 0.08192 0.02091 0.0
C30 C 0.05425 0.07393 0.01982 0.0
C31 C 0.05861 0.06485 0.03116 0.0
P32 P 0.30706 0.69662 0.1993 0.0
H33 H 0.31957 0.70893 0.1729 0.0
H34 H 0.31255 0.72866 0.15697 0.0
H35 H 0.27696 0.73819 0.18565 0.0
H36 H 0.28374 0.71781 0.20122 0.0
H37 H 0.33127 0.68303 0.21402 0.0
H38 H 0.34692 0.69033 0.23397 0.0
H39 H 0.32205 0.7291 0.23884 0.0
H40 H 0.3067 0.72188 0.21843 0.0
H41 H 0.28899 0.67595 0.18412 0.0
H42 H 0.29018 0.69511 0.22651 0.0
O43 O 0.31704 0.68575 0.18916 0.0
H44 H 0.26863 0.66067 0.19156 0.0
H45 H 0.26946 0.6801 0.23399 0.0
C46 C 0.30206 0.71179 0.18813 0.0
C47 C 0.31023 0.71522 0.17575 0.0
C48 C 0.30627 0.72666 0.16671 0.0
C49 C 0.29417 0.73511 0.16998 0.0
C50 C 0.28619 0.7318 0.18263 0.0
C51 C 0.2901 0.72021 0.19161 0.0
C52 C 0.31801 0.70204 0.21454 0.0
C53 C 0.32921 0.69313 0.21933 0.0
C54 C 0.33808 0.69727 0.23088 0.0
C55 C 0.3358 0.71034 0.23805 0.0
C56 C 0.32429 0.71909 0.23342 0.0
C57 C 0.31545 0.71495 0.22178 0.0
C58 C 0.29126 0.68644 0.20484 0.0
C59 C 0.28477 0.67694 0.19502 0.0
C60 C 0.27302 0.66829 0.19927 0.0
C61 C 0.2674 0.66908 0.21342 0.0
C62 C 0.27366 0.67902 0.2231 0.0
C63 C 0.28548 0.68766 0.21882 0.0
P64 P 0.98005 0.48256 0.02023 0.0
H65 H 0.96026 0.46957 0.99921 0.0
H66 H 0.95931 0.44586 0.98801 0.0
H67 H 0.99503 0.43225 0.015 0.0
H68 H 0.9958 0.45593 0.02626 0.0
H69 H 0.97194 0.51159 0.01137 0.0
H70 H 0.94905 0.52439 0.01153 0.0
H71 H 0.92787 0.48704 0.03063 0.0
H72 H 0.95102 0.47433 0.03063 0.0
H73 H 0.00363 0.5002 0.03183 0.0
H74 H 0.97451 0.46695 0.04758 0.0
O75 O 0.99093 0.49094 0.00831 0.0
H76 H 0.01527 0.50129 0.05554 0.0
H77 H 0.98602 0.46814 0.07158 0.0
C78 C 0.97781 0.4644 0.01388 0.0
C79 C 0.96764 0.46137 0.00299 0.0
C80 C 0.96722 0.44785 0.99647 0.0
C81 C 0.9771 0.43715 1.00061 0.0
C82 C 0.98712 0.44016 0.01173 0.0
C83 C 0.98755 0.45371 0.0182 0.0
C84 C 0.96309 0.49192 0.02071 0.0
C85 C 0.96238 0.50612 0.01554 0.0
C86 C 0.94925 0.51342 0.01559 0.0
C87 C 0.93657 0.50668 0.02091 0.0
C88 C 0.93743 0.49255 0.02649 0.0
C89 C 0.95062 0.48525 0.02642 0.0
C90 C 0.98837 0.48332 0.03789 0.0
C91 C 0.99973 0.49312 0.04041 0.0
C92 C 0.00631 0.49382 0.05404 0.0
C93 C 0.00159 0.4848 0.06548 0.0
C94 C 0.99003 0.47511 0.06296 0.0
C95 C 0.98342 0.47445 0.04928 0.0
P96 P 0.69791 0.80528 0.20208 0.0
H97 H 0.72307 0.81573 0.18616 0.0
H98 H 0.74343 0.83145 0.19272 0.0
H99 H 0.72807 0.83221 0.23696 0.0
H100 H 0.70787 0.81633 0.23037 0.0
H101 H 0.68378 0.79362 0.17642 0.0
H102 H 0.69011 0.77449 0.15972 0.0
H103 H 0.72781 0.76482 0.18573 0.0
H104 H 0.72136 0.78411 0.20248 0.0
H105 H 0.67507 0.81947 0.21794 0.0
H106 H 0.69663 0.7786 0.2197 0.0
O107 O 0.68834 0.81699 0.19224 0.0
H108 H 0.65928 0.81185 0.23782 0.0
H109 H 0.68101 0.77093 0.2399 0.0
C110 C 0.71404 0.81474 0.20778 0.0
C111 C 0.72426 0.81905 0.19734 0.0
C112 C 0.73581 0.82814 0.20107 0.0
C113 C 0.73731 0.83317 0.21534 0.0
C114 C 0.72731 0.82842 0.22591 0.0
C115 C 0.71571 0.81935 0.22214 0.0
C116 C 0.70227 0.79046 0.1905 0.0
C117 C 0.69342 0.78741 0.17854 0.0
C118 C 0.69707 0.77649 0.16898 0.0
C119 C 0.70957 0.76828 0.1713 0.0
C120 C 0.71812 0.77098 0.18366 0.0
C121 C 0.71449 0.78201 0.19319 0.0
C122 C 0.6868 0.79949 0.21715 0.0
C123 C 0.67642 0.80884 0.22264 0.0
C124 C 0.66748 0.80451 0.23412 0.0
C125 C 0.66884 0.79075 0.24046 0.0
C126 C 0.67953 0.78151 0.23513 0.0
C127 C 0.6885 0.78589 0.22361 0.0
P128 P 0.05545 0.94811 0.45165 0.0
H129 H 0.08646 0.94901 0.45732 0.0
H130 H 0.10285 0.9678 0.466 0.0
H131 H 0.06649 0.99606 0.47172 0.0
H132 H 0.05017 0.97722 0.46258 0.0
H133 H 0.05039 0.91714 0.45269 0.0
H134 H 0.04212 0.90065 0.47175 0.0
H135 H 0.03688 0.93653 0.50068 0.0
H136 H 0.04555 0.95298 0.48152 0.0
H137 H 0.05547 0.96953 0.42853 0.0
H138 H 0.02375 0.94334 0.4512 0.0
O139 O 0.06527 0.93844 0.4402 0.0
H140 H 0.03664 0.97825 0.41208 0.0
H141 H 0.0049 0.95188 0.43468 0.0
C142 C 0.06717 0.96184 0.45903 0.0
C143 C 0.08201 0.95926 0.46043 0.0
C144 C 0.09137 0.96999 0.46554 0.0
C145 C 0.08603 0.9835 0.46952 0.0
C146 C 0.07101 0.98588 0.46851 0.0
C147 C 0.06166 0.97511 0.46335 0.0
C148 C 0.04887 0.93623 0.4658 0.0
C149 C 0.04752 0.92147 0.46315 0.0
C150 C 0.04263 0.91205 0.47403 0.0
C151 C 0.03885 0.91724 0.48778 0.0
C152 C 0.03992 0.93214 0.49029 0.0
C153 C 0.04484 0.94157 0.47935 0.0
C154 C 0.04101 0.95589 0.44114 0.0
C155 C 0.04441 0.96582 0.43009 0.0
C156 C 0.03366 0.9707 0.42063 0.0
C157 C 0.01929 0.96569 0.42202 0.0
C158 C 0.01583 0.95606 0.43341 0.0
C159 C 0.02663 0.95113 0.44285 0.0
P160 P 0.22976 0.72848 0.77571 0.0
H161 H 0.25262 0.73859 0.7949 0.0
H162 H 0.25247 0.75042 0.81847 0.0
H163 H 0.20578 0.7468 0.8196 0.0
H164 H 0.20601 0.735 0.796 0.0
H165 H 0.2316 0.70755 0.75269 0.0
H166 H 0.24265 0.68387 0.75117 0.0
H167 H 0.25413 0.68602 0.79659 0.0
H168 H 0.24269 0.70949 0.79811 0.0
H169 H 0.21686 0.75011 0.75668 0.0
H170 H 0.20415 0.70938 0.77588 0.0
O171 O 0.24148 0.73835 0.76593 0.0
H172 H 0.19358 0.75144 0.74414 0.0
H173 H 0.18077 0.71058 0.76324 0.0
C174 C 0.22934 0.73604 0.79363 0.0
C175 C 0.24236 0.74025 0.80028 0.0
C176 C 0.24226 0.74694 0.81379 0.0
C177 C 0.22911 0.7496 0.82088 0.0
C178 C 0.21608 0.74506 0.81432 0.0
C179 C 0.2162 0.73826 0.80084 0.0
C180 C 0.23623 0.71027 0.7755 0.0
C181 C 0.23629 0.70281 0.76238 0.0
C182 C 0.24273 0.68932 0.76149 0.0
C183 C 0.2494 0.68307 0.77373 0.0
C184 C 0.24898 0.69044 0.78699 0.0
C185 C 0.24248 0.70393 0.78786 0.0
C186 C 0.21233 0.72951 0.76695 0.0
C187 C 0.20907 0.74141 0.75814 0.0
C188 C 0.19577 0.74214 0.75094 0.0
C189 C 0.18539 0.73103 0.75256 0.0
C190 C 0.18852 0.71931 0.76179 0.0
C191 C 0.2019 0.71857 0.76894 0.0
P192 P 0.97913 0.52295 0.48259 0.0
H193 H 0.00775 0.51337 0.47366 0.0
H194 H 0.02047 0.51402 0.45052 0.0
H195 H 0.98438 0.53621 0.43089 0.0
H196 H 0.97152 0.53514 0.45415 0.0
H197 H 0.99711 0.53469 0.50576 0.0
H198 H 0.99765 0.55779 0.51799 0.0
H199 H 0.96292 0.5727 0.49037 0.0
H200 H 0.96273 0.54953 0.47788 0.0
H201 H 0.96695 0.50136 0.46321 0.0
H202 H 0.95164 0.52837 0.49757 0.0
O203 O 0.98755 0.51117 0.49338 0.0
H204 H 0.94323 0.48942 0.46204 0.0
H205 H 0.92786 0.51655 0.49636 0.0
C206 C 0.98862 0.52404 0.46555 0.0
C207 C 0.00255 0.51836 0.46439 0.0
C208 C 0.00987 0.51886 0.45114 0.0
C209 C 0.00346 0.52516 0.4388 0.0
C210 C 0.98956 0.53109 0.44011 0.0
C211 C 0.98222 0.53057 0.4534 0.0
C212 C 0.97964 0.54029 0.49115 0.0
C213 C 0.98958 0.5429 0.50233 0.0
C214 C 0.98984 0.55613 0.50938 0.0
C215 C 0.98017 0.56706 0.50534 0.0
C216 C 0.97053 0.56455 0.49375 0.0
C217 C 0.97034 0.55129 0.48666 0.0
C218 C 0.96097 0.51605 0.48017 0.0
C219 C 0.95839 0.50497 0.47025 0.0
C220 C 0.94487 0.49806 0.46969 0.0
C221 C 0.93368 0.50207 0.47909 0.0
C222 C 0.9362 0.51338 0.48883 0.0
C223 C 0.94979 0.52018 0.48949 0.0
P224 P 0.80309 0.80651 0.80459 0.0
H225 H 0.81457 0.82015 0.77849 0.0
H226 H 0.82952 0.81132 0.7587 0.0
H227 H 0.82531 0.76807 0.77601 0.0
H228 H 0.81055 0.77701 0.79584 0.0
H229 H 0.79187 0.83176 0.81883 0.0
H230 H 0.77283 0.84874 0.81257 0.0
H231 H 0.76255 0.82407 0.77436 0.0
H232 H 0.78166 0.80697 0.78081 0.0
H233 H 0.81931 0.78948 0.82538 0.0
H234 H 0.77485 0.79276 0.81148 0.0
O235 O 0.81583 0.81645 0.81275 0.0
H236 H 0.81236 0.77114 0.84326 0.0
H237 H 0.76769 0.7746 0.82967 0.0
C238 C 0.81142 0.79927 0.78863 0.0
C239 C 0.81662 0.80872 0.77784 0.0
C240 C 0.82514 0.80364 0.76651 0.0
C241 C 0.82871 0.78899 0.76582 0.0
C242 C 0.82295 0.77945 0.77634 0.0
C243 C 0.8144 0.78455 0.78766 0.0
C244 C 0.78839 0.81832 0.8001 0.0
C245 C 0.78555 0.83 0.8091 0.0
C246 C 0.77469 0.83973 0.80547 0.0
C247 C 0.76634 0.83788 0.79284 0.0
C248 C 0.76881 0.82579 0.78415 0.0
C249 C 0.77977 0.81607 0.78777 0.0
C250 C 0.79757 0.79266 0.81732 0.0
C251 C 0.80801 0.7863 0.82626 0.0
C252 C 0.804 0.77586 0.83653 0.0
C253 C 0.78942 0.77153 0.83806 0.0
C254 C 0.77901 0.77765 0.82875 0.0
C255 C 0.78307 0.78811 0.81842 0.0
P256 P 0.30286 0.3089 0.30804 0.0
H257 H 0.32991 0.32082 0.29656 0.0
H258 H 0.34641 0.313 0.27763 0.0
H259 H 0.31722 0.27788 0.26739 0.0
H260 H 0.30073 0.28566 0.28664 0.0
H261 H 0.2885 0.33325 0.321 0.0
H262 H 0.26864 0.34844 0.31324 0.0
H263 H 0.26311 0.32261 0.27481 0.0
H264 H 0.28352 0.30773 0.28249 0.0
H265 H 0.31789 0.29174 0.32957 0.0
H266 H 0.27583 0.29151 0.30919 0.0
O267 O 0.31292 0.31913 0.31904 0.0
H268 H 0.31056 0.2715 0.34499 0.0
H269 H 0.26847 0.27088 0.32434 0.0
C270 C 0.31419 0.30369 0.29314 0.0
C271 C 0.32701 0.31144 0.29027 0.0
C272 C 0.33646 0.30695 0.27947 0.0
C273 C 0.33316 0.29474 0.27117 0.0
C274 C 0.32001 0.28732 0.27364 0.0
C275 C 0.31062 0.29173 0.28463 0.0
C276 C 0.28768 0.31953 0.30219 0.0
C277 C 0.28307 0.33087 0.31087 0.0
C278 C 0.27156 0.33948 0.30647 0.0
C279 C 0.2642 0.33679 0.29337 0.0
C280 C 0.26866 0.32516 0.28484 0.0
C281 C 0.2803 0.31659 0.28924 0.0
C282 C 0.29732 0.2933 0.31845 0.0
C283 C 0.30708 0.28724 0.32835 0.0
C284 C 0.3029 0.27555 0.33708 0.0
C285 C 0.28889 0.26954 0.33597 0.0
C286 C 0.27926 0.27539 0.32566 0.0
C287 C 0.28347 0.28715 0.31694 0.0
P288 P 0.48046 0.98157 0.52141 0.0
H289 H 0.46509 0.97122 0.496 0.0
H290 H 0.4642 0.94789 0.48395 0.0
H291 H 0.49046 0.92968 0.51819 0.0
H292 H 0.49123 0.95299 0.53022 0.0
H293 H 0.47243 0.01112 0.51457 0.0
H294 H 0.44953 0.02378 0.51503 0.0
H295 H 0.42818 0.98529 0.53156 0.0
H296 H 0.45116 0.97249 0.53033 0.0
H297 H 0.51023 0.98724 0.53065 0.0
H298 H 0.4698 0.97476 0.55081 0.0
O299 O 0.49124 0.99061 0.5099 0.0
H300 H 0.52209 0.98719 0.55427 0.0
H301 H 0.4817 0.97442 0.57458 0.0
C302 C 0.47806 0.96381 0.51408 0.0
C303 C 0.47043 0.96213 0.50104 0.0
C304 C 0.47003 0.94883 0.49411 0.0
C305 C 0.47732 0.93695 0.50008 0.0
C306 C 0.48461 0.93858 0.51339 0.0
C307 C 0.48507 0.95193 0.52028 0.0
C308 C 0.46346 0.99082 0.52225 0.0
C309 C 0.46281 0.00537 0.51822 0.0
C310 C 0.44969 0.01266 0.51864 0.0
C311 C 0.43692 0.00561 0.52337 0.0
C312 C 0.4377 0.99103 0.52764 0.0
C313 C 0.45085 0.98371 0.52705 0.0
C314 C 0.48906 0.98127 0.53899 0.0
C315 C 0.50388 0.98449 0.54017 0.0
C316 C 0.5107 0.98433 0.55371 0.0
C317 C 0.50285 0.98083 0.56636 0.0
C318 C 0.48801 0.97738 0.56509 0.0
C319 C 0.48119 0.97754 0.5515 0.0
P320 P 0.19826 0.30322 0.70228 0.0
H321 H 0.20894 0.33044 0.69032 0.0
H322 H 0.22898 0.34639 0.6968 0.0
H323 H 0.24179 0.3165 0.73059 0.0
H324 H 0.22131 0.30071 0.72422 0.0
H325 H 0.19183 0.29746 0.67182 0.0
H326 H 0.19916 0.27859 0.65536 0.0
H327 H 0.2248 0.25934 0.68953 0.0
H328 H 0.21753 0.27856 0.70598 0.0
H329 H 0.19194 0.31532 0.73061 0.0
H330 H 0.18369 0.27553 0.70825 0.0
O331 O 0.18608 0.31338 0.69372 0.0
H332 H 0.17618 0.30727 0.75042 0.0
H333 H 0.16823 0.26722 0.72817 0.0
C334 C 0.21349 0.31454 0.70698 0.0
C335 C 0.21602 0.32732 0.69916 0.0
C336 C 0.22761 0.33639 0.70279 0.0
C337 C 0.23704 0.33276 0.71424 0.0
C338 C 0.23463 0.31973 0.72186 0.0
C339 C 0.22297 0.31066 0.7182 0.0
C340 C 0.20406 0.28935 0.69016 0.0
C341 C 0.19903 0.28921 0.67582 0.0
C342 C 0.20317 0.27833 0.66641 0.0
C343 C 0.21246 0.26735 0.67116 0.0
C344 C 0.2177 0.26767 0.68551 0.0
C345 C 0.21352 0.2786 0.69493 0.0
C346 C 0.18926 0.29591 0.71809 0.0
C347 C 0.1871 0.30466 0.73018 0.0
C348 C 0.17807 0.30002 0.74152 0.0
C349 C 0.17089 0.28659 0.7409 0.0
C350 C 0.17346 0.27769 0.72894 0.0
C351 C 0.18246 0.28236 0.7176 0.0
P352 P 0.80698 0.19758 0.69763 0.0
H353 H 0.82167 0.21559 0.67625 0.0
H354 H 0.81397 0.2358 0.66119 0.0
H355 H 0.77231 0.23502 0.68259 0.0
H356 H 0.78002 0.21444 0.69734 0.0
H357 H 0.83174 0.18349 0.71081 0.0
H358 H 0.84829 0.1902 0.73033 0.0
H359 H 0.82365 0.22864 0.73771 0.0
H360 H 0.80703 0.22182 0.71801 0.0
H361 H 0.79309 0.17253 0.6847 0.0
H362 H 0.78732 0.1984 0.72275 0.0
O363 O 0.81698 0.18792 0.68632 0.0
H364 H 0.77316 0.15686 0.69225 0.0
H365 H 0.76681 0.18305 0.73018 0.0
C366 C 0.80133 0.21333 0.68769 0.0
C367 C 0.81088 0.21979 0.67772 0.0
C368 C 0.80649 0.23146 0.66919 0.0
C369 C 0.79246 0.23704 0.67059 0.0
C370 C 0.78308 0.23084 0.68103 0.0
C371 C 0.7875 0.2191 0.68953 0.0
C372 C 0.81836 0.20232 0.71277 0.0
C373 C 0.82988 0.19337 0.7166 0.0
C374 C 0.83937 0.19724 0.72774 0.0
C375 C 0.83739 0.21005 0.73541 0.0
C376 C 0.82544 0.21871 0.73197 0.0
C377 C 0.81599 0.21487 0.72069 0.0
C378 C 0.79184 0.18648 0.70328 0.0
C379 C 0.78747 0.17488 0.69468 0.0
C380 C 0.77591 0.16599 0.69896 0.0
C381 C 0.76828 0.16865 0.71184 0.0
C382 C 0.77255 0.18051 0.72032 0.0
C383 C 0.78424 0.18935 0.71606 0.0
P384 P 0.55992 0.55528 0.56303 0.0
H385 H 0.55832 0.54445 0.59265 0.0
H386 H 0.53835 0.53578 0.60778 0.0
H387 H 0.50913 0.53999 0.5713 0.0
H388 H 0.52922 0.54906 0.55632 0.0
H389 H 0.58875 0.5568 0.55078 0.0
H390 H 0.60545 0.53854 0.54223 0.0
H391 H 0.57281 0.50563 0.5499 0.0
H392 H 0.55607 0.52403 0.55831 0.0
H393 H 0.55344 0.58579 0.56367 0.0
H394 H 0.55188 0.5517 0.53231 0.0
O395 O 0.57028 0.56475 0.57442 0.0
H396 H 0.54582 0.60302 0.54508 0.0
H397 H 0.54426 0.56898 0.51353 0.0
C398 C 0.54518 0.54768 0.57348 0.0
C399 C 0.54762 0.54348 0.5879 0.0
C400 C 0.53618 0.53839 0.59651 0.0
C401 C 0.52207 0.53724 0.5908 0.0
C402 C 0.51979 0.54097 0.57612 0.0
C403 C 0.53128 0.54611 0.56752 0.0
C404 C 0.57129 0.54173 0.55538 0.0
C405 C 0.58516 0.54566 0.55053 0.0
C406 C 0.59471 0.53521 0.54571 0.0
C407 C 0.59053 0.52061 0.54558 0.0
C408 C 0.57635 0.51678 0.54985 0.0
C409 C 0.5668 0.52728 0.55474 0.0
C410 C 0.55353 0.56756 0.54928 0.0
C411 C 0.55149 0.58202 0.55275 0.0
C412 C 0.54717 0.59187 0.54211 0.0
C413 C 0.54464 0.5874 0.52779 0.0
C414 C 0.54614 0.57275 0.52446 0.0
C415 C 0.55057 0.56289 0.53515 0.0
P416 P 0.55372 0.44847 0.95184 0.0
H417 H 0.58382 0.44731 0.96045 0.0
H418 H 0.60122 0.46538 0.96872 0.0
H419 H 0.56785 0.49761 0.96685 0.0
H420 H 0.55032 0.4792 0.95925 0.0
H421 H 0.5595 0.41796 0.95675 0.0
H422 H 0.55332 0.40123 0.97634 0.0
H423 H 0.53137 0.43519 0.99882 0.0
H424 H 0.53754 0.45199 0.97892 0.0
H425 H 0.55039 0.47191 0.9309 0.0
H426 H 0.52285 0.44012 0.95177 0.0
O427 O 0.56279 0.43945 0.93929 0.0
H428 H 0.53014 0.47946 0.91563 0.0
H429 H 0.50254 0.4477 0.93664 0.0
C430 C 0.56591 0.462 0.95883 0.0
C431 C 0.58024 0.45826 0.96187 0.0
C432 C 0.59021 0.46865 0.9665 0.0
C433 C 0.58606 0.48306 0.96815 0.0
C434 C 0.57146 0.48664 0.96569 0.0
C435 C 0.56144 0.47615 0.96118 0.0
C436 C 0.54893 0.43621 0.96637 0.0
C437 C 0.55336 0.42186 0.96586 0.0
C438 C 0.54989 0.4123 0.97714 0.0
C439 C 0.54193 0.4169 0.98919 0.0
C440 C 0.53743 0.43131 0.98964 0.0
C441 C 0.54099 0.44091 0.97833 0.0
C442 C 0.53807 0.45573 0.94276 0.0
C443 C 0.53988 0.46685 0.93251 0.0
C444 C 0.52828 0.47115 0.92377 0.0
C445 C 0.51471 0.46419 0.92493 0.0
C446 C 0.51287 0.45322 0.93543 0.0
C447 C 0.52447 0.44898 0.94421 0.0
P448 P 0.72893 0.22934 0.27359 0.0
H449 H 0.75291 0.23649 0.29257 0.0
H450 H 0.7544 0.24781 0.31636 0.0
H451 H 0.70766 0.24885 0.31833 0.0
H452 H 0.70627 0.23732 0.2946 0.0
H453 H 0.74945 0.21663 0.25354 0.0
H454 H 0.76149 0.19352 0.25303 0.0
H455 H 0.7379 0.18001 0.29145 0.0
H456 H 0.72643 0.2036 0.29224 0.0
H457 H 0.71168 0.25164 0.25996 0.0
H458 H 0.70621 0.20676 0.27125 0.0
O459 O 0.73888 0.24061 0.26338 0.0
H460 H 0.68766 0.25171 0.24889 0.0
H461 H 0.68197 0.2068 0.26049 0.0
C462 C 0.72951 0.23618 0.29178 0.0
C463 C 0.74299 0.23904 0.2982 0.0
C464 C 0.74382 0.24559 0.31175 0.0
C465 C 0.73115 0.24938 0.31917 0.0
C466 C 0.71762 0.246 0.31293 0.0
C467 C 0.71681 0.23947 0.29932 0.0
C468 C 0.73717 0.21188 0.27301 0.0
C469 C 0.7469 0.20872 0.26189 0.0
C470 C 0.75368 0.19538 0.26153 0.0
C471 C 0.7507 0.18478 0.27218 0.0
C472 C 0.74068 0.18794 0.2832 0.0
C473 C 0.73402 0.20139 0.28362 0.0
C474 C 0.71086 0.22914 0.26615 0.0
C475 C 0.70527 0.2418 0.2601 0.0
C476 C 0.69146 0.24185 0.25388 0.0
C477 C 0.68287 0.22923 0.25373 0.0
C478 C 0.68839 0.21663 0.26019 0.0
C479 C 0.70224 0.2166 0.2664 0.0
P480 P 0.47929 0.0217 0.98352 0.0
H481 H 0.50366 0.00501 0.97292 0.0
H482 H 0.51655 0.0048 0.94989 0.0
H483 H 0.48912 0.03867 0.93353 0.0
H484 H 0.47631 0.03894 0.95684 0.0
H485 H 0.49856 0.03417 0.00515 0.0
H486 H 0.49922 0.0573 0.01736 0.0
H487 H 0.46234 0.07112 0.9921 0.0
H488 H 0.46196 0.04791 0.97965 0.0
H489 H 0.46681 0.00114 0.96314 0.0
H490 H 0.45199 0.02655 0.99895 0.0
O491 O 0.48725 0.01009 0.99484 0.0
H492 H 0.44302 0.98938 0.96167 0.0
H493 H 0.42812 0.01494 0.9974 0.0
C494 C 0.48909 0.02207 0.96663 0.0
C495 C 0.50044 0.01246 0.96444 0.0
C496 C 0.50774 0.01227 0.9512 0.0
C497 C 0.50382 0.02166 0.93983 0.0
C498 C 0.4925 0.03139 0.94211 0.0
C499 C 0.48515 0.03154 0.9554 0.0
C500 C 0.47998 0.0392 0.99177 0.0
C501 C 0.4906 0.04216 0.00223 0.0
C502 C 0.49093 0.05539 0.00926 0.0
C503 C 0.48067 0.06599 0.0059 0.0
C504 C 0.47039 0.0632 0.99494 0.0
C505 C 0.4701 0.04992 0.98788 0.0
C506 C 0.46107 0.01505 0.98087 0.0
C507 C 0.45834 0.00447 0.97045 0.0
C508 C 0.44478 0.99766 0.96969 0.0
C509 C 0.4337 0.00127 0.9794 0.0
C510 C 0.43637 0.01209 0.98964 0.0
C511 C 0.45001 0.01878 0.99049 0.0
Li512 Li 0.263 0.88479 0.9994 0.0
Li513 Li 0.25227 0.8661 0.01528 0.0
Li514 Li 0.24747 0.86659 0.989 0.0
Li515 Li 0.23703 0.88464 0.00512 0.0
C516 C 0.27175 0.85224 0.99232 0.0
N517 N 0.28161 0.82837 0.97788 0.0
C518 C 0.27163 0.83876 0.9992 0.0
C519 C 0.27696 0.85359 0.97812 0.0
C520 C 0.27666 0.82682 0.99171 0.0
C521 C 0.28186 0.84139 0.971 0.0
C522 C 0.25759 0.88805 0.03263 0.0
C523 C 0.25221 0.88515 0.0581 0.0
N524 N 0.2662 0.88859 0.06135 0.0
C525 C 0.27191 0.89158 0.03622 0.0
C526 C 0.24764 0.88485 0.04365 0.0
C527 C 0.27604 0.89179 0.0508 0.0
C528 C 0.2793 0.91072 0.00139 0.0
N529 N 0.27956 0.89703 0.99635 0.0
C530 C 0.30338 0.90084 0.98683 0.0
C531 C 0.29127 0.89198 0.98921 0.0
C532 C 0.30353 0.91503 0.992 0.0
C533 C 0.29123 0.91993 0.99937 0.0
H534 H 0.26985 0.91444 0.00709 0.0
H535 H 0.29123 0.88106 0.98533 0.0
C536 C 0.24489 0.84474 0.03634 0.0
N537 N 0.25557 0.85388 0.03174 0.0
C538 C 0.24712 0.8357 0.04833 0.0
C539 C 0.27129 0.84568 0.05066 0.0
C540 C 0.26867 0.85434 0.03848 0.0
C541 C 0.26045 0.83612 0.05576 0.0
H542 H 0.23467 0.84437 0.03061 0.0
H543 H 0.27709 0.86149 0.03442 0.0
C544 C 0.25108 0.89949 0.97858 0.0
N545 N 0.26186 0.92389 0.9648 0.0
C546 C 0.24644 0.91309 0.98275 0.0
C547 C 0.26115 0.89828 0.96736 0.0
C548 C 0.25202 0.9253 0.97564 0.0
C549 C 0.2665 0.91075 0.96055 0.0
C550 C 0.21894 0.86248 0.00613 0.0
C551 C 0.21066 0.85989 0.9937 0.0
C552 C 0.21205 0.86458 0.01941 0.0
C553 C 0.19557 0.85956 0.99475 0.0
C554 C 0.19693 0.8642 0.02001 0.0
N555 N 0.18907 0.86173 0.00777 0.0
C556 C 0.2423 0.84029 0.9746 0.0
C557 C 0.24304 0.86077 0.95906 0.0
C558 C 0.24031 0.83122 0.96275 0.0
N559 N 0.24385 0.85473 0.97253 0.0
C560 C 0.24091 0.85211 0.94691 0.0
C561 C 0.23966 0.83711 0.94867 0.0
H562 H 0.24276 0.83581 0.98546 0.0
H563 H 0.24413 0.87229 0.95773 0.0
C564 C 0.22025 0.90477 0.02046 0.0
N565 N 0.22064 0.89658 0.00834 0.0
C566 C 0.20858 0.91385 0.02292 0.0
C567 C 0.19792 0.90594 1.00036 0.0
C568 C 0.20986 0.8971 0.99828 0.0
C569 C 0.19721 0.91453 0.01279 0.0
H570 H 0.22907 0.90439 0.02816 0.0
H571 H 0.21061 0.89072 0.98857 0.0
O572 O 0.26666 0.86402 0.99939 0.0
O573 O 0.25337 0.8876 0.0184 0.0
O574 O 0.24606 0.88744 0.98568 0.0
O575 O 0.23373 0.86308 0.00528 0.0
H576 H 0.26761 0.83749 0.01015 0.0
H577 H 0.27692 0.86389 0.97254 0.0
H578 H 0.27658 0.81632 0.99688 0.0
H579 H 0.28578 0.84225 0.95997 0.0
H580 H 0.24464 0.88261 0.06674 0.0
H581 H 0.27979 0.89396 0.02784 0.0
H582 H 0.23654 0.882 0.04107 0.0
H583 H 0.2871 0.89445 0.05374 0.0
H584 H 0.31247 0.89663 0.98088 0.0
H585 H 0.29088 0.93067 0.00376 0.0
H586 H 0.23853 0.82831 0.05156 0.0
H587 H 0.28167 0.84659 0.05606 0.0
H588 H 0.23874 0.91423 0.99148 0.0
H589 H 0.265 0.88784 0.96412 0.0
H590 H 0.24858 0.9359 0.9788 0.0
H591 H 0.27438 0.90999 0.95193 0.0
H592 H 0.21582 0.85829 0.98332 0.0
H593 H 0.2183 0.86662 0.02913 0.0
H594 H 0.18901 0.85764 0.98521 0.0
H595 H 0.19144 0.86591 0.0302 0.0
H596 H 0.2392 0.81973 0.9646 0.0
H597 H 0.24052 0.85708 0.93624 0.0
H598 H 0.20844 0.92023 0.03268 0.0
H599 H 0.1895 0.90631 0.99217 0.0
Li600 Li 0.11452 0.50398 0.26587 0.0
Li601 Li 0.13241 0.48847 0.25406 0.0
Li602 Li 0.13313 0.51556 0.25004 0.0
Li603 Li 0.11446 0.50012 0.23873 0.0
C604 C 0.14072 0.50772 0.28175 0.0
N605 N 0.1504 0.51496 0.30915 0.0
C606 C 0.14559 0.49705 0.29132 0.0
C607 C 0.14103 0.52211 0.28604 0.0
C608 C 0.15037 0.50092 0.30515 0.0
C609 C 0.14589 0.52554 0.29995 0.0
C610 C 0.10837 0.47171 0.25741 0.0
C611 C 0.10846 0.44704 0.24957 0.0
N612 N 0.10368 0.44274 0.26291 0.0
C613 C 0.10334 0.46708 0.27099 0.0
C614 C 0.11083 0.46164 0.24657 0.0
C615 C 0.10108 0.45238 0.27357 0.0
C616 C 0.09026 0.51405 0.28142 0.0
N617 N 0.10273 0.50649 0.28272 0.0
C618 C 0.0984 0.50263 0.30805 0.0
C619 C 0.10678 0.50062 0.29565 0.0
C620 C 0.08562 0.51065 0.30712 0.0
C621 C 0.08153 0.51631 0.29354 0.0
H622 H 0.08711 0.51838 0.27097 0.0
H623 H 0.11642 0.4942 0.29633 0.0
C624 C 0.15516 0.4696 0.24716 0.0
N625 N 0.1442 0.47182 0.25667 0.0
C626 C 0.1642 0.45774 0.24885 0.0
C627 C 0.15043 0.45057 0.27004 0.0
C628 C 0.14179 0.46266 0.26803 0.0
C629 C 0.16192 0.44799 0.26043 0.0
H630 H 0.15702 0.47717 0.23834 0.0
H631 H 0.1332 0.46478 0.27563 0.0
C632 C 0.10766 0.53225 0.25036 0.0
N633 N 0.09948 0.56071 0.2516 0.0
C634 C 0.10138 0.53891 0.23827 0.0
C635 C 0.10958 0.54 0.26314 0.0
C636 C 0.09737 0.55333 0.2391 0.0
C637 C 0.10543 0.55439 0.26354 0.0
C638 C 0.13776 0.49837 0.2213 0.0
C639 C 0.14191 0.51029 0.21283 0.0
C640 C 0.13551 0.48505 0.21473 0.0
C641 C 0.14348 0.50871 0.19786 0.0
C642 C 0.13718 0.48391 0.19973 0.0
N643 N 0.14108 0.49568 0.19167 0.0
C644 C 0.15872 0.53203 0.25403 0.0
C645 C 0.14131 0.5433 0.23898 0.0
C646 C 0.16819 0.54379 0.25238 0.0
N647 N 0.14552 0.53204 0.24746 0.0
C648 C 0.15039 0.55531 0.23708 0.0
C649 C 0.16407 0.55568 0.24382 0.0
H650 H 0.16193 0.52283 0.2605 0.0
H651 H 0.13096 0.54292 0.23352 0.0
C652 C 0.09227 0.48751 0.22142 0.0
N653 N 0.10247 0.49818 0.2219 0.0
C654 C 0.08344 0.48594 0.20919 0.0
C655 C 0.09572 0.50639 0.19819 0.0
C656 C 0.10422 0.50763 0.21066 0.0
C657 C 0.08511 0.49543 0.19731 0.0
H658 H 0.0909 0.48029 0.23059 0.0
H659 H 0.11225 0.51615 0.21139 0.0
O660 O 0.13602 0.50411 0.26816 0.0
O661 O 0.11075 0.48605 0.25473 0.0
O662 O 0.11172 0.51816 0.2497 0.0
O663 O 0.13602 0.49974 0.23595 0.0
H664 H 0.14559 0.48589 0.28815 0.0
H665 H 0.13772 0.53056 0.27866 0.0
H666 H 0.15406 0.49275 0.3127 0.0
H667 H 0.14614 0.53663 0.30341 0.0
H668 H 0.1104 0.43912 0.24131 0.0
H669 H 0.10126 0.47473 0.27947 0.0
H670 H 0.11457 0.46506 0.23596 0.0
H671 H 0.09726 0.44863 0.28406 0.0
H672 H 0.10179 0.49778 0.31822 0.0
H673 H 0.0718 0.52259 0.29232 0.0
H674 H 0.17306 0.45642 0.24132 0.0
H675 H 0.14808 0.44332 0.27902 0.0
H676 H 0.09967 0.53305 0.22833 0.0
H677 H 0.11407 0.53492 0.2727 0.0
H678 H 0.09258 0.55865 0.22979 0.0
H679 H 0.10688 0.56051 0.27337 0.0
H680 H 0.14378 0.52066 0.21775 0.0
H681 H 0.13249 0.47568 0.22115 0.0
H682 H 0.14659 0.51787 0.19116 0.0
H683 H 0.13539 0.47368 0.19449 0.0
H684 H 0.17872 0.54343 0.25754 0.0
H685 H 0.14667 0.56422 0.23047 0.0
H686 H 0.07525 0.4775 0.20915 0.0
H687 H 0.09756 0.51387 0.18927 0.0
Li688 Li 0.73876 0.61845 0.00338 0.0
Li689 Li 0.74933 0.63732 0.01922 0.0
Li690 Li 0.75218 0.63768 0.99257 0.0
Li691 Li 0.76476 0.61899 0.0073 0.0
C692 C 0.72741 0.65038 0.99727 0.0
N693 N 0.71504 0.67344 0.98294 0.0
C694 C 0.72715 0.66389 0.00377 0.0
C695 C 0.72122 0.64857 0.98354 0.0
C696 C 0.72087 0.67542 0.99634 0.0
C697 C 0.71508 0.66037 0.97645 0.0
C698 C 0.75487 0.61259 0.03551 0.0
C699 C 0.77304 0.61599 0.05403 0.0
N700 N 0.76602 0.60617 0.06262 0.0
C701 C 0.74784 0.60254 0.0445 0.0
C702 C 0.76757 0.61938 0.0403 0.0
C703 C 0.75364 0.59943 0.05818 0.0
C704 C 0.72466 0.59132 0.00409 0.0
N705 N 0.72262 0.60557 0.00141 0.0
C706 C 0.69774 0.60119 0.99547 0.0
C707 C 0.70947 0.61065 0.99731 0.0
C708 C 0.6996 0.58636 0.99783 0.0
C709 C 0.71328 0.58147 0.00224 0.0
H710 H 0.73519 0.58761 0.00754 0.0
H711 H 0.70809 0.62204 0.99541 0.0
C712 C 0.75326 0.66225 0.03593 0.0
N713 N 0.74702 0.64893 0.03594 0.0
C714 C 0.75128 0.67141 0.04766 0.0
C715 C 0.73669 0.65288 0.05932 0.0
C716 C 0.73888 0.6441 0.04732 0.0
C717 C 0.74281 0.66681 0.05952 0.0
H718 H 0.75953 0.66587 0.02666 0.0
H719 H 0.73391 0.63351 0.04696 0.0
C720 C 0.74946 0.6055 0.9808 0.0
N721 N 0.7387 0.58202 0.96589 0.0
C722 C 0.75553 0.59193 0.9829 0.0
C723 C 0.73803 0.60715 0.97098 0.0
C724 C 0.74992 0.58019 0.97529 0.0
C725 C 0.7327 0.59514 0.9636 0.0
C726 C 0.78038 0.6468 0.00636 0.0
C727 C 0.78664 0.64821 0.9926 0.0
C728 C 0.78773 0.6522 0.01845 0.0
C729 C 0.8002 0.65493 0.99119 0.0
C730 C 0.80127 0.65884 0.01658 0.0
N731 N 0.80717 0.66006 0.00311 0.0
C732 C 0.75608 0.66492 0.97915 0.0
C733 C 0.75415 0.64561 0.96265 0.0
C734 C 0.75791 0.67476 0.96772 0.0
N735 N 0.75422 0.65067 0.97643 0.0
C736 C 0.75598 0.65506 0.95088 0.0
C737 C 0.75796 0.66987 0.95334 0.0
H738 H 0.75621 0.66863 0.99024 0.0
H739 H 0.75287 0.6342 0.9608 0.0
C740 C 0.78055 0.59452 0.01678 0.0
N741 N 0.78175 0.60732 0.00953 0.0
C742 C 0.79257 0.58563 0.0184 0.0
C743 C 0.80684 0.60311 0.00493 0.0
C744 C 0.79455 0.61162 0.00352 0.0
C745 C 0.80598 0.58988 0.01243 0.0
H746 H 0.77019 0.59108 0.02111 0.0
H747 H 0.79525 0.62157 0.99749 0.0
O748 O 0.73378 0.63902 0.00425 0.0
O749 O 0.74924 0.61577 0.02214 0.0
O750 O 0.7546 0.61706 0.98839 0.0
O751 O 0.76697 0.64052 0.00796 0.0
H752 H 0.73178 0.66548 0.01441 0.0
H753 H 0.72134 0.63821 0.97833 0.0
H754 H 0.72066 0.68595 0.00122 0.0
H755 H 0.71037 0.65914 0.96577 0.0
H756 H 0.78286 0.62116 0.05786 0.0
H757 H 0.73798 0.5972 0.04094 0.0
H758 H 0.77317 0.62714 0.03346 0.0
H759 H 0.74831 0.59168 0.06526 0.0
H760 H 0.6874 0.6054 0.99197 0.0
H761 H 0.71512 0.57015 0.00437 0.0
H762 H 0.75629 0.68201 0.04741 0.0
H763 H 0.72994 0.64897 0.06815 0.0
H764 H 0.76442 0.59045 0.9904 0.0
H765 H 0.73319 0.61756 0.96921 0.0
H766 H 0.75446 0.56961 0.97687 0.0
H767 H 0.72377 0.59625 0.95607 0.0
H768 H 0.78125 0.64392 0.98314 0.0
H769 H 0.78304 0.6513 0.02917 0.0
H770 H 0.80519 0.65602 0.98062 0.0
H771 H 0.80707 0.66304 0.02585 0.0
H772 H 0.75923 0.68607 0.97015 0.0
H773 H 0.75618 0.65077 0.94001 0.0
H774 H 0.79129 0.5754 0.02403 0.0
H775 H 0.81694 0.60693 1.00024 0.0
Li776 Li 0.86583 0.01601 0.25745 0.0
Li777 Li 0.88438 0.00113 0.26923 0.0
Li778 Li 0.88481 0.00563 0.24291 0.0
Li779 Li 0.86639 0.98984 0.25416 0.0
C780 C 0.88798 0.0338 0.26214 0.0
N781 N 0.88868 0.06253 0.26954 0.0
C782 C 0.89107 0.03781 0.2764 0.0
C783 C 0.88533 0.0444 0.25163 0.0
C784 C 0.89137 0.0524 0.27992 0.0
C785 C 0.88569 0.05887 0.2556 0.0
C786 C 0.85133 0.99362 0.27763 0.0
C787 C 0.84014 0.97266 0.28874 0.0
N788 N 0.8269 0.97866 0.2868 0.0
C789 C 0.83762 0.99959 0.27578 0.0
C790 C 0.85262 0.98007 0.28421 0.0
C791 C 0.8254 0.99186 0.2805 0.0
C792 C 0.84459 0.03611 0.24863 0.0
N793 N 0.8535 0.03223 0.2597 0.0
C794 C 0.84496 0.05157 0.27416 0.0
C795 C 0.85365 0.03952 0.27241 0.0
C796 C 0.83572 0.056 0.26284 0.0
C797 C 0.83555 0.04797 0.24998 0.0
H798 H 0.8444 0.02993 0.23876 0.0
H799 H 0.86061 0.03602 0.28117 0.0
C800 C 0.91056 0.00374 0.28467 0.0
N801 N 0.89658 0.99913 0.28587 0.0
C802 C 0.92018 0.00195 0.29623 0.0
C803 C 0.90079 0.9909 0.31016 0.0
C804 C 0.89152 0.99295 0.29832 0.0
C805 C 0.91538 0.99534 0.30918 0.0
H806 H 0.91425 0.00871 0.27465 0.0
H807 H 0.88035 0.98943 0.29901 0.0
C808 C 0.86281 0.00589 0.22461 0.0
N809 N 0.8625 0.00711 0.19465 0.0
C810 C 0.86021 0.99342 0.21663 0.0
C811 C 0.86518 0.019 0.21736 0.0
C812 C 0.8601 0.99426 0.20148 0.0
C813 C 0.86501 0.01938 0.20221 0.0
C814 C 0.89946 0.98024 0.25842 0.0
C815 C 0.91313 0.98394 0.25295 0.0
C816 C 0.89824 0.97 0.26959 0.0
C817 C 0.92539 0.97737 0.2588 0.0
C818 C 0.91076 0.9637 0.27518 0.0
N819 N 0.92396 0.96749 0.26972 0.0
C820 C 0.90584 0.02023 0.22563 0.0
C821 C 0.89751 0.99805 0.21606 0.0
C822 C 0.91528 0.02221 0.21394 0.0
N823 N 0.89716 0.00832 0.22644 0.0
C824 C 0.90666 0.99968 0.20407 0.0
C825 C 0.91577 0.01186 0.20296 0.0
H826 H 0.90557 0.0281 0.23416 0.0
H827 H 0.89077 0.9885 0.21716 0.0
C828 C 0.84044 0.97525 0.24705 0.0
N829 N 0.8544 0.97321 0.25121 0.0
C830 C 0.83124 0.96347 0.24468 0.0
C831 C 0.85094 0.94768 0.25101 0.0
C832 C 0.85979 0.95978 0.25316 0.0
C833 C 0.83647 0.94944 0.24665 0.0
H834 H 0.83647 0.98607 0.24554 0.0
H835 H 0.87096 0.95845 0.25631 0.0
O836 O 0.88745 0.01957 0.25851 0.0
O837 O 0.86339 0.00087 0.27277 0.0
O838 O 0.86319 0.00526 0.23944 0.0
O839 O 0.88736 0.98683 0.25309 0.0
H840 H 0.89306 0.02975 0.2847 0.0
H841 H 0.88287 0.04148 0.24056 0.0
H842 H 0.89369 0.05565 0.29093 0.0
H843 H 0.88357 0.06718 0.24759 0.0
H844 H 0.84097 0.96211 0.29372 0.0
H845 H 0.8364 0.01003 0.27065 0.0
H846 H 0.86313 0.97519 0.28553 0.0
H847 H 0.81472 0.99632 0.27908 0.0
H848 H 0.84564 0.05744 0.28423 0.0
H849 H 0.82838 0.05068 0.24108 0.0
H850 H 0.93125 0.00577 0.29504 0.0
H851 H 0.89663 0.98563 0.31985 0.0
H852 H 0.85847 0.98316 0.22205 0.0
H853 H 0.86725 0.02874 0.22338 0.0
H854 H 0.85817 0.98468 0.19516 0.0
H855 H 0.86691 0.02944 0.19646 0.0
H856 H 0.9143 0.99191 0.24438 0.0
H857 H 0.88777 0.96717 0.27412 0.0
H858 H 0.93604 0.98018 0.25472 0.0
H859 H 0.90999 0.95587 0.28391 0.0
H860 H 0.9221 0.03178 0.21347 0.0
H861 H 0.90688 0.99135 0.19596 0.0
H862 H 0.82013 0.96531 0.24146 0.0
H863 H 0.85545 0.93706 0.25247 0.0
Li864 Li 0.25116 0.13657 0.51866 0.0
Li865 Li 0.23917 0.11824 0.5036 0.0
Li866 Li 0.26638 0.1188 0.5074 0.0
Li867 Li 0.25471 0.13683 0.49153 0.0
C868 C 0.24769 0.11381 0.53617 0.0
N869 N 0.24165 0.11146 0.56545 0.0
C870 C 0.23369 0.1102 0.54081 0.0
C871 C 0.25865 0.11604 0.5464 0.0
C872 C 0.23085 0.1091 0.55567 0.0
C873 C 0.25537 0.11487 0.56116 0.0
C874 C 0.22366 0.14392 0.49743 0.0
C875 C 0.20725 0.1467 0.47724 0.0
N876 N 0.19749 0.15291 0.48618 0.0
C877 C 0.21353 0.15047 0.50639 0.0
C878 C 0.22056 0.14213 0.48271 0.0
C879 C 0.20034 0.15488 0.50051 0.0
C880 C 0.25911 0.15784 0.53925 0.0
N881 N 0.24849 0.14841 0.53526 0.0
C882 C 0.2335 0.15596 0.55482 0.0
C883 C 0.23582 0.14739 0.54271 0.0
C884 C 0.24424 0.16586 0.55922 0.0
C885 C 0.25721 0.1667 0.55124 0.0
H886 H 0.26899 0.15862 0.53301 0.0
H887 H 0.22748 0.13992 0.53922 0.0
C888 C 0.22488 0.09239 0.49643 0.0
N889 N 0.22263 0.10588 0.50147 0.0
C890 C 0.21325 0.08281 0.49465 0.0
C891 C 0.19718 0.10109 0.50344 0.0
C892 C 0.20914 0.11029 0.50514 0.0
C893 C 0.19916 0.08714 0.49811 0.0
H894 H 0.23574 0.0891 0.49376 0.0
H895 H 0.20765 0.12087 0.50955 0.0
C896 C 0.28373 0.14238 0.50833 0.0
N897 N 0.31336 0.14644 0.51032 0.0
C898 C 0.29158 0.14743 0.49632 0.0
C899 C 0.29091 0.13956 0.5214 0.0
C900 C 0.30656 0.14938 0.49754 0.0
C901 C 0.30591 0.14162 0.52217 0.0
C902 C 0.25491 0.11032 0.47556 0.0
C903 C 0.26763 0.10518 0.46938 0.0
C904 C 0.24197 0.10971 0.46768 0.0
C905 C 0.26726 0.09984 0.45527 0.0
C906 C 0.24204 0.10427 0.45362 0.0
N907 N 0.25458 0.09951 0.44774 0.0
C908 C 0.28265 0.09613 0.51971 0.0
C909 C 0.29493 0.10924 0.50116 0.0
C910 C 0.29458 0.08718 0.52163 0.0
N911 N 0.28306 0.10695 0.50965 0.0
C912 C 0.30717 0.10071 0.50289 0.0
C913 C 0.30707 0.08949 0.51321 0.0
H914 H 0.27304 0.09442 0.52621 0.0
H915 H 0.29487 0.11765 0.49299 0.0
C916 C 0.25071 0.16208 0.47483 0.0
N917 N 0.25693 0.1489 0.47469 0.0
C918 C 0.25207 0.17139 0.46288 0.0
C919 C 0.2664 0.15348 0.45092 0.0
C920 C 0.26478 0.14454 0.46311 0.0
C921 C 0.26 0.16713 0.45067 0.0
H922 H 0.24474 0.16541 0.48429 0.0
H923 H 0.26996 0.1342 0.46336 0.0
O924 O 0.25063 0.11513 0.52168 0.0
O925 O 0.23662 0.13949 0.50305 0.0
O926 O 0.26907 0.14031 0.5073 0.0
O927 O 0.25509 0.11553 0.4894 0.0
H928 H 0.22509 0.10838 0.53303 0.0
H929 H 0.26956 0.11871 0.54297 0.0
H930 H 0.22004 0.10641 0.55943 0.0
H931 H 0.26373 0.11666 0.5692 0.0
H932 H 0.2047 0.14537 0.46586 0.0
H933 H 0.21581 0.15206 0.51778 0.0
H934 H 0.22839 0.13743 0.47555 0.0
H935 H 0.19236 0.15989 0.50734 0.0
H936 H 0.2234 0.15478 0.5607 0.0
H937 H 0.2657 0.17433 0.55403 0.0
H938 H 0.21525 0.07219 0.49041 0.0
H939 H 0.18654 0.10477 0.50649 0.0
H940 H 0.28618 0.14975 0.48616 0.0
H941 H 0.28498 0.13573 0.53081 0.0
H942 H 0.31279 0.15321 0.48832 0.0
H943 H 0.31162 0.13938 0.53218 0.0
H944 H 0.27771 0.10543 0.47536 0.0
H945 H 0.23193 0.11323 0.47242 0.0
H946 H 0.27705 0.09593 0.45031 0.0
H947 H 0.2321 0.10377 0.44739 0.0
H948 H 0.29411 0.07865 0.52972 0.0
H949 H 0.31653 0.1027 0.49604 0.0
H950 H 0.24718 0.1819 0.46333 0.0
H951 H 0.27253 0.14967 0.44175 0.0
Li952 Li 0.38333 0.50061 0.76898 0.0
Li953 Li 0.36574 0.51545 0.75757 0.0
Li954 Li 0.36589 0.4892 0.75386 0.0
Li955 Li 0.38549 0.50469 0.74261 0.0
C956 C 0.36058 0.49856 0.7864 0.0
N957 N 0.35818 0.49596 0.81619 0.0
C958 C 0.35682 0.51046 0.79468 0.0
C959 C 0.363 0.48532 0.79325 0.0
C960 C 0.35568 0.50893 0.80974 0.0
C961 C 0.36179 0.48423 0.80833 0.0
C962 C 0.39511 0.52689 0.76781 0.0
C963 C 0.41842 0.53221 0.77848 0.0
N964 N 0.41206 0.54168 0.78756 0.0
C965 C 0.3888 0.53668 0.77725 0.0
C966 C 0.41004 0.52466 0.7684 0.0
C967 C 0.39755 0.54406 0.78714 0.0
C968 C 0.40502 0.4871 0.78569 0.0
N969 N 0.39515 0.49783 0.78608 0.0
C970 C 0.40282 0.50413 0.81005 0.0
C971 C 0.39395 0.50633 0.79795 0.0
C972 C 0.41303 0.49305 0.80997 0.0
C973 C 0.41406 0.48448 0.79756 0.0
H974 H 0.40599 0.48063 0.77608 0.0
H975 H 0.38616 0.51487 0.79806 0.0
C976 C 0.33971 0.52979 0.76399 0.0
N977 N 0.35334 0.53169 0.75871 0.0
C978 C 0.33039 0.54147 0.76501 0.0
C979 C 0.34923 0.55679 0.75487 0.0
C980 C 0.35818 0.54481 0.75404 0.0
C981 C 0.33514 0.55523 0.76049 0.0
H982 H 0.33608 0.51918 0.76741 0.0
H983 H 0.36904 0.54597 0.74976 0.0
C984 C 0.38879 0.47246 0.74999 0.0
N985 N 0.39096 0.44399 0.74206 0.0
C986 C 0.39304 0.46897 0.73592 0.0
C987 C 0.38579 0.46148 0.76006 0.0
C988 C 0.39405 0.4545 0.73212 0.0
C989 C 0.3869 0.44715 0.75583 0.0
C990 C 0.3527 0.51104 0.73252 0.0
C991 C 0.33869 0.50569 0.73499 0.0
C992 C 0.35472 0.52358 0.72422 0.0
C993 C 0.3269 0.51302 0.7291 0.0
C994 C 0.34264 0.5306 0.71854 0.0
N995 N 0.3291 0.52522 0.72108 0.0
C996 C 0.34441 0.46815 0.76084 0.0
C997 C 0.35521 0.46551 0.73774 0.0
C998 C 0.33566 0.45599 0.7586 0.0
N999 N 0.35402 0.47257 0.75052 0.0
C1000 C 0.34684 0.45318 0.73513 0.0
C1001 C 0.33685 0.44823 0.74563 0.0
H1002 H 0.34342 0.47414 0.77076 0.0
H1003 H 0.36274 0.46943 0.7296 0.0
C1004 C 0.4125 0.50678 0.7283 0.0
N1005 N 0.39793 0.50706 0.72626 0.0
C1006 C 0.4219 0.5084 0.71651 0.0
C1007 C 0.4011 0.51022 0.70067 0.0
C1008 C 0.39211 0.50861 0.71278 0.0
C1009 C 0.41624 0.51018 0.70244 0.0
H1010 H 0.41684 0.50522 0.73909 0.0
H1011 H 0.38048 0.50847 0.71142 0.0
O1012 O 0.36174 0.49985 0.77165 0.0
O1013 O 0.38669 0.51949 0.75811 0.0
O1014 O 0.38758 0.48656 0.75389 0.0
O1015 O 0.36434 0.50431 0.73861 0.0
H1016 H 0.35499 0.52081 0.78958 0.0
H1017 H 0.36589 0.476 0.787 0.0
H1018 H 0.35286 0.51806 0.81629 0.0
H1019 H 0.36372 0.47407 0.81378 0.0
H1020 H 0.42998 0.53051 0.77911 0.0
H1021 H 0.37724 0.53839 0.77714 0.0
H1022 H 0.41509 0.51704 0.76129 0.0
H1023 H 0.3928 0.55161 0.79456 0.0
H1024 H 0.40159 0.51094 0.81942 0.0
H1025 H 0.42194 0.47597 0.79693 0.0
H1026 H 0.31955 0.53971 0.76918 0.0
H1027 H 0.35341 0.5672 0.75137 0.0
H1028 H 0.39541 0.47732 0.72799 0.0
H1029 H 0.38255 0.46401 0.77101 0.0
H1030 H 0.39725 0.45164 0.72125 0.0
H1031 H 0.38452 0.43855 0.76349 0.0
H1032 H 0.33694 0.49608 0.74151 0.0
H1033 H 0.36548 0.52797 0.72239 0.0
H1034 H 0.31599 0.50904 0.73097 0.0
H1035 H 0.34402 0.54036 0.71217 0.0
H1036 H 0.3279 0.45287 0.76687 0.0
H1037 H 0.34831 0.44755 0.72504 0.0
H1038 H 0.43347 0.50841 0.71845 0.0
H1039 H 0.39624 0.51128 0.69002 0.0
Li1040 Li 0.76358 0.38451 0.49826 0.0
Li1041 Li 0.75267 0.36561 0.51394 0.0
Li1042 Li 0.74927 0.36616 0.4877 0.0
Li1043 Li 0.73766 0.38445 0.50281 0.0
C1044 C 0.77317 0.35164 0.49237 0.0
N1045 N 0.78344 0.32717 0.47925 0.0
C1046 C 0.77233 0.33834 0.49955 0.0
C1047 C 0.77944 0.35251 0.47858 0.0
C1048 C 0.77754 0.32609 0.49273 0.0
C1049 C 0.7845 0.34001 0.4721 0.0
C1050 C 0.74779 0.39006 0.53034 0.0
C1051 C 0.72993 0.38602 0.54907 0.0
N1052 N 0.73618 0.39667 0.55702 0.0
C1053 C 0.75402 0.40097 0.53868 0.0
C1054 C 0.73563 0.38252 0.53554 0.0
C1055 C 0.748 0.40415 0.55215 0.0
C1056 C 0.77931 0.41075 0.50068 0.0
N1057 N 0.78011 0.3969 0.49617 0.0
C1058 C 0.80447 0.40075 0.48816 0.0
C1059 C 0.79238 0.39177 0.4901 0.0
C1060 C 0.80406 0.41513 0.49274 0.0
C1061 C 0.79122 0.42008 0.49911 0.0
H1062 H 0.7694 0.41452 0.50551 0.0
H1063 H 0.79274 0.38072 0.48662 0.0
C1064 C 0.7476 0.34146 0.53238 0.0
N1065 N 0.75511 0.35406 0.53097 0.0
C1066 C 0.74946 0.33274 0.54467 0.0
C1067 C 0.76649 0.35032 0.554 0.0
C1068 C 0.76442 0.35861 0.54145 0.0
C1069 C 0.75904 0.33711 0.55572 0.0
H1070 H 0.74038 0.33805 0.5238 0.0
H1071 H 0.77023 0.36871 0.54005 0.0
C1072 C 0.75354 0.39773 0.47527 0.0
N1073 N 0.76613 0.4194 0.45858 0.0
C1074 C 0.74805 0.41167 0.47557 0.0
C1075 C 0.76525 0.39477 0.46622 0.0
C1076 C 0.7546 0.42249 0.46711 0.0
C1077 C 0.77153 0.40587 0.45795 0.0
C1078 C 0.72136 0.35903 0.49714 0.0
C1079 C 0.71674 0.36543 0.48416 0.0
C1080 C 0.71274 0.34841 0.5038 0.0
C1081 C 0.70354 0.36111 0.47807 0.0
C1082 C 0.69959 0.3444 0.49738 0.0
N1083 N 0.69531 0.35078 0.48476 0.0
C1084 C 0.74418 0.33961 0.47361 0.0
C1085 C 0.7468 0.35961 0.45764 0.0
C1086 C 0.74251 0.3303 0.4619 0.0
N1087 N 0.74649 0.35393 0.47128 0.0
C1088 C 0.74516 0.35071 0.44562 0.0
C1089 C 0.7431 0.33581 0.44764 0.0
H1090 H 0.74379 0.3354 0.48459 0.0
H1091 H 0.74829 0.37106 0.45607 0.0
C1092 C 0.72485 0.41092 0.50856 0.0
N1093 N 0.72151 0.39678 0.50664 0.0
C1094 C 0.71399 0.42081 0.51149 0.0
C1095 C 0.69644 0.40134 0.51108 0.0
C1096 C 0.70765 0.39183 0.50813 0.0
C1097 C 0.69952 0.41609 0.51271 0.0
H1098 H 0.73601 0.41452 0.50785 0.0
H1099 H 0.70519 0.38051 0.50728 0.0
O1100 O 0.7679 0.36373 0.4988 0.0
O1101 O 0.75351 0.38694 0.51707 0.0
O1102 O 0.74747 0.38704 0.48371 0.0
O1103 O 0.73438 0.36286 0.50319 0.0
H1104 H 0.76766 0.33743 0.51025 0.0
H1105 H 0.78022 0.36266 0.47281 0.0
H1106 H 0.77687 0.31572 0.49815 0.0
H1107 H 0.78923 0.34052 0.46138 0.0
H1108 H 0.72053 0.38028 0.55323 0.0
H1109 H 0.7634 0.40693 0.53477 0.0
H1110 H 0.73061 0.37408 0.52922 0.0
H1111 H 0.75271 0.41257 0.55874 0.0
H1112 H 0.81397 0.39647 0.48296 0.0
H1113 H 0.79041 0.43098 0.50302 0.0
H1114 H 0.74367 0.32256 0.54534 0.0
H1115 H 0.77381 0.35428 0.56228 0.0
H1116 H 0.73877 0.41413 0.48215 0.0
H1117 H 0.7696 0.38406 0.46576 0.0
H1118 H 0.75048 0.43334 0.46731 0.0
H1119 H 0.78071 0.40374 0.45105 0.0
H1120 H 0.72323 0.37367 0.47883 0.0
H1121 H 0.71614 0.34334 0.51384 0.0
H1122 H 0.69984 0.36597 0.46804 0.0
H1123 H 0.6928 0.33621 0.50242 0.0
H1124 H 0.74103 0.31889 0.46399 0.0
H1125 H 0.74538 0.35549 0.43485 0.0
H1126 H 0.71691 0.43206 0.51263 0.0
H1127 H 0.68552 0.39714 0.51232 0.0
Li1128 Li 0.63329 0.98942 0.75515 0.0
Li1129 Li 0.61506 0.00496 0.76624 0.0
Li1130 Li 0.61491 0.00093 0.7392 0.0
Li1131 Li 0.63327 0.01644 0.75099 0.0
C1132 C 0.60705 0.9729 0.7541 0.0
N1133 N 0.5973 0.94481 0.75142 0.0
C1134 C 0.60054 0.96579 0.76588 0.0
C1135 C 0.6084 0.96579 0.74089 0.0
C1136 C 0.59575 0.95157 0.76433 0.0
C1137 C 0.60346 0.95158 0.73976 0.0
C1138 C 0.638 0.00651 0.78387 0.0
C1139 C 0.637 0.02067 0.8056 0.0
N1140 N 0.64045 0.00883 0.81363 0.0
C1141 C 0.64166 0.9945 0.7923 0.0
C1142 C 0.63578 0.01973 0.79053 0.0
C1143 C 0.6428 0.99589 0.80734 0.0
C1144 C 0.65908 0.97392 0.75232 0.0
N1145 N 0.64545 0.97309 0.75785 0.0
C1146 C 0.65 0.94958 0.76754 0.0
C1147 C 0.64083 0.96128 0.76544 0.0
C1148 C 0.66414 0.95011 0.76192 0.0
C1149 C 0.66864 0.9625 0.7542 0.0
H1150 H 0.66256 0.9835 0.74647 0.0
H1151 H 0.63013 0.96102 0.77014 0.0
C1152 C 0.5939 0.01827 0.78383 0.0
N1153 N 0.60318 0.00706 0.78305 0.0
C1154 C 0.5853 0.02004 0.79614 0.0
C1155 C 0.59591 0.99866 0.80658 0.0
C1156 C 0.6042 0.99724 0.79403 0.0
C1157 C 0.58627 0.01019 0.80779 0.0
H1158 H 0.59312 0.0258 0.77487 0.0
H1159 H 0.61155 0.98834 0.79309 0.0
C1160 C 0.64174 0.99649 0.72388 0.0
N1161 N 0.65283 0.98792 0.69756 0.0
C1162 C 0.64768 0.00666 0.71425 0.0
C1163 C 0.64167 0.98193 0.72022 0.0
C1164 C 0.65316 0.00212 0.70096 0.0
C1165 C 0.64727 0.97782 0.70684 0.0
C1166 C 0.61003 0.03321 0.74684 0.0
C1167 C 0.60535 0.03735 0.733 0.0
C1168 C 0.61293 0.04371 0.75724 0.0
C1169 C 0.60385 0.05197 0.72972 0.0
C1170 C 0.61132 0.05821 0.75353 0.0
N1171 N 0.60686 0.06201 0.73996 0.0
C1172 C 0.58944 0.99268 0.72422 0.0
C1173 C 0.60784 0.00251 0.70906 0.0
C1174 C 0.58036 0.99057 0.71225 0.0
N1175 N 0.60295 0.99842 0.72241 0.0
C1176 C 0.59917 1.0005 0.6968 0.0
C1177 C 0.58525 0.99441 0.69829 0.0
H1178 H 0.58574 0.98968 0.73497 0.0
H1179 H 0.61839 0.00749 0.70792 0.0
C1180 C 0.65612 0.03569 0.75814 0.0
N1181 N 0.64553 0.033 0.74824 0.0
C1182 C 0.66544 0.04755 0.75637 0.0
C1183 C 0.65271 0.05374 0.73431 0.0
C1184 C 0.64377 0.04167 0.73641 0.0
C1185 C 0.66382 0.05681 0.74432 0.0
H1186 H 0.65746 0.02851 0.76734 0.0
H1187 H 0.63545 0.03918 0.72854 0.0
O1188 O 0.61182 0.98682 0.75546 0.0
O1189 O 0.63663 0.00531 0.76915 0.0
O1190 O 0.63636 0.00077 0.73696 0.0
O1191 O 0.61167 0.01896 0.75021 0.0
H1192 H 0.59927 0.97116 0.77614 0.0
H1193 H 0.61305 0.97122 0.73156 0.0
H1194 H 0.59077 0.94591 0.77339 0.0
H1195 H 0.60446 0.94595 0.72961 0.0
H1196 H 0.63521 0.03082 0.81091 0.0
H1197 H 0.64347 0.9842 0.78731 0.0
H1198 H 0.63306 0.02914 0.78414 0.0
H1199 H 0.64554 0.98667 0.81402 0.0
H1200 H 0.64618 0.94037 0.7738 0.0
H1201 H 0.67941 0.96334 0.74961 0.0
H1202 H 0.57785 0.02894 0.79643 0.0
H1203 H 0.5972 0.99089 0.81531 0.0
H1204 H 0.64797 0.01795 0.71695 0.0
H1205 H 0.63751 0.97385 0.72769 0.0
H1206 H 0.6577 0.00989 0.69336 0.0
H1207 H 0.64725 0.96659 0.70387 0.0
H1208 H 0.60298 0.02937 0.72485 0.0
H1209 H 0.61647 0.04068 0.76802 0.0
H1210 H 0.60032 0.05533 0.71903 0.0
H1211 H 0.61362 0.06645 0.76144 0.0
H1212 H 0.56972 0.98579 0.71388 0.0
H1213 H 0.60325 0.0039 0.68628 0.0
H1214 H 0.674 0.04924 0.76424 0.0
H1215 H 0.65085 0.06061 0.72495 0.0
Li1216 Li 0.01449 0.25373 0.87281 0.0
Li1217 Li 0.99895 0.26564 0.89058 0.0
Li1218 Li 0.0031 0.23874 0.89133 0.0
Li1219 Li 0.98739 0.2495 0.87257 0.0
C1220 C 0.03166 0.25781 0.89561 0.0
N1221 N 0.06097 0.26382 0.89778 0.0
C1222 C 0.03646 0.2716 0.89934 0.0
C1223 C 0.04176 0.24702 0.89318 0.0
C1224 C 0.05132 0.27444 0.90034 0.0
C1225 C 0.05653 0.25029 0.89427 0.0
C1226 C 0.99386 0.28075 0.86442 0.0
C1227 C 0.97441 0.29742 0.86033 0.0
N1228 N 0.98411 0.30728 0.85505 0.0
C1229 C 0.00361 0.29098 0.85876 0.0
C1230 C 0.97913 0.28393 0.86506 0.0
C1231 C 0.99848 0.30435 0.85416 0.0
C1232 C 0.03469 0.24562 0.85141 0.0
N1233 N 0.0312 0.25626 0.86075 0.0
C1234 C 0.05138 0.27057 0.85261 0.0
C1235 C 0.03923 0.2686 0.86146 0.0
C1236 C 0.05523 0.25978 0.84281 0.0
C1237 C 0.04671 0.24716 0.84231 0.0
H1238 H 0.02806 0.23597 0.85094 0.0
H1239 H 0.03615 0.27697 0.86885 0.0
C1240 C 0.98876 0.28136 0.91457 0.0
N1241 N 0.99639 0.2825 0.90199 0.0
C1242 C 0.98658 0.29347 0.92313 0.0
C1243 C 1.0005 0.30763 0.90587 0.0
C1244 C 0.00238 0.29526 0.89763 0.0
C1245 C 0.99244 0.30687 0.91879 0.0
H1246 H 0.98434 0.27104 0.91796 0.0
H1247 H 0.00882 0.29581 0.88787 0.0
C1248 C 0.00425 0.22093 0.8686 0.0
N1249 N 0.00594 0.19137 0.86629 0.0
C1250 C 0.99207 0.21286 0.86448 0.0
C1251 C 0.01732 0.21399 0.87137 0.0
C1252 C 0.99314 0.19792 0.8634 0.0
C1253 C 0.01794 0.19903 0.87021 0.0
C1254 C 0.97067 0.24926 0.89837 0.0
C1255 C 0.96457 0.23666 0.90428 0.0
C1256 C 0.96226 0.26162 0.89716 0.0
C1257 C 0.95006 0.23657 0.90858 0.0
C1258 C 0.9478 0.2611 0.90158 0.0
N1259 N 0.94204 0.24868 0.90714 0.0
C1260 C 0.01644 0.22306 0.91396 0.0
C1261 C 0.99702 0.21055 0.90271 0.0
C1262 C 0.01902 0.21133 0.92316 0.0
N1263 N 0.00568 0.22243 0.9039 0.0
C1264 C 0.99926 0.19853 0.91164 0.0
C1265 C 0.01044 0.19878 0.92202 0.0
H1266 H 0.02302 0.2327 0.91488 0.0
H1267 H 0.98842 0.21034 0.89475 0.0
C1268 C 0.97169 0.25267 0.84663 0.0
N1269 N 0.97094 0.24671 0.86015 0.0
C1270 C 0.96029 0.25082 0.83682 0.0
C1271 C 0.94754 0.23664 0.85495 0.0
C1272 C 0.95922 0.23873 0.86441 0.0
C1273 C 0.948 0.24268 0.84092 0.0
H1274 H 0.98121 0.25882 0.84345 0.0
H1275 H 0.95903 0.23369 0.87499 0.0
O1276 O 0.01715 0.25487 0.89438 0.0
O1277 O 0.99873 0.26761 0.86902 0.0
O1278 O 0.00337 0.23555 0.86983 0.0
O1279 O 0.98486 0.24951 0.89408 0.0
H1280 H 0.0288 0.28005 0.90137 0.0
H1281 H 0.03823 0.23626 0.89042 0.0
H1282 H 0.05519 0.28509 0.90314 0.0
H1283 H 0.06447 0.24206 0.89232 0.0
H1284 H 0.96304 0.30002 0.86081 0.0
H1285 H 0.01502 0.28866 0.85802 0.0
H1286 H 0.97137 0.27603 0.86899 0.0
H1287 H 0.00592 0.3124 0.84986 0.0
H1288 H 0.0575 0.28056 0.8532 0.0
H1289 H 0.04934 0.23852 0.83502 0.0
H1290 H 0.98022 0.29236 0.93294 0.0
H1291 H 0.00552 0.31763 0.90226 0.0
H1292 H 0.9819 0.21805 0.8622 0.0
H1293 H 0.02687 0.22007 0.87446 0.0
H1294 H 0.98378 0.19154 0.8603 0.0
H1295 H 0.02797 0.19351 0.87242 0.0
H1296 H 0.97093 0.22704 0.90547 0.0
H1297 H 0.96689 0.27157 0.89302 0.0
H1298 H 0.94518 0.22687 0.91308 0.0
H1299 H 0.94118 0.27059 0.90067 0.0
H1300 H 0.02756 0.21216 0.93119 0.0
H1301 H 0.99244 0.18908 0.91027 0.0
H1302 H 0.96107 0.25575 0.82614 0.0
H1303 H 0.93843 0.23004 0.85847 0.0
Li1304 Li 0.51467 0.75361 0.37327 0.0
Li1305 Li 0.49867 0.76473 0.39118 0.0
Li1306 Li 0.50293 0.73804 0.39205 0.0
Li1307 Li 0.48747 0.74925 0.37329 0.0
C1308 C 0.53089 0.75263 0.39956 0.0
N1309 N 0.55895 0.74924 0.4094 0.0
C1310 C 0.53815 0.76402 0.40634 0.0
C1311 C 0.53783 0.73947 0.39796 0.0
C1312 C 0.55235 0.76211 0.41118 0.0
C1313 C 0.55203 0.73798 0.40296 0.0
C1314 C 0.49723 0.78189 0.36807 0.0
C1315 C 0.48261 0.80318 0.36881 0.0
N1316 N 0.49452 0.81138 0.36561 0.0
C1317 C 0.5093 0.79049 0.36467 0.0
C1318 C 0.48375 0.78825 0.37004 0.0
C1319 C 0.50771 0.80539 0.36351 0.0
C1320 C 0.531 0.75026 0.34779 0.0
N1321 N 0.53132 0.75618 0.36121 0.0
C1322 C 0.55509 0.76582 0.35686 0.0
C1323 C 0.54299 0.76397 0.36581 0.0
C1324 C 0.55514 0.75972 0.34296 0.0
C1325 C 0.54284 0.75187 0.33846 0.0
H1326 H 0.52148 0.74433 0.3443 0.0
H1327 H 0.54287 0.76888 0.37637 0.0
C1328 C 0.48456 0.78253 0.4115 0.0
N1329 N 0.49629 0.78154 0.40269 0.0
C1330 C 0.48253 0.79482 0.41983 0.0
C1331 C 0.50474 0.80481 0.40994 0.0
C1332 C 0.5064 0.79228 0.4019 0.0
C1333 C 0.49266 0.80621 0.41904 0.0
H1334 H 0.47676 0.77378 0.41207 0.0
H1335 H 0.51575 0.79113 0.39498 0.0
C1336 C 0.50727 0.72221 0.36561 0.0
N1337 N 0.51497 0.6956 0.35517 0.0
C1338 C 0.49665 0.71266 0.36053 0.0
C1339 C 0.52184 0.7183 0.36515 0.0
C1340 C 0.50075 0.69923 0.35537 0.0
C1341 C 0.52551 0.70479 0.35989 0.0
C1342 C 0.47038 0.74509 0.39677 0.0
C1343 C 0.46657 0.73138 0.40197 0.0
C1344 C 0.45954 0.75502 0.39358 0.0
C1345 C 0.45194 0.72776 0.40373 0.0
C1346 C 0.44503 0.75098 0.39546 0.0
N1347 N 0.44157 0.73755 0.40045 0.0
C1348 C 0.51048 0.72472 0.41838 0.0
C1349 C 0.5029 0.70812 0.4005 0.0
C1350 C 0.51306 0.71351 0.42823 0.0
N1351 N 0.50565 0.72185 0.40476 0.0
C1352 C 0.50538 0.69657 0.40998 0.0
C1353 C 0.51062 0.69917 0.42406 0.0
H1354 H 0.51238 0.73575 0.42157 0.0
H1355 H 0.49875 0.70608 0.38977 0.0
C1356 C 0.469 0.75575 0.34972 0.0
N1357 N 0.47102 0.74635 0.36092 0.0
C1358 C 0.4573 0.75398 0.34024 0.0
C1359 C 0.44985 0.73294 0.35406 0.0
C1360 C 0.46181 0.73501 0.36313 0.0
C1361 C 0.44746 0.74245 0.34233 0.0
H1362 H 0.4766 0.76455 0.34804 0.0
H1363 H 0.46376 0.7275 0.37192 0.0
O1364 O 0.51699 0.75436 0.39473 0.0
O1365 O 0.49863 0.76731 0.3695 0.0
O1366 O 0.50343 0.73542 0.37064 0.0
O1367 O 0.48464 0.7488 0.39493 0.0
H1368 H 0.53289 0.77424 0.40778 0.0
H1369 H 0.53228 0.73046 0.39305 0.0
H1370 H 0.55813 0.77085 0.41637 0.0
H1371 H 0.55754 0.72785 0.40177 0.0
H1372 H 0.47226 0.80827 0.37041 0.0
H1373 H 0.51981 0.78573 0.36308 0.0
H1374 H 0.47429 0.78172 0.37258 0.0
H1375 H 0.51698 0.8122 0.36098 0.0
H1376 H 0.56433 0.77188 0.36085 0.0
H1377 H 0.54225 0.74721 0.32776 0.0
H1378 H 0.47302 0.79549 0.42664 0.0
H1379 H 0.51292 0.81324 0.40917 0.0
H1380 H 0.48534 0.71553 0.36068 0.0
H1381 H 0.53026 0.72567 0.36866 0.0
H1382 H 0.49262 0.6917 0.3515 0.0
H1383 H 0.53674 0.70162 0.35951 0.0
H1384 H 0.47482 0.72359 0.40455 0.0
H1385 H 0.4623 0.76569 0.3896 0.0
H1386 H 0.44883 0.71716 0.40768 0.0
H1387 H 0.43653 0.75852 0.39295 0.0
H1388 H 0.51679 0.71609 0.43905 0.0
H1389 H 0.50341 0.68572 0.40623 0.0
H1390 H 0.45615 0.76143 0.33122 0.0
H1391 H 0.44253 0.72401 0.35629 0.0
Li1392 Li 0.00137 0.76296 0.62069 0.0
Li1393 Li 0.98601 0.75056 0.63873 0.0
Li1394 Li 0.01298 0.74677 0.63884 0.0
Li1395 Li 0.99701 0.73603 0.62033 0.0
C1396 C 0.00803 0.77715 0.64746 0.0
N1397 N 0.02042 0.80211 0.65818 0.0
C1398 C 0.99953 0.78709 0.65476 0.0
C1399 C 0.02287 0.77982 0.64582 0.0
C1400 C 0.00598 0.79967 0.66004 0.0
C1401 C 0.02892 0.79251 0.65126 0.0
C1402 C 0.96877 0.75541 0.61642 0.0
C1403 C 0.9435 0.74875 0.6182 0.0
N1404 N 0.93985 0.76265 0.61545 0.0
C1405 C 0.96478 0.76961 0.61351 0.0
C1406 C 0.95806 0.74486 0.61867 0.0
C1407 C 0.95009 0.77306 0.6131 0.0
C1408 C 0.00808 0.77776 0.59481 0.0
N1409 N 0.00391 0.77976 0.60878 0.0
C1410 C 0.00355 0.80527 0.60504 0.0
C1411 C 0.00147 0.79316 0.61396 0.0
C1412 C 0.00801 0.80354 0.5906 0.0
C1413 C 0.01022 0.78955 0.5855 0.0
H1414 H 0.00982 0.76697 0.59094 0.0
H1415 H 0.99777 0.7945 0.62495 0.0
C1416 C 0.96417 0.74178 0.65883 0.0
N1417 N 0.96932 0.75298 0.65068 0.0
C1418 C 0.95194 0.74344 0.66754 0.0
C1419 C 0.95056 0.76817 0.65935 0.0
C1420 C 0.96281 0.76602 0.65081 0.0
C1421 C 0.94496 0.7568 0.6679 0.0
H1422 H 0.96958 0.73154 0.6586 0.0
H1423 H 0.96714 0.77477 0.64426 0.0
C1424 C 0.02898 0.74815 0.61173 0.0
N1425 N 0.05653 0.75023 0.6001 0.0
C1426 C 0.03538 0.73613 0.60554 0.0
C1427 C 0.03651 0.7613 0.61174 0.0
C1428 C 0.04934 0.73737 0.5998 0.0
C1429 C 0.05044 0.76212 0.60587 0.0
C1430 C 0.996 0.71785 0.64289 0.0
C1431 C 0.00804 0.70992 0.64727 0.0
C1432 C 0.98303 0.7107 0.63952 0.0
C1433 C 0.00696 0.69492 0.64802 0.0
C1434 C 0.9824 0.69568 0.64038 0.0
N1435 N 0.99427 0.68817 0.64457 0.0
C1436 C 0.02956 0.74925 0.66451 0.0
C1437 C 0.04145 0.73697 0.64563 0.0
C1438 C 0.04168 0.74786 0.67351 0.0
N1439 N 0.02973 0.74401 0.65078 0.0
C1440 C 0.05381 0.73539 0.65423 0.0
C1441 C 0.05408 0.74096 0.66834 0.0
H1442 H 0.02004 0.75466 0.6684 0.0
H1443 H 0.0412 0.7325 0.63489 0.0
C1444 C 0.98347 0.71953 0.59825 0.0
N1445 N 0.99457 0.71976 0.60796 0.0
C1446 C 0.98135 0.70766 0.58926 0.0
C1447 C 0.00218 0.69651 0.60037 0.0
C1448 C 0.00395 0.70863 0.60906 0.0
C1449 C 0.99074 0.6959 0.59032 0.0
H1450 H 0.97622 0.72855 0.5975 0.0
H1451 H 0.01279 0.70913 0.61674 0.0
O1452 O 0.00185 0.76478 0.64222 0.0
O1453 O 0.98309 0.75188 0.61714 0.0
O1454 O 0.01527 0.74711 0.61736 0.0
O1455 O 0.99691 0.73253 0.64193 0.0
H1456 H 0.98807 0.78514 0.65631 0.0
H1457 H 0.0297 0.77209 0.64061 0.0
H1458 H 0.99951 0.80749 0.66563 0.0
H1459 H 0.0404 0.7947 0.65004 0.0
H1460 H 0.9351 0.74072 0.62003 0.0
H1461 H 0.97292 0.7779 0.61173 0.0
H1462 H 0.96098 0.73382 0.6209 0.0
H1463 H 0.94684 0.78402 0.61095 0.0
H1464 H 0.00147 0.81584 0.60934 0.0
H1465 H 0.01376 0.78773 0.57448 0.0
H1466 H 0.94793 0.73433 0.67383 0.0
H1467 H 0.94569 0.77871 0.65944 0.0
H1468 H 0.02968 0.72591 0.60525 0.0
H1469 H 0.03161 0.77084 0.61604 0.0
H1470 H 0.05445 0.72812 0.59508 0.0
H1471 H 0.05638 0.77222 0.60585 0.0
H1472 H 0.01814 0.71528 0.64997 0.0
H1473 H 0.97361 0.71666 0.63612 0.0
H1474 H 0.01621 0.68865 0.65132 0.0
H1475 H 0.97247 0.69 0.63769 0.0
H1476 H 0.04144 0.75238 0.68428 0.0
H1477 H 0.06302 0.72973 0.64991 0.0
H1478 H 0.97234 0.70759 0.58172 0.0
H1479 H 0.0098 0.68779 0.6014 0.0
Li1480 Li 0.50021 0.26206 0.12075 0.0
Li1481 Li 0.48404 0.25051 0.13878 0.0
Li1482 Li 0.51114 0.24605 0.13946 0.0
Li1483 Li 0.4953 0.2353 0.12086 0.0
C1484 C 0.50413 0.27769 0.14691 0.0
N1485 N 0.51174 0.3048 0.15661 0.0
C1486 C 0.49343 0.28728 0.15115 0.0
C1487 C 0.51872 0.2818 0.14788 0.0
C1488 C 0.49749 0.30096 0.15594 0.0
C1489 C 0.52234 0.29557 0.15274 0.0
C1490 C 0.46748 0.25439 0.11478 0.0
C1491 C 0.44225 0.24734 0.11532 0.0
N1492 N 0.43863 0.26058 0.11017 0.0
C1493 C 0.46352 0.26789 0.10938 0.0
C1494 C 0.45678 0.24398 0.11767 0.0
C1495 C 0.44887 0.27083 0.10716 0.0
C1496 C 0.51098 0.2769 0.09613 0.0
N1497 N 0.50348 0.27867 0.10864 0.0
C1498 C 0.50083 0.30379 0.10345 0.0
C1499 C 0.49822 0.29174 0.11232 0.0
C1500 C 0.50888 0.30235 0.09063 0.0
C1501 C 0.51391 0.28864 0.08698 0.0
H1502 H 0.5147 0.26633 0.09322 0.0
H1503 H 0.49188 0.29283 0.12205 0.0
C1504 C 0.46515 0.24409 0.16211 0.0
N1505 N 0.46739 0.25331 0.15075 0.0
C1506 C 0.45347 0.24602 0.17149 0.0
C1507 C 0.44644 0.26673 0.15718 0.0
C1508 C 0.45837 0.26453 0.1482 0.0
C1509 C 0.44394 0.25747 0.16907 0.0
H1510 H 0.47256 0.23535 0.164 0.0
H1511 H 0.46055 0.27193 0.13935 0.0
C1512 C 0.52816 0.24701 0.11397 0.0
N1513 N 0.5569 0.2493 0.10582 0.0
C1514 C 0.53493 0.23549 0.10723 0.0
C1515 C 0.53594 0.25975 0.11637 0.0
C1516 C 0.54949 0.23684 0.10325 0.0
C1517 C 0.55047 0.26068 0.11222 0.0
C1518 C 0.49282 0.21773 0.14383 0.0
C1519 C 0.50463 0.20906 0.14725 0.0
C1520 C 0.47914 0.21144 0.14184 0.0
C1521 C 0.5026 0.19416 0.14837 0.0
C1522 C 0.47756 0.1965 0.14303 0.0
N1523 N 0.48922 0.18824 0.14623 0.0
C1524 C 0.52765 0.2494 0.16508 0.0
C1525 C 0.53875 0.23492 0.14738 0.0
C1526 C 0.5395 0.24772 0.17438 0.0
N1527 N 0.52756 0.24316 0.1518 0.0
C1528 C 0.55085 0.23303 0.15629 0.0
C1529 C 0.55139 0.23951 0.17 0.0
H1530 H 0.51849 0.25569 0.16845 0.0
H1531 H 0.53829 0.22974 0.13697 0.0
C1532 C 0.48167 0.21817 0.09927 0.0
N1533 N 0.49287 0.21878 0.10885 0.0
C1534 C 0.4798 0.20619 0.09038 0.0
C1535 C 0.50107 0.19572 0.10131 0.0
C1536 C 0.50258 0.20793 0.10992 0.0
C1537 C 0.48956 0.19473 0.09136 0.0
H1538 H 0.47421 0.227 0.09847 0.0
H1539 H 0.51155 0.20879 0.11743 0.0
O1540 O 0.50034 0.26421 0.14226 0.0
O1541 O 0.48176 0.25136 0.11711 0.0
O1542 O 0.51394 0.24582 0.11804 0.0
O1543 O 0.49464 0.23231 0.14247 0.0
H1544 H 0.48211 0.28425 0.15064 0.0
H1545 H 0.52718 0.2744 0.14508 0.0
H1546 H 0.4893 0.30853 0.15914 0.0
H1547 H 0.53358 0.29889 0.15349 0.0
H1548 H 0.43386 0.23941 0.1176 0.0
H1549 H 0.47165 0.27603 0.10698 0.0
H1550 H 0.45966 0.23345 0.12174 0.0
H1551 H 0.44564 0.28126 0.10305 0.0
H1552 H 0.49674 0.31414 0.10668 0.0
H1553 H 0.51988 0.28697 0.07704 0.0
H1554 H 0.45189 0.23863 0.18053 0.0
H1555 H 0.43948 0.27582 0.15508 0.0
H1556 H 0.52904 0.2256 0.10516 0.0
H1557 H 0.53078 0.26888 0.12122 0.0
H1558 H 0.55489 0.22798 0.09811 0.0
H1559 H 0.55663 0.27048 0.11404 0.0
H1560 H 0.51527 0.21376 0.14889 0.0
H1561 H 0.46986 0.21802 0.13937 0.0
H1562 H 0.51166 0.1873 0.15091 0.0
H1563 H 0.46705 0.19148 0.14143 0.0
H1564 H 0.53927 0.2527 0.18495 0.0
H1565 H 0.55977 0.2267 0.15235 0.0
H1566 H 0.47072 0.20584 0.08294 0.0
H1567 H 0.50898 0.18725 0.10227 0.0
H1568 H 0.21119 0.77141 0.82869 0.0
H1569 H 0.21205 0.7856 0.8509 0.0
H1570 H 0.24784 0.76036 0.86652 0.0
H1571 H 0.24691 0.74597 0.84441 0.0
H1572 H 0.22756 0.76557 0.88797 0.0
H1573 H 0.25441 0.7925 0.85184 0.0
H1574 H 0.25803 0.80446 0.82809 0.0
H1575 H 0.22269 0.83272 0.83672 0.0
H1576 H 0.21872 0.82078 0.86045 0.0
H1577 H 0.25363 0.81203 0.94302 0.0
H1578 H 0.25091 0.79667 0.92179 0.0
H1579 H 0.21875 0.82537 0.90427 0.0
H1580 H 0.22164 0.84091 0.92538 0.0
H1581 H 0.23658 0.81819 0.88375 0.0
H1582 H 0.20976 0.79192 0.91993 0.0
H1583 H 0.20563 0.77997 0.94361 0.0
H1584 H 0.23998 0.75054 0.93497 0.0
H1585 H 0.24445 0.76244 0.91131 0.0
C1586 C 0.21911 0.76874 0.83694 0.0
C1587 C 0.22902 0.7576 0.83477 0.0
C1588 C 0.21965 0.77693 0.84958 0.0
C1589 C 0.23011 0.77414 0.86029 0.0
C1590 C 0.23972 0.76273 0.85837 0.0
C1591 C 0.23923 0.75458 0.8457 0.0
C1592 C 0.23132 0.78338 0.87328 0.0
C1593 C 0.22969 0.77705 0.88708 0.0
C1594 C 0.23375 0.79841 0.87209 0.0
C1595 C 0.23617 0.80565 0.85785 0.0
C1596 C 0.24733 0.80119 0.84862 0.0
C1597 C 0.24946 0.80798 0.83517 0.0
C1598 C 0.24057 0.81932 0.83088 0.0
C1599 C 0.22956 0.82392 0.84005 0.0
C1600 C 0.22737 0.81715 0.8535 0.0
C1601 C 0.24588 0.81499 0.93469 0.0
C1602 C 0.23781 0.82765 0.93589 0.0
C1603 C 0.24432 0.80619 0.92257 0.0
C1604 C 0.23446 0.80973 0.91149 0.0
C1605 C 0.22642 0.8224 0.91266 0.0
C1606 C 0.22809 0.83128 0.92471 0.0
C1607 C 0.2328 0.80042 0.89853 0.0
C1608 C 0.23438 0.80673 0.8847 0.0
C1609 C 0.23022 0.78538 0.89971 0.0
C1610 C 0.22752 0.77816 0.91391 0.0
C1611 C 0.2165 0.78297 0.92313 0.0
C1612 C 0.21409 0.77619 0.93654 0.0
C1613 C 0.22256 0.76453 0.94081 0.0
C1614 C 0.23344 0.75959 0.93165 0.0
C1615 C 0.23591 0.76633 0.91824 0.0
H1616 H 0.22068 0.75929 0.95119 0.0
H1617 H 0.24224 0.82456 0.82047 0.0
H1618 H 0.03238 0.53006 0.43378 0.0
H1619 H 0.04532 0.52864 0.41081 0.0
H1620 H 0.00511 0.51957 0.38861 0.0
H1621 H 0.99214 0.52035 0.4117 0.0
H1622 H 0.02543 0.50178 0.37993 0.0
H1623 H 0.02239 0.55272 0.38555 0.0
H1624 H 0.02496 0.5759 0.39811 0.0
H1625 H 0.07093 0.57007 0.40127 0.0
H1626 H 0.06861 0.54674 0.3889 0.0
H1627 H 0.056 0.50965 0.30936 0.0
H1628 H 0.04129 0.51337 0.33102 0.0
H1629 H 0.08007 0.52041 0.35625 0.0
H1630 H 0.09484 0.51709 0.33457 0.0
H1631 H 0.05943 0.53994 0.36256 0.0
H1632 H 0.06211 0.48847 0.35797 0.0
H1633 H 0.05945 0.46531 0.34535 0.0
H1634 H 0.01386 0.47242 0.34012 0.0
H1635 H 0.01628 0.49572 0.35254 0.0
C1636 C 0.02627 0.5277 0.42404 0.0
C1637 C 0.0112 0.52528 0.42463 0.0
C1638 C 0.03368 0.52706 0.41086 0.0
C1639 C 0.02619 0.52416 0.39792 0.0
C1640 C 0.01113 0.52187 0.39843 0.0
C1641 C 0.0037 0.52246 0.41163 0.0
C1642 C 0.03417 0.52297 0.38398 0.0
C1643 C 0.03266 0.51025 0.37601 0.0
C1644 C 0.04386 0.53387 0.37899 0.0
C1645 C 0.04531 0.54792 0.3864 0.0
C1646 C 0.03304 0.55633 0.38902 0.0
C1647 C 0.03445 0.5695 0.39609 0.0
C1648 C 0.0481 0.57444 0.40052 0.0
C1649 C 0.06037 0.56622 0.39785 0.0
C1650 C 0.05901 0.55303 0.39079 0.0
C1651 C 0.06139 0.51213 0.31948 0.0
C1652 C 0.0766 0.51301 0.32024 0.0
C1653 C 0.05297 0.51413 0.33189 0.0
C1654 C 0.05958 0.51702 0.3453 0.0
C1655 C 0.07474 0.51815 0.34603 0.0
C1656 C 0.08317 0.51612 0.33365 0.0
C1657 C 0.05074 0.51874 0.35861 0.0
C1658 C 0.0521 0.53155 0.36645 0.0
C1659 C 0.04089 0.50794 0.36347 0.0
C1660 C 0.03941 0.49391 0.35605 0.0
C1661 C 0.05154 0.48515 0.35403 0.0
C1662 C 0.05007 0.47199 0.34693 0.0
C1663 C 0.0365 0.46742 0.3419 0.0
C1664 C 0.02437 0.47598 0.344 0.0
C1665 C 0.02578 0.48916 0.35108 0.0
H1666 H 0.03539 0.45723 0.33641 0.0
H1667 H 0.04917 0.58465 0.40599 0.0
H1668 H 0.76976 0.74914 0.83623 0.0
H1669 H 0.76342 0.7314 0.8551 0.0
H1670 H 0.79324 0.75204 0.8846 0.0
H1671 H 0.79949 0.76984 0.86593 0.0
H1672 H 0.79661 0.72326 0.88474 0.0
H1673 H 0.75683 0.75628 0.88778 0.0
H1674 H 0.7362 0.77011 0.87825 0.0
H1675 H 0.71453 0.73085 0.86621 0.0
H1676 H 0.73514 0.71679 0.87549 0.0
H1677 H 0.77684 0.69281 0.9521 0.0
H1678 H 0.78111 0.70944 0.93187 0.0
H1679 H 0.74946 0.68653 0.90618 0.0
H1680 H 0.7447 0.67013 0.92663 0.0
H1681 H 0.74654 0.71507 0.90277 0.0
H1682 H 0.78556 0.68191 0.90055 0.0
H1683 H 0.80611 0.66784 0.90989 0.0
H1684 H 0.82919 0.7069 0.9199 0.0
H1685 H 0.80869 0.7212 0.91081 0.0
C1686 C 0.77484 0.75 0.84678 0.0
C1687 C 0.78519 0.76088 0.84953 0.0
C1688 C 0.77123 0.73983 0.85755 0.0
C1689 C 0.77783 0.74042 0.87129 0.0
C1690 C 0.78808 0.75132 0.87406 0.0
C1691 C 0.79168 0.76146 0.86334 0.0
C1692 C 0.77432 0.72958 0.88276 0.0
C1693 C 0.78568 0.72158 0.88879 0.0
C1694 C 0.76 0.72706 0.88773 0.0
C1695 C 0.7476 0.7355 0.88218 0.0
C1696 C 0.74772 0.7506 0.88299 0.0
C1697 C 0.73602 0.75848 0.87765 0.0
C1698 C 0.72408 0.75137 0.87159 0.0
C1699 C 0.7238 0.73635 0.87088 0.0
C1700 C 0.73548 0.72842 0.87619 0.0
C1701 C 0.77064 0.69139 0.94223 0.0
C1702 C 0.76043 0.68009 0.94101 0.0
C1703 C 0.77321 0.70083 0.93059 0.0
C1704 C 0.76576 0.69911 0.91741 0.0
C1705 C 0.75539 0.68802 0.91622 0.0
C1706 C 0.75278 0.67857 0.92788 0.0
C1707 C 0.76887 0.70892 0.90492 0.0
C1708 C 0.75745 0.71669 0.89867 0.0
C1709 C 0.78314 0.71119 0.89969 0.0
C1710 C 0.79553 0.70263 0.90511 0.0
C1711 C 0.79497 0.6875 0.90484 0.0
C1712 C 0.80662 0.67948 0.91008 0.0
C1713 C 0.81894 0.68647 0.91552 0.0
C1714 C 0.81964 0.7015 0.9157 0.0
C1715 C 0.80801 0.70957 0.91049 0.0
H1716 H 0.82794 0.68025 0.91956 0.0
H1717 H 0.71503 0.75748 0.86747 0.0
H1718 H 0.99112 0.97349 0.42679 0.0
H1719 H 0.97276 0.97967 0.40861 0.0
H1720 H 0.00392 0.97324 0.37452 0.0
H1721 H 0.02228 0.96721 0.39259 0.0
H1722 H 0.98898 0.99664 0.36907 0.0
H1723 H 0.97734 0.9478 0.38325 0.0
H1724 H 0.97126 0.92816 0.40048 0.0
H1725 H 0.93295 0.95041 0.41336 0.0
H1726 H 0.93892 0.97028 0.39634 0.0
H1727 H 0.94373 0.98709 0.3079 0.0
H1728 H 0.96058 0.98346 0.32801 0.0
H1729 H 0.92705 0.99409 0.35846 0.0
H1730 H 0.91014 0.99802 0.33836 0.0
H1731 H 0.9421 0.97006 0.36688 0.0
H1732 H 0.95319 0.01821 0.35121 0.0
H1733 H 0.95934 0.03741 0.33352 0.0
H1734 H 0.99885 0.01599 0.32302 0.0
H1735 H 0.99284 0.99654 0.3405 0.0
C1736 C 0.99402 0.97337 0.41542 0.0
C1737 C 0.00816 0.96987 0.41113 0.0
C1738 C 0.98352 0.97689 0.40503 0.0
C1739 C 0.9869 0.97678 0.39017 0.0
C1740 C 0.00106 0.97346 0.38591 0.0
C1741 C 0.01156 0.97005 0.39627 0.0
C1742 C 0.97575 0.98 0.37897 0.0
C1743 C 0.9788 0.99072 0.36852 0.0
C1744 C 0.96228 0.97255 0.37844 0.0
C1745 C 0.95866 0.96059 0.38864 0.0
C1746 C 0.96768 0.94855 0.38984 0.0
C1747 C 0.96425 0.93737 0.39955 0.0
C1748 C 0.95175 0.93806 0.40804 0.0
C1749 C 0.94264 0.94991 0.4068 0.0
C1750 C 0.94604 0.96113 0.39712 0.0
C1751 C 0.93996 0.98885 0.31885 0.0
C1752 C 0.92559 0.99296 0.32148 0.0
C1753 C 0.9496 0.98671 0.33035 0.0
C1754 C 0.94511 0.98866 0.34473 0.0
C1755 C 0.93074 0.99254 0.34744 0.0
C1756 C 0.92108 0.99473 0.33594 0.0
C1757 C 0.95546 0.98652 0.3569 0.0
C1758 C 0.95225 0.97603 0.36751 0.0
C1759 C 0.96881 0.99413 0.35755 0.0
C1760 C 0.9725 0.00585 0.34708 0.0
C1761 C 0.96314 0.01753 0.34505 0.0
C1762 C 0.96661 0.02847 0.33507 0.0
C1763 C 0.97946 0.0279 0.32712 0.0
C1764 C 0.98889 0.01641 0.32917 0.0
C1765 C 0.98547 0.00543 0.33912 0.0
H1766 H 0.98213 0.03638 0.3194 0.0
H1767 H 0.94911 0.92939 0.41555 0.0
H1768 H 0.23911 0.25506 0.66751 0.0
H1769 H 0.24573 0.23647 0.65016 0.0
H1770 H 0.20169 0.23488 0.63451 0.0
H1771 H 0.1949 0.25305 0.65209 0.0
H1772 H 0.21224 0.2084 0.63709 0.0
H1773 H 0.22836 0.25363 0.6162 0.0
H1774 H 0.24193 0.27666 0.61568 0.0
H1775 H 0.28196 0.25404 0.62055 0.0
H1776 H 0.2686 0.23087 0.6213 0.0
H1777 H 0.21909 0.17907 0.56707 0.0
H1778 H 0.21506 0.19475 0.58769 0.0
H1779 H 0.25979 0.19055 0.60039 0.0
H1780 H 0.26388 0.17453 0.57993 0.0
H1781 H 0.25076 0.21867 0.60081 0.0
H1782 H 0.23445 0.17318 0.61951 0.0
H1783 H 0.22064 0.1503 0.61948 0.0
H1784 H 0.18071 0.1735 0.61836 0.0
H1785 H 0.19429 0.19654 0.61815 0.0
C1786 C 0.2308 0.25062 0.6605 0.0
C1787 C 0.2165 0.25564 0.6611 0.0
C1788 C 0.23463 0.24008 0.6505 0.0
C1789 C 0.22425 0.23442 0.64089 0.0
C1790 C 0.2099 0.23913 0.64176 0.0
C1791 C 0.20607 0.24962 0.65173 0.0
C1792 C 0.22828 0.22381 0.62968 0.0
C1793 C 0.22059 0.2107 0.62909 0.0
C1794 C 0.23943 0.22663 0.61945 0.0
C1795 C 0.24747 0.24054 0.61898 0.0
C1796 C 0.24005 0.25358 0.61728 0.0
C1797 C 0.2477 0.26665 0.61692 0.0
C1798 C 0.2628 0.26681 0.61812 0.0
C1799 C 0.27027 0.25389 0.61965 0.0
C1800 C 0.26266 0.24079 0.62003 0.0
C1801 C 0.22804 0.18127 0.57434 0.0
C1802 C 0.2418 0.17544 0.57184 0.0
C1803 C 0.22572 0.1903 0.58611 0.0
C1804 C 0.23709 0.19371 0.59566 0.0
C1805 C 0.25087 0.18806 0.59315 0.0
C1806 C 0.2532 0.17895 0.5814 0.0
C1807 C 0.23455 0.20339 0.6081 0.0
C1808 C 0.24252 0.21631 0.60891 0.0
C1809 C 0.22362 0.20042 0.6185 0.0
C1810 C 0.2154 0.18659 0.61869 0.0
C1811 C 0.22273 0.17341 0.61914 0.0
C1812 C 0.21494 0.16041 0.61919 0.0
C1813 C 0.19981 0.16045 0.61889 0.0
C1814 C 0.19244 0.17349 0.61858 0.0
C1815 C 0.20017 0.18652 0.61851 0.0
H1816 H 0.1938 0.15038 0.61893 0.0
H1817 H 0.2687 0.27694 0.61784 0.0
H1818 H 0.49457 0.5481 0.59125 0.0
H1819 H 0.47512 0.54226 0.60834 0.0
H1820 H 0.50241 0.5111 0.62957 0.0
H1821 H 0.52167 0.51639 0.61211 0.0
H1822 H 0.47525 0.50117 0.6281 0.0
H1823 H 0.49847 0.54544 0.64288 0.0
H1824 H 0.50728 0.57042 0.63954 0.0
H1825 H 0.46395 0.5842 0.63044 0.0
H1826 H 0.45491 0.55926 0.63355 0.0
H1827 H 0.4419 0.49656 0.69725 0.0
H1828 H 0.45843 0.50034 0.67688 0.0
H1829 H 0.42924 0.53134 0.65816 0.0
H1830 H 0.41294 0.52809 0.67883 0.0
H1831 H 0.45613 0.5413 0.65723 0.0
H1832 H 0.43267 0.49707 0.64412 0.0
H1833 H 0.42402 0.47208 0.64772 0.0
H1834 H 0.46779 0.45813 0.65391 0.0
H1835 H 0.47669 0.48308 0.65055 0.0
C1836 C 0.49635 0.53978 0.59935 0.0
C1837 C 0.50977 0.53282 0.60037 0.0
C1838 C 0.48525 0.53657 0.60923 0.0
C1839 C 0.48739 0.52645 0.62043 0.0
C1840 C 0.50053 0.51903 0.62109 0.0
C1841 C 0.5116 0.52217 0.61118 0.0
C1842 C 0.47623 0.524 0.63184 0.0
C1843 C 0.47116 0.50993 0.63456 0.0
C1844 C 0.47064 0.53546 0.64007 0.0
C1845 C 0.47604 0.55047 0.6383 0.0
C1846 C 0.49084 0.55379 0.64007 0.0
C1847 C 0.49587 0.56794 0.63823 0.0
C1848 C 0.48619 0.57889 0.63474 0.0
C1849 C 0.47144 0.57571 0.63312 0.0
C1850 C 0.46635 0.56157 0.63493 0.0
C1851 C 0.43902 0.50426 0.68886 0.0
C1852 C 0.42607 0.51204 0.68972 0.0
C1853 C 0.44841 0.50627 0.67711 0.0
C1854 C 0.445 0.51598 0.66587 0.0
C1855 C 0.43208 0.52373 0.66667 0.0
C1856 C 0.4227 0.52177 0.67844 0.0
C1857 C 0.45519 0.51845 0.65357 0.0
C1858 C 0.46011 0.53254 0.6507 0.0
C1859 C 0.46065 0.507 0.64524 0.0
C1860 C 0.45533 0.49197 0.6472 0.0
C1861 C 0.44044 0.48869 0.64635 0.0
C1862 C 0.43549 0.47453 0.64833 0.0
C1863 C 0.44534 0.46353 0.65107 0.0
C1864 C 0.46017 0.46666 0.6518 0.0
C1865 C 0.46517 0.48081 0.64984 0.0
H1866 H 0.44149 0.45257 0.65261 0.0
H1867 H 0.4901 0.58984 0.63332 0.0
H1868 H 0.80803 0.26056 0.66083 0.0
H1869 H 0.80075 0.27844 0.64279 0.0
H1870 H 0.75835 0.25858 0.64029 0.0
H1871 H 0.7658 0.24017 0.65779 0.0
H1872 H 0.76795 0.26358 0.61422 0.0
H1873 H 0.76435 0.29187 0.65683 0.0
H1874 H 0.77225 0.30253 0.67996 0.0
H1875 H 0.80725 0.32454 0.65815 0.0
H1876 H 0.79969 0.31385 0.63491 0.0
H1877 H 0.73914 0.32032 0.57054 0.0
H1878 H 0.74346 0.30429 0.59126 0.0
H1879 H 0.7885 0.31706 0.5916 0.0
H1880 H 0.78445 0.33276 0.5706 0.0
H1881 H 0.77582 0.31618 0.61942 0.0
H1882 H 0.77967 0.28626 0.57709 0.0
H1883 H 0.77107 0.27577 0.55412 0.0
H1884 H 0.73432 0.25705 0.5761 0.0
H1885 H 0.74261 0.26762 0.59918 0.0
C1886 C 0.79715 0.25996 0.65644 0.0
C1887 C 0.78754 0.24884 0.66074 0.0
C1888 C 0.79294 0.27033 0.64624 0.0
C1889 C 0.77893 0.26998 0.64026 0.0
C1890 C 0.7692 0.2591 0.64477 0.0
C1891 C 0.77344 0.24866 0.6549 0.0
C1892 C 0.77477 0.28045 0.62869 0.0
C1893 C 0.76942 0.2751 0.6155 0.0
C1894 C 0.77693 0.29549 0.63019 0.0
C1895 C 0.78152 0.30195 0.64414 0.0
C1896 C 0.7738 0.29889 0.65698 0.0
C1897 C 0.77821 0.30496 0.67011 0.0
C1898 C 0.79026 0.31418 0.67053 0.0
C1899 C 0.79792 0.31738 0.65781 0.0
C1900 C 0.79357 0.31134 0.64465 0.0
C1901 C 0.75001 0.31965 0.57491 0.0
C1902 C 0.76146 0.32782 0.56879 0.0
C1903 C 0.75242 0.31055 0.58682 0.0
C1904 C 0.76631 0.30945 0.59291 0.0
C1905 C 0.77769 0.31781 0.5871 0.0
C1906 C 0.77532 0.32683 0.57511 0.0
C1907 C 0.76911 0.29925 0.60506 0.0
C1908 C 0.77423 0.30466 0.61829 0.0
C1909 C 0.76663 0.28428 0.60366 0.0
C1910 C 0.76168 0.27786 0.58982 0.0
C1911 C 0.76969 0.28001 0.577 0.0
C1912 C 0.76489 0.27404 0.56397 0.0
C1913 C 0.75213 0.26579 0.56365 0.0
C1914 C 0.74418 0.26347 0.57637 0.0
C1915 C 0.74894 0.26944 0.58942 0.0
H1916 H 0.74843 0.26117 0.55355 0.0
H1917 H 0.79366 0.31887 0.6807 0.0
H1918 H 0.52991 0.97104 0.57322 0.0
H1919 H 0.54247 0.97252 0.59648 0.0
H1920 H 0.50491 0.99193 0.61555 0.0
H1921 H 0.49243 0.99098 0.59212 0.0
H1922 H 0.52881 0.00618 0.62312 0.0
H1923 H 0.51385 0.95688 0.62328 0.0
H1924 H 0.51089 0.93235 0.61369 0.0
H1925 H 0.55709 0.92789 0.61189 0.0
H1926 H 0.56034 0.95248 0.62129 0.0
H1927 H 0.55635 1.00015 0.69534 0.0
H1928 H 0.54114 0.99688 0.67379 0.0
H1929 H 0.57779 0.98052 0.65046 0.0
H1930 H 0.593 0.98358 0.67201 0.0
H1931 H 0.55289 0.96428 0.64611 0.0
H1932 H 0.5675 0.01425 0.64474 0.0
H1933 H 0.57022 0.03874 0.6545 0.0
H1934 H 0.52405 0.04168 0.6589 0.0
H1935 H 0.52107 0.01711 0.64935 0.0
C1936 C 0.52432 0.97568 0.58234 0.0
C1937 C 0.51016 0.98093 0.58077 0.0
C1938 C 0.53147 0.97638 0.59569 0.0
C1939 C 0.52459 0.98219 0.60783 0.0
C1940 C 0.51042 0.98734 0.60635 0.0
C1941 C 0.50326 0.98668 0.59298 0.0
C1942 C 0.53242 0.98336 0.62189 0.0
C1943 C 0.53385 0.99696 0.62828 0.0
C1944 C 0.53924 0.97139 0.62851 0.0
C1945 C 0.53734 0.95658 0.62288 0.0
C1946 C 0.52339 0.95071 0.62074 0.0
C1947 C 0.52165 0.93679 0.61535 0.0
C1948 C 0.5338 0.92858 0.61215 0.0
C1949 C 0.5477 0.93427 0.61436 0.0
C1950 C 0.54949 0.9482 0.61973 0.0
C1951 C 0.56113 0.99573 0.68566 0.0
C1952 C 0.57589 0.99217 0.68535 0.0
C1953 C 0.55245 0.99396 0.67333 0.0
C1954 C 0.55836 0.98856 0.66049 0.0
C1955 C 0.57302 0.98473 0.66024 0.0
C1956 C 0.58172 0.98659 0.67252 0.0
C1957 C 0.54936 0.98709 0.64721 0.0
C1958 C 0.54773 0.97345 0.64099 0.0
C1959 C 0.5423 0.999 0.64078 0.0
C1960 C 0.54408 0.01378 0.64649 0.0
C1961 C 0.55794 0.02007 0.64791 0.0
C1962 C 0.55952 0.03397 0.65338 0.0
C1963 C 0.54732 0.04174 0.65736 0.0
C1964 C 0.5335 0.03564 0.65584 0.0
C1965 C 0.53185 0.02173 0.65039 0.0
H1966 H 0.54857 0.05251 0.66159 0.0
H1967 H 0.53243 0.9178 0.60799 0.0
H1968 H 0.83214 0.22019 0.76274 0.0
H1969 H 0.85001 0.22638 0.78145 0.0
H1970 H 0.88458 0.21624 0.75195 0.0
H1971 H 0.86681 0.20981 0.73341 0.0
H1972 H 0.88982 0.20463 0.77718 0.0
H1973 H 0.87523 0.25163 0.76072 0.0
H1974 H 0.85792 0.27096 0.75525 0.0
H1975 H 0.84472 0.27133 0.7999 0.0
H1976 H 0.86183 0.25187 0.80559 0.0
H1977 H 0.95001 0.23633 0.81209 0.0
H1978 H 0.93029 0.23155 0.79503 0.0
H1979 H 0.89905 0.2381 0.82899 0.0
H1980 H 0.91876 0.24321 0.84611 0.0
H1981 H 0.89111 0.25117 0.80304 0.0
H1982 H 0.90674 0.20474 0.81944 0.0
H1983 H 0.92453 0.18579 0.82465 0.0
H1984 H 0.93616 0.18471 0.77959 0.0
H1985 H 0.91858 0.20382 0.77414 0.0
C1986 C 0.84356 0.21941 0.76024 0.0
C1987 C 0.84808 0.21445 0.74664 0.0
C1988 C 0.85377 0.22297 0.77093 0.0
C1989 C 0.86868 0.22187 0.7681 0.0
C1990 C 0.87316 0.2171 0.75444 0.0
C1991 C 0.86299 0.21341 0.74385 0.0
C1992 C 0.8797 0.22526 0.77941 0.0
C1993 C 0.89018 0.21489 0.78269 0.0
C1994 C 0.87997 0.23848 0.78694 0.0
C1995 C 0.86969 0.25019 0.78354 0.0
C1996 C 0.86855 0.25576 0.76934 0.0
C1997 C 0.8588 0.26675 0.76621 0.0
C1998 C 0.85019 0.27234 0.77721 0.0
C1999 C 0.85137 0.26698 0.79138 0.0
C2000 C 0.8611 0.25597 0.79457 0.0
C2001 C 0.93895 0.23693 0.81591 0.0
C2002 C 0.93596 0.24013 0.83047 0.0
C2003 C 0.92769 0.23408 0.80617 0.0
C2004 C 0.91321 0.23431 0.81078 0.0
C2005 C 0.91015 0.23781 0.82522 0.0
C2006 C 0.92142 0.24061 0.835 0.0
C2007 C 0.90133 0.23065 0.80054 0.0
C2008 C 0.89068 0.24092 0.79753 0.0
C2009 C 0.90093 0.21737 0.79317 0.0
C2010 C 0.91143 0.2058 0.7964 0.0
C2011 C 0.91317 0.20054 0.81066 0.0
C2012 C 0.9232 0.18975 0.81365 0.0
C2013 C 0.93149 0.18407 0.80247 0.0
C2014 C 0.92974 0.18913 0.78825 0.0
C2015 C 0.91973 0.19993 0.7852 0.0
H2016 H 0.93925 0.17572 0.80481 0.0
H2017 H 0.84265 0.28085 0.77477 0.0
H2018 H 0.48235 0.93329 0.4712 0.0
H2019 H 0.48406 0.91075 0.458 0.0
H2020 H 0.47557 0.88686 0.49754 0.0
H2021 H 0.47404 0.90947 0.51088 0.0
H2022 H 0.49692 0.87495 0.48326 0.0
H2023 H 0.44944 0.89073 0.47061 0.0
H2024 H 0.431 0.9077 0.4618 0.0
H2025 H 0.45206 0.91025 0.42033 0.0
H2026 H 0.47076 0.89344 0.42896 0.0
H2027 H 0.48423 0.80822 0.44742 0.0
H2028 H 0.4809 0.83009 0.46155 0.0
H2029 H 0.49332 0.85599 0.42439 0.0
H2030 H 0.49646 0.83417 0.41013 0.0
H2031 H 0.46906 0.86626 0.43804 0.0
H2032 H 0.51693 0.85084 0.45136 0.0
H2033 H 0.53505 0.83363 0.46037 0.0
H2034 H 0.5125 0.83004 0.50099 0.0
H2035 H 0.49412 0.84709 0.49213 0.0
C2036 C 0.48066 0.92325 0.47706 0.0
C2037 C 0.47794 0.92317 0.49207 0.0
C2038 C 0.48165 0.91035 0.4695 0.0
C2039 C 0.47972 0.89708 0.47671 0.0
C2040 C 0.47707 0.89696 0.49173 0.0
C2041 C 0.4762 0.90988 0.49934 0.0
C2042 C 0.48081 0.88337 0.46862 0.0
C2043 C 0.49064 0.87296 0.47351 0.0
C2044 C 0.47283 0.88085 0.45572 0.0
C2045 C 0.46157 0.89092 0.45048 0.0
C2046 C 0.4502 0.89499 0.45964 0.0
C2047 C 0.43969 0.90457 0.45468 0.0
C2048 C 0.44038 0.91008 0.44053 0.0
C2049 C 0.45155 0.90598 0.4313 0.0
C2050 C 0.4621 0.89642 0.43621 0.0
C2051 C 0.48616 0.81858 0.44223 0.0
C2052 C 0.49064 0.81947 0.42767 0.0
C2053 C 0.48436 0.83106 0.45035 0.0
C2054 C 0.48697 0.84467 0.44405 0.0
C2055 C 0.49127 0.8456 0.42947 0.0
C2056 C 0.49317 0.83312 0.42137 0.0
C2057 C 0.48521 0.85795 0.45265 0.0
C2058 C 0.47527 0.86825 0.44784 0.0
C2059 C 0.493 0.86034 0.46566 0.0
C2060 C 0.50407 0.85012 0.47102 0.0
C2061 C 0.51577 0.84629 0.46216 0.0
C2062 C 0.5261 0.83658 0.46726 0.0
C2063 C 0.52491 0.83071 0.48123 0.0
C2064 C 0.5134 0.83458 0.49016 0.0
C2065 C 0.50303 0.84427 0.48511 0.0
H2066 H 0.53292 0.8232 0.48516 0.0
H2067 H 0.43223 0.91749 0.4367 0.0
H2068 H 0.17228 0.29053 0.77041 0.0
H2069 H 0.15336 0.28533 0.78835 0.0
H2070 H 0.12597 0.26786 0.75474 0.0
H2071 H 0.14455 0.27349 0.7367 0.0
H2072 H 0.11131 0.28591 0.77108 0.0
H2073 H 0.14292 0.24608 0.77985 0.0
H2074 H 0.16612 0.23434 0.78538 0.0
H2075 H 0.16845 0.25624 0.82613 0.0
H2076 H 0.14534 0.26827 0.82075 0.0
H2077 H 0.05698 0.25286 0.81409 0.0
H2078 H 0.07742 0.25671 0.79765 0.0
H2079 H 0.10228 0.27555 0.83243 0.0
H2080 H 0.08196 0.27138 0.84908 0.0
H2081 H 0.11858 0.25728 0.81619 0.0
H2082 H 0.08689 0.29691 0.80749 0.0
H2083 H 0.06364 0.30857 0.80201 0.0
H2084 H 0.06154 0.28704 0.76105 0.0
H2085 H 0.08469 0.27508 0.76638 0.0
C2086 C 0.16223 0.28557 0.76684 0.0
C2087 C 0.15997 0.2824 0.7521 0.0
C2088 C 0.15147 0.28248 0.77713 0.0
C2089 C 0.13827 0.2761 0.77292 0.0
C2090 C 0.13607 0.27276 0.75826 0.0
C2091 C 0.14679 0.27585 0.74797 0.0
C2092 C 0.12647 0.27344 0.78361 0.0
C2093 C 0.11286 0.27948 0.78084 0.0
C2094 C 0.12859 0.26541 0.79657 0.0
C2095 C 0.14248 0.25819 0.79983 0.0
C2096 C 0.14844 0.24848 0.78994 0.0
C2097 C 0.16156 0.24176 0.79305 0.0
C2098 C 0.16878 0.24457 0.80608 0.0
C2099 C 0.16286 0.25409 0.81603 0.0
C2100 C 0.14974 0.26085 0.81296 0.0
C2101 C 0.06685 0.25766 0.8183 0.0
C2102 C 0.06782 0.26185 0.8329 0.0
C2103 C 0.07849 0.25997 0.80886 0.0
C2104 C 0.09132 0.26657 0.81377 0.0
C2105 C 0.09246 0.27048 0.8284 0.0
C2106 C 0.0808 0.26821 0.83786 0.0
C2107 C 0.10342 0.26961 0.80353 0.0
C2108 C 0.11706 0.2637 0.80642 0.0
C2109 C 0.10136 0.27777 0.79066 0.0
C2110 C 0.08746 0.28499 0.7874 0.0
C2111 C 0.08142 0.29457 0.79736 0.0
C2112 C 0.06826 0.30125 0.79428 0.0
C2113 C 0.0611 0.29852 0.78121 0.0
C2114 C 0.06709 0.28913 0.77118 0.0
C2115 C 0.08024 0.28241 0.77422 0.0
H2116 H 0.05092 0.30371 0.77884 0.0
H2117 H 0.17893 0.23935 0.80848 0.0
H2118 H 0.52352 0.58532 0.50689 0.0
H2119 H 0.51685 0.60354 0.48872 0.0
H2120 H 0.55058 0.63178 0.50474 0.0
H2121 H 0.5571 0.61375 0.52298 0.0
H2122 H 0.52679 0.64628 0.50103 0.0
H2123 H 0.5536 0.61285 0.47231 0.0
H2124 H 0.55938 0.58914 0.4622 0.0
H2125 H 0.51732 0.58678 0.44233 0.0
H2126 H 0.51122 0.6104 0.45249 0.0
H2127 H 0.53303 0.69674 0.44344 0.0
H2128 H 0.53762 0.67714 0.46061 0.0
H2129 H 0.49993 0.65427 0.44489 0.0
H2130 H 0.49502 0.67401 0.42787 0.0
H2131 H 0.5239 0.63664 0.44826 0.0
H2132 H 0.49778 0.67086 0.47625 0.0
H2133 H 0.49255 0.69481 0.48606 0.0
H2134 H 0.53406 0.69583 0.50715 0.0
H2135 H 0.53963 0.67195 0.49728 0.0
C2136 C 0.52957 0.59538 0.50643 0.0
C2137 C 0.54079 0.59813 0.5164 0.0
C2138 C 0.52577 0.60578 0.49604 0.0
C2139 C 0.53328 0.61902 0.49528 0.0
C2140 C 0.54457 0.6217 0.50515 0.0
C2141 C 0.54828 0.61138 0.51559 0.0
C2142 C 0.52925 0.6303 0.48447 0.0
C2143 C 0.52633 0.64418 0.48948 0.0
C2144 C 0.52824 0.62751 0.46941 0.0
C2145 C 0.5319 0.61332 0.46329 0.0
C2146 C 0.54554 0.60722 0.46588 0.0
C2147 C 0.54888 0.59381 0.46013 0.0
C2148 C 0.53871 0.58644 0.45167 0.0
C2149 C 0.52518 0.59249 0.44891 0.0
C2150 C 0.52178 0.60589 0.45465 0.0
C2151 C 0.52559 0.68764 0.44372 0.0
C2152 C 0.51358 0.68704 0.43431 0.0
C2153 C 0.52829 0.6764 0.4535 0.0
C2154 C 0.51904 0.66431 0.45412 0.0
C2155 C 0.50721 0.6635 0.44458 0.0
C2156 C 0.50446 0.67479 0.43482 0.0
C2157 C 0.52172 0.65261 0.46484 0.0
C2158 C 0.52432 0.63867 0.45982 0.0
C2159 C 0.52252 0.65534 0.47989 0.0
C2160 C 0.51917 0.66967 0.48592 0.0
C2161 C 0.50584 0.67623 0.48288 0.0
C2162 C 0.50281 0.68979 0.48847 0.0
C2163 C 0.51298 0.69685 0.4972 0.0
C2164 C 0.52619 0.69035 0.50038 0.0
C2165 C 0.52929 0.6768 0.4948 0.0
H2166 H 0.51061 0.70735 0.50151 0.0
H2167 H 0.54132 0.57606 0.44722 0.0
H2168 H 0.83069 0.79658 0.73699 0.0
H2169 H 0.84953 0.78987 0.71975 0.0
H2170 H 0.86944 0.76326 0.75261 0.0
H2171 H 0.85092 0.77022 0.76998 0.0
H2172 H 0.88903 0.78051 0.73953 0.0
H2173 H 0.85101 0.74836 0.72428 0.0
H2174 H 0.82643 0.74169 0.71604 0.0
H2175 H 0.83181 0.7684 0.67808 0.0
H2176 H 0.85636 0.77539 0.68619 0.0
H2177 H 0.9404 0.74641 0.69549 0.0
H2178 H 0.9197 0.75059 0.71128 0.0
H2179 H 0.89998 0.77669 0.67788 0.0
H2180 H 0.92041 0.7721 0.66178 0.0
H2181 H 0.88007 0.75962 0.69097 0.0
H2182 H 0.91764 0.79219 0.70626 0.0
H2183 H 0.94217 0.79919 0.71437 0.0
H2184 H 0.93747 0.77219 0.75221 0.0
H2185 H 0.91297 0.76486 0.74422 0.0
C2186 C 0.83905 0.78926 0.74052 0.0
C2187 C 0.83928 0.78393 0.75487 0.0
C2188 C 0.84975 0.78534 0.73063 0.0
C2189 C 0.86086 0.77599 0.73486 0.0
C2190 C 0.86096 0.77047 0.74909 0.0
C2191 C 0.85028 0.77435 0.75898 0.0
C2192 C 0.8728 0.77253 0.72474 0.0
C2193 C 0.88707 0.77573 0.72901 0.0
C2194 C 0.87023 0.7667 0.71083 0.0
C2195 C 0.85547 0.76251 0.70592 0.0
C2196 C 0.84691 0.75291 0.71423 0.0
C2197 C 0.83299 0.74905 0.70957 0.0
C2198 C 0.82754 0.75465 0.69656 0.0
C2199 C 0.83603 0.76409 0.68816 0.0
C2200 C 0.84995 0.76799 0.69278 0.0
C2201 C 0.93158 0.75286 0.6914 0.0
C2202 C 0.93213 0.75898 0.67737 0.0
C2203 C 0.9198 0.75536 0.7005 0.0
C2204 C 0.90838 0.76414 0.69585 0.0
C2205 C 0.9087 0.76995 0.68174 0.0
C2206 C 0.92046 0.76743 0.6726 0.0
C2207 C 0.89628 0.7675 0.70583 0.0
C2208 C 0.882 0.76435 0.70152 0.0
C2209 C 0.89882 0.77344 0.7197 0.0
C2210 C 0.91353 0.77787 0.72457 0.0
C2211 C 0.92188 0.78766 0.71626 0.0
C2212 C 0.93577 0.7917 0.72084 0.0
C2213 C 0.94139 0.78611 0.73378 0.0
C2214 C 0.93311 0.77649 0.74218 0.0
C2215 C 0.91922 0.7724 0.73763 0.0
H2216 H 0.95215 0.78925 0.73731 0.0
H2217 H 0.81677 0.75165 0.69297 0.0
H2218 H 0.04599 0.91775 0.5167 0.0
H2219 H 0.03953 0.90002 0.53547 0.0
H2220 H 0.01515 0.87561 0.50402 0.0
H2221 H 0.02104 0.89357 0.48536 0.0
H2222 H 0.00106 0.87597 0.5291 0.0
H2223 H 0.04988 0.86637 0.51397 0.0
H2224 H 0.07558 0.87228 0.50929 0.0
H2225 H 0.08172 0.88257 0.55421 0.0
H2226 H 0.05599 0.8769 0.55912 0.0
H2227 H 0.9998 0.80672 0.56221 0.0
H2228 H 0.00409 0.82743 0.54613 0.0
H2229 H 0.02557 0.84988 0.58095 0.0
H2230 H 0.02154 0.82908 0.59704 0.0
H2231 H 0.04084 0.8517 0.55565 0.0
H2232 H 0.99207 0.85942 0.57092 0.0
H2233 H 0.96646 0.85293 0.57528 0.0
H2234 H 0.96028 0.84558 0.52976 0.0
H2235 H 0.98593 0.85183 0.52514 0.0
C2236 C 0.03904 0.90875 0.51382 0.0
C2237 C 0.03415 0.90703 0.49947 0.0
C2238 C 0.03548 0.89854 0.52454 0.0
C2239 C 0.02706 0.88634 0.5211 0.0
C2240 C 0.02173 0.88488 0.50692 0.0
C2241 C 0.02523 0.8951 0.49622 0.0
C2242 C 0.02417 0.87484 0.5321 0.0
C2243 C 0.00977 0.87058 0.53481 0.0
C2244 C 0.0355 0.868 0.5398 0.0
C2245 C 0.05098 0.87137 0.53688 0.0
C2246 C 0.05668 0.87 0.52283 0.0
C2247 C 0.07126 0.87329 0.52014 0.0
C2248 C 0.08026 0.87784 0.53144 0.0
C2249 C 0.07472 0.87907 0.54546 0.0
C2250 C 0.06015 0.87581 0.54821 0.0
C2251 C 0.00549 0.81604 0.56643 0.0
C2252 C 0.01033 0.81625 0.58091 0.0
C2253 C 0.00782 0.82792 0.55727 0.0
C2254 C 0.01502 0.84026 0.56238 0.0
C2255 C 0.01993 0.84049 0.5768 0.0
C2256 C 0.01754 0.82864 0.586 0.0
C2257 C 0.01776 0.85275 0.55254 0.0
C2258 C 0.03213 0.85718 0.55004 0.0
C2259 C 0.00641 0.85968 0.54498 0.0
C2260 C 0.99096 0.85597 0.5477 0.0
C2261 C 0.98528 0.85631 0.56185 0.0
C2262 C 0.97075 0.85269 0.56437 0.0
C2263 C 0.96176 0.84881 0.55281 0.0
C2264 C 0.96727 0.84857 0.5387 0.0
C2265 C 0.9818 0.85217 0.53613 0.0
H2266 H 0.95051 0.84601 0.55478 0.0
H2267 H 0.09154 0.88038 0.52933 0.0
H2268 H 0.18137 0.73857 0.72415 0.0
H2269 H 0.15858 0.74012 0.71078 0.0
H2270 H 0.13514 0.72641 0.74906 0.0
H2271 H 0.15801 0.72471 0.7625 0.0
H2272 H 0.12464 0.71321 0.72573 0.0
H2273 H 0.1358 0.7619 0.73807 0.0
H2274 H 0.15092 0.78387 0.73985 0.0
H2275 H 0.15427 0.7861 0.69342 0.0
H2276 H 0.13932 0.76402 0.69136 0.0
H2277 H 0.05574 0.73406 0.6973 0.0
H2278 H 0.07755 0.73227 0.71235 0.0
H2279 H 0.10403 0.74308 0.67519 0.0
H2280 H 0.08228 0.74516 0.66017 0.0
H2281 H 0.11219 0.75812 0.69917 0.0
H2282 H 0.10147 0.70876 0.68722 0.0
H2283 H 0.08611 0.68692 0.68578 0.0
H2284 H 0.08151 0.68633 0.73214 0.0
H2285 H 0.09668 0.7083 0.73383 0.0
C2286 C 0.17136 0.73598 0.72976 0.0
C2287 C 0.17149 0.73165 0.74442 0.0
C2288 C 0.15833 0.73687 0.7221 0.0
C2289 C 0.1451 0.73363 0.72898 0.0
C2290 C 0.1452 0.72901 0.74354 0.0
C2291 C 0.15828 0.72802 0.7512 0.0
C2292 C 0.13122 0.73506 0.7209 0.0
C2293 C 0.12181 0.72311 0.72012 0.0
C2294 C 0.12761 0.7479 0.71338 0.0
C2295 C 0.13654 0.76123 0.71457 0.0
C2296 C 0.13985 0.76702 0.72824 0.0
C2297 C 0.14837 0.7795 0.7293 0.0
C2298 C 0.15358 0.78636 0.71676 0.0
C2299 C 0.15024 0.78077 0.70312 0.0
C2300 C 0.14173 0.76828 0.702 0.0
C2301 C 0.06621 0.73614 0.69236 0.0
C2302 C 0.06728 0.73972 0.67752 0.0
C2303 C 0.07866 0.735 0.70094 0.0
C2304 C 0.09243 0.73742 0.69486 0.0
C2305 C 0.09352 0.74112 0.6801 0.0
C2306 C 0.08109 0.7422 0.6715 0.0
C2307 C 0.10572 0.73623 0.70387 0.0
C2308 C 0.115 0.74825 0.70485 0.0
C2309 C 0.10916 0.72349 0.71163 0.0
C2310 C 0.10008 0.71026 0.71063 0.0
C2311 C 0.09708 0.70405 0.69709 0.0
C2312 C 0.08843 0.69163 0.69623 0.0
C2313 C 0.0828 0.68526 0.70885 0.0
C2314 C 0.08585 0.69128 0.72237 0.0
C2315 C 0.09448 0.70371 0.72328 0.0
H2316 H 0.07611 0.67565 0.70817 0.0
H2317 H 0.16018 0.79602 0.7176 0.0
H2318 H 0.9829 0.57084 0.53461 0.0
H2319 H 0.98347 0.59336 0.5479 0.0
H2320 H 0.97719 0.61709 0.50795 0.0
H2321 H 0.97719 0.59452 0.49443 0.0
H2322 H 0.99771 0.6296 0.52409 0.0
H2323 H 0.94948 0.61251 0.53239 0.0
H2324 H 0.93037 0.59498 0.53928 0.0
H2325 H 0.94783 0.59228 0.58242 0.0
H2326 H 0.96718 0.60965 0.57573 0.0
H2327 H 0.98415 0.69518 0.56132 0.0
H2328 H 0.98103 0.67394 0.54606 0.0
H2329 H 0.98966 0.64642 0.58297 0.0
H2330 H 0.99253 0.66757 0.59833 0.0
H2331 H 0.96647 0.6368 0.5671 0.0
H2332 H 0.01553 0.65287 0.55806 0.0
H2333 H 0.03453 0.67047 0.55102 0.0
H2334 H 0.01501 0.6753 0.50895 0.0
H2335 H 0.99577 0.65787 0.51582 0.0
C2336 C 0.98176 0.58084 0.52859 0.0
C2337 C 0.98005 0.58085 0.51342 0.0
C2338 C 0.98191 0.59372 0.53625 0.0
C2339 C 0.98017 0.60692 0.52897 0.0
C2340 C 0.97848 0.60702 0.51382 0.0
C2341 C 0.97837 0.5941 0.50612 0.0
C2342 C 0.98048 0.6206 0.5372 0.0
C2343 C 0.99069 0.63129 0.53333 0.0
C2344 C 0.97151 0.62271 0.54943 0.0
C2345 C 0.95985 0.6123 0.55352 0.0
C2346 C 0.94931 0.6081 0.54332 0.0
C2347 C 0.93842 0.5982 0.54719 0.0
C2348 C 0.93791 0.5925 0.56127 0.0
C2349 C 0.94825 0.5967 0.57152 0.0
C2350 C 0.95917 0.60659 0.56769 0.0
C2351 C 0.98526 0.6846 0.56621 0.0
C2352 C 0.98865 0.68305 0.58103 0.0
C2353 C 0.98358 0.67248 0.55745 0.0
C2354 C 0.98524 0.6586 0.56335 0.0
C2355 C 0.98837 0.65703 0.57818 0.0
C2356 C 0.99012 0.66912 0.58692 0.0
C2357 C 0.98381 0.64568 0.55408 0.0
C2358 C 0.97339 0.63515 0.55777 0.0
C2359 C 0.99254 0.64374 0.54166 0.0
C2360 C 0.00412 0.65419 0.53751 0.0
C2361 C 0.01522 0.65778 0.54735 0.0
C2362 C 0.02605 0.66771 0.54339 0.0
C2363 C 0.02595 0.67403 0.52956 0.0
C2364 C 0.01506 0.67041 0.51967 0.0
C2365 C 0.00419 0.6605 0.52358 0.0
H2366 H 0.03435 0.68171 0.52651 0.0
H2367 H 0.92947 0.58484 0.56425 0.0
H2368 H 0.74526 0.85692 0.19951 0.0
H2369 H 0.76336 0.87523 0.20554 0.0
H2370 H 0.77312 0.85256 0.2454 0.0
H2371 H 0.75484 0.83417 0.23944 0.0
H2372 H 0.771 0.88046 0.25027 0.0
H2373 H 0.79655 0.85218 0.2162 0.0
H2374 H 0.80055 0.83931 0.19332 0.0
H2375 H 0.79695 0.87896 0.16932 0.0
H2376 H 0.79272 0.89205 0.19204 0.0
H2377 H 0.83372 0.9248 0.26306 0.0
H2378 H 0.81803 0.90389 0.2584 0.0
H2379 H 0.802 0.92451 0.21953 0.0
H2380 H 0.81779 0.94534 0.224 0.0
H2381 H 0.8089 0.89614 0.21521 0.0
H2382 H 0.78187 0.92388 0.24971 0.0
H2383 H 0.77826 0.93643 0.27284 0.0
H2384 H 0.78546 0.89705 0.2964 0.0
H2385 H 0.78932 0.8843 0.2734 0.0
C2386 C 0.7514 0.8557 0.20946 0.0
C2387 C 0.74871 0.84401 0.21893 0.0
C2388 C 0.76175 0.8662 0.21291 0.0
C2389 C 0.76979 0.86518 0.22582 0.0
C2390 C 0.76708 0.85356 0.23535 0.0
C2391 C 0.75663 0.84307 0.23195 0.0
C2392 C 0.78069 0.87649 0.22946 0.0
C2393 C 0.77946 0.8837 0.24271 0.0
C2394 C 0.79161 0.8809 0.21952 0.0
C2395 C 0.7942 0.87308 0.20582 0.0
C2396 C 0.7965 0.85814 0.20603 0.0
C2397 C 0.79883 0.85081 0.19309 0.0
C2398 C 0.79897 0.8583 0.17987 0.0
C2399 C 0.79683 0.87316 0.17957 0.0
C2400 C 0.79448 0.88055 0.19247 0.0
C2401 C 0.82691 0.92484 0.25348 0.0
C2402 C 0.82695 0.93674 0.24392 0.0
C2403 C 0.81789 0.91292 0.25088 0.0
C2404 C 0.80878 0.91269 0.23867 0.0
C2405 C 0.80893 0.92448 0.22903 0.0
C2406 C 0.81787 0.93642 0.23166 0.0
C2407 C 0.79904 0.9002 0.23589 0.0
C2408 C 0.80052 0.89278 0.2228 0.0
C2409 C 0.78843 0.89553 0.24602 0.0
C2410 C 0.78605 0.90317 0.25984 0.0
C2411 C 0.78281 0.91792 0.25983 0.0
C2412 C 0.78069 0.92507 0.27291 0.0
C2413 C 0.78167 0.91755 0.28608 0.0
C2414 C 0.78473 0.90286 0.28619 0.0
C2415 C 0.78687 0.89567 0.27313 0.0
H2416 H 0.78002 0.9231 0.2962 0.0
H2417 H 0.80077 0.8526 0.16987 0.0
H2418 H 0.76018 0.16835 0.29526 0.0
H2419 H 0.77325 0.14572 0.29455 0.0
H2420 H 0.77223 0.14698 0.24775 0.0
H2421 H 0.75826 0.16903 0.24836 0.0
H2422 H 0.76796 0.12088 0.25611 0.0
H2423 H 0.80295 0.15731 0.26854 0.0
H2424 H 0.81331 0.17734 0.28269 0.0
H2425 H 0.81442 0.1503 0.32075 0.0
H2426 H 0.80389 0.13016 0.30685 0.0
H2427 H 0.82817 0.07583 0.2419 0.0
H2428 H 0.81256 0.09666 0.24443 0.0
H2429 H 0.80694 0.08682 0.28988 0.0
H2430 H 0.822 0.06554 0.28739 0.0
H2431 H 0.81416 0.11643 0.28328 0.0
H2432 H 0.78018 0.07944 0.26917 0.0
H2433 H 0.77099 0.05981 0.25375 0.0
H2434 H 0.76945 0.08874 0.21715 0.0
H2435 H 0.77884 0.1085 0.23232 0.0
C2436 C 0.76248 0.1637 0.2848 0.0
C2437 C 0.75823 0.17066 0.27186 0.0
C2438 C 0.77016 0.15083 0.28442 0.0
C2439 C 0.77404 0.14476 0.27109 0.0
C2440 C 0.76948 0.15147 0.25818 0.0
C2441 C 0.76163 0.16422 0.25855 0.0
C2442 C 0.78295 0.13152 0.27053 0.0
C2443 C 0.77813 0.12 0.26194 0.0
C2444 C 0.79614 0.1302 0.27832 0.0
C2445 C 0.80248 0.14228 0.28669 0.0
C2446 C 0.8053 0.15567 0.27995 0.0
C2447 C 0.81122 0.16704 0.28792 0.0
C2448 C 0.81448 0.1651 0.30262 0.0
C2449 C 0.81186 0.15179 0.30937 0.0
C2450 C 0.80593 0.14039 0.30145 0.0
C2451 C 0.82345 0.0779 0.25241 0.0
C2452 C 0.82636 0.06888 0.26442 0.0
C2453 C 0.8146 0.08989 0.25384 0.0
C2454 C 0.80856 0.09323 0.26732 0.0
C2455 C 0.81155 0.08443 0.27939 0.0
C2456 C 0.82025 0.07231 0.27794 0.0
C2457 C 0.79918 0.10596 0.2688 0.0
C2458 C 0.80394 0.11734 0.27754 0.0
C2459 C 0.78607 0.10726 0.26097 0.0
C2460 C 0.78034 0.09542 0.25185 0.0
C2461 C 0.778 0.08159 0.25781 0.0
C2462 C 0.77273 0.07044 0.24912 0.0
C2463 C 0.76967 0.07302 0.23447 0.0
C2464 C 0.77184 0.08675 0.2285 0.0
C2465 C 0.77712 0.09793 0.23714 0.0
H2466 H 0.7656 0.06437 0.22777 0.0
H2467 H 0.81906 0.17392 0.30877 0.0
H2468 H 0.42976 0.9722 0.97869 0.0
H2469 H 0.40698 0.95862 0.97968 0.0
H2470 H 0.3833 0.99834 0.98111 0.0
H2471 H 0.40621 0.01198 0.98056 0.0
H2472 H 0.37217 0.9804 0.99975 0.0
H2473 H 0.38475 0.97689 0.94982 0.0
H2474 H 0.40034 0.97211 0.92876 0.0
H2475 H 0.40382 0.92787 0.94208 0.0
H2476 H 0.38841 0.93242 0.96334 0.0
H2477 H 0.30439 0.94417 0.98636 0.0
H2478 H 0.32577 0.95972 0.98341 0.0
H2479 H 0.35342 0.92309 0.98946 0.0
H2480 H 0.33219 0.90754 0.99292 0.0
H2481 H 0.36133 0.94069 0.96569 0.0
H2482 H 0.34931 0.94538 0.01648 0.0
H2483 H 0.33312 0.95072 0.03693 0.0
H2484 H 0.32769 0.99379 0.02066 0.0
H2485 H 0.3437 0.98863 0.99999 0.0
C2486 C 0.41969 0.97804 0.97905 0.0
C2487 C 0.41975 0.99315 0.97942 0.0
C2488 C 0.40665 0.97027 0.97958 0.0
C2489 C 0.39335 0.97744 0.98019 0.0
C2490 C 0.3934 0.99255 0.9806 0.0
C2491 C 0.40647 1.00034 0.98027 0.0
C2492 C 0.37949 0.96909 0.98087 0.0
C2493 C 0.3697 0.9719 0.99212 0.0
C2494 C 0.37629 0.95784 0.97106 0.0
C2495 C 0.38551 0.95503 0.95824 0.0
C2496 C 0.38892 0.96616 0.94832 0.0
C2497 C 0.39771 0.96349 0.93633 0.0
C2498 C 0.40309 0.9497 0.9341 0.0
C2499 C 0.39965 0.93854 0.94383 0.0
C2500 C 0.39088 0.94116 0.95584 0.0
C2501 C 0.315 0.93942 0.98725 0.0
C2502 C 0.31651 0.92455 0.98991 0.0
C2503 C 0.32722 0.94832 0.98547 0.0
C2504 C 0.34118 0.94256 0.98626 0.0
C2505 C 0.34274 0.92774 0.98873 0.0
C2506 C 0.33056 0.91885 0.99063 0.0
C2507 C 0.35421 0.95193 0.98463 0.0
C2508 C 0.3638 0.9493 0.9732 0.0
C2509 C 0.35713 0.96345 0.99415 0.0
C2510 C 0.34757 0.96657 0.00661 0.0
C2511 C 0.34456 0.95595 0.0172 0.0
C2512 C 0.33544 0.95895 0.02884 0.0
C2513 C 0.32934 0.97257 0.03007 0.0
C2514 C 0.3324 0.98323 0.01968 0.0
C2515 C 0.3415 0.98028 0.008 0.0
H2516 H 0.32228 0.97487 0.0391 0.0
H2517 H 0.4099 0.94765 0.92481 0.0
H2518 H 0.25772 0.34618 0.26572 0.0
H2519 H 0.23903 0.36314 0.25833 0.0
H2520 H 0.22532 0.36669 0.30286 0.0
H2521 H 0.24333 0.3491 0.3102 0.0
H2522 H 0.20262 0.3668 0.28633 0.0
H2523 H 0.24848 0.39206 0.28566 0.0
H2524 H 0.27386 0.39648 0.27839 0.0
H2525 H 0.26081 0.39981 0.23374 0.0
H2526 H 0.23536 0.39522 0.24074 0.0
H2527 H 0.17124 0.43619 0.28622 0.0
H2528 H 0.18708 0.41565 0.28986 0.0
H2529 H 0.1911 0.41101 0.24357 0.0
H2530 H 0.17476 0.43122 0.23974 0.0
H2531 H 0.21783 0.41055 0.25874 0.0
H2532 H 0.17114 0.3875 0.26066 0.0
H2533 H 0.14596 0.38409 0.26901 0.0
H2534 H 0.16094 0.3777 0.31271 0.0
H2535 H 0.18621 0.38129 0.30465 0.0
C2536 C 0.25055 0.35033 0.27392 0.0
C2537 C 0.25219 0.34636 0.28861 0.0
C2538 C 0.23997 0.3602 0.26969 0.0
C2539 C 0.23095 0.36647 0.28007 0.0
C2540 C 0.2322 0.36211 0.29464 0.0
C2541 C 0.24265 0.35215 0.29885 0.0
C2542 C 0.22049 0.37789 0.27593 0.0
C2543 C 0.206 0.3764 0.2804 0.0
C2544 C 0.22477 0.39034 0.26792 0.0
C2545 C 0.24005 0.39313 0.2637 0.0
C2546 C 0.25104 0.39363 0.27428 0.0
C2547 C 0.26543 0.39618 0.27021 0.0
C2548 C 0.26895 0.39838 0.25561 0.0
C2549 C 0.25808 0.39808 0.24505 0.0
C2550 C 0.24367 0.39551 0.24906 0.0
C2551 C 0.17523 0.43068 0.27676 0.0
C2552 C 0.1716 0.4354 0.26266 0.0
C2553 C 0.18438 0.41897 0.27889 0.0
C2554 C 0.19018 0.41176 0.26698 0.0
C2555 C 0.18673 0.41645 0.2529 0.0
C2556 C 0.17745 0.42808 0.25075 0.0
C2557 C 0.20009 0.3995 0.26933 0.0
C2558 C 0.21446 0.40086 0.26454 0.0
C2559 C 0.19575 0.38703 0.2772 0.0
C2560 C 0.18057 0.38478 0.28207 0.0
C2561 C 0.16906 0.38548 0.27207 0.0
C2562 C 0.15477 0.3835 0.27675 0.0
C2563 C 0.15185 0.38071 0.29138 0.0
C2564 C 0.16322 0.37987 0.30137 0.0
C2565 C 0.17753 0.38186 0.29676 0.0
H2566 H 0.14078 0.37917 0.29498 0.0
H2567 H 0.2801 0.40036 0.25248 0.0
H2568 H 0.1101 0.98106 0.48682 0.0
H2569 H 0.1279 0.99972 0.49271 0.0
H2570 H 0.10265 0.03107 0.46925 0.0
H2571 H 0.08513 0.01229 0.46271 0.0
H2572 H 0.12995 0.03378 0.46201 0.0
H2573 H 0.10462 0.0305 0.50699 0.0
H2574 H 0.09377 0.01858 0.52846 0.0
H2575 H 0.13559 0.00334 0.54149 0.0
H2576 H 0.14668 0.01501 0.51999 0.0
H2577 H 0.17254 0.09321 0.48661 0.0
H2578 H 0.15206 0.07661 0.48301 0.0
H2579 H 0.17696 0.04196 0.50148 0.0
H2580 H 0.1974 0.05854 0.50531 0.0
H2581 H 0.14874 0.04223 0.5117 0.0
H2582 H 0.17349 0.04467 0.46565 0.0
H2583 H 0.18405 0.05704 0.44427 0.0
H2584 H 0.14249 0.07452 0.43354 0.0
H2585 H 0.13173 0.06241 0.45499 0.0
C2586 C 0.10833 0.99191 0.48287 0.0
C2587 C 0.09619 0.99514 0.47423 0.0
C2588 C 0.11845 0.00263 0.48641 0.0
C2589 C 0.11657 0.01686 0.48156 0.0
C2590 C 0.10433 0.02018 0.47316 0.0
C2591 C 0.09423 0.00945 0.46954 0.0
C2592 C 0.12776 0.02809 0.48464 0.0
C2593 C 0.13385 0.0358 0.47292 0.0
C2594 C 0.13308 0.03056 0.49884 0.0
C2595 C 0.12646 0.02353 0.5118 0.0
C2596 C 0.11149 0.02452 0.51437 0.0
C2597 C 0.1053 0.01782 0.52656 0.0
C2598 C 0.11398 0.01018 0.53632 0.0
C2599 C 0.12888 0.00925 0.53392 0.0
C2600 C 0.13513 0.01592 0.52174 0.0
C2601 C 0.1736 0.08208 0.49003 0.0
C2602 C 0.18661 0.07716 0.49619 0.0
C2603 C 0.16193 0.0726 0.48789 0.0
C2604 C 0.16304 0.05803 0.49187 0.0
C2605 C 0.17589 0.05316 0.4983 0.0
C2606 C 0.18759 0.06261 0.50037 0.0
C2607 C 0.15092 0.04778 0.48907 0.0
C2608 C 0.1447 0.04026 0.50083 0.0
C2609 C 0.1454 0.04554 0.47494 0.0
C2610 C 0.15184 0.05277 0.46201 0.0
C2611 C 0.16663 0.05125 0.4588 0.0
C2612 C 0.17265 0.05819 0.44666 0.0
C2613 C 0.16396 0.06659 0.43758 0.0
C2614 C 0.14922 0.06803 0.4406 0.0
C2615 C 0.14315 0.06112 0.45274 0.0
H2616 H 0.16863 0.07196 0.42818 0.0
H2617 H 0.10916 0.00501 0.54575 0.0
H2618 H 0.76109 0.15959 0.73946 0.0
H2619 H 0.74208 0.14245 0.74663 0.0
H2620 H 0.72954 0.13777 0.7018 0.0
H2621 H 0.74784 0.15556 0.69465 0.0
H2622 H 0.70644 0.13767 0.71752 0.0
H2623 H 0.75194 0.11305 0.72034 0.0
H2624 H 0.77704 0.10912 0.72853 0.0
H2625 H 0.76268 0.10668 0.77279 0.0
H2626 H 0.7375 0.11078 0.76487 0.0
H2627 H 0.67435 0.06776 0.71855 0.0
H2628 H 0.6906 0.08835 0.71484 0.0
H2629 H 0.69288 0.0947 0.76104 0.0
H2630 H 0.67609 0.07445 0.76491 0.0
H2631 H 0.72028 0.09483 0.74675 0.0
H2632 H 0.67393 0.11729 0.74262 0.0
H2633 H 0.64907 0.12011 0.73331 0.0
H2634 H 0.6655 0.1254 0.69 0.0
H2635 H 0.69046 0.12239 0.69903 0.0
C2636 C 0.75411 0.15514 0.73114 0.0
C2637 C 0.75616 0.15887 0.71643 0.0
C2638 C 0.74335 0.14518 0.73525 0.0
C2639 C 0.73456 0.13854 0.72473 0.0
C2640 C 0.73624 0.14263 0.71012 0.0
C2641 C 0.74686 0.15271 0.70603 0.0
C2642 C 0.72386 0.12707 0.72879 0.0
C2643 C 0.70952 0.12826 0.72381 0.0
C2644 C 0.72775 0.11488 0.73726 0.0
C2645 C 0.74287 0.11239 0.74203 0.0
C2646 C 0.75415 0.11178 0.73183 0.0
C2647 C 0.76839 0.10951 0.73642 0.0
C2648 C 0.77146 0.10769 0.75117 0.0
C2649 C 0.76029 0.10811 0.76136 0.0
C2650 C 0.74603 0.11041 0.75684 0.0
C2651 C 0.67805 0.07365 0.72795 0.0
C2652 C 0.67379 0.0694 0.74205 0.0
C2653 C 0.68743 0.08538 0.72579 0.0
C2654 C 0.69287 0.09309 0.73766 0.0
C2655 C 0.68881 0.08886 0.75174 0.0
C2656 C 0.67927 0.07722 0.75392 0.0
C2657 C 0.70301 0.10539 0.7353 0.0
C2658 C 0.71721 0.10433 0.74059 0.0
C2659 C 0.69906 0.11758 0.72695 0.0
C2660 C 0.68406 0.11949 0.72149 0.0
C2661 C 0.67224 0.11893 0.7311 0.0
C2662 C 0.65813 0.12059 0.72587 0.0
C2663 C 0.6557 0.12291 0.71107 0.0
C2664 C 0.66739 0.1236 0.70146 0.0
C2665 C 0.68152 0.12193 0.70663 0.0
H2666 H 0.64477 0.12419 0.70704 0.0
H2667 H 0.78249 0.10593 0.7547 0.0
H2668 H 0.40963 0.99522 0.51696 0.0
H2669 H 0.38692 0.00836 0.51662 0.0
H2670 H 0.40976 0.04709 0.52911 0.0
H2671 H 0.43232 0.03382 0.53044 0.0
H2672 H 0.3855 0.04598 0.54276 0.0
H2673 H 0.39906 0.03991 0.49301 0.0
H2674 H 0.40601 0.02651 0.47119 0.0
H2675 H 0.36571 0.00296 0.47269 0.0
H2676 H 0.35861 0.01609 0.49465 0.0
H2677 H 0.33528 0.09799 0.51637 0.0
H2678 H 0.35656 0.08267 0.51925 0.0
H2679 H 0.32917 0.04483 0.51696 0.0
H2680 H 0.30781 0.06012 0.51423 0.0
H2681 H 0.35464 0.04462 0.49865 0.0
H2682 H 0.34105 0.05276 0.54824 0.0
H2683 H 0.33465 0.06765 0.5692 0.0
H2684 H 0.37602 0.08915 0.56681 0.0
H2685 H 0.38259 0.07454 0.54567 0.0
C2686 C 0.40982 0.00647 0.51989 0.0
C2687 C 0.42291 0.01345 0.52361 0.0
C2688 C 0.39682 0.01404 0.5195 0.0
C2689 C 0.39663 0.02882 0.52254 0.0
C2690 C 0.4096 0.03572 0.52661 0.0
C2691 C 0.42256 0.02813 0.5272 0.0
C2692 C 0.38301 0.03718 0.52133 0.0
C2693 C 0.37886 0.04577 0.53304 0.0
C2694 C 0.37414 0.03677 0.50876 0.0
C2695 C 0.37838 0.02887 0.49556 0.0
C2696 C 0.39173 0.03179 0.48875 0.0
C2697 C 0.39569 0.02426 0.47635 0.0
C2698 C 0.38633 0.01386 0.47059 0.0
C2699 C 0.37297 0.011 0.47719 0.0
C2700 C 0.36896 0.01849 0.4896 0.0
C2701 C 0.33382 0.0864 0.51647 0.0
C2702 C 0.31992 0.08022 0.5151 0.0
C2703 C 0.34595 0.07768 0.51818 0.0
C2704 C 0.3444 0.06264 0.51837 0.0
C2705 C 0.33056 0.05643 0.51686 0.0
C2706 C 0.31839 0.06515 0.51539 0.0
C2707 C 0.35731 0.05342 0.52 0.0
C2708 C 0.36129 0.04471 0.50837 0.0
C2709 C 0.36615 0.0539 0.53253 0.0
C2710 C 0.36225 0.06265 0.54528 0.0
C2711 C 0.34873 0.06075 0.5521 0.0
C2712 C 0.34508 0.06913 0.56403 0.0
C2713 C 0.35491 0.07937 0.56931 0.0
C2714 C 0.36842 0.08123 0.56269 0.0
C2715 C 0.37211 0.07289 0.55075 0.0
H2716 H 0.35206 0.08584 0.57855 0.0
H2717 H 0.38941 0.00804 0.46098 0.0
H2718 H 0.58637 0.49715 0.52812 0.0
H2719 H 0.60416 0.47894 0.52163 0.0
H2720 H 0.63636 0.50058 0.54777 0.0
H2721 H 0.61874 0.51881 0.55412 0.0
H2722 H 0.64775 0.49336 0.52287 0.0
H2723 H 0.61862 0.4691 0.55915 0.0
H2724 H 0.59594 0.45978 0.57003 0.0
H2725 H 0.58839 0.43341 0.53273 0.0
H2726 H 0.61094 0.44273 0.52153 0.0
H2727 H 0.70023 0.43912 0.53106 0.0
H2728 H 0.6811 0.45643 0.53553 0.0
H2729 H 0.65289 0.43378 0.50597 0.0
H2730 H 0.67206 0.4165 0.50125 0.0
H2731 H 0.63886 0.44113 0.53093 0.0
H2732 H 0.66881 0.46466 0.4953 0.0
H2733 H 0.69172 0.47382 0.48479 0.0
H2734 H 0.69789 0.50153 0.52134 0.0
H2735 H 0.67511 0.49237 0.53217 0.0
C2736 C 0.59723 0.49795 0.53253 0.0
C2737 C 0.60116 0.50944 0.54159 0.0
C2738 C 0.60738 0.48754 0.52883 0.0
C2739 C 0.62159 0.48831 0.53431 0.0
C2740 C 0.62551 0.49978 0.54335 0.0
C2741 C 0.61542 0.51022 0.54694 0.0
C2742 C 0.63251 0.47729 0.53059 0.0
C2743 C 0.64584 0.48195 0.52479 0.0
C2744 C 0.62992 0.46236 0.53271 0.0
C2745 C 0.61638 0.45673 0.53944 0.0
C2746 C 0.61206 0.4614 0.55322 0.0
C2747 C 0.59924 0.4561 0.55945 0.0
C2748 C 0.59071 0.44604 0.55206 0.0
C2749 C 0.595 0.44123 0.53843 0.0
C2750 C 0.6078 0.4465 0.53214 0.0
C2751 C 0.69002 0.43788 0.52538 0.0
C2752 C 0.68774 0.42645 0.51571 0.0
C2753 C 0.67907 0.44777 0.528 0.0
C2754 C 0.66561 0.44649 0.52096 0.0
C2755 C 0.66318 0.43496 0.51152 0.0
C2756 C 0.67415 0.42507 0.50888 0.0
C2757 C 0.65413 0.45724 0.52346 0.0
C2758 C 0.64071 0.45253 0.52897 0.0
C2759 C 0.65665 0.47214 0.52113 0.0
C2760 C 0.67031 0.47774 0.5146 0.0
C2761 C 0.6751 0.47263 0.50115 0.0
C2762 C 0.68806 0.47783 0.49512 0.0
C2763 C 0.69627 0.48823 0.50241 0.0
C2764 C 0.69152 0.49346 0.51571 0.0
C2765 C 0.67858 0.48828 0.52179 0.0
H2766 H 0.7063 0.49224 0.49773 0.0
H2767 H 0.58079 0.44195 0.5569 0.0
H2768 H 0.74926 0.27184 0.32566 0.0
H2769 H 0.75093 0.28515 0.34828 0.0
H2770 H 0.71685 0.25858 0.36669 0.0
H2771 H 0.71507 0.24521 0.34395 0.0
H2772 H 0.71273 0.28625 0.37285 0.0
H2773 H 0.75243 0.25387 0.37656 0.0
H2774 H 0.77452 0.24167 0.36848 0.0
H2775 H 0.79712 0.28228 0.36596 0.0
H2776 H 0.7751 0.29476 0.37383 0.0
H2777 H 0.72467 0.31265 0.44437 0.0
H2778 H 0.72244 0.29678 0.42346 0.0
H2779 H 0.75571 0.32135 0.40118 0.0
H2780 H 0.75836 0.33693 0.42221 0.0
H2781 H 0.7598 0.29308 0.39809 0.0
H2782 H 0.71965 0.32547 0.39307 0.0
H2783 H 0.69753 0.33767 0.40108 0.0
H2784 H 0.6758 0.29681 0.40619 0.0
H2785 H 0.69787 0.28436 0.39839 0.0
C2786 C 0.74223 0.2687 0.33457 0.0
C2787 C 0.73212 0.25737 0.33305 0.0
C2788 C 0.74319 0.27634 0.34751 0.0
C2789 C 0.73418 0.27273 0.35929 0.0
C2790 C 0.72394 0.26153 0.35776 0.0
C2791 C 0.72292 0.25392 0.34476 0.0
C2792 C 0.73536 0.28083 0.37307 0.0
C2793 C 0.72298 0.28753 0.37851 0.0
C2794 C 0.74877 0.28274 0.38033 0.0
C2795 C 0.76207 0.27526 0.37568 0.0
C2796 C 0.76208 0.26021 0.37419 0.0
C2797 C 0.7746 0.25324 0.36966 0.0
C2798 C 0.78721 0.26119 0.36668 0.0
C2799 C 0.78734 0.27613 0.36826 0.0
C2800 C 0.77485 0.28316 0.37277 0.0
C2801 C 0.73161 0.3146 0.43507 0.0
C2802 C 0.74165 0.32612 0.43496 0.0
C2803 C 0.73023 0.30559 0.42307 0.0
C2804 C 0.73879 0.30797 0.41067 0.0
C2805 C 0.74895 0.31933 0.4106 0.0
C2806 C 0.75035 0.32832 0.42259 0.0
C2807 C 0.73723 0.29865 0.39774 0.0
C2808 C 0.74954 0.29171 0.39248 0.0
C2809 C 0.72375 0.2965 0.39067 0.0
C2810 C 0.71046 0.30398 0.39529 0.0
C2811 C 0.71019 0.31908 0.39601 0.0
C2812 C 0.69765 0.32604 0.40049 0.0
C2813 C 0.68528 0.31801 0.40418 0.0
C2814 C 0.6854 0.30301 0.40335 0.0
C2815 C 0.69792 0.296 0.39889 0.0
H2816 H 0.67558 0.32342 0.40765 0.0
H2817 H 0.79689 0.25578 0.36317 0.0
H2818 H 0.51186 0.99783 0.92487 0.0
H2819 H 0.52554 0.99684 0.90228 0.0
H2820 H 0.52683 0.04322 0.89999 0.0
H2821 H 0.51309 0.0443 0.92269 0.0
H2822 H 0.52143 0.03187 0.87366 0.0
H2823 H 0.55628 0.02478 0.91131 0.0
H2824 H 0.56656 0.01379 0.93344 0.0
H2825 H 0.56766 0.97273 0.91256 0.0
H2826 H 0.55718 0.98345 0.89036 0.0
H2827 H 0.57886 0.03522 0.82141 0.0
H2828 H 0.56425 0.03787 0.84329 0.0
H2829 H 0.55906 0.99178 0.84648 0.0
H2830 H 0.57329 0.98901 0.8244 0.0
H2831 H 0.56696 0.00408 0.87251 0.0
H2832 H 0.53157 0.01155 0.83488 0.0
H2833 H 0.52159 0.02299 0.81283 0.0
H2834 H 0.52214 0.06401 0.83384 0.0
H2835 H 0.53233 0.05285 0.85597 0.0
C2836 C 0.51511 0.00783 0.91962 0.0
C2837 C 0.51152 0.02115 0.92567 0.0
C2838 C 0.52292 0.00725 0.90668 0.0
C2839 C 0.52744 0.01995 0.89956 0.0
C2840 C 0.5235 0.03327 0.90532 0.0
C2841 C 0.51562 0.03387 0.91827 0.0
C2842 C 0.53643 0.01925 0.88622 0.0
C2843 C 0.53149 0.02598 0.87346 0.0
C2844 C 0.54946 0.01138 0.8859 0.0
C2845 C 0.55582 0.0049 0.89921 0.0
C2846 C 0.55861 0.01339 0.91147 0.0
C2847 C 0.56449 0.00721 0.92403 0.0
C2848 C 0.56773 0.99256 0.92442 0.0
C2849 C 0.56513 0.98407 0.91224 0.0
C2850 C 0.55923 0.9902 0.89967 0.0
C2851 C 0.57445 0.02564 0.82662 0.0
C2852 C 0.57729 0.01189 0.82108 0.0
C2853 C 0.56614 0.02718 0.83918 0.0
C2854 C 0.56052 0.01502 0.84648 0.0
C2855 C 0.56335 0.0013 0.84104 0.0
C2856 C 0.57157 0.99974 0.82845 0.0
C2857 C 0.55188 0.01655 0.85993 0.0
C2858 C 0.55691 0.01 0.87273 0.0
C2859 C 0.539 0.02466 0.8603 0.0
C2860 C 0.53286 0.03139 0.84702 0.0
C2861 C 0.52968 0.02304 0.83476 0.0
C2862 C 0.52397 0.02947 0.82226 0.0
C2863 C 0.52128 0.04423 0.82192 0.0
C2864 C 0.52426 0.05258 0.83411 0.0
C2865 C 0.52999 0.04621 0.84664 0.0
H2866 H 0.51684 0.04919 0.81223 0.0
H2867 H 0.57229 0.9878 0.93414 0.0
H2868 H 0.26255 0.26553 0.34931 0.0
H2869 H 0.25578 0.24704 0.36717 0.0
H2870 H 0.29821 0.22848 0.36366 0.0
H2871 H 0.30481 0.24647 0.34528 0.0
H2872 H 0.27852 0.20782 0.36608 0.0
H2873 H 0.28923 0.25175 0.39145 0.0
H2874 H 0.28667 0.27748 0.39707 0.0
H2875 H 0.2419 0.27035 0.40785 0.0
H2876 H 0.24416 0.24459 0.40211 0.0
H2877 H 0.28422 0.17151 0.43394 0.0
H2878 H 0.2872 0.18774 0.41313 0.0
H2879 H 0.24303 0.20153 0.41777 0.0
H2880 H 0.23986 0.18511 0.43848 0.0
H2881 H 0.26172 0.2242 0.4142 0.0
H2882 H 0.25194 0.1795 0.39054 0.0
H2883 H 0.25519 0.15376 0.38538 0.0
H2884 H 0.29898 0.1623 0.37187 0.0
H2885 H 0.29606 0.18807 0.37715 0.0
C2886 C 0.27035 0.25735 0.3521 0.0
C2887 C 0.28429 0.25761 0.34594 0.0
C2888 C 0.26651 0.24687 0.36246 0.0
C2889 C 0.27659 0.23653 0.367 0.0
C2890 C 0.29028 0.2364 0.36042 0.0
C2891 C 0.29409 0.2468 0.35001 0.0
C2892 C 0.27312 0.22619 0.37897 0.0
C2893 C 0.27497 0.21142 0.37664 0.0
C2894 C 0.26818 0.23083 0.39268 0.0
C2895 C 0.26682 0.24629 0.3962 0.0
C2896 C 0.27882 0.25569 0.39492 0.0
C2897 C 0.27742 0.27027 0.39814 0.0
C2898 C 0.26412 0.27555 0.40278 0.0
C2899 C 0.25219 0.26625 0.40424 0.0
C2900 C 0.25352 0.25166 0.40101 0.0
C2901 C 0.27505 0.17781 0.43043 0.0
C2902 C 0.26177 0.17694 0.43789 0.0
C2903 C 0.27679 0.18713 0.41853 0.0
C2904 C 0.26529 0.19575 0.4138 0.0
C2905 C 0.25205 0.19497 0.42124 0.0
C2906 C 0.25028 0.18563 0.43312 0.0
C2907 C 0.26725 0.20586 0.40135 0.0
C2908 C 0.26514 0.22059 0.4036 0.0
C2909 C 0.27204 0.20119 0.38761 0.0
C2910 C 0.27381 0.1857 0.38436 0.0
C2911 C 0.2623 0.17587 0.38657 0.0
C2912 C 0.26408 0.16128 0.38361 0.0
C2913 C 0.27729 0.15639 0.37833 0.0
C2914 C 0.28875 0.1661 0.37597 0.0
C2915 C 0.28704 0.1807 0.37893 0.0
H2916 H 0.27865 0.14509 0.37604 0.0
H2917 H 0.26306 0.28685 0.40527 0.0
H2918 H 0.50605 0.49079 0.91531 0.0
H2919 H 0.48785 0.49615 0.8967 0.0
H2920 H 0.47856 0.4508 0.89238 0.0
H2921 H 0.49689 0.44535 0.91072 0.0
H2922 H 0.48286 0.46391 0.86625 0.0
H2923 H 0.45491 0.47238 0.90922 0.0
H2924 H 0.44963 0.48334 0.93284 0.0
H2925 H 0.45075 0.52539 0.91307 0.0
H2926 H 0.45623 0.51469 0.88935 0.0
H2927 H 0.42049 0.46723 0.82218 0.0
H2928 H 0.43698 0.46295 0.84249 0.0
H2929 H 0.44381 0.5087 0.84686 0.0
H2930 H 0.42726 0.51307 0.82654 0.0
H2931 H 0.44092 0.49602 0.87302 0.0
H2932 H 0.46896 0.48802 0.83031 0.0
H2933 H 0.47453 0.47749 0.80655 0.0
H2934 H 0.47389 0.43516 0.82568 0.0
H2935 H 0.4681 0.44542 0.84953 0.0
C2936 C 0.50009 0.48197 0.91042 0.0
C2937 C 0.5029 0.46764 0.91452 0.0
C2938 C 0.48963 0.48505 0.89987 0.0
C2939 C 0.48179 0.47387 0.89321 0.0
C2940 C 0.48446 0.45959 0.8974 0.0
C2941 C 0.49485 0.45651 0.90799 0.0
C2942 C 0.47129 0.47697 0.8814 0.0
C2943 C 0.47357 0.47077 0.86779 0.0
C2944 C 0.45943 0.48628 0.88329 0.0
C2945 C 0.45613 0.49274 0.89754 0.0
C2946 C 0.45416 0.48397 0.90993 0.0
C2947 C 0.4511 0.49014 0.92333 0.0
C2948 C 0.4499 0.50506 0.92447 0.0
C2949 C 0.45171 0.51384 0.91218 0.0
C2950 C 0.45477 0.50773 0.89875 0.0
C2951 C 0.42555 0.47638 0.82741 0.0
C2952 C 0.42265 0.49049 0.82267 0.0
C2953 C 0.43496 0.47392 0.83904 0.0
C2954 C 0.4418 0.4855 0.84607 0.0
C2955 C 0.43866 0.49961 0.8416 0.0
C2956 C 0.42918 0.50209 0.83 0.0
C2957 C 0.45242 0.48283 0.85791 0.0
C2958 C 0.4502 0.48915 0.87149 0.0
C2959 C 0.46441 0.47369 0.85599 0.0
C2960 C 0.46796 0.46749 0.84168 0.0
C2961 C 0.4699 0.47646 0.82943 0.0
C2962 C 0.47311 0.47054 0.81595 0.0
C2963 C 0.47453 0.45566 0.8146 0.0
C2964 C 0.47277 0.44668 0.82674 0.0
C2965 C 0.46953 0.45254 0.84024 0.0
H2966 H 0.47702 0.4511 0.80415 0.0
H2967 H 0.44753 0.50981 0.93485 0.0
H2968 H 0.71008 0.77104 0.14186 0.0
H2969 H 0.71608 0.75283 0.12404 0.0
H2970 H 0.72452 0.72234 0.15857 0.0
H2971 H 0.71871 0.74071 0.17654 0.0
H2972 H 0.74439 0.72017 0.13782 0.0
H2973 H 0.69275 0.72086 0.13901 0.0
H2974 H 0.66853 0.73173 0.13836 0.0
H2975 H 0.6764 0.7474 0.09506 0.0
H2976 H 0.70077 0.7368 0.09552 0.0
H2977 H 0.74279 0.66056 0.0887 0.0
H2978 H 0.73747 0.67686 0.10869 0.0
H2979 H 0.73113 0.71158 0.078 0.0
H2980 H 0.73616 0.69534 0.058 0.0
H2981 H 0.70951 0.7099 0.09813 0.0
H2982 H 0.76183 0.70978 0.0978 0.0
H2983 H 0.78584 0.69847 0.09878 0.0
H2984 H 0.77611 0.68082 0.14094 0.0
H2985 H 0.75195 0.69187 0.14013 0.0
C2986 C 0.71314 0.76044 0.14567 0.0
C2987 C 0.71375 0.75725 0.1606 0.0
C2988 C 0.71657 0.75003 0.13547 0.0
C2989 C 0.72046 0.73611 0.13995 0.0
C2990 C 0.72148 0.73299 0.15486 0.0
C2991 C 0.71817 0.74348 0.16511 0.0
C2992 C 0.72334 0.72488 0.12897 0.0
C2993 C 0.73666 0.71775 0.12928 0.0
C2994 C 0.71333 0.72181 0.11771 0.0
C2995 C 0.69864 0.72812 0.11735 0.0
C2996 C 0.68936 0.7267 0.12939 0.0
C2997 C 0.6756 0.73281 0.12905 0.0
C2998 C 0.67094 0.74028 0.11669 0.0
C2999 C 0.68003 0.74162 0.10463 0.0
C3000 C 0.69381 0.73556 0.10492 0.0
C3001 C 0.74021 0.67166 0.08622 0.0
C3002 C 0.73994 0.67667 0.07176 0.0
C3003 C 0.73729 0.68098 0.09766 0.0
C3004 C 0.73401 0.69546 0.09484 0.0
C3005 C 0.73367 0.70045 0.08042 0.0
C3006 C 0.73666 0.69119 0.06901 0.0
C3007 C 0.73065 0.70542 0.10683 0.0
C3008 C 0.7172 0.71226 0.10673 0.0
C3009 C 0.74049 0.70812 0.11832 0.0
C3010 C 0.75502 0.70152 0.11883 0.0
C3011 C 0.76476 0.70339 0.10723 0.0
C3012 C 0.77841 0.69704 0.10776 0.0
C3013 C 0.78248 0.6889 0.1199 0.0
C3014 C 0.77293 0.68712 0.13154 0.0
C3015 C 0.75926 0.69342 0.13105 0.0
H3016 H 0.79305 0.684 0.12029 0.0
H3017 H 0.66028 0.745 0.11645 0.0
H3018 H 0.99306 0.03112 0.08581 0.0
H3019 H 0.97435 0.02445 0.10356 0.0
H3020 H 0.00487 0.03136 0.13836 0.0
H3021 H 0.02368 0.03757 0.12072 0.0
H3022 H 0.98911 0.00761 0.14336 0.0
H3023 H 0.97968 0.05666 0.12915 0.0
H3024 H 0.97467 0.07645 0.11189 0.0
H3025 H 0.93569 0.05484 0.09816 0.0
H3026 H 0.94058 0.03482 0.11522 0.0
H3027 H 0.94432 0.01975 0.20404 0.0
H3028 H 0.96124 0.02259 0.18378 0.0
H3029 H 0.92736 0.01069 0.15378 0.0
H3030 H 0.91031 0.00788 0.17406 0.0
H3031 H 0.9434 0.03508 0.14489 0.0
H3032 H 0.95207 0.98693 0.16103 0.0
H3033 H 0.95717 0.9677 0.17888 0.0
H3034 H 0.99775 0.98811 0.18949 0.0
H3035 H 0.99279 0.0076 0.17185 0.0
C3036 C 0.99583 0.03103 0.09723 0.0
C3037 C 0.00984 0.035 0.10186 0.0
C3038 C 0.98509 0.02734 0.10737 0.0
C3039 C 0.98815 0.02759 0.12231 0.0
C3040 C 0.00223 0.03114 0.1269 0.0
C3041 C 0.01294 0.03482 0.1168 0.0
C3042 C 0.9767 0.02445 0.13325 0.0
C3043 C 0.97917 0.01369 0.14375 0.0
C3044 C 0.96355 0.03214 0.13357 0.0
C3045 C 0.96059 0.04417 0.12333 0.0
C3046 C 0.97011 0.05607 0.12236 0.0
C3047 C 0.96728 0.06734 0.11263 0.0
C3048 C 0.9549 0.06688 0.1039 0.0
C3049 C 0.9453 0.05517 0.10491 0.0
C3050 C 0.94809 0.04386 0.11461 0.0
C3051 C 0.94045 0.01781 0.19312 0.0
C3052 C 0.92599 0.01359 0.19063 0.0
C3053 C 0.95015 0.01933 0.18157 0.0
C3054 C 0.94557 0.01674 0.16729 0.0
C3055 C 0.9311 0.0127 0.16473 0.0
C3056 C 0.92142 0.01102 0.17631 0.0
C3057 C 0.95595 0.01842 0.15509 0.0
C3058 C 0.95327 0.0289 0.14438 0.0
C3059 C 0.96894 0.01053 0.15462 0.0
C3060 C 0.972 0.9988 0.1652 0.0
C3061 C 0.96203 0.98739 0.16726 0.0
C3062 C 0.96491 0.97643 0.17732 0.0
C3063 C 0.97776 0.9767 0.18533 0.0
C3064 C 0.98779 0.98792 0.18328 0.0
C3065 C 0.98496 0.99892 0.17324 0.0
H3066 H 0.97997 0.9682 0.19312 0.0
H3067 H 0.95272 0.07562 0.09638 0.0
H3068 H 0.26664 0.74374 0.16276 0.0
H3069 H 0.25967 0.76233 0.14529 0.0
H3070 H 0.30473 0.77149 0.13635 0.0
H3071 H 0.31179 0.75369 0.15451 0.0
H3072 H 0.29109 0.79538 0.13619 0.0
H3073 H 0.28249 0.74945 0.11406 0.0
H3074 H 0.2721 0.72498 0.11203 0.0
H3075 H 0.22915 0.74218 0.1128 0.0
H3076 H 0.2393 0.76676 0.11503 0.0
H3077 H 0.28592 0.82327 0.064 0.0
H3078 H 0.29025 0.80782 0.08508 0.0
H3079 H 0.24539 0.81095 0.09735 0.0
H3080 H 0.24102 0.82707 0.07672 0.0
H3081 H 0.25715 0.78188 0.09666 0.0
H3082 H 0.26714 0.82853 0.11664 0.0
H3083 H 0.27874 0.85255 0.11725 0.0
H3084 H 0.32071 0.83318 0.1189 0.0
H3085 H 0.30936 0.80902 0.11806 0.0
C3086 C 0.27509 0.7499 0.15731 0.0
C3087 C 0.28981 0.74704 0.15998 0.0
C3088 C 0.27107 0.76042 0.14715 0.0
C3089 C 0.28165 0.76811 0.13921 0.0
C3090 C 0.29633 0.76564 0.14222 0.0
C3091 C 0.30036 0.7553 0.15252 0.0
C3092 C 0.27754 0.77846 0.1275 0.0
C3093 C 0.28376 0.79235 0.1275 0.0
C3094 C 0.26777 0.77467 0.11624 0.0
C3095 C 0.26165 0.75992 0.11488 0.0
C3096 C 0.27083 0.748 0.11391 0.0
C3097 C 0.26499 0.73412 0.1127 0.0
C3098 C 0.24998 0.73202 0.11233 0.0
C3099 C 0.24078 0.74382 0.11312 0.0
C3100 C 0.24657 0.75773 0.11435 0.0
C3101 C 0.27698 0.82095 0.07129 0.0
C3102 C 0.2631 0.82654 0.06859 0.0
C3103 C 0.27948 0.812 0.08329 0.0
C3104 C 0.26815 0.8083 0.09277 0.0
C3105 C 0.25426 0.81367 0.09011 0.0
C3106 C 0.25179 0.82281 0.07823 0.0
C3107 C 0.27083 0.79861 0.10534 0.0
C3108 C 0.26436 0.78489 0.10546 0.0
C3109 C 0.28055 0.80245 0.11656 0.0
C3110 C 0.2874 0.81697 0.11715 0.0
C3111 C 0.27885 0.82939 0.117 0.0
C3112 C 0.28538 0.84303 0.11741 0.0
C3113 C 0.30045 0.84439 0.11808 0.0
C3114 C 0.30903 0.83211 0.11837 0.0
C3115 C 0.30255 0.81844 0.11794 0.0
H3116 H 0.30549 0.85497 0.1184 0.0
H3117 H 0.24547 0.72126 0.1114 0.0
H3118 H 0.01043 0.50878 0.08018 0.0
H3119 H 0.02397 0.50989 0.10293 0.0
H3120 H 0.02277 0.46356 0.10624 0.0
H3121 H 0.00925 0.46236 0.08338 0.0
H3122 H 0.0179 0.47588 0.13238 0.0
H3123 H 0.05299 0.48055 0.09448 0.0
H3124 H 0.0638 0.49062 0.07208 0.0
H3125 H 0.0677 0.53206 0.09197 0.0
H3126 H 0.0567 0.52228 0.11444 0.0
H3127 H 0.07547 0.47062 0.18428 0.0
H3128 H 0.06037 0.46839 0.16258 0.0
H3129 H 0.05894 0.51461 0.1585 0.0
H3130 H 0.0737 0.51699 0.18038 0.0
H3131 H 0.06537 0.50154 0.1327 0.0
H3132 H 0.02999 0.49655 0.17068 0.0
H3133 H 0.01939 0.48611 0.19302 0.0
H3134 H 0.01649 0.44471 0.17289 0.0
H3135 H 0.02728 0.45486 0.15048 0.0
C3136 C 0.01308 0.49882 0.08571 0.0
C3137 C 0.00889 0.48547 0.07987 0.0
C3138 C 0.0208 0.49947 0.09873 0.0
C3139 C 0.02459 0.4868 0.10617 0.0
C3140 C 0.01999 0.47348 0.10067 0.0
C3141 C 0.01223 0.47281 0.08762 0.0
C3142 C 0.03366 0.48752 0.11948 0.0
C3143 C 0.02837 0.48131 0.13241 0.0
C3144 C 0.04723 0.4948 0.11958 0.0
C3145 C 0.05389 0.50071 0.1061 0.0
C3146 C 0.05605 0.49184 0.09404 0.0
C3147 C 0.06222 0.49749 0.08134 0.0
C3148 C 0.0664 0.51198 0.08059 0.0
C3149 C 0.06444 0.52084 0.09256 0.0
C3150 C 0.05824 0.51525 0.10529 0.0
C3151 C 0.07179 0.48033 0.17891 0.0
C3152 C 0.07584 0.494 0.18413 0.0
C3153 C 0.06319 0.47902 0.16646 0.0
C3154 C 0.05848 0.49133 0.15897 0.0
C3155 C 0.06252 0.50497 0.16409 0.0
C3156 C 0.07103 0.5063 0.17657 0.0
C3157 C 0.04955 0.49003 0.14562 0.0
C3158 C 0.0549 0.49609 0.13267 0.0
C3159 C 0.03609 0.48256 0.1455 0.0
C3160 C 0.02959 0.47643 0.15896 0.0
C3161 C 0.02721 0.48519 0.17106 0.0
C3162 C 0.02115 0.47933 0.18373 0.0
C3163 C 0.01731 0.46475 0.18439 0.0
C3164 C 0.01949 0.456 0.17237 0.0
C3165 C 0.02557 0.4618 0.15968 0.0
H3166 H 0.01261 0.46023 0.19421 0.0
H3167 H 0.07118 0.51633 0.07074 0.0
H3168 H 0.34618 0.73751 0.24394 0.0
H3169 H 0.3635 0.74456 0.26272 0.0
H3170 H 0.36568 0.70047 0.27759 0.0
H3171 H 0.34779 0.69347 0.25941 0.0
H3172 H 0.36599 0.71736 0.29996 0.0
H3173 H 0.39182 0.7162 0.25475 0.0
H3174 H 0.39679 0.72259 0.22918 0.0
H3175 H 0.40158 0.76707 0.24062 0.0
H3176 H 0.39644 0.76096 0.26624 0.0
H3177 H 0.43561 0.71683 0.33313 0.0
H3178 H 0.41516 0.71318 0.31673 0.0
H3179 H 0.41092 0.75908 0.31151 0.0
H3180 H 0.43097 0.76294 0.32846 0.0
H3181 H 0.41095 0.74324 0.28494 0.0
H3182 H 0.38695 0.7432 0.33103 0.0
H3183 H 0.38296 0.73572 0.35647 0.0
H3184 H 0.37581 0.69208 0.34308 0.0
H3185 H 0.37998 0.69927 0.31756 0.0
C3186 C 0.35013 0.72934 0.25137 0.0
C3187 C 0.34567 0.71488 0.25003 0.0
C3188 C 0.36018 0.73337 0.26201 0.0
C3189 C 0.36614 0.723 0.2714 0.0
C3190 C 0.36133 0.70866 0.27042 0.0
C3191 C 0.3512 0.70465 0.25989 0.0
C3192 C 0.37767 0.72694 0.282 0.0
C3193 C 0.37586 0.72291 0.29663 0.0
C3194 C 0.39047 0.73444 0.27776 0.0
C3195 C 0.39358 0.73814 0.26237 0.0
C3196 C 0.39382 0.72736 0.25179 0.0
C3197 C 0.39669 0.73093 0.2373 0.0
C3198 C 0.39946 0.74524 0.23327 0.0
C3199 C 0.39941 0.756 0.24375 0.0
C3200 C 0.39652 0.75249 0.25826 0.0
C3201 C 0.43021 0.7262 0.32875 0.0
C3202 C 0.43499 0.7402 0.33224 0.0
C3203 C 0.41856 0.72407 0.31929 0.0
C3204 C 0.4115 0.73586 0.31298 0.0
C3205 C 0.41627 0.74984 0.31626 0.0
C3206 C 0.42781 0.752 0.32589 0.0
C3207 C 0.39929 0.73351 0.30277 0.0
C3208 C 0.401 0.73781 0.28825 0.0
C3209 C 0.3865 0.72611 0.30707 0.0
C3210 C 0.38391 0.72176 0.32239 0.0
C3211 C 0.38465 0.73199 0.33352 0.0
C3212 C 0.38233 0.7278 0.34795 0.0
C3213 C 0.37916 0.71343 0.35139 0.0
C3214 C 0.37828 0.70321 0.3404 0.0
C3215 C 0.3806 0.70734 0.32595 0.0
H3216 H 0.37737 0.71021 0.36257 0.0
H3217 H 0.40168 0.74798 0.22205 0.0
H3218 H 0.97504 0.43284 0.9714 0.0
H3219 H 0.97663 0.41018 0.95839 0.0
H3220 H 0.98195 0.3873 0.99899 0.0
H3221 H 0.98043 0.41002 0.0121 0.0
H3222 H 0.00101 0.37837 0.97956 0.0
H3223 H 0.94978 0.38577 0.97982 0.0
H3224 H 0.92722 0.39922 0.97597 0.0
H3225 H 0.93639 0.40272 0.9304 0.0
H3226 H 0.95912 0.38945 0.93401 0.0
H3227 H 0.99276 0.30903 0.94847 0.0
H3228 H 0.98914 0.33053 0.963 0.0
H3229 H 0.98402 0.35589 0.92389 0.0
H3230 H 0.98707 0.33434 0.9093 0.0
H3231 H 0.96416 0.36288 0.94353 0.0
H3232 H 0.01581 0.35644 0.94346 0.0
H3233 H 0.03847 0.34312 0.94726 0.0
H3234 H 0.02845 0.33789 0.9925 0.0
H3235 H 0.00562 0.35102 0.98893 0.0
C3236 C 0.97632 0.42297 0.97759 0.0
C3237 C 0.9775 0.42323 0.99281 0.0
C3238 C 0.97725 0.41001 0.97013 0.0
C3239 C 0.97921 0.39699 0.97771 0.0
C3240 C 0.98041 0.3972 0.9929 0.0
C3241 C 0.97956 0.41019 1.00038 0.0
C3242 C 0.98043 0.38324 0.96972 0.0
C3243 C 0.99282 0.37486 0.97186 0.0
C3244 C 0.96992 0.3788 0.95943 0.0
C3245 C 0.95622 0.38671 0.95721 0.0
C3246 C 0.94704 0.38949 0.96899 0.0
C3247 C 0.93421 0.39707 0.96685 0.0
C3248 C 0.93039 0.40185 0.95295 0.0
C3249 C 0.93937 0.39902 0.94116 0.0
C3250 C 0.95222 0.39146 0.94324 0.0
C3251 C 0.99071 0.31914 0.94295 0.0
C3252 C 0.99025 0.31994 0.9277 0.0
C3253 C 0.98879 0.33147 0.95128 0.0
C3254 C 0.98649 0.34487 0.94454 0.0
C3255 C 0.98584 0.34568 0.92934 0.0
C3256 C 0.98772 0.33336 0.921 0.0
C3257 C 0.98477 0.35808 0.9533 0.0
C3258 C 0.97229 0.36635 0.95129 0.0
C3259 C 0.99519 0.36243 0.96372 0.0
C3260 C 0.00894 0.35458 0.96589 0.0
C3261 C 0.01838 0.35235 0.95419 0.0
C3262 C 0.03127 0.34485 0.95631 0.0
C3263 C 0.03488 0.33963 0.97011 0.0
C3264 C 0.02563 0.34193 0.98182 0.0
C3265 C 0.01272 0.3494 0.97976 0.0
H3266 H 0.04485 0.33383 0.97172 0.0
H3267 H 0.92045 0.40772 0.95132 0.0
H3268 H 0.6557 0.76435 0.2443 0.0
H3269 H 0.63787 0.7573 0.26274 0.0
H3270 H 0.64106 0.79957 0.28144 0.0
H3271 H 0.65929 0.80651 0.26342 0.0
H3272 H 0.63922 0.77951 0.30229 0.0
H3273 H 0.61344 0.79046 0.25812 0.0
H3274 H 0.60756 0.78816 0.23213 0.0
H3275 H 0.59671 0.7435 0.23868 0.0
H3276 H 0.60272 0.74549 0.26469 0.0
H3277 H 0.57201 0.78395 0.33906 0.0
H3278 H 0.59261 0.78733 0.32275 0.0
H3279 H 0.58747 0.74368 0.30798 0.0
H3280 H 0.56697 0.74011 0.32447 0.0
H3281 H 0.59091 0.76256 0.28549 0.0
H3282 H 0.61503 0.75233 0.33032 0.0
H3283 H 0.62057 0.75509 0.35633 0.0
H3284 H 0.63424 0.79884 0.34863 0.0
H3285 H 0.62858 0.79641 0.3226 0.0
C3286 C 0.65281 0.77206 0.2525 0.0
C3287 C 0.65883 0.78604 0.25229 0.0
C3288 C 0.6425 0.76806 0.26295 0.0
C3289 C 0.63793 0.77799 0.27333 0.0
C3290 C 0.64434 0.79175 0.2735 0.0
C3291 C 0.65467 0.79575 0.26309 0.0
C3292 C 0.6261 0.77428 0.28369 0.0
C3293 C 0.62862 0.77592 0.29861 0.0
C3294 C 0.61235 0.76929 0.27893 0.0
C3295 C 0.60868 0.76808 0.26331 0.0
C3296 C 0.60991 0.78012 0.25399 0.0
C3297 C 0.60653 0.77888 0.23926 0.0
C3298 C 0.6018 0.76568 0.23375 0.0
C3299 C 0.6004 0.75371 0.24296 0.0
C3300 C 0.60378 0.75489 0.2577 0.0
C3301 C 0.57537 0.77498 0.33252 0.0
C3302 C 0.56782 0.76174 0.33313 0.0
C3303 C 0.58714 0.77695 0.32316 0.0
C3304 C 0.59167 0.76571 0.31424 0.0
C3305 C 0.58415 0.7525 0.31477 0.0
C3306 C 0.57239 0.75051 0.32415 0.0
C3307 C 0.60399 0.76792 0.30408 0.0
C3308 C 0.60155 0.76602 0.28919 0.0
C3309 C 0.61778 0.77273 0.30888 0.0
C3310 C 0.62126 0.77422 0.32452 0.0
C3311 C 0.61911 0.76258 0.33419 0.0
C3312 C 0.62229 0.76407 0.34893 0.0
C3313 C 0.62773 0.77714 0.35413 0.0
C3314 C 0.63002 0.78873 0.34459 0.0
C3315 C 0.62684 0.78729 0.32984 0.0
H3316 H 0.63019 0.77828 0.36555 0.0
H3317 H 0.59919 0.76474 0.22234 0.0
H3318 H 0.05989 0.10025 0.00634 0.0
H3319 H 0.0538 0.11911 0.9889 0.0
H3320 H 0.00848 0.108 0.99297 0.0
H3321 H 0.01455 0.0886 0.01004 0.0
H3322 H 0.01536 0.11391 0.96509 0.0
H3323 H 0.02257 0.13674 0.01081 0.0
H3324 H 0.03548 0.14267 0.03345 0.0
H3325 H 0.0707 0.16106 0.00885 0.0
H3326 H 0.05808 0.15505 0.98604 0.0
H3327 H 0.99046 0.18061 0.9349 0.0
H3328 H 0.99507 0.15999 0.9509 0.0
H3329 H 0.04106 0.16773 0.94713 0.0
H3330 H 0.0366 0.18817 0.93092 0.0
H3331 H 0.03271 0.16355 0.97524 0.0
H3332 H 0.02523 0.14026 0.92939 0.0
H3333 H 0.01188 0.13445 0.90696 0.0
H3334 H 0.9765 0.11724 0.93216 0.0
H3335 H 0.98956 0.12314 0.95476 0.0
C3336 C 0.04864 0.10158 0.00334 0.0
C3337 C 0.03771 0.09288 0.00964 0.0
C3338 C 0.04516 0.11251 0.99348 0.0
C3339 C 0.03066 0.11514 0.98981 0.0
C3340 C 0.01974 0.10622 0.99571 0.0
C3341 C 0.02322 0.09522 0.00556 0.0
C3342 C 0.02696 0.12743 0.9801 0.0
C3343 C 0.01898 0.1248 0.96741 0.0
C3344 C 0.03184 0.14162 0.98302 0.0
C3345 C 0.03943 0.14532 0.99672 0.0
C3346 C 0.03311 0.14195 0.01023 0.0
C3347 C 0.04037 0.14534 0.02309 0.0
C3348 C 0.05392 0.15221 0.02259 0.0
C3349 C 0.06021 0.15572 0.00922 0.0
C3350 C 0.05301 0.15234 0.99632 0.0
C3351 C 0.00157 0.17782 0.9373 0.0
C3352 C 0.01316 0.18609 0.93161 0.0
C3353 C 0.00418 0.16605 0.94649 0.0
C3354 C 0.01841 0.16228 0.95014 0.0
C3355 C 0.02999 0.17049 0.94449 0.0
C3356 C 0.0274 0.18221 0.93528 0.0
C3357 C 0.02129 0.15 0.96014 0.0
C3358 C 0.02908 0.15266 0.97293 0.0
C3359 C 0.01615 0.13588 0.95734 0.0
C3360 C 0.00831 0.13229 0.94376 0.0
C3361 C 0.01455 0.13535 0.93015 0.0
C3362 C 0.00705 0.13202 0.91741 0.0
C3363 C 0.99334 0.12552 0.91814 0.0
C3364 C 0.98712 0.1223 0.93161 0.0
C3365 C 0.99456 0.12562 0.94439 0.0
H3366 H 0.98755 0.12295 0.90826 0.0
H3367 H 0.05952 0.15482 0.03256 0.0
H3368 H 0.36196 0.29037 0.27512 0.0
H3369 H 0.37978 0.28312 0.25716 0.0
H3370 H 0.34618 0.28067 0.22463 0.0
H3371 H 0.32817 0.28751 0.24281 0.0
H3372 H 0.36409 0.25929 0.22121 0.0
H3373 H 0.37003 0.30993 0.22654 0.0
H3374 H 0.37337 0.3328 0.23951 0.0
H3375 H 0.41419 0.31832 0.25621 0.0
H3376 H 0.41099 0.29526 0.2435 0.0
H3377 H 0.41569 0.26315 0.16235 0.0
H3378 H 0.39593 0.26847 0.17919 0.0
H3379 H 0.42515 0.26335 0.21538 0.0
H3380 H 0.44489 0.25794 0.19864 0.0
H3381 H 0.40872 0.28913 0.21558 0.0
H3382 H 0.40168 0.23792 0.20969 0.0
H3383 H 0.39785 0.21582 0.19556 0.0
H3384 H 0.35836 0.23283 0.17813 0.0
H3385 H 0.36207 0.25514 0.19201 0.0
C3386 C 0.35838 0.28828 0.26413 0.0
C3387 C 0.34372 0.28966 0.2603 0.0
C3388 C 0.36857 0.28418 0.25386 0.0
C3389 C 0.36441 0.28168 0.23943 0.0
C3390 C 0.34968 0.28261 0.23567 0.0
C3391 C 0.3394 0.28652 0.24604 0.0
C3392 C 0.37552 0.27833 0.22831 0.0
C3393 C 0.37374 0.26595 0.21984 0.0
C3394 C 0.3882 0.28693 0.22655 0.0
C3395 C 0.39021 0.30082 0.23416 0.0
C3396 C 0.37967 0.31158 0.23306 0.0
C3397 C 0.38155 0.32458 0.24035 0.0
C3398 C 0.39397 0.327 0.24871 0.0
C3399 C 0.40456 0.31643 0.24975 0.0
C3400 C 0.40273 0.30339 0.24249 0.0
C3401 C 0.41786 0.26312 0.17391 0.0
C3402 C 0.4318 0.26011 0.1792 0.0
C3403 C 0.40657 0.26609 0.18349 0.0
C3404 C 0.40908 0.26626 0.19852 0.0
C3405 C 0.42299 0.26324 0.20382 0.0
C3406 C 0.43422 0.26007 0.19426 0.0
C3407 C 0.39736 0.27003 0.20872 0.0
C3408 C 0.39903 0.28253 0.21696 0.0
C3409 C 0.38451 0.26169 0.21007 0.0
C3410 C 0.38224 0.24826 0.20176 0.0
C3411 C 0.39225 0.23701 0.20274 0.0
C3412 C 0.39008 0.22443 0.1948 0.0
C3413 C 0.37789 0.22294 0.18591 0.0
C3414 C 0.36781 0.23401 0.18499 0.0
C3415 C 0.36994 0.24662 0.1929 0.0
H3416 H 0.37623 0.21319 0.17978 0.0
H3417 H 0.3954 0.33707 0.25435 0.0
H3418 H 0.55971 0.39711 0.00183 0.0
H3419 H 0.55338 0.37872 0.01992 0.0
H3420 H 0.5098 0.3948 0.02173 0.0
H3421 H 0.51608 0.41331 0.00354 0.0
H3422 H 0.5201 0.38754 0.04878 0.0
H3423 H 0.51666 0.36555 0.0021 0.0
H3424 H 0.52517 0.35898 0.97773 0.0
H3425 H 0.56055 0.33578 0.99668 0.0
H3426 H 0.55237 0.3424 0.02117 0.0
H3427 H 0.4905 0.32401 0.08264 0.0
H3428 H 0.49559 0.34446 0.06641 0.0
H3429 H 0.53934 0.32973 0.06078 0.0
H3430 H 0.53431 0.30928 0.07694 0.0
H3431 H 0.52768 0.33661 0.03538 0.0
H3432 H 0.53136 0.35897 0.08211 0.0
H3433 H 0.52291 0.36567 0.10646 0.0
H3434 H 0.48702 0.38807 0.08752 0.0
H3435 H 0.49515 0.38134 0.06304 0.0
C3436 C 0.54877 0.39674 0.00606 0.0
C3437 C 0.53834 0.40655 0.00111 0.0
C3438 C 0.54518 0.38624 0.01643 0.0
C3439 C 0.53105 0.38523 0.02198 0.0
C3440 C 0.52076 0.39537 0.01754 0.0
C3441 C 0.52436 0.40594 0.00718 0.0
C3442 C 0.52698 0.37322 0.03199 0.0
C3443 C 0.52156 0.37639 0.0458 0.0
C3444 C 0.52909 0.35868 0.02817 0.0
C3445 C 0.53397 0.35457 0.01346 0.0
C3446 C 0.52631 0.35913 0.00107 0.0
C3447 C 0.53107 0.35539 0.98723 0.0
C3448 C 0.54341 0.34699 0.98566 0.0
C3449 C 0.551 0.34229 0.99792 0.0
C3450 C 0.5463 0.34603 0.01178 0.0
C3451 C 0.50125 0.32522 0.07807 0.0
C3452 C 0.512 0.315 0.08107 0.0
C3453 C 0.50415 0.33692 0.06879 0.0
C3454 C 0.51789 0.33871 0.06246 0.0
C3455 C 0.52864 0.32856 0.0655 0.0
C3456 C 0.52574 0.31684 0.07471 0.0
C3457 C 0.521 0.35089 0.0523 0.0
C3458 C 0.52619 0.34775 0.0384 0.0
C3459 C 0.51865 0.36542 0.05605 0.0
C3460 C 0.51378 0.36952 0.07075 0.0
C3461 C 0.5216 0.36523 0.08314 0.0
C3462 C 0.51688 0.36905 0.09696 0.0
C3463 C 0.50441 0.37726 0.09854 0.0
C3464 C 0.49666 0.3817 0.08628 0.0
C3465 C 0.50133 0.37789 0.07243 0.0
H3466 H 0.50078 0.3802 0.10925 0.0
H3467 H 0.54707 0.34411 0.97494 0.0
H3468 H 0.66229 0.25027 0.25417 0.0
H3469 H 0.63942 0.25095 0.24087 0.0
H3470 H 0.64757 0.20872 0.22393 0.0
H3471 H 0.67078 0.20822 0.23672 0.0
H3472 H 0.63882 0.22601 0.20293 0.0
H3473 H 0.62191 0.21426 0.2506 0.0
H3474 H 0.61946 0.21685 0.27707 0.0
H3475 H 0.60086 0.2586 0.27089 0.0
H3476 H 0.60339 0.25635 0.24437 0.0
H3477 H 0.56802 0.21547 0.17401 0.0
H3478 H 0.58972 0.21299 0.18898 0.0
H3479 H 0.58556 0.25683 0.20306 0.0
H3480 H 0.56405 0.25958 0.18782 0.0
H3481 H 0.59186 0.23782 0.22575 0.0
H3482 H 0.6097 0.24952 0.17796 0.0
H3483 H 0.61197 0.24649 0.15152 0.0
H3484 H 0.62864 0.204 0.15821 0.0
H3485 H 0.62627 0.2067 0.18471 0.0
C3486 C 0.65926 0.24113 0.24758 0.0
C3487 C 0.66842 0.2292 0.2465 0.0
C3488 C 0.64608 0.24147 0.2401 0.0
C3489 C 0.64167 0.22982 0.2315 0.0
C3490 C 0.6507 0.21782 0.23053 0.0
C3491 C 0.66392 0.2175 0.23797 0.0
C3492 C 0.62795 0.23043 0.22304 0.0
C3493 C 0.62852 0.22835 0.20798 0.0
C3494 C 0.61453 0.23379 0.22955 0.0
C3495 C 0.61297 0.23519 0.24549 0.0
C3496 C 0.61741 0.22405 0.25488 0.0
C3497 C 0.61598 0.22545 0.2699 0.0
C3498 C 0.61004 0.2379 0.27566 0.0
C3499 C 0.60548 0.24897 0.26641 0.0
C3500 C 0.60689 0.24763 0.25138 0.0
C3501 C 0.57177 0.22465 0.18016 0.0
C3502 C 0.56429 0.23777 0.17959 0.0
C3503 C 0.58414 0.22318 0.18879 0.0
C3504 C 0.58931 0.23476 0.19705 0.0
C3505 C 0.58172 0.24774 0.1968 0.0
C3506 C 0.56939 0.24927 0.18811 0.0
C3507 C 0.60281 0.23342 0.20571 0.0
C3508 C 0.60218 0.2354 0.22077 0.0
C3509 C 0.61617 0.22988 0.19923 0.0
C3510 C 0.61766 0.22826 0.18331 0.0
C3511 C 0.61373 0.23949 0.17379 0.0
C3512 C 0.61506 0.23783 0.1588 0.0
C3513 C 0.62041 0.22504 0.15319 0.0
C3514 C 0.62448 0.21389 0.16257 0.0
C3515 C 0.62316 0.21548 0.17758 0.0
H3516 H 0.62143 0.22378 0.14158 0.0
H3517 H 0.60894 0.23896 0.28729 0.0
H3518 H 0.47631 0.09342 0.99542 0.0
H3519 H 0.47652 0.11587 0.00912 0.0
H3520 H 0.48535 0.09204 0.04851 0.0
H3521 H 0.48467 0.0696 0.03502 0.0
H3522 H 0.46542 0.11188 0.05321 0.0
H3523 H 0.51218 0.11061 0.03023 0.0
H3524 H 0.52906 0.10902 0.00962 0.0
H3525 H 0.51092 0.14716 0.9906 0.0
H3526 H 0.49379 0.14886 0.01102 0.0
H3527 H 0.49263 0.16644 0.09915 0.0
H3528 H 0.49001 0.14529 0.08376 0.0
H3529 H 0.47968 0.17265 0.04719 0.0
H3530 H 0.48259 0.19391 0.06246 0.0
H3531 H 0.49904 0.15195 0.03999 0.0
H3532 H 0.4532 0.15392 0.064 0.0
H3533 H 0.43672 0.1555 0.08493 0.0
H3534 H 0.45342 0.11598 0.10229 0.0
H3535 H 0.47016 0.11426 0.08156 0.0
C3536 C 0.47816 0.09296 0.00702 0.0
C3537 C 0.48059 0.07971 0.0141 0.0
C3538 C 0.4784 0.10581 0.01482 0.0
C3539 C 0.48113 0.10567 0.02983 0.0
C3540 C 0.48328 0.09244 0.03694 0.0
C3541 C 0.48303 0.07962 0.02917 0.0
C3542 C 0.48184 0.11924 0.03821 0.0
C3543 C 0.47287 0.12058 0.0504 0.0
C3544 C 0.4913 0.13076 0.03434 0.0
C3545 C 0.5016 0.12977 0.02207 0.0
C3546 C 0.51171 0.11859 0.02159 0.0
C3547 C 0.52134 0.11768 0.00995 0.0
C3548 C 0.52104 0.12796 0.99878 0.0
C3549 C 0.51113 0.13919 0.99925 0.0
C3550 C 0.50146 0.14013 0.01085 0.0
C3551 C 0.48989 0.16797 0.08781 0.0
C3552 C 0.4878 0.18186 0.08204 0.0
C3553 C 0.48827 0.15586 0.07906 0.0
C3554 C 0.48449 0.15738 0.06436 0.0
C3555 C 0.48254 0.17123 0.05852 0.0
C3556 C 0.4841 0.18335 0.06729 0.0
C3557 C 0.48275 0.14449 0.05509 0.0
C3558 C 0.49151 0.14329 0.04274 0.0
C3559 C 0.47313 0.13308 0.05883 0.0
C3560 C 0.46303 0.13403 0.07128 0.0
C3561 C 0.45344 0.14562 0.07233 0.0
C3562 C 0.44404 0.14653 0.08415 0.0
C3563 C 0.44405 0.13586 0.09495 0.0
C3564 C 0.45344 0.12424 0.09393 0.0
C3565 C 0.46288 0.12329 0.08214 0.0
H3566 H 0.43676 0.13659 0.10409 0.0
H3567 H 0.5285 0.12724 0.98979 0.0
H3568 H 0.25472 0.34859 0.69613 0.0
H3569 H 0.27293 0.36656 0.70276 0.0
H3570 H 0.26535 0.3573 0.7481 0.0
H3571 H 0.24656 0.33975 0.74155 0.0
H3572 H 0.26615 0.38512 0.74391 0.0
H3573 H 0.29685 0.3468 0.73066 0.0
H3574 H 0.30632 0.32734 0.71553 0.0
H3575 H 0.31674 0.3579 0.68176 0.0
H3576 H 0.30714 0.37754 0.69661 0.0
H3577 H 0.32771 0.42767 0.76541 0.0
H3578 H 0.31191 0.40685 0.76114 0.0
H3579 H 0.30972 0.41795 0.71568 0.0
H3580 H 0.32496 0.43915 0.71987 0.0
H3581 H 0.31505 0.38805 0.72173 0.0
H3582 H 0.2824 0.42596 0.73529 0.0
H3583 H 0.27345 0.44501 0.75127 0.0
H3584 H 0.26757 0.4141 0.7858 0.0
H3585 H 0.2767 0.3949 0.77007 0.0
C3586 C 0.25688 0.35038 0.70753 0.0
C3587 C 0.24909 0.34275 0.7183 0.0
C3588 C 0.26745 0.36055 0.71131 0.0
C3589 C 0.27066 0.3632 0.72594 0.0
C3590 C 0.26311 0.35542 0.73674 0.0
C3591 C 0.25245 0.34528 0.73296 0.0
C3592 C 0.28134 0.37464 0.7299 0.0
C3593 C 0.27694 0.38558 0.73927 0.0
C3594 C 0.29537 0.37541 0.7237 0.0
C3595 C 0.30115 0.36363 0.71471 0.0
C3596 C 0.30105 0.34936 0.71996 0.0
C3597 C 0.30646 0.3383 0.71145 0.0
C3598 C 0.31209 0.34138 0.69768 0.0
C3599 C 0.31235 0.35553 0.69242 0.0
C3600 C 0.30694 0.36664 0.70089 0.0
C3601 C 0.32375 0.42583 0.75452 0.0
C3602 C 0.32762 0.43521 0.74301 0.0
C3603 C 0.31481 0.41384 0.75209 0.0
C3604 C 0.30964 0.41089 0.73811 0.0
C3605 C 0.31368 0.42 0.72654 0.0
C3606 C 0.32247 0.4321 0.72897 0.0
C3607 C 0.29973 0.3985 0.73554 0.0
C3608 C 0.3043 0.38743 0.72646 0.0
C3609 C 0.28593 0.39751 0.74213 0.0
C3610 C 0.28039 0.40903 0.75156 0.0
C3611 C 0.27932 0.42325 0.74633 0.0
C3612 C 0.2742 0.43407 0.75533 0.0
C3613 C 0.26999 0.43078 0.76956 0.0
C3614 C 0.27086 0.41664 0.77479 0.0
C3615 C 0.276 0.40579 0.76583 0.0
H3616 H 0.26602 0.43917 0.77651 0.0
H3617 H 0.31628 0.3328 0.69111 0.0
H3618 H 0.26693 0.67458 0.75158 0.0
H3619 H 0.28027 0.65219 0.74959 0.0
H3620 H 0.26354 0.638 0.79107 0.0
H3621 H 0.25001 0.66039 0.79311 0.0
H3622 H 0.29231 0.63343 0.78904 0.0
H3623 H 0.2505 0.62361 0.75982 0.0
H3624 H 0.23253 0.62823 0.74057 0.0
H3625 H 0.26617 0.62791 0.70846 0.0
H3626 H 0.28439 0.62349 0.72756 0.0
H3627 H 0.3169 0.56166 0.78288 0.0
H3628 H 0.3014 0.58263 0.78519 0.0
H3629 H 0.31644 0.59872 0.74373 0.0
H3630 H 0.33161 0.57751 0.74111 0.0
H3631 H 0.28764 0.60173 0.74626 0.0
H3632 H 0.3295 0.61253 0.77541 0.0
H3633 H 0.34764 0.60813 0.79457 0.0
H3634 H 0.314 0.60676 0.82669 0.0
H3635 H 0.29563 0.61097 0.80768 0.0
C3636 C 0.26589 0.66662 0.7602 0.0
C3637 C 0.25729 0.66926 0.77246 0.0
C3638 C 0.27357 0.65383 0.75905 0.0
C3639 C 0.27278 0.64333 0.7701 0.0
C3640 C 0.2643 0.64594 0.78241 0.0
C3641 C 0.25661 0.65876 0.78357 0.0
C3642 C 0.28107 0.62979 0.76889 0.0
C3643 C 0.29111 0.62636 0.77981 0.0
C3644 C 0.27977 0.62075 0.75667 0.0
C3645 C 0.26883 0.62335 0.74514 0.0
C3646 C 0.25408 0.62464 0.74867 0.0
C3647 C 0.24385 0.6272 0.73778 0.0
C3648 C 0.24821 0.6284 0.7233 0.0
C3649 C 0.26281 0.62699 0.71968 0.0
C3650 C 0.27309 0.62445 0.73053 0.0
C3651 C 0.31679 0.56956 0.77416 0.0
C3652 C 0.32554 0.56791 0.76182 0.0
C3653 C 0.30802 0.58163 0.77557 0.0
C3654 C 0.30789 0.59235 0.76472 0.0
C3655 C 0.31641 0.59061 0.75227 0.0
C3656 C 0.32518 0.57855 0.75085 0.0
C3657 C 0.29893 0.60541 0.76637 0.0
C3658 C 0.28878 0.60875 0.75553 0.0
C3659 C 0.30015 0.61439 0.77865 0.0
C3660 C 0.31118 0.61191 0.7901 0.0
C3661 C 0.32596 0.61118 0.78654 0.0
C3662 C 0.33628 0.60874 0.79738 0.0
C3663 C 0.33197 0.60713 0.81183 0.0
C3664 C 0.31732 0.60799 0.81549 0.0
C3665 C 0.30695 0.61041 0.80469 0.0
H3666 H 0.33998 0.60524 0.82021 0.0
H3667 H 0.24027 0.63038 0.71489 0.0
H3668 H 0.92986 0.47296 0.4795 0.0
H3669 H 0.90713 0.45933 0.48081 0.0
H3670 H 0.88326 0.49898 0.48059 0.0
H3671 H 0.90612 0.5127 0.47968 0.0
H3672 H 0.87203 0.48157 0.49978 0.0
H3673 H 0.885 0.47662 0.45015 0.0
H3674 H 0.90074 0.47135 0.42933 0.0
H3675 H 0.90447 0.42753 0.44396 0.0
H3676 H 0.88891 0.43258 0.46499 0.0
H3677 H 0.80469 0.44411 0.48613 0.0
H3678 H 0.82595 0.45984 0.48326 0.0
H3679 H 0.8539 0.42391 0.49177 0.0
H3680 H 0.8328 0.40821 0.49526 0.0
H3681 H 0.86178 0.44069 0.46697 0.0
H3682 H 0.8493 0.44694 0.51747 0.0
H3683 H 0.83288 0.45282 0.53758 0.0
H3684 H 0.82723 0.49528 0.5198 0.0
H3685 H 0.84347 0.48957 0.49946 0.0
C3686 C 0.91976 0.47877 0.47956 0.0
C3687 C 0.91976 0.4939 0.47936 0.0
C3688 C 0.90676 0.47097 0.48029 0.0
C3689 C 0.89342 0.4781 0.48053 0.0
C3690 C 0.89339 0.49322 0.48038 0.0
C3691 C 0.90644 0.50105 0.47984 0.0
C3692 C 0.8796 0.46971 0.48135 0.0
C3693 C 0.8697 0.47281 0.49242 0.0
C3694 C 0.87655 0.45813 0.47188 0.0
C3695 C 0.88588 0.45502 0.45921 0.0
C3696 C 0.88926 0.46589 0.44898 0.0
C3697 C 0.89813 0.46293 0.43714 0.0
C3698 C 0.90362 0.44912 0.43534 0.0
C3699 C 0.90022 0.43823 0.44537 0.0
C3700 C 0.89135 0.44112 0.45725 0.0
C3701 C 0.81533 0.43956 0.48761 0.0
C3702 C 0.81696 0.42483 0.49093 0.0
C3703 C 0.82748 0.44857 0.48587 0.0
C3704 C 0.84148 0.44303 0.48731 0.0
C3705 C 0.84317 0.42837 0.49052 0.0
C3706 C 0.83106 0.41939 0.49243 0.0
C3707 C 0.85443 0.45247 0.48547 0.0
C3708 C 0.86412 0.44955 0.47421 0.0
C3709 C 0.85718 0.46432 0.49462 0.0
C3710 C 0.84746 0.46777 0.50686 0.0
C3711 C 0.84445 0.45748 0.51778 0.0
C3712 C 0.8352 0.46079 0.52923 0.0
C3713 C 0.82898 0.4744 0.52994 0.0
C3714 C 0.83203 0.48474 0.51922 0.0
C3715 C 0.84127 0.48147 0.50774 0.0
H3716 H 0.82182 0.47694 0.53882 0.0
H3717 H 0.9105 0.44686 0.42616 0.0
H3718 H 0.76934 0.86708 0.79333 0.0
H3719 H 0.75119 0.88513 0.78757 0.0
H3720 H 0.72035 0.85152 0.77717 0.0
H3721 H 0.73862 0.83332 0.78284 0.0
H3722 H 0.71875 0.8733 0.75786 0.0
H3723 H 0.71852 0.86902 0.8095 0.0
H3724 H 0.72908 0.8682 0.83408 0.0
H3725 H 0.74509 0.9115 0.8287 0.0
H3726 H 0.73481 0.91251 0.80399 0.0
H3727 H 0.65838 0.92116 0.7602 0.0
H3728 H 0.67502 0.9013 0.76492 0.0
H3729 H 0.70937 0.93181 0.77393 0.0
H3730 H 0.69276 0.95168 0.7695 0.0
H3731 H 0.70777 0.91045 0.79438 0.0
H3732 H 0.70843 0.91409 0.74216 0.0
H3733 H 0.69752 0.91463 0.71773 0.0
H3734 H 0.67994 0.87211 0.7246 0.0
H3735 H 0.69058 0.87141 0.74917 0.0
C3736 C 0.75867 0.86351 0.78989 0.0
C3737 C 0.75536 0.84876 0.78871 0.0
C3738 C 0.7483 0.87385 0.78659 0.0
C3739 C 0.73431 0.86969 0.78221 0.0
C3740 C 0.73106 0.85498 0.7806 0.0
C3741 C 0.7415 0.8446 0.78382 0.0
C3742 C 0.7231 0.88077 0.7795 0.0
C3743 C 0.71618 0.88128 0.76593 0.0
C3744 C 0.71987 0.89132 0.78995 0.0
C3745 C 0.72599 0.89079 0.80485 0.0
C3746 C 0.72438 0.87833 0.81352 0.0
C3747 C 0.73031 0.87784 0.82748 0.0
C3748 C 0.73778 0.88978 0.83294 0.0
C3749 C 0.73931 0.90226 0.82446 0.0
C3750 C 0.73342 0.9028 0.81048 0.0
C3751 C 0.66947 0.92363 0.76324 0.0
C3752 C 0.67426 0.938 0.76444 0.0
C3753 C 0.67899 0.91227 0.76582 0.0
C3754 C 0.69346 0.91508 0.76967 0.0
C3755 C 0.69825 0.9294 0.77094 0.0
C3756 C 0.68877 0.94075 0.76829 0.0
C3757 C 0.70361 0.90312 0.77268 0.0
C3758 C 0.7103 0.90242 0.78634 0.0
C3759 C 0.70653 0.89237 0.76235 0.0
C3760 C 0.70017 0.89276 0.74756 0.0
C3761 C 0.70213 0.90491 0.73851 0.0
C3762 C 0.69602 0.90523 0.72463 0.0
C3763 C 0.68801 0.89343 0.71963 0.0
C3764 C 0.68613 0.88126 0.72849 0.0
C3765 C 0.69221 0.88089 0.7424 0.0
H3766 H 0.68328 0.8937 0.70887 0.0
H3767 H 0.74236 0.88938 0.84375 0.0
H3768 H 0.61413 0.4853 0.95881 0.0
H3769 H 0.63241 0.50319 0.96544 0.0
H3770 H 0.60131 0.52462 0.99225 0.0
H3771 H 0.58293 0.50643 0.98602 0.0
H3772 H 0.61775 0.5435 0.9743 0.0
H3773 H 0.62575 0.50531 0.00856 0.0
H3774 H 0.62962 0.48018 0.01636 0.0
H3775 H 0.66873 0.47893 0.99127 0.0
H3776 H 0.66498 0.504 0.98315 0.0
H3777 H 0.67143 0.58888 0.00658 0.0
H3778 H 0.65137 0.57187 0.00272 0.0
H3779 H 0.68013 0.54368 0.97994 0.0
H3780 H 0.70024 0.56055 0.98397 0.0
H3781 H 0.6637 0.52853 0.99768 0.0
H3782 H 0.65526 0.56573 0.96209 0.0
H3783 H 0.65148 0.5906 0.9534 0.0
H3784 H 0.61347 0.59355 0.97995 0.0
H3785 H 0.61714 0.56875 0.98895 0.0
C3786 C 0.61117 0.49366 0.96629 0.0
C3787 C 0.59706 0.49428 0.97201 0.0
C3788 C 0.62164 0.50395 0.97 0.0
C3789 C 0.61826 0.51514 0.97945 0.0
C3790 C 0.60413 0.51604 0.98494 0.0
C3791 C 0.59364 0.50566 0.98132 0.0
C3792 C 0.62958 0.52581 0.98354 0.0
C3793 C 0.6277 0.5403 0.97964 0.0
C3794 C 0.64268 0.52155 0.99021 0.0
C3795 C 0.64502 0.5065 0.99515 0.0
C3796 C 0.63512 0.49964 0.00461 0.0
C3797 C 0.6373 0.48542 0.00911 0.0
C3798 C 0.6494 0.47796 0.00429 0.0
C3799 C 0.65936 0.48472 0.99499 0.0
C3800 C 0.65722 0.49894 0.99045 0.0
C3801 C 0.67344 0.57909 0.00068 0.0
C3802 C 0.6874 0.57606 0.99556 0.0
C3803 C 0.66197 0.56938 0.99847 0.0
C3804 C 0.66418 0.55655 0.99088 0.0
C3805 C 0.67815 0.55348 0.98585 0.0
C3806 C 0.68964 0.56311 0.98817 0.0
C3807 C 0.65201 0.54625 0.98824 0.0
C3808 C 0.65373 0.5318 0.99243 0.0
C3809 C 0.63881 0.55055 0.98174 0.0
C3810 C 0.63656 0.56544 0.97631 0.0
C3811 C 0.64616 0.57172 0.96616 0.0
C3812 C 0.64402 0.5858 0.96117 0.0
C3813 C 0.63227 0.59366 0.96616 0.0
C3814 C 0.62259 0.58745 0.97612 0.0
C3815 C 0.62468 0.57338 0.98116 0.0
H3816 H 0.63063 0.60456 0.96228 0.0
H3817 H 0.65106 0.46694 0.00778 0.0
H3818 H 0.24364 0.66029 0.19776 0.0
H3819 H 0.22544 0.64225 0.20461 0.0
H3820 H 0.24548 0.63761 0.24669 0.0
H3821 H 0.26419 0.65515 0.23965 0.0
H3822 H 0.23998 0.61221 0.23605 0.0
H3823 H 0.21234 0.65472 0.24189 0.0
H3824 H 0.20203 0.67819 0.23506 0.0
H3825 H 0.17934 0.65865 0.1995 0.0
H3826 H 0.18967 0.63509 0.20599 0.0
H3827 H 0.18227 0.56813 0.26383 0.0
H3828 H 0.19908 0.58838 0.26012 0.0
H3829 H 0.1851 0.59225 0.21561 0.0
H3830 H 0.16853 0.57182 0.21907 0.0
H3831 H 0.18712 0.61864 0.22933 0.0
H3832 H 0.21631 0.5764 0.22314 0.0
H3833 H 0.22652 0.55304 0.23053 0.0
H3834 H 0.24613 0.5726 0.26783 0.0
H3835 H 0.23587 0.59605 0.26077 0.0
C3836 C 0.24422 0.65543 0.20848 0.0
C3837 C 0.25546 0.65915 0.21812 0.0
C3838 C 0.23367 0.64522 0.21245 0.0
C3839 C 0.23397 0.63865 0.22624 0.0
C3840 C 0.24499 0.64255 0.23601 0.0
C3841 C 0.25561 0.65271 0.23201 0.0
C3842 C 0.22325 0.62715 0.23013 0.0
C3843 C 0.22841 0.61373 0.23484 0.0
C3844 C 0.20814 0.62899 0.2283 0.0
C3845 C 0.20188 0.64315 0.22436 0.0
C3846 C 0.20524 0.65544 0.23254 0.0
C3847 C 0.19938 0.66876 0.22875 0.0
C3848 C 0.19007 0.66992 0.21684 0.0
C3849 C 0.18657 0.65774 0.20872 0.0
C3850 C 0.19241 0.6444 0.21246 0.0
C3851 C 0.18285 0.57319 0.2532 0.0
C3852 C 0.17405 0.56827 0.24174 0.0
C3853 C 0.19241 0.58482 0.25113 0.0
C3854 C 0.19339 0.59177 0.23757 0.0
C3855 C 0.18447 0.58708 0.22618 0.0
C3856 C 0.17496 0.57541 0.22821 0.0
C3857 C 0.2039 0.60377 0.23512 0.0
C3858 C 0.19869 0.61723 0.23066 0.0
C3859 C 0.21896 0.60201 0.23729 0.0
C3860 C 0.22519 0.58794 0.24151 0.0
C3861 C 0.2227 0.57569 0.23298 0.0
C3862 C 0.22851 0.56244 0.2371 0.0
C3863 C 0.23693 0.56133 0.24967 0.0
C3864 C 0.23959 0.57348 0.25812 0.0
C3865 C 0.23378 0.58675 0.25406 0.0
H3866 H 0.24143 0.55106 0.25283 0.0
H3867 H 0.18554 0.68024 0.21392 0.0
H3868 H 0.91545 0.50741 0.04185 0.0
H3869 H 0.89276 0.52079 0.04118 0.0
H3870 H 0.90333 0.5368 0.99833 0.0
H3871 H 0.92594 0.52347 0.99892 0.0
H3872 H 0.89431 0.55805 0.01502 0.0
H3873 H 0.87766 0.51026 0.00373 0.0
H3874 H 0.87458 0.48411 0.00764 0.0
H3875 H 0.85247 0.49168 0.04775 0.0
H3876 H 0.8556 0.51789 0.04417 0.0
H3877 H 0.82683 0.58491 0.99201 0.0
H3878 H 0.84853 0.57037 0.99455 0.0
H3879 H 0.83615 0.5588 0.03826 0.0
H3880 H 0.81448 0.57359 0.03594 0.0
H3881 H 0.84591 0.53546 0.02268 0.0
H3882 H 0.86192 0.58342 0.03333 0.0
H3883 H 0.86479 0.60953 0.02901 0.0
H3884 H 0.88809 0.60152 0.98969 0.0
H3885 H 0.88517 0.57535 0.99366 0.0
C3886 C 0.91286 0.51365 0.03222 0.0
C3887 C 0.92254 0.51441 0.02046 0.0
C3888 C 0.89989 0.52131 0.03186 0.0
C3889 C 0.89629 0.52976 0.01967 0.0
C3890 C 0.9059 0.53043 0.00789 0.0
C3891 C 0.91885 0.52282 0.00826 0.0
C3892 C 0.88271 0.53819 0.01923 0.0
C3893 C 0.88373 0.55307 0.01653 0.0
C3894 C 0.86891 0.53178 0.02159 0.0
C3895 C 0.86701 0.51603 0.02376 0.0
C3896 C 0.87225 0.50635 0.01345 0.0
C3897 C 0.87047 0.49151 0.01559 0.0
C3898 C 0.86337 0.48624 0.02796 0.0
C3899 C 0.85799 0.49578 0.03819 0.0
C3900 C 0.85976 0.51063 0.0361 0.0
C3901 C 0.82875 0.57941 0.00223 0.0
C3902 C 0.81894 0.58056 0.01382 0.0
C3903 C 0.84115 0.57104 0.00363 0.0
C3904 C 0.84404 0.56363 0.01665 0.0
C3905 C 0.83412 0.56443 0.02812 0.0
C3906 C 0.82172 0.57286 0.02675 0.0
C3907 C 0.85754 0.55524 0.01827 0.0
C3908 C 0.85652 0.54042 0.02123 0.0
C3909 C 0.87136 0.56168 0.01611 0.0
C3910 C 0.87321 0.57742 0.01373 0.0
C3911 C 0.86755 0.58722 0.0237 0.0
C3912 C 0.86921 0.60204 0.02133 0.0
C3913 C 0.87659 0.60718 0.00907 0.0
C3914 C 0.88236 0.59752 0.99918 0.0
C3915 C 0.88072 0.58269 0.00149 0.0
H3916 H 0.87786 0.61865 0.00725 0.0
H3917 H 0.862 0.47475 0.0296 0.0
H3918 H 0.08066 0.98922 0.03618 0.0
H3919 H 0.09807 0.97107 0.0286 0.0
H3920 H 0.13335 1.00021 0.03855 0.0
H3921 H 0.11609 0.01847 0.04569 0.0
H3922 H 0.13792 0.9872 0.01331 0.0
H3923 H 0.12357 0.97263 0.06169 0.0
H3924 H 0.10618 0.96551 0.08082 0.0
H3925 H 0.09221 0.92935 0.05553 0.0
H3926 H 0.1094 0.93637 0.03615 0.0
H3927 H 0.19834 0.94236 0.02199 0.0
H3928 H 0.17815 0.9586 0.02591 0.0
H3929 H 0.14804 0.92548 0.01242 0.0
H3930 H 0.16825 0.90903 0.00868 0.0
H3931 H 0.13912 0.93914 0.03723 0.0
H3932 H 0.15529 0.95263 0.98981 0.0
H3933 H 0.17305 0.95969 0.97101 0.0
H3934 H 0.18382 0.99793 0.99465 0.0
H3935 H 0.16628 0.99099 0.01371 0.0
C3936 C 0.09212 0.99179 0.03663 0.0
C3937 C 0.09698 0.00525 0.04166 0.0
C3938 C 0.10206 0.98137 0.0324 0.0
C3939 C 0.11703 0.98422 0.03315 0.0
C3940 C 0.12187 0.99774 0.03791 0.0
C3941 C 0.11197 0.00813 0.04213 0.0
C3942 C 0.12777 0.97317 0.02913 0.0
C3943 C 0.13824 0.97674 0.01862 0.0
C3944 C 0.12796 0.95935 0.03576 0.0
C3945 C 0.11764 0.95512 0.0474 0.0
C3946 C 0.1167 0.96323 0.06015 0.0
C3947 C 0.1069 0.9592 0.07105 0.0
C3948 C 0.09806 0.94701 0.06937 0.0
C3949 C 0.09904 0.9388 0.0568 0.0
C3950 C 0.10881 0.9428 0.04586 0.0
C3951 C 0.18742 0.93849 0.01994 0.0
C3952 C 0.18489 0.9244 0.01504 0.0
C3953 C 0.1759 0.94783 0.02207 0.0
C3954 C 0.1616 0.9433 0.01932 0.0
C3955 C 0.159 0.92921 0.01455 0.0
C3956 C 0.17055 0.91986 0.01233 0.0
C3957 C 0.14942 0.95331 0.02163 0.0
C3958 C 0.13869 0.94955 0.0318 0.0
C3959 C 0.14901 0.96697 0.01472 0.0
C3960 C 0.15954 0.97122 0.00325 0.0
C3961 C 0.16152 0.96249 0.99106 0.0
C3962 C 0.17154 0.96648 0.98035 0.0
C3963 C 0.17958 0.97924 0.98165 0.0
C3964 C 0.1776 0.98805 0.99366 0.0
C3965 C 0.1676 0.9841 0.00442 0.0
H3966 H 0.18733 0.98231 0.97335 0.0
H3967 H 0.09049 0.94391 0.07782 0.0
loop_
_geom_bond_atom_site_label_1
_geom_bond_atom_site_label_2
_geom_bond_distance
_geom_bond_site_symmetry_2
_ccdc_geom_bond_type
P0 O11 1.490 . S
P0 C14 1.812 . S
P0 C20 1.803 . S
P0 C26 1.819 . S
H1 C15 0.941 . S
H2 C16 0.939 . S
H3 C18 0.940 1_655 S
H4 C19 0.940 . S
H5 C21 0.939 . S
H6 C22 0.942 . S
H7 C24 0.940 1_565 S
H8 C25 0.939 . S
H9 C27 0.941 . S
H10 C31 0.939 . S
O11 P0 1.490 . S
H12 C28 0.939 . S
H13 C30 0.940 1_556 S
C14 P0 1.812 . S
C14 C15 1.389 . S
C14 C19 1.391 . S
C15 H1 0.941 . S
C15 C14 1.389 . S
C15 C16 1.397 . S
C16 H2 0.939 . S
C16 C15 1.397 . S
C16 C17 1.378 . S
C17 C16 1.378 . S
C17 C18 1.378 . S
C18 H3 0.940 1_455 S
C18 C17 1.378 . S
C18 C19 1.396 . S
C19 H4 0.940 . S
C19 C14 1.391 . S
C19 C18 1.396 . S
C20 P0 1.803 . S
C20 C21 1.378 . S
C20 C25 1.400 . S
C21 H5 0.939 . S
C21 C20 1.378 . S
C21 C22 1.361 . S
C22 H6 0.942 . S
C22 C21 1.361 . S
C22 C23 1.369 . S
C23 C22 1.369 . S
C23 C24 1.404 . S
C24 H7 0.940 1_545 S
C24 C23 1.404 . S
C24 C25 1.389 . S
C25 H8 0.939 . S
C25 C20 1.400 . S
C25 C24 1.389 . S
C26 P0 1.819 . S
C26 C27 1.391 . S
C26 C31 1.391 . S
C27 H9 0.941 . S
C27 C26 1.391 . S
C27 C28 1.396 . S
C28 H12 0.939 . S
C28 C27 1.396 . S
C28 C29 1.397 . S
C29 C28 1.397 . S
C29 C30 1.385 . S
C30 H13 0.940 1_554 S
C30 C29 1.385 . S
C30 C31 1.388 . S
C31 H10 0.939 . S
C31 C26 1.391 . S
C31 C30 1.388 . S
P32 O43 1.490 . S
P32 C46 1.812 . S
P32 C52 1.803 . S
P32 C58 1.819 . S
H33 C47 0.941 . S
H34 C48 0.939 . S
H35 C50 0.940 . S
H36 C51 0.940 . S
H37 C53 0.939 . S
H38 C54 0.942 . S
H39 C56 0.940 . S
H40 C57 0.939 . S
H41 C59 0.941 . S
H42 C63 0.939 . S
O43 P32 1.490 . S
H44 C60 0.939 . S
H45 C62 0.940 . S
C46 P32 1.812 . S
C46 C47 1.389 . S
C46 C51 1.391 . S
C47 H33 0.941 . S
C47 C46 1.389 . S
C47 C48 1.397 . S
C48 H34 0.939 . S
C48 C47 1.397 . S
C48 C49 1.378 . S
C49 C48 1.378 . S
C49 C50 1.378 . S
C50 H35 0.940 . S
C50 C49 1.378 . S
C50 C51 1.396 . S
C51 H36 0.940 . S
C51 C46 1.391 . S
C51 C50 1.396 . S
C52 P32 1.803 . S
C52 C53 1.378 . S
C52 C57 1.400 . S
C53 H37 0.939 . S
C53 C52 1.378 . S
C53 C54 1.361 . S
C54 H38 0.942 . S
C54 C53 1.361 . S
C54 C55 1.369 . S
C55 C54 1.369 . S
C55 C56 1.404 . S
C56 H39 0.940 . S
C56 C55 1.404 . S
C56 C57 1.389 . S
C57 H40 0.939 . S
C57 C52 1.400 . S
C57 C56 1.389 . S
C58 P32 1.819 . S
C58 C59 1.391 . S
C58 C63 1.391 . S
C59 H41 0.941 . S
C59 C58 1.391 . S
C59 C60 1.396 . S
C60 H44 0.939 . S
C60 C59 1.396 . S
C60 C61 1.397 . S
C61 C60 1.397 . S
C61 C62 1.385 . S
C62 H45 0.940 . S
C62 C61 1.385 . S
C62 C63 1.388 . S
C63 H42 0.939 . S
C63 C58 1.391 . S
C63 C62 1.388 . S
P64 O75 1.490 . S
P64 C78 1.812 . S
P64 C84 1.803 . S
P64 C90 1.819 . S
H65 C79 0.941 . S
H66 C80 0.939 . S
H67 C82 0.940 . S
H68 C83 0.940 . S
H69 C85 0.939 . S
H70 C86 0.942 . S
H71 C88 0.940 . S
H72 C89 0.939 . S
H73 C91 0.941 . S
H74 C95 0.939 . S
O75 P64 1.490 . S
H76 C92 0.939 . S
H77 C94 0.940 . S
C78 P64 1.812 . S
C78 C79 1.389 1_554 S
C78 C83 1.391 . S
C79 H65 0.941 . S
C79 C78 1.389 1_556 S
C79 C80 1.397 . S
C80 H66 0.939 . S
C80 C79 1.397 . S
C80 C81 1.378 1_556 S
C81 C80 1.378 1_554 S
C81 C82 1.378 . S
C82 H67 0.940 . S
C82 C81 1.378 . S
C82 C83 1.396 . S
C83 H68 0.940 . S
C83 C78 1.391 . S
C83 C82 1.396 . S
C84 P64 1.803 . S
C84 C85 1.378 . S
C84 C89 1.400 . S
C85 H69 0.939 . S
C85 C84 1.378 . S
C85 C86 1.361 . S
C86 H70 0.942 . S
C86 C85 1.361 . S
C86 C87 1.369 . S
C87 C86 1.369 . S
C87 C88 1.404 . S
C88 H71 0.940 . S
C88 C87 1.404 . S
C88 C89 1.389 . S
C89 H72 0.939 . S
C89 C84 1.400 . S
C89 C88 1.389 . S
C90 P64 1.819 . S
C90 C91 1.391 1_655 S
C90 C95 1.391 . S
C91 H73 0.941 . S
C91 C90 1.391 1_455 S
C91 C92 1.396 . S
C92 H76 0.939 . S
C92 C91 1.396 . S
C92 C93 1.400 1_455 S
C93 C92 1.400 1_655 S
C93 C94 1.380 . S
C94 H77 0.940 . S
C94 C93 1.380 . S
C94 C95 1.388 . S
C95 H74 0.939 . S
C95 C90 1.391 . S
C95 C94 1.388 . S
P96 O107 1.490 . S
P96 C110 1.812 . S
P96 C116 1.803 . S
P96 C122 1.819 . S
H97 C111 0.941 . S
H98 C112 0.939 . S
H99 C114 0.940 . S
H100 C115 0.940 . S
H101 C117 0.939 . S
H102 C118 0.942 . S
H103 C120 0.940 . S
H104 C121 0.939 . S
H105 C123 0.941 . S
H106 C127 0.939 . S
O107 P96 1.490 . S
H108 C124 0.939 . S
H109 C126 0.940 . S
C110 P96 1.812 . S
C110 C111 1.389 . S
C110 C115 1.391 . S
C111 H97 0.941 . S
C111 C110 1.389 . S
C111 C112 1.397 . S
C112 H98 0.939 . S
C112 C111 1.397 . S
C112 C113 1.378 . S
C113 C112 1.378 . S
C113 C114 1.378 . S
C114 H99 0.940 . S
C114 C113 1.378 . S
C114 C115 1.396 . S
C115 H100 0.940 . S
C115 C110 1.391 . S
C115 C114 1.396 . S
C116 P96 1.803 . S
C116 C117 1.378 . S
C116 C121 1.400 . S
C117 H101 0.939 . S
C117 C116 1.378 . S
C117 C118 1.361 . S
C118 H102 0.942 . S
C118 C117 1.361 . S
C118 C119 1.369 . S
C119 C118 1.369 . S
C119 C120 1.404 . S
C120 H103 0.940 . S
C120 C119 1.404 . S
C120 C121 1.389 . S
C121 H104 0.939 . S
C121 C116 1.400 . S
C121 C120 1.389 . S
C122 P96 1.819 . S
C122 C123 1.391 . S
C122 C127 1.391 . S
C123 H105 0.941 . S
C123 C122 1.391 . S
C123 C124 1.396 . S
C124 H108 0.939 . S
C124 C123 1.396 . S
C124 C125 1.397 . S
C125 C124 1.397 . S
C125 C126 1.385 . S
C126 H109 0.940 . S
C126 C125 1.385 . S
C126 C127 1.388 . S
C127 H106 0.939 . S
C127 C122 1.391 . S
C127 C126 1.388 . S
P128 O139 1.490 . S
P128 C142 1.812 . S
P128 C148 1.803 . S
P128 C154 1.819 . S
H129 C143 0.941 . S
H130 C144 0.939 . S
H131 C146 0.940 1_545 S
H132 C147 0.940 . S
H133 C149 0.939 . S
H134 C150 0.942 . S
H135 C152 0.940 . S
H136 C153 0.939 . S
H137 C155 0.941 . S
H138 C159 0.939 . S
O139 P128 1.490 . S
H140 C156 0.939 . S
H141 C158 0.940 1_655 S
C142 P128 1.812 . S
C142 C143 1.389 . S
C142 C147 1.391 . S
C143 H129 0.941 . S
C143 C142 1.389 . S
C143 C144 1.397 . S
C144 H130 0.939 . S
C144 C143 1.397 . S
C144 C145 1.378 . S
C145 C144 1.378 . S
C145 C146 1.378 . S
C146 H131 0.940 1_565 S
C146 C145 1.378 . S
C146 C147 1.396 . S
C147 H132 0.940 . S
C147 C142 1.391 . S
C147 C146 1.396 . S
C148 P128 1.803 . S
C148 C149 1.378 . S
C148 C153 1.400 . S
C149 H133 0.939 . S
C149 C148 1.378 . S
C149 C150 1.361 . S
C150 H134 0.942 . S
C150 C149 1.361 . S
C150 C151 1.369 . S
C151 C150 1.369 . S
C151 C152 1.404 . S
C152 H135 0.940 . S
C152 C151 1.404 . S
C152 C153 1.389 . S
C153 H136 0.939 . S
C153 C148 1.400 . S
C153 C152 1.389 . S
C154 P128 1.819 . S
C154 C155 1.391 . S
C154 C159 1.391 . S
C155 H137 0.941 . S
C155 C154 1.391 . S
C155 C156 1.396 . S
C156 H140 0.939 . S
C156 C155 1.396 . S
C156 C157 1.397 . S
C157 C156 1.397 . S
C157 C158 1.385 . S
C158 H141 0.940 1_455 S
C158 C157 1.385 . S
C158 C159 1.388 . S
C159 H138 0.939 . S
C159 C154 1.391 . S
C159 C158 1.388 . S
P160 O171 1.490 . S
P160 C174 1.812 . S
P160 C180 1.803 . S
P160 C186 1.819 . S
H161 C175 0.941 . S
H162 C176 0.939 . S
H163 C178 0.940 . S
H164 C179 0.940 . S
H165 C181 0.939 . S
H166 C182 0.942 . S
H167 C184 0.940 . S
H168 C185 0.939 . S
H169 C187 0.941 . S
H170 C191 0.939 . S
O171 P160 1.490 . S
H172 C188 0.939 . S
H173 C190 0.940 . S
C174 P160 1.812 . S
C174 C175 1.389 . S
C174 C179 1.391 . S
C175 H161 0.941 . S
C175 C174 1.389 . S
C175 C176 1.397 . S
C176 H162 0.939 . S
C176 C175 1.397 . S
C176 C177 1.378 . S
C177 C176 1.378 . S
C177 C178 1.378 . S
C178 H163 0.940 . S
C178 C177 1.378 . S
C178 C179 1.396 . S
C179 H164 0.940 . S
C179 C174 1.391 . S
C179 C178 1.396 . S
C180 P160 1.803 . S
C180 C181 1.378 . S
C180 C185 1.400 . S
C181 H165 0.939 . S
C181 C180 1.378 . S
C181 C182 1.361 . S
C182 H166 0.942 . S
C182 C181 1.361 . S
C182 C183 1.369 . S
C183 C182 1.369 . S
C183 C184 1.404 . S
C184 H167 0.940 . S
C184 C183 1.404 . S
C184 C185 1.389 . S
C185 H168 0.939 . S
C185 C180 1.400 . S
C185 C184 1.389 . S
C186 P160 1.819 . S
C186 C187 1.391 . S
C186 C191 1.391 . S
C187 H169 0.941 . S
C187 C186 1.391 . S
C187 C188 1.396 . S
C188 H172 0.939 . S
C188 C187 1.396 . S
C188 C189 1.397 . S
C189 C188 1.397 . S
C189 C190 1.385 . S
C190 H173 0.940 . S
C190 C189 1.385 . S
C190 C191 1.388 . S
C191 H170 0.939 . S
C191 C186 1.391 . S
C191 C190 1.388 . S
P192 O203 1.490 . S
P192 C206 1.812 . S
P192 C212 1.803 . S
P192 C218 1.819 . S
H193 C207 0.941 . S
H194 C208 0.939 . S
H195 C210 0.940 . S
H196 C211 0.940 . S
H197 C213 0.939 . S
H198 C214 0.942 . S
H199 C216 0.940 . S
H200 C217 0.939 . S
H201 C219 0.941 . S
H202 C223 0.939 . S
O203 P192 1.490 . S
H204 C220 0.939 . S
H205 C222 0.940 . S
C206 P192 1.812 . S
C206 C207 1.389 1_655 S
C206 C211 1.391 . S
C207 H193 0.941 . S
C207 C206 1.389 1_455 S
C207 C208 1.397 . S
C208 H194 0.939 . S
C208 C207 1.397 . S
C208 C209 1.373 1_455 S
C209 C208 1.373 1_655 S
C209 C210 1.386 . S
C210 H195 0.940 . S
C210 C209 1.386 . S
C210 C211 1.396 . S
C211 H196 0.940 . S
C211 C206 1.391 . S
C211 C210 1.396 . S
C212 P192 1.803 . S
C212 C213 1.378 . S
C212 C217 1.400 . S
C213 H197 0.939 . S
C213 C212 1.378 . S
C213 C214 1.361 . S
C214 H198 0.942 . S
C214 C213 1.361 . S
C214 C215 1.369 . S
C215 C214 1.369 . S
C215 C216 1.404 . S
C216 H199 0.940 . S
C216 C215 1.404 . S
C216 C217 1.389 . S
C217 H200 0.939 . S
C217 C212 1.400 . S
C217 C216 1.389 . S
C218 P192 1.819 . S
C218 C219 1.391 . S
C218 C223 1.391 . S
C219 H201 0.941 . S
C219 C218 1.391 . S
C219 C220 1.396 . S
C220 H204 0.939 . S
C220 C219 1.396 . S
C220 C221 1.397 . S
C221 C220 1.397 . S
C221 C222 1.385 . S
C222 H205 0.940 . S
C222 C221 1.385 . S
C222 C223 1.388 . S
C223 H202 0.939 . S
C223 C218 1.391 . S
C223 C222 1.388 . S
P224 O235 1.490 . S
P224 C238 1.812 . S
P224 C244 1.803 . S
P224 C250 1.819 . S
H225 C239 0.941 . S
H226 C240 0.939 . S
H227 C242 0.940 . S
H228 C243 0.940 . S
H229 C245 0.939 . S
H230 C246 0.942 . S
H231 C248 0.940 . S
H232 C249 0.939 . S
H233 C251 0.941 . S
H234 C255 0.939 . S
O235 P224 1.490 . S
H236 C252 0.939 . S
H237 C254 0.940 . S
C238 P224 1.812 . S
C238 C239 1.389 . S
C238 C243 1.391 . S
C239 H225 0.941 . S
C239 C238 1.389 . S
C239 C240 1.397 . S
C240 H226 0.939 . S
C240 C239 1.397 . S
C240 C241 1.378 . S
C241 C240 1.378 . S
C241 C242 1.378 . S
C242 H227 0.940 . S
C242 C241 1.378 . S
C242 C243 1.396 . S
C243 H228 0.940 . S
C243 C238 1.391 . S
C243 C242 1.396 . S
C244 P224 1.803 . S
C244 C245 1.378 . S
C244 C249 1.400 . S
C245 H229 0.939 . S
C245 C244 1.378 . S
C245 C246 1.361 . S
C246 H230 0.942 . S
C246 C245 1.361 . S
C246 C247 1.369 . S
C247 C246 1.369 . S
C247 C248 1.404 . S
C248 H231 0.940 . S
C248 C247 1.404 . S
C248 C249 1.389 . S
C249 H232 0.939 . S
C249 C244 1.400 . S
C249 C248 1.389 . S
C250 P224 1.819 . S
C250 C251 1.391 . S
C250 C255 1.391 . S
C251 H233 0.941 . S
C251 C250 1.391 . S
C251 C252 1.396 . S
C252 H236 0.939 . S
C252 C251 1.396 . S
C252 C253 1.397 . S
C253 C252 1.397 . S
C253 C254 1.385 . S
C254 H237 0.940 . S
C254 C253 1.385 . S
C254 C255 1.388 . S
C255 H234 0.939 . S
C255 C250 1.391 . S
C255 C254 1.388 . S
P256 O267 1.490 . S
P256 C270 1.812 . S
P256 C276 1.803 . S
P256 C282 1.819 . S
H257 C271 0.941 . S
H258 C272 0.939 . S
H259 C274 0.940 . S
H260 C275 0.940 . S
H261 C277 0.939 . S
H262 C278 0.942 . S
H263 C280 0.940 . S
H264 C281 0.939 . S
H265 C283 0.941 . S
H266 C287 0.939 . S
O267 P256 1.490 . S
H268 C284 0.939 . S
H269 C286 0.940 . S
C270 P256 1.812 . S
C270 C271 1.389 . S
C270 C275 1.391 . S
C271 H257 0.941 . S
C271 C270 1.389 . S
C271 C272 1.397 . S
C272 H258 0.939 . S
C272 C271 1.397 . S
C272 C273 1.378 . S
C273 C272 1.378 . S
C273 C274 1.378 . S
C274 H259 0.940 . S
C274 C273 1.378 . S
C274 C275 1.396 . S
C275 H260 0.940 . S
C275 C270 1.391 . S
C275 C274 1.396 . S
C276 P256 1.803 . S
C276 C277 1.378 . S
C276 C281 1.400 . S
C277 H261 0.939 . S
C277 C276 1.378 . S
C277 C278 1.361 . S
C278 H262 0.942 . S
C278 C277 1.361 . S
C278 C279 1.369 . S
C279 C278 1.369 . S
C279 C280 1.404 . S
C280 H263 0.940 . S
C280 C279 1.404 . S
C280 C281 1.389 . S
C281 H264 0.939 . S
C281 C276 1.400 . S
C281 C280 1.389 . S
C282 P256 1.819 . S
C282 C283 1.391 . S
C282 C287 1.391 . S
C283 H265 0.941 . S
C283 C282 1.391 . S
C283 C284 1.396 . S
C284 H268 0.939 . S
C284 C283 1.396 . S
C284 C285 1.397 . S
C285 C284 1.397 . S
C285 C286 1.385 . S
C286 H269 0.940 . S
C286 C285 1.385 . S
C286 C287 1.388 . S
C287 H266 0.939 . S
C287 C282 1.391 . S
C287 C286 1.388 . S
P288 O299 1.490 . S
P288 C302 1.812 . S
P288 C308 1.803 . S
P288 C314 1.819 . S
H289 C303 0.941 . S
H290 C304 0.939 . S
H291 C306 0.940 . S
H292 C307 0.940 . S
H293 C309 0.939 . S
H294 C310 0.942 . S
H295 C312 0.940 . S
H296 C313 0.939 . S
H297 C315 0.941 . S
H298 C319 0.939 . S
O299 P288 1.490 . S
H300 C316 0.939 . S
H301 C318 0.940 . S
C302 P288 1.812 . S
C302 C303 1.389 . S
C302 C307 1.391 . S
C303 H289 0.941 . S
C303 C302 1.389 . S
C303 C304 1.397 . S
C304 H290 0.939 . S
C304 C303 1.397 . S
C304 C305 1.378 . S
C305 C304 1.378 . S
C305 C306 1.378 . S
C306 H291 0.940 . S
C306 C305 1.378 . S
C306 C307 1.396 . S
C307 H292 0.940 . S
C307 C302 1.391 . S
C307 C306 1.396 . S
C308 P288 1.803 . S
C308 C309 1.378 1_565 S
C308 C313 1.400 . S
C309 H293 0.939 . S
C309 C308 1.378 1_545 S
C309 C310 1.361 . S
C310 H294 0.942 . S
C310 C309 1.361 . S
C310 C311 1.369 . S
C311 C310 1.369 . S
C311 C312 1.404 1_545 S
C312 H295 0.940 . S
C312 C311 1.404 1_565 S
C312 C313 1.389 . S
C313 H296 0.939 . S
C313 C308 1.400 . S
C313 C312 1.389 . S
C314 P288 1.819 . S
C314 C315 1.391 . S
C314 C319 1.391 . S
C315 H297 0.941 . S
C315 C314 1.391 . S
C315 C316 1.396 . S
C316 H300 0.939 . S
C316 C315 1.396 . S
C316 C317 1.397 . S
C317 C316 1.397 . S
C317 C318 1.385 . S
C318 H301 0.940 . S
C318 C317 1.385 . S
C318 C319 1.388 . S
C319 H298 0.939 . S
C319 C314 1.391 . S
C319 C318 1.388 . S
P320 O331 1.490 . S
P320 C334 1.812 . S
P320 C340 1.803 . S
P320 C346 1.819 . S
H321 C335 0.941 . S
H322 C336 0.939 . S
H323 C338 0.940 . S
H324 C339 0.940 . S
H325 C341 0.939 . S
H326 C342 0.942 . S
H327 C344 0.940 . S
H328 C345 0.939 . S
H329 C347 0.941 . S
H330 C351 0.939 . S
O331 P320 1.490 . S
H332 C348 0.939 . S
H333 C350 0.940 . S
C334 P320 1.812 . S
C334 C335 1.389 . S
C334 C339 1.391 . S
C335 H321 0.941 . S
C335 C334 1.389 . S
C335 C336 1.397 . S
C336 H322 0.939 . S
C336 C335 1.397 . S
C336 C337 1.378 . S
C337 C336 1.378 . S
C337 C338 1.378 . S
C338 H323 0.940 . S
C338 C337 1.378 . S
C338 C339 1.396 . S
C339 H324 0.940 . S
C339 C334 1.391 . S
C339 C338 1.396 . S
C340 P320 1.803 . S
C340 C341 1.378 . S
C340 C345 1.400 . S
C341 H325 0.939 . S
C341 C340 1.378 . S
C341 C342 1.361 . S
C342 H326 0.942 . S
C342 C341 1.361 . S
C342 C343 1.369 . S
C343 C342 1.369 . S
C343 C344 1.404 . S
C344 H327 0.940 . S
C344 C343 1.404 . S
C344 C345 1.389 . S
C345 H328 0.939 . S
C345 C340 1.400 . S
C345 C344 1.389 . S
C346 P320 1.819 . S
C346 C347 1.391 . S
C346 C351 1.391 . S
C347 H329 0.941 . S
C347 C346 1.391 . S
C347 C348 1.396 . S
C348 H332 0.939 . S
C348 C347 1.396 . S
C348 C349 1.397 . S
C349 C348 1.397 . S
C349 C350 1.385 . S
C350 H333 0.940 . S
C350 C349 1.385 . S
C350 C351 1.388 . S
C351 H330 0.939 . S
C351 C346 1.391 . S
C351 C350 1.388 . S
P352 O363 1.490 . S
P352 C366 1.812 . S
P352 C372 1.803 . S
P352 C378 1.819 . S
H353 C367 0.941 . S
H354 C368 0.939 . S
H355 C370 0.940 . S
H356 C371 0.940 . S
H357 C373 0.939 . S
H358 C374 0.942 . S
H359 C376 0.940 . S
H360 C377 0.939 . S
H361 C379 0.941 . S
H362 C383 0.939 . S
O363 P352 1.490 . S
H364 C380 0.939 . S
H365 C382 0.940 . S
C366 P352 1.812 . S
C366 C367 1.389 . S
C366 C371 1.391 . S
C367 H353 0.941 . S
C367 C366 1.389 . S
C367 C368 1.397 . S
C368 H354 0.939 . S
C368 C367 1.397 . S
C368 C369 1.378 . S
C369 C368 1.378 . S
C369 C370 1.378 . S
C370 H355 0.940 . S
C370 C369 1.378 . S
C370 C371 1.396 . S
C371 H356 0.940 . S
C371 C366 1.391 . S
C371 C370 1.396 . S
C372 P352 1.803 . S
C372 C373 1.378 . S
C372 C377 1.400 . S
C373 H357 0.939 . S
C373 C372 1.378 . S
C373 C374 1.361 . S
C374 H358 0.942 . S
C374 C373 1.361 . S
C374 C375 1.369 . S
C375 C374 1.369 . S
C375 C376 1.404 . S
C376 H359 0.940 . S
C376 C375 1.404 . S
C376 C377 1.389 . S
C377 H360 0.939 . S
C377 C372 1.400 . S
C377 C376 1.389 . S
C378 P352 1.819 . S
C378 C379 1.391 . S
C378 C383 1.391 . S
C379 H361 0.941 . S
C379 C378 1.391 . S
C379 C380 1.396 . S
C380 H364 0.939 . S
C380 C379 1.396 . S
C380 C381 1.397 . S
C381 C380 1.397 . S
C381 C382 1.385 . S
C382 H365 0.940 . S
C382 C381 1.385 . S
C382 C383 1.388 . S
C383 H362 0.939 . S
C383 C378 1.391 . S
C383 C382 1.388 . S
P384 O395 1.490 . S
P384 C398 1.812 . S
P384 C404 1.803 . S
P384 C410 1.819 . S
H385 C399 0.941 . S
H386 C400 0.939 . S
H387 C402 0.940 . S
H388 C403 0.940 . S
H389 C405 0.939 . S
H390 C406 0.942 . S
H391 C408 0.940 . S
H392 C409 0.939 . S
H393 C411 0.941 . S
H394 C415 0.939 . S
O395 P384 1.490 . S
H396 C412 0.939 . S
H397 C414 0.940 . S
C398 P384 1.812 . S
C398 C399 1.389 . S
C398 C403 1.391 . S
C399 H385 0.941 . S
C399 C398 1.389 . S
C399 C400 1.397 . S
C400 H386 0.939 . S
C400 C399 1.397 . S
C400 C401 1.378 . S
C401 C400 1.378 . S
C401 C402 1.378 . S
C402 H387 0.940 . S
C402 C401 1.378 . S
C402 C403 1.396 . S
C403 H388 0.940 . S
C403 C398 1.391 . S
C403 C402 1.396 . S
C404 P384 1.803 . S
C404 C405 1.378 . S
C404 C409 1.400 . S
C405 H389 0.939 . S
C405 C404 1.378 . S
C405 C406 1.361 . S
C406 H390 0.942 . S
C406 C405 1.361 . S
C406 C407 1.369 . S
C407 C406 1.369 . S
C407 C408 1.404 . S
C408 H391 0.940 . S
C408 C407 1.404 . S
C408 C409 1.389 . S
C409 H392 0.939 . S
C409 C404 1.400 . S
C409 C408 1.389 . S
C410 P384 1.819 . S
C410 C411 1.391 . S
C410 C415 1.391 . S
C411 H393 0.941 . S
C411 C410 1.391 . S
C411 C412 1.396 . S
C412 H396 0.939 . S
C412 C411 1.396 . S
C412 C413 1.397 . S
C413 C412 1.397 . S
C413 C414 1.385 . S
C414 H397 0.940 . S
C414 C413 1.385 . S
C414 C415 1.388 . S
C415 H394 0.939 . S
C415 C410 1.391 . S
C415 C414 1.388 . S
P416 O427 1.490 . S
P416 C430 1.812 . S
P416 C436 1.803 . S
P416 C442 1.819 . S
H417 C431 0.941 . S
H418 C432 0.939 . S
H419 C434 0.940 . S
H420 C435 0.940 . S
H421 C437 0.939 . S
H422 C438 0.942 . S
H423 C440 0.940 . S
H424 C441 0.939 . S
H425 C443 0.941 . S
H426 C447 0.939 . S
O427 P416 1.490 . S
H428 C444 0.939 . S
H429 C446 0.940 . S
C430 P416 1.812 . S
C430 C431 1.389 . S
C430 C435 1.391 . S
C431 H417 0.941 . S
C431 C430 1.389 . S
C431 C432 1.397 . S
C432 H418 0.939 . S
C432 C431 1.397 . S
C432 C433 1.378 . S
C433 C432 1.378 . S
C433 C434 1.378 . S
C434 H419 0.940 . S
C434 C433 1.378 . S
C434 C435 1.396 . S
C435 H420 0.940 . S
C435 C430 1.391 . S
C435 C434 1.396 . S
C436 P416 1.803 . S
C436 C437 1.378 . S
C436 C441 1.400 . S
C437 H421 0.939 . S
C437 C436 1.378 . S
C437 C438 1.361 . S
C438 H422 0.942 . S
C438 C437 1.361 . S
C438 C439 1.369 1_556 S
C439 C438 1.369 1_554 S
C439 C440 1.404 . S
C440 H423 0.940 . S
C440 C439 1.404 . S
C440 C441 1.389 1_554 S
C441 H424 0.939 . S
C441 C436 1.400 . S
C441 C440 1.389 1_556 S
C442 P416 1.819 . S
C442 C443 1.391 . S
C442 C447 1.391 . S
C443 H425 0.941 . S
C443 C442 1.391 . S
C443 C444 1.396 . S
C444 H428 0.939 . S
C444 C443 1.396 . S
C444 C445 1.397 . S
C445 C444 1.397 . S
C445 C446 1.385 . S
C446 H429 0.940 . S
C446 C445 1.385 . S
C446 C447 1.388 . S
C447 H426 0.939 . S
C447 C442 1.391 . S
C447 C446 1.388 . S
P448 O459 1.490 . S
P448 C462 1.812 . S
P448 C468 1.803 . S
P448 C474 1.819 . S
H449 C463 0.941 . S
H450 C464 0.939 . S
H451 C466 0.940 . S
H452 C467 0.940 . S
H453 C469 0.939 . S
H454 C470 0.942 . S
H455 C472 0.940 . S
H456 C473 0.939 . S
H457 C475 0.941 . S
H458 C479 0.939 . S
O459 P448 1.490 . S
H460 C476 0.939 . S
H461 C478 0.940 . S
C462 P448 1.812 . S
C462 C463 1.389 . S
C462 C467 1.391 . S
C463 H449 0.941 . S
C463 C462 1.389 . S
C463 C464 1.397 . S
C464 H450 0.939 . S
C464 C463 1.397 . S
C464 C465 1.378 . S
C465 C464 1.378 . S
C465 C466 1.378 . S
C466 H451 0.940 . S
C466 C465 1.378 . S
C466 C467 1.396 . S
C467 H452 0.940 . S
C467 C462 1.391 . S
C467 C466 1.396 . S
C468 P448 1.803 . S
C468 C469 1.378 . S
C468 C473 1.400 . S
C469 H453 0.939 . S
C469 C468 1.378 . S
C469 C470 1.361 . S
C470 H454 0.942 . S
C470 C469 1.361 . S
C470 C471 1.369 . S
C471 C470 1.369 . S
C471 C472 1.404 . S
C472 H455 0.940 . S
C472 C471 1.404 . S
C472 C473 1.389 . S
C473 H456 0.939 . S
C473 C468 1.400 . S
C473 C472 1.389 . S
C474 P448 1.819 . S
C474 C475 1.391 . S
C474 C479 1.391 . S
C475 H457 0.941 . S
C475 C474 1.391 . S
C475 C476 1.396 . S
C476 H460 0.939 . S
C476 C475 1.396 . S
C476 C477 1.397 . S
C477 C476 1.397 . S
C477 C478 1.385 . S
C478 H461 0.940 . S
C478 C477 1.385 . S
C478 C479 1.388 . S
C479 H458 0.939 . S
C479 C474 1.391 . S
C479 C478 1.388 . S
P480 O491 1.490 . S
P480 C494 1.812 . S
P480 C500 1.803 . S
P480 C506 1.819 . S
H481 C495 0.941 . S
H482 C496 0.939 . S
H483 C498 0.940 . S
H484 C499 0.940 . S
H485 C501 0.939 . S
H486 C502 0.942 . S
H487 C504 0.940 . S
H488 C505 0.939 . S
H489 C507 0.941 1_565 S
H490 C511 0.939 . S
O491 P480 1.490 . S
H492 C508 0.939 . S
H493 C510 0.940 . S
C494 P480 1.812 . S
C494 C495 1.389 . S
C494 C499 1.391 . S
C495 H481 0.941 . S
C495 C494 1.389 . S
C495 C496 1.397 . S
C496 H482 0.939 . S
C496 C495 1.397 . S
C496 C497 1.378 . S
C497 C496 1.378 . S
C497 C498 1.378 . S
C498 H483 0.940 . S
C498 C497 1.378 . S
C498 C499 1.396 . S
C499 H484 0.940 . S
C499 C494 1.391 . S
C499 C498 1.396 . S
C500 P480 1.803 . S
C500 C501 1.378 1_556 S
C500 C505 1.400 . S
C501 H485 0.939 . S
C501 C500 1.378 1_554 S
C501 C502 1.361 . S
C502 H486 0.942 . S
C502 C501 1.361 . S
C502 C503 1.369 . S
C503 C502 1.369 . S
C503 C504 1.404 1_554 S
C504 H487 0.940 . S
C504 C503 1.404 1_556 S
C504 C505 1.389 . S
C505 H488 0.939 . S
C505 C500 1.400 . S
C505 C504 1.389 . S
C506 P480 1.819 . S
C506 C507 1.391 . S
C506 C511 1.391 . S
C507 H489 0.941 1_545 S
C507 C506 1.391 . S
C507 C508 1.396 1_545 S
C508 H492 0.939 . S
C508 C507 1.396 1_565 S
C508 C509 1.397 1_565 S
C509 C508 1.397 1_545 S
C509 C510 1.385 . S
C510 H493 0.940 . S
C510 C509 1.385 . S
C510 C511 1.388 . S
C511 H490 0.939 . S
C511 C506 1.391 . S
C511 C510 1.388 . S
Li512 N529 1.990 . S
Li512 O572 1.956 . S
Li512 O573 1.970 1_556 S
Li512 O574 1.961 . S
Li513 N537 1.990 . S
Li513 O572 1.970 1_554 S
Li513 O573 1.956 . S
Li513 O575 1.961 . S
Li514 N559 1.990 . S
Li514 O572 1.961 . S
Li514 O574 1.956 . S
Li514 O575 1.970 1_556 S
Li515 N565 1.990 . S
Li515 O573 1.961 . S
Li515 O574 1.970 1_554 S
Li515 O575 1.956 . S
C516 C518 1.348 1_556 S
C516 C519 1.356 . S
C516 O572 1.325 . S
N517 C520 1.314 1_556 S
N517 C521 1.279 . S
C518 C516 1.348 1_554 S
C518 C520 1.353 . S
C518 H576 0.929 . S
C519 C516 1.356 . S
C519 C521 1.358 . S
C519 H577 0.930 . S
C520 N517 1.314 1_554 S
C520 C518 1.353 . S
C520 H578 0.930 . S
C521 N517 1.279 . S
C521 C519 1.358 . S
C521 H579 0.930 . S
C522 C525 1.348 . S
C522 C526 1.356 . S
C522 O573 1.325 . S
C523 N524 1.279 . S
C523 C526 1.358 . S
C523 H580 0.930 . S
N524 C523 1.279 . S
N524 C527 1.314 . S
C525 C522 1.348 . S
C525 C527 1.353 . S
C525 H581 0.929 . S
C526 C522 1.356 . S
C526 C523 1.358 . S
C526 H582 0.930 . S
C527 N524 1.314 . S
C527 C525 1.353 . S
C527 H583 0.930 . S
C528 N529 1.314 . S
C528 C533 1.353 . S
C528 H534 0.930 . S
N529 Li512 1.990 . S
N529 C528 1.314 . S
N529 C531 1.279 . S
C530 C531 1.358 . S
C530 C532 1.356 . S
C530 H584 0.930 . S
C531 N529 1.279 . S
C531 C530 1.358 . S
C531 H535 0.930 . S
C532 C530 1.356 . S
C532 C533 1.348 . S
C533 C528 1.353 . S
C533 C532 1.348 . S
C533 H585 0.929 . S
H534 C528 0.930 . S
H535 C531 0.930 . S
C536 N537 1.314 . S
C536 C538 1.353 . S
C536 H542 0.930 . S
N537 Li513 1.990 . S
N537 C536 1.314 . S
N537 C540 1.279 . S
C538 C536 1.353 . S
C538 C541 1.348 . S
C538 H586 0.929 . S
C539 C540 1.358 . S
C539 C541 1.356 . S
C539 H587 0.930 . S
C540 N537 1.279 . S
C540 C539 1.358 . S
C540 H543 0.930 . S
C541 C538 1.348 . S
C541 C539 1.356 . S
H542 C536 0.930 . S
H543 C540 0.930 . S
C544 C546 1.348 . S
C544 C547 1.356 . S
C544 O574 1.325 . S
N545 C548 1.314 . S
N545 C549 1.279 . S
C546 C544 1.348 . S
C546 C548 1.353 . S
C546 H588 0.929 . S
C547 C544 1.356 . S
C547 C549 1.358 . S
C547 H589 0.930 . S
C548 N545 1.314 . S
C548 C546 1.353 . S
C548 H590 0.930 . S
C549 N545 1.279 . S
C549 C547 1.358 . S
C549 H591 0.930 . S
C550 C551 1.348 1_554 S
C550 C552 1.356 . S
C550 O575 1.325 . S
C551 C550 1.348 1_556 S
C551 C553 1.353 . S
C551 H592 0.929 . S
C552 C550 1.356 . S
C552 C554 1.358 . S
C552 H593 0.930 . S
C553 C551 1.353 . S
C553 N555 1.314 1_556 S
C553 H594 0.930 . S
C554 C552 1.358 . S
C554 N555 1.279 . S
C554 H595 0.930 . S
N555 C553 1.314 1_554 S
N555 C554 1.279 . S
C556 C558 1.353 . S
C556 N559 1.314 . S
C556 H562 0.930 . S
C557 N559 1.279 . S
C557 C560 1.358 . S
C557 H563 0.930 . S
C558 C556 1.353 . S
C558 C561 1.348 . S
C558 H596 0.929 . S
N559 Li514 1.990 . S
N559 C556 1.314 . S
N559 C557 1.279 . S
C560 C557 1.358 . S
C560 C561 1.356 . S
C560 H597 0.930 . S
C561 C558 1.348 . S
C561 C560 1.356 . S
H562 C556 0.930 . S
H563 C557 0.930 . S
C564 N565 1.314 . S
C564 C566 1.353 . S
C564 H570 0.930 . S
N565 Li515 1.990 . S
N565 C564 1.314 . S
N565 C568 1.279 . S
C566 C564 1.353 . S
C566 C569 1.348 . S
C566 H598 0.929 . S
C567 C568 1.358 . S
C567 C569 1.356 . S
C567 H599 0.930 . S
C568 N565 1.279 . S
C568 C567 1.358 . S
C568 H571 0.930 . S
C569 C566 1.348 . S
C569 C567 1.356 . S
H570 C564 0.930 . S
H571 C568 0.930 . S
O572 Li512 1.956 . S
O572 Li513 1.970 1_556 S
O572 Li514 1.961 . S
O572 C516 1.325 . S
O573 Li512 1.970 1_554 S
O573 Li513 1.956 . S
O573 Li515 1.961 . S
O573 C522 1.325 . S
O574 Li512 1.961 . S
O574 Li514 1.956 . S
O574 Li515 1.970 1_556 S
O574 C544 1.325 . S
O575 Li513 1.961 . S
O575 Li514 1.970 1_554 S
O575 Li515 1.956 . S
O575 C550 1.325 . S
H576 C518 0.929 . S
H577 C519 0.930 . S
H578 C520 0.930 . S
H579 C521 0.930 . S
H580 C523 0.930 . S
H581 C525 0.929 . S
H582 C526 0.930 . S
H583 C527 0.930 . S
H584 C530 0.930 . S
H585 C533 0.929 . S
H586 C538 0.929 . S
H587 C539 0.930 . S
H588 C546 0.929 . S
H589 C547 0.930 . S
H590 C548 0.930 . S
H591 C549 0.930 . S
H592 C551 0.929 . S
H593 C552 0.930 . S
H594 C553 0.930 . S
H595 C554 0.930 . S
H596 C558 0.929 . S
H597 C560 0.930 . S
H598 C566 0.929 . S
H599 C567 0.930 . S
Li600 N617 1.990 . S
Li600 O660 1.956 . S
Li600 O661 1.970 . S
Li600 O662 1.961 . S
Li601 N625 1.990 . S
Li601 O660 1.970 . S
Li601 O661 1.956 . S
Li601 O663 1.961 . S
Li602 N647 1.990 . S
Li602 O660 1.961 . S
Li602 O662 1.956 . S
Li602 O663 1.970 . S
Li603 N653 1.990 . S
Li603 O661 1.961 . S
Li603 O662 1.970 . S
Li603 O663 1.956 . S
C604 C606 1.348 . S
C604 C607 1.356 . S
C604 O660 1.325 . S
N605 C608 1.314 . S
N605 C609 1.279 . S
C606 C604 1.348 . S
C606 C608 1.353 . S
C606 H664 0.929 . S
C607 C604 1.356 . S
C607 C609 1.358 . S
C607 H665 0.930 . S
C608 N605 1.314 . S
C608 C606 1.353 . S
C608 H666 0.930 . S
C609 N605 1.279 . S
C609 C607 1.358 . S
C609 H667 0.930 . S
C610 C613 1.348 . S
C610 C614 1.356 . S
C610 O661 1.325 . S
C611 N612 1.279 . S
C611 C614 1.358 . S
C611 H668 0.930 . S
N612 C611 1.279 . S
N612 C615 1.314 . S
C613 C610 1.348 . S
C613 C615 1.353 . S
C613 H669 0.929 . S
C614 C610 1.356 . S
C614 C611 1.358 . S
C614 H670 0.930 . S
C615 N612 1.314 . S
C615 C613 1.353 . S
C615 H671 0.930 . S
C616 N617 1.314 . S
C616 C621 1.353 . S
C616 H622 0.930 . S
N617 Li600 1.990 . S
N617 C616 1.314 . S
N617 C619 1.279 . S
C618 C619 1.358 . S
C618 C620 1.356 . S
C618 H672 0.930 . S
C619 N617 1.279 . S
C619 C618 1.358 . S
C619 H623 0.930 . S
C620 C618 1.356 . S
C620 C621 1.348 . S
C621 C616 1.353 . S
C621 C620 1.348 . S
C621 H673 0.929 . S
H622 C616 0.930 . S
H623 C619 0.930 . S
C624 N625 1.314 . S
C624 C626 1.353 . S
C624 H630 0.930 . S
N625 Li601 1.990 . S
N625 C624 1.314 . S
N625 C628 1.279 . S
C626 C624 1.353 . S
C626 C629 1.348 . S
C626 H674 0.929 . S
C627 C628 1.358 . S
C627 C629 1.356 . S
C627 H675 0.930 . S
C628 N625 1.279 . S
C628 C627 1.358 . S
C628 H631 0.930 . S
C629 C626 1.348 . S
C629 C627 1.356 . S
H630 C624 0.930 . S
H631 C628 0.930 . S
C632 C634 1.348 . S
C632 C635 1.356 . S
C632 O662 1.325 . S
N633 C636 1.314 . S
N633 C637 1.279 . S
C634 C632 1.348 . S
C634 C636 1.353 . S
C634 H676 0.929 . S
C635 C632 1.356 . S
C635 C637 1.358 . S
C635 H677 0.930 . S
C636 N633 1.314 . S
C636 C634 1.353 . S
C636 H678 0.930 . S
C637 N633 1.279 . S
C637 C635 1.358 . S
C637 H679 0.930 . S
C638 C639 1.348 . S
C638 C640 1.356 . S
C638 O663 1.325 . S
C639 C638 1.348 . S
C639 C641 1.353 . S
C639 H680 0.929 . S
C640 C638 1.356 . S
C640 C642 1.358 . S
C640 H681 0.930 . S
C641 C639 1.353 . S
C641 N643 1.314 . S
C641 H682 0.930 . S
C642 C640 1.358 . S
C642 N643 1.279 . S
C642 H683 0.930 . S
N643 C641 1.314 . S
N643 C642 1.279 . S
C644 C646 1.353 . S
C644 N647 1.314 . S
C644 H650 0.930 . S
C645 N647 1.279 . S
C645 C648 1.358 . S
C645 H651 0.930 . S
C646 C644 1.353 . S
C646 C649 1.348 . S
C646 H684 0.929 . S
N647 Li602 1.990 . S
N647 C644 1.314 . S
N647 C645 1.279 . S
C648 C645 1.358 . S
C648 C649 1.356 . S
C648 H685 0.930 . S
C649 C646 1.348 . S
C649 C648 1.356 . S
H650 C644 0.930 . S
H651 C645 0.930 . S
C652 N653 1.314 . S
C652 C654 1.353 . S
C652 H658 0.930 . S
N653 Li603 1.990 . S
N653 C652 1.314 . S
N653 C656 1.279 . S
C654 C652 1.353 . S
C654 C657 1.348 . S
C654 H686 0.929 . S
C655 C656 1.358 . S
C655 C657 1.356 . S
C655 H687 0.930 . S
C656 N653 1.279 . S
C656 C655 1.358 . S
C656 H659 0.930 . S
C657 C654 1.348 . S
C657 C655 1.356 . S
H658 C652 0.930 . S
H659 C656 0.930 . S
O660 Li600 1.956 . S
O660 Li601 1.970 . S
O660 Li602 1.961 . S
O660 C604 1.325 . S
O661 Li600 1.970 . S
O661 Li601 1.956 . S
O661 Li603 1.961 . S
O661 C610 1.325 . S
O662 Li600 1.961 . S
O662 Li602 1.956 . S
O662 Li603 1.970 . S
O662 C632 1.325 . S
O663 Li601 1.961 . S
O663 Li602 1.970 . S
O663 Li603 1.956 . S
O663 C638 1.325 . S
H664 C606 0.929 . S
H665 C607 0.930 . S
H666 C608 0.930 . S
H667 C609 0.930 . S
H668 C611 0.930 . S
H669 C613 0.929 . S
H670 C614 0.930 . S
H671 C615 0.930 . S
H672 C618 0.930 . S
H673 C621 0.929 . S
H674 C626 0.929 . S
H675 C627 0.930 . S
H676 C634 0.929 . S
H677 C635 0.930 . S
H678 C636 0.930 . S
H679 C637 0.930 . S
H680 C639 0.929 . S
H681 C640 0.930 . S
H682 C641 0.930 . S
H683 C642 0.930 . S
H684 C646 0.929 . S
H685 C648 0.930 . S
H686 C654 0.929 . S
H687 C655 0.930 . S
Li688 N705 2.003 . S
Li688 O748 1.956 . S
Li688 O749 1.911 1_556 S
Li688 O750 2.006 . S
Li689 N713 1.990 . S
Li689 O748 1.929 1_554 S
Li689 O749 1.956 . S
Li689 O751 1.961 . S
Li690 N735 1.990 . S
Li690 O748 1.994 . S
Li690 O750 1.956 . S
Li690 O751 1.970 1_556 S
Li691 N741 1.990 . S
Li691 O749 1.961 . S
Li691 O750 1.970 1_554 S
Li691 O751 1.956 . S
C692 C694 1.348 1_556 S
C692 C695 1.356 . S
C692 O748 1.333 . S
N693 C696 1.314 1_556 S
N693 C697 1.279 . S
C694 C692 1.348 1_554 S
C694 C696 1.353 . S
C694 H752 0.929 . S
C695 C692 1.356 . S
C695 C697 1.358 . S
C695 H753 0.930 . S
C696 N693 1.314 1_554 S
C696 C694 1.353 . S
C696 H754 0.930 . S
C697 N693 1.279 . S
C697 C695 1.358 . S
C697 H755 0.930 . S
C698 C701 1.348 . S
C698 C702 1.356 . S
C698 O749 1.325 . S
C699 N700 1.279 . S
C699 C702 1.358 . S
C699 H756 0.930 . S
N700 C699 1.279 . S
N700 C703 1.314 . S
C701 C698 1.348 . S
C701 C703 1.353 . S
C701 H757 0.929 . S
C702 C698 1.356 . S
C702 C699 1.358 . S
C702 H758 0.930 . S
C703 N700 1.314 . S
C703 C701 1.353 . S
C703 H759 0.930 . S
C704 N705 1.314 . S
C704 C709 1.353 . S
C704 H710 0.930 . S
N705 Li688 2.003 . S
N705 C704 1.314 . S
N705 C707 1.279 . S
C706 C707 1.358 . S
C706 C708 1.356 . S
C706 H760 0.930 . S
C707 N705 1.279 . S
C707 C706 1.358 . S
C707 H711 0.938 . S
C708 C706 1.356 . S
C708 C709 1.348 . S
C709 C704 1.353 . S
C709 C708 1.348 . S
C709 H761 0.929 . S
H710 C704 0.930 . S
H711 C707 0.938 . S
C712 N713 1.314 . S
C712 C714 1.353 . S
C712 H718 0.930 . S
N713 Li689 1.990 . S
N713 C712 1.314 . S
N713 C716 1.279 . S
C714 C712 1.353 . S
C714 C717 1.348 . S
C714 H762 0.929 . S
C715 C716 1.358 . S
C715 C717 1.356 . S
C715 H763 0.930 . S
C716 N713 1.279 . S
C716 C715 1.358 . S
C716 H719 0.930 . S
C717 C714 1.348 . S
C717 C715 1.356 . S
H718 C712 0.930 . S
H719 C716 0.930 . S
C720 C722 1.348 . S
C720 C723 1.356 . S
C720 O750 1.325 . S
N721 C724 1.314 . S
N721 C725 1.279 . S
C722 C720 1.348 . S
C722 C724 1.353 . S
C722 H764 0.929 . S
C723 C720 1.356 . S
C723 C725 1.358 . S
C723 H765 0.930 . S
C724 N721 1.314 . S
C724 C722 1.353 . S
C724 H766 0.930 . S
C725 N721 1.279 . S
C725 C723 1.358 . S
C725 H767 0.930 . S
C726 C727 1.348 1_554 S
C726 C728 1.356 . S
C726 O751 1.325 . S
C727 C726 1.348 1_556 S
C727 C729 1.353 . S
C727 H768 0.929 . S
C728 C726 1.356 . S
C728 C730 1.358 . S
C728 H769 0.930 . S
C729 C727 1.353 . S
C729 N731 1.314 1_556 S
C729 H770 0.930 . S
C730 C728 1.358 . S
C730 N731 1.279 . S
C730 H771 0.930 . S
N731 C729 1.314 1_554 S
N731 C730 1.279 . S
C732 C734 1.353 . S
C732 N735 1.314 . S
C732 H738 0.930 . S
C733 N735 1.279 . S
C733 C736 1.358 . S
C733 H739 0.930 . S
C734 C732 1.353 . S
C734 C737 1.348 . S
C734 H772 0.929 . S
N735 Li690 1.990 . S
N735 C732 1.314 . S
N735 C733 1.279 . S
C736 C733 1.358 . S
C736 C737 1.356 . S
C736 H773 0.930 . S
C737 C734 1.348 . S
C737 C736 1.356 . S
H738 C732 0.930 . S
H739 C733 0.930 . S
C740 N741 1.314 . S
C740 C742 1.353 . S
C740 H746 0.930 . S
N741 Li691 1.990 . S
N741 C740 1.314 . S
N741 C744 1.279 . S
C742 C740 1.353 . S
C742 C745 1.348 . S
C742 H774 0.929 . S
C743 C744 1.358 . S
C743 C745 1.356 . S
C743 H775 0.930 . S
C744 N741 1.279 . S
C744 C743 1.358 . S
C744 H747 0.930 . S
C745 C742 1.348 . S
C745 C743 1.356 . S
H746 C740 0.930 . S
H747 C744 0.930 . S
O748 Li688 1.956 . S
O748 Li689 1.929 1_556 S
O748 Li690 1.994 . S
O748 C692 1.333 . S
O749 Li688 1.911 1_554 S
O749 Li689 1.956 . S
O749 Li691 1.961 . S
O749 C698 1.325 . S
O750 Li688 2.006 . S
O750 Li690 1.956 . S
O750 Li691 1.970 1_556 S
O750 C720 1.325 . S
O751 Li689 1.961 . S
O751 Li690 1.970 1_554 S
O751 Li691 1.956 . S
O751 C726 1.325 . S
H752 C694 0.929 . S
H753 C695 0.930 . S
H754 C696 0.930 . S
H755 C697 0.930 . S
H756 C699 0.930 . S
H757 C701 0.929 . S
H758 C702 0.930 . S
H759 C703 0.930 . S
H760 C706 0.930 . S
H761 C709 0.929 . S
H762 C714 0.929 . S
H763 C715 0.930 . S
H764 C722 0.929 . S
H765 C723 0.930 . S
H766 C724 0.930 . S
H767 C725 0.930 . S
H768 C727 0.929 . S
H769 C728 0.930 . S
H770 C729 0.930 . S
H771 C730 0.930 . S
H772 C734 0.929 . S
H773 C736 0.930 . S
H774 C742 0.929 . S
H775 C743 0.930 . S
Li776 N793 1.990 . S
Li776 O836 1.956 . S
Li776 O837 1.988 . S
Li776 O838 1.961 . S
Li777 N801 1.989 1_545 S
Li777 O836 1.979 . S
Li777 O837 1.956 . S
Li777 O839 1.955 1_545 S
Li778 N823 1.990 . S
Li778 O836 1.961 . S
Li778 O838 1.956 . S
Li778 O839 1.970 1_545 S
Li779 N829 1.990 . S
Li779 O837 1.947 1_565 S
Li779 O838 1.970 1_565 S
Li779 O839 1.956 . S
C780 C782 1.348 . S
C780 C783 1.356 . S
C780 O836 1.325 . S
N781 C784 1.314 . S
N781 C785 1.279 . S
C782 C780 1.348 . S
C782 C784 1.353 . S
C782 H840 0.929 . S
C783 C780 1.356 . S
C783 C785 1.358 . S
C783 H841 0.930 . S
C784 N781 1.314 . S
C784 C782 1.353 . S
C784 H842 0.930 . S
C785 N781 1.279 . S
C785 C783 1.358 . S
C785 H843 0.930 . S
C786 C789 1.348 1_565 S
C786 C790 1.356 . S
C786 O837 1.322 1_565 S
C787 N788 1.279 . S
C787 C790 1.358 . S
C787 H844 0.930 . S
N788 C787 1.279 . S
N788 C791 1.314 1_565 S
C789 C786 1.348 1_545 S
C789 C791 1.353 . S
C789 H845 0.929 . S
C790 C786 1.356 . S
C790 C787 1.358 . S
C790 H846 0.930 . S
C791 N788 1.314 1_545 S
C791 C789 1.353 . S
C791 H847 0.930 . S
C792 N793 1.314 . S
C792 C797 1.353 . S
C792 H798 0.930 . S
N793 Li776 1.990 . S
N793 C792 1.314 . S
N793 C795 1.279 . S
C794 C795 1.358 . S
C794 C796 1.356 . S
C794 H848 0.930 . S
C795 N793 1.279 . S
C795 C794 1.358 . S
C795 H799 0.930 . S
C796 C794 1.356 . S
C796 C797 1.348 . S
C797 C792 1.353 . S
C797 C796 1.348 . S
C797 H849 0.929 . S
H798 C792 0.930 . S
H799 C795 0.930 . S
C800 N801 1.314 . S
C800 C802 1.353 . S
C800 H806 0.930 . S
N801 Li777 1.989 1_565 S
N801 C800 1.314 . S
N801 C804 1.279 . S
C802 C800 1.353 . S
C802 C805 1.348 . S
C802 H850 0.929 . S
C803 C804 1.358 . S
C803 C805 1.356 . S
C803 H851 0.930 . S
C804 N801 1.279 . S
C804 C803 1.358 . S
C804 H807 0.931 1_565 S
C805 C802 1.348 . S
C805 C803 1.356 . S
H806 C800 0.930 . S
H807 C804 0.931 1_545 S
C808 C810 1.348 1_545 S
C808 C811 1.356 . S
C808 O838 1.325 . S
N809 C812 1.314 1_545 S
N809 C813 1.279 . S
C810 C808 1.348 1_565 S
C810 C812 1.353 . S
C810 H852 0.929 . S
C811 C808 1.356 . S
C811 C813 1.358 . S
C811 H853 0.930 . S
C812 N809 1.314 1_565 S
C812 C810 1.353 . S
C812 H854 0.930 . S
C813 N809 1.279 . S
C813 C811 1.358 . S
C813 H855 0.930 . S
C814 C815 1.348 . S
C814 C816 1.356 . S
C814 O839 1.325 . S
C815 C814 1.348 . S
C815 C817 1.353 . S
C815 H856 0.929 . S
C816 C814 1.356 . S
C816 C818 1.358 . S
C816 H857 0.930 . S
C817 C815 1.353 . S
C817 N819 1.314 . S
C817 H858 0.930 . S
C818 C816 1.358 . S
C818 N819 1.279 . S
C818 H859 0.930 . S
N819 C817 1.314 . S
N819 C818 1.279 . S
C820 C822 1.353 . S
C820 N823 1.314 . S
C820 H826 0.930 . S
C821 N823 1.279 . S
C821 C824 1.358 . S
C821 H827 0.930 . S
C822 C820 1.353 . S
C822 C825 1.348 . S
C822 H860 0.929 . S
N823 Li778 1.990 . S
N823 C820 1.314 . S
N823 C821 1.279 . S
C824 C821 1.358 . S
C824 C825 1.356 . S
C824 H861 0.930 . S
C825 C822 1.348 . S
C825 C824 1.356 . S
H826 C820 0.930 . S
H827 C821 0.930 . S
C828 N829 1.314 . S
C828 C830 1.353 . S
C828 H834 0.930 . S
N829 Li779 1.990 . S
N829 C828 1.314 . S
N829 C832 1.279 . S
C830 C828 1.353 . S
C830 C833 1.348 . S
C830 H862 0.929 . S
C831 C832 1.358 . S
C831 C833 1.356 . S
C831 H863 0.930 . S
C832 N829 1.279 . S
C832 C831 1.358 . S
C832 H835 0.930 . S
C833 C830 1.348 . S
C833 C831 1.356 . S
H834 C828 0.930 . S
H835 C832 0.930 . S
O836 Li776 1.956 . S
O836 Li777 1.979 . S
O836 Li778 1.961 . S
O836 C780 1.325 . S
O837 Li776 1.988 . S
O837 Li777 1.956 . S
O837 Li779 1.947 1_545 S
O837 C786 1.322 1_545 S
O838 Li776 1.961 . S
O838 Li778 1.956 . S
O838 Li779 1.970 1_545 S
O838 C808 1.325 . S
O839 Li777 1.955 1_565 S
O839 Li778 1.970 1_565 S
O839 Li779 1.956 . S
O839 C814 1.325 . S
H840 C782 0.929 . S
H841 C783 0.930 . S
H842 C784 0.930 . S
H843 C785 0.930 . S
H844 C787 0.930 . S
H845 C789 0.929 . S
H846 C790 0.930 . S
H847 C791 0.930 . S
H848 C794 0.930 . S
H849 C797 0.929 . S
H850 C802 0.929 . S
H851 C803 0.930 . S
H852 C810 0.929 . S
H853 C811 0.930 . S
H854 C812 0.930 . S
H855 C813 0.930 . S
H856 C815 0.929 . S
H857 C816 0.930 . S
H858 C817 0.930 . S
H859 C818 0.930 . S
H860 C822 0.929 . S
H861 C824 0.930 . S
H862 C830 0.929 . S
H863 C831 0.930 . S
Li864 N881 1.990 . S
Li864 O924 1.956 . S
Li864 O925 1.970 . S
Li864 O926 1.961 . S
Li865 N889 1.990 . S
Li865 O924 1.970 . S
Li865 O925 1.956 . S
Li865 O927 1.961 . S
Li866 N911 1.990 . S
Li866 O924 1.961 . S
Li866 O926 1.956 . S
Li866 O927 1.970 . S
Li867 N917 1.990 . S
Li867 O925 1.961 . S
Li867 O926 1.970 . S
Li867 O927 1.956 . S
C868 C870 1.348 . S
C868 C871 1.356 . S
C868 O924 1.325 . S
N869 C872 1.314 . S
N869 C873 1.279 . S
C870 C868 1.348 . S
C870 C872 1.353 . S
C870 H928 0.929 . S
C871 C868 1.356 . S
C871 C873 1.358 . S
C871 H929 0.930 . S
C872 N869 1.314 . S
C872 C870 1.353 . S
C872 H930 0.930 . S
C873 N869 1.279 . S
C873 C871 1.358 . S
C873 H931 0.930 . S
C874 C877 1.348 . S
C874 C878 1.356 . S
C874 O925 1.325 . S
C875 N876 1.279 . S
C875 C878 1.358 . S
C875 H932 0.930 . S
N876 C875 1.279 . S
N876 C879 1.314 . S
C877 C874 1.348 . S
C877 C879 1.353 . S
C877 H933 0.929 . S
C878 C874 1.356 . S
C878 C875 1.358 . S
C878 H934 0.930 . S
C879 N876 1.314 . S
C879 C877 1.353 . S
C879 H935 0.930 . S
C880 N881 1.314 . S
C880 C885 1.353 . S
C880 H886 0.930 . S
N881 Li864 1.990 . S
N881 C880 1.314 . S
N881 C883 1.279 . S
C882 C883 1.358 . S
C882 C884 1.356 . S
C882 H936 0.930 . S
C883 N881 1.279 . S
C883 C882 1.358 . S
C883 H887 0.930 . S
C884 C882 1.356 . S
C884 C885 1.348 . S
C885 C880 1.353 . S
C885 C884 1.348 . S
C885 H937 0.929 . S
H886 C880 0.930 . S
H887 C883 0.930 . S
C888 N889 1.314 . S
C888 C890 1.353 . S
C888 H894 0.930 . S
N889 Li865 1.990 . S
N889 C888 1.314 . S
N889 C892 1.279 . S
C890 C888 1.353 . S
C890 C893 1.348 . S
C890 H938 0.929 . S
C891 C892 1.358 . S
C891 C893 1.356 . S
C891 H939 0.930 . S
C892 N889 1.279 . S
C892 C891 1.358 . S
C892 H895 0.930 . S
C893 C890 1.348 . S
C893 C891 1.356 . S
H894 C888 0.930 . S
H895 C892 0.930 . S
C896 C898 1.348 . S
C896 C899 1.356 . S
C896 O926 1.325 . S
N897 C900 1.314 . S
N897 C901 1.279 . S
C898 C896 1.348 . S
C898 C900 1.353 . S
C898 H940 0.929 . S
C899 C896 1.356 . S
C899 C901 1.358 . S
C899 H941 0.930 . S
C900 N897 1.314 . S
C900 C898 1.353 . S
C900 H942 0.930 . S
C901 N897 1.279 . S
C901 C899 1.358 . S
C901 H943 0.930 . S
C902 C903 1.348 . S
C902 C904 1.356 . S
C902 O927 1.325 . S
C903 C902 1.348 . S
C903 C905 1.353 . S
C903 H944 0.929 . S
C904 C902 1.356 . S
C904 C906 1.358 . S
C904 H945 0.930 . S
C905 C903 1.353 . S
C905 N907 1.314 . S
C905 H946 0.930 . S
C906 C904 1.358 . S
C906 N907 1.279 . S
C906 H947 0.930 . S
N907 C905 1.314 . S
N907 C906 1.279 . S
C908 C910 1.353 . S
C908 N911 1.314 . S
C908 H914 0.930 . S
C909 N911 1.279 . S
C909 C912 1.358 . S
C909 H915 0.930 . S
C910 C908 1.353 . S
C910 C913 1.348 . S
C910 H948 0.929 . S
N911 Li866 1.990 . S
N911 C908 1.314 . S
N911 C909 1.279 . S
C912 C909 1.358 . S
C912 C913 1.356 . S
C912 H949 0.930 . S
C913 C910 1.348 . S
C913 C912 1.356 . S
H914 C908 0.930 . S
H915 C909 0.930 . S
C916 N917 1.314 . S
C916 C918 1.353 . S
C916 H922 0.930 . S
N917 Li867 1.990 . S
N917 C916 1.314 . S
N917 C920 1.279 . S
C918 C916 1.353 . S
C918 C921 1.348 . S
C918 H950 0.929 . S
C919 C920 1.358 . S
C919 C921 1.356 . S
C919 H951 0.930 . S
C920 N917 1.279 . S
C920 C919 1.358 . S
C920 H923 0.930 . S
C921 C918 1.348 . S
C921 C919 1.356 . S
H922 C916 0.930 . S
H923 C920 0.930 . S
O924 Li864 1.956 . S
O924 Li865 1.970 . S
O924 Li866 1.961 . S
O924 C868 1.325 . S
O925 Li864 1.970 . S
O925 Li865 1.956 . S
O925 Li867 1.961 . S
O925 C874 1.325 . S
O926 Li864 1.961 . S
O926 Li866 1.956 . S
O926 Li867 1.970 . S
O926 C896 1.325 . S
O927 Li865 1.961 . S
O927 Li866 1.970 . S
O927 Li867 1.956 . S
O927 C902 1.325 . S
H928 C870 0.929 . S
H929 C871 0.930 . S
H930 C872 0.930 . S
H931 C873 0.930 . S
H932 C875 0.930 . S
H933 C877 0.929 . S
H934 C878 0.930 . S
H935 C879 0.930 . S
H936 C882 0.930 . S
H937 C885 0.929 . S
H938 C890 0.929 . S
H939 C891 0.930 . S
H940 C898 0.929 . S
H941 C899 0.930 . S
H942 C900 0.930 . S
H943 C901 0.930 . S
H944 C903 0.929 . S
H945 C904 0.930 . S
H946 C905 0.930 . S
H947 C906 0.930 . S
H948 C910 0.929 . S
H949 C912 0.930 . S
H950 C918 0.929 . S
H951 C919 0.930 . S
Li952 N969 1.990 . S
Li952 O1012 1.956 . S
Li952 O1013 1.970 . S
Li952 O1014 1.961 . S
Li953 N977 1.990 . S
Li953 O1012 1.970 . S
Li953 O1013 1.956 . S
Li953 O1015 1.961 . S
Li954 N999 1.990 . S
Li954 O1012 1.961 . S
Li954 O1014 1.956 . S
Li954 O1015 1.970 . S
Li955 N1005 1.990 . S
Li955 O1013 1.961 . S
Li955 O1014 1.970 . S
Li955 O1015 1.956 . S
C956 C958 1.348 . S
C956 C959 1.356 . S
C956 O1012 1.325 . S
N957 C960 1.314 . S
N957 C961 1.279 . S
C958 C956 1.348 . S
C958 C960 1.353 . S
C958 H1016 0.929 . S
C959 C956 1.356 . S
C959 C961 1.358 . S
C959 H1017 0.930 . S
C960 N957 1.314 . S
C960 C958 1.353 . S
C960 H1018 0.930 . S
C961 N957 1.279 . S
C961 C959 1.358 . S
C961 H1019 0.930 . S
C962 C965 1.348 . S
C962 C966 1.356 . S
C962 O1013 1.325 . S
C963 N964 1.279 . S
C963 C966 1.358 . S
C963 H1020 0.930 . S
N964 C963 1.279 . S
N964 C967 1.314 . S
C965 C962 1.348 . S
C965 C967 1.353 . S
C965 H1021 0.929 . S
C966 C962 1.356 . S
C966 C963 1.358 . S
C966 H1022 0.930 . S
C967 N964 1.314 . S
C967 C965 1.353 . S
C967 H1023 0.930 . S
C968 N969 1.314 . S
C968 C973 1.353 . S
C968 H974 0.930 . S
N969 Li952 1.990 . S
N969 C968 1.314 . S
N969 C971 1.279 . S
C970 C971 1.358 . S
C970 C972 1.356 . S
C970 H1024 0.930 . S
C971 N969 1.279 . S
C971 C970 1.358 . S
C971 H975 0.930 . S
C972 C970 1.356 . S
C972 C973 1.348 . S
C973 C968 1.353 . S
C973 C972 1.348 . S
C973 H1025 0.929 . S
H974 C968 0.930 . S
H975 C971 0.930 . S
C976 N977 1.314 . S
C976 C978 1.353 . S
C976 H982 0.930 . S
N977 Li953 1.990 . S
N977 C976 1.314 . S
N977 C980 1.279 . S
C978 C976 1.353 . S
C978 C981 1.348 . S
C978 H1026 0.929 . S
C979 C980 1.358 . S
C979 C981 1.356 . S
C979 H1027 0.930 . S
C980 N977 1.279 . S
C980 C979 1.358 . S
C980 H983 0.930 . S
C981 C978 1.348 . S
C981 C979 1.356 . S
H982 C976 0.930 . S
H983 C980 0.930 . S
C984 C986 1.348 . S
C984 C987 1.356 . S
C984 O1014 1.325 . S
N985 C988 1.314 . S
N985 C989 1.279 . S
C986 C984 1.348 . S
C986 C988 1.353 . S
C986 H1028 0.929 . S
C987 C984 1.356 . S
C987 C989 1.358 . S
C987 H1029 0.930 . S
C988 N985 1.314 . S
C988 C986 1.353 . S
C988 H1030 0.930 . S
C989 N985 1.279 . S
C989 C987 1.358 . S
C989 H1031 0.930 . S
C990 C991 1.348 . S
C990 C992 1.356 . S
C990 O1015 1.325 . S
C991 C990 1.348 . S
C991 C993 1.353 . S
C991 H1032 0.929 . S
C992 C990 1.356 . S
C992 C994 1.358 . S
C992 H1033 0.930 . S
C993 C991 1.353 . S
C993 N995 1.314 . S
C993 H1034 0.930 . S
C994 C992 1.358 . S
C994 N995 1.279 . S
C994 H1035 0.930 . S
N995 C993 1.314 . S
N995 C994 1.279 . S
C996 C998 1.353 . S
C996 N999 1.314 . S
C996 H1002 0.930 . S
C997 N999 1.279 . S
C997 C1000 1.358 . S
C997 H1003 0.930 . S
C998 C996 1.353 . S
C998 C1001 1.348 . S
C998 H1036 0.929 . S
N999 Li954 1.990 . S
N999 C996 1.314 . S
N999 C997 1.279 . S
C1000 C997 1.358 . S
C1000 C1001 1.356 . S
C1000 H1037 0.930 . S
C1001 C998 1.348 . S
C1001 C1000 1.356 . S
H1002 C996 0.930 . S
H1003 C997 0.930 . S
C1004 N1005 1.314 . S
C1004 C1006 1.353 . S
C1004 H1010 0.930 . S
N1005 Li955 1.990 . S
N1005 C1004 1.314 . S
N1005 C1008 1.279 . S
C1006 C1004 1.353 . S
C1006 C1009 1.348 . S
C1006 H1038 0.929 . S
C1007 C1008 1.358 . S
C1007 C1009 1.356 . S
C1007 H1039 0.930 . S
C1008 N1005 1.279 . S
C1008 C1007 1.358 . S
C1008 H1011 0.930 . S
C1009 C1006 1.348 . S
C1009 C1007 1.356 . S
H1010 C1004 0.930 . S
H1011 C1008 0.930 . S
O1012 Li952 1.956 . S
O1012 Li953 1.970 . S
O1012 Li954 1.961 . S
O1012 C956 1.325 . S
O1013 Li952 1.970 . S
O1013 Li953 1.956 . S
O1013 Li955 1.961 . S
O1013 C962 1.325 . S
O1014 Li952 1.961 . S
O1014 Li954 1.956 . S
O1014 Li955 1.970 . S
O1014 C984 1.325 . S
O1015 Li953 1.961 . S
O1015 Li954 1.970 . S
O1015 Li955 1.956 . S
O1015 C990 1.325 . S
H1016 C958 0.929 . S
H1017 C959 0.930 . S
H1018 C960 0.930 . S
H1019 C961 0.930 . S
H1020 C963 0.930 . S
H1021 C965 0.929 . S
H1022 C966 0.930 . S
H1023 C967 0.930 . S
H1024 C970 0.930 . S
H1025 C973 0.929 . S
H1026 C978 0.929 . S
H1027 C979 0.930 . S
H1028 C986 0.929 . S
H1029 C987 0.930 . S
H1030 C988 0.930 . S
H1031 C989 0.930 . S
H1032 C991 0.929 . S
H1033 C992 0.930 . S
H1034 C993 0.930 . S
H1035 C994 0.930 . S
H1036 C998 0.929 . S
H1037 C1000 0.930 . S
H1038 C1006 0.929 . S
H1039 C1007 0.930 . S
Li1040 N1057 1.990 . S
Li1040 O1100 1.956 . S
Li1040 O1101 1.970 . S
Li1040 O1102 1.961 . S
Li1041 N1065 1.990 . S
Li1041 O1100 1.970 . S
Li1041 O1101 1.956 . S
Li1041 O1103 1.961 . S
Li1042 N1087 1.990 . S
Li1042 O1100 1.961 . S
Li1042 O1102 1.956 . S
Li1042 O1103 1.970 . S
Li1043 N1093 1.990 . S
Li1043 O1101 1.961 . S
Li1043 O1102 1.970 . S
Li1043 O1103 1.956 . S
C1044 C1046 1.348 . S
C1044 C1047 1.356 . S
C1044 O1100 1.325 . S
N1045 C1048 1.314 . S
N1045 C1049 1.279 . S
C1046 C1044 1.348 . S
C1046 C1048 1.353 . S
C1046 H1104 0.929 . S
C1047 C1044 1.356 . S
C1047 C1049 1.358 . S
C1047 H1105 0.930 . S
C1048 N1045 1.314 . S
C1048 C1046 1.353 . S
C1048 H1106 0.930 . S
C1049 N1045 1.279 . S
C1049 C1047 1.358 . S
C1049 H1107 0.930 . S
C1050 C1053 1.348 . S
C1050 C1054 1.356 . S
C1050 O1101 1.325 . S
C1051 N1052 1.279 . S
C1051 C1054 1.358 . S
C1051 H1108 0.930 . S
N1052 C1051 1.279 . S
N1052 C1055 1.314 . S
C1053 C1050 1.348 . S
C1053 C1055 1.353 . S
C1053 H1109 0.929 . S
C1054 C1050 1.356 . S
C1054 C1051 1.358 . S
C1054 H1110 0.930 . S
C1055 N1052 1.314 . S
C1055 C1053 1.353 . S
C1055 H1111 0.930 . S
C1056 N1057 1.314 . S
C1056 C1061 1.353 . S
C1056 H1062 0.930 . S
N1057 Li1040 1.990 . S
N1057 C1056 1.314 . S
N1057 C1059 1.279 . S
C1058 C1059 1.358 . S
C1058 C1060 1.356 . S
C1058 H1112 0.930 . S
C1059 N1057 1.279 . S
C1059 C1058 1.358 . S
C1059 H1063 0.930 . S
C1060 C1058 1.356 . S
C1060 C1061 1.348 . S
C1061 C1056 1.353 . S
C1061 C1060 1.348 . S
C1061 H1113 0.929 . S
H1062 C1056 0.930 . S
H1063 C1059 0.930 . S
C1064 N1065 1.314 . S
C1064 C1066 1.353 . S
C1064 H1070 0.930 . S
N1065 Li1041 1.990 . S
N1065 C1064 1.314 . S
N1065 C1068 1.279 . S
C1066 C1064 1.353 . S
C1066 C1069 1.348 . S
C1066 H1114 0.929 . S
C1067 C1068 1.358 . S
C1067 C1069 1.356 . S
C1067 H1115 0.930 . S
C1068 N1065 1.279 . S
C1068 C1067 1.358 . S
C1068 H1071 0.930 . S
C1069 C1066 1.348 . S
C1069 C1067 1.356 . S
H1070 C1064 0.930 . S
H1071 C1068 0.930 . S
C1072 C1074 1.348 . S
C1072 C1075 1.356 . S
C1072 O1102 1.325 . S
N1073 C1076 1.314 . S
N1073 C1077 1.279 . S
C1074 C1072 1.348 . S
C1074 C1076 1.353 . S
C1074 H1116 0.929 . S
C1075 C1072 1.356 . S
C1075 C1077 1.358 . S
C1075 H1117 0.930 . S
C1076 N1073 1.314 . S
C1076 C1074 1.353 . S
C1076 H1118 0.930 . S
C1077 N1073 1.279 . S
C1077 C1075 1.358 . S
C1077 H1119 0.930 . S
C1078 C1079 1.348 . S
C1078 C1080 1.356 . S
C1078 O1103 1.325 . S
C1079 C1078 1.348 . S
C1079 C1081 1.353 . S
C1079 H1120 0.929 . S
C1080 C1078 1.356 . S
C1080 C1082 1.358 . S
C1080 H1121 0.930 . S
C1081 C1079 1.353 . S
C1081 N1083 1.314 . S
C1081 H1122 0.930 . S
C1082 C1080 1.358 . S
C1082 N1083 1.279 . S
C1082 H1123 0.930 . S
N1083 C1081 1.314 . S
N1083 C1082 1.279 . S
C1084 C1086 1.353 . S
C1084 N1087 1.314 . S
C1084 H1090 0.930 . S
C1085 N1087 1.279 . S
C1085 C1088 1.358 . S
C1085 H1091 0.930 . S
C1086 C1084 1.353 . S
C1086 C1089 1.348 . S
C1086 H1124 0.929 . S
N1087 Li1042 1.990 . S
N1087 C1084 1.314 . S
N1087 C1085 1.279 . S
C1088 C1085 1.358 . S
C1088 C1089 1.356 . S
C1088 H1125 0.930 . S
C1089 C1086 1.348 . S
C1089 C1088 1.356 . S
H1090 C1084 0.930 . S
H1091 C1085 0.930 . S
C1092 N1093 1.314 . S
C1092 C1094 1.353 . S
C1092 H1098 0.930 . S
N1093 Li1043 1.990 . S
N1093 C1092 1.314 . S
N1093 C1096 1.279 . S
C1094 C1092 1.353 . S
C1094 C1097 1.348 . S
C1094 H1126 0.929 . S
C1095 C1096 1.358 . S
C1095 C1097 1.356 . S
C1095 H1127 0.930 . S
C1096 N1093 1.279 . S
C1096 C1095 1.358 . S
C1096 H1099 0.930 . S
C1097 C1094 1.348 . S
C1097 C1095 1.356 . S
H1098 C1092 0.930 . S
H1099 C1096 0.930 . S
O1100 Li1040 1.956 . S
O1100 Li1041 1.970 . S
O1100 Li1042 1.961 . S
O1100 C1044 1.325 . S
O1101 Li1040 1.970 . S
O1101 Li1041 1.956 . S
O1101 Li1043 1.961 . S
O1101 C1050 1.325 . S
O1102 Li1040 1.961 . S
O1102 Li1042 1.956 . S
O1102 Li1043 1.970 . S
O1102 C1072 1.325 . S
O1103 Li1041 1.961 . S
O1103 Li1042 1.970 . S
O1103 Li1043 1.956 . S
O1103 C1078 1.325 . S
H1104 C1046 0.929 . S
H1105 C1047 0.930 . S
H1106 C1048 0.930 . S
H1107 C1049 0.930 . S
H1108 C1051 0.930 . S
H1109 C1053 0.929 . S
H1110 C1054 0.930 . S
H1111 C1055 0.930 . S
H1112 C1058 0.930 . S
H1113 C1061 0.929 . S
H1114 C1066 0.929 . S
H1115 C1067 0.930 . S
H1116 C1074 0.929 . S
H1117 C1075 0.930 . S
H1118 C1076 0.930 . S
H1119 C1077 0.930 . S
H1120 C1079 0.929 . S
H1121 C1080 0.930 . S
H1122 C1081 0.930 . S
H1123 C1082 0.930 . S
H1124 C1086 0.929 . S
H1125 C1088 0.930 . S
H1126 C1094 0.929 . S
H1127 C1095 0.930 . S
Li1128 N1145 1.990 . S
Li1128 O1188 1.956 . S
Li1128 O1189 1.970 1_565 S
Li1128 O1190 1.960 1_565 S
Li1129 N1153 1.990 . S
Li1129 O1188 1.970 1_545 S
Li1129 O1189 1.956 . S
Li1129 O1191 1.961 . S
Li1130 N1175 1.991 . S
Li1130 O1188 1.965 . S
Li1130 O1190 1.956 1_565 S
Li1130 O1191 1.965 1_565 S
Li1131 N1181 1.990 . S
Li1131 O1189 1.961 . S
Li1131 O1190 1.972 . S
Li1131 O1191 1.956 . S
C1132 C1134 1.348 . S
C1132 C1135 1.356 . S
C1132 O1188 1.325 . S
N1133 C1136 1.314 . S
N1133 C1137 1.279 . S
C1134 C1132 1.348 . S
C1134 C1136 1.353 . S
C1134 H1192 0.929 . S
C1135 C1132 1.356 . S
C1135 C1137 1.358 . S
C1135 H1193 0.930 . S
C1136 N1133 1.314 . S
C1136 C1134 1.353 . S
C1136 H1194 0.930 . S
C1137 N1133 1.279 . S
C1137 C1135 1.358 . S
C1137 H1195 0.930 . S
C1138 C1141 1.348 1_545 S
C1138 C1142 1.356 . S
C1138 O1189 1.325 . S
C1139 N1140 1.279 . S
C1139 C1142 1.358 . S
C1139 H1196 0.930 . S
N1140 C1139 1.279 . S
N1140 C1143 1.314 1_545 S
C1141 C1138 1.348 1_565 S
C1141 C1143 1.353 . S
C1141 H1197 0.929 . S
C1142 C1138 1.356 . S
C1142 C1139 1.358 . S
C1142 H1198 0.930 . S
C1143 N1140 1.314 1_565 S
C1143 C1141 1.353 . S
C1143 H1199 0.930 . S
C1144 N1145 1.314 . S
C1144 C1149 1.353 . S
C1144 H1150 0.930 . S
N1145 Li1128 1.990 . S
N1145 C1144 1.314 . S
N1145 C1147 1.279 . S
C1146 C1147 1.358 . S
C1146 C1148 1.356 . S
C1146 H1200 0.930 . S
C1147 N1145 1.279 . S
C1147 C1146 1.358 . S
C1147 H1151 0.930 . S
C1148 C1146 1.356 . S
C1148 C1149 1.348 . S
C1149 C1144 1.353 . S
C1149 C1148 1.348 . S
C1149 H1201 0.929 . S
H1150 C1144 0.930 . S
H1151 C1147 0.930 . S
C1152 N1153 1.314 . S
C1152 C1154 1.353 . S
C1152 H1158 0.930 . S
N1153 Li1129 1.990 . S
N1153 C1152 1.314 . S
N1153 C1156 1.279 . S
C1154 C1152 1.353 . S
C1154 C1157 1.348 . S
C1154 H1202 0.929 . S
C1155 C1156 1.358 . S
C1155 C1157 1.356 . S
C1155 H1203 0.930 . S
C1156 N1153 1.279 . S
C1156 C1155 1.358 . S
C1156 H1159 0.930 . S
C1157 C1154 1.348 . S
C1157 C1155 1.356 . S
H1158 C1152 0.930 . S
H1159 C1156 0.930 . S
C1160 C1162 1.348 1_565 S
C1160 C1163 1.356 . S
C1160 O1190 1.324 1_565 S
N1161 C1164 1.314 1_565 S
N1161 C1165 1.279 . S
C1162 C1160 1.348 1_545 S
C1162 C1164 1.353 . S
C1162 H1204 0.929 . S
C1163 C1160 1.356 . S
C1163 C1165 1.358 . S
C1163 H1205 0.930 . S
C1164 N1161 1.314 1_545 S
C1164 C1162 1.353 . S
C1164 H1206 0.930 . S
C1165 N1161 1.279 . S
C1165 C1163 1.358 . S
C1165 H1207 0.930 . S
C1166 C1167 1.348 . S
C1166 C1168 1.356 . S
C1166 O1191 1.325 . S
C1167 C1166 1.348 . S
C1167 C1169 1.353 . S
C1167 H1208 0.929 . S
C1168 C1166 1.356 . S
C1168 C1170 1.358 . S
C1168 H1209 0.930 . S
C1169 C1167 1.353 . S
C1169 N1171 1.314 . S
C1169 H1210 0.930 . S
C1170 C1168 1.358 . S
C1170 N1171 1.279 . S
C1170 H1211 0.930 . S
N1171 C1169 1.314 . S
N1171 C1170 1.279 . S
C1172 C1174 1.353 . S
C1172 N1175 1.314 . S
C1172 H1178 0.930 . S
C1173 N1175 1.279 . S
C1173 C1176 1.358 . S
C1173 H1179 0.928 1_565 S
C1174 C1172 1.353 . S
C1174 C1177 1.348 . S
C1174 H1212 0.929 . S
N1175 Li1130 1.991 . S
N1175 C1172 1.314 . S
N1175 C1173 1.279 . S
C1176 C1173 1.358 . S
C1176 C1177 1.356 . S
C1176 H1213 0.930 . S
C1177 C1174 1.348 . S
C1177 C1176 1.356 . S
H1178 C1172 0.930 . S
H1179 C1173 0.928 1_545 S
C1180 N1181 1.314 . S
C1180 C1182 1.353 . S
C1180 H1186 0.930 . S
N1181 Li1131 1.990 . S
N1181 C1180 1.314 . S
N1181 C1184 1.279 . S
C1182 C1180 1.353 . S
C1182 C1185 1.348 . S
C1182 H1214 0.929 . S
C1183 C1184 1.358 . S
C1183 C1185 1.356 . S
C1183 H1215 0.930 . S
C1184 N1181 1.279 . S
C1184 C1183 1.358 . S
C1184 H1187 0.930 . S
C1185 C1182 1.348 . S
C1185 C1183 1.356 . S
H1186 C1180 0.930 . S
H1187 C1184 0.930 . S
O1188 Li1128 1.956 . S
O1188 Li1129 1.970 1_565 S
O1188 Li1130 1.965 . S
O1188 C1132 1.325 . S
O1189 Li1128 1.970 1_545 S
O1189 Li1129 1.956 . S
O1189 Li1131 1.961 . S
O1189 C1138 1.325 . S
O1190 Li1128 1.960 1_545 S
O1190 Li1130 1.956 1_545 S
O1190 Li1131 1.972 . S
O1190 C1160 1.324 1_545 S
O1191 Li1129 1.961 . S
O1191 Li1130 1.965 1_545 S
O1191 Li1131 1.956 . S
O1191 C1166 1.325 . S
H1192 C1134 0.929 . S
H1193 C1135 0.930 . S
H1194 C1136 0.930 . S
H1195 C1137 0.930 . S
H1196 C1139 0.930 . S
H1197 C1141 0.929 . S
H1198 C1142 0.930 . S
H1199 C1143 0.930 . S
H1200 C1146 0.930 . S
H1201 C1149 0.929 . S
H1202 C1154 0.929 . S
H1203 C1155 0.930 . S
H1204 C1162 0.929 . S
H1205 C1163 0.930 . S
H1206 C1164 0.930 . S
H1207 C1165 0.930 . S
H1208 C1167 0.929 . S
H1209 C1168 0.930 . S
H1210 C1169 0.930 . S
H1211 C1170 0.930 . S
H1212 C1174 0.929 . S
H1213 C1176 0.930 . S
H1214 C1182 0.929 . S
H1215 C1183 0.930 . S
Li1216 N1233 1.990 . S
Li1216 O1276 1.956 . S
Li1216 O1277 1.970 . S
Li1216 O1278 1.961 . S
Li1217 N1241 1.980 1_455 S
Li1217 O1276 1.970 . S
Li1217 O1277 1.956 . S
Li1217 O1279 1.961 1_455 S
Li1218 N1263 1.990 . S
Li1218 O1276 1.961 . S
Li1218 O1278 1.956 . S
Li1218 O1279 1.970 1_455 S
Li1219 N1269 1.990 . S
Li1219 O1277 1.961 1_655 S
Li1219 O1278 1.970 1_655 S
Li1219 O1279 1.956 . S
C1220 C1222 1.348 . S
C1220 C1223 1.356 . S
C1220 O1276 1.325 . S
N1221 C1224 1.314 . S
N1221 C1225 1.279 . S
C1222 C1220 1.348 . S
C1222 C1224 1.353 . S
C1222 H1280 0.929 . S
C1223 C1220 1.356 . S
C1223 C1225 1.358 . S
C1223 H1281 0.930 . S
C1224 N1221 1.314 . S
C1224 C1222 1.353 . S
C1224 H1282 0.930 . S
C1225 N1221 1.279 . S
C1225 C1223 1.358 . S
C1225 H1283 0.930 . S
C1226 C1229 1.348 . S
C1226 C1230 1.356 1_455 S
C1226 O1277 1.325 . S
C1227 N1228 1.279 . S
C1227 C1230 1.358 . S
C1227 H1284 0.930 . S
N1228 C1227 1.279 . S
N1228 C1231 1.314 1_655 S
C1229 C1226 1.348 . S
C1229 C1231 1.353 . S
C1229 H1285 0.929 . S
C1230 C1226 1.356 1_655 S
C1230 C1227 1.358 . S
C1230 H1286 0.930 . S
C1231 N1228 1.314 1_455 S
C1231 C1229 1.353 . S
C1231 H1287 0.930 . S
C1232 N1233 1.314 . S
C1232 C1237 1.353 . S
C1232 H1238 0.930 . S
N1233 Li1216 1.990 . S
N1233 C1232 1.314 . S
N1233 C1235 1.279 . S
C1234 C1235 1.358 . S
C1234 C1236 1.356 . S
C1234 H1288 0.930 . S
C1235 N1233 1.279 . S
C1235 C1234 1.358 . S
C1235 H1239 0.930 . S
C1236 C1234 1.356 . S
C1236 C1237 1.348 . S
C1237 C1232 1.353 . S
C1237 C1236 1.348 . S
C1237 H1289 0.929 . S
H1238 C1232 0.930 . S
H1239 C1235 0.930 . S
C1240 N1241 1.330 . S
C1240 C1242 1.353 . S
C1240 H1246 0.930 . S
N1241 Li1217 1.980 1_655 S
N1241 C1240 1.330 . S
N1241 C1244 1.274 1_655 S
C1242 C1240 1.353 . S
C1242 C1245 1.348 . S
C1242 H1290 0.929 . S
C1243 C1244 1.352 1_655 S
C1243 C1245 1.366 . S
C1243 H1291 0.927 1_655 S
C1244 N1241 1.274 1_455 S
C1244 C1243 1.352 1_455 S
C1244 H1247 0.943 . S
C1245 C1242 1.348 . S
C1245 C1243 1.366 . S
H1246 C1240 0.930 . S
H1247 C1244 0.943 . S
C1248 C1250 1.348 1_455 S
C1248 C1251 1.356 . S
C1248 O1278 1.325 . S
N1249 C1252 1.360 . S
N1249 C1253 1.279 . S
C1250 C1248 1.348 1_655 S
C1250 C1252 1.344 1_655 S
C1250 H1292 0.929 . S
C1251 C1248 1.356 . S
C1251 C1253 1.358 . S
C1251 H1293 0.930 . S
C1252 N1249 1.360 . S
C1252 C1250 1.344 1_455 S
C1252 H1294 0.890 1_455 S
C1253 N1249 1.279 . S
C1253 C1251 1.358 . S
C1253 H1295 0.930 . S
C1254 C1255 1.348 . S
C1254 C1256 1.356 . S
C1254 O1279 1.325 . S
C1255 C1254 1.348 . S
C1255 C1257 1.353 . S
C1255 H1296 0.929 . S
C1256 C1254 1.356 . S
C1256 C1258 1.358 . S
C1256 H1297 0.930 . S
C1257 C1255 1.353 . S
C1257 N1259 1.314 . S
C1257 H1298 0.930 . S
C1258 C1256 1.358 . S
C1258 N1259 1.279 . S
C1258 H1299 0.930 . S
N1259 C1257 1.314 . S
N1259 C1258 1.279 . S
C1260 C1262 1.353 . S
C1260 N1263 1.314 . S
C1260 H1266 0.930 . S
C1261 N1263 1.279 . S
C1261 C1264 1.358 . S
C1261 H1267 0.930 . S
C1262 C1260 1.353 . S
C1262 C1265 1.348 . S
C1262 H1300 0.929 . S
N1263 Li1218 1.990 . S
N1263 C1260 1.314 . S
N1263 C1261 1.279 . S
C1264 C1261 1.358 . S
C1264 C1265 1.356 . S
C1264 H1301 0.930 . S
C1265 C1262 1.348 . S
C1265 C1264 1.356 . S
H1266 C1260 0.930 . S
H1267 C1261 0.930 . S
C1268 N1269 1.314 . S
C1268 C1270 1.353 . S
C1268 H1274 0.930 . S
N1269 Li1219 1.990 . S
N1269 C1268 1.314 . S
N1269 C1272 1.279 . S
C1270 C1268 1.353 . S
C1270 C1273 1.348 . S
C1270 H1302 0.929 . S
C1271 C1272 1.358 . S
C1271 C1273 1.356 . S
C1271 H1303 0.930 . S
C1272 N1269 1.279 . S
C1272 C1271 1.358 . S
C1272 H1275 0.930 . S
C1273 C1270 1.348 . S
C1273 C1271 1.356 . S
H1274 C1268 0.930 . S
H1275 C1272 0.930 . S
O1276 Li1216 1.956 . S
O1276 Li1217 1.970 . S
O1276 Li1218 1.961 . S
O1276 C1220 1.325 . S
O1277 Li1216 1.970 . S
O1277 Li1217 1.956 . S
O1277 Li1219 1.961 1_455 S
O1277 C1226 1.325 . S
O1278 Li1216 1.961 . S
O1278 Li1218 1.956 . S
O1278 Li1219 1.970 1_455 S
O1278 C1248 1.325 . S
O1279 Li1217 1.961 1_655 S
O1279 Li1218 1.970 1_655 S
O1279 Li1219 1.956 . S
O1279 C1254 1.325 . S
H1280 C1222 0.929 . S
H1281 C1223 0.930 . S
H1282 C1224 0.930 . S
H1283 C1225 0.930 . S
H1284 C1227 0.930 . S
H1285 C1229 0.929 . S
H1286 C1230 0.930 . S
H1287 C1231 0.930 . S
H1288 C1234 0.930 . S
H1289 C1237 0.929 . S
H1290 C1242 0.929 . S
H1291 C1243 0.927 1_455 S
H1292 C1250 0.929 . S
H1293 C1251 0.930 . S
H1294 C1252 0.890 1_655 S
H1295 C1253 0.930 . S
H1296 C1255 0.929 . S
H1297 C1256 0.930 . S
H1298 C1257 0.930 . S
H1299 C1258 0.930 . S
H1300 C1262 0.929 . S
H1301 C1264 0.930 . S
H1302 C1270 0.929 . S
H1303 C1271 0.930 . S
Li1304 N1321 1.990 . S
Li1304 O1364 1.956 . S
Li1304 O1365 1.970 . S
Li1304 O1366 1.961 . S
Li1305 N1329 1.990 . S
Li1305 O1364 1.970 . S
Li1305 O1365 1.956 . S
Li1305 O1367 1.961 . S
Li1306 N1351 1.990 . S
Li1306 O1364 1.961 . S
Li1306 O1366 1.956 . S
Li1306 O1367 1.970 . S
Li1307 N1357 1.990 . S
Li1307 O1365 1.961 . S
Li1307 O1366 1.970 . S
Li1307 O1367 1.956 . S
C1308 C1310 1.348 . S
C1308 C1311 1.356 . S
C1308 O1364 1.325 . S
N1309 C1312 1.314 . S
N1309 C1313 1.279 . S
C1310 C1308 1.348 . S
C1310 C1312 1.353 . S
C1310 H1368 0.929 . S
C1311 C1308 1.356 . S
C1311 C1313 1.358 . S
C1311 H1369 0.930 . S
C1312 N1309 1.314 . S
C1312 C1310 1.353 . S
C1312 H1370 0.930 . S
C1313 N1309 1.279 . S
C1313 C1311 1.358 . S
C1313 H1371 0.930 . S
C1314 C1317 1.348 . S
C1314 C1318 1.356 . S
C1314 O1365 1.325 . S
C1315 N1316 1.279 . S
C1315 C1318 1.358 . S
C1315 H1372 0.930 . S
N1316 C1315 1.279 . S
N1316 C1319 1.314 . S
C1317 C1314 1.348 . S
C1317 C1319 1.353 . S
C1317 H1373 0.929 . S
C1318 C1314 1.356 . S
C1318 C1315 1.358 . S
C1318 H1374 0.930 . S
C1319 N1316 1.314 . S
C1319 C1317 1.353 . S
C1319 H1375 0.930 . S
C1320 N1321 1.314 . S
C1320 C1325 1.353 . S
C1320 H1326 0.930 . S
N1321 Li1304 1.990 . S
N1321 C1320 1.314 . S
N1321 C1323 1.279 . S
C1322 C1323 1.358 . S
C1322 C1324 1.356 . S
C1322 H1376 0.930 . S
C1323 N1321 1.279 . S
C1323 C1322 1.358 . S
C1323 H1327 0.930 . S
C1324 C1322 1.356 . S
C1324 C1325 1.348 . S
C1325 C1320 1.353 . S
C1325 C1324 1.348 . S
C1325 H1377 0.929 . S
H1326 C1320 0.930 . S
H1327 C1323 0.930 . S
C1328 N1329 1.314 . S
C1328 C1330 1.353 . S
C1328 H1334 0.930 . S
N1329 Li1305 1.990 . S
N1329 C1328 1.314 . S
N1329 C1332 1.279 . S
C1330 C1328 1.353 . S
C1330 C1333 1.348 . S
C1330 H1378 0.929 . S
C1331 C1332 1.358 . S
C1331 C1333 1.356 . S
C1331 H1379 0.930 . S
C1332 N1329 1.279 . S
C1332 C1331 1.358 . S
C1332 H1335 0.930 . S
C1333 C1330 1.348 . S
C1333 C1331 1.356 . S
H1334 C1328 0.930 . S
H1335 C1332 0.930 . S
C1336 C1338 1.348 . S
C1336 C1339 1.356 . S
C1336 O1366 1.325 . S
N1337 C1340 1.314 . S
N1337 C1341 1.279 . S
C1338 C1336 1.348 . S
C1338 C1340 1.353 . S
C1338 H1380 0.929 . S
C1339 C1336 1.356 . S
C1339 C1341 1.358 . S
C1339 H1381 0.930 . S
C1340 N1337 1.314 . S
C1340 C1338 1.353 . S
C1340 H1382 0.930 . S
C1341 N1337 1.279 . S
C1341 C1339 1.358 . S
C1341 H1383 0.930 . S
C1342 C1343 1.348 . S
C1342 C1344 1.356 . S
C1342 O1367 1.325 . S
C1343 C1342 1.348 . S
C1343 C1345 1.353 . S
C1343 H1384 0.929 . S
C1344 C1342 1.356 . S
C1344 C1346 1.358 . S
C1344 H1385 0.930 . S
C1345 C1343 1.353 . S
C1345 N1347 1.314 . S
C1345 H1386 0.930 . S
C1346 C1344 1.358 . S
C1346 N1347 1.279 . S
C1346 H1387 0.930 . S
N1347 C1345 1.314 . S
N1347 C1346 1.279 . S
C1348 C1350 1.353 . S
C1348 N1351 1.314 . S
C1348 H1354 0.930 . S
C1349 N1351 1.279 . S
C1349 C1352 1.358 . S
C1349 H1355 0.930 . S
C1350 C1348 1.353 . S
C1350 C1353 1.348 . S
C1350 H1388 0.929 . S
N1351 Li1306 1.990 . S
N1351 C1348 1.314 . S
N1351 C1349 1.279 . S
C1352 C1349 1.358 . S
C1352 C1353 1.356 . S
C1352 H1389 0.930 . S
C1353 C1350 1.348 . S
C1353 C1352 1.356 . S
H1354 C1348 0.930 . S
H1355 C1349 0.930 . S
C1356 N1357 1.314 . S
C1356 C1358 1.353 . S
C1356 H1362 0.930 . S
N1357 Li1307 1.990 . S
N1357 C1356 1.314 . S
N1357 C1360 1.279 . S
C1358 C1356 1.353 . S
C1358 C1361 1.348 . S
C1358 H1390 0.929 . S
C1359 C1360 1.358 . S
C1359 C1361 1.356 . S
C1359 H1391 0.930 . S
C1360 N1357 1.279 . S
C1360 C1359 1.358 . S
C1360 H1363 0.930 . S
C1361 C1358 1.348 . S
C1361 C1359 1.356 . S
H1362 C1356 0.930 . S
H1363 C1360 0.930 . S
O1364 Li1304 1.956 . S
O1364 Li1305 1.970 . S
O1364 Li1306 1.961 . S
O1364 C1308 1.325 . S
O1365 Li1304 1.970 . S
O1365 Li1305 1.956 . S
O1365 Li1307 1.961 . S
O1365 C1314 1.325 . S
O1366 Li1304 1.961 . S
O1366 Li1306 1.956 . S
O1366 Li1307 1.970 . S
O1366 C1336 1.325 . S
O1367 Li1305 1.961 . S
O1367 Li1306 1.970 . S
O1367 Li1307 1.956 . S
O1367 C1342 1.325 . S
H1368 C1310 0.929 . S
H1369 C1311 0.930 . S
H1370 C1312 0.930 . S
H1371 C1313 0.930 . S
H1372 C1315 0.930 . S
H1373 C1317 0.929 . S
H1374 C1318 0.930 . S
H1375 C1319 0.930 . S
H1376 C1322 0.930 . S
H1377 C1325 0.929 . S
H1378 C1330 0.929 . S
H1379 C1331 0.930 . S
H1380 C1338 0.929 . S
H1381 C1339 0.930 . S
H1382 C1340 0.930 . S
H1383 C1341 0.930 . S
H1384 C1343 0.929 . S
H1385 C1344 0.930 . S
H1386 C1345 0.930 . S
H1387 C1346 0.930 . S
H1388 C1350 0.929 . S
H1389 C1352 0.930 . S
H1390 C1358 0.929 . S
H1391 C1359 0.930 . S
Li1392 N1409 1.990 . S
Li1392 O1452 1.956 . S
Li1392 O1453 1.970 1_455 S
Li1392 O1454 1.961 . S
Li1393 N1417 1.990 . S
Li1393 O1452 1.970 1_655 S
Li1393 O1453 1.956 . S
Li1393 O1455 1.961 . S
Li1394 N1439 1.990 . S
Li1394 O1452 1.961 . S
Li1394 O1454 1.956 . S
Li1394 O1455 1.970 1_455 S
Li1395 N1445 1.990 . S
Li1395 O1453 1.961 . S
Li1395 O1454 1.970 1_655 S
Li1395 O1455 1.956 . S
C1396 C1398 1.348 1_455 S
C1396 C1399 1.356 . S
C1396 O1452 1.325 . S
N1397 C1400 1.314 1_455 S
N1397 C1401 1.279 . S
C1398 C1396 1.348 1_655 S
C1398 C1400 1.353 . S
C1398 H1456 0.929 . S
C1399 C1396 1.356 . S
C1399 C1401 1.358 . S
C1399 H1457 0.930 . S
C1400 N1397 1.314 1_655 S
C1400 C1398 1.353 . S
C1400 H1458 0.930 . S
C1401 N1397 1.279 . S
C1401 C1399 1.358 . S
C1401 H1459 0.930 . S
C1402 C1405 1.348 . S
C1402 C1406 1.356 . S
C1402 O1453 1.325 . S
C1403 N1404 1.279 . S
C1403 C1406 1.358 . S
C1403 H1460 0.930 . S
N1404 C1403 1.279 . S
N1404 C1407 1.314 . S
C1405 C1402 1.348 . S
C1405 C1407 1.353 . S
C1405 H1461 0.929 . S
C1406 C1402 1.356 . S
C1406 C1403 1.358 . S
C1406 H1462 0.930 . S
C1407 N1404 1.314 . S
C1407 C1405 1.353 . S
C1407 H1463 0.930 . S
C1408 N1409 1.314 . S
C1408 C1413 1.353 . S
C1408 H1414 0.930 . S
N1409 Li1392 1.990 . S
N1409 C1408 1.314 . S
N1409 C1411 1.279 . S
C1410 C1411 1.358 . S
C1410 C1412 1.356 . S
C1410 H1464 0.930 . S
C1411 N1409 1.279 . S
C1411 C1410 1.358 . S
C1411 H1415 0.930 . S
C1412 C1410 1.356 . S
C1412 C1413 1.348 . S
C1413 C1408 1.353 . S
C1413 C1412 1.348 . S
C1413 H1465 0.929 . S
H1414 C1408 0.930 . S
H1415 C1411 0.930 . S
C1416 N1417 1.314 . S
C1416 C1418 1.353 . S
C1416 H1422 0.930 . S
N1417 Li1393 1.990 . S
N1417 C1416 1.314 . S
N1417 C1420 1.279 . S
C1418 C1416 1.353 . S
C1418 C1421 1.348 . S
C1418 H1466 0.929 . S
C1419 C1420 1.358 . S
C1419 C1421 1.356 . S
C1419 H1467 0.930 . S
C1420 N1417 1.279 . S
C1420 C1419 1.358 . S
C1420 H1423 0.930 . S
C1421 C1418 1.348 . S
C1421 C1419 1.356 . S
H1422 C1416 0.930 . S
H1423 C1420 0.930 . S
C1424 C1426 1.348 . S
C1424 C1427 1.356 . S
C1424 O1454 1.325 . S
N1425 C1428 1.314 . S
N1425 C1429 1.279 . S
C1426 C1424 1.348 . S
C1426 C1428 1.353 . S
C1426 H1468 0.929 . S
C1427 C1424 1.356 . S
C1427 C1429 1.358 . S
C1427 H1469 0.930 . S
C1428 N1425 1.314 . S
C1428 C1426 1.353 . S
C1428 H1470 0.930 . S
C1429 N1425 1.279 . S
C1429 C1427 1.358 . S
C1429 H1471 0.930 . S
C1430 C1431 1.348 1_655 S
C1430 C1432 1.356 . S
C1430 O1455 1.325 . S
C1431 C1430 1.348 1_455 S
C1431 C1433 1.353 . S
C1431 H1472 0.929 . S
C1432 C1430 1.356 . S
C1432 C1434 1.358 . S
C1432 H1473 0.930 . S
C1433 C1431 1.353 . S
C1433 N1435 1.314 1_455 S
C1433 H1474 0.930 . S
C1434 C1432 1.358 . S
C1434 N1435 1.279 . S
C1434 H1475 0.930 . S
N1435 C1433 1.314 1_655 S
N1435 C1434 1.279 . S
C1436 C1438 1.353 . S
C1436 N1439 1.314 . S
C1436 H1442 0.930 . S
C1437 N1439 1.279 . S
C1437 C1440 1.358 . S
C1437 H1443 0.930 . S
C1438 C1436 1.353 . S
C1438 C1441 1.348 . S
C1438 H1476 0.929 . S
N1439 Li1394 1.990 . S
N1439 C1436 1.314 . S
N1439 C1437 1.279 . S
C1440 C1437 1.358 . S
C1440 C1441 1.356 . S
C1440 H1477 0.930 . S
C1441 C1438 1.348 . S
C1441 C1440 1.356 . S
H1442 C1436 0.930 . S
H1443 C1437 0.930 . S
C1444 N1445 1.314 . S
C1444 C1446 1.353 . S
C1444 H1450 0.930 . S
N1445 Li1395 1.990 . S
N1445 C1444 1.314 . S
N1445 C1448 1.279 . S
C1446 C1444 1.353 . S
C1446 C1449 1.348 . S
C1446 H1478 0.929 . S
C1447 C1448 1.358 . S
C1447 C1449 1.356 . S
C1447 H1479 0.930 . S
C1448 N1445 1.279 . S
C1448 C1447 1.358 . S
C1448 H1451 0.930 . S
C1449 C1446 1.348 . S
C1449 C1447 1.356 . S
H1450 C1444 0.930 . S
H1451 C1448 0.930 . S
O1452 Li1392 1.956 . S
O1452 Li1393 1.970 1_455 S
O1452 Li1394 1.961 . S
O1452 C1396 1.325 . S
O1453 Li1392 1.970 1_655 S
O1453 Li1393 1.956 . S
O1453 Li1395 1.961 . S
O1453 C1402 1.325 . S
O1454 Li1392 1.961 . S
O1454 Li1394 1.956 . S
O1454 Li1395 1.970 1_455 S
O1454 C1424 1.325 . S
O1455 Li1393 1.961 . S
O1455 Li1394 1.970 1_655 S
O1455 Li1395 1.956 . S
O1455 C1430 1.325 . S
H1456 C1398 0.929 . S
H1457 C1399 0.930 . S
H1458 C1400 0.930 . S
H1459 C1401 0.930 . S
H1460 C1403 0.930 . S
H1461 C1405 0.929 . S
H1462 C1406 0.930 . S
H1463 C1407 0.930 . S
H1464 C1410 0.930 . S
H1465 C1413 0.929 . S
H1466 C1418 0.929 . S
H1467 C1419 0.930 . S
H1468 C1426 0.929 . S
H1469 C1427 0.930 . S
H1470 C1428 0.930 . S
H1471 C1429 0.930 . S
H1472 C1431 0.929 . S
H1473 C1432 0.930 . S
H1474 C1433 0.930 . S
H1475 C1434 0.930 . S
H1476 C1438 0.929 . S
H1477 C1440 0.930 . S
H1478 C1446 0.929 . S
H1479 C1447 0.930 . S
Li1480 N1497 1.990 . S
Li1480 O1540 1.956 . S
Li1480 O1541 1.970 . S
Li1480 O1542 1.961 . S
Li1481 N1505 1.990 . S
Li1481 O1540 1.970 . S
Li1481 O1541 1.956 . S
Li1481 O1543 1.961 . S
Li1482 N1527 1.990 . S
Li1482 O1540 1.961 . S
Li1482 O1542 1.956 . S
Li1482 O1543 1.970 . S
Li1483 N1533 1.990 . S
Li1483 O1541 1.961 . S
Li1483 O1542 1.970 . S
Li1483 O1543 1.956 . S
C1484 C1486 1.348 . S
C1484 C1487 1.356 . S
C1484 O1540 1.325 . S
N1485 C1488 1.314 . S
N1485 C1489 1.279 . S
C1486 C1484 1.348 . S
C1486 C1488 1.353 . S
C1486 H1544 0.929 . S
C1487 C1484 1.356 . S
C1487 C1489 1.358 . S
C1487 H1545 0.930 . S
C1488 N1485 1.314 . S
C1488 C1486 1.353 . S
C1488 H1546 0.930 . S
C1489 N1485 1.279 . S
C1489 C1487 1.358 . S
C1489 H1547 0.930 . S
C1490 C1493 1.348 . S
C1490 C1494 1.356 . S
C1490 O1541 1.325 . S
C1491 N1492 1.279 . S
C1491 C1494 1.358 . S
C1491 H1548 0.930 . S
N1492 C1491 1.279 . S
N1492 C1495 1.314 . S
C1493 C1490 1.348 . S
C1493 C1495 1.353 . S
C1493 H1549 0.929 . S
C1494 C1490 1.356 . S
C1494 C1491 1.358 . S
C1494 H1550 0.930 . S
C1495 N1492 1.314 . S
C1495 C1493 1.353 . S
C1495 H1551 0.930 . S
C1496 N1497 1.314 . S
C1496 C1501 1.353 . S
C1496 H1502 0.930 . S
N1497 Li1480 1.990 . S
N1497 C1496 1.314 . S
N1497 C1499 1.279 . S
C1498 C1499 1.358 . S
C1498 C1500 1.356 . S
C1498 H1552 0.930 . S
C1499 N1497 1.279 . S
C1499 C1498 1.358 . S
C1499 H1503 0.930 . S
C1500 C1498 1.356 . S
C1500 C1501 1.348 . S
C1501 C1496 1.353 . S
C1501 C1500 1.348 . S
C1501 H1553 0.929 . S
H1502 C1496 0.930 . S
H1503 C1499 0.930 . S
C1504 N1505 1.314 . S
C1504 C1506 1.353 . S
C1504 H1510 0.930 . S
N1505 Li1481 1.990 . S
N1505 C1504 1.314 . S
N1505 C1508 1.279 . S
C1506 C1504 1.353 . S
C1506 C1509 1.348 . S
C1506 H1554 0.929 . S
C1507 C1508 1.358 . S
C1507 C1509 1.356 . S
C1507 H1555 0.930 . S
C1508 N1505 1.279 . S
C1508 C1507 1.358 . S
C1508 H1511 0.930 . S
C1509 C1506 1.348 . S
C1509 C1507 1.356 . S
H1510 C1504 0.930 . S
H1511 C1508 0.930 . S
C1512 C1514 1.348 . S
C1512 C1515 1.356 . S
C1512 O1542 1.325 . S
N1513 C1516 1.314 . S
N1513 C1517 1.279 . S
C1514 C1512 1.348 . S
C1514 C1516 1.353 . S
C1514 H1556 0.929 . S
C1515 C1512 1.356 . S
C1515 C1517 1.358 . S
C1515 H1557 0.930 . S
C1516 N1513 1.314 . S
C1516 C1514 1.353 . S
C1516 H1558 0.930 . S
C1517 N1513 1.279 . S
C1517 C1515 1.358 . S
C1517 H1559 0.930 . S
C1518 C1519 1.348 . S
C1518 C1520 1.356 . S
C1518 O1543 1.325 . S
C1519 C1518 1.348 . S
C1519 C1521 1.353 . S
C1519 H1560 0.929 . S
C1520 C1518 1.356 . S
C1520 C1522 1.358 . S
C1520 H1561 0.930 . S
C1521 C1519 1.353 . S
C1521 N1523 1.314 . S
C1521 H1562 0.930 . S
C1522 C1520 1.358 . S
C1522 N1523 1.279 . S
C1522 H1563 0.930 . S
N1523 C1521 1.314 . S
N1523 C1522 1.279 . S
C1524 C1526 1.353 . S
C1524 N1527 1.314 . S
C1524 H1530 0.930 . S
C1525 N1527 1.279 . S
C1525 C1528 1.358 . S
C1525 H1531 0.930 . S
C1526 C1524 1.353 . S
C1526 C1529 1.348 . S
C1526 H1564 0.929 . S
N1527 Li1482 1.990 . S
N1527 C1524 1.314 . S
N1527 C1525 1.279 . S
C1528 C1525 1.358 . S
C1528 C1529 1.356 . S
C1528 H1565 0.930 . S
C1529 C1526 1.348 . S
C1529 C1528 1.356 . S
H1530 C1524 0.930 . S
H1531 C1525 0.930 . S
C1532 N1533 1.314 . S
C1532 C1534 1.353 . S
C1532 H1538 0.930 . S
N1533 Li1483 1.990 . S
N1533 C1532 1.314 . S
N1533 C1536 1.279 . S
C1534 C1532 1.353 . S
C1534 C1537 1.348 . S
C1534 H1566 0.929 . S
C1535 C1536 1.358 . S
C1535 C1537 1.356 . S
C1535 H1567 0.930 . S
C1536 N1533 1.279 . S
C1536 C1535 1.358 . S
C1536 H1539 0.930 . S
C1537 C1534 1.348 . S
C1537 C1535 1.356 . S
H1538 C1532 0.930 . S
H1539 C1536 0.930 . S
O1540 Li1480 1.956 . S
O1540 Li1481 1.970 . S
O1540 Li1482 1.961 . S
O1540 C1484 1.325 . S
O1541 Li1480 1.970 . S
O1541 Li1481 1.956 . S
O1541 Li1483 1.961 . S
O1541 C1490 1.325 . S
O1542 Li1480 1.961 . S
O1542 Li1482 1.956 . S
O1542 Li1483 1.970 . S
O1542 C1512 1.325 . S
O1543 Li1481 1.961 . S
O1543 Li1482 1.970 . S
O1543 Li1483 1.956 . S
O1543 C1518 1.325 . S
H1544 C1486 0.929 . S
H1545 C1487 0.930 . S
H1546 C1488 0.930 . S
H1547 C1489 0.930 . S
H1548 C1491 0.930 . S
H1549 C1493 0.929 . S
H1550 C1494 0.930 . S
H1551 C1495 0.930 . S
H1552 C1498 0.930 . S
H1553 C1501 0.929 . S
H1554 C1506 0.929 . S
H1555 C1507 0.930 . S
H1556 C1514 0.929 . S
H1557 C1515 0.930 . S
H1558 C1516 0.930 . S
H1559 C1517 0.930 . S
H1560 C1519 0.929 . S
H1561 C1520 0.930 . S
H1562 C1521 0.930 . S
H1563 C1522 0.930 . S
H1564 C1526 0.929 . S
H1565 C1528 0.930 . S
H1566 C1534 0.929 . S
H1567 C1535 0.930 . S
H1568 C1586 0.951 . S
H1569 C1588 0.951 . S
H1570 C1590 0.950 . S
H1571 C1591 0.950 . S
H1572 C1593 0.950 . S
H1573 C1596 0.950 . S
H1574 C1597 0.950 . S
H1575 C1599 0.950 . S
H1576 C1600 0.950 . S
H1577 C1601 0.951 . S
H1578 C1603 0.951 . S
H1579 C1605 0.950 . S
H1580 C1606 0.950 . S
H1581 C1608 0.950 . S
H1582 C1611 0.950 . S
H1583 C1612 0.950 . S
H1584 C1614 0.950 . S
H1585 C1615 0.950 . S
C1586 H1568 0.951 . S
C1586 C1587 1.366 . S
C1586 C1588 1.388 . S
C1587 C1586 1.366 . S
C1587 C1591 1.385 . S
C1588 H1569 0.951 . S
C1588 C1586 1.388 . S
C1588 C1589 1.366 . S
C1589 C1588 1.366 . S
C1589 C1590 1.414 . S
C1589 C1592 1.499 . S
C1590 H1570 0.950 . S
C1590 C1589 1.414 . S
C1590 C1591 1.374 . S
C1591 H1571 0.950 . S
C1591 C1587 1.385 . S
C1591 C1590 1.374 . S
C1592 C1589 1.499 . S
C1592 C1593 1.373 . S
C1592 C1594 1.389 . S
C1593 H1572 0.950 . S
C1593 C1592 1.373 . S
C1593 C1609 1.377 . S
C1594 C1592 1.389 . S
C1594 C1595 1.524 . S
C1594 C1608 1.377 . S
C1595 C1594 1.524 . S
C1595 C1596 1.397 . S
C1595 C1600 1.363 . S
C1596 H1573 0.950 . S
C1596 C1595 1.397 . S
C1596 C1597 1.334 . S
C1597 H1574 0.950 . S
C1597 C1596 1.334 . S
C1597 C1598 1.287 . S
C1598 C1597 1.287 . S
C1598 C1599 1.524 . S
C1598 H1617 0.913 . S
C1599 H1575 0.950 . S
C1599 C1598 1.524 . S
C1599 C1600 1.415 . S
C1600 H1576 0.950 . S
C1600 C1595 1.363 . S
C1600 C1599 1.415 . S
C1601 H1577 0.951 . S
C1601 C1602 1.366 . S
C1601 C1603 1.388 . S
C1602 C1601 1.366 . S
C1602 C1606 1.385 . S
C1603 H1578 0.951 . S
C1603 C1601 1.388 . S
C1603 C1604 1.366 . S
C1604 C1603 1.366 . S
C1604 C1605 1.414 . S
C1604 C1607 1.499 . S
C1605 H1579 0.950 . S
C1605 C1604 1.414 . S
C1605 C1606 1.374 . S
C1606 H1580 0.950 . S
C1606 C1602 1.385 . S
C1606 C1605 1.374 . S
C1607 C1604 1.499 . S
C1607 C1608 1.373 . S
C1607 C1609 1.389 . S
C1608 H1581 0.950 . S
C1608 C1594 1.377 . S
C1608 C1607 1.373 . S
C1609 C1593 1.377 . S
C1609 C1607 1.389 . S
C1609 C1610 1.524 . S
C1610 C1609 1.524 . S
C1610 C1611 1.397 . S
C1610 C1615 1.363 . S
C1611 H1582 0.950 . S
C1611 C1610 1.397 . S
C1611 C1612 1.334 . S
C1612 H1583 0.950 . S
C1612 C1611 1.334 . S
C1612 C1613 1.287 . S
C1613 C1612 1.287 . S
C1613 C1614 1.524 . S
C1613 H1616 0.999 . S
C1614 H1584 0.950 . S
C1614 C1613 1.524 . S
C1614 C1615 1.415 . S
C1615 H1585 0.950 . S
C1615 C1610 1.363 . S
C1615 C1614 1.415 . S
H1616 C1613 0.999 . S
H1617 C1598 0.913 . S
H1618 C1636 0.951 . S
H1619 C1638 0.951 . S
H1620 C1640 0.950 . S
H1621 C1641 0.903 1_655 S
H1622 C1643 0.950 . S
H1623 C1646 0.950 . S
H1624 C1647 0.950 . S
H1625 C1649 0.950 . S
H1626 C1650 0.950 . S
H1627 C1651 0.951 . S
H1628 C1653 0.951 . S
H1629 C1655 0.950 . S
H1630 C1656 0.950 . S
H1631 C1658 0.950 . S
H1632 C1661 0.950 . S
H1633 C1662 0.950 . S
H1634 C1664 0.950 . S
H1635 C1665 0.950 . S
C1636 H1618 0.951 . S
C1636 C1637 1.366 . S
C1636 C1638 1.388 . S
C1637 C1636 1.366 . S
C1637 C1641 1.406 . S
C1638 H1619 0.951 . S
C1638 C1636 1.388 . S
C1638 C1639 1.366 . S
C1639 C1638 1.366 . S
C1639 C1640 1.414 . S
C1639 C1642 1.499 . S
C1640 H1620 0.950 . S
C1640 C1639 1.414 . S
C1640 C1641 1.401 . S
C1641 H1621 0.903 1_455 S
C1641 C1637 1.406 . S
C1641 C1640 1.401 . S
C1642 C1639 1.499 . S
C1642 C1643 1.373 . S
C1642 C1644 1.389 . S
C1643 H1622 0.950 . S
C1643 C1642 1.373 . S
C1643 C1659 1.377 . S
C1644 C1642 1.389 . S
C1644 C1645 1.524 . S
C1644 C1658 1.377 . S
C1645 C1644 1.524 . S
C1645 C1646 1.397 . S
C1645 C1650 1.363 . S
C1646 H1623 0.950 . S
C1646 C1645 1.397 . S
C1646 C1647 1.334 . S
C1647 H1624 0.950 . S
C1647 C1646 1.334 . S
C1647 C1648 1.287 . S
C1648 C1647 1.287 . S
C1648 C1649 1.524 . S
C1648 H1667 0.913 . S
C1649 H1625 0.950 . S
C1649 C1648 1.524 . S
C1649 C1650 1.415 . S
C1650 H1626 0.950 . S
C1650 C1645 1.363 . S
C1650 C1649 1.415 . S
C1651 H1627 0.951 . S
C1651 C1652 1.366 . S
C1651 C1653 1.388 . S
C1652 C1651 1.366 . S
C1652 C1656 1.385 . S
C1653 H1628 0.951 . S
C1653 C1651 1.388 . S
C1653 C1654 1.366 . S
C1654 C1653 1.366 . S
C1654 C1655 1.414 . S
C1654 C1657 1.499 . S
C1655 H1629 0.950 . S
C1655 C1654 1.414 . S
C1655 C1656 1.374 . S
C1656 H1630 0.950 . S
C1656 C1652 1.385 . S
C1656 C1655 1.374 . S
C1657 C1654 1.499 . S
C1657 C1658 1.373 . S
C1657 C1659 1.389 . S
C1658 H1631 0.950 . S
C1658 C1644 1.377 . S
C1658 C1657 1.373 . S
C1659 C1643 1.377 . S
C1659 C1657 1.389 . S
C1659 C1660 1.524 . S
C1660 C1659 1.524 . S
C1660 C1661 1.397 . S
C1660 C1665 1.363 . S
C1661 H1632 0.950 . S
C1661 C1660 1.397 . S
C1661 C1662 1.334 . S
C1662 H1633 0.950 . S
C1662 C1661 1.334 . S
C1662 C1663 1.287 . S
C1663 C1662 1.287 . S
C1663 C1664 1.524 . S
C1663 H1666 0.999 . S
C1664 H1634 0.950 . S
C1664 C1663 1.524 . S
C1664 C1665 1.415 . S
C1665 H1635 0.950 . S
C1665 C1660 1.363 . S
C1665 C1664 1.415 . S
H1666 C1663 0.999 . S
H1667 C1648 0.913 . S
H1668 C1686 0.951 . S
H1669 C1688 0.951 . S
H1670 C1690 0.950 . S
H1671 C1691 0.950 . S
H1672 C1693 0.950 . S
H1673 C1696 0.950 . S
H1674 C1697 0.950 . S
H1675 C1699 0.950 . S
H1676 C1700 0.950 . S
H1677 C1701 0.951 . S
H1678 C1703 0.951 . S
H1679 C1705 0.950 . S
H1680 C1706 0.950 . S
H1681 C1708 0.950 . S
H1682 C1711 0.950 . S
H1683 C1712 0.950 . S
H1684 C1714 0.950 . S
H1685 C1715 0.950 . S
C1686 H1668 0.951 . S
C1686 C1687 1.366 . S
C1686 C1688 1.388 . S
C1687 C1686 1.366 . S
C1687 C1691 1.385 . S
C1688 H1669 0.951 . S
C1688 C1686 1.388 . S
C1688 C1689 1.366 . S
C1689 C1688 1.366 . S
C1689 C1690 1.414 . S
C1689 C1692 1.499 . S
C1690 H1670 0.950 . S
C1690 C1689 1.414 . S
C1690 C1691 1.374 . S
C1691 H1671 0.950 . S
C1691 C1687 1.385 . S
C1691 C1690 1.374 . S
C1692 C1689 1.499 . S
C1692 C1693 1.373 . S
C1692 C1694 1.389 . S
C1693 H1672 0.950 . S
C1693 C1692 1.373 . S
C1693 C1709 1.377 . S
C1694 C1692 1.389 . S
C1694 C1695 1.524 . S
C1694 C1708 1.377 . S
C1695 C1694 1.524 . S
C1695 C1696 1.397 . S
C1695 C1700 1.363 . S
C1696 H1673 0.950 . S
C1696 C1695 1.397 . S
C1696 C1697 1.334 . S
C1697 H1674 0.950 . S
C1697 C1696 1.334 . S
C1697 C1698 1.287 . S
C1698 C1697 1.287 . S
C1698 C1699 1.524 . S
C1698 H1717 0.913 . S
C1699 H1675 0.950 . S
C1699 C1698 1.524 . S
C1699 C1700 1.415 . S
C1700 H1676 0.950 . S
C1700 C1695 1.363 . S
C1700 C1699 1.415 . S
C1701 H1677 0.951 . S
C1701 C1702 1.366 . S
C1701 C1703 1.388 . S
C1702 C1701 1.366 . S
C1702 C1706 1.385 . S
C1703 H1678 0.951 . S
C1703 C1701 1.388 . S
C1703 C1704 1.366 . S
C1704 C1703 1.366 . S
C1704 C1705 1.414 . S
C1704 C1707 1.499 . S
C1705 H1679 0.950 . S
C1705 C1704 1.414 . S
C1705 C1706 1.374 . S
C1706 H1680 0.950 . S
C1706 C1702 1.385 . S
C1706 C1705 1.374 . S
C1707 C1704 1.499 . S
C1707 C1708 1.373 . S
C1707 C1709 1.389 . S
C1708 H1681 0.950 . S
C1708 C1694 1.377 . S
C1708 C1707 1.373 . S
C1709 C1693 1.377 . S
C1709 C1707 1.389 . S
C1709 C1710 1.524 . S
C1710 C1709 1.524 . S
C1710 C1711 1.397 . S
C1710 C1715 1.363 . S
C1711 H1682 0.950 . S
C1711 C1710 1.397 . S
C1711 C1712 1.334 . S
C1712 H1683 0.950 . S
C1712 C1711 1.334 . S
C1712 C1713 1.287 . S
C1713 C1712 1.287 . S
C1713 C1714 1.524 . S
C1713 H1716 0.999 . S
C1714 H1684 0.950 . S
C1714 C1713 1.524 . S
C1714 C1715 1.415 . S
C1715 H1685 0.950 . S
C1715 C1710 1.363 . S
C1715 C1714 1.415 . S
H1716 C1713 0.999 . S
H1717 C1698 0.913 . S
H1718 C1736 0.951 . S
H1719 C1738 0.951 . S
H1720 C1740 0.950 . S
H1721 C1741 0.950 . S
H1722 C1743 0.950 . S
H1723 C1746 0.950 . S
H1724 C1747 0.950 . S
H1725 C1749 0.950 . S
H1726 C1750 0.950 . S
H1727 C1751 0.951 . S
H1728 C1753 0.951 . S
H1729 C1755 0.950 . S
H1730 C1756 0.950 . S
H1731 C1758 0.950 . S
H1732 C1761 0.950 . S
H1733 C1762 0.950 . S
H1734 C1764 0.920 1_455 S
H1735 C1765 0.950 1_565 S
C1736 H1718 0.951 . S
C1736 C1737 1.366 . S
C1736 C1738 1.388 . S
C1737 C1736 1.366 . S
C1737 C1741 1.385 1_655 S
C1738 H1719 0.951 . S
C1738 C1736 1.388 . S
C1738 C1739 1.366 . S
C1739 C1738 1.366 . S
C1739 C1740 1.414 . S
C1739 C1742 1.499 . S
C1740 H1720 0.950 . S
C1740 C1739 1.414 . S
C1740 C1741 1.374 1_655 S
C1741 H1721 0.950 . S
C1741 C1737 1.385 1_455 S
C1741 C1740 1.374 1_455 S
C1742 C1739 1.499 . S
C1742 C1743 1.373 . S
C1742 C1744 1.389 . S
C1743 H1722 0.950 . S
C1743 C1742 1.373 . S
C1743 C1759 1.377 . S
C1744 C1742 1.389 . S
C1744 C1745 1.524 . S
C1744 C1758 1.377 . S
C1745 C1744 1.524 . S
C1745 C1746 1.397 . S
C1745 C1750 1.363 . S
C1746 H1723 0.950 . S
C1746 C1745 1.397 . S
C1746 C1747 1.334 . S
C1747 H1724 0.950 . S
C1747 C1746 1.334 . S
C1747 C1748 1.287 . S
C1748 C1747 1.287 . S
C1748 C1749 1.524 . S
C1748 H1767 0.913 . S
C1749 H1725 0.950 . S
C1749 C1748 1.524 . S
C1749 C1750 1.415 . S
C1750 H1726 0.950 . S
C1750 C1745 1.363 . S
C1750 C1749 1.415 . S
C1751 H1727 0.951 . S
C1751 C1752 1.366 . S
C1751 C1753 1.388 . S
C1752 C1751 1.366 . S
C1752 C1756 1.385 . S
C1753 H1728 0.951 . S
C1753 C1751 1.388 . S
C1753 C1754 1.366 . S
C1754 C1753 1.366 . S
C1754 C1755 1.414 . S
C1754 C1757 1.499 . S
C1755 H1729 0.950 . S
C1755 C1754 1.414 . S
C1755 C1756 1.374 . S
C1756 H1730 0.950 . S
C1756 C1752 1.385 . S
C1756 C1755 1.374 . S
C1757 C1754 1.499 . S
C1757 C1758 1.373 . S
C1757 C1759 1.389 . S
C1758 H1731 0.950 . S
C1758 C1744 1.377 . S
C1758 C1757 1.373 . S
C1759 C1743 1.377 . S
C1759 C1757 1.389 . S
C1759 C1760 1.524 1_565 S
C1760 C1759 1.524 1_545 S
C1760 C1761 1.397 . S
C1760 C1765 1.363 . S
C1761 H1732 0.950 . S
C1761 C1760 1.397 . S
C1761 C1762 1.334 . S
C1762 H1733 0.950 . S
C1762 C1761 1.334 . S
C1762 C1763 1.287 . S
C1763 C1762 1.287 . S
C1763 C1764 1.524 . S
C1763 H1766 0.999 . S
C1764 H1734 0.920 1_655 S
C1764 C1763 1.524 . S
C1764 C1765 1.415 . S
C1765 H1735 0.950 1_545 S
C1765 C1760 1.363 . S
C1765 C1764 1.415 . S
H1766 C1763 0.999 . S
H1767 C1748 0.913 . S
H1768 C1786 0.951 . S
H1769 C1788 0.951 . S
H1770 C1790 0.950 . S
H1771 C1791 0.950 . S
H1772 C1793 0.950 . S
H1773 C1796 0.950 . S
H1774 C1797 0.950 . S
H1775 C1799 0.950 . S
H1776 C1800 0.950 . S
H1777 C1801 0.951 . S
H1778 C1803 0.951 . S
H1779 C1805 0.950 . S
H1780 C1806 0.950 . S
H1781 C1808 0.950 . S
H1782 C1811 0.950 . S
H1783 C1812 0.950 . S
H1784 C1814 0.950 . S
H1785 C1815 0.950 . S
C1786 H1768 0.951 . S
C1786 C1787 1.366 . S
C1786 C1788 1.388 . S
C1787 C1786 1.366 . S
C1787 C1791 1.385 . S
C1788 H1769 0.951 . S
C1788 C1786 1.388 . S
C1788 C1789 1.366 . S
C1789 C1788 1.366 . S
C1789 C1790 1.414 . S
C1789 C1792 1.499 . S
C1790 H1770 0.950 . S
C1790 C1789 1.414 . S
C1790 C1791 1.374 . S
C1791 H1771 0.950 . S
C1791 C1787 1.385 . S
C1791 C1790 1.374 . S
C1792 C1789 1.499 . S
C1792 C1793 1.373 . S
C1792 C1794 1.389 . S
C1793 H1772 0.950 . S
C1793 C1792 1.373 . S
C1793 C1809 1.377 . S
C1794 C1792 1.389 . S
C1794 C1795 1.524 . S
C1794 C1808 1.377 . S
C1795 C1794 1.524 . S
C1795 C1796 1.397 . S
C1795 C1800 1.363 . S
C1796 H1773 0.950 . S
C1796 C1795 1.397 . S
C1796 C1797 1.334 . S
C1797 H1774 0.950 . S
C1797 C1796 1.334 . S
C1797 C1798 1.287 . S
C1798 C1797 1.287 . S
C1798 C1799 1.524 . S
C1798 H1817 0.913 . S
C1799 H1775 0.950 . S
C1799 C1798 1.524 . S
C1799 C1800 1.415 . S
C1800 H1776 0.950 . S
C1800 C1795 1.363 . S
C1800 C1799 1.415 . S
C1801 H1777 0.951 . S
C1801 C1802 1.366 . S
C1801 C1803 1.388 . S
C1802 C1801 1.366 . S
C1802 C1806 1.385 . S
C1803 H1778 0.951 . S
C1803 C1801 1.388 . S
C1803 C1804 1.366 . S
C1804 C1803 1.366 . S
C1804 C1805 1.414 . S
C1804 C1807 1.499 . S
C1805 H1779 0.950 . S
C1805 C1804 1.414 . S
C1805 C1806 1.374 . S
C1806 H1780 0.950 . S
C1806 C1802 1.385 . S
C1806 C1805 1.374 . S
C1807 C1804 1.499 . S
C1807 C1808 1.373 . S
C1807 C1809 1.389 . S
C1808 H1781 0.950 . S
C1808 C1794 1.377 . S
C1808 C1807 1.373 . S
C1809 C1793 1.377 . S
C1809 C1807 1.389 . S
C1809 C1810 1.524 . S
C1810 C1809 1.524 . S
C1810 C1811 1.397 . S
C1810 C1815 1.363 . S
C1811 H1782 0.950 . S
C1811 C1810 1.397 . S
C1811 C1812 1.334 . S
C1812 H1783 0.950 . S
C1812 C1811 1.334 . S
C1812 C1813 1.287 . S
C1813 C1812 1.287 . S
C1813 C1814 1.524 . S
C1813 H1816 0.999 . S
C1814 H1784 0.950 . S
C1814 C1813 1.524 . S
C1814 C1815 1.415 . S
C1815 H1785 0.950 . S
C1815 C1810 1.363 . S
C1815 C1814 1.415 . S
H1816 C1813 0.999 . S
H1817 C1798 0.913 . S
H1818 C1836 0.951 . S
H1819 C1838 0.951 . S
H1820 C1840 0.950 . S
H1821 C1841 0.950 . S
H1822 C1843 0.950 . S
H1823 C1846 0.950 . S
H1824 C1847 0.950 . S
H1825 C1849 0.950 . S
H1826 C1850 0.950 . S
H1827 C1851 0.951 . S
H1828 C1853 0.951 . S
H1829 C1855 0.950 . S
H1830 C1856 0.950 . S
H1831 C1858 0.950 . S
H1832 C1861 0.950 . S
H1833 C1862 0.950 . S
H1834 C1864 0.950 . S
H1835 C1865 0.950 . S
C1836 H1818 0.951 . S
C1836 C1837 1.366 . S
C1836 C1838 1.388 . S
C1837 C1836 1.366 . S
C1837 C1841 1.385 . S
C1838 H1819 0.951 . S
C1838 C1836 1.388 . S
C1838 C1839 1.366 . S
C1839 C1838 1.366 . S
C1839 C1840 1.414 . S
C1839 C1842 1.499 . S
C1840 H1820 0.950 . S
C1840 C1839 1.414 . S
C1840 C1841 1.374 . S
C1841 H1821 0.950 . S
C1841 C1837 1.385 . S
C1841 C1840 1.374 . S
C1842 C1839 1.499 . S
C1842 C1843 1.373 . S
C1842 C1844 1.389 . S
C1843 H1822 0.950 . S
C1843 C1842 1.373 . S
C1843 C1859 1.377 . S
C1844 C1842 1.389 . S
C1844 C1845 1.524 . S
C1844 C1858 1.377 . S
C1845 C1844 1.524 . S
C1845 C1846 1.397 . S
C1845 C1850 1.363 . S
C1846 H1823 0.950 . S
C1846 C1845 1.397 . S
C1846 C1847 1.334 . S
C1847 H1824 0.950 . S
C1847 C1846 1.334 . S
C1847 C1848 1.287 . S
C1848 C1847 1.287 . S
C1848 C1849 1.524 . S
C1848 H1867 0.913 . S
C1849 H1825 0.950 . S
C1849 C1848 1.524 . S
C1849 C1850 1.415 . S
C1850 H1826 0.950 . S
C1850 C1845 1.363 . S
C1850 C1849 1.415 . S
C1851 H1827 0.951 . S
C1851 C1852 1.366 . S
C1851 C1853 1.388 . S
C1852 C1851 1.366 . S
C1852 C1856 1.385 . S
C1853 H1828 0.951 . S
C1853 C1851 1.388 . S
C1853 C1854 1.366 . S
C1854 C1853 1.366 . S
C1854 C1855 1.414 . S
C1854 C1857 1.499 . S
C1855 H1829 0.950 . S
C1855 C1854 1.414 . S
C1855 C1856 1.374 . S
C1856 H1830 0.950 . S
C1856 C1852 1.385 . S
C1856 C1855 1.374 . S
C1857 C1854 1.499 . S
C1857 C1858 1.373 . S
C1857 C1859 1.389 . S
C1858 H1831 0.950 . S
C1858 C1844 1.377 . S
C1858 C1857 1.373 . S
C1859 C1843 1.377 . S
C1859 C1857 1.389 . S
C1859 C1860 1.524 . S
C1860 C1859 1.524 . S
C1860 C1861 1.397 . S
C1860 C1865 1.363 . S
C1861 H1832 0.950 . S
C1861 C1860 1.397 . S
C1861 C1862 1.334 . S
C1862 H1833 0.950 . S
C1862 C1861 1.334 . S
C1862 C1863 1.287 . S
C1863 C1862 1.287 . S
C1863 C1864 1.524 . S
C1863 H1866 0.999 . S
C1864 H1834 0.950 . S
C1864 C1863 1.524 . S
C1864 C1865 1.415 . S
C1865 H1835 0.950 . S
C1865 C1860 1.363 . S
C1865 C1864 1.415 . S
H1866 C1863 0.999 . S
H1867 C1848 0.913 . S
H1868 C1886 0.951 . S
H1869 C1888 0.951 . S
H1870 C1890 0.950 . S
H1871 C1891 0.950 . S
H1872 C1893 0.950 . S
H1873 C1896 0.950 . S
H1874 C1897 0.950 . S
H1875 C1899 0.950 . S
H1876 C1900 0.950 . S
H1877 C1901 0.951 . S
H1878 C1903 0.951 . S
H1879 C1905 0.950 . S
H1880 C1906 0.950 . S
H1881 C1908 0.950 . S
H1882 C1911 0.950 . S
H1883 C1912 0.950 . S
H1884 C1914 0.950 . S
H1885 C1915 0.950 . S
C1886 H1868 0.951 . S
C1886 C1887 1.366 . S
C1886 C1888 1.388 . S
C1887 C1886 1.366 . S
C1887 C1891 1.385 . S
C1888 H1869 0.951 . S
C1888 C1886 1.388 . S
C1888 C1889 1.366 . S
C1889 C1888 1.366 . S
C1889 C1890 1.414 . S
C1889 C1892 1.499 . S
C1890 H1870 0.950 . S
C1890 C1889 1.414 . S
C1890 C1891 1.374 . S
C1891 H1871 0.950 . S
C1891 C1887 1.385 . S
C1891 C1890 1.374 . S
C1892 C1889 1.499 . S
C1892 C1893 1.373 . S
C1892 C1894 1.389 . S
C1893 H1872 0.950 . S
C1893 C1892 1.373 . S
C1893 C1909 1.377 . S
C1894 C1892 1.389 . S
C1894 C1895 1.524 . S
C1894 C1908 1.377 . S
C1895 C1894 1.524 . S
C1895 C1896 1.397 . S
C1895 C1900 1.363 . S
C1896 H1873 0.950 . S
C1896 C1895 1.397 . S
C1896 C1897 1.334 . S
C1897 H1874 0.950 . S
C1897 C1896 1.334 . S
C1897 C1898 1.287 . S
C1898 C1897 1.287 . S
C1898 C1899 1.524 . S
C1898 H1917 0.913 . S
C1899 H1875 0.950 . S
C1899 C1898 1.524 . S
C1899 C1900 1.415 . S
C1900 H1876 0.950 . S
C1900 C1895 1.363 . S
C1900 C1899 1.415 . S
C1901 H1877 0.951 . S
C1901 C1902 1.366 . S
C1901 C1903 1.388 . S
C1902 C1901 1.366 . S
C1902 C1906 1.385 . S
C1903 H1878 0.951 . S
C1903 C1901 1.388 . S
C1903 C1904 1.366 . S
C1904 C1903 1.366 . S
C1904 C1905 1.414 . S
C1904 C1907 1.499 . S
C1905 H1879 0.950 . S
C1905 C1904 1.414 . S
C1905 C1906 1.374 . S
C1906 H1880 0.950 . S
C1906 C1902 1.385 . S
C1906 C1905 1.374 . S
C1907 C1904 1.499 . S
C1907 C1908 1.373 . S
C1907 C1909 1.389 . S
C1908 H1881 0.950 . S
C1908 C1894 1.377 . S
C1908 C1907 1.373 . S
C1909 C1893 1.377 . S
C1909 C1907 1.389 . S
C1909 C1910 1.524 . S
C1910 C1909 1.524 . S
C1910 C1911 1.397 . S
C1910 C1915 1.363 . S
C1911 H1882 0.950 . S
C1911 C1910 1.397 . S
C1911 C1912 1.334 . S
C1912 H1883 0.950 . S
C1912 C1911 1.334 . S
C1912 C1913 1.287 . S
C1913 C1912 1.287 . S
C1913 C1914 1.524 . S
C1913 H1916 0.999 . S
C1914 H1884 0.950 . S
C1914 C1913 1.524 . S
C1914 C1915 1.415 . S
C1915 H1885 0.950 . S
C1915 C1910 1.363 . S
C1915 C1914 1.415 . S
H1916 C1913 0.999 . S
H1917 C1898 0.913 . S
H1918 C1936 0.951 . S
H1919 C1938 0.951 . S
H1920 C1940 0.950 1_545 S
H1921 C1941 0.950 . S
H1922 C1943 0.950 1_545 S
H1923 C1946 0.950 . S
H1924 C1947 0.950 . S
H1925 C1949 0.950 . S
H1926 C1950 0.950 . S
H1927 C1951 0.951 . S
H1928 C1953 0.951 . S
H1929 C1955 0.950 . S
H1930 C1956 0.950 . S
H1931 C1958 0.950 . S
H1932 C1961 0.950 . S
H1933 C1962 0.950 . S
H1934 C1964 0.950 . S
H1935 C1965 0.950 . S
C1936 H1918 0.951 . S
C1936 C1937 1.366 . S
C1936 C1938 1.388 . S
C1937 C1936 1.366 . S
C1937 C1941 1.385 . S
C1938 H1919 0.951 . S
C1938 C1936 1.388 . S
C1938 C1939 1.366 . S
C1939 C1938 1.366 . S
C1939 C1940 1.414 . S
C1939 C1942 1.499 . S
C1940 H1920 0.950 1_565 S
C1940 C1939 1.414 . S
C1940 C1941 1.374 . S
C1941 H1921 0.950 . S
C1941 C1937 1.385 . S
C1941 C1940 1.374 . S
C1942 C1939 1.499 . S
C1942 C1943 1.373 . S
C1942 C1944 1.389 . S
C1943 H1922 0.950 1_565 S
C1943 C1942 1.373 . S
C1943 C1959 1.380 . S
C1944 C1942 1.389 . S
C1944 C1945 1.524 . S
C1944 C1958 1.377 . S
C1945 C1944 1.524 . S
C1945 C1946 1.397 . S
C1945 C1950 1.363 . S
C1946 H1923 0.950 . S
C1946 C1945 1.397 . S
C1946 C1947 1.334 . S
C1947 H1924 0.950 . S
C1947 C1946 1.334 . S
C1947 C1948 1.287 . S
C1948 C1947 1.287 . S
C1948 C1949 1.524 . S
C1948 H1967 0.913 . S
C1949 H1925 0.950 . S
C1949 C1948 1.524 . S
C1949 C1950 1.415 . S
C1950 H1926 0.950 . S
C1950 C1945 1.363 . S
C1950 C1949 1.415 . S
C1951 H1927 0.951 . S
C1951 C1952 1.366 1_545 S
C1951 C1953 1.388 . S
C1952 C1951 1.366 1_565 S
C1952 C1956 1.385 . S
C1953 H1928 0.951 . S
C1953 C1951 1.388 . S
C1953 C1954 1.366 1_545 S
C1954 C1953 1.366 1_565 S
C1954 C1955 1.414 . S
C1954 C1957 1.499 . S
C1955 H1929 0.950 . S
C1955 C1954 1.414 . S
C1955 C1956 1.374 . S
C1956 H1930 0.950 . S
C1956 C1952 1.385 . S
C1956 C1955 1.374 . S
C1957 C1954 1.499 . S
C1957 C1958 1.373 . S
C1957 C1959 1.414 . S
C1958 H1931 0.950 . S
C1958 C1944 1.377 . S
C1958 C1957 1.373 . S
C1959 C1943 1.380 . S
C1959 C1957 1.414 . S
C1959 C1960 1.496 1_565 S
C1960 C1959 1.496 1_545 S
C1960 C1961 1.397 . S
C1960 C1965 1.363 . S
C1961 H1932 0.950 . S
C1961 C1960 1.397 . S
C1961 C1962 1.334 . S
C1962 H1933 0.950 . S
C1962 C1961 1.334 . S
C1962 C1963 1.287 . S
C1963 C1962 1.287 . S
C1963 C1964 1.524 . S
C1963 H1966 0.999 . S
C1964 H1934 0.950 . S
C1964 C1963 1.524 . S
C1964 C1965 1.415 . S
C1965 H1935 0.950 . S
C1965 C1960 1.363 . S
C1965 C1964 1.415 . S
H1966 C1963 0.999 . S
H1967 C1948 0.913 . S
H1968 C1986 0.951 . S
H1969 C1988 0.951 . S
H1970 C1990 0.950 . S
H1971 C1991 0.950 . S
H1972 C1993 0.950 . S
H1973 C1996 0.950 . S
H1974 C1997 0.950 . S
H1975 C1999 0.950 . S
H1976 C2000 0.950 . S
H1977 C2001 0.951 . S
H1978 C2003 0.951 . S
H1979 C2005 0.950 . S
H1980 C2006 0.950 . S
H1981 C2008 0.950 . S
H1982 C2011 0.950 . S
H1983 C2012 0.950 . S
H1984 C2014 0.950 . S
H1985 C2015 0.950 . S
C1986 H1968 0.951 . S
C1986 C1987 1.366 . S
C1986 C1988 1.388 . S
C1987 C1986 1.366 . S
C1987 C1991 1.385 . S
C1988 H1969 0.951 . S
C1988 C1986 1.388 . S
C1988 C1989 1.366 . S
C1989 C1988 1.366 . S
C1989 C1990 1.414 . S
C1989 C1992 1.499 . S
C1990 H1970 0.950 . S
C1990 C1989 1.414 . S
C1990 C1991 1.374 . S
C1991 H1971 0.950 . S
C1991 C1987 1.385 . S
C1991 C1990 1.374 . S
C1992 C1989 1.499 . S
C1992 C1993 1.373 . S
C1992 C1994 1.389 . S
C1993 H1972 0.950 . S
C1993 C1992 1.373 . S
C1993 C2009 1.377 . S
C1994 C1992 1.389 . S
C1994 C1995 1.524 . S
C1994 C2008 1.377 . S
C1995 C1994 1.524 . S
C1995 C1996 1.397 . S
C1995 C2000 1.363 . S
C1996 H1973 0.950 . S
C1996 C1995 1.397 . S
C1996 C1997 1.334 . S
C1997 H1974 0.950 . S
C1997 C1996 1.334 . S
C1997 C1998 1.287 . S
C1998 C1997 1.287 . S
C1998 C1999 1.524 . S
C1998 H2017 0.913 . S
C1999 H1975 0.950 . S
C1999 C1998 1.524 . S
C1999 C2000 1.415 . S
C2000 H1976 0.950 . S
C2000 C1995 1.363 . S
C2000 C1999 1.415 . S
C2001 H1977 0.951 . S
C2001 C2002 1.366 . S
C2001 C2003 1.388 . S
C2002 C2001 1.366 . S
C2002 C2006 1.385 . S
C2003 H1978 0.951 . S
C2003 C2001 1.388 . S
C2003 C2004 1.366 . S
C2004 C2003 1.366 . S
C2004 C2005 1.414 . S
C2004 C2007 1.499 . S
C2005 H1979 0.950 . S
C2005 C2004 1.414 . S
C2005 C2006 1.374 . S
C2006 H1980 0.950 . S
C2006 C2002 1.385 . S
C2006 C2005 1.374 . S
C2007 C2004 1.499 . S
C2007 C2008 1.373 . S
C2007 C2009 1.389 . S
C2008 H1981 0.950 . S
C2008 C1994 1.377 . S
C2008 C2007 1.373 . S
C2009 C1993 1.377 . S
C2009 C2007 1.389 . S
C2009 C2010 1.524 . S
C2010 C2009 1.524 . S
C2010 C2011 1.397 . S
C2010 C2015 1.363 . S
C2011 H1982 0.950 . S
C2011 C2010 1.397 . S
C2011 C2012 1.334 . S
C2012 H1983 0.950 . S
C2012 C2011 1.334 . S
C2012 C2013 1.287 . S
C2013 C2012 1.287 . S
C2013 C2014 1.524 . S
C2013 H2016 0.999 . S
C2014 H1984 0.950 . S
C2014 C2013 1.524 . S
C2014 C2015 1.415 . S
C2015 H1985 0.950 . S
C2015 C2010 1.363 . S
C2015 C2014 1.415 . S
H2016 C2013 0.999 . S
H2017 C1998 0.913 . S
H2018 C2036 0.951 . S
H2019 C2038 0.951 . S
H2020 C2040 0.950 . S
H2021 C2041 0.950 . S
H2022 C2043 0.950 . S
H2023 C2046 0.950 . S
H2024 C2047 0.950 . S
H2025 C2049 0.950 . S
H2026 C2050 0.950 . S
H2027 C2051 0.951 . S
H2028 C2053 0.951 . S
H2029 C2055 0.950 . S
H2030 C2056 0.950 . S
H2031 C2058 0.950 . S
H2032 C2061 0.950 . S
H2033 C2062 0.950 . S
H2034 C2064 0.950 . S
H2035 C2065 0.950 . S
C2036 H2018 0.951 . S
C2036 C2037 1.366 . S
C2036 C2038 1.388 . S
C2037 C2036 1.366 . S
C2037 C2041 1.385 . S
C2038 H2019 0.951 . S
C2038 C2036 1.388 . S
C2038 C2039 1.366 . S
C2039 C2038 1.366 . S
C2039 C2040 1.414 . S
C2039 C2042 1.499 . S
C2040 H2020 0.950 . S
C2040 C2039 1.414 . S
C2040 C2041 1.374 . S
C2041 H2021 0.950 . S
C2041 C2037 1.385 . S
C2041 C2040 1.374 . S
C2042 C2039 1.499 . S
C2042 C2043 1.373 . S
C2042 C2044 1.389 . S
C2043 H2022 0.950 . S
C2043 C2042 1.373 . S
C2043 C2059 1.377 . S
C2044 C2042 1.389 . S
C2044 C2045 1.524 . S
C2044 C2058 1.377 . S
C2045 C2044 1.524 . S
C2045 C2046 1.397 . S
C2045 C2050 1.363 . S
C2046 H2023 0.950 . S
C2046 C2045 1.397 . S
C2046 C2047 1.334 . S
C2047 H2024 0.950 . S
C2047 C2046 1.334 . S
C2047 C2048 1.287 . S
C2048 C2047 1.287 . S
C2048 C2049 1.524 . S
C2048 H2067 0.913 . S
C2049 H2025 0.950 . S
C2049 C2048 1.524 . S
C2049 C2050 1.415 . S
C2050 H2026 0.950 . S
C2050 C2045 1.363 . S
C2050 C2049 1.415 . S
C2051 H2027 0.951 . S
C2051 C2052 1.366 . S
C2051 C2053 1.388 . S
C2052 C2051 1.366 . S
C2052 C2056 1.385 . S
C2053 H2028 0.951 . S
C2053 C2051 1.388 . S
C2053 C2054 1.366 . S
C2054 C2053 1.366 . S
C2054 C2055 1.414 . S
C2054 C2057 1.499 . S
C2055 H2029 0.950 . S
C2055 C2054 1.414 . S
C2055 C2056 1.374 . S
C2056 H2030 0.950 . S
C2056 C2052 1.385 . S
C2056 C2055 1.374 . S
C2057 C2054 1.499 . S
C2057 C2058 1.373 . S
C2057 C2059 1.389 . S
C2058 H2031 0.950 . S
C2058 C2044 1.377 . S
C2058 C2057 1.373 . S
C2059 C2043 1.377 . S
C2059 C2057 1.389 . S
C2059 C2060 1.524 . S
C2060 C2059 1.524 . S
C2060 C2061 1.397 . S
C2060 C2065 1.363 . S
C2061 H2032 0.950 . S
C2061 C2060 1.397 . S
C2061 C2062 1.334 . S
C2062 H2033 0.950 . S
C2062 C2061 1.334 . S
C2062 C2063 1.287 . S
C2063 C2062 1.287 . S
C2063 C2064 1.524 . S
C2063 H2066 0.999 . S
C2064 H2034 0.950 . S
C2064 C2063 1.524 . S
C2064 C2065 1.415 . S
C2065 H2035 0.950 . S
C2065 C2060 1.363 . S
C2065 C2064 1.415 . S
H2066 C2063 0.999 . S
H2067 C2048 0.913 . S
H2068 C2086 0.951 . S
H2069 C2088 0.951 . S
H2070 C2090 0.950 . S
H2071 C2091 0.950 . S
H2072 C2093 0.950 . S
H2073 C2096 0.950 . S
H2074 C2097 0.950 . S
H2075 C2099 0.950 . S
H2076 C2100 0.950 . S
H2077 C2101 0.951 . S
H2078 C2103 0.951 . S
H2079 C2105 0.950 . S
H2080 C2106 0.950 . S
H2081 C2108 0.950 . S
H2082 C2111 0.950 . S
H2083 C2112 0.950 . S
H2084 C2114 0.950 . S
H2085 C2115 0.950 . S
C2086 H2068 0.951 . S
C2086 C2087 1.366 . S
C2086 C2088 1.388 . S
C2087 C2086 1.366 . S
C2087 C2091 1.385 . S
C2088 H2069 0.951 . S
C2088 C2086 1.388 . S
C2088 C2089 1.366 . S
C2089 C2088 1.366 . S
C2089 C2090 1.414 . S
C2089 C2092 1.499 . S
C2090 H2070 0.950 . S
C2090 C2089 1.414 . S
C2090 C2091 1.374 . S
C2091 H2071 0.950 . S
C2091 C2087 1.385 . S
C2091 C2090 1.374 . S
C2092 C2089 1.499 . S
C2092 C2093 1.373 . S
C2092 C2094 1.389 . S
C2093 H2072 0.950 . S
C2093 C2092 1.373 . S
C2093 C2109 1.377 . S
C2094 C2092 1.389 . S
C2094 C2095 1.524 . S
C2094 C2108 1.377 . S
C2095 C2094 1.524 . S
C2095 C2096 1.397 . S
C2095 C2100 1.363 . S
C2096 H2073 0.950 . S
C2096 C2095 1.397 . S
C2096 C2097 1.334 . S
C2097 H2074 0.950 . S
C2097 C2096 1.334 . S
C2097 C2098 1.287 . S
C2098 C2097 1.287 . S
C2098 C2099 1.524 . S
C2098 H2117 0.913 . S
C2099 H2075 0.950 . S
C2099 C2098 1.524 . S
C2099 C2100 1.415 . S
C2100 H2076 0.950 . S
C2100 C2095 1.363 . S
C2100 C2099 1.415 . S
C2101 H2077 0.951 . S
C2101 C2102 1.366 . S
C2101 C2103 1.388 . S
C2102 C2101 1.366 . S
C2102 C2106 1.385 . S
C2103 H2078 0.951 . S
C2103 C2101 1.388 . S
C2103 C2104 1.366 . S
C2104 C2103 1.366 . S
C2104 C2105 1.414 . S
C2104 C2107 1.499 . S
C2105 H2079 0.950 . S
C2105 C2104 1.414 . S
C2105 C2106 1.374 . S
C2106 H2080 0.950 . S
C2106 C2102 1.385 . S
C2106 C2105 1.374 . S
C2107 C2104 1.499 . S
C2107 C2108 1.373 . S
C2107 C2109 1.389 . S
C2108 H2081 0.950 . S
C2108 C2094 1.377 . S
C2108 C2107 1.373 . S
C2109 C2093 1.377 . S
C2109 C2107 1.389 . S
C2109 C2110 1.524 . S
C2110 C2109 1.524 . S
C2110 C2111 1.397 . S
C2110 C2115 1.363 . S
C2111 H2082 0.950 . S
C2111 C2110 1.397 . S
C2111 C2112 1.334 . S
C2112 H2083 0.950 . S
C2112 C2111 1.334 . S
C2112 C2113 1.287 . S
C2113 C2112 1.287 . S
C2113 C2114 1.524 . S
C2113 H2116 0.999 . S
C2114 H2084 0.950 . S
C2114 C2113 1.524 . S
C2114 C2115 1.415 . S
C2115 H2085 0.950 . S
C2115 C2110 1.363 . S
C2115 C2114 1.415 . S
H2116 C2113 0.999 . S
H2117 C2098 0.913 . S
H2118 C2136 0.951 . S
H2119 C2138 0.951 . S
H2120 C2140 0.950 . S
H2121 C2141 0.950 . S
H2122 C2143 0.950 . S
H2123 C2146 0.950 . S
H2124 C2147 0.950 . S
H2125 C2149 0.950 . S
H2126 C2150 0.950 . S
H2127 C2151 0.951 . S
H2128 C2153 0.951 . S
H2129 C2155 0.950 . S
H2130 C2156 0.950 . S
H2131 C2158 0.950 . S
H2132 C2161 0.950 . S
H2133 C2162 0.950 . S
H2134 C2164 0.950 . S
H2135 C2165 0.950 . S
C2136 H2118 0.951 . S
C2136 C2137 1.366 . S
C2136 C2138 1.388 . S
C2137 C2136 1.366 . S
C2137 C2141 1.385 . S
C2138 H2119 0.951 . S
C2138 C2136 1.388 . S
C2138 C2139 1.366 . S
C2139 C2138 1.366 . S
C2139 C2140 1.414 . S
C2139 C2142 1.499 . S
C2140 H2120 0.950 . S
C2140 C2139 1.414 . S
C2140 C2141 1.374 . S
C2141 H2121 0.950 . S
C2141 C2137 1.385 . S
C2141 C2140 1.374 . S
C2142 C2139 1.499 . S
C2142 C2143 1.373 . S
C2142 C2144 1.389 . S
C2143 H2122 0.950 . S
C2143 C2142 1.373 . S
C2143 C2159 1.377 . S
C2144 C2142 1.389 . S
C2144 C2145 1.524 . S
C2144 C2158 1.377 . S
C2145 C2144 1.524 . S
C2145 C2146 1.397 . S
C2145 C2150 1.363 . S
C2146 H2123 0.950 . S
C2146 C2145 1.397 . S
C2146 C2147 1.334 . S
C2147 H2124 0.950 . S
C2147 C2146 1.334 . S
C2147 C2148 1.287 . S
C2148 C2147 1.287 . S
C2148 C2149 1.524 . S
C2148 H2167 0.913 . S
C2149 H2125 0.950 . S
C2149 C2148 1.524 . S
C2149 C2150 1.415 . S
C2150 H2126 0.950 . S
C2150 C2145 1.363 . S
C2150 C2149 1.415 . S
C2151 H2127 0.951 . S
C2151 C2152 1.366 . S
C2151 C2153 1.388 . S
C2152 C2151 1.366 . S
C2152 C2156 1.385 . S
C2153 H2128 0.951 . S
C2153 C2151 1.388 . S
C2153 C2154 1.366 . S
C2154 C2153 1.366 . S
C2154 C2155 1.414 . S
C2154 C2157 1.499 . S
C2155 H2129 0.950 . S
C2155 C2154 1.414 . S
C2155 C2156 1.374 . S
C2156 H2130 0.950 . S
C2156 C2152 1.385 . S
C2156 C2155 1.374 . S
C2157 C2154 1.499 . S
C2157 C2158 1.373 . S
C2157 C2159 1.389 . S
C2158 H2131 0.950 . S
C2158 C2144 1.377 . S
C2158 C2157 1.373 . S
C2159 C2143 1.377 . S
C2159 C2157 1.389 . S
C2159 C2160 1.524 . S
C2160 C2159 1.524 . S
C2160 C2161 1.397 . S
C2160 C2165 1.363 . S
C2161 H2132 0.950 . S
C2161 C2160 1.397 . S
C2161 C2162 1.334 . S
C2162 H2133 0.950 . S
C2162 C2161 1.334 . S
C2162 C2163 1.287 . S
C2163 C2162 1.287 . S
C2163 C2164 1.524 . S
C2163 H2166 0.999 . S
C2164 H2134 0.950 . S
C2164 C2163 1.524 . S
C2164 C2165 1.415 . S
C2165 H2135 0.950 . S
C2165 C2160 1.363 . S
C2165 C2164 1.415 . S
H2166 C2163 0.999 . S
H2167 C2148 0.913 . S
H2168 C2186 0.951 . S
H2169 C2188 0.951 . S
H2170 C2190 0.950 . S
H2171 C2191 0.950 . S
H2172 C2193 0.950 . S
H2173 C2196 0.950 . S
H2174 C2197 0.950 . S
H2175 C2199 0.950 . S
H2176 C2200 0.950 . S
H2177 C2201 0.951 . S
H2178 C2203 0.951 . S
H2179 C2205 0.950 . S
H2180 C2206 0.950 . S
H2181 C2208 0.950 . S
H2182 C2211 0.950 . S
H2183 C2212 0.950 . S
H2184 C2214 0.950 . S
H2185 C2215 0.950 . S
C2186 H2168 0.951 . S
C2186 C2187 1.366 . S
C2186 C2188 1.388 . S
C2187 C2186 1.366 . S
C2187 C2191 1.385 . S
C2188 H2169 0.951 . S
C2188 C2186 1.388 . S
C2188 C2189 1.366 . S
C2189 C2188 1.366 . S
C2189 C2190 1.414 . S
C2189 C2192 1.499 . S
C2190 H2170 0.950 . S
C2190 C2189 1.414 . S
C2190 C2191 1.374 . S
C2191 H2171 0.950 . S
C2191 C2187 1.385 . S
C2191 C2190 1.374 . S
C2192 C2189 1.499 . S
C2192 C2193 1.373 . S
C2192 C2194 1.389 . S
C2193 H2172 0.950 . S
C2193 C2192 1.373 . S
C2193 C2209 1.377 . S
C2194 C2192 1.389 . S
C2194 C2195 1.524 . S
C2194 C2208 1.377 . S
C2195 C2194 1.524 . S
C2195 C2196 1.397 . S
C2195 C2200 1.363 . S
C2196 H2173 0.950 . S
C2196 C2195 1.397 . S
C2196 C2197 1.334 . S
C2197 H2174 0.950 . S
C2197 C2196 1.334 . S
C2197 C2198 1.287 . S
C2198 C2197 1.287 . S
C2198 C2199 1.524 . S
C2198 H2217 0.913 . S
C2199 H2175 0.950 . S
C2199 C2198 1.524 . S
C2199 C2200 1.415 . S
C2200 H2176 0.950 . S
C2200 C2195 1.363 . S
C2200 C2199 1.415 . S
C2201 H2177 0.951 . S
C2201 C2202 1.366 . S
C2201 C2203 1.388 . S
C2202 C2201 1.366 . S
C2202 C2206 1.385 . S
C2203 H2178 0.951 . S
C2203 C2201 1.388 . S
C2203 C2204 1.366 . S
C2204 C2203 1.366 . S
C2204 C2205 1.414 . S
C2204 C2207 1.499 . S
C2205 H2179 0.950 . S
C2205 C2204 1.414 . S
C2205 C2206 1.374 . S
C2206 H2180 0.950 . S
C2206 C2202 1.385 . S
C2206 C2205 1.374 . S
C2207 C2204 1.499 . S
C2207 C2208 1.373 . S
C2207 C2209 1.389 . S
C2208 H2181 0.950 . S
C2208 C2194 1.377 . S
C2208 C2207 1.373 . S
C2209 C2193 1.377 . S
C2209 C2207 1.389 . S
C2209 C2210 1.524 . S
C2210 C2209 1.524 . S
C2210 C2211 1.397 . S
C2210 C2215 1.363 . S
C2211 H2182 0.950 . S
C2211 C2210 1.397 . S
C2211 C2212 1.334 . S
C2212 H2183 0.950 . S
C2212 C2211 1.334 . S
C2212 C2213 1.287 . S
C2213 C2212 1.287 . S
C2213 C2214 1.524 . S
C2213 H2216 0.999 . S
C2214 H2184 0.950 . S
C2214 C2213 1.524 . S
C2214 C2215 1.415 . S
C2215 H2185 0.950 . S
C2215 C2210 1.363 . S
C2215 C2214 1.415 . S
H2216 C2213 0.999 . S
H2217 C2198 0.913 . S
H2218 C2236 0.951 . S
H2219 C2238 0.951 . S
H2220 C2240 0.950 . S
H2221 C2241 0.950 . S
H2222 C2243 0.950 1_655 S
H2223 C2246 0.950 . S
H2224 C2247 0.950 . S
H2225 C2249 0.950 . S
H2226 C2250 0.950 . S
H2227 C2251 0.951 1_655 S
H2228 C2253 0.910 1_655 S
H2229 C2255 0.950 . S
H2230 C2256 0.950 . S
H2231 C2258 0.950 . S
H2232 C2261 0.950 . S
H2233 C2262 0.950 . S
H2234 C2264 0.950 . S
H2235 C2265 0.950 . S
C2236 H2218 0.951 . S
C2236 C2237 1.366 . S
C2236 C2238 1.388 . S
C2237 C2236 1.366 . S
C2237 C2241 1.385 . S
C2238 H2219 0.951 . S
C2238 C2236 1.388 . S
C2238 C2239 1.366 . S
C2239 C2238 1.366 . S
C2239 C2240 1.414 . S
C2239 C2242 1.499 . S
C2240 H2220 0.950 . S
C2240 C2239 1.414 . S
C2240 C2241 1.374 . S
C2241 H2221 0.950 . S
C2241 C2237 1.385 . S
C2241 C2240 1.374 . S
C2242 C2239 1.499 . S
C2242 C2243 1.373 . S
C2242 C2244 1.389 . S
C2243 H2222 0.950 1_455 S
C2243 C2242 1.373 . S
C2243 C2259 1.377 . S
C2244 C2242 1.389 . S
C2244 C2245 1.524 . S
C2244 C2258 1.377 . S
C2245 C2244 1.524 . S
C2245 C2246 1.397 . S
C2245 C2250 1.363 . S
C2246 H2223 0.950 . S
C2246 C2245 1.397 . S
C2246 C2247 1.334 . S
C2247 H2224 0.950 . S
C2247 C2246 1.334 . S
C2247 C2248 1.287 . S
C2248 C2247 1.287 . S
C2248 C2249 1.524 . S
C2248 H2267 0.913 . S
C2249 H2225 0.950 . S
C2249 C2248 1.524 . S
C2249 C2250 1.415 . S
C2250 H2226 0.950 . S
C2250 C2245 1.363 . S
C2250 C2249 1.415 . S
C2251 H2227 0.951 1_455 S
C2251 C2252 1.366 . S
C2251 C2253 1.388 . S
C2252 C2251 1.366 . S
C2252 C2256 1.385 . S
C2253 H2228 0.910 1_455 S
C2253 C2251 1.388 . S
C2253 C2254 1.366 . S
C2254 C2253 1.366 . S
C2254 C2255 1.414 . S
C2254 C2257 1.499 . S
C2255 H2229 0.950 . S
C2255 C2254 1.414 . S
C2255 C2256 1.374 . S
C2256 H2230 0.950 . S
C2256 C2252 1.385 . S
C2256 C2255 1.374 . S
C2257 C2254 1.499 . S
C2257 C2258 1.373 . S
C2257 C2259 1.389 . S
C2258 H2231 0.950 . S
C2258 C2244 1.377 . S
C2258 C2257 1.373 . S
C2259 C2243 1.377 . S
C2259 C2257 1.389 . S
C2259 C2260 1.524 1_455 S
C2260 C2259 1.524 1_655 S
C2260 C2261 1.397 . S
C2260 C2265 1.363 . S
C2261 H2232 0.950 . S
C2261 C2260 1.397 . S
C2261 C2262 1.334 . S
C2262 H2233 0.950 . S
C2262 C2261 1.334 . S
C2262 C2263 1.287 . S
C2263 C2262 1.287 . S
C2263 C2264 1.524 . S
C2263 H2266 0.999 . S
C2264 H2234 0.950 . S
C2264 C2263 1.524 . S
C2264 C2265 1.415 . S
C2265 H2235 0.950 . S
C2265 C2260 1.363 . S
C2265 C2264 1.415 . S
H2266 C2263 0.999 . S
H2267 C2248 0.913 . S
H2268 C2286 0.951 . S
H2269 C2288 0.951 . S
H2270 C2290 0.950 . S
H2271 C2291 0.950 . S
H2272 C2293 0.950 . S
H2273 C2296 0.950 . S
H2274 C2297 0.950 . S
H2275 C2299 0.950 . S
H2276 C2300 0.950 . S
H2277 C2301 0.951 . S
H2278 C2303 0.951 . S
H2279 C2305 0.950 . S
H2280 C2306 0.950 . S
H2281 C2308 0.950 . S
H2282 C2311 0.950 . S
H2283 C2312 0.950 . S
H2284 C2314 0.950 . S
H2285 C2315 0.950 . S
C2286 H2268 0.951 . S
C2286 C2287 1.366 . S
C2286 C2288 1.388 . S
C2287 C2286 1.366 . S
C2287 C2291 1.385 . S
C2288 H2269 0.951 . S
C2288 C2286 1.388 . S
C2288 C2289 1.366 . S
C2289 C2288 1.366 . S
C2289 C2290 1.414 . S
C2289 C2292 1.499 . S
C2290 H2270 0.950 . S
C2290 C2289 1.414 . S
C2290 C2291 1.374 . S
C2291 H2271 0.950 . S
C2291 C2287 1.385 . S
C2291 C2290 1.374 . S
C2292 C2289 1.499 . S
C2292 C2293 1.373 . S
C2292 C2294 1.389 . S
C2293 H2272 0.950 . S
C2293 C2292 1.373 . S
C2293 C2309 1.377 . S
C2294 C2292 1.389 . S
C2294 C2295 1.524 . S
C2294 C2308 1.377 . S
C2295 C2294 1.524 . S
C2295 C2296 1.397 . S
C2295 C2300 1.363 . S
C2296 H2273 0.950 . S
C2296 C2295 1.397 . S
C2296 C2297 1.334 . S
C2297 H2274 0.950 . S
C2297 C2296 1.334 . S
C2297 C2298 1.287 . S
C2298 C2297 1.287 . S
C2298 C2299 1.524 . S
C2298 H2317 0.913 . S
C2299 H2275 0.950 . S
C2299 C2298 1.524 . S
C2299 C2300 1.415 . S
C2300 H2276 0.950 . S
C2300 C2295 1.363 . S
C2300 C2299 1.415 . S
C2301 H2277 0.951 . S
C2301 C2302 1.366 . S
C2301 C2303 1.388 . S
C2302 C2301 1.366 . S
C2302 C2306 1.385 . S
C2303 H2278 0.951 . S
C2303 C2301 1.388 . S
C2303 C2304 1.366 . S
C2304 C2303 1.366 . S
C2304 C2305 1.414 . S
C2304 C2307 1.499 . S
C2305 H2279 0.950 . S
C2305 C2304 1.414 . S
C2305 C2306 1.374 . S
C2306 H2280 0.950 . S
C2306 C2302 1.385 . S
C2306 C2305 1.374 . S
C2307 C2304 1.499 . S
C2307 C2308 1.373 . S
C2307 C2309 1.389 . S
C2308 H2281 0.950 . S
C2308 C2294 1.377 . S
C2308 C2307 1.373 . S
C2309 C2293 1.377 . S
C2309 C2307 1.389 . S
C2309 C2310 1.524 . S
C2310 C2309 1.524 . S
C2310 C2311 1.397 . S
C2310 C2315 1.363 . S
C2311 H2282 0.950 . S
C2311 C2310 1.397 . S
C2311 C2312 1.334 . S
C2312 H2283 0.950 . S
C2312 C2311 1.334 . S
C2312 C2313 1.287 . S
C2313 C2312 1.287 . S
C2313 C2314 1.524 . S
C2313 H2316 0.999 . S
C2314 H2284 0.950 . S
C2314 C2313 1.524 . S
C2314 C2315 1.415 . S
C2315 H2285 0.950 . S
C2315 C2310 1.363 . S
C2315 C2314 1.415 . S
H2316 C2313 0.999 . S
H2317 C2298 0.913 . S
H2318 C2336 0.951 . S
H2319 C2338 0.951 . S
H2320 C2340 0.950 . S
H2321 C2341 0.950 . S
H2322 C2343 0.950 . S
H2323 C2346 0.950 . S
H2324 C2347 0.950 . S
H2325 C2349 0.950 . S
H2326 C2350 0.950 . S
H2327 C2351 0.951 . S
H2328 C2353 0.951 . S
H2329 C2355 0.950 . S
H2330 C2356 0.950 . S
H2331 C2358 0.950 . S
H2332 C2361 0.950 . S
H2333 C2362 0.950 . S
H2334 C2364 0.950 . S
H2335 C2365 0.950 . S
C2336 H2318 0.951 . S
C2336 C2337 1.366 . S
C2336 C2338 1.388 . S
C2337 C2336 1.366 . S
C2337 C2341 1.385 . S
C2338 H2319 0.951 . S
C2338 C2336 1.388 . S
C2338 C2339 1.366 . S
C2339 C2338 1.366 . S
C2339 C2340 1.414 . S
C2339 C2342 1.499 . S
C2340 H2320 0.950 . S
C2340 C2339 1.414 . S
C2340 C2341 1.374 . S
C2341 H2321 0.950 . S
C2341 C2337 1.385 . S
C2341 C2340 1.374 . S
C2342 C2339 1.499 . S
C2342 C2343 1.373 . S
C2342 C2344 1.389 . S
C2343 H2322 0.950 . S
C2343 C2342 1.373 . S
C2343 C2359 1.377 . S
C2344 C2342 1.389 . S
C2344 C2345 1.524 . S
C2344 C2358 1.377 . S
C2345 C2344 1.524 . S
C2345 C2346 1.397 . S
C2345 C2350 1.363 . S
C2346 H2323 0.950 . S
C2346 C2345 1.397 . S
C2346 C2347 1.334 . S
C2347 H2324 0.950 . S
C2347 C2346 1.334 . S
C2347 C2348 1.287 . S
C2348 C2347 1.287 . S
C2348 C2349 1.524 . S
C2348 H2367 0.913 . S
C2349 H2325 0.950 . S
C2349 C2348 1.524 . S
C2349 C2350 1.415 . S
C2350 H2326 0.950 . S
C2350 C2345 1.363 . S
C2350 C2349 1.415 . S
C2351 H2327 0.951 . S
C2351 C2352 1.366 . S
C2351 C2353 1.388 . S
C2352 C2351 1.366 . S
C2352 C2356 1.385 . S
C2353 H2328 0.951 . S
C2353 C2351 1.388 . S
C2353 C2354 1.366 . S
C2354 C2353 1.366 . S
C2354 C2355 1.414 . S
C2354 C2357 1.499 . S
C2355 H2329 0.950 . S
C2355 C2354 1.414 . S
C2355 C2356 1.374 . S
C2356 H2330 0.950 . S
C2356 C2352 1.385 . S
C2356 C2355 1.374 . S
C2357 C2354 1.499 . S
C2357 C2358 1.373 . S
C2357 C2359 1.389 . S
C2358 H2331 0.950 . S
C2358 C2344 1.377 . S
C2358 C2357 1.373 . S
C2359 C2343 1.377 . S
C2359 C2357 1.389 . S
C2359 C2360 1.524 1_655 S
C2360 C2359 1.524 1_455 S
C2360 C2361 1.397 . S
C2360 C2365 1.363 . S
C2361 H2332 0.950 . S
C2361 C2360 1.397 . S
C2361 C2362 1.334 . S
C2362 H2333 0.950 . S
C2362 C2361 1.334 . S
C2362 C2363 1.287 . S
C2363 C2362 1.287 . S
C2363 C2364 1.524 . S
C2363 H2366 0.999 . S
C2364 H2334 0.950 . S
C2364 C2363 1.524 . S
C2364 C2365 1.415 . S
C2365 H2335 0.950 . S
C2365 C2360 1.363 . S
C2365 C2364 1.415 . S
H2366 C2363 0.999 . S
H2367 C2348 0.913 . S
H2368 C2386 0.951 . S
H2369 C2388 0.951 . S
H2370 C2390 0.950 . S
H2371 C2391 0.950 . S
H2372 C2393 0.950 . S
H2373 C2396 0.950 . S
H2374 C2397 0.950 . S
H2375 C2399 0.950 . S
H2376 C2400 0.950 . S
H2377 C2401 0.951 . S
H2378 C2403 0.951 . S
H2379 C2405 0.950 . S
H2380 C2406 0.950 . S
H2381 C2408 0.950 . S
H2382 C2411 0.950 . S
H2383 C2412 0.950 . S
H2384 C2414 0.950 . S
H2385 C2415 0.950 . S
C2386 H2368 0.951 . S
C2386 C2387 1.366 . S
C2386 C2388 1.388 . S
C2387 C2386 1.366 . S
C2387 C2391 1.385 . S
C2388 H2369 0.951 . S
C2388 C2386 1.388 . S
C2388 C2389 1.366 . S
C2389 C2388 1.366 . S
C2389 C2390 1.414 . S
C2389 C2392 1.499 . S
C2390 H2370 0.950 . S
C2390 C2389 1.414 . S
C2390 C2391 1.374 . S
C2391 H2371 0.950 . S
C2391 C2387 1.385 . S
C2391 C2390 1.374 . S
C2392 C2389 1.499 . S
C2392 C2393 1.373 . S
C2392 C2394 1.389 . S
C2393 H2372 0.950 . S
C2393 C2392 1.373 . S
C2393 C2409 1.377 . S
C2394 C2392 1.389 . S
C2394 C2395 1.524 . S
C2394 C2408 1.377 . S
C2395 C2394 1.524 . S
C2395 C2396 1.397 . S
C2395 C2400 1.363 . S
C2396 H2373 0.950 . S
C2396 C2395 1.397 . S
C2396 C2397 1.334 . S
C2397 H2374 0.950 . S
C2397 C2396 1.334 . S
C2397 C2398 1.287 . S
C2398 C2397 1.287 . S
C2398 C2399 1.524 . S
C2398 H2417 0.913 . S
C2399 H2375 0.950 . S
C2399 C2398 1.524 . S
C2399 C2400 1.415 . S
C2400 H2376 0.950 . S
C2400 C2395 1.363 . S
C2400 C2399 1.415 . S
C2401 H2377 0.951 . S
C2401 C2402 1.366 . S
C2401 C2403 1.388 . S
C2402 C2401 1.366 . S
C2402 C2406 1.385 . S
C2403 H2378 0.951 . S
C2403 C2401 1.388 . S
C2403 C2404 1.366 . S
C2404 C2403 1.366 . S
C2404 C2405 1.414 . S
C2404 C2407 1.499 . S
C2405 H2379 0.950 . S
C2405 C2404 1.414 . S
C2405 C2406 1.374 . S
C2406 H2380 0.950 . S
C2406 C2402 1.385 . S
C2406 C2405 1.374 . S
C2407 C2404 1.499 . S
C2407 C2408 1.373 . S
C2407 C2409 1.389 . S
C2408 H2381 0.950 . S
C2408 C2394 1.377 . S
C2408 C2407 1.373 . S
C2409 C2393 1.377 . S
C2409 C2407 1.389 . S
C2409 C2410 1.524 . S
C2410 C2409 1.524 . S
C2410 C2411 1.397 . S
C2410 C2415 1.363 . S
C2411 H2382 0.950 . S
C2411 C2410 1.397 . S
C2411 C2412 1.334 . S
C2412 H2383 0.950 . S
C2412 C2411 1.334 . S
C2412 C2413 1.287 . S
C2413 C2412 1.287 . S
C2413 C2414 1.524 . S
C2413 H2416 0.999 . S
C2414 H2384 0.950 . S
C2414 C2413 1.524 . S
C2414 C2415 1.415 . S
C2415 H2385 0.950 . S
C2415 C2410 1.363 . S
C2415 C2414 1.415 . S
H2416 C2413 0.999 . S
H2417 C2398 0.913 . S
H2418 C2436 0.951 . S
H2419 C2438 0.951 . S
H2420 C2440 0.950 . S
H2421 C2441 0.950 . S
H2422 C2443 0.950 . S
H2423 C2446 0.950 . S
H2424 C2447 0.950 . S
H2425 C2449 0.950 . S
H2426 C2450 0.950 . S
H2427 C2451 0.951 . S
H2428 C2453 0.951 . S
H2429 C2455 0.950 . S
H2430 C2456 0.950 . S
H2431 C2458 0.950 . S
H2432 C2461 0.950 . S
H2433 C2462 0.950 . S
H2434 C2464 0.950 . S
H2435 C2465 0.950 . S
C2436 H2418 0.951 . S
C2436 C2437 1.366 . S
C2436 C2438 1.388 . S
C2437 C2436 1.366 . S
C2437 C2441 1.385 . S
C2438 H2419 0.951 . S
C2438 C2436 1.388 . S
C2438 C2439 1.366 . S
C2439 C2438 1.366 . S
C2439 C2440 1.414 . S
C2439 C2442 1.499 . S
C2440 H2420 0.950 . S
C2440 C2439 1.414 . S
C2440 C2441 1.374 . S
C2441 H2421 0.950 . S
C2441 C2437 1.385 . S
C2441 C2440 1.374 . S
C2442 C2439 1.499 . S
C2442 C2443 1.373 . S
C2442 C2444 1.389 . S
C2443 H2422 0.950 . S
C2443 C2442 1.373 . S
C2443 C2459 1.377 . S
C2444 C2442 1.389 . S
C2444 C2445 1.524 . S
C2444 C2458 1.377 . S
C2445 C2444 1.524 . S
C2445 C2446 1.397 . S
C2445 C2450 1.363 . S
C2446 H2423 0.950 . S
C2446 C2445 1.397 . S
C2446 C2447 1.334 . S
C2447 H2424 0.950 . S
C2447 C2446 1.334 . S
C2447 C2448 1.287 . S
C2448 C2447 1.287 . S
C2448 C2449 1.524 . S
C2448 H2467 0.913 . S
C2449 H2425 0.950 . S
C2449 C2448 1.524 . S
C2449 C2450 1.415 . S
C2450 H2426 0.950 . S
C2450 C2445 1.363 . S
C2450 C2449 1.415 . S
C2451 H2427 0.951 . S
C2451 C2452 1.366 . S
C2451 C2453 1.388 . S
C2452 C2451 1.366 . S
C2452 C2456 1.385 . S
C2453 H2428 0.951 . S
C2453 C2451 1.388 . S
C2453 C2454 1.366 . S
C2454 C2453 1.366 . S
C2454 C2455 1.414 . S
C2454 C2457 1.499 . S
C2455 H2429 0.950 . S
C2455 C2454 1.414 . S
C2455 C2456 1.374 . S
C2456 H2430 0.950 . S
C2456 C2452 1.385 . S
C2456 C2455 1.374 . S
C2457 C2454 1.499 . S
C2457 C2458 1.373 . S
C2457 C2459 1.389 . S
C2458 H2431 0.950 . S
C2458 C2444 1.377 . S
C2458 C2457 1.373 . S
C2459 C2443 1.377 . S
C2459 C2457 1.389 . S
C2459 C2460 1.524 . S
C2460 C2459 1.524 . S
C2460 C2461 1.397 . S
C2460 C2465 1.363 . S
C2461 H2432 0.950 . S
C2461 C2460 1.397 . S
C2461 C2462 1.334 . S
C2462 H2433 0.950 . S
C2462 C2461 1.334 . S
C2462 C2463 1.287 . S
C2463 C2462 1.287 . S
C2463 C2464 1.524 . S
C2463 H2466 0.999 . S
C2464 H2434 0.950 . S
C2464 C2463 1.524 . S
C2464 C2465 1.415 . S
C2465 H2435 0.950 . S
C2465 C2460 1.363 . S
C2465 C2464 1.415 . S
H2466 C2463 0.999 . S
H2467 C2448 0.913 . S
H2468 C2486 0.951 . S
H2469 C2488 0.951 . S
H2470 C2490 0.950 . S
H2471 C2491 0.950 . S
H2472 C2493 0.950 . S
H2473 C2496 0.950 . S
H2474 C2497 0.950 . S
H2475 C2499 0.950 . S
H2476 C2500 0.950 . S
H2477 C2501 0.951 . S
H2478 C2503 0.951 . S
H2479 C2505 0.950 . S
H2480 C2506 0.950 . S
H2481 C2508 0.950 . S
H2482 C2511 0.950 . S
H2483 C2512 0.950 . S
H2484 C2514 0.950 1_545 S
H2485 C2515 0.950 . S
C2486 H2468 0.951 . S
C2486 C2487 1.366 . S
C2486 C2488 1.388 . S
C2487 C2486 1.366 . S
C2487 C2491 1.385 1_565 S
C2488 H2469 0.951 . S
C2488 C2486 1.388 . S
C2488 C2489 1.366 . S
C2489 C2488 1.366 . S
C2489 C2490 1.414 . S
C2489 C2492 1.499 . S
C2490 H2470 0.950 . S
C2490 C2489 1.414 . S
C2490 C2491 1.374 1_565 S
C2491 H2471 0.950 . S
C2491 C2487 1.385 1_545 S
C2491 C2490 1.374 1_545 S
C2492 C2489 1.499 . S
C2492 C2493 1.373 . S
C2492 C2494 1.389 . S
C2493 H2472 0.950 . S
C2493 C2492 1.373 . S
C2493 C2509 1.377 . S
C2494 C2492 1.389 . S
C2494 C2495 1.524 . S
C2494 C2508 1.377 . S
C2495 C2494 1.524 . S
C2495 C2496 1.397 . S
C2495 C2500 1.363 . S
C2496 H2473 0.950 . S
C2496 C2495 1.397 . S
C2496 C2497 1.334 . S
C2497 H2474 0.950 . S
C2497 C2496 1.334 . S
C2497 C2498 1.287 . S
C2498 C2497 1.287 . S
C2498 C2499 1.524 . S
C2498 H2517 0.913 . S
C2499 H2475 0.950 . S
C2499 C2498 1.524 . S
C2499 C2500 1.415 . S
C2500 H2476 0.950 . S
C2500 C2495 1.363 . S
C2500 C2499 1.415 . S
C2501 H2477 0.951 . S
C2501 C2502 1.366 . S
C2501 C2503 1.388 . S
C2502 C2501 1.366 . S
C2502 C2506 1.385 . S
C2503 H2478 0.951 . S
C2503 C2501 1.388 . S
C2503 C2504 1.366 . S
C2504 C2503 1.366 . S
C2504 C2505 1.414 . S
C2504 C2507 1.499 . S
C2505 H2479 0.950 . S
C2505 C2504 1.414 . S
C2505 C2506 1.374 . S
C2506 H2480 0.950 . S
C2506 C2502 1.385 . S
C2506 C2505 1.374 . S
C2507 C2504 1.499 . S
C2507 C2508 1.373 . S
C2507 C2509 1.389 . S
C2508 H2481 0.950 . S
C2508 C2494 1.377 . S
C2508 C2507 1.373 . S
C2509 C2493 1.377 . S
C2509 C2507 1.389 . S
C2509 C2510 1.524 1_556 S
C2510 C2509 1.524 1_554 S
C2510 C2511 1.397 . S
C2510 C2515 1.363 1_554 S
C2511 H2482 0.950 . S
C2511 C2510 1.397 . S
C2511 C2512 1.334 . S
C2512 H2483 0.950 . S
C2512 C2511 1.334 . S
C2512 C2513 1.287 . S
C2513 C2512 1.287 . S
C2513 C2514 1.524 . S
C2513 H2516 0.999 . S
C2514 H2484 0.950 1_565 S
C2514 C2513 1.524 . S
C2514 C2515 1.415 1_554 S
C2515 H2485 0.950 . S
C2515 C2510 1.363 1_556 S
C2515 C2514 1.415 1_556 S
H2516 C2513 0.999 . S
H2517 C2498 0.913 . S
H2518 C2536 0.951 . S
H2519 C2538 0.951 . S
H2520 C2540 0.950 . S
H2521 C2541 0.950 . S
H2522 C2543 0.950 . S
H2523 C2546 0.950 . S
H2524 C2547 0.950 . S
H2525 C2549 0.950 . S
H2526 C2550 0.950 . S
H2527 C2551 0.951 . S
H2528 C2553 0.951 . S
H2529 C2555 0.950 . S
H2530 C2556 0.950 . S
H2531 C2558 0.950 . S
H2532 C2561 0.950 . S
H2533 C2562 0.950 . S
H2534 C2564 0.950 . S
H2535 C2565 0.950 . S
C2536 H2518 0.951 . S
C2536 C2537 1.366 . S
C2536 C2538 1.388 . S
C2537 C2536 1.366 . S
C2537 C2541 1.385 . S
C2538 H2519 0.951 . S
C2538 C2536 1.388 . S
C2538 C2539 1.366 . S
C2539 C2538 1.366 . S
C2539 C2540 1.414 . S
C2539 C2542 1.499 . S
C2540 H2520 0.950 . S
C2540 C2539 1.414 . S
C2540 C2541 1.374 . S
C2541 H2521 0.950 . S
C2541 C2537 1.385 . S
C2541 C2540 1.374 . S
C2542 C2539 1.499 . S
C2542 C2543 1.373 . S
C2542 C2544 1.389 . S
C2543 H2522 0.950 . S
C2543 C2542 1.373 . S
C2543 C2559 1.377 . S
C2544 C2542 1.389 . S
C2544 C2545 1.524 . S
C2544 C2558 1.377 . S
C2545 C2544 1.524 . S
C2545 C2546 1.397 . S
C2545 C2550 1.363 . S
C2546 H2523 0.950 . S
C2546 C2545 1.397 . S
C2546 C2547 1.334 . S
C2547 H2524 0.950 . S
C2547 C2546 1.334 . S
C2547 C2548 1.287 . S
C2548 C2547 1.287 . S
C2548 C2549 1.524 . S
C2548 H2567 0.913 . S
C2549 H2525 0.950 . S
C2549 C2548 1.524 . S
C2549 C2550 1.415 . S
C2550 H2526 0.950 . S
C2550 C2545 1.363 . S
C2550 C2549 1.415 . S
C2551 H2527 0.951 . S
C2551 C2552 1.366 . S
C2551 C2553 1.388 . S
C2552 C2551 1.366 . S
C2552 C2556 1.385 . S
C2553 H2528 0.951 . S
C2553 C2551 1.388 . S
C2553 C2554 1.366 . S
C2554 C2553 1.366 . S
C2554 C2555 1.414 . S
C2554 C2557 1.499 . S
C2555 H2529 0.950 . S
C2555 C2554 1.414 . S
C2555 C2556 1.374 . S
C2556 H2530 0.950 . S
C2556 C2552 1.385 . S
C2556 C2555 1.374 . S
C2557 C2554 1.499 . S
C2557 C2558 1.373 . S
C2557 C2559 1.389 . S
C2558 H2531 0.950 . S
C2558 C2544 1.377 . S
C2558 C2557 1.373 . S
C2559 C2543 1.377 . S
C2559 C2557 1.389 . S
C2559 C2560 1.524 . S
C2560 C2559 1.524 . S
C2560 C2561 1.397 . S
C2560 C2565 1.363 . S
C2561 H2532 0.950 . S
C2561 C2560 1.397 . S
C2561 C2562 1.334 . S
C2562 H2533 0.950 . S
C2562 C2561 1.334 . S
C2562 C2563 1.287 . S
C2563 C2562 1.287 . S
C2563 C2564 1.524 . S
C2563 H2566 0.999 . S
C2564 H2534 0.950 . S
C2564 C2563 1.524 . S
C2564 C2565 1.415 . S
C2565 H2535 0.950 . S
C2565 C2560 1.363 . S
C2565 C2564 1.415 . S
H2566 C2563 0.999 . S
H2567 C2548 0.913 . S
H2568 C2586 0.951 1_565 S
H2569 C2588 0.951 . S
H2570 C2590 0.950 . S
H2571 C2591 0.950 . S
H2572 C2593 0.950 . S
H2573 C2596 0.950 . S
H2574 C2597 0.950 . S
H2575 C2599 0.950 . S
H2576 C2600 0.950 . S
H2577 C2601 0.951 . S
H2578 C2603 0.951 . S
H2579 C2605 0.950 . S
H2580 C2606 0.950 . S
H2581 C2608 0.950 . S
H2582 C2611 0.950 . S
H2583 C2612 0.950 . S
H2584 C2614 0.950 . S
H2585 C2615 0.950 . S
C2586 H2568 0.951 1_545 S
C2586 C2587 1.366 . S
C2586 C2588 1.388 . S
C2587 C2586 1.366 . S
C2587 C2591 1.385 . S
C2588 H2569 0.951 . S
C2588 C2586 1.388 . S
C2588 C2589 1.366 . S
C2589 C2588 1.366 . S
C2589 C2590 1.414 . S
C2589 C2592 1.499 . S
C2590 H2570 0.950 . S
C2590 C2589 1.414 . S
C2590 C2591 1.374 . S
C2591 H2571 0.950 . S
C2591 C2587 1.385 . S
C2591 C2590 1.374 . S
C2592 C2589 1.499 . S
C2592 C2593 1.373 . S
C2592 C2594 1.389 . S
C2593 H2572 0.950 . S
C2593 C2592 1.373 . S
C2593 C2609 1.377 . S
C2594 C2592 1.389 . S
C2594 C2595 1.524 . S
C2594 C2608 1.377 . S
C2595 C2594 1.524 . S
C2595 C2596 1.397 . S
C2595 C2600 1.363 . S
C2596 H2573 0.950 . S
C2596 C2595 1.397 . S
C2596 C2597 1.334 . S
C2597 H2574 0.950 . S
C2597 C2596 1.334 . S
C2597 C2598 1.287 . S
C2598 C2597 1.287 . S
C2598 C2599 1.524 . S
C2598 H2617 0.913 . S
C2599 H2575 0.950 . S
C2599 C2598 1.524 . S
C2599 C2600 1.415 . S
C2600 H2576 0.950 . S
C2600 C2595 1.363 . S
C2600 C2599 1.415 . S
C2601 H2577 0.951 . S
C2601 C2602 1.366 . S
C2601 C2603 1.388 . S
C2602 C2601 1.366 . S
C2602 C2606 1.385 . S
C2603 H2578 0.951 . S
C2603 C2601 1.388 . S
C2603 C2604 1.366 . S
C2604 C2603 1.366 . S
C2604 C2605 1.414 . S
C2604 C2607 1.499 . S
C2605 H2579 0.950 . S
C2605 C2604 1.414 . S
C2605 C2606 1.374 . S
C2606 H2580 0.950 . S
C2606 C2602 1.385 . S
C2606 C2605 1.374 . S
C2607 C2604 1.499 . S
C2607 C2608 1.373 . S
C2607 C2609 1.389 . S
C2608 H2581 0.950 . S
C2608 C2594 1.377 . S
C2608 C2607 1.373 . S
C2609 C2593 1.377 . S
C2609 C2607 1.389 . S
C2609 C2610 1.524 . S
C2610 C2609 1.524 . S
C2610 C2611 1.397 . S
C2610 C2615 1.363 . S
C2611 H2582 0.950 . S
C2611 C2610 1.397 . S
C2611 C2612 1.334 . S
C2612 H2583 0.950 . S
C2612 C2611 1.334 . S
C2612 C2613 1.287 . S
C2613 C2612 1.287 . S
C2613 C2614 1.524 . S
C2613 H2616 0.999 . S
C2614 H2584 0.950 . S
C2614 C2613 1.524 . S
C2614 C2615 1.415 . S
C2615 H2585 0.950 . S
C2615 C2610 1.363 . S
C2615 C2614 1.415 . S
H2616 C2613 0.999 . S
H2617 C2598 0.913 . S
H2618 C2636 0.951 . S
H2619 C2638 0.951 . S
H2620 C2640 0.950 . S
H2621 C2641 0.950 . S
H2622 C2643 0.950 . S
H2623 C2646 0.950 . S
H2624 C2647 0.950 . S
H2625 C2649 0.950 . S
H2626 C2650 0.950 . S
H2627 C2651 0.951 . S
H2628 C2653 0.951 . S
H2629 C2655 0.950 . S
H2630 C2656 0.950 . S
H2631 C2658 0.950 . S
H2632 C2661 0.950 . S
H2633 C2662 0.950 . S
H2634 C2664 0.950 . S
H2635 C2665 0.950 . S
C2636 H2618 0.951 . S
C2636 C2637 1.366 . S
C2636 C2638 1.388 . S
C2637 C2636 1.366 . S
C2637 C2641 1.385 . S
C2638 H2619 0.951 . S
C2638 C2636 1.388 . S
C2638 C2639 1.366 . S
C2639 C2638 1.366 . S
C2639 C2640 1.414 . S
C2639 C2642 1.499 . S
C2640 H2620 0.950 . S
C2640 C2639 1.414 . S
C2640 C2641 1.374 . S
C2641 H2621 0.950 . S
C2641 C2637 1.385 . S
C2641 C2640 1.374 . S
C2642 C2639 1.499 . S
C2642 C2643 1.373 . S
C2642 C2644 1.389 . S
C2643 H2622 0.950 . S
C2643 C2642 1.373 . S
C2643 C2659 1.377 . S
C2644 C2642 1.389 . S
C2644 C2645 1.524 . S
C2644 C2658 1.377 . S
C2645 C2644 1.524 . S
C2645 C2646 1.397 . S
C2645 C2650 1.363 . S
C2646 H2623 0.950 . S
C2646 C2645 1.397 . S
C2646 C2647 1.334 . S
C2647 H2624 0.950 . S
C2647 C2646 1.334 . S
C2647 C2648 1.287 . S
C2648 C2647 1.287 . S
C2648 C2649 1.524 . S
C2648 H2667 0.913 . S
C2649 H2625 0.950 . S
C2649 C2648 1.524 . S
C2649 C2650 1.415 . S
C2650 H2626 0.950 . S
C2650 C2645 1.363 . S
C2650 C2649 1.415 . S
C2651 H2627 0.951 . S
C2651 C2652 1.366 . S
C2651 C2653 1.388 . S
C2652 C2651 1.366 . S
C2652 C2656 1.385 . S
C2653 H2628 0.951 . S
C2653 C2651 1.388 . S
C2653 C2654 1.366 . S
C2654 C2653 1.366 . S
C2654 C2655 1.414 . S
C2654 C2657 1.499 . S
C2655 H2629 0.950 . S
C2655 C2654 1.414 . S
C2655 C2656 1.374 . S
C2656 H2630 0.950 . S
C2656 C2652 1.385 . S
C2656 C2655 1.374 . S
C2657 C2654 1.499 . S
C2657 C2658 1.373 . S
C2657 C2659 1.389 . S
C2658 H2631 0.950 . S
C2658 C2644 1.377 . S
C2658 C2657 1.373 . S
C2659 C2643 1.377 . S
C2659 C2657 1.389 . S
C2659 C2660 1.524 . S
C2660 C2659 1.524 . S
C2660 C2661 1.397 . S
C2660 C2665 1.363 . S
C2661 H2632 0.950 . S
C2661 C2660 1.397 . S
C2661 C2662 1.334 . S
C2662 H2633 0.950 . S
C2662 C2661 1.334 . S
C2662 C2663 1.287 . S
C2663 C2662 1.287 . S
C2663 C2664 1.524 . S
C2663 H2666 0.999 . S
C2664 H2634 0.950 . S
C2664 C2663 1.524 . S
C2664 C2665 1.415 . S
C2665 H2635 0.950 . S
C2665 C2660 1.363 . S
C2665 C2664 1.415 . S
H2666 C2663 0.999 . S
H2667 C2648 0.913 . S
H2668 C2686 0.951 1_565 S
H2669 C2688 0.951 . S
H2670 C2690 0.950 . S
H2671 C2691 0.950 . S
H2672 C2693 0.950 . S
H2673 C2696 0.950 . S
H2674 C2697 0.950 . S
H2675 C2699 0.950 . S
H2676 C2700 0.950 . S
H2677 C2701 0.951 . S
H2678 C2703 0.951 . S
H2679 C2705 0.950 . S
H2680 C2706 0.950 . S
H2681 C2708 0.950 . S
H2682 C2711 0.950 . S
H2683 C2712 0.950 . S
H2684 C2714 0.950 . S
H2685 C2715 0.950 . S
C2686 H2668 0.951 1_545 S
C2686 C2687 1.366 . S
C2686 C2688 1.388 . S
C2687 C2686 1.366 . S
C2687 C2691 1.385 . S
C2688 H2669 0.951 . S
C2688 C2686 1.388 . S
C2688 C2689 1.366 . S
C2689 C2688 1.366 . S
C2689 C2690 1.414 . S
C2689 C2692 1.499 . S
C2690 H2670 0.950 . S
C2690 C2689 1.414 . S
C2690 C2691 1.374 . S
C2691 H2671 0.950 . S
C2691 C2687 1.385 . S
C2691 C2690 1.374 . S
C2692 C2689 1.499 . S
C2692 C2693 1.373 . S
C2692 C2694 1.389 . S
C2693 H2672 0.950 . S
C2693 C2692 1.373 . S
C2693 C2709 1.377 . S
C2694 C2692 1.389 . S
C2694 C2695 1.524 . S
C2694 C2708 1.377 . S
C2695 C2694 1.524 . S
C2695 C2696 1.397 . S
C2695 C2700 1.363 . S
C2696 H2673 0.950 . S
C2696 C2695 1.397 . S
C2696 C2697 1.334 . S
C2697 H2674 0.950 . S
C2697 C2696 1.334 . S
C2697 C2698 1.287 . S
C2698 C2697 1.287 . S
C2698 C2699 1.524 . S
C2698 H2717 0.913 . S
C2699 H2675 0.950 . S
C2699 C2698 1.524 . S
C2699 C2700 1.415 . S
C2700 H2676 0.950 . S
C2700 C2695 1.363 . S
C2700 C2699 1.415 . S
C2701 H2677 0.951 . S
C2701 C2702 1.366 . S
C2701 C2703 1.388 . S
C2702 C2701 1.366 . S
C2702 C2706 1.385 . S
C2703 H2678 0.951 . S
C2703 C2701 1.388 . S
C2703 C2704 1.366 . S
C2704 C2703 1.366 . S
C2704 C2705 1.414 . S
C2704 C2707 1.499 . S
C2705 H2679 0.950 . S
C2705 C2704 1.414 . S
C2705 C2706 1.374 . S
C2706 H2680 0.950 . S
C2706 C2702 1.385 . S
C2706 C2705 1.374 . S
C2707 C2704 1.499 . S
C2707 C2708 1.373 . S
C2707 C2709 1.389 . S
C2708 H2681 0.950 . S
C2708 C2694 1.377 . S
C2708 C2707 1.373 . S
C2709 C2693 1.377 . S
C2709 C2707 1.389 . S
C2709 C2710 1.524 . S
C2710 C2709 1.524 . S
C2710 C2711 1.397 . S
C2710 C2715 1.363 . S
C2711 H2682 0.950 . S
C2711 C2710 1.397 . S
C2711 C2712 1.334 . S
C2712 H2683 0.950 . S
C2712 C2711 1.334 . S
C2712 C2713 1.287 . S
C2713 C2712 1.287 . S
C2713 C2714 1.524 . S
C2713 H2716 0.999 . S
C2714 H2684 0.950 . S
C2714 C2713 1.524 . S
C2714 C2715 1.415 . S
C2715 H2685 0.950 . S
C2715 C2710 1.363 . S
C2715 C2714 1.415 . S
H2716 C2713 0.999 . S
H2717 C2698 0.913 . S
H2718 C2736 0.951 . S
H2719 C2738 0.951 . S
H2720 C2740 0.950 . S
H2721 C2741 0.950 . S
H2722 C2743 0.950 . S
H2723 C2746 0.950 . S
H2724 C2747 0.950 . S
H2725 C2749 0.950 . S
H2726 C2750 0.950 . S
H2727 C2751 0.951 . S
H2728 C2753 0.951 . S
H2729 C2755 0.950 . S
H2730 C2756 0.950 . S
H2731 C2758 0.950 . S
H2732 C2761 0.950 . S
H2733 C2762 0.950 . S
H2734 C2764 0.950 . S
H2735 C2765 0.950 . S
C2736 H2718 0.951 . S
C2736 C2737 1.366 . S
C2736 C2738 1.388 . S
C2737 C2736 1.366 . S
C2737 C2741 1.385 . S
C2738 H2719 0.951 . S
C2738 C2736 1.388 . S
C2738 C2739 1.366 . S
C2739 C2738 1.366 . S
C2739 C2740 1.414 . S
C2739 C2742 1.499 . S
C2740 H2720 0.950 . S
C2740 C2739 1.414 . S
C2740 C2741 1.374 . S
C2741 H2721 0.950 . S
C2741 C2737 1.385 . S
C2741 C2740 1.374 . S
C2742 C2739 1.499 . S
C2742 C2743 1.373 . S
C2742 C2744 1.389 . S
C2743 H2722 0.950 . S
C2743 C2742 1.373 . S
C2743 C2759 1.377 . S
C2744 C2742 1.389 . S
C2744 C2745 1.524 . S
C2744 C2758 1.377 . S
C2745 C2744 1.524 . S
C2745 C2746 1.397 . S
C2745 C2750 1.363 . S
C2746 H2723 0.950 . S
C2746 C2745 1.397 . S
C2746 C2747 1.334 . S
C2747 H2724 0.950 . S
C2747 C2746 1.334 . S
C2747 C2748 1.287 . S
C2748 C2747 1.287 . S
C2748 C2749 1.524 . S
C2748 H2767 0.913 . S
C2749 H2725 0.950 . S
C2749 C2748 1.524 . S
C2749 C2750 1.415 . S
C2750 H2726 0.950 . S
C2750 C2745 1.363 . S
C2750 C2749 1.415 . S
C2751 H2727 0.951 . S
C2751 C2752 1.366 . S
C2751 C2753 1.388 . S
C2752 C2751 1.366 . S
C2752 C2756 1.385 . S
C2753 H2728 0.951 . S
C2753 C2751 1.388 . S
C2753 C2754 1.366 . S
C2754 C2753 1.366 . S
C2754 C2755 1.414 . S
C2754 C2757 1.499 . S
C2755 H2729 0.950 . S
C2755 C2754 1.414 . S
C2755 C2756 1.374 . S
C2756 H2730 0.950 . S
C2756 C2752 1.385 . S
C2756 C2755 1.374 . S
C2757 C2754 1.499 . S
C2757 C2758 1.373 . S
C2757 C2759 1.389 . S
C2758 H2731 0.950 . S
C2758 C2744 1.377 . S
C2758 C2757 1.373 . S
C2759 C2743 1.377 . S
C2759 C2757 1.389 . S
C2759 C2760 1.524 . S
C2760 C2759 1.524 . S
C2760 C2761 1.397 . S
C2760 C2765 1.363 . S
C2761 H2732 0.950 . S
C2761 C2760 1.397 . S
C2761 C2762 1.334 . S
C2762 H2733 0.950 . S
C2762 C2761 1.334 . S
C2762 C2763 1.287 . S
C2763 C2762 1.287 . S
C2763 C2764 1.524 . S
C2763 H2766 0.999 . S
C2764 H2734 0.950 . S
C2764 C2763 1.524 . S
C2764 C2765 1.415 . S
C2765 H2735 0.950 . S
C2765 C2760 1.363 . S
C2765 C2764 1.415 . S
H2766 C2763 0.999 . S
H2767 C2748 0.913 . S
H2768 C2786 0.951 . S
H2769 C2788 0.951 . S
H2770 C2790 0.950 . S
H2771 C2791 0.950 . S
H2772 C2793 0.950 . S
H2773 C2796 0.950 . S
H2774 C2797 0.950 . S
H2775 C2799 0.950 . S
H2776 C2800 0.950 . S
H2777 C2801 0.951 . S
H2778 C2803 0.951 . S
H2779 C2805 0.950 . S
H2780 C2806 0.950 . S
H2781 C2808 0.950 . S
H2782 C2811 0.950 . S
H2783 C2812 0.950 . S
H2784 C2814 0.950 . S
H2785 C2815 0.950 . S
C2786 H2768 0.951 . S
C2786 C2787 1.366 . S
C2786 C2788 1.388 . S
C2787 C2786 1.366 . S
C2787 C2791 1.385 . S
C2788 H2769 0.951 . S
C2788 C2786 1.388 . S
C2788 C2789 1.366 . S
C2789 C2788 1.366 . S
C2789 C2790 1.414 . S
C2789 C2792 1.499 . S
C2790 H2770 0.950 . S
C2790 C2789 1.414 . S
C2790 C2791 1.374 . S
C2791 H2771 0.950 . S
C2791 C2787 1.385 . S
C2791 C2790 1.374 . S
C2792 C2789 1.499 . S
C2792 C2793 1.373 . S
C2792 C2794 1.389 . S
C2793 H2772 0.950 . S
C2793 C2792 1.373 . S
C2793 C2809 1.377 . S
C2794 C2792 1.389 . S
C2794 C2795 1.524 . S
C2794 C2808 1.377 . S
C2795 C2794 1.524 . S
C2795 C2796 1.397 . S
C2795 C2800 1.363 . S
C2796 H2773 0.950 . S
C2796 C2795 1.397 . S
C2796 C2797 1.334 . S
C2797 H2774 0.950 . S
C2797 C2796 1.334 . S
C2797 C2798 1.287 . S
C2798 C2797 1.287 . S
C2798 C2799 1.524 . S
C2798 H2817 0.913 . S
C2799 H2775 0.950 . S
C2799 C2798 1.524 . S
C2799 C2800 1.415 . S
C2800 H2776 0.950 . S
C2800 C2795 1.363 . S
C2800 C2799 1.415 . S
C2801 H2777 0.951 . S
C2801 C2802 1.366 . S
C2801 C2803 1.388 . S
C2802 C2801 1.366 . S
C2802 C2806 1.385 . S
C2803 H2778 0.951 . S
C2803 C2801 1.388 . S
C2803 C2804 1.366 . S
C2804 C2803 1.366 . S
C2804 C2805 1.414 . S
C2804 C2807 1.499 . S
C2805 H2779 0.950 . S
C2805 C2804 1.414 . S
C2805 C2806 1.374 . S
C2806 H2780 0.950 . S
C2806 C2802 1.385 . S
C2806 C2805 1.374 . S
C2807 C2804 1.499 . S
C2807 C2808 1.373 . S
C2807 C2809 1.389 . S
C2808 H2781 0.950 . S
C2808 C2794 1.377 . S
C2808 C2807 1.373 . S
C2809 C2793 1.377 . S
C2809 C2807 1.389 . S
C2809 C2810 1.524 . S
C2810 C2809 1.524 . S
C2810 C2811 1.397 . S
C2810 C2815 1.363 . S
C2811 H2782 0.950 . S
C2811 C2810 1.397 . S
C2811 C2812 1.334 . S
C2812 H2783 0.950 . S
C2812 C2811 1.334 . S
C2812 C2813 1.287 . S
C2813 C2812 1.287 . S
C2813 C2814 1.524 . S
C2813 H2816 0.999 . S
C2814 H2784 0.950 . S
C2814 C2813 1.524 . S
C2814 C2815 1.415 . S
C2815 H2785 0.950 . S
C2815 C2810 1.363 . S
C2815 C2814 1.415 . S
H2816 C2813 0.999 . S
H2817 C2798 0.913 . S
H2818 C2836 0.951 . S
H2819 C2838 0.951 . S
H2820 C2840 0.950 . S
H2821 C2841 0.950 . S
H2822 C2843 0.950 . S
H2823 C2846 0.950 . S
H2824 C2847 0.950 . S
H2825 C2849 0.950 1_565 S
H2826 C2850 0.950 1_565 S
H2827 C2851 0.951 . S
H2828 C2853 0.951 . S
H2829 C2855 0.950 1_565 S
H2830 C2856 0.904 1_565 S
H2831 C2858 0.950 . S
H2832 C2861 0.955 . S
H2833 C2862 0.951 . S
H2834 C2864 0.950 . S
H2835 C2865 0.950 . S
C2836 H2818 0.951 . S
C2836 C2837 1.366 . S
C2836 C2838 1.388 . S
C2837 C2836 1.366 . S
C2837 C2841 1.385 . S
C2838 H2819 0.951 . S
C2838 C2836 1.388 . S
C2838 C2839 1.366 . S
C2839 C2838 1.366 . S
C2839 C2840 1.414 . S
C2839 C2842 1.499 . S
C2840 H2820 0.950 . S
C2840 C2839 1.414 . S
C2840 C2841 1.374 . S
C2841 H2821 0.950 . S
C2841 C2837 1.385 . S
C2841 C2840 1.374 . S
C2842 C2839 1.499 . S
C2842 C2843 1.373 . S
C2842 C2844 1.389 . S
C2843 H2822 0.950 . S
C2843 C2842 1.373 . S
C2843 C2859 1.377 . S
C2844 C2842 1.389 . S
C2844 C2845 1.524 . S
C2844 C2858 1.377 . S
C2845 C2844 1.524 . S
C2845 C2846 1.397 . S
C2845 C2850 1.363 . S
C2846 H2823 0.950 . S
C2846 C2845 1.397 . S
C2846 C2847 1.334 . S
C2847 H2824 0.950 . S
C2847 C2846 1.334 . S
C2847 C2848 1.287 . S
C2848 C2847 1.287 . S
C2848 C2849 1.524 . S
C2848 H2867 0.913 . S
C2849 H2825 0.950 1_545 S
C2849 C2848 1.524 . S
C2849 C2850 1.415 . S
C2850 H2826 0.950 1_545 S
C2850 C2845 1.363 . S
C2850 C2849 1.415 . S
C2851 H2827 0.951 . S
C2851 C2852 1.366 . S
C2851 C2853 1.388 . S
C2852 C2851 1.366 . S
C2852 C2856 1.426 . S
C2853 H2828 0.951 . S
C2853 C2851 1.388 . S
C2853 C2854 1.366 . S
C2854 C2853 1.366 . S
C2854 C2855 1.414 . S
C2854 C2857 1.499 . S
C2855 H2829 0.950 1_545 S
C2855 C2854 1.414 . S
C2855 C2856 1.381 . S
C2856 H2830 0.904 1_545 S
C2856 C2852 1.426 . S
C2856 C2855 1.381 . S
C2857 C2854 1.499 . S
C2857 C2858 1.373 . S
C2857 C2859 1.389 . S
C2858 H2831 0.950 . S
C2858 C2844 1.377 . S
C2858 C2857 1.373 . S
C2859 C2843 1.377 . S
C2859 C2857 1.389 . S
C2859 C2860 1.524 . S
C2860 C2859 1.524 . S
C2860 C2861 1.397 . S
C2860 C2865 1.363 . S
C2861 H2832 0.955 . S
C2861 C2860 1.397 . S
C2861 C2862 1.334 . S
C2862 H2833 0.951 . S
C2862 C2861 1.334 . S
C2862 C2863 1.287 . S
C2863 C2862 1.287 . S
C2863 C2864 1.524 . S
C2863 H2866 0.999 . S
C2864 H2834 0.950 . S
C2864 C2863 1.524 . S
C2864 C2865 1.415 . S
C2865 H2835 0.950 . S
C2865 C2860 1.363 . S
C2865 C2864 1.415 . S
H2866 C2863 0.999 . S
H2867 C2848 0.913 . S
H2868 C2886 0.951 . S
H2869 C2888 0.951 . S
H2870 C2890 0.950 . S
H2871 C2891 0.950 . S
H2872 C2893 0.950 . S
H2873 C2896 0.950 . S
H2874 C2897 0.950 . S
H2875 C2899 0.950 . S
H2876 C2900 0.950 . S
H2877 C2901 0.951 . S
H2878 C2903 0.951 . S
H2879 C2905 0.950 . S
H2880 C2906 0.950 . S
H2881 C2908 0.950 . S
H2882 C2911 0.950 . S
H2883 C2912 0.950 . S
H2884 C2914 0.950 . S
H2885 C2915 0.950 . S
C2886 H2868 0.951 . S
C2886 C2887 1.366 . S
C2886 C2888 1.388 . S
C2887 C2886 1.366 . S
C2887 C2891 1.385 . S
C2888 H2869 0.951 . S
C2888 C2886 1.388 . S
C2888 C2889 1.366 . S
C2889 C2888 1.366 . S
C2889 C2890 1.414 . S
C2889 C2892 1.499 . S
C2890 H2870 0.950 . S
C2890 C2889 1.414 . S
C2890 C2891 1.374 . S
C2891 H2871 0.950 . S
C2891 C2887 1.385 . S
C2891 C2890 1.374 . S
C2892 C2889 1.499 . S
C2892 C2893 1.373 . S
C2892 C2894 1.389 . S
C2893 H2872 0.950 . S
C2893 C2892 1.373 . S
C2893 C2909 1.377 . S
C2894 C2892 1.389 . S
C2894 C2895 1.524 . S
C2894 C2908 1.377 . S
C2895 C2894 1.524 . S
C2895 C2896 1.397 . S
C2895 C2900 1.363 . S
C2896 H2873 0.950 . S
C2896 C2895 1.397 . S
C2896 C2897 1.334 . S
C2897 H2874 0.950 . S
C2897 C2896 1.334 . S
C2897 C2898 1.287 . S
C2898 C2897 1.287 . S
C2898 C2899 1.524 . S
C2898 H2917 0.913 . S
C2899 H2875 0.950 . S
C2899 C2898 1.524 . S
C2899 C2900 1.415 . S
C2900 H2876 0.950 . S
C2900 C2895 1.363 . S
C2900 C2899 1.415 . S
C2901 H2877 0.951 . S
C2901 C2902 1.366 . S
C2901 C2903 1.388 . S
C2902 C2901 1.366 . S
C2902 C2906 1.385 . S
C2903 H2878 0.951 . S
C2903 C2901 1.388 . S
C2903 C2904 1.366 . S
C2904 C2903 1.366 . S
C2904 C2905 1.414 . S
C2904 C2907 1.499 . S
C2905 H2879 0.950 . S
C2905 C2904 1.414 . S
C2905 C2906 1.374 . S
C2906 H2880 0.950 . S
C2906 C2902 1.385 . S
C2906 C2905 1.374 . S
C2907 C2904 1.499 . S
C2907 C2908 1.373 . S
C2907 C2909 1.389 . S
C2908 H2881 0.950 . S
C2908 C2894 1.377 . S
C2908 C2907 1.373 . S
C2909 C2893 1.377 . S
C2909 C2907 1.389 . S
C2909 C2910 1.524 . S
C2910 C2909 1.524 . S
C2910 C2911 1.397 . S
C2910 C2915 1.363 . S
C2911 H2882 0.950 . S
C2911 C2910 1.397 . S
C2911 C2912 1.334 . S
C2912 H2883 0.950 . S
C2912 C2911 1.334 . S
C2912 C2913 1.287 . S
C2913 C2912 1.287 . S
C2913 C2914 1.524 . S
C2913 H2916 0.999 . S
C2914 H2884 0.950 . S
C2914 C2913 1.524 . S
C2914 C2915 1.415 . S
C2915 H2885 0.950 . S
C2915 C2910 1.363 . S
C2915 C2914 1.415 . S
H2916 C2913 0.999 . S
H2917 C2898 0.913 . S
H2918 C2936 0.951 . S
H2919 C2938 0.951 . S
H2920 C2940 0.950 . S
H2921 C2941 0.950 . S
H2922 C2943 0.950 . S
H2923 C2946 0.950 . S
H2924 C2947 0.950 . S
H2925 C2949 0.950 . S
H2926 C2950 0.950 . S
H2927 C2951 0.951 . S
H2928 C2953 0.951 . S
H2929 C2955 0.950 . S
H2930 C2956 0.950 . S
H2931 C2958 0.950 . S
H2932 C2961 0.950 . S
H2933 C2962 0.950 . S
H2934 C2964 0.950 . S
H2935 C2965 0.950 . S
C2936 H2918 0.951 . S
C2936 C2937 1.366 . S
C2936 C2938 1.388 . S
C2937 C2936 1.366 . S
C2937 C2941 1.385 . S
C2938 H2919 0.951 . S
C2938 C2936 1.388 . S
C2938 C2939 1.366 . S
C2939 C2938 1.366 . S
C2939 C2940 1.414 . S
C2939 C2942 1.499 . S
C2940 H2920 0.950 . S
C2940 C2939 1.414 . S
C2940 C2941 1.374 . S
C2941 H2921 0.950 . S
C2941 C2937 1.385 . S
C2941 C2940 1.374 . S
C2942 C2939 1.499 . S
C2942 C2943 1.373 . S
C2942 C2944 1.389 . S
C2943 H2922 0.950 . S
C2943 C2942 1.373 . S
C2943 C2959 1.377 . S
C2944 C2942 1.389 . S
C2944 C2945 1.524 . S
C2944 C2958 1.377 . S
C2945 C2944 1.524 . S
C2945 C2946 1.397 . S
C2945 C2950 1.363 . S
C2946 H2923 0.950 . S
C2946 C2945 1.397 . S
C2946 C2947 1.334 . S
C2947 H2924 0.950 . S
C2947 C2946 1.334 . S
C2947 C2948 1.287 . S
C2948 C2947 1.287 . S
C2948 C2949 1.524 . S
C2948 H2967 0.913 . S
C2949 H2925 0.950 . S
C2949 C2948 1.524 . S
C2949 C2950 1.415 . S
C2950 H2926 0.950 . S
C2950 C2945 1.363 . S
C2950 C2949 1.415 . S
C2951 H2927 0.951 . S
C2951 C2952 1.366 . S
C2951 C2953 1.388 . S
C2952 C2951 1.366 . S
C2952 C2956 1.385 . S
C2953 H2928 0.951 . S
C2953 C2951 1.388 . S
C2953 C2954 1.366 . S
C2954 C2953 1.366 . S
C2954 C2955 1.414 . S
C2954 C2957 1.499 . S
C2955 H2929 0.950 . S
C2955 C2954 1.414 . S
C2955 C2956 1.374 . S
C2956 H2930 0.950 . S
C2956 C2952 1.385 . S
C2956 C2955 1.374 . S
C2957 C2954 1.499 . S
C2957 C2958 1.373 . S
C2957 C2959 1.389 . S
C2958 H2931 0.950 . S
C2958 C2944 1.377 . S
C2958 C2957 1.373 . S
C2959 C2943 1.377 . S
C2959 C2957 1.389 . S
C2959 C2960 1.524 . S
C2960 C2959 1.524 . S
C2960 C2961 1.397 . S
C2960 C2965 1.363 . S
C2961 H2932 0.950 . S
C2961 C2960 1.397 . S
C2961 C2962 1.334 . S
C2962 H2933 0.950 . S
C2962 C2961 1.334 . S
C2962 C2963 1.287 . S
C2963 C2962 1.287 . S
C2963 C2964 1.524 . S
C2963 H2966 0.999 . S
C2964 H2934 0.950 . S
C2964 C2963 1.524 . S
C2964 C2965 1.415 . S
C2965 H2935 0.950 . S
C2965 C2960 1.363 . S
C2965 C2964 1.415 . S
H2966 C2963 0.999 . S
H2967 C2948 0.913 . S
H2968 C2986 0.951 . S
H2969 C2988 0.951 . S
H2970 C2990 0.950 . S
H2971 C2991 0.950 . S
H2972 C2993 0.950 . S
H2973 C2996 0.950 . S
H2974 C2997 0.950 . S
H2975 C2999 0.950 . S
H2976 C3000 0.950 . S
H2977 C3001 0.951 . S
H2978 C3003 0.951 . S
H2979 C3005 0.950 . S
H2980 C3006 0.950 . S
H2981 C3008 0.950 . S
H2982 C3011 0.950 . S
H2983 C3012 0.950 . S
H2984 C3014 0.950 . S
H2985 C3015 0.950 . S
C2986 H2968 0.951 . S
C2986 C2987 1.366 . S
C2986 C2988 1.388 . S
C2987 C2986 1.366 . S
C2987 C2991 1.385 . S
C2988 H2969 0.951 . S
C2988 C2986 1.388 . S
C2988 C2989 1.366 . S
C2989 C2988 1.366 . S
C2989 C2990 1.414 . S
C2989 C2992 1.499 . S
C2990 H2970 0.950 . S
C2990 C2989 1.414 . S
C2990 C2991 1.374 . S
C2991 H2971 0.950 . S
C2991 C2987 1.385 . S
C2991 C2990 1.374 . S
C2992 C2989 1.499 . S
C2992 C2993 1.373 . S
C2992 C2994 1.389 . S
C2993 H2972 0.950 . S
C2993 C2992 1.373 . S
C2993 C3009 1.377 . S
C2994 C2992 1.389 . S
C2994 C2995 1.524 . S
C2994 C3008 1.377 . S
C2995 C2994 1.524 . S
C2995 C2996 1.397 . S
C2995 C3000 1.363 . S
C2996 H2973 0.950 . S
C2996 C2995 1.397 . S
C2996 C2997 1.334 . S
C2997 H2974 0.950 . S
C2997 C2996 1.334 . S
C2997 C2998 1.287 . S
C2998 C2997 1.287 . S
C2998 C2999 1.524 . S
C2998 H3017 0.913 . S
C2999 H2975 0.950 . S
C2999 C2998 1.524 . S
C2999 C3000 1.415 . S
C3000 H2976 0.950 . S
C3000 C2995 1.363 . S
C3000 C2999 1.415 . S
C3001 H2977 0.951 . S
C3001 C3002 1.366 . S
C3001 C3003 1.388 . S
C3002 C3001 1.366 . S
C3002 C3006 1.385 . S
C3003 H2978 0.951 . S
C3003 C3001 1.388 . S
C3003 C3004 1.366 . S
C3004 C3003 1.366 . S
C3004 C3005 1.414 . S
C3004 C3007 1.499 . S
C3005 H2979 0.950 . S
C3005 C3004 1.414 . S
C3005 C3006 1.374 . S
C3006 H2980 0.950 . S
C3006 C3002 1.385 . S
C3006 C3005 1.374 . S
C3007 C3004 1.499 . S
C3007 C3008 1.373 . S
C3007 C3009 1.389 . S
C3008 H2981 0.950 . S
C3008 C2994 1.377 . S
C3008 C3007 1.373 . S
C3009 C2993 1.377 . S
C3009 C3007 1.389 . S
C3009 C3010 1.524 . S
C3010 C3009 1.524 . S
C3010 C3011 1.397 . S
C3010 C3015 1.363 . S
C3011 H2982 0.950 . S
C3011 C3010 1.397 . S
C3011 C3012 1.334 . S
C3012 H2983 0.950 . S
C3012 C3011 1.334 . S
C3012 C3013 1.287 . S
C3013 C3012 1.287 . S
C3013 C3014 1.524 . S
C3013 H3016 0.999 . S
C3014 H2984 0.950 . S
C3014 C3013 1.524 . S
C3014 C3015 1.415 . S
C3015 H2985 0.950 . S
C3015 C3010 1.363 . S
C3015 C3014 1.415 . S
H3016 C3013 0.999 . S
H3017 C2998 0.913 . S
H3018 C3036 0.951 . S
H3019 C3038 0.951 . S
H3020 C3040 0.950 . S
H3021 C3041 0.950 . S
H3022 C3043 0.950 . S
H3023 C3046 0.950 . S
H3024 C3047 0.950 . S
H3025 C3049 0.950 . S
H3026 C3050 0.950 . S
H3027 C3051 0.951 . S
H3028 C3053 0.951 . S
H3029 C3055 0.950 . S
H3030 C3056 0.950 . S
H3031 C3058 0.950 . S
H3032 C3061 0.950 . S
H3033 C3062 0.950 . S
H3034 C3064 0.950 . S
H3035 C3065 0.950 . S
C3036 H3018 0.951 . S
C3036 C3037 1.366 . S
C3036 C3038 1.388 . S
C3037 C3036 1.366 . S
C3037 C3041 1.385 1_655 S
C3038 H3019 0.951 . S
C3038 C3036 1.388 . S
C3038 C3039 1.366 . S
C3039 C3038 1.366 . S
C3039 C3040 1.414 . S
C3039 C3042 1.499 . S
C3040 H3020 0.950 . S
C3040 C3039 1.414 . S
C3040 C3041 1.374 1_655 S
C3041 H3021 0.950 . S
C3041 C3037 1.385 1_455 S
C3041 C3040 1.374 1_455 S
C3042 C3039 1.499 . S
C3042 C3043 1.373 . S
C3042 C3044 1.389 . S
C3043 H3022 0.950 . S
C3043 C3042 1.373 . S
C3043 C3059 1.377 . S
C3044 C3042 1.389 . S
C3044 C3045 1.524 . S
C3044 C3058 1.377 . S
C3045 C3044 1.524 . S
C3045 C3046 1.397 . S
C3045 C3050 1.363 . S
C3046 H3023 0.950 . S
C3046 C3045 1.397 . S
C3046 C3047 1.334 . S
C3047 H3024 0.950 . S
C3047 C3046 1.334 . S
C3047 C3048 1.287 . S
C3048 C3047 1.287 . S
C3048 C3049 1.524 . S
C3048 H3067 0.913 . S
C3049 H3025 0.950 . S
C3049 C3048 1.524 . S
C3049 C3050 1.415 . S
C3050 H3026 0.950 . S
C3050 C3045 1.363 . S
C3050 C3049 1.415 . S
C3051 H3027 0.951 . S
C3051 C3052 1.366 . S
C3051 C3053 1.388 . S
C3052 C3051 1.366 . S
C3052 C3056 1.385 . S
C3053 H3028 0.951 . S
C3053 C3051 1.388 . S
C3053 C3054 1.366 . S
C3054 C3053 1.366 . S
C3054 C3055 1.414 . S
C3054 C3057 1.499 . S
C3055 H3029 0.950 . S
C3055 C3054 1.414 . S
C3055 C3056 1.374 . S
C3056 H3030 0.950 . S
C3056 C3052 1.385 . S
C3056 C3055 1.374 . S
C3057 C3054 1.499 . S
C3057 C3058 1.373 . S
C3057 C3059 1.389 . S
C3058 H3031 0.950 . S
C3058 C3044 1.377 . S
C3058 C3057 1.373 . S
C3059 C3043 1.377 . S
C3059 C3057 1.389 . S
C3059 C3060 1.524 1_545 S
C3060 C3059 1.524 1_565 S
C3060 C3061 1.397 . S
C3060 C3065 1.363 . S
C3061 H3032 0.950 . S
C3061 C3060 1.397 . S
C3061 C3062 1.334 . S
C3062 H3033 0.950 . S
C3062 C3061 1.334 . S
C3062 C3063 1.287 . S
C3063 C3062 1.287 . S
C3063 C3064 1.524 . S
C3063 H3066 0.999 . S
C3064 H3034 0.950 . S
C3064 C3063 1.524 . S
C3064 C3065 1.415 . S
C3065 H3035 0.950 . S
C3065 C3060 1.363 . S
C3065 C3064 1.415 . S
H3066 C3063 0.999 . S
H3067 C3048 0.913 . S
H3068 C3086 0.951 . S
H3069 C3088 0.951 . S
H3070 C3090 0.950 . S
H3071 C3091 0.950 . S
H3072 C3093 0.950 . S
H3073 C3096 0.950 . S
H3074 C3097 0.950 . S
H3075 C3099 0.950 . S
H3076 C3100 0.950 . S
H3077 C3101 0.951 . S
H3078 C3103 0.951 . S
H3079 C3105 0.950 . S
H3080 C3106 0.950 . S
H3081 C3108 0.950 . S
H3082 C3111 0.950 . S
H3083 C3112 0.950 . S
H3084 C3114 0.950 . S
H3085 C3115 0.950 . S
C3086 H3068 0.951 . S
C3086 C3087 1.366 . S
C3086 C3088 1.388 . S
C3087 C3086 1.366 . S
C3087 C3091 1.385 . S
C3088 H3069 0.951 . S
C3088 C3086 1.388 . S
C3088 C3089 1.366 . S
C3089 C3088 1.366 . S
C3089 C3090 1.414 . S
C3089 C3092 1.499 . S
C3090 H3070 0.950 . S
C3090 C3089 1.414 . S
C3090 C3091 1.374 . S
C3091 H3071 0.950 . S
C3091 C3087 1.385 . S
C3091 C3090 1.374 . S
C3092 C3089 1.499 . S
C3092 C3093 1.373 . S
C3092 C3094 1.389 . S
C3093 H3072 0.950 . S
C3093 C3092 1.373 . S
C3093 C3109 1.377 . S
C3094 C3092 1.389 . S
C3094 C3095 1.524 . S
C3094 C3108 1.377 . S
C3095 C3094 1.524 . S
C3095 C3096 1.397 . S
C3095 C3100 1.363 . S
C3096 H3073 0.950 . S
C3096 C3095 1.397 . S
C3096 C3097 1.334 . S
C3097 H3074 0.950 . S
C3097 C3096 1.334 . S
C3097 C3098 1.287 . S
C3098 C3097 1.287 . S
C3098 C3099 1.524 . S
C3098 H3117 0.913 . S
C3099 H3075 0.950 . S
C3099 C3098 1.524 . S
C3099 C3100 1.415 . S
C3100 H3076 0.950 . S
C3100 C3095 1.363 . S
C3100 C3099 1.415 . S
C3101 H3077 0.951 . S
C3101 C3102 1.366 . S
C3101 C3103 1.388 . S
C3102 C3101 1.366 . S
C3102 C3106 1.385 . S
C3103 H3078 0.951 . S
C3103 C3101 1.388 . S
C3103 C3104 1.366 . S
C3104 C3103 1.366 . S
C3104 C3105 1.414 . S
C3104 C3107 1.499 . S
C3105 H3079 0.950 . S
C3105 C3104 1.414 . S
C3105 C3106 1.374 . S
C3106 H3080 0.950 . S
C3106 C3102 1.385 . S
C3106 C3105 1.374 . S
C3107 C3104 1.499 . S
C3107 C3108 1.373 . S
C3107 C3109 1.389 . S
C3108 H3081 0.950 . S
C3108 C3094 1.377 . S
C3108 C3107 1.373 . S
C3109 C3093 1.377 . S
C3109 C3107 1.389 . S
C3109 C3110 1.524 . S
C3110 C3109 1.524 . S
C3110 C3111 1.397 . S
C3110 C3115 1.363 . S
C3111 H3082 0.950 . S
C3111 C3110 1.397 . S
C3111 C3112 1.334 . S
C3112 H3083 0.950 . S
C3112 C3111 1.334 . S
C3112 C3113 1.287 . S
C3113 C3112 1.287 . S
C3113 C3114 1.524 . S
C3113 H3116 0.999 . S
C3114 H3084 0.950 . S
C3114 C3113 1.524 . S
C3114 C3115 1.415 . S
C3115 H3085 0.950 . S
C3115 C3110 1.363 . S
C3115 C3114 1.415 . S
H3116 C3113 0.999 . S
H3117 C3098 0.913 . S
H3118 C3136 0.951 . S
H3119 C3138 0.951 . S
H3120 C3140 0.950 . S
H3121 C3141 0.927 1_655 S
H3122 C3143 0.950 . S
H3123 C3146 0.950 . S
H3124 C3147 0.950 . S
H3125 C3149 0.950 . S
H3126 C3150 0.950 . S
H3127 C3151 0.951 . S
H3128 C3153 0.951 . S
H3129 C3155 0.950 . S
H3130 C3156 0.950 . S
H3131 C3158 0.950 . S
H3132 C3161 0.950 . S
H3133 C3162 0.950 . S
H3134 C3164 0.950 . S
H3135 C3165 0.950 . S
C3136 H3118 0.951 . S
C3136 C3137 1.366 . S
C3136 C3138 1.388 . S
C3137 C3136 1.366 . S
C3137 C3141 1.385 . S
C3138 H3119 0.951 . S
C3138 C3136 1.388 . S
C3138 C3139 1.366 . S
C3139 C3138 1.366 . S
C3139 C3140 1.414 . S
C3139 C3142 1.499 . S
C3140 H3120 0.950 . S
C3140 C3139 1.414 . S
C3140 C3141 1.374 . S
C3141 H3121 0.927 1_455 S
C3141 C3137 1.385 . S
C3141 C3140 1.374 . S
C3142 C3139 1.499 . S
C3142 C3143 1.373 . S
C3142 C3144 1.389 . S
C3143 H3122 0.950 . S
C3143 C3142 1.373 . S
C3143 C3159 1.377 . S
C3144 C3142 1.389 . S
C3144 C3145 1.524 . S
C3144 C3158 1.377 . S
C3145 C3144 1.524 . S
C3145 C3146 1.397 . S
C3145 C3150 1.363 . S
C3146 H3123 0.950 . S
C3146 C3145 1.397 . S
C3146 C3147 1.334 . S
C3147 H3124 0.950 . S
C3147 C3146 1.334 . S
C3147 C3148 1.287 . S
C3148 C3147 1.287 . S
C3148 C3149 1.524 . S
C3148 H3167 0.913 . S
C3149 H3125 0.950 . S
C3149 C3148 1.524 . S
C3149 C3150 1.415 . S
C3150 H3126 0.950 . S
C3150 C3145 1.363 . S
C3150 C3149 1.415 . S
C3151 H3127 0.951 . S
C3151 C3152 1.366 . S
C3151 C3153 1.388 . S
C3152 C3151 1.366 . S
C3152 C3156 1.385 . S
C3153 H3128 0.951 . S
C3153 C3151 1.388 . S
C3153 C3154 1.366 . S
C3154 C3153 1.366 . S
C3154 C3155 1.414 . S
C3154 C3157 1.499 . S
C3155 H3129 0.950 . S
C3155 C3154 1.414 . S
C3155 C3156 1.374 . S
C3156 H3130 0.950 . S
C3156 C3152 1.385 . S
C3156 C3155 1.374 . S
C3157 C3154 1.499 . S
C3157 C3158 1.373 . S
C3157 C3159 1.389 . S
C3158 H3131 0.950 . S
C3158 C3144 1.377 . S
C3158 C3157 1.373 . S
C3159 C3143 1.377 . S
C3159 C3157 1.389 . S
C3159 C3160 1.524 . S
C3160 C3159 1.524 . S
C3160 C3161 1.397 . S
C3160 C3165 1.363 . S
C3161 H3132 0.950 . S
C3161 C3160 1.397 . S
C3161 C3162 1.334 . S
C3162 H3133 0.950 . S
C3162 C3161 1.334 . S
C3162 C3163 1.287 . S
C3163 C3162 1.287 . S
C3163 C3164 1.524 . S
C3163 H3166 0.999 . S
C3164 H3134 0.950 . S
C3164 C3163 1.524 . S
C3164 C3165 1.415 . S
C3165 H3135 0.950 . S
C3165 C3160 1.363 . S
C3165 C3164 1.415 . S
H3166 C3163 0.999 . S
H3167 C3148 0.913 . S
H3168 C3186 0.951 . S
H3169 C3188 0.951 . S
H3170 C3190 0.950 . S
H3171 C3191 0.950 . S
H3172 C3193 0.950 . S
H3173 C3196 0.950 . S
H3174 C3197 0.950 . S
H3175 C3199 0.950 . S
H3176 C3200 0.950 . S
H3177 C3201 0.951 . S
H3178 C3203 0.951 . S
H3179 C3205 0.950 . S
H3180 C3206 0.950 . S
H3181 C3208 0.950 . S
H3182 C3211 0.950 . S
H3183 C3212 0.950 . S
H3184 C3214 0.950 . S
H3185 C3215 0.950 . S
C3186 H3168 0.951 . S
C3186 C3187 1.366 . S
C3186 C3188 1.388 . S
C3187 C3186 1.366 . S
C3187 C3191 1.385 . S
C3188 H3169 0.951 . S
C3188 C3186 1.388 . S
C3188 C3189 1.366 . S
C3189 C3188 1.366 . S
C3189 C3190 1.414 . S
C3189 C3192 1.499 . S
C3190 H3170 0.950 . S
C3190 C3189 1.414 . S
C3190 C3191 1.374 . S
C3191 H3171 0.950 . S
C3191 C3187 1.385 . S
C3191 C3190 1.374 . S
C3192 C3189 1.499 . S
C3192 C3193 1.373 . S
C3192 C3194 1.389 . S
C3193 H3172 0.950 . S
C3193 C3192 1.373 . S
C3193 C3209 1.377 . S
C3194 C3192 1.389 . S
C3194 C3195 1.524 . S
C3194 C3208 1.377 . S
C3195 C3194 1.524 . S
C3195 C3196 1.397 . S
C3195 C3200 1.363 . S
C3196 H3173 0.950 . S
C3196 C3195 1.397 . S
C3196 C3197 1.334 . S
C3197 H3174 0.950 . S
C3197 C3196 1.334 . S
C3197 C3198 1.287 . S
C3198 C3197 1.287 . S
C3198 C3199 1.524 . S
C3198 H3217 0.913 . S
C3199 H3175 0.950 . S
C3199 C3198 1.524 . S
C3199 C3200 1.415 . S
C3200 H3176 0.950 . S
C3200 C3195 1.363 . S
C3200 C3199 1.415 . S
C3201 H3177 0.951 . S
C3201 C3202 1.366 . S
C3201 C3203 1.388 . S
C3202 C3201 1.366 . S
C3202 C3206 1.385 . S
C3203 H3178 0.951 . S
C3203 C3201 1.388 . S
C3203 C3204 1.366 . S
C3204 C3203 1.366 . S
C3204 C3205 1.414 . S
C3204 C3207 1.499 . S
C3205 H3179 0.950 . S
C3205 C3204 1.414 . S
C3205 C3206 1.374 . S
C3206 H3180 0.950 . S
C3206 C3202 1.385 . S
C3206 C3205 1.374 . S
C3207 C3204 1.499 . S
C3207 C3208 1.373 . S
C3207 C3209 1.389 . S
C3208 H3181 0.950 . S
C3208 C3194 1.377 . S
C3208 C3207 1.373 . S
C3209 C3193 1.377 . S
C3209 C3207 1.389 . S
C3209 C3210 1.524 . S
C3210 C3209 1.524 . S
C3210 C3211 1.397 . S
C3210 C3215 1.363 . S
C3211 H3182 0.950 . S
C3211 C3210 1.397 . S
C3211 C3212 1.334 . S
C3212 H3183 0.950 . S
C3212 C3211 1.334 . S
C3212 C3213 1.287 . S
C3213 C3212 1.287 . S
C3213 C3214 1.524 . S
C3213 H3216 0.999 . S
C3214 H3184 0.950 . S
C3214 C3213 1.524 . S
C3214 C3215 1.415 . S
C3215 H3185 0.950 . S
C3215 C3210 1.363 . S
C3215 C3214 1.415 . S
H3216 C3213 0.999 . S
H3217 C3198 0.913 . S
H3218 C3236 0.951 . S
H3219 C3238 0.951 . S
H3220 C3240 0.950 . S
H3221 C3241 0.950 . S
H3222 C3243 0.964 . S
H3223 C3246 0.950 . S
H3224 C3247 0.950 . S
H3225 C3249 0.950 . S
H3226 C3250 0.950 . S
H3227 C3251 0.951 . S
H3228 C3253 0.951 . S
H3229 C3255 0.950 . S
H3230 C3256 0.950 . S
H3231 C3258 0.950 . S
H3232 C3261 0.950 . S
H3233 C3262 0.950 . S
H3234 C3264 0.950 1_554 S
H3235 C3265 1.008 . S
C3236 H3218 0.951 . S
C3236 C3237 1.366 . S
C3236 C3238 1.388 . S
C3237 C3236 1.366 . S
C3237 C3241 1.385 1_556 S
C3238 H3219 0.951 . S
C3238 C3236 1.388 . S
C3238 C3239 1.366 . S
C3239 C3238 1.366 . S
C3239 C3240 1.414 . S
C3239 C3242 1.499 . S
C3240 H3220 0.950 . S
C3240 C3239 1.414 . S
C3240 C3241 1.374 1_556 S
C3241 H3221 0.950 . S
C3241 C3237 1.385 1_554 S
C3241 C3240 1.374 1_554 S
C3242 C3239 1.499 . S
C3242 C3243 1.373 . S
C3242 C3244 1.389 . S
C3243 H3222 0.964 . S
C3243 C3242 1.373 . S
C3243 C3259 1.377 . S
C3244 C3242 1.389 . S
C3244 C3245 1.524 . S
C3244 C3258 1.377 . S
C3245 C3244 1.524 . S
C3245 C3246 1.397 . S
C3245 C3250 1.363 . S
C3246 H3223 0.950 . S
C3246 C3245 1.397 . S
C3246 C3247 1.334 . S
C3247 H3224 0.950 . S
C3247 C3246 1.334 . S
C3247 C3248 1.287 . S
C3248 C3247 1.287 . S
C3248 C3249 1.524 . S
C3248 H3267 0.913 . S
C3249 H3225 0.950 . S
C3249 C3248 1.524 . S
C3249 C3250 1.415 . S
C3250 H3226 0.950 . S
C3250 C3245 1.363 . S
C3250 C3249 1.415 . S
C3251 H3227 0.951 . S
C3251 C3252 1.366 . S
C3251 C3253 1.388 . S
C3252 C3251 1.366 . S
C3252 C3256 1.385 . S
C3253 H3228 0.951 . S
C3253 C3251 1.388 . S
C3253 C3254 1.366 . S
C3254 C3253 1.366 . S
C3254 C3255 1.414 . S
C3254 C3257 1.499 . S
C3255 H3229 0.950 . S
C3255 C3254 1.414 . S
C3255 C3256 1.374 . S
C3256 H3230 0.950 . S
C3256 C3252 1.385 . S
C3256 C3255 1.374 . S
C3257 C3254 1.499 . S
C3257 C3258 1.373 . S
C3257 C3259 1.389 . S
C3258 H3231 0.950 . S
C3258 C3244 1.377 . S
C3258 C3257 1.373 . S
C3259 C3243 1.377 . S
C3259 C3257 1.389 . S
C3259 C3260 1.524 1_655 S
C3260 C3259 1.524 1_455 S
C3260 C3261 1.397 . S
C3260 C3265 1.363 . S
C3261 H3232 0.950 . S
C3261 C3260 1.397 . S
C3261 C3262 1.334 . S
C3262 H3233 0.950 . S
C3262 C3261 1.334 . S
C3262 C3263 1.287 . S
C3263 C3262 1.287 . S
C3263 C3264 1.524 . S
C3263 H3266 0.999 . S
C3264 H3234 0.950 1_556 S
C3264 C3263 1.524 . S
C3264 C3265 1.415 . S
C3265 H3235 1.008 . S
C3265 C3260 1.363 . S
C3265 C3264 1.415 . S
H3266 C3263 0.999 . S
H3267 C3248 0.913 . S
H3268 C3286 0.951 . S
H3269 C3288 0.951 . S
H3270 C3290 0.950 . S
H3271 C3291 0.950 . S
H3272 C3293 0.950 . S
H3273 C3296 0.950 . S
H3274 C3297 0.950 . S
H3275 C3299 0.950 . S
H3276 C3300 0.950 . S
H3277 C3301 0.951 . S
H3278 C3303 0.951 . S
H3279 C3305 0.950 . S
H3280 C3306 0.950 . S
H3281 C3308 0.950 . S
H3282 C3311 0.950 . S
H3283 C3312 0.950 . S
H3284 C3314 0.950 . S
H3285 C3315 0.950 . S
C3286 H3268 0.951 . S
C3286 C3287 1.366 . S
C3286 C3288 1.388 . S
C3287 C3286 1.366 . S
C3287 C3291 1.385 . S
C3288 H3269 0.951 . S
C3288 C3286 1.388 . S
C3288 C3289 1.366 . S
C3289 C3288 1.366 . S
C3289 C3290 1.414 . S
C3289 C3292 1.499 . S
C3290 H3270 0.950 . S
C3290 C3289 1.414 . S
C3290 C3291 1.374 . S
C3291 H3271 0.950 . S
C3291 C3287 1.385 . S
C3291 C3290 1.374 . S
C3292 C3289 1.499 . S
C3292 C3293 1.373 . S
C3292 C3294 1.389 . S
C3293 H3272 0.950 . S
C3293 C3292 1.373 . S
C3293 C3309 1.377 . S
C3294 C3292 1.389 . S
C3294 C3295 1.524 . S
C3294 C3308 1.377 . S
C3295 C3294 1.524 . S
C3295 C3296 1.397 . S
C3295 C3300 1.363 . S
C3296 H3273 0.950 . S
C3296 C3295 1.397 . S
C3296 C3297 1.334 . S
C3297 H3274 0.950 . S
C3297 C3296 1.334 . S
C3297 C3298 1.287 . S
C3298 C3297 1.287 . S
C3298 C3299 1.524 . S
C3298 H3317 0.913 . S
C3299 H3275 0.950 . S
C3299 C3298 1.524 . S
C3299 C3300 1.415 . S
C3300 H3276 0.950 . S
C3300 C3295 1.363 . S
C3300 C3299 1.415 . S
C3301 H3277 0.951 . S
C3301 C3302 1.366 . S
C3301 C3303 1.388 . S
C3302 C3301 1.366 . S
C3302 C3306 1.385 . S
C3303 H3278 0.951 . S
C3303 C3301 1.388 . S
C3303 C3304 1.366 . S
C3304 C3303 1.366 . S
C3304 C3305 1.414 . S
C3304 C3307 1.499 . S
C3305 H3279 0.950 . S
C3305 C3304 1.414 . S
C3305 C3306 1.374 . S
C3306 H3280 0.950 . S
C3306 C3302 1.385 . S
C3306 C3305 1.374 . S
C3307 C3304 1.499 . S
C3307 C3308 1.373 . S
C3307 C3309 1.389 . S
C3308 H3281 0.950 . S
C3308 C3294 1.377 . S
C3308 C3307 1.373 . S
C3309 C3293 1.377 . S
C3309 C3307 1.389 . S
C3309 C3310 1.524 . S
C3310 C3309 1.524 . S
C3310 C3311 1.397 . S
C3310 C3315 1.363 . S
C3311 H3282 0.950 . S
C3311 C3310 1.397 . S
C3311 C3312 1.334 . S
C3312 H3283 0.950 . S
C3312 C3311 1.334 . S
C3312 C3313 1.287 . S
C3313 C3312 1.287 . S
C3313 C3314 1.524 . S
C3313 H3316 0.999 . S
C3314 H3284 0.950 . S
C3314 C3313 1.524 . S
C3314 C3315 1.415 . S
C3315 H3285 0.950 . S
C3315 C3310 1.363 . S
C3315 C3314 1.415 . S
H3316 C3313 0.999 . S
H3317 C3298 0.913 . S
H3318 C3336 0.950 . S
H3319 C3338 0.951 . S
H3320 C3340 0.950 . S
H3321 C3341 0.950 . S
H3322 C3343 0.950 . S
H3323 C3346 0.950 . S
H3324 C3347 0.950 . S
H3325 C3349 0.950 . S
H3326 C3350 0.931 1_556 S
H3327 C3351 0.951 1_655 S
H3328 C3353 0.951 1_655 S
H3329 C3355 0.950 . S
H3330 C3356 0.950 . S
H3331 C3358 0.950 . S
H3332 C3361 0.950 . S
H3333 C3362 0.950 . S
H3334 C3364 0.950 1_655 S
H3335 C3365 0.950 1_655 S
C3336 H3318 0.950 . S
C3336 C3337 1.366 . S
C3336 C3338 1.389 1_554 S
C3337 C3336 1.366 . S
C3337 C3341 1.387 1_554 S
C3338 H3319 0.951 . S
C3338 C3336 1.389 1_556 S
C3338 C3339 1.366 . S
C3339 C3338 1.366 . S
C3339 C3340 1.414 . S
C3339 C3342 1.499 . S
C3340 H3320 0.950 . S
C3340 C3339 1.414 . S
C3340 C3341 1.374 . S
C3341 H3321 0.950 . S
C3341 C3337 1.387 1_556 S
C3341 C3340 1.374 . S
C3342 C3339 1.499 . S
C3342 C3343 1.373 . S
C3342 C3344 1.389 . S
C3343 H3322 0.950 . S
C3343 C3342 1.373 . S
C3343 C3359 1.377 . S
C3344 C3342 1.389 . S
C3344 C3345 1.524 . S
C3344 C3358 1.377 . S
C3345 C3344 1.524 . S
C3345 C3346 1.397 1_556 S
C3345 C3350 1.354 1_556 S
C3346 H3323 0.950 . S
C3346 C3345 1.397 1_554 S
C3346 C3347 1.334 . S
C3347 H3324 0.950 . S
C3347 C3346 1.334 . S
C3347 C3348 1.287 . S
C3348 C3347 1.287 . S
C3348 C3349 1.524 . S
C3348 H3367 0.913 . S
C3349 H3325 0.950 . S
C3349 C3348 1.524 . S
C3349 C3350 1.443 . S
C3350 H3326 0.931 1_554 S
C3350 C3345 1.354 1_554 S
C3350 C3349 1.443 . S
C3351 H3327 0.951 1_455 S
C3351 C3352 1.366 . S
C3351 C3353 1.388 . S
C3352 C3351 1.366 . S
C3352 C3356 1.385 . S
C3353 H3328 0.951 1_455 S
C3353 C3351 1.388 . S
C3353 C3354 1.366 . S
C3354 C3353 1.366 . S
C3354 C3355 1.414 . S
C3354 C3357 1.499 . S
C3355 H3329 0.950 . S
C3355 C3354 1.414 . S
C3355 C3356 1.374 . S
C3356 H3330 0.950 . S
C3356 C3352 1.385 . S
C3356 C3355 1.374 . S
C3357 C3354 1.499 . S
C3357 C3358 1.373 . S
C3357 C3359 1.389 . S
C3358 H3331 0.950 . S
C3358 C3344 1.377 . S
C3358 C3357 1.373 . S
C3359 C3343 1.377 . S
C3359 C3357 1.389 . S
C3359 C3360 1.524 . S
C3360 C3359 1.524 . S
C3360 C3361 1.397 . S
C3360 C3365 1.363 . S
C3361 H3332 0.950 . S
C3361 C3360 1.397 . S
C3361 C3362 1.334 . S
C3362 H3333 0.950 . S
C3362 C3361 1.334 . S
C3362 C3363 1.287 . S
C3363 C3362 1.287 . S
C3363 C3364 1.524 . S
C3363 H3366 0.999 . S
C3364 H3334 0.950 1_455 S
C3364 C3363 1.524 . S
C3364 C3365 1.415 . S
C3365 H3335 0.950 1_455 S
C3365 C3360 1.363 . S
C3365 C3364 1.415 . S
H3366 C3363 0.999 . S
H3367 C3348 0.913 . S
H3368 C3386 0.951 . S
H3369 C3388 0.951 . S
H3370 C3390 0.950 . S
H3371 C3391 0.950 . S
H3372 C3393 0.950 . S
H3373 C3396 0.950 . S
H3374 C3397 0.950 . S
H3375 C3399 0.950 . S
H3376 C3400 0.950 . S
H3377 C3401 0.951 . S
H3378 C3403 0.951 . S
H3379 C3405 0.950 . S
H3380 C3406 0.950 . S
H3381 C3408 0.950 . S
H3382 C3411 0.950 . S
H3383 C3412 0.950 . S
H3384 C3414 0.950 . S
H3385 C3415 0.950 . S
C3386 H3368 0.951 . S
C3386 C3387 1.366 . S
C3386 C3388 1.388 . S
C3387 C3386 1.366 . S
C3387 C3391 1.385 . S
C3388 H3369 0.951 . S
C3388 C3386 1.388 . S
C3388 C3389 1.366 . S
C3389 C3388 1.366 . S
C3389 C3390 1.414 . S
C3389 C3392 1.499 . S
C3390 H3370 0.950 . S
C3390 C3389 1.414 . S
C3390 C3391 1.374 . S
C3391 H3371 0.950 . S
C3391 C3387 1.385 . S
C3391 C3390 1.374 . S
C3392 C3389 1.499 . S
C3392 C3393 1.373 . S
C3392 C3394 1.389 . S
C3393 H3372 0.950 . S
C3393 C3392 1.373 . S
C3393 C3409 1.377 . S
C3394 C3392 1.389 . S
C3394 C3395 1.524 . S
C3394 C3408 1.377 . S
C3395 C3394 1.524 . S
C3395 C3396 1.397 . S
C3395 C3400 1.363 . S
C3396 H3373 0.950 . S
C3396 C3395 1.397 . S
C3396 C3397 1.334 . S
C3397 H3374 0.950 . S
C3397 C3396 1.334 . S
C3397 C3398 1.287 . S
C3398 C3397 1.287 . S
C3398 C3399 1.524 . S
C3398 H3417 0.913 . S
C3399 H3375 0.950 . S
C3399 C3398 1.524 . S
C3399 C3400 1.415 . S
C3400 H3376 0.950 . S
C3400 C3395 1.363 . S
C3400 C3399 1.415 . S
C3401 H3377 0.951 . S
C3401 C3402 1.366 . S
C3401 C3403 1.388 . S
C3402 C3401 1.366 . S
C3402 C3406 1.385 . S
C3403 H3378 0.951 . S
C3403 C3401 1.388 . S
C3403 C3404 1.366 . S
C3404 C3403 1.366 . S
C3404 C3405 1.414 . S
C3404 C3407 1.499 . S
C3405 H3379 0.950 . S
C3405 C3404 1.414 . S
C3405 C3406 1.374 . S
C3406 H3380 0.950 . S
C3406 C3402 1.385 . S
C3406 C3405 1.374 . S
C3407 C3404 1.499 . S
C3407 C3408 1.373 . S
C3407 C3409 1.389 . S
C3408 H3381 0.950 . S
C3408 C3394 1.377 . S
C3408 C3407 1.373 . S
C3409 C3393 1.377 . S
C3409 C3407 1.389 . S
C3409 C3410 1.524 . S
C3410 C3409 1.524 . S
C3410 C3411 1.397 . S
C3410 C3415 1.363 . S
C3411 H3382 0.950 . S
C3411 C3410 1.397 . S
C3411 C3412 1.334 . S
C3412 H3383 0.950 . S
C3412 C3411 1.334 . S
C3412 C3413 1.287 . S
C3413 C3412 1.287 . S
C3413 C3414 1.524 . S
C3413 H3416 0.999 . S
C3414 H3384 0.950 . S
C3414 C3413 1.524 . S
C3414 C3415 1.415 . S
C3415 H3385 0.950 . S
C3415 C3410 1.363 . S
C3415 C3414 1.415 . S
H3416 C3413 0.999 . S
H3417 C3398 0.913 . S
H3418 C3436 0.951 . S
H3419 C3438 0.951 . S
H3420 C3440 0.950 . S
H3421 C3441 0.950 . S
H3422 C3443 0.950 . S
H3423 C3446 0.950 . S
H3424 C3447 0.950 . S
H3425 C3449 0.950 . S
H3426 C3450 0.950 . S
H3427 C3451 0.951 . S
H3428 C3453 0.951 . S
H3429 C3455 0.950 . S
H3430 C3456 0.950 . S
H3431 C3458 0.950 . S
H3432 C3461 0.950 . S
H3433 C3462 0.950 . S
H3434 C3464 0.950 . S
H3435 C3465 0.950 . S
C3436 H3418 0.951 . S
C3436 C3437 1.366 . S
C3436 C3438 1.388 . S
C3437 C3436 1.366 . S
C3437 C3441 1.385 . S
C3438 H3419 0.951 . S
C3438 C3436 1.388 . S
C3438 C3439 1.366 . S
C3439 C3438 1.366 . S
C3439 C3440 1.414 . S
C3439 C3442 1.499 . S
C3440 H3420 0.950 . S
C3440 C3439 1.414 . S
C3440 C3441 1.374 . S
C3441 H3421 0.950 . S
C3441 C3437 1.385 . S
C3441 C3440 1.374 . S
C3442 C3439 1.499 . S
C3442 C3443 1.373 . S
C3442 C3444 1.389 . S
C3443 H3422 0.950 . S
C3443 C3442 1.373 . S
C3443 C3459 1.377 . S
C3444 C3442 1.389 . S
C3444 C3445 1.524 . S
C3444 C3458 1.377 . S
C3445 C3444 1.524 . S
C3445 C3446 1.397 . S
C3445 C3450 1.363 . S
C3446 H3423 0.950 . S
C3446 C3445 1.397 . S
C3446 C3447 1.334 1_554 S
C3447 H3424 0.950 . S
C3447 C3446 1.334 1_556 S
C3447 C3448 1.287 . S
C3448 C3447 1.287 . S
C3448 C3449 1.524 1_556 S
C3448 H3467 0.913 . S
C3449 H3425 0.950 . S
C3449 C3448 1.524 1_554 S
C3449 C3450 1.415 . S
C3450 H3426 0.950 . S
C3450 C3445 1.363 . S
C3450 C3449 1.415 . S
C3451 H3427 0.951 . S
C3451 C3452 1.366 . S
C3451 C3453 1.388 . S
C3452 C3451 1.366 . S
C3452 C3456 1.385 . S
C3453 H3428 0.951 . S
C3453 C3451 1.388 . S
C3453 C3454 1.366 . S
C3454 C3453 1.366 . S
C3454 C3455 1.414 . S
C3454 C3457 1.499 . S
C3455 H3429 0.950 . S
C3455 C3454 1.414 . S
C3455 C3456 1.374 . S
C3456 H3430 0.950 . S
C3456 C3452 1.385 . S
C3456 C3455 1.374 . S
C3457 C3454 1.499 . S
C3457 C3458 1.373 . S
C3457 C3459 1.389 . S
C3458 H3431 0.950 . S
C3458 C3444 1.377 . S
C3458 C3457 1.373 . S
C3459 C3443 1.377 . S
C3459 C3457 1.389 . S
C3459 C3460 1.524 . S
C3460 C3459 1.524 . S
C3460 C3461 1.397 . S
C3460 C3465 1.363 . S
C3461 H3432 0.950 . S
C3461 C3460 1.397 . S
C3461 C3462 1.334 . S
C3462 H3433 0.950 . S
C3462 C3461 1.334 . S
C3462 C3463 1.287 . S
C3463 C3462 1.287 . S
C3463 C3464 1.524 . S
C3463 H3466 0.999 . S
C3464 H3434 0.950 . S
C3464 C3463 1.524 . S
C3464 C3465 1.415 . S
C3465 H3435 0.950 . S
C3465 C3460 1.363 . S
C3465 C3464 1.415 . S
H3466 C3463 0.999 . S
H3467 C3448 0.913 . S
H3468 C3486 0.951 . S
H3469 C3488 0.951 . S
H3470 C3490 0.950 . S
H3471 C3491 0.950 . S
H3472 C3493 0.950 . S
H3473 C3496 0.950 . S
H3474 C3497 0.950 . S
H3475 C3499 0.950 . S
H3476 C3500 0.950 . S
H3477 C3501 0.951 . S
H3478 C3503 0.951 . S
H3479 C3505 0.950 . S
H3480 C3506 0.950 . S
H3481 C3508 0.950 . S
H3482 C3511 0.950 . S
H3483 C3512 0.950 . S
H3484 C3514 0.950 . S
H3485 C3515 0.950 . S
C3486 H3468 0.951 . S
C3486 C3487 1.366 . S
C3486 C3488 1.388 . S
C3487 C3486 1.366 . S
C3487 C3491 1.385 . S
C3488 H3469 0.951 . S
C3488 C3486 1.388 . S
C3488 C3489 1.366 . S
C3489 C3488 1.366 . S
C3489 C3490 1.414 . S
C3489 C3492 1.499 . S
C3490 H3470 0.950 . S
C3490 C3489 1.414 . S
C3490 C3491 1.374 . S
C3491 H3471 0.950 . S
C3491 C3487 1.385 . S
C3491 C3490 1.374 . S
C3492 C3489 1.499 . S
C3492 C3493 1.373 . S
C3492 C3494 1.389 . S
C3493 H3472 0.950 . S
C3493 C3492 1.373 . S
C3493 C3509 1.377 . S
C3494 C3492 1.389 . S
C3494 C3495 1.524 . S
C3494 C3508 1.377 . S
C3495 C3494 1.524 . S
C3495 C3496 1.397 . S
C3495 C3500 1.363 . S
C3496 H3473 0.950 . S
C3496 C3495 1.397 . S
C3496 C3497 1.334 . S
C3497 H3474 0.950 . S
C3497 C3496 1.334 . S
C3497 C3498 1.287 . S
C3498 C3497 1.287 . S
C3498 C3499 1.524 . S
C3498 H3517 0.913 . S
C3499 H3475 0.950 . S
C3499 C3498 1.524 . S
C3499 C3500 1.415 . S
C3500 H3476 0.950 . S
C3500 C3495 1.363 . S
C3500 C3499 1.415 . S
C3501 H3477 0.951 . S
C3501 C3502 1.366 . S
C3501 C3503 1.388 . S
C3502 C3501 1.366 . S
C3502 C3506 1.385 . S
C3503 H3478 0.951 . S
C3503 C3501 1.388 . S
C3503 C3504 1.366 . S
C3504 C3503 1.366 . S
C3504 C3505 1.414 . S
C3504 C3507 1.499 . S
C3505 H3479 0.950 . S
C3505 C3504 1.414 . S
C3505 C3506 1.374 . S
C3506 H3480 0.950 . S
C3506 C3502 1.385 . S
C3506 C3505 1.374 . S
C3507 C3504 1.499 . S
C3507 C3508 1.373 . S
C3507 C3509 1.389 . S
C3508 H3481 0.950 . S
C3508 C3494 1.377 . S
C3508 C3507 1.373 . S
C3509 C3493 1.377 . S
C3509 C3507 1.389 . S
C3509 C3510 1.524 . S
C3510 C3509 1.524 . S
C3510 C3511 1.397 . S
C3510 C3515 1.363 . S
C3511 H3482 0.950 . S
C3511 C3510 1.397 . S
C3511 C3512 1.334 . S
C3512 H3483 0.950 . S
C3512 C3511 1.334 . S
C3512 C3513 1.287 . S
C3513 C3512 1.287 . S
C3513 C3514 1.524 . S
C3513 H3516 0.999 . S
C3514 H3484 0.950 . S
C3514 C3513 1.524 . S
C3514 C3515 1.415 . S
C3515 H3485 0.950 . S
C3515 C3510 1.363 . S
C3515 C3514 1.415 . S
H3516 C3513 0.999 . S
H3517 C3498 0.913 . S
H3518 C3536 0.951 1_556 S
H3519 C3538 0.951 . S
H3520 C3540 0.950 . S
H3521 C3541 0.950 . S
H3522 C3543 0.950 . S
H3523 C3546 0.950 . S
H3524 C3547 0.950 . S
H3525 C3549 0.950 . S
H3526 C3550 0.950 . S
H3527 C3551 0.951 . S
H3528 C3553 0.951 . S
H3529 C3555 0.950 . S
H3530 C3556 0.950 . S
H3531 C3558 0.950 . S
H3532 C3561 0.950 . S
H3533 C3562 0.950 . S
H3534 C3564 0.950 . S
H3535 C3565 0.950 . S
C3536 H3518 0.951 1_554 S
C3536 C3537 1.366 . S
C3536 C3538 1.388 . S
C3537 C3536 1.366 . S
C3537 C3541 1.385 . S
C3538 H3519 0.951 . S
C3538 C3536 1.388 . S
C3538 C3539 1.366 . S
C3539 C3538 1.366 . S
C3539 C3540 1.414 . S
C3539 C3542 1.499 . S
C3540 H3520 0.950 . S
C3540 C3539 1.414 . S
C3540 C3541 1.374 . S
C3541 H3521 0.950 . S
C3541 C3537 1.385 . S
C3541 C3540 1.374 . S
C3542 C3539 1.499 . S
C3542 C3543 1.373 . S
C3542 C3544 1.389 . S
C3543 H3522 0.950 . S
C3543 C3542 1.373 . S
C3543 C3559 1.377 . S
C3544 C3542 1.389 . S
C3544 C3545 1.524 . S
C3544 C3558 1.377 . S
C3545 C3544 1.524 . S
C3545 C3546 1.397 . S
C3545 C3550 1.363 . S
C3546 H3523 0.950 . S
C3546 C3545 1.397 . S
C3546 C3547 1.334 . S
C3547 H3524 0.950 . S
C3547 C3546 1.334 . S
C3547 C3548 1.259 1_554 S
C3548 C3547 1.259 1_556 S
C3548 C3549 1.526 . S
C3548 H3567 0.948 . S
C3549 H3525 0.950 . S
C3549 C3548 1.526 . S
C3549 C3550 1.415 1_556 S
C3550 H3526 0.950 . S
C3550 C3545 1.363 . S
C3550 C3549 1.415 1_554 S
C3551 H3527 0.951 . S
C3551 C3552 1.366 . S
C3551 C3553 1.388 . S
C3552 C3551 1.366 . S
C3552 C3556 1.385 . S
C3553 H3528 0.951 . S
C3553 C3551 1.388 . S
C3553 C3554 1.366 . S
C3554 C3553 1.366 . S
C3554 C3555 1.414 . S
C3554 C3557 1.499 . S
C3555 H3529 0.950 . S
C3555 C3554 1.414 . S
C3555 C3556 1.374 . S
C3556 H3530 0.950 . S
C3556 C3552 1.385 . S
C3556 C3555 1.374 . S
C3557 C3554 1.499 . S
C3557 C3558 1.373 . S
C3557 C3559 1.389 . S
C3558 H3531 0.950 . S
C3558 C3544 1.377 . S
C3558 C3557 1.373 . S
C3559 C3543 1.377 . S
C3559 C3557 1.389 . S
C3559 C3560 1.524 . S
C3560 C3559 1.524 . S
C3560 C3561 1.397 . S
C3560 C3565 1.363 . S
C3561 H3532 0.950 . S
C3561 C3560 1.397 . S
C3561 C3562 1.334 . S
C3562 H3533 0.950 . S
C3562 C3561 1.334 . S
C3562 C3563 1.287 . S
C3563 C3562 1.287 . S
C3563 C3564 1.524 . S
C3563 H3566 0.999 . S
C3564 H3534 0.950 . S
C3564 C3563 1.524 . S
C3564 C3565 1.415 . S
C3565 H3535 0.950 . S
C3565 C3560 1.363 . S
C3565 C3564 1.415 . S
H3566 C3563 0.999 . S
H3567 C3548 0.948 . S
H3568 C3586 0.951 . S
H3569 C3588 0.951 . S
H3570 C3590 0.950 . S
H3571 C3591 0.950 . S
H3572 C3593 0.950 . S
H3573 C3596 0.950 . S
H3574 C3597 0.950 . S
H3575 C3599 0.950 . S
H3576 C3600 0.950 . S
H3577 C3601 0.951 . S
H3578 C3603 0.951 . S
H3579 C3605 0.950 . S
H3580 C3606 0.950 . S
H3581 C3608 0.950 . S
H3582 C3611 0.950 . S
H3583 C3612 0.950 . S
H3584 C3614 0.950 . S
H3585 C3615 0.950 . S
C3586 H3568 0.951 . S
C3586 C3587 1.366 . S
C3586 C3588 1.388 . S
C3587 C3586 1.366 . S
C3587 C3591 1.385 . S
C3588 H3569 0.951 . S
C3588 C3586 1.388 . S
C3588 C3589 1.366 . S
C3589 C3588 1.366 . S
C3589 C3590 1.414 . S
C3589 C3592 1.499 . S
C3590 H3570 0.950 . S
C3590 C3589 1.414 . S
C3590 C3591 1.374 . S
C3591 H3571 0.950 . S
C3591 C3587 1.385 . S
C3591 C3590 1.374 . S
C3592 C3589 1.499 . S
C3592 C3593 1.373 . S
C3592 C3594 1.389 . S
C3593 H3572 0.950 . S
C3593 C3592 1.373 . S
C3593 C3609 1.377 . S
C3594 C3592 1.389 . S
C3594 C3595 1.524 . S
C3594 C3608 1.377 . S
C3595 C3594 1.524 . S
C3595 C3596 1.397 . S
C3595 C3600 1.363 . S
C3596 H3573 0.950 . S
C3596 C3595 1.397 . S
C3596 C3597 1.334 . S
C3597 H3574 0.950 . S
C3597 C3596 1.334 . S
C3597 C3598 1.287 . S
C3598 C3597 1.287 . S
C3598 C3599 1.524 . S
C3598 H3617 0.913 . S
C3599 H3575 0.950 . S
C3599 C3598 1.524 . S
C3599 C3600 1.415 . S
C3600 H3576 0.950 . S
C3600 C3595 1.363 . S
C3600 C3599 1.415 . S
C3601 H3577 0.951 . S
C3601 C3602 1.366 . S
C3601 C3603 1.388 . S
C3602 C3601 1.366 . S
C3602 C3606 1.385 . S
C3603 H3578 0.951 . S
C3603 C3601 1.388 . S
C3603 C3604 1.366 . S
C3604 C3603 1.366 . S
C3604 C3605 1.414 . S
C3604 C3607 1.499 . S
C3605 H3579 0.950 . S
C3605 C3604 1.414 . S
C3605 C3606 1.374 . S
C3606 H3580 0.950 . S
C3606 C3602 1.385 . S
C3606 C3605 1.374 . S
C3607 C3604 1.499 . S
C3607 C3608 1.373 . S
C3607 C3609 1.389 . S
C3608 H3581 0.950 . S
C3608 C3594 1.377 . S
C3608 C3607 1.373 . S
C3609 C3593 1.377 . S
C3609 C3607 1.389 . S
C3609 C3610 1.524 . S
C3610 C3609 1.524 . S
C3610 C3611 1.397 . S
C3610 C3615 1.363 . S
C3611 H3582 0.950 . S
C3611 C3610 1.397 . S
C3611 C3612 1.334 . S
C3612 H3583 0.950 . S
C3612 C3611 1.334 . S
C3612 C3613 1.287 . S
C3613 C3612 1.287 . S
C3613 C3614 1.524 . S
C3613 H3616 0.999 . S
C3614 H3584 0.950 . S
C3614 C3613 1.524 . S
C3614 C3615 1.415 . S
C3615 H3585 0.950 . S
C3615 C3610 1.363 . S
C3615 C3614 1.415 . S
H3616 C3613 0.999 . S
H3617 C3598 0.913 . S
H3618 C3636 0.951 . S
H3619 C3638 0.951 . S
H3620 C3640 0.950 . S
H3621 C3641 0.950 . S
H3622 C3643 0.950 . S
H3623 C3646 0.950 . S
H3624 C3647 0.950 . S
H3625 C3649 0.950 . S
H3626 C3650 0.950 . S
H3627 C3651 0.951 . S
H3628 C3653 0.951 . S
H3629 C3655 0.950 . S
H3630 C3656 0.950 . S
H3631 C3658 0.950 . S
H3632 C3661 0.950 . S
H3633 C3662 0.950 . S
H3634 C3664 0.950 . S
H3635 C3665 0.950 . S
C3636 H3618 0.951 . S
C3636 C3637 1.366 . S
C3636 C3638 1.388 . S
C3637 C3636 1.366 . S
C3637 C3641 1.385 . S
C3638 H3619 0.951 . S
C3638 C3636 1.388 . S
C3638 C3639 1.366 . S
C3639 C3638 1.366 . S
C3639 C3640 1.414 . S
C3639 C3642 1.499 . S
C3640 H3620 0.950 . S
C3640 C3639 1.414 . S
C3640 C3641 1.374 . S
C3641 H3621 0.950 . S
C3641 C3637 1.385 . S
C3641 C3640 1.374 . S
C3642 C3639 1.499 . S
C3642 C3643 1.373 . S
C3642 C3644 1.389 . S
C3643 H3622 0.950 . S
C3643 C3642 1.373 . S
C3643 C3659 1.377 . S
C3644 C3642 1.389 . S
C3644 C3645 1.524 . S
C3644 C3658 1.377 . S
C3645 C3644 1.524 . S
C3645 C3646 1.397 . S
C3645 C3650 1.363 . S
C3646 H3623 0.950 . S
C3646 C3645 1.397 . S
C3646 C3647 1.334 . S
C3647 H3624 0.950 . S
C3647 C3646 1.334 . S
C3647 C3648 1.287 . S
C3648 C3647 1.287 . S
C3648 C3649 1.524 . S
C3648 H3667 0.913 . S
C3649 H3625 0.950 . S
C3649 C3648 1.524 . S
C3649 C3650 1.415 . S
C3650 H3626 0.950 . S
C3650 C3645 1.363 . S
C3650 C3649 1.415 . S
C3651 H3627 0.951 . S
C3651 C3652 1.366 . S
C3651 C3653 1.388 . S
C3652 C3651 1.366 . S
C3652 C3656 1.385 . S
C3653 H3628 0.951 . S
C3653 C3651 1.388 . S
C3653 C3654 1.366 . S
C3654 C3653 1.366 . S
C3654 C3655 1.414 . S
C3654 C3657 1.499 . S
C3655 H3629 0.950 . S
C3655 C3654 1.414 . S
C3655 C3656 1.374 . S
C3656 H3630 0.950 . S
C3656 C3652 1.385 . S
C3656 C3655 1.374 . S
C3657 C3654 1.499 . S
C3657 C3658 1.373 . S
C3657 C3659 1.389 . S
C3658 H3631 0.950 . S
C3658 C3644 1.377 . S
C3658 C3657 1.373 . S
C3659 C3643 1.377 . S
C3659 C3657 1.389 . S
C3659 C3660 1.524 . S
C3660 C3659 1.524 . S
C3660 C3661 1.397 . S
C3660 C3665 1.363 . S
C3661 H3632 0.950 . S
C3661 C3660 1.397 . S
C3661 C3662 1.334 . S
C3662 H3633 0.950 . S
C3662 C3661 1.334 . S
C3662 C3663 1.287 . S
C3663 C3662 1.287 . S
C3663 C3664 1.524 . S
C3663 H3666 0.999 . S
C3664 H3634 0.950 . S
C3664 C3663 1.524 . S
C3664 C3665 1.415 . S
C3665 H3635 0.950 . S
C3665 C3660 1.363 . S
C3665 C3664 1.415 . S
H3666 C3663 0.999 . S
H3667 C3648 0.913 . S
H3668 C3686 0.951 . S
H3669 C3688 0.951 . S
H3670 C3690 0.950 . S
H3671 C3691 0.950 . S
H3672 C3693 0.950 . S
H3673 C3696 0.950 . S
H3674 C3697 0.950 . S
H3675 C3699 0.950 . S
H3676 C3700 0.950 . S
H3677 C3701 0.951 . S
H3678 C3703 0.951 . S
H3679 C3705 0.950 . S
H3680 C3706 0.950 . S
H3681 C3708 0.950 . S
H3682 C3711 0.950 . S
H3683 C3712 0.950 . S
H3684 C3714 0.950 . S
H3685 C3715 0.950 . S
C3686 H3668 0.951 . S
C3686 C3687 1.366 . S
C3686 C3688 1.388 . S
C3687 C3686 1.366 . S
C3687 C3691 1.385 . S
C3688 H3669 0.951 . S
C3688 C3686 1.388 . S
C3688 C3689 1.366 . S
C3689 C3688 1.366 . S
C3689 C3690 1.414 . S
C3689 C3692 1.499 . S
C3690 H3670 0.950 . S
C3690 C3689 1.414 . S
C3690 C3691 1.374 . S
C3691 H3671 0.950 . S
C3691 C3687 1.385 . S
C3691 C3690 1.374 . S
C3692 C3689 1.499 . S
C3692 C3693 1.373 . S
C3692 C3694 1.389 . S
C3693 H3672 0.950 . S
C3693 C3692 1.373 . S
C3693 C3709 1.377 . S
C3694 C3692 1.389 . S
C3694 C3695 1.524 . S
C3694 C3708 1.377 . S
C3695 C3694 1.524 . S
C3695 C3696 1.397 . S
C3695 C3700 1.363 . S
C3696 H3673 0.950 . S
C3696 C3695 1.397 . S
C3696 C3697 1.334 . S
C3697 H3674 0.950 . S
C3697 C3696 1.334 . S
C3697 C3698 1.287 . S
C3698 C3697 1.287 . S
C3698 C3699 1.524 . S
C3698 H3717 0.913 . S
C3699 H3675 0.950 . S
C3699 C3698 1.524 . S
C3699 C3700 1.415 . S
C3700 H3676 0.950 . S
C3700 C3695 1.363 . S
C3700 C3699 1.415 . S
C3701 H3677 0.951 . S
C3701 C3702 1.366 . S
C3701 C3703 1.388 . S
C3702 C3701 1.366 . S
C3702 C3706 1.385 . S
C3703 H3678 0.951 . S
C3703 C3701 1.388 . S
C3703 C3704 1.366 . S
C3704 C3703 1.366 . S
C3704 C3705 1.414 . S
C3704 C3707 1.499 . S
C3705 H3679 0.950 . S
C3705 C3704 1.414 . S
C3705 C3706 1.374 . S
C3706 H3680 0.950 . S
C3706 C3702 1.385 . S
C3706 C3705 1.374 . S
C3707 C3704 1.499 . S
C3707 C3708 1.373 . S
C3707 C3709 1.389 . S
C3708 H3681 0.950 . S
C3708 C3694 1.377 . S
C3708 C3707 1.373 . S
C3709 C3693 1.377 . S
C3709 C3707 1.389 . S
C3709 C3710 1.524 . S
C3710 C3709 1.524 . S
C3710 C3711 1.397 . S
C3710 C3715 1.363 . S
C3711 H3682 0.950 . S
C3711 C3710 1.397 . S
C3711 C3712 1.334 . S
C3712 H3683 0.950 . S
C3712 C3711 1.334 . S
C3712 C3713 1.287 . S
C3713 C3712 1.287 . S
C3713 C3714 1.524 . S
C3713 H3716 0.999 . S
C3714 H3684 0.950 . S
C3714 C3713 1.524 . S
C3714 C3715 1.415 . S
C3715 H3685 0.950 . S
C3715 C3710 1.363 . S
C3715 C3714 1.415 . S
H3716 C3713 0.999 . S
H3717 C3698 0.913 . S
H3718 C3736 0.951 . S
H3719 C3738 0.951 . S
H3720 C3740 0.950 . S
H3721 C3741 0.950 . S
H3722 C3743 0.950 . S
H3723 C3746 0.950 . S
H3724 C3747 0.950 . S
H3725 C3749 0.950 . S
H3726 C3750 0.950 . S
H3727 C3751 0.951 . S
H3728 C3753 0.951 . S
H3729 C3755 0.950 . S
H3730 C3756 0.950 . S
H3731 C3758 0.950 . S
H3732 C3761 0.950 . S
H3733 C3762 0.950 . S
H3734 C3764 0.950 . S
H3735 C3765 0.950 . S
C3736 H3718 0.951 . S
C3736 C3737 1.366 . S
C3736 C3738 1.388 . S
C3737 C3736 1.366 . S
C3737 C3741 1.385 . S
C3738 H3719 0.951 . S
C3738 C3736 1.388 . S
C3738 C3739 1.366 . S
C3739 C3738 1.366 . S
C3739 C3740 1.414 . S
C3739 C3742 1.499 . S
C3740 H3720 0.950 . S
C3740 C3739 1.414 . S
C3740 C3741 1.374 . S
C3741 H3721 0.950 . S
C3741 C3737 1.385 . S
C3741 C3740 1.374 . S
C3742 C3739 1.499 . S
C3742 C3743 1.373 . S
C3742 C3744 1.389 . S
C3743 H3722 0.950 . S
C3743 C3742 1.373 . S
C3743 C3759 1.377 . S
C3744 C3742 1.389 . S
C3744 C3745 1.524 . S
C3744 C3758 1.377 . S
C3745 C3744 1.524 . S
C3745 C3746 1.397 . S
C3745 C3750 1.363 . S
C3746 H3723 0.950 . S
C3746 C3745 1.397 . S
C3746 C3747 1.334 . S
C3747 H3724 0.950 . S
C3747 C3746 1.334 . S
C3747 C3748 1.287 . S
C3748 C3747 1.287 . S
C3748 C3749 1.524 . S
C3748 H3767 0.913 . S
C3749 H3725 0.950 . S
C3749 C3748 1.524 . S
C3749 C3750 1.415 . S
C3750 H3726 0.950 . S
C3750 C3745 1.363 . S
C3750 C3749 1.415 . S
C3751 H3727 0.951 . S
C3751 C3752 1.366 . S
C3751 C3753 1.388 . S
C3752 C3751 1.366 . S
C3752 C3756 1.385 . S
C3753 H3728 0.951 . S
C3753 C3751 1.388 . S
C3753 C3754 1.366 . S
C3754 C3753 1.366 . S
C3754 C3755 1.414 . S
C3754 C3757 1.499 . S
C3755 H3729 0.950 . S
C3755 C3754 1.414 . S
C3755 C3756 1.374 . S
C3756 H3730 0.950 . S
C3756 C3752 1.385 . S
C3756 C3755 1.374 . S
C3757 C3754 1.499 . S
C3757 C3758 1.373 . S
C3757 C3759 1.389 . S
C3758 H3731 0.950 . S
C3758 C3744 1.377 . S
C3758 C3757 1.373 . S
C3759 C3743 1.377 . S
C3759 C3757 1.389 . S
C3759 C3760 1.524 . S
C3760 C3759 1.524 . S
C3760 C3761 1.397 . S
C3760 C3765 1.363 . S
C3761 H3732 0.950 . S
C3761 C3760 1.397 . S
C3761 C3762 1.334 . S
C3762 H3733 0.950 . S
C3762 C3761 1.334 . S
C3762 C3763 1.287 . S
C3763 C3762 1.287 . S
C3763 C3764 1.524 . S
C3763 H3766 0.999 . S
C3764 H3734 0.950 . S
C3764 C3763 1.524 . S
C3764 C3765 1.415 . S
C3765 H3735 0.950 . S
C3765 C3760 1.363 . S
C3765 C3764 1.415 . S
H3766 C3763 0.999 . S
H3767 C3748 0.913 . S
H3768 C3786 0.951 . S
H3769 C3788 0.951 . S
H3770 C3790 0.950 . S
H3771 C3791 0.950 . S
H3772 C3793 0.950 . S
H3773 C3796 0.950 . S
H3774 C3797 0.950 . S
H3775 C3799 0.950 . S
H3776 C3800 0.950 . S
H3777 C3801 0.947 . S
H3778 C3803 0.951 . S
H3779 C3805 0.950 . S
H3780 C3806 0.950 . S
H3781 C3808 0.950 . S
H3782 C3811 0.950 . S
H3783 C3812 0.950 . S
H3784 C3814 0.950 . S
H3785 C3815 0.950 . S
C3786 H3768 0.951 . S
C3786 C3787 1.366 . S
C3786 C3788 1.388 . S
C3787 C3786 1.366 . S
C3787 C3791 1.385 . S
C3788 H3769 0.951 . S
C3788 C3786 1.388 . S
C3788 C3789 1.366 . S
C3789 C3788 1.366 . S
C3789 C3790 1.414 . S
C3789 C3792 1.499 . S
C3790 H3770 0.950 . S
C3790 C3789 1.414 . S
C3790 C3791 1.374 . S
C3791 H3771 0.950 . S
C3791 C3787 1.385 . S
C3791 C3790 1.374 . S
C3792 C3789 1.499 . S
C3792 C3793 1.373 . S
C3792 C3794 1.389 . S
C3793 H3772 0.950 . S
C3793 C3792 1.373 . S
C3793 C3809 1.377 . S
C3794 C3792 1.389 . S
C3794 C3795 1.506 1_556 S
C3794 C3808 1.377 . S
C3795 C3794 1.506 1_554 S
C3795 C3796 1.427 . S
C3795 C3800 1.356 1_554 S
C3796 H3773 0.950 . S
C3796 C3795 1.427 . S
C3796 C3797 1.334 . S
C3797 H3774 0.950 . S
C3797 C3796 1.334 . S
C3797 C3798 1.287 . S
C3798 C3797 1.287 . S
C3798 C3799 1.524 . S
C3798 H3817 0.913 . S
C3799 H3775 0.950 . S
C3799 C3798 1.524 . S
C3799 C3800 1.415 1_554 S
C3800 H3776 0.950 . S
C3800 C3795 1.356 1_556 S
C3800 C3799 1.415 1_556 S
C3801 H3777 0.947 . S
C3801 C3802 1.366 . S
C3801 C3803 1.388 . S
C3802 C3801 1.366 . S
C3802 C3806 1.385 . S
C3803 H3778 0.951 . S
C3803 C3801 1.388 . S
C3803 C3804 1.366 . S
C3804 C3803 1.366 . S
C3804 C3805 1.414 . S
C3804 C3807 1.499 . S
C3805 H3779 0.950 . S
C3805 C3804 1.414 . S
C3805 C3806 1.374 . S
C3806 H3780 0.950 . S
C3806 C3802 1.385 . S
C3806 C3805 1.374 . S
C3807 C3804 1.499 . S
C3807 C3808 1.373 . S
C3807 C3809 1.389 . S
C3808 H3781 0.950 . S
C3808 C3794 1.377 . S
C3808 C3807 1.373 . S
C3809 C3793 1.377 . S
C3809 C3807 1.389 . S
C3809 C3810 1.524 . S
C3810 C3809 1.524 . S
C3810 C3811 1.397 . S
C3810 C3815 1.363 . S
C3811 H3782 0.950 . S
C3811 C3810 1.397 . S
C3811 C3812 1.334 . S
C3812 H3783 0.950 . S
C3812 C3811 1.334 . S
C3812 C3813 1.287 . S
C3813 C3812 1.287 . S
C3813 C3814 1.524 . S
C3813 H3816 0.999 . S
C3814 H3784 0.950 . S
C3814 C3813 1.524 . S
C3814 C3815 1.415 . S
C3815 H3785 0.950 . S
C3815 C3810 1.363 . S
C3815 C3814 1.415 . S
H3816 C3813 0.999 . S
H3817 C3798 0.913 . S
H3818 C3836 0.951 . S
H3819 C3838 0.951 . S
H3820 C3840 0.950 . S
H3821 C3841 0.950 . S
H3822 C3843 0.950 . S
H3823 C3846 0.950 . S
H3824 C3847 0.950 . S
H3825 C3849 0.950 . S
H3826 C3850 0.950 . S
H3827 C3851 0.951 . S
H3828 C3853 0.951 . S
H3829 C3855 0.950 . S
H3830 C3856 0.950 . S
H3831 C3858 0.950 . S
H3832 C3861 0.950 . S
H3833 C3862 0.950 . S
H3834 C3864 0.950 . S
H3835 C3865 0.950 . S
C3836 H3818 0.951 . S
C3836 C3837 1.366 . S
C3836 C3838 1.388 . S
C3837 C3836 1.366 . S
C3837 C3841 1.385 . S
C3838 H3819 0.951 . S
C3838 C3836 1.388 . S
C3838 C3839 1.366 . S
C3839 C3838 1.366 . S
C3839 C3840 1.414 . S
C3839 C3842 1.499 . S
C3840 H3820 0.950 . S
C3840 C3839 1.414 . S
C3840 C3841 1.374 . S
C3841 H3821 0.950 . S
C3841 C3837 1.385 . S
C3841 C3840 1.374 . S
C3842 C3839 1.499 . S
C3842 C3843 1.373 . S
C3842 C3844 1.389 . S
C3843 H3822 0.950 . S
C3843 C3842 1.373 . S
C3843 C3859 1.377 . S
C3844 C3842 1.389 . S
C3844 C3845 1.524 . S
C3844 C3858 1.377 . S
C3845 C3844 1.524 . S
C3845 C3846 1.397 . S
C3845 C3850 1.363 . S
C3846 H3823 0.950 . S
C3846 C3845 1.397 . S
C3846 C3847 1.334 . S
C3847 H3824 0.950 . S
C3847 C3846 1.334 . S
C3847 C3848 1.287 . S
C3848 C3847 1.287 . S
C3848 C3849 1.524 . S
C3848 H3867 0.913 . S
C3849 H3825 0.950 . S
C3849 C3848 1.524 . S
C3849 C3850 1.415 . S
C3850 H3826 0.950 . S
C3850 C3845 1.363 . S
C3850 C3849 1.415 . S
C3851 H3827 0.951 . S
C3851 C3852 1.366 . S
C3851 C3853 1.388 . S
C3852 C3851 1.366 . S
C3852 C3856 1.385 . S
C3853 H3828 0.951 . S
C3853 C3851 1.388 . S
C3853 C3854 1.366 . S
C3854 C3853 1.366 . S
C3854 C3855 1.414 . S
C3854 C3857 1.499 . S
C3855 H3829 0.950 . S
C3855 C3854 1.414 . S
C3855 C3856 1.374 . S
C3856 H3830 0.950 . S
C3856 C3852 1.385 . S
C3856 C3855 1.374 . S
C3857 C3854 1.499 . S
C3857 C3858 1.373 . S
C3857 C3859 1.389 . S
C3858 H3831 0.950 . S
C3858 C3844 1.377 . S
C3858 C3857 1.373 . S
C3859 C3843 1.377 . S
C3859 C3857 1.389 . S
C3859 C3860 1.524 . S
C3860 C3859 1.524 . S
C3860 C3861 1.397 . S
C3860 C3865 1.363 . S
C3861 H3832 0.950 . S
C3861 C3860 1.397 . S
C3861 C3862 1.334 . S
C3862 H3833 0.950 . S
C3862 C3861 1.334 . S
C3862 C3863 1.287 . S
C3863 C3862 1.287 . S
C3863 C3864 1.524 . S
C3863 H3866 0.999 . S
C3864 H3834 0.950 . S
C3864 C3863 1.524 . S
C3864 C3865 1.415 . S
C3865 H3835 0.950 . S
C3865 C3860 1.363 . S
C3865 C3864 1.415 . S
H3866 C3863 0.999 . S
H3867 C3848 0.913 . S
H3868 C3886 0.951 . S
H3869 C3888 0.951 . S
H3870 C3890 0.950 . S
H3871 C3891 0.950 . S
H3872 C3893 0.950 . S
H3873 C3896 0.950 . S
H3874 C3897 0.950 . S
H3875 C3899 0.950 . S
H3876 C3900 0.950 . S
H3877 C3901 0.951 . S
H3878 C3903 0.951 . S
H3879 C3905 0.950 . S
H3880 C3906 0.950 . S
H3881 C3908 0.950 . S
H3882 C3911 0.950 . S
H3883 C3912 0.950 . S
H3884 C3914 0.950 . S
H3885 C3915 0.950 . S
C3886 H3868 0.951 . S
C3886 C3887 1.366 . S
C3886 C3888 1.388 . S
C3887 C3886 1.366 . S
C3887 C3891 1.385 . S
C3888 H3869 0.951 . S
C3888 C3886 1.388 . S
C3888 C3889 1.366 . S
C3889 C3888 1.366 . S
C3889 C3890 1.414 . S
C3889 C3892 1.499 . S
C3890 H3870 0.950 . S
C3890 C3889 1.414 . S
C3890 C3891 1.374 . S
C3891 H3871 0.950 . S
C3891 C3887 1.385 . S
C3891 C3890 1.374 . S
C3892 C3889 1.499 . S
C3892 C3893 1.373 . S
C3892 C3894 1.389 . S
C3893 H3872 0.950 . S
C3893 C3892 1.373 . S
C3893 C3909 1.377 . S
C3894 C3892 1.389 . S
C3894 C3895 1.524 . S
C3894 C3908 1.377 . S
C3895 C3894 1.524 . S
C3895 C3896 1.397 1_554 S
C3895 C3900 1.363 . S
C3896 H3873 0.950 . S
C3896 C3895 1.397 1_556 S
C3896 C3897 1.334 . S
C3897 H3874 0.950 . S
C3897 C3896 1.334 . S
C3897 C3898 1.287 . S
C3898 C3897 1.287 . S
C3898 C3899 1.524 . S
C3898 H3917 0.913 . S
C3899 H3875 0.950 . S
C3899 C3898 1.524 . S
C3899 C3900 1.415 1_556 S
C3900 H3876 0.950 . S
C3900 C3895 1.363 . S
C3900 C3899 1.415 1_554 S
C3901 H3877 0.951 . S
C3901 C3902 1.366 . S
C3901 C3903 1.388 . S
C3902 C3901 1.366 . S
C3902 C3906 1.385 . S
C3903 H3878 0.951 . S
C3903 C3901 1.388 . S
C3903 C3904 1.366 . S
C3904 C3903 1.366 . S
C3904 C3905 1.414 . S
C3904 C3907 1.499 . S
C3905 H3879 0.950 . S
C3905 C3904 1.414 . S
C3905 C3906 1.374 . S
C3906 H3880 0.950 . S
C3906 C3902 1.385 . S
C3906 C3905 1.374 . S
C3907 C3904 1.499 . S
C3907 C3908 1.373 . S
C3907 C3909 1.389 . S
C3908 H3881 0.950 . S
C3908 C3894 1.377 . S
C3908 C3907 1.373 . S
C3909 C3893 1.377 . S
C3909 C3907 1.389 . S
C3909 C3910 1.524 . S
C3910 C3909 1.524 . S
C3910 C3911 1.397 . S
C3910 C3915 1.363 . S
C3911 H3882 0.950 . S
C3911 C3910 1.397 . S
C3911 C3912 1.334 . S
C3912 H3883 0.950 . S
C3912 C3911 1.334 . S
C3912 C3913 1.287 . S
C3913 C3912 1.287 . S
C3913 C3914 1.524 . S
C3913 H3916 0.999 . S
C3914 H3884 0.950 . S
C3914 C3913 1.524 . S
C3914 C3915 1.415 . S
C3915 H3885 0.950 . S
C3915 C3910 1.363 . S
C3915 C3914 1.415 . S
H3916 C3913 0.999 . S
H3917 C3898 0.913 . S
H3918 C3936 0.951 . S
H3919 C3938 0.951 . S
H3920 C3940 0.950 . S
H3921 C3941 0.950 . S
H3922 C3943 0.950 . S
H3923 C3946 0.950 . S
H3924 C3947 0.950 . S
H3925 C3949 0.950 . S
H3926 C3950 0.950 . S
H3927 C3951 0.951 . S
H3928 C3953 0.951 . S
H3929 C3955 0.950 . S
H3930 C3956 0.950 . S
H3931 C3958 0.950 . S
H3932 C3961 0.950 . S
H3933 C3962 0.950 . S
H3934 C3964 0.950 . S
H3935 C3965 0.950 . S
C3936 H3918 0.951 . S
C3936 C3937 1.366 . S
C3936 C3938 1.388 . S
C3937 C3936 1.366 . S
C3937 C3941 1.385 1_565 S
C3938 H3919 0.951 . S
C3938 C3936 1.388 . S
C3938 C3939 1.366 . S
C3939 C3938 1.366 . S
C3939 C3940 1.414 . S
C3939 C3942 1.499 . S
C3940 H3920 0.950 . S
C3940 C3939 1.414 . S
C3940 C3941 1.374 1_565 S
C3941 H3921 0.950 . S
C3941 C3937 1.385 1_545 S
C3941 C3940 1.374 1_545 S
C3942 C3939 1.499 . S
C3942 C3943 1.373 . S
C3942 C3944 1.389 . S
C3943 H3922 0.950 . S
C3943 C3942 1.373 . S
C3943 C3959 1.377 . S
C3944 C3942 1.389 . S
C3944 C3945 1.524 . S
C3944 C3958 1.377 . S
C3945 C3944 1.524 . S
C3945 C3946 1.397 . S
C3945 C3950 1.363 . S
C3946 H3923 0.950 . S
C3946 C3945 1.397 . S
C3946 C3947 1.334 . S
C3947 H3924 0.950 . S
C3947 C3946 1.334 . S
C3947 C3948 1.287 . S
C3948 C3947 1.287 . S
C3948 C3949 1.524 . S
C3948 H3967 0.913 . S
C3949 H3925 0.950 . S
C3949 C3948 1.524 . S
C3949 C3950 1.415 . S
C3950 H3926 0.950 . S
C3950 C3945 1.363 . S
C3950 C3949 1.415 . S
C3951 H3927 0.951 . S
C3951 C3952 1.366 . S
C3951 C3953 1.388 . S
C3952 C3951 1.366 . S
C3952 C3956 1.385 . S
C3953 H3928 0.951 . S
C3953 C3951 1.388 . S
C3953 C3954 1.366 . S
C3954 C3953 1.366 . S
C3954 C3955 1.414 . S
C3954 C3957 1.499 . S
C3955 H3929 0.950 . S
C3955 C3954 1.414 . S
C3955 C3956 1.374 . S
C3956 H3930 0.950 . S
C3956 C3952 1.385 . S
C3956 C3955 1.374 . S
C3957 C3954 1.499 . S
C3957 C3958 1.373 . S
C3957 C3959 1.389 . S
C3958 H3931 0.950 . S
C3958 C3944 1.377 . S
C3958 C3957 1.373 . S
C3959 C3943 1.377 . S
C3959 C3957 1.389 . S
C3959 C3960 1.524 1_554 S
C3960 C3959 1.524 1_556 S
C3960 C3961 1.397 . S
C3960 C3965 1.363 . S
C3961 H3932 0.950 . S
C3961 C3960 1.397 . S
C3961 C3962 1.334 . S
C3962 H3933 0.950 . S
C3962 C3961 1.334 . S
C3962 C3963 1.287 . S
C3963 C3962 1.287 . S
C3963 C3964 1.524 . S
C3963 H3966 0.999 . S
C3964 H3934 0.950 . S
C3964 C3963 1.524 . S
C3964 C3965 1.415 . S
C3965 H3935 0.950 . S
C3965 C3960 1.363 . S
C3965 C3964 1.415 . S
H3966 C3963 0.999 . S
H3967 C3948 0.913 . S
C1602 C561 1.463 . S
C1587 C177 1.448 . S
C1652 C620 1.540 . S
C1637 C209 1.522 1_455 S
C1687 C253 1.413 . S
C1702 C737 1.459 . S
C1752 C805 1.540 . S
C1737 C157 1.492 1_655 S
C1802 C884 1.529 . S
C1787 C343 1.489 . S
C1852 C1009 1.508 . S
C1837 C401 1.471 . S
C1887 C369 1.494 . S
C1902 C1069 1.530 . S
C1952 C1177 1.515 . S
C1937 C317 1.496 . S
C1987 C375 1.484 . S
C2002 C1273 1.523 . S
C2052 C1333 1.569 . S
C2037 C305 1.557 . S
C2087 C349 1.503 . S
C2102 C1236 1.551 . S
C2152 C1353 1.522 . S
C2137 C413 1.474 . S
C2187 C241 1.443 . S
C2202 C1421 1.480 . S
C2237 C151 1.448 . S
C2252 C1412 1.488 . S
C2287 C189 1.492 . S
C2302 C1441 1.511 . S
C2337 C215 1.500 . S
C2352 C1449 1.516 . S
C2387 C113 1.456 . S
C2402 C833 1.493 . S
C2437 C471 1.468 . S
C2452 C796 1.484 . S
C2502 C532 1.529 . S
C2487 C509 1.508 1_565 S
C2552 C629 1.509 . S
C2537 C279 1.469 . S
C2587 C145 1.434 1_545 S
C2602 C893 1.471 . S
C2652 C1185 1.565 . S
C2637 C381 1.519 . S
C2702 C913 1.543 . S
C2687 C311 1.528 . S
C2752 C1097 1.499 . S
C2737 C407 1.462 . S
C2802 C1089 1.463 . S
C2787 C465 1.448 . S
C2837 C497 1.526 . S
C2852 C1157 1.541 . S
C2887 C285 1.414 . S
C2902 C921 1.460 . S
C2952 C972 1.540 . S
C2937 C445 1.492 . S
C2987 C119 1.489 . S
C3002 C717 1.529 . S
C3052 C825 1.508 . S
C3037 C17 1.471 1_655 S
C3102 C541 1.530 . S
C3087 C49 1.495 . S
C3152 C657 1.516 . S
C3137 C93 1.499 1_455 S
C3187 C55 1.485 . S
C3202 C1361 1.523 . S
C3237 C81 1.556 1_556 S
C3252 C1245 1.569 . S
C3287 C125 1.504 . S
C3302 C1324 1.551 . S
C3337 C29 1.472 . S
C3352 C1265 1.522 . S
C3402 C1509 1.480 . S
C3387 C273 1.444 . S
C3452 C1500 1.488 . S
C3437 C439 1.447 . S
C3502 C1529 1.512 . S
C3487 C477 1.492 . S
C3537 C503 1.500 . S
C3552 C1537 1.516 . S
C3587 C337 1.456 . S
C3602 C1001 1.493 . S
C3652 C981 1.484 . S
C3637 C183 1.467 . S
C3702 C1060 1.529 . S
C3687 C221 1.508 . S
C3752 C1148 1.509 . S
C3737 C247 1.469 . S
C3787 C433 1.434 . S
C3802 C708 1.471 . S
C3852 C649 1.565 . S
C3837 C61 1.519 . S
C3887 C87 1.528 . S
C3902 C745 1.543 . S
C3952 C569 1.499 . S
C3937 C23 1.462 1_565 S
