# Generated by pormake.
# Topology pyr, (3,6)-cn, num edge types: 1
# Building blocks:
#     Node 0, Type 0, BuildingBlock: BETDAH_clean_linker_0, # of connection points: 3
#     Node 1, Type 0, BuildingBlock: BETDAH_clean_linker_0, # of connection points: 3
#     Node 2, Type 0, BuildingBlock: BETDAH_clean_linker_0, # of connection points: 3
#     Node 3, Type 0, BuildingBlock: BETDAH_clean_linker_0, # of connection points: 3
#     Node 4, Type 0, BuildingBlock: BETDAH_clean_linker_0, # of connection points: 3
#     Node 5, Type 0, BuildingBlock: BETDAH_clean_linker_0, # of connection points: 3
#     Node 6, Type 0, BuildingBlock: BETDAH_clean_linker_0, # of connection points: 3
#     Node 7, Type 0, BuildingBlock: BETDAH_clean_linker_0, # of connection points: 3
#     Node 8, Type 1, BuildingBlock: MIDCAF_clean_sbu_0, # of connection points: 6
#     Node 9, Type 1, BuildingBlock: MIDCAF_clean_sbu_0, # of connection points: 6
#     Node 10, Type 1, BuildingBlock: MIDCAF_clean_sbu_0, # of connection points: 6
#     Node 11, Type 1, BuildingBlock: MIDCAF_clean_sbu_0, # of connection points: 6
#     Edge 12, Type (0, 1), BuildingBlock: TEMPAE_clean_linker_10, # of connection points: 2
#     Edge 13, Type (0, 1), BuildingBlock: TEMPAE_clean_linker_10, # of connection points: 2
#     Edge 14, Type (0, 1), BuildingBlock: TEMPAE_clean_linker_10, # of connection points: 2
#     Edge 15, Type (0, 1), BuildingBlock: TEMPAE_clean_linker_10, # of connection points: 2
#     Edge 16, Type (0, 1), BuildingBlock: TEMPAE_clean_linker_10, # of connection points: 2
#     Edge 17, Type (0, 1), BuildingBlock: TEMPAE_clean_linker_10, # of connection points: 2
#     Edge 18, Type (0, 1), BuildingBlock: TEMPAE_clean_linker_10, # of connection points: 2
#     Edge 19, Type (0, 1), BuildingBlock: TEMPAE_clean_linker_10, # of connection points: 2
#     Edge 20, Type (0, 1), BuildingBlock: TEMPAE_clean_linker_10, # of connection points: 2
#     Edge 21, Type (0, 1), BuildingBlock: TEMPAE_clean_linker_10, # of connection points: 2
#     Edge 22, Type (0, 1), BuildingBlock: TEMPAE_clean_linker_10, # of connection points: 2
#     Edge 23, Type (0, 1), BuildingBlock: TEMPAE_clean_linker_10, # of connection points: 2
#     Edge 24, Type (0, 1), BuildingBlock: TEMPAE_clean_linker_10, # of connection points: 2
#     Edge 25, Type (0, 1), BuildingBlock: TEMPAE_clean_linker_10, # of connection points: 2
#     Edge 26, Type (0, 1), BuildingBlock: TEMPAE_clean_linker_10, # of connection points: 2
#     Edge 27, Type (0, 1), BuildingBlock: TEMPAE_clean_linker_10, # of connection points: 2
#     Edge 28, Type (0, 1), BuildingBlock: TEMPAE_clean_linker_10, # of connection points: 2
#     Edge 29, Type (0, 1), BuildingBlock: TEMPAE_clean_linker_10, # of connection points: 2
#     Edge 30, Type (0, 1), BuildingBlock: TEMPAE_clean_linker_10, # of connection points: 2
#     Edge 31, Type (0, 1), BuildingBlock: TEMPAE_clean_linker_10, # of connection points: 2
#     Edge 32, Type (0, 1), BuildingBlock: TEMPAE_clean_linker_10, # of connection points: 2
#     Edge 33, Type (0, 1), BuildingBlock: TEMPAE_clean_linker_10, # of connection points: 2
#     Edge 34, Type (0, 1), BuildingBlock: TEMPAE_clean_linker_10, # of connection points: 2
#     Edge 35, Type (0, 1), BuildingBlock: TEMPAE_clean_linker_10, # of connection points: 2
# Relax obj value: 0.085
# Max RMSD: 0.181
# Mean RMSD: 0.134
data_MOF--net-pyr--node1-MIDCAF_clean_sbu_0--node2-BETDAH_clean_linker_0--edge1-TEMPAE_clean_linker_10
_symmetry_space_group_name_H-M    P1
_symmetry_Int_Tables_number       1
_symmetry_cell_setting            triclinic
loop_
_symmetry_equiv_pos_as_xyz
'x, y, z'
_cell_length_a     34.810857
_cell_length_b     35.516165
_cell_length_c     36.914018
_cell_angle_alpha  90.472926
_cell_angle_beta   90.669877
_cell_angle_gamma 96.62073
loop_
_atom_site_label
_atom_site_type_symbol
_atom_site_fract_x
_atom_site_fract_y
_atom_site_fract_z
_atom_type_partial_charge
H0 H 0.26052 0.18279 0.28951 0.0
H1 H 0.30283 0.27748 0.22332 0.0
H2 H 0.20676 0.2863 0.2936 0.0
C3 C 0.25842 0.21128 0.27996 0.0
C4 C 0.23047 0.23252 0.29481 0.0
C5 C 0.28494 0.2272 0.25425 0.0
C6 C 0.28264 0.26465 0.24304 0.0
C7 C 0.25386 0.28558 0.25615 0.0
C8 C 0.22799 0.26961 0.28234 0.0
N9 N 0.25419 0.32386 0.24513 0.0
C10 C 0.22223 0.33966 0.23139 0.0
H11 H 0.38294 0.79246 0.80039 0.0
H12 H 0.28165 0.84855 0.82009 0.0
H13 H 0.27835 0.76178 0.73815 0.0
C14 C 0.35329 0.79654 0.79379 0.0
C15 C 0.33334 0.77449 0.76607 0.0
C16 C 0.3349 0.82336 0.81352 0.0
C17 C 0.29646 0.82867 0.80461 0.0
C18 C 0.27612 0.80645 0.77746 0.0
C19 C 0.29447 0.7792 0.75869 0.0
N20 N 0.23579 0.80732 0.7725 0.0
C21 C 0.21977 0.8363 0.75468 0.0
H22 H 0.76424 0.29668 0.8948 0.0
H23 H 0.77083 0.34668 0.78861 0.0
H24 H 0.69838 0.24218 0.80595 0.0
C25 C 0.7555 0.29631 0.8665 0.0
C26 C 0.7291 0.26632 0.85339 0.0
C27 C 0.77124 0.32528 0.84336 0.0
C28 C 0.75944 0.32435 0.80669 0.0
C29 C 0.73316 0.29425 0.79328 0.0
C30 C 0.71894 0.26502 0.81647 0.0
N31 N 0.72095 0.29226 0.75646 0.0
C32 C 0.70926 0.32299 0.73791 0.0
H33 H 0.77109 0.77822 0.38622 0.0
H34 H 0.82048 0.80836 0.28254 0.0
H35 H 0.72012 0.7261 0.28865 0.0
C36 C 0.77122 0.77452 0.35703 0.0
C37 C 0.74258 0.74899 0.34012 0.0
C38 C 0.79902 0.79652 0.33652 0.0
C39 C 0.79897 0.7918 0.29865 0.0
C40 C 0.77064 0.76616 0.28147 0.0
C41 C 0.74206 0.74559 0.30216 0.0
N42 N 0.76946 0.76176 0.24328 0.0
C43 C 0.80082 0.75205 0.22369 0.0
H44 H 0.9547 0.86374 0.86749 0.0
H45 H 0.90668 0.90494 0.9657 0.0
H46 H 0.91333 0.97317 0.87058 0.0
C47 C 0.94154 0.88517 0.88243 0.0
C48 C 0.93546 0.91901 0.86476 0.0
C49 C 0.93059 0.87899 0.91889 0.0
C50 C 0.91347 0.9077 0.93722 0.0
C51 C 0.90637 0.94105 0.91956 0.0
C52 C 0.91723 0.94652 0.88344 0.0
N53 N 0.89404 0.97138 0.93983 0.0
C54 C 0.85606 0.97998 0.93947 0.0
H55 H 0.68516 0.10787 0.36827 0.0
H56 H 0.70447 0.14745 0.47769 0.0
H57 H 0.61176 0.18532 0.41545 0.0
C58 C 0.67736 0.1253 0.39062 0.0
C59 C 0.64554 0.14666 0.38728 0.0
C60 C 0.69943 0.12629 0.42275 0.0
C61 C 0.68845 0.1474 0.4523 0.0
C62 C 0.65725 0.16867 0.44991 0.0
C63 C 0.63592 0.16874 0.41725 0.0
N64 N 0.64753 0.18783 0.48182 0.0
C65 C 0.62878 0.22027 0.48365 0.0
H66 H 0.36732 0.66339 0.09788 0.0
H67 H 0.4039 0.567 0.1531 0.0
H68 H 0.48039 0.67031 0.14771 0.0
C69 C 0.38912 0.65035 0.11289 0.0
C70 C 0.42487 0.67156 0.12078 0.0
C71 C 0.38097 0.61269 0.1246 0.0
C72 C 0.40938 0.59609 0.14416 0.0
C73 C 0.44511 0.61696 0.15227 0.0
C74 C 0.45277 0.65449 0.14072 0.0
N75 N 0.47384 0.59977 0.17123 0.0
C76 C 0.47908 0.60485 0.20834 0.0
H77 H 0.1726 0.40434 0.59572 0.0
H78 H 0.12076 0.49152 0.65363 0.0
H79 H 0.05241 0.38762 0.6231 0.0
C80 C 0.14765 0.4151 0.60757 0.0
C81 C 0.1123 0.39182 0.60742 0.0
C82 C 0.15127 0.45145 0.62391 0.0
C83 C 0.11888 0.46368 0.64109 0.0
C84 C 0.08329 0.44053 0.64067 0.0
C85 C 0.08007 0.40513 0.62344 0.0
N86 N 0.04995 0.45269 0.65652 0.0
C87 C 0.04955 0.46461 0.69239 0.0
Zn88 Zn 0.97926 0.07484 0.57587 0.0
Zn89 Zn 0.07067 0.99801 0.4997 0.0
Zn90 Zn 0.02319 0.0365 0.53726 0.0
C91 C 0.09442 0.07407 0.48639 0.0
C92 C 0.99462 0.97679 0.47332 0.0
O93 O 0.02412 0.01712 0.59536 0.0
O94 O 0.98927 0.0556 0.62459 0.0
C95 C 0.03195 0.12808 0.54318 0.0
O96 O 0.06606 0.07735 0.50803 0.0
O97 O 0.10364 0.04164 0.47861 0.0
O98 O 0.02919 0.97032 0.46874 0.0
O99 O 0.98676 0.00121 0.49738 0.0
O100 O 0.00244 0.12622 0.56288 0.0
O101 O 0.04465 0.09753 0.53163 0.0
O102 O 0.96317 0.02662 0.51371 0.0
O103 O 0.92933 0.05706 0.55223 0.0
C104 C 0.93069 0.03731 0.52381 0.0
O105 O 0.05261 0.00028 0.57594 0.0
O106 O 0.09127 0.97094 0.54107 0.0
C107 C 0.00924 0.02815 0.62502 0.0
C108 C 0.07844 0.97721 0.57214 0.0
Zn109 Zn 0.47531 0.06723 0.02702 0.0
Zn110 Zn 0.56699 0.00448 0.10879 0.0
Zn111 Zn 0.52167 0.03473 0.06902 0.0
C112 C 0.61324 0.02945 0.05348 0.0
C113 C 0.51019 0.94698 0.09006 0.0
O114 O 0.48906 0.07226 0.10454 0.0
O115 O 0.44825 0.09284 0.06512 0.0
C116 C 0.55059 0.09268 0.00508 0.0
O117 O 0.58171 0.04384 0.0457 0.0
O118 O 0.61462 0.00872 0.08088 0.0
O119 O 0.53768 0.95434 0.11243 0.0
O120 O 0.50099 0.9729 0.06838 0.0
O121 O 0.51588 0.09816 0.99909 0.0
O122 O 0.55848 0.06879 0.02947 0.0
O123 O 0.48279 0.98921 0.03904 0.0
O124 O 0.44795 0.02163 0.00272 0.0
C125 C 0.45719 0.99024 0.01349 0.0
O126 O 0.51862 0.05922 0.1259 0.0
O127 O 0.56724 0.03497 0.15253 0.0
C128 C 0.46054 0.09149 0.09735 0.0
C129 C 0.54066 0.05614 0.15394 0.0
Zn130 Zn 0.55925 0.59333 0.59438 0.0
Zn131 Zn 0.45461 0.49975 0.5231 0.0
Zn132 Zn 0.50736 0.54602 0.55592 0.0
C133 C 0.5088 0.45447 0.54644 0.0
C134 C 0.48784 0.54875 0.47034 0.0
O135 O 0.47677 0.57851 0.59694 0.0
O136 O 0.52238 0.61412 0.62803 0.0
C137 C 0.57779 0.51865 0.60403 0.0
O138 O 0.52442 0.48704 0.55844 0.0
O139 O 0.47618 0.45169 0.53081 0.0
O140 O 0.46168 0.52147 0.47436 0.0
O141 O 0.50832 0.56235 0.49778 0.0
O142 O 0.5895 0.55267 0.61236 0.0
O143 O 0.54789 0.51095 0.5831 0.0
O144 O 0.5379 0.58524 0.51673 0.0
O145 O 0.5779 0.62361 0.55123 0.0
C146 C 0.56446 0.61354 0.52022 0.0
O147 O 0.44984 0.55111 0.58078 0.0
O148 O 0.40905 0.50914 0.55093 0.0
C149 C 0.48703 0.60315 0.62224 0.0
C150 C 0.41545 0.53409 0.57539 0.0
Zn151 Zn 0.07168 0.59874 0.00406 0.0
Zn152 Zn 0.96705 0.50631 0.06838 0.0
Zn153 Zn 0.01986 0.55248 0.03456 0.0
C154 C 0.03854 0.49078 0.09634 0.0
C155 C 0.95931 0.48876 0.99446 0.0
O156 O 0.00151 0.61104 0.03606 0.0
O157 O 0.04442 0.64439 0.00178 0.0
C158 C 0.10939 0.56916 0.06029 0.0
O159 O 0.05016 0.51927 0.07601 0.0
O160 O 0.00304 0.47854 0.09723 0.0
O161 O 0.94348 0.48031 0.02435 0.0
O162 O 0.98878 0.51423 0.99296 0.0
O163 O 0.11319 0.59779 0.04015 0.0
O164 O 0.07732 0.54694 0.06039 0.0
O165 O 0.02042 0.53555 0.97684 0.0
O166 O 0.0747 0.56829 0.95887 0.0
C167 C 0.04624 0.54366 0.95251 0.0
O168 O 0.9807 0.58857 0.06181 0.0
O169 O 0.94088 0.54727 0.09178 0.0
C170 C 0.01376 0.64214 0.01983 0.0
C171 C 0.95233 0.58124 0.08379 0.0
C172 C 0.20526 0.23488 0.35826 0.0
C173 C 0.20546 0.2162 0.32461 0.0
C174 C 0.18568 0.21744 0.38805 0.0
C175 C 0.16528 0.18071 0.38389 0.0
C176 C 0.16369 0.16274 0.34934 0.0
C177 C 0.18416 0.18047 0.32032 0.0
C178 C 0.18864 0.23741 0.4244 0.0
C179 C 0.14155 0.12404 0.34333 0.0
C180 C 0.15344 0.10767 0.45858 0.0
C181 C 0.11427 0.10717 0.46716 0.0
C182 C 0.17112 0.13361 0.43363 0.0
C183 C 0.14886 0.15914 0.41597 0.0
C184 C 0.10992 0.16051 0.42639 0.0
C185 C 0.09314 0.13463 0.4521 0.0
C186 C 0.21304 0.13191 0.42444 0.0
C187 C 0.08498 0.18709 0.40834 0.0
H188 H 0.22196 0.26241 0.36175 0.0
H189 H 0.18405 0.16609 0.29429 0.0
H190 H 0.15979 0.23645 0.43703 0.0
H191 H 0.20722 0.22267 0.44288 0.0
H192 H 0.20127 0.26749 0.42226 0.0
H193 H 0.13974 0.11573 0.31422 0.0
H194 H 0.15597 0.10254 0.35836 0.0
H195 H 0.11178 0.12344 0.35391 0.0
H196 H 0.16994 0.0866 0.47032 0.0
H197 H 0.06273 0.1341 0.45833 0.0
H198 H 0.22899 0.16082 0.4243 0.0
H199 H 0.21498 0.1196 0.39688 0.0
H200 H 0.2276 0.11429 0.44386 0.0
H201 H 0.10109 0.21563 0.40503 0.0
H202 H 0.05832 0.18989 0.42392 0.0
H203 H 0.07638 0.17595 0.38089 0.0
C204 C 0.36923 0.82442 0.87374 0.0
C205 C 0.35494 0.84427 0.84479 0.0
C206 C 0.38644 0.84366 0.90441 0.0
C207 C 0.39051 0.88383 0.90577 0.0
C208 C 0.37671 0.90396 0.87617 0.0
C209 C 0.35861 0.88394 0.84634 0.0
C210 C 0.39968 0.82092 0.93553 0.0
C211 C 0.38108 0.94675 0.87596 0.0
C212 C 0.4023 0.94348 0.99242 0.0
C213 C 0.44192 0.95608 0.99242 0.0
C214 C 0.38563 0.91762 0.96593 0.0
C215 C 0.40892 0.90516 0.93797 0.0
C216 C 0.44935 0.9165 0.93899 0.0
C217 C 0.46536 0.94166 0.96632 0.0
C218 C 0.34267 0.90546 0.96664 0.0
C219 C 0.47531 0.90445 0.90965 0.0
H220 H 0.366 0.79369 0.87276 0.0
H221 H 0.34764 0.89932 0.82395 0.0
H222 H 0.43143 0.82712 0.93928 0.0
H223 H 0.38596 0.8291 0.96095 0.0
H224 H 0.3925 0.78992 0.93115 0.0
H225 H 0.37034 0.95814 0.85029 0.0
H226 H 0.36485 0.95752 0.89878 0.0
H227 H 0.41195 0.95799 0.87987 0.0
H228 H 0.38407 0.95513 0.01223 0.0
H229 H 0.49588 0.95209 0.96585 0.0
H230 H 0.33659 0.87437 0.96236 0.0
H231 H 0.32823 0.91934 0.9443 0.0
H232 H 0.32969 0.91313 0.99265 0.0
H233 H 0.47037 0.87334 0.90527 0.0
H234 H 0.50641 0.91259 0.91617 0.0
H235 H 0.46833 0.91799 0.88377 0.0
C236 C 0.67074 0.37677 0.73487 0.0
C237 C 0.69297 0.35192 0.71745 0.0
C238 C 0.6523 0.40325 0.71498 0.0
C239 C 0.65611 0.4046 0.67678 0.0
C240 C 0.67882 0.37941 0.65919 0.0
C241 C 0.6971 0.3534 0.67985 0.0
C242 C 0.62863 0.4297 0.7348 0.0
C243 C 0.68447 0.37997 0.61871 0.0
C244 C 0.57905 0.45205 0.62604 0.0
C245 C 0.59839 0.48818 0.61975 0.0
C246 C 0.5979 0.42399 0.64321 0.0
C247 C 0.63666 0.43272 0.65556 0.0
C248 C 0.65648 0.469 0.64881 0.0
C249 C 0.63717 0.49619 0.63093 0.0
C250 C 0.57559 0.38558 0.64916 0.0
C251 C 0.69785 0.47937 0.66121 0.0
H252 H 0.66744 0.37521 0.76402 0.0
H253 H 0.71426 0.33389 0.66649 0.0
H254 H 0.63952 0.45957 0.72878 0.0
H255 H 0.5981 0.42486 0.72527 0.0
H256 H 0.62941 0.42574 0.76461 0.0
H257 H 0.68913 0.35147 0.6082 0.0
H258 H 0.65956 0.38973 0.60402 0.0
H259 H 0.71057 0.39972 0.61247 0.0
H260 H 0.54879 0.44596 0.61853 0.0
H261 H 0.65235 0.52408 0.62616 0.0
H262 H 0.5624 0.38516 0.67639 0.0
H263 H 0.5946 0.36261 0.648 0.0
H264 H 0.55194 0.37943 0.62874 0.0
H265 H 0.70006 0.47643 0.69105 0.0
H266 H 0.70917 0.50883 0.65392 0.0
H267 H 0.71656 0.45965 0.64884 0.0
C268 C 0.82739 0.73874 0.16404 0.0
C269 C 0.8298 0.73709 0.20184 0.0
C270 C 0.85113 0.71874 0.14221 0.0
C271 C 0.87746 0.69638 0.15878 0.0
C272 C 0.88157 0.69677 0.19707 0.0
C273 C 0.85749 0.71707 0.21819 0.0
C274 C 0.84604 0.71942 0.10156 0.0
C275 C 0.9096 0.67373 0.21583 0.0
C276 C 0.89534 0.60362 0.11401 0.0
C277 C 0.9327 0.61202 0.10027 0.0
C278 C 0.87685 0.63117 0.13212 0.0
C279 C 0.89617 0.66824 0.13687 0.0
C280 C 0.93355 0.67731 0.12228 0.0
C281 C 0.9514 0.64903 0.10414 0.0
C282 C 0.83687 0.62025 0.14695 0.0
C283 C 0.9549 0.71662 0.12625 0.0
H284 H 0.80574 0.75426 0.15154 0.0
H285 H 0.85913 0.71586 0.24752 0.0
H286 H 0.8745 0.7229 0.08804 0.0
H287 H 0.83043 0.69202 0.09213 0.0
H288 H 0.82926 0.74259 0.09278 0.0
H289 H 0.91273 0.68066 0.24519 0.0
H290 H 0.89924 0.64312 0.21278 0.0
H291 H 0.93848 0.67861 0.20317 0.0
H292 H 0.88054 0.57518 0.11093 0.0
H293 H 0.98049 0.65558 0.09415 0.0
H294 H 0.8166 0.63966 0.13654 0.0
H295 H 0.83767 0.623 0.17692 0.0
H296 H 0.8252 0.5907 0.13962 0.0
H297 H 0.93977 0.73682 0.11019 0.0
H298 H 0.98519 0.71803 0.11676 0.0
H299 H 0.9552 0.72619 0.15495 0.0
C300 C 0.35336 0.22113 0.23544 0.0
C301 C 0.31482 0.20489 0.2387 0.0
C302 C 0.38098 0.20171 0.21779 0.0
C303 C 0.36974 0.1654 0.20235 0.0
C304 C 0.33134 0.14813 0.20712 0.0
C305 C 0.30447 0.16794 0.2254 0.0
C306 C 0.42176 0.22085 0.21417 0.0
C307 C 0.31793 0.10961 0.19097 0.0
C308 C 0.4174 0.13992 0.1148 0.0
C309 C 0.44074 0.11218 0.1257 0.0
C310 C 0.39491 0.15763 0.13957 0.0
C311 C 0.396 0.14812 0.17669 0.0
C312 C 0.42074 0.12134 0.18833 0.0
C313 C 0.44231 0.10321 0.1626 0.0
C314 C 0.36903 0.18586 0.12566 0.0
C315 C 0.42366 0.11098 0.22773 0.0
H316 H 0.3618 0.24939 0.24623 0.0
H317 H 0.27479 0.15519 0.22774 0.0
H318 H 0.443 0.20085 0.22083 0.0
H319 H 0.4267 0.22982 0.18573 0.0
H320 H 0.42743 0.24626 0.23204 0.0
H321 H 0.28848 0.0985 0.19997 0.0
H322 H 0.31759 0.11149 0.16097 0.0
H323 H 0.33827 0.08903 0.19848 0.0
H324 H 0.41598 0.14737 0.08644 0.0
H325 H 0.45929 0.0812 0.17125 0.0
H326 H 0.37606 0.21352 0.13979 0.0
H327 H 0.33838 0.1757 0.13143 0.0
H328 H 0.37185 0.19048 0.09604 0.0
H329 H 0.42611 0.13673 0.24521 0.0
H330 H 0.44893 0.0953 0.23322 0.0
H331 H 0.39702 0.09282 0.23554 0.0
C332 C 0.15755 0.85559 0.7342 0.0
C333 C 0.19799 0.86175 0.73459 0.0
C334 C 0.13555 0.87684 0.71167 0.0
C335 C 0.1546 0.90475 0.6888 0.0
C336 C 0.19554 0.91219 0.69052 0.0
C337 C 0.21681 0.89044 0.71336 0.0
C338 C 0.09214 0.86746 0.71087 0.0
C339 C 0.21697 0.94183 0.66686 0.0
C340 C 0.10805 0.92259 0.59791 0.0
C341 C 0.09431 0.95777 0.60347 0.0
C342 C 0.12696 0.90491 0.62565 0.0
C343 C 0.13237 0.92271 0.66007 0.0
C344 C 0.1173 0.95762 0.66635 0.0
C345 C 0.09894 0.97502 0.63779 0.0
C346 C 0.14182 0.86739 0.61784 0.0
C347 C 0.12153 0.97722 0.70282 0.0
H348 H 0.14306 0.8332 0.75062 0.0
H349 H 0.24816 0.89505 0.71373 0.0
H350 H 0.07719 0.89222 0.70329 0.0
H351 H 0.08415 0.84467 0.69049 0.0
H352 H 0.08135 0.85693 0.73757 0.0
H353 H 0.24835 0.94651 0.67361 0.0
H354 H 0.21347 0.93284 0.63803 0.0
H355 H 0.20464 0.96913 0.66974 0.0
H356 H 0.1045 0.90901 0.57148 0.0
H357 H 0.08944 0.00267 0.64202 0.0
H358 H 0.12908 0.8457 0.63705 0.0
H359 H 0.17367 0.87016 0.62179 0.0
H360 H 0.13483 0.85705 0.58978 0.0
H361 H 0.11662 0.95649 0.72508 0.0
H362 H 0.10103 0.99881 0.70575 0.0
H363 H 0.15142 0.99161 0.70594 0.0
C364 C 0.79486 0.37211 0.89193 0.0
C365 C 0.80038 0.35579 0.85796 0.0
C366 C 0.82403 0.39704 0.90864 0.0
C367 C 0.8597 0.40623 0.89086 0.0
C368 C 0.86472 0.39159 0.85564 0.0
C369 C 0.83497 0.36646 0.83958 0.0
C370 C 0.81727 0.41206 0.94616 0.0
C371 C 0.90215 0.40099 0.83569 0.0
C372 C 0.92102 0.48852 0.93712 0.0
C373 C 0.94236 0.46923 0.96174 0.0
C374 C 0.89612 0.46847 0.9115 0.0
C375 C 0.8924 0.42831 0.91094 0.0
C376 C 0.91616 0.40902 0.9341 0.0
C377 C 0.94063 0.42975 0.95943 0.0
C378 C 0.87153 0.49007 0.88712 0.0
C379 C 0.91327 0.36628 0.93442 0.0
H380 H 0.76791 0.36456 0.90595 0.0
H381 H 0.8395 0.35387 0.81335 0.0
H382 H 0.83729 0.4007 0.9658 0.0
H383 H 0.82341 0.4434 0.9469 0.0
H384 H 0.78714 0.40409 0.95528 0.0
H385 H 0.89972 0.39155 0.80691 0.0
H386 H 0.91125 0.43195 0.8367 0.0
H387 H 0.92532 0.38693 0.84904 0.0
H388 H 0.92176 0.51904 0.93957 0.0
H389 H 0.9568 0.41493 0.97891 0.0
H390 H 0.84088 0.48498 0.89549 0.0
H391 H 0.87291 0.47993 0.85871 0.0
H392 H 0.88072 0.52107 0.88811 0.0
H393 H 0.88523 0.35474 0.94626 0.0
H394 H 0.93696 0.35592 0.9506 0.0
H395 H 0.91407 0.35481 0.90644 0.0
C396 C 0.67373 0.72446 0.35355 0.0
C397 C 0.7132 0.72632 0.36235 0.0
C398 C 0.64567 0.70508 0.37581 0.0
C399 C 0.65736 0.68684 0.40739 0.0
C400 C 0.69728 0.68756 0.41564 0.0
C401 C 0.72467 0.70746 0.39316 0.0
C402 C 0.6035 0.70476 0.366 0.0
C403 C 0.71106 0.66788 0.44864 0.0
C404 C 0.59413 0.67206 0.49016 0.0
C405 C 0.58203 0.63309 0.48823 0.0
C406 C 0.61667 0.6903 0.46279 0.0
C407 C 0.62813 0.66887 0.4331 0.0
C408 C 0.61442 0.62976 0.43018 0.0
C409 C 0.59134 0.61236 0.45776 0.0
C410 C 0.63006 0.73212 0.46676 0.0
C411 C 0.62639 0.60534 0.39964 0.0
H412 H 0.66473 0.73915 0.32984 0.0
H413 H 0.7552 0.70837 0.39974 0.0
H414 H 0.58922 0.67526 0.36595 0.0
H415 H 0.58906 0.72084 0.38671 0.0
H416 H 0.59913 0.71733 0.33902 0.0
H417 H 0.7431 0.66967 0.45036 0.0
H418 H 0.70048 0.68083 0.47353 0.0
H419 H 0.69901 0.63756 0.44815 0.0
H420 H 0.58689 0.68812 0.51374 0.0
H421 H 0.58253 0.58208 0.45647 0.0
H422 H 0.62436 0.74712 0.44136 0.0
H423 H 0.66175 0.73631 0.4719 0.0
H424 H 0.61557 0.7454 0.48942 0.0
H425 H 0.63208 0.62162 0.37438 0.0
H426 H 0.60393 0.58107 0.39399 0.0
H427 H 0.65342 0.59364 0.40766 0.0
C428 C 0.16499 0.37544 0.23186 0.0
C429 C 0.19444 0.36051 0.2129 0.0
C430 C 0.13967 0.39776 0.21409 0.0
C431 C 0.1442 0.40546 0.1766 0.0
C432 C 0.17419 0.39037 0.15756 0.0
C433 C 0.19883 0.36801 0.17594 0.0
C434 C 0.10802 0.41301 0.23538 0.0
C435 C 0.18001 0.39729 0.11761 0.0
C436 C 0.05829 0.43032 0.12036 0.0
C437 C 0.06607 0.46983 0.11708 0.0
C438 C 0.08312 0.40925 0.13997 0.0
C439 C 0.11679 0.428 0.15689 0.0
C440 C 0.12462 0.46799 0.154 0.0
C441 C 0.09894 0.48844 0.13445 0.0
C442 C 0.07344 0.36679 0.14228 0.0
C443 C 0.16036 0.48906 0.17122 0.0
H444 H 0.16193 0.36989 0.26058 0.0
H445 H 0.22186 0.35661 0.16138 0.0
H446 H 0.11095 0.44438 0.23377 0.0
H447 H 0.07939 0.40226 0.22348 0.0
H448 H 0.10854 0.40482 0.26435 0.0
H449 H 0.15766 0.37892 0.10198 0.0
H450 H 0.17671 0.42708 0.11083 0.0
H451 H 0.20893 0.39084 0.10866 0.0
H452 H 0.03276 0.4157 0.10718 0.0
H453 H 0.10415 0.51902 0.13337 0.0
H454 H 0.07219 0.35798 0.17105 0.0
H455 H 0.09647 0.35248 0.12927 0.0
H456 H 0.04536 0.35668 0.12888 0.0
H457 H 0.16031 0.48439 0.20089 0.0
H458 H 0.16264 0.52002 0.16614 0.0
H459 H 0.18638 0.47784 0.16036 0.0
C460 C 0.70716 0.19895 0.87052 0.0
C461 C 0.7101 0.23783 0.87868 0.0
C462 C 0.68612 0.17228 0.89282 0.0
C463 C 0.66676 0.18494 0.92336 0.0
C464 C 0.67107 0.22402 0.93251 0.0
C465 C 0.69288 0.24994 0.91019 0.0
C466 C 0.68336 0.13072 0.88296 0.0
C467 C 0.65086 0.23873 0.96477 0.0
C468 C 0.57158 0.13065 0.95082 0.0
C469 C 0.58143 0.11397 0.98345 0.0
C470 C 0.59933 0.15299 0.93071 0.0
C471 C 0.63824 0.15834 0.94309 0.0
C472 C 0.64876 0.14041 0.97529 0.0
C473 C 0.62003 0.1192 0.99554 0.0
C474 C 0.58667 0.17184 0.89674 0.0
C475 C 0.68999 0.14453 0.98916 0.0
H476 H 0.72092 0.18946 0.84645 0.0
H477 H 0.69495 0.27998 0.91649 0.0
H478 H 0.68774 0.11357 0.90735 0.0
H479 H 0.65403 0.12115 0.87196 0.0
H480 H 0.70493 0.12491 0.86231 0.0
H481 H 0.65908 0.26955 0.96951 0.0
H482 H 0.61907 0.23365 0.96042 0.0
H483 H 0.65783 0.22328 0.98954 0.0
H484 H 0.54185 0.12679 0.94117 0.0
H485 H 0.62772 0.10755 0.02126 0.0
H486 H 0.60365 0.16367 0.87329 0.0
H487 H 0.59227 0.2031 0.89991 0.0
H488 H 0.55545 0.16419 0.89043 0.0
H489 H 0.71082 0.14542 0.96658 0.0
H490 H 0.69528 0.12088 0.00742 0.0
H491 H 0.69586 0.17146 0.00473 0.0
C492 C 0.84905 0.81446 0.38455 0.0
C493 C 0.82726 0.82501 0.35496 0.0
C494 C 0.87485 0.84127 0.40326 0.0
C495 C 0.87846 0.87971 0.3925 0.0
C496 C 0.85611 0.89062 0.3629 0.0
C497 C 0.83103 0.86301 0.3442 0.0
C498 C 0.89854 0.82837 0.43435 0.0
C499 C 0.85856 0.93145 0.35117 0.0
C500 C 0.92548 0.94928 0.46323 0.0
C501 C 0.96371 0.95502 0.45119 0.0
C502 C 0.89677 0.92663 0.44328 0.0
C503 C 0.90698 0.90793 0.41135 0.0
C504 C 0.94545 0.91396 0.39885 0.0
C505 C 0.97321 0.93764 0.41874 0.0
C506 C 0.85588 0.92171 0.45709 0.0
C507 C 0.95768 0.89426 0.36518 0.0
H508 H 0.84613 0.78506 0.39282 0.0
H509 H 0.81369 0.87125 0.32166 0.0
H510 H 0.92982 0.83484 0.4286 0.0
H511 H 0.89275 0.84398 0.45949 0.0
H512 H 0.89222 0.79749 0.43937 0.0
H513 H 0.83824 0.9355 0.32848 0.0
H514 H 0.85201 0.94972 0.3743 0.0
H515 H 0.88839 0.94134 0.34248 0.0
H516 H 0.9182 0.96131 0.48889 0.0
H517 H 0.00272 0.94186 0.40921 0.0
H518 H 0.84885 0.89249 0.46734 0.0
H519 H 0.83506 0.92567 0.43484 0.0
H520 H 0.85165 0.94205 0.47933 0.0
H521 H 0.95414 0.86314 0.3693 0.0
H522 H 0.98829 0.90333 0.35818 0.0
H523 H 0.93899 0.90005 0.34182 0.0
C524 C 0.38854 0.75745 0.7286 0.0
C525 C 0.35291 0.74642 0.7449 0.0
C526 C 0.40707 0.73168 0.70781 0.0
C527 C 0.39007 0.69358 0.70386 0.0
C528 C 0.3541 0.68222 0.7204 0.0
C529 C 0.33577 0.70887 0.74039 0.0
C530 C 0.44493 0.7453 0.69002 0.0
C531 C 0.3354 0.64175 0.71763 0.0
C532 C 0.42792 0.63678 0.62641 0.0
C533 C 0.45801 0.62067 0.6437 0.0
C534 C 0.40449 0.6595 0.64583 0.0
C535 C 0.41093 0.6656 0.68357 0.0
C536 C 0.43984 0.64736 0.70142 0.0
C537 C 0.46342 0.62568 0.68117 0.0
C538 C 0.37444 0.67876 0.62557 0.0
C539 C 0.44701 0.65203 0.7417 0.0
H540 H 0.40164 0.78653 0.73162 0.0
H541 H 0.30831 0.70016 0.75313 0.0
H542 H 0.46835 0.73011 0.70143 0.0
H543 H 0.44299 0.73889 0.66053 0.0
H544 H 0.45315 0.77624 0.69389 0.0
H545 H 0.30691 0.63765 0.73117 0.0
H546 H 0.33129 0.63294 0.68882 0.0
H547 H 0.35465 0.6226 0.73026 0.0
H548 H 0.42429 0.63356 0.5973 0.0
H549 H 0.48677 0.61325 0.69455 0.0
H550 H 0.38205 0.70996 0.62709 0.0
H551 H 0.34575 0.67223 0.63823 0.0
H552 H 0.37202 0.66999 0.5966 0.0
H553 H 0.45959 0.68155 0.74788 0.0
H554 H 0.46718 0.63246 0.7521 0.0
H555 H 0.41937 0.64685 0.75651 0.0
C556 C 0.92607 0.9396 0.80082 0.0
C557 C 0.95031 0.92713 0.82764 0.0
C558 C 0.94058 0.95137 0.76688 0.0
C559 C 0.98055 0.9515 0.75973 0.0
C560 C 0.00491 0.93764 0.7863 0.0
C561 C 0.98944 0.92536 0.81985 0.0
C562 C 0.91334 0.96521 0.73917 0.0
C563 C 0.04769 0.93777 0.78021 0.0
C564 C 0.00584 0.96784 0.66041 0.0
C565 C 0.01172 0.00754 0.65956 0.0
C566 C 0.99837 0.94867 0.69334 0.0
C567 C 0.99688 0.96979 0.726 0.0
C568 C 0.00641 0.00964 0.72547 0.0
C569 C 0.01333 0.02799 0.69228 0.0
C570 C 0.98902 0.90615 0.69262 0.0
C571 C 0.00651 0.03328 0.75967 0.0
H572 H 0.89578 0.94076 0.80669 0.0
H573 H 0.00837 0.91607 0.84066 0.0
H574 H 0.92076 0.99612 0.73517 0.0
H575 H 0.91641 0.95097 0.71267 0.0
H576 H 0.88264 0.96 0.74753 0.0
H577 H 0.06097 0.91917 0.79963 0.0
H578 H 0.05327 0.92844 0.75226 0.0
H579 H 0.06224 0.96707 0.7837 0.0
H580 H 0.00443 0.95192 0.63515 0.0
H581 H 0.01819 0.0587 0.69173 0.0
H582 H 0.95717 0.89889 0.6935 0.0
H583 H 0.00167 0.89316 0.71653 0.0
H584 H 0.99977 0.89345 0.66762 0.0
H585 H 0.9764 0.03357 0.7691 0.0
H586 H 0.01928 0.06303 0.75543 0.0
H587 H 0.02302 0.02086 0.78154 0.0
C588 C 0.64053 0.14162 0.31935 0.0
C589 C 0.62223 0.1447 0.35277 0.0
C590 C 0.61913 0.13362 0.2872 0.0
C591 C 0.57816 0.12956 0.288 0.0
C592 C 0.55949 0.13635 0.32092 0.0
C593 C 0.58167 0.14333 0.353 0.0
C594 C 0.64051 0.12677 0.25281 0.0
C595 C 0.51602 0.13399 0.32284 0.0
C596 C 0.53825 0.11498 0.19188 0.0
C597 C 0.5362 0.07544 0.18901 0.0
C598 C 0.54753 0.13343 0.22543 0.0
C599 C 0.55593 0.11176 0.2561 0.0
C600 C 0.54955 0.07171 0.25387 0.0
C601 C 0.53945 0.05417 0.22047 0.0
C602 C 0.55151 0.1761 0.22714 0.0
C603 C 0.55771 0.04716 0.28565 0.0
H604 H 0.67182 0.14411 0.31846 0.0
H605 H 0.56697 0.14587 0.37846 0.0
H606 H 0.63388 0.09665 0.24426 0.0
H607 H 0.63089 0.14448 0.23063 0.0
H608 H 0.67235 0.13316 0.25623 0.0
H609 H 0.50692 0.15095 0.34598 0.0
H610 H 0.50338 0.14403 0.29744 0.0
H611 H 0.50383 0.10408 0.32682 0.0
H612 H 0.53559 0.13153 0.16762 0.0
H613 H 0.53749 0.02352 0.21828 0.0
H614 H 0.58207 0.18739 0.22238 0.0
H615 H 0.54329 0.18634 0.25414 0.0
H616 H 0.53329 0.18772 0.20602 0.0
H617 H 0.58926 0.05046 0.2916 0.0
H618 H 0.54814 0.01667 0.28033 0.0
H619 H 0.54299 0.05605 0.31021 0.0
C620 C 0.52121 0.60591 0.26228 0.0
C621 C 0.48439 0.60689 0.24711 0.0
C622 C 0.52615 0.60276 0.2999 0.0
C623 C 0.49339 0.60012 0.32255 0.0
C624 C 0.4564 0.60346 0.30724 0.0
C625 C 0.45233 0.60671 0.26953 0.0
C626 C 0.56608 0.59987 0.31503 0.0
C627 C 0.42084 0.60126 0.33045 0.0
C628 C 0.49127 0.53682 0.40452 0.0
C629 C 0.49484 0.56298 0.43329 0.0
C630 C 0.49224 0.54874 0.3685 0.0
C631 C 0.49667 0.58798 0.36089 0.0
C632 C 0.50196 0.61467 0.38988 0.0
C633 C 0.50097 0.60179 0.4259 0.0
C634 C 0.48674 0.51919 0.33861 0.0
C635 C 0.50641 0.65679 0.38339 0.0
H636 H 0.54596 0.60616 0.24467 0.0
H637 H 0.42388 0.60759 0.25747 0.0
H638 H 0.57002 0.61452 0.34161 0.0
H639 H 0.56983 0.5696 0.3192 0.0
H640 H 0.58894 0.61219 0.29641 0.0
H641 H 0.3949 0.60776 0.31495 0.0
H642 H 0.41489 0.57232 0.34171 0.0
H643 H 0.42573 0.62137 0.35365 0.0
H644 H 0.48673 0.50674 0.41026 0.0
H645 H 0.50324 0.62208 0.44815 0.0
H646 H 0.51101 0.52338 0.31932 0.0
H647 H 0.45971 0.52221 0.3232 0.0
H648 H 0.48502 0.48984 0.34914 0.0
H649 H 0.5189 0.66417 0.35652 0.0
H650 H 0.52491 0.67209 0.4048 0.0
H651 H 0.47751 0.66702 0.38457 0.0
C652 C 0.03414 0.44576 0.75483 0.0
C653 C 0.04676 0.47409 0.73019 0.0
C654 C 0.03114 0.45431 0.79182 0.0
C655 C 0.04114 0.49207 0.80416 0.0
C656 C 0.05336 0.52085 0.77901 0.0
C657 C 0.05608 0.51144 0.74218 0.0
C658 C 0.01808 0.42289 0.81776 0.0
C659 C 0.064 0.56148 0.79107 0.0
C660 C 0.00866 0.52468 0.8961 0.0
C661 C 0.0429 0.52555 0.91644 0.0
C662 C 0.00721 0.51279 0.85965 0.0
C663 C 0.04078 0.50129 0.84352 0.0
C664 C 0.07496 0.50069 0.86457 0.0
C665 C 0.0757 0.51325 0.90069 0.0
C666 C 0.97045 0.51434 0.83792 0.0
C667 C 0.11119 0.48814 0.84858 0.0
H668 H 0.02681 0.41687 0.74517 0.0
H669 H 0.06563 0.53321 0.72278 0.0
H670 H 0.04226 0.41834 0.83646 0.0
H671 H 0.99403 0.43084 0.8346 0.0
H672 H 0.00835 0.39574 0.80348 0.0
H673 H 0.07103 0.58073 0.7679 0.0
H674 H 0.03982 0.5716 0.80629 0.0
H675 H 0.08943 0.56341 0.80967 0.0
H676 H 0.9838 0.53544 0.90803 0.0
H677 H 0.10224 0.51418 0.91652 0.0
H678 H 0.96134 0.48648 0.82485 0.0
H679 H 0.97566 0.53539 0.81597 0.0
H680 H 0.94648 0.52233 0.85486 0.0
H681 H 0.10466 0.45983 0.83553 0.0
H682 H 0.13438 0.48669 0.86928 0.0
H683 H 0.12229 0.50825 0.82726 0.0
C684 C 0.78766 0.96399 0.95502 0.0
C685 C 0.81777 0.99103 0.94471 0.0
C686 C 0.75222 0.97501 0.9665 0.0
C687 C 0.74706 0.01405 0.96789 0.0
C688 C 0.77668 0.04122 0.95507 0.0
C689 C 0.81189 0.02935 0.94377 0.0
C690 C 0.72134 0.94504 0.97959 0.0
C691 C 0.77202 0.08294 0.9554 0.0
C692 C 0.64472 0.03261 0.99242 0.0
C693 C 0.64783 0.03448 0.03031 0.0
C694 C 0.67743 0.0288 0.9711 0.0
C695 C 0.71373 0.02629 0.98826 0.0
C696 C 0.71731 0.03118 0.02631 0.0
C697 C 0.68438 0.03516 0.04676 0.0
C698 C 0.67236 0.02473 0.9306 0.0
C699 C 0.75544 0.02943 0.04586 0.0
H700 H 0.79244 0.93436 0.95576 0.0
H701 H 0.83541 0.05022 0.93576 0.0
H702 H 0.71856 0.94771 0.0094 0.0
H703 H 0.69294 0.94906 0.96718 0.0
H704 H 0.72805 0.91592 0.97313 0.0
H705 H 0.79566 0.09993 0.94077 0.0
H706 H 0.74393 0.08772 0.94282 0.0
H707 H 0.77193 0.09346 0.98378 0.0
H708 H 0.61646 0.03191 0.97959 0.0
H709 H 0.68691 0.03694 0.07606 0.0
H710 H 0.66812 0.99417 0.92325 0.0
H711 H 0.69826 0.03788 0.91623 0.0
H712 H 0.64667 0.03781 0.9209 0.0
H713 H 0.76378 0.00026 0.0438 0.0
H714 H 0.75407 0.03715 0.075 0.0
H715 H 0.7786 0.04879 0.03314 0.0
C716 C 0.73336 0.06725 0.41847 0.0
C717 C 0.73448 0.10612 0.42625 0.0
C718 C 0.76506 0.04742 0.42721 0.0
C719 C 0.7984 0.067 0.44416 0.0
C720 C 0.80048 0.10675 0.44959 0.0
C721 C 0.7686 0.1257 0.44058 0.0
C722 C 0.76182 0.00524 0.42031 0.0
C723 C 0.8355 0.12906 0.46714 0.0
C724 C 0.85919 0.02966 0.51751 0.0
C725 C 0.89531 0.03173 0.50081 0.0
C726 C 0.826 0.03674 0.49806 0.0
C727 C 0.82902 0.0463 0.46096 0.0
C728 C 0.86437 0.04354 0.44294 0.0
C729 C 0.89732 0.03649 0.46319 0.0
C730 C 0.78879 0.03834 0.51834 0.0
C731 C 0.86848 0.05182 0.40311 0.0
H732 H 0.70707 0.05199 0.40728 0.0
H733 H 0.76983 0.15588 0.44597 0.0
H734 H 0.79003 0.99617 0.4124 0.0
H735 H 0.75263 0.99014 0.4455 0.0
H736 H 0.74001 0.99636 0.39877 0.0
H737 H 0.83369 0.16009 0.46695 0.0
H738 H 0.83828 0.12008 0.49569 0.0
H739 H 0.86218 0.1234 0.45295 0.0
H740 H 0.85743 0.0254 0.54653 0.0
H741 H 0.92516 0.03791 0.45008 0.0
H742 H 0.76388 0.02408 0.50258 0.0
H743 H 0.78379 0.06839 0.52237 0.0
H744 H 0.78959 0.02482 0.54534 0.0
H745 H 0.84181 0.0409 0.38784 0.0
H746 H 0.8934 0.03912 0.39151 0.0
H747 H 0.87339 0.08295 0.39929 0.0
C748 C 0.32347 0.59587 0.08407 0.0
C749 C 0.34203 0.5919 0.11747 0.0
C750 C 0.28426 0.5829 0.07898 0.0
C751 C 0.26314 0.5648 0.10783 0.0
C752 C 0.28258 0.55752 0.14049 0.0
C753 C 0.32188 0.57128 0.14498 0.0
C754 C 0.2648 0.59139 0.04363 0.0
C755 C 0.26158 0.5366 0.17114 0.0
C756 C 0.16183 0.59129 0.10324 0.0
C757 C 0.14329 0.56175 0.08195 0.0
C758 C 0.19999 0.59062 0.11527 0.0
C759 C 0.22017 0.55977 0.10531 0.0
C760 C 0.20025 0.52808 0.08686 0.0
C761 C 0.16177 0.52944 0.07527 0.0
C762 C 0.21989 0.62485 0.13528 0.0
C763 C 0.22053 0.4942 0.07699 0.0
H764 H 0.33924 0.61074 0.06232 0.0
H765 H 0.33618 0.56773 0.17076 0.0
H766 H 0.24813 0.56538 0.0323 0.0
H767 H 0.24409 0.61238 0.04848 0.0
H768 H 0.28587 0.60305 0.02306 0.0
H769 H 0.27977 0.53677 0.19608 0.0
H770 H 0.23472 0.54915 0.17767 0.0
H771 H 0.25315 0.50674 0.1627 0.0
H772 H 0.14733 0.61624 0.10827 0.0
H773 H 0.14724 0.50665 0.0587 0.0
H774 H 0.24138 0.64054 0.11729 0.0
H775 H 0.23572 0.616 0.15942 0.0
H776 H 0.19916 0.6445 0.14419 0.0
H777 H 0.24514 0.50286 0.0589 0.0
H778 H 0.20085 0.47163 0.0631 0.0
H779 H 0.23263 0.4824 0.10182 0.0
C780 C 0.21177 0.47558 0.59157 0.0
C781 C 0.18897 0.47608 0.62259 0.0
C782 C 0.24938 0.4943 0.59096 0.0
C783 C 0.26442 0.51538 0.62177 0.0
C784 C 0.24047 0.51883 0.65208 0.0
C785 C 0.20317 0.49867 0.65237 0.0
C786 C 0.27371 0.48966 0.55788 0.0
C787 C 0.25456 0.54221 0.68493 0.0
C788 C 0.37111 0.50981 0.62292 0.0
C789 C 0.3834 0.53948 0.5996 0.0
C790 C 0.33278 0.50425 0.63466 0.0
C791 C 0.30645 0.52933 0.62296 0.0
C792 C 0.32046 0.56264 0.60416 0.0
C793 C 0.35878 0.56692 0.59184 0.0
C794 C 0.31938 0.46861 0.65514 0.0
C795 C 0.29387 0.5914 0.59348 0.0
H796 H 0.20057 0.45951 0.56788 0.0
H797 H 0.18581 0.49957 0.67648 0.0
H798 H 0.2841 0.51778 0.54659 0.0
H799 H 0.29952 0.47569 0.5655 0.0
H800 H 0.25752 0.47241 0.53621 0.0
H801 H 0.23012 0.55358 0.69879 0.0
H802 H 0.26808 0.52403 0.70449 0.0
H803 H 0.27637 0.56622 0.6778 0.0
H804 H 0.39028 0.48853 0.62866 0.0
H805 H 0.36824 0.58971 0.57349 0.0
H806 H 0.30209 0.44821 0.63668 0.0
H807 H 0.30058 0.47496 0.67788 0.0
H808 H 0.34403 0.45477 0.66611 0.0
H809 H 0.27624 0.58082 0.5695 0.0
H810 H 0.31035 0.61898 0.58646 0.0
H811 H 0.27374 0.59594 0.61579 0.0
C812 C 0.91344 0.82773 0.96536 0.0
C813 C 0.93835 0.8435 0.93823 0.0
C814 C 0.92096 0.79491 0.98412 0.0
C815 C 0.95357 0.77658 0.97494 0.0
C816 C 0.97864 0.79207 0.94751 0.0
C817 C 0.97108 0.82546 0.92997 0.0
C818 C 0.89407 0.77986 0.0138 0.0
C819 C 0.01357 0.77329 0.93651 0.0
C820 C 0.00327 0.70881 0.03349 0.0
C821 C 0.99021 0.67391 0.01716 0.0
C822 C 0.9886 0.74225 0.02249 0.0
C823 C 0.96162 0.74086 0.99328 0.0
C824 C 0.94655 0.70518 0.9784 0.0
C825 C 0.96079 0.67207 0.99083 0.0
C826 C 0.00431 0.77936 0.0402 0.0
C827 C 0.91829 0.70224 0.9469 0.0
H828 H 0.88774 0.84081 0.97185 0.0
H829 H 0.99126 0.83758 0.90996 0.0
H830 H 0.87999 0.7512 0.00633 0.0
H831 H 0.91071 0.77698 0.03926 0.0
H832 H 0.8712 0.79851 0.01913 0.0
H833 H 0.02936 0.78805 0.91375 0.0
H834 H 0.03382 0.77282 0.95989 0.0
H835 H 0.00458 0.74343 0.92823 0.0
H836 H 0.02644 0.71024 0.05352 0.0
H837 H 0.95137 0.64511 0.97766 0.0
H838 H 0.98079 0.79737 0.04487 0.0
H839 H 0.02559 0.79505 0.02205 0.0
H840 H 0.01894 0.775 0.06649 0.0
H841 H 0.89443 0.71969 0.95192 0.0
H842 H 0.90571 0.6725 0.9415 0.0
H843 H 0.9334 0.71329 0.9222 0.0
C844 C 0.46935 0.72613 0.09684 0.0
C845 C 0.43261 0.71171 0.10905 0.0
C846 C 0.47799 0.76465 0.08865 0.0
C847 C 0.44907 0.78933 0.09237 0.0
C848 C 0.41126 0.77456 0.10241 0.0
C849 C 0.40357 0.73603 0.11099 0.0
C850 C 0.51875 0.77932 0.07816 0.0
C851 C 0.37951 0.79986 0.10621 0.0
C852 C 0.48764 0.88835 0.12292 0.0
C853 C 0.48944 0.90833 0.09027 0.0
C854 C 0.4733 0.84998 0.12399 0.0
C855 C 0.46011 0.831 0.09157 0.0
C856 C 0.46001 0.85144 0.05874 0.0
C857 C 0.47498 0.88998 0.05846 0.0
C858 C 0.47397 0.8294 0.15964 0.0
C859 C 0.44565 0.83238 0.02374 0.0
H860 H 0.49169 0.70741 0.09436 0.0
H861 H 0.37514 0.72537 0.12064 0.0
H862 H 0.5185 0.79712 0.05364 0.0
H863 H 0.53267 0.79745 0.10038 0.0
H864 H 0.53672 0.75602 0.07283 0.0
H865 H 0.35055 0.78327 0.1082 0.0
H866 H 0.38477 0.8176 0.13104 0.0
H867 H 0.3793 0.81929 0.08285 0.0
H868 H 0.49855 0.90257 0.1477 0.0
H869 H 0.4772 0.90509 0.03317 0.0
H870 H 0.49372 0.80707 0.15784 0.0
H871 H 0.44475 0.81518 0.16576 0.0
H872 H 0.48377 0.84872 0.18259 0.0
H873 H 0.46597 0.81235 0.01492 0.0
H874 H 0.44315 0.85329 0.00189 0.0
H875 H 0.41703 0.81573 0.02755 0.0
C876 C 0.12067 0.34647 0.55621 0.0
C877 C 0.10905 0.35299 0.59177 0.0
C878 C 0.11474 0.30991 0.54062 0.0
C879 C 0.09717 0.27937 0.56133 0.0
C880 C 0.08731 0.28569 0.59787 0.0
C881 C 0.09313 0.32242 0.61249 0.0
C882 C 0.12545 0.30444 0.50159 0.0
C883 C 0.06909 0.25388 0.6212 0.0
C884 C 0.03018 0.19553 0.52838 0.0
C885 C 0.05219 0.16587 0.53582 0.0
C886 C 0.04619 0.23336 0.53216 0.0
C887 C 0.08491 0.24157 0.54454 0.0
C888 C 0.10851 0.21176 0.54789 0.0
C889 C 0.09181 0.17399 0.54326 0.0
C890 C 0.02029 0.26425 0.52702 0.0
C891 C 0.15011 0.21931 0.56033 0.0
H892 H 0.13304 0.37019 0.54018 0.0
H893 H 0.08478 0.32738 0.64019 0.0
H894 H 0.13888 0.27785 0.49789 0.0
H895 H 0.09888 0.30215 0.48443 0.0
H896 H 0.14566 0.32858 0.49173 0.0
H897 H 0.06625 0.26292 0.64983 0.0
H898 H 0.03984 0.24356 0.61041 0.0
H899 H 0.08658 0.22968 0.62058 0.0
H900 H 0.99959 0.1891 0.52208 0.0
H901 H 0.10885 0.15095 0.54885 0.0
H902 H 0.03578 0.28881 0.51287 0.0
H903 H 0.0116 0.27434 0.55391 0.0
H904 H 0.99366 0.25403 0.51129 0.0
H905 H 0.16459 0.24553 0.54807 0.0
H906 H 0.16657 0.19526 0.55347 0.0
H907 H 0.1511 0.22334 0.59019 0.0
C908 C 0.5984 0.27822 0.46938 0.0
C909 C 0.61303 0.25439 0.49469 0.0
C910 C 0.58373 0.31165 0.48073 0.0
C911 C 0.58387 0.32119 0.51818 0.0
C912 C 0.59923 0.29718 0.54364 0.0
C913 C 0.61356 0.26399 0.53154 0.0
C914 C 0.56768 0.33656 0.45275 0.0
C915 C 0.60003 0.30622 0.58368 0.0
C916 C 0.56974 0.42352 0.54121 0.0
C917 C 0.52971 0.42045 0.54659 0.0
C918 C 0.58824 0.3912 0.5335 0.0
C919 C 0.56605 0.35517 0.53077 0.0
C920 C 0.52607 0.35178 0.53838 0.0
C921 C 0.50843 0.38442 0.54613 0.0
C922 C 0.63103 0.39613 0.52607 0.0
C923 C 0.50142 0.31391 0.53644 0.0
H924 H 0.59836 0.2707 0.44085 0.0
H925 H 0.62519 0.24542 0.551 0.0
H926 H 0.53661 0.3384 0.45793 0.0
H927 H 0.58289 0.36574 0.45482 0.0
H928 H 0.57062 0.32575 0.42471 0.0
H929 H 0.61785 0.28784 0.5993 0.0
H930 H 0.61161 0.33623 0.58853 0.0
H931 H 0.57015 0.30234 0.59424 0.0
H932 H 0.58625 0.45133 0.54107 0.0
H933 H 0.47747 0.38192 0.55038 0.0
H934 H 0.63543 0.39611 0.49634 0.0
H935 H 0.64537 0.37247 0.5375 0.0
H936 H 0.64538 0.42331 0.53743 0.0
H937 H 0.5004 0.30296 0.50816 0.0
H938 H 0.47133 0.31576 0.5454 0.0
H939 H 0.51425 0.29296 0.55354 0.0
loop_
_geom_bond_atom_site_label_1
_geom_bond_atom_site_label_2
_geom_bond_distance
_geom_bond_site_symmetry_2
_ccdc_geom_bond_type
H0 C3 0.929 . S
H1 C6 0.929 . S
H2 C8 0.930 . S
C3 H0 0.929 . S
C3 C4 1.398 . S
C3 C5 1.396 . S
C4 C3 1.398 . S
C4 C8 1.407 . S
C5 C3 1.396 . S
C5 C6 1.394 . S
C6 H1 0.929 . S
C6 C5 1.394 . S
C6 C7 1.382 . S
C7 C6 1.382 . S
C7 C8 1.392 . S
C7 N9 1.420 . S
C8 H2 0.930 . S
C8 C4 1.407 . S
C8 C7 1.392 . S
N9 C7 1.420 . S
N9 C10 1.244 . S
C10 N9 1.244 . S
H11 C14 0.929 . S
H12 C17 0.929 . S
H13 C19 0.930 . S
C14 H11 0.929 . S
C14 C15 1.398 . S
C14 C16 1.396 . S
C15 C14 1.398 . S
C15 C19 1.407 . S
C16 C14 1.396 . S
C16 C17 1.394 . S
C17 H12 0.929 . S
C17 C16 1.394 . S
C17 C18 1.382 . S
C18 C17 1.382 . S
C18 C19 1.392 . S
C18 N20 1.420 . S
C19 H13 0.930 . S
C19 C15 1.407 . S
C19 C18 1.392 . S
N20 C18 1.420 . S
N20 C21 1.244 . S
C21 N20 1.244 . S
H22 C25 0.929 . S
H23 C28 0.929 . S
H24 C30 0.930 . S
C25 H22 0.929 . S
C25 C26 1.398 . S
C25 C27 1.396 . S
C26 C25 1.398 . S
C26 C30 1.407 . S
C27 C25 1.396 . S
C27 C28 1.394 . S
C28 H23 0.929 . S
C28 C27 1.394 . S
C28 C29 1.382 . S
C29 C28 1.382 . S
C29 C30 1.392 . S
C29 N31 1.420 . S
C30 H24 0.930 . S
C30 C26 1.407 . S
C30 C29 1.392 . S
N31 C29 1.420 . S
N31 C32 1.244 . S
C32 N31 1.244 . S
H33 C36 0.929 . S
H34 C39 0.929 . S
H35 C41 0.930 . S
C36 H33 0.929 . S
C36 C37 1.398 . S
C36 C38 1.396 . S
C37 C36 1.398 . S
C37 C41 1.407 . S
C38 C36 1.396 . S
C38 C39 1.394 . S
C39 H34 0.929 . S
C39 C38 1.394 . S
C39 C40 1.382 . S
C40 C39 1.382 . S
C40 C41 1.392 . S
C40 N42 1.420 . S
C41 H35 0.930 . S
C41 C37 1.407 . S
C41 C40 1.392 . S
N42 C40 1.420 . S
N42 C43 1.244 . S
C43 N42 1.244 . S
H44 C47 0.929 . S
H45 C50 0.929 . S
H46 C52 0.930 1_545 S
C47 H44 0.929 . S
C47 C48 1.398 . S
C47 C49 1.396 . S
C48 C47 1.398 . S
C48 C52 1.407 . S
C49 C47 1.396 . S
C49 C50 1.394 . S
C50 H45 0.929 . S
C50 C49 1.394 . S
C50 C51 1.382 . S
C51 C50 1.382 . S
C51 C52 1.392 . S
C51 N53 1.420 1_565 S
C52 H46 0.930 1_565 S
C52 C48 1.407 . S
C52 C51 1.392 . S
N53 C51 1.420 1_545 S
N53 C54 1.244 1_545 S
C54 N53 1.244 1_565 S
H55 C58 0.929 . S
H56 C61 0.929 . S
H57 C63 0.930 . S
C58 H55 0.929 . S
C58 C59 1.398 . S
C58 C60 1.396 . S
C59 C58 1.398 . S
C59 C63 1.407 . S
C60 C58 1.396 . S
C60 C61 1.394 . S
C61 H56 0.929 . S
C61 C60 1.394 . S
C61 C62 1.382 . S
C62 C61 1.382 . S
C62 C63 1.392 . S
C62 N64 1.420 . S
C63 H57 0.930 . S
C63 C59 1.407 . S
C63 C62 1.392 . S
N64 C62 1.420 . S
N64 C65 1.244 . S
C65 N64 1.244 . S
H66 C69 0.929 . S
H67 C72 0.929 . S
H68 C74 0.930 . S
C69 H66 0.929 . S
C69 C70 1.398 . S
C69 C71 1.396 . S
C70 C69 1.398 . S
C70 C74 1.407 . S
C71 C69 1.396 . S
C71 C72 1.394 . S
C72 H67 0.929 . S
C72 C71 1.394 . S
C72 C73 1.382 . S
C73 C72 1.382 . S
C73 C74 1.392 . S
C73 N75 1.420 . S
C74 H68 0.930 . S
C74 C70 1.407 . S
C74 C73 1.392 . S
N75 C73 1.420 . S
N75 C76 1.244 . S
C76 N75 1.244 . S
H77 C80 0.929 . S
H78 C83 0.929 . S
H79 C85 0.930 . S
C80 H77 0.929 . S
C80 C81 1.398 . S
C80 C82 1.396 . S
C81 C80 1.398 . S
C81 C85 1.407 . S
C82 C80 1.396 . S
C82 C83 1.394 . S
C83 H78 0.929 . S
C83 C82 1.394 . S
C83 C84 1.382 . S
C84 C83 1.382 . S
C84 C85 1.392 . S
C84 N86 1.420 . S
C85 H79 0.930 . S
C85 C81 1.407 . S
C85 C84 1.392 . S
N86 C84 1.420 . S
N86 C87 1.244 . S
C87 N86 1.244 . S
Zn88 O94 1.920 . S
Zn88 O100 1.898 . S
Zn88 O103 1.905 . S
Zn89 O97 1.905 1_565 S
Zn89 O98 1.898 . S
Zn89 O106 1.920 . S
Zn90 O93 2.080 1_455 S
Zn90 O96 2.114 . S
Zn90 O99 2.120 1_445 S
Zn90 O101 2.120 . S
Zn90 O102 2.114 1_455 S
Zn90 O105 2.080 . S
C91 O96 1.166 . S
C91 O97 1.182 . S
C92 O98 1.167 1_655 S
C92 O99 1.299 . S
O93 Zn90 2.080 1_655 S
O93 C107 1.305 . S
O94 Zn88 1.920 . S
O94 C107 1.234 . S
C95 O100 1.167 1_455 S
C95 O101 1.299 . S
O96 Zn90 2.114 . S
O96 C91 1.166 . S
O97 Zn89 1.905 1_545 S
O97 C91 1.182 . S
O98 Zn89 1.898 . S
O98 C92 1.167 1_455 S
O99 Zn90 2.120 1_665 S
O99 C92 1.299 . S
O100 Zn88 1.898 . S
O100 C95 1.167 1_655 S
O101 Zn90 2.120 . S
O101 C95 1.299 . S
O102 Zn90 2.114 1_655 S
O102 C104 1.166 . S
O103 Zn88 1.905 . S
O103 C104 1.182 . S
C104 O102 1.166 . S
C104 O103 1.182 . S
O105 Zn90 2.080 . S
O105 C108 1.305 1_545 S
O106 Zn89 1.920 . S
O106 C108 1.234 . S
C107 O93 1.305 . S
C107 O94 1.234 . S
C108 O105 1.305 1_565 S
C108 O106 1.234 . S
Zn109 O115 1.920 . S
Zn109 O121 1.897 1_554 S
Zn109 O124 1.905 1_554 S
Zn110 O118 1.905 . S
Zn110 O119 1.898 . S
Zn110 O127 1.920 . S
Zn111 O114 2.080 . S
Zn111 O117 2.117 . S
Zn111 O120 2.120 1_545 S
Zn111 O122 2.120 . S
Zn111 O123 2.114 . S
Zn111 O126 2.080 . S
C112 O117 1.165 1_565 S
C112 O118 1.185 . S
C113 O119 1.167 . S
C113 O120 1.299 . S
O114 Zn111 2.080 . S
O114 C128 1.305 . S
O115 Zn109 1.920 . S
O115 C128 1.234 . S
C116 O121 1.165 1_554 S
C116 O122 1.299 . S
O117 Zn111 2.117 . S
O117 C112 1.165 1_545 S
O118 Zn110 1.905 . S
O118 C112 1.185 . S
O119 Zn110 1.898 . S
O119 C113 1.167 . S
O120 Zn111 2.120 1_565 S
O120 C113 1.299 . S
O121 Zn109 1.897 1_556 S
O121 C116 1.165 1_556 S
O122 Zn111 2.120 . S
O122 C116 1.299 . S
O123 Zn111 2.114 . S
O123 C125 1.167 1_544 S
O124 Zn109 1.905 1_556 S
O124 C125 1.176 1_545 S
C125 O123 1.167 1_566 S
C125 O124 1.176 1_565 S
O126 Zn111 2.080 . S
O126 C129 1.305 . S
O127 Zn110 1.920 . S
O127 C129 1.234 1_565 S
C128 O114 1.305 . S
C128 O115 1.234 . S
C129 O126 1.305 . S
C129 O127 1.234 1_545 S
Zn130 O136 1.920 . S
Zn130 O142 1.898 . S
Zn130 O145 1.905 . S
Zn131 O139 1.905 . S
Zn131 O140 1.898 . S
Zn131 O148 1.920 . S
Zn132 O135 2.080 . S
Zn132 O138 2.114 . S
Zn132 O141 2.120 . S
Zn132 O143 2.120 . S
Zn132 O144 2.114 . S
Zn132 O147 2.080 . S
C133 O138 1.166 . S
C133 O139 1.182 . S
C134 O140 1.167 . S
C134 O141 1.299 . S
O135 Zn132 2.080 . S
O135 C149 1.305 . S
O136 Zn130 1.920 . S
O136 C149 1.234 . S
C137 O142 1.167 . S
C137 O143 1.299 . S
O138 Zn132 2.114 . S
O138 C133 1.166 . S
O139 Zn131 1.905 . S
O139 C133 1.182 . S
O140 Zn131 1.898 . S
O140 C134 1.167 . S
O141 Zn132 2.120 . S
O141 C134 1.299 . S
O142 Zn130 1.898 . S
O142 C137 1.167 . S
O143 Zn132 2.120 . S
O143 C137 1.299 . S
O144 Zn132 2.114 . S
O144 C146 1.166 . S
O145 Zn130 1.905 . S
O145 C146 1.182 . S
C146 O144 1.166 . S
C146 O145 1.182 . S
O147 Zn132 2.080 . S
O147 C150 1.305 . S
O148 Zn131 1.920 . S
O148 C150 1.234 . S
C149 O135 1.305 . S
C149 O136 1.234 . S
C150 O147 1.305 . S
C150 O148 1.234 . S
Zn151 O157 1.920 . S
Zn151 O163 1.898 . S
Zn151 O166 1.905 . S
Zn152 O160 1.905 1_655 S
Zn152 O161 1.898 . S
Zn152 O169 1.920 . S
Zn153 O156 2.080 1_554 S
Zn153 O159 2.114 . S
Zn153 O162 2.120 1_454 S
Zn153 O164 2.120 . S
Zn153 O165 2.114 1_554 S
Zn153 O168 2.080 . S
C154 O159 1.166 . S
C154 O160 1.182 . S
C155 O161 1.167 1_556 S
C155 O162 1.299 . S
O156 Zn153 2.080 1_556 S
O156 C170 1.305 . S
O157 Zn151 1.920 . S
O157 C170 1.234 . S
C158 O163 1.167 1_554 S
C158 O164 1.299 . S
O159 Zn153 2.114 . S
O159 C154 1.166 . S
O160 Zn152 1.905 1_455 S
O160 C154 1.182 . S
O161 Zn152 1.898 . S
O161 C155 1.167 1_554 S
O162 Zn153 2.120 1_656 S
O162 C155 1.299 . S
O163 Zn151 1.898 . S
O163 C158 1.167 1_556 S
O164 Zn153 2.120 . S
O164 C158 1.299 . S
O165 Zn153 2.114 1_556 S
O165 C167 1.166 . S
O166 Zn151 1.905 . S
O166 C167 1.182 . S
C167 O165 1.166 . S
C167 O166 1.182 . S
O168 Zn153 2.080 . S
O168 C171 1.305 1_455 S
O169 Zn152 1.920 . S
O169 C171 1.234 . S
C170 O156 1.305 . S
C170 O157 1.234 . S
C171 O168 1.305 1_655 S
C171 O169 1.234 . S
C172 C173 1.391 . S
C172 C174 1.394 . S
C172 H188 0.931 . S
C173 C172 1.391 . S
C173 C177 1.376 . S
C174 C172 1.394 . S
C174 C175 1.369 . S
C174 C178 1.531 . S
C175 C174 1.369 . S
C175 C176 1.410 . S
C175 C183 1.503 . S
C176 C175 1.410 . S
C176 C177 1.392 . S
C176 C179 1.511 . S
C177 C173 1.376 . S
C177 C176 1.392 . S
C177 H189 0.929 . S
C178 C174 1.531 . S
C178 H190 0.960 . S
C178 H191 0.962 . S
C178 H192 0.960 . S
C179 C176 1.511 . S
C179 H193 0.961 . S
C179 H194 0.961 . S
C179 H195 0.961 . S
C180 C181 1.370 . S
C180 C182 1.363 . S
C180 H196 0.931 . S
C181 C180 1.370 . S
C181 C185 1.408 . S
C182 C180 1.363 . S
C182 C183 1.370 . S
C182 C186 1.524 . S
C183 C175 1.503 . S
C183 C182 1.370 . S
C183 C184 1.403 . S
C184 C183 1.403 . S
C184 C185 1.404 . S
C184 C187 1.539 . S
C185 C181 1.408 . S
C185 C184 1.404 . S
C185 H197 0.930 . S
C186 C182 1.524 . S
C186 H198 0.956 . S
C186 H199 0.961 . S
C186 H200 0.961 . S
C187 C184 1.539 . S
C187 H201 0.958 . S
C187 H202 0.961 . S
C187 H203 0.960 . S
H188 C172 0.931 . S
H189 C177 0.929 . S
H190 C178 0.960 . S
H191 C178 0.962 . S
H192 C178 0.960 . S
H193 C179 0.961 . S
H194 C179 0.961 . S
H195 C179 0.961 . S
H196 C180 0.931 . S
H197 C185 0.930 . S
H198 C186 0.956 . S
H199 C186 0.961 . S
H200 C186 0.961 . S
H201 C187 0.958 . S
H202 C187 0.961 . S
H203 C187 0.960 . S
C204 C205 1.391 . S
C204 C206 1.394 . S
C204 H220 0.931 . S
C205 C204 1.391 . S
C205 C209 1.376 . S
C206 C204 1.394 . S
C206 C207 1.369 . S
C206 C210 1.531 . S
C207 C206 1.369 . S
C207 C208 1.410 . S
C207 C215 1.503 . S
C208 C207 1.410 . S
C208 C209 1.392 . S
C208 C211 1.511 . S
C209 C205 1.376 . S
C209 C208 1.392 . S
C209 H221 0.929 . S
C210 C206 1.531 . S
C210 H222 0.960 . S
C210 H223 0.962 . S
C210 H224 0.960 . S
C211 C208 1.511 . S
C211 H225 0.961 . S
C211 H226 0.961 . S
C211 H227 0.961 . S
C212 C213 1.370 . S
C212 C214 1.363 . S
C212 H228 0.931 1_565 S
C213 C212 1.370 . S
C213 C217 1.408 . S
C214 C212 1.363 . S
C214 C215 1.370 . S
C214 C218 1.524 . S
C215 C207 1.503 . S
C215 C214 1.370 . S
C215 C216 1.403 . S
C216 C215 1.403 . S
C216 C217 1.404 . S
C216 C219 1.539 . S
C217 C213 1.408 . S
C217 C216 1.404 . S
C217 H229 0.930 . S
C218 C214 1.524 . S
C218 H230 0.956 . S
C218 H231 0.961 . S
C218 H232 0.961 1_565 S
C219 C216 1.539 . S
C219 H233 0.958 . S
C219 H234 0.961 . S
C219 H235 0.960 . S
H220 C204 0.931 . S
H221 C209 0.929 . S
H222 C210 0.960 . S
H223 C210 0.962 . S
H224 C210 0.960 . S
H225 C211 0.961 . S
H226 C211 0.961 . S
H227 C211 0.961 . S
H228 C212 0.931 1_545 S
H229 C217 0.930 . S
H230 C218 0.956 . S
H231 C218 0.961 . S
H232 C218 0.961 1_545 S
H233 C219 0.958 . S
H234 C219 0.961 . S
H235 C219 0.960 . S
C236 C237 1.391 . S
C236 C238 1.394 . S
C236 H252 0.931 . S
C237 C236 1.391 . S
C237 C241 1.376 . S
C238 C236 1.394 . S
C238 C239 1.369 . S
C238 C242 1.531 . S
C239 C238 1.369 . S
C239 C240 1.410 . S
C239 C247 1.503 . S
C240 C239 1.410 . S
C240 C241 1.392 . S
C240 C243 1.511 . S
C241 C237 1.376 . S
C241 C240 1.392 . S
C241 H253 0.929 . S
C242 C238 1.531 . S
C242 H254 0.960 . S
C242 H255 0.962 . S
C242 H256 0.960 . S
C243 C240 1.511 . S
C243 H257 0.961 . S
C243 H258 0.961 . S
C243 H259 0.961 . S
C244 C245 1.370 . S
C244 C246 1.363 . S
C244 H260 0.931 . S
C245 C244 1.370 . S
C245 C249 1.408 . S
C246 C244 1.363 . S
C246 C247 1.370 . S
C246 C250 1.524 . S
C247 C239 1.503 . S
C247 C246 1.370 . S
C247 C248 1.403 . S
C248 C247 1.403 . S
C248 C249 1.404 . S
C248 C251 1.539 . S
C249 C245 1.408 . S
C249 C248 1.404 . S
C249 H261 0.930 . S
C250 C246 1.524 . S
C250 H262 0.956 . S
C250 H263 0.961 . S
C250 H264 0.961 . S
C251 C248 1.539 . S
C251 H265 0.958 . S
C251 H266 0.961 . S
C251 H267 0.960 . S
H252 C236 0.931 . S
H253 C241 0.929 . S
H254 C242 0.960 . S
H255 C242 0.962 . S
H256 C242 0.960 . S
H257 C243 0.961 . S
H258 C243 0.961 . S
H259 C243 0.961 . S
H260 C244 0.931 . S
H261 C249 0.930 . S
H262 C250 0.956 . S
H263 C250 0.961 . S
H264 C250 0.961 . S
H265 C251 0.958 . S
H266 C251 0.961 . S
H267 C251 0.960 . S
C268 C269 1.391 . S
C268 C270 1.394 . S
C268 H284 0.931 . S
C269 C268 1.391 . S
C269 C273 1.376 . S
C270 C268 1.394 . S
C270 C271 1.369 . S
C270 C274 1.531 . S
C271 C270 1.369 . S
C271 C272 1.410 . S
C271 C279 1.503 . S
C272 C271 1.410 . S
C272 C273 1.392 . S
C272 C275 1.511 . S
C273 C269 1.376 . S
C273 C272 1.392 . S
C273 H285 0.929 . S
C274 C270 1.531 . S
C274 H286 0.960 . S
C274 H287 0.962 . S
C274 H288 0.960 . S
C275 C272 1.511 . S
C275 H289 0.961 . S
C275 H290 0.961 . S
C275 H291 0.961 . S
C276 C277 1.370 . S
C276 C278 1.363 . S
C276 H292 0.931 . S
C277 C276 1.370 . S
C277 C281 1.408 1_655 S
C278 C276 1.363 . S
C278 C279 1.370 . S
C278 C282 1.524 . S
C279 C271 1.503 . S
C279 C278 1.370 . S
C279 C280 1.403 . S
C280 C279 1.403 . S
C280 C281 1.404 1_655 S
C280 C283 1.539 1_655 S
C281 C277 1.408 1_455 S
C281 C280 1.404 1_455 S
C281 H293 0.930 . S
C282 C278 1.524 . S
C282 H294 0.956 . S
C282 H295 0.961 . S
C282 H296 0.961 . S
C283 C280 1.539 1_455 S
C283 H297 0.958 . S
C283 H298 0.961 . S
C283 H299 0.960 . S
H284 C268 0.931 . S
H285 C273 0.929 . S
H286 C274 0.960 . S
H287 C274 0.962 . S
H288 C274 0.960 . S
H289 C275 0.961 . S
H290 C275 0.961 . S
H291 C275 0.961 . S
H292 C276 0.931 . S
H293 C281 0.930 . S
H294 C282 0.956 . S
H295 C282 0.961 . S
H296 C282 0.961 . S
H297 C283 0.958 . S
H298 C283 0.961 . S
H299 C283 0.960 . S
C300 C301 1.391 . S
C300 C302 1.394 . S
C300 H316 0.931 . S
C301 C300 1.391 . S
C301 C305 1.376 . S
C302 C300 1.394 . S
C302 C303 1.369 . S
C302 C306 1.531 . S
C303 C302 1.369 . S
C303 C304 1.410 . S
C303 C311 1.503 . S
C304 C303 1.410 . S
C304 C305 1.392 . S
C304 C307 1.511 . S
C305 C301 1.376 . S
C305 C304 1.392 . S
C305 H317 0.929 . S
C306 C302 1.531 . S
C306 H318 0.960 . S
C306 H319 0.962 . S
C306 H320 0.960 . S
C307 C304 1.511 . S
C307 H321 0.961 . S
C307 H322 0.961 . S
C307 H323 0.961 . S
C308 C309 1.370 . S
C308 C310 1.363 . S
C308 H324 0.931 . S
C309 C308 1.370 . S
C309 C313 1.408 . S
C310 C308 1.363 . S
C310 C311 1.370 . S
C310 C314 1.524 . S
C311 C303 1.503 . S
C311 C310 1.370 . S
C311 C312 1.403 . S
C312 C311 1.403 . S
C312 C313 1.404 . S
C312 C315 1.539 . S
C313 C309 1.408 . S
C313 C312 1.404 . S
C313 H325 0.930 . S
C314 C310 1.524 . S
C314 H326 0.956 . S
C314 H327 0.961 . S
C314 H328 0.961 . S
C315 C312 1.539 . S
C315 H329 0.958 . S
C315 H330 0.961 . S
C315 H331 0.960 . S
H316 C300 0.931 . S
H317 C305 0.929 . S
H318 C306 0.960 . S
H319 C306 0.962 . S
H320 C306 0.960 . S
H321 C307 0.961 . S
H322 C307 0.961 . S
H323 C307 0.961 . S
H324 C308 0.931 . S
H325 C313 0.930 . S
H326 C314 0.956 . S
H327 C314 0.961 . S
H328 C314 0.961 . S
H329 C315 0.958 . S
H330 C315 0.961 . S
H331 C315 0.960 . S
C332 C333 1.391 . S
C332 C334 1.394 . S
C332 H348 0.931 . S
C333 C332 1.391 . S
C333 C337 1.376 . S
C334 C332 1.394 . S
C334 C335 1.369 . S
C334 C338 1.531 . S
C335 C334 1.369 . S
C335 C336 1.410 . S
C335 C343 1.503 . S
C336 C335 1.410 . S
C336 C337 1.392 . S
C336 C339 1.511 . S
C337 C333 1.376 . S
C337 C336 1.392 . S
C337 H349 0.929 . S
C338 C334 1.531 . S
C338 H350 0.960 . S
C338 H351 0.962 . S
C338 H352 0.960 . S
C339 C336 1.511 . S
C339 H353 0.961 . S
C339 H354 0.961 . S
C339 H355 0.961 . S
C340 C341 1.370 . S
C340 C342 1.363 . S
C340 H356 0.931 . S
C341 C340 1.370 . S
C341 C345 1.408 1_565 S
C342 C340 1.363 . S
C342 C343 1.370 . S
C342 C346 1.524 . S
C343 C335 1.503 . S
C343 C342 1.370 . S
C343 C344 1.403 1_565 S
C344 C343 1.403 1_545 S
C344 C345 1.404 . S
C344 C347 1.539 . S
C345 C341 1.408 1_545 S
C345 C344 1.404 . S
C345 H357 0.930 . S
C346 C342 1.524 . S
C346 H358 0.956 . S
C346 H359 0.961 . S
C346 H360 0.961 . S
C347 C344 1.539 . S
C347 H361 0.958 . S
C347 H362 0.961 . S
C347 H363 0.960 . S
H348 C332 0.931 . S
H349 C337 0.929 . S
H350 C338 0.960 . S
H351 C338 0.962 . S
H352 C338 0.960 . S
H353 C339 0.961 . S
H354 C339 0.961 . S
H355 C339 0.961 . S
H356 C340 0.931 . S
H357 C345 0.930 . S
H358 C346 0.956 . S
H359 C346 0.961 . S
H360 C346 0.961 . S
H361 C347 0.958 . S
H362 C347 0.961 . S
H363 C347 0.960 . S
C364 C365 1.391 . S
C364 C366 1.394 . S
C364 H380 0.931 . S
C365 C364 1.391 . S
C365 C369 1.376 . S
C366 C364 1.394 . S
C366 C367 1.369 . S
C366 C370 1.531 . S
C367 C366 1.369 . S
C367 C368 1.410 . S
C367 C375 1.503 . S
C368 C367 1.410 . S
C368 C369 1.392 . S
C368 C371 1.511 . S
C369 C365 1.376 . S
C369 C368 1.392 . S
C369 H381 0.929 . S
C370 C366 1.531 . S
C370 H382 0.960 . S
C370 H383 0.962 . S
C370 H384 0.960 . S
C371 C368 1.511 . S
C371 H385 0.961 . S
C371 H386 0.961 . S
C371 H387 0.961 . S
C372 C373 1.370 . S
C372 C374 1.363 . S
C372 H388 0.931 . S
C373 C372 1.370 . S
C373 C377 1.408 . S
C374 C372 1.363 . S
C374 C375 1.370 . S
C374 C378 1.524 . S
C375 C367 1.503 . S
C375 C374 1.370 . S
C375 C376 1.403 . S
C376 C375 1.403 . S
C376 C377 1.404 . S
C376 C379 1.539 . S
C377 C373 1.408 . S
C377 C376 1.404 . S
C377 H389 0.930 1_556 S
C378 C374 1.524 . S
C378 H390 0.956 . S
C378 H391 0.961 . S
C378 H392 0.961 . S
C379 C376 1.539 . S
C379 H393 0.958 1_556 S
C379 H394 0.961 1_556 S
C379 H395 0.960 . S
H380 C364 0.931 . S
H381 C369 0.929 . S
H382 C370 0.960 . S
H383 C370 0.962 . S
H384 C370 0.960 . S
H385 C371 0.961 . S
H386 C371 0.961 . S
H387 C371 0.961 . S
H388 C372 0.931 . S
H389 C377 0.930 1_554 S
H390 C378 0.956 . S
H391 C378 0.961 . S
H392 C378 0.961 . S
H393 C379 0.958 1_554 S
H394 C379 0.961 1_554 S
H395 C379 0.960 . S
C396 C397 1.391 . S
C396 C398 1.394 . S
C396 H412 0.931 . S
C397 C396 1.391 . S
C397 C401 1.376 . S
C398 C396 1.394 . S
C398 C399 1.369 . S
C398 C402 1.531 . S
C399 C398 1.369 . S
C399 C400 1.410 . S
C399 C407 1.503 . S
C400 C399 1.410 . S
C400 C401 1.392 . S
C400 C403 1.511 . S
C401 C397 1.376 . S
C401 C400 1.392 . S
C401 H413 0.929 . S
C402 C398 1.531 . S
C402 H414 0.960 . S
C402 H415 0.962 . S
C402 H416 0.960 . S
C403 C400 1.511 . S
C403 H417 0.961 . S
C403 H418 0.961 . S
C403 H419 0.961 . S
C404 C405 1.370 . S
C404 C406 1.363 . S
C404 H420 0.931 . S
C405 C404 1.370 . S
C405 C409 1.408 . S
C406 C404 1.363 . S
C406 C407 1.370 . S
C406 C410 1.524 . S
C407 C399 1.503 . S
C407 C406 1.370 . S
C407 C408 1.403 . S
C408 C407 1.403 . S
C408 C409 1.404 . S
C408 C411 1.539 . S
C409 C405 1.408 . S
C409 C408 1.404 . S
C409 H421 0.930 . S
C410 C406 1.524 . S
C410 H422 0.956 . S
C410 H423 0.961 . S
C410 H424 0.961 . S
C411 C408 1.539 . S
C411 H425 0.958 . S
C411 H426 0.961 . S
C411 H427 0.960 . S
H412 C396 0.931 . S
H413 C401 0.929 . S
H414 C402 0.960 . S
H415 C402 0.962 . S
H416 C402 0.960 . S
H417 C403 0.961 . S
H418 C403 0.961 . S
H419 C403 0.961 . S
H420 C404 0.931 . S
H421 C409 0.930 . S
H422 C410 0.956 . S
H423 C410 0.961 . S
H424 C410 0.961 . S
H425 C411 0.958 . S
H426 C411 0.961 . S
H427 C411 0.960 . S
C428 C429 1.391 . S
C428 C430 1.394 . S
C428 H444 0.931 . S
C429 C428 1.391 . S
C429 C433 1.376 . S
C430 C428 1.394 . S
C430 C431 1.369 . S
C430 C434 1.531 . S
C431 C430 1.369 . S
C431 C432 1.410 . S
C431 C439 1.503 . S
C432 C431 1.410 . S
C432 C433 1.392 . S
C432 C435 1.511 . S
C433 C429 1.376 . S
C433 C432 1.392 . S
C433 H445 0.929 . S
C434 C430 1.531 . S
C434 H446 0.960 . S
C434 H447 0.962 . S
C434 H448 0.960 . S
C435 C432 1.511 . S
C435 H449 0.961 . S
C435 H450 0.961 . S
C435 H451 0.961 . S
C436 C437 1.370 . S
C436 C438 1.363 . S
C436 H452 0.931 . S
C437 C436 1.370 . S
C437 C441 1.408 . S
C438 C436 1.363 . S
C438 C439 1.370 . S
C438 C442 1.524 . S
C439 C431 1.503 . S
C439 C438 1.370 . S
C439 C440 1.403 . S
C440 C439 1.403 . S
C440 C441 1.404 . S
C440 C443 1.539 . S
C441 C437 1.408 . S
C441 C440 1.404 . S
C441 H453 0.930 . S
C442 C438 1.524 . S
C442 H454 0.956 . S
C442 H455 0.961 . S
C442 H456 0.961 . S
C443 C440 1.539 . S
C443 H457 0.958 . S
C443 H458 0.961 . S
C443 H459 0.960 . S
H444 C428 0.931 . S
H445 C433 0.929 . S
H446 C434 0.960 . S
H447 C434 0.962 . S
H448 C434 0.960 . S
H449 C435 0.961 . S
H450 C435 0.961 . S
H451 C435 0.961 . S
H452 C436 0.931 . S
H453 C441 0.930 . S
H454 C442 0.956 . S
H455 C442 0.961 . S
H456 C442 0.961 . S
H457 C443 0.958 . S
H458 C443 0.961 . S
H459 C443 0.960 . S
C460 C461 1.391 . S
C460 C462 1.394 . S
C460 H476 0.931 . S
C461 C460 1.391 . S
C461 C465 1.376 . S
C462 C460 1.394 . S
C462 C463 1.369 . S
C462 C466 1.531 . S
C463 C462 1.369 . S
C463 C464 1.410 . S
C463 C471 1.503 . S
C464 C463 1.410 . S
C464 C465 1.392 . S
C464 C467 1.511 1_556 S
C465 C461 1.376 . S
C465 C464 1.392 . S
C465 H477 0.929 . S
C466 C462 1.531 . S
C466 H478 0.960 . S
C466 H479 0.962 . S
C466 H480 0.960 . S
C467 C464 1.511 1_554 S
C467 H481 0.961 . S
C467 H482 0.961 . S
C467 H483 0.961 . S
C468 C469 1.370 1_556 S
C468 C470 1.363 . S
C468 H484 0.931 . S
C469 C468 1.370 1_554 S
C469 C473 1.408 . S
C470 C468 1.363 . S
C470 C471 1.370 . S
C470 C474 1.524 . S
C471 C463 1.503 . S
C471 C470 1.370 . S
C471 C472 1.403 . S
C472 C471 1.403 . S
C472 C473 1.404 1_556 S
C472 C475 1.539 1_556 S
C473 C469 1.408 . S
C473 C472 1.404 1_554 S
C473 H485 0.930 . S
C474 C470 1.524 . S
C474 H486 0.956 . S
C474 H487 0.961 . S
C474 H488 0.961 . S
C475 C472 1.539 1_554 S
C475 H489 0.958 1_554 S
C475 H490 0.961 . S
C475 H491 0.960 . S
H476 C460 0.931 . S
H477 C465 0.929 . S
H478 C466 0.960 . S
H479 C466 0.962 . S
H480 C466 0.960 . S
H481 C467 0.961 . S
H482 C467 0.961 . S
H483 C467 0.961 . S
H484 C468 0.931 . S
H485 C473 0.930 . S
H486 C474 0.956 . S
H487 C474 0.961 . S
H488 C474 0.961 . S
H489 C475 0.958 1_556 S
H490 C475 0.961 . S
H491 C475 0.960 . S
C492 C493 1.391 . S
C492 C494 1.394 . S
C492 H508 0.931 . S
C493 C492 1.391 . S
C493 C497 1.376 . S
C494 C492 1.394 . S
C494 C495 1.369 . S
C494 C498 1.531 . S
C495 C494 1.369 . S
C495 C496 1.410 . S
C495 C503 1.503 . S
C496 C495 1.410 . S
C496 C497 1.392 . S
C496 C499 1.511 . S
C497 C493 1.376 . S
C497 C496 1.392 . S
C497 H509 0.929 . S
C498 C494 1.531 . S
C498 H510 0.960 . S
C498 H511 0.962 . S
C498 H512 0.960 . S
C499 C496 1.511 . S
C499 H513 0.961 . S
C499 H514 0.961 . S
C499 H515 0.961 . S
C500 C501 1.370 . S
C500 C502 1.363 . S
C500 H516 0.931 . S
C501 C500 1.370 . S
C501 C505 1.408 . S
C502 C500 1.363 . S
C502 C503 1.370 . S
C502 C506 1.524 . S
C503 C495 1.503 . S
C503 C502 1.370 . S
C503 C504 1.403 . S
C504 C503 1.403 . S
C504 C505 1.404 . S
C504 C507 1.539 . S
C505 C501 1.408 . S
C505 C504 1.404 . S
C505 H517 0.930 1_655 S
C506 C502 1.524 . S
C506 H518 0.956 . S
C506 H519 0.961 . S
C506 H520 0.961 . S
C507 C504 1.539 . S
C507 H521 0.958 1_655 S
C507 H522 0.961 . S
C507 H523 0.960 . S
H508 C492 0.931 . S
H509 C497 0.929 . S
H510 C498 0.960 . S
H511 C498 0.962 . S
H512 C498 0.960 . S
H513 C499 0.961 . S
H514 C499 0.961 . S
H515 C499 0.961 . S
H516 C500 0.931 . S
H517 C505 0.930 1_455 S
H518 C506 0.956 . S
H519 C506 0.961 . S
H520 C506 0.961 . S
H521 C507 0.958 1_455 S
H522 C507 0.961 . S
H523 C507 0.960 . S
C524 C525 1.391 . S
C524 C526 1.394 . S
C524 H540 0.931 . S
C525 C524 1.391 . S
C525 C529 1.376 . S
C526 C524 1.394 . S
C526 C527 1.369 . S
C526 C530 1.531 . S
C527 C526 1.369 . S
C527 C528 1.410 . S
C527 C535 1.503 . S
C528 C527 1.410 . S
C528 C529 1.392 . S
C528 C531 1.511 . S
C529 C525 1.376 . S
C529 C528 1.392 . S
C529 H541 0.929 . S
C530 C526 1.531 . S
C530 H542 0.960 . S
C530 H543 0.962 . S
C530 H544 0.960 . S
C531 C528 1.511 . S
C531 H545 0.961 . S
C531 H546 0.961 . S
C531 H547 0.961 . S
C532 C533 1.370 . S
C532 C534 1.363 . S
C532 H548 0.931 . S
C533 C532 1.370 . S
C533 C537 1.408 . S
C534 C532 1.363 . S
C534 C535 1.370 . S
C534 C538 1.524 . S
C535 C527 1.503 . S
C535 C534 1.370 . S
C535 C536 1.403 . S
C536 C535 1.403 . S
C536 C537 1.404 . S
C536 C539 1.539 . S
C537 C533 1.408 . S
C537 C536 1.404 . S
C537 H549 0.930 . S
C538 C534 1.524 . S
C538 H550 0.956 . S
C538 H551 0.961 . S
C538 H552 0.961 . S
C539 C536 1.539 . S
C539 H553 0.958 . S
C539 H554 0.961 . S
C539 H555 0.960 . S
H540 C524 0.931 . S
H541 C529 0.929 . S
H542 C530 0.960 . S
H543 C530 0.962 . S
H544 C530 0.960 . S
H545 C531 0.961 . S
H546 C531 0.961 . S
H547 C531 0.961 . S
H548 C532 0.931 . S
H549 C537 0.930 . S
H550 C538 0.956 . S
H551 C538 0.961 . S
H552 C538 0.961 . S
H553 C539 0.958 . S
H554 C539 0.961 . S
H555 C539 0.960 . S
C556 C557 1.391 . S
C556 C558 1.394 . S
C556 H572 0.931 . S
C557 C556 1.391 . S
C557 C561 1.376 1_665 S
C558 C556 1.394 . S
C558 C559 1.369 1_565 S
C558 C562 1.531 . S
C559 C558 1.369 1_545 S
C559 C560 1.410 1_655 S
C559 C567 1.503 . S
C560 C559 1.410 1_455 S
C560 C561 1.392 . S
C560 C563 1.511 . S
C561 C557 1.376 1_445 S
C561 C560 1.392 . S
C561 H573 0.929 . S
C562 C558 1.531 . S
C562 H574 0.960 . S
C562 H575 0.962 . S
C562 H576 0.960 . S
C563 C560 1.511 . S
C563 H577 0.961 . S
C563 H578 0.961 . S
C563 H579 0.961 . S
C564 C565 1.370 1_565 S
C564 C566 1.363 . S
C564 H580 0.931 1_655 S
C565 C564 1.370 1_545 S
C565 C569 1.408 . S
C566 C564 1.363 . S
C566 C567 1.370 1_565 S
C566 C570 1.524 1_655 S
C567 C559 1.503 . S
C567 C566 1.370 1_545 S
C567 C568 1.403 . S
C568 C567 1.403 . S
C568 C569 1.404 . S
C568 C571 1.539 . S
C569 C565 1.408 . S
C569 C568 1.404 . S
C569 H581 0.930 . S
C570 C566 1.524 1_455 S
C570 H582 0.956 1_455 S
C570 H583 0.961 . S
C570 H584 0.961 . S
C571 C568 1.539 . S
C571 H585 0.958 . S
C571 H586 0.961 . S
C571 H587 0.960 . S
H572 C556 0.931 . S
H573 C561 0.929 . S
H574 C562 0.960 . S
H575 C562 0.962 . S
H576 C562 0.960 . S
H577 C563 0.961 . S
H578 C563 0.961 . S
H579 C563 0.961 . S
H580 C564 0.931 1_455 S
H581 C569 0.930 . S
H582 C570 0.956 1_655 S
H583 C570 0.961 . S
H584 C570 0.961 . S
H585 C571 0.958 . S
H586 C571 0.961 . S
H587 C571 0.960 . S
C588 C589 1.391 . S
C588 C590 1.394 . S
C588 H604 0.931 . S
C589 C588 1.391 . S
C589 C593 1.376 . S
C590 C588 1.394 . S
C590 C591 1.369 . S
C590 C594 1.531 . S
C591 C590 1.369 . S
C591 C592 1.410 . S
C591 C599 1.503 . S
C592 C591 1.410 . S
C592 C593 1.392 . S
C592 C595 1.511 . S
C593 C589 1.376 . S
C593 C592 1.392 . S
C593 H605 0.929 . S
C594 C590 1.531 . S
C594 H606 0.960 . S
C594 H607 0.962 . S
C594 H608 0.960 . S
C595 C592 1.511 . S
C595 H609 0.961 . S
C595 H610 0.961 . S
C595 H611 0.961 . S
C596 C597 1.370 . S
C596 C598 1.363 . S
C596 H612 0.931 . S
C597 C596 1.370 . S
C597 C601 1.408 . S
C598 C596 1.363 . S
C598 C599 1.370 . S
C598 C602 1.524 . S
C599 C591 1.503 . S
C599 C598 1.370 . S
C599 C600 1.403 . S
C600 C599 1.403 . S
C600 C601 1.404 . S
C600 C603 1.539 1_545 S
C601 C597 1.408 . S
C601 C600 1.404 . S
C601 H613 0.930 1_545 S
C602 C598 1.524 . S
C602 H614 0.956 . S
C602 H615 0.961 . S
C602 H616 0.961 . S
C603 C600 1.539 1_565 S
C603 H617 0.958 . S
C603 H618 0.961 . S
C603 H619 0.960 . S
H604 C588 0.931 . S
H605 C593 0.929 . S
H606 C594 0.960 . S
H607 C594 0.962 . S
H608 C594 0.960 . S
H609 C595 0.961 . S
H610 C595 0.961 . S
H611 C595 0.961 . S
H612 C596 0.931 . S
H613 C601 0.930 1_565 S
H614 C602 0.956 . S
H615 C602 0.961 . S
H616 C602 0.961 . S
H617 C603 0.958 . S
H618 C603 0.961 . S
H619 C603 0.960 . S
C620 C621 1.391 . S
C620 C622 1.394 . S
C620 H636 0.931 . S
C621 C620 1.391 . S
C621 C625 1.376 . S
C622 C620 1.394 . S
C622 C623 1.369 . S
C622 C626 1.531 . S
C623 C622 1.369 . S
C623 C624 1.410 . S
C623 C631 1.503 . S
C624 C623 1.410 . S
C624 C625 1.392 . S
C624 C627 1.511 . S
C625 C621 1.376 . S
C625 C624 1.392 . S
C625 H637 0.929 . S
C626 C622 1.531 . S
C626 H638 0.960 . S
C626 H639 0.962 . S
C626 H640 0.960 . S
C627 C624 1.511 . S
C627 H641 0.961 . S
C627 H642 0.961 . S
C627 H643 0.961 . S
C628 C629 1.370 . S
C628 C630 1.363 . S
C628 H644 0.931 . S
C629 C628 1.370 . S
C629 C633 1.408 . S
C630 C628 1.363 . S
C630 C631 1.370 . S
C630 C634 1.524 . S
C631 C623 1.503 . S
C631 C630 1.370 . S
C631 C632 1.403 . S
C632 C631 1.403 . S
C632 C633 1.404 . S
C632 C635 1.539 . S
C633 C629 1.408 . S
C633 C632 1.404 . S
C633 H645 0.930 . S
C634 C630 1.524 . S
C634 H646 0.956 . S
C634 H647 0.961 . S
C634 H648 0.961 . S
C635 C632 1.539 . S
C635 H649 0.958 . S
C635 H650 0.961 . S
C635 H651 0.960 . S
H636 C620 0.931 . S
H637 C625 0.929 . S
H638 C626 0.960 . S
H639 C626 0.962 . S
H640 C626 0.960 . S
H641 C627 0.961 . S
H642 C627 0.961 . S
H643 C627 0.961 . S
H644 C628 0.931 . S
H645 C633 0.930 . S
H646 C634 0.956 . S
H647 C634 0.961 . S
H648 C634 0.961 . S
H649 C635 0.958 . S
H650 C635 0.961 . S
H651 C635 0.960 . S
C652 C653 1.391 . S
C652 C654 1.394 . S
C652 H668 0.931 . S
C653 C652 1.391 . S
C653 C657 1.376 . S
C654 C652 1.394 . S
C654 C655 1.369 . S
C654 C658 1.531 . S
C655 C654 1.369 . S
C655 C656 1.410 . S
C655 C663 1.503 . S
C656 C655 1.410 . S
C656 C657 1.392 . S
C656 C659 1.511 . S
C657 C653 1.376 . S
C657 C656 1.392 . S
C657 H669 0.929 . S
C658 C654 1.531 . S
C658 H670 0.960 . S
C658 H671 0.962 . S
C658 H672 0.960 . S
C659 C656 1.511 . S
C659 H673 0.961 . S
C659 H674 0.961 . S
C659 H675 0.961 . S
C660 C661 1.370 . S
C660 C662 1.363 . S
C660 H676 0.931 . S
C661 C660 1.370 . S
C661 C665 1.408 . S
C662 C660 1.363 . S
C662 C663 1.370 . S
C662 C666 1.524 1_455 S
C663 C655 1.503 . S
C663 C662 1.370 . S
C663 C664 1.403 . S
C664 C663 1.403 . S
C664 C665 1.404 . S
C664 C667 1.539 . S
C665 C661 1.408 . S
C665 C664 1.404 . S
C665 H677 0.930 . S
C666 C662 1.524 1_655 S
C666 H678 0.956 . S
C666 H679 0.961 1_655 S
C666 H680 0.961 . S
C667 C664 1.539 . S
C667 H681 0.958 . S
C667 H682 0.961 . S
C667 H683 0.960 . S
H668 C652 0.931 . S
H669 C657 0.929 . S
H670 C658 0.960 . S
H671 C658 0.962 . S
H672 C658 0.960 . S
H673 C659 0.961 . S
H674 C659 0.961 . S
H675 C659 0.961 . S
H676 C660 0.931 . S
H677 C665 0.930 . S
H678 C666 0.956 . S
H679 C666 0.961 1_455 S
H680 C666 0.961 . S
H681 C667 0.958 . S
H682 C667 0.961 . S
H683 C667 0.960 . S
C684 C685 1.387 1_545 S
C684 C686 1.401 . S
C684 H700 0.924 1_545 S
C685 C684 1.387 1_565 S
C685 C689 1.377 1_564 S
C686 C684 1.401 . S
C686 C687 1.369 . S
C686 C690 1.531 . S
C687 C686 1.369 . S
C687 C688 1.410 1_554 S
C687 C695 1.503 . S
C688 C687 1.410 1_556 S
C688 C689 1.392 . S
C688 C691 1.511 . S
C689 C685 1.377 1_546 S
C689 C688 1.392 . S
C689 H701 0.929 . S
C690 C686 1.531 . S
C690 H702 0.960 . S
C690 H703 0.962 1_545 S
C690 H704 0.960 . S
C691 C688 1.511 . S
C691 H705 0.960 1_545 S
C691 H706 0.961 . S
C691 H707 0.961 . S
C692 C693 1.370 1_565 S
C692 C694 1.363 . S
C692 H708 0.931 . S
C693 C692 1.370 1_545 S
C693 C697 1.408 . S
C694 C692 1.363 . S
C694 C695 1.370 1_565 S
C694 C698 1.524 . S
C695 C687 1.503 . S
C695 C694 1.370 1_545 S
C695 C696 1.403 . S
C696 C695 1.403 . S
C696 C697 1.404 . S
C696 C699 1.539 . S
C697 C693 1.408 . S
C697 C696 1.404 . S
C697 H709 0.930 . S
C698 C694 1.524 . S
C698 H710 0.956 . S
C698 H711 0.961 . S
C698 H712 0.961 . S
C699 C696 1.539 . S
C699 H713 0.958 . S
C699 H714 0.961 . S
C699 H715 0.960 . S
H700 C684 0.924 1_565 S
H701 C689 0.929 . S
H702 C690 0.960 . S
H703 C690 0.962 1_565 S
H704 C690 0.960 . S
H705 C691 0.960 1_565 S
H706 C691 0.961 . S
H707 C691 0.961 . S
H708 C692 0.931 . S
H709 C697 0.930 . S
H710 C698 0.956 . S
H711 C698 0.961 . S
H712 C698 0.961 . S
H713 C699 0.958 . S
H714 C699 0.961 . S
H715 C699 0.960 . S
C716 C717 1.391 . S
C716 C718 1.394 . S
C716 H732 0.931 . S
C717 C716 1.391 . S
C717 C721 1.376 . S
C718 C716 1.394 . S
C718 C719 1.369 . S
C718 C722 1.531 . S
C719 C718 1.369 . S
C719 C720 1.410 . S
C719 C727 1.503 . S
C720 C719 1.410 . S
C720 C721 1.392 . S
C720 C723 1.511 . S
C721 C717 1.376 . S
C721 C720 1.392 . S
C721 H733 0.929 . S
C722 C718 1.531 . S
C722 H734 0.960 . S
C722 H735 0.962 1_545 S
C722 H736 0.960 1_545 S
C723 C720 1.511 . S
C723 H737 0.961 . S
C723 H738 0.961 . S
C723 H739 0.961 . S
C724 C725 1.370 . S
C724 C726 1.363 . S
C724 H740 0.931 . S
C725 C724 1.370 . S
C725 C729 1.408 . S
C726 C724 1.363 . S
C726 C727 1.370 . S
C726 C730 1.524 . S
C727 C719 1.503 . S
C727 C726 1.370 . S
C727 C728 1.403 . S
C728 C727 1.403 . S
C728 C729 1.404 . S
C728 C731 1.539 . S
C729 C725 1.408 . S
C729 C728 1.404 . S
C729 H741 0.930 . S
C730 C726 1.524 . S
C730 H742 0.956 . S
C730 H743 0.961 . S
C730 H744 0.961 . S
C731 C728 1.539 . S
C731 H745 0.958 . S
C731 H746 0.961 . S
C731 H747 0.960 . S
H732 C716 0.931 . S
H733 C721 0.929 . S
H734 C722 0.960 . S
H735 C722 0.962 1_565 S
H736 C722 0.960 1_565 S
H737 C723 0.961 . S
H738 C723 0.961 . S
H739 C723 0.961 . S
H740 C724 0.931 . S
H741 C729 0.930 . S
H742 C730 0.956 . S
H743 C730 0.961 . S
H744 C730 0.961 . S
H745 C731 0.958 . S
H746 C731 0.961 . S
H747 C731 0.960 . S
C748 C749 1.391 . S
C748 C750 1.394 . S
C748 H764 0.931 . S
C749 C748 1.391 . S
C749 C753 1.376 . S
C750 C748 1.394 . S
C750 C751 1.369 . S
C750 C754 1.531 . S
C751 C750 1.369 . S
C751 C752 1.410 . S
C751 C759 1.503 . S
C752 C751 1.410 . S
C752 C753 1.392 . S
C752 C755 1.511 . S
C753 C749 1.376 . S
C753 C752 1.392 . S
C753 H765 0.929 . S
C754 C750 1.531 . S
C754 H766 0.960 . S
C754 H767 0.962 . S
C754 H768 0.960 1_554 S
C755 C752 1.511 . S
C755 H769 0.961 . S
C755 H770 0.961 . S
C755 H771 0.961 . S
C756 C757 1.370 . S
C756 C758 1.363 . S
C756 H772 0.931 . S
C757 C756 1.370 . S
C757 C761 1.408 . S
C758 C756 1.363 . S
C758 C759 1.370 . S
C758 C762 1.524 . S
C759 C751 1.503 . S
C759 C758 1.370 . S
C759 C760 1.403 . S
C760 C759 1.403 . S
C760 C761 1.404 . S
C760 C763 1.539 . S
C761 C757 1.408 . S
C761 C760 1.404 . S
C761 H773 0.930 . S
C762 C758 1.524 . S
C762 H774 0.956 . S
C762 H775 0.961 . S
C762 H776 0.961 . S
C763 C760 1.539 . S
C763 H777 0.958 . S
C763 H778 0.961 . S
C763 H779 0.960 . S
H764 C748 0.931 . S
H765 C753 0.929 . S
H766 C754 0.960 . S
H767 C754 0.962 . S
H768 C754 0.960 1_556 S
H769 C755 0.961 . S
H770 C755 0.961 . S
H771 C755 0.961 . S
H772 C756 0.931 . S
H773 C761 0.930 . S
H774 C762 0.956 . S
H775 C762 0.961 . S
H776 C762 0.961 . S
H777 C763 0.958 . S
H778 C763 0.961 . S
H779 C763 0.960 . S
C780 C781 1.391 . S
C780 C782 1.394 . S
C780 H796 0.931 . S
C781 C780 1.391 . S
C781 C785 1.376 . S
C782 C780 1.394 . S
C782 C783 1.369 . S
C782 C786 1.531 . S
C783 C782 1.369 . S
C783 C784 1.410 . S
C783 C791 1.503 . S
C784 C783 1.410 . S
C784 C785 1.392 . S
C784 C787 1.511 . S
C785 C781 1.376 . S
C785 C784 1.392 . S
C785 H797 0.929 . S
C786 C782 1.531 . S
C786 H798 0.960 . S
C786 H799 0.962 . S
C786 H800 0.960 . S
C787 C784 1.511 . S
C787 H801 0.961 . S
C787 H802 0.961 . S
C787 H803 0.961 . S
C788 C789 1.370 . S
C788 C790 1.363 . S
C788 H804 0.931 . S
C789 C788 1.370 . S
C789 C793 1.408 . S
C790 C788 1.363 . S
C790 C791 1.370 . S
C790 C794 1.524 . S
C791 C783 1.503 . S
C791 C790 1.370 . S
C791 C792 1.403 . S
C792 C791 1.403 . S
C792 C793 1.404 . S
C792 C795 1.539 . S
C793 C789 1.408 . S
C793 C792 1.404 . S
C793 H805 0.930 . S
C794 C790 1.524 . S
C794 H806 0.956 . S
C794 H807 0.961 . S
C794 H808 0.961 . S
C795 C792 1.539 . S
C795 H809 0.958 . S
C795 H810 0.961 . S
C795 H811 0.960 . S
H796 C780 0.931 . S
H797 C785 0.929 . S
H798 C786 0.960 . S
H799 C786 0.962 . S
H800 C786 0.960 . S
H801 C787 0.961 . S
H802 C787 0.961 . S
H803 C787 0.961 . S
H804 C788 0.931 . S
H805 C793 0.930 . S
H806 C794 0.956 . S
H807 C794 0.961 . S
H808 C794 0.961 . S
H809 C795 0.958 . S
H810 C795 0.961 . S
H811 C795 0.960 . S
C812 C813 1.391 . S
C812 C814 1.394 . S
C812 H828 0.931 . S
C813 C812 1.391 . S
C813 C817 1.376 1_655 S
C814 C812 1.394 . S
C814 C815 1.369 . S
C814 C818 1.531 . S
C815 C814 1.369 . S
C815 C816 1.410 1_655 S
C815 C823 1.503 1_655 S
C816 C815 1.410 1_455 S
C816 C817 1.392 . S
C816 C819 1.511 . S
C817 C813 1.376 1_455 S
C817 C816 1.392 . S
C817 H829 0.929 . S
C818 C814 1.531 . S
C818 H830 0.960 . S
C818 H831 0.962 . S
C818 H832 0.960 . S
C819 C816 1.511 . S
C819 H833 0.961 . S
C819 H834 0.961 . S
C819 H835 0.961 . S
C820 C821 1.370 1_554 S
C820 C822 1.359 1_455 S
C820 H836 0.936 . S
C821 C820 1.370 1_556 S
C821 C825 1.408 . S
C822 C820 1.359 1_655 S
C822 C823 1.369 1_654 S
C822 C826 1.530 . S
C823 C815 1.503 1_455 S
C823 C822 1.369 1_456 S
C823 C824 1.403 . S
C824 C823 1.403 . S
C824 C825 1.404 . S
C824 C827 1.539 . S
C825 C821 1.408 . S
C825 C824 1.404 . S
C825 H837 0.930 . S
C826 C822 1.530 . S
C826 H838 0.956 . S
C826 H839 0.961 1_655 S
C826 H840 0.961 . S
C827 C824 1.539 . S
C827 H841 0.958 . S
C827 H842 0.961 . S
C827 H843 0.960 . S
H828 C812 0.931 . S
H829 C817 0.929 . S
H830 C818 0.960 . S
H831 C818 0.962 . S
H832 C818 0.960 . S
H833 C819 0.961 . S
H834 C819 0.961 . S
H835 C819 0.961 . S
H836 C820 0.936 . S
H837 C825 0.930 . S
H838 C826 0.956 . S
H839 C826 0.961 1_455 S
H840 C826 0.961 . S
H841 C827 0.958 . S
H842 C827 0.961 . S
H843 C827 0.960 . S
C844 C845 1.391 . S
C844 C846 1.394 . S
C844 H860 0.931 . S
C845 C844 1.391 . S
C845 C849 1.376 . S
C846 C844 1.394 . S
C846 C847 1.369 . S
C846 C850 1.531 . S
C847 C846 1.369 . S
C847 C848 1.410 . S
C847 C855 1.503 . S
C848 C847 1.410 . S
C848 C849 1.392 . S
C848 C851 1.511 . S
C849 C845 1.376 . S
C849 C848 1.392 . S
C849 H861 0.929 . S
C850 C846 1.531 . S
C850 H862 0.960 . S
C850 H863 0.962 . S
C850 H864 0.960 . S
C851 C848 1.511 . S
C851 H865 0.961 . S
C851 H866 0.961 . S
C851 H867 0.961 . S
C852 C853 1.370 . S
C852 C854 1.363 . S
C852 H868 0.931 . S
C853 C852 1.370 . S
C853 C857 1.408 . S
C854 C852 1.363 . S
C854 C855 1.370 . S
C854 C858 1.524 . S
C855 C847 1.503 . S
C855 C854 1.370 . S
C855 C856 1.403 . S
C856 C855 1.403 . S
C856 C857 1.404 . S
C856 C859 1.539 . S
C857 C853 1.408 . S
C857 C856 1.404 . S
C857 H869 0.930 . S
C858 C854 1.524 . S
C858 H870 0.956 . S
C858 H871 0.961 . S
C858 H872 0.961 . S
C859 C856 1.539 . S
C859 H873 0.958 . S
C859 H874 0.961 1_554 S
C859 H875 0.960 . S
H860 C844 0.931 . S
H861 C849 0.929 . S
H862 C850 0.960 . S
H863 C850 0.962 . S
H864 C850 0.960 . S
H865 C851 0.961 . S
H866 C851 0.961 . S
H867 C851 0.961 . S
H868 C852 0.931 . S
H869 C857 0.930 . S
H870 C858 0.956 . S
H871 C858 0.961 . S
H872 C858 0.961 . S
H873 C859 0.958 . S
H874 C859 0.961 1_556 S
H875 C859 0.960 . S
C876 C877 1.391 . S
C876 C878 1.394 . S
C876 H892 0.931 . S
C877 C876 1.391 . S
C877 C881 1.376 . S
C878 C876 1.394 . S
C878 C879 1.369 . S
C878 C882 1.531 . S
C879 C878 1.369 . S
C879 C880 1.410 . S
C879 C887 1.503 . S
C880 C879 1.410 . S
C880 C881 1.392 . S
C880 C883 1.511 . S
C881 C877 1.376 . S
C881 C880 1.392 . S
C881 H893 0.929 . S
C882 C878 1.531 . S
C882 H894 0.960 . S
C882 H895 0.962 1_455 S
C882 H896 0.960 . S
C883 C880 1.511 . S
C883 H897 0.961 . S
C883 H898 0.961 . S
C883 H899 0.961 . S
C884 C885 1.370 . S
C884 C886 1.363 . S
C884 H900 0.931 1_455 S
C885 C884 1.370 . S
C885 C889 1.408 . S
C886 C884 1.363 . S
C886 C887 1.370 . S
C886 C890 1.524 . S
C887 C879 1.503 . S
C887 C886 1.370 . S
C887 C888 1.403 . S
C888 C887 1.403 . S
C888 C889 1.404 . S
C888 C891 1.539 . S
C889 C885 1.408 . S
C889 C888 1.404 . S
C889 H901 0.930 . S
C890 C886 1.524 . S
C890 H902 0.956 1_455 S
C890 H903 0.961 . S
C890 H904 0.961 1_455 S
C891 C888 1.539 . S
C891 H905 0.958 . S
C891 H906 0.961 . S
C891 H907 0.960 . S
H892 C876 0.931 . S
H893 C881 0.929 . S
H894 C882 0.960 . S
H895 C882 0.962 1_655 S
H896 C882 0.960 . S
H897 C883 0.961 . S
H898 C883 0.961 . S
H899 C883 0.961 . S
H900 C884 0.931 1_655 S
H901 C889 0.930 . S
H902 C890 0.956 1_655 S
H903 C890 0.961 . S
H904 C890 0.961 1_655 S
H905 C891 0.958 . S
H906 C891 0.961 . S
H907 C891 0.960 . S
C908 C909 1.391 . S
C908 C910 1.394 . S
C908 H924 0.931 . S
C909 C908 1.391 . S
C909 C913 1.376 . S
C910 C908 1.394 . S
C910 C911 1.369 . S
C910 C914 1.531 . S
C911 C910 1.369 . S
C911 C912 1.410 . S
C911 C919 1.503 . S
C912 C911 1.410 . S
C912 C913 1.392 . S
C912 C915 1.511 . S
C913 C909 1.376 . S
C913 C912 1.392 . S
C913 H925 0.929 . S
C914 C910 1.531 . S
C914 H926 0.960 . S
C914 H927 0.962 . S
C914 H928 0.960 . S
C915 C912 1.511 . S
C915 H929 0.961 . S
C915 H930 0.961 . S
C915 H931 0.961 . S
C916 C917 1.370 . S
C916 C918 1.363 . S
C916 H932 0.931 . S
C917 C916 1.370 . S
C917 C921 1.408 . S
C918 C916 1.363 . S
C918 C919 1.370 . S
C918 C922 1.524 . S
C919 C911 1.503 . S
C919 C918 1.370 . S
C919 C920 1.403 . S
C920 C919 1.403 . S
C920 C921 1.404 . S
C920 C923 1.539 . S
C921 C917 1.408 . S
C921 C920 1.404 . S
C921 H933 0.930 . S
C922 C918 1.524 . S
C922 H934 0.956 . S
C922 H935 0.961 . S
C922 H936 0.961 . S
C923 C920 1.539 . S
C923 H937 0.958 . S
C923 H938 0.961 . S
C923 H939 0.960 . S
H924 C908 0.931 . S
H925 C913 0.929 . S
H926 C914 0.960 . S
H927 C914 0.962 . S
H928 C914 0.960 . S
H929 C915 0.961 . S
H930 C915 0.961 . S
H931 C915 0.961 . S
H932 C916 0.931 . S
H933 C921 0.930 . S
H934 C922 0.956 . S
H935 C922 0.961 . S
H936 C922 0.961 . S
H937 C923 0.958 . S
H938 C923 0.961 . S
H939 C923 0.960 . S
C173 C4 1.715 . S
C181 C91 1.608 . S
C205 C16 1.819 . S
C213 C125 1.704 . S
C245 C137 1.048 . S
C237 C32 1.102 . S
C269 C43 1.348 . S
C277 C171 1.270 . S
C309 C128 1.844 . S
C301 C5 1.967 . S
C341 C108 1.266 . S
C333 C21 1.322 . S
C373 C155 1.250 . S
C365 C27 1.388 . S
C405 C146 1.375 . S
C397 C37 1.431 . S
C429 C10 1.568 . S
C437 C154 1.489 . S
C469 C116 1.502 . S
C461 C26 1.607 . S
C493 C38 1.287 . S
C501 C92 1.167 . S
C525 C15 1.676 . S
C533 C149 1.563 . S
C565 C107 1.772 . S
C557 C48 1.898 . S
C589 C59 1.682 . S
C597 C129 1.549 . S
C621 C76 1.474 . S
C629 C134 1.413 . S
C653 C87 1.293 . S
C661 C167 1.276 . S
C685 C54 1.495 1_554 S
C693 C112 1.424 1_545 S
C725 C104 1.833 . S
C717 C60 1.932 . S
C757 C158 1.443 . S
C749 C71 1.498 . S
C789 C150 1.359 . S
C781 C82 1.455 . S
C813 C49 1.806 . S
C821 C170 1.708 . S
C853 C113 1.273 . S
C845 C70 1.370 . S
C885 C95 1.551 . S
C877 C81 1.656 . S
C909 C65 1.584 . S
C917 C133 1.474 . S
