# Generated by pormake.
# Topology nom, (4,4)-cn, num edge types: 1
# Building blocks:
#     Node 0, Type 0, BuildingBlock: KUFVIS_clean_linker_0, # of connection points: 4
#     Node 1, Type 0, BuildingBlock: KUFVIS_clean_linker_0, # of connection points: 4
#     Node 2, Type 0, BuildingBlock: KUFVIS_clean_linker_0, # of connection points: 4
#     Node 3, Type 0, BuildingBlock: KUFVIS_clean_linker_0, # of connection points: 4
#     Node 4, Type 0, BuildingBlock: KUFVIS_clean_linker_0, # of connection points: 4
#     Node 5, Type 0, BuildingBlock: KUFVIS_clean_linker_0, # of connection points: 4
#     Node 6, Type 1, BuildingBlock: KUFVIS_clean_sbu_0, # of connection points: 4
#     Node 7, Type 1, BuildingBlock: KUFVIS_clean_sbu_0, # of connection points: 4
#     Node 8, Type 1, BuildingBlock: KUFVIS_clean_sbu_0, # of connection points: 4
#     Node 9, Type 1, BuildingBlock: KUFVIS_clean_sbu_0, # of connection points: 4
#     Node 10, Type 1, BuildingBlock: KUFVIS_clean_sbu_0, # of connection points: 4
#     Node 11, Type 1, BuildingBlock: KUFVIS_clean_sbu_0, # of connection points: 4
#     Edge 12, Type (0, 1), BuildingBlock: MIFKUJ_clean_linker_0, # of connection points: 2
#     Edge 13, Type (0, 1), BuildingBlock: MIFKUJ_clean_linker_0, # of connection points: 2
#     Edge 14, Type (0, 1), BuildingBlock: MIFKUJ_clean_linker_0, # of connection points: 2
#     Edge 15, Type (0, 1), BuildingBlock: MIFKUJ_clean_linker_0, # of connection points: 2
#     Edge 16, Type (0, 1), BuildingBlock: MIFKUJ_clean_linker_0, # of connection points: 2
#     Edge 17, Type (0, 1), BuildingBlock: MIFKUJ_clean_linker_0, # of connection points: 2
#     Edge 18, Type (0, 1), BuildingBlock: MIFKUJ_clean_linker_0, # of connection points: 2
#     Edge 19, Type (0, 1), BuildingBlock: MIFKUJ_clean_linker_0, # of connection points: 2
#     Edge 20, Type (0, 1), BuildingBlock: MIFKUJ_clean_linker_0, # of connection points: 2
#     Edge 21, Type (0, 1), BuildingBlock: MIFKUJ_clean_linker_0, # of connection points: 2
#     Edge 22, Type (0, 1), BuildingBlock: MIFKUJ_clean_linker_0, # of connection points: 2
#     Edge 23, Type (0, 1), BuildingBlock: MIFKUJ_clean_linker_0, # of connection points: 2
#     Edge 24, Type (0, 1), BuildingBlock: MIFKUJ_clean_linker_0, # of connection points: 2
#     Edge 25, Type (0, 1), BuildingBlock: MIFKUJ_clean_linker_0, # of connection points: 2
#     Edge 26, Type (0, 1), BuildingBlock: MIFKUJ_clean_linker_0, # of connection points: 2
#     Edge 27, Type (0, 1), BuildingBlock: MIFKUJ_clean_linker_0, # of connection points: 2
#     Edge 28, Type (0, 1), BuildingBlock: MIFKUJ_clean_linker_0, # of connection points: 2
#     Edge 29, Type (0, 1), BuildingBlock: MIFKUJ_clean_linker_0, # of connection points: 2
#     Edge 30, Type (0, 1), BuildingBlock: MIFKUJ_clean_linker_0, # of connection points: 2
#     Edge 31, Type (0, 1), BuildingBlock: MIFKUJ_clean_linker_0, # of connection points: 2
#     Edge 32, Type (0, 1), BuildingBlock: MIFKUJ_clean_linker_0, # of connection points: 2
#     Edge 33, Type (0, 1), BuildingBlock: MIFKUJ_clean_linker_0, # of connection points: 2
#     Edge 34, Type (0, 1), BuildingBlock: MIFKUJ_clean_linker_0, # of connection points: 2
#     Edge 35, Type (0, 1), BuildingBlock: MIFKUJ_clean_linker_0, # of connection points: 2
# Relax obj value: 0.004
# Max RMSD: 0.051
# Mean RMSD: 0.040
data_MOF--net-nom--node1-KUFVIS_clean_sbu_0--node2-KUFVIS_clean_linker_0--edge1-MIFKUJ_clean_linker_0
_symmetry_space_group_name_H-M    P1
_symmetry_Int_Tables_number       1
_symmetry_cell_setting            triclinic
loop_
_symmetry_equiv_pos_as_xyz
'x, y, z'
_cell_length_a     58.452808
_cell_length_b     58.947903
_cell_length_c     59.672589
_cell_angle_alpha  90.409103
_cell_angle_beta   90.600788
_cell_angle_gamma 119.91498
loop_
_atom_site_label
_atom_site_type_symbol
_atom_site_fract_x
_atom_site_fract_y
_atom_site_fract_z
_atom_type_partial_charge
H0 H 0.11597 0.5999 0.33769 0.0
H1 H 0.05195 0.57748 0.29134 0.0
H2 H 0.03711 0.54903 0.35959 0.0
H3 H 0.99804 0.54555 0.35401 0.0
H4 H 0.93531 0.50492 0.30623 0.0
H5 H 1.01501 0.54123 0.28388 0.0
C6 C 0.09489 0.58901 0.33422 0.0
C7 C 0.07748 0.57473 0.35121 0.0
C8 C 0.08571 0.58946 0.31268 0.0
C9 C 0.05848 0.57604 0.30802 0.0
C10 C 0.04015 0.56124 0.32483 0.0
C11 C 0.05019 0.56079 0.34648 0.0
C12 C 1.01089 0.54579 0.31968 0.0
C13 C 0.992 0.539 0.33688 0.0
C14 C 0.96488 0.52371 0.33196 0.0
C15 C 0.95634 0.51598 0.3099 0.0
C16 C 0.9743 0.52267 0.29254 0.0
C17 C 1.00148 0.53726 0.29746 0.0
H18 H 0.52408 0.11061 0.51262 0.0
H19 H 0.49833 0.05745 0.45699 0.0
H20 H 0.49788 0.03038 0.52484 0.0
H21 H 0.47341 0.99178 0.5137 0.0
H22 H 0.44963 0.93854 0.45824 0.0
H23 H 0.48829 0.02007 0.44509 0.0
C24 C 0.51581 0.09074 0.50615 0.0
C25 C 0.51024 0.07055 0.52098 0.0
C26 C 0.51215 0.08604 0.48312 0.0
C27 C 0.5017 0.06026 0.47483 0.0
C28 C 0.49539 0.03895 0.4895 0.0
C29 C 0.50084 0.04503 0.51273 0.0
C30 C 0.48306 1.01079 0.48087 0.0
C31 C 0.47288 0.98914 0.49578 0.0
C32 C 0.46178 0.96321 0.4877 0.0
C33 C 0.45904 0.95853 0.46463 0.0
C34 C 0.46799 0.97901 0.44952 0.0
C35 C 0.48076 1.00496 0.4575 0.0
H36 H 0.55185 0.45984 0.62839 0.0
H37 H 0.51338 0.47592 0.68156 0.0
H38 H 0.51588 0.50622 0.61491 0.0
H39 H 0.47968 0.50638 0.62553 0.0
H40 H 0.46274 0.54393 0.67929 0.0
H41 H 0.51221 0.5111 0.69233 0.0
C42 C 0.54112 0.46928 0.63429 0.0
C43 C 0.53425 0.48292 0.61914 0.0
C44 C 0.53437 0.46737 0.65684 0.0
C45 C 0.51924 0.47841 0.66422 0.0
C46 C 0.51229 0.49286 0.64939 0.0
C47 C 0.52 0.49481 0.62669 0.0
C48 C 0.49808 0.50669 0.65768 0.0
C49 C 0.48257 0.5126 0.64293 0.0
C50 C 0.4701 0.52623 0.65072 0.0
C51 C 0.47264 0.53368 0.67324 0.0
C52 C 0.48741 0.52782 0.68817 0.0
C53 C 0.50025 0.51461 0.68047 0.0
H54 H 0.11476 0.56739 0.80709 0.0
H55 H 0.0547 0.52062 0.85355 0.0
H56 H 0.03412 0.52724 0.78472 0.0
H57 H 0.99922 0.48871 0.79103 0.0
H58 H 0.93618 0.4617 0.8376 0.0
H59 H 1.01489 0.51531 0.86051 0.0
C60 C 0.09395 0.55517 0.81069 0.0
C61 C 0.07524 0.54799 0.7934 0.0
C62 C 0.08657 0.5457 0.83232 0.0
C63 C 0.05985 0.52856 0.83688 0.0
C64 C 0.04016 0.52176 0.81997 0.0
C65 C 0.04838 0.53169 0.79814 0.0
C66 C 1.0113 0.5046 0.82502 0.0
C67 C 0.99287 0.48932 0.80787 0.0
C68 C 0.96589 0.47417 0.81246 0.0
C69 C 0.95707 0.47371 0.83414 0.0
C70 C 0.97468 0.48817 0.85148 0.0
C71 C 1.00171 0.50363 0.84696 0.0
H72 H 0.49992 0.93353 0.00668 0.0
H73 H 0.5361 0.99147 0.95608 0.0
H74 H 0.52637 0.0137 0.02328 0.0
H75 H 0.56314 0.0513 0.01471 0.0
H76 H 0.57611 0.10793 0.96473 0.0
H77 H 0.53242 0.02642 0.947 0.0
C78 C 0.50909 0.95384 0.00167 0.0
C79 C 0.5125 0.97298 0.0174 0.0
C80 C 0.51736 0.96039 0.97962 0.0
C81 C 0.52933 0.9867 0.97312 0.0
C82 C 0.53311 1.00662 0.98874 0.0
C83 C 0.5245 0.99927 0.01098 0.0
C84 C 0.54555 0.03481 0.98192 0.0
C85 C 0.55981 0.05541 0.99771 0.0
C86 C 0.57026 0.08166 0.99154 0.0
C87 C 0.56721 0.08757 0.96953 0.0
C88 C 0.55414 0.06779 0.95337 0.0
C89 C 0.54314 0.04148 0.95959 0.0
H90 H 0.52625 0.60777 0.12435 0.0
H91 H 0.54013 0.5716 0.1807 0.0
H92 H 0.5466 0.54843 0.11286 0.0
H93 H 0.57534 0.53903 0.12791 0.0
H94 H 0.57304 0.48919 0.18061 0.0
H95 H 0.53358 0.53295 0.18934 0.0
C96 C 0.53192 0.59417 0.13103 0.0
C97 C 0.5376 0.57925 0.11625 0.0
C98 C 0.53199 0.59085 0.15417 0.0
C99 C 0.53904 0.57295 0.16271 0.0
C100 C 0.54515 0.55759 0.14812 0.0
C101 C 0.54349 0.56057 0.12471 0.0
C102 C 0.55295 0.53848 0.15713 0.0
C103 C 0.56831 0.53076 0.14421 0.0
C104 C 0.57487 0.51227 0.15227 0.0
C105 C 0.56697 0.50237 0.17376 0.0
C106 C 0.55264 0.51017 0.18719 0.0
C107 C 0.54536 0.52789 0.17883 0.0
Mn108 Mn 0.64416 0.39375 0.40425 0.0
Mn109 Mn 0.67693 0.45891 0.41601 0.0
C110 C 0.62621 0.41145 0.42861 0.0
C111 C 0.6341 0.35043 0.41023 0.0
C112 C 0.64496 0.43576 0.37343 0.0
O113 O 0.68171 0.40512 0.39377 0.0
O114 O 0.7008 0.44794 0.40274 0.0
C115 C 0.71255 0.45909 0.45176 0.0
N116 N 0.69402 0.46512 0.44467 0.0
C117 C 0.69739 0.48775 0.47933 0.0
C118 C 0.71652 0.4818 0.48703 0.0
C119 C 0.72405 0.46731 0.47321 0.0
C120 C 0.68644 0.4788 0.45791 0.0
H121 H 0.71862 0.44823 0.44109 0.0
C122 C 0.70173 0.42822 0.39478 0.0
O123 O 0.63014 0.35805 0.39099 0.0
O124 O 0.645 0.36826 0.42589 0.0
N125 N 0.65686 0.47301 0.42902 0.0
C126 C 0.63778 0.47666 0.41924 0.0
C127 C 0.62802 0.49077 0.43085 0.0
C128 C 0.63839 0.50148 0.45215 0.0
C129 C 0.65818 0.49766 0.4618 0.0
C130 C 0.66704 0.48333 0.44948 0.0
H131 H 0.63011 0.46892 0.40267 0.0
O132 O 0.61138 0.38914 0.41854 0.0
O133 O 0.65139 0.42273 0.42462 0.0
O134 O 0.63776 0.41195 0.37764 0.0
O135 O 0.65982 0.45482 0.38651 0.0
C136 C 0.66946 0.50748 0.48317 0.0
C137 C 0.68884 0.5023 0.49203 0.0
H138 H 0.72556 0.48825 0.5035 0.0
H139 H 0.73882 0.46267 0.47902 0.0
H140 H 0.61275 0.49363 0.42331 0.0
H141 H 0.63097 0.51257 0.46094 0.0
H142 H 0.66327 0.51894 0.49298 0.0
H143 H 0.6971 0.50969 0.50858 0.0
Mn144 Mn 0.27978 0.65772 0.57071 0.0
Mn145 Mn 0.24691 0.59303 0.55733 0.0
C146 C 0.2455 0.64126 0.54447 0.0
C147 C 0.31377 0.70096 0.56597 0.0
C148 C 0.23574 0.61497 0.59902 0.0
O149 O 0.30503 0.64578 0.58256 0.0
O150 O 0.28043 0.60297 0.57359 0.0
C151 C 0.28542 0.59394 0.52495 0.0
N152 N 0.26031 0.58789 0.52984 0.0
C153 C 0.24435 0.56777 0.49354 0.0
C154 C 0.27004 0.57375 0.48811 0.0
C155 C 0.29067 0.58699 0.50386 0.0
C156 C 0.24037 0.57542 0.51473 0.0
H157 H 0.30131 0.6039 0.53707 0.0
C158 C 0.30109 0.62242 0.58223 0.0
O159 O 0.30124 0.69323 0.58468 0.0
O160 O 0.30737 0.68331 0.5503 0.0
N161 N 0.21404 0.57984 0.54142 0.0
C162 C 0.19046 0.57576 0.5492 0.0
C163 C 0.16777 0.56274 0.53548 0.0
C164 C 0.16943 0.55353 0.51413 0.0
C165 C 0.19383 0.55761 0.50661 0.0
C166 C 0.21579 0.57079 0.52099 0.0
H167 H 0.18898 0.58242 0.56574 0.0
O168 O 0.25266 0.66317 0.55498 0.0
O169 O 0.25885 0.62957 0.54921 0.0
O170 O 0.25375 0.6387 0.59615 0.0
O171 O 0.2314 0.59641 0.5854 0.0
C172 C 0.19727 0.54918 0.48538 0.0
C173 C 0.22254 0.55447 0.47877 0.0
H174 H 0.27414 0.56828 0.47191 0.0
H175 H 0.31055 0.59168 0.4998 0.0
H176 H 0.149 0.55963 0.54141 0.0
H177 H 0.15184 0.54336 0.50367 0.0
H178 H 0.18063 0.53874 0.47395 0.0
H179 H 0.22497 0.54815 0.46232 0.0
Mn180 Mn 0.6478 0.27242 0.73438 0.0
Mn181 Mn 0.68286 0.24272 0.72131 0.0
C182 C 0.63024 0.23722 0.7094 0.0
C183 C 0.63597 0.3046 0.72943 0.0
C184 C 0.65048 0.23051 0.76314 0.0
O185 O 0.68491 0.29932 0.74539 0.0
O186 O 0.70515 0.27648 0.73724 0.0
C187 C 0.7175 0.28205 0.68845 0.0
N188 N 0.70029 0.2567 0.69367 0.0
C189 C 0.70491 0.24163 0.65734 0.0
C190 C 0.72275 0.26756 0.65159 0.0
C191 C 0.72896 0.28786 0.66718 0.0
C192 C 0.69393 0.23708 0.6787 0.0
H193 H 0.72246 0.29772 0.7004 0.0
C194 C 0.70524 0.29665 0.74534 0.0
O195 O 0.63255 0.29266 0.74833 0.0
O196 O 0.64704 0.29846 0.71357 0.0
N197 N 0.66499 0.20987 0.70572 0.0
C198 C 0.64727 0.18598 0.71384 0.0
C199 C 0.63932 0.16354 0.70048 0.0
C200 C 0.64988 0.16583 0.67903 0.0
C201 C 0.66815 0.19057 0.67106 0.0
C202 C 0.67563 0.21221 0.68525 0.0
H203 H 0.63942 0.18406 0.73045 0.0
O204 O 0.61522 0.24406 0.71982 0.0
O205 O 0.65562 0.25182 0.71314 0.0
O206 O 0.64354 0.24771 0.76023 0.0
O207 O 0.66505 0.22684 0.7495 0.0
C208 C 0.67925 0.1946 0.64959 0.0
C209 C 0.69748 0.22015 0.64268 0.0
H210 H 0.73172 0.27211 0.63523 0.0
H211 H 0.74262 0.30794 0.66283 0.0
H212 H 0.62539 0.14453 0.70689 0.0
H213 H 0.64414 0.14849 0.66889 0.0
H214 H 0.67375 0.17822 0.63821 0.0
H215 H 0.7057 0.22304 0.62606 0.0
Mn216 Mn 0.40535 0.65293 0.90696 0.0
Mn217 Mn 0.37231 0.58934 0.92225 0.0
C218 C 0.42545 0.63715 0.93108 0.0
C219 C 0.41623 0.69678 0.91105 0.0
C220 C 0.40082 0.6071 0.87839 0.0
O221 O 0.36732 0.64166 0.8977 0.0
O222 O 0.34818 0.59976 0.90824 0.0
C223 C 0.34046 0.59526 0.95768 0.0
N224 N 0.35756 0.58722 0.95111 0.0
C225 C 0.35641 0.56905 0.98732 0.0
C226 C 0.33873 0.57706 0.99448 0.0
C227 C 0.33078 0.5903 0.9796 0.0
C228 C 0.36548 0.57467 0.96532 0.0
H229 H 0.33417 0.60529 0.94627 0.0
C230 C 0.3471 0.61897 0.89961 0.0
O231 O 0.41848 0.6873 0.89205 0.0
O232 O 0.40694 0.6806 0.92759 0.0
N233 N 0.39208 0.57542 0.93624 0.0
C234 C 0.40935 0.56919 0.92673 0.0
C235 C 0.41884 0.55547 0.93922 0.0
C236 C 0.41027 0.54804 0.96126 0.0
C237 C 0.39245 0.5546 0.97067 0.0
C238 C 0.38339 0.56799 0.95731 0.0
H239 H 0.41563 0.57442 0.90966 0.0
O240 O 0.43924 0.6584 0.91988 0.0
O241 O 0.39982 0.62598 0.92868 0.0
O242 O 0.40837 0.63136 0.8811 0.0
O243 O 0.38718 0.58967 0.8927 0.0
C244 C 0.38332 0.54838 0.99277 0.0
C245 C 0.36544 0.55575 0.00114 0.0
H246 H 0.33116 0.5732 0.01135 0.0
H247 H 0.31713 0.59654 0.98499 0.0
H248 H 0.43238 0.55029 0.93169 0.0
H249 H 0.41719 0.53703 0.97075 0.0
H250 H 0.39008 0.53812 0.00353 0.0
H251 H 0.35872 0.55106 0.01822 0.0
Mn252 Mn 0.77228 0.39906 0.07492 0.0
Mn253 Mn 0.8052 0.36753 0.08934 0.0
C254 C 0.80946 0.41968 0.09822 0.0
C255 C 0.73903 0.40955 0.08063 0.0
C256 C 0.81128 0.39369 0.04449 0.0
O257 O 0.74577 0.36091 0.06644 0.0
O258 O 0.76895 0.34221 0.07863 0.0
C259 C 0.773 0.33915 0.12838 0.0
N260 N 0.79698 0.35524 0.11933 0.0
C261 C 0.81942 0.35712 0.15392 0.0
C262 C 0.79498 0.34033 0.16356 0.0
C263 C 0.77166 0.33143 0.15077 0.0
C264 C 0.81949 0.36424 0.13158 0.0
H265 H 0.75505 0.3323 0.1186 0.0
C266 C 0.7481 0.34082 0.07015 0.0
O267 O 0.74942 0.41161 0.06111 0.0
O268 O 0.74719 0.40039 0.09663 0.0
N269 N 0.84057 0.38893 0.1003 0.0
C270 C 0.86238 0.40619 0.08888 0.0
C271 C 0.88737 0.41674 0.0992 0.0
C272 C 0.88965 0.40932 0.12105 0.0
C273 C 0.86693 0.39206 0.13266 0.0
C274 C 0.84262 0.38178 0.12137 0.0
H275 H 0.86077 0.41154 0.07192 0.0
O276 O 0.80112 0.43312 0.08723 0.0
O277 O 0.7954 0.39433 0.09581 0.0
O278 O 0.79531 0.40206 0.04822 0.0
O279 O 0.81571 0.37996 0.05846 0.0
C280 C 0.86745 0.38462 0.15496 0.0
C281 C 0.84368 0.36735 0.16566 0.0
H282 H 0.79386 0.33432 0.18081 0.0
H283 H 0.7527 0.31862 0.15813 0.0
H284 H 0.90486 0.4302 0.09019 0.0
H285 H 0.90894 0.41665 0.12868 0.0
H286 H 0.88599 0.39236 0.16414 0.0
H287 H 0.84428 0.36212 0.18293 0.0
Mn288 Mn 0.39365 0.77268 0.23925 0.0
Mn289 Mn 0.45749 0.80589 0.25691 0.0
C290 C 0.40771 0.80743 0.26419 0.0
C291 C 0.34996 0.7387 0.2423 0.0
C292 C 0.43915 0.81647 0.21278 0.0
O293 O 0.40685 0.74774 0.23022 0.0
O294 O 0.44929 0.77282 0.24114 0.0
C295 C 0.45272 0.76729 0.29073 0.0
N296 N 0.45933 0.79224 0.28542 0.0
C297 C 0.47329 0.80709 0.3234 0.0
C298 C 0.46671 0.78157 0.32926 0.0
C299 C 0.45631 0.76157 0.31286 0.0
C300 C 0.46905 0.81156 0.30113 0.0
H301 H 0.4448 0.75186 0.27819 0.0
C302 C 0.43047 0.75209 0.23203 0.0
O303 O 0.35904 0.75058 0.22349 0.0
O304 O 0.36654 0.74578 0.25906 0.0
N305 N 0.46922 0.83837 0.27261 0.0
C306 C 0.47571 0.86217 0.26401 0.0
C307 C 0.48679 0.88437 0.27817 0.0
C308 C 0.49169 0.88201 0.30088 0.0
C309 C 0.48572 0.8575 0.30917 0.0
C310 C 0.4747 0.83607 0.29427 0.0
H311 H 0.4723 0.86417 0.24651 0.0
O312 O 0.38637 0.79957 0.25226 0.0
O313 O 0.42 0.79422 0.26187 0.0
O314 O 0.41512 0.79814 0.21423 0.0
O315 O 0.45669 0.82133 0.22793 0.0
C316 C 0.49042 0.85351 0.33162 0.0
C317 C 0.48401 0.82829 0.33877 0.0
H318 H 0.46957 0.77711 0.34628 0.0
H319 H 0.45117 0.74182 0.31724 0.0
H320 H 0.49158 0.90326 0.27158 0.0
H321 H 0.50019 0.89916 0.31175 0.0
H322 H 0.49897 0.86971 0.34353 0.0
H323 H 0.4876 0.82545 0.35609 0.0
H324 H 0.10637 0.56869 0.28429 0.0
H325 H 0.14946 0.59281 0.2664 0.0
H326 H 0.15443 0.66574 0.286 0.0
H327 H 0.11164 0.64153 0.30436 0.0
H328 H 0.17703 0.6299 0.23592 0.0
H329 H 0.214 0.70455 0.31004 0.0
H330 H 0.20204 0.70685 0.34921 0.0
H331 H 0.16597 0.62335 0.35414 0.0
H332 H 0.17804 0.62061 0.31514 0.0
H333 H 0.30863 0.73109 0.21523 0.0
H334 H 0.26153 0.7038 0.22244 0.0
H335 H 0.27981 0.67574 0.28284 0.0
H336 H 0.32694 0.70398 0.27621 0.0
H337 H 0.24486 0.68678 0.29241 0.0
H338 H 0.25227 0.63693 0.23278 0.0
H339 H 0.26415 0.62837 0.1954 0.0
H340 H 0.21282 0.65199 0.16445 0.0
H341 H 0.20089 0.66103 0.20166 0.0
C342 C 0.11617 0.58986 0.28383 0.0
C343 C 0.10568 0.60333 0.29541 0.0
C344 C 0.14085 0.60364 0.27373 0.0
C345 C 0.15543 0.63109 0.27523 0.0
C346 C 0.14369 0.64456 0.28489 0.0
C347 C 0.11913 0.63078 0.29513 0.0
C348 C 0.18397 0.64528 0.26965 0.0
C349 C 0.1919 0.6425 0.24817 0.0
C350 C 0.20348 0.66085 0.28594 0.0
C351 C 0.19669 0.66239 0.30959 0.0
C352 C 0.20363 0.68671 0.31952 0.0
C353 C 0.19681 0.68808 0.34169 0.0
C354 C 0.18317 0.66525 0.35413 0.0
C355 C 0.17645 0.64101 0.34447 0.0
C356 C 0.18326 0.63954 0.32233 0.0
C357 C 0.3026 0.71882 0.22989 0.0
C358 C 0.32152 0.71969 0.24515 0.0
C359 C 0.27559 0.7031 0.23397 0.0
C360 C 0.26689 0.68742 0.25313 0.0
C361 C 0.28587 0.6877 0.268 0.0
C362 C 0.31285 0.70376 0.26414 0.0
C363 C 0.23819 0.67193 0.2584 0.0
C364 C 0.23015 0.67439 0.27997 0.0
C365 C 0.21875 0.65528 0.24243 0.0
C366 C 0.22589 0.6499 0.22001 0.0
C367 C 0.24367 0.6405 0.218 0.0
C368 C 0.25038 0.63552 0.19684 0.0
C369 C 0.2393 0.6397 0.17756 0.0
C370 C 0.22142 0.6488 0.1794 0.0
C371 C 0.21466 0.65383 0.20052 0.0
H372 H 0.24451 0.63583 0.16119 0.0
H373 H 0.17786 0.66635 0.37126 0.0
H374 H 0.49689 0.1227 0.48477 0.0
H375 H 0.51804 0.16543 0.46687 0.0
H376 H 0.56914 0.14494 0.43119 0.0
H377 H 0.54794 0.10199 0.44931 0.0
H378 H 0.59704 0.19209 0.45255 0.0
H379 H 0.52274 0.15178 0.40273 0.0
H380 H 0.47562 0.12609 0.392 0.0
H381 H 0.46096 0.18221 0.42545 0.0
H382 H 0.50794 0.20807 0.43666 0.0
H383 H 0.61056 0.30952 0.38034 0.0
H384 H 0.5911 0.26285 0.38781 0.0
H385 H 0.6155 0.28062 0.45721 0.0
H386 H 0.63535 0.32746 0.44976 0.0
H387 H 0.55137 0.2328 0.41369 0.0
H388 H 0.62566 0.23295 0.47896 0.0
H389 H 0.67341 0.25779 0.48765 0.0
H390 H 0.68948 0.28041 0.41882 0.0
H391 H 0.64187 0.25541 0.40966 0.0
C392 C 0.51213 0.12705 0.47262 0.0
C393 C 0.52064 0.10896 0.46829 0.0
C394 C 0.52426 0.1515 0.46242 0.0
C395 C 0.54521 0.15847 0.44764 0.0
C396 C 0.55302 0.14001 0.44253 0.0
C397 C 0.54071 0.11537 0.45266 0.0
C398 C 0.55997 0.18565 0.43893 0.0
C399 C 0.58708 0.20095 0.44392 0.0
C400 C 0.54712 0.19721 0.42744 0.0
C401 C 0.51885 0.18178 0.42067 0.0
C402 C 0.50944 0.15855 0.40794 0.0
C403 C 0.48275 0.14397 0.40175 0.0
C404 C 0.4653 0.15249 0.40807 0.0
C405 C 0.4745 0.17564 0.42057 0.0
C406 C 0.50117 0.19028 0.42682 0.0
C407 C 0.61212 0.30356 0.39715 0.0
C408 C 0.62458 0.32229 0.41445 0.0
C409 C 0.60085 0.2768 0.40142 0.0
C410 C 0.60185 0.26808 0.42305 0.0
C411 C 0.61475 0.28678 0.44029 0.0
C412 C 0.62607 0.3136 0.43603 0.0
C413 C 0.58835 0.23946 0.42775 0.0
C414 C 0.56142 0.22392 0.42212 0.0
C415 C 0.60146 0.22762 0.43839 0.0
C416 C 0.63016 0.24249 0.44368 0.0
C417 C 0.63939 0.24313 0.46566 0.0
C418 C 0.66643 0.25726 0.47068 0.0
C419 C 0.68446 0.27073 0.45381 0.0
C420 C 0.67549 0.27004 0.43189 0.0
C421 C 0.64847 0.25593 0.42678 0.0
H422 H 0.70538 0.28167 0.45773 0.0
H423 H 0.44464 0.14117 0.40326 0.0
H424 H 0.48784 0.56678 0.62184 0.0
H425 H 0.46196 0.5854 0.6058 0.0
H426 H 0.39091 0.52131 0.63235 0.0
H427 H 0.4168 0.50292 0.64849 0.0
H428 H 0.38345 0.53709 0.58937 0.0
H429 H 0.42179 0.57495 0.66215 0.0
H430 H 0.45923 0.59756 0.68886 0.0
H431 H 0.49538 0.66378 0.64547 0.0
H432 H 0.45835 0.64129 0.61833 0.0
H433 H 0.29283 0.57847 0.60313 0.0
H434 H 0.32506 0.5649 0.61163 0.0
H435 H 0.38763 0.63909 0.58873 0.0
H436 H 0.35518 0.65315 0.58067 0.0
H437 H 0.40368 0.62175 0.62473 0.0
H438 H 0.36218 0.58645 0.55409 0.0
H439 H 0.32461 0.56385 0.5276 0.0
H440 H 0.29494 0.49337 0.56557 0.0
H441 H 0.3321 0.51568 0.59255 0.0
C442 C 0.46657 0.55623 0.62345 0.0
C443 C 0.45415 0.53322 0.63598 0.0
C444 C 0.45186 0.56697 0.61451 0.0
C445 C 0.42453 0.55484 0.61803 0.0
C446 C 0.41192 0.53092 0.62932 0.0
C447 C 0.42665 0.52034 0.63842 0.0
C448 C 0.4094 0.56812 0.61201 0.0
C449 C 0.38782 0.55555 0.59711 0.0
C450 C 0.41551 0.59257 0.62168 0.0
C451 C 0.4375 0.60632 0.63813 0.0
C452 C 0.43784 0.59424 0.65827 0.0
C453 C 0.45895 0.60703 0.67348 0.0
C454 C 0.4797 0.63206 0.66884 0.0
C455 C 0.47932 0.64437 0.64901 0.0
C456 C 0.45828 0.63161 0.63371 0.0
C457 C 0.31352 0.59211 0.60026 0.0
C458 C 0.32148 0.61679 0.59106 0.0
C459 C 0.33191 0.58426 0.605 0.0
C460 C 0.35868 0.60065 0.6002 0.0
C461 C 0.36703 0.62602 0.59237 0.0
C462 C 0.34853 0.63408 0.58786 0.0
C463 C 0.37733 0.59044 0.60241 0.0
C464 C 0.39956 0.60354 0.61662 0.0
C465 C 0.37192 0.56654 0.59194 0.0
C466 C 0.34988 0.5528 0.57543 0.0
C467 C 0.34759 0.56616 0.55686 0.0
C468 C 0.32635 0.55341 0.54176 0.0
C469 C 0.30738 0.5272 0.54492 0.0
C470 C 0.30966 0.51367 0.56315 0.0
C471 C 0.33082 0.52635 0.57834 0.0
H472 H 0.29093 0.51737 0.53322 0.0
H473 H 0.49604 0.64195 0.68063 0.0
H474 H 0.9436 0.49155 0.782 0.0
H475 H 0.90033 0.46463 0.76361 0.0
H476 H 0.89836 0.39488 0.78777 0.0
H477 H 0.94152 0.42177 0.80599 0.0
H478 H 0.87289 0.38671 0.74647 0.0
H479 H 0.87815 0.42776 0.81836 0.0
H480 H 0.89206 0.4654 0.84407 0.0
H481 H 0.84998 0.49299 0.80365 0.0
H482 H 0.8363 0.45577 0.77736 0.0
H483 H 0.74419 0.29198 0.7658 0.0
H484 H 0.78972 0.32623 0.77273 0.0
H485 H 0.77112 0.38422 0.74906 0.0
H486 H 0.72493 0.34975 0.74256 0.0
H487 H 0.80703 0.40297 0.7843 0.0
H488 H 0.799 0.36084 0.71381 0.0
H489 H 0.78454 0.32306 0.6881 0.0
H490 H 0.8312 0.29812 0.72524 0.0
H491 H 0.84571 0.3356 0.75137 0.0
C492 C 0.93445 0.47043 0.78236 0.0
C493 C 0.94584 0.4586 0.79513 0.0
C494 C 0.90966 0.45508 0.77207 0.0
C495 C 0.89594 0.42778 0.77467 0.0
C496 C 0.90858 0.41588 0.78554 0.0
C497 C 0.93327 0.4312 0.79585 0.0
C498 C 0.86728 0.41191 0.76925 0.0
C499 C 0.8585 0.39029 0.7547 0.0
C500 C 0.8485 0.41691 0.77968 0.0
C501 C 0.85645 0.43911 0.79571 0.0
C502 C 0.87207 0.44198 0.81479 0.0
C503 C 0.87993 0.46325 0.82949 0.0
C504 C 0.87198 0.48162 0.82547 0.0
C505 C 0.85616 0.47876 0.80674 0.0
C506 C 0.84837 0.45758 0.79192 0.0
C507 C 0.74964 0.31209 0.76245 0.0
C508 C 0.73107 0.31818 0.75345 0.0
C509 C 0.77572 0.33164 0.76631 0.0
C510 C 0.78403 0.35769 0.7608 0.0
C511 C 0.76518 0.36419 0.75323 0.0
C512 C 0.73881 0.34454 0.74961 0.0
C513 C 0.81265 0.37748 0.76184 0.0
C514 C 0.82141 0.39974 0.77565 0.0
C515 C 0.83147 0.3732 0.75064 0.0
C516 C 0.82334 0.35098 0.73462 0.0
C517 C 0.8061 0.34725 0.71655 0.0
C518 C 0.79788 0.32587 0.70191 0.0
C519 C 0.80688 0.30816 0.70506 0.0
C520 C 0.82423 0.31186 0.72282 0.0
C521 C 0.83251 0.3332 0.73753 0.0
H522 H 0.80044 0.2916 0.69372 0.0
H523 H 0.87802 0.49805 0.8369 0.0
H524 H 0.53824 0.9285 0.98207 0.0
H525 H 0.52188 0.88625 0.96297 0.0
H526 H 0.46756 0.9001 0.92399 0.0
H527 H 0.48404 0.94258 0.94327 0.0
H528 H 0.44241 0.85382 0.94472 0.0
H529 H 0.51737 0.89649 0.89831 0.0
H530 H 0.56435 0.92458 0.88934 0.0
H531 H 0.58372 0.87364 0.92568 0.0
H532 H 0.5369 0.84542 0.93515 0.0
H533 H 0.43829 0.73519 0.87971 0.0
H534 H 0.45537 0.78216 0.88498 0.0
H535 H 0.43231 0.76953 0.95423 0.0
H536 H 0.41494 0.72251 0.94901 0.0
H537 H 0.49443 0.81696 0.91128 0.0
H538 H 0.41575 0.81422 0.97142 0.0
H539 H 0.36814 0.7866 0.97841 0.0
H540 H 0.35492 0.75899 0.91012 0.0
H541 H 0.40238 0.78671 0.90263 0.0
C542 C 0.52349 0.9229 0.96883 0.0
C543 C 0.51258 0.93884 0.96391 0.0
C544 C 0.51409 0.89873 0.95796 0.0
C545 C 0.49348 0.88993 0.94199 0.0
C546 C 0.48349 0.90648 0.93622 0.0
C547 C 0.49308 0.93084 0.94702 0.0
C548 C 0.48074 0.86249 0.93328 0.0
C549 C 0.45376 0.84583 0.93722 0.0
C550 C 0.4954 0.85204 0.92326 0.0
C551 C 0.52361 0.86891 0.91756 0.0
C552 C 0.53167 0.89137 0.90453 0.0
C553 C 0.55827 0.9073 0.89933 0.0
C554 C 0.57701 0.90092 0.90696 0.0
C555 C 0.56918 0.87856 0.91978 0.0
C556 C 0.5426 0.86256 0.92504 0.0
C557 C 0.43662 0.74236 0.89602 0.0
C558 C 0.42517 0.72505 0.91393 0.0
C559 C 0.44651 0.76926 0.89902 0.0
C560 C 0.445 0.77944 0.91995 0.0
C561 C 0.43337 0.76216 0.93782 0.0
C562 C 0.4235 0.73525 0.93483 0.0
C563 C 0.45631 0.80818 0.92333 0.0
C564 C 0.48302 0.82503 0.9185 0.0
C565 C 0.44132 0.81887 0.93228 0.0
C566 C 0.41267 0.8024 0.93653 0.0
C567 C 0.40267 0.80235 0.95787 0.0
C568 C 0.37571 0.78666 0.96192 0.0
C569 C 0.35853 0.771 0.94474 0.0
C570 C 0.36826 0.77106 0.92344 0.0
C571 C 0.39519 0.78674 0.91929 0.0
H572 H 0.33767 0.75885 0.94792 0.0
H573 H 0.5976 0.91329 0.90292 0.0
H574 H 0.56711 0.4627 0.14855 0.0
H575 H 0.59691 0.44913 0.13306 0.0
H576 H 0.64772 0.52733 0.10958 0.0
H577 H 0.61877 0.54169 0.12647 0.0
H578 H 0.62033 0.46121 0.08275 0.0
H579 H 0.68359 0.53371 0.13367 0.0
H580 H 0.69624 0.55752 0.1699 0.0
H581 H 0.67677 0.48629 0.20386 0.0
H582 H 0.66295 0.46189 0.16788 0.0
H583 H 0.72501 0.43716 0.05241 0.0
H584 H 0.69763 0.45666 0.06083 0.0
H585 H 0.68327 0.42318 0.12679 0.0
H586 H 0.71126 0.40431 0.11869 0.0
H587 H 0.69508 0.47153 0.13036 0.0
H588 H 0.63547 0.39938 0.08308 0.0
H589 H 0.62091 0.37161 0.04893 0.0
H590 H 0.63126 0.437 0.01005 0.0
H591 H 0.64621 0.46525 0.04394 0.0
C592 C 0.58469 0.47716 0.1402 0.0
C593 C 0.59079 0.50347 0.1392 0.0
C594 C 0.60164 0.46929 0.13129 0.0
C595 C 0.62487 0.48737 0.12076 0.0
C596 C 0.63023 0.51324 0.11823 0.0
C597 C 0.61344 0.52132 0.12757 0.0
C598 C 0.64331 0.47872 0.11281 0.0
C599 C 0.63711 0.46397 0.09284 0.0
C600 C 0.66449 0.48144 0.12645 0.0
C601 C 0.67156 0.49588 0.14815 0.0
C602 C 0.68131 0.52301 0.14892 0.0
C603 C 0.68886 0.53664 0.1694 0.0
C604 C 0.68723 0.52341 0.18919 0.0
C605 C 0.67802 0.49651 0.18853 0.0
C606 C 0.67014 0.48275 0.16812 0.0
C607 C 0.71578 0.4337 0.06863 0.0
C608 C 0.72031 0.41915 0.08489 0.0
C609 C 0.70004 0.44483 0.0734 0.0
C610 C 0.68817 0.44132 0.09442 0.0
C611 C 0.69226 0.42631 0.11048 0.0
C612 C 0.70817 0.41539 0.1058 0.0
C613 C 0.67235 0.45405 0.1001 0.0
C614 C 0.67876 0.46922 0.11987 0.0
C615 C 0.65119 0.45143 0.08638 0.0
C616 C 0.64226 0.43449 0.06599 0.0
C617 C 0.63486 0.40789 0.06721 0.0
C618 C 0.62649 0.39205 0.04791 0.0
C619 C 0.62524 0.40255 0.02732 0.0
C620 C 0.63229 0.4289 0.026 0.0
C621 C 0.64069 0.44483 0.04525 0.0
H622 H 0.61875 0.39026 0.0124 0.0
H623 H 0.69314 0.534 0.20502 0.0
H624 H 0.42817 0.94966 0.52353 0.0
H625 H 0.40585 0.90683 0.54202 0.0
H626 H 0.45096 0.88164 0.50292 0.0
H627 H 0.47355 0.92421 0.48494 0.0
H628 H 0.39445 0.84972 0.4984 0.0
H629 H 0.46328 0.88988 0.55558 0.0
H630 H 0.48913 0.92292 0.58481 0.0
H631 H 0.4185 0.90034 0.62178 0.0
H632 H 0.39215 0.8674 0.59259 0.0
H633 H 0.35111 0.72194 0.53348 0.0
H634 H 0.37932 0.7682 0.52477 0.0
H635 H 0.34619 0.78963 0.57976 0.0
H636 H 0.31899 0.74343 0.58922 0.0
H637 H 0.39481 0.82479 0.57755 0.0
H638 H 0.32531 0.78629 0.52302 0.0
H639 H 0.2963 0.75444 0.49417 0.0
H640 H 0.36317 0.77541 0.45242 0.0
H641 H 0.39264 0.80715 0.48117 0.0
C642 C 0.43389 0.93526 0.51947 0.0
C643 C 0.45241 0.94019 0.50263 0.0
C644 C 0.42104 0.91077 0.52992 0.0
C645 C 0.42656 0.89096 0.52363 0.0
C646 C 0.44624 0.89654 0.5079 0.0
C647 C 0.45916 0.9209 0.49767 0.0
C648 C 0.4103 0.86365 0.53156 0.0
C649 C 0.39474 0.84419 0.51567 0.0
C650 C 0.40986 0.85665 0.55422 0.0
C651 C 0.42571 0.87639 0.57178 0.0
C652 C 0.45322 0.89214 0.56983 0.0
C653 C 0.46797 0.91081 0.58642 0.0
C654 C 0.45546 0.91379 0.60511 0.0
C655 C 0.42816 0.89805 0.60728 0.0
C656 C 0.41332 0.87936 0.59073 0.0
C657 C 0.35009 0.73654 0.54387 0.0
C658 C 0.3327 0.72901 0.56194 0.0
C659 C 0.36609 0.76302 0.53879 0.0
C660 C 0.36445 0.78256 0.5512 0.0
C661 C 0.34782 0.77507 0.56982 0.0
C662 C 0.33223 0.7486 0.5752 0.0
C663 C 0.37929 0.81056 0.54424 0.0
C664 C 0.39443 0.8302 0.56027 0.0
C665 C 0.37887 0.81793 0.52173 0.0
C666 C 0.36121 0.79892 0.50435 0.0
C667 C 0.33385 0.78398 0.50775 0.0
C668 C 0.31732 0.76596 0.49141 0.0
C669 C 0.3279 0.76285 0.4715 0.0
C670 C 0.35501 0.77781 0.46787 0.0
C671 C 0.37164 0.79584 0.48417 0.0
H672 H 0.31507 0.74889 0.45887 0.0
H673 H 0.46691 0.92825 0.61794 0.0
H674 H 0.50633 0.42706 0.68607 0.0
H675 H 0.5221 0.39981 0.7043 0.0
H676 H 0.59999 0.45004 0.67883 0.0
H677 H 0.58471 0.47747 0.66127 0.0
H678 H 0.56746 0.38977 0.66604 0.0
H679 H 0.60201 0.45576 0.72656 0.0
H680 H 0.59643 0.48107 0.75696 0.0
H681 H 0.54247 0.40973 0.7896 0.0
H682 H 0.54744 0.384 0.75918 0.0
H683 H 0.65071 0.3417 0.69709 0.0
H684 H 0.63241 0.37026 0.68961 0.0
H685 H 0.57952 0.3367 0.74508 0.0
H686 H 0.59885 0.30916 0.75333 0.0
H687 H 0.59378 0.38513 0.74442 0.0
H688 H 0.55962 0.31841 0.68806 0.0
H689 H 0.56057 0.29003 0.65795 0.0
H690 H 0.60658 0.35736 0.61749 0.0
H691 H 0.60622 0.38618 0.64749 0.0
C692 C 0.52698 0.43271 0.68507 0.0
C693 C 0.54424 0.4542 0.67209 0.0
C694 C 0.53592 0.4171 0.69535 0.0
C695 C 0.56216 0.42288 0.69272 0.0
C696 C 0.57969 0.44524 0.68098 0.0
C697 C 0.57091 0.46087 0.67098 0.0
C698 C 0.57093 0.40434 0.69977 0.0
C699 C 0.57337 0.3888 0.68315 0.0
C700 C 0.57768 0.40248 0.72219 0.0
C701 C 0.57481 0.41797 0.74045 0.0
C702 C 0.58871 0.44547 0.74008 0.0
C703 C 0.58573 0.45989 0.75735 0.0
C704 C 0.56903 0.44702 0.77516 0.0
C705 C 0.55535 0.41968 0.77577 0.0
C706 C 0.55826 0.40518 0.75853 0.0
C707 C 0.63534 0.34059 0.70779 0.0
C708 C 0.62612 0.32308 0.7257 0.0
C709 C 0.62471 0.35678 0.70341 0.0
C710 C 0.604 0.35523 0.71639 0.0
C711 C 0.59535 0.33828 0.73472 0.0
C712 C 0.6064 0.32248 0.73941 0.0
C713 C 0.59112 0.37087 0.71051 0.0
C714 C 0.58774 0.3858 0.72731 0.0
C715 C 0.58287 0.37174 0.68825 0.0
C716 C 0.58307 0.35447 0.67011 0.0
C717 C 0.57009 0.32718 0.6728 0.0
C718 C 0.5705 0.31101 0.65574 0.0
C719 C 0.58368 0.32189 0.63584 0.0
C720 C 0.59641 0.34896 0.63293 0.0
C721 C 0.59608 0.36522 0.64994 0.0
H722 H 0.58398 0.30934 0.62266 0.0
H723 H 0.56675 0.45821 0.78852 0.0
H724 H 0.11943 0.59438 0.84877 0.0
H725 H 0.16306 0.60959 0.86576 0.0
H726 H 0.14682 0.52984 0.86895 0.0
H727 H 0.10292 0.51457 0.85209 0.0
H728 H 0.17969 0.56197 0.90475 0.0
H729 H 0.17407 0.56211 0.82407 0.0
H730 H 0.16082 0.57318 0.78825 0.0
H731 H 0.20917 0.65507 0.80391 0.0
H732 H 0.22236 0.64446 0.84004 0.0
H733 H 0.30265 0.57174 0.89324 0.0
H734 H 0.25798 0.56274 0.88563 0.0
H735 H 0.28574 0.6455 0.88259 0.0
H736 H 0.33114 0.65489 0.89015 0.0
H737 H 0.24766 0.61589 0.84925 0.0
H738 H 0.25733 0.61436 0.92884 0.0
H739 H 0.27045 0.60152 0.96379 0.0
H740 H 0.21445 0.52077 0.94959 0.0
H741 H 0.20135 0.53306 0.91431 0.0
C742 C 0.12476 0.58006 0.85405 0.0
C743 C 0.10791 0.55334 0.84924 0.0
C744 C 0.14974 0.58875 0.86357 0.0
C745 C 0.15836 0.57089 0.86818 0.0
C746 C 0.14054 0.54395 0.86548 0.0
C747 C 0.11544 0.53521 0.85598 0.0
C748 C 0.18679 0.58046 0.87263 0.0
C749 C 0.19455 0.57367 0.89262 0.0
C750 C 0.20622 0.59605 0.85688 0.0
C751 C 0.19899 0.6025 0.83486 0.0
C752 C 0.18177 0.58248 0.81993 0.0
C753 C 0.17427 0.58866 0.79957 0.0
C754 C 0.18408 0.61481 0.79384 0.0
C755 C 0.20154 0.63482 0.8084 0.0
C756 C 0.20905 0.62874 0.82881 0.0
C757 C 0.29946 0.58817 0.89086 0.0
C758 C 0.32055 0.61412 0.8926 0.0
C759 C 0.27381 0.58292 0.88654 0.0
C760 C 0.26843 0.60342 0.88403 0.0
C761 C 0.28947 0.62938 0.88467 0.0
C762 C 0.31538 0.63472 0.88896 0.0
C763 C 0.24061 0.59732 0.88135 0.0
C764 C 0.23291 0.60461 0.8616 0.0
C765 C 0.22124 0.58204 0.89726 0.0
C766 C 0.22846 0.57463 0.91884 0.0
C767 C 0.24789 0.59384 0.93311 0.0
C768 C 0.25534 0.58667 0.95298 0.0
C769 C 0.24331 0.56034 0.95889 0.0
C770 C 0.22374 0.54115 0.94499 0.0
C771 C 0.21628 0.54822 0.92506 0.0
H772 H 0.24915 0.55482 0.97426 0.0
H773 H 0.1782 0.61955 0.7781 0.0
H774 H 0.62238 0.10401 0.00177 0.0
H775 H 0.65034 0.14751 0.01882 0.0
H776 H 0.58122 0.15393 0.03136 0.0
H777 H 0.55334 0.11047 0.01418 0.0
H778 H 0.65421 0.19243 0.00164 0.0
H779 H 0.59599 0.19573 0.07786 0.0
H780 H 0.56584 0.16605 0.10637 0.0
H781 H 0.60026 0.11684 0.09978 0.0
H782 H 0.63083 0.1464 0.07148 0.0
H783 H 0.70787 0.32588 0.0388 0.0
H784 H 0.67398 0.28085 0.02834 0.0
H785 H 0.7044 0.25087 0.07919 0.0
H786 H 0.73817 0.29527 0.08944 0.0
H787 H 0.6493 0.2245 0.07754 0.0
H788 H 0.72356 0.25285 0.02779 0.0
H789 H 0.75528 0.28212 0.99998 0.0
H790 H 0.69137 0.26656 0.95467 0.0
H791 H 0.65925 0.23748 0.98239 0.0
C792 C 0.61317 0.11436 0.00896 0.0
C793 C 0.58576 0.1038 0.00718 0.0
C794 C 0.62912 0.13929 0.01842 0.0
C795 C 0.61789 0.15401 0.02632 0.0
C796 C 0.59031 0.14286 0.02558 0.0
C797 C 0.57438 0.11799 0.01595 0.0
C798 C 0.63514 0.18172 0.03363 0.0
C799 C 0.65305 0.19941 0.01823 0.0
C800 C 0.63359 0.19093 0.05521 0.0
C801 C 0.61549 0.17313 0.07237 0.0
C802 C 0.59717 0.17861 0.08255 0.0
C803 C 0.58 0.16181 0.09867 0.0
C804 C 0.58107 0.13953 0.10482 0.0
C805 C 0.59937 0.13405 0.09493 0.0
C806 C 0.61659 0.15079 0.07882 0.0
C807 C 0.70707 0.30968 0.0479 0.0
C808 C 0.72586 0.31418 0.06482 0.0
C809 C 0.68776 0.28399 0.0419 0.0
C810 C 0.68675 0.26251 0.05296 0.0
C811 C 0.70474 0.2671 0.07048 0.0
C812 C 0.72417 0.29257 0.07621 0.0
C813 C 0.66829 0.23512 0.04554 0.0
C814 C 0.65016 0.21752 0.06087 0.0
C815 C 0.66972 0.2259 0.02394 0.0
C816 C 0.68901 0.24326 0.00725 0.0
C817 C 0.71627 0.25585 0.01197 0.0
C818 C 0.73432 0.27237 0.99622 0.0
C819 C 0.72534 0.27626 0.9756 0.0
C820 C 0.69829 0.26358 0.97067 0.0
C821 C 0.68016 0.24707 0.98639 0.0
H822 H 0.73934 0.28905 0.96342 0.0
H823 H 0.56776 0.12654 0.11729 0.0
H824 H 0.49245 0.5713 0.18489 0.0
H825 H 0.47239 0.59477 0.20282 0.0
H826 H 0.53095 0.66665 0.173 0.0
H827 H 0.55093 0.64337 0.15523 0.0
H828 H 0.52051 0.67363 0.217 0.0
H829 H 0.4699 0.62932 0.14813 0.0
H830 H 0.4418 0.58999 0.1248 0.0
H831 H 0.3858 0.55799 0.17777 0.0
H832 H 0.4135 0.59699 0.20141 0.0
H833 H 0.47522 0.76144 0.21135 0.0
H834 H 0.48948 0.73021 0.2018 0.0
H835 H 0.41603 0.66706 0.22593 0.0
H836 H 0.40109 0.69846 0.23453 0.0
H837 H 0.43022 0.65019 0.19136 0.0
H838 H 0.47424 0.69426 0.25819 0.0
H839 H 0.49981 0.73183 0.28381 0.0
H840 H 0.56624 0.76095 0.24015 0.0
H841 H 0.54091 0.72381 0.21404 0.0
C842 C 0.50142 0.59224 0.18273 0.0
C843 C 0.52328 0.60556 0.16875 0.0
C844 C 0.48978 0.60556 0.19274 0.0
C845 C 0.49996 0.63242 0.189 0.0
C846 C 0.52271 0.64595 0.1761 0.0
C847 C 0.53416 0.63266 0.16599 0.0
C848 C 0.48651 0.64651 0.19742 0.0
C849 C 0.50081 0.66858 0.21135 0.0
C850 C 0.46035 0.63928 0.19087 0.0
C851 C 0.44389 0.61589 0.1766 0.0
C852 C 0.45169 0.61379 0.15484 0.0
C853 C 0.43584 0.59161 0.14156 0.0
C854 C 0.41216 0.5715 0.14984 0.0
C855 C 0.40418 0.57355 0.17139 0.0
C856 C 0.41991 0.59569 0.18471 0.0
C857 C 0.46195 0.74084 0.21436 0.0
C858 C 0.43713 0.73238 0.22382 0.0
C859 C 0.47022 0.723 0.20908 0.0
C860 C 0.45426 0.69631 0.21383 0.0
C861 C 0.42886 0.68756 0.22231 0.0
C862 C 0.42029 0.70547 0.22717 0.0
C863 C 0.46463 0.678 0.21027 0.0
C864 C 0.44976 0.65511 0.19735 0.0
C865 C 0.49005 0.6841 0.21824 0.0
C866 C 0.50559 0.70629 0.23408 0.0
C867 C 0.49426 0.70874 0.25398 0.0
C868 C 0.50871 0.72997 0.2686 0.0
C869 C 0.53463 0.74877 0.2636 0.0
C870 C 0.54616 0.74636 0.244 0.0
C871 C 0.53177 0.72521 0.22929 0.0
H872 H 0.54578 0.7652 0.27493 0.0
H873 H 0.39994 0.55436 0.13953 0.0
H874 H 0.94067 0.47698 0.35264 0.0
H875 H 0.89667 0.45669 0.36911 0.0
H876 H 0.89694 0.52975 0.36368 0.0
H877 H 0.94104 0.55002 0.34739 0.0
H878 H 0.86948 0.50167 0.40083 0.0
H879 H 0.87515 0.4868 0.3218 0.0
H880 H 0.89015 0.47151 0.28958 0.0
H881 H 0.84941 0.39312 0.31441 0.0
H882 H 0.83488 0.40807 0.34724 0.0
H883 H 0.74184 0.47432 0.38047 0.0
H884 H 0.78732 0.48589 0.37398 0.0
H885 H 0.76773 0.4062 0.38589 0.0
H886 H 0.72147 0.39423 0.39247 0.0
H887 H 0.80455 0.43178 0.34968 0.0
H888 H 0.79498 0.44629 0.42695 0.0
H889 H 0.77918 0.46208 0.45825 0.0
H890 H 0.82623 0.54112 0.4359 0.0
H891 H 0.84193 0.52575 0.40419 0.0
C892 C 0.93184 0.48899 0.35607 0.0
C893 C 0.9443 0.51513 0.34914 0.0
C894 C 0.90659 0.47732 0.3652 0.0
C895 C 0.8933 0.49157 0.36723 0.0
C896 C 0.9068 0.51838 0.36227 0.0
C897 C 0.93207 0.53004 0.35315 0.0
C898 C 0.86446 0.478 0.37155 0.0
C899 C 0.85532 0.48638 0.38967 0.0
C900 C 0.84591 0.45769 0.35717 0.0
C901 C 0.85422 0.44863 0.33717 0.0
C902 C 0.86961 0.46634 0.32054 0.0
C903 C 0.87806 0.45775 0.30218 0.0
C904 C 0.87078 0.43139 0.29996 0.0
C905 C 0.85507 0.41356 0.31616 0.0
C906 C 0.84679 0.42209 0.33469 0.0
C907 C 0.74699 0.45906 0.3815 0.0
C908 C 0.72804 0.43338 0.38731 0.0
C909 C 0.77308 0.46577 0.37778 0.0
C910 C 0.78106 0.44707 0.37992 0.0
C911 C 0.76198 0.42097 0.38431 0.0
C912 C 0.73558 0.41415 0.388 0.0
C913 C 0.80965 0.45569 0.37879 0.0
C914 C 0.81874 0.44657 0.36117 0.0
C915 C 0.82818 0.47535 0.39359 0.0
C916 C 0.81953 0.48483 0.4131 0.0
C917 C 0.80188 0.46703 0.42864 0.0
C918 C 0.79292 0.4759 0.44645 0.0
C919 C 0.80165 0.50258 0.44904 0.0
C920 C 0.81947 0.52045 0.43387 0.0
C921 C 0.82844 0.51168 0.41598 0.0
H922 H 0.79464 0.5094 0.46281 0.0
H923 H 0.87726 0.42479 0.28567 0.0
H924 H 0.11881 0.56732 0.36098 0.0
H925 H 0.14243 0.57539 0.3966 0.0
H926 H 0.08519 0.59045 0.42828 0.0
H927 H 0.06184 0.58326 0.39212 0.0
H928 H 0.13377 0.62808 0.43877 0.0
H929 H 0.08942 0.53524 0.44031 0.0
H930 H 0.07323 0.49016 0.42657 0.0
H931 H 0.153 0.5066 0.41887 0.0
H932 H 0.1697 0.55192 0.43219 0.0
H933 H 0.19765 0.63831 0.5452 0.0
H934 H 0.165 0.62469 0.51443 0.0
H935 H 0.21739 0.61332 0.47135 0.0
H936 H 0.25004 0.62713 0.50207 0.0
H937 H 0.16664 0.57167 0.46966 0.0
H938 H 0.21006 0.66541 0.46508 0.0
H939 H 0.22613 0.71022 0.47954 0.0
H940 H 0.14675 0.6907 0.49462 0.0
H941 H 0.13024 0.64562 0.48054 0.0
C942 C 0.11103 0.57202 0.37559 0.0
C943 C 0.08856 0.57483 0.37374 0.0
C944 C 0.12446 0.57644 0.39602 0.0
C945 C 0.11552 0.58335 0.41522 0.0
C946 C 0.09243 0.58511 0.41368 0.0
C947 C 0.07896 0.58075 0.3931 0.0
C948 C 0.13157 0.59053 0.43629 0.0
C949 C 0.1404 0.61542 0.4459 0.0
C950 C 0.14076 0.57432 0.44533 0.0
C951 C 0.13081 0.54709 0.43709 0.0
C952 C 0.10352 0.52934 0.43549 0.0
C953 C 0.09425 0.50371 0.4278 0.0
C954 C 0.11208 0.49553 0.4218 0.0
C955 C 0.13922 0.51296 0.42349 0.0
C956 C 0.14859 0.53863 0.43113 0.0
C957 C 0.20207 0.63285 0.52913 0.0
C958 C 0.22582 0.63279 0.5261 0.0
C959 C 0.18352 0.62519 0.51158 0.0
C960 C 0.18873 0.6179 0.49062 0.0
C961 C 0.21287 0.61864 0.48744 0.0
C962 C 0.2314 0.62633 0.50498 0.0
C963 C 0.16892 0.60909 0.47205 0.0
C964 C 0.15952 0.58399 0.46286 0.0
C965 C 0.15907 0.62497 0.46359 0.0
C966 C 0.16895 0.65206 0.47201 0.0
C967 C 0.19605 0.6706 0.47167 0.0
C968 C 0.20524 0.69606 0.47976 0.0
C969 C 0.18748 0.70328 0.48806 0.0
C970 C 0.16049 0.68507 0.48823 0.0
C971 C 0.1512 0.65956 0.48019 0.0
H972 H 0.19462 0.723 0.49431 0.0
H973 H 0.10486 0.47568 0.41587 0.0
H974 H 0.48865 0.09247 0.54704 0.0
H975 H 0.50572 0.1146 0.58325 0.0
H976 H 0.56202 0.08755 0.5848 0.0
H977 H 0.54465 0.06504 0.54854 0.0
H978 H 0.54417 0.09095 0.62762 0.0
H979 H 0.5802 0.14374 0.56243 0.0
H980 H 0.5769 0.16144 0.52598 0.0
H981 H 0.53761 0.19828 0.55707 0.0
H982 H 0.54017 0.1803 0.59365 0.0
H983 H 0.64648 0.23608 0.66692 0.0
H984 H 0.62483 0.20089 0.63889 0.0
H985 H 0.56154 0.1575 0.68482 0.0
H986 H 0.58496 0.19101 0.71363 0.0
H987 H 0.58223 0.18668 0.61873 0.0
H988 H 0.53335 0.11103 0.67985 0.0
H989 H 0.53776 0.08828 0.71279 0.0
H990 H 0.60758 0.09308 0.68519 0.0
H991 H 0.60367 0.11631 0.65235 0.0
C992 C 0.50404 0.09052 0.55553 0.0
C993 C 0.5155 0.07725 0.54509 0.0
C994 C 0.51383 0.10322 0.57612 0.0
C995 C 0.53546 0.10313 0.58643 0.0
C996 C 0.54535 0.08788 0.57704 0.0
C997 C 0.53541 0.07499 0.55642 0.0
C998 C 0.54981 0.12162 0.60518 0.0
C999 C 0.55248 0.1119 0.62576 0.0
C1000 C 0.56101 0.14895 0.60257 0.0
C1001 C 0.56015 0.16046 0.58074 0.0
C1002 C 0.57072 0.15549 0.56147 0.0
C1003 C 0.56898 0.16556 0.54079 0.0
C1004 C 0.557 0.18093 0.5392 0.0
C1005 C 0.54684 0.18633 0.55832 0.0
C1006 C 0.54843 0.1762 0.57903 0.0
C1007 C 0.6287 0.2183 0.67135 0.0
C1008 C 0.6182 0.21554 0.6928 0.0
C1009 C 0.61604 0.19831 0.65524 0.0
C1010 C 0.59187 0.17567 0.65987 0.0
C1011 C 0.58088 0.17355 0.68111 0.0
C1012 C 0.59404 0.1931 0.69746 0.0
C1013 C 0.5769 0.15623 0.64158 0.0
C1014 C 0.57397 0.16579 0.62084 0.0
C1015 C 0.56584 0.12878 0.64396 0.0
C1016 C 0.56918 0.11676 0.66443 0.0
C1017 C 0.55006 0.10789 0.68119 0.0
C1018 C 0.55234 0.09476 0.69975 0.0
C1019 C 0.5732 0.08962 0.70128 0.0
C1020 C 0.59167 0.09743 0.68418 0.0
C1021 C 0.58962 0.11087 0.66576 0.0
H1022 H 0.57487 0.07932 0.71558 0.0
H1023 H 0.55564 0.18868 0.52316 0.0
H1024 H 0.4602 0.49504 0.72166 0.0
H1025 H 0.44933 0.50778 0.7575 0.0
H1026 H 0.50285 0.58901 0.74339 0.0
H1027 H 0.5133 0.57628 0.70734 0.0
H1028 H 0.49875 0.57317 0.79187 0.0
H1029 H 0.44717 0.56929 0.72609 0.0
H1030 H 0.42027 0.54675 0.69247 0.0
H1031 H 0.36273 0.48582 0.73338 0.0
H1032 H 0.38979 0.50752 0.76723 0.0
H1033 H 0.44213 0.63759 0.85111 0.0
H1034 H 0.45984 0.62291 0.82085 0.0
H1035 H 0.39826 0.54319 0.83061 0.0
H1036 H 0.38052 0.55759 0.86099 0.0
H1037 H 0.40693 0.55683 0.7855 0.0
H1038 H 0.45555 0.5599 0.85108 0.0
H1039 H 0.48227 0.57953 0.88543 0.0
H1040 H 0.54399 0.63929 0.84649 0.0
H1041 H 0.51741 0.62026 0.81191 0.0
C1042 C 0.47047 0.51549 0.72673 0.0
C1043 C 0.48772 0.53472 0.712 0.0
C1044 C 0.46419 0.52276 0.74709 0.0
C1045 C 0.4752 0.54933 0.75297 0.0
C1046 C 0.49432 0.56842 0.7392 0.0
C1047 C 0.50031 0.56117 0.71868 0.0
C1048 C 0.4636 0.55731 0.77121 0.0
C1049 C 0.47879 0.56985 0.79046 0.0
C1050 C 0.43736 0.55247 0.76943 0.0
C1051 C 0.42067 0.53986 0.74917 0.0
C1052 C 0.42891 0.55096 0.72791 0.0
C1053 C 0.41363 0.53836 0.70881 0.0
C1054 C 0.38981 0.51489 0.71078 0.0
C1055 C 0.38121 0.50399 0.73188 0.0
C1056 C 0.39654 0.5164 0.75102 0.0
C1057 C 0.43213 0.61697 0.84664 0.0
C1058 C 0.40991 0.59876 0.8585 0.0
C1059 C 0.44239 0.60861 0.82946 0.0
C1060 C 0.43051 0.58194 0.82368 0.0
C1061 C 0.40776 0.56384 0.83487 0.0
C1062 C 0.39768 0.57213 0.85224 0.0
C1063 C 0.44209 0.57286 0.80622 0.0
C1064 C 0.42688 0.56014 0.78703 0.0
C1065 C 0.4682 0.57734 0.80819 0.0
C1066 C 0.48435 0.58881 0.82891 0.0
C1067 C 0.47472 0.57737 0.84985 0.0
C1068 C 0.48985 0.58836 0.86937 0.0
C1069 C 0.51478 0.61068 0.86815 0.0
C1070 C 0.52465 0.62202 0.84741 0.0
C1071 C 0.50956 0.61113 0.82783 0.0
H1072 H 0.52648 0.61916 0.88328 0.0
H1073 H 0.37801 0.50517 0.69596 0.0
H1074 H 0.98635 0.46958 0.88905 0.0
H1075 H 0.96002 0.45503 0.92322 0.0
H1076 H 0.91163 0.48611 0.89863 0.0
H1077 H 0.93753 0.50008 0.86443 0.0
H1078 H 0.94598 0.47429 0.95721 0.0
H1079 H 0.84684 0.44396 0.90951 0.0
H1080 H 0.82509 0.42631 0.87281 0.0
H1081 H 0.87911 0.39866 0.85948 0.0
H1082 H 0.90093 0.41575 0.89624 0.0
H1083 H 0.80866 0.4232 0.01023 0.0
H1084 H 0.8384 0.44117 0.97858 0.0
H1085 H 0.88012 0.40193 0.00036 0.0
H1086 H 0.85068 0.38397 0.03212 0.0
H1087 H 0.84963 0.41733 0.94387 0.0
H1088 H 0.94621 0.44252 0.98992 0.0
H1089 H 0.96417 0.45132 0.02861 0.0
H1090 H 0.91406 0.48256 0.04574 0.0
H1091 H 0.89612 0.47437 0.00706 0.0
C1092 C 0.9706 0.47398 0.89134 0.0
C1093 C 0.96389 0.48589 0.8742 0.0
C1094 C 0.95545 0.46553 0.91076 0.0
C1095 C 0.93341 0.46888 0.91325 0.0
C1096 C 0.92812 0.48272 0.89688 0.0
C1097 C 0.94308 0.49096 0.87747 0.0
C1098 C 0.91497 0.45657 0.93213 0.0
C1099 C 0.92495 0.46168 0.95424 0.0
C1100 C 0.88744 0.4401 0.92837 0.0
C1101 C 0.87564 0.43133 0.90559 0.0
C1102 C 0.85413 0.43418 0.89872 0.0
C1103 C 0.84172 0.42417 0.87796 0.0
C1104 C 0.85056 0.41115 0.86395 0.0
C1105 C 0.8722 0.40862 0.87044 0.0
C1106 C 0.88466 0.41854 0.89121 0.0
C1107 C 0.82399 0.41815 0.00823 0.0
C1108 C 0.82729 0.40221 0.02387 0.0
C1109 C 0.84099 0.42848 0.99011 0.0
C1110 C 0.86174 0.42326 0.98735 0.0
C1111 C 0.86453 0.4066 0.00241 0.0
C1112 C 0.84751 0.3962 0.02049 0.0
C1113 C 0.88057 0.43542 0.96878 0.0
C1114 C 0.87064 0.43018 0.94675 0.0
C1115 C 0.9081 0.45132 0.97262 0.0
C1116 C 0.91967 0.4576 0.99563 0.0
C1117 C 0.93919 0.45147 0.00189 0.0
C1118 C 0.94933 0.45632 0.02382 0.0
C1119 C 0.94018 0.4674 0.03963 0.0
C1120 C 0.92106 0.4739 0.03349 0.0
C1121 C 0.9109 0.46916 0.01156 0.0
H1122 H 0.94792 0.47095 0.05663 0.0
H1123 H 0.84066 0.40309 0.84803 0.0
H1124 H 0.46339 0.93735 0.03085 0.0
H1125 H 0.45129 0.91596 0.06721 0.0
H1126 H 0.5304 0.96736 0.09229 0.0
H1127 H 0.54255 0.98885 0.05572 0.0
H1128 H 0.51502 0.91563 0.09702 0.0
H1129 H 0.47943 0.9709 0.11434 0.0
H1130 H 0.45295 0.99231 0.10799 0.0
H1131 H 0.38218 0.91728 0.10457 0.0
H1132 H 0.40828 0.89537 0.11057 0.0
H1133 H 0.48748 0.85916 0.20471 0.0
H1134 H 0.49981 0.88953 0.17375 0.0
H1135 H 0.42132 0.84455 0.14531 0.0
H1136 H 0.40852 0.81415 0.17656 0.0
H1137 H 0.43807 0.89612 0.14413 0.0
H1138 H 0.47296 0.84077 0.12328 0.0
H1139 H 0.49861 0.81827 0.12838 0.0
H1140 H 0.56974 0.89237 0.13695 0.0
H1141 H 0.54444 0.91531 0.13221 0.0
C1142 C 0.47793 0.94458 0.04437 0.0
C1143 C 0.50386 0.96473 0.0406 0.0
C1144 C 0.47102 0.93239 0.06513 0.0
C1145 C 0.48993 0.94007 0.08248 0.0
C1146 C 0.5155 0.96118 0.07912 0.0
C1147 C 0.52237 0.97357 0.05835 0.0
C1148 C 0.48371 0.92405 0.10298 0.0
C1149 C 0.49856 0.91183 0.10764 0.0
C1150 C 0.46166 0.91838 0.11632 0.0
C1151 C 0.44586 0.93148 0.11274 0.0
C1152 C 0.45825 0.95894 0.11205 0.0
C1153 C 0.4433 0.97117 0.10855 0.0
C1154 C 0.41591 0.95617 0.10583 0.0
C1155 C 0.40341 0.92888 0.10666 0.0
C1156 C 0.41827 0.91655 0.11015 0.0
C1157 C 0.47278 0.85552 0.19185 0.0
C1158 C 0.44697 0.83403 0.19315 0.0
C1159 C 0.47993 0.87296 0.1741 0.0
C1160 C 0.46158 0.86922 0.15709 0.0
C1161 C 0.43581 0.84783 0.15827 0.0
C1162 C 0.42858 0.83037 0.17609 0.0
C1163 C 0.46933 0.88765 0.13809 0.0
C1164 C 0.45472 0.90019 0.13367 0.0
C1165 C 0.49148 0.89349 0.1248 0.0
C1166 C 0.50676 0.87975 0.12764 0.0
C1167 C 0.49404 0.85226 0.12644 0.0
C1168 C 0.50852 0.83943 0.12924 0.0
C1169 C 0.53578 0.85388 0.13306 0.0
C1170 C 0.54862 0.8812 0.13403 0.0
C1171 C 0.53422 0.89413 0.13128 0.0
H1172 H 0.54695 0.8439 0.13521 0.0
H1173 H 0.40437 0.96567 0.10312 0.0
H1174 H 0.5683 0.54026 0.22524 0.0
H1175 H 0.5769 0.5264 0.26152 0.0
H1176 H 0.53763 0.44637 0.23778 0.0
H1177 H 0.5287 0.46002 0.20172 0.0
H1178 H 0.54545 0.47577 0.29583 0.0
H1179 H 0.59077 0.44044 0.2334 0.0
H1180 H 0.60452 0.44819 0.19384 0.0
H1181 H 0.63306 0.53034 0.20306 0.0
H1182 H 0.61975 0.52309 0.24268 0.0
H1183 H 0.59769 0.40419 0.35218 0.0
H1184 H 0.57697 0.41643 0.32228 0.0
H1185 H 0.64632 0.49293 0.31964 0.0
H1186 H 0.66694 0.4811 0.34985 0.0
H1187 H 0.62306 0.46691 0.27592 0.0
H1188 H 0.60141 0.49144 0.34667 0.0
H1189 H 0.58454 0.48256 0.38518 0.0
H1190 H 0.50849 0.4236 0.3602 0.0
H1191 H 0.52509 0.43176 0.32154 0.0
C1192 C 0.56014 0.51955 0.22826 0.0
C1193 C 0.54808 0.50121 0.21069 0.0
C1194 C 0.5651 0.51166 0.24896 0.0
C1195 C 0.55809 0.48542 0.25217 0.0
C1196 C 0.54309 0.46668 0.23562 0.0
C1197 C 0.53803 0.47451 0.21503 0.0
C1198 C 0.57177 0.4787 0.26962 0.0
C1199 C 0.5624 0.47383 0.29157 0.0
C1200 C 0.59395 0.47636 0.26399 0.0
C1201 C 0.60422 0.48121 0.2409 0.0
C1202 C 0.60029 0.46018 0.22702 0.0
C1203 C 0.60788 0.46446 0.20459 0.0
C1204 C 0.61949 0.48971 0.19595 0.0
C1205 C 0.62397 0.5108 0.20978 0.0
C1206 C 0.61644 0.50662 0.23221 0.0
C1207 C 0.60871 0.42345 0.34496 0.0
C1208 C 0.63394 0.4417 0.35335 0.0
C1209 C 0.59679 0.43045 0.32799 0.0
C1210 C 0.6101 0.45561 0.3189 0.0
C1211 C 0.63577 0.47342 0.32647 0.0
C1212 C 0.64748 0.46664 0.34373 0.0
C1213 C 0.59678 0.46386 0.30231 0.0
C1214 C 0.60619 0.46892 0.28035 0.0
C1215 C 0.57477 0.46654 0.30808 0.0
C1216 C 0.56457 0.46202 0.33123 0.0
C1217 C 0.58115 0.47643 0.3494 0.0
C1218 C 0.57163 0.47154 0.37126 0.0
C1219 C 0.54547 0.45248 0.37515 0.0
C1220 C 0.52876 0.43833 0.35717 0.0
C1221 C 0.53821 0.44308 0.33528 0.0
H1222 H 0.53814 0.44872 0.39208 0.0
H1223 H 0.62505 0.49297 0.17853 0.0
H1224 H 0.42081 0.95029 0.42859 0.0
H1225 H 0.41264 0.92763 0.39253 0.0
H1226 H 0.49634 0.9687 0.38006 0.0
H1227 H 0.50455 0.99096 0.41673 0.0
H1228 H 0.41936 0.93467 0.34978 0.0
H1229 H 0.51197 0.92341 0.3579 0.0
H1230 H 0.54348 0.92577 0.38697 0.0
H1231 H 0.48496 0.90659 0.43741 0.0
H1232 H 0.453 0.90363 0.40861 0.0
H1233 H 0.4165 0.85645 0.25717 0.0
H1234 H 0.42861 0.89139 0.28514 0.0
H1235 H 0.42417 0.8389 0.33728 0.0
H1236 H 0.41378 0.80464 0.309 0.0
H1237 H 0.4639 0.88196 0.34575 0.0
H1238 H 0.37502 0.8579 0.32644 0.0
H1239 H 0.33755 0.84939 0.30152 0.0
H1240 H 0.37886 0.92923 0.28005 0.0
H1241 H 0.41673 0.93813 0.30464 0.0
C1242 C 0.43737 0.95509 0.4178 0.0
C1243 C 0.46329 0.97215 0.42539 0.0
C1244 C 0.43271 0.94216 0.39718 0.0
C1245 C 0.4539 0.94602 0.38377 0.0
C1246 C 0.47971 0.9651 0.39032 0.0
C1247 C 0.4844 0.978 0.41112 0.0
C1248 C 0.44889 0.92762 0.36474 0.0
C1249 C 0.42937 0.92339 0.34868 0.0
C1250 C 0.46128 0.91224 0.36369 0.0
C1251 C 0.48029 0.9138 0.38115 0.0
C1252 C 0.50585 0.9197 0.3752 0.0
C1253 C 0.52377 0.92109 0.39162 0.0
C1254 C 0.51628 0.91648 0.41404 0.0
C1255 C 0.49079 0.91028 0.42006 0.0
C1256 C 0.47277 0.90875 0.4037 0.0
C1257 C 0.4183 0.85259 0.27464 0.0
C1258 C 0.41508 0.82833 0.28101 0.0
C1259 C 0.42493 0.87242 0.29064 0.0
C1260 C 0.42712 0.86785 0.31346 0.0
C1261 C 0.42289 0.84311 0.31982 0.0
C1262 C 0.41697 0.82354 0.30372 0.0
C1263 C 0.43431 0.88884 0.33069 0.0
C1264 C 0.45426 0.89357 0.34644 0.0
C1265 C 0.42153 0.90388 0.33198 0.0
C1266 C 0.39881 0.8986 0.31718 0.0
C1267 C 0.37618 0.87359 0.31627 0.0
C1268 C 0.35487 0.8687 0.30223 0.0
C1269 C 0.35586 0.88874 0.28916 0.0
C1270 C 0.37814 0.91372 0.29015 0.0
C1271 C 0.39953 0.9187 0.30415 0.0
H1272 H 0.33933 0.88492 0.2783 0.0
H1273 H 0.53019 0.91761 0.42672 0.0
H1274 H 0.58346 0.4979 0.60471 0.0
H1275 H 0.5957 0.48987 0.56799 0.0
H1276 H 0.51647 0.46292 0.54319 0.0
H1277 H 0.50379 0.46986 0.58073 0.0
H1278 H 0.53024 0.42909 0.53181 0.0
H1279 H 0.57225 0.52086 0.52294 0.0
H1280 H 0.5995 0.5677 0.53284 0.0
H1281 H 0.66776 0.55885 0.54031 0.0
H1282 H 0.64085 0.51186 0.53087 0.0
H1283 H 0.58118 0.41416 0.42534 0.0
H1284 H 0.56207 0.42951 0.45419 0.0
H1285 H 0.62608 0.44409 0.49953 0.0
H1286 H 0.64472 0.4281 0.47096 0.0
H1287 H 0.61542 0.48671 0.49537 0.0
H1288 H 0.56999 0.39317 0.50777 0.0
H1289 H 0.54204 0.3469 0.49632 0.0
H1290 H 0.47875 0.36105 0.47918 0.0
H1291 H 0.50649 0.40754 0.49024 0.0
C1292 C 0.56879 0.49083 0.59129 0.0
C1293 C 0.54265 0.48437 0.59557 0.0
C1294 C 0.57585 0.4864 0.57019 0.0
C1295 C 0.55712 0.47598 0.5526 0.0
C1296 C 0.5313 0.471 0.55645 0.0
C1297 C 0.52413 0.47524 0.5778 0.0
C1298 C 0.56419 0.46797 0.53121 0.0
C1299 C 0.54852 0.44201 0.52344 0.0
C1300 C 0.5882 0.48455 0.52033 0.0
C1301 C 0.6045 0.5128 0.5262 0.0
C1302 C 0.59304 0.52886 0.52683 0.0
C1303 C 0.60843 0.55545 0.53236 0.0
C1304 C 0.63534 0.56625 0.5372 0.0
C1305 C 0.64692 0.55047 0.53653 0.0
C1306 C 0.63161 0.52387 0.53105 0.0
C1307 C 0.59108 0.42066 0.4415 0.0
C1308 C 0.6149 0.42095 0.44576 0.0
C1309 C 0.58018 0.42937 0.45792 0.0
C1310 C 0.59281 0.43815 0.47891 0.0
C1311 C 0.6162 0.43768 0.48336 0.0
C1312 C 0.62693 0.42876 0.46703 0.0
C1313 C 0.58186 0.44799 0.49633 0.0
C1314 C 0.59685 0.47418 0.50334 0.0
C1315 C 0.55708 0.43181 0.50615 0.0
C1316 C 0.54042 0.40388 0.49956 0.0
C1317 C 0.5502 0.38647 0.50135 0.0
C1318 C 0.53438 0.3602 0.49498 0.0
C1319 C 0.50867 0.35106 0.48695 0.0
C1320 C 0.49869 0.36817 0.48535 0.0
C1321 C 0.51445 0.39448 0.49168 0.0
H1322 H 0.49645 0.33071 0.48204 0.0
H1323 H 0.64722 0.58684 0.54146 0.0
H1324 H 0.11082 0.59699 0.7794 0.0
H1325 H 0.13427 0.6085 0.74396 0.0
H1326 H 0.08556 0.52906 0.71993 0.0
H1327 H 0.06225 0.51733 0.75565 0.0
H1328 H 0.13796 0.54567 0.71681 0.0
H1329 H 0.0807 0.57842 0.69593 0.0
H1330 H 0.05817 0.60405 0.70056 0.0
H1331 H 0.13305 0.67515 0.70388 0.0
H1332 H 0.15607 0.64992 0.69958 0.0
H1333 H 0.19292 0.56765 0.60895 0.0
H1334 H 0.16295 0.5571 0.64015 0.0
H1335 H 0.20807 0.63664 0.66486 0.0
H1336 H 0.23809 0.64764 0.6333 0.0
H1337 H 0.15596 0.61938 0.66672 0.0
H1338 H 0.21329 0.58736 0.68975 0.0
H1339 H 0.2367 0.56245 0.6861 0.0
H1340 H 0.1626 0.49076 0.68001 0.0
H1341 H 0.13874 0.5153 0.68332 0.0
C1342 C 0.10466 0.58214 0.76633 0.0
C1343 C 0.08473 0.55624 0.77028 0.0
C1344 C 0.11804 0.58875 0.74606 0.0
C1345 C 0.11168 0.56965 0.72927 0.0
C1346 C 0.09078 0.5441 0.73267 0.0
C1347 C 0.07729 0.53748 0.75297 0.0
C1348 C 0.12855 0.57579 0.70924 0.0
C1349 C 0.14147 0.56144 0.70558 0.0
C1350 C 0.13389 0.59699 0.69509 0.0
C1351 C 0.12011 0.61224 0.69761 0.0
C1352 C 0.09238 0.5995 0.69783 0.0
C1353 C 0.07952 0.61396 0.70036 0.0
C1354 C 0.09417 0.6412 0.70256 0.0
C1355 C 0.12173 0.65405 0.70218 0.0
C1356 C 0.13469 0.63968 0.69967 0.0
C1357 C 0.19667 0.58298 0.62102 0.0
C1358 C 0.21813 0.60852 0.61861 0.0
C1359 C 0.17946 0.57685 0.63892 0.0
C1360 C 0.1834 0.59598 0.65502 0.0
C1361 C 0.20465 0.62154 0.65265 0.0
C1362 C 0.22189 0.62776 0.63465 0.0
C1363 C 0.16527 0.58919 0.67427 0.0
C1364 C 0.15226 0.60347 0.67785 0.0
C1365 C 0.15995 0.56803 0.68848 0.0
C1366 C 0.17424 0.5532 0.68655 0.0
C1367 C 0.20199 0.56631 0.68745 0.0
C1368 C 0.21534 0.55225 0.68548 0.0
C1369 C 0.20115 0.52505 0.68276 0.0
C1370 C 0.17357 0.51184 0.68208 0.0
C1371 C 0.16012 0.52581 0.68402 0.0
H1372 H 0.21152 0.5142 0.68124 0.0
H1373 H 0.08418 0.65236 0.70452 0.0
H1374 H 0.53768 0.10038 0.9372 0.0
H1375 H 0.54939 0.12283 0.90133 0.0
H1376 H 0.58422 0.07655 0.88089 0.0
H1377 H 0.57266 0.05416 0.91701 0.0
H1378 H 0.61878 0.12847 0.87887 0.0
H1379 H 0.53049 0.07108 0.85299 0.0
H1380 H 0.48191 0.0477 0.85462 0.0
H1381 H 0.48287 0.12099 0.85689 0.0
H1382 H 0.5315 0.14484 0.8556 0.0
H1383 H 0.65778 0.18936 0.77346 0.0
H1384 H 0.63751 0.15786 0.80332 0.0
H1385 H 0.59826 0.19893 0.8265 0.0
H1386 H 0.61808 0.23042 0.79628 0.0
H1387 H 0.56485 0.14701 0.82536 0.0
H1388 H 0.65203 0.20428 0.85455 0.0
H1389 H 0.70069 0.22873 0.8542 0.0
H1390 H 0.70172 0.1567 0.84721 0.0
H1391 H 0.65303 0.13182 0.84721 0.0
C1392 C 0.54703 0.0944 0.92473 0.0
C1393 C 0.55431 0.07558 0.92982 0.0
C1394 C 0.5537 0.10721 0.90423 0.0
C1395 C 0.56774 0.10142 0.88842 0.0
C1396 C 0.57339 0.08131 0.89286 0.0
C1397 C 0.56656 0.06836 0.91337 0.0
C1398 C 0.57934 0.1186 0.8688 0.0
C1399 C 0.60692 0.13206 0.86685 0.0
C1400 C 0.56396 0.12404 0.85365 0.0
C1401 C 0.53469 0.10976 0.85437 0.0
C1402 C 0.52037 0.08223 0.85402 0.0
C1403 C 0.49281 0.06888 0.85485 0.0
C1404 C 0.47931 0.08285 0.8559 0.0
C1405 C 0.49335 0.11019 0.85608 0.0
C1406 C 0.52091 0.12364 0.85527 0.0
C1407 C 0.64502 0.19193 0.78496 0.0
C1408 C 0.6397 0.2126 0.78245 0.0
C1409 C 0.63344 0.17384 0.80208 0.0
C1410 C 0.61651 0.17612 0.81727 0.0
C1411 C 0.61123 0.19677 0.81494 0.0
C1412 C 0.62274 0.21486 0.79773 0.0
C1413 C 0.60425 0.15685 0.83549 0.0
C1414 C 0.57664 0.14314 0.83723 0.0
C1415 C 0.61959 0.15131 0.85062 0.0
C1416 C 0.64888 0.16621 0.85064 0.0
C1417 C 0.66263 0.19367 0.85275 0.0
C1418 C 0.69022 0.2076 0.85265 0.0
C1419 C 0.70429 0.19429 0.85062 0.0
C1420 C 0.6908 0.16699 0.84874 0.0
C1421 C 0.6632 0.15297 0.84881 0.0
H1422 H 0.72565 0.20511 0.85054 0.0
H1423 H 0.45798 0.07248 0.85655 0.0
H1424 H 0.56535 0.62386 0.09281 0.0
H1425 H 0.55327 0.63329 0.05606 0.0
H1426 H 0.49182 0.55259 0.04888 0.0
H1427 H 0.50425 0.54304 0.08556 0.0
H1428 H 0.51391 0.5758 0.00765 0.0
H1429 H 0.47986 0.59447 0.0746 0.0
H1430 H 0.48604 0.61575 0.1116 0.0
H1431 H 0.52793 0.69135 0.08145 0.0
H1432 H 0.52324 0.67053 0.04437 0.0
H1433 H 0.41248 0.62135 0.97423 0.0
H1434 H 0.43621 0.60865 0.00068 0.0
H1435 H 0.49716 0.62875 0.95195 0.0
H1436 H 0.47138 0.63741 0.92459 0.0
H1437 H 0.48002 0.6371 0.01937 0.0
H1438 H 0.52623 0.61225 0.95591 0.0
H1439 H 0.52251 0.58766 0.92109 0.0
H1440 H 0.45559 0.51952 0.94735 0.0
H1441 H 0.4587 0.54411 0.98206 0.0
C1442 C 0.54996 0.60796 0.08295 0.0
C1443 C 0.53558 0.58278 0.09195 0.0
C1444 C 0.54302 0.61336 0.06203 0.0
C1445 C 0.52129 0.59376 0.05 0.0
C1446 C 0.50861 0.568 0.05794 0.0
C1447 C 0.51572 0.56253 0.07885 0.0
C1448 C 0.50927 0.60085 0.03127 0.0
C1449 C 0.50655 0.58927 0.01012 0.0
C1450 C 0.49967 0.61842 0.03455 0.0
C1451 C 0.50146 0.63092 0.05671 0.0
C1452 C 0.49054 0.61563 0.07586 0.0
C1453 C 0.49378 0.62761 0.09686 0.0
C1454 C 0.50723 0.65487 0.09888 0.0
C1455 C 0.51753 0.67022 0.07987 0.0
C1456 C 0.5147 0.65835 0.05887 0.0
C1457 C 0.43015 0.62146 0.96882 0.0
C1458 C 0.43915 0.6286 0.94694 0.0
C1459 C 0.44405 0.61468 0.98405 0.0
C1460 C 0.46812 0.61633 0.97814 0.0
C1461 C 0.47785 0.62506 0.9566 0.0
C1462 C 0.46334 0.63072 0.94107 0.0
C1463 C 0.48393 0.61162 0.99547 0.0
C1464 C 0.48748 0.62376 0.01661 0.0
C1465 C 0.49426 0.59454 0.99214 0.0
C1466 C 0.49147 0.58049 0.9708 0.0
C1467 C 0.51018 0.59229 0.95389 0.0
C1468 C 0.50835 0.57832 0.93426 0.0
C1469 C 0.48848 0.55219 0.9318 0.0
C1470 C 0.47065 0.53991 0.94907 0.0
C1471 C 0.47221 0.55397 0.96856 0.0
H1472 H 0.48715 0.54135 0.91666 0.0
H1473 H 0.50968 0.66408 0.11516 0.0
H1474 H 0.98786 0.55313 0.25514 0.0
H1475 H 0.96403 0.54168 0.2189 0.0
H1476 H 0.9128 0.46321 0.24192 0.0
H1477 H 0.93656 0.47441 0.27781 0.0
H1478 H 0.95221 0.50458 0.18562 0.0
H1479 H 0.84925 0.44535 0.22785 0.0
H1480 H 0.82721 0.44674 0.26243 0.0
H1481 H 0.88385 0.52833 0.27146 0.0
H1482 H 0.90591 0.52761 0.23671 0.0
H1483 H 0.81015 0.40434 0.14081 0.0
H1484 H 0.84425 0.42675 0.16961 0.0
H1485 H 0.88677 0.49112 0.12469 0.0
H1486 H 0.85463 0.46665 0.0949 0.0
H1487 H 0.85548 0.46815 0.19 0.0
H1488 H 0.93319 0.5253 0.13571 0.0
H1489 H 0.9581 0.52824 0.1016 0.0
H1490 H 0.95591 0.45651 0.11848 0.0
H1491 H 0.93087 0.4533 0.15267 0.0
C1492 C 0.97196 0.53328 0.25218 0.0
C1493 C 0.96385 0.51472 0.26932 0.0
C1494 C 0.95827 0.52682 0.23158 0.0
C1495 C 0.93626 0.5018 0.22798 0.0
C1496 C 0.92934 0.48281 0.24455 0.0
C1497 C 0.943 0.48919 0.26499 0.0
C1498 C 0.91969 0.49544 0.20736 0.0
C1499 C 0.93107 0.49686 0.18651 0.0
C1500 C 0.89222 0.48588 0.20847 0.0
C1501 C 0.87934 0.48637 0.22969 0.0
C1502 C 0.85694 0.46363 0.23715 0.0
C1503 C 0.84439 0.46432 0.25675 0.0
C1504 C 0.85403 0.48764 0.26905 0.0
C1505 C 0.87636 0.51029 0.26187 0.0
C1506 C 0.88892 0.50974 0.24224 0.0
C1507 C 0.82769 0.4225 0.13672 0.0
C1508 C 0.83069 0.43292 0.11525 0.0
C1509 C 0.84696 0.43569 0.15333 0.0
C1510 C 0.86897 0.46049 0.14932 0.0
C1511 C 0.87127 0.47148 0.12805 0.0
C1512 C 0.85249 0.45767 0.1111 0.0
C1513 C 0.88757 0.47523 0.16828 0.0
C1514 C 0.8766 0.47583 0.18899 0.0
C1515 C 0.91543 0.48711 0.16694 0.0
C1516 C 0.92906 0.4883 0.14595 0.0
C1517 C 0.93761 0.50993 0.13184 0.0
C1518 C 0.95183 0.51172 0.1126 0.0
C1519 C 0.95824 0.49236 0.10769 0.0
C1520 C 0.95057 0.47127 0.1221 0.0
C1521 C 0.93618 0.46934 0.14128 0.0
H1522 H 0.96946 0.49388 0.09291 0.0
H1523 H 0.84431 0.48812 0.28424 0.0
loop_
_geom_bond_atom_site_label_1
_geom_bond_atom_site_label_2
_geom_bond_distance
_geom_bond_site_symmetry_2
_ccdc_geom_bond_type
H0 C6 0.930 . S
H1 C9 0.931 . S
H2 C11 0.931 . S
H3 C13 0.930 . S
H4 C15 0.930 . S
H5 C17 0.931 . S
C6 H0 0.930 . S
C6 C7 1.380 . S
C6 C8 1.394 . S
C7 C6 1.380 . S
C7 C11 1.382 . S
C8 C6 1.394 . S
C8 C9 1.400 . S
C9 H1 0.931 . S
C9 C8 1.400 . S
C9 C10 1.375 . S
C10 C9 1.375 . S
C10 C11 1.415 . S
C10 C12 1.501 1_455 S
C11 H2 0.931 . S
C11 C7 1.382 . S
C11 C10 1.415 . S
C12 C10 1.501 1_655 S
C12 C13 1.384 . S
C12 C17 1.408 . S
C13 H3 0.930 . S
C13 C12 1.384 . S
C13 C14 1.389 . S
C14 C13 1.389 . S
C14 C15 1.405 . S
C15 H4 0.930 . S
C15 C14 1.405 . S
C15 C16 1.364 . S
C16 C15 1.364 . S
C16 C17 1.400 . S
C17 H5 0.931 . S
C17 C12 1.408 . S
C17 C16 1.400 . S
H18 C24 0.930 . S
H19 C27 0.931 . S
H20 C29 0.931 . S
H21 C31 0.930 . S
H22 C33 0.930 . S
H23 C35 0.931 1_545 S
C24 H18 0.930 . S
C24 C25 1.380 . S
C24 C26 1.394 . S
C25 C24 1.380 . S
C25 C29 1.382 . S
C26 C24 1.394 . S
C26 C27 1.400 . S
C27 H19 0.931 . S
C27 C26 1.400 . S
C27 C28 1.375 . S
C28 C27 1.375 . S
C28 C29 1.415 . S
C28 C30 1.501 1_545 S
C29 H20 0.931 . S
C29 C25 1.382 . S
C29 C28 1.415 . S
C30 C28 1.501 1_565 S
C30 C31 1.384 . S
C30 C35 1.408 . S
C31 H21 0.930 . S
C31 C30 1.384 . S
C31 C32 1.389 . S
C32 C31 1.389 . S
C32 C33 1.405 . S
C33 H22 0.930 . S
C33 C32 1.405 . S
C33 C34 1.364 . S
C34 C33 1.364 . S
C34 C35 1.400 . S
C35 H23 0.931 1_565 S
C35 C30 1.408 . S
C35 C34 1.400 . S
H36 C42 0.930 . S
H37 C45 0.931 . S
H38 C47 0.931 . S
H39 C49 0.930 . S
H40 C51 0.930 . S
H41 C53 0.931 . S
C42 H36 0.930 . S
C42 C43 1.380 . S
C42 C44 1.394 . S
C43 C42 1.380 . S
C43 C47 1.382 . S
C44 C42 1.394 . S
C44 C45 1.400 . S
C45 H37 0.931 . S
C45 C44 1.400 . S
C45 C46 1.375 . S
C46 C45 1.375 . S
C46 C47 1.415 . S
C46 C48 1.501 . S
C47 H38 0.931 . S
C47 C43 1.382 . S
C47 C46 1.415 . S
C48 C46 1.501 . S
C48 C49 1.384 . S
C48 C53 1.408 . S
C49 H39 0.930 . S
C49 C48 1.384 . S
C49 C50 1.389 . S
C50 C49 1.389 . S
C50 C51 1.405 . S
C51 H40 0.930 . S
C51 C50 1.405 . S
C51 C52 1.364 . S
C52 C51 1.364 . S
C52 C53 1.400 . S
C53 H41 0.931 . S
C53 C48 1.408 . S
C53 C52 1.400 . S
H54 C60 0.930 . S
H55 C63 0.931 . S
H56 C65 0.931 . S
H57 C67 0.930 . S
H58 C69 0.930 . S
H59 C71 0.927 1_455 S
C60 H54 0.930 . S
C60 C61 1.380 . S
C60 C62 1.394 . S
C61 C60 1.380 . S
C61 C65 1.382 . S
C62 C60 1.394 . S
C62 C63 1.400 . S
C63 H55 0.931 . S
C63 C62 1.400 . S
C63 C64 1.375 . S
C64 C63 1.375 . S
C64 C65 1.415 . S
C64 C66 1.501 1_455 S
C65 H56 0.931 . S
C65 C61 1.382 . S
C65 C64 1.415 . S
C66 C64 1.501 1_655 S
C66 C67 1.384 . S
C66 C71 1.408 . S
C67 H57 0.930 . S
C67 C66 1.384 . S
C67 C68 1.389 . S
C68 C67 1.389 . S
C68 C69 1.405 . S
C69 H58 0.930 . S
C69 C68 1.405 . S
C69 C70 1.364 . S
C70 C69 1.364 . S
C70 C71 1.400 . S
C71 H59 0.927 1_655 S
C71 C66 1.408 . S
C71 C70 1.400 . S
H72 C78 0.930 . S
H73 C81 0.931 . S
H74 C83 0.931 1_545 S
H75 C85 0.930 . S
H76 C87 0.930 . S
H77 C89 0.931 . S
C78 H72 0.930 . S
C78 C79 1.380 . S
C78 C80 1.394 1_554 S
C79 C78 1.380 . S
C79 C83 1.382 . S
C80 C78 1.394 1_556 S
C80 C81 1.400 . S
C81 H73 0.931 . S
C81 C80 1.400 . S
C81 C82 1.375 1_565 S
C82 C81 1.375 1_545 S
C82 C83 1.415 1_546 S
C82 C84 1.501 . S
C83 H74 0.931 1_565 S
C83 C79 1.382 . S
C83 C82 1.415 1_564 S
C84 C82 1.501 . S
C84 C85 1.384 1_556 S
C84 C89 1.408 . S
C85 H75 0.930 . S
C85 C84 1.384 1_554 S
C85 C86 1.389 1_554 S
C86 C85 1.389 1_556 S
C86 C87 1.405 . S
C87 H76 0.930 . S
C87 C86 1.405 . S
C87 C88 1.364 . S
C88 C87 1.364 . S
C88 C89 1.400 . S
C89 H77 0.931 . S
C89 C84 1.408 . S
C89 C88 1.400 . S
H90 C96 0.930 . S
H91 C99 0.931 . S
H92 C101 0.931 . S
H93 C103 0.930 . S
H94 C105 0.930 . S
H95 C107 0.931 . S
C96 H90 0.930 . S
C96 C97 1.380 . S
C96 C98 1.394 . S
C97 C96 1.380 . S
C97 C101 1.382 . S
C98 C96 1.394 . S
C98 C99 1.400 . S
C99 H91 0.931 . S
C99 C98 1.400 . S
C99 C100 1.375 . S
C100 C99 1.375 . S
C100 C101 1.415 . S
C100 C102 1.501 . S
C101 H92 0.931 . S
C101 C97 1.382 . S
C101 C100 1.415 . S
C102 C100 1.501 . S
C102 C103 1.384 . S
C102 C107 1.408 . S
C103 H93 0.930 . S
C103 C102 1.384 . S
C103 C104 1.389 . S
C104 C103 1.389 . S
C104 C105 1.405 . S
C105 H94 0.930 . S
C105 C104 1.405 . S
C105 C106 1.364 . S
C106 C105 1.364 . S
C106 C107 1.400 . S
C107 H95 0.931 . S
C107 C102 1.408 . S
C107 C106 1.400 . S
Mn108 O113 2.095 . S
Mn108 O123 2.162 . S
Mn108 O124 2.297 . S
Mn108 O132 2.385 . S
Mn108 O133 2.209 . S
Mn108 O134 2.094 . S
Mn109 O114 2.121 . S
Mn109 N116 2.257 . S
Mn109 N125 2.282 . S
Mn109 O133 2.215 . S
Mn109 O135 2.117 . S
C110 O132 1.234 . S
C110 O133 1.283 . S
C111 O123 1.281 . S
C111 O124 1.236 . S
C112 O134 1.240 . S
C112 O135 1.264 . S
O113 Mn108 2.095 . S
O113 C122 1.250 . S
O114 Mn109 2.121 . S
O114 C122 1.258 . S
C115 N116 1.326 . S
C115 C119 1.460 . S
C115 H121 0.929 . S
N116 Mn109 2.257 . S
N116 C115 1.326 . S
N116 C120 1.362 . S
C117 C118 1.258 . S
C117 C120 1.431 . S
C117 C137 1.449 . S
C118 C117 1.258 . S
C118 C119 1.477 . S
C118 H138 0.931 . S
C119 C115 1.460 . S
C119 C118 1.477 . S
C119 H139 0.930 . S
C120 N116 1.362 . S
C120 C117 1.431 . S
C120 C130 1.476 . S
H121 C115 0.929 . S
C122 O113 1.250 . S
C122 O114 1.258 . S
O123 Mn108 2.162 . S
O123 C111 1.281 . S
O124 Mn108 2.297 . S
O124 C111 1.236 . S
N125 Mn109 2.282 . S
N125 C126 1.328 . S
N125 C130 1.318 . S
C126 N125 1.328 . S
C126 C127 1.457 . S
C126 H131 0.929 . S
C127 C126 1.457 . S
C127 C128 1.291 . S
C127 H140 0.931 . S
C128 C127 1.291 . S
C128 C129 1.373 . S
C128 H141 0.929 . S
C129 C128 1.373 . S
C129 C130 1.396 . S
C129 C136 1.403 . S
C130 C120 1.476 . S
C130 N125 1.318 . S
C130 C129 1.396 . S
H131 C126 0.929 . S
O132 Mn108 2.385 . S
O132 C110 1.234 . S
O133 Mn108 2.209 . S
O133 Mn109 2.215 . S
O133 C110 1.283 . S
O134 Mn108 2.094 . S
O134 C112 1.240 . S
O135 Mn109 2.117 . S
O135 C112 1.264 . S
C136 C129 1.403 . S
C136 C137 1.399 . S
C136 H142 0.929 . S
C137 C117 1.449 . S
C137 C136 1.399 . S
C137 H143 0.930 . S
H138 C118 0.931 . S
H139 C119 0.930 . S
H140 C127 0.931 . S
H141 C128 0.929 . S
H142 C136 0.929 . S
H143 C137 0.930 . S
Mn144 O149 2.095 . S
Mn144 O159 2.162 . S
Mn144 O160 2.297 . S
Mn144 O168 2.385 . S
Mn144 O169 2.209 . S
Mn144 O170 2.094 . S
Mn145 O150 2.121 . S
Mn145 N152 2.257 . S
Mn145 N161 2.282 . S
Mn145 O169 2.215 . S
Mn145 O171 2.117 . S
C146 O168 1.234 . S
C146 O169 1.283 . S
C147 O159 1.281 . S
C147 O160 1.236 . S
C148 O170 1.240 . S
C148 O171 1.264 . S
O149 Mn144 2.095 . S
O149 C158 1.250 . S
O150 Mn145 2.121 . S
O150 C158 1.258 . S
C151 N152 1.326 . S
C151 C155 1.460 . S
C151 H157 0.929 . S
N152 Mn145 2.257 . S
N152 C151 1.326 . S
N152 C156 1.362 . S
C153 C154 1.258 . S
C153 C156 1.431 . S
C153 C173 1.449 . S
C154 C153 1.258 . S
C154 C155 1.477 . S
C154 H174 0.931 . S
C155 C151 1.460 . S
C155 C154 1.477 . S
C155 H175 0.930 . S
C156 N152 1.362 . S
C156 C153 1.431 . S
C156 C166 1.476 . S
H157 C151 0.929 . S
C158 O149 1.250 . S
C158 O150 1.258 . S
O159 Mn144 2.162 . S
O159 C147 1.281 . S
O160 Mn144 2.297 . S
O160 C147 1.236 . S
N161 Mn145 2.282 . S
N161 C162 1.328 . S
N161 C166 1.318 . S
C162 N161 1.328 . S
C162 C163 1.457 . S
C162 H167 0.929 . S
C163 C162 1.457 . S
C163 C164 1.291 . S
C163 H176 0.931 . S
C164 C163 1.291 . S
C164 C165 1.373 . S
C164 H177 0.929 . S
C165 C164 1.373 . S
C165 C166 1.396 . S
C165 C172 1.403 . S
C166 C156 1.476 . S
C166 N161 1.318 . S
C166 C165 1.396 . S
H167 C162 0.929 . S
O168 Mn144 2.385 . S
O168 C146 1.234 . S
O169 Mn144 2.209 . S
O169 Mn145 2.215 . S
O169 C146 1.283 . S
O170 Mn144 2.094 . S
O170 C148 1.240 . S
O171 Mn145 2.117 . S
O171 C148 1.264 . S
C172 C165 1.403 . S
C172 C173 1.399 . S
C172 H178 0.929 . S
C173 C153 1.449 . S
C173 C172 1.399 . S
C173 H179 0.930 . S
H174 C154 0.931 . S
H175 C155 0.930 . S
H176 C163 0.931 . S
H177 C164 0.929 . S
H178 C172 0.929 . S
H179 C173 0.930 . S
Mn180 O185 2.095 . S
Mn180 O195 2.162 . S
Mn180 O196 2.297 . S
Mn180 O204 2.385 . S
Mn180 O205 2.209 . S
Mn180 O206 2.094 . S
Mn181 O186 2.121 . S
Mn181 N188 2.257 . S
Mn181 N197 2.282 . S
Mn181 O205 2.215 . S
Mn181 O207 2.117 . S
C182 O204 1.234 . S
C182 O205 1.283 . S
C183 O195 1.281 . S
C183 O196 1.236 . S
C184 O206 1.240 . S
C184 O207 1.264 . S
O185 Mn180 2.095 . S
O185 C194 1.250 . S
O186 Mn181 2.121 . S
O186 C194 1.258 . S
C187 N188 1.326 . S
C187 C191 1.460 . S
C187 H193 0.929 . S
N188 Mn181 2.257 . S
N188 C187 1.326 . S
N188 C192 1.362 . S
C189 C190 1.258 . S
C189 C192 1.431 . S
C189 C209 1.449 . S
C190 C189 1.258 . S
C190 C191 1.477 . S
C190 H210 0.931 . S
C191 C187 1.460 . S
C191 C190 1.477 . S
C191 H211 0.930 . S
C192 N188 1.362 . S
C192 C189 1.431 . S
C192 C202 1.476 . S
H193 C187 0.929 . S
C194 O185 1.250 . S
C194 O186 1.258 . S
O195 Mn180 2.162 . S
O195 C183 1.281 . S
O196 Mn180 2.297 . S
O196 C183 1.236 . S
N197 Mn181 2.282 . S
N197 C198 1.328 . S
N197 C202 1.318 . S
C198 N197 1.328 . S
C198 C199 1.457 . S
C198 H203 0.929 . S
C199 C198 1.457 . S
C199 C200 1.291 . S
C199 H212 0.931 . S
C200 C199 1.291 . S
C200 C201 1.373 . S
C200 H213 0.929 . S
C201 C200 1.373 . S
C201 C202 1.396 . S
C201 C208 1.403 . S
C202 C192 1.476 . S
C202 N197 1.318 . S
C202 C201 1.396 . S
H203 C198 0.929 . S
O204 Mn180 2.385 . S
O204 C182 1.234 . S
O205 Mn180 2.209 . S
O205 Mn181 2.215 . S
O205 C182 1.283 . S
O206 Mn180 2.094 . S
O206 C184 1.240 . S
O207 Mn181 2.117 . S
O207 C184 1.264 . S
C208 C201 1.403 . S
C208 C209 1.399 . S
C208 H214 0.929 . S
C209 C189 1.449 . S
C209 C208 1.399 . S
C209 H215 0.930 . S
H210 C190 0.931 . S
H211 C191 0.930 . S
H212 C199 0.931 . S
H213 C200 0.929 . S
H214 C208 0.929 . S
H215 C209 0.930 . S
Mn216 O221 2.095 . S
Mn216 O231 2.162 . S
Mn216 O232 2.297 . S
Mn216 O240 2.385 . S
Mn216 O241 2.209 . S
Mn216 O242 2.094 . S
Mn217 O222 2.121 . S
Mn217 N224 2.257 . S
Mn217 N233 2.282 . S
Mn217 O241 2.215 . S
Mn217 O243 2.117 . S
C218 O240 1.234 . S
C218 O241 1.283 . S
C219 O231 1.281 . S
C219 O232 1.236 . S
C220 O242 1.240 . S
C220 O243 1.264 . S
O221 Mn216 2.095 . S
O221 C230 1.250 . S
O222 Mn217 2.121 . S
O222 C230 1.258 . S
C223 N224 1.326 . S
C223 C227 1.460 . S
C223 H229 0.929 . S
N224 Mn217 2.257 . S
N224 C223 1.326 . S
N224 C228 1.362 . S
C225 C226 1.258 . S
C225 C228 1.431 . S
C225 C245 1.449 . S
C226 C225 1.258 . S
C226 C227 1.477 . S
C226 H246 0.931 . S
C227 C223 1.460 . S
C227 C226 1.477 . S
C227 H247 0.930 . S
C228 N224 1.362 . S
C228 C225 1.431 . S
C228 C238 1.476 . S
H229 C223 0.929 . S
C230 O221 1.250 . S
C230 O222 1.258 . S
O231 Mn216 2.162 . S
O231 C219 1.281 . S
O232 Mn216 2.297 . S
O232 C219 1.236 . S
N233 Mn217 2.282 . S
N233 C234 1.328 . S
N233 C238 1.318 . S
C234 N233 1.328 . S
C234 C235 1.457 . S
C234 H239 0.929 . S
C235 C234 1.457 . S
C235 C236 1.291 . S
C235 H248 0.931 . S
C236 C235 1.291 . S
C236 C237 1.373 . S
C236 H249 0.929 . S
C237 C236 1.373 . S
C237 C238 1.396 . S
C237 C244 1.403 . S
C238 C228 1.476 . S
C238 N233 1.318 . S
C238 C237 1.396 . S
H239 C234 0.929 . S
O240 Mn216 2.385 . S
O240 C218 1.234 . S
O241 Mn216 2.209 . S
O241 Mn217 2.215 . S
O241 C218 1.283 . S
O242 Mn216 2.094 . S
O242 C220 1.240 . S
O243 Mn217 2.117 . S
O243 C220 1.264 . S
C244 C237 1.403 . S
C244 C245 1.399 . S
C244 H250 0.929 . S
C245 C225 1.449 . S
C245 C244 1.399 . S
C245 H251 0.930 . S
H246 C226 0.931 . S
H247 C227 0.930 . S
H248 C235 0.931 . S
H249 C236 0.929 . S
H250 C244 0.929 . S
H251 C245 0.930 . S
Mn252 O257 2.095 . S
Mn252 O267 2.162 . S
Mn252 O268 2.297 . S
Mn252 O276 2.385 . S
Mn252 O277 2.209 . S
Mn252 O278 2.094 . S
Mn253 O258 2.121 . S
Mn253 N260 2.257 . S
Mn253 N269 2.282 . S
Mn253 O277 2.215 . S
Mn253 O279 2.117 . S
C254 O276 1.234 . S
C254 O277 1.283 . S
C255 O267 1.281 . S
C255 O268 1.236 . S
C256 O278 1.240 . S
C256 O279 1.264 . S
O257 Mn252 2.095 . S
O257 C266 1.250 . S
O258 Mn253 2.121 . S
O258 C266 1.258 . S
C259 N260 1.326 . S
C259 C263 1.460 . S
C259 H265 0.929 . S
N260 Mn253 2.257 . S
N260 C259 1.326 . S
N260 C264 1.362 . S
C261 C262 1.258 . S
C261 C264 1.431 . S
C261 C281 1.449 . S
C262 C261 1.258 . S
C262 C263 1.477 . S
C262 H282 0.931 . S
C263 C259 1.460 . S
C263 C262 1.477 . S
C263 H283 0.930 . S
C264 N260 1.362 . S
C264 C261 1.431 . S
C264 C274 1.476 . S
H265 C259 0.929 . S
C266 O257 1.250 . S
C266 O258 1.258 . S
O267 Mn252 2.162 . S
O267 C255 1.281 . S
O268 Mn252 2.297 . S
O268 C255 1.236 . S
N269 Mn253 2.282 . S
N269 C270 1.328 . S
N269 C274 1.318 . S
C270 N269 1.328 . S
C270 C271 1.457 . S
C270 H275 0.929 . S
C271 C270 1.457 . S
C271 C272 1.291 . S
C271 H284 0.931 . S
C272 C271 1.291 . S
C272 C273 1.373 . S
C272 H285 0.929 . S
C273 C272 1.373 . S
C273 C274 1.396 . S
C273 C280 1.403 . S
C274 C264 1.476 . S
C274 N269 1.318 . S
C274 C273 1.396 . S
H275 C270 0.929 . S
O276 Mn252 2.385 . S
O276 C254 1.234 . S
O277 Mn252 2.209 . S
O277 Mn253 2.215 . S
O277 C254 1.283 . S
O278 Mn252 2.094 . S
O278 C256 1.240 . S
O279 Mn253 2.117 . S
O279 C256 1.264 . S
C280 C273 1.403 . S
C280 C281 1.399 . S
C280 H286 0.929 . S
C281 C261 1.449 . S
C281 C280 1.399 . S
C281 H287 0.930 . S
H282 C262 0.931 . S
H283 C263 0.930 . S
H284 C271 0.931 . S
H285 C272 0.929 . S
H286 C280 0.929 . S
H287 C281 0.930 . S
Mn288 O293 2.095 . S
Mn288 O303 2.162 . S
Mn288 O304 2.297 . S
Mn288 O312 2.385 . S
Mn288 O313 2.209 . S
Mn288 O314 2.094 . S
Mn289 O294 2.121 . S
Mn289 N296 2.257 . S
Mn289 N305 2.282 . S
Mn289 O313 2.215 . S
Mn289 O315 2.117 . S
C290 O312 1.234 . S
C290 O313 1.283 . S
C291 O303 1.281 . S
C291 O304 1.236 . S
C292 O314 1.240 . S
C292 O315 1.264 . S
O293 Mn288 2.095 . S
O293 C302 1.250 . S
O294 Mn289 2.121 . S
O294 C302 1.258 . S
C295 N296 1.326 . S
C295 C299 1.460 . S
C295 H301 0.929 . S
N296 Mn289 2.257 . S
N296 C295 1.326 . S
N296 C300 1.362 . S
C297 C298 1.258 . S
C297 C300 1.431 . S
C297 C317 1.449 . S
C298 C297 1.258 . S
C298 C299 1.477 . S
C298 H318 0.931 . S
C299 C295 1.460 . S
C299 C298 1.477 . S
C299 H319 0.930 . S
C300 N296 1.362 . S
C300 C297 1.431 . S
C300 C310 1.476 . S
H301 C295 0.929 . S
C302 O293 1.250 . S
C302 O294 1.258 . S
O303 Mn288 2.162 . S
O303 C291 1.281 . S
O304 Mn288 2.297 . S
O304 C291 1.236 . S
N305 Mn289 2.282 . S
N305 C306 1.328 . S
N305 C310 1.318 . S
C306 N305 1.328 . S
C306 C307 1.457 . S
C306 H311 0.929 . S
C307 C306 1.457 . S
C307 C308 1.291 . S
C307 H320 0.931 . S
C308 C307 1.291 . S
C308 C309 1.373 . S
C308 H321 0.929 . S
C309 C308 1.373 . S
C309 C310 1.396 . S
C309 C316 1.403 . S
C310 C300 1.476 . S
C310 N305 1.318 . S
C310 C309 1.396 . S
H311 C306 0.929 . S
O312 Mn288 2.385 . S
O312 C290 1.234 . S
O313 Mn288 2.209 . S
O313 Mn289 2.215 . S
O313 C290 1.283 . S
O314 Mn288 2.094 . S
O314 C292 1.240 . S
O315 Mn289 2.117 . S
O315 C292 1.264 . S
C316 C309 1.403 . S
C316 C317 1.399 . S
C316 H322 0.929 . S
C317 C297 1.449 . S
C317 C316 1.399 . S
C317 H323 0.930 . S
H318 C298 0.931 . S
H319 C299 0.930 . S
H320 C307 0.931 . S
H321 C308 0.929 . S
H322 C316 0.929 . S
H323 C317 0.930 . S
H324 C342 0.951 . S
H325 C344 0.951 . S
H326 C346 0.950 . S
H327 C347 0.950 . S
H328 C349 0.950 . S
H329 C352 0.950 . S
H330 C353 0.950 . S
H331 C355 0.950 . S
H332 C356 0.950 . S
H333 C357 0.951 . S
H334 C359 0.951 . S
H335 C361 0.950 . S
H336 C362 0.950 . S
H337 C364 0.950 . S
H338 C367 0.950 . S
H339 C368 0.950 . S
H340 C370 0.950 . S
H341 C371 0.950 . S
C342 H324 0.951 . S
C342 C343 1.366 . S
C342 C344 1.388 . S
C343 C342 1.366 . S
C343 C347 1.385 . S
C344 H325 0.951 . S
C344 C342 1.388 . S
C344 C345 1.366 . S
C345 C344 1.366 . S
C345 C346 1.414 . S
C345 C348 1.499 . S
C346 H326 0.950 . S
C346 C345 1.414 . S
C346 C347 1.374 . S
C347 H327 0.950 . S
C347 C343 1.385 . S
C347 C346 1.374 . S
C348 C345 1.499 . S
C348 C349 1.373 . S
C348 C350 1.389 . S
C349 H328 0.950 . S
C349 C348 1.373 . S
C349 C365 1.377 . S
C350 C348 1.389 . S
C350 C351 1.524 . S
C350 C364 1.377 . S
C351 C350 1.524 . S
C351 C352 1.397 . S
C351 C356 1.363 . S
C352 H329 0.950 . S
C352 C351 1.397 . S
C352 C353 1.334 . S
C353 H330 0.950 . S
C353 C352 1.334 . S
C353 C354 1.287 . S
C354 C353 1.287 . S
C354 C355 1.524 . S
C354 H373 0.913 . S
C355 H331 0.950 . S
C355 C354 1.524 . S
C355 C356 1.415 . S
C356 H332 0.950 . S
C356 C351 1.363 . S
C356 C355 1.415 . S
C357 H333 0.951 . S
C357 C358 1.366 . S
C357 C359 1.388 . S
C358 C357 1.366 . S
C358 C362 1.385 . S
C359 H334 0.951 . S
C359 C357 1.388 . S
C359 C360 1.366 . S
C360 C359 1.366 . S
C360 C361 1.414 . S
C360 C363 1.499 . S
C361 H335 0.950 . S
C361 C360 1.414 . S
C361 C362 1.374 . S
C362 H336 0.950 . S
C362 C358 1.385 . S
C362 C361 1.374 . S
C363 C360 1.499 . S
C363 C364 1.373 . S
C363 C365 1.389 . S
C364 H337 0.950 . S
C364 C350 1.377 . S
C364 C363 1.373 . S
C365 C349 1.377 . S
C365 C363 1.389 . S
C365 C366 1.524 . S
C366 C365 1.524 . S
C366 C367 1.397 . S
C366 C371 1.363 . S
C367 H338 0.950 . S
C367 C366 1.397 . S
C367 C368 1.334 . S
C368 H339 0.950 . S
C368 C367 1.334 . S
C368 C369 1.287 . S
C369 C368 1.287 . S
C369 C370 1.524 . S
C369 H372 0.999 . S
C370 H340 0.950 . S
C370 C369 1.524 . S
C370 C371 1.415 . S
C371 H341 0.950 . S
C371 C366 1.363 . S
C371 C370 1.415 . S
H372 C369 0.999 . S
H373 C354 0.913 . S
H374 C392 0.951 . S
H375 C394 0.951 . S
H376 C396 0.950 . S
H377 C397 0.950 . S
H378 C399 0.950 . S
H379 C402 0.950 . S
H380 C403 0.950 . S
H381 C405 0.950 . S
H382 C406 0.950 . S
H383 C407 0.951 . S
H384 C409 0.951 . S
H385 C411 0.950 . S
H386 C412 0.950 . S
H387 C414 0.950 . S
H388 C417 0.950 . S
H389 C418 0.950 . S
H390 C420 0.950 . S
H391 C421 0.950 . S
C392 H374 0.951 . S
C392 C393 1.366 . S
C392 C394 1.388 . S
C393 C392 1.366 . S
C393 C397 1.385 . S
C394 H375 0.951 . S
C394 C392 1.388 . S
C394 C395 1.366 . S
C395 C394 1.366 . S
C395 C396 1.414 . S
C395 C398 1.499 . S
C396 H376 0.950 . S
C396 C395 1.414 . S
C396 C397 1.374 . S
C397 H377 0.950 . S
C397 C393 1.385 . S
C397 C396 1.374 . S
C398 C395 1.499 . S
C398 C399 1.373 . S
C398 C400 1.389 . S
C399 H378 0.950 . S
C399 C398 1.373 . S
C399 C415 1.377 . S
C400 C398 1.389 . S
C400 C401 1.524 . S
C400 C414 1.377 . S
C401 C400 1.524 . S
C401 C402 1.397 . S
C401 C406 1.363 . S
C402 H379 0.950 . S
C402 C401 1.397 . S
C402 C403 1.334 . S
C403 H380 0.950 . S
C403 C402 1.334 . S
C403 C404 1.287 . S
C404 C403 1.287 . S
C404 C405 1.524 . S
C404 H423 0.913 . S
C405 H381 0.950 . S
C405 C404 1.524 . S
C405 C406 1.415 . S
C406 H382 0.950 . S
C406 C401 1.363 . S
C406 C405 1.415 . S
C407 H383 0.951 . S
C407 C408 1.366 . S
C407 C409 1.388 . S
C408 C407 1.366 . S
C408 C412 1.385 . S
C409 H384 0.951 . S
C409 C407 1.388 . S
C409 C410 1.366 . S
C410 C409 1.366 . S
C410 C411 1.414 . S
C410 C413 1.499 . S
C411 H385 0.950 . S
C411 C410 1.414 . S
C411 C412 1.374 . S
C412 H386 0.950 . S
C412 C408 1.385 . S
C412 C411 1.374 . S
C413 C410 1.499 . S
C413 C414 1.373 . S
C413 C415 1.389 . S
C414 H387 0.950 . S
C414 C400 1.377 . S
C414 C413 1.373 . S
C415 C399 1.377 . S
C415 C413 1.389 . S
C415 C416 1.524 . S
C416 C415 1.524 . S
C416 C417 1.397 . S
C416 C421 1.363 . S
C417 H388 0.950 . S
C417 C416 1.397 . S
C417 C418 1.334 . S
C418 H389 0.950 . S
C418 C417 1.334 . S
C418 C419 1.287 . S
C419 C418 1.287 . S
C419 C420 1.524 . S
C419 H422 0.999 . S
C420 H390 0.950 . S
C420 C419 1.524 . S
C420 C421 1.415 . S
C421 H391 0.950 . S
C421 C416 1.363 . S
C421 C420 1.415 . S
H422 C419 0.999 . S
H423 C404 0.913 . S
H424 C442 0.951 . S
H425 C444 0.951 . S
H426 C446 0.950 . S
H427 C447 0.950 . S
H428 C449 0.950 . S
H429 C452 0.950 . S
H430 C453 0.950 . S
H431 C455 0.950 . S
H432 C456 0.950 . S
H433 C457 0.951 . S
H434 C459 0.951 . S
H435 C461 0.950 . S
H436 C462 0.950 . S
H437 C464 0.950 . S
H438 C467 0.950 . S
H439 C468 0.950 . S
H440 C470 0.950 . S
H441 C471 0.950 . S
C442 H424 0.951 . S
C442 C443 1.366 . S
C442 C444 1.388 . S
C443 C442 1.366 . S
C443 C447 1.385 . S
C444 H425 0.951 . S
C444 C442 1.388 . S
C444 C445 1.366 . S
C445 C444 1.366 . S
C445 C446 1.414 . S
C445 C448 1.499 . S
C446 H426 0.950 . S
C446 C445 1.414 . S
C446 C447 1.374 . S
C447 H427 0.950 . S
C447 C443 1.385 . S
C447 C446 1.374 . S
C448 C445 1.499 . S
C448 C449 1.373 . S
C448 C450 1.389 . S
C449 H428 0.950 . S
C449 C448 1.373 . S
C449 C465 1.377 . S
C450 C448 1.389 . S
C450 C451 1.524 . S
C450 C464 1.377 . S
C451 C450 1.524 . S
C451 C452 1.397 . S
C451 C456 1.363 . S
C452 H429 0.950 . S
C452 C451 1.397 . S
C452 C453 1.334 . S
C453 H430 0.950 . S
C453 C452 1.334 . S
C453 C454 1.287 . S
C454 C453 1.287 . S
C454 C455 1.524 . S
C454 H473 0.913 . S
C455 H431 0.950 . S
C455 C454 1.524 . S
C455 C456 1.415 . S
C456 H432 0.950 . S
C456 C451 1.363 . S
C456 C455 1.415 . S
C457 H433 0.951 . S
C457 C458 1.366 . S
C457 C459 1.388 . S
C458 C457 1.366 . S
C458 C462 1.385 . S
C459 H434 0.951 . S
C459 C457 1.388 . S
C459 C460 1.366 . S
C460 C459 1.366 . S
C460 C461 1.414 . S
C460 C463 1.499 . S
C461 H435 0.950 . S
C461 C460 1.414 . S
C461 C462 1.374 . S
C462 H436 0.950 . S
C462 C458 1.385 . S
C462 C461 1.374 . S
C463 C460 1.499 . S
C463 C464 1.373 . S
C463 C465 1.389 . S
C464 H437 0.950 . S
C464 C450 1.377 . S
C464 C463 1.373 . S
C465 C449 1.377 . S
C465 C463 1.389 . S
C465 C466 1.524 . S
C466 C465 1.524 . S
C466 C467 1.397 . S
C466 C471 1.363 . S
C467 H438 0.950 . S
C467 C466 1.397 . S
C467 C468 1.334 . S
C468 H439 0.950 . S
C468 C467 1.334 . S
C468 C469 1.287 . S
C469 C468 1.287 . S
C469 C470 1.524 . S
C469 H472 0.999 . S
C470 H440 0.950 . S
C470 C469 1.524 . S
C470 C471 1.415 . S
C471 H441 0.950 . S
C471 C466 1.363 . S
C471 C470 1.415 . S
H472 C469 0.999 . S
H473 C454 0.913 . S
H474 C492 0.951 . S
H475 C494 0.951 . S
H476 C496 0.950 . S
H477 C497 0.950 . S
H478 C499 0.950 . S
H479 C502 0.950 . S
H480 C503 0.950 . S
H481 C505 0.950 . S
H482 C506 0.950 . S
H483 C507 0.951 . S
H484 C509 0.951 . S
H485 C511 0.950 . S
H486 C512 0.950 . S
H487 C514 0.950 . S
H488 C517 0.950 . S
H489 C518 0.950 . S
H490 C520 0.950 . S
H491 C521 0.950 . S
C492 H474 0.951 . S
C492 C493 1.366 . S
C492 C494 1.388 . S
C493 C492 1.366 . S
C493 C497 1.385 . S
C494 H475 0.951 . S
C494 C492 1.388 . S
C494 C495 1.366 . S
C495 C494 1.366 . S
C495 C496 1.414 . S
C495 C498 1.499 . S
C496 H476 0.950 . S
C496 C495 1.414 . S
C496 C497 1.374 . S
C497 H477 0.950 . S
C497 C493 1.385 . S
C497 C496 1.374 . S
C498 C495 1.499 . S
C498 C499 1.373 . S
C498 C500 1.389 . S
C499 H478 0.950 . S
C499 C498 1.373 . S
C499 C515 1.377 . S
C500 C498 1.389 . S
C500 C501 1.524 . S
C500 C514 1.377 . S
C501 C500 1.524 . S
C501 C502 1.397 . S
C501 C506 1.363 . S
C502 H479 0.950 . S
C502 C501 1.397 . S
C502 C503 1.334 . S
C503 H480 0.950 . S
C503 C502 1.334 . S
C503 C504 1.287 . S
C504 C503 1.287 . S
C504 C505 1.524 . S
C504 H523 0.913 . S
C505 H481 0.950 . S
C505 C504 1.524 . S
C505 C506 1.415 . S
C506 H482 0.950 . S
C506 C501 1.363 . S
C506 C505 1.415 . S
C507 H483 0.951 . S
C507 C508 1.366 . S
C507 C509 1.388 . S
C508 C507 1.366 . S
C508 C512 1.385 . S
C509 H484 0.951 . S
C509 C507 1.388 . S
C509 C510 1.366 . S
C510 C509 1.366 . S
C510 C511 1.414 . S
C510 C513 1.499 . S
C511 H485 0.950 . S
C511 C510 1.414 . S
C511 C512 1.374 . S
C512 H486 0.950 . S
C512 C508 1.385 . S
C512 C511 1.374 . S
C513 C510 1.499 . S
C513 C514 1.373 . S
C513 C515 1.389 . S
C514 H487 0.950 . S
C514 C500 1.377 . S
C514 C513 1.373 . S
C515 C499 1.377 . S
C515 C513 1.389 . S
C515 C516 1.524 . S
C516 C515 1.524 . S
C516 C517 1.397 . S
C516 C521 1.363 . S
C517 H488 0.950 . S
C517 C516 1.397 . S
C517 C518 1.334 . S
C518 H489 0.950 . S
C518 C517 1.334 . S
C518 C519 1.287 . S
C519 C518 1.287 . S
C519 C520 1.524 . S
C519 H522 0.999 . S
C520 H490 0.950 . S
C520 C519 1.524 . S
C520 C521 1.415 . S
C521 H491 0.950 . S
C521 C516 1.363 . S
C521 C520 1.415 . S
H522 C519 0.999 . S
H523 C504 0.913 . S
H524 C542 0.951 . S
H525 C544 0.951 . S
H526 C546 0.950 . S
H527 C547 0.950 . S
H528 C549 0.950 . S
H529 C552 0.950 . S
H530 C553 0.950 . S
H531 C555 0.950 . S
H532 C556 0.950 . S
H533 C557 0.951 . S
H534 C559 0.951 . S
H535 C561 0.950 . S
H536 C562 0.950 . S
H537 C564 0.950 . S
H538 C567 0.950 . S
H539 C568 0.950 . S
H540 C570 0.950 . S
H541 C571 0.950 . S
C542 H524 0.951 . S
C542 C543 1.366 . S
C542 C544 1.388 . S
C543 C542 1.366 . S
C543 C547 1.385 . S
C544 H525 0.951 . S
C544 C542 1.388 . S
C544 C545 1.366 . S
C545 C544 1.366 . S
C545 C546 1.414 . S
C545 C548 1.499 . S
C546 H526 0.950 . S
C546 C545 1.414 . S
C546 C547 1.374 . S
C547 H527 0.950 . S
C547 C543 1.385 . S
C547 C546 1.374 . S
C548 C545 1.499 . S
C548 C549 1.373 . S
C548 C550 1.389 . S
C549 H528 0.950 . S
C549 C548 1.373 . S
C549 C565 1.377 . S
C550 C548 1.389 . S
C550 C551 1.524 . S
C550 C564 1.377 . S
C551 C550 1.524 . S
C551 C552 1.397 . S
C551 C556 1.363 . S
C552 H529 0.950 . S
C552 C551 1.397 . S
C552 C553 1.334 . S
C553 H530 0.950 . S
C553 C552 1.334 . S
C553 C554 1.287 . S
C554 C553 1.287 . S
C554 C555 1.524 . S
C554 H573 0.913 . S
C555 H531 0.950 . S
C555 C554 1.524 . S
C555 C556 1.415 . S
C556 H532 0.950 . S
C556 C551 1.363 . S
C556 C555 1.415 . S
C557 H533 0.951 . S
C557 C558 1.366 . S
C557 C559 1.388 . S
C558 C557 1.366 . S
C558 C562 1.385 . S
C559 H534 0.951 . S
C559 C557 1.388 . S
C559 C560 1.366 . S
C560 C559 1.366 . S
C560 C561 1.414 . S
C560 C563 1.499 . S
C561 H535 0.950 . S
C561 C560 1.414 . S
C561 C562 1.374 . S
C562 H536 0.950 . S
C562 C558 1.385 . S
C562 C561 1.374 . S
C563 C560 1.499 . S
C563 C564 1.373 . S
C563 C565 1.389 . S
C564 H537 0.950 . S
C564 C550 1.377 . S
C564 C563 1.373 . S
C565 C549 1.377 . S
C565 C563 1.389 . S
C565 C566 1.524 . S
C566 C565 1.524 . S
C566 C567 1.397 . S
C566 C571 1.363 . S
C567 H538 0.950 . S
C567 C566 1.397 . S
C567 C568 1.334 . S
C568 H539 0.950 . S
C568 C567 1.334 . S
C568 C569 1.287 . S
C569 C568 1.287 . S
C569 C570 1.524 . S
C569 H572 0.999 . S
C570 H540 0.950 . S
C570 C569 1.524 . S
C570 C571 1.415 . S
C571 H541 0.950 . S
C571 C566 1.363 . S
C571 C570 1.415 . S
H572 C569 0.999 . S
H573 C554 0.913 . S
H574 C592 0.951 . S
H575 C594 0.951 . S
H576 C596 0.950 . S
H577 C597 0.950 . S
H578 C599 0.950 . S
H579 C602 0.950 . S
H580 C603 0.950 . S
H581 C605 0.950 . S
H582 C606 0.950 . S
H583 C607 0.951 . S
H584 C609 0.951 . S
H585 C611 0.950 . S
H586 C612 0.950 . S
H587 C614 0.950 . S
H588 C617 0.950 . S
H589 C618 0.950 . S
H590 C620 0.950 . S
H591 C621 0.950 . S
C592 H574 0.951 . S
C592 C593 1.366 . S
C592 C594 1.388 . S
C593 C592 1.366 . S
C593 C597 1.385 . S
C594 H575 0.951 . S
C594 C592 1.388 . S
C594 C595 1.366 . S
C595 C594 1.366 . S
C595 C596 1.414 . S
C595 C598 1.499 . S
C596 H576 0.950 . S
C596 C595 1.414 . S
C596 C597 1.374 . S
C597 H577 0.950 . S
C597 C593 1.385 . S
C597 C596 1.374 . S
C598 C595 1.499 . S
C598 C599 1.373 . S
C598 C600 1.389 . S
C599 H578 0.950 . S
C599 C598 1.373 . S
C599 C615 1.377 . S
C600 C598 1.389 . S
C600 C601 1.524 . S
C600 C614 1.377 . S
C601 C600 1.524 . S
C601 C602 1.397 . S
C601 C606 1.363 . S
C602 H579 0.950 . S
C602 C601 1.397 . S
C602 C603 1.334 . S
C603 H580 0.950 . S
C603 C602 1.334 . S
C603 C604 1.287 . S
C604 C603 1.287 . S
C604 C605 1.524 . S
C604 H623 0.913 . S
C605 H581 0.950 . S
C605 C604 1.524 . S
C605 C606 1.415 . S
C606 H582 0.950 . S
C606 C601 1.363 . S
C606 C605 1.415 . S
C607 H583 0.951 . S
C607 C608 1.366 . S
C607 C609 1.388 . S
C608 C607 1.366 . S
C608 C612 1.385 . S
C609 H584 0.951 . S
C609 C607 1.388 . S
C609 C610 1.366 . S
C610 C609 1.366 . S
C610 C611 1.414 . S
C610 C613 1.499 . S
C611 H585 0.950 . S
C611 C610 1.414 . S
C611 C612 1.374 . S
C612 H586 0.950 . S
C612 C608 1.385 . S
C612 C611 1.374 . S
C613 C610 1.499 . S
C613 C614 1.373 . S
C613 C615 1.389 . S
C614 H587 0.950 . S
C614 C600 1.377 . S
C614 C613 1.373 . S
C615 C599 1.377 . S
C615 C613 1.389 . S
C615 C616 1.524 . S
C616 C615 1.524 . S
C616 C617 1.397 . S
C616 C621 1.363 . S
C617 H588 0.950 . S
C617 C616 1.397 . S
C617 C618 1.334 . S
C618 H589 0.950 . S
C618 C617 1.334 . S
C618 C619 1.287 . S
C619 C618 1.287 . S
C619 C620 1.524 . S
C619 H622 0.999 . S
C620 H590 0.950 . S
C620 C619 1.524 . S
C620 C621 1.415 . S
C621 H591 0.950 . S
C621 C616 1.363 . S
C621 C620 1.415 . S
H622 C619 0.999 . S
H623 C604 0.913 . S
H624 C642 0.951 . S
H625 C644 0.951 . S
H626 C646 0.950 . S
H627 C647 0.950 . S
H628 C649 0.950 . S
H629 C652 0.950 . S
H630 C653 0.950 . S
H631 C655 0.950 . S
H632 C656 0.950 . S
H633 C657 0.951 . S
H634 C659 0.951 . S
H635 C661 0.950 . S
H636 C662 0.950 . S
H637 C664 0.950 . S
H638 C667 0.950 . S
H639 C668 0.950 . S
H640 C670 0.950 . S
H641 C671 0.950 . S
C642 H624 0.951 . S
C642 C643 1.366 . S
C642 C644 1.388 . S
C643 C642 1.366 . S
C643 C647 1.385 . S
C644 H625 0.951 . S
C644 C642 1.388 . S
C644 C645 1.366 . S
C645 C644 1.366 . S
C645 C646 1.414 . S
C645 C648 1.499 . S
C646 H626 0.950 . S
C646 C645 1.414 . S
C646 C647 1.374 . S
C647 H627 0.950 . S
C647 C643 1.385 . S
C647 C646 1.374 . S
C648 C645 1.499 . S
C648 C649 1.373 . S
C648 C650 1.389 . S
C649 H628 0.950 . S
C649 C648 1.373 . S
C649 C665 1.377 . S
C650 C648 1.389 . S
C650 C651 1.524 . S
C650 C664 1.377 . S
C651 C650 1.524 . S
C651 C652 1.397 . S
C651 C656 1.363 . S
C652 H629 0.950 . S
C652 C651 1.397 . S
C652 C653 1.334 . S
C653 H630 0.950 . S
C653 C652 1.334 . S
C653 C654 1.287 . S
C654 C653 1.287 . S
C654 C655 1.524 . S
C654 H673 0.913 . S
C655 H631 0.950 . S
C655 C654 1.524 . S
C655 C656 1.415 . S
C656 H632 0.950 . S
C656 C651 1.363 . S
C656 C655 1.415 . S
C657 H633 0.951 . S
C657 C658 1.366 . S
C657 C659 1.388 . S
C658 C657 1.366 . S
C658 C662 1.385 . S
C659 H634 0.951 . S
C659 C657 1.388 . S
C659 C660 1.366 . S
C660 C659 1.366 . S
C660 C661 1.414 . S
C660 C663 1.499 . S
C661 H635 0.950 . S
C661 C660 1.414 . S
C661 C662 1.374 . S
C662 H636 0.950 . S
C662 C658 1.385 . S
C662 C661 1.374 . S
C663 C660 1.499 . S
C663 C664 1.373 . S
C663 C665 1.389 . S
C664 H637 0.950 . S
C664 C650 1.377 . S
C664 C663 1.373 . S
C665 C649 1.377 . S
C665 C663 1.389 . S
C665 C666 1.524 . S
C666 C665 1.524 . S
C666 C667 1.397 . S
C666 C671 1.363 . S
C667 H638 0.950 . S
C667 C666 1.397 . S
C667 C668 1.334 . S
C668 H639 0.950 . S
C668 C667 1.334 . S
C668 C669 1.287 . S
C669 C668 1.287 . S
C669 C670 1.524 . S
C669 H672 0.999 . S
C670 H640 0.950 . S
C670 C669 1.524 . S
C670 C671 1.415 . S
C671 H641 0.950 . S
C671 C666 1.363 . S
C671 C670 1.415 . S
H672 C669 0.999 . S
H673 C654 0.913 . S
H674 C692 0.951 . S
H675 C694 0.951 . S
H676 C696 0.950 . S
H677 C697 0.950 . S
H678 C699 0.950 . S
H679 C702 0.950 . S
H680 C703 0.950 . S
H681 C705 0.950 . S
H682 C706 0.950 . S
H683 C707 0.951 . S
H684 C709 0.951 . S
H685 C711 0.950 . S
H686 C712 0.950 . S
H687 C714 0.950 . S
H688 C717 0.950 . S
H689 C718 0.950 . S
H690 C720 0.950 . S
H691 C721 0.950 . S
C692 H674 0.951 . S
C692 C693 1.366 . S
C692 C694 1.388 . S
C693 C692 1.366 . S
C693 C697 1.385 . S
C694 H675 0.951 . S
C694 C692 1.388 . S
C694 C695 1.366 . S
C695 C694 1.366 . S
C695 C696 1.414 . S
C695 C698 1.499 . S
C696 H676 0.950 . S
C696 C695 1.414 . S
C696 C697 1.374 . S
C697 H677 0.950 . S
C697 C693 1.385 . S
C697 C696 1.374 . S
C698 C695 1.499 . S
C698 C699 1.373 . S
C698 C700 1.389 . S
C699 H678 0.950 . S
C699 C698 1.373 . S
C699 C715 1.377 . S
C700 C698 1.389 . S
C700 C701 1.524 . S
C700 C714 1.377 . S
C701 C700 1.524 . S
C701 C702 1.397 . S
C701 C706 1.363 . S
C702 H679 0.950 . S
C702 C701 1.397 . S
C702 C703 1.334 . S
C703 H680 0.950 . S
C703 C702 1.334 . S
C703 C704 1.287 . S
C704 C703 1.287 . S
C704 C705 1.524 . S
C704 H723 0.913 . S
C705 H681 0.950 . S
C705 C704 1.524 . S
C705 C706 1.415 . S
C706 H682 0.950 . S
C706 C701 1.363 . S
C706 C705 1.415 . S
C707 H683 0.951 . S
C707 C708 1.366 . S
C707 C709 1.388 . S
C708 C707 1.366 . S
C708 C712 1.385 . S
C709 H684 0.951 . S
C709 C707 1.388 . S
C709 C710 1.366 . S
C710 C709 1.366 . S
C710 C711 1.414 . S
C710 C713 1.499 . S
C711 H685 0.950 . S
C711 C710 1.414 . S
C711 C712 1.374 . S
C712 H686 0.950 . S
C712 C708 1.385 . S
C712 C711 1.374 . S
C713 C710 1.499 . S
C713 C714 1.373 . S
C713 C715 1.389 . S
C714 H687 0.950 . S
C714 C700 1.377 . S
C714 C713 1.373 . S
C715 C699 1.377 . S
C715 C713 1.389 . S
C715 C716 1.524 . S
C716 C715 1.524 . S
C716 C717 1.397 . S
C716 C721 1.363 . S
C717 H688 0.950 . S
C717 C716 1.397 . S
C717 C718 1.334 . S
C718 H689 0.950 . S
C718 C717 1.334 . S
C718 C719 1.287 . S
C719 C718 1.287 . S
C719 C720 1.524 . S
C719 H722 0.999 . S
C720 H690 0.950 . S
C720 C719 1.524 . S
C720 C721 1.415 . S
C721 H691 0.950 . S
C721 C716 1.363 . S
C721 C720 1.415 . S
H722 C719 0.999 . S
H723 C704 0.913 . S
H724 C742 0.951 . S
H725 C744 0.951 . S
H726 C746 0.950 . S
H727 C747 0.950 . S
H728 C749 0.950 . S
H729 C752 0.950 . S
H730 C753 0.950 . S
H731 C755 0.950 . S
H732 C756 0.950 . S
H733 C757 0.951 . S
H734 C759 0.951 . S
H735 C761 0.950 . S
H736 C762 0.950 . S
H737 C764 0.950 . S
H738 C767 0.950 . S
H739 C768 0.950 . S
H740 C770 0.950 . S
H741 C771 0.950 . S
C742 H724 0.951 . S
C742 C743 1.366 . S
C742 C744 1.388 . S
C743 C742 1.366 . S
C743 C747 1.385 . S
C744 H725 0.951 . S
C744 C742 1.388 . S
C744 C745 1.366 . S
C745 C744 1.366 . S
C745 C746 1.414 . S
C745 C748 1.499 . S
C746 H726 0.950 . S
C746 C745 1.414 . S
C746 C747 1.374 . S
C747 H727 0.950 . S
C747 C743 1.385 . S
C747 C746 1.374 . S
C748 C745 1.499 . S
C748 C749 1.373 . S
C748 C750 1.389 . S
C749 H728 0.950 . S
C749 C748 1.373 . S
C749 C765 1.377 . S
C750 C748 1.389 . S
C750 C751 1.524 . S
C750 C764 1.377 . S
C751 C750 1.524 . S
C751 C752 1.397 . S
C751 C756 1.363 . S
C752 H729 0.950 . S
C752 C751 1.397 . S
C752 C753 1.334 . S
C753 H730 0.950 . S
C753 C752 1.334 . S
C753 C754 1.287 . S
C754 C753 1.287 . S
C754 C755 1.524 . S
C754 H773 0.913 . S
C755 H731 0.950 . S
C755 C754 1.524 . S
C755 C756 1.415 . S
C756 H732 0.950 . S
C756 C751 1.363 . S
C756 C755 1.415 . S
C757 H733 0.951 . S
C757 C758 1.366 . S
C757 C759 1.388 . S
C758 C757 1.366 . S
C758 C762 1.385 . S
C759 H734 0.951 . S
C759 C757 1.388 . S
C759 C760 1.366 . S
C760 C759 1.366 . S
C760 C761 1.414 . S
C760 C763 1.499 . S
C761 H735 0.950 . S
C761 C760 1.414 . S
C761 C762 1.374 . S
C762 H736 0.950 . S
C762 C758 1.385 . S
C762 C761 1.374 . S
C763 C760 1.499 . S
C763 C764 1.373 . S
C763 C765 1.389 . S
C764 H737 0.950 . S
C764 C750 1.377 . S
C764 C763 1.373 . S
C765 C749 1.377 . S
C765 C763 1.389 . S
C765 C766 1.524 . S
C766 C765 1.524 . S
C766 C767 1.397 . S
C766 C771 1.363 . S
C767 H738 0.950 . S
C767 C766 1.397 . S
C767 C768 1.334 . S
C768 H739 0.950 . S
C768 C767 1.334 . S
C768 C769 1.287 . S
C769 C768 1.287 . S
C769 C770 1.524 . S
C769 H772 0.999 . S
C770 H740 0.950 . S
C770 C769 1.524 . S
C770 C771 1.415 . S
C771 H741 0.950 . S
C771 C766 1.363 . S
C771 C770 1.415 . S
H772 C769 0.999 . S
H773 C754 0.913 . S
H774 C792 0.951 . S
H775 C794 0.951 . S
H776 C796 0.950 . S
H777 C797 0.950 . S
H778 C799 0.950 1_556 S
H779 C802 0.950 . S
H780 C803 0.950 . S
H781 C805 0.950 . S
H782 C806 0.950 . S
H783 C807 0.951 . S
H784 C809 0.951 . S
H785 C811 0.950 . S
H786 C812 0.950 . S
H787 C814 0.950 . S
H788 C817 0.950 . S
H789 C818 0.950 . S
H790 C820 0.950 . S
H791 C821 0.950 . S
C792 H774 0.951 . S
C792 C793 1.366 . S
C792 C794 1.388 . S
C793 C792 1.366 . S
C793 C797 1.385 1_554 S
C794 H775 0.951 . S
C794 C792 1.388 . S
C794 C795 1.366 . S
C795 C794 1.366 . S
C795 C796 1.414 1_554 S
C795 C798 1.499 . S
C796 H776 0.950 . S
C796 C795 1.414 1_556 S
C796 C797 1.374 . S
C797 H777 0.950 . S
C797 C793 1.385 1_556 S
C797 C796 1.374 . S
C798 C795 1.499 . S
C798 C799 1.373 . S
C798 C800 1.389 . S
C799 H778 0.950 1_554 S
C799 C798 1.373 . S
C799 C815 1.377 . S
C800 C798 1.389 . S
C800 C801 1.524 . S
C800 C814 1.377 . S
C801 C800 1.524 . S
C801 C802 1.397 . S
C801 C806 1.363 . S
C802 H779 0.950 . S
C802 C801 1.397 . S
C802 C803 1.334 . S
C803 H780 0.950 . S
C803 C802 1.334 . S
C803 C804 1.287 . S
C804 C803 1.287 . S
C804 C805 1.524 . S
C804 H823 0.913 . S
C805 H781 0.950 . S
C805 C804 1.524 . S
C805 C806 1.415 . S
C806 H782 0.950 . S
C806 C801 1.363 . S
C806 C805 1.415 . S
C807 H783 0.951 . S
C807 C808 1.366 . S
C807 C809 1.388 . S
C808 C807 1.366 . S
C808 C812 1.385 . S
C809 H784 0.951 . S
C809 C807 1.388 . S
C809 C810 1.366 . S
C810 C809 1.366 . S
C810 C811 1.414 . S
C810 C813 1.499 . S
C811 H785 0.950 . S
C811 C810 1.414 . S
C811 C812 1.374 . S
C812 H786 0.950 . S
C812 C808 1.385 . S
C812 C811 1.374 . S
C813 C810 1.499 . S
C813 C814 1.373 . S
C813 C815 1.389 . S
C814 H787 0.950 . S
C814 C800 1.377 . S
C814 C813 1.373 . S
C815 C799 1.377 . S
C815 C813 1.389 . S
C815 C816 1.524 . S
C816 C815 1.524 . S
C816 C817 1.397 . S
C816 C821 1.363 1_554 S
C817 H788 0.950 . S
C817 C816 1.397 . S
C817 C818 1.334 . S
C818 H789 0.950 . S
C818 C817 1.334 . S
C818 C819 1.287 1_554 S
C819 C818 1.287 1_556 S
C819 C820 1.524 . S
C819 H822 0.999 . S
C820 H790 0.950 . S
C820 C819 1.524 . S
C820 C821 1.415 . S
C821 H791 0.950 . S
C821 C816 1.363 1_556 S
C821 C820 1.415 . S
H822 C819 0.999 . S
H823 C804 0.913 . S
H824 C842 0.951 . S
H825 C844 0.951 . S
H826 C846 0.950 . S
H827 C847 0.950 . S
H828 C849 0.950 . S
H829 C852 0.950 . S
H830 C853 0.950 . S
H831 C855 0.950 . S
H832 C856 0.950 . S
H833 C857 0.951 . S
H834 C859 0.951 . S
H835 C861 0.950 . S
H836 C862 0.950 . S
H837 C864 0.950 . S
H838 C867 0.950 . S
H839 C868 0.950 . S
H840 C870 0.950 . S
H841 C871 0.950 . S
C842 H824 0.951 . S
C842 C843 1.366 . S
C842 C844 1.388 . S
C843 C842 1.366 . S
C843 C847 1.385 . S
C844 H825 0.951 . S
C844 C842 1.388 . S
C844 C845 1.366 . S
C845 C844 1.366 . S
C845 C846 1.414 . S
C845 C848 1.499 . S
C846 H826 0.950 . S
C846 C845 1.414 . S
C846 C847 1.374 . S
C847 H827 0.950 . S
C847 C843 1.385 . S
C847 C846 1.374 . S
C848 C845 1.499 . S
C848 C849 1.373 . S
C848 C850 1.389 . S
C849 H828 0.950 . S
C849 C848 1.373 . S
C849 C865 1.377 . S
C850 C848 1.389 . S
C850 C851 1.524 . S
C850 C864 1.377 . S
C851 C850 1.524 . S
C851 C852 1.397 . S
C851 C856 1.363 . S
C852 H829 0.950 . S
C852 C851 1.397 . S
C852 C853 1.334 . S
C853 H830 0.950 . S
C853 C852 1.334 . S
C853 C854 1.287 . S
C854 C853 1.287 . S
C854 C855 1.524 . S
C854 H873 0.913 . S
C855 H831 0.950 . S
C855 C854 1.524 . S
C855 C856 1.415 . S
C856 H832 0.950 . S
C856 C851 1.363 . S
C856 C855 1.415 . S
C857 H833 0.951 . S
C857 C858 1.366 . S
C857 C859 1.388 . S
C858 C857 1.366 . S
C858 C862 1.385 . S
C859 H834 0.951 . S
C859 C857 1.388 . S
C859 C860 1.366 . S
C860 C859 1.366 . S
C860 C861 1.414 . S
C860 C863 1.499 . S
C861 H835 0.950 . S
C861 C860 1.414 . S
C861 C862 1.374 . S
C862 H836 0.950 . S
C862 C858 1.385 . S
C862 C861 1.374 . S
C863 C860 1.499 . S
C863 C864 1.373 . S
C863 C865 1.389 . S
C864 H837 0.950 . S
C864 C850 1.377 . S
C864 C863 1.373 . S
C865 C849 1.377 . S
C865 C863 1.389 . S
C865 C866 1.524 . S
C866 C865 1.524 . S
C866 C867 1.397 . S
C866 C871 1.363 . S
C867 H838 0.950 . S
C867 C866 1.397 . S
C867 C868 1.334 . S
C868 H839 0.950 . S
C868 C867 1.334 . S
C868 C869 1.287 . S
C869 C868 1.287 . S
C869 C870 1.524 . S
C869 H872 0.999 . S
C870 H840 0.950 . S
C870 C869 1.524 . S
C870 C871 1.415 . S
C871 H841 0.950 . S
C871 C866 1.363 . S
C871 C870 1.415 . S
H872 C869 0.999 . S
H873 C854 0.913 . S
H874 C892 0.951 . S
H875 C894 0.951 . S
H876 C896 0.950 . S
H877 C897 0.950 . S
H878 C899 0.950 . S
H879 C902 0.950 . S
H880 C903 0.950 . S
H881 C905 0.950 . S
H882 C906 0.950 . S
H883 C907 0.951 . S
H884 C909 0.951 . S
H885 C911 0.950 . S
H886 C912 0.950 . S
H887 C914 0.950 . S
H888 C917 0.950 . S
H889 C918 0.950 . S
H890 C920 0.950 . S
H891 C921 0.950 . S
C892 H874 0.951 . S
C892 C893 1.366 . S
C892 C894 1.388 . S
C893 C892 1.366 . S
C893 C897 1.385 . S
C894 H875 0.951 . S
C894 C892 1.388 . S
C894 C895 1.366 . S
C895 C894 1.366 . S
C895 C896 1.414 . S
C895 C898 1.499 . S
C896 H876 0.950 . S
C896 C895 1.414 . S
C896 C897 1.374 . S
C897 H877 0.950 . S
C897 C893 1.385 . S
C897 C896 1.374 . S
C898 C895 1.499 . S
C898 C899 1.373 . S
C898 C900 1.389 . S
C899 H878 0.950 . S
C899 C898 1.373 . S
C899 C915 1.377 . S
C900 C898 1.389 . S
C900 C901 1.524 . S
C900 C914 1.377 . S
C901 C900 1.524 . S
C901 C902 1.397 . S
C901 C906 1.363 . S
C902 H879 0.950 . S
C902 C901 1.397 . S
C902 C903 1.334 . S
C903 H880 0.950 . S
C903 C902 1.334 . S
C903 C904 1.287 . S
C904 C903 1.287 . S
C904 C905 1.524 . S
C904 H923 0.913 . S
C905 H881 0.950 . S
C905 C904 1.524 . S
C905 C906 1.415 . S
C906 H882 0.950 . S
C906 C901 1.363 . S
C906 C905 1.415 . S
C907 H883 0.951 . S
C907 C908 1.366 . S
C907 C909 1.388 . S
C908 C907 1.366 . S
C908 C912 1.385 . S
C909 H884 0.951 . S
C909 C907 1.388 . S
C909 C910 1.366 . S
C910 C909 1.366 . S
C910 C911 1.414 . S
C910 C913 1.499 . S
C911 H885 0.950 . S
C911 C910 1.414 . S
C911 C912 1.374 . S
C912 H886 0.950 . S
C912 C908 1.385 . S
C912 C911 1.374 . S
C913 C910 1.499 . S
C913 C914 1.373 . S
C913 C915 1.389 . S
C914 H887 0.950 . S
C914 C900 1.377 . S
C914 C913 1.373 . S
C915 C899 1.377 . S
C915 C913 1.389 . S
C915 C916 1.524 . S
C916 C915 1.524 . S
C916 C917 1.397 . S
C916 C921 1.363 . S
C917 H888 0.950 . S
C917 C916 1.397 . S
C917 C918 1.334 . S
C918 H889 0.950 . S
C918 C917 1.334 . S
C918 C919 1.287 . S
C919 C918 1.287 . S
C919 C920 1.524 . S
C919 H922 0.999 . S
C920 H890 0.950 . S
C920 C919 1.524 . S
C920 C921 1.415 . S
C921 H891 0.950 . S
C921 C916 1.363 . S
C921 C920 1.415 . S
H922 C919 0.999 . S
H923 C904 0.913 . S
H924 C942 0.951 . S
H925 C944 0.951 . S
H926 C946 0.950 . S
H927 C947 0.950 . S
H928 C949 0.950 . S
H929 C952 0.950 . S
H930 C953 0.950 . S
H931 C955 0.950 . S
H932 C956 0.950 . S
H933 C957 0.951 . S
H934 C959 0.951 . S
H935 C961 0.950 . S
H936 C962 0.950 . S
H937 C964 0.950 . S
H938 C967 0.950 . S
H939 C968 0.950 . S
H940 C970 0.950 . S
H941 C971 0.950 . S
C942 H924 0.951 . S
C942 C943 1.366 . S
C942 C944 1.388 . S
C943 C942 1.366 . S
C943 C947 1.385 . S
C944 H925 0.951 . S
C944 C942 1.388 . S
C944 C945 1.366 . S
C945 C944 1.366 . S
C945 C946 1.414 . S
C945 C948 1.499 . S
C946 H926 0.950 . S
C946 C945 1.414 . S
C946 C947 1.374 . S
C947 H927 0.950 . S
C947 C943 1.385 . S
C947 C946 1.374 . S
C948 C945 1.499 . S
C948 C949 1.373 . S
C948 C950 1.389 . S
C949 H928 0.950 . S
C949 C948 1.373 . S
C949 C965 1.377 . S
C950 C948 1.389 . S
C950 C951 1.524 . S
C950 C964 1.377 . S
C951 C950 1.524 . S
C951 C952 1.397 . S
C951 C956 1.363 . S
C952 H929 0.950 . S
C952 C951 1.397 . S
C952 C953 1.334 . S
C953 H930 0.950 . S
C953 C952 1.334 . S
C953 C954 1.287 . S
C954 C953 1.287 . S
C954 C955 1.524 . S
C954 H973 0.913 . S
C955 H931 0.950 . S
C955 C954 1.524 . S
C955 C956 1.415 . S
C956 H932 0.950 . S
C956 C951 1.363 . S
C956 C955 1.415 . S
C957 H933 0.951 . S
C957 C958 1.366 . S
C957 C959 1.388 . S
C958 C957 1.366 . S
C958 C962 1.385 . S
C959 H934 0.951 . S
C959 C957 1.388 . S
C959 C960 1.366 . S
C960 C959 1.366 . S
C960 C961 1.414 . S
C960 C963 1.499 . S
C961 H935 0.950 . S
C961 C960 1.414 . S
C961 C962 1.374 . S
C962 H936 0.950 . S
C962 C958 1.385 . S
C962 C961 1.374 . S
C963 C960 1.499 . S
C963 C964 1.373 . S
C963 C965 1.389 . S
C964 H937 0.950 . S
C964 C950 1.377 . S
C964 C963 1.373 . S
C965 C949 1.377 . S
C965 C963 1.389 . S
C965 C966 1.524 . S
C966 C965 1.524 . S
C966 C967 1.397 . S
C966 C971 1.363 . S
C967 H938 0.950 . S
C967 C966 1.397 . S
C967 C968 1.334 . S
C968 H939 0.950 . S
C968 C967 1.334 . S
C968 C969 1.287 . S
C969 C968 1.287 . S
C969 C970 1.524 . S
C969 H972 0.999 . S
C970 H940 0.950 . S
C970 C969 1.524 . S
C970 C971 1.415 . S
C971 H941 0.950 . S
C971 C966 1.363 . S
C971 C970 1.415 . S
H972 C969 0.999 . S
H973 C954 0.913 . S
H974 C992 0.951 . S
H975 C994 0.951 . S
H976 C996 0.950 . S
H977 C997 0.950 . S
H978 C999 0.950 . S
H979 C1002 0.950 . S
H980 C1003 0.950 . S
H981 C1005 0.950 . S
H982 C1006 0.950 . S
H983 C1007 0.951 . S
H984 C1009 0.951 . S
H985 C1011 0.950 . S
H986 C1012 0.950 . S
H987 C1014 0.950 . S
H988 C1017 0.950 . S
H989 C1018 0.950 . S
H990 C1020 0.950 . S
H991 C1021 0.950 . S
C992 H974 0.951 . S
C992 C993 1.366 . S
C992 C994 1.388 . S
C993 C992 1.366 . S
C993 C997 1.385 . S
C994 H975 0.951 . S
C994 C992 1.388 . S
C994 C995 1.366 . S
C995 C994 1.366 . S
C995 C996 1.414 . S
C995 C998 1.499 . S
C996 H976 0.950 . S
C996 C995 1.414 . S
C996 C997 1.374 . S
C997 H977 0.950 . S
C997 C993 1.385 . S
C997 C996 1.374 . S
C998 C995 1.499 . S
C998 C999 1.373 . S
C998 C1000 1.389 . S
C999 H978 0.950 . S
C999 C998 1.373 . S
C999 C1015 1.377 . S
C1000 C998 1.389 . S
C1000 C1001 1.524 . S
C1000 C1014 1.377 . S
C1001 C1000 1.524 . S
C1001 C1002 1.397 . S
C1001 C1006 1.363 . S
C1002 H979 0.950 . S
C1002 C1001 1.397 . S
C1002 C1003 1.334 . S
C1003 H980 0.950 . S
C1003 C1002 1.334 . S
C1003 C1004 1.287 . S
C1004 C1003 1.287 . S
C1004 C1005 1.524 . S
C1004 H1023 0.913 . S
C1005 H981 0.950 . S
C1005 C1004 1.524 . S
C1005 C1006 1.415 . S
C1006 H982 0.950 . S
C1006 C1001 1.363 . S
C1006 C1005 1.415 . S
C1007 H983 0.951 . S
C1007 C1008 1.366 . S
C1007 C1009 1.388 . S
C1008 C1007 1.366 . S
C1008 C1012 1.385 . S
C1009 H984 0.951 . S
C1009 C1007 1.388 . S
C1009 C1010 1.366 . S
C1010 C1009 1.366 . S
C1010 C1011 1.414 . S
C1010 C1013 1.499 . S
C1011 H985 0.950 . S
C1011 C1010 1.414 . S
C1011 C1012 1.374 . S
C1012 H986 0.950 . S
C1012 C1008 1.385 . S
C1012 C1011 1.374 . S
C1013 C1010 1.499 . S
C1013 C1014 1.373 . S
C1013 C1015 1.389 . S
C1014 H987 0.950 . S
C1014 C1000 1.377 . S
C1014 C1013 1.373 . S
C1015 C999 1.377 . S
C1015 C1013 1.389 . S
C1015 C1016 1.524 . S
C1016 C1015 1.524 . S
C1016 C1017 1.397 . S
C1016 C1021 1.363 . S
C1017 H988 0.950 . S
C1017 C1016 1.397 . S
C1017 C1018 1.334 . S
C1018 H989 0.950 . S
C1018 C1017 1.334 . S
C1018 C1019 1.287 . S
C1019 C1018 1.287 . S
C1019 C1020 1.524 . S
C1019 H1022 0.999 . S
C1020 H990 0.950 . S
C1020 C1019 1.524 . S
C1020 C1021 1.415 . S
C1021 H991 0.950 . S
C1021 C1016 1.363 . S
C1021 C1020 1.415 . S
H1022 C1019 0.999 . S
H1023 C1004 0.913 . S
H1024 C1042 0.951 . S
H1025 C1044 0.951 . S
H1026 C1046 0.950 . S
H1027 C1047 0.950 . S
H1028 C1049 0.950 . S
H1029 C1052 0.950 . S
H1030 C1053 0.950 . S
H1031 C1055 0.950 . S
H1032 C1056 0.950 . S
H1033 C1057 0.951 . S
H1034 C1059 0.951 . S
H1035 C1061 0.950 . S
H1036 C1062 0.950 . S
H1037 C1064 0.950 . S
H1038 C1067 0.950 . S
H1039 C1068 0.950 . S
H1040 C1070 0.950 . S
H1041 C1071 0.950 . S
C1042 H1024 0.951 . S
C1042 C1043 1.366 . S
C1042 C1044 1.388 . S
C1043 C1042 1.366 . S
C1043 C1047 1.385 . S
C1044 H1025 0.951 . S
C1044 C1042 1.388 . S
C1044 C1045 1.366 . S
C1045 C1044 1.366 . S
C1045 C1046 1.414 . S
C1045 C1048 1.499 . S
C1046 H1026 0.950 . S
C1046 C1045 1.414 . S
C1046 C1047 1.374 . S
C1047 H1027 0.950 . S
C1047 C1043 1.385 . S
C1047 C1046 1.374 . S
C1048 C1045 1.499 . S
C1048 C1049 1.373 . S
C1048 C1050 1.389 . S
C1049 H1028 0.950 . S
C1049 C1048 1.373 . S
C1049 C1065 1.377 . S
C1050 C1048 1.389 . S
C1050 C1051 1.524 . S
C1050 C1064 1.377 . S
C1051 C1050 1.524 . S
C1051 C1052 1.397 . S
C1051 C1056 1.363 . S
C1052 H1029 0.950 . S
C1052 C1051 1.397 . S
C1052 C1053 1.334 . S
C1053 H1030 0.950 . S
C1053 C1052 1.334 . S
C1053 C1054 1.287 . S
C1054 C1053 1.287 . S
C1054 C1055 1.524 . S
C1054 H1073 0.913 . S
C1055 H1031 0.950 . S
C1055 C1054 1.524 . S
C1055 C1056 1.415 . S
C1056 H1032 0.950 . S
C1056 C1051 1.363 . S
C1056 C1055 1.415 . S
C1057 H1033 0.951 . S
C1057 C1058 1.366 . S
C1057 C1059 1.388 . S
C1058 C1057 1.366 . S
C1058 C1062 1.385 . S
C1059 H1034 0.951 . S
C1059 C1057 1.388 . S
C1059 C1060 1.366 . S
C1060 C1059 1.366 . S
C1060 C1061 1.414 . S
C1060 C1063 1.499 . S
C1061 H1035 0.950 . S
C1061 C1060 1.414 . S
C1061 C1062 1.374 . S
C1062 H1036 0.950 . S
C1062 C1058 1.385 . S
C1062 C1061 1.374 . S
C1063 C1060 1.499 . S
C1063 C1064 1.373 . S
C1063 C1065 1.389 . S
C1064 H1037 0.950 . S
C1064 C1050 1.377 . S
C1064 C1063 1.373 . S
C1065 C1049 1.377 . S
C1065 C1063 1.389 . S
C1065 C1066 1.524 . S
C1066 C1065 1.524 . S
C1066 C1067 1.397 . S
C1066 C1071 1.363 . S
C1067 H1038 0.950 . S
C1067 C1066 1.397 . S
C1067 C1068 1.334 . S
C1068 H1039 0.950 . S
C1068 C1067 1.334 . S
C1068 C1069 1.287 . S
C1069 C1068 1.287 . S
C1069 C1070 1.524 . S
C1069 H1072 0.999 . S
C1070 H1040 0.950 . S
C1070 C1069 1.524 . S
C1070 C1071 1.415 . S
C1071 H1041 0.950 . S
C1071 C1066 1.363 . S
C1071 C1070 1.415 . S
H1072 C1069 0.999 . S
H1073 C1054 0.913 . S
H1074 C1092 0.951 . S
H1075 C1094 0.951 . S
H1076 C1096 0.950 . S
H1077 C1097 0.950 . S
H1078 C1099 0.950 . S
H1079 C1102 0.950 . S
H1080 C1103 0.950 . S
H1081 C1105 0.950 . S
H1082 C1106 0.950 . S
H1083 C1107 0.951 . S
H1084 C1109 0.951 . S
H1085 C1111 0.950 . S
H1086 C1112 0.950 . S
H1087 C1114 0.950 . S
H1088 C1117 0.950 . S
H1089 C1118 0.952 . S
H1090 C1120 0.950 . S
H1091 C1121 0.950 . S
C1092 H1074 0.951 . S
C1092 C1093 1.366 . S
C1092 C1094 1.388 . S
C1093 C1092 1.366 . S
C1093 C1097 1.385 . S
C1094 H1075 0.951 . S
C1094 C1092 1.388 . S
C1094 C1095 1.366 . S
C1095 C1094 1.366 . S
C1095 C1096 1.414 . S
C1095 C1098 1.499 . S
C1096 H1076 0.950 . S
C1096 C1095 1.414 . S
C1096 C1097 1.374 . S
C1097 H1077 0.950 . S
C1097 C1093 1.385 . S
C1097 C1096 1.374 . S
C1098 C1095 1.499 . S
C1098 C1099 1.373 . S
C1098 C1100 1.389 . S
C1099 H1078 0.950 . S
C1099 C1098 1.373 . S
C1099 C1115 1.377 . S
C1100 C1098 1.389 . S
C1100 C1101 1.524 . S
C1100 C1114 1.377 . S
C1101 C1100 1.524 . S
C1101 C1102 1.397 . S
C1101 C1106 1.363 . S
C1102 H1079 0.950 . S
C1102 C1101 1.397 . S
C1102 C1103 1.334 . S
C1103 H1080 0.950 . S
C1103 C1102 1.334 . S
C1103 C1104 1.287 . S
C1104 C1103 1.287 . S
C1104 C1105 1.524 . S
C1104 H1123 0.913 . S
C1105 H1081 0.950 . S
C1105 C1104 1.524 . S
C1105 C1106 1.415 . S
C1106 H1082 0.950 . S
C1106 C1101 1.363 . S
C1106 C1105 1.415 . S
C1107 H1083 0.951 . S
C1107 C1108 1.366 . S
C1107 C1109 1.388 . S
C1108 C1107 1.366 . S
C1108 C1112 1.385 1_554 S
C1109 H1084 0.951 . S
C1109 C1107 1.388 . S
C1109 C1110 1.366 1_554 S
C1110 C1109 1.366 1_556 S
C1110 C1111 1.414 . S
C1110 C1113 1.499 . S
C1111 H1085 0.950 . S
C1111 C1110 1.414 . S
C1111 C1112 1.374 . S
C1112 H1086 0.950 . S
C1112 C1108 1.385 1_556 S
C1112 C1111 1.374 . S
C1113 C1110 1.499 . S
C1113 C1114 1.373 . S
C1113 C1115 1.389 . S
C1114 H1087 0.950 . S
C1114 C1100 1.377 . S
C1114 C1113 1.373 . S
C1115 C1099 1.377 . S
C1115 C1113 1.389 . S
C1115 C1116 1.524 . S
C1116 C1115 1.524 . S
C1116 C1117 1.397 . S
C1116 C1121 1.363 . S
C1117 H1088 0.950 . S
C1117 C1116 1.397 . S
C1117 C1118 1.327 1_556 S
C1118 H1089 0.952 . S
C1118 C1117 1.327 1_554 S
C1118 C1119 1.291 . S
C1119 C1118 1.291 . S
C1119 C1120 1.524 . S
C1119 H1122 0.999 . S
C1120 H1090 0.950 . S
C1120 C1119 1.524 . S
C1120 C1121 1.415 1_554 S
C1121 H1091 0.950 . S
C1121 C1116 1.363 . S
C1121 C1120 1.415 1_556 S
H1122 C1119 0.999 . S
H1123 C1104 0.913 . S
H1124 C1142 0.951 . S
H1125 C1144 0.951 . S
H1126 C1146 0.950 . S
H1127 C1147 0.950 . S
H1128 C1149 0.950 . S
H1129 C1152 0.950 . S
H1130 C1153 0.950 . S
H1131 C1155 0.950 . S
H1132 C1156 0.950 . S
H1133 C1157 0.951 . S
H1134 C1159 0.951 . S
H1135 C1161 0.950 . S
H1136 C1162 0.950 . S
H1137 C1164 0.950 . S
H1138 C1167 0.950 . S
H1139 C1168 0.950 . S
H1140 C1170 0.950 . S
H1141 C1171 0.950 . S
C1142 H1124 0.951 . S
C1142 C1143 1.366 . S
C1142 C1144 1.388 . S
C1143 C1142 1.366 . S
C1143 C1147 1.385 . S
C1144 H1125 0.951 . S
C1144 C1142 1.388 . S
C1144 C1145 1.366 . S
C1145 C1144 1.366 . S
C1145 C1146 1.414 . S
C1145 C1148 1.499 . S
C1146 H1126 0.950 . S
C1146 C1145 1.414 . S
C1146 C1147 1.374 . S
C1147 H1127 0.950 . S
C1147 C1143 1.385 . S
C1147 C1146 1.374 . S
C1148 C1145 1.499 . S
C1148 C1149 1.373 . S
C1148 C1150 1.389 . S
C1149 H1128 0.950 . S
C1149 C1148 1.373 . S
C1149 C1165 1.377 . S
C1150 C1148 1.389 . S
C1150 C1151 1.524 . S
C1150 C1164 1.377 . S
C1151 C1150 1.524 . S
C1151 C1152 1.397 . S
C1151 C1156 1.363 . S
C1152 H1129 0.950 . S
C1152 C1151 1.397 . S
C1152 C1153 1.334 . S
C1153 H1130 0.950 . S
C1153 C1152 1.334 . S
C1153 C1154 1.287 . S
C1154 C1153 1.287 . S
C1154 C1155 1.524 . S
C1154 H1173 0.913 . S
C1155 H1131 0.950 . S
C1155 C1154 1.524 . S
C1155 C1156 1.415 . S
C1156 H1132 0.950 . S
C1156 C1151 1.363 . S
C1156 C1155 1.415 . S
C1157 H1133 0.951 . S
C1157 C1158 1.366 . S
C1157 C1159 1.388 . S
C1158 C1157 1.366 . S
C1158 C1162 1.385 . S
C1159 H1134 0.951 . S
C1159 C1157 1.388 . S
C1159 C1160 1.366 . S
C1160 C1159 1.366 . S
C1160 C1161 1.414 . S
C1160 C1163 1.499 . S
C1161 H1135 0.950 . S
C1161 C1160 1.414 . S
C1161 C1162 1.374 . S
C1162 H1136 0.950 . S
C1162 C1158 1.385 . S
C1162 C1161 1.374 . S
C1163 C1160 1.499 . S
C1163 C1164 1.373 . S
C1163 C1165 1.389 . S
C1164 H1137 0.950 . S
C1164 C1150 1.377 . S
C1164 C1163 1.373 . S
C1165 C1149 1.377 . S
C1165 C1163 1.389 . S
C1165 C1166 1.524 . S
C1166 C1165 1.524 . S
C1166 C1167 1.397 . S
C1166 C1171 1.363 . S
C1167 H1138 0.950 . S
C1167 C1166 1.397 . S
C1167 C1168 1.334 . S
C1168 H1139 0.950 . S
C1168 C1167 1.334 . S
C1168 C1169 1.287 . S
C1169 C1168 1.287 . S
C1169 C1170 1.524 . S
C1169 H1172 0.999 . S
C1170 H1140 0.950 . S
C1170 C1169 1.524 . S
C1170 C1171 1.415 . S
C1171 H1141 0.950 . S
C1171 C1166 1.363 . S
C1171 C1170 1.415 . S
H1172 C1169 0.999 . S
H1173 C1154 0.913 . S
H1174 C1192 0.951 . S
H1175 C1194 0.951 . S
H1176 C1196 0.950 . S
H1177 C1197 0.950 . S
H1178 C1199 0.950 . S
H1179 C1202 0.950 . S
H1180 C1203 0.950 . S
H1181 C1205 0.950 . S
H1182 C1206 0.950 . S
H1183 C1207 0.951 . S
H1184 C1209 0.951 . S
H1185 C1211 0.950 . S
H1186 C1212 0.950 . S
H1187 C1214 0.950 . S
H1188 C1217 0.950 . S
H1189 C1218 0.950 . S
H1190 C1220 0.950 . S
H1191 C1221 0.950 . S
C1192 H1174 0.951 . S
C1192 C1193 1.366 . S
C1192 C1194 1.388 . S
C1193 C1192 1.366 . S
C1193 C1197 1.385 . S
C1194 H1175 0.951 . S
C1194 C1192 1.388 . S
C1194 C1195 1.366 . S
C1195 C1194 1.366 . S
C1195 C1196 1.414 . S
C1195 C1198 1.499 . S
C1196 H1176 0.950 . S
C1196 C1195 1.414 . S
C1196 C1197 1.374 . S
C1197 H1177 0.950 . S
C1197 C1193 1.385 . S
C1197 C1196 1.374 . S
C1198 C1195 1.499 . S
C1198 C1199 1.373 . S
C1198 C1200 1.389 . S
C1199 H1178 0.950 . S
C1199 C1198 1.373 . S
C1199 C1215 1.377 . S
C1200 C1198 1.389 . S
C1200 C1201 1.524 . S
C1200 C1214 1.377 . S
C1201 C1200 1.524 . S
C1201 C1202 1.397 . S
C1201 C1206 1.363 . S
C1202 H1179 0.950 . S
C1202 C1201 1.397 . S
C1202 C1203 1.334 . S
C1203 H1180 0.950 . S
C1203 C1202 1.334 . S
C1203 C1204 1.287 . S
C1204 C1203 1.287 . S
C1204 C1205 1.524 . S
C1204 H1223 0.913 . S
C1205 H1181 0.950 . S
C1205 C1204 1.524 . S
C1205 C1206 1.415 . S
C1206 H1182 0.950 . S
C1206 C1201 1.363 . S
C1206 C1205 1.415 . S
C1207 H1183 0.951 . S
C1207 C1208 1.366 . S
C1207 C1209 1.388 . S
C1208 C1207 1.366 . S
C1208 C1212 1.385 . S
C1209 H1184 0.951 . S
C1209 C1207 1.388 . S
C1209 C1210 1.366 . S
C1210 C1209 1.366 . S
C1210 C1211 1.414 . S
C1210 C1213 1.499 . S
C1211 H1185 0.950 . S
C1211 C1210 1.414 . S
C1211 C1212 1.374 . S
C1212 H1186 0.950 . S
C1212 C1208 1.385 . S
C1212 C1211 1.374 . S
C1213 C1210 1.499 . S
C1213 C1214 1.373 . S
C1213 C1215 1.389 . S
C1214 H1187 0.950 . S
C1214 C1200 1.377 . S
C1214 C1213 1.373 . S
C1215 C1199 1.377 . S
C1215 C1213 1.389 . S
C1215 C1216 1.524 . S
C1216 C1215 1.524 . S
C1216 C1217 1.397 . S
C1216 C1221 1.363 . S
C1217 H1188 0.950 . S
C1217 C1216 1.397 . S
C1217 C1218 1.334 . S
C1218 H1189 0.950 . S
C1218 C1217 1.334 . S
C1218 C1219 1.287 . S
C1219 C1218 1.287 . S
C1219 C1220 1.524 . S
C1219 H1222 0.999 . S
C1220 H1190 0.950 . S
C1220 C1219 1.524 . S
C1220 C1221 1.415 . S
C1221 H1191 0.950 . S
C1221 C1216 1.363 . S
C1221 C1220 1.415 . S
H1222 C1219 0.999 . S
H1223 C1204 0.913 . S
H1224 C1242 0.951 . S
H1225 C1244 0.951 . S
H1226 C1246 0.950 . S
H1227 C1247 0.950 . S
H1228 C1249 0.950 . S
H1229 C1252 0.950 . S
H1230 C1253 0.950 . S
H1231 C1255 0.950 . S
H1232 C1256 0.950 . S
H1233 C1257 0.951 . S
H1234 C1259 0.951 . S
H1235 C1261 0.950 . S
H1236 C1262 0.950 . S
H1237 C1264 0.950 . S
H1238 C1267 0.950 . S
H1239 C1268 0.950 . S
H1240 C1270 0.950 . S
H1241 C1271 0.950 . S
C1242 H1224 0.951 . S
C1242 C1243 1.366 . S
C1242 C1244 1.388 . S
C1243 C1242 1.366 . S
C1243 C1247 1.385 . S
C1244 H1225 0.951 . S
C1244 C1242 1.388 . S
C1244 C1245 1.366 . S
C1245 C1244 1.366 . S
C1245 C1246 1.414 . S
C1245 C1248 1.499 . S
C1246 H1226 0.950 . S
C1246 C1245 1.414 . S
C1246 C1247 1.374 . S
C1247 H1227 0.950 . S
C1247 C1243 1.385 . S
C1247 C1246 1.374 . S
C1248 C1245 1.499 . S
C1248 C1249 1.373 . S
C1248 C1250 1.389 . S
C1249 H1228 0.950 . S
C1249 C1248 1.373 . S
C1249 C1265 1.377 . S
C1250 C1248 1.389 . S
C1250 C1251 1.524 . S
C1250 C1264 1.377 . S
C1251 C1250 1.524 . S
C1251 C1252 1.397 . S
C1251 C1256 1.363 . S
C1252 H1229 0.950 . S
C1252 C1251 1.397 . S
C1252 C1253 1.334 . S
C1253 H1230 0.950 . S
C1253 C1252 1.334 . S
C1253 C1254 1.287 . S
C1254 C1253 1.287 . S
C1254 C1255 1.524 . S
C1254 H1273 0.913 . S
C1255 H1231 0.950 . S
C1255 C1254 1.524 . S
C1255 C1256 1.415 . S
C1256 H1232 0.950 . S
C1256 C1251 1.363 . S
C1256 C1255 1.415 . S
C1257 H1233 0.951 . S
C1257 C1258 1.366 . S
C1257 C1259 1.388 . S
C1258 C1257 1.366 . S
C1258 C1262 1.385 . S
C1259 H1234 0.951 . S
C1259 C1257 1.388 . S
C1259 C1260 1.366 . S
C1260 C1259 1.366 . S
C1260 C1261 1.414 . S
C1260 C1263 1.499 . S
C1261 H1235 0.950 . S
C1261 C1260 1.414 . S
C1261 C1262 1.374 . S
C1262 H1236 0.950 . S
C1262 C1258 1.385 . S
C1262 C1261 1.374 . S
C1263 C1260 1.499 . S
C1263 C1264 1.373 . S
C1263 C1265 1.389 . S
C1264 H1237 0.950 . S
C1264 C1250 1.377 . S
C1264 C1263 1.373 . S
C1265 C1249 1.377 . S
C1265 C1263 1.389 . S
C1265 C1266 1.524 . S
C1266 C1265 1.524 . S
C1266 C1267 1.397 . S
C1266 C1271 1.363 . S
C1267 H1238 0.950 . S
C1267 C1266 1.397 . S
C1267 C1268 1.334 . S
C1268 H1239 0.950 . S
C1268 C1267 1.334 . S
C1268 C1269 1.287 . S
C1269 C1268 1.287 . S
C1269 C1270 1.524 . S
C1269 H1272 0.999 . S
C1270 H1240 0.950 . S
C1270 C1269 1.524 . S
C1270 C1271 1.415 . S
C1271 H1241 0.950 . S
C1271 C1266 1.363 . S
C1271 C1270 1.415 . S
H1272 C1269 0.999 . S
H1273 C1254 0.913 . S
H1274 C1292 0.951 . S
H1275 C1294 0.951 . S
H1276 C1296 0.950 . S
H1277 C1297 0.950 . S
H1278 C1299 0.950 . S
H1279 C1302 0.950 . S
H1280 C1303 0.950 . S
H1281 C1305 0.950 . S
H1282 C1306 0.950 . S
H1283 C1307 0.951 . S
H1284 C1309 0.951 . S
H1285 C1311 0.950 . S
H1286 C1312 0.950 . S
H1287 C1314 0.950 . S
H1288 C1317 0.950 . S
H1289 C1318 0.950 . S
H1290 C1320 0.950 . S
H1291 C1321 0.950 . S
C1292 H1274 0.951 . S
C1292 C1293 1.366 . S
C1292 C1294 1.388 . S
C1293 C1292 1.366 . S
C1293 C1297 1.385 . S
C1294 H1275 0.951 . S
C1294 C1292 1.388 . S
C1294 C1295 1.366 . S
C1295 C1294 1.366 . S
C1295 C1296 1.414 . S
C1295 C1298 1.499 . S
C1296 H1276 0.950 . S
C1296 C1295 1.414 . S
C1296 C1297 1.374 . S
C1297 H1277 0.950 . S
C1297 C1293 1.385 . S
C1297 C1296 1.374 . S
C1298 C1295 1.499 . S
C1298 C1299 1.373 . S
C1298 C1300 1.389 . S
C1299 H1278 0.950 . S
C1299 C1298 1.373 . S
C1299 C1315 1.377 . S
C1300 C1298 1.389 . S
C1300 C1301 1.524 . S
C1300 C1314 1.377 . S
C1301 C1300 1.524 . S
C1301 C1302 1.397 . S
C1301 C1306 1.363 . S
C1302 H1279 0.950 . S
C1302 C1301 1.397 . S
C1302 C1303 1.334 . S
C1303 H1280 0.950 . S
C1303 C1302 1.334 . S
C1303 C1304 1.287 . S
C1304 C1303 1.287 . S
C1304 C1305 1.524 . S
C1304 H1323 0.913 . S
C1305 H1281 0.950 . S
C1305 C1304 1.524 . S
C1305 C1306 1.415 . S
C1306 H1282 0.950 . S
C1306 C1301 1.363 . S
C1306 C1305 1.415 . S
C1307 H1283 0.951 . S
C1307 C1308 1.366 . S
C1307 C1309 1.388 . S
C1308 C1307 1.366 . S
C1308 C1312 1.385 . S
C1309 H1284 0.951 . S
C1309 C1307 1.388 . S
C1309 C1310 1.366 . S
C1310 C1309 1.366 . S
C1310 C1311 1.414 . S
C1310 C1313 1.499 . S
C1311 H1285 0.950 . S
C1311 C1310 1.414 . S
C1311 C1312 1.374 . S
C1312 H1286 0.950 . S
C1312 C1308 1.385 . S
C1312 C1311 1.374 . S
C1313 C1310 1.499 . S
C1313 C1314 1.373 . S
C1313 C1315 1.389 . S
C1314 H1287 0.950 . S
C1314 C1300 1.377 . S
C1314 C1313 1.373 . S
C1315 C1299 1.377 . S
C1315 C1313 1.389 . S
C1315 C1316 1.524 . S
C1316 C1315 1.524 . S
C1316 C1317 1.397 . S
C1316 C1321 1.363 . S
C1317 H1288 0.950 . S
C1317 C1316 1.397 . S
C1317 C1318 1.334 . S
C1318 H1289 0.950 . S
C1318 C1317 1.334 . S
C1318 C1319 1.287 . S
C1319 C1318 1.287 . S
C1319 C1320 1.524 . S
C1319 H1322 0.999 . S
C1320 H1290 0.950 . S
C1320 C1319 1.524 . S
C1320 C1321 1.415 . S
C1321 H1291 0.950 . S
C1321 C1316 1.363 . S
C1321 C1320 1.415 . S
H1322 C1319 0.999 . S
H1323 C1304 0.913 . S
H1324 C1342 0.951 . S
H1325 C1344 0.951 . S
H1326 C1346 0.950 . S
H1327 C1347 0.950 . S
H1328 C1349 0.950 . S
H1329 C1352 0.950 . S
H1330 C1353 0.950 . S
H1331 C1355 0.950 . S
H1332 C1356 0.950 . S
H1333 C1357 0.951 . S
H1334 C1359 0.951 . S
H1335 C1361 0.950 . S
H1336 C1362 0.950 . S
H1337 C1364 0.950 . S
H1338 C1367 0.950 . S
H1339 C1368 0.950 . S
H1340 C1370 0.950 . S
H1341 C1371 0.950 . S
C1342 H1324 0.951 . S
C1342 C1343 1.366 . S
C1342 C1344 1.388 . S
C1343 C1342 1.366 . S
C1343 C1347 1.385 . S
C1344 H1325 0.951 . S
C1344 C1342 1.388 . S
C1344 C1345 1.366 . S
C1345 C1344 1.366 . S
C1345 C1346 1.414 . S
C1345 C1348 1.499 . S
C1346 H1326 0.950 . S
C1346 C1345 1.414 . S
C1346 C1347 1.374 . S
C1347 H1327 0.950 . S
C1347 C1343 1.385 . S
C1347 C1346 1.374 . S
C1348 C1345 1.499 . S
C1348 C1349 1.373 . S
C1348 C1350 1.389 . S
C1349 H1328 0.950 . S
C1349 C1348 1.373 . S
C1349 C1365 1.377 . S
C1350 C1348 1.389 . S
C1350 C1351 1.524 . S
C1350 C1364 1.377 . S
C1351 C1350 1.524 . S
C1351 C1352 1.397 . S
C1351 C1356 1.363 . S
C1352 H1329 0.950 . S
C1352 C1351 1.397 . S
C1352 C1353 1.334 . S
C1353 H1330 0.950 . S
C1353 C1352 1.334 . S
C1353 C1354 1.287 . S
C1354 C1353 1.287 . S
C1354 C1355 1.524 . S
C1354 H1373 0.913 . S
C1355 H1331 0.950 . S
C1355 C1354 1.524 . S
C1355 C1356 1.415 . S
C1356 H1332 0.950 . S
C1356 C1351 1.363 . S
C1356 C1355 1.415 . S
C1357 H1333 0.951 . S
C1357 C1358 1.366 . S
C1357 C1359 1.388 . S
C1358 C1357 1.366 . S
C1358 C1362 1.385 . S
C1359 H1334 0.951 . S
C1359 C1357 1.388 . S
C1359 C1360 1.366 . S
C1360 C1359 1.366 . S
C1360 C1361 1.414 . S
C1360 C1363 1.499 . S
C1361 H1335 0.950 . S
C1361 C1360 1.414 . S
C1361 C1362 1.374 . S
C1362 H1336 0.950 . S
C1362 C1358 1.385 . S
C1362 C1361 1.374 . S
C1363 C1360 1.499 . S
C1363 C1364 1.373 . S
C1363 C1365 1.389 . S
C1364 H1337 0.950 . S
C1364 C1350 1.377 . S
C1364 C1363 1.373 . S
C1365 C1349 1.377 . S
C1365 C1363 1.389 . S
C1365 C1366 1.524 . S
C1366 C1365 1.524 . S
C1366 C1367 1.397 . S
C1366 C1371 1.363 . S
C1367 H1338 0.950 . S
C1367 C1366 1.397 . S
C1367 C1368 1.334 . S
C1368 H1339 0.950 . S
C1368 C1367 1.334 . S
C1368 C1369 1.287 . S
C1369 C1368 1.287 . S
C1369 C1370 1.524 . S
C1369 H1372 0.999 . S
C1370 H1340 0.950 . S
C1370 C1369 1.524 . S
C1370 C1371 1.415 . S
C1371 H1341 0.950 . S
C1371 C1366 1.363 . S
C1371 C1370 1.415 . S
H1372 C1369 0.999 . S
H1373 C1354 0.913 . S
H1374 C1392 0.951 . S
H1375 C1394 0.951 . S
H1376 C1396 0.950 . S
H1377 C1397 0.950 . S
H1378 C1399 0.950 . S
H1379 C1402 0.950 . S
H1380 C1403 0.950 . S
H1381 C1405 0.950 . S
H1382 C1406 0.950 . S
H1383 C1407 0.951 . S
H1384 C1409 0.951 . S
H1385 C1411 0.950 . S
H1386 C1412 0.950 . S
H1387 C1414 0.950 . S
H1388 C1417 0.950 . S
H1389 C1418 0.950 . S
H1390 C1420 0.950 . S
H1391 C1421 0.950 . S
C1392 H1374 0.951 . S
C1392 C1393 1.366 . S
C1392 C1394 1.388 . S
C1393 C1392 1.366 . S
C1393 C1397 1.385 . S
C1394 H1375 0.951 . S
C1394 C1392 1.388 . S
C1394 C1395 1.366 . S
C1395 C1394 1.366 . S
C1395 C1396 1.414 . S
C1395 C1398 1.499 . S
C1396 H1376 0.950 . S
C1396 C1395 1.414 . S
C1396 C1397 1.374 . S
C1397 H1377 0.950 . S
C1397 C1393 1.385 . S
C1397 C1396 1.374 . S
C1398 C1395 1.499 . S
C1398 C1399 1.373 . S
C1398 C1400 1.389 . S
C1399 H1378 0.950 . S
C1399 C1398 1.373 . S
C1399 C1415 1.377 . S
C1400 C1398 1.389 . S
C1400 C1401 1.524 . S
C1400 C1414 1.377 . S
C1401 C1400 1.524 . S
C1401 C1402 1.397 . S
C1401 C1406 1.363 . S
C1402 H1379 0.950 . S
C1402 C1401 1.397 . S
C1402 C1403 1.334 . S
C1403 H1380 0.950 . S
C1403 C1402 1.334 . S
C1403 C1404 1.287 . S
C1404 C1403 1.287 . S
C1404 C1405 1.524 . S
C1404 H1423 0.913 . S
C1405 H1381 0.950 . S
C1405 C1404 1.524 . S
C1405 C1406 1.415 . S
C1406 H1382 0.950 . S
C1406 C1401 1.363 . S
C1406 C1405 1.415 . S
C1407 H1383 0.951 . S
C1407 C1408 1.366 . S
C1407 C1409 1.388 . S
C1408 C1407 1.366 . S
C1408 C1412 1.385 . S
C1409 H1384 0.951 . S
C1409 C1407 1.388 . S
C1409 C1410 1.366 . S
C1410 C1409 1.366 . S
C1410 C1411 1.414 . S
C1410 C1413 1.499 . S
C1411 H1385 0.950 . S
C1411 C1410 1.414 . S
C1411 C1412 1.374 . S
C1412 H1386 0.950 . S
C1412 C1408 1.385 . S
C1412 C1411 1.374 . S
C1413 C1410 1.499 . S
C1413 C1414 1.373 . S
C1413 C1415 1.389 . S
C1414 H1387 0.950 . S
C1414 C1400 1.377 . S
C1414 C1413 1.373 . S
C1415 C1399 1.377 . S
C1415 C1413 1.389 . S
C1415 C1416 1.524 . S
C1416 C1415 1.524 . S
C1416 C1417 1.397 . S
C1416 C1421 1.363 . S
C1417 H1388 0.950 . S
C1417 C1416 1.397 . S
C1417 C1418 1.334 . S
C1418 H1389 0.950 . S
C1418 C1417 1.334 . S
C1418 C1419 1.287 . S
C1419 C1418 1.287 . S
C1419 C1420 1.524 . S
C1419 H1422 0.999 . S
C1420 H1390 0.950 . S
C1420 C1419 1.524 . S
C1420 C1421 1.415 . S
C1421 H1391 0.950 . S
C1421 C1416 1.363 . S
C1421 C1420 1.415 . S
H1422 C1419 0.999 . S
H1423 C1404 0.913 . S
H1424 C1442 0.951 . S
H1425 C1444 0.951 . S
H1426 C1446 0.950 . S
H1427 C1447 0.950 . S
H1428 C1449 0.950 . S
H1429 C1452 0.950 . S
H1430 C1453 0.950 . S
H1431 C1455 0.950 . S
H1432 C1456 0.950 . S
H1433 C1457 0.951 . S
H1434 C1459 0.951 . S
H1435 C1461 0.950 . S
H1436 C1462 0.950 . S
H1437 C1464 0.950 . S
H1438 C1467 0.950 . S
H1439 C1468 0.950 . S
H1440 C1470 0.950 . S
H1441 C1471 0.950 . S
C1442 H1424 0.951 . S
C1442 C1443 1.366 . S
C1442 C1444 1.388 . S
C1443 C1442 1.366 . S
C1443 C1447 1.385 . S
C1444 H1425 0.951 . S
C1444 C1442 1.388 . S
C1444 C1445 1.366 . S
C1445 C1444 1.366 . S
C1445 C1446 1.414 . S
C1445 C1448 1.499 . S
C1446 H1426 0.950 . S
C1446 C1445 1.414 . S
C1446 C1447 1.374 . S
C1447 H1427 0.950 . S
C1447 C1443 1.385 . S
C1447 C1446 1.374 . S
C1448 C1445 1.499 . S
C1448 C1449 1.373 . S
C1448 C1450 1.389 . S
C1449 H1428 0.950 . S
C1449 C1448 1.373 . S
C1449 C1465 1.377 . S
C1450 C1448 1.389 . S
C1450 C1451 1.524 . S
C1450 C1464 1.377 . S
C1451 C1450 1.524 . S
C1451 C1452 1.397 . S
C1451 C1456 1.363 . S
C1452 H1429 0.950 . S
C1452 C1451 1.397 . S
C1452 C1453 1.334 . S
C1453 H1430 0.950 . S
C1453 C1452 1.334 . S
C1453 C1454 1.287 . S
C1454 C1453 1.287 . S
C1454 C1455 1.524 . S
C1454 H1473 0.913 . S
C1455 H1431 0.950 . S
C1455 C1454 1.524 . S
C1455 C1456 1.415 . S
C1456 H1432 0.950 . S
C1456 C1451 1.363 . S
C1456 C1455 1.415 . S
C1457 H1433 0.951 . S
C1457 C1458 1.366 . S
C1457 C1459 1.388 . S
C1458 C1457 1.366 . S
C1458 C1462 1.385 . S
C1459 H1434 0.951 . S
C1459 C1457 1.388 . S
C1459 C1460 1.366 . S
C1460 C1459 1.366 . S
C1460 C1461 1.414 . S
C1460 C1463 1.499 1_556 S
C1461 H1435 0.950 . S
C1461 C1460 1.414 . S
C1461 C1462 1.374 . S
C1462 H1436 0.950 . S
C1462 C1458 1.385 . S
C1462 C1461 1.374 . S
C1463 C1460 1.499 1_554 S
C1463 C1464 1.373 . S
C1463 C1465 1.389 . S
C1464 H1437 0.950 . S
C1464 C1450 1.377 . S
C1464 C1463 1.373 . S
C1465 C1449 1.377 . S
C1465 C1463 1.389 . S
C1465 C1466 1.524 1_554 S
C1466 C1465 1.524 1_556 S
C1466 C1467 1.397 . S
C1466 C1471 1.363 . S
C1467 H1438 0.950 . S
C1467 C1466 1.397 . S
C1467 C1468 1.334 . S
C1468 H1439 0.950 . S
C1468 C1467 1.334 . S
C1468 C1469 1.287 . S
C1469 C1468 1.287 . S
C1469 C1470 1.524 . S
C1469 H1472 0.999 . S
C1470 H1440 0.950 . S
C1470 C1469 1.524 . S
C1470 C1471 1.415 . S
C1471 H1441 0.950 . S
C1471 C1466 1.363 . S
C1471 C1470 1.415 . S
H1472 C1469 0.999 . S
H1473 C1454 0.913 . S
H1474 C1492 0.951 . S
H1475 C1494 0.951 . S
H1476 C1496 0.950 . S
H1477 C1497 0.950 . S
H1478 C1499 0.950 . S
H1479 C1502 0.950 . S
H1480 C1503 0.950 . S
H1481 C1505 0.950 . S
H1482 C1506 0.950 . S
H1483 C1507 0.951 . S
H1484 C1509 0.951 . S
H1485 C1511 0.950 . S
H1486 C1512 0.950 . S
H1487 C1514 0.950 . S
H1488 C1517 0.950 . S
H1489 C1518 0.950 . S
H1490 C1520 0.950 . S
H1491 C1521 0.950 . S
C1492 H1474 0.951 . S
C1492 C1493 1.366 . S
C1492 C1494 1.388 . S
C1493 C1492 1.366 . S
C1493 C1497 1.385 . S
C1494 H1475 0.951 . S
C1494 C1492 1.388 . S
C1494 C1495 1.366 . S
C1495 C1494 1.366 . S
C1495 C1496 1.414 . S
C1495 C1498 1.499 . S
C1496 H1476 0.950 . S
C1496 C1495 1.414 . S
C1496 C1497 1.374 . S
C1497 H1477 0.950 . S
C1497 C1493 1.385 . S
C1497 C1496 1.374 . S
C1498 C1495 1.499 . S
C1498 C1499 1.373 . S
C1498 C1500 1.389 . S
C1499 H1478 0.950 . S
C1499 C1498 1.373 . S
C1499 C1515 1.377 . S
C1500 C1498 1.389 . S
C1500 C1501 1.524 . S
C1500 C1514 1.377 . S
C1501 C1500 1.524 . S
C1501 C1502 1.397 . S
C1501 C1506 1.363 . S
C1502 H1479 0.950 . S
C1502 C1501 1.397 . S
C1502 C1503 1.334 . S
C1503 H1480 0.950 . S
C1503 C1502 1.334 . S
C1503 C1504 1.287 . S
C1504 C1503 1.287 . S
C1504 C1505 1.524 . S
C1504 H1523 0.913 . S
C1505 H1481 0.950 . S
C1505 C1504 1.524 . S
C1505 C1506 1.415 . S
C1506 H1482 0.950 . S
C1506 C1501 1.363 . S
C1506 C1505 1.415 . S
C1507 H1483 0.951 . S
C1507 C1508 1.366 . S
C1507 C1509 1.388 . S
C1508 C1507 1.366 . S
C1508 C1512 1.385 . S
C1509 H1484 0.951 . S
C1509 C1507 1.388 . S
C1509 C1510 1.366 . S
C1510 C1509 1.366 . S
C1510 C1511 1.414 . S
C1510 C1513 1.499 . S
C1511 H1485 0.950 . S
C1511 C1510 1.414 . S
C1511 C1512 1.374 . S
C1512 H1486 0.950 . S
C1512 C1508 1.385 . S
C1512 C1511 1.374 . S
C1513 C1510 1.499 . S
C1513 C1514 1.373 . S
C1513 C1515 1.389 . S
C1514 H1487 0.950 . S
C1514 C1500 1.377 . S
C1514 C1513 1.373 . S
C1515 C1499 1.377 . S
C1515 C1513 1.389 . S
C1515 C1516 1.524 . S
C1516 C1515 1.524 . S
C1516 C1517 1.397 . S
C1516 C1521 1.363 . S
C1517 H1488 0.950 . S
C1517 C1516 1.397 . S
C1517 C1518 1.334 . S
C1518 H1489 0.950 . S
C1518 C1517 1.334 . S
C1518 C1519 1.287 . S
C1519 C1518 1.287 . S
C1519 C1520 1.524 . S
C1519 H1522 0.999 . S
C1520 H1490 0.950 . S
C1520 C1519 1.524 . S
C1520 C1521 1.415 . S
C1521 H1491 0.950 . S
C1521 C1516 1.363 . S
C1521 C1520 1.415 . S
H1522 C1519 0.999 . S
H1523 C1504 0.913 . S
C358 C291 1.596 . S
C343 C8 1.550 . S
C393 C26 1.581 . S
C408 C111 1.630 . S
C443 C50 1.554 . S
C458 C158 1.564 . S
C493 C68 1.504 . S
C508 C194 1.508 . S
C558 C219 1.577 . S
C543 C80 1.529 . S
C593 C104 1.541 . S
C608 C255 1.595 . S
C643 C32 1.575 . S
C658 C147 1.630 . S
C693 C44 1.530 . S
C708 C183 1.575 . S
C743 C62 1.493 . S
C758 C230 1.492 . S
C808 C266 1.532 . S
C793 C86 1.524 1_554 S
C858 C302 1.535 . S
C843 C98 1.534 . S
C908 C122 1.553 . S
C893 C14 1.547 . S
C943 C7 1.463 . S
C958 C146 1.503 . S
C993 C25 1.480 . S
C1008 C182 1.520 . S
C1058 C220 1.513 . S
C1043 C52 1.471 . S
C1093 C70 1.474 . S
C1108 C256 1.518 . S
C1158 C292 1.488 . S
C1143 C79 1.442 . S
C1208 C112 1.472 . S
C1193 C106 1.428 . S
C1258 C290 1.495 . S
C1243 C34 1.459 . S
C1293 C43 1.458 . S
C1308 C110 1.497 . S
C1358 C148 1.498 . S
C1343 C61 1.454 . S
C1393 C88 1.469 . S
C1408 C184 1.511 . S
C1443 C97 1.504 . S
C1458 C218 1.542 . S
C1493 C16 1.490 . S
C1508 C254 1.526 . S
