# Generated by pormake.
# Topology tbo, (3,4)-cn, num edge types: 1
# Building blocks:
#     Node 0, Type 0, BuildingBlock: OLANEW_clean_sbu_2, # of connection points: 3
#     Node 1, Type 0, BuildingBlock: OLANEW_clean_sbu_2, # of connection points: 3
#     Node 2, Type 0, BuildingBlock: OLANEW_clean_sbu_2, # of connection points: 3
#     Node 3, Type 0, BuildingBlock: OLANEW_clean_sbu_2, # of connection points: 3
#     Node 4, Type 0, BuildingBlock: OLANEW_clean_sbu_2, # of connection points: 3
#     Node 5, Type 0, BuildingBlock: OLANEW_clean_sbu_2, # of connection points: 3
#     Node 6, Type 0, BuildingBlock: OLANEW_clean_sbu_2, # of connection points: 3
#     Node 7, Type 0, BuildingBlock: OLANEW_clean_sbu_2, # of connection points: 3
#     Node 8, Type 0, BuildingBlock: OLANEW_clean_sbu_2, # of connection points: 3
#     Node 9, Type 0, BuildingBlock: OLANEW_clean_sbu_2, # of connection points: 3
#     Node 10, Type 0, BuildingBlock: OLANEW_clean_sbu_2, # of connection points: 3
#     Node 11, Type 0, BuildingBlock: OLANEW_clean_sbu_2, # of connection points: 3
#     Node 12, Type 0, BuildingBlock: OLANEW_clean_sbu_2, # of connection points: 3
#     Node 13, Type 0, BuildingBlock: OLANEW_clean_sbu_2, # of connection points: 3
#     Node 14, Type 0, BuildingBlock: OLANEW_clean_sbu_2, # of connection points: 3
#     Node 15, Type 0, BuildingBlock: OLANEW_clean_sbu_2, # of connection points: 3
#     Node 16, Type 0, BuildingBlock: OLANEW_clean_sbu_2, # of connection points: 3
#     Node 17, Type 0, BuildingBlock: OLANEW_clean_sbu_2, # of connection points: 3
#     Node 18, Type 0, BuildingBlock: OLANEW_clean_sbu_2, # of connection points: 3
#     Node 19, Type 0, BuildingBlock: OLANEW_clean_sbu_2, # of connection points: 3
#     Node 20, Type 0, BuildingBlock: OLANEW_clean_sbu_2, # of connection points: 3
#     Node 21, Type 0, BuildingBlock: OLANEW_clean_sbu_2, # of connection points: 3
#     Node 22, Type 0, BuildingBlock: OLANEW_clean_sbu_2, # of connection points: 3
#     Node 23, Type 0, BuildingBlock: OLANEW_clean_sbu_2, # of connection points: 3
#     Node 24, Type 0, BuildingBlock: OLANEW_clean_sbu_2, # of connection points: 3
#     Node 25, Type 0, BuildingBlock: OLANEW_clean_sbu_2, # of connection points: 3
#     Node 26, Type 0, BuildingBlock: OLANEW_clean_sbu_2, # of connection points: 3
#     Node 27, Type 0, BuildingBlock: OLANEW_clean_sbu_2, # of connection points: 3
#     Node 28, Type 0, BuildingBlock: OLANEW_clean_sbu_2, # of connection points: 3
#     Node 29, Type 0, BuildingBlock: OLANEW_clean_sbu_2, # of connection points: 3
#     Node 30, Type 0, BuildingBlock: OLANEW_clean_sbu_2, # of connection points: 3
#     Node 31, Type 0, BuildingBlock: OLANEW_clean_sbu_2, # of connection points: 3
#     Node 32, Type 1, BuildingBlock: AZAVOO_clean_linker_0, # of connection points: 4
#     Node 33, Type 1, BuildingBlock: AZAVOO_clean_linker_0, # of connection points: 4
#     Node 34, Type 1, BuildingBlock: AZAVOO_clean_linker_0, # of connection points: 4
#     Node 35, Type 1, BuildingBlock: AZAVOO_clean_linker_0, # of connection points: 4
#     Node 36, Type 1, BuildingBlock: AZAVOO_clean_linker_0, # of connection points: 4
#     Node 37, Type 1, BuildingBlock: AZAVOO_clean_linker_0, # of connection points: 4
#     Node 38, Type 1, BuildingBlock: AZAVOO_clean_linker_0, # of connection points: 4
#     Node 39, Type 1, BuildingBlock: AZAVOO_clean_linker_0, # of connection points: 4
#     Node 40, Type 1, BuildingBlock: AZAVOO_clean_linker_0, # of connection points: 4
#     Node 41, Type 1, BuildingBlock: AZAVOO_clean_linker_0, # of connection points: 4
#     Node 42, Type 1, BuildingBlock: AZAVOO_clean_linker_0, # of connection points: 4
#     Node 43, Type 1, BuildingBlock: AZAVOO_clean_linker_0, # of connection points: 4
#     Node 44, Type 1, BuildingBlock: AZAVOO_clean_linker_0, # of connection points: 4
#     Node 45, Type 1, BuildingBlock: AZAVOO_clean_linker_0, # of connection points: 4
#     Node 46, Type 1, BuildingBlock: AZAVOO_clean_linker_0, # of connection points: 4
#     Node 47, Type 1, BuildingBlock: AZAVOO_clean_linker_0, # of connection points: 4
#     Node 48, Type 1, BuildingBlock: AZAVOO_clean_linker_0, # of connection points: 4
#     Node 49, Type 1, BuildingBlock: AZAVOO_clean_linker_0, # of connection points: 4
#     Node 50, Type 1, BuildingBlock: AZAVOO_clean_linker_0, # of connection points: 4
#     Node 51, Type 1, BuildingBlock: AZAVOO_clean_linker_0, # of connection points: 4
#     Node 52, Type 1, BuildingBlock: AZAVOO_clean_linker_0, # of connection points: 4
#     Node 53, Type 1, BuildingBlock: AZAVOO_clean_linker_0, # of connection points: 4
#     Node 54, Type 1, BuildingBlock: AZAVOO_clean_linker_0, # of connection points: 4
#     Node 55, Type 1, BuildingBlock: AZAVOO_clean_linker_0, # of connection points: 4
#     Edge 56, Type (0, 1), BuildingBlock: CIFDUS_clean_linker_0, # of connection points: 2
#     Edge 57, Type (0, 1), BuildingBlock: CIFDUS_clean_linker_0, # of connection points: 2
#     Edge 58, Type (0, 1), BuildingBlock: CIFDUS_clean_linker_0, # of connection points: 2
#     Edge 59, Type (0, 1), BuildingBlock: CIFDUS_clean_linker_0, # of connection points: 2
#     Edge 60, Type (0, 1), BuildingBlock: CIFDUS_clean_linker_0, # of connection points: 2
#     Edge 61, Type (0, 1), BuildingBlock: CIFDUS_clean_linker_0, # of connection points: 2
#     Edge 62, Type (0, 1), BuildingBlock: CIFDUS_clean_linker_0, # of connection points: 2
#     Edge 63, Type (0, 1), BuildingBlock: CIFDUS_clean_linker_0, # of connection points: 2
#     Edge 64, Type (0, 1), BuildingBlock: CIFDUS_clean_linker_0, # of connection points: 2
#     Edge 65, Type (0, 1), BuildingBlock: CIFDUS_clean_linker_0, # of connection points: 2
#     Edge 66, Type (0, 1), BuildingBlock: CIFDUS_clean_linker_0, # of connection points: 2
#     Edge 67, Type (0, 1), BuildingBlock: CIFDUS_clean_linker_0, # of connection points: 2
#     Edge 68, Type (0, 1), BuildingBlock: CIFDUS_clean_linker_0, # of connection points: 2
#     Edge 69, Type (0, 1), BuildingBlock: CIFDUS_clean_linker_0, # of connection points: 2
#     Edge 70, Type (0, 1), BuildingBlock: CIFDUS_clean_linker_0, # of connection points: 2
#     Edge 71, Type (0, 1), BuildingBlock: CIFDUS_clean_linker_0, # of connection points: 2
#     Edge 72, Type (0, 1), BuildingBlock: CIFDUS_clean_linker_0, # of connection points: 2
#     Edge 73, Type (0, 1), BuildingBlock: CIFDUS_clean_linker_0, # of connection points: 2
#     Edge 74, Type (0, 1), BuildingBlock: CIFDUS_clean_linker_0, # of connection points: 2
#     Edge 75, Type (0, 1), BuildingBlock: CIFDUS_clean_linker_0, # of connection points: 2
#     Edge 76, Type (0, 1), BuildingBlock: CIFDUS_clean_linker_0, # of connection points: 2
#     Edge 77, Type (0, 1), BuildingBlock: CIFDUS_clean_linker_0, # of connection points: 2
#     Edge 78, Type (0, 1), BuildingBlock: CIFDUS_clean_linker_0, # of connection points: 2
#     Edge 79, Type (0, 1), BuildingBlock: CIFDUS_clean_linker_0, # of connection points: 2
#     Edge 80, Type (0, 1), BuildingBlock: CIFDUS_clean_linker_0, # of connection points: 2
#     Edge 81, Type (0, 1), BuildingBlock: CIFDUS_clean_linker_0, # of connection points: 2
#     Edge 82, Type (0, 1), BuildingBlock: CIFDUS_clean_linker_0, # of connection points: 2
#     Edge 83, Type (0, 1), BuildingBlock: CIFDUS_clean_linker_0, # of connection points: 2
#     Edge 84, Type (0, 1), BuildingBlock: CIFDUS_clean_linker_0, # of connection points: 2
#     Edge 85, Type (0, 1), BuildingBlock: CIFDUS_clean_linker_0, # of connection points: 2
#     Edge 86, Type (0, 1), BuildingBlock: CIFDUS_clean_linker_0, # of connection points: 2
#     Edge 87, Type (0, 1), BuildingBlock: CIFDUS_clean_linker_0, # of connection points: 2
#     Edge 88, Type (0, 1), BuildingBlock: CIFDUS_clean_linker_0, # of connection points: 2
#     Edge 89, Type (0, 1), BuildingBlock: CIFDUS_clean_linker_0, # of connection points: 2
#     Edge 90, Type (0, 1), BuildingBlock: CIFDUS_clean_linker_0, # of connection points: 2
#     Edge 91, Type (0, 1), BuildingBlock: CIFDUS_clean_linker_0, # of connection points: 2
#     Edge 92, Type (0, 1), BuildingBlock: CIFDUS_clean_linker_0, # of connection points: 2
#     Edge 93, Type (0, 1), BuildingBlock: CIFDUS_clean_linker_0, # of connection points: 2
#     Edge 94, Type (0, 1), BuildingBlock: CIFDUS_clean_linker_0, # of connection points: 2
#     Edge 95, Type (0, 1), BuildingBlock: CIFDUS_clean_linker_0, # of connection points: 2
#     Edge 96, Type (0, 1), BuildingBlock: CIFDUS_clean_linker_0, # of connection points: 2
#     Edge 97, Type (0, 1), BuildingBlock: CIFDUS_clean_linker_0, # of connection points: 2
#     Edge 98, Type (0, 1), BuildingBlock: CIFDUS_clean_linker_0, # of connection points: 2
#     Edge 99, Type (0, 1), BuildingBlock: CIFDUS_clean_linker_0, # of connection points: 2
#     Edge 100, Type (0, 1), BuildingBlock: CIFDUS_clean_linker_0, # of connection points: 2
#     Edge 101, Type (0, 1), BuildingBlock: CIFDUS_clean_linker_0, # of connection points: 2
#     Edge 102, Type (0, 1), BuildingBlock: CIFDUS_clean_linker_0, # of connection points: 2
#     Edge 103, Type (0, 1), BuildingBlock: CIFDUS_clean_linker_0, # of connection points: 2
#     Edge 104, Type (0, 1), BuildingBlock: CIFDUS_clean_linker_0, # of connection points: 2
#     Edge 105, Type (0, 1), BuildingBlock: CIFDUS_clean_linker_0, # of connection points: 2
#     Edge 106, Type (0, 1), BuildingBlock: CIFDUS_clean_linker_0, # of connection points: 2
#     Edge 107, Type (0, 1), BuildingBlock: CIFDUS_clean_linker_0, # of connection points: 2
#     Edge 108, Type (0, 1), BuildingBlock: CIFDUS_clean_linker_0, # of connection points: 2
#     Edge 109, Type (0, 1), BuildingBlock: CIFDUS_clean_linker_0, # of connection points: 2
#     Edge 110, Type (0, 1), BuildingBlock: CIFDUS_clean_linker_0, # of connection points: 2
#     Edge 111, Type (0, 1), BuildingBlock: CIFDUS_clean_linker_0, # of connection points: 2
#     Edge 112, Type (0, 1), BuildingBlock: CIFDUS_clean_linker_0, # of connection points: 2
#     Edge 113, Type (0, 1), BuildingBlock: CIFDUS_clean_linker_0, # of connection points: 2
#     Edge 114, Type (0, 1), BuildingBlock: CIFDUS_clean_linker_0, # of connection points: 2
#     Edge 115, Type (0, 1), BuildingBlock: CIFDUS_clean_linker_0, # of connection points: 2
#     Edge 116, Type (0, 1), BuildingBlock: CIFDUS_clean_linker_0, # of connection points: 2
#     Edge 117, Type (0, 1), BuildingBlock: CIFDUS_clean_linker_0, # of connection points: 2
#     Edge 118, Type (0, 1), BuildingBlock: CIFDUS_clean_linker_0, # of connection points: 2
#     Edge 119, Type (0, 1), BuildingBlock: CIFDUS_clean_linker_0, # of connection points: 2
#     Edge 120, Type (0, 1), BuildingBlock: CIFDUS_clean_linker_0, # of connection points: 2
#     Edge 121, Type (0, 1), BuildingBlock: CIFDUS_clean_linker_0, # of connection points: 2
#     Edge 122, Type (0, 1), BuildingBlock: CIFDUS_clean_linker_0, # of connection points: 2
#     Edge 123, Type (0, 1), BuildingBlock: CIFDUS_clean_linker_0, # of connection points: 2
#     Edge 124, Type (0, 1), BuildingBlock: CIFDUS_clean_linker_0, # of connection points: 2
#     Edge 125, Type (0, 1), BuildingBlock: CIFDUS_clean_linker_0, # of connection points: 2
#     Edge 126, Type (0, 1), BuildingBlock: CIFDUS_clean_linker_0, # of connection points: 2
#     Edge 127, Type (0, 1), BuildingBlock: CIFDUS_clean_linker_0, # of connection points: 2
#     Edge 128, Type (0, 1), BuildingBlock: CIFDUS_clean_linker_0, # of connection points: 2
#     Edge 129, Type (0, 1), BuildingBlock: CIFDUS_clean_linker_0, # of connection points: 2
#     Edge 130, Type (0, 1), BuildingBlock: CIFDUS_clean_linker_0, # of connection points: 2
#     Edge 131, Type (0, 1), BuildingBlock: CIFDUS_clean_linker_0, # of connection points: 2
#     Edge 132, Type (0, 1), BuildingBlock: CIFDUS_clean_linker_0, # of connection points: 2
#     Edge 133, Type (0, 1), BuildingBlock: CIFDUS_clean_linker_0, # of connection points: 2
#     Edge 134, Type (0, 1), BuildingBlock: CIFDUS_clean_linker_0, # of connection points: 2
#     Edge 135, Type (0, 1), BuildingBlock: CIFDUS_clean_linker_0, # of connection points: 2
#     Edge 136, Type (0, 1), BuildingBlock: CIFDUS_clean_linker_0, # of connection points: 2
#     Edge 137, Type (0, 1), BuildingBlock: CIFDUS_clean_linker_0, # of connection points: 2
#     Edge 138, Type (0, 1), BuildingBlock: CIFDUS_clean_linker_0, # of connection points: 2
#     Edge 139, Type (0, 1), BuildingBlock: CIFDUS_clean_linker_0, # of connection points: 2
#     Edge 140, Type (0, 1), BuildingBlock: CIFDUS_clean_linker_0, # of connection points: 2
#     Edge 141, Type (0, 1), BuildingBlock: CIFDUS_clean_linker_0, # of connection points: 2
#     Edge 142, Type (0, 1), BuildingBlock: CIFDUS_clean_linker_0, # of connection points: 2
#     Edge 143, Type (0, 1), BuildingBlock: CIFDUS_clean_linker_0, # of connection points: 2
#     Edge 144, Type (0, 1), BuildingBlock: CIFDUS_clean_linker_0, # of connection points: 2
#     Edge 145, Type (0, 1), BuildingBlock: CIFDUS_clean_linker_0, # of connection points: 2
#     Edge 146, Type (0, 1), BuildingBlock: CIFDUS_clean_linker_0, # of connection points: 2
#     Edge 147, Type (0, 1), BuildingBlock: CIFDUS_clean_linker_0, # of connection points: 2
#     Edge 148, Type (0, 1), BuildingBlock: CIFDUS_clean_linker_0, # of connection points: 2
#     Edge 149, Type (0, 1), BuildingBlock: CIFDUS_clean_linker_0, # of connection points: 2
#     Edge 150, Type (0, 1), BuildingBlock: CIFDUS_clean_linker_0, # of connection points: 2
#     Edge 151, Type (0, 1), BuildingBlock: CIFDUS_clean_linker_0, # of connection points: 2
# Relax obj value: 0.078
# Max RMSD: 0.234
# Mean RMSD: 0.150
data_MOF--net-tbo--node1-OLANEW_clean_sbu_2--node2-AZAVOO_clean_linker_0--edge1-CIFDUS_clean_linker_0
_symmetry_space_group_name_H-M    P1
_symmetry_Int_Tables_number       1
_symmetry_cell_setting            triclinic
loop_
_symmetry_equiv_pos_as_xyz
'x, y, z'
_cell_length_a     77.837196
_cell_length_b     79.289743
_cell_length_c     76.4027
_cell_angle_alpha  96.389622
_cell_angle_beta   87.730302
_cell_angle_gamma 96.088788
loop_
_atom_site_label
_atom_site_type_symbol
_atom_site_fract_x
_atom_site_fract_y
_atom_site_fract_z
_atom_type_partial_charge
O0 O 0.21054 0.17547 0.21738 0.0
Cd1 Cd 0.19291 0.16584 0.24243 0.0
O2 O 0.21111 0.20217 0.22909 0.0
Cd3 Cd 0.19018 0.19746 0.24837 0.0
O4 O 0.16405 0.20275 0.25723 0.0
C5 C 0.15845 0.21473 0.25004 0.0
O6 O 0.16859 0.22251 0.23861 0.0
C7 C 0.2161 0.19113 0.21713 0.0
C8 C 0.20333 0.13705 0.25548 0.0
O9 O 0.19129 0.13568 0.24428 0.0
O10 O 0.21065 0.152 0.26033 0.0
O11 O 0.88064 0.19367 0.18272 0.0
Cd12 Cd 0.86063 0.173 0.16571 0.0
O13 O 0.90206 0.19167 0.16311 0.0
Cd14 Cd 0.88857 0.16867 0.14953 0.0
O15 O 0.87428 0.14416 0.15359 0.0
C16 C 0.88027 0.1366 0.16546 0.0
O17 O 0.89487 0.14319 0.17267 0.0
C18 C 0.89584 0.19873 0.17742 0.0
C19 C 0.84489 0.18901 0.14092 0.0
O20 O 0.83736 0.18663 0.1558 0.0
O21 O 0.85975 0.1836 0.13769 0.0
O22 O 0.89524 0.85479 0.1548 0.0
Cd23 Cd 0.91171 0.87208 0.17825 0.0
O24 O 0.88895 0.87776 0.14376 0.0
Cd25 Cd 0.89667 0.89484 0.16706 0.0
O26 O 0.88343 0.90992 0.18797 0.0
C27 C 0.86981 0.91513 0.18278 0.0
O28 O 0.86591 0.91161 0.1661 0.0
C29 C 0.88846 0.86161 0.14281 0.0
C30 C 0.93654 0.85499 0.19237 0.0
O31 O 0.92115 0.85485 0.19904 0.0
O32 O 0.94015 0.86309 0.17885 0.0
O33 O 0.18677 0.93401 0.15128 0.0
Cd34 Cd 0.18318 0.93096 0.11951 0.0
O35 O 0.1784 0.90683 0.15253 0.0
Cd36 Cd 0.171 0.88495 0.16727 0.0
O37 O 0.15787 0.86571 0.18286 0.0
C38 C 0.14352 0.8689 0.19035 0.0
O39 O 0.13756 0.88348 0.18849 0.0
C40 C 0.18396 0.92133 0.16018 0.0
C41 C 0.20601 0.90882 0.10347 0.0
O42 O 0.21082 0.92474 0.10714 0.0
O43 O 0.19031 0.90342 0.10715 0.0
O44 O 0.23102 0.92166 0.87971 0.0
Cd45 Cd 0.2145 0.89667 0.89038 0.0
O46 O 0.2096 0.93766 0.88522 0.0
Cd47 Cd 0.19102 0.91721 0.89316 0.0
O48 O 0.16683 0.90133 0.88766 0.0
C49 C 0.16681 0.88623 0.88009 0.0
O50 O 0.1816 0.87975 0.87679 0.0
C51 C 0.225 0.93596 0.87965 0.0
C52 C 0.23307 0.87959 0.91208 0.0
O53 O 0.23419 0.87655 0.89527 0.0
O54 O 0.2233 0.89087 0.91865 0.0
O55 O 0.18869 0.15942 0.92013 0.0
Cd56 Cd 0.17415 0.14435 0.89431 0.0
O57 O 0.16926 0.15049 0.93962 0.0
Cd58 Cd 0.15103 0.14127 0.91897 0.0
O59 O 0.1321 0.14975 0.90253 0.0
C60 C 0.13389 0.16576 0.90167 0.0
O61 O 0.1467 0.17501 0.91 0.0
C62 C 0.18373 0.15863 0.9361 0.0
C63 C 0.19778 0.12638 0.87337 0.0
O64 O 0.19598 0.14195 0.87149 0.0
O65 O 0.18818 0.11917 0.885 0.0
O66 O 0.81678 0.21224 0.85075 0.0
Cd67 Cd 0.8267 0.19719 0.82322 0.0
O68 O 0.81735 0.18932 0.86447 0.0
Cd69 Cd 0.82237 0.17157 0.84146 0.0
O70 O 0.81555 0.14627 0.82783 0.0
C71 C 0.80119 0.13905 0.83304 0.0
O72 O 0.79212 0.14735 0.84537 0.0
C73 C 0.81499 0.20497 0.86483 0.0
C74 C 0.86245 0.20408 0.82034 0.0
O75 O 0.85245 0.21284 0.81296 0.0
O76 O 0.85553 0.19183 0.8287 0.0
O77 O 0.87004 0.89507 0.86507 0.0
Cd78 Cd 0.84978 0.91099 0.884 0.0
O79 O 0.86816 0.87117 0.87773 0.0
Cd80 Cd 0.85013 0.87663 0.89983 0.0
O81 O 0.84007 0.86715 0.92454 0.0
C82 C 0.85073 0.86011 0.93283 0.0
O83 O 0.86667 0.85987 0.92655 0.0
C84 C 0.87447 0.88017 0.86577 0.0
C85 C 0.82957 0.92871 0.86432 0.0
O86 O 0.84542 0.93402 0.86722 0.0
O87 O 0.82315 0.91508 0.87072 0.0
O88 O 0.16691 0.66688 0.6663 0.0
Cd89 Cd 0.14295 0.64993 0.68011 0.0
O90 O 0.15656 0.69179 0.67233 0.0
Cd91 Cd 0.13266 0.68445 0.6868 0.0
O92 O 0.10956 0.69476 0.69916 0.0
C93 C 0.10116 0.70325 0.68989 0.0
O94 O 0.10604 0.70427 0.67335 0.0
C95 C 0.16821 0.68289 0.66536 0.0
C96 C 0.15335 0.62827 0.70333 0.0
O97 O 0.15471 0.62454 0.68662 0.0
O98 O 0.14726 0.64229 0.70914 0.0
O99 O 0.87026 0.7466 0.6993 0.0
Cd100 Cd 0.84343 0.72995 0.68946 0.0
O101 O 0.88513 0.72429 0.69658 0.0
Cd102 Cd 0.86369 0.70532 0.68893 0.0
O103 O 0.85061 0.68117 0.69579 0.0
C104 C 0.84632 0.68095 0.71199 0.0
O105 O 0.84898 0.69514 0.7226 0.0
C106 C 0.8844 0.74019 0.70058 0.0
C107 C 0.83094 0.74065 0.65924 0.0
O108 O 0.82727 0.7479 0.67458 0.0
O109 O 0.84058 0.72841 0.65821 0.0
O110 O 0.87569 0.32134 0.68035 0.0
Cd111 Cd 0.89083 0.33875 0.7047 0.0
O112 O 0.86813 0.3447 0.67103 0.0
Cd113 Cd 0.87916 0.36281 0.69217 0.0
O114 O 0.87672 0.38557 0.71047 0.0
C115 C 0.86287 0.38571 0.71984 0.0
O116 O 0.8518 0.37195 0.71879 0.0
C117 C 0.86798 0.32855 0.6693 0.0
C118 C 0.91363 0.32252 0.72278 0.0
O119 O 0.89759 0.32217 0.7274 0.0
O120 O 0.9188 0.33019 0.70932 0.0
O121 O 0.1653 0.44121 0.67291 0.0
Cd122 Cd 0.16112 0.42862 0.64266 0.0
O123 O 0.15596 0.41693 0.68291 0.0
Cd124 Cd 0.14789 0.40074 0.70369 0.0
O125 O 0.13313 0.38269 0.71955 0.0
C126 C 0.12464 0.36985 0.71134 0.0
O127 O 0.12551 0.36798 0.69403 0.0
C128 C 0.16214 0.43244 0.68581 0.0
C129 C 0.18384 0.40397 0.6336 0.0
O130 O 0.18876 0.41988 0.63325 0.0
O131 O 0.16811 0.39965 0.63817 0.0
O132 O 0.15477 0.42275 0.37891 0.0
Cd133 Cd 0.13711 0.40785 0.40069 0.0
O134 O 0.14082 0.44567 0.38234 0.0
Cd135 Cd 0.12048 0.43297 0.3981 0.0
O136 O 0.09807 0.41398 0.39695 0.0
C137 C 0.08539 0.41714 0.38831 0.0
O138 O 0.08597 0.43205 0.3822 0.0
C139 C 0.15314 0.43776 0.37525 0.0
C140 C 0.15699 0.38761 0.41754 0.0
O141 O 0.15628 0.4034 0.42307 0.0
O142 O 0.14816 0.38134 0.40411 0.0
O143 O 0.2384 0.70573 0.3534 0.0
Cd144 Cd 0.23597 0.70368 0.32129 0.0
O145 O 0.21604 0.68703 0.3575 0.0
Cd146 Cd 0.20685 0.689 0.33132 0.0
O147 O 0.19134 0.70048 0.31361 0.0
C148 C 0.18503 0.71388 0.32054 0.0
O149 O 0.18875 0.71959 0.3369 0.0
C150 C 0.22899 0.69671 0.36358 0.0
C151 C 0.24578 0.67259 0.30518 0.0
O152 O 0.25703 0.68544 0.30859 0.0
O153 O 0.22993 0.6745 0.30922 0.0
O154 O 0.88359 0.64705 0.39298 0.0
Cd155 Cd 0.8955 0.62497 0.37275 0.0
O156 O 0.89155 0.63863 0.41762 0.0
Cd157 Cd 0.89492 0.61401 0.40287 0.0
O158 O 0.88061 0.59524 0.38441 0.0
C159 C 0.87138 0.58237 0.3894 0.0
O160 O 0.87171 0.57928 0.40592 0.0
C161 C 0.88518 0.64963 0.40959 0.0
C162 C 0.91938 0.64211 0.3512 0.0
O163 O 0.92396 0.63714 0.36557 0.0
O164 O 0.90364 0.63832 0.34669 0.0
O165 O 0.88216 0.38449 0.37748 0.0
Cd166 Cd 0.86531 0.40448 0.39595 0.0
O167 O 0.88903 0.37213 0.40032 0.0
Cd168 Cd 0.87152 0.38276 0.42063 0.0
O169 O 0.85863 0.37402 0.44445 0.0
C170 C 0.86775 0.36616 0.45366 0.0
O171 O 0.88405 0.36505 0.44894 0.0
C172 C 0.89059 0.37388 0.38397 0.0
C173 C 0.84325 0.42133 0.37747 0.0
O174 O 0.85959 0.4256 0.37729 0.0
O175 O 0.83728 0.40895 0.38615 0.0
O176 O 0.67933 0.18088 0.68423 0.0
Cd177 Cd 0.65857 0.16859 0.70543 0.0
O178 O 0.66961 0.2062 0.68664 0.0
Cd179 Cd 0.64739 0.20147 0.7045 0.0
O180 O 0.62348 0.20963 0.71728 0.0
C181 C 0.61373 0.21683 0.70807 0.0
O182 O 0.61808 0.21817 0.69145 0.0
C183 C 0.68034 0.19605 0.68005 0.0
C184 C 0.66816 0.13751 0.71395 0.0
O185 O 0.65891 0.1382 0.70059 0.0
O186 O 0.6728 0.15151 0.72341 0.0
O187 O 0.3751 0.22735 0.67582 0.0
Cd188 Cd 0.35497 0.20807 0.65738 0.0
O189 O 0.39865 0.21629 0.66528 0.0
Cd190 Cd 0.3838 0.19367 0.65255 0.0
O191 O 0.37258 0.16761 0.65524 0.0
C192 C 0.35987 0.16577 0.66605 0.0
O193 O 0.35358 0.17945 0.674 0.0
C194 C 0.39148 0.22766 0.67519 0.0
C195 C 0.33704 0.22606 0.63602 0.0
O196 O 0.33215 0.22466 0.65205 0.0
O197 O 0.35037 0.21886 0.63001 0.0
O198 O 0.36439 0.81227 0.68758 0.0
Cd199 Cd 0.37652 0.82603 0.71537 0.0
O200 O 0.36428 0.83698 0.67708 0.0
Cd201 Cd 0.37402 0.85309 0.70032 0.0
O202 O 0.37195 0.87692 0.71716 0.0
C203 C 0.35663 0.87998 0.72179 0.0
O204 O 0.34382 0.86836 0.7172 0.0
C205 C 0.3611 0.82083 0.67521 0.0
C206 C 0.40864 0.81634 0.72301 0.0
O207 O 0.39455 0.80783 0.72755 0.0
O208 O 0.40756 0.82928 0.71459 0.0
O209 O 0.65097 0.90107 0.60678 0.0
Cd210 Cd 0.6448 0.8841 0.5787 0.0
O211 O 0.64438 0.87767 0.61943 0.0
Cd212 Cd 0.63878 0.86365 0.6424 0.0
O213 O 0.62786 0.84974 0.66399 0.0
C214 C 0.62887 0.83381 0.66357 0.0
O215 O 0.63701 0.82595 0.65018 0.0
C216 C 0.64942 0.89352 0.62066 0.0
C217 C 0.67353 0.86788 0.56588 0.0
O218 O 0.67101 0.88251 0.56138 0.0
O219 O 0.66239 0.86089 0.57636 0.0
O220 O 0.69708 0.91746 0.38423 0.0
Cd221 Cd 0.68034 0.896 0.40046 0.0
O222 O 0.6768 0.93495 0.3884 0.0
Cd223 Cd 0.65806 0.91599 0.39902 0.0
O224 O 0.63692 0.8958 0.39419 0.0
C225 C 0.63577 0.88992 0.37807 0.0
O226 O 0.64728 0.89596 0.36669 0.0
C227 C 0.69176 0.93179 0.38244 0.0
C228 C 0.70062 0.87422 0.41466 0.0
O229 O 0.69393 0.87016 0.39952 0.0
O230 O 0.69786 0.88866 0.42301 0.0
O231 O 0.67811 0.18026 0.38141 0.0
Cd232 Cd 0.66788 0.16934 0.35208 0.0
O233 O 0.6586 0.16445 0.39566 0.0
Cd234 Cd 0.64315 0.16045 0.37209 0.0
O235 O 0.62807 0.17143 0.35352 0.0
C236 C 0.63144 0.18738 0.35265 0.0
O237 O 0.64383 0.19576 0.36231 0.0
C238 C 0.67226 0.17479 0.39574 0.0
C239 C 0.68288 0.13937 0.34117 0.0
O240 O 0.69084 0.15404 0.33911 0.0
O241 O 0.66758 0.13878 0.34808 0.0
O242 O 0.34253 0.17819 0.41305 0.0
Cd243 Cd 0.3573 0.15724 0.39401 0.0
O244 O 0.35676 0.17716 0.43715 0.0
Cd245 Cd 0.36657 0.15373 0.42498 0.0
O246 O 0.35982 0.12844 0.41113 0.0
C247 C 0.34376 0.12352 0.41206 0.0
O248 O 0.33353 0.13346 0.42141 0.0
C249 C 0.34585 0.18391 0.4289 0.0
C250 C 0.38631 0.17433 0.37902 0.0
O251 O 0.37137 0.17385 0.37241 0.0
O252 O 0.38767 0.16634 0.39251 0.0
O253 O 0.40235 0.88448 0.40037 0.0
Cd254 Cd 0.37758 0.8933 0.41873 0.0
O255 O 0.41693 0.88003 0.42325 0.0
Cd256 Cd 0.39473 0.8808 0.44161 0.0
O257 O 0.37557 0.86502 0.45597 0.0
C258 C 0.3758 0.8645 0.47253 0.0
O259 O 0.38721 0.87479 0.48182 0.0
C260 C 0.41615 0.88073 0.40675 0.0
C261 C 0.35463 0.90999 0.40112 0.0
O262 O 0.36771 0.91832 0.4089 0.0
O263 O 0.35252 0.89378 0.40151 0.0
O264 O 0.73024 0.71233 0.21784 0.0
Cd265 Cd 0.71703 0.70224 0.24502 0.0
O266 O 0.7213 0.73777 0.22462 0.0
Cd267 Cd 0.70379 0.73213 0.24679 0.0
O268 O 0.67941 0.73711 0.26077 0.0
C269 C 0.67767 0.75241 0.26698 0.0
O270 O 0.69085 0.76407 0.26574 0.0
C271 C 0.7299 0.72768 0.21452 0.0
C272 C 0.72214 0.66871 0.25021 0.0
O273 O 0.7084 0.67207 0.24314 0.0
O274 O 0.73363 0.68113 0.25452 0.0
O275 O 0.41247 0.67535 0.16148 0.0
Cd276 Cd 0.39584 0.65782 0.13842 0.0
O277 O 0.42525 0.65395 0.16912 0.0
Cd278 Cd 0.40807 0.63468 0.15401 0.0
O279 O 0.38728 0.61486 0.15865 0.0
C280 C 0.38282 0.61525 0.17486 0.0
O281 O 0.39067 0.62708 0.18607 0.0
C282 C 0.42343 0.66979 0.17072 0.0
C283 C 0.38237 0.67864 0.11642 0.0
O284 O 0.3734 0.67319 0.12946 0.0
O285 O 0.39763 0.67405 0.11367 0.0
O286 O 0.41074 0.36268 0.13654 0.0
Cd287 Cd 0.42397 0.3817 0.16089 0.0
O288 O 0.40703 0.38275 0.11977 0.0
Cd289 Cd 0.41307 0.40324 0.14076 0.0
O290 O 0.39776 0.42035 0.15769 0.0
C291 C 0.3817 0.41747 0.15471 0.0
O292 O 0.37658 0.40518 0.14246 0.0
C293 C 0.40593 0.36705 0.12212 0.0
C294 C 0.43872 0.36299 0.18425 0.0
O295 O 0.42263 0.3652 0.18543 0.0
O296 O 0.44796 0.36977 0.17211 0.0
O297 O 0.65227 0.42381 0.1352 0.0
Cd298 Cd 0.64019 0.41073 0.10736 0.0
O299 O 0.64507 0.39929 0.14558 0.0
Cd300 Cd 0.6411 0.38226 0.16633 0.0
O301 O 0.62785 0.36499 0.18406 0.0
C302 C 0.61296 0.35821 0.17944 0.0
O303 O 0.60696 0.36175 0.16458 0.0
C304 C 0.65206 0.41459 0.1478 0.0
C305 C 0.66396 0.39051 0.08973 0.0
O306 O 0.66349 0.40599 0.08656 0.0
O307 O 0.65296 0.38453 0.10099 0.0
O308 O 0.7013 0.42248 0.89063 0.0
Cd309 Cd 0.68268 0.40274 0.90731 0.0
O310 O 0.68434 0.44291 0.89714 0.0
Cd311 Cd 0.6635 0.42608 0.90776 0.0
O312 O 0.63944 0.41061 0.90059 0.0
C313 C 0.63517 0.41194 0.88496 0.0
O314 O 0.6452 0.42203 0.87547 0.0
C315 C 0.69815 0.43781 0.88993 0.0
C316 C 0.70112 0.38502 0.92851 0.0
O317 O 0.69694 0.39997 0.9339 0.0
O318 O 0.69667 0.37849 0.91304 0.0
O319 O 0.66689 0.63107 0.93235 0.0
Cd320 Cd 0.64852 0.61359 0.9107 0.0
O321 O 0.64612 0.64518 0.94511 0.0
Cd322 Cd 0.62795 0.63568 0.92447 0.0
O323 O 0.61486 0.64498 0.90331 0.0
C324 C 0.61907 0.66073 0.90198 0.0
O325 O 0.63041 0.66917 0.91286 0.0
C326 C 0.66179 0.64196 0.94439 0.0
C327 C 0.66958 0.59798 0.88483 0.0
O328 O 0.66488 0.59085 0.89874 0.0
O329 O 0.664 0.6123 0.883 0.0
O330 O 0.33126 0.78242 0.83915 0.0
Cd331 Cd 0.33666 0.77998 0.8073 0.0
O332 O 0.33393 0.75504 0.83681 0.0
Cd333 Cd 0.33179 0.73023 0.84711 0.0
O334 O 0.32328 0.70423 0.85276 0.0
C335 C 0.30828 0.70106 0.85957 0.0
O336 O 0.29873 0.7137 0.86375 0.0
C337 C 0.33152 0.76879 0.8464 0.0
C338 C 0.37142 0.77562 0.80042 0.0
O339 O 0.36026 0.76283 0.80236 0.0
O340 O 0.36607 0.79045 0.80132 0.0
O341 O 0.3337 0.36164 0.84593 0.0
Cd342 Cd 0.30771 0.36844 0.8635 0.0
O343 O 0.3448 0.35063 0.86769 0.0
Cd344 Cd 0.32386 0.35155 0.88764 0.0
O345 O 0.31373 0.34238 0.91248 0.0
C346 C 0.31803 0.32792 0.91539 0.0
O347 O 0.32742 0.31962 0.90335 0.0
C348 C 0.34598 0.35488 0.85207 0.0
C349 C 0.29107 0.39455 0.85159 0.0
O350 O 0.30367 0.3979 0.86214 0.0
O351 O 0.28638 0.37883 0.8465 0.0
H352 H 0.20246 0.15696 0.04872 0.0
H353 H 0.33532 0.2916 0.16187 0.0
H354 H 0.28829 0.2224 0.0187 0.0
H355 H 0.2727 0.20804 0.99305 0.0
H356 H 0.2262 0.22948 0.0133 0.0
H357 H 0.24193 0.24398 0.03879 0.0
H358 H 0.26808 0.20019 0.04677 0.0
H359 H 0.24328 0.17842 0.04487 0.0
H360 H 0.21234 0.21348 0.07609 0.0
H361 H 0.23719 0.23522 0.07766 0.0
H362 H 0.28055 0.20551 0.08655 0.0
H363 H 0.2698 0.19265 0.11312 0.0
H364 H 0.25035 0.2402 0.1338 0.0
H365 H 0.26147 0.25297 0.10739 0.0
H366 H 0.31282 0.23176 0.09592 0.0
H367 H 0.32882 0.2408 0.1229 0.0
H368 H 0.30849 0.2898 0.12654 0.0
H369 H 0.29241 0.28051 0.0997 0.0
H370 H 0.33092 0.24945 0.06425 0.0
H371 H 0.35659 0.26878 0.07252 0.0
H372 H 0.32658 0.31177 0.07381 0.0
H373 H 0.301 0.29228 0.06523 0.0
H374 H 0.31894 0.25195 0.02788 0.0
H375 H 0.32646 0.2655 1.00099 0.0
H376 H 0.27722 0.28648 0.00462 0.0
H377 H 0.27021 0.27353 0.03192 0.0
O378 O 0.21214 0.1657 0.04976 0.0
O379 O 0.19692 0.18404 0.06626 0.0
O380 O 0.33886 0.26214 0.149 0.0
O381 O 0.32897 0.28762 0.15131 0.0
C382 C 0.27485 0.24031 0.04743 0.0
C383 C 0.26931 0.23268 0.06286 0.0
C384 C 0.27789 0.23782 0.07879 0.0
C385 C 0.29231 0.25021 0.07917 0.0
C386 C 0.29813 0.25755 0.06365 0.0
C387 C 0.28907 0.25303 0.04788 0.0
C388 C 0.2662 0.23414 0.03062 0.0
C389 C 0.27486 0.22434 0.01735 0.0
C390 C 0.26594 0.21613 0.00277 0.0
C391 C 0.24822 0.21752 1.00134 0.0
C392 C 0.2398 0.22802 0.01423 0.0
C393 C 0.24876 0.23637 0.0287 0.0
C394 C 0.25442 0.21926 0.06234 0.0
C395 C 0.25594 0.20312 0.05319 0.0
C396 C 0.24175 0.19072 0.05213 0.0
C397 C 0.22582 0.19422 0.06031 0.0
C398 C 0.22442 0.21037 0.06964 0.0
C399 C 0.2386 0.22279 0.07062 0.0
C400 C 0.27179 0.23016 0.09509 0.0
C401 C 0.27402 0.21312 0.09689 0.0
C402 C 0.26781 0.2058 0.11203 0.0
C403 C 0.25922 0.21539 0.12563 0.0
C404 C 0.25715 0.23252 0.12376 0.0
C405 C 0.26341 0.23983 0.10864 0.0
C406 C 0.30149 0.25549 0.09589 0.0
C407 C 0.31175 0.24438 0.10266 0.0
C408 C 0.32092 0.24961 0.11802 0.0
C409 C 0.31997 0.26605 0.12685 0.0
C410 C 0.30954 0.27708 0.12006 0.0
C411 C 0.30035 0.27181 0.10474 0.0
C412 C 0.31414 0.26949 0.06421 0.0
C413 C 0.33005 0.26309 0.06576 0.0
C414 C 0.34464 0.27413 0.07064 0.0
C415 C 0.34355 0.29177 0.07408 0.0
C416 C 0.32787 0.29826 0.07114 0.0
C417 C 0.31325 0.28717 0.06623 0.0
C418 C 0.29407 0.2618 0.03193 0.0
C419 C 0.30992 0.2597 0.02301 0.0
C420 C 0.31409 0.2673 0.00752 0.0
C421 C 0.30241 0.27704 1.00054 0.0
C422 C 0.28663 0.27929 0.00969 0.0
C423 C 0.28253 0.27178 0.02523 0.0
C424 C 0.21072 0.18107 0.05901 0.0
C425 C 0.32985 0.27175 0.14304 0.0
H426 H 0.86702 0.22243 0.97761 0.0
H427 H 0.7581 0.27978 0.13857 0.0
H428 H 0.81314 0.29231 0.98455 0.0
H429 H 0.81828 0.28226 0.95337 0.0
H430 H 0.76805 0.25329 0.95238 0.0
H431 H 0.76305 0.2633 0.98344 0.0
H432 H 0.83 0.2763 0.01579 0.0
H433 H 0.84987 0.25671 1.0015 0.0
H434 H 0.80624 0.22148 0.9836 0.0
H435 H 0.78655 0.2411 0.99815 0.0
H436 H 0.82108 0.28345 0.05358 0.0
H437 H 0.83502 0.26619 0.0726 0.0
H438 H 0.79627 0.22397 0.05953 0.0
H439 H 0.78261 0.2412 0.04033 0.0
H440 H 0.79165 0.31181 0.06601 0.0
H441 H 0.78702 0.31474 0.09805 0.0
H442 H 0.75751 0.26513 0.0942 0.0
H443 H 0.76212 0.26248 0.06218 0.0
H444 H 0.77338 0.32908 0.03845 0.0
H445 H 0.75109 0.34636 0.05203 0.0
H446 H 0.71659 0.30041 0.05625 0.0
H447 H 0.73911 0.28332 0.04311 0.0
H448 H 0.78583 0.32238 1.00012 0.0
H449 H 0.77039 0.33855 0.98132 0.0
H450 H 0.72596 0.30109 0.9828 0.0
H451 H 0.74145 0.2851 1.00175 0.0
O452 O 0.85895 0.2299 0.98331 0.0
O453 O 0.83607 0.21228 0.97435 0.0
O454 O 0.77515 0.30453 0.12719 0.0
O455 O 0.76003 0.27902 0.12593 0.0
C456 C 0.7859 0.28165 0.00559 0.0
C457 C 0.79489 0.27224 0.01621 0.0
C458 C 0.79212 0.27402 0.03464 0.0
C459 C 0.78031 0.28514 0.04247 0.0
C460 C 0.77125 0.29446 0.03184 0.0
C461 C 0.77417 0.29283 0.01341 0.0
C462 C 0.78773 0.27852 0.98617 0.0
C463 C 0.80309 0.28419 0.97742 0.0
C464 C 0.80597 0.27848 0.95967 0.0
C465 C 0.79359 0.26694 0.95059 0.0
C466 C 0.77782 0.26212 0.95915 0.0
C467 C 0.7749 0.2679 0.97681 0.0
C468 C 0.80688 0.2601 0.00796 0.0
C469 C 0.82479 0.26429 0.00886 0.0
C470 C 0.83609 0.2531 1.00065 0.0
C471 C 0.82964 0.23754 0.99137 0.0
C472 C 0.81164 0.23336 0.99061 0.0
C473 C 0.80036 0.24454 0.99889 0.0
C474 C 0.80087 0.26353 0.04567 0.0
C475 C 0.81572 0.27044 0.05476 0.0
C476 C 0.82366 0.26058 0.06552 0.0
C477 C 0.81665 0.2438 0.06752 0.0
C478 C 0.80182 0.23692 0.05829 0.0
C479 C 0.79407 0.24668 0.04732 0.0
C480 C 0.7773 0.28691 0.06185 0.0
C481 C 0.78417 0.30163 0.07214 0.0
C482 C 0.78151 0.30324 0.09042 0.0
C483 C 0.77193 0.29013 0.0987 0.0
C484 C 0.76499 0.27544 0.08827 0.0
C485 C 0.76763 0.27386 0.06999 0.0
C486 C 0.75782 0.305 0.03989 0.0
C487 C 0.76099 0.32282 0.04234 0.0
C488 C 0.74822 0.33264 0.04999 0.0
C489 C 0.73205 0.32476 0.05525 0.0
C490 C 0.72897 0.30687 0.05263 0.0
C491 C 0.74176 0.29709 0.04505 0.0
C492 C 0.76472 0.30262 1.00223 0.0
C493 C 0.77275 0.31773 0.99641 0.0
C494 C 0.76391 0.32695 0.98576 0.0
C495 C 0.747 0.32103 0.98061 0.0
C496 C 0.73903 0.30584 0.98647 0.0
C497 C 0.74779 0.29676 0.99731 0.0
C498 C 0.84168 0.22577 0.98248 0.0
C499 C 0.76917 0.29173 0.11812 0.0
H500 H 0.68678 0.69151 0.09947 0.0
H501 H 0.76543 0.75489 0.92988 0.0
H502 H 0.75064 0.76928 0.09017 0.0
H503 H 0.74691 0.76266 0.1206 0.0
H504 H 0.78877 0.73064 0.11253 0.0
H505 H 0.79213 0.73713 0.08184 0.0
H506 H 0.72423 0.74589 0.06301 0.0
H507 H 0.70437 0.72579 0.07803 0.0
H508 H 0.74587 0.69429 0.08191 0.0
H509 H 0.76551 0.71439 0.06666 0.0
H510 H 0.72735 0.75274 0.02206 0.0
H511 H 0.70604 0.73287 0.0056 0.0
H512 H 0.73559 0.69114 0.01313 0.0
H513 H 0.75721 0.71125 0.02874 0.0
H514 H 0.75287 0.78322 0.01453 0.0
H515 H 0.75028 0.78662 0.98333 0.0
H516 H 0.77409 0.73995 0.96915 0.0
H517 H 0.7768 0.73683 1.00041 0.0
H518 H 0.77514 0.80261 0.04145 0.0
H519 H 0.78836 0.82405 0.02293 0.0
H520 H 0.81999 0.78687 0.9964 0.0
H521 H 0.80689 0.76563 0.0152 0.0
H522 H 0.78219 0.79878 0.07388 0.0
H523 H 0.80592 0.81501 0.09064 0.0
H524 H 0.83742 0.77342 0.07754 0.0
H525 H 0.81366 0.75737 0.06072 0.0
O526 O 0.69483 0.69925 0.09349 0.0
O527 O 0.71664 0.68359 0.09529 0.0
O528 O 0.75414 0.77779 0.95031 0.0
O529 O 0.76626 0.75384 0.94231 0.0
C530 C 0.77099 0.75475 0.06464 0.0
C531 C 0.7583 0.74399 0.05489 0.0
C532 C 0.75663 0.74538 0.0368 0.0
C533 C 0.7671 0.75807 0.02863 0.0
C534 C 0.77971 0.76896 0.03842 0.0
C535 C 0.78197 0.76695 0.05629 0.0
C536 C 0.77171 0.75377 0.08386 0.0
C537 C 0.75934 0.76125 0.09514 0.0
C538 C 0.75724 0.75743 0.11254 0.0
C539 C 0.76749 0.74603 0.11901 0.0
C540 C 0.78054 0.7393 0.1079 0.0
C541 C 0.78264 0.74316 0.09046 0.0
C542 C 0.7463 0.73161 0.06383 0.0
C543 C 0.72897 0.7346 0.06707 0.0
C544 C 0.71768 0.72312 0.07568 0.0
C545 C 0.72354 0.70844 0.08121 0.0
C546 C 0.74094 0.70548 0.07786 0.0
C547 C 0.7522 0.71695 0.0692 0.0
C548 C 0.74385 0.73344 0.0265 0.0
C549 C 0.72928 0.73933 0.01995 0.0
C550 C 0.71703 0.72792 0.01075 0.0
C551 C 0.71906 0.71037 0.00809 0.0
C552 C 0.73372 0.70457 0.01471 0.0
C553 C 0.74603 0.71601 0.02374 0.0
C554 C 0.76508 0.75982 0.00969 0.0
C555 C 0.75756 0.77377 0.00465 0.0
C556 C 0.75607 0.77566 0.98683 0.0
C557 C 0.762 0.76356 0.97373 0.0
C558 C 0.7694 0.7495 0.97888 0.0
C559 C 0.77093 0.74766 0.99672 0.0
C560 C 0.79018 0.78263 0.02976 0.0
C561 C 0.78532 0.79928 0.03202 0.0
C562 C 0.79271 0.81143 0.02127 0.0
C563 C 0.80512 0.80713 0.00809 0.0
C564 C 0.8106 0.79065 0.00653 0.0
C565 C 0.80316 0.7785 0.01726 0.0
C566 C 0.79631 0.77699 0.06607 0.0
C567 C 0.79428 0.79329 0.07452 0.0
C568 C 0.80783 0.80251 0.08401 0.0
C569 C 0.82352 0.79546 0.08534 0.0
C570 C 0.82545 0.7791 0.07683 0.0
C571 C 0.81196 0.76998 0.0672 0.0
C572 C 0.71153 0.69631 0.09042 0.0
C573 C 0.76053 0.76555 0.95478 0.0
H574 H 0.37461 0.7123 0.97457 0.0
H575 H 0.28597 0.78266 0.14069 0.0
H576 H 0.33414 0.78889 0.98622 0.0
H577 H 0.33713 0.78717 0.95402 0.0
H578 H 0.28199 0.7746 0.94996 0.0
H579 H 0.27913 0.77565 0.98214 0.0
H580 H 0.34688 0.77033 0.01604 0.0
H581 H 0.36314 0.74812 1.00062 0.0
H582 H 0.31572 0.72241 0.97873 0.0
H583 H 0.29959 0.74463 0.99439 0.0
H584 H 0.33924 0.77975 0.05419 0.0
H585 H 0.35115 0.75957 0.07143 0.0
H586 H 0.31025 0.72087 0.05412 0.0
H587 H 0.29853 0.74106 0.03682 0.0
H588 H 0.31571 0.81283 0.06588 0.0
H589 H 0.31368 0.81598 0.09811 0.0
H590 H 0.28144 0.76796 0.09659 0.0
H591 H 0.28342 0.76508 0.06439 0.0
H592 H 0.29807 0.8328 0.03556 0.0
H593 H 0.27845 0.85314 0.04861 0.0
H594 H 0.24434 0.81151 0.06672 0.0
H595 H 0.26339 0.79128 0.0525 0.0
H596 H 0.31087 0.82057 0.99523 0.0
H597 H 0.29727 0.83905 0.97739 0.0
H598 H 0.24689 0.81764 0.99453 0.0
H599 H 0.26054 0.79882 0.01189 0.0
O600 O 0.36792 0.72089 0.98061 0.0
O601 O 0.34319 0.7082 0.96966 0.0
O602 O 0.30348 0.80644 0.12803 0.0
O603 O 0.28695 0.78177 0.12797 0.0
C604 C 0.30457 0.78391 0.00608 0.0
C605 C 0.31227 0.77261 0.01571 0.0
C606 C 0.31053 0.77409 0.03427 0.0
C607 C 0.30114 0.78686 0.04326 0.0
C608 C 0.29316 0.79799 0.03366 0.0
C609 C 0.29498 0.79661 0.01506 0.0
C610 C 0.30642 0.78239 0.98653 0.0
C611 C 0.32274 0.78553 0.97837 0.0
C612 C 0.32442 0.7846 0.96004 0.0
C613 C 0.30977 0.78083 0.9496 0.0
C614 C 0.29345 0.77768 0.95777 0.0
C615 C 0.29181 0.77826 0.97609 0.0
C616 C 0.32207 0.75906 0.00635 0.0
C617 C 0.34003 0.75984 0.00798 0.0
C618 C 0.34928 0.74716 0.99911 0.0
C619 C 0.34073 0.73348 0.98843 0.0
C620 C 0.3227 0.73276 0.98685 0.0
C621 C 0.31346 0.74544 0.99575 0.0
C622 C 0.31806 0.76182 0.0443 0.0
C623 C 0.33294 0.76688 0.05408 0.0
C624 C 0.33973 0.75536 0.06383 0.0
C625 C 0.33158 0.7387 0.06411 0.0
C626 C 0.31669 0.73368 0.05423 0.0
C627 C 0.31005 0.74513 0.04431 0.0
C628 C 0.29979 0.78869 0.06282 0.0
C629 C 0.3082 0.80303 0.07255 0.0
C630 C 0.30703 0.80478 0.09095 0.0
C631 C 0.29742 0.79219 0.09994 0.0
C632 C 0.28897 0.77786 0.0901 0.0
C633 C 0.29013 0.77615 0.07171 0.0
C634 C 0.28215 0.81055 0.04303 0.0
C635 C 0.28634 0.82812 0.04235 0.0
C636 C 0.27516 0.83973 0.04996 0.0
C637 C 0.25971 0.834 0.05868 0.0
C638 C 0.2559 0.81639 0.05981 0.0
C639 C 0.26692 0.8048 0.05192 0.0
C640 C 0.2867 0.80835 0.00487 0.0
C641 C 0.2969 0.81985 0.9951 0.0
C642 C 0.28914 0.83036 0.98493 0.0
C643 C 0.27105 0.82976 0.98463 0.0
C644 C 0.26086 0.81846 0.99468 0.0
C645 C 0.26863 0.80773 0.00459 0.0
C646 C 0.35062 0.72007 0.97898 0.0
C647 C 0.29617 0.79396 0.11948 0.0
H648 H 0.98692 0.20356 0.19997 0.0
H649 H 0.10807 0.32565 0.33705 0.0
H650 H 0.97656 0.29595 0.25206 0.0
H651 H 0.95211 0.28193 0.23478 0.0
H652 H 0.94496 0.24262 0.27001 0.0
H653 H 0.96956 0.25656 0.28704 0.0
H654 H 0.00026 0.2717 0.23771 0.0
H655 H 0.9944 0.24569 0.21756 0.0
H656 H 0.00119 0.21538 0.25999 0.0
H657 H 0.00674 0.24154 0.28009 0.0
H658 H 0.03775 0.27605 0.24657 0.0
H659 H 0.06424 0.2629 0.23786 0.0
H660 H 0.0689 0.25118 0.29131 0.0
H661 H 0.0419 0.26355 0.29961 0.0
H662 H 0.05187 0.3095 0.27201 0.0
H663 H 0.0807 0.32063 0.28227 0.0
H664 H 0.06574 0.30735 0.33452 0.0
H665 H 0.03706 0.29606 0.32402 0.0
H666 H 0.02374 0.33522 0.28765 0.0
H667 H 0.03201 0.36088 0.30754 0.0
H668 H 0.01205 0.33477 0.35194 0.0
H669 H 0.00373 0.30905 0.3318 0.0
H670 H 0.9859 0.3297 0.28411 0.0
H671 H 0.96301 0.34556 0.29871 0.0
H672 H 0.94474 0.30184 0.32593 0.0
H673 H 0.96803 0.2864 0.31182 0.0
O674 O 0.98951 0.21367 0.20811 0.0
O675 O 0.99375 0.19866 0.23019 0.0
O676 O 0.10391 0.32769 0.30549 0.0
O677 O 0.09679 0.32128 0.33262 0.0
C678 C 0.99183 0.28327 0.27828 0.0
C679 C 0.00622 0.27426 0.27281 0.0
C680 C 0.02273 0.28015 0.27934 0.0
C681 C 0.02492 0.29531 0.29099 0.0
C682 C 0.01054 0.30428 0.29643 0.0
C683 C 0.99393 0.29817 0.29025 0.0
C684 C 0.97477 0.27723 0.27075 0.0
C685 C 0.96935 0.28461 0.25634 0.0
C686 C 0.95553 0.27655 0.24644 0.0
C687 C 0.94678 0.26118 0.25105 0.0
C688 C 0.95142 0.25453 0.26628 0.0
C689 C 0.96541 0.26246 0.27602 0.0
C690 C 0.00384 0.25847 0.26036 0.0
C691 C 0.00048 0.25943 0.24261 0.0
C692 C 0.99715 0.24455 0.23113 0.0
C693 C 0.99727 0.22845 0.23717 0.0
C694 C 0.00097 0.22757 0.25492 0.0
C695 C 0.00421 0.24247 0.26641 0.0
C696 C 0.03791 0.27077 0.27372 0.0
C697 C 0.04431 0.27031 0.25629 0.0
C698 C 0.05956 0.26297 0.2514 0.0
C699 C 0.06883 0.25612 0.26392 0.0
C700 C 0.06204 0.25614 0.28127 0.0
C701 C 0.04668 0.26333 0.28609 0.0
C702 C 0.0424 0.30202 0.29728 0.0
C703 C 0.05488 0.30897 0.28565 0.0
C704 C 0.07132 0.31534 0.29155 0.0
C705 C 0.07552 0.3149 0.30924 0.0
C706 C 0.06294 0.30791 0.32084 0.0
C707 C 0.04653 0.30149 0.3149 0.0
C708 C 0.01318 0.32034 0.30833 0.0
C709 C 0.02082 0.33518 0.30163 0.0
C710 C 0.02545 0.34982 0.31299 0.0
C711 C 0.02266 0.3498 0.33129 0.0
C712 C 0.0144 0.33508 0.33791 0.0
C713 C 0.00958 0.32046 0.32647 0.0
C714 C 0.9787 0.30696 0.29703 0.0
C715 C 0.97683 0.32353 0.29311 0.0
C716 C 0.96368 0.33252 0.30137 0.0
C717 C 0.95216 0.32504 0.31364 0.0
C718 C 0.95359 0.3081 0.31681 0.0
C719 C 0.96678 0.29918 0.30863 0.0
C720 C 0.99344 0.21266 0.22501 0.0
C721 C 0.09294 0.32169 0.31559 0.0
H722 H 0.86065 0.97455 0.194 0.0
H723 H 0.76516 0.13583 0.28575 0.0
H724 H 0.77813 0.98218 0.25785 0.0
H725 H 0.79167 0.95646 0.24685 0.0
H726 H 0.83807 0.97667 0.27444 0.0
H727 H 0.8242 0.00195 0.28582 0.0
H728 H 0.79963 1.00011 0.23045 0.0
H729 H 0.82177 0.98708 0.21148 0.0
H730 H 0.86149 0.01566 0.2439 0.0
H731 H 0.83917 0.02856 0.26281 0.0
H732 H 0.80012 0.03748 0.22398 0.0
H733 H 0.81895 0.055 0.20504 0.0
H734 H 0.84215 0.08335 0.25132 0.0
H735 H 0.8237 0.06547 0.27002 0.0
H736 H 0.76921 0.05695 0.24592 0.0
H737 H 0.75984 0.0855 0.246 0.0
H738 H 0.78527 0.10123 0.29534 0.0
H739 H 0.79477 0.07275 0.29493 0.0
H740 H 0.74519 0.03849 0.27402 0.0
H741 H 0.72641 0.05849 0.28954 0.0
H742 H 0.76169 0.06785 0.33258 0.0
H743 H 0.78033 0.04764 0.31703 0.0
H744 H 0.7482 0.00549 0.28405 0.0
H745 H 0.73296 0.98726 0.30476 0.0
H746 H 0.78047 0.98689 0.33202 0.0
H747 H 0.79558 0.00537 0.31142 0.0
O748 O 0.85215 0.98026 0.20135 0.0
O749 O 0.87211 0.99538 0.21829 0.0
O750 O 0.75715 0.11624 0.25921 0.0
O751 O 0.76912 0.1246 0.28511 0.0
C752 C 0.7955 0.01159 0.27235 0.0
C753 C 0.80427 0.02203 0.26025 0.0
C754 C 0.80025 0.03888 0.25985 0.0
C755 C 0.78702 0.04512 0.27106 0.0
C756 C 0.77784 0.03453 0.28278 0.0
C757 C 0.78221 0.01779 0.28363 0.0
C758 C 0.80031 0.994 0.27238 0.0
C759 C 0.79084 0.98059 0.26232 0.0
C760 C 0.7987 0.96602 0.25585 0.0
C761 C 0.81614 0.9648 0.25932 0.0
C762 C 0.82466 0.9772 0.27148 0.0
C763 C 0.81673 0.99167 0.27805 0.0
C764 C 0.81782 0.01522 0.248 0.0
C765 C 0.81313 0.00361 0.23335 0.0
C766 C 0.8258 0.99616 0.22257 0.0
C767 C 0.8434 1.00023 0.22625 0.0
C768 C 0.84805 0.0122 0.24074 0.0
C769 C 0.83536 0.01964 0.25151 0.0
C770 C 0.81058 0.05024 0.24834 0.0
C771 C 0.80925 0.04753 0.22997 0.0
C772 C 0.81995 0.05757 0.2192 0.0
C773 C 0.83214 0.07047 0.22668 0.0
C774 C 0.83313 0.07332 0.24514 0.0
C775 C 0.82248 0.06326 0.25585 0.0
C776 C 0.78258 0.0628 0.27045 0.0
C777 C 0.7729 0.06666 0.25661 0.0
C778 C 0.7675 0.08293 0.25675 0.0
C779 C 0.77171 0.09562 0.27075 0.0
C780 C 0.78174 0.09176 0.2844 0.0
C781 C 0.7872 0.07551 0.2842 0.0
C782 C 0.7641 0.04166 0.29442 0.0
C783 C 0.74843 0.04425 0.28716 0.0
C784 C 0.73777 0.05572 0.296 0.0
C785 C 0.74276 0.06485 0.31213 0.0
C786 C 0.75766 0.06104 0.32009 0.0
C787 C 0.7682 0.0494 0.31134 0.0
C788 C 0.77298 0.00681 0.29625 0.0
C789 C 0.75528 0.00161 0.29459 0.0
C790 C 0.7466 0.99122 0.30643 0.0
C791 C 0.75554 0.98569 0.32002 0.0
C792 C 0.7733 0.99085 0.32159 0.0
C793 C 0.78192 0.0014 0.30986 0.0
C794 C 0.8568 0.99187 0.21509 0.0
C795 C 0.76555 0.11275 0.27126 0.0
H796 H 0.08666 0.70044 0.3499 0.0
H797 H 0.92049 0.75642 0.26293 0.0
H798 H 0.07517 0.78479 0.29611 0.0
H799 H 0.1051 0.78164 0.30248 0.0
H800 H 0.10036 0.7316 0.27292 0.0
H801 H 0.07108 0.73556 0.26552 0.0
H802 H 0.05859 0.75582 0.31945 0.0
H803 H 0.0721 0.73634 0.33603 0.0
H804 H 0.05448 0.69417 0.29794 0.0
H805 H 0.04124 0.71385 0.28134 0.0
H806 H 0.01724 0.74558 0.32359 0.0
H807 H 0.99921 0.72332 0.33754 0.0
H808 H 0.98603 0.69781 0.28609 0.0
H809 H 0.00383 0.72033 0.27232 0.0
H810 H 0.99371 0.76822 0.30738 0.0
H811 H 0.96231 0.76857 0.30705 0.0
H812 H 0.96323 0.75152 0.25127 0.0
H813 H 0.99459 0.75102 0.25185 0.0
H814 H 0.00998 0.79883 0.28749 0.0
H815 H 0.9918 0.81671 0.27377 0.0
H816 H 0.00521 0.79206 0.22246 0.0
H817 H 0.02353 0.77433 0.23635 0.0
H818 H 0.04925 0.80675 0.28085 0.0
H819 H 0.06752 0.8281 0.26587 0.0
H820 H 0.08262 0.78837 0.22665 0.0
H821 H 0.06448 0.7671 0.24189 0.0
O822 O 0.0812 0.70791 0.34316 0.0
O823 O 0.07164 0.68662 0.32335 0.0
O824 O 0.93307 0.76476 0.29221 0.0
O825 O 0.93288 0.75622 0.26348 0.0
C826 C 0.05183 0.76037 0.28015 0.0
C827 C 0.04111 0.74826 0.28901 0.0
C828 C 0.02298 0.74781 0.28852 0.0
C829 C 0.0155 0.75987 0.27982 0.0
C830 C 0.02617 0.77239 0.2715 0.0
C831 C 0.04435 0.77252 0.27146 0.0
C832 C 0.07089 0.76031 0.28053 0.0
C833 C 0.08088 0.77347 0.29044 0.0
C834 C 0.09791 0.7715 0.2943 0.0
C835 C 0.10511 0.75617 0.28862 0.0
C836 C 0.09544 0.74364 0.27747 0.0
C837 C 0.07859 0.74581 0.2733 0.0
C838 C 0.04893 0.73624 0.29922 0.0
C839 C 0.05768 0.74237 0.31471 0.0
C840 C 0.06537 0.73121 0.32416 0.0
C841 C 0.06437 0.71369 0.31832 0.0
C842 C 0.05548 0.70758 0.30281 0.0
C843 C 0.04786 0.71878 0.29334 0.0
C844 C 0.01179 0.73453 0.29698 0.0
C845 C 0.01042 0.73517 0.31538 0.0
C846 C 0.00022 0.7224 0.32329 0.0
C847 C 0.99123 0.70875 0.31292 0.0
C848 C 0.99262 0.70824 0.29445 0.0
C849 C 0.00279 0.72104 0.28657 0.0
C850 C 0.99639 0.75959 0.27964 0.0
C851 C 0.98707 0.76445 0.29514 0.0
C852 C 0.96916 0.76469 0.29489 0.0
C853 C 0.96026 0.7601 0.27911 0.0
C854 C 0.96967 0.75514 0.26363 0.0
C855 C 0.98757 0.75486 0.26392 0.0
C856 C 0.01798 0.78526 0.2629 0.0
C857 C 0.00927 0.79757 0.27326 0.0
C858 C 0.99879 0.80765 0.26542 0.0
C859 C 0.99687 0.8056 0.24706 0.0
C860 C 0.00649 0.79398 0.23662 0.0
C861 C 0.01697 0.78387 0.24451 0.0
C862 C 0.05551 0.78541 0.26241 0.0
C863 C 0.05649 0.8027 0.269 0.0
C864 C 0.06689 0.81486 0.2604 0.0
C865 C 0.07651 0.80994 0.24504 0.0
C866 C 0.07556 0.79256 0.23856 0.0
C867 C 0.06515 0.7804 0.24718 0.0
C868 C 0.07259 0.70188 0.32837 0.0
C869 C 0.94126 0.76051 0.27874 0.0
H870 H 0.19793 0.02455 0.21908 0.0
H871 H 0.24416 0.88371 0.32037 0.0
H872 H 0.27057 0.03322 0.28881 0.0
H873 H 0.26502 0.0615 0.2815 0.0
H874 H 0.22165 0.06141 0.31845 0.0
H875 H 0.22771 0.03342 0.3263 0.0
H876 H 0.24873 0.00196 0.26341 0.0
H877 H 0.23107 0.01072 0.24087 0.0
H878 H 0.1913 0.02147 0.28047 0.0
H879 H 0.20899 0.01242 0.3028 0.0
H880 H 0.25425 0.96351 0.27122 0.0
H881 H 0.23801 0.94893 0.24613 0.0
H882 H 0.1903 0.96183 0.27245 0.0
H883 H 0.20658 0.97593 0.29778 0.0
H884 H 0.28003 0.96002 0.30139 0.0
H885 H 0.28226 0.92964 0.30273 0.0
H886 H 0.22945 0.9236 0.32274 0.0
H887 H 0.22747 0.95404 0.32151 0.0
H888 H 0.29754 0.99519 0.32187 0.0
H889 H 0.31761 0.98305 0.33966 0.0
H890 H 0.2744 0.95878 0.36793 0.0
H891 H 0.25438 0.97124 0.35028 0.0
H892 H 0.28963 0.02945 0.31511 0.0
H893 H 0.30424 0.05187 0.33556 0.0
H894 H 0.2696 0.03615 0.37773 0.0
H895 H 0.25472 0.01414 0.35699 0.0
O896 O 0.20474 0.02123 0.22822 0.0
O897 O 0.18494 0.02709 0.24917 0.0
O898 O 0.27072 0.89954 0.30935 0.0
O899 O 0.24361 0.89575 0.31964 0.0
C900 C 0.25063 0.01302 0.30967 0.0
C901 C 0.24077 0.00089 0.29823 0.0
C902 C 0.24151 0.98328 0.29904 0.0
C903 C 0.25245 0.97776 0.31107 0.0
C904 C 0.26243 0.98993 0.32257 0.0
C905 C 0.26138 0.00757 0.32194 0.0
C906 C 0.24967 0.0314 0.30824 0.0
C907 C 0.26031 0.03962 0.29584 0.0
C908 C 0.25707 0.05566 0.2916 0.0
C909 C 0.24289 0.06349 0.29939 0.0
C910 C 0.23267 0.05557 0.31232 0.0
C911 C 0.23618 0.03971 0.31687 0.0
C912 C 0.23017 0.00668 0.28472 0.0
C913 C 0.23622 0.00625 0.26717 0.0
C914 C 0.2261 0.01125 0.25433 0.0
C915 C 0.20978 0.01682 0.25887 0.0
C916 C 0.20382 0.01728 0.27653 0.0
C917 C 0.21392 0.0122 0.28932 0.0
C918 C 0.23159 0.97087 0.28624 0.0
C919 C 0.24026 0.96257 0.27188 0.0
C920 C 0.23098 0.95431 0.25756 0.0
C921 C 0.21295 0.95445 0.25734 0.0
C922 C 0.2042 0.96167 0.2723 0.0
C923 C 0.21346 0.96965 0.28674 0.0
C924 C 0.25362 0.95923 0.31141 0.0
C925 C 0.26898 0.95211 0.30608 0.0
C926 C 0.2702 0.93476 0.30684 0.0
C927 C 0.25603 0.92419 0.31287 0.0
C928 C 0.24061 0.93137 0.31804 0.0
C929 C 0.23942 0.94873 0.31731 0.0
C930 C 0.27449 0.9841 0.33475 0.0
C931 C 0.29241 0.98756 0.33216 0.0
C932 C 0.30385 0.98059 0.3423 0.0
C933 C 0.29756 0.96987 0.3551 0.0
C934 C 0.2796 0.96682 0.35802 0.0
C935 C 0.26817 0.97397 0.34801 0.0
C936 C 0.27099 0.02036 0.33454 0.0
C937 C 0.2852 0.0309 0.32876 0.0
C938 C 0.29364 0.04356 0.34051 0.0
C939 C 0.28803 0.04584 0.35826 0.0
C940 C 0.27407 0.03489 0.36408 0.0
C941 C 0.26562 0.02227 0.35231 0.0
C942 C 0.19903 0.02204 0.24519 0.0
C943 C 0.2573 0.90577 0.31381 0.0
H944 H 0.00135 0.89181 0.89098 0.0
H945 H 0.13081 0.80724 0.76669 0.0
H946 H 0.98525 0.81313 0.82837 0.0
H947 H 0.95676 0.82034 0.83918 0.0
H948 H 0.95184 0.84669 0.79332 0.0
H949 H 0.98075 0.83967 0.78279 0.0
H950 H 0.01898 0.83175 0.84492 0.0
H951 H 0.01278 0.85424 0.86821 0.0
H952 H 0.99969 0.88552 0.82878 0.0
H953 H 0.00614 0.86299 0.80562 0.0
H954 H 0.05175 0.81454 0.82988 0.0
H955 H 0.07599 0.82841 0.84737 0.0
H956 H 0.07222 0.87518 0.82427 0.0
H957 H 0.04791 0.86117 0.80684 0.0
H958 H 0.05162 0.78672 0.79974 0.0
H959 H 0.08118 0.7796 0.79309 0.0
H960 H 0.09334 0.82742 0.77084 0.0
H961 H 0.06367 0.83426 0.77733 0.0
H962 H 0.01604 0.77238 0.786 0.0
H963 H 0.02755 0.74838 0.7681 0.0
H964 H 0.0528 0.78308 0.73306 0.0
H965 H 0.04078 0.80693 0.75077 0.0
H966 H 0.9844 0.78351 0.79493 0.0
H967 H 0.96152 0.76733 0.77694 0.0
H968 H 0.97427 0.79994 0.73562 0.0
H969 H 0.99733 0.81591 0.75362 0.0
O970 O 0.00377 0.88309 0.88156 0.0
O971 O 0.99707 0.89862 0.86077 0.0
O972 O 0.11211 0.78527 0.78098 0.0
O973 O 0.11905 0.80973 0.76949 0.0
C974 C 0.00314 0.82297 0.79964 0.0
C975 C 0.01681 0.83212 0.80947 0.0
C976 C 0.03393 0.82809 0.80601 0.0
C977 C 0.03744 0.81509 0.79256 0.0
C978 C 0.0238 0.80603 0.78263 0.0
C979 C 0.00669 0.81012 0.78606 0.0
C980 C 0.98503 0.82588 0.80483 0.0
C981 C 0.97792 0.82027 0.82055 0.0
C982 C 0.96159 0.82434 0.82665 0.0
C983 C 0.95198 0.83408 0.8171 0.0
C984 C 0.95897 0.8393 0.80105 0.0
C985 C 0.97538 0.83519 0.79494 0.0
C986 C 0.01308 0.84579 0.8236 0.0
C987 C 0.01487 0.84351 0.84135 0.0
C988 C 0.01127 0.85636 0.85462 0.0
C989 C 0.00575 0.87169 0.85036 0.0
C990 C 0.00392 0.87388 0.83252 0.0
C991 C 0.00757 0.86103 0.81927 0.0
C992 C 0.04817 0.83684 0.81704 0.0
C993 C 0.05618 0.82779 0.82862 0.0
C994 C 0.07003 0.83571 0.83855 0.0
C995 C 0.07605 0.85286 0.83714 0.0
C996 C 0.06776 0.862 0.82576 0.0
C997 C 0.05394 0.85403 0.81576 0.0
C998 C 0.0555 0.81095 0.78891 0.0
C999 C 0.06068 0.7956 0.79336 0.0
C1000 C 0.07757 0.79159 0.78959 0.0
C1001 C 0.08963 0.80294 0.7814 0.0
C1002 C 0.0844 0.81839 0.77713 0.0
C1003 C 0.06748 0.82235 0.78085 0.0
C1004 C 0.02753 0.79139 0.76965 0.0
C1005 C 0.02353 0.77471 0.7741 0.0
C1006 C 0.03032 0.76104 0.764 0.0
C1007 C 0.04128 0.76384 0.74929 0.0
C1008 C 0.0443 0.78045 0.74421 0.0
C1009 C 0.03746 0.79411 0.75431 0.0
C1010 C 0.99248 0.80079 0.7755 0.0
C1011 C 0.98221 0.78714 0.782 0.0
C1012 C 0.96924 0.77792 0.77172 0.0
C1013 C 0.96622 0.78239 0.75489 0.0
C1014 C 0.97631 0.79631 0.74858 0.0
C1015 C 0.98946 0.80537 0.75878 0.0
C1016 C 0.00192 0.88531 0.86448 0.0
C1017 C 0.10758 0.79872 0.77731 0.0
H1018 H 0.35182 0.00161 0.6607 0.0
H1019 H 0.28821 0.14843 0.77998 0.0
H1020 H 0.29388 0.9959 0.73928 0.0
H1021 H 0.30049 0.96626 0.73384 0.0
H1022 H 0.33924 0.9762 0.77371 0.0
H1023 H 0.33263 0.00599 0.7789 0.0
H1024 H 0.30305 0.0262 0.71545 0.0
H1025 H 0.31954 0.01602 0.68917 0.0
H1026 H 0.36364 0.01391 0.72128 0.0
H1027 H 0.34704 0.02427 0.74743 0.0
H1028 H 0.28709 0.06038 0.72949 0.0
H1029 H 0.29385 0.08268 0.7098 0.0
H1030 H 0.34774 0.08568 0.72259 0.0
H1031 H 0.34083 0.06347 0.7424 0.0
H1032 H 0.26689 0.06442 0.76466 0.0
H1033 H 0.25828 0.09343 0.76857 0.0
H1034 H 0.31162 0.1134 0.77657 0.0
H1035 H 0.32 0.0843 0.77291 0.0
H1036 H 0.26062 0.03277 0.78608 0.0
H1037 H 0.24102 0.04538 0.80847 0.0
H1038 H 0.28321 0.08111 0.82865 0.0
H1039 H 0.30293 0.06804 0.80657 0.0
H1040 H 0.27234 0.00211 0.77558 0.0
H1041 H 0.26195 0.98357 0.79829 0.0
H1042 H 0.30356 0.00632 0.83161 0.0
H1043 H 0.31365 0.02529 0.80901 0.0
O1044 O 0.34555 0.00567 0.67125 0.0
O1045 O 0.36782 0.00474 0.68836 0.0
O1046 O 0.264 0.12588 0.77443 0.0
O1047 O 0.29125 0.13681 0.77839 0.0
C1048 C 0.30889 0.02105 0.76227 0.0
C1049 C 0.31381 0.03212 0.74925 0.0
C1050 C 0.30887 0.04887 0.7513 0.0
C1051 C 0.29922 0.05462 0.76645 0.0
C1052 C 0.29434 0.04356 0.77948 0.0
C1053 C 0.29925 0.0268 0.7774 0.0
C1054 C 0.3128 0.00304 0.75944 0.0
C1055 C 0.30376 0.99164 0.74685 0.0
C1056 C 0.30748 0.97472 0.74387 0.0
C1057 C 0.32034 0.96889 0.75341 0.0
C1058 C 0.32935 0.98036 0.76609 0.0
C1059 C 0.32555 0.99731 0.76913 0.0
C1060 C 0.32388 0.02602 0.73331 0.0
C1061 C 0.3163 0.02362 0.71675 0.0
C1062 C 0.32574 0.01776 0.70178 0.0
C1063 C 0.34292 0.01415 0.70312 0.0
C1064 C 0.35044 0.01656 0.71978 0.0
C1065 C 0.341 0.02245 0.73473 0.0
C1066 C 0.31345 0.06046 0.73748 0.0
C1067 C 0.30038 0.0657 0.72784 0.0
C1068 C 0.30425 0.07843 0.71666 0.0
C1069 C 0.32129 0.08598 0.71478 0.0
C1070 C 0.33452 0.07999 0.72368 0.0
C1071 C 0.33061 0.06735 0.73501 0.0
C1072 C 0.29405 0.07227 0.76858 0.0
C1073 C 0.27667 0.07508 0.76734 0.0
C1074 C 0.2718 0.09166 0.76953 0.0
C1075 C 0.28427 0.10574 0.7729 0.0
C1076 C 0.30169 0.10285 0.77401 0.0
C1077 C 0.30653 0.08626 0.77189 0.0
C1078 C 0.28324 0.04939 0.79477 0.0
C1079 C 0.26578 0.0429 0.79572 0.0
C1080 C 0.25458 0.05017 0.80844 0.0
C1081 C 0.26061 0.06426 0.82019 0.0
C1082 C 0.27824 0.07032 0.81965 0.0
C1083 C 0.2895 0.06284 0.80713 0.0
C1084 C 0.29366 0.01504 0.79075 0.0
C1085 C 0.27923 0.00305 0.78776 0.0
C1086 C 0.27333 0.99254 0.80067 0.0
C1087 C 0.28201 0.99365 0.81657 0.0
C1088 C 0.29675 0.0053 0.81938 0.0
C1089 C 0.30246 0.01608 0.80657 0.0
C1090 C 0.3529 0.00791 0.68718 0.0
C1091 C 0.27916 0.12338 0.77527 0.0
H1092 H 0.98075 0.16791 0.85928 0.0
H1093 H 0.14288 0.304 0.83373 0.0
H1094 H 0.9983 0.24108 0.7848 0.0
H1095 H 0.9671 0.23276 0.78287 0.0
H1096 H 0.96058 0.24881 0.83839 0.0
H1097 H 0.99164 0.25782 0.84012 0.0
H1098 H 0.01207 0.21515 0.81063 0.0
H1099 H 0.99793 0.19211 0.82655 0.0
H1100 H 0.00766 0.22338 0.87595 0.0
H1101 H 0.02159 0.24637 0.85985 0.0
H1102 H 0.05348 0.21925 0.81757 0.0
H1103 H 0.07253 0.20444 0.83391 0.0
H1104 H 0.07715 0.24761 0.87398 0.0
H1105 H 0.0585 0.26248 0.85719 0.0
H1106 H 0.07881 0.24689 0.80328 0.0
H1107 H 0.10979 0.25545 0.80634 0.0
H1108 H 0.0983 0.30277 0.83612 0.0
H1109 H 0.06737 0.29396 0.83312 0.0
H1110 H 0.06393 0.26791 0.77729 0.0
H1111 H 0.08023 0.2895 0.76103 0.0
H1112 H 0.05635 0.32904 0.79383 0.0
H1113 H 0.04029 0.30725 0.8103 0.0
H1114 H 0.02539 0.26695 0.76855 0.0
H1115 H 0.00616 0.27918 0.74988 0.0
H1116 H 0.97986 0.30122 0.79638 0.0
H1117 H 0.99921 0.28903 0.81495 0.0
O1118 O 0.98643 0.17717 0.85324 0.0
O1119 O 0.99186 0.19372 0.87828 0.0
O1120 O 0.13594 0.27577 0.81695 0.0
O1121 O 0.13072 0.3003 0.83232 0.0
C1122 C 0.01616 0.25507 0.81382 0.0
C1123 C 0.02615 0.24649 0.82437 0.0
C1124 C 0.04408 0.25124 0.82562 0.0
C1125 C 0.05208 0.26452 0.81633 0.0
C1126 C 0.04219 0.27287 0.8055 0.0
C1127 C 0.0242 0.26828 0.80435 0.0
C1128 C 0.99725 0.25007 0.8126 0.0
C1129 C 0.99011 0.243 0.79649 0.0
C1130 C 0.97235 0.23824 0.7954 0.0
C1131 C 0.96155 0.24012 0.8105 0.0
C1132 C 0.96871 0.24714 0.82661 0.0
C1133 C 0.98639 0.25224 0.82761 0.0
C1134 C 0.01785 0.23241 0.83409 0.0
C1135 C 0.01111 0.21699 0.82489 0.0
C1136 C 0.00306 0.20385 0.83402 0.0
C1137 C 0.00166 0.2059 0.85253 0.0
C1138 C 0.00852 0.22137 0.8617 0.0
C1139 C 0.01653 0.23451 0.85255 0.0
C1140 C 0.05469 0.24192 0.83621 0.0
C1141 C 0.05854 0.22541 0.82995 0.0
C1142 C 0.06935 0.21696 0.83935 0.0
C1143 C 0.07642 0.22484 0.85525 0.0
C1144 C 0.07217 0.24128 0.86165 0.0
C1145 C 0.06144 0.24976 0.85217 0.0
C1146 C 0.07088 0.26979 0.81803 0.0
C1147 C 0.08303 0.25906 0.81052 0.0
C1148 C 0.1007 0.264 0.81225 0.0
C1149 C 0.10653 0.2798 0.8215 0.0
C1150 C 0.09427 0.29053 0.82893 0.0
C1151 C 0.0766 0.28555 0.82722 0.0
C1152 C 0.05096 0.28604 0.79494 0.0
C1153 C 0.06215 0.28123 0.78087 0.0
C1154 C 0.07137 0.29357 0.77156 0.0
C1155 C 0.06957 0.31098 0.77615 0.0
C1156 C 0.05813 0.31574 0.79011 0.0
C1157 C 0.04886 0.30335 0.79942 0.0
C1158 C 0.0137 0.27711 0.7931 0.0
C1159 C 0.01568 0.27468 0.77468 0.0
C1160 C 0.00467 0.28164 0.76406 0.0
C1161 C 0.99142 0.29105 0.77167 0.0
C1162 C 0.98978 0.29382 0.79014 0.0
C1163 C 0.00087 0.28697 0.80075 0.0
C1164 C 0.99304 0.19195 0.86218 0.0
C1165 C 0.12529 0.2851 0.82341 0.0
H1166 H 0.65634 0.00092 0.66754 0.0
H1167 H 0.72024 0.88142 0.78338 0.0
H1168 H 0.72277 0.0228 0.72987 0.0
H1169 H 0.71525 0.05083 0.72403 0.0
H1170 H 0.69094 0.0575 0.77579 0.0
H1171 H 0.69818 0.02925 0.78141 0.0
H1172 H 0.71092 0.98695 0.71273 0.0
H1173 H 0.69134 0.99133 0.68976 0.0
H1174 H 0.6546 0.00894 0.72984 0.0
H1175 H 0.6742 0.00425 0.75269 0.0
H1176 H 0.7256 0.95404 0.72752 0.0
H1177 H 0.713 0.93258 0.70476 0.0
H1178 H 0.66183 0.94345 0.7233 0.0
H1179 H 0.67446 0.96435 0.74664 0.0
H1180 H 0.7498 0.95787 0.75942 0.0
H1181 H 0.75503 0.92891 0.76438 0.0
H1182 H 0.70125 0.91838 0.77985 0.0
H1183 H 0.69624 0.94744 0.77505 0.0
H1184 H 0.76252 0.99563 0.77925 0.0
H1185 H 0.78091 0.98743 0.80131 0.0
H1186 H 0.73625 0.9598 0.82444 0.0
H1187 H 0.71793 0.96971 0.80362 0.0
H1188 H 0.74986 0.02592 0.75909 0.0
H1189 H 0.76355 0.05232 0.77416 0.0
H1190 H 0.73705 0.04033 0.82278 0.0
H1191 H 0.72266 0.01429 0.80722 0.0
O1192 O 0.66391 0.99933 0.67685 0.0
O1193 O 0.64563 0.00865 0.69796 0.0
O1194 O 0.74605 0.89899 0.77319 0.0
O1195 O 0.71851 0.89293 0.78125 0.0
C1196 C 0.71409 0.00621 0.75887 0.0
C1197 C 0.70572 0.99221 0.74831 0.0
C1198 C 0.70869 0.97538 0.75084 0.0
C1199 C 0.71961 0.97252 0.76433 0.0
C1200 C 0.72781 0.98652 0.77519 0.0
C1201 C 0.72542 0.00339 0.77207 0.0
C1202 C 0.71089 0.0239 0.756 0.0
C1203 C 0.71584 0.03031 0.73995 0.0
C1204 C 0.71151 0.04629 0.73663 0.0
C1205 C 0.7024 0.05628 0.74941 0.0
C1206 C 0.69804 0.05011 0.76574 0.0
C1207 C 0.70216 0.034 0.76896 0.0
C1208 C 0.69395 0.99523 0.73436 0.0
C1209 C 0.69862 0.99171 0.71651 0.0
C1210 C 0.68742 0.99425 0.70342 0.0
C1211 C 0.67139 1.00047 0.70796 0.0
C1212 C 0.66684 0.00412 0.72589 0.0
C1213 C 0.67802 0.0015 0.73896 0.0
C1214 C 0.70096 0.96082 0.7387 0.0
C1215 C 0.71167 0.95144 0.72702 0.0
C1216 C 0.70448 0.93924 0.71403 0.0
C1217 C 0.68649 0.9365 0.71231 0.0
C1218 C 0.67575 0.94543 0.72438 0.0
C1219 C 0.68293 0.95734 0.73765 0.0
C1220 C 0.72265 0.95476 0.76691 0.0
C1221 C 0.73917 0.94929 0.76391 0.0
C1222 C 0.74212 0.93274 0.76673 0.0
C1223 C 0.72855 0.92133 0.77253 0.0
C1224 C 0.71198 0.92684 0.77539 0.0
C1225 C 0.70906 0.94341 0.7726 0.0
C1226 C 0.73884 0.98324 0.78973 0.0
C1227 C 0.75668 0.98825 0.78944 0.0
C1228 C 0.76724 0.98322 0.80193 0.0
C1229 C 0.76028 0.97262 0.81467 0.0
C1230 C 0.74226 0.96814 0.81517 0.0
C1231 C 0.73168 0.97364 0.80307 0.0
C1232 C 0.73518 0.01826 0.78202 0.0
C1233 C 0.7471 0.02896 0.77303 0.0
C1234 C 0.75503 0.04398 0.78172 0.0
C1235 C 0.75139 0.04852 0.79971 0.0
C1236 C 0.73994 0.03738 0.80886 0.0
C1237 C 0.73184 0.02241 0.80007 0.0
C1238 C 0.6595 0.00309 0.69402 0.0
C1239 C 0.73163 0.90376 0.77565 0.0
H1240 H 0.17261 0.67577 0.524 0.0
H1241 H 0.32198 0.7782 0.43639 0.0
H1242 H 0.23569 0.74356 0.56574 0.0
H1243 H 0.21976 0.73112 0.59015 0.0
H1244 H 0.26073 0.69923 0.59483 0.0
H1245 H 0.27646 0.71161 0.57 0.0
H1246 H 0.22531 0.73422 0.52559 0.0
H1247 H 0.19999 0.71307 0.52359 0.0
H1248 H 0.23147 0.67464 0.53651 0.0
H1249 H 0.25673 0.69588 0.53827 0.0
H1250 H 0.24721 0.75516 0.49867 0.0
H1251 H 0.24023 0.74849 0.46753 0.0
H1252 H 0.25921 0.69922 0.46727 0.0
H1253 H 0.26652 0.70614 0.4984 0.0
H1254 H 0.27631 0.78165 0.51226 0.0
H1255 H 0.28852 0.79554 0.48688 0.0
H1256 H 0.30965 0.74887 0.46605 0.0
H1257 H 0.29762 0.73522 0.49168 0.0
H1258 H 0.28664 0.7872 0.55071 0.0
H1259 H 0.30753 0.81133 0.54445 0.0
H1260 H 0.34029 0.77644 0.51595 0.0
H1261 H 0.31972 0.75231 0.52282 0.0
H1262 H 0.27138 0.77084 0.57736 0.0
H1263 H 0.28767 0.78178 0.60384 0.0
H1264 H 0.3247 0.74538 0.58952 0.0
H1265 H 0.30851 0.73472 0.5629 0.0
O1266 O 0.1828 0.6839 0.52478 0.0
O1267 O 0.19954 0.66463 0.53152 0.0
O1268 O 0.3056 0.79657 0.45771 0.0
O1269 O 0.31691 0.77296 0.4465 0.0
C1270 C 0.26563 0.7348 0.55001 0.0
C1271 C 0.25814 0.72948 0.53343 0.0
C1272 C 0.26502 0.73671 0.51826 0.0
C1273 C 0.27928 0.74932 0.51966 0.0
C1274 C 0.287 0.75435 0.53612 0.0
C1275 C 0.28031 0.74694 0.55125 0.0
C1276 C 0.25721 0.7285 0.56614 0.0
C1277 C 0.24133 0.73406 0.5722 0.0
C1278 C 0.23229 0.72698 0.58621 0.0
C1279 C 0.23898 0.71418 0.59448 0.0
C1280 C 0.25517 0.70896 0.58865 0.0
C1281 C 0.26424 0.7161 0.5746 0.0
C1282 C 0.24284 0.71657 0.53204 0.0
C1283 C 0.22672 0.7212 0.52788 0.0
C1284 C 0.21227 0.70911 0.5268 0.0
C1285 C 0.2137 0.69216 0.5299 0.0
C1286 C 0.22991 0.68758 0.53405 0.0
C1287 C 0.24435 0.69968 0.53509 0.0
C1288 C 0.25752 0.7312 0.50072 0.0
C1289 C 0.24957 0.74281 0.49197 0.0
C1290 C 0.24568 0.73903 0.47421 0.0
C1291 C 0.24941 0.72344 0.465 0.0
C1292 C 0.2562 0.71131 0.47411 0.0
C1293 C 0.26032 0.71521 0.49186 0.0
C1294 C 0.28614 0.75746 0.50382 0.0
C1295 C 0.2836 0.77446 0.50221 0.0
C1296 C 0.29056 0.78235 0.48769 0.0
C1297 C 0.30009 0.77332 0.47444 0.0
C1298 C 0.30241 0.7562 0.47602 0.0
C1299 C 0.29551 0.74835 0.4906 0.0
C1300 C 0.30167 0.768 0.53722 0.0
C1301 C 0.29874 0.7847 0.54393 0.0
C1302 C 0.31059 0.79846 0.54023 0.0
C1303 C 0.32533 0.79565 0.52958 0.0
C1304 C 0.32894 0.77886 0.52414 0.0
C1305 C 0.31729 0.76511 0.52815 0.0
C1306 C 0.28881 0.75203 0.56828 0.0
C1307 C 0.28288 0.7651 0.5801 0.0
C1308 C 0.29221 0.77136 0.59511 0.0
C1309 C 0.30746 0.76445 0.59863 0.0
C1310 C 0.31294 0.75084 0.58715 0.0
C1311 C 0.30374 0.74478 0.57198 0.0
C1312 C 0.19831 0.67936 0.5288 0.0
C1313 C 0.30766 0.7817 0.45908 0.0
H1314 H 0.84872 0.68553 0.52379 0.0
H1315 H 0.82365 0.8014 0.38508 0.0
H1316 H 0.78298 0.74244 0.52564 0.0
H1317 H 0.78744 0.73417 0.55493 0.0
H1318 H 0.81456 0.78382 0.56968 0.0
H1319 H 0.81015 0.79194 0.54027 0.0
H1320 H 0.80319 0.72751 0.4927 0.0
H1321 H 0.81937 0.70591 0.50308 0.0
H1322 H 0.85209 0.74576 0.53257 0.0
H1323 H 0.83598 0.76724 0.52184 0.0
H1324 H 0.79818 0.74227 0.45529 0.0
H1325 H 0.81458 0.72225 0.43656 0.0
H1326 H 0.86132 0.74338 0.46296 0.0
H1327 H 0.8449 0.76385 0.48134 0.0
H1328 H 0.77635 0.76989 0.45102 0.0
H1329 H 0.77905 0.77579 0.42022 0.0
H1330 H 0.83143 0.79858 0.42889 0.0
H1331 H 0.82846 0.79277 0.45973 0.0
H1332 H 0.75523 0.78215 0.48092 0.0
H1333 H 0.73821 0.80227 0.46885 0.0
H1334 H 0.78334 0.839 0.46879 0.0
H1335 H 0.80033 0.81871 0.48069 0.0
H1336 H 0.75737 0.76946 0.51926 0.0
H1337 H 0.73481 0.78456 0.53542 0.0
H1338 H 0.76787 0.83197 0.53553 0.0
H1339 H 0.79025 0.81673 0.51914 0.0
O1340 O 0.84252 0.69428 0.51981 0.0
O1341 O 0.85874 0.71523 0.53504 0.0
O1342 O 0.7952 0.78719 0.39348 0.0
O1343 O 0.82221 0.79897 0.39722 0.0
C1344 C 0.79748 0.77107 0.51206 0.0
C1345 C 0.80853 0.762 0.5002 0.0
C1346 C 0.8099 0.76512 0.48231 0.0
C1347 C 0.80047 0.77752 0.47634 0.0
C1348 C 0.78938 0.78651 0.48817 0.0
C1349 C 0.78783 0.78324 0.50601 0.0
C1350 C 0.79637 0.76773 0.53082 0.0
C1351 C 0.78948 0.75167 0.53536 0.0
C1352 C 0.79215 0.74693 0.55202 0.0
C1353 C 0.80157 0.75827 0.56447 0.0
C1354 C 0.80722 0.77485 0.56036 0.0
C1355 C 0.80467 0.77953 0.54361 0.0
C1356 C 0.81844 0.74892 0.5065 0.0
C1357 C 0.81391 0.73153 0.50133 0.0
C1358 C 0.82315 0.71923 0.50732 0.0
C1359 C 0.83703 0.72411 0.51867 0.0
C1360 C 0.84148 0.74157 0.52385 0.0
C1361 C 0.83229 0.75386 0.51777 0.0
C1362 C 0.82034 0.75452 0.46966 0.0
C1363 C 0.81203 0.7429 0.45672 0.0
C1364 C 0.82139 0.73146 0.44608 0.0
C1365 C 0.83917 0.73128 0.4484 0.0
C1366 C 0.8476 0.74323 0.46103 0.0
C1367 C 0.83827 0.7549 0.47146 0.0
C1368 C 0.80216 0.78103 0.45762 0.0
C1369 C 0.78834 0.77627 0.44627 0.0
C1370 C 0.78995 0.7796 0.42867 0.0
C1371 C 0.80546 0.78769 0.42209 0.0
C1372 C 0.81931 0.79235 0.43352 0.0
C1373 C 0.81766 0.78904 0.45113 0.0
C1374 C 0.77897 0.79902 0.48165 0.0
C1375 C 0.76139 0.79457 0.47837 0.0
C1376 C 0.75174 0.806 0.47142 0.0
C1377 C 0.7595 0.82214 0.46787 0.0
C1378 C 0.77705 0.82668 0.47152 0.0
C1379 C 0.78675 0.81514 0.47825 0.0
C1380 C 0.77539 0.79203 0.51802 0.0
C1381 C 0.75984 0.78305 0.5231 0.0
C1382 C 0.74699 0.7917 0.53234 0.0
C1383 C 0.7495 0.80949 0.53664 0.0
C1384 C 0.76544 0.81831 0.53216 0.0
C1385 C 0.77827 0.80964 0.52293 0.0
C1386 C 0.84678 0.711 0.52504 0.0
C1387 C 0.80724 0.79124 0.4034 0.0
H1388 H 0.66328 0.19006 0.55475 0.0
H1389 H 0.79433 0.26495 0.4251 0.0
H1390 H 0.73039 0.26368 0.57201 0.0
H1391 H 0.71762 0.25677 0.60033 0.0
H1392 H 0.75867 0.22534 0.60634 0.0
H1393 H 0.77126 0.23221 0.57764 0.0
H1394 H 0.71405 0.24575 0.5368 0.0
H1395 H 0.68922 0.22539 0.54285 0.0
H1396 H 0.7239 0.19068 0.55791 0.0
H1397 H 0.74861 0.21109 0.55161 0.0
H1398 H 0.73178 0.26079 0.50273 0.0
H1399 H 0.7168 0.24781 0.47622 0.0
H1400 H 0.73429 0.19921 0.48337 0.0
H1401 H 0.74975 0.21242 0.5097 0.0
H1402 H 0.7615 0.28729 0.50534 0.0
H1403 H 0.7691 0.29414 0.47539 0.0
H1404 H 0.78848 0.24491 0.4632 0.0
H1405 H 0.78107 0.23834 0.4933 0.0
H1406 H 0.77379 0.30064 0.54278 0.0
H1407 H 0.79165 0.32431 0.53099 0.0
H1408 H 0.82525 0.28873 0.50487 0.0
H1409 H 0.80751 0.26521 0.51704 0.0
H1410 H 0.76339 0.28743 0.57717 0.0
H1411 H 0.78178 0.30228 0.60056 0.0
H1412 H 0.82329 0.27238 0.58143 0.0
H1413 H 0.8047 0.25744 0.55823 0.0
O1414 O 0.67328 0.19788 0.55234 0.0
O1415 O 0.69166 0.18052 0.56 0.0
O1416 O 0.78129 0.28783 0.44406 0.0
O1417 O 0.79124 0.26259 0.43705 0.0
C1418 C 0.75775 0.25097 0.55456 0.0
C1419 C 0.74813 0.24236 0.54031 0.0
C1420 C 0.75252 0.24601 0.52294 0.0
C1421 C 0.76646 0.25833 0.51981 0.0
C1422 C 0.77611 0.2669 0.53404 0.0
C1423 C 0.77199 0.26294 0.55138 0.0
C1424 C 0.75172 0.24845 0.57283 0.0
C1425 C 0.73678 0.25554 0.5796 0.0
C1426 C 0.72956 0.25162 0.59582 0.0
C1427 C 0.73713 0.24049 0.60561 0.0
C1428 C 0.75247 0.23383 0.59904 0.0
C1429 C 0.75975 0.23784 0.58276 0.0
C1430 C 0.7331 0.22986 0.54372 0.0
C1431 C 0.71624 0.2337 0.54129 0.0
C1432 C 0.70209 0.22206 0.54482 0.0
C1433 C 0.70457 0.20641 0.55087 0.0
C1434 C 0.72153 0.20262 0.55326 0.0
C1435 C 0.73566 0.21425 0.54969 0.0
C1436 C 0.74203 0.2376 0.50798 0.0
C1437 C 0.73237 0.24734 0.49859 0.0
C1438 C 0.72384 0.23994 0.4835 0.0
C1439 C 0.72455 0.22258 0.47774 0.0
C1440 C 0.73354 0.21262 0.48761 0.0
C1441 C 0.74234 0.22012 0.50259 0.0
C1442 C 0.77086 0.26238 0.50152 0.0
C1443 C 0.76749 0.27805 0.49621 0.0
C1444 C 0.77179 0.2819 0.47908 0.0
C1445 C 0.77942 0.27007 0.4669 0.0
C1446 C 0.78264 0.25431 0.47225 0.0
C1447 C 0.77841 0.25051 0.48941 0.0
C1448 C 0.78933 0.28122 0.53071 0.0
C1449 C 0.78537 0.29805 0.53505 0.0
C1450 C 0.79546 0.31152 0.52812 0.0
C1451 C 0.80971 0.30836 0.51679 0.0
C1452 C 0.81443 0.29161 0.51364 0.0
C1453 C 0.80432 0.27815 0.52057 0.0
C1454 C 0.78272 0.27134 0.5661 0.0
C1455 C 0.77638 0.28397 0.57819 0.0
C1456 C 0.78694 0.2925 0.59143 0.0
C1457 C 0.80399 0.28851 0.59279 0.0
C1458 C 0.81016 0.2756 0.58083 0.0
C1459 C 0.79962 0.26713 0.56754 0.0
C1460 C 0.68951 0.19412 0.55469 0.0
C1461 C 0.78401 0.27409 0.44867 0.0
H1462 H 0.19924 0.39104 0.56902 0.0
H1463 H 0.26192 0.28181 0.40104 0.0
H1464 H 0.26803 0.33929 0.55513 0.0
H1465 H 0.25422 0.35299 0.58094 0.0
H1466 H 0.22195 0.30592 0.58707 0.0
H1467 H 0.23514 0.29278 0.56007 0.0
H1468 H 0.25025 0.35336 0.52733 0.0
H1469 H 0.23151 0.37349 0.5427 0.0
H1470 H 0.19447 0.33128 0.55426 0.0
H1471 H 0.21328 0.31133 0.53875 0.0
H1472 H 0.26082 0.34211 0.48871 0.0
H1473 H 0.24474 0.35875 0.47097 0.0
H1474 H 0.19813 0.32577 0.4801 0.0
H1475 H 0.21433 0.30923 0.49774 0.0
H1476 H 0.28934 0.31212 0.48126 0.0
H1477 H 0.29503 0.30707 0.44948 0.0
H1478 H 0.24272 0.28334 0.44275 0.0
H1479 H 0.23728 0.28829 0.47457 0.0
H1480 H 0.30312 0.29485 0.51382 0.0
H1481 H 0.32138 0.27304 0.50071 0.0
H1482 H 0.27615 0.24298 0.47885 0.0
H1483 H 0.25807 0.26467 0.492 0.0
H1484 H 0.28958 0.31089 0.55416 0.0
H1485 H 0.30464 0.29494 0.57352 0.0
H1486 H 0.27712 0.24793 0.55099 0.0
H1487 H 0.26142 0.26396 0.53231 0.0
O1488 O 0.20608 0.38294 0.56228 0.0
O1489 O 0.18679 0.36093 0.56662 0.0
O1490 O 0.28681 0.29618 0.41784 0.0
O1491 O 0.26003 0.28395 0.41365 0.0
C1492 C 0.25465 0.31045 0.53633 0.0
C1493 C 0.24546 0.31867 0.52469 0.0
C1494 C 0.24806 0.31535 0.50635 0.0
C1495 C 0.25961 0.30356 0.49952 0.0
C1496 C 0.26816 0.29467 0.51111 0.0
C1497 C 0.2657 0.29813 0.5296 0.0
C1498 C 0.25229 0.31522 0.55552 0.0
C1499 C 0.25851 0.33172 0.56249 0.0
C1500 C 0.25049 0.33955 0.57739 0.0
C1501 C 0.23641 0.33081 0.5859 0.0
C1502 C 0.23223 0.31331 0.58047 0.0
C1503 C 0.24 0.3056 0.56524 0.0
C1504 C 0.23311 0.33092 0.53196 0.0
C1505 C 0.23794 0.34853 0.53292 0.0
C1506 C 0.22727 0.35998 0.54182 0.0
C1507 C 0.21155 0.35399 0.54984 0.0
C1508 C 0.2065 0.33633 0.54828 0.0
C1509 C 0.21718 0.32491 0.53938 0.0
C1510 C 0.23871 0.32449 0.49443 0.0
C1511 C 0.24718 0.3384 0.48668 0.0
C1512 C 0.23798 0.34792 0.47668 0.0
C1513 C 0.22018 0.34356 0.4742 0.0
C1514 C 0.21186 0.32932 0.48164 0.0
C1515 C 0.22104 0.31991 0.49174 0.0
C1516 C 0.26289 0.30062 0.48019 0.0
C1517 C 0.27914 0.30582 0.47289 0.0
C1518 C 0.28235 0.30294 0.45474 0.0
C1519 C 0.26931 0.29482 0.44356 0.0
C1520 C 0.25303 0.28965 0.45096 0.0
C1521 C 0.24986 0.29251 0.46912 0.0
C1522 C 0.2793 0.28138 0.50372 0.0
C1523 C 0.29719 0.28349 0.50628 0.0
C1524 C 0.30757 0.27104 0.49885 0.0
C1525 C 0.30019 0.25641 0.48865 0.0
C1526 C 0.28222 0.25426 0.4864 0.0
C1527 C 0.27188 0.2666 0.4939 0.0
C1528 C 0.27439 0.28861 0.5418 0.0
C1529 C 0.28657 0.2972 0.55361 0.0
C1530 C 0.2952 0.2881 0.56458 0.0
C1531 C 0.29204 0.27026 0.5636 0.0
C1532 C 0.27983 0.26168 0.55184 0.0
C1533 C 0.2709 0.27081 0.5412 0.0
C1534 C 0.20066 0.3661 0.56005 0.0
C1535 C 0.27264 0.29172 0.42426 0.0
H1536 H 0.86492 0.49672 0.68903 0.0
H1537 H 0.77124 0.63932 0.80731 0.0
H1538 H 0.78247 0.48637 0.76148 0.0
H1539 H 0.79278 0.45823 0.75466 0.0
H1540 H 0.84186 0.47773 0.77746 0.0
H1541 H 0.83147 0.50591 0.78398 0.0
H1542 H 0.80402 0.50776 0.73447 0.0
H1543 H 0.82614 0.50014 0.71219 0.0
H1544 H 0.86499 0.53154 0.74347 0.0
H1545 H 0.84274 0.53892 0.76573 0.0
H1546 H 0.7981 0.54883 0.7335 0.0
H1547 H 0.80804 0.57382 0.71816 0.0
H1548 H 0.83666 0.59599 0.76391 0.0
H1549 H 0.82637 0.57117 0.77919 0.0
H1550 H 0.77195 0.5644 0.75796 0.0
H1551 H 0.7637 0.59355 0.76209 0.0
H1552 H 0.78759 0.60142 0.81291 0.0
H1553 H 0.79591 0.5723 0.8085 0.0
H1554 H 0.74973 0.54277 0.78236 0.0
H1555 H 0.72642 0.55126 0.8028 0.0
H1556 H 0.7585 0.54724 0.84675 0.0
H1557 H 0.78176 0.5387 0.82614 0.0
H1558 H 0.75389 0.50519 0.78756 0.0
H1559 H 0.73932 0.48632 0.80806 0.0
H1560 H 0.78763 0.48506 0.83353 0.0
H1561 H 0.80208 0.50442 0.8133 0.0
O1562 O 0.85639 0.49993 0.69798 0.0
O1563 O 0.87586 0.5163 0.71452 0.0
O1564 O 0.7622 0.62303 0.77913 0.0
O1565 O 0.77431 0.62773 0.80534 0.0
C1566 C 0.80057 0.51554 0.77567 0.0
C1567 C 0.80835 0.52816 0.76531 0.0
C1568 C 0.80314 0.54477 0.76777 0.0
C1569 C 0.78988 0.54871 0.78021 0.0
C1570 C 0.7818 0.53603 0.79023 0.0
C1571 C 0.78725 0.51945 0.78811 0.0
C1572 C 0.80625 0.49814 0.77315 0.0
C1573 C 0.79535 0.48447 0.76522 0.0
C1574 C 0.80125 0.4684 0.7614 0.0
C1575 C 0.81818 0.46576 0.76546 0.0
C1576 C 0.82886 0.47941 0.77394 0.0
C1577 C 0.82294 0.49547 0.77775 0.0
C1578 C 0.82179 0.52389 0.75168 0.0
C1579 C 0.81732 0.51296 0.73647 0.0
C1580 C 0.82998 0.50865 0.72377 0.0
C1581 C 0.84734 0.51523 0.72605 0.0
C1582 C 0.85174 0.52626 0.7413 0.0
C1583 C 0.83907 0.53053 0.75401 0.0
C1584 C 0.81149 0.55829 0.75744 0.0
C1585 C 0.80681 0.55896 0.74001 0.0
C1586 C 0.81249 0.57322 0.7313 0.0
C1587 C 0.82293 0.58698 0.73993 0.0
C1588 C 0.82834 0.58576 0.75705 0.0
C1589 C 0.82263 0.57155 0.76574 0.0
C1590 C 0.78456 0.56629 0.78291 0.0
C1591 C 0.77542 0.57247 0.76994 0.0
C1592 C 0.7707 0.58911 0.77236 0.0
C1593 C 0.775 0.59983 0.78784 0.0
C1594 C 0.78408 0.59352 0.80084 0.0
C1595 C 0.78882 0.57689 0.79839 0.0
C1596 C 0.76743 0.54022 0.80279 0.0
C1597 C 0.75168 0.54368 0.79641 0.0
C1598 C 0.73842 0.54856 0.80809 0.0
C1599 C 0.74067 0.55002 0.82638 0.0
C1600 C 0.75633 0.54609 0.83274 0.0
C1601 C 0.76963 0.54128 0.82102 0.0
C1602 C 0.779 0.50631 0.79905 0.0
C1603 C 0.76135 0.50078 0.7975 0.0
C1604 C 0.75306 0.49005 0.8092 0.0
C1605 C 0.76236 0.4844 0.82242 0.0
C1606 C 0.78021 0.48923 0.82341 0.0
C1607 C 0.78846 0.50023 0.81187 0.0
C1608 C 0.86077 0.51057 0.71255 0.0
C1609 C 0.77009 0.61754 0.79044 0.0
H1610 H 0.32207 0.52193 0.87936 0.0
H1611 H 0.2238 0.65371 0.80717 0.0
H1612 H 0.26832 0.51334 0.80161 0.0
H1613 H 0.27931 0.48733 0.80899 0.0
H1614 H 0.23189 0.4747 0.83806 0.0
H1615 H 0.221 0.50115 0.8309 0.0
H1616 H 0.2845 0.54364 0.82236 0.0
H1617 H 0.30456 0.53621 0.84344 0.0
H1618 H 0.26129 0.52068 0.87734 0.0
H1619 H 0.24139 0.52835 0.85622 0.0
H1620 H 0.27632 0.57289 0.80744 0.0
H1621 H 0.29329 0.59912 0.81902 0.0
H1622 H 0.26195 0.60031 0.86704 0.0
H1623 H 0.2449 0.57391 0.85518 0.0
H1624 H 0.24674 0.57599 0.78048 0.0
H1625 H 0.24496 0.60551 0.77474 0.0
H1626 H 0.2209 0.61592 0.82626 0.0
H1627 H 0.22251 0.58631 0.83171 0.0
H1628 H 0.22605 0.53842 0.76484 0.0
H1629 H 0.2103 0.54961 0.74262 0.0
H1630 H 0.18398 0.57995 0.78394 0.0
H1631 H 0.19795 0.56672 0.80582 0.0
H1632 H 0.23845 0.50586 0.77847 0.0
H1633 H 0.22089 0.48551 0.75834 0.0
H1634 H 0.17451 0.50397 0.78269 0.0
H1635 H 0.1921 0.52379 0.80345 0.0
O1636 O 0.3139 0.52502 0.87131 0.0
O1637 O 0.29121 0.51718 0.88825 0.0
O1638 O 0.23696 0.63594 0.78267 0.0
O1639 O 0.22468 0.64198 0.80909 0.0
C1640 C 0.23954 0.52684 0.81472 0.0
C1641 C 0.24928 0.54042 0.82471 0.0
C1642 C 0.2476 0.55741 0.82199 0.0
C1643 C 0.23565 0.56102 0.80986 0.0
C1644 C 0.2252 0.54758 0.80044 0.0
C1645 C 0.22716 0.53037 0.80287 0.0
C1646 C 0.2439 0.50917 0.81578 0.0
C1647 C 0.2601 0.50477 0.80921 0.0
C1648 C 0.2664 0.48999 0.81351 0.0
C1649 C 0.25651 0.47917 0.82424 0.0
C1650 C 0.23972 0.48287 0.82973 0.0
C1651 C 0.23348 0.49788 0.8256 0.0
C1652 C 0.26152 0.5367 0.83787 0.0
C1653 C 0.2794 0.53886 0.83446 0.0
C1654 C 0.29082 0.5345 0.84648 0.0
C1655 C 0.28453 0.52785 0.86209 0.0
C1656 C 0.26657 0.52579 0.86546 0.0
C1657 C 0.25518 0.53019 0.85345 0.0
C1658 C 0.25943 0.57156 0.83049 0.0
C1659 C 0.2734 0.5786 0.82063 0.0
C1660 C 0.28311 0.59355 0.82731 0.0
C1661 C 0.27894 0.6018 0.84395 0.0
C1662 C 0.26537 0.59428 0.85414 0.0
C1663 C 0.25572 0.57919 0.84747 0.0
C1664 C 0.23474 0.57903 0.8065 0.0
C1665 C 0.24106 0.58467 0.79048 0.0
C1666 C 0.24005 0.60153 0.78726 0.0
C1667 C 0.23278 0.61308 0.80005 0.0
C1668 C 0.22657 0.60737 0.81613 0.0
C1669 C 0.22752 0.59049 0.81931 0.0
C1670 C 0.21335 0.55187 0.78703 0.0
C1671 C 0.21633 0.54694 0.76906 0.0
C1672 C 0.20756 0.55377 0.75631 0.0
C1673 C 0.19614 0.5663 0.76119 0.0
C1674 C 0.19245 0.57034 0.77931 0.0
C1675 C 0.20064 0.5629 0.79201 0.0
C1676 C 0.21659 0.51628 0.79254 0.0
C1677 C 0.22451 0.50507 0.77998 0.0
C1678 C 0.21448 0.49351 0.76843 0.0
C1679 C 0.1964 0.49324 0.76902 0.0
C1680 C 0.18844 0.50397 0.78202 0.0
C1681 C 0.19846 0.51526 0.79384 0.0
C1682 C 0.29669 0.52302 0.87471 0.0
C1683 C 0.23164 0.631 0.79668 0.0
H1684 H 0.17597 0.54643 0.31417 0.0
H1685 H 0.2886 0.39676 0.25716 0.0
H1686 H 0.24545 0.54014 0.24135 0.0
H1687 H 0.2396 0.57005 0.24741 0.0
H1688 H 0.27672 0.57741 0.28887 0.0
H1689 H 0.28249 0.54753 0.28264 0.0
H1690 H 0.22341 0.51979 0.25915 0.0
H1691 H 0.20033 0.53118 0.27814 0.0
H1692 H 0.23187 0.53153 0.32357 0.0
H1693 H 0.25489 0.52026 0.30437 0.0
H1694 H 0.22261 0.48422 0.26445 0.0
H1695 H 0.20341 0.46927 0.28527 0.0
H1696 H 0.24707 0.46555 0.31728 0.0
H1697 H 0.26607 0.48095 0.29676 0.0
H1698 H 0.25317 0.46415 0.23485 0.0
H1699 H 0.25558 0.4334 0.2309 0.0
H1700 H 0.29363 0.43992 0.2715 0.0
H1701 H 0.29105 0.47062 0.27532 0.0
H1702 H 0.28373 0.49174 0.21279 0.0
H1703 H 0.3068 0.47893 0.19491 0.0
H1704 H 0.33559 0.47804 0.242 0.0
H1705 H 0.31269 0.49134 0.25961 0.0
H1706 H 0.27635 0.53231 0.21996 0.0
H1707 H 0.29727 0.55315 0.20699 0.0
H1708 H 0.33351 0.54817 0.24707 0.0
H1709 H 0.31245 0.52765 0.26006 0.0
O1710 O 0.1853 0.54203 0.30689 0.0
O1711 O 0.20202 0.54196 0.32982 0.0
O1712 O 0.2678 0.40621 0.23764 0.0
O1713 O 0.28737 0.40886 0.25847 0.0
C1714 C 0.26618 0.52322 0.25955 0.0
C1715 C 0.25468 0.51224 0.26889 0.0
C1716 C 0.25695 0.49473 0.26801 0.0
C1717 C 0.27049 0.48814 0.25745 0.0
C1718 C 0.28216 0.49918 0.24832 0.0
C1719 C 0.28005 0.51674 0.24945 0.0
C1720 C 0.26435 0.54174 0.2616 0.0
C1721 C 0.25248 0.54832 0.25155 0.0
C1722 C 0.2491 0.56534 0.25509 0.0
C1723 C 0.25763 0.57605 0.26869 0.0
C1724 C 0.27007 0.56954 0.27821 0.0
C1725 C 0.27336 0.55249 0.27471 0.0
C1726 C 0.2408 0.5193 0.28041 0.0
C1727 C 0.22532 0.52245 0.2732 0.0
C1728 C 0.21216 0.5289 0.28408 0.0
C1729 C 0.21425 0.53227 0.30238 0.0
C1730 C 0.22984 0.52909 0.30954 0.0
C1731 C 0.243 0.52266 0.29862 0.0
C1732 C 0.24573 0.48361 0.27908 0.0
C1733 C 0.22803 0.48001 0.27586 0.0
C1734 C 0.21711 0.47155 0.28775 0.0
C1735 C 0.2238 0.46633 0.30286 0.0
C1736 C 0.24164 0.46931 0.30564 0.0
C1737 C 0.25249 0.47802 0.29391 0.0
C1738 C 0.27197 0.46955 0.25532 0.0
C1739 C 0.262 0.45888 0.24287 0.0
C1740 C 0.26341 0.44134 0.24065 0.0
C1741 C 0.27482 0.4342 0.25088 0.0
C1742 C 0.28475 0.44499 0.2634 0.0
C1743 C 0.28332 0.46252 0.26559 0.0
C1744 C 0.29652 0.49228 0.23746 0.0
C1745 C 0.29511 0.48889 0.21916 0.0
C1746 C 0.30824 0.48149 0.20903 0.0
C1747 C 0.32298 0.47733 0.21705 0.0
C1748 C 0.32451 0.48121 0.23538 0.0
C1749 C 0.31139 0.48866 0.24548 0.0
C1750 C 0.29294 0.52853 0.24092 0.0
C1751 C 0.28886 0.53569 0.22583 0.0
C1752 C 0.30082 0.54749 0.21841 0.0
C1753 C 0.31698 0.55234 0.22607 0.0
C1754 C 0.32108 0.54486 0.24102 0.0
C1755 C 0.30915 0.53306 0.24838 0.0
C1756 C 0.20021 0.53904 0.31391 0.0
C1757 C 0.2764 0.41558 0.24854 0.0
H1758 H 0.69254 0.5518 0.19517 0.0
H1759 H 0.72439 0.39526 0.28054 0.0
H1760 H 0.76835 0.54438 0.25447 0.0
H1761 H 0.76735 0.57468 0.25098 0.0
H1762 H 0.73036 0.57871 0.29444 0.0
H1763 H 0.73193 0.54854 0.29832 0.0
H1764 H 0.74108 0.51662 0.23087 0.0
H1765 H 0.72361 0.53003 0.21146 0.0
H1766 H 0.69092 0.54578 0.25611 0.0
H1767 H 0.70838 0.53212 0.2753 0.0
H1768 H 0.74309 0.47552 0.23733 0.0
H1769 H 0.72325 0.45968 0.21578 0.0
H1770 H 0.6801 0.48038 0.2447 0.0
H1771 H 0.69993 0.49565 0.26669 0.0
H1772 H 0.76974 0.46823 0.26367 0.0
H1773 H 0.76747 0.43715 0.26293 0.0
H1774 H 0.71615 0.43757 0.28673 0.0
H1775 H 0.71866 0.46867 0.28757 0.0
H1776 H 0.79337 0.50128 0.28497 0.0
H1777 H 0.81244 0.48756 0.30195 0.0
H1778 H 0.76784 0.46354 0.32877 0.0
H1779 H 0.74917 0.47934 0.31343 0.0
H1780 H 0.78926 0.53521 0.27652 0.0
H1781 H 0.81238 0.55035 0.29463 0.0
H1782 H 0.78253 0.53915 0.34165 0.0
H1783 H 0.75956 0.52376 0.32332 0.0
O1784 O 0.69926 0.54656 0.20307 0.0
O1785 O 0.68298 0.55453 0.22649 0.0
O1786 O 0.75206 0.40802 0.26845 0.0
O1787 O 0.72562 0.40755 0.28066 0.0
C1788 C 0.74887 0.52554 0.277 0.0
C1789 C 0.73668 0.51533 0.26616 0.0
C1790 C 0.73517 0.49739 0.26581 0.0
C1791 C 0.74587 0.48961 0.27638 0.0
C1792 C 0.75816 0.49981 0.28729 0.0
C1793 C 0.75962 0.51783 0.28754 0.0
C1794 C 0.75039 0.54435 0.27679 0.0
C1795 C 0.76046 0.55195 0.26358 0.0
C1796 C 0.75981 0.56917 0.26155 0.0
C1797 C 0.74873 0.57893 0.27241 0.0
C1798 C 0.73897 0.57141 0.2859 0.0
C1799 C 0.73995 0.55428 0.2882 0.0
C1800 C 0.72602 0.52348 0.25446 0.0
C1801 C 0.73012 0.52296 0.2364 0.0
C1802 C 0.72014 0.53064 0.22537 0.0
C1803 C 0.70588 0.53901 0.23224 0.0
C1804 C 0.70182 0.53947 0.25039 0.0
C1805 C 0.71179 0.53173 0.26139 0.0
C1806 C 0.72296 0.48677 0.25357 0.0
C1807 C 0.72932 0.47635 0.23924 0.0
C1808 C 0.71802 0.46734 0.22696 0.0
C1809 C 0.7002 0.46888 0.22862 0.0
C1810 C 0.6938 0.47907 0.24312 0.0
C1811 C 0.70509 0.48779 0.25562 0.0
C1812 C 0.74439 0.4707 0.27573 0.0
C1813 C 0.75804 0.46159 0.26877 0.0
C1814 C 0.7567 0.44383 0.26833 0.0
C1815 C 0.74163 0.43487 0.27479 0.0
C1816 C 0.72793 0.44407 0.28166 0.0
C1817 C 0.72931 0.46182 0.28212 0.0
C1818 C 0.76982 0.49151 0.29801 0.0
C1819 C 0.78776 0.49347 0.29492 0.0
C1820 C 0.79867 0.4852 0.30443 0.0
C1821 C 0.79188 0.47408 0.31676 0.0
C1822 C 0.77381 0.47217 0.31976 0.0
C1823 C 0.76298 0.48102 0.31076 0.0
C1824 C 0.77268 0.52854 0.29862 0.0
C1825 C 0.78757 0.53634 0.29073 0.0
C1826 C 0.80079 0.54494 0.30111 0.0
C1827 C 0.79934 0.54591 0.3196 0.0
C1828 C 0.78417 0.5384 0.32745 0.0
C1829 C 0.77097 0.52977 0.31704 0.0
C1830 C 0.69532 0.54718 0.22049 0.0
C1831 C 0.74015 0.41601 0.27441 0.0
H1832 H 0.46611 0.38108 0.88362 0.0
H1833 H 0.61993 0.32734 0.76618 0.0
H1834 H 0.46848 0.30398 0.80999 0.0
H1835 H 0.43975 0.30812 0.82252 0.0
H1836 H 0.43738 0.35029 0.79166 0.0
H1837 H 0.46592 0.34536 0.77845 0.0
H1838 H 0.49533 0.32884 0.83456 0.0
H1839 H 0.4837 0.34753 0.85885 0.0
H1840 H 0.47784 0.38486 0.8229 0.0
H1841 H 0.48954 0.36604 0.79877 0.0
H1842 H 0.53734 0.32428 0.82316 0.0
H1843 H 0.56033 0.34205 0.83948 0.0
H1844 H 0.54841 0.38565 0.81463 0.0
H1845 H 0.52592 0.3676 0.7979 0.0
H1846 H 0.54142 0.29578 0.79253 0.0
H1847 H 0.57236 0.293 0.78826 0.0
H1848 H 0.57947 0.34187 0.76742 0.0
H1849 H 0.54846 0.34435 0.77151 0.0
H1850 H 0.509 0.27698 0.77427 0.0
H1851 H 0.52526 0.25615 0.75634 0.0
H1852 H 0.5475 0.29577 0.72529 0.0
H1853 H 0.53103 0.31639 0.74311 0.0
H1854 H 0.46914 0.28649 0.77994 0.0
H1855 H 0.45028 0.2704 0.75757 0.0
H1856 H 0.47485 0.30055 0.71813 0.0
H1857 H 0.49311 0.31715 0.74068 0.0
O1858 O 0.47081 0.37395 0.87386 0.0
O1859 O 0.46817 0.39276 0.85486 0.0
O1860 O 0.60328 0.303 0.77872 0.0
O1861 O 0.60765 0.32812 0.76804 0.0
C1862 C 0.48797 0.32403 0.78906 0.0
C1863 C 0.49975 0.33451 0.80023 0.0
C1864 C 0.51766 0.33348 0.79781 0.0
C1865 C 0.52386 0.32168 0.78448 0.0
C1866 C 0.51215 0.31126 0.77321 0.0
C1867 C 0.4942 0.31273 0.77519 0.0
C1868 C 0.46919 0.32422 0.79317 0.0
C1869 C 0.46147 0.31368 0.80542 0.0
C1870 C 0.44516 0.31628 0.81279 0.0
C1871 C 0.43638 0.32979 0.80839 0.0
C1872 C 0.44372 0.33972 0.79528 0.0
C1873 C 0.46001 0.33692 0.7877 0.0
C1874 C 0.49324 0.34613 0.81497 0.0
C1875 C 0.49159 0.3411 0.83202 0.0
C1876 C 0.48491 0.35178 0.84583 0.0
C1877 C 0.4798 0.36768 0.84281 0.0
C1878 C 0.48163 0.3727 0.82568 0.0
C1879 C 0.4883 0.362 0.81188 0.0
C1880 C 0.53005 0.34466 0.80932 0.0
C1881 C 0.53962 0.33771 0.82141 0.0
C1882 C 0.55266 0.34791 0.83078 0.0
C1883 C 0.55628 0.36525 0.82827 0.0
C1884 C 0.54613 0.37228 0.81666 0.0
C1885 C 0.53317 0.36206 0.80723 0.0
C1886 C 0.54272 0.32024 0.78228 0.0
C1887 C 0.54969 0.30584 0.78701 0.0
C1888 C 0.56736 0.3043 0.78458 0.0
C1889 C 0.57839 0.31722 0.77748 0.0
C1890 C 0.57135 0.33169 0.7729 0.0
C1891 C 0.55366 0.33317 0.77527 0.0
C1892 C 0.51889 0.29818 0.76001 0.0
C1893 C 0.51699 0.28101 0.76325 0.0
C1894 C 0.52642 0.26919 0.75314 0.0
C1895 C 0.53782 0.27435 0.73953 0.0
C1896 C 0.53876 0.29135 0.73558 0.0
C1897 C 0.52937 0.30316 0.74574 0.0
C1898 C 0.48228 0.30321 0.76202 0.0
C1899 C 0.47014 0.28994 0.7666 0.0
C1900 C 0.45949 0.28069 0.75381 0.0
C1901 C 0.46116 0.28432 0.7362 0.0
C1902 C 0.47338 0.29752 0.73162 0.0
C1903 C 0.48375 0.30699 0.74447 0.0
C1904 C 0.47258 0.37893 0.85749 0.0
C1905 C 0.59717 0.31562 0.77482 0.0
H1906 H 0.49916 0.68705 0.87571 0.0
H1907 H 0.65686 0.7789 0.79593 0.0
H1908 H 0.5001 0.72744 0.7904 0.0
H1909 H 0.46861 0.72776 0.79087 0.0
H1910 H 0.47432 0.78 0.81486 0.0
H1911 H 0.5057 0.7796 0.81399 0.0
H1912 H 0.53134 0.71282 0.81211 0.0
H1913 H 0.5187 0.69733 0.83628 0.0
H1914 H 0.50671 0.74501 0.86498 0.0
H1915 H 0.51956 0.76035 0.84078 0.0
H1916 H 0.56939 0.72049 0.79854 0.0
H1917 H 0.58564 0.70554 0.81778 0.0
H1918 H 0.57585 0.74321 0.8614 0.0
H1919 H 0.55978 0.75813 0.84203 0.0
H1920 H 0.5799 0.74436 0.76678 0.0
H1921 H 0.61136 0.74839 0.76273 0.0
H1922 H 0.61495 0.78045 0.81236 0.0
H1923 H 0.58347 0.77647 0.81614 0.0
H1924 H 0.55041 0.75663 0.74725 0.0
H1925 H 0.56497 0.77319 0.72468 0.0
H1926 H 0.58235 0.81307 0.76526 0.0
H1927 H 0.56751 0.79656 0.78764 0.0
H1928 H 0.51292 0.74442 0.75927 0.0
H1929 H 0.48816 0.75305 0.74499 0.0
H1930 H 0.49932 0.80449 0.76985 0.0
H1931 H 0.52409 0.79569 0.7842 0.0
O1932 O 0.50401 0.69342 0.86627 0.0
O1933 O 0.49796 0.71825 0.88039 0.0
O1934 O 0.64188 0.76052 0.77177 0.0
O1935 O 0.64442 0.77708 0.7972 0.0
C1936 C 0.52408 0.75439 0.7991 0.0
C1937 C 0.53446 0.74706 0.81026 0.0
C1938 C 0.5526 0.74863 0.80759 0.0
C1939 C 0.56032 0.7579 0.79405 0.0
C1940 C 0.54983 0.76514 0.78277 0.0
C1941 C 0.53171 0.76298 0.78503 0.0
C1942 C 0.5051 0.7535 0.80215 0.0
C1943 C 0.49447 0.7388 0.79606 0.0
C1944 C 0.47652 0.73904 0.7963 0.0
C1945 C 0.46899 0.75399 0.80268 0.0
C1946 C 0.47973 0.76841 0.80952 0.0
C1947 C 0.49762 0.76816 0.80924 0.0
C1948 C 0.52633 0.73768 0.82471 0.0
C1949 C 0.52596 0.71988 0.82363 0.0
C1950 C 0.51873 0.71107 0.83745 0.0
C1951 C 0.51169 0.71993 0.85257 0.0
C1952 C 0.51201 0.73779 0.85352 0.0
C1953 C 0.51928 0.74658 0.83971 0.0
C1954 C 0.56344 0.74035 0.81894 0.0
C1955 C 0.57094 0.72557 0.81221 0.0
C1956 C 0.58007 0.71701 0.82322 0.0
C1957 C 0.58195 0.72319 0.84109 0.0
C1958 C 0.57474 0.73825 0.84765 0.0
C1959 C 0.56553 0.74674 0.83666 0.0
C1960 C 0.57943 0.76012 0.79175 0.0
C1961 C 0.58751 0.75227 0.77673 0.0
C1962 C 0.60548 0.75457 0.77447 0.0
C1963 C 0.61568 0.76475 0.78723 0.0
C1964 C 0.6075 0.77253 0.80229 0.0
C1965 C 0.58953 0.77024 0.80451 0.0
C1966 C 0.55791 0.77543 0.76903 0.0
C1967 C 0.55724 0.76901 0.7512 0.0
C1968 C 0.56567 0.77841 0.73838 0.0
C1969 C 0.57485 0.79441 0.74321 0.0
C1970 C 0.57525 0.80088 0.76111 0.0
C1971 C 0.56686 0.79145 0.7739 0.0
C1972 C 0.52026 0.76943 0.77277 0.0
C1973 C 0.51036 0.75767 0.76116 0.0
C1974 C 0.49614 0.76257 0.75318 0.0
C1975 C 0.49168 0.77937 0.75654 0.0
C1976 C 0.5025 0.79147 0.767 0.0
C1977 C 0.51669 0.78651 0.77512 0.0
C1978 C 0.50412 0.71055 0.86727 0.0
C1979 C 0.63477 0.76727 0.78487 0.0
H1980 H 0.53895 0.68975 0.22778 0.0
H1981 H 0.40253 0.81134 0.27606 0.0
H1982 H 0.53872 0.75472 0.30425 0.0
H1983 H 0.56818 0.74632 0.302 0.0
H1984 H 0.58507 0.79091 0.27562 0.0
H1985 H 0.55559 0.79923 0.27803 0.0
H1986 H 0.50853 0.73708 0.28148 0.0
H1987 H 0.51876 0.71354 0.26172 0.0
H1988 H 0.5472 0.74992 0.23041 0.0
H1989 H 0.5367 0.77333 0.25018 0.0
H1990 H 0.47468 0.74744 0.28321 0.0
H1991 H 0.45778 0.72917 0.26056 0.0
H1992 H 0.47959 0.76094 0.22117 0.0
H1993 H 0.49659 0.77896 0.24382 0.0
H1994 H 0.46691 0.78136 0.31438 0.0
H1995 H 0.43664 0.78724 0.31468 0.0
H1996 H 0.4455 0.80758 0.26449 0.0
H1997 H 0.47577 0.8018 0.26448 0.0
H1998 H 0.49807 0.80042 0.33658 0.0
H1999 H 0.48192 0.82077 0.35517 0.0
H2000 H 0.47701 0.84874 0.31048 0.0
H2001 H 0.49296 0.8281 0.29195 0.0
H2002 H 0.53829 0.79044 0.33064 0.0
H2003 H 0.56193 0.80954 0.34474 0.0
H2004 H 0.55504 0.84686 0.30919 0.0
H2005 H 0.53165 0.82773 0.29514 0.0
O2006 O 0.53507 0.69925 0.23543 0.0
O2007 O 0.54961 0.71847 0.21989 0.0
O2008 O 0.41054 0.79825 0.30205 0.0
O2009 O 0.4144 0.80879 0.27623 0.0
C2010 C 0.52681 0.78143 0.29084 0.0
C2011 C 0.51547 0.7711 0.27914 0.0
C2012 C 0.49816 0.7746 0.27832 0.0
C2013 C 0.49194 0.78805 0.2896 0.0
C2014 C 0.50332 0.79861 0.30113 0.0
C2015 C 0.52084 0.79547 0.30155 0.0
C2016 C 0.54505 0.77759 0.29134 0.0
C2017 C 0.54886 0.76279 0.29822 0.0
C2018 C 0.56565 0.75796 0.29682 0.0
C2019 C 0.57895 0.7679 0.28854 0.0
C2020 C 0.57518 0.78308 0.28225 0.0
C2021 C 0.55835 0.78786 0.28359 0.0
C2022 C 0.52188 0.75687 0.26723 0.0
C2023 C 0.51693 0.73991 0.27031 0.0
C2024 C 0.52282 0.72651 0.25902 0.0
C2025 C 0.5338 0.72985 0.24448 0.0
C2026 C 0.53876 0.7469 0.24148 0.0
C2027 C 0.53282 0.76029 0.25276 0.0
C2028 C 0.48678 0.76447 0.26509 0.0
C2029 C 0.47564 0.75051 0.26971 0.0
C2030 C 0.46611 0.74009 0.2568 0.0
C2031 C 0.46744 0.74368 0.23915 0.0
C2032 C 0.47824 0.75799 0.23469 0.0
C2033 C 0.48794 0.76824 0.24756 0.0
C2034 C 0.47346 0.79107 0.28937 0.0
C2035 C 0.46225 0.78703 0.30345 0.0
C2036 C 0.44499 0.79042 0.30358 0.0
C2037 C 0.43865 0.79788 0.28959 0.0
C2038 C 0.44994 0.80181 0.27546 0.0
C2039 C 0.46721 0.79845 0.27537 0.0
C2040 C 0.49659 0.81275 0.31293 0.0
C2041 C 0.49387 0.81119 0.33094 0.0
C2042 C 0.48465 0.82286 0.34153 0.0
C2043 C 0.47802 0.83632 0.33427 0.0
C2044 C 0.48168 0.83837 0.31641 0.0
C2045 C 0.4909 0.82669 0.30584 0.0
C2046 C 0.53331 0.80772 0.31187 0.0
C2047 C 0.54173 0.80287 0.32614 0.0
C2048 C 0.55517 0.81377 0.33417 0.0
C2049 C 0.56041 0.82959 0.32791 0.0
C2050 C 0.55141 0.83465 0.31411 0.0
C2051 C 0.53797 0.82382 0.30619 0.0
C2052 C 0.54001 0.71557 0.23249 0.0
C2053 C 0.42035 0.80162 0.28973 0.0
H2054 H 0.53616 0.22219 0.38986 0.0
H2055 H 0.4007 0.27493 0.2745 0.0
H2056 H 0.55063 0.28162 0.3253 0.0
H2057 H 0.57638 0.26952 0.33356 0.0
H2058 H 0.57436 0.2356 0.28518 0.0
H2059 H 0.54847 0.24771 0.27709 0.0
H2060 H 0.51377 0.26959 0.34406 0.0
H2061 H 0.52163 0.25315 0.36727 0.0
H2062 H 0.53619 0.2135 0.32762 0.0
H2063 H 0.52797 0.22993 0.30457 0.0
H2064 H 0.4752 0.277 0.32961 0.0
H2065 H 0.45089 0.26131 0.34432 0.0
H2066 H 0.46692 0.21378 0.31923 0.0
H2067 H 0.49071 0.22948 0.30404 0.0
H2068 H 0.48026 0.30388 0.3007 0.0
H2069 H 0.45037 0.30909 0.29638 0.0
H2070 H 0.43883 0.25626 0.27561 0.0
H2071 H 0.46881 0.25128 0.27978 0.0
H2072 H 0.51686 0.31599 0.28101 0.0
H2073 H 0.50727 0.33365 0.25956 0.0
H2074 H 0.47972 0.28894 0.23218 0.0
H2075 H 0.48987 0.27127 0.25319 0.0
H2076 H 0.55051 0.30497 0.2949 0.0
H2077 H 0.57173 0.31965 0.27577 0.0
H2078 H 0.55353 0.285 0.23105 0.0
H2079 H 0.53215 0.27067 0.25024 0.0
O2080 O 0.53294 0.22838 0.38049 0.0
O2081 O 0.54045 0.20847 0.35957 0.0
O2082 O 0.41928 0.3003 0.28693 0.0
O2083 O 0.41262 0.27322 0.27632 0.0
C2084 C 0.52966 0.26908 0.29824 0.0
C2085 C 0.51622 0.2614 0.30864 0.0
C2086 C 0.49885 0.26373 0.30589 0.0
C2087 C 0.49492 0.2742 0.29308 0.0
C2088 C 0.50834 0.28184 0.28261 0.0
C2089 C 0.52573 0.27917 0.28513 0.0
C2090 C 0.54768 0.26548 0.30065 0.0
C2091 C 0.55613 0.27202 0.3162 0.0
C2092 C 0.57082 0.26507 0.3209 0.0
C2093 C 0.57723 0.25145 0.31012 0.0
C2094 C 0.56955 0.24593 0.29384 0.0
C2095 C 0.55491 0.25296 0.2891 0.0
C2096 C 0.52041 0.25101 0.32265 0.0
C2097 C 0.51855 0.2573 0.34044 0.0
C2098 C 0.52311 0.24791 0.35365 0.0
C2099 C 0.52961 0.23204 0.3493 0.0
C2100 C 0.53127 0.22569 0.33143 0.0
C2101 C 0.52663 0.23507 0.31824 0.0
C2102 C 0.48473 0.25439 0.31575 0.0
C2103 C 0.47344 0.26321 0.32729 0.0
C2104 C 0.45961 0.25427 0.33566 0.0
C2105 C 0.45713 0.23637 0.3329 0.0
C2106 C 0.46869 0.22756 0.3217 0.0
C2107 C 0.48226 0.23651 0.31306 0.0
C2108 C 0.47668 0.2772 0.2906 0.0
C2109 C 0.47126 0.29346 0.29519 0.0
C2110 C 0.45418 0.29639 0.29273 0.0
C2111 C 0.4422 0.28308 0.28567 0.0
C2112 C 0.4477 0.26679 0.2811 0.0
C2113 C 0.4648 0.26389 0.28351 0.0
C2114 C 0.50398 0.29235 0.26874 0.0
C2115 C 0.50906 0.30997 0.27017 0.0
C2116 C 0.50356 0.32002 0.25797 0.0
C2117 C 0.49264 0.31264 0.24436 0.0
C2118 C 0.48798 0.29494 0.24268 0.0
C2119 C 0.49376 0.28487 0.25464 0.0
C2120 C 0.53975 0.28685 0.27391 0.0
C2121 C 0.55129 0.30044 0.28101 0.0
C2122 C 0.56343 0.30876 0.27007 0.0
C2123 C 0.56423 0.30358 0.25185 0.0
C2124 C 0.55304 0.2895 0.24496 0.0
C2125 C 0.5409 0.28124 0.25589 0.0
C2126 C 0.53467 0.2222 0.36337 0.0
C2127 C 0.42403 0.28612 0.28304 0.0
H2128 H 0.22067 0.1742 0.18449 0.0
H2129 H 0.23619 0.22133 0.21643 0.0
H2130 H 0.25181 0.23254 0.19121 0.0
H2131 H 0.25958 0.2297 0.15973 0.0
H2132 H 0.24266 0.18331 0.12724 0.0
H2133 H 0.22938 0.17099 0.15304 0.0
C2134 C 0.22769 0.18682 0.18598 0.0
C2135 C 0.22721 0.19692 0.20232 0.0
C2136 C 0.23634 0.19337 0.17129 0.0
C2137 C 0.23626 0.21331 0.20399 0.0
C2138 C 0.24519 0.21975 0.18956 0.0
C2139 C 0.25293 0.21692 0.15826 0.0
C2140 C 0.25205 0.20752 0.14152 0.0
C2141 C 0.24501 0.21004 0.17308 0.0
C2142 C 0.2437 0.19081 0.13997 0.0
C2143 C 0.23599 0.18378 0.15471 0.0
H2144 H 0.86079 0.20414 0.11361 0.0
H2145 H 0.811 0.19445 0.13952 0.0
H2146 H 0.79778 0.21007 0.11866 0.0
H2147 H 0.80049 0.22705 0.09347 0.0
H2148 H 0.85047 0.23802 0.06853 0.0
H2149 H 0.86356 0.22139 0.08864 0.0
C2150 C 0.84703 0.20536 0.11462 0.0
C2151 C 0.83687 0.1981 0.12803 0.0
C2152 C 0.83959 0.21465 0.10282 0.0
C2153 C 0.8191 0.19996 0.12932 0.0
C2154 C 0.81153 0.20887 0.1174 0.0
C2155 C 0.81423 0.22566 0.0924 0.0
C2156 C 0.82453 0.23363 0.07955 0.0
C2157 C 0.82166 0.21634 0.10416 0.0
C2158 C 0.84234 0.23202 0.07841 0.0
C2159 C 0.8498 0.2225 0.08985 0.0
H2160 H 0.88047 0.82708 0.13942 0.0
H2161 H 0.87339 0.87229 0.11492 0.0
H2162 H 0.85329 0.85563 0.09444 0.0
H2163 H 0.83604 0.82868 0.08489 0.0
H2164 H 0.84267 0.78354 0.10955 0.0
H2165 H 0.86471 0.79967 0.12844 0.0
C2166 C 0.87473 0.83325 0.12944 0.0
C2167 C 0.87834 0.85095 0.12885 0.0
C2168 C 0.86297 0.82363 0.11782 0.0
C2169 C 0.87079 0.85871 0.11578 0.0
C2170 C 0.85923 0.84921 0.10408 0.0
C2171 C 0.84234 0.8224 0.0944 0.0
C2172 C 0.83765 0.80501 0.09595 0.0
C2173 C 0.85492 0.83175 0.10525 0.0
C2174 C 0.84612 0.79692 0.10808 0.0
C2175 C 0.85866 0.80614 0.11893 0.0
H2176 H 0.19843 0.87671 0.0875 0.0
H2177 H 0.24119 0.91438 0.1016 0.0
H2178 H 0.26159 0.89453 0.08925 0.0
H2179 H 0.26726 0.86629 0.07501 0.0
H2180 H 0.22432 0.82936 0.05916 0.0
H2181 H 0.20407 0.849 0.07196 0.0
C2182 C 0.21221 0.88058 0.08786 0.0
C2183 C 0.21829 0.89696 0.0955 0.0
C2184 C 0.22386 0.86918 0.08056 0.0
C2185 C 0.23618 0.90184 0.09574 0.0
C2186 C 0.24785 0.89048 0.08873 0.0
C2187 C 0.25348 0.86258 0.07412 0.0
C2188 C 0.24741 0.84624 0.06624 0.0
C2189 C 0.24184 0.87411 0.08113 0.0
C2190 C 0.22946 0.84165 0.06549 0.0
C2191 C 0.21782 0.85295 0.07268 0.0
H2192 H 0.22774 0.87763 0.9472 0.0
H2193 H 0.2594 0.85999 0.90264 0.0
H2194 H 0.27438 0.84353 0.92131 0.0
H2195 H 0.27796 0.83351 0.95015 0.0
H2196 H 0.2455 0.85015 0.9944 0.0
H2197 H 0.23131 0.86761 0.97601 0.0
C2198 C 0.23799 0.87027 0.9416 0.0
C2199 C 0.24247 0.87007 0.92356 0.0
C2200 C 0.24635 0.86061 0.95235 0.0
C2201 C 0.25567 0.86034 0.91647 0.0
C2202 C 0.26425 0.85093 0.92714 0.0
C2203 C 0.26788 0.8411 0.95577 0.0
C2204 C 0.26279 0.84063 0.97358 0.0
C2205 C 0.25963 0.85089 0.94506 0.0
C2206 C 0.24954 0.85027 0.98068 0.0
C2207 C 0.24147 0.86027 0.97019 0.0
H2208 H 0.2148 0.17744 0.93298 0.0
H2209 H 0.17636 0.161 0.97153 0.0
H2210 H 0.19291 0.17788 0.99502 0.0
H2211 H 0.218 0.19773 0.00458 0.0
H2212 H 0.2565 0.21405 0.96617 0.0
H2213 H 0.24021 0.19675 0.9426 0.0
C2214 C 0.21006 0.17746 0.94652 0.0
C2215 C 0.19432 0.16798 0.95045 0.0
C2216 C 0.2196 0.18724 0.95997 0.0
C2217 C 0.18842 0.16816 0.9681 0.0
C2218 C 0.19785 0.17786 0.98156 0.0
C2219 C 0.22271 0.1976 0.99101 0.0
C2220 C 0.2383 0.20725 0.98704 0.0
C2221 C 0.21336 0.18756 0.97762 0.0
C2222 C 0.24452 0.2067 0.9695 0.0
C2223 C 0.23521 0.19684 0.95605 0.0
H2224 H 0.81639 0.23953 0.87318 0.0
H2225 H 0.8022 0.19154 0.8944 0.0
H2226 H 0.79389 0.20659 0.92244 0.0
H2227 H 0.79105 0.23317 0.94117 0.0
H2228 H 0.80616 0.28139 0.92107 0.0
H2229 H 0.81379 0.26649 0.89234 0.0
C2230 C 0.81142 0.2324 0.88393 0.0
C2231 C 0.80991 0.21444 0.88168 0.0
C2232 C 0.80685 0.24115 0.9002 0.0
C2233 C 0.80357 0.20536 0.89578 0.0
C2234 C 0.79877 0.21394 0.91183 0.0
C2235 C 0.79582 0.24041 0.93041 0.0
C2236 C 0.79784 0.25829 0.93305 0.0
C2237 C 0.80039 0.23179 0.91419 0.0
C2238 C 0.80446 0.26757 0.91923 0.0
C2239 C 0.80879 0.25906 0.90286 0.0
H2240 H 0.81846 0.85646 0.94832 0.0
H2241 H 0.87048 0.8433 0.95238 0.0
H2242 H 0.86119 0.82649 0.97651 0.0
H2243 H 0.83807 0.8143 0.99558 0.0
H2244 H 0.78598 0.82702 0.99131 0.0
H2245 H 0.79557 0.84535 0.96842 0.0
C2246 C 0.8278 0.85003 0.95457 0.0
C2247 C 0.84512 0.85108 0.94842 0.0
C2248 C 0.82236 0.84026 0.96845 0.0
C2249 C 0.85704 0.84268 0.95674 0.0
C2250 C 0.85174 0.83302 0.97056 0.0
C2251 C 0.82883 0.82111 0.98965 0.0
C2252 C 0.81134 0.81927 0.99516 0.0
C2253 C 0.8344 0.83151 0.97635 0.0
C2254 C 0.79956 0.82836 0.98749 0.0
C2255 C 0.80501 0.83876 0.97429 0.0
H2256 H 0.14435 0.24107 0.23838 0.0
H2257 H 0.13309 0.20013 0.27121 0.0
H2258 H 0.10418 0.20898 0.278 0.0
H2259 H 0.08216 0.22847 0.27465 0.0
H2260 H 0.09427 0.27 0.24264 0.0
H2261 H 0.12265 0.26053 0.23525 0.0
C2262 C 0.1356 0.23404 0.24702 0.0
C2263 C 0.14091 0.21996 0.25428 0.0
C2264 C 0.11908 0.23923 0.25092 0.0
C2265 C 0.12936 0.21104 0.26546 0.0
C2266 C 0.11282 0.21608 0.26934 0.0
C2267 C 0.09104 0.23552 0.26615 0.0
C2268 C 0.08596 0.24988 0.25915 0.0
C2269 C 0.10755 0.2302 0.26217 0.0
C2270 C 0.09762 0.25871 0.24796 0.0
C2271 C 0.11395 0.2534 0.24383 0.0
H2272 H 0.8896 0.11837 0.19085 0.0
H2273 H 0.84742 0.12284 0.1572 0.0
H2274 H 0.82902 0.10191 0.17255 0.0
H2275 H 0.82422 0.08427 0.19722 0.0
H2276 H 0.86655 0.08008 0.23079 0.0
H2277 H 0.88552 0.09913 0.21387 0.0
C2278 C 0.87644 0.11465 0.18672 0.0
C2279 C 0.86986 0.12228 0.17301 0.0
C2280 C 0.86588 0.10283 0.19575 0.0
C2281 C 0.85281 0.1172 0.16775 0.0
C2282 C 0.84225 0.10529 0.17658 0.0
C2283 C 0.83766 0.08731 0.20065 0.0
C2284 C 0.84388 0.08095 0.2154 0.0
C2285 C 0.84854 0.0983 0.19085 0.0
C2286 C 0.86132 0.08511 0.21974 0.0
C2287 C 0.87222 0.09592 0.21001 0.0
H2288 H 0.93339 0.83939 0.22237 0.0
H2289 H 0.96953 0.85111 0.18003 0.0
H2290 H 0.99146 0.837 0.19322 0.0
H2291 H 0.00043 0.8214 0.21693 0.0
H2292 H 0.96404 0.80973 0.25907 0.0
H2293 H 0.94227 0.82393 0.24591 0.0
C2294 C 0.94605 0.83884 0.21599 0.0
C2295 C 0.94978 0.84627 0.20022 0.0
C2296 C 0.95862 0.83081 0.22368 0.0
C2297 C 0.96629 0.84549 0.19218 0.0
C2298 C 0.97886 0.83743 0.19972 0.0
C2299 C 0.98771 0.82193 0.22318 0.0
C2300 C 0.98393 0.81464 0.23903 0.0
C2301 C 0.97517 0.83005 0.21548 0.0
C2302 C 0.96742 0.81553 0.24705 0.0
C2303 C 0.9549 0.82353 0.23946 0.0
H2304 H 0.17806 0.9482 0.1838 0.0
H2305 H 0.19899 0.89964 0.17859 0.0
H2306 H 0.20868 0.9049 0.20896 0.0
H2307 H 0.2135 0.92458 0.2361 0.0
H2308 H 0.19227 0.97302 0.24126 0.0
H2309 H 0.18026 0.96654 0.21193 0.0
C2310 C 0.18453 0.9387 0.18945 0.0
C2311 C 0.18774 0.92354 0.17909 0.0
C2312 C 0.19008 0.94184 0.20687 0.0
C2313 C 0.19609 0.91127 0.18647 0.0
C2314 C 0.20178 0.91435 0.20376 0.0
C2315 C 0.20602 0.93356 0.23084 0.0
C2316 C 0.20375 0.94922 0.24074 0.0
C2317 C 0.19917 0.92975 0.21396 0.0
C2318 C 0.194 0.96079 0.23391 0.0
C2319 C 0.18725 0.95715 0.2171 0.0
H2320 H 0.1355 0.89835 0.87923 0.0
H2321 H 0.16174 0.85326 0.86502 0.0
H2322 H 0.13571 0.83875 0.85108 0.0
H2323 H 0.1061 0.83947 0.84145 0.0
H2324 H 0.08006 0.88471 0.85518 0.0
H2325 H 0.10553 0.89866 0.87063 0.0
C2326 C 0.13549 0.88529 0.87325 0.0
C2327 C 0.15057 0.87692 0.87314 0.0
C2328 C 0.12059 0.87712 0.86501 0.0
C2329 C 0.15033 0.86002 0.86526 0.0
C2330 C 0.13546 0.85172 0.85725 0.0
C2331 C 0.10592 0.85229 0.84804 0.0
C2332 C 0.09123 0.86106 0.84715 0.0
C2333 C 0.12061 0.86024 0.85683 0.0
C2334 C 0.09129 0.87778 0.8555 0.0
C2335 C 0.1058 0.88572 0.86441 0.0
H2336 H 0.20189 0.09249 0.87117 0.0
H2337 H 0.22291 0.13954 0.8514 0.0
H2338 H 0.24462 0.12456 0.83387 0.0
H2339 H 0.2574 0.09806 0.82375 0.0
H2340 H 0.23591 0.0508 0.84253 0.0
H2341 H 0.21461 0.06587 0.86089 0.0
C2342 C 0.21123 0.09947 0.86305 0.0
C2343 C 0.21077 0.11711 0.86262 0.0
C2344 C 0.22361 0.09074 0.85286 0.0
C2345 C 0.22293 0.12595 0.85194 0.0
C2346 C 0.23539 0.1174 0.84194 0.0
C2347 C 0.24818 0.09113 0.83205 0.0
C2348 C 0.24828 0.07341 0.83197 0.0
C2349 C 0.23584 0.09982 0.84229 0.0
C2350 C 0.23604 0.06446 0.84244 0.0
C2351 C 0.22389 0.07307 0.85291 0.0
H2352 H 0.88136 0.22478 0.79902 0.0
H2353 H 0.88607 0.19315 0.84071 0.0
H2354 H 0.91714 0.20155 0.84133 0.0
H2355 H 0.9429 0.21845 0.83057 0.0
H2356 H 0.93857 0.24923 0.78819 0.0
H2357 H 0.90741 0.24059 0.78723 0.0
C2358 C 0.8892 0.21968 0.80819 0.0
C2359 C 0.8814 0.20843 0.81986 0.0
C2360 C 0.9071 0.22445 0.80838 0.0
C2361 C 0.89175 0.20181 0.83157 0.0
C2362 C 0.90952 0.20665 0.83198 0.0
C2363 C 0.93507 0.22325 0.82116 0.0
C2364 C 0.94286 0.23453 0.80956 0.0
C2365 C 0.91729 0.21806 0.82055 0.0
C2366 C 0.93275 0.2405 0.79722 0.0
C2367 C 0.91498 0.2356 0.7967 0.0
H2368 H 0.79684 0.93674 0.87125 0.0
H2369 H 0.83916 0.9413 0.83343 0.0
H2370 H 0.82156 0.95533 0.81467 0.0
H2371 H 0.79381 0.96504 0.80855 0.0
H2372 H 0.75278 0.9641 0.84841 0.0
H2373 H 0.77013 0.94969 0.86667 0.0
C2374 C 0.80215 0.94087 0.85891 0.0
C2375 C 0.81913 0.93785 0.85355 0.0
C2376 C 0.79217 0.94944 0.84851 0.0
C2377 C 0.82608 0.94349 0.83774 0.0
C2378 C 0.81602 0.95147 0.82703 0.0
C2379 C 0.78868 0.96214 0.82138 0.0
C2380 C 0.7717 0.9655 0.82675 0.0
C2381 C 0.79901 0.95443 0.83224 0.0
C2382 C 0.76548 0.96124 0.84346 0.0
C2383 C 0.77548 0.9531 0.85408 0.0
H2384 H 0.23266 0.13427 0.27281 0.0
H2385 H 0.18524 0.10562 0.25468 0.0
H2386 H 0.19299 0.08062 0.26739 0.0
H2387 H 0.21331 0.06677 0.28355 0.0
H2388 H 0.26152 0.09464 0.30006 0.0
H2389 H 0.25342 0.12013 0.2882 0.0
C2390 C 0.22402 0.12256 0.27167 0.0
C2391 C 0.20837 0.12184 0.26286 0.0
C2392 C 0.22868 0.10813 0.27878 0.0
C2393 C 0.19739 0.10651 0.26134 0.0
C2394 C 0.20178 0.09222 0.26865 0.0
C2395 C 0.22193 0.07852 0.28465 0.0
C2396 C 0.23784 0.07904 0.29283 0.0
C2397 C 0.21736 0.09289 0.27742 0.0
C2398 C 0.24914 0.0941 0.2939 0.0
C2399 C 0.24452 0.10861 0.28711 0.0
H2400 H 0.25821 0.93715 0.86648 0.0
H2401 H 0.21411 0.96628 0.87353 0.0
H2402 H 0.22844 0.98727 0.85543 0.0
H2403 H 0.25223 0.99593 0.83521 0.0
H2404 H 0.29659 0.96747 0.82834 0.0
H2405 H 0.28349 0.94763 0.84878 0.0
C2406 C 0.25184 0.94821 0.86428 0.0
C2407 C 0.235 0.94997 0.87118 0.0
C2408 C 0.26013 0.96026 0.85374 0.0
C2409 C 0.22702 0.9645 0.86832 0.0
C2410 C 0.23516 0.97651 0.85789 0.0
C2411 C 0.25905 0.98547 0.83842 0.0
C2412 C 0.27518 0.98294 0.83032 0.0
C2413 C 0.25149 0.97427 0.85016 0.0
C2414 C 0.28411 0.96953 0.83452 0.0
C2415 C 0.27661 0.95821 0.84613 0.0
H2416 H 0.13524 0.19927 0.89705 0.0
H2417 H 0.10473 0.15095 0.88486 0.0
H2418 H 0.0841 0.16501 0.86969 0.0
H2419 H 0.07461 0.1911 0.8602 0.0
H2420 H 0.10583 0.23915 0.87171 0.0
H2421 H 0.1261 0.22511 0.88717 0.0
C2422 C 0.1241 0.19177 0.89106 0.0
C2423 C 0.12155 0.17407 0.89209 0.0
C2424 C 0.11233 0.19991 0.88237 0.0
C2425 C 0.10703 0.16458 0.88423 0.0
C2426 C 0.09521 0.17262 0.87559 0.0
C2427 C 0.08592 0.19848 0.86594 0.0
C2428 C 0.08861 0.21618 0.86483 0.0
C2429 C 0.09772 0.19028 0.87459 0.0
C2430 C 0.10323 0.22557 0.87262 0.0
C2431 C 0.11493 0.21754 0.88134 0.0
H2432 H 0.77004 0.12186 0.83961 0.0
H2433 H 0.81788 0.11702 0.80979 0.0
H2434 H 0.80703 0.08822 0.7976 0.0
H2435 H 0.78384 0.0646 0.79519 0.0
H2436 H 0.73549 0.07026 0.8239 0.0
H2437 H 0.74691 0.09839 0.83713 0.0
C2438 C 0.77814 0.11452 0.83047 0.0
C2439 C 0.79474 0.12161 0.8256 0.0
C2440 C 0.77179 0.09805 0.82344 0.0
C2441 C 0.80502 0.1119 0.81371 0.0
C2442 C 0.79884 0.09542 0.80676 0.0
C2443 C 0.77573 0.07201 0.80425 0.0
C2444 C 0.75881 0.06524 0.80852 0.0
C2445 C 0.78221 0.0884 0.81148 0.0
C2446 C 0.74865 0.07495 0.82057 0.0
C2447 C 0.75511 0.09114 0.82802 0.0
H2448 H 0.88312 0.84766 0.86005 0.0
H2449 H 0.89638 0.89794 0.84378 0.0
H2450 H 0.92082 0.88778 0.82612 0.0
H2451 H 0.93993 0.86523 0.81749 0.0
H2452 H 0.92627 0.81491 0.83352 0.0
H2453 H 0.90054 0.82453 0.84913 0.0
C2454 C 0.89125 0.85638 0.85252 0.0
C2455 C 0.88801 0.87359 0.85342 0.0
C2456 C 0.90533 0.85049 0.84246 0.0
C2457 C 0.89858 0.88464 0.84339 0.0
C2458 C 0.91262 0.87885 0.83333 0.0
C2459 C 0.93114 0.85627 0.82407 0.0
C2460 C 0.93518 0.83942 0.82451 0.0
C2461 C 0.91632 0.86188 0.83305 0.0
C2462 C 0.92368 0.82804 0.83326 0.0
C2463 C 0.90892 0.8335 0.84215 0.0
H2464 H 0.87049 0.91978 0.21877 0.0
H2465 H 0.84274 0.93142 0.17449 0.0
H2466 H 0.82301 0.94658 0.19441 0.0
H2467 H 0.81422 0.95739 0.22408 0.0
H2468 H 0.84149 0.94612 0.26875 0.0
H2469 H 0.86079 0.92985 0.24896 0.0
C2470 C 0.86014 0.92565 0.2135 0.0
C2471 C 0.85815 0.9245 0.19515 0.0
C2472 C 0.8487 0.93432 0.22507 0.0
C2473 C 0.84459 0.93208 0.18854 0.0
C2474 C 0.83325 0.94074 0.19992 0.0
C2475 C 0.8241 0.95104 0.22958 0.0
C2476 C 0.82629 0.95284 0.2479 0.0
C2477 C 0.8352 0.94195 0.21817 0.0
C2478 C 0.83952 0.94492 0.2547 0.0
C2479 C 0.85058 0.93567 0.24339 0.0
H2480 H 0.11198 0.87149 0.20634 0.0
H2481 H 0.15233 0.83786 0.19738 0.0
H2482 H 0.13529 0.8168 0.21373 0.0
H2483 H 0.10882 0.80784 0.23035 0.0
H2484 H 0.06827 0.84128 0.2386 0.0
H2485 H 0.08564 0.86259 0.22294 0.0
C2486 C 0.11709 0.85957 0.20797 0.0
C2487 C 0.1334 0.85627 0.2006 0.0
C2488 C 0.10721 0.8475 0.21731 0.0
C2489 C 0.1398 0.84074 0.20288 0.0
C2490 C 0.13007 0.82868 0.21223 0.0
C2491 C 0.10373 0.81973 0.2286 0.0
C2492 C 0.08726 0.82294 0.23565 0.0
C2493 C 0.11372 0.83189 0.21942 0.0
C2494 C 0.08099 0.83855 0.23352 0.0
C2495 C 0.09087 0.85072 0.22447 0.0
H2496 H 0.8889 0.21188 0.21101 0.0
H2497 H 0.9269 0.21556 0.1685 0.0
H2498 H 0.94538 0.23628 0.18727 0.0
H2499 H 0.95152 0.25203 0.21626 0.0
H2500 H 0.91426 0.24725 0.25915 0.0
H2501 H 0.89463 0.22828 0.23969 0.0
C2502 C 0.90115 0.21733 0.20577 0.0
C2503 C 0.90651 0.21214 0.18837 0.0
C2504 C 0.91184 0.229 0.21672 0.0
C2505 C 0.92247 0.21927 0.18185 0.0
C2506 C 0.93306 0.23113 0.19257 0.0
C2507 C 0.93895 0.24707 0.22122 0.0
C2508 C 0.93421 0.25109 0.23902 0.0
C2509 C 0.92797 0.23591 0.21008 0.0
C2510 C 0.91811 0.2443 0.24546 0.0
C2511 C 0.90693 0.23347 0.23436 0.0
H2512 H 0.19169 0.6677 0.64295 0.0
H2513 H 0.17716 0.71699 0.66467 0.0
H2514 H 0.19875 0.731 0.64569 0.0
H2515 H 0.22029 0.72932 0.62151 0.0
H2516 H 0.2341 0.68015 0.59872 0.0
H2517 H 0.21458 0.66613 0.61975 0.0
C2518 C 0.19339 0.68151 0.64369 0.0
C2519 C 0.18269 0.69124 0.65515 0.0
C2520 C 0.2057 0.68955 0.63251 0.0
C2521 C 0.18509 0.70914 0.6559 0.0
C2522 C 0.19745 0.7172 0.64503 0.0
C2523 C 0.21905 0.71553 0.62115 0.0
C2524 C 0.22856 0.70581 0.60846 0.0
C2525 C 0.20756 0.70753 0.63303 0.0
C2526 C 0.22705 0.68797 0.60843 0.0
C2527 C 0.21578 0.67992 0.62037 0.0
H2528 H 0.83113 0.72421 0.62613 0.0
H2529 H 0.8155 0.76958 0.6564 0.0
H2530 H 0.80474 0.77896 0.62985 0.0
H2531 H 0.80011 0.77444 0.59784 0.0
H2532 H 0.8154 0.7288 0.56787 0.0
H2533 H 0.82577 0.71929 0.59449 0.0
C2534 C 0.82539 0.73616 0.62692 0.0
C2535 C 0.82422 0.74622 0.6432 0.0
C2536 C 0.81907 0.74139 0.61166 0.0
C2537 C 0.81657 0.76159 0.64403 0.0
C2538 C 0.81042 0.76698 0.62885 0.0
C2539 C 0.80569 0.76241 0.5972 0.0
C2540 C 0.8069 0.7523 0.58096 0.0
C2541 C 0.81165 0.75701 0.61258 0.0
C2542 C 0.81407 0.73668 0.58028 0.0
C2543 C 0.82012 0.73129 0.59546 0.0
H2544 H 0.84762 0.34037 0.64649 0.0
H2545 H 0.86548 0.29387 0.66001 0.0
H2546 H 0.84746 0.27733 0.63727 0.0
H2547 H 0.82588 0.27612 0.61414 0.0
H2548 H 0.80804 0.32288 0.60138 0.0
H2549 H 0.82671 0.33927 0.62342 0.0
C2550 C 0.84771 0.32662 0.64445 0.0
C2551 C 0.85792 0.31839 0.65496 0.0
C2552 C 0.83719 0.31722 0.63159 0.0
C2553 C 0.85775 0.30054 0.65211 0.0
C2554 C 0.84742 0.29108 0.63914 0.0
C2555 C 0.82619 0.28991 0.61613 0.0
C2556 C 0.8155 0.29827 0.60622 0.0
C2557 C 0.83698 0.29928 0.62888 0.0
C2558 C 0.81592 0.31612 0.60903 0.0
C2559 C 0.82668 0.32551 0.62155 0.0
H2560 H 0.17579 0.37115 0.62 0.0
H2561 H 0.21891 0.40793 0.63521 0.0
H2562 H 0.23909 0.38723 0.62447 0.0
H2563 H 0.24445 0.35962 0.60876 0.0
H2564 H 0.20113 0.32457 0.58973 0.0
H2565 H 0.18121 0.34321 0.60476 0.0
C2566 C 0.1896 0.37454 0.62115 0.0
C2567 C 0.19588 0.39102 0.62832 0.0
C2568 C 0.20113 0.36279 0.61441 0.0
C2569 C 0.2138 0.39533 0.6296 0.0
C2570 C 0.22533 0.3835 0.62351 0.0
C2571 C 0.23067 0.35599 0.60781 0.0
C2572 C 0.2245 0.34062 0.59792 0.0
C2573 C 0.21914 0.36732 0.61553 0.0
C2574 C 0.2065 0.33606 0.59744 0.0
C2575 C 0.19498 0.34689 0.60582 0.0
H2576 H 0.18134 0.39835 0.44195 0.0
H2577 H 0.15688 0.35295 0.41283 0.0
H2578 H 0.17443 0.33533 0.4276 0.0
H2579 H 0.19654 0.33279 0.44903 0.0
H2580 H 0.22127 0.37823 0.47775 0.0
H2581 H 0.20394 0.39588 0.46275 0.0
C2582 C 0.17982 0.3846 0.43885 0.0
C2583 C 0.16775 0.37698 0.42638 0.0
C2584 C 0.19006 0.37456 0.44726 0.0
C2585 C 0.16607 0.35915 0.42239 0.0
C2586 C 0.17609 0.34906 0.43084 0.0
C2587 C 0.19809 0.34656 0.45201 0.0
C2588 C 0.21014 0.3542 0.46448 0.0
C2589 C 0.18809 0.35662 0.44333 0.0
C2590 C 0.2122 0.37206 0.46806 0.0
C2591 C 0.20222 0.38215 0.45958 0.0
H2592 H 0.24753 0.72282 0.38254 0.0
H2593 H 0.21767 0.67445 0.38746 0.0
H2594 H 0.22179 0.67813 0.41929 0.0
H2595 H 0.2331 0.69566 0.44594 0.0
H2596 H 0.26164 0.74463 0.44085 0.0
H2597 H 0.25875 0.74021 0.40891 0.0
C2598 C 0.24206 0.713 0.39054 0.0
C2599 C 0.23238 0.69836 0.38264 0.0
C2600 C 0.24411 0.71539 0.40884 0.0
C2601 C 0.22518 0.68585 0.39323 0.0
C2602 C 0.22751 0.68795 0.41143 0.0
C2603 C 0.23871 0.70529 0.43777 0.0
C2604 C 0.24746 0.72048 0.44567 0.0
C2605 C 0.23681 0.70275 0.41941 0.0
C2606 C 0.25463 0.73294 0.43503 0.0
C2607 C 0.25307 0.73038 0.41678 0.0
H2608 H 0.86867 0.67358 0.39633 0.0
H2609 H 0.88784 0.66054 0.44483 0.0
H2610 H 0.87635 0.68552 0.46094 0.0
H2611 H 0.85946 0.71018 0.46141 0.0
H2612 H 0.83946 0.7223 0.413 0.0
H2613 H 0.85276 0.69853 0.39661 0.0
C2614 C 0.87046 0.67622 0.41041 0.0
C2615 C 0.87905 0.66515 0.41936 0.0
C2616 C 0.86364 0.69042 0.41959 0.0
C2617 C 0.88122 0.6688 0.43762 0.0
C2618 C 0.87466 0.68308 0.44684 0.0
C2619 C 0.85828 0.70774 0.44723 0.0
C2620 C 0.84857 0.71793 0.43836 0.0
C2621 C 0.86568 0.69386 0.43798 0.0
C2622 C 0.84684 0.71454 0.42006 0.0
C2623 C 0.85443 0.70097 0.41071 0.0
H2624 H 0.83401 0.3635 0.46512 0.0
H2625 H 0.8837 0.34716 0.47453 0.0
H2626 H 0.87035 0.32876 0.49587 0.0
H2627 H 0.84426 0.31564 0.51029 0.0
H2628 H 0.79454 0.33147 0.50033 0.0
H2629 H 0.80822 0.35186 0.48109 0.0
C2630 C 0.84196 0.35607 0.47198 0.0
C2631 C 0.85981 0.35661 0.46807 0.0
C2632 C 0.83418 0.34536 0.48416 0.0
C2633 C 0.8699 0.34694 0.47717 0.0
C2634 C 0.86228 0.33636 0.48938 0.0
C2635 C 0.83646 0.32364 0.50398 0.0
C2636 C 0.81842 0.32202 0.50675 0.0
C2637 C 0.84438 0.33519 0.49271 0.0
C2638 C 0.80848 0.33261 0.49863 0.0
C2639 C 0.81628 0.34418 0.48749 0.0
H2640 H 0.09019 0.7067 0.72433 0.0
H2641 H 0.08146 0.7231 0.67369 0.0
H2642 H 0.06126 0.74246 0.68738 0.0
H2643 H 0.04753 0.7562 0.71402 0.0
H2644 H 0.05702 0.74038 0.76471 0.0
H2645 H 0.07516 0.71921 0.75069 0.0
C2646 C 0.08374 0.71436 0.71625 0.0
C2647 C 0.08748 0.71352 0.69802 0.0
C2648 C 0.07225 0.72564 0.72423 0.0
C2649 C 0.07893 0.72353 0.68776 0.0
C2650 C 0.06737 0.73465 0.69558 0.0
C2651 C 0.05352 0.74807 0.72197 0.0
C2652 C 0.05089 0.7499 0.74038 0.0
C2653 C 0.06419 0.73607 0.71385 0.0
C2654 C 0.05859 0.73911 0.75049 0.0
C2655 C 0.06911 0.72707 0.74249 0.0
H2656 H 0.84464 0.64864 0.69509 0.0
H2657 H 0.8341 0.67697 0.74529 0.0
H2658 H 0.82572 0.65043 0.75814 0.0
H2659 H 0.82205 0.61928 0.75544 0.0
H2660 H 0.83327 0.59062 0.70569 0.0
H2661 H 0.8405 0.61721 0.69228 0.0
C2662 C 0.84037 0.64901 0.7088 0.0
C2663 C 0.84003 0.66479 0.71921 0.0
C2664 C 0.83575 0.63365 0.7162 0.0
C2665 C 0.83453 0.66502 0.73697 0.0
C2666 C 0.82975 0.64984 0.74436 0.0
C2667 C 0.82627 0.61884 0.7417 0.0
C2668 C 0.82732 0.603 0.73163 0.0
C2669 C 0.83051 0.63411 0.73416 0.0
C2670 C 0.83233 0.60265 0.71372 0.0
C2671 C 0.83651 0.61784 0.70607 0.0
H2672 H 0.94844 0.32273 0.71733 0.0
H2673 H 0.90643 0.30524 0.75163 0.0
H2674 H 0.92677 0.29391 0.76964 0.0
H2675 H 0.95651 0.28939 0.77599 0.0
H2676 H 0.99857 0.30709 0.74196 0.0
H2677 H 0.97816 0.3178 0.72343 0.0
C2678 C 0.94371 0.31637 0.72869 0.0
C2679 C 0.92592 0.31488 0.73312 0.0
C2680 C 0.95549 0.30995 0.73907 0.0
C2681 C 0.92004 0.30659 0.7479 0.0
C2682 C 0.93167 0.30013 0.75825 0.0
C2683 C 0.96121 0.29573 0.7646 0.0
C2684 C 0.97903 0.29754 0.76042 0.0
C2685 C 0.94942 0.30187 0.75404 0.0
C2686 C 0.9849 0.30545 0.74541 0.0
C2687 C 0.97325 0.31163 0.73485 0.0
H2688 H 0.15749 0.4644 0.6999 0.0
H2689 H 0.17686 0.41804 0.71145 0.0
H2690 H 0.18827 0.43248 0.73922 0.0
H2691 H 0.19526 0.45921 0.75867 0.0
H2692 H 0.17503 0.50526 0.74738 0.0
H2693 H 0.16129 0.49007 0.72113 0.0
C2694 C 0.16396 0.45743 0.70868 0.0
C2695 C 0.16637 0.44024 0.70372 0.0
C2696 C 0.17042 0.4658 0.72457 0.0
C2697 C 0.17467 0.43124 0.71515 0.0
C2698 C 0.18134 0.43954 0.73093 0.0
C2699 C 0.1876 0.46578 0.75056 0.0
C2700 C 0.18618 0.48328 0.7548 0.0
C2701 C 0.17966 0.45693 0.73555 0.0
C2702 C 0.17618 0.49174 0.74436 0.0
C2703 C 0.16842 0.4831 0.72931 0.0
H2704 H 0.05898 0.41891 0.36663 0.0
H2705 H 0.08149 0.38425 0.3967 0.0
H2706 H 0.06226 0.36047 0.38314 0.0
H2707 H 0.04178 0.34906 0.36001 0.0
H2708 H 0.02024 0.38358 0.32911 0.0
H2709 H 0.03634 0.4079 0.34578 0.0
C2710 C 0.05951 0.40621 0.37045 0.0
C2711 C 0.07183 0.40335 0.38249 0.0
C2712 C 0.0487 0.39253 0.36231 0.0
C2713 C 0.07223 0.38681 0.38736 0.0
C2714 C 0.06127 0.37317 0.37957 0.0
C2715 C 0.04028 0.36194 0.35725 0.0
C2716 C 0.02994 0.36455 0.3433 0.0
C2717 C 0.04984 0.37581 0.36663 0.0
C2718 C 0.02828 0.38128 0.33968 0.0
C2719 C 0.03747 0.39517 0.34919 0.0
H2720 H 0.22467 0.64422 0.29412 0.0
H2721 H 0.2785 0.66345 0.29848 0.0
H2722 H 0.28696 0.63546 0.2869 0.0
H2723 H 0.27903 0.6052 0.27653 0.0
H2724 H 0.22517 0.5861 0.27246 0.0
H2725 H 0.21679 0.61441 0.28268 0.0
C2726 C 0.23826 0.64233 0.29248 0.0
C2727 C 0.25092 0.6559 0.29727 0.0
C2728 C 0.24304 0.62622 0.28582 0.0
C2729 C 0.26848 0.65323 0.29494 0.0
C2730 C 0.27333 0.63721 0.28833 0.0
C2731 C 0.26547 0.60727 0.27788 0.0
C2732 C 0.25275 0.59357 0.27375 0.0
C2733 C 0.26072 0.62357 0.28391 0.0
C2734 C 0.23522 0.59647 0.27534 0.0
C2735 C 0.23041 0.61263 0.28131 0.0
H2736 H 0.9525 0.65427 0.35889 0.0
H2737 H 0.91351 0.65458 0.32031 0.0
H2738 H 0.93254 0.67479 0.30475 0.0
H2739 H 0.95949 0.6937 0.30315 0.0
H2740 H 0.99853 0.69333 0.34165 0.0
H2741 H 0.9801 0.67199 0.35634 0.0
C2742 C 0.94822 0.65861 0.34697 0.0
C2743 C 0.93158 0.65295 0.34082 0.0
C2744 C 0.95914 0.67039 0.33821 0.0
C2745 C 0.92625 0.65874 0.32536 0.0
C2746 C 0.9371 0.67035 0.31648 0.0
C2747 C 0.96409 0.68877 0.3146 0.0
C2748 C 0.98033 0.6952 0.32134 0.0
C2749 C 0.95347 0.67645 0.32294 0.0
C2750 C 0.98596 0.68883 0.33635 0.0
C2751 C 0.97548 0.67654 0.3447 0.0
H2752 H 0.84919 0.43402 0.34607 0.0
H2753 H 0.81121 0.4295 0.38832 0.0
H2754 H 0.79231 0.44613 0.37379 0.0
H2755 H 0.78701 0.46239 0.34947 0.0
H2756 H 0.82327 0.46312 0.30506 0.0
H2757 H 0.84257 0.44805 0.32033 0.0
C2758 C 0.83675 0.43669 0.35204 0.0
C2759 C 0.8316 0.43069 0.36826 0.0
C2760 C 0.82574 0.44576 0.34334 0.0
C2761 C 0.81539 0.43397 0.3758 0.0
C2762 C 0.80463 0.44352 0.36753 0.0
C2763 C 0.79892 0.45904 0.34284 0.0
C2764 C 0.80355 0.46431 0.32608 0.0
C2765 C 0.80969 0.44949 0.35129 0.0
C2766 C 0.81938 0.45993 0.31814 0.0
C2767 C 0.83044 0.45103 0.32677 0.0
H2768 H 0.18006 0.60876 0.69905 0.0
H2769 H 0.13833 0.62198 0.73502 0.0
H2770 H 0.14677 0.60264 0.75527 0.0
H2771 H 0.16615 0.58234 0.76278 0.0
H2772 H 0.21071 0.57289 0.72877 0.0
H2773 H 0.20054 0.58972 0.70751 0.0
C2774 C 0.1728 0.60733 0.71131 0.0
C2775 C 0.15857 0.61668 0.71555 0.0
C2776 C 0.1781 0.59667 0.72316 0.0
C2777 C 0.14939 0.61494 0.73155 0.0
C2778 C 0.15418 0.60385 0.74308 0.0
C2779 C 0.17392 0.58408 0.75092 0.0
C2780 C 0.18924 0.57601 0.74765 0.0
C2781 C 0.1686 0.59474 0.73908 0.0
C2782 C 0.19862 0.5783 0.73174 0.0
C2783 C 0.19296 0.58823 0.71955 0.0
H2784 H 0.18239 0.42581 0.36027 0.0
H2785 H 0.15064 0.46735 0.3607 0.0
H2786 H 0.16946 0.47955 0.33802 0.0
H2787 H 0.19483 0.47833 0.31788 0.0
H2788 H 0.22695 0.43726 0.31793 0.0
H2789 H 0.20806 0.42492 0.34062 0.0
C2790 C 0.17959 0.43755 0.35545 0.0
C2791 C 0.16509 0.44561 0.36217 0.0
C2792 C 0.19049 0.44453 0.34244 0.0
C2793 C 0.16173 0.46088 0.35581 0.0
C2794 C 0.17245 0.46785 0.34279 0.0
C2795 C 0.19756 0.46659 0.32277 0.0
C2796 C 0.21212 0.4586 0.3162 0.0
C2797 C 0.1868 0.45973 0.33594 0.0
C2798 C 0.21579 0.4436 0.32285 0.0
C2799 C 0.205 0.43656 0.33578 0.0
H2800 H 0.1651 0.73839 0.33412 0.0
H2801 H 0.17671 0.70765 0.28572 0.0
H2802 H 0.15426 0.71965 0.27092 0.0
H2803 H 0.13008 0.7374 0.27236 0.0
H2804 H 0.11704 0.76584 0.32184 0.0
H2805 H 0.1417 0.7567 0.3353 0.0
C2806 C 0.16286 0.73441 0.32028 0.0
C2807 C 0.1725 0.72206 0.31108 0.0
C2808 C 0.14972 0.74105 0.31199 0.0
C2809 C 0.1694 0.71706 0.29315 0.0
C2810 C 0.15657 0.72393 0.28468 0.0
C2811 C 0.13258 0.74161 0.28609 0.0
C2812 C 0.12156 0.75233 0.29597 0.0
C2813 C 0.14641 0.73568 0.29407 0.0
C2814 C 0.12535 0.75789 0.31368 0.0
C2815 C 0.13938 0.75247 0.32153 0.0
H2816 H 0.86125 0.59092 0.35829 0.0
H2817 H 0.8526 0.55187 0.39369 0.0
H2818 H 0.82975 0.53694 0.375 0.0
H2819 H 0.81168 0.5355 0.34908 0.0
H2820 H 0.81946 0.57552 0.31473 0.0
H2821 H 0.84333 0.58946 0.33249 0.0
C2822 C 0.8545 0.57905 0.36185 0.0
C2823 C 0.85864 0.57251 0.37736 0.0
C2824 C 0.84117 0.57075 0.35128 0.0
C2825 C 0.84965 0.55719 0.38183 0.0
C2826 C 0.83656 0.54867 0.37117 0.0
C2827 C 0.81848 0.54736 0.34558 0.0
C2828 C 0.81374 0.55445 0.33059 0.0
C2829 C 0.83206 0.55546 0.35599 0.0
C2830 C 0.82294 0.56966 0.32606 0.0
C2831 C 0.83655 0.5777 0.33625 0.0
H2832 H 0.89755 0.37352 0.34842 0.0
H2833 H 0.91037 0.35074 0.39441 0.0
H2834 H 0.93015 0.33368 0.3767 0.0
H2835 H 0.94431 0.32552 0.34851 0.0
H2836 H 0.93173 0.34759 0.30212 0.0
H2837 H 0.91156 0.36476 0.31968 0.0
C2838 C 0.90465 0.36481 0.35455 0.0
C2839 C 0.90242 0.36348 0.37276 0.0
C2840 C 0.91611 0.35493 0.34426 0.0
C2841 C 0.91177 0.35209 0.38046 0.0
C2842 C 0.92312 0.34229 0.37034 0.0
C2843 C 0.93697 0.33387 0.34215 0.0
C2844 C 0.93945 0.33515 0.324 0.0
C2845 C 0.92541 0.34362 0.35227 0.0
C2846 C 0.93014 0.34642 0.31609 0.0
C2847 C 0.91856 0.35619 0.32612 0.0
H2848 H 0.83352 0.39044 0.73938 0.0
H2849 H 0.88167 0.41701 0.72273 0.0
H2850 H 0.87245 0.44401 0.73641 0.0
H2851 H 0.8498 0.46031 0.75089 0.0
H2852 H 0.80162 0.43379 0.76745 0.0
H2853 H 0.81175 0.40651 0.75583 0.0
C2854 C 0.8421 0.4021 0.7389 0.0
C2855 C 0.8582 0.4017 0.72991 0.0
C2856 C 0.83664 0.41761 0.7466 0.0
C2857 C 0.86917 0.41694 0.72949 0.0
C2858 C 0.86389 0.43241 0.73727 0.0
C2859 C 0.84164 0.44855 0.75228 0.0
C2860 C 0.82493 0.4491 0.75994 0.0
C2861 C 0.84752 0.43293 0.74555 0.0
C2862 C 0.81443 0.43373 0.76137 0.0
C2863 C 0.82024 0.41813 0.7548 0.0
H2864 H 0.11782 0.37129 0.74673 0.0
H2865 H 0.10664 0.34028 0.69759 0.0
H2866 H 0.08837 0.31963 0.71324 0.0
H2867 H 0.0756 0.31027 0.74083 0.0
H2868 H 0.08684 0.34101 0.79004 0.0
H2869 H 0.10481 0.362 0.77437 0.0
C2870 C 0.11141 0.36001 0.73944 0.0
C2871 C 0.11366 0.35734 0.721 0.0
C2872 C 0.10083 0.34818 0.74852 0.0
C2873 C 0.10518 0.34267 0.71177 0.0
C2874 C 0.0947 0.33084 0.72071 0.0
C2875 C 0.08206 0.32152 0.74813 0.0
C2876 C 0.07991 0.32405 0.76656 0.0
C2877 C 0.09246 0.33345 0.73907 0.0
C2878 C 0.08812 0.33885 0.77582 0.0
C2879 C 0.0985 0.35079 0.76688 0.0
H2880 H 0.91251 0.72913 0.71361 0.0
H2881 H 0.89022 0.7751 0.70537 0.0
H2882 H 0.91418 0.79235 0.72067 0.0
H2883 H 0.94065 0.7942 0.7379 0.0
H2884 H 0.96171 0.74797 0.74733 0.0
H2885 H 0.93898 0.73095 0.73009 0.0
C2886 C 0.91296 0.74294 0.71494 0.0
C2887 C 0.8996 0.75082 0.70832 0.0
C2888 C 0.92648 0.7527 0.72413 0.0
C2889 C 0.90034 0.76872 0.71036 0.0
C2890 C 0.91401 0.77858 0.71914 0.0
C2891 C 0.9403 0.78041 0.73601 0.0
C2892 C 0.95274 0.77231 0.74389 0.0
C2893 C 0.92702 0.77069 0.72631 0.0
C2894 C 0.95212 0.75444 0.74153 0.0
C2895 C 0.93919 0.74472 0.73163 0.0
H2896 H 0.68992 0.22854 0.67287 0.0
H2897 H 0.7003 0.17648 0.65745 0.0
H2898 H 0.71991 0.18582 0.63382 0.0
H2899 H 0.73224 0.20852 0.61609 0.0
H2900 H 0.72201 0.26056 0.63193 0.0
H2901 H 0.7042 0.25144 0.65684 0.0
C2902 C 0.69655 0.21923 0.66443 0.0
C2903 C 0.69348 0.20181 0.66682 0.0
C2904 C 0.70777 0.22467 0.65087 0.0
C2905 C 0.70237 0.18996 0.65588 0.0
C2906 C 0.71357 0.19529 0.64233 0.0
C2907 C 0.72642 0.21792 0.62521 0.0
C2908 C 0.72832 0.23518 0.62203 0.0
C2909 C 0.71613 0.21258 0.63951 0.0
C2910 C 0.72052 0.24715 0.63389 0.0
C2911 C 0.71036 0.24196 0.64816 0.0
H2912 H 0.33675 0.22311 0.60027 0.0
H2913 H 0.31608 0.25083 0.6468 0.0
H2914 H 0.30073 0.26734 0.62848 0.0
H2915 H 0.2931 0.27388 0.59916 0.0
H2916 H 0.31215 0.24492 0.55271 0.0
H2917 H 0.32823 0.22888 0.571 0.0
C2918 C 0.32891 0.2328 0.60638 0.0
C2919 C 0.32761 0.23582 0.62484 0.0
C2920 C 0.31983 0.24199 0.59577 0.0
C2921 C 0.31725 0.24825 0.6326 0.0
C2922 C 0.3085 0.25772 0.62215 0.0
C2923 C 0.30083 0.26408 0.59313 0.0
C2924 C 0.30159 0.26058 0.57471 0.0
C2925 C 0.3097 0.25471 0.60373 0.0
C2926 C 0.31142 0.24774 0.56692 0.0
C2927 C 0.32061 0.23862 0.57735 0.0
H2928 H 0.35196 0.7867 0.66639 0.0
H2929 H 0.35032 0.83607 0.64794 0.0
H2930 H 0.33363 0.82295 0.62284 0.0
H2931 H 0.31859 0.79771 0.60654 0.0
H2932 H 0.32053 0.74818 0.6241 0.0
H2933 H 0.33801 0.76107 0.64909 0.0
C2934 C 0.34806 0.79457 0.65681 0.0
C2935 C 0.35234 0.81237 0.65918 0.0
C2936 C 0.3384 0.78694 0.6423 0.0
C2937 C 0.34722 0.82235 0.64655 0.0
C2938 C 0.33761 0.81488 0.63217 0.0
C2939 C 0.32278 0.78978 0.61592 0.0
C2940 C 0.31813 0.77209 0.61368 0.0
C2941 C 0.33294 0.79724 0.63004 0.0
C2942 C 0.32394 0.76185 0.62564 0.0
C2943 C 0.3339 0.76922 0.6399 0.0
H2944 H 0.68406 0.83871 0.57558 0.0
H2945 H 0.69738 0.87784 0.54092 0.0
H2946 H 0.7223 0.86349 0.52925 0.0
H2947 H 0.73977 0.83942 0.52822 0.0
H2948 H 0.72687 0.80053 0.5632 0.0
H2949 H 0.70223 0.81515 0.57532 0.0
C2950 C 0.69242 0.84411 0.56548 0.0
C2951 C 0.68881 0.85929 0.55909 0.0
C2952 C 0.70677 0.83583 0.55886 0.0
C2953 C 0.69984 0.86617 0.54608 0.0
C2954 C 0.7141 0.85797 0.53938 0.0
C2955 C 0.73175 0.83428 0.5387 0.0
C2956 C 0.73518 0.8189 0.5448 0.0
C2957 C 0.71764 0.84276 0.54563 0.0
C2958 C 0.72442 0.81225 0.55814 0.0
C2959 C 0.71036 0.82063 0.56512 0.0
H2960 H 0.72063 0.88112 0.44351 0.0
H2961 H 0.70391 0.84086 0.40315 0.0
H2962 H 0.72042 0.82117 0.41623 0.0
H2963 H 0.73956 0.81532 0.43918 0.0
H2964 H 0.75702 0.8557 0.47899 0.0
H2965 H 0.74031 0.87544 0.46606 0.0
C2966 C 0.72059 0.86803 0.43757 0.0
C2967 C 0.711 0.86246 0.42241 0.0
C2968 C 0.73024 0.85681 0.44507 0.0
C2969 C 0.7112 0.8455 0.41481 0.0
C2970 C 0.72061 0.83421 0.4223 0.0
C2971 C 0.73959 0.82842 0.44506 0.0
C2972 C 0.74939 0.83406 0.46004 0.0
C2973 C 0.73013 0.83971 0.43744 0.0
C2974 C 0.7496 0.85112 0.46739 0.0
C2975 C 0.74003 0.86238 0.46004 0.0
H2976 H 0.69622 0.20197 0.4015 0.0
H2977 H 0.66788 0.16159 0.42747 0.0
H2978 H 0.68206 0.17242 0.4551 0.0
H2979 H 0.70212 0.1939 0.47204 0.0
H2980 H 0.72924 0.23482 0.44601 0.0
H2981 H 0.71593 0.22326 0.4182 0.0
C2982 C 0.69319 0.19546 0.41316 0.0
C2983 C 0.68105 0.18096 0.41241 0.0
C2984 C 0.70114 0.20191 0.429 0.0
C2985 C 0.67717 0.17279 0.4277 0.0
C2986 C 0.68527 0.17897 0.4435 0.0
C2987 C 0.70513 0.20017 0.46022 0.0
C2988 C 0.71657 0.21517 0.46099 0.0
C2989 C 0.69722 0.19358 0.44433 0.0
C2990 C 0.72033 0.22333 0.44569 0.0
C2991 C 0.71277 0.21671 0.42981 0.0
H2992 H 0.34961 0.19986 0.46239 0.0
H2993 H 0.32131 0.19998 0.41488 0.0
H2994 H 0.3052 0.22264 0.42905 0.0
H2995 H 0.29857 0.24198 0.45497 0.0
H2996 H 0.32635 0.24217 0.50272 0.0
H2997 H 0.34342 0.22001 0.48834 0.0
C2998 C 0.33996 0.20488 0.45513 0.0
C2999 C 0.33665 0.19813 0.43761 0.0
C3000 C 0.33066 0.21798 0.46338 0.0
C3001 C 0.32413 0.20485 0.42838 0.0
C3002 C 0.31488 0.21783 0.43647 0.0
C3003 C 0.3083 0.2371 0.46226 0.0
C3004 C 0.3111 0.24355 0.4799 0.0
C3005 C 0.31793 0.22438 0.45397 0.0
C3006 C 0.32401 0.23741 0.48908 0.0
C3007 C 0.3337 0.2247 0.4809 0.0
H3008 H 0.37059 0.8613 0.50763 0.0
H3009 H 0.35599 0.83743 0.45602 0.0
H3010 H 0.33948 0.81399 0.46923 0.0
H3011 H 0.32975 0.7998 0.49528 0.0
H3012 H 0.34294 0.82384 0.54703 0.0
H3013 H 0.3595 0.84771 0.53397 0.0
C3014 C 0.36372 0.85102 0.49929 0.0
C3015 C 0.36463 0.85111 0.48085 0.0
C3016 C 0.35412 0.83756 0.50698 0.0
C3017 C 0.35553 0.83773 0.47024 0.0
C3018 C 0.34612 0.82426 0.47777 0.0
C3019 C 0.33637 0.81024 0.50365 0.0
C3020 C 0.33549 0.81003 0.52201 0.0
C3021 C 0.34548 0.82396 0.49608 0.0
C3022 C 0.34367 0.82376 0.53283 0.0
C3023 C 0.35307 0.83736 0.52537 0.0
H3024 H 0.5915 0.23411 0.69212 0.0
H3025 H 0.602 0.21791 0.7424 0.0
H3026 H 0.5786 0.23333 0.75627 0.0
H3027 H 0.55656 0.25304 0.75453 0.0
H3028 H 0.54633 0.26953 0.70436 0.0
H3029 H 0.56829 0.2524 0.69005 0.0
C3030 C 0.5886 0.23381 0.70609 0.0
C3031 C 0.5986 0.22493 0.71621 0.0
C3032 C 0.57524 0.24285 0.71403 0.0
C3033 C 0.59458 0.22467 0.73429 0.0
C3034 C 0.58121 0.23352 0.74225 0.0
C3035 C 0.55888 0.25261 0.7404 0.0
C3036 C 0.54981 0.26256 0.73052 0.0
C3037 C 0.57163 0.24286 0.7323 0.0
C3038 C 0.55323 0.26212 0.71228 0.0
C3039 C 0.56577 0.2523 0.7041 0.0
H3040 H 0.33086 0.15744 0.68526 0.0
H3041 H 0.37488 0.13595 0.65891 0.0
H3042 H 0.3663 0.10889 0.67092 0.0
H3043 H 0.34742 0.09205 0.69075 0.0
H3044 H 0.30358 0.11388 0.71704 0.0
H3045 H 0.31088 0.14002 0.70309 0.0
C3046 C 0.3385 0.14679 0.682 0.0
C3047 C 0.35358 0.14877 0.67137 0.0
C3048 C 0.33356 0.13134 0.689 0.0
C3049 C 0.36323 0.13478 0.6671 0.0
C3050 C 0.35838 0.11932 0.67403 0.0
C3051 C 0.33945 0.10252 0.6933 0.0
C3052 C 0.32502 0.10107 0.70492 0.0
C3053 C 0.34377 0.11758 0.68529 0.0
C3054 C 0.31465 0.11463 0.708 0.0
C3055 C 0.31887 0.12962 0.70013 0.0
H3056 H 0.41505 0.78837 0.73834 0.0
H3057 H 0.44048 0.83366 0.7183 0.0
H3058 H 0.46843 0.82628 0.72683 0.0
H3059 H 0.48569 0.80706 0.74034 0.0
H3060 H 0.46016 0.76152 0.75968 0.0
H3061 H 0.43226 0.76889 0.7511 0.0
C3062 C 0.4267 0.79662 0.73578 0.0
C3063 C 0.42564 0.81156 0.72771 0.0
C3064 C 0.44274 0.79224 0.7406 0.0
C3065 C 0.4409 0.82207 0.72447 0.0
C3066 C 0.4569 0.81787 0.72937 0.0
C3067 C 0.474 0.79877 0.74262 0.0
C3068 C 0.47498 0.78375 0.75054 0.0
C3069 C 0.45798 0.80302 0.7375 0.0
C3070 C 0.45976 0.77304 0.75335 0.0
C3071 C 0.44379 0.77729 0.74854 0.0
H3072 H 0.666 0.88297 0.64732 0.0
H3073 H 0.64269 0.92589 0.6321 0.0
H3074 H 0.65091 0.94258 0.65996 0.0
H3075 H 0.666 0.94537 0.68797 0.0
H3076 H 0.69108 0.90318 0.70227 0.0
H3077 H 0.68069 0.88561 0.67558 0.0
C3078 C 0.66241 0.89585 0.65031 0.0
C3079 C 0.65351 0.90314 0.63788 0.0
C3080 C 0.66755 0.90546 0.66613 0.0
C3081 C 0.64948 0.92003 0.64156 0.0
C3082 C 0.65416 0.92955 0.65746 0.0
C3083 C 0.66893 0.93224 0.68531 0.0
C3084 C 0.67911 0.92545 0.69702 0.0
C3085 C 0.66335 0.92245 0.66975 0.0
C3086 C 0.6832 0.90857 0.69338 0.0
C3087 C 0.67729 0.89858 0.67815 0.0
H3088 H 0.62859 0.87802 0.34432 0.0
H3089 H 0.61017 0.87378 0.39784 0.0
H3090 H 0.58545 0.85418 0.38712 0.0
H3091 H 0.5685 0.83905 0.36232 0.0
H3092 H 0.58704 0.84416 0.30901 0.0
H3093 H 0.61226 0.86267 0.31989 0.0
C3094 C 0.61924 0.87276 0.3537 0.0
C3095 C 0.62122 0.8774 0.37186 0.0
C3096 C 0.60501 0.86173 0.34746 0.0
C3097 C 0.60894 0.87045 0.38378 0.0
C3098 C 0.59479 0.85926 0.37766 0.0
C3099 C 0.57815 0.84415 0.35314 0.0
C3100 C 0.57585 0.8404 0.3349 0.0
C3101 C 0.59261 0.85492 0.3595 0.0
C3102 C 0.58839 0.84712 0.32311 0.0
C3103 C 0.60285 0.85763 0.32931 0.0
H3104 H 0.71714 0.1367 0.33638 0.0
H3105 H 0.66752 0.10671 0.33478 0.0
H3106 H 0.68163 0.08077 0.32606 0.0
H3107 H 0.70821 0.06671 0.31829 0.0
H3108 H 0.7577 0.09688 0.32105 0.0
H3109 H 0.74354 0.12262 0.33007 0.0
C3110 C 0.7094 0.12449 0.33408 0.0
C3111 C 0.69132 0.12363 0.33605 0.0
C3112 C 0.7176 0.10965 0.32941 0.0
C3113 C 0.68148 0.1077 0.3333 0.0
C3114 C 0.68954 0.09287 0.32832 0.0
C3115 C 0.71583 0.07893 0.32103 0.0
C3116 C 0.73394 0.07992 0.31918 0.0
C3117 C 0.7076 0.0937 0.32628 0.0
C3118 C 0.74375 0.09578 0.32272 0.0
C3119 C 0.73566 0.11052 0.32772 0.0
H3120 H 0.38615 0.20112 0.36001 0.0
H3121 H 0.42037 0.16993 0.38167 0.0
H3122 H 0.44541 0.18644 0.36932 0.0
H3123 H 0.45752 0.20968 0.35213 0.0
H3124 H 0.42331 0.24177 0.33194 0.0
H3125 H 0.39827 0.2251 0.34409 0.0
C3126 C 0.39909 0.1979 0.36195 0.0
C3127 C 0.40144 0.18424 0.37156 0.0
C3128 C 0.41339 0.20768 0.35518 0.0
C3129 C 0.41827 0.18038 0.37427 0.0
C3130 C 0.43257 0.1898 0.36722 0.0
C3131 C 0.44455 0.21298 0.35045 0.0
C3132 C 0.44217 0.22684 0.34115 0.0
C3133 C 0.43028 0.20346 0.35763 0.0
C3134 C 0.42539 0.2312 0.33917 0.0
C3135 C 0.4111 0.22162 0.34602 0.0
H3136 H 0.35676 0.94368 0.39616 0.0
H3137 H 0.32453 0.8961 0.38581 0.0
H3138 H 0.30388 0.91051 0.37116 0.0
H3139 H 0.29509 0.93653 0.36092 0.0
H3140 H 0.32743 0.98403 0.37081 0.0
H3141 H 0.34793 0.96975 0.38594 0.0
C3142 C 0.34522 0.93646 0.39071 0.0
C3143 C 0.34223 0.91882 0.3921 0.0
C3144 C 0.3334 0.94481 0.38221 0.0
C3145 C 0.3272 0.90967 0.38491 0.0
C3146 C 0.31535 0.9179 0.37655 0.0
C3147 C 0.30654 0.94378 0.36657 0.0
C3148 C 0.3097 0.96132 0.36483 0.0
C3149 C 0.31832 0.93546 0.37512 0.0
C3150 C 0.32475 0.97049 0.37191 0.0
C3151 C 0.33645 0.96234 0.38059 0.0
H3152 H 0.68376 0.13114 0.74353 0.0
H3153 H 0.66446 0.10679 0.69378 0.0
H3154 H 0.67354 0.07968 0.70029 0.0
H3155 H 0.68694 0.06281 0.72006 0.0
H3156 H 0.70565 0.08681 0.7701 0.0
H3157 H 0.69673 0.1141 0.76359 0.0
C3158 C 0.68155 0.11991 0.73411 0.0
C3159 C 0.67348 0.12104 0.71817 0.0
C3160 C 0.68668 0.10429 0.73799 0.0
C3161 C 0.67062 0.10631 0.70616 0.0
C3162 C 0.67583 0.09079 0.70985 0.0
C3163 C 0.68918 0.07406 0.72947 0.0
C3164 C 0.69703 0.07284 0.74548 0.0
C3165 C 0.6839 0.08963 0.7257 0.0
C3166 C 0.69956 0.08743 0.75772 0.0
C3167 C 0.69451 0.10303 0.75397 0.0
H3168 H 0.72421 0.92948 0.36807 0.0
H3169 H 0.68306 0.96237 0.37421 0.0
H3170 H 0.69931 0.98203 0.35581 0.0
H3171 H 0.72467 0.98943 0.337 0.0
H3172 H 0.76587 0.95674 0.33079 0.0
H3173 H 0.7502 0.93756 0.35029 0.0
C3174 C 0.71884 0.94101 0.3655 0.0
C3175 C 0.70238 0.94435 0.37247 0.0
C3176 C 0.72824 0.95229 0.35483 0.0
C3177 C 0.69568 0.95941 0.36902 0.0
C3178 C 0.70494 0.97068 0.35844 0.0
C3179 C 0.73018 0.97808 0.3399 0.0
C3180 C 0.74633 0.97444 0.3324 0.0
C3181 C 0.72112 0.96714 0.3511 0.0
C3182 C 0.75348 0.95986 0.33649 0.0
C3183 C 0.7445 0.94886 0.34757 0.0
H3184 H 0.63499 0.22131 0.34914 0.0
H3185 H 0.60399 0.17429 0.33231 0.0
H3186 H 0.58526 0.18995 0.31658 0.0
H3187 H 0.57657 0.21715 0.30929 0.0
H3188 H 0.6072 0.2642 0.32653 0.0
H3189 H 0.62722 0.24834 0.34047 0.0
C3190 C 0.62422 0.21445 0.34192 0.0
C3191 C 0.62085 0.19665 0.34201 0.0
C3192 C 0.61341 0.22354 0.33304 0.0
C3193 C 0.60686 0.18798 0.33253 0.0
C3194 C 0.59612 0.19693 0.32354 0.0
C3195 C 0.58785 0.2239 0.31576 0.0
C3196 C 0.59046 0.24182 0.31681 0.0
C3197 C 0.59915 0.21473 0.32391 0.0
C3198 C 0.60489 0.25042 0.32561 0.0
C3199 C 0.61632 0.24136 0.33357 0.0
H3200 H 0.31018 0.11043 0.41142 0.0
H3201 H 0.36074 0.10086 0.38976 0.0
H3202 H 0.34803 0.07556 0.37168 0.0
H3203 H 0.32237 0.05675 0.36128 0.0
H3204 H 0.27189 0.06711 0.38254 0.0
H3205 H 0.28483 0.09138 0.40169 0.0
C3206 C 0.31847 0.10279 0.40282 0.0
C3207 C 0.33638 0.10759 0.4019 0.0
C3208 C 0.31109 0.08837 0.39239 0.0
C3209 C 0.34691 0.09747 0.39071 0.0
C3210 C 0.33965 0.08302 0.38034 0.0
C3211 C 0.31421 0.06435 0.37007 0.0
C3212 C 0.29618 0.06009 0.37045 0.0
C3213 C 0.32173 0.07846 0.38093 0.0
C3214 C 0.28581 0.06994 0.38212 0.0
C3215 C 0.29319 0.0839 0.393 0.0
H3216 H 0.41653 0.87403 0.37096 0.0
H3217 H 0.44846 0.87535 0.41612 0.0
H3218 H 0.47107 0.86303 0.39741 0.0
H3219 H 0.48082 0.84971 0.36867 0.0
H3220 H 0.44821 0.84708 0.32384 0.0
H3221 H 0.42707 0.86234 0.34188 0.0
C3222 C 0.42853 0.87187 0.37668 0.0
C3223 C 0.4307 0.8755 0.39496 0.0
C3224 C 0.44139 0.86446 0.36589 0.0
C3225 C 0.44636 0.87258 0.40212 0.0
C3226 C 0.45931 0.86549 0.39143 0.0
C3227 C 0.46911 0.85252 0.36284 0.0
C3228 C 0.46613 0.84719 0.34493 0.0
C3229 C 0.45679 0.86099 0.37338 0.0
C3230 C 0.451 0.8512 0.33752 0.0
C3231 C 0.4388 0.85981 0.34787 0.0
H3232 H 0.32529 0.8906 0.73132 0.0
H3233 H 0.37981 0.90775 0.73103 0.0
H3234 H 0.37342 0.93664 0.74197 0.0
H3235 H 0.35219 0.95745 0.74941 0.0
H3236 H 0.29773 0.94015 0.74912 0.0
H3237 H 0.30427 0.91089 0.74052 0.0
C3238 C 0.33581 0.9006 0.7338 0.0
C3239 C 0.35299 0.89702 0.73023 0.0
C3240 C 0.33204 0.9172 0.73983 0.0
C3241 C 0.36645 0.91015 0.73361 0.0
C3242 C 0.36281 0.92669 0.73982 0.0
C3243 C 0.34178 0.94722 0.74774 0.0
C3244 C 0.32449 0.95098 0.74976 0.0
C3245 C 0.34563 0.93043 0.74266 0.0
C3246 C 0.31113 0.93762 0.74738 0.0
C3247 C 0.31486 0.92089 0.74252 0.0
H3248 H 0.60965 0.84597 0.69179 0.0
H3249 H 0.62872 0.7998 0.66669 0.0
H3250 H 0.61373 0.78358 0.68911 0.0
H3251 H 0.59498 0.78245 0.71568 0.0
H3252 H 0.57565 0.82854 0.74051 0.0
H3253 H 0.5911 0.84487 0.71841 0.0
C3254 C 0.61059 0.83237 0.69123 0.0
C3255 C 0.62028 0.82412 0.67754 0.0
C3256 C 0.60188 0.8231 0.70411 0.0
C3257 C 0.62134 0.80648 0.67705 0.0
C3258 C 0.61275 0.79718 0.68986 0.0
C3259 C 0.59403 0.79604 0.71615 0.0
C3260 C 0.58415 0.80425 0.72968 0.0
C3261 C 0.6029 0.80534 0.70338 0.0
C3262 C 0.58329 0.82194 0.73031 0.0
C3263 C 0.59206 0.83127 0.71765 0.0
H3264 H 0.42636 0.23571 0.67365 0.0
H3265 H 0.38027 0.24797 0.70359 0.0
H3266 H 0.39776 0.2667 0.72503 0.0
H3267 H 0.42627 0.27857 0.73612 0.0
H3268 H 0.47226 0.26724 0.70574 0.0
H3269 H 0.45472 0.24918 0.68362 0.0
C3270 C 0.42014 0.24258 0.68479 0.0
C3271 C 0.40205 0.24033 0.68706 0.0
C3272 C 0.43026 0.25341 0.69706 0.0
C3273 C 0.39417 0.24946 0.7015 0.0
C3274 C 0.40416 0.26013 0.71383 0.0
C3275 C 0.43238 0.27214 0.72461 0.0
C3276 C 0.45045 0.27405 0.72254 0.0
C3277 C 0.42222 0.262 0.71188 0.0
C3278 C 0.45832 0.26591 0.70752 0.0
C3279 C 0.44832 0.25558 0.69493 0.0
H3280 H 0.74415 0.70894 0.18642 0.0
H3281 H 0.73548 0.7605 0.20662 0.0
H3282 H 0.74765 0.77085 0.17949 0.0
H3283 H 0.75909 0.7652 0.14935 0.0
H3284 H 0.76659 0.71361 0.12838 0.0
H3285 H 0.75698 0.70347 0.15654 0.0
C3286 C 0.7451 0.72245 0.18496 0.0
C3287 C 0.73877 0.73387 0.19854 0.0
C3288 C 0.75194 0.72836 0.16916 0.0
C3289 C 0.7401 0.75136 0.19637 0.0
C3290 C 0.74708 0.75733 0.18084 0.0
C3291 C 0.75866 0.75174 0.15094 0.0
C3292 C 0.76351 0.74021 0.13673 0.0
C3293 C 0.75274 0.74592 0.16703 0.0
C3294 C 0.76315 0.72283 0.13914 0.0
C3295 C 0.75748 0.71698 0.15521 0.0
H3296 H 0.34916 0.68601 0.11518 0.0
H3297 H 0.40009 0.69709 0.09218 0.0
H3298 H 0.38892 0.71677 0.07408 0.0
H3299 H 0.36468 0.73106 0.06495 0.0
H3300 H 0.31366 0.71933 0.08732 0.0
H3301 H 0.32483 0.69962 0.10545 0.0
C3302 C 0.35781 0.69272 0.1062 0.0
C3303 C 0.37544 0.69013 0.10509 0.0
C3304 C 0.35128 0.7039 0.09572 0.0
C3305 C 0.38646 0.69883 0.09328 0.0
C3306 C 0.38009 0.71012 0.08295 0.0
C3307 C 0.35606 0.72421 0.07387 0.0
C3308 C 0.33841 0.72664 0.07488 0.0
C3309 C 0.36254 0.7128 0.08411 0.0
C3310 C 0.32729 0.71755 0.08626 0.0
C3311 C 0.33367 0.70635 0.09666 0.0
H3312 H 0.39904 0.33299 0.12428 0.0
H3313 H 0.39232 0.37212 0.09084 0.0
H3314 H 0.37341 0.35184 0.07208 0.0
H3315 H 0.35653 0.32373 0.06684 0.0
H3316 H 0.36258 0.28517 0.10115 0.0
H3317 H 0.3841 0.30441 0.1177 0.0
C3318 C 0.39368 0.33705 0.11274 0.0
C3319 C 0.39698 0.35412 0.10912 0.0
C3320 C 0.38256 0.32543 0.10218 0.0
C3321 C 0.38995 0.35909 0.09403 0.0
C3322 C 0.37905 0.34752 0.08331 0.0
C3323 C 0.36267 0.31953 0.07786 0.0
C3324 C 0.35795 0.30303 0.08271 0.0
C3325 C 0.37488 0.33078 0.08755 0.0
C3326 C 0.36614 0.2977 0.09693 0.0
C3327 C 0.37837 0.30875 0.10652 0.0
H3328 H 0.6718 0.35984 0.09797 0.0
H3329 H 0.68571 0.39765 0.06198 0.0
H3330 H 0.70788 0.38059 0.04804 0.0
H3331 H 0.72333 0.35497 0.04612 0.0
H3332 H 0.71018 0.31783 0.08301 0.0
H3333 H 0.68754 0.33451 0.09638 0.0
C3334 C 0.67962 0.36432 0.08702 0.0
C3335 C 0.67707 0.37997 0.081 0.0
C3336 C 0.69247 0.35456 0.0792 0.0
C3337 C 0.68742 0.38565 0.06689 0.0
C3338 C 0.7001 0.3759 0.0589 0.0
C3339 C 0.71564 0.3506 0.0572 0.0
C3340 C 0.71845 0.33513 0.06349 0.0
C3341 C 0.70279 0.36038 0.06501 0.0
C3342 C 0.70814 0.32955 0.0777 0.0
C3343 C 0.69525 0.33913 0.08544 0.0
H3344 H 0.70528 0.3512 0.92425 0.0
H3345 H 0.7182 0.39753 0.95847 0.0
H3346 H 0.73377 0.38188 0.97744 0.0
H3347 H 0.74352 0.35495 0.98447 0.0
H3348 H 0.72974 0.30849 0.95085 0.0
H3349 H 0.7146 0.32424 0.93153 0.0
C3350 C 0.71156 0.35789 0.93582 0.0
C3351 C 0.71064 0.37551 0.9399 0.0
C3352 C 0.72027 0.34877 0.94682 0.0
C3353 C 0.71869 0.38396 0.95504 0.0
C3354 C 0.72761 0.37503 0.9659 0.0
C3355 C 0.73727 0.34833 0.97285 0.0
C3356 C 0.73776 0.33063 0.96904 0.0
C3357 C 0.72847 0.35743 0.96192 0.0
C3358 C 0.72941 0.32211 0.9541 0.0
C3359 C 0.72083 0.33111 0.94303 0.0
H3360 H 0.65549 0.66695 0.97054 0.0
H3361 H 0.69652 0.63963 0.94533 0.0
H3362 H 0.71775 0.65814 0.9631 0.0
H3363 H 0.72486 0.68315 0.98437 0.0
H3364 H 0.68384 0.71018 0.00999 0.0
H3365 H 0.66246 0.69087 0.99318 0.0
C3366 C 0.66905 0.66491 0.96904 0.0
C3367 C 0.67438 0.65195 0.95654 0.0
C3368 C 0.68124 0.6757 0.97918 0.0
C3369 C 0.69203 0.6495 0.95482 0.0
C3370 C 0.70421 0.66013 0.96493 0.0
C3371 C 0.71123 0.68468 0.98651 0.0
C3372 C 0.70601 0.6982 0.99836 0.0
C3373 C 0.69898 0.67343 0.97695 0.0
C3374 C 0.68828 0.70011 1.00072 0.0
C3375 C 0.67602 0.68898 0.99121 0.0
H3376 H 0.30985 0.78686 0.86785 0.0
H3377 H 0.3482 0.75145 0.86804 0.0
H3378 H 0.3448 0.75195 0.90001 0.0
H3379 H 0.33118 0.76277 0.928 0.0
H3380 H 0.29222 0.79754 0.92793 0.0
H3381 H 0.29555 0.79705 0.89586 0.0
C3382 C 0.3174 0.77925 0.87494 0.0
C3383 C 0.32907 0.76895 0.86565 0.0
C3384 C 0.3153 0.77954 0.89332 0.0
C3385 C 0.33882 0.75914 0.8749 0.0
C3386 C 0.337 0.75954 0.89319 0.0
C3387 C 0.32347 0.77025 0.92091 0.0
C3388 C 0.31155 0.78023 0.93021 0.0
C3389 C 0.3253 0.76971 0.90253 0.0
C3390 C 0.30143 0.78971 0.92096 0.0
C3391 C 0.30337 0.78947 0.90267 0.0
H3392 H 0.32433 0.29704 0.92439 0.0
H3393 H 0.30113 0.34268 0.94441 0.0
H3394 H 0.29435 0.33106 0.97251 0.0
H3395 H 0.29558 0.30814 0.9916 0.0
H3396 H 0.31814 0.26228 0.97096 0.0
H3397 H 0.32486 0.27397 0.94304 0.0
C3398 C 0.31775 0.30447 0.93486 0.0
C3399 C 0.31328 0.32074 0.93226 0.0
C3400 C 0.31392 0.29773 0.95096 0.0
C3401 C 0.30472 0.33012 0.94601 0.0
C3402 C 0.30087 0.3235 0.96212 0.0
C3403 C 0.30182 0.30062 0.98095 0.0
C3404 C 0.30644 0.28436 0.98351 0.0
C3405 C 0.30547 0.30733 0.96476 0.0
C3406 C 0.31473 0.27494 0.96957 0.0
C3407 C 0.31846 0.28156 0.95351 0.0
H3408 H 0.6469 0.73245 0.26757 0.0
H3409 H 0.6701 0.78386 0.28154 0.0
H3410 H 0.64176 0.79302 0.29023 0.0
H3411 H 0.61019 0.78681 0.29245 0.0
H3412 H 0.58693 0.7356 0.2777 0.0
H3413 H 0.61545 0.72598 0.27099 0.0
C3414 C 0.6458 0.74562 0.27267 0.0
C3415 C 0.66063 0.75745 0.27378 0.0
C3416 C 0.62941 0.75087 0.27749 0.0
C3417 C 0.65892 0.77448 0.28045 0.0
C3418 C 0.64269 0.77975 0.28541 0.0
C3419 C 0.61138 0.77355 0.28776 0.0
C3420 C 0.59643 0.76197 0.28556 0.0
C3421 C 0.62782 0.76813 0.28371 0.0
C3422 C 0.59821 0.74476 0.27972 0.0
C3423 C 0.61453 0.73926 0.27575 0.0
H3424 H 0.37221 0.61256 0.20865 0.0
H3425 H 0.36356 0.58916 0.15555 0.0
H3426 H 0.34211 0.56776 0.16665 0.0
H3427 H 0.3263 0.55536 0.19166 0.0
H3428 H 0.33538 0.57908 0.24457 0.0
H3429 H 0.3563 0.60064 0.2333 0.0
C3430 C 0.36563 0.60283 0.19945 0.0
C3431 C 0.36951 0.60246 0.18129 0.0
C3432 C 0.35345 0.59056 0.20591 0.0
C3433 C 0.36083 0.58973 0.1696 0.0
C3434 C 0.34857 0.57748 0.17594 0.0
C3435 C 0.33278 0.56534 0.20067 0.0
C3436 C 0.32938 0.56556 0.21893 0.0
C3437 C 0.34483 0.57774 0.19409 0.0
C3438 C 0.33797 0.57847 0.23049 0.0
C3439 C 0.34986 0.59086 0.22405 0.0
H3440 H 0.47278 0.36226 0.19086 0.0
H3441 H 0.42157 0.34053 0.20496 0.0
H3442 H 0.43379 0.32289 0.22452 0.0
H3443 H 0.459 0.31348 0.23756 0.0
H3444 H 0.51014 0.33602 0.22477 0.0
H3445 H 0.49803 0.35357 0.2048 0.0
C3446 C 0.46431 0.35365 0.19821 0.0
C3447 C 0.44629 0.35266 0.19638 0.0
C3448 C 0.47142 0.34371 0.20966 0.0
C3449 C 0.43548 0.34157 0.20614 0.0
C3450 C 0.44245 0.33144 0.2173 0.0
C3451 C 0.46746 0.32219 0.2303 0.0
C3452 C 0.48541 0.3234 0.23244 0.0
C3453 C 0.46039 0.33237 0.21912 0.0
C3454 C 0.49627 0.33493 0.22328 0.0
C3455 C 0.48935 0.3449 0.21187 0.0
H3456 H 0.65222 0.44677 0.16382 0.0
H3457 H 0.67055 0.39815 0.16885 0.0
H3458 H 0.68647 0.41045 0.19498 0.0
H3459 H 0.69671 0.43558 0.21525 0.0
H3460 H 0.67781 0.48402 0.21064 0.0
H3461 H 0.6605 0.47129 0.18557 0.0
C3462 C 0.65957 0.43887 0.17079 0.0
C3463 C 0.66016 0.42159 0.16454 0.0
C3464 C 0.66865 0.44602 0.18579 0.0
C3465 C 0.66965 0.41141 0.17364 0.0
C3466 C 0.67889 0.41848 0.18847 0.0
C3467 C 0.68867 0.44326 0.20879 0.0
C3468 C 0.68855 0.46068 0.21463 0.0
C3469 C 0.67869 0.43583 0.1945 0.0
C3470 C 0.678 0.47054 0.20636 0.0
C3471 C 0.66819 0.4633 0.192 0.0
H3472 H 0.62345 0.41242 0.85216 0.0
H3473 H 0.61145 0.38974 0.90057 0.0
H3474 H 0.5857 0.37358 0.88747 0.0
H3475 H 0.56678 0.36572 0.86207 0.0
H3476 H 0.5796 0.38809 0.81361 0.0
H3477 H 0.6047 0.40475 0.82707 0.0
C3478 C 0.61521 0.40397 0.8599 0.0
C3479 C 0.6194 0.40228 0.87731 0.0
C3480 C 0.60051 0.39472 0.8523 0.0
C3481 C 0.60854 0.39127 0.88712 0.0
C3482 C 0.59381 0.38203 0.87964 0.0
C3483 C 0.57511 0.37419 0.85444 0.0
C3484 C 0.57123 0.3757 0.83687 0.0
C3485 C 0.58971 0.3836 0.8622 0.0
C3486 C 0.58207 0.38689 0.82724 0.0
C3487 C 0.59653 0.39633 0.83488 0.0
H3488 H 0.68638 0.56987 0.88683 0.0
H3489 H 0.68 0.60884 0.85308 0.0
H3490 H 0.70103 0.5971 0.83187 0.0
H3491 H 0.72205 0.57653 0.82344 0.0
H3492 H 0.72875 0.53766 0.85713 0.0
H3493 H 0.70688 0.54872 0.87795 0.0
C3494 C 0.6895 0.57573 0.87478 0.0
C3495 C 0.68163 0.59023 0.87157 0.0
C3496 C 0.70175 0.56902 0.8627 0.0
C3497 C 0.68587 0.59769 0.85591 0.0
C3498 C 0.69792 0.591 0.84377 0.0
C3499 C 0.71856 0.57033 0.83522 0.0
C3500 C 0.72699 0.55629 0.83873 0.0
C3501 C 0.70603 0.57677 0.8471 0.0
C3502 C 0.72256 0.5486 0.85422 0.0
C3503 C 0.71001 0.55487 0.86608 0.0
H3504 H 0.3874 0.74794 0.80596 0.0
H3505 H 0.39727 0.79861 0.7898 0.0
H3506 H 0.4283 0.79599 0.78824 0.0
H3507 H 0.45263 0.77996 0.79305 0.0
H3508 H 0.44289 0.72971 0.81025 0.0
H3509 H 0.41176 0.73147 0.80971 0.0
C3510 C 0.39632 0.75835 0.80195 0.0
C3511 C 0.39004 0.77348 0.79811 0.0
C3512 C 0.41416 0.75689 0.80141 0.0
C3513 C 0.40178 0.78688 0.79297 0.0
C3514 C 0.41952 0.78541 0.7921 0.0
C3515 C 0.4437 0.76943 0.79679 0.0
C3516 C 0.45008 0.75479 0.80183 0.0
C3517 C 0.42586 0.7706 0.79662 0.0
C3518 C 0.43833 0.74109 0.80623 0.0
C3519 C 0.42053 0.74212 0.806 0.0
H3520 H 0.30135 0.42855 0.85551 0.0
H3521 H 0.26073 0.39169 0.83404 0.0
H3522 H 0.24597 0.41458 0.82427 0.0
H3523 H 0.2448 0.44529 0.82148 0.0
H3524 H 0.28618 0.4817 0.84197 0.0
H3525 H 0.30038 0.45887 0.85253 0.0
C3526 C 0.28925 0.4255 0.84872 0.0
C3527 C 0.28216 0.40842 0.84554 0.0
C3528 C 0.28095 0.4387 0.84296 0.0
C3529 C 0.26652 0.40472 0.83662 0.0
C3530 C 0.25804 0.41782 0.83106 0.0
C3531 C 0.25688 0.44814 0.82834 0.0
C3532 C 0.26449 0.46508 0.83092 0.0
C3533 C 0.26514 0.43487 0.83412 0.0
C3534 C 0.28019 0.4687 0.83972 0.0
C3535 C 0.28829 0.45567 0.84578 0.0
H3536 H 0.75189 0.65616 0.25794 0.0
H3537 H 0.69744 0.64163 0.25042 0.0
H3538 H 0.70078 0.6128 0.25725 0.0
H3539 H 0.71915 0.59163 0.26544 0.0
H3540 H 0.7738 0.60555 0.2713 0.0
H3541 H 0.77045 0.63469 0.2651 0.0
C3542 C 0.74076 0.64668 0.25779 0.0
C3543 C 0.72443 0.65108 0.25374 0.0
C3544 C 0.74281 0.63003 0.2615 0.0
C3545 C 0.71017 0.63859 0.25345 0.0
C3546 C 0.71205 0.6221 0.25741 0.0
C3547 C 0.73027 0.60113 0.26547 0.0
C3548 C 0.74666 0.59661 0.269 0.0
C3549 C 0.72828 0.61769 0.2615 0.0
C3550 C 0.76107 0.60884 0.26867 0.0
C3551 C 0.75914 0.62546 0.26512 0.0
H3552 H 0.72886 0.43159 0.87315 0.0
H3553 H 0.69312 0.46991 0.88308 0.0
H3554 H 0.71009 0.48776 0.86342 0.0
H3555 H 0.73415 0.49191 0.84215 0.0
H3556 H 0.7703 0.45415 0.83233 0.0
H3557 H 0.75416 0.43667 0.85326 0.0
C3558 C 0.72487 0.44391 0.87115 0.0
C3559 C 0.70964 0.4493 0.8795 0.0
C3560 C 0.73469 0.45415 0.85974 0.0
C3561 C 0.70473 0.46537 0.87682 0.0
C3562 C 0.7144 0.4756 0.86551 0.0
C3563 C 0.73844 0.47983 0.84461 0.0
C3564 C 0.75319 0.47415 0.83561 0.0
C3565 C 0.72921 0.46999 0.85668 0.0
C3566 C 0.75892 0.4587 0.83913 0.0
C3567 C 0.74969 0.44872 0.85103 0.0
H3568 H 0.62409 0.69443 0.89792 0.0
H3569 H 0.59613 0.64714 0.87659 0.0
H3570 H 0.58261 0.66226 0.85546 0.0
H3571 H 0.57815 0.68907 0.84364 0.0
H3572 H 0.60593 0.73626 0.86535 0.0
H3573 H 0.62006 0.72098 0.88585 0.0
C3574 C 0.61509 0.68738 0.88862 0.0
C3575 C 0.61112 0.66968 0.88886 0.0
C3576 C 0.60729 0.69615 0.87663 0.0
C3577 C 0.59939 0.66078 0.87672 0.0
C3578 C 0.59166 0.66941 0.86463 0.0
C3579 C 0.58745 0.69596 0.85273 0.0
C3580 C 0.591 0.71376 0.853 0.0
C3581 C 0.59545 0.68711 0.86453 0.0
C3582 C 0.60287 0.72258 0.86502 0.0
C3583 C 0.61099 0.71385 0.87669 0.0
H3584 H 0.32471 0.6723 0.85281 0.0
H3585 H 0.27522 0.68968 0.86899 0.0
H3586 H 0.26212 0.66022 0.8674 0.0
H3587 H 0.26408 0.62976 0.85837 0.0
H3588 H 0.31347 0.61238 0.84193 0.0
H3589 H 0.32725 0.64161 0.84672 0.0
C3590 C 0.3111 0.66965 0.85619 0.0
C3591 C 0.30093 0.68321 0.86078 0.0
C3592 C 0.3036 0.65268 0.85508 0.0
C3593 C 0.28335 0.67952 0.86529 0.0
C3594 C 0.27582 0.66266 0.86435 0.0
C3595 C 0.27793 0.63231 0.85627 0.0
C3596 C 0.28772 0.61895 0.84968 0.0
C3597 C 0.28573 0.64917 0.85885 0.0
C3598 C 0.30562 0.6225 0.84679 0.0
C3599 C 0.31351 0.6392 0.84953 0.0
H3600 H 0.37573 0.34528 0.86307 0.0
H3601 H 0.35178 0.35711 0.81656 0.0
H3602 H 0.37761 0.35048 0.7988 0.0
H3603 H 0.40687 0.34052 0.79649 0.0
H3604 H 0.4305 0.32984 0.84372 0.0
H3605 H 0.40483 0.3366 0.86106 0.0
C3606 C 0.37609 0.34643 0.84904 0.0
C3607 C 0.36176 0.3516 0.84117 0.0
C3608 C 0.39092 0.34265 0.83898 0.0
C3609 C 0.36261 0.35316 0.82298 0.0
C3610 C 0.37737 0.34933 0.81281 0.0
C3611 C 0.40642 0.33977 0.81058 0.0
C3612 C 0.42053 0.33432 0.81867 0.0
C3613 C 0.39159 0.34395 0.82066 0.0
C3614 C 0.4197 0.33347 0.83699 0.0
C3615 C 0.40506 0.3375 0.847 0.0
H3616 H 0.38758 0.44424 0.18032 0.0
H3617 H 0.34679 0.41319 0.15156 0.0
H3618 H 0.32525 0.42914 0.168 0.0
H3619 H 0.31779 0.45136 0.19094 0.0
H3620 H 0.35823 0.4829 0.2196 0.0
H3621 H 0.38004 0.46718 0.20294 0.0
C3622 C 0.37398 0.44098 0.17764 0.0
C3623 C 0.36885 0.4275 0.16474 0.0
C3624 C 0.36156 0.45024 0.18717 0.0
C3625 C 0.35116 0.42348 0.16142 0.0
C3626 C 0.33878 0.4326 0.17082 0.0
C3627 C 0.33138 0.45499 0.19338 0.0
C3628 C 0.33635 0.46832 0.20648 0.0
C3629 C 0.34383 0.44596 0.18374 0.0
C3630 C 0.35403 0.47258 0.20971 0.0
C3631 C 0.36652 0.46364 0.20014 0.0
H3632 H 0.62123 0.34827 0.21091 0.0
H3633 H 0.58038 0.34302 0.17344 0.0
H3634 H 0.562 0.32544 0.19232 0.0
H3635 H 0.55707 0.31236 0.2198 0.0
H3636 H 0.5978 0.31703 0.25728 0.0
H3637 H 0.61659 0.3342 0.23814 0.0
C3638 C 0.60834 0.34323 0.20684 0.0
C3639 C 0.6022 0.34703 0.19079 0.0
C3640 C 0.59776 0.3331 0.2178 0.0
C3641 C 0.58545 0.34035 0.18572 0.0
C3642 C 0.5749 0.33028 0.19652 0.0
C3643 C 0.57015 0.31688 0.22368 0.0
C3644 C 0.57601 0.31336 0.23994 0.0
C3645 C 0.58088 0.32666 0.21261 0.0
C3646 C 0.59289 0.31968 0.24491 0.0
C3647 C 0.60367 0.32944 0.23394 0.0
H3648 H 0.4245 0.70444 0.17604 0.0
H3649 H 0.44463 0.66151 0.19538 0.0
H3650 H 0.45971 0.68056 0.21838 0.0
H3651 H 0.46691 0.70935 0.23332 0.0
H3652 H 0.44741 0.75236 0.21375 0.0
H3653 H 0.43234 0.73334 0.19051 0.0
C3654 C 0.43224 0.69924 0.18524 0.0
C3655 C 0.43337 0.68155 0.18398 0.0
C3656 C 0.44092 0.71027 0.19845 0.0
C3657 C 0.44353 0.67507 0.19599 0.0
C3658 C 0.45212 0.68594 0.20921 0.0
C3659 C 0.45923 0.7145 0.22403 0.0
C3660 C 0.45811 0.73216 0.22528 0.0
C3661 C 0.45081 0.70354 0.21063 0.0
C3662 C 0.44844 0.73878 0.21299 0.0
C3663 C 0.43983 0.72792 0.19974 0.0
loop_
_geom_bond_atom_site_label_1
_geom_bond_atom_site_label_2
_geom_bond_distance
_geom_bond_site_symmetry_2
_ccdc_geom_bond_type
O0 Cd1 2.300 . S
O0 C7 1.275 . S
Cd1 O0 2.300 . S
Cd1 O9 2.381 . S
Cd1 O10 2.378 . S
O2 Cd3 2.385 . S
O2 C7 1.255 . S
Cd3 O2 2.385 . S
Cd3 O4 2.317 . S
O4 Cd3 2.317 . S
O4 C5 1.232 . S
C5 O4 1.232 . S
C5 O6 1.218 . S
O6 C5 1.218 . S
C7 O0 1.275 . S
C7 O2 1.255 . S
C8 O9 1.258 . S
C8 O10 1.256 . S
O9 Cd1 2.381 . S
O9 C8 1.258 . S
O10 Cd1 2.378 . S
O10 C8 1.256 . S
O11 Cd12 2.300 . S
O11 C18 1.275 . S
Cd12 O11 2.300 . S
Cd12 O20 2.381 . S
Cd12 O21 2.378 . S
O13 Cd14 2.385 . S
O13 C18 1.255 . S
Cd14 O13 2.385 . S
Cd14 O15 2.317 . S
O15 Cd14 2.317 . S
O15 C16 1.232 . S
C16 O15 1.232 . S
C16 O17 1.218 . S
O17 C16 1.218 . S
C18 O11 1.275 . S
C18 O13 1.255 . S
C19 O20 1.258 . S
C19 O21 1.256 . S
O20 Cd12 2.381 . S
O20 C19 1.258 . S
O21 Cd12 2.378 . S
O21 C19 1.256 . S
O22 Cd23 2.300 . S
O22 C29 1.275 . S
Cd23 O22 2.300 . S
Cd23 O31 2.381 . S
Cd23 O32 2.378 . S
O24 Cd25 2.385 . S
O24 C29 1.255 . S
Cd25 O24 2.385 . S
Cd25 O26 2.317 . S
O26 Cd25 2.317 . S
O26 C27 1.232 . S
C27 O26 1.232 . S
C27 O28 1.218 . S
O28 C27 1.218 . S
C29 O22 1.275 . S
C29 O24 1.255 . S
C30 O31 1.258 . S
C30 O32 1.256 . S
O31 Cd23 2.381 . S
O31 C30 1.258 . S
O32 Cd23 2.378 . S
O32 C30 1.256 . S
O33 Cd34 2.300 . S
O33 C40 1.275 . S
Cd34 O33 2.300 . S
Cd34 O42 2.381 . S
Cd34 O43 2.378 . S
O35 Cd36 2.385 . S
O35 C40 1.255 . S
Cd36 O35 2.385 . S
Cd36 O37 2.317 . S
O37 Cd36 2.317 . S
O37 C38 1.232 . S
C38 O37 1.232 . S
C38 O39 1.218 . S
O39 C38 1.218 . S
C40 O33 1.275 . S
C40 O35 1.255 . S
C41 O42 1.258 . S
C41 O43 1.256 . S
O42 Cd34 2.381 . S
O42 C41 1.258 . S
O43 Cd34 2.378 . S
O43 C41 1.256 . S
O44 Cd45 2.300 . S
O44 C51 1.275 . S
Cd45 O44 2.300 . S
Cd45 O53 2.381 . S
Cd45 O54 2.378 . S
O46 Cd47 2.385 . S
O46 C51 1.255 . S
Cd47 O46 2.385 . S
Cd47 O48 2.317 . S
O48 Cd47 2.317 . S
O48 C49 1.232 . S
C49 O48 1.232 . S
C49 O50 1.218 . S
O50 C49 1.218 . S
C51 O44 1.275 . S
C51 O46 1.255 . S
C52 O53 1.258 . S
C52 O54 1.256 . S
O53 Cd45 2.381 . S
O53 C52 1.258 . S
O54 Cd45 2.378 . S
O54 C52 1.256 . S
O55 Cd56 2.300 . S
O55 C62 1.275 . S
Cd56 O55 2.300 . S
Cd56 O64 2.381 . S
Cd56 O65 2.378 . S
O57 Cd58 2.385 . S
O57 C62 1.255 . S
Cd58 O57 2.385 . S
Cd58 O59 2.317 . S
O59 Cd58 2.317 . S
O59 C60 1.232 . S
C60 O59 1.232 . S
C60 O61 1.218 . S
O61 C60 1.218 . S
C62 O55 1.275 . S
C62 O57 1.255 . S
C63 O64 1.258 . S
C63 O65 1.256 . S
O64 Cd56 2.381 . S
O64 C63 1.258 . S
O65 Cd56 2.378 . S
O65 C63 1.256 . S
O66 Cd67 2.300 . S
O66 C73 1.275 . S
Cd67 O66 2.300 . S
Cd67 O75 2.381 . S
Cd67 O76 2.378 . S
O68 Cd69 2.385 . S
O68 C73 1.255 . S
Cd69 O68 2.385 . S
Cd69 O70 2.317 . S
O70 Cd69 2.317 . S
O70 C71 1.232 . S
C71 O70 1.232 . S
C71 O72 1.218 . S
O72 C71 1.218 . S
C73 O66 1.275 . S
C73 O68 1.255 . S
C74 O75 1.258 . S
C74 O76 1.256 . S
O75 Cd67 2.381 . S
O75 C74 1.258 . S
O76 Cd67 2.378 . S
O76 C74 1.256 . S
O77 Cd78 2.300 . S
O77 C84 1.275 . S
Cd78 O77 2.300 . S
Cd78 O86 2.381 . S
Cd78 O87 2.378 . S
O79 Cd80 2.385 . S
O79 C84 1.255 . S
Cd80 O79 2.385 . S
Cd80 O81 2.317 . S
O81 Cd80 2.317 . S
O81 C82 1.232 . S
C82 O81 1.232 . S
C82 O83 1.218 . S
O83 C82 1.218 . S
C84 O77 1.275 . S
C84 O79 1.255 . S
C85 O86 1.258 . S
C85 O87 1.256 . S
O86 Cd78 2.381 . S
O86 C85 1.258 . S
O87 Cd78 2.378 . S
O87 C85 1.256 . S
O88 Cd89 2.300 . S
O88 C95 1.275 . S
Cd89 O88 2.300 . S
Cd89 O97 2.381 . S
Cd89 O98 2.378 . S
O90 Cd91 2.385 . S
O90 C95 1.255 . S
Cd91 O90 2.385 . S
Cd91 O92 2.317 . S
O92 Cd91 2.317 . S
O92 C93 1.232 . S
C93 O92 1.232 . S
C93 O94 1.218 . S
O94 C93 1.218 . S
C95 O88 1.275 . S
C95 O90 1.255 . S
C96 O97 1.258 . S
C96 O98 1.256 . S
O97 Cd89 2.381 . S
O97 C96 1.258 . S
O98 Cd89 2.378 . S
O98 C96 1.256 . S
O99 Cd100 2.300 . S
O99 C106 1.275 . S
Cd100 O99 2.300 . S
Cd100 O108 2.381 . S
Cd100 O109 2.378 . S
O101 Cd102 2.385 . S
O101 C106 1.255 . S
Cd102 O101 2.385 . S
Cd102 O103 2.317 . S
O103 Cd102 2.317 . S
O103 C104 1.232 . S
C104 O103 1.232 . S
C104 O105 1.218 . S
O105 C104 1.218 . S
C106 O99 1.275 . S
C106 O101 1.255 . S
C107 O108 1.258 . S
C107 O109 1.256 . S
O108 Cd100 2.381 . S
O108 C107 1.258 . S
O109 Cd100 2.378 . S
O109 C107 1.256 . S
O110 Cd111 2.300 . S
O110 C117 1.275 . S
Cd111 O110 2.300 . S
Cd111 O119 2.381 . S
Cd111 O120 2.378 . S
O112 Cd113 2.385 . S
O112 C117 1.255 . S
Cd113 O112 2.385 . S
Cd113 O114 2.317 . S
O114 Cd113 2.317 . S
O114 C115 1.232 . S
C115 O114 1.232 . S
C115 O116 1.218 . S
O116 C115 1.218 . S
C117 O110 1.275 . S
C117 O112 1.255 . S
C118 O119 1.258 . S
C118 O120 1.256 . S
O119 Cd111 2.381 . S
O119 C118 1.258 . S
O120 Cd111 2.378 . S
O120 C118 1.256 . S
O121 Cd122 2.300 . S
O121 C128 1.275 . S
Cd122 O121 2.300 . S
Cd122 O130 2.381 . S
Cd122 O131 2.378 . S
O123 Cd124 2.385 . S
O123 C128 1.255 . S
Cd124 O123 2.385 . S
Cd124 O125 2.317 . S
O125 Cd124 2.317 . S
O125 C126 1.232 . S
C126 O125 1.232 . S
C126 O127 1.218 . S
O127 C126 1.218 . S
C128 O121 1.275 . S
C128 O123 1.255 . S
C129 O130 1.258 . S
C129 O131 1.256 . S
O130 Cd122 2.381 . S
O130 C129 1.258 . S
O131 Cd122 2.378 . S
O131 C129 1.256 . S
O132 Cd133 2.300 . S
O132 C139 1.275 . S
Cd133 O132 2.300 . S
Cd133 O141 2.381 . S
Cd133 O142 2.378 . S
O134 Cd135 2.385 . S
O134 C139 1.255 . S
Cd135 O134 2.385 . S
Cd135 O136 2.317 . S
O136 Cd135 2.317 . S
O136 C137 1.232 . S
C137 O136 1.232 . S
C137 O138 1.218 . S
O138 C137 1.218 . S
C139 O132 1.275 . S
C139 O134 1.255 . S
C140 O141 1.258 . S
C140 O142 1.256 . S
O141 Cd133 2.381 . S
O141 C140 1.258 . S
O142 Cd133 2.378 . S
O142 C140 1.256 . S
O143 Cd144 2.300 . S
O143 C150 1.275 . S
Cd144 O143 2.300 . S
Cd144 O152 2.381 . S
Cd144 O153 2.378 . S
O145 Cd146 2.385 . S
O145 C150 1.255 . S
Cd146 O145 2.385 . S
Cd146 O147 2.317 . S
O147 Cd146 2.317 . S
O147 C148 1.232 . S
C148 O147 1.232 . S
C148 O149 1.218 . S
O149 C148 1.218 . S
C150 O143 1.275 . S
C150 O145 1.255 . S
C151 O152 1.258 . S
C151 O153 1.256 . S
O152 Cd144 2.381 . S
O152 C151 1.258 . S
O153 Cd144 2.378 . S
O153 C151 1.256 . S
O154 Cd155 2.300 . S
O154 C161 1.275 . S
Cd155 O154 2.300 . S
Cd155 O163 2.381 . S
Cd155 O164 2.378 . S
O156 Cd157 2.385 . S
O156 C161 1.255 . S
Cd157 O156 2.385 . S
Cd157 O158 2.317 . S
O158 Cd157 2.317 . S
O158 C159 1.232 . S
C159 O158 1.232 . S
C159 O160 1.218 . S
O160 C159 1.218 . S
C161 O154 1.275 . S
C161 O156 1.255 . S
C162 O163 1.258 . S
C162 O164 1.256 . S
O163 Cd155 2.381 . S
O163 C162 1.258 . S
O164 Cd155 2.378 . S
O164 C162 1.256 . S
O165 Cd166 2.300 . S
O165 C172 1.275 . S
Cd166 O165 2.300 . S
Cd166 O174 2.381 . S
Cd166 O175 2.378 . S
O167 Cd168 2.385 . S
O167 C172 1.255 . S
Cd168 O167 2.385 . S
Cd168 O169 2.317 . S
O169 Cd168 2.317 . S
O169 C170 1.232 . S
C170 O169 1.232 . S
C170 O171 1.218 . S
O171 C170 1.218 . S
C172 O165 1.275 . S
C172 O167 1.255 . S
C173 O174 1.258 . S
C173 O175 1.256 . S
O174 Cd166 2.381 . S
O174 C173 1.258 . S
O175 Cd166 2.378 . S
O175 C173 1.256 . S
O176 Cd177 2.300 . S
O176 C183 1.275 . S
Cd177 O176 2.300 . S
Cd177 O185 2.381 . S
Cd177 O186 2.378 . S
O178 Cd179 2.385 . S
O178 C183 1.255 . S
Cd179 O178 2.385 . S
Cd179 O180 2.317 . S
O180 Cd179 2.317 . S
O180 C181 1.232 . S
C181 O180 1.232 . S
C181 O182 1.218 . S
O182 C181 1.218 . S
C183 O176 1.275 . S
C183 O178 1.255 . S
C184 O185 1.258 . S
C184 O186 1.256 . S
O185 Cd177 2.381 . S
O185 C184 1.258 . S
O186 Cd177 2.378 . S
O186 C184 1.256 . S
O187 Cd188 2.300 . S
O187 C194 1.275 . S
Cd188 O187 2.300 . S
Cd188 O196 2.381 . S
Cd188 O197 2.378 . S
O189 Cd190 2.385 . S
O189 C194 1.255 . S
Cd190 O189 2.385 . S
Cd190 O191 2.317 . S
O191 Cd190 2.317 . S
O191 C192 1.232 . S
C192 O191 1.232 . S
C192 O193 1.218 . S
O193 C192 1.218 . S
C194 O187 1.275 . S
C194 O189 1.255 . S
C195 O196 1.258 . S
C195 O197 1.256 . S
O196 Cd188 2.381 . S
O196 C195 1.258 . S
O197 Cd188 2.378 . S
O197 C195 1.256 . S
O198 Cd199 2.300 . S
O198 C205 1.275 . S
Cd199 O198 2.300 . S
Cd199 O207 2.381 . S
Cd199 O208 2.378 . S
O200 Cd201 2.385 . S
O200 C205 1.255 . S
Cd201 O200 2.385 . S
Cd201 O202 2.317 . S
O202 Cd201 2.317 . S
O202 C203 1.232 . S
C203 O202 1.232 . S
C203 O204 1.218 . S
O204 C203 1.218 . S
C205 O198 1.275 . S
C205 O200 1.255 . S
C206 O207 1.258 . S
C206 O208 1.256 . S
O207 Cd199 2.381 . S
O207 C206 1.258 . S
O208 Cd199 2.378 . S
O208 C206 1.256 . S
O209 Cd210 2.300 . S
O209 C216 1.275 . S
Cd210 O209 2.300 . S
Cd210 O218 2.381 . S
Cd210 O219 2.378 . S
O211 Cd212 2.385 . S
O211 C216 1.255 . S
Cd212 O211 2.385 . S
Cd212 O213 2.317 . S
O213 Cd212 2.317 . S
O213 C214 1.232 . S
C214 O213 1.232 . S
C214 O215 1.218 . S
O215 C214 1.218 . S
C216 O209 1.275 . S
C216 O211 1.255 . S
C217 O218 1.258 . S
C217 O219 1.256 . S
O218 Cd210 2.381 . S
O218 C217 1.258 . S
O219 Cd210 2.378 . S
O219 C217 1.256 . S
O220 Cd221 2.300 . S
O220 C227 1.275 . S
Cd221 O220 2.300 . S
Cd221 O229 2.381 . S
Cd221 O230 2.378 . S
O222 Cd223 2.385 . S
O222 C227 1.255 . S
Cd223 O222 2.385 . S
Cd223 O224 2.317 . S
O224 Cd223 2.317 . S
O224 C225 1.232 . S
C225 O224 1.232 . S
C225 O226 1.218 . S
O226 C225 1.218 . S
C227 O220 1.275 . S
C227 O222 1.255 . S
C228 O229 1.258 . S
C228 O230 1.256 . S
O229 Cd221 2.381 . S
O229 C228 1.258 . S
O230 Cd221 2.378 . S
O230 C228 1.256 . S
O231 Cd232 2.300 . S
O231 C238 1.275 . S
Cd232 O231 2.300 . S
Cd232 O240 2.381 . S
Cd232 O241 2.378 . S
O233 Cd234 2.385 . S
O233 C238 1.255 . S
Cd234 O233 2.385 . S
Cd234 O235 2.317 . S
O235 Cd234 2.317 . S
O235 C236 1.232 . S
C236 O235 1.232 . S
C236 O237 1.218 . S
O237 C236 1.218 . S
C238 O231 1.275 . S
C238 O233 1.255 . S
C239 O240 1.258 . S
C239 O241 1.256 . S
O240 Cd232 2.381 . S
O240 C239 1.258 . S
O241 Cd232 2.378 . S
O241 C239 1.256 . S
O242 Cd243 2.300 . S
O242 C249 1.275 . S
Cd243 O242 2.300 . S
Cd243 O251 2.381 . S
Cd243 O252 2.378 . S
O244 Cd245 2.385 . S
O244 C249 1.255 . S
Cd245 O244 2.385 . S
Cd245 O246 2.317 . S
O246 Cd245 2.317 . S
O246 C247 1.232 . S
C247 O246 1.232 . S
C247 O248 1.218 . S
O248 C247 1.218 . S
C249 O242 1.275 . S
C249 O244 1.255 . S
C250 O251 1.258 . S
C250 O252 1.256 . S
O251 Cd243 2.381 . S
O251 C250 1.258 . S
O252 Cd243 2.378 . S
O252 C250 1.256 . S
O253 Cd254 2.300 . S
O253 C260 1.275 . S
Cd254 O253 2.300 . S
Cd254 O262 2.381 . S
Cd254 O263 2.378 . S
O255 Cd256 2.385 . S
O255 C260 1.255 . S
Cd256 O255 2.385 . S
Cd256 O257 2.317 . S
O257 Cd256 2.317 . S
O257 C258 1.232 . S
C258 O257 1.232 . S
C258 O259 1.218 . S
O259 C258 1.218 . S
C260 O253 1.275 . S
C260 O255 1.255 . S
C261 O262 1.258 . S
C261 O263 1.256 . S
O262 Cd254 2.381 . S
O262 C261 1.258 . S
O263 Cd254 2.378 . S
O263 C261 1.256 . S
O264 Cd265 2.300 . S
O264 C271 1.275 . S
Cd265 O264 2.300 . S
Cd265 O273 2.381 . S
Cd265 O274 2.378 . S
O266 Cd267 2.385 . S
O266 C271 1.255 . S
Cd267 O266 2.385 . S
Cd267 O268 2.317 . S
O268 Cd267 2.317 . S
O268 C269 1.232 . S
C269 O268 1.232 . S
C269 O270 1.218 . S
O270 C269 1.218 . S
C271 O264 1.275 . S
C271 O266 1.255 . S
C272 O273 1.258 . S
C272 O274 1.256 . S
O273 Cd265 2.381 . S
O273 C272 1.258 . S
O274 Cd265 2.378 . S
O274 C272 1.256 . S
O275 Cd276 2.300 . S
O275 C282 1.275 . S
Cd276 O275 2.300 . S
Cd276 O284 2.381 . S
Cd276 O285 2.378 . S
O277 Cd278 2.385 . S
O277 C282 1.255 . S
Cd278 O277 2.385 . S
Cd278 O279 2.317 . S
O279 Cd278 2.317 . S
O279 C280 1.232 . S
C280 O279 1.232 . S
C280 O281 1.218 . S
O281 C280 1.218 . S
C282 O275 1.275 . S
C282 O277 1.255 . S
C283 O284 1.258 . S
C283 O285 1.256 . S
O284 Cd276 2.381 . S
O284 C283 1.258 . S
O285 Cd276 2.378 . S
O285 C283 1.256 . S
O286 Cd287 2.300 . S
O286 C293 1.275 . S
Cd287 O286 2.300 . S
Cd287 O295 2.381 . S
Cd287 O296 2.378 . S
O288 Cd289 2.385 . S
O288 C293 1.255 . S
Cd289 O288 2.385 . S
Cd289 O290 2.317 . S
O290 Cd289 2.317 . S
O290 C291 1.232 . S
C291 O290 1.232 . S
C291 O292 1.218 . S
O292 C291 1.218 . S
C293 O286 1.275 . S
C293 O288 1.255 . S
C294 O295 1.258 . S
C294 O296 1.256 . S
O295 Cd287 2.381 . S
O295 C294 1.258 . S
O296 Cd287 2.378 . S
O296 C294 1.256 . S
O297 Cd298 2.300 . S
O297 C304 1.275 . S
Cd298 O297 2.300 . S
Cd298 O306 2.381 . S
Cd298 O307 2.378 . S
O299 Cd300 2.385 . S
O299 C304 1.255 . S
Cd300 O299 2.385 . S
Cd300 O301 2.317 . S
O301 Cd300 2.317 . S
O301 C302 1.232 . S
C302 O301 1.232 . S
C302 O303 1.218 . S
O303 C302 1.218 . S
C304 O297 1.275 . S
C304 O299 1.255 . S
C305 O306 1.258 . S
C305 O307 1.256 . S
O306 Cd298 2.381 . S
O306 C305 1.258 . S
O307 Cd298 2.378 . S
O307 C305 1.256 . S
O308 Cd309 2.300 . S
O308 C315 1.275 . S
Cd309 O308 2.300 . S
Cd309 O317 2.381 . S
Cd309 O318 2.378 . S
O310 Cd311 2.385 . S
O310 C315 1.255 . S
Cd311 O310 2.385 . S
Cd311 O312 2.317 . S
O312 Cd311 2.317 . S
O312 C313 1.232 . S
C313 O312 1.232 . S
C313 O314 1.218 . S
O314 C313 1.218 . S
C315 O308 1.275 . S
C315 O310 1.255 . S
C316 O317 1.258 . S
C316 O318 1.256 . S
O317 Cd309 2.381 . S
O317 C316 1.258 . S
O318 Cd309 2.378 . S
O318 C316 1.256 . S
O319 Cd320 2.300 . S
O319 C326 1.275 . S
Cd320 O319 2.300 . S
Cd320 O328 2.381 . S
Cd320 O329 2.378 . S
O321 Cd322 2.385 . S
O321 C326 1.255 . S
Cd322 O321 2.385 . S
Cd322 O323 2.317 . S
O323 Cd322 2.317 . S
O323 C324 1.232 . S
C324 O323 1.232 . S
C324 O325 1.218 . S
O325 C324 1.218 . S
C326 O319 1.275 . S
C326 O321 1.255 . S
C327 O328 1.258 . S
C327 O329 1.256 . S
O328 Cd320 2.381 . S
O328 C327 1.258 . S
O329 Cd320 2.378 . S
O329 C327 1.256 . S
O330 Cd331 2.300 . S
O330 C337 1.275 . S
Cd331 O330 2.300 . S
Cd331 O339 2.381 . S
Cd331 O340 2.378 . S
O332 Cd333 2.385 . S
O332 C337 1.255 . S
Cd333 O332 2.385 . S
Cd333 O334 2.317 . S
O334 Cd333 2.317 . S
O334 C335 1.232 . S
C335 O334 1.232 . S
C335 O336 1.218 . S
O336 C335 1.218 . S
C337 O330 1.275 . S
C337 O332 1.255 . S
C338 O339 1.258 . S
C338 O340 1.256 . S
O339 Cd331 2.381 . S
O339 C338 1.258 . S
O340 Cd331 2.378 . S
O340 C338 1.256 . S
O341 Cd342 2.300 . S
O341 C348 1.275 . S
Cd342 O341 2.300 . S
Cd342 O350 2.381 . S
Cd342 O351 2.378 . S
O343 Cd344 2.385 . S
O343 C348 1.255 . S
Cd344 O343 2.385 . S
Cd344 O345 2.317 . S
O345 Cd344 2.317 . S
O345 C346 1.232 . S
C346 O345 1.232 . S
C346 O347 1.218 . S
O347 C346 1.218 . S
C348 O341 1.275 . S
C348 O343 1.255 . S
C349 O350 1.258 . S
C349 O351 1.256 . S
O350 Cd342 2.381 . S
O350 C349 1.258 . S
O351 Cd342 2.378 . S
O351 C349 1.256 . S
H352 O378 0.856 . S
H353 O381 0.854 . S
H354 C389 0.930 . S
H355 C390 0.930 1_556 S
H356 C392 0.897 1_556 S
H357 C393 0.930 . S
H358 C395 0.931 . S
H359 C396 0.930 . S
H360 C398 0.930 . S
H361 C399 0.929 . S
H362 C401 0.930 . S
H363 C402 0.931 . S
H364 C404 0.930 . S
H365 C405 0.929 . S
H366 C407 0.931 . S
H367 C408 0.930 . S
H368 C410 0.930 . S
H369 C411 0.932 . S
H370 C413 0.930 . S
H371 C414 0.929 . S
H372 C416 0.931 . S
H373 C417 0.930 . S
H374 C419 0.929 . S
H375 C420 0.931 1_556 S
H376 C422 0.930 . S
H377 C423 0.929 . S
O378 H352 0.856 . S
O378 C424 1.300 . S
O379 C424 1.209 . S
O380 C425 1.199 . S
O381 H353 0.854 . S
O381 C425 1.297 . S
C382 C383 1.404 . S
C382 C387 1.397 . S
C382 C388 1.492 . S
C383 C382 1.404 . S
C383 C384 1.396 . S
C383 C394 1.492 . S
C384 C383 1.396 . S
C384 C385 1.397 . S
C384 C400 1.509 . S
C385 C384 1.397 . S
C385 C386 1.412 . S
C385 C406 1.485 . S
C386 C385 1.412 . S
C386 C387 1.388 . S
C386 C412 1.490 . S
C387 C382 1.397 . S
C387 C386 1.388 . S
C387 C418 1.519 . S
C388 C382 1.492 . S
C388 C389 1.363 . S
C388 C393 1.390 . S
C389 H354 0.930 . S
C389 C388 1.363 . S
C389 C390 1.372 . S
C390 H355 0.930 1_554 S
C390 C389 1.372 . S
C390 C391 1.383 1_554 S
C391 C390 1.383 1_556 S
C391 C392 1.378 1_556 S
C392 H356 0.897 1_554 S
C392 C391 1.378 1_554 S
C392 C393 1.413 . S
C393 H357 0.930 . S
C393 C388 1.390 . S
C393 C392 1.413 . S
C394 C383 1.492 . S
C394 C395 1.377 . S
C394 C399 1.397 . S
C395 H358 0.931 . S
C395 C394 1.377 . S
C395 C396 1.376 . S
C396 H359 0.930 . S
C396 C395 1.376 . S
C396 C397 1.376 . S
C397 C396 1.376 . S
C397 C398 1.378 . S
C397 C424 1.486 . S
C398 H360 0.930 . S
C398 C397 1.378 . S
C398 C399 1.376 . S
C399 H361 0.929 . S
C399 C394 1.397 . S
C399 C398 1.376 . S
C400 C384 1.509 . S
C400 C401 1.391 . S
C400 C405 1.386 . S
C401 H362 0.930 . S
C401 C400 1.391 . S
C401 C402 1.375 . S
C402 H363 0.931 . S
C402 C401 1.375 . S
C402 C403 1.375 . S
C403 C402 1.375 . S
C403 C404 1.361 . S
C404 H364 0.930 . S
C404 C403 1.361 . S
C404 C405 1.399 . S
C405 H365 0.929 . S
C405 C400 1.386 . S
C405 C404 1.399 . S
C406 C385 1.485 . S
C406 C407 1.394 . S
C406 C411 1.360 . S
C407 H366 0.931 . S
C407 C406 1.394 . S
C407 C408 1.372 . S
C408 H367 0.930 . S
C408 C407 1.372 . S
C408 C409 1.397 . S
C409 C408 1.397 . S
C409 C410 1.390 . S
C409 C425 1.476 . S
C410 H368 0.930 . S
C410 C409 1.390 . S
C410 C411 1.366 . S
C411 H369 0.932 . S
C411 C406 1.360 . S
C411 C410 1.366 . S
C412 C386 1.490 . S
C412 C413 1.380 . S
C412 C417 1.386 . S
C413 H370 0.930 . S
C413 C412 1.380 . S
C413 C414 1.381 . S
C414 H371 0.929 . S
C414 C413 1.381 . S
C414 C415 1.371 . S
C415 C414 1.371 . S
C415 C416 1.380 . S
C416 H372 0.931 . S
C416 C415 1.380 . S
C416 C417 1.387 . S
C417 H373 0.930 . S
C417 C412 1.386 . S
C417 C416 1.387 . S
C418 C387 1.519 . S
C418 C419 1.377 . S
C418 C423 1.361 . S
C419 H374 0.929 . S
C419 C418 1.377 . S
C419 C420 1.386 . S
C420 H375 0.931 1_554 S
C420 C419 1.386 . S
C420 C421 1.363 . S
C421 C420 1.363 . S
C421 C422 1.385 . S
C422 H376 0.930 . S
C422 C421 1.385 . S
C422 C423 1.396 . S
C423 H377 0.929 . S
C423 C418 1.361 . S
C423 C422 1.396 . S
C424 O378 1.300 . S
C424 O379 1.209 . S
C424 C397 1.486 . S
C425 O380 1.199 . S
C425 O381 1.297 . S
C425 C409 1.476 . S
H426 O452 0.856 . S
H427 O455 0.854 . S
H428 C463 0.930 . S
H429 C464 0.930 . S
H430 C466 0.930 . S
H431 C467 0.930 . S
H432 C469 0.931 . S
H433 C470 0.930 . S
H434 C472 0.930 . S
H435 C473 0.929 . S
H436 C475 0.930 . S
H437 C476 0.931 . S
H438 C478 0.930 . S
H439 C479 0.929 . S
H440 C481 0.931 . S
H441 C482 0.930 . S
H442 C484 0.930 . S
H443 C485 0.932 . S
H444 C487 0.930 . S
H445 C488 0.929 . S
H446 C490 0.931 . S
H447 C491 0.930 . S
H448 C493 0.929 . S
H449 C494 0.931 . S
H450 C496 0.930 . S
H451 C497 0.929 . S
O452 H426 0.856 . S
O452 C498 1.300 . S
O453 C498 1.209 . S
O454 C499 1.199 . S
O455 H427 0.854 . S
O455 C499 1.297 . S
C456 C457 1.404 1_556 S
C456 C461 1.397 1_556 S
C456 C462 1.492 . S
C457 C456 1.404 1_554 S
C457 C458 1.396 . S
C457 C468 1.492 1_554 S
C458 C457 1.396 . S
C458 C459 1.397 . S
C458 C474 1.509 . S
C459 C458 1.397 . S
C459 C460 1.412 . S
C459 C480 1.485 . S
C460 C459 1.412 . S
C460 C461 1.388 . S
C460 C486 1.490 . S
C461 C456 1.397 1_554 S
C461 C460 1.388 . S
C461 C492 1.519 1_554 S
C462 C456 1.492 . S
C462 C463 1.363 . S
C462 C467 1.390 . S
C463 H428 0.930 . S
C463 C462 1.363 . S
C463 C464 1.372 . S
C464 H429 0.930 . S
C464 C463 1.372 . S
C464 C465 1.383 . S
C465 C464 1.383 . S
C465 C466 1.395 . S
C466 H430 0.930 . S
C466 C465 1.395 . S
C466 C467 1.362 . S
C467 H431 0.930 . S
C467 C462 1.390 . S
C467 C466 1.362 . S
C468 C457 1.492 1_556 S
C468 C469 1.377 1_556 S
C468 C473 1.397 . S
C469 H432 0.931 . S
C469 C468 1.377 1_554 S
C469 C470 1.376 1_554 S
C470 H433 0.930 . S
C470 C469 1.376 1_556 S
C470 C471 1.376 . S
C471 C470 1.376 . S
C471 C472 1.378 . S
C471 C498 1.486 . S
C472 H434 0.930 . S
C472 C471 1.378 . S
C472 C473 1.376 . S
C473 H435 0.929 . S
C473 C468 1.397 . S
C473 C472 1.376 . S
C474 C458 1.509 . S
C474 C475 1.391 . S
C474 C479 1.386 . S
C475 H436 0.930 . S
C475 C474 1.391 . S
C475 C476 1.375 . S
C476 H437 0.931 . S
C476 C475 1.375 . S
C476 C477 1.375 . S
C477 C476 1.375 . S
C477 C478 1.361 . S
C478 H438 0.930 . S
C478 C477 1.361 . S
C478 C479 1.399 . S
C479 H439 0.929 . S
C479 C474 1.386 . S
C479 C478 1.399 . S
C480 C459 1.485 . S
C480 C481 1.394 . S
C480 C485 1.360 . S
C481 H440 0.931 . S
C481 C480 1.394 . S
C481 C482 1.372 . S
C482 H441 0.930 . S
C482 C481 1.372 . S
C482 C483 1.397 . S
C483 C482 1.397 . S
C483 C484 1.390 . S
C483 C499 1.476 . S
C484 H442 0.930 . S
C484 C483 1.390 . S
C484 C485 1.366 . S
C485 H443 0.932 . S
C485 C480 1.360 . S
C485 C484 1.366 . S
C486 C460 1.490 . S
C486 C487 1.380 . S
C486 C491 1.386 . S
C487 H444 0.930 . S
C487 C486 1.380 . S
C487 C488 1.381 . S
C488 H445 0.929 . S
C488 C487 1.381 . S
C488 C489 1.371 . S
C489 C488 1.371 . S
C489 C490 1.380 . S
C490 H446 0.931 . S
C490 C489 1.380 . S
C490 C491 1.387 . S
C491 H447 0.930 . S
C491 C486 1.386 . S
C491 C490 1.387 . S
C492 C461 1.519 1_556 S
C492 C493 1.377 . S
C492 C497 1.361 . S
C493 H448 0.929 . S
C493 C492 1.377 . S
C493 C494 1.386 . S
C494 H449 0.931 . S
C494 C493 1.386 . S
C494 C495 1.363 . S
C495 C494 1.363 . S
C495 C496 1.385 . S
C496 H450 0.930 . S
C496 C495 1.385 . S
C496 C497 1.396 . S
C497 H451 0.929 . S
C497 C492 1.361 . S
C497 C496 1.396 . S
C498 O452 1.300 . S
C498 O453 1.209 . S
C498 C471 1.486 . S
C499 O454 1.199 . S
C499 O455 1.297 . S
C499 C483 1.476 . S
H500 O526 0.856 . S
H501 O529 0.854 . S
H502 C537 0.930 . S
H503 C538 0.930 . S
H504 C540 0.930 . S
H505 C541 0.930 . S
H506 C543 0.931 . S
H507 C544 0.930 . S
H508 C546 0.930 . S
H509 C547 0.929 . S
H510 C549 0.930 . S
H511 C550 0.931 . S
H512 C552 0.929 1_556 S
H513 C553 0.929 . S
H514 C555 0.931 1_554 S
H515 C556 0.930 . S
H516 C558 0.930 . S
H517 C559 0.932 . S
H518 C561 0.930 . S
H519 C562 0.929 . S
H520 C564 0.931 . S
H521 C565 0.930 . S
H522 C567 0.929 . S
H523 C568 0.931 . S
H524 C570 0.930 . S
H525 C571 0.929 . S
O526 H500 0.856 . S
O526 C572 1.300 . S
O527 C572 1.209 . S
O528 C573 1.199 . S
O529 H501 0.854 . S
O529 C573 1.297 . S
C530 C531 1.404 . S
C530 C535 1.397 . S
C530 C536 1.492 . S
C531 C530 1.404 . S
C531 C532 1.396 . S
C531 C542 1.492 . S
C532 C531 1.396 . S
C532 C533 1.397 . S
C532 C548 1.509 . S
C533 C532 1.397 . S
C533 C534 1.412 . S
C533 C554 1.485 . S
C534 C533 1.412 . S
C534 C535 1.388 . S
C534 C560 1.490 . S
C535 C530 1.397 . S
C535 C534 1.388 . S
C535 C566 1.519 . S
C536 C530 1.492 . S
C536 C537 1.363 . S
C536 C541 1.390 . S
C537 H502 0.930 . S
C537 C536 1.363 . S
C537 C538 1.372 . S
C538 H503 0.930 . S
C538 C537 1.372 . S
C538 C539 1.383 . S
C539 C538 1.383 . S
C539 C540 1.395 . S
C540 H504 0.930 . S
C540 C539 1.395 . S
C540 C541 1.362 . S
C541 H505 0.930 . S
C541 C536 1.390 . S
C541 C540 1.362 . S
C542 C531 1.492 . S
C542 C543 1.377 . S
C542 C547 1.397 . S
C543 H506 0.931 . S
C543 C542 1.377 . S
C543 C544 1.376 . S
C544 H507 0.930 . S
C544 C543 1.376 . S
C544 C545 1.376 . S
C545 C544 1.376 . S
C545 C546 1.378 . S
C545 C572 1.486 . S
C546 H508 0.930 . S
C546 C545 1.378 . S
C546 C547 1.376 . S
C547 H509 0.929 . S
C547 C542 1.397 . S
C547 C546 1.376 . S
C548 C532 1.509 . S
C548 C549 1.391 . S
C548 C553 1.386 . S
C549 H510 0.930 . S
C549 C548 1.391 . S
C549 C550 1.375 1_554 S
C550 H511 0.931 . S
C550 C549 1.375 1_556 S
C550 C551 1.375 . S
C551 C550 1.375 . S
C551 C552 1.357 1_556 S
C552 H512 0.929 1_554 S
C552 C551 1.357 1_554 S
C552 C553 1.404 . S
C553 H513 0.929 . S
C553 C548 1.386 . S
C553 C552 1.404 . S
C554 C533 1.485 . S
C554 C555 1.394 1_554 S
C554 C559 1.360 1_554 S
C555 H514 0.931 1_556 S
C555 C554 1.394 1_556 S
C555 C556 1.372 . S
C556 H515 0.930 . S
C556 C555 1.372 . S
C556 C557 1.397 . S
C557 C556 1.397 . S
C557 C558 1.390 . S
C557 C573 1.476 . S
C558 H516 0.930 . S
C558 C557 1.390 . S
C558 C559 1.366 . S
C559 H517 0.932 . S
C559 C554 1.360 1_556 S
C559 C558 1.366 . S
C560 C534 1.490 . S
C560 C561 1.380 . S
C560 C565 1.386 . S
C561 H518 0.930 . S
C561 C560 1.380 . S
C561 C562 1.381 . S
C562 H519 0.929 . S
C562 C561 1.381 . S
C562 C563 1.371 . S
C563 C562 1.371 . S
C563 C564 1.380 . S
C564 H520 0.931 . S
C564 C563 1.380 . S
C564 C565 1.387 . S
C565 H521 0.930 . S
C565 C560 1.386 . S
C565 C564 1.387 . S
C566 C535 1.519 . S
C566 C567 1.377 . S
C566 C571 1.361 . S
C567 H522 0.929 . S
C567 C566 1.377 . S
C567 C568 1.386 . S
C568 H523 0.931 . S
C568 C567 1.386 . S
C568 C569 1.363 . S
C569 C568 1.363 . S
C569 C570 1.385 . S
C570 H524 0.930 . S
C570 C569 1.385 . S
C570 C571 1.396 . S
C571 H525 0.929 . S
C571 C566 1.361 . S
C571 C570 1.396 . S
C572 O526 1.300 . S
C572 O527 1.209 . S
C572 C545 1.486 . S
C573 O528 1.199 . S
C573 O529 1.297 . S
C573 C557 1.476 . S
H574 O600 0.856 . S
H575 O603 0.854 . S
H576 C611 0.930 . S
H577 C612 0.930 . S
H578 C614 0.930 . S
H579 C615 0.930 . S
H580 C617 0.931 . S
H581 C618 0.947 . S
H582 C620 0.930 . S
H583 C621 0.929 . S
H584 C623 0.930 . S
H585 C624 0.931 . S
H586 C626 0.930 . S
H587 C627 0.929 . S
H588 C629 0.931 . S
H589 C630 0.930 . S
H590 C632 0.930 . S
H591 C633 0.932 . S
H592 C635 0.930 . S
H593 C636 0.929 . S
H594 C638 0.931 . S
H595 C639 0.930 . S
H596 C641 0.929 . S
H597 C642 0.931 . S
H598 C644 0.930 . S
H599 C645 0.929 1_554 S
O600 H574 0.856 . S
O600 C646 1.300 . S
O601 C646 1.209 . S
O602 C647 1.199 . S
O603 H575 0.854 . S
O603 C647 1.297 . S
C604 C605 1.404 . S
C604 C609 1.397 . S
C604 C610 1.492 1_554 S
C605 C604 1.404 . S
C605 C606 1.396 . S
C605 C616 1.492 . S
C606 C605 1.396 . S
C606 C607 1.397 . S
C606 C622 1.509 . S
C607 C606 1.397 . S
C607 C608 1.412 . S
C607 C628 1.485 . S
C608 C607 1.412 . S
C608 C609 1.388 . S
C608 C634 1.490 . S
C609 C604 1.397 . S
C609 C608 1.388 . S
C609 C640 1.519 1_554 S
C610 C604 1.492 1_556 S
C610 C611 1.363 . S
C610 C615 1.390 . S
C611 H576 0.930 . S
C611 C610 1.363 . S
C611 C612 1.372 . S
C612 H577 0.930 . S
C612 C611 1.372 . S
C612 C613 1.383 . S
C613 C612 1.383 . S
C613 C614 1.395 . S
C614 H578 0.930 . S
C614 C613 1.395 . S
C614 C615 1.362 . S
C615 H579 0.930 . S
C615 C610 1.390 . S
C615 C614 1.362 . S
C616 C605 1.492 . S
C616 C617 1.377 . S
C616 C621 1.397 1_554 S
C617 H580 0.931 . S
C617 C616 1.377 . S
C617 C618 1.397 . S
C618 H581 0.947 . S
C618 C617 1.397 . S
C618 C619 1.341 1_554 S
C619 C618 1.341 1_556 S
C619 C620 1.378 . S
C619 C646 1.486 . S
C620 H582 0.930 . S
C620 C619 1.378 . S
C620 C621 1.376 . S
C621 H583 0.929 . S
C621 C616 1.397 1_556 S
C621 C620 1.376 . S
C622 C606 1.509 . S
C622 C623 1.391 . S
C622 C627 1.386 . S
C623 H584 0.930 . S
C623 C622 1.391 . S
C623 C624 1.375 . S
C624 H585 0.931 . S
C624 C623 1.375 . S
C624 C625 1.375 . S
C625 C624 1.375 . S
C625 C626 1.361 . S
C626 H586 0.930 . S
C626 C625 1.361 . S
C626 C627 1.399 . S
C627 H587 0.929 . S
C627 C622 1.386 . S
C627 C626 1.399 . S
C628 C607 1.485 . S
C628 C629 1.394 . S
C628 C633 1.360 . S
C629 H588 0.931 . S
C629 C628 1.394 . S
C629 C630 1.372 . S
C630 H589 0.930 . S
C630 C629 1.372 . S
C630 C631 1.397 . S
C631 C630 1.397 . S
C631 C632 1.390 . S
C631 C647 1.476 . S
C632 H590 0.930 . S
C632 C631 1.390 . S
C632 C633 1.366 . S
C633 H591 0.932 . S
C633 C628 1.360 . S
C633 C632 1.366 . S
C634 C608 1.490 . S
C634 C635 1.380 . S
C634 C639 1.386 . S
C635 H592 0.930 . S
C635 C634 1.380 . S
C635 C636 1.381 . S
C636 H593 0.929 . S
C636 C635 1.381 . S
C636 C637 1.371 . S
C637 C636 1.371 . S
C637 C638 1.380 . S
C638 H594 0.931 . S
C638 C637 1.380 . S
C638 C639 1.387 . S
C639 H595 0.930 . S
C639 C634 1.386 . S
C639 C638 1.387 . S
C640 C609 1.519 1_556 S
C640 C641 1.377 . S
C640 C645 1.361 . S
C641 H596 0.929 . S
C641 C640 1.377 . S
C641 C642 1.386 . S
C642 H597 0.931 . S
C642 C641 1.386 . S
C642 C643 1.363 . S
C643 C642 1.363 . S
C643 C644 1.385 . S
C644 H598 0.930 . S
C644 C643 1.385 . S
C644 C645 1.396 . S
C645 H599 0.929 1_556 S
C645 C640 1.361 . S
C645 C644 1.396 . S
C646 O600 1.300 . S
C646 O601 1.209 . S
C646 C619 1.486 . S
C647 O602 1.199 . S
C647 O603 1.297 . S
C647 C631 1.476 . S
H648 O674 0.854 1_655 S
H649 O677 0.854 . S
H650 C685 0.930 . S
H651 C686 0.930 . S
H652 C688 0.930 . S
H653 C689 0.930 . S
H654 C691 0.931 . S
H655 C692 0.930 . S
H656 C694 0.930 . S
H657 C695 0.929 . S
H658 C697 0.930 . S
H659 C698 0.931 . S
H660 C700 0.930 . S
H661 C701 0.929 . S
H662 C703 0.931 . S
H663 C704 0.930 . S
H664 C706 0.930 . S
H665 C707 0.932 . S
H666 C709 0.930 . S
H667 C710 0.929 . S
H668 C712 0.931 . S
H669 C713 0.930 . S
H670 C715 0.929 . S
H671 C716 0.931 . S
H672 C718 0.930 . S
H673 C719 0.929 . S
O674 H648 0.854 1_455 S
O674 C720 1.300 1_455 S
O675 C720 1.209 . S
O676 C721 1.199 . S
O677 H649 0.854 . S
O677 C721 1.297 . S
C678 C679 1.368 1_655 S
C678 C683 1.389 1_655 S
C678 C684 1.535 . S
C679 C678 1.368 1_455 S
C679 C680 1.396 . S
C679 C690 1.492 . S
C680 C679 1.396 . S
C680 C681 1.397 . S
C680 C696 1.509 . S
C681 C680 1.397 . S
C681 C682 1.412 . S
C681 C702 1.485 . S
C682 C681 1.412 . S
C682 C683 1.388 . S
C682 C708 1.490 . S
C683 C678 1.389 1_455 S
C683 C682 1.388 . S
C683 C714 1.519 1_455 S
C684 C678 1.535 . S
C684 C685 1.363 . S
C684 C689 1.390 . S
C685 H650 0.930 . S
C685 C684 1.363 . S
C685 C686 1.372 . S
C686 H651 0.930 . S
C686 C685 1.372 . S
C686 C687 1.383 . S
C687 C686 1.383 . S
C687 C688 1.395 . S
C688 H652 0.930 . S
C688 C687 1.395 . S
C688 C689 1.362 . S
C689 H653 0.930 . S
C689 C684 1.390 . S
C689 C688 1.362 . S
C690 C679 1.492 . S
C690 C691 1.377 . S
C690 C695 1.397 1_455 S
C691 H654 0.931 . S
C691 C690 1.377 . S
C691 C692 1.376 . S
C692 H655 0.930 . S
C692 C691 1.376 . S
C692 C693 1.338 1_455 S
C693 C692 1.338 1_655 S
C693 C694 1.406 . S
C693 C720 1.501 . S
C694 H656 0.930 . S
C694 C693 1.406 . S
C694 C695 1.376 . S
C695 H657 0.929 . S
C695 C690 1.397 1_655 S
C695 C694 1.376 . S
C696 C680 1.509 . S
C696 C697 1.391 . S
C696 C701 1.386 . S
C697 H658 0.930 . S
C697 C696 1.391 . S
C697 C698 1.375 . S
C698 H659 0.931 . S
C698 C697 1.375 . S
C698 C699 1.375 . S
C699 C698 1.375 . S
C699 C700 1.361 . S
C700 H660 0.930 . S
C700 C699 1.361 . S
C700 C701 1.399 . S
C701 H661 0.929 . S
C701 C696 1.386 . S
C701 C700 1.399 . S
C702 C681 1.485 . S
C702 C703 1.394 . S
C702 C707 1.360 . S
C703 H662 0.931 . S
C703 C702 1.394 . S
C703 C704 1.372 . S
C704 H663 0.930 . S
C704 C703 1.372 . S
C704 C705 1.397 . S
C705 C704 1.397 . S
C705 C706 1.390 . S
C705 C721 1.476 . S
C706 H664 0.930 . S
C706 C705 1.390 . S
C706 C707 1.366 . S
C707 H665 0.932 . S
C707 C702 1.360 . S
C707 C706 1.366 . S
C708 C682 1.490 . S
C708 C709 1.380 . S
C708 C713 1.386 . S
C709 H666 0.930 . S
C709 C708 1.380 . S
C709 C710 1.381 . S
C710 H667 0.929 . S
C710 C709 1.381 . S
C710 C711 1.371 . S
C711 C710 1.371 . S
C711 C712 1.380 . S
C712 H668 0.931 . S
C712 C711 1.380 . S
C712 C713 1.387 . S
C713 H669 0.930 . S
C713 C708 1.386 . S
C713 C712 1.387 . S
C714 C683 1.519 1_655 S
C714 C715 1.377 . S
C714 C719 1.361 . S
C715 H670 0.929 . S
C715 C714 1.377 . S
C715 C716 1.386 . S
C716 H671 0.931 . S
C716 C715 1.386 . S
C716 C717 1.363 . S
C717 C716 1.363 . S
C717 C718 1.385 . S
C718 H672 0.930 . S
C718 C717 1.385 . S
C718 C719 1.396 . S
C719 H673 0.929 . S
C719 C714 1.361 . S
C719 C718 1.396 . S
C720 O674 1.300 1_655 S
C720 O675 1.209 . S
C720 C693 1.501 . S
C721 O676 1.199 . S
C721 O677 1.297 . S
C721 C705 1.476 . S
H722 O748 0.875 . S
H723 O751 0.854 . S
H724 C759 0.930 . S
H725 C760 0.930 . S
H726 C762 0.930 . S
H727 C763 0.930 . S
H728 C765 0.931 . S
H729 C766 0.930 . S
H730 C768 0.937 . S
H731 C769 0.929 . S
H732 C771 0.930 . S
H733 C772 0.931 . S
H734 C774 0.930 . S
H735 C775 0.929 . S
H736 C777 0.931 . S
H737 C778 0.930 . S
H738 C780 0.930 . S
H739 C781 0.932 . S
H740 C783 0.930 . S
H741 C784 0.929 . S
H742 C786 0.931 . S
H743 C787 0.930 . S
H744 C789 0.929 . S
H745 C790 0.931 . S
H746 C792 0.930 . S
H747 C793 0.929 . S
O748 H722 0.875 . S
O748 C794 1.306 . S
O749 C794 1.199 1_565 S
O750 C795 1.199 . S
O751 H723 0.854 . S
O751 C795 1.297 . S
C752 C753 1.404 . S
C752 C757 1.397 . S
C752 C758 1.492 1_545 S
C753 C752 1.404 . S
C753 C754 1.396 . S
C753 C764 1.492 . S
C754 C753 1.396 . S
C754 C755 1.397 . S
C754 C770 1.509 . S
C755 C754 1.397 . S
C755 C756 1.412 . S
C755 C776 1.485 . S
C756 C755 1.412 . S
C756 C757 1.388 . S
C756 C782 1.490 . S
C757 C752 1.397 . S
C757 C756 1.388 . S
C757 C788 1.471 1_545 S
C758 C752 1.492 1_565 S
C758 C759 1.363 . S
C758 C763 1.390 . S
C759 H724 0.930 . S
C759 C758 1.363 . S
C759 C760 1.372 . S
C760 H725 0.930 . S
C760 C759 1.372 . S
C760 C761 1.383 . S
C761 C760 1.383 . S
C761 C762 1.395 . S
C762 H726 0.930 . S
C762 C761 1.395 . S
C762 C763 1.362 . S
C763 H727 0.930 . S
C763 C758 1.390 . S
C763 C762 1.362 . S
C764 C753 1.492 . S
C764 C765 1.377 . S
C764 C769 1.397 . S
C765 H728 0.931 . S
C765 C764 1.377 . S
C765 C766 1.376 . S
C766 H729 0.930 . S
C766 C765 1.376 . S
C766 C767 1.376 . S
C767 C766 1.376 . S
C767 C768 1.378 . S
C767 C794 1.492 . S
C768 H730 0.937 . S
C768 C767 1.378 . S
C768 C769 1.376 . S
C769 H731 0.929 . S
C769 C764 1.397 . S
C769 C768 1.376 . S
C770 C754 1.509 . S
C770 C771 1.391 . S
C770 C775 1.386 . S
C771 H732 0.930 . S
C771 C770 1.391 . S
C771 C772 1.375 . S
C772 H733 0.931 . S
C772 C771 1.375 . S
C772 C773 1.375 . S
C773 C772 1.375 . S
C773 C774 1.361 . S
C774 H734 0.930 . S
C774 C773 1.361 . S
C774 C775 1.399 . S
C775 H735 0.929 . S
C775 C770 1.386 . S
C775 C774 1.399 . S
C776 C755 1.485 . S
C776 C777 1.394 . S
C776 C781 1.360 . S
C777 H736 0.931 . S
C777 C776 1.394 . S
C777 C778 1.372 . S
C778 H737 0.930 . S
C778 C777 1.372 . S
C778 C779 1.397 . S
C779 C778 1.397 . S
C779 C780 1.390 . S
C779 C795 1.476 . S
C780 H738 0.930 . S
C780 C779 1.390 . S
C780 C781 1.366 . S
C781 H739 0.932 . S
C781 C776 1.360 . S
C781 C780 1.366 . S
C782 C756 1.490 . S
C782 C783 1.380 . S
C782 C787 1.386 . S
C783 H740 0.930 . S
C783 C782 1.380 . S
C783 C784 1.381 . S
C784 H741 0.929 . S
C784 C783 1.381 . S
C784 C785 1.371 . S
C785 C784 1.371 . S
C785 C786 1.380 . S
C786 H742 0.931 . S
C786 C785 1.380 . S
C786 C787 1.387 . S
C787 H743 0.930 . S
C787 C782 1.386 . S
C787 C786 1.387 . S
C788 C757 1.471 1_565 S
C788 C789 1.426 . S
C788 C793 1.364 1_565 S
C789 H744 0.929 . S
C789 C788 1.426 . S
C789 C790 1.386 . S
C790 H745 0.931 . S
C790 C789 1.386 . S
C790 C791 1.363 . S
C791 C790 1.363 . S
C791 C792 1.385 . S
C792 H746 0.930 . S
C792 C791 1.385 . S
C792 C793 1.396 1_565 S
C793 H747 0.929 . S
C793 C788 1.364 1_545 S
C793 C792 1.396 1_545 S
C794 O748 1.306 . S
C794 O749 1.199 1_545 S
C794 C767 1.492 . S
C795 O750 1.199 . S
C795 O751 1.297 . S
C795 C779 1.476 . S
H796 O822 0.856 . S
H797 O825 0.854 . S
H798 C833 0.930 . S
H799 C834 0.930 . S
H800 C836 0.930 . S
H801 C837 0.930 . S
H802 C839 0.931 . S
H803 C840 0.930 . S
H804 C842 0.930 . S
H805 C843 0.929 . S
H806 C845 0.930 . S
H807 C846 0.931 . S
H808 C848 0.930 . S
H809 C849 0.929 . S
H810 C851 0.932 1_455 S
H811 C852 0.930 . S
H812 C854 0.930 . S
H813 C855 0.932 . S
H814 C857 0.930 . S
H815 C858 0.929 . S
H816 C860 0.931 . S
H817 C861 0.930 . S
H818 C863 0.929 . S
H819 C864 0.931 . S
H820 C866 0.930 . S
H821 C867 0.929 . S
O822 H796 0.856 . S
O822 C868 1.300 . S
O823 C868 1.209 . S
O824 C869 1.199 . S
O825 H797 0.854 . S
O825 C869 1.297 . S
C826 C827 1.404 . S
C826 C831 1.397 . S
C826 C832 1.492 . S
C827 C826 1.404 . S
C827 C828 1.396 . S
C827 C838 1.492 . S
C828 C827 1.396 . S
C828 C829 1.397 . S
C828 C844 1.509 . S
C829 C828 1.397 . S
C829 C830 1.412 . S
C829 C850 1.535 . S
C830 C829 1.412 . S
C830 C831 1.388 . S
C830 C856 1.490 . S
C831 C826 1.397 . S
C831 C830 1.388 . S
C831 C862 1.519 . S
C832 C826 1.492 . S
C832 C833 1.363 . S
C832 C837 1.390 . S
C833 H798 0.930 . S
C833 C832 1.363 . S
C833 C834 1.372 . S
C834 H799 0.930 . S
C834 C833 1.372 . S
C834 C835 1.383 . S
C835 C834 1.383 . S
C835 C836 1.395 . S
C836 H800 0.930 . S
C836 C835 1.395 . S
C836 C837 1.362 . S
C837 H801 0.930 . S
C837 C832 1.390 . S
C837 C836 1.362 . S
C838 C827 1.492 . S
C838 C839 1.377 . S
C838 C843 1.397 . S
C839 H802 0.931 . S
C839 C838 1.377 . S
C839 C840 1.376 . S
C840 H803 0.930 . S
C840 C839 1.376 . S
C840 C841 1.376 . S
C841 C840 1.376 . S
C841 C842 1.378 . S
C841 C868 1.486 . S
C842 H804 0.930 . S
C842 C841 1.378 . S
C842 C843 1.376 . S
C843 H805 0.929 . S
C843 C838 1.397 . S
C843 C842 1.376 . S
C844 C828 1.509 . S
C844 C845 1.391 . S
C844 C849 1.386 . S
C845 H806 0.930 . S
C845 C844 1.391 . S
C845 C846 1.375 1_455 S
C846 H807 0.931 . S
C846 C845 1.375 1_655 S
C846 C847 1.375 . S
C847 C846 1.375 . S
C847 C848 1.361 . S
C848 H808 0.930 . S
C848 C847 1.361 . S
C848 C849 1.399 1_655 S
C849 H809 0.929 . S
C849 C844 1.386 . S
C849 C848 1.399 1_455 S
C850 C829 1.535 . S
C850 C851 1.370 1_455 S
C850 C855 1.333 1_455 S
C851 H810 0.932 1_655 S
C851 C850 1.370 1_655 S
C851 C852 1.372 . S
C852 H811 0.930 . S
C852 C851 1.372 . S
C852 C853 1.397 . S
C853 C852 1.397 . S
C853 C854 1.390 . S
C853 C869 1.476 . S
C854 H812 0.930 . S
C854 C853 1.390 . S
C854 C855 1.366 . S
C855 H813 0.932 . S
C855 C850 1.333 1_655 S
C855 C854 1.366 . S
C856 C830 1.490 . S
C856 C857 1.380 . S
C856 C861 1.386 . S
C857 H814 0.930 . S
C857 C856 1.380 . S
C857 C858 1.381 . S
C858 H815 0.929 . S
C858 C857 1.381 . S
C858 C859 1.371 . S
C859 C858 1.371 . S
C859 C860 1.380 . S
C860 H816 0.931 . S
C860 C859 1.380 . S
C860 C861 1.387 . S
C861 H817 0.930 . S
C861 C856 1.386 . S
C861 C860 1.387 . S
C862 C831 1.519 . S
C862 C863 1.377 . S
C862 C867 1.361 . S
C863 H818 0.929 . S
C863 C862 1.377 . S
C863 C864 1.386 . S
C864 H819 0.931 . S
C864 C863 1.386 . S
C864 C865 1.363 . S
C865 C864 1.363 . S
C865 C866 1.385 . S
C866 H820 0.930 . S
C866 C865 1.385 . S
C866 C867 1.396 . S
C867 H821 0.929 . S
C867 C862 1.361 . S
C867 C866 1.396 . S
C868 O822 1.300 . S
C868 O823 1.209 . S
C868 C841 1.486 . S
C869 O824 1.199 . S
C869 O825 1.297 . S
C869 C853 1.476 . S
H870 O896 0.856 . S
H871 O899 0.854 . S
H872 C907 0.930 . S
H873 C908 0.930 . S
H874 C910 0.930 . S
H875 C911 0.930 . S
H876 C913 0.931 1_565 S
H877 C914 0.930 . S
H878 C916 0.930 . S
H879 C917 0.929 . S
H880 C919 0.930 . S
H881 C920 0.931 . S
H882 C922 0.930 . S
H883 C923 0.929 . S
H884 C925 0.931 . S
H885 C926 0.930 . S
H886 C928 0.930 . S
H887 C929 0.932 . S
H888 C931 0.894 1_545 S
H889 C932 0.931 1_545 S
H890 C934 0.931 . S
H891 C935 0.930 . S
H892 C937 0.929 . S
H893 C938 0.931 . S
H894 C940 0.930 . S
H895 C941 0.929 . S
O896 H870 0.856 . S
O896 C942 1.300 . S
O897 C942 1.209 . S
O898 C943 1.199 . S
O899 H871 0.854 . S
O899 C943 1.297 . S
C900 C901 1.404 . S
C900 C905 1.397 . S
C900 C906 1.492 . S
C901 C900 1.404 . S
C901 C902 1.396 1_545 S
C901 C912 1.492 . S
C902 C901 1.396 1_565 S
C902 C903 1.397 . S
C902 C918 1.509 . S
C903 C902 1.397 . S
C903 C904 1.412 . S
C903 C924 1.485 . S
C904 C903 1.412 . S
C904 C905 1.388 1_565 S
C904 C930 1.490 . S
C905 C900 1.397 . S
C905 C904 1.388 1_545 S
C905 C936 1.519 . S
C906 C900 1.492 . S
C906 C907 1.363 . S
C906 C911 1.390 . S
C907 H872 0.930 . S
C907 C906 1.363 . S
C907 C908 1.372 . S
C908 H873 0.930 . S
C908 C907 1.372 . S
C908 C909 1.383 . S
C909 C908 1.383 . S
C909 C910 1.395 . S
C910 H874 0.930 . S
C910 C909 1.395 . S
C910 C911 1.362 . S
C911 H875 0.930 . S
C911 C906 1.390 . S
C911 C910 1.362 . S
C912 C901 1.492 . S
C912 C913 1.377 . S
C912 C917 1.397 . S
C913 H876 0.931 1_545 S
C913 C912 1.377 . S
C913 C914 1.376 . S
C914 H877 0.930 . S
C914 C913 1.376 . S
C914 C915 1.376 . S
C915 C914 1.376 . S
C915 C916 1.378 . S
C915 C942 1.486 . S
C916 H878 0.930 . S
C916 C915 1.378 . S
C916 C917 1.376 . S
C917 H879 0.929 . S
C917 C912 1.397 . S
C917 C916 1.376 . S
C918 C902 1.509 . S
C918 C919 1.391 . S
C918 C923 1.386 . S
C919 H880 0.930 . S
C919 C918 1.391 . S
C919 C920 1.375 . S
C920 H881 0.931 . S
C920 C919 1.375 . S
C920 C921 1.375 . S
C921 C920 1.375 . S
C921 C922 1.361 . S
C922 H882 0.930 . S
C922 C921 1.361 . S
C922 C923 1.399 . S
C923 H883 0.929 . S
C923 C918 1.386 . S
C923 C922 1.399 . S
C924 C903 1.485 . S
C924 C925 1.394 . S
C924 C929 1.360 . S
C925 H884 0.931 . S
C925 C924 1.394 . S
C925 C926 1.372 . S
C926 H885 0.930 . S
C926 C925 1.372 . S
C926 C927 1.397 . S
C927 C926 1.397 . S
C927 C928 1.390 . S
C927 C943 1.476 . S
C928 H886 0.930 . S
C928 C927 1.390 . S
C928 C929 1.366 . S
C929 H887 0.932 . S
C929 C924 1.360 . S
C929 C928 1.366 . S
C930 C904 1.490 . S
C930 C931 1.397 . S
C930 C935 1.386 . S
C931 H888 0.894 1_565 S
C931 C930 1.397 . S
C931 C932 1.404 . S
C932 H889 0.931 1_565 S
C932 C931 1.404 . S
C932 C933 1.371 . S
C933 C932 1.371 . S
C933 C934 1.380 . S
C934 H890 0.931 . S
C934 C933 1.380 . S
C934 C935 1.387 . S
C935 H891 0.930 . S
C935 C930 1.386 . S
C935 C934 1.387 . S
C936 C905 1.519 . S
C936 C937 1.377 . S
C936 C941 1.361 . S
C937 H892 0.929 . S
C937 C936 1.377 . S
C937 C938 1.386 . S
C938 H893 0.931 . S
C938 C937 1.386 . S
C938 C939 1.363 . S
C939 C938 1.363 . S
C939 C940 1.385 . S
C940 H894 0.930 . S
C940 C939 1.385 . S
C940 C941 1.396 . S
C941 H895 0.929 . S
C941 C936 1.361 . S
C941 C940 1.396 . S
C942 O896 1.300 . S
C942 O897 1.209 . S
C942 C915 1.486 . S
C943 O898 1.199 . S
C943 O899 1.297 . S
C943 C927 1.476 . S
H944 O970 0.856 . S
H945 O973 0.854 . S
H946 C981 0.930 . S
H947 C982 0.930 . S
H948 C984 0.930 . S
H949 C985 0.930 . S
H950 C987 0.931 . S
H951 C988 0.930 . S
H952 C990 0.930 . S
H953 C991 0.929 . S
H954 C993 0.930 . S
H955 C994 0.931 . S
H956 C996 0.930 . S
H957 C997 0.929 . S
H958 C999 0.931 . S
H959 C1000 0.930 . S
H960 C1002 0.930 . S
H961 C1003 0.932 . S
H962 C1005 0.930 . S
H963 C1006 0.929 . S
H964 C1008 0.931 . S
H965 C1009 0.930 . S
H966 C1011 0.929 . S
H967 C1012 0.931 . S
H968 C1014 0.930 . S
H969 C1015 0.929 1_455 S
O970 H944 0.856 . S
O970 C1016 1.300 . S
O971 C1016 1.209 . S
O972 C1017 1.199 . S
O973 H945 0.854 . S
O973 C1017 1.297 . S
C974 C975 1.404 . S
C974 C979 1.397 . S
C974 C980 1.492 1_455 S
C975 C974 1.404 . S
C975 C976 1.396 . S
C975 C986 1.492 . S
C976 C975 1.396 . S
C976 C977 1.397 . S
C976 C992 1.509 . S
C977 C976 1.397 . S
C977 C978 1.412 . S
C977 C998 1.485 . S
C978 C977 1.412 . S
C978 C979 1.388 . S
C978 C1004 1.490 . S
C979 C974 1.397 . S
C979 C978 1.388 . S
C979 C1010 1.519 1_455 S
C980 C974 1.492 1_655 S
C980 C981 1.363 . S
C980 C985 1.390 . S
C981 H946 0.930 . S
C981 C980 1.363 . S
C981 C982 1.372 . S
C982 H947 0.930 . S
C982 C981 1.372 . S
C982 C983 1.383 . S
C983 C982 1.383 . S
C983 C984 1.395 . S
C984 H948 0.930 . S
C984 C983 1.395 . S
C984 C985 1.362 . S
C985 H949 0.930 . S
C985 C980 1.390 . S
C985 C984 1.362 . S
C986 C975 1.492 . S
C986 C987 1.377 . S
C986 C991 1.397 . S
C987 H950 0.931 . S
C987 C986 1.377 . S
C987 C988 1.376 . S
C988 H951 0.930 . S
C988 C987 1.376 . S
C988 C989 1.376 . S
C989 C988 1.376 . S
C989 C990 1.378 . S
C989 C1016 1.486 . S
C990 H952 0.930 . S
C990 C989 1.378 . S
C990 C991 1.376 . S
C991 H953 0.929 . S
C991 C986 1.397 . S
C991 C990 1.376 . S
C992 C976 1.509 . S
C992 C993 1.391 . S
C992 C997 1.386 . S
C993 H954 0.930 . S
C993 C992 1.391 . S
C993 C994 1.375 . S
C994 H955 0.931 . S
C994 C993 1.375 . S
C994 C995 1.375 . S
C995 C994 1.375 . S
C995 C996 1.361 . S
C996 H956 0.930 . S
C996 C995 1.361 . S
C996 C997 1.399 . S
C997 H957 0.929 . S
C997 C992 1.386 . S
C997 C996 1.399 . S
C998 C977 1.485 . S
C998 C999 1.394 . S
C998 C1003 1.360 . S
C999 H958 0.931 . S
C999 C998 1.394 . S
C999 C1000 1.372 . S
C1000 H959 0.930 . S
C1000 C999 1.372 . S
C1000 C1001 1.397 . S
C1001 C1000 1.397 . S
C1001 C1002 1.390 . S
C1001 C1017 1.476 . S
C1002 H960 0.930 . S
C1002 C1001 1.390 . S
C1002 C1003 1.366 . S
C1003 H961 0.932 . S
C1003 C998 1.360 . S
C1003 C1002 1.366 . S
C1004 C978 1.490 . S
C1004 C1005 1.380 . S
C1004 C1009 1.386 . S
C1005 H962 0.930 . S
C1005 C1004 1.380 . S
C1005 C1006 1.381 . S
C1006 H963 0.929 . S
C1006 C1005 1.381 . S
C1006 C1007 1.371 . S
C1007 C1006 1.371 . S
C1007 C1008 1.380 . S
C1008 H964 0.931 . S
C1008 C1007 1.380 . S
C1008 C1009 1.387 . S
C1009 H965 0.930 . S
C1009 C1004 1.386 . S
C1009 C1008 1.387 . S
C1010 C979 1.519 1_655 S
C1010 C1011 1.377 . S
C1010 C1015 1.361 . S
C1011 H966 0.929 . S
C1011 C1010 1.377 . S
C1011 C1012 1.386 . S
C1012 H967 0.931 . S
C1012 C1011 1.386 . S
C1012 C1013 1.363 . S
C1013 C1012 1.363 . S
C1013 C1014 1.385 . S
C1014 H968 0.930 . S
C1014 C1013 1.385 . S
C1014 C1015 1.396 . S
C1015 H969 0.929 1_655 S
C1015 C1010 1.361 . S
C1015 C1014 1.396 . S
C1016 O970 1.300 . S
C1016 O971 1.209 . S
C1016 C989 1.486 . S
C1017 O972 1.199 . S
C1017 O973 1.297 . S
C1017 C1001 1.476 . S
H1018 O1044 0.856 . S
H1019 O1047 0.854 . S
H1020 C1055 0.930 . S
H1021 C1056 0.930 . S
H1022 C1058 0.930 . S
H1023 C1059 0.930 . S
H1024 C1061 0.931 . S
H1025 C1062 0.930 . S
H1026 C1064 0.930 . S
H1027 C1065 0.929 . S
H1028 C1067 0.930 . S
H1029 C1068 0.931 . S
H1030 C1070 0.930 . S
H1031 C1071 0.929 . S
H1032 C1073 0.931 . S
H1033 C1074 0.930 . S
H1034 C1076 0.930 . S
H1035 C1077 0.932 . S
H1036 C1079 0.930 . S
H1037 C1080 0.929 . S
H1038 C1082 0.931 . S
H1039 C1083 0.930 . S
H1040 C1085 0.929 . S
H1041 C1086 0.931 . S
H1042 C1088 0.930 . S
H1043 C1089 0.929 . S
O1044 H1018 0.856 . S
O1044 C1090 1.300 . S
O1045 C1090 1.209 . S
O1046 C1091 1.199 . S
O1047 H1019 0.854 . S
O1047 C1091 1.297 . S
C1048 C1049 1.404 . S
C1048 C1053 1.397 . S
C1048 C1054 1.492 1_545 S
C1049 C1048 1.404 . S
C1049 C1050 1.396 . S
C1049 C1060 1.492 . S
C1050 C1049 1.396 . S
C1050 C1051 1.397 . S
C1050 C1066 1.509 . S
C1051 C1050 1.397 . S
C1051 C1052 1.412 . S
C1051 C1072 1.485 . S
C1052 C1051 1.412 . S
C1052 C1053 1.388 . S
C1052 C1078 1.490 . S
C1053 C1048 1.397 . S
C1053 C1052 1.388 . S
C1053 C1084 1.519 . S
C1054 C1048 1.492 1_565 S
C1054 C1055 1.363 . S
C1054 C1059 1.390 . S
C1055 H1020 0.930 . S
C1055 C1054 1.363 . S
C1055 C1056 1.372 . S
C1056 H1021 0.930 . S
C1056 C1055 1.372 . S
C1056 C1057 1.383 . S
C1057 C1056 1.383 . S
C1057 C1058 1.395 . S
C1058 H1022 0.930 . S
C1058 C1057 1.395 . S
C1058 C1059 1.362 . S
C1059 H1023 0.930 . S
C1059 C1054 1.390 . S
C1059 C1058 1.362 . S
C1060 C1049 1.492 . S
C1060 C1061 1.377 . S
C1060 C1065 1.397 . S
C1061 H1024 0.931 . S
C1061 C1060 1.377 . S
C1061 C1062 1.376 . S
C1062 H1025 0.930 . S
C1062 C1061 1.376 . S
C1062 C1063 1.376 . S
C1063 C1062 1.376 . S
C1063 C1064 1.378 . S
C1063 C1090 1.486 . S
C1064 H1026 0.930 . S
C1064 C1063 1.378 . S
C1064 C1065 1.376 . S
C1065 H1027 0.929 . S
C1065 C1060 1.397 . S
C1065 C1064 1.376 . S
C1066 C1050 1.509 . S
C1066 C1067 1.391 . S
C1066 C1071 1.386 . S
C1067 H1028 0.930 . S
C1067 C1066 1.391 . S
C1067 C1068 1.375 . S
C1068 H1029 0.931 . S
C1068 C1067 1.375 . S
C1068 C1069 1.375 . S
C1069 C1068 1.375 . S
C1069 C1070 1.361 . S
C1070 H1030 0.930 . S
C1070 C1069 1.361 . S
C1070 C1071 1.399 . S
C1071 H1031 0.929 . S
C1071 C1066 1.386 . S
C1071 C1070 1.399 . S
C1072 C1051 1.485 . S
C1072 C1073 1.394 . S
C1072 C1077 1.360 . S
C1073 H1032 0.931 . S
C1073 C1072 1.394 . S
C1073 C1074 1.372 . S
C1074 H1033 0.930 . S
C1074 C1073 1.372 . S
C1074 C1075 1.397 . S
C1075 C1074 1.397 . S
C1075 C1076 1.390 . S
C1075 C1091 1.476 . S
C1076 H1034 0.930 . S
C1076 C1075 1.390 . S
C1076 C1077 1.366 . S
C1077 H1035 0.932 . S
C1077 C1072 1.360 . S
C1077 C1076 1.366 . S
C1078 C1052 1.490 . S
C1078 C1079 1.380 . S
C1078 C1083 1.386 . S
C1079 H1036 0.930 . S
C1079 C1078 1.380 . S
C1079 C1080 1.381 . S
C1080 H1037 0.929 . S
C1080 C1079 1.381 . S
C1080 C1081 1.371 . S
C1081 C1080 1.371 . S
C1081 C1082 1.380 . S
C1082 H1038 0.931 . S
C1082 C1081 1.380 . S
C1082 C1083 1.387 . S
C1083 H1039 0.930 . S
C1083 C1078 1.386 . S
C1083 C1082 1.387 . S
C1084 C1053 1.519 . S
C1084 C1085 1.377 1_545 S
C1084 C1089 1.361 . S
C1085 H1040 0.929 . S
C1085 C1084 1.377 1_565 S
C1085 C1086 1.386 . S
C1086 H1041 0.931 . S
C1086 C1085 1.386 . S
C1086 C1087 1.363 . S
C1087 C1086 1.363 . S
C1087 C1088 1.385 . S
C1088 H1042 0.930 . S
C1088 C1087 1.385 . S
C1088 C1089 1.396 1_565 S
C1089 H1043 0.929 . S
C1089 C1084 1.361 . S
C1089 C1088 1.396 1_545 S
C1090 O1044 1.300 . S
C1090 O1045 1.209 . S
C1090 C1063 1.486 . S
C1091 O1046 1.199 . S
C1091 O1047 1.297 . S
C1091 C1075 1.476 . S
H1092 O1118 0.856 1_655 S
H1093 O1121 0.854 . S
H1094 C1129 0.930 1_455 S
H1095 C1130 0.930 . S
H1096 C1132 0.930 . S
H1097 C1133 0.930 . S
H1098 C1135 0.931 . S
H1099 C1136 0.930 . S
H1100 C1138 0.930 1_655 S
H1101 C1139 0.929 . S
H1102 C1141 0.930 . S
H1103 C1142 0.931 . S
H1104 C1144 0.930 . S
H1105 C1145 0.929 . S
H1106 C1147 0.931 . S
H1107 C1148 0.930 . S
H1108 C1150 0.930 . S
H1109 C1151 0.932 . S
H1110 C1153 0.930 . S
H1111 C1154 0.929 . S
H1112 C1156 0.931 . S
H1113 C1157 0.930 . S
H1114 C1159 0.929 . S
H1115 C1160 0.931 . S
H1116 C1162 0.930 . S
H1117 C1163 0.929 . S
O1118 H1092 0.856 1_455 S
O1118 C1164 1.300 1_455 S
O1119 C1164 1.209 . S
O1120 C1165 1.199 . S
O1121 H1093 0.854 . S
O1121 C1165 1.297 . S
C1122 C1123 1.404 . S
C1122 C1127 1.397 . S
C1122 C1128 1.548 . S
C1123 C1122 1.404 . S
C1123 C1124 1.396 . S
C1123 C1134 1.492 . S
C1124 C1123 1.396 . S
C1124 C1125 1.397 . S
C1124 C1140 1.509 . S
C1125 C1124 1.397 . S
C1125 C1126 1.412 . S
C1125 C1146 1.485 . S
C1126 C1125 1.412 . S
C1126 C1127 1.388 . S
C1126 C1152 1.490 . S
C1127 C1122 1.397 . S
C1127 C1126 1.388 . S
C1127 C1158 1.519 . S
C1128 C1122 1.548 . S
C1128 C1129 1.346 1_455 S
C1128 C1133 1.350 1_455 S
C1129 H1094 0.930 1_655 S
C1129 C1128 1.346 1_655 S
C1129 C1130 1.372 . S
C1130 H1095 0.930 . S
C1130 C1129 1.372 . S
C1130 C1131 1.383 . S
C1131 C1130 1.383 . S
C1131 C1132 1.395 . S
C1132 H1096 0.930 . S
C1132 C1131 1.395 . S
C1132 C1133 1.362 . S
C1133 H1097 0.930 . S
C1133 C1128 1.350 1_655 S
C1133 C1132 1.362 . S
C1134 C1123 1.492 . S
C1134 C1135 1.377 . S
C1134 C1139 1.397 . S
C1135 H1098 0.931 . S
C1135 C1134 1.377 . S
C1135 C1136 1.376 . S
C1136 H1099 0.930 . S
C1136 C1135 1.376 . S
C1136 C1137 1.376 . S
C1137 C1136 1.376 . S
C1137 C1138 1.378 . S
C1137 C1164 1.486 1_455 S
C1138 H1100 0.930 1_455 S
C1138 C1137 1.378 . S
C1138 C1139 1.376 . S
C1139 H1101 0.929 . S
C1139 C1134 1.397 . S
C1139 C1138 1.376 . S
C1140 C1124 1.509 . S
C1140 C1141 1.391 . S
C1140 C1145 1.386 . S
C1141 H1102 0.930 . S
C1141 C1140 1.391 . S
C1141 C1142 1.375 . S
C1142 H1103 0.931 . S
C1142 C1141 1.375 . S
C1142 C1143 1.375 . S
C1143 C1142 1.375 . S
C1143 C1144 1.361 . S
C1144 H1104 0.930 . S
C1144 C1143 1.361 . S
C1144 C1145 1.399 . S
C1145 H1105 0.929 . S
C1145 C1140 1.386 . S
C1145 C1144 1.399 . S
C1146 C1125 1.485 . S
C1146 C1147 1.394 . S
C1146 C1151 1.360 . S
C1147 H1106 0.931 . S
C1147 C1146 1.394 . S
C1147 C1148 1.372 . S
C1148 H1107 0.930 . S
C1148 C1147 1.372 . S
C1148 C1149 1.397 . S
C1149 C1148 1.397 . S
C1149 C1150 1.390 . S
C1149 C1165 1.476 . S
C1150 H1108 0.930 . S
C1150 C1149 1.390 . S
C1150 C1151 1.366 . S
C1151 H1109 0.932 . S
C1151 C1146 1.360 . S
C1151 C1150 1.366 . S
C1152 C1126 1.490 . S
C1152 C1153 1.380 . S
C1152 C1157 1.386 . S
C1153 H1110 0.930 . S
C1153 C1152 1.380 . S
C1153 C1154 1.381 . S
C1154 H1111 0.929 . S
C1154 C1153 1.381 . S
C1154 C1155 1.371 . S
C1155 C1154 1.371 . S
C1155 C1156 1.380 . S
C1156 H1112 0.931 . S
C1156 C1155 1.380 . S
C1156 C1157 1.387 . S
C1157 H1113 0.930 . S
C1157 C1152 1.386 . S
C1157 C1156 1.387 . S
C1158 C1127 1.519 . S
C1158 C1159 1.377 . S
C1158 C1163 1.361 . S
C1159 H1114 0.929 . S
C1159 C1158 1.377 . S
C1159 C1160 1.386 1_455 S
C1160 H1115 0.931 . S
C1160 C1159 1.386 1_655 S
C1160 C1161 1.363 . S
C1161 C1160 1.363 . S
C1161 C1162 1.385 1_655 S
C1162 H1116 0.930 . S
C1162 C1161 1.385 1_455 S
C1162 C1163 1.396 . S
C1163 H1117 0.929 . S
C1163 C1158 1.361 . S
C1163 C1162 1.396 . S
C1164 O1118 1.300 1_655 S
C1164 O1119 1.209 . S
C1164 C1137 1.486 1_655 S
C1165 O1120 1.199 . S
C1165 O1121 1.297 . S
C1165 C1149 1.476 . S
H1166 O1192 0.856 . S
H1167 O1195 0.854 . S
H1168 C1203 0.930 . S
H1169 C1204 0.930 . S
H1170 C1206 0.930 . S
H1171 C1207 0.930 . S
H1172 C1209 0.925 1_565 S
H1173 C1210 0.930 1_565 S
H1174 C1212 0.930 . S
H1175 C1213 0.929 . S
H1176 C1215 0.930 . S
H1177 C1216 0.931 . S
H1178 C1218 0.930 . S
H1179 C1219 0.929 . S
H1180 C1221 0.931 . S
H1181 C1222 0.930 . S
H1182 C1224 0.930 . S
H1183 C1225 0.932 . S
H1184 C1227 0.930 . S
H1185 C1228 0.929 . S
H1186 C1230 0.931 . S
H1187 C1231 0.930 . S
H1188 C1233 0.929 . S
H1189 C1234 0.931 . S
H1190 C1236 0.930 . S
H1191 C1237 0.929 . S
O1192 H1166 0.856 . S
O1192 C1238 1.300 . S
O1193 C1238 1.209 . S
O1194 C1239 1.199 . S
O1195 H1167 0.854 . S
O1195 C1239 1.297 . S
C1196 C1197 1.404 . S
C1196 C1201 1.397 . S
C1196 C1202 1.492 . S
C1197 C1196 1.404 . S
C1197 C1198 1.396 1_545 S
C1197 C1208 1.492 . S
C1198 C1197 1.396 1_565 S
C1198 C1199 1.397 . S
C1198 C1214 1.509 . S
C1199 C1198 1.397 . S
C1199 C1200 1.412 1_565 S
C1199 C1220 1.485 . S
C1200 C1199 1.412 1_545 S
C1200 C1201 1.388 . S
C1200 C1226 1.490 1_545 S
C1201 C1196 1.397 . S
C1201 C1200 1.388 . S
C1201 C1232 1.519 . S
C1202 C1196 1.492 . S
C1202 C1203 1.363 . S
C1202 C1207 1.390 . S
C1203 H1168 0.930 . S
C1203 C1202 1.363 . S
C1203 C1204 1.372 . S
C1204 H1169 0.930 . S
C1204 C1203 1.372 . S
C1204 C1205 1.383 . S
C1205 C1204 1.383 . S
C1205 C1206 1.395 . S
C1206 H1170 0.930 . S
C1206 C1205 1.395 . S
C1206 C1207 1.362 . S
C1207 H1171 0.930 . S
C1207 C1202 1.390 . S
C1207 C1206 1.362 . S
C1208 C1197 1.492 . S
C1208 C1209 1.380 . S
C1208 C1213 1.397 . S
C1209 H1172 0.925 1_545 S
C1209 C1208 1.380 . S
C1209 C1210 1.379 . S
C1210 H1173 0.930 1_545 S
C1210 C1209 1.379 . S
C1210 C1211 1.376 . S
C1211 C1210 1.376 . S
C1211 C1212 1.378 . S
C1211 C1238 1.486 . S
C1212 H1174 0.930 . S
C1212 C1211 1.378 . S
C1212 C1213 1.376 . S
C1213 H1175 0.929 . S
C1213 C1208 1.397 . S
C1213 C1212 1.376 . S
C1214 C1198 1.509 . S
C1214 C1215 1.391 . S
C1214 C1219 1.386 . S
C1215 H1176 0.930 . S
C1215 C1214 1.391 . S
C1215 C1216 1.375 . S
C1216 H1177 0.931 . S
C1216 C1215 1.375 . S
C1216 C1217 1.375 . S
C1217 C1216 1.375 . S
C1217 C1218 1.361 . S
C1218 H1178 0.930 . S
C1218 C1217 1.361 . S
C1218 C1219 1.399 . S
C1219 H1179 0.929 . S
C1219 C1214 1.386 . S
C1219 C1218 1.399 . S
C1220 C1199 1.485 . S
C1220 C1221 1.394 . S
C1220 C1225 1.360 . S
C1221 H1180 0.931 . S
C1221 C1220 1.394 . S
C1221 C1222 1.372 . S
C1222 H1181 0.930 . S
C1222 C1221 1.372 . S
C1222 C1223 1.397 . S
C1223 C1222 1.397 . S
C1223 C1224 1.390 . S
C1223 C1239 1.476 . S
C1224 H1182 0.930 . S
C1224 C1223 1.390 . S
C1224 C1225 1.366 . S
C1225 H1183 0.932 . S
C1225 C1220 1.360 . S
C1225 C1224 1.366 . S
C1226 C1200 1.490 1_565 S
C1226 C1227 1.380 1_565 S
C1226 C1231 1.386 . S
C1227 H1184 0.930 . S
C1227 C1226 1.380 1_545 S
C1227 C1228 1.381 . S
C1228 H1185 0.929 . S
C1228 C1227 1.381 . S
C1228 C1229 1.371 1_545 S
C1229 C1228 1.371 1_565 S
C1229 C1230 1.380 . S
C1230 H1186 0.931 . S
C1230 C1229 1.380 . S
C1230 C1231 1.387 . S
C1231 H1187 0.930 . S
C1231 C1226 1.386 . S
C1231 C1230 1.387 . S
C1232 C1201 1.519 . S
C1232 C1233 1.377 . S
C1232 C1237 1.361 . S
C1233 H1188 0.929 . S
C1233 C1232 1.377 . S
C1233 C1234 1.386 . S
C1234 H1189 0.931 . S
C1234 C1233 1.386 . S
C1234 C1235 1.363 . S
C1235 C1234 1.363 . S
C1235 C1236 1.385 . S
C1236 H1190 0.930 . S
C1236 C1235 1.385 . S
C1236 C1237 1.396 . S
C1237 H1191 0.929 . S
C1237 C1232 1.361 . S
C1237 C1236 1.396 . S
C1238 O1192 1.300 . S
C1238 O1193 1.209 . S
C1238 C1211 1.486 . S
C1239 O1194 1.199 . S
C1239 O1195 1.297 . S
C1239 C1223 1.476 . S
H1240 O1266 0.856 . S
H1241 O1269 0.854 . S
H1242 C1277 0.930 . S
H1243 C1278 0.930 . S
H1244 C1280 0.930 . S
H1245 C1281 0.930 . S
H1246 C1283 0.931 . S
H1247 C1284 0.930 . S
H1248 C1286 0.930 . S
H1249 C1287 0.929 . S
H1250 C1289 0.930 . S
H1251 C1290 0.931 . S
H1252 C1292 0.930 . S
H1253 C1293 0.929 . S
H1254 C1295 0.931 . S
H1255 C1296 0.930 . S
H1256 C1298 0.930 . S
H1257 C1299 0.932 . S
H1258 C1301 0.930 . S
H1259 C1302 0.929 . S
H1260 C1304 0.931 . S
H1261 C1305 0.930 . S
H1262 C1307 0.929 . S
H1263 C1308 0.931 . S
H1264 C1310 0.930 . S
H1265 C1311 0.929 . S
O1266 H1240 0.856 . S
O1266 C1312 1.300 . S
O1267 C1312 1.209 . S
O1268 C1313 1.199 . S
O1269 H1241 0.854 . S
O1269 C1313 1.297 . S
C1270 C1271 1.404 . S
C1270 C1275 1.397 . S
C1270 C1276 1.492 . S
C1271 C1270 1.404 . S
C1271 C1272 1.396 . S
C1271 C1282 1.492 . S
C1272 C1271 1.396 . S
C1272 C1273 1.397 . S
C1272 C1288 1.509 . S
C1273 C1272 1.397 . S
C1273 C1274 1.412 . S
C1273 C1294 1.485 . S
C1274 C1273 1.412 . S
C1274 C1275 1.388 . S
C1274 C1300 1.490 . S
C1275 C1270 1.397 . S
C1275 C1274 1.388 . S
C1275 C1306 1.519 . S
C1276 C1270 1.492 . S
C1276 C1277 1.363 . S
C1276 C1281 1.390 . S
C1277 H1242 0.930 . S
C1277 C1276 1.363 . S
C1277 C1278 1.372 . S
C1278 H1243 0.930 . S
C1278 C1277 1.372 . S
C1278 C1279 1.383 . S
C1279 C1278 1.383 . S
C1279 C1280 1.395 . S
C1280 H1244 0.930 . S
C1280 C1279 1.395 . S
C1280 C1281 1.362 . S
C1281 H1245 0.930 . S
C1281 C1276 1.390 . S
C1281 C1280 1.362 . S
C1282 C1271 1.492 . S
C1282 C1283 1.377 . S
C1282 C1287 1.397 . S
C1283 H1246 0.931 . S
C1283 C1282 1.377 . S
C1283 C1284 1.376 . S
C1284 H1247 0.930 . S
C1284 C1283 1.376 . S
C1284 C1285 1.376 . S
C1285 C1284 1.376 . S
C1285 C1286 1.378 . S
C1285 C1312 1.486 . S
C1286 H1248 0.930 . S
C1286 C1285 1.378 . S
C1286 C1287 1.376 . S
C1287 H1249 0.929 . S
C1287 C1282 1.397 . S
C1287 C1286 1.376 . S
C1288 C1272 1.509 . S
C1288 C1289 1.391 . S
C1288 C1293 1.386 . S
C1289 H1250 0.930 . S
C1289 C1288 1.391 . S
C1289 C1290 1.375 . S
C1290 H1251 0.931 . S
C1290 C1289 1.375 . S
C1290 C1291 1.375 . S
C1291 C1290 1.375 . S
C1291 C1292 1.361 . S
C1292 H1252 0.930 . S
C1292 C1291 1.361 . S
C1292 C1293 1.399 . S
C1293 H1253 0.929 . S
C1293 C1288 1.386 . S
C1293 C1292 1.399 . S
C1294 C1273 1.485 . S
C1294 C1295 1.394 . S
C1294 C1299 1.360 . S
C1295 H1254 0.931 . S
C1295 C1294 1.394 . S
C1295 C1296 1.372 . S
C1296 H1255 0.930 . S
C1296 C1295 1.372 . S
C1296 C1297 1.397 . S
C1297 C1296 1.397 . S
C1297 C1298 1.390 . S
C1297 C1313 1.476 . S
C1298 H1256 0.930 . S
C1298 C1297 1.390 . S
C1298 C1299 1.366 . S
C1299 H1257 0.932 . S
C1299 C1294 1.360 . S
C1299 C1298 1.366 . S
C1300 C1274 1.490 . S
C1300 C1301 1.380 . S
C1300 C1305 1.386 . S
C1301 H1258 0.930 . S
C1301 C1300 1.380 . S
C1301 C1302 1.381 . S
C1302 H1259 0.929 . S
C1302 C1301 1.381 . S
C1302 C1303 1.371 . S
C1303 C1302 1.371 . S
C1303 C1304 1.380 . S
C1304 H1260 0.931 . S
C1304 C1303 1.380 . S
C1304 C1305 1.387 . S
C1305 H1261 0.930 . S
C1305 C1300 1.386 . S
C1305 C1304 1.387 . S
C1306 C1275 1.519 . S
C1306 C1307 1.377 . S
C1306 C1311 1.361 . S
C1307 H1262 0.929 . S
C1307 C1306 1.377 . S
C1307 C1308 1.386 . S
C1308 H1263 0.931 . S
C1308 C1307 1.386 . S
C1308 C1309 1.363 . S
C1309 C1308 1.363 . S
C1309 C1310 1.385 . S
C1310 H1264 0.930 . S
C1310 C1309 1.385 . S
C1310 C1311 1.396 . S
C1311 H1265 0.929 . S
C1311 C1306 1.361 . S
C1311 C1310 1.396 . S
C1312 O1266 1.300 . S
C1312 O1267 1.209 . S
C1312 C1285 1.486 . S
C1313 O1268 1.199 . S
C1313 O1269 1.297 . S
C1313 C1297 1.476 . S
H1314 O1340 0.856 . S
H1315 O1343 0.854 . S
H1316 C1351 0.930 . S
H1317 C1352 0.930 . S
H1318 C1354 0.930 . S
H1319 C1355 0.930 . S
H1320 C1357 0.931 . S
H1321 C1358 0.930 . S
H1322 C1360 0.930 . S
H1323 C1361 0.929 . S
H1324 C1363 0.930 . S
H1325 C1364 0.931 . S
H1326 C1366 0.930 . S
H1327 C1367 0.929 . S
H1328 C1369 0.931 . S
H1329 C1370 0.930 . S
H1330 C1372 0.930 . S
H1331 C1373 0.932 . S
H1332 C1375 0.930 . S
H1333 C1376 0.929 . S
H1334 C1378 0.931 . S
H1335 C1379 0.930 . S
H1336 C1381 0.929 . S
H1337 C1382 0.931 . S
H1338 C1384 0.930 . S
H1339 C1385 0.929 . S
O1340 H1314 0.856 . S
O1340 C1386 1.300 . S
O1341 C1386 1.209 . S
O1342 C1387 1.199 . S
O1343 H1315 0.854 . S
O1343 C1387 1.297 . S
C1344 C1345 1.404 . S
C1344 C1349 1.397 . S
C1344 C1350 1.492 . S
C1345 C1344 1.404 . S
C1345 C1346 1.396 . S
C1345 C1356 1.492 . S
C1346 C1345 1.396 . S
C1346 C1347 1.397 . S
C1346 C1362 1.509 . S
C1347 C1346 1.397 . S
C1347 C1348 1.412 . S
C1347 C1368 1.485 . S
C1348 C1347 1.412 . S
C1348 C1349 1.388 . S
C1348 C1374 1.490 . S
C1349 C1344 1.397 . S
C1349 C1348 1.388 . S
C1349 C1380 1.519 . S
C1350 C1344 1.492 . S
C1350 C1351 1.363 . S
C1350 C1355 1.390 . S
C1351 H1316 0.930 . S
C1351 C1350 1.363 . S
C1351 C1352 1.372 . S
C1352 H1317 0.930 . S
C1352 C1351 1.372 . S
C1352 C1353 1.383 . S
C1353 C1352 1.383 . S
C1353 C1354 1.395 . S
C1354 H1318 0.930 . S
C1354 C1353 1.395 . S
C1354 C1355 1.362 . S
C1355 H1319 0.930 . S
C1355 C1350 1.390 . S
C1355 C1354 1.362 . S
C1356 C1345 1.492 . S
C1356 C1357 1.377 . S
C1356 C1361 1.397 . S
C1357 H1320 0.931 . S
C1357 C1356 1.377 . S
C1357 C1358 1.376 . S
C1358 H1321 0.930 . S
C1358 C1357 1.376 . S
C1358 C1359 1.376 . S
C1359 C1358 1.376 . S
C1359 C1360 1.378 . S
C1359 C1386 1.486 . S
C1360 H1322 0.930 . S
C1360 C1359 1.378 . S
C1360 C1361 1.376 . S
C1361 H1323 0.929 . S
C1361 C1356 1.397 . S
C1361 C1360 1.376 . S
C1362 C1346 1.509 . S
C1362 C1363 1.391 . S
C1362 C1367 1.386 . S
C1363 H1324 0.930 . S
C1363 C1362 1.391 . S
C1363 C1364 1.375 . S
C1364 H1325 0.931 . S
C1364 C1363 1.375 . S
C1364 C1365 1.375 . S
C1365 C1364 1.375 . S
C1365 C1366 1.361 . S
C1366 H1326 0.930 . S
C1366 C1365 1.361 . S
C1366 C1367 1.399 . S
C1367 H1327 0.929 . S
C1367 C1362 1.386 . S
C1367 C1366 1.399 . S
C1368 C1347 1.485 . S
C1368 C1369 1.394 . S
C1368 C1373 1.360 . S
C1369 H1328 0.931 . S
C1369 C1368 1.394 . S
C1369 C1370 1.372 . S
C1370 H1329 0.930 . S
C1370 C1369 1.372 . S
C1370 C1371 1.397 . S
C1371 C1370 1.397 . S
C1371 C1372 1.390 . S
C1371 C1387 1.476 . S
C1372 H1330 0.930 . S
C1372 C1371 1.390 . S
C1372 C1373 1.366 . S
C1373 H1331 0.932 . S
C1373 C1368 1.360 . S
C1373 C1372 1.366 . S
C1374 C1348 1.490 . S
C1374 C1375 1.380 . S
C1374 C1379 1.386 . S
C1375 H1332 0.930 . S
C1375 C1374 1.380 . S
C1375 C1376 1.381 . S
C1376 H1333 0.929 . S
C1376 C1375 1.381 . S
C1376 C1377 1.371 . S
C1377 C1376 1.371 . S
C1377 C1378 1.380 . S
C1378 H1334 0.931 . S
C1378 C1377 1.380 . S
C1378 C1379 1.387 . S
C1379 H1335 0.930 . S
C1379 C1374 1.386 . S
C1379 C1378 1.387 . S
C1380 C1349 1.519 . S
C1380 C1381 1.377 . S
C1380 C1385 1.361 . S
C1381 H1336 0.929 . S
C1381 C1380 1.377 . S
C1381 C1382 1.386 . S
C1382 H1337 0.931 . S
C1382 C1381 1.386 . S
C1382 C1383 1.363 . S
C1383 C1382 1.363 . S
C1383 C1384 1.385 . S
C1384 H1338 0.930 . S
C1384 C1383 1.385 . S
C1384 C1385 1.396 . S
C1385 H1339 0.929 . S
C1385 C1380 1.361 . S
C1385 C1384 1.396 . S
C1386 O1340 1.300 . S
C1386 O1341 1.209 . S
C1386 C1359 1.486 . S
C1387 O1342 1.199 . S
C1387 O1343 1.297 . S
C1387 C1371 1.476 . S
H1388 O1414 0.856 . S
H1389 O1417 0.854 . S
H1390 C1425 0.930 . S
H1391 C1426 0.930 . S
H1392 C1428 0.930 . S
H1393 C1429 0.930 . S
H1394 C1431 0.931 . S
H1395 C1432 0.930 . S
H1396 C1434 0.930 . S
H1397 C1435 0.929 . S
H1398 C1437 0.930 . S
H1399 C1438 0.931 . S
H1400 C1440 0.930 . S
H1401 C1441 0.929 . S
H1402 C1443 0.931 . S
H1403 C1444 0.930 . S
H1404 C1446 0.930 . S
H1405 C1447 0.932 . S
H1406 C1449 0.930 . S
H1407 C1450 0.929 . S
H1408 C1452 0.931 . S
H1409 C1453 0.930 . S
H1410 C1455 0.929 . S
H1411 C1456 0.931 . S
H1412 C1458 0.930 . S
H1413 C1459 0.929 . S
O1414 H1388 0.856 . S
O1414 C1460 1.300 . S
O1415 C1460 1.209 . S
O1416 C1461 1.199 . S
O1417 H1389 0.854 . S
O1417 C1461 1.297 . S
C1418 C1419 1.404 . S
C1418 C1423 1.397 . S
C1418 C1424 1.492 . S
C1419 C1418 1.404 . S
C1419 C1420 1.396 . S
C1419 C1430 1.492 . S
C1420 C1419 1.396 . S
C1420 C1421 1.397 . S
C1420 C1436 1.509 . S
C1421 C1420 1.397 . S
C1421 C1422 1.412 . S
C1421 C1442 1.485 . S
C1422 C1421 1.412 . S
C1422 C1423 1.388 . S
C1422 C1448 1.490 . S
C1423 C1418 1.397 . S
C1423 C1422 1.388 . S
C1423 C1454 1.519 . S
C1424 C1418 1.492 . S
C1424 C1425 1.363 . S
C1424 C1429 1.390 . S
C1425 H1390 0.930 . S
C1425 C1424 1.363 . S
C1425 C1426 1.372 . S
C1426 H1391 0.930 . S
C1426 C1425 1.372 . S
C1426 C1427 1.383 . S
C1427 C1426 1.383 . S
C1427 C1428 1.395 . S
C1428 H1392 0.930 . S
C1428 C1427 1.395 . S
C1428 C1429 1.362 . S
C1429 H1393 0.930 . S
C1429 C1424 1.390 . S
C1429 C1428 1.362 . S
C1430 C1419 1.492 . S
C1430 C1431 1.377 . S
C1430 C1435 1.397 . S
C1431 H1394 0.931 . S
C1431 C1430 1.377 . S
C1431 C1432 1.376 . S
C1432 H1395 0.930 . S
C1432 C1431 1.376 . S
C1432 C1433 1.376 . S
C1433 C1432 1.376 . S
C1433 C1434 1.378 . S
C1433 C1460 1.486 . S
C1434 H1396 0.930 . S
C1434 C1433 1.378 . S
C1434 C1435 1.376 . S
C1435 H1397 0.929 . S
C1435 C1430 1.397 . S
C1435 C1434 1.376 . S
C1436 C1420 1.509 . S
C1436 C1437 1.391 . S
C1436 C1441 1.386 . S
C1437 H1398 0.930 . S
C1437 C1436 1.391 . S
C1437 C1438 1.375 . S
C1438 H1399 0.931 . S
C1438 C1437 1.375 . S
C1438 C1439 1.375 . S
C1439 C1438 1.375 . S
C1439 C1440 1.361 . S
C1440 H1400 0.930 . S
C1440 C1439 1.361 . S
C1440 C1441 1.399 . S
C1441 H1401 0.929 . S
C1441 C1436 1.386 . S
C1441 C1440 1.399 . S
C1442 C1421 1.485 . S
C1442 C1443 1.394 . S
C1442 C1447 1.360 . S
C1443 H1402 0.931 . S
C1443 C1442 1.394 . S
C1443 C1444 1.372 . S
C1444 H1403 0.930 . S
C1444 C1443 1.372 . S
C1444 C1445 1.397 . S
C1445 C1444 1.397 . S
C1445 C1446 1.390 . S
C1445 C1461 1.476 . S
C1446 H1404 0.930 . S
C1446 C1445 1.390 . S
C1446 C1447 1.366 . S
C1447 H1405 0.932 . S
C1447 C1442 1.360 . S
C1447 C1446 1.366 . S
C1448 C1422 1.490 . S
C1448 C1449 1.380 . S
C1448 C1453 1.386 . S
C1449 H1406 0.930 . S
C1449 C1448 1.380 . S
C1449 C1450 1.381 . S
C1450 H1407 0.929 . S
C1450 C1449 1.381 . S
C1450 C1451 1.371 . S
C1451 C1450 1.371 . S
C1451 C1452 1.380 . S
C1452 H1408 0.931 . S
C1452 C1451 1.380 . S
C1452 C1453 1.387 . S
C1453 H1409 0.930 . S
C1453 C1448 1.386 . S
C1453 C1452 1.387 . S
C1454 C1423 1.519 . S
C1454 C1455 1.377 . S
C1454 C1459 1.361 . S
C1455 H1410 0.929 . S
C1455 C1454 1.377 . S
C1455 C1456 1.386 . S
C1456 H1411 0.931 . S
C1456 C1455 1.386 . S
C1456 C1457 1.363 . S
C1457 C1456 1.363 . S
C1457 C1458 1.385 . S
C1458 H1412 0.930 . S
C1458 C1457 1.385 . S
C1458 C1459 1.396 . S
C1459 H1413 0.929 . S
C1459 C1454 1.361 . S
C1459 C1458 1.396 . S
C1460 O1414 1.300 . S
C1460 O1415 1.209 . S
C1460 C1433 1.486 . S
C1461 O1416 1.199 . S
C1461 O1417 1.297 . S
C1461 C1445 1.476 . S
H1462 O1488 0.856 . S
H1463 O1491 0.854 . S
H1464 C1499 0.930 . S
H1465 C1500 0.930 . S
H1466 C1502 0.930 . S
H1467 C1503 0.930 . S
H1468 C1505 0.931 . S
H1469 C1506 0.930 . S
H1470 C1508 0.930 . S
H1471 C1509 0.929 . S
H1472 C1511 0.930 . S
H1473 C1512 0.931 . S
H1474 C1514 0.930 . S
H1475 C1515 0.929 . S
H1476 C1517 0.931 . S
H1477 C1518 0.930 . S
H1478 C1520 0.930 . S
H1479 C1521 0.932 . S
H1480 C1523 0.930 . S
H1481 C1524 0.929 . S
H1482 C1526 0.931 . S
H1483 C1527 0.930 . S
H1484 C1529 0.929 . S
H1485 C1530 0.931 . S
H1486 C1532 0.930 . S
H1487 C1533 0.929 . S
O1488 H1462 0.856 . S
O1488 C1534 1.300 . S
O1489 C1534 1.209 . S
O1490 C1535 1.199 . S
O1491 H1463 0.854 . S
O1491 C1535 1.297 . S
C1492 C1493 1.404 . S
C1492 C1497 1.397 . S
C1492 C1498 1.492 . S
C1493 C1492 1.404 . S
C1493 C1494 1.396 . S
C1493 C1504 1.492 . S
C1494 C1493 1.396 . S
C1494 C1495 1.397 . S
C1494 C1510 1.509 . S
C1495 C1494 1.397 . S
C1495 C1496 1.412 . S
C1495 C1516 1.485 . S
C1496 C1495 1.412 . S
C1496 C1497 1.388 . S
C1496 C1522 1.490 . S
C1497 C1492 1.397 . S
C1497 C1496 1.388 . S
C1497 C1528 1.519 . S
C1498 C1492 1.492 . S
C1498 C1499 1.363 . S
C1498 C1503 1.390 . S
C1499 H1464 0.930 . S
C1499 C1498 1.363 . S
C1499 C1500 1.372 . S
C1500 H1465 0.930 . S
C1500 C1499 1.372 . S
C1500 C1501 1.383 . S
C1501 C1500 1.383 . S
C1501 C1502 1.395 . S
C1502 H1466 0.930 . S
C1502 C1501 1.395 . S
C1502 C1503 1.362 . S
C1503 H1467 0.930 . S
C1503 C1498 1.390 . S
C1503 C1502 1.362 . S
C1504 C1493 1.492 . S
C1504 C1505 1.377 . S
C1504 C1509 1.397 . S
C1505 H1468 0.931 . S
C1505 C1504 1.377 . S
C1505 C1506 1.376 . S
C1506 H1469 0.930 . S
C1506 C1505 1.376 . S
C1506 C1507 1.376 . S
C1507 C1506 1.376 . S
C1507 C1508 1.378 . S
C1507 C1534 1.486 . S
C1508 H1470 0.930 . S
C1508 C1507 1.378 . S
C1508 C1509 1.376 . S
C1509 H1471 0.929 . S
C1509 C1504 1.397 . S
C1509 C1508 1.376 . S
C1510 C1494 1.509 . S
C1510 C1511 1.391 . S
C1510 C1515 1.386 . S
C1511 H1472 0.930 . S
C1511 C1510 1.391 . S
C1511 C1512 1.375 . S
C1512 H1473 0.931 . S
C1512 C1511 1.375 . S
C1512 C1513 1.375 . S
C1513 C1512 1.375 . S
C1513 C1514 1.361 . S
C1514 H1474 0.930 . S
C1514 C1513 1.361 . S
C1514 C1515 1.399 . S
C1515 H1475 0.929 . S
C1515 C1510 1.386 . S
C1515 C1514 1.399 . S
C1516 C1495 1.485 . S
C1516 C1517 1.394 . S
C1516 C1521 1.360 . S
C1517 H1476 0.931 . S
C1517 C1516 1.394 . S
C1517 C1518 1.372 . S
C1518 H1477 0.930 . S
C1518 C1517 1.372 . S
C1518 C1519 1.397 . S
C1519 C1518 1.397 . S
C1519 C1520 1.390 . S
C1519 C1535 1.476 . S
C1520 H1478 0.930 . S
C1520 C1519 1.390 . S
C1520 C1521 1.366 . S
C1521 H1479 0.932 . S
C1521 C1516 1.360 . S
C1521 C1520 1.366 . S
C1522 C1496 1.490 . S
C1522 C1523 1.380 . S
C1522 C1527 1.386 . S
C1523 H1480 0.930 . S
C1523 C1522 1.380 . S
C1523 C1524 1.381 . S
C1524 H1481 0.929 . S
C1524 C1523 1.381 . S
C1524 C1525 1.371 . S
C1525 C1524 1.371 . S
C1525 C1526 1.380 . S
C1526 H1482 0.931 . S
C1526 C1525 1.380 . S
C1526 C1527 1.387 . S
C1527 H1483 0.930 . S
C1527 C1522 1.386 . S
C1527 C1526 1.387 . S
C1528 C1497 1.519 . S
C1528 C1529 1.377 . S
C1528 C1533 1.361 . S
C1529 H1484 0.929 . S
C1529 C1528 1.377 . S
C1529 C1530 1.386 . S
C1530 H1485 0.931 . S
C1530 C1529 1.386 . S
C1530 C1531 1.363 . S
C1531 C1530 1.363 . S
C1531 C1532 1.385 . S
C1532 H1486 0.930 . S
C1532 C1531 1.385 . S
C1532 C1533 1.396 . S
C1533 H1487 0.929 . S
C1533 C1528 1.361 . S
C1533 C1532 1.396 . S
C1534 O1488 1.300 . S
C1534 O1489 1.209 . S
C1534 C1507 1.486 . S
C1535 O1490 1.199 . S
C1535 O1491 1.297 . S
C1535 C1519 1.476 . S
H1536 O1562 0.856 . S
H1537 O1565 0.854 . S
H1538 C1573 0.930 . S
H1539 C1574 0.930 . S
H1540 C1576 0.930 . S
H1541 C1577 0.930 . S
H1542 C1579 0.931 . S
H1543 C1580 0.930 . S
H1544 C1582 0.930 . S
H1545 C1583 0.929 . S
H1546 C1585 0.930 . S
H1547 C1586 0.931 . S
H1548 C1588 0.930 . S
H1549 C1589 0.929 . S
H1550 C1591 0.931 . S
H1551 C1592 0.930 . S
H1552 C1594 0.930 . S
H1553 C1595 0.932 . S
H1554 C1597 0.930 . S
H1555 C1598 0.929 . S
H1556 C1600 0.931 . S
H1557 C1601 0.930 . S
H1558 C1603 0.929 . S
H1559 C1604 0.931 . S
H1560 C1606 0.930 . S
H1561 C1607 0.929 . S
O1562 H1536 0.856 . S
O1562 C1608 1.300 . S
O1563 C1608 1.209 . S
O1564 C1609 1.199 . S
O1565 H1537 0.854 . S
O1565 C1609 1.297 . S
C1566 C1567 1.404 . S
C1566 C1571 1.397 . S
C1566 C1572 1.492 . S
C1567 C1566 1.404 . S
C1567 C1568 1.396 . S
C1567 C1578 1.492 . S
C1568 C1567 1.396 . S
C1568 C1569 1.397 . S
C1568 C1584 1.509 . S
C1569 C1568 1.397 . S
C1569 C1570 1.412 . S
C1569 C1590 1.485 . S
C1570 C1569 1.412 . S
C1570 C1571 1.388 . S
C1570 C1596 1.490 . S
C1571 C1566 1.397 . S
C1571 C1570 1.388 . S
C1571 C1602 1.519 . S
C1572 C1566 1.492 . S
C1572 C1573 1.363 . S
C1572 C1577 1.390 . S
C1573 H1538 0.930 . S
C1573 C1572 1.363 . S
C1573 C1574 1.372 . S
C1574 H1539 0.930 . S
C1574 C1573 1.372 . S
C1574 C1575 1.383 . S
C1575 C1574 1.383 . S
C1575 C1576 1.395 . S
C1576 H1540 0.930 . S
C1576 C1575 1.395 . S
C1576 C1577 1.362 . S
C1577 H1541 0.930 . S
C1577 C1572 1.390 . S
C1577 C1576 1.362 . S
C1578 C1567 1.492 . S
C1578 C1579 1.377 . S
C1578 C1583 1.397 . S
C1579 H1542 0.931 . S
C1579 C1578 1.377 . S
C1579 C1580 1.376 . S
C1580 H1543 0.930 . S
C1580 C1579 1.376 . S
C1580 C1581 1.376 . S
C1581 C1580 1.376 . S
C1581 C1582 1.378 . S
C1581 C1608 1.486 . S
C1582 H1544 0.930 . S
C1582 C1581 1.378 . S
C1582 C1583 1.376 . S
C1583 H1545 0.929 . S
C1583 C1578 1.397 . S
C1583 C1582 1.376 . S
C1584 C1568 1.509 . S
C1584 C1585 1.391 . S
C1584 C1589 1.386 . S
C1585 H1546 0.930 . S
C1585 C1584 1.391 . S
C1585 C1586 1.375 . S
C1586 H1547 0.931 . S
C1586 C1585 1.375 . S
C1586 C1587 1.375 . S
C1587 C1586 1.375 . S
C1587 C1588 1.361 . S
C1588 H1548 0.930 . S
C1588 C1587 1.361 . S
C1588 C1589 1.399 . S
C1589 H1549 0.929 . S
C1589 C1584 1.386 . S
C1589 C1588 1.399 . S
C1590 C1569 1.485 . S
C1590 C1591 1.394 . S
C1590 C1595 1.360 . S
C1591 H1550 0.931 . S
C1591 C1590 1.394 . S
C1591 C1592 1.372 . S
C1592 H1551 0.930 . S
C1592 C1591 1.372 . S
C1592 C1593 1.397 . S
C1593 C1592 1.397 . S
C1593 C1594 1.390 . S
C1593 C1609 1.476 . S
C1594 H1552 0.930 . S
C1594 C1593 1.390 . S
C1594 C1595 1.366 . S
C1595 H1553 0.932 . S
C1595 C1590 1.360 . S
C1595 C1594 1.366 . S
C1596 C1570 1.490 . S
C1596 C1597 1.380 . S
C1596 C1601 1.386 . S
C1597 H1554 0.930 . S
C1597 C1596 1.380 . S
C1597 C1598 1.381 . S
C1598 H1555 0.929 . S
C1598 C1597 1.381 . S
C1598 C1599 1.371 . S
C1599 C1598 1.371 . S
C1599 C1600 1.380 . S
C1600 H1556 0.931 . S
C1600 C1599 1.380 . S
C1600 C1601 1.387 . S
C1601 H1557 0.930 . S
C1601 C1596 1.386 . S
C1601 C1600 1.387 . S
C1602 C1571 1.519 . S
C1602 C1603 1.377 . S
C1602 C1607 1.361 . S
C1603 H1558 0.929 . S
C1603 C1602 1.377 . S
C1603 C1604 1.386 . S
C1604 H1559 0.931 . S
C1604 C1603 1.386 . S
C1604 C1605 1.363 . S
C1605 C1604 1.363 . S
C1605 C1606 1.385 . S
C1606 H1560 0.930 . S
C1606 C1605 1.385 . S
C1606 C1607 1.396 . S
C1607 H1561 0.929 . S
C1607 C1602 1.361 . S
C1607 C1606 1.396 . S
C1608 O1562 1.300 . S
C1608 O1563 1.209 . S
C1608 C1581 1.486 . S
C1609 O1564 1.199 . S
C1609 O1565 1.297 . S
C1609 C1593 1.476 . S
H1610 O1636 0.856 . S
H1611 O1639 0.854 . S
H1612 C1647 0.930 . S
H1613 C1648 0.930 . S
H1614 C1650 0.930 . S
H1615 C1651 0.930 . S
H1616 C1653 0.931 . S
H1617 C1654 0.930 . S
H1618 C1656 0.930 . S
H1619 C1657 0.929 . S
H1620 C1659 0.930 . S
H1621 C1660 0.931 . S
H1622 C1662 0.930 . S
H1623 C1663 0.929 . S
H1624 C1665 0.931 . S
H1625 C1666 0.930 . S
H1626 C1668 0.930 . S
H1627 C1669 0.932 . S
H1628 C1671 0.930 . S
H1629 C1672 0.929 . S
H1630 C1674 0.931 . S
H1631 C1675 0.930 . S
H1632 C1677 0.929 . S
H1633 C1678 0.931 . S
H1634 C1680 0.930 . S
H1635 C1681 0.929 . S
O1636 H1610 0.856 . S
O1636 C1682 1.300 . S
O1637 C1682 1.209 . S
O1638 C1683 1.199 . S
O1639 H1611 0.854 . S
O1639 C1683 1.297 . S
C1640 C1641 1.404 . S
C1640 C1645 1.397 . S
C1640 C1646 1.492 . S
C1641 C1640 1.404 . S
C1641 C1642 1.396 . S
C1641 C1652 1.492 . S
C1642 C1641 1.396 . S
C1642 C1643 1.397 . S
C1642 C1658 1.509 . S
C1643 C1642 1.397 . S
C1643 C1644 1.412 . S
C1643 C1664 1.485 . S
C1644 C1643 1.412 . S
C1644 C1645 1.388 . S
C1644 C1670 1.490 . S
C1645 C1640 1.397 . S
C1645 C1644 1.388 . S
C1645 C1676 1.519 . S
C1646 C1640 1.492 . S
C1646 C1647 1.363 . S
C1646 C1651 1.390 . S
C1647 H1612 0.930 . S
C1647 C1646 1.363 . S
C1647 C1648 1.372 . S
C1648 H1613 0.930 . S
C1648 C1647 1.372 . S
C1648 C1649 1.383 . S
C1649 C1648 1.383 . S
C1649 C1650 1.395 . S
C1650 H1614 0.930 . S
C1650 C1649 1.395 . S
C1650 C1651 1.362 . S
C1651 H1615 0.930 . S
C1651 C1646 1.390 . S
C1651 C1650 1.362 . S
C1652 C1641 1.492 . S
C1652 C1653 1.377 . S
C1652 C1657 1.397 . S
C1653 H1616 0.931 . S
C1653 C1652 1.377 . S
C1653 C1654 1.376 . S
C1654 H1617 0.930 . S
C1654 C1653 1.376 . S
C1654 C1655 1.376 . S
C1655 C1654 1.376 . S
C1655 C1656 1.378 . S
C1655 C1682 1.486 . S
C1656 H1618 0.930 . S
C1656 C1655 1.378 . S
C1656 C1657 1.376 . S
C1657 H1619 0.929 . S
C1657 C1652 1.397 . S
C1657 C1656 1.376 . S
C1658 C1642 1.509 . S
C1658 C1659 1.391 . S
C1658 C1663 1.386 . S
C1659 H1620 0.930 . S
C1659 C1658 1.391 . S
C1659 C1660 1.375 . S
C1660 H1621 0.931 . S
C1660 C1659 1.375 . S
C1660 C1661 1.375 . S
C1661 C1660 1.375 . S
C1661 C1662 1.361 . S
C1662 H1622 0.930 . S
C1662 C1661 1.361 . S
C1662 C1663 1.399 . S
C1663 H1623 0.929 . S
C1663 C1658 1.386 . S
C1663 C1662 1.399 . S
C1664 C1643 1.485 . S
C1664 C1665 1.394 . S
C1664 C1669 1.360 . S
C1665 H1624 0.931 . S
C1665 C1664 1.394 . S
C1665 C1666 1.372 . S
C1666 H1625 0.930 . S
C1666 C1665 1.372 . S
C1666 C1667 1.397 . S
C1667 C1666 1.397 . S
C1667 C1668 1.390 . S
C1667 C1683 1.476 . S
C1668 H1626 0.930 . S
C1668 C1667 1.390 . S
C1668 C1669 1.366 . S
C1669 H1627 0.932 . S
C1669 C1664 1.360 . S
C1669 C1668 1.366 . S
C1670 C1644 1.490 . S
C1670 C1671 1.380 . S
C1670 C1675 1.386 . S
C1671 H1628 0.930 . S
C1671 C1670 1.380 . S
C1671 C1672 1.381 . S
C1672 H1629 0.929 . S
C1672 C1671 1.381 . S
C1672 C1673 1.371 . S
C1673 C1672 1.371 . S
C1673 C1674 1.380 . S
C1674 H1630 0.931 . S
C1674 C1673 1.380 . S
C1674 C1675 1.387 . S
C1675 H1631 0.930 . S
C1675 C1670 1.386 . S
C1675 C1674 1.387 . S
C1676 C1645 1.519 . S
C1676 C1677 1.377 . S
C1676 C1681 1.361 . S
C1677 H1632 0.929 . S
C1677 C1676 1.377 . S
C1677 C1678 1.386 . S
C1678 H1633 0.931 . S
C1678 C1677 1.386 . S
C1678 C1679 1.363 . S
C1679 C1678 1.363 . S
C1679 C1680 1.385 . S
C1680 H1634 0.930 . S
C1680 C1679 1.385 . S
C1680 C1681 1.396 . S
C1681 H1635 0.929 . S
C1681 C1676 1.361 . S
C1681 C1680 1.396 . S
C1682 O1636 1.300 . S
C1682 O1637 1.209 . S
C1682 C1655 1.486 . S
C1683 O1638 1.199 . S
C1683 O1639 1.297 . S
C1683 C1667 1.476 . S
H1684 O1710 0.856 . S
H1685 O1713 0.854 . S
H1686 C1721 0.930 . S
H1687 C1722 0.930 . S
H1688 C1724 0.930 . S
H1689 C1725 0.930 . S
H1690 C1727 0.931 . S
H1691 C1728 0.930 . S
H1692 C1730 0.930 . S
H1693 C1731 0.929 . S
H1694 C1733 0.930 . S
H1695 C1734 0.931 . S
H1696 C1736 0.930 . S
H1697 C1737 0.929 . S
H1698 C1739 0.931 . S
H1699 C1740 0.930 . S
H1700 C1742 0.930 . S
H1701 C1743 0.932 . S
H1702 C1745 0.930 . S
H1703 C1746 0.929 . S
H1704 C1748 0.931 . S
H1705 C1749 0.930 . S
H1706 C1751 0.929 . S
H1707 C1752 0.931 . S
H1708 C1754 0.930 . S
H1709 C1755 0.929 . S
O1710 H1684 0.856 . S
O1710 C1756 1.300 . S
O1711 C1756 1.209 . S
O1712 C1757 1.199 . S
O1713 H1685 0.854 . S
O1713 C1757 1.297 . S
C1714 C1715 1.404 . S
C1714 C1719 1.397 . S
C1714 C1720 1.492 . S
C1715 C1714 1.404 . S
C1715 C1716 1.396 . S
C1715 C1726 1.492 . S
C1716 C1715 1.396 . S
C1716 C1717 1.397 . S
C1716 C1732 1.509 . S
C1717 C1716 1.397 . S
C1717 C1718 1.412 . S
C1717 C1738 1.485 . S
C1718 C1717 1.412 . S
C1718 C1719 1.388 . S
C1718 C1744 1.490 . S
C1719 C1714 1.397 . S
C1719 C1718 1.388 . S
C1719 C1750 1.519 . S
C1720 C1714 1.492 . S
C1720 C1721 1.363 . S
C1720 C1725 1.390 . S
C1721 H1686 0.930 . S
C1721 C1720 1.363 . S
C1721 C1722 1.372 . S
C1722 H1687 0.930 . S
C1722 C1721 1.372 . S
C1722 C1723 1.383 . S
C1723 C1722 1.383 . S
C1723 C1724 1.395 . S
C1724 H1688 0.930 . S
C1724 C1723 1.395 . S
C1724 C1725 1.362 . S
C1725 H1689 0.930 . S
C1725 C1720 1.390 . S
C1725 C1724 1.362 . S
C1726 C1715 1.492 . S
C1726 C1727 1.377 . S
C1726 C1731 1.397 . S
C1727 H1690 0.931 . S
C1727 C1726 1.377 . S
C1727 C1728 1.376 . S
C1728 H1691 0.930 . S
C1728 C1727 1.376 . S
C1728 C1729 1.376 . S
C1729 C1728 1.376 . S
C1729 C1730 1.378 . S
C1729 C1756 1.486 . S
C1730 H1692 0.930 . S
C1730 C1729 1.378 . S
C1730 C1731 1.376 . S
C1731 H1693 0.929 . S
C1731 C1726 1.397 . S
C1731 C1730 1.376 . S
C1732 C1716 1.509 . S
C1732 C1733 1.391 . S
C1732 C1737 1.386 . S
C1733 H1694 0.930 . S
C1733 C1732 1.391 . S
C1733 C1734 1.375 . S
C1734 H1695 0.931 . S
C1734 C1733 1.375 . S
C1734 C1735 1.375 . S
C1735 C1734 1.375 . S
C1735 C1736 1.361 . S
C1736 H1696 0.930 . S
C1736 C1735 1.361 . S
C1736 C1737 1.399 . S
C1737 H1697 0.929 . S
C1737 C1732 1.386 . S
C1737 C1736 1.399 . S
C1738 C1717 1.485 . S
C1738 C1739 1.394 . S
C1738 C1743 1.360 . S
C1739 H1698 0.931 . S
C1739 C1738 1.394 . S
C1739 C1740 1.372 . S
C1740 H1699 0.930 . S
C1740 C1739 1.372 . S
C1740 C1741 1.397 . S
C1741 C1740 1.397 . S
C1741 C1742 1.390 . S
C1741 C1757 1.476 . S
C1742 H1700 0.930 . S
C1742 C1741 1.390 . S
C1742 C1743 1.366 . S
C1743 H1701 0.932 . S
C1743 C1738 1.360 . S
C1743 C1742 1.366 . S
C1744 C1718 1.490 . S
C1744 C1745 1.380 . S
C1744 C1749 1.386 . S
C1745 H1702 0.930 . S
C1745 C1744 1.380 . S
C1745 C1746 1.381 . S
C1746 H1703 0.929 . S
C1746 C1745 1.381 . S
C1746 C1747 1.371 . S
C1747 C1746 1.371 . S
C1747 C1748 1.380 . S
C1748 H1704 0.931 . S
C1748 C1747 1.380 . S
C1748 C1749 1.387 . S
C1749 H1705 0.930 . S
C1749 C1744 1.386 . S
C1749 C1748 1.387 . S
C1750 C1719 1.519 . S
C1750 C1751 1.377 . S
C1750 C1755 1.361 . S
C1751 H1706 0.929 . S
C1751 C1750 1.377 . S
C1751 C1752 1.386 . S
C1752 H1707 0.931 . S
C1752 C1751 1.386 . S
C1752 C1753 1.363 . S
C1753 C1752 1.363 . S
C1753 C1754 1.385 . S
C1754 H1708 0.930 . S
C1754 C1753 1.385 . S
C1754 C1755 1.396 . S
C1755 H1709 0.929 . S
C1755 C1750 1.361 . S
C1755 C1754 1.396 . S
C1756 O1710 1.300 . S
C1756 O1711 1.209 . S
C1756 C1729 1.486 . S
C1757 O1712 1.199 . S
C1757 O1713 1.297 . S
C1757 C1741 1.476 . S
H1758 O1784 0.856 . S
H1759 O1787 0.854 . S
H1760 C1795 0.930 . S
H1761 C1796 0.930 . S
H1762 C1798 0.930 . S
H1763 C1799 0.930 . S
H1764 C1801 0.931 . S
H1765 C1802 0.930 . S
H1766 C1804 0.930 . S
H1767 C1805 0.929 . S
H1768 C1807 0.930 . S
H1769 C1808 0.931 . S
H1770 C1810 0.930 . S
H1771 C1811 0.929 . S
H1772 C1813 0.931 . S
H1773 C1814 0.930 . S
H1774 C1816 0.930 . S
H1775 C1817 0.932 . S
H1776 C1819 0.930 . S
H1777 C1820 0.929 . S
H1778 C1822 0.931 . S
H1779 C1823 0.930 . S
H1780 C1825 0.929 . S
H1781 C1826 0.931 . S
H1782 C1828 0.930 . S
H1783 C1829 0.929 . S
O1784 H1758 0.856 . S
O1784 C1830 1.300 . S
O1785 C1830 1.209 . S
O1786 C1831 1.199 . S
O1787 H1759 0.854 . S
O1787 C1831 1.297 . S
C1788 C1789 1.404 . S
C1788 C1793 1.397 . S
C1788 C1794 1.492 . S
C1789 C1788 1.404 . S
C1789 C1790 1.396 . S
C1789 C1800 1.492 . S
C1790 C1789 1.396 . S
C1790 C1791 1.397 . S
C1790 C1806 1.509 . S
C1791 C1790 1.397 . S
C1791 C1792 1.412 . S
C1791 C1812 1.485 . S
C1792 C1791 1.412 . S
C1792 C1793 1.388 . S
C1792 C1818 1.490 . S
C1793 C1788 1.397 . S
C1793 C1792 1.388 . S
C1793 C1824 1.519 . S
C1794 C1788 1.492 . S
C1794 C1795 1.363 . S
C1794 C1799 1.390 . S
C1795 H1760 0.930 . S
C1795 C1794 1.363 . S
C1795 C1796 1.372 . S
C1796 H1761 0.930 . S
C1796 C1795 1.372 . S
C1796 C1797 1.383 . S
C1797 C1796 1.383 . S
C1797 C1798 1.395 . S
C1798 H1762 0.930 . S
C1798 C1797 1.395 . S
C1798 C1799 1.362 . S
C1799 H1763 0.930 . S
C1799 C1794 1.390 . S
C1799 C1798 1.362 . S
C1800 C1789 1.492 . S
C1800 C1801 1.377 . S
C1800 C1805 1.397 . S
C1801 H1764 0.931 . S
C1801 C1800 1.377 . S
C1801 C1802 1.376 . S
C1802 H1765 0.930 . S
C1802 C1801 1.376 . S
C1802 C1803 1.376 . S
C1803 C1802 1.376 . S
C1803 C1804 1.378 . S
C1803 C1830 1.486 . S
C1804 H1766 0.930 . S
C1804 C1803 1.378 . S
C1804 C1805 1.376 . S
C1805 H1767 0.929 . S
C1805 C1800 1.397 . S
C1805 C1804 1.376 . S
C1806 C1790 1.509 . S
C1806 C1807 1.391 . S
C1806 C1811 1.386 . S
C1807 H1768 0.930 . S
C1807 C1806 1.391 . S
C1807 C1808 1.375 . S
C1808 H1769 0.931 . S
C1808 C1807 1.375 . S
C1808 C1809 1.375 . S
C1809 C1808 1.375 . S
C1809 C1810 1.361 . S
C1810 H1770 0.930 . S
C1810 C1809 1.361 . S
C1810 C1811 1.399 . S
C1811 H1771 0.929 . S
C1811 C1806 1.386 . S
C1811 C1810 1.399 . S
C1812 C1791 1.485 . S
C1812 C1813 1.394 . S
C1812 C1817 1.360 . S
C1813 H1772 0.931 . S
C1813 C1812 1.394 . S
C1813 C1814 1.372 . S
C1814 H1773 0.930 . S
C1814 C1813 1.372 . S
C1814 C1815 1.397 . S
C1815 C1814 1.397 . S
C1815 C1816 1.390 . S
C1815 C1831 1.476 . S
C1816 H1774 0.930 . S
C1816 C1815 1.390 . S
C1816 C1817 1.366 . S
C1817 H1775 0.932 . S
C1817 C1812 1.360 . S
C1817 C1816 1.366 . S
C1818 C1792 1.490 . S
C1818 C1819 1.380 . S
C1818 C1823 1.386 . S
C1819 H1776 0.930 . S
C1819 C1818 1.380 . S
C1819 C1820 1.381 . S
C1820 H1777 0.929 . S
C1820 C1819 1.381 . S
C1820 C1821 1.371 . S
C1821 C1820 1.371 . S
C1821 C1822 1.380 . S
C1822 H1778 0.931 . S
C1822 C1821 1.380 . S
C1822 C1823 1.387 . S
C1823 H1779 0.930 . S
C1823 C1818 1.386 . S
C1823 C1822 1.387 . S
C1824 C1793 1.519 . S
C1824 C1825 1.377 . S
C1824 C1829 1.361 . S
C1825 H1780 0.929 . S
C1825 C1824 1.377 . S
C1825 C1826 1.386 . S
C1826 H1781 0.931 . S
C1826 C1825 1.386 . S
C1826 C1827 1.363 . S
C1827 C1826 1.363 . S
C1827 C1828 1.385 . S
C1828 H1782 0.930 . S
C1828 C1827 1.385 . S
C1828 C1829 1.396 . S
C1829 H1783 0.929 . S
C1829 C1824 1.361 . S
C1829 C1828 1.396 . S
C1830 O1784 1.300 . S
C1830 O1785 1.209 . S
C1830 C1803 1.486 . S
C1831 O1786 1.199 . S
C1831 O1787 1.297 . S
C1831 C1815 1.476 . S
H1832 O1858 0.856 . S
H1833 O1861 0.854 . S
H1834 C1869 0.930 . S
H1835 C1870 0.930 . S
H1836 C1872 0.930 . S
H1837 C1873 0.930 . S
H1838 C1875 0.931 . S
H1839 C1876 0.930 . S
H1840 C1878 0.930 . S
H1841 C1879 0.929 . S
H1842 C1881 0.930 . S
H1843 C1882 0.931 . S
H1844 C1884 0.930 . S
H1845 C1885 0.929 . S
H1846 C1887 0.931 . S
H1847 C1888 0.930 . S
H1848 C1890 0.930 . S
H1849 C1891 0.932 . S
H1850 C1893 0.930 . S
H1851 C1894 0.929 . S
H1852 C1896 0.931 . S
H1853 C1897 0.930 . S
H1854 C1899 0.929 . S
H1855 C1900 0.931 . S
H1856 C1902 0.930 . S
H1857 C1903 0.929 . S
O1858 H1832 0.856 . S
O1858 C1904 1.300 . S
O1859 C1904 1.209 . S
O1860 C1905 1.199 . S
O1861 H1833 0.854 . S
O1861 C1905 1.297 . S
C1862 C1863 1.404 . S
C1862 C1867 1.397 . S
C1862 C1868 1.492 . S
C1863 C1862 1.404 . S
C1863 C1864 1.396 . S
C1863 C1874 1.492 . S
C1864 C1863 1.396 . S
C1864 C1865 1.397 . S
C1864 C1880 1.509 . S
C1865 C1864 1.397 . S
C1865 C1866 1.412 . S
C1865 C1886 1.485 . S
C1866 C1865 1.412 . S
C1866 C1867 1.388 . S
C1866 C1892 1.490 . S
C1867 C1862 1.397 . S
C1867 C1866 1.388 . S
C1867 C1898 1.519 . S
C1868 C1862 1.492 . S
C1868 C1869 1.363 . S
C1868 C1873 1.390 . S
C1869 H1834 0.930 . S
C1869 C1868 1.363 . S
C1869 C1870 1.372 . S
C1870 H1835 0.930 . S
C1870 C1869 1.372 . S
C1870 C1871 1.383 . S
C1871 C1870 1.383 . S
C1871 C1872 1.395 . S
C1872 H1836 0.930 . S
C1872 C1871 1.395 . S
C1872 C1873 1.362 . S
C1873 H1837 0.930 . S
C1873 C1868 1.390 . S
C1873 C1872 1.362 . S
C1874 C1863 1.492 . S
C1874 C1875 1.377 . S
C1874 C1879 1.397 . S
C1875 H1838 0.931 . S
C1875 C1874 1.377 . S
C1875 C1876 1.376 . S
C1876 H1839 0.930 . S
C1876 C1875 1.376 . S
C1876 C1877 1.376 . S
C1877 C1876 1.376 . S
C1877 C1878 1.378 . S
C1877 C1904 1.486 . S
C1878 H1840 0.930 . S
C1878 C1877 1.378 . S
C1878 C1879 1.376 . S
C1879 H1841 0.929 . S
C1879 C1874 1.397 . S
C1879 C1878 1.376 . S
C1880 C1864 1.509 . S
C1880 C1881 1.391 . S
C1880 C1885 1.386 . S
C1881 H1842 0.930 . S
C1881 C1880 1.391 . S
C1881 C1882 1.375 . S
C1882 H1843 0.931 . S
C1882 C1881 1.375 . S
C1882 C1883 1.375 . S
C1883 C1882 1.375 . S
C1883 C1884 1.361 . S
C1884 H1844 0.930 . S
C1884 C1883 1.361 . S
C1884 C1885 1.399 . S
C1885 H1845 0.929 . S
C1885 C1880 1.386 . S
C1885 C1884 1.399 . S
C1886 C1865 1.485 . S
C1886 C1887 1.394 . S
C1886 C1891 1.360 . S
C1887 H1846 0.931 . S
C1887 C1886 1.394 . S
C1887 C1888 1.372 . S
C1888 H1847 0.930 . S
C1888 C1887 1.372 . S
C1888 C1889 1.397 . S
C1889 C1888 1.397 . S
C1889 C1890 1.390 . S
C1889 C1905 1.476 . S
C1890 H1848 0.930 . S
C1890 C1889 1.390 . S
C1890 C1891 1.366 . S
C1891 H1849 0.932 . S
C1891 C1886 1.360 . S
C1891 C1890 1.366 . S
C1892 C1866 1.490 . S
C1892 C1893 1.380 . S
C1892 C1897 1.386 . S
C1893 H1850 0.930 . S
C1893 C1892 1.380 . S
C1893 C1894 1.381 . S
C1894 H1851 0.929 . S
C1894 C1893 1.381 . S
C1894 C1895 1.371 . S
C1895 C1894 1.371 . S
C1895 C1896 1.380 . S
C1896 H1852 0.931 . S
C1896 C1895 1.380 . S
C1896 C1897 1.387 . S
C1897 H1853 0.930 . S
C1897 C1892 1.386 . S
C1897 C1896 1.387 . S
C1898 C1867 1.519 . S
C1898 C1899 1.377 . S
C1898 C1903 1.361 . S
C1899 H1854 0.929 . S
C1899 C1898 1.377 . S
C1899 C1900 1.386 . S
C1900 H1855 0.931 . S
C1900 C1899 1.386 . S
C1900 C1901 1.363 . S
C1901 C1900 1.363 . S
C1901 C1902 1.385 . S
C1902 H1856 0.930 . S
C1902 C1901 1.385 . S
C1902 C1903 1.396 . S
C1903 H1857 0.929 . S
C1903 C1898 1.361 . S
C1903 C1902 1.396 . S
C1904 O1858 1.300 . S
C1904 O1859 1.209 . S
C1904 C1877 1.486 . S
C1905 O1860 1.199 . S
C1905 O1861 1.297 . S
C1905 C1889 1.476 . S
H1906 O1932 0.856 . S
H1907 O1935 0.854 . S
H1908 C1943 0.930 . S
H1909 C1944 0.930 . S
H1910 C1946 0.930 . S
H1911 C1947 0.930 . S
H1912 C1949 0.931 . S
H1913 C1950 0.930 . S
H1914 C1952 0.930 . S
H1915 C1953 0.929 . S
H1916 C1955 0.930 . S
H1917 C1956 0.931 . S
H1918 C1958 0.930 . S
H1919 C1959 0.929 . S
H1920 C1961 0.931 . S
H1921 C1962 0.930 . S
H1922 C1964 0.930 . S
H1923 C1965 0.932 . S
H1924 C1967 0.930 . S
H1925 C1968 0.929 . S
H1926 C1970 0.931 . S
H1927 C1971 0.930 . S
H1928 C1973 0.929 . S
H1929 C1974 0.931 . S
H1930 C1976 0.930 . S
H1931 C1977 0.929 . S
O1932 H1906 0.856 . S
O1932 C1978 1.300 . S
O1933 C1978 1.209 . S
O1934 C1979 1.199 . S
O1935 H1907 0.854 . S
O1935 C1979 1.297 . S
C1936 C1937 1.404 . S
C1936 C1941 1.397 . S
C1936 C1942 1.492 . S
C1937 C1936 1.404 . S
C1937 C1938 1.396 . S
C1937 C1948 1.492 . S
C1938 C1937 1.396 . S
C1938 C1939 1.397 . S
C1938 C1954 1.509 . S
C1939 C1938 1.397 . S
C1939 C1940 1.412 . S
C1939 C1960 1.485 . S
C1940 C1939 1.412 . S
C1940 C1941 1.388 . S
C1940 C1966 1.490 . S
C1941 C1936 1.397 . S
C1941 C1940 1.388 . S
C1941 C1972 1.519 . S
C1942 C1936 1.492 . S
C1942 C1943 1.363 . S
C1942 C1947 1.390 . S
C1943 H1908 0.930 . S
C1943 C1942 1.363 . S
C1943 C1944 1.372 . S
C1944 H1909 0.930 . S
C1944 C1943 1.372 . S
C1944 C1945 1.383 . S
C1945 C1944 1.383 . S
C1945 C1946 1.395 . S
C1946 H1910 0.930 . S
C1946 C1945 1.395 . S
C1946 C1947 1.362 . S
C1947 H1911 0.930 . S
C1947 C1942 1.390 . S
C1947 C1946 1.362 . S
C1948 C1937 1.492 . S
C1948 C1949 1.377 . S
C1948 C1953 1.397 . S
C1949 H1912 0.931 . S
C1949 C1948 1.377 . S
C1949 C1950 1.376 . S
C1950 H1913 0.930 . S
C1950 C1949 1.376 . S
C1950 C1951 1.376 . S
C1951 C1950 1.376 . S
C1951 C1952 1.378 . S
C1951 C1978 1.486 . S
C1952 H1914 0.930 . S
C1952 C1951 1.378 . S
C1952 C1953 1.376 . S
C1953 H1915 0.929 . S
C1953 C1948 1.397 . S
C1953 C1952 1.376 . S
C1954 C1938 1.509 . S
C1954 C1955 1.391 . S
C1954 C1959 1.386 . S
C1955 H1916 0.930 . S
C1955 C1954 1.391 . S
C1955 C1956 1.375 . S
C1956 H1917 0.931 . S
C1956 C1955 1.375 . S
C1956 C1957 1.375 . S
C1957 C1956 1.375 . S
C1957 C1958 1.361 . S
C1958 H1918 0.930 . S
C1958 C1957 1.361 . S
C1958 C1959 1.399 . S
C1959 H1919 0.929 . S
C1959 C1954 1.386 . S
C1959 C1958 1.399 . S
C1960 C1939 1.485 . S
C1960 C1961 1.394 . S
C1960 C1965 1.360 . S
C1961 H1920 0.931 . S
C1961 C1960 1.394 . S
C1961 C1962 1.372 . S
C1962 H1921 0.930 . S
C1962 C1961 1.372 . S
C1962 C1963 1.397 . S
C1963 C1962 1.397 . S
C1963 C1964 1.390 . S
C1963 C1979 1.476 . S
C1964 H1922 0.930 . S
C1964 C1963 1.390 . S
C1964 C1965 1.366 . S
C1965 H1923 0.932 . S
C1965 C1960 1.360 . S
C1965 C1964 1.366 . S
C1966 C1940 1.490 . S
C1966 C1967 1.380 . S
C1966 C1971 1.386 . S
C1967 H1924 0.930 . S
C1967 C1966 1.380 . S
C1967 C1968 1.381 . S
C1968 H1925 0.929 . S
C1968 C1967 1.381 . S
C1968 C1969 1.371 . S
C1969 C1968 1.371 . S
C1969 C1970 1.380 . S
C1970 H1926 0.931 . S
C1970 C1969 1.380 . S
C1970 C1971 1.387 . S
C1971 H1927 0.930 . S
C1971 C1966 1.386 . S
C1971 C1970 1.387 . S
C1972 C1941 1.519 . S
C1972 C1973 1.377 . S
C1972 C1977 1.361 . S
C1973 H1928 0.929 . S
C1973 C1972 1.377 . S
C1973 C1974 1.386 . S
C1974 H1929 0.931 . S
C1974 C1973 1.386 . S
C1974 C1975 1.363 . S
C1975 C1974 1.363 . S
C1975 C1976 1.385 . S
C1976 H1930 0.930 . S
C1976 C1975 1.385 . S
C1976 C1977 1.396 . S
C1977 H1931 0.929 . S
C1977 C1972 1.361 . S
C1977 C1976 1.396 . S
C1978 O1932 1.300 . S
C1978 O1933 1.209 . S
C1978 C1951 1.486 . S
C1979 O1934 1.199 . S
C1979 O1935 1.297 . S
C1979 C1963 1.476 . S
H1980 O2006 0.856 . S
H1981 O2009 0.854 . S
H1982 C2017 0.930 . S
H1983 C2018 0.930 . S
H1984 C2020 0.930 . S
H1985 C2021 0.930 . S
H1986 C2023 0.931 . S
H1987 C2024 0.930 . S
H1988 C2026 0.930 . S
H1989 C2027 0.929 . S
H1990 C2029 0.930 . S
H1991 C2030 0.931 . S
H1992 C2032 0.930 . S
H1993 C2033 0.929 . S
H1994 C2035 0.931 . S
H1995 C2036 0.930 . S
H1996 C2038 0.930 . S
H1997 C2039 0.932 . S
H1998 C2041 0.930 . S
H1999 C2042 0.929 . S
H2000 C2044 0.931 . S
H2001 C2045 0.930 . S
H2002 C2047 0.929 . S
H2003 C2048 0.931 . S
H2004 C2050 0.930 . S
H2005 C2051 0.929 . S
O2006 H1980 0.856 . S
O2006 C2052 1.300 . S
O2007 C2052 1.209 . S
O2008 C2053 1.199 . S
O2009 H1981 0.854 . S
O2009 C2053 1.297 . S
C2010 C2011 1.404 . S
C2010 C2015 1.397 . S
C2010 C2016 1.492 . S
C2011 C2010 1.404 . S
C2011 C2012 1.396 . S
C2011 C2022 1.492 . S
C2012 C2011 1.396 . S
C2012 C2013 1.397 . S
C2012 C2028 1.509 . S
C2013 C2012 1.397 . S
C2013 C2014 1.412 . S
C2013 C2034 1.485 . S
C2014 C2013 1.412 . S
C2014 C2015 1.388 . S
C2014 C2040 1.490 . S
C2015 C2010 1.397 . S
C2015 C2014 1.388 . S
C2015 C2046 1.519 . S
C2016 C2010 1.492 . S
C2016 C2017 1.363 . S
C2016 C2021 1.390 . S
C2017 H1982 0.930 . S
C2017 C2016 1.363 . S
C2017 C2018 1.372 . S
C2018 H1983 0.930 . S
C2018 C2017 1.372 . S
C2018 C2019 1.383 . S
C2019 C2018 1.383 . S
C2019 C2020 1.395 . S
C2020 H1984 0.930 . S
C2020 C2019 1.395 . S
C2020 C2021 1.362 . S
C2021 H1985 0.930 . S
C2021 C2016 1.390 . S
C2021 C2020 1.362 . S
C2022 C2011 1.492 . S
C2022 C2023 1.377 . S
C2022 C2027 1.397 . S
C2023 H1986 0.931 . S
C2023 C2022 1.377 . S
C2023 C2024 1.376 . S
C2024 H1987 0.930 . S
C2024 C2023 1.376 . S
C2024 C2025 1.376 . S
C2025 C2024 1.376 . S
C2025 C2026 1.378 . S
C2025 C2052 1.486 . S
C2026 H1988 0.930 . S
C2026 C2025 1.378 . S
C2026 C2027 1.376 . S
C2027 H1989 0.929 . S
C2027 C2022 1.397 . S
C2027 C2026 1.376 . S
C2028 C2012 1.509 . S
C2028 C2029 1.391 . S
C2028 C2033 1.386 . S
C2029 H1990 0.930 . S
C2029 C2028 1.391 . S
C2029 C2030 1.375 . S
C2030 H1991 0.931 . S
C2030 C2029 1.375 . S
C2030 C2031 1.375 . S
C2031 C2030 1.375 . S
C2031 C2032 1.361 . S
C2032 H1992 0.930 . S
C2032 C2031 1.361 . S
C2032 C2033 1.399 . S
C2033 H1993 0.929 . S
C2033 C2028 1.386 . S
C2033 C2032 1.399 . S
C2034 C2013 1.485 . S
C2034 C2035 1.394 . S
C2034 C2039 1.360 . S
C2035 H1994 0.931 . S
C2035 C2034 1.394 . S
C2035 C2036 1.372 . S
C2036 H1995 0.930 . S
C2036 C2035 1.372 . S
C2036 C2037 1.397 . S
C2037 C2036 1.397 . S
C2037 C2038 1.390 . S
C2037 C2053 1.476 . S
C2038 H1996 0.930 . S
C2038 C2037 1.390 . S
C2038 C2039 1.366 . S
C2039 H1997 0.932 . S
C2039 C2034 1.360 . S
C2039 C2038 1.366 . S
C2040 C2014 1.490 . S
C2040 C2041 1.380 . S
C2040 C2045 1.386 . S
C2041 H1998 0.930 . S
C2041 C2040 1.380 . S
C2041 C2042 1.381 . S
C2042 H1999 0.929 . S
C2042 C2041 1.381 . S
C2042 C2043 1.371 . S
C2043 C2042 1.371 . S
C2043 C2044 1.380 . S
C2044 H2000 0.931 . S
C2044 C2043 1.380 . S
C2044 C2045 1.387 . S
C2045 H2001 0.930 . S
C2045 C2040 1.386 . S
C2045 C2044 1.387 . S
C2046 C2015 1.519 . S
C2046 C2047 1.377 . S
C2046 C2051 1.361 . S
C2047 H2002 0.929 . S
C2047 C2046 1.377 . S
C2047 C2048 1.386 . S
C2048 H2003 0.931 . S
C2048 C2047 1.386 . S
C2048 C2049 1.363 . S
C2049 C2048 1.363 . S
C2049 C2050 1.385 . S
C2050 H2004 0.930 . S
C2050 C2049 1.385 . S
C2050 C2051 1.396 . S
C2051 H2005 0.929 . S
C2051 C2046 1.361 . S
C2051 C2050 1.396 . S
C2052 O2006 1.300 . S
C2052 O2007 1.209 . S
C2052 C2025 1.486 . S
C2053 O2008 1.199 . S
C2053 O2009 1.297 . S
C2053 C2037 1.476 . S
H2054 O2080 0.856 . S
H2055 O2083 0.854 . S
H2056 C2091 0.930 . S
H2057 C2092 0.930 . S
H2058 C2094 0.930 . S
H2059 C2095 0.930 . S
H2060 C2097 0.931 . S
H2061 C2098 0.930 . S
H2062 C2100 0.930 . S
H2063 C2101 0.929 . S
H2064 C2103 0.930 . S
H2065 C2104 0.931 . S
H2066 C2106 0.930 . S
H2067 C2107 0.929 . S
H2068 C2109 0.931 . S
H2069 C2110 0.930 . S
H2070 C2112 0.930 . S
H2071 C2113 0.932 . S
H2072 C2115 0.930 . S
H2073 C2116 0.929 . S
H2074 C2118 0.931 . S
H2075 C2119 0.930 . S
H2076 C2121 0.929 . S
H2077 C2122 0.931 . S
H2078 C2124 0.930 . S
H2079 C2125 0.929 . S
O2080 H2054 0.856 . S
O2080 C2126 1.300 . S
O2081 C2126 1.209 . S
O2082 C2127 1.199 . S
O2083 H2055 0.854 . S
O2083 C2127 1.297 . S
C2084 C2085 1.404 . S
C2084 C2089 1.397 . S
C2084 C2090 1.492 . S
C2085 C2084 1.404 . S
C2085 C2086 1.396 . S
C2085 C2096 1.492 . S
C2086 C2085 1.396 . S
C2086 C2087 1.397 . S
C2086 C2102 1.509 . S
C2087 C2086 1.397 . S
C2087 C2088 1.412 . S
C2087 C2108 1.485 . S
C2088 C2087 1.412 . S
C2088 C2089 1.388 . S
C2088 C2114 1.490 . S
C2089 C2084 1.397 . S
C2089 C2088 1.388 . S
C2089 C2120 1.519 . S
C2090 C2084 1.492 . S
C2090 C2091 1.363 . S
C2090 C2095 1.390 . S
C2091 H2056 0.930 . S
C2091 C2090 1.363 . S
C2091 C2092 1.372 . S
C2092 H2057 0.930 . S
C2092 C2091 1.372 . S
C2092 C2093 1.383 . S
C2093 C2092 1.383 . S
C2093 C2094 1.395 . S
C2094 H2058 0.930 . S
C2094 C2093 1.395 . S
C2094 C2095 1.362 . S
C2095 H2059 0.930 . S
C2095 C2090 1.390 . S
C2095 C2094 1.362 . S
C2096 C2085 1.492 . S
C2096 C2097 1.377 . S
C2096 C2101 1.397 . S
C2097 H2060 0.931 . S
C2097 C2096 1.377 . S
C2097 C2098 1.376 . S
C2098 H2061 0.930 . S
C2098 C2097 1.376 . S
C2098 C2099 1.376 . S
C2099 C2098 1.376 . S
C2099 C2100 1.378 . S
C2099 C2126 1.486 . S
C2100 H2062 0.930 . S
C2100 C2099 1.378 . S
C2100 C2101 1.376 . S
C2101 H2063 0.929 . S
C2101 C2096 1.397 . S
C2101 C2100 1.376 . S
C2102 C2086 1.509 . S
C2102 C2103 1.391 . S
C2102 C2107 1.386 . S
C2103 H2064 0.930 . S
C2103 C2102 1.391 . S
C2103 C2104 1.375 . S
C2104 H2065 0.931 . S
C2104 C2103 1.375 . S
C2104 C2105 1.375 . S
C2105 C2104 1.375 . S
C2105 C2106 1.361 . S
C2106 H2066 0.930 . S
C2106 C2105 1.361 . S
C2106 C2107 1.399 . S
C2107 H2067 0.929 . S
C2107 C2102 1.386 . S
C2107 C2106 1.399 . S
C2108 C2087 1.485 . S
C2108 C2109 1.394 . S
C2108 C2113 1.360 . S
C2109 H2068 0.931 . S
C2109 C2108 1.394 . S
C2109 C2110 1.372 . S
C2110 H2069 0.930 . S
C2110 C2109 1.372 . S
C2110 C2111 1.397 . S
C2111 C2110 1.397 . S
C2111 C2112 1.390 . S
C2111 C2127 1.476 . S
C2112 H2070 0.930 . S
C2112 C2111 1.390 . S
C2112 C2113 1.366 . S
C2113 H2071 0.932 . S
C2113 C2108 1.360 . S
C2113 C2112 1.366 . S
C2114 C2088 1.490 . S
C2114 C2115 1.380 . S
C2114 C2119 1.386 . S
C2115 H2072 0.930 . S
C2115 C2114 1.380 . S
C2115 C2116 1.381 . S
C2116 H2073 0.929 . S
C2116 C2115 1.381 . S
C2116 C2117 1.371 . S
C2117 C2116 1.371 . S
C2117 C2118 1.380 . S
C2118 H2074 0.931 . S
C2118 C2117 1.380 . S
C2118 C2119 1.387 . S
C2119 H2075 0.930 . S
C2119 C2114 1.386 . S
C2119 C2118 1.387 . S
C2120 C2089 1.519 . S
C2120 C2121 1.377 . S
C2120 C2125 1.361 . S
C2121 H2076 0.929 . S
C2121 C2120 1.377 . S
C2121 C2122 1.386 . S
C2122 H2077 0.931 . S
C2122 C2121 1.386 . S
C2122 C2123 1.363 . S
C2123 C2122 1.363 . S
C2123 C2124 1.385 . S
C2124 H2078 0.930 . S
C2124 C2123 1.385 . S
C2124 C2125 1.396 . S
C2125 H2079 0.929 . S
C2125 C2120 1.361 . S
C2125 C2124 1.396 . S
C2126 O2080 1.300 . S
C2126 O2081 1.209 . S
C2126 C2099 1.486 . S
C2127 O2082 1.199 . S
C2127 O2083 1.297 . S
C2127 C2111 1.476 . S
H2128 C2134 0.930 . S
H2129 C2137 0.930 . S
H2130 C2138 0.930 . S
H2131 C2139 0.930 . S
H2132 C2142 0.930 . S
H2133 C2143 0.930 . S
C2134 H2128 0.930 . S
C2134 C2135 1.355 . S
C2134 C2136 1.415 . S
C2135 C2134 1.355 . S
C2135 C2137 1.419 . S
C2136 C2134 1.415 . S
C2136 C2141 1.425 . S
C2136 C2143 1.409 . S
C2137 H2129 0.930 . S
C2137 C2135 1.419 . S
C2137 C2138 1.362 . S
C2138 H2130 0.930 . S
C2138 C2137 1.362 . S
C2138 C2141 1.409 . S
C2139 H2131 0.930 . S
C2139 C2140 1.355 . S
C2139 C2141 1.415 . S
C2140 C2139 1.355 . S
C2140 C2142 1.419 . S
C2141 C2136 1.425 . S
C2141 C2138 1.409 . S
C2141 C2139 1.415 . S
C2142 H2132 0.930 . S
C2142 C2140 1.419 . S
C2142 C2143 1.362 . S
C2143 H2133 0.930 . S
C2143 C2136 1.409 . S
C2143 C2142 1.362 . S
H2144 C2150 0.930 . S
H2145 C2153 0.930 . S
H2146 C2154 0.930 . S
H2147 C2155 0.930 . S
H2148 C2158 0.930 . S
H2149 C2159 0.930 . S
C2150 H2144 0.930 . S
C2150 C2151 1.355 . S
C2150 C2152 1.415 . S
C2151 C2150 1.355 . S
C2151 C2153 1.419 . S
C2152 C2150 1.415 . S
C2152 C2157 1.425 . S
C2152 C2159 1.409 . S
C2153 H2145 0.930 . S
C2153 C2151 1.419 . S
C2153 C2154 1.362 . S
C2154 H2146 0.930 . S
C2154 C2153 1.362 . S
C2154 C2157 1.409 . S
C2155 H2147 0.930 . S
C2155 C2156 1.355 . S
C2155 C2157 1.415 . S
C2156 C2155 1.355 . S
C2156 C2158 1.419 . S
C2157 C2152 1.425 . S
C2157 C2154 1.409 . S
C2157 C2155 1.415 . S
C2158 H2148 0.930 . S
C2158 C2156 1.419 . S
C2158 C2159 1.362 . S
C2159 H2149 0.930 . S
C2159 C2152 1.409 . S
C2159 C2158 1.362 . S
H2160 C2166 0.930 . S
H2161 C2169 0.930 . S
H2162 C2170 0.930 . S
H2163 C2171 0.930 . S
H2164 C2174 0.930 . S
H2165 C2175 0.930 . S
C2166 H2160 0.930 . S
C2166 C2167 1.355 . S
C2166 C2168 1.415 . S
C2167 C2166 1.355 . S
C2167 C2169 1.419 . S
C2168 C2166 1.415 . S
C2168 C2173 1.425 . S
C2168 C2175 1.409 . S
C2169 H2161 0.930 . S
C2169 C2167 1.419 . S
C2169 C2170 1.362 . S
C2170 H2162 0.930 . S
C2170 C2169 1.362 . S
C2170 C2173 1.409 . S
C2171 H2163 0.930 . S
C2171 C2172 1.355 . S
C2171 C2173 1.415 . S
C2172 C2171 1.355 . S
C2172 C2174 1.419 . S
C2173 C2168 1.425 . S
C2173 C2170 1.409 . S
C2173 C2171 1.415 . S
C2174 H2164 0.930 . S
C2174 C2172 1.419 . S
C2174 C2175 1.362 . S
C2175 H2165 0.930 . S
C2175 C2168 1.409 . S
C2175 C2174 1.362 . S
H2176 C2182 0.930 . S
H2177 C2185 0.930 . S
H2178 C2186 0.930 . S
H2179 C2187 0.930 . S
H2180 C2190 0.930 . S
H2181 C2191 0.930 . S
C2182 H2176 0.930 . S
C2182 C2183 1.355 . S
C2182 C2184 1.415 . S
C2183 C2182 1.355 . S
C2183 C2185 1.419 . S
C2184 C2182 1.415 . S
C2184 C2189 1.425 . S
C2184 C2191 1.409 . S
C2185 H2177 0.930 . S
C2185 C2183 1.419 . S
C2185 C2186 1.362 . S
C2186 H2178 0.930 . S
C2186 C2185 1.362 . S
C2186 C2189 1.409 . S
C2187 H2179 0.930 . S
C2187 C2188 1.355 . S
C2187 C2189 1.415 . S
C2188 C2187 1.355 . S
C2188 C2190 1.419 . S
C2189 C2184 1.425 . S
C2189 C2186 1.409 . S
C2189 C2187 1.415 . S
C2190 H2180 0.930 . S
C2190 C2188 1.419 . S
C2190 C2191 1.362 . S
C2191 H2181 0.930 . S
C2191 C2184 1.409 . S
C2191 C2190 1.362 . S
H2192 C2198 0.930 . S
H2193 C2201 0.930 . S
H2194 C2202 0.930 . S
H2195 C2203 0.930 . S
H2196 C2206 0.930 . S
H2197 C2207 0.930 . S
C2198 H2192 0.930 . S
C2198 C2199 1.355 . S
C2198 C2200 1.415 . S
C2199 C2198 1.355 . S
C2199 C2201 1.419 . S
C2200 C2198 1.415 . S
C2200 C2205 1.425 . S
C2200 C2207 1.409 . S
C2201 H2193 0.930 . S
C2201 C2199 1.419 . S
C2201 C2202 1.362 . S
C2202 H2194 0.930 . S
C2202 C2201 1.362 . S
C2202 C2205 1.409 . S
C2203 H2195 0.930 . S
C2203 C2204 1.355 . S
C2203 C2205 1.415 . S
C2204 C2203 1.355 . S
C2204 C2206 1.419 . S
C2205 C2200 1.425 . S
C2205 C2202 1.409 . S
C2205 C2203 1.415 . S
C2206 H2196 0.930 . S
C2206 C2204 1.419 . S
C2206 C2207 1.362 . S
C2207 H2197 0.930 . S
C2207 C2200 1.409 . S
C2207 C2206 1.362 . S
H2208 C2214 0.930 . S
H2209 C2217 0.930 . S
H2210 C2218 0.930 . S
H2211 C2219 0.930 . S
H2212 C2222 0.930 . S
H2213 C2223 0.930 . S
C2214 H2208 0.930 . S
C2214 C2215 1.355 . S
C2214 C2216 1.415 . S
C2215 C2214 1.355 . S
C2215 C2217 1.419 . S
C2216 C2214 1.415 . S
C2216 C2221 1.425 . S
C2216 C2223 1.409 . S
C2217 H2209 0.930 . S
C2217 C2215 1.419 . S
C2217 C2218 1.362 . S
C2218 H2210 0.930 . S
C2218 C2217 1.362 . S
C2218 C2221 1.409 . S
C2219 H2211 0.930 . S
C2219 C2220 1.355 . S
C2219 C2221 1.415 . S
C2220 C2219 1.355 . S
C2220 C2222 1.419 . S
C2221 C2216 1.425 . S
C2221 C2218 1.409 . S
C2221 C2219 1.415 . S
C2222 H2212 0.930 . S
C2222 C2220 1.419 . S
C2222 C2223 1.362 . S
C2223 H2213 0.930 . S
C2223 C2216 1.409 . S
C2223 C2222 1.362 . S
H2224 C2230 0.930 . S
H2225 C2233 0.930 . S
H2226 C2234 0.930 . S
H2227 C2235 0.930 . S
H2228 C2238 0.930 . S
H2229 C2239 0.930 . S
C2230 H2224 0.930 . S
C2230 C2231 1.355 . S
C2230 C2232 1.415 . S
C2231 C2230 1.355 . S
C2231 C2233 1.419 . S
C2232 C2230 1.415 . S
C2232 C2237 1.425 . S
C2232 C2239 1.409 . S
C2233 H2225 0.930 . S
C2233 C2231 1.419 . S
C2233 C2234 1.362 . S
C2234 H2226 0.930 . S
C2234 C2233 1.362 . S
C2234 C2237 1.409 . S
C2235 H2227 0.930 . S
C2235 C2236 1.355 . S
C2235 C2237 1.415 . S
C2236 C2235 1.355 . S
C2236 C2238 1.419 . S
C2237 C2232 1.425 . S
C2237 C2234 1.409 . S
C2237 C2235 1.415 . S
C2238 H2228 0.930 . S
C2238 C2236 1.419 . S
C2238 C2239 1.362 . S
C2239 H2229 0.930 . S
C2239 C2232 1.409 . S
C2239 C2238 1.362 . S
H2240 C2246 0.930 . S
H2241 C2249 0.930 . S
H2242 C2250 0.930 . S
H2243 C2251 0.930 1_554 S
H2244 C2254 0.930 . S
H2245 C2255 0.930 . S
C2246 H2240 0.930 . S
C2246 C2247 1.355 . S
C2246 C2248 1.415 . S
C2247 C2246 1.355 . S
C2247 C2249 1.419 . S
C2248 C2246 1.415 . S
C2248 C2253 1.425 . S
C2248 C2255 1.409 . S
C2249 H2241 0.930 . S
C2249 C2247 1.419 . S
C2249 C2250 1.362 . S
C2250 H2242 0.930 . S
C2250 C2249 1.362 . S
C2250 C2253 1.409 . S
C2251 H2243 0.930 1_556 S
C2251 C2252 1.355 . S
C2251 C2253 1.415 . S
C2252 C2251 1.355 . S
C2252 C2254 1.419 . S
C2253 C2248 1.425 . S
C2253 C2250 1.409 . S
C2253 C2251 1.415 . S
C2254 H2244 0.930 . S
C2254 C2252 1.419 . S
C2254 C2255 1.362 . S
C2255 H2245 0.930 . S
C2255 C2248 1.409 . S
C2255 C2254 1.362 . S
H2256 C2262 0.930 . S
H2257 C2265 0.930 . S
H2258 C2266 0.930 . S
H2259 C2267 0.930 . S
H2260 C2270 0.930 . S
H2261 C2271 0.930 . S
C2262 H2256 0.930 . S
C2262 C2263 1.355 . S
C2262 C2264 1.415 . S
C2263 C2262 1.355 . S
C2263 C2265 1.419 . S
C2264 C2262 1.415 . S
C2264 C2269 1.425 . S
C2264 C2271 1.409 . S
C2265 H2257 0.930 . S
C2265 C2263 1.419 . S
C2265 C2266 1.362 . S
C2266 H2258 0.930 . S
C2266 C2265 1.362 . S
C2266 C2269 1.409 . S
C2267 H2259 0.930 . S
C2267 C2268 1.355 . S
C2267 C2269 1.415 . S
C2268 C2267 1.355 . S
C2268 C2270 1.419 . S
C2269 C2264 1.425 . S
C2269 C2266 1.409 . S
C2269 C2267 1.415 . S
C2270 H2260 0.930 . S
C2270 C2268 1.419 . S
C2270 C2271 1.362 . S
C2271 H2261 0.930 . S
C2271 C2264 1.409 . S
C2271 C2270 1.362 . S
H2272 C2278 0.930 . S
H2273 C2281 0.930 . S
H2274 C2282 0.930 . S
H2275 C2283 0.930 . S
H2276 C2286 0.930 . S
H2277 C2287 0.930 . S
C2278 H2272 0.930 . S
C2278 C2279 1.355 . S
C2278 C2280 1.415 . S
C2279 C2278 1.355 . S
C2279 C2281 1.419 . S
C2280 C2278 1.415 . S
C2280 C2285 1.425 . S
C2280 C2287 1.409 . S
C2281 H2273 0.930 . S
C2281 C2279 1.419 . S
C2281 C2282 1.362 . S
C2282 H2274 0.930 . S
C2282 C2281 1.362 . S
C2282 C2285 1.409 . S
C2283 H2275 0.930 . S
C2283 C2284 1.355 . S
C2283 C2285 1.415 . S
C2284 C2283 1.355 . S
C2284 C2286 1.419 . S
C2285 C2280 1.425 . S
C2285 C2282 1.409 . S
C2285 C2283 1.415 . S
C2286 H2276 0.930 . S
C2286 C2284 1.419 . S
C2286 C2287 1.362 . S
C2287 H2277 0.930 . S
C2287 C2280 1.409 . S
C2287 C2286 1.362 . S
H2288 C2294 0.930 . S
H2289 C2297 0.930 . S
H2290 C2298 0.930 . S
H2291 C2299 0.930 . S
H2292 C2302 0.930 . S
H2293 C2303 0.930 . S
C2294 H2288 0.930 . S
C2294 C2295 1.355 . S
C2294 C2296 1.415 . S
C2295 C2294 1.355 . S
C2295 C2297 1.419 . S
C2296 C2294 1.415 . S
C2296 C2301 1.425 . S
C2296 C2303 1.409 . S
C2297 H2289 0.930 . S
C2297 C2295 1.419 . S
C2297 C2298 1.362 . S
C2298 H2290 0.930 . S
C2298 C2297 1.362 . S
C2298 C2301 1.409 . S
C2299 H2291 0.930 . S
C2299 C2300 1.354 . S
C2299 C2301 1.415 1_455 S
C2300 C2299 1.354 . S
C2300 C2302 1.391 1_455 S
C2301 C2296 1.425 . S
C2301 C2298 1.409 . S
C2301 C2299 1.415 1_655 S
C2302 H2292 0.930 . S
C2302 C2300 1.391 1_655 S
C2302 C2303 1.362 . S
C2303 H2293 0.930 . S
C2303 C2296 1.409 . S
C2303 C2302 1.362 . S
H2304 C2310 0.930 . S
H2305 C2313 0.930 . S
H2306 C2314 0.930 . S
H2307 C2315 0.930 . S
H2308 C2318 0.930 . S
H2309 C2319 0.930 . S
C2310 H2304 0.930 . S
C2310 C2311 1.355 . S
C2310 C2312 1.415 . S
C2311 C2310 1.355 . S
C2311 C2313 1.419 . S
C2312 C2310 1.415 . S
C2312 C2317 1.425 . S
C2312 C2319 1.409 . S
C2313 H2305 0.930 . S
C2313 C2311 1.419 . S
C2313 C2314 1.362 . S
C2314 H2306 0.930 . S
C2314 C2313 1.362 . S
C2314 C2317 1.409 . S
C2315 H2307 0.930 . S
C2315 C2316 1.355 . S
C2315 C2317 1.415 . S
C2316 C2315 1.355 . S
C2316 C2318 1.419 . S
C2317 C2312 1.425 . S
C2317 C2314 1.409 . S
C2317 C2315 1.415 . S
C2318 H2308 0.930 . S
C2318 C2316 1.419 . S
C2318 C2319 1.362 . S
C2319 H2309 0.930 . S
C2319 C2312 1.409 . S
C2319 C2318 1.362 . S
H2320 C2326 0.930 . S
H2321 C2329 0.930 . S
H2322 C2330 0.930 . S
H2323 C2331 0.930 . S
H2324 C2334 0.930 . S
H2325 C2335 0.930 . S
C2326 H2320 0.930 . S
C2326 C2327 1.355 . S
C2326 C2328 1.415 . S
C2327 C2326 1.355 . S
C2327 C2329 1.419 . S
C2328 C2326 1.415 . S
C2328 C2333 1.425 . S
C2328 C2335 1.409 . S
C2329 H2321 0.930 . S
C2329 C2327 1.419 . S
C2329 C2330 1.362 . S
C2330 H2322 0.930 . S
C2330 C2329 1.362 . S
C2330 C2333 1.409 . S
C2331 H2323 0.930 . S
C2331 C2332 1.355 . S
C2331 C2333 1.415 . S
C2332 C2331 1.355 . S
C2332 C2334 1.419 . S
C2333 C2328 1.425 . S
C2333 C2330 1.409 . S
C2333 C2331 1.415 . S
C2334 H2324 0.930 . S
C2334 C2332 1.419 . S
C2334 C2335 1.362 . S
C2335 H2325 0.930 . S
C2335 C2328 1.409 . S
C2335 C2334 1.362 . S
H2336 C2342 0.930 . S
H2337 C2345 0.930 . S
H2338 C2346 0.930 . S
H2339 C2347 0.930 . S
H2340 C2350 0.930 . S
H2341 C2351 0.930 . S
C2342 H2336 0.930 . S
C2342 C2343 1.355 . S
C2342 C2344 1.415 . S
C2343 C2342 1.355 . S
C2343 C2345 1.419 . S
C2344 C2342 1.415 . S
C2344 C2349 1.425 . S
C2344 C2351 1.409 . S
C2345 H2337 0.930 . S
C2345 C2343 1.419 . S
C2345 C2346 1.362 . S
C2346 H2338 0.930 . S
C2346 C2345 1.362 . S
C2346 C2349 1.409 . S
C2347 H2339 0.930 . S
C2347 C2348 1.355 . S
C2347 C2349 1.415 . S
C2348 C2347 1.355 . S
C2348 C2350 1.419 . S
C2349 C2344 1.425 . S
C2349 C2346 1.409 . S
C2349 C2347 1.415 . S
C2350 H2340 0.930 . S
C2350 C2348 1.419 . S
C2350 C2351 1.362 . S
C2351 H2341 0.930 . S
C2351 C2344 1.409 . S
C2351 C2350 1.362 . S
H2352 C2358 0.930 . S
H2353 C2361 0.930 . S
H2354 C2362 0.930 . S
H2355 C2363 0.930 . S
H2356 C2366 0.930 . S
H2357 C2367 0.930 . S
C2358 H2352 0.930 . S
C2358 C2359 1.355 . S
C2358 C2360 1.415 . S
C2359 C2358 1.355 . S
C2359 C2361 1.419 . S
C2360 C2358 1.415 . S
C2360 C2365 1.425 . S
C2360 C2367 1.409 . S
C2361 H2353 0.930 . S
C2361 C2359 1.419 . S
C2361 C2362 1.362 . S
C2362 H2354 0.930 . S
C2362 C2361 1.362 . S
C2362 C2365 1.409 . S
C2363 H2355 0.930 . S
C2363 C2364 1.355 . S
C2363 C2365 1.415 . S
C2364 C2363 1.355 . S
C2364 C2366 1.419 . S
C2365 C2360 1.425 . S
C2365 C2362 1.409 . S
C2365 C2363 1.415 . S
C2366 H2356 0.930 . S
C2366 C2364 1.419 . S
C2366 C2367 1.362 . S
C2367 H2357 0.930 . S
C2367 C2360 1.409 . S
C2367 C2366 1.362 . S
H2368 C2374 0.930 . S
H2369 C2377 0.930 . S
H2370 C2378 0.930 . S
H2371 C2379 0.930 . S
H2372 C2382 0.930 . S
H2373 C2383 0.930 . S
C2374 H2368 0.930 . S
C2374 C2375 1.355 . S
C2374 C2376 1.415 . S
C2375 C2374 1.355 . S
C2375 C2377 1.419 . S
C2376 C2374 1.415 . S
C2376 C2381 1.425 . S
C2376 C2383 1.409 . S
C2377 H2369 0.930 . S
C2377 C2375 1.419 . S
C2377 C2378 1.362 . S
C2378 H2370 0.930 . S
C2378 C2377 1.362 . S
C2378 C2381 1.409 . S
C2379 H2371 0.930 . S
C2379 C2380 1.355 . S
C2379 C2381 1.415 . S
C2380 C2379 1.355 . S
C2380 C2382 1.419 . S
C2381 C2376 1.425 . S
C2381 C2378 1.409 . S
C2381 C2379 1.415 . S
C2382 H2372 0.930 . S
C2382 C2380 1.419 . S
C2382 C2383 1.362 . S
C2383 H2373 0.930 . S
C2383 C2376 1.409 . S
C2383 C2382 1.362 . S
H2384 C2390 0.930 . S
H2385 C2393 0.930 . S
H2386 C2394 0.930 . S
H2387 C2395 0.930 . S
H2388 C2398 0.930 . S
H2389 C2399 0.930 . S
C2390 H2384 0.930 . S
C2390 C2391 1.355 . S
C2390 C2392 1.415 . S
C2391 C2390 1.355 . S
C2391 C2393 1.419 . S
C2392 C2390 1.415 . S
C2392 C2397 1.425 . S
C2392 C2399 1.409 . S
C2393 H2385 0.930 . S
C2393 C2391 1.419 . S
C2393 C2394 1.362 . S
C2394 H2386 0.930 . S
C2394 C2393 1.362 . S
C2394 C2397 1.409 . S
C2395 H2387 0.930 . S
C2395 C2396 1.355 . S
C2395 C2397 1.415 . S
C2396 C2395 1.355 . S
C2396 C2398 1.419 . S
C2397 C2392 1.425 . S
C2397 C2394 1.409 . S
C2397 C2395 1.415 . S
C2398 H2388 0.930 . S
C2398 C2396 1.419 . S
C2398 C2399 1.362 . S
C2399 H2389 0.930 . S
C2399 C2392 1.409 . S
C2399 C2398 1.362 . S
H2400 C2406 0.930 . S
H2401 C2409 0.930 . S
H2402 C2410 0.930 . S
H2403 C2411 0.930 . S
H2404 C2414 0.930 . S
H2405 C2415 0.930 . S
C2406 H2400 0.930 . S
C2406 C2407 1.355 . S
C2406 C2408 1.415 . S
C2407 C2406 1.355 . S
C2407 C2409 1.419 . S
C2408 C2406 1.415 . S
C2408 C2413 1.425 . S
C2408 C2415 1.409 . S
C2409 H2401 0.930 . S
C2409 C2407 1.419 . S
C2409 C2410 1.362 . S
C2410 H2402 0.930 . S
C2410 C2409 1.362 . S
C2410 C2413 1.409 . S
C2411 H2403 0.930 . S
C2411 C2412 1.355 . S
C2411 C2413 1.415 . S
C2412 C2411 1.355 . S
C2412 C2414 1.419 . S
C2413 C2408 1.425 . S
C2413 C2410 1.409 . S
C2413 C2411 1.415 . S
C2414 H2404 0.930 . S
C2414 C2412 1.419 . S
C2414 C2415 1.362 . S
C2415 H2405 0.930 . S
C2415 C2408 1.409 . S
C2415 C2414 1.362 . S
H2416 C2422 0.930 . S
H2417 C2425 0.930 . S
H2418 C2426 0.930 . S
H2419 C2427 0.930 . S
H2420 C2430 0.930 . S
H2421 C2431 0.930 . S
C2422 H2416 0.930 . S
C2422 C2423 1.355 . S
C2422 C2424 1.415 . S
C2423 C2422 1.355 . S
C2423 C2425 1.419 . S
C2424 C2422 1.415 . S
C2424 C2429 1.425 . S
C2424 C2431 1.409 . S
C2425 H2417 0.930 . S
C2425 C2423 1.419 . S
C2425 C2426 1.362 . S
C2426 H2418 0.930 . S
C2426 C2425 1.362 . S
C2426 C2429 1.409 . S
C2427 H2419 0.930 . S
C2427 C2428 1.355 . S
C2427 C2429 1.415 . S
C2428 C2427 1.355 . S
C2428 C2430 1.419 . S
C2429 C2424 1.425 . S
C2429 C2426 1.409 . S
C2429 C2427 1.415 . S
C2430 H2420 0.930 . S
C2430 C2428 1.419 . S
C2430 C2431 1.362 . S
C2431 H2421 0.930 . S
C2431 C2424 1.409 . S
C2431 C2430 1.362 . S
H2432 C2438 0.930 . S
H2433 C2441 0.930 . S
H2434 C2442 0.930 . S
H2435 C2443 0.930 . S
H2436 C2446 0.930 . S
H2437 C2447 0.930 . S
C2438 H2432 0.930 . S
C2438 C2439 1.355 . S
C2438 C2440 1.415 . S
C2439 C2438 1.355 . S
C2439 C2441 1.419 . S
C2440 C2438 1.415 . S
C2440 C2445 1.425 . S
C2440 C2447 1.409 . S
C2441 H2433 0.930 . S
C2441 C2439 1.419 . S
C2441 C2442 1.362 . S
C2442 H2434 0.930 . S
C2442 C2441 1.362 . S
C2442 C2445 1.409 . S
C2443 H2435 0.930 . S
C2443 C2444 1.355 . S
C2443 C2445 1.415 . S
C2444 C2443 1.355 . S
C2444 C2446 1.419 . S
C2445 C2440 1.425 . S
C2445 C2442 1.409 . S
C2445 C2443 1.415 . S
C2446 H2436 0.930 . S
C2446 C2444 1.419 . S
C2446 C2447 1.362 . S
C2447 H2437 0.930 . S
C2447 C2440 1.409 . S
C2447 C2446 1.362 . S
H2448 C2454 0.930 . S
H2449 C2457 0.930 . S
H2450 C2458 0.930 . S
H2451 C2459 0.930 . S
H2452 C2462 0.930 . S
H2453 C2463 0.930 . S
C2454 H2448 0.930 . S
C2454 C2455 1.355 . S
C2454 C2456 1.415 . S
C2455 C2454 1.355 . S
C2455 C2457 1.419 . S
C2456 C2454 1.415 . S
C2456 C2461 1.425 . S
C2456 C2463 1.409 . S
C2457 H2449 0.930 . S
C2457 C2455 1.419 . S
C2457 C2458 1.362 . S
C2458 H2450 0.930 . S
C2458 C2457 1.362 . S
C2458 C2461 1.409 . S
C2459 H2451 0.930 . S
C2459 C2460 1.355 . S
C2459 C2461 1.415 . S
C2460 C2459 1.355 . S
C2460 C2462 1.419 . S
C2461 C2456 1.425 . S
C2461 C2458 1.409 . S
C2461 C2459 1.415 . S
C2462 H2452 0.930 . S
C2462 C2460 1.419 . S
C2462 C2463 1.362 . S
C2463 H2453 0.930 . S
C2463 C2456 1.409 . S
C2463 C2462 1.362 . S
H2464 C2470 0.930 . S
H2465 C2473 0.930 . S
H2466 C2474 0.930 . S
H2467 C2475 0.930 . S
H2468 C2478 0.930 . S
H2469 C2479 0.930 . S
C2470 H2464 0.930 . S
C2470 C2471 1.355 . S
C2470 C2472 1.415 . S
C2471 C2470 1.355 . S
C2471 C2473 1.419 . S
C2472 C2470 1.415 . S
C2472 C2477 1.425 . S
C2472 C2479 1.409 . S
C2473 H2465 0.930 . S
C2473 C2471 1.419 . S
C2473 C2474 1.362 . S
C2474 H2466 0.930 . S
C2474 C2473 1.362 . S
C2474 C2477 1.409 . S
C2475 H2467 0.930 . S
C2475 C2476 1.355 . S
C2475 C2477 1.415 . S
C2476 C2475 1.355 . S
C2476 C2478 1.419 . S
C2477 C2472 1.425 . S
C2477 C2474 1.409 . S
C2477 C2475 1.415 . S
C2478 H2468 0.930 . S
C2478 C2476 1.419 . S
C2478 C2479 1.362 . S
C2479 H2469 0.930 . S
C2479 C2472 1.409 . S
C2479 C2478 1.362 . S
H2480 C2486 0.930 . S
H2481 C2489 0.930 . S
H2482 C2490 0.930 . S
H2483 C2491 0.930 . S
H2484 C2494 0.930 . S
H2485 C2495 0.930 . S
C2486 H2480 0.930 . S
C2486 C2487 1.355 . S
C2486 C2488 1.415 . S
C2487 C2486 1.355 . S
C2487 C2489 1.419 . S
C2488 C2486 1.415 . S
C2488 C2493 1.425 . S
C2488 C2495 1.409 . S
C2489 H2481 0.930 . S
C2489 C2487 1.419 . S
C2489 C2490 1.362 . S
C2490 H2482 0.930 . S
C2490 C2489 1.362 . S
C2490 C2493 1.409 . S
C2491 H2483 0.930 . S
C2491 C2492 1.355 . S
C2491 C2493 1.415 . S
C2492 C2491 1.355 . S
C2492 C2494 1.419 . S
C2493 C2488 1.425 . S
C2493 C2490 1.409 . S
C2493 C2491 1.415 . S
C2494 H2484 0.930 . S
C2494 C2492 1.419 . S
C2494 C2495 1.362 . S
C2495 H2485 0.930 . S
C2495 C2488 1.409 . S
C2495 C2494 1.362 . S
H2496 C2502 0.930 . S
H2497 C2505 0.930 . S
H2498 C2506 0.930 . S
H2499 C2507 0.930 . S
H2500 C2510 0.930 . S
H2501 C2511 0.930 . S
C2502 H2496 0.930 . S
C2502 C2503 1.355 . S
C2502 C2504 1.415 . S
C2503 C2502 1.355 . S
C2503 C2505 1.419 . S
C2504 C2502 1.415 . S
C2504 C2509 1.425 . S
C2504 C2511 1.409 . S
C2505 H2497 0.930 . S
C2505 C2503 1.419 . S
C2505 C2506 1.362 . S
C2506 H2498 0.930 . S
C2506 C2505 1.362 . S
C2506 C2509 1.409 . S
C2507 H2499 0.930 . S
C2507 C2508 1.355 . S
C2507 C2509 1.415 . S
C2508 C2507 1.355 . S
C2508 C2510 1.419 . S
C2509 C2504 1.425 . S
C2509 C2506 1.409 . S
C2509 C2507 1.415 . S
C2510 H2500 0.930 . S
C2510 C2508 1.419 . S
C2510 C2511 1.362 . S
C2511 H2501 0.930 . S
C2511 C2504 1.409 . S
C2511 C2510 1.362 . S
H2512 C2518 0.930 . S
H2513 C2521 0.930 . S
H2514 C2522 0.930 . S
H2515 C2523 0.930 . S
H2516 C2526 0.930 . S
H2517 C2527 0.930 . S
C2518 H2512 0.930 . S
C2518 C2519 1.355 . S
C2518 C2520 1.415 . S
C2519 C2518 1.355 . S
C2519 C2521 1.419 . S
C2520 C2518 1.415 . S
C2520 C2525 1.425 . S
C2520 C2527 1.409 . S
C2521 H2513 0.930 . S
C2521 C2519 1.419 . S
C2521 C2522 1.362 . S
C2522 H2514 0.930 . S
C2522 C2521 1.362 . S
C2522 C2525 1.409 . S
C2523 H2515 0.930 . S
C2523 C2524 1.355 . S
C2523 C2525 1.415 . S
C2524 C2523 1.355 . S
C2524 C2526 1.419 . S
C2525 C2520 1.425 . S
C2525 C2522 1.409 . S
C2525 C2523 1.415 . S
C2526 H2516 0.930 . S
C2526 C2524 1.419 . S
C2526 C2527 1.362 . S
C2527 H2517 0.930 . S
C2527 C2520 1.409 . S
C2527 C2526 1.362 . S
H2528 C2534 0.930 . S
H2529 C2537 0.930 . S
H2530 C2538 0.930 . S
H2531 C2539 0.930 . S
H2532 C2542 0.930 . S
H2533 C2543 0.930 . S
C2534 H2528 0.930 . S
C2534 C2535 1.355 . S
C2534 C2536 1.415 . S
C2535 C2534 1.355 . S
C2535 C2537 1.419 . S
C2536 C2534 1.415 . S
C2536 C2541 1.425 . S
C2536 C2543 1.409 . S
C2537 H2529 0.930 . S
C2537 C2535 1.419 . S
C2537 C2538 1.362 . S
C2538 H2530 0.930 . S
C2538 C2537 1.362 . S
C2538 C2541 1.409 . S
C2539 H2531 0.930 . S
C2539 C2540 1.355 . S
C2539 C2541 1.415 . S
C2540 C2539 1.355 . S
C2540 C2542 1.419 . S
C2541 C2536 1.425 . S
C2541 C2538 1.409 . S
C2541 C2539 1.415 . S
C2542 H2532 0.930 . S
C2542 C2540 1.419 . S
C2542 C2543 1.362 . S
C2543 H2533 0.930 . S
C2543 C2536 1.409 . S
C2543 C2542 1.362 . S
H2544 C2550 0.930 . S
H2545 C2553 0.930 . S
H2546 C2554 0.930 . S
H2547 C2555 0.930 . S
H2548 C2558 0.930 . S
H2549 C2559 0.930 . S
C2550 H2544 0.930 . S
C2550 C2551 1.355 . S
C2550 C2552 1.415 . S
C2551 C2550 1.355 . S
C2551 C2553 1.419 . S
C2552 C2550 1.415 . S
C2552 C2557 1.425 . S
C2552 C2559 1.409 . S
C2553 H2545 0.930 . S
C2553 C2551 1.419 . S
C2553 C2554 1.362 . S
C2554 H2546 0.930 . S
C2554 C2553 1.362 . S
C2554 C2557 1.409 . S
C2555 H2547 0.930 . S
C2555 C2556 1.355 . S
C2555 C2557 1.415 . S
C2556 C2555 1.355 . S
C2556 C2558 1.419 . S
C2557 C2552 1.425 . S
C2557 C2554 1.409 . S
C2557 C2555 1.415 . S
C2558 H2548 0.930 . S
C2558 C2556 1.419 . S
C2558 C2559 1.362 . S
C2559 H2549 0.930 . S
C2559 C2552 1.409 . S
C2559 C2558 1.362 . S
H2560 C2566 0.930 . S
H2561 C2569 0.930 . S
H2562 C2570 0.930 . S
H2563 C2571 0.930 . S
H2564 C2574 0.930 . S
H2565 C2575 0.930 . S
C2566 H2560 0.930 . S
C2566 C2567 1.355 . S
C2566 C2568 1.415 . S
C2567 C2566 1.355 . S
C2567 C2569 1.419 . S
C2568 C2566 1.415 . S
C2568 C2573 1.425 . S
C2568 C2575 1.409 . S
C2569 H2561 0.930 . S
C2569 C2567 1.419 . S
C2569 C2570 1.362 . S
C2570 H2562 0.930 . S
C2570 C2569 1.362 . S
C2570 C2573 1.409 . S
C2571 H2563 0.930 . S
C2571 C2572 1.355 . S
C2571 C2573 1.415 . S
C2572 C2571 1.355 . S
C2572 C2574 1.419 . S
C2573 C2568 1.425 . S
C2573 C2570 1.409 . S
C2573 C2571 1.415 . S
C2574 H2564 0.930 . S
C2574 C2572 1.419 . S
C2574 C2575 1.362 . S
C2575 H2565 0.930 . S
C2575 C2568 1.409 . S
C2575 C2574 1.362 . S
H2576 C2582 0.930 . S
H2577 C2585 0.930 . S
H2578 C2586 0.930 . S
H2579 C2587 0.930 . S
H2580 C2590 0.930 . S
H2581 C2591 0.930 . S
C2582 H2576 0.930 . S
C2582 C2583 1.355 . S
C2582 C2584 1.415 . S
C2583 C2582 1.355 . S
C2583 C2585 1.419 . S
C2584 C2582 1.415 . S
C2584 C2589 1.425 . S
C2584 C2591 1.409 . S
C2585 H2577 0.930 . S
C2585 C2583 1.419 . S
C2585 C2586 1.362 . S
C2586 H2578 0.930 . S
C2586 C2585 1.362 . S
C2586 C2589 1.409 . S
C2587 H2579 0.930 . S
C2587 C2588 1.355 . S
C2587 C2589 1.415 . S
C2588 C2587 1.355 . S
C2588 C2590 1.419 . S
C2589 C2584 1.425 . S
C2589 C2586 1.409 . S
C2589 C2587 1.415 . S
C2590 H2580 0.930 . S
C2590 C2588 1.419 . S
C2590 C2591 1.362 . S
C2591 H2581 0.930 . S
C2591 C2584 1.409 . S
C2591 C2590 1.362 . S
H2592 C2598 0.930 . S
H2593 C2601 0.930 . S
H2594 C2602 0.930 . S
H2595 C2603 0.930 . S
H2596 C2606 0.930 . S
H2597 C2607 0.930 . S
C2598 H2592 0.930 . S
C2598 C2599 1.355 . S
C2598 C2600 1.415 . S
C2599 C2598 1.355 . S
C2599 C2601 1.419 . S
C2600 C2598 1.415 . S
C2600 C2605 1.425 . S
C2600 C2607 1.409 . S
C2601 H2593 0.930 . S
C2601 C2599 1.419 . S
C2601 C2602 1.362 . S
C2602 H2594 0.930 . S
C2602 C2601 1.362 . S
C2602 C2605 1.409 . S
C2603 H2595 0.930 . S
C2603 C2604 1.355 . S
C2603 C2605 1.415 . S
C2604 C2603 1.355 . S
C2604 C2606 1.419 . S
C2605 C2600 1.425 . S
C2605 C2602 1.409 . S
C2605 C2603 1.415 . S
C2606 H2596 0.930 . S
C2606 C2604 1.419 . S
C2606 C2607 1.362 . S
C2607 H2597 0.930 . S
C2607 C2600 1.409 . S
C2607 C2606 1.362 . S
H2608 C2614 0.930 . S
H2609 C2617 0.930 . S
H2610 C2618 0.930 . S
H2611 C2619 0.930 . S
H2612 C2622 0.930 . S
H2613 C2623 0.930 . S
C2614 H2608 0.930 . S
C2614 C2615 1.355 . S
C2614 C2616 1.415 . S
C2615 C2614 1.355 . S
C2615 C2617 1.419 . S
C2616 C2614 1.415 . S
C2616 C2621 1.425 . S
C2616 C2623 1.409 . S
C2617 H2609 0.930 . S
C2617 C2615 1.419 . S
C2617 C2618 1.362 . S
C2618 H2610 0.930 . S
C2618 C2617 1.362 . S
C2618 C2621 1.409 . S
C2619 H2611 0.930 . S
C2619 C2620 1.355 . S
C2619 C2621 1.415 . S
C2620 C2619 1.355 . S
C2620 C2622 1.419 . S
C2621 C2616 1.425 . S
C2621 C2618 1.409 . S
C2621 C2619 1.415 . S
C2622 H2612 0.930 . S
C2622 C2620 1.419 . S
C2622 C2623 1.362 . S
C2623 H2613 0.930 . S
C2623 C2616 1.409 . S
C2623 C2622 1.362 . S
H2624 C2630 0.930 . S
H2625 C2633 0.930 . S
H2626 C2634 0.930 . S
H2627 C2635 0.930 . S
H2628 C2638 0.930 . S
H2629 C2639 0.930 . S
C2630 H2624 0.930 . S
C2630 C2631 1.355 . S
C2630 C2632 1.415 . S
C2631 C2630 1.355 . S
C2631 C2633 1.419 . S
C2632 C2630 1.415 . S
C2632 C2637 1.425 . S
C2632 C2639 1.409 . S
C2633 H2625 0.930 . S
C2633 C2631 1.419 . S
C2633 C2634 1.362 . S
C2634 H2626 0.930 . S
C2634 C2633 1.362 . S
C2634 C2637 1.409 . S
C2635 H2627 0.930 . S
C2635 C2636 1.355 . S
C2635 C2637 1.415 . S
C2636 C2635 1.355 . S
C2636 C2638 1.419 . S
C2637 C2632 1.425 . S
C2637 C2634 1.409 . S
C2637 C2635 1.415 . S
C2638 H2628 0.930 . S
C2638 C2636 1.419 . S
C2638 C2639 1.362 . S
C2639 H2629 0.930 . S
C2639 C2632 1.409 . S
C2639 C2638 1.362 . S
H2640 C2646 0.930 . S
H2641 C2649 0.930 . S
H2642 C2650 0.930 . S
H2643 C2651 0.930 . S
H2644 C2654 0.930 . S
H2645 C2655 0.930 . S
C2646 H2640 0.930 . S
C2646 C2647 1.355 . S
C2646 C2648 1.415 . S
C2647 C2646 1.355 . S
C2647 C2649 1.419 . S
C2648 C2646 1.415 . S
C2648 C2653 1.425 . S
C2648 C2655 1.409 . S
C2649 H2641 0.930 . S
C2649 C2647 1.419 . S
C2649 C2650 1.362 . S
C2650 H2642 0.930 . S
C2650 C2649 1.362 . S
C2650 C2653 1.409 . S
C2651 H2643 0.930 . S
C2651 C2652 1.355 . S
C2651 C2653 1.415 . S
C2652 C2651 1.355 . S
C2652 C2654 1.419 . S
C2653 C2648 1.425 . S
C2653 C2650 1.409 . S
C2653 C2651 1.415 . S
C2654 H2644 0.930 . S
C2654 C2652 1.419 . S
C2654 C2655 1.362 . S
C2655 H2645 0.930 . S
C2655 C2648 1.409 . S
C2655 C2654 1.362 . S
H2656 C2662 0.930 . S
H2657 C2665 0.930 . S
H2658 C2666 0.930 . S
H2659 C2667 0.930 . S
H2660 C2670 0.930 . S
H2661 C2671 0.930 . S
C2662 H2656 0.930 . S
C2662 C2663 1.355 . S
C2662 C2664 1.415 . S
C2663 C2662 1.355 . S
C2663 C2665 1.419 . S
C2664 C2662 1.415 . S
C2664 C2669 1.425 . S
C2664 C2671 1.409 . S
C2665 H2657 0.930 . S
C2665 C2663 1.419 . S
C2665 C2666 1.362 . S
C2666 H2658 0.930 . S
C2666 C2665 1.362 . S
C2666 C2669 1.409 . S
C2667 H2659 0.930 . S
C2667 C2668 1.355 . S
C2667 C2669 1.415 . S
C2668 C2667 1.355 . S
C2668 C2670 1.419 . S
C2669 C2664 1.425 . S
C2669 C2666 1.409 . S
C2669 C2667 1.415 . S
C2670 H2660 0.930 . S
C2670 C2668 1.419 . S
C2670 C2671 1.362 . S
C2671 H2661 0.930 . S
C2671 C2664 1.409 . S
C2671 C2670 1.362 . S
H2672 C2678 0.930 . S
H2673 C2681 0.930 . S
H2674 C2682 0.930 . S
H2675 C2683 0.930 . S
H2676 C2686 0.930 . S
H2677 C2687 0.930 . S
C2678 H2672 0.930 . S
C2678 C2679 1.355 . S
C2678 C2680 1.415 . S
C2679 C2678 1.355 . S
C2679 C2681 1.419 . S
C2680 C2678 1.415 . S
C2680 C2685 1.425 . S
C2680 C2687 1.409 . S
C2681 H2673 0.930 . S
C2681 C2679 1.419 . S
C2681 C2682 1.362 . S
C2682 H2674 0.930 . S
C2682 C2681 1.362 . S
C2682 C2685 1.409 . S
C2683 H2675 0.930 . S
C2683 C2684 1.355 . S
C2683 C2685 1.415 . S
C2684 C2683 1.355 . S
C2684 C2686 1.419 . S
C2685 C2680 1.425 . S
C2685 C2682 1.409 . S
C2685 C2683 1.415 . S
C2686 H2676 0.930 . S
C2686 C2684 1.419 . S
C2686 C2687 1.362 . S
C2687 H2677 0.930 . S
C2687 C2680 1.409 . S
C2687 C2686 1.362 . S
H2688 C2694 0.930 . S
H2689 C2697 0.930 . S
H2690 C2698 0.930 . S
H2691 C2699 0.930 . S
H2692 C2702 0.930 . S
H2693 C2703 0.930 . S
C2694 H2688 0.930 . S
C2694 C2695 1.355 . S
C2694 C2696 1.415 . S
C2695 C2694 1.355 . S
C2695 C2697 1.419 . S
C2696 C2694 1.415 . S
C2696 C2701 1.425 . S
C2696 C2703 1.409 . S
C2697 H2689 0.930 . S
C2697 C2695 1.419 . S
C2697 C2698 1.362 . S
C2698 H2690 0.930 . S
C2698 C2697 1.362 . S
C2698 C2701 1.409 . S
C2699 H2691 0.930 . S
C2699 C2700 1.355 . S
C2699 C2701 1.415 . S
C2700 C2699 1.355 . S
C2700 C2702 1.419 . S
C2701 C2696 1.425 . S
C2701 C2698 1.409 . S
C2701 C2699 1.415 . S
C2702 H2692 0.930 . S
C2702 C2700 1.419 . S
C2702 C2703 1.362 . S
C2703 H2693 0.930 . S
C2703 C2696 1.409 . S
C2703 C2702 1.362 . S
H2704 C2710 0.930 . S
H2705 C2713 0.930 . S
H2706 C2714 0.930 . S
H2707 C2715 0.930 . S
H2708 C2718 0.930 . S
H2709 C2719 0.930 . S
C2710 H2704 0.930 . S
C2710 C2711 1.355 . S
C2710 C2712 1.415 . S
C2711 C2710 1.355 . S
C2711 C2713 1.419 . S
C2712 C2710 1.415 . S
C2712 C2717 1.425 . S
C2712 C2719 1.409 . S
C2713 H2705 0.930 . S
C2713 C2711 1.419 . S
C2713 C2714 1.362 . S
C2714 H2706 0.930 . S
C2714 C2713 1.362 . S
C2714 C2717 1.409 . S
C2715 H2707 0.930 . S
C2715 C2716 1.355 . S
C2715 C2717 1.415 . S
C2716 C2715 1.355 . S
C2716 C2718 1.419 . S
C2717 C2712 1.425 . S
C2717 C2714 1.409 . S
C2717 C2715 1.415 . S
C2718 H2708 0.930 . S
C2718 C2716 1.419 . S
C2718 C2719 1.362 . S
C2719 H2709 0.930 . S
C2719 C2712 1.409 . S
C2719 C2718 1.362 . S
H2720 C2726 0.930 . S
H2721 C2729 0.930 . S
H2722 C2730 0.930 . S
H2723 C2731 0.930 . S
H2724 C2734 0.930 . S
H2725 C2735 0.930 . S
C2726 H2720 0.930 . S
C2726 C2727 1.355 . S
C2726 C2728 1.415 . S
C2727 C2726 1.355 . S
C2727 C2729 1.419 . S
C2728 C2726 1.415 . S
C2728 C2733 1.425 . S
C2728 C2735 1.409 . S
C2729 H2721 0.930 . S
C2729 C2727 1.419 . S
C2729 C2730 1.362 . S
C2730 H2722 0.930 . S
C2730 C2729 1.362 . S
C2730 C2733 1.409 . S
C2731 H2723 0.930 . S
C2731 C2732 1.355 . S
C2731 C2733 1.415 . S
C2732 C2731 1.355 . S
C2732 C2734 1.419 . S
C2733 C2728 1.425 . S
C2733 C2730 1.409 . S
C2733 C2731 1.415 . S
C2734 H2724 0.930 . S
C2734 C2732 1.419 . S
C2734 C2735 1.362 . S
C2735 H2725 0.930 . S
C2735 C2728 1.409 . S
C2735 C2734 1.362 . S
H2736 C2742 0.930 . S
H2737 C2745 0.930 . S
H2738 C2746 0.930 . S
H2739 C2747 0.930 . S
H2740 C2750 0.942 . S
H2741 C2751 0.930 . S
C2742 H2736 0.930 . S
C2742 C2743 1.355 . S
C2742 C2744 1.415 . S
C2743 C2742 1.355 . S
C2743 C2745 1.419 . S
C2744 C2742 1.415 . S
C2744 C2749 1.425 . S
C2744 C2751 1.409 . S
C2745 H2737 0.930 . S
C2745 C2743 1.419 . S
C2745 C2746 1.362 . S
C2746 H2738 0.930 . S
C2746 C2745 1.362 . S
C2746 C2749 1.409 . S
C2747 H2739 0.930 . S
C2747 C2748 1.355 . S
C2747 C2749 1.415 . S
C2748 C2747 1.355 . S
C2748 C2750 1.419 . S
C2749 C2744 1.425 . S
C2749 C2746 1.409 . S
C2749 C2747 1.415 . S
C2750 H2740 0.942 . S
C2750 C2748 1.419 . S
C2750 C2751 1.362 . S
C2751 H2741 0.930 . S
C2751 C2744 1.409 . S
C2751 C2750 1.362 . S
H2752 C2758 0.930 . S
H2753 C2761 0.930 . S
H2754 C2762 0.930 . S
H2755 C2763 0.930 . S
H2756 C2766 0.930 . S
H2757 C2767 0.930 . S
C2758 H2752 0.930 . S
C2758 C2759 1.355 . S
C2758 C2760 1.415 . S
C2759 C2758 1.355 . S
C2759 C2761 1.419 . S
C2760 C2758 1.415 . S
C2760 C2765 1.425 . S
C2760 C2767 1.409 . S
C2761 H2753 0.930 . S
C2761 C2759 1.419 . S
C2761 C2762 1.362 . S
C2762 H2754 0.930 . S
C2762 C2761 1.362 . S
C2762 C2765 1.409 . S
C2763 H2755 0.930 . S
C2763 C2764 1.355 . S
C2763 C2765 1.415 . S
C2764 C2763 1.355 . S
C2764 C2766 1.419 . S
C2765 C2760 1.425 . S
C2765 C2762 1.409 . S
C2765 C2763 1.415 . S
C2766 H2756 0.930 . S
C2766 C2764 1.419 . S
C2766 C2767 1.362 . S
C2767 H2757 0.930 . S
C2767 C2760 1.409 . S
C2767 C2766 1.362 . S
H2768 C2774 0.930 . S
H2769 C2777 0.930 . S
H2770 C2778 0.930 . S
H2771 C2779 0.930 . S
H2772 C2782 0.930 . S
H2773 C2783 0.930 . S
C2774 H2768 0.930 . S
C2774 C2775 1.355 . S
C2774 C2776 1.415 . S
C2775 C2774 1.355 . S
C2775 C2777 1.419 . S
C2776 C2774 1.415 . S
C2776 C2781 1.425 . S
C2776 C2783 1.409 . S
C2777 H2769 0.930 . S
C2777 C2775 1.419 . S
C2777 C2778 1.362 . S
C2778 H2770 0.930 . S
C2778 C2777 1.362 . S
C2778 C2781 1.409 . S
C2779 H2771 0.930 . S
C2779 C2780 1.355 . S
C2779 C2781 1.415 . S
C2780 C2779 1.355 . S
C2780 C2782 1.419 . S
C2781 C2776 1.425 . S
C2781 C2778 1.409 . S
C2781 C2779 1.415 . S
C2782 H2772 0.930 . S
C2782 C2780 1.419 . S
C2782 C2783 1.362 . S
C2783 H2773 0.930 . S
C2783 C2776 1.409 . S
C2783 C2782 1.362 . S
H2784 C2790 0.930 . S
H2785 C2793 0.930 . S
H2786 C2794 0.930 . S
H2787 C2795 0.930 . S
H2788 C2798 0.930 . S
H2789 C2799 0.930 . S
C2790 H2784 0.930 . S
C2790 C2791 1.355 . S
C2790 C2792 1.415 . S
C2791 C2790 1.355 . S
C2791 C2793 1.419 . S
C2792 C2790 1.415 . S
C2792 C2797 1.425 . S
C2792 C2799 1.409 . S
C2793 H2785 0.930 . S
C2793 C2791 1.419 . S
C2793 C2794 1.362 . S
C2794 H2786 0.930 . S
C2794 C2793 1.362 . S
C2794 C2797 1.409 . S
C2795 H2787 0.930 . S
C2795 C2796 1.355 . S
C2795 C2797 1.415 . S
C2796 C2795 1.355 . S
C2796 C2798 1.419 . S
C2797 C2792 1.425 . S
C2797 C2794 1.409 . S
C2797 C2795 1.415 . S
C2798 H2788 0.930 . S
C2798 C2796 1.419 . S
C2798 C2799 1.362 . S
C2799 H2789 0.930 . S
C2799 C2792 1.409 . S
C2799 C2798 1.362 . S
H2800 C2806 0.930 . S
H2801 C2809 0.930 . S
H2802 C2810 0.930 . S
H2803 C2811 0.930 . S
H2804 C2814 0.930 . S
H2805 C2815 0.930 . S
C2806 H2800 0.930 . S
C2806 C2807 1.355 . S
C2806 C2808 1.415 . S
C2807 C2806 1.355 . S
C2807 C2809 1.419 . S
C2808 C2806 1.415 . S
C2808 C2813 1.425 . S
C2808 C2815 1.409 . S
C2809 H2801 0.930 . S
C2809 C2807 1.419 . S
C2809 C2810 1.362 . S
C2810 H2802 0.930 . S
C2810 C2809 1.362 . S
C2810 C2813 1.409 . S
C2811 H2803 0.930 . S
C2811 C2812 1.355 . S
C2811 C2813 1.415 . S
C2812 C2811 1.355 . S
C2812 C2814 1.419 . S
C2813 C2808 1.425 . S
C2813 C2810 1.409 . S
C2813 C2811 1.415 . S
C2814 H2804 0.930 . S
C2814 C2812 1.419 . S
C2814 C2815 1.362 . S
C2815 H2805 0.930 . S
C2815 C2808 1.409 . S
C2815 C2814 1.362 . S
H2816 C2822 0.930 . S
H2817 C2825 0.930 . S
H2818 C2826 0.930 . S
H2819 C2827 0.930 . S
H2820 C2830 0.930 . S
H2821 C2831 0.930 . S
C2822 H2816 0.930 . S
C2822 C2823 1.355 . S
C2822 C2824 1.415 . S
C2823 C2822 1.355 . S
C2823 C2825 1.419 . S
C2824 C2822 1.415 . S
C2824 C2829 1.425 . S
C2824 C2831 1.409 . S
C2825 H2817 0.930 . S
C2825 C2823 1.419 . S
C2825 C2826 1.362 . S
C2826 H2818 0.930 . S
C2826 C2825 1.362 . S
C2826 C2829 1.409 . S
C2827 H2819 0.930 . S
C2827 C2828 1.355 . S
C2827 C2829 1.415 . S
C2828 C2827 1.355 . S
C2828 C2830 1.419 . S
C2829 C2824 1.425 . S
C2829 C2826 1.409 . S
C2829 C2827 1.415 . S
C2830 H2820 0.930 . S
C2830 C2828 1.419 . S
C2830 C2831 1.362 . S
C2831 H2821 0.930 . S
C2831 C2824 1.409 . S
C2831 C2830 1.362 . S
H2832 C2838 0.930 . S
H2833 C2841 0.930 . S
H2834 C2842 0.930 . S
H2835 C2843 0.930 . S
H2836 C2846 0.930 . S
H2837 C2847 0.930 . S
C2838 H2832 0.930 . S
C2838 C2839 1.355 . S
C2838 C2840 1.415 . S
C2839 C2838 1.355 . S
C2839 C2841 1.419 . S
C2840 C2838 1.415 . S
C2840 C2845 1.425 . S
C2840 C2847 1.409 . S
C2841 H2833 0.930 . S
C2841 C2839 1.419 . S
C2841 C2842 1.362 . S
C2842 H2834 0.930 . S
C2842 C2841 1.362 . S
C2842 C2845 1.409 . S
C2843 H2835 0.930 . S
C2843 C2844 1.355 . S
C2843 C2845 1.415 . S
C2844 C2843 1.355 . S
C2844 C2846 1.419 . S
C2845 C2840 1.425 . S
C2845 C2842 1.409 . S
C2845 C2843 1.415 . S
C2846 H2836 0.930 . S
C2846 C2844 1.419 . S
C2846 C2847 1.362 . S
C2847 H2837 0.930 . S
C2847 C2840 1.409 . S
C2847 C2846 1.362 . S
H2848 C2854 0.930 . S
H2849 C2857 0.930 . S
H2850 C2858 0.930 . S
H2851 C2859 0.930 . S
H2852 C2862 0.930 . S
H2853 C2863 0.930 . S
C2854 H2848 0.930 . S
C2854 C2855 1.355 . S
C2854 C2856 1.415 . S
C2855 C2854 1.355 . S
C2855 C2857 1.419 . S
C2856 C2854 1.415 . S
C2856 C2861 1.425 . S
C2856 C2863 1.409 . S
C2857 H2849 0.930 . S
C2857 C2855 1.419 . S
C2857 C2858 1.362 . S
C2858 H2850 0.930 . S
C2858 C2857 1.362 . S
C2858 C2861 1.409 . S
C2859 H2851 0.930 . S
C2859 C2860 1.355 . S
C2859 C2861 1.415 . S
C2860 C2859 1.355 . S
C2860 C2862 1.419 . S
C2861 C2856 1.425 . S
C2861 C2858 1.409 . S
C2861 C2859 1.415 . S
C2862 H2852 0.930 . S
C2862 C2860 1.419 . S
C2862 C2863 1.362 . S
C2863 H2853 0.930 . S
C2863 C2856 1.409 . S
C2863 C2862 1.362 . S
H2864 C2870 0.930 . S
H2865 C2873 0.930 . S
H2866 C2874 0.930 . S
H2867 C2875 0.930 . S
H2868 C2878 0.930 . S
H2869 C2879 0.930 . S
C2870 H2864 0.930 . S
C2870 C2871 1.355 . S
C2870 C2872 1.415 . S
C2871 C2870 1.355 . S
C2871 C2873 1.419 . S
C2872 C2870 1.415 . S
C2872 C2877 1.425 . S
C2872 C2879 1.409 . S
C2873 H2865 0.930 . S
C2873 C2871 1.419 . S
C2873 C2874 1.362 . S
C2874 H2866 0.930 . S
C2874 C2873 1.362 . S
C2874 C2877 1.409 . S
C2875 H2867 0.930 . S
C2875 C2876 1.355 . S
C2875 C2877 1.415 . S
C2876 C2875 1.355 . S
C2876 C2878 1.419 . S
C2877 C2872 1.425 . S
C2877 C2874 1.409 . S
C2877 C2875 1.415 . S
C2878 H2868 0.930 . S
C2878 C2876 1.419 . S
C2878 C2879 1.362 . S
C2879 H2869 0.930 . S
C2879 C2872 1.409 . S
C2879 C2878 1.362 . S
H2880 C2886 0.930 . S
H2881 C2889 0.930 . S
H2882 C2890 0.930 . S
H2883 C2891 0.930 . S
H2884 C2894 0.930 . S
H2885 C2895 0.930 . S
C2886 H2880 0.930 . S
C2886 C2887 1.355 . S
C2886 C2888 1.415 . S
C2887 C2886 1.355 . S
C2887 C2889 1.419 . S
C2888 C2886 1.415 . S
C2888 C2893 1.425 . S
C2888 C2895 1.409 . S
C2889 H2881 0.930 . S
C2889 C2887 1.419 . S
C2889 C2890 1.362 . S
C2890 H2882 0.930 . S
C2890 C2889 1.362 . S
C2890 C2893 1.409 . S
C2891 H2883 0.930 . S
C2891 C2892 1.355 . S
C2891 C2893 1.415 . S
C2892 C2891 1.355 . S
C2892 C2894 1.419 . S
C2893 C2888 1.425 . S
C2893 C2890 1.409 . S
C2893 C2891 1.415 . S
C2894 H2884 0.930 . S
C2894 C2892 1.419 . S
C2894 C2895 1.362 . S
C2895 H2885 0.930 . S
C2895 C2888 1.409 . S
C2895 C2894 1.362 . S
H2896 C2902 0.930 . S
H2897 C2905 0.930 . S
H2898 C2906 0.930 . S
H2899 C2907 0.930 . S
H2900 C2910 0.930 . S
H2901 C2911 0.930 . S
C2902 H2896 0.930 . S
C2902 C2903 1.355 . S
C2902 C2904 1.415 . S
C2903 C2902 1.355 . S
C2903 C2905 1.419 . S
C2904 C2902 1.415 . S
C2904 C2909 1.425 . S
C2904 C2911 1.409 . S
C2905 H2897 0.930 . S
C2905 C2903 1.419 . S
C2905 C2906 1.362 . S
C2906 H2898 0.930 . S
C2906 C2905 1.362 . S
C2906 C2909 1.409 . S
C2907 H2899 0.930 . S
C2907 C2908 1.355 . S
C2907 C2909 1.415 . S
C2908 C2907 1.355 . S
C2908 C2910 1.419 . S
C2909 C2904 1.425 . S
C2909 C2906 1.409 . S
C2909 C2907 1.415 . S
C2910 H2900 0.930 . S
C2910 C2908 1.419 . S
C2910 C2911 1.362 . S
C2911 H2901 0.930 . S
C2911 C2904 1.409 . S
C2911 C2910 1.362 . S
H2912 C2918 0.930 . S
H2913 C2921 0.930 . S
H2914 C2922 0.930 . S
H2915 C2923 0.930 . S
H2916 C2926 0.930 . S
H2917 C2927 0.930 . S
C2918 H2912 0.930 . S
C2918 C2919 1.355 . S
C2918 C2920 1.415 . S
C2919 C2918 1.355 . S
C2919 C2921 1.419 . S
C2920 C2918 1.415 . S
C2920 C2925 1.425 . S
C2920 C2927 1.409 . S
C2921 H2913 0.930 . S
C2921 C2919 1.419 . S
C2921 C2922 1.362 . S
C2922 H2914 0.930 . S
C2922 C2921 1.362 . S
C2922 C2925 1.409 . S
C2923 H2915 0.930 . S
C2923 C2924 1.355 . S
C2923 C2925 1.415 . S
C2924 C2923 1.355 . S
C2924 C2926 1.419 . S
C2925 C2920 1.425 . S
C2925 C2922 1.409 . S
C2925 C2923 1.415 . S
C2926 H2916 0.930 . S
C2926 C2924 1.419 . S
C2926 C2927 1.362 . S
C2927 H2917 0.930 . S
C2927 C2920 1.409 . S
C2927 C2926 1.362 . S
H2928 C2934 0.930 . S
H2929 C2937 0.930 . S
H2930 C2938 0.930 . S
H2931 C2939 0.930 . S
H2932 C2942 0.930 . S
H2933 C2943 0.930 . S
C2934 H2928 0.930 . S
C2934 C2935 1.355 . S
C2934 C2936 1.415 . S
C2935 C2934 1.355 . S
C2935 C2937 1.419 . S
C2936 C2934 1.415 . S
C2936 C2941 1.425 . S
C2936 C2943 1.409 . S
C2937 H2929 0.930 . S
C2937 C2935 1.419 . S
C2937 C2938 1.362 . S
C2938 H2930 0.930 . S
C2938 C2937 1.362 . S
C2938 C2941 1.409 . S
C2939 H2931 0.930 . S
C2939 C2940 1.355 . S
C2939 C2941 1.415 . S
C2940 C2939 1.355 . S
C2940 C2942 1.419 . S
C2941 C2936 1.425 . S
C2941 C2938 1.409 . S
C2941 C2939 1.415 . S
C2942 H2932 0.930 . S
C2942 C2940 1.419 . S
C2942 C2943 1.362 . S
C2943 H2933 0.930 . S
C2943 C2936 1.409 . S
C2943 C2942 1.362 . S
H2944 C2950 0.930 . S
H2945 C2953 0.930 . S
H2946 C2954 0.930 . S
H2947 C2955 0.930 . S
H2948 C2958 0.930 . S
H2949 C2959 0.930 . S
C2950 H2944 0.930 . S
C2950 C2951 1.355 . S
C2950 C2952 1.415 . S
C2951 C2950 1.355 . S
C2951 C2953 1.419 . S
C2952 C2950 1.415 . S
C2952 C2957 1.425 . S
C2952 C2959 1.409 . S
C2953 H2945 0.930 . S
C2953 C2951 1.419 . S
C2953 C2954 1.362 . S
C2954 H2946 0.930 . S
C2954 C2953 1.362 . S
C2954 C2957 1.409 . S
C2955 H2947 0.930 . S
C2955 C2956 1.355 . S
C2955 C2957 1.415 . S
C2956 C2955 1.355 . S
C2956 C2958 1.419 . S
C2957 C2952 1.425 . S
C2957 C2954 1.409 . S
C2957 C2955 1.415 . S
C2958 H2948 0.930 . S
C2958 C2956 1.419 . S
C2958 C2959 1.362 . S
C2959 H2949 0.930 . S
C2959 C2952 1.409 . S
C2959 C2958 1.362 . S
H2960 C2966 0.930 . S
H2961 C2969 0.930 . S
H2962 C2970 0.930 . S
H2963 C2971 0.930 . S
H2964 C2974 0.930 . S
H2965 C2975 0.930 . S
C2966 H2960 0.930 . S
C2966 C2967 1.355 . S
C2966 C2968 1.415 . S
C2967 C2966 1.355 . S
C2967 C2969 1.419 . S
C2968 C2966 1.415 . S
C2968 C2973 1.425 . S
C2968 C2975 1.409 . S
C2969 H2961 0.930 . S
C2969 C2967 1.419 . S
C2969 C2970 1.362 . S
C2970 H2962 0.930 . S
C2970 C2969 1.362 . S
C2970 C2973 1.409 . S
C2971 H2963 0.930 . S
C2971 C2972 1.355 . S
C2971 C2973 1.415 . S
C2972 C2971 1.355 . S
C2972 C2974 1.419 . S
C2973 C2968 1.425 . S
C2973 C2970 1.409 . S
C2973 C2971 1.415 . S
C2974 H2964 0.930 . S
C2974 C2972 1.419 . S
C2974 C2975 1.362 . S
C2975 H2965 0.930 . S
C2975 C2968 1.409 . S
C2975 C2974 1.362 . S
H2976 C2982 0.930 . S
H2977 C2985 0.930 . S
H2978 C2986 0.930 . S
H2979 C2987 0.930 . S
H2980 C2990 0.930 . S
H2981 C2991 0.930 . S
C2982 H2976 0.930 . S
C2982 C2983 1.355 . S
C2982 C2984 1.415 . S
C2983 C2982 1.355 . S
C2983 C2985 1.419 . S
C2984 C2982 1.415 . S
C2984 C2989 1.425 . S
C2984 C2991 1.409 . S
C2985 H2977 0.930 . S
C2985 C2983 1.419 . S
C2985 C2986 1.362 . S
C2986 H2978 0.930 . S
C2986 C2985 1.362 . S
C2986 C2989 1.409 . S
C2987 H2979 0.930 . S
C2987 C2988 1.355 . S
C2987 C2989 1.415 . S
C2988 C2987 1.355 . S
C2988 C2990 1.419 . S
C2989 C2984 1.425 . S
C2989 C2986 1.409 . S
C2989 C2987 1.415 . S
C2990 H2980 0.930 . S
C2990 C2988 1.419 . S
C2990 C2991 1.362 . S
C2991 H2981 0.930 . S
C2991 C2984 1.409 . S
C2991 C2990 1.362 . S
H2992 C2998 0.930 . S
H2993 C3001 0.930 . S
H2994 C3002 0.930 . S
H2995 C3003 0.930 . S
H2996 C3006 0.930 . S
H2997 C3007 0.930 . S
C2998 H2992 0.930 . S
C2998 C2999 1.355 . S
C2998 C3000 1.415 . S
C2999 C2998 1.355 . S
C2999 C3001 1.419 . S
C3000 C2998 1.415 . S
C3000 C3005 1.425 . S
C3000 C3007 1.409 . S
C3001 H2993 0.930 . S
C3001 C2999 1.419 . S
C3001 C3002 1.362 . S
C3002 H2994 0.930 . S
C3002 C3001 1.362 . S
C3002 C3005 1.409 . S
C3003 H2995 0.930 . S
C3003 C3004 1.355 . S
C3003 C3005 1.415 . S
C3004 C3003 1.355 . S
C3004 C3006 1.419 . S
C3005 C3000 1.425 . S
C3005 C3002 1.409 . S
C3005 C3003 1.415 . S
C3006 H2996 0.930 . S
C3006 C3004 1.419 . S
C3006 C3007 1.362 . S
C3007 H2997 0.930 . S
C3007 C3000 1.409 . S
C3007 C3006 1.362 . S
H3008 C3014 0.930 . S
H3009 C3017 0.930 . S
H3010 C3018 0.930 . S
H3011 C3019 0.930 . S
H3012 C3022 0.930 . S
H3013 C3023 0.930 . S
C3014 H3008 0.930 . S
C3014 C3015 1.355 . S
C3014 C3016 1.415 . S
C3015 C3014 1.355 . S
C3015 C3017 1.419 . S
C3016 C3014 1.415 . S
C3016 C3021 1.425 . S
C3016 C3023 1.409 . S
C3017 H3009 0.930 . S
C3017 C3015 1.419 . S
C3017 C3018 1.362 . S
C3018 H3010 0.930 . S
C3018 C3017 1.362 . S
C3018 C3021 1.409 . S
C3019 H3011 0.930 . S
C3019 C3020 1.355 . S
C3019 C3021 1.415 . S
C3020 C3019 1.355 . S
C3020 C3022 1.419 . S
C3021 C3016 1.425 . S
C3021 C3018 1.409 . S
C3021 C3019 1.415 . S
C3022 H3012 0.930 . S
C3022 C3020 1.419 . S
C3022 C3023 1.362 . S
C3023 H3013 0.930 . S
C3023 C3016 1.409 . S
C3023 C3022 1.362 . S
H3024 C3030 0.930 . S
H3025 C3033 0.930 . S
H3026 C3034 0.930 . S
H3027 C3035 0.930 . S
H3028 C3038 0.930 . S
H3029 C3039 0.930 . S
C3030 H3024 0.930 . S
C3030 C3031 1.355 . S
C3030 C3032 1.415 . S
C3031 C3030 1.355 . S
C3031 C3033 1.419 . S
C3032 C3030 1.415 . S
C3032 C3037 1.425 . S
C3032 C3039 1.409 . S
C3033 H3025 0.930 . S
C3033 C3031 1.419 . S
C3033 C3034 1.362 . S
C3034 H3026 0.930 . S
C3034 C3033 1.362 . S
C3034 C3037 1.409 . S
C3035 H3027 0.930 . S
C3035 C3036 1.355 . S
C3035 C3037 1.415 . S
C3036 C3035 1.355 . S
C3036 C3038 1.419 . S
C3037 C3032 1.425 . S
C3037 C3034 1.409 . S
C3037 C3035 1.415 . S
C3038 H3028 0.930 . S
C3038 C3036 1.419 . S
C3038 C3039 1.362 . S
C3039 H3029 0.930 . S
C3039 C3032 1.409 . S
C3039 C3038 1.362 . S
H3040 C3046 0.930 . S
H3041 C3049 0.930 . S
H3042 C3050 0.930 . S
H3043 C3051 0.930 . S
H3044 C3054 0.930 . S
H3045 C3055 0.930 . S
C3046 H3040 0.930 . S
C3046 C3047 1.355 . S
C3046 C3048 1.415 . S
C3047 C3046 1.355 . S
C3047 C3049 1.419 . S
C3048 C3046 1.415 . S
C3048 C3053 1.425 . S
C3048 C3055 1.409 . S
C3049 H3041 0.930 . S
C3049 C3047 1.419 . S
C3049 C3050 1.362 . S
C3050 H3042 0.930 . S
C3050 C3049 1.362 . S
C3050 C3053 1.409 . S
C3051 H3043 0.930 . S
C3051 C3052 1.355 . S
C3051 C3053 1.415 . S
C3052 C3051 1.355 . S
C3052 C3054 1.419 . S
C3053 C3048 1.425 . S
C3053 C3050 1.409 . S
C3053 C3051 1.415 . S
C3054 H3044 0.930 . S
C3054 C3052 1.419 . S
C3054 C3055 1.362 . S
C3055 H3045 0.930 . S
C3055 C3048 1.409 . S
C3055 C3054 1.362 . S
H3056 C3062 0.930 . S
H3057 C3065 0.930 . S
H3058 C3066 0.930 . S
H3059 C3067 0.930 . S
H3060 C3070 0.930 . S
H3061 C3071 0.930 . S
C3062 H3056 0.930 . S
C3062 C3063 1.355 . S
C3062 C3064 1.415 . S
C3063 C3062 1.355 . S
C3063 C3065 1.419 . S
C3064 C3062 1.415 . S
C3064 C3069 1.425 . S
C3064 C3071 1.409 . S
C3065 H3057 0.930 . S
C3065 C3063 1.419 . S
C3065 C3066 1.362 . S
C3066 H3058 0.930 . S
C3066 C3065 1.362 . S
C3066 C3069 1.409 . S
C3067 H3059 0.930 . S
C3067 C3068 1.355 . S
C3067 C3069 1.415 . S
C3068 C3067 1.355 . S
C3068 C3070 1.419 . S
C3069 C3064 1.425 . S
C3069 C3066 1.409 . S
C3069 C3067 1.415 . S
C3070 H3060 0.930 . S
C3070 C3068 1.419 . S
C3070 C3071 1.362 . S
C3071 H3061 0.930 . S
C3071 C3064 1.409 . S
C3071 C3070 1.362 . S
H3072 C3078 0.930 . S
H3073 C3081 0.930 . S
H3074 C3082 0.930 . S
H3075 C3083 0.930 . S
H3076 C3086 0.930 . S
H3077 C3087 0.930 . S
C3078 H3072 0.930 . S
C3078 C3079 1.355 . S
C3078 C3080 1.415 . S
C3079 C3078 1.355 . S
C3079 C3081 1.419 . S
C3080 C3078 1.415 . S
C3080 C3085 1.425 . S
C3080 C3087 1.409 . S
C3081 H3073 0.930 . S
C3081 C3079 1.419 . S
C3081 C3082 1.362 . S
C3082 H3074 0.930 . S
C3082 C3081 1.362 . S
C3082 C3085 1.409 . S
C3083 H3075 0.930 . S
C3083 C3084 1.355 . S
C3083 C3085 1.415 . S
C3084 C3083 1.355 . S
C3084 C3086 1.419 . S
C3085 C3080 1.425 . S
C3085 C3082 1.409 . S
C3085 C3083 1.415 . S
C3086 H3076 0.930 . S
C3086 C3084 1.419 . S
C3086 C3087 1.362 . S
C3087 H3077 0.930 . S
C3087 C3080 1.409 . S
C3087 C3086 1.362 . S
H3088 C3094 0.930 . S
H3089 C3097 0.930 . S
H3090 C3098 0.930 . S
H3091 C3099 0.930 . S
H3092 C3102 0.930 . S
H3093 C3103 0.930 . S
C3094 H3088 0.930 . S
C3094 C3095 1.355 . S
C3094 C3096 1.415 . S
C3095 C3094 1.355 . S
C3095 C3097 1.419 . S
C3096 C3094 1.415 . S
C3096 C3101 1.425 . S
C3096 C3103 1.409 . S
C3097 H3089 0.930 . S
C3097 C3095 1.419 . S
C3097 C3098 1.362 . S
C3098 H3090 0.930 . S
C3098 C3097 1.362 . S
C3098 C3101 1.409 . S
C3099 H3091 0.930 . S
C3099 C3100 1.355 . S
C3099 C3101 1.415 . S
C3100 C3099 1.355 . S
C3100 C3102 1.419 . S
C3101 C3096 1.425 . S
C3101 C3098 1.409 . S
C3101 C3099 1.415 . S
C3102 H3092 0.930 . S
C3102 C3100 1.419 . S
C3102 C3103 1.362 . S
C3103 H3093 0.930 . S
C3103 C3096 1.409 . S
C3103 C3102 1.362 . S
H3104 C3110 0.930 . S
H3105 C3113 0.930 . S
H3106 C3114 0.930 . S
H3107 C3115 0.930 . S
H3108 C3118 0.930 . S
H3109 C3119 0.930 . S
C3110 H3104 0.930 . S
C3110 C3111 1.355 . S
C3110 C3112 1.415 . S
C3111 C3110 1.355 . S
C3111 C3113 1.419 . S
C3112 C3110 1.415 . S
C3112 C3117 1.425 . S
C3112 C3119 1.409 . S
C3113 H3105 0.930 . S
C3113 C3111 1.419 . S
C3113 C3114 1.362 . S
C3114 H3106 0.930 . S
C3114 C3113 1.362 . S
C3114 C3117 1.409 . S
C3115 H3107 0.930 . S
C3115 C3116 1.355 . S
C3115 C3117 1.415 . S
C3116 C3115 1.355 . S
C3116 C3118 1.419 . S
C3117 C3112 1.425 . S
C3117 C3114 1.409 . S
C3117 C3115 1.415 . S
C3118 H3108 0.930 . S
C3118 C3116 1.419 . S
C3118 C3119 1.362 . S
C3119 H3109 0.930 . S
C3119 C3112 1.409 . S
C3119 C3118 1.362 . S
H3120 C3126 0.930 . S
H3121 C3129 0.930 . S
H3122 C3130 0.930 . S
H3123 C3131 0.930 . S
H3124 C3134 0.930 . S
H3125 C3135 0.930 . S
C3126 H3120 0.930 . S
C3126 C3127 1.355 . S
C3126 C3128 1.415 . S
C3127 C3126 1.355 . S
C3127 C3129 1.419 . S
C3128 C3126 1.415 . S
C3128 C3133 1.425 . S
C3128 C3135 1.409 . S
C3129 H3121 0.930 . S
C3129 C3127 1.419 . S
C3129 C3130 1.362 . S
C3130 H3122 0.930 . S
C3130 C3129 1.362 . S
C3130 C3133 1.409 . S
C3131 H3123 0.930 . S
C3131 C3132 1.355 . S
C3131 C3133 1.415 . S
C3132 C3131 1.355 . S
C3132 C3134 1.419 . S
C3133 C3128 1.425 . S
C3133 C3130 1.409 . S
C3133 C3131 1.415 . S
C3134 H3124 0.930 . S
C3134 C3132 1.419 . S
C3134 C3135 1.362 . S
C3135 H3125 0.930 . S
C3135 C3128 1.409 . S
C3135 C3134 1.362 . S
H3136 C3142 0.930 . S
H3137 C3145 0.930 . S
H3138 C3146 0.930 . S
H3139 C3147 0.930 . S
H3140 C3150 0.930 1_545 S
H3141 C3151 0.941 . S
C3142 H3136 0.930 . S
C3142 C3143 1.355 . S
C3142 C3144 1.415 . S
C3143 C3142 1.355 . S
C3143 C3145 1.419 . S
C3144 C3142 1.415 . S
C3144 C3149 1.425 . S
C3144 C3151 1.409 . S
C3145 H3137 0.930 . S
C3145 C3143 1.419 . S
C3145 C3146 1.362 . S
C3146 H3138 0.930 . S
C3146 C3145 1.362 . S
C3146 C3149 1.409 . S
C3147 H3139 0.930 . S
C3147 C3148 1.355 . S
C3147 C3149 1.415 . S
C3148 C3147 1.355 . S
C3148 C3150 1.419 . S
C3149 C3144 1.425 . S
C3149 C3146 1.409 . S
C3149 C3147 1.415 . S
C3150 H3140 0.930 1_565 S
C3150 C3148 1.419 . S
C3150 C3151 1.362 . S
C3151 H3141 0.941 . S
C3151 C3144 1.409 . S
C3151 C3150 1.362 . S
H3152 C3158 0.930 . S
H3153 C3161 0.930 . S
H3154 C3162 0.930 . S
H3155 C3163 0.930 . S
H3156 C3166 0.930 . S
H3157 C3167 0.930 . S
C3158 H3152 0.930 . S
C3158 C3159 1.355 . S
C3158 C3160 1.415 . S
C3159 C3158 1.355 . S
C3159 C3161 1.419 . S
C3160 C3158 1.415 . S
C3160 C3165 1.425 . S
C3160 C3167 1.409 . S
C3161 H3153 0.930 . S
C3161 C3159 1.419 . S
C3161 C3162 1.362 . S
C3162 H3154 0.930 . S
C3162 C3161 1.362 . S
C3162 C3165 1.409 . S
C3163 H3155 0.930 . S
C3163 C3164 1.355 . S
C3163 C3165 1.415 . S
C3164 C3163 1.355 . S
C3164 C3166 1.419 . S
C3165 C3160 1.425 . S
C3165 C3162 1.409 . S
C3165 C3163 1.415 . S
C3166 H3156 0.930 . S
C3166 C3164 1.419 . S
C3166 C3167 1.362 . S
C3167 H3157 0.930 . S
C3167 C3160 1.409 . S
C3167 C3166 1.362 . S
H3168 C3174 0.930 . S
H3169 C3177 0.930 . S
H3170 C3178 0.930 . S
H3171 C3179 0.930 . S
H3172 C3182 0.930 . S
H3173 C3183 0.930 . S
C3174 H3168 0.930 . S
C3174 C3175 1.355 . S
C3174 C3176 1.415 . S
C3175 C3174 1.355 . S
C3175 C3177 1.419 . S
C3176 C3174 1.415 . S
C3176 C3181 1.425 . S
C3176 C3183 1.409 . S
C3177 H3169 0.930 . S
C3177 C3175 1.419 . S
C3177 C3178 1.362 . S
C3178 H3170 0.930 . S
C3178 C3177 1.362 . S
C3178 C3181 1.409 . S
C3179 H3171 0.930 . S
C3179 C3180 1.355 . S
C3179 C3181 1.415 . S
C3180 C3179 1.355 . S
C3180 C3182 1.419 . S
C3181 C3176 1.425 . S
C3181 C3178 1.409 . S
C3181 C3179 1.415 . S
C3182 H3172 0.930 . S
C3182 C3180 1.419 . S
C3182 C3183 1.362 . S
C3183 H3173 0.930 . S
C3183 C3176 1.409 . S
C3183 C3182 1.362 . S
H3184 C3190 0.930 . S
H3185 C3193 0.930 . S
H3186 C3194 0.930 . S
H3187 C3195 0.930 . S
H3188 C3198 0.930 . S
H3189 C3199 0.930 . S
C3190 H3184 0.930 . S
C3190 C3191 1.355 . S
C3190 C3192 1.415 . S
C3191 C3190 1.355 . S
C3191 C3193 1.419 . S
C3192 C3190 1.415 . S
C3192 C3197 1.425 . S
C3192 C3199 1.409 . S
C3193 H3185 0.930 . S
C3193 C3191 1.419 . S
C3193 C3194 1.362 . S
C3194 H3186 0.930 . S
C3194 C3193 1.362 . S
C3194 C3197 1.409 . S
C3195 H3187 0.930 . S
C3195 C3196 1.355 . S
C3195 C3197 1.415 . S
C3196 C3195 1.355 . S
C3196 C3198 1.419 . S
C3197 C3192 1.425 . S
C3197 C3194 1.409 . S
C3197 C3195 1.415 . S
C3198 H3188 0.930 . S
C3198 C3196 1.419 . S
C3198 C3199 1.362 . S
C3199 H3189 0.930 . S
C3199 C3192 1.409 . S
C3199 C3198 1.362 . S
H3200 C3206 0.930 . S
H3201 C3209 0.930 . S
H3202 C3210 0.930 . S
H3203 C3211 0.930 . S
H3204 C3214 0.930 . S
H3205 C3215 0.930 . S
C3206 H3200 0.930 . S
C3206 C3207 1.355 . S
C3206 C3208 1.415 . S
C3207 C3206 1.355 . S
C3207 C3209 1.419 . S
C3208 C3206 1.415 . S
C3208 C3213 1.425 . S
C3208 C3215 1.409 . S
C3209 H3201 0.930 . S
C3209 C3207 1.419 . S
C3209 C3210 1.362 . S
C3210 H3202 0.930 . S
C3210 C3209 1.362 . S
C3210 C3213 1.409 . S
C3211 H3203 0.930 . S
C3211 C3212 1.355 . S
C3211 C3213 1.415 . S
C3212 C3211 1.355 . S
C3212 C3214 1.419 . S
C3213 C3208 1.425 . S
C3213 C3210 1.409 . S
C3213 C3211 1.415 . S
C3214 H3204 0.930 . S
C3214 C3212 1.419 . S
C3214 C3215 1.362 . S
C3215 H3205 0.930 . S
C3215 C3208 1.409 . S
C3215 C3214 1.362 . S
H3216 C3222 0.930 . S
H3217 C3225 0.930 . S
H3218 C3226 0.930 . S
H3219 C3227 0.930 . S
H3220 C3230 0.930 . S
H3221 C3231 0.930 . S
C3222 H3216 0.930 . S
C3222 C3223 1.355 . S
C3222 C3224 1.415 . S
C3223 C3222 1.355 . S
C3223 C3225 1.419 . S
C3224 C3222 1.415 . S
C3224 C3229 1.425 . S
C3224 C3231 1.409 . S
C3225 H3217 0.930 . S
C3225 C3223 1.419 . S
C3225 C3226 1.362 . S
C3226 H3218 0.930 . S
C3226 C3225 1.362 . S
C3226 C3229 1.409 . S
C3227 H3219 0.930 . S
C3227 C3228 1.355 . S
C3227 C3229 1.415 . S
C3228 C3227 1.355 . S
C3228 C3230 1.419 . S
C3229 C3224 1.425 . S
C3229 C3226 1.409 . S
C3229 C3227 1.415 . S
C3230 H3220 0.930 . S
C3230 C3228 1.419 . S
C3230 C3231 1.362 . S
C3231 H3221 0.930 . S
C3231 C3224 1.409 . S
C3231 C3230 1.362 . S
H3232 C3238 0.930 . S
H3233 C3241 0.930 . S
H3234 C3242 0.930 . S
H3235 C3243 0.930 . S
H3236 C3246 0.930 . S
H3237 C3247 0.930 . S
C3238 H3232 0.930 . S
C3238 C3239 1.355 . S
C3238 C3240 1.415 . S
C3239 C3238 1.355 . S
C3239 C3241 1.419 . S
C3240 C3238 1.415 . S
C3240 C3245 1.425 . S
C3240 C3247 1.409 . S
C3241 H3233 0.930 . S
C3241 C3239 1.419 . S
C3241 C3242 1.362 . S
C3242 H3234 0.930 . S
C3242 C3241 1.362 . S
C3242 C3245 1.409 . S
C3243 H3235 0.930 . S
C3243 C3244 1.355 . S
C3243 C3245 1.415 . S
C3244 C3243 1.355 . S
C3244 C3246 1.419 . S
C3245 C3240 1.425 . S
C3245 C3242 1.409 . S
C3245 C3243 1.415 . S
C3246 H3236 0.930 . S
C3246 C3244 1.419 . S
C3246 C3247 1.362 . S
C3247 H3237 0.930 . S
C3247 C3240 1.409 . S
C3247 C3246 1.362 . S
H3248 C3254 0.930 . S
H3249 C3257 0.930 . S
H3250 C3258 0.930 . S
H3251 C3259 0.930 . S
H3252 C3262 0.930 . S
H3253 C3263 0.930 . S
C3254 H3248 0.930 . S
C3254 C3255 1.355 . S
C3254 C3256 1.415 . S
C3255 C3254 1.355 . S
C3255 C3257 1.419 . S
C3256 C3254 1.415 . S
C3256 C3261 1.425 . S
C3256 C3263 1.409 . S
C3257 H3249 0.930 . S
C3257 C3255 1.419 . S
C3257 C3258 1.362 . S
C3258 H3250 0.930 . S
C3258 C3257 1.362 . S
C3258 C3261 1.409 . S
C3259 H3251 0.930 . S
C3259 C3260 1.355 . S
C3259 C3261 1.415 . S
C3260 C3259 1.355 . S
C3260 C3262 1.419 . S
C3261 C3256 1.425 . S
C3261 C3258 1.409 . S
C3261 C3259 1.415 . S
C3262 H3252 0.930 . S
C3262 C3260 1.419 . S
C3262 C3263 1.362 . S
C3263 H3253 0.930 . S
C3263 C3256 1.409 . S
C3263 C3262 1.362 . S
H3264 C3270 0.930 . S
H3265 C3273 0.930 . S
H3266 C3274 0.930 . S
H3267 C3275 0.930 . S
H3268 C3278 0.930 . S
H3269 C3279 0.930 . S
C3270 H3264 0.930 . S
C3270 C3271 1.355 . S
C3270 C3272 1.415 . S
C3271 C3270 1.355 . S
C3271 C3273 1.419 . S
C3272 C3270 1.415 . S
C3272 C3277 1.425 . S
C3272 C3279 1.409 . S
C3273 H3265 0.930 . S
C3273 C3271 1.419 . S
C3273 C3274 1.362 . S
C3274 H3266 0.930 . S
C3274 C3273 1.362 . S
C3274 C3277 1.409 . S
C3275 H3267 0.930 . S
C3275 C3276 1.355 . S
C3275 C3277 1.415 . S
C3276 C3275 1.355 . S
C3276 C3278 1.419 . S
C3277 C3272 1.425 . S
C3277 C3274 1.409 . S
C3277 C3275 1.415 . S
C3278 H3268 0.930 . S
C3278 C3276 1.419 . S
C3278 C3279 1.362 . S
C3279 H3269 0.930 . S
C3279 C3272 1.409 . S
C3279 C3278 1.362 . S
H3280 C3286 0.930 . S
H3281 C3289 0.930 . S
H3282 C3290 0.930 . S
H3283 C3291 0.930 . S
H3284 C3294 0.930 . S
H3285 C3295 0.930 . S
C3286 H3280 0.930 . S
C3286 C3287 1.355 . S
C3286 C3288 1.415 . S
C3287 C3286 1.355 . S
C3287 C3289 1.419 . S
C3288 C3286 1.415 . S
C3288 C3293 1.425 . S
C3288 C3295 1.409 . S
C3289 H3281 0.930 . S
C3289 C3287 1.419 . S
C3289 C3290 1.362 . S
C3290 H3282 0.930 . S
C3290 C3289 1.362 . S
C3290 C3293 1.409 . S
C3291 H3283 0.930 . S
C3291 C3292 1.355 . S
C3291 C3293 1.415 . S
C3292 C3291 1.355 . S
C3292 C3294 1.419 . S
C3293 C3288 1.425 . S
C3293 C3290 1.409 . S
C3293 C3291 1.415 . S
C3294 H3284 0.930 . S
C3294 C3292 1.419 . S
C3294 C3295 1.362 . S
C3295 H3285 0.930 . S
C3295 C3288 1.409 . S
C3295 C3294 1.362 . S
H3296 C3302 0.930 . S
H3297 C3305 0.930 . S
H3298 C3306 0.930 . S
H3299 C3307 0.930 . S
H3300 C3310 0.930 . S
H3301 C3311 0.930 . S
C3302 H3296 0.930 . S
C3302 C3303 1.355 . S
C3302 C3304 1.415 . S
C3303 C3302 1.355 . S
C3303 C3305 1.419 . S
C3304 C3302 1.415 . S
C3304 C3309 1.425 . S
C3304 C3311 1.409 . S
C3305 H3297 0.930 . S
C3305 C3303 1.419 . S
C3305 C3306 1.362 . S
C3306 H3298 0.930 . S
C3306 C3305 1.362 . S
C3306 C3309 1.409 . S
C3307 H3299 0.930 . S
C3307 C3308 1.355 . S
C3307 C3309 1.415 . S
C3308 C3307 1.355 . S
C3308 C3310 1.419 . S
C3309 C3304 1.425 . S
C3309 C3306 1.409 . S
C3309 C3307 1.415 . S
C3310 H3300 0.930 . S
C3310 C3308 1.419 . S
C3310 C3311 1.362 . S
C3311 H3301 0.930 . S
C3311 C3304 1.409 . S
C3311 C3310 1.362 . S
H3312 C3318 0.930 . S
H3313 C3321 0.930 . S
H3314 C3322 0.930 . S
H3315 C3323 0.930 . S
H3316 C3326 0.930 . S
H3317 C3327 0.930 . S
C3318 H3312 0.930 . S
C3318 C3319 1.355 . S
C3318 C3320 1.415 . S
C3319 C3318 1.355 . S
C3319 C3321 1.419 . S
C3320 C3318 1.415 . S
C3320 C3325 1.425 . S
C3320 C3327 1.409 . S
C3321 H3313 0.930 . S
C3321 C3319 1.419 . S
C3321 C3322 1.362 . S
C3322 H3314 0.930 . S
C3322 C3321 1.362 . S
C3322 C3325 1.409 . S
C3323 H3315 0.930 . S
C3323 C3324 1.355 . S
C3323 C3325 1.415 . S
C3324 C3323 1.355 . S
C3324 C3326 1.419 . S
C3325 C3320 1.425 . S
C3325 C3322 1.409 . S
C3325 C3323 1.415 . S
C3326 H3316 0.930 . S
C3326 C3324 1.419 . S
C3326 C3327 1.362 . S
C3327 H3317 0.930 . S
C3327 C3320 1.409 . S
C3327 C3326 1.362 . S
H3328 C3334 0.930 . S
H3329 C3337 0.930 . S
H3330 C3338 0.930 . S
H3331 C3339 0.930 . S
H3332 C3342 0.930 . S
H3333 C3343 0.930 . S
C3334 H3328 0.930 . S
C3334 C3335 1.355 . S
C3334 C3336 1.415 . S
C3335 C3334 1.355 . S
C3335 C3337 1.419 . S
C3336 C3334 1.415 . S
C3336 C3341 1.425 . S
C3336 C3343 1.409 . S
C3337 H3329 0.930 . S
C3337 C3335 1.419 . S
C3337 C3338 1.362 . S
C3338 H3330 0.930 . S
C3338 C3337 1.362 . S
C3338 C3341 1.409 . S
C3339 H3331 0.930 . S
C3339 C3340 1.355 . S
C3339 C3341 1.415 . S
C3340 C3339 1.355 . S
C3340 C3342 1.419 . S
C3341 C3336 1.425 . S
C3341 C3338 1.409 . S
C3341 C3339 1.415 . S
C3342 H3332 0.930 . S
C3342 C3340 1.419 . S
C3342 C3343 1.362 . S
C3343 H3333 0.930 . S
C3343 C3336 1.409 . S
C3343 C3342 1.362 . S
H3344 C3350 0.930 . S
H3345 C3353 0.930 . S
H3346 C3354 0.930 . S
H3347 C3355 0.930 . S
H3348 C3358 0.930 . S
H3349 C3359 0.930 . S
C3350 H3344 0.930 . S
C3350 C3351 1.355 . S
C3350 C3352 1.415 . S
C3351 C3350 1.355 . S
C3351 C3353 1.419 . S
C3352 C3350 1.415 . S
C3352 C3357 1.425 . S
C3352 C3359 1.409 . S
C3353 H3345 0.930 . S
C3353 C3351 1.419 . S
C3353 C3354 1.362 . S
C3354 H3346 0.930 . S
C3354 C3353 1.362 . S
C3354 C3357 1.409 . S
C3355 H3347 0.930 . S
C3355 C3356 1.355 . S
C3355 C3357 1.415 . S
C3356 C3355 1.355 . S
C3356 C3358 1.419 . S
C3357 C3352 1.425 . S
C3357 C3354 1.409 . S
C3357 C3355 1.415 . S
C3358 H3348 0.930 . S
C3358 C3356 1.419 . S
C3358 C3359 1.362 . S
C3359 H3349 0.930 . S
C3359 C3352 1.409 . S
C3359 C3358 1.362 . S
H3360 C3366 0.930 . S
H3361 C3369 0.930 . S
H3362 C3370 0.930 . S
H3363 C3371 0.930 . S
H3364 C3374 0.930 . S
H3365 C3375 0.930 . S
C3366 H3360 0.930 . S
C3366 C3367 1.355 . S
C3366 C3368 1.415 . S
C3367 C3366 1.355 . S
C3367 C3369 1.419 . S
C3368 C3366 1.415 . S
C3368 C3373 1.425 . S
C3368 C3375 1.409 . S
C3369 H3361 0.930 . S
C3369 C3367 1.419 . S
C3369 C3370 1.362 . S
C3370 H3362 0.930 . S
C3370 C3369 1.362 . S
C3370 C3373 1.409 . S
C3371 H3363 0.930 . S
C3371 C3372 1.355 . S
C3371 C3373 1.415 . S
C3372 C3371 1.355 . S
C3372 C3374 1.419 . S
C3373 C3368 1.425 . S
C3373 C3370 1.409 . S
C3373 C3371 1.415 . S
C3374 H3364 0.930 . S
C3374 C3372 1.419 . S
C3374 C3375 1.362 . S
C3375 H3365 0.930 . S
C3375 C3368 1.409 . S
C3375 C3374 1.362 . S
H3376 C3382 0.930 . S
H3377 C3385 0.930 . S
H3378 C3386 0.930 . S
H3379 C3387 0.930 . S
H3380 C3390 0.930 . S
H3381 C3391 0.930 . S
C3382 H3376 0.930 . S
C3382 C3383 1.355 . S
C3382 C3384 1.415 . S
C3383 C3382 1.355 . S
C3383 C3385 1.419 . S
C3384 C3382 1.415 . S
C3384 C3389 1.425 . S
C3384 C3391 1.409 . S
C3385 H3377 0.930 . S
C3385 C3383 1.419 . S
C3385 C3386 1.362 . S
C3386 H3378 0.930 . S
C3386 C3385 1.362 . S
C3386 C3389 1.409 . S
C3387 H3379 0.930 . S
C3387 C3388 1.355 . S
C3387 C3389 1.415 . S
C3388 C3387 1.355 . S
C3388 C3390 1.419 . S
C3389 C3384 1.425 . S
C3389 C3386 1.409 . S
C3389 C3387 1.415 . S
C3390 H3380 0.930 . S
C3390 C3388 1.419 . S
C3390 C3391 1.362 . S
C3391 H3381 0.930 . S
C3391 C3384 1.409 . S
C3391 C3390 1.362 . S
H3392 C3398 0.930 . S
H3393 C3401 0.930 . S
H3394 C3402 0.930 . S
H3395 C3403 0.930 . S
H3396 C3406 0.930 . S
H3397 C3407 0.930 . S
C3398 H3392 0.930 . S
C3398 C3399 1.355 . S
C3398 C3400 1.415 . S
C3399 C3398 1.355 . S
C3399 C3401 1.419 . S
C3400 C3398 1.415 . S
C3400 C3405 1.425 . S
C3400 C3407 1.409 . S
C3401 H3393 0.930 . S
C3401 C3399 1.419 . S
C3401 C3402 1.362 . S
C3402 H3394 0.930 . S
C3402 C3401 1.362 . S
C3402 C3405 1.409 . S
C3403 H3395 0.930 . S
C3403 C3404 1.355 . S
C3403 C3405 1.415 . S
C3404 C3403 1.355 . S
C3404 C3406 1.419 . S
C3405 C3400 1.425 . S
C3405 C3402 1.409 . S
C3405 C3403 1.415 . S
C3406 H3396 0.930 . S
C3406 C3404 1.419 . S
C3406 C3407 1.362 . S
C3407 H3397 0.930 . S
C3407 C3400 1.409 . S
C3407 C3406 1.362 . S
H3408 C3414 0.930 . S
H3409 C3417 0.930 . S
H3410 C3418 0.930 . S
H3411 C3419 0.930 . S
H3412 C3422 0.930 . S
H3413 C3423 0.930 . S
C3414 H3408 0.930 . S
C3414 C3415 1.355 . S
C3414 C3416 1.415 . S
C3415 C3414 1.355 . S
C3415 C3417 1.419 . S
C3416 C3414 1.415 . S
C3416 C3421 1.425 . S
C3416 C3423 1.409 . S
C3417 H3409 0.930 . S
C3417 C3415 1.419 . S
C3417 C3418 1.362 . S
C3418 H3410 0.930 . S
C3418 C3417 1.362 . S
C3418 C3421 1.409 . S
C3419 H3411 0.930 . S
C3419 C3420 1.355 . S
C3419 C3421 1.415 . S
C3420 C3419 1.355 . S
C3420 C3422 1.419 . S
C3421 C3416 1.425 . S
C3421 C3418 1.409 . S
C3421 C3419 1.415 . S
C3422 H3412 0.930 . S
C3422 C3420 1.419 . S
C3422 C3423 1.362 . S
C3423 H3413 0.930 . S
C3423 C3416 1.409 . S
C3423 C3422 1.362 . S
H3424 C3430 0.930 . S
H3425 C3433 0.930 . S
H3426 C3434 0.930 . S
H3427 C3435 0.930 . S
H3428 C3438 0.930 . S
H3429 C3439 0.930 . S
C3430 H3424 0.930 . S
C3430 C3431 1.355 . S
C3430 C3432 1.415 . S
C3431 C3430 1.355 . S
C3431 C3433 1.419 . S
C3432 C3430 1.415 . S
C3432 C3437 1.425 . S
C3432 C3439 1.409 . S
C3433 H3425 0.930 . S
C3433 C3431 1.419 . S
C3433 C3434 1.362 . S
C3434 H3426 0.930 . S
C3434 C3433 1.362 . S
C3434 C3437 1.409 . S
C3435 H3427 0.930 . S
C3435 C3436 1.355 . S
C3435 C3437 1.415 . S
C3436 C3435 1.355 . S
C3436 C3438 1.419 . S
C3437 C3432 1.425 . S
C3437 C3434 1.409 . S
C3437 C3435 1.415 . S
C3438 H3428 0.930 . S
C3438 C3436 1.419 . S
C3438 C3439 1.362 . S
C3439 H3429 0.930 . S
C3439 C3432 1.409 . S
C3439 C3438 1.362 . S
H3440 C3446 0.930 . S
H3441 C3449 0.930 . S
H3442 C3450 0.930 . S
H3443 C3451 0.930 . S
H3444 C3454 0.930 . S
H3445 C3455 0.930 . S
C3446 H3440 0.930 . S
C3446 C3447 1.355 . S
C3446 C3448 1.415 . S
C3447 C3446 1.355 . S
C3447 C3449 1.419 . S
C3448 C3446 1.415 . S
C3448 C3453 1.425 . S
C3448 C3455 1.409 . S
C3449 H3441 0.930 . S
C3449 C3447 1.419 . S
C3449 C3450 1.362 . S
C3450 H3442 0.930 . S
C3450 C3449 1.362 . S
C3450 C3453 1.409 . S
C3451 H3443 0.930 . S
C3451 C3452 1.355 . S
C3451 C3453 1.415 . S
C3452 C3451 1.355 . S
C3452 C3454 1.419 . S
C3453 C3448 1.425 . S
C3453 C3450 1.409 . S
C3453 C3451 1.415 . S
C3454 H3444 0.930 . S
C3454 C3452 1.419 . S
C3454 C3455 1.362 . S
C3455 H3445 0.930 . S
C3455 C3448 1.409 . S
C3455 C3454 1.362 . S
H3456 C3462 0.930 . S
H3457 C3465 0.930 . S
H3458 C3466 0.930 . S
H3459 C3467 0.930 . S
H3460 C3470 0.930 . S
H3461 C3471 0.930 . S
C3462 H3456 0.930 . S
C3462 C3463 1.355 . S
C3462 C3464 1.415 . S
C3463 C3462 1.355 . S
C3463 C3465 1.419 . S
C3464 C3462 1.415 . S
C3464 C3469 1.425 . S
C3464 C3471 1.409 . S
C3465 H3457 0.930 . S
C3465 C3463 1.419 . S
C3465 C3466 1.362 . S
C3466 H3458 0.930 . S
C3466 C3465 1.362 . S
C3466 C3469 1.409 . S
C3467 H3459 0.930 . S
C3467 C3468 1.355 . S
C3467 C3469 1.415 . S
C3468 C3467 1.355 . S
C3468 C3470 1.419 . S
C3469 C3464 1.425 . S
C3469 C3466 1.409 . S
C3469 C3467 1.415 . S
C3470 H3460 0.930 . S
C3470 C3468 1.419 . S
C3470 C3471 1.362 . S
C3471 H3461 0.930 . S
C3471 C3464 1.409 . S
C3471 C3470 1.362 . S
H3472 C3478 0.930 . S
H3473 C3481 0.930 . S
H3474 C3482 0.930 . S
H3475 C3483 0.930 . S
H3476 C3486 0.930 . S
H3477 C3487 0.930 . S
C3478 H3472 0.930 . S
C3478 C3479 1.355 . S
C3478 C3480 1.415 . S
C3479 C3478 1.355 . S
C3479 C3481 1.419 . S
C3480 C3478 1.415 . S
C3480 C3485 1.425 . S
C3480 C3487 1.409 . S
C3481 H3473 0.930 . S
C3481 C3479 1.419 . S
C3481 C3482 1.362 . S
C3482 H3474 0.930 . S
C3482 C3481 1.362 . S
C3482 C3485 1.409 . S
C3483 H3475 0.930 . S
C3483 C3484 1.355 . S
C3483 C3485 1.415 . S
C3484 C3483 1.355 . S
C3484 C3486 1.419 . S
C3485 C3480 1.425 . S
C3485 C3482 1.409 . S
C3485 C3483 1.415 . S
C3486 H3476 0.930 . S
C3486 C3484 1.419 . S
C3486 C3487 1.362 . S
C3487 H3477 0.930 . S
C3487 C3480 1.409 . S
C3487 C3486 1.362 . S
H3488 C3494 0.930 . S
H3489 C3497 0.930 . S
H3490 C3498 0.930 . S
H3491 C3499 0.930 . S
H3492 C3502 0.930 . S
H3493 C3503 0.930 . S
C3494 H3488 0.930 . S
C3494 C3495 1.355 . S
C3494 C3496 1.415 . S
C3495 C3494 1.355 . S
C3495 C3497 1.419 . S
C3496 C3494 1.415 . S
C3496 C3501 1.425 . S
C3496 C3503 1.409 . S
C3497 H3489 0.930 . S
C3497 C3495 1.419 . S
C3497 C3498 1.362 . S
C3498 H3490 0.930 . S
C3498 C3497 1.362 . S
C3498 C3501 1.409 . S
C3499 H3491 0.930 . S
C3499 C3500 1.355 . S
C3499 C3501 1.415 . S
C3500 C3499 1.355 . S
C3500 C3502 1.419 . S
C3501 C3496 1.425 . S
C3501 C3498 1.409 . S
C3501 C3499 1.415 . S
C3502 H3492 0.930 . S
C3502 C3500 1.419 . S
C3502 C3503 1.362 . S
C3503 H3493 0.930 . S
C3503 C3496 1.409 . S
C3503 C3502 1.362 . S
H3504 C3510 0.930 . S
H3505 C3513 0.930 . S
H3506 C3514 0.930 . S
H3507 C3515 0.930 . S
H3508 C3518 0.930 . S
H3509 C3519 0.930 . S
C3510 H3504 0.930 . S
C3510 C3511 1.355 . S
C3510 C3512 1.415 . S
C3511 C3510 1.355 . S
C3511 C3513 1.419 . S
C3512 C3510 1.415 . S
C3512 C3517 1.425 . S
C3512 C3519 1.409 . S
C3513 H3505 0.930 . S
C3513 C3511 1.419 . S
C3513 C3514 1.362 . S
C3514 H3506 0.930 . S
C3514 C3513 1.362 . S
C3514 C3517 1.409 . S
C3515 H3507 0.930 . S
C3515 C3516 1.355 . S
C3515 C3517 1.415 . S
C3516 C3515 1.355 . S
C3516 C3518 1.419 . S
C3517 C3512 1.425 . S
C3517 C3514 1.409 . S
C3517 C3515 1.415 . S
C3518 H3508 0.930 . S
C3518 C3516 1.419 . S
C3518 C3519 1.362 . S
C3519 H3509 0.930 . S
C3519 C3512 1.409 . S
C3519 C3518 1.362 . S
H3520 C3526 0.930 . S
H3521 C3529 0.930 . S
H3522 C3530 0.930 . S
H3523 C3531 0.930 . S
H3524 C3534 0.930 . S
H3525 C3535 0.930 . S
C3526 H3520 0.930 . S
C3526 C3527 1.355 . S
C3526 C3528 1.415 . S
C3527 C3526 1.355 . S
C3527 C3529 1.419 . S
C3528 C3526 1.415 . S
C3528 C3533 1.425 . S
C3528 C3535 1.409 . S
C3529 H3521 0.930 . S
C3529 C3527 1.419 . S
C3529 C3530 1.362 . S
C3530 H3522 0.930 . S
C3530 C3529 1.362 . S
C3530 C3533 1.409 . S
C3531 H3523 0.930 . S
C3531 C3532 1.355 . S
C3531 C3533 1.415 . S
C3532 C3531 1.355 . S
C3532 C3534 1.419 . S
C3533 C3528 1.425 . S
C3533 C3530 1.409 . S
C3533 C3531 1.415 . S
C3534 H3524 0.930 . S
C3534 C3532 1.419 . S
C3534 C3535 1.362 . S
C3535 H3525 0.930 . S
C3535 C3528 1.409 . S
C3535 C3534 1.362 . S
H3536 C3542 0.930 . S
H3537 C3545 0.930 . S
H3538 C3546 0.930 . S
H3539 C3547 0.930 . S
H3540 C3550 0.930 . S
H3541 C3551 0.930 . S
C3542 H3536 0.930 . S
C3542 C3543 1.355 . S
C3542 C3544 1.415 . S
C3543 C3542 1.355 . S
C3543 C3545 1.419 . S
C3544 C3542 1.415 . S
C3544 C3549 1.425 . S
C3544 C3551 1.409 . S
C3545 H3537 0.930 . S
C3545 C3543 1.419 . S
C3545 C3546 1.362 . S
C3546 H3538 0.930 . S
C3546 C3545 1.362 . S
C3546 C3549 1.409 . S
C3547 H3539 0.930 . S
C3547 C3548 1.355 . S
C3547 C3549 1.415 . S
C3548 C3547 1.355 . S
C3548 C3550 1.419 . S
C3549 C3544 1.425 . S
C3549 C3546 1.409 . S
C3549 C3547 1.415 . S
C3550 H3540 0.930 . S
C3550 C3548 1.419 . S
C3550 C3551 1.362 . S
C3551 H3541 0.930 . S
C3551 C3544 1.409 . S
C3551 C3550 1.362 . S
H3552 C3558 0.930 . S
H3553 C3561 0.930 . S
H3554 C3562 0.930 . S
H3555 C3563 0.930 . S
H3556 C3566 0.930 . S
H3557 C3567 0.930 . S
C3558 H3552 0.930 . S
C3558 C3559 1.355 . S
C3558 C3560 1.415 . S
C3559 C3558 1.355 . S
C3559 C3561 1.419 . S
C3560 C3558 1.415 . S
C3560 C3565 1.425 . S
C3560 C3567 1.409 . S
C3561 H3553 0.930 . S
C3561 C3559 1.419 . S
C3561 C3562 1.362 . S
C3562 H3554 0.930 . S
C3562 C3561 1.362 . S
C3562 C3565 1.409 . S
C3563 H3555 0.930 . S
C3563 C3564 1.355 . S
C3563 C3565 1.415 . S
C3564 C3563 1.355 . S
C3564 C3566 1.419 . S
C3565 C3560 1.425 . S
C3565 C3562 1.409 . S
C3565 C3563 1.415 . S
C3566 H3556 0.930 . S
C3566 C3564 1.419 . S
C3566 C3567 1.362 . S
C3567 H3557 0.930 . S
C3567 C3560 1.409 . S
C3567 C3566 1.362 . S
H3568 C3574 0.930 . S
H3569 C3577 0.930 . S
H3570 C3578 0.930 . S
H3571 C3579 0.930 . S
H3572 C3582 0.930 . S
H3573 C3583 0.930 . S
C3574 H3568 0.930 . S
C3574 C3575 1.355 . S
C3574 C3576 1.415 . S
C3575 C3574 1.355 . S
C3575 C3577 1.419 . S
C3576 C3574 1.415 . S
C3576 C3581 1.425 . S
C3576 C3583 1.409 . S
C3577 H3569 0.930 . S
C3577 C3575 1.419 . S
C3577 C3578 1.362 . S
C3578 H3570 0.930 . S
C3578 C3577 1.362 . S
C3578 C3581 1.409 . S
C3579 H3571 0.930 . S
C3579 C3580 1.355 . S
C3579 C3581 1.415 . S
C3580 C3579 1.355 . S
C3580 C3582 1.419 . S
C3581 C3576 1.425 . S
C3581 C3578 1.409 . S
C3581 C3579 1.415 . S
C3582 H3572 0.930 . S
C3582 C3580 1.419 . S
C3582 C3583 1.362 . S
C3583 H3573 0.930 . S
C3583 C3576 1.409 . S
C3583 C3582 1.362 . S
H3584 C3590 0.930 . S
H3585 C3593 0.930 . S
H3586 C3594 0.930 . S
H3587 C3595 0.930 . S
H3588 C3598 0.930 . S
H3589 C3599 0.930 . S
C3590 H3584 0.930 . S
C3590 C3591 1.355 . S
C3590 C3592 1.415 . S
C3591 C3590 1.355 . S
C3591 C3593 1.419 . S
C3592 C3590 1.415 . S
C3592 C3597 1.425 . S
C3592 C3599 1.409 . S
C3593 H3585 0.930 . S
C3593 C3591 1.419 . S
C3593 C3594 1.362 . S
C3594 H3586 0.930 . S
C3594 C3593 1.362 . S
C3594 C3597 1.409 . S
C3595 H3587 0.930 . S
C3595 C3596 1.355 . S
C3595 C3597 1.415 . S
C3596 C3595 1.355 . S
C3596 C3598 1.419 . S
C3597 C3592 1.425 . S
C3597 C3594 1.409 . S
C3597 C3595 1.415 . S
C3598 H3588 0.930 . S
C3598 C3596 1.419 . S
C3598 C3599 1.362 . S
C3599 H3589 0.930 . S
C3599 C3592 1.409 . S
C3599 C3598 1.362 . S
H3600 C3606 0.930 . S
H3601 C3609 0.930 . S
H3602 C3610 0.930 . S
H3603 C3611 0.930 . S
H3604 C3614 0.930 . S
H3605 C3615 0.930 . S
C3606 H3600 0.930 . S
C3606 C3607 1.355 . S
C3606 C3608 1.415 . S
C3607 C3606 1.355 . S
C3607 C3609 1.419 . S
C3608 C3606 1.415 . S
C3608 C3613 1.425 . S
C3608 C3615 1.409 . S
C3609 H3601 0.930 . S
C3609 C3607 1.419 . S
C3609 C3610 1.362 . S
C3610 H3602 0.930 . S
C3610 C3609 1.362 . S
C3610 C3613 1.409 . S
C3611 H3603 0.930 . S
C3611 C3612 1.355 . S
C3611 C3613 1.415 . S
C3612 C3611 1.355 . S
C3612 C3614 1.419 . S
C3613 C3608 1.425 . S
C3613 C3610 1.409 . S
C3613 C3611 1.415 . S
C3614 H3604 0.930 . S
C3614 C3612 1.419 . S
C3614 C3615 1.362 . S
C3615 H3605 0.930 . S
C3615 C3608 1.409 . S
C3615 C3614 1.362 . S
H3616 C3622 0.930 . S
H3617 C3625 0.930 . S
H3618 C3626 0.930 . S
H3619 C3627 0.930 . S
H3620 C3630 0.930 . S
H3621 C3631 0.930 . S
C3622 H3616 0.930 . S
C3622 C3623 1.355 . S
C3622 C3624 1.415 . S
C3623 C3622 1.355 . S
C3623 C3625 1.419 . S
C3624 C3622 1.415 . S
C3624 C3629 1.425 . S
C3624 C3631 1.409 . S
C3625 H3617 0.930 . S
C3625 C3623 1.419 . S
C3625 C3626 1.362 . S
C3626 H3618 0.930 . S
C3626 C3625 1.362 . S
C3626 C3629 1.409 . S
C3627 H3619 0.930 . S
C3627 C3628 1.355 . S
C3627 C3629 1.415 . S
C3628 C3627 1.355 . S
C3628 C3630 1.419 . S
C3629 C3624 1.425 . S
C3629 C3626 1.409 . S
C3629 C3627 1.415 . S
C3630 H3620 0.930 . S
C3630 C3628 1.419 . S
C3630 C3631 1.362 . S
C3631 H3621 0.930 . S
C3631 C3624 1.409 . S
C3631 C3630 1.362 . S
H3632 C3638 0.930 . S
H3633 C3641 0.930 . S
H3634 C3642 0.930 . S
H3635 C3643 0.930 . S
H3636 C3646 0.930 . S
H3637 C3647 0.930 . S
C3638 H3632 0.930 . S
C3638 C3639 1.355 . S
C3638 C3640 1.415 . S
C3639 C3638 1.355 . S
C3639 C3641 1.419 . S
C3640 C3638 1.415 . S
C3640 C3645 1.425 . S
C3640 C3647 1.409 . S
C3641 H3633 0.930 . S
C3641 C3639 1.419 . S
C3641 C3642 1.362 . S
C3642 H3634 0.930 . S
C3642 C3641 1.362 . S
C3642 C3645 1.409 . S
C3643 H3635 0.930 . S
C3643 C3644 1.355 . S
C3643 C3645 1.415 . S
C3644 C3643 1.355 . S
C3644 C3646 1.419 . S
C3645 C3640 1.425 . S
C3645 C3642 1.409 . S
C3645 C3643 1.415 . S
C3646 H3636 0.930 . S
C3646 C3644 1.419 . S
C3646 C3647 1.362 . S
C3647 H3637 0.930 . S
C3647 C3640 1.409 . S
C3647 C3646 1.362 . S
H3648 C3654 0.930 . S
H3649 C3657 0.930 . S
H3650 C3658 0.930 . S
H3651 C3659 0.930 . S
H3652 C3662 0.930 . S
H3653 C3663 0.930 . S
C3654 H3648 0.930 . S
C3654 C3655 1.355 . S
C3654 C3656 1.415 . S
C3655 C3654 1.355 . S
C3655 C3657 1.419 . S
C3656 C3654 1.415 . S
C3656 C3661 1.425 . S
C3656 C3663 1.409 . S
C3657 H3649 0.930 . S
C3657 C3655 1.419 . S
C3657 C3658 1.362 . S
C3658 H3650 0.930 . S
C3658 C3657 1.362 . S
C3658 C3661 1.409 . S
C3659 H3651 0.930 . S
C3659 C3660 1.355 . S
C3659 C3661 1.415 . S
C3660 C3659 1.355 . S
C3660 C3662 1.419 . S
C3661 C3656 1.425 . S
C3661 C3658 1.409 . S
C3661 C3659 1.415 . S
C3662 H3652 0.930 . S
C3662 C3660 1.419 . S
C3662 C3663 1.362 . S
C3663 H3653 0.930 . S
C3663 C3656 1.409 . S
C3663 C3662 1.362 . S
C2140 C403 1.590 . S
C2135 C7 1.555 . S
C2156 C477 1.043 . S
C2151 C19 1.055 . S
C2167 C29 1.875 . S
C2172 C569 1.871 . S
C2188 C637 1.355 . S
C2183 C41 1.313 . S
C2199 C52 1.654 . S
C2204 C643 1.644 . S
C2215 C62 1.911 . S
C2220 C391 1.858 . S
C2231 C73 1.375 . S
C2236 C465 1.473 . S
C2252 C563 2.169 1_556 S
C2247 C82 1.928 . S
C2268 C699 1.332 . S
C2263 C5 1.275 . S
C2279 C16 1.136 . S
C2284 C773 1.223 . S
C2295 C30 1.726 . S
C2300 C859 1.651 . S
C2316 C921 1.654 . S
C2311 C40 1.591 . S
C2327 C49 1.445 . S
C2332 C995 1.526 . S
C2348 C1081 1.425 . S
C2343 C63 1.414 . S
C2359 C74 0.960 . S
C2364 C1131 1.019 . S
C2380 C1229 1.961 . S
C2375 C85 1.935 . S
C2391 C8 1.272 . S
C2396 C909 1.265 . S
C2407 C51 1.833 . S
C2412 C1087 1.835 . S
C2428 C1143 1.784 . S
C2423 C60 1.669 . S
C2439 C71 1.488 . S
C2444 C1235 1.798 . S
C2460 C983 2.400 . S
C2455 C84 2.270 . S
C2476 C761 1.628 . S
C2471 C27 1.682 . S
C2487 C38 1.041 . S
C2492 C865 1.433 . S
C2508 C687 1.657 . S
C2503 C18 1.744 . S
C2524 C1279 2.629 . S
C2519 C95 2.494 . S
C2535 C107 1.387 . S
C2540 C1353 1.309 . S
C2551 C117 2.304 . S
C2556 C1457 2.307 . S
C2572 C1501 1.227 . S
C2567 C129 1.301 . S
C2583 C140 1.306 . S
C2588 C1513 1.309 . S
C2599 C150 1.685 . S
C2604 C1291 1.834 . S
C2615 C161 1.323 . S
C2620 C1365 1.395 . S
C2631 C170 1.719 . S
C2636 C1451 1.851 . S
C2652 C1007 2.136 . S
C2647 C93 1.853 . S
C2663 C104 1.429 . S
C2668 C1587 1.676 . S
C2684 C1161 2.075 . S
C2679 C118 2.121 . S
C2695 C128 1.709 . S
C2700 C1679 1.694 . S
C2711 C137 1.192 . S
C2716 C711 1.211 . S
C2732 C1723 1.260 . S
C2727 C151 1.339 . S
C2743 C162 0.873 . S
C2748 C847 0.890 . S
C2764 C1821 1.769 . S
C2759 C173 1.698 . S
C2775 C96 1.964 . S
C2780 C1673 1.942 . S
C2796 C1735 1.672 . S
C2791 C139 1.666 . S
C2807 C148 1.346 . S
C2812 C835 1.515 . S
C2828 C1827 1.462 . S
C2823 C159 1.437 . S
C2839 C172 2.352 . S
C2844 C717 2.528 . S
C2855 C115 1.548 . S
C2860 C1575 1.677 . S
C2871 C126 1.100 . S
C2876 C1155 1.176 . S
C2887 C106 1.756 . S
C2892 C1013 1.802 . S
C2903 C183 1.965 . S
C2908 C1427 2.006 . S
C2924 C1531 1.709 . S
C2919 C195 1.727 . S
C2935 C205 2.197 . S
C2940 C1309 2.201 . S
C2951 C217 1.603 . S
C2956 C1383 1.619 . S
C2967 C228 1.626 . S
C2972 C1377 1.608 . S
C2983 C238 1.494 . S
C2988 C1439 1.557 . S
C3004 C1525 1.487 . S
C2999 C249 1.441 . S
C3015 C258 1.428 . S
C3020 C1303 1.824 . S
C3036 C1895 1.731 . S
C3031 C181 1.601 . S
C3047 C192 1.428 . S
C3052 C1069 1.618 . S
C3068 C1975 1.927 . S
C3063 C206 1.960 . S
C3079 C216 1.560 . S
C3084 C1217 1.526 . S
C3095 C225 1.631 . S
C3100 C2049 1.776 . S
C3111 C239 1.307 . S
C3116 C785 1.207 . S
C3132 C2105 1.080 . S
C3127 C250 1.082 . S
C3143 C261 1.906 . S
C3148 C933 2.048 . S
C3164 C1205 1.610 . S
C3159 C184 1.613 . S
C3180 C791 2.204 . S
C3175 C227 2.173 . S
C3191 C236 2.115 . S
C3196 C2093 2.045 . S
C3207 C247 1.600 . S
C3212 C939 1.720 . S
C3228 C2043 2.429 . S
C3223 C260 2.283 . S
C3244 C1057 1.631 . S
C3239 C203 1.434 . S
C3260 C1969 1.344 . S
C3255 C214 1.044 . S
C3276 C1901 1.959 . S
C3271 C194 1.944 . S
C3287 C271 2.005 . S
C3292 C539 2.002 . S
C3303 C283 1.177 . S
C3308 C625 1.186 . S
C3324 C415 1.873 . S
C3319 C293 1.916 . S
C3340 C489 1.266 . S
C3335 C305 1.330 . S
C3356 C495 1.713 . S
C3351 C316 1.748 . S
C3372 C551 1.654 . S
C3367 C326 1.609 . S
C3388 C613 1.002 . S
C3383 C337 0.929 . S
C3399 C346 2.015 . S
C3404 C421 2.189 1_556 S
C3415 C269 1.687 . S
C3420 C2019 1.811 . S
C3436 C1753 1.828 . S
C3431 C280 1.740 . S
C3452 C2117 2.119 . S
C3447 C294 2.162 . S
C3468 C1809 1.576 . S
C3463 C304 1.507 . S
C3479 C313 1.269 . S
C3484 C1883 1.419 . S
C3500 C1599 1.236 . S
C3495 C327 1.225 . S
C3516 C1945 0.564 . S
C3511 C338 0.669 . S
C3527 C349 1.825 . S
C3532 C1649 1.806 . S
C3548 C1797 1.825 . S
C3543 C272 1.819 . S
C3564 C1605 1.937 . S
C3559 C315 1.938 . S
C3580 C1957 1.976 . S
C3575 C324 1.968 . S
C3591 C335 1.227 . S
C3596 C1661 1.469 . S
C3607 C348 2.055 . S
C3612 C1871 2.127 . S
C3623 C291 1.809 . S
C3628 C1747 1.861 . S
C3639 C302 1.217 . S
C3644 C2123 1.637 . S
C3660 C2031 1.765 . S
C3655 C282 1.721 . S
