# Generated by pormake.
# Topology ptr, (4,4)-cn, num edge types: 1
# Building blocks:
#     Node 0, Type 0, BuildingBlock: TATPOV_clean_sbu_0, # of connection points: 4
#     Node 1, Type 0, BuildingBlock: TATPOV_clean_sbu_0, # of connection points: 4
#     Node 2, Type 0, BuildingBlock: TATPOV_clean_sbu_0, # of connection points: 4
#     Node 3, Type 0, BuildingBlock: TATPOV_clean_sbu_0, # of connection points: 4
#     Node 4, Type 0, BuildingBlock: TATPOV_clean_sbu_0, # of connection points: 4
#     Node 5, Type 0, BuildingBlock: TATPOV_clean_sbu_0, # of connection points: 4
#     Node 6, Type 0, BuildingBlock: TATPOV_clean_sbu_0, # of connection points: 4
#     Node 7, Type 0, BuildingBlock: TATPOV_clean_sbu_0, # of connection points: 4
#     Node 8, Type 0, BuildingBlock: TATPOV_clean_sbu_0, # of connection points: 4
#     Node 9, Type 0, BuildingBlock: TATPOV_clean_sbu_0, # of connection points: 4
#     Node 10, Type 0, BuildingBlock: TATPOV_clean_sbu_0, # of connection points: 4
#     Node 11, Type 0, BuildingBlock: TATPOV_clean_sbu_0, # of connection points: 4
#     Node 12, Type 0, BuildingBlock: TATPOV_clean_sbu_0, # of connection points: 4
#     Node 13, Type 0, BuildingBlock: TATPOV_clean_sbu_0, # of connection points: 4
#     Node 14, Type 0, BuildingBlock: TATPOV_clean_sbu_0, # of connection points: 4
#     Node 15, Type 0, BuildingBlock: TATPOV_clean_sbu_0, # of connection points: 4
#     Node 16, Type 0, BuildingBlock: TATPOV_clean_sbu_0, # of connection points: 4
#     Node 17, Type 0, BuildingBlock: TATPOV_clean_sbu_0, # of connection points: 4
#     Node 18, Type 1, BuildingBlock: NAHDIM_clean_linker_0, # of connection points: 4
#     Node 19, Type 1, BuildingBlock: NAHDIM_clean_linker_0, # of connection points: 4
#     Node 20, Type 1, BuildingBlock: NAHDIM_clean_linker_0, # of connection points: 4
#     Node 21, Type 1, BuildingBlock: NAHDIM_clean_linker_0, # of connection points: 4
#     Node 22, Type 1, BuildingBlock: NAHDIM_clean_linker_0, # of connection points: 4
#     Node 23, Type 1, BuildingBlock: NAHDIM_clean_linker_0, # of connection points: 4
#     Node 24, Type 1, BuildingBlock: NAHDIM_clean_linker_0, # of connection points: 4
#     Node 25, Type 1, BuildingBlock: NAHDIM_clean_linker_0, # of connection points: 4
#     Node 26, Type 1, BuildingBlock: NAHDIM_clean_linker_0, # of connection points: 4
#     Node 27, Type 1, BuildingBlock: NAHDIM_clean_linker_0, # of connection points: 4
#     Node 28, Type 1, BuildingBlock: NAHDIM_clean_linker_0, # of connection points: 4
#     Node 29, Type 1, BuildingBlock: NAHDIM_clean_linker_0, # of connection points: 4
#     Node 30, Type 1, BuildingBlock: NAHDIM_clean_linker_0, # of connection points: 4
#     Node 31, Type 1, BuildingBlock: NAHDIM_clean_linker_0, # of connection points: 4
#     Node 32, Type 1, BuildingBlock: NAHDIM_clean_linker_0, # of connection points: 4
#     Node 33, Type 1, BuildingBlock: NAHDIM_clean_linker_0, # of connection points: 4
#     Node 34, Type 1, BuildingBlock: NAHDIM_clean_linker_0, # of connection points: 4
#     Node 35, Type 1, BuildingBlock: NAHDIM_clean_linker_0, # of connection points: 4
#     Edge 36, Type (0, 1), BuildingBlock: CIFDUS_clean_linker_0, # of connection points: 2
#     Edge 37, Type (0, 1), BuildingBlock: CIFDUS_clean_linker_0, # of connection points: 2
#     Edge 38, Type (0, 1), BuildingBlock: CIFDUS_clean_linker_0, # of connection points: 2
#     Edge 39, Type (0, 1), BuildingBlock: CIFDUS_clean_linker_0, # of connection points: 2
#     Edge 40, Type (0, 1), BuildingBlock: CIFDUS_clean_linker_0, # of connection points: 2
#     Edge 41, Type (0, 1), BuildingBlock: CIFDUS_clean_linker_0, # of connection points: 2
#     Edge 42, Type (0, 1), BuildingBlock: CIFDUS_clean_linker_0, # of connection points: 2
#     Edge 43, Type (0, 1), BuildingBlock: CIFDUS_clean_linker_0, # of connection points: 2
#     Edge 44, Type (0, 1), BuildingBlock: CIFDUS_clean_linker_0, # of connection points: 2
#     Edge 45, Type (0, 1), BuildingBlock: CIFDUS_clean_linker_0, # of connection points: 2
#     Edge 46, Type (0, 1), BuildingBlock: CIFDUS_clean_linker_0, # of connection points: 2
#     Edge 47, Type (0, 1), BuildingBlock: CIFDUS_clean_linker_0, # of connection points: 2
#     Edge 48, Type (0, 1), BuildingBlock: CIFDUS_clean_linker_0, # of connection points: 2
#     Edge 49, Type (0, 1), BuildingBlock: CIFDUS_clean_linker_0, # of connection points: 2
#     Edge 50, Type (0, 1), BuildingBlock: CIFDUS_clean_linker_0, # of connection points: 2
#     Edge 51, Type (0, 1), BuildingBlock: CIFDUS_clean_linker_0, # of connection points: 2
#     Edge 52, Type (0, 1), BuildingBlock: CIFDUS_clean_linker_0, # of connection points: 2
#     Edge 53, Type (0, 1), BuildingBlock: CIFDUS_clean_linker_0, # of connection points: 2
#     Edge 54, Type (0, 1), BuildingBlock: CIFDUS_clean_linker_0, # of connection points: 2
#     Edge 55, Type (0, 1), BuildingBlock: CIFDUS_clean_linker_0, # of connection points: 2
#     Edge 56, Type (0, 1), BuildingBlock: CIFDUS_clean_linker_0, # of connection points: 2
#     Edge 57, Type (0, 1), BuildingBlock: CIFDUS_clean_linker_0, # of connection points: 2
#     Edge 58, Type (0, 1), BuildingBlock: CIFDUS_clean_linker_0, # of connection points: 2
#     Edge 59, Type (0, 1), BuildingBlock: CIFDUS_clean_linker_0, # of connection points: 2
#     Edge 60, Type (0, 1), BuildingBlock: CIFDUS_clean_linker_0, # of connection points: 2
#     Edge 61, Type (0, 1), BuildingBlock: CIFDUS_clean_linker_0, # of connection points: 2
#     Edge 62, Type (0, 1), BuildingBlock: CIFDUS_clean_linker_0, # of connection points: 2
#     Edge 63, Type (0, 1), BuildingBlock: CIFDUS_clean_linker_0, # of connection points: 2
#     Edge 64, Type (0, 1), BuildingBlock: CIFDUS_clean_linker_0, # of connection points: 2
#     Edge 65, Type (0, 1), BuildingBlock: CIFDUS_clean_linker_0, # of connection points: 2
#     Edge 66, Type (0, 1), BuildingBlock: CIFDUS_clean_linker_0, # of connection points: 2
#     Edge 67, Type (0, 1), BuildingBlock: CIFDUS_clean_linker_0, # of connection points: 2
#     Edge 68, Type (0, 1), BuildingBlock: CIFDUS_clean_linker_0, # of connection points: 2
#     Edge 69, Type (0, 1), BuildingBlock: CIFDUS_clean_linker_0, # of connection points: 2
#     Edge 70, Type (0, 1), BuildingBlock: CIFDUS_clean_linker_0, # of connection points: 2
#     Edge 71, Type (0, 1), BuildingBlock: CIFDUS_clean_linker_0, # of connection points: 2
#     Edge 72, Type (0, 1), BuildingBlock: CIFDUS_clean_linker_0, # of connection points: 2
#     Edge 73, Type (0, 1), BuildingBlock: CIFDUS_clean_linker_0, # of connection points: 2
#     Edge 74, Type (0, 1), BuildingBlock: CIFDUS_clean_linker_0, # of connection points: 2
#     Edge 75, Type (0, 1), BuildingBlock: CIFDUS_clean_linker_0, # of connection points: 2
#     Edge 76, Type (0, 1), BuildingBlock: CIFDUS_clean_linker_0, # of connection points: 2
#     Edge 77, Type (0, 1), BuildingBlock: CIFDUS_clean_linker_0, # of connection points: 2
#     Edge 78, Type (0, 1), BuildingBlock: CIFDUS_clean_linker_0, # of connection points: 2
#     Edge 79, Type (0, 1), BuildingBlock: CIFDUS_clean_linker_0, # of connection points: 2
#     Edge 80, Type (0, 1), BuildingBlock: CIFDUS_clean_linker_0, # of connection points: 2
#     Edge 81, Type (0, 1), BuildingBlock: CIFDUS_clean_linker_0, # of connection points: 2
#     Edge 82, Type (0, 1), BuildingBlock: CIFDUS_clean_linker_0, # of connection points: 2
#     Edge 83, Type (0, 1), BuildingBlock: CIFDUS_clean_linker_0, # of connection points: 2
#     Edge 84, Type (0, 1), BuildingBlock: CIFDUS_clean_linker_0, # of connection points: 2
#     Edge 85, Type (0, 1), BuildingBlock: CIFDUS_clean_linker_0, # of connection points: 2
#     Edge 86, Type (0, 1), BuildingBlock: CIFDUS_clean_linker_0, # of connection points: 2
#     Edge 87, Type (0, 1), BuildingBlock: CIFDUS_clean_linker_0, # of connection points: 2
#     Edge 88, Type (0, 1), BuildingBlock: CIFDUS_clean_linker_0, # of connection points: 2
#     Edge 89, Type (0, 1), BuildingBlock: CIFDUS_clean_linker_0, # of connection points: 2
#     Edge 90, Type (0, 1), BuildingBlock: CIFDUS_clean_linker_0, # of connection points: 2
#     Edge 91, Type (0, 1), BuildingBlock: CIFDUS_clean_linker_0, # of connection points: 2
#     Edge 92, Type (0, 1), BuildingBlock: CIFDUS_clean_linker_0, # of connection points: 2
#     Edge 93, Type (0, 1), BuildingBlock: CIFDUS_clean_linker_0, # of connection points: 2
#     Edge 94, Type (0, 1), BuildingBlock: CIFDUS_clean_linker_0, # of connection points: 2
#     Edge 95, Type (0, 1), BuildingBlock: CIFDUS_clean_linker_0, # of connection points: 2
#     Edge 96, Type (0, 1), BuildingBlock: CIFDUS_clean_linker_0, # of connection points: 2
#     Edge 97, Type (0, 1), BuildingBlock: CIFDUS_clean_linker_0, # of connection points: 2
#     Edge 98, Type (0, 1), BuildingBlock: CIFDUS_clean_linker_0, # of connection points: 2
#     Edge 99, Type (0, 1), BuildingBlock: CIFDUS_clean_linker_0, # of connection points: 2
#     Edge 100, Type (0, 1), BuildingBlock: CIFDUS_clean_linker_0, # of connection points: 2
#     Edge 101, Type (0, 1), BuildingBlock: CIFDUS_clean_linker_0, # of connection points: 2
#     Edge 102, Type (0, 1), BuildingBlock: CIFDUS_clean_linker_0, # of connection points: 2
#     Edge 103, Type (0, 1), BuildingBlock: CIFDUS_clean_linker_0, # of connection points: 2
#     Edge 104, Type (0, 1), BuildingBlock: CIFDUS_clean_linker_0, # of connection points: 2
#     Edge 105, Type (0, 1), BuildingBlock: CIFDUS_clean_linker_0, # of connection points: 2
#     Edge 106, Type (0, 1), BuildingBlock: CIFDUS_clean_linker_0, # of connection points: 2
#     Edge 107, Type (0, 1), BuildingBlock: CIFDUS_clean_linker_0, # of connection points: 2
# Relax obj value: 0.077
# Max RMSD: 0.285
# Mean RMSD: 0.115
data_MOF--net-ptr--node1-TATPOV_clean_sbu_0--node2-NAHDIM_clean_linker_0--edge1-CIFDUS_clean_linker_0
_symmetry_space_group_name_H-M    P1
_symmetry_Int_Tables_number       1
_symmetry_cell_setting            triclinic
loop_
_symmetry_equiv_pos_as_xyz
'x, y, z'
_cell_length_a     85.553584
_cell_length_b     86.62944
_cell_length_c     72.175432
_cell_angle_alpha  90.661445
_cell_angle_beta   90.979906
_cell_angle_gamma 121.74252
loop_
_atom_site_label
_atom_site_type_symbol
_atom_site_fract_x
_atom_site_fract_y
_atom_site_fract_z
_atom_type_partial_charge
Zn0 Zn 0.95412 0.3409 0.00609 0.0
Zn1 Zn 0.9881 0.34735 0.01182 0.0
O2 O 0.97208 0.32055 0.00257 0.0
O3 O 0.94416 0.31512 0.99778 0.0
O4 O 0.0126 0.34989 0.01788 0.0
O5 O 0.95312 0.34759 0.03267 0.0
O6 O 0.98183 0.35494 0.03657 0.0
C7 C 0.95539 0.30982 0.99723 0.0
C8 C 0.98186 0.36846 0.98241 0.0
O9 O 0.99297 0.36521 0.99094 0.0
O10 O 0.96507 0.36018 0.98665 0.0
C11 C 0.01796 0.34096 0.0087 0.0
O12 O 0.00789 0.33084 0.99443 0.0
C13 C 0.96752 0.354 0.04283 0.0
Zn14 Zn 0.65475 0.61505 0.00154 0.0
Zn15 Zn 0.65522 0.6444 0.01494 0.0
O16 O 0.68207 0.65324 0.00844 0.0
O17 O 0.68222 0.62904 0.9992 0.0
O18 O 0.65823 0.66731 0.02621 0.0
O19 O 0.64346 0.60198 0.02513 0.0
O20 O 0.6441 0.62612 0.03611 0.0
C21 C 0.69077 0.64593 0.00276 0.0
C22 C 0.63287 0.62539 0.97968 0.0
O23 O 0.63762 0.6376 0.9923 0.0
O24 O 0.63868 0.61462 0.98038 0.0
C25 C 0.6685 0.68248 0.0186 0.0
O26 O 0.67574 0.68273 0.00261 0.0
C27 C 0.64024 0.60988 0.03804 0.0
Zn28 Zn 0.34083 0.96945 0.01884 0.0
Zn29 Zn 0.34477 0.00278 0.01799 0.0
O30 O 0.31745 0.98433 0.02157 0.0
O31 O 0.31324 0.95705 0.02163 0.0
O32 O 0.34378 0.02531 0.01529 0.0
O33 O 0.35184 0.97388 0.9932 0.0
O34 O 0.35546 0.00099 0.99359 0.0
C35 C 0.30675 0.96722 0.02267 0.0
C36 C 0.36486 0.99561 0.04828 0.0
O37 O 0.36145 0.0067 0.04049 0.0
O38 O 0.35768 0.9795 0.04189 0.0
C39 C 0.35508 0.03949 0.00671 0.0
O40 O 0.37006 0.04098 0.00025 0.0
C41 C 0.35732 0.98893 0.98554 0.0
Zn42 Zn 0.04795 0.66094 0.02953 0.0
Zn43 Zn 0.01569 0.65681 0.01634 0.0
O44 O 0.03264 0.68359 0.0238 0.0
O45 O 0.0594 0.6882 0.03313 0.0
O46 O 0.99426 0.65742 0.00521 0.0
O47 O 0.05009 0.65076 0.00474 0.0
O48 O 0.0241 0.64765 0.99475 0.0
C49 C 0.04904 0.69426 0.02983 0.0
C50 C 0.01481 0.63628 0.05037 0.0
O51 O 0.00617 0.63967 0.03814 0.0
O52 O 0.03214 0.64376 0.04979 0.0
C53 C 0.98873 0.66668 0.01341 0.0
O54 O 0.99544 0.67349 0.03007 0.0
C55 C 0.03785 0.64602 0.99208 0.0
Zn56 Zn 0.34415 0.38396 0.0306 0.0
Zn57 Zn 0.34496 0.35512 0.0157 0.0
O58 O 0.31835 0.34511 0.02275 0.0
O59 O 0.3164 0.36801 0.0331 0.0
O60 O 0.34235 0.33242 0.0046 0.0
O61 O 0.35441 0.39681 0.00627 0.0
O62 O 0.35408 0.37306 0.99452 0.0
C63 C 0.30882 0.35127 0.02901 0.0
C64 C 0.36747 0.37422 0.05096 0.0
O65 O 0.3629 0.36256 0.03783 0.0
O66 O 0.36109 0.38454 0.05129 0.0
C67 C 0.35149 0.32521 0.00907 0.0
O68 O 0.36504 0.33344 0.0214 0.0
C69 C 0.35719 0.38906 0.99284 0.0
Zn70 Zn 0.66217 0.04083 0.99919 0.0
Zn71 Zn 0.65891 0.00849 0.00688 0.0
O72 O 0.68573 0.02534 0.99999 0.0
O73 O 0.6896 0.05217 0.99527 0.0
O74 O 0.65879 0.98602 0.0138 0.0
O75 O 0.65286 0.04096 0.02498 0.0
O76 O 0.65077 0.01503 0.03062 0.0
C77 C 0.69609 0.04198 0.99604 0.0
C78 C 0.63601 0.01006 0.97514 0.0
O79 O 0.64031 0.0009 0.98537 0.0
O80 O 0.64364 0.02706 0.97789 0.0
C81 C 0.6448 0.97207 0.02016 0.0
O82 O 0.62937 0.97181 0.02156 0.0
C83 C 0.64888 0.02804 0.03582 0.0
Zn84 Zn 0.62863 0.68181 0.31819 0.0
Zn85 Zn 0.65886 0.68536 0.33497 0.0
O86 O 0.64434 0.65932 0.32383 0.0
O87 O 0.61986 0.65629 0.30973 0.0
O88 O 0.6809 0.68603 0.34649 0.0
O89 O 0.62146 0.6867 0.3431 0.0
O90 O 0.64662 0.69049 0.35653 0.0
C91 C 0.62958 0.64977 0.31416 0.0
C92 C 0.66276 0.71028 0.30331 0.0
O93 O 0.67006 0.70546 0.31567 0.0
O94 O 0.64543 0.70234 0.30165 0.0
C95 C 0.68904 0.68059 0.33616 0.0
O96 O 0.68318 0.67575 0.31889 0.0
C97 C 0.63162 0.69026 0.35746 0.0
Zn98 Zn 0.3065 0.9491 0.35032 0.0
Zn99 Zn 0.31218 0.98179 0.36085 0.0
O100 O 0.33736 0.98701 0.35211 0.0
O101 O 0.3332 0.9604 0.34456 0.0
O102 O 0.31832 0.00632 0.37082 0.0
O103 O 0.29756 0.93938 0.37579 0.0
O104 O 0.30177 0.96594 0.38376 0.0
C105 C 0.34368 0.97747 0.34624 0.0
C106 C 0.28538 0.96084 0.3289 0.0
O107 O 0.29296 0.97474 0.33977 0.0
O108 O 0.28905 0.94852 0.3306 0.0
C109 C 0.33 0.02101 0.36319 0.0
O110 O 0.33725 0.02012 0.34761 0.0
C111 C 0.29674 0.9497 0.38776 0.0
Zn112 Zn 0.01888 0.30135 0.3603 0.0
Zn113 Zn 0.02157 0.33229 0.3492 0.0
O114 O 0.99444 0.31587 0.35646 0.0
O115 O 0.99172 0.28995 0.36364 0.0
O116 O 0.02316 0.35528 0.341 0.0
O117 O 0.02788 0.29898 0.33543 0.0
O118 O 0.02906 0.32369 0.32613 0.0
C119 C 0.98459 0.29945 0.36145 0.0
C120 C 0.04425 0.33275 0.38281 0.0
O121 O 0.04012 0.34106 0.37115 0.0
O122 O 0.03676 0.31567 0.38146 0.0
C123 C 0.00981 0.3547 0.33229 0.0
O124 O 0.99495 0.33884 0.32831 0.0
C125 C 0.03104 0.31031 0.32291 0.0
Zn126 Zn 0.71407 0.98854 0.37341 0.0
Zn127 Zn 0.68236 0.98401 0.35848 0.0
O128 O 0.69837 0.01099 0.36565 0.0
O129 O 0.72471 0.01569 0.37663 0.0
O130 O 0.65999 0.98309 0.34785 0.0
O131 O 0.71732 0.97885 0.34881 0.0
O132 O 0.6919 0.9758 0.33702 0.0
C133 C 0.71454 0.02173 0.37227 0.0
C134 C 0.68092 0.96315 0.39293 0.0
O135 O 0.67284 0.96653 0.38006 0.0
O136 O 0.69831 0.97109 0.39351 0.0
C137 C 0.64744 0.97009 0.33797 0.0
O138 O 0.64851 0.95576 0.33444 0.0
C139 C 0.70595 0.97447 0.33533 0.0
Zn140 Zn 0.01333 0.73309 0.36979 0.0
Zn141 Zn 0.01261 0.70392 0.35456 0.0
O142 O 0.98587 0.69421 0.36156 0.0
O143 O 0.98569 0.71799 0.37235 0.0
O144 O 0.01059 0.68144 0.34341 0.0
O145 O 0.02355 0.74626 0.34579 0.0
O146 O 0.02165 0.72201 0.33325 0.0
C147 C 0.97718 0.70123 0.36805 0.0
C148 C 0.03568 0.72257 0.39001 0.0
O149 O 0.0306 0.71085 0.37682 0.0
O150 O 0.02997 0.73342 0.39041 0.0
C151 C 0.02438 0.68021 0.33973 0.0
O152 O 0.04102 0.69428 0.3431 0.0
C153 C 0.02539 0.73828 0.33193 0.0
Zn154 Zn 0.31107 0.36951 0.32344 0.0
Zn155 Zn 0.31031 0.33998 0.33775 0.0
O156 O 0.33642 0.35656 0.32855 0.0
O157 O 0.3383 0.3813 0.31834 0.0
O158 O 0.31256 0.32027 0.34983 0.0
O159 O 0.30349 0.37412 0.34849 0.0
O160 O 0.30349 0.35055 0.35955 0.0
C161 C 0.34573 0.37222 0.32159 0.0
C162 C 0.28532 0.33458 0.30457 0.0
O163 O 0.29066 0.32779 0.3169 0.0
O164 O 0.292 0.35158 0.30442 0.0
C165 C 0.32216 0.31465 0.34255 0.0
O166 O 0.32889 0.32035 0.32608 0.0
C167 C 0.30134 0.36391 0.3619 0.0
Zn168 Zn 0.29007 0.01776 0.65405 0.0
Zn169 Zn 0.31732 0.01653 0.67183 0.0
O170 O 0.30232 0.9924 0.6571 0.0
O171 O 0.28035 0.99316 0.64177 0.0
O172 O 0.33503 0.01183 0.68566 0.0
O173 O 0.28042 0.01996 0.67867 0.0
O174 O 0.30414 0.02126 0.69275 0.0
C175 C 0.2885 0.98493 0.64587 0.0
C176 C 0.32732 0.04684 0.64498 0.0
O177 O 0.33261 0.03886 0.65583 0.0
O178 O 0.31029 0.04056 0.64229 0.0
C179 C 0.35225 0.01937 0.68362 0.0
O180 O 0.36059 0.03272 0.67198 0.0
C181 C 0.28962 0.02193 0.6934 0.0
Zn182 Zn 0.98485 0.28273 0.66828 0.0
Zn183 Zn 0.9844 0.31105 0.68361 0.0
O184 O 0.01123 0.323 0.67513 0.0
O185 O 0.01178 0.29972 0.66339 0.0
O186 O 0.98278 0.33134 0.69543 0.0
O187 O 0.97716 0.2697 0.69259 0.0
O188 O 0.97723 0.29309 0.70491 0.0
C189 C 0.01994 0.31652 0.66741 0.0
C190 C 0.95934 0.28992 0.64984 0.0
O191 O 0.96514 0.30237 0.66236 0.0
O192 O 0.96571 0.27963 0.64919 0.0
C193 C 0.99024 0.34711 0.68874 0.0
O194 O 0.99998 0.35072 0.67376 0.0
C195 C 0.97483 0.27735 0.70642 0.0
Zn196 Zn 0.6874 0.64027 0.69472 0.0
Zn197 Zn 0.68262 0.66669 0.68098 0.0
O198 O 0.65748 0.64732 0.69084 0.0
O199 O 0.66088 0.62586 0.70246 0.0
O200 O 0.67758 0.68552 0.67128 0.0
O201 O 0.69377 0.63646 0.66895 0.0
O202 O 0.69099 0.65863 0.6582 0.0
C203 C 0.65082 0.63221 0.69892 0.0
C204 C 0.71129 0.67583 0.712 0.0
O205 O 0.70281 0.68054 0.70099 0.0
O206 O 0.70732 0.65952 0.71195 0.0
C207 C 0.66728 0.68905 0.68056 0.0
O208 O 0.66087 0.68087 0.69631 0.0
C209 C 0.69463 0.64627 0.65564 0.0
Zn210 Zn 0.37691 0.31786 0.70392 0.0
Zn211 Zn 0.34798 0.31678 0.68573 0.0
O212 O 0.36425 0.34244 0.69668 0.0
O213 O 0.38871 0.34483 0.71011 0.0
O214 O 0.32864 0.31972 0.6729 0.0
O215 O 0.38248 0.31007 0.67935 0.0
O216 O 0.35933 0.30972 0.66504 0.0
C217 C 0.37952 0.35188 0.70549 0.0
C218 C 0.34043 0.29203 0.71826 0.0
O219 O 0.33452 0.29721 0.70487 0.0
O220 O 0.35758 0.29897 0.72096 0.0
C221 C 0.32097 0.32601 0.68276 0.0
O222 O 0.32451 0.32815 0.70071 0.0
C223 C 0.37297 0.30758 0.66469 0.0
Zn224 Zn 0.70801 0.06934 0.68617 0.0
Zn225 Zn 0.7011 0.03741 0.67064 0.0
O226 O 0.67673 0.03076 0.68229 0.0
O227 O 0.68189 0.05622 0.69523 0.0
O228 O 0.6948 0.0138 0.65823 0.0
O229 O 0.71348 0.08034 0.66054 0.0
O230 O 0.70795 0.05435 0.64871 0.0
C231 C 0.67117 0.03942 0.69165 0.0
C232 C 0.73034 0.05618 0.70172 0.0
O233 O 0.72164 0.04323 0.68983 0.0
O234 O 0.72726 0.06896 0.70267 0.0
C235 C 0.68456 0.99872 0.66598 0.0
O236 O 0.67907 0.99871 0.68288 0.0
C237 C 0.71226 0.0707 0.64659 0.0
Zn238 Zn 0.98023 0.70585 0.65302 0.0
Zn239 Zn 0.97088 0.67353 0.66843 0.0
O240 O 0.99805 0.68569 0.6621 0.0
O241 O 0.00687 0.7127 0.65143 0.0
O242 O 0.96695 0.6512 0.68116 0.0
O243 O 0.97188 0.71246 0.67643 0.0
O244 O 0.96513 0.68656 0.68863 0.0
C245 C 0.01055 0.70084 0.65591 0.0
C246 C 0.95205 0.67327 0.63224 0.0
O247 O 0.95352 0.6646 0.64562 0.0
O248 O 0.96191 0.69048 0.63216 0.0
C249 C 0.97338 0.6423 0.6739 0.0
O250 O 0.98049 0.64675 0.65739 0.0
C251 C 0.96614 0.70174 0.6899 0.0
C252 C 0.1931 0.28389 0.01279 0.0
C253 C 0.19883 0.29616 0.03016 0.0
C254 C 0.18496 0.28827 0.06044 0.0
C255 C 0.19008 0.30578 0.06662 0.0
C256 C 0.18059 0.30827 0.08084 0.0
C257 C 0.16553 0.29293 0.08885 0.0
C258 C 0.1609 0.27526 0.08323 0.0
C259 C 0.17094 0.2732 0.06928 0.0
C260 C 0.18626 0.32731 0.08685 0.0
C261 C 0.14481 0.25857 0.09131 0.0
C262 C 0.06369 0.31361 0.03421 0.0
C263 C 0.07764 0.31028 0.04255 0.0
C264 C 0.09285 0.3123 0.07186 0.0
C265 C 0.0884 0.29434 0.07374 0.0
C266 C 0.09951 0.29037 0.08469 0.0
C267 C 0.11544 0.30468 0.09385 0.0
C268 C 0.11962 0.32276 0.09242 0.0
C269 C 0.10805 0.32628 0.08165 0.0
C270 C 0.09439 0.2709 0.08625 0.0
C271 C 0.13657 0.33838 0.10183 0.0
C272 C 0.08731 0.29278 0.21489 0.0
C273 C 0.08344 0.27716 0.20467 0.0
C274 C 0.09702 0.27703 0.19417 0.0
C275 C 0.11468 0.29296 0.19342 0.0
C276 C 0.1186 0.30874 0.20353 0.0
C277 C 0.10485 0.30839 0.2142 0.0
C278 C 0.09242 0.25987 0.18372 0.0
C279 C 0.13723 0.326 0.20289 0.0
C280 C 0.23002 0.27125 0.2075 0.0
C281 C 0.22485 0.28525 0.21221 0.0
C282 C 0.19405 0.27995 0.20739 0.0
C283 C 0.17604 0.26558 0.20381 0.0
C284 C 0.16315 0.26838 0.19464 0.0
C285 C 0.16835 0.28612 0.18936 0.0
C286 C 0.18634 0.30086 0.19371 0.0
C287 C 0.19903 0.29761 0.2026 0.0
C288 C 0.14405 0.25235 0.19041 0.0
C289 C 0.19215 0.32004 0.18894 0.0
C290 C 0.15339 0.29536 0.10142 0.0
C291 C 0.14069 0.29886 0.09321 0.0
C292 C 0.12836 0.30088 0.10381 0.0
C293 C 0.12848 0.29915 0.12326 0.0
C294 C 0.11594 0.30059 0.13433 0.0
C295 C 0.11611 0.29879 0.15344 0.0
C296 C 0.12881 0.29542 0.16222 0.0
C297 C 0.12882 0.29319 0.1816 0.0
C298 C 0.14192 0.29034 0.18997 0.0
C299 C 0.15491 0.28927 0.17946 0.0
C300 C 0.15479 0.29094 0.15997 0.0
C301 C 0.16729 0.28943 0.14885 0.0
C302 C 0.16697 0.291 0.12968 0.0
C303 C 0.15407 0.29405 0.12089 0.0
C304 C 0.14146 0.29581 0.13183 0.0
C305 C 0.14173 0.29412 0.15136 0.0
C306 C 0.04355 0.27799 0.21378 0.0
C307 C 0.05697 0.27943 0.22903 0.0
O308 O 0.19291 0.28549 0.0457 0.0
O309 O 0.20618 0.27631 0.21552 0.0
O310 O 0.07467 0.29349 0.22547 0.0
O311 O 0.08264 0.31643 0.0608 0.0
H312 H 0.19172 0.30383 0.02884 0.0
H313 H 0.17786 0.27518 0.01175 0.0
H314 H 0.19874 0.27492 0.0133 0.0
H315 H 0.198 0.29221 0.00017 0.0
H316 H 0.20134 0.31752 0.06022 0.0
H317 H 0.16728 0.25975 0.06456 0.0
H318 H 0.17596 0.33036 0.08149 0.0
H319 H 0.19994 0.33761 0.08158 0.0
H320 H 0.18668 0.32852 0.10221 0.0
H321 H 0.14253 0.24582 0.08485 0.0
H322 H 0.1321 0.25892 0.08937 0.0
H323 H 0.14722 0.25836 0.10643 0.0
H324 H 0.07516 0.29647 0.03975 0.0
H325 H 0.05134 0.29968 0.03101 0.0
H326 H 0.07814 0.33256 0.01338 0.0
H327 H 0.05715 0.3165 0.0461 0.0
H328 H 0.0762 0.2834 0.06674 0.0
H329 H 0.1112 0.34007 0.08029 0.0
H330 H 0.09473 0.26761 0.10102 0.0
H331 H 0.1046 0.26901 0.07894 0.0
H332 H 0.08052 0.26119 0.08014 0.0
H333 H 0.13829 0.35171 0.0987 0.0
H334 H 0.14898 0.33848 0.09734 0.0
H335 H 0.13574 0.33666 0.11706 0.0
H336 H 0.05643 0.26633 0.22943 0.0
H337 H 0.06989 0.26501 0.20464 0.0
H338 H 0.10773 0.3204 0.22204 0.0
H339 H 0.09215 0.26195 0.1686 0.0
H340 H 0.07885 0.24807 0.18746 0.0
H341 H 0.10314 0.25659 0.18656 0.0
H342 H 0.13782 0.33737 0.21081 0.0
H343 H 0.14073 0.33006 0.18828 0.0
H344 H 0.14785 0.32361 0.20873 0.0
H345 H 0.22815 0.2937 0.19966 0.0
H346 H 0.24508 0.27809 0.20555 0.0
H347 H 0.22283 0.26385 0.1944 0.0
H348 H 0.22593 0.26112 0.21857 0.0
H349 H 0.17225 0.25204 0.2078 0.0
H350 H 0.21276 0.30889 0.20594 0.0
H351 H 0.14055 0.25187 0.17544 0.0
H352 H 0.13393 0.25391 0.19832 0.0
H353 H 0.14263 0.23926 0.19407 0.0
H354 H 0.20603 0.33017 0.19476 0.0
H355 H 0.1821 0.32332 0.19427 0.0
H356 H 0.19233 0.32131 0.17365 0.0
H357 H 0.14034 0.29996 0.07825 0.0
H358 H 0.1058 0.30307 0.12831 0.0
H359 H 0.10614 0.30006 0.16125 0.0
H360 H 0.14186 0.28871 0.20486 0.0
H361 H 0.17743 0.28694 0.15484 0.0
H362 H 0.17692 0.28974 0.12181 0.0
H363 H 0.02931 0.26699 0.21685 0.0
H364 H 0.04721 0.27474 0.20022 0.0
H365 H 0.044 0.29099 0.21258 0.0
C366 C 0.66804 0.88815 0.04276 0.0
C367 C 0.66988 0.90099 0.05861 0.0
C368 C 0.69132 0.89867 0.07993 0.0
C369 C 0.67833 0.88196 0.08754 0.0
C370 C 0.68387 0.8728 0.09925 0.0
C371 C 0.70281 0.88026 0.10317 0.0
C372 C 0.71593 0.89716 0.09574 0.0
C373 C 0.70996 0.90626 0.08442 0.0
C374 C 0.66943 0.85489 0.10709 0.0
C375 C 0.73625 0.90539 0.09942 0.0
C376 C 0.73241 0.78069 0.07982 0.0
C377 C 0.71908 0.78176 0.06617 0.0
C378 C 0.7082 0.7983 0.08461 0.0
C379 C 0.72469 0.81538 0.0846 0.0
C380 C 0.72632 0.83032 0.09435 0.0
C381 C 0.71118 0.8282 0.10418 0.0
C382 C 0.69453 0.81111 0.10404 0.0
C383 C 0.6933 0.79639 0.09427 0.0
C384 C 0.74428 0.84837 0.09428 0.0
C385 C 0.67805 0.80835 0.11428 0.0
C386 C 0.72404 0.80987 0.22265 0.0
C387 C 0.74054 0.8267 0.22124 0.0
C388 C 0.7409 0.84092 0.21164 0.0
C389 C 0.7244 0.83826 0.20362 0.0
C390 C 0.70769 0.8215 0.20571 0.0
C391 C 0.70784 0.80745 0.21488 0.0
C392 C 0.75894 0.85862 0.20964 0.0
C393 C 0.68964 0.81826 0.19799 0.0
C394 C 0.7198 0.95888 0.22083 0.0
C395 C 0.711 0.94169 0.23229 0.0
C396 C 0.72224 0.92186 0.22347 0.0
C397 C 0.73874 0.92381 0.21797 0.0
C398 C 0.7389 0.91016 0.20747 0.0
C399 C 0.72209 0.89401 0.20268 0.0
C400 C 0.70534 0.89169 0.20871 0.0
C401 C 0.70558 0.90565 0.21907 0.0
C402 C 0.75703 0.91298 0.2015 0.0
C403 C 0.68722 0.87437 0.20438 0.0
C404 C 0.70877 0.86974 0.11412 0.0
C405 C 0.70894 0.8555 0.10498 0.0
C406 C 0.71269 0.84385 0.11459 0.0
C407 C 0.71666 0.84656 0.13386 0.0
C408 C 0.7205 0.8351 0.14394 0.0
C409 C 0.72345 0.83727 0.16305 0.0
C410 C 0.7227 0.851 0.17281 0.0
C411 C 0.72451 0.85256 0.19237 0.0
C412 C 0.72445 0.8668 0.2016 0.0
C413 C 0.72211 0.87933 0.19186 0.0
C414 C 0.71938 0.87747 0.17236 0.0
C415 C 0.71606 0.88926 0.16219 0.0
C416 C 0.71258 0.88678 0.14312 0.0
C417 C 0.71272 0.87268 0.13342 0.0
C418 C 0.71655 0.86095 0.14332 0.0
C419 C 0.71971 0.86325 0.16282 0.0
C420 C 0.74856 0.79143 0.23358 0.0
C421 C 0.73495 0.79483 0.24352 0.0
O422 O 0.68657 0.90778 0.06811 0.0
O423 O 0.72302 0.93554 0.23366 0.0
O424 O 0.72304 0.7953 0.23062 0.0
O425 O 0.70601 0.7833 0.0757 0.0
H426 H 0.65838 0.8935 0.06823 0.0
H427 H 0.66826 0.87637 0.04832 0.0
H428 H 0.67956 0.89533 0.03308 0.0
H429 H 0.65481 0.88288 0.03496 0.0
H430 H 0.66383 0.87582 0.08441 0.0
H431 H 0.7199 0.91917 0.07857 0.0
H432 H 0.6698 0.84372 0.09986 0.0
H433 H 0.65536 0.85243 0.10531 0.0
H434 H 0.67226 0.85439 0.12207 0.0
H435 H 0.74474 0.91823 0.09192 0.0
H436 H 0.74025 0.89561 0.09515 0.0
H437 H 0.7394 0.90824 0.1145 0.0
H438 H 0.72691 0.79373 0.05725 0.0
H439 H 0.73995 0.79323 0.08859 0.0
H440 H 0.7427 0.77917 0.07214 0.0
H441 H 0.72484 0.76895 0.08905 0.0
H442 H 0.73638 0.81722 0.07714 0.0
H443 H 0.68064 0.78321 0.0942 0.0
H444 H 0.74937 0.85306 0.10875 0.0
H445 H 0.74206 0.85867 0.08786 0.0
H446 H 0.75502 0.84768 0.08655 0.0
H447 H 0.6658 0.79449 0.11195 0.0
H448 H 0.67455 0.81841 0.10979 0.0
H449 H 0.68138 0.81062 0.12937 0.0
H450 H 0.74261 0.80792 0.25153 0.0
H451 H 0.75319 0.82863 0.22711 0.0
H452 H 0.6952 0.79438 0.21609 0.0
H453 H 0.76145 0.86195 0.19476 0.0
H454 H 0.77072 0.85819 0.21571 0.0
H455 H 0.75828 0.86973 0.21666 0.0
H456 H 0.67767 0.80596 0.20377 0.0
H457 H 0.68911 0.81637 0.18271 0.0
H458 H 0.68834 0.83012 0.20102 0.0
H459 H 0.69793 0.93151 0.22501 0.0
H460 H 0.71038 0.96404 0.21942 0.0
H461 H 0.72262 0.95581 0.20674 0.0
H462 H 0.73298 0.96964 0.22747 0.0
H463 H 0.75155 0.93623 0.22176 0.0
H464 H 0.6928 0.90363 0.22408 0.0
H465 H 0.75681 0.91119 0.18622 0.0
H466 H 0.75916 0.90259 0.20786 0.0
H467 H 0.76883 0.92666 0.20559 0.0
H468 H 0.67544 0.87443 0.21056 0.0
H469 H 0.6876 0.86259 0.20969 0.0
H470 H 0.68486 0.87241 0.18914 0.0
H471 H 0.70558 0.85313 0.09025 0.0
H472 H 0.72106 0.82417 0.1372 0.0
H473 H 0.72618 0.82793 0.1701 0.0
H474 H 0.72578 0.86787 0.21661 0.0
H475 H 0.7158 0.90036 0.16891 0.0
H476 H 0.70976 0.89605 0.13606 0.0
H477 H 0.74116 0.77821 0.22583 0.0
H478 H 0.75841 0.79132 0.24374 0.0
H479 H 0.75654 0.80235 0.2236 0.0
C480 C 0.23849 0.92794 0.06063 0.0
C481 C 0.22094 0.92249 0.06973 0.0
C482 C 0.19886 0.89847 0.08972 0.0
C483 C 0.18588 0.90375 0.08935 0.0
C484 C 0.16916 0.89361 0.09846 0.0
C485 C 0.16528 0.87778 0.10787 0.0
C486 C 0.17826 0.87235 0.10806 0.0
C487 C 0.19497 0.88291 0.09914 0.0
C488 C 0.15564 0.89978 0.09805 0.0
C489 C 0.17444 0.85529 0.11753 0.0
C490 C 0.06193 0.80056 0.02396 0.0
C491 C 0.06928 0.79539 0.04072 0.0
C492 C 0.07512 0.80847 0.07189 0.0
C493 C 0.08824 0.80443 0.07786 0.0
C494 C 0.10074 0.81444 0.09243 0.0
C495 C 0.10029 0.82899 0.10099 0.0
C496 C 0.08651 0.83253 0.09556 0.0
C497 C 0.07385 0.82194 0.08127 0.0
C498 C 0.11486 0.80988 0.09819 0.0
C499 C 0.08571 0.84804 0.10419 0.0
C500 C 0.06105 0.79913 0.21831 0.0
C501 C 0.07554 0.79632 0.21519 0.0
C502 C 0.09164 0.80965 0.20674 0.0
C503 C 0.09336 0.82618 0.20159 0.0
C504 C 0.07909 0.82931 0.20539 0.0
C505 C 0.06312 0.81573 0.21376 0.0
C506 C 0.1068 0.80606 0.20325 0.0
C507 C 0.08063 0.84692 0.20039 0.0
C508 C 0.22015 0.94442 0.22827 0.0
C509 C 0.2125 0.93135 0.24445 0.0
C510 C 0.18938 0.90238 0.22867 0.0
C511 C 0.18615 0.88549 0.22285 0.0
C512 C 0.17037 0.87329 0.21233 0.0
C513 C 0.15747 0.87817 0.20748 0.0
C514 C 0.16037 0.89506 0.2137 0.0
C515 C 0.17631 0.90703 0.2243 0.0
C516 C 0.16768 0.85535 0.20604 0.0
C517 C 0.14681 0.90059 0.20878 0.0
C518 C 0.14746 0.86651 0.11708 0.0
C519 C 0.13225 0.85423 0.10606 0.0
C520 C 0.11551 0.84173 0.1139 0.0
C521 C 0.11387 0.84132 0.13339 0.0
C522 C 0.09758 0.82834 0.14186 0.0
C523 C 0.09624 0.82796 0.16108 0.0
C524 C 0.11114 0.84057 0.17256 0.0
C525 C 0.11005 0.84014 0.19211 0.0
C526 C 0.12515 0.85283 0.20309 0.0
C527 C 0.14151 0.86594 0.19507 0.0
C528 C 0.14288 0.86658 0.17556 0.0
C529 C 0.1592 0.87951 0.16707 0.0
C530 C 0.16068 0.87964 0.14792 0.0
C531 C 0.14586 0.8669 0.1365 0.0
C532 C 0.12908 0.85409 0.14471 0.0
C533 C 0.12765 0.85382 0.16429 0.0
C534 C 0.01731 0.75836 0.21941 0.0
C535 C 0.03743 0.76778 0.22599 0.0
O536 O 0.21524 0.90787 0.08122 0.0
O537 O 0.20537 0.91362 0.23821 0.0
O538 O 0.04498 0.78641 0.22585 0.0
O539 O 0.06392 0.79999 0.05684 0.0
H540 H 0.22024 0.93387 0.07618 0.0
H541 H 0.24504 0.92154 0.06856 0.0
H542 H 0.24852 0.94206 0.06625 0.0
H543 H 0.23097 0.92222 0.0322 0.0
H544 H 0.18871 0.91576 0.08205 0.0
H545 H 0.20505 0.87893 0.09928 0.0
H546 H 0.14308 0.88971 0.09001 0.0
H547 H 0.16139 0.91325 0.09164 0.0
H548 H 0.15144 0.90053 0.11234 0.0
H549 H 0.18508 0.85196 0.11471 0.0
H550 H 0.16081 0.84361 0.11288 0.0
H551 H 0.17405 0.85706 0.13273 0.0
H552 H 0.08456 0.80359 0.03982 0.0
H553 H 0.06581 0.7967 0.01088 0.0
H554 H 0.06796 0.81548 0.02417 0.0
H555 H 0.04672 0.79378 0.02418 0.0
H556 H 0.08888 0.79361 0.07099 0.0
H557 H 0.0635 0.82478 0.07668 0.0
H558 H 0.11637 0.81027 0.11353 0.0
H559 H 0.1284 0.82013 0.09264 0.0
H560 H 0.11121 0.79626 0.09285 0.0
H561 H 0.07465 0.84949 0.09782 0.0
H562 H 0.09908 0.86096 0.10265 0.0
H563 H 0.08326 0.84585 0.11924 0.0
H564 H 0.04435 0.76359 0.216 0.0
H565 H 0.07445 0.78385 0.21943 0.0
H566 H 0.052 0.8179 0.21652 0.0
H567 H 0.10982 0.80727 0.18825 0.0
H568 H 0.10322 0.79237 0.20771 0.0
H569 H 0.11955 0.81642 0.21082 0.0
H570 H 0.06853 0.84746 0.20475 0.0
H571 H 0.08194 0.84864 0.18516 0.0
H572 H 0.09323 0.85851 0.20704 0.0
H573 H 0.20158 0.93251 0.25125 0.0
H574 H 0.22619 0.95864 0.23339 0.0
H575 H 0.20906 0.94135 0.21796 0.0
H576 H 0.23093 0.94324 0.2212 0.0
H577 H 0.19626 0.88201 0.2264 0.0
H578 H 0.17851 0.91997 0.2289 0.0
H579 H 0.16783 0.85475 0.19068 0.0
H580 H 0.15407 0.84405 0.21038 0.0
H581 H 0.17853 0.85323 0.21177 0.0
H582 H 0.15079 0.91398 0.21504 0.0
H583 H 0.13296 0.8902 0.21357 0.0
H584 H 0.14581 0.90126 0.19349 0.0
H585 H 0.1336 0.8541 0.09114 0.0
H586 H 0.08574 0.81827 0.1337 0.0
H587 H 0.08339 0.81762 0.16683 0.0
H588 H 0.12429 0.85228 0.21807 0.0
H589 H 0.1711 0.88962 0.17515 0.0
H590 H 0.1736 0.88983 0.14215 0.0
H591 H 0.00943 0.76191 0.22877 0.0
H592 H 0.01089 0.74337 0.21903 0.0
H593 H 0.01649 0.76272 0.2052 0.0
C594 C 0.30968 0.10772 0.99024 0.0
C595 C 0.30692 0.09357 0.9755 0.0
C596 C 0.31153 0.11079 0.94712 0.0
C597 C 0.29364 0.10754 0.94523 0.0
C598 C 0.28963 0.11726 0.93259 0.0
C599 C 0.30386 0.1308 0.92191 0.0
C600 C 0.32181 0.13392 0.92356 0.0
C601 C 0.3253 0.12361 0.93592 0.0
C602 C 0.27023 0.11331 0.93096 0.0
C603 C 0.33744 0.14851 0.91273 0.0
C604 C 0.28418 0.21169 0.99018 0.0
C605 C 0.29781 0.22132 0.97475 0.0
C606 C 0.29052 0.20513 0.94509 0.0
C607 C 0.30796 0.20908 0.93998 0.0
C608 C 0.30981 0.19753 0.92764 0.0
C609 C 0.29387 0.18167 0.92045 0.0
C610 C 0.27624 0.17807 0.92508 0.0
C611 C 0.27483 0.19009 0.93711 0.0
C612 C 0.32879 0.20204 0.92264 0.0
C613 C 0.25893 0.16119 0.9179 0.0
C614 C 0.27678 0.19786 0.80263 0.0
C615 C 0.29474 0.20278 0.80775 0.0
C616 C 0.29816 0.19031 0.81625 0.0
C617 C 0.28323 0.1727 0.82005 0.0
C618 C 0.26521 0.16745 0.81407 0.0
C619 C 0.26227 0.18008 0.80517 0.0
C620 C 0.31767 0.19614 0.82163 0.0
C621 C 0.24899 0.14874 0.81766 0.0
C622 C 0.27445 0.04765 0.80732 0.0
C623 C 0.27741 0.05952 0.79057 0.0
C624 C 0.29031 0.0906 0.8033 0.0
C625 C 0.30626 0.10783 0.80495 0.0
C626 C 0.30628 0.12222 0.81412 0.0
C627 C 0.28985 0.11926 0.82178 0.0
C628 C 0.27357 0.10192 0.82002 0.0
C629 C 0.27396 0.08772 0.81092 0.0
C630 C 0.3239 0.14052 0.81583 0.0
C631 C 0.25578 0.09836 0.82796 0.0
C632 C 0.30023 0.14266 0.91025 0.0
C633 C 0.2992 0.15641 0.91929 0.0
C634 C 0.29562 0.16808 0.9095 0.0
C635 C 0.29335 0.16628 0.89 0.0
C636 C 0.29012 0.17803 0.87967 0.0
C637 C 0.28768 0.17601 0.8605 0.0
C638 C 0.28858 0.16228 0.85087 0.0
C639 C 0.28632 0.16025 0.83134 0.0
C640 C 0.28694 0.14624 0.82228 0.0
C641 C 0.28981 0.13412 0.8322 0.0
C642 C 0.29239 0.13612 0.8517 0.0
C643 C 0.29551 0.12429 0.86208 0.0
C644 C 0.29798 0.12632 0.88126 0.0
C645 C 0.29757 0.14034 0.89079 0.0
C646 C 0.29427 0.15232 0.88062 0.0
C647 C 0.29177 0.15025 0.86104 0.0
C648 C 0.26702 0.23299 0.80424 0.0
C649 C 0.28158 0.2281 0.80115 0.0
O650 O 0.31617 0.1021 0.95959 0.0
O651 O 0.29145 0.07728 0.79444 0.0
O652 O 0.27298 0.21002 0.79553 0.0
O653 O 0.28845 0.21554 0.95777 0.0
H654 H 0.292 0.08449 0.9722 0.0
H655 H 0.30395 0.11583 0.98512 0.0
H656 H 0.32455 0.11708 0.99364 0.0
H657 H 0.30245 0.10093 0.00307 0.0
H658 H 0.28267 0.09752 0.95352 0.0
H659 H 0.33903 0.12597 0.93738 0.0
H660 H 0.26966 0.12464 0.93755 0.0
H661 H 0.26023 0.10053 0.93782 0.0
H662 H 0.26596 0.11231 0.91615 0.0
H663 H 0.35087 0.1502 0.9167 0.0
H664 H 0.33841 0.1617 0.91498 0.0
H665 H 0.3348 0.14505 0.8977 0.0
H666 H 0.30837 0.21753 0.97597 0.0
H667 H 0.29136 0.21596 0.00396 0.0
H668 H 0.27772 0.19677 0.98848 0.0
H669 H 0.27316 0.21485 0.98971 0.0
H670 H 0.3201 0.22112 0.94572 0.0
H671 H 0.26144 0.18737 0.941 0.0
H672 H 0.32953 0.20059 0.90742 0.0
H673 H 0.33175 0.19236 0.92938 0.0
H674 H 0.3396 0.21605 0.92717 0.0
H675 H 0.24635 0.15979 0.92381 0.0
H676 H 0.25937 0.14895 0.9213 0.0
H677 H 0.25793 0.16158 0.90259 0.0
H678 H 0.28869 0.23025 0.8149 0.0
H679 H 0.3061 0.21637 0.80521 0.0
H680 H 0.24849 0.17635 0.80087 0.0
H681 H 0.31963 0.19825 0.8369 0.0
H682 H 0.32786 0.209 0.815 0.0
H683 H 0.32047 0.18541 0.8177 0.0
H684 H 0.23575 0.14707 0.81293 0.0
H685 H 0.24834 0.14599 0.83271 0.0
H686 H 0.25072 0.13841 0.81034 0.0
H687 H 0.26441 0.05902 0.78725 0.0
H688 H 0.26342 0.03336 0.80409 0.0
H689 H 0.27024 0.05253 0.8194 0.0
H690 H 0.28731 0.0481 0.81122 0.0
H691 H 0.3188 0.10995 0.79908 0.0
H692 H 0.26149 0.07447 0.81002 0.0
H693 H 0.32747 0.14453 0.8307 0.0
H694 H 0.32197 0.15092 0.80919 0.0
H695 H 0.33559 0.14057 0.80929 0.0
H696 H 0.24403 0.08448 0.8244 0.0
H697 H 0.25256 0.10841 0.82273 0.0
H698 H 0.25729 0.10002 0.84328 0.0
H699 H 0.30101 0.15795 0.93426 0.0
H700 H 0.28942 0.18891 0.88632 0.0
H701 H 0.28507 0.18538 0.85334 0.0
H702 H 0.2851 0.14469 0.80732 0.0
H703 H 0.29607 0.1133 0.85551 0.0
H704 H 0.30025 0.11679 0.88854 0.0
H705 H 0.27368 0.24757 0.80832 0.0
H706 H 0.25793 0.22473 0.81557 0.0
H707 H 0.25834 0.23021 0.79154 0.0
C708 C 0.80481 0.05756 0.99692 0.0
C709 C 0.79896 0.06559 0.98149 0.0
C710 C 0.81209 0.07378 0.95102 0.0
C711 C 0.80754 0.08672 0.94677 0.0
C712 C 0.81778 0.10036 0.93408 0.0
C713 C 0.83311 0.10127 0.92577 0.0
C714 C 0.83713 0.08765 0.92934 0.0
C715 C 0.82628 0.07384 0.9417 0.0
C716 C 0.81267 0.11426 0.93025 0.0
C717 C 0.85342 0.08822 0.92088 0.0
C718 C 0.93858 0.23577 0.98052 0.0
C719 C 0.93179 0.21748 0.97208 0.0
C720 C 0.90381 0.19429 0.95524 0.0
C721 C 0.91105 0.18421 0.94819 0.0
C722 C 0.90071 0.16969 0.93551 0.0
C723 C 0.88298 0.16542 0.92959 0.0
C724 C 0.8759 0.17586 0.93638 0.0
C725 C 0.88634 0.19001 0.9493 0.0
C726 C 0.90857 0.15869 0.9287 0.0
C727 C 0.85717 0.1719 0.93021 0.0
C728 C 0.91742 0.196 0.80967 0.0
C729 C 0.92098 0.1837 0.81846 0.0
C730 C 0.90717 0.16888 0.82798 0.0
C731 C 0.88955 0.16651 0.82916 0.0
C732 C 0.886 0.17904 0.82069 0.0
C733 C 0.9 0.1936 0.81101 0.0
C734 C 0.9114 0.15567 0.83672 0.0
C735 C 0.86743 0.17702 0.82184 0.0
C736 C 0.77254 0.02831 0.7939 0.0
C737 C 0.77954 0.04861 0.79346 0.0
C738 C 0.81045 0.07351 0.80258 0.0
C739 C 0.82811 0.07702 0.80635 0.0
C740 C 0.84075 0.09196 0.81757 0.0
C741 C 0.83564 0.10388 0.82484 0.0
C742 C 0.81804 0.10084 0.82043 0.0
C743 C 0.8056 0.08564 0.80942 0.0
C744 C 0.85945 0.09488 0.82184 0.0
C745 C 0.81236 0.11362 0.82741 0.0
C746 C 0.84619 0.11762 0.91538 0.0
C747 C 0.85849 0.1332 0.92583 0.0
C748 C 0.87123 0.14929 0.91735 0.0
C749 C 0.87207 0.14987 0.89781 0.0
C750 C 0.88485 0.16577 0.88881 0.0
C751 C 0.88575 0.16612 0.86957 0.0
C752 C 0.87377 0.15063 0.8586 0.0
C753 C 0.87481 0.15075 0.83906 0.0
C754 C 0.86221 0.13535 0.82853 0.0
C755 C 0.84872 0.11959 0.83698 0.0
C756 C 0.84786 0.11899 0.85654 0.0
C757 C 0.83481 0.10319 0.86556 0.0
C758 C 0.83415 0.10272 0.88483 0.0
C759 C 0.84656 0.118 0.89581 0.0
C760 C 0.8597 0.13415 0.88701 0.0
C761 C 0.86042 0.1346 0.86737 0.0
C762 C 0.96159 0.22564 0.8108 0.0
C763 C 0.94761 0.21416 0.7953 0.0
O764 O 0.80345 0.06154 0.9645 0.0
O765 O 0.79853 0.05838 0.79232 0.0
O766 O 0.93023 0.21029 0.79983 0.0
O767 O 0.91308 0.20815 0.96782 0.0
H768 H 0.80698 0.08057 0.98417 0.0
H769 H 0.81996 0.06378 0.99689 0.0
H770 H 0.79817 0.04264 0.99491 0.0
H771 H 0.80109 0.06044 0.01066 0.0
H772 H 0.79617 0.08634 0.95359 0.0
H773 H 0.82951 0.06362 0.94494 0.0
H774 H 0.82191 0.12677 0.93861 0.0
H775 H 0.79828 0.10933 0.93405 0.0
H776 H 0.81436 0.11787 0.91539 0.0
H777 H 0.85504 0.07695 0.92558 0.0
H778 H 0.86621 0.10133 0.92457 0.0
H779 H 0.85181 0.08732 0.90555 0.0
H780 H 0.93628 0.2091 0.97929 0.0
H781 H 0.94357 0.2352 0.9949 0.0
H782 H 0.92615 0.23576 0.98549 0.0
H783 H 0.95623 0.25386 0.96048 0.0
H784 H 0.92455 0.1874 0.95281 0.0
H785 H 0.88093 0.19793 0.95478 0.0
H786 H 0.89924 0.14421 0.93215 0.0
H787 H 0.92243 0.16354 0.93485 0.0
H788 H 0.90955 0.15939 0.91338 0.0
H789 H 0.85469 0.18269 0.93486 0.0
H790 H 0.84645 0.15885 0.93605 0.0
H791 H 0.85563 0.17048 0.91487 0.0
H792 H 0.94754 0.20136 0.79346 0.0
H793 H 0.93445 0.18548 0.81804 0.0
H794 H 0.89737 0.20319 0.80433 0.0
H795 H 0.91082 0.15651 0.85202 0.0
H796 H 0.92522 0.15846 0.83314 0.0
H797 H 0.90092 0.14156 0.83217 0.0
H798 H 0.86728 0.18866 0.81573 0.0
H799 H 0.86336 0.17583 0.83653 0.0
H800 H 0.85695 0.16436 0.81436 0.0
H801 H 0.77541 0.05171 0.80689 0.0
H802 H 0.75727 0.02018 0.79398 0.0
H803 H 0.77785 0.02539 0.80668 0.0
H804 H 0.77729 0.02398 0.7818 0.0
H805 H 0.83183 0.06772 0.80082 0.0
H806 H 0.7922 0.08342 0.80608 0.0
H807 H 0.86201 0.09593 0.83707 0.0
H808 H 0.87021 0.10787 0.8159 0.0
H809 H 0.86088 0.08373 0.81612 0.0
H810 H 0.79879 0.1102 0.82152 0.0
H811 H 0.82282 0.12779 0.82384 0.0
H812 H 0.81157 0.11306 0.84274 0.0
H813 H 0.858 0.13286 0.94085 0.0
H814 H 0.8944 0.17809 0.89656 0.0
H815 H 0.89595 0.1787 0.8634 0.0
H816 H 0.86302 0.13559 0.81353 0.0
H817 H 0.825 0.09098 0.85782 0.0
H818 H 0.82381 0.09022 0.89103 0.0
H819 H 0.96177 0.23839 0.81346 0.0
H820 H 0.97558 0.22908 0.80698 0.0
H821 H 0.95798 0.21794 0.82383 0.0
C822 C 0.80794 0.72227 0.99241 0.0
C823 C 0.79484 0.71655 0.97547 0.0
C824 C 0.81114 0.70999 0.95158 0.0
C825 C 0.8256 0.72796 0.94897 0.0
C826 C 0.83992 0.7317 0.937 0.0
C827 C 0.83962 0.71722 0.92736 0.0
C828 C 0.82481 0.69921 0.92959 0.0
C829 C 0.8108 0.69586 0.94171 0.0
C830 C 0.85549 0.75105 0.93479 0.0
C831 C 0.82395 0.68344 0.91944 0.0
C832 C 0.96666 0.7348 0.95182 0.0
C833 C 0.95012 0.72226 0.96362 0.0
C834 C 0.92332 0.71361 0.94302 0.0
C835 C 0.90884 0.69925 0.93282 0.0
C836 C 0.89592 0.70149 0.92298 0.0
C837 C 0.89771 0.71869 0.92315 0.0
C838 C 0.91242 0.73338 0.93329 0.0
C839 C 0.92503 0.73069 0.94321 0.0
C840 C 0.88023 0.68543 0.91257 0.0
C841 C 0.91473 0.7519 0.93372 0.0
C842 C 0.92375 0.72991 0.80163 0.0
C843 C 0.90852 0.71322 0.80676 0.0
C844 C 0.8948 0.7126 0.8177 0.0
C845 C 0.89631 0.729 0.82353 0.0
C846 C 0.91132 0.7458 0.81784 0.0
C847 C 0.92477 0.74601 0.8068 0.0
C848 C 0.87868 0.69443 0.82306 0.0
C849 C 0.91323 0.76352 0.82362 0.0
C850 C 0.78845 0.7493 0.79617 0.0
C851 C 0.79196 0.73501 0.78793 0.0
C852 C 0.8075 0.72596 0.81021 0.0
C853 C 0.80579 0.71025 0.81733 0.0
C854 C 0.82084 0.71058 0.82579 0.0
C855 C 0.83783 0.7273 0.82793 0.0
C856 C 0.83961 0.74333 0.82088 0.0
C857 C 0.82445 0.74246 0.81193 0.0
C858 C 0.81849 0.69305 0.8325 0.0
C859 C 0.85746 0.76139 0.82302 0.0
C860 C 0.85514 0.72067 0.91558 0.0
C861 C 0.86943 0.71965 0.92387 0.0
C862 C 0.88372 0.72108 0.91343 0.0
C863 C 0.88391 0.72375 0.89412 0.0
C864 C 0.89809 0.7253 0.88318 0.0
C865 C 0.89771 0.72711 0.86406 0.0
C866 C 0.88314 0.72746 0.85516 0.0
C867 C 0.88225 0.72858 0.83566 0.0
C868 C 0.8675 0.72877 0.82727 0.0
C869 C 0.85357 0.72801 0.83784 0.0
C870 C 0.85432 0.72706 0.85737 0.0
C871 C 0.84065 0.72647 0.86846 0.0
C872 C 0.84096 0.72453 0.88755 0.0
C873 C 0.85509 0.72337 0.89631 0.0
C874 C 0.86943 0.7247 0.88551 0.0
C875 C 0.86902 0.72652 0.86601 0.0
C876 C 0.964 0.73135 0.80204 0.0
C877 C 0.94486 0.72018 0.79285 0.0
O878 O 0.79736 0.70543 0.96355 0.0
O879 O 0.79236 0.72467 0.80225 0.0
O880 O 0.93741 0.73101 0.79131 0.0
O881 O 0.93519 0.7103 0.95234 0.0
H882 H 0.79736 0.72883 0.96807 0.0
H883 H 0.82246 0.73034 0.98818 0.0
H884 H 0.80584 0.71015 0.99978 0.0
H885 H 0.80552 0.7308 0.00213 0.0
H886 H 0.82594 0.73908 0.95633 0.0
H887 H 0.79953 0.68207 0.94373 0.0
H888 H 0.86863 0.75246 0.93947 0.0
H889 H 0.8535 0.76087 0.94283 0.0
H890 H 0.85678 0.75459 0.91992 0.0
H891 H 0.81112 0.67032 0.92212 0.0
H892 H 0.83589 0.68243 0.9238 0.0
H893 H 0.82483 0.68573 0.90429 0.0
H894 H 0.9465 0.73059 0.97228 0.0
H895 H 0.97867 0.74429 0.96089 0.0
H896 H 0.96345 0.74302 0.94265 0.0
H897 H 0.97047 0.72675 0.94298 0.0
H898 H 0.90761 0.68614 0.93274 0.0
H899 H 0.93611 0.74202 0.951 0.0
H900 H 0.88132 0.68811 0.8975 0.0
H901 H 0.86691 0.68338 0.91699 0.0
H902 H 0.88013 0.67271 0.91481 0.0
H903 H 0.92775 0.76231 0.94088 0.0
H904 H 0.90305 0.75118 0.94103 0.0
H905 H 0.9145 0.75629 0.91938 0.0
H906 H 0.93651 0.70846 0.80191 0.0
H907 H 0.90716 0.70065 0.80201 0.0
H908 H 0.9364 0.7588 0.80246 0.0
H909 H 0.87872 0.69323 0.83836 0.0
H910 H 0.87901 0.6829 0.81663 0.0
H911 H 0.8656 0.69338 0.81884 0.0
H912 H 0.92599 0.77547 0.81848 0.0
H913 H 0.91333 0.76458 0.83898 0.0
H914 H 0.90122 0.7639 0.8182 0.0
H915 H 0.80536 0.74215 0.78084 0.0
H916 H 0.79084 0.7596 0.78574 0.0
H917 H 0.79809 0.75659 0.80808 0.0
H918 H 0.77418 0.74278 0.8012 0.0
H919 H 0.79263 0.69759 0.81594 0.0
H920 H 0.82579 0.75475 0.8067 0.0
H921 H 0.81788 0.69282 0.84784 0.0
H922 H 0.83037 0.69196 0.82855 0.0
H923 H 0.80566 0.68098 0.82679 0.0
H924 H 0.8561 0.77284 0.81845 0.0
H925 H 0.8681 0.76117 0.81463 0.0
H926 H 0.86239 0.76389 0.83772 0.0
H927 H 0.86918 0.71722 0.93862 0.0
H928 H 0.90955 0.72495 0.88926 0.0
H929 H 0.9089 0.72806 0.85632 0.0
H930 H 0.86674 0.7293 0.81229 0.0
H931 H 0.82942 0.72727 0.86248 0.0
H932 H 0.82993 0.72386 0.89535 0.0
H933 H 0.97313 0.74345 0.79375 0.0
H934 H 0.97027 0.72296 0.80347 0.0
H935 H 0.96296 0.73604 0.8161 0.0
C936 C 0.86226 0.61461 0.35538 0.0
C937 C 0.86931 0.6275 0.37234 0.0
C938 C 0.85511 0.62146 0.40237 0.0
C939 C 0.8622 0.63938 0.40866 0.0
C940 C 0.85332 0.64332 0.4224 0.0
C941 C 0.83682 0.62906 0.42973 0.0
C942 C 0.82997 0.61089 0.42379 0.0
C943 C 0.83949 0.60732 0.41046 0.0
C944 C 0.86136 0.66279 0.42875 0.0
C945 C 0.81223 0.59531 0.43094 0.0
C946 C 0.78904 0.69435 0.3819 0.0
C947 C 0.7711 0.67786 0.38832 0.0
C948 C 0.77898 0.66868 0.41671 0.0
C949 C 0.77189 0.65008 0.41409 0.0
C950 C 0.77977 0.64161 0.42351 0.0
C951 C 0.79522 0.65209 0.43555 0.0
C952 C 0.80228 0.67089 0.43827 0.0
C953 C 0.79379 0.67886 0.42907 0.0
C954 C 0.77163 0.62149 0.42054 0.0
C955 C 0.819 0.68265 0.45062 0.0
C956 C 0.75434 0.62773 0.55173 0.0
C957 C 0.75023 0.61236 0.54088 0.0
C958 C 0.76402 0.61179 0.53124 0.0
C959 C 0.78223 0.62698 0.53215 0.0
C960 C 0.78645 0.64245 0.54301 0.0
C961 C 0.77242 0.64259 0.55268 0.0
C962 C 0.75906 0.59502 0.51983 0.0
C963 C 0.8057 0.65891 0.54414 0.0
C964 C 0.88805 0.59054 0.54785 0.0
C965 C 0.88365 0.60519 0.55206 0.0
C966 C 0.85432 0.60302 0.5463 0.0
C967 C 0.836 0.59026 0.54149 0.0
C968 C 0.82477 0.59549 0.53274 0.0
C969 C 0.832 0.61405 0.52915 0.0
C970 C 0.8503 0.62716 0.53482 0.0
C971 C 0.86131 0.6215 0.54324 0.0
C972 C 0.80528 0.58115 0.52704 0.0
C973 C 0.85826 0.64713 0.53184 0.0
C974 C 0.82587 0.63327 0.44226 0.0
C975 C 0.81588 0.64022 0.43427 0.0
C976 C 0.80441 0.64359 0.44482 0.0
C977 C 0.80231 0.63938 0.46383 0.0
C978 C 0.78996 0.64144 0.47459 0.0
C979 C 0.78806 0.63736 0.4933 0.0
C980 C 0.79856 0.63121 0.50202 0.0
C981 C 0.7966 0.62689 0.521 0.0
C982 C 0.80774 0.62149 0.52944 0.0
C983 C 0.82053 0.61974 0.51927 0.0
C984 C 0.8221 0.62322 0.50005 0.0
C985 C 0.83421 0.62084 0.48918 0.0
C986 C 0.83554 0.62419 0.47027 0.0
C987 C 0.82486 0.63009 0.46151 0.0
C988 C 0.81281 0.6329 0.47226 0.0
C989 C 0.8112 0.62916 0.49147 0.0
C990 C 0.71123 0.61518 0.54734 0.0
C991 C 0.72319 0.6154 0.56354 0.0
O992 O 0.86277 0.61746 0.38825 0.0
O993 O 0.86482 0.59704 0.5538 0.0
O994 O 0.74142 0.62893 0.5613 0.0
O995 O 0.77167 0.67705 0.40747 0.0
H996 H 0.86353 0.63635 0.37069 0.0
H997 H 0.847 0.6072 0.35453 0.0
H998 H 0.86641 0.60445 0.35629 0.0
H999 H 0.86768 0.62239 0.34249 0.0
H1000 H 0.87461 0.6503 0.40277 0.0
H1001 H 0.83426 0.59352 0.4056 0.0
H1002 H 0.85298 0.66794 0.42275 0.0
H1003 H 0.87576 0.67171 0.42433 0.0
H1004 H 0.86102 0.66373 0.44408 0.0
H1005 H 0.80774 0.58234 0.42336 0.0
H1006 H 0.80113 0.5983 0.4297 0.0
H1007 H 0.81406 0.59346 0.44584 0.0
H1008 H 0.76974 0.66545 0.38185 0.0
H1009 H 0.78889 0.69515 0.36655 0.0
H1010 H 0.80087 0.69314 0.38621 0.0
H1011 H 0.79102 0.70708 0.38811 0.0
H1012 H 0.76013 0.64222 0.40477 0.0
H1013 H 0.79903 0.69322 0.43103 0.0
H1014 H 0.7813 0.61926 0.41261 0.0
H1015 H 0.75825 0.61489 0.41276 0.0
H1016 H 0.7696 0.6148 0.43408 0.0
H1017 H 0.82414 0.69732 0.44933 0.0
H1018 H 0.83024 0.68036 0.44718 0.0
H1019 H 0.81549 0.67894 0.46528 0.0
H1020 H 0.72178 0.60189 0.56386 0.0
H1021 H 0.73632 0.60081 0.53964 0.0
H1022 H 0.77549 0.65441 0.561 0.0
H1023 H 0.76076 0.59837 0.50491 0.0
H1024 H 0.74468 0.58376 0.52185 0.0
H1025 H 0.76848 0.59026 0.52351 0.0
H1026 H 0.80671 0.66997 0.55304 0.0
H1027 H 0.81025 0.66414 0.53003 0.0
H1028 H 0.81529 0.65505 0.5498 0.0
H1029 H 0.88837 0.61419 0.53987 0.0
H1030 H 0.90314 0.59676 0.5467 0.0
H1031 H 0.88133 0.58353 0.53445 0.0
H1032 H 0.88295 0.58024 0.55883 0.0
H1033 H 0.83066 0.57607 0.54415 0.0
H1034 H 0.87531 0.63154 0.54751 0.0
H1035 H 0.80284 0.58227 0.51209 0.0
H1036 H 0.79556 0.58334 0.53494 0.0
H1037 H 0.80217 0.5672 0.52959 0.0
H1038 H 0.87197 0.65572 0.5388 0.0
H1039 H 0.84883 0.65124 0.53714 0.0
H1040 H 0.85972 0.6498 0.51677 0.0
H1041 H 0.81707 0.64305 0.41958 0.0
H1042 H 0.78151 0.64611 0.46862 0.0
H1043 H 0.77831 0.63919 0.50086 0.0
H1044 H 0.80628 0.61838 0.54406 0.0
H1045 H 0.84272 0.61625 0.49515 0.0
H1046 H 0.84509 0.62213 0.46258 0.0
H1047 H 0.69653 0.60485 0.54955 0.0
H1048 H 0.71283 0.62868 0.54584 0.0
H1049 H 0.71529 0.61166 0.53418 0.0
C1050 C 0.38814 0.28991 0.40839 0.0
C1051 C 0.37514 0.27392 0.39536 0.0
C1052 C 0.36493 0.24716 0.41478 0.0
C1053 C 0.35003 0.2335 0.42421 0.0
C1054 C 0.35151 0.22048 0.43414 0.0
C1055 C 0.36844 0.22123 0.43473 0.0
C1056 C 0.38363 0.23501 0.42525 0.0
C1057 C 0.38174 0.24782 0.41532 0.0
C1058 C 0.33497 0.20587 0.44397 0.0
C1059 C 0.40188 0.2362 0.42567 0.0
C1060 C 0.36141 0.09911 0.38007 0.0
C1061 C 0.3685 0.11731 0.38887 0.0
C1062 C 0.35884 0.133 0.40977 0.0
C1063 C 0.37666 0.14818 0.4131 0.0
C1064 C 0.37955 0.16277 0.42445 0.0
C1065 C 0.36436 0.16225 0.43259 0.0
C1066 C 0.34644 0.14698 0.42935 0.0
C1067 C 0.34394 0.13251 0.41802 0.0
C1068 C 0.39885 0.17883 0.4277 0.0
C1069 C 0.32994 0.14601 0.43779 0.0
C1070 C 0.36213 0.13366 0.55333 0.0
C1071 C 0.38069 0.14709 0.55096 0.0
C1072 C 0.3855 0.16268 0.5408 0.0
C1073 C 0.37147 0.16485 0.53303 0.0
C1074 C 0.3528 0.15134 0.53556 0.0
C1075 C 0.34842 0.13585 0.5455 0.0
C1076 C 0.40552 0.17679 0.53826 0.0
C1077 C 0.33741 0.15327 0.52784 0.0
C1078 C 0.40334 0.30381 0.55392 0.0
C1079 C 0.38992 0.28504 0.56151 0.0
C1080 C 0.3942 0.25985 0.55403 0.0
C1081 C 0.4083 0.25714 0.54905 0.0
C1082 C 0.40451 0.24151 0.53902 0.0
C1083 C 0.38608 0.22813 0.53419 0.0
C1084 C 0.37165 0.23039 0.53994 0.0
C1085 C 0.37586 0.24624 0.54983 0.0
C1086 C 0.4202 0.23941 0.53337 0.0
C1087 C 0.35181 0.21608 0.53554 0.0
C1088 C 0.37007 0.20738 0.44502 0.0
C1089 C 0.36709 0.19204 0.43515 0.0
C1090 C 0.36723 0.17789 0.44412 0.0
C1091 C 0.37004 0.17882 0.46357 0.0
C1092 C 0.36953 0.16453 0.47314 0.0
C1093 C 0.37166 0.16532 0.49236 0.0
C1094 C 0.37467 0.18056 0.5027 0.0
C1095 C 0.37608 0.18117 0.52229 0.0
C1096 C 0.37998 0.19688 0.53209 0.0
C1097 C 0.38196 0.2119 0.52289 0.0
C1098 C 0.37963 0.21117 0.50337 0.0
C1099 C 0.38065 0.22568 0.49372 0.0
C1100 C 0.37756 0.2245 0.47461 0.0
C1101 C 0.37371 0.20892 0.46437 0.0
C1102 C 0.37335 0.19443 0.47371 0.0
C1103 C 0.37602 0.19544 0.49326 0.0
C1104 C 0.35592 0.10105 0.58867 0.0
C1105 C 0.36731 0.11472 0.57474 0.0
O1106 O 0.3624 0.25931 0.40549 0.0
O1107 O 0.39882 0.27556 0.56314 0.0
O1108 O 0.35669 0.11844 0.5631 0.0
O1109 O 0.35548 0.11866 0.39873 0.0
H1110 H 0.3833 0.26988 0.38703 0.0
H1111 H 0.39594 0.28614 0.41778 0.0
H1112 H 0.38028 0.29407 0.41702 0.0
H1113 H 0.39821 0.30168 0.40023 0.0
H1114 H 0.33713 0.23307 0.42374 0.0
H1115 H 0.39347 0.25825 0.40813 0.0
H1116 H 0.33186 0.19227 0.43924 0.0
H1117 H 0.32257 0.20669 0.4415 0.0
H1118 H 0.33802 0.20712 0.45911 0.0
H1119 H 0.41267 0.24827 0.41841 0.0
H1120 H 0.40024 0.2238 0.419 0.0
H1121 H 0.40657 0.23681 0.44025 0.0
H1122 H 0.37666 0.12904 0.37969 0.0
H1123 H 0.3624 0.10151 0.36471 0.0
H1124 H 0.34594 0.09184 0.38001 0.0
H1125 H 0.37628 0.08934 0.3941 0.0
H1126 H 0.38837 0.14876 0.4069 0.0
H1127 H 0.33027 0.12076 0.41544 0.0
H1128 H 0.39983 0.19125 0.42231 0.0
H1129 H 0.40929 0.17694 0.42088 0.0
H1130 H 0.40214 0.18109 0.44281 0.0
H1131 H 0.31689 0.13323 0.43385 0.0
H1132 H 0.32899 0.1577 0.43327 0.0
H1133 H 0.33157 0.14696 0.45313 0.0
H1134 H 0.37714 0.1123 0.56723 0.0
H1135 H 0.39139 0.14539 0.55688 0.0
H1136 H 0.33416 0.12539 0.54746 0.0
H1137 H 0.40824 0.17945 0.52328 0.0
H1138 H 0.41477 0.17258 0.5441 0.0
H1139 H 0.40888 0.18974 0.54518 0.0
H1140 H 0.32375 0.1426 0.53283 0.0
H1141 H 0.3371 0.15231 0.51248 0.0
H1142 H 0.33976 0.16678 0.53178 0.0
H1143 H 0.37817 0.2782 0.55134 0.0
H1144 H 0.39653 0.31169 0.55237 0.0
H1145 H 0.40796 0.30233 0.54009 0.0
H1146 H 0.41561 0.31147 0.56332 0.0
H1147 H 0.42238 0.26757 0.55268 0.0
H1148 H 0.36481 0.24787 0.55442 0.0
H1149 H 0.41995 0.23782 0.51805 0.0
H1150 H 0.41855 0.22694 0.53944 0.0
H1151 H 0.4338 0.25121 0.53792 0.0
H1152 H 0.34215 0.21938 0.5419 0.0
H1153 H 0.34874 0.20272 0.54057 0.0
H1154 H 0.34935 0.21473 0.52029 0.0
H1155 H 0.36448 0.19103 0.42028 0.0
H1156 H 0.3672 0.15245 0.46591 0.0
H1157 H 0.37091 0.15382 0.49903 0.0
H1158 H 0.38104 0.19725 0.54711 0.0
H1159 H 0.38356 0.238 0.50087 0.0
H1160 H 0.37825 0.23597 0.46795 0.0
H1161 H 0.35712 0.08899 0.58528 0.0
H1162 H 0.34115 0.09415 0.58361 0.0
H1163 H 0.36522 0.11554 0.61431 0.0
C1164 C 0.86965 0.26419 0.3713 0.0
C1165 C 0.88191 0.26861 0.38873 0.0
C1166 C 0.86225 0.24254 0.40853 0.0
C1167 C 0.84931 0.24728 0.41277 0.0
C1168 C 0.83378 0.23565 0.42308 0.0
C1169 C 0.83126 0.21907 0.42931 0.0
C1170 C 0.84452 0.21452 0.42544 0.0
C1171 C 0.85984 0.22636 0.4151 0.0
C1172 C 0.81994 0.24092 0.42715 0.0
C1173 C 0.84235 0.19702 0.43195 0.0
C1174 C 0.73005 0.12661 0.34995 0.0
C1175 C 0.73722 0.12379 0.36839 0.0
C1176 C 0.74338 0.14144 0.39701 0.0
C1177 C 0.75697 0.13879 0.40463 0.0
C1178 C 0.76942 0.15074 0.41834 0.0
C1179 C 0.76835 0.16575 0.4244 0.0
C1180 C 0.75412 0.16796 0.41738 0.0
C1181 C 0.74161 0.15556 0.40392 0.0
C1182 C 0.78411 0.14768 0.42587 0.0
C1183 C 0.75256 0.18376 0.4236 0.0
C1184 C 0.72842 0.14189 0.54127 0.0
C1185 C 0.74193 0.13748 0.53902 0.0
C1186 C 0.75864 0.14965 0.53071 0.0
C1187 C 0.76195 0.1666 0.52476 0.0
C1188 C 0.74866 0.17132 0.52765 0.0
C1189 C 0.73206 0.15888 0.5359 0.0
C1190 C 0.77268 0.14435 0.52807 0.0
C1191 C 0.75189 0.18942 0.52176 0.0
C1192 C 0.89345 0.27782 0.5518 0.0
C1193 C 0.88496 0.26412 0.56737 0.0
C1194 C 0.86048 0.23657 0.55067 0.0
C1195 C 0.85587 0.2195 0.54385 0.0
C1196 C 0.83967 0.20855 0.53333 0.0
C1197 C 0.82776 0.2149 0.52953 0.0
C1198 C 0.83208 0.23201 0.5367 0.0
C1199 C 0.84842 0.24271 0.54725 0.0
C1200 C 0.83543 0.19031 0.52601 0.0
C1201 C 0.81959 0.23908 0.53292 0.0
C1202 C 0.81439 0.20609 0.43918 0.0
C1203 C 0.79922 0.19316 0.42851 0.0
C1204 C 0.78311 0.17991 0.43678 0.0
C1205 C 0.78184 0.17977 0.45628 0.0
C1206 C 0.76573 0.16686 0.46506 0.0
C1207 C 0.7647 0.16679 0.4843 0.0
C1208 C 0.77987 0.17939 0.49549 0.0
C1209 C 0.77908 0.17924 0.51506 0.0
C1210 C 0.79472 0.19129 0.52577 0.0
C1211 C 0.81116 0.20381 0.51745 0.0
C1212 C 0.81195 0.20478 0.49792 0.0
C1213 C 0.82806 0.21772 0.48912 0.0
C1214 C 0.82881 0.21836 0.46989 0.0
C1215 C 0.81359 0.2059 0.45872 0.0
C1216 C 0.7972 0.19275 0.46729 0.0
C1217 C 0.79631 0.19237 0.48691 0.0
C1218 C 0.68304 0.10246 0.54871 0.0
C1219 C 0.70389 0.11184 0.55121 0.0
O1220 O 0.87713 0.25287 0.39804 0.0
O1221 O 0.87674 0.24654 0.56025 0.0
O1222 O 0.71176 0.13027 0.54852 0.0
O1223 O 0.7321 0.13089 0.38273 0.0
H1224 H 0.88047 0.2781 0.39803 0.0
H1225 H 0.85505 0.25801 0.37503 0.0
H1226 H 0.87072 0.25449 0.362 0.0
H1227 H 0.87381 0.27679 0.36365 0.0
H1228 H 0.8511 0.25989 0.408 0.0
H1229 H 0.86997 0.22289 0.41185 0.0
H1230 H 0.80643 0.23077 0.42062 0.0
H1231 H 0.82418 0.25456 0.42193 0.0
H1232 H 0.81803 0.24086 0.44233 0.0
H1233 H 0.85424 0.1958 0.42835 0.0
H1234 H 0.82968 0.18534 0.42554 0.0
H1235 H 0.84081 0.19613 0.44721 0.0
H1236 H 0.75249 0.1315 0.36743 0.0
H1237 H 0.73372 0.12071 0.3383 0.0
H1238 H 0.73641 0.14136 0.34766 0.0
H1239 H 0.71489 0.12022 0.34992 0.0
H1240 H 0.758 0.12751 0.39975 0.0
H1241 H 0.7309 0.15733 0.39811 0.0
H1242 H 0.79763 0.15824 0.42058 0.0
H1243 H 0.78155 0.13413 0.42168 0.0
H1244 H 0.78494 0.1489 0.44123 0.0
H1245 H 0.7405 0.18338 0.41707 0.0
H1246 H 0.76522 0.19669 0.42004 0.0
H1247 H 0.75136 0.18376 0.43889 0.0
H1248 H 0.70843 0.10587 0.54038 0.0
H1249 H 0.73955 0.1246 0.54368 0.0
H1250 H 0.72166 0.16225 0.53792 0.0
H1251 H 0.77588 0.14488 0.51316 0.0
H1252 H 0.76787 0.1305 0.53306 0.0
H1253 H 0.78564 0.15419 0.53569 0.0
H1254 H 0.74066 0.19146 0.52597 0.0
H1255 H 0.75296 0.19035 0.50646 0.0
H1256 H 0.7651 0.20059 0.52792 0.0
H1257 H 0.87457 0.26589 0.57452 0.0
H1258 H 0.90031 0.29191 0.5576 0.0
H1259 H 0.88268 0.27593 0.54163 0.0
H1260 H 0.90372 0.27608 0.54438 0.0
H1261 H 0.86521 0.21486 0.54665 0.0
H1262 H 0.85169 0.25583 0.55258 0.0
H1263 H 0.83515 0.19019 0.51062 0.0
H1264 H 0.8216 0.17949 0.53045 0.0
H1265 H 0.8457 0.18701 0.53089 0.0
H1266 H 0.82472 0.25254 0.53971 0.0
H1267 H 0.80562 0.22931 0.53794 0.0
H1268 H 0.8183 0.24027 0.51774 0.0
H1269 H 0.80012 0.19313 0.41352 0.0
H1270 H 0.75372 0.15674 0.45715 0.0
H1271 H 0.75192 0.15658 0.49029 0.0
H1272 H 0.79416 0.19076 0.54078 0.0
H1273 H 0.84026 0.22755 0.49701 0.0
H1274 H 0.84155 0.22864 0.46388 0.0
H1275 H 0.67634 0.08759 0.55051 0.0
H1276 H 0.67954 0.10478 0.53453 0.0
H1277 H 0.67748 0.10793 0.55892 0.0
C1278 C 0.0021 0.44881 0.32623 0.0
C1279 C 0.99612 0.43711 0.3084 0.0
C1280 C 0.00679 0.45862 0.28294 0.0
C1281 C 0.98988 0.45608 0.27683 0.0
C1282 C 0.98925 0.46878 0.26546 0.0
C1283 C 0.00584 0.48419 0.25982 0.0
C1284 C 0.02288 0.4865 0.26543 0.0
C1285 C 0.02311 0.47358 0.27683 0.0
C1286 C 0.97082 0.46574 0.25945 0.0
C1287 C 0.0408 0.50266 0.25944 0.0
C1288 C 0.01998 0.58048 0.32281 0.0
C1289 C 0.02585 0.59243 0.30574 0.0
C1290 C 0.01072 0.57041 0.28025 0.0
C1291 C 0.02589 0.57139 0.27184 0.0
C1292 C 0.02373 0.55693 0.26078 0.0
C1293 C 0.00603 0.5412 0.25801 0.0
C1294 C 0.99062 0.54044 0.2659 0.0
C1295 C 0.99316 0.5552 0.27676 0.0
C1296 C 0.0404 0.55835 0.25221 0.0
C1297 C 0.97156 0.52392 0.26311 0.0
C1298 C 0.9729 0.54867 0.14358 0.0
C1299 C 0.9916 0.5547 0.14597 0.0
C1300 C 0.99705 0.54337 0.15364 0.0
C1301 C 0.98349 0.5258 0.15934 0.0
C1302 C 0.96464 0.51938 0.156 0.0
C1303 C 0.95962 0.53086 0.1479 0.0
C1304 C 0.01726 0.55038 0.1562 0.0
C1305 C 0.9498 0.50063 0.16161 0.0
C1306 C 0.98962 0.40765 0.15242 0.0
C1307 C 0.98301 0.41296 0.13519 0.0
C1308 C 0.99291 0.44496 0.14166 0.0
C1309 C 0.00786 0.46276 0.14046 0.0
C1310 C 0.00809 0.47727 0.14964 0.0
C1311 C 0.9927 0.47391 0.1599 0.0
C1312 C 0.97719 0.45603 0.1606 0.0
C1313 C 0.97758 0.44171 0.15178 0.0
C1314 C 0.02489 0.49613 0.14863 0.0
C1315 C 0.96024 0.45201 0.17082 0.0
C1316 C 0.00522 0.49794 0.24827 0.0
C1317 C 0.00604 0.5127 0.25732 0.0
C1318 C 0.00389 0.52531 0.24751 0.0
C1319 C 0.00026 0.52287 0.22816 0.0
C1320 C 0.99687 0.53461 0.21802 0.0
C1321 C 0.99292 0.53184 0.19905 0.0
C1322 C 0.9928 0.51758 0.18936 0.0
C1323 C 0.98886 0.51468 0.17005 0.0
C1324 C 0.98918 0.50055 0.16084 0.0
C1325 C 0.99305 0.48895 0.17044 0.0
C1326 C 0.99665 0.49142 0.18981 0.0
C1327 C 0.00026 0.47982 0.19998 0.0
C1328 C 0.003 0.48187 0.21913 0.0
C1329 C 0.00277 0.49592 0.22879 0.0
C1330 C 0.99991 0.50823 0.21874 0.0
C1331 C 0.99653 0.50579 0.19927 0.0
C1332 C 0.96101 0.58184 0.14877 0.0
C1333 C 0.9756 0.57804 0.14217 0.0
O1334 O 0.00796 0.44683 0.29431 0.0
O1335 O 0.99394 0.43156 0.13276 0.0
O1336 O 0.96725 0.55976 0.13745 0.0
O1337 O 0.01258 0.5839 0.29166 0.0
H1338 H 0.98188 0.4335 0.30499 0.0
H1339 H 0.00089 0.46083 0.32415 0.0
H1340 H 0.01662 0.4537 0.33014 0.0
H1341 H 0.99314 0.44092 0.33779 0.0
H1342 H 0.97708 0.44412 0.28052 0.0
H1343 H 0.03609 0.47529 0.28133 0.0
H1344 H 0.97 0.47769 0.26354 0.0
H1345 H 0.95916 0.45343 0.26558 0.0
H1346 H 0.96927 0.46425 0.24411 0.0
H1347 H 0.05287 0.50209 0.26429 0.0
H1348 H 0.04218 0.51532 0.26504 0.0
H1349 H 0.04087 0.50337 0.24409 0.0
H1350 H 0.03919 0.59451 0.30134 0.0
H1351 H 0.03036 0.5873 0.33428 0.0
H1352 H 0.0188 0.56737 0.31937 0.0
H1353 H 0.00643 0.57761 0.32758 0.0
H1354 H 0.03942 0.58348 0.27372 0.0
H1355 H 0.9815 0.55469 0.28308 0.0
H1356 H 0.03812 0.55598 0.23698 0.0
H1357 H 0.04252 0.54769 0.25781 0.0
H1358 H 0.05309 0.57182 0.25497 0.0
H1359 H 0.96097 0.52551 0.27002 0.0
H1360 H 0.97117 0.51184 0.26871 0.0
H1361 H 0.96802 0.52127 0.24807 0.0
H1362 H 0.98531 0.58159 0.15425 0.0
H1363 H 0.00194 0.56829 0.14199 0.0
H1364 H 0.94523 0.52624 0.14567 0.0
H1365 H 0.02118 0.55326 0.17115 0.0
H1366 H 0.02595 0.56304 0.14852 0.0
H1367 H 0.02023 0.53995 0.15147 0.0
H1368 H 0.93577 0.49791 0.15862 0.0
H1369 H 0.95122 0.49898 0.17667 0.0
H1370 H 0.95135 0.49029 0.15406 0.0
H1371 H 0.96849 0.40888 0.137 0.0
H1372 H 0.98111 0.39273 0.15427 0.0
H1373 H 0.98837 0.41446 0.16493 0.0
H1374 H 0.00425 0.41178 0.15122 0.0
H1375 H 0.0196 0.46522 0.13257 0.0
H1376 H 0.96574 0.42815 0.15288 0.0
H1377 H 0.03002 0.50186 0.16283 0.0
H1378 H 0.02117 0.50512 0.14154 0.0
H1379 H 0.03616 0.49632 0.141 0.0
H1380 H 0.94838 0.4381 0.16764 0.0
H1381 H 0.95627 0.46195 0.16722 0.0
H1382 H 0.96321 0.45329 0.18598 0.0
H1383 H 0.00827 0.51434 0.27225 0.0
H1384 H 0.99693 0.5459 0.2247 0.0
H1385 H 0.99006 0.54112 0.19209 0.0
H1386 H 0.9861 0.49839 0.14605 0.0
H1387 H 0.00077 0.46884 0.1933 0.0
H1388 H 0.00544 0.47237 0.22626 0.0
H1389 H 0.94988 0.57756 0.1381 0.0
H1390 H 0.96735 0.59655 0.15207 0.0
H1391 H 0.95473 0.57416 0.16153 0.0
C1392 C 0.45666 0.39228 0.32335 0.0
C1393 C 0.4495 0.3985 0.30732 0.0
C1394 C 0.4618 0.40513 0.27648 0.0
C1395 C 0.45604 0.41683 0.27083 0.0
C1396 C 0.46569 0.42993 0.25746 0.0
C1397 C 0.48164 0.43155 0.24988 0.0
C1398 C 0.48695 0.41917 0.25495 0.0
C1399 C 0.47668 0.40584 0.26795 0.0
C1400 C 0.45928 0.44253 0.25208 0.0
C1401 C 0.50401 0.42061 0.24741 0.0
C1402 C 0.58309 0.57383 0.29133 0.0
C1403 C 0.57524 0.55414 0.28776 0.0
C1404 C 0.54796 0.52937 0.27141 0.0
C1405 C 0.55519 0.51826 0.26859 0.0
C1406 C 0.54531 0.50207 0.258 0.0
C1407 C 0.52792 0.49694 0.25017 0.0
C1408 C 0.52056 0.50802 0.25316 0.0
C1409 C 0.53071 0.5241 0.26379 0.0
C1410 C 0.55345 0.49047 0.25511 0.0
C1411 C 0.50202 0.5029 0.24505 0.0
C1412 C 0.56721 0.52269 0.1336 0.0
C1413 C 0.57096 0.51145 0.14429 0.0
C1414 C 0.55678 0.4961 0.15284 0.0
C1415 C 0.53852 0.49217 0.15126 0.0
C1416 C 0.53467 0.50345 0.14061 0.0
C1417 C 0.54907 0.51849 0.13182 0.0
C1418 C 0.56141 0.48419 0.16377 0.0
C1419 C 0.5154 0.49975 0.13874 0.0
C1420 C 0.42803 0.34702 0.12847 0.0
C1421 C 0.43331 0.36668 0.12574 0.0
C1422 C 0.46341 0.39425 0.13124 0.0
C1423 C 0.4817 0.39982 0.13525 0.0
C1424 C 0.49362 0.41645 0.14451 0.0
C1425 C 0.48713 0.42793 0.14944 0.0
C1426 C 0.46895 0.42285 0.1444 0.0
C1427 C 0.45723 0.406 0.13546 0.0
C1428 C 0.51298 0.42152 0.14951 0.0
C1429 C 0.46177 0.43505 0.14882 0.0
C1430 C 0.49398 0.44758 0.2387 0.0
C1431 C 0.50512 0.46407 0.24831 0.0
C1432 C 0.51723 0.47985 0.23904 0.0
C1433 C 0.51868 0.47925 0.21962 0.0
C1434 C 0.53103 0.49485 0.20993 0.0
C1435 C 0.53258 0.49407 0.19085 0.0
C1436 C 0.52178 0.47768 0.1807 0.0
C1437 C 0.52369 0.47665 0.16137 0.0
C1438 C 0.51217 0.46034 0.15157 0.0
C1439 C 0.49902 0.44481 0.16064 0.0
C1440 C 0.49746 0.44539 0.1801 0.0
C1441 C 0.48487 0.42986 0.18981 0.0
C1442 C 0.48357 0.43055 0.20897 0.0
C1443 C 0.49488 0.44676 0.21919 0.0
C1444 C 0.50746 0.46264 0.20965 0.0
C1445 C 0.50885 0.46191 0.19013 0.0
C1446 C 0.60886 0.55603 0.14215 0.0
C1447 C 0.59919 0.54415 0.12478 0.0
O1448 O 0.45372 0.39361 0.29064 0.0
O1449 O 0.45213 0.37745 0.12347 0.0
O1450 O 0.58052 0.53766 0.1249 0.0
O1451 O 0.55717 0.54533 0.28118 0.0
H1452 H 0.45694 0.4136 0.30885 0.0
H1453 H 0.47188 0.39932 0.32291 0.0
H1454 H 0.45089 0.37742 0.3224 0.0
H1455 H 0.45301 0.39568 0.33685 0.0
H1456 H 0.44418 0.41592 0.27709 0.0
H1457 H 0.48086 0.39658 0.27232 0.0
H1458 H 0.46819 0.45589 0.25923 0.0
H1459 H 0.44485 0.43718 0.25605 0.0
H1460 H 0.46036 0.44475 0.23691 0.0
H1461 H 0.50681 0.41058 0.25356 0.0
H1462 H 0.51611 0.43447 0.25023 0.0
H1463 H 0.50244 0.41835 0.23216 0.0
H1464 H 0.57749 0.54675 0.299 0.0
H1465 H 0.58595 0.57577 0.30675 0.0
H1466 H 0.57117 0.57594 0.29185 0.0
H1467 H 0.60412 0.58659 0.27175 0.0
H1468 H 0.56847 0.52214 0.27461 0.0
H1469 H 0.52527 0.53276 0.26609 0.0
H1470 H 0.5441 0.47673 0.2606 0.0
H1471 H 0.56719 0.49639 0.26204 0.0
H1472 H 0.55478 0.48881 0.24005 0.0
H1473 H 0.4983 0.51306 0.24857 0.0
H1474 H 0.49128 0.48951 0.25026 0.0
H1475 H 0.50203 0.50157 0.22973 0.0
H1476 H 0.60149 0.53267 0.12482 0.0
H1477 H 0.58485 0.51448 0.1462 0.0
H1478 H 0.54625 0.5272 0.12362 0.0
H1479 H 0.5604 0.48626 0.1788 0.0
H1480 H 0.57555 0.48731 0.16119 0.0
H1481 H 0.5515 0.46963 0.16023 0.0
H1482 H 0.51485 0.51043 0.13091 0.0
H1483 H 0.50974 0.49886 0.15269 0.0
H1484 H 0.50641 0.48647 0.13146 0.0
H1485 H 0.42943 0.37077 0.13873 0.0
H1486 H 0.41291 0.33808 0.12988 0.0
H1487 H 0.43485 0.34619 0.14133 0.0
H1488 H 0.43242 0.34198 0.11667 0.0
H1489 H 0.48641 0.39078 0.13168 0.0
H1490 H 0.44329 0.40208 0.13183 0.0
H1491 H 0.51552 0.4241 0.16469 0.0
H1492 H 0.52293 0.43427 0.14257 0.0
H1493 H 0.51568 0.41076 0.14536 0.0
H1494 H 0.44818 0.43022 0.14197 0.0
H1495 H 0.47167 0.4491 0.14439 0.0
H1496 H 0.46033 0.43558 0.16403 0.0
H1497 H 0.50426 0.46466 0.26327 0.0
H1498 H 0.53975 0.50782 0.21702 0.0
H1499 H 0.54236 0.50651 0.18415 0.0
H1500 H 0.51363 0.45965 0.13673 0.0
H1501 H 0.47593 0.41694 0.18271 0.0
H1502 H 0.47365 0.4182 0.21572 0.0
H1503 H 0.62394 0.56198 0.14159 0.0
H1504 H 0.60382 0.54772 0.15474 0.0
H1505 H 0.6061 0.56717 0.14346 0.0
C1506 C 0.45626 0.00997 0.3233 0.0
C1507 C 0.44293 0.00791 0.30759 0.0
C1508 C 0.4559 0.00047 0.28105 0.0
C1509 C 0.47182 0.01776 0.2794 0.0
C1510 C 0.48561 0.02051 0.26716 0.0
C1511 C 0.48334 0.00574 0.25629 0.0
C1512 C 0.46701 0.98851 0.2574 0.0
C1513 C 0.4535 0.98613 0.26977 0.0
C1514 C 0.50279 0.03911 0.2661 0.0
C1515 C 0.46405 0.97249 0.24589 0.0
C1516 C 0.54484 0.95753 0.30222 0.0
C1517 C 0.55962 0.96345 0.2876 0.0
C1518 C 0.55649 0.98675 0.27173 0.0
C1519 C 0.54062 0.97473 0.26106 0.0
C1520 C 0.53104 0.98107 0.25098 0.0
C1521 C 0.53722 0.99977 0.25177 0.0
C1522 C 0.55339 0.01198 0.26213 0.0
C1523 C 0.56294 0.00531 0.27181 0.0
C1524 C 0.51397 0.96767 0.23985 0.0
C1525 C 0.56031 0.03198 0.26332 0.0
C1526 C 0.58452 0.0442 0.14008 0.0
C1527 C 0.56965 0.02613 0.13967 0.0
C1528 C 0.55333 0.0213 0.14873 0.0
C1529 C 0.55193 0.03482 0.15837 0.0
C1530 C 0.56669 0.05312 0.15827 0.0
C1531 C 0.58273 0.05758 0.14893 0.0
C1532 C 0.5376 0.00177 0.14807 0.0
C1533 C 0.56559 0.06793 0.1682 0.0
C1534 C 0.43525 0.0431 0.14651 0.0
C1535 C 0.4432 0.04071 0.12859 0.0
C1536 C 0.46196 0.02843 0.13973 0.0
C1537 C 0.4624 0.01257 0.14069 0.0
C1538 C 0.4767 0.01233 0.15016 0.0
C1539 C 0.491 0.02845 0.1589 0.0
C1540 C 0.49086 0.04468 0.15777 0.0
C1541 C 0.47633 0.04453 0.1482 0.0
C1542 C 0.47645 0.9948 0.15099 0.0
C1543 C 0.50598 0.06209 0.16689 0.0
C1544 C 0.49855 0.00802 0.24472 0.0
C1545 C 0.51119 0.00438 0.25281 0.0
C1546 C 0.52588 0.00612 0.24287 0.0
C1547 C 0.52853 0.01235 0.2245 0.0
C1548 C 0.54367 0.01516 0.21439 0.0
C1549 C 0.54611 0.02127 0.1963 0.0
C1550 C 0.53312 0.02414 0.18739 0.0
C1551 C 0.5352 0.02991 0.16885 0.0
C1552 C 0.52147 0.03156 0.16007 0.0
C1553 C 0.50583 0.02809 0.1695 0.0
C1554 C 0.50404 0.02338 0.18838 0.0
C1555 C 0.48898 0.02073 0.19857 0.0
C1556 C 0.48729 0.016 0.21711 0.0
C1557 C 0.50036 0.01327 0.22603 0.0
C1558 C 0.51555 0.01568 0.21597 0.0
C1559 C 0.5176 0.02113 0.19725 0.0
C1560 C 0.62553 0.04903 0.14597 0.0
C1561 C 0.60972 0.04011 0.13158 0.0
O1562 O 0.44262 0.99682 0.29339 0.0
O1563 O 0.44737 0.02736 0.13061 0.0
O1564 O 0.60051 0.04935 0.13157 0.0
O1565 O 0.5658 0.98108 0.28229 0.0
H1566 H 0.44723 0.0215 0.3021 0.0
H1567 H 0.47055 0.01676 0.31837 0.0
H1568 H 0.45245 0.99647 0.32862 0.0
H1569 H 0.456 0.0184 0.33487 0.0
H1570 H 0.47373 0.02911 0.28774 0.0
H1571 H 0.44109 0.97289 0.27101 0.0
H1572 H 0.51491 0.03846 0.27055 0.0
H1573 H 0.50222 0.04936 0.27497 0.0
H1574 H 0.50486 0.04366 0.25155 0.0
H1575 H 0.44994 0.96044 0.24712 0.0
H1576 H 0.47407 0.96877 0.25046 0.0
H1577 H 0.4665 0.97613 0.23107 0.0
H1578 H 0.55378 0.95407 0.27534 0.0
H1579 H 0.54013 0.94355 0.30675 0.0
H1580 H 0.53273 0.9575 0.2964 0.0
H1581 H 0.55031 0.96694 0.31449 0.0
H1582 H 0.53546 0.96036 0.26058 0.0
H1583 H 0.57523 0.01453 0.27997 0.0
H1584 H 0.51453 0.97263 0.22561 0.0
H1585 H 0.50173 0.96633 0.24648 0.0
H1586 H 0.51217 0.95401 0.23888 0.0
H1587 H 0.57321 0.03975 0.27182 0.0
H1588 H 0.54966 0.03397 0.26947 0.0
H1589 H 0.56283 0.03761 0.24919 0.0
H1590 H 0.60049 0.02574 0.13554 0.0
H1591 H 0.57061 0.01584 0.13204 0.0
H1592 H 0.59416 0.07154 0.14882 0.0
H1593 H 0.53497 0.99633 0.16228 0.0
H1594 H 0.54043 0.99305 0.13909 0.0
H1595 H 0.52489 0.00091 0.14282 0.0
H1596 H 0.57846 0.08143 0.16722 0.0
H1597 H 0.56275 0.06464 0.18306 0.0
H1598 H 0.55402 0.06875 0.16219 0.0
H1599 H 0.45582 0.05378 0.12518 0.0
H1600 H 0.43168 0.05363 0.1448 0.0
H1601 H 0.44545 0.0475 0.15815 0.0
H1602 H 0.4227 0.03011 0.15019 0.0
H1603 H 0.4513 0.00025 0.13407 0.0
H1604 H 0.47628 0.05696 0.14752 0.0
H1605 H 0.47584 0.99081 0.16565 0.0
H1606 H 0.48932 0.99675 0.14528 0.0
H1607 H 0.46454 0.98353 0.14312 0.0
H1608 H 0.50403 0.07363 0.1646 0.0
H1609 H 0.51946 0.06557 0.16136 0.0
H1610 H 0.50647 0.0602 0.18203 0.0
H1611 H 0.50934 0.99975 0.26697 0.0
H1612 H 0.55392 0.01286 0.22045 0.0
H1613 H 0.55815 0.02342 0.18928 0.0
H1614 H 0.52291 0.03549 0.14569 0.0
H1615 H 0.47839 0.02245 0.19235 0.0
H1616 H 0.47548 0.01425 0.22431 0.0
H1617 H 0.63527 0.0635 0.14272 0.0
H1618 H 0.63307 0.0418 0.14631 0.0
H1619 H 0.62 0.0484 0.15994 0.0
C1620 C 0.57773 0.98705 0.76183 0.0
C1621 C 0.57712 0.99858 0.74618 0.0
C1622 C 0.55688 0.00787 0.75979 0.0
C1623 C 0.55719 0.02236 0.76881 0.0
C1624 C 0.54144 0.02019 0.77692 0.0
C1625 C 0.52489 0.00303 0.77588 0.0
C1626 C 0.52426 0.98838 0.76626 0.0
C1627 C 0.5403 0.99094 0.75824 0.0
C1628 C 0.54259 0.03616 0.78696 0.0
C1629 C 0.50676 0.96997 0.76486 0.0
C1630 C 0.40649 0.0123 0.72789 0.0
C1631 C 0.41526 0.00463 0.73939 0.0
C1632 C 0.44472 0.01346 0.75435 0.0
C1633 C 0.44003 0.99558 0.75786 0.0
C1634 C 0.45221 0.99221 0.76763 0.0
C1635 C 0.46935 0.00699 0.7742 0.0
C1636 C 0.4742 0.02497 0.77055 0.0
C1637 C 0.46182 0.02795 0.76057 0.0
C1638 C 0.44672 0.97286 0.77106 0.0
C1639 C 0.49238 0.04104 0.77733 0.0
C1640 C 0.43544 0.00144 0.88715 0.0
C1641 C 0.43169 0.98372 0.8841 0.0
C1642 C 0.44516 0.98082 0.87708 0.0
C1643 C 0.46281 0.99591 0.87347 0.0
C1644 C 0.46707 0.01365 0.8781 0.0
C1645 C 0.45329 0.01617 0.88489 0.0
C1646 C 0.44037 0.9617 0.87281 0.0
C1647 C 0.48593 0.03002 0.87499 0.0
C1648 C 0.56909 0.96091 0.87721 0.0
C1649 C 0.56693 0.97561 0.88658 0.0
C1650 C 0.53728 0.97314 0.88754 0.0
C1651 C 0.51887 0.95981 0.8839 0.0
C1652 C 0.50654 0.96438 0.87659 0.0
C1653 C 0.51279 0.9828 0.87332 0.0
C1654 C 0.53104 0.99648 0.87848 0.0
C1655 C 0.54315 0.99149 0.88545 0.0
C1656 C 0.48709 0.94947 0.87157 0.0
C1657 C 0.53797 0.01631 0.8759 0.0
C1658 C 0.5086 0.00039 0.78569 0.0
C1659 C 0.49628 0.00357 0.77609 0.0
C1660 C 0.48201 0.00359 0.78521 0.0
C1661 C 0.48013 0.00067 0.80451 0.0
C1662 C 0.46653 0.0015 0.8143 0.0
C1663 C 0.46507 0.99902 0.83333 0.0
C1664 C 0.47709 0.99549 0.84334 0.0
C1665 C 0.47599 0.99338 0.86277 0.0
C1666 C 0.48777 0.98934 0.87223 0.0
C1667 C 0.50089 0.98755 0.86275 0.0
C1668 C 0.50257 0.9902 0.84338 0.0
C1669 C 0.51595 0.98903 0.83347 0.0
C1670 C 0.51796 0.99235 0.8146 0.0
C1671 C 0.50635 0.99649 0.80476 0.0
C1672 C 0.49228 0.99699 0.81428 0.0
C1673 C 0.49061 0.99417 0.83368 0.0
C1674 C 0.39833 0.00467 0.87486 0.0
C1675 C 0.40367 0.99449 0.88823 0.0
O1676 O 0.57298 0.01097 0.75306 0.0
O1677 O 0.54911 0.96788 0.89268 0.0
O1678 O 0.42239 0.00497 0.89228 0.0
O1679 O 0.43319 0.01726 0.74509 0.0
H1680 H 0.56661 0.98963 0.73545 0.0
H1681 H 0.56408 0.97888 0.76816 0.0
H1682 H 0.58791 0.99586 0.77284 0.0
H1683 H 0.58159 0.97751 0.75631 0.0
H1684 H 0.57003 0.03538 0.76978 0.0
H1685 H 0.53979 0.97968 0.75099 0.0
H1686 H 0.53181 0.03846 0.78143 0.0
H1687 H 0.55623 0.04884 0.78563 0.0
H1688 H 0.54005 0.03318 0.80191 0.0
H1689 H 0.50837 0.96005 0.75655 0.0
H1690 H 0.4956 0.97123 0.75842 0.0
H1691 H 0.5024 0.96461 0.77896 0.0
H1692 H 0.40671 0.9958 0.75081 0.0
H1693 H 0.40217 0.99917 0.70179 0.0
H1694 H 0.41518 0.02752 0.7299 0.0
H1695 H 0.39486 0.01077 0.73641 0.0
H1696 H 0.42689 0.98418 0.75302 0.0
H1697 H 0.46538 0.04167 0.75773 0.0
H1698 H 0.44518 0.97033 0.78616 0.0
H1699 H 0.45766 0.97056 0.76638 0.0
H1700 H 0.43357 0.96286 0.76381 0.0
H1701 H 0.49358 0.05418 0.77441 0.0
H1702 H 0.50374 0.04075 0.77047 0.0
H1703 H 0.49415 0.04022 0.7925 0.0
H1704 H 0.39981 0.98161 0.88081 0.0
H1705 H 0.41829 0.97212 0.88701 0.0
H1706 H 0.45621 0.02976 0.88779 0.0
H1707 H 0.4416 0.96005 0.85773 0.0
H1708 H 0.42619 0.95137 0.87689 0.0
H1709 H 0.45022 0.9591 0.8802 0.0
H1710 H 0.48782 0.04252 0.88172 0.0
H1711 H 0.48795 0.03228 0.85989 0.0
H1712 H 0.4967 0.02767 0.88046 0.0
H1713 H 0.56973 0.98563 0.8756 0.0
H1714 H 0.58352 0.96667 0.87298 0.0
H1715 H 0.56001 0.95551 0.8646 0.0
H1716 H 0.56517 0.9494 0.88656 0.0
H1717 H 0.5144 0.94571 0.88594 0.0
H1718 H 0.55724 0.0019 0.889 0.0
H1719 H 0.48442 0.94964 0.85649 0.0
H1720 H 0.47728 0.95186 0.87903 0.0
H1721 H 0.48435 0.93581 0.87506 0.0
H1722 H 0.55142 0.0253 0.8832 0.0
H1723 H 0.52785 0.01956 0.88105 0.0
H1724 H 0.53967 0.0193 0.8609 0.0
H1725 H 0.49806 0.00645 0.76142 0.0
H1726 H 0.45696 0.00428 0.8074 0.0
H1727 H 0.45436 0.99992 0.84009 0.0
H1728 H 0.48676 0.98762 0.88712 0.0
H1729 H 0.52524 0.98578 0.84022 0.0
H1730 H 0.52869 0.99153 0.80778 0.0
H1731 H 0.40283 0.01846 0.88035 0.0
H1732 H 0.3832 0.99696 0.8723 0.0
H1733 H 0.40504 0.00617 0.86139 0.0
C1734 C 0.02474 0.60379 0.74204 0.0
C1735 C 0.0112 0.58847 0.72862 0.0
C1736 C 0.99805 0.56142 0.74799 0.0
C1737 C 0.9824 0.54872 0.75732 0.0
C1738 C 0.98234 0.53513 0.76781 0.0
C1739 C 0.99839 0.53429 0.769 0.0
C1740 C 0.01426 0.54701 0.75954 0.0
C1741 C 0.01393 0.56041 0.7491 0.0
C1742 C 0.96518 0.52174 0.77772 0.0
C1743 C 0.03161 0.54648 0.76054 0.0
C1744 C 0.95892 0.42424 0.7063 0.0
C1745 C 0.97666 0.42906 0.7168 0.0
C1746 C 0.97922 0.4427 0.74719 0.0
C1747 C 0.9973 0.4577 0.74726 0.0
C1748 C 0.00259 0.47299 0.75867 0.0
C1749 C 0.98948 0.47327 0.77015 0.0
C1750 C 0.9714 0.45787 0.77056 0.0
C1751 C 0.96659 0.44263 0.75924 0.0
C1752 C 0.0221 0.48899 0.75819 0.0
C1753 C 0.95706 0.45772 0.78257 0.0
C1754 C 0.01628 0.4599 0.88921 0.0
C1755 C 0.03249 0.47315 0.88083 0.0
C1756 C 0.0327 0.48675 0.8702 0.0
C1757 C 0.01644 0.48714 0.86803 0.0
C1758 C 0.00019 0.47395 0.87664 0.0
C1759 C 0.00035 0.46049 0.88708 0.0
C1760 C 0.05024 0.50066 0.8612 0.0
C1761 C 0.98265 0.47405 0.87474 0.0
C1762 C 0.04557 0.62607 0.87786 0.0
C1763 C 0.03448 0.60878 0.88891 0.0
C1764 C 0.038 0.58295 0.88248 0.0
C1765 C 0.05106 0.5796 0.87541 0.0
C1766 C 0.04578 0.5628 0.86702 0.0
C1767 C 0.02696 0.54891 0.86604 0.0
C1768 C 0.01375 0.55188 0.87407 0.0
C1769 C 0.01941 0.56889 0.88225 0.0
C1770 C 0.06025 0.56 0.85885 0.0
C1771 C 0.99364 0.53715 0.87376 0.0
C1772 C 0.99867 0.52016 0.78019 0.0
C1773 C 0.99377 0.50374 0.77134 0.0
C1774 C 0.99441 0.49008 0.78081 0.0
C1775 C 0.99994 0.49275 0.79975 0.0
C1776 C 0.00083 0.47937 0.80971 0.0
C1777 C 0.00617 0.48211 0.82838 0.0
C1778 C 0.01098 0.49842 0.83778 0.0
C1779 C 0.01635 0.50132 0.85677 0.0
C1780 C 0.02134 0.51781 0.86559 0.0
C1781 C 0.02106 0.53157 0.85597 0.0
C1782 C 0.0155 0.52884 0.83704 0.0
C1783 C 0.01495 0.54236 0.82698 0.0
C1784 C 0.00939 0.53953 0.80839 0.0
C1785 C 0.00425 0.52311 0.7991 0.0
C1786 C 0.00482 0.50933 0.80893 0.0
C1787 C 0.01043 0.51219 0.82793 0.0
C1788 C 0.03088 0.4329 0.8859 0.0
C1789 C 0.02858 0.44221 0.90292 0.0
O1790 O 0.99719 0.57438 0.73829 0.0
O1791 O 0.04391 0.59978 0.8896 0.0
O1792 O 0.01515 0.44625 0.89934 0.0
O1793 O 0.97367 0.42812 0.7357 0.0
H1794 H 0.0187 0.58338 0.72071 0.0
H1795 H 0.03136 0.59891 0.75169 0.0
H1796 H 0.01754 0.60891 0.75041 0.0
H1797 H 0.03575 0.6152 0.73422 0.0
H1798 H 0.9702 0.54954 0.7564 0.0
H1799 H 0.02621 0.57002 0.742 0.0
H1800 H 0.9606 0.5077 0.77299 0.0
H1801 H 0.95376 0.52411 0.77529 0.0
H1802 H 0.96824 0.52272 0.79285 0.0
H1803 H 0.04288 0.55743 0.75252 0.0
H1804 H 0.02872 0.53317 0.75507 0.0
H1805 H 0.03637 0.54784 0.77521 0.0
H1806 H 0.98736 0.44312 0.71296 0.0
H1807 H 0.96102 0.42499 0.6911 0.0
H1808 H 0.95479 0.43399 0.71029 0.0
H1809 H 0.94759 0.41032 0.70963 0.0
H1810 H 0.00725 0.45744 0.73839 0.0
H1811 H 0.95274 0.43083 0.75925 0.0
H1812 H 0.02219 0.50049 0.75145 0.0
H1813 H 0.03117 0.48578 0.75039 0.0
H1814 H 0.02785 0.49351 0.7725 0.0
H1815 H 0.94345 0.44491 0.78082 0.0
H1816 H 0.9555 0.46931 0.77912 0.0
H1817 H 0.96155 0.45941 0.79735 0.0
H1818 H 0.04187 0.45489 0.90659 0.0
H1819 H 0.04498 0.47297 0.88243 0.0
H1820 H 0.98793 0.45024 0.89364 0.0
H1821 H 0.04783 0.50044 0.846 0.0
H1822 H 0.06162 0.49825 0.86378 0.0
H1823 H 0.05457 0.51444 0.8666 0.0
H1824 H 0.97133 0.46317 0.88278 0.0
H1825 H 0.97819 0.47217 0.85992 0.0
H1826 H 0.9851 0.48738 0.87958 0.0
H1827 H 0.02098 0.60043 0.88143 0.0
H1828 H 0.03828 0.63353 0.87703 0.0
H1829 H 0.04731 0.62248 0.86353 0.0
H1830 H 0.05942 0.6351 0.88441 0.0
H1831 H 0.06541 0.59043 0.876 0.0
H1832 H 0.00933 0.57111 0.88854 0.0
H1833 H 0.05719 0.55653 0.84384 0.0
H1834 H 0.05999 0.54842 0.8656 0.0
H1835 H 0.0743 0.57223 0.8606 0.0
H1836 H 0.98526 0.54116 0.8817 0.0
H1837 H 0.99188 0.52456 0.87964 0.0
H1838 H 0.98831 0.53396 0.8592 0.0
H1839 H 0.98961 0.50163 0.75678 0.0
H1840 H 0.99735 0.46659 0.80318 0.0
H1841 H 0.00653 0.47131 0.83536 0.0
H1842 H 0.02548 0.51995 0.88015 0.0
H1843 H 0.01878 0.5553 0.83336 0.0
H1844 H 0.00918 0.55041 0.80139 0.0
H1845 H 0.01767 0.42024 0.88204 0.0
H1846 H 0.04149 0.42948 0.88884 0.0
H1847 H 0.03534 0.44199 0.87388 0.0
C1848 C 0.53377 0.58323 0.71041 0.0
C1849 C 0.54631 0.59189 0.72768 0.0
C1850 C 0.52892 0.56892 0.75119 0.0
C1851 C 0.51502 0.57278 0.75351 0.0
C1852 C 0.50003 0.56198 0.76479 0.0
C1853 C 0.49888 0.54702 0.77381 0.0
C1854 C 0.51295 0.54324 0.77166 0.0
C1855 C 0.52786 0.55436 0.76049 0.0
C1856 C 0.48529 0.56643 0.76693 0.0
C1857 C 0.51208 0.52728 0.78091 0.0
C1858 C 0.39421 0.45863 0.70081 0.0
C1859 C 0.40163 0.45345 0.71751 0.0
C1860 C 0.40898 0.46917 0.7474 0.0
C1861 C 0.42334 0.46689 0.75325 0.0
C1862 C 0.43673 0.479 0.76623 0.0
C1863 C 0.43581 0.4938 0.77334 0.0
C1864 C 0.42084 0.49562 0.76809 0.0
C1865 C 0.4074 0.48302 0.75539 0.0
C1866 C 0.4522 0.47633 0.77185 0.0
C1867 C 0.41948 0.51129 0.77524 0.0
C1868 C 0.40256 0.47596 0.89206 0.0
C1869 C 0.41653 0.47228 0.8894 0.0
C1870 C 0.43261 0.48462 0.88023 0.0
C1871 C 0.4348 0.501 0.87381 0.0
C1872 C 0.42112 0.50509 0.87724 0.0
C1873 C 0.40521 0.49253 0.88644 0.0
C1874 C 0.44718 0.48009 0.87718 0.0
C1875 C 0.42317 0.52257 0.87085 0.0
C1876 C 0.55916 0.62353 0.89394 0.0
C1877 C 0.55196 0.60986 0.90962 0.0
C1878 C 0.53066 0.58032 0.89378 0.0
C1879 C 0.52849 0.56369 0.88865 0.0
C1880 C 0.51266 0.5503 0.87896 0.0
C1881 C 0.49869 0.55372 0.87414 0.0
C1882 C 0.50066 0.57045 0.87944 0.0
C1883 C 0.51662 0.58359 0.88927 0.0
C1884 C 0.51097 0.53256 0.87367 0.0
C1885 C 0.48599 0.57449 0.87446 0.0
C1886 C 0.48256 0.53479 0.78481 0.0
C1887 C 0.46706 0.52093 0.77528 0.0
C1888 C 0.45144 0.50828 0.78467 0.0
C1889 C 0.4512 0.50946 0.80421 0.0
C1890 C 0.43587 0.49681 0.81417 0.0
C1891 C 0.43574 0.49819 0.83339 0.0
C1892 C 0.45104 0.51215 0.84342 0.0
C1893 C 0.45109 0.51362 0.86297 0.0
C1894 C 0.46668 0.5274 0.87254 0.0
C1895 C 0.4823 0.53996 0.86308 0.0
C1896 C 0.48238 0.53894 0.84351 0.0
C1897 C 0.49775 0.55156 0.83354 0.0
C1898 C 0.49781 0.55031 0.81431 0.0
C1899 C 0.48252 0.53637 0.80431 0.0
C1900 C 0.46679 0.52361 0.81405 0.0
C1901 C 0.46673 0.52492 0.83367 0.0
C1902 C 0.35843 0.43754 0.89082 0.0
C1903 C 0.37751 0.44533 0.89983 0.0
O1904 O 0.54349 0.57863 0.7401 0.0
O1905 O 0.5466 0.59268 0.90281 0.0
O1906 O 0.38651 0.46413 0.90022 0.0
O1907 O 0.39685 0.45856 0.73369 0.0
H1908 H 0.5434 0.60171 0.7344 0.0
H1909 H 0.5191 0.57606 0.71419 0.0
H1910 H 0.53642 0.57327 0.70362 0.0
H1911 H 0.53621 0.59384 0.70035 0.0
H1912 H 0.51566 0.58407 0.74654 0.0
H1913 H 0.53867 0.55153 0.75866 0.0
H1914 H 0.47216 0.55527 0.76064 0.0
H1915 H 0.48887 0.57932 0.76021 0.0
H1916 H 0.48299 0.5675 0.78186 0.0
H1917 H 0.52378 0.52578 0.77725 0.0
H1918 H 0.49904 0.51457 0.77681 0.0
H1919 H 0.51218 0.52896 0.79618 0.0
H1920 H 0.41687 0.46125 0.71617 0.0
H1921 H 0.39737 0.4541 0.6877 0.0
H1922 H 0.40082 0.47362 0.70062 0.0
H1923 H 0.37911 0.45249 0.70149 0.0
H1924 H 0.42423 0.45579 0.74747 0.0
H1925 H 0.39611 0.4845 0.75092 0.0
H1926 H 0.45468 0.47812 0.7871 0.0
H1927 H 0.46502 0.48672 0.7652 0.0
H1928 H 0.44932 0.46268 0.7676 0.0
H1929 H 0.40739 0.51119 0.76918 0.0
H1930 H 0.43213 0.52435 0.77196 0.0
H1931 H 0.41837 0.51073 0.79054 0.0
H1932 H 0.3848 0.44054 0.8911 0.0
H1933 H 0.41502 0.45989 0.89455 0.0
H1934 H 0.39452 0.4954 0.8889 0.0
H1935 H 0.449 0.47925 0.86208 0.0
H1936 H 0.44365 0.46703 0.88344 0.0
H1937 H 0.46054 0.49108 0.88324 0.0
H1938 H 0.4115 0.52394 0.87502 0.0
H1939 H 0.42405 0.52319 0.85552 0.0
H1940 H 0.43614 0.53432 0.87674 0.0
H1941 H 0.54009 0.60958 0.91606 0.0
H1942 H 0.56371 0.63733 0.89947 0.0
H1943 H 0.54819 0.61976 0.88324 0.0
H1944 H 0.57093 0.62388 0.88721 0.0
H1945 H 0.53937 0.56127 0.89223 0.0
H1946 H 0.51804 0.59637 0.89317 0.0
H1947 H 0.5106 0.53112 0.85834 0.0
H1948 H 0.49788 0.52102 0.87877 0.0
H1949 H 0.52257 0.5316 0.87937 0.0
H1950 H 0.48964 0.58822 0.8794 0.0
H1951 H 0.4728 0.56422 0.88062 0.0
H1952 H 0.48376 0.57351 0.85918 0.0
H1953 H 0.46723 0.51983 0.76029 0.0
H1954 H 0.42377 0.48573 0.80718 0.0
H1955 H 0.42352 0.48811 0.8403 0.0
H1956 H 0.46668 0.52831 0.88755 0.0
H1957 H 0.50994 0.56255 0.8405 0.0
H1958 H 0.51001 0.56039 0.80737 0.0
H1959 H 0.35028 0.44183 0.89877 0.0
H1960 H 0.35092 0.42246 0.89017 0.0
H1961 H 0.35977 0.44249 0.87646 0.0
C1962 C 0.65552 0.77735 0.64813 0.0
C1963 C 0.64939 0.76206 0.63357 0.0
C1964 C 0.65199 0.77889 0.60544 0.0
C1965 C 0.63446 0.77662 0.60549 0.0
C1966 C 0.6302 0.78692 0.59397 0.0
C1967 C 0.64383 0.80004 0.58246 0.0
C1968 C 0.66149 0.80235 0.58237 0.0
C1969 C 0.66519 0.79146 0.5936 0.0
C1970 C 0.61113 0.78387 0.59424 0.0
C1971 C 0.67653 0.81649 0.57062 0.0
C1972 C 0.61465 0.89994 0.6059 0.0
C1973 C 0.62902 0.89936 0.61838 0.0
C1974 C 0.63967 0.88313 0.59909 0.0
C1975 C 0.65447 0.88524 0.58909 0.0
C1976 C 0.65348 0.8705 0.57965 0.0
C1977 C 0.63714 0.8532 0.58014 0.0
C1978 C 0.62207 0.8509 0.59025 0.0
C1979 C 0.62349 0.86586 0.5997 0.0
C1980 C 0.66987 0.87342 0.5691 0.0
C1981 C 0.60443 0.83262 0.59097 0.0
C1982 C 0.60531 0.85974 0.46448 0.0
C1983 C 0.62376 0.86552 0.46835 0.0
C1984 C 0.62842 0.85393 0.47683 0.0
C1985 C 0.61429 0.83632 0.48186 0.0
C1986 C 0.59575 0.83019 0.47716 0.0
C1987 C 0.59154 0.84194 0.46826 0.0
C1988 C 0.64841 0.86066 0.48083 0.0
C1989 C 0.58035 0.81145 0.48208 0.0
C1990 C 0.61704 0.71627 0.4717 0.0
C1991 C 0.61793 0.7269 0.45453 0.0
C1992 C 0.62813 0.7579 0.46577 0.0
C1993 C 0.64295 0.77585 0.46647 0.0
C1994 C 0.64161 0.78965 0.47517 0.0
C1995 C 0.6249 0.78535 0.48331 0.0
C1996 C 0.60968 0.76729 0.48236 0.0
C1997 C 0.61147 0.75369 0.47376 0.0
C1998 C 0.65814 0.80877 0.476 0.0
C1999 C 0.59163 0.7623 0.4908 0.0
C2000 C 0.6397 0.81166 0.57098 0.0
C2001 C 0.64006 0.82631 0.57977 0.0
C2002 C 0.63585 0.83755 0.57001 0.0
C2003 C 0.63105 0.83414 0.55092 0.0
C2004 C 0.62622 0.84487 0.54081 0.0
C2005 C 0.6219 0.84165 0.52194 0.0
C2006 C 0.62251 0.82774 0.51236 0.0
C2007 C 0.61881 0.82478 0.49302 0.0
C2008 C 0.61954 0.81082 0.48398 0.0
C2009 C 0.62376 0.79956 0.49377 0.0
C2010 C 0.62735 0.80222 0.51312 0.0
C2011 C 0.63141 0.791 0.52341 0.0
C2012 C 0.63511 0.79383 0.54241 0.0
C2013 C 0.63534 0.80827 0.55178 0.0
C2014 C 0.63108 0.81961 0.54171 0.0
C2015 C 0.62693 0.81649 0.52239 0.0
C2016 C 0.59368 0.89327 0.46695 0.0
C2017 C 0.60859 0.88931 0.46212 0.0
O2018 O 0.65677 0.76936 0.61658 0.0
O2019 O 0.63069 0.74524 0.45747 0.0
O2020 O 0.60037 0.87105 0.45735 0.0
O2021 O 0.64166 0.89814 0.60771 0.0
H2022 H 0.63414 0.754 0.63238 0.0
H2023 H 0.6506 0.78642 0.64399 0.0
H2024 H 0.67076 0.78555 0.64957 0.0
H2025 H 0.64968 0.77169 0.6618 0.0
H2026 H 0.62394 0.76676 0.61429 0.0
H2027 H 0.67865 0.79308 0.5936 0.0
H2028 H 0.6118 0.79579 0.60099 0.0
H2029 H 0.60142 0.77156 0.60194 0.0
H2030 H 0.60561 0.78252 0.57988 0.0
H2031 H 0.69005 0.81804 0.57378 0.0
H2032 H 0.67785 0.82984 0.57281 0.0
H2033 H 0.67298 0.81258 0.55575 0.0
H2034 H 0.62202 0.88746 0.62753 0.0
H2035 H 0.60467 0.90116 0.61448 0.0
H2036 H 0.60687 0.88732 0.59727 0.0
H2037 H 0.62137 0.91165 0.59651 0.0
H2038 H 0.66689 0.89859 0.58869 0.0
H2039 H 0.61187 0.86391 0.60739 0.0
H2040 H 0.66616 0.87064 0.5541 0.0
H2041 H 0.67388 0.86377 0.57377 0.0
H2042 H 0.68191 0.88748 0.57093 0.0
H2043 H 0.59359 0.83324 0.59859 0.0
H2044 H 0.60715 0.82286 0.59788 0.0
H2045 H 0.59918 0.82729 0.57668 0.0
H2046 H 0.61731 0.89261 0.47497 0.0
H2047 H 0.6345 0.87912 0.46482 0.0
H2048 H 0.57736 0.83752 0.46491 0.0
H2049 H 0.65141 0.86354 0.49592 0.0
H2050 H 0.65772 0.87329 0.47335 0.0
H2051 H 0.65146 0.85011 0.47685 0.0
H2052 H 0.5666 0.80903 0.4782 0.0
H2053 H 0.58086 0.8095 0.49722 0.0
H2054 H 0.58209 0.80109 0.47484 0.0
H2055 H 0.60408 0.7247 0.45165 0.0
H2056 H 0.60709 0.70152 0.46918 0.0
H2057 H 0.61241 0.72077 0.48375 0.0
H2058 H 0.63077 0.71847 0.47525 0.0
H2059 H 0.65574 0.77899 0.4603 0.0
H2060 H 0.59986 0.73988 0.4736 0.0
H2061 H 0.66205 0.81342 0.49068 0.0
H2062 H 0.65466 0.81807 0.46924 0.0
H2063 H 0.67018 0.80988 0.46907 0.0
H2064 H 0.58061 0.74802 0.48749 0.0
H2065 H 0.58712 0.77145 0.48574 0.0
H2066 H 0.59346 0.76415 0.50609 0.0
H2067 H 0.64368 0.829 0.59444 0.0
H2068 H 0.62573 0.8559 0.54738 0.0
H2069 H 0.61825 0.85034 0.51493 0.0
H2070 H 0.61689 0.80873 0.46913 0.0
H2071 H 0.63175 0.77986 0.51692 0.0
H2072 H 0.63802 0.78469 0.5496 0.0
H2073 H 0.59996 0.90792 0.47051 0.0
H2074 H 0.58609 0.88528 0.47913 0.0
H2075 H 0.58365 0.88949 0.45521 0.0
C2076 C 0.12135 0.72635 0.66719 0.0
C2077 C 0.11786 0.73613 0.65164 0.0
C2078 C 0.13041 0.74248 0.62095 0.0
C2079 C 0.12619 0.75534 0.61538 0.0
C2080 C 0.13699 0.76852 0.60252 0.0
C2081 C 0.15255 0.76903 0.59535 0.0
C2082 C 0.15626 0.75545 0.6002 0.0
C2083 C 0.1449 0.74212 0.61277 0.0
C2084 C 0.13225 0.78242 0.5973 0.0
C2085 C 0.17272 0.75559 0.59283 0.0
C2086 C 0.26341 0.90811 0.63971 0.0
C2087 C 0.25456 0.88855 0.63449 0.0
C2088 C 0.22555 0.86489 0.61962 0.0
C2089 C 0.23165 0.85316 0.61488 0.0
C2090 C 0.22038 0.8373 0.60414 0.0
C2091 C 0.20275 0.83316 0.59802 0.0
C2092 C 0.19656 0.84488 0.60294 0.0
C2093 C 0.20804 0.86055 0.61375 0.0
C2094 C 0.22734 0.82504 0.59915 0.0
C2095 C 0.17787 0.84092 0.59662 0.0
C2096 C 0.22731 0.8711 0.48567 0.0
C2097 C 0.23167 0.85755 0.48536 0.0
C2098 C 0.2192 0.84009 0.49173 0.0
C2099 C 0.20192 0.83601 0.4981 0.0
C2100 C 0.19693 0.84918 0.49695 0.0
C2101 C 0.20973 0.86657 0.49073 0.0
C2102 C 0.22473 0.82618 0.49229 0.0
C2103 C 0.1784 0.84513 0.50309 0.0
C2104 C 0.09371 0.69231 0.46778 0.0
C2105 C 0.09906 0.71205 0.46558 0.0
C2106 C 0.1293 0.73879 0.47341 0.0
C2107 C 0.14752 0.74383 0.47684 0.0
C2108 C 0.15964 0.75955 0.48737 0.0
C2109 C 0.15339 0.77065 0.49434 0.0
C2110 C 0.1352 0.76608 0.4902 0.0
C2111 C 0.12332 0.75018 0.47978 0.0
C2112 C 0.17902 0.76414 0.49132 0.0
C2113 C 0.12827 0.77791 0.49697 0.0
C2114 C 0.16603 0.78498 0.58475 0.0
C2115 C 0.17848 0.80068 0.59499 0.0
C2116 C 0.19084 0.81673 0.58624 0.0
C2117 C 0.19102 0.81722 0.56669 0.0
C2118 C 0.20326 0.83319 0.55749 0.0
C2119 C 0.20304 0.83372 0.53826 0.0
C2120 C 0.19057 0.81828 0.52746 0.0
C2121 C 0.18997 0.81886 0.50791 0.0
C2122 C 0.17773 0.8032 0.49753 0.0
C2123 C 0.16582 0.78686 0.50622 0.0
C2124 C 0.16589 0.78613 0.52582 0.0
C2125 C 0.15377 0.77008 0.53508 0.0
C2126 C 0.15373 0.76965 0.55438 0.0
C2127 C 0.16602 0.78515 0.56515 0.0
C2128 C 0.17854 0.80139 0.55611 0.0
C2129 C 0.17836 0.80191 0.53645 0.0
C2130 C 0.26467 0.91217 0.49896 0.0
C2131 C 0.25847 0.89791 0.48325 0.0
O2132 O 0.12119 0.73081 0.63471 0.0
O2133 O 0.11796 0.72291 0.46396 0.0
O2134 O 0.23948 0.88858 0.48114 0.0
O2135 O 0.2361 0.88056 0.62961 0.0
H2136 H 0.12795 0.75091 0.65428 0.0
H2137 H 0.13601 0.73038 0.66739 0.0
H2138 H 0.11273 0.71138 0.6651 0.0
H2139 H 0.11834 0.73013 0.68084 0.0
H2140 H 0.11461 0.75526 0.62127 0.0
H2141 H 0.1479 0.73197 0.61703 0.0
H2142 H 0.14187 0.79543 0.60473 0.0
H2143 H 0.118 0.77813 0.60107 0.0
H2144 H 0.13375 0.7849 0.58219 0.0
H2145 H 0.17351 0.74388 0.59765 0.0
H2146 H 0.1855 0.76835 0.59738 0.0
H2147 H 0.17214 0.75525 0.57745 0.0
H2148 H 0.25733 0.88027 0.64415 0.0
H2149 H 0.26757 0.90902 0.65477 0.0
H2150 H 0.25199 0.91061 0.64254 0.0
H2151 H 0.28273 0.92157 0.61878 0.0
H2152 H 0.24514 0.85632 0.6195 0.0
H2153 H 0.20348 0.86969 0.61751 0.0
H2154 H 0.22777 0.824 0.58384 0.0
H2155 H 0.21773 0.81116 0.60418 0.0
H2156 H 0.24129 0.83003 0.60515 0.0
H2157 H 0.17516 0.85148 0.60151 0.0
H2158 H 0.16706 0.8276 0.6019 0.0
H2159 H 0.17674 0.84001 0.58125 0.0
H2160 H 0.26337 0.8889 0.48771 0.0
H2161 H 0.24475 0.86047 0.48028 0.0
H2162 H 0.20629 0.87695 0.49043 0.0
H2163 H 0.22484 0.82218 0.50683 0.0
H2164 H 0.23853 0.83133 0.48651 0.0
H2165 H 0.21449 0.81379 0.48428 0.0
H2166 H 0.17566 0.85582 0.49894 0.0
H2167 H 0.17783 0.84417 0.51842 0.0
H2168 H 0.16733 0.83185 0.49713 0.0
H2169 H 0.09465 0.71562 0.47854 0.0
H2170 H 0.07853 0.68326 0.46845 0.0
H2171 H 0.09994 0.69105 0.48086 0.0
H2172 H 0.09869 0.6877 0.45612 0.0
H2173 H 0.15209 0.7351 0.47163 0.0
H2174 H 0.10944 0.74677 0.4766 0.0
H2175 H 0.18169 0.76509 0.50653 0.0
H2176 H 0.18893 0.7776 0.48558 0.0
H2177 H 0.18164 0.7539 0.48524 0.0
H2178 H 0.11414 0.77309 0.49164 0.0
H2179 H 0.13762 0.7921 0.4926 0.0
H2180 H 0.12825 0.77806 0.51235 0.0
H2181 H 0.17825 0.80052 0.61002 0.0
H2182 H 0.2131 0.84553 0.56504 0.0
H2183 H 0.21279 0.84644 0.53201 0.0
H2184 H 0.17743 0.80374 0.48253 0.0
H2185 H 0.14406 0.75771 0.5275 0.0
H2186 H 0.14397 0.75701 0.56077 0.0
H2187 H 0.25862 0.92069 0.49715 0.0
H2188 H 0.27991 0.921 0.49965 0.0
H2189 H 0.26003 0.90525 0.5124 0.0
C2190 C 0.13706 0.36916 0.65053 0.0
C2191 C 0.12401 0.3651 0.63382 0.0
C2192 C 0.14166 0.36193 0.60878 0.0
C2193 C 0.15577 0.38031 0.60805 0.0
C2194 C 0.17104 0.38573 0.59687 0.0
C2195 C 0.17207 0.37257 0.58608 0.0
C2196 C 0.1576 0.35417 0.58636 0.0
C2197 C 0.14259 0.34913 0.59771 0.0
C2198 C 0.18621 0.40548 0.59674 0.0
C2199 C 0.15814 0.33979 0.57489 0.0
C2200 C 0.30027 0.39227 0.61219 0.0
C2201 C 0.28329 0.37599 0.62054 0.0
C2202 C 0.25757 0.3701 0.59959 0.0
C2203 C 0.24444 0.35763 0.58677 0.0
C2204 C 0.23137 0.36064 0.57845 0.0
C2205 C 0.23172 0.3768 0.58279 0.0
C2206 C 0.24491 0.38949 0.59581 0.0
C2207 C 0.25761 0.38595 0.60421 0.0
C2208 C 0.2172 0.34653 0.56499 0.0
C2209 C 0.24567 0.40686 0.60073 0.0
C2210 C 0.27198 0.41285 0.46836 0.0
C2211 C 0.25737 0.39477 0.46977 0.0
C2212 C 0.24147 0.3906 0.47927 0.0
C2213 C 0.24017 0.4048 0.48747 0.0
C2214 C 0.25455 0.42305 0.48541 0.0
C2215 C 0.27023 0.42682 0.47573 0.0
C2216 C 0.22613 0.37103 0.48076 0.0
C2217 C 0.2535 0.43852 0.49374 0.0
C2218 C 0.11911 0.40492 0.47026 0.0
C2219 C 0.12605 0.39832 0.45445 0.0
C2220 C 0.14619 0.38938 0.46966 0.0
C2221 C 0.14759 0.3744 0.47352 0.0
C2222 C 0.16309 0.37643 0.48281 0.0
C2223 C 0.17745 0.39397 0.4887 0.0
C2224 C 0.17627 0.40928 0.48467 0.0
C2225 C 0.16066 0.40686 0.47508 0.0
C2226 C 0.164 0.3598 0.48648 0.0
C2227 C 0.19139 0.42814 0.49076 0.0
C2228 C 0.18859 0.37784 0.57506 0.0
C2229 C 0.20264 0.37641 0.58339 0.0
C2230 C 0.21826 0.38034 0.57367 0.0
C2231 C 0.22022 0.38631 0.55523 0.0
C2232 C 0.23607 0.39103 0.54528 0.0
C2233 C 0.2375 0.39604 0.52685 0.0
C2234 C 0.22307 0.39635 0.5176 0.0
C2235 C 0.224 0.40056 0.49861 0.0
C2236 C 0.2092 0.40028 0.48975 0.0
C2237 C 0.19344 0.39605 0.49939 0.0
C2238 C 0.19247 0.39233 0.51851 0.0
C2239 C 0.177 0.38847 0.52874 0.0
C2240 C 0.17581 0.384 0.54734 0.0
C2241 C 0.18999 0.38312 0.55639 0.0
C2242 C 0.20587 0.38735 0.54645 0.0
C2243 C 0.2072 0.39216 0.52755 0.0
C2244 C 0.31579 0.41822 0.46468 0.0
C2245 C 0.29559 0.40681 0.45838 0.0
O2246 O 0.127 0.35578 0.61997 0.0
O2247 O 0.13049 0.38608 0.46096 0.0
O2248 O 0.28787 0.41739 0.45992 0.0
O2249 O 0.26988 0.36627 0.60691 0.0
H2250 H 0.1262 0.37803 0.62833 0.0
H2251 H 0.1516 0.37817 0.64666 0.0
H2252 H 0.13532 0.35639 0.65591 0.0
H2253 H 0.13422 0.37615 0.66179 0.0
H2254 H 0.15507 0.39045 0.61625 0.0
H2255 H 0.13156 0.33501 0.59824 0.0
H2256 H 0.19934 0.40698 0.60158 0.0
H2257 H 0.18329 0.41412 0.60573 0.0
H2258 H 0.18813 0.41049 0.58237 0.0
H2259 H 0.14536 0.32623 0.57594 0.0
H2260 H 0.16999 0.33878 0.57957 0.0
H2261 H 0.16014 0.34364 0.56011 0.0
H2262 H 0.2778 0.38103 0.63134 0.0
H2263 H 0.31116 0.39974 0.62309 0.0
H2264 H 0.29678 0.40184 0.60619 0.0
H2265 H 0.30582 0.38773 0.60099 0.0
H2266 H 0.24444 0.34542 0.58333 0.0
H2267 H 0.26756 0.39574 0.61419 0.0
H2268 H 0.22003 0.35194 0.55078 0.0
H2269 H 0.20323 0.34334 0.56848 0.0
H2270 H 0.2173 0.33375 0.56495 0.0
H2271 H 0.25765 0.41602 0.60998 0.0
H2272 H 0.2329 0.4036 0.6078 0.0
H2273 H 0.24642 0.41418 0.58792 0.0
H2274 H 0.28889 0.39511 0.46784 0.0
H2275 H 0.25829 0.3839 0.46339 0.0
H2276 H 0.28145 0.44074 0.47429 0.0
H2277 H 0.22446 0.36712 0.49552 0.0
H2278 H 0.22876 0.36164 0.47272 0.0
H2279 H 0.21297 0.36931 0.47569 0.0
H2280 H 0.2659 0.45196 0.49099 0.0
H2281 H 0.25193 0.43693 0.50897 0.0
H2282 H 0.2412 0.43819 0.48799 0.0
H2283 H 0.13834 0.41012 0.44836 0.0
H2284 H 0.11535 0.41458 0.46498 0.0
H2285 H 0.12995 0.41204 0.48124 0.0
H2286 H 0.10686 0.39329 0.47655 0.0
H2287 H 0.13637 0.36099 0.46922 0.0
H2288 H 0.1598 0.4186 0.47212 0.0
H2289 H 0.16309 0.35732 0.50159 0.0
H2290 H 0.17735 0.36197 0.48197 0.0
H2291 H 0.15268 0.34746 0.47923 0.0
H2292 H 0.18811 0.43859 0.48723 0.0
H2293 H 0.20437 0.43155 0.48401 0.0
H2294 H 0.19384 0.42863 0.50598 0.0
H2295 H 0.20119 0.37175 0.59751 0.0
H2296 H 0.24752 0.39081 0.55161 0.0
H2297 H 0.24997 0.3994 0.51986 0.0
H2298 H 0.20979 0.40299 0.47505 0.0
H2299 H 0.16559 0.38877 0.52244 0.0
H2300 H 0.16353 0.38102 0.55447 0.0
H2301 H 0.32232 0.41003 0.46384 0.0
H2302 H 0.31684 0.42289 0.47931 0.0
H2303 H 0.32343 0.43034 0.45593 0.0
H2304 H 0.99738 0.37997 0.06291 0.0
H2305 H 0.9383 0.34528 0.06423 0.0
H2306 H 0.93807 0.35993 0.0932 0.0
H2307 H 0.95433 0.38368 0.11716 0.0
H2308 H 0.0132 0.41936 0.11557 0.0
H2309 H 0.01389 0.40324 0.08775 0.0
C2310 C 0.9845 0.37546 0.0697 0.0
C2311 C 0.96787 0.36158 0.06142 0.0
C2312 C 0.98441 0.38427 0.08617 0.0
C2313 C 0.95127 0.356 0.07027 0.0
C2314 C 0.95112 0.36438 0.08682 0.0
C2315 C 0.96731 0.38795 0.11069 0.0
C2316 C 0.98364 0.40292 0.11816 0.0
C2317 C 0.96755 0.37875 0.09469 0.0
C2318 C 0.00041 0.40807 0.10986 0.0
C2319 C 0.0008 0.39882 0.09401 0.0
H2320 H 0.63695 0.57853 0.04893 0.0
H2321 H 0.62482 0.619 0.06583 0.0
H2322 H 0.61052 0.60204 0.09381 0.0
H2323 H 0.60135 0.57549 0.11339 0.0
H2324 H 0.61491 0.53601 0.09665 0.0
H2325 H 0.62849 0.55267 0.06853 0.0
C2326 C 0.63117 0.58367 0.0587 0.0
C2327 C 0.63192 0.59999 0.05525 0.0
C2328 C 0.62315 0.57398 0.07477 0.0
C2329 C 0.62448 0.6065 0.06816 0.0
C2330 C 0.61625 0.59678 0.08414 0.0
C2331 C 0.6074 0.57064 0.10364 0.0
C2332 C 0.6073 0.55463 0.10725 0.0
C2333 C 0.61551 0.58048 0.08759 0.0
C2334 C 0.61492 0.54834 0.09431 0.0
C2335 C 0.6227 0.55787 0.07822 0.0
H2336 H 0.39101 0.03015 0.05953 0.0
H2337 H 0.36711 0.97397 0.07378 0.0
H2338 H 0.38865 0.98296 0.10006 0.0
H2339 H 0.41471 0.00658 0.11858 0.0
H2340 H 0.43983 0.0627 0.10385 0.0
H2341 H 0.41726 0.05397 0.07832 0.0
C2342 C 0.39045 0.0199 0.06847 0.0
C2343 C 0.37748 0.00142 0.06467 0.0
C2344 C 0.40315 0.02514 0.08341 0.0
C2345 C 0.37702 0.98829 0.07631 0.0
C2346 C 0.38932 0.9934 0.09137 0.0
C2347 C 0.41537 0.01689 0.10967 0.0
C2348 C 0.42923 0.03522 0.11278 0.0
C2349 C 0.40256 0.01175 0.09493 0.0
C2350 C 0.42953 0.04847 0.10146 0.0
C2351 C 0.41661 0.04349 0.08692 0.0
H2352 H 0.35768 0.96482 0.96128 0.0
H2353 H 0.37763 0.02179 0.96933 0.0
H2354 H 0.3938 0.02852 0.94022 0.0
H2355 H 0.40287 0.01837 0.91285 0.0
H2356 H 0.38195 0.96135 0.90396 0.0
H2357 H 0.36578 0.95452 0.93319 0.0
C2358 C 0.36553 0.9787 0.95665 0.0
C2359 C 0.36648 0.99277 0.96751 0.0
C2360 C 0.37467 0.98248 0.93979 0.0
C2361 C 0.37662 0.01068 0.96123 0.0
C2362 C 0.38593 0.01457 0.94461 0.0
C2363 C 0.39454 0.00442 0.91717 0.0
C2364 C 0.39332 0.99034 0.90609 0.0
C2365 C 0.3851 0.00059 0.93381 0.0
C2366 C 0.38289 0.97239 0.91214 0.0
C2367 C 0.37368 0.96848 0.92884 0.0
H2368 H 0.01715 0.39395 0.97322 0.0
H2369 H 0.96032 0.37166 0.95666 0.0
H2370 H 0.96972 0.39205 0.93074 0.0
H2371 H 0.9938 0.41594 0.91253 0.0
H2372 H 0.05071 0.43963 0.92916 0.0
H2373 H 0.04158 0.4188 0.95511 0.0
C2374 C 0.00685 0.3936 0.96394 0.0
C2375 C 0.98806 0.38129 0.96694 0.0
C2376 C 0.01234 0.40558 0.94905 0.0
C2377 C 0.97488 0.38104 0.9548 0.0
C2378 C 0.98022 0.39267 0.9399 0.0
C2379 C 0.00422 0.41675 0.92198 0.0
C2380 C 0.0229 0.42963 0.91921 0.0
C2381 C 0.99888 0.40499 0.93691 0.0
C2382 C 0.03623 0.43007 0.93125 0.0
C2383 C 0.03101 0.41815 0.94603 0.0
H2384 H 0.60773 0.63576 0.97891 0.0
H2385 H 0.62947 0.60981 0.94586 0.0
H2386 H 0.60716 0.60369 0.92104 0.0
H2387 H 0.58056 0.60431 0.90925 0.0
H2388 H 0.55745 0.62874 0.94245 0.0
H2389 H 0.58129 0.63706 0.96657 0.0
C2390 C 0.60767 0.62894 0.96619 0.0
C2391 C 0.62019 0.62319 0.96427 0.0
C2392 C 0.59447 0.62507 0.95206 0.0
C2393 C 0.61989 0.61425 0.94776 0.0
C2394 C 0.60714 0.61075 0.93354 0.0
C2395 C 0.58069 0.61137 0.92182 0.0
C2396 C 0.56699 0.61549 0.92431 0.0
C2397 C 0.59419 0.61582 0.93566 0.0
C2398 C 0.56764 0.6251 0.94042 0.0
C2399 C 0.58127 0.62988 0.95417 0.0
H2400 H 0.01268 0.63131 0.96348 0.0
H2401 H 0.06717 0.64452 0.98011 0.0
H2402 H 0.07063 0.63354 0.95011 0.0
H2403 H 0.05864 0.62117 0.91871 0.0
H2404 H 0.00422 0.6079 0.90209 0.0
H2405 H 0.00027 0.61792 0.93253 0.0
C2406 C 0.02531 0.63176 0.96058 0.0
C2407 C 0.03967 0.63882 0.97404 0.0
C2408 C 0.02721 0.62538 0.9433 0.0
C2409 C 0.05589 0.63918 0.97004 0.0
C2410 C 0.0579 0.63291 0.95286 0.0
C2411 C 0.04582 0.62022 0.92189 0.0
C2412 C 0.03162 0.61353 0.9083 0.0
C2413 C 0.0437 0.62609 0.93936 0.0
C2414 C 0.01523 0.61275 0.91243 0.0
C2415 C 0.01301 0.61855 0.92979 0.0
H2416 H 0.36125 0.42126 0.98334 0.0
H2417 H 0.36651 0.37753 0.96183 0.0
H2418 H 0.37441 0.39172 0.93162 0.0
H2419 H 0.37819 0.41572 0.91081 0.0
H2420 H 0.37169 0.45867 0.93211 0.0
H2421 H 0.366 0.44567 0.96291 0.0
C2422 C 0.36427 0.41488 0.97211 0.0
C2423 C 0.36321 0.3983 0.97488 0.0
C2424 C 0.36859 0.42299 0.95471 0.0
C2425 C 0.36715 0.39025 0.96011 0.0
C2426 C 0.37166 0.39835 0.9428 0.0
C2427 C 0.37581 0.42235 0.92229 0.0
C2428 C 0.37574 0.43832 0.91927 0.0
C2429 C 0.3722 0.4146 0.93989 0.0
C2430 C 0.3722 0.44658 0.93416 0.0
C2431 C 0.36883 0.43908 0.95174 0.0
H2432 H 0.62965 0.02567 0.94591 0.0
H2433 H 0.61063 0.97378 0.97066 0.0
H2434 H 0.58703 0.95868 0.94611 0.0
H2435 H 0.57188 0.96022 0.91751 0.0
H2436 H 0.59224 0.0119 0.89182 0.0
H2437 H 0.61496 0.02713 0.91707 0.0
C2438 C 0.62032 0.01106 0.94596 0.0
C2439 C 0.6219 0.00088 0.96011 0.0
C2440 C 0.60697 0.00243 0.93168 0.0
C2441 C 0.60978 0.98194 0.95988 0.0
C2442 C 0.59624 0.97329 0.94589 0.0
C2443 C 0.5814 0.97479 0.91737 0.0
C2444 C 0.58056 0.98488 0.90265 0.0
C2445 C 0.59474 0.9834 0.93168 0.0
C2446 C 0.59271 0.00381 0.90289 0.0
C2447 C 0.60572 0.01252 0.9173 0.0
H2448 H 0.64474 0.05418 0.05206 0.0
H2449 H 0.63627 0.00115 0.0612 0.0
H2450 H 0.62318 0.00014 0.09125 0.0
H2451 H 0.61397 0.01424 0.11495 0.0
H2452 H 0.62317 0.06753 0.10619 0.0
H2453 H 0.63608 0.06849 0.07598 0.0
C2454 C 0.64005 0.0424 0.06061 0.0
C2455 C 0.64148 0.02776 0.05432 0.0
C2456 C 0.63254 0.0419 0.07791 0.0
C2457 C 0.63538 0.01264 0.06567 0.0
C2458 C 0.62785 0.01202 0.08286 0.0
C2459 C 0.61865 0.02596 0.10631 0.0
C2460 C 0.61713 0.04054 0.11256 0.0
C2461 C 0.62629 0.02653 0.08909 0.0
C2462 C 0.62374 0.05592 0.10149 0.0
C2463 C 0.63122 0.05652 0.08426 0.0
H2464 H 0.02906 0.63328 0.083 0.0
H2465 H 0.97793 0.6112 0.05179 0.0
H2466 H 0.96144 0.59056 0.07692 0.0
H2467 H 0.96157 0.57906 0.10797 0.0
H2468 H 0.01249 0.60274 0.13979 0.0
H2469 H 0.02911 0.62224 0.11404 0.0
C2470 C 0.01431 0.6239 0.08164 0.0
C2471 C 0.00475 0.62375 0.06552 0.0
C2472 C 0.0049 0.61232 0.09623 0.0
C2473 C 0.98561 0.61164 0.06408 0.0
C2474 C 0.97618 0.5998 0.07842 0.0
C2475 C 0.97628 0.58857 0.10927 0.0
C2476 C 0.98576 0.58958 0.12583 0.0
C2477 C 0.98568 0.60009 0.0946 0.0
C2478 C 0.00487 0.60177 0.12723 0.0
C2479 C 0.01438 0.61294 0.11254 0.0
H2480 H 0.39268 0.36416 0.05022 0.0
H2481 H 0.36928 0.38638 0.08632 0.0
H2482 H 0.38764 0.38615 0.11247 0.0
H2483 H 0.40938 0.37848 0.12534 0.0
H2484 H 0.43458 0.35839 0.089 0.0
H2485 H 0.41645 0.35887 0.06267 0.0
C2486 C 0.39167 0.369 0.06381 0.0
C2487 C 0.37955 0.37514 0.06638 0.0
C2488 C 0.4025 0.36911 0.07873 0.0
C2489 C 0.37854 0.38162 0.08399 0.0
C2490 C 0.38898 0.38143 0.09896 0.0
C2491 C 0.41098 0.37432 0.11163 0.0
C2492 C 0.42304 0.3681 0.10918 0.0
C2493 C 0.40086 0.37504 0.09653 0.0
C2494 C 0.42515 0.36295 0.09129 0.0
C2495 C 0.41483 0.36326 0.07624 0.0
H2496 H 0.65289 0.70684 0.38859 0.0
H2497 H 0.59773 0.68346 0.36593 0.0
H2498 H 0.58856 0.69201 0.3941 0.0
H2499 H 0.59637 0.70717 0.42463 0.0
H2500 H 0.65159 0.73154 0.44717 0.0
H2501 H 0.66055 0.72149 0.41967 0.0
C2502 C 0.63884 0.7035 0.38989 0.0
C2503 C 0.62606 0.69459 0.37513 0.0
C2504 C 0.63368 0.70872 0.40607 0.0
C2505 C 0.6079 0.69042 0.37701 0.0
C2506 C 0.60262 0.6953 0.39312 0.0
C2507 C 0.61036 0.71026 0.42352 0.0
C2508 C 0.62335 0.72022 0.4378 0.0
C2509 C 0.61543 0.70464 0.40763 0.0
C2510 C 0.64139 0.72398 0.43627 0.0
C2511 C 0.6465 0.71825 0.42057 0.0
H2512 H 0.29367 0.92017 0.40402 0.0
H2513 H 0.2837 0.96357 0.41309 0.0
H2514 H 0.27081 0.95137 0.44322 0.0
H2515 H 0.26172 0.92799 0.46655 0.0
H2516 H 0.27311 0.88547 0.45823 0.0
H2517 H 0.2858 0.89754 0.428 0.0
C2518 C 0.2887 0.92698 0.4126 0.0
C2519 C 0.28957 0.94271 0.40629 0.0
C2520 C 0.28154 0.92003 0.42999 0.0
C2521 C 0.28323 0.95146 0.41764 0.0
C2522 C 0.27581 0.94447 0.43484 0.0
C2523 C 0.26732 0.92156 0.45835 0.0
C2524 C 0.26698 0.90614 0.46493 0.0
C2525 C 0.27486 0.92874 0.44114 0.0
C2526 C 0.27361 0.89759 0.45367 0.0
C2527 C 0.28082 0.90445 0.43638 0.0
H2528 H 0.07045 0.36892 0.38493 0.0
H2529 H 0.04831 0.31917 0.41502 0.0
H2530 H 0.0709 0.33523 0.44007 0.0
H2531 H 0.09732 0.36305 0.45313 0.0
H2532 H 0.12096 0.41266 0.42275 0.0
H2533 H 0.09721 0.3971 0.39823 0.0
C2534 C 0.07054 0.36164 0.39702 0.0
C2535 C 0.05775 0.34287 0.39808 0.0
C2536 C 0.08383 0.37091 0.41128 0.0
C2537 C 0.05809 0.33359 0.41378 0.0
C2538 C 0.07097 0.34276 0.42814 0.0
C2539 C 0.09738 0.37044 0.44106 0.0
C2540 C 0.11115 0.38887 0.43949 0.0
C2541 C 0.084 0.36136 0.42696 0.0
C2542 C 0.1107 0.39838 0.42406 0.0
C2543 C 0.09713 0.38949 0.41008 0.0
H2544 H 0.03071 0.28062 0.31021 0.0
H2545 H 0.04402 0.33397 0.29411 0.0
H2546 H 0.05343 0.32926 0.26378 0.0
H2547 H 0.0579 0.30986 0.24186 0.0
H2548 H 0.04355 0.25626 0.25808 0.0
H2549 H 0.03458 0.26125 0.28841 0.0
C2550 C 0.03572 0.29128 0.30012 0.0
C2551 C 0.03673 0.30766 0.30448 0.0
C2552 C 0.04093 0.28843 0.28273 0.0
C2553 C 0.0431 0.32123 0.29113 0.0
C2554 C 0.04849 0.31855 0.27379 0.0
C2555 C 0.05279 0.29931 0.25207 0.0
C2556 C 0.05148 0.28276 0.24777 0.0
C2557 C 0.04746 0.30219 0.26944 0.0
C2558 C 0.04478 0.26914 0.26108 0.0
C2559 C 0.03963 0.27197 0.27841 0.0
H2560 H 0.6986 0.73801 0.30818 0.0
H2561 H 0.65268 0.71476 0.26901 0.0
H2562 H 0.67108 0.73813 0.24696 0.0
H2563 H 0.6998 0.76498 0.23876 0.0
H2564 H 0.74544 0.79033 0.2782 0.0
H2565 H 0.72765 0.76606 0.30008 0.0
C2566 C 0.69269 0.73808 0.2948 0.0
C2567 C 0.67431 0.72467 0.29024 0.0
C2568 C 0.70326 0.75186 0.28224 0.0
C2569 C 0.66675 0.72499 0.27291 0.0
C2570 C 0.67728 0.73831 0.26025 0.0
C2571 C 0.7059 0.76545 0.2522 0.0
C2572 C 0.72387 0.77973 0.25697 0.0
C2573 C 0.69548 0.75184 0.2648 0.0
C2574 C 0.73155 0.77963 0.27432 0.0
C2575 C 0.72139 0.76577 0.2868 0.0
H2576 H 0.27728 0.94126 0.29707 0.0
H2577 H 0.26389 0.9757 0.32759 0.0
H2578 H 0.24029 0.96989 0.304 0.0
H2579 H 0.22256 0.95374 0.27526 0.0
H2580 H 0.23758 0.92066 0.24447 0.0
H2581 H 0.26149 0.92726 0.2676 0.0
C2582 C 0.26922 0.94753 0.29857 0.0
C2583 C 0.27213 0.9587 0.31415 0.0
C2584 C 0.25589 0.94426 0.28497 0.0
C2585 C 0.26185 0.96702 0.31572 0.0
C2586 C 0.24833 0.96364 0.30228 0.0
C2587 C 0.23107 0.94797 0.27371 0.0
C2588 C 0.22782 0.93618 0.25855 0.0
C2589 C 0.24506 0.95207 0.28696 0.0
C2590 C 0.23937 0.92929 0.25632 0.0
C2591 C 0.25311 0.93312 0.26949 0.0
H2592 H 0.68257 0.95959 0.30528 0.0
H2593 H 0.73705 0.97545 0.32514 0.0
H2594 H 0.74325 0.96639 0.2954 0.0
H2595 H 0.73366 0.95491 0.26339 0.0
H2596 H 0.67911 0.9385 0.24358 0.0
H2597 H 0.67254 0.94693 0.27362 0.0
C2598 C 0.69579 0.96103 0.30313 0.0
C2599 C 0.70933 0.96827 0.31744 0.0
C2600 C 0.69927 0.95569 0.28599 0.0
C2601 C 0.72634 0.96992 0.31441 0.0
C2602 C 0.72994 0.96476 0.29738 0.0
C2603 C 0.72023 0.9529 0.26575 0.0
C2604 C 0.70674 0.94573 0.2514 0.0
C2605 C 0.71655 0.95773 0.28304 0.0
C2606 C 0.68958 0.94368 0.25453 0.0
C2607 C 0.68585 0.94857 0.27166 0.0
H2608 H 0.03226 0.72637 0.29962 0.0
H2609 H 0.02962 0.77086 0.32352 0.0
H2610 H 0.03433 0.78451 0.29323 0.0
H2611 H 0.03661 0.78261 0.2596 0.0
H2612 H 0.03962 0.73852 0.23545 0.0
H2613 H 0.03732 0.72592 0.26618 0.0
C2614 C 0.03291 0.73915 0.29825 0.0
C2615 C 0.0304 0.74744 0.31385 0.0
C2616 C 0.0356 0.74697 0.28072 0.0
C2617 C 0.03143 0.76409 0.31179 0.0
C2618 C 0.03407 0.77192 0.29444 0.0
C2619 C 0.03719 0.77047 0.26109 0.0
C2620 C 0.03855 0.76164 0.24528 0.0
C2621 C 0.03582 0.76331 0.27876 0.0
C2622 C 0.03884 0.74568 0.24745 0.0
C2623 C 0.03743 0.73844 0.26499 0.0
H2624 H 0.2789 0.34507 0.27154 0.0
H2625 H 0.26173 0.29763 0.30428 0.0
H2626 H 0.24046 0.27831 0.27923 0.0
H2627 H 0.22754 0.27488 0.24754 0.0
H2628 H 0.24681 0.3223 0.21421 0.0
H2629 H 0.26613 0.34169 0.24013 0.0
C2630 C 0.27041 0.33052 0.27329 0.0
C2631 C 0.27189 0.32282 0.28979 0.0
C2632 C 0.25856 0.31949 0.2587 0.0
C2633 C 0.2609 0.30391 0.29171 0.0
C2634 C 0.24873 0.29286 0.27739 0.0
C2635 C 0.23604 0.28945 0.24594 0.0
C2636 C 0.23593 0.2971 0.22885 0.0
C2637 C 0.24759 0.30049 0.26075 0.0
C2638 C 0.24673 0.31604 0.22714 0.0
C2639 C 0.25782 0.32714 0.24195 0.0
H2640 H 0.30007 0.39346 0.37266 0.0
H2641 H 0.29416 0.34412 0.39331 0.0
H2642 H 0.29045 0.35244 0.42462 0.0
H2643 H 0.29095 0.3747 0.44651 0.0
H2644 H 0.29815 0.42453 0.42602 0.0
H2645 H 0.29918 0.41501 0.39429 0.0
C2646 C 0.29778 0.38441 0.38396 0.0
C2647 C 0.29748 0.36822 0.38059 0.0
C2648 C 0.29591 0.38939 0.40199 0.0
C2649 C 0.29453 0.3567 0.39546 0.0
C2650 C 0.29242 0.36145 0.4134 0.0
C2651 C 0.29242 0.38329 0.43503 0.0
C2652 C 0.29411 0.40012 0.43857 0.0
C2653 C 0.29337 0.37789 0.41687 0.0
C2654 C 0.29645 0.41136 0.42363 0.0
C2655 C 0.29716 0.40597 0.4055 0.0
H2656 H 0.64489 0.93597 0.39075 0.0
H2657 H 0.69262 0.96098 0.42759 0.0
H2658 H 0.67463 0.94013 0.45195 0.0
H2659 H 0.64513 0.91541 0.46312 0.0
H2660 H 0.59775 0.88927 0.42595 0.0
H2661 H 0.61581 0.90988 0.40134 0.0
C2662 C 0.65134 0.93685 0.40412 0.0
C2663 C 0.67002 0.95011 0.40741 0.0
C2664 C 0.64098 0.92462 0.41798 0.0
C2665 C 0.67826 0.9509 0.4247 0.0
C2666 C 0.66798 0.939 0.43865 0.0
C2667 C 0.63881 0.91417 0.44959 0.0
C2668 C 0.62009 0.90102 0.44642 0.0
C2669 C 0.64931 0.92589 0.43548 0.0
C2670 C 0.6121 0.89943 0.42876 0.0
C2671 C 0.62241 0.9112 0.41471 0.0
H2672 H 0.05988 0.71112 0.38954 0.0
H2673 H 0.03779 0.73491 0.4253 0.0
H2674 H 0.05559 0.73403 0.45158 0.0
H2675 H 0.07643 0.72537 0.46473 0.0
H2676 H 0.10045 0.70371 0.42882 0.0
H2677 H 0.08294 0.70488 0.4023 0.0
C2678 C 0.05904 0.71615 0.40309 0.0
C2679 C 0.04743 0.72293 0.4055 0.0
C2680 C 0.06957 0.7159 0.41813 0.0
C2681 C 0.04664 0.72965 0.42306 0.0
C2682 C 0.05677 0.7291 0.43812 0.0
C2683 C 0.0779 0.721 0.45108 0.0
C2684 C 0.08936 0.71404 0.44884 0.0
C2685 C 0.06813 0.7221 0.43586 0.0
C2686 C 0.09139 0.70873 0.43099 0.0
C2687 C 0.08143 0.70945 0.41581 0.0
H2688 H 0.31018 0.03616 0.72529 0.0
H2689 H 0.25641 0.01742 0.70111 0.0
H2690 H 0.24776 0.02673 0.72918 0.0
H2691 H 0.25587 0.04148 0.76001 0.0
H2692 H 0.30985 0.06121 0.78394 0.0
H2693 H 0.318 0.05018 0.75661 0.0
C2694 C 0.2965 0.03394 0.72625 0.0
C2695 C 0.28399 0.02614 0.7111 0.0
C2696 C 0.2917 0.03964 0.74233 0.0
C2697 C 0.26636 0.02347 0.71252 0.0
C2698 C 0.26139 0.02881 0.72857 0.0
C2699 C 0.26942 0.04337 0.75922 0.0
C2700 C 0.28233 0.05236 0.77383 0.0
C2701 C 0.27403 0.03715 0.74343 0.0
C2702 C 0.29976 0.05449 0.77275 0.0
C2703 C 0.3044 0.04817 0.75715 0.0
H2704 H 0.97346 0.24635 0.71548 0.0
H2705 H 0.96364 0.28697 0.7375 0.0
H2706 H 0.95404 0.27091 0.76671 0.0
H2707 H 0.94836 0.24518 0.78599 0.0
H2708 H 0.95919 0.20529 0.764 0.0
H2709 H 0.96834 0.22116 0.73474 0.0
C2710 C 0.9692 0.25171 0.72664 0.0
C2711 C 0.96924 0.26783 0.72425 0.0
C2712 C 0.96383 0.2425 0.7434 0.0
C2713 C 0.96379 0.27461 0.73894 0.0
C2714 C 0.95826 0.26542 0.75565 0.0
C2715 C 0.95275 0.24002 0.77477 0.0
C2716 C 0.95304 0.22405 0.77715 0.0
C2717 C 0.95822 0.24934 0.75803 0.0
C2718 C 0.95877 0.2175 0.76251 0.0
C2719 C 0.96403 0.22657 0.74578 0.0
H2720 H 0.73578 0.67181 0.7324 0.0
H2721 H 0.71966 0.71033 0.72052 0.0
H2722 H 0.74326 0.73222 0.74248 0.0
H2723 H 0.76795 0.74009 0.76535 0.0
H2724 H 0.78443 0.70162 0.77649 0.0
H2725 H 0.76125 0.68016 0.75425 0.0
C2726 C 0.73737 0.68498 0.73461 0.0
C2727 C 0.72585 0.68935 0.72493 0.0
C2728 C 0.75098 0.69751 0.74716 0.0
C2729 C 0.72831 0.70658 0.72781 0.0
C2730 C 0.7418 0.71911 0.74039 0.0
C2731 C 0.76646 0.72699 0.76323 0.0
C2732 C 0.7775 0.72227 0.77348 0.0
C2733 C 0.75313 0.71466 0.75025 0.0
C2734 C 0.77569 0.70543 0.7695 0.0
C2735 C 0.76249 0.69314 0.75667 0.0
H2736 H 0.69536 0.61689 0.64391 0.0
H2737 H 0.70595 0.66882 0.62596 0.0
H2738 H 0.71586 0.66398 0.59598 0.0
H2739 H 0.72212 0.64515 0.57515 0.0
H2740 H 0.71027 0.59279 0.59308 0.0
H2741 H 0.70045 0.59776 0.62291 0.0
C2742 C 0.69984 0.62718 0.63346 0.0
C2743 C 0.70001 0.64324 0.63721 0.0
C2744 C 0.70535 0.62425 0.61628 0.0
C2745 C 0.70566 0.65633 0.62342 0.0
C2746 C 0.71138 0.65359 0.6063 0.0
C2747 C 0.71722 0.63478 0.58554 0.0
C2748 C 0.71682 0.61857 0.58185 0.0
C2749 C 0.71135 0.63762 0.60261 0.0
C2750 C 0.71066 0.60534 0.59554 0.0
C2751 C 0.70504 0.60817 0.6126 0.0
H2752 H 0.32103 0.07208 0.63217 0.0
H2753 H 0.36269 0.05822 0.63792 0.0
H2754 H 0.38587 0.08449 0.62143 0.0
H2755 H 0.39767 0.11593 0.59863 0.0
H2756 H 0.34863 0.13326 0.59315 0.0
H2757 H 0.32521 0.10258 0.61577 0.0
C2758 C 0.33481 0.0752 0.62951 0.0
C2759 C 0.34081 0.06369 0.63559 0.0
C2760 C 0.34622 0.09068 0.61995 0.0
C2761 C 0.35894 0.06758 0.6328 0.0
C2762 C 0.37248 0.08268 0.62328 0.0
C2763 C 0.38474 0.11419 0.60269 0.0
C2764 C 0.37442 0.12592 0.59073 0.0
C2765 C 0.36866 0.09505 0.61598 0.0
C2766 C 0.35349 0.12506 0.59905 0.0
C2767 C 0.33877 0.10553 0.61241 0.0
H2768 H 0.94933 0.26994 0.61783 0.0
H2769 H 0.93749 0.3043 0.65078 0.0
H2770 H 0.91349 0.29934 0.62827 0.0
H2771 H 0.89554 0.28482 0.59933 0.0
H2772 H 0.90851 0.25154 0.56605 0.0
H2773 H 0.93241 0.25654 0.58857 0.0
C2774 C 0.94149 0.27634 0.62013 0.0
C2775 C 0.94512 0.28736 0.63604 0.0
C2776 C 0.92785 0.27356 0.6071 0.0
C2777 C 0.93497 0.29572 0.63866 0.0
C2778 C 0.92123 0.29288 0.62581 0.0
C2779 C 0.90355 0.2786 0.59712 0.0
C2780 C 0.89986 0.26737 0.58136 0.0
C2781 C 0.91748 0.28174 0.61002 0.0
C2782 C 0.91072 0.25982 0.57833 0.0
C2783 C 0.92445 0.26274 0.59116 0.0
H2784 H 0.35406 0.29801 0.63152 0.0
H2785 H 0.40343 0.30593 0.65818 0.0
H2786 H 0.41258 0.29892 0.629 0.0
H2787 H 0.40725 0.29173 0.59559 0.0
H2788 H 0.35797 0.2837 0.56889 0.0
H2789 H 0.34811 0.28956 0.59838 0.0
C2790 C 0.36679 0.29814 0.63098 0.0
C2791 C 0.37806 0.30258 0.64705 0.0
C2792 C 0.372 0.29405 0.61414 0.0
C2793 C 0.39447 0.30259 0.64606 0.0
C2794 C 0.39975 0.29859 0.62936 0.0
C2795 C 0.39421 0.29097 0.59632 0.0
C2796 C 0.38319 0.28698 0.58016 0.0
C2797 C 0.3887 0.29443 0.61329 0.0
C2798 C 0.36654 0.28646 0.58121 0.0
C2799 C 0.36095 0.28989 0.59804 0.0
H2800 H 0.71389 0.10167 0.63645 0.0
H2801 H 0.71423 0.05541 0.61406 0.0
H2802 H 0.71325 0.065 0.58262 0.0
H2803 H 0.70965 0.08508 0.56149 0.0
H2804 H 0.70772 0.13035 0.58396 0.0
H2805 H 0.71205 0.12266 0.61532 0.0
C2806 C 0.71404 0.09382 0.62471 0.0
C2807 C 0.71405 0.07779 0.62765 0.0
C2808 C 0.71308 0.09919 0.60665 0.0
C2809 C 0.71414 0.06776 0.61223 0.0
C2810 C 0.71354 0.0732 0.59423 0.0
C2811 C 0.71051 0.09341 0.57327 0.0
C2812 C 0.70867 0.1084 0.57041 0.0
C2813 C 0.7126 0.08867 0.59128 0.0
C2814 C 0.70941 0.11892 0.58578 0.0
C2815 C 0.71179 0.11446 0.60372 0.0
H2816 H 0.92342 0.638 0.63032 0.0
H2817 H 0.95278 0.68625 0.59789 0.0
H2818 H 0.9339 0.66967 0.57059 0.0
H2819 H 0.9101 0.64115 0.55547 0.0
H2820 H 0.87962 0.59316 0.58788 0.0
H2821 H 0.89784 0.60993 0.61563 0.0
C2822 C 0.92562 0.64489 0.6173 0.0
C2823 C 0.9396 0.66331 0.61615 0.0
C2824 C 0.91457 0.63531 0.60163 0.0
C2825 C 0.94213 0.67209 0.5992 0.0
C2826 C 0.93137 0.66261 0.58354 0.0
C2827 C 0.90736 0.63441 0.56865 0.0
C2828 C 0.89374 0.61589 0.56958 0.0
C2829 C 0.91771 0.64418 0.58454 0.0
C2830 C 0.8902 0.60737 0.58679 0.0
C2831 C 0.9006 0.61695 0.60264 0.0
H2832 H 0.95279 0.68205 0.72119 0.0
H2833 H 0.96896 0.73402 0.69811 0.0
H2834 H 0.96306 0.74396 0.72749 0.0
H2835 H 0.95473 0.7385 0.76022 0.0
H2836 H 0.93871 0.68671 0.78337 0.0
H2837 H 0.94315 0.67612 0.7535 0.0
C2838 C 0.95491 0.69551 0.72252 0.0
C2839 C 0.96139 0.70727 0.70743 0.0
C2840 C 0.95155 0.70121 0.7395 0.0
C2841 C 0.96401 0.72466 0.70946 0.0
C2842 C 0.96067 0.7304 0.72628 0.0
C2843 C 0.95194 0.7248 0.75861 0.0
C2844 C 0.94611 0.71329 0.77389 0.0
C2845 C 0.95462 0.71886 0.74144 0.0
C2846 C 0.94294 0.69571 0.77174 0.0
C2847 C 0.94555 0.68969 0.75469 0.0
H2848 H 0.3476 0.28561 0.75312 0.0
H2849 H 0.30371 0.26766 0.71218 0.0
H2850 H 0.28189 0.24549 0.7337 0.0
H2851 H 0.27514 0.2318 0.76452 0.0
H2852 H 0.31872 0.25151 0.80606 0.0
H2853 H 0.34086 0.27216 0.78385 0.0
C2854 C 0.33329 0.27677 0.74885 0.0
C2855 C 0.3273 0.27826 0.73107 0.0
C2856 C 0.32076 0.26435 0.76141 0.0
C2857 C 0.30866 0.26683 0.72582 0.0
C2858 C 0.29618 0.25413 0.73811 0.0
C2859 C 0.28948 0.24066 0.76869 0.0
C2860 C 0.29526 0.24022 0.78695 0.0
C2861 C 0.30205 0.25288 0.756 0.0
C2862 C 0.31392 0.25163 0.79211 0.0
C2863 C 0.32658 0.26347 0.77943 0.0
H2864 H 0.73592 0.06885 0.73697 0.0
H2865 H 0.75123 0.04086 0.69856 0.0
H2866 H 0.76925 0.03748 0.72321 0.0
H2867 H 0.77934 0.04127 0.7561 0.0
H2868 H 0.76044 0.06585 0.79487 0.0
H2869 H 0.74547 0.07215 0.76961 0.0
C2870 C 0.74342 0.06223 0.73393 0.0
C2871 C 0.74243 0.05527 0.71596 0.0
C2872 C 0.75305 0.05969 0.74827 0.0
C2873 C 0.75186 0.04638 0.7123 0.0
C2874 C 0.76212 0.04442 0.72638 0.0
C2875 C 0.77186 0.04791 0.75902 0.0
C2876 C 0.7709 0.05295 0.77741 0.0
C2877 C 0.76258 0.05079 0.7445 0.0
C2878 C 0.7614 0.06183 0.78089 0.0
C2879 C 0.75278 0.06538 0.76645 0.0
H2880 H 0.02861 0.31858 0.99584 0.0
H2881 H 0.04354 0.36338 0.0343 0.0
H2882 H 0.07106 0.36503 0.04622 0.0
H2883 H 0.09597 0.35211 0.04937 0.0
H2884 H 0.07917 0.29948 0.0031 0.0
H2885 H 0.04853 0.30212 0.98996 0.0
C2886 C 0.03793 0.32808 0.00644 0.0
C2887 C 0.03472 0.34103 0.01464 0.0
C2888 C 0.05292 0.32705 0.01181 0.0
C2889 C 0.04671 0.35376 0.02856 0.0
C2890 C 0.0627 0.35493 0.03561 0.0
C2891 C 0.08775 0.34342 0.03776 0.0
C2892 C 0.08896 0.32344 0.02992 0.0
C2893 C 0.06773 0.34314 0.02919 0.0
C2894 C 0.07716 0.31005 0.0083 0.0
C2895 C 0.05761 0.31117 0.00094 0.0
H2896 H 0.69351 0.7168 0.00818 0.0
H2897 H 0.65632 0.68693 0.05189 0.0
H2898 H 0.66789 0.71507 0.06995 0.0
H2899 H 0.69005 0.74789 0.07425 0.0
H2900 H 0.72769 0.77752 0.03087 0.0
H2901 H 0.7145 0.74973 0.01179 0.0
C2902 C 0.68777 0.71643 0.02156 0.0
C2903 C 0.67411 0.69973 0.02867 0.0
C2904 C 0.69465 0.73263 0.03199 0.0
C2905 C 0.66687 0.69956 0.04607 0.0
C2906 C 0.67352 0.71566 0.05645 0.0
C2907 C 0.69513 0.74829 0.06049 0.0
C2908 C 0.70964 0.7648 0.05385 0.0
C2909 C 0.68761 0.73222 0.04968 0.0
C2910 C 0.71637 0.76504 0.03616 0.0
C2911 C 0.70888 0.74915 0.02529 0.0
H2912 H 0.28133 0.93197 0.02911 0.0
H2913 H 0.28909 0.98537 0.02312 0.0
H2914 H 0.25778 0.97573 0.03028 0.0
H2915 H 0.22194 0.95002 0.04369 0.0
H2916 H 0.21156 0.88612 0.05041 0.0
H2917 H 0.24857 0.90048 0.03771 0.0
C2918 C 0.27572 0.94064 0.02945 0.0
C2919 C 0.28689 0.95938 0.02597 0.0
C2920 C 0.25752 0.93299 0.03398 0.0
C2921 C 0.27994 0.97115 0.0261 0.0
C2922 C 0.26185 0.96583 0.03017 0.0
C2923 C 0.22635 0.94052 0.04148 0.0
C2924 C 0.214 0.91742 0.05146 0.0
C2925 C 0.24934 0.94811 0.03456 0.0
C2926 C 0.21987 0.89998 0.04595 0.0
C2927 C 0.24313 0.90923 0.03883 0.0
H2928 H 0.3219 0.03588 0.01086 0.0
H2929 H 0.37631 0.07266 0.99086 0.0
H2930 H 0.36649 0.09298 0.97994 0.0
H2931 H 0.34197 0.09959 0.97493 0.0
H2932 H 0.28741 0.0619 0.99389 0.0
H2933 H 0.29782 0.04267 0.00648 0.0
C2934 C 0.33171 0.04843 0.00429 0.0
C2935 C 0.34983 0.05273 0.00168 0.0
C2936 C 0.32588 0.05979 0.99769 0.0
C2937 C 0.36228 0.06901 0.99303 0.0
C2938 C 0.35666 0.08061 0.98673 0.0
C2939 C 0.33235 0.08708 0.98167 0.0
C2940 C 0.3138 0.08189 0.98301 0.0
C2941 C 0.3384 0.07599 0.98873 0.0
C2942 C 0.30163 0.06594 0.99231 0.0
C2943 C 0.30759 0.05499 0.99957 0.0
H2944 H 0.97236 0.29079 0.00032 0.0
H2945 H 0.92625 0.29075 0.97426 0.0
H2946 H 0.91648 0.264 0.95516 0.0
H2947 H 0.9187 0.23393 0.94226 0.0
H2948 H 0.97302 0.23257 0.97238 0.0
H2949 H 0.98277 0.26568 0.9927 0.0
C2950 C 0.96056 0.28442 0.99084 0.0
C2951 C 0.94967 0.29211 0.98813 0.0
C2952 C 0.95667 0.26887 0.98108 0.0
C2953 C 0.93409 0.28426 0.97576 0.0
C2954 C 0.92831 0.26888 0.96445 0.0
C2955 C 0.93108 0.24022 0.95091 0.0
C2956 C 0.94281 0.22798 0.95755 0.0
C2957 C 0.9377 0.26 0.96501 0.0
C2958 C 0.96563 0.23938 0.96998 0.0
C2959 C 0.97094 0.25937 0.9833 0.0
H2960 H 0.71166 0.68251 0.998 0.0
H2961 H 0.71468 0.63436 0.00029 0.0
H2962 H 0.74719 0.65212 0.99307 0.0
H2963 H 0.77439 0.68093 0.98482 0.0
H2964 H 0.77148 0.72898 0.98088 0.0
H2965 H 0.73935 0.71173 0.99026 0.0
C2966 C 0.71949 0.67596 0.99707 0.0
C2967 C 0.71074 0.65713 0.99962 0.0
C2968 C 0.73814 0.6862 0.99252 0.0
C2969 C 0.72104 0.6488 0.99827 0.0
C2970 C 0.73964 0.65895 0.99415 0.0
C2971 C 0.76668 0.6876 0.98591 0.0
C2972 C 0.77513 0.70608 0.98171 0.0
C2973 C 0.74824 0.67757 0.99098 0.0
C2974 C 0.76514 0.71467 0.98369 0.0
C2975 C 0.74681 0.70483 0.98907 0.0
H2976 H 0.98105 0.69209 0.02418 0.0
H2977 H 0.97235 0.65506 0.979 0.0
H2978 H 0.95848 0.66817 0.96006 0.0
H2979 H 0.95136 0.69194 0.95538 0.0
H2980 H 0.96102 0.72954 0.00022 0.0
H2981 H 0.97206 0.71446 0.02022 0.0
C2982 C 0.97585 0.68666 0.0103 0.0
C2983 C 0.97783 0.67266 0.00301 0.0
C2984 C 0.96822 0.6945 0.99935 0.0
C2985 C 0.97106 0.66586 0.98496 0.0
C2986 C 0.96319 0.6734 0.97407 0.0
C2987 C 0.95557 0.6966 0.96964 0.0
C2988 C 0.95514 0.71168 0.9764 0.0
C2989 C 0.96209 0.68799 0.98098 0.0
C2990 C 0.96101 0.71783 0.99478 0.0
C2991 C 0.96736 0.70925 0.00619 0.0
H2992 H 0.32212 0.30363 0.98618 0.0
H2993 H 0.36688 0.305 0.01634 0.0
H2994 H 0.35486 0.27337 0.00723 0.0
H2995 H 0.33043 0.24471 0.99251 0.0
H2996 H 0.28511 0.24319 0.96354 0.0
H2997 H 0.29859 0.27553 0.97034 0.0
C2998 C 0.32939 0.29711 0.99062 0.0
C2999 C 0.34535 0.30668 0.00202 0.0
C3000 C 0.32226 0.27886 0.98558 0.0
C3001 C 0.35455 0.29797 0.00761 0.0
C3002 C 0.34766 0.27985 0.00244 0.0
C3003 C 0.3237 0.25158 0.98744 0.0
C3004 C 0.307 0.24167 0.97725 0.0
C3005 C 0.33136 0.27009 0.99169 0.0
C3006 C 0.29816 0.25059 0.9711 0.0
C3007 C 0.30581 0.26905 0.97508 0.0
H3008 H 0.71211 0.02322 0.98633 0.0
H3009 H 0.72425 0.07746 0.99808 0.0
H3010 H 0.75699 0.08954 0.99412 0.0
H3011 H 0.78227 0.0845 0.98858 0.0
H3012 H 0.77004 0.03051 0.9754 0.0
H3013 H 0.73718 0.01848 0.97863 0.0
C3014 C 0.72192 0.03769 0.988 0.0
C3015 C 0.71578 0.0494 0.99267 0.0
C3016 C 0.74069 0.04456 0.98549 0.0
C3017 C 0.72862 0.06815 0.99451 0.0
C3018 C 0.74735 0.07506 0.99229 0.0
C3019 C 0.77238 0.07012 0.98631 0.0
C3020 C 0.77856 0.05836 0.98201 0.0
C3021 C 0.75355 0.06337 0.98796 0.0
C3022 C 0.7656 0.03978 0.97891 0.0
C3023 C 0.74684 0.03291 0.98075 0.0
H3024 H 0.67561 0.97033 0.02283 0.0
H3025 H 0.61742 0.93965 0.03314 0.0
H3026 H 0.62018 0.91517 0.04589 0.0
H3027 H 0.63918 0.9027 0.05462 0.0
H3028 H 0.69725 0.93323 0.04419 0.0
H3029 H 0.69448 0.9576 0.031 0.0
C3030 C 0.6635 0.95827 0.02779 0.0
C3031 C 0.64633 0.95687 0.02706 0.0
C3032 C 0.6652 0.9443 0.03524 0.0
C3033 C 0.63081 0.94112 0.03357 0.0
C3034 C 0.63237 0.92712 0.04089 0.0
C3035 C 0.65124 0.91478 0.04961 0.0
C3036 C 0.66847 0.9164 0.05087 0.0
C3037 C 0.64951 0.92864 0.04193 0.0
C3038 C 0.68392 0.93188 0.04382 0.0
C3039 C 0.68232 0.94575 0.03618 0.0
H3040 H 0.02869 0.70958 0.03465 0.0
H3041 H 0.08472 0.72267 0.03171 0.0
H3042 H 0.09585 0.75501 0.03509 0.0
H3043 H 0.08958 0.77956 0.03781 0.0
H3044 H 0.03369 0.76635 0.04251 0.0
H3045 H 0.02253 0.73397 0.03946 0.0
C3046 C 0.04334 0.7195 0.03477 0.0
C3047 C 0.05586 0.71375 0.03276 0.0
C3048 C 0.04964 0.73801 0.03697 0.0
C3049 C 0.07481 0.72676 0.03322 0.0
C3050 C 0.08118 0.74524 0.03511 0.0
C3051 C 0.07497 0.76957 0.03826 0.0
C3052 C 0.06244 0.77532 0.04011 0.0
C3053 C 0.06871 0.75102 0.03684 0.0
C3054 C 0.04356 0.76224 0.04088 0.0
C3055 C 0.03719 0.74376 0.03917 0.0
H3056 H 0.2826 0.35997 0.02962 0.0
H3057 H 0.29016 0.31457 0.03258 0.0
H3058 H 0.25698 0.29367 0.03443 0.0
H3059 H 0.2257 0.28817 0.03407 0.0
H3060 H 0.21803 0.3333 0.0287 0.0
H3061 H 0.25133 0.35444 0.02918 0.0
C3062 C 0.27698 0.34552 0.03083 0.0
C3063 C 0.28881 0.33883 0.03099 0.0
C3064 C 0.25786 0.33353 0.03143 0.0
C3065 C 0.28133 0.32005 0.03236 0.0
C3066 C 0.26236 0.30809 0.03343 0.0
C3067 C 0.23136 0.30264 0.033 0.0
C3068 C 0.21946 0.30917 0.03128 0.0
C3069 C 0.25049 0.31465 0.03277 0.0
C3070 C 0.22694 0.32796 0.03001 0.0
C3071 C 0.24595 0.34004 0.03025 0.0
H3072 H 0.70671 0.69197 0.37 0.0
H3073 H 0.70567 0.66518 0.31874 0.0
H3074 H 0.73032 0.66153 0.33063 0.0
H3075 H 0.75235 0.66601 0.35544 0.0
H3076 H 0.75447 0.69378 0.40626 0.0
H3077 H 0.72923 0.6969 0.39475 0.0
C3078 C 0.71188 0.68533 0.36144 0.0
C3079 C 0.70431 0.67886 0.34351 0.0
C3080 C 0.72619 0.68334 0.36833 0.0
C3081 C 0.71124 0.67035 0.33258 0.0
C3082 C 0.72533 0.6682 0.33937 0.0
C3083 C 0.74711 0.67256 0.36405 0.0
C3084 C 0.7549 0.67917 0.38185 0.0
C3085 C 0.73288 0.67461 0.35722 0.0
C3086 C 0.74839 0.68813 0.39269 0.0
C3087 C 0.73404 0.69003 0.38607 0.0
H3088 H 0.35882 0.05353 0.35333 0.0
H3089 H 0.31647 0.02698 0.39408 0.0
H3090 H 0.32768 0.05397 0.41347 0.0
H3091 H 0.35281 0.09186 0.42284 0.0
H3092 H 0.40461 0.12341 0.37587 0.0
H3093 H 0.38819 0.08918 0.35545 0.0
C3094 C 0.35254 0.05437 0.36588 0.0
C3095 C 0.33696 0.03878 0.37289 0.0
C3096 C 0.36077 0.07086 0.37538 0.0
C3097 C 0.32849 0.03932 0.38949 0.0
C3098 C 0.33479 0.0548 0.40091 0.0
C3099 C 0.35981 0.09122 0.41078 0.0
C3100 C 0.37854 0.11206 0.39979 0.0
C3101 C 0.35027 0.07101 0.39642 0.0
C3102 C 0.39282 0.11125 0.38105 0.0
C3103 C 0.38193 0.09021 0.36791 0.0
H3104 H 0.96651 0.31684 0.3694 0.0
H3105 H 0.95828 0.26358 0.36114 0.0
H3106 H 0.92583 0.24953 0.36794 0.0
H3107 H 0.90002 0.2522 0.37708 0.0
H3108 H 0.908 0.30507 0.38717 0.0
H3109 H 0.94028 0.31949 0.37856 0.0
C3110 C 0.95757 0.30217 0.369 0.0
C3111 C 0.96481 0.29127 0.36484 0.0
C3112 C 0.93893 0.29412 0.37332 0.0
C3113 C 0.95308 0.27228 0.36445 0.0
C3114 C 0.93452 0.26422 0.3683 0.0
C3115 C 0.90887 0.26688 0.37757 0.0
C3116 C 0.90179 0.27757 0.38324 0.0
C3117 C 0.92735 0.27499 0.37296 0.0
C3118 C 0.91327 0.29658 0.38322 0.0
C3119 C 0.93168 0.3048 0.37828 0.0
H3120 H 0.98155 0.35828 0.32073 0.0
H3121 H 0.03992 0.38927 0.33309 0.0
H3122 H 0.04102 0.41735 0.326 0.0
H3123 H 0.0252 0.43318 0.31699 0.0
H3124 H 0.96661 0.40211 0.30611 0.0
H3125 H 0.96584 0.37398 0.31171 0.0
C3126 C 0.99455 0.37115 0.32178 0.0
C3127 C 0.01062 0.37166 0.32743 0.0
C3128 C 0.99503 0.38725 0.31796 0.0
C3129 C 0.02732 0.3885 0.32883 0.0
C3130 C 0.02797 0.40456 0.32476 0.0
C3131 C 0.01229 0.42023 0.31589 0.0
C3132 C 0.99598 0.41975 0.31128 0.0
C3133 C 0.01188 0.40411 0.31945 0.0
C3134 C 0.97935 0.40287 0.30972 0.0
C3135 C 0.97889 0.38678 0.31293 0.0
H3136 H 0.6039 0.62995 0.28759 0.0
H3137 H 0.64349 0.62979 0.32585 0.0
H3138 H 0.63634 0.59975 0.31638 0.0
H3139 H 0.61486 0.56566 0.29612 0.0
H3140 H 0.56894 0.56615 0.24931 0.0
H3141 H 0.58182 0.60289 0.26184 0.0
C3142 C 0.61024 0.623 0.29336 0.0
C3143 C 0.62404 0.63128 0.30747 0.0
C3144 C 0.60462 0.60595 0.28635 0.0
C3145 C 0.63296 0.62271 0.31509 0.0
C3146 C 0.62903 0.60536 0.30978 0.0
C3147 C 0.60947 0.57286 0.28896 0.0
C3148 C 0.5883 0.56087 0.2738 0.0
C3149 C 0.61577 0.59538 0.29622 0.0
C3150 C 0.58017 0.57312 0.25936 0.0
C3151 C 0.58767 0.5956 0.26784 0.0
H3152 H 0.36183 0.96082 0.33665 0.0
H3153 H 0.36907 0.01383 0.3431 0.0
H3154 H 0.40039 0.02792 0.33187 0.0
H3155 H 0.42544 0.02502 0.3193 0.0
H3156 H 0.41795 0.97189 0.31355 0.0
H3157 H 0.38699 0.95801 0.32544 0.0
C3158 C 0.37024 0.97547 0.33567 0.0
C3159 C 0.36304 0.98623 0.34061 0.0
C3160 C 0.38816 0.98345 0.32919 0.0
C3161 C 0.37424 0.00521 0.33938 0.0
C3162 C 0.39214 0.01328 0.33291 0.0
C3163 C 0.41695 0.01041 0.32057 0.0
C3164 C 0.42376 0.99946 0.31504 0.0
C3165 C 0.39918 0.00251 0.32759 0.0
C3166 C 0.41284 0.98057 0.31726 0.0
C3167 C 0.39517 0.97263 0.32413 0.0
H3168 H 0.6185 0.94516 0.3162 0.0
H3169 H 0.64195 0.99826 0.3421 0.0
H3170 H 0.61716 0.001 0.32879 0.0
H3171 H 0.58874 0.98835 0.30978 0.0
H3172 H 0.56531 0.93535 0.28385 0.0
H3173 H 0.59007 0.93249 0.29728 0.0
C3174 C 0.6182 0.95733 0.31895 0.0
C3175 C 0.63211 0.97147 0.33012 0.0
C3176 C 0.60392 0.95887 0.31119 0.0
C3177 C 0.63144 0.98714 0.33356 0.0
C3178 C 0.61727 0.98875 0.32593 0.0
C3179 C 0.58921 0.97629 0.30689 0.0
C3180 C 0.5755 0.96229 0.29543 0.0
C3181 C 0.60346 0.97473 0.31468 0.0
C3182 C 0.57596 0.94649 0.29227 0.0
C3183 C 0.59006 0.94482 0.30001 0.0
H3184 H 0.05061 0.67249 0.33186 0.0
H3185 H 0.99183 0.64888 0.33089 0.0
H3186 H 0.9871 0.62002 0.31961 0.0
H3187 H 0.99961 0.60109 0.31096 0.0
H3188 H 0.05831 0.62461 0.31244 0.0
H3189 H 0.0631 0.65385 0.32254 0.0
C3190 C 0.03676 0.66107 0.32911 0.0
C3191 C 0.02162 0.66289 0.33228 0.0
C3192 C 0.03411 0.64446 0.32269 0.0
C3193 C 0.00376 0.6479 0.32863 0.0
C3194 C 0.00103 0.63136 0.32217 0.0
C3195 C 0.01344 0.6127 0.31328 0.0
C3196 C 0.02859 0.61077 0.31067 0.0
C3197 C 0.01609 0.62944 0.31926 0.0
C3198 C 0.04644 0.62582 0.31408 0.0
C3199 C 0.04918 0.64252 0.31993 0.0
H3200 H 0.36294 0.35378 0.31587 0.0
H3201 H 0.37256 0.40792 0.31864 0.0
H3202 H 0.40536 0.42073 0.31411 0.0
H3203 H 0.43144 0.41656 0.31063 0.0
H3204 H 0.42161 0.36246 0.30593 0.0
H3205 H 0.3887 0.34957 0.30996 0.0
C3206 C 0.37221 0.36838 0.31544 0.0
C3207 C 0.36537 0.37989 0.31776 0.0
C3208 C 0.39099 0.37564 0.31257 0.0
C3209 C 0.3775 0.39877 0.31689 0.0
C3210 C 0.39625 0.40611 0.31435 0.0
C3211 C 0.42206 0.40195 0.3104 0.0
C3212 C 0.42897 0.39047 0.30838 0.0
C3213 C 0.40317 0.39467 0.31237 0.0
C3214 C 0.41664 0.37156 0.3078 0.0
C3215 C 0.39785 0.3642 0.31006 0.0
H3216 H 0.34732 0.3059 0.33346 0.0
H3217 H 0.31055 0.3002 0.37675 0.0
H3218 H 0.32292 0.28616 0.39646 0.0
H3219 H 0.34572 0.27748 0.40224 0.0
H3220 H 0.38305 0.2841 0.35928 0.0
H3221 H 0.36896 0.29585 0.33863 0.0
C3222 C 0.34181 0.30138 0.34711 0.0
C3223 C 0.32805 0.30417 0.35361 0.0
C3224 C 0.3492 0.29359 0.3585 0.0
C3225 C 0.32116 0.29826 0.37138 0.0
C3226 C 0.32827 0.29028 0.38271 0.0
C3227 C 0.35055 0.28123 0.38825 0.0
C3228 C 0.36523 0.27968 0.3822 0.0
C3229 C 0.34251 0.28817 0.37653 0.0
C3230 C 0.37161 0.28494 0.36417 0.0
C3231 C 0.3636 0.29171 0.35239 0.0
H3232 H 0.69481 0.03807 0.37369 0.0
H3233 H 0.75041 0.04959 0.37425 0.0
H3234 H 0.76229 0.08213 0.37378 0.0
H3235 H 0.75681 0.10719 0.37124 0.0
H3236 H 0.70135 0.09585 0.37224 0.0
H3237 H 0.68945 0.06332 0.37407 0.0
C3238 C 0.70953 0.04771 0.37382 0.0
C3239 C 0.7217 0.04142 0.3738 0.0
C3240 C 0.71627 0.0664 0.3737 0.0
C3241 C 0.74075 0.05408 0.37425 0.0
C3242 C 0.74755 0.07269 0.37391 0.0
C3243 C 0.74213 0.09759 0.37201 0.0
C3244 C 0.72994 0.10386 0.37127 0.0
C3245 C 0.73543 0.07898 0.37333 0.0
C3246 C 0.71097 0.0913 0.37251 0.0
C3247 C 0.70418 0.07273 0.37358 0.0
H3248 H 0.95606 0.66458 0.37147 0.0
H3249 H 0.9531 0.71273 0.3689 0.0
H3250 H 0.91965 0.69424 0.37032 0.0
H3251 H 0.89118 0.66434 0.37109 0.0
H3252 H 0.89398 0.61627 0.37567 0.0
H3253 H 0.92756 0.63475 0.37467 0.0
C3254 C 0.94807 0.671 0.37126 0.0
C3255 C 0.95702 0.68997 0.36992 0.0
C3256 C 0.92884 0.66031 0.37237 0.0
C3257 C 0.94654 0.69815 0.36993 0.0
C3258 C 0.92741 0.68759 0.37069 0.0
C3259 C 0.89916 0.65794 0.37197 0.0
C3260 C 0.89012 0.63896 0.3731 0.0
C3261 C 0.91841 0.66866 0.37174 0.0
C3262 C 0.90064 0.63084 0.37449 0.0
C3263 C 0.91981 0.6414 0.37395 0.0
H3264 H 0.38921 0.03407 0.68502 0.0
H3265 H 0.33715 0.98843 0.70252 0.0
H3266 H 0.35047 0.97279 0.71686 0.0
H3267 H 0.38069 0.96945 0.7286 0.0
H3268 H 0.44305 0.02237 0.70726 0.0
H3269 H 0.4235 0.03781 0.69016 0.0
C3270 C 0.38172 0.0213 0.69207 0.0
C3271 C 0.36234 0.01189 0.69306 0.0
C3272 C 0.39151 0.01422 0.69972 0.0
C3273 C 0.35196 0.99501 0.70213 0.0
C3274 C 0.3594 0.98568 0.71045 0.0
C3275 C 0.38858 0.98157 0.72063 0.0
C3276 C 0.41412 0.99578 0.7226 0.0
C3277 C 0.37805 0.9928 0.71038 0.0
C3278 C 0.4282 0.0153 0.70722 0.0
C3279 C 0.41603 0.0252 0.69746 0.0
H3280 H 0.00529 0.38236 0.67904 0.0
H3281 H 0.9677 0.34268 0.71722 0.0
H3282 H 0.9608 0.36465 0.7298 0.0
H3283 H 0.9643 0.39468 0.72897 0.0
H3284 H 0.00182 0.43432 0.69085 0.0
H3285 H 0.00986 0.41282 0.67922 0.0
C3286 C 0.99566 0.37853 0.69018 0.0
C3287 C 0.98697 0.36085 0.69709 0.0
C3288 C 0.99172 0.39123 0.69736 0.0
C3289 C 0.97459 0.35618 0.7116 0.0
C3290 C 0.9706 0.36873 0.7188 0.0
C3291 C 0.97446 0.39869 0.71834 0.0
C3292 C 0.9827 0.41617 0.711 0.0
C3293 C 0.97894 0.38623 0.71167 0.0
C3294 C 0.99552 0.42104 0.69691 0.0
C3295 C 6e-05 0.40873 0.69021 0.0
H3296 H 0.62784 0.64496 0.70139 0.0
H3297 H 0.63006 0.59674 0.70865 0.0
H3298 H 0.59803 0.58002 0.71782 0.0
H3299 H 0.56944 0.57906 0.72381 0.0
H3300 H 0.56739 0.62745 0.71789 0.0
H3301 H 0.5993 0.64412 0.70793 0.0
C3302 C 0.62131 0.63079 0.70494 0.0
C3303 C 0.63134 0.62212 0.70432 0.0
C3304 C 0.60295 0.62131 0.71047 0.0
C3305 C 0.62269 0.60377 0.70907 0.0
C3306 C 0.60436 0.59418 0.7143 0.0
C3307 C 0.57604 0.59332 0.72059 0.0
C3308 C 0.56621 0.60216 0.72204 0.0
C3309 C 0.59439 0.60283 0.71511 0.0
C3310 C 0.57481 0.62049 0.71724 0.0
C3311 C 0.593 0.62998 0.7115 0.0
H3312 H 0.68391 0.71463 0.65413 0.0
H3313 H 0.63831 0.69146 0.69117 0.0
H3314 H 0.62864 0.71153 0.67945 0.0
H3315 H 0.63308 0.73568 0.65877 0.0
H3316 H 0.67968 0.76034 0.62309 0.0
H3317 H 0.68894 0.73968 0.63409 0.0
C3318 C 0.67184 0.71398 0.65959 0.0
C3319 C 0.66182 0.70154 0.67346 0.0
C3320 C 0.66648 0.72577 0.65298 0.0
C3321 C 0.64632 0.70096 0.68055 0.0
C3322 C 0.64074 0.71239 0.67382 0.0
C3323 C 0.6452 0.73643 0.65334 0.0
C3324 C 0.65536 0.74922 0.63982 0.0
C3325 C 0.6507 0.72483 0.66004 0.0
C3326 C 0.67132 0.75037 0.6332 0.0
C3327 C 0.6767 0.73861 0.63955 0.0
H3328 H 0.30195 0.96339 0.6534 0.0
H3329 H 0.26131 0.96709 0.62016 0.0
H3330 H 0.24891 0.9378 0.6049 0.0
H3331 H 0.24578 0.90342 0.5994 0.0
H3332 H 0.29415 0.89831 0.63782 0.0
H3333 H 0.30803 0.93479 0.65215 0.0
C3334 C 0.29076 0.9574 0.64319 0.0
C3335 C 0.28206 0.96671 0.63752 0.0
C3336 C 0.28524 0.94041 0.63587 0.0
C3337 C 0.26743 0.95933 0.62401 0.0
C3338 C 0.26009 0.94242 0.61498 0.0
C3339 C 0.25787 0.90951 0.60846 0.0
C3340 C 0.26635 0.89581 0.6195 0.0
C3341 C 0.26694 0.93156 0.61901 0.0
C3342 C 0.28866 0.90628 0.63277 0.0
C3343 C 0.29654 0.92856 0.64233 0.0
H3344 H 0.0434 0.30606 0.65747 0.0
H3345 H 0.04049 0.35379 0.66664 0.0
H3346 H 0.07236 0.37304 0.65701 0.0
H3347 H 0.10089 0.37612 0.64522 0.0
H3348 H 0.10345 0.32806 0.63725 0.0
H3349 H 0.07185 0.30913 0.64714 0.0
C3350 C 0.04969 0.32068 0.65739 0.0
C3351 C 0.03951 0.32845 0.66264 0.0
C3352 C 0.06794 0.3316 0.65191 0.0
C3353 C 0.04801 0.34744 0.66266 0.0
C3354 C 0.06621 0.35845 0.6571 0.0
C3355 C 0.09443 0.36149 0.64555 0.0
C3356 C 0.10431 0.35348 0.63992 0.0
C3357 C 0.07626 0.35065 0.65153 0.0
C3358 C 0.09599 0.33454 0.64097 0.0
C3359 C 0.07795 0.32371 0.64673 0.0
H3360 H 0.31343 0.32631 0.64592 0.0
H3361 H 0.30588 0.34319 0.69985 0.0
H3362 H 0.29281 0.35935 0.68542 0.0
H3363 H 0.28566 0.37064 0.65749 0.0
H3364 H 0.29309 0.35385 0.60356 0.0
H3365 H 0.30409 0.33575 0.61798 0.0
C3366 C 0.30871 0.33332 0.65454 0.0
C3367 C 0.31078 0.33362 0.67395 0.0
C3368 C 0.30134 0.34276 0.64614 0.0
C3369 C 0.30453 0.34275 0.68488 0.0
C3370 C 0.2971 0.35208 0.67664 0.0
C3371 C 0.2895 0.36285 0.64891 0.0
C3372 C 0.28861 0.36361 0.6295 0.0
C3373 C 0.29579 0.35249 0.65729 0.0
C3374 C 0.29367 0.35348 0.61855 0.0
C3375 C 0.29997 0.34315 0.62678 0.0
H3376 H 0.65944 0.96463 0.67697 0.0
H3377 H 0.6933 0.994 0.63099 0.0
H3378 H 0.6796 0.96587 0.61253 0.0
H3379 H 0.65694 0.93319 0.60888 0.0
H3380 H 0.62275 0.90389 0.65459 0.0
H3381 H 0.63757 0.93178 0.6737 0.0
C3382 C 0.66396 0.96488 0.66298 0.0
C3383 C 0.67736 0.98143 0.65539 0.0
C3384 C 0.65589 0.94868 0.65235 0.0
C3385 C 0.683 0.98147 0.63719 0.0
C3386 C 0.67514 0.96539 0.62659 0.0
C3387 C 0.65293 0.93289 0.62311 0.0
C3388 C 0.63899 0.91645 0.63043 0.0
C3389 C 0.66143 0.94896 0.63395 0.0
C3390 C 0.63363 0.91633 0.64875 0.0
C3391 C 0.64206 0.93226 0.65965 0.0
H3392 H 0.04253 0.73362 0.65664 0.0
H3393 H 0.0207 0.6761 0.65117 0.0
H3394 H 0.05176 0.6819 0.64833 0.0
H3395 H 0.08522 0.70336 0.64782 0.0
H3396 H 0.10711 0.76063 0.65611 0.0
H3397 H 0.07599 0.75496 0.65715 0.0
C3398 C 0.0446 0.72238 0.65473 0.0
C3399 C 0.02937 0.70449 0.65403 0.0
C3400 C 0.06251 0.72578 0.6536 0.0
C3401 C 0.03223 0.69001 0.6518 0.0
C3402 C 0.04997 0.69332 0.65014 0.0
C3403 C 0.08315 0.71456 0.64996 0.0
C3404 C 0.09844 0.73237 0.65198 0.0
C3405 C 0.06523 0.71114 0.65112 0.0
C3406 C 0.09556 0.74678 0.65459 0.0
C3407 C 0.07778 0.74356 0.65519 0.0
H3408 H 0.99286 0.62676 0.66518 0.0
H3409 H 0.95962 0.62925 0.70804 0.0
H3410 H 0.96713 0.61145 0.72821 0.0
H3411 H 0.98538 0.59752 0.73464 0.0
H3412 H 0.01972 0.59649 0.69219 0.0
H3413 H 0.0095 0.61133 0.67089 0.0
C3414 C 0.98701 0.62319 0.67882 0.0
C3415 C 0.97576 0.62943 0.6851 0.0
C3416 C 0.99171 0.61332 0.69049 0.0
C3417 C 0.96837 0.62469 0.70286 0.0
C3418 C 0.97271 0.61456 0.71444 0.0
C3419 C 0.99037 0.6003 0.72062 0.0
C3420 C 0.00317 0.59579 0.71495 0.0
C3421 C 0.9847 0.60916 0.70855 0.0
C3422 C 0.00974 0.59969 0.69683 0.0
C3423 C 0.00396 0.60822 0.68467 0.0
H3424 H 0.35959 0.36764 0.70993 0.0
H3425 H 0.41528 0.37944 0.7107 0.0
H3426 H 0.42698 0.41183 0.71513 0.0
H3427 H 0.42135 0.43688 0.71696 0.0
H3428 H 0.36564 0.42485 0.71816 0.0
H3429 H 0.35393 0.3924 0.71483 0.0
C3430 C 0.37429 0.37731 0.71116 0.0
C3431 C 0.38658 0.37122 0.70977 0.0
C3432 C 0.38089 0.39583 0.71394 0.0
C3433 C 0.40556 0.38382 0.7117 0.0
C3434 C 0.41225 0.40233 0.71417 0.0
C3435 C 0.40665 0.42713 0.71662 0.0
C3436 C 0.39437 0.43328 0.7173 0.0
C3437 C 0.40004 0.4085 0.71504 0.0
C3438 C 0.37536 0.42048 0.71722 0.0
C3439 C 0.36867 0.40194 0.71536 0.0
H3440 H 0.65871 0.05043 0.71993 0.0
H3441 H 0.64175 0.00638 0.68032 0.0
H3442 H 0.61105 0.99008 0.69334 0.0
H3443 H 0.58914 0.98822 0.71642 0.0
H3444 H 0.60724 0.03163 0.7571 0.0
H3445 H 0.63736 0.04826 0.74325 0.0
C3446 C 0.64826 0.03733 0.71403 0.0
C3447 C 0.65245 0.0297 0.69909 0.0
C3448 C 0.63083 0.0279 0.7218 0.0
C3449 C 0.63885 0.01256 0.69181 0.0
C3450 C 0.6213 0.00323 0.69926 0.0
C3451 C 0.59967 0.00139 0.7221 0.0
C3452 C 0.59575 0.00892 0.73737 0.0
C3453 C 0.61715 0.01076 0.71429 0.0
C3454 C 0.60969 0.02575 0.74501 0.0
C3455 C 0.62697 0.03525 0.73716 0.0
loop_
_geom_bond_atom_site_label_1
_geom_bond_atom_site_label_2
_geom_bond_distance
_geom_bond_site_symmetry_2
_ccdc_geom_bond_type
Zn0 O3 2.031 1_554 S
Zn0 O5 2.049 . S
Zn0 O10 2.067 1_554 S
Zn1 O2 1.962 1_455 S
Zn1 O4 1.986 . S
Zn1 O6 1.996 1_455 S
Zn1 O9 1.943 1_554 S
O2 Zn1 1.962 1_655 S
O2 C7 1.254 1_554 S
O3 Zn0 2.031 1_556 S
O3 C7 1.269 . S
O4 Zn1 1.986 . S
O4 C11 1.262 . S
O5 Zn0 2.049 . S
O5 C13 1.260 . S
O6 Zn1 1.996 1_655 S
O6 C13 1.257 . S
C7 O2 1.254 1_556 S
C7 O3 1.269 . S
C8 O9 1.249 . S
C8 O10 1.270 1_455 S
O9 Zn1 1.943 1_556 S
O9 C8 1.249 . S
O10 Zn0 2.067 1_556 S
O10 C8 1.270 1_655 S
C11 O4 1.262 . S
C11 O12 1.232 . S
O12 C11 1.232 . S
C13 O5 1.260 . S
C13 O6 1.257 . S
Zn14 O17 2.031 1_554 S
Zn14 O19 2.049 . S
Zn14 O24 2.067 1_554 S
Zn15 O16 1.962 . S
Zn15 O18 1.986 . S
Zn15 O20 1.996 . S
Zn15 O23 1.943 . S
O16 Zn15 1.962 . S
O16 C21 1.254 . S
O17 Zn14 2.031 1_556 S
O17 C21 1.269 1_556 S
O18 Zn15 1.986 . S
O18 C25 1.262 . S
O19 Zn14 2.049 . S
O19 C27 1.260 . S
O20 Zn15 1.996 . S
O20 C27 1.257 . S
C21 O16 1.254 . S
C21 O17 1.269 1_554 S
C22 O23 1.249 1_556 S
C22 O24 1.270 . S
O23 Zn15 1.943 . S
O23 C22 1.249 1_554 S
O24 Zn14 2.067 1_556 S
O24 C22 1.270 . S
C25 O18 1.262 . S
C25 O26 1.232 . S
O26 C25 1.232 . S
C27 O19 1.260 . S
C27 O20 1.257 . S
Zn28 O31 2.031 . S
Zn28 O33 2.049 1_554 S
Zn28 O38 2.067 1_565 S
Zn29 O30 1.962 1_545 S
Zn29 O32 1.986 1_554 S
Zn29 O34 1.996 1_544 S
Zn29 O37 1.943 . S
O30 Zn29 1.962 1_565 S
O30 C35 1.254 . S
O31 Zn28 2.031 . S
O31 C35 1.269 . S
O32 Zn29 1.986 1_556 S
O32 C39 1.262 . S
O33 Zn28 2.049 1_556 S
O33 C41 1.260 . S
O34 Zn29 1.996 1_566 S
O34 C41 1.257 . S
C35 O30 1.254 . S
C35 O31 1.269 . S
C36 O37 1.249 . S
C36 O38 1.270 . S
O37 Zn29 1.943 . S
O37 C36 1.249 . S
O38 Zn28 2.067 1_545 S
O38 C36 1.270 . S
C39 O32 1.262 . S
C39 O40 1.232 1_556 S
O40 C39 1.232 1_554 S
C41 O33 1.260 . S
C41 O34 1.257 . S
Zn42 O45 2.031 . S
Zn42 O47 2.049 1_554 S
Zn42 O52 2.067 . S
Zn43 O44 1.962 1_655 S
Zn43 O46 1.986 1_554 S
Zn43 O48 1.996 1_654 S
Zn43 O51 1.943 . S
O44 Zn43 1.962 1_455 S
O44 C49 1.254 . S
O45 Zn42 2.031 . S
O45 C49 1.269 . S
O46 Zn43 1.986 1_556 S
O46 C53 1.262 . S
O47 Zn42 2.049 1_556 S
O47 C55 1.260 . S
O48 Zn43 1.996 1_456 S
O48 C55 1.257 . S
C49 O44 1.254 . S
C49 O45 1.269 . S
C50 O51 1.249 . S
C50 O52 1.270 1_655 S
O51 Zn43 1.943 . S
O51 C50 1.249 . S
O52 Zn42 2.067 . S
O52 C50 1.270 1_455 S
C53 O46 1.262 . S
C53 O54 1.232 1_556 S
O54 C53 1.232 1_554 S
C55 O47 1.260 . S
C55 O48 1.257 . S
Zn56 O59 2.031 . S
Zn56 O61 2.049 1_554 S
Zn56 O66 2.067 . S
Zn57 O58 1.962 1_556 S
Zn57 O60 1.986 . S
Zn57 O62 1.996 . S
Zn57 O65 1.943 1_556 S
O58 Zn57 1.962 1_554 S
O58 C63 1.254 . S
O59 Zn56 2.031 . S
O59 C63 1.269 . S
O60 Zn57 1.986 . S
O60 C67 1.262 . S
O61 Zn56 2.049 1_556 S
O61 C69 1.260 . S
O62 Zn57 1.996 . S
O62 C69 1.257 . S
C63 O58 1.254 . S
C63 O59 1.269 . S
C64 O65 1.249 . S
C64 O66 1.270 . S
O65 Zn57 1.943 1_554 S
O65 C64 1.249 . S
O66 Zn56 2.067 . S
O66 C64 1.270 . S
C67 O60 1.262 . S
C67 O68 1.232 1_556 S
O68 C67 1.232 1_554 S
C69 O61 1.260 . S
C69 O62 1.257 . S
Zn70 O73 2.031 1_554 S
Zn70 O75 2.049 . S
Zn70 O80 2.067 1_554 S
Zn71 O72 1.962 1_565 S
Zn71 O74 1.986 . S
Zn71 O76 1.996 1_565 S
Zn71 O79 1.943 . S
O72 Zn71 1.962 1_545 S
O72 C77 1.254 . S
O73 Zn70 2.031 1_556 S
O73 C77 1.269 1_556 S
O74 Zn71 1.986 . S
O74 C81 1.262 . S
O75 Zn70 2.049 . S
O75 C83 1.260 . S
O76 Zn71 1.996 1_545 S
O76 C83 1.257 . S
C77 O72 1.254 . S
C77 O73 1.269 1_554 S
C78 O79 1.249 1_556 S
C78 O80 1.270 1_565 S
O79 Zn71 1.943 . S
O79 C78 1.249 1_554 S
O80 Zn70 2.067 1_556 S
O80 C78 1.270 1_545 S
C81 O74 1.262 . S
C81 O82 1.232 . S
O82 C81 1.232 . S
C83 O75 1.260 . S
C83 O76 1.257 . S
Zn84 O87 2.031 . S
Zn84 O89 2.049 . S
Zn84 O94 2.067 . S
Zn85 O86 1.962 . S
Zn85 O88 1.986 . S
Zn85 O90 1.996 . S
Zn85 O93 1.943 . S
O86 Zn85 1.962 . S
O86 C91 1.254 . S
O87 Zn84 2.031 . S
O87 C91 1.269 . S
O88 Zn85 1.986 . S
O88 C95 1.262 . S
O89 Zn84 2.049 . S
O89 C97 1.260 . S
O90 Zn85 1.996 . S
O90 C97 1.257 . S
C91 O86 1.254 . S
C91 O87 1.269 . S
C92 O93 1.249 . S
C92 O94 1.270 . S
O93 Zn85 1.943 . S
O93 C92 1.249 . S
O94 Zn84 2.067 . S
O94 C92 1.270 . S
C95 O88 1.262 . S
C95 O96 1.232 . S
O96 C95 1.232 . S
C97 O89 1.260 . S
C97 O90 1.257 . S
Zn98 O101 2.031 . S
Zn98 O103 2.049 . S
Zn98 O108 2.067 . S
Zn99 O100 1.962 . S
Zn99 O102 1.986 1_565 S
Zn99 O104 1.996 . S
Zn99 O107 1.943 . S
O100 Zn99 1.962 . S
O100 C105 1.254 . S
O101 Zn98 2.031 . S
O101 C105 1.269 . S
O102 Zn99 1.986 1_545 S
O102 C109 1.262 . S
O103 Zn98 2.049 . S
O103 C111 1.260 . S
O104 Zn99 1.996 . S
O104 C111 1.257 . S
C105 O100 1.254 . S
C105 O101 1.269 . S
C106 O107 1.249 . S
C106 O108 1.270 . S
O107 Zn99 1.943 . S
O107 C106 1.249 . S
O108 Zn98 2.067 . S
O108 C106 1.270 . S
C109 O102 1.262 . S
C109 O110 1.232 . S
O110 C109 1.232 . S
C111 O103 1.260 . S
C111 O104 1.257 . S
Zn112 O115 2.031 . S
Zn112 O117 2.049 . S
Zn112 O122 2.067 . S
Zn113 O114 1.962 1_455 S
Zn113 O116 1.986 . S
Zn113 O118 1.996 . S
Zn113 O121 1.943 . S
O114 Zn113 1.962 1_655 S
O114 C119 1.254 . S
O115 Zn112 2.031 . S
O115 C119 1.269 1_455 S
O116 Zn113 1.986 . S
O116 C123 1.262 . S
O117 Zn112 2.049 . S
O117 C125 1.260 . S
O118 Zn113 1.996 . S
O118 C125 1.257 . S
C119 O114 1.254 . S
C119 O115 1.269 1_655 S
C120 O121 1.249 . S
C120 O122 1.270 . S
O121 Zn113 1.943 . S
O121 C120 1.249 . S
O122 Zn112 2.067 . S
O122 C120 1.270 . S
C123 O116 1.262 . S
C123 O124 1.232 . S
O124 C123 1.232 . S
C125 O117 1.260 . S
C125 O118 1.257 . S
Zn126 O129 2.031 . S
Zn126 O131 2.049 . S
Zn126 O136 2.067 . S
Zn127 O128 1.962 1_565 S
Zn127 O130 1.986 . S
Zn127 O132 1.996 . S
Zn127 O135 1.943 . S
O128 Zn127 1.962 1_545 S
O128 C133 1.254 . S
O129 Zn126 2.031 . S
O129 C133 1.269 1_565 S
O130 Zn127 1.986 . S
O130 C137 1.262 . S
O131 Zn126 2.049 . S
O131 C139 1.260 . S
O132 Zn127 1.996 . S
O132 C139 1.257 . S
C133 O128 1.254 . S
C133 O129 1.269 1_545 S
C134 O135 1.249 . S
C134 O136 1.270 . S
O135 Zn127 1.943 . S
O135 C134 1.249 . S
O136 Zn126 2.067 . S
O136 C134 1.270 . S
C137 O130 1.262 . S
C137 O138 1.232 . S
O138 C137 1.232 . S
C139 O131 1.260 . S
C139 O132 1.257 . S
Zn140 O143 2.031 . S
Zn140 O145 2.049 . S
Zn140 O150 2.067 . S
Zn141 O142 1.962 1_455 S
Zn141 O144 1.986 . S
Zn141 O146 1.996 . S
Zn141 O149 1.943 . S
O142 Zn141 1.962 1_655 S
O142 C147 1.254 . S
O143 Zn140 2.031 . S
O143 C147 1.269 1_455 S
O144 Zn141 1.986 . S
O144 C151 1.262 . S
O145 Zn140 2.049 . S
O145 C153 1.260 . S
O146 Zn141 1.996 . S
O146 C153 1.257 . S
C147 O142 1.254 . S
C147 O143 1.269 1_655 S
C148 O149 1.249 . S
C148 O150 1.270 . S
O149 Zn141 1.943 . S
O149 C148 1.249 . S
O150 Zn140 2.067 . S
O150 C148 1.270 . S
C151 O144 1.262 . S
C151 O152 1.232 . S
O152 C151 1.232 . S
C153 O145 1.260 . S
C153 O146 1.257 . S
Zn154 O157 2.031 . S
Zn154 O159 2.049 . S
Zn154 O164 2.067 . S
Zn155 O156 1.962 . S
Zn155 O158 1.986 . S
Zn155 O160 1.996 . S
Zn155 O163 1.943 . S
O156 Zn155 1.962 . S
O156 C161 1.254 . S
O157 Zn154 2.031 . S
O157 C161 1.269 . S
O158 Zn155 1.986 . S
O158 C165 1.262 . S
O159 Zn154 2.049 . S
O159 C167 1.260 . S
O160 Zn155 1.996 . S
O160 C167 1.257 . S
C161 O156 1.254 . S
C161 O157 1.269 . S
C162 O163 1.249 . S
C162 O164 1.270 . S
O163 Zn155 1.943 . S
O163 C162 1.249 . S
O164 Zn154 2.067 . S
O164 C162 1.270 . S
C165 O158 1.262 . S
C165 O166 1.232 . S
O166 C165 1.232 . S
C167 O159 1.260 . S
C167 O160 1.257 . S
Zn168 O171 2.031 . S
Zn168 O173 2.049 . S
Zn168 O178 2.067 . S
Zn169 O170 1.962 1_545 S
Zn169 O172 1.986 . S
Zn169 O174 1.996 . S
Zn169 O177 1.943 . S
O170 Zn169 1.962 1_565 S
O170 C175 1.254 . S
O171 Zn168 2.031 . S
O171 C175 1.269 1_545 S
O172 Zn169 1.986 . S
O172 C179 1.262 . S
O173 Zn168 2.049 . S
O173 C181 1.260 . S
O174 Zn169 1.996 . S
O174 C181 1.257 . S
C175 O170 1.254 . S
C175 O171 1.269 1_565 S
C176 O177 1.249 . S
C176 O178 1.270 . S
O177 Zn169 1.943 . S
O177 C176 1.249 . S
O178 Zn168 2.067 . S
O178 C176 1.270 . S
C179 O172 1.262 . S
C179 O180 1.232 . S
O180 C179 1.232 . S
C181 O173 1.260 . S
C181 O174 1.257 . S
Zn182 O185 2.031 . S
Zn182 O187 2.049 . S
Zn182 O192 2.067 . S
Zn183 O184 1.962 1_655 S
Zn183 O186 1.986 . S
Zn183 O188 1.996 . S
Zn183 O191 1.943 . S
O184 Zn183 1.962 1_455 S
O184 C189 1.254 . S
O185 Zn182 2.031 . S
O185 C189 1.270 1_655 S
O186 Zn183 1.986 . S
O186 C193 1.262 . S
O187 Zn182 2.049 . S
O187 C195 1.260 . S
O188 Zn183 1.996 . S
O188 C195 1.257 . S
C189 O184 1.254 . S
C189 O185 1.270 1_455 S
C190 O191 1.249 . S
C190 O192 1.270 . S
O191 Zn183 1.943 . S
O191 C190 1.249 . S
O192 Zn182 2.067 . S
O192 C190 1.270 . S
C193 O186 1.262 . S
C193 O194 1.232 . S
O194 C193 1.232 . S
C195 O187 1.260 . S
C195 O188 1.257 . S
Zn196 O199 2.031 . S
Zn196 O201 2.049 . S
Zn196 O206 2.067 . S
Zn197 O198 1.962 . S
Zn197 O200 1.986 . S
Zn197 O202 1.996 . S
Zn197 O205 1.943 . S
O198 Zn197 1.962 . S
O198 C203 1.254 . S
O199 Zn196 2.031 . S
O199 C203 1.269 . S
O200 Zn197 1.986 . S
O200 C207 1.262 . S
O201 Zn196 2.049 . S
O201 C209 1.260 . S
O202 Zn197 1.996 . S
O202 C209 1.257 . S
C203 O198 1.254 . S
C203 O199 1.269 . S
C204 O205 1.249 . S
C204 O206 1.270 . S
O205 Zn197 1.943 . S
O205 C204 1.249 . S
O206 Zn196 2.067 . S
O206 C204 1.270 . S
C207 O200 1.262 . S
C207 O208 1.232 . S
O208 C207 1.232 . S
C209 O201 1.260 . S
C209 O202 1.257 . S
Zn210 O213 2.031 . S
Zn210 O215 2.049 . S
Zn210 O220 2.067 . S
Zn211 O212 1.962 . S
Zn211 O214 1.986 . S
Zn211 O216 1.996 . S
Zn211 O219 1.943 . S
O212 Zn211 1.962 . S
O212 C217 1.254 . S
O213 Zn210 2.031 . S
O213 C217 1.269 . S
O214 Zn211 1.986 . S
O214 C221 1.262 . S
O215 Zn210 2.049 . S
O215 C223 1.260 . S
O216 Zn211 1.996 . S
O216 C223 1.257 . S
C217 O212 1.254 . S
C217 O213 1.269 . S
C218 O219 1.249 . S
C218 O220 1.270 . S
O219 Zn211 1.943 . S
O219 C218 1.249 . S
O220 Zn210 2.067 . S
O220 C218 1.270 . S
C221 O214 1.262 . S
C221 O222 1.232 . S
O222 C221 1.232 . S
C223 O215 1.260 . S
C223 O216 1.257 . S
Zn224 O227 2.031 . S
Zn224 O229 2.049 . S
Zn224 O234 2.067 . S
Zn225 O226 1.962 . S
Zn225 O228 1.986 1_545 S
Zn225 O230 1.996 . S
Zn225 O233 1.943 . S
O226 Zn225 1.962 . S
O226 C231 1.254 . S
O227 Zn224 2.031 . S
O227 C231 1.269 . S
O228 Zn225 1.986 1_565 S
O228 C235 1.262 . S
O229 Zn224 2.049 . S
O229 C237 1.260 . S
O230 Zn225 1.996 . S
O230 C237 1.257 . S
C231 O226 1.254 . S
C231 O227 1.269 . S
C232 O233 1.249 . S
C232 O234 1.270 . S
O233 Zn225 1.943 . S
O233 C232 1.249 . S
O234 Zn224 2.067 . S
O234 C232 1.270 . S
C235 O228 1.262 . S
C235 O236 1.232 . S
O236 C235 1.232 . S
C237 O229 1.260 . S
C237 O230 1.257 . S
Zn238 O241 2.031 . S
Zn238 O243 2.049 . S
Zn238 O248 2.067 . S
Zn239 O240 1.962 1_655 S
Zn239 O242 1.986 . S
Zn239 O244 1.996 . S
Zn239 O247 1.943 . S
O240 Zn239 1.962 1_455 S
O240 C245 1.254 . S
O241 Zn238 2.031 . S
O241 C245 1.269 1_655 S
O242 Zn239 1.986 . S
O242 C249 1.262 . S
O243 Zn238 2.049 . S
O243 C251 1.260 . S
O244 Zn239 1.996 . S
O244 C251 1.257 . S
C245 O240 1.254 . S
C245 O241 1.269 1_455 S
C246 O247 1.249 . S
C246 O248 1.270 . S
O247 Zn239 1.943 . S
O247 C246 1.249 . S
O248 Zn238 2.067 . S
O248 C246 1.270 . S
C249 O242 1.262 . S
C249 O250 1.232 . S
O250 C249 1.232 . S
C251 O243 1.260 . S
C251 O244 1.257 . S
C252 C253 1.560 . S
C252 H313 0.959 . S
C252 H314 0.959 . S
C252 H315 0.960 . S
C253 C252 1.560 . S
C253 O308 1.426 . S
C253 H312 0.980 . S
C254 C255 1.407 . S
C254 C259 1.418 . S
C254 O308 1.334 . S
C255 C254 1.407 . S
C255 C256 1.360 . S
C255 H316 0.929 . S
C256 C255 1.360 . S
C256 C257 1.401 . S
C256 C260 1.527 . S
C257 C256 1.401 . S
C257 C258 1.405 . S
C257 C290 1.587 . S
C258 C257 1.405 . S
C258 C259 1.332 . S
C258 C261 1.496 . S
C259 C254 1.418 . S
C259 C258 1.332 . S
C259 H317 0.929 . S
C260 C256 1.527 . S
C260 H318 0.959 . S
C260 H319 0.961 . S
C260 H320 0.961 . S
C261 C258 1.496 . S
C261 H321 0.960 . S
C261 H322 0.960 . S
C261 H323 0.961 . S
C262 C263 1.517 . S
C262 H325 0.961 . S
C262 H326 0.960 . S
C262 H327 0.959 . S
C263 C262 1.517 . S
C263 O311 1.468 . S
C263 H324 0.980 . S
C264 C265 1.349 . S
C264 C269 1.367 . S
C264 O311 1.408 . S
C265 C264 1.349 . S
C265 C266 1.407 . S
C265 H328 0.930 . S
C266 C265 1.407 . S
C266 C267 1.449 . S
C266 C270 1.535 . S
C267 C266 1.449 . S
C267 C268 1.384 . S
C267 C292 1.553 . S
C268 C267 1.384 . S
C268 C269 1.364 . S
C268 C271 1.450 . S
C269 C264 1.367 . S
C269 C268 1.364 . S
C269 H329 0.931 . S
C270 C266 1.535 . S
C270 H330 0.959 . S
C270 H331 0.961 . S
C270 H332 0.959 . S
C271 C268 1.450 . S
C271 H333 0.960 . S
C271 H334 0.960 . S
C271 H335 0.960 . S
C272 C273 1.309 . S
C272 C277 1.304 . S
C272 O310 1.435 . S
C273 C272 1.309 . S
C273 C274 1.476 . S
C273 H337 0.930 . S
C274 C273 1.476 . S
C274 C275 1.400 . S
C274 C278 1.567 . S
C275 C274 1.400 . S
C275 C276 1.373 . S
C275 C297 1.432 . S
C276 C275 1.373 . S
C276 C277 1.339 . S
C276 C279 1.530 . S
C277 C272 1.304 . S
C277 C276 1.339 . S
C277 H338 0.930 . S
C278 C274 1.567 . S
C278 H339 0.961 . S
C278 H340 0.960 . S
C278 H341 0.958 . S
C279 C276 1.530 . S
C279 H342 0.961 . S
C279 H343 0.960 . S
C279 H344 0.960 . S
C280 C281 1.530 . S
C280 H346 0.961 . S
C280 H347 0.961 . S
C280 H348 0.959 . S
C281 C280 1.530 . S
C281 O309 1.412 . S
C281 H345 0.980 . S
C282 C283 1.288 . S
C282 C287 1.377 . S
C282 O309 1.393 . S
C283 C282 1.288 . S
C283 C284 1.369 . S
C283 H349 0.932 . S
C284 C283 1.369 . S
C284 C285 1.398 . S
C284 C288 1.527 . S
C285 C284 1.398 . S
C285 C286 1.380 . S
C285 C299 1.497 . S
C286 C285 1.380 . S
C286 C287 1.383 . S
C286 C289 1.603 . S
C287 C282 1.377 . S
C287 C286 1.383 . S
C287 H350 0.929 . S
C288 C284 1.527 . S
C288 H351 0.961 . S
C288 H352 0.959 . S
C288 H353 0.959 . S
C289 C286 1.603 . S
C289 H354 0.960 . S
C289 H355 0.962 . S
C289 H356 0.961 . S
C290 C257 1.587 . S
C290 C291 1.360 . S
C290 C303 1.412 . S
C291 C290 1.360 . S
C291 C292 1.365 . S
C291 H357 0.929 . S
C292 C267 1.553 . S
C292 C291 1.365 . S
C292 C293 1.404 . S
C293 C292 1.404 . S
C293 C294 1.395 . S
C293 C304 1.451 . S
C294 C293 1.395 . S
C294 C295 1.322 . S
C294 H358 0.930 . S
C295 C294 1.322 . S
C295 C296 1.459 . S
C295 H359 0.929 . S
C296 C295 1.459 . S
C296 C297 1.445 . S
C296 C305 1.395 . S
C297 C275 1.432 . S
C297 C296 1.445 . S
C297 C298 1.370 . S
C298 C297 1.370 . S
C298 C299 1.438 . S
C298 H360 0.930 . S
C299 C285 1.497 . S
C299 C298 1.438 . S
C299 C300 1.360 . S
C300 C299 1.360 . S
C300 C301 1.401 . S
C300 C305 1.446 . S
C301 C300 1.401 . S
C301 C302 1.347 . S
C301 H361 0.929 . S
C302 C301 1.347 . S
C302 C303 1.455 . S
C302 H362 0.930 . S
C303 C290 1.412 . S
C303 C302 1.455 . S
C303 C304 1.331 . S
C304 C293 1.451 . S
C304 C303 1.331 . S
C304 C305 1.497 . S
C305 C296 1.395 . S
C305 C300 1.446 . S
C305 C304 1.497 . S
C306 C307 1.582 . S
C306 H363 0.962 . S
C306 H364 0.959 . S
C306 H365 0.958 . S
C307 C306 1.582 . S
C307 O310 1.458 . S
C307 H336 0.980 . S
O308 C253 1.426 . S
O308 C254 1.334 . S
O309 C281 1.412 . S
O309 C282 1.393 . S
O310 C272 1.435 . S
O310 C307 1.458 . S
O311 C263 1.468 . S
O311 C264 1.408 . S
H312 C253 0.980 . S
H313 C252 0.959 . S
H314 C252 0.959 . S
H315 C252 0.960 . S
H316 C255 0.929 . S
H317 C259 0.929 . S
H318 C260 0.959 . S
H319 C260 0.961 . S
H320 C260 0.961 . S
H321 C261 0.960 . S
H322 C261 0.960 . S
H323 C261 0.961 . S
H324 C263 0.980 . S
H325 C262 0.961 . S
H326 C262 0.960 . S
H327 C262 0.959 . S
H328 C265 0.930 . S
H329 C269 0.931 . S
H330 C270 0.959 . S
H331 C270 0.961 . S
H332 C270 0.959 . S
H333 C271 0.960 . S
H334 C271 0.960 . S
H335 C271 0.960 . S
H336 C307 0.980 . S
H337 C273 0.930 . S
H338 C277 0.930 . S
H339 C278 0.961 . S
H340 C278 0.960 . S
H341 C278 0.958 . S
H342 C279 0.961 . S
H343 C279 0.960 . S
H344 C279 0.960 . S
H345 C281 0.980 . S
H346 C280 0.961 . S
H347 C280 0.961 . S
H348 C280 0.959 . S
H349 C283 0.932 . S
H350 C287 0.929 . S
H351 C288 0.961 . S
H352 C288 0.959 . S
H353 C288 0.959 . S
H354 C289 0.960 . S
H355 C289 0.962 . S
H356 C289 0.961 . S
H357 C291 0.929 . S
H358 C294 0.930 . S
H359 C295 0.929 . S
H360 C298 0.930 . S
H361 C301 0.929 . S
H362 C302 0.930 . S
H363 C306 0.962 . S
H364 C306 0.959 . S
H365 C306 0.958 . S
C366 C367 1.560 . S
C366 H427 0.959 . S
C366 H428 0.959 . S
C366 H429 0.960 . S
C367 C366 1.560 . S
C367 O422 1.426 . S
C367 H426 0.980 . S
C368 C369 1.407 . S
C368 C373 1.418 . S
C368 O422 1.334 . S
C369 C368 1.407 . S
C369 C370 1.360 . S
C369 H430 0.929 . S
C370 C369 1.360 . S
C370 C371 1.401 . S
C370 C374 1.527 . S
C371 C370 1.401 . S
C371 C372 1.405 . S
C371 C404 1.587 . S
C372 C371 1.405 . S
C372 C373 1.332 . S
C372 C375 1.496 . S
C373 C368 1.418 . S
C373 C372 1.332 . S
C373 H431 0.929 . S
C374 C370 1.527 . S
C374 H432 0.959 . S
C374 H433 0.961 . S
C374 H434 0.961 . S
C375 C372 1.496 . S
C375 H435 0.960 . S
C375 H436 0.960 . S
C375 H437 0.961 . S
C376 C377 1.517 . S
C376 H439 0.961 . S
C376 H440 0.960 . S
C376 H441 0.959 . S
C377 C376 1.517 . S
C377 O425 1.468 . S
C377 H438 0.980 . S
C378 C379 1.349 . S
C378 C383 1.367 . S
C378 O425 1.408 . S
C379 C378 1.349 . S
C379 C380 1.407 . S
C379 H442 0.930 . S
C380 C379 1.407 . S
C380 C381 1.449 . S
C380 C384 1.535 . S
C381 C380 1.449 . S
C381 C382 1.384 . S
C381 C406 1.553 . S
C382 C381 1.384 . S
C382 C383 1.364 . S
C382 C385 1.450 . S
C383 C378 1.367 . S
C383 C382 1.364 . S
C383 H443 0.931 . S
C384 C380 1.535 . S
C384 H444 0.959 . S
C384 H445 0.961 . S
C384 H446 0.959 . S
C385 C382 1.450 . S
C385 H447 0.960 . S
C385 H448 0.960 . S
C385 H449 0.960 . S
C386 C387 1.309 . S
C386 C391 1.304 . S
C386 O424 1.435 . S
C387 C386 1.309 . S
C387 C388 1.476 . S
C387 H451 0.930 . S
C388 C387 1.476 . S
C388 C389 1.400 . S
C388 C392 1.567 . S
C389 C388 1.400 . S
C389 C390 1.373 . S
C389 C411 1.432 . S
C390 C389 1.373 . S
C390 C391 1.339 . S
C390 C393 1.530 . S
C391 C386 1.304 . S
C391 C390 1.339 . S
C391 H452 0.930 . S
C392 C388 1.567 . S
C392 H453 0.961 . S
C392 H454 0.960 . S
C392 H455 0.958 . S
C393 C390 1.530 . S
C393 H456 0.961 . S
C393 H457 0.960 . S
C393 H458 0.960 . S
C394 C395 1.530 . S
C394 H460 0.961 . S
C394 H461 0.961 . S
C394 H462 0.959 . S
C395 C394 1.530 . S
C395 O423 1.412 . S
C395 H459 0.980 . S
C396 C397 1.288 . S
C396 C401 1.377 . S
C396 O423 1.393 . S
C397 C396 1.288 . S
C397 C398 1.369 . S
C397 H463 0.932 . S
C398 C397 1.369 . S
C398 C399 1.398 . S
C398 C402 1.527 . S
C399 C398 1.398 . S
C399 C400 1.380 . S
C399 C413 1.497 . S
C400 C399 1.380 . S
C400 C401 1.383 . S
C400 C403 1.603 . S
C401 C396 1.377 . S
C401 C400 1.383 . S
C401 H464 0.929 . S
C402 C398 1.527 . S
C402 H465 0.961 . S
C402 H466 0.959 . S
C402 H467 0.959 . S
C403 C400 1.603 . S
C403 H468 0.960 . S
C403 H469 0.962 . S
C403 H470 0.961 . S
C404 C371 1.587 . S
C404 C405 1.360 . S
C404 C417 1.412 . S
C405 C404 1.360 . S
C405 C406 1.365 . S
C405 H471 0.929 . S
C406 C381 1.553 . S
C406 C405 1.365 . S
C406 C407 1.404 . S
C407 C406 1.404 . S
C407 C408 1.395 . S
C407 C418 1.451 . S
C408 C407 1.395 . S
C408 C409 1.322 . S
C408 H472 0.930 . S
C409 C408 1.322 . S
C409 C410 1.459 . S
C409 H473 0.929 . S
C410 C409 1.459 . S
C410 C411 1.445 . S
C410 C419 1.395 . S
C411 C389 1.432 . S
C411 C410 1.445 . S
C411 C412 1.370 . S
C412 C411 1.370 . S
C412 C413 1.438 . S
C412 H474 0.930 . S
C413 C399 1.497 . S
C413 C412 1.438 . S
C413 C414 1.360 . S
C414 C413 1.360 . S
C414 C415 1.401 . S
C414 C419 1.446 . S
C415 C414 1.401 . S
C415 C416 1.347 . S
C415 H475 0.929 . S
C416 C415 1.347 . S
C416 C417 1.455 . S
C416 H476 0.930 . S
C417 C404 1.412 . S
C417 C416 1.455 . S
C417 C418 1.331 . S
C418 C407 1.451 . S
C418 C417 1.331 . S
C418 C419 1.497 . S
C419 C410 1.395 . S
C419 C414 1.446 . S
C419 C418 1.497 . S
C420 C421 1.582 . S
C420 H477 0.962 . S
C420 H478 0.959 . S
C420 H479 0.958 . S
C421 C420 1.582 . S
C421 O424 1.458 . S
C421 H450 0.980 . S
O422 C367 1.426 . S
O422 C368 1.334 . S
O423 C395 1.412 . S
O423 C396 1.393 . S
O424 C386 1.435 . S
O424 C421 1.458 . S
O425 C377 1.468 . S
O425 C378 1.408 . S
H426 C367 0.980 . S
H427 C366 0.959 . S
H428 C366 0.959 . S
H429 C366 0.960 . S
H430 C369 0.929 . S
H431 C373 0.929 . S
H432 C374 0.959 . S
H433 C374 0.961 . S
H434 C374 0.961 . S
H435 C375 0.960 . S
H436 C375 0.960 . S
H437 C375 0.961 . S
H438 C377 0.980 . S
H439 C376 0.961 . S
H440 C376 0.960 . S
H441 C376 0.959 . S
H442 C379 0.930 . S
H443 C383 0.931 . S
H444 C384 0.959 . S
H445 C384 0.961 . S
H446 C384 0.959 . S
H447 C385 0.960 . S
H448 C385 0.960 . S
H449 C385 0.960 . S
H450 C421 0.980 . S
H451 C387 0.930 . S
H452 C391 0.930 . S
H453 C392 0.961 . S
H454 C392 0.960 . S
H455 C392 0.958 . S
H456 C393 0.961 . S
H457 C393 0.960 . S
H458 C393 0.960 . S
H459 C395 0.980 . S
H460 C394 0.961 . S
H461 C394 0.961 . S
H462 C394 0.959 . S
H463 C397 0.932 . S
H464 C401 0.929 . S
H465 C402 0.961 . S
H466 C402 0.959 . S
H467 C402 0.959 . S
H468 C403 0.960 . S
H469 C403 0.962 . S
H470 C403 0.961 . S
H471 C405 0.929 . S
H472 C408 0.930 . S
H473 C409 0.929 . S
H474 C412 0.930 . S
H475 C415 0.929 . S
H476 C416 0.930 . S
H477 C420 0.962 . S
H478 C420 0.959 . S
H479 C420 0.958 . S
C480 C481 1.560 . S
C480 H541 0.959 . S
C480 H542 0.959 . S
C480 H543 0.960 . S
C481 C480 1.560 . S
C481 O536 1.426 . S
C481 H540 0.980 . S
C482 C483 1.407 . S
C482 C487 1.418 . S
C482 O536 1.334 . S
C483 C482 1.407 . S
C483 C484 1.360 . S
C483 H544 0.929 . S
C484 C483 1.360 . S
C484 C485 1.401 . S
C484 C488 1.527 . S
C485 C484 1.401 . S
C485 C486 1.405 . S
C485 C518 1.587 . S
C486 C485 1.405 . S
C486 C487 1.332 . S
C486 C489 1.496 . S
C487 C482 1.418 . S
C487 C486 1.332 . S
C487 H545 0.929 . S
C488 C484 1.527 . S
C488 H546 0.959 . S
C488 H547 0.961 . S
C488 H548 0.961 . S
C489 C486 1.496 . S
C489 H549 0.960 . S
C489 H550 0.960 . S
C489 H551 0.961 . S
C490 C491 1.517 . S
C490 H553 0.961 . S
C490 H554 0.960 . S
C490 H555 0.959 . S
C491 C490 1.517 . S
C491 O539 1.468 . S
C491 H552 0.980 . S
C492 C493 1.349 . S
C492 C497 1.367 . S
C492 O539 1.408 . S
C493 C492 1.349 . S
C493 C494 1.407 . S
C493 H556 0.930 . S
C494 C493 1.407 . S
C494 C495 1.449 . S
C494 C498 1.535 . S
C495 C494 1.449 . S
C495 C496 1.384 . S
C495 C520 1.553 . S
C496 C495 1.384 . S
C496 C497 1.364 . S
C496 C499 1.450 . S
C497 C492 1.367 . S
C497 C496 1.364 . S
C497 H557 0.931 . S
C498 C494 1.535 . S
C498 H558 0.959 . S
C498 H559 0.961 . S
C498 H560 0.959 . S
C499 C496 1.450 . S
C499 H561 0.960 . S
C499 H562 0.960 . S
C499 H563 0.960 . S
C500 C501 1.309 . S
C500 C505 1.304 . S
C500 O538 1.435 . S
C501 C500 1.309 . S
C501 C502 1.476 . S
C501 H565 0.930 . S
C502 C501 1.476 . S
C502 C503 1.400 . S
C502 C506 1.567 . S
C503 C502 1.400 . S
C503 C504 1.373 . S
C503 C525 1.432 . S
C504 C503 1.373 . S
C504 C505 1.339 . S
C504 C507 1.530 . S
C505 C500 1.304 . S
C505 C504 1.339 . S
C505 H566 0.930 . S
C506 C502 1.567 . S
C506 H567 0.961 . S
C506 H568 0.960 . S
C506 H569 0.958 . S
C507 C504 1.530 . S
C507 H570 0.961 . S
C507 H571 0.960 . S
C507 H572 0.960 . S
C508 C509 1.530 . S
C508 H574 0.961 . S
C508 H575 0.961 . S
C508 H576 0.959 . S
C509 C508 1.530 . S
C509 O537 1.412 . S
C509 H573 0.980 . S
C510 C511 1.288 . S
C510 C515 1.377 . S
C510 O537 1.393 . S
C511 C510 1.288 . S
C511 C512 1.369 . S
C511 H577 0.932 . S
C512 C511 1.369 . S
C512 C513 1.398 . S
C512 C516 1.527 . S
C513 C512 1.398 . S
C513 C514 1.380 . S
C513 C527 1.497 . S
C514 C513 1.380 . S
C514 C515 1.383 . S
C514 C517 1.603 . S
C515 C510 1.377 . S
C515 C514 1.383 . S
C515 H578 0.929 . S
C516 C512 1.527 . S
C516 H579 0.961 . S
C516 H580 0.959 . S
C516 H581 0.959 . S
C517 C514 1.603 . S
C517 H582 0.960 . S
C517 H583 0.962 . S
C517 H584 0.961 . S
C518 C485 1.587 . S
C518 C519 1.360 . S
C518 C531 1.412 . S
C519 C518 1.360 . S
C519 C520 1.365 . S
C519 H585 0.929 . S
C520 C495 1.553 . S
C520 C519 1.365 . S
C520 C521 1.404 . S
C521 C520 1.404 . S
C521 C522 1.395 . S
C521 C532 1.451 . S
C522 C521 1.395 . S
C522 C523 1.322 . S
C522 H586 0.930 . S
C523 C522 1.322 . S
C523 C524 1.459 . S
C523 H587 0.929 . S
C524 C523 1.459 . S
C524 C525 1.445 . S
C524 C533 1.395 . S
C525 C503 1.432 . S
C525 C524 1.445 . S
C525 C526 1.370 . S
C526 C525 1.370 . S
C526 C527 1.438 . S
C526 H588 0.930 . S
C527 C513 1.497 . S
C527 C526 1.438 . S
C527 C528 1.360 . S
C528 C527 1.360 . S
C528 C529 1.401 . S
C528 C533 1.446 . S
C529 C528 1.401 . S
C529 C530 1.347 . S
C529 H589 0.929 . S
C530 C529 1.347 . S
C530 C531 1.455 . S
C530 H590 0.930 . S
C531 C518 1.412 . S
C531 C530 1.455 . S
C531 C532 1.331 . S
C532 C521 1.451 . S
C532 C531 1.331 . S
C532 C533 1.497 . S
C533 C524 1.395 . S
C533 C528 1.446 . S
C533 C532 1.497 . S
C534 C535 1.582 . S
C534 H591 0.962 . S
C534 H592 0.959 . S
C534 H593 0.958 . S
C535 C534 1.582 . S
C535 O538 1.458 . S
C535 H564 0.980 . S
O536 C481 1.426 . S
O536 C482 1.334 . S
O537 C509 1.412 . S
O537 C510 1.393 . S
O538 C500 1.435 . S
O538 C535 1.458 . S
O539 C491 1.468 . S
O539 C492 1.408 . S
H540 C481 0.980 . S
H541 C480 0.959 . S
H542 C480 0.959 . S
H543 C480 0.960 . S
H544 C483 0.929 . S
H545 C487 0.929 . S
H546 C488 0.959 . S
H547 C488 0.961 . S
H548 C488 0.961 . S
H549 C489 0.960 . S
H550 C489 0.960 . S
H551 C489 0.961 . S
H552 C491 0.980 . S
H553 C490 0.961 . S
H554 C490 0.960 . S
H555 C490 0.959 . S
H556 C493 0.930 . S
H557 C497 0.931 . S
H558 C498 0.959 . S
H559 C498 0.961 . S
H560 C498 0.959 . S
H561 C499 0.960 . S
H562 C499 0.960 . S
H563 C499 0.960 . S
H564 C535 0.980 . S
H565 C501 0.930 . S
H566 C505 0.930 . S
H567 C506 0.961 . S
H568 C506 0.960 . S
H569 C506 0.958 . S
H570 C507 0.961 . S
H571 C507 0.960 . S
H572 C507 0.960 . S
H573 C509 0.980 . S
H574 C508 0.961 . S
H575 C508 0.961 . S
H576 C508 0.959 . S
H577 C511 0.932 . S
H578 C515 0.929 . S
H579 C516 0.961 . S
H580 C516 0.959 . S
H581 C516 0.959 . S
H582 C517 0.960 . S
H583 C517 0.962 . S
H584 C517 0.961 . S
H585 C519 0.929 . S
H586 C522 0.930 . S
H587 C523 0.929 . S
H588 C526 0.930 . S
H589 C529 0.929 . S
H590 C530 0.930 . S
H591 C534 0.962 . S
H592 C534 0.959 . S
H593 C534 0.958 . S
C594 C595 1.560 . S
C594 H655 0.959 . S
C594 H656 0.959 . S
C594 H657 0.960 . S
C595 C594 1.560 . S
C595 O650 1.426 . S
C595 H654 0.980 . S
C596 C597 1.407 . S
C596 C601 1.418 . S
C596 O650 1.334 . S
C597 C596 1.407 . S
C597 C598 1.360 . S
C597 H658 0.929 . S
C598 C597 1.360 . S
C598 C599 1.401 . S
C598 C602 1.527 . S
C599 C598 1.401 . S
C599 C600 1.405 . S
C599 C632 1.587 . S
C600 C599 1.405 . S
C600 C601 1.332 . S
C600 C603 1.496 . S
C601 C596 1.418 . S
C601 C600 1.332 . S
C601 H659 0.929 . S
C602 C598 1.527 . S
C602 H660 0.959 . S
C602 H661 0.961 . S
C602 H662 0.961 . S
C603 C600 1.496 . S
C603 H663 0.960 . S
C603 H664 0.960 . S
C603 H665 0.961 . S
C604 C605 1.517 . S
C604 H667 0.961 . S
C604 H668 0.960 . S
C604 H669 0.959 . S
C605 C604 1.517 . S
C605 O653 1.468 . S
C605 H666 0.980 . S
C606 C607 1.349 . S
C606 C611 1.367 . S
C606 O653 1.408 . S
C607 C606 1.349 . S
C607 C608 1.407 . S
C607 H670 0.930 . S
C608 C607 1.407 . S
C608 C609 1.449 . S
C608 C612 1.535 . S
C609 C608 1.449 . S
C609 C610 1.384 . S
C609 C634 1.553 . S
C610 C609 1.384 . S
C610 C611 1.364 . S
C610 C613 1.450 . S
C611 C606 1.367 . S
C611 C610 1.364 . S
C611 H671 0.931 . S
C612 C608 1.535 . S
C612 H672 0.959 . S
C612 H673 0.961 . S
C612 H674 0.959 . S
C613 C610 1.450 . S
C613 H675 0.960 . S
C613 H676 0.960 . S
C613 H677 0.960 . S
C614 C615 1.309 . S
C614 C619 1.304 . S
C614 O652 1.435 . S
C615 C614 1.309 . S
C615 C616 1.476 . S
C615 H679 0.930 . S
C616 C615 1.476 . S
C616 C617 1.400 . S
C616 C620 1.567 . S
C617 C616 1.400 . S
C617 C618 1.373 . S
C617 C639 1.432 . S
C618 C617 1.373 . S
C618 C619 1.339 . S
C618 C621 1.530 . S
C619 C614 1.304 . S
C619 C618 1.339 . S
C619 H680 0.930 . S
C620 C616 1.567 . S
C620 H681 0.961 . S
C620 H682 0.960 . S
C620 H683 0.958 . S
C621 C618 1.530 . S
C621 H684 0.961 . S
C621 H685 0.960 . S
C621 H686 0.960 . S
C622 C623 1.530 . S
C622 H688 0.961 . S
C622 H689 0.961 . S
C622 H690 0.959 . S
C623 C622 1.530 . S
C623 O651 1.412 . S
C623 H687 0.980 . S
C624 C625 1.288 . S
C624 C629 1.377 . S
C624 O651 1.393 . S
C625 C624 1.288 . S
C625 C626 1.369 . S
C625 H691 0.932 . S
C626 C625 1.369 . S
C626 C627 1.398 . S
C626 C630 1.527 . S
C627 C626 1.398 . S
C627 C628 1.380 . S
C627 C641 1.497 . S
C628 C627 1.380 . S
C628 C629 1.383 . S
C628 C631 1.603 . S
C629 C624 1.377 . S
C629 C628 1.383 . S
C629 H692 0.929 . S
C630 C626 1.527 . S
C630 H693 0.961 . S
C630 H694 0.959 . S
C630 H695 0.959 . S
C631 C628 1.603 . S
C631 H696 0.960 . S
C631 H697 0.962 . S
C631 H698 0.961 . S
C632 C599 1.587 . S
C632 C633 1.360 . S
C632 C645 1.412 . S
C633 C632 1.360 . S
C633 C634 1.365 . S
C633 H699 0.929 . S
C634 C609 1.553 . S
C634 C633 1.365 . S
C634 C635 1.404 . S
C635 C634 1.404 . S
C635 C636 1.395 . S
C635 C646 1.451 . S
C636 C635 1.395 . S
C636 C637 1.322 . S
C636 H700 0.930 . S
C637 C636 1.322 . S
C637 C638 1.459 . S
C637 H701 0.929 . S
C638 C637 1.459 . S
C638 C639 1.445 . S
C638 C647 1.395 . S
C639 C617 1.432 . S
C639 C638 1.445 . S
C639 C640 1.370 . S
C640 C639 1.370 . S
C640 C641 1.438 . S
C640 H702 0.930 . S
C641 C627 1.497 . S
C641 C640 1.438 . S
C641 C642 1.360 . S
C642 C641 1.360 . S
C642 C643 1.401 . S
C642 C647 1.446 . S
C643 C642 1.401 . S
C643 C644 1.347 . S
C643 H703 0.929 . S
C644 C643 1.347 . S
C644 C645 1.455 . S
C644 H704 0.930 . S
C645 C632 1.412 . S
C645 C644 1.455 . S
C645 C646 1.331 . S
C646 C635 1.451 . S
C646 C645 1.331 . S
C646 C647 1.497 . S
C647 C638 1.395 . S
C647 C642 1.446 . S
C647 C646 1.497 . S
C648 C649 1.582 . S
C648 H705 0.962 . S
C648 H706 0.959 . S
C648 H707 0.958 . S
C649 C648 1.582 . S
C649 O652 1.458 . S
C649 H678 0.980 . S
O650 C595 1.426 . S
O650 C596 1.334 . S
O651 C623 1.412 . S
O651 C624 1.393 . S
O652 C614 1.435 . S
O652 C649 1.458 . S
O653 C605 1.468 . S
O653 C606 1.408 . S
H654 C595 0.980 . S
H655 C594 0.959 . S
H656 C594 0.959 . S
H657 C594 0.960 . S
H658 C597 0.929 . S
H659 C601 0.929 . S
H660 C602 0.959 . S
H661 C602 0.961 . S
H662 C602 0.961 . S
H663 C603 0.960 . S
H664 C603 0.960 . S
H665 C603 0.961 . S
H666 C605 0.980 . S
H667 C604 0.961 . S
H668 C604 0.960 . S
H669 C604 0.959 . S
H670 C607 0.930 . S
H671 C611 0.931 . S
H672 C612 0.959 . S
H673 C612 0.961 . S
H674 C612 0.959 . S
H675 C613 0.960 . S
H676 C613 0.960 . S
H677 C613 0.960 . S
H678 C649 0.980 . S
H679 C615 0.930 . S
H680 C619 0.930 . S
H681 C620 0.961 . S
H682 C620 0.960 . S
H683 C620 0.958 . S
H684 C621 0.961 . S
H685 C621 0.960 . S
H686 C621 0.960 . S
H687 C623 0.980 . S
H688 C622 0.961 . S
H689 C622 0.961 . S
H690 C622 0.959 . S
H691 C625 0.932 . S
H692 C629 0.929 . S
H693 C630 0.961 . S
H694 C630 0.959 . S
H695 C630 0.959 . S
H696 C631 0.960 . S
H697 C631 0.962 . S
H698 C631 0.961 . S
H699 C633 0.929 . S
H700 C636 0.930 . S
H701 C637 0.929 . S
H702 C640 0.930 . S
H703 C643 0.929 . S
H704 C644 0.930 . S
H705 C648 0.962 . S
H706 C648 0.959 . S
H707 C648 0.958 . S
C708 C709 1.560 . S
C708 H769 0.959 . S
C708 H770 0.959 . S
C708 H771 0.960 . S
C709 C708 1.560 . S
C709 O764 1.426 . S
C709 H768 0.980 . S
C710 C711 1.407 . S
C710 C715 1.418 . S
C710 O764 1.334 . S
C711 C710 1.407 . S
C711 C712 1.360 . S
C711 H772 0.929 . S
C712 C711 1.360 . S
C712 C713 1.401 . S
C712 C716 1.527 . S
C713 C712 1.401 . S
C713 C714 1.405 . S
C713 C746 1.587 . S
C714 C713 1.405 . S
C714 C715 1.332 . S
C714 C717 1.496 . S
C715 C710 1.418 . S
C715 C714 1.332 . S
C715 H773 0.929 . S
C716 C712 1.527 . S
C716 H774 0.959 . S
C716 H775 0.961 . S
C716 H776 0.961 . S
C717 C714 1.496 . S
C717 H777 0.960 . S
C717 H778 0.960 . S
C717 H779 0.961 . S
C718 C719 1.517 . S
C718 H781 0.961 . S
C718 H782 0.960 . S
C718 H783 0.959 . S
C719 C718 1.517 . S
C719 O767 1.468 . S
C719 H780 0.980 . S
C720 C721 1.349 . S
C720 C725 1.367 . S
C720 O767 1.408 . S
C721 C720 1.349 . S
C721 C722 1.407 . S
C721 H784 0.930 . S
C722 C721 1.407 . S
C722 C723 1.449 . S
C722 C726 1.535 . S
C723 C722 1.449 . S
C723 C724 1.384 . S
C723 C748 1.553 . S
C724 C723 1.384 . S
C724 C725 1.364 . S
C724 C727 1.450 . S
C725 C720 1.367 . S
C725 C724 1.364 . S
C725 H785 0.931 . S
C726 C722 1.535 . S
C726 H786 0.959 . S
C726 H787 0.961 . S
C726 H788 0.959 . S
C727 C724 1.450 . S
C727 H789 0.960 . S
C727 H790 0.960 . S
C727 H791 0.960 . S
C728 C729 1.309 . S
C728 C733 1.304 . S
C728 O766 1.435 . S
C729 C728 1.309 . S
C729 C730 1.476 . S
C729 H793 0.930 . S
C730 C729 1.476 . S
C730 C731 1.400 . S
C730 C734 1.567 . S
C731 C730 1.400 . S
C731 C732 1.373 . S
C731 C753 1.432 . S
C732 C731 1.373 . S
C732 C733 1.339 . S
C732 C735 1.530 . S
C733 C728 1.304 . S
C733 C732 1.339 . S
C733 H794 0.930 . S
C734 C730 1.567 . S
C734 H795 0.961 . S
C734 H796 0.960 . S
C734 H797 0.958 . S
C735 C732 1.530 . S
C735 H798 0.961 . S
C735 H799 0.960 . S
C735 H800 0.960 . S
C736 C737 1.530 . S
C736 H802 0.961 . S
C736 H803 0.961 . S
C736 H804 0.959 . S
C737 C736 1.530 . S
C737 O765 1.412 . S
C737 H801 0.980 . S
C738 C739 1.288 . S
C738 C743 1.377 . S
C738 O765 1.393 . S
C739 C738 1.288 . S
C739 C740 1.369 . S
C739 H805 0.932 . S
C740 C739 1.369 . S
C740 C741 1.398 . S
C740 C744 1.527 . S
C741 C740 1.398 . S
C741 C742 1.380 . S
C741 C755 1.497 . S
C742 C741 1.380 . S
C742 C743 1.383 . S
C742 C745 1.603 . S
C743 C738 1.377 . S
C743 C742 1.383 . S
C743 H806 0.929 . S
C744 C740 1.527 . S
C744 H807 0.961 . S
C744 H808 0.959 . S
C744 H809 0.959 . S
C745 C742 1.603 . S
C745 H810 0.960 . S
C745 H811 0.962 . S
C745 H812 0.961 . S
C746 C713 1.587 . S
C746 C747 1.360 . S
C746 C759 1.412 . S
C747 C746 1.360 . S
C747 C748 1.365 . S
C747 H813 0.929 . S
C748 C723 1.553 . S
C748 C747 1.365 . S
C748 C749 1.404 . S
C749 C748 1.404 . S
C749 C750 1.395 . S
C749 C760 1.451 . S
C750 C749 1.395 . S
C750 C751 1.322 . S
C750 H814 0.930 . S
C751 C750 1.322 . S
C751 C752 1.459 . S
C751 H815 0.929 . S
C752 C751 1.459 . S
C752 C753 1.445 . S
C752 C761 1.395 . S
C753 C731 1.432 . S
C753 C752 1.445 . S
C753 C754 1.370 . S
C754 C753 1.370 . S
C754 C755 1.438 . S
C754 H816 0.930 . S
C755 C741 1.497 . S
C755 C754 1.438 . S
C755 C756 1.360 . S
C756 C755 1.360 . S
C756 C757 1.401 . S
C756 C761 1.446 . S
C757 C756 1.401 . S
C757 C758 1.347 . S
C757 H817 0.929 . S
C758 C757 1.347 . S
C758 C759 1.455 . S
C758 H818 0.930 . S
C759 C746 1.412 . S
C759 C758 1.455 . S
C759 C760 1.331 . S
C760 C749 1.451 . S
C760 C759 1.331 . S
C760 C761 1.497 . S
C761 C752 1.395 . S
C761 C756 1.446 . S
C761 C760 1.497 . S
C762 C763 1.582 . S
C762 H819 0.962 . S
C762 H820 0.959 . S
C762 H821 0.958 . S
C763 C762 1.582 . S
C763 O766 1.458 . S
C763 H792 0.980 . S
O764 C709 1.426 . S
O764 C710 1.334 . S
O765 C737 1.412 . S
O765 C738 1.393 . S
O766 C728 1.435 . S
O766 C763 1.458 . S
O767 C719 1.468 . S
O767 C720 1.408 . S
H768 C709 0.980 . S
H769 C708 0.959 . S
H770 C708 0.959 . S
H771 C708 0.960 . S
H772 C711 0.929 . S
H773 C715 0.929 . S
H774 C716 0.959 . S
H775 C716 0.961 . S
H776 C716 0.961 . S
H777 C717 0.960 . S
H778 C717 0.960 . S
H779 C717 0.961 . S
H780 C719 0.980 . S
H781 C718 0.961 . S
H782 C718 0.960 . S
H783 C718 0.959 . S
H784 C721 0.930 . S
H785 C725 0.931 . S
H786 C726 0.959 . S
H787 C726 0.961 . S
H788 C726 0.959 . S
H789 C727 0.960 . S
H790 C727 0.960 . S
H791 C727 0.960 . S
H792 C763 0.980 . S
H793 C729 0.930 . S
H794 C733 0.930 . S
H795 C734 0.961 . S
H796 C734 0.960 . S
H797 C734 0.958 . S
H798 C735 0.961 . S
H799 C735 0.960 . S
H800 C735 0.960 . S
H801 C737 0.980 . S
H802 C736 0.961 . S
H803 C736 0.961 . S
H804 C736 0.959 . S
H805 C739 0.932 . S
H806 C743 0.929 . S
H807 C744 0.961 . S
H808 C744 0.959 . S
H809 C744 0.959 . S
H810 C745 0.960 . S
H811 C745 0.962 . S
H812 C745 0.961 . S
H813 C747 0.929 . S
H814 C750 0.930 . S
H815 C751 0.929 . S
H816 C754 0.930 . S
H817 C757 0.929 . S
H818 C758 0.930 . S
H819 C762 0.962 . S
H820 C762 0.959 . S
H821 C762 0.958 . S
C822 C823 1.560 . S
C822 H883 0.959 . S
C822 H884 0.959 . S
C822 H885 0.960 . S
C823 C822 1.560 . S
C823 O878 1.426 . S
C823 H882 0.980 . S
C824 C825 1.407 . S
C824 C829 1.418 . S
C824 O878 1.334 . S
C825 C824 1.407 . S
C825 C826 1.360 . S
C825 H886 0.929 . S
C826 C825 1.360 . S
C826 C827 1.401 . S
C826 C830 1.527 . S
C827 C826 1.401 . S
C827 C828 1.405 . S
C827 C860 1.587 . S
C828 C827 1.405 . S
C828 C829 1.332 . S
C828 C831 1.496 . S
C829 C824 1.418 . S
C829 C828 1.332 . S
C829 H887 0.929 . S
C830 C826 1.527 . S
C830 H888 0.959 . S
C830 H889 0.961 . S
C830 H890 0.961 . S
C831 C828 1.496 . S
C831 H891 0.960 . S
C831 H892 0.960 . S
C831 H893 0.961 . S
C832 C833 1.517 . S
C832 H895 0.961 . S
C832 H896 0.960 . S
C832 H897 0.959 . S
C833 C832 1.517 . S
C833 O881 1.468 . S
C833 H894 0.980 . S
C834 C835 1.349 . S
C834 C839 1.367 . S
C834 O881 1.408 . S
C835 C834 1.349 . S
C835 C836 1.407 . S
C835 H898 0.930 . S
C836 C835 1.407 . S
C836 C837 1.449 . S
C836 C840 1.535 . S
C837 C836 1.449 . S
C837 C838 1.384 . S
C837 C862 1.553 . S
C838 C837 1.384 . S
C838 C839 1.364 . S
C838 C841 1.450 . S
C839 C834 1.367 . S
C839 C838 1.364 . S
C839 H899 0.931 . S
C840 C836 1.535 . S
C840 H900 0.959 . S
C840 H901 0.961 . S
C840 H902 0.959 . S
C841 C838 1.450 . S
C841 H903 0.960 . S
C841 H904 0.960 . S
C841 H905 0.960 . S
C842 C843 1.309 . S
C842 C847 1.304 . S
C842 O880 1.435 . S
C843 C842 1.309 . S
C843 C844 1.476 . S
C843 H907 0.930 . S
C844 C843 1.476 . S
C844 C845 1.400 . S
C844 C848 1.567 . S
C845 C844 1.400 . S
C845 C846 1.373 . S
C845 C867 1.432 . S
C846 C845 1.373 . S
C846 C847 1.339 . S
C846 C849 1.530 . S
C847 C842 1.304 . S
C847 C846 1.339 . S
C847 H908 0.930 . S
C848 C844 1.567 . S
C848 H909 0.961 . S
C848 H910 0.960 . S
C848 H911 0.958 . S
C849 C846 1.530 . S
C849 H912 0.961 . S
C849 H913 0.960 . S
C849 H914 0.960 . S
C850 C851 1.530 . S
C850 H916 0.961 . S
C850 H917 0.961 . S
C850 H918 0.959 . S
C851 C850 1.530 . S
C851 O879 1.412 . S
C851 H915 0.980 . S
C852 C853 1.288 . S
C852 C857 1.377 . S
C852 O879 1.393 . S
C853 C852 1.288 . S
C853 C854 1.369 . S
C853 H919 0.932 . S
C854 C853 1.369 . S
C854 C855 1.398 . S
C854 C858 1.527 . S
C855 C854 1.398 . S
C855 C856 1.380 . S
C855 C869 1.497 . S
C856 C855 1.380 . S
C856 C857 1.383 . S
C856 C859 1.603 . S
C857 C852 1.377 . S
C857 C856 1.383 . S
C857 H920 0.929 . S
C858 C854 1.527 . S
C858 H921 0.961 . S
C858 H922 0.959 . S
C858 H923 0.959 . S
C859 C856 1.603 . S
C859 H924 0.960 . S
C859 H925 0.962 . S
C859 H926 0.961 . S
C860 C827 1.587 . S
C860 C861 1.360 . S
C860 C873 1.412 . S
C861 C860 1.360 . S
C861 C862 1.365 . S
C861 H927 0.929 . S
C862 C837 1.553 . S
C862 C861 1.365 . S
C862 C863 1.404 . S
C863 C862 1.404 . S
C863 C864 1.395 . S
C863 C874 1.451 . S
C864 C863 1.395 . S
C864 C865 1.322 . S
C864 H928 0.930 . S
C865 C864 1.322 . S
C865 C866 1.459 . S
C865 H929 0.929 . S
C866 C865 1.459 . S
C866 C867 1.445 . S
C866 C875 1.395 . S
C867 C845 1.432 . S
C867 C866 1.445 . S
C867 C868 1.370 . S
C868 C867 1.370 . S
C868 C869 1.438 . S
C868 H930 0.930 . S
C869 C855 1.497 . S
C869 C868 1.438 . S
C869 C870 1.360 . S
C870 C869 1.360 . S
C870 C871 1.401 . S
C870 C875 1.446 . S
C871 C870 1.401 . S
C871 C872 1.347 . S
C871 H931 0.929 . S
C872 C871 1.347 . S
C872 C873 1.455 . S
C872 H932 0.930 . S
C873 C860 1.412 . S
C873 C872 1.455 . S
C873 C874 1.331 . S
C874 C863 1.451 . S
C874 C873 1.331 . S
C874 C875 1.497 . S
C875 C866 1.395 . S
C875 C870 1.446 . S
C875 C874 1.497 . S
C876 C877 1.582 . S
C876 H933 0.962 . S
C876 H934 0.959 . S
C876 H935 0.958 . S
C877 C876 1.582 . S
C877 O880 1.458 . S
C877 H906 0.980 . S
O878 C823 1.426 . S
O878 C824 1.334 . S
O879 C851 1.412 . S
O879 C852 1.393 . S
O880 C842 1.435 . S
O880 C877 1.458 . S
O881 C833 1.468 . S
O881 C834 1.408 . S
H882 C823 0.980 . S
H883 C822 0.959 . S
H884 C822 0.959 . S
H885 C822 0.960 . S
H886 C825 0.929 . S
H887 C829 0.929 . S
H888 C830 0.959 . S
H889 C830 0.961 . S
H890 C830 0.961 . S
H891 C831 0.960 . S
H892 C831 0.960 . S
H893 C831 0.961 . S
H894 C833 0.980 . S
H895 C832 0.961 . S
H896 C832 0.960 . S
H897 C832 0.959 . S
H898 C835 0.930 . S
H899 C839 0.931 . S
H900 C840 0.959 . S
H901 C840 0.961 . S
H902 C840 0.959 . S
H903 C841 0.960 . S
H904 C841 0.960 . S
H905 C841 0.960 . S
H906 C877 0.980 . S
H907 C843 0.930 . S
H908 C847 0.930 . S
H909 C848 0.961 . S
H910 C848 0.960 . S
H911 C848 0.958 . S
H912 C849 0.961 . S
H913 C849 0.960 . S
H914 C849 0.960 . S
H915 C851 0.980 . S
H916 C850 0.961 . S
H917 C850 0.961 . S
H918 C850 0.959 . S
H919 C853 0.932 . S
H920 C857 0.929 . S
H921 C858 0.961 . S
H922 C858 0.959 . S
H923 C858 0.959 . S
H924 C859 0.960 . S
H925 C859 0.962 . S
H926 C859 0.961 . S
H927 C861 0.929 . S
H928 C864 0.930 . S
H929 C865 0.929 . S
H930 C868 0.930 . S
H931 C871 0.929 . S
H932 C872 0.930 . S
H933 C876 0.962 . S
H934 C876 0.959 . S
H935 C876 0.958 . S
C936 C937 1.560 . S
C936 H997 0.959 . S
C936 H998 0.959 . S
C936 H999 0.960 . S
C937 C936 1.560 . S
C937 O992 1.426 . S
C937 H996 0.980 . S
C938 C939 1.407 . S
C938 C943 1.418 . S
C938 O992 1.334 . S
C939 C938 1.407 . S
C939 C940 1.360 . S
C939 H1000 0.929 . S
C940 C939 1.360 . S
C940 C941 1.401 . S
C940 C944 1.527 . S
C941 C940 1.401 . S
C941 C942 1.405 . S
C941 C974 1.587 . S
C942 C941 1.405 . S
C942 C943 1.332 . S
C942 C945 1.496 . S
C943 C938 1.418 . S
C943 C942 1.332 . S
C943 H1001 0.929 . S
C944 C940 1.527 . S
C944 H1002 0.959 . S
C944 H1003 0.961 . S
C944 H1004 0.961 . S
C945 C942 1.496 . S
C945 H1005 0.960 . S
C945 H1006 0.960 . S
C945 H1007 0.961 . S
C946 C947 1.517 . S
C946 H1009 0.961 . S
C946 H1010 0.960 . S
C946 H1011 0.959 . S
C947 C946 1.517 . S
C947 O995 1.468 . S
C947 H1008 0.980 . S
C948 C949 1.349 . S
C948 C953 1.367 . S
C948 O995 1.408 . S
C949 C948 1.349 . S
C949 C950 1.407 . S
C949 H1012 0.930 . S
C950 C949 1.407 . S
C950 C951 1.449 . S
C950 C954 1.535 . S
C951 C950 1.449 . S
C951 C952 1.384 . S
C951 C976 1.553 . S
C952 C951 1.384 . S
C952 C953 1.364 . S
C952 C955 1.450 . S
C953 C948 1.367 . S
C953 C952 1.364 . S
C953 H1013 0.931 . S
C954 C950 1.535 . S
C954 H1014 0.959 . S
C954 H1015 0.961 . S
C954 H1016 0.959 . S
C955 C952 1.450 . S
C955 H1017 0.960 . S
C955 H1018 0.960 . S
C955 H1019 0.960 . S
C956 C957 1.309 . S
C956 C961 1.304 . S
C956 O994 1.435 . S
C957 C956 1.309 . S
C957 C958 1.476 . S
C957 H1021 0.930 . S
C958 C957 1.476 . S
C958 C959 1.400 . S
C958 C962 1.567 . S
C959 C958 1.400 . S
C959 C960 1.373 . S
C959 C981 1.432 . S
C960 C959 1.373 . S
C960 C961 1.339 . S
C960 C963 1.530 . S
C961 C956 1.304 . S
C961 C960 1.339 . S
C961 H1022 0.930 . S
C962 C958 1.567 . S
C962 H1023 0.961 . S
C962 H1024 0.960 . S
C962 H1025 0.958 . S
C963 C960 1.530 . S
C963 H1026 0.961 . S
C963 H1027 0.960 . S
C963 H1028 0.960 . S
C964 C965 1.530 . S
C964 H1030 0.961 . S
C964 H1031 0.961 . S
C964 H1032 0.959 . S
C965 C964 1.530 . S
C965 O993 1.412 . S
C965 H1029 0.980 . S
C966 C967 1.288 . S
C966 C971 1.377 . S
C966 O993 1.393 . S
C967 C966 1.288 . S
C967 C968 1.369 . S
C967 H1033 0.932 . S
C968 C967 1.369 . S
C968 C969 1.398 . S
C968 C972 1.527 . S
C969 C968 1.398 . S
C969 C970 1.380 . S
C969 C983 1.497 . S
C970 C969 1.380 . S
C970 C971 1.383 . S
C970 C973 1.603 . S
C971 C966 1.377 . S
C971 C970 1.383 . S
C971 H1034 0.929 . S
C972 C968 1.527 . S
C972 H1035 0.961 . S
C972 H1036 0.959 . S
C972 H1037 0.959 . S
C973 C970 1.603 . S
C973 H1038 0.960 . S
C973 H1039 0.962 . S
C973 H1040 0.961 . S
C974 C941 1.587 . S
C974 C975 1.360 . S
C974 C987 1.412 . S
C975 C974 1.360 . S
C975 C976 1.365 . S
C975 H1041 0.929 . S
C976 C951 1.553 . S
C976 C975 1.365 . S
C976 C977 1.404 . S
C977 C976 1.404 . S
C977 C978 1.395 . S
C977 C988 1.451 . S
C978 C977 1.395 . S
C978 C979 1.322 . S
C978 H1042 0.930 . S
C979 C978 1.322 . S
C979 C980 1.459 . S
C979 H1043 0.929 . S
C980 C979 1.459 . S
C980 C981 1.445 . S
C980 C989 1.395 . S
C981 C959 1.432 . S
C981 C980 1.445 . S
C981 C982 1.370 . S
C982 C981 1.370 . S
C982 C983 1.438 . S
C982 H1044 0.930 . S
C983 C969 1.497 . S
C983 C982 1.438 . S
C983 C984 1.360 . S
C984 C983 1.360 . S
C984 C985 1.401 . S
C984 C989 1.446 . S
C985 C984 1.401 . S
C985 C986 1.347 . S
C985 H1045 0.929 . S
C986 C985 1.347 . S
C986 C987 1.455 . S
C986 H1046 0.930 . S
C987 C974 1.412 . S
C987 C986 1.455 . S
C987 C988 1.331 . S
C988 C977 1.451 . S
C988 C987 1.331 . S
C988 C989 1.497 . S
C989 C980 1.395 . S
C989 C984 1.446 . S
C989 C988 1.497 . S
C990 C991 1.582 . S
C990 H1047 0.962 . S
C990 H1048 0.959 . S
C990 H1049 0.958 . S
C991 C990 1.582 . S
C991 O994 1.458 . S
C991 H1020 0.980 . S
O992 C937 1.426 . S
O992 C938 1.334 . S
O993 C965 1.412 . S
O993 C966 1.393 . S
O994 C956 1.435 . S
O994 C991 1.458 . S
O995 C947 1.468 . S
O995 C948 1.408 . S
H996 C937 0.980 . S
H997 C936 0.959 . S
H998 C936 0.959 . S
H999 C936 0.960 . S
H1000 C939 0.929 . S
H1001 C943 0.929 . S
H1002 C944 0.959 . S
H1003 C944 0.961 . S
H1004 C944 0.961 . S
H1005 C945 0.960 . S
H1006 C945 0.960 . S
H1007 C945 0.961 . S
H1008 C947 0.980 . S
H1009 C946 0.961 . S
H1010 C946 0.960 . S
H1011 C946 0.959 . S
H1012 C949 0.930 . S
H1013 C953 0.931 . S
H1014 C954 0.959 . S
H1015 C954 0.961 . S
H1016 C954 0.959 . S
H1017 C955 0.960 . S
H1018 C955 0.960 . S
H1019 C955 0.960 . S
H1020 C991 0.980 . S
H1021 C957 0.930 . S
H1022 C961 0.930 . S
H1023 C962 0.961 . S
H1024 C962 0.960 . S
H1025 C962 0.958 . S
H1026 C963 0.961 . S
H1027 C963 0.960 . S
H1028 C963 0.960 . S
H1029 C965 0.980 . S
H1030 C964 0.961 . S
H1031 C964 0.961 . S
H1032 C964 0.959 . S
H1033 C967 0.932 . S
H1034 C971 0.929 . S
H1035 C972 0.961 . S
H1036 C972 0.959 . S
H1037 C972 0.959 . S
H1038 C973 0.960 . S
H1039 C973 0.962 . S
H1040 C973 0.961 . S
H1041 C975 0.929 . S
H1042 C978 0.930 . S
H1043 C979 0.929 . S
H1044 C982 0.930 . S
H1045 C985 0.929 . S
H1046 C986 0.930 . S
H1047 C990 0.962 . S
H1048 C990 0.959 . S
H1049 C990 0.958 . S
C1050 C1051 1.560 . S
C1050 H1111 0.959 . S
C1050 H1112 0.959 . S
C1050 H1113 0.960 . S
C1051 C1050 1.560 . S
C1051 O1106 1.426 . S
C1051 H1110 0.980 . S
C1052 C1053 1.407 . S
C1052 C1057 1.418 . S
C1052 O1106 1.334 . S
C1053 C1052 1.407 . S
C1053 C1054 1.360 . S
C1053 H1114 0.929 . S
C1054 C1053 1.360 . S
C1054 C1055 1.401 . S
C1054 C1058 1.527 . S
C1055 C1054 1.401 . S
C1055 C1056 1.405 . S
C1055 C1088 1.587 . S
C1056 C1055 1.405 . S
C1056 C1057 1.332 . S
C1056 C1059 1.496 . S
C1057 C1052 1.418 . S
C1057 C1056 1.332 . S
C1057 H1115 0.929 . S
C1058 C1054 1.527 . S
C1058 H1116 0.959 . S
C1058 H1117 0.961 . S
C1058 H1118 0.961 . S
C1059 C1056 1.496 . S
C1059 H1119 0.960 . S
C1059 H1120 0.960 . S
C1059 H1121 0.961 . S
C1060 C1061 1.517 . S
C1060 H1123 0.961 . S
C1060 H1124 0.960 . S
C1060 H1125 0.959 . S
C1061 C1060 1.517 . S
C1061 O1109 1.468 . S
C1061 H1122 0.980 . S
C1062 C1063 1.349 . S
C1062 C1067 1.367 . S
C1062 O1109 1.408 . S
C1063 C1062 1.349 . S
C1063 C1064 1.407 . S
C1063 H1126 0.930 . S
C1064 C1063 1.407 . S
C1064 C1065 1.449 . S
C1064 C1068 1.535 . S
C1065 C1064 1.449 . S
C1065 C1066 1.384 . S
C1065 C1090 1.553 . S
C1066 C1065 1.384 . S
C1066 C1067 1.364 . S
C1066 C1069 1.450 . S
C1067 C1062 1.367 . S
C1067 C1066 1.364 . S
C1067 H1127 0.931 . S
C1068 C1064 1.535 . S
C1068 H1128 0.959 . S
C1068 H1129 0.961 . S
C1068 H1130 0.959 . S
C1069 C1066 1.450 . S
C1069 H1131 0.960 . S
C1069 H1132 0.960 . S
C1069 H1133 0.960 . S
C1070 C1071 1.309 . S
C1070 C1075 1.304 . S
C1070 O1108 1.435 . S
C1071 C1070 1.309 . S
C1071 C1072 1.476 . S
C1071 H1135 0.930 . S
C1072 C1071 1.476 . S
C1072 C1073 1.400 . S
C1072 C1076 1.567 . S
C1073 C1072 1.400 . S
C1073 C1074 1.373 . S
C1073 C1095 1.432 . S
C1074 C1073 1.373 . S
C1074 C1075 1.339 . S
C1074 C1077 1.530 . S
C1075 C1070 1.304 . S
C1075 C1074 1.339 . S
C1075 H1136 0.930 . S
C1076 C1072 1.567 . S
C1076 H1137 0.961 . S
C1076 H1138 0.960 . S
C1076 H1139 0.958 . S
C1077 C1074 1.530 . S
C1077 H1140 0.961 . S
C1077 H1141 0.960 . S
C1077 H1142 0.960 . S
C1078 C1079 1.530 . S
C1078 H1144 0.961 . S
C1078 H1145 0.961 . S
C1078 H1146 0.959 . S
C1079 C1078 1.530 . S
C1079 O1107 1.412 . S
C1079 H1143 0.980 . S
C1080 C1081 1.288 . S
C1080 C1085 1.377 . S
C1080 O1107 1.393 . S
C1081 C1080 1.288 . S
C1081 C1082 1.369 . S
C1081 H1147 0.932 . S
C1082 C1081 1.369 . S
C1082 C1083 1.398 . S
C1082 C1086 1.527 . S
C1083 C1082 1.398 . S
C1083 C1084 1.380 . S
C1083 C1097 1.497 . S
C1084 C1083 1.380 . S
C1084 C1085 1.383 . S
C1084 C1087 1.603 . S
C1085 C1080 1.377 . S
C1085 C1084 1.383 . S
C1085 H1148 0.929 . S
C1086 C1082 1.527 . S
C1086 H1149 0.961 . S
C1086 H1150 0.959 . S
C1086 H1151 0.959 . S
C1087 C1084 1.603 . S
C1087 H1152 0.960 . S
C1087 H1153 0.962 . S
C1087 H1154 0.961 . S
C1088 C1055 1.587 . S
C1088 C1089 1.360 . S
C1088 C1101 1.412 . S
C1089 C1088 1.360 . S
C1089 C1090 1.365 . S
C1089 H1155 0.929 . S
C1090 C1065 1.553 . S
C1090 C1089 1.365 . S
C1090 C1091 1.404 . S
C1091 C1090 1.404 . S
C1091 C1092 1.395 . S
C1091 C1102 1.451 . S
C1092 C1091 1.395 . S
C1092 C1093 1.322 . S
C1092 H1156 0.930 . S
C1093 C1092 1.322 . S
C1093 C1094 1.459 . S
C1093 H1157 0.929 . S
C1094 C1093 1.459 . S
C1094 C1095 1.445 . S
C1094 C1103 1.395 . S
C1095 C1073 1.432 . S
C1095 C1094 1.445 . S
C1095 C1096 1.370 . S
C1096 C1095 1.370 . S
C1096 C1097 1.438 . S
C1096 H1158 0.930 . S
C1097 C1083 1.497 . S
C1097 C1096 1.438 . S
C1097 C1098 1.360 . S
C1098 C1097 1.360 . S
C1098 C1099 1.401 . S
C1098 C1103 1.446 . S
C1099 C1098 1.401 . S
C1099 C1100 1.347 . S
C1099 H1159 0.929 . S
C1100 C1099 1.347 . S
C1100 C1101 1.455 . S
C1100 H1160 0.930 . S
C1101 C1088 1.412 . S
C1101 C1100 1.455 . S
C1101 C1102 1.331 . S
C1102 C1091 1.451 . S
C1102 C1101 1.331 . S
C1102 C1103 1.497 . S
C1103 C1094 1.395 . S
C1103 C1098 1.446 . S
C1103 C1102 1.497 . S
C1104 C1105 1.582 . S
C1104 H1161 0.962 . S
C1104 H1162 0.959 . S
C1104 H1163 0.958 . S
C1105 C1104 1.582 . S
C1105 O1108 1.458 . S
C1105 H1134 0.980 . S
O1106 C1051 1.426 . S
O1106 C1052 1.334 . S
O1107 C1079 1.412 . S
O1107 C1080 1.393 . S
O1108 C1070 1.435 . S
O1108 C1105 1.458 . S
O1109 C1061 1.468 . S
O1109 C1062 1.408 . S
H1110 C1051 0.980 . S
H1111 C1050 0.959 . S
H1112 C1050 0.959 . S
H1113 C1050 0.960 . S
H1114 C1053 0.929 . S
H1115 C1057 0.929 . S
H1116 C1058 0.959 . S
H1117 C1058 0.961 . S
H1118 C1058 0.961 . S
H1119 C1059 0.960 . S
H1120 C1059 0.960 . S
H1121 C1059 0.961 . S
H1122 C1061 0.980 . S
H1123 C1060 0.961 . S
H1124 C1060 0.960 . S
H1125 C1060 0.959 . S
H1126 C1063 0.930 . S
H1127 C1067 0.931 . S
H1128 C1068 0.959 . S
H1129 C1068 0.961 . S
H1130 C1068 0.959 . S
H1131 C1069 0.960 . S
H1132 C1069 0.960 . S
H1133 C1069 0.960 . S
H1134 C1105 0.980 . S
H1135 C1071 0.930 . S
H1136 C1075 0.930 . S
H1137 C1076 0.961 . S
H1138 C1076 0.960 . S
H1139 C1076 0.958 . S
H1140 C1077 0.961 . S
H1141 C1077 0.960 . S
H1142 C1077 0.960 . S
H1143 C1079 0.980 . S
H1144 C1078 0.961 . S
H1145 C1078 0.961 . S
H1146 C1078 0.959 . S
H1147 C1081 0.932 . S
H1148 C1085 0.929 . S
H1149 C1086 0.961 . S
H1150 C1086 0.959 . S
H1151 C1086 0.959 . S
H1152 C1087 0.960 . S
H1153 C1087 0.962 . S
H1154 C1087 0.961 . S
H1155 C1089 0.929 . S
H1156 C1092 0.930 . S
H1157 C1093 0.929 . S
H1158 C1096 0.930 . S
H1159 C1099 0.929 . S
H1160 C1100 0.930 . S
H1161 C1104 0.962 . S
H1162 C1104 0.959 . S
H1163 C1104 0.958 . S
C1164 C1165 1.560 . S
C1164 H1225 0.959 . S
C1164 H1226 0.959 . S
C1164 H1227 0.960 . S
C1165 C1164 1.560 . S
C1165 O1220 1.426 . S
C1165 H1224 0.980 . S
C1166 C1167 1.407 . S
C1166 C1171 1.418 . S
C1166 O1220 1.334 . S
C1167 C1166 1.407 . S
C1167 C1168 1.360 . S
C1167 H1228 0.929 . S
C1168 C1167 1.360 . S
C1168 C1169 1.401 . S
C1168 C1172 1.527 . S
C1169 C1168 1.401 . S
C1169 C1170 1.405 . S
C1169 C1202 1.587 . S
C1170 C1169 1.405 . S
C1170 C1171 1.332 . S
C1170 C1173 1.496 . S
C1171 C1166 1.418 . S
C1171 C1170 1.332 . S
C1171 H1229 0.929 . S
C1172 C1168 1.527 . S
C1172 H1230 0.959 . S
C1172 H1231 0.961 . S
C1172 H1232 0.961 . S
C1173 C1170 1.496 . S
C1173 H1233 0.960 . S
C1173 H1234 0.960 . S
C1173 H1235 0.961 . S
C1174 C1175 1.517 . S
C1174 H1237 0.961 . S
C1174 H1238 0.960 . S
C1174 H1239 0.959 . S
C1175 C1174 1.517 . S
C1175 O1223 1.468 . S
C1175 H1236 0.980 . S
C1176 C1177 1.349 . S
C1176 C1181 1.367 . S
C1176 O1223 1.408 . S
C1177 C1176 1.349 . S
C1177 C1178 1.407 . S
C1177 H1240 0.930 . S
C1178 C1177 1.407 . S
C1178 C1179 1.449 . S
C1178 C1182 1.535 . S
C1179 C1178 1.449 . S
C1179 C1180 1.384 . S
C1179 C1204 1.553 . S
C1180 C1179 1.384 . S
C1180 C1181 1.364 . S
C1180 C1183 1.450 . S
C1181 C1176 1.367 . S
C1181 C1180 1.364 . S
C1181 H1241 0.931 . S
C1182 C1178 1.535 . S
C1182 H1242 0.959 . S
C1182 H1243 0.961 . S
C1182 H1244 0.959 . S
C1183 C1180 1.450 . S
C1183 H1245 0.960 . S
C1183 H1246 0.960 . S
C1183 H1247 0.960 . S
C1184 C1185 1.309 . S
C1184 C1189 1.304 . S
C1184 O1222 1.435 . S
C1185 C1184 1.309 . S
C1185 C1186 1.476 . S
C1185 H1249 0.930 . S
C1186 C1185 1.476 . S
C1186 C1187 1.400 . S
C1186 C1190 1.567 . S
C1187 C1186 1.400 . S
C1187 C1188 1.373 . S
C1187 C1209 1.432 . S
C1188 C1187 1.373 . S
C1188 C1189 1.339 . S
C1188 C1191 1.530 . S
C1189 C1184 1.304 . S
C1189 C1188 1.339 . S
C1189 H1250 0.930 . S
C1190 C1186 1.567 . S
C1190 H1251 0.961 . S
C1190 H1252 0.960 . S
C1190 H1253 0.958 . S
C1191 C1188 1.530 . S
C1191 H1254 0.961 . S
C1191 H1255 0.960 . S
C1191 H1256 0.960 . S
C1192 C1193 1.530 . S
C1192 H1258 0.961 . S
C1192 H1259 0.961 . S
C1192 H1260 0.959 . S
C1193 C1192 1.530 . S
C1193 O1221 1.412 . S
C1193 H1257 0.980 . S
C1194 C1195 1.288 . S
C1194 C1199 1.377 . S
C1194 O1221 1.393 . S
C1195 C1194 1.288 . S
C1195 C1196 1.369 . S
C1195 H1261 0.932 . S
C1196 C1195 1.369 . S
C1196 C1197 1.398 . S
C1196 C1200 1.527 . S
C1197 C1196 1.398 . S
C1197 C1198 1.380 . S
C1197 C1211 1.497 . S
C1198 C1197 1.380 . S
C1198 C1199 1.383 . S
C1198 C1201 1.603 . S
C1199 C1194 1.377 . S
C1199 C1198 1.383 . S
C1199 H1262 0.929 . S
C1200 C1196 1.527 . S
C1200 H1263 0.961 . S
C1200 H1264 0.959 . S
C1200 H1265 0.959 . S
C1201 C1198 1.603 . S
C1201 H1266 0.960 . S
C1201 H1267 0.962 . S
C1201 H1268 0.961 . S
C1202 C1169 1.587 . S
C1202 C1203 1.360 . S
C1202 C1215 1.412 . S
C1203 C1202 1.360 . S
C1203 C1204 1.365 . S
C1203 H1269 0.929 . S
C1204 C1179 1.553 . S
C1204 C1203 1.365 . S
C1204 C1205 1.404 . S
C1205 C1204 1.404 . S
C1205 C1206 1.395 . S
C1205 C1216 1.451 . S
C1206 C1205 1.395 . S
C1206 C1207 1.322 . S
C1206 H1270 0.930 . S
C1207 C1206 1.322 . S
C1207 C1208 1.459 . S
C1207 H1271 0.929 . S
C1208 C1207 1.459 . S
C1208 C1209 1.445 . S
C1208 C1217 1.395 . S
C1209 C1187 1.432 . S
C1209 C1208 1.445 . S
C1209 C1210 1.370 . S
C1210 C1209 1.370 . S
C1210 C1211 1.438 . S
C1210 H1272 0.930 . S
C1211 C1197 1.497 . S
C1211 C1210 1.438 . S
C1211 C1212 1.360 . S
C1212 C1211 1.360 . S
C1212 C1213 1.401 . S
C1212 C1217 1.446 . S
C1213 C1212 1.401 . S
C1213 C1214 1.347 . S
C1213 H1273 0.929 . S
C1214 C1213 1.347 . S
C1214 C1215 1.455 . S
C1214 H1274 0.930 . S
C1215 C1202 1.412 . S
C1215 C1214 1.455 . S
C1215 C1216 1.331 . S
C1216 C1205 1.451 . S
C1216 C1215 1.331 . S
C1216 C1217 1.497 . S
C1217 C1208 1.395 . S
C1217 C1212 1.446 . S
C1217 C1216 1.497 . S
C1218 C1219 1.582 . S
C1218 H1275 0.962 . S
C1218 H1276 0.959 . S
C1218 H1277 0.958 . S
C1219 C1218 1.582 . S
C1219 O1222 1.458 . S
C1219 H1248 0.980 . S
O1220 C1165 1.426 . S
O1220 C1166 1.334 . S
O1221 C1193 1.412 . S
O1221 C1194 1.393 . S
O1222 C1184 1.435 . S
O1222 C1219 1.458 . S
O1223 C1175 1.468 . S
O1223 C1176 1.408 . S
H1224 C1165 0.980 . S
H1225 C1164 0.959 . S
H1226 C1164 0.959 . S
H1227 C1164 0.960 . S
H1228 C1167 0.929 . S
H1229 C1171 0.929 . S
H1230 C1172 0.959 . S
H1231 C1172 0.961 . S
H1232 C1172 0.961 . S
H1233 C1173 0.960 . S
H1234 C1173 0.960 . S
H1235 C1173 0.961 . S
H1236 C1175 0.980 . S
H1237 C1174 0.961 . S
H1238 C1174 0.960 . S
H1239 C1174 0.959 . S
H1240 C1177 0.930 . S
H1241 C1181 0.931 . S
H1242 C1182 0.959 . S
H1243 C1182 0.961 . S
H1244 C1182 0.959 . S
H1245 C1183 0.960 . S
H1246 C1183 0.960 . S
H1247 C1183 0.960 . S
H1248 C1219 0.980 . S
H1249 C1185 0.930 . S
H1250 C1189 0.930 . S
H1251 C1190 0.961 . S
H1252 C1190 0.960 . S
H1253 C1190 0.958 . S
H1254 C1191 0.961 . S
H1255 C1191 0.960 . S
H1256 C1191 0.960 . S
H1257 C1193 0.980 . S
H1258 C1192 0.961 . S
H1259 C1192 0.961 . S
H1260 C1192 0.959 . S
H1261 C1195 0.932 . S
H1262 C1199 0.929 . S
H1263 C1200 0.961 . S
H1264 C1200 0.959 . S
H1265 C1200 0.959 . S
H1266 C1201 0.960 . S
H1267 C1201 0.962 . S
H1268 C1201 0.961 . S
H1269 C1203 0.929 . S
H1270 C1206 0.930 . S
H1271 C1207 0.929 . S
H1272 C1210 0.930 . S
H1273 C1213 0.929 . S
H1274 C1214 0.930 . S
H1275 C1218 0.962 . S
H1276 C1218 0.959 . S
H1277 C1218 0.958 . S
C1278 C1279 1.560 . S
C1278 H1339 0.959 . S
C1278 H1340 0.959 . S
C1278 H1341 0.960 . S
C1279 C1278 1.560 . S
C1279 O1334 1.426 . S
C1279 H1338 0.980 . S
C1280 C1281 1.407 1_455 S
C1280 C1285 1.418 . S
C1280 O1334 1.334 . S
C1281 C1280 1.407 1_655 S
C1281 C1282 1.360 . S
C1281 H1342 0.929 . S
C1282 C1281 1.360 . S
C1282 C1283 1.401 1_655 S
C1282 C1286 1.527 . S
C1283 C1282 1.401 1_455 S
C1283 C1284 1.405 . S
C1283 C1316 1.587 1_455 S
C1284 C1283 1.405 . S
C1284 C1285 1.332 . S
C1284 C1287 1.496 . S
C1285 C1280 1.418 . S
C1285 C1284 1.332 . S
C1285 H1343 0.929 . S
C1286 C1282 1.527 . S
C1286 H1344 0.959 . S
C1286 H1345 0.961 . S
C1286 H1346 0.961 . S
C1287 C1284 1.496 . S
C1287 H1347 0.960 . S
C1287 H1348 0.960 . S
C1287 H1349 0.961 . S
C1288 C1289 1.517 . S
C1288 H1351 0.961 . S
C1288 H1352 0.960 . S
C1288 H1353 0.959 . S
C1289 C1288 1.517 . S
C1289 O1337 1.468 . S
C1289 H1350 0.980 1_655 S
C1290 C1291 1.349 . S
C1290 C1295 1.367 . S
C1290 O1337 1.408 . S
C1291 C1290 1.349 . S
C1291 C1292 1.369 1_655 S
C1291 H1354 0.930 1_655 S
C1292 C1291 1.369 1_455 S
C1292 C1293 1.420 1_455 S
C1292 C1296 1.598 . S
C1293 C1292 1.420 1_655 S
C1293 C1294 1.384 . S
C1293 C1318 1.553 . S
C1294 C1293 1.384 . S
C1294 C1295 1.364 . S
C1294 C1297 1.450 . S
C1295 C1290 1.367 . S
C1295 C1294 1.364 . S
C1295 H1355 0.931 . S
C1296 C1292 1.598 . S
C1296 H1356 0.959 . S
C1296 H1357 0.961 . S
C1296 H1358 0.959 . S
C1297 C1294 1.450 . S
C1297 H1359 0.960 . S
C1297 H1360 0.960 . S
C1297 H1361 0.960 . S
C1298 C1299 1.309 . S
C1298 C1303 1.304 . S
C1298 O1336 1.435 . S
C1299 C1298 1.309 . S
C1299 C1300 1.479 1_655 S
C1299 H1363 0.930 1_655 S
C1300 C1299 1.479 1_455 S
C1300 C1301 1.402 1_455 S
C1300 C1304 1.561 . S
C1301 C1300 1.402 1_655 S
C1301 C1302 1.373 . S
C1301 C1323 1.432 . S
C1302 C1301 1.373 . S
C1302 C1303 1.339 . S
C1302 C1305 1.530 . S
C1303 C1298 1.304 . S
C1303 C1302 1.339 . S
C1303 H1364 0.930 . S
C1304 C1300 1.561 . S
C1304 H1365 0.961 . S
C1304 H1366 0.960 . S
C1304 H1367 0.958 . S
C1305 C1302 1.530 . S
C1305 H1368 0.961 . S
C1305 H1369 0.960 . S
C1305 H1370 0.960 . S
C1306 C1307 1.534 . S
C1306 H1372 0.961 . S
C1306 H1373 0.961 . S
C1306 H1374 0.959 . S
C1307 C1306 1.534 . S
C1307 O1335 1.412 . S
C1307 H1371 0.979 1_455 S
C1308 C1309 1.288 . S
C1308 C1313 1.377 1_455 S
C1308 O1335 1.393 . S
C1309 C1308 1.288 . S
C1309 C1310 1.369 . S
C1309 H1375 0.932 . S
C1310 C1309 1.369 . S
C1310 C1311 1.398 1_455 S
C1310 C1314 1.527 . S
C1311 C1310 1.398 1_655 S
C1311 C1312 1.380 . S
C1311 C1325 1.497 . S
C1312 C1311 1.380 . S
C1312 C1313 1.383 . S
C1312 C1315 1.603 . S
C1313 C1308 1.377 1_655 S
C1313 C1312 1.383 . S
C1313 H1376 0.929 . S
C1314 C1310 1.527 . S
C1314 H1377 0.961 . S
C1314 H1378 0.959 . S
C1314 H1379 0.959 . S
C1315 C1312 1.603 . S
C1315 H1380 0.960 . S
C1315 H1381 0.962 . S
C1315 H1382 0.961 . S
C1316 C1283 1.587 1_655 S
C1316 C1317 1.360 . S
C1316 C1329 1.412 . S
C1317 C1316 1.360 . S
C1317 C1318 1.365 . S
C1317 H1383 0.929 . S
C1318 C1293 1.553 . S
C1318 C1317 1.365 . S
C1318 C1319 1.404 . S
C1319 C1318 1.404 . S
C1319 C1320 1.395 . S
C1319 C1330 1.451 . S
C1320 C1319 1.395 . S
C1320 C1321 1.322 . S
C1320 H1384 0.930 . S
C1321 C1320 1.322 . S
C1321 C1322 1.459 . S
C1321 H1385 0.929 . S
C1322 C1321 1.459 . S
C1322 C1323 1.445 . S
C1322 C1331 1.395 . S
C1323 C1301 1.432 . S
C1323 C1322 1.445 . S
C1323 C1324 1.370 . S
C1324 C1323 1.370 . S
C1324 C1325 1.438 . S
C1324 H1386 0.930 . S
C1325 C1311 1.497 . S
C1325 C1324 1.438 . S
C1325 C1326 1.360 . S
C1326 C1325 1.360 . S
C1326 C1327 1.401 . S
C1326 C1331 1.446 . S
C1327 C1326 1.401 . S
C1327 C1328 1.347 . S
C1327 H1387 0.929 . S
C1328 C1327 1.347 . S
C1328 C1329 1.455 . S
C1328 H1388 0.930 . S
C1329 C1316 1.412 . S
C1329 C1328 1.455 . S
C1329 C1330 1.331 . S
C1330 C1319 1.451 . S
C1330 C1329 1.331 . S
C1330 C1331 1.497 . S
C1331 C1322 1.395 . S
C1331 C1326 1.446 . S
C1331 C1330 1.497 . S
C1332 C1333 1.582 . S
C1332 H1389 0.962 . S
C1332 H1390 0.959 . S
C1332 H1391 0.958 . S
C1333 C1332 1.582 . S
C1333 O1336 1.458 . S
C1333 H1362 0.980 . S
O1334 C1279 1.426 . S
O1334 C1280 1.334 . S
O1335 C1307 1.412 . S
O1335 C1308 1.393 . S
O1336 C1298 1.435 . S
O1336 C1333 1.458 . S
O1337 C1289 1.468 . S
O1337 C1290 1.408 . S
H1338 C1279 0.980 . S
H1339 C1278 0.959 . S
H1340 C1278 0.959 . S
H1341 C1278 0.960 . S
H1342 C1281 0.929 . S
H1343 C1285 0.929 . S
H1344 C1286 0.959 . S
H1345 C1286 0.961 . S
H1346 C1286 0.961 . S
H1347 C1287 0.960 . S
H1348 C1287 0.960 . S
H1349 C1287 0.961 . S
H1350 C1289 0.980 1_455 S
H1351 C1288 0.961 . S
H1352 C1288 0.960 . S
H1353 C1288 0.959 . S
H1354 C1291 0.930 1_455 S
H1355 C1295 0.931 . S
H1356 C1296 0.959 . S
H1357 C1296 0.961 . S
H1358 C1296 0.959 . S
H1359 C1297 0.960 . S
H1360 C1297 0.960 . S
H1361 C1297 0.960 . S
H1362 C1333 0.980 . S
H1363 C1299 0.930 1_455 S
H1364 C1303 0.930 . S
H1365 C1304 0.961 . S
H1366 C1304 0.960 . S
H1367 C1304 0.958 . S
H1368 C1305 0.961 . S
H1369 C1305 0.960 . S
H1370 C1305 0.960 . S
H1371 C1307 0.979 1_655 S
H1372 C1306 0.961 . S
H1373 C1306 0.961 . S
H1374 C1306 0.959 . S
H1375 C1309 0.932 . S
H1376 C1313 0.929 . S
H1377 C1314 0.961 . S
H1378 C1314 0.959 . S
H1379 C1314 0.959 . S
H1380 C1315 0.960 . S
H1381 C1315 0.962 . S
H1382 C1315 0.961 . S
H1383 C1317 0.929 . S
H1384 C1320 0.930 . S
H1385 C1321 0.929 . S
H1386 C1324 0.930 . S
H1387 C1327 0.929 . S
H1388 C1328 0.930 . S
H1389 C1332 0.962 . S
H1390 C1332 0.959 . S
H1391 C1332 0.958 . S
C1392 C1393 1.560 . S
C1392 H1453 0.959 . S
C1392 H1454 0.959 . S
C1392 H1455 0.960 . S
C1393 C1392 1.560 . S
C1393 O1448 1.426 . S
C1393 H1452 0.980 . S
C1394 C1395 1.407 . S
C1394 C1399 1.418 . S
C1394 O1448 1.334 . S
C1395 C1394 1.407 . S
C1395 C1396 1.360 . S
C1395 H1456 0.929 . S
C1396 C1395 1.360 . S
C1396 C1397 1.401 . S
C1396 C1400 1.527 . S
C1397 C1396 1.401 . S
C1397 C1398 1.405 . S
C1397 C1430 1.587 . S
C1398 C1397 1.405 . S
C1398 C1399 1.332 . S
C1398 C1401 1.496 . S
C1399 C1394 1.418 . S
C1399 C1398 1.332 . S
C1399 H1457 0.929 . S
C1400 C1396 1.527 . S
C1400 H1458 0.959 . S
C1400 H1459 0.961 . S
C1400 H1460 0.961 . S
C1401 C1398 1.496 . S
C1401 H1461 0.960 . S
C1401 H1462 0.960 . S
C1401 H1463 0.961 . S
C1402 C1403 1.517 . S
C1402 H1465 0.961 . S
C1402 H1466 0.960 . S
C1402 H1467 0.959 . S
C1403 C1402 1.517 . S
C1403 O1451 1.468 . S
C1403 H1464 0.980 . S
C1404 C1405 1.349 . S
C1404 C1409 1.367 . S
C1404 O1451 1.408 . S
C1405 C1404 1.349 . S
C1405 C1406 1.407 . S
C1405 H1468 0.930 . S
C1406 C1405 1.407 . S
C1406 C1407 1.449 . S
C1406 C1410 1.535 . S
C1407 C1406 1.449 . S
C1407 C1408 1.384 . S
C1407 C1432 1.553 . S
C1408 C1407 1.384 . S
C1408 C1409 1.364 . S
C1408 C1411 1.450 . S
C1409 C1404 1.367 . S
C1409 C1408 1.364 . S
C1409 H1469 0.931 . S
C1410 C1406 1.535 . S
C1410 H1470 0.959 . S
C1410 H1471 0.961 . S
C1410 H1472 0.959 . S
C1411 C1408 1.450 . S
C1411 H1473 0.960 . S
C1411 H1474 0.960 . S
C1411 H1475 0.960 . S
C1412 C1413 1.309 . S
C1412 C1417 1.304 . S
C1412 O1450 1.435 . S
C1413 C1412 1.309 . S
C1413 C1414 1.476 . S
C1413 H1477 0.930 . S
C1414 C1413 1.476 . S
C1414 C1415 1.400 . S
C1414 C1418 1.567 . S
C1415 C1414 1.400 . S
C1415 C1416 1.373 . S
C1415 C1437 1.432 . S
C1416 C1415 1.373 . S
C1416 C1417 1.339 . S
C1416 C1419 1.530 . S
C1417 C1412 1.304 . S
C1417 C1416 1.339 . S
C1417 H1478 0.930 . S
C1418 C1414 1.567 . S
C1418 H1479 0.961 . S
C1418 H1480 0.960 . S
C1418 H1481 0.958 . S
C1419 C1416 1.530 . S
C1419 H1482 0.961 . S
C1419 H1483 0.960 . S
C1419 H1484 0.960 . S
C1420 C1421 1.530 . S
C1420 H1486 0.961 . S
C1420 H1487 0.961 . S
C1420 H1488 0.959 . S
C1421 C1420 1.530 . S
C1421 O1449 1.412 . S
C1421 H1485 0.980 . S
C1422 C1423 1.288 . S
C1422 C1427 1.377 . S
C1422 O1449 1.393 . S
C1423 C1422 1.288 . S
C1423 C1424 1.369 . S
C1423 H1489 0.932 . S
C1424 C1423 1.369 . S
C1424 C1425 1.398 . S
C1424 C1428 1.527 . S
C1425 C1424 1.398 . S
C1425 C1426 1.380 . S
C1425 C1439 1.497 . S
C1426 C1425 1.380 . S
C1426 C1427 1.383 . S
C1426 C1429 1.603 . S
C1427 C1422 1.377 . S
C1427 C1426 1.383 . S
C1427 H1490 0.929 . S
C1428 C1424 1.527 . S
C1428 H1491 0.961 . S
C1428 H1492 0.959 . S
C1428 H1493 0.959 . S
C1429 C1426 1.603 . S
C1429 H1494 0.960 . S
C1429 H1495 0.962 . S
C1429 H1496 0.961 . S
C1430 C1397 1.587 . S
C1430 C1431 1.360 . S
C1430 C1443 1.412 . S
C1431 C1430 1.360 . S
C1431 C1432 1.365 . S
C1431 H1497 0.929 . S
C1432 C1407 1.553 . S
C1432 C1431 1.365 . S
C1432 C1433 1.404 . S
C1433 C1432 1.404 . S
C1433 C1434 1.395 . S
C1433 C1444 1.451 . S
C1434 C1433 1.395 . S
C1434 C1435 1.322 . S
C1434 H1498 0.930 . S
C1435 C1434 1.322 . S
C1435 C1436 1.459 . S
C1435 H1499 0.929 . S
C1436 C1435 1.459 . S
C1436 C1437 1.445 . S
C1436 C1445 1.395 . S
C1437 C1415 1.432 . S
C1437 C1436 1.445 . S
C1437 C1438 1.370 . S
C1438 C1437 1.370 . S
C1438 C1439 1.438 . S
C1438 H1500 0.930 . S
C1439 C1425 1.497 . S
C1439 C1438 1.438 . S
C1439 C1440 1.360 . S
C1440 C1439 1.360 . S
C1440 C1441 1.401 . S
C1440 C1445 1.446 . S
C1441 C1440 1.401 . S
C1441 C1442 1.347 . S
C1441 H1501 0.929 . S
C1442 C1441 1.347 . S
C1442 C1443 1.455 . S
C1442 H1502 0.930 . S
C1443 C1430 1.412 . S
C1443 C1442 1.455 . S
C1443 C1444 1.331 . S
C1444 C1433 1.451 . S
C1444 C1443 1.331 . S
C1444 C1445 1.497 . S
C1445 C1436 1.395 . S
C1445 C1440 1.446 . S
C1445 C1444 1.497 . S
C1446 C1447 1.582 . S
C1446 H1503 0.962 . S
C1446 H1504 0.959 . S
C1446 H1505 0.958 . S
C1447 C1446 1.582 . S
C1447 O1450 1.458 . S
C1447 H1476 0.980 . S
O1448 C1393 1.426 . S
O1448 C1394 1.334 . S
O1449 C1421 1.412 . S
O1449 C1422 1.393 . S
O1450 C1412 1.435 . S
O1450 C1447 1.458 . S
O1451 C1403 1.468 . S
O1451 C1404 1.408 . S
H1452 C1393 0.980 . S
H1453 C1392 0.959 . S
H1454 C1392 0.959 . S
H1455 C1392 0.960 . S
H1456 C1395 0.929 . S
H1457 C1399 0.929 . S
H1458 C1400 0.959 . S
H1459 C1400 0.961 . S
H1460 C1400 0.961 . S
H1461 C1401 0.960 . S
H1462 C1401 0.960 . S
H1463 C1401 0.961 . S
H1464 C1403 0.980 . S
H1465 C1402 0.961 . S
H1466 C1402 0.960 . S
H1467 C1402 0.959 . S
H1468 C1405 0.930 . S
H1469 C1409 0.931 . S
H1470 C1410 0.959 . S
H1471 C1410 0.961 . S
H1472 C1410 0.959 . S
H1473 C1411 0.960 . S
H1474 C1411 0.960 . S
H1475 C1411 0.960 . S
H1476 C1447 0.980 . S
H1477 C1413 0.930 . S
H1478 C1417 0.930 . S
H1479 C1418 0.961 . S
H1480 C1418 0.960 . S
H1481 C1418 0.958 . S
H1482 C1419 0.961 . S
H1483 C1419 0.960 . S
H1484 C1419 0.960 . S
H1485 C1421 0.980 . S
H1486 C1420 0.961 . S
H1487 C1420 0.961 . S
H1488 C1420 0.959 . S
H1489 C1423 0.932 . S
H1490 C1427 0.929 . S
H1491 C1428 0.961 . S
H1492 C1428 0.959 . S
H1493 C1428 0.959 . S
H1494 C1429 0.960 . S
H1495 C1429 0.962 . S
H1496 C1429 0.961 . S
H1497 C1431 0.929 . S
H1498 C1434 0.930 . S
H1499 C1435 0.929 . S
H1500 C1438 0.930 . S
H1501 C1441 0.929 . S
H1502 C1442 0.930 . S
H1503 C1446 0.962 . S
H1504 C1446 0.959 . S
H1505 C1446 0.958 . S
C1506 C1507 1.560 . S
C1506 H1567 0.959 . S
C1506 H1568 0.959 . S
C1506 H1569 0.960 . S
C1507 C1506 1.560 . S
C1507 O1562 1.426 . S
C1507 H1566 0.980 . S
C1508 C1509 1.407 1_565 S
C1508 C1513 1.418 . S
C1508 O1562 1.334 . S
C1509 C1508 1.407 1_545 S
C1509 C1510 1.360 . S
C1509 H1570 0.929 . S
C1510 C1509 1.360 . S
C1510 C1511 1.401 1_545 S
C1510 C1514 1.527 . S
C1511 C1510 1.401 1_565 S
C1511 C1512 1.405 . S
C1511 C1544 1.587 1_565 S
C1512 C1511 1.405 . S
C1512 C1513 1.332 . S
C1512 C1515 1.496 . S
C1513 C1508 1.418 . S
C1513 C1512 1.332 . S
C1513 H1571 0.929 . S
C1514 C1510 1.527 . S
C1514 H1572 0.959 . S
C1514 H1573 0.961 . S
C1514 H1574 0.961 . S
C1515 C1512 1.496 . S
C1515 H1575 0.960 . S
C1515 H1576 0.960 . S
C1515 H1577 0.961 . S
C1516 C1517 1.517 . S
C1516 H1579 0.961 1_545 S
C1516 H1580 0.960 . S
C1516 H1581 0.959 . S
C1517 C1516 1.517 . S
C1517 O1565 1.468 . S
C1517 H1578 0.980 1_545 S
C1518 C1519 1.350 1_545 S
C1518 C1523 1.367 . S
C1518 O1565 1.408 . S
C1519 C1518 1.350 1_565 S
C1519 C1520 1.408 . S
C1519 H1582 0.929 . S
C1520 C1519 1.408 . S
C1520 C1521 1.449 1_565 S
C1520 C1524 1.535 . S
C1521 C1520 1.449 1_545 S
C1521 C1522 1.384 . S
C1521 C1546 1.553 . S
C1522 C1521 1.384 . S
C1522 C1523 1.364 . S
C1522 C1525 1.450 . S
C1523 C1518 1.367 . S
C1523 C1522 1.364 . S
C1523 H1583 0.931 . S
C1524 C1520 1.535 . S
C1524 H1584 0.959 . S
C1524 H1585 0.961 . S
C1524 H1586 0.959 . S
C1525 C1522 1.450 . S
C1525 H1587 0.960 . S
C1525 H1588 0.960 . S
C1525 H1589 0.960 . S
C1526 C1527 1.309 . S
C1526 C1531 1.304 . S
C1526 O1564 1.435 . S
C1527 C1526 1.309 . S
C1527 C1528 1.476 1_545 S
C1527 H1591 0.930 1_545 S
C1528 C1527 1.476 1_565 S
C1528 C1529 1.400 1_565 S
C1528 C1532 1.567 . S
C1529 C1528 1.400 1_545 S
C1529 C1530 1.373 . S
C1529 C1551 1.432 . S
C1530 C1529 1.373 . S
C1530 C1531 1.339 . S
C1530 C1533 1.530 . S
C1531 C1526 1.304 . S
C1531 C1530 1.339 . S
C1531 H1592 0.930 . S
C1532 C1528 1.567 . S
C1532 H1593 0.961 . S
C1532 H1594 0.960 . S
C1532 H1595 0.958 . S
C1533 C1530 1.530 . S
C1533 H1596 0.961 . S
C1533 H1597 0.960 . S
C1533 H1598 0.960 . S
C1534 C1535 1.530 1_565 S
C1534 H1600 0.961 . S
C1534 H1601 0.961 . S
C1534 H1602 0.959 . S
C1535 C1534 1.530 1_545 S
C1535 O1563 1.412 1_545 S
C1535 H1599 0.980 . S
C1536 C1537 1.288 . S
C1536 C1541 1.377 1_565 S
C1536 O1563 1.393 . S
C1537 C1536 1.288 . S
C1537 C1538 1.369 . S
C1537 H1603 0.932 . S
C1538 C1537 1.369 . S
C1538 C1539 1.398 1_565 S
C1538 C1542 1.527 . S
C1539 C1538 1.398 1_545 S
C1539 C1540 1.380 . S
C1539 C1553 1.497 . S
C1540 C1539 1.380 . S
C1540 C1541 1.383 . S
C1540 C1543 1.603 . S
C1541 C1536 1.377 1_545 S
C1541 C1540 1.383 . S
C1541 H1604 0.929 . S
C1542 C1538 1.527 . S
C1542 H1605 0.961 . S
C1542 H1606 0.959 . S
C1542 H1607 0.959 . S
C1543 C1540 1.603 . S
C1543 H1608 0.960 . S
C1543 H1609 0.962 . S
C1543 H1610 0.961 . S
C1544 C1511 1.587 1_545 S
C1544 C1545 1.360 . S
C1544 C1557 1.412 . S
C1545 C1544 1.360 . S
C1545 C1546 1.365 . S
C1545 H1611 0.929 . S
C1546 C1521 1.553 . S
C1546 C1545 1.365 . S
C1546 C1547 1.404 . S
C1547 C1546 1.404 . S
C1547 C1548 1.395 . S
C1547 C1558 1.451 . S
C1548 C1547 1.395 . S
C1548 C1549 1.322 . S
C1548 H1612 0.930 . S
C1549 C1548 1.322 . S
C1549 C1550 1.459 . S
C1549 H1613 0.929 . S
C1550 C1549 1.459 . S
C1550 C1551 1.445 . S
C1550 C1559 1.395 . S
C1551 C1529 1.432 . S
C1551 C1550 1.445 . S
C1551 C1552 1.370 . S
C1552 C1551 1.370 . S
C1552 C1553 1.438 . S
C1552 H1614 0.930 . S
C1553 C1539 1.497 . S
C1553 C1552 1.438 . S
C1553 C1554 1.360 . S
C1554 C1553 1.360 . S
C1554 C1555 1.401 . S
C1554 C1559 1.446 . S
C1555 C1554 1.401 . S
C1555 C1556 1.347 . S
C1555 H1615 0.929 . S
C1556 C1555 1.347 . S
C1556 C1557 1.455 . S
C1556 H1616 0.930 . S
C1557 C1544 1.412 . S
C1557 C1556 1.455 . S
C1557 C1558 1.331 . S
C1558 C1547 1.451 . S
C1558 C1557 1.331 . S
C1558 C1559 1.497 . S
C1559 C1550 1.395 . S
C1559 C1554 1.446 . S
C1559 C1558 1.497 . S
C1560 C1561 1.582 . S
C1560 H1617 0.962 . S
C1560 H1618 0.959 . S
C1560 H1619 0.958 . S
C1561 C1560 1.582 . S
C1561 O1564 1.458 . S
C1561 H1590 0.980 . S
O1562 C1507 1.426 . S
O1562 C1508 1.334 . S
O1563 C1535 1.412 1_565 S
O1563 C1536 1.393 . S
O1564 C1526 1.435 . S
O1564 C1561 1.458 . S
O1565 C1517 1.468 . S
O1565 C1518 1.408 . S
H1566 C1507 0.980 . S
H1567 C1506 0.959 . S
H1568 C1506 0.959 . S
H1569 C1506 0.960 . S
H1570 C1509 0.929 . S
H1571 C1513 0.929 . S
H1572 C1514 0.959 . S
H1573 C1514 0.961 . S
H1574 C1514 0.961 . S
H1575 C1515 0.960 . S
H1576 C1515 0.960 . S
H1577 C1515 0.961 . S
H1578 C1517 0.980 1_565 S
H1579 C1516 0.961 1_565 S
H1580 C1516 0.960 . S
H1581 C1516 0.959 . S
H1582 C1519 0.929 . S
H1583 C1523 0.931 . S
H1584 C1524 0.959 . S
H1585 C1524 0.961 . S
H1586 C1524 0.959 . S
H1587 C1525 0.960 . S
H1588 C1525 0.960 . S
H1589 C1525 0.960 . S
H1590 C1561 0.980 . S
H1591 C1527 0.930 1_565 S
H1592 C1531 0.930 . S
H1593 C1532 0.961 . S
H1594 C1532 0.960 . S
H1595 C1532 0.958 . S
H1596 C1533 0.961 . S
H1597 C1533 0.960 . S
H1598 C1533 0.960 . S
H1599 C1535 0.980 . S
H1600 C1534 0.961 . S
H1601 C1534 0.961 . S
H1602 C1534 0.959 . S
H1603 C1537 0.932 . S
H1604 C1541 0.929 . S
H1605 C1542 0.961 . S
H1606 C1542 0.959 . S
H1607 C1542 0.959 . S
H1608 C1543 0.960 . S
H1609 C1543 0.962 . S
H1610 C1543 0.961 . S
H1611 C1545 0.929 . S
H1612 C1548 0.930 . S
H1613 C1549 0.929 . S
H1614 C1552 0.930 . S
H1615 C1555 0.929 . S
H1616 C1556 0.930 . S
H1617 C1560 0.962 . S
H1618 C1560 0.959 . S
H1619 C1560 0.958 . S
C1620 C1621 1.560 . S
C1620 H1681 0.959 . S
C1620 H1682 0.959 . S
C1620 H1683 0.960 . S
C1621 C1620 1.560 . S
C1621 O1676 1.426 . S
C1621 H1680 0.980 1_565 S
C1622 C1623 1.407 1_565 S
C1622 C1627 1.418 . S
C1622 O1676 1.334 . S
C1623 C1622 1.407 1_545 S
C1623 C1624 1.360 . S
C1623 H1684 0.929 . S
C1624 C1623 1.360 . S
C1624 C1625 1.401 . S
C1624 C1628 1.527 . S
C1625 C1624 1.401 . S
C1625 C1626 1.405 1_545 S
C1625 C1658 1.587 . S
C1626 C1625 1.405 1_565 S
C1626 C1627 1.332 . S
C1626 C1629 1.496 . S
C1627 C1622 1.418 . S
C1627 C1626 1.332 . S
C1627 H1685 0.929 . S
C1628 C1624 1.527 . S
C1628 H1686 0.959 . S
C1628 H1687 0.961 . S
C1628 H1688 0.961 . S
C1629 C1626 1.496 . S
C1629 H1689 0.960 . S
C1629 H1690 0.960 . S
C1629 H1691 0.961 . S
C1630 C1631 1.517 . S
C1630 H1693 0.961 . S
C1630 H1694 0.960 . S
C1630 H1695 0.959 . S
C1631 C1630 1.517 . S
C1631 O1679 1.468 . S
C1631 H1692 0.980 . S
C1632 C1633 1.349 . S
C1632 C1637 1.367 . S
C1632 O1679 1.408 . S
C1633 C1632 1.349 . S
C1633 C1634 1.407 . S
C1633 H1696 0.941 . S
C1634 C1633 1.407 . S
C1634 C1635 1.449 . S
C1634 C1638 1.535 1_545 S
C1635 C1634 1.449 . S
C1635 C1636 1.384 . S
C1635 C1660 1.553 . S
C1636 C1635 1.384 . S
C1636 C1637 1.364 . S
C1636 C1639 1.450 . S
C1637 C1632 1.367 . S
C1637 C1636 1.364 . S
C1637 H1697 0.931 . S
C1638 C1634 1.535 1_565 S
C1638 H1698 0.959 . S
C1638 H1699 0.961 . S
C1638 H1700 0.959 . S
C1639 C1636 1.450 . S
C1639 H1701 0.960 . S
C1639 H1702 0.960 . S
C1639 H1703 0.960 . S
C1640 C1641 1.309 1_545 S
C1640 C1645 1.304 . S
C1640 O1678 1.435 . S
C1641 C1640 1.309 1_565 S
C1641 C1642 1.476 . S
C1641 H1705 0.930 . S
C1642 C1641 1.476 . S
C1642 C1643 1.400 1_565 S
C1642 C1646 1.567 . S
C1643 C1642 1.400 1_545 S
C1643 C1644 1.373 . S
C1643 C1665 1.432 . S
C1644 C1643 1.373 . S
C1644 C1645 1.339 . S
C1644 C1647 1.530 . S
C1645 C1640 1.304 . S
C1645 C1644 1.339 . S
C1645 H1706 0.930 . S
C1646 C1642 1.567 . S
C1646 H1707 0.961 . S
C1646 H1708 0.960 . S
C1646 H1709 0.958 . S
C1647 C1644 1.530 . S
C1647 H1710 0.961 . S
C1647 H1711 0.960 . S
C1647 H1712 0.960 . S
C1648 C1649 1.530 . S
C1648 H1714 0.961 . S
C1648 H1715 0.961 . S
C1648 H1716 0.959 . S
C1649 C1648 1.530 . S
C1649 O1677 1.412 . S
C1649 H1713 0.980 . S
C1650 C1651 1.288 . S
C1650 C1655 1.377 1_565 S
C1650 O1677 1.393 . S
C1651 C1650 1.288 . S
C1651 C1652 1.369 . S
C1651 H1717 0.932 . S
C1652 C1651 1.369 . S
C1652 C1653 1.398 . S
C1652 C1656 1.527 . S
C1653 C1652 1.398 . S
C1653 C1654 1.380 1_565 S
C1653 C1667 1.497 1_565 S
C1654 C1653 1.380 1_545 S
C1654 C1655 1.383 . S
C1654 C1657 1.603 . S
C1655 C1650 1.377 1_545 S
C1655 C1654 1.383 . S
C1655 H1718 0.929 . S
C1656 C1652 1.527 . S
C1656 H1719 0.961 . S
C1656 H1720 0.959 . S
C1656 H1721 0.959 . S
C1657 C1654 1.603 . S
C1657 H1722 0.960 . S
C1657 H1723 0.962 . S
C1657 H1724 0.961 . S
C1658 C1625 1.587 . S
C1658 C1659 1.360 . S
C1658 C1671 1.412 . S
C1659 C1658 1.360 . S
C1659 C1660 1.365 . S
C1659 H1725 0.929 . S
C1660 C1635 1.553 . S
C1660 C1659 1.365 . S
C1660 C1661 1.404 . S
C1661 C1660 1.404 . S
C1661 C1662 1.395 . S
C1661 C1672 1.451 . S
C1662 C1661 1.395 . S
C1662 C1663 1.322 . S
C1662 H1726 0.930 . S
C1663 C1662 1.322 . S
C1663 C1664 1.459 . S
C1663 H1727 0.929 . S
C1664 C1663 1.459 . S
C1664 C1665 1.445 . S
C1664 C1673 1.395 . S
C1665 C1643 1.432 . S
C1665 C1664 1.445 . S
C1665 C1666 1.370 . S
C1666 C1665 1.370 . S
C1666 C1667 1.438 . S
C1666 H1728 0.930 . S
C1667 C1653 1.497 1_545 S
C1667 C1666 1.438 . S
C1667 C1668 1.360 . S
C1668 C1667 1.360 . S
C1668 C1669 1.401 . S
C1668 C1673 1.446 . S
C1669 C1668 1.401 . S
C1669 C1670 1.347 . S
C1669 H1729 0.933 . S
C1670 C1669 1.347 . S
C1670 C1671 1.455 . S
C1670 H1730 0.930 . S
C1671 C1658 1.412 . S
C1671 C1670 1.455 . S
C1671 C1672 1.331 . S
C1672 C1661 1.451 . S
C1672 C1671 1.331 . S
C1672 C1673 1.497 . S
C1673 C1664 1.395 . S
C1673 C1668 1.446 . S
C1673 C1672 1.497 . S
C1674 C1675 1.582 . S
C1674 H1731 0.962 . S
C1674 H1732 0.959 . S
C1674 H1733 0.958 . S
C1675 C1674 1.582 . S
C1675 O1678 1.458 . S
C1675 H1704 0.980 1_545 S
O1676 C1621 1.426 . S
O1676 C1622 1.334 . S
O1677 C1649 1.412 . S
O1677 C1650 1.393 . S
O1678 C1640 1.435 . S
O1678 C1675 1.458 . S
O1679 C1631 1.468 . S
O1679 C1632 1.408 . S
H1680 C1621 0.980 1_545 S
H1681 C1620 0.959 . S
H1682 C1620 0.959 . S
H1683 C1620 0.960 . S
H1684 C1623 0.929 . S
H1685 C1627 0.929 . S
H1686 C1628 0.959 . S
H1687 C1628 0.961 . S
H1688 C1628 0.961 . S
H1689 C1629 0.960 . S
H1690 C1629 0.960 . S
H1691 C1629 0.961 . S
H1692 C1631 0.980 . S
H1693 C1630 0.961 . S
H1694 C1630 0.960 . S
H1695 C1630 0.959 . S
H1696 C1633 0.941 . S
H1697 C1637 0.931 . S
H1698 C1638 0.959 . S
H1699 C1638 0.961 . S
H1700 C1638 0.959 . S
H1701 C1639 0.960 . S
H1702 C1639 0.960 . S
H1703 C1639 0.960 . S
H1704 C1675 0.980 1_565 S
H1705 C1641 0.930 . S
H1706 C1645 0.930 . S
H1707 C1646 0.961 . S
H1708 C1646 0.960 . S
H1709 C1646 0.958 . S
H1710 C1647 0.961 . S
H1711 C1647 0.960 . S
H1712 C1647 0.960 . S
H1713 C1649 0.980 . S
H1714 C1648 0.961 . S
H1715 C1648 0.961 . S
H1716 C1648 0.959 . S
H1717 C1651 0.932 . S
H1718 C1655 0.929 . S
H1719 C1656 0.961 . S
H1720 C1656 0.959 . S
H1721 C1656 0.959 . S
H1722 C1657 0.960 . S
H1723 C1657 0.962 . S
H1724 C1657 0.961 . S
H1725 C1659 0.929 . S
H1726 C1662 0.930 . S
H1727 C1663 0.929 . S
H1728 C1666 0.930 . S
H1729 C1669 0.933 . S
H1730 C1670 0.930 . S
H1731 C1674 0.962 . S
H1732 C1674 0.959 . S
H1733 C1674 0.958 . S
C1734 C1735 1.560 . S
C1734 H1795 0.959 . S
C1734 H1796 0.959 . S
C1734 H1797 0.960 . S
C1735 C1734 1.560 . S
C1735 O1790 1.426 . S
C1735 H1794 0.980 1_455 S
C1736 C1737 1.407 1_455 S
C1736 C1741 1.418 . S
C1736 O1790 1.334 . S
C1737 C1736 1.407 1_655 S
C1737 C1738 1.360 . S
C1737 H1798 0.929 . S
C1738 C1737 1.360 . S
C1738 C1739 1.401 . S
C1738 C1742 1.527 . S
C1739 C1738 1.401 . S
C1739 C1740 1.405 1_655 S
C1739 C1772 1.587 . S
C1740 C1739 1.405 1_455 S
C1740 C1741 1.332 . S
C1740 C1743 1.496 . S
C1741 C1736 1.418 . S
C1741 C1740 1.332 . S
C1741 H1799 0.929 . S
C1742 C1738 1.527 . S
C1742 H1800 0.959 . S
C1742 H1801 0.961 . S
C1742 H1802 0.961 . S
C1743 C1740 1.496 . S
C1743 H1803 0.960 . S
C1743 H1804 0.960 . S
C1743 H1805 0.961 . S
C1744 C1745 1.517 . S
C1744 H1807 0.961 . S
C1744 H1808 0.960 . S
C1744 H1809 0.959 . S
C1745 C1744 1.517 . S
C1745 O1793 1.468 . S
C1745 H1806 0.980 . S
C1746 C1747 1.349 . S
C1746 C1751 1.367 . S
C1746 O1793 1.408 . S
C1747 C1746 1.349 . S
C1747 C1748 1.407 . S
C1747 H1810 0.917 1_655 S
C1748 C1747 1.407 . S
C1748 C1749 1.449 . S
C1748 C1752 1.535 1_655 S
C1749 C1748 1.449 . S
C1749 C1750 1.384 . S
C1749 C1774 1.553 . S
C1750 C1749 1.384 . S
C1750 C1751 1.364 . S
C1750 C1753 1.450 . S
C1751 C1746 1.367 . S
C1751 C1750 1.364 . S
C1751 H1811 0.931 . S
C1752 C1748 1.535 1_455 S
C1752 H1812 0.959 . S
C1752 H1813 0.961 . S
C1752 H1814 0.959 . S
C1753 C1750 1.450 . S
C1753 H1815 0.960 . S
C1753 H1816 0.960 . S
C1753 H1817 0.960 . S
C1754 C1755 1.309 1_655 S
C1754 C1759 1.304 . S
C1754 O1792 1.435 . S
C1755 C1754 1.309 1_455 S
C1755 C1756 1.476 . S
C1755 H1819 0.930 . S
C1756 C1755 1.476 . S
C1756 C1757 1.400 1_455 S
C1756 C1760 1.567 . S
C1757 C1756 1.400 1_655 S
C1757 C1758 1.373 . S
C1757 C1779 1.432 . S
C1758 C1757 1.373 . S
C1758 C1759 1.339 . S
C1758 C1761 1.530 . S
C1759 C1754 1.304 . S
C1759 C1758 1.339 . S
C1759 H1820 0.930 . S
C1760 C1756 1.567 . S
C1760 H1821 0.961 . S
C1760 H1822 0.960 . S
C1760 H1823 0.958 . S
C1761 C1758 1.530 . S
C1761 H1824 0.961 . S
C1761 H1825 0.960 . S
C1761 H1826 0.960 . S
C1762 C1763 1.530 . S
C1762 H1828 0.961 . S
C1762 H1829 0.961 . S
C1762 H1830 0.959 . S
C1763 C1762 1.530 . S
C1763 O1791 1.412 . S
C1763 H1827 0.983 1_455 S
C1764 C1765 1.288 . S
C1764 C1769 1.377 1_455 S
C1764 O1791 1.393 . S
C1765 C1764 1.288 . S
C1765 C1766 1.369 . S
C1765 H1831 0.932 . S
C1766 C1765 1.369 . S
C1766 C1767 1.398 . S
C1766 C1770 1.527 . S
C1767 C1766 1.398 . S
C1767 C1768 1.380 1_455 S
C1767 C1781 1.497 1_455 S
C1768 C1767 1.380 1_655 S
C1768 C1769 1.383 . S
C1768 C1771 1.603 . S
C1769 C1764 1.377 1_655 S
C1769 C1768 1.383 . S
C1769 H1832 0.929 . S
C1770 C1766 1.527 . S
C1770 H1833 0.961 . S
C1770 H1834 0.959 . S
C1770 H1835 0.959 . S
C1771 C1768 1.603 . S
C1771 H1836 0.960 . S
C1771 H1837 0.962 . S
C1771 H1838 0.961 . S
C1772 C1739 1.587 . S
C1772 C1773 1.360 . S
C1772 C1785 1.412 . S
C1773 C1772 1.360 . S
C1773 C1774 1.365 . S
C1773 H1839 0.929 . S
C1774 C1749 1.553 . S
C1774 C1773 1.365 . S
C1774 C1775 1.404 . S
C1775 C1774 1.404 . S
C1775 C1776 1.395 . S
C1775 C1786 1.451 . S
C1776 C1775 1.395 . S
C1776 C1777 1.322 . S
C1776 H1840 0.930 . S
C1777 C1776 1.322 . S
C1777 C1778 1.459 . S
C1777 H1841 0.929 . S
C1778 C1777 1.459 . S
C1778 C1779 1.445 . S
C1778 C1787 1.395 . S
C1779 C1757 1.432 . S
C1779 C1778 1.445 . S
C1779 C1780 1.370 . S
C1780 C1779 1.370 . S
C1780 C1781 1.438 . S
C1780 H1842 0.930 . S
C1781 C1767 1.497 1_655 S
C1781 C1780 1.438 . S
C1781 C1782 1.360 . S
C1782 C1781 1.360 . S
C1782 C1783 1.401 . S
C1782 C1787 1.446 . S
C1783 C1782 1.401 . S
C1783 C1784 1.347 . S
C1783 H1843 0.929 . S
C1784 C1783 1.347 . S
C1784 C1785 1.455 . S
C1784 H1844 0.930 . S
C1785 C1772 1.412 . S
C1785 C1784 1.455 . S
C1785 C1786 1.331 . S
C1786 C1775 1.451 . S
C1786 C1785 1.331 . S
C1786 C1787 1.497 . S
C1787 C1778 1.395 . S
C1787 C1782 1.446 . S
C1787 C1786 1.497 . S
C1788 C1789 1.582 1_655 S
C1788 H1845 0.915 1_655 S
C1788 H1846 0.959 . S
C1788 H1847 0.958 . S
C1789 C1788 1.582 1_455 S
C1789 O1792 1.458 1_455 S
C1789 H1818 0.980 . S
O1790 C1735 1.426 . S
O1790 C1736 1.334 . S
O1791 C1763 1.412 . S
O1791 C1764 1.393 . S
O1792 C1754 1.435 . S
O1792 C1789 1.458 1_655 S
O1793 C1745 1.468 . S
O1793 C1746 1.408 . S
H1794 C1735 0.980 1_655 S
H1795 C1734 0.959 . S
H1796 C1734 0.959 . S
H1797 C1734 0.960 . S
H1798 C1737 0.929 . S
H1799 C1741 0.929 . S
H1800 C1742 0.959 . S
H1801 C1742 0.961 . S
H1802 C1742 0.961 . S
H1803 C1743 0.960 . S
H1804 C1743 0.960 . S
H1805 C1743 0.961 . S
H1806 C1745 0.980 . S
H1807 C1744 0.961 . S
H1808 C1744 0.960 . S
H1809 C1744 0.959 . S
H1810 C1747 0.917 1_455 S
H1811 C1751 0.931 . S
H1812 C1752 0.959 . S
H1813 C1752 0.961 . S
H1814 C1752 0.959 . S
H1815 C1753 0.960 . S
H1816 C1753 0.960 . S
H1817 C1753 0.960 . S
H1818 C1789 0.980 . S
H1819 C1755 0.930 . S
H1820 C1759 0.930 . S
H1821 C1760 0.961 . S
H1822 C1760 0.960 . S
H1823 C1760 0.958 . S
H1824 C1761 0.961 . S
H1825 C1761 0.960 . S
H1826 C1761 0.960 . S
H1827 C1763 0.983 1_655 S
H1828 C1762 0.961 . S
H1829 C1762 0.961 . S
H1830 C1762 0.959 . S
H1831 C1765 0.932 . S
H1832 C1769 0.929 . S
H1833 C1770 0.961 . S
H1834 C1770 0.959 . S
H1835 C1770 0.959 . S
H1836 C1771 0.960 . S
H1837 C1771 0.962 . S
H1838 C1771 0.961 . S
H1839 C1773 0.929 . S
H1840 C1776 0.930 . S
H1841 C1777 0.929 . S
H1842 C1780 0.930 . S
H1843 C1783 0.929 . S
H1844 C1784 0.930 . S
H1845 C1788 0.915 1_455 S
H1846 C1788 0.959 . S
H1847 C1788 0.958 . S
C1848 C1849 1.560 . S
C1848 H1909 0.959 . S
C1848 H1910 0.959 . S
C1848 H1911 0.960 . S
C1849 C1848 1.560 . S
C1849 O1904 1.426 . S
C1849 H1908 0.980 . S
C1850 C1851 1.407 . S
C1850 C1855 1.418 . S
C1850 O1904 1.334 . S
C1851 C1850 1.407 . S
C1851 C1852 1.360 . S
C1851 H1912 0.929 . S
C1852 C1851 1.360 . S
C1852 C1853 1.401 . S
C1852 C1856 1.527 . S
C1853 C1852 1.401 . S
C1853 C1854 1.405 . S
C1853 C1886 1.587 . S
C1854 C1853 1.405 . S
C1854 C1855 1.332 . S
C1854 C1857 1.496 . S
C1855 C1850 1.418 . S
C1855 C1854 1.332 . S
C1855 H1913 0.929 . S
C1856 C1852 1.527 . S
C1856 H1914 0.959 . S
C1856 H1915 0.961 . S
C1856 H1916 0.961 . S
C1857 C1854 1.496 . S
C1857 H1917 0.960 . S
C1857 H1918 0.960 . S
C1857 H1919 0.961 . S
C1858 C1859 1.517 . S
C1858 H1921 0.961 . S
C1858 H1922 0.960 . S
C1858 H1923 0.959 . S
C1859 C1858 1.517 . S
C1859 O1907 1.468 . S
C1859 H1920 0.980 . S
C1860 C1861 1.349 . S
C1860 C1865 1.367 . S
C1860 O1907 1.408 . S
C1861 C1860 1.349 . S
C1861 C1862 1.407 . S
C1861 H1924 0.930 . S
C1862 C1861 1.407 . S
C1862 C1863 1.449 . S
C1862 C1866 1.535 . S
C1863 C1862 1.449 . S
C1863 C1864 1.384 . S
C1863 C1888 1.553 . S
C1864 C1863 1.384 . S
C1864 C1865 1.364 . S
C1864 C1867 1.450 . S
C1865 C1860 1.367 . S
C1865 C1864 1.364 . S
C1865 H1925 0.931 . S
C1866 C1862 1.535 . S
C1866 H1926 0.959 . S
C1866 H1927 0.961 . S
C1866 H1928 0.959 . S
C1867 C1864 1.450 . S
C1867 H1929 0.960 . S
C1867 H1930 0.960 . S
C1867 H1931 0.960 . S
C1868 C1869 1.309 . S
C1868 C1873 1.304 . S
C1868 O1906 1.435 . S
C1869 C1868 1.309 . S
C1869 C1870 1.476 . S
C1869 H1933 0.930 . S
C1870 C1869 1.476 . S
C1870 C1871 1.400 . S
C1870 C1874 1.567 . S
C1871 C1870 1.400 . S
C1871 C1872 1.373 . S
C1871 C1893 1.432 . S
C1872 C1871 1.373 . S
C1872 C1873 1.339 . S
C1872 C1875 1.530 . S
C1873 C1868 1.304 . S
C1873 C1872 1.339 . S
C1873 H1934 0.930 . S
C1874 C1870 1.567 . S
C1874 H1935 0.961 . S
C1874 H1936 0.960 . S
C1874 H1937 0.958 . S
C1875 C1872 1.530 . S
C1875 H1938 0.961 . S
C1875 H1939 0.960 . S
C1875 H1940 0.960 . S
C1876 C1877 1.530 . S
C1876 H1942 0.961 . S
C1876 H1943 0.961 . S
C1876 H1944 0.959 . S
C1877 C1876 1.530 . S
C1877 O1905 1.412 . S
C1877 H1941 0.980 . S
C1878 C1879 1.288 . S
C1878 C1883 1.377 . S
C1878 O1905 1.393 . S
C1879 C1878 1.288 . S
C1879 C1880 1.369 . S
C1879 H1945 0.932 . S
C1880 C1879 1.369 . S
C1880 C1881 1.398 . S
C1880 C1884 1.527 . S
C1881 C1880 1.398 . S
C1881 C1882 1.380 . S
C1881 C1895 1.497 . S
C1882 C1881 1.380 . S
C1882 C1883 1.383 . S
C1882 C1885 1.603 . S
C1883 C1878 1.377 . S
C1883 C1882 1.383 . S
C1883 H1946 0.929 . S
C1884 C1880 1.527 . S
C1884 H1947 0.961 . S
C1884 H1948 0.959 . S
C1884 H1949 0.959 . S
C1885 C1882 1.603 . S
C1885 H1950 0.960 . S
C1885 H1951 0.962 . S
C1885 H1952 0.961 . S
C1886 C1853 1.587 . S
C1886 C1887 1.360 . S
C1886 C1899 1.412 . S
C1887 C1886 1.360 . S
C1887 C1888 1.365 . S
C1887 H1953 0.929 . S
C1888 C1863 1.553 . S
C1888 C1887 1.365 . S
C1888 C1889 1.404 . S
C1889 C1888 1.404 . S
C1889 C1890 1.395 . S
C1889 C1900 1.451 . S
C1890 C1889 1.395 . S
C1890 C1891 1.322 . S
C1890 H1954 0.930 . S
C1891 C1890 1.322 . S
C1891 C1892 1.459 . S
C1891 H1955 0.929 . S
C1892 C1891 1.459 . S
C1892 C1893 1.445 . S
C1892 C1901 1.395 . S
C1893 C1871 1.432 . S
C1893 C1892 1.445 . S
C1893 C1894 1.370 . S
C1894 C1893 1.370 . S
C1894 C1895 1.438 . S
C1894 H1956 0.930 . S
C1895 C1881 1.497 . S
C1895 C1894 1.438 . S
C1895 C1896 1.360 . S
C1896 C1895 1.360 . S
C1896 C1897 1.401 . S
C1896 C1901 1.446 . S
C1897 C1896 1.401 . S
C1897 C1898 1.347 . S
C1897 H1957 0.929 . S
C1898 C1897 1.347 . S
C1898 C1899 1.455 . S
C1898 H1958 0.930 . S
C1899 C1886 1.412 . S
C1899 C1898 1.455 . S
C1899 C1900 1.331 . S
C1900 C1889 1.451 . S
C1900 C1899 1.331 . S
C1900 C1901 1.497 . S
C1901 C1892 1.395 . S
C1901 C1896 1.446 . S
C1901 C1900 1.497 . S
C1902 C1903 1.582 . S
C1902 H1959 0.962 . S
C1902 H1960 0.959 . S
C1902 H1961 0.958 . S
C1903 C1902 1.582 . S
C1903 O1906 1.458 . S
C1903 H1932 0.980 . S
O1904 C1849 1.426 . S
O1904 C1850 1.334 . S
O1905 C1877 1.412 . S
O1905 C1878 1.393 . S
O1906 C1868 1.435 . S
O1906 C1903 1.458 . S
O1907 C1859 1.468 . S
O1907 C1860 1.408 . S
H1908 C1849 0.980 . S
H1909 C1848 0.959 . S
H1910 C1848 0.959 . S
H1911 C1848 0.960 . S
H1912 C1851 0.929 . S
H1913 C1855 0.929 . S
H1914 C1856 0.959 . S
H1915 C1856 0.961 . S
H1916 C1856 0.961 . S
H1917 C1857 0.960 . S
H1918 C1857 0.960 . S
H1919 C1857 0.961 . S
H1920 C1859 0.980 . S
H1921 C1858 0.961 . S
H1922 C1858 0.960 . S
H1923 C1858 0.959 . S
H1924 C1861 0.930 . S
H1925 C1865 0.931 . S
H1926 C1866 0.959 . S
H1927 C1866 0.961 . S
H1928 C1866 0.959 . S
H1929 C1867 0.960 . S
H1930 C1867 0.960 . S
H1931 C1867 0.960 . S
H1932 C1903 0.980 . S
H1933 C1869 0.930 . S
H1934 C1873 0.930 . S
H1935 C1874 0.961 . S
H1936 C1874 0.960 . S
H1937 C1874 0.958 . S
H1938 C1875 0.961 . S
H1939 C1875 0.960 . S
H1940 C1875 0.960 . S
H1941 C1877 0.980 . S
H1942 C1876 0.961 . S
H1943 C1876 0.961 . S
H1944 C1876 0.959 . S
H1945 C1879 0.932 . S
H1946 C1883 0.929 . S
H1947 C1884 0.961 . S
H1948 C1884 0.959 . S
H1949 C1884 0.959 . S
H1950 C1885 0.960 . S
H1951 C1885 0.962 . S
H1952 C1885 0.961 . S
H1953 C1887 0.929 . S
H1954 C1890 0.930 . S
H1955 C1891 0.929 . S
H1956 C1894 0.930 . S
H1957 C1897 0.929 . S
H1958 C1898 0.930 . S
H1959 C1902 0.962 . S
H1960 C1902 0.959 . S
H1961 C1902 0.958 . S
C1962 C1963 1.560 . S
C1962 H2023 0.959 . S
C1962 H2024 0.959 . S
C1962 H2025 0.960 . S
C1963 C1962 1.560 . S
C1963 O2018 1.426 . S
C1963 H2022 0.980 . S
C1964 C1965 1.407 . S
C1964 C1969 1.418 . S
C1964 O2018 1.334 . S
C1965 C1964 1.407 . S
C1965 C1966 1.360 . S
C1965 H2026 0.929 . S
C1966 C1965 1.360 . S
C1966 C1967 1.401 . S
C1966 C1970 1.527 . S
C1967 C1966 1.401 . S
C1967 C1968 1.405 . S
C1967 C2000 1.587 . S
C1968 C1967 1.405 . S
C1968 C1969 1.332 . S
C1968 C1971 1.496 . S
C1969 C1964 1.418 . S
C1969 C1968 1.332 . S
C1969 H2027 0.929 . S
C1970 C1966 1.527 . S
C1970 H2028 0.959 . S
C1970 H2029 0.961 . S
C1970 H2030 0.961 . S
C1971 C1968 1.496 . S
C1971 H2031 0.960 . S
C1971 H2032 0.960 . S
C1971 H2033 0.961 . S
C1972 C1973 1.517 . S
C1972 H2035 0.961 . S
C1972 H2036 0.960 . S
C1972 H2037 0.959 . S
C1973 C1972 1.517 . S
C1973 O2021 1.468 . S
C1973 H2034 0.980 . S
C1974 C1975 1.349 . S
C1974 C1979 1.367 . S
C1974 O2021 1.408 . S
C1975 C1974 1.349 . S
C1975 C1976 1.407 . S
C1975 H2038 0.930 . S
C1976 C1975 1.407 . S
C1976 C1977 1.449 . S
C1976 C1980 1.535 . S
C1977 C1976 1.449 . S
C1977 C1978 1.384 . S
C1977 C2002 1.553 . S
C1978 C1977 1.384 . S
C1978 C1979 1.364 . S
C1978 C1981 1.450 . S
C1979 C1974 1.367 . S
C1979 C1978 1.364 . S
C1979 H2039 0.931 . S
C1980 C1976 1.535 . S
C1980 H2040 0.959 . S
C1980 H2041 0.961 . S
C1980 H2042 0.959 . S
C1981 C1978 1.450 . S
C1981 H2043 0.960 . S
C1981 H2044 0.960 . S
C1981 H2045 0.960 . S
C1982 C1983 1.309 . S
C1982 C1987 1.304 . S
C1982 O2020 1.435 . S
C1983 C1982 1.309 . S
C1983 C1984 1.476 . S
C1983 H2047 0.930 . S
C1984 C1983 1.476 . S
C1984 C1985 1.400 . S
C1984 C1988 1.567 . S
C1985 C1984 1.400 . S
C1985 C1986 1.373 . S
C1985 C2007 1.432 . S
C1986 C1985 1.373 . S
C1986 C1987 1.339 . S
C1986 C1989 1.530 . S
C1987 C1982 1.304 . S
C1987 C1986 1.339 . S
C1987 H2048 0.930 . S
C1988 C1984 1.567 . S
C1988 H2049 0.961 . S
C1988 H2050 0.960 . S
C1988 H2051 0.958 . S
C1989 C1986 1.530 . S
C1989 H2052 0.961 . S
C1989 H2053 0.960 . S
C1989 H2054 0.960 . S
C1990 C1991 1.530 . S
C1990 H2056 0.961 . S
C1990 H2057 0.961 . S
C1990 H2058 0.959 . S
C1991 C1990 1.530 . S
C1991 O2019 1.412 . S
C1991 H2055 0.980 . S
C1992 C1993 1.288 . S
C1992 C1997 1.377 . S
C1992 O2019 1.393 . S
C1993 C1992 1.288 . S
C1993 C1994 1.369 . S
C1993 H2059 0.932 . S
C1994 C1993 1.369 . S
C1994 C1995 1.398 . S
C1994 C1998 1.527 . S
C1995 C1994 1.398 . S
C1995 C1996 1.380 . S
C1995 C2009 1.497 . S
C1996 C1995 1.380 . S
C1996 C1997 1.383 . S
C1996 C1999 1.603 . S
C1997 C1992 1.377 . S
C1997 C1996 1.383 . S
C1997 H2060 0.929 . S
C1998 C1994 1.527 . S
C1998 H2061 0.961 . S
C1998 H2062 0.959 . S
C1998 H2063 0.959 . S
C1999 C1996 1.603 . S
C1999 H2064 0.960 . S
C1999 H2065 0.962 . S
C1999 H2066 0.961 . S
C2000 C1967 1.587 . S
C2000 C2001 1.360 . S
C2000 C2013 1.412 . S
C2001 C2000 1.360 . S
C2001 C2002 1.365 . S
C2001 H2067 0.929 . S
C2002 C1977 1.553 . S
C2002 C2001 1.365 . S
C2002 C2003 1.404 . S
C2003 C2002 1.404 . S
C2003 C2004 1.395 . S
C2003 C2014 1.451 . S
C2004 C2003 1.395 . S
C2004 C2005 1.322 . S
C2004 H2068 0.930 . S
C2005 C2004 1.322 . S
C2005 C2006 1.459 . S
C2005 H2069 0.929 . S
C2006 C2005 1.459 . S
C2006 C2007 1.445 . S
C2006 C2015 1.395 . S
C2007 C1985 1.432 . S
C2007 C2006 1.445 . S
C2007 C2008 1.370 . S
C2008 C2007 1.370 . S
C2008 C2009 1.438 . S
C2008 H2070 0.930 . S
C2009 C1995 1.497 . S
C2009 C2008 1.438 . S
C2009 C2010 1.360 . S
C2010 C2009 1.360 . S
C2010 C2011 1.401 . S
C2010 C2015 1.446 . S
C2011 C2010 1.401 . S
C2011 C2012 1.347 . S
C2011 H2071 0.929 . S
C2012 C2011 1.347 . S
C2012 C2013 1.455 . S
C2012 H2072 0.930 . S
C2013 C2000 1.412 . S
C2013 C2012 1.455 . S
C2013 C2014 1.331 . S
C2014 C2003 1.451 . S
C2014 C2013 1.331 . S
C2014 C2015 1.497 . S
C2015 C2006 1.395 . S
C2015 C2010 1.446 . S
C2015 C2014 1.497 . S
C2016 C2017 1.582 . S
C2016 H2073 0.962 . S
C2016 H2074 0.959 . S
C2016 H2075 0.958 . S
C2017 C2016 1.582 . S
C2017 O2020 1.458 . S
C2017 H2046 0.980 . S
O2018 C1963 1.426 . S
O2018 C1964 1.334 . S
O2019 C1991 1.412 . S
O2019 C1992 1.393 . S
O2020 C1982 1.435 . S
O2020 C2017 1.458 . S
O2021 C1973 1.468 . S
O2021 C1974 1.408 . S
H2022 C1963 0.980 . S
H2023 C1962 0.959 . S
H2024 C1962 0.959 . S
H2025 C1962 0.960 . S
H2026 C1965 0.929 . S
H2027 C1969 0.929 . S
H2028 C1970 0.959 . S
H2029 C1970 0.961 . S
H2030 C1970 0.961 . S
H2031 C1971 0.960 . S
H2032 C1971 0.960 . S
H2033 C1971 0.961 . S
H2034 C1973 0.980 . S
H2035 C1972 0.961 . S
H2036 C1972 0.960 . S
H2037 C1972 0.959 . S
H2038 C1975 0.930 . S
H2039 C1979 0.931 . S
H2040 C1980 0.959 . S
H2041 C1980 0.961 . S
H2042 C1980 0.959 . S
H2043 C1981 0.960 . S
H2044 C1981 0.960 . S
H2045 C1981 0.960 . S
H2046 C2017 0.980 . S
H2047 C1983 0.930 . S
H2048 C1987 0.930 . S
H2049 C1988 0.961 . S
H2050 C1988 0.960 . S
H2051 C1988 0.958 . S
H2052 C1989 0.961 . S
H2053 C1989 0.960 . S
H2054 C1989 0.960 . S
H2055 C1991 0.980 . S
H2056 C1990 0.961 . S
H2057 C1990 0.961 . S
H2058 C1990 0.959 . S
H2059 C1993 0.932 . S
H2060 C1997 0.929 . S
H2061 C1998 0.961 . S
H2062 C1998 0.959 . S
H2063 C1998 0.959 . S
H2064 C1999 0.960 . S
H2065 C1999 0.962 . S
H2066 C1999 0.961 . S
H2067 C2001 0.929 . S
H2068 C2004 0.930 . S
H2069 C2005 0.929 . S
H2070 C2008 0.930 . S
H2071 C2011 0.929 . S
H2072 C2012 0.930 . S
H2073 C2016 0.962 . S
H2074 C2016 0.959 . S
H2075 C2016 0.958 . S
C2076 C2077 1.560 . S
C2076 H2137 0.959 . S
C2076 H2138 0.959 . S
C2076 H2139 0.960 . S
C2077 C2076 1.560 . S
C2077 O2132 1.426 . S
C2077 H2136 0.980 . S
C2078 C2079 1.407 . S
C2078 C2083 1.418 . S
C2078 O2132 1.334 . S
C2079 C2078 1.407 . S
C2079 C2080 1.360 . S
C2079 H2140 0.929 . S
C2080 C2079 1.360 . S
C2080 C2081 1.401 . S
C2080 C2084 1.527 . S
C2081 C2080 1.401 . S
C2081 C2082 1.405 . S
C2081 C2114 1.587 . S
C2082 C2081 1.405 . S
C2082 C2083 1.332 . S
C2082 C2085 1.496 . S
C2083 C2078 1.418 . S
C2083 C2082 1.332 . S
C2083 H2141 0.929 . S
C2084 C2080 1.527 . S
C2084 H2142 0.959 . S
C2084 H2143 0.961 . S
C2084 H2144 0.961 . S
C2085 C2082 1.496 . S
C2085 H2145 0.960 . S
C2085 H2146 0.960 . S
C2085 H2147 0.961 . S
C2086 C2087 1.517 . S
C2086 H2149 0.961 . S
C2086 H2150 0.960 . S
C2086 H2151 0.959 . S
C2087 C2086 1.517 . S
C2087 O2135 1.468 . S
C2087 H2148 0.980 . S
C2088 C2089 1.349 . S
C2088 C2093 1.367 . S
C2088 O2135 1.408 . S
C2089 C2088 1.349 . S
C2089 C2090 1.407 . S
C2089 H2152 0.930 . S
C2090 C2089 1.407 . S
C2090 C2091 1.449 . S
C2090 C2094 1.535 . S
C2091 C2090 1.449 . S
C2091 C2092 1.384 . S
C2091 C2116 1.553 . S
C2092 C2091 1.384 . S
C2092 C2093 1.364 . S
C2092 C2095 1.450 . S
C2093 C2088 1.367 . S
C2093 C2092 1.364 . S
C2093 H2153 0.931 . S
C2094 C2090 1.535 . S
C2094 H2154 0.959 . S
C2094 H2155 0.961 . S
C2094 H2156 0.959 . S
C2095 C2092 1.450 . S
C2095 H2157 0.960 . S
C2095 H2158 0.960 . S
C2095 H2159 0.960 . S
C2096 C2097 1.309 . S
C2096 C2101 1.304 . S
C2096 O2134 1.435 . S
C2097 C2096 1.309 . S
C2097 C2098 1.476 . S
C2097 H2161 0.930 . S
C2098 C2097 1.476 . S
C2098 C2099 1.400 . S
C2098 C2102 1.567 . S
C2099 C2098 1.400 . S
C2099 C2100 1.373 . S
C2099 C2121 1.432 . S
C2100 C2099 1.373 . S
C2100 C2101 1.339 . S
C2100 C2103 1.530 . S
C2101 C2096 1.304 . S
C2101 C2100 1.339 . S
C2101 H2162 0.930 . S
C2102 C2098 1.567 . S
C2102 H2163 0.961 . S
C2102 H2164 0.960 . S
C2102 H2165 0.958 . S
C2103 C2100 1.530 . S
C2103 H2166 0.961 . S
C2103 H2167 0.960 . S
C2103 H2168 0.960 . S
C2104 C2105 1.530 . S
C2104 H2170 0.961 . S
C2104 H2171 0.961 . S
C2104 H2172 0.959 . S
C2105 C2104 1.530 . S
C2105 O2133 1.412 . S
C2105 H2169 0.980 . S
C2106 C2107 1.288 . S
C2106 C2111 1.377 . S
C2106 O2133 1.393 . S
C2107 C2106 1.288 . S
C2107 C2108 1.369 . S
C2107 H2173 0.932 . S
C2108 C2107 1.369 . S
C2108 C2109 1.398 . S
C2108 C2112 1.527 . S
C2109 C2108 1.398 . S
C2109 C2110 1.380 . S
C2109 C2123 1.497 . S
C2110 C2109 1.380 . S
C2110 C2111 1.383 . S
C2110 C2113 1.603 . S
C2111 C2106 1.377 . S
C2111 C2110 1.383 . S
C2111 H2174 0.929 . S
C2112 C2108 1.527 . S
C2112 H2175 0.961 . S
C2112 H2176 0.959 . S
C2112 H2177 0.959 . S
C2113 C2110 1.603 . S
C2113 H2178 0.960 . S
C2113 H2179 0.962 . S
C2113 H2180 0.961 . S
C2114 C2081 1.587 . S
C2114 C2115 1.360 . S
C2114 C2127 1.412 . S
C2115 C2114 1.360 . S
C2115 C2116 1.365 . S
C2115 H2181 0.929 . S
C2116 C2091 1.553 . S
C2116 C2115 1.365 . S
C2116 C2117 1.404 . S
C2117 C2116 1.404 . S
C2117 C2118 1.395 . S
C2117 C2128 1.451 . S
C2118 C2117 1.395 . S
C2118 C2119 1.322 . S
C2118 H2182 0.930 . S
C2119 C2118 1.322 . S
C2119 C2120 1.459 . S
C2119 H2183 0.929 . S
C2120 C2119 1.459 . S
C2120 C2121 1.445 . S
C2120 C2129 1.395 . S
C2121 C2099 1.432 . S
C2121 C2120 1.445 . S
C2121 C2122 1.370 . S
C2122 C2121 1.370 . S
C2122 C2123 1.438 . S
C2122 H2184 0.930 . S
C2123 C2109 1.497 . S
C2123 C2122 1.438 . S
C2123 C2124 1.360 . S
C2124 C2123 1.360 . S
C2124 C2125 1.401 . S
C2124 C2129 1.446 . S
C2125 C2124 1.401 . S
C2125 C2126 1.347 . S
C2125 H2185 0.929 . S
C2126 C2125 1.347 . S
C2126 C2127 1.455 . S
C2126 H2186 0.930 . S
C2127 C2114 1.412 . S
C2127 C2126 1.455 . S
C2127 C2128 1.331 . S
C2128 C2117 1.451 . S
C2128 C2127 1.331 . S
C2128 C2129 1.497 . S
C2129 C2120 1.395 . S
C2129 C2124 1.446 . S
C2129 C2128 1.497 . S
C2130 C2131 1.582 . S
C2130 H2187 0.962 . S
C2130 H2188 0.959 . S
C2130 H2189 0.958 . S
C2131 C2130 1.582 . S
C2131 O2134 1.458 . S
C2131 H2160 0.980 . S
O2132 C2077 1.426 . S
O2132 C2078 1.334 . S
O2133 C2105 1.412 . S
O2133 C2106 1.393 . S
O2134 C2096 1.435 . S
O2134 C2131 1.458 . S
O2135 C2087 1.468 . S
O2135 C2088 1.408 . S
H2136 C2077 0.980 . S
H2137 C2076 0.959 . S
H2138 C2076 0.959 . S
H2139 C2076 0.960 . S
H2140 C2079 0.929 . S
H2141 C2083 0.929 . S
H2142 C2084 0.959 . S
H2143 C2084 0.961 . S
H2144 C2084 0.961 . S
H2145 C2085 0.960 . S
H2146 C2085 0.960 . S
H2147 C2085 0.961 . S
H2148 C2087 0.980 . S
H2149 C2086 0.961 . S
H2150 C2086 0.960 . S
H2151 C2086 0.959 . S
H2152 C2089 0.930 . S
H2153 C2093 0.931 . S
H2154 C2094 0.959 . S
H2155 C2094 0.961 . S
H2156 C2094 0.959 . S
H2157 C2095 0.960 . S
H2158 C2095 0.960 . S
H2159 C2095 0.960 . S
H2160 C2131 0.980 . S
H2161 C2097 0.930 . S
H2162 C2101 0.930 . S
H2163 C2102 0.961 . S
H2164 C2102 0.960 . S
H2165 C2102 0.958 . S
H2166 C2103 0.961 . S
H2167 C2103 0.960 . S
H2168 C2103 0.960 . S
H2169 C2105 0.980 . S
H2170 C2104 0.961 . S
H2171 C2104 0.961 . S
H2172 C2104 0.959 . S
H2173 C2107 0.932 . S
H2174 C2111 0.929 . S
H2175 C2112 0.961 . S
H2176 C2112 0.959 . S
H2177 C2112 0.959 . S
H2178 C2113 0.960 . S
H2179 C2113 0.962 . S
H2180 C2113 0.961 . S
H2181 C2115 0.929 . S
H2182 C2118 0.930 . S
H2183 C2119 0.929 . S
H2184 C2122 0.930 . S
H2185 C2125 0.929 . S
H2186 C2126 0.930 . S
H2187 C2130 0.962 . S
H2188 C2130 0.959 . S
H2189 C2130 0.958 . S
C2190 C2191 1.560 . S
C2190 H2251 0.959 . S
C2190 H2252 0.959 . S
C2190 H2253 0.960 . S
C2191 C2190 1.560 . S
C2191 O2246 1.426 . S
C2191 H2250 0.980 . S
C2192 C2193 1.407 . S
C2192 C2197 1.418 . S
C2192 O2246 1.334 . S
C2193 C2192 1.407 . S
C2193 C2194 1.360 . S
C2193 H2254 0.929 . S
C2194 C2193 1.360 . S
C2194 C2195 1.401 . S
C2194 C2198 1.527 . S
C2195 C2194 1.401 . S
C2195 C2196 1.405 . S
C2195 C2228 1.587 . S
C2196 C2195 1.405 . S
C2196 C2197 1.332 . S
C2196 C2199 1.496 . S
C2197 C2192 1.418 . S
C2197 C2196 1.332 . S
C2197 H2255 0.929 . S
C2198 C2194 1.527 . S
C2198 H2256 0.959 . S
C2198 H2257 0.961 . S
C2198 H2258 0.961 . S
C2199 C2196 1.496 . S
C2199 H2259 0.960 . S
C2199 H2260 0.960 . S
C2199 H2261 0.961 . S
C2200 C2201 1.517 . S
C2200 H2263 0.961 . S
C2200 H2264 0.960 . S
C2200 H2265 0.959 . S
C2201 C2200 1.517 . S
C2201 O2249 1.468 . S
C2201 H2262 0.980 . S
C2202 C2203 1.349 . S
C2202 C2207 1.367 . S
C2202 O2249 1.408 . S
C2203 C2202 1.349 . S
C2203 C2204 1.407 . S
C2203 H2266 0.930 . S
C2204 C2203 1.407 . S
C2204 C2205 1.449 . S
C2204 C2208 1.535 . S
C2205 C2204 1.449 . S
C2205 C2206 1.384 . S
C2205 C2230 1.553 . S
C2206 C2205 1.384 . S
C2206 C2207 1.364 . S
C2206 C2209 1.450 . S
C2207 C2202 1.367 . S
C2207 C2206 1.364 . S
C2207 H2267 0.931 . S
C2208 C2204 1.535 . S
C2208 H2268 0.959 . S
C2208 H2269 0.961 . S
C2208 H2270 0.959 . S
C2209 C2206 1.450 . S
C2209 H2271 0.960 . S
C2209 H2272 0.960 . S
C2209 H2273 0.960 . S
C2210 C2211 1.309 . S
C2210 C2215 1.304 . S
C2210 O2248 1.435 . S
C2211 C2210 1.309 . S
C2211 C2212 1.476 . S
C2211 H2275 0.930 . S
C2212 C2211 1.476 . S
C2212 C2213 1.400 . S
C2212 C2216 1.567 . S
C2213 C2212 1.400 . S
C2213 C2214 1.373 . S
C2213 C2235 1.432 . S
C2214 C2213 1.373 . S
C2214 C2215 1.339 . S
C2214 C2217 1.530 . S
C2215 C2210 1.304 . S
C2215 C2214 1.339 . S
C2215 H2276 0.930 . S
C2216 C2212 1.567 . S
C2216 H2277 0.961 . S
C2216 H2278 0.960 . S
C2216 H2279 0.958 . S
C2217 C2214 1.530 . S
C2217 H2280 0.961 . S
C2217 H2281 0.960 . S
C2217 H2282 0.960 . S
C2218 C2219 1.530 . S
C2218 H2284 0.961 . S
C2218 H2285 0.961 . S
C2218 H2286 0.959 . S
C2219 C2218 1.530 . S
C2219 O2247 1.412 . S
C2219 H2283 0.980 . S
C2220 C2221 1.288 . S
C2220 C2225 1.377 . S
C2220 O2247 1.393 . S
C2221 C2220 1.288 . S
C2221 C2222 1.369 . S
C2221 H2287 0.932 . S
C2222 C2221 1.369 . S
C2222 C2223 1.398 . S
C2222 C2226 1.527 . S
C2223 C2222 1.398 . S
C2223 C2224 1.380 . S
C2223 C2237 1.497 . S
C2224 C2223 1.380 . S
C2224 C2225 1.383 . S
C2224 C2227 1.603 . S
C2225 C2220 1.377 . S
C2225 C2224 1.383 . S
C2225 H2288 0.929 . S
C2226 C2222 1.527 . S
C2226 H2289 0.961 . S
C2226 H2290 0.959 . S
C2226 H2291 0.959 . S
C2227 C2224 1.603 . S
C2227 H2292 0.960 . S
C2227 H2293 0.962 . S
C2227 H2294 0.961 . S
C2228 C2195 1.587 . S
C2228 C2229 1.360 . S
C2228 C2241 1.412 . S
C2229 C2228 1.360 . S
C2229 C2230 1.365 . S
C2229 H2295 0.929 . S
C2230 C2205 1.553 . S
C2230 C2229 1.365 . S
C2230 C2231 1.404 . S
C2231 C2230 1.404 . S
C2231 C2232 1.395 . S
C2231 C2242 1.451 . S
C2232 C2231 1.395 . S
C2232 C2233 1.322 . S
C2232 H2296 0.930 . S
C2233 C2232 1.322 . S
C2233 C2234 1.459 . S
C2233 H2297 0.929 . S
C2234 C2233 1.459 . S
C2234 C2235 1.445 . S
C2234 C2243 1.395 . S
C2235 C2213 1.432 . S
C2235 C2234 1.445 . S
C2235 C2236 1.370 . S
C2236 C2235 1.370 . S
C2236 C2237 1.438 . S
C2236 H2298 0.930 . S
C2237 C2223 1.497 . S
C2237 C2236 1.438 . S
C2237 C2238 1.360 . S
C2238 C2237 1.360 . S
C2238 C2239 1.401 . S
C2238 C2243 1.446 . S
C2239 C2238 1.401 . S
C2239 C2240 1.347 . S
C2239 H2299 0.929 . S
C2240 C2239 1.347 . S
C2240 C2241 1.455 . S
C2240 H2300 0.930 . S
C2241 C2228 1.412 . S
C2241 C2240 1.455 . S
C2241 C2242 1.331 . S
C2242 C2231 1.451 . S
C2242 C2241 1.331 . S
C2242 C2243 1.497 . S
C2243 C2234 1.395 . S
C2243 C2238 1.446 . S
C2243 C2242 1.497 . S
C2244 C2245 1.582 . S
C2244 H2301 0.962 . S
C2244 H2302 0.959 . S
C2244 H2303 0.958 . S
C2245 C2244 1.582 . S
C2245 O2248 1.458 . S
C2245 H2274 0.980 . S
O2246 C2191 1.426 . S
O2246 C2192 1.334 . S
O2247 C2219 1.412 . S
O2247 C2220 1.393 . S
O2248 C2210 1.435 . S
O2248 C2245 1.458 . S
O2249 C2201 1.468 . S
O2249 C2202 1.408 . S
H2250 C2191 0.980 . S
H2251 C2190 0.959 . S
H2252 C2190 0.959 . S
H2253 C2190 0.960 . S
H2254 C2193 0.929 . S
H2255 C2197 0.929 . S
H2256 C2198 0.959 . S
H2257 C2198 0.961 . S
H2258 C2198 0.961 . S
H2259 C2199 0.960 . S
H2260 C2199 0.960 . S
H2261 C2199 0.961 . S
H2262 C2201 0.980 . S
H2263 C2200 0.961 . S
H2264 C2200 0.960 . S
H2265 C2200 0.959 . S
H2266 C2203 0.930 . S
H2267 C2207 0.931 . S
H2268 C2208 0.959 . S
H2269 C2208 0.961 . S
H2270 C2208 0.959 . S
H2271 C2209 0.960 . S
H2272 C2209 0.960 . S
H2273 C2209 0.960 . S
H2274 C2245 0.980 . S
H2275 C2211 0.930 . S
H2276 C2215 0.930 . S
H2277 C2216 0.961 . S
H2278 C2216 0.960 . S
H2279 C2216 0.958 . S
H2280 C2217 0.961 . S
H2281 C2217 0.960 . S
H2282 C2217 0.960 . S
H2283 C2219 0.980 . S
H2284 C2218 0.961 . S
H2285 C2218 0.961 . S
H2286 C2218 0.959 . S
H2287 C2221 0.932 . S
H2288 C2225 0.929 . S
H2289 C2226 0.961 . S
H2290 C2226 0.959 . S
H2291 C2226 0.959 . S
H2292 C2227 0.960 . S
H2293 C2227 0.962 . S
H2294 C2227 0.961 . S
H2295 C2229 0.929 . S
H2296 C2232 0.930 . S
H2297 C2233 0.929 . S
H2298 C2236 0.930 . S
H2299 C2239 0.929 . S
H2300 C2240 0.930 . S
H2301 C2244 0.962 . S
H2302 C2244 0.959 . S
H2303 C2244 0.958 . S
H2304 C2310 0.930 . S
H2305 C2313 0.930 . S
H2306 C2314 0.930 . S
H2307 C2315 0.930 . S
H2308 C2318 0.930 . S
H2309 C2319 0.930 . S
C2310 H2304 0.930 . S
C2310 C2311 1.355 1_455 S
C2310 C2312 1.425 . S
C2311 C2310 1.355 1_655 S
C2311 C2313 1.419 . S
C2312 C2310 1.425 . S
C2312 C2317 1.413 1_455 S
C2312 C2319 1.411 . S
C2313 H2305 0.930 . S
C2313 C2311 1.419 . S
C2313 C2314 1.362 . S
C2314 H2306 0.930 . S
C2314 C2313 1.362 . S
C2314 C2317 1.409 . S
C2315 H2307 0.930 . S
C2315 C2316 1.355 . S
C2315 C2317 1.415 . S
C2316 C2315 1.355 . S
C2316 C2318 1.419 1_655 S
C2317 C2312 1.413 1_655 S
C2317 C2314 1.409 . S
C2317 C2315 1.415 . S
C2318 H2308 0.930 . S
C2318 C2316 1.419 1_455 S
C2318 C2319 1.362 . S
C2319 H2309 0.930 . S
C2319 C2312 1.411 . S
C2319 C2318 1.362 . S
H2320 C2326 0.930 . S
H2321 C2329 0.930 . S
H2322 C2330 0.930 . S
H2323 C2331 0.930 . S
H2324 C2334 0.930 . S
H2325 C2335 0.930 . S
C2326 H2320 0.930 . S
C2326 C2327 1.355 . S
C2326 C2328 1.415 . S
C2327 C2326 1.355 . S
C2327 C2329 1.419 . S
C2328 C2326 1.415 . S
C2328 C2333 1.425 . S
C2328 C2335 1.409 . S
C2329 H2321 0.930 . S
C2329 C2327 1.419 . S
C2329 C2330 1.362 . S
C2330 H2322 0.930 . S
C2330 C2329 1.362 . S
C2330 C2333 1.409 . S
C2331 H2323 0.930 . S
C2331 C2332 1.355 . S
C2331 C2333 1.415 . S
C2332 C2331 1.355 . S
C2332 C2334 1.419 . S
C2333 C2328 1.425 . S
C2333 C2330 1.409 . S
C2333 C2331 1.415 . S
C2334 H2324 0.930 . S
C2334 C2332 1.419 . S
C2334 C2335 1.362 . S
C2335 H2325 0.930 . S
C2335 C2328 1.409 . S
C2335 C2334 1.362 . S
H2336 C2342 0.930 . S
H2337 C2345 0.908 1_565 S
H2338 C2346 0.930 . S
H2339 C2347 0.930 1_565 S
H2340 C2350 0.930 . S
H2341 C2351 0.930 . S
C2342 H2336 0.930 . S
C2342 C2343 1.355 . S
C2342 C2344 1.415 . S
C2343 C2342 1.355 . S
C2343 C2345 1.487 . S
C2344 C2342 1.415 . S
C2344 C2349 1.425 . S
C2344 C2351 1.409 . S
C2345 H2337 0.908 1_545 S
C2345 C2343 1.487 . S
C2345 C2346 1.319 1_545 S
C2346 H2338 0.930 . S
C2346 C2345 1.319 1_565 S
C2346 C2349 1.409 1_565 S
C2347 H2339 0.930 1_545 S
C2347 C2348 1.355 . S
C2347 C2349 1.415 . S
C2348 C2347 1.355 . S
C2348 C2350 1.419 . S
C2349 C2344 1.425 . S
C2349 C2346 1.409 1_545 S
C2349 C2347 1.415 . S
C2350 H2340 0.930 . S
C2350 C2348 1.419 . S
C2350 C2351 1.362 . S
C2351 H2341 0.930 . S
C2351 C2344 1.409 . S
C2351 C2350 1.362 . S
H2352 C2358 0.930 . S
H2353 C2361 0.930 . S
H2354 C2362 0.930 . S
H2355 C2363 0.930 . S
H2356 C2366 0.930 . S
H2357 C2367 0.930 . S
C2358 H2352 0.930 . S
C2358 C2359 1.355 . S
C2358 C2360 1.415 . S
C2359 C2358 1.355 . S
C2359 C2361 1.419 1_565 S
C2360 C2358 1.415 . S
C2360 C2365 1.419 1_565 S
C2360 C2367 1.409 . S
C2361 H2353 0.930 . S
C2361 C2359 1.419 1_545 S
C2361 C2362 1.362 . S
C2362 H2354 0.930 . S
C2362 C2361 1.362 . S
C2362 C2365 1.418 . S
C2363 H2355 0.930 . S
C2363 C2364 1.355 1_545 S
C2363 C2365 1.412 . S
C2364 C2363 1.355 1_565 S
C2364 C2366 1.419 . S
C2365 C2360 1.419 1_545 S
C2365 C2362 1.418 . S
C2365 C2363 1.412 . S
C2366 H2356 0.930 . S
C2366 C2364 1.419 . S
C2366 C2367 1.362 . S
C2367 H2357 0.930 . S
C2367 C2360 1.409 . S
C2367 C2366 1.362 . S
H2368 C2374 0.930 . S
H2369 C2377 0.930 . S
H2370 C2378 0.930 . S
H2371 C2379 0.930 . S
H2372 C2382 0.930 . S
H2373 C2383 0.930 . S
C2374 H2368 0.930 . S
C2374 C2375 1.355 . S
C2374 C2376 1.415 . S
C2375 C2374 1.355 . S
C2375 C2377 1.419 . S
C2376 C2374 1.415 . S
C2376 C2381 1.425 . S
C2376 C2383 1.409 . S
C2377 H2369 0.930 . S
C2377 C2375 1.419 . S
C2377 C2378 1.362 . S
C2378 H2370 0.930 . S
C2378 C2377 1.362 . S
C2378 C2381 1.409 . S
C2379 H2371 0.930 . S
C2379 C2380 1.355 . S
C2379 C2381 1.415 . S
C2380 C2379 1.355 . S
C2380 C2382 1.419 . S
C2381 C2376 1.425 . S
C2381 C2378 1.409 . S
C2381 C2379 1.415 . S
C2382 H2372 0.930 . S
C2382 C2380 1.419 . S
C2382 C2383 1.362 . S
C2383 H2373 0.930 . S
C2383 C2376 1.409 . S
C2383 C2382 1.362 . S
H2384 C2390 0.930 . S
H2385 C2393 0.930 . S
H2386 C2394 0.930 . S
H2387 C2395 0.930 . S
H2388 C2398 0.930 . S
H2389 C2399 0.930 . S
C2390 H2384 0.930 . S
C2390 C2391 1.355 . S
C2390 C2392 1.415 . S
C2391 C2390 1.355 . S
C2391 C2393 1.419 . S
C2392 C2390 1.415 . S
C2392 C2397 1.425 . S
C2392 C2399 1.409 . S
C2393 H2385 0.930 . S
C2393 C2391 1.419 . S
C2393 C2394 1.362 . S
C2394 H2386 0.930 . S
C2394 C2393 1.362 . S
C2394 C2397 1.409 . S
C2395 H2387 0.930 . S
C2395 C2396 1.355 . S
C2395 C2397 1.415 . S
C2396 C2395 1.355 . S
C2396 C2398 1.419 . S
C2397 C2392 1.425 . S
C2397 C2394 1.409 . S
C2397 C2395 1.415 . S
C2398 H2388 0.930 . S
C2398 C2396 1.419 . S
C2398 C2399 1.362 . S
C2399 H2389 0.930 . S
C2399 C2392 1.409 . S
C2399 C2398 1.362 . S
H2400 C2406 0.930 . S
H2401 C2409 0.930 . S
H2402 C2410 0.930 . S
H2403 C2411 0.930 . S
H2404 C2414 0.930 . S
H2405 C2415 0.930 . S
C2406 H2400 0.930 . S
C2406 C2407 1.355 . S
C2406 C2408 1.415 . S
C2407 C2406 1.355 . S
C2407 C2409 1.419 . S
C2408 C2406 1.415 . S
C2408 C2413 1.425 . S
C2408 C2415 1.409 . S
C2409 H2401 0.930 . S
C2409 C2407 1.419 . S
C2409 C2410 1.362 . S
C2410 H2402 0.930 . S
C2410 C2409 1.362 . S
C2410 C2413 1.409 . S
C2411 H2403 0.930 . S
C2411 C2412 1.355 . S
C2411 C2413 1.415 . S
C2412 C2411 1.355 . S
C2412 C2414 1.419 . S
C2413 C2408 1.425 . S
C2413 C2410 1.409 . S
C2413 C2411 1.415 . S
C2414 H2404 0.930 . S
C2414 C2412 1.419 . S
C2414 C2415 1.362 . S
C2415 H2405 0.930 . S
C2415 C2408 1.409 . S
C2415 C2414 1.362 . S
H2416 C2422 0.930 . S
H2417 C2425 0.930 . S
H2418 C2426 0.930 . S
H2419 C2427 0.930 . S
H2420 C2430 0.930 . S
H2421 C2431 0.930 . S
C2422 H2416 0.930 . S
C2422 C2423 1.355 . S
C2422 C2424 1.415 . S
C2423 C2422 1.355 . S
C2423 C2425 1.419 . S
C2424 C2422 1.415 . S
C2424 C2429 1.425 . S
C2424 C2431 1.409 . S
C2425 H2417 0.930 . S
C2425 C2423 1.419 . S
C2425 C2426 1.362 . S
C2426 H2418 0.930 . S
C2426 C2425 1.362 . S
C2426 C2429 1.409 . S
C2427 H2419 0.930 . S
C2427 C2428 1.355 . S
C2427 C2429 1.415 . S
C2428 C2427 1.355 . S
C2428 C2430 1.419 . S
C2429 C2424 1.425 . S
C2429 C2426 1.409 . S
C2429 C2427 1.415 . S
C2430 H2420 0.930 . S
C2430 C2428 1.419 . S
C2430 C2431 1.362 . S
C2431 H2421 0.930 . S
C2431 C2424 1.409 . S
C2431 C2430 1.362 . S
H2432 C2438 0.930 . S
H2433 C2441 0.930 . S
H2434 C2442 0.930 . S
H2435 C2443 0.930 . S
H2436 C2446 0.930 . S
H2437 C2447 0.930 . S
C2438 H2432 0.930 . S
C2438 C2439 1.355 . S
C2438 C2440 1.415 . S
C2439 C2438 1.355 . S
C2439 C2441 1.419 1_565 S
C2440 C2438 1.415 . S
C2440 C2445 1.425 . S
C2440 C2447 1.409 . S
C2441 H2433 0.930 . S
C2441 C2439 1.419 1_545 S
C2441 C2442 1.362 . S
C2442 H2434 0.930 . S
C2442 C2441 1.362 . S
C2442 C2445 1.409 1_545 S
C2443 H2435 0.930 . S
C2443 C2444 1.355 1_545 S
C2443 C2445 1.415 1_545 S
C2444 C2443 1.355 1_565 S
C2444 C2446 1.419 . S
C2445 C2440 1.425 . S
C2445 C2442 1.409 1_565 S
C2445 C2443 1.415 1_565 S
C2446 H2436 0.930 . S
C2446 C2444 1.419 . S
C2446 C2447 1.362 . S
C2447 H2437 0.930 . S
C2447 C2440 1.409 . S
C2447 C2446 1.362 . S
H2448 C2454 0.930 . S
H2449 C2457 0.930 . S
H2450 C2458 0.930 . S
H2451 C2459 0.930 . S
H2452 C2462 0.930 . S
H2453 C2463 0.930 . S
C2454 H2448 0.930 . S
C2454 C2455 1.355 . S
C2454 C2456 1.415 . S
C2455 C2454 1.355 . S
C2455 C2457 1.419 1_545 S
C2456 C2454 1.415 . S
C2456 C2461 1.430 . S
C2456 C2463 1.409 . S
C2457 H2449 0.930 . S
C2457 C2455 1.419 1_565 S
C2457 C2458 1.362 . S
C2458 H2450 0.930 . S
C2458 C2457 1.362 . S
C2458 C2461 1.400 1_565 S
C2459 H2451 0.930 . S
C2459 C2460 1.355 1_565 S
C2459 C2461 1.420 1_565 S
C2460 C2459 1.355 1_545 S
C2460 C2462 1.419 . S
C2461 C2456 1.430 . S
C2461 C2458 1.400 1_545 S
C2461 C2459 1.420 1_545 S
C2462 H2452 0.930 . S
C2462 C2460 1.419 . S
C2462 C2463 1.362 . S
C2463 H2453 0.930 . S
C2463 C2456 1.409 . S
C2463 C2462 1.362 . S
H2464 C2470 0.930 . S
H2465 C2473 0.930 . S
H2466 C2474 0.930 . S
H2467 C2475 0.930 . S
H2468 C2478 0.930 . S
H2469 C2479 0.930 . S
C2470 H2464 0.930 . S
C2470 C2471 1.355 . S
C2470 C2472 1.415 . S
C2471 C2470 1.355 . S
C2471 C2473 1.419 1_655 S
C2472 C2470 1.415 . S
C2472 C2477 1.476 . S
C2472 C2479 1.409 . S
C2473 H2465 0.930 . S
C2473 C2471 1.419 1_455 S
C2473 C2474 1.362 . S
C2474 H2466 0.930 . S
C2474 C2473 1.362 . S
C2474 C2477 1.393 1_455 S
C2475 H2467 0.930 . S
C2475 C2476 1.355 1_455 S
C2475 C2477 1.383 1_455 S
C2476 C2475 1.355 1_655 S
C2476 C2478 1.419 . S
C2477 C2472 1.476 . S
C2477 C2474 1.393 1_655 S
C2477 C2475 1.383 1_655 S
C2478 H2468 0.930 . S
C2478 C2476 1.419 . S
C2478 C2479 1.362 . S
C2479 H2469 0.930 . S
C2479 C2472 1.409 . S
C2479 C2478 1.362 . S
H2480 C2486 0.930 . S
H2481 C2489 0.930 . S
H2482 C2490 0.930 . S
H2483 C2491 0.930 . S
H2484 C2494 0.930 . S
H2485 C2495 0.930 . S
C2486 H2480 0.930 . S
C2486 C2487 1.355 . S
C2486 C2488 1.415 . S
C2487 C2486 1.355 . S
C2487 C2489 1.419 . S
C2488 C2486 1.415 . S
C2488 C2493 1.425 . S
C2488 C2495 1.409 . S
C2489 H2481 0.930 . S
C2489 C2487 1.419 . S
C2489 C2490 1.362 . S
C2490 H2482 0.930 . S
C2490 C2489 1.362 . S
C2490 C2493 1.409 . S
C2491 H2483 0.930 . S
C2491 C2492 1.355 . S
C2491 C2493 1.415 . S
C2492 C2491 1.355 . S
C2492 C2494 1.419 . S
C2493 C2488 1.425 . S
C2493 C2490 1.409 . S
C2493 C2491 1.415 . S
C2494 H2484 0.930 . S
C2494 C2492 1.419 . S
C2494 C2495 1.362 . S
C2495 H2485 0.930 . S
C2495 C2488 1.409 . S
C2495 C2494 1.362 . S
H2496 C2502 0.930 . S
H2497 C2505 0.930 . S
H2498 C2506 0.930 . S
H2499 C2507 0.930 . S
H2500 C2510 0.930 . S
H2501 C2511 0.930 . S
C2502 H2496 0.930 . S
C2502 C2503 1.355 . S
C2502 C2504 1.415 . S
C2503 C2502 1.355 . S
C2503 C2505 1.419 . S
C2504 C2502 1.415 . S
C2504 C2509 1.425 . S
C2504 C2511 1.409 . S
C2505 H2497 0.930 . S
C2505 C2503 1.419 . S
C2505 C2506 1.362 . S
C2506 H2498 0.930 . S
C2506 C2505 1.362 . S
C2506 C2509 1.409 . S
C2507 H2499 0.930 . S
C2507 C2508 1.355 . S
C2507 C2509 1.415 . S
C2508 C2507 1.355 . S
C2508 C2510 1.419 . S
C2509 C2504 1.425 . S
C2509 C2506 1.409 . S
C2509 C2507 1.415 . S
C2510 H2500 0.930 . S
C2510 C2508 1.419 . S
C2510 C2511 1.362 . S
C2511 H2501 0.930 . S
C2511 C2504 1.409 . S
C2511 C2510 1.362 . S
H2512 C2518 0.930 . S
H2513 C2521 0.930 . S
H2514 C2522 0.930 . S
H2515 C2523 0.930 . S
H2516 C2526 0.930 . S
H2517 C2527 0.930 . S
C2518 H2512 0.930 . S
C2518 C2519 1.355 . S
C2518 C2520 1.415 . S
C2519 C2518 1.355 . S
C2519 C2521 1.419 . S
C2520 C2518 1.415 . S
C2520 C2525 1.425 . S
C2520 C2527 1.409 . S
C2521 H2513 0.930 . S
C2521 C2519 1.419 . S
C2521 C2522 1.362 . S
C2522 H2514 0.930 . S
C2522 C2521 1.362 . S
C2522 C2525 1.409 . S
C2523 H2515 0.930 . S
C2523 C2524 1.355 . S
C2523 C2525 1.415 . S
C2524 C2523 1.355 . S
C2524 C2526 1.419 . S
C2525 C2520 1.425 . S
C2525 C2522 1.409 . S
C2525 C2523 1.415 . S
C2526 H2516 0.930 . S
C2526 C2524 1.419 . S
C2526 C2527 1.362 . S
C2527 H2517 0.930 . S
C2527 C2520 1.409 . S
C2527 C2526 1.362 . S
H2528 C2534 0.930 . S
H2529 C2537 0.930 . S
H2530 C2538 0.930 . S
H2531 C2539 0.930 . S
H2532 C2542 0.930 . S
H2533 C2543 0.930 . S
C2534 H2528 0.930 . S
C2534 C2535 1.355 . S
C2534 C2536 1.415 . S
C2535 C2534 1.355 . S
C2535 C2537 1.419 . S
C2536 C2534 1.415 . S
C2536 C2541 1.425 . S
C2536 C2543 1.409 . S
C2537 H2529 0.930 . S
C2537 C2535 1.419 . S
C2537 C2538 1.362 . S
C2538 H2530 0.930 . S
C2538 C2537 1.362 . S
C2538 C2541 1.409 . S
C2539 H2531 0.930 . S
C2539 C2540 1.355 . S
C2539 C2541 1.415 . S
C2540 C2539 1.355 . S
C2540 C2542 1.419 . S
C2541 C2536 1.425 . S
C2541 C2538 1.409 . S
C2541 C2539 1.415 . S
C2542 H2532 0.930 . S
C2542 C2540 1.419 . S
C2542 C2543 1.362 . S
C2543 H2533 0.930 . S
C2543 C2536 1.409 . S
C2543 C2542 1.362 . S
H2544 C2550 0.930 . S
H2545 C2553 0.930 . S
H2546 C2554 0.930 . S
H2547 C2555 0.930 . S
H2548 C2558 0.930 . S
H2549 C2559 0.930 . S
C2550 H2544 0.930 . S
C2550 C2551 1.355 . S
C2550 C2552 1.415 . S
C2551 C2550 1.355 . S
C2551 C2553 1.419 . S
C2552 C2550 1.415 . S
C2552 C2557 1.425 . S
C2552 C2559 1.409 . S
C2553 H2545 0.930 . S
C2553 C2551 1.419 . S
C2553 C2554 1.362 . S
C2554 H2546 0.930 . S
C2554 C2553 1.362 . S
C2554 C2557 1.409 . S
C2555 H2547 0.930 . S
C2555 C2556 1.355 . S
C2555 C2557 1.415 . S
C2556 C2555 1.355 . S
C2556 C2558 1.419 . S
C2557 C2552 1.425 . S
C2557 C2554 1.409 . S
C2557 C2555 1.415 . S
C2558 H2548 0.930 . S
C2558 C2556 1.419 . S
C2558 C2559 1.362 . S
C2559 H2549 0.930 . S
C2559 C2552 1.409 . S
C2559 C2558 1.362 . S
H2560 C2566 0.930 . S
H2561 C2569 0.930 . S
H2562 C2570 0.930 . S
H2563 C2571 0.930 . S
H2564 C2574 0.930 . S
H2565 C2575 0.930 . S
C2566 H2560 0.930 . S
C2566 C2567 1.355 . S
C2566 C2568 1.415 . S
C2567 C2566 1.355 . S
C2567 C2569 1.419 . S
C2568 C2566 1.415 . S
C2568 C2573 1.425 . S
C2568 C2575 1.409 . S
C2569 H2561 0.930 . S
C2569 C2567 1.419 . S
C2569 C2570 1.362 . S
C2570 H2562 0.930 . S
C2570 C2569 1.362 . S
C2570 C2573 1.409 . S
C2571 H2563 0.930 . S
C2571 C2572 1.355 . S
C2571 C2573 1.415 . S
C2572 C2571 1.355 . S
C2572 C2574 1.419 . S
C2573 C2568 1.425 . S
C2573 C2570 1.409 . S
C2573 C2571 1.415 . S
C2574 H2564 0.930 . S
C2574 C2572 1.419 . S
C2574 C2575 1.362 . S
C2575 H2565 0.930 . S
C2575 C2568 1.409 . S
C2575 C2574 1.362 . S
H2576 C2582 0.930 . S
H2577 C2585 0.930 . S
H2578 C2586 0.930 . S
H2579 C2587 0.930 . S
H2580 C2590 0.930 . S
H2581 C2591 0.930 . S
C2582 H2576 0.930 . S
C2582 C2583 1.355 . S
C2582 C2584 1.415 . S
C2583 C2582 1.355 . S
C2583 C2585 1.419 . S
C2584 C2582 1.415 . S
C2584 C2589 1.425 . S
C2584 C2591 1.409 . S
C2585 H2577 0.930 . S
C2585 C2583 1.419 . S
C2585 C2586 1.362 . S
C2586 H2578 0.930 . S
C2586 C2585 1.362 . S
C2586 C2589 1.409 . S
C2587 H2579 0.930 . S
C2587 C2588 1.355 . S
C2587 C2589 1.415 . S
C2588 C2587 1.355 . S
C2588 C2590 1.419 . S
C2589 C2584 1.425 . S
C2589 C2586 1.409 . S
C2589 C2587 1.415 . S
C2590 H2580 0.930 . S
C2590 C2588 1.419 . S
C2590 C2591 1.362 . S
C2591 H2581 0.930 . S
C2591 C2584 1.409 . S
C2591 C2590 1.362 . S
H2592 C2598 0.930 . S
H2593 C2601 0.930 . S
H2594 C2602 0.930 . S
H2595 C2603 0.930 . S
H2596 C2606 0.930 . S
H2597 C2607 0.930 . S
C2598 H2592 0.930 . S
C2598 C2599 1.355 . S
C2598 C2600 1.415 . S
C2599 C2598 1.355 . S
C2599 C2601 1.419 . S
C2600 C2598 1.415 . S
C2600 C2605 1.425 . S
C2600 C2607 1.409 . S
C2601 H2593 0.930 . S
C2601 C2599 1.419 . S
C2601 C2602 1.362 . S
C2602 H2594 0.930 . S
C2602 C2601 1.362 . S
C2602 C2605 1.409 . S
C2603 H2595 0.930 . S
C2603 C2604 1.355 . S
C2603 C2605 1.415 . S
C2604 C2603 1.355 . S
C2604 C2606 1.419 . S
C2605 C2600 1.425 . S
C2605 C2602 1.409 . S
C2605 C2603 1.415 . S
C2606 H2596 0.930 . S
C2606 C2604 1.419 . S
C2606 C2607 1.362 . S
C2607 H2597 0.930 . S
C2607 C2600 1.409 . S
C2607 C2606 1.362 . S
H2608 C2614 0.930 . S
H2609 C2617 0.930 . S
H2610 C2618 0.930 . S
H2611 C2619 0.930 . S
H2612 C2622 0.930 . S
H2613 C2623 0.930 . S
C2614 H2608 0.930 . S
C2614 C2615 1.355 . S
C2614 C2616 1.415 . S
C2615 C2614 1.355 . S
C2615 C2617 1.419 . S
C2616 C2614 1.415 . S
C2616 C2621 1.425 . S
C2616 C2623 1.409 . S
C2617 H2609 0.930 . S
C2617 C2615 1.419 . S
C2617 C2618 1.362 . S
C2618 H2610 0.930 . S
C2618 C2617 1.362 . S
C2618 C2621 1.409 . S
C2619 H2611 0.930 . S
C2619 C2620 1.355 . S
C2619 C2621 1.415 . S
C2620 C2619 1.355 . S
C2620 C2622 1.419 . S
C2621 C2616 1.425 . S
C2621 C2618 1.409 . S
C2621 C2619 1.415 . S
C2622 H2612 0.930 . S
C2622 C2620 1.419 . S
C2622 C2623 1.362 . S
C2623 H2613 0.930 . S
C2623 C2616 1.409 . S
C2623 C2622 1.362 . S
H2624 C2630 0.930 . S
H2625 C2633 0.930 . S
H2626 C2634 0.930 . S
H2627 C2635 0.930 . S
H2628 C2638 0.930 . S
H2629 C2639 0.930 . S
C2630 H2624 0.930 . S
C2630 C2631 1.355 . S
C2630 C2632 1.415 . S
C2631 C2630 1.355 . S
C2631 C2633 1.419 . S
C2632 C2630 1.415 . S
C2632 C2637 1.425 . S
C2632 C2639 1.409 . S
C2633 H2625 0.930 . S
C2633 C2631 1.419 . S
C2633 C2634 1.362 . S
C2634 H2626 0.930 . S
C2634 C2633 1.362 . S
C2634 C2637 1.409 . S
C2635 H2627 0.930 . S
C2635 C2636 1.355 . S
C2635 C2637 1.415 . S
C2636 C2635 1.355 . S
C2636 C2638 1.419 . S
C2637 C2632 1.425 . S
C2637 C2634 1.409 . S
C2637 C2635 1.415 . S
C2638 H2628 0.930 . S
C2638 C2636 1.419 . S
C2638 C2639 1.362 . S
C2639 H2629 0.930 . S
C2639 C2632 1.409 . S
C2639 C2638 1.362 . S
H2640 C2646 0.930 . S
H2641 C2649 0.930 . S
H2642 C2650 0.930 . S
H2643 C2651 0.930 . S
H2644 C2654 0.930 . S
H2645 C2655 0.930 . S
C2646 H2640 0.930 . S
C2646 C2647 1.355 . S
C2646 C2648 1.415 . S
C2647 C2646 1.355 . S
C2647 C2649 1.419 . S
C2648 C2646 1.415 . S
C2648 C2653 1.425 . S
C2648 C2655 1.409 . S
C2649 H2641 0.930 . S
C2649 C2647 1.419 . S
C2649 C2650 1.362 . S
C2650 H2642 0.930 . S
C2650 C2649 1.362 . S
C2650 C2653 1.409 . S
C2651 H2643 0.930 . S
C2651 C2652 1.355 . S
C2651 C2653 1.415 . S
C2652 C2651 1.355 . S
C2652 C2654 1.419 . S
C2653 C2648 1.425 . S
C2653 C2650 1.409 . S
C2653 C2651 1.415 . S
C2654 H2644 0.930 . S
C2654 C2652 1.419 . S
C2654 C2655 1.362 . S
C2655 H2645 0.930 . S
C2655 C2648 1.409 . S
C2655 C2654 1.362 . S
H2656 C2662 0.930 . S
H2657 C2665 0.930 . S
H2658 C2666 0.930 . S
H2659 C2667 0.930 . S
H2660 C2670 0.930 . S
H2661 C2671 0.930 . S
C2662 H2656 0.930 . S
C2662 C2663 1.355 . S
C2662 C2664 1.415 . S
C2663 C2662 1.355 . S
C2663 C2665 1.419 . S
C2664 C2662 1.415 . S
C2664 C2669 1.425 . S
C2664 C2671 1.409 . S
C2665 H2657 0.930 . S
C2665 C2663 1.419 . S
C2665 C2666 1.362 . S
C2666 H2658 0.930 . S
C2666 C2665 1.362 . S
C2666 C2669 1.409 . S
C2667 H2659 0.930 . S
C2667 C2668 1.355 . S
C2667 C2669 1.415 . S
C2668 C2667 1.355 . S
C2668 C2670 1.419 . S
C2669 C2664 1.425 . S
C2669 C2666 1.409 . S
C2669 C2667 1.415 . S
C2670 H2660 0.930 . S
C2670 C2668 1.419 . S
C2670 C2671 1.362 . S
C2671 H2661 0.930 . S
C2671 C2664 1.409 . S
C2671 C2670 1.362 . S
H2672 C2678 0.930 . S
H2673 C2681 0.930 . S
H2674 C2682 0.930 . S
H2675 C2683 0.930 . S
H2676 C2686 0.930 . S
H2677 C2687 0.930 . S
C2678 H2672 0.930 . S
C2678 C2679 1.355 . S
C2678 C2680 1.415 . S
C2679 C2678 1.355 . S
C2679 C2681 1.419 . S
C2680 C2678 1.415 . S
C2680 C2685 1.425 . S
C2680 C2687 1.409 . S
C2681 H2673 0.930 . S
C2681 C2679 1.419 . S
C2681 C2682 1.362 . S
C2682 H2674 0.930 . S
C2682 C2681 1.362 . S
C2682 C2685 1.409 . S
C2683 H2675 0.930 . S
C2683 C2684 1.355 . S
C2683 C2685 1.415 . S
C2684 C2683 1.355 . S
C2684 C2686 1.419 . S
C2685 C2680 1.425 . S
C2685 C2682 1.409 . S
C2685 C2683 1.415 . S
C2686 H2676 0.930 . S
C2686 C2684 1.419 . S
C2686 C2687 1.362 . S
C2687 H2677 0.930 . S
C2687 C2680 1.409 . S
C2687 C2686 1.362 . S
H2688 C2694 0.930 . S
H2689 C2697 0.930 . S
H2690 C2698 0.930 . S
H2691 C2699 0.930 . S
H2692 C2702 0.930 . S
H2693 C2703 0.930 . S
C2694 H2688 0.930 . S
C2694 C2695 1.355 . S
C2694 C2696 1.415 . S
C2695 C2694 1.355 . S
C2695 C2697 1.419 . S
C2696 C2694 1.415 . S
C2696 C2701 1.425 . S
C2696 C2703 1.409 . S
C2697 H2689 0.930 . S
C2697 C2695 1.419 . S
C2697 C2698 1.362 . S
C2698 H2690 0.930 . S
C2698 C2697 1.362 . S
C2698 C2701 1.409 . S
C2699 H2691 0.930 . S
C2699 C2700 1.355 . S
C2699 C2701 1.415 . S
C2700 C2699 1.355 . S
C2700 C2702 1.419 . S
C2701 C2696 1.425 . S
C2701 C2698 1.409 . S
C2701 C2699 1.415 . S
C2702 H2692 0.930 . S
C2702 C2700 1.419 . S
C2702 C2703 1.362 . S
C2703 H2693 0.930 . S
C2703 C2696 1.409 . S
C2703 C2702 1.362 . S
H2704 C2710 0.930 . S
H2705 C2713 0.930 . S
H2706 C2714 0.930 . S
H2707 C2715 0.930 . S
H2708 C2718 0.930 . S
H2709 C2719 0.930 . S
C2710 H2704 0.930 . S
C2710 C2711 1.355 . S
C2710 C2712 1.415 . S
C2711 C2710 1.355 . S
C2711 C2713 1.419 . S
C2712 C2710 1.415 . S
C2712 C2717 1.425 . S
C2712 C2719 1.409 . S
C2713 H2705 0.930 . S
C2713 C2711 1.419 . S
C2713 C2714 1.362 . S
C2714 H2706 0.930 . S
C2714 C2713 1.362 . S
C2714 C2717 1.409 . S
C2715 H2707 0.930 . S
C2715 C2716 1.355 . S
C2715 C2717 1.415 . S
C2716 C2715 1.355 . S
C2716 C2718 1.419 . S
C2717 C2712 1.425 . S
C2717 C2714 1.409 . S
C2717 C2715 1.415 . S
C2718 H2708 0.930 . S
C2718 C2716 1.419 . S
C2718 C2719 1.362 . S
C2719 H2709 0.930 . S
C2719 C2712 1.409 . S
C2719 C2718 1.362 . S
H2720 C2726 0.930 . S
H2721 C2729 0.930 . S
H2722 C2730 0.930 . S
H2723 C2731 0.930 . S
H2724 C2734 0.930 . S
H2725 C2735 0.930 . S
C2726 H2720 0.930 . S
C2726 C2727 1.355 . S
C2726 C2728 1.415 . S
C2727 C2726 1.355 . S
C2727 C2729 1.419 . S
C2728 C2726 1.415 . S
C2728 C2733 1.425 . S
C2728 C2735 1.409 . S
C2729 H2721 0.930 . S
C2729 C2727 1.419 . S
C2729 C2730 1.362 . S
C2730 H2722 0.930 . S
C2730 C2729 1.362 . S
C2730 C2733 1.409 . S
C2731 H2723 0.930 . S
C2731 C2732 1.355 . S
C2731 C2733 1.415 . S
C2732 C2731 1.355 . S
C2732 C2734 1.419 . S
C2733 C2728 1.425 . S
C2733 C2730 1.409 . S
C2733 C2731 1.415 . S
C2734 H2724 0.930 . S
C2734 C2732 1.419 . S
C2734 C2735 1.362 . S
C2735 H2725 0.930 . S
C2735 C2728 1.409 . S
C2735 C2734 1.362 . S
H2736 C2742 0.930 . S
H2737 C2745 0.930 . S
H2738 C2746 0.930 . S
H2739 C2747 0.930 . S
H2740 C2750 0.930 . S
H2741 C2751 0.930 . S
C2742 H2736 0.930 . S
C2742 C2743 1.355 . S
C2742 C2744 1.415 . S
C2743 C2742 1.355 . S
C2743 C2745 1.419 . S
C2744 C2742 1.415 . S
C2744 C2749 1.425 . S
C2744 C2751 1.409 . S
C2745 H2737 0.930 . S
C2745 C2743 1.419 . S
C2745 C2746 1.362 . S
C2746 H2738 0.930 . S
C2746 C2745 1.362 . S
C2746 C2749 1.409 . S
C2747 H2739 0.930 . S
C2747 C2748 1.355 . S
C2747 C2749 1.415 . S
C2748 C2747 1.355 . S
C2748 C2750 1.419 . S
C2749 C2744 1.425 . S
C2749 C2746 1.409 . S
C2749 C2747 1.415 . S
C2750 H2740 0.930 . S
C2750 C2748 1.419 . S
C2750 C2751 1.362 . S
C2751 H2741 0.930 . S
C2751 C2744 1.409 . S
C2751 C2750 1.362 . S
H2752 C2758 0.930 . S
H2753 C2761 0.930 . S
H2754 C2762 0.930 . S
H2755 C2763 0.930 . S
H2756 C2766 0.930 . S
H2757 C2767 0.930 . S
C2758 H2752 0.930 . S
C2758 C2759 1.355 . S
C2758 C2760 1.415 . S
C2759 C2758 1.355 . S
C2759 C2761 1.419 . S
C2760 C2758 1.415 . S
C2760 C2765 1.425 . S
C2760 C2767 1.409 . S
C2761 H2753 0.930 . S
C2761 C2759 1.419 . S
C2761 C2762 1.362 . S
C2762 H2754 0.930 . S
C2762 C2761 1.362 . S
C2762 C2765 1.409 . S
C2763 H2755 0.930 . S
C2763 C2764 1.355 . S
C2763 C2765 1.415 . S
C2764 C2763 1.355 . S
C2764 C2766 1.419 . S
C2765 C2760 1.425 . S
C2765 C2762 1.409 . S
C2765 C2763 1.415 . S
C2766 H2756 0.930 . S
C2766 C2764 1.419 . S
C2766 C2767 1.362 . S
C2767 H2757 0.930 . S
C2767 C2760 1.409 . S
C2767 C2766 1.362 . S
H2768 C2774 0.930 . S
H2769 C2777 0.930 . S
H2770 C2778 0.930 . S
H2771 C2779 0.930 . S
H2772 C2782 0.930 . S
H2773 C2783 0.930 . S
C2774 H2768 0.930 . S
C2774 C2775 1.355 . S
C2774 C2776 1.415 . S
C2775 C2774 1.355 . S
C2775 C2777 1.419 . S
C2776 C2774 1.415 . S
C2776 C2781 1.425 . S
C2776 C2783 1.409 . S
C2777 H2769 0.930 . S
C2777 C2775 1.419 . S
C2777 C2778 1.362 . S
C2778 H2770 0.930 . S
C2778 C2777 1.362 . S
C2778 C2781 1.409 . S
C2779 H2771 0.930 . S
C2779 C2780 1.355 . S
C2779 C2781 1.415 . S
C2780 C2779 1.355 . S
C2780 C2782 1.419 . S
C2781 C2776 1.425 . S
C2781 C2778 1.409 . S
C2781 C2779 1.415 . S
C2782 H2772 0.930 . S
C2782 C2780 1.419 . S
C2782 C2783 1.362 . S
C2783 H2773 0.930 . S
C2783 C2776 1.409 . S
C2783 C2782 1.362 . S
H2784 C2790 0.930 . S
H2785 C2793 0.930 . S
H2786 C2794 0.930 . S
H2787 C2795 0.930 . S
H2788 C2798 0.930 . S
H2789 C2799 0.930 . S
C2790 H2784 0.930 . S
C2790 C2791 1.355 . S
C2790 C2792 1.415 . S
C2791 C2790 1.355 . S
C2791 C2793 1.419 . S
C2792 C2790 1.415 . S
C2792 C2797 1.425 . S
C2792 C2799 1.409 . S
C2793 H2785 0.930 . S
C2793 C2791 1.419 . S
C2793 C2794 1.362 . S
C2794 H2786 0.930 . S
C2794 C2793 1.362 . S
C2794 C2797 1.409 . S
C2795 H2787 0.930 . S
C2795 C2796 1.355 . S
C2795 C2797 1.415 . S
C2796 C2795 1.355 . S
C2796 C2798 1.419 . S
C2797 C2792 1.425 . S
C2797 C2794 1.409 . S
C2797 C2795 1.415 . S
C2798 H2788 0.930 . S
C2798 C2796 1.419 . S
C2798 C2799 1.362 . S
C2799 H2789 0.930 . S
C2799 C2792 1.409 . S
C2799 C2798 1.362 . S
H2800 C2806 0.930 . S
H2801 C2809 0.930 . S
H2802 C2810 0.930 . S
H2803 C2811 0.930 . S
H2804 C2814 0.930 . S
H2805 C2815 0.930 . S
C2806 H2800 0.930 . S
C2806 C2807 1.355 . S
C2806 C2808 1.415 . S
C2807 C2806 1.355 . S
C2807 C2809 1.419 . S
C2808 C2806 1.415 . S
C2808 C2813 1.425 . S
C2808 C2815 1.409 . S
C2809 H2801 0.930 . S
C2809 C2807 1.419 . S
C2809 C2810 1.362 . S
C2810 H2802 0.930 . S
C2810 C2809 1.362 . S
C2810 C2813 1.409 . S
C2811 H2803 0.930 . S
C2811 C2812 1.355 . S
C2811 C2813 1.415 . S
C2812 C2811 1.355 . S
C2812 C2814 1.419 . S
C2813 C2808 1.425 . S
C2813 C2810 1.409 . S
C2813 C2811 1.415 . S
C2814 H2804 0.930 . S
C2814 C2812 1.419 . S
C2814 C2815 1.362 . S
C2815 H2805 0.930 . S
C2815 C2808 1.409 . S
C2815 C2814 1.362 . S
H2816 C2822 0.930 . S
H2817 C2825 0.930 . S
H2818 C2826 0.930 . S
H2819 C2827 0.930 . S
H2820 C2830 0.930 . S
H2821 C2831 0.930 . S
C2822 H2816 0.930 . S
C2822 C2823 1.355 . S
C2822 C2824 1.415 . S
C2823 C2822 1.355 . S
C2823 C2825 1.419 . S
C2824 C2822 1.415 . S
C2824 C2829 1.425 . S
C2824 C2831 1.409 . S
C2825 H2817 0.930 . S
C2825 C2823 1.419 . S
C2825 C2826 1.362 . S
C2826 H2818 0.930 . S
C2826 C2825 1.362 . S
C2826 C2829 1.409 . S
C2827 H2819 0.930 . S
C2827 C2828 1.355 . S
C2827 C2829 1.415 . S
C2828 C2827 1.355 . S
C2828 C2830 1.419 . S
C2829 C2824 1.425 . S
C2829 C2826 1.409 . S
C2829 C2827 1.415 . S
C2830 H2820 0.930 . S
C2830 C2828 1.419 . S
C2830 C2831 1.362 . S
C2831 H2821 0.930 . S
C2831 C2824 1.409 . S
C2831 C2830 1.362 . S
H2832 C2838 0.930 . S
H2833 C2841 0.930 . S
H2834 C2842 0.930 . S
H2835 C2843 0.930 . S
H2836 C2846 0.930 . S
H2837 C2847 0.930 . S
C2838 H2832 0.930 . S
C2838 C2839 1.355 . S
C2838 C2840 1.415 . S
C2839 C2838 1.355 . S
C2839 C2841 1.419 . S
C2840 C2838 1.415 . S
C2840 C2845 1.425 . S
C2840 C2847 1.409 . S
C2841 H2833 0.930 . S
C2841 C2839 1.419 . S
C2841 C2842 1.362 . S
C2842 H2834 0.930 . S
C2842 C2841 1.362 . S
C2842 C2845 1.409 . S
C2843 H2835 0.930 . S
C2843 C2844 1.355 . S
C2843 C2845 1.415 . S
C2844 C2843 1.355 . S
C2844 C2846 1.419 . S
C2845 C2840 1.425 . S
C2845 C2842 1.409 . S
C2845 C2843 1.415 . S
C2846 H2836 0.930 . S
C2846 C2844 1.419 . S
C2846 C2847 1.362 . S
C2847 H2837 0.930 . S
C2847 C2840 1.409 . S
C2847 C2846 1.362 . S
H2848 C2854 0.930 . S
H2849 C2857 0.930 . S
H2850 C2858 0.930 . S
H2851 C2859 0.930 . S
H2852 C2862 0.930 . S
H2853 C2863 0.930 . S
C2854 H2848 0.930 . S
C2854 C2855 1.355 . S
C2854 C2856 1.415 . S
C2855 C2854 1.355 . S
C2855 C2857 1.419 . S
C2856 C2854 1.415 . S
C2856 C2861 1.425 . S
C2856 C2863 1.409 . S
C2857 H2849 0.930 . S
C2857 C2855 1.419 . S
C2857 C2858 1.362 . S
C2858 H2850 0.930 . S
C2858 C2857 1.362 . S
C2858 C2861 1.409 . S
C2859 H2851 0.930 . S
C2859 C2860 1.355 . S
C2859 C2861 1.415 . S
C2860 C2859 1.355 . S
C2860 C2862 1.419 . S
C2861 C2856 1.425 . S
C2861 C2858 1.409 . S
C2861 C2859 1.415 . S
C2862 H2852 0.930 . S
C2862 C2860 1.419 . S
C2862 C2863 1.362 . S
C2863 H2853 0.930 . S
C2863 C2856 1.409 . S
C2863 C2862 1.362 . S
H2864 C2870 0.930 . S
H2865 C2873 0.930 . S
H2866 C2874 0.930 . S
H2867 C2875 0.930 . S
H2868 C2878 0.930 . S
H2869 C2879 0.930 . S
C2870 H2864 0.930 . S
C2870 C2871 1.355 . S
C2870 C2872 1.415 . S
C2871 C2870 1.355 . S
C2871 C2873 1.419 . S
C2872 C2870 1.415 . S
C2872 C2877 1.425 . S
C2872 C2879 1.409 . S
C2873 H2865 0.930 . S
C2873 C2871 1.419 . S
C2873 C2874 1.362 . S
C2874 H2866 0.930 . S
C2874 C2873 1.362 . S
C2874 C2877 1.409 . S
C2875 H2867 0.930 . S
C2875 C2876 1.355 . S
C2875 C2877 1.415 . S
C2876 C2875 1.355 . S
C2876 C2878 1.419 . S
C2877 C2872 1.425 . S
C2877 C2874 1.409 . S
C2877 C2875 1.415 . S
C2878 H2868 0.930 . S
C2878 C2876 1.419 . S
C2878 C2879 1.362 . S
C2879 H2869 0.930 . S
C2879 C2872 1.409 . S
C2879 C2878 1.362 . S
H2880 C2886 0.930 . S
H2881 C2889 0.930 . S
H2882 C2890 0.930 . S
H2883 C2891 0.930 . S
H2884 C2894 0.930 . S
H2885 C2895 0.930 . S
C2886 H2880 0.930 . S
C2886 C2887 1.355 . S
C2886 C2888 1.415 . S
C2887 C2886 1.355 . S
C2887 C2889 1.419 . S
C2888 C2886 1.415 . S
C2888 C2893 1.425 . S
C2888 C2895 1.409 . S
C2889 H2881 0.930 . S
C2889 C2887 1.419 . S
C2889 C2890 1.362 . S
C2890 H2882 0.930 . S
C2890 C2889 1.362 . S
C2890 C2893 1.409 . S
C2891 H2883 0.930 . S
C2891 C2892 1.355 . S
C2891 C2893 1.415 . S
C2892 C2891 1.355 . S
C2892 C2894 1.419 . S
C2893 C2888 1.425 . S
C2893 C2890 1.409 . S
C2893 C2891 1.415 . S
C2894 H2884 0.930 . S
C2894 C2892 1.419 . S
C2894 C2895 1.362 . S
C2895 H2885 0.930 . S
C2895 C2888 1.409 . S
C2895 C2894 1.362 . S
H2896 C2902 0.930 . S
H2897 C2905 0.930 . S
H2898 C2906 0.930 . S
H2899 C2907 0.930 . S
H2900 C2910 0.930 . S
H2901 C2911 0.930 . S
C2902 H2896 0.930 . S
C2902 C2903 1.355 . S
C2902 C2904 1.415 . S
C2903 C2902 1.355 . S
C2903 C2905 1.419 . S
C2904 C2902 1.415 . S
C2904 C2909 1.425 . S
C2904 C2911 1.409 . S
C2905 H2897 0.930 . S
C2905 C2903 1.419 . S
C2905 C2906 1.362 . S
C2906 H2898 0.930 . S
C2906 C2905 1.362 . S
C2906 C2909 1.409 . S
C2907 H2899 0.930 . S
C2907 C2908 1.355 . S
C2907 C2909 1.415 . S
C2908 C2907 1.355 . S
C2908 C2910 1.419 . S
C2909 C2904 1.425 . S
C2909 C2906 1.409 . S
C2909 C2907 1.415 . S
C2910 H2900 0.930 . S
C2910 C2908 1.419 . S
C2910 C2911 1.362 . S
C2911 H2901 0.930 . S
C2911 C2904 1.409 . S
C2911 C2910 1.362 . S
H2912 C2918 0.930 . S
H2913 C2921 0.930 . S
H2914 C2922 0.930 . S
H2915 C2923 0.930 . S
H2916 C2926 0.930 . S
H2917 C2927 0.930 . S
C2918 H2912 0.930 . S
C2918 C2919 1.355 . S
C2918 C2920 1.415 . S
C2919 C2918 1.355 . S
C2919 C2921 1.419 . S
C2920 C2918 1.415 . S
C2920 C2925 1.425 . S
C2920 C2927 1.409 . S
C2921 H2913 0.930 . S
C2921 C2919 1.419 . S
C2921 C2922 1.362 . S
C2922 H2914 0.930 . S
C2922 C2921 1.362 . S
C2922 C2925 1.409 . S
C2923 H2915 0.930 . S
C2923 C2924 1.355 . S
C2923 C2925 1.415 . S
C2924 C2923 1.355 . S
C2924 C2926 1.419 . S
C2925 C2920 1.425 . S
C2925 C2922 1.409 . S
C2925 C2923 1.415 . S
C2926 H2916 0.930 . S
C2926 C2924 1.419 . S
C2926 C2927 1.362 . S
C2927 H2917 0.930 . S
C2927 C2920 1.409 . S
C2927 C2926 1.362 . S
H2928 C2934 0.930 . S
H2929 C2937 0.930 . S
H2930 C2938 0.930 . S
H2931 C2939 0.930 . S
H2932 C2942 0.930 . S
H2933 C2943 0.930 . S
C2934 H2928 0.930 . S
C2934 C2935 1.355 . S
C2934 C2936 1.415 . S
C2935 C2934 1.355 . S
C2935 C2937 1.419 . S
C2936 C2934 1.415 . S
C2936 C2941 1.425 . S
C2936 C2943 1.409 . S
C2937 H2929 0.930 . S
C2937 C2935 1.419 . S
C2937 C2938 1.362 . S
C2938 H2930 0.930 . S
C2938 C2937 1.362 . S
C2938 C2941 1.409 . S
C2939 H2931 0.930 . S
C2939 C2940 1.355 . S
C2939 C2941 1.415 . S
C2940 C2939 1.355 . S
C2940 C2942 1.419 . S
C2941 C2936 1.425 . S
C2941 C2938 1.409 . S
C2941 C2939 1.415 . S
C2942 H2932 0.930 . S
C2942 C2940 1.419 . S
C2942 C2943 1.362 . S
C2943 H2933 0.930 . S
C2943 C2936 1.409 . S
C2943 C2942 1.362 . S
H2944 C2950 0.930 . S
H2945 C2953 0.930 . S
H2946 C2954 0.930 . S
H2947 C2955 0.930 . S
H2948 C2958 0.930 . S
H2949 C2959 0.930 . S
C2950 H2944 0.930 . S
C2950 C2951 1.355 . S
C2950 C2952 1.415 . S
C2951 C2950 1.355 . S
C2951 C2953 1.419 . S
C2952 C2950 1.415 . S
C2952 C2957 1.425 . S
C2952 C2959 1.409 . S
C2953 H2945 0.930 . S
C2953 C2951 1.419 . S
C2953 C2954 1.362 . S
C2954 H2946 0.930 . S
C2954 C2953 1.362 . S
C2954 C2957 1.409 . S
C2955 H2947 0.930 . S
C2955 C2956 1.355 . S
C2955 C2957 1.415 . S
C2956 C2955 1.355 . S
C2956 C2958 1.419 . S
C2957 C2952 1.425 . S
C2957 C2954 1.409 . S
C2957 C2955 1.415 . S
C2958 H2948 0.930 . S
C2958 C2956 1.419 . S
C2958 C2959 1.362 . S
C2959 H2949 0.930 . S
C2959 C2952 1.409 . S
C2959 C2958 1.362 . S
H2960 C2966 0.930 . S
H2961 C2969 0.930 . S
H2962 C2970 0.930 . S
H2963 C2971 0.930 . S
H2964 C2974 0.930 . S
H2965 C2975 0.930 . S
C2966 H2960 0.930 . S
C2966 C2967 1.355 . S
C2966 C2968 1.415 . S
C2967 C2966 1.355 . S
C2967 C2969 1.419 . S
C2968 C2966 1.415 . S
C2968 C2973 1.425 . S
C2968 C2975 1.409 . S
C2969 H2961 0.930 . S
C2969 C2967 1.419 . S
C2969 C2970 1.362 . S
C2970 H2962 0.930 . S
C2970 C2969 1.362 . S
C2970 C2973 1.409 . S
C2971 H2963 0.930 . S
C2971 C2972 1.355 . S
C2971 C2973 1.415 . S
C2972 C2971 1.355 . S
C2972 C2974 1.419 . S
C2973 C2968 1.425 . S
C2973 C2970 1.409 . S
C2973 C2971 1.415 . S
C2974 H2964 0.930 . S
C2974 C2972 1.419 . S
C2974 C2975 1.362 . S
C2975 H2965 0.930 . S
C2975 C2968 1.409 . S
C2975 C2974 1.362 . S
H2976 C2982 0.930 . S
H2977 C2985 0.930 . S
H2978 C2986 0.930 . S
H2979 C2987 0.930 . S
H2980 C2990 0.930 . S
H2981 C2991 0.930 . S
C2982 H2976 0.930 . S
C2982 C2983 1.355 . S
C2982 C2984 1.415 . S
C2983 C2982 1.355 . S
C2983 C2985 1.419 . S
C2984 C2982 1.415 . S
C2984 C2989 1.425 . S
C2984 C2991 1.409 . S
C2985 H2977 0.930 . S
C2985 C2983 1.419 . S
C2985 C2986 1.362 . S
C2986 H2978 0.930 . S
C2986 C2985 1.362 . S
C2986 C2989 1.409 . S
C2987 H2979 0.930 . S
C2987 C2988 1.355 . S
C2987 C2989 1.415 . S
C2988 C2987 1.355 . S
C2988 C2990 1.419 . S
C2989 C2984 1.425 . S
C2989 C2986 1.409 . S
C2989 C2987 1.415 . S
C2990 H2980 0.930 . S
C2990 C2988 1.419 . S
C2990 C2991 1.362 . S
C2991 H2981 0.930 . S
C2991 C2984 1.409 . S
C2991 C2990 1.362 . S
H2992 C2998 0.930 . S
H2993 C3001 0.930 . S
H2994 C3002 0.930 . S
H2995 C3003 0.930 . S
H2996 C3006 0.930 . S
H2997 C3007 0.930 . S
C2998 H2992 0.930 . S
C2998 C2999 1.355 . S
C2998 C3000 1.415 . S
C2999 C2998 1.355 . S
C2999 C3001 1.419 . S
C3000 C2998 1.415 . S
C3000 C3005 1.425 . S
C3000 C3007 1.409 . S
C3001 H2993 0.930 . S
C3001 C2999 1.419 . S
C3001 C3002 1.362 . S
C3002 H2994 0.930 . S
C3002 C3001 1.362 . S
C3002 C3005 1.409 . S
C3003 H2995 0.930 . S
C3003 C3004 1.355 . S
C3003 C3005 1.415 . S
C3004 C3003 1.355 . S
C3004 C3006 1.419 . S
C3005 C3000 1.425 . S
C3005 C3002 1.409 . S
C3005 C3003 1.415 . S
C3006 H2996 0.930 . S
C3006 C3004 1.419 . S
C3006 C3007 1.362 . S
C3007 H2997 0.930 . S
C3007 C3000 1.409 . S
C3007 C3006 1.362 . S
H3008 C3014 0.930 1_554 S
H3009 C3017 0.930 . S
H3010 C3018 0.930 . S
H3011 C3019 0.930 . S
H3012 C3022 0.930 . S
H3013 C3023 0.930 . S
C3014 H3008 0.930 1_556 S
C3014 C3015 1.355 . S
C3014 C3016 1.415 . S
C3015 C3014 1.355 . S
C3015 C3017 1.419 . S
C3016 C3014 1.415 . S
C3016 C3021 1.425 . S
C3016 C3023 1.409 . S
C3017 H3009 0.930 . S
C3017 C3015 1.419 . S
C3017 C3018 1.362 . S
C3018 H3010 0.930 . S
C3018 C3017 1.362 . S
C3018 C3021 1.409 . S
C3019 H3011 0.930 . S
C3019 C3020 1.355 . S
C3019 C3021 1.415 . S
C3020 C3019 1.355 . S
C3020 C3022 1.419 . S
C3021 C3016 1.425 . S
C3021 C3018 1.409 . S
C3021 C3019 1.415 . S
C3022 H3012 0.930 . S
C3022 C3020 1.419 . S
C3022 C3023 1.362 . S
C3023 H3013 0.930 . S
C3023 C3016 1.409 . S
C3023 C3022 1.362 . S
H3024 C3030 0.930 . S
H3025 C3033 0.930 . S
H3026 C3034 0.930 . S
H3027 C3035 0.930 . S
H3028 C3038 0.930 . S
H3029 C3039 0.930 . S
C3030 H3024 0.930 . S
C3030 C3031 1.355 . S
C3030 C3032 1.415 . S
C3031 C3030 1.355 . S
C3031 C3033 1.419 . S
C3032 C3030 1.415 . S
C3032 C3037 1.425 . S
C3032 C3039 1.409 . S
C3033 H3025 0.930 . S
C3033 C3031 1.419 . S
C3033 C3034 1.362 . S
C3034 H3026 0.930 . S
C3034 C3033 1.362 . S
C3034 C3037 1.409 . S
C3035 H3027 0.930 . S
C3035 C3036 1.355 . S
C3035 C3037 1.415 . S
C3036 C3035 1.355 . S
C3036 C3038 1.419 . S
C3037 C3032 1.425 . S
C3037 C3034 1.409 . S
C3037 C3035 1.415 . S
C3038 H3028 0.930 . S
C3038 C3036 1.419 . S
C3038 C3039 1.362 . S
C3039 H3029 0.930 . S
C3039 C3032 1.409 . S
C3039 C3038 1.362 . S
H3040 C3046 0.930 . S
H3041 C3049 0.930 . S
H3042 C3050 0.930 . S
H3043 C3051 0.930 . S
H3044 C3054 0.930 . S
H3045 C3055 0.930 . S
C3046 H3040 0.930 . S
C3046 C3047 1.355 . S
C3046 C3048 1.415 . S
C3047 C3046 1.355 . S
C3047 C3049 1.419 . S
C3048 C3046 1.415 . S
C3048 C3053 1.425 . S
C3048 C3055 1.409 . S
C3049 H3041 0.930 . S
C3049 C3047 1.419 . S
C3049 C3050 1.362 . S
C3050 H3042 0.930 . S
C3050 C3049 1.362 . S
C3050 C3053 1.409 . S
C3051 H3043 0.930 . S
C3051 C3052 1.355 . S
C3051 C3053 1.415 . S
C3052 C3051 1.355 . S
C3052 C3054 1.419 . S
C3053 C3048 1.425 . S
C3053 C3050 1.409 . S
C3053 C3051 1.415 . S
C3054 H3044 0.930 . S
C3054 C3052 1.419 . S
C3054 C3055 1.362 . S
C3055 H3045 0.930 . S
C3055 C3048 1.409 . S
C3055 C3054 1.362 . S
H3056 C3062 0.930 . S
H3057 C3065 0.930 . S
H3058 C3066 0.930 . S
H3059 C3067 0.930 . S
H3060 C3070 0.930 . S
H3061 C3071 0.930 . S
C3062 H3056 0.930 . S
C3062 C3063 1.355 . S
C3062 C3064 1.415 . S
C3063 C3062 1.355 . S
C3063 C3065 1.419 . S
C3064 C3062 1.415 . S
C3064 C3069 1.425 . S
C3064 C3071 1.409 . S
C3065 H3057 0.930 . S
C3065 C3063 1.419 . S
C3065 C3066 1.362 . S
C3066 H3058 0.930 . S
C3066 C3065 1.362 . S
C3066 C3069 1.409 . S
C3067 H3059 0.930 . S
C3067 C3068 1.355 . S
C3067 C3069 1.415 . S
C3068 C3067 1.355 . S
C3068 C3070 1.419 . S
C3069 C3064 1.425 . S
C3069 C3066 1.409 . S
C3069 C3067 1.415 . S
C3070 H3060 0.930 . S
C3070 C3068 1.419 . S
C3070 C3071 1.362 . S
C3071 H3061 0.930 . S
C3071 C3064 1.409 . S
C3071 C3070 1.362 . S
H3072 C3078 0.930 . S
H3073 C3081 0.930 . S
H3074 C3082 0.930 . S
H3075 C3083 0.930 . S
H3076 C3086 0.930 . S
H3077 C3087 0.930 . S
C3078 H3072 0.930 . S
C3078 C3079 1.355 . S
C3078 C3080 1.415 . S
C3079 C3078 1.355 . S
C3079 C3081 1.419 . S
C3080 C3078 1.415 . S
C3080 C3085 1.425 . S
C3080 C3087 1.409 . S
C3081 H3073 0.930 . S
C3081 C3079 1.419 . S
C3081 C3082 1.362 . S
C3082 H3074 0.930 . S
C3082 C3081 1.362 . S
C3082 C3085 1.409 . S
C3083 H3075 0.930 . S
C3083 C3084 1.355 . S
C3083 C3085 1.415 . S
C3084 C3083 1.355 . S
C3084 C3086 1.419 . S
C3085 C3080 1.425 . S
C3085 C3082 1.409 . S
C3085 C3083 1.415 . S
C3086 H3076 0.930 . S
C3086 C3084 1.419 . S
C3086 C3087 1.362 . S
C3087 H3077 0.930 . S
C3087 C3080 1.409 . S
C3087 C3086 1.362 . S
H3088 C3094 0.930 . S
H3089 C3097 0.930 . S
H3090 C3098 0.930 . S
H3091 C3099 0.930 . S
H3092 C3102 0.930 . S
H3093 C3103 0.930 . S
C3094 H3088 0.930 . S
C3094 C3095 1.355 . S
C3094 C3096 1.415 . S
C3095 C3094 1.355 . S
C3095 C3097 1.419 . S
C3096 C3094 1.415 . S
C3096 C3101 1.425 . S
C3096 C3103 1.409 . S
C3097 H3089 0.930 . S
C3097 C3095 1.419 . S
C3097 C3098 1.362 . S
C3098 H3090 0.930 . S
C3098 C3097 1.362 . S
C3098 C3101 1.409 . S
C3099 H3091 0.930 . S
C3099 C3100 1.355 . S
C3099 C3101 1.415 . S
C3100 C3099 1.355 . S
C3100 C3102 1.419 . S
C3101 C3096 1.425 . S
C3101 C3098 1.409 . S
C3101 C3099 1.415 . S
C3102 H3092 0.930 . S
C3102 C3100 1.419 . S
C3102 C3103 1.362 . S
C3103 H3093 0.930 . S
C3103 C3096 1.409 . S
C3103 C3102 1.362 . S
H3104 C3110 0.930 . S
H3105 C3113 0.930 . S
H3106 C3114 0.930 . S
H3107 C3115 0.930 . S
H3108 C3118 0.930 . S
H3109 C3119 0.930 . S
C3110 H3104 0.930 . S
C3110 C3111 1.355 . S
C3110 C3112 1.415 . S
C3111 C3110 1.355 . S
C3111 C3113 1.419 . S
C3112 C3110 1.415 . S
C3112 C3117 1.425 . S
C3112 C3119 1.409 . S
C3113 H3105 0.930 . S
C3113 C3111 1.419 . S
C3113 C3114 1.362 . S
C3114 H3106 0.930 . S
C3114 C3113 1.362 . S
C3114 C3117 1.409 . S
C3115 H3107 0.930 . S
C3115 C3116 1.355 . S
C3115 C3117 1.415 . S
C3116 C3115 1.355 . S
C3116 C3118 1.419 . S
C3117 C3112 1.425 . S
C3117 C3114 1.409 . S
C3117 C3115 1.415 . S
C3118 H3108 0.930 . S
C3118 C3116 1.419 . S
C3118 C3119 1.362 . S
C3119 H3109 0.930 . S
C3119 C3112 1.409 . S
C3119 C3118 1.362 . S
H3120 C3126 0.930 1_655 S
H3121 C3129 0.930 . S
H3122 C3130 0.930 . S
H3123 C3131 0.930 . S
H3124 C3134 0.930 . S
H3125 C3135 0.930 . S
C3126 H3120 0.930 1_455 S
C3126 C3127 1.355 . S
C3126 C3128 1.415 . S
C3127 C3126 1.355 . S
C3127 C3129 1.419 . S
C3128 C3126 1.415 . S
C3128 C3133 1.425 . S
C3128 C3135 1.409 1_455 S
C3129 H3121 0.930 . S
C3129 C3127 1.419 . S
C3129 C3130 1.362 . S
C3130 H3122 0.930 . S
C3130 C3129 1.362 . S
C3130 C3133 1.409 . S
C3131 H3123 0.930 . S
C3131 C3132 1.355 . S
C3131 C3133 1.415 . S
C3132 C3131 1.355 . S
C3132 C3134 1.419 1_455 S
C3133 C3128 1.425 . S
C3133 C3130 1.409 . S
C3133 C3131 1.415 . S
C3134 H3124 0.930 . S
C3134 C3132 1.419 1_655 S
C3134 C3135 1.362 . S
C3135 H3125 0.930 . S
C3135 C3128 1.409 1_655 S
C3135 C3134 1.362 . S
H3136 C3142 0.930 . S
H3137 C3145 0.930 . S
H3138 C3146 0.930 . S
H3139 C3147 0.930 . S
H3140 C3150 0.930 . S
H3141 C3151 0.930 . S
C3142 H3136 0.930 . S
C3142 C3143 1.355 . S
C3142 C3144 1.415 . S
C3143 C3142 1.355 . S
C3143 C3145 1.419 . S
C3144 C3142 1.415 . S
C3144 C3149 1.425 . S
C3144 C3151 1.409 . S
C3145 H3137 0.930 . S
C3145 C3143 1.419 . S
C3145 C3146 1.362 . S
C3146 H3138 0.930 . S
C3146 C3145 1.362 . S
C3146 C3149 1.409 . S
C3147 H3139 0.930 . S
C3147 C3148 1.355 . S
C3147 C3149 1.415 . S
C3148 C3147 1.355 . S
C3148 C3150 1.419 . S
C3149 C3144 1.425 . S
C3149 C3146 1.409 . S
C3149 C3147 1.415 . S
C3150 H3140 0.930 . S
C3150 C3148 1.419 . S
C3150 C3151 1.362 . S
C3151 H3141 0.930 . S
C3151 C3144 1.409 . S
C3151 C3150 1.362 . S
H3152 C3158 0.930 . S
H3153 C3161 0.930 . S
H3154 C3162 0.930 . S
H3155 C3163 0.930 . S
H3156 C3166 0.930 . S
H3157 C3167 0.930 . S
C3158 H3152 0.930 . S
C3158 C3159 1.355 . S
C3158 C3160 1.415 . S
C3159 C3158 1.355 . S
C3159 C3161 1.419 . S
C3160 C3158 1.415 . S
C3160 C3165 1.425 . S
C3160 C3167 1.409 . S
C3161 H3153 0.930 . S
C3161 C3159 1.419 . S
C3161 C3162 1.362 . S
C3162 H3154 0.930 . S
C3162 C3161 1.362 . S
C3162 C3165 1.409 . S
C3163 H3155 0.930 . S
C3163 C3164 1.355 . S
C3163 C3165 1.415 . S
C3164 C3163 1.355 . S
C3164 C3166 1.419 . S
C3165 C3160 1.425 . S
C3165 C3162 1.409 . S
C3165 C3163 1.415 . S
C3166 H3156 0.930 . S
C3166 C3164 1.419 . S
C3166 C3167 1.362 . S
C3167 H3157 0.930 . S
C3167 C3160 1.409 . S
C3167 C3166 1.362 . S
H3168 C3174 0.930 . S
H3169 C3177 0.930 . S
H3170 C3178 0.930 . S
H3171 C3179 0.930 . S
H3172 C3182 0.930 . S
H3173 C3183 0.930 . S
C3174 H3168 0.930 . S
C3174 C3175 1.355 . S
C3174 C3176 1.415 . S
C3175 C3174 1.355 . S
C3175 C3177 1.419 1_565 S
C3176 C3174 1.415 . S
C3176 C3181 1.425 . S
C3176 C3183 1.409 . S
C3177 H3169 0.930 . S
C3177 C3175 1.419 1_545 S
C3177 C3178 1.362 . S
C3178 H3170 0.930 . S
C3178 C3177 1.362 . S
C3178 C3181 1.409 1_545 S
C3179 H3171 0.930 . S
C3179 C3180 1.355 1_545 S
C3179 C3181 1.415 1_545 S
C3180 C3179 1.355 1_565 S
C3180 C3182 1.419 . S
C3181 C3176 1.425 . S
C3181 C3178 1.409 1_565 S
C3181 C3179 1.415 1_565 S
C3182 H3172 0.930 . S
C3182 C3180 1.419 . S
C3182 C3183 1.362 . S
C3183 H3173 0.930 . S
C3183 C3176 1.409 . S
C3183 C3182 1.362 . S
H3184 C3190 0.930 . S
H3185 C3193 0.930 . S
H3186 C3194 0.930 . S
H3187 C3195 0.930 . S
H3188 C3198 0.930 . S
H3189 C3199 0.930 . S
C3190 H3184 0.930 . S
C3190 C3191 1.355 . S
C3190 C3192 1.415 . S
C3191 C3190 1.355 . S
C3191 C3193 1.419 1_455 S
C3192 C3190 1.415 . S
C3192 C3197 1.423 1_455 S
C3192 C3199 1.409 . S
C3193 H3185 0.930 . S
C3193 C3191 1.419 1_655 S
C3193 C3194 1.362 . S
C3194 H3186 0.930 . S
C3194 C3193 1.362 . S
C3194 C3197 1.411 . S
C3195 H3187 0.930 . S
C3195 C3196 1.355 1_655 S
C3195 C3197 1.414 . S
C3196 C3195 1.355 1_455 S
C3196 C3198 1.419 . S
C3197 C3192 1.423 1_655 S
C3197 C3194 1.411 . S
C3197 C3195 1.414 . S
C3198 H3188 0.930 . S
C3198 C3196 1.419 . S
C3198 C3199 1.362 . S
C3199 H3189 0.930 . S
C3199 C3192 1.409 . S
C3199 C3198 1.362 . S
H3200 C3206 0.930 . S
H3201 C3209 0.930 . S
H3202 C3210 0.930 . S
H3203 C3211 0.930 . S
H3204 C3214 0.930 . S
H3205 C3215 0.930 . S
C3206 H3200 0.930 . S
C3206 C3207 1.355 . S
C3206 C3208 1.415 . S
C3207 C3206 1.355 . S
C3207 C3209 1.419 . S
C3208 C3206 1.415 . S
C3208 C3213 1.425 . S
C3208 C3215 1.409 . S
C3209 H3201 0.930 . S
C3209 C3207 1.419 . S
C3209 C3210 1.362 . S
C3210 H3202 0.930 . S
C3210 C3209 1.362 . S
C3210 C3213 1.409 . S
C3211 H3203 0.930 . S
C3211 C3212 1.355 . S
C3211 C3213 1.415 . S
C3212 C3211 1.355 . S
C3212 C3214 1.419 . S
C3213 C3208 1.425 . S
C3213 C3210 1.409 . S
C3213 C3211 1.415 . S
C3214 H3204 0.930 . S
C3214 C3212 1.419 . S
C3214 C3215 1.362 . S
C3215 H3205 0.930 . S
C3215 C3208 1.409 . S
C3215 C3214 1.362 . S
H3216 C3222 0.930 . S
H3217 C3225 0.930 . S
H3218 C3226 0.930 . S
H3219 C3227 0.930 . S
H3220 C3230 0.930 . S
H3221 C3231 0.930 . S
C3222 H3216 0.930 . S
C3222 C3223 1.355 . S
C3222 C3224 1.415 . S
C3223 C3222 1.355 . S
C3223 C3225 1.419 . S
C3224 C3222 1.415 . S
C3224 C3229 1.425 . S
C3224 C3231 1.409 . S
C3225 H3217 0.930 . S
C3225 C3223 1.419 . S
C3225 C3226 1.362 . S
C3226 H3218 0.930 . S
C3226 C3225 1.362 . S
C3226 C3229 1.409 . S
C3227 H3219 0.930 . S
C3227 C3228 1.355 . S
C3227 C3229 1.415 . S
C3228 C3227 1.355 . S
C3228 C3230 1.419 . S
C3229 C3224 1.425 . S
C3229 C3226 1.409 . S
C3229 C3227 1.415 . S
C3230 H3220 0.930 . S
C3230 C3228 1.419 . S
C3230 C3231 1.362 . S
C3231 H3221 0.930 . S
C3231 C3224 1.409 . S
C3231 C3230 1.362 . S
H3232 C3238 0.930 . S
H3233 C3241 0.930 . S
H3234 C3242 0.930 . S
H3235 C3243 0.930 . S
H3236 C3246 0.930 . S
H3237 C3247 0.930 . S
C3238 H3232 0.930 . S
C3238 C3239 1.355 . S
C3238 C3240 1.415 . S
C3239 C3238 1.355 . S
C3239 C3241 1.419 . S
C3240 C3238 1.415 . S
C3240 C3245 1.425 . S
C3240 C3247 1.409 . S
C3241 H3233 0.930 . S
C3241 C3239 1.419 . S
C3241 C3242 1.362 . S
C3242 H3234 0.930 . S
C3242 C3241 1.362 . S
C3242 C3245 1.409 . S
C3243 H3235 0.930 . S
C3243 C3244 1.355 . S
C3243 C3245 1.415 . S
C3244 C3243 1.355 . S
C3244 C3246 1.419 . S
C3245 C3240 1.425 . S
C3245 C3242 1.409 . S
C3245 C3243 1.415 . S
C3246 H3236 0.930 . S
C3246 C3244 1.419 . S
C3246 C3247 1.362 . S
C3247 H3237 0.930 . S
C3247 C3240 1.409 . S
C3247 C3246 1.362 . S
H3248 C3254 0.930 . S
H3249 C3257 0.930 . S
H3250 C3258 0.930 . S
H3251 C3259 0.930 . S
H3252 C3262 0.930 . S
H3253 C3263 0.930 . S
C3254 H3248 0.930 . S
C3254 C3255 1.355 . S
C3254 C3256 1.415 . S
C3255 C3254 1.355 . S
C3255 C3257 1.419 . S
C3256 C3254 1.415 . S
C3256 C3261 1.425 . S
C3256 C3263 1.409 . S
C3257 H3249 0.930 . S
C3257 C3255 1.419 . S
C3257 C3258 1.362 . S
C3258 H3250 0.930 . S
C3258 C3257 1.362 . S
C3258 C3261 1.409 . S
C3259 H3251 0.930 . S
C3259 C3260 1.355 . S
C3259 C3261 1.415 . S
C3260 C3259 1.355 . S
C3260 C3262 1.419 . S
C3261 C3256 1.425 . S
C3261 C3258 1.409 . S
C3261 C3259 1.415 . S
C3262 H3252 0.930 . S
C3262 C3260 1.419 . S
C3262 C3263 1.362 . S
C3263 H3253 0.930 . S
C3263 C3256 1.409 . S
C3263 C3262 1.362 . S
H3264 C3270 0.930 . S
H3265 C3273 0.930 . S
H3266 C3274 0.930 1_565 S
H3267 C3275 0.921 1_565 S
H3268 C3278 0.930 . S
H3269 C3279 0.930 . S
C3270 H3264 0.930 . S
C3270 C3271 1.355 . S
C3270 C3272 1.415 . S
C3271 C3270 1.355 . S
C3271 C3273 1.419 . S
C3272 C3270 1.415 . S
C3272 C3277 1.425 . S
C3272 C3279 1.409 . S
C3273 H3265 0.930 . S
C3273 C3271 1.419 . S
C3273 C3274 1.362 . S
C3274 H3266 0.930 1_545 S
C3274 C3273 1.362 . S
C3274 C3277 1.409 . S
C3275 H3267 0.921 1_545 S
C3275 C3276 1.355 . S
C3275 C3277 1.415 . S
C3276 C3275 1.355 . S
C3276 C3278 1.419 . S
C3277 C3272 1.425 . S
C3277 C3274 1.409 . S
C3277 C3275 1.415 . S
C3278 H3268 0.930 . S
C3278 C3276 1.419 . S
C3278 C3279 1.362 . S
C3279 H3269 0.930 . S
C3279 C3272 1.409 . S
C3279 C3278 1.362 . S
H3280 C3286 0.930 . S
H3281 C3289 0.930 . S
H3282 C3290 0.930 . S
H3283 C3291 0.930 . S
H3284 C3294 0.930 . S
H3285 C3295 0.930 . S
C3286 H3280 0.930 . S
C3286 C3287 1.355 1_455 S
C3286 C3288 1.386 1_455 S
C3287 C3286 1.355 1_655 S
C3287 C3289 1.419 . S
C3288 C3286 1.386 1_655 S
C3288 C3293 1.472 . S
C3288 C3295 1.395 1_655 S
C3289 H3281 0.930 . S
C3289 C3287 1.419 . S
C3289 C3290 1.362 . S
C3290 H3282 0.930 . S
C3290 C3289 1.362 . S
C3290 C3293 1.409 . S
C3291 H3283 0.930 . S
C3291 C3292 1.355 . S
C3291 C3293 1.415 . S
C3292 C3291 1.355 . S
C3292 C3294 1.419 1_655 S
C3293 C3288 1.472 . S
C3293 C3290 1.409 . S
C3293 C3291 1.415 . S
C3294 H3284 0.930 . S
C3294 C3292 1.419 1_455 S
C3294 C3295 1.362 . S
C3295 H3285 0.930 . S
C3295 C3288 1.395 1_455 S
C3295 C3294 1.362 . S
H3296 C3302 0.930 . S
H3297 C3305 0.930 . S
H3298 C3306 0.930 . S
H3299 C3307 0.930 . S
H3300 C3310 0.930 . S
H3301 C3311 0.930 . S
C3302 H3296 0.930 . S
C3302 C3303 1.355 . S
C3302 C3304 1.415 . S
C3303 C3302 1.355 . S
C3303 C3305 1.419 . S
C3304 C3302 1.415 . S
C3304 C3309 1.425 . S
C3304 C3311 1.409 . S
C3305 H3297 0.930 . S
C3305 C3303 1.419 . S
C3305 C3306 1.362 . S
C3306 H3298 0.930 . S
C3306 C3305 1.362 . S
C3306 C3309 1.409 . S
C3307 H3299 0.930 . S
C3307 C3308 1.355 . S
C3307 C3309 1.415 . S
C3308 C3307 1.355 . S
C3308 C3310 1.419 . S
C3309 C3304 1.425 . S
C3309 C3306 1.409 . S
C3309 C3307 1.415 . S
C3310 H3300 0.930 . S
C3310 C3308 1.419 . S
C3310 C3311 1.362 . S
C3311 H3301 0.930 . S
C3311 C3304 1.409 . S
C3311 C3310 1.362 . S
H3312 C3318 0.930 . S
H3313 C3321 0.930 . S
H3314 C3322 0.930 . S
H3315 C3323 0.930 . S
H3316 C3326 0.930 . S
H3317 C3327 0.930 . S
C3318 H3312 0.930 . S
C3318 C3319 1.355 . S
C3318 C3320 1.415 . S
C3319 C3318 1.355 . S
C3319 C3321 1.419 . S
C3320 C3318 1.415 . S
C3320 C3325 1.425 . S
C3320 C3327 1.409 . S
C3321 H3313 0.930 . S
C3321 C3319 1.419 . S
C3321 C3322 1.362 . S
C3322 H3314 0.930 . S
C3322 C3321 1.362 . S
C3322 C3325 1.409 . S
C3323 H3315 0.930 . S
C3323 C3324 1.355 . S
C3323 C3325 1.415 . S
C3324 C3323 1.355 . S
C3324 C3326 1.419 . S
C3325 C3320 1.425 . S
C3325 C3322 1.409 . S
C3325 C3323 1.415 . S
C3326 H3316 0.930 . S
C3326 C3324 1.419 . S
C3326 C3327 1.362 . S
C3327 H3317 0.930 . S
C3327 C3320 1.409 . S
C3327 C3326 1.362 . S
H3328 C3334 0.930 . S
H3329 C3337 0.930 . S
H3330 C3338 0.930 . S
H3331 C3339 0.930 . S
H3332 C3342 0.930 . S
H3333 C3343 0.930 . S
C3334 H3328 0.930 . S
C3334 C3335 1.355 . S
C3334 C3336 1.415 . S
C3335 C3334 1.355 . S
C3335 C3337 1.419 . S
C3336 C3334 1.415 . S
C3336 C3341 1.425 . S
C3336 C3343 1.409 . S
C3337 H3329 0.930 . S
C3337 C3335 1.419 . S
C3337 C3338 1.362 . S
C3338 H3330 0.930 . S
C3338 C3337 1.362 . S
C3338 C3341 1.409 . S
C3339 H3331 0.930 . S
C3339 C3340 1.355 . S
C3339 C3341 1.415 . S
C3340 C3339 1.355 . S
C3340 C3342 1.419 . S
C3341 C3336 1.425 . S
C3341 C3338 1.409 . S
C3341 C3339 1.415 . S
C3342 H3332 0.930 . S
C3342 C3340 1.419 . S
C3342 C3343 1.362 . S
C3343 H3333 0.930 . S
C3343 C3336 1.409 . S
C3343 C3342 1.362 . S
H3344 C3350 0.930 . S
H3345 C3353 0.930 . S
H3346 C3354 0.930 . S
H3347 C3355 0.930 . S
H3348 C3358 0.930 . S
H3349 C3359 0.930 . S
C3350 H3344 0.930 . S
C3350 C3351 1.355 . S
C3350 C3352 1.415 . S
C3351 C3350 1.355 . S
C3351 C3353 1.419 . S
C3352 C3350 1.415 . S
C3352 C3357 1.425 . S
C3352 C3359 1.409 . S
C3353 H3345 0.930 . S
C3353 C3351 1.419 . S
C3353 C3354 1.362 . S
C3354 H3346 0.930 . S
C3354 C3353 1.362 . S
C3354 C3357 1.409 . S
C3355 H3347 0.930 . S
C3355 C3356 1.355 . S
C3355 C3357 1.415 . S
C3356 C3355 1.355 . S
C3356 C3358 1.419 . S
C3357 C3352 1.425 . S
C3357 C3354 1.409 . S
C3357 C3355 1.415 . S
C3358 H3348 0.930 . S
C3358 C3356 1.419 . S
C3358 C3359 1.362 . S
C3359 H3349 0.930 . S
C3359 C3352 1.409 . S
C3359 C3358 1.362 . S
H3360 C3366 0.930 . S
H3361 C3369 0.930 . S
H3362 C3370 0.930 . S
H3363 C3371 0.930 . S
H3364 C3374 0.930 . S
H3365 C3375 0.930 . S
C3366 H3360 0.930 . S
C3366 C3367 1.355 . S
C3366 C3368 1.415 . S
C3367 C3366 1.355 . S
C3367 C3369 1.419 . S
C3368 C3366 1.415 . S
C3368 C3373 1.425 . S
C3368 C3375 1.409 . S
C3369 H3361 0.930 . S
C3369 C3367 1.419 . S
C3369 C3370 1.362 . S
C3370 H3362 0.930 . S
C3370 C3369 1.362 . S
C3370 C3373 1.409 . S
C3371 H3363 0.930 . S
C3371 C3372 1.355 . S
C3371 C3373 1.415 . S
C3372 C3371 1.355 . S
C3372 C3374 1.419 . S
C3373 C3368 1.425 . S
C3373 C3370 1.409 . S
C3373 C3371 1.415 . S
C3374 H3364 0.930 . S
C3374 C3372 1.419 . S
C3374 C3375 1.362 . S
C3375 H3365 0.930 . S
C3375 C3368 1.409 . S
C3375 C3374 1.362 . S
H3376 C3382 0.930 . S
H3377 C3385 0.930 . S
H3378 C3386 0.930 . S
H3379 C3387 0.930 . S
H3380 C3390 0.930 . S
H3381 C3391 0.930 . S
C3382 H3376 0.930 . S
C3382 C3383 1.355 . S
C3382 C3384 1.415 . S
C3383 C3382 1.355 . S
C3383 C3385 1.419 . S
C3384 C3382 1.415 . S
C3384 C3389 1.425 . S
C3384 C3391 1.409 . S
C3385 H3377 0.930 . S
C3385 C3383 1.419 . S
C3385 C3386 1.362 . S
C3386 H3378 0.930 . S
C3386 C3385 1.362 . S
C3386 C3389 1.409 . S
C3387 H3379 0.930 . S
C3387 C3388 1.355 . S
C3387 C3389 1.415 . S
C3388 C3387 1.355 . S
C3388 C3390 1.419 . S
C3389 C3384 1.425 . S
C3389 C3386 1.409 . S
C3389 C3387 1.415 . S
C3390 H3380 0.930 . S
C3390 C3388 1.419 . S
C3390 C3391 1.362 . S
C3391 H3381 0.930 . S
C3391 C3384 1.409 . S
C3391 C3390 1.362 . S
H3392 C3398 0.930 . S
H3393 C3401 0.930 . S
H3394 C3402 0.930 . S
H3395 C3403 0.930 . S
H3396 C3406 0.930 . S
H3397 C3407 0.930 . S
C3398 H3392 0.930 . S
C3398 C3399 1.355 . S
C3398 C3400 1.415 . S
C3399 C3398 1.355 . S
C3399 C3401 1.419 . S
C3400 C3398 1.415 . S
C3400 C3405 1.425 . S
C3400 C3407 1.409 . S
C3401 H3393 0.930 . S
C3401 C3399 1.419 . S
C3401 C3402 1.362 . S
C3402 H3394 0.930 . S
C3402 C3401 1.362 . S
C3402 C3405 1.409 . S
C3403 H3395 0.930 . S
C3403 C3404 1.355 . S
C3403 C3405 1.415 . S
C3404 C3403 1.355 . S
C3404 C3406 1.419 . S
C3405 C3400 1.425 . S
C3405 C3402 1.409 . S
C3405 C3403 1.415 . S
C3406 H3396 0.930 . S
C3406 C3404 1.419 . S
C3406 C3407 1.362 . S
C3407 H3397 0.930 . S
C3407 C3400 1.409 . S
C3407 C3406 1.362 . S
H3408 C3414 0.930 . S
H3409 C3417 0.930 . S
H3410 C3418 0.930 . S
H3411 C3419 0.930 . S
H3412 C3422 0.930 . S
H3413 C3423 0.930 . S
C3414 H3408 0.930 . S
C3414 C3415 1.355 . S
C3414 C3416 1.415 . S
C3415 C3414 1.355 . S
C3415 C3417 1.419 . S
C3416 C3414 1.415 . S
C3416 C3421 1.425 . S
C3416 C3423 1.409 1_655 S
C3417 H3409 0.930 . S
C3417 C3415 1.419 . S
C3417 C3418 1.362 . S
C3418 H3410 0.930 . S
C3418 C3417 1.362 . S
C3418 C3421 1.409 . S
C3419 H3411 0.930 . S
C3419 C3420 1.355 . S
C3419 C3421 1.415 . S
C3420 C3419 1.355 . S
C3420 C3422 1.419 1_655 S
C3421 C3416 1.425 . S
C3421 C3418 1.409 . S
C3421 C3419 1.415 . S
C3422 H3412 0.930 . S
C3422 C3420 1.419 1_455 S
C3422 C3423 1.362 . S
C3423 H3413 0.930 . S
C3423 C3416 1.409 1_455 S
C3423 C3422 1.362 . S
H3424 C3430 0.930 . S
H3425 C3433 0.930 . S
H3426 C3434 0.930 . S
H3427 C3435 0.930 . S
H3428 C3438 0.930 . S
H3429 C3439 0.930 . S
C3430 H3424 0.930 . S
C3430 C3431 1.355 . S
C3430 C3432 1.415 . S
C3431 C3430 1.355 . S
C3431 C3433 1.419 . S
C3432 C3430 1.415 . S
C3432 C3437 1.425 . S
C3432 C3439 1.409 . S
C3433 H3425 0.930 . S
C3433 C3431 1.419 . S
C3433 C3434 1.362 . S
C3434 H3426 0.930 . S
C3434 C3433 1.362 . S
C3434 C3437 1.409 . S
C3435 H3427 0.930 . S
C3435 C3436 1.355 . S
C3435 C3437 1.415 . S
C3436 C3435 1.355 . S
C3436 C3438 1.419 . S
C3437 C3432 1.425 . S
C3437 C3434 1.409 . S
C3437 C3435 1.415 . S
C3438 H3428 0.930 . S
C3438 C3436 1.419 . S
C3438 C3439 1.362 . S
C3439 H3429 0.930 . S
C3439 C3432 1.409 . S
C3439 C3438 1.362 . S
H3440 C3446 0.930 . S
H3441 C3449 0.930 . S
H3442 C3450 0.930 . S
H3443 C3451 0.930 . S
H3444 C3454 0.930 . S
H3445 C3455 0.930 . S
C3446 H3440 0.930 . S
C3446 C3447 1.355 . S
C3446 C3448 1.415 . S
C3447 C3446 1.355 . S
C3447 C3449 1.419 . S
C3448 C3446 1.415 . S
C3448 C3453 1.425 . S
C3448 C3455 1.409 . S
C3449 H3441 0.930 . S
C3449 C3447 1.419 . S
C3449 C3450 1.362 . S
C3450 H3442 0.930 . S
C3450 C3449 1.362 . S
C3450 C3453 1.409 . S
C3451 H3443 0.930 . S
C3451 C3452 1.355 . S
C3451 C3453 1.415 . S
C3452 C3451 1.355 . S
C3452 C3454 1.419 . S
C3453 C3448 1.425 . S
C3453 C3450 1.409 . S
C3453 C3451 1.415 . S
C3454 H3444 0.930 . S
C3454 C3452 1.419 . S
C3454 C3455 1.362 . S
C3455 H3445 0.930 . S
C3455 C3448 1.409 . S
C3455 C3454 1.362 . S
C2311 C13 1.312 . S
C2316 C1307 1.106 1_655 S
C2327 C27 1.451 . S
C2332 C1447 1.054 . S
C2348 C1535 1.130 . S
C2343 C36 1.167 . S
C2359 C41 1.424 . S
C2364 C1675 1.160 1_565 S
C2375 C8 1.349 . S
C2380 C1789 1.019 . S
C2391 C22 1.553 . S
C2396 C1877 1.260 . S
C2407 C55 1.279 . S
C2412 C1763 0.978 . S
C2428 C1903 1.249 . S
C2423 C69 1.324 . S
C2444 C1649 1.028 . S
C2439 C78 1.192 . S
C2455 C83 1.397 . S
C2460 C1561 0.921 . S
C2476 C1333 1.000 . S
C2471 C50 1.317 . S
C2487 C64 1.489 . S
C2492 C1421 1.395 . S
C2503 C97 1.607 . S
C2508 C1991 1.199 . S
C2519 C111 1.495 . S
C2524 C2131 1.002 . S
C2540 C2219 1.172 . S
C2535 C120 1.651 . S
C2551 C125 1.622 . S
C2556 C307 1.089 . S
C2567 C92 1.875 . S
C2572 C421 1.184 . S
C2583 C106 1.696 . S
C2588 C509 1.199 . S
C2599 C139 1.398 . S
C2604 C395 1.401 . S
C2615 C153 1.460 . S
C2620 C535 1.231 . S
C2636 C281 1.526 . S
C2631 C162 1.610 . S
C2652 C2245 1.532 . S
C2647 C167 1.685 . S
C2668 C2017 1.530 . S
C2663 C134 1.747 . S
C2684 C2105 1.476 . S
C2679 C148 1.591 . S
C2695 C181 1.521 . S
C2700 C623 1.132 . S
C2711 C195 1.530 . S
C2716 C763 1.081 . S
C2727 C204 1.710 . S
C2732 C851 1.340 . S
C2743 C209 1.768 . S
C2748 C991 1.268 . S
C2764 C1105 1.134 . S
C2759 C176 1.887 . S
C2780 C1193 1.204 . S
C2775 C190 1.712 . S
C2796 C1079 1.492 . S
C2791 C223 1.524 . S
C2812 C1219 1.360 . S
C2807 C237 1.482 . S
C2823 C246 1.520 . S
C2828 C965 1.393 . S
C2844 C877 1.445 . S
C2839 C251 1.494 . S
C2855 C218 1.770 . S
C2860 C649 1.581 . S
C2876 C737 1.430 . S
C2871 C232 1.549 . S
C2892 C263 0.863 . S
C2887 C11 1.716 . S
C2903 C25 1.496 . S
C2908 C377 0.701 . S
C2924 C481 1.094 . S
C2919 C35 1.682 . S
C2940 C595 1.251 . S
C2935 C39 1.655 . S
C2956 C719 0.968 . S
C2951 C7 1.822 . S
C2972 C823 1.212 . S
C2967 C21 1.681 1_556 S
C2983 C53 1.812 . S
C2988 C833 1.509 . S
C2999 C67 1.647 . S
C3004 C605 1.410 . S
C3015 C77 1.831 1_556 S
C3020 C709 1.577 . S
C3031 C81 1.788 . S
C3036 C367 1.704 . S
C3052 C491 1.578 . S
C3047 C49 1.960 . S
C3063 C63 1.788 . S
C3068 C253 1.537 . S
C3084 C947 1.014 . S
C3079 C95 1.654 . S
C3095 C109 1.644 . S
C3100 C1061 0.854 . S
C3111 C119 1.711 . S
C3116 C1165 1.192 . S
C3132 C1279 0.985 . S
C3127 C123 1.168 . S
C3143 C91 1.662 . S
C3148 C1403 0.943 . S
C3159 C105 1.214 . S
C3164 C1507 1.068 . S
C3175 C137 1.351 . S
C3180 C1517 0.856 1_565 S
C3191 C151 1.113 . S
C3196 C1289 0.744 1_455 S
C3212 C1393 1.479 . S
C3207 C161 1.680 . S
C3223 C165 1.729 . S
C3228 C1051 1.582 . S
C3239 C133 1.923 . S
C3244 C1175 1.547 . S
C3260 C937 1.664 . S
C3255 C147 1.892 . S
C3276 C1631 0.743 . S
C3271 C179 1.353 . S
C3287 C193 1.107 . S
C3292 C1745 0.780 . S
C3303 C203 1.550 . S
C3308 C1849 1.041 . S
C3324 C1963 1.237 . S
C3319 C207 1.556 . S
C3340 C2087 1.108 . S
C3335 C175 1.818 . S
C3351 C189 1.753 . S
C3356 C2191 1.239 . S
C3367 C221 1.742 . S
C3372 C2201 1.496 . S
C3383 C235 1.757 . S
C3388 C1973 1.340 . S
C3404 C2077 1.591 . S
C3399 C245 1.799 . S
C3420 C1735 0.908 1_655 S
C3415 C249 1.167 . S
C3436 C1859 1.458 . S
C3431 C217 1.782 . S
C3447 C231 1.276 . S
C3452 C1621 1.137 1_545 S
